# Generated by pormake.
# Topology som, (6)-cn, num edge types: 1
# Building blocks:
#     Node 0, Type 0, BuildingBlock: PAMTOO_clean_sbu_0, # of connection points: 6
#     Node 1, Type 0, BuildingBlock: PAMTOO_clean_sbu_0, # of connection points: 6
#     Node 2, Type 0, BuildingBlock: PAMTOO_clean_sbu_0, # of connection points: 6
#     Node 3, Type 0, BuildingBlock: PAMTOO_clean_sbu_0, # of connection points: 6
#     Node 4, Type 0, BuildingBlock: PAMTOO_clean_sbu_0, # of connection points: 6
#     Node 5, Type 0, BuildingBlock: PAMTOO_clean_sbu_0, # of connection points: 6
#     Node 6, Type 0, BuildingBlock: PAMTOO_clean_sbu_0, # of connection points: 6
#     Node 7, Type 0, BuildingBlock: PAMTOO_clean_sbu_0, # of connection points: 6
#     Node 8, Type 0, BuildingBlock: PAMTOO_clean_sbu_0, # of connection points: 6
#     Node 9, Type 0, BuildingBlock: PAMTOO_clean_sbu_0, # of connection points: 6
#     Node 10, Type 0, BuildingBlock: PAMTOO_clean_sbu_0, # of connection points: 6
#     Node 11, Type 0, BuildingBlock: PAMTOO_clean_sbu_0, # of connection points: 6
#     Node 12, Type 0, BuildingBlock: PAMTOO_clean_sbu_0, # of connection points: 6
#     Node 13, Type 0, BuildingBlock: PAMTOO_clean_sbu_0, # of connection points: 6
#     Node 14, Type 0, BuildingBlock: PAMTOO_clean_sbu_0, # of connection points: 6
#     Node 15, Type 0, BuildingBlock: PAMTOO_clean_sbu_0, # of connection points: 6
#     Node 16, Type 0, BuildingBlock: PAMTOO_clean_sbu_0, # of connection points: 6
#     Node 17, Type 0, BuildingBlock: PAMTOO_clean_sbu_0, # of connection points: 6
#     Node 18, Type 0, BuildingBlock: PAMTOO_clean_sbu_0, # of connection points: 6
#     Node 19, Type 0, BuildingBlock: PAMTOO_clean_sbu_0, # of connection points: 6
#     Node 20, Type 0, BuildingBlock: PAMTOO_clean_sbu_0, # of connection points: 6
#     Node 21, Type 0, BuildingBlock: PAMTOO_clean_sbu_0, # of connection points: 6
#     Node 22, Type 0, BuildingBlock: PAMTOO_clean_sbu_0, # of connection points: 6
#     Node 23, Type 0, BuildingBlock: PAMTOO_clean_sbu_0, # of connection points: 6
#     Node 24, Type 0, BuildingBlock: PAMTOO_clean_sbu_0, # of connection points: 6
#     Node 25, Type 0, BuildingBlock: PAMTOO_clean_sbu_0, # of connection points: 6
#     Node 26, Type 0, BuildingBlock: PAMTOO_clean_sbu_0, # of connection points: 6
#     Node 27, Type 0, BuildingBlock: PAMTOO_clean_sbu_0, # of connection points: 6
#     Node 28, Type 0, BuildingBlock: PAMTOO_clean_sbu_0, # of connection points: 6
#     Node 29, Type 0, BuildingBlock: PAMTOO_clean_sbu_0, # of connection points: 6
#     Node 30, Type 0, BuildingBlock: PAMTOO_clean_sbu_0, # of connection points: 6
#     Node 31, Type 0, BuildingBlock: PAMTOO_clean_sbu_0, # of connection points: 6
#     Edge 32, Type (0, 0), BuildingBlock: OJICUG_clean_linker_0, # of connection points: 2
#     Edge 33, Type (0, 0), BuildingBlock: OJICUG_clean_linker_0, # of connection points: 2
#     Edge 34, Type (0, 0), BuildingBlock: OJICUG_clean_linker_0, # of connection points: 2
#     Edge 35, Type (0, 0), BuildingBlock: OJICUG_clean_linker_0, # of connection points: 2
#     Edge 36, Type (0, 0), BuildingBlock: OJICUG_clean_linker_0, # of connection points: 2
#     Edge 37, Type (0, 0), BuildingBlock: OJICUG_clean_linker_0, # of connection points: 2
#     Edge 38, Type (0, 0), BuildingBlock: OJICUG_clean_linker_0, # of connection points: 2
#     Edge 39, Type (0, 0), BuildingBlock: OJICUG_clean_linker_0, # of connection points: 2
#     Edge 40, Type (0, 0), BuildingBlock: OJICUG_clean_linker_0, # of connection points: 2
#     Edge 41, Type (0, 0), BuildingBlock: OJICUG_clean_linker_0, # of connection points: 2
#     Edge 42, Type (0, 0), BuildingBlock: OJICUG_clean_linker_0, # of connection points: 2
#     Edge 43, Type (0, 0), BuildingBlock: OJICUG_clean_linker_0, # of connection points: 2
#     Edge 44, Type (0, 0), BuildingBlock: OJICUG_clean_linker_0, # of connection points: 2
#     Edge 45, Type (0, 0), BuildingBlock: OJICUG_clean_linker_0, # of connection points: 2
#     Edge 46, Type (0, 0), BuildingBlock: OJICUG_clean_linker_0, # of connection points: 2
#     Edge 47, Type (0, 0), BuildingBlock: OJICUG_clean_linker_0, # of connection points: 2
#     Edge 48, Type (0, 0), BuildingBlock: OJICUG_clean_linker_0, # of connection points: 2
#     Edge 49, Type (0, 0), BuildingBlock: OJICUG_clean_linker_0, # of connection points: 2
#     Edge 50, Type (0, 0), BuildingBlock: OJICUG_clean_linker_0, # of connection points: 2
#     Edge 51, Type (0, 0), BuildingBlock: OJICUG_clean_linker_0, # of connection points: 2
#     Edge 52, Type (0, 0), BuildingBlock: OJICUG_clean_linker_0, # of connection points: 2
#     Edge 53, Type (0, 0), BuildingBlock: OJICUG_clean_linker_0, # of connection points: 2
#     Edge 54, Type (0, 0), BuildingBlock: OJICUG_clean_linker_0, # of connection points: 2
#     Edge 55, Type (0, 0), BuildingBlock: OJICUG_clean_linker_0, # of connection points: 2
#     Edge 56, Type (0, 0), BuildingBlock: OJICUG_clean_linker_0, # of connection points: 2
#     Edge 57, Type (0, 0), BuildingBlock: OJICUG_clean_linker_0, # of connection points: 2
#     Edge 58, Type (0, 0), BuildingBlock: OJICUG_clean_linker_0, # of connection points: 2
#     Edge 59, Type (0, 0), BuildingBlock: OJICUG_clean_linker_0, # of connection points: 2
#     Edge 60, Type (0, 0), BuildingBlock: OJICUG_clean_linker_0, # of connection points: 2
#     Edge 61, Type (0, 0), BuildingBlock: OJICUG_clean_linker_0, # of connection points: 2
#     Edge 62, Type (0, 0), BuildingBlock: OJICUG_clean_linker_0, # of connection points: 2
#     Edge 63, Type (0, 0), BuildingBlock: OJICUG_clean_linker_0, # of connection points: 2
#     Edge 64, Type (0, 0), BuildingBlock: OJICUG_clean_linker_0, # of connection points: 2
#     Edge 65, Type (0, 0), BuildingBlock: OJICUG_clean_linker_0, # of connection points: 2
#     Edge 66, Type (0, 0), BuildingBlock: OJICUG_clean_linker_0, # of connection points: 2
#     Edge 67, Type (0, 0), BuildingBlock: OJICUG_clean_linker_0, # of connection points: 2
#     Edge 68, Type (0, 0), BuildingBlock: OJICUG_clean_linker_0, # of connection points: 2
#     Edge 69, Type (0, 0), BuildingBlock: OJICUG_clean_linker_0, # of connection points: 2
#     Edge 70, Type (0, 0), BuildingBlock: OJICUG_clean_linker_0, # of connection points: 2
#     Edge 71, Type (0, 0), BuildingBlock: OJICUG_clean_linker_0, # of connection points: 2
#     Edge 72, Type (0, 0), BuildingBlock: OJICUG_clean_linker_0, # of connection points: 2
#     Edge 73, Type (0, 0), BuildingBlock: OJICUG_clean_linker_0, # of connection points: 2
#     Edge 74, Type (0, 0), BuildingBlock: OJICUG_clean_linker_0, # of connection points: 2
#     Edge 75, Type (0, 0), BuildingBlock: OJICUG_clean_linker_0, # of connection points: 2
#     Edge 76, Type (0, 0), BuildingBlock: OJICUG_clean_linker_0, # of connection points: 2
#     Edge 77, Type (0, 0), BuildingBlock: OJICUG_clean_linker_0, # of connection points: 2
#     Edge 78, Type (0, 0), BuildingBlock: OJICUG_clean_linker_0, # of connection points: 2
#     Edge 79, Type (0, 0), BuildingBlock: OJICUG_clean_linker_0, # of connection points: 2
#     Edge 80, Type (0, 0), BuildingBlock: OJICUG_clean_linker_0, # of connection points: 2
#     Edge 81, Type (0, 0), BuildingBlock: OJICUG_clean_linker_0, # of connection points: 2
#     Edge 82, Type (0, 0), BuildingBlock: OJICUG_clean_linker_0, # of connection points: 2
#     Edge 83, Type (0, 0), BuildingBlock: OJICUG_clean_linker_0, # of connection points: 2
#     Edge 84, Type (0, 0), BuildingBlock: OJICUG_clean_linker_0, # of connection points: 2
#     Edge 85, Type (0, 0), BuildingBlock: OJICUG_clean_linker_0, # of connection points: 2
#     Edge 86, Type (0, 0), BuildingBlock: OJICUG_clean_linker_0, # of connection points: 2
#     Edge 87, Type (0, 0), BuildingBlock: OJICUG_clean_linker_0, # of connection points: 2
#     Edge 88, Type (0, 0), BuildingBlock: OJICUG_clean_linker_0, # of connection points: 2
#     Edge 89, Type (0, 0), BuildingBlock: OJICUG_clean_linker_0, # of connection points: 2
#     Edge 90, Type (0, 0), BuildingBlock: OJICUG_clean_linker_0, # of connection points: 2
#     Edge 91, Type (0, 0), BuildingBlock: OJICUG_clean_linker_0, # of connection points: 2
#     Edge 92, Type (0, 0), BuildingBlock: OJICUG_clean_linker_0, # of connection points: 2
#     Edge 93, Type (0, 0), BuildingBlock: OJICUG_clean_linker_0, # of connection points: 2
#     Edge 94, Type (0, 0), BuildingBlock: OJICUG_clean_linker_0, # of connection points: 2
#     Edge 95, Type (0, 0), BuildingBlock: OJICUG_clean_linker_0, # of connection points: 2
#     Edge 96, Type (0, 0), BuildingBlock: OJICUG_clean_linker_0, # of connection points: 2
#     Edge 97, Type (0, 0), BuildingBlock: OJICUG_clean_linker_0, # of connection points: 2
#     Edge 98, Type (0, 0), BuildingBlock: OJICUG_clean_linker_0, # of connection points: 2
#     Edge 99, Type (0, 0), BuildingBlock: OJICUG_clean_linker_0, # of connection points: 2
#     Edge 100, Type (0, 0), BuildingBlock: OJICUG_clean_linker_0, # of connection points: 2
#     Edge 101, Type (0, 0), BuildingBlock: OJICUG_clean_linker_0, # of connection points: 2
#     Edge 102, Type (0, 0), BuildingBlock: OJICUG_clean_linker_0, # of connection points: 2
#     Edge 103, Type (0, 0), BuildingBlock: OJICUG_clean_linker_0, # of connection points: 2
#     Edge 104, Type (0, 0), BuildingBlock: OJICUG_clean_linker_0, # of connection points: 2
#     Edge 105, Type (0, 0), BuildingBlock: OJICUG_clean_linker_0, # of connection points: 2
#     Edge 106, Type (0, 0), BuildingBlock: OJICUG_clean_linker_0, # of connection points: 2
#     Edge 107, Type (0, 0), BuildingBlock: OJICUG_clean_linker_0, # of connection points: 2
#     Edge 108, Type (0, 0), BuildingBlock: OJICUG_clean_linker_0, # of connection points: 2
#     Edge 109, Type (0, 0), BuildingBlock: OJICUG_clean_linker_0, # of connection points: 2
#     Edge 110, Type (0, 0), BuildingBlock: OJICUG_clean_linker_0, # of connection points: 2
#     Edge 111, Type (0, 0), BuildingBlock: OJICUG_clean_linker_0, # of connection points: 2
#     Edge 112, Type (0, 0), BuildingBlock: OJICUG_clean_linker_0, # of connection points: 2
#     Edge 113, Type (0, 0), BuildingBlock: OJICUG_clean_linker_0, # of connection points: 2
#     Edge 114, Type (0, 0), BuildingBlock: OJICUG_clean_linker_0, # of connection points: 2
#     Edge 115, Type (0, 0), BuildingBlock: OJICUG_clean_linker_0, # of connection points: 2
#     Edge 116, Type (0, 0), BuildingBlock: OJICUG_clean_linker_0, # of connection points: 2
#     Edge 117, Type (0, 0), BuildingBlock: OJICUG_clean_linker_0, # of connection points: 2
#     Edge 118, Type (0, 0), BuildingBlock: OJICUG_clean_linker_0, # of connection points: 2
#     Edge 119, Type (0, 0), BuildingBlock: OJICUG_clean_linker_0, # of connection points: 2
#     Edge 120, Type (0, 0), BuildingBlock: OJICUG_clean_linker_0, # of connection points: 2
#     Edge 121, Type (0, 0), BuildingBlock: OJICUG_clean_linker_0, # of connection points: 2
#     Edge 122, Type (0, 0), BuildingBlock: OJICUG_clean_linker_0, # of connection points: 2
#     Edge 123, Type (0, 0), BuildingBlock: OJICUG_clean_linker_0, # of connection points: 2
#     Edge 124, Type (0, 0), BuildingBlock: OJICUG_clean_linker_0, # of connection points: 2
#     Edge 125, Type (0, 0), BuildingBlock: OJICUG_clean_linker_0, # of connection points: 2
#     Edge 126, Type (0, 0), BuildingBlock: OJICUG_clean_linker_0, # of connection points: 2
#     Edge 127, Type (0, 0), BuildingBlock: OJICUG_clean_linker_0, # of connection points: 2
# Relax obj value: 0.043
# Max RMSD: 0.116
# Mean RMSD: 0.116
data_MOF--net-som--node1-PAMTOO_clean_sbu_0--edge1-OJICUG_clean_linker_0
_symmetry_space_group_name_H-M    P1
_symmetry_Int_Tables_number       1
_symmetry_cell_setting            triclinic
loop_
_symmetry_equiv_pos_as_xyz
'x, y, z'
_cell_length_a     22.862
_cell_length_b     37.877
_cell_length_c     82.688
_cell_angle_alpha  90.0
_cell_angle_beta   90.001
_cell_angle_gamma 90.0
loop_
_atom_site_label
_atom_site_type_symbol
_atom_site_fract_x
_atom_site_fract_y
_atom_site_fract_z
_atom_type_partial_charge
Dy0 Dy 0.11471 0.47236 0.05795 0.0
Dy1 Dy 0.94836 0.50682 0.06863 0.0
C2 C 0.05739 0.49421 0.09494 0.0
O3 O 0.04291 0.42644 0.05612 0.0
O4 O 0.95182 0.45009 0.07264 0.0
O5 O 0.19833 0.472 0.06992 0.0
O6 O 0.19498 0.46798 0.04343 0.0
O7 O 0.97181 0.50394 0.04171 0.0
O8 O 0.07785 0.47488 0.03456 0.0
O9 O 0.03261 0.55298 0.06872 0.0
O10 O 0.11128 0.53051 0.05426 0.0
O11 O 0.86752 0.51206 0.05547 0.0
O12 O 0.86759 0.51818 0.08159 0.0
C13 C 0.96707 0.42618 0.06215 0.0
O14 O 0.07929 0.48595 0.08114 0.0
O15 O 0.98476 0.50754 0.09432 0.0
C16 C 0.29012 0.4829 0.05579 0.0
C17 C 0.41139 0.48967 0.05674 0.0
C18 C 0.37843 0.49966 0.07013 0.0
C19 C 0.31837 0.49651 0.0697 0.0
C20 C 0.32411 0.4757 0.04191 0.0
C21 C 0.38443 0.47837 0.04248 0.0
C22 C 0.2276 0.4714 0.05633 0.0
C23 C 0.02987 0.49082 0.03099 0.0
C24 C 0.08585 0.55554 0.06267 0.0
C25 C 0.77484 0.50262 0.06884 0.0
C26 C 0.65335 0.49627 0.06753 0.0
C27 C 0.68661 0.48618 0.05421 0.0
C28 C 0.74683 0.48916 0.05478 0.0
C29 C 0.74033 0.50974 0.08258 0.0
C30 C 0.68006 0.50737 0.08185 0.0
C31 C 0.83615 0.51644 0.06843 0.0
H32 H 0.39967 0.5091 0.08107 0.0
H33 H 0.29489 0.50451 0.08039 0.0
H34 H 0.30445 0.46768 0.03061 0.0
H35 H 0.40995 0.47155 0.03188 0.0
H36 H 0.66534 0.47711 0.04319 0.0
H37 H 0.77023 0.48178 0.04397 0.0
H38 H 0.75961 0.51845 0.09381 0.0
H39 H 0.65438 0.5146 0.09234 0.0
Dy40 Dy 0.15417 0.77855 0.05734 0.0
Dy41 Dy 0.30089 0.74147 0.06895 0.0
C42 C 0.21224 0.75663 0.09477 0.0
O43 O 0.22703 0.824 0.05622 0.0
O44 O 0.29692 0.79897 0.07266 0.0
O45 O 0.07136 0.77887 0.06976 0.0
O46 O 0.0735 0.78299 0.04326 0.0
O47 O 0.26075 0.75488 0.04493 0.0
O48 O 0.18467 0.77797 0.03289 0.0
O49 O 0.23784 0.69584 0.06837 0.0
O50 O 0.1588 0.72002 0.05424 0.0
O51 O 0.38165 0.74097 0.05466 0.0
O52 O 0.38342 0.73523 0.08118 0.0
C53 C 0.28211 0.82355 0.06225 0.0
O54 O 0.19058 0.76481 0.08079 0.0
O55 O 0.26427 0.74313 0.09432 0.0
C56 C 0.95829 0.76808 0.0558 0.0
C57 C 0.83711 0.76125 0.05673 0.0
C58 C 0.87003 0.75129 0.07014 0.0
C59 C 0.93008 0.75447 0.06971 0.0
C60 C 0.92434 0.77528 0.04192 0.0
C61 C 0.86405 0.77257 0.04248 0.0
C62 C 0.04152 0.77949 0.05627 0.0
C63 C 0.23297 0.76251 0.03133 0.0
C64 C 0.18383 0.69468 0.06268 0.0
C65 C 0.47591 0.74572 0.06816 0.0
C66 C 0.59587 0.75434 0.06763 0.0
C67 C 0.56326 0.76403 0.05415 0.0
C68 C 0.50374 0.76011 0.05445 0.0
C69 C 0.50871 0.73964 0.08232 0.0
C70 C 0.56888 0.74284 0.08188 0.0
C71 C 0.41205 0.74365 0.06798 0.0
H72 H 0.84876 0.74183 0.08107 0.0
H73 H 0.9536 0.74644 0.08039 0.0
H74 H 0.94402 0.78329 0.03062 0.0
H75 H 0.83855 0.77941 0.03188 0.0
H76 H 0.58414 0.77399 0.04327 0.0
H77 H 0.47979 0.76931 0.04401 0.0
H78 H 0.4885 0.73277 0.09374 0.0
H79 H 0.59423 0.73642 0.09253 0.0
Dy80 Dy 0.11528 0.77845 0.18822 0.0
Dy81 Dy 0.94821 0.74347 0.17637 0.0
C82 C 0.057 0.75655 0.15081 0.0
O83 O 0.04326 0.82406 0.18919 0.0
O84 O 0.95112 0.80012 0.17277 0.0
O85 O 0.19867 0.7789 0.17569 0.0
O86 O 0.19672 0.78294 0.20218 0.0
O87 O 0.98725 0.75079 0.20139 0.0
O88 O 0.08495 0.77883 0.21243 0.0
O89 O 0.03167 0.69705 0.17694 0.0
O90 O 0.11113 0.72008 0.19122 0.0
O91 O 0.86721 0.7382 0.19027 0.0
O92 O 0.86621 0.73269 0.16397 0.0
C93 C 0.96727 0.82415 0.18318 0.0
O94 O 0.08161 0.76527 0.16437 0.0
O95 O 0.98497 0.74336 0.15112 0.0
C96 C 0.29097 0.76789 0.18963 0.0
C97 C 0.4121 0.76041 0.18879 0.0
C98 C 0.37913 0.75095 0.1753 0.0
C99 C 0.3191 0.75432 0.17571 0.0
C100 C 0.32499 0.77491 0.20353 0.0
C101 C 0.38524 0.77178 0.20303 0.0
C102 C 0.22864 0.77952 0.18916 0.0
C103 C 0.03501 0.76467 0.21414 0.0
C104 C 0.08551 0.69504 0.18275 0.0
C105 C 0.77469 0.74849 0.1767 0.0
C106 C 0.65372 0.7555 0.17776 0.0
C107 C 0.68683 0.76509 0.1912 0.0
C108 C 0.74689 0.76195 0.1907 0.0
C109 C 0.74052 0.74151 0.16285 0.0
C110 C 0.68038 0.74432 0.16346 0.0
C111 C 0.83546 0.7344 0.17726 0.0
H112 H 0.40038 0.74175 0.16433 0.0
H113 H 0.29557 0.74653 0.16498 0.0
H114 H 0.3054 0.78328 0.21478 0.0
H115 H 0.41082 0.77906 0.21356 0.0
H116 H 0.66563 0.77393 0.20224 0.0
H117 H 0.77049 0.7691 0.20151 0.0
H118 H 0.75991 0.73245 0.15168 0.0
H119 H 0.65477 0.73662 0.15301 0.0
Dy120 Dy 0.15353 0.4724 0.18744 0.0
Dy121 Dy 0.29925 0.50686 0.1768 0.0
C122 C 0.21092 0.49418 0.15043 0.0
O123 O 0.22513 0.42651 0.18937 0.0
O124 O 0.29552 0.45009 0.1728 0.0
O125 O 0.06999 0.47222 0.17547 0.0
O126 O 0.07327 0.46767 0.20195 0.0
O127 O 0.27582 0.5043 0.20371 0.0
O128 O 0.18937 0.47646 0.21084 0.0
O129 O 0.23614 0.553 0.17667 0.0
O130 O 0.15701 0.53056 0.19101 0.0
O131 O 0.38016 0.51195 0.18996 0.0
O132 O 0.38007 0.51837 0.16385 0.0
C133 C 0.28011 0.42615 0.18328 0.0
O134 O 0.18845 0.48585 0.16416 0.0
O135 O 0.2629 0.50749 0.15114 0.0
C136 C 0.95749 0.48278 0.18961 0.0
C137 C 0.83627 0.48939 0.18863 0.0
C138 C 0.86939 0.49946 0.17525 0.0
C139 C 0.92938 0.4964 0.17571 0.0
C140 C 0.92344 0.47553 0.20348 0.0
C141 C 0.86312 0.4781 0.2029 0.0
C142 C 0.04071 0.47136 0.18906 0.0
C143 C 0.23813 0.4915 0.21442 0.0
C144 C 0.18294 0.55562 0.18272 0.0
C145 C 0.47271 0.50264 0.17656 0.0
C146 C 0.5942 0.49646 0.1779 0.0
C147 C 0.56076 0.48628 0.1912 0.0
C148 C 0.5006 0.48917 0.19061 0.0
C149 C 0.50729 0.50978 0.16281 0.0
C150 C 0.56757 0.50753 0.16357 0.0
C151 C 0.41152 0.51649 0.177 0.0
H152 H 0.84833 0.50897 0.1643 0.0
H153 H 0.95291 0.5045 0.16503 0.0
H154 H 0.94306 0.46763 0.2148 0.0
H155 H 0.83757 0.47143 0.21352 0.0
H156 H 0.58188 0.47718 0.20223 0.0
H157 H 0.47719 0.48172 0.20142 0.0
H158 H 0.48807 0.51842 0.15157 0.0
H159 H 0.5933 0.51465 0.15306 0.0
Dy160 Dy 0.05417 0.49286 0.93136 0.0
Dy161 Dy 0.88773 0.52732 0.94202 0.0
C162 C 0.97265 0.50886 0.969 0.0
O163 O 0.96988 0.44669 0.93128 0.0
O164 O 0.89121 0.46916 0.94575 0.0
O165 O 0.13501 0.48769 0.94454 0.0
O166 O 0.13497 0.48148 0.91843 0.0
O167 O 0.92378 0.51363 0.91891 0.0
O168 O 0.01788 0.49212 0.90564 0.0
O169 O 0.95956 0.57326 0.94387 0.0
O170 O 0.05071 0.5496 0.92736 0.0
O171 O 0.80411 0.5277 0.93006 0.0
O172 O 0.80752 0.53167 0.95655 0.0
C173 C 0.91667 0.4441 0.93735 0.0
O174 O 0.0306 0.49557 0.95829 0.0
O175 O 0.92482 0.52497 0.96541 0.0
C176 C 0.22773 0.49711 0.93116 0.0
C177 C 0.34924 0.50364 0.93238 0.0
C178 C 0.31608 0.51359 0.94575 0.0
C179 C 0.25583 0.51056 0.94521 0.0
C180 C 0.26217 0.49004 0.9174 0.0
C181 C 0.32244 0.49252 0.91809 0.0
C182 C 0.1664 0.48328 0.93158 0.0
C183 C 0.94522 0.50545 0.90503 0.0
C184 C 0.03545 0.57352 0.93785 0.0
C185 C 0.71234 0.51674 0.94421 0.0
C186 C 0.59105 0.50979 0.94335 0.0
C187 C 0.62391 0.49994 0.92991 0.0
C188 C 0.684 0.50313 0.93031 0.0
C189 C 0.67841 0.5239 0.95811 0.0
C190 C 0.61809 0.52111 0.95759 0.0
C191 C 0.77485 0.5283 0.94365 0.0
H192 H 0.33744 0.52259 0.95677 0.0
H193 H 0.23247 0.51788 0.95604 0.0
H194 H 0.24287 0.48123 0.90619 0.0
H195 H 0.34808 0.48514 0.90761 0.0
H196 H 0.60259 0.49058 0.91897 0.0
H197 H 0.70745 0.49521 0.9196 0.0
H198 H 0.6981 0.53203 0.96939 0.0
H199 H 0.59261 0.52809 0.96816 0.0
Dy200 Dy 0.70227 0.25549 0.93138 0.0
Dy201 Dy 0.84839 0.22184 0.94207 0.0
C202 C 0.76314 0.2394 0.96904 0.0
O203 O 0.76575 0.30172 0.93133 0.0
O204 O 0.84451 0.27954 0.94579 0.0
O205 O 0.62145 0.2606 0.94466 0.0
O206 O 0.62146 0.26713 0.91856 0.0
O207 O 0.80958 0.23106 0.9187 0.0
O208 O 0.73929 0.25641 0.90569 0.0
O209 O 0.7761 0.17551 0.94392 0.0
O210 O 0.70593 0.19885 0.92725 0.0
O211 O 0.93162 0.22082 0.93009 0.0
O212 O 0.92834 0.21672 0.95659 0.0
C213 C 0.81902 0.30438 0.93735 0.0
O214 O 0.72576 0.25211 0.95827 0.0
O215 O 0.81137 0.22363 0.96554 0.0
C216 C 0.52882 0.25119 0.9312 0.0
C217 C 0.40735 0.24432 0.93233 0.0
C218 C 0.44045 0.23464 0.94574 0.0
C219 C 0.50066 0.23774 0.94523 0.0
C220 C 0.49448 0.25815 0.91739 0.0
C221 C 0.43419 0.25544 0.91803 0.0
C222 C 0.59003 0.26519 0.93171 0.0
C223 C 0.79239 0.24459 0.9052 0.0
C224 C 0.72101 0.17505 0.93781 0.0
C225 C 0.04415 0.23178 0.94423 0.0
C226 C 0.16542 0.23909 0.94337 0.0
C227 C 0.13253 0.24866 0.9299 0.0
C228 C 0.07245 0.24536 0.93031 0.0
C229 C 0.07814 0.2247 0.95812 0.0
C230 C 0.13845 0.22774 0.95761 0.0
C231 C 0.96096 0.22004 0.94367 0.0
H232 H 0.41905 0.22583 0.95678 0.0
H233 H 0.52395 0.23059 0.95609 0.0
H234 H 0.51382 0.26718 0.90622 0.0
H235 H 0.40855 0.26312 0.90759 0.0
H236 H 0.15384 0.25789 0.91893 0.0
H237 H 0.049 0.25316 0.91959 0.0
H238 H 0.05851 0.21636 0.96938 0.0
H239 H 0.16398 0.22051 0.96815 0.0
Dy240 Dy 0.05431 0.25626 0.82348 0.0
Dy241 Dy 0.88723 0.22112 0.81126 0.0
C242 C 0.96863 0.2362 0.78525 0.0
O243 O 0.97061 0.30254 0.82301 0.0
O244 O 0.89168 0.27969 0.80854 0.0
O245 O 0.1348 0.26195 0.80983 0.0
O246 O 0.13519 0.26713 0.83611 0.0
O247 O 0.92283 0.23475 0.83493 0.0
O248 O 0.01691 0.25598 0.8488 0.0
O249 O 0.95955 0.17547 0.81052 0.0
O250 O 0.0512 0.19939 0.82721 0.0
O251 O 0.80487 0.22113 0.82387 0.0
O252 O 0.80609 0.2166 0.79735 0.0
C253 C 0.91699 0.30464 0.81715 0.0
O254 O 0.01778 0.24518 0.79858 0.0
O255 O 0.91759 0.22265 0.7866 0.0
C256 C 0.22661 0.25128 0.82355 0.0
C257 C 0.34768 0.24388 0.82221 0.0
C258 C 0.31321 0.23317 0.80912 0.0
C259 C 0.25366 0.23722 0.80963 0.0
C260 C 0.26122 0.25814 0.83734 0.0
C261 C 0.32141 0.25521 0.8366 0.0
C262 C 0.16627 0.2658 0.82289 0.0
C263 C 0.94391 0.24285 0.84904 0.0
C264 C 0.03511 0.17521 0.81682 0.0
C265 C 0.71233 0.23148 0.81015 0.0
C266 C 0.59135 0.23946 0.81128 0.0
C267 C 0.62571 0.25001 0.82441 0.0
C268 C 0.68514 0.2456 0.82401 0.0
C269 C 0.67795 0.22454 0.79632 0.0
C270 C 0.61774 0.2279 0.79693 0.0
C271 C 0.77473 0.22062 0.81043 0.0
H272 H 0.33272 0.22305 0.79808 0.0
H273 H 0.23013 0.23044 0.79876 0.0
H274 H 0.24219 0.26748 0.8485 0.0
H275 H 0.34714 0.26338 0.84697 0.0
H276 H 0.60622 0.26068 0.83534 0.0
H277 H 0.70878 0.25329 0.83473 0.0
H278 H 0.69731 0.21621 0.78504 0.0
H279 H 0.59211 0.22033 0.78646 0.0
Dy280 Dy 0.70303 0.49303 0.82319 0.0
Dy281 Dy 0.84877 0.52737 0.81236 0.0
C282 C 0.7637 0.5096 0.78542 0.0
O283 O 0.76611 0.4468 0.82326 0.0
O284 O 0.84475 0.46916 0.80871 0.0
O285 O 0.62218 0.48749 0.81004 0.0
O286 O 0.62226 0.48163 0.83617 0.0
O287 O 0.81337 0.5138 0.83563 0.0
O288 O 0.73949 0.49232 0.84886 0.0
O289 O 0.77724 0.5733 0.81067 0.0
O290 O 0.70695 0.54969 0.82728 0.0
O291 O 0.93224 0.52767 0.8244 0.0
O292 O 0.92926 0.53159 0.7979 0.0
C293 C 0.81929 0.44417 0.8172 0.0
O294 O 0.72639 0.49688 0.79626 0.0
O295 O 0.81211 0.52538 0.78883 0.0
C296 C 0.52966 0.49712 0.82343 0.0
C297 C 0.40821 0.50351 0.82214 0.0
C298 C 0.44152 0.51359 0.80881 0.0
C299 C 0.50173 0.5106 0.80938 0.0
C300 C 0.49513 0.49002 0.83718 0.0
C301 C 0.43487 0.49241 0.83645 0.0
C302 C 0.59081 0.48321 0.82301 0.0
C303 C 0.79151 0.50556 0.84948 0.0
C304 C 0.72228 0.57359 0.81677 0.0
C305 C 0.04507 0.51692 0.8104 0.0
C306 C 0.16629 0.51003 0.81133 0.0
C307 C 0.13327 0.50008 0.82474 0.0
C308 C 0.07322 0.50328 0.8243 0.0
C309 C 0.07912 0.52409 0.79652 0.0
C310 C 0.13941 0.52137 0.79708 0.0
C311 C 0.96165 0.52803 0.81083 0.0
H312 H 0.42029 0.52264 0.7978 0.0
H313 H 0.52517 0.51796 0.79856 0.0
H314 H 0.51435 0.48127 0.84841 0.0
H315 H 0.40915 0.48512 0.84694 0.0
H316 H 0.15445 0.49061 0.83567 0.0
H317 H 0.04966 0.49522 0.83498 0.0
H318 H 0.0595 0.53206 0.78521 0.0
H319 H 0.16497 0.52818 0.78648 0.0
Dy320 Dy 0.11617 0.97425 0.56103 0.0
Dy321 Dy 0.94661 0.00454 0.57174 0.0
C322 C 0.05873 0.99609 0.59801 0.0
O323 O 0.04418 0.92839 0.55914 0.0
O324 O 0.95341 0.95193 0.57579 0.0
O325 O 0.1997 0.97393 0.57302 0.0
O326 O 0.19639 0.96971 0.54654 0.0
O327 O 0.96983 0.00092 0.54483 0.0
O328 O 0.08018 0.97762 0.53759 0.0
O329 O 0.03057 0.05087 0.57171 0.0
O330 O 0.10968 0.0284 0.55741 0.0
O331 O 0.86577 0.0096 0.55859 0.0
O332 O 0.86575 0.01547 0.58475 0.0
C333 C 0.96839 0.9281 0.56523 0.0
O334 O 0.08026 0.9879 0.58415 0.0
O335 O 0.98305 0.00534 0.59741 0.0
C336 C 0.29141 0.98486 0.55885 0.0
C337 C 0.41269 0.99168 0.55974 0.0
C338 C 0.37979 1.00171 0.57315 0.0
C339 C 0.31973 0.99852 0.57274 0.0
C340 C 0.32536 0.97762 0.54497 0.0
C341 C 0.38568 0.9803 0.54551 0.0
C342 C 0.22902 0.97315 0.55944 0.0
C343 C 0.03139 0.99263 0.53406 0.0
C344 C 0.08386 0.05348 0.5657 0.0
C345 C 0.77288 0.00045 0.57189 0.0
C346 C 0.65443 0.99814 0.57065 0.0
C347 C 0.6876 0.98814 0.55728 0.0
C348 C 0.74782 0.99114 0.55783 0.0
C349 C 0.73846 0.00768 0.58563 0.0
C350 C 0.67821 0.00526 0.58494 0.0
C351 C 0.83442 0.0138 0.57157 0.0
H352 H 0.39809 0.0071 0.58408 0.0
H353 H 0.29329 0.00239 0.58345 0.0
H354 H 0.30567 0.9695 0.53369 0.0
H355 H 0.41116 0.97336 0.53492 0.0
H356 H 0.66629 0.97897 0.54629 0.0
H357 H 0.77123 0.98363 0.54704 0.0
H358 H 0.75784 0.01628 0.59687 0.0
H359 H 0.65262 0.01242 0.59546 0.0
Dy360 Dy 0.15211 0.27563 0.56007 0.0
Dy361 Dy 0.29967 0.24107 0.57201 0.0
C362 C 0.20877 0.25301 0.59759 0.0
O363 O 0.22543 0.32206 0.55921 0.0
O364 O 0.29667 0.29798 0.57568 0.0
O365 O 0.07009 0.27652 0.57261 0.0
O366 O 0.07161 0.28066 0.54609 0.0
O367 O 0.2623 0.25217 0.54728 0.0
O368 O 0.18382 0.2762 0.53566 0.0
O369 O 0.23621 0.19488 0.57148 0.0
O370 O 0.15728 0.21796 0.55711 0.0
O371 O 0.37999 0.23573 0.55818 0.0
O372 O 0.38094 0.23041 0.58447 0.0
C373 C 0.28051 0.32219 0.56532 0.0
O374 O 0.19024 0.26543 0.58379 0.0
O375 O 0.26205 0.2414 0.59734 0.0
C376 C 0.95647 0.26608 0.55889 0.0
C377 C 0.83534 0.25896 0.55979 0.0
C378 C 0.86826 0.24912 0.57322 0.0
C379 C 0.92832 0.25242 0.5728 0.0
C380 C 0.92253 0.27319 0.545 0.0
C381 C 0.86227 0.27034 0.54554 0.0
C382 C 0.04005 0.27668 0.55915 0.0
C383 C 0.23358 0.26126 0.53406 0.0
C384 C 0.18247 0.19293 0.56565 0.0
C385 C 0.47254 0.24624 0.57176 0.0
C386 C 0.59367 0.25271 0.57062 0.0
C387 C 0.5606 0.26275 0.55725 0.0
C388 C 0.50048 0.25977 0.55777 0.0
C389 C 0.50671 0.23919 0.58559 0.0
C390 C 0.56692 0.2416 0.58493 0.0
C391 C 0.41175 0.232 0.57119 0.0
H392 H 0.84699 0.23961 0.58414 0.0
H393 H 0.95188 0.24427 0.58346 0.0
H394 H 0.94224 0.28109 0.53369 0.0
H395 H 0.83679 0.27716 0.53494 0.0
H396 H 0.58187 0.27175 0.54623 0.0
H397 H 0.47695 0.26706 0.54697 0.0
H398 H 0.48728 0.23034 0.5968 0.0
H399 H 0.59248 0.23421 0.59542 0.0
Dy400 Dy 0.11384 0.27646 0.69181 0.0
Dy401 Dy 0.94618 0.24114 0.67961 0.0
C402 C 0.0569 0.25465 0.65402 0.0
O403 O 0.04125 0.32201 0.69252 0.0
O404 O 0.9496 0.29794 0.67586 0.0
O405 O 0.19615 0.2761 0.67913 0.0
O406 O 0.19535 0.28066 0.70564 0.0
O407 O 0.98406 0.25254 0.70427 0.0
O408 O 0.0833 0.275 0.71655 0.0
O409 O 0.03018 0.19491 0.68008 0.0
O410 O 0.10906 0.21789 0.69456 0.0
O411 O 0.86565 0.23569 0.69342 0.0
O412 O 0.86487 0.23037 0.66713 0.0
C413 C 0.96561 0.32214 0.68626 0.0
O414 O 0.0782 0.26279 0.6681 0.0
O415 O 0.98379 0.24153 0.65432 0.0
C416 C 0.28946 0.26618 0.69263 0.0
C417 C 0.41043 0.25857 0.69179 0.0
C418 C 0.37747 0.24901 0.67832 0.0
C419 C 0.31745 0.25248 0.67872 0.0
C420 C 0.32341 0.27315 0.70653 0.0
C421 C 0.3836 0.27 0.70603 0.0
C422 C 0.22642 0.27601 0.69253 0.0
C423 C 0.0324 0.26155 0.71773 0.0
C424 C 0.08392 0.19294 0.68591 0.0
C425 C 0.77325 0.24627 0.67978 0.0
C426 C 0.65212 0.25306 0.68085 0.0
C427 C 0.68522 0.26286 0.69426 0.0
C428 C 0.74534 0.2598 0.69376 0.0
C429 C 0.73904 0.23932 0.66592 0.0
C430 C 0.67884 0.24194 0.66656 0.0
C431 C 0.83394 0.23195 0.68039 0.0
H432 H 0.39869 0.23956 0.66739 0.0
H433 H 0.29379 0.2443 0.66807 0.0
H434 H 0.30373 0.28104 0.71784 0.0
H435 H 0.40911 0.27695 0.71661 0.0
H436 H 0.66397 0.27171 0.7053 0.0
H437 H 0.76887 0.26696 0.70458 0.0
H438 H 0.75838 0.2303 0.65474 0.0
H439 H 0.65321 0.23433 0.6561 0.0
Dy440 Dy 0.15507 0.9736 0.69044 0.0
Dy441 Dy 0.29751 0.00457 0.67984 0.0
C442 C 0.21297 0.99489 0.65344 0.0
O443 O 0.22652 0.92837 0.69243 0.0
O444 O 0.29647 0.95192 0.67573 0.0
O445 O 0.07126 0.97398 0.67852 0.0
O446 O 0.07464 0.96943 0.705 0.0
O447 O 0.2745 0.00082 0.70674 0.0
O448 O 0.18978 0.9788 0.71394 0.0
O449 O 0.23455 0.05083 0.67982 0.0
O450 O 0.15517 0.02829 0.69404 0.0
O451 O 0.37834 0.00951 0.69309 0.0
O452 O 0.37833 0.01603 0.66698 0.0
C453 C 0.28137 0.92807 0.68629 0.0
O454 O 0.18922 0.98979 0.6674 0.0
O455 O 0.2613 0.00523 0.65414 0.0
C456 C 0.95897 0.98463 0.69272 0.0
C457 C 0.83773 0.99118 0.69166 0.0
C458 C 0.87115 1.00117 0.6783 0.0
C459 C 0.93102 0.99823 0.67881 0.0
C460 C 0.92483 0.97733 0.70657 0.0
C461 C 0.8645 0.97986 0.70595 0.0
C462 C 0.04204 0.97305 0.69212 0.0
C463 C 0.2392 0.993 0.71749 0.0
C464 C 0.18123 0.05343 0.6858 0.0
C465 C 0.47087 0.0005 0.67963 0.0
C466 C 0.59534 0.99852 0.68097 0.0
C467 C 0.56173 0.98852 0.69429 0.0
C468 C 0.50171 0.99121 0.69368 0.0
C469 C 0.5054 0.00771 0.66588 0.0
C470 C 0.5657 0.00552 0.66663 0.0
C471 C 0.4097 0.01414 0.68013 0.0
H472 H 0.84747 0.00658 0.66729 0.0
H473 H 0.95157 0.0023 0.66814 0.0
H474 H 0.94439 0.96944 0.7179 0.0
H475 H 0.83892 0.97326 0.71658 0.0
H476 H 0.58254 0.97948 0.70537 0.0
H477 H 0.47834 0.98364 0.70447 0.0
H478 H 0.48609 0.0162 0.65462 0.0
H479 H 0.59138 0.01247 0.65607 0.0
Dy480 Dy 0.05613 0.99507 0.42835 0.0
Dy481 Dy 0.88542 0.02542 0.43874 0.0
C482 C 0.97165 0.00665 0.46594 0.0
O483 O 0.97182 0.949 0.42829 0.0
O484 O 0.89245 0.97144 0.44251 0.0
O485 O 0.13698 0.98941 0.44156 0.0
O486 O 0.13673 0.98314 0.41547 0.0
O487 O 0.92551 0.01126 0.41622 0.0
O488 O 0.01904 0.99458 0.4025 0.0
O489 O 0.95835 0.07137 0.44085 0.0
O490 O 0.04947 0.0478 0.42425 0.0
O491 O 0.80272 0.02582 0.4269 0.0
O492 O 0.80623 0.0302 0.45341 0.0
C493 C 0.91857 0.94631 0.43431 0.0
O494 O 0.03389 0.99861 0.45532 0.0
O495 O 0.92252 0.02115 0.46227 0.0
C496 C 0.22922 0.99931 0.42807 0.0
C497 C 0.34774 0.00168 0.42936 0.0
C498 C 0.31444 0.0118 0.44268 0.0
C499 C 0.25422 0.00882 0.44211 0.0
C500 C 0.26369 0.99236 0.4143 0.0
C501 C 0.32399 0.9947 0.41504 0.0
C502 C 0.16829 0.9849 0.42859 0.0
C503 C 0.94307 0.00374 0.40183 0.0
C504 C 0.03419 0.07173 0.43475 0.0
C505 C 0.71124 0.01479 0.44115 0.0
C506 C 0.58987 0.00804 0.4402 0.0
C507 C 0.62286 -0.00204 0.42683 0.0
C508 C 0.68294 0.00112 0.42726 0.0
C509 C 0.6772 0.02203 0.45503 0.0
C510 C 0.61684 0.01939 0.45445 0.0
C511 C 0.77346 0.0268 0.44051 0.0
H512 H 0.33571 0.02069 0.45372 0.0
H513 H 0.23086 0.01601 0.45295 0.0
H514 H 0.24445 0.98348 0.40309 0.0
H515 H 0.34968 0.98728 0.40458 0.0
H516 H 0.6046 0.99258 0.41589 0.0
H517 H 0.70936 0.99729 0.41654 0.0
H518 H 0.69681 0.03019 0.46631 0.0
H519 H 0.5913 0.02633 0.46503 0.0
Dy520 Dy 0.70449 0.75757 0.42843 0.0
Dy521 Dy 0.84967 0.72415 0.43942 0.0
C522 C 0.76289 0.74092 0.46602 0.0
O523 O 0.76777 0.80372 0.42804 0.0
O524 O 0.84556 0.78184 0.44302 0.0
O525 O 0.62348 0.76242 0.4416 0.0
O526 O 0.62381 0.76945 0.41554 0.0
O527 O 0.81193 0.73384 0.41592 0.0
O528 O 0.74112 0.75846 0.40275 0.0
O529 O 0.77795 0.67738 0.44094 0.0
O530 O 0.7075 0.70088 0.42444 0.0
O531 O 0.93276 0.72294 0.42731 0.0
O532 O 0.92995 0.71932 0.45384 0.0
C533 C 0.82061 0.80653 0.43432 0.0
O534 O 0.73089 0.75827 0.45523 0.0
O535 O 0.80941 0.72292 0.46271 0.0
C536 C 0.53089 0.7533 0.42808 0.0
C537 C 0.40933 0.74591 0.42921 0.0
C538 C 0.44272 0.73644 0.44261 0.0
C539 C 0.50284 0.73976 0.44209 0.0
C540 C 0.49638 0.76016 0.41427 0.0
C541 C 0.43607 0.7571 0.4149 0.0
C542 C 0.59217 0.76733 0.42866 0.0
C543 C 0.79413 0.74653 0.40229 0.0
C544 C 0.72285 0.67693 0.43487 0.0
C545 C 0.04572 0.73393 0.44125 0.0
C546 C 0.16697 0.7418 0.44037 0.0
C547 C 0.13379 0.75114 0.4269 0.0
C548 C 0.07382 0.74756 0.42731 0.0
C549 C 0.07985 0.72698 0.45513 0.0
C550 C 0.14013 0.73038 0.45464 0.0
C551 C 0.96231 0.72258 0.44086 0.0
H552 H 0.42151 0.72774 0.4537 0.0
H553 H 0.52609 0.73282 0.45299 0.0
H554 H 0.51553 0.76948 0.40313 0.0
H555 H 0.41031 0.76511 0.40453 0.0
H556 H 0.15493 0.76031 0.4159 0.0
H557 H 0.05038 0.75524 0.41656 0.0
H558 H 0.06029 0.71849 0.46637 0.0
H559 H 0.16573 0.72288 0.46512 0.0
Dy560 Dy 0.05575 0.75814 0.32036 0.0
Dy561 Dy 0.88842 0.72324 0.30918 0.0
C562 C 0.97023 0.73976 0.28249 0.0
O563 O 0.97215 0.80449 0.32007 0.0
O564 O 0.89316 0.78161 0.30572 0.0
O565 O 0.13638 0.7637 0.30684 0.0
O566 O 0.13713 0.7693 0.33301 0.0
O567 O 0.924 0.73696 0.33248 0.0
O568 O 0.01883 0.75838 0.34589 0.0
O569 O 0.96086 0.67774 0.30772 0.0
O570 O 0.05255 0.70145 0.32425 0.0
O571 O 0.80523 0.72302 0.3213 0.0
O572 O 0.8078 0.71904 0.29479 0.0
C573 C 0.91867 0.80673 0.31415 0.0
O574 O 0.02647 0.75106 0.29411 0.0
O575 O 0.92122 0.72427 0.28533 0.0
C576 C 0.22915 0.75352 0.32027 0.0
C577 C 0.35046 0.74695 0.31915 0.0
C578 C 0.31735 0.73697 0.30576 0.0
C579 C 0.25716 0.74 0.30627 0.0
C580 C 0.26347 0.76051 0.33409 0.0
C581 C 0.3237 0.75805 0.33344 0.0
C582 C 0.16817 0.76768 0.31979 0.0
C583 C 0.94608 0.74519 0.34634 0.0
C584 C 0.03676 0.67754 0.31377 0.0
C585 C 0.71316 0.73379 0.30734 0.0
C586 C 0.59204 0.74085 0.30819 0.0
C587 C 0.62494 0.75067 0.32164 0.0
C588 C 0.68499 0.74741 0.32124 0.0
C589 C 0.67924 0.72666 0.29344 0.0
C590 C 0.61899 0.7295 0.29396 0.0
C591 C 0.77567 0.72268 0.30777 0.0
H592 H 0.33866 0.72802 0.29474 0.0
H593 H 0.23372 0.73271 0.29545 0.0
H594 H 0.24414 0.76938 0.34529 0.0
H595 H 0.3493 0.76549 0.34393 0.0
H596 H 0.60367 0.76008 0.33257 0.0
H597 H 0.70855 0.75543 0.33193 0.0
H598 H 0.69894 0.71863 0.28215 0.0
H599 H 0.5935 0.72257 0.28337 0.0
Dy600 Dy 0.70494 0.99532 0.32012 0.0
Dy601 Dy 0.84629 0.02559 0.30898 0.0
C602 C 0.76308 0.00832 0.28226 0.0
O603 O 0.76759 0.94881 0.32012 0.0
O604 O 0.84618 0.97125 0.3056 0.0
O605 O 0.62418 0.99059 0.30678 0.0
O606 O 0.62394 0.98434 0.33295 0.0
O607 O 0.81633 0.01178 0.33298 0.0
O608 O 0.74093 0.99442 0.34563 0.0
O609 O 0.77562 0.07137 0.30754 0.0
O610 O 0.70599 0.04781 0.32433 0.0
O611 O 0.93056 0.02563 0.32118 0.0
O612 O 0.928 0.02972 0.29472 0.0
C613 C 0.82089 0.94626 0.31412 0.0
O614 O 0.72943 1.00024 0.29339 0.0
O615 O 0.81208 0.02364 0.28537 0.0
C616 C 0.53123 0.99922 0.32024 0.0
C617 C 0.40686 0.00116 0.31906 0.0
C618 C 0.44013 0.01125 0.3057 0.0
C619 C 0.50018 0.00844 0.30623 0.0
C620 C 0.49693 0.99187 0.33404 0.0
C621 C 0.43663 0.99408 0.33336 0.0
C622 C 0.59276 0.98621 0.31977 0.0
C623 C 0.78901 0.00419 0.34624 0.0
C624 C 0.72087 0.07164 0.31373 0.0
C625 C 0.04374 0.01524 0.30732 0.0
C626 C 0.16491 0.00846 0.30832 0.0
C627 C 0.13167 -0.00162 0.32169 0.0
C628 C 0.07172 0.00154 0.32123 0.0
C629 C 0.07783 0.02247 0.29346 0.0
C630 C 0.13811 0.01984 0.29406 0.0
C631 C 0.9601 0.02582 0.30766 0.0
H632 H 0.41906 0.02053 0.29471 0.0
H633 H 0.52356 0.01615 0.29546 0.0
H634 H 0.51642 0.98353 0.3453 0.0
H635 H 0.41104 0.98719 0.34395 0.0
H636 H 0.15561 0.99279 0.33263 0.0
H637 H 0.05112 0.99734 0.33187 0.0
H638 H 0.05821 0.03021 0.28212 0.0
H639 H 0.16367 0.02643 0.28343 0.0
Dy640 Dy 0.60425 0.47218 0.56099 0.0
Dy641 Dy 0.45834 0.50666 0.57173 0.0
C642 C 0.54679 0.49406 0.59803 0.0
O643 O 0.5321 0.4264 0.5592 0.0
O644 O 0.46172 0.44998 0.57576 0.0
O645 O 0.68774 0.47191 0.57297 0.0
O646 O 0.68452 0.46788 0.54647 0.0
O647 O 0.4828 0.50237 0.54487 0.0
O648 O 0.56874 0.47453 0.53744 0.0
O649 O 0.52157 0.55295 0.57171 0.0
O650 O 0.60043 0.53041 0.55733 0.0
O651 O 0.37755 0.51213 0.55851 0.0
O652 O 0.37743 0.51793 0.58464 0.0
C653 C 0.47704 0.42611 0.56526 0.0
O654 O 0.5683 0.48587 0.58415 0.0
O655 O 0.49482 0.50729 0.59743 0.0
C656 C 0.77961 0.48275 0.55887 0.0
C657 C 0.90083 0.48976 0.55972 0.0
C658 C 0.86799 0.49959 0.57316 0.0
C659 C 0.80792 0.49636 0.57276 0.0
C660 C 0.8135 0.4756 0.54496 0.0
C661 C 0.8738 0.47842 0.54548 0.0
C662 C 0.71705 0.47142 0.55939 0.0
C663 C 0.52032 0.49004 0.53399 0.0
C664 C 0.57486 0.5555 0.56569 0.0
C665 C 0.28481 0.50242 0.57188 0.0
C666 C 0.16335 0.49586 0.57069 0.0
C667 C 0.19648 0.48592 0.55731 0.0
C668 C 0.25672 0.48896 0.55784 0.0
C669 C 0.2504 0.50947 0.58565 0.0
C670 C 0.19015 0.50698 0.58497 0.0
C671 C 0.34608 0.51632 0.57147 0.0
H672 H 0.88931 0.50896 0.5841 0.0
H673 H 0.78443 0.50433 0.58346 0.0
H674 H 0.79379 0.46751 0.53368 0.0
H675 H 0.89927 0.47146 0.5349 0.0
H676 H 0.17511 0.47693 0.54629 0.0
H677 H 0.2801 0.48164 0.54701 0.0
H678 H 0.26973 0.51829 0.59686 0.0
H679 H 0.16453 0.51438 0.59546 0.0
Dy680 Dy 0.64424 0.77842 0.56059 0.0
Dy681 Dy 0.78973 0.74409 0.57167 0.0
C682 C 0.70101 0.75669 0.59787 0.0
O683 O 0.7162 0.82429 0.55907 0.0
O684 O 0.78622 0.80074 0.57578 0.0
O685 O 0.56089 0.77849 0.57273 0.0
O686 O 0.56343 0.78267 0.54624 0.0
O687 O 0.76586 0.74924 0.5449 0.0
O688 O 0.67975 0.77611 0.5369 0.0
O689 O 0.72643 0.6978 0.57167 0.0
O690 O 0.64798 0.72017 0.55711 0.0
O691 O 0.87049 0.73837 0.55845 0.0
O692 O 0.87048 0.73268 0.58459 0.0
C693 C 0.77104 0.82464 0.56525 0.0
O694 O 0.67828 0.76498 0.58411 0.0
O695 O 0.75305 0.74349 0.59723 0.0
C696 C 0.4684 0.76813 0.55888 0.0
C697 C 0.34719 0.76108 0.55975 0.0
C698 C 0.38007 0.75119 0.57318 0.0
C699 C 0.44014 0.75446 0.57278 0.0
C700 C 0.43448 0.77526 0.54498 0.0
C701 C 0.3742 0.77245 0.54551 0.0
C702 C 0.53133 0.77868 0.5592 0.0
C703 C 0.72918 0.76128 0.53381 0.0
C704 C 0.67318 0.69522 0.56564 0.0
C705 C 0.96309 0.7482 0.57187 0.0
C706 C 0.10537 0.75464 0.57067 0.0
C707 C 0.07221 0.7647 0.55731 0.0
C708 C 0.99119 0.7617 0.55784 0.0
C709 C 0.01826 0.74114 0.58565 0.0
C710 C 0.07854 0.74354 0.58496 0.0
C711 C 0.9019 0.73419 0.57143 0.0
H712 H 0.35878 0.74168 0.5841 0.0
H713 H 0.46365 0.7463 0.58344 0.0
H714 H 0.45423 0.78313 0.53367 0.0
H715 H 0.34875 0.77925 0.5349 0.0
H716 H 0.09358 0.7737 0.5463 0.0
H717 H 0.96784 0.76903 0.54701 0.0
H718 H 0.97813 0.73234 0.59686 0.0
H719 H 0.10414 0.73619 0.59545 0.0
Dy720 Dy 0.60366 0.77815 0.69095 0.0
Dy721 Dy 0.45901 0.74409 0.67993 0.0
C722 C 0.54661 0.75641 0.65378 0.0
O723 O 0.53316 0.82434 0.69245 0.0
O724 O 0.46304 0.80078 0.67578 0.0
O725 O 0.68803 0.77864 0.67873 0.0
O726 O 0.68522 0.78265 0.70519 0.0
O727 O 0.48152 0.74797 0.70686 0.0
O728 O 0.56752 0.77606 0.71436 0.0
O729 O 0.52235 0.69794 0.67982 0.0
O730 O 0.60081 0.72014 0.69444 0.0
O731 O 0.37814 0.73854 0.69309 0.0
O732 O 0.37834 0.73245 0.66698 0.0
C733 C 0.47829 0.8247 0.6863 0.0
O734 O 0.5726 0.76571 0.66697 0.0
O735 O 0.49532 0.74327 0.65434 0.0
C736 C 0.78029 0.76792 0.69268 0.0
C737 C 0.90156 0.76087 0.69181 0.0
C738 C 0.86863 0.75106 0.67837 0.0
C739 C 0.80855 0.75431 0.67878 0.0
C740 C 0.8143 0.77505 0.70657 0.0
C741 C 0.87459 0.77222 0.70605 0.0
C742 C 0.71756 0.77905 0.69226 0.0
C743 C 0.51863 0.76073 0.7177 0.0
C744 C 0.57553 0.69528 0.68588 0.0
C745 C 0.28573 0.74821 0.67964 0.0
C746 C 0.16423 0.75477 0.68082 0.0
C747 C 0.19743 0.76473 0.6942 0.0
C748 C 0.25767 0.7617 0.69367 0.0
C749 C 0.2513 0.74122 0.66585 0.0
C750 C 0.19102 0.74369 0.66653 0.0
C751 C 0.3468 0.73413 0.68012 0.0
H752 H 0.8899 0.74165 0.66744 0.0
H753 H 0.78504 0.7463 0.66808 0.0
H754 H 0.79465 0.78309 0.71786 0.0
H755 H 0.9001 0.77915 0.71663 0.0
H756 H 0.1761 0.77364 0.70522 0.0
H757 H 0.28102 0.76893 0.70452 0.0
H758 H 0.27057 0.73232 0.65465 0.0
H759 H 0.16535 0.73622 0.65606 0.0
Dy760 Dy 0.64282 0.47202 0.69145 0.0
Dy761 Dy 0.79072 0.50815 0.67967 0.0
C762 C 0.70068 0.49404 0.65387 0.0
O763 O 0.71535 0.4265 0.69227 0.0
O764 O 0.7868 0.45101 0.67587 0.0
O765 O 0.56011 0.47193 0.67886 0.0
O766 O 0.56171 0.46788 0.70537 0.0
O767 O 0.74729 0.49436 0.70314 0.0
O768 O 0.67422 0.47239 0.71616 0.0
O769 O 0.72679 0.55392 0.68008 0.0
O770 O 0.64761 0.53057 0.69441 0.0
O771 O 0.87089 0.51299 0.69348 0.0
O772 O 0.87175 0.51831 0.66708 0.0
C773 C 0.77049 0.42659 0.68619 0.0
O774 O 0.67936 0.48588 0.66792 0.0
O775 O 0.75297 0.50731 0.65426 0.0
C776 C 0.46746 0.48263 0.69266 0.0
C777 C 0.34636 0.48986 0.69178 0.0
C778 C 0.37932 0.49957 0.67833 0.0
C779 C 0.43937 0.49625 0.67874 0.0
C780 C 0.43346 0.47554 0.70655 0.0
C781 C 0.37322 0.47848 0.70602 0.0
C782 C 0.53006 0.47163 0.69231 0.0
C783 C 0.72367 0.48727 0.71735 0.0
C784 C 0.67288 0.55566 0.68585 0.0
C785 C 0.96297 0.50229 0.67978 0.0
C786 C 0.10475 0.49564 0.68088 0.0
C787 C 0.07165 0.48573 0.69428 0.0
C788 C 0.01156 0.48876 0.69377 0.0
C789 C 0.0179 0.50929 0.66593 0.0
C790 C 0.07807 0.50676 0.66658 0.0
C791 C 0.90252 0.51663 0.68039 0.0
H792 H 0.35809 0.50897 0.6674 0.0
H793 H 0.46297 0.50427 0.66806 0.0
H794 H 0.45309 0.46747 0.71784 0.0
H795 H 0.34768 0.47149 0.7166 0.0
H796 H 0.09287 0.47682 0.7053 0.0
H797 H 0.96716 0.48155 0.70458 0.0
H798 H 0.97773 0.51824 0.65474 0.0
H799 H 0.10368 0.51428 0.6561 0.0
Dy800 Dy 0.54517 0.49231 0.42791 0.0
Dy801 Dy 0.39794 0.52758 0.43953 0.0
C802 C 0.47755 0.51175 0.46569 0.0
O803 O 0.48183 0.44574 0.42853 0.0
O804 O 0.40255 0.46905 0.44268 0.0
O805 O 0.62561 0.48678 0.4418 0.0
O806 O 0.62669 0.48139 0.41554 0.0
O807 O 0.43444 0.51378 0.41618 0.0
O808 O 0.50807 0.49234 0.40258 0.0
O809 O 0.471 0.57297 0.44069 0.0
O810 O 0.54226 0.54882 0.42429 0.0
O811 O 0.31522 0.52781 0.42718 0.0
O812 O 0.31729 0.53189 0.45368 0.0
C813 C 0.42801 0.44385 0.4343 0.0
O814 O 0.50976 0.50286 0.45302 0.0
O815 O 0.42768 0.52631 0.46371 0.0
C816 C 0.71825 0.49737 0.42824 0.0
C817 C 0.83935 0.50403 0.42935 0.0
C818 C 0.80631 0.51391 0.44275 0.0
C819 C 0.74619 0.51088 0.44224 0.0
C820 C 0.75242 0.49037 0.4144 0.0
C821 C 0.81261 0.49292 0.41504 0.0
C822 C 0.65744 0.48309 0.42881 0.0
C823 C 0.45602 0.50558 0.4022 0.0
C824 C 0.52615 0.57299 0.43465 0.0
C825 C 0.22292 0.51688 0.44113 0.0
C826 C 0.10175 0.50975 0.44026 0.0
C827 C 0.13463 0.50003 0.42681 0.0
C828 C 0.1947 0.5033 0.42722 0.0
C829 C 0.18896 0.524 0.45503 0.0
C830 C 0.12868 0.5211 0.4545 0.0
C831 C 0.28533 0.52841 0.44067 0.0
H832 H 0.82758 0.52283 0.45377 0.0
H833 H 0.72264 0.51809 0.45304 0.0
H834 H 0.73299 0.48143 0.40321 0.0
H835 H 0.83817 0.48539 0.40457 0.0
H836 H 0.11333 0.4907 0.41586 0.0
H837 H 0.21822 0.49539 0.41652 0.0
H838 H 0.20862 0.53217 0.46631 0.0
H839 H 0.10317 0.52814 0.46506 0.0
Dy840 Dy 0.21304 0.25559 0.42833 0.0
Dy841 Dy 0.3592 0.22077 0.43907 0.0
C842 C 0.27321 0.23915 0.46616 0.0
O843 O 0.27631 0.3018 0.42828 0.0
O844 O 0.35484 0.27931 0.44283 0.0
O845 O 0.13211 0.26132 0.44145 0.0
O846 O 0.13255 0.26719 0.41533 0.0
O847 O 0.32081 0.23706 0.4165 0.0
O848 O 0.25017 0.2561 0.40257 0.0
O849 O 0.28644 0.17523 0.44091 0.0
O850 O 0.21648 0.19889 0.42425 0.0
O851 O 0.44186 0.2208 0.42721 0.0
O852 O 0.43864 0.21679 0.45372 0.0
C853 C 0.32948 0.30442 0.43436 0.0
O854 O 0.23589 0.25159 0.45529 0.0
O855 O 0.32188 0.22364 0.46279 0.0
C856 C 0.04004 0.25131 0.42792 0.0
C857 C 0.89781 0.24386 0.42921 0.0
C858 C 0.93178 0.23384 0.44246 0.0
C859 C 0.01246 0.23753 0.44193 0.0
C860 C 0.98461 0.25812 0.41416 0.0
C861 C 0.92433 0.25507 0.41484 0.0
C862 C 0.10092 0.26567 0.42844 0.0
C863 C 0.3021 0.24191 0.40195 0.0
C864 C 0.2316 0.17499 0.43476 0.0
C865 C 0.53346 0.23197 0.44134 0.0
C866 C 0.6547 0.23977 0.44037 0.0
C867 C 0.62098 0.24973 0.42706 0.0
C868 C 0.56126 0.24583 0.42746 0.0
C869 C 0.56768 0.22501 0.45522 0.0
C870 C 0.62799 0.22835 0.45468 0.0
C871 C 0.47122 0.22012 0.4408 0.0
H872 H 0.91127 0.22466 0.45357 0.0
H873 H 0.03572 0.23076 0.45285 0.0
H874 H 0.02448 0.26754 0.40302 0.0
H875 H 0.89856 0.26325 0.40451 0.0
H876 H 0.64144 0.25935 0.41604 0.0
H877 H 0.53787 0.2533 0.41667 0.0
H878 H 0.54821 0.21636 0.46644 0.0
H879 H 0.65363 0.22066 0.46514 0.0
Dy880 Dy 0.5429 0.25565 0.32019 0.0
Dy881 Dy 0.39751 0.22128 0.30937 0.0
C882 C 0.48199 0.2389 0.28248 0.0
O883 O 0.48065 0.30236 0.32013 0.0
O884 O 0.4019 0.27958 0.30573 0.0
O885 O 0.62376 0.25902 0.30675 0.0
O886 O 0.62423 0.2654 0.33306 0.0
O887 O 0.43384 0.23505 0.33248 0.0
O888 O 0.50681 0.25647 0.34591 0.0
O889 O 0.46927 0.17548 0.30761 0.0
O890 O 0.53858 0.19918 0.32436 0.0
O891 O 0.31415 0.22102 0.32135 0.0
O892 O 0.31727 0.21706 0.29483 0.0
C893 C 0.42726 0.3047 0.31416 0.0
O894 O 0.51878 0.25157 0.29342 0.0
O895 O 0.43347 0.22313 0.2858 0.0
C896 C 0.71757 0.25202 0.32012 0.0
C897 C 0.83861 0.24584 0.31907 0.0
C898 C 0.8055 0.23594 0.30567 0.0
C899 C 0.74562 0.23896 0.30613 0.0
C900 C 0.75152 0.25957 0.33395 0.0
C901 C 0.81179 0.25714 0.33336 0.0
C902 C 0.65499 0.26236 0.31985 0.0
C903 C 0.45479 0.24313 0.34645 0.0
C904 C 0.52418 0.1754 0.31372 0.0
C905 C 0.2223 0.2316 0.30732 0.0
C906 C 0.10114 0.23824 0.30833 0.0
C907 C 0.13434 0.24827 0.3217 0.0
C908 C 0.19428 0.24521 0.32123 0.0
C909 C 0.18826 0.22438 0.29345 0.0
C910 C 0.12797 0.22696 0.29405 0.0
C911 C 0.28489 0.22072 0.30776 0.0
H912 H 0.82639 0.22624 0.29474 0.0
H913 H 0.72205 0.23067 0.2955 0.0
H914 H 0.73173 0.26724 0.3453 0.0
H915 H 0.83728 0.26361 0.34401 0.0
H916 H 0.11337 0.25783 0.33265 0.0
H917 H 0.21785 0.25343 0.33188 0.0
H918 H 0.2079 0.21662 0.28211 0.0
H919 H 0.10242 0.2204 0.28341 0.0
Dy920 Dy 0.21384 0.49299 0.32017 0.0
Dy921 Dy 0.3603 0.52767 0.30968 0.0
C922 C 0.27504 0.50834 0.28254 0.0
O923 O 0.27682 0.44684 0.32027 0.0
O924 O 0.35616 0.46929 0.30596 0.0
O925 O 0.13288 0.48797 0.30696 0.0
O926 O 0.13292 0.48149 0.33306 0.0
O927 O 0.32065 0.51348 0.33225 0.0
O928 O 0.25088 0.49246 0.34604 0.0
O929 O 0.28809 0.57323 0.30756 0.0
O930 O 0.21769 0.54972 0.32417 0.0
O931 O 0.44355 0.52762 0.32155 0.0
O932 O 0.44012 0.53214 0.29501 0.0
C933 C 0.33001 0.44418 0.31421 0.0
O934 O 0.23733 0.49545 0.29322 0.0
O935 O 0.32383 0.52347 0.28617 0.0
C936 C 0.04027 0.49733 0.32037 0.0
C937 C 0.89799 0.5039 0.31917 0.0
C938 C 0.9312 0.51383 0.30579 0.0
C939 C 0.01223 0.5108 0.30633 0.0
C940 C 0.98501 0.49028 0.33414 0.0
C941 C 0.92475 0.49278 0.33345 0.0
C942 C 0.10146 0.48342 0.31991 0.0
C943 C 0.30249 0.5058 0.34655 0.0
C944 C 0.23301 0.57358 0.31365 0.0
C945 C 0.53501 0.51691 0.30733 0.0
C946 C 0.65622 0.50994 0.30818 0.0
C947 C 0.62332 0.5001 0.32162 0.0
C948 C 0.56326 0.5033 0.32122 0.0
C949 C 0.56895 0.52407 0.29343 0.0
C950 C 0.62924 0.52127 0.29394 0.0
C951 C 0.47275 0.52855 0.30792 0.0
H952 H 0.90988 0.52279 0.29477 0.0
H953 H 0.03561 0.51808 0.29548 0.0
H954 H 0.02505 0.48141 0.34534 0.0
H955 H 0.89906 0.48534 0.34393 0.0
H956 H 0.6446 0.49076 0.33257 0.0
H957 H 0.53977 0.49539 0.33194 0.0
H958 H 0.5493 0.53224 0.28215 0.0
H959 H 0.65477 0.52828 0.28337 0.0
Dy960 Dy 0.60561 0.9746 0.05798 0.0
Dy961 Dy 0.4577 0.00466 0.06857 0.0
C962 C 0.54854 0.9962 0.09502 0.0
O963 O 0.53421 0.92842 0.056 0.0
O964 O 0.46474 0.95201 0.07265 0.0
O965 O 0.68939 0.97387 0.06993 0.0
O966 O 0.68576 0.96979 0.0435 0.0
O967 O 0.48096 0.00485 0.04162 0.0
O968 O 0.56727 0.97748 0.03479 0.0
O969 O 0.52092 0.0509 0.06883 0.0
O970 O 0.59977 0.02869 0.05435 0.0
O971 O 0.37672 0.0083 0.05537 0.0
O972 O 0.37695 0.016 0.08145 0.0
C973 C 0.47925 0.92817 0.06208 0.0
O974 O 0.57086 0.98794 0.08127 0.0
O975 O 0.4937 0.00558 0.09429 0.0
C976 C 0.78077 0.98538 0.05564 0.0
C977 C 0.90215 0.99317 0.05654 0.0
C978 C 0.8658 -0.00129 0.06994 0.0
C979 C 0.80889 0.99911 0.06954 0.0
C980 C 0.815 0.97839 0.04176 0.0
C981 C 0.87534 0.98173 0.04226 0.0
C982 C 0.71873 0.97269 0.05636 0.0
C983 C 0.52013 0.99413 0.03106 0.0
C984 C 0.57397 0.05369 0.06268 0.0
C985 C 0.28392 0.0003 0.06887 0.0
C986 C 0.16546 0.99711 0.06777 0.0
C987 C 0.19894 0.98757 0.05437 0.0
C988 C 0.2589 0.99099 0.05486 0.0
C989 C 0.24953 0.0074 0.08267 0.0
C990 C 0.18921 0.00433 0.08208 0.0
C991 C 0.3455 0.01347 0.06832 0.0
H992 H 0.88678 0.00783 0.08098 0.0
H993 H 0.78259 0.00237 0.08036 0.0
H994 H 0.79557 0.96951 0.03057 0.0
H995 H 0.90102 0.97393 0.03183 0.0
H996 H 0.17795 0.97861 0.0433 0.0
H997 H 0.28214 0.98393 0.04398 0.0
H998 H 0.26889 0.01651 0.09383 0.0
H999 H 0.1635 0.01221 0.09248 0.0
Dy1000 Dy 0.64258 0.27658 0.05789 0.0
Dy1001 Dy 0.78841 0.24215 0.06865 0.0
C1002 C 0.69987 0.25473 0.09492 0.0
O1003 O 0.71458 0.32244 0.0561 0.0
O1004 O 0.78484 0.29886 0.07268 0.0
O1005 O 0.55901 0.27695 0.06989 0.0
O1006 O 0.56232 0.28097 0.04341 0.0
O1007 O 0.76489 0.2457 0.04175 0.0
O1008 O 0.67915 0.27402 0.03443 0.0
O1009 O 0.72503 0.19595 0.06867 0.0
O1010 O 0.64622 0.21838 0.05424 0.0
O1011 O 0.86925 0.23669 0.05547 0.0
O1012 O 0.86915 0.23075 0.08159 0.0
C1013 C 0.76959 0.32274 0.06218 0.0
O1014 O 0.6785 0.2629 0.08102 0.0
O1015 O 0.7518 0.24148 0.09434 0.0
C1016 C 0.46727 0.26583 0.05574 0.0
C1017 C 0.34601 0.2583 0.05654 0.0
C1018 C 0.37894 0.24888 0.07004 0.0
C1019 C 0.43897 0.25224 0.06965 0.0
C1020 C 0.43331 0.27284 0.04183 0.0
C1021 C 0.37301 0.26965 0.0423 0.0
C1022 C 0.52967 0.27764 0.05631 0.0
C1023 C 0.72745 0.25831 0.03096 0.0
C1024 C 0.67182 0.19333 0.06262 0.0
C1025 C 0.9618 0.24648 0.06888 0.0
C1026 C 0.10405 0.25363 0.06773 0.0
C1027 C 0.07082 0.26315 0.0543 0.0
C1028 C 0.98983 0.25995 0.05483 0.0
C1029 C 0.01702 0.2396 0.08267 0.0
C1030 C 0.07728 0.2425 0.08203 0.0
C1031 C 0.90063 0.23239 0.06844 0.0
H1032 H 0.35763 0.23975 0.08103 0.0
H1033 H 0.46239 0.24455 0.0804 0.0
H1034 H 0.45295 0.28133 0.0306 0.0
H1035 H 0.34749 0.27707 0.03179 0.0
H1036 H 0.09215 0.27189 0.04324 0.0
H1037 H 0.96651 0.26701 0.04396 0.0
H1038 H 0.97698 0.2304 0.09382 0.0
H1039 H 0.10294 0.23464 0.09243 0.0
Dy1040 Dy 0.60371 0.27658 0.18756 0.0
Dy1041 Dy 0.45782 0.24214 0.17678 0.0
C1042 C 0.54638 0.25467 0.15052 0.0
O1043 O 0.53205 0.32247 0.1893 0.0
O1044 O 0.46175 0.29884 0.17271 0.0
O1045 O 0.68723 0.27688 0.17553 0.0
O1046 O 0.68407 0.28084 0.20203 0.0
O1047 O 0.48106 0.24583 0.20371 0.0
O1048 O 0.56694 0.27424 0.21103 0.0
O1049 O 0.52102 0.19594 0.17675 0.0
O1050 O 0.59975 0.21839 0.19124 0.0
O1051 O 0.37692 0.23667 0.18994 0.0
O1052 O 0.37701 0.23086 0.16381 0.0
C1053 C 0.47705 0.32273 0.18322 0.0
O1054 O 0.56773 0.26286 0.16442 0.0
O1055 O 0.49438 0.2414 0.15109 0.0
C1056 C 0.77909 0.26596 0.18961 0.0
C1057 C 0.90031 0.25887 0.18877 0.0
C1058 C 0.86741 0.24911 0.17531 0.0
C1059 C 0.80734 0.25236 0.17571 0.0
C1060 C 0.81305 0.27308 0.20351 0.0
C1061 C 0.87334 0.27021 0.203 0.0
C1062 C 0.71658 0.27736 0.18911 0.0
C1063 C 0.5185 0.25854 0.2145 0.0
C1064 C 0.57426 0.19337 0.18279 0.0
C1065 C 0.28434 0.24633 0.17656 0.0
C1066 C 0.16288 0.25298 0.17776 0.0
C1067 C 0.19608 0.26284 0.19114 0.0
C1068 C 0.25632 0.25978 0.19061 0.0
C1069 C 0.24987 0.2393 0.16279 0.0
C1070 C 0.18962 0.24185 0.16347 0.0
C1071 C 0.34554 0.23245 0.17696 0.0
H1072 H 0.8887 0.23978 0.16437 0.0
H1073 H 0.78384 0.24443 0.165 0.0
H1074 H 0.7934 0.28123 0.21479 0.0
H1075 H 0.89885 0.27723 0.21357 0.0
H1076 H 0.17476 0.27179 0.20216 0.0
H1077 H 0.27972 0.26706 0.20144 0.0
H1078 H 0.26913 0.23042 0.15159 0.0
H1079 H 0.16395 0.23439 0.153 0.0
Dy1080 Dy 0.64396 0.97401 0.18825 0.0
Dy1081 Dy 0.78831 0.00531 0.17648 0.0
C1082 C 0.70137 0.99589 0.15073 0.0
O1083 O 0.71712 0.9287 0.18931 0.0
O1084 O 0.7878 0.95274 0.17268 0.0
O1085 O 0.56196 0.9742 0.17585 0.0
O1086 O 0.56339 0.97005 0.20238 0.0
O1087 O 0.75651 0.99912 0.20168 0.0
O1088 O 0.67515 0.97494 0.21268 0.0
O1089 O 0.72533 0.05182 0.17701 0.0
O1090 O 0.64639 0.02867 0.19139 0.0
O1091 O 0.86871 0.01024 0.19038 0.0
O1092 O 0.86982 0.01606 0.16414 0.0
C1093 C 0.77209 0.92868 0.18314 0.0
O1094 O 0.6826 0.9885 0.16517 0.0
O1095 O 0.75113 0.00528 0.15108 0.0
C1096 C 0.46923 0.98472 0.18959 0.0
C1097 C 0.34813 0.9917 0.18866 0.0
C1098 C 0.38118 1.00172 0.17526 0.0
C1099 C 0.44121 0.99842 0.17568 0.0
C1100 C 0.4352 0.97752 0.20346 0.0
C1101 C 0.37496 0.98028 0.2029 0.0
C1102 C 0.53188 0.97399 0.1893 0.0
C1103 C 0.72563 0.98938 0.21448 0.0
C1104 C 0.67154 0.05377 0.18281 0.0
C1105 C 0.96159 0.00047 0.17678 0.0
C1106 C 0.10653 0.9983 0.17784 0.0
C1107 C 0.07349 0.9882 0.19122 0.0
C1108 C 0.01343 0.99109 0.19075 0.0
C1109 C 0.01648 0.00767 0.16292 0.0
C1110 C 0.07673 0.00537 0.16355 0.0
C1111 C 0.90056 0.0142 0.1774 0.0
H1112 H 0.35703 0.00726 0.16435 0.0
H1113 H 0.46183 0.00251 0.16502 0.0
H1114 H 0.45484 0.96963 0.21478 0.0
H1115 H 0.34942 0.97349 0.2135 0.0
H1116 H 0.09472 0.97908 0.20221 0.0
H1117 H 0.96915 0.98365 0.20153 0.0
H1118 H 0.97615 0.0163 0.1517 0.0
H1119 H 0.10226 0.01258 0.153 0.0
Dy1120 Dy 0.54466 0.99499 0.93136 0.0
Dy1121 Dy 0.3963 0.02528 0.94192 0.0
C1122 C 0.4823 0.00555 0.96895 0.0
O1123 O 0.48151 0.94866 0.93122 0.0
O1124 O 0.40262 0.9711 0.94565 0.0
O1125 O 0.6257 0.99187 0.94448 0.0
O1126 O 0.62565 0.98441 0.91831 0.0
O1127 O 0.43498 0.01129 0.91922 0.0
O1128 O 0.50865 0.99404 0.90552 0.0
O1129 O 0.46807 0.07127 0.94402 0.0
O1130 O 0.53735 0.04759 0.92734 0.0
O1131 O 0.31283 0.0257 0.92997 0.0
O1132 O 0.3164 0.02989 0.95646 0.0
C1133 C 0.42831 0.94604 0.93731 0.0
O1134 O 0.52196 0.99522 0.9584 0.0
O1135 O 0.43476 0.02185 0.9652 0.0
C1136 C 0.71915 0.99907 0.93124 0.0
C1137 C 0.83748 0.00177 0.93236 0.0
C1138 C 0.80445 0.01134 0.94581 0.0
C1139 C 0.74431 0.00817 0.94531 0.0
C1140 C 0.75341 0.99167 0.91749 0.0
C1141 C 0.81365 0.99449 0.9181 0.0
C1142 C 0.65688 0.9873 0.93149 0.0
C1143 C 0.45392 0.00355 0.90501 0.0
C1144 C 0.52307 0.07139 0.93795 0.0
C1145 C 0.22139 0.01445 0.94424 0.0
C1146 C 0.10006 0.00727 0.94337 0.0
C1147 C 0.13595 1.0016 0.92992 0.0
C1148 C 0.19305 0.00082 0.93034 0.0
C1149 C 0.18735 0.02158 0.95813 0.0
C1150 C 0.12702 0.01865 0.9576 0.0
C1151 C 0.28355 0.02677 0.94357 0.0
H1152 H 0.82576 0.02059 0.95678 0.0
H1153 H 0.72086 0.01588 0.95607 0.0
H1154 H 0.73383 0.98327 0.90625 0.0
H1155 H 0.83919 0.98731 0.90757 0.0
H1156 H 0.11462 0.99239 0.91896 0.0
H1157 H 0.21945 0.99722 0.91958 0.0
H1158 H 0.20692 0.03007 0.96937 0.0
H1159 H 0.10144 0.02596 0.96812 0.0
Dy1160 Dy 0.21306 0.75862 0.931 0.0
Dy1161 Dy 0.3603 0.72297 0.9426 0.0
C1162 C 0.28081 0.73888 0.96884 0.0
O1163 O 0.27657 0.80477 0.93156 0.0
O1164 O 0.35582 0.78147 0.94576 0.0
O1165 O 0.1327 0.7638 0.94486 0.0
O1166 O 0.13169 0.76926 0.91857 0.0
O1167 O 0.32367 0.73685 0.91929 0.0
O1168 O 0.25034 0.75827 0.90563 0.0
O1169 O 0.28735 0.67754 0.94376 0.0
O1170 O 0.21588 0.70168 0.9274 0.0
O1171 O 0.44302 0.72284 0.93027 0.0
O1172 O 0.44089 0.71867 0.95679 0.0
C1173 C 0.33038 0.80664 0.93736 0.0
O1174 O 0.25074 0.74799 0.95581 0.0
O1175 O 0.33001 0.72372 0.96688 0.0
C1176 C 0.04019 0.75341 0.93129 0.0
C1177 C 0.89828 0.74729 0.93252 0.0
C1178 C 0.93154 0.73708 0.94585 0.0
C1179 C 0.01238 0.73991 0.94528 0.0
C1180 C 0.98518 0.76055 0.91747 0.0
C1181 C 0.92497 0.75835 0.91819 0.0
C1182 C 0.10094 0.76759 0.93186 0.0
C1183 C 0.30244 0.74504 0.90528 0.0
C1184 C 0.23217 0.67746 0.93774 0.0
C1185 C 0.53526 0.73349 0.9442 0.0
C1186 C 0.65642 0.74014 0.94321 0.0
C1187 C 0.62332 0.75018 0.92983 0.0
C1188 C 0.56334 0.7471 0.93029 0.0
C1189 C 0.56923 0.72626 0.95808 0.0
C1190 C 0.62953 0.72884 0.95749 0.0
C1191 C 0.47279 0.72234 0.94377 0.0
H1192 H 0.91048 0.72797 0.95687 0.0
H1193 H 0.03593 0.73246 0.95605 0.0
H1194 H 0.02541 0.76918 0.90623 0.0
H1195 H 0.89941 0.76546 0.90765 0.0
H1196 H 0.6444 0.75973 0.91889 0.0
H1197 H 0.53981 0.75528 0.91964 0.0
H1198 H 0.54954 0.71844 0.96941 0.0
H1199 H 0.65502 0.72223 0.96811 0.0
Dy1200 Dy 0.54419 0.75741 0.82312 0.0
Dy1201 Dy 0.3991 0.72321 0.81218 0.0
C1202 C 0.48587 0.74057 0.7856 0.0
O1203 O 0.48125 0.80355 0.82351 0.0
O1204 O 0.40332 0.78146 0.80854 0.0
O1205 O 0.62522 0.76214 0.8099 0.0
O1206 O 0.62505 0.76921 0.83596 0.0
O1207 O 0.43519 0.73686 0.83536 0.0
O1208 O 0.5079 0.75823 0.84885 0.0
O1209 O 0.47021 0.67698 0.81064 0.0
O1210 O 0.5409 0.70068 0.82705 0.0
O1211 O 0.31569 0.72279 0.82426 0.0
O1212 O 0.3185 0.71928 0.79774 0.0
C1213 C 0.42843 0.80633 0.81721 0.0
O1214 O 0.51693 0.75872 0.79637 0.0
O1215 O 0.43942 0.72238 0.78892 0.0
C1216 C 0.718 0.75331 0.82339 0.0
C1217 C 0.83958 0.74664 0.82225 0.0
C1218 C 0.80642 0.73681 0.80886 0.0
C1219 C 0.74619 0.73985 0.80937 0.0
C1220 C 0.75244 0.76036 0.83718 0.0
C1221 C 0.81275 0.75776 0.83653 0.0
C1222 C 0.65661 0.76706 0.82283 0.0
C1223 C 0.45594 0.7449 0.84937 0.0
C1224 C 0.52527 0.67668 0.81666 0.0
C1225 C 0.22343 0.73363 0.81037 0.0
C1226 C 0.10221 0.74086 0.81123 0.0
C1227 C 0.13514 0.75055 0.82469 0.0
C1228 C 0.19522 0.74724 0.82429 0.0
C1229 C 0.18942 0.72655 0.79648 0.0
C1230 C 0.12916 0.7295 0.797 0.0
C1231 C 0.2862 0.72272 0.81071 0.0
H1232 H 0.82779 0.7279 0.79784 0.0
H1233 H 0.72286 0.7326 0.79852 0.0
H1234 H 0.73321 0.76927 0.84838 0.0
H1235 H 0.83844 0.76527 0.847 0.0
H1236 H 0.11385 0.75991 0.83563 0.0
H1237 H 0.21875 0.75523 0.83498 0.0
H1238 H 0.20907 0.71847 0.7852 0.0
H1239 H 0.10364 0.72249 0.78643 0.0
Dy1240 Dy 0.21528 0.99506 0.82324 0.0
Dy1241 Dy 0.35796 0.0252 0.81258 0.0
C1242 C 0.27348 0.00653 0.78557 0.0
O1243 O 0.2779 0.94859 0.82323 0.0
O1244 O 0.35746 0.97106 0.80905 0.0
O1245 O 0.13432 0.99078 0.81004 0.0
O1246 O 0.13437 0.98434 0.83621 0.0
O1247 O 0.32226 0.01168 0.83577 0.0
O1248 O 0.25128 0.99421 0.84894 0.0
O1249 O 0.2863 0.07106 0.81061 0.0
O1250 O 0.21668 0.0476 0.82738 0.0
O1251 O 0.44161 0.02567 0.82456 0.0
O1252 O 0.4381 0.03016 0.79812 0.0
C1253 C 0.33124 0.94596 0.81726 0.0
O1254 O 0.23825 0.99859 0.79632 0.0
O1255 O 0.32284 0.02082 0.78913 0.0
C1256 C 0.04153 0.99932 0.82348 0.0
C1257 C 0.89646 0.0025 0.82237 0.0
C1258 C 0.9301 0.01223 0.809 0.0
C1259 C 0.01075 0.00868 0.80946 0.0
C1260 C 0.98632 0.9922 0.83727 0.0
C1261 C 0.92607 0.99527 0.83668 0.0
C1262 C 0.10305 0.98637 0.82305 0.0
C1263 C 0.30019 0.00346 0.84958 0.0
C1264 C 0.23142 0.07138 0.81676 0.0
C1265 C 0.53278 0.01439 0.81023 0.0
C1266 C 0.654 0.00666 0.81112 0.0
C1267 C 0.62347 1.0009 0.82449 0.0
C1268 C 0.5607 0.00058 0.82411 0.0
C1269 C 0.56697 0.0214 0.79634 0.0
C1270 C 0.62727 0.01808 0.79684 0.0
C1271 C 0.47092 0.02697 0.81098 0.0
H1272 H 0.90934 0.02145 0.79795 0.0
H1273 H 0.03407 0.01584 0.7986 0.0
H1274 H 0.02649 0.98319 0.84843 0.0
H1275 H 0.90039 0.98743 0.84711 0.0
H1276 H 0.64421 0.99161 0.83553 0.0
H1277 H 0.54032 0.99731 0.83493 0.0
H1278 H 0.54754 0.03025 0.78515 0.0
H1279 H 0.65295 0.02589 0.7864 0.0
C1280 C 0.89328 0.38535 0.07543 0.0
C1281 C 0.92156 0.39617 0.06097 0.0
H1282 H 0.82732 0.35453 0.0871 0.0
C1283 C 0.89372 0.3855 0.04635 0.0
H1284 H 0.9093 0.39441 0.0871 0.0
C1285 C 0.8429 0.36342 0.04636 0.0
C1286 C 0.8151 0.35274 0.06098 0.0
H1287 H 0.91009 0.39495 0.03484 0.0
H1288 H 0.8265 0.35398 0.03485 0.0
C1289 C 0.84336 0.36358 0.07544 0.0
C1290 C 0.40543 0.88748 0.04636 0.0
C1291 C 0.43339 0.89823 0.06095 0.0
H1292 H 0.33864 0.85561 0.03489 0.0
C1293 C 0.40508 0.88739 0.07542 0.0
H1294 H 0.42145 0.89716 0.03484 0.0
C1295 C 0.35559 0.86513 0.07548 0.0
C1296 C 0.32762 0.85382 0.06107 0.0
H1297 H 0.42083 0.89673 0.08707 0.0
H1298 H 0.3396 0.85613 0.08715 0.0
C1299 C 0.35496 0.865 0.04641 0.0
C1300 C 0.84462 0.88769 0.19898 0.0
C1301 C 0.8172 0.89861 0.18434 0.0
H1302 H 0.91095 0.85563 0.2105 0.0
C1303 C 0.84516 0.88756 0.16989 0.0
H1304 H 0.82846 0.89724 0.2105 0.0
C1305 C 0.8944 0.86534 0.1699 0.0
C1306 C 0.92235 0.85432 0.18436 0.0
H1307 H 0.82932 0.89676 0.15825 0.0
H1308 H 0.91021 0.85614 0.15825 0.0
C1309 C 0.89484 0.8652 0.19898 0.0
C1310 C 0.35366 0.38532 0.16998 0.0
C1311 C 0.32543 0.39612 0.18445 0.0
H1312 H 0.41946 0.35452 0.1583 0.0
C1313 C 0.35324 0.38544 0.19906 0.0
H1314 H 0.33771 0.39439 0.15832 0.0
C1315 C 0.40394 0.36336 0.19905 0.0
C1316 C 0.43167 0.35269 0.18442 0.0
H1317 H 0.33696 0.39488 0.21057 0.0
H1318 H 0.42031 0.35392 0.21056 0.0
C1319 C 0.40345 0.36354 0.16997 0.0
C1320 C 0.10883 0.61422 0.95363 0.0
C1321 C 0.08096 0.60354 0.93902 0.0
H1322 H 0.17603 0.64577 0.96512 0.0
C1323 C 0.10922 0.61436 0.92455 0.0
H1324 H 0.09251 0.60475 0.96515 0.0
C1325 C 0.15903 0.63623 0.92452 0.0
C1326 C 0.18713 0.64724 0.93896 0.0
H1327 H 0.09322 0.60526 0.91289 0.0
H1328 H 0.17515 0.64523 0.91286 0.0
C1329 C 0.15956 0.6364 0.9536 0.0
C1330 C 0.647 0.13417 0.92458 0.0
C1331 C 0.6753 0.14507 0.93903 0.0
H1332 H 0.58155 0.10293 0.91293 0.0
C1333 C 0.64754 0.13435 0.95365 0.0
H1334 H 0.66285 0.14336 0.91291 0.0
C1335 C 0.59693 0.11205 0.95367 0.0
C1336 C 0.56904 0.10127 0.93908 0.0
H1337 H 0.66377 0.14396 0.96515 0.0
H1338 H 0.58085 0.10247 0.96519 0.0
C1339 C 0.59733 0.11212 0.9246 0.0
C1340 C 0.10761 0.13431 0.801 0.0
C1341 C 0.0801 0.1451 0.81563 0.0
H1342 H 0.17447 0.10273 0.78945 0.0
C1343 C 0.10812 0.13413 0.83008 0.0
H1344 H 0.09121 0.14376 0.78949 0.0
C1345 C 0.15775 0.11221 0.83005 0.0
C1346 C 0.1859 0.10133 0.81558 0.0
H1347 H 0.09205 0.14318 0.84173 0.0
H1348 H 0.17372 0.10318 0.84172 0.0
C1349 C 0.15818 0.11212 0.80097 0.0
C1350 C 0.59853 0.63619 0.80093 0.0
C1351 C 0.5706 0.64672 0.81554 0.0
H1352 H 0.66566 0.60478 0.78944 0.0
C1353 C 0.59888 0.63603 0.83002 0.0
H1354 H 0.58228 0.64571 0.78943 0.0
C1355 C 0.64875 0.61435 0.83003 0.0
C1356 C 0.67697 0.60354 0.81557 0.0
H1357 H 0.58295 0.64515 0.84168 0.0
H1358 H 0.66475 0.60533 0.8417 0.0
C1359 C 0.64928 0.61419 0.80095 0.0
C1360 C 0.89456 0.88728 0.57851 0.0
C1361 C 0.92281 0.89813 0.56404 0.0
H1362 H 0.82863 0.85641 0.59018 0.0
C1363 C 0.89501 0.88742 0.54942 0.0
H1364 H 0.91058 0.89632 0.59017 0.0
C1365 C 0.84422 0.8653 0.54943 0.0
C1366 C 0.81649 0.85461 0.56406 0.0
H1367 H 0.91137 0.89684 0.53791 0.0
H1368 H 0.82781 0.85585 0.53793 0.0
C1369 C 0.8447 0.86547 0.57852 0.0
C1370 C 0.35363 0.36334 0.57856 0.0
C1371 C 0.32557 0.35236 0.56412 0.0
H1372 H 0.41941 0.3943 0.59019 0.0
C1373 C 0.35315 0.36317 0.54947 0.0
H1374 H 0.33751 0.35432 0.59021 0.0
C1375 C 0.40384 0.38536 0.54945 0.0
C1376 C 0.43161 0.39608 0.56407 0.0
H1377 H 0.33671 0.35377 0.53796 0.0
H1378 H 0.4202 0.39481 0.53793 0.0
C1379 C 0.4034 0.38522 0.57854 0.0
C1380 C 0.89311 0.36309 0.70206 0.0
C1381 C 0.9206 0.35224 0.68743 0.0
H1382 H 0.82671 0.39508 0.71357 0.0
C1383 C 0.89264 0.36321 0.67297 0.0
H1384 H 0.90923 0.3535 0.71358 0.0
C1385 C 0.84335 0.38537 0.67296 0.0
C1386 C 0.8154 0.3964 0.68741 0.0
H1387 H 0.90846 0.35399 0.66133 0.0
H1388 H 0.82753 0.39457 0.66132 0.0
C1389 C 0.84285 0.38552 0.70205 0.0
C1390 C 0.40473 0.86547 0.67303 0.0
C1391 C 0.43293 0.85465 0.68749 0.0
H1392 H 0.33898 0.89627 0.66136 0.0
C1393 C 0.40517 0.8653 0.70211 0.0
H1394 H 0.42072 0.8564 0.66137 0.0
C1395 C 0.35449 0.88738 0.70211 0.0
C1396 C 0.32678 0.8981 0.68749 0.0
H1397 H 0.4215 0.85582 0.71362 0.0
H1398 H 0.33814 0.89679 0.71363 0.0
C1399 C 0.35496 0.88725 0.67303 0.0
C1400 C 0.10748 0.11235 0.45059 0.0
C1401 C 0.07966 0.10172 0.43596 0.0
H1402 H 0.17477 0.14383 0.46209 0.0
C1403 C 0.10794 0.11254 0.4215 0.0
H1404 H 0.09114 0.10288 0.4621 0.0
C1405 C 0.15789 0.13425 0.4215 0.0
C1406 C 0.18613 0.14505 0.43596 0.0
H1407 H 0.09194 0.10348 0.40984 0.0
H1408 H 0.17397 0.14329 0.40984 0.0
C1409 C 0.15834 0.1344 0.45059 0.0
C1410 C 0.64897 0.63625 0.4215 0.0
C1411 C 0.67726 0.64696 0.43599 0.0
H1412 H 0.58346 0.60512 0.4098 0.0
C1413 C 0.64927 0.63635 0.45058 0.0
H1414 H 0.66473 0.64558 0.40986 0.0
C1415 C 0.59873 0.61404 0.45055 0.0
C1416 C 0.57127 0.60316 0.43589 0.0
H1417 H 0.66532 0.64605 0.46209 0.0
H1418 H 0.58246 0.60453 0.46206 0.0
C1419 C 0.59936 0.61423 0.42146 0.0
C1420 C 0.15938 0.61442 0.32696 0.0
C1421 C 0.18758 0.6036 0.31248 0.0
H1422 H 0.09409 0.64563 0.33866 0.0
C1423 C 0.15976 0.61434 0.29788 0.0
H1424 H 0.17508 0.60516 0.33862 0.0
C1425 C 0.10937 0.63668 0.29791 0.0
C1426 C 0.08185 0.64746 0.31255 0.0
H1427 H 0.17577 0.60471 0.28637 0.0
H1428 H 0.09316 0.64624 0.2864 0.0
C1429 C 0.10992 0.63647 0.32699 0.0
C1430 C 0.64785 0.11236 0.29793 0.0
C1431 C 0.67547 0.10158 0.31255 0.0
H1432 H 0.58099 0.14397 0.28641 0.0
C1433 C 0.64736 0.11249 0.32701 0.0
H1434 H 0.6642 0.10291 0.28642 0.0
C1435 C 0.59779 0.13448 0.32701 0.0
C1436 C 0.56975 0.14547 0.31255 0.0
H1437 H 0.66336 0.1034 0.33866 0.0
H1438 H 0.58175 0.14345 0.33868 0.0
C1439 C 0.59733 0.1346 0.29793 0.0
C1440 C 0.11501 0.52549 0.11615 0.0
C1441 C 0.09484 0.49361 0.10953 0.0
H1442 H 0.16723 0.55048 0.13439 0.0
C1443 C 0.11529 0.46142 0.11599 0.0
H1444 H 0.10151 0.55047 0.11101 0.0
C1445 C 0.15298 0.46143 0.1294 0.0
C1446 C 0.17377 0.49362 0.13582 0.0
H1447 H 0.10167 0.43632 0.11082 0.0
H1448 H 0.16642 0.43633 0.13459 0.0
C1449 C 0.15363 0.52549 0.12924 0.0
C1450 C 0.15411 0.78946 0.11601 0.0
C1451 C 0.17465 0.75732 0.10947 0.0
H1452 H 0.10234 0.81458 0.13451 0.0
C1453 C 0.15437 0.72549 0.11618 0.0
H1454 H 0.16795 0.81458 0.11091 0.0
C1455 C 0.11542 0.72548 0.12926 0.0
C1456 C 0.09533 0.75731 0.13597 0.0
H1457 H 0.16808 0.70048 0.11112 0.0
H1458 H 0.10151 0.70046 0.13431 0.0
C1459 C 0.11607 0.78946 0.12943 0.0
C1460 C 0.84879 0.47425 0.87074 0.0
C1461 C 0.82889 0.50613 0.86409 0.0
H1462 H 0.90136 0.44926 0.88888 0.0
C1463 C 0.84946 0.53831 0.87058 0.0
H1464 H 0.83483 0.44926 0.86569 0.0
C1465 C 0.88736 0.5383 0.88397 0.0
C1466 C 0.90776 0.5061 0.89044 0.0
H1467 H 0.83567 0.56342 0.86549 0.0
H1468 H 0.90124 0.56339 0.88909 0.0
C1469 C 0.88761 0.47425 0.8838 0.0
C1470 C 0.88616 0.21012 0.87042 0.0
C1471 C 0.90632 0.24225 0.86372 0.0
H1472 H 0.83516 0.18513 0.88917 0.0
C1473 C 0.88694 0.27414 0.87054 0.0
H1474 H 0.89977 0.18498 0.86533 0.0
C1475 C 0.84863 0.27424 0.88371 0.0
C1476 C 0.82848 0.24263 0.89039 0.0
H1477 H 0.90067 0.29918 0.86551 0.0
H1478 H 0.83517 0.29918 0.88892 0.0
C1479 C 0.8487 0.21024 0.88395 0.0
C1480 C 0.11326 0.02328 0.61921 0.0
C1481 C 0.09614 0.99546 0.61258 0.0
H1482 H 0.16548 0.04826 0.63745 0.0
C1483 C 0.11652 0.96327 0.61905 0.0
H1484 H 0.09978 0.04826 0.61407 0.0
C1485 C 0.15417 0.96328 0.63248 0.0
C1486 C 0.17491 0.99545 0.63892 0.0
H1487 H 0.1029 0.93817 0.61387 0.0
H1488 H 0.16765 0.93816 0.63765 0.0
C1489 C 0.15184 0.02329 0.63232 0.0
C1490 C 0.15231 0.22337 0.61917 0.0
C1491 C 0.17228 0.25516 0.61239 0.0
H1492 H 0.10031 0.19835 0.63751 0.0
C1493 C 0.15207 0.28732 0.619 0.0
H1494 H 0.16579 0.19834 0.61406 0.0
C1495 C 0.11474 0.28734 0.63259 0.0
C1496 C 0.09451 0.25523 0.63928 0.0
H1497 H 0.16569 0.31242 0.61384 0.0
H1498 H 0.10118 0.31246 0.6377 0.0
C1499 C 0.11405 0.22338 0.63244 0.0
C1500 C 0.88938 0.97646 0.3807 0.0
C1501 C 0.90636 0.00444 0.38725 0.0
H1502 H 0.8365 0.95144 0.36258 0.0
C1503 C 0.88606 0.03645 0.38082 0.0
H1504 H 0.903 0.95143 0.3858 0.0
C1505 C 0.84817 0.03642 0.36746 0.0
C1506 C 0.82726 0.00423 0.36096 0.0
H1507 H 0.89987 0.06149 0.386 0.0
H1508 H 0.83438 0.06155 0.3624 0.0
C1509 C 0.85052 0.97642 0.36763 0.0
C1510 C 0.88803 0.71235 0.36748 0.0
C1511 C 0.90855 0.74455 0.36097 0.0
H1512 H 0.83683 0.68725 0.38612 0.0
C1513 C 0.88867 0.77639 0.36764 0.0
H1514 H 0.90149 0.68726 0.3623 0.0
C1515 C 0.8503 0.77638 0.38079 0.0
C1516 C 0.83043 0.74469 0.38751 0.0
H1517 H 0.90226 0.8014 0.36252 0.0
H1518 H 0.83667 0.80135 0.38592 0.0
C1519 C 0.85051 0.71235 0.38098 0.0
C1520 C 0.60469 0.46127 0.61913 0.0
C1521 C 0.58427 0.49344 0.61264 0.0
H1522 H 0.65627 0.4361 0.63761 0.0
C1523 C 0.60443 0.52527 0.6193 0.0
H1524 H 0.59074 0.43619 0.614 0.0
C1525 C 0.64321 0.52525 0.6324 0.0
C1526 C 0.66299 0.49339 0.63918 0.0
H1527 H 0.59063 0.55025 0.61421 0.0
H1528 H 0.65711 0.55029 0.63741 0.0
C1529 C 0.64253 0.46124 0.63256 0.0
C1530 C 0.64341 0.7894 0.61903 0.0
C1531 C 0.66383 0.75722 0.61253 0.0
H1532 H 0.59184 0.81449 0.63756 0.0
C1533 C 0.64368 0.72536 0.61919 0.0
H1534 H 0.65732 0.81452 0.61393 0.0
C1535 C 0.60495 0.72536 0.63228 0.0
C1536 C 0.58474 0.75716 0.63897 0.0
H1537 H 0.65747 0.70037 0.61413 0.0
H1538 H 0.59103 0.70037 0.63736 0.0
C1539 C 0.60557 0.7894 0.63246 0.0
C1540 C 0.35962 0.47435 0.36782 0.0
C1541 C 0.34008 0.50626 0.36117 0.0
H1542 H 0.41219 0.44936 0.38588 0.0
C1543 C 0.36027 0.5384 0.36766 0.0
H1544 H 0.34564 0.44941 0.36269 0.0
C1545 C 0.39821 0.53843 0.38101 0.0
C1546 C 0.41864 0.50625 0.38754 0.0
H1547 H 0.34644 0.56347 0.36248 0.0
H1548 H 0.41204 0.56356 0.38608 0.0
C1549 C 0.3985 0.47437 0.38085 0.0
C1550 C 0.3594 0.2103 0.38094 0.0
C1551 C 0.33928 0.24224 0.38749 0.0
H1552 H 0.41032 0.18523 0.36233 0.0
C1553 C 0.359 0.27436 0.38084 0.0
H1554 H 0.34568 0.18522 0.38613 0.0
C1555 C 0.39745 0.27439 0.36767 0.0
C1556 C 0.41728 0.24252 0.361 0.0
H1557 H 0.34549 0.29936 0.38595 0.0
H1558 H 0.41113 0.29937 0.36253 0.0
C1559 C 0.39684 0.21033 0.36749 0.0
C1560 C 0.64181 0.02338 0.12943 0.0
C1561 C 0.6643 0.99552 0.13621 0.0
H1562 H 0.58993 0.04839 0.11107 0.0
C1563 C 0.6441 0.96341 0.12958 0.0
H1564 H 0.65551 0.04842 0.13449 0.0
C1565 C 0.60661 0.96347 0.11608 0.0
C1566 C 0.58597 0.99564 0.10964 0.0
H1567 H 0.65762 0.93826 0.13467 0.0
H1568 H 0.59301 0.9384 0.11086 0.0
C1569 C 0.60338 0.02341 0.11624 0.0
C1570 C 0.64226 0.22343 0.11614 0.0
C1571 C 0.66233 0.2553 0.10949 0.0
H1572 H 0.59007 0.19844 0.1344 0.0
C1573 C 0.64199 0.28749 0.11598 0.0
H1574 H 0.65576 0.19843 0.11102 0.0
C1575 C 0.60441 0.28749 0.12943 0.0
C1576 C 0.58391 0.2553 0.13594 0.0
H1577 H 0.65565 0.31257 0.11081 0.0
H1578 H 0.59092 0.31259 0.13459 0.0
C1579 C 0.60375 0.22343 0.12928 0.0
C1580 C 0.36059 0.97623 0.87077 0.0
C1581 C 0.33754 0.00405 0.86417 0.0
H1582 H 0.41327 0.95124 0.88888 0.0
C1583 C 0.35824 0.03626 0.87061 0.0
H1584 H 0.34669 0.95125 0.86569 0.0
C1585 C 0.39617 0.03627 0.88397 0.0
C1586 C 0.41625 0.0041 0.8905 0.0
H1587 H 0.34453 0.06136 0.8655 0.0
H1588 H 0.41013 0.06134 0.88908 0.0
C1589 C 0.39945 0.97624 0.88381 0.0
C1590 C 0.39781 0.7122 0.87057 0.0
C1591 C 0.41813 0.74434 0.86397 0.0
H1592 H 0.34681 0.68711 0.88924 0.0
C1593 C 0.39852 0.77621 0.87071 0.0
H1594 H 0.41144 0.68711 0.86543 0.0
C1595 C 0.36013 0.77624 0.88391 0.0
C1596 C 0.34005 0.74439 0.89064 0.0
H1597 H 0.41234 0.80119 0.8656 0.0
H1598 H 0.34673 0.80127 0.88902 0.0
C1599 C 0.36035 0.71223 0.88409 0.0
C1600 C 0.14185 0.64334 0.04818 0.0
C1601 C 0.15424 0.66042 0.06288 0.0
H1602 H 0.12043 0.59411 0.03667 0.0
C1603 C 0.14397 0.64295 0.07766 0.0
H1604 H 0.1463 0.65721 0.0367 0.0
C1605 C 0.1262 0.60753 0.07765 0.0
C1606 C 0.11444 0.59031 0.06288 0.0
H1607 H 0.14949 0.65669 0.08913 0.0
H1608 H 0.12216 0.59364 0.08913 0.0
C1609 C 0.12563 0.60774 0.04816 0.0
C1610 C 0.12657 0.64323 0.19722 0.0
C1611 C 0.11463 0.66049 0.18252 0.0
H1612 H 0.14734 0.59387 0.2087 0.0
C1613 C 0.12581 0.64317 0.16774 0.0
H1614 H 0.12176 0.65695 0.20871 0.0
C1615 C 0.14356 0.60776 0.16774 0.0
C1616 C 0.1546 0.59039 0.18251 0.0
H1617 H 0.12108 0.65698 0.15626 0.0
H1618 H 0.14812 0.59393 0.15626 0.0
C1619 C 0.14274 0.60764 0.19722 0.0
C1620 C 0.85891 0.35649 0.92235 0.0
C1621 C 0.84771 0.33912 0.93713 0.0
H1622 H 0.88159 0.40574 0.91087 0.0
C1623 C 0.8597 0.3564 0.95183 0.0
H1624 H 0.85419 0.34268 0.91088 0.0
C1625 C 0.87607 0.39201 0.95183 0.0
C1626 C 0.88802 0.40931 0.93713 0.0
H1627 H 0.85492 0.34266 0.96332 0.0
H1628 H 0.88083 0.40575 0.96332 0.0
C1629 C 0.87688 0.39192 0.92235 0.0
C1630 C 0.85957 0.39205 0.80276 0.0
C1631 C 0.84768 0.40934 0.81745 0.0
H1632 H 0.88124 0.34285 0.79127 0.0
C1633 C 0.85879 0.39196 0.83223 0.0
H1634 H 0.85456 0.40572 0.79126 0.0
C1635 C 0.877 0.3566 0.83223 0.0
C1636 C 0.88813 0.33927 0.81744 0.0
H1637 H 0.85386 0.4057 0.84372 0.0
H1638 H 0.88204 0.34284 0.84371 0.0
C1639 C 0.87617 0.35653 0.80276 0.0
C1640 C 0.12367 0.10563 0.58071 0.0
C1641 C 0.11244 0.08828 0.56593 0.0
H1642 H 0.14718 0.15472 0.59219 0.0
C1643 C 0.12446 0.10553 0.55123 0.0
H1644 H 0.11864 0.09186 0.59219 0.0
C1645 C 0.14128 0.14105 0.55122 0.0
C1646 C 0.1533 0.15832 0.56592 0.0
H1647 H 0.11939 0.09184 0.53974 0.0
H1648 H 0.14646 0.15473 0.53973 0.0
C1649 C 0.14206 0.14098 0.5807 0.0
C1650 C 0.12483 0.14104 0.7003 0.0
C1651 C 0.11292 0.15834 0.68561 0.0
H1652 H 0.14566 0.0917 0.71178 0.0
C1653 C 0.12395 0.14099 0.67082 0.0
H1654 H 0.12011 0.15477 0.71179 0.0
C1655 C 0.14171 0.10557 0.67081 0.0
C1656 C 0.15283 0.0882 0.68558 0.0
H1657 H 0.11924 0.1548 0.65934 0.0
H1658 H 0.1463 0.09174 0.65933 0.0
C1659 C 0.14099 0.10545 0.70029 0.0
C1660 C 0.86113 0.85864 0.44876 0.0
C1661 C 0.84907 0.84137 0.43406 0.0
H1662 H 0.88317 0.90783 0.46025 0.0
C1663 C 0.86032 0.85874 0.41929 0.0
H1664 H 0.85603 0.84496 0.46025 0.0
C1665 C 0.87888 0.89407 0.41929 0.0
C1666 C 0.89017 0.91142 0.43407 0.0
H1667 H 0.85529 0.84499 0.40781 0.0
H1668 H 0.88393 0.90784 0.40781 0.0
C1669 C 0.87809 0.89415 0.44876 0.0
C1670 C 0.87798 0.85868 0.29969 0.0
C1671 C 0.88991 0.84142 0.31439 0.0
H1672 H 0.85637 0.90787 0.28819 0.0
C1673 C 0.87874 0.85877 0.32917 0.0
H1674 H 0.88303 0.84498 0.2882 0.0
C1675 C 0.86057 0.89413 0.32916 0.0
C1676 C 0.84947 0.9115 0.31438 0.0
H1677 H 0.88373 0.84501 0.34065 0.0
H1678 H 0.85559 0.90787 0.34065 0.0
C1679 C 0.8614 0.89421 0.29969 0.0
C1680 C 0.61479 0.60767 0.5807 0.0
C1681 C 0.60353 0.5903 0.56593 0.0
H1682 H 0.63828 0.65677 0.59218 0.0
C1683 C 0.61558 0.60757 0.55123 0.0
H1684 H 0.60973 0.5939 0.59219 0.0
C1685 C 0.63243 0.6431 0.55122 0.0
C1686 C 0.64448 0.6604 0.56591 0.0
H1687 H 0.61047 0.59388 0.53974 0.0
H1688 H 0.63753 0.65677 0.53973 0.0
C1689 C 0.63324 0.64303 0.5807 0.0
C1690 C 0.63192 0.6075 0.7003 0.0
C1691 C 0.64377 0.59022 0.6856 0.0
H1692 H 0.61118 0.65683 0.7118 0.0
C1693 C 0.63272 0.60761 0.67083 0.0
H1694 H 0.63669 0.59375 0.71178 0.0
C1695 C 0.61498 0.64305 0.67083 0.0
C1696 C 0.60397 0.66045 0.68561 0.0
H1697 H 0.63746 0.5938 0.65934 0.0
H1698 H 0.61042 0.65687 0.65935 0.0
C1699 C 0.61581 0.64311 0.7003 0.0
C1700 C 0.38686 0.39209 0.44877 0.0
C1701 C 0.39887 0.4093 0.43407 0.0
H1702 H 0.36497 0.34291 0.46027 0.0
C1703 C 0.38763 0.39198 0.41929 0.0
H1704 H 0.39205 0.4058 0.46025 0.0
C1705 C 0.36922 0.35664 0.4193 0.0
C1706 C 0.35803 0.33927 0.43409 0.0
H1707 H 0.39278 0.40576 0.40781 0.0
H1708 H 0.36423 0.34289 0.40781 0.0
C1709 C 0.37004 0.35657 0.44878 0.0
C1710 C 0.38671 0.35666 0.29969 0.0
C1711 C 0.39854 0.33938 0.31439 0.0
H1712 H 0.36522 0.40591 0.28821 0.0
C1713 C 0.38748 0.35672 0.32917 0.0
H1714 H 0.3919 0.343 0.2882 0.0
C1715 C 0.36934 0.39205 0.32919 0.0
C1716 C 0.35821 0.40939 0.31442 0.0
H1717 H 0.3926 0.34297 0.34065 0.0
H1718 H 0.36448 0.40582 0.34067 0.0
C1719 C 0.37014 0.39218 0.2997 0.0
C1720 C 0.61355 0.10585 0.07766 0.0
C1721 C 0.60234 0.0885 0.06289 0.0
H1722 H 0.63703 0.15492 0.08913 0.0
C1723 C 0.61432 0.10573 0.04818 0.0
H1724 H 0.6085 0.09207 0.08913 0.0
C1725 C 0.63118 0.14125 0.04817 0.0
C1726 C 0.64323 0.15853 0.06286 0.0
H1727 H 0.60922 0.09202 0.03669 0.0
H1728 H 0.63631 0.15491 0.03667 0.0
C1729 C 0.63198 0.14118 0.07765 0.0
C1730 C 0.61457 0.14125 0.19724 0.0
C1731 C 0.60274 0.15856 0.18254 0.0
H1732 H 0.63543 0.09189 0.20872 0.0
C1733 C 0.61375 0.14117 0.16776 0.0
H1734 H 0.60994 0.15497 0.20873 0.0
C1735 C 0.63145 0.10572 0.16776 0.0
C1736 C 0.64249 0.08836 0.18255 0.0
H1737 H 0.60917 0.15497 0.15628 0.0
H1738 H 0.63617 0.09191 0.15628 0.0
C1739 C 0.63066 0.10564 0.19724 0.0
C1740 C 0.37085 0.85849 0.92234 0.0
C1741 C 0.35963 0.84117 0.93712 0.0
H1742 H 0.39346 0.90774 0.91086 0.0
C1743 C 0.3716 0.85842 0.95182 0.0
H1744 H 0.36609 0.84469 0.91086 0.0
C1745 C 0.38792 0.89402 0.95182 0.0
C1746 C 0.39979 0.91128 0.9371 0.0
H1747 H 0.36676 0.84469 0.96332 0.0
H1748 H 0.39267 0.90777 0.9633 0.0
C1749 C 0.38874 0.89391 0.92233 0.0
C1750 C 0.38827 0.85847 0.80277 0.0
C1751 C 0.40021 0.84118 0.81747 0.0
H1752 H 0.36648 0.90768 0.79129 0.0
C1753 C 0.3891 0.85854 0.83225 0.0
H1754 H 0.39322 0.8448 0.79127 0.0
C1755 C 0.37083 0.89387 0.83225 0.0
C1756 C 0.35962 0.9112 0.81748 0.0
H1757 H 0.39398 0.84478 0.84373 0.0
H1758 H 0.36578 0.90764 0.84373 0.0
C1759 C 0.37158 0.89398 0.80278 0.0
C1760 C 0.56326 0.46193 0.06498 0.0
C1761 C 0.59059 0.49492 0.06609 0.0
H1762 H 0.48465 0.43427 0.06018 0.0
C1763 C 0.55942 0.52611 0.06338 0.0
H1764 H 0.58697 0.43775 0.06717 0.0
C1765 C 0.50133 0.52416 0.05927 0.0
C1766 C 0.47407 0.49115 0.05812 0.0
H1767 H 0.57992 0.55184 0.06408 0.0
H1768 H 0.47756 0.54835 0.0571 0.0
C1769 C 0.5052 0.45999 0.06087 0.0
C1770 C 0.68568 0.78891 0.0655 0.0
C1771 C 0.65831 0.75589 0.06624 0.0
H1772 H 0.76447 0.8166 0.061 0.0
C1773 C 0.68898 0.72484 0.06294 0.0
H1774 H 0.66213 0.81301 0.06801 0.0
C1775 C 0.74694 0.72687 0.05879 0.0
C1776 C 0.77447 0.75985 0.05811 0.0
H1777 H 0.66807 0.69919 0.06326 0.0
H1778 H 0.77038 0.70275 0.05625 0.0
C1779 C 0.74367 0.79093 0.06134 0.0
C1780 C 0.55935 0.78503 0.17433 0.0
C1781 C 0.59115 0.75557 0.17938 0.0
H1782 H 0.47693 0.81029 0.17445 0.0
C1783 C 0.56462 0.72832 0.18819 0.0
H1784 H 0.57929 0.80634 0.16755 0.0
C1785 C 0.50653 0.73071 0.19222 0.0
C1786 C 0.47473 0.7602 0.1872 0.0
H1787 H 0.58902 0.70544 0.19209 0.0
H1788 H 0.48663 0.70937 0.199 0.0
C1789 C 0.50129 0.78742 0.17836 0.0
C1790 C 0.74067 0.46021 0.18677 0.0
C1791 C 0.77358 0.49132 0.18726 0.0
H1792 H 0.65752 0.4378 0.18217 0.0
C1793 C 0.74798 0.52408 0.18391 0.0
H1794 H 0.7597 0.43458 0.18916 0.0
C1795 C 0.68994 0.52582 0.17979 0.0
C1796 C 0.65698 0.49469 0.17933 0.0
H1797 H 0.77319 0.54821 0.18436 0.0
H1798 H 0.67098 0.55146 0.17737 0.0
C1799 C 0.68265 0.46195 0.18264 0.0
C1800 C 0.49862 0.53935 0.93735 0.0
C1801 C 0.52836 0.50871 0.94196 0.0
H1802 H 0.41816 0.56099 0.92947 0.0
C1803 C 0.49978 0.47607 0.94262 0.0
H1804 H 0.52026 0.56474 0.93675 0.0
C1805 C 0.44179 0.47393 0.9384 0.0
C1806 C 0.412 0.5046 0.93383 0.0
H1807 H 0.52233 0.45229 0.94627 0.0
H1808 H 0.4202 0.44853 0.93898 0.0
C1809 C 0.44066 0.53721 0.93313 0.0
C1810 C 0.31734 0.27245 0.94168 0.0
C1811 C 0.34461 0.24404 0.93391 0.0
H1812 H 0.23867 0.29232 0.95172 0.0
C1813 C 0.31344 0.21345 0.92998 0.0
H1814 H 0.34111 0.29619 0.94478 0.0
C1815 C 0.25535 0.21113 0.93405 0.0
C1816 C 0.2281 0.23951 0.94183 0.0
H1817 H 0.33393 0.19126 0.92401 0.0
H1818 H 0.23154 0.18739 0.93096 0.0
C1819 C 0.25921 0.27013 0.94575 0.0
C1820 C 0.50635 0.2301 0.82884 0.0
C1821 C 0.52843 0.23914 0.81347 0.0
H1822 H 0.4339 0.2273 0.84447 0.0
C1823 C 0.49075 0.24996 0.80115 0.0
H1824 H 0.5343 0.22032 0.83833 0.0
C1825 C 0.43266 0.25357 0.80461 0.0
C1826 C 0.41059 0.24449 0.81998 0.0
H1827 H 0.50517 0.25637 0.78898 0.0
H1828 H 0.40469 0.26334 0.79512 0.0
C1829 C 0.44829 0.23371 0.8323 0.0
C1830 C 0.25626 0.47562 0.81354 0.0
C1831 C 0.22897 0.5086 0.81272 0.0
H1832 H 0.3349 0.44796 0.8181 0.0
C1833 C 0.26004 0.53971 0.8158 0.0
H1834 H 0.23255 0.45148 0.81112 0.0
C1835 C 0.31809 0.53774 0.81991 0.0
C1836 C 0.34546 0.50478 0.82069 0.0
H1837 H 0.23944 0.56539 0.81536 0.0
H1838 H 0.34174 0.56188 0.82235 0.0
C1839 C 0.31434 0.47364 0.81765 0.0
C1840 C 0.49997 0.02192 0.56184 0.0
C1841 C 0.47538 0.99302 0.5611 0.0
H1842 H 0.57864 0.04959 0.56655 0.0
C1843 C 0.50615 0.96191 0.5643 0.0
H1844 H 0.47657 0.04604 0.55925 0.0
C1845 C 0.5641 0.9639 0.56854 0.0
C1846 C 0.59171 0.99685 0.56925 0.0
H1847 H 0.48539 0.93623 0.56384 0.0
H1848 H 0.58748 0.93978 0.57114 0.0
C1849 C 0.55792 0.02391 0.56608 0.0
C1850 C 0.68456 0.2865 0.56943 0.0
C1851 C 0.6563 0.25374 0.56917 0.0
H1852 H 0.76401 0.31404 0.56568 0.0
C1853 C 0.68638 0.22289 0.56506 0.0
H1854 H 0.66165 0.31043 0.57265 0.0
C1855 C 0.74446 0.22495 0.56096 0.0
C1856 C 0.77269 0.25773 0.56119 0.0
H1857 H 0.66496 0.19741 0.56472 0.0
H1858 H 0.76737 0.20101 0.55774 0.0
C1859 C 0.7426 0.28856 0.56532 0.0
C1860 C 0.55935 0.28495 0.67948 0.0
C1861 C 0.58947 0.25353 0.68239 0.0
H1862 H 0.47832 0.31159 0.68122 0.0
C1863 C 0.56125 0.22418 0.68913 0.0
H1864 H 0.58068 0.3078 0.67427 0.0
C1865 C 0.50315 0.22641 0.6932 0.0
C1866 C 0.47307 0.25788 0.69031 0.0
H1867 H 0.58422 0.19978 0.69145 0.0
H1868 H 0.4818 0.20356 0.6984 0.0
C1869 C 0.5013 0.2872 0.68355 0.0
C1870 C 0.74025 0.96361 0.69265 0.0
C1871 C 0.77498 0.99354 0.69024 0.0
H1872 H 0.65579 0.94166 0.69028 0.0
C1873 C 0.74789 0.02081 0.68414 0.0
H1874 H 0.75758 0.93901 0.6973 0.0
C1875 C 0.68992 0.02215 0.68001 0.0
C1876 C 0.65815 0.99627 0.68244 0.0
H1877 H 0.77442 0.04411 0.68239 0.0
H1878 H 0.67264 0.04676 0.67536 0.0
C1879 C 0.68228 0.96496 0.68852 0.0
C1880 C 0.50284 0.97768 0.43761 0.0
C1881 C 0.52715 0.00661 0.43881 0.0
H1882 H 0.42426 0.95003 0.43276 0.0
C1883 C 0.49601 0.0378 0.43611 0.0
H1884 H 0.52663 0.95348 0.43974 0.0
C1885 C 0.43793 0.0359 0.432 0.0
C1886 C 0.41055 0.00293 0.43084 0.0
H1887 H 0.51657 0.06351 0.43684 0.0
H1888 H 0.41424 0.0601 0.42986 0.0
C1889 C 0.44473 0.97576 0.4335 0.0
C1890 C 0.32252 0.76854 0.44293 0.0
C1891 C 0.34656 0.74639 0.43106 0.0
H1892 H 0.24685 0.78336 0.45604 0.0
C1893 C 0.31179 0.72204 0.42275 0.0
H1894 H 0.34913 0.78764 0.44925 0.0
C1895 C 0.25366 0.7194 0.42668 0.0
C1896 C 0.22967 0.7415 0.43856 0.0
H1897 H 0.32923 0.70459 0.41356 0.0
H1898 H 0.22702 0.70031 0.42035 0.0
C1899 C 0.26436 0.76591 0.44685 0.0
C1900 C 0.4416 0.71346 0.31848 0.0
C1901 C 0.41313 0.74604 0.31772 0.0
H1902 H 0.52104 0.68595 0.31491 0.0
C1903 C 0.44299 0.77669 0.31306 0.0
H1904 H 0.41897 0.68972 0.3222 0.0
C1905 C 0.50095 0.77455 0.30884 0.0
C1906 C 0.52938 0.74193 0.30958 0.0
H1907 H 0.42147 0.80206 0.31242 0.0
H1908 H 0.52359 0.7983 0.30513 0.0
C1909 C 0.49953 0.71132 0.31426 0.0
C1910 C 0.25564 0.97799 0.31393 0.0
C1911 C 0.2276 0.00637 0.3097 0.0
H1912 H 0.33207 0.95093 0.32119 0.0
C1913 C 0.26112 0.03725 0.30926 0.0
H1914 H 0.23 0.95402 0.31417 0.0
C1915 C 0.3191 0.03562 0.31342 0.0
C1916 C 0.34415 0.00319 0.31766 0.0
H1917 H 0.24267 0.06267 0.30614 0.0
H1918 H 0.34476 0.05957 0.31316 0.0
C1919 C 0.31362 0.97636 0.31808 0.0
C1920 C 0.07101 0.52553 0.56447 0.0
C1921 C 0.10062 0.49495 0.56924 0.0
H1922 H 0.96981 0.54709 0.55645 0.0
C1923 C 0.07183 0.46241 0.57014 0.0
H1924 H 0.09273 0.55087 0.56373 0.0
C1925 C 0.01388 0.46025 0.56591 0.0
C1926 C 0.96351 0.4908 0.56111 0.0
H1927 H 0.09421 0.43871 0.57395 0.0
H1928 H 0.97133 0.43493 0.56666 0.0
C1929 C 0.01303 0.52338 0.56025 0.0
C1930 C 0.2567 0.72681 0.5615 0.0
C1931 C 0.28449 0.75973 0.5611 0.0
H1932 H 0.17781 0.69913 0.56595 0.0
C1933 C 0.25394 0.79074 0.56464 0.0
H1934 H 0.27992 0.70276 0.55866 0.0
C1935 C 0.19599 0.7887 0.56888 0.0
C1936 C 0.16813 0.75581 0.56925 0.0
H1937 H 0.27489 0.81637 0.56444 0.0
H1938 H 0.17283 0.81275 0.57174 0.0
C1939 C 0.19871 0.72477 0.56574 0.0
C1940 C 0.01358 0.72722 0.69125 0.0
C1941 C 0.96427 0.7598 0.69042 0.0
H1942 H 0.0931 0.69971 0.68773 0.0
C1943 C 0.01488 0.79036 0.68566 0.0
H1944 H 0.97018 0.7035 0.69502 0.0
C1945 C 0.07284 0.78821 0.68143 0.0
C1946 C 0.10144 0.75567 0.68228 0.0
H1947 H 0.9725 0.8157 0.68494 0.0
H1948 H 0.09537 0.81194 0.67765 0.0
C1949 C 0.07158 0.72507 0.68703 0.0
C1950 C 0.19667 0.46287 0.68049 0.0
C1951 C 0.16737 0.49495 0.68237 0.0
H1952 H 0.27701 0.43579 0.683 0.0
C1953 C 0.19636 0.52501 0.68811 0.0
H1954 H 0.17466 0.43951 0.67604 0.0
C1955 C 0.25444 0.52284 0.6922 0.0
C1956 C 0.28372 0.49073 0.69033 0.0
H1957 H 0.17404 0.54993 0.68967 0.0
H1958 H 0.27645 0.54621 0.69664 0.0
C1959 C 0.25471 0.4607 0.68457 0.0
C1960 C 0.93062 0.47473 0.43674 0.0
C1961 C 0.90195 0.50469 0.43084 0.0
H1962 H 0.03126 0.45361 0.44539 0.0
C1963 C 0.93156 0.53668 0.42879 0.0
H1964 H 0.90804 0.44989 0.43842 0.0
C1965 C 0.98961 0.53886 0.43288 0.0
C1966 C 0.0391 0.50893 0.4388 0.0
H1967 H 0.90978 0.55997 0.42422 0.0
H1968 H 0.03296 0.5637 0.43118 0.0
C1969 C 0.98871 0.47691 0.44083 0.0
C1970 C 0.79786 0.22846 0.42009 0.0
C1971 C 0.83493 0.24459 0.43131 0.0
H1972 H 0.71176 0.2118 0.41528 0.0
C1973 C 0.81262 0.25876 0.44578 0.0
H1974 H 0.81304 0.2177 0.40867 0.0
C1975 C 0.75453 0.25544 0.44952 0.0
C1976 C 0.71752 0.23924 0.43831 0.0
H1977 H 0.84065 0.27209 0.45433 0.0
H1978 H 0.73927 0.2662 0.46093 0.0
C1979 C 0.73981 0.22513 0.42383 0.0
C1980 C 0.01351 0.2728 0.314 0.0
C1981 C 0.03846 0.24038 0.3097 0.0
H1982 H 0.91635 0.29986 0.32132 0.0
C1983 C 0.98406 0.20954 0.30919 0.0
H1984 H 0.03921 0.29673 0.3143 0.0
C1985 C 0.9261 0.2112 0.31335 0.0
C1986 C 0.90122 0.24362 0.3177 0.0
H1987 H 0.02323 0.18414 0.30601 0.0
H1988 H 0.90035 0.18728 0.31303 0.0
C1989 C 0.93478 0.27445 0.31816 0.0
C1990 C 0.80649 0.53723 0.31878 0.0
C1991 C 0.83523 0.50476 0.31771 0.0
H1992 H 0.72681 0.56467 0.31544 0.0
C1993 C 0.80555 0.47426 0.31276 0.0
H1994 H 0.82888 0.56087 0.32272 0.0
C1995 C 0.74757 0.47644 0.30854 0.0
C1996 C 0.71891 0.50894 0.30958 0.0
H1997 H 0.82722 0.44898 0.31189 0.0
H1998 H 0.72511 0.45279 0.30461 0.0
C1999 C 0.74854 0.5394 0.31455 0.0
C2000 C 0.98793 0.97359 0.07158 0.0
C2001 C 0.96487 0.99261 0.05847 0.0
H2002 H 0.08328 0.96139 0.08565 0.0
C2003 C 0.01852 0.00975 0.04882 0.0
H2004 H 0.96045 0.95685 0.07895 0.0
C2005 C 0.07664 0.01256 0.05268 0.0
C2006 C 0.1027 0.99763 0.06581 0.0
H2007 H 0.98127 0.02473 0.03861 0.0
H2008 H 0.10408 0.02929 0.04532 0.0
C2009 C 0.06685 0.97639 0.07544 0.0
C2010 C 0.19221 0.22795 0.05595 0.0
C2011 C 0.16678 0.25343 0.06604 0.0
H2012 H 0.26906 0.21069 0.04402 0.0
C2013 C 0.19993 0.28116 0.0724 0.0
H2014 H 0.16692 0.20624 0.05115 0.0
C2015 C 0.25794 0.2838 0.0683 0.0
C2016 C 0.28332 0.25838 0.05819 0.0
H2017 H 0.18117 0.30104 0.08025 0.0
H2018 H 0.28326 0.3055 0.07311 0.0
C2019 C 0.25025 0.23059 0.05185 0.0
C2020 C 0.01294 0.22579 0.18902 0.0
C2021 C 0.963 0.258 0.18735 0.0
H2022 H 0.09302 0.19851 0.18615 0.0
C2023 C 0.01294 0.28812 0.18174 0.0
H2024 H 0.97009 0.20239 0.19342 0.0
C2025 C 0.0709 0.28589 0.17753 0.0
C2026 C 0.10013 0.25372 0.17924 0.0
H2027 H 0.97002 0.31315 0.18038 0.0
H2028 H 0.0929 0.30928 0.17311 0.0
C2029 C 0.07093 0.22356 0.18481 0.0
C2030 C 0.2542 0.962 0.18452 0.0
C2031 C 0.28548 0.99318 0.18728 0.0
H2032 H 0.17229 0.93977 0.17821 0.0
C2033 C 0.25542 0.02213 0.18615 0.0
H2034 H 0.27459 0.93628 0.1852 0.0
C2035 C 0.1974 0.02408 0.18201 0.0
C2036 C 0.16914 0.99694 0.17924 0.0
H2037 H 0.27928 0.04632 0.18834 0.0
H2038 H 0.17697 0.04979 0.18134 0.0
C2039 C 0.19619 0.96395 0.18038 0.0
C2040 C 0.93083 0.97748 0.94111 0.0
C2041 C 0.90015 0.00235 0.93389 0.0
H2042 H 0.03056 0.95718 0.95074 0.0
C2043 C 0.93081 0.03347 0.93054 0.0
H2044 H 0.90739 0.95337 0.94379 0.0
C2045 C 0.98891 0.03574 0.93462 0.0
C2046 C 0.03738 0.0068 0.94184 0.0
H2047 H 0.90993 0.05605 0.925 0.0
H2048 H 0.03315 0.05986 0.93196 0.0
C2049 C 0.9889 0.97976 0.94519 0.0
C2050 C 0.80261 0.77646 0.93391 0.0
C2051 C 0.83563 0.74544 0.93394 0.0
H2052 H 0.71929 0.79883 0.93811 0.0
C2053 C 0.81013 0.71285 0.93772 0.0
H2054 H 0.82148 0.80199 0.93111 0.0
C2055 C 0.75214 0.71116 0.94185 0.0
C2056 C 0.7191 0.74217 0.94185 0.0
H2057 H 0.83543 0.6888 0.93763 0.0
H2058 H 0.73329 0.68562 0.94462 0.0
C2059 C 0.74459 0.77478 0.93803 0.0
C2060 C 0.98996 0.71185 0.81877 0.0
C2061 C 0.03952 0.74165 0.81267 0.0
H2062 H 0.91033 0.69097 0.82776 0.0
C2063 C 0.98918 0.77358 0.81048 0.0
H2064 H 0.03321 0.68704 0.8205 0.0
C2065 C 0.93117 0.77585 0.81469 0.0
C2066 C 0.90236 0.74601 0.82077 0.0
H2067 H 0.0317 0.79674 0.8057 0.0
H2068 H 0.90877 0.80068 0.81297 0.0
C2069 C 0.93199 0.71412 0.82297 0.0
C2070 C 0.7394 0.02398 0.82695 0.0
C2071 C 0.71673 0.00731 0.81311 0.0
H2072 H 0.81324 0.03371 0.84168 0.0
C2073 C 0.75605 0.99252 0.80265 0.0
H2074 H 0.71166 0.03915 0.8349 0.0
C2075 C 0.81403 0.98932 0.80651 0.0
C2076 C 0.83372 0.00191 0.82036 0.0
H2077 H 0.74022 0.97962 0.79178 0.0
H2078 H 0.84176 0.97416 0.79857 0.0
C2079 C 0.79739 0.0208 0.83081 0.0
C2080 C 0.94507 0.50556 0.00768 0.0
C2081 C 0.0197 0.4956 0.01365 0.0
H2082 H 0.89502 0.51723 0.99297 0.0
C2083 C 0.06539 0.49005 0.00273 0.0
H2084 H 0.90841 0.50964 0.01556 0.0
C2085 C 0.05741 0.49412 0.99231 0.0
C2086 C 0.98279 0.50408 0.98633 0.0
H2087 H 0.10748 0.48246 0.00701 0.0
H2088 H 0.09409 0.49005 0.98444 0.0
C2089 C 0.9371 0.50964 0.99726 0.0
C2090 C 0.31122 0.74416 0.99733 0.0
C2091 C 0.26563 0.74715 0.986 0.0
H2092 H 0.34214 0.74515 0.01552 0.0
C2093 C 0.21046 0.75418 0.99208 0.0
H2094 H 0.3541 0.73865 0.99316 0.0
C2095 C 0.20355 0.75754 0.00271 0.0
C2096 C 0.2493 0.75431 0.01408 0.0
H2097 H 0.17244 0.75656 0.98451 0.0
H2098 H 0.16049 0.76309 0.00688 0.0
C2099 C 0.30432 0.7475 0.00795 0.0
C2100 C 0.93634 0.74636 0.25434 0.0
C2101 C 0.98274 0.74701 0.26531 0.0
H2102 H 0.90591 0.7488 0.23007 0.0
C2103 C 0.05913 0.75215 0.25919 0.0
H2104 H 0.89324 0.74298 0.25887 0.0
C2105 C 0.06684 0.75494 0.24248 0.0
C2106 C 0.02082 0.75404 0.23125 0.0
H2107 H 0.09737 0.75313 0.26679 0.0
H2108 H 0.1102 0.75874 0.23822 0.0
C2109 C 0.94409 0.74933 0.23756 0.0
C2110 C 0.29846 0.51215 0.23751 0.0
C2111 C 0.24918 0.49509 0.23177 0.0
H2112 H 0.34286 0.53171 0.25804 0.0
C2113 C 0.2081 0.4823 0.24292 0.0
H2114 H 0.33207 0.52145 0.22945 0.0
C2115 C 0.21469 0.4877 0.25943 0.0
C2116 C 0.26398 0.50476 0.26517 0.0
H2117 H 0.1703 0.46814 0.2389 0.0
H2118 H 0.18109 0.4784 0.26748 0.0
C2119 C 0.30506 0.51754 0.25402 0.0
C2120 C 0.69802 0.25155 0.99244 0.0
C2121 C 0.75296 0.24472 0.98632 0.0
H2122 H 0.64788 0.26 0.00738 0.0
C2123 C 0.79975 0.24222 0.99708 0.0
H2124 H 0.66065 0.2537 0.98466 0.0
C2125 C 0.7926 0.24611 0.00755 0.0
C2126 C 0.73766 0.25296 0.01367 0.0
H2127 H 0.84273 0.23765 0.99259 0.0
H2128 H 0.82997 0.24396 0.01532 0.0
C2129 C 0.69087 0.25543 0.0029 0.0
C2130 C 0.94186 0.26215 0.7592 0.0
C2131 C 0.98577 0.24723 0.76873 0.0
H2132 H 0.90991 0.27554 0.73566 0.0
C2133 C 0.05567 0.2342 0.76082 0.0
H2134 H 0.90304 0.27108 0.76515 0.0
C2135 C 0.05879 0.23531 0.74382 0.0
C2136 C 0.01478 0.2501 0.73425 0.0
H2137 H 0.0908 0.22199 0.76737 0.0
H2138 H 0.09769 0.22644 0.73788 0.0
C2139 C 0.94499 0.26327 0.7422 0.0
C2140 C 0.80172 0.49998 0.7578 0.0
C2141 C 0.75391 0.50365 0.76815 0.0
H2142 H 0.83334 0.49362 0.73367 0.0
C2143 C 0.69879 0.50345 0.76158 0.0
H2144 H 0.84437 0.49905 0.76297 0.0
C2145 C 0.69235 0.50138 0.74491 0.0
C2146 C 0.73978 0.49804 0.73419 0.0
H2147 H 0.66049 0.50561 0.76904 0.0
H2148 H 0.64883 0.50111 0.74028 0.0
C2149 C 0.79525 0.49726 0.74095 0.0
C2150 C 0.94379 0.00443 0.51082 0.0
C2151 C 0.02088 0.99729 0.51674 0.0
H2152 H 0.89484 0.01774 0.49003 0.0
C2153 C 0.06606 0.99075 0.50576 0.0
H2154 H 0.90743 0.00929 0.51873 0.0
C2155 C 0.05875 0.99543 0.48924 0.0
C2156 C 0.98177 0.00246 0.48331 0.0
H2157 H 0.1077 0.98207 0.50993 0.0
H2158 H 0.09499 0.99043 0.48134 0.0
C2159 C 0.9365 0.00914 0.49427 0.0
C2160 C 0.20849 0.24341 0.49014 0.0
C2161 C 0.26333 0.2453 0.48341 0.0
H2162 H 0.15928 0.24355 0.51169 0.0
C2163 C 0.31103 0.2508 0.4936 0.0
H2164 H 0.17024 0.24006 0.48276 0.0
C2165 C 0.30475 0.25308 0.51048 0.0
C2166 C 0.24928 0.25065 0.51733 0.0
H2167 H 0.35329 0.25353 0.48822 0.0
H2168 H 0.34295 0.25797 0.51763 0.0
C2169 C 0.2023 0.245 0.50685 0.0
C2170 C 0.3055 0.01276 0.7571 0.0
C2171 C 0.2625 0.00261 0.76823 0.0
H2172 H 0.33334 0.01505 0.73259 0.0
C2173 C 0.21422 0.99199 0.76247 0.0
H2174 H 0.34523 0.02468 0.76115 0.0
C2175 C 0.20717 0.98676 0.74596 0.0
C2176 C 0.25018 0.99692 0.73483 0.0
H2177 H 0.17933 0.98448 0.77048 0.0
H2178 H 0.16744 0.97485 0.74192 0.0
C2179 C 0.29845 0.00754 0.74059 0.0
C2180 C 0.69888 0.74296 0.49019 0.0
C2181 C 0.75318 0.74736 0.48317 0.0
H2182 H 0.65126 0.74128 0.51232 0.0
C2183 C 0.8006 0.75564 0.49296 0.0
H2184 H 0.6611 0.73695 0.48304 0.0
C2185 C 0.79471 0.75846 0.50972 0.0
C2186 C 0.74019 0.75424 0.51673 0.0
H2187 H 0.84216 0.76004 0.48741 0.0
H2188 H 0.83237 0.76471 0.5169 0.0
C2189 C 0.69303 0.7456 0.5069 0.0
C2190 C 0.69157 0.00298 0.24155 0.0
C2191 C 0.74114 0.99985 0.2312 0.0
H2192 H 0.65939 0.00914 0.26558 0.0
C2193 C 0.79629 0.99611 0.23814 0.0
H2194 H 0.64903 0.00565 0.23653 0.0
C2195 C 0.80243 0.99822 0.25503 0.0
C2196 C 0.75223 0.00131 0.26513 0.0
H2197 H 0.83441 0.99036 0.2311 0.0
H2198 H 0.84431 0.99451 0.2605 0.0
C2199 C 0.69757 0.00455 0.25831 0.0
C2200 C 0.45537 0.50245 0.51062 0.0
C2201 C 0.51007 0.49544 0.51665 0.0
H2202 H 0.40448 0.51114 0.49006 0.0
C2203 C 0.55655 0.49277 0.5057 0.0
H2204 H 0.41776 0.50492 0.51836 0.0
C2205 C 0.54883 0.49645 0.48891 0.0
C2206 C 0.49312 0.50338 0.4828 0.0
H2207 H 0.59932 0.48796 0.51029 0.0
H2208 H 0.58671 0.4947 0.48132 0.0
C2209 C 0.44761 0.50577 0.49407 0.0
C2210 C 0.44786 0.75426 0.75856 0.0
C2211 C 0.49551 0.747 0.76843 0.0
H2212 H 0.41618 0.76292 0.73459 0.0
C2213 C 0.55021 0.74401 0.76148 0.0
H2214 H 0.40583 0.75742 0.76397 0.0
C2215 C 0.55627 0.74723 0.74478 0.0
C2216 C 0.5086 0.75449 0.73489 0.0
H2217 H 0.58808 0.73849 0.76867 0.0
H2218 H 0.59836 0.74398 0.7394 0.0
C2219 C 0.45393 0.75749 0.74184 0.0
C2220 C 0.44554 0.24532 0.25465 0.0
C2221 C 0.49279 0.24496 0.26527 0.0
H2222 H 0.41521 0.24877 0.23041 0.0
C2223 C 0.5484 0.2492 0.25902 0.0
H2224 H 0.40231 0.24279 0.25928 0.0
C2225 C 0.55586 0.25278 0.24238 0.0
C2226 C 0.50843 0.25298 0.23178 0.0
H2227 H 0.58632 0.24904 0.26665 0.0
H2228 H 0.59905 0.25517 0.23767 0.0
C2229 C 0.45302 0.24882 0.23806 0.0
C2230 C 0.55076 0.98402 0.00266 0.0
C2231 C 0.50992 0.99758 0.01368 0.0
H2232 H 0.57716 0.97873 0.98423 0.0
C2233 C 0.45845 0.01103 0.00779 0.0
H2234 H 0.58814 0.96962 0.00679 0.0
C2235 C 0.45171 0.01569 0.99737 0.0
C2236 C 0.49256 0.00215 0.98635 0.0
H2237 H 0.42529 0.02096 0.01581 0.0
H2238 H 0.41435 0.03007 0.99324 0.0
C2239 C 0.54403 0.98868 0.99225 0.0
loop_
_geom_bond_atom_site_label_1
_geom_bond_atom_site_label_2
_geom_bond_distance
_geom_bond_site_symmetry_2
_ccdc_geom_bond_type
Dy0 O3 2.307 . S
Dy0 O5 2.395 . S
Dy0 O6 2.379 . S
Dy0 O8 2.339 . S
Dy0 O10 2.298 . S
Dy0 O14 2.275 . S
Dy0 C22 2.738 . S
Dy1 O4 2.298 . S
Dy1 O7 2.277 . S
Dy1 O9 2.307 1_655 S
Dy1 O11 2.395 . S
Dy1 O12 2.379 . S
Dy1 O15 2.339 . S
Dy1 C31 2.738 . S
C2 O14 1.254 . S
C2 O15 1.257 1_455 S
O3 Dy0 2.307 . S
O3 C13 1.266 1_455 S
O4 Dy1 2.298 . S
O4 C13 1.236 . S
O5 Dy0 2.395 . S
O5 C22 1.255 . S
O6 Dy0 2.379 . S
O6 C22 1.249 . S
O7 Dy1 2.277 . S
O7 C23 1.253 1_655 S
O8 Dy0 2.339 . S
O8 C23 1.257 . S
O9 Dy1 2.307 1_455 S
O9 C24 1.266 . S
O10 Dy0 2.298 . S
O10 C24 1.236 . S
O11 Dy1 2.395 . S
O11 C31 1.255 . S
O12 Dy1 2.379 . S
O12 C31 1.249 . S
C13 O3 1.266 1_655 S
C13 O4 1.236 . S
O14 Dy0 2.275 . S
O14 C2 1.254 . S
O15 Dy1 2.339 . S
O15 C2 1.257 1_655 S
C16 C19 1.344 . S
C16 C20 1.328 . S
C16 C22 1.516 . S
C17 C18 1.304 . S
C17 C21 1.323 . S
C18 C17 1.304 . S
C18 C19 1.371 . S
C18 H32 0.930 . S
C19 C16 1.344 . S
C19 C18 1.371 . S
C19 H33 0.931 . S
C20 C16 1.328 . S
C20 C21 1.433 . S
C20 H34 0.931 . S
C21 C17 1.323 . S
C21 C20 1.433 . S
C21 H35 0.933 . S
C22 Dy0 2.738 . S
C22 O5 1.255 . S
C22 O6 1.249 . S
C22 C16 1.516 . S
C23 O7 1.253 1_455 S
C23 O8 1.257 . S
C24 O9 1.266 . S
C24 O10 1.236 . S
C25 C28 1.344 . S
C25 C29 1.328 . S
C25 C31 1.516 . S
C26 C27 1.304 . S
C26 C30 1.323 . S
C27 C26 1.304 . S
C27 C28 1.371 . S
C27 H36 0.930 . S
C28 C25 1.344 . S
C28 C27 1.371 . S
C28 H37 0.931 . S
C29 C25 1.328 . S
C29 C30 1.433 . S
C29 H38 0.931 . S
C30 C26 1.323 . S
C30 C29 1.433 . S
C30 H39 0.933 . S
C31 Dy1 2.738 . S
C31 O11 1.255 . S
C31 O12 1.249 . S
C31 C25 1.516 . S
H32 C18 0.930 . S
H33 C19 0.931 . S
H34 C20 0.931 . S
H35 C21 0.933 . S
H36 C27 0.930 . S
H37 C28 0.931 . S
H38 C29 0.931 . S
H39 C30 0.933 . S
Dy40 O43 2.307 . S
Dy40 O45 2.395 . S
Dy40 O46 2.379 . S
Dy40 O48 2.339 . S
Dy40 O50 2.298 . S
Dy40 O54 2.275 . S
Dy40 C62 2.738 . S
Dy41 O44 2.298 . S
Dy41 O47 2.275 . S
Dy41 O49 2.307 . S
Dy41 O51 2.395 . S
Dy41 O52 2.379 . S
Dy41 O55 2.339 . S
Dy41 C71 2.738 . S
C42 O54 1.254 . S
C42 O55 1.257 . S
O43 Dy40 2.307 . S
O43 C53 1.266 . S
O44 Dy41 2.298 . S
O44 C53 1.236 . S
O45 Dy40 2.395 . S
O45 C62 1.255 . S
O46 Dy40 2.379 . S
O46 C62 1.249 . S
O47 Dy41 2.275 . S
O47 C63 1.254 . S
O48 Dy40 2.339 . S
O48 C63 1.257 . S
O49 Dy41 2.307 . S
O49 C64 1.266 . S
O50 Dy40 2.298 . S
O50 C64 1.236 . S
O51 Dy41 2.395 . S
O51 C71 1.255 . S
O52 Dy41 2.379 . S
O52 C71 1.249 . S
C53 O43 1.266 . S
C53 O44 1.236 . S
O54 Dy40 2.275 . S
O54 C42 1.254 . S
O55 Dy41 2.339 . S
O55 C42 1.257 . S
C56 C59 1.344 . S
C56 C60 1.328 . S
C56 C62 1.516 1_655 S
C57 C58 1.304 . S
C57 C61 1.323 . S
C58 C57 1.304 . S
C58 C59 1.371 . S
C58 H72 0.930 . S
C59 C56 1.344 . S
C59 C58 1.371 . S
C59 H73 0.931 . S
C60 C56 1.328 . S
C60 C61 1.433 . S
C60 H74 0.931 . S
C61 C57 1.323 . S
C61 C60 1.433 . S
C61 H75 0.933 . S
C62 Dy40 2.738 . S
C62 O45 1.255 . S
C62 O46 1.249 . S
C62 C56 1.516 1_455 S
C63 O47 1.254 . S
C63 O48 1.257 . S
C64 O49 1.266 . S
C64 O50 1.236 . S
C65 C68 1.344 . S
C65 C69 1.328 . S
C65 C71 1.516 . S
C66 C67 1.304 . S
C66 C70 1.323 . S
C67 C66 1.304 . S
C67 C68 1.371 . S
C67 H76 0.930 . S
C68 C65 1.344 . S
C68 C67 1.371 . S
C68 H77 0.931 . S
C69 C65 1.328 . S
C69 C70 1.433 . S
C69 H78 0.931 . S
C70 C66 1.323 . S
C70 C69 1.433 . S
C70 H79 0.933 . S
C71 Dy41 2.738 . S
C71 O51 1.255 . S
C71 O52 1.249 . S
C71 C65 1.516 . S
H72 C58 0.930 . S
H73 C59 0.931 . S
H74 C60 0.931 . S
H75 C61 0.933 . S
H76 C67 0.930 . S
H77 C68 0.931 . S
H78 C69 0.931 . S
H79 C70 0.933 . S
Dy80 O83 2.307 . S
Dy80 O85 2.395 . S
Dy80 O86 2.379 . S
Dy80 O88 2.339 . S
Dy80 O90 2.298 . S
Dy80 O94 2.275 . S
Dy80 C102 2.738 . S
Dy81 O84 2.298 . S
Dy81 O87 2.277 . S
Dy81 O89 2.307 1_655 S
Dy81 O91 2.395 . S
Dy81 O92 2.379 . S
Dy81 O95 2.339 . S
Dy81 C111 2.738 . S
C82 O94 1.254 . S
C82 O95 1.257 1_455 S
O83 Dy80 2.307 . S
O83 C93 1.266 1_455 S
O84 Dy81 2.298 . S
O84 C93 1.236 . S
O85 Dy80 2.395 . S
O85 C102 1.255 . S
O86 Dy80 2.379 . S
O86 C102 1.249 . S
O87 Dy81 2.277 . S
O87 C103 1.253 1_655 S
O88 Dy80 2.339 . S
O88 C103 1.257 . S
O89 Dy81 2.307 1_455 S
O89 C104 1.266 . S
O90 Dy80 2.298 . S
O90 C104 1.236 . S
O91 Dy81 2.395 . S
O91 C111 1.255 . S
O92 Dy81 2.379 . S
O92 C111 1.249 . S
C93 O83 1.266 1_655 S
C93 O84 1.236 . S
O94 Dy80 2.275 . S
O94 C82 1.254 . S
O95 Dy81 2.339 . S
O95 C82 1.257 1_655 S
C96 C99 1.344 . S
C96 C100 1.328 . S
C96 C102 1.516 . S
C97 C98 1.304 . S
C97 C101 1.323 . S
C98 C97 1.304 . S
C98 C99 1.371 . S
C98 H112 0.930 . S
C99 C96 1.344 . S
C99 C98 1.371 . S
C99 H113 0.931 . S
C100 C96 1.328 . S
C100 C101 1.433 . S
C100 H114 0.931 . S
C101 C97 1.323 . S
C101 C100 1.433 . S
C101 H115 0.933 . S
C102 Dy80 2.738 . S
C102 O85 1.255 . S
C102 O86 1.249 . S
C102 C96 1.516 . S
C103 O87 1.253 1_455 S
C103 O88 1.257 . S
C104 O89 1.266 . S
C104 O90 1.236 . S
C105 C108 1.344 . S
C105 C109 1.328 . S
C105 C111 1.516 . S
C106 C107 1.304 . S
C106 C110 1.323 . S
C107 C106 1.304 . S
C107 C108 1.371 . S
C107 H116 0.930 . S
C108 C105 1.344 . S
C108 C107 1.371 . S
C108 H117 0.931 . S
C109 C105 1.328 . S
C109 C110 1.433 . S
C109 H118 0.931 . S
C110 C106 1.323 . S
C110 C109 1.433 . S
C110 H119 0.933 . S
C111 Dy81 2.738 . S
C111 O91 1.255 . S
C111 O92 1.249 . S
C111 C105 1.516 . S
H112 C98 0.930 . S
H113 C99 0.931 . S
H114 C100 0.931 . S
H115 C101 0.933 . S
H116 C107 0.930 . S
H117 C108 0.931 . S
H118 C109 0.931 . S
H119 C110 0.933 . S
Dy120 O123 2.307 . S
Dy120 O125 2.395 . S
Dy120 O126 2.379 . S
Dy120 O128 2.339 . S
Dy120 O130 2.298 . S
Dy120 O134 2.275 . S
Dy120 C142 2.738 . S
Dy121 O124 2.298 . S
Dy121 O127 2.275 . S
Dy121 O129 2.307 . S
Dy121 O131 2.395 . S
Dy121 O132 2.379 . S
Dy121 O135 2.339 . S
Dy121 C151 2.738 . S
C122 O134 1.254 . S
C122 O135 1.257 . S
O123 Dy120 2.307 . S
O123 C133 1.266 . S
O124 Dy121 2.298 . S
O124 C133 1.236 . S
O125 Dy120 2.395 . S
O125 C142 1.255 . S
O126 Dy120 2.379 . S
O126 C142 1.249 . S
O127 Dy121 2.275 . S
O127 C143 1.254 . S
O128 Dy120 2.339 . S
O128 C143 1.257 . S
O129 Dy121 2.307 . S
O129 C144 1.266 . S
O130 Dy120 2.298 . S
O130 C144 1.236 . S
O131 Dy121 2.395 . S
O131 C151 1.255 . S
O132 Dy121 2.379 . S
O132 C151 1.249 . S
C133 O123 1.266 . S
C133 O124 1.236 . S
O134 Dy120 2.275 . S
O134 C122 1.254 . S
O135 Dy121 2.339 . S
O135 C122 1.257 . S
C136 C139 1.344 . S
C136 C140 1.328 . S
C136 C142 1.516 1_655 S
C137 C138 1.304 . S
C137 C141 1.323 . S
C138 C137 1.304 . S
C138 C139 1.371 . S
C138 H152 0.930 . S
C139 C136 1.344 . S
C139 C138 1.371 . S
C139 H153 0.931 . S
C140 C136 1.328 . S
C140 C141 1.433 . S
C140 H154 0.931 . S
C141 C137 1.323 . S
C141 C140 1.433 . S
C141 H155 0.933 . S
C142 Dy120 2.738 . S
C142 O125 1.255 . S
C142 O126 1.249 . S
C142 C136 1.516 1_455 S
C143 O127 1.254 . S
C143 O128 1.257 . S
C144 O129 1.266 . S
C144 O130 1.236 . S
C145 C148 1.344 . S
C145 C149 1.328 . S
C145 C151 1.516 . S
C146 C147 1.304 . S
C146 C150 1.323 . S
C147 C146 1.304 . S
C147 C148 1.371 . S
C147 H156 0.930 . S
C148 C145 1.344 . S
C148 C147 1.371 . S
C148 H157 0.931 . S
C149 C145 1.328 . S
C149 C150 1.433 . S
C149 H158 0.931 . S
C150 C146 1.323 . S
C150 C149 1.433 . S
C150 H159 0.933 . S
C151 Dy121 2.738 . S
C151 O131 1.255 . S
C151 O132 1.249 . S
C151 C145 1.516 . S
H152 C138 0.930 . S
H153 C139 0.931 . S
H154 C140 0.931 . S
H155 C141 0.933 . S
H156 C147 0.930 . S
H157 C148 0.931 . S
H158 C149 0.931 . S
H159 C150 0.933 . S
Dy160 O163 2.307 1_455 S
Dy160 O165 2.395 . S
Dy160 O166 2.379 . S
Dy160 O168 2.339 . S
Dy160 O170 2.298 . S
Dy160 O174 2.277 . S
Dy160 C182 2.738 . S
Dy161 O164 2.298 . S
Dy161 O167 2.275 . S
Dy161 O169 2.307 . S
Dy161 O171 2.395 . S
Dy161 O172 2.379 . S
Dy161 O175 2.339 . S
Dy161 C191 2.738 . S
C162 O174 1.253 1_655 S
C162 O175 1.257 . S
O163 Dy160 2.307 1_655 S
O163 C173 1.266 . S
O164 Dy161 2.298 . S
O164 C173 1.236 . S
O165 Dy160 2.395 . S
O165 C182 1.255 . S
O166 Dy160 2.379 . S
O166 C182 1.249 . S
O167 Dy161 2.275 . S
O167 C183 1.254 . S
O168 Dy160 2.339 . S
O168 C183 1.257 1_455 S
O169 Dy161 2.307 . S
O169 C184 1.266 1_655 S
O170 Dy160 2.298 . S
O170 C184 1.236 . S
O171 Dy161 2.395 . S
O171 C191 1.255 . S
O172 Dy161 2.379 . S
O172 C191 1.249 . S
C173 O163 1.266 . S
C173 O164 1.236 . S
O174 Dy160 2.277 . S
O174 C162 1.253 1_455 S
O175 Dy161 2.339 . S
O175 C162 1.257 . S
C176 C179 1.344 . S
C176 C180 1.328 . S
C176 C182 1.516 . S
C177 C178 1.304 . S
C177 C181 1.323 . S
C178 C177 1.304 . S
C178 C179 1.371 . S
C178 H192 0.930 . S
C179 C176 1.344 . S
C179 C178 1.371 . S
C179 H193 0.931 . S
C180 C176 1.328 . S
C180 C181 1.433 . S
C180 H194 0.931 . S
C181 C177 1.323 . S
C181 C180 1.433 . S
C181 H195 0.933 . S
C182 Dy160 2.738 . S
C182 O165 1.255 . S
C182 O166 1.249 . S
C182 C176 1.516 . S
C183 O167 1.254 . S
C183 O168 1.257 1_655 S
C184 O169 1.266 1_455 S
C184 O170 1.236 . S
C185 C188 1.344 . S
C185 C189 1.328 . S
C185 C191 1.516 . S
C186 C187 1.304 . S
C186 C190 1.323 . S
C187 C186 1.304 . S
C187 C188 1.371 . S
C187 H196 0.930 . S
C188 C185 1.344 . S
C188 C187 1.371 . S
C188 H197 0.931 . S
C189 C185 1.328 . S
C189 C190 1.433 . S
C189 H198 0.931 . S
C190 C186 1.323 . S
C190 C189 1.433 . S
C190 H199 0.933 . S
C191 Dy161 2.738 . S
C191 O171 1.255 . S
C191 O172 1.249 . S
C191 C185 1.516 . S
H192 C178 0.930 . S
H193 C179 0.931 . S
H194 C180 0.931 . S
H195 C181 0.933 . S
H196 C187 0.930 . S
H197 C188 0.931 . S
H198 C189 0.931 . S
H199 C190 0.933 . S
Dy200 O203 2.307 . S
Dy200 O205 2.395 . S
Dy200 O206 2.379 . S
Dy200 O208 2.339 . S
Dy200 O210 2.298 . S
Dy200 O214 2.275 . S
Dy200 C222 2.738 . S
Dy201 O204 2.298 . S
Dy201 O207 2.275 . S
Dy201 O209 2.307 . S
Dy201 O211 2.395 . S
Dy201 O212 2.379 . S
Dy201 O215 2.339 . S
Dy201 C231 2.738 . S
C202 O214 1.254 . S
C202 O215 1.257 . S
O203 Dy200 2.307 . S
O203 C213 1.266 . S
O204 Dy201 2.298 . S
O204 C213 1.236 . S
O205 Dy200 2.395 . S
O205 C222 1.255 . S
O206 Dy200 2.379 . S
O206 C222 1.249 . S
O207 Dy201 2.275 . S
O207 C223 1.254 . S
O208 Dy200 2.339 . S
O208 C223 1.257 . S
O209 Dy201 2.307 . S
O209 C224 1.266 . S
O210 Dy200 2.298 . S
O210 C224 1.236 . S
O211 Dy201 2.395 . S
O211 C231 1.255 . S
O212 Dy201 2.379 . S
O212 C231 1.249 . S
C213 O203 1.266 . S
C213 O204 1.236 . S
O214 Dy200 2.275 . S
O214 C202 1.254 . S
O215 Dy201 2.339 . S
O215 C202 1.257 . S
C216 C219 1.344 . S
C216 C220 1.328 . S
C216 C222 1.516 . S
C217 C218 1.304 . S
C217 C221 1.323 . S
C218 C217 1.304 . S
C218 C219 1.371 . S
C218 H232 0.930 . S
C219 C216 1.344 . S
C219 C218 1.371 . S
C219 H233 0.931 . S
C220 C216 1.328 . S
C220 C221 1.433 . S
C220 H234 0.931 . S
C221 C217 1.323 . S
C221 C220 1.433 . S
C221 H235 0.933 . S
C222 Dy200 2.738 . S
C222 O205 1.255 . S
C222 O206 1.249 . S
C222 C216 1.516 . S
C223 O207 1.254 . S
C223 O208 1.257 . S
C224 O209 1.266 . S
C224 O210 1.236 . S
C225 C228 1.344 . S
C225 C229 1.328 . S
C225 C231 1.516 1_455 S
C226 C227 1.304 . S
C226 C230 1.323 . S
C227 C226 1.304 . S
C227 C228 1.371 . S
C227 H236 0.930 . S
C228 C225 1.344 . S
C228 C227 1.371 . S
C228 H237 0.931 . S
C229 C225 1.328 . S
C229 C230 1.433 . S
C229 H238 0.931 . S
C230 C226 1.323 . S
C230 C229 1.433 . S
C230 H239 0.933 . S
C231 Dy201 2.738 . S
C231 O211 1.255 . S
C231 O212 1.249 . S
C231 C225 1.516 1_655 S
H232 C218 0.930 . S
H233 C219 0.931 . S
H234 C220 0.931 . S
H235 C221 0.933 . S
H236 C227 0.930 . S
H237 C228 0.931 . S
H238 C229 0.931 . S
H239 C230 0.933 . S
Dy240 O243 2.307 1_455 S
Dy240 O245 2.395 . S
Dy240 O246 2.379 . S
Dy240 O248 2.339 . S
Dy240 O250 2.298 . S
Dy240 O254 2.277 . S
Dy240 C262 2.738 . S
Dy241 O244 2.298 . S
Dy241 O247 2.275 . S
Dy241 O249 2.307 . S
Dy241 O251 2.395 . S
Dy241 O252 2.379 . S
Dy241 O255 2.339 . S
Dy241 C271 2.738 . S
C242 O254 1.253 1_655 S
C242 O255 1.257 . S
O243 Dy240 2.307 1_655 S
O243 C253 1.266 . S
O244 Dy241 2.298 . S
O244 C253 1.236 . S
O245 Dy240 2.395 . S
O245 C262 1.255 . S
O246 Dy240 2.379 . S
O246 C262 1.249 . S
O247 Dy241 2.275 . S
O247 C263 1.254 . S
O248 Dy240 2.339 . S
O248 C263 1.257 1_455 S
O249 Dy241 2.307 . S
O249 C264 1.266 1_655 S
O250 Dy240 2.298 . S
O250 C264 1.236 . S
O251 Dy241 2.395 . S
O251 C271 1.255 . S
O252 Dy241 2.379 . S
O252 C271 1.249 . S
C253 O243 1.266 . S
C253 O244 1.236 . S
O254 Dy240 2.277 . S
O254 C242 1.253 1_455 S
O255 Dy241 2.339 . S
O255 C242 1.257 . S
C256 C259 1.344 . S
C256 C260 1.328 . S
C256 C262 1.516 . S
C257 C258 1.304 . S
C257 C261 1.323 . S
C258 C257 1.304 . S
C258 C259 1.371 . S
C258 H272 0.930 . S
C259 C256 1.344 . S
C259 C258 1.371 . S
C259 H273 0.931 . S
C260 C256 1.328 . S
C260 C261 1.433 . S
C260 H274 0.931 . S
C261 C257 1.323 . S
C261 C260 1.433 . S
C261 H275 0.933 . S
C262 Dy240 2.738 . S
C262 O245 1.255 . S
C262 O246 1.249 . S
C262 C256 1.516 . S
C263 O247 1.254 . S
C263 O248 1.257 1_655 S
C264 O249 1.266 1_455 S
C264 O250 1.236 . S
C265 C268 1.344 . S
C265 C269 1.328 . S
C265 C271 1.516 . S
C266 C267 1.304 . S
C266 C270 1.323 . S
C267 C266 1.304 . S
C267 C268 1.371 . S
C267 H276 0.930 . S
C268 C265 1.344 . S
C268 C267 1.371 . S
C268 H277 0.931 . S
C269 C265 1.328 . S
C269 C270 1.433 . S
C269 H278 0.931 . S
C270 C266 1.323 . S
C270 C269 1.433 . S
C270 H279 0.933 . S
C271 Dy241 2.738 . S
C271 O251 1.255 . S
C271 O252 1.249 . S
C271 C265 1.516 . S
H272 C258 0.930 . S
H273 C259 0.931 . S
H274 C260 0.931 . S
H275 C261 0.933 . S
H276 C267 0.930 . S
H277 C268 0.931 . S
H278 C269 0.931 . S
H279 C270 0.933 . S
Dy280 O283 2.307 . S
Dy280 O285 2.395 . S
Dy280 O286 2.379 . S
Dy280 O288 2.339 . S
Dy280 O290 2.298 . S
Dy280 O294 2.275 . S
Dy280 C302 2.738 . S
Dy281 O284 2.298 . S
Dy281 O287 2.275 . S
Dy281 O289 2.307 . S
Dy281 O291 2.395 . S
Dy281 O292 2.379 . S
Dy281 O295 2.339 . S
Dy281 C311 2.738 . S
C282 O294 1.254 . S
C282 O295 1.257 . S
O283 Dy280 2.307 . S
O283 C293 1.266 . S
O284 Dy281 2.298 . S
O284 C293 1.236 . S
O285 Dy280 2.395 . S
O285 C302 1.255 . S
O286 Dy280 2.379 . S
O286 C302 1.249 . S
O287 Dy281 2.275 . S
O287 C303 1.254 . S
O288 Dy280 2.339 . S
O288 C303 1.257 . S
O289 Dy281 2.307 . S
O289 C304 1.266 . S
O290 Dy280 2.298 . S
O290 C304 1.236 . S
O291 Dy281 2.395 . S
O291 C311 1.255 . S
O292 Dy281 2.379 . S
O292 C311 1.249 . S
C293 O283 1.266 . S
C293 O284 1.236 . S
O294 Dy280 2.275 . S
O294 C282 1.254 . S
O295 Dy281 2.339 . S
O295 C282 1.257 . S
C296 C299 1.344 . S
C296 C300 1.328 . S
C296 C302 1.516 . S
C297 C298 1.304 . S
C297 C301 1.323 . S
C298 C297 1.304 . S
C298 C299 1.371 . S
C298 H312 0.930 . S
C299 C296 1.344 . S
C299 C298 1.371 . S
C299 H313 0.931 . S
C300 C296 1.328 . S
C300 C301 1.433 . S
C300 H314 0.931 . S
C301 C297 1.323 . S
C301 C300 1.433 . S
C301 H315 0.933 . S
C302 Dy280 2.738 . S
C302 O285 1.255 . S
C302 O286 1.249 . S
C302 C296 1.516 . S
C303 O287 1.254 . S
C303 O288 1.257 . S
C304 O289 1.266 . S
C304 O290 1.236 . S
C305 C308 1.344 . S
C305 C309 1.328 . S
C305 C311 1.516 1_455 S
C306 C307 1.304 . S
C306 C310 1.323 . S
C307 C306 1.304 . S
C307 C308 1.371 . S
C307 H316 0.930 . S
C308 C305 1.344 . S
C308 C307 1.371 . S
C308 H317 0.931 . S
C309 C305 1.328 . S
C309 C310 1.433 . S
C309 H318 0.931 . S
C310 C306 1.323 . S
C310 C309 1.433 . S
C310 H319 0.933 . S
C311 Dy281 2.738 . S
C311 O291 1.255 . S
C311 O292 1.249 . S
C311 C305 1.516 1_655 S
H312 C298 0.930 . S
H313 C299 0.931 . S
H314 C300 0.931 . S
H315 C301 0.933 . S
H316 C307 0.930 . S
H317 C308 0.931 . S
H318 C309 0.931 . S
H319 C310 0.933 . S
Dy320 O323 2.307 . S
Dy320 O325 2.395 . S
Dy320 O326 2.379 . S
Dy320 O328 2.339 . S
Dy320 O330 2.298 1_565 S
Dy320 O334 2.275 . S
Dy320 C342 2.738 . S
Dy321 O324 2.298 1_545 S
Dy321 O327 2.285 . S
Dy321 O329 2.307 1_655 S
Dy321 O331 2.395 . S
Dy321 O332 2.379 . S
Dy321 O335 2.339 . S
Dy321 C351 2.738 . S
C322 O334 1.254 . S
C322 O335 1.257 1_465 S
O323 Dy320 2.307 . S
O323 C333 1.266 1_455 S
O324 Dy321 2.298 1_565 S
O324 C333 1.236 . S
O325 Dy320 2.395 . S
O325 C342 1.255 . S
O326 Dy320 2.379 . S
O326 C342 1.249 . S
O327 Dy321 2.285 . S
O327 C343 1.244 1_645 S
O328 Dy320 2.339 . S
O328 C343 1.257 . S
O329 Dy321 2.307 1_455 S
O329 C344 1.266 . S
O330 Dy320 2.298 1_545 S
O330 C344 1.236 . S
O331 Dy321 2.395 . S
O331 C351 1.255 . S
O332 Dy321 2.379 . S
O332 C351 1.249 . S
C333 O323 1.266 1_655 S
C333 O324 1.236 . S
O334 Dy320 2.275 . S
O334 C322 1.254 . S
O335 Dy321 2.339 . S
O335 C322 1.257 1_645 S
C336 C339 1.344 . S
C336 C340 1.328 . S
C336 C342 1.516 . S
C337 C338 1.313 . S
C337 C341 1.323 . S
C338 C337 1.313 . S
C338 C339 1.373 . S
C338 H352 0.920 1_565 S
C339 C336 1.344 . S
C339 C338 1.373 . S
C339 H353 0.931 1_565 S
C340 C336 1.328 . S
C340 C341 1.433 . S
C340 H354 0.931 . S
C341 C337 1.323 . S
C341 C340 1.433 . S
C341 H355 0.933 . S
C342 Dy320 2.738 . S
C342 O325 1.255 . S
C342 O326 1.249 . S
C342 C336 1.516 . S
C343 O327 1.244 1_465 S
C343 O328 1.257 . S
C344 O329 1.266 . S
C344 O330 1.236 . S
C345 C348 1.344 1_545 S
C345 C349 1.328 . S
C345 C351 1.516 . S
C346 C347 1.304 . S
C346 C350 1.323 1_565 S
C347 C346 1.304 . S
C347 C348 1.371 . S
C347 H356 0.930 . S
C348 C345 1.344 1_565 S
C348 C347 1.371 . S
C348 H357 0.931 . S
C349 C345 1.328 . S
C349 C350 1.433 . S
C349 H358 0.931 . S
C350 C346 1.323 1_545 S
C350 C349 1.433 . S
C350 H359 0.933 . S
C351 Dy321 2.738 . S
C351 O331 1.255 . S
C351 O332 1.249 . S
C351 C345 1.516 . S
H352 C338 0.920 1_545 S
H353 C339 0.931 1_545 S
H354 C340 0.931 . S
H355 C341 0.933 . S
H356 C347 0.930 . S
H357 C348 0.931 . S
H358 C349 0.931 . S
H359 C350 0.933 . S
Dy360 O363 2.307 . S
Dy360 O365 2.395 . S
Dy360 O366 2.379 . S
Dy360 O368 2.339 . S
Dy360 O370 2.298 . S
Dy360 O374 2.275 . S
Dy360 C382 2.738 . S
Dy361 O364 2.298 . S
Dy361 O367 2.275 . S
Dy361 O369 2.307 . S
Dy361 O371 2.395 . S
Dy361 O372 2.379 . S
Dy361 O375 2.339 . S
Dy361 C391 2.738 . S
C362 O374 1.254 . S
C362 O375 1.257 . S
O363 Dy360 2.307 . S
O363 C373 1.266 . S
O364 Dy361 2.298 . S
O364 C373 1.236 . S
O365 Dy360 2.395 . S
O365 C382 1.255 . S
O366 Dy360 2.379 . S
O366 C382 1.249 . S
O367 Dy361 2.275 . S
O367 C383 1.254 . S
O368 Dy360 2.339 . S
O368 C383 1.257 . S
O369 Dy361 2.307 . S
O369 C384 1.266 . S
O370 Dy360 2.298 . S
O370 C384 1.236 . S
O371 Dy361 2.395 . S
O371 C391 1.255 . S
O372 Dy361 2.379 . S
O372 C391 1.249 . S
C373 O363 1.266 . S
C373 O364 1.236 . S
O374 Dy360 2.275 . S
O374 C362 1.254 . S
O375 Dy361 2.339 . S
O375 C362 1.257 . S
C376 C379 1.344 . S
C376 C380 1.328 . S
C376 C382 1.516 1_655 S
C377 C378 1.304 . S
C377 C381 1.323 . S
C378 C377 1.304 . S
C378 C379 1.371 . S
C378 H392 0.930 . S
C379 C376 1.344 . S
C379 C378 1.371 . S
C379 H393 0.931 . S
C380 C376 1.328 . S
C380 C381 1.433 . S
C380 H394 0.931 . S
C381 C377 1.323 . S
C381 C380 1.433 . S
C381 H395 0.933 . S
C382 Dy360 2.738 . S
C382 O365 1.255 . S
C382 O366 1.249 . S
C382 C376 1.516 1_455 S
C383 O367 1.254 . S
C383 O368 1.257 . S
C384 O369 1.266 . S
C384 O370 1.236 . S
C385 C388 1.344 . S
C385 C389 1.328 . S
C385 C391 1.516 . S
C386 C387 1.304 . S
C386 C390 1.323 . S
C387 C386 1.304 . S
C387 C388 1.371 . S
C387 H396 0.930 . S
C388 C385 1.344 . S
C388 C387 1.371 . S
C388 H397 0.931 . S
C389 C385 1.328 . S
C389 C390 1.433 . S
C389 H398 0.931 . S
C390 C386 1.323 . S
C390 C389 1.433 . S
C390 H399 0.933 . S
C391 Dy361 2.738 . S
C391 O371 1.255 . S
C391 O372 1.249 . S
C391 C385 1.516 . S
H392 C378 0.930 . S
H393 C379 0.931 . S
H394 C380 0.931 . S
H395 C381 0.933 . S
H396 C387 0.930 . S
H397 C388 0.931 . S
H398 C389 0.931 . S
H399 C390 0.933 . S
Dy400 O403 2.307 . S
Dy400 O405 2.395 . S
Dy400 O406 2.379 . S
Dy400 O408 2.339 . S
Dy400 O410 2.298 . S
Dy400 O414 2.275 . S
Dy400 C422 2.738 . S
Dy401 O404 2.298 . S
Dy401 O407 2.277 . S
Dy401 O409 2.307 1_655 S
Dy401 O411 2.395 . S
Dy401 O412 2.379 . S
Dy401 O415 2.339 . S
Dy401 C431 2.738 . S
C402 O414 1.254 . S
C402 O415 1.257 1_455 S
O403 Dy400 2.307 . S
O403 C413 1.266 1_455 S
O404 Dy401 2.298 . S
O404 C413 1.236 . S
O405 Dy400 2.395 . S
O405 C422 1.255 . S
O406 Dy400 2.379 . S
O406 C422 1.249 . S
O407 Dy401 2.277 . S
O407 C423 1.253 1_655 S
O408 Dy400 2.339 . S
O408 C423 1.257 . S
O409 Dy401 2.307 1_455 S
O409 C424 1.266 . S
O410 Dy400 2.298 . S
O410 C424 1.236 . S
O411 Dy401 2.395 . S
O411 C431 1.255 . S
O412 Dy401 2.379 . S
O412 C431 1.249 . S
C413 O403 1.266 1_655 S
C413 O404 1.236 . S
O414 Dy400 2.275 . S
O414 C402 1.254 . S
O415 Dy401 2.339 . S
O415 C402 1.257 1_655 S
C416 C419 1.344 . S
C416 C420 1.328 . S
C416 C422 1.516 . S
C417 C418 1.304 . S
C417 C421 1.323 . S
C418 C417 1.304 . S
C418 C419 1.371 . S
C418 H432 0.930 . S
C419 C416 1.344 . S
C419 C418 1.371 . S
C419 H433 0.931 . S
C420 C416 1.328 . S
C420 C421 1.433 . S
C420 H434 0.931 . S
C421 C417 1.323 . S
C421 C420 1.433 . S
C421 H435 0.933 . S
C422 Dy400 2.738 . S
C422 O405 1.255 . S
C422 O406 1.249 . S
C422 C416 1.516 . S
C423 O407 1.253 1_455 S
C423 O408 1.257 . S
C424 O409 1.266 . S
C424 O410 1.236 . S
C425 C428 1.344 . S
C425 C429 1.328 . S
C425 C431 1.516 . S
C426 C427 1.304 . S
C426 C430 1.323 . S
C427 C426 1.304 . S
C427 C428 1.371 . S
C427 H436 0.930 . S
C428 C425 1.344 . S
C428 C427 1.371 . S
C428 H437 0.931 . S
C429 C425 1.328 . S
C429 C430 1.433 . S
C429 H438 0.931 . S
C430 C426 1.323 . S
C430 C429 1.433 . S
C430 H439 0.933 . S
C431 Dy401 2.738 . S
C431 O411 1.255 . S
C431 O412 1.249 . S
C431 C425 1.516 . S
H432 C418 0.930 . S
H433 C419 0.931 . S
H434 C420 0.931 . S
H435 C421 0.933 . S
H436 C427 0.930 . S
H437 C428 0.931 . S
H438 C429 0.931 . S
H439 C430 0.933 . S
Dy440 O443 2.307 . S
Dy440 O445 2.395 . S
Dy440 O446 2.379 . S
Dy440 O448 2.339 . S
Dy440 O450 2.298 1_565 S
Dy440 O454 2.275 . S
Dy440 C462 2.738 . S
Dy441 O444 2.298 1_545 S
Dy441 O447 2.284 . S
Dy441 O449 2.307 . S
Dy441 O451 2.395 . S
Dy441 O452 2.379 . S
Dy441 O455 2.339 . S
Dy441 C471 2.738 . S
C442 O454 1.254 . S
C442 O455 1.257 1_565 S
O443 Dy440 2.307 . S
O443 C453 1.266 . S
O444 Dy441 2.298 1_565 S
O444 C453 1.236 . S
O445 Dy440 2.395 . S
O445 C462 1.255 . S
O446 Dy440 2.379 . S
O446 C462 1.249 . S
O447 Dy441 2.284 . S
O447 C463 1.245 1_545 S
O448 Dy440 2.339 . S
O448 C463 1.257 . S
O449 Dy441 2.307 . S
O449 C464 1.266 . S
O450 Dy440 2.298 1_545 S
O450 C464 1.236 . S
O451 Dy441 2.395 . S
O451 C471 1.255 . S
O452 Dy441 2.379 . S
O452 C471 1.249 . S
C453 O443 1.266 . S
C453 O444 1.236 . S
O454 Dy440 2.275 . S
O454 C442 1.254 . S
O455 Dy441 2.339 . S
O455 C442 1.257 1_545 S
C456 C459 1.344 . S
C456 C460 1.328 . S
C456 C462 1.516 1_655 S
C457 C458 1.313 . S
C457 C461 1.323 . S
C458 C457 1.313 . S
C458 C459 1.373 . S
C458 H472 0.920 1_565 S
C459 C456 1.344 . S
C459 C458 1.373 . S
C459 H473 0.931 1_565 S
C460 C456 1.328 . S
C460 C461 1.433 . S
C460 H474 0.931 . S
C461 C457 1.323 . S
C461 C460 1.433 . S
C461 H475 0.933 . S
C462 Dy440 2.738 . S
C462 O445 1.255 . S
C462 O446 1.249 . S
C462 C456 1.516 1_455 S
C463 O447 1.245 1_565 S
C463 O448 1.257 . S
C464 O449 1.266 . S
C464 O450 1.236 . S
C465 C468 1.344 1_545 S
C465 C469 1.328 . S
C465 C471 1.516 . S
C466 C467 1.304 . S
C466 C470 1.323 1_565 S
C467 C466 1.304 . S
C467 C468 1.371 . S
C467 H476 0.930 . S
C468 C465 1.344 1_565 S
C468 C467 1.371 . S
C468 H477 0.931 . S
C469 C465 1.328 . S
C469 C470 1.433 . S
C469 H478 0.931 . S
C470 C466 1.323 1_545 S
C470 C469 1.433 . S
C470 H479 0.933 . S
C471 Dy441 2.738 . S
C471 O451 1.255 . S
C471 O452 1.249 . S
C471 C465 1.516 . S
H472 C458 0.920 1_545 S
H473 C459 0.931 1_545 S
H474 C460 0.931 . S
H475 C461 0.933 . S
H476 C467 0.930 . S
H477 C468 0.931 . S
H478 C469 0.931 . S
H479 C470 0.933 . S
Dy480 O483 2.307 1_455 S
Dy480 O485 2.395 . S
Dy480 O486 2.379 . S
Dy480 O488 2.339 . S
Dy480 O490 2.298 1_565 S
Dy480 O494 2.285 . S
Dy480 C502 2.738 . S
Dy481 O484 2.298 1_545 S
Dy481 O487 2.275 . S
Dy481 O489 2.307 . S
Dy481 O491 2.395 . S
Dy481 O492 2.379 . S
Dy481 O495 2.339 . S
Dy481 C511 2.738 . S
C482 O494 1.244 1_645 S
C482 O495 1.257 . S
O483 Dy480 2.307 1_655 S
O483 C493 1.266 . S
O484 Dy481 2.298 1_565 S
O484 C493 1.236 . S
O485 Dy480 2.395 . S
O485 C502 1.255 . S
O486 Dy480 2.379 . S
O486 C502 1.249 . S
O487 Dy481 2.275 . S
O487 C503 1.254 . S
O488 Dy480 2.339 . S
O488 C503 1.257 1_465 S
O489 Dy481 2.307 . S
O489 C504 1.266 1_655 S
O490 Dy480 2.298 1_545 S
O490 C504 1.236 . S
O491 Dy481 2.395 . S
O491 C511 1.255 . S
O492 Dy481 2.379 . S
O492 C511 1.249 . S
C493 O483 1.266 . S
C493 O484 1.236 . S
O494 Dy480 2.285 . S
O494 C482 1.244 1_465 S
O495 Dy481 2.339 . S
O495 C482 1.257 . S
C496 C499 1.344 1_565 S
C496 C500 1.328 . S
C496 C502 1.516 . S
C497 C498 1.304 . S
C497 C501 1.323 1_545 S
C498 C497 1.304 . S
C498 C499 1.371 . S
C498 H512 0.930 . S
C499 C496 1.344 1_545 S
C499 C498 1.371 . S
C499 H513 0.931 . S
C500 C496 1.328 . S
C500 C501 1.433 . S
C500 H514 0.931 . S
C501 C497 1.323 1_565 S
C501 C500 1.433 . S
C501 H515 0.933 . S
C502 Dy480 2.738 . S
C502 O485 1.255 . S
C502 O486 1.249 . S
C502 C496 1.516 . S
C503 O487 1.254 . S
C503 O488 1.257 1_645 S
C504 O489 1.266 1_455 S
C504 O490 1.236 . S
C505 C508 1.344 . S
C505 C509 1.328 . S
C505 C511 1.516 . S
C506 C507 1.313 . S
C506 C510 1.323 . S
C507 C506 1.313 . S
C507 C508 1.373 . S
C507 H516 0.920 1_545 S
C508 C505 1.344 . S
C508 C507 1.373 . S
C508 H517 0.931 1_545 S
C509 C505 1.328 . S
C509 C510 1.433 . S
C509 H518 0.931 . S
C510 C506 1.323 . S
C510 C509 1.433 . S
C510 H519 0.933 . S
C511 Dy481 2.738 . S
C511 O491 1.255 . S
C511 O492 1.249 . S
C511 C505 1.516 . S
H512 C498 0.930 . S
H513 C499 0.931 . S
H514 C500 0.931 . S
H515 C501 0.933 . S
H516 C507 0.920 1_565 S
H517 C508 0.931 1_565 S
H518 C509 0.931 . S
H519 C510 0.933 . S
Dy520 O523 2.307 . S
Dy520 O525 2.395 . S
Dy520 O526 2.379 . S
Dy520 O528 2.339 . S
Dy520 O530 2.298 . S
Dy520 O534 2.275 . S
Dy520 C542 2.738 . S
Dy521 O524 2.298 . S
Dy521 O527 2.275 . S
Dy521 O529 2.307 . S
Dy521 O531 2.395 . S
Dy521 O532 2.379 . S
Dy521 O535 2.339 . S
Dy521 C551 2.738 . S
C522 O534 1.254 . S
C522 O535 1.257 . S
O523 Dy520 2.307 . S
O523 C533 1.266 . S
O524 Dy521 2.298 . S
O524 C533 1.236 . S
O525 Dy520 2.395 . S
O525 C542 1.255 . S
O526 Dy520 2.379 . S
O526 C542 1.249 . S
O527 Dy521 2.275 . S
O527 C543 1.254 . S
O528 Dy520 2.339 . S
O528 C543 1.257 . S
O529 Dy521 2.307 . S
O529 C544 1.266 . S
O530 Dy520 2.298 . S
O530 C544 1.236 . S
O531 Dy521 2.395 . S
O531 C551 1.255 . S
O532 Dy521 2.379 . S
O532 C551 1.249 . S
C533 O523 1.266 . S
C533 O524 1.236 . S
O534 Dy520 2.275 . S
O534 C522 1.254 . S
O535 Dy521 2.339 . S
O535 C522 1.257 . S
C536 C539 1.344 . S
C536 C540 1.328 . S
C536 C542 1.516 . S
C537 C538 1.304 . S
C537 C541 1.323 . S
C538 C537 1.304 . S
C538 C539 1.371 . S
C538 H552 0.930 . S
C539 C536 1.344 . S
C539 C538 1.371 . S
C539 H553 0.931 . S
C540 C536 1.328 . S
C540 C541 1.433 . S
C540 H554 0.931 . S
C541 C537 1.323 . S
C541 C540 1.433 . S
C541 H555 0.933 . S
C542 Dy520 2.738 . S
C542 O525 1.255 . S
C542 O526 1.249 . S
C542 C536 1.516 . S
C543 O527 1.254 . S
C543 O528 1.257 . S
C544 O529 1.266 . S
C544 O530 1.236 . S
C545 C548 1.344 . S
C545 C549 1.328 . S
C545 C551 1.516 1_455 S
C546 C547 1.304 . S
C546 C550 1.323 . S
C547 C546 1.304 . S
C547 C548 1.371 . S
C547 H556 0.930 . S
C548 C545 1.344 . S
C548 C547 1.371 . S
C548 H557 0.931 . S
C549 C545 1.328 . S
C549 C550 1.433 . S
C549 H558 0.931 . S
C550 C546 1.323 . S
C550 C549 1.433 . S
C550 H559 0.933 . S
C551 Dy521 2.738 . S
C551 O531 1.255 . S
C551 O532 1.249 . S
C551 C545 1.516 1_655 S
H552 C538 0.930 . S
H553 C539 0.931 . S
H554 C540 0.931 . S
H555 C541 0.933 . S
H556 C547 0.930 . S
H557 C548 0.931 . S
H558 C549 0.931 . S
H559 C550 0.933 . S
Dy560 O563 2.307 1_455 S
Dy560 O565 2.395 . S
Dy560 O566 2.379 . S
Dy560 O568 2.339 . S
Dy560 O570 2.298 . S
Dy560 O574 2.277 . S
Dy560 C582 2.738 . S
Dy561 O564 2.298 . S
Dy561 O567 2.275 . S
Dy561 O569 2.307 . S
Dy561 O571 2.395 . S
Dy561 O572 2.379 . S
Dy561 O575 2.339 . S
Dy561 C591 2.738 . S
C562 O574 1.253 1_655 S
C562 O575 1.257 . S
O563 Dy560 2.307 1_655 S
O563 C573 1.266 . S
O564 Dy561 2.298 . S
O564 C573 1.236 . S
O565 Dy560 2.395 . S
O565 C582 1.255 . S
O566 Dy560 2.379 . S
O566 C582 1.249 . S
O567 Dy561 2.275 . S
O567 C583 1.254 . S
O568 Dy560 2.339 . S
O568 C583 1.257 1_455 S
O569 Dy561 2.307 . S
O569 C584 1.266 1_655 S
O570 Dy560 2.298 . S
O570 C584 1.236 . S
O571 Dy561 2.395 . S
O571 C591 1.255 . S
O572 Dy561 2.379 . S
O572 C591 1.249 . S
C573 O563 1.266 . S
C573 O564 1.236 . S
O574 Dy560 2.277 . S
O574 C562 1.253 1_455 S
O575 Dy561 2.339 . S
O575 C562 1.257 . S
C576 C579 1.344 . S
C576 C580 1.328 . S
C576 C582 1.516 . S
C577 C578 1.304 . S
C577 C581 1.323 . S
C578 C577 1.304 . S
C578 C579 1.371 . S
C578 H592 0.930 . S
C579 C576 1.344 . S
C579 C578 1.371 . S
C579 H593 0.931 . S
C580 C576 1.328 . S
C580 C581 1.433 . S
C580 H594 0.931 . S
C581 C577 1.323 . S
C581 C580 1.433 . S
C581 H595 0.933 . S
C582 Dy560 2.738 . S
C582 O565 1.255 . S
C582 O566 1.249 . S
C582 C576 1.516 . S
C583 O567 1.254 . S
C583 O568 1.257 1_655 S
C584 O569 1.266 1_455 S
C584 O570 1.236 . S
C585 C588 1.344 . S
C585 C589 1.328 . S
C585 C591 1.516 . S
C586 C587 1.304 . S
C586 C590 1.323 . S
C587 C586 1.304 . S
C587 C588 1.371 . S
C587 H596 0.930 . S
C588 C585 1.344 . S
C588 C587 1.371 . S
C588 H597 0.931 . S
C589 C585 1.328 . S
C589 C590 1.433 . S
C589 H598 0.931 . S
C590 C586 1.323 . S
C590 C589 1.433 . S
C590 H599 0.933 . S
C591 Dy561 2.738 . S
C591 O571 1.255 . S
C591 O572 1.249 . S
C591 C585 1.516 . S
H592 C578 0.930 . S
H593 C579 0.931 . S
H594 C580 0.931 . S
H595 C581 0.933 . S
H596 C587 0.930 . S
H597 C588 0.931 . S
H598 C589 0.931 . S
H599 C590 0.933 . S
Dy600 O603 2.307 . S
Dy600 O605 2.395 . S
Dy600 O606 2.379 . S
Dy600 O608 2.339 . S
Dy600 O610 2.298 1_565 S
Dy600 O614 2.284 . S
Dy600 C622 2.738 . S
Dy601 O604 2.298 1_545 S
Dy601 O607 2.275 . S
Dy601 O609 2.307 . S
Dy601 O611 2.395 . S
Dy601 O612 2.379 . S
Dy601 O615 2.339 . S
Dy601 C631 2.738 . S
C602 O614 1.245 1_545 S
C602 O615 1.257 . S
O603 Dy600 2.307 . S
O603 C613 1.266 . S
O604 Dy601 2.298 1_565 S
O604 C613 1.236 . S
O605 Dy600 2.395 . S
O605 C622 1.255 . S
O606 Dy600 2.379 . S
O606 C622 1.249 . S
O607 Dy601 2.275 . S
O607 C623 1.254 . S
O608 Dy600 2.339 . S
O608 C623 1.257 1_565 S
O609 Dy601 2.307 . S
O609 C624 1.266 . S
O610 Dy600 2.298 1_545 S
O610 C624 1.236 . S
O611 Dy601 2.395 . S
O611 C631 1.255 . S
O612 Dy601 2.379 . S
O612 C631 1.249 . S
C613 O603 1.266 . S
C613 O604 1.236 . S
O614 Dy600 2.284 . S
O614 C602 1.245 1_565 S
O615 Dy601 2.339 . S
O615 C602 1.257 . S
C616 C619 1.344 1_565 S
C616 C620 1.328 . S
C616 C622 1.516 . S
C617 C618 1.304 . S
C617 C621 1.323 1_545 S
C618 C617 1.304 . S
C618 C619 1.371 . S
C618 H632 0.930 . S
C619 C616 1.344 1_545 S
C619 C618 1.371 . S
C619 H633 0.931 . S
C620 C616 1.328 . S
C620 C621 1.433 . S
C620 H634 0.931 . S
C621 C617 1.323 1_565 S
C621 C620 1.433 . S
C621 H635 0.933 . S
C622 Dy600 2.738 . S
C622 O605 1.255 . S
C622 O606 1.249 . S
C622 C616 1.516 . S
C623 O607 1.254 . S
C623 O608 1.257 1_545 S
C624 O609 1.266 . S
C624 O610 1.236 . S
C625 C628 1.344 . S
C625 C629 1.328 . S
C625 C631 1.516 1_455 S
C626 C627 1.313 . S
C626 C630 1.323 . S
C627 C626 1.313 . S
C627 C628 1.373 . S
C627 H636 0.920 1_545 S
C628 C625 1.344 . S
C628 C627 1.373 . S
C628 H637 0.931 1_545 S
C629 C625 1.328 . S
C629 C630 1.433 . S
C629 H638 0.931 . S
C630 C626 1.323 . S
C630 C629 1.433 . S
C630 H639 0.933 . S
C631 Dy601 2.738 . S
C631 O611 1.255 . S
C631 O612 1.249 . S
C631 C625 1.516 1_655 S
H632 C618 0.930 . S
H633 C619 0.931 . S
H634 C620 0.931 . S
H635 C621 0.933 . S
H636 C627 0.920 1_565 S
H637 C628 0.931 1_565 S
H638 C629 0.931 . S
H639 C630 0.933 . S
Dy640 O643 2.307 . S
Dy640 O645 2.395 . S
Dy640 O646 2.379 . S
Dy640 O648 2.339 . S
Dy640 O650 2.298 . S
Dy640 O654 2.275 . S
Dy640 C662 2.738 . S
Dy641 O644 2.298 . S
Dy641 O647 2.275 . S
Dy641 O649 2.307 . S
Dy641 O651 2.395 . S
Dy641 O652 2.379 . S
Dy641 O655 2.339 . S
Dy641 C671 2.738 . S
C642 O654 1.254 . S
C642 O655 1.257 . S
O643 Dy640 2.307 . S
O643 C653 1.266 . S
O644 Dy641 2.298 . S
O644 C653 1.236 . S
O645 Dy640 2.395 . S
O645 C662 1.255 . S
O646 Dy640 2.379 . S
O646 C662 1.249 . S
O647 Dy641 2.275 . S
O647 C663 1.254 . S
O648 Dy640 2.339 . S
O648 C663 1.257 . S
O649 Dy641 2.307 . S
O649 C664 1.266 . S
O650 Dy640 2.298 . S
O650 C664 1.236 . S
O651 Dy641 2.395 . S
O651 C671 1.255 . S
O652 Dy641 2.379 . S
O652 C671 1.249 . S
C653 O643 1.266 . S
C653 O644 1.236 . S
O654 Dy640 2.275 . S
O654 C642 1.254 . S
O655 Dy641 2.339 . S
O655 C642 1.257 . S
C656 C659 1.344 . S
C656 C660 1.328 . S
C656 C662 1.516 . S
C657 C658 1.304 . S
C657 C661 1.323 . S
C658 C657 1.304 . S
C658 C659 1.371 . S
C658 H672 0.930 . S
C659 C656 1.344 . S
C659 C658 1.371 . S
C659 H673 0.931 . S
C660 C656 1.328 . S
C660 C661 1.433 . S
C660 H674 0.931 . S
C661 C657 1.323 . S
C661 C660 1.433 . S
C661 H675 0.933 . S
C662 Dy640 2.738 . S
C662 O645 1.255 . S
C662 O646 1.249 . S
C662 C656 1.516 . S
C663 O647 1.254 . S
C663 O648 1.257 . S
C664 O649 1.266 . S
C664 O650 1.236 . S
C665 C668 1.344 . S
C665 C669 1.328 . S
C665 C671 1.516 . S
C666 C667 1.304 . S
C666 C670 1.323 . S
C667 C666 1.304 . S
C667 C668 1.371 . S
C667 H676 0.930 . S
C668 C665 1.344 . S
C668 C667 1.371 . S
C668 H677 0.931 . S
C669 C665 1.328 . S
C669 C670 1.433 . S
C669 H678 0.931 . S
C670 C666 1.323 . S
C670 C669 1.433 . S
C670 H679 0.933 . S
C671 Dy641 2.738 . S
C671 O651 1.255 . S
C671 O652 1.249 . S
C671 C665 1.516 . S
H672 C658 0.930 . S
H673 C659 0.931 . S
H674 C660 0.931 . S
H675 C661 0.933 . S
H676 C667 0.930 . S
H677 C668 0.931 . S
H678 C669 0.931 . S
H679 C670 0.933 . S
Dy680 O683 2.307 . S
Dy680 O685 2.395 . S
Dy680 O686 2.379 . S
Dy680 O688 2.339 . S
Dy680 O690 2.298 . S
Dy680 O694 2.275 . S
Dy680 C702 2.738 . S
Dy681 O684 2.298 . S
Dy681 O687 2.275 . S
Dy681 O689 2.307 . S
Dy681 O691 2.395 . S
Dy681 O692 2.379 . S
Dy681 O695 2.339 . S
Dy681 C711 2.738 . S
C682 O694 1.254 . S
C682 O695 1.257 . S
O683 Dy680 2.307 . S
O683 C693 1.266 . S
O684 Dy681 2.298 . S
O684 C693 1.236 . S
O685 Dy680 2.395 . S
O685 C702 1.255 . S
O686 Dy680 2.379 . S
O686 C702 1.249 . S
O687 Dy681 2.275 . S
O687 C703 1.254 . S
O688 Dy680 2.339 . S
O688 C703 1.257 . S
O689 Dy681 2.307 . S
O689 C704 1.266 . S
O690 Dy680 2.298 . S
O690 C704 1.236 . S
O691 Dy681 2.395 . S
O691 C711 1.255 . S
O692 Dy681 2.379 . S
O692 C711 1.249 . S
C693 O683 1.266 . S
C693 O684 1.236 . S
O694 Dy680 2.275 . S
O694 C682 1.254 . S
O695 Dy681 2.339 . S
O695 C682 1.257 . S
C696 C699 1.344 . S
C696 C700 1.328 . S
C696 C702 1.516 . S
C697 C698 1.304 . S
C697 C701 1.323 . S
C698 C697 1.304 . S
C698 C699 1.371 . S
C698 H712 0.930 . S
C699 C696 1.344 . S
C699 C698 1.371 . S
C699 H713 0.931 . S
C700 C696 1.328 . S
C700 C701 1.433 . S
C700 H714 0.931 . S
C701 C697 1.323 . S
C701 C700 1.433 . S
C701 H715 0.933 . S
C702 Dy680 2.738 . S
C702 O685 1.255 . S
C702 O686 1.249 . S
C702 C696 1.516 . S
C703 O687 1.254 . S
C703 O688 1.257 . S
C704 O689 1.266 . S
C704 O690 1.236 . S
C705 C708 1.344 1_655 S
C705 C709 1.328 1_655 S
C705 C711 1.516 . S
C706 C707 1.304 . S
C706 C710 1.323 . S
C707 C706 1.304 . S
C707 C708 1.371 . S
C707 H716 0.930 . S
C708 C705 1.344 1_455 S
C708 C707 1.371 . S
C708 H717 0.931 1_455 S
C709 C705 1.328 1_455 S
C709 C710 1.433 . S
C709 H718 0.931 1_455 S
C710 C706 1.323 . S
C710 C709 1.433 . S
C710 H719 0.933 . S
C711 Dy681 2.738 . S
C711 O691 1.255 . S
C711 O692 1.249 . S
C711 C705 1.516 . S
H712 C698 0.930 . S
H713 C699 0.931 . S
H714 C700 0.931 . S
H715 C701 0.933 . S
H716 C707 0.930 . S
H717 C708 0.931 1_655 S
H718 C709 0.931 1_655 S
H719 C710 0.933 . S
Dy720 O723 2.307 . S
Dy720 O725 2.395 . S
Dy720 O726 2.379 . S
Dy720 O728 2.339 . S
Dy720 O730 2.298 . S
Dy720 O734 2.275 . S
Dy720 C742 2.738 . S
Dy721 O724 2.298 . S
Dy721 O727 2.275 . S
Dy721 O729 2.307 . S
Dy721 O731 2.395 . S
Dy721 O732 2.379 . S
Dy721 O735 2.339 . S
Dy721 C751 2.738 . S
C722 O734 1.254 . S
C722 O735 1.257 . S
O723 Dy720 2.307 . S
O723 C733 1.266 . S
O724 Dy721 2.298 . S
O724 C733 1.236 . S
O725 Dy720 2.395 . S
O725 C742 1.255 . S
O726 Dy720 2.379 . S
O726 C742 1.249 . S
O727 Dy721 2.275 . S
O727 C743 1.254 . S
O728 Dy720 2.339 . S
O728 C743 1.257 . S
O729 Dy721 2.307 . S
O729 C744 1.266 . S
O730 Dy720 2.298 . S
O730 C744 1.236 . S
O731 Dy721 2.395 . S
O731 C751 1.255 . S
O732 Dy721 2.379 . S
O732 C751 1.249 . S
C733 O723 1.266 . S
C733 O724 1.236 . S
O734 Dy720 2.275 . S
O734 C722 1.254 . S
O735 Dy721 2.339 . S
O735 C722 1.257 . S
C736 C739 1.344 . S
C736 C740 1.328 . S
C736 C742 1.516 . S
C737 C738 1.304 . S
C737 C741 1.323 . S
C738 C737 1.304 . S
C738 C739 1.371 . S
C738 H752 0.930 . S
C739 C736 1.344 . S
C739 C738 1.371 . S
C739 H753 0.931 . S
C740 C736 1.328 . S
C740 C741 1.433 . S
C740 H754 0.931 . S
C741 C737 1.323 . S
C741 C740 1.433 . S
C741 H755 0.933 . S
C742 Dy720 2.738 . S
C742 O725 1.255 . S
C742 O726 1.249 . S
C742 C736 1.516 . S
C743 O727 1.254 . S
C743 O728 1.257 . S
C744 O729 1.266 . S
C744 O730 1.236 . S
C745 C748 1.344 . S
C745 C749 1.328 . S
C745 C751 1.516 . S
C746 C747 1.304 . S
C746 C750 1.323 . S
C747 C746 1.304 . S
C747 C748 1.371 . S
C747 H756 0.930 . S
C748 C745 1.344 . S
C748 C747 1.371 . S
C748 H757 0.931 . S
C749 C745 1.328 . S
C749 C750 1.433 . S
C749 H758 0.931 . S
C750 C746 1.323 . S
C750 C749 1.433 . S
C750 H759 0.933 . S
C751 Dy721 2.738 . S
C751 O731 1.255 . S
C751 O732 1.249 . S
C751 C745 1.516 . S
H752 C738 0.930 . S
H753 C739 0.931 . S
H754 C740 0.931 . S
H755 C741 0.933 . S
H756 C747 0.930 . S
H757 C748 0.931 . S
H758 C749 0.931 . S
H759 C750 0.933 . S
Dy760 O763 2.307 . S
Dy760 O765 2.395 . S
Dy760 O766 2.379 . S
Dy760 O768 2.339 . S
Dy760 O770 2.298 . S
Dy760 O774 2.275 . S
Dy760 C782 2.738 . S
Dy761 O764 2.298 . S
Dy761 O767 2.275 . S
Dy761 O769 2.307 . S
Dy761 O771 2.395 . S
Dy761 O772 2.379 . S
Dy761 O775 2.339 . S
Dy761 C791 2.738 . S
C762 O774 1.254 . S
C762 O775 1.257 . S
O763 Dy760 2.307 . S
O763 C773 1.266 . S
O764 Dy761 2.298 . S
O764 C773 1.236 . S
O765 Dy760 2.395 . S
O765 C782 1.255 . S
O766 Dy760 2.379 . S
O766 C782 1.249 . S
O767 Dy761 2.275 . S
O767 C783 1.254 . S
O768 Dy760 2.339 . S
O768 C783 1.257 . S
O769 Dy761 2.307 . S
O769 C784 1.266 . S
O770 Dy760 2.298 . S
O770 C784 1.236 . S
O771 Dy761 2.395 . S
O771 C791 1.255 . S
O772 Dy761 2.379 . S
O772 C791 1.249 . S
C773 O763 1.266 . S
C773 O764 1.236 . S
O774 Dy760 2.275 . S
O774 C762 1.254 . S
O775 Dy761 2.339 . S
O775 C762 1.257 . S
C776 C779 1.344 . S
C776 C780 1.328 . S
C776 C782 1.516 . S
C777 C778 1.304 . S
C777 C781 1.323 . S
C778 C777 1.304 . S
C778 C779 1.371 . S
C778 H792 0.930 . S
C779 C776 1.344 . S
C779 C778 1.371 . S
C779 H793 0.931 . S
C780 C776 1.328 . S
C780 C781 1.433 . S
C780 H794 0.931 . S
C781 C777 1.323 . S
C781 C780 1.433 . S
C781 H795 0.933 . S
C782 Dy760 2.738 . S
C782 O765 1.255 . S
C782 O766 1.249 . S
C782 C776 1.516 . S
C783 O767 1.254 . S
C783 O768 1.257 . S
C784 O769 1.266 . S
C784 O770 1.236 . S
C785 C788 1.344 1_655 S
C785 C789 1.328 1_655 S
C785 C791 1.516 . S
C786 C787 1.304 . S
C786 C790 1.323 . S
C787 C786 1.304 . S
C787 C788 1.371 . S
C787 H796 0.930 . S
C788 C785 1.344 1_455 S
C788 C787 1.371 . S
C788 H797 0.931 1_455 S
C789 C785 1.328 1_455 S
C789 C790 1.433 . S
C789 H798 0.931 1_455 S
C790 C786 1.323 . S
C790 C789 1.433 . S
C790 H799 0.933 . S
C791 Dy761 2.738 . S
C791 O771 1.255 . S
C791 O772 1.249 . S
C791 C785 1.516 . S
H792 C778 0.930 . S
H793 C779 0.931 . S
H794 C780 0.931 . S
H795 C781 0.933 . S
H796 C787 0.930 . S
H797 C788 0.931 1_655 S
H798 C789 0.931 1_655 S
H799 C790 0.933 . S
Dy800 O803 2.307 . S
Dy800 O805 2.395 . S
Dy800 O806 2.379 . S
Dy800 O808 2.339 . S
Dy800 O810 2.298 . S
Dy800 O814 2.275 . S
Dy800 C822 2.738 . S
Dy801 O804 2.298 . S
Dy801 O807 2.275 . S
Dy801 O809 2.307 . S
Dy801 O811 2.395 . S
Dy801 O812 2.379 . S
Dy801 O815 2.339 . S
Dy801 C831 2.738 . S
C802 O814 1.254 . S
C802 O815 1.257 . S
O803 Dy800 2.307 . S
O803 C813 1.266 . S
O804 Dy801 2.298 . S
O804 C813 1.236 . S
O805 Dy800 2.395 . S
O805 C822 1.255 . S
O806 Dy800 2.379 . S
O806 C822 1.249 . S
O807 Dy801 2.275 . S
O807 C823 1.254 . S
O808 Dy800 2.339 . S
O808 C823 1.257 . S
O809 Dy801 2.307 . S
O809 C824 1.266 . S
O810 Dy800 2.298 . S
O810 C824 1.236 . S
O811 Dy801 2.395 . S
O811 C831 1.255 . S
O812 Dy801 2.379 . S
O812 C831 1.249 . S
C813 O803 1.266 . S
C813 O804 1.236 . S
O814 Dy800 2.275 . S
O814 C802 1.254 . S
O815 Dy801 2.339 . S
O815 C802 1.257 . S
C816 C819 1.344 . S
C816 C820 1.328 . S
C816 C822 1.516 . S
C817 C818 1.304 . S
C817 C821 1.323 . S
C818 C817 1.304 . S
C818 C819 1.371 . S
C818 H832 0.930 . S
C819 C816 1.344 . S
C819 C818 1.371 . S
C819 H833 0.931 . S
C820 C816 1.328 . S
C820 C821 1.433 . S
C820 H834 0.931 . S
C821 C817 1.323 . S
C821 C820 1.433 . S
C821 H835 0.933 . S
C822 Dy800 2.738 . S
C822 O805 1.255 . S
C822 O806 1.249 . S
C822 C816 1.516 . S
C823 O807 1.254 . S
C823 O808 1.257 . S
C824 O809 1.266 . S
C824 O810 1.236 . S
C825 C828 1.344 . S
C825 C829 1.328 . S
C825 C831 1.516 . S
C826 C827 1.304 . S
C826 C830 1.323 . S
C827 C826 1.304 . S
C827 C828 1.371 . S
C827 H836 0.930 . S
C828 C825 1.344 . S
C828 C827 1.371 . S
C828 H837 0.931 . S
C829 C825 1.328 . S
C829 C830 1.433 . S
C829 H838 0.931 . S
C830 C826 1.323 . S
C830 C829 1.433 . S
C830 H839 0.933 . S
C831 Dy801 2.738 . S
C831 O811 1.255 . S
C831 O812 1.249 . S
C831 C825 1.516 . S
H832 C818 0.930 . S
H833 C819 0.931 . S
H834 C820 0.931 . S
H835 C821 0.933 . S
H836 C827 0.930 . S
H837 C828 0.931 . S
H838 C829 0.931 . S
H839 C830 0.933 . S
Dy840 O843 2.307 . S
Dy840 O845 2.395 . S
Dy840 O846 2.379 . S
Dy840 O848 2.339 . S
Dy840 O850 2.298 . S
Dy840 O854 2.275 . S
Dy840 C862 2.738 . S
Dy841 O844 2.298 . S
Dy841 O847 2.275 . S
Dy841 O849 2.307 . S
Dy841 O851 2.395 . S
Dy841 O852 2.379 . S
Dy841 O855 2.339 . S
Dy841 C871 2.738 . S
C842 O854 1.254 . S
C842 O855 1.257 . S
O843 Dy840 2.307 . S
O843 C853 1.266 . S
O844 Dy841 2.298 . S
O844 C853 1.236 . S
O845 Dy840 2.395 . S
O845 C862 1.255 . S
O846 Dy840 2.379 . S
O846 C862 1.249 . S
O847 Dy841 2.275 . S
O847 C863 1.254 . S
O848 Dy840 2.339 . S
O848 C863 1.257 . S
O849 Dy841 2.307 . S
O849 C864 1.266 . S
O850 Dy840 2.298 . S
O850 C864 1.236 . S
O851 Dy841 2.395 . S
O851 C871 1.255 . S
O852 Dy841 2.379 . S
O852 C871 1.249 . S
C853 O843 1.266 . S
C853 O844 1.236 . S
O854 Dy840 2.275 . S
O854 C842 1.254 . S
O855 Dy841 2.339 . S
O855 C842 1.257 . S
C856 C859 1.344 1_455 S
C856 C860 1.328 1_455 S
C856 C862 1.516 . S
C857 C858 1.304 . S
C857 C861 1.323 . S
C858 C857 1.304 . S
C858 C859 1.371 . S
C858 H872 0.930 . S
C859 C856 1.344 1_655 S
C859 C858 1.371 . S
C859 H873 0.931 1_655 S
C860 C856 1.328 1_655 S
C860 C861 1.433 . S
C860 H874 0.931 1_655 S
C861 C857 1.323 . S
C861 C860 1.433 . S
C861 H875 0.933 . S
C862 Dy840 2.738 . S
C862 O845 1.255 . S
C862 O846 1.249 . S
C862 C856 1.516 . S
C863 O847 1.254 . S
C863 O848 1.257 . S
C864 O849 1.266 . S
C864 O850 1.236 . S
C865 C868 1.344 . S
C865 C869 1.328 . S
C865 C871 1.516 . S
C866 C867 1.304 . S
C866 C870 1.323 . S
C867 C866 1.304 . S
C867 C868 1.371 . S
C867 H876 0.930 . S
C868 C865 1.344 . S
C868 C867 1.371 . S
C868 H877 0.931 . S
C869 C865 1.328 . S
C869 C870 1.433 . S
C869 H878 0.931 . S
C870 C866 1.323 . S
C870 C869 1.433 . S
C870 H879 0.933 . S
C871 Dy841 2.738 . S
C871 O851 1.255 . S
C871 O852 1.249 . S
C871 C865 1.516 . S
H872 C858 0.930 . S
H873 C859 0.931 1_455 S
H874 C860 0.931 1_455 S
H875 C861 0.933 . S
H876 C867 0.930 . S
H877 C868 0.931 . S
H878 C869 0.931 . S
H879 C870 0.933 . S
Dy880 O883 2.307 . S
Dy880 O885 2.395 . S
Dy880 O886 2.379 . S
Dy880 O888 2.339 . S
Dy880 O890 2.298 . S
Dy880 O894 2.275 . S
Dy880 C902 2.738 . S
Dy881 O884 2.298 . S
Dy881 O887 2.275 . S
Dy881 O889 2.307 . S
Dy881 O891 2.395 . S
Dy881 O892 2.379 . S
Dy881 O895 2.339 . S
Dy881 C911 2.738 . S
C882 O894 1.254 . S
C882 O895 1.257 . S
O883 Dy880 2.307 . S
O883 C893 1.266 . S
O884 Dy881 2.298 . S
O884 C893 1.236 . S
O885 Dy880 2.395 . S
O885 C902 1.255 . S
O886 Dy880 2.379 . S
O886 C902 1.249 . S
O887 Dy881 2.275 . S
O887 C903 1.254 . S
O888 Dy880 2.339 . S
O888 C903 1.257 . S
O889 Dy881 2.307 . S
O889 C904 1.266 . S
O890 Dy880 2.298 . S
O890 C904 1.236 . S
O891 Dy881 2.395 . S
O891 C911 1.255 . S
O892 Dy881 2.379 . S
O892 C911 1.249 . S
C893 O883 1.266 . S
C893 O884 1.236 . S
O894 Dy880 2.275 . S
O894 C882 1.254 . S
O895 Dy881 2.339 . S
O895 C882 1.257 . S
C896 C899 1.344 . S
C896 C900 1.328 . S
C896 C902 1.516 . S
C897 C898 1.304 . S
C897 C901 1.323 . S
C898 C897 1.304 . S
C898 C899 1.371 . S
C898 H912 0.930 . S
C899 C896 1.344 . S
C899 C898 1.371 . S
C899 H913 0.931 . S
C900 C896 1.328 . S
C900 C901 1.433 . S
C900 H914 0.931 . S
C901 C897 1.323 . S
C901 C900 1.433 . S
C901 H915 0.933 . S
C902 Dy880 2.738 . S
C902 O885 1.255 . S
C902 O886 1.249 . S
C902 C896 1.516 . S
C903 O887 1.254 . S
C903 O888 1.257 . S
C904 O889 1.266 . S
C904 O890 1.236 . S
C905 C908 1.344 . S
C905 C909 1.328 . S
C905 C911 1.516 . S
C906 C907 1.304 . S
C906 C910 1.323 . S
C907 C906 1.304 . S
C907 C908 1.371 . S
C907 H916 0.930 . S
C908 C905 1.344 . S
C908 C907 1.371 . S
C908 H917 0.931 . S
C909 C905 1.328 . S
C909 C910 1.433 . S
C909 H918 0.931 . S
C910 C906 1.323 . S
C910 C909 1.433 . S
C910 H919 0.933 . S
C911 Dy881 2.738 . S
C911 O891 1.255 . S
C911 O892 1.249 . S
C911 C905 1.516 . S
H912 C898 0.930 . S
H913 C899 0.931 . S
H914 C900 0.931 . S
H915 C901 0.933 . S
H916 C907 0.930 . S
H917 C908 0.931 . S
H918 C909 0.931 . S
H919 C910 0.933 . S
Dy920 O923 2.307 . S
Dy920 O925 2.395 . S
Dy920 O926 2.379 . S
Dy920 O928 2.339 . S
Dy920 O930 2.298 . S
Dy920 O934 2.275 . S
Dy920 C942 2.738 . S
Dy921 O924 2.298 . S
Dy921 O927 2.275 . S
Dy921 O929 2.307 . S
Dy921 O931 2.395 . S
Dy921 O932 2.379 . S
Dy921 O935 2.339 . S
Dy921 C951 2.738 . S
C922 O934 1.254 . S
C922 O935 1.257 . S
O923 Dy920 2.307 . S
O923 C933 1.266 . S
O924 Dy921 2.298 . S
O924 C933 1.236 . S
O925 Dy920 2.395 . S
O925 C942 1.255 . S
O926 Dy920 2.379 . S
O926 C942 1.249 . S
O927 Dy921 2.275 . S
O927 C943 1.254 . S
O928 Dy920 2.339 . S
O928 C943 1.257 . S
O929 Dy921 2.307 . S
O929 C944 1.266 . S
O930 Dy920 2.298 . S
O930 C944 1.236 . S
O931 Dy921 2.395 . S
O931 C951 1.255 . S
O932 Dy921 2.379 . S
O932 C951 1.249 . S
C933 O923 1.266 . S
C933 O924 1.236 . S
O934 Dy920 2.275 . S
O934 C922 1.254 . S
O935 Dy921 2.339 . S
O935 C922 1.257 . S
C936 C939 1.344 1_455 S
C936 C940 1.328 1_455 S
C936 C942 1.516 . S
C937 C938 1.304 . S
C937 C941 1.323 . S
C938 C937 1.304 . S
C938 C939 1.371 . S
C938 H952 0.930 . S
C939 C936 1.344 1_655 S
C939 C938 1.371 . S
C939 H953 0.931 1_655 S
C940 C936 1.328 1_655 S
C940 C941 1.433 . S
C940 H954 0.931 1_655 S
C941 C937 1.323 . S
C941 C940 1.433 . S
C941 H955 0.933 . S
C942 Dy920 2.738 . S
C942 O925 1.255 . S
C942 O926 1.249 . S
C942 C936 1.516 . S
C943 O927 1.254 . S
C943 O928 1.257 . S
C944 O929 1.266 . S
C944 O930 1.236 . S
C945 C948 1.344 . S
C945 C949 1.328 . S
C945 C951 1.516 . S
C946 C947 1.304 . S
C946 C950 1.323 . S
C947 C946 1.304 . S
C947 C948 1.371 . S
C947 H956 0.930 . S
C948 C945 1.344 . S
C948 C947 1.371 . S
C948 H957 0.931 . S
C949 C945 1.328 . S
C949 C950 1.433 . S
C949 H958 0.931 . S
C950 C946 1.323 . S
C950 C949 1.433 . S
C950 H959 0.933 . S
C951 Dy921 2.738 . S
C951 O931 1.255 . S
C951 O932 1.249 . S
C951 C945 1.516 . S
H952 C938 0.930 . S
H953 C939 0.931 1_455 S
H954 C940 0.931 1_455 S
H955 C941 0.933 . S
H956 C947 0.930 . S
H957 C948 0.931 . S
H958 C949 0.931 . S
H959 C950 0.933 . S
Dy960 O963 2.307 . S
Dy960 O965 2.395 . S
Dy960 O966 2.379 . S
Dy960 O968 2.339 . S
Dy960 O970 2.298 1_565 S
Dy960 O974 2.275 . S
Dy960 C982 2.738 . S
Dy961 O964 2.298 1_545 S
Dy961 O967 2.284 . S
Dy961 O969 2.307 . S
Dy961 O971 2.395 . S
Dy961 O972 2.379 . S
Dy961 O975 2.339 . S
Dy961 C991 2.738 . S
C962 O974 1.254 . S
C962 O975 1.257 1_565 S
O963 Dy960 2.307 . S
O963 C973 1.266 . S
O964 Dy961 2.298 1_565 S
O964 C973 1.236 . S
O965 Dy960 2.395 . S
O965 C982 1.255 . S
O966 Dy960 2.379 . S
O966 C982 1.249 . S
O967 Dy961 2.284 . S
O967 C983 1.245 1_545 S
O968 Dy960 2.339 . S
O968 C983 1.257 . S
O969 Dy961 2.307 . S
O969 C984 1.266 . S
O970 Dy960 2.298 1_545 S
O970 C984 1.236 . S
O971 Dy961 2.395 . S
O971 C991 1.255 . S
O972 Dy961 2.379 . S
O972 C991 1.249 . S
C973 O963 1.266 . S
C973 O964 1.236 . S
O974 Dy960 2.275 . S
O974 C962 1.254 . S
O975 Dy961 2.339 . S
O975 C962 1.257 1_545 S
C976 C979 1.344 . S
C976 C980 1.328 . S
C976 C982 1.516 . S
C977 C978 1.313 . S
C977 C981 1.323 . S
C978 C977 1.313 . S
C978 C979 1.373 . S
C978 H992 0.920 1_565 S
C979 C976 1.344 . S
C979 C978 1.373 . S
C979 H993 0.931 1_565 S
C980 C976 1.328 . S
C980 C981 1.433 . S
C980 H994 0.931 . S
C981 C977 1.323 . S
C981 C980 1.433 . S
C981 H995 0.933 . S
C982 Dy960 2.738 . S
C982 O965 1.255 . S
C982 O966 1.249 . S
C982 C976 1.516 . S
C983 O967 1.245 1_565 S
C983 O968 1.257 . S
C984 O969 1.266 . S
C984 O970 1.236 . S
C985 C988 1.344 1_545 S
C985 C989 1.328 . S
C985 C991 1.516 . S
C986 C987 1.304 . S
C986 C990 1.323 1_565 S
C987 C986 1.304 . S
C987 C988 1.371 . S
C987 H996 0.930 . S
C988 C985 1.344 1_565 S
C988 C987 1.371 . S
C988 H997 0.931 . S
C989 C985 1.328 . S
C989 C990 1.433 . S
C989 H998 0.931 . S
C990 C986 1.323 1_545 S
C990 C989 1.433 . S
C990 H999 0.933 . S
C991 Dy961 2.738 . S
C991 O971 1.255 . S
C991 O972 1.249 . S
C991 C985 1.516 . S
H992 C978 0.920 1_545 S
H993 C979 0.931 1_545 S
H994 C980 0.931 . S
H995 C981 0.933 . S
H996 C987 0.930 . S
H997 C988 0.931 . S
H998 C989 0.931 . S
H999 C990 0.933 . S
Dy1000 O1003 2.307 . S
Dy1000 O1005 2.395 . S
Dy1000 O1006 2.379 . S
Dy1000 O1008 2.339 . S
Dy1000 O1010 2.298 . S
Dy1000 O1014 2.275 . S
Dy1000 C1022 2.738 . S
Dy1001 O1004 2.298 . S
Dy1001 O1007 2.275 . S
Dy1001 O1009 2.307 . S
Dy1001 O1011 2.395 . S
Dy1001 O1012 2.379 . S
Dy1001 O1015 2.339 . S
Dy1001 C1031 2.738 . S
C1002 O1014 1.254 . S
C1002 O1015 1.257 . S
O1003 Dy1000 2.307 . S
O1003 C1013 1.266 . S
O1004 Dy1001 2.298 . S
O1004 C1013 1.236 . S
O1005 Dy1000 2.395 . S
O1005 C1022 1.255 . S
O1006 Dy1000 2.379 . S
O1006 C1022 1.249 . S
O1007 Dy1001 2.275 . S
O1007 C1023 1.254 . S
O1008 Dy1000 2.339 . S
O1008 C1023 1.257 . S
O1009 Dy1001 2.307 . S
O1009 C1024 1.266 . S
O1010 Dy1000 2.298 . S
O1010 C1024 1.236 . S
O1011 Dy1001 2.395 . S
O1011 C1031 1.255 . S
O1012 Dy1001 2.379 . S
O1012 C1031 1.249 . S
C1013 O1003 1.266 . S
C1013 O1004 1.236 . S
O1014 Dy1000 2.275 . S
O1014 C1002 1.254 . S
O1015 Dy1001 2.339 . S
O1015 C1002 1.257 . S
C1016 C1019 1.344 . S
C1016 C1020 1.328 . S
C1016 C1022 1.516 . S
C1017 C1018 1.304 . S
C1017 C1021 1.323 . S
C1018 C1017 1.304 . S
C1018 C1019 1.371 . S
C1018 H1032 0.930 . S
C1019 C1016 1.344 . S
C1019 C1018 1.371 . S
C1019 H1033 0.931 . S
C1020 C1016 1.328 . S
C1020 C1021 1.433 . S
C1020 H1034 0.931 . S
C1021 C1017 1.323 . S
C1021 C1020 1.433 . S
C1021 H1035 0.933 . S
C1022 Dy1000 2.738 . S
C1022 O1005 1.255 . S
C1022 O1006 1.249 . S
C1022 C1016 1.516 . S
C1023 O1007 1.254 . S
C1023 O1008 1.257 . S
C1024 O1009 1.266 . S
C1024 O1010 1.236 . S
C1025 C1028 1.344 1_655 S
C1025 C1029 1.328 1_655 S
C1025 C1031 1.516 . S
C1026 C1027 1.304 . S
C1026 C1030 1.323 . S
C1027 C1026 1.304 . S
C1027 C1028 1.371 . S
C1027 H1036 0.930 . S
C1028 C1025 1.344 1_455 S
C1028 C1027 1.371 . S
C1028 H1037 0.931 1_455 S
C1029 C1025 1.328 1_455 S
C1029 C1030 1.433 . S
C1029 H1038 0.931 1_455 S
C1030 C1026 1.323 . S
C1030 C1029 1.433 . S
C1030 H1039 0.933 . S
C1031 Dy1001 2.738 . S
C1031 O1011 1.255 . S
C1031 O1012 1.249 . S
C1031 C1025 1.516 . S
H1032 C1018 0.930 . S
H1033 C1019 0.931 . S
H1034 C1020 0.931 . S
H1035 C1021 0.933 . S
H1036 C1027 0.930 . S
H1037 C1028 0.931 1_655 S
H1038 C1029 0.931 1_655 S
H1039 C1030 0.933 . S
Dy1040 O1043 2.307 . S
Dy1040 O1045 2.395 . S
Dy1040 O1046 2.379 . S
Dy1040 O1048 2.339 . S
Dy1040 O1050 2.298 . S
Dy1040 O1054 2.275 . S
Dy1040 C1062 2.738 . S
Dy1041 O1044 2.298 . S
Dy1041 O1047 2.275 . S
Dy1041 O1049 2.307 . S
Dy1041 O1051 2.395 . S
Dy1041 O1052 2.379 . S
Dy1041 O1055 2.339 . S
Dy1041 C1071 2.738 . S
C1042 O1054 1.254 . S
C1042 O1055 1.257 . S
O1043 Dy1040 2.307 . S
O1043 C1053 1.266 . S
O1044 Dy1041 2.298 . S
O1044 C1053 1.236 . S
O1045 Dy1040 2.395 . S
O1045 C1062 1.255 . S
O1046 Dy1040 2.379 . S
O1046 C1062 1.249 . S
O1047 Dy1041 2.275 . S
O1047 C1063 1.254 . S
O1048 Dy1040 2.339 . S
O1048 C1063 1.257 . S
O1049 Dy1041 2.307 . S
O1049 C1064 1.266 . S
O1050 Dy1040 2.298 . S
O1050 C1064 1.236 . S
O1051 Dy1041 2.395 . S
O1051 C1071 1.255 . S
O1052 Dy1041 2.379 . S
O1052 C1071 1.249 . S
C1053 O1043 1.266 . S
C1053 O1044 1.236 . S
O1054 Dy1040 2.275 . S
O1054 C1042 1.254 . S
O1055 Dy1041 2.339 . S
O1055 C1042 1.257 . S
C1056 C1059 1.344 . S
C1056 C1060 1.328 . S
C1056 C1062 1.516 . S
C1057 C1058 1.304 . S
C1057 C1061 1.323 . S
C1058 C1057 1.304 . S
C1058 C1059 1.371 . S
C1058 H1072 0.930 . S
C1059 C1056 1.344 . S
C1059 C1058 1.371 . S
C1059 H1073 0.931 . S
C1060 C1056 1.328 . S
C1060 C1061 1.433 . S
C1060 H1074 0.931 . S
C1061 C1057 1.323 . S
C1061 C1060 1.433 . S
C1061 H1075 0.933 . S
C1062 Dy1040 2.738 . S
C1062 O1045 1.255 . S
C1062 O1046 1.249 . S
C1062 C1056 1.516 . S
C1063 O1047 1.254 . S
C1063 O1048 1.257 . S
C1064 O1049 1.266 . S
C1064 O1050 1.236 . S
C1065 C1068 1.344 . S
C1065 C1069 1.328 . S
C1065 C1071 1.516 . S
C1066 C1067 1.304 . S
C1066 C1070 1.323 . S
C1067 C1066 1.304 . S
C1067 C1068 1.371 . S
C1067 H1076 0.930 . S
C1068 C1065 1.344 . S
C1068 C1067 1.371 . S
C1068 H1077 0.931 . S
C1069 C1065 1.328 . S
C1069 C1070 1.433 . S
C1069 H1078 0.931 . S
C1070 C1066 1.323 . S
C1070 C1069 1.433 . S
C1070 H1079 0.933 . S
C1071 Dy1041 2.738 . S
C1071 O1051 1.255 . S
C1071 O1052 1.249 . S
C1071 C1065 1.516 . S
H1072 C1058 0.930 . S
H1073 C1059 0.931 . S
H1074 C1060 0.931 . S
H1075 C1061 0.933 . S
H1076 C1067 0.930 . S
H1077 C1068 0.931 . S
H1078 C1069 0.931 . S
H1079 C1070 0.933 . S
Dy1080 O1083 2.307 . S
Dy1080 O1085 2.395 . S
Dy1080 O1086 2.379 . S
Dy1080 O1088 2.339 . S
Dy1080 O1090 2.298 1_565 S
Dy1080 O1094 2.275 . S
Dy1080 C1102 2.738 . S
Dy1081 O1084 2.298 1_545 S
Dy1081 O1087 2.284 . S
Dy1081 O1089 2.307 . S
Dy1081 O1091 2.395 . S
Dy1081 O1092 2.379 . S
Dy1081 O1095 2.339 . S
Dy1081 C1111 2.738 . S
C1082 O1094 1.254 . S
C1082 O1095 1.257 1_565 S
O1083 Dy1080 2.307 . S
O1083 C1093 1.266 . S
O1084 Dy1081 2.298 1_565 S
O1084 C1093 1.236 . S
O1085 Dy1080 2.395 . S
O1085 C1102 1.255 . S
O1086 Dy1080 2.379 . S
O1086 C1102 1.249 . S
O1087 Dy1081 2.284 . S
O1087 C1103 1.245 1_545 S
O1088 Dy1080 2.339 . S
O1088 C1103 1.257 . S
O1089 Dy1081 2.307 . S
O1089 C1104 1.266 . S
O1090 Dy1080 2.298 1_545 S
O1090 C1104 1.236 . S
O1091 Dy1081 2.395 . S
O1091 C1111 1.255 . S
O1092 Dy1081 2.379 . S
O1092 C1111 1.249 . S
C1093 O1083 1.266 . S
C1093 O1084 1.236 . S
O1094 Dy1080 2.275 . S
O1094 C1082 1.254 . S
O1095 Dy1081 2.339 . S
O1095 C1082 1.257 1_545 S
C1096 C1099 1.344 . S
C1096 C1100 1.328 . S
C1096 C1102 1.516 . S
C1097 C1098 1.313 . S
C1097 C1101 1.323 . S
C1098 C1097 1.313 . S
C1098 C1099 1.373 . S
C1098 H1112 0.920 1_565 S
C1099 C1096 1.344 . S
C1099 C1098 1.373 . S
C1099 H1113 0.931 1_565 S
C1100 C1096 1.328 . S
C1100 C1101 1.433 . S
C1100 H1114 0.931 . S
C1101 C1097 1.323 . S
C1101 C1100 1.433 . S
C1101 H1115 0.933 . S
C1102 Dy1080 2.738 . S
C1102 O1085 1.255 . S
C1102 O1086 1.249 . S
C1102 C1096 1.516 . S
C1103 O1087 1.245 1_565 S
C1103 O1088 1.257 . S
C1104 O1089 1.266 . S
C1104 O1090 1.236 . S
C1105 C1108 1.344 1_645 S
C1105 C1109 1.328 1_655 S
C1105 C1111 1.516 . S
C1106 C1107 1.304 . S
C1106 C1110 1.323 1_565 S
C1107 C1106 1.304 . S
C1107 C1108 1.371 . S
C1107 H1116 0.930 . S
C1108 C1105 1.344 1_465 S
C1108 C1107 1.371 . S
C1108 H1117 0.931 1_455 S
C1109 C1105 1.328 1_455 S
C1109 C1110 1.433 . S
C1109 H1118 0.931 1_455 S
C1110 C1106 1.323 1_545 S
C1110 C1109 1.433 . S
C1110 H1119 0.933 . S
C1111 Dy1081 2.738 . S
C1111 O1091 1.255 . S
C1111 O1092 1.249 . S
C1111 C1105 1.516 . S
H1112 C1098 0.920 1_545 S
H1113 C1099 0.931 1_545 S
H1114 C1100 0.931 . S
H1115 C1101 0.933 . S
H1116 C1107 0.930 . S
H1117 C1108 0.931 1_655 S
H1118 C1109 0.931 1_655 S
H1119 C1110 0.933 . S
Dy1120 O1123 2.307 . S
Dy1120 O1125 2.395 . S
Dy1120 O1126 2.379 . S
Dy1120 O1128 2.339 . S
Dy1120 O1130 2.298 1_565 S
Dy1120 O1134 2.284 . S
Dy1120 C1142 2.738 . S
Dy1121 O1124 2.298 1_545 S
Dy1121 O1127 2.275 . S
Dy1121 O1129 2.307 . S
Dy1121 O1131 2.395 . S
Dy1121 O1132 2.379 . S
Dy1121 O1135 2.339 . S
Dy1121 C1151 2.738 . S
C1122 O1134 1.245 1_545 S
C1122 O1135 1.257 . S
O1123 Dy1120 2.307 . S
O1123 C1133 1.266 . S
O1124 Dy1121 2.298 1_565 S
O1124 C1133 1.236 . S
O1125 Dy1120 2.395 . S
O1125 C1142 1.255 . S
O1126 Dy1120 2.379 . S
O1126 C1142 1.249 . S
O1127 Dy1121 2.275 . S
O1127 C1143 1.254 . S
O1128 Dy1120 2.339 . S
O1128 C1143 1.257 1_565 S
O1129 Dy1121 2.307 . S
O1129 C1144 1.266 . S
O1130 Dy1120 2.298 1_545 S
O1130 C1144 1.236 . S
O1131 Dy1121 2.395 . S
O1131 C1151 1.255 . S
O1132 Dy1121 2.379 . S
O1132 C1151 1.249 . S
C1133 O1123 1.266 . S
C1133 O1124 1.236 . S
O1134 Dy1120 2.284 . S
O1134 C1122 1.245 1_565 S
O1135 Dy1121 2.339 . S
O1135 C1122 1.257 . S
C1136 C1139 1.344 1_565 S
C1136 C1140 1.328 . S
C1136 C1142 1.516 . S
C1137 C1138 1.304 . S
C1137 C1141 1.323 1_545 S
C1138 C1137 1.304 . S
C1138 C1139 1.371 . S
C1138 H1152 0.930 . S
C1139 C1136 1.344 1_545 S
C1139 C1138 1.371 . S
C1139 H1153 0.931 . S
C1140 C1136 1.328 . S
C1140 C1141 1.433 . S
C1140 H1154 0.931 . S
C1141 C1137 1.323 1_565 S
C1141 C1140 1.433 . S
C1141 H1155 0.933 . S
C1142 Dy1120 2.738 . S
C1142 O1125 1.255 . S
C1142 O1126 1.249 . S
C1142 C1136 1.516 . S
C1143 O1127 1.254 . S
C1143 O1128 1.257 1_545 S
C1144 O1129 1.266 . S
C1144 O1130 1.236 . S
C1145 C1148 1.344 . S
C1145 C1149 1.328 . S
C1145 C1151 1.516 . S
C1146 C1147 1.313 . S
C1146 C1150 1.323 . S
C1147 C1146 1.313 . S
C1147 C1148 1.373 . S
C1147 H1156 0.920 1_545 S
C1148 C1145 1.344 . S
C1148 C1147 1.373 . S
C1148 H1157 0.931 1_545 S
C1149 C1145 1.328 . S
C1149 C1150 1.433 . S
C1149 H1158 0.931 . S
C1150 C1146 1.323 . S
C1150 C1149 1.433 . S
C1150 H1159 0.933 . S
C1151 Dy1121 2.738 . S
C1151 O1131 1.255 . S
C1151 O1132 1.249 . S
C1151 C1145 1.516 . S
H1152 C1138 0.930 . S
H1153 C1139 0.931 . S
H1154 C1140 0.931 . S
H1155 C1141 0.933 . S
H1156 C1147 0.920 1_565 S
H1157 C1148 0.931 1_565 S
H1158 C1149 0.931 . S
H1159 C1150 0.933 . S
Dy1160 O1163 2.307 . S
Dy1160 O1165 2.395 . S
Dy1160 O1166 2.379 . S
Dy1160 O1168 2.339 . S
Dy1160 O1170 2.298 . S
Dy1160 O1174 2.275 . S
Dy1160 C1182 2.738 . S
Dy1161 O1164 2.298 . S
Dy1161 O1167 2.275 . S
Dy1161 O1169 2.307 . S
Dy1161 O1171 2.395 . S
Dy1161 O1172 2.379 . S
Dy1161 O1175 2.339 . S
Dy1161 C1191 2.738 . S
C1162 O1174 1.254 . S
C1162 O1175 1.257 . S
O1163 Dy1160 2.307 . S
O1163 C1173 1.266 . S
O1164 Dy1161 2.298 . S
O1164 C1173 1.236 . S
O1165 Dy1160 2.395 . S
O1165 C1182 1.255 . S
O1166 Dy1160 2.379 . S
O1166 C1182 1.249 . S
O1167 Dy1161 2.275 . S
O1167 C1183 1.254 . S
O1168 Dy1160 2.339 . S
O1168 C1183 1.257 . S
O1169 Dy1161 2.307 . S
O1169 C1184 1.266 . S
O1170 Dy1160 2.298 . S
O1170 C1184 1.236 . S
O1171 Dy1161 2.395 . S
O1171 C1191 1.255 . S
O1172 Dy1161 2.379 . S
O1172 C1191 1.249 . S
C1173 O1163 1.266 . S
C1173 O1164 1.236 . S
O1174 Dy1160 2.275 . S
O1174 C1162 1.254 . S
O1175 Dy1161 2.339 . S
O1175 C1162 1.257 . S
C1176 C1179 1.344 1_455 S
C1176 C1180 1.328 1_455 S
C1176 C1182 1.516 . S
C1177 C1178 1.304 . S
C1177 C1181 1.323 . S
C1178 C1177 1.304 . S
C1178 C1179 1.371 . S
C1178 H1192 0.930 . S
C1179 C1176 1.344 1_655 S
C1179 C1178 1.371 . S
C1179 H1193 0.931 1_655 S
C1180 C1176 1.328 1_655 S
C1180 C1181 1.433 . S
C1180 H1194 0.931 1_655 S
C1181 C1177 1.323 . S
C1181 C1180 1.433 . S
C1181 H1195 0.933 . S
C1182 Dy1160 2.738 . S
C1182 O1165 1.255 . S
C1182 O1166 1.249 . S
C1182 C1176 1.516 . S
C1183 O1167 1.254 . S
C1183 O1168 1.257 . S
C1184 O1169 1.266 . S
C1184 O1170 1.236 . S
C1185 C1188 1.344 . S
C1185 C1189 1.328 . S
C1185 C1191 1.516 . S
C1186 C1187 1.304 . S
C1186 C1190 1.323 . S
C1187 C1186 1.304 . S
C1187 C1188 1.371 . S
C1187 H1196 0.930 . S
C1188 C1185 1.344 . S
C1188 C1187 1.371 . S
C1188 H1197 0.931 . S
C1189 C1185 1.328 . S
C1189 C1190 1.433 . S
C1189 H1198 0.931 . S
C1190 C1186 1.323 . S
C1190 C1189 1.433 . S
C1190 H1199 0.933 . S
C1191 Dy1161 2.738 . S
C1191 O1171 1.255 . S
C1191 O1172 1.249 . S
C1191 C1185 1.516 . S
H1192 C1178 0.930 . S
H1193 C1179 0.931 1_455 S
H1194 C1180 0.931 1_455 S
H1195 C1181 0.933 . S
H1196 C1187 0.930 . S
H1197 C1188 0.931 . S
H1198 C1189 0.931 . S
H1199 C1190 0.933 . S
Dy1200 O1203 2.307 . S
Dy1200 O1205 2.395 . S
Dy1200 O1206 2.379 . S
Dy1200 O1208 2.339 . S
Dy1200 O1210 2.298 . S
Dy1200 O1214 2.275 . S
Dy1200 C1222 2.738 . S
Dy1201 O1204 2.298 . S
Dy1201 O1207 2.275 . S
Dy1201 O1209 2.307 . S
Dy1201 O1211 2.395 . S
Dy1201 O1212 2.379 . S
Dy1201 O1215 2.339 . S
Dy1201 C1231 2.738 . S
C1202 O1214 1.254 . S
C1202 O1215 1.257 . S
O1203 Dy1200 2.307 . S
O1203 C1213 1.266 . S
O1204 Dy1201 2.298 . S
O1204 C1213 1.236 . S
O1205 Dy1200 2.395 . S
O1205 C1222 1.255 . S
O1206 Dy1200 2.379 . S
O1206 C1222 1.249 . S
O1207 Dy1201 2.275 . S
O1207 C1223 1.254 . S
O1208 Dy1200 2.339 . S
O1208 C1223 1.257 . S
O1209 Dy1201 2.307 . S
O1209 C1224 1.266 . S
O1210 Dy1200 2.298 . S
O1210 C1224 1.236 . S
O1211 Dy1201 2.395 . S
O1211 C1231 1.255 . S
O1212 Dy1201 2.379 . S
O1212 C1231 1.249 . S
C1213 O1203 1.266 . S
C1213 O1204 1.236 . S
O1214 Dy1200 2.275 . S
O1214 C1202 1.254 . S
O1215 Dy1201 2.339 . S
O1215 C1202 1.257 . S
C1216 C1219 1.344 . S
C1216 C1220 1.328 . S
C1216 C1222 1.516 . S
C1217 C1218 1.304 . S
C1217 C1221 1.323 . S
C1218 C1217 1.304 . S
C1218 C1219 1.371 . S
C1218 H1232 0.930 . S
C1219 C1216 1.344 . S
C1219 C1218 1.371 . S
C1219 H1233 0.931 . S
C1220 C1216 1.328 . S
C1220 C1221 1.433 . S
C1220 H1234 0.931 . S
C1221 C1217 1.323 . S
C1221 C1220 1.433 . S
C1221 H1235 0.933 . S
C1222 Dy1200 2.738 . S
C1222 O1205 1.255 . S
C1222 O1206 1.249 . S
C1222 C1216 1.516 . S
C1223 O1207 1.254 . S
C1223 O1208 1.257 . S
C1224 O1209 1.266 . S
C1224 O1210 1.236 . S
C1225 C1228 1.344 . S
C1225 C1229 1.328 . S
C1225 C1231 1.516 . S
C1226 C1227 1.304 . S
C1226 C1230 1.323 . S
C1227 C1226 1.304 . S
C1227 C1228 1.371 . S
C1227 H1236 0.930 . S
C1228 C1225 1.344 . S
C1228 C1227 1.371 . S
C1228 H1237 0.931 . S
C1229 C1225 1.328 . S
C1229 C1230 1.433 . S
C1229 H1238 0.931 . S
C1230 C1226 1.323 . S
C1230 C1229 1.433 . S
C1230 H1239 0.933 . S
C1231 Dy1201 2.738 . S
C1231 O1211 1.255 . S
C1231 O1212 1.249 . S
C1231 C1225 1.516 . S
H1232 C1218 0.930 . S
H1233 C1219 0.931 . S
H1234 C1220 0.931 . S
H1235 C1221 0.933 . S
H1236 C1227 0.930 . S
H1237 C1228 0.931 . S
H1238 C1229 0.931 . S
H1239 C1230 0.933 . S
Dy1240 O1243 2.307 . S
Dy1240 O1245 2.395 . S
Dy1240 O1246 2.379 . S
Dy1240 O1248 2.339 . S
Dy1240 O1250 2.298 1_565 S
Dy1240 O1254 2.284 . S
Dy1240 C1262 2.738 . S
Dy1241 O1244 2.298 1_545 S
Dy1241 O1247 2.275 . S
Dy1241 O1249 2.307 . S
Dy1241 O1251 2.395 . S
Dy1241 O1252 2.379 . S
Dy1241 O1255 2.339 . S
Dy1241 C1271 2.738 . S
C1242 O1254 1.245 1_545 S
C1242 O1255 1.257 . S
O1243 Dy1240 2.307 . S
O1243 C1253 1.266 . S
O1244 Dy1241 2.298 1_565 S
O1244 C1253 1.236 . S
O1245 Dy1240 2.395 . S
O1245 C1262 1.255 . S
O1246 Dy1240 2.379 . S
O1246 C1262 1.249 . S
O1247 Dy1241 2.275 . S
O1247 C1263 1.254 . S
O1248 Dy1240 2.339 . S
O1248 C1263 1.257 1_565 S
O1249 Dy1241 2.307 . S
O1249 C1264 1.266 . S
O1250 Dy1240 2.298 1_545 S
O1250 C1264 1.236 . S
O1251 Dy1241 2.395 . S
O1251 C1271 1.255 . S
O1252 Dy1241 2.379 . S
O1252 C1271 1.249 . S
C1253 O1243 1.266 . S
C1253 O1244 1.236 . S
O1254 Dy1240 2.284 . S
O1254 C1242 1.245 1_565 S
O1255 Dy1241 2.339 . S
O1255 C1242 1.257 . S
C1256 C1259 1.344 1_465 S
C1256 C1260 1.328 1_455 S
C1256 C1262 1.516 . S
C1257 C1258 1.304 . S
C1257 C1261 1.323 1_545 S
C1258 C1257 1.304 . S
C1258 C1259 1.371 . S
C1258 H1272 0.930 . S
C1259 C1256 1.344 1_645 S
C1259 C1258 1.371 . S
C1259 H1273 0.931 1_655 S
C1260 C1256 1.328 1_655 S
C1260 C1261 1.433 . S
C1260 H1274 0.931 1_655 S
C1261 C1257 1.323 1_565 S
C1261 C1260 1.433 . S
C1261 H1275 0.933 . S
C1262 Dy1240 2.738 . S
C1262 O1245 1.255 . S
C1262 O1246 1.249 . S
C1262 C1256 1.516 . S
C1263 O1247 1.254 . S
C1263 O1248 1.257 1_545 S
C1264 O1249 1.266 . S
C1264 O1250 1.236 . S
C1265 C1268 1.344 . S
C1265 C1269 1.328 . S
C1265 C1271 1.516 . S
C1266 C1267 1.313 . S
C1266 C1270 1.323 . S
C1267 C1266 1.313 . S
C1267 C1268 1.373 . S
C1267 H1276 0.920 1_545 S
C1268 C1265 1.344 . S
C1268 C1267 1.373 . S
C1268 H1277 0.931 1_545 S
C1269 C1265 1.328 . S
C1269 C1270 1.433 . S
C1269 H1278 0.931 . S
C1270 C1266 1.323 . S
C1270 C1269 1.433 . S
C1270 H1279 0.933 . S
C1271 Dy1241 2.738 . S
C1271 O1251 1.255 . S
C1271 O1252 1.249 . S
C1271 C1265 1.516 . S
H1272 C1258 0.930 . S
H1273 C1259 0.931 1_455 S
H1274 C1260 0.931 1_455 S
H1275 C1261 0.933 . S
H1276 C1267 0.920 1_565 S
H1277 C1268 0.931 1_565 S
H1278 C1269 0.931 . S
H1279 C1270 0.933 . S
C1280 C1281 1.387 . S
C1280 H1284 0.950 . S
C1280 C1289 1.390 . S
C1281 C1280 1.387 . S
C1281 C1283 1.387 . S
H1282 C1289 0.950 . S
C1283 C1281 1.387 . S
C1283 C1285 1.390 . S
C1283 H1287 0.950 . S
H1284 C1280 0.950 . S
C1285 C1283 1.390 . S
C1285 C1286 1.387 . S
C1285 H1288 0.950 . S
C1286 C1285 1.387 . S
C1286 C1289 1.387 . S
H1287 C1283 0.950 . S
H1288 C1285 0.950 . S
C1289 C1280 1.390 . S
C1289 H1282 0.950 . S
C1289 C1286 1.387 . S
C1290 C1291 1.387 . S
C1290 H1294 0.950 . S
C1290 C1299 1.390 . S
C1291 C1290 1.387 . S
C1291 C1293 1.387 . S
H1292 C1299 0.950 . S
C1293 C1291 1.387 . S
C1293 C1295 1.390 . S
C1293 H1297 0.950 . S
H1294 C1290 0.950 . S
C1295 C1293 1.390 . S
C1295 C1296 1.387 . S
C1295 H1298 0.950 . S
C1296 C1295 1.387 . S
C1296 C1299 1.387 . S
H1297 C1293 0.950 . S
H1298 C1295 0.950 . S
C1299 C1290 1.390 . S
C1299 H1292 0.950 . S
C1299 C1296 1.387 . S
C1300 C1301 1.387 . S
C1300 H1304 0.950 . S
C1300 C1309 1.390 . S
C1301 C1300 1.387 . S
C1301 C1303 1.387 . S
H1302 C1309 0.950 . S
C1303 C1301 1.387 . S
C1303 C1305 1.390 . S
C1303 H1307 0.950 . S
H1304 C1300 0.950 . S
C1305 C1303 1.390 . S
C1305 C1306 1.387 . S
C1305 H1308 0.950 . S
C1306 C1305 1.387 . S
C1306 C1309 1.387 . S
H1307 C1303 0.950 . S
H1308 C1305 0.950 . S
C1309 C1300 1.390 . S
C1309 H1302 0.950 . S
C1309 C1306 1.387 . S
C1310 C1311 1.387 . S
C1310 H1314 0.950 . S
C1310 C1319 1.390 . S
C1311 C1310 1.387 . S
C1311 C1313 1.387 . S
H1312 C1319 0.950 . S
C1313 C1311 1.387 . S
C1313 C1315 1.390 . S
C1313 H1317 0.950 . S
H1314 C1310 0.950 . S
C1315 C1313 1.390 . S
C1315 C1316 1.387 . S
C1315 H1318 0.950 . S
C1316 C1315 1.387 . S
C1316 C1319 1.387 . S
H1317 C1313 0.950 . S
H1318 C1315 0.950 . S
C1319 C1310 1.390 . S
C1319 H1312 0.950 . S
C1319 C1316 1.387 . S
C1320 C1321 1.387 . S
C1320 H1324 0.950 . S
C1320 C1329 1.390 . S
C1321 C1320 1.387 . S
C1321 C1323 1.387 . S
H1322 C1329 0.950 . S
C1323 C1321 1.387 . S
C1323 C1325 1.390 . S
C1323 H1327 0.950 . S
H1324 C1320 0.950 . S
C1325 C1323 1.390 . S
C1325 C1326 1.387 . S
C1325 H1328 0.950 . S
C1326 C1325 1.387 . S
C1326 C1329 1.387 . S
H1327 C1323 0.950 . S
H1328 C1325 0.950 . S
C1329 C1320 1.390 . S
C1329 H1322 0.950 . S
C1329 C1326 1.387 . S
C1330 C1331 1.387 . S
C1330 H1334 0.950 . S
C1330 C1339 1.390 . S
C1331 C1330 1.387 . S
C1331 C1333 1.387 . S
H1332 C1339 0.950 . S
C1333 C1331 1.387 . S
C1333 C1335 1.390 . S
C1333 H1337 0.950 . S
H1334 C1330 0.950 . S
C1335 C1333 1.390 . S
C1335 C1336 1.387 . S
C1335 H1338 0.950 . S
C1336 C1335 1.387 . S
C1336 C1339 1.387 . S
H1337 C1333 0.950 . S
H1338 C1335 0.950 . S
C1339 C1330 1.390 . S
C1339 H1332 0.950 . S
C1339 C1336 1.387 . S
C1340 C1341 1.387 . S
C1340 H1344 0.950 . S
C1340 C1349 1.390 . S
C1341 C1340 1.387 . S
C1341 C1343 1.387 . S
H1342 C1349 0.950 . S
C1343 C1341 1.387 . S
C1343 C1345 1.390 . S
C1343 H1347 0.950 . S
H1344 C1340 0.950 . S
C1345 C1343 1.390 . S
C1345 C1346 1.387 . S
C1345 H1348 0.950 . S
C1346 C1345 1.387 . S
C1346 C1349 1.387 . S
H1347 C1343 0.950 . S
H1348 C1345 0.950 . S
C1349 C1340 1.390 . S
C1349 H1342 0.950 . S
C1349 C1346 1.387 . S
C1350 C1351 1.387 . S
C1350 H1354 0.950 . S
C1350 C1359 1.390 . S
C1351 C1350 1.387 . S
C1351 C1353 1.387 . S
H1352 C1359 0.950 . S
C1353 C1351 1.387 . S
C1353 C1355 1.390 . S
C1353 H1357 0.950 . S
H1354 C1350 0.950 . S
C1355 C1353 1.390 . S
C1355 C1356 1.387 . S
C1355 H1358 0.950 . S
C1356 C1355 1.387 . S
C1356 C1359 1.387 . S
H1357 C1353 0.950 . S
H1358 C1355 0.950 . S
C1359 C1350 1.390 . S
C1359 H1352 0.950 . S
C1359 C1356 1.387 . S
C1360 C1361 1.387 . S
C1360 H1364 0.950 . S
C1360 C1369 1.390 . S
C1361 C1360 1.387 . S
C1361 C1363 1.387 . S
H1362 C1369 0.950 . S
C1363 C1361 1.387 . S
C1363 C1365 1.390 . S
C1363 H1367 0.950 . S
H1364 C1360 0.950 . S
C1365 C1363 1.390 . S
C1365 C1366 1.387 . S
C1365 H1368 0.950 . S
C1366 C1365 1.387 . S
C1366 C1369 1.387 . S
H1367 C1363 0.950 . S
H1368 C1365 0.950 . S
C1369 C1360 1.390 . S
C1369 H1362 0.950 . S
C1369 C1366 1.387 . S
C1370 C1371 1.387 . S
C1370 H1374 0.950 . S
C1370 C1379 1.390 . S
C1371 C1370 1.387 . S
C1371 C1373 1.387 . S
H1372 C1379 0.950 . S
C1373 C1371 1.387 . S
C1373 C1375 1.390 . S
C1373 H1377 0.950 . S
H1374 C1370 0.950 . S
C1375 C1373 1.390 . S
C1375 C1376 1.387 . S
C1375 H1378 0.950 . S
C1376 C1375 1.387 . S
C1376 C1379 1.387 . S
H1377 C1373 0.950 . S
H1378 C1375 0.950 . S
C1379 C1370 1.390 . S
C1379 H1372 0.950 . S
C1379 C1376 1.387 . S
C1380 C1381 1.387 . S
C1380 H1384 0.950 . S
C1380 C1389 1.390 . S
C1381 C1380 1.387 . S
C1381 C1383 1.387 . S
H1382 C1389 0.950 . S
C1383 C1381 1.387 . S
C1383 C1385 1.390 . S
C1383 H1387 0.950 . S
H1384 C1380 0.950 . S
C1385 C1383 1.390 . S
C1385 C1386 1.387 . S
C1385 H1388 0.950 . S
C1386 C1385 1.387 . S
C1386 C1389 1.387 . S
H1387 C1383 0.950 . S
H1388 C1385 0.950 . S
C1389 C1380 1.390 . S
C1389 H1382 0.950 . S
C1389 C1386 1.387 . S
C1390 C1391 1.387 . S
C1390 H1394 0.950 . S
C1390 C1399 1.390 . S
C1391 C1390 1.387 . S
C1391 C1393 1.387 . S
H1392 C1399 0.950 . S
C1393 C1391 1.387 . S
C1393 C1395 1.390 . S
C1393 H1397 0.950 . S
H1394 C1390 0.950 . S
C1395 C1393 1.390 . S
C1395 C1396 1.387 . S
C1395 H1398 0.950 . S
C1396 C1395 1.387 . S
C1396 C1399 1.387 . S
H1397 C1393 0.950 . S
H1398 C1395 0.950 . S
C1399 C1390 1.390 . S
C1399 H1392 0.950 . S
C1399 C1396 1.387 . S
C1400 C1401 1.387 . S
C1400 H1404 0.950 . S
C1400 C1409 1.390 . S
C1401 C1400 1.387 . S
C1401 C1403 1.387 . S
H1402 C1409 0.950 . S
C1403 C1401 1.387 . S
C1403 C1405 1.390 . S
C1403 H1407 0.950 . S
H1404 C1400 0.950 . S
C1405 C1403 1.390 . S
C1405 C1406 1.387 . S
C1405 H1408 0.950 . S
C1406 C1405 1.387 . S
C1406 C1409 1.387 . S
H1407 C1403 0.950 . S
H1408 C1405 0.950 . S
C1409 C1400 1.390 . S
C1409 H1402 0.950 . S
C1409 C1406 1.387 . S
C1410 C1411 1.387 . S
C1410 H1414 0.950 . S
C1410 C1419 1.390 . S
C1411 C1410 1.387 . S
C1411 C1413 1.387 . S
H1412 C1419 0.950 . S
C1413 C1411 1.387 . S
C1413 C1415 1.390 . S
C1413 H1417 0.950 . S
H1414 C1410 0.950 . S
C1415 C1413 1.390 . S
C1415 C1416 1.387 . S
C1415 H1418 0.950 . S
C1416 C1415 1.387 . S
C1416 C1419 1.387 . S
H1417 C1413 0.950 . S
H1418 C1415 0.950 . S
C1419 C1410 1.390 . S
C1419 H1412 0.950 . S
C1419 C1416 1.387 . S
C1420 C1421 1.387 . S
C1420 H1424 0.950 . S
C1420 C1429 1.390 . S
C1421 C1420 1.387 . S
C1421 C1423 1.387 . S
H1422 C1429 0.950 . S
C1423 C1421 1.387 . S
C1423 C1425 1.390 . S
C1423 H1427 0.950 . S
H1424 C1420 0.950 . S
C1425 C1423 1.390 . S
C1425 C1426 1.387 . S
C1425 H1428 0.950 . S
C1426 C1425 1.387 . S
C1426 C1429 1.387 . S
H1427 C1423 0.950 . S
H1428 C1425 0.950 . S
C1429 C1420 1.390 . S
C1429 H1422 0.950 . S
C1429 C1426 1.387 . S
C1430 C1431 1.387 . S
C1430 H1434 0.950 . S
C1430 C1439 1.390 . S
C1431 C1430 1.387 . S
C1431 C1433 1.387 . S
H1432 C1439 0.950 . S
C1433 C1431 1.387 . S
C1433 C1435 1.390 . S
C1433 H1437 0.950 . S
H1434 C1430 0.950 . S
C1435 C1433 1.390 . S
C1435 C1436 1.387 . S
C1435 H1438 0.950 . S
C1436 C1435 1.387 . S
C1436 C1439 1.387 . S
H1437 C1433 0.950 . S
H1438 C1435 0.950 . S
C1439 C1430 1.390 . S
C1439 H1432 0.950 . S
C1439 C1436 1.387 . S
C1440 C1441 1.387 . S
C1440 H1444 0.950 . S
C1440 C1449 1.390 . S
C1441 C1440 1.387 . S
C1441 C1443 1.387 . S
H1442 C1449 0.950 . S
C1443 C1441 1.387 . S
C1443 C1445 1.390 . S
C1443 H1447 0.950 . S
H1444 C1440 0.950 . S
C1445 C1443 1.390 . S
C1445 C1446 1.387 . S
C1445 H1448 0.950 . S
C1446 C1445 1.387 . S
C1446 C1449 1.387 . S
H1447 C1443 0.950 . S
H1448 C1445 0.950 . S
C1449 C1440 1.390 . S
C1449 H1442 0.950 . S
C1449 C1446 1.387 . S
C1450 C1451 1.387 . S
C1450 H1454 0.950 . S
C1450 C1459 1.390 . S
C1451 C1450 1.387 . S
C1451 C1453 1.387 . S
H1452 C1459 0.950 . S
C1453 C1451 1.387 . S
C1453 C1455 1.390 . S
C1453 H1457 0.950 . S
H1454 C1450 0.950 . S
C1455 C1453 1.390 . S
C1455 C1456 1.387 . S
C1455 H1458 0.950 . S
C1456 C1455 1.387 . S
C1456 C1459 1.387 . S
H1457 C1453 0.950 . S
H1458 C1455 0.950 . S
C1459 C1450 1.390 . S
C1459 H1452 0.950 . S
C1459 C1456 1.387 . S
C1460 C1461 1.387 . S
C1460 H1464 0.950 . S
C1460 C1469 1.390 . S
C1461 C1460 1.387 . S
C1461 C1463 1.387 . S
H1462 C1469 0.950 . S
C1463 C1461 1.387 . S
C1463 C1465 1.390 . S
C1463 H1467 0.950 . S
H1464 C1460 0.950 . S
C1465 C1463 1.390 . S
C1465 C1466 1.387 . S
C1465 H1468 0.950 . S
C1466 C1465 1.387 . S
C1466 C1469 1.387 . S
H1467 C1463 0.950 . S
H1468 C1465 0.950 . S
C1469 C1460 1.390 . S
C1469 H1462 0.950 . S
C1469 C1466 1.387 . S
C1470 C1471 1.387 . S
C1470 H1474 0.950 . S
C1470 C1479 1.390 . S
C1471 C1470 1.387 . S
C1471 C1473 1.387 . S
H1472 C1479 0.950 . S
C1473 C1471 1.387 . S
C1473 C1475 1.390 . S
C1473 H1477 0.950 . S
H1474 C1470 0.950 . S
C1475 C1473 1.390 . S
C1475 C1476 1.387 . S
C1475 H1478 0.950 . S
C1476 C1475 1.387 . S
C1476 C1479 1.387 . S
H1477 C1473 0.950 . S
H1478 C1475 0.950 . S
C1479 C1470 1.390 . S
C1479 H1472 0.950 . S
C1479 C1476 1.387 . S
C1480 C1481 1.387 1_545 S
C1480 H1484 0.950 . S
C1480 C1489 1.390 . S
C1481 C1480 1.387 1_565 S
C1481 C1483 1.387 . S
H1482 C1489 0.950 . S
C1483 C1481 1.387 . S
C1483 C1485 1.390 . S
C1483 H1487 0.950 . S
H1484 C1480 0.950 . S
C1485 C1483 1.390 . S
C1485 C1486 1.387 . S
C1485 H1488 0.950 . S
C1486 C1485 1.387 . S
C1486 C1489 1.387 1_565 S
H1487 C1483 0.950 . S
H1488 C1485 0.950 . S
C1489 C1480 1.390 . S
C1489 H1482 0.950 . S
C1489 C1486 1.387 1_545 S
C1490 C1491 1.387 . S
C1490 H1494 0.950 . S
C1490 C1499 1.390 . S
C1491 C1490 1.387 . S
C1491 C1493 1.387 . S
H1492 C1499 0.950 . S
C1493 C1491 1.387 . S
C1493 C1495 1.390 . S
C1493 H1497 0.950 . S
H1494 C1490 0.950 . S
C1495 C1493 1.390 . S
C1495 C1496 1.387 . S
C1495 H1498 0.950 . S
C1496 C1495 1.387 . S
C1496 C1499 1.387 . S
H1497 C1493 0.950 . S
H1498 C1495 0.950 . S
C1499 C1490 1.390 . S
C1499 H1492 0.950 . S
C1499 C1496 1.387 . S
C1500 C1501 1.387 1_565 S
C1500 H1504 0.950 . S
C1500 C1509 1.390 . S
C1501 C1500 1.387 1_545 S
C1501 C1503 1.387 . S
H1502 C1509 0.950 . S
C1503 C1501 1.387 . S
C1503 C1505 1.390 . S
C1503 H1507 0.950 . S
H1504 C1500 0.950 . S
C1505 C1503 1.390 . S
C1505 C1506 1.387 . S
C1505 H1508 0.950 . S
C1506 C1505 1.387 . S
C1506 C1509 1.387 1_545 S
H1507 C1503 0.950 . S
H1508 C1505 0.950 . S
C1509 C1500 1.390 . S
C1509 H1502 0.950 . S
C1509 C1506 1.387 1_565 S
C1510 C1511 1.387 . S
C1510 H1514 0.950 . S
C1510 C1519 1.390 . S
C1511 C1510 1.387 . S
C1511 C1513 1.387 . S
H1512 C1519 0.950 . S
C1513 C1511 1.387 . S
C1513 C1515 1.390 . S
C1513 H1517 0.950 . S
H1514 C1510 0.950 . S
C1515 C1513 1.390 . S
C1515 C1516 1.387 . S
C1515 H1518 0.950 . S
C1516 C1515 1.387 . S
C1516 C1519 1.387 . S
H1517 C1513 0.950 . S
H1518 C1515 0.950 . S
C1519 C1510 1.390 . S
C1519 H1512 0.950 . S
C1519 C1516 1.387 . S
C1520 C1521 1.387 . S
C1520 H1524 0.950 . S
C1520 C1529 1.390 . S
C1521 C1520 1.387 . S
C1521 C1523 1.387 . S
H1522 C1529 0.950 . S
C1523 C1521 1.387 . S
C1523 C1525 1.390 . S
C1523 H1527 0.950 . S
H1524 C1520 0.950 . S
C1525 C1523 1.390 . S
C1525 C1526 1.387 . S
C1525 H1528 0.950 . S
C1526 C1525 1.387 . S
C1526 C1529 1.387 . S
H1527 C1523 0.950 . S
H1528 C1525 0.950 . S
C1529 C1520 1.390 . S
C1529 H1522 0.950 . S
C1529 C1526 1.387 . S
C1530 C1531 1.387 . S
C1530 H1534 0.950 . S
C1530 C1539 1.390 . S
C1531 C1530 1.387 . S
C1531 C1533 1.387 . S
H1532 C1539 0.950 . S
C1533 C1531 1.387 . S
C1533 C1535 1.390 . S
C1533 H1537 0.950 . S
H1534 C1530 0.950 . S
C1535 C1533 1.390 . S
C1535 C1536 1.387 . S
C1535 H1538 0.950 . S
C1536 C1535 1.387 . S
C1536 C1539 1.387 . S
H1537 C1533 0.950 . S
H1538 C1535 0.950 . S
C1539 C1530 1.390 . S
C1539 H1532 0.950 . S
C1539 C1536 1.387 . S
C1540 C1541 1.387 . S
C1540 H1544 0.950 . S
C1540 C1549 1.390 . S
C1541 C1540 1.387 . S
C1541 C1543 1.387 . S
H1542 C1549 0.950 . S
C1543 C1541 1.387 . S
C1543 C1545 1.390 . S
C1543 H1547 0.950 . S
H1544 C1540 0.950 . S
C1545 C1543 1.390 . S
C1545 C1546 1.387 . S
C1545 H1548 0.950 . S
C1546 C1545 1.387 . S
C1546 C1549 1.387 . S
H1547 C1543 0.950 . S
H1548 C1545 0.950 . S
C1549 C1540 1.390 . S
C1549 H1542 0.950 . S
C1549 C1546 1.387 . S
C1550 C1551 1.387 . S
C1550 H1554 0.950 . S
C1550 C1559 1.390 . S
C1551 C1550 1.387 . S
C1551 C1553 1.387 . S
H1552 C1559 0.950 . S
C1553 C1551 1.387 . S
C1553 C1555 1.390 . S
C1553 H1557 0.950 . S
H1554 C1550 0.950 . S
C1555 C1553 1.390 . S
C1555 C1556 1.387 . S
C1555 H1558 0.950 . S
C1556 C1555 1.387 . S
C1556 C1559 1.387 . S
H1557 C1553 0.950 . S
H1558 C1555 0.950 . S
C1559 C1550 1.390 . S
C1559 H1552 0.950 . S
C1559 C1556 1.387 . S
C1560 C1561 1.387 1_545 S
C1560 H1564 0.950 . S
C1560 C1569 1.390 . S
C1561 C1560 1.387 1_565 S
C1561 C1563 1.387 . S
H1562 C1569 0.950 . S
C1563 C1561 1.387 . S
C1563 C1565 1.390 . S
C1563 H1567 0.950 . S
H1564 C1560 0.950 . S
C1565 C1563 1.390 . S
C1565 C1566 1.387 . S
C1565 H1568 0.950 . S
C1566 C1565 1.387 . S
C1566 C1569 1.387 1_565 S
H1567 C1563 0.950 . S
H1568 C1565 0.950 . S
C1569 C1560 1.390 . S
C1569 H1562 0.950 . S
C1569 C1566 1.387 1_545 S
C1570 C1571 1.387 . S
C1570 H1574 0.950 . S
C1570 C1579 1.390 . S
C1571 C1570 1.387 . S
C1571 C1573 1.387 . S
H1572 C1579 0.950 . S
C1573 C1571 1.387 . S
C1573 C1575 1.390 . S
C1573 H1577 0.950 . S
H1574 C1570 0.950 . S
C1575 C1573 1.390 . S
C1575 C1576 1.387 . S
C1575 H1578 0.950 . S
C1576 C1575 1.387 . S
C1576 C1579 1.387 . S
H1577 C1573 0.950 . S
H1578 C1575 0.950 . S
C1579 C1570 1.390 . S
C1579 H1572 0.950 . S
C1579 C1576 1.387 . S
C1580 C1581 1.387 1_565 S
C1580 H1584 0.950 . S
C1580 C1589 1.390 . S
C1581 C1580 1.387 1_545 S
C1581 C1583 1.387 . S
H1582 C1589 0.950 . S
C1583 C1581 1.387 . S
C1583 C1585 1.390 . S
C1583 H1587 0.950 . S
H1584 C1580 0.950 . S
C1585 C1583 1.390 . S
C1585 C1586 1.387 . S
C1585 H1588 0.950 . S
C1586 C1585 1.387 . S
C1586 C1589 1.387 1_545 S
H1587 C1583 0.950 . S
H1588 C1585 0.950 . S
C1589 C1580 1.390 . S
C1589 H1582 0.950 . S
C1589 C1586 1.387 1_565 S
C1590 C1591 1.387 . S
C1590 H1594 0.950 . S
C1590 C1599 1.390 . S
C1591 C1590 1.387 . S
C1591 C1593 1.387 . S
H1592 C1599 0.950 . S
C1593 C1591 1.387 . S
C1593 C1595 1.390 . S
C1593 H1597 0.950 . S
H1594 C1590 0.950 . S
C1595 C1593 1.390 . S
C1595 C1596 1.387 . S
C1595 H1598 0.950 . S
C1596 C1595 1.387 . S
C1596 C1599 1.387 . S
H1597 C1593 0.950 . S
H1598 C1595 0.950 . S
C1599 C1590 1.390 . S
C1599 H1592 0.950 . S
C1599 C1596 1.387 . S
C1600 C1601 1.387 . S
C1600 H1604 0.950 . S
C1600 C1609 1.390 . S
C1601 C1600 1.387 . S
C1601 C1603 1.387 . S
H1602 C1609 0.950 . S
C1603 C1601 1.387 . S
C1603 C1605 1.390 . S
C1603 H1607 0.950 . S
H1604 C1600 0.950 . S
C1605 C1603 1.390 . S
C1605 C1606 1.387 . S
C1605 H1608 0.950 . S
C1606 C1605 1.387 . S
C1606 C1609 1.387 . S
H1607 C1603 0.950 . S
H1608 C1605 0.950 . S
C1609 C1600 1.390 . S
C1609 H1602 0.950 . S
C1609 C1606 1.387 . S
C1610 C1611 1.387 . S
C1610 H1614 0.950 . S
C1610 C1619 1.390 . S
C1611 C1610 1.387 . S
C1611 C1613 1.387 . S
H1612 C1619 0.950 . S
C1613 C1611 1.387 . S
C1613 C1615 1.390 . S
C1613 H1617 0.950 . S
H1614 C1610 0.950 . S
C1615 C1613 1.390 . S
C1615 C1616 1.387 . S
C1615 H1618 0.950 . S
C1616 C1615 1.387 . S
C1616 C1619 1.387 . S
H1617 C1613 0.950 . S
H1618 C1615 0.950 . S
C1619 C1610 1.390 . S
C1619 H1612 0.950 . S
C1619 C1616 1.387 . S
C1620 C1621 1.387 . S
C1620 H1624 0.950 . S
C1620 C1629 1.390 . S
C1621 C1620 1.387 . S
C1621 C1623 1.387 . S
H1622 C1629 0.950 . S
C1623 C1621 1.387 . S
C1623 C1625 1.390 . S
C1623 H1627 0.950 . S
H1624 C1620 0.950 . S
C1625 C1623 1.390 . S
C1625 C1626 1.387 . S
C1625 H1628 0.950 . S
C1626 C1625 1.387 . S
C1626 C1629 1.387 . S
H1627 C1623 0.950 . S
H1628 C1625 0.950 . S
C1629 C1620 1.390 . S
C1629 H1622 0.950 . S
C1629 C1626 1.387 . S
C1630 C1631 1.387 . S
C1630 H1634 0.950 . S
C1630 C1639 1.390 . S
C1631 C1630 1.387 . S
C1631 C1633 1.387 . S
H1632 C1639 0.950 . S
C1633 C1631 1.387 . S
C1633 C1635 1.390 . S
C1633 H1637 0.950 . S
H1634 C1630 0.950 . S
C1635 C1633 1.390 . S
C1635 C1636 1.387 . S
C1635 H1638 0.950 . S
C1636 C1635 1.387 . S
C1636 C1639 1.387 . S
H1637 C1633 0.950 . S
H1638 C1635 0.950 . S
C1639 C1630 1.390 . S
C1639 H1632 0.950 . S
C1639 C1636 1.387 . S
C1640 C1641 1.387 . S
C1640 H1644 0.950 . S
C1640 C1649 1.390 . S
C1641 C1640 1.387 . S
C1641 C1643 1.387 . S
H1642 C1649 0.950 . S
C1643 C1641 1.387 . S
C1643 C1645 1.390 . S
C1643 H1647 0.950 . S
H1644 C1640 0.950 . S
C1645 C1643 1.390 . S
C1645 C1646 1.387 . S
C1645 H1648 0.950 . S
C1646 C1645 1.387 . S
C1646 C1649 1.387 . S
H1647 C1643 0.950 . S
H1648 C1645 0.950 . S
C1649 C1640 1.390 . S
C1649 H1642 0.950 . S
C1649 C1646 1.387 . S
C1650 C1651 1.387 . S
C1650 H1654 0.950 . S
C1650 C1659 1.390 . S
C1651 C1650 1.387 . S
C1651 C1653 1.387 . S
H1652 C1659 0.950 . S
C1653 C1651 1.387 . S
C1653 C1655 1.390 . S
C1653 H1657 0.950 . S
H1654 C1650 0.950 . S
C1655 C1653 1.390 . S
C1655 C1656 1.387 . S
C1655 H1658 0.950 . S
C1656 C1655 1.387 . S
C1656 C1659 1.387 . S
H1657 C1653 0.950 . S
H1658 C1655 0.950 . S
C1659 C1650 1.390 . S
C1659 H1652 0.950 . S
C1659 C1656 1.387 . S
C1660 C1661 1.387 . S
C1660 H1664 0.950 . S
C1660 C1669 1.390 . S
C1661 C1660 1.387 . S
C1661 C1663 1.387 . S
H1662 C1669 0.950 . S
C1663 C1661 1.387 . S
C1663 C1665 1.390 . S
C1663 H1667 0.950 . S
H1664 C1660 0.950 . S
C1665 C1663 1.390 . S
C1665 C1666 1.387 . S
C1665 H1668 0.950 . S
C1666 C1665 1.387 . S
C1666 C1669 1.387 . S
H1667 C1663 0.950 . S
H1668 C1665 0.950 . S
C1669 C1660 1.390 . S
C1669 H1662 0.950 . S
C1669 C1666 1.387 . S
C1670 C1671 1.387 . S
C1670 H1674 0.950 . S
C1670 C1679 1.390 . S
C1671 C1670 1.387 . S
C1671 C1673 1.387 . S
H1672 C1679 0.950 . S
C1673 C1671 1.387 . S
C1673 C1675 1.390 . S
C1673 H1677 0.950 . S
H1674 C1670 0.950 . S
C1675 C1673 1.390 . S
C1675 C1676 1.387 . S
C1675 H1678 0.950 . S
C1676 C1675 1.387 . S
C1676 C1679 1.387 . S
H1677 C1673 0.950 . S
H1678 C1675 0.950 . S
C1679 C1670 1.390 . S
C1679 H1672 0.950 . S
C1679 C1676 1.387 . S
C1680 C1681 1.387 . S
C1680 H1684 0.950 . S
C1680 C1689 1.390 . S
C1681 C1680 1.387 . S
C1681 C1683 1.387 . S
H1682 C1689 0.950 . S
C1683 C1681 1.387 . S
C1683 C1685 1.390 . S
C1683 H1687 0.950 . S
H1684 C1680 0.950 . S
C1685 C1683 1.390 . S
C1685 C1686 1.387 . S
C1685 H1688 0.950 . S
C1686 C1685 1.387 . S
C1686 C1689 1.387 . S
H1687 C1683 0.950 . S
H1688 C1685 0.950 . S
C1689 C1680 1.390 . S
C1689 H1682 0.950 . S
C1689 C1686 1.387 . S
C1690 C1691 1.387 . S
C1690 H1694 0.950 . S
C1690 C1699 1.390 . S
C1691 C1690 1.387 . S
C1691 C1693 1.387 . S
H1692 C1699 0.950 . S
C1693 C1691 1.387 . S
C1693 C1695 1.390 . S
C1693 H1697 0.950 . S
H1694 C1690 0.950 . S
C1695 C1693 1.390 . S
C1695 C1696 1.387 . S
C1695 H1698 0.950 . S
C1696 C1695 1.387 . S
C1696 C1699 1.387 . S
H1697 C1693 0.950 . S
H1698 C1695 0.950 . S
C1699 C1690 1.390 . S
C1699 H1692 0.950 . S
C1699 C1696 1.387 . S
C1700 C1701 1.387 . S
C1700 H1704 0.950 . S
C1700 C1709 1.390 . S
C1701 C1700 1.387 . S
C1701 C1703 1.387 . S
H1702 C1709 0.950 . S
C1703 C1701 1.387 . S
C1703 C1705 1.390 . S
C1703 H1707 0.950 . S
H1704 C1700 0.950 . S
C1705 C1703 1.390 . S
C1705 C1706 1.387 . S
C1705 H1708 0.950 . S
C1706 C1705 1.387 . S
C1706 C1709 1.387 . S
H1707 C1703 0.950 . S
H1708 C1705 0.950 . S
C1709 C1700 1.390 . S
C1709 H1702 0.950 . S
C1709 C1706 1.387 . S
C1710 C1711 1.387 . S
C1710 H1714 0.950 . S
C1710 C1719 1.390 . S
C1711 C1710 1.387 . S
C1711 C1713 1.387 . S
H1712 C1719 0.950 . S
C1713 C1711 1.387 . S
C1713 C1715 1.390 . S
C1713 H1717 0.950 . S
H1714 C1710 0.950 . S
C1715 C1713 1.390 . S
C1715 C1716 1.387 . S
C1715 H1718 0.950 . S
C1716 C1715 1.387 . S
C1716 C1719 1.387 . S
H1717 C1713 0.950 . S
H1718 C1715 0.950 . S
C1719 C1710 1.390 . S
C1719 H1712 0.950 . S
C1719 C1716 1.387 . S
C1720 C1721 1.387 . S
C1720 H1724 0.950 . S
C1720 C1729 1.390 . S
C1721 C1720 1.387 . S
C1721 C1723 1.387 . S
H1722 C1729 0.950 . S
C1723 C1721 1.387 . S
C1723 C1725 1.390 . S
C1723 H1727 0.950 . S
H1724 C1720 0.950 . S
C1725 C1723 1.390 . S
C1725 C1726 1.387 . S
C1725 H1728 0.950 . S
C1726 C1725 1.387 . S
C1726 C1729 1.387 . S
H1727 C1723 0.950 . S
H1728 C1725 0.950 . S
C1729 C1720 1.390 . S
C1729 H1722 0.950 . S
C1729 C1726 1.387 . S
C1730 C1731 1.387 . S
C1730 H1734 0.950 . S
C1730 C1739 1.390 . S
C1731 C1730 1.387 . S
C1731 C1733 1.387 . S
H1732 C1739 0.950 . S
C1733 C1731 1.387 . S
C1733 C1735 1.390 . S
C1733 H1737 0.950 . S
H1734 C1730 0.950 . S
C1735 C1733 1.390 . S
C1735 C1736 1.387 . S
C1735 H1738 0.950 . S
C1736 C1735 1.387 . S
C1736 C1739 1.387 . S
H1737 C1733 0.950 . S
H1738 C1735 0.950 . S
C1739 C1730 1.390 . S
C1739 H1732 0.950 . S
C1739 C1736 1.387 . S
C1740 C1741 1.387 . S
C1740 H1744 0.950 . S
C1740 C1749 1.390 . S
C1741 C1740 1.387 . S
C1741 C1743 1.387 . S
H1742 C1749 0.950 . S
C1743 C1741 1.387 . S
C1743 C1745 1.390 . S
C1743 H1747 0.950 . S
H1744 C1740 0.950 . S
C1745 C1743 1.390 . S
C1745 C1746 1.387 . S
C1745 H1748 0.950 . S
C1746 C1745 1.387 . S
C1746 C1749 1.387 . S
H1747 C1743 0.950 . S
H1748 C1745 0.950 . S
C1749 C1740 1.390 . S
C1749 H1742 0.950 . S
C1749 C1746 1.387 . S
C1750 C1751 1.387 . S
C1750 H1754 0.950 . S
C1750 C1759 1.390 . S
C1751 C1750 1.387 . S
C1751 C1753 1.387 . S
H1752 C1759 0.950 . S
C1753 C1751 1.387 . S
C1753 C1755 1.390 . S
C1753 H1757 0.950 . S
H1754 C1750 0.950 . S
C1755 C1753 1.390 . S
C1755 C1756 1.387 . S
C1755 H1758 0.950 . S
C1756 C1755 1.387 . S
C1756 C1759 1.387 . S
H1757 C1753 0.950 . S
H1758 C1755 0.950 . S
C1759 C1750 1.390 . S
C1759 H1752 0.950 . S
C1759 C1756 1.387 . S
C1760 C1761 1.387 . S
C1760 H1764 0.950 . S
C1760 C1769 1.390 . S
C1761 C1760 1.387 . S
C1761 C1763 1.387 . S
H1762 C1769 0.950 . S
C1763 C1761 1.387 . S
C1763 C1765 1.390 . S
C1763 H1767 0.950 . S
H1764 C1760 0.950 . S
C1765 C1763 1.390 . S
C1765 C1766 1.387 . S
C1765 H1768 0.950 . S
C1766 C1765 1.387 . S
C1766 C1769 1.387 . S
H1767 C1763 0.950 . S
H1768 C1765 0.950 . S
C1769 C1760 1.390 . S
C1769 H1762 0.950 . S
C1769 C1766 1.387 . S
C1770 C1771 1.387 . S
C1770 H1774 0.950 . S
C1770 C1779 1.390 . S
C1771 C1770 1.387 . S
C1771 C1773 1.387 . S
H1772 C1779 0.950 . S
C1773 C1771 1.387 . S
C1773 C1775 1.390 . S
C1773 H1777 0.950 . S
H1774 C1770 0.950 . S
C1775 C1773 1.390 . S
C1775 C1776 1.387 . S
C1775 H1778 0.950 . S
C1776 C1775 1.387 . S
C1776 C1779 1.387 . S
H1777 C1773 0.950 . S
H1778 C1775 0.950 . S
C1779 C1770 1.390 . S
C1779 H1772 0.950 . S
C1779 C1776 1.387 . S
C1780 C1781 1.387 . S
C1780 H1784 0.950 . S
C1780 C1789 1.390 . S
C1781 C1780 1.387 . S
C1781 C1783 1.387 . S
H1782 C1789 0.950 . S
C1783 C1781 1.387 . S
C1783 C1785 1.390 . S
C1783 H1787 0.950 . S
H1784 C1780 0.950 . S
C1785 C1783 1.390 . S
C1785 C1786 1.387 . S
C1785 H1788 0.950 . S
C1786 C1785 1.387 . S
C1786 C1789 1.387 . S
H1787 C1783 0.950 . S
H1788 C1785 0.950 . S
C1789 C1780 1.390 . S
C1789 H1782 0.950 . S
C1789 C1786 1.387 . S
C1790 C1791 1.387 . S
C1790 H1794 0.950 . S
C1790 C1799 1.390 . S
C1791 C1790 1.387 . S
C1791 C1793 1.387 . S
H1792 C1799 0.950 . S
C1793 C1791 1.387 . S
C1793 C1795 1.390 . S
C1793 H1797 0.950 . S
H1794 C1790 0.950 . S
C1795 C1793 1.390 . S
C1795 C1796 1.387 . S
C1795 H1798 0.950 . S
C1796 C1795 1.387 . S
C1796 C1799 1.387 . S
H1797 C1793 0.950 . S
H1798 C1795 0.950 . S
C1799 C1790 1.390 . S
C1799 H1792 0.950 . S
C1799 C1796 1.387 . S
C1800 C1801 1.387 . S
C1800 H1804 0.950 . S
C1800 C1809 1.390 . S
C1801 C1800 1.387 . S
C1801 C1803 1.387 . S
H1802 C1809 0.950 . S
C1803 C1801 1.387 . S
C1803 C1805 1.390 . S
C1803 H1807 0.950 . S
H1804 C1800 0.950 . S
C1805 C1803 1.390 . S
C1805 C1806 1.387 . S
C1805 H1808 0.950 . S
C1806 C1805 1.387 . S
C1806 C1809 1.387 . S
H1807 C1803 0.950 . S
H1808 C1805 0.950 . S
C1809 C1800 1.390 . S
C1809 H1802 0.950 . S
C1809 C1806 1.387 . S
C1810 C1811 1.387 . S
C1810 H1814 0.950 . S
C1810 C1819 1.390 . S
C1811 C1810 1.387 . S
C1811 C1813 1.387 . S
H1812 C1819 0.950 . S
C1813 C1811 1.387 . S
C1813 C1815 1.390 . S
C1813 H1817 0.950 . S
H1814 C1810 0.950 . S
C1815 C1813 1.390 . S
C1815 C1816 1.387 . S
C1815 H1818 0.950 . S
C1816 C1815 1.387 . S
C1816 C1819 1.387 . S
H1817 C1813 0.950 . S
H1818 C1815 0.950 . S
C1819 C1810 1.390 . S
C1819 H1812 0.950 . S
C1819 C1816 1.387 . S
C1820 C1821 1.387 . S
C1820 H1824 0.950 . S
C1820 C1829 1.390 . S
C1821 C1820 1.387 . S
C1821 C1823 1.387 . S
H1822 C1829 0.950 . S
C1823 C1821 1.387 . S
C1823 C1825 1.390 . S
C1823 H1827 0.950 . S
H1824 C1820 0.950 . S
C1825 C1823 1.390 . S
C1825 C1826 1.387 . S
C1825 H1828 0.950 . S
C1826 C1825 1.387 . S
C1826 C1829 1.387 . S
H1827 C1823 0.950 . S
H1828 C1825 0.950 . S
C1829 C1820 1.390 . S
C1829 H1822 0.950 . S
C1829 C1826 1.387 . S
C1830 C1831 1.387 . S
C1830 H1834 0.950 . S
C1830 C1839 1.390 . S
C1831 C1830 1.387 . S
C1831 C1833 1.387 . S
H1832 C1839 0.950 . S
C1833 C1831 1.387 . S
C1833 C1835 1.390 . S
C1833 H1837 0.950 . S
H1834 C1830 0.950 . S
C1835 C1833 1.390 . S
C1835 C1836 1.387 . S
C1835 H1838 0.950 . S
C1836 C1835 1.387 . S
C1836 C1839 1.387 . S
H1837 C1833 0.950 . S
H1838 C1835 0.950 . S
C1839 C1830 1.390 . S
C1839 H1832 0.950 . S
C1839 C1836 1.387 . S
C1840 C1841 1.387 1_545 S
C1840 H1844 0.950 . S
C1840 C1849 1.390 . S
C1841 C1840 1.387 1_565 S
C1841 C1843 1.387 . S
H1842 C1849 0.950 . S
C1843 C1841 1.387 . S
C1843 C1845 1.390 . S
C1843 H1847 0.950 . S
H1844 C1840 0.950 . S
C1845 C1843 1.390 . S
C1845 C1846 1.387 . S
C1845 H1848 0.950 . S
C1846 C1845 1.387 . S
C1846 C1849 1.387 1_565 S
H1847 C1843 0.950 . S
H1848 C1845 0.950 . S
C1849 C1840 1.390 . S
C1849 H1842 0.950 . S
C1849 C1846 1.387 1_545 S
C1850 C1851 1.387 . S
C1850 H1854 0.950 . S
C1850 C1859 1.390 . S
C1851 C1850 1.387 . S
C1851 C1853 1.387 . S
H1852 C1859 0.950 . S
C1853 C1851 1.387 . S
C1853 C1855 1.390 . S
C1853 H1857 0.950 . S
H1854 C1850 0.950 . S
C1855 C1853 1.390 . S
C1855 C1856 1.387 . S
C1855 H1858 0.950 . S
C1856 C1855 1.387 . S
C1856 C1859 1.387 . S
H1857 C1853 0.950 . S
H1858 C1855 0.950 . S
C1859 C1850 1.390 . S
C1859 H1852 0.950 . S
C1859 C1856 1.387 . S
C1860 C1861 1.387 . S
C1860 H1864 0.950 . S
C1860 C1869 1.390 . S
C1861 C1860 1.387 . S
C1861 C1863 1.387 . S
H1862 C1869 0.950 . S
C1863 C1861 1.387 . S
C1863 C1865 1.390 . S
C1863 H1867 0.950 . S
H1864 C1860 0.950 . S
C1865 C1863 1.390 . S
C1865 C1866 1.387 . S
C1865 H1868 0.950 . S
C1866 C1865 1.387 . S
C1866 C1869 1.387 . S
H1867 C1863 0.950 . S
H1868 C1865 0.950 . S
C1869 C1860 1.390 . S
C1869 H1862 0.950 . S
C1869 C1866 1.387 . S
C1870 C1871 1.387 . S
C1870 H1874 0.950 . S
C1870 C1879 1.390 . S
C1871 C1870 1.387 . S
C1871 C1873 1.387 1_565 S
H1872 C1879 0.950 . S
C1873 C1871 1.387 1_545 S
C1873 C1875 1.390 . S
C1873 H1877 0.950 . S
H1874 C1870 0.950 . S
C1875 C1873 1.390 . S
C1875 C1876 1.387 1_545 S
C1875 H1878 0.950 . S
C1876 C1875 1.387 1_565 S
C1876 C1879 1.387 . S
H1877 C1873 0.950 . S
H1878 C1875 0.950 . S
C1879 C1870 1.390 . S
C1879 H1872 0.950 . S
C1879 C1876 1.387 . S
C1880 C1881 1.387 1_565 S
C1880 H1884 0.950 . S
C1880 C1889 1.390 . S
C1881 C1880 1.387 1_545 S
C1881 C1883 1.387 . S
H1882 C1889 0.950 . S
C1883 C1881 1.387 . S
C1883 C1885 1.390 . S
C1883 H1887 0.950 . S
H1884 C1880 0.950 . S
C1885 C1883 1.390 . S
C1885 C1886 1.387 . S
C1885 H1888 0.950 . S
C1886 C1885 1.387 . S
C1886 C1889 1.387 1_545 S
H1887 C1883 0.950 . S
H1888 C1885 0.950 . S
C1889 C1880 1.390 . S
C1889 H1882 0.950 . S
C1889 C1886 1.387 1_565 S
C1890 C1891 1.387 . S
C1890 H1894 0.950 . S
C1890 C1899 1.390 . S
C1891 C1890 1.387 . S
C1891 C1893 1.387 . S
H1892 C1899 0.950 . S
C1893 C1891 1.387 . S
C1893 C1895 1.390 . S
C1893 H1897 0.950 . S
H1894 C1890 0.950 . S
C1895 C1893 1.390 . S
C1895 C1896 1.387 . S
C1895 H1898 0.950 . S
C1896 C1895 1.387 . S
C1896 C1899 1.387 . S
H1897 C1893 0.950 . S
H1898 C1895 0.950 . S
C1899 C1890 1.390 . S
C1899 H1892 0.950 . S
C1899 C1896 1.387 . S
C1900 C1901 1.387 . S
C1900 H1904 0.950 . S
C1900 C1909 1.390 . S
C1901 C1900 1.387 . S
C1901 C1903 1.387 . S
H1902 C1909 0.950 . S
C1903 C1901 1.387 . S
C1903 C1905 1.390 . S
C1903 H1907 0.950 . S
H1904 C1900 0.950 . S
C1905 C1903 1.390 . S
C1905 C1906 1.387 . S
C1905 H1908 0.950 . S
C1906 C1905 1.387 . S
C1906 C1909 1.387 . S
H1907 C1903 0.950 . S
H1908 C1905 0.950 . S
C1909 C1900 1.390 . S
C1909 H1902 0.950 . S
C1909 C1906 1.387 . S
C1910 C1911 1.387 1_565 S
C1910 H1914 0.950 . S
C1910 C1919 1.390 . S
C1911 C1910 1.387 1_545 S
C1911 C1913 1.387 . S
H1912 C1919 0.950 . S
C1913 C1911 1.387 . S
C1913 C1915 1.390 . S
C1913 H1917 0.950 . S
H1914 C1910 0.950 . S
C1915 C1913 1.390 . S
C1915 C1916 1.387 . S
C1915 H1918 0.950 . S
C1916 C1915 1.387 . S
C1916 C1919 1.387 1_545 S
H1917 C1913 0.950 . S
H1918 C1915 0.950 . S
C1919 C1910 1.390 . S
C1919 H1912 0.950 . S
C1919 C1916 1.387 1_565 S
C1920 C1921 1.387 . S
C1920 H1924 0.950 . S
C1920 C1929 1.390 . S
C1921 C1920 1.387 . S
C1921 C1923 1.387 . S
H1922 C1929 0.950 1_655 S
C1923 C1921 1.387 . S
C1923 C1925 1.390 . S
C1923 H1927 0.950 . S
H1924 C1920 0.950 . S
C1925 C1923 1.390 . S
C1925 C1926 1.387 1_455 S
C1925 H1928 0.950 1_455 S
C1926 C1925 1.387 1_655 S
C1926 C1929 1.387 1_655 S
H1927 C1923 0.950 . S
H1928 C1925 0.950 1_655 S
C1929 C1920 1.390 . S
C1929 H1922 0.950 1_455 S
C1929 C1926 1.387 1_455 S
C1930 C1931 1.387 . S
C1930 H1934 0.950 . S
C1930 C1939 1.390 . S
C1931 C1930 1.387 . S
C1931 C1933 1.387 . S
H1932 C1939 0.950 . S
C1933 C1931 1.387 . S
C1933 C1935 1.390 . S
C1933 H1937 0.950 . S
H1934 C1930 0.950 . S
C1935 C1933 1.390 . S
C1935 C1936 1.387 . S
C1935 H1938 0.950 . S
C1936 C1935 1.387 . S
C1936 C1939 1.387 . S
H1937 C1933 0.950 . S
H1938 C1935 0.950 . S
C1939 C1930 1.390 . S
C1939 H1932 0.950 . S
C1939 C1936 1.387 . S
C1940 C1941 1.387 1_455 S
C1940 H1944 0.950 1_455 S
C1940 C1949 1.390 . S
C1941 C1940 1.387 1_655 S
C1941 C1943 1.387 1_655 S
H1942 C1949 0.950 . S
C1943 C1941 1.387 1_455 S
C1943 C1945 1.390 . S
C1943 H1947 0.950 1_455 S
H1944 C1940 0.950 1_655 S
C1945 C1943 1.390 . S
C1945 C1946 1.387 . S
C1945 H1948 0.950 . S
C1946 C1945 1.387 . S
C1946 C1949 1.387 . S
H1947 C1943 0.950 1_655 S
H1948 C1945 0.950 . S
C1949 C1940 1.390 . S
C1949 H1942 0.950 . S
C1949 C1946 1.387 . S
C1950 C1951 1.387 . S
C1950 H1954 0.950 . S
C1950 C1959 1.390 . S
C1951 C1950 1.387 . S
C1951 C1953 1.387 . S
H1952 C1959 0.950 . S
C1953 C1951 1.387 . S
C1953 C1955 1.390 . S
C1953 H1957 0.950 . S
H1954 C1950 0.950 . S
C1955 C1953 1.390 . S
C1955 C1956 1.387 . S
C1955 H1958 0.950 . S
C1956 C1955 1.387 . S
C1956 C1959 1.387 . S
H1957 C1953 0.950 . S
H1958 C1955 0.950 . S
C1959 C1950 1.390 . S
C1959 H1952 0.950 . S
C1959 C1956 1.387 . S
C1960 C1961 1.387 . S
C1960 H1964 0.950 . S
C1960 C1969 1.390 . S
C1961 C1960 1.387 . S
C1961 C1963 1.387 . S
H1962 C1969 0.950 1_455 S
C1963 C1961 1.387 . S
C1963 C1965 1.390 . S
C1963 H1967 0.950 . S
H1964 C1960 0.950 . S
C1965 C1963 1.390 . S
C1965 C1966 1.387 1_655 S
C1965 H1968 0.950 1_655 S
C1966 C1965 1.387 1_455 S
C1966 C1969 1.387 1_455 S
H1967 C1963 0.950 . S
H1968 C1965 0.950 1_455 S
C1969 C1960 1.390 . S
C1969 H1962 0.950 1_655 S
C1969 C1966 1.387 1_655 S
C1970 C1971 1.387 . S
C1970 H1974 0.950 . S
C1970 C1979 1.390 . S
C1971 C1970 1.387 . S
C1971 C1973 1.387 . S
H1972 C1979 0.950 . S
C1973 C1971 1.387 . S
C1973 C1975 1.390 . S
C1973 H1977 0.950 . S
H1974 C1970 0.950 . S
C1975 C1973 1.390 . S
C1975 C1976 1.387 . S
C1975 H1978 0.950 . S
C1976 C1975 1.387 . S
C1976 C1979 1.387 . S
H1977 C1973 0.950 . S
H1978 C1975 0.950 . S
C1979 C1970 1.390 . S
C1979 H1972 0.950 . S
C1979 C1976 1.387 . S
C1980 C1981 1.387 . S
C1980 H1984 0.950 . S
C1980 C1989 1.390 1_455 S
C1981 C1980 1.387 . S
C1981 C1983 1.387 1_455 S
H1982 C1989 0.950 . S
C1983 C1981 1.387 1_655 S
C1983 C1985 1.390 . S
C1983 H1987 0.950 1_655 S
H1984 C1980 0.950 . S
C1985 C1983 1.390 . S
C1985 C1986 1.387 . S
C1985 H1988 0.950 . S
C1986 C1985 1.387 . S
C1986 C1989 1.387 . S
H1987 C1983 0.950 1_455 S
H1988 C1985 0.950 . S
C1989 C1980 1.390 1_655 S
C1989 H1982 0.950 . S
C1989 C1986 1.387 . S
C1990 C1991 1.387 . S
C1990 H1994 0.950 . S
C1990 C1999 1.390 . S
C1991 C1990 1.387 . S
C1991 C1993 1.387 . S
H1992 C1999 0.950 . S
C1993 C1991 1.387 . S
C1993 C1995 1.390 . S
C1993 H1997 0.950 . S
H1994 C1990 0.950 . S
C1995 C1993 1.390 . S
C1995 C1996 1.387 . S
C1995 H1998 0.950 . S
C1996 C1995 1.387 . S
C1996 C1999 1.387 . S
H1997 C1993 0.950 . S
H1998 C1995 0.950 . S
C1999 C1990 1.390 . S
C1999 H1992 0.950 . S
C1999 C1996 1.387 . S
C2000 C2001 1.387 . S
C2000 H2004 0.950 . S
C2000 C2009 1.390 1_655 S
C2001 C2000 1.387 . S
C2001 C2003 1.387 1_665 S
H2002 C2009 0.950 . S
C2003 C2001 1.387 1_445 S
C2003 C2005 1.390 . S
C2003 H2007 0.950 1_455 S
H2004 C2000 0.950 . S
C2005 C2003 1.390 . S
C2005 C2006 1.387 1_545 S
C2005 H2008 0.950 . S
C2006 C2005 1.387 1_565 S
C2006 C2009 1.387 . S
H2007 C2003 0.950 1_655 S
H2008 C2005 0.950 . S
C2009 C2000 1.390 1_455 S
C2009 H2002 0.950 . S
C2009 C2006 1.387 . S
C2010 C2011 1.387 . S
C2010 H2014 0.950 . S
C2010 C2019 1.390 . S
C2011 C2010 1.387 . S
C2011 C2013 1.387 . S
H2012 C2019 0.950 . S
C2013 C2011 1.387 . S
C2013 C2015 1.390 . S
C2013 H2017 0.950 . S
H2014 C2010 0.950 . S
C2015 C2013 1.390 . S
C2015 C2016 1.387 . S
C2015 H2018 0.950 . S
C2016 C2015 1.387 . S
C2016 C2019 1.387 . S
H2017 C2013 0.950 . S
H2018 C2015 0.950 . S
C2019 C2010 1.390 . S
C2019 H2012 0.950 . S
C2019 C2016 1.387 . S
C2020 C2021 1.387 1_455 S
C2020 H2024 0.950 1_455 S
C2020 C2029 1.390 . S
C2021 C2020 1.387 1_655 S
C2021 C2023 1.387 1_655 S
H2022 C2029 0.950 . S
C2023 C2021 1.387 1_455 S
C2023 C2025 1.390 . S
C2023 H2027 0.950 1_455 S
H2024 C2020 0.950 1_655 S
C2025 C2023 1.390 . S
C2025 C2026 1.387 . S
C2025 H2028 0.950 . S
C2026 C2025 1.387 . S
C2026 C2029 1.387 . S
H2027 C2023 0.950 1_655 S
H2028 C2025 0.950 . S
C2029 C2020 1.390 . S
C2029 H2022 0.950 . S
C2029 C2026 1.387 . S
C2030 C2031 1.387 . S
C2030 H2034 0.950 . S
C2030 C2039 1.390 . S
C2031 C2030 1.387 . S
C2031 C2033 1.387 1_565 S
H2032 C2039 0.950 . S
C2033 C2031 1.387 1_545 S
C2033 C2035 1.390 . S
C2033 H2037 0.950 . S
H2034 C2030 0.950 . S
C2035 C2033 1.390 . S
C2035 C2036 1.387 1_545 S
C2035 H2038 0.950 . S
C2036 C2035 1.387 1_565 S
C2036 C2039 1.387 . S
H2037 C2033 0.950 . S
H2038 C2035 0.950 . S
C2039 C2030 1.390 . S
C2039 H2032 0.950 . S
C2039 C2036 1.387 . S
C2040 C2041 1.387 1_565 S
C2040 H2044 0.950 . S
C2040 C2049 1.390 . S
C2041 C2040 1.387 1_545 S
C2041 C2043 1.387 . S
H2042 C2049 0.950 1_455 S
C2043 C2041 1.387 . S
C2043 C2045 1.397 . S
C2043 H2047 0.950 . S
H2044 C2040 0.950 . S
C2045 C2043 1.397 . S
C2045 C2046 1.384 1_655 S
C2045 H2048 0.946 1_655 S
C2046 C2045 1.384 1_455 S
C2046 C2049 1.387 1_445 S
H2047 C2043 0.950 . S
H2048 C2045 0.946 1_455 S
C2049 C2040 1.390 . S
C2049 H2042 0.950 1_655 S
C2049 C2046 1.387 1_665 S
C2050 C2051 1.387 . S
C2050 H2054 0.950 . S
C2050 C2059 1.390 . S
C2051 C2050 1.387 . S
C2051 C2053 1.387 . S
H2052 C2059 0.950 . S
C2053 C2051 1.387 . S
C2053 C2055 1.390 . S
C2053 H2057 0.950 . S
H2054 C2050 0.950 . S
C2055 C2053 1.390 . S
C2055 C2056 1.387 . S
C2055 H2058 0.950 . S
C2056 C2055 1.387 . S
C2056 C2059 1.387 . S
H2057 C2053 0.950 . S
H2058 C2055 0.950 . S
C2059 C2050 1.390 . S
C2059 H2052 0.950 . S
C2059 C2056 1.387 . S
C2060 C2061 1.387 1_655 S
C2060 H2064 0.950 1_655 S
C2060 C2069 1.390 . S
C2061 C2060 1.387 1_455 S
C2061 C2063 1.387 1_455 S
H2062 C2069 0.950 . S
C2063 C2061 1.387 1_655 S
C2063 C2065 1.390 . S
C2063 H2067 0.950 1_655 S
H2064 C2060 0.950 1_455 S
C2065 C2063 1.390 . S
C2065 C2066 1.387 . S
C2065 H2068 0.950 . S
C2066 C2065 1.387 . S
C2066 C2069 1.387 . S
H2067 C2063 0.950 1_455 S
H2068 C2065 0.950 . S
C2069 C2060 1.390 . S
C2069 H2062 0.950 . S
C2069 C2066 1.387 . S
C2070 C2071 1.387 . S
C2070 H2074 0.950 . S
C2070 C2079 1.390 . S
C2071 C2070 1.387 . S
C2071 C2073 1.387 1_545 S
H2072 C2079 0.950 . S
C2073 C2071 1.387 1_565 S
C2073 C2075 1.390 . S
C2073 H2077 0.950 . S
H2074 C2070 0.950 . S
C2075 C2073 1.390 . S
C2075 C2076 1.387 1_565 S
C2075 H2078 0.950 . S
C2076 C2075 1.387 1_545 S
C2076 C2079 1.387 . S
H2077 C2073 0.950 . S
H2078 C2075 0.950 . S
C2079 C2070 1.390 . S
C2079 H2072 0.950 . S
C2079 C2076 1.387 . S
C2080 C2081 1.386 1_655 S
C2080 H2084 0.950 . S
C2080 C2089 1.390 1_554 S
C2081 C2080 1.386 1_455 S
C2081 C2083 1.389 . S
H2082 C2089 0.950 . S
C2083 C2081 1.389 . S
C2083 C2085 1.390 1_554 S
C2083 H2087 0.950 . S
H2084 C2080 0.950 . S
C2085 C2083 1.390 1_556 S
C2085 C2086 1.386 1_455 S
C2085 H2088 0.950 . S
C2086 C2085 1.386 1_655 S
C2086 C2089 1.389 . S
H2087 C2083 0.950 . S
H2088 C2085 0.950 . S
C2089 C2080 1.390 1_556 S
C2089 H2082 0.950 . S
C2089 C2086 1.389 . S
C2090 C2091 1.387 . S
C2090 H2094 0.950 . S
C2090 C2099 1.390 1_556 S
C2091 C2090 1.387 . S
C2091 C2093 1.387 . S
H2092 C2099 0.950 . S
C2093 C2091 1.387 . S
C2093 C2095 1.390 1_556 S
C2093 H2097 0.950 . S
H2094 C2090 0.950 . S
C2095 C2093 1.390 1_554 S
C2095 C2096 1.387 . S
C2095 H2098 0.950 . S
C2096 C2095 1.387 . S
C2096 C2099 1.387 . S
H2097 C2093 0.950 . S
H2098 C2095 0.950 . S
C2099 C2090 1.390 1_554 S
C2099 H2092 0.950 . S
C2099 C2096 1.387 . S
C2100 C2101 1.390 . S
C2100 H2104 0.950 . S
C2100 C2109 1.390 . S
C2101 C2100 1.390 . S
C2101 C2103 1.385 1_655 S
H2102 C2109 0.950 . S
C2103 C2101 1.385 1_455 S
C2103 C2105 1.390 . S
C2103 H2107 0.950 . S
H2104 C2100 0.950 . S
C2105 C2103 1.390 . S
C2105 C2106 1.390 . S
C2105 H2108 0.950 . S
C2106 C2105 1.390 . S
C2106 C2109 1.385 1_455 S
H2107 C2103 0.950 . S
H2108 C2105 0.950 . S
C2109 C2100 1.390 . S
C2109 H2102 0.950 . S
C2109 C2106 1.385 1_655 S
C2110 C2111 1.387 . S
C2110 H2114 0.950 . S
C2110 C2119 1.390 . S
C2111 C2110 1.387 . S
C2111 C2113 1.387 . S
H2112 C2119 0.950 . S
C2113 C2111 1.387 . S
C2113 C2115 1.390 . S
C2113 H2117 0.950 . S
H2114 C2110 0.950 . S
C2115 C2113 1.390 . S
C2115 C2116 1.387 . S
C2115 H2118 0.950 . S
C2116 C2115 1.387 . S
C2116 C2119 1.387 . S
H2117 C2113 0.950 . S
H2118 C2115 0.950 . S
C2119 C2110 1.390 . S
C2119 H2112 0.950 . S
C2119 C2116 1.387 . S
C2120 C2121 1.387 . S
C2120 H2124 0.950 . S
C2120 C2129 1.390 1_556 S
C2121 C2120 1.387 . S
C2121 C2123 1.387 . S
H2122 C2129 0.950 . S
C2123 C2121 1.387 . S
C2123 C2125 1.390 1_556 S
C2123 H2127 0.950 . S
H2124 C2120 0.950 . S
C2125 C2123 1.390 1_554 S
C2125 C2126 1.387 . S
C2125 H2128 0.950 . S
C2126 C2125 1.387 . S
C2126 C2129 1.387 . S
H2127 C2123 0.950 . S
H2128 C2125 0.950 . S
C2129 C2120 1.390 1_554 S
C2129 H2122 0.950 . S
C2129 C2126 1.387 . S
C2130 C2131 1.392 . S
C2130 H2134 0.950 . S
C2130 C2139 1.390 . S
C2131 C2130 1.392 . S
C2131 C2133 1.383 1_655 S
H2132 C2139 0.950 . S
C2133 C2131 1.383 1_455 S
C2133 C2135 1.390 . S
C2133 H2137 0.950 . S
H2134 C2130 0.950 . S
C2135 C2133 1.390 . S
C2135 C2136 1.392 . S
C2135 H2138 0.950 . S
C2136 C2135 1.392 . S
C2136 C2139 1.383 1_455 S
H2137 C2133 0.950 . S
H2138 C2135 0.950 . S
C2139 C2130 1.390 . S
C2139 H2132 0.950 . S
C2139 C2136 1.383 1_655 S
C2140 C2141 1.387 . S
C2140 H2144 0.950 . S
C2140 C2149 1.390 . S
C2141 C2140 1.387 . S
C2141 C2143 1.387 . S
H2142 C2149 0.950 . S
C2143 C2141 1.387 . S
C2143 C2145 1.390 . S
C2143 H2147 0.950 . S
H2144 C2140 0.950 . S
C2145 C2143 1.390 . S
C2145 C2146 1.387 . S
C2145 H2148 0.950 . S
C2146 C2145 1.387 . S
C2146 C2149 1.387 . S
H2147 C2143 0.950 . S
H2148 C2145 0.950 . S
C2149 C2140 1.390 . S
C2149 H2142 0.950 . S
C2149 C2146 1.387 . S
C2150 C2151 1.386 1_645 S
C2150 H2154 0.950 . S
C2150 C2159 1.390 . S
C2151 C2150 1.386 1_465 S
C2151 C2153 1.389 . S
H2152 C2159 0.950 . S
C2153 C2151 1.389 . S
C2153 C2155 1.390 . S
C2153 H2157 0.950 . S
H2154 C2150 0.950 . S
C2155 C2153 1.390 . S
C2155 C2156 1.386 1_465 S
C2155 H2158 0.950 . S
C2156 C2155 1.386 1_645 S
C2156 C2159 1.389 . S
H2157 C2153 0.950 . S
H2158 C2155 0.950 . S
C2159 C2150 1.390 . S
C2159 H2152 0.950 . S
C2159 C2156 1.389 . S
C2160 C2161 1.387 . S
C2160 H2164 0.950 . S
C2160 C2169 1.390 . S
C2161 C2160 1.387 . S
C2161 C2163 1.387 . S
H2162 C2169 0.950 . S
C2163 C2161 1.387 . S
C2163 C2165 1.390 . S
C2163 H2167 0.950 . S
H2164 C2160 0.950 . S
C2165 C2163 1.390 . S
C2165 C2166 1.387 . S
C2165 H2168 0.950 . S
C2166 C2165 1.387 . S
C2166 C2169 1.387 . S
H2167 C2163 0.950 . S
H2168 C2165 0.950 . S
C2169 C2160 1.390 . S
C2169 H2162 0.950 . S
C2169 C2166 1.387 . S
C2170 C2171 1.387 . S
C2170 H2174 0.950 . S
C2170 C2179 1.390 . S
C2171 C2170 1.387 . S
C2171 C2173 1.387 1_545 S
H2172 C2179 0.950 . S
C2173 C2171 1.387 1_565 S
C2173 C2175 1.390 . S
C2173 H2177 0.950 . S
H2174 C2170 0.950 . S
C2175 C2173 1.390 . S
C2175 C2176 1.387 . S
C2175 H2178 0.950 . S
C2176 C2175 1.387 . S
C2176 C2179 1.387 1_565 S
H2177 C2173 0.950 . S
H2178 C2175 0.950 . S
C2179 C2170 1.390 . S
C2179 H2172 0.950 . S
C2179 C2176 1.387 1_545 S
C2180 C2181 1.387 . S
C2180 H2184 0.950 . S
C2180 C2189 1.390 . S
C2181 C2180 1.387 . S
C2181 C2183 1.387 . S
H2182 C2189 0.950 . S
C2183 C2181 1.387 . S
C2183 C2185 1.390 . S
C2183 H2187 0.950 . S
H2184 C2180 0.950 . S
C2185 C2183 1.390 . S
C2185 C2186 1.387 . S
C2185 H2188 0.950 . S
C2186 C2185 1.387 . S
C2186 C2189 1.387 . S
H2187 C2183 0.950 . S
H2188 C2185 0.950 . S
C2189 C2180 1.390 . S
C2189 H2182 0.950 . S
C2189 C2186 1.387 . S
C2190 C2191 1.387 1_545 S
C2190 H2194 0.950 . S
C2190 C2199 1.390 . S
C2191 C2190 1.387 1_565 S
C2191 C2193 1.387 . S
H2192 C2199 0.950 . S
C2193 C2191 1.387 . S
C2193 C2195 1.390 . S
C2193 H2197 0.950 . S
H2194 C2190 0.950 . S
C2195 C2193 1.390 . S
C2195 C2196 1.387 1_565 S
C2195 H2198 0.950 . S
C2196 C2195 1.387 1_545 S
C2196 C2199 1.387 . S
H2197 C2193 0.950 . S
H2198 C2195 0.950 . S
C2199 C2190 1.390 . S
C2199 H2192 0.950 . S
C2199 C2196 1.387 . S
C2200 C2201 1.387 . S
C2200 H2204 0.950 . S
C2200 C2209 1.390 . S
C2201 C2200 1.387 . S
C2201 C2203 1.387 . S
H2202 C2209 0.950 . S
C2203 C2201 1.387 . S
C2203 C2205 1.390 . S
C2203 H2207 0.950 . S
H2204 C2200 0.950 . S
C2205 C2203 1.390 . S
C2205 C2206 1.387 . S
C2205 H2208 0.950 . S
C2206 C2205 1.387 . S
C2206 C2209 1.387 . S
H2207 C2203 0.950 . S
H2208 C2205 0.950 . S
C2209 C2200 1.390 . S
C2209 H2202 0.950 . S
C2209 C2206 1.387 . S
C2210 C2211 1.387 . S
C2210 H2214 0.950 . S
C2210 C2219 1.390 . S
C2211 C2210 1.387 . S
C2211 C2213 1.387 . S
H2212 C2219 0.950 . S
C2213 C2211 1.387 . S
C2213 C2215 1.390 . S
C2213 H2217 0.950 . S
H2214 C2210 0.950 . S
C2215 C2213 1.390 . S
C2215 C2216 1.387 . S
C2215 H2218 0.950 . S
C2216 C2215 1.387 . S
C2216 C2219 1.387 . S
H2217 C2213 0.950 . S
H2218 C2215 0.950 . S
C2219 C2210 1.390 . S
C2219 H2212 0.950 . S
C2219 C2216 1.387 . S
C2220 C2221 1.387 . S
C2220 H2224 0.950 . S
C2220 C2229 1.390 . S
C2221 C2220 1.387 . S
C2221 C2223 1.387 . S
H2222 C2229 0.950 . S
C2223 C2221 1.387 . S
C2223 C2225 1.390 . S
C2223 H2227 0.950 . S
H2224 C2220 0.950 . S
C2225 C2223 1.390 . S
C2225 C2226 1.387 . S
C2225 H2228 0.950 . S
C2226 C2225 1.387 . S
C2226 C2229 1.387 . S
H2227 C2223 0.950 . S
H2228 C2225 0.950 . S
C2229 C2220 1.390 . S
C2229 H2222 0.950 . S
C2229 C2226 1.387 . S
C2230 C2231 1.387 . S
C2230 H2234 0.950 . S
C2230 C2239 1.390 1_554 S
C2231 C2230 1.387 . S
C2231 C2233 1.387 1_565 S
H2232 C2239 0.950 . S
C2233 C2231 1.387 1_545 S
C2233 C2235 1.390 1_554 S
C2233 H2237 0.950 . S
H2234 C2230 0.950 . S
C2235 C2233 1.390 1_556 S
C2235 C2236 1.387 . S
C2235 H2238 0.950 . S
C2236 C2235 1.387 . S
C2236 C2239 1.387 1_545 S
H2237 C2233 0.950 . S
H2238 C2235 0.950 . S
C2239 C2230 1.390 1_556 S
C2239 H2232 0.950 . S
C2239 C2236 1.387 1_565 S
C1281 C13 1.746 . S
C1286 C1013 1.746 . S
C1291 C973 1.744 . S
C1296 C53 1.744 . S
C1301 C1093 1.744 . S
C1306 C93 1.744 . S
C1311 C133 1.746 . S
C1316 C1053 1.746 . S
C1321 C184 1.746 . S
C1326 C1184 1.746 . S
C1331 C224 1.744 . S
C1336 C1144 1.744 . S
C1341 C264 1.746 . S
C1346 C1264 1.746 . S
C1351 C1224 1.746 . S
C1356 C304 1.746 . S
C1361 C333 1.746 . S
C1366 C693 1.746 . S
C1371 C373 1.746 . S
C1376 C653 1.746 . S
C1381 C413 1.744 . S
C1386 C773 1.744 . S
C1391 C733 1.746 . S
C1396 C453 1.746 . S
C1401 C504 1.746 . S
C1406 C864 1.746 . S
C1411 C544 1.744 . S
C1416 C824 1.744 . S
C1421 C944 1.744 . S
C1426 C584 1.744 . S
C1431 C624 1.746 . S
C1436 C904 1.746 . S
C1441 C2 1.668 . S
C1446 C122 1.668 . S
C1451 C42 1.668 . S
C1456 C82 1.668 . S
C1461 C303 1.668 . S
C1466 C183 1.668 . S
C1471 C263 1.668 . S
C1476 C223 1.668 . S
C1481 C322 1.668 . S
C1486 C442 1.668 . S
C1491 C362 1.668 . S
C1496 C402 1.668 . S
C1501 C503 1.668 . S
C1506 C623 1.668 . S
C1511 C583 1.668 . S
C1516 C543 1.668 . S
C1521 C642 1.668 . S
C1526 C762 1.668 . S
C1531 C682 1.668 . S
C1536 C722 1.668 . S
C1541 C943 1.668 . S
C1546 C823 1.668 . S
C1551 C863 1.668 . S
C1556 C903 1.668 . S
C1561 C1082 1.668 . S
C1566 C962 1.668 . S
C1571 C1002 1.668 . S
C1576 C1042 1.668 . S
C1581 C1263 1.668 . S
C1586 C1143 1.668 . S
C1591 C1223 1.668 . S
C1596 C1183 1.668 . S
C1601 C64 1.430 . S
C1606 C24 1.430 . S
C1611 C104 1.430 . S
C1616 C144 1.430 . S
C1621 C213 1.430 . S
C1626 C173 1.430 . S
C1631 C293 1.427 . S
C1636 C253 1.427 . S
C1641 C344 1.428 . S
C1646 C384 1.428 . S
C1651 C424 1.430 . S
C1656 C464 1.430 . S
C1661 C533 1.428 . S
C1666 C493 1.428 . S
C1671 C573 1.428 . S
C1676 C613 1.428 . S
C1681 C664 1.427 . S
C1686 C704 1.427 . S
C1691 C784 1.430 . S
C1696 C744 1.430 . S
C1701 C813 1.427 . S
C1706 C853 1.427 . S
C1711 C893 1.427 . S
C1716 C933 1.427 . S
C1721 C984 1.428 . S
C1726 C1024 1.428 . S
C1731 C1064 1.430 . S
C1736 C1104 1.430 . S
C1741 C1173 1.430 . S
C1746 C1133 1.430 . S
C1751 C1213 1.428 . S
C1756 C1253 1.428 . S
C1761 C26 1.432 . S
C1766 C17 1.432 . S
C1771 C66 1.432 . S
C1776 C57 1.432 . S
C1781 C106 1.432 . S
C1786 C97 1.432 . S
C1791 C137 1.433 . S
C1796 C146 1.433 . S
C1801 C186 1.435 . S
C1806 C177 1.435 . S
C1811 C217 1.432 . S
C1816 C226 1.432 . S
C1821 C266 1.434 . S
C1826 C257 1.434 . S
C1831 C306 1.432 . S
C1836 C297 1.432 . S
C1841 C337 1.435 . S
C1846 C346 1.435 . S
C1851 C386 1.432 . S
C1856 C377 1.432 . S
C1861 C426 1.432 . S
C1866 C417 1.432 . S
C1871 C457 1.433 . S
C1876 C466 1.433 . S
C1881 C506 1.432 . S
C1886 C497 1.432 . S
C1891 C537 1.433 . S
C1896 C546 1.433 . S
C1901 C577 1.435 . S
C1906 C586 1.435 . S
C1911 C626 1.433 . S
C1916 C617 1.433 . S
C1921 C666 1.435 . S
C1926 C657 1.435 . S
C1931 C697 1.435 . S
C1936 C706 1.435 . S
C1941 C737 1.435 . S
C1946 C746 1.435 . S
C1951 C786 1.432 . S
C1956 C777 1.432 . S
C1961 C817 1.432 . S
C1966 C826 1.432 . S
C1971 C857 1.435 . S
C1976 C866 1.435 . S
C1981 C906 1.433 . S
C1986 C897 1.433 . S
C1991 C937 1.435 . S
C1996 C946 1.435 . S
C2001 C977 1.433 . S
C2006 C986 1.433 . S
C2011 C1026 1.435 . S
C2016 C1017 1.435 . S
C2021 C1057 1.435 . S
C2026 C1066 1.435 . S
C2031 C1097 1.432 . S
C2036 C1106 1.432 . S
C2041 C1137 1.432 . S
C2046 C1146 1.432 . S
C2051 C1177 1.433 . S
C2056 C1186 1.433 . S
C2061 C1226 1.435 . S
C2066 C1217 1.435 . S
C2071 C1266 1.435 . S
C2076 C1257 1.435 . S
C2081 C23 1.497 . S
C2086 C162 1.497 . S
C2091 C1162 1.496 . S
C2096 C63 1.496 . S
C2101 C562 1.497 . S
C2106 C103 1.497 . S
C2111 C143 1.496 . S
C2116 C922 1.496 . S
C2121 C202 1.495 . S
C2126 C1023 1.495 . S
C2131 C242 1.497 . S
C2136 C423 1.497 . S
C2141 C282 1.496 . S
C2146 C783 1.496 . S
C2151 C343 1.497 . S
C2156 C482 1.497 . S
C2161 C842 1.496 . S
C2166 C383 1.496 . S
C2171 C1242 1.496 . S
C2176 C463 1.496 . S
C2181 C522 1.496 . S
C2186 C703 1.496 . S
C2191 C1103 1.496 . S
C2196 C602 1.496 . S
C2201 C663 1.496 . S
C2206 C802 1.496 . S
C2211 C1202 1.495 . S
C2216 C743 1.495 . S
C2221 C882 1.496 . S
C2226 C1063 1.496 . S
C2231 C983 1.495 . S
C2236 C1122 1.495 . S
