# Generated by pormake.
# Topology smg, (6)-cn, num edge types: 1
# Building blocks:
#     Node 0, Type 0, BuildingBlock: IZENUY_clean_sbu_0, # of connection points: 6
#     Node 1, Type 0, BuildingBlock: IZENUY_clean_sbu_0, # of connection points: 6
#     Node 2, Type 0, BuildingBlock: IZENUY_clean_sbu_0, # of connection points: 6
#     Node 3, Type 0, BuildingBlock: IZENUY_clean_sbu_0, # of connection points: 6
#     Node 4, Type 0, BuildingBlock: IZENUY_clean_sbu_0, # of connection points: 6
#     Node 5, Type 0, BuildingBlock: IZENUY_clean_sbu_0, # of connection points: 6
#     Node 6, Type 0, BuildingBlock: IZENUY_clean_sbu_0, # of connection points: 6
#     Node 7, Type 0, BuildingBlock: IZENUY_clean_sbu_0, # of connection points: 6
#     Node 8, Type 0, BuildingBlock: IZENUY_clean_sbu_0, # of connection points: 6
#     Node 9, Type 0, BuildingBlock: IZENUY_clean_sbu_0, # of connection points: 6
#     Node 10, Type 0, BuildingBlock: IZENUY_clean_sbu_0, # of connection points: 6
#     Node 11, Type 0, BuildingBlock: IZENUY_clean_sbu_0, # of connection points: 6
#     Node 12, Type 0, BuildingBlock: IZENUY_clean_sbu_0, # of connection points: 6
#     Node 13, Type 0, BuildingBlock: IZENUY_clean_sbu_0, # of connection points: 6
#     Node 14, Type 0, BuildingBlock: IZENUY_clean_sbu_0, # of connection points: 6
#     Node 15, Type 0, BuildingBlock: IZENUY_clean_sbu_0, # of connection points: 6
#     Node 16, Type 0, BuildingBlock: IZENUY_clean_sbu_0, # of connection points: 6
#     Node 17, Type 0, BuildingBlock: IZENUY_clean_sbu_0, # of connection points: 6
#     Edge 18, Type (0, 0), BuildingBlock: UVAHIK_clean_linker_0, # of connection points: 2
#     Edge 19, Type (0, 0), BuildingBlock: UVAHIK_clean_linker_0, # of connection points: 2
#     Edge 20, Type (0, 0), BuildingBlock: UVAHIK_clean_linker_0, # of connection points: 2
#     Edge 21, Type (0, 0), BuildingBlock: UVAHIK_clean_linker_0, # of connection points: 2
#     Edge 22, Type (0, 0), BuildingBlock: UVAHIK_clean_linker_0, # of connection points: 2
#     Edge 23, Type (0, 0), BuildingBlock: UVAHIK_clean_linker_0, # of connection points: 2
#     Edge 24, Type (0, 0), BuildingBlock: UVAHIK_clean_linker_0, # of connection points: 2
#     Edge 25, Type (0, 0), BuildingBlock: UVAHIK_clean_linker_0, # of connection points: 2
#     Edge 26, Type (0, 0), BuildingBlock: UVAHIK_clean_linker_0, # of connection points: 2
#     Edge 27, Type (0, 0), BuildingBlock: UVAHIK_clean_linker_0, # of connection points: 2
#     Edge 28, Type (0, 0), BuildingBlock: UVAHIK_clean_linker_0, # of connection points: 2
#     Edge 29, Type (0, 0), BuildingBlock: UVAHIK_clean_linker_0, # of connection points: 2
#     Edge 30, Type (0, 0), BuildingBlock: UVAHIK_clean_linker_0, # of connection points: 2
#     Edge 31, Type (0, 0), BuildingBlock: UVAHIK_clean_linker_0, # of connection points: 2
#     Edge 32, Type (0, 0), BuildingBlock: UVAHIK_clean_linker_0, # of connection points: 2
#     Edge 33, Type (0, 0), BuildingBlock: UVAHIK_clean_linker_0, # of connection points: 2
#     Edge 34, Type (0, 0), BuildingBlock: UVAHIK_clean_linker_0, # of connection points: 2
#     Edge 35, Type (0, 0), BuildingBlock: UVAHIK_clean_linker_0, # of connection points: 2
#     Edge 36, Type (0, 0), BuildingBlock: UVAHIK_clean_linker_0, # of connection points: 2
#     Edge 37, Type (0, 0), BuildingBlock: UVAHIK_clean_linker_0, # of connection points: 2
#     Edge 38, Type (0, 0), BuildingBlock: UVAHIK_clean_linker_0, # of connection points: 2
#     Edge 39, Type (0, 0), BuildingBlock: UVAHIK_clean_linker_0, # of connection points: 2
#     Edge 40, Type (0, 0), BuildingBlock: UVAHIK_clean_linker_0, # of connection points: 2
#     Edge 41, Type (0, 0), BuildingBlock: UVAHIK_clean_linker_0, # of connection points: 2
#     Edge 42, Type (0, 0), BuildingBlock: UVAHIK_clean_linker_0, # of connection points: 2
#     Edge 43, Type (0, 0), BuildingBlock: UVAHIK_clean_linker_0, # of connection points: 2
#     Edge 44, Type (0, 0), BuildingBlock: UVAHIK_clean_linker_0, # of connection points: 2
#     Edge 45, Type (0, 0), BuildingBlock: UVAHIK_clean_linker_0, # of connection points: 2
#     Edge 46, Type (0, 0), BuildingBlock: UVAHIK_clean_linker_0, # of connection points: 2
#     Edge 47, Type (0, 0), BuildingBlock: UVAHIK_clean_linker_0, # of connection points: 2
#     Edge 48, Type (0, 0), BuildingBlock: UVAHIK_clean_linker_0, # of connection points: 2
#     Edge 49, Type (0, 0), BuildingBlock: UVAHIK_clean_linker_0, # of connection points: 2
#     Edge 50, Type (0, 0), BuildingBlock: UVAHIK_clean_linker_0, # of connection points: 2
#     Edge 51, Type (0, 0), BuildingBlock: UVAHIK_clean_linker_0, # of connection points: 2
#     Edge 52, Type (0, 0), BuildingBlock: UVAHIK_clean_linker_0, # of connection points: 2
#     Edge 53, Type (0, 0), BuildingBlock: UVAHIK_clean_linker_0, # of connection points: 2
#     Edge 54, Type (0, 0), BuildingBlock: UVAHIK_clean_linker_0, # of connection points: 2
#     Edge 55, Type (0, 0), BuildingBlock: UVAHIK_clean_linker_0, # of connection points: 2
#     Edge 56, Type (0, 0), BuildingBlock: UVAHIK_clean_linker_0, # of connection points: 2
#     Edge 57, Type (0, 0), BuildingBlock: UVAHIK_clean_linker_0, # of connection points: 2
#     Edge 58, Type (0, 0), BuildingBlock: UVAHIK_clean_linker_0, # of connection points: 2
#     Edge 59, Type (0, 0), BuildingBlock: UVAHIK_clean_linker_0, # of connection points: 2
#     Edge 60, Type (0, 0), BuildingBlock: UVAHIK_clean_linker_0, # of connection points: 2
#     Edge 61, Type (0, 0), BuildingBlock: UVAHIK_clean_linker_0, # of connection points: 2
#     Edge 62, Type (0, 0), BuildingBlock: UVAHIK_clean_linker_0, # of connection points: 2
#     Edge 63, Type (0, 0), BuildingBlock: UVAHIK_clean_linker_0, # of connection points: 2
#     Edge 64, Type (0, 0), BuildingBlock: UVAHIK_clean_linker_0, # of connection points: 2
#     Edge 65, Type (0, 0), BuildingBlock: UVAHIK_clean_linker_0, # of connection points: 2
#     Edge 66, Type (0, 0), BuildingBlock: UVAHIK_clean_linker_0, # of connection points: 2
#     Edge 67, Type (0, 0), BuildingBlock: UVAHIK_clean_linker_0, # of connection points: 2
#     Edge 68, Type (0, 0), BuildingBlock: UVAHIK_clean_linker_0, # of connection points: 2
#     Edge 69, Type (0, 0), BuildingBlock: UVAHIK_clean_linker_0, # of connection points: 2
#     Edge 70, Type (0, 0), BuildingBlock: UVAHIK_clean_linker_0, # of connection points: 2
#     Edge 71, Type (0, 0), BuildingBlock: UVAHIK_clean_linker_0, # of connection points: 2
# Relax obj value: 0.247
# Max RMSD: 0.243
# Mean RMSD: 0.241
data_MOF--net-smg--node1-IZENUY_clean_sbu_0--edge1-UVAHIK_clean_linker_0
_symmetry_space_group_name_H-M    P1
_symmetry_Int_Tables_number       1
_symmetry_cell_setting            triclinic
loop_
_symmetry_equiv_pos_as_xyz
'x, y, z'
_cell_length_a     58.852562
_cell_length_b     58.876016
_cell_length_c     53.632476
_cell_angle_alpha  90.055974
_cell_angle_beta   89.926434
_cell_angle_gamma 119.89829
loop_
_atom_site_label
_atom_site_type_symbol
_atom_site_fract_x
_atom_site_fract_y
_atom_site_fract_z
_atom_type_partial_charge
Fe0 Fe 0.0337 0.58657 0.25382 0.0
Fe1 Fe 0.00702 0.61798 0.2407 0.0
O2 O 0.00697 0.58806 0.24067 0.0
Fe3 Fe 0.98021 0.55995 0.2275 0.0
O4 O 0.97324 0.54267 0.25662 0.0
O5 O 0.01367 0.5525 0.26515 0.0
O6 O 0.02832 0.59691 0.28389 0.0
C7 C 0.02908 0.61839 0.28734 0.0
C8 C 0.02474 0.55643 0.21235 0.0
O9 O 0.02653 0.63066 0.26924 0.0
C10 C 0.98502 0.59644 0.194 0.0
O11 O 0.05846 0.62048 0.24454 0.0
O12 O 0.03569 0.63271 0.22122 0.0
O13 O 0.0002 0.54575 0.21613 0.0
O14 O 0.04065 0.57618 0.22469 0.0
C15 C 0.95671 0.58474 0.25394 0.0
O16 O 0.98764 0.61128 0.21213 0.0
O17 O 0.9855 0.57556 0.19744 0.0
C18 C 0.05719 0.63446 0.22713 0.0
O19 O 0.97824 0.60425 0.26015 0.0
O20 O 0.95558 0.56933 0.23673 0.0
C21 C 0.98914 0.53875 0.26893 0.0
Fe22 Fe 0.4385 0.45479 0.24665 0.0
Fe23 Fe 0.46949 0.43046 0.22408 0.0
O24 O 0.44036 0.42705 0.23725 0.0
Fe25 Fe 0.413 0.39553 0.24101 0.0
O26 O 0.39385 0.40317 0.22038 0.0
O27 O 0.40349 0.44073 0.23794 0.0
O28 O 0.44608 0.46833 0.21569 0.0
C29 C 0.46658 0.47363 0.20384 0.0
C30 C 0.41147 0.42155 0.28447 0.0
O31 O 0.47978 0.46264 0.20946 0.0
C32 C 0.45153 0.38628 0.25563 0.0
O33 O 0.4731 0.47338 0.25674 0.0
O34 O 0.4876 0.44558 0.2521 0.0
O35 O 0.39995 0.40359 0.26854 0.0
O36 O 0.43083 0.44316 0.2784 0.0
C37 C 0.4328 0.39294 0.1942 0.0
O38 O 0.46453 0.3989 0.23657 0.0
O39 O 0.43111 0.38661 0.26196 0.0
C40 C 0.48915 0.46562 0.26224 0.0
O41 O 0.45268 0.41551 0.19529 0.0
O42 O 0.42057 0.38147 0.21386 0.0
C43 C 0.38939 0.4218 0.22336 0.0
Fe44 Fe 0.57894 0.0265 0.23902 0.0
Fe45 Fe 0.54568 0.97002 0.25795 0.0
O46 O 0.57604 0.99619 0.24758 0.0
Fe47 Fe 0.60356 0.99196 0.24565 0.0
O48 O 0.62132 0.01783 0.26776 0.0
O49 O 0.61345 0.04658 0.2495 0.0
O50 O 0.56945 0.03086 0.26978 0.0
C51 C 0.54804 0.01516 0.28006 0.0
C52 C 0.60784 0.02099 0.20246 0.0
O53 O 0.5349 0.9915 0.27278 0.0
C54 C 0.56614 0.94522 0.22732 0.0
O55 O 0.54499 0.01181 0.22714 0.0
O56 O 0.53016 0.96937 0.22874 0.0
O57 O 0.61837 0.01401 0.21903 0.0
O58 O 0.58856 0.02387 0.20763 0.0
C59 C 0.57917 0.96641 0.29037 0.0
O60 O 0.55109 0.94384 0.24498 0.0
O61 O 0.58731 0.96603 0.22331 0.0
C62 C 0.52916 0.98864 0.21983 0.0
O63 O 0.55951 0.96929 0.28773 0.0
O64 O 0.59387 0.96913 0.27202 0.0
C65 C 0.62677 0.04118 0.26457 0.0
Fe66 Fe 0.03074 0.45818 0.7609 0.0
Fe67 Fe 0.9783 0.43137 0.73285 0.0
O68 O 0.00591 0.43076 0.74494 0.0
Fe69 Fe 0.00869 0.40247 0.741 0.0
O70 O 0.04447 0.4199 0.74033 0.0
O71 O 0.05557 0.46139 0.73849 0.0
O72 O 0.02726 0.48232 0.7424 0.0
C73 C 0.01787 0.48074 0.72084 0.0
C74 C 0.0245 0.4149 0.78903 0.0
O75 O -0.00105 0.4594 0.71304 0.0
C76 C 0.9552 0.38147 0.75129 0.0
O77 O 0.00764 0.45689 0.78419 0.0
O78 O 0.97736 0.45244 0.75749 0.0
O79 O 0.00812 0.39782 0.7744 0.0
O80 O 0.03836 0.43859 0.7823 0.0
C81 C 0.99104 0.40588 0.69525 0.0
O82 O 0.95601 0.40332 0.75207 0.0
O83 O 0.97347 0.37957 0.74097 0.0
C84 C 0.98687 0.45732 0.77929 0.0
O85 O 0.97453 0.41045 0.706 0.0
O86 O 0.00934 0.40579 0.70739 0.0
C87 C 0.06042 0.44319 0.73411 0.0
Fe88 Fe 0.62594 0.60822 0.74048 0.0
Fe89 Fe 0.58775 0.55304 0.72236 0.0
O90 O 0.59359 0.58205 0.7377 0.0
Fe91 Fe 0.56743 0.58491 0.75046 0.0
O92 O 0.58132 0.5905 0.78152 0.0
O93 O 0.62064 0.62049 0.76991 0.0
O94 O 0.63492 0.58825 0.75865 0.0
C95 C 0.63352 0.56751 0.75063 0.0
C96 C 0.60097 0.63498 0.72882 0.0
O97 O 0.61922 0.55561 0.73199 0.0
C98 C 0.54539 0.55985 0.70682 0.0
O99 O 0.63753 0.60103 0.71139 0.0
O100 O 0.60161 0.5706 0.69364 0.0
O101 O 0.58264 0.62045 0.74381 0.0
O102 O 0.61828 0.62938 0.72268 0.0
C103 C 0.55494 0.53298 0.76231 0.0
O104 O 0.55533 0.54526 0.71011 0.0
O105 O 0.55191 0.57955 0.72044 0.0
C106 C 0.6249 0.58912 0.69207 0.0
O107 O 0.57377 0.53405 0.75018 0.0
O108 O 0.54781 0.5499 0.75909 0.0
C109 C 0.60398 0.60868 0.78687 0.0
Fe110 Fe 0.45708 0.03406 0.73877 0.0
Fe111 Fe 0.39815 0.00534 0.74914 0.0
O112 O 0.42887 0.00719 0.75183 0.0
Fe113 Fe 0.43108 0.98186 0.76744 0.0
O114 O 0.44308 0.97408 0.73968 0.0
O115 O 0.47277 0.0146 0.73021 0.0
O116 O 0.44301 0.02702 0.70783 0.0
C117 C 0.42147 0.02539 0.7024 0.0
C118 C 0.47738 0.02812 0.78229 0.0
O119 O 0.40513 0.02231 0.71921 0.0
C120 C 0.39749 0.9875 0.79805 0.0
O121 O 0.44613 0.05813 0.74501 0.0
O122 O 0.40944 0.03536 0.76614 0.0
O123 O 0.46455 0.00346 0.7793 0.0
O124 O 0.47305 0.04296 0.7687 0.0
C125 C 0.38423 0.95484 0.73972 0.0
O126 O 0.38534 0.98806 0.7788 0.0
O127 O 0.41919 0.98828 0.79614 0.0
C128 C 0.42839 0.05703 0.75937 0.0
O129 O 0.38536 0.97539 0.73165 0.0
O130 O 0.39791 0.95554 0.75828 0.0
C131 C 0.46295 0.99002 0.7274 0.0
Fe132 Fe 0.70506 0.92294 0.59267 0.0
Fe133 Fe 0.67519 0.95122 0.57974 0.0
O134 O 0.67665 0.92207 0.58086 0.0
Fe135 Fe 0.64989 0.89229 0.57029 0.0
O136 O 0.64613 0.87715 0.60039 0.0
O137 O 0.68767 0.88935 0.60529 0.0
O138 O 0.7005 0.9339 0.62269 0.0
C139 C 0.6999 0.95479 0.62568 0.0
C140 C 0.69494 0.8913 0.5523 0.0
O141 O 0.69595 0.96595 0.60738 0.0
C142 C 0.65045 0.92562 0.53498 0.0
O143 O 0.72781 0.95677 0.58205 0.0
O144 O 0.7028 0.96599 0.55878 0.0
O145 O 0.67073 0.87928 0.55811 0.0
O146 O 0.71092 0.91208 0.56333 0.0
C147 C 0.62635 0.91701 0.59679 0.0
O148 O 0.65411 0.94197 0.55203 0.0
O149 O 0.65185 0.90542 0.53955 0.0
C150 C 0.72509 0.96953 0.56436 0.0
O151 O 0.64764 0.9378 0.60063 0.0
O152 O 0.62464 0.90045 0.58059 0.0
C153 C 0.66383 0.87502 0.61141 0.0
Fe154 Fe 0.13628 0.76809 0.56352 0.0
Fe155 Fe 0.10576 0.79166 0.58869 0.0
O156 O 0.10678 0.76456 0.57577 0.0
Fe157 Fe 0.0781 0.73361 0.57496 0.0
O158 O 0.09284 0.71995 0.59481 0.0
O159 O 0.12868 0.73446 0.57225 0.0
O160 O 0.15206 0.77836 0.59331 0.0
C161 C 0.15376 0.79701 0.60619 0.0
C162 C 0.10191 0.73598 0.52884 0.0
O163 O 0.13942 0.80704 0.60156 0.0
C164 C 0.05901 0.765 0.56033 0.0
O165 O 0.14921 0.8023 0.55287 0.0
O166 O 0.11663 0.80957 0.55991 0.0
O167 O 0.08715 0.72256 0.54658 0.0
O168 O 0.12189 0.75789 0.53292 0.0
C169 C 0.07426 0.75384 0.62143 0.0
O170 O 0.07184 0.78075 0.5779 0.0
O171 O 0.0623 0.74601 0.55504 0.0
C172 C 0.13743 0.81503 0.54856 0.0
O173 O 0.09477 0.77554 0.6184 0.0
O174 O 0.06345 0.73866 0.60315 0.0
C175 C 0.11339 0.71955 0.58918 0.0
Fe176 Fe 0.23574 0.33801 0.58309 0.0
Fe177 Fe 0.29458 0.3689 0.5729 0.0
O178 O 0.26344 0.36617 0.57113 0.0
Fe179 Fe 0.26037 0.39179 0.55746 0.0
O180 O 0.2477 0.39728 0.58603 0.0
O181 O 0.2189 0.35587 0.59335 0.0
O182 O 0.24991 0.34393 0.61397 0.0
C183 C 0.27172 0.34587 0.6188 0.0
C184 C 0.21493 0.34569 0.54074 0.0
O185 O 0.28781 0.34959 0.60151 0.0
C186 C 0.295 0.38962 0.52567 0.0
O187 O 0.24799 0.31534 0.57472 0.0
O188 O 0.28396 0.3405 0.55344 0.0
O189 O 0.2272 0.37014 0.54505 0.0
O190 O 0.21972 0.33039 0.55311 0.0
C191 C 0.30699 0.41817 0.58581 0.0
O192 O 0.30739 0.38872 0.54452 0.0
O193 O 0.27277 0.38755 0.52803 0.0
C194 C 0.26509 0.31814 0.55859 0.0
O195 O 0.30641 0.39741 0.59249 0.0
O196 O 0.29314 0.41812 0.56764 0.0
C197 C 0.22782 0.38014 0.59748 0.0
Fe198 Fe 0.69143 0.786 0.08831 0.0
Fe199 Fe 0.66419 0.72729 0.07748 0.0
O200 O 0.66563 0.75791 0.07397 0.0
Fe201 Fe 0.64145 0.76017 0.05629 0.0
O202 O 0.64118 0.78534 0.07604 0.0
O203 O 0.66848 0.79128 0.10673 0.0
O204 O 0.69371 0.76802 0.11506 0.0
C205 C 0.67664 0.74651 0.12459 0.0
C206 C 0.68575 0.80554 0.04206 0.0
O207 O 0.66037 0.72803 0.11099 0.0
C208 C 0.65285 0.72625 0.02818 0.0
O209 O 0.71599 0.78233 0.07048 0.0
O210 O 0.69954 0.74104 0.08039 0.0
O211 O 0.66577 0.78454 0.0353 0.0
O212 O 0.6935 0.80894 0.0644 0.0
C213 C 0.61114 0.71324 0.07962 0.0
O214 O 0.66784 0.72499 0.04426 0.0
O215 O 0.6379 0.73531 0.03359 0.0
C216 C 0.71784 0.76186 0.07116 0.0
O217 O 0.62868 0.70752 0.07509 0.0
O218 O 0.61506 0.73605 0.07595 0.0
C219 C 0.6489 0.79216 0.09823 0.0
Fe220 Fe 0.24252 0.90367 0.07215 0.0
Fe221 Fe 0.20891 0.92544 0.09383 0.0
O222 O 0.23936 0.93045 0.08264 0.0
Fe223 Fe 0.26659 0.96245 0.08201 0.0
O224 O 0.28455 0.95343 0.1029 0.0
O225 O 0.27676 0.91737 0.08334 0.0
O226 O 0.23233 0.88751 0.10197 0.0
C227 C 0.21084 0.8813 0.11237 0.0
C228 C 0.27219 0.94024 0.03734 0.0
O229 O 0.1979 0.89232 0.10614 0.0
C230 C 0.22868 0.97214 0.06597 0.0
O231 O 0.20887 0.8856 0.05912 0.0
O232 O 0.19374 0.91283 0.06409 0.0
O233 O 0.28193 0.95718 0.05449 0.0
O234 O 0.25292 0.9179 0.04159 0.0
C235 C 0.24201 0.96045 0.12767 0.0
O236 O 0.21415 0.95766 0.08341 0.0
O237 O 0.25003 0.97317 0.06096 0.0
C238 C 0.19333 0.8938 0.0529 0.0
O239 O 0.22275 0.93786 0.1242 0.0
O240 O 0.25641 0.9737 0.10962 0.0
C241 C 0.28986 0.9355 0.09903 0.0
Fe242 Fe 0.07061 0.34586 0.07842 0.0
Fe243 Fe 0.12833 0.37099 0.06414 0.0
O244 O 0.09949 0.34407 0.07626 0.0
Fe245 Fe 0.09956 0.3155 0.0862 0.0
O246 O 0.09033 0.31876 0.11757 0.0
O247 O 0.05825 0.32536 0.10634 0.0
O248 O 0.08618 0.37356 0.09911 0.0
C249 C 0.10596 0.39496 0.09328 0.0
C250 C 0.05007 0.29576 0.06236 0.0
O251 O 0.12065 0.39619 0.07538 0.0
C252 C 0.1293 0.32668 0.04435 0.0
O253 O 0.07753 0.36647 0.05065 0.0
O254 O 0.11274 0.3683 0.03449 0.0
O255 O 0.06512 0.29267 0.0772 0.0
O256 O 0.05353 0.31825 0.05802 0.0
C257 C 0.1483 0.35725 0.10318 0.0
O258 O 0.14119 0.35069 0.05061 0.0
O259 O 0.10873 0.31043 0.0555 0.0
C260 C 0.09172 0.36879 0.03197 0.0
O261 O 0.14533 0.37496 0.09319 0.0
O262 O 0.13394 0.33338 0.09696 0.0
C263 C 0.07005 0.31984 0.12285 0.0
Fe264 Fe 0.36207 0.24979 0.91588 0.0
Fe265 Fe 0.33713 0.28375 0.90653 0.0
O266 O 0.33686 0.25377 0.90249 0.0
Fe267 Fe 0.31149 0.22803 0.88519 0.0
O268 O 0.3109 0.20184 0.90403 0.0
O269 O 0.33863 0.2223 0.93457 0.0
O270 O 0.3664 0.27056 0.94292 0.0
C271 C 0.35072 0.27666 0.95306 0.0
C272 C 0.35421 0.22509 0.86913 0.0
O273 O 0.33445 0.27954 0.94009 0.0
C274 C 0.32352 0.27376 0.85762 0.0
O275 O 0.38692 0.27711 0.89775 0.0
O276 O 0.37282 0.30397 0.90824 0.0
O277 O 0.33464 0.22725 0.86315 0.0
O278 O 0.36217 0.22829 0.89141 0.0
C279 C 0.28358 0.24638 0.91034 0.0
O280 O 0.33976 0.28952 0.87324 0.0
O281 O 0.30796 0.25002 0.86333 0.0
C282 C 0.39017 0.29994 0.89884 0.0
O283 O 0.30158 0.26933 0.90549 0.0
O284 O 0.28642 0.22688 0.90607 0.0
C285 C 0.31884 0.20218 0.92602 0.0
Fe286 Fe 0.76332 0.12515 0.92981 0.0
Fe287 Fe 0.79137 0.0989 0.90493 0.0
O288 O 0.76245 0.09731 0.91639 0.0
Fe289 Fe 0.73244 0.06764 0.91446 0.0
O290 O 0.71883 0.08259 0.89469 0.0
O291 O 0.73015 0.1167 0.91897 0.0
O292 O 0.7757 0.14359 0.90144 0.0
C293 C 0.79642 0.14782 0.89058 0.0
C294 C 0.72959 0.0875 0.96147 0.0
O295 O 0.80654 0.13352 0.89484 0.0
C296 C 0.76448 0.04938 0.92903 0.0
O297 O 0.79652 0.13839 0.94288 0.0
O298 O 0.80656 0.10774 0.93523 0.0
O299 O 0.71827 0.07329 0.94271 0.0
O300 O 0.75107 0.10845 0.9591 0.0
C301 C 0.75705 0.06939 0.8689 0.0
O302 O 0.78122 0.06442 0.91306 0.0
O303 O 0.7447 0.05143 0.93413 0.0
C304 C 0.80961 0.12714 0.94778 0.0
O305 O 0.77787 0.09022 0.87392 0.0
O306 O 0.7409 0.05627 0.88591 0.0
C307 C 0.71675 0.10206 0.90103 0.0
Fe308 Fe 0.94707 0.67957 0.9074 0.0
Fe309 Fe 0.91341 0.70302 0.89127 0.0
O310 O 0.91618 0.67738 0.90549 0.0
Fe311 Fe 0.88835 0.64949 0.91771 0.0
O312 O 0.90231 0.6556 0.94864 0.0
O313 O 0.94004 0.66069 0.93626 0.0
O314 O 0.95926 0.70826 0.9266 0.0
C315 C 0.95989 0.72907 0.92011 0.0
C316 C 0.91734 0.62863 0.89406 0.0
O317 O 0.94615 0.72934 0.90193 0.0
C318 C 0.86852 0.65664 0.87431 0.0
O319 O 0.9602 0.6989 0.87884 0.0
O320 O 0.92621 0.69876 0.86215 0.0
O321 O 0.90026 0.6264 0.90996 0.0
O322 O 0.93608 0.65087 0.88836 0.0
C323 C 0.88032 0.69197 0.93079 0.0
O324 O 0.88035 0.68118 0.87831 0.0
O325 O 0.87282 0.64165 0.88768 0.0
C326 C 0.94813 0.70016 0.85989 0.0
O327 O 0.9003 0.70884 0.91932 0.0
O328 O 0.87158 0.66762 0.92743 0.0
C329 C 0.92391 0.65708 0.95349 0.0
Fe330 Fe 0.34078 0.07192 0.41648 0.0
Fe331 Fe 0.37274 0.12994 0.42947 0.0
O332 O 0.34397 0.1033 0.41713 0.0
Fe333 Fe 0.31845 0.10777 0.40534 0.0
O334 O 0.32111 0.09627 0.37486 0.0
O335 O 0.32004 0.06073 0.38852 0.0
O336 O 0.36866 0.0833 0.39602 0.0
C337 C 0.39125 0.10144 0.40167 0.0
C338 C 0.29216 0.05965 0.43189 0.0
O339 O 0.39454 0.1174 0.41913 0.0
C340 C 0.33205 0.13898 0.44655 0.0
O341 O 0.36078 0.07693 0.44435 0.0
O342 O 0.36719 0.11424 0.45951 0.0
O343 O 0.29187 0.07481 0.41515 0.0
O344 O 0.31288 0.05935 0.43692 0.0
C345 C 0.36499 0.15282 0.38865 0.0
O346 O 0.35606 0.14717 0.44178 0.0
O347 O 0.31427 0.11968 0.43499 0.0
C348 C 0.36554 0.09229 0.4626 0.0
O349 O 0.38002 0.14709 0.40026 0.0
O350 O 0.34061 0.1413 0.39355 0.0
C351 C 0.31823 0.07395 0.37087 0.0
Fe352 Fe 0.88981 0.25321 0.42084 0.0
Fe353 Fe 0.94774 0.28574 0.40724 0.0
O354 O 0.91888 0.2551 0.40929 0.0
Fe355 Fe 0.91929 0.22654 0.39987 0.0
O356 O 0.90974 0.21258 0.43052 0.0
O357 O 0.87729 0.22058 0.43524 0.0
O358 O 0.90507 0.26703 0.45047 0.0
C359 C 0.92578 0.28879 0.45275 0.0
C360 C 0.87021 0.21854 0.38228 0.0
O361 O 0.94013 0.30007 0.43407 0.0
C362 C 0.94944 0.26 0.36349 0.0
O363 O 0.89731 0.2856 0.40846 0.0
O364 O 0.93248 0.29737 0.38559 0.0
O365 O 0.88507 0.2096 0.38859 0.0
O366 O 0.87287 0.23926 0.39192 0.0
C367 C 0.96742 0.25613 0.42547 0.0
O368 O 0.96096 0.2772 0.38015 0.0
O369 O 0.92895 0.23881 0.36852 0.0
C370 C 0.91234 0.2988 0.39064 0.0
O371 O 0.9642 0.27548 0.42882 0.0
O372 O 0.95367 0.23851 0.40965 0.0
C373 C 0.88923 0.20853 0.44166 0.0
Fe374 Fe 0.74599 0.69358 0.41098 0.0
Fe375 Fe 0.77326 0.66114 0.41459 0.0
O376 O 0.77369 0.6902 0.40572 0.0
Fe377 Fe 0.80182 0.71625 0.39156 0.0
O378 O 0.7835 0.71338 0.36358 0.0
O379 O 0.75157 0.71448 0.38365 0.0
O380 O 0.72618 0.6663 0.39118 0.0
C381 C 0.72234 0.64347 0.39423 0.0
C382 C 0.78399 0.74205 0.42402 0.0
O383 O 0.73803 0.6393 0.40714 0.0
C384 C 0.82388 0.70213 0.42873 0.0
O385 O 0.73486 0.67297 0.43884 0.0
O386 O 0.76657 0.66479 0.44677 0.0
O387 O 0.79633 0.74242 0.40443 0.0
O388 O 0.76457 0.72106 0.43132 0.0
C389 C 0.79971 0.67085 0.37067 0.0
O390 O 0.80828 0.67817 0.42347 0.0
O391 O 0.82132 0.72014 0.41881 0.0
C392 C 0.74712 0.66649 0.45386 0.0
O393 O 0.77989 0.65538 0.38315 0.0
O394 O 0.81254 0.69501 0.37623 0.0
C395 C 0.76305 0.71521 0.36343 0.0
C396 C 0.10205 0.41883 0.12955 0.0
C397 C 0.10793 0.41878 0.1042 0.0
C398 C 0.09809 0.43855 0.13925 0.0
C399 C 0.07139 0.47914 0.12089 0.0
H400 H 0.09722 0.51259 0.18503 0.0
C401 C 0.06298 0.55622 0.19233 0.0
C402 C 0.03564 0.54422 0.19555 0.0
C403 C 0.07391 0.54401 0.17851 0.0
C404 C 0.09001 0.5036 0.16698 0.0
H405 H 0.11526 0.43962 0.0692 0.0
H406 H 0.10778 0.47414 0.08618 0.0
H407 H 0.11538 0.48726 0.16627 0.0
H408 H -0.00167 0.51051 0.18557 0.0
H409 H 0.01762 0.48909 0.16118 0.0
H410 H 0.04533 0.49476 0.12207 0.0
C411 C 0.10656 0.45901 0.09852 0.0
C412 C 0.10037 0.48908 0.15631 0.0
C413 C 0.11109 0.4395 0.0889 0.0
C414 C 0.01943 0.52021 0.18356 0.0
C415 C 0.03046 0.50802 0.16953 0.0
C416 C 0.06076 0.49341 0.13174 0.0
C417 C 0.09941 0.45831 0.12365 0.0
C418 C 0.09095 0.47647 0.13332 0.0
C419 C 0.05784 0.51958 0.16737 0.0
C420 C 0.06981 0.50555 0.15501 0.0
H421 H 0.09933 0.4029 0.14162 0.0
H422 H 0.09243 0.43745 0.15863 0.0
H423 H 0.06358 0.46931 0.10328 0.0
H424 H 0.07612 0.57488 0.20099 0.0
H425 H 0.09505 0.55353 0.17684 0.0
C426 C 0.50292 0.50762 0.17735 0.0
C427 C 0.47699 0.49587 0.1861 0.0
C428 C 0.51336 0.5305 0.16299 0.0
C429 C 0.50424 0.58713 0.15101 0.0
H430 H 0.55235 0.59998 0.09643 0.0
C431 C 0.57255 0.66982 0.0722 0.0
C432 C 0.58562 0.69181 0.0877 0.0
C433 C 0.55391 0.64572 0.08208 0.0
C434 C 0.53861 0.59661 0.11136 0.0
H435 H 0.44127 0.49817 0.18546 0.0
H436 H 0.45941 0.53774 0.16031 0.0
H437 H 0.53113 0.55748 0.11693 0.0
H438 H 0.58867 0.70656 0.12519 0.0
H439 H 0.55609 0.66433 0.1427 0.0
H440 H 0.51191 0.62639 0.14548 0.0
C441 C 0.47185 0.52965 0.16497 0.0
C442 C 0.52675 0.57233 0.12334 0.0
C443 C 0.46144 0.50686 0.17928 0.0
C444 C 0.57832 0.68993 0.11282 0.0
C445 C 0.55979 0.6657 0.12282 0.0
C446 C 0.51617 0.61148 0.13904 0.0
C447 C 0.49807 0.54204 0.15706 0.0
C448 C 0.50964 0.56738 0.14347 0.0
C449 C 0.54838 0.64307 0.10776 0.0
C450 C 0.53367 0.61658 0.11919 0.0
H451 H 0.51543 0.49971 0.1823 0.0
H452 H 0.5337 0.53966 0.1573 0.0
H453 H 0.49134 0.58403 0.16663 0.0
H454 H 0.57821 0.67084 0.05282 0.0
H455 H 0.54505 0.62881 0.06988 0.0
C456 C 0.49814 0.00179 0.20177 0.0
C457 C 0.50658 0.98336 0.20383 0.0
C458 C 0.47492 0.99539 0.18918 0.0
C459 C 0.42707 0.95106 0.14326 0.0
H460 H 0.37834 0.96432 0.18044 0.0
C461 C 0.32192 0.91959 0.10739 0.0
C462 C 0.31362 0.93798 0.11121 0.0
C463 C 0.34503 0.92315 0.1186 0.0
C464 C 0.39179 0.96073 0.16963 0.0
H465 H 0.49813 0.94437 0.19305 0.0
H466 H 0.45778 0.93344 0.17072 0.0
H467 H 0.42068 0.97606 0.19849 0.0
H468 H 0.32326 0.97452 0.12987 0.0
H469 H 0.36322 0.98088 0.14853 0.0
H470 H 0.39838 0.93634 0.11407 0.0
C471 C 0.46901 0.95268 0.17905 0.0
C472 C 0.41605 0.96747 0.18002 0.0
C473 C 0.49203 0.95893 0.19193 0.0
C474 C 0.32883 0.9598 0.12652 0.0
C475 C 0.3518 0.9634 0.13748 0.0
C476 C 0.40283 0.94459 0.13267 0.0
C477 C 0.4599 0.97061 0.17808 0.0
C478 C 0.43407 0.96301 0.16685 0.0
C479 C 0.36023 0.94515 0.13379 0.0
C480 C 0.38504 0.94971 0.14561 0.0
H481 H 0.50889 0.02076 0.21072 0.0
H482 H 0.46845 0.00968 0.18845 0.0
H483 H 0.44063 0.94737 0.13274 0.0
H484 H 0.31066 0.90257 0.09572 0.0
H485 H 0.35088 0.9086 0.11551 0.0
C486 C 0.41242 0.09286 0.36571 0.0
C487 C 0.41367 0.10048 0.3907 0.0
C488 C 0.43145 0.08786 0.35594 0.0
C489 C 0.47226 0.06156 0.37364 0.0
H490 H 0.50616 0.08793 0.30973 0.0
C491 C 0.51203 0.00987 0.30903 0.0
C492 C 0.53652 0.02597 0.29778 0.0
C493 C 0.50022 0.02088 0.32361 0.0
C494 C 0.49703 0.08058 0.32771 0.0
H495 H 0.43592 0.10947 0.425 0.0
H496 H 0.46908 0.09995 0.40794 0.0
H497 H 0.48068 0.10595 0.32858 0.0
H498 H 0.56839 0.06618 0.29417 0.0
H499 H 0.54755 0.08515 0.31916 0.0
H500 H 0.48771 0.03535 0.37219 0.0
C501 C 0.45353 0.09826 0.39593 0.0
C502 C 0.48245 0.09084 0.33842 0.0
C503 C 0.43476 0.10389 0.40559 0.0
C504 C 0.5494 0.05314 0.30233 0.0
C505 C 0.5375 0.0641 0.31661 0.0
C506 C 0.48651 0.05095 0.3627 0.0
C507 C 0.45175 0.08983 0.37113 0.0
C508 C 0.46972 0.08123 0.36133 0.0
C509 C 0.5126 0.04816 0.32696 0.0
C510 C 0.49881 0.06023 0.33953 0.0
H511 H 0.39627 0.09003 0.35393 0.0
H512 H 0.42958 0.08122 0.33681 0.0
H513 H 0.46236 0.05366 0.39121 0.0
H514 H 0.50166 0.98889 0.306 0.0
H515 H 0.48092 0.00819 0.33134 0.0
C516 C 0.95095 0.49967 0.28804 0.0
C517 C 0.97831 0.51568 0.28567 0.0
C518 C 0.94025 0.47664 0.30192 0.0
C519 C 0.95343 0.44082 0.35029 0.0
H520 H 0.9021 0.37894 0.3147 0.0
C521 C 0.91726 0.32624 0.35381 0.0
C522 C 0.91013 0.32016 0.37892 0.0
C523 C 0.92056 0.34945 0.3436 0.0
C524 C 0.91618 0.39609 0.32494 0.0
H525 H 0.01582 0.52062 0.29718 0.0
H526 H 0.99693 0.48014 0.32169 0.0
H527 H 0.91929 0.42211 0.29565 0.0
H528 H 0.89993 0.33289 0.41292 0.0
H529 H 0.90629 0.37409 0.39508 0.0
H530 H 0.95068 0.41458 0.37936 0.0
C531 C 0.98391 0.4856 0.31263 0.0
C532 C 0.92597 0.42076 0.31411 0.0
C533 C 0.99471 0.50867 0.29851 0.0
C534 C 0.90511 0.33706 0.39341 0.0
C535 C 0.90899 0.36065 0.38331 0.0
C536 C 0.94334 0.41612 0.3613 0.0
C537 C 0.95657 0.46912 0.31398 0.0
C538 C 0.94502 0.44331 0.32648 0.0
C539 C 0.91731 0.36726 0.35847 0.0
C540 C 0.92501 0.39352 0.34849 0.0
H541 H 0.93766 0.50455 0.27866 0.0
H542 H 0.91912 0.46447 0.30294 0.0
H543 H 0.96798 0.45792 0.36026 0.0
H544 H 0.92136 0.31352 0.34235 0.0
H545 H 0.92716 0.35418 0.32446 0.0
C546 C 0.51628 0.50581 0.28801 0.0
C547 C 0.51173 0.48158 0.27874 0.0
C548 C 0.53851 0.52142 0.30237 0.0
C549 C 0.59091 0.52088 0.33995 0.0
H550 H 0.62892 0.5946 0.32268 0.0
C551 C 0.69462 0.59718 0.37852 0.0
C552 C 0.69753 0.62172 0.38453 0.0
C553 C 0.67158 0.57803 0.36694 0.0
C554 C 0.61842 0.57409 0.32788 0.0
H555 H 0.52644 0.45427 0.27818 0.0
H556 H 0.56527 0.48165 0.30298 0.0
H557 H 0.58884 0.56528 0.30053 0.0
H558 H 0.67796 0.64475 0.38492 0.0
H559 H 0.63818 0.6116 0.36534 0.0
H560 H 0.62078 0.52998 0.36742 0.0
C561 C 0.55161 0.48851 0.29924 0.0
C562 C 0.59541 0.55732 0.31524 0.0
C563 C 0.52943 0.47293 0.28486 0.0
C564 C 0.6766 0.62625 0.38002 0.0
C565 C 0.65377 0.60727 0.36872 0.0
C566 C 0.61405 0.53777 0.3527 0.0
C567 C 0.55661 0.5131 0.3078 0.0
C568 C 0.58121 0.5306 0.32131 0.0
C569 C 0.65125 0.58326 0.36138 0.0
C570 C 0.62779 0.56462 0.347 0.0
H571 H 0.50293 0.51296 0.28384 0.0
H572 H 0.54164 0.54012 0.30907 0.0
H573 H 0.58033 0.50035 0.34504 0.0
H574 H 0.71044 0.59318 0.38187 0.0
H575 H 0.67007 0.55961 0.36151 0.0
C576 C 0.90456 0.58087 0.89653 0.0
C577 C 0.9185 0.6055 0.88489 0.0
C578 C 0.90896 0.5604 0.88952 0.0
C579 C 0.9608 0.55108 0.86205 0.0
H580 H 0.90646 0.48122 0.84354 0.0
C581 C 0.95174 0.4668 0.79275 0.0
C582 C 0.9753 0.46711 0.79806 0.0
C583 C 0.94222 0.47881 0.80879 0.0
C584 C 0.92184 0.50061 0.84885 0.0
H585 H 0.94655 0.62733 0.85562 0.0
H586 H 0.95408 0.59195 0.84361 0.0
H587 H 0.89431 0.51246 0.86037 0.0
H588 H 0.00629 0.47864 0.82538 0.0
H589 H 0.98958 0.49964 0.85348 0.0
H590 H 0.98835 0.54003 0.84952 0.0
C591 C 0.94024 0.58854 0.85848 0.0
C592 C 0.91487 0.51837 0.85862 0.0
C593 C 0.93579 0.60878 0.86531 0.0
C594 C 0.98825 0.4783 0.82059 0.0
C595 C 0.97871 0.49039 0.83665 0.0
C596 C 0.96776 0.53339 0.85243 0.0
C597 C 0.92746 0.56439 0.87091 0.0
C598 C 0.93432 0.54406 0.86447 0.0
C599 C 0.95599 0.49144 0.83056 0.0
C600 C 0.94838 0.50821 0.84496 0.0
H601 H 0.89107 0.57774 0.91164 0.0
H602 H 0.89872 0.54184 0.89925 0.0
H603 H 0.9762 0.57068 0.86676 0.0
H604 H 0.94107 0.45809 0.7757 0.0
H605 H 0.92482 0.47944 0.80336 0.0
C606 C 0.51375 0.50158 0.78499 0.0
C607 C 0.54002 0.51028 0.7789 0.0
C608 C 0.49951 0.47898 0.79939 0.0
C609 C 0.50056 0.41913 0.8199 0.0
H610 H 0.4478 0.41382 0.86648 0.0
C611 C 0.42374 0.32137 0.86543 0.0
C612 C 0.41392 0.32261 0.88891 0.0
C613 C 0.44199 0.34443 0.85338 0.0
C614 C 0.46276 0.41505 0.85388 0.0
H615 H 0.57236 0.50293 0.78401 0.0
H616 H 0.54794 0.46425 0.80974 0.0
H617 H 0.47353 0.45416 0.84342 0.0
H618 H 0.41691 0.34823 0.91927 0.0
H619 H 0.44975 0.38821 0.899 0.0
H620 H 0.49031 0.38026 0.83098 0.0
C621 C 0.53793 0.47416 0.80273 0.0
C622 C 0.47722 0.43811 0.84028 0.0
C623 C 0.552 0.49647 0.78811 0.0
C624 C 0.42411 0.34686 0.90104 0.0
C625 C 0.44266 0.36977 0.88927 0.0
C626 C 0.48629 0.39614 0.83372 0.0
C627 C 0.51139 0.46487 0.80827 0.0
C628 C 0.49622 0.44042 0.82302 0.0
C629 C 0.45095 0.369 0.86485 0.0
C630 C 0.46713 0.39378 0.85084 0.0
H631 H 0.50399 0.51178 0.77805 0.0
H632 H 0.47902 0.47224 0.80304 0.0
H633 H 0.51477 0.42002 0.8065 0.0
H634 H 0.41589 0.30286 0.85563 0.0
H635 H 0.44782 0.34305 0.83454 0.0
C636 C 0.50673 0.0245 0.81409 0.0
C637 C 0.50015 0.04012 0.79937 0.0
C638 C 0.52968 0.03599 0.82833 0.0
C639 C 0.57495 0.06759 0.86463 0.0
H640 H 0.63707 0.11483 0.82686 0.0
C641 C 0.67962 0.1111 0.90494 0.0
C642 C 0.69509 0.10441 0.89011 0.0
C643 C 0.65628 0.10851 0.89547 0.0
C644 C 0.61986 0.10194 0.83772 0.0
H645 H 0.51189 0.08022 0.78915 0.0
H646 H 0.55192 0.10005 0.81378 0.0
H647 H 0.59376 0.09888 0.80853 0.0
H648 H 0.69948 0.09149 0.85349 0.0
H649 H 0.65924 0.08773 0.83675 0.0
H650 H 0.60123 0.07002 0.8935 0.0
C651 C 0.53942 0.07895 0.81413 0.0
C652 C 0.5951 0.0929 0.82731 0.0
C653 C 0.51644 0.06753 0.80006 0.0
C654 C 0.68783 0.09675 0.86527 0.0
C655 C 0.66489 0.09469 0.85568 0.0
C656 C 0.59975 0.07692 0.87518 0.0
C657 C 0.54654 0.06328 0.82801 0.0
C658 C 0.57243 0.07513 0.84041 0.0
C659 C 0.64851 0.0998 0.87089 0.0
C660 C 0.62243 0.09364 0.86154 0.0
H661 H 0.49455 0.00336 0.81408 0.0
H662 H 0.5348 0.02343 0.83875 0.0
H663 H 0.55777 0.05406 0.87518 0.0
H664 H 0.68474 0.11684 0.92423 0.0
H665 H 0.64397 0.11262 0.9075 0.0
C666 C 0.58074 0.90991 0.59577 0.0
C667 C 0.60301 0.91455 0.60937 0.0
C668 C 0.56129 0.91357 0.60707 0.0
C669 C 0.53941 0.94627 0.63175 0.0
H670 H 0.51393 0.92244 0.69879 0.0
C671 C 0.49821 0.99604 0.69698 0.0
C672 C 0.47602 0.97943 0.7113 0.0
C673 C 0.51072 0.98567 0.68249 0.0
C674 C 0.52065 0.92907 0.67996 0.0
H675 H 0.62196 0.92512 0.64545 0.0
H676 H 0.58772 0.93057 0.66536 0.0
H677 H 0.53953 0.90607 0.67741 0.0
H678 H 0.44918 0.93876 0.72096 0.0
H679 H 0.47106 0.92093 0.69595 0.0
H680 H 0.52113 0.96989 0.63464 0.0
C681 C 0.58523 0.92435 0.64605 0.0
C682 C 0.53536 0.91975 0.66778 0.0
C683 C 0.60481 0.92124 0.63469 0.0
C684 C 0.46635 0.95223 0.71037 0.0
C685 C 0.47891 0.94194 0.69607 0.0
C686 C 0.5249 0.95584 0.64407 0.0
C687 C 0.56368 0.92135 0.6322 0.0
C688 C 0.54518 0.92851 0.6437 0.0
C689 C 0.50137 0.95853 0.68218 0.0
C690 C 0.51563 0.94755 0.66842 0.0
H691 H 0.57919 0.90513 0.57611 0.0
H692 H 0.54479 0.91106 0.59603 0.0
H693 H 0.547 0.95358 0.61329 0.0
H694 H 0.50609 0.01704 0.69716 0.0
H695 H 0.52813 -0.00105 0.67209 0.0
C696 C 0.04621 0.52914 0.71646 0.0
C697 C 0.02881 0.50486 0.70551 0.0
C698 C 0.05766 0.55202 0.70233 0.0
C699 C 0.07573 0.57774 0.63877 0.0
H700 H 0.07767 0.63903 0.66776 0.0
C701 C 0.10413 0.67391 0.58492 0.0
C702 C 0.11539 0.6973 0.59863 0.0
C703 C 0.09738 0.65017 0.59672 0.0
C704 C 0.07783 0.6223 0.65954 0.0
H705 H 0.01 0.48562 0.67091 0.0
H706 H 0.03016 0.52601 0.64603 0.0
H707 H 0.05645 0.59782 0.69024 0.0
H708 H 0.13005 0.71491 0.63469 0.0
H709 H 0.11956 0.67376 0.65515 0.0
H710 H 0.09716 0.60243 0.60796 0.0
C711 C 0.03486 0.52708 0.66567 0.0
C712 C 0.06545 0.59858 0.67239 0.0
C713 C 0.02317 0.50404 0.67993 0.0
C714 C 0.12175 0.69707 0.62373 0.0
C715 C 0.11531 0.67345 0.63547 0.0
C716 C 0.08828 0.60162 0.62588 0.0
C717 C 0.05216 0.55132 0.6768 0.0
C718 C 0.06437 0.57607 0.66226 0.0
C719 C 0.10178 0.64956 0.62244 0.0
C720 C 0.08961 0.62424 0.63622 0.0
H721 H 0.05113 0.53058 0.73607 0.0
H722 H 0.07115 0.57031 0.7114 0.0
H723 H 0.07538 0.56073 0.63061 0.0
H724 H 0.09849 0.67367 0.56565 0.0
H725 H 0.08688 0.63219 0.58614 0.0
C726 C 0.34591 0.4626 0.5799 0.0
C727 C 0.3283 0.44277 0.59593 0.0
C728 C 0.36992 0.48251 0.58906 0.0
C729 C 0.42466 0.50137 0.61114 0.0
H730 H 0.4345 0.5349 0.67559 0.0
C731 C 0.51339 0.52889 0.67522 0.0
C732 C 0.52347 0.55218 0.68909 0.0
C733 C 0.49121 0.52077 0.66024 0.0
C734 C 0.43218 0.52604 0.65738 0.0
H735 H 0.32067 0.42901 0.63408 0.0
H736 H 0.36205 0.46412 0.65023 0.0
H737 H 0.39113 0.51319 0.65643 0.0
H738 H 0.51893 0.58594 0.69697 0.0
H739 H 0.48029 0.57163 0.67103 0.0
H740 H 0.46549 0.51321 0.61262 0.0
C741 C 0.3576 0.46436 0.63067 0.0
C742 C 0.40735 0.51355 0.64648 0.0
C743 C 0.33395 0.44426 0.62146 0.0
C744 C 0.51155 0.56771 0.68679 0.0
C745 C 0.48937 0.55954 0.67195 0.0
C746 C 0.44948 0.51365 0.62216 0.0
C747 C 0.37626 0.48304 0.6144 0.0
C748 C 0.40322 0.50055 0.62356 0.0
C749 C 0.47866 0.53575 0.65892 0.0
C750 C 0.45333 0.52556 0.64566 0.0
H751 H 0.34205 0.46157 0.56006 0.0
H752 H 0.38399 0.49676 0.57618 0.0
H753 H 0.42195 0.49124 0.59357 0.0
H754 H 0.52216 0.51654 0.67647 0.0
H755 H 0.48325 0.50221 0.65053 0.0
C756 C 0.78498 0.78454 0.41921 0.0
C757 C 0.78676 0.76627 0.43467 0.0
C758 C 0.7794 0.80308 0.42952 0.0
C759 C 0.74279 0.81846 0.45647 0.0
H760 H 0.77394 0.85817 0.51682 0.0
C761 C 0.69043 0.8545 0.52474 0.0
C762 C 0.7058 0.87985 0.53454 0.0
C763 C 0.70188 0.84345 0.50966 0.0
C764 C 0.76516 0.84737 0.49984 0.0
H765 H 0.78605 0.75397 0.4728 0.0
H766 H 0.77743 0.78698 0.49091 0.0
H767 H 0.79446 0.83616 0.4958 0.0
H768 H 0.74495 0.914 0.5349 0.0
H769 H 0.76463 0.89469 0.50895 0.0
H770 H 0.71298 0.82901 0.46101 0.0
C771 C 0.78007 0.78694 0.47091 0.0
C772 C 0.77688 0.83476 0.48787 0.0
C773 C 0.78509 0.76813 0.4606 0.0
C774 C 0.73253 0.89425 0.52806 0.0
C775 C 0.7439 0.88322 0.51318 0.0
C776 C 0.73086 0.83083 0.46863 0.0
C777 C 0.77608 0.80384 0.45541 0.0
C778 C 0.76567 0.81997 0.46623 0.0
C779 C 0.72887 0.85756 0.50423 0.0
C780 C 0.74182 0.84521 0.49056 0.0
H781 H 0.78573 0.78311 0.39911 0.0
H782 H 0.77653 0.81602 0.41722 0.0
H783 H 0.73355 0.80686 0.43999 0.0
H784 H 0.66979 0.84295 0.52928 0.0
H785 H 0.68986 0.82355 0.50302 0.0
C786 C 0.26647 0.03286 0.46777 0.0
C787 C 0.26783 0.03802 0.44213 0.0
C788 C 0.2473 0.00879 0.47723 0.0
C789 C 0.21221 0.94078 0.45896 0.0
H790 H 0.17541 0.93091 0.52156 0.0
C791 C 0.174 0.84789 0.52121 0.0
C792 C 0.14928 0.83858 0.53233 0.0
C793 C 0.18557 0.87132 0.50754 0.0
C794 C 0.18536 0.93329 0.50393 0.0
H795 H 0.24991 0.02269 0.40625 0.0
H796 H 0.21627 0.98013 0.42281 0.0
H797 H 0.19868 0.97442 0.50274 0.0
H798 H 0.11684 0.84607 0.53673 0.0
H799 H 0.13705 0.88666 0.51321 0.0
H800 H 0.19951 0.89973 0.46058 0.0
C801 C 0.22989 0.9949 0.43559 0.0
C802 C 0.19872 0.9582 0.49322 0.0
C803 C 0.24884 0.01929 0.42618 0.0
C804 C 0.13605 0.85273 0.52872 0.0
C805 C 0.14763 0.87609 0.51527 0.0
C806 C 0.19908 0.91587 0.46984 0.0
C807 C 0.22947 0.98919 0.46112 0.0
C808 C 0.21253 0.96227 0.47078 0.0
C809 C 0.17268 0.88589 0.50489 0.0
C810 C 0.18572 0.91193 0.49256 0.0
H811 H 0.28124 0.04692 0.4803 0.0
H812 H 0.24761 0.00489 0.49693 0.0
H813 H 0.22299 0.94343 0.4418 0.0
H814 H 0.18467 0.83745 0.52354 0.0
H815 H 0.20498 0.8785 0.49981 0.0
C816 C -0.00191 0.26869 0.46101 0.0
C817 C 0.99044 0.25717 0.43736 0.0
C818 C 0.0225 0.27508 0.47066 0.0
C819 C 0.08066 0.30677 0.47586 0.0
H820 H 0.11597 0.26624 0.47114 0.0
C821 C 0.18677 0.35071 0.5087 0.0
C822 C 0.19208 0.3344 0.52373 0.0
C823 C 0.16372 0.34025 0.4947 0.0
C824 C 0.10632 0.27776 0.47263 0.0
H825 H 0.00147 0.24175 0.40581 0.0
H826 H 0.04473 0.25342 0.42258 0.0
H827 H 0.07116 0.24781 0.4554 0.0
H828 H 0.17798 0.29406 0.53479 0.0
H829 H 0.13755 0.276 0.511 0.0
H830 H 0.11507 0.33627 0.49382 0.0
C831 C 0.03166 0.25723 0.43376 0.0
C832 C 0.08075 0.26728 0.46345 0.0
C833 C 0.00692 0.25049 0.42418 0.0
C834 C 0.17447 0.30724 0.52349 0.0
C835 C 0.15132 0.29681 0.50967 0.0
C836 C 0.10604 0.31716 0.48506 0.0
C837 C 0.04005 0.27052 0.45669 0.0
C838 C 0.06751 0.28153 0.46536 0.0
C839 C 0.14534 0.31327 0.4956 0.0
C840 C 0.11914 0.30274 0.4838 0.0
H841 H 0.98557 0.27377 0.47164 0.0
H842 H 0.02803 0.28455 0.48872 0.0
H843 H 0.07126 0.31854 0.47712 0.0
H844 H 0.20011 0.37166 0.50817 0.0
H845 H 0.16001 0.35342 0.48361 0.0
C846 C 0.0912 0.45548 0.69838 0.0
C847 C 0.08554 0.44846 0.72352 0.0
C848 C 0.11058 0.45245 0.68616 0.0
C849 C 0.15718 0.44911 0.66527 0.0
H850 H 0.15394 0.38377 0.68342 0.0
C851 C 0.22469 0.41564 0.62015 0.0
C852 C 0.21344 0.38896 0.61388 0.0
C853 C 0.2109 0.4245 0.63455 0.0
C854 C 0.15498 0.40198 0.678 0.0
H855 H 0.09652 0.43472 0.75623 0.0
H856 H 0.13121 0.43069 0.7354 0.0
H857 H 0.12816 0.39848 0.70657 0.0
H858 H 0.17894 0.35063 0.61819 0.0
H859 H 0.15467 0.36616 0.6431 0.0
H860 H 0.18324 0.45197 0.636 0.0
C861 C 0.12034 0.43776 0.72479 0.0
C862 C 0.14052 0.41068 0.69155 0.0
C863 C 0.10079 0.44043 0.73683 0.0
C864 C 0.18821 0.37127 0.62274 0.0
C865 C 0.17434 0.38018 0.6371 0.0
C866 C 0.17163 0.44035 0.65165 0.0
C867 C 0.12459 0.44247 0.69904 0.0
C868 C 0.14136 0.43432 0.68534 0.0
C869 C 0.18547 0.40695 0.64301 0.0
C870 C 0.17057 0.41659 0.65778 0.0
H871 H 0.07922 0.46117 0.6877 0.0
H872 H 0.11322 0.45613 0.6663 0.0
H873 H 0.15836 0.46743 0.66004 0.0
H874 H 0.24421 0.4298 0.61385 0.0
H875 H 0.22026 0.44514 0.63914 0.0
C876 C 0.62913 0.67981 0.71162 0.0
C877 C 0.60465 0.66068 0.72097 0.0
C878 C 0.63331 0.70429 0.7044 0.0
C879 C 0.60085 0.73774 0.67998 0.0
H880 H 0.66574 0.80014 0.69828 0.0
C881 C 0.62998 0.83858 0.63752 0.0
C882 C 0.6561 0.85325 0.6293 0.0
C883 C 0.62211 0.81674 0.65284 0.0
C884 C 0.64758 0.78291 0.69291 0.0
H885 H 0.56526 0.65224 0.72992 0.0
H886 H 0.57252 0.69531 0.71659 0.0
H887 H 0.6542 0.75826 0.71762 0.0
H888 H 0.69462 0.857 0.63142 0.0
H889 H 0.68082 0.81863 0.65769 0.0
H890 H 0.59477 0.76203 0.65439 0.0
C891 C 0.58845 0.69116 0.7152 0.0
C892 C 0.64093 0.75899 0.70408 0.0
C893 C 0.58433 0.66661 0.72283 0.0
C894 C 0.67437 0.84614 0.63743 0.0
C895 C 0.66646 0.82421 0.65264 0.0
C896 C 0.6076 0.76167 0.66865 0.0
C897 C 0.61307 0.71024 0.70607 0.0
C898 C 0.61785 0.73607 0.69724 0.0
C899 C 0.64014 0.80901 0.66023 0.0
C900 C 0.63139 0.7844 0.67452 0.0
H901 H 0.64528 0.67599 0.70998 0.0
H902 H 0.65235 0.71846 0.69705 0.0
H903 H 0.58305 0.72031 0.67424 0.0
H904 H 0.61546 0.84372 0.63184 0.0
H905 H 0.60181 0.80574 0.65868 0.0
C906 C 0.18775 0.79483 0.63209 0.0
C907 C 0.17463 0.80839 0.62532 0.0
C908 C 0.20896 0.80599 0.64838 0.0
C909 C 0.24391 0.85803 0.69497 0.0
H910 H 0.30524 0.85671 0.67021 0.0
C911 C 0.3598 0.9271 0.70394 0.0
C912 C 0.36317 0.93 0.72984 0.0
C913 C 0.33665 0.90699 0.69392 0.0
C914 C 0.28819 0.85697 0.6775 0.0
H915 H 0.17266 0.84376 0.6315 0.0
H916 H 0.21016 0.86351 0.66003 0.0
H917 H 0.26372 0.83266 0.64805 0.0
H918 H 0.34575 0.91389 0.76572 0.0
H919 H 0.30468 0.8786 0.7481 0.0
H920 H 0.26884 0.88321 0.72394 0.0
C921 C 0.2038 0.84412 0.65265 0.0
C922 C 0.2644 0.84315 0.6649 0.0
C923 C 0.18245 0.8329 0.63624 0.0
C924 C 0.34365 0.91167 0.74566 0.0
C925 C 0.32014 0.89175 0.73561 0.0
C926 C 0.26772 0.87169 0.70774 0.0
C927 C 0.21763 0.83099 0.65839 0.0
C928 C 0.24214 0.84395 0.67321 0.0
C929 C 0.31622 0.88972 0.70966 0.0
C930 C 0.29021 0.87174 0.69878 0.0
H931 H 0.18195 0.77567 0.62443 0.0
H932 H 0.21891 0.79521 0.65282 0.0
H933 H 0.22701 0.8588 0.70189 0.0
H934 H 0.37454 0.94127 0.69146 0.0
H935 H 0.33407 0.90606 0.67387 0.0
C936 C 0.57085 0.92462 0.18899 0.0
C937 C 0.56207 0.92176 0.21373 0.0
C938 C 0.57298 0.90467 0.17724 0.0
C939 C 0.56961 0.85705 0.15304 0.0
H940 H 0.60759 0.83146 0.19213 0.0
C941 C 0.60931 0.7958 0.10735 0.0
C942 C 0.6349 0.80201 0.11383 0.0
C943 C 0.59591 0.8054 0.12129 0.0
C944 C 0.59704 0.83847 0.18095 0.0
H945 H 0.54721 0.89533 0.24524 0.0
H946 H 0.55092 0.86004 0.22456 0.0
H947 H 0.58994 0.85653 0.21242 0.0
H948 H 0.66622 0.82249 0.14057 0.0
H949 H 0.64318 0.84022 0.16449 0.0
H950 H 0.578 0.8406 0.12134 0.0
C951 C 0.55622 0.87786 0.21433 0.0
C952 C 0.58654 0.85247 0.19266 0.0
C953 C 0.55381 0.89787 0.22606 0.0
C954 C 0.64657 0.81748 0.13505 0.0
C955 C 0.63324 0.82743 0.14887 0.0
C956 C 0.58017 0.84322 0.14135 0.0
C957 C 0.56655 0.88141 0.19003 0.0
C958 C 0.57333 0.86252 0.17868 0.0
C959 C 0.60787 0.8218 0.14192 0.0
C960 C 0.59453 0.83425 0.15503 0.0
H961 H 0.5774 0.94291 0.17912 0.0
H962 H 0.58127 0.90823 0.15865 0.0
H963 H 0.5593 0.86431 0.1418 0.0
H964 H 0.59952 0.78344 0.09142 0.0
H965 H 0.5762 0.80011 0.11573 0.0
C966 C 0.08123 0.66132 0.19077 0.0
C967 C 0.08086 0.65652 0.2164 0.0
C968 C 0.0994 0.68555 0.18092 0.0
C969 C 0.15858 0.74967 0.19345 0.0
H970 H 0.12309 0.77419 0.14938 0.0
C971 C 0.21186 0.84387 0.13354 0.0
C972 C 0.19903 0.85826 0.12916 0.0
C973 C 0.19955 0.82051 0.14708 0.0
C974 C 0.13326 0.76784 0.1619 0.0
H975 H 0.10006 0.67235 0.2517 0.0
H976 H 0.13188 0.71525 0.23449 0.0
H977 H 0.09927 0.73024 0.16631 0.0
H978 H 0.1639 0.86025 0.13705 0.0
H979 H 0.14257 0.81966 0.16096 0.0
H980 H 0.19256 0.78773 0.18918 0.0
C981 C 0.11836 0.70012 0.22195 0.0
C982 C 0.11972 0.74243 0.17127 0.0
C983 C 0.10027 0.67558 0.2318 0.0
C984 C 0.1742 0.84949 0.1398 0.0
C985 C 0.16193 0.82616 0.15341 0.0
C986 C 0.17223 0.77525 0.18399 0.0
C987 C 0.11724 0.7057 0.1966 0.0
C988 C 0.13224 0.73291 0.18693 0.0
C989 C 0.17417 0.81105 0.15663 0.0
C990 C 0.1597 0.78456 0.16802 0.0
H991 H 0.06641 0.64681 0.17858 0.0
H992 H 0.09852 0.689 0.1612 0.0
H993 H 0.16872 0.74291 0.20553 0.0
H994 H 0.23109 0.85013 0.12577 0.0
H995 H 0.20946 0.80929 0.14907 0.0
C996 C 0.18203 0.34852 0.122 0.0
C997 C 0.17157 0.36519 0.119 0.0
C998 C 0.20582 0.35733 0.13436 0.0
C999 C 0.25201 0.40436 0.17879 0.0
H1000 H 0.30346 0.39599 0.14078 0.0
C1001 C 0.35761 0.438 0.21507 0.0
C1002 C 0.36577 0.41951 0.21122 0.0
C1003 C 0.3347 0.43467 0.20365 0.0
C1004 C 0.28929 0.39835 0.15172 0.0
H1005 H 0.17691 0.40352 0.12794 0.0
H1006 H 0.21839 0.41869 0.15 0.0
H1007 H 0.26059 0.38215 0.12278 0.0
H1008 H 0.35628 0.38316 0.19223 0.0
H1009 H 0.31673 0.37727 0.17313 0.0
H1010 H 0.28049 0.41964 0.20818 0.0
C1011 C 0.20827 0.39899 0.14249 0.0
C1012 C 0.26478 0.39041 0.1414 0.0
C1013 C 0.18464 0.39032 0.1298 0.0
C1014 C 0.35073 0.39788 0.19567 0.0
C1015 C 0.32805 0.39458 0.18444 0.0
C1016 C 0.27656 0.41202 0.18933 0.0
C1017 C 0.21936 0.3828 0.14428 0.0
C1018 C 0.24574 0.39282 0.15502 0.0
C1019 C 0.31976 0.41291 0.18816 0.0
C1020 C 0.2952 0.40846 0.17609 0.0
H1021 H 0.17242 0.32906 0.11393 0.0
H1022 H 0.21393 0.34441 0.13578 0.0
H1023 H 0.23761 0.4065 0.18956 0.0
H1024 H 0.36879 0.45486 0.22694 0.0
H1025 H 0.3288 0.44917 0.20678 0.0
C1026 C 0.16745 0.33219 0.01869 0.0
C1027 C 0.14136 0.31655 0.02653 0.0
C1028 C 0.17933 0.32162 0.00365 0.0
C1029 C 0.17359 0.25817 0.98621 0.0
H1030 H 0.22343 0.29993 0.93497 0.0
C1031 C 0.24649 0.25433 0.90524 0.0
C1032 C 0.25859 0.2432 0.91919 0.0
C1033 C 0.22745 0.25869 0.91608 0.0
C1034 C 0.20924 0.28776 0.9489 0.0
H1035 H 0.10691 0.27785 0.02379 0.0
H1036 H 0.12747 0.25968 -0.00273 0.0
H1037 H 0.19994 0.31766 0.95749 0.0
H1038 H 0.25968 0.22662 0.9548 0.0
H1039 H 0.22664 0.23466 0.97416 0.0
H1040 H 0.18284 0.22818 0.97743 0.0
C1041 C 0.13897 0.27989 0.00322 0.0
C1042 C 0.19607 0.29815 0.96211 0.0
C1043 C 0.12715 0.2904 0.0183 0.0
C1044 C 0.25016 0.23479 0.94362 0.0
C1045 C 0.23133 0.23951 0.95466 0.0
C1046 C 0.18674 0.24773 0.97292 0.0
C1047 C 0.16531 0.29524 -0.00399 0.0
C1048 C 0.17831 0.28362 0.98111 0.0
C1049 C 0.22062 0.25258 0.94131 0.0
C1050 C 0.2049 0.26249 0.95423 0.0
H1051 H 0.17897 0.35236 0.02477 0.0
H1052 H 0.19974 0.33394 -0.00135 0.0
H1053 H 0.16022 0.24654 0.00091 0.0
H1054 H 0.25289 0.2611 0.88637 0.0
H1055 H 0.21912 0.26814 0.90507 0.0
C1056 C 0.72539 0.84701 0.02939 0.0
C1057 C 0.6992 0.82794 0.02474 0.0
C1058 C 0.7375 0.87022 0.01572 0.0
C1059 C 0.73133 0.90514 0.96059 0.0
H1060 H 0.76745 0.96577 0.00376 0.0
C1061 C 0.77413 0.01243 0.92525 0.0
C1062 C 0.76531 0.02661 0.93944 0.0
C1063 C 0.77067 0.98847 0.93409 0.0
C1064 C 0.75761 0.94906 0.99141 0.0
H1065 H 0.66565 0.81746 0.001 0.0
H1066 H 0.68665 0.85852 0.97734 0.0
H1067 H 0.75178 0.9222 0.02069 0.0
H1068 H 0.74727 0.02771 0.97433 0.0
H1069 H 0.74179 0.9865 0.98988 0.0
H1070 H 0.73627 0.93234 0.93158 0.0
C1071 C 0.69793 0.85533 0.99142 0.0
C1072 C 0.74879 0.92404 0.00104 0.0
C1073 C 0.68584 0.83185 0.00501 0.0
C1074 C 0.75426 0.01717 0.96302 0.0
C1075 C 0.7512 0.9936 0.97196 0.0
C1076 C 0.74029 0.93031 0.9509 0.0
C1077 C 0.72364 0.87514 -0.0028 0.0
C1078 C 0.7351 0.9017 0.98591 0.0
C1079 C 0.75885 0.97869 0.95742 0.0
C1080 C 0.75297 0.95246 0.96639 0.0
H1081 H 0.73637 0.84432 0.04417 0.0
H1082 H 0.75752 0.88472 0.02023 0.0
H1083 H 0.72107 0.88837 0.94839 0.0
H1084 H 0.78249 0.01919 0.9069 0.0
H1085 H 0.77684 0.9774 0.92256 0.0
C1086 C 0.15698 0.89035 0.02624 0.0
C1087 C 0.17229 0.87951 0.03433 0.0
C1088 C 0.13559 0.87633 0.01051 0.0
C1089 C 0.08781 0.80863 -0.00585 0.0
H1090 H 0.06553 0.84144 0.94457 0.0
C1091 C 0.98368 0.75408 0.95734 0.0
C1092 C 0.98067 0.75329 0.93137 0.0
C1093 C 0.00721 0.77239 0.96832 0.0
C1094 C 0.07156 0.83199 0.95825 0.0
H1095 H 0.17789 0.84593 0.03107 0.0
H1096 H 0.14046 0.82138 0.00332 0.0
H1097 H 0.10837 0.86691 0.96455 0.0
H1098 H -0.00094 0.77182 0.8965 0.0
H1099 H 0.04062 0.80407 0.91574 0.0
H1100 H 0.05131 0.77371 0.98779 0.0
C1101 C 0.14487 0.84065 0.00957 0.0
C1102 C 0.09602 0.84658 0.9698 0.0
C1103 C 0.16638 0.85475 0.02536 0.0
C1104 C 0.00084 0.77242 0.91663 0.0
C1105 C 0.02464 0.7907 0.92765 0.0
C1106 C 0.06346 0.79411 0.98265 0.0
C1107 C 0.12892 0.8511 0.00237 0.0
C1108 C 0.10426 0.83514 0.98814 0.0
C1109 C 0.02843 0.79002 0.9535 0.0
C1110 C 0.05482 0.80571 0.9649 0.0
H1111 H 0.1611 0.90952 0.03255 0.0
H1112 H 0.12363 0.8849 0.00559 0.0
H1113 H 0.09335 0.79924 0.00835 0.0
H1114 H 0.96838 0.73939 0.96902 0.0
H1115 H 0.00924 0.77184 0.98835 0.0
C1116 C 0.35205 0.19792 0.83223 0.0
C1117 C 0.36674 0.21611 0.85082 0.0
C1118 C 0.36355 0.18674 0.81745 0.0
C1119 C 0.419 0.1737 0.81998 0.0
H1120 H 0.39322 0.14429 0.7545 0.0
C1121 C 0.44889 0.10507 0.76941 0.0
C1122 C 0.42659 0.08068 0.7646 0.0
C1123 C 0.44615 0.1267 0.77583 0.0
C1124 C 0.40084 0.1527 0.77266 0.0
H1125 H 0.40536 0.23864 0.8672 0.0
H1126 H 0.42572 0.22018 0.84076 0.0
H1127 H 0.38008 0.17392 0.77297 0.0
H1128 H 0.3842 0.06005 0.76134 0.0
H1129 H 0.37956 0.09767 0.77192 0.0
H1130 H 0.43941 0.15206 0.81967 0.0
C1131 C 0.4051 0.21355 0.83818 0.0
C1132 C 0.39313 0.16946 0.78337 0.0
C1133 C 0.39349 0.22427 0.85325 0.0
C1134 C 0.40173 0.07855 0.76524 0.0
C1135 C 0.39906 0.10015 0.77103 0.0
C1136 C 0.427 0.15727 0.80909 0.0
C1137 C 0.39009 0.19394 0.82068 0.0
C1138 C 0.40138 0.17947 0.80755 0.0
C1139 C 0.42114 0.12431 0.77676 0.0
C1140 C 0.41729 0.14593 0.78571 0.0
H1141 H 0.33137 0.19126 0.83005 0.0
H1142 H 0.35122 0.17152 0.8044 0.0
H1143 H 0.42553 0.18063 0.83875 0.0
H1144 H 0.46825 0.10715 0.76899 0.0
H1145 H 0.46345 0.14518 0.78029 0.0
C1146 C 0.80348 0.19131 0.87639 0.0
C1147 C 0.81016 0.17149 0.87475 0.0
C1148 C 0.81639 0.21389 0.86185 0.0
C1149 C 0.8531 0.23951 0.80405 0.0
H1150 H 0.88235 0.30752 0.83598 0.0
C1151 C 0.93126 0.33308 0.75685 0.0
C1152 C 0.93303 0.35736 0.76191 0.0
C1153 C 0.91288 0.31041 0.76897 0.0
C1154 C 0.87382 0.28874 0.82662 0.0
H1155 H 0.83544 0.15972 0.85625 0.0
H1156 H 0.85781 0.19922 0.83041 0.0
H1157 H 0.85756 0.26777 0.86066 0.0
H1158 H 0.91597 0.37659 0.78297 0.0
H1159 H 0.88315 0.33653 0.80397 0.0
H1160 H 0.86899 0.26025 0.76998 0.0
C1161 C 0.84259 0.19716 0.84313 0.0
C1162 C 0.8598 0.26597 0.84083 0.0
C1163 C 0.82991 0.17467 0.858 0.0
C1164 C 0.91507 0.35818 0.77865 0.0
C1165 C 0.89646 0.33528 0.79083 0.0
C1166 C 0.86679 0.26224 0.78978 0.0
C1167 C 0.83602 0.21704 0.84504 0.0
C1168 C 0.84975 0.24115 0.82975 0.0
C1169 C 0.8955 0.31119 0.78644 0.0
C1170 C 0.87787 0.28717 0.80097 0.0
H1171 H 0.7884 0.18956 0.88914 0.0
H1172 H 0.81083 0.22881 0.86356 0.0
H1173 H 0.84512 0.22062 0.79497 0.0
H1174 H 0.9447 0.3316 0.74402 0.0
H1175 H 0.91314 0.29245 0.76535 0.0
C1176 C 0.8365 0.61765 0.84993 0.0
C1177 C 0.8473 0.64442 0.8556 0.0
C1178 C 0.81482 0.60498 0.8343 0.0
C1179 C 0.77436 0.61489 0.78794 0.0
H1180 H 0.71767 0.55086 0.81601 0.0
C1181 C 0.6728 0.56338 0.7424 0.0
C1182 C 0.65393 0.56208 0.75925 0.0
C1183 C 0.69687 0.56729 0.75122 0.0
C1184 C 0.73343 0.5685 0.80777 0.0
H1185 H 0.84464 0.6792 0.84813 0.0
H1186 H 0.80641 0.65688 0.82078 0.0
H1187 H 0.76041 0.57235 0.83634 0.0
H1188 H 0.64412 0.56164 0.79819 0.0
H1189 H 0.68562 0.56749 0.81366 0.0
H1190 H 0.74692 0.61159 0.75999 0.0
C1191 C 0.81492 0.6458 0.82847 0.0
C1192 C 0.75792 0.58078 0.81933 0.0
C1193 C 0.83671 0.65856 0.84421 0.0
C1194 C 0.65833 0.56224 0.78494 0.0
C1195 C 0.6821 0.56565 0.79374 0.0
C1196 C 0.74989 0.60246 0.77624 0.0
C1197 C 0.80341 0.61874 0.82387 0.0
C1198 C 0.77845 0.60444 0.80989 0.0
C1199 C 0.70206 0.5695 0.77696 0.0
C1200 C 0.72901 0.57952 0.78644 0.0
H1201 H 0.84442 0.60621 0.85802 0.0
H1202 H 0.80667 0.58423 0.83074 0.0
H1203 H 0.7899 0.63296 0.78015 0.0
H1204 H 0.66993 0.5638 0.72249 0.0
H1205 H 0.71193 0.57009 0.73794 0.0
C1206 C 0.87104 0.72721 0.94434 0.0
C1207 C 0.8659 0.70124 0.94663 0.0
C1208 C 0.85774 0.73638 0.95906 0.0
C1209 C 0.82289 0.72571 0.01808 0.0
H1210 H 0.79026 0.76149 0.98649 0.0
C1211 C 0.74417 0.73962 0.06697 0.0
C1212 C 0.74096 0.76114 0.06117 0.0
C1213 C 0.76292 0.73584 0.05479 0.0
C1214 C 0.79973 0.75209 -0.00426 0.0
H1215 H 0.84289 0.66465 0.96644 0.0
H1216 H 0.81978 0.6809 0.99257 0.0
H1217 H 0.81517 0.74695 0.96133 0.0
H1218 H 0.75601 0.79643 0.03893 0.0
H1219 H 0.78951 0.79017 0.01785 0.0
H1220 H 0.80779 0.731 0.05252 0.0
C1221 C 0.83414 0.69404 0.97921 0.0
C1222 C 0.81383 0.74356 0.98127 0.0
C1223 C 0.84722 0.68469 0.96418 0.0
C1224 C 0.75804 0.77969 0.04383 0.0
C1225 C 0.77701 0.77591 0.03158 0.0
C1226 C 0.8091 0.73453 0.03262 0.0
C1227 C 0.83922 0.71995 0.97669 0.0
C1228 C 0.82515 0.72988 0.99223 0.0
C1229 C 0.77923 0.75356 0.03651 0.0
C1230 C 0.79685 0.74736 0.02158 0.0
H1231 H 0.88528 0.74052 0.93099 0.0
H1232 H 0.86219 0.75647 0.95685 0.0
H1233 H 0.83184 0.71565 0.02708 0.0
H1234 H 0.73144 0.72496 0.08031 0.0
H1235 H 0.76366 0.71822 0.05891 0.0
C1236 C 0.31096 0.17825 0.96672 0.0
C1237 C 0.30522 0.17809 0.94126 0.0
C1238 C 0.29745 0.15543 0.981 0.0
C1239 C 0.26172 0.08412 0.9746 0.0
H1240 H 0.23661 0.08443 0.04142 0.0
C1241 C 0.21475 0.98988 0.03116 0.0
C1242 C 0.22467 0.99272 0.05536 0.0
C1243 C 0.21814 0.01182 0.01799 0.0
C1244 C 0.24355 0.08403 0.0228 0.0
H1245 H 0.28057 0.15388 0.91093 0.0
H1246 H 0.25731 0.11427 0.93576 0.0
H1247 H 0.25698 0.12482 0.01689 0.0
H1248 H 0.24471 0.01987 0.08545 0.0
H1249 H 0.25116 0.05835 0.06247 0.0
H1250 H 0.24949 0.04386 0.9806 0.0
C1251 C 0.27229 0.13195 0.94465 0.0
C1252 C 0.25525 0.10716 0.00881 0.0
C1253 C 0.28563 0.1547 0.93045 0.0
C1254 C 0.23647 0.01733 0.06691 0.0
C1255 C 0.24015 0.03932 0.05369 0.0
C1256 C 0.25026 0.06112 0.9886 0.0
C1257 C 0.2781 0.13203 0.97003 0.0
C1258 C 0.26467 0.10746 0.98467 0.0
C1259 C 0.23207 0.03699 0.02868 0.0
C1260 C 0.24127 0.0608 0.01298 0.0
H1261 H 0.32581 0.19598 0.97564 0.0
H1262 H 0.30249 0.15597 0.00049 0.0
H1263 H 0.26912 0.08383 0.95617 0.0
H1264 H 0.2059 0.97101 0.0219 0.0
H1265 H 0.21118 0.00925 -0.00105 0.0
C1266 C 0.84435 0.12528 0.97309 0.0
C1267 C 0.83115 0.13871 0.96617 0.0
C1268 C 0.8662 0.1371 0.98872 0.0
C1269 C 0.90314 0.19391 0.03114 0.0
H1270 H 0.96378 0.19027 0.00804 0.0
C1271 C 0.00703 0.27759 0.0409 0.0
C1272 C 0.02549 0.27308 0.05327 0.0
C1273 C 0.98265 0.25684 0.03435 0.0
C1274 C 0.94686 0.19097 0.01504 0.0
H1275 H 0.82989 0.17464 0.97105 0.0
H1276 H 0.86827 0.19547 -0.00221 0.0
H1277 H 0.92081 0.16151 0.98959 0.0
H1278 H 0.03313 0.243 0.0674 0.0
H1279 H 0.99017 0.20624 0.05496 0.0
H1280 H 0.92968 0.22473 0.05527 0.0
C1281 C 0.86154 0.17563 0.99152 0.0
C1282 C 0.92225 0.17454 0.00453 0.0
C1283 C 0.83961 0.16377 0.97601 0.0
C1284 C 0.0193 0.2471 0.05799 0.0
C1285 C 0.99481 0.22614 0.05097 0.0
C1286 C 0.92773 0.21046 0.04141 0.0
C1287 C 0.87536 0.16261 -0.00229 0.0
C1288 C 0.9003 0.17653 0.01185 0.0
C1289 C 0.97619 0.23102 0.03961 0.0
C1290 C 0.94987 0.20971 0.03283 0.0
H1291 H 0.83811 0.10579 0.96607 0.0
H1292 H 0.87616 0.1264 -0.00657 0.0
H1293 H 0.88653 0.19549 0.03761 0.0
H1294 H 0.01108 0.29726 0.03675 0.0
H1295 H 0.96872 0.26099 0.02517 0.0
C1296 C 0.2979 0.14729 0.46541 0.0
C1297 C 0.3244 0.15412 0.46329 0.0
C1298 C 0.29066 0.16281 0.47917 0.0
C1299 C 0.27811 0.1939 0.51627 0.0
H1300 H 0.32346 0.26875 0.50818 0.0
C1301 C 0.25861 0.2727 0.56226 0.0
C1302 C 0.26598 0.2954 0.54813 0.0
C1303 C 0.26427 0.25355 0.55362 0.0
C1304 C 0.31043 0.24789 0.51048 0.0
H1305 H 0.36389 0.18187 0.47528 0.0
H1306 H 0.35119 0.2087 0.4998 0.0
H1307 H 0.33683 0.23903 0.49127 0.0
H1308 H 0.28303 0.31499 0.51318 0.0
H1309 H 0.29195 0.2814 0.49778 0.0
H1310 H 0.25119 0.20298 0.53458 0.0
C1311 C 0.33606 0.19166 0.49023 0.0
C1312 C 0.31834 0.2308 0.50114 0.0
C1313 C 0.34336 0.1762 0.47628 0.0
C1314 C 0.27745 0.29782 0.52461 0.0
C1315 C 0.2828 0.27868 0.5159 0.0
C1316 C 0.27011 0.21106 0.52553 0.0
C1317 C 0.30967 0.18549 0.49138 0.0
C1318 C 0.30216 0.20356 0.50357 0.0
C1319 C 0.27718 0.25677 0.53065 0.0
C1320 C 0.28598 0.23826 0.52231 0.0
H1321 H 0.28271 0.13037 0.45573 0.0
H1322 H 0.27021 0.15757 0.47932 0.0
H1323 H 0.2653 0.17304 0.51881 0.0
H1324 H 0.24988 0.27046 0.58054 0.0
H1325 H 0.25965 0.23689 0.56544 0.0
C1326 C 0.85322 0.1795 0.47131 0.0
C1327 C 0.87724 0.18656 0.45962 0.0
C1328 C 0.84085 0.15697 0.48612 0.0
C1329 C 0.83448 0.09278 0.48998 0.0
H1330 H 0.80112 0.08707 0.55389 0.0
C1331 C 0.74688 -0.00115 0.52836 0.0
C1332 C 0.74801 0.99215 0.55324 0.0
C1333 C 0.76673 0.02229 0.51851 0.0
C1334 C 0.81066 0.08851 0.53621 0.0
H1335 H 0.90779 0.17626 0.45556 0.0
H1336 H 0.88596 0.13695 0.48097 0.0
H1337 H 0.82807 0.13035 0.53484 0.0
H1338 H 0.77089 0.00416 0.58726 0.0
H1339 H 0.80551 0.04584 0.57008 0.0
H1340 H 0.81615 0.05092 0.49078 0.0
C1341 C 0.8767 0.14875 0.47856 0.0
C1342 C 0.82582 0.11314 0.52526 0.0
C1343 C 0.88916 0.17131 0.46402 0.0
C1344 C 0.76977 0.00884 0.56793 0.0
C1345 C 0.78939 0.03267 0.55822 0.0
C1346 C 0.819 0.06818 0.50071 0.0
C1347 C 0.8522 0.14106 0.48929 0.0
C1348 C 0.83762 0.11543 0.50193 0.0
C1349 C 0.78777 0.03969 0.53354 0.0
C1350 C 0.80673 0.06582 0.52376 0.0
H1351 H 0.84361 0.1909 0.46842 0.0
H1352 H 0.82187 0.15134 0.49416 0.0
H1353 H 0.84322 0.09402 0.47188 0.0
H1354 H 0.73024 0.98626 0.51673 0.0
H1355 H 0.765 0.0274 0.49948 0.0
C1356 C 0.03254 0.75832 0.52248 0.0
C1357 C 0.03743 0.76604 0.54756 0.0
C1358 C 0.00948 0.75389 0.51103 0.0
C1359 C 0.95163 0.76252 0.51602 0.0
H1360 H 0.92016 0.69937 0.47568 0.0
C1361 C 0.85011 0.69032 0.45744 0.0
C1362 C 0.84678 0.7095 0.4451 0.0
C1363 C 0.87214 0.69753 0.47238 0.0
C1364 C 0.92842 0.71685 0.48713 0.0
H1365 H 0.02293 0.77672 0.58003 0.0
H1366 H 0.982 0.76855 0.56 0.0
H1367 H 0.96138 0.71279 0.49676 0.0
H1368 H 0.86377 0.7514 0.43932 0.0
H1369 H 0.90229 0.7638 0.46476 0.0
H1370 H 0.91825 0.76623 0.5066 0.0
C1371 C 0.99621 0.76617 0.54915 0.0
C1372 C 0.95232 0.7248 0.49892 0.0
C1373 C 0.01961 0.77092 0.5606 0.0
C1374 C 0.8657 0.73605 0.44847 0.0
C1375 C 0.88773 0.74323 0.46329 0.0
C1376 C 0.92758 0.7545 0.50422 0.0
C1377 C 0.99053 0.75667 0.52451 0.0
C1378 C 0.96445 0.74795 0.51314 0.0
C1379 C 0.89137 0.72407 0.47524 0.0
C1380 C 0.91587 0.73172 0.48939 0.0
H1381 H 0.04617 0.75472 0.51195 0.0
H1382 H 0.0061 0.7474 0.4918 0.0
H1383 H 0.96045 0.78041 0.52688 0.0
H1384 H 0.83577 0.66973 0.45548 0.0
H1385 H 0.87414 0.68228 0.48164 0.0
C1386 C 0.93183 0.58951 0.28885 0.0
C1387 C 0.93281 0.58362 0.26366 0.0
C1388 C 0.91189 0.59371 0.29752 0.0
C1389 C 0.87308 0.62152 0.27729 0.0
H1390 H 0.83615 0.59451 0.3398 0.0
C1391 C 0.79633 0.63231 0.3477 0.0
C1392 C 0.81007 0.65949 0.35226 0.0
C1393 C 0.8074 0.62068 0.33319 0.0
C1394 C 0.84605 0.60201 0.32215 0.0
H1395 H 0.91353 0.57673 0.22783 0.0
H1396 H 0.87871 0.58479 0.24298 0.0
H1397 H 0.8614 0.57578 0.32198 0.0
H1398 H 0.8455 0.69593 0.34365 0.0
H1399 H 0.86483 0.67546 0.31803 0.0
H1400 H 0.85869 0.64861 0.2781 0.0
C1401 C 0.89321 0.58572 0.256 0.0
C1402 C 0.86054 0.59134 0.31204 0.0
C1403 C 0.9129 0.58089 0.24742 0.0
C1404 C 0.83446 0.67496 0.34061 0.0
C1405 C 0.84548 0.66326 0.32587 0.0
C1406 C 0.85889 0.63249 0.28762 0.0
C1407 C 0.89289 0.59268 0.28103 0.0
C1408 C 0.8745 0.60126 0.28973 0.0
C1409 C 0.83235 0.63592 0.32266 0.0
C1410 C 0.84554 0.62306 0.31033 0.0
H1411 H 0.94712 0.59189 0.30162 0.0
H1412 H 0.91221 0.59926 0.31684 0.0
H1413 H 0.88395 0.62969 0.2602 0.0
H1414 H 0.77733 0.61978 0.35609 0.0
H1415 H 0.79671 0.59961 0.33071 0.0
C1416 C 0.45315 0.36279 0.29309 0.0
C1417 C 0.45556 0.36598 0.26714 0.0
C1418 C 0.44945 0.33973 0.30404 0.0
C1419 C 0.44844 0.29054 0.32309 0.0
H1420 H 0.38766 0.23033 0.29455 0.0
C1421 C 0.40422 0.18816 0.36681 0.0
C1422 C 0.37698 0.17517 0.37104 0.0
C1423 C 0.41623 0.21025 0.3516 0.0
C1424 C 0.40469 0.24696 0.30265 0.0
H1425 H 0.45734 0.34841 0.23225 0.0
H1426 H 0.45045 0.3076 0.25146 0.0
H1427 H 0.4078 0.27241 0.2727 0.0
H1428 H 0.3409 0.17467 0.36166 0.0
H1429 H 0.36207 0.21352 0.33493 0.0
H1430 H 0.44489 0.2654 0.35341 0.0
C1431 C 0.45172 0.3231 0.2633 0.0
C1432 C 0.41641 0.27091 0.29002 0.0
C1433 C 0.45595 0.34649 0.25237 0.0
C1434 C 0.36191 0.18428 0.3589 0.0
C1435 C 0.374 0.20641 0.34349 0.0
C1436 C 0.43692 0.26655 0.33557 0.0
C1437 C 0.44756 0.31922 0.28915 0.0
C1438 C 0.43806 0.29306 0.3004 0.0
C1439 C 0.40135 0.21986 0.34008 0.0
C1440 C 0.41461 0.24465 0.32572 0.0
H1441 H 0.45249 0.3775 0.30476 0.0
H1442 H 0.4461 0.3372 0.32397 0.0
H1443 H 0.46508 0.30732 0.3315 0.0
H1444 H 0.41647 0.18157 0.37559 0.0
H1445 H 0.43728 0.21999 0.34902 0.0
C1446 C 0.83284 0.21412 0.35636 0.0
C1447 C 0.8473 0.20297 0.36597 0.0
C1448 C 0.81007 0.19902 0.3425 0.0
C1449 C 0.77298 0.13558 0.30876 0.0
H1450 H 0.71307 0.14442 0.32246 0.0
C1451 C 0.66793 0.05536 0.28868 0.0
C1452 C 0.65144 0.06217 0.27565 0.0
C1453 C 0.69218 0.07461 0.29759 0.0
C1454 C 0.72974 0.14201 0.3182 0.0
H1455 H 0.84944 0.16731 0.36807 0.0
H1456 H 0.80945 0.1408 0.34444 0.0
H1457 H 0.75539 0.17411 0.34156 0.0
H1458 H 0.64725 0.09475 0.26259 0.0
H1459 H 0.68984 0.12868 0.27883 0.0
H1460 H 0.74697 0.10279 0.28624 0.0
C1461 C 0.81593 0.16137 0.34717 0.0
C1462 C 0.75402 0.15902 0.32907 0.0
C1463 C 0.83884 0.17654 0.36085 0.0
C1464 C 0.65951 0.08886 0.27248 0.0
C1465 C 0.68382 0.10825 0.28175 0.0
C1466 C 0.74869 0.11846 0.29813 0.0
C1467 C 0.80108 0.17234 0.33805 0.0
C1468 C 0.77584 0.15571 0.32483 0.0
C1469 C 0.70053 0.10121 0.29399 0.0
C1470 C 0.72674 0.12121 0.30311 0.0
H1471 H 0.83898 0.23453 0.35974 0.0
H1472 H 0.79945 0.20826 0.33538 0.0
H1473 H 0.78944 0.13281 0.30458 0.0
H1474 H 0.6624 0.03505 0.29167 0.0
H1475 H 0.70445 0.06865 0.30736 0.0
C1476 C 0.10681 0.7412 0.48268 0.0
C1477 C 0.09685 0.72481 0.50362 0.0
C1478 C 0.10092 0.73055 0.45873 0.0
C1479 C 0.08197 0.67099 0.42367 0.0
H1480 H 0.04948 0.6968 0.37739 0.0
C1481 C 0.03375 0.61604 0.33328 0.0
C1482 C 0.03668 0.631 0.31193 0.0
C1483 C 0.04175 0.62814 0.35648 0.0
C1484 C 0.05892 0.68965 0.38992 0.0
H1485 H 0.07355 0.68454 0.51612 0.0
H1486 H 0.06369 0.66595 0.47422 0.0
H1487 H 0.0639 0.71753 0.41813 0.0
H1488 H 0.05029 0.67028 0.29792 0.0
H1489 H 0.06501 0.6915 0.33827 0.0
H1490 H 0.07751 0.64342 0.39551 0.0
C1491 C 0.07588 0.68697 0.47638 0.0
C1492 C 0.0671 0.70148 0.4132 0.0
C1493 C 0.08139 0.69762 0.50027 0.0
C1494 C 0.0476 0.65824 0.31415 0.0
C1495 C 0.05594 0.67038 0.33728 0.0
C1496 C 0.07415 0.65938 0.40027 0.0
C1497 C 0.08539 0.70337 0.45547 0.0
C1498 C 0.0784 0.69203 0.43031 0.0
C1499 C 0.05317 0.65547 0.35869 0.0
C1500 C 0.06225 0.66838 0.38324 0.0
H1501 H 0.11868 0.76225 0.48481 0.0
H1502 H 0.10849 0.7435 0.44277 0.0
H1503 H 0.09088 0.66358 0.43658 0.0
H1504 H 0.02516 0.59496 0.33209 0.0
H1505 H 0.03882 0.61602 0.37269 0.0
C1506 C 0.29186 0.38635 0.47938 0.0
C1507 C 0.30738 0.39467 0.50098 0.0
C1508 C 0.30356 0.38971 0.45603 0.0
C1509 C 0.36284 0.42929 0.42116 0.0
H1510 H 0.34114 0.36758 0.38011 0.0
C1511 C 0.4158 0.43365 0.3295 0.0
C1512 C 0.40029 0.41825 0.30961 0.0
C1513 C 0.40499 0.43067 0.35325 0.0
C1514 C 0.34716 0.38508 0.39114 0.0
H1515 H 0.34716 0.41366 0.51523 0.0
H1516 H 0.36763 0.42014 0.47418 0.0
H1517 H 0.32051 0.36337 0.42058 0.0
H1518 H 0.36135 0.38789 0.29875 0.0
H1519 H 0.34221 0.38343 0.33984 0.0
H1520 H 0.38882 0.45126 0.39156 0.0
C1521 C 0.34648 0.4108 0.47545 0.0
C1522 C 0.33542 0.3826 0.41431 0.0
C1523 C 0.33478 0.40699 0.49884 0.0
C1524 C 0.37382 0.39986 0.31383 0.0
C1525 C 0.3629 0.3972 0.33744 0.0
C1526 C 0.37428 0.43188 0.39778 0.0
C1527 C 0.33092 0.40188 0.45396 0.0
C1528 C 0.34319 0.40467 0.42944 0.0
C1529 C 0.37836 0.41254 0.35745 0.0
C1530 C 0.36657 0.40979 0.38249 0.0
H1531 H 0.27069 0.37667 0.48059 0.0
H1532 H 0.29127 0.38281 0.43959 0.0
H1533 H 0.36897 0.44656 0.43259 0.0
H1534 H 0.43635 0.44781 0.32675 0.0
H1535 H 0.41758 0.44246 0.36834 0.0
C1536 C 0.6331 0.90852 0.49248 0.0
C1537 C 0.64238 0.92905 0.50991 0.0
C1538 C 0.62548 0.91166 0.46874 0.0
C1539 C 0.62569 0.92858 0.41567 0.0
H1540 H 0.58791 0.96634 0.40694 0.0
C1541 C 0.60895 0.96047 0.31931 0.0
C1542 C 0.58486 0.95929 0.31497 0.0
C1543 C 0.6152 0.9556 0.34303 0.0
C1544 C 0.59819 0.95548 0.4091 0.0
H1545 H 0.65123 0.96907 0.51608 0.0
H1546 H 0.63843 0.97475 0.47437 0.0
H1547 H 0.59999 0.96008 0.44871 0.0
H1548 H 0.5481 0.95138 0.33187 0.0
H1549 H 0.55877 0.94226 0.37317 0.0
H1550 H 0.62328 0.92338 0.37613 0.0
C1551 C 0.63652 0.95604 0.47926 0.0
C1552 C 0.60544 0.95223 0.43299 0.0
C1553 C 0.64397 0.95283 0.5031 0.0
C1554 C 0.56688 0.95255 0.33467 0.0
C1555 C 0.57306 0.9475 0.35836 0.0
C1556 C 0.6183 0.9317 0.3918 0.0
C1557 C 0.62718 0.93547 0.46185 0.0
C1558 C 0.61934 0.93882 0.43651 0.0
C1559 C 0.59741 0.94928 0.36285 0.0
C1560 C 0.60457 0.94527 0.38825 0.0
H1561 H 0.63151 0.8899 0.49719 0.0
H1562 H 0.61797 0.89531 0.45589 0.0
H1563 H 0.63665 0.91841 0.41774 0.0
H1564 H 0.62332 0.96583 0.30455 0.0
H1565 H 0.63427 0.95749 0.34597 0.0
C1566 C 0.69302 0.05693 0.98936 0.0
C1567 C 0.71645 0.08074 0.98594 0.0
C1568 C 0.68072 0.05052 0.01259 0.0
C1569 C 0.65154 0.04916 0.05976 0.0
H1570 H 0.69453 0.06385 0.1189 0.0
C1571 C 0.61055 0.03874 0.1595 0.0
C1572 C 0.61956 0.02764 0.17736 0.0
C1573 C 0.62191 0.04512 0.13584 0.0
C1574 C 0.68225 0.05945 0.10255 0.0
H1575 H 0.74528 0.11662 0.00412 0.0
H1576 H 0.7236 0.10557 0.0445 0.0
H1577 H 0.71522 0.07473 0.07802 0.0
H1578 H 0.64708 0.01393 0.18427 0.0
H1579 H 0.66661 0.02476 0.14296 0.0
H1580 H 0.6185 0.03327 0.08434 0.0
C1581 C 0.71495 0.09169 0.02933 0.0
C1582 C 0.69412 0.06597 0.07917 0.0
C1583 C 0.72729 0.09806 0.00616 0.0
C1584 C 0.63989 0.02274 0.17102 0.0
C1585 C 0.65116 0.02903 0.14739 0.0
C1586 C 0.63964 0.04258 0.08318 0.0
C1587 C 0.69161 0.06782 0.0328 0.0
C1588 C 0.67889 0.06089 0.05755 0.0
C1589 C 0.64241 0.04043 0.12962 0.0
C1590 C 0.6549 0.04762 0.10478 0.0
H1591 H 0.68426 0.04311 0.97416 0.0
H1592 H 0.66292 0.03183 0.01482 0.0
H1593 H 0.63935 0.04526 0.04341 0.0
H1594 H 0.59488 0.04272 0.16383 0.0
H1595 H 0.61495 0.05412 0.12257 0.0
C1596 C 0.97901 0.62601 0.16492 0.0
C1597 C 0.97822 0.60211 0.16927 0.0
C1598 C 0.97202 0.63127 0.14175 0.0
C1599 C 0.9418 0.63086 0.09613 0.0
H1600 H 0.96632 0.61295 0.03617 0.0
C1601 C 0.90964 0.64164 -0.00281 0.0
C1602 C 0.92931 0.65148 0.97884 0.0
C1603 C 0.9147 0.63519 0.02077 0.0
C1604 C 0.95946 0.6182 0.05277 0.0
H1605 H 0.96958 0.56497 0.15276 0.0
H1606 H 0.95704 0.57405 0.11232 0.0
H1607 H 0.97726 0.60261 0.07676 0.0
H1608 H 0.96993 0.66326 0.97103 0.0
H1609 H 0.97881 0.65243 0.01222 0.0
H1610 H 0.92471 0.64722 0.07209 0.0
C1611 C 0.96337 0.58883 0.12678 0.0
C1612 C 0.96545 0.61199 0.07598 0.0
C1613 C 0.97047 0.58361 0.14994 0.0
C1614 C 0.95426 0.65539 0.98468 0.0
C1615 C 0.95932 0.64906 0.00822 0.0
C1616 C 0.93587 0.63715 0.0729 0.0
C1617 C 0.96404 0.61269 0.12249 0.0
C1618 C 0.95684 0.61843 0.09788 0.0
C1619 C 0.93952 0.63859 0.02639 0.0
C1620 C 0.94486 0.63109 0.05102 0.0
H1621 H 0.98509 0.64075 0.1794 0.0
H1622 H 0.97319 0.65002 0.13883 0.0
H1623 H 0.93462 0.63574 0.11273 0.0
H1624 H 0.89022 0.63844 -0.00679 0.0
H1625 H 0.89903 0.627 0.03441 0.0
C1626 C 0.40113 0.35475 0.16864 0.0
C1627 C 0.42403 0.37939 0.17002 0.0
C1628 C 0.39191 0.34249 0.14567 0.0
C1629 C 0.41304 0.34115 0.08172 0.0
H1630 H 0.33885 0.30824 0.06636 0.0
C1631 C 0.37104 0.27893 -0.00572 0.0
C1632 C 0.35467 0.28444 0.97952 0.0
C1633 C 0.37748 0.28868 0.01843 0.0
C1634 C 0.35961 0.31744 0.0704 0.0
H1635 H 0.45526 0.41046 0.14842 0.0
H1636 H 0.43911 0.38894 0.10828 0.0
H1637 H 0.35495 0.32993 0.10662 0.0
H1638 H 0.33093 0.30319 0.97901 0.0
H1639 H 0.34246 0.32052 0.0214 0.0
H1640 H 0.41785 0.32914 0.04546 0.0
C1641 C 0.42845 0.37908 0.12502 0.0
C1642 C 0.36878 0.32963 0.09346 0.0
C1643 C 0.43765 0.3914 0.14799 0.0
C1644 C 0.3437 0.29873 0.98991 0.0
C1645 C 0.35022 0.30857 0.01417 0.0
C1646 C 0.40388 0.32893 0.05876 0.0
C1647 C 0.40543 0.35457 0.12365 0.0
C1648 C 0.39559 0.34161 0.0993 0.0
C1649 C 0.36772 0.30418 0.02837 0.0
C1650 C 0.37708 0.3169 0.0529 0.0
H1651 H 0.39013 0.34501 0.18526 0.0
H1652 H 0.37429 0.32345 0.14516 0.0
H1653 H 0.43376 0.35004 0.08581 0.0
H1654 H 0.37944 0.26757 0.98696 0.0
H1655 H 0.39053 0.28449 0.02919 0.0
C1656 C 0.96072 0.38551 0.65942 0.0
C1657 C 0.98606 0.39619 0.66941 0.0
C1658 C 0.9553 0.37468 0.6356 0.0
C1659 C 0.98236 0.37642 0.57525 0.0
H1660 H 0.92688 0.304 0.56955 0.0
C1661 C 0.95927 0.32009 0.48235 0.0
C1662 C 0.93296 0.30189 0.47714 0.0
C1663 C 0.96646 0.33193 0.50573 0.0
C1664 C 0.94212 0.32435 0.57071 0.0
H1665 H 0.02585 0.40485 0.66208 0.0
H1666 H 0.01637 0.38635 0.61983 0.0
H1667 H 0.93844 0.32485 0.61039 0.0
H1668 H 0.89343 0.28209 0.49194 0.0
H1669 H 0.90573 0.30362 0.53244 0.0
H1670 H 0.98547 0.37644 0.53556 0.0
C1671 C 0.00077 0.38616 0.63074 0.0
C1672 C 0.94884 0.33616 0.5941 0.0
C1673 C 0.00612 0.3966 0.65483 0.0
C1674 C 0.91388 0.29596 0.49557 0.0
C1675 C 0.921 0.30816 0.51881 0.0
C1676 C 0.97534 0.36476 0.55174 0.0
C1677 C 0.97522 0.37477 0.6212 0.0
C1678 C 0.96893 0.36226 0.5965 0.0
C1679 C 0.94741 0.32614 0.52425 0.0
C1680 C 0.95507 0.33858 0.54919 0.0
H1681 H 0.94484 0.38486 0.67023 0.0
H1682 H 0.93551 0.36614 0.62844 0.0
H1683 H -0.0022 0.39667 0.57677 0.0
H1684 H 0.97442 0.32473 0.46854 0.0
H1685 H 0.98702 0.34526 0.50938 0.0
C1686 C 0.62451 0.58815 0.64563 0.0
C1687 C 0.63863 0.59484 0.66803 0.0
C1688 C 0.63769 0.5942 0.62286 0.0
C1689 C 0.70268 0.63805 0.59531 0.0
H1690 H 0.67218 0.59266 0.53795 0.0
C1691 C 0.75231 0.65685 0.49816 0.0
C1692 C 0.73643 0.65751 0.47897 0.0
C1693 C 0.7418 0.64789 0.52184 0.0
C1694 C 0.68089 0.6054 0.5539 0.0
H1695 H 0.67745 0.61223 0.6844 0.0
H1696 H 0.70042 0.62201 0.64469 0.0
H1697 H 0.65108 0.57864 0.57861 0.0
H1698 H 0.69719 0.64914 0.46927 0.0
H1699 H 0.67882 0.63309 0.51052 0.0
H1700 H 0.7326 0.66467 0.5704 0.0
C1701 C 0.67925 0.61284 0.64461 0.0
C1702 C 0.66878 0.59752 0.57709 0.0
C1703 C 0.6661 0.60716 0.66735 0.0
C1704 C 0.70991 0.64896 0.48376 0.0
C1705 C 0.69934 0.6396 0.50724 0.0
C1706 C 0.71499 0.64573 0.57217 0.0
C1707 C 0.66522 0.60667 0.62211 0.0
C1708 C 0.67924 0.614 0.59795 0.0
C1709 C 0.7152 0.63902 0.52641 0.0
C1710 C 0.70386 0.62969 0.55126 0.0
H1711 H 0.60331 0.57877 0.64569 0.0
H1712 H 0.6263 0.58961 0.60587 0.0
H1713 H 0.71106 0.65138 0.6109 0.0
H1714 H 0.77285 0.66342 0.49492 0.0
H1715 H 0.75431 0.6476 0.53649 0.0
C1716 C 0.43626 0.03988 0.65855 0.0
C1717 C 0.41635 0.03032 0.67667 0.0
C1718 C 0.43162 0.04633 0.63478 0.0
C1719 C 0.38849 0.06519 0.60275 0.0
H1720 H 0.41326 0.04807 0.54248 0.0
C1721 C 0.37035 0.06117 0.49064 0.0
C1722 C 0.37221 0.08567 0.48696 0.0
C1723 C 0.37696 0.05494 0.51355 0.0
C1724 C 0.40613 0.05286 0.55917 0.0
H1725 H 0.37565 0.01873 0.68377 0.0
H1726 H 0.36754 0.02962 0.64231 0.0
H1727 H 0.42193 0.03496 0.58295 0.0
H1728 H 0.38249 0.12288 0.50438 0.0
H1729 H 0.39426 0.11203 0.54435 0.0
H1730 H 0.37209 0.08245 0.57907 0.0
C1731 C 0.38688 0.03277 0.64663 0.0
C1732 C 0.41132 0.0456 0.58229 0.0
C1733 C 0.39151 0.02641 0.67033 0.0
C1734 C 0.38077 0.10381 0.50666 0.0
C1735 C 0.38743 0.09758 0.52956 0.0
C1736 C 0.3833 0.07241 0.57968 0.0
C1737 C 0.407 0.04323 0.62879 0.0
C1738 C 0.40233 0.0515 0.60426 0.0
C1739 C 0.38555 0.07308 0.53322 0.0
C1740 C 0.39192 0.06618 0.55767 0.0
H1741 H 0.45559 0.04304 0.6629 0.0
H1742 H 0.4475 0.05447 0.62137 0.0
H1743 H 0.38167 0.07034 0.61943 0.0
H1744 H 0.3637 0.04672 0.47585 0.0
H1745 H 0.37492 0.03575 0.51598 0.0
C1746 C 0.39607 0.97882 0.84386 0.0
C1747 C 0.38496 0.98355 0.82272 0.0
C1748 C 0.38399 0.97486 0.8671 0.0
C1749 C 0.32017 0.95577 0.89607 0.0
H1750 H 0.36195 0.98531 0.95569 0.0
C1751 C 0.3056 0.97106 0.00695 0.0
C1752 C 0.28486 0.94589 0.01262 0.0
C1753 C 0.31777 0.97627 0.98366 0.0
C1754 C 0.35 0.97715 0.93918 0.0
H1755 H 0.35279 0.9884 0.80946 0.0
H1756 H 0.33199 0.9819 0.85006 0.0
H1757 H 0.38349 0.99391 0.91518 0.0
H1758 H 0.26057 0.90646 -0.00174 0.0
H1759 H 0.2821 0.91546 0.95785 0.0
H1760 H 0.28663 0.93951 0.91997 0.0
C1761 C 0.34972 0.98071 0.84859 0.0
C1762 C 0.36236 0.98179 0.91603 0.0
C1763 C 0.36171 0.98454 0.82534 0.0
C1764 C 0.27645 0.92609 -0.00553 0.0
C1765 C 0.28868 0.93127 0.97125 0.0
C1766 C 0.30781 0.95121 0.9192 0.0
C1767 C 0.36065 0.9757 0.86968 0.0
C1768 C 0.34757 0.97108 0.89425 0.0
C1769 C 0.30949 0.9564 0.9656 0.0
C1770 C 0.3226 0.96175 0.94101 0.0
H1771 H 0.41396 0.97791 0.84245 0.0
H1772 H 0.3927 0.97072 0.88296 0.0
H1773 H 0.30825 0.94701 0.87966 0.0
H1774 H 0.31242 0.98679 0.02047 0.0
H1775 H 0.3335 0.99592 0.97972 0.0
C1776 C 0.05716 0.363 0.00181 0.0
C1777 C 0.08377 0.37263 0.0071 0.0
C1778 C 0.04929 0.36505 0.97782 0.0
C1779 C 0.07299 0.37746 0.91228 0.0
H1780 H 0.01589 0.39169 0.9031 0.0
C1781 C 0.05502 0.42088 0.8236 0.0
C1782 C 0.02987 0.4068 0.81314 0.0
C1783 C 0.06022 0.4137 0.84669 0.0
C1784 C 0.03164 0.38739 0.90549 0.0
H1785 H 0.1231 0.39248 0.99183 0.0
H1786 H 0.10958 0.39731 0.95023 0.0
H1787 H 0.02818 0.38621 0.94515 0.0
H1788 H 0.99043 0.3743 0.81837 0.0
H1789 H -0.00056 0.36226 0.85952 0.0
H1790 H 0.07722 0.38018 0.87254 0.0
C1791 C 0.09462 0.38729 0.96428 0.0
C1792 C 0.03867 0.38417 0.9295 0.0
C1793 C 0.10244 0.38478 0.98816 0.0
C1794 C 0.00999 0.38536 0.82609 0.0
C1795 C 0.01507 0.37854 0.84951 0.0
C1796 C 0.06626 0.38117 0.88834 0.0
C1797 C 0.06792 0.37719 0.95874 0.0
C1798 C 0.05963 0.37945 0.9332 0.0
C1799 C 0.04024 0.39268 0.85988 0.0
C1800 C 0.04571 0.38637 0.88485 0.0
H1801 H 0.04234 0.35319 0.01604 0.0
H1802 H 0.02854 0.35666 0.97415 0.0
H1803 H 0.08878 0.37319 0.91437 0.0
H1804 H 0.07072 0.43739 0.81389 0.0
H1805 H 0.07972 0.42494 0.85452 0.0
C1806 C 0.59217 0.60698 0.83205 0.0
C1807 C 0.6105 0.61848 0.81265 0.0
C1808 C 0.59832 0.61745 0.8561 0.0
C1809 C 0.63929 0.67954 0.88732 0.0
H1810 H 0.62422 0.63801 0.94756 0.0
C1811 C 0.63723 0.71927 0.98427 0.0
C1812 C 0.65035 0.7143 0.00349 0.0
C1813 C 0.63379 0.70727 0.96113 0.0
C1814 C 0.62869 0.64979 0.93084 0.0
H1815 H 0.65002 0.6492 0.80348 0.0
H1816 H 0.66051 0.66737 0.84527 0.0
H1817 H 0.61527 0.61645 0.90674 0.0
H1818 H 0.6704 0.69309 0.01354 0.0
H1819 H 0.66415 0.6719 0.97288 0.0
H1820 H 0.65246 0.71281 0.91125 0.0
C1821 C 0.64136 0.65051 0.84183 0.0
C1822 C 0.62337 0.63748 0.9076 0.0
C1823 C 0.63531 0.64004 0.81792 0.0
C1824 C 0.66022 0.69729 -0.00095 0.0
C1825 C 0.65652 0.68506 0.97591 0.0
C1826 C 0.64437 0.69177 0.91048 0.0
C1827 C 0.6228 0.63959 0.86102 0.0
C1828 C 0.62862 0.65229 0.88569 0.0
C1829 C 0.64325 0.68996 0.95682 0.0
C1830 C 0.639 0.677 0.9324 0.0
H1831 H 0.57297 0.59023 0.82859 0.0
H1832 H 0.58365 0.60877 0.87064 0.0
H1833 H 0.64327 0.69135 0.87067 0.0
H1834 H 0.62949 0.73236 0.9871 0.0
H1835 H 0.62331 0.71119 0.94672 0.0
C1836 C 0.71728 0.99492 0.65206 0.0
C1837 C 0.70684 0.96774 0.65012 0.0
C1838 C 0.72451 0.00719 0.67526 0.0
C1839 C 0.73906 0.99624 0.74001 0.0
H1840 H 0.72634 0.05338 0.75529 0.0
C1841 C 0.73664 0.03188 0.83929 0.0
C1842 C 0.75281 0.05885 0.84345 0.0
C1843 C 0.73279 0.02183 0.81518 0.0
C1844 C 0.73018 0.03759 0.7511 0.0
H1845 H 0.69503 0.9319 0.67073 0.0
H1846 H 0.70657 0.95307 0.71133 0.0
H1847 H 0.71563 0.03343 0.71394 0.0
H1848 H 0.77735 0.09656 0.82586 0.0
H1849 H 0.76996 0.07887 0.78342 0.0
H1850 H 0.75251 -0.00019 0.77766 0.0
C1851 C 0.71013 0.96513 0.69495 0.0
C1852 C 0.72418 0.02623 0.72745 0.0
C1853 C 0.70333 0.95296 0.67173 0.0
C1854 C 0.76488 0.07566 0.8231 0.0
C1855 C 0.76062 0.06563 0.79892 0.0
C1856 C 0.74462 0.00732 0.76374 0.0
C1857 C 0.72099 0.99242 0.69698 0.0
C1858 C 0.72836 0.00528 0.72171 0.0
C1859 C 0.74466 0.03865 0.79487 0.0
C1860 C 0.74005 0.02793 0.76946 0.0
H1861 H 0.72037 0.00679 0.6356 0.0
H1862 H 0.73317 0.02828 0.67611 0.0
H1863 H 0.7431 0.98057 0.73605 0.0
H1864 H 0.72718 0.01851 0.85467 0.0
H1865 H 0.72025 0.00095 0.81234 0.0
C1866 C 0.04004 0.72225 0.65073 0.0
C1867 C 0.06133 0.74738 0.646 0.0
C1868 C 0.02751 0.71638 0.67386 0.0
C1869 C 0.01519 0.74725 0.72708 0.0
H1870 H -9e-05 0.68388 0.76275 0.0
C1871 C 0.95035 0.71217 0.81493 0.0
C1872 C 0.96064 0.70508 0.83518 0.0
C1873 C 0.9622 0.71674 0.79155 0.0
C1874 C 0.00413 0.70165 0.75297 0.0
H1875 H 0.08639 0.78596 0.66187 0.0
H1876 H 0.06434 0.77567 0.70216 0.0
H1877 H 0.02193 0.6931 0.72224 0.0
H1878 H 0.99108 0.69676 0.84676 0.0
H1879 H 0.01172 0.7047 0.80578 0.0
H1880 H -0.00247 0.75589 0.75781 0.0
C1881 C 0.05731 0.76063 0.68791 0.0
C1882 C 0.01651 0.70681 0.72979 0.0
C1883 C 0.06999 0.76643 0.6649 0.0
C1884 C 0.98282 0.70237 0.83154 0.0
C1885 C 0.9945 0.7067 0.80809 0.0
C1886 C 0.0026 0.74197 0.75012 0.0
C1887 C 0.03592 0.7356 0.69254 0.0
C1888 C 0.02228 0.72974 0.71676 0.0
C1889 C 0.98435 0.71402 0.78795 0.0
C1890 C 0.9971 0.71921 0.7633 0.0
H1891 H 0.03301 0.70713 0.63656 0.0
H1892 H 0.01095 0.69697 0.677 0.0
H1893 H 0.01925 0.76495 0.71725 0.0
H1894 H 0.93322 0.71432 0.81715 0.0
H1895 H 0.95391 0.72216 0.77621 0.0
C1896 C 0.26099 0.33905 0.66431 0.0
C1897 C 0.27777 0.34171 0.64449 0.0
C1898 C 0.26672 0.33485 0.68854 0.0
C1899 C 0.27411 0.30772 0.7331 0.0
H1900 H 0.3456 0.34082 0.75755 0.0
C1901 C 0.30262 0.26609 0.81576 0.0
C1902 C 0.32008 0.28368 0.8335 0.0
C1903 C 0.29803 0.27528 0.79351 0.0
C1904 C 0.32551 0.33166 0.75111 0.0
H1905 H 0.31395 0.3425 0.63458 0.0
H1906 H 0.32358 0.33459 0.67666 0.0
H1907 H 0.33644 0.35437 0.71759 0.0
H1908 H 0.34691 0.32471 0.84156 0.0
H1909 H 0.33863 0.3408 0.80262 0.0
H1910 H 0.26312 0.28517 0.76664 0.0
C1911 C 0.30624 0.3362 0.6736 0.0
C1912 C 0.3203 0.3392 0.72813 0.0
C1913 C 0.30058 0.3405 0.64943 0.0
C1914 C 0.33332 0.31066 0.82826 0.0
C1915 C 0.32864 0.31988 0.80596 0.0
C1916 C 0.27931 0.30024 0.75606 0.0
C1917 C 0.2893 0.33317 0.69338 0.0
C1918 C 0.2946 0.32698 0.71871 0.0
C1919 C 0.31071 0.30227 0.78851 0.0
C1920 C 0.30511 0.31177 0.76508 0.0
H1921 H 0.2434 0.34018 0.66114 0.0
H1922 H 0.25346 0.33291 0.70348 0.0
H1923 H 0.25414 0.29779 0.72628 0.0
H1924 H 0.29231 0.24516 0.81908 0.0
H1925 H 0.28456 0.26119 0.78017 0.0
C1926 C 0.06875 0.30219 0.16561 0.0
C1927 C 0.05825 0.31193 0.14783 0.0
C1928 C 0.05698 0.2941 0.18897 0.0
C1929 C 0.9947 0.2735 0.22198 0.0
H1930 H 0.03817 0.29469 0.28124 0.0
C1931 C 0.98435 0.28756 0.33297 0.0
C1932 C 0.96173 0.26376 0.33876 0.0
C1933 C 0.9963 0.29122 0.30976 0.0
C1934 C 0.0258 0.28868 0.26484 0.0
H1935 H 0.02748 0.32125 0.14075 0.0
H1936 H 0.00729 0.30756 0.18156 0.0
H1937 H 0.05878 0.30559 0.24023 0.0
H1938 H 0.93386 0.22508 0.32478 0.0
H1939 H 0.95496 0.23146 0.2842 0.0
H1940 H 0.96173 0.25752 0.24658 0.0
C1941 C 0.02424 0.30563 0.17727 0.0
C1942 C 0.03759 0.29465 0.24139 0.0
C1943 C 0.03595 0.31365 0.15395 0.0
C1944 C 0.95125 0.24368 0.32084 0.0
C1945 C 0.96327 0.24733 0.2976 0.0
C1946 C 0.98292 0.26757 0.24543 0.0
C1947 C 0.03455 0.29566 0.19496 0.0
C1948 C 0.02214 0.2875 0.21975 0.0
C1949 C 0.98592 0.27114 0.29187 0.0
C1950 C -0.00164 0.27548 0.26708 0.0
H1951 H 0.08591 0.30059 0.16142 0.0
H1952 H 0.06524 0.28635 0.20223 0.0
H1953 H 0.98232 0.26741 0.20558 0.0
H1954 H 0.99282 0.30349 0.3463 0.0
H1955 H 0.01344 0.30996 0.30569 0.0
C1956 C 0.72881 0.71882 0.33917 0.0
C1957 C 0.75277 0.71896 0.3397 0.0
C1958 C 0.71836 0.72105 0.3166 0.0
C1959 C 0.69427 0.71024 0.26452 0.0
H1960 H 0.74082 0.7629 0.21741 0.0
C1961 C 0.66924 0.71675 0.16087 0.0
C1962 C 0.67899 0.74212 0.15123 0.0
C1963 C 0.67524 0.71331 0.1853 0.0
C1964 C 0.72751 0.74826 0.23047 0.0
H1965 H 0.7845 0.72145 0.317 0.0
H1966 H 0.76626 0.72549 0.2776 0.0
H1967 H 0.758 0.75833 0.25714 0.0
H1968 H 0.70039 0.7836 0.16011 0.0
H1969 H 0.71053 0.77754 0.20264 0.0
H1970 H 0.66373 0.70031 0.23769 0.0
C1971 C 0.7557 0.72383 0.29469 0.0
C1972 C 0.73743 0.74545 0.25306 0.0
C1973 C 0.76611 0.72148 0.31723 0.0
C1974 C 0.69311 0.76382 0.1669 0.0
C1975 C 0.69896 0.76039 0.19121 0.0
C1976 C 0.68433 0.71297 0.24178 0.0
C1977 C 0.73172 0.72359 0.29417 0.0
C1978 C 0.72094 0.72643 0.27029 0.0
C1979 C 0.69092 0.73518 0.20034 0.0
C1980 C 0.70088 0.7321 0.22462 0.0
H1981 H 0.71796 0.71674 0.35615 0.0
H1982 H 0.69997 0.72109 0.31671 0.0
H1983 H 0.6812 0.69526 0.27745 0.0
H1984 H 0.65819 0.69968 0.14919 0.0
H1985 H 0.66881 0.69365 0.19194 0.0
C1986 C 0.31376 0.07788 0.3251 0.0
C1987 C 0.3098 0.06205 0.34604 0.0
C1988 C 0.3055 0.06662 0.3016 0.0
C1989 C 0.28583 0.00537 0.26658 0.0
H1990 H 0.25727 0.03522 0.22026 0.0
C1991 C 0.23691 0.95588 0.17385 0.0
C1992 C 0.24716 0.97203 0.15278 0.0
C1993 C 0.24326 0.96663 0.19773 0.0
C1994 C 0.26528 0.02679 0.23304 0.0
H1995 H 0.29391 0.02207 0.35898 0.0
H1996 H 0.27874 0.00232 0.31811 0.0
H1997 H 0.27093 0.05431 0.26173 0.0
H1998 H 0.2714 0.0121 0.14006 0.0
H1999 H 0.2821 0.03091 0.18192 0.0
H2000 H 0.27964 0.97755 0.23791 0.0
C2001 C 0.28883 0.02347 0.31966 0.0
C2002 C 0.27324 0.03776 0.2567 0.0
C2003 C 0.29742 0.03476 0.3431 0.0
C2004 C 0.26328 -0.00081 0.15599 0.0
C2005 C 0.2693 0.00996 0.17986 0.0
C2006 C 0.27754 0.99421 0.24306 0.0
C2007 C 0.29279 0.03927 0.29863 0.0
C2008 C 0.28379 0.02728 0.27368 0.0
C2009 C 0.25962 0.99372 0.20089 0.0
C2010 C 0.26737 0.00494 0.22607 0.0
H2011 H 0.32348 0.09901 0.32682 0.0
H2012 H 0.30933 0.07939 0.28573 0.0
H2013 H 0.29429 0.9971 0.27901 0.0
H2014 H 0.22453 0.93486 0.17191 0.0
H2015 H 0.23547 0.95379 0.21374 0.0
loop_
_geom_bond_atom_site_label_1
_geom_bond_atom_site_label_2
_geom_bond_distance
_geom_bond_site_symmetry_2
_ccdc_geom_bond_type
Fe0 O2 1.918 . S
Fe0 O5 1.997 . S
Fe0 O6 2.002 . S
Fe0 O11 1.976 . S
Fe0 O14 1.996 . S
Fe1 O2 1.918 . S
Fe1 O9 1.997 . S
Fe1 O12 1.996 . S
Fe1 O16 1.976 1_455 S
Fe1 O19 2.002 1_455 S
O2 Fe0 1.918 . S
O2 Fe1 1.918 . S
O2 Fe3 1.918 1_455 S
Fe3 O2 1.918 1_655 S
Fe3 O4 2.002 . S
Fe3 O13 1.976 1_655 S
Fe3 O17 1.996 . S
Fe3 O20 1.997 . S
O4 Fe3 2.002 . S
O4 C21 1.295 . S
O5 Fe0 1.997 . S
O5 C21 1.235 1_455 S
O6 Fe0 2.002 . S
O6 C7 1.295 . S
C7 O6 1.295 . S
C7 O9 1.235 . S
C8 O13 1.287 . S
C8 O14 1.255 . S
O9 Fe1 1.997 . S
O9 C7 1.235 . S
C10 O16 1.287 . S
C10 O17 1.255 . S
O11 Fe0 1.976 . S
O11 C18 1.287 . S
O12 Fe1 1.996 . S
O12 C18 1.255 . S
O13 Fe3 1.976 1_455 S
O13 C8 1.287 . S
O14 Fe0 1.996 . S
O14 C8 1.255 . S
C15 O19 1.295 . S
C15 O20 1.235 . S
O16 Fe1 1.976 1_655 S
O16 C10 1.287 . S
O17 Fe3 1.996 . S
O17 C10 1.255 . S
C18 O11 1.287 . S
C18 O12 1.255 . S
O19 Fe1 2.002 1_655 S
O19 C15 1.295 . S
O20 Fe3 1.997 . S
O20 C15 1.235 . S
C21 O4 1.295 . S
C21 O5 1.235 1_655 S
Fe22 O24 1.918 . S
Fe22 O27 1.997 . S
Fe22 O28 2.002 . S
Fe22 O33 1.976 . S
Fe22 O36 1.996 . S
Fe23 O24 1.918 . S
Fe23 O31 1.997 . S
Fe23 O34 1.996 . S
Fe23 O38 1.976 . S
Fe23 O41 2.002 . S
O24 Fe22 1.918 . S
O24 Fe23 1.918 . S
O24 Fe25 1.918 . S
Fe25 O24 1.918 . S
Fe25 O26 2.002 . S
Fe25 O35 1.976 . S
Fe25 O39 1.996 . S
Fe25 O42 1.997 . S
O26 Fe25 2.002 . S
O26 C43 1.295 . S
O27 Fe22 1.997 . S
O27 C43 1.235 . S
O28 Fe22 2.002 . S
O28 C29 1.295 . S
C29 O28 1.295 . S
C29 O31 1.235 . S
C30 O35 1.287 . S
C30 O36 1.255 . S
O31 Fe23 1.997 . S
O31 C29 1.235 . S
C32 O38 1.287 . S
C32 O39 1.255 . S
O33 Fe22 1.976 . S
O33 C40 1.287 . S
O34 Fe23 1.996 . S
O34 C40 1.255 . S
O35 Fe25 1.976 . S
O35 C30 1.287 . S
O36 Fe22 1.996 . S
O36 C30 1.255 . S
C37 O41 1.295 . S
C37 O42 1.235 . S
O38 Fe23 1.976 . S
O38 C32 1.287 . S
O39 Fe25 1.996 . S
O39 C32 1.255 . S
C40 O33 1.287 . S
C40 O34 1.255 . S
O41 Fe23 2.002 . S
O41 C37 1.295 . S
O42 Fe25 1.997 . S
O42 C37 1.235 . S
C43 O26 1.295 . S
C43 O27 1.235 . S
Fe44 O46 1.918 . S
Fe44 O49 1.997 . S
Fe44 O50 2.002 . S
Fe44 O55 1.976 . S
Fe44 O58 1.996 . S
Fe45 O46 1.918 1_565 S
Fe45 O53 1.997 1_565 S
Fe45 O56 1.996 . S
Fe45 O60 1.976 . S
Fe45 O63 2.002 . S
O46 Fe44 1.918 . S
O46 Fe45 1.918 1_545 S
O46 Fe47 1.918 . S
Fe47 O46 1.918 . S
Fe47 O48 2.002 . S
Fe47 O57 1.976 . S
Fe47 O61 1.996 1_545 S
Fe47 O64 1.997 1_545 S
O48 Fe47 2.002 . S
O48 C65 1.295 . S
O49 Fe44 1.997 . S
O49 C65 1.235 . S
O50 Fe44 2.002 . S
O50 C51 1.295 . S
C51 O50 1.295 . S
C51 O53 1.235 . S
C52 O57 1.287 . S
C52 O58 1.255 . S
O53 Fe45 1.997 1_545 S
O53 C51 1.235 . S
C54 O60 1.287 . S
C54 O61 1.255 . S
O55 Fe44 1.976 . S
O55 C62 1.287 1_545 S
O56 Fe45 1.996 . S
O56 C62 1.255 . S
O57 Fe47 1.976 . S
O57 C52 1.287 . S
O58 Fe44 1.996 . S
O58 C52 1.255 . S
C59 O63 1.295 . S
C59 O64 1.235 . S
O60 Fe45 1.976 . S
O60 C54 1.287 . S
O61 Fe47 1.996 1_565 S
O61 C54 1.255 . S
C62 O55 1.287 1_565 S
C62 O56 1.255 . S
O63 Fe45 2.002 . S
O63 C59 1.295 . S
O64 Fe47 1.997 1_565 S
O64 C59 1.235 . S
C65 O48 1.295 . S
C65 O49 1.235 . S
Fe66 O68 1.918 . S
Fe66 O71 1.997 . S
Fe66 O72 2.002 . S
Fe66 O77 1.976 . S
Fe66 O80 1.996 . S
Fe67 O68 1.918 1_655 S
Fe67 O75 1.997 1_655 S
Fe67 O78 1.996 . S
Fe67 O82 1.976 . S
Fe67 O85 2.002 . S
O68 Fe66 1.918 . S
O68 Fe67 1.918 1_455 S
O68 Fe69 1.918 . S
Fe69 O68 1.918 . S
Fe69 O70 2.002 . S
Fe69 O79 1.976 . S
Fe69 O83 1.996 1_455 S
Fe69 O86 1.997 1_455 S
O70 Fe69 2.002 . S
O70 C87 1.295 . S
O71 Fe66 1.997 . S
O71 C87 1.235 . S
O72 Fe66 2.002 . S
O72 C73 1.295 . S
C73 O72 1.295 . S
C73 O75 1.235 . S
C74 O79 1.287 . S
C74 O80 1.255 . S
O75 Fe67 1.997 1_455 S
O75 C73 1.235 . S
C76 O82 1.287 . S
C76 O83 1.255 . S
O77 Fe66 1.976 . S
O77 C84 1.287 1_455 S
O78 Fe67 1.996 . S
O78 C84 1.255 . S
O79 Fe69 1.976 . S
O79 C74 1.287 . S
O80 Fe66 1.996 . S
O80 C74 1.255 . S
C81 O85 1.295 . S
C81 O86 1.235 . S
O82 Fe67 1.976 . S
O82 C76 1.287 . S
O83 Fe69 1.996 1_655 S
O83 C76 1.255 . S
C84 O77 1.287 1_655 S
C84 O78 1.255 . S
O85 Fe67 2.002 . S
O85 C81 1.295 . S
O86 Fe69 1.997 1_655 S
O86 C81 1.235 . S
C87 O70 1.295 . S
C87 O71 1.235 . S
Fe88 O90 1.918 . S
Fe88 O93 1.997 . S
Fe88 O94 2.002 . S
Fe88 O99 1.976 . S
Fe88 O102 1.996 . S
Fe89 O90 1.918 . S
Fe89 O97 1.997 . S
Fe89 O100 1.996 . S
Fe89 O104 1.976 . S
Fe89 O107 2.002 . S
O90 Fe88 1.918 . S
O90 Fe89 1.918 . S
O90 Fe91 1.918 . S
Fe91 O90 1.918 . S
Fe91 O92 2.002 . S
Fe91 O101 1.976 . S
Fe91 O105 1.996 . S
Fe91 O108 1.997 . S
O92 Fe91 2.002 . S
O92 C109 1.295 . S
O93 Fe88 1.997 . S
O93 C109 1.235 . S
O94 Fe88 2.002 . S
O94 C95 1.295 . S
C95 O94 1.295 . S
C95 O97 1.235 . S
C96 O101 1.287 . S
C96 O102 1.255 . S
O97 Fe89 1.997 . S
O97 C95 1.235 . S
C98 O104 1.287 . S
C98 O105 1.255 . S
O99 Fe88 1.976 . S
O99 C106 1.287 . S
O100 Fe89 1.996 . S
O100 C106 1.255 . S
O101 Fe91 1.976 . S
O101 C96 1.287 . S
O102 Fe88 1.996 . S
O102 C96 1.255 . S
C103 O107 1.295 . S
C103 O108 1.235 . S
O104 Fe89 1.976 . S
O104 C98 1.287 . S
O105 Fe91 1.996 . S
O105 C98 1.255 . S
C106 O99 1.287 . S
C106 O100 1.255 . S
O107 Fe89 2.002 . S
O107 C103 1.295 . S
O108 Fe91 1.997 . S
O108 C103 1.235 . S
C109 O92 1.295 . S
C109 O93 1.235 . S
Fe110 O112 1.918 . S
Fe110 O115 1.997 . S
Fe110 O116 2.002 . S
Fe110 O121 1.976 . S
Fe110 O124 1.996 . S
Fe111 O112 1.918 . S
Fe111 O119 1.997 . S
Fe111 O122 1.996 . S
Fe111 O126 1.976 1_545 S
Fe111 O129 2.002 1_545 S
O112 Fe110 1.918 . S
O112 Fe111 1.918 . S
O112 Fe113 1.918 1_545 S
Fe113 O112 1.918 1_565 S
Fe113 O114 2.002 . S
Fe113 O123 1.976 1_565 S
Fe113 O127 1.996 . S
Fe113 O130 1.997 . S
O114 Fe113 2.002 . S
O114 C131 1.295 . S
O115 Fe110 1.997 . S
O115 C131 1.235 1_545 S
O116 Fe110 2.002 . S
O116 C117 1.295 . S
C117 O116 1.295 . S
C117 O119 1.235 . S
C118 O123 1.287 . S
C118 O124 1.255 . S
O119 Fe111 1.997 . S
O119 C117 1.235 . S
C120 O126 1.287 . S
C120 O127 1.255 . S
O121 Fe110 1.976 . S
O121 C128 1.287 . S
O122 Fe111 1.996 . S
O122 C128 1.255 . S
O123 Fe113 1.976 1_545 S
O123 C118 1.287 . S
O124 Fe110 1.996 . S
O124 C118 1.255 . S
C125 O129 1.295 . S
C125 O130 1.235 . S
O126 Fe111 1.976 1_565 S
O126 C120 1.287 . S
O127 Fe113 1.996 . S
O127 C120 1.255 . S
C128 O121 1.287 . S
C128 O122 1.255 . S
O129 Fe111 2.002 1_565 S
O129 C125 1.295 . S
O130 Fe113 1.997 . S
O130 C125 1.235 . S
C131 O114 1.295 . S
C131 O115 1.235 1_565 S
Fe132 O134 1.918 . S
Fe132 O137 1.997 . S
Fe132 O138 2.002 . S
Fe132 O143 1.976 . S
Fe132 O146 1.996 . S
Fe133 O134 1.918 . S
Fe133 O141 1.997 . S
Fe133 O144 1.996 . S
Fe133 O148 1.976 . S
Fe133 O151 2.002 . S
O134 Fe132 1.918 . S
O134 Fe133 1.918 . S
O134 Fe135 1.918 . S
Fe135 O134 1.918 . S
Fe135 O136 2.002 . S
Fe135 O145 1.976 . S
Fe135 O149 1.996 . S
Fe135 O152 1.997 . S
O136 Fe135 2.002 . S
O136 C153 1.295 . S
O137 Fe132 1.997 . S
O137 C153 1.235 . S
O138 Fe132 2.002 . S
O138 C139 1.295 . S
C139 O138 1.295 . S
C139 O141 1.235 . S
C140 O145 1.287 . S
C140 O146 1.255 . S
O141 Fe133 1.997 . S
O141 C139 1.235 . S
C142 O148 1.287 . S
C142 O149 1.255 . S
O143 Fe132 1.976 . S
O143 C150 1.287 . S
O144 Fe133 1.996 . S
O144 C150 1.255 . S
O145 Fe135 1.976 . S
O145 C140 1.287 . S
O146 Fe132 1.996 . S
O146 C140 1.255 . S
C147 O151 1.295 . S
C147 O152 1.235 . S
O148 Fe133 1.976 . S
O148 C142 1.287 . S
O149 Fe135 1.996 . S
O149 C142 1.255 . S
C150 O143 1.287 . S
C150 O144 1.255 . S
O151 Fe133 2.002 . S
O151 C147 1.295 . S
O152 Fe135 1.997 . S
O152 C147 1.235 . S
C153 O136 1.295 . S
C153 O137 1.235 . S
Fe154 O156 1.918 . S
Fe154 O159 1.997 . S
Fe154 O160 2.002 . S
Fe154 O165 1.976 . S
Fe154 O168 1.996 . S
Fe155 O156 1.918 . S
Fe155 O163 1.997 . S
Fe155 O166 1.996 . S
Fe155 O170 1.976 . S
Fe155 O173 2.002 . S
O156 Fe154 1.918 . S
O156 Fe155 1.918 . S
O156 Fe157 1.918 . S
Fe157 O156 1.918 . S
Fe157 O158 2.002 . S
Fe157 O167 1.976 . S
Fe157 O171 1.996 . S
Fe157 O174 1.997 . S
O158 Fe157 2.002 . S
O158 C175 1.295 . S
O159 Fe154 1.997 . S
O159 C175 1.235 . S
O160 Fe154 2.002 . S
O160 C161 1.295 . S
C161 O160 1.295 . S
C161 O163 1.235 . S
C162 O167 1.287 . S
C162 O168 1.255 . S
O163 Fe155 1.997 . S
O163 C161 1.235 . S
C164 O170 1.287 . S
C164 O171 1.255 . S
O165 Fe154 1.976 . S
O165 C172 1.287 . S
O166 Fe155 1.996 . S
O166 C172 1.255 . S
O167 Fe157 1.976 . S
O167 C162 1.287 . S
O168 Fe154 1.996 . S
O168 C162 1.255 . S
C169 O173 1.295 . S
C169 O174 1.235 . S
O170 Fe155 1.976 . S
O170 C164 1.287 . S
O171 Fe157 1.996 . S
O171 C164 1.255 . S
C172 O165 1.287 . S
C172 O166 1.255 . S
O173 Fe155 2.002 . S
O173 C169 1.295 . S
O174 Fe157 1.997 . S
O174 C169 1.235 . S
C175 O158 1.295 . S
C175 O159 1.235 . S
Fe176 O178 1.918 . S
Fe176 O181 1.997 . S
Fe176 O182 2.002 . S
Fe176 O187 1.976 . S
Fe176 O190 1.996 . S
Fe177 O178 1.918 . S
Fe177 O185 1.997 . S
Fe177 O188 1.996 . S
Fe177 O192 1.976 . S
Fe177 O195 2.002 . S
O178 Fe176 1.918 . S
O178 Fe177 1.918 . S
O178 Fe179 1.918 . S
Fe179 O178 1.918 . S
Fe179 O180 2.002 . S
Fe179 O189 1.976 . S
Fe179 O193 1.996 . S
Fe179 O196 1.997 . S
O180 Fe179 2.002 . S
O180 C197 1.295 . S
O181 Fe176 1.997 . S
O181 C197 1.235 . S
O182 Fe176 2.002 . S
O182 C183 1.295 . S
C183 O182 1.295 . S
C183 O185 1.235 . S
C184 O189 1.287 . S
C184 O190 1.255 . S
O185 Fe177 1.997 . S
O185 C183 1.235 . S
C186 O192 1.287 . S
C186 O193 1.255 . S
O187 Fe176 1.976 . S
O187 C194 1.287 . S
O188 Fe177 1.996 . S
O188 C194 1.255 . S
O189 Fe179 1.976 . S
O189 C184 1.287 . S
O190 Fe176 1.996 . S
O190 C184 1.255 . S
C191 O195 1.295 . S
C191 O196 1.235 . S
O192 Fe177 1.976 . S
O192 C186 1.287 . S
O193 Fe179 1.996 . S
O193 C186 1.255 . S
C194 O187 1.287 . S
C194 O188 1.255 . S
O195 Fe177 2.002 . S
O195 C191 1.295 . S
O196 Fe179 1.997 . S
O196 C191 1.235 . S
C197 O180 1.295 . S
C197 O181 1.235 . S
Fe198 O200 1.918 . S
Fe198 O203 1.997 . S
Fe198 O204 2.002 . S
Fe198 O209 1.976 . S
Fe198 O212 1.996 . S
Fe199 O200 1.918 . S
Fe199 O207 1.997 . S
Fe199 O210 1.996 . S
Fe199 O214 1.976 . S
Fe199 O217 2.002 . S
O200 Fe198 1.918 . S
O200 Fe199 1.918 . S
O200 Fe201 1.918 . S
Fe201 O200 1.918 . S
Fe201 O202 2.002 . S
Fe201 O211 1.976 . S
Fe201 O215 1.996 . S
Fe201 O218 1.997 . S
O202 Fe201 2.002 . S
O202 C219 1.295 . S
O203 Fe198 1.997 . S
O203 C219 1.235 . S
O204 Fe198 2.002 . S
O204 C205 1.295 . S
C205 O204 1.295 . S
C205 O207 1.235 . S
C206 O211 1.287 . S
C206 O212 1.255 . S
O207 Fe199 1.997 . S
O207 C205 1.235 . S
C208 O214 1.287 . S
C208 O215 1.255 . S
O209 Fe198 1.976 . S
O209 C216 1.287 . S
O210 Fe199 1.996 . S
O210 C216 1.255 . S
O211 Fe201 1.976 . S
O211 C206 1.287 . S
O212 Fe198 1.996 . S
O212 C206 1.255 . S
C213 O217 1.295 . S
C213 O218 1.235 . S
O214 Fe199 1.976 . S
O214 C208 1.287 . S
O215 Fe201 1.996 . S
O215 C208 1.255 . S
C216 O209 1.287 . S
C216 O210 1.255 . S
O217 Fe199 2.002 . S
O217 C213 1.295 . S
O218 Fe201 1.997 . S
O218 C213 1.235 . S
C219 O202 1.295 . S
C219 O203 1.235 . S
Fe220 O222 1.918 . S
Fe220 O225 1.997 . S
Fe220 O226 2.002 . S
Fe220 O231 1.976 . S
Fe220 O234 1.996 . S
Fe221 O222 1.918 . S
Fe221 O229 1.997 . S
Fe221 O232 1.996 . S
Fe221 O236 1.976 . S
Fe221 O239 2.002 . S
O222 Fe220 1.918 . S
O222 Fe221 1.918 . S
O222 Fe223 1.918 . S
Fe223 O222 1.918 . S
Fe223 O224 2.002 . S
Fe223 O233 1.976 . S
Fe223 O237 1.996 . S
Fe223 O240 1.997 . S
O224 Fe223 2.002 . S
O224 C241 1.295 . S
O225 Fe220 1.997 . S
O225 C241 1.235 . S
O226 Fe220 2.002 . S
O226 C227 1.295 . S
C227 O226 1.295 . S
C227 O229 1.235 . S
C228 O233 1.287 . S
C228 O234 1.255 . S
O229 Fe221 1.997 . S
O229 C227 1.235 . S
C230 O236 1.287 . S
C230 O237 1.255 . S
O231 Fe220 1.976 . S
O231 C238 1.287 . S
O232 Fe221 1.996 . S
O232 C238 1.255 . S
O233 Fe223 1.976 . S
O233 C228 1.287 . S
O234 Fe220 1.996 . S
O234 C228 1.255 . S
C235 O239 1.295 . S
C235 O240 1.235 . S
O236 Fe221 1.976 . S
O236 C230 1.287 . S
O237 Fe223 1.996 . S
O237 C230 1.255 . S
C238 O231 1.287 . S
C238 O232 1.255 . S
O239 Fe221 2.002 . S
O239 C235 1.295 . S
O240 Fe223 1.997 . S
O240 C235 1.235 . S
C241 O224 1.295 . S
C241 O225 1.235 . S
Fe242 O244 1.918 . S
Fe242 O247 1.997 . S
Fe242 O248 2.002 . S
Fe242 O253 1.976 . S
Fe242 O256 1.996 . S
Fe243 O244 1.918 . S
Fe243 O251 1.997 . S
Fe243 O254 1.996 . S
Fe243 O258 1.976 . S
Fe243 O261 2.002 . S
O244 Fe242 1.918 . S
O244 Fe243 1.918 . S
O244 Fe245 1.918 . S
Fe245 O244 1.918 . S
Fe245 O246 2.002 . S
Fe245 O255 1.976 . S
Fe245 O259 1.996 . S
Fe245 O262 1.997 . S
O246 Fe245 2.002 . S
O246 C263 1.295 . S
O247 Fe242 1.997 . S
O247 C263 1.235 . S
O248 Fe242 2.002 . S
O248 C249 1.295 . S
C249 O248 1.295 . S
C249 O251 1.235 . S
C250 O255 1.287 . S
C250 O256 1.255 . S
O251 Fe243 1.997 . S
O251 C249 1.235 . S
C252 O258 1.287 . S
C252 O259 1.255 . S
O253 Fe242 1.976 . S
O253 C260 1.287 . S
O254 Fe243 1.996 . S
O254 C260 1.255 . S
O255 Fe245 1.976 . S
O255 C250 1.287 . S
O256 Fe242 1.996 . S
O256 C250 1.255 . S
C257 O261 1.295 . S
C257 O262 1.235 . S
O258 Fe243 1.976 . S
O258 C252 1.287 . S
O259 Fe245 1.996 . S
O259 C252 1.255 . S
C260 O253 1.287 . S
C260 O254 1.255 . S
O261 Fe243 2.002 . S
O261 C257 1.295 . S
O262 Fe245 1.997 . S
O262 C257 1.235 . S
C263 O246 1.295 . S
C263 O247 1.235 . S
Fe264 O266 1.918 . S
Fe264 O269 1.997 . S
Fe264 O270 2.002 . S
Fe264 O275 1.976 . S
Fe264 O278 1.996 . S
Fe265 O266 1.918 . S
Fe265 O273 1.997 . S
Fe265 O276 1.996 . S
Fe265 O280 1.976 . S
Fe265 O283 2.002 . S
O266 Fe264 1.918 . S
O266 Fe265 1.918 . S
O266 Fe267 1.918 . S
Fe267 O266 1.918 . S
Fe267 O268 2.002 . S
Fe267 O277 1.976 . S
Fe267 O281 1.996 . S
Fe267 O284 1.997 . S
O268 Fe267 2.002 . S
O268 C285 1.295 . S
O269 Fe264 1.997 . S
O269 C285 1.235 . S
O270 Fe264 2.002 . S
O270 C271 1.295 . S
C271 O270 1.295 . S
C271 O273 1.235 . S
C272 O277 1.287 . S
C272 O278 1.255 . S
O273 Fe265 1.997 . S
O273 C271 1.235 . S
C274 O280 1.287 . S
C274 O281 1.255 . S
O275 Fe264 1.976 . S
O275 C282 1.287 . S
O276 Fe265 1.996 . S
O276 C282 1.255 . S
O277 Fe267 1.976 . S
O277 C272 1.287 . S
O278 Fe264 1.996 . S
O278 C272 1.255 . S
C279 O283 1.295 . S
C279 O284 1.235 . S
O280 Fe265 1.976 . S
O280 C274 1.287 . S
O281 Fe267 1.996 . S
O281 C274 1.255 . S
C282 O275 1.287 . S
C282 O276 1.255 . S
O283 Fe265 2.002 . S
O283 C279 1.295 . S
O284 Fe267 1.997 . S
O284 C279 1.235 . S
C285 O268 1.295 . S
C285 O269 1.235 . S
Fe286 O288 1.918 . S
Fe286 O291 1.997 . S
Fe286 O292 2.002 . S
Fe286 O297 1.976 . S
Fe286 O300 1.996 . S
Fe287 O288 1.918 . S
Fe287 O295 1.997 . S
Fe287 O298 1.996 . S
Fe287 O302 1.976 . S
Fe287 O305 2.002 . S
O288 Fe286 1.918 . S
O288 Fe287 1.918 . S
O288 Fe289 1.918 . S
Fe289 O288 1.918 . S
Fe289 O290 2.002 . S
Fe289 O299 1.976 . S
Fe289 O303 1.996 . S
Fe289 O306 1.997 . S
O290 Fe289 2.002 . S
O290 C307 1.295 . S
O291 Fe286 1.997 . S
O291 C307 1.235 . S
O292 Fe286 2.002 . S
O292 C293 1.295 . S
C293 O292 1.295 . S
C293 O295 1.235 . S
C294 O299 1.287 . S
C294 O300 1.255 . S
O295 Fe287 1.997 . S
O295 C293 1.235 . S
C296 O302 1.287 . S
C296 O303 1.255 . S
O297 Fe286 1.976 . S
O297 C304 1.287 . S
O298 Fe287 1.996 . S
O298 C304 1.255 . S
O299 Fe289 1.976 . S
O299 C294 1.287 . S
O300 Fe286 1.996 . S
O300 C294 1.255 . S
C301 O305 1.295 . S
C301 O306 1.235 . S
O302 Fe287 1.976 . S
O302 C296 1.287 . S
O303 Fe289 1.996 . S
O303 C296 1.255 . S
C304 O297 1.287 . S
C304 O298 1.255 . S
O305 Fe287 2.002 . S
O305 C301 1.295 . S
O306 Fe289 1.997 . S
O306 C301 1.235 . S
C307 O290 1.295 . S
C307 O291 1.235 . S
Fe308 O310 1.918 . S
Fe308 O313 1.997 . S
Fe308 O314 2.002 . S
Fe308 O319 1.976 . S
Fe308 O322 1.996 . S
Fe309 O310 1.918 . S
Fe309 O317 1.997 . S
Fe309 O320 1.996 . S
Fe309 O324 1.976 . S
Fe309 O327 2.002 . S
O310 Fe308 1.918 . S
O310 Fe309 1.918 . S
O310 Fe311 1.918 . S
Fe311 O310 1.918 . S
Fe311 O312 2.002 . S
Fe311 O321 1.976 . S
Fe311 O325 1.996 . S
Fe311 O328 1.997 . S
O312 Fe311 2.002 . S
O312 C329 1.295 . S
O313 Fe308 1.997 . S
O313 C329 1.235 . S
O314 Fe308 2.002 . S
O314 C315 1.295 . S
C315 O314 1.295 . S
C315 O317 1.235 . S
C316 O321 1.287 . S
C316 O322 1.255 . S
O317 Fe309 1.997 . S
O317 C315 1.235 . S
C318 O324 1.287 . S
C318 O325 1.255 . S
O319 Fe308 1.976 . S
O319 C326 1.287 . S
O320 Fe309 1.996 . S
O320 C326 1.255 . S
O321 Fe311 1.976 . S
O321 C316 1.287 . S
O322 Fe308 1.996 . S
O322 C316 1.255 . S
C323 O327 1.295 . S
C323 O328 1.235 . S
O324 Fe309 1.976 . S
O324 C318 1.287 . S
O325 Fe311 1.996 . S
O325 C318 1.255 . S
C326 O319 1.287 . S
C326 O320 1.255 . S
O327 Fe309 2.002 . S
O327 C323 1.295 . S
O328 Fe311 1.997 . S
O328 C323 1.235 . S
C329 O312 1.295 . S
C329 O313 1.235 . S
Fe330 O332 1.918 . S
Fe330 O335 1.997 . S
Fe330 O336 2.002 . S
Fe330 O341 1.976 . S
Fe330 O344 1.996 . S
Fe331 O332 1.918 . S
Fe331 O339 1.997 . S
Fe331 O342 1.996 . S
Fe331 O346 1.976 . S
Fe331 O349 2.002 . S
O332 Fe330 1.918 . S
O332 Fe331 1.918 . S
O332 Fe333 1.918 . S
Fe333 O332 1.918 . S
Fe333 O334 2.002 . S
Fe333 O343 1.976 . S
Fe333 O347 1.996 . S
Fe333 O350 1.997 . S
O334 Fe333 2.002 . S
O334 C351 1.295 . S
O335 Fe330 1.997 . S
O335 C351 1.235 . S
O336 Fe330 2.002 . S
O336 C337 1.295 . S
C337 O336 1.295 . S
C337 O339 1.235 . S
C338 O343 1.287 . S
C338 O344 1.255 . S
O339 Fe331 1.997 . S
O339 C337 1.235 . S
C340 O346 1.287 . S
C340 O347 1.255 . S
O341 Fe330 1.976 . S
O341 C348 1.287 . S
O342 Fe331 1.996 . S
O342 C348 1.255 . S
O343 Fe333 1.976 . S
O343 C338 1.287 . S
O344 Fe330 1.996 . S
O344 C338 1.255 . S
C345 O349 1.295 . S
C345 O350 1.235 . S
O346 Fe331 1.976 . S
O346 C340 1.287 . S
O347 Fe333 1.996 . S
O347 C340 1.255 . S
C348 O341 1.287 . S
C348 O342 1.255 . S
O349 Fe331 2.002 . S
O349 C345 1.295 . S
O350 Fe333 1.997 . S
O350 C345 1.235 . S
C351 O334 1.295 . S
C351 O335 1.235 . S
Fe352 O354 1.918 . S
Fe352 O357 1.997 . S
Fe352 O358 2.002 . S
Fe352 O363 1.976 . S
Fe352 O366 1.996 . S
Fe353 O354 1.918 . S
Fe353 O361 1.997 . S
Fe353 O364 1.996 . S
Fe353 O368 1.976 . S
Fe353 O371 2.002 . S
O354 Fe352 1.918 . S
O354 Fe353 1.918 . S
O354 Fe355 1.918 . S
Fe355 O354 1.918 . S
Fe355 O356 2.002 . S
Fe355 O365 1.976 . S
Fe355 O369 1.996 . S
Fe355 O372 1.997 . S
O356 Fe355 2.002 . S
O356 C373 1.295 . S
O357 Fe352 1.997 . S
O357 C373 1.235 . S
O358 Fe352 2.002 . S
O358 C359 1.295 . S
C359 O358 1.295 . S
C359 O361 1.235 . S
C360 O365 1.287 . S
C360 O366 1.255 . S
O361 Fe353 1.997 . S
O361 C359 1.235 . S
C362 O368 1.287 . S
C362 O369 1.255 . S
O363 Fe352 1.976 . S
O363 C370 1.287 . S
O364 Fe353 1.996 . S
O364 C370 1.255 . S
O365 Fe355 1.976 . S
O365 C360 1.287 . S
O366 Fe352 1.996 . S
O366 C360 1.255 . S
C367 O371 1.295 . S
C367 O372 1.235 . S
O368 Fe353 1.976 . S
O368 C362 1.287 . S
O369 Fe355 1.996 . S
O369 C362 1.255 . S
C370 O363 1.287 . S
C370 O364 1.255 . S
O371 Fe353 2.002 . S
O371 C367 1.295 . S
O372 Fe355 1.997 . S
O372 C367 1.235 . S
C373 O356 1.295 . S
C373 O357 1.235 . S
Fe374 O376 1.918 . S
Fe374 O379 1.997 . S
Fe374 O380 2.002 . S
Fe374 O385 1.976 . S
Fe374 O388 1.996 . S
Fe375 O376 1.918 . S
Fe375 O383 1.997 . S
Fe375 O386 1.996 . S
Fe375 O390 1.976 . S
Fe375 O393 2.002 . S
O376 Fe374 1.918 . S
O376 Fe375 1.918 . S
O376 Fe377 1.918 . S
Fe377 O376 1.918 . S
Fe377 O378 2.002 . S
Fe377 O387 1.976 . S
Fe377 O391 1.996 . S
Fe377 O394 1.997 . S
O378 Fe377 2.002 . S
O378 C395 1.295 . S
O379 Fe374 1.997 . S
O379 C395 1.235 . S
O380 Fe374 2.002 . S
O380 C381 1.295 . S
C381 O380 1.295 . S
C381 O383 1.235 . S
C382 O387 1.287 . S
C382 O388 1.255 . S
O383 Fe375 1.997 . S
O383 C381 1.235 . S
C384 O390 1.287 . S
C384 O391 1.255 . S
O385 Fe374 1.976 . S
O385 C392 1.287 . S
O386 Fe375 1.996 . S
O386 C392 1.255 . S
O387 Fe377 1.976 . S
O387 C382 1.287 . S
O388 Fe374 1.996 . S
O388 C382 1.255 . S
C389 O393 1.295 . S
C389 O394 1.235 . S
O390 Fe375 1.976 . S
O390 C384 1.287 . S
O391 Fe377 1.996 . S
O391 C384 1.255 . S
C392 O385 1.287 . S
C392 O386 1.255 . S
O393 Fe375 2.002 . S
O393 C389 1.295 . S
O394 Fe377 1.997 . S
O394 C389 1.235 . S
C395 O378 1.295 . S
C395 O379 1.235 . S
C396 C397 1.349 . S
C396 C398 1.327 . S
C396 H421 0.950 . S
C397 C396 1.349 . S
C397 C413 1.349 . S
C398 C396 1.327 . S
C398 C417 1.429 . S
C398 H422 0.950 . S
C399 C416 1.574 . S
C399 C418 1.368 . S
C399 H423 0.949 . S
H400 C404 0.949 . S
C401 C402 1.349 . S
C401 C403 1.327 . S
C401 H424 0.950 . S
C402 C401 1.349 . S
C402 C414 1.349 . S
C403 C401 1.327 . S
C403 C419 1.429 . S
C403 H425 0.950 . S
C404 H400 0.949 . S
C404 C412 1.574 . S
C404 C420 1.368 . S
H405 C413 0.950 . S
H406 C411 0.950 . S
H407 C412 0.949 . S
H408 C414 0.950 . S
H409 C415 0.950 . S
H410 C416 0.949 . S
C411 H406 0.950 . S
C411 C413 1.327 . S
C411 C417 1.429 . S
C412 C404 1.574 . S
C412 H407 0.949 . S
C412 C418 1.368 . S
C413 C397 1.349 . S
C413 H405 0.950 . S
C413 C411 1.327 . S
C414 C402 1.349 . S
C414 H408 0.950 . S
C414 C415 1.327 . S
C415 H409 0.950 . S
C415 C414 1.327 . S
C415 C419 1.429 . S
C416 C399 1.574 . S
C416 H410 0.949 . S
C416 C420 1.368 . S
C417 C398 1.429 . S
C417 C411 1.429 . S
C417 C418 1.523 . S
C418 C399 1.368 . S
C418 C412 1.368 . S
C418 C417 1.523 . S
C419 C403 1.429 . S
C419 C415 1.429 . S
C419 C420 1.523 . S
C420 C404 1.368 . S
C420 C416 1.368 . S
C420 C419 1.523 . S
H421 C396 0.950 . S
H422 C398 0.950 . S
H423 C399 0.949 . S
H424 C401 0.950 . S
H425 C403 0.950 . S
C426 C427 1.349 . S
C426 C428 1.327 . S
C426 H451 0.950 . S
C427 C426 1.349 . S
C427 C443 1.349 . S
C428 C426 1.327 . S
C428 C447 1.429 . S
C428 H452 0.950 . S
C429 C446 1.574 . S
C429 C448 1.368 . S
C429 H453 0.949 . S
H430 C434 0.949 . S
C431 C432 1.349 . S
C431 C433 1.327 . S
C431 H454 0.950 . S
C432 C431 1.349 . S
C432 C444 1.349 . S
C433 C431 1.327 . S
C433 C449 1.429 . S
C433 H455 0.950 . S
C434 H430 0.949 . S
C434 C442 1.574 . S
C434 C450 1.368 . S
H435 C443 0.950 . S
H436 C441 0.950 . S
H437 C442 0.949 . S
H438 C444 0.950 . S
H439 C445 0.950 . S
H440 C446 0.949 . S
C441 H436 0.950 . S
C441 C443 1.327 . S
C441 C447 1.429 . S
C442 C434 1.574 . S
C442 H437 0.949 . S
C442 C448 1.368 . S
C443 C427 1.349 . S
C443 H435 0.950 . S
C443 C441 1.327 . S
C444 C432 1.349 . S
C444 H438 0.950 . S
C444 C445 1.327 . S
C445 H439 0.950 . S
C445 C444 1.327 . S
C445 C449 1.429 . S
C446 C429 1.574 . S
C446 H440 0.949 . S
C446 C450 1.368 . S
C447 C428 1.429 . S
C447 C441 1.429 . S
C447 C448 1.523 . S
C448 C429 1.368 . S
C448 C442 1.368 . S
C448 C447 1.523 . S
C449 C433 1.429 . S
C449 C445 1.429 . S
C449 C450 1.523 . S
C450 C434 1.368 . S
C450 C446 1.368 . S
C450 C449 1.523 . S
H451 C426 0.950 . S
H452 C428 0.950 . S
H453 C429 0.949 . S
H454 C431 0.950 . S
H455 C433 0.950 . S
C456 C457 1.349 1_545 S
C456 C458 1.321 . S
C456 H481 0.950 . S
C457 C456 1.349 1_565 S
C457 C473 1.349 . S
C458 C456 1.321 . S
C458 C477 1.409 1_545 S
C458 H482 0.977 . S
C459 C476 1.574 . S
C459 C478 1.368 . S
C459 H483 0.949 . S
H460 C464 0.949 . S
C461 C462 1.349 . S
C461 C463 1.327 . S
C461 H484 0.950 . S
C462 C461 1.349 . S
C462 C474 1.349 . S
C463 C461 1.327 . S
C463 C479 1.429 . S
C463 H485 0.950 . S
C464 H460 0.949 . S
C464 C472 1.574 . S
C464 C480 1.368 . S
H465 C473 0.950 . S
H466 C471 0.950 . S
H467 C472 0.949 1_545 S
H468 C474 0.950 . S
H469 C475 0.950 . S
H470 C476 0.949 . S
C471 H466 0.950 . S
C471 C473 1.327 . S
C471 C477 1.429 . S
C472 C464 1.574 . S
C472 H467 0.949 1_565 S
C472 C478 1.368 . S
C473 C457 1.349 . S
C473 H465 0.950 . S
C473 C471 1.327 . S
C474 C462 1.349 . S
C474 H468 0.950 . S
C474 C475 1.327 . S
C475 H469 0.950 . S
C475 C474 1.327 . S
C475 C479 1.429 . S
C476 C459 1.574 . S
C476 H470 0.949 . S
C476 C480 1.368 . S
C477 C458 1.409 1_565 S
C477 C471 1.429 . S
C477 C478 1.523 . S
C478 C459 1.368 . S
C478 C472 1.368 . S
C478 C477 1.523 . S
C479 C463 1.429 . S
C479 C475 1.429 . S
C479 C480 1.523 . S
C480 C464 1.368 . S
C480 C476 1.368 . S
C480 C479 1.523 . S
H481 C456 0.950 . S
H482 C458 0.977 . S
H483 C459 0.949 . S
H484 C461 0.950 . S
H485 C463 0.950 . S
C486 C487 1.349 . S
C486 C488 1.327 . S
C486 H511 0.950 . S
C487 C486 1.349 . S
C487 C503 1.349 . S
C488 C486 1.327 . S
C488 C507 1.429 . S
C488 H512 0.950 . S
C489 C506 1.574 . S
C489 C508 1.368 . S
C489 H513 0.949 . S
H490 C494 0.949 . S
C491 C492 1.349 . S
C491 C493 1.327 . S
C491 H514 0.950 . S
C492 C491 1.349 . S
C492 C504 1.349 . S
C493 C491 1.327 . S
C493 C509 1.429 . S
C493 H515 0.950 . S
C494 H490 0.949 . S
C494 C502 1.574 . S
C494 C510 1.368 . S
H495 C503 0.950 . S
H496 C501 0.950 . S
H497 C502 0.949 . S
H498 C504 0.950 . S
H499 C505 0.950 . S
H500 C506 0.949 . S
C501 H496 0.950 . S
C501 C503 1.327 . S
C501 C507 1.429 . S
C502 C494 1.574 . S
C502 H497 0.949 . S
C502 C508 1.368 . S
C503 C487 1.349 . S
C503 H495 0.950 . S
C503 C501 1.327 . S
C504 C492 1.349 . S
C504 H498 0.950 . S
C504 C505 1.327 . S
C505 H499 0.950 . S
C505 C504 1.327 . S
C505 C509 1.429 . S
C506 C489 1.574 . S
C506 H500 0.949 . S
C506 C510 1.368 . S
C507 C488 1.429 . S
C507 C501 1.429 . S
C507 C508 1.523 . S
C508 C489 1.368 . S
C508 C502 1.368 . S
C508 C507 1.523 . S
C509 C493 1.429 . S
C509 C505 1.429 . S
C509 C510 1.523 . S
C510 C494 1.368 . S
C510 C506 1.368 . S
C510 C509 1.523 . S
H511 C486 0.950 . S
H512 C488 0.950 . S
H513 C489 0.949 . S
H514 C491 0.950 . S
H515 C493 0.950 . S
C516 C517 1.349 . S
C516 C518 1.327 . S
C516 H541 0.950 . S
C517 C516 1.349 . S
C517 C533 1.349 . S
C518 C516 1.327 . S
C518 C537 1.429 . S
C518 H542 0.950 . S
C519 C536 1.574 . S
C519 C538 1.368 . S
C519 H543 0.949 . S
H520 C524 0.949 . S
C521 C522 1.349 . S
C521 C523 1.327 . S
C521 H544 0.950 . S
C522 C521 1.349 . S
C522 C534 1.349 . S
C523 C521 1.327 . S
C523 C539 1.429 . S
C523 H545 0.950 . S
C524 H520 0.949 . S
C524 C532 1.574 . S
C524 C540 1.368 . S
H525 C533 0.950 1_455 S
H526 C531 0.950 . S
H527 C532 0.949 . S
H528 C534 0.950 . S
H529 C535 0.950 . S
H530 C536 0.949 . S
C531 H526 0.950 . S
C531 C533 1.327 . S
C531 C537 1.429 . S
C532 C524 1.574 . S
C532 H527 0.949 . S
C532 C538 1.368 . S
C533 C517 1.349 . S
C533 H525 0.950 1_655 S
C533 C531 1.327 . S
C534 C522 1.349 . S
C534 H528 0.950 . S
C534 C535 1.327 . S
C535 H529 0.950 . S
C535 C534 1.327 . S
C535 C539 1.429 . S
C536 C519 1.574 . S
C536 H530 0.949 . S
C536 C540 1.368 . S
C537 C518 1.429 . S
C537 C531 1.429 . S
C537 C538 1.523 . S
C538 C519 1.368 . S
C538 C532 1.368 . S
C538 C537 1.523 . S
C539 C523 1.429 . S
C539 C535 1.429 . S
C539 C540 1.523 . S
C540 C524 1.368 . S
C540 C536 1.368 . S
C540 C539 1.523 . S
H541 C516 0.950 . S
H542 C518 0.950 . S
H543 C519 0.949 . S
H544 C521 0.950 . S
H545 C523 0.950 . S
C546 C547 1.349 . S
C546 C548 1.327 . S
C546 H571 0.950 . S
C547 C546 1.349 . S
C547 C563 1.349 . S
C548 C546 1.327 . S
C548 C567 1.429 . S
C548 H572 0.950 . S
C549 C566 1.574 . S
C549 C568 1.368 . S
C549 H573 0.949 . S
H550 C554 0.949 . S
C551 C552 1.349 . S
C551 C553 1.327 . S
C551 H574 0.950 . S
C552 C551 1.349 . S
C552 C564 1.349 . S
C553 C551 1.327 . S
C553 C569 1.429 . S
C553 H575 0.950 . S
C554 H550 0.949 . S
C554 C562 1.574 . S
C554 C570 1.368 . S
H555 C563 0.950 . S
H556 C561 0.950 . S
H557 C562 0.949 . S
H558 C564 0.950 . S
H559 C565 0.950 . S
H560 C566 0.949 . S
C561 H556 0.950 . S
C561 C563 1.327 . S
C561 C567 1.429 . S
C562 C554 1.574 . S
C562 H557 0.949 . S
C562 C568 1.368 . S
C563 C547 1.349 . S
C563 H555 0.950 . S
C563 C561 1.327 . S
C564 C552 1.349 . S
C564 H558 0.950 . S
C564 C565 1.327 . S
C565 H559 0.950 . S
C565 C564 1.327 . S
C565 C569 1.429 . S
C566 C549 1.574 . S
C566 H560 0.949 . S
C566 C570 1.368 . S
C567 C548 1.429 . S
C567 C561 1.429 . S
C567 C568 1.523 . S
C568 C549 1.368 . S
C568 C562 1.368 . S
C568 C567 1.523 . S
C569 C553 1.429 . S
C569 C565 1.429 . S
C569 C570 1.523 . S
C570 C554 1.368 . S
C570 C566 1.368 . S
C570 C569 1.523 . S
H571 C546 0.950 . S
H572 C548 0.950 . S
H573 C549 0.949 . S
H574 C551 0.950 . S
H575 C553 0.950 . S
C576 C577 1.349 . S
C576 C578 1.327 . S
C576 H601 0.950 . S
C577 C576 1.349 . S
C577 C593 1.349 . S
C578 C576 1.327 . S
C578 C597 1.429 . S
C578 H602 0.950 . S
C579 C596 1.574 . S
C579 C598 1.368 . S
C579 H603 0.949 . S
H580 C584 0.949 . S
C581 C582 1.349 . S
C581 C583 1.327 . S
C581 H604 0.950 1_655 S
C582 C581 1.349 . S
C582 C594 1.349 . S
C583 C581 1.327 . S
C583 C599 1.429 . S
C583 H605 0.950 . S
C584 H580 0.949 . S
C584 C592 1.574 . S
C584 C600 1.368 . S
H585 C593 0.950 . S
H586 C591 0.950 . S
H587 C592 0.949 . S
H588 C594 0.950 . S
H589 C595 0.950 . S
H590 C596 0.949 . S
C591 H586 0.950 . S
C591 C593 1.327 . S
C591 C597 1.429 . S
C592 C584 1.574 . S
C592 H587 0.949 . S
C592 C598 1.368 . S
C593 C577 1.349 . S
C593 H585 0.950 . S
C593 C591 1.327 . S
C594 C582 1.349 . S
C594 H588 0.950 . S
C594 C595 1.327 . S
C595 H589 0.950 . S
C595 C594 1.327 . S
C595 C599 1.429 . S
C596 C579 1.574 . S
C596 H590 0.949 . S
C596 C600 1.368 . S
C597 C578 1.429 . S
C597 C591 1.429 . S
C597 C598 1.523 . S
C598 C579 1.368 . S
C598 C592 1.368 . S
C598 C597 1.523 . S
C599 C583 1.429 . S
C599 C595 1.429 . S
C599 C600 1.523 . S
C600 C584 1.368 . S
C600 C596 1.368 . S
C600 C599 1.523 . S
H601 C576 0.950 . S
H602 C578 0.950 . S
H603 C579 0.949 . S
H604 C581 0.950 1_455 S
H605 C583 0.950 . S
C606 C607 1.349 . S
C606 C608 1.327 . S
C606 H631 0.950 . S
C607 C606 1.349 . S
C607 C623 1.349 . S
C608 C606 1.327 . S
C608 C627 1.429 . S
C608 H632 0.950 . S
C609 C626 1.574 . S
C609 C628 1.368 . S
C609 H633 0.949 . S
H610 C614 0.949 . S
C611 C612 1.349 . S
C611 C613 1.327 . S
C611 H634 0.950 . S
C612 C611 1.349 . S
C612 C624 1.349 . S
C613 C611 1.327 . S
C613 C629 1.429 . S
C613 H635 0.950 . S
C614 H610 0.949 . S
C614 C622 1.574 . S
C614 C630 1.368 . S
H615 C623 0.950 . S
H616 C621 0.950 . S
H617 C622 0.949 . S
H618 C624 0.950 . S
H619 C625 0.950 . S
H620 C626 0.949 . S
C621 H616 0.950 . S
C621 C623 1.327 . S
C621 C627 1.429 . S
C622 C614 1.574 . S
C622 H617 0.949 . S
C622 C628 1.368 . S
C623 C607 1.349 . S
C623 H615 0.950 . S
C623 C621 1.327 . S
C624 C612 1.349 . S
C624 H618 0.950 . S
C624 C625 1.327 . S
C625 H619 0.950 . S
C625 C624 1.327 . S
C625 C629 1.429 . S
C626 C609 1.574 . S
C626 H620 0.949 . S
C626 C630 1.368 . S
C627 C608 1.429 . S
C627 C621 1.429 . S
C627 C628 1.523 . S
C628 C609 1.368 . S
C628 C622 1.368 . S
C628 C627 1.523 . S
C629 C613 1.429 . S
C629 C625 1.429 . S
C629 C630 1.523 . S
C630 C614 1.368 . S
C630 C626 1.368 . S
C630 C629 1.523 . S
H631 C606 0.950 . S
H632 C608 0.950 . S
H633 C609 0.949 . S
H634 C611 0.950 . S
H635 C613 0.950 . S
C636 C637 1.349 . S
C636 C638 1.327 . S
C636 H661 0.969 . S
C637 C636 1.349 . S
C637 C653 1.349 . S
C638 C636 1.327 . S
C638 C657 1.429 . S
C638 H662 0.950 . S
C639 C656 1.574 . S
C639 C658 1.368 . S
C639 H663 0.949 . S
H640 C644 0.949 . S
C641 C642 1.349 . S
C641 C643 1.327 . S
C641 H664 0.950 . S
C642 C641 1.349 . S
C642 C654 1.349 . S
C643 C641 1.327 . S
C643 C659 1.429 . S
C643 H665 0.950 . S
C644 H640 0.949 . S
C644 C652 1.574 . S
C644 C660 1.368 . S
H645 C653 0.950 . S
H646 C651 0.950 . S
H647 C652 0.949 . S
H648 C654 0.950 . S
H649 C655 0.950 . S
H650 C656 0.949 . S
C651 H646 0.950 . S
C651 C653 1.327 . S
C651 C657 1.429 . S
C652 C644 1.574 . S
C652 H647 0.949 . S
C652 C658 1.368 . S
C653 C637 1.349 . S
C653 H645 0.950 . S
C653 C651 1.327 . S
C654 C642 1.349 . S
C654 H648 0.950 . S
C654 C655 1.327 . S
C655 H649 0.950 . S
C655 C654 1.327 . S
C655 C659 1.429 . S
C656 C639 1.574 . S
C656 H650 0.949 . S
C656 C660 1.368 . S
C657 C638 1.429 . S
C657 C651 1.429 . S
C657 C658 1.523 . S
C658 C639 1.368 . S
C658 C652 1.368 . S
C658 C657 1.523 . S
C659 C643 1.429 . S
C659 C655 1.429 . S
C659 C660 1.523 . S
C660 C644 1.368 . S
C660 C656 1.368 . S
C660 C659 1.523 . S
H661 C636 0.969 . S
H662 C638 0.950 . S
H663 C639 0.949 . S
H664 C641 0.950 . S
H665 C643 0.950 . S
C666 C667 1.349 . S
C666 C668 1.327 . S
C666 H691 0.950 . S
C667 C666 1.349 . S
C667 C683 1.349 . S
C668 C666 1.327 . S
C668 C687 1.429 . S
C668 H692 0.950 . S
C669 C686 1.574 . S
C669 C688 1.368 . S
C669 H693 0.949 . S
H670 C674 0.949 . S
C671 C672 1.349 . S
C671 C673 1.327 . S
C671 H694 0.950 1_565 S
C672 C671 1.349 . S
C672 C684 1.349 . S
C673 C671 1.327 . S
C673 C689 1.429 . S
C673 H695 0.950 . S
C674 H670 0.949 . S
C674 C682 1.574 . S
C674 C690 1.368 . S
H675 C683 0.950 . S
H676 C681 0.950 . S
H677 C682 0.949 . S
H678 C684 0.950 . S
H679 C685 0.950 . S
H680 C686 0.949 . S
C681 H676 0.950 . S
C681 C683 1.327 . S
C681 C687 1.429 . S
C682 C674 1.574 . S
C682 H677 0.949 . S
C682 C688 1.368 . S
C683 C667 1.349 . S
C683 H675 0.950 . S
C683 C681 1.327 . S
C684 C672 1.349 . S
C684 H678 0.950 . S
C684 C685 1.327 . S
C685 H679 0.950 . S
C685 C684 1.327 . S
C685 C689 1.429 . S
C686 C669 1.574 . S
C686 H680 0.949 . S
C686 C690 1.368 . S
C687 C668 1.429 . S
C687 C681 1.429 . S
C687 C688 1.523 . S
C688 C669 1.368 . S
C688 C682 1.368 . S
C688 C687 1.523 . S
C689 C673 1.429 . S
C689 C685 1.429 . S
C689 C690 1.523 . S
C690 C674 1.368 . S
C690 C686 1.368 . S
C690 C689 1.523 . S
H691 C666 0.950 . S
H692 C668 0.950 . S
H693 C669 0.949 . S
H694 C671 0.950 1_545 S
H695 C673 0.950 . S
C696 C697 1.349 . S
C696 C698 1.327 . S
C696 H721 0.950 . S
C697 C696 1.349 . S
C697 C713 1.349 . S
C698 C696 1.327 . S
C698 C717 1.429 . S
C698 H722 0.950 . S
C699 C716 1.574 . S
C699 C718 1.368 . S
C699 H723 0.949 . S
H700 C704 0.949 . S
C701 C702 1.349 . S
C701 C703 1.327 . S
C701 H724 0.950 . S
C702 C701 1.349 . S
C702 C714 1.349 . S
C703 C701 1.327 . S
C703 C719 1.429 . S
C703 H725 0.950 . S
C704 H700 0.949 . S
C704 C712 1.574 . S
C704 C720 1.368 . S
H705 C713 0.950 . S
H706 C711 0.950 . S
H707 C712 0.949 . S
H708 C714 0.950 . S
H709 C715 0.950 . S
H710 C716 0.949 . S
C711 H706 0.950 . S
C711 C713 1.327 . S
C711 C717 1.429 . S
C712 C704 1.574 . S
C712 H707 0.949 . S
C712 C718 1.368 . S
C713 C697 1.349 . S
C713 H705 0.950 . S
C713 C711 1.327 . S
C714 C702 1.349 . S
C714 H708 0.950 . S
C714 C715 1.327 . S
C715 H709 0.950 . S
C715 C714 1.327 . S
C715 C719 1.429 . S
C716 C699 1.574 . S
C716 H710 0.949 . S
C716 C720 1.368 . S
C717 C698 1.429 . S
C717 C711 1.429 . S
C717 C718 1.523 . S
C718 C699 1.368 . S
C718 C712 1.368 . S
C718 C717 1.523 . S
C719 C703 1.429 . S
C719 C715 1.429 . S
C719 C720 1.523 . S
C720 C704 1.368 . S
C720 C716 1.368 . S
C720 C719 1.523 . S
H721 C696 0.950 . S
H722 C698 0.950 . S
H723 C699 0.949 . S
H724 C701 0.950 . S
H725 C703 0.950 . S
C726 C727 1.349 . S
C726 C728 1.327 . S
C726 H751 0.950 . S
C727 C726 1.349 . S
C727 C743 1.349 . S
C728 C726 1.327 . S
C728 C747 1.429 . S
C728 H752 0.950 . S
C729 C746 1.574 . S
C729 C748 1.368 . S
C729 H753 0.949 . S
H730 C734 0.949 . S
C731 C732 1.349 . S
C731 C733 1.327 . S
C731 H754 0.950 . S
C732 C731 1.349 . S
C732 C744 1.349 . S
C733 C731 1.327 . S
C733 C749 1.429 . S
C733 H755 0.950 . S
C734 H730 0.949 . S
C734 C742 1.574 . S
C734 C750 1.368 . S
H735 C743 0.950 . S
H736 C741 0.950 . S
H737 C742 0.949 . S
H738 C744 0.950 . S
H739 C745 0.950 . S
H740 C746 0.949 . S
C741 H736 0.950 . S
C741 C743 1.327 . S
C741 C747 1.429 . S
C742 C734 1.574 . S
C742 H737 0.949 . S
C742 C748 1.368 . S
C743 C727 1.349 . S
C743 H735 0.950 . S
C743 C741 1.327 . S
C744 C732 1.349 . S
C744 H738 0.950 . S
C744 C745 1.327 . S
C745 H739 0.950 . S
C745 C744 1.327 . S
C745 C749 1.429 . S
C746 C729 1.574 . S
C746 H740 0.949 . S
C746 C750 1.368 . S
C747 C728 1.429 . S
C747 C741 1.429 . S
C747 C748 1.523 . S
C748 C729 1.368 . S
C748 C742 1.368 . S
C748 C747 1.523 . S
C749 C733 1.429 . S
C749 C745 1.429 . S
C749 C750 1.523 . S
C750 C734 1.368 . S
C750 C746 1.368 . S
C750 C749 1.523 . S
H751 C726 0.950 . S
H752 C728 0.950 . S
H753 C729 0.949 . S
H754 C731 0.950 . S
H755 C733 0.950 . S
C756 C757 1.349 . S
C756 C758 1.327 . S
C756 H781 0.950 . S
C757 C756 1.349 . S
C757 C773 1.349 . S
C758 C756 1.327 . S
C758 C777 1.429 . S
C758 H782 0.950 . S
C759 C776 1.574 . S
C759 C778 1.368 . S
C759 H783 0.949 . S
H760 C764 0.949 . S
C761 C762 1.349 . S
C761 C763 1.327 . S
C761 H784 0.950 . S
C762 C761 1.349 . S
C762 C774 1.349 . S
C763 C761 1.327 . S
C763 C779 1.429 . S
C763 H785 0.950 . S
C764 H760 0.949 . S
C764 C772 1.574 . S
C764 C780 1.368 . S
H765 C773 0.950 . S
H766 C771 0.950 . S
H767 C772 0.949 . S
H768 C774 0.950 . S
H769 C775 0.950 . S
H770 C776 0.949 . S
C771 H766 0.950 . S
C771 C773 1.327 . S
C771 C777 1.429 . S
C772 C764 1.574 . S
C772 H767 0.949 . S
C772 C778 1.368 . S
C773 C757 1.349 . S
C773 H765 0.950 . S
C773 C771 1.327 . S
C774 C762 1.349 . S
C774 H768 0.950 . S
C774 C775 1.327 . S
C775 H769 0.950 . S
C775 C774 1.327 . S
C775 C779 1.429 . S
C776 C759 1.574 . S
C776 H770 0.949 . S
C776 C780 1.368 . S
C777 C758 1.429 . S
C777 C771 1.429 . S
C777 C778 1.523 . S
C778 C759 1.368 . S
C778 C772 1.368 . S
C778 C777 1.523 . S
C779 C763 1.429 . S
C779 C775 1.429 . S
C779 C780 1.523 . S
C780 C764 1.368 . S
C780 C776 1.368 . S
C780 C779 1.523 . S
H781 C756 0.950 . S
H782 C758 0.950 . S
H783 C759 0.949 . S
H784 C761 0.950 . S
H785 C763 0.950 . S
C786 C787 1.349 . S
C786 C788 1.307 1_545 S
C786 H811 0.950 . S
C787 C786 1.349 . S
C787 C803 1.390 . S
C788 C786 1.307 1_565 S
C788 C807 1.458 . S
C788 H812 0.951 . S
C789 C806 1.574 . S
C789 C808 1.368 . S
C789 H813 0.949 . S
H790 C794 0.949 . S
C791 C792 1.349 . S
C791 C793 1.327 . S
C791 H814 0.950 . S
C792 C791 1.349 . S
C792 C804 1.349 . S
C793 C791 1.327 . S
C793 C809 1.429 . S
C793 H815 0.950 . S
C794 H790 0.949 . S
C794 C802 1.574 . S
C794 C810 1.368 . S
H795 C803 0.940 . S
H796 C801 0.950 . S
H797 C802 0.949 . S
H798 C804 0.950 . S
H799 C805 0.950 . S
H800 C806 0.949 . S
C801 H796 0.950 . S
C801 C803 1.297 1_565 S
C801 C807 1.429 . S
C802 C794 1.574 . S
C802 H797 0.949 . S
C802 C808 1.368 . S
C803 C787 1.390 . S
C803 H795 0.940 . S
C803 C801 1.297 1_545 S
C804 C792 1.349 . S
C804 H798 0.950 . S
C804 C805 1.327 . S
C805 H799 0.950 . S
C805 C804 1.327 . S
C805 C809 1.429 . S
C806 C789 1.574 . S
C806 H800 0.949 . S
C806 C810 1.368 . S
C807 C788 1.458 . S
C807 C801 1.429 . S
C807 C808 1.523 . S
C808 C789 1.368 . S
C808 C802 1.368 . S
C808 C807 1.523 . S
C809 C793 1.429 . S
C809 C805 1.429 . S
C809 C810 1.523 . S
C810 C794 1.368 . S
C810 C806 1.368 . S
C810 C809 1.523 . S
H811 C786 0.950 . S
H812 C788 0.951 . S
H813 C789 0.949 . S
H814 C791 0.950 . S
H815 C793 0.950 . S
C816 C817 1.349 . S
C816 C818 1.327 1_655 S
C816 H841 0.950 . S
C817 C816 1.349 . S
C817 C833 1.349 1_655 S
C818 C816 1.327 1_455 S
C818 C837 1.429 . S
C818 H842 0.950 . S
C819 C836 1.574 . S
C819 C838 1.368 . S
C819 H843 0.949 . S
H820 C824 0.949 . S
C821 C822 1.349 . S
C821 C823 1.327 . S
C821 H844 0.950 . S
C822 C821 1.349 . S
C822 C834 1.349 . S
C823 C821 1.327 . S
C823 C839 1.429 . S
C823 H845 0.950 . S
C824 H820 0.949 . S
C824 C832 1.574 . S
C824 C840 1.368 . S
H825 C833 0.950 . S
H826 C831 0.950 . S
H827 C832 0.949 . S
H828 C834 0.950 . S
H829 C835 0.950 . S
H830 C836 0.949 . S
C831 H826 0.950 . S
C831 C833 1.327 . S
C831 C837 1.429 . S
C832 C824 1.574 . S
C832 H827 0.949 . S
C832 C838 1.368 . S
C833 C817 1.349 1_455 S
C833 H825 0.950 . S
C833 C831 1.327 . S
C834 C822 1.349 . S
C834 H828 0.950 . S
C834 C835 1.327 . S
C835 H829 0.950 . S
C835 C834 1.327 . S
C835 C839 1.429 . S
C836 C819 1.574 . S
C836 H830 0.949 . S
C836 C840 1.368 . S
C837 C818 1.429 . S
C837 C831 1.429 . S
C837 C838 1.523 . S
C838 C819 1.368 . S
C838 C832 1.368 . S
C838 C837 1.523 . S
C839 C823 1.429 . S
C839 C835 1.429 . S
C839 C840 1.523 . S
C840 C824 1.368 . S
C840 C836 1.368 . S
C840 C839 1.523 . S
H841 C816 0.950 . S
H842 C818 0.950 . S
H843 C819 0.949 . S
H844 C821 0.950 . S
H845 C823 0.950 . S
C846 C847 1.349 . S
C846 C848 1.327 . S
C846 H871 0.950 . S
C847 C846 1.349 . S
C847 C863 1.349 . S
C848 C846 1.327 . S
C848 C867 1.429 . S
C848 H872 0.950 . S
C849 C866 1.574 . S
C849 C868 1.368 . S
C849 H873 0.949 . S
H850 C854 0.949 . S
C851 C852 1.349 . S
C851 C853 1.327 . S
C851 H874 0.950 . S
C852 C851 1.349 . S
C852 C864 1.349 . S
C853 C851 1.327 . S
C853 C869 1.429 . S
C853 H875 0.950 . S
C854 H850 0.949 . S
C854 C862 1.574 . S
C854 C870 1.368 . S
H855 C863 0.950 . S
H856 C861 0.950 . S
H857 C862 0.949 . S
H858 C864 0.950 . S
H859 C865 0.950 . S
H860 C866 0.949 . S
C861 H856 0.950 . S
C861 C863 1.327 . S
C861 C867 1.429 . S
C862 C854 1.574 . S
C862 H857 0.949 . S
C862 C868 1.368 . S
C863 C847 1.349 . S
C863 H855 0.950 . S
C863 C861 1.327 . S
C864 C852 1.349 . S
C864 H858 0.950 . S
C864 C865 1.327 . S
C865 H859 0.950 . S
C865 C864 1.327 . S
C865 C869 1.429 . S
C866 C849 1.574 . S
C866 H860 0.949 . S
C866 C870 1.368 . S
C867 C848 1.429 . S
C867 C861 1.429 . S
C867 C868 1.523 . S
C868 C849 1.368 . S
C868 C862 1.368 . S
C868 C867 1.523 . S
C869 C853 1.429 . S
C869 C865 1.429 . S
C869 C870 1.523 . S
C870 C854 1.368 . S
C870 C866 1.368 . S
C870 C869 1.523 . S
H871 C846 0.950 . S
H872 C848 0.950 . S
H873 C849 0.949 . S
H874 C851 0.950 . S
H875 C853 0.950 . S
C876 C877 1.349 . S
C876 C878 1.327 . S
C876 H901 0.950 . S
C877 C876 1.349 . S
C877 C893 1.349 . S
C878 C876 1.327 . S
C878 C897 1.429 . S
C878 H902 0.950 . S
C879 C896 1.574 . S
C879 C898 1.368 . S
C879 H903 0.949 . S
H880 C884 0.949 . S
C881 C882 1.349 . S
C881 C883 1.327 . S
C881 H904 0.950 . S
C882 C881 1.349 . S
C882 C894 1.349 . S
C883 C881 1.327 . S
C883 C899 1.429 . S
C883 H905 0.950 . S
C884 H880 0.949 . S
C884 C892 1.574 . S
C884 C900 1.368 . S
H885 C893 0.950 . S
H886 C891 0.950 . S
H887 C892 0.949 . S
H888 C894 0.950 . S
H889 C895 0.950 . S
H890 C896 0.949 . S
C891 H886 0.950 . S
C891 C893 1.327 . S
C891 C897 1.429 . S
C892 C884 1.574 . S
C892 H887 0.949 . S
C892 C898 1.368 . S
C893 C877 1.349 . S
C893 H885 0.950 . S
C893 C891 1.327 . S
C894 C882 1.349 . S
C894 H888 0.950 . S
C894 C895 1.327 . S
C895 H889 0.950 . S
C895 C894 1.327 . S
C895 C899 1.429 . S
C896 C879 1.574 . S
C896 H890 0.949 . S
C896 C900 1.368 . S
C897 C878 1.429 . S
C897 C891 1.429 . S
C897 C898 1.523 . S
C898 C879 1.368 . S
C898 C892 1.368 . S
C898 C897 1.523 . S
C899 C883 1.429 . S
C899 C895 1.429 . S
C899 C900 1.523 . S
C900 C884 1.368 . S
C900 C896 1.368 . S
C900 C899 1.523 . S
H901 C876 0.950 . S
H902 C878 0.950 . S
H903 C879 0.949 . S
H904 C881 0.950 . S
H905 C883 0.950 . S
C906 C907 1.349 . S
C906 C908 1.327 . S
C906 H931 0.950 . S
C907 C906 1.349 . S
C907 C923 1.349 . S
C908 C906 1.327 . S
C908 C927 1.429 . S
C908 H932 0.950 . S
C909 C926 1.574 . S
C909 C928 1.368 . S
C909 H933 0.949 . S
H910 C914 0.949 . S
C911 C912 1.349 . S
C911 C913 1.327 . S
C911 H934 0.950 . S
C912 C911 1.349 . S
C912 C924 1.349 . S
C913 C911 1.327 . S
C913 C929 1.429 . S
C913 H935 0.950 . S
C914 H910 0.949 . S
C914 C922 1.574 . S
C914 C930 1.368 . S
H915 C923 0.950 . S
H916 C921 0.950 . S
H917 C922 0.949 . S
H918 C924 0.950 . S
H919 C925 0.950 . S
H920 C926 0.949 . S
C921 H916 0.950 . S
C921 C923 1.327 . S
C921 C927 1.429 . S
C922 C914 1.574 . S
C922 H917 0.949 . S
C922 C928 1.368 . S
C923 C907 1.349 . S
C923 H915 0.950 . S
C923 C921 1.327 . S
C924 C912 1.349 . S
C924 H918 0.950 . S
C924 C925 1.327 . S
C925 H919 0.950 . S
C925 C924 1.327 . S
C925 C929 1.429 . S
C926 C909 1.574 . S
C926 H920 0.949 . S
C926 C930 1.368 . S
C927 C908 1.429 . S
C927 C921 1.429 . S
C927 C928 1.523 . S
C928 C909 1.368 . S
C928 C922 1.368 . S
C928 C927 1.523 . S
C929 C913 1.429 . S
C929 C925 1.429 . S
C929 C930 1.523 . S
C930 C914 1.368 . S
C930 C926 1.368 . S
C930 C929 1.523 . S
H931 C906 0.950 . S
H932 C908 0.950 . S
H933 C909 0.949 . S
H934 C911 0.950 . S
H935 C913 0.950 . S
C936 C937 1.349 . S
C936 C938 1.327 . S
C936 H961 0.950 . S
C937 C936 1.349 . S
C937 C953 1.349 . S
C938 C936 1.327 . S
C938 C957 1.429 . S
C938 H962 0.950 . S
C939 C956 1.574 . S
C939 C958 1.368 . S
C939 H963 0.949 . S
H940 C944 0.949 . S
C941 C942 1.349 . S
C941 C943 1.327 . S
C941 H964 0.950 . S
C942 C941 1.349 . S
C942 C954 1.349 . S
C943 C941 1.327 . S
C943 C959 1.429 . S
C943 H965 0.950 . S
C944 H940 0.949 . S
C944 C952 1.574 . S
C944 C960 1.368 . S
H945 C953 0.950 . S
H946 C951 0.950 . S
H947 C952 0.949 . S
H948 C954 0.950 . S
H949 C955 0.950 . S
H950 C956 0.949 . S
C951 H946 0.950 . S
C951 C953 1.327 . S
C951 C957 1.429 . S
C952 C944 1.574 . S
C952 H947 0.949 . S
C952 C958 1.368 . S
C953 C937 1.349 . S
C953 H945 0.950 . S
C953 C951 1.327 . S
C954 C942 1.349 . S
C954 H948 0.950 . S
C954 C955 1.327 . S
C955 H949 0.950 . S
C955 C954 1.327 . S
C955 C959 1.429 . S
C956 C939 1.574 . S
C956 H950 0.949 . S
C956 C960 1.368 . S
C957 C938 1.429 . S
C957 C951 1.429 . S
C957 C958 1.523 . S
C958 C939 1.368 . S
C958 C952 1.368 . S
C958 C957 1.523 . S
C959 C943 1.429 . S
C959 C955 1.429 . S
C959 C960 1.523 . S
C960 C944 1.368 . S
C960 C956 1.368 . S
C960 C959 1.523 . S
H961 C936 0.950 . S
H962 C938 0.950 . S
H963 C939 0.949 . S
H964 C941 0.950 . S
H965 C943 0.950 . S
C966 C967 1.349 . S
C966 C968 1.327 . S
C966 H991 0.950 . S
C967 C966 1.349 . S
C967 C983 1.349 . S
C968 C966 1.327 . S
C968 C987 1.429 . S
C968 H992 0.950 . S
C969 C986 1.574 . S
C969 C988 1.368 . S
C969 H993 0.949 . S
H970 C974 0.949 . S
C971 C972 1.349 . S
C971 C973 1.327 . S
C971 H994 0.950 . S
C972 C971 1.349 . S
C972 C984 1.349 . S
C973 C971 1.327 . S
C973 C989 1.429 . S
C973 H995 0.950 . S
C974 H970 0.949 . S
C974 C982 1.574 . S
C974 C990 1.368 . S
H975 C983 0.950 . S
H976 C981 0.950 . S
H977 C982 0.949 . S
H978 C984 0.950 . S
H979 C985 0.950 . S
H980 C986 0.949 . S
C981 H976 0.950 . S
C981 C983 1.327 . S
C981 C987 1.429 . S
C982 C974 1.574 . S
C982 H977 0.949 . S
C982 C988 1.368 . S
C983 C967 1.349 . S
C983 H975 0.950 . S
C983 C981 1.327 . S
C984 C972 1.349 . S
C984 H978 0.950 . S
C984 C985 1.327 . S
C985 H979 0.950 . S
C985 C984 1.327 . S
C985 C989 1.429 . S
C986 C969 1.574 . S
C986 H980 0.949 . S
C986 C990 1.368 . S
C987 C968 1.429 . S
C987 C981 1.429 . S
C987 C988 1.523 . S
C988 C969 1.368 . S
C988 C982 1.368 . S
C988 C987 1.523 . S
C989 C973 1.429 . S
C989 C985 1.429 . S
C989 C990 1.523 . S
C990 C974 1.368 . S
C990 C986 1.368 . S
C990 C989 1.523 . S
H991 C966 0.950 . S
H992 C968 0.950 . S
H993 C969 0.949 . S
H994 C971 0.950 . S
H995 C973 0.950 . S
C996 C997 1.349 . S
C996 C998 1.327 . S
C996 H1021 0.950 . S
C997 C996 1.349 . S
C997 C1013 1.349 . S
C998 C996 1.327 . S
C998 C1017 1.429 . S
C998 H1022 0.950 . S
C999 C1016 1.574 . S
C999 C1018 1.368 . S
C999 H1023 0.949 . S
H1000 C1004 0.949 . S
C1001 C1002 1.349 . S
C1001 C1003 1.327 . S
C1001 H1024 0.950 . S
C1002 C1001 1.349 . S
C1002 C1014 1.349 . S
C1003 C1001 1.327 . S
C1003 C1019 1.429 . S
C1003 H1025 0.950 . S
C1004 H1000 0.949 . S
C1004 C1012 1.574 . S
C1004 C1020 1.368 . S
H1005 C1013 0.950 . S
H1006 C1011 0.950 . S
H1007 C1012 0.949 . S
H1008 C1014 0.950 . S
H1009 C1015 0.950 . S
H1010 C1016 0.949 . S
C1011 H1006 0.950 . S
C1011 C1013 1.327 . S
C1011 C1017 1.429 . S
C1012 C1004 1.574 . S
C1012 H1007 0.949 . S
C1012 C1018 1.368 . S
C1013 C997 1.349 . S
C1013 H1005 0.950 . S
C1013 C1011 1.327 . S
C1014 C1002 1.349 . S
C1014 H1008 0.950 . S
C1014 C1015 1.327 . S
C1015 H1009 0.950 . S
C1015 C1014 1.327 . S
C1015 C1019 1.429 . S
C1016 C999 1.574 . S
C1016 H1010 0.949 . S
C1016 C1020 1.368 . S
C1017 C998 1.429 . S
C1017 C1011 1.429 . S
C1017 C1018 1.523 . S
C1018 C999 1.368 . S
C1018 C1012 1.368 . S
C1018 C1017 1.523 . S
C1019 C1003 1.429 . S
C1019 C1015 1.429 . S
C1019 C1020 1.523 . S
C1020 C1004 1.368 . S
C1020 C1016 1.368 . S
C1020 C1019 1.523 . S
H1021 C996 0.950 . S
H1022 C998 0.950 . S
H1023 C999 0.949 . S
H1024 C1001 0.950 . S
H1025 C1003 0.950 . S
C1026 C1027 1.349 . S
C1026 C1028 1.327 . S
C1026 H1051 0.950 . S
C1027 C1026 1.349 . S
C1027 C1043 1.349 . S
C1028 C1026 1.327 . S
C1028 C1047 1.429 . S
C1028 H1052 0.950 . S
C1029 C1046 1.574 . S
C1029 C1048 1.368 1_556 S
C1029 H1053 0.949 . S
H1030 C1034 0.949 . S
C1031 C1032 1.349 . S
C1031 C1033 1.327 . S
C1031 H1054 0.950 . S
C1032 C1031 1.349 . S
C1032 C1044 1.349 . S
C1033 C1031 1.327 . S
C1033 C1049 1.429 . S
C1033 H1055 0.950 . S
C1034 H1030 0.949 . S
C1034 C1042 1.574 1_556 S
C1034 C1050 1.368 . S
H1035 C1043 0.950 . S
H1036 C1041 0.976 . S
H1037 C1042 0.949 . S
H1038 C1044 0.950 . S
H1039 C1045 0.950 . S
H1040 C1046 0.949 . S
C1041 H1036 0.976 . S
C1041 C1043 1.327 . S
C1041 C1047 1.429 . S
C1042 C1034 1.574 1_554 S
C1042 H1037 0.949 . S
C1042 C1048 1.368 . S
C1043 C1027 1.349 . S
C1043 H1035 0.950 . S
C1043 C1041 1.327 . S
C1044 C1032 1.349 . S
C1044 H1038 0.950 . S
C1044 C1045 1.327 . S
C1045 H1039 0.950 . S
C1045 C1044 1.327 . S
C1045 C1049 1.429 . S
C1046 C1029 1.574 . S
C1046 H1040 0.949 . S
C1046 C1050 1.368 . S
C1047 C1028 1.429 . S
C1047 C1041 1.429 . S
C1047 C1048 1.523 . S
C1048 C1029 1.368 1_554 S
C1048 C1042 1.368 . S
C1048 C1047 1.523 . S
C1049 C1033 1.429 . S
C1049 C1045 1.429 . S
C1049 C1050 1.523 . S
C1050 C1034 1.368 . S
C1050 C1046 1.368 . S
C1050 C1049 1.523 . S
H1051 C1026 0.950 . S
H1052 C1028 0.950 . S
H1053 C1029 0.949 . S
H1054 C1031 0.950 . S
H1055 C1033 0.950 . S
C1056 C1057 1.349 . S
C1056 C1058 1.327 . S
C1056 H1081 0.950 . S
C1057 C1056 1.349 . S
C1057 C1073 1.349 . S
C1058 C1056 1.327 . S
C1058 C1077 1.429 . S
C1058 H1082 0.950 . S
C1059 C1076 1.574 . S
C1059 C1078 1.368 1_556 S
C1059 H1083 0.949 . S
H1060 C1064 0.949 1_554 S
C1061 C1062 1.367 . S
C1061 C1063 1.296 1_545 S
C1061 H1084 0.964 . S
C1062 C1061 1.367 . S
C1062 C1074 1.349 . S
C1063 C1061 1.296 1_565 S
C1063 C1079 1.429 . S
C1063 H1085 0.950 . S
C1064 H1060 0.949 1_556 S
C1064 C1072 1.574 1_556 S
C1064 C1080 1.368 . S
H1065 C1073 0.950 . S
H1066 C1071 0.950 1_556 S
H1067 C1072 0.949 . S
H1068 C1074 0.950 . S
H1069 C1075 0.950 . S
H1070 C1076 0.949 . S
C1071 H1066 0.950 1_554 S
C1071 C1073 1.327 . S
C1071 C1077 1.429 . S
C1072 C1064 1.574 1_554 S
C1072 H1067 0.949 . S
C1072 C1078 1.368 . S
C1073 C1057 1.349 . S
C1073 H1065 0.950 . S
C1073 C1071 1.327 . S
C1074 C1062 1.349 . S
C1074 H1068 0.950 . S
C1074 C1075 1.327 1_545 S
C1075 H1069 0.950 . S
C1075 C1074 1.327 1_565 S
C1075 C1079 1.429 . S
C1076 C1059 1.574 . S
C1076 H1070 0.949 . S
C1076 C1080 1.368 . S
C1077 C1058 1.429 . S
C1077 C1071 1.429 . S
C1077 C1078 1.523 . S
C1078 C1059 1.368 1_554 S
C1078 C1072 1.368 . S
C1078 C1077 1.523 . S
C1079 C1063 1.429 . S
C1079 C1075 1.429 . S
C1079 C1080 1.523 . S
C1080 C1064 1.368 . S
C1080 C1076 1.368 . S
C1080 C1079 1.523 . S
H1081 C1056 0.950 . S
H1082 C1058 0.950 . S
H1083 C1059 0.949 . S
H1084 C1061 0.964 . S
H1085 C1063 0.950 . S
C1086 C1087 1.349 . S
C1086 C1088 1.327 . S
C1086 H1111 0.950 . S
C1087 C1086 1.349 . S
C1087 C1103 1.349 . S
C1088 C1086 1.327 . S
C1088 C1107 1.429 . S
C1088 H1112 0.950 1_554 S
C1089 C1106 1.574 . S
C1089 C1108 1.368 . S
C1089 H1113 0.949 . S
H1090 C1094 0.949 . S
C1091 C1092 1.349 1_455 S
C1091 C1093 1.327 . S
C1091 H1114 0.950 1_455 S
C1092 C1091 1.349 1_655 S
C1092 C1104 1.349 1_655 S
C1093 C1091 1.327 . S
C1093 C1109 1.429 . S
C1093 H1115 0.950 . S
C1094 H1090 0.949 . S
C1094 C1102 1.574 . S
C1094 C1110 1.368 . S
H1095 C1103 0.950 . S
H1096 C1101 0.950 . S
H1097 C1102 0.949 . S
H1098 C1104 0.950 . S
H1099 C1105 0.950 . S
H1100 C1106 0.949 . S
C1101 H1096 0.950 . S
C1101 C1103 1.327 . S
C1101 C1107 1.429 . S
C1102 C1094 1.574 . S
C1102 H1097 0.949 . S
C1102 C1108 1.368 1_556 S
C1103 C1087 1.349 . S
C1103 H1095 0.950 . S
C1103 C1101 1.327 . S
C1104 C1092 1.349 1_455 S
C1104 H1098 0.950 . S
C1104 C1105 1.327 . S
C1105 H1099 0.950 . S
C1105 C1104 1.327 . S
C1105 C1109 1.429 . S
C1106 C1089 1.574 . S
C1106 H1100 0.949 . S
C1106 C1110 1.368 1_554 S
C1107 C1088 1.429 . S
C1107 C1101 1.429 . S
C1107 C1108 1.523 . S
C1108 C1089 1.368 . S
C1108 C1102 1.368 1_554 S
C1108 C1107 1.523 . S
C1109 C1093 1.429 . S
C1109 C1105 1.429 . S
C1109 C1110 1.523 . S
C1110 C1094 1.368 . S
C1110 C1106 1.368 1_556 S
C1110 C1109 1.523 . S
H1111 C1086 0.950 . S
H1112 C1088 0.950 1_556 S
H1113 C1089 0.949 . S
H1114 C1091 0.950 1_655 S
H1115 C1093 0.950 . S
C1116 C1117 1.349 . S
C1116 C1118 1.327 . S
C1116 H1141 0.950 . S
C1117 C1116 1.349 . S
C1117 C1133 1.349 . S
C1118 C1116 1.327 . S
C1118 C1137 1.429 . S
C1118 H1142 0.950 . S
C1119 C1136 1.574 . S
C1119 C1138 1.368 . S
C1119 H1143 0.949 . S
H1120 C1124 0.949 . S
C1121 C1122 1.349 . S
C1121 C1123 1.327 . S
C1121 H1144 0.950 . S
C1122 C1121 1.349 . S
C1122 C1134 1.349 . S
C1123 C1121 1.327 . S
C1123 C1139 1.429 . S
C1123 H1145 0.950 . S
C1124 H1120 0.949 . S
C1124 C1132 1.574 . S
C1124 C1140 1.368 . S
H1125 C1133 0.950 . S
H1126 C1131 0.950 . S
H1127 C1132 0.949 . S
H1128 C1134 0.950 . S
H1129 C1135 0.950 . S
H1130 C1136 0.949 . S
C1131 H1126 0.950 . S
C1131 C1133 1.327 . S
C1131 C1137 1.429 . S
C1132 C1124 1.574 . S
C1132 H1127 0.949 . S
C1132 C1138 1.368 . S
C1133 C1117 1.349 . S
C1133 H1125 0.950 . S
C1133 C1131 1.327 . S
C1134 C1122 1.349 . S
C1134 H1128 0.950 . S
C1134 C1135 1.327 . S
C1135 H1129 0.950 . S
C1135 C1134 1.327 . S
C1135 C1139 1.429 . S
C1136 C1119 1.574 . S
C1136 H1130 0.949 . S
C1136 C1140 1.368 . S
C1137 C1118 1.429 . S
C1137 C1131 1.429 . S
C1137 C1138 1.523 . S
C1138 C1119 1.368 . S
C1138 C1132 1.368 . S
C1138 C1137 1.523 . S
C1139 C1123 1.429 . S
C1139 C1135 1.429 . S
C1139 C1140 1.523 . S
C1140 C1124 1.368 . S
C1140 C1136 1.368 . S
C1140 C1139 1.523 . S
H1141 C1116 0.950 . S
H1142 C1118 0.950 . S
H1143 C1119 0.949 . S
H1144 C1121 0.950 . S
H1145 C1123 0.950 . S
C1146 C1147 1.349 . S
C1146 C1148 1.327 . S
C1146 H1171 0.950 . S
C1147 C1146 1.349 . S
C1147 C1163 1.349 . S
C1148 C1146 1.327 . S
C1148 C1167 1.429 . S
C1148 H1172 0.950 . S
C1149 C1166 1.574 . S
C1149 C1168 1.368 . S
C1149 H1173 0.949 . S
H1150 C1154 0.949 . S
C1151 C1152 1.349 . S
C1151 C1153 1.327 . S
C1151 H1174 0.950 . S
C1152 C1151 1.349 . S
C1152 C1164 1.349 . S
C1153 C1151 1.327 . S
C1153 C1169 1.429 . S
C1153 H1175 0.950 . S
C1154 H1150 0.949 . S
C1154 C1162 1.574 . S
C1154 C1170 1.368 . S
H1155 C1163 0.950 . S
H1156 C1161 0.950 . S
H1157 C1162 0.949 . S
H1158 C1164 0.950 . S
H1159 C1165 0.950 . S
H1160 C1166 0.949 . S
C1161 H1156 0.950 . S
C1161 C1163 1.327 . S
C1161 C1167 1.429 . S
C1162 C1154 1.574 . S
C1162 H1157 0.949 . S
C1162 C1168 1.368 . S
C1163 C1147 1.349 . S
C1163 H1155 0.950 . S
C1163 C1161 1.327 . S
C1164 C1152 1.349 . S
C1164 H1158 0.950 . S
C1164 C1165 1.327 . S
C1165 H1159 0.950 . S
C1165 C1164 1.327 . S
C1165 C1169 1.429 . S
C1166 C1149 1.574 . S
C1166 H1160 0.949 . S
C1166 C1170 1.368 . S
C1167 C1148 1.429 . S
C1167 C1161 1.429 . S
C1167 C1168 1.523 . S
C1168 C1149 1.368 . S
C1168 C1162 1.368 . S
C1168 C1167 1.523 . S
C1169 C1153 1.429 . S
C1169 C1165 1.429 . S
C1169 C1170 1.523 . S
C1170 C1154 1.368 . S
C1170 C1166 1.368 . S
C1170 C1169 1.523 . S
H1171 C1146 0.950 . S
H1172 C1148 0.950 . S
H1173 C1149 0.949 . S
H1174 C1151 0.950 . S
H1175 C1153 0.950 . S
C1176 C1177 1.349 . S
C1176 C1178 1.327 . S
C1176 H1201 0.950 . S
C1177 C1176 1.349 . S
C1177 C1193 1.349 . S
C1178 C1176 1.327 . S
C1178 C1197 1.429 . S
C1178 H1202 0.950 . S
C1179 C1196 1.574 . S
C1179 C1198 1.368 . S
C1179 H1203 0.949 . S
H1180 C1184 0.949 . S
C1181 C1182 1.349 . S
C1181 C1183 1.327 . S
C1181 H1204 0.950 . S
C1182 C1181 1.349 . S
C1182 C1194 1.349 . S
C1183 C1181 1.327 . S
C1183 C1199 1.429 . S
C1183 H1205 0.950 . S
C1184 H1180 0.949 . S
C1184 C1192 1.574 . S
C1184 C1200 1.368 . S
H1185 C1193 0.950 . S
H1186 C1191 0.950 . S
H1187 C1192 0.949 . S
H1188 C1194 0.950 . S
H1189 C1195 0.950 . S
H1190 C1196 0.949 . S
C1191 H1186 0.950 . S
C1191 C1193 1.327 . S
C1191 C1197 1.429 . S
C1192 C1184 1.574 . S
C1192 H1187 0.949 . S
C1192 C1198 1.368 . S
C1193 C1177 1.349 . S
C1193 H1185 0.950 . S
C1193 C1191 1.327 . S
C1194 C1182 1.349 . S
C1194 H1188 0.950 . S
C1194 C1195 1.327 . S
C1195 H1189 0.950 . S
C1195 C1194 1.327 . S
C1195 C1199 1.429 . S
C1196 C1179 1.574 . S
C1196 H1190 0.949 . S
C1196 C1200 1.368 . S
C1197 C1178 1.429 . S
C1197 C1191 1.429 . S
C1197 C1198 1.523 . S
C1198 C1179 1.368 . S
C1198 C1192 1.368 . S
C1198 C1197 1.523 . S
C1199 C1183 1.429 . S
C1199 C1195 1.429 . S
C1199 C1200 1.523 . S
C1200 C1184 1.368 . S
C1200 C1196 1.368 . S
C1200 C1199 1.523 . S
H1201 C1176 0.950 . S
H1202 C1178 0.950 . S
H1203 C1179 0.949 . S
H1204 C1181 0.950 . S
H1205 C1183 0.950 . S
C1206 C1207 1.349 . S
C1206 C1208 1.327 . S
C1206 H1231 0.950 . S
C1207 C1206 1.349 . S
C1207 C1223 1.349 . S
C1208 C1206 1.327 . S
C1208 C1227 1.429 . S
C1208 H1232 0.950 1_556 S
C1209 C1226 1.574 . S
C1209 C1228 1.368 . S
C1209 H1233 0.949 . S
H1210 C1214 0.949 . S
C1211 C1212 1.349 . S
C1211 C1213 1.327 . S
C1211 H1234 0.950 . S
C1212 C1211 1.349 . S
C1212 C1224 1.349 . S
C1213 C1211 1.327 . S
C1213 C1229 1.429 . S
C1213 H1235 0.950 . S
C1214 H1210 0.949 . S
C1214 C1222 1.574 . S
C1214 C1230 1.368 . S
H1215 C1223 0.950 . S
H1216 C1221 0.950 . S
H1217 C1222 0.949 . S
H1218 C1224 0.950 . S
H1219 C1225 0.950 . S
H1220 C1226 0.949 . S
C1221 H1216 0.950 . S
C1221 C1223 1.327 . S
C1221 C1227 1.429 . S
C1222 C1214 1.574 . S
C1222 H1217 0.949 . S
C1222 C1228 1.368 1_554 S
C1223 C1207 1.349 . S
C1223 H1215 0.950 . S
C1223 C1221 1.327 . S
C1224 C1212 1.349 . S
C1224 H1218 0.950 . S
C1224 C1225 1.327 . S
C1225 H1219 0.950 . S
C1225 C1224 1.327 . S
C1225 C1229 1.429 . S
C1226 C1209 1.574 . S
C1226 H1220 0.949 . S
C1226 C1230 1.368 1_556 S
C1227 C1208 1.429 . S
C1227 C1221 1.429 . S
C1227 C1228 1.523 . S
C1228 C1209 1.368 . S
C1228 C1222 1.368 1_556 S
C1228 C1227 1.523 . S
C1229 C1213 1.429 . S
C1229 C1225 1.429 . S
C1229 C1230 1.523 . S
C1230 C1214 1.368 . S
C1230 C1226 1.368 1_554 S
C1230 C1229 1.523 . S
H1231 C1206 0.950 . S
H1232 C1208 0.950 1_554 S
H1233 C1209 0.949 . S
H1234 C1211 0.950 . S
H1235 C1213 0.950 . S
C1236 C1237 1.349 . S
C1236 C1238 1.327 . S
C1236 H1261 0.950 . S
C1237 C1236 1.349 . S
C1237 C1253 1.349 . S
C1238 C1236 1.327 . S
C1238 C1257 1.429 . S
C1238 H1262 0.950 1_556 S
C1239 C1256 1.574 1_556 S
C1239 C1258 1.383 . S
C1239 H1263 0.949 . S
H1240 C1244 0.949 . S
C1241 C1242 1.349 . S
C1241 C1243 1.327 . S
C1241 H1264 0.950 . S
C1242 C1241 1.349 . S
C1242 C1254 1.349 . S
C1243 C1241 1.327 . S
C1243 C1259 1.429 . S
C1243 H1265 0.950 . S
C1244 H1240 0.949 . S
C1244 C1252 1.574 . S
C1244 C1260 1.368 . S
H1245 C1253 0.950 . S
H1246 C1251 0.950 . S
H1247 C1252 0.949 . S
H1248 C1254 0.950 . S
H1249 C1255 0.950 . S
H1250 C1256 0.949 1_556 S
C1251 H1246 0.950 . S
C1251 C1253 1.327 . S
C1251 C1257 1.429 . S
C1252 C1244 1.574 . S
C1252 H1247 0.949 . S
C1252 C1258 1.340 1_554 S
C1253 C1237 1.349 . S
C1253 H1245 0.950 . S
C1253 C1251 1.327 . S
C1254 C1242 1.349 . S
C1254 H1248 0.950 . S
C1254 C1255 1.327 . S
C1255 H1249 0.950 . S
C1255 C1254 1.327 . S
C1255 C1259 1.429 . S
C1256 C1239 1.574 1_554 S
C1256 H1250 0.949 1_554 S
C1256 C1260 1.368 . S
C1257 C1238 1.429 . S
C1257 C1251 1.429 . S
C1257 C1258 1.542 . S
C1258 C1239 1.383 . S
C1258 C1252 1.340 1_556 S
C1258 C1257 1.542 . S
C1259 C1243 1.429 . S
C1259 C1255 1.429 . S
C1259 C1260 1.523 . S
C1260 C1244 1.368 . S
C1260 C1256 1.368 . S
C1260 C1259 1.523 . S
H1261 C1236 0.950 . S
H1262 C1238 0.950 1_554 S
H1263 C1239 0.949 . S
H1264 C1241 0.950 . S
H1265 C1243 0.950 . S
C1266 C1267 1.349 . S
C1266 C1268 1.327 . S
C1266 H1291 0.950 . S
C1267 C1266 1.349 . S
C1267 C1283 1.349 . S
C1268 C1266 1.327 . S
C1268 C1287 1.429 . S
C1268 H1292 0.950 1_556 S
C1269 C1286 1.574 1_556 S
C1269 C1288 1.384 . S
C1269 H1293 0.949 . S
H1270 C1274 0.949 . S
C1271 C1272 1.349 . S
C1271 C1273 1.327 1_455 S
C1271 H1294 0.950 . S
C1272 C1271 1.349 . S
C1272 C1284 1.349 . S
C1273 C1271 1.327 1_655 S
C1273 C1289 1.429 . S
C1273 H1295 0.950 . S
C1274 H1270 0.949 . S
C1274 C1282 1.574 . S
C1274 C1290 1.368 . S
H1275 C1283 0.950 . S
H1276 C1281 0.950 . S
H1277 C1282 0.949 . S
H1278 C1284 0.950 . S
H1279 C1285 0.950 . S
H1280 C1286 0.949 1_556 S
C1281 H1276 0.950 . S
C1281 C1283 1.327 . S
C1281 C1287 1.429 . S
C1282 C1274 1.574 . S
C1282 H1277 0.949 . S
C1282 C1288 1.340 1_554 S
C1283 C1267 1.349 . S
C1283 H1275 0.950 . S
C1283 C1281 1.327 . S
C1284 C1272 1.349 . S
C1284 H1278 0.950 . S
C1284 C1285 1.327 1_455 S
C1285 H1279 0.950 . S
C1285 C1284 1.327 1_655 S
C1285 C1289 1.429 . S
C1286 C1269 1.574 1_554 S
C1286 H1280 0.949 1_554 S
C1286 C1290 1.368 . S
C1287 C1268 1.429 . S
C1287 C1281 1.429 . S
C1287 C1288 1.540 . S
C1288 C1269 1.384 . S
C1288 C1282 1.340 1_556 S
C1288 C1287 1.540 . S
C1289 C1273 1.429 . S
C1289 C1285 1.429 . S
C1289 C1290 1.523 . S
C1290 C1274 1.368 . S
C1290 C1286 1.368 . S
C1290 C1289 1.523 . S
H1291 C1266 0.950 . S
H1292 C1268 0.950 1_554 S
H1293 C1269 0.949 . S
H1294 C1271 0.950 . S
H1295 C1273 0.950 . S
C1296 C1297 1.349 . S
C1296 C1298 1.327 . S
C1296 H1321 0.950 . S
C1297 C1296 1.349 . S
C1297 C1313 1.349 . S
C1298 C1296 1.327 . S
C1298 C1317 1.429 . S
C1298 H1322 0.950 . S
C1299 C1316 1.574 . S
C1299 C1318 1.368 . S
C1299 H1323 0.949 . S
H1300 C1304 0.949 . S
C1301 C1302 1.349 . S
C1301 C1303 1.327 . S
C1301 H1324 0.950 . S
C1302 C1301 1.349 . S
C1302 C1314 1.349 . S
C1303 C1301 1.327 . S
C1303 C1319 1.429 . S
C1303 H1325 0.950 . S
C1304 H1300 0.949 . S
C1304 C1312 1.574 . S
C1304 C1320 1.368 . S
H1305 C1313 0.950 . S
H1306 C1311 0.950 . S
H1307 C1312 0.949 . S
H1308 C1314 0.950 . S
H1309 C1315 0.950 . S
H1310 C1316 0.949 . S
C1311 H1306 0.950 . S
C1311 C1313 1.327 . S
C1311 C1317 1.429 . S
C1312 C1304 1.574 . S
C1312 H1307 0.949 . S
C1312 C1318 1.368 . S
C1313 C1297 1.349 . S
C1313 H1305 0.950 . S
C1313 C1311 1.327 . S
C1314 C1302 1.349 . S
C1314 H1308 0.950 . S
C1314 C1315 1.327 . S
C1315 H1309 0.950 . S
C1315 C1314 1.327 . S
C1315 C1319 1.429 . S
C1316 C1299 1.574 . S
C1316 H1310 0.949 . S
C1316 C1320 1.368 . S
C1317 C1298 1.429 . S
C1317 C1311 1.429 . S
C1317 C1318 1.523 . S
C1318 C1299 1.368 . S
C1318 C1312 1.368 . S
C1318 C1317 1.523 . S
C1319 C1303 1.429 . S
C1319 C1315 1.429 . S
C1319 C1320 1.523 . S
C1320 C1304 1.368 . S
C1320 C1316 1.368 . S
C1320 C1319 1.523 . S
H1321 C1296 0.950 . S
H1322 C1298 0.950 . S
H1323 C1299 0.949 . S
H1324 C1301 0.950 . S
H1325 C1303 0.950 . S
C1326 C1327 1.349 . S
C1326 C1328 1.327 . S
C1326 H1351 0.950 . S
C1327 C1326 1.349 . S
C1327 C1343 1.349 . S
C1328 C1326 1.327 . S
C1328 C1347 1.429 . S
C1328 H1352 0.950 . S
C1329 C1346 1.574 . S
C1329 C1348 1.368 . S
C1329 H1353 0.949 . S
H1330 C1334 0.949 . S
C1331 C1332 1.349 . S
C1331 C1333 1.327 . S
C1331 H1354 0.950 1_545 S
C1332 C1331 1.349 . S
C1332 C1344 1.349 . S
C1333 C1331 1.327 . S
C1333 C1349 1.429 . S
C1333 H1355 0.950 . S
C1334 H1330 0.949 . S
C1334 C1342 1.574 . S
C1334 C1350 1.368 . S
H1335 C1343 0.950 . S
H1336 C1341 0.950 . S
H1337 C1342 0.949 . S
H1338 C1344 0.950 . S
H1339 C1345 0.950 . S
H1340 C1346 0.949 . S
C1341 H1336 0.950 . S
C1341 C1343 1.327 . S
C1341 C1347 1.429 . S
C1342 C1334 1.574 . S
C1342 H1337 0.949 . S
C1342 C1348 1.368 . S
C1343 C1327 1.349 . S
C1343 H1335 0.950 . S
C1343 C1341 1.327 . S
C1344 C1332 1.349 . S
C1344 H1338 0.950 . S
C1344 C1345 1.327 . S
C1345 H1339 0.950 . S
C1345 C1344 1.327 . S
C1345 C1349 1.429 . S
C1346 C1329 1.574 . S
C1346 H1340 0.949 . S
C1346 C1350 1.368 . S
C1347 C1328 1.429 . S
C1347 C1341 1.429 . S
C1347 C1348 1.523 . S
C1348 C1329 1.368 . S
C1348 C1342 1.368 . S
C1348 C1347 1.523 . S
C1349 C1333 1.429 . S
C1349 C1345 1.429 . S
C1349 C1350 1.523 . S
C1350 C1334 1.368 . S
C1350 C1346 1.368 . S
C1350 C1349 1.523 . S
H1351 C1326 0.950 . S
H1352 C1328 0.950 . S
H1353 C1329 0.949 . S
H1354 C1331 0.950 1_565 S
H1355 C1333 0.950 . S
C1356 C1357 1.349 . S
C1356 C1358 1.323 . S
C1356 H1381 0.950 . S
C1357 C1356 1.349 . S
C1357 C1373 1.349 . S
C1358 C1356 1.323 . S
C1358 C1377 1.432 1_455 S
C1358 H1382 0.950 1_455 S
C1359 C1376 1.574 . S
C1359 C1378 1.368 . S
C1359 H1383 0.949 . S
H1360 C1364 0.949 . S
C1361 C1362 1.349 . S
C1361 C1363 1.327 . S
C1361 H1384 0.950 . S
C1362 C1361 1.349 . S
C1362 C1374 1.349 . S
C1363 C1361 1.327 . S
C1363 C1379 1.429 . S
C1363 H1385 0.950 . S
C1364 H1360 0.949 . S
C1364 C1372 1.574 . S
C1364 C1380 1.368 . S
H1365 C1373 0.950 . S
H1366 C1371 0.950 . S
H1367 C1372 0.949 . S
H1368 C1374 0.950 . S
H1369 C1375 0.950 . S
H1370 C1376 0.949 . S
C1371 H1366 0.950 . S
C1371 C1373 1.327 1_655 S
C1371 C1377 1.429 . S
C1372 C1364 1.574 . S
C1372 H1367 0.949 . S
C1372 C1378 1.368 . S
C1373 C1357 1.349 . S
C1373 H1365 0.950 . S
C1373 C1371 1.327 1_455 S
C1374 C1362 1.349 . S
C1374 H1368 0.950 . S
C1374 C1375 1.327 . S
C1375 H1369 0.950 . S
C1375 C1374 1.327 . S
C1375 C1379 1.429 . S
C1376 C1359 1.574 . S
C1376 H1370 0.949 . S
C1376 C1380 1.368 . S
C1377 C1358 1.432 1_655 S
C1377 C1371 1.429 . S
C1377 C1378 1.523 . S
C1378 C1359 1.368 . S
C1378 C1372 1.368 . S
C1378 C1377 1.523 . S
C1379 C1363 1.429 . S
C1379 C1375 1.429 . S
C1379 C1380 1.523 . S
C1380 C1364 1.368 . S
C1380 C1376 1.368 . S
C1380 C1379 1.523 . S
H1381 C1356 0.950 . S
H1382 C1358 0.950 1_655 S
H1383 C1359 0.949 . S
H1384 C1361 0.950 . S
H1385 C1363 0.950 . S
C1386 C1387 1.349 . S
C1386 C1388 1.327 . S
C1386 H1411 0.950 . S
C1387 C1386 1.349 . S
C1387 C1403 1.349 . S
C1388 C1386 1.327 . S
C1388 C1407 1.429 . S
C1388 H1412 0.950 . S
C1389 C1406 1.574 . S
C1389 C1408 1.368 . S
C1389 H1413 0.949 . S
H1390 C1394 0.949 . S
C1391 C1392 1.349 . S
C1391 C1393 1.327 . S
C1391 H1414 0.950 . S
C1392 C1391 1.349 . S
C1392 C1404 1.349 . S
C1393 C1391 1.327 . S
C1393 C1409 1.429 . S
C1393 H1415 0.950 . S
C1394 H1390 0.949 . S
C1394 C1402 1.574 . S
C1394 C1410 1.368 . S
H1395 C1403 0.950 . S
H1396 C1401 0.950 . S
H1397 C1402 0.949 . S
H1398 C1404 0.950 . S
H1399 C1405 0.950 . S
H1400 C1406 0.949 . S
C1401 H1396 0.950 . S
C1401 C1403 1.327 . S
C1401 C1407 1.429 . S
C1402 C1394 1.574 . S
C1402 H1397 0.949 . S
C1402 C1408 1.368 . S
C1403 C1387 1.349 . S
C1403 H1395 0.950 . S
C1403 C1401 1.327 . S
C1404 C1392 1.349 . S
C1404 H1398 0.950 . S
C1404 C1405 1.327 . S
C1405 H1399 0.950 . S
C1405 C1404 1.327 . S
C1405 C1409 1.429 . S
C1406 C1389 1.574 . S
C1406 H1400 0.949 . S
C1406 C1410 1.368 . S
C1407 C1388 1.429 . S
C1407 C1401 1.429 . S
C1407 C1408 1.523 . S
C1408 C1389 1.368 . S
C1408 C1402 1.368 . S
C1408 C1407 1.523 . S
C1409 C1393 1.429 . S
C1409 C1405 1.429 . S
C1409 C1410 1.523 . S
C1410 C1394 1.368 . S
C1410 C1406 1.368 . S
C1410 C1409 1.523 . S
H1411 C1386 0.950 . S
H1412 C1388 0.950 . S
H1413 C1389 0.949 . S
H1414 C1391 0.950 . S
H1415 C1393 0.950 . S
C1416 C1417 1.349 . S
C1416 C1418 1.327 . S
C1416 H1441 0.950 . S
C1417 C1416 1.349 . S
C1417 C1433 1.349 . S
C1418 C1416 1.327 . S
C1418 C1437 1.429 . S
C1418 H1442 0.950 . S
C1419 C1436 1.574 . S
C1419 C1438 1.368 . S
C1419 H1443 0.949 . S
H1420 C1424 0.949 . S
C1421 C1422 1.349 . S
C1421 C1423 1.327 . S
C1421 H1444 0.950 . S
C1422 C1421 1.349 . S
C1422 C1434 1.349 . S
C1423 C1421 1.327 . S
C1423 C1439 1.429 . S
C1423 H1445 0.950 . S
C1424 H1420 0.949 . S
C1424 C1432 1.574 . S
C1424 C1440 1.368 . S
H1425 C1433 0.950 . S
H1426 C1431 0.950 . S
H1427 C1432 0.949 . S
H1428 C1434 0.950 . S
H1429 C1435 0.950 . S
H1430 C1436 0.949 . S
C1431 H1426 0.950 . S
C1431 C1433 1.327 . S
C1431 C1437 1.429 . S
C1432 C1424 1.574 . S
C1432 H1427 0.949 . S
C1432 C1438 1.368 . S
C1433 C1417 1.349 . S
C1433 H1425 0.950 . S
C1433 C1431 1.327 . S
C1434 C1422 1.349 . S
C1434 H1428 0.950 . S
C1434 C1435 1.327 . S
C1435 H1429 0.950 . S
C1435 C1434 1.327 . S
C1435 C1439 1.429 . S
C1436 C1419 1.574 . S
C1436 H1430 0.949 . S
C1436 C1440 1.368 . S
C1437 C1418 1.429 . S
C1437 C1431 1.429 . S
C1437 C1438 1.523 . S
C1438 C1419 1.368 . S
C1438 C1432 1.368 . S
C1438 C1437 1.523 . S
C1439 C1423 1.429 . S
C1439 C1435 1.429 . S
C1439 C1440 1.523 . S
C1440 C1424 1.368 . S
C1440 C1436 1.368 . S
C1440 C1439 1.523 . S
H1441 C1416 0.950 . S
H1442 C1418 0.950 . S
H1443 C1419 0.949 . S
H1444 C1421 0.950 . S
H1445 C1423 0.950 . S
C1446 C1447 1.349 . S
C1446 C1448 1.327 . S
C1446 H1471 0.950 . S
C1447 C1446 1.349 . S
C1447 C1463 1.349 . S
C1448 C1446 1.327 . S
C1448 C1467 1.429 . S
C1448 H1472 0.950 . S
C1449 C1466 1.574 . S
C1449 C1468 1.368 . S
C1449 H1473 0.949 . S
H1450 C1454 0.949 . S
C1451 C1452 1.349 . S
C1451 C1453 1.327 . S
C1451 H1474 0.950 . S
C1452 C1451 1.349 . S
C1452 C1464 1.349 . S
C1453 C1451 1.327 . S
C1453 C1469 1.429 . S
C1453 H1475 0.950 . S
C1454 H1450 0.949 . S
C1454 C1462 1.574 . S
C1454 C1470 1.368 . S
H1455 C1463 0.950 . S
H1456 C1461 0.950 . S
H1457 C1462 0.949 . S
H1458 C1464 0.950 . S
H1459 C1465 0.950 . S
H1460 C1466 0.949 . S
C1461 H1456 0.950 . S
C1461 C1463 1.327 . S
C1461 C1467 1.429 . S
C1462 C1454 1.574 . S
C1462 H1457 0.949 . S
C1462 C1468 1.368 . S
C1463 C1447 1.349 . S
C1463 H1455 0.950 . S
C1463 C1461 1.327 . S
C1464 C1452 1.349 . S
C1464 H1458 0.950 . S
C1464 C1465 1.327 . S
C1465 H1459 0.950 . S
C1465 C1464 1.327 . S
C1465 C1469 1.429 . S
C1466 C1449 1.574 . S
C1466 H1460 0.949 . S
C1466 C1470 1.368 . S
C1467 C1448 1.429 . S
C1467 C1461 1.429 . S
C1467 C1468 1.523 . S
C1468 C1449 1.368 . S
C1468 C1462 1.368 . S
C1468 C1467 1.523 . S
C1469 C1453 1.429 . S
C1469 C1465 1.429 . S
C1469 C1470 1.523 . S
C1470 C1454 1.368 . S
C1470 C1466 1.368 . S
C1470 C1469 1.523 . S
H1471 C1446 0.950 . S
H1472 C1448 0.950 . S
H1473 C1449 0.949 . S
H1474 C1451 0.950 . S
H1475 C1453 0.950 . S
C1476 C1477 1.349 . S
C1476 C1478 1.327 . S
C1476 H1501 0.950 . S
C1477 C1476 1.349 . S
C1477 C1493 1.349 . S
C1478 C1476 1.327 . S
C1478 C1497 1.429 . S
C1478 H1502 0.950 . S
C1479 C1496 1.574 . S
C1479 C1498 1.368 . S
C1479 H1503 0.949 . S
H1480 C1484 0.949 . S
C1481 C1482 1.349 . S
C1481 C1483 1.327 . S
C1481 H1504 0.950 . S
C1482 C1481 1.349 . S
C1482 C1494 1.349 . S
C1483 C1481 1.327 . S
C1483 C1499 1.429 . S
C1483 H1505 0.950 . S
C1484 H1480 0.949 . S
C1484 C1492 1.574 . S
C1484 C1500 1.368 . S
H1485 C1493 0.950 . S
H1486 C1491 0.950 . S
H1487 C1492 0.949 . S
H1488 C1494 0.950 . S
H1489 C1495 0.950 . S
H1490 C1496 0.949 . S
C1491 H1486 0.950 . S
C1491 C1493 1.327 . S
C1491 C1497 1.429 . S
C1492 C1484 1.574 . S
C1492 H1487 0.949 . S
C1492 C1498 1.368 . S
C1493 C1477 1.349 . S
C1493 H1485 0.950 . S
C1493 C1491 1.327 . S
C1494 C1482 1.349 . S
C1494 H1488 0.950 . S
C1494 C1495 1.327 . S
C1495 H1489 0.950 . S
C1495 C1494 1.327 . S
C1495 C1499 1.429 . S
C1496 C1479 1.574 . S
C1496 H1490 0.949 . S
C1496 C1500 1.368 . S
C1497 C1478 1.429 . S
C1497 C1491 1.429 . S
C1497 C1498 1.523 . S
C1498 C1479 1.368 . S
C1498 C1492 1.368 . S
C1498 C1497 1.523 . S
C1499 C1483 1.429 . S
C1499 C1495 1.429 . S
C1499 C1500 1.523 . S
C1500 C1484 1.368 . S
C1500 C1496 1.368 . S
C1500 C1499 1.523 . S
H1501 C1476 0.950 . S
H1502 C1478 0.950 . S
H1503 C1479 0.949 . S
H1504 C1481 0.950 . S
H1505 C1483 0.950 . S
C1506 C1507 1.349 . S
C1506 C1508 1.327 . S
C1506 H1531 0.950 . S
C1507 C1506 1.349 . S
C1507 C1523 1.349 . S
C1508 C1506 1.327 . S
C1508 C1527 1.429 . S
C1508 H1532 0.950 . S
C1509 C1526 1.574 . S
C1509 C1528 1.368 . S
C1509 H1533 0.949 . S
H1510 C1514 0.949 . S
C1511 C1512 1.349 . S
C1511 C1513 1.327 . S
C1511 H1534 0.950 . S
C1512 C1511 1.349 . S
C1512 C1524 1.349 . S
C1513 C1511 1.327 . S
C1513 C1529 1.429 . S
C1513 H1535 0.950 . S
C1514 H1510 0.949 . S
C1514 C1522 1.574 . S
C1514 C1530 1.368 . S
H1515 C1523 0.950 . S
H1516 C1521 0.950 . S
H1517 C1522 0.949 . S
H1518 C1524 0.950 . S
H1519 C1525 0.950 . S
H1520 C1526 0.949 . S
C1521 H1516 0.950 . S
C1521 C1523 1.327 . S
C1521 C1527 1.429 . S
C1522 C1514 1.574 . S
C1522 H1517 0.949 . S
C1522 C1528 1.368 . S
C1523 C1507 1.349 . S
C1523 H1515 0.950 . S
C1523 C1521 1.327 . S
C1524 C1512 1.349 . S
C1524 H1518 0.950 . S
C1524 C1525 1.327 . S
C1525 H1519 0.950 . S
C1525 C1524 1.327 . S
C1525 C1529 1.429 . S
C1526 C1509 1.574 . S
C1526 H1520 0.949 . S
C1526 C1530 1.368 . S
C1527 C1508 1.429 . S
C1527 C1521 1.429 . S
C1527 C1528 1.523 . S
C1528 C1509 1.368 . S
C1528 C1522 1.368 . S
C1528 C1527 1.523 . S
C1529 C1513 1.429 . S
C1529 C1525 1.429 . S
C1529 C1530 1.523 . S
C1530 C1514 1.368 . S
C1530 C1526 1.368 . S
C1530 C1529 1.523 . S
H1531 C1506 0.950 . S
H1532 C1508 0.950 . S
H1533 C1509 0.949 . S
H1534 C1511 0.950 . S
H1535 C1513 0.950 . S
C1536 C1537 1.349 . S
C1536 C1538 1.327 . S
C1536 H1561 0.950 . S
C1537 C1536 1.349 . S
C1537 C1553 1.349 . S
C1538 C1536 1.327 . S
C1538 C1557 1.429 . S
C1538 H1562 0.950 . S
C1539 C1556 1.574 . S
C1539 C1558 1.368 . S
C1539 H1563 0.949 . S
H1540 C1544 0.949 . S
C1541 C1542 1.349 . S
C1541 C1543 1.327 . S
C1541 H1564 0.950 1_565 S
C1542 C1541 1.349 . S
C1542 C1554 1.349 . S
C1543 C1541 1.327 . S
C1543 C1559 1.429 . S
C1543 H1565 0.950 1_565 S
C1544 H1540 0.949 . S
C1544 C1552 1.574 . S
C1544 C1560 1.368 . S
H1545 C1553 0.950 . S
H1546 C1551 0.950 . S
H1547 C1552 0.949 . S
H1548 C1554 0.950 . S
H1549 C1555 0.950 . S
H1550 C1556 0.960 . S
C1551 H1546 0.950 . S
C1551 C1553 1.327 . S
C1551 C1557 1.429 . S
C1552 C1544 1.574 . S
C1552 H1547 0.949 . S
C1552 C1558 1.368 . S
C1553 C1537 1.349 . S
C1553 H1545 0.950 . S
C1553 C1551 1.327 . S
C1554 C1542 1.349 . S
C1554 H1548 0.950 . S
C1554 C1555 1.327 . S
C1555 H1549 0.950 . S
C1555 C1554 1.327 . S
C1555 C1559 1.429 . S
C1556 C1539 1.574 . S
C1556 H1550 0.960 . S
C1556 C1560 1.368 . S
C1557 C1538 1.429 . S
C1557 C1551 1.429 . S
C1557 C1558 1.523 . S
C1558 C1539 1.368 . S
C1558 C1552 1.368 . S
C1558 C1557 1.523 . S
C1559 C1543 1.429 . S
C1559 C1555 1.429 . S
C1559 C1560 1.523 . S
C1560 C1544 1.368 . S
C1560 C1556 1.368 . S
C1560 C1559 1.523 . S
H1561 C1536 0.950 . S
H1562 C1538 0.950 . S
H1563 C1539 0.949 . S
H1564 C1541 0.950 1_545 S
H1565 C1543 0.950 1_545 S
C1566 C1567 1.349 . S
C1566 C1568 1.327 1_556 S
C1566 H1591 0.950 . S
C1567 C1566 1.349 . S
C1567 C1583 1.349 . S
C1568 C1566 1.327 1_554 S
C1568 C1587 1.429 . S
C1568 H1592 0.950 . S
C1569 C1586 1.574 . S
C1569 C1588 1.368 . S
C1569 H1593 0.949 . S
H1570 C1574 0.949 . S
C1571 C1572 1.349 . S
C1571 C1573 1.327 . S
C1571 H1594 0.950 . S
C1572 C1571 1.349 . S
C1572 C1584 1.349 . S
C1573 C1571 1.327 . S
C1573 C1589 1.429 . S
C1573 H1595 0.950 . S
C1574 H1570 0.949 . S
C1574 C1582 1.574 . S
C1574 C1590 1.368 . S
H1575 C1583 0.950 . S
H1576 C1581 0.950 . S
H1577 C1582 0.949 . S
H1578 C1584 0.950 . S
H1579 C1585 0.950 . S
H1580 C1586 0.949 . S
C1581 H1576 0.950 . S
C1581 C1583 1.327 1_554 S
C1581 C1587 1.429 . S
C1582 C1574 1.574 . S
C1582 H1577 0.949 . S
C1582 C1588 1.368 . S
C1583 C1567 1.349 . S
C1583 H1575 0.950 . S
C1583 C1581 1.327 1_556 S
C1584 C1572 1.349 . S
C1584 H1578 0.950 . S
C1584 C1585 1.327 . S
C1585 H1579 0.950 . S
C1585 C1584 1.327 . S
C1585 C1589 1.429 . S
C1586 C1569 1.574 . S
C1586 H1580 0.949 . S
C1586 C1590 1.368 . S
C1587 C1568 1.429 . S
C1587 C1581 1.429 . S
C1587 C1588 1.523 . S
C1588 C1569 1.368 . S
C1588 C1582 1.368 . S
C1588 C1587 1.523 . S
C1589 C1573 1.429 . S
C1589 C1585 1.429 . S
C1589 C1590 1.523 . S
C1590 C1574 1.368 . S
C1590 C1586 1.368 . S
C1590 C1589 1.523 . S
H1591 C1566 0.950 . S
H1592 C1568 0.950 . S
H1593 C1569 0.949 . S
H1594 C1571 0.950 . S
H1595 C1573 0.950 . S
C1596 C1597 1.362 . S
C1596 C1598 1.335 . S
C1596 H1621 0.929 1_655 S
C1597 C1596 1.362 . S
C1597 C1613 1.349 . S
C1598 C1596 1.335 . S
C1598 C1617 1.429 . S
C1598 H1622 0.950 1_655 S
C1599 C1616 1.574 . S
C1599 C1618 1.368 . S
C1599 H1623 0.949 . S
H1600 C1604 0.949 . S
C1601 C1602 1.349 . S
C1601 C1603 1.327 1_556 S
C1601 H1624 0.950 . S
C1602 C1601 1.349 . S
C1602 C1614 1.349 . S
C1603 C1601 1.327 1_554 S
C1603 C1619 1.429 . S
C1603 H1625 0.950 . S
C1604 H1600 0.949 . S
C1604 C1612 1.574 . S
C1604 C1620 1.368 . S
H1605 C1613 0.950 . S
H1606 C1611 0.950 . S
H1607 C1612 0.949 1_455 S
H1608 C1614 0.950 . S
H1609 C1615 0.950 . S
H1610 C1616 0.949 . S
C1611 H1606 0.950 . S
C1611 C1613 1.327 . S
C1611 C1617 1.429 . S
C1612 C1604 1.574 . S
C1612 H1607 0.949 1_655 S
C1612 C1618 1.368 . S
C1613 C1597 1.349 . S
C1613 H1605 0.950 . S
C1613 C1611 1.327 . S
C1614 C1602 1.349 . S
C1614 H1608 0.950 . S
C1614 C1615 1.327 1_556 S
C1615 H1609 0.950 . S
C1615 C1614 1.327 1_554 S
C1615 C1619 1.429 . S
C1616 C1599 1.574 . S
C1616 H1610 0.949 . S
C1616 C1620 1.368 . S
C1617 C1598 1.429 . S
C1617 C1611 1.429 . S
C1617 C1618 1.523 . S
C1618 C1599 1.368 . S
C1618 C1612 1.368 . S
C1618 C1617 1.523 . S
C1619 C1603 1.429 . S
C1619 C1615 1.429 . S
C1619 C1620 1.523 . S
C1620 C1604 1.368 . S
C1620 C1616 1.368 . S
C1620 C1619 1.523 . S
H1621 C1596 0.929 1_455 S
H1622 C1598 0.950 1_455 S
H1623 C1599 0.949 . S
H1624 C1601 0.950 . S
H1625 C1603 0.950 . S
C1626 C1627 1.349 . S
C1626 C1628 1.327 . S
C1626 H1651 0.950 . S
C1627 C1626 1.349 . S
C1627 C1643 1.349 . S
C1628 C1626 1.327 . S
C1628 C1647 1.429 . S
C1628 H1652 0.950 . S
C1629 C1646 1.574 . S
C1629 C1648 1.368 . S
C1629 H1653 0.949 . S
H1630 C1634 0.949 . S
C1631 C1632 1.349 . S
C1631 C1633 1.327 1_556 S
C1631 H1654 0.950 . S
C1632 C1631 1.349 . S
C1632 C1644 1.349 1_556 S
C1633 C1631 1.327 1_554 S
C1633 C1649 1.429 . S
C1633 H1655 0.950 . S
C1634 H1630 0.949 . S
C1634 C1642 1.574 . S
C1634 C1650 1.368 . S
H1635 C1643 0.950 . S
H1636 C1641 0.950 . S
H1637 C1642 0.949 . S
H1638 C1644 0.950 1_556 S
H1639 C1645 0.950 . S
H1640 C1646 0.949 . S
C1641 H1636 0.950 . S
C1641 C1643 1.327 . S
C1641 C1647 1.429 . S
C1642 C1634 1.574 . S
C1642 H1637 0.949 . S
C1642 C1648 1.368 . S
C1643 C1627 1.349 . S
C1643 H1635 0.950 . S
C1643 C1641 1.327 . S
C1644 C1632 1.349 1_554 S
C1644 H1638 0.950 1_554 S
C1644 C1645 1.327 . S
C1645 H1639 0.950 . S
C1645 C1644 1.327 . S
C1645 C1649 1.429 . S
C1646 C1629 1.574 . S
C1646 H1640 0.949 . S
C1646 C1650 1.368 . S
C1647 C1628 1.429 . S
C1647 C1641 1.429 . S
C1647 C1648 1.523 . S
C1648 C1629 1.368 . S
C1648 C1642 1.368 . S
C1648 C1647 1.523 . S
C1649 C1633 1.429 . S
C1649 C1645 1.429 . S
C1649 C1650 1.523 . S
C1650 C1634 1.368 . S
C1650 C1646 1.368 . S
C1650 C1649 1.523 . S
H1651 C1626 0.950 . S
H1652 C1628 0.950 . S
H1653 C1629 0.949 . S
H1654 C1631 0.950 . S
H1655 C1633 0.950 . S
C1656 C1657 1.349 . S
C1656 C1658 1.327 . S
C1656 H1681 0.950 . S
C1657 C1656 1.349 . S
C1657 C1673 1.362 . S
C1658 C1656 1.327 . S
C1658 C1677 1.429 . S
C1658 H1682 0.950 . S
C1659 C1676 1.574 . S
C1659 C1678 1.368 . S
C1659 H1683 0.949 1_655 S
H1660 C1664 0.949 . S
C1661 C1662 1.349 . S
C1661 C1663 1.327 . S
C1661 H1684 0.950 . S
C1662 C1661 1.349 . S
C1662 C1674 1.349 . S
C1663 C1661 1.327 . S
C1663 C1679 1.429 . S
C1663 H1685 0.950 . S
C1664 H1660 0.949 . S
C1664 C1672 1.574 . S
C1664 C1680 1.368 . S
H1665 C1673 0.937 1_455 S
H1666 C1671 0.950 1_455 S
H1667 C1672 0.949 . S
H1668 C1674 0.950 . S
H1669 C1675 0.950 . S
H1670 C1676 0.949 . S
C1671 H1666 0.950 1_655 S
C1671 C1673 1.327 . S
C1671 C1677 1.429 . S
C1672 C1664 1.574 . S
C1672 H1667 0.949 . S
C1672 C1678 1.368 . S
C1673 C1657 1.362 . S
C1673 H1665 0.937 1_655 S
C1673 C1671 1.327 . S
C1674 C1662 1.349 . S
C1674 H1668 0.950 . S
C1674 C1675 1.327 . S
C1675 H1669 0.950 . S
C1675 C1674 1.327 . S
C1675 C1679 1.429 . S
C1676 C1659 1.574 . S
C1676 H1670 0.949 . S
C1676 C1680 1.368 . S
C1677 C1658 1.429 . S
C1677 C1671 1.429 . S
C1677 C1678 1.523 . S
C1678 C1659 1.368 . S
C1678 C1672 1.368 . S
C1678 C1677 1.523 . S
C1679 C1663 1.429 . S
C1679 C1675 1.429 . S
C1679 C1680 1.523 . S
C1680 C1664 1.368 . S
C1680 C1676 1.368 . S
C1680 C1679 1.523 . S
H1681 C1656 0.950 . S
H1682 C1658 0.950 . S
H1683 C1659 0.949 1_455 S
H1684 C1661 0.950 . S
H1685 C1663 0.950 . S
C1686 C1687 1.349 . S
C1686 C1688 1.327 . S
C1686 H1711 0.950 . S
C1687 C1686 1.349 . S
C1687 C1703 1.349 . S
C1688 C1686 1.327 . S
C1688 C1707 1.429 . S
C1688 H1712 0.950 . S
C1689 C1706 1.574 . S
C1689 C1708 1.368 . S
C1689 H1713 0.949 . S
H1690 C1694 0.949 . S
C1691 C1692 1.349 . S
C1691 C1693 1.327 . S
C1691 H1714 0.950 . S
C1692 C1691 1.349 . S
C1692 C1704 1.349 . S
C1693 C1691 1.327 . S
C1693 C1709 1.429 . S
C1693 H1715 0.950 . S
C1694 H1690 0.949 . S
C1694 C1702 1.574 . S
C1694 C1710 1.368 . S
H1695 C1703 0.950 . S
H1696 C1701 0.950 . S
H1697 C1702 0.949 . S
H1698 C1704 0.950 . S
H1699 C1705 0.950 . S
H1700 C1706 0.949 . S
C1701 H1696 0.950 . S
C1701 C1703 1.327 . S
C1701 C1707 1.429 . S
C1702 C1694 1.574 . S
C1702 H1697 0.949 . S
C1702 C1708 1.368 . S
C1703 C1687 1.349 . S
C1703 H1695 0.950 . S
C1703 C1701 1.327 . S
C1704 C1692 1.349 . S
C1704 H1698 0.950 . S
C1704 C1705 1.327 . S
C1705 H1699 0.950 . S
C1705 C1704 1.327 . S
C1705 C1709 1.429 . S
C1706 C1689 1.574 . S
C1706 H1700 0.949 . S
C1706 C1710 1.368 . S
C1707 C1688 1.429 . S
C1707 C1701 1.429 . S
C1707 C1708 1.523 . S
C1708 C1689 1.368 . S
C1708 C1702 1.368 . S
C1708 C1707 1.523 . S
C1709 C1693 1.429 . S
C1709 C1705 1.429 . S
C1709 C1710 1.523 . S
C1710 C1694 1.368 . S
C1710 C1706 1.368 . S
C1710 C1709 1.523 . S
H1711 C1686 0.950 . S
H1712 C1688 0.950 . S
H1713 C1689 0.949 . S
H1714 C1691 0.950 . S
H1715 C1693 0.950 . S
C1716 C1717 1.349 . S
C1716 C1718 1.327 . S
C1716 H1741 0.950 . S
C1717 C1716 1.349 . S
C1717 C1733 1.349 . S
C1718 C1716 1.327 . S
C1718 C1737 1.429 . S
C1718 H1742 0.950 . S
C1719 C1736 1.574 . S
C1719 C1738 1.368 . S
C1719 H1743 0.949 . S
H1720 C1724 0.949 . S
C1721 C1722 1.349 . S
C1721 C1723 1.327 . S
C1721 H1744 0.950 . S
C1722 C1721 1.349 . S
C1722 C1734 1.349 . S
C1723 C1721 1.327 . S
C1723 C1739 1.429 . S
C1723 H1745 0.950 . S
C1724 H1720 0.949 . S
C1724 C1732 1.574 . S
C1724 C1740 1.368 . S
H1725 C1733 0.950 . S
H1726 C1731 0.950 . S
H1727 C1732 0.949 . S
H1728 C1734 0.950 . S
H1729 C1735 0.950 . S
H1730 C1736 0.949 . S
C1731 H1726 0.950 . S
C1731 C1733 1.327 . S
C1731 C1737 1.429 . S
C1732 C1724 1.574 . S
C1732 H1727 0.949 . S
C1732 C1738 1.368 . S
C1733 C1717 1.349 . S
C1733 H1725 0.950 . S
C1733 C1731 1.327 . S
C1734 C1722 1.349 . S
C1734 H1728 0.950 . S
C1734 C1735 1.327 . S
C1735 H1729 0.950 . S
C1735 C1734 1.327 . S
C1735 C1739 1.429 . S
C1736 C1719 1.574 . S
C1736 H1730 0.949 . S
C1736 C1740 1.368 . S
C1737 C1718 1.429 . S
C1737 C1731 1.429 . S
C1737 C1738 1.523 . S
C1738 C1719 1.368 . S
C1738 C1732 1.368 . S
C1738 C1737 1.523 . S
C1739 C1723 1.429 . S
C1739 C1735 1.429 . S
C1739 C1740 1.523 . S
C1740 C1724 1.368 . S
C1740 C1736 1.368 . S
C1740 C1739 1.523 . S
H1741 C1716 0.950 . S
H1742 C1718 0.950 . S
H1743 C1719 0.949 . S
H1744 C1721 0.950 . S
H1745 C1723 0.950 . S
C1746 C1747 1.349 . S
C1746 C1748 1.327 . S
C1746 H1771 0.950 . S
C1747 C1746 1.349 . S
C1747 C1763 1.349 . S
C1748 C1746 1.327 . S
C1748 C1767 1.429 . S
C1748 H1772 0.950 . S
C1749 C1766 1.574 . S
C1749 C1768 1.368 . S
C1749 H1773 0.949 . S
H1750 C1754 0.949 . S
C1751 C1752 1.349 . S
C1751 C1753 1.327 1_554 S
C1751 H1774 0.950 . S
C1752 C1751 1.349 . S
C1752 C1764 1.349 . S
C1753 C1751 1.327 1_556 S
C1753 C1769 1.429 . S
C1753 H1775 0.950 . S
C1754 H1750 0.949 . S
C1754 C1762 1.574 . S
C1754 C1770 1.368 . S
H1755 C1763 0.950 1_545 S
H1756 C1761 0.950 1_545 S
H1757 C1762 0.949 . S
H1758 C1764 0.950 . S
H1759 C1765 0.950 . S
H1760 C1766 0.949 . S
C1761 H1756 0.950 1_565 S
C1761 C1763 1.327 . S
C1761 C1767 1.429 . S
C1762 C1754 1.574 . S
C1762 H1757 0.949 . S
C1762 C1768 1.368 . S
C1763 C1747 1.349 . S
C1763 H1755 0.950 1_565 S
C1763 C1761 1.327 . S
C1764 C1752 1.349 . S
C1764 H1758 0.950 . S
C1764 C1765 1.327 1_554 S
C1765 H1759 0.950 . S
C1765 C1764 1.327 1_556 S
C1765 C1769 1.429 . S
C1766 C1749 1.574 . S
C1766 H1760 0.949 . S
C1766 C1770 1.368 . S
C1767 C1748 1.429 . S
C1767 C1761 1.429 . S
C1767 C1768 1.523 . S
C1768 C1749 1.368 . S
C1768 C1762 1.368 . S
C1768 C1767 1.523 . S
C1769 C1753 1.429 . S
C1769 C1765 1.429 . S
C1769 C1770 1.523 . S
C1770 C1754 1.368 . S
C1770 C1766 1.368 . S
C1770 C1769 1.523 . S
H1771 C1746 0.950 . S
H1772 C1748 0.950 . S
H1773 C1749 0.949 . S
H1774 C1751 0.950 . S
H1775 C1753 0.950 . S
C1776 C1777 1.349 . S
C1776 C1778 1.327 1_554 S
C1776 H1801 0.950 . S
C1777 C1776 1.349 . S
C1777 C1793 1.349 . S
C1778 C1776 1.327 1_556 S
C1778 C1797 1.429 . S
C1778 H1802 0.950 . S
C1779 C1796 1.574 . S
C1779 C1798 1.368 . S
C1779 H1803 0.949 . S
H1780 C1784 0.949 . S
C1781 C1782 1.349 . S
C1781 C1783 1.327 . S
C1781 H1804 0.950 . S
C1782 C1781 1.349 . S
C1782 C1794 1.349 . S
C1783 C1781 1.327 . S
C1783 C1799 1.429 . S
C1783 H1805 0.950 . S
C1784 H1780 0.949 . S
C1784 C1792 1.574 . S
C1784 C1800 1.368 . S
H1785 C1793 0.950 . S
H1786 C1791 0.950 . S
H1787 C1792 0.949 . S
H1788 C1794 0.950 . S
H1789 C1795 0.950 . S
H1790 C1796 0.949 . S
C1791 H1786 0.950 . S
C1791 C1793 1.327 1_556 S
C1791 C1797 1.429 . S
C1792 C1784 1.574 . S
C1792 H1787 0.949 . S
C1792 C1798 1.368 . S
C1793 C1777 1.349 . S
C1793 H1785 0.950 . S
C1793 C1791 1.327 1_554 S
C1794 C1782 1.349 . S
C1794 H1788 0.950 . S
C1794 C1795 1.327 . S
C1795 H1789 0.950 . S
C1795 C1794 1.327 . S
C1795 C1799 1.429 . S
C1796 C1779 1.574 . S
C1796 H1790 0.949 . S
C1796 C1800 1.368 . S
C1797 C1778 1.429 . S
C1797 C1791 1.429 . S
C1797 C1798 1.523 . S
C1798 C1779 1.368 . S
C1798 C1792 1.368 . S
C1798 C1797 1.523 . S
C1799 C1783 1.429 . S
C1799 C1795 1.429 . S
C1799 C1800 1.523 . S
C1800 C1784 1.368 . S
C1800 C1796 1.368 . S
C1800 C1799 1.523 . S
H1801 C1776 0.950 . S
H1802 C1778 0.950 . S
H1803 C1779 0.949 . S
H1804 C1781 0.950 . S
H1805 C1783 0.950 . S
C1806 C1807 1.349 . S
C1806 C1808 1.327 . S
C1806 H1831 0.950 . S
C1807 C1806 1.349 . S
C1807 C1823 1.349 . S
C1808 C1806 1.327 . S
C1808 C1827 1.429 . S
C1808 H1832 0.950 . S
C1809 C1826 1.574 . S
C1809 C1828 1.368 . S
C1809 H1833 0.949 . S
H1810 C1814 0.949 . S
C1811 C1812 1.332 1_556 S
C1811 C1813 1.351 . S
C1811 H1834 0.943 1_556 S
C1812 C1811 1.332 1_554 S
C1812 C1824 1.349 . S
C1813 C1811 1.351 . S
C1813 C1829 1.429 . S
C1813 H1835 0.950 . S
C1814 H1810 0.949 . S
C1814 C1822 1.574 . S
C1814 C1830 1.368 . S
H1815 C1823 0.950 . S
H1816 C1821 0.950 . S
H1817 C1822 0.949 . S
H1818 C1824 0.950 . S
H1819 C1825 0.950 . S
H1820 C1826 0.949 . S
C1821 H1816 0.950 . S
C1821 C1823 1.327 . S
C1821 C1827 1.429 . S
C1822 C1814 1.574 . S
C1822 H1817 0.949 . S
C1822 C1828 1.368 . S
C1823 C1807 1.349 . S
C1823 H1815 0.950 . S
C1823 C1821 1.327 . S
C1824 C1812 1.349 . S
C1824 H1818 0.950 . S
C1824 C1825 1.327 1_554 S
C1825 H1819 0.950 . S
C1825 C1824 1.327 1_556 S
C1825 C1829 1.429 . S
C1826 C1809 1.574 . S
C1826 H1820 0.949 . S
C1826 C1830 1.368 . S
C1827 C1808 1.429 . S
C1827 C1821 1.429 . S
C1827 C1828 1.523 . S
C1828 C1809 1.368 . S
C1828 C1822 1.368 . S
C1828 C1827 1.523 . S
C1829 C1813 1.429 . S
C1829 C1825 1.429 . S
C1829 C1830 1.523 . S
C1830 C1814 1.368 . S
C1830 C1826 1.368 . S
C1830 C1829 1.523 . S
H1831 C1806 0.950 . S
H1832 C1808 0.950 . S
H1833 C1809 0.949 . S
H1834 C1811 0.943 1_554 S
H1835 C1813 0.950 . S
C1836 C1837 1.349 . S
C1836 C1838 1.327 1_565 S
C1836 H1861 0.950 1_565 S
C1837 C1836 1.349 . S
C1837 C1853 1.349 . S
C1838 C1836 1.327 1_545 S
C1838 C1857 1.429 1_545 S
C1838 H1862 0.950 . S
C1839 C1856 1.574 1_565 S
C1839 C1858 1.368 1_565 S
C1839 H1863 0.949 . S
H1840 C1844 0.949 . S
C1841 C1842 1.349 . S
C1841 C1843 1.327 . S
C1841 H1864 0.950 . S
C1842 C1841 1.349 . S
C1842 C1854 1.349 . S
C1843 C1841 1.327 . S
C1843 C1859 1.429 . S
C1843 H1865 0.950 . S
C1844 H1840 0.949 . S
C1844 C1852 1.574 . S
C1844 C1860 1.368 . S
H1845 C1853 0.950 . S
H1846 C1851 0.950 . S
H1847 C1852 0.949 . S
H1848 C1854 0.950 . S
H1849 C1855 0.950 . S
H1850 C1856 0.949 1_565 S
C1851 H1846 0.950 . S
C1851 C1853 1.327 . S
C1851 C1857 1.429 . S
C1852 C1844 1.574 . S
C1852 H1847 0.949 . S
C1852 C1858 1.368 . S
C1853 C1837 1.349 . S
C1853 H1845 0.950 . S
C1853 C1851 1.327 . S
C1854 C1842 1.349 . S
C1854 H1848 0.950 . S
C1854 C1855 1.327 . S
C1855 H1849 0.950 . S
C1855 C1854 1.327 . S
C1855 C1859 1.429 . S
C1856 C1839 1.574 1_545 S
C1856 H1850 0.949 1_545 S
C1856 C1860 1.368 . S
C1857 C1838 1.429 1_565 S
C1857 C1851 1.429 . S
C1857 C1858 1.523 1_565 S
C1858 C1839 1.368 1_545 S
C1858 C1852 1.368 . S
C1858 C1857 1.523 1_545 S
C1859 C1843 1.429 . S
C1859 C1855 1.429 . S
C1859 C1860 1.523 . S
C1860 C1844 1.368 . S
C1860 C1856 1.368 . S
C1860 C1859 1.523 . S
H1861 C1836 0.950 1_545 S
H1862 C1838 0.950 . S
H1863 C1839 0.949 . S
H1864 C1841 0.950 . S
H1865 C1843 0.950 . S
C1866 C1867 1.349 . S
C1866 C1868 1.327 . S
C1866 H1891 0.950 . S
C1867 C1866 1.349 . S
C1867 C1883 1.349 . S
C1868 C1866 1.327 . S
C1868 C1887 1.429 . S
C1868 H1892 0.950 . S
C1869 C1886 1.574 . S
C1869 C1888 1.368 . S
C1869 H1893 0.949 . S
H1870 C1874 0.949 . S
C1871 C1872 1.349 . S
C1871 C1873 1.327 . S
C1871 H1894 0.950 . S
C1872 C1871 1.349 . S
C1872 C1884 1.349 . S
C1873 C1871 1.327 . S
C1873 C1889 1.429 . S
C1873 H1895 0.950 . S
C1874 H1870 0.949 . S
C1874 C1882 1.574 . S
C1874 C1890 1.368 . S
H1875 C1883 0.950 . S
H1876 C1881 0.950 . S
H1877 C1882 0.949 . S
H1878 C1884 0.950 . S
H1879 C1885 0.950 . S
H1880 C1886 0.953 . S
C1881 H1876 0.950 . S
C1881 C1883 1.327 . S
C1881 C1887 1.429 . S
C1882 C1874 1.574 . S
C1882 H1877 0.949 . S
C1882 C1888 1.368 . S
C1883 C1867 1.349 . S
C1883 H1875 0.950 . S
C1883 C1881 1.327 . S
C1884 C1872 1.349 . S
C1884 H1878 0.950 . S
C1884 C1885 1.327 . S
C1885 H1879 0.950 . S
C1885 C1884 1.327 . S
C1885 C1889 1.429 . S
C1886 C1869 1.574 . S
C1886 H1880 0.953 . S
C1886 C1890 1.368 . S
C1887 C1868 1.429 . S
C1887 C1881 1.429 . S
C1887 C1888 1.523 . S
C1888 C1869 1.368 . S
C1888 C1882 1.368 . S
C1888 C1887 1.523 . S
C1889 C1873 1.429 . S
C1889 C1885 1.429 . S
C1889 C1890 1.523 1_655 S
C1890 C1874 1.368 . S
C1890 C1886 1.368 . S
C1890 C1889 1.523 1_455 S
H1891 C1866 0.950 . S
H1892 C1868 0.950 . S
H1893 C1869 0.949 . S
H1894 C1871 0.950 . S
H1895 C1873 0.950 . S
C1896 C1897 1.349 . S
C1896 C1898 1.327 . S
C1896 H1921 0.950 . S
C1897 C1896 1.349 . S
C1897 C1913 1.349 . S
C1898 C1896 1.327 . S
C1898 C1917 1.429 . S
C1898 H1922 0.950 . S
C1899 C1916 1.574 . S
C1899 C1918 1.368 . S
C1899 H1923 0.949 . S
H1900 C1904 0.949 . S
C1901 C1902 1.349 . S
C1901 C1903 1.327 . S
C1901 H1924 0.950 . S
C1902 C1901 1.349 . S
C1902 C1914 1.349 . S
C1903 C1901 1.327 . S
C1903 C1919 1.429 . S
C1903 H1925 0.950 . S
C1904 H1900 0.949 . S
C1904 C1912 1.574 . S
C1904 C1920 1.368 . S
H1905 C1913 0.950 . S
H1906 C1911 0.950 . S
H1907 C1912 0.949 . S
H1908 C1914 0.950 . S
H1909 C1915 0.950 . S
H1910 C1916 0.949 . S
C1911 H1906 0.950 . S
C1911 C1913 1.327 . S
C1911 C1917 1.429 . S
C1912 C1904 1.574 . S
C1912 H1907 0.949 . S
C1912 C1918 1.368 . S
C1913 C1897 1.349 . S
C1913 H1905 0.950 . S
C1913 C1911 1.327 . S
C1914 C1902 1.349 . S
C1914 H1908 0.950 . S
C1914 C1915 1.327 . S
C1915 H1909 0.950 . S
C1915 C1914 1.327 . S
C1915 C1919 1.429 . S
C1916 C1899 1.574 . S
C1916 H1910 0.949 . S
C1916 C1920 1.368 . S
C1917 C1898 1.429 . S
C1917 C1911 1.429 . S
C1917 C1918 1.523 . S
C1918 C1899 1.368 . S
C1918 C1912 1.368 . S
C1918 C1917 1.523 . S
C1919 C1903 1.429 . S
C1919 C1915 1.429 . S
C1919 C1920 1.523 . S
C1920 C1904 1.368 . S
C1920 C1916 1.368 . S
C1920 C1919 1.523 . S
H1921 C1896 0.950 . S
H1922 C1898 0.950 . S
H1923 C1899 0.949 . S
H1924 C1901 0.950 . S
H1925 C1903 0.950 . S
C1926 C1927 1.349 . S
C1926 C1928 1.327 . S
C1926 H1951 0.950 . S
C1927 C1926 1.349 . S
C1927 C1943 1.349 . S
C1928 C1926 1.327 . S
C1928 C1947 1.429 . S
C1928 H1952 0.950 . S
C1929 C1946 1.574 . S
C1929 C1948 1.368 . S
C1929 H1953 0.949 . S
H1930 C1934 0.949 . S
C1931 C1932 1.349 . S
C1931 C1933 1.327 . S
C1931 H1954 0.950 . S
C1932 C1931 1.349 . S
C1932 C1944 1.349 . S
C1933 C1931 1.327 . S
C1933 C1949 1.429 . S
C1933 H1955 0.950 . S
C1934 H1930 0.949 . S
C1934 C1942 1.574 . S
C1934 C1950 1.368 . S
H1935 C1943 0.950 . S
H1936 C1941 0.950 . S
H1937 C1942 0.949 . S
H1938 C1944 0.950 . S
H1939 C1945 0.950 . S
H1940 C1946 0.957 . S
C1941 H1936 0.950 . S
C1941 C1943 1.327 . S
C1941 C1947 1.429 . S
C1942 C1934 1.574 . S
C1942 H1937 0.949 . S
C1942 C1948 1.368 . S
C1943 C1927 1.349 . S
C1943 H1935 0.950 . S
C1943 C1941 1.327 . S
C1944 C1932 1.349 . S
C1944 H1938 0.950 . S
C1944 C1945 1.327 . S
C1945 H1939 0.950 . S
C1945 C1944 1.327 . S
C1945 C1949 1.429 . S
C1946 C1929 1.574 . S
C1946 H1940 0.957 . S
C1946 C1950 1.368 . S
C1947 C1928 1.429 . S
C1947 C1941 1.429 . S
C1947 C1948 1.523 . S
C1948 C1929 1.368 . S
C1948 C1942 1.368 . S
C1948 C1947 1.523 . S
C1949 C1933 1.429 . S
C1949 C1945 1.429 . S
C1949 C1950 1.523 1_655 S
C1950 C1934 1.368 . S
C1950 C1946 1.368 . S
C1950 C1949 1.523 1_455 S
H1951 C1926 0.950 . S
H1952 C1928 0.950 . S
H1953 C1929 0.949 . S
H1954 C1931 0.950 . S
H1955 C1933 0.950 . S
C1956 C1957 1.349 . S
C1956 C1958 1.327 . S
C1956 H1981 0.950 . S
C1957 C1956 1.349 . S
C1957 C1973 1.349 . S
C1958 C1956 1.327 . S
C1958 C1977 1.429 . S
C1958 H1982 0.950 . S
C1959 C1976 1.574 . S
C1959 C1978 1.368 . S
C1959 H1983 0.949 . S
H1960 C1964 0.949 . S
C1961 C1962 1.349 . S
C1961 C1963 1.327 . S
C1961 H1984 0.950 . S
C1962 C1961 1.349 . S
C1962 C1974 1.349 . S
C1963 C1961 1.327 . S
C1963 C1979 1.429 . S
C1963 H1985 0.950 . S
C1964 H1960 0.949 . S
C1964 C1972 1.574 . S
C1964 C1980 1.368 . S
H1965 C1973 0.950 . S
H1966 C1971 0.950 . S
H1967 C1972 0.949 . S
H1968 C1974 0.950 . S
H1969 C1975 0.950 . S
H1970 C1976 0.949 . S
C1971 H1966 0.950 . S
C1971 C1973 1.327 . S
C1971 C1977 1.429 . S
C1972 C1964 1.574 . S
C1972 H1967 0.949 . S
C1972 C1978 1.368 . S
C1973 C1957 1.349 . S
C1973 H1965 0.950 . S
C1973 C1971 1.327 . S
C1974 C1962 1.349 . S
C1974 H1968 0.950 . S
C1974 C1975 1.327 . S
C1975 H1969 0.950 . S
C1975 C1974 1.327 . S
C1975 C1979 1.429 . S
C1976 C1959 1.574 . S
C1976 H1970 0.949 . S
C1976 C1980 1.368 . S
C1977 C1958 1.429 . S
C1977 C1971 1.429 . S
C1977 C1978 1.523 . S
C1978 C1959 1.368 . S
C1978 C1972 1.368 . S
C1978 C1977 1.523 . S
C1979 C1963 1.429 . S
C1979 C1975 1.429 . S
C1979 C1980 1.523 . S
C1980 C1964 1.368 . S
C1980 C1976 1.368 . S
C1980 C1979 1.523 . S
H1981 C1956 0.950 . S
H1982 C1958 0.950 . S
H1983 C1959 0.949 . S
H1984 C1961 0.950 . S
H1985 C1963 0.950 . S
C1986 C1987 1.349 . S
C1986 C1988 1.327 . S
C1986 H2011 0.950 . S
C1987 C1986 1.349 . S
C1987 C2003 1.349 . S
C1988 C1986 1.327 . S
C1988 C2007 1.429 . S
C1988 H2012 0.950 . S
C1989 C2006 1.574 . S
C1989 C2008 1.368 1_565 S
C1989 H2013 0.949 . S
H1990 C1994 0.949 . S
C1991 C1992 1.349 . S
C1991 C1993 1.327 . S
C1991 H2014 0.950 . S
C1992 C1991 1.349 . S
C1992 C2004 1.310 1_565 S
C1993 C1991 1.327 . S
C1993 C2009 1.429 . S
C1993 H2015 0.950 . S
C1994 H1990 0.949 . S
C1994 C2002 1.574 . S
C1994 C2010 1.368 . S
H1995 C2003 0.950 . S
H1996 C2001 0.950 1_565 S
H1997 C2002 0.949 . S
H1998 C2004 0.978 . S
H1999 C2005 0.950 . S
H2000 C2006 0.949 . S
C2001 H1996 0.950 1_545 S
C2001 C2003 1.327 . S
C2001 C2007 1.429 . S
C2002 C1994 1.574 . S
C2002 H1997 0.949 . S
C2002 C2008 1.368 . S
C2003 C1987 1.349 . S
C2003 H1995 0.950 . S
C2003 C2001 1.327 . S
C2004 C1992 1.310 1_545 S
C2004 H1998 0.978 . S
C2004 C2005 1.340 . S
C2005 H1999 0.950 . S
C2005 C2004 1.340 . S
C2005 C2009 1.429 1_545 S
C2006 C1989 1.574 . S
C2006 H2000 0.949 . S
C2006 C2010 1.368 1_565 S
C2007 C1988 1.429 . S
C2007 C2001 1.429 . S
C2007 C2008 1.523 . S
C2008 C1989 1.368 1_545 S
C2008 C2002 1.368 . S
C2008 C2007 1.523 . S
C2009 C1993 1.429 . S
C2009 C2005 1.429 1_565 S
C2009 C2010 1.523 1_565 S
C2010 C1994 1.368 . S
C2010 C2006 1.368 1_545 S
C2010 C2009 1.523 1_545 S
H2011 C1986 0.950 . S
H2012 C1988 0.950 . S
H2013 C1989 0.949 . S
H2014 C1991 0.950 . S
H2015 C1993 0.950 . S
C397 C249 1.208 . S
C402 C8 1.230 . S
C427 C29 1.233 . S
C432 C213 1.224 . S
C457 C62 1.187 . S
C462 C241 1.167 . S
C487 C337 1.199 . S
C492 C51 1.209 . S
C517 C21 1.191 . S
C522 C370 1.182 . S
C547 C40 1.191 . S
C552 C381 1.170 . S
C577 C316 1.134 . S
C582 C84 1.153 . S
C607 C103 1.172 . S
C612 C282 1.163 . S
C637 C118 1.172 . S
C642 C307 1.152 . S
C667 C147 1.201 . S
C672 C131 1.210 . S
C697 C73 1.253 . S
C702 C175 1.243 . S
C727 C191 1.185 . S
C732 C98 1.206 . S
C757 C382 1.172 . S
C762 C140 1.191 . S
C787 C338 1.126 . S
C792 C172 1.145 . S
C817 C367 1.159 . S
C822 C184 1.179 . S
C847 C87 1.201 . S
C852 C197 1.210 . S
C877 C96 1.213 . S
C882 C153 1.223 . S
C907 C161 1.256 . S
C912 C125 1.248 . S
C937 C54 1.229 . S
C942 C219 1.237 . S
C967 C18 1.183 . S
C972 C227 1.191 . S
C997 C257 1.224 . S
C1002 C43 1.215 . S
C1027 C252 1.165 . S
C1032 C279 1.145 . S
C1057 C206 1.176 . S
C1062 C296 1.156 . S
C1087 C238 1.212 . S
C1092 C315 1.191 . S
C1117 C272 1.192 . S
C1122 C128 1.173 . S
C1147 C293 1.211 . S
C1152 C76 1.202 . S
C1177 C318 1.212 . S
C1182 C95 1.191 . S
C1207 C323 1.172 . S
C1212 C216 1.164 . S
C1237 C285 1.216 . S
C1242 C230 1.207 1_545 S
C1267 C304 1.167 . S
C1272 C250 1.148 . S
C1297 C340 1.192 . S
C1302 C194 1.172 . S
C1327 C373 1.195 . S
C1332 C150 1.187 1_545 S
C1357 C164 1.129 . S
C1362 C384 1.147 . S
C1387 C15 1.239 . S
C1392 C389 1.248 . S
C1417 C32 1.221 . S
C1422 C345 1.229 . S
C1447 C360 1.231 . S
C1452 C65 1.210 . S
C1477 C162 0.984 . S
C1482 C7 0.987 . S
C1507 C186 0.957 . S
C1512 C30 0.957 . S
C1537 C142 0.988 . S
C1542 C59 0.991 . S
C1567 C294 0.960 . S
C1572 C52 0.960 . S
C1597 C10 1.001 . S
C1602 C329 1.004 . S
C1627 C37 1.045 . S
C1632 C271 1.045 . S
C1657 C81 1.045 . S
C1662 C359 1.045 . S
C1687 C106 0.960 . S
C1692 C392 0.960 . S
C1717 C117 1.004 . S
C1722 C348 1.001 . S
C1747 C120 0.959 . S
C1752 C228 0.959 . S
C1777 C260 0.954 . S
C1782 C74 0.954 . S
C1807 C109 0.988 . S
C1812 C208 0.985 . S
C1837 C139 1.048 . S
C1842 C301 1.048 . S
C1867 C169 1.022 . S
C1872 C326 1.019 . S
C1897 C183 1.018 . S
C1902 C274 1.015 . S
C1927 C263 1.021 . S
C1932 C362 1.018 . S
C1957 C395 1.051 . S
C1962 C205 1.051 . S
C1987 C351 1.048 . S
C1992 C235 1.048 . S
