# Generated by pormake.
# Topology zfx, (5)-cn, num edge types: 1
# Building blocks:
#     Node 0, Type 0, BuildingBlock: XOMCOT_clean_sbu_1, # of connection points: 5
#     Node 1, Type 0, BuildingBlock: XOMCOT_clean_sbu_1, # of connection points: 5
#     Node 2, Type 0, BuildingBlock: XOMCOT_clean_sbu_1, # of connection points: 5
#     Node 3, Type 0, BuildingBlock: XOMCOT_clean_sbu_1, # of connection points: 5
#     Node 4, Type 0, BuildingBlock: XOMCOT_clean_sbu_1, # of connection points: 5
#     Node 5, Type 0, BuildingBlock: XOMCOT_clean_sbu_1, # of connection points: 5
#     Node 6, Type 0, BuildingBlock: XOMCOT_clean_sbu_1, # of connection points: 5
#     Node 7, Type 0, BuildingBlock: XOMCOT_clean_sbu_1, # of connection points: 5
#     Node 8, Type 0, BuildingBlock: XOMCOT_clean_sbu_1, # of connection points: 5
#     Node 9, Type 0, BuildingBlock: XOMCOT_clean_sbu_1, # of connection points: 5
#     Node 10, Type 0, BuildingBlock: XOMCOT_clean_sbu_1, # of connection points: 5
#     Node 11, Type 0, BuildingBlock: XOMCOT_clean_sbu_1, # of connection points: 5
#     Node 12, Type 0, BuildingBlock: XOMCOT_clean_sbu_1, # of connection points: 5
#     Node 13, Type 0, BuildingBlock: XOMCOT_clean_sbu_1, # of connection points: 5
#     Node 14, Type 0, BuildingBlock: XOMCOT_clean_sbu_1, # of connection points: 5
#     Node 15, Type 0, BuildingBlock: XOMCOT_clean_sbu_1, # of connection points: 5
#     Edge 16, Type (0, 0), BuildingBlock: XUDNAN_clean_linker_2, # of connection points: 2
#     Edge 17, Type (0, 0), BuildingBlock: XUDNAN_clean_linker_2, # of connection points: 2
#     Edge 18, Type (0, 0), BuildingBlock: XUDNAN_clean_linker_2, # of connection points: 2
#     Edge 19, Type (0, 0), BuildingBlock: XUDNAN_clean_linker_2, # of connection points: 2
#     Edge 20, Type (0, 0), BuildingBlock: XUDNAN_clean_linker_2, # of connection points: 2
#     Edge 21, Type (0, 0), BuildingBlock: XUDNAN_clean_linker_2, # of connection points: 2
#     Edge 22, Type (0, 0), BuildingBlock: XUDNAN_clean_linker_2, # of connection points: 2
#     Edge 23, Type (0, 0), BuildingBlock: XUDNAN_clean_linker_2, # of connection points: 2
#     Edge 24, Type (0, 0), BuildingBlock: XUDNAN_clean_linker_2, # of connection points: 2
#     Edge 25, Type (0, 0), BuildingBlock: XUDNAN_clean_linker_2, # of connection points: 2
#     Edge 26, Type (0, 0), BuildingBlock: XUDNAN_clean_linker_2, # of connection points: 2
#     Edge 27, Type (0, 0), BuildingBlock: XUDNAN_clean_linker_2, # of connection points: 2
#     Edge 28, Type (0, 0), BuildingBlock: XUDNAN_clean_linker_2, # of connection points: 2
#     Edge 29, Type (0, 0), BuildingBlock: XUDNAN_clean_linker_2, # of connection points: 2
#     Edge 30, Type (0, 0), BuildingBlock: XUDNAN_clean_linker_2, # of connection points: 2
#     Edge 31, Type (0, 0), BuildingBlock: XUDNAN_clean_linker_2, # of connection points: 2
#     Edge 32, Type (0, 0), BuildingBlock: XUDNAN_clean_linker_2, # of connection points: 2
#     Edge 33, Type (0, 0), BuildingBlock: XUDNAN_clean_linker_2, # of connection points: 2
#     Edge 34, Type (0, 0), BuildingBlock: XUDNAN_clean_linker_2, # of connection points: 2
#     Edge 35, Type (0, 0), BuildingBlock: XUDNAN_clean_linker_2, # of connection points: 2
#     Edge 36, Type (0, 0), BuildingBlock: XUDNAN_clean_linker_2, # of connection points: 2
#     Edge 37, Type (0, 0), BuildingBlock: XUDNAN_clean_linker_2, # of connection points: 2
#     Edge 38, Type (0, 0), BuildingBlock: XUDNAN_clean_linker_2, # of connection points: 2
#     Edge 39, Type (0, 0), BuildingBlock: XUDNAN_clean_linker_2, # of connection points: 2
#     Edge 40, Type (0, 0), BuildingBlock: XUDNAN_clean_linker_2, # of connection points: 2
#     Edge 41, Type (0, 0), BuildingBlock: XUDNAN_clean_linker_2, # of connection points: 2
#     Edge 42, Type (0, 0), BuildingBlock: XUDNAN_clean_linker_2, # of connection points: 2
#     Edge 43, Type (0, 0), BuildingBlock: XUDNAN_clean_linker_2, # of connection points: 2
#     Edge 44, Type (0, 0), BuildingBlock: XUDNAN_clean_linker_2, # of connection points: 2
#     Edge 45, Type (0, 0), BuildingBlock: XUDNAN_clean_linker_2, # of connection points: 2
#     Edge 46, Type (0, 0), BuildingBlock: XUDNAN_clean_linker_2, # of connection points: 2
#     Edge 47, Type (0, 0), BuildingBlock: XUDNAN_clean_linker_2, # of connection points: 2
#     Edge 48, Type (0, 0), BuildingBlock: XUDNAN_clean_linker_2, # of connection points: 2
#     Edge 49, Type (0, 0), BuildingBlock: XUDNAN_clean_linker_2, # of connection points: 2
#     Edge 50, Type (0, 0), BuildingBlock: XUDNAN_clean_linker_2, # of connection points: 2
#     Edge 51, Type (0, 0), BuildingBlock: XUDNAN_clean_linker_2, # of connection points: 2
#     Edge 52, Type (0, 0), BuildingBlock: XUDNAN_clean_linker_2, # of connection points: 2
#     Edge 53, Type (0, 0), BuildingBlock: XUDNAN_clean_linker_2, # of connection points: 2
#     Edge 54, Type (0, 0), BuildingBlock: XUDNAN_clean_linker_2, # of connection points: 2
#     Edge 55, Type (0, 0), BuildingBlock: XUDNAN_clean_linker_2, # of connection points: 2
# Relax obj value: 0.341
# Max RMSD: 0.202
# Mean RMSD: 0.202
data_MOF--net-zfx--node1-XOMCOT_clean_sbu_1--edge1-XUDNAN_clean_linker_2
_symmetry_space_group_name_H-M    P1
_symmetry_Int_Tables_number       1
_symmetry_cell_setting            triclinic
loop_
_symmetry_equiv_pos_as_xyz
'x, y, z'
_cell_length_a     63.34315
_cell_length_b     63.367301
_cell_length_c     23.910612
_cell_angle_alpha  90.002937
_cell_angle_beta   89.980541
_cell_angle_gamma 89.999044
loop_
_atom_site_label
_atom_site_type_symbol
_atom_site_fract_x
_atom_site_fract_y
_atom_site_fract_z
_atom_type_partial_charge
C0 C 0.55813 0.13535 0.40214 0.0
C1 C 0.57416 0.13746 0.44039 0.0
N2 N 0.5685 0.15229 0.47801 0.0
N3 N 0.54239 0.1487 0.41557 0.0
C4 C 0.54928 0.1591 0.46121 0.0
H5 H 0.55737 0.12385 0.36877 0.0
Co6 Co 0.51594 0.14828 0.38252 0.0
C7 C 0.49122 0.15801 0.48976 0.0
O8 O 0.48442 0.13849 0.49285 0.0
N9 N 0.48961 0.14774 0.34736 0.0
C10 C 0.45612 0.14297 0.32228 0.0
C11 C 0.46976 0.14474 0.36665 0.0
C12 C 0.48752 0.14797 0.29126 0.0
N13 N 0.46742 0.14494 0.27508 0.0
O14 O 0.52197 0.17521 0.34501 0.0
H15 H 0.46512 0.14331 0.40959 0.0
H16 H 0.50064 0.14944 0.26257 0.0
O17 O 0.50327 0.16354 0.44895 0.0
C18 C 0.5345 0.17289 0.30333 0.0
O19 O 0.54214 0.15398 0.2934 0.0
N20 N 0.51145 0.12059 0.41251 0.0
C21 C 0.50747 0.07778 0.44135 0.0
C22 C 0.51518 0.09253 0.48017 0.0
C23 C 0.51744 0.1138 0.46458 0.0
C24 C 0.50544 0.10607 0.37346 0.0
C25 C 0.50298 0.08484 0.38713 0.0
H26 H 0.52373 0.12485 0.49471 0.0
H27 H 0.50299 0.11072 0.33055 0.0
H28 H 0.53995 0.17074 0.48305 0.0
H29 H 0.58821 0.1278 0.44218 0.0
H30 H 0.43922 0.14058 0.3245 0.0
H31 H 0.51929 0.08776 0.52227 0.0
H32 H 0.49807 0.07394 0.35476 0.0
C33 C 0.13055 0.29737 0.63973 0.0
C34 C 0.12996 0.31438 0.67516 0.0
N35 N 0.1152 0.31065 0.71452 0.0
N36 N 0.11625 0.28299 0.65668 0.0
C37 C 0.10681 0.29166 0.70154 0.0
H38 H 0.14176 0.29491 0.60624 0.0
Co39 Co 0.11533 0.25602 0.62809 0.0
C40 C 0.1014 0.22998 0.72596 0.0
O41 O 0.11801 0.21811 0.71609 0.0
N42 N 0.11473 0.22939 0.59526 0.0
C43 C 0.10483 0.19867 0.5588 0.0
C44 C 0.10211 0.21241 0.60267 0.0
C45 C 0.12414 0.22592 0.54555 0.0
N46 N 0.11864 0.20734 0.52271 0.0
O47 O 0.09031 0.26349 0.58436 0.0
H48 H 0.09003 0.21088 0.63424 0.0
H49 H 0.13347 0.23769 0.52412 0.0
O50 O 0.0977 0.24577 0.69346 0.0
C51 C 0.09586 0.27298 0.53939 0.0
O52 O 0.11614 0.27584 0.53063 0.0
N53 N 0.14128 0.25021 0.6665 0.0
C54 C 0.18202 0.2523 0.7125 0.0
C55 C 0.16415 0.25615 0.74559 0.0
C56 C 0.144 0.25516 0.72183 0.0
C57 C 0.15861 0.24601 0.63427 0.0
C58 C 0.179 0.24656 0.65658 0.0
H59 H 0.13071 0.2597 0.7474 0.0
H60 H 0.1571 0.24389 0.58994 0.0
H61 H 0.09498 0.28362 0.72614 0.0
H62 H 0.14074 0.32763 0.67448 0.0
H63 H 0.09565 0.18455 0.55116 0.0
H64 H 0.16577 0.26082 0.78896 0.0
H65 H 0.19236 0.24409 0.62907 0.0
C66 C 0.96913 0.86622 0.85013 0.0
C67 C 0.95045 0.8629 0.8781 0.0
N68 N 0.95521 0.85724 0.93074 0.0
N69 N 0.98544 0.86233 0.88498 0.0
C70 C 0.97643 0.85677 0.9337 0.0
H71 H 0.97063 0.87208 0.80789 0.0
Co72 Co 0.01341 0.86757 0.86928 0.0
C73 C 0.0384 0.8527 0.96857 0.0
O74 O 0.0492 0.87028 0.96449 0.0
N75 N 0.04203 0.87358 0.85094 0.0
C76 C 0.07303 0.88949 0.83652 0.0
C77 C 0.05387 0.89085 0.86289 0.0
C78 C 0.05472 0.86194 0.81764 0.0
N79 N 0.07344 0.87134 0.80763 0.0
O80 O 0.01308 0.84299 0.81943 0.0
H81 H 0.04921 0.90387 0.8892 0.0
H82 H 0.04998 0.84732 0.79821 0.0
O83 O 0.02305 0.84945 0.93435 0.0
C84 C 0.00788 0.84831 0.76962 0.0
O85 O 0.00654 0.86854 0.75809 0.0
N86 N 0.01137 0.89254 0.91217 0.0
C87 C 1.00424 0.93248 0.95837 0.0
C88 C 1.00569 0.91454 0.99272 0.0
C89 C 0.00911 0.89463 0.96876 0.0
C90 C 0.00883 0.90966 0.87822 0.0
C91 C 1.00582 0.92981 0.9004 0.0
H92 H 0.00934 0.88101 0.99576 0.0
H93 H 0.00947 0.90761 0.83333 0.0
H94 H 0.98518 0.85314 0.97133 0.0
H95 H 0.93468 0.86554 0.8621 0.0
H96 H 0.08539 0.90127 0.83722 0.0
H97 H 1.00406 0.91587 0.03768 0.0
H98 H 1.00415 0.94312 0.8723 0.0
C99 C 0.41513 0.70102 0.12259 0.0
C100 C 0.41513 0.68364 0.1573 0.0
N101 N 0.4111 0.69045 0.20945 0.0
N102 N 0.41157 0.71851 0.15345 0.0
C103 C 0.40939 0.71153 0.20619 0.0
H104 H 0.4167 0.70075 0.07759 0.0
Co105 Co 0.406 0.74546 0.1288 0.0
C106 C 0.42066 0.77525 0.22008 0.0
O107 O 0.40599 0.78867 0.20464 0.0
N108 N 0.39968 0.77276 0.10218 0.0
C109 C 0.38249 0.80138 0.07269 0.0
C110 C 0.38085 0.78296 0.10232 0.0
C111 C 0.41249 0.78564 0.07274 0.0
N112 N 0.40233 0.80284 0.05351 0.0
O113 O 0.43178 0.7442 0.08318 0.0
H114 H 0.36635 0.77725 0.12052 0.0
H115 H 0.42877 0.78211 0.06289 0.0
O116 O 0.42218 0.75746 0.19441 0.0
C117 C 0.42841 0.73988 0.0315 0.0
O118 O 0.40873 0.73888 0.01434 0.0
N119 N 0.37992 0.74443 0.16696 0.0
C120 C 0.33777 0.73877 0.1995 0.0
C121 C 0.35258 0.7478 0.23638 0.0
C122 C 0.37372 0.75039 0.21942 0.0
C123 C 0.36586 0.73526 0.13141 0.0
C124 C 0.34482 0.73255 0.14636 0.0
H125 H 0.3849 0.75682 0.24877 0.0
H126 H 0.37107 0.73047 0.09022 0.0
H127 H 0.40602 0.72163 0.24156 0.0
H128 H 0.41705 0.6673 0.14507 0.0
H129 H 0.36966 0.81194 0.06204 0.0
H130 H 0.34799 0.7525 0.27818 0.0
H131 H 0.3341 0.72591 0.11581 0.0
C132 C 0.55894 0.85986 0.65392 0.0
C133 C 0.57734 0.8588 0.62363 0.0
N134 N 0.57215 0.85629 0.56949 0.0
N135 N 0.54237 0.85769 0.61898 0.0
C136 C 0.55089 0.85546 0.56786 0.0
H137 H 0.55772 0.86298 0.69823 0.0
Co138 Co 0.51486 0.86195 0.63933 0.0
C139 C 0.48666 0.844 0.54876 0.0
O140 O 0.47299 0.85882 0.56112 0.0
N141 N 0.48678 0.86728 0.66336 0.0
C142 C 0.45673 0.88341 0.68668 0.0
C143 C 0.47489 0.88486 0.65588 0.0
C144 C 0.47509 0.85536 0.69843 0.0
N145 N 0.45703 0.86496 0.71435 0.0
O146 O 0.51723 0.83732 0.6888 0.0
H147 H 0.47893 0.89827 0.63028 0.0
H148 H 0.48024 0.84038 0.71476 0.0
O149 O 0.50431 0.84334 0.5756 0.0
C150 C 0.52111 0.84137 0.74029 0.0
O151 O 0.52094 0.86112 0.75696 0.0
N152 N 0.51474 0.88683 0.59568 0.0
C153 C 0.51316 0.9273 0.54913 0.0
C154 C 0.50963 0.90932 0.51599 0.0
C155 C 0.51082 0.88916 0.53984 0.0
C156 C 0.52004 0.90397 0.62724 0.0
C157 C 0.51914 0.92436 0.60504 0.0
H158 H 0.50849 0.87568 0.51318 0.0
H159 H 0.52391 0.90182 0.67094 0.0
H160 H 0.54166 0.85385 0.53004 0.0
H161 H 0.5932 0.86067 0.63974 0.0
H162 H 0.44469 0.89546 0.68995 0.0
H163 H 0.50579 0.91081 0.47203 0.0
H164 H 0.52216 0.9377 0.6322 0.0
C165 C 0.40982 0.30234 0.89603 0.0
C166 C 0.41074 0.31977 0.86156 0.0
N167 N 0.40614 0.31338 0.80935 0.0
N168 N 0.40508 0.28518 0.86505 0.0
C169 C 0.40301 0.29244 0.81243 0.0
H170 H 0.4121 0.30229 0.94083 0.0
Co171 Co 0.40027 0.25798 0.88956 0.0
C172 C 0.41598 0.22902 0.79875 0.0
O173 O 0.40099 0.21557 0.81196 0.0
N174 N 0.39524 0.2306 0.91563 0.0
C175 C 0.38092 0.20189 0.95294 0.0
C176 C 0.37682 0.22125 0.92958 0.0
C177 C 0.4102 0.21657 0.9306 0.0
N178 N 0.40199 0.19902 0.95391 0.0
O179 O 0.42549 0.25986 0.93645 0.0
H180 H 0.36137 0.22828 0.92583 0.0
H181 H 0.42692 0.21954 0.92586 0.0
O182 O 0.41713 0.24671 0.82488 0.0
C183 C 0.42085 0.26141 0.98845 0.0
O184 O 0.4009 0.26055 1.00325 0.0
N185 N 0.37439 0.25792 0.85056 0.0
C186 C 0.33241 0.26274 0.81639 0.0
C187 C 0.3475 0.25381 0.78029 0.0
C188 C 0.36859 0.25174 0.79796 0.0
C189 C 0.36001 0.26703 0.88529 0.0
C190 C 0.33902 0.26937 0.86949 0.0
H191 H 0.38004 0.24575 0.76874 0.0
H192 H 0.36493 0.27218 0.92642 0.0
H193 H 0.39927 0.28257 0.77686 0.0
H194 H 0.41404 0.33587 0.87392 0.0
H195 H 0.36931 0.1915 0.9715 0.0
H196 H 0.34318 0.24891 0.73844 0.0
H197 H 0.32801 0.27611 0.89919 0.0
C198 C 0.96372 0.14737 0.16534 0.0
C199 C 0.94548 0.14993 0.13472 0.0
N200 N 0.95088 0.15841 0.08525 0.0
N201 N 0.98034 0.15384 0.13444 0.0
C202 C 0.97198 0.16061 0.08596 0.0
H203 H 0.965 0.13997 0.20597 0.0
Co204 Co 0.00802 0.14853 0.15206 0.0
C205 C 0.03451 0.16198 0.05392 0.0
O206 O 0.0464 0.14535 0.06305 0.0
N207 N 0.03621 0.14259 0.1717 0.0
C208 C 0.06653 0.12672 0.19296 0.0
C209 C 0.04615 0.12372 0.17559 0.0
C210 C 0.0511 0.15678 0.18661 0.0
N211 N 0.0696 0.14752 0.19993 0.0
O212 O 0.00798 0.17392 0.1986 0.0
H213 H 0.03928 0.10849 0.16736 0.0
H214 H 0.04816 0.17355 0.19012 0.0
O215 O 0.01822 0.16506 0.08504 0.0
C216 C 0.00649 0.17023 0.25113 0.0
O217 O 0.00746 0.1506 0.26847 0.0
N218 N 1.00578 0.12281 0.11291 0.0
C219 C 0.99806 0.08138 0.07752 0.0
C220 C 1.00363 0.09718 0.03881 0.0
C221 C 0.007 0.11801 0.05726 0.0
C222 C 0.99947 0.10786 0.15028 0.0
C223 C 0.99592 0.08711 0.13385 0.0
H224 H 0.01005 0.13011 0.02663 0.0
H225 H 0.99772 0.11209 0.19388 0.0
H226 H 0.98117 0.16547 0.05004 0.0
H227 H 0.9297 0.14515 0.14664 0.0
H228 H 0.07798 0.11449 0.20194 0.0
H229 H 1.00481 0.0936 0.99464 0.0
H230 H 0.99179 0.07559 0.16546 0.0
C231 C 0.1262 0.70989 0.3861 0.0
C232 C 0.12245 0.69247 0.35317 0.0
N233 N 0.10981 0.69847 0.31085 0.0
N234 N 0.11616 0.72669 0.36394 0.0
C235 C 0.1061 0.71919 0.31866 0.0
H236 H 0.13671 0.71063 0.42169 0.0
Co237 Co 0.12051 0.7541 0.38608 0.0
C238 C 0.10792 0.78024 0.28527 0.0
O239 O 0.1261 0.79003 0.28835 0.0
N240 N 0.12569 0.78216 0.41108 0.0
C241 C 0.14152 0.81273 0.43143 0.0
C242 C 0.14134 0.79568 0.39626 0.0
C243 C 0.11652 0.79176 0.45529 0.0
N244 N 0.12604 0.81007 0.46903 0.0
O245 O 0.09457 0.75224 0.4306 0.0
H246 H 0.15285 0.79312 0.36364 0.0
H247 H 0.1035 0.78527 0.47855 0.0
O248 O 0.10384 0.76537 0.32022 0.0
C249 C 0.09709 0.74432 0.47951 0.0
O250 O 0.11641 0.74007 0.49602 0.0
N251 N 0.14651 0.75356 0.34726 0.0
C252 C 0.18714 0.7474 0.30423 0.0
C253 C 0.16938 0.74671 0.26904 0.0
C254 C 0.14914 0.74967 0.29147 0.0
C255 C 0.16354 0.75326 0.38224 0.0
C256 C 0.184 0.75081 0.36147 0.0
H257 H 0.13561 0.74812 0.26431 0.0
H258 H 0.16116 0.75492 0.42683 0.0
H259 H 0.09776 0.72902 0.28903 0.0
H260 H 0.12931 0.67694 0.35825 0.0
H261 H 0.15304 0.82535 0.4315 0.0
H262 H 0.17111 0.74359 0.22474 0.0
H263 H 0.19719 0.75076 0.39031 0.0
C264 C 0.91271 0.80792 0.37478 0.0
C265 C 0.91156 0.82361 0.33517 0.0
N266 N 0.90742 0.81448 0.28569 0.0
N267 N 0.90975 0.78898 0.34991 0.0
C268 C 0.90659 0.79362 0.29557 0.0
H269 H 0.9152 0.81056 0.41878 0.0
Co270 Co 0.90729 0.76201 0.38007 0.0
C271 C 0.93808 0.7373 0.30911 0.0
O272 O 0.94585 0.72773 0.35326 0.0
N273 N 0.90396 0.73527 0.41045 0.0
C274 C 0.89684 0.70144 0.4265 0.0
C275 C 0.90167 0.71616 0.38611 0.0
C276 C 0.89999 0.73183 0.46494 0.0
N277 N 0.89567 0.71146 0.47608 0.0
O278 O 0.93336 0.76628 0.42363 0.0
H279 H 0.90302 0.71304 0.34184 0.0
H280 H 0.90029 0.74407 0.49615 0.0
O281 O 0.92324 0.75083 0.31503 0.0
C282 C 0.93002 0.77564 0.47035 0.0
O283 O 0.9105 0.78079 0.48313 0.0
N284 N 0.88123 0.75872 0.34333 0.0
C285 C 0.83964 0.7541 0.30623 0.0
C286 C 0.85636 0.74401 0.27829 0.0
C287 C 0.87713 0.74665 0.29723 0.0
C288 C 0.86526 0.76894 0.37024 0.0
C289 C 0.84438 0.76701 0.35213 0.0
H290 H 0.88971 0.73856 0.27561 0.0
H291 H 0.86877 0.77831 0.40689 0.0
H292 H 0.90377 0.78188 0.26357 0.0
H293 H 0.91336 0.84039 0.34218 0.0
H294 H 0.89423 0.68476 0.41973 0.0
H295 H 0.85337 0.73401 0.24242 0.0
H296 H 0.83196 0.7749 0.37524 0.0
C297 C 0.63427 0.22093 0.90327 0.0
C298 C 0.63245 0.20216 0.87464 0.0
N299 N 0.61682 0.20423 0.83681 0.0
N300 N 0.62006 0.23478 0.88286 0.0
C301 C 0.60933 0.22397 0.84353 0.0
H302 H 0.64617 0.22476 0.93407 0.0
Co303 Co 0.61892 0.26346 0.89877 0.0
C304 C 0.60525 0.27615 0.78064 0.0
O305 O 0.62471 0.28103 0.76724 0.0
N306 N 0.61747 0.29241 0.91554 0.0
C307 C 0.61862 0.32752 0.91146 0.0
C308 C 0.61897 0.30923 0.88086 0.0
C309 C 0.61638 0.301 0.96707 0.0
N310 N 0.61712 0.32228 0.9657 0.0
O311 O 0.59353 0.25821 0.94388 0.0
H312 H 0.62103 0.30862 0.83634 0.0
H313 H 0.61512 0.29181 1.005 0.0
O314 O 0.60117 0.26916 0.83 0.0
C315 C 0.59933 0.25071 0.99127 0.0
O316 O 0.61971 0.24952 1.00119 0.0
N317 N 0.64575 0.26732 0.8619 0.0
C318 C 0.68761 0.27124 0.82436 0.0
C319 C 0.67351 0.25761 0.79732 0.0
C320 C 0.65272 0.2557 0.81706 0.0
C321 C 0.65998 0.27939 0.89073 0.0
C322 C 0.68064 0.28206 0.87184 0.0
H323 H 0.64216 0.24509 0.79546 0.0
H324 H 0.65566 0.28672 0.92981 0.0
H325 H 0.59756 0.23099 0.8166 0.0
H326 H 0.64263 0.18855 0.87901 0.0
H327 H 0.61983 0.34341 0.89516 0.0
H328 H 0.67842 0.24869 0.76093 0.0
H329 H 0.69129 0.2921 0.89526 0.0
C330 C 0.61252 0.80414 0.12873 0.0
C331 C 0.61244 0.82102 0.165 0.0
N332 N 0.6166 0.81357 0.21645 0.0
N333 N 0.61625 0.78627 0.15785 0.0
C334 C 0.61851 0.79254 0.21121 0.0
H335 H 0.61086 0.80503 0.08382 0.0
Co336 Co 0.62179 0.75986 0.12965 0.0
C337 C 0.59974 0.72806 0.20622 0.0
O338 O 0.60913 0.71235 0.18057 0.0
N339 N 0.62833 0.73342 0.09848 0.0
C340 C 0.64641 0.70643 0.06266 0.0
C341 C 0.64751 0.72398 0.09595 0.0
C342 C 0.61596 0.72127 0.06568 0.0
N343 N 0.62661 0.70493 0.04329 0.0
O344 O 0.59717 0.76282 0.08022 0.0
H345 H 0.66196 0.72998 0.11372 0.0
H346 H 0.59958 0.72465 0.05664 0.0
O347 O 0.60354 0.7471 0.19042 0.0
C348 C 0.60055 0.76765 0.02892 0.0
O349 O 0.62021 0.76875 0.01155 0.0
N350 N 0.64656 0.75857 0.17418 0.0
C351 C 0.68752 0.7552 0.21692 0.0
C352 C 0.67087 0.74348 0.24015 0.0
C353 C 0.65042 0.74552 0.21854 0.0
C354 C 0.6623 0.771 0.15339 0.0
C355 C 0.68287 0.76966 0.1743 0.0
H356 H 0.63819 0.73573 0.23577 0.0
H357 H 0.65907 0.78123 0.11819 0.0
H358 H 0.6221 0.78195 0.24544 0.0
H359 H 0.61032 0.83748 0.15428 0.0
H360 H 0.65956 0.69665 0.04978 0.0
H361 H 0.67376 0.73233 0.27361 0.0
H362 H 0.69524 0.77894 0.15496 0.0
C363 C 0.88944 0.21362 0.6453 0.0
C364 C 0.89054 0.19665 0.68124 0.0
N365 N 0.90619 0.20034 0.71809 0.0
N366 N 0.90421 0.22789 0.6601 0.0
C367 C 0.91469 0.21897 0.70284 0.0
H368 H 0.8774 0.21632 0.61402 0.0
Co369 Co 0.90549 0.25567 0.6369 0.0
C370 C 0.9193 0.27295 0.75169 0.0
O371 O 0.90016 0.27884 0.76548 0.0
N372 N 0.90691 0.2835 0.61248 0.0
C373 C 0.90543 0.31842 0.6028 0.0
C374 C 0.90491 0.30198 0.64038 0.0
C375 C 0.9085 0.2891 0.55848 0.0
N376 N 0.90777 0.31013 0.55148 0.0
O377 O 0.93139 0.24908 0.59534 0.0
H378 H 0.90255 0.3036 0.68476 0.0
H379 H 0.90949 0.27797 0.52441 0.0
O380 O 0.92277 0.26416 0.70408 0.0
C381 C 0.92792 0.24046 0.54768 0.0
O382 O 0.90822 0.23701 0.5331 0.0
N383 N 0.87859 0.26094 0.67166 0.0
C384 C 0.83687 0.267 0.70783 0.0
C385 C 0.85101 0.25499 0.73974 0.0
C386 C 0.87177 0.25198 0.72067 0.0
C387 C 0.86433 0.27126 0.63853 0.0
C388 C 0.84372 0.27499 0.65645 0.0
H389 H 0.88238 0.24263 0.74586 0.0
H390 H 0.86868 0.27642 0.59709 0.0
H391 H 0.92726 0.22673 0.72537 0.0
H392 H 0.8794 0.18372 0.68346 0.0
H393 H 0.90435 0.33509 0.61237 0.0
H394 H 0.84617 0.24824 0.77932 0.0
H395 H 0.83303 0.28367 0.62958 0.0
C396 C 0.0531 0.65806 0.85194 0.0
C397 C 0.0701 0.6611 0.88723 0.0
N398 N 0.06255 0.66316 0.93959 0.0
N399 N 0.0352 0.65817 0.88254 0.0
C400 C 0.0415 0.66116 0.93549 0.0
H401 H 0.05375 0.65544 0.80727 0.0
Co402 Co 0.00807 0.65253 0.86059 0.0
C403 C 0.9805 0.66789 0.95637 0.0
O404 O 0.967 0.65244 0.9486 0.0
N405 N 0.98032 0.64638 0.83764 0.0
C406 C 0.95124 0.62946 0.81076 0.0
C407 C 0.97106 0.6272 0.83265 0.0
C408 C 0.96553 0.66004 0.81903 0.0
N409 N 0.94781 0.6501 0.80221 0.0
O410 O 0.00889 0.67787 0.81393 0.0
H411 H 0.97821 0.6122 0.84213 0.0
H412 H 0.96813 0.67684 0.81463 0.0
O413 O 0.99692 0.66937 0.92513 0.0
C414 C 0.01129 0.67453 0.7615 0.0
O415 O 0.01055 0.65503 0.74306 0.0
N416 N 0.00948 0.62681 0.9003 0.0
C417 C 0.01001 0.58418 0.92967 0.0
C418 C 1.00359 0.59954 0.96854 0.0
C419 C 1.00367 0.62098 0.95318 0.0
C420 C 0.01805 0.6123 0.86487 0.0
C421 C 0.01822 0.59093 0.87833 0.0
H422 H 0.99873 0.63252 0.98348 0.0
H423 H 0.02342 0.61728 0.82398 0.0
H424 H 0.03093 0.66091 0.97103 0.0
H425 H 0.0866 0.66167 0.87551 0.0
H426 H 0.94059 0.61685 0.79902 0.0
H427 H 0.99771 0.59499 0.00933 0.0
H428 H 0.02398 0.57969 0.84779 0.0
C429 C 0.45974 0.36948 0.37166 0.0
C430 C 0.44212 0.37112 0.40524 0.0
N431 N 0.44791 0.36642 0.45795 0.0
N432 N 0.47632 0.36349 0.40321 0.0
C433 C 0.46864 0.36177 0.45546 0.0
H434 H 0.46045 0.37241 0.32715 0.0
Co435 Co 0.50351 0.35943 0.37843 0.0
C436 C 0.52874 0.34498 0.4758 0.0
O437 O 0.5432 0.35857 0.4597 0.0
N438 N 0.53095 0.35498 0.35157 0.0
C439 C 0.55921 0.33705 0.32421 0.0
C440 C 0.54058 0.33599 0.35292 0.0
C441 C 0.54401 0.36726 0.32099 0.0
N442 N 0.56139 0.35674 0.30366 0.0
O443 O 0.49473 0.33348 0.34142 0.0
H444 H 0.53395 0.3219 0.37146 0.0
H445 H 0.54038 0.3832 0.30882 0.0
O446 O 0.51126 0.34378 0.44869 0.0
C447 C 0.49221 0.33633 0.2888 0.0
O448 O 0.49601 0.35522 0.26849 0.0
N449 N 0.51061 0.38616 0.4085 0.0
C450 C 0.51591 0.42893 0.43498 0.0
C451 C 0.51459 0.41365 0.47743 0.0
C452 C 0.51163 0.39231 0.46334 0.0
C453 C 0.51032 0.40105 0.36743 0.0
C454 C 0.51346 0.42234 0.37944 0.0
H455 H 0.50955 0.38103 0.49665 0.0
H456 H 0.50723 0.39634 0.32474 0.0
H457 H 0.47793 0.35684 0.49105 0.0
H458 H 0.42636 0.37544 0.39203 0.0
H459 H 0.56938 0.32375 0.31535 0.0
H460 H 0.51577 0.41813 0.52102 0.0
H461 H 0.51338 0.43365 0.34546 0.0
C462 C 0.0561 0.38497 0.13505 0.0
C463 C 0.07479 0.38269 0.10637 0.0
N464 N 0.07267 0.36631 0.07099 0.0
N465 N 0.04233 0.3702 0.11724 0.0
C466 C 0.05295 0.35892 0.07886 0.0
H467 H 0.0523 0.39742 0.16431 0.0
Co468 Co 0.01402 0.36961 0.13467 0.0
C469 C 0.99648 0.3348 0.06727 0.0
O470 O 0.9888 0.32711 0.11409 0.0
N471 N 0.98562 0.36969 0.15238 0.0
C472 C 0.95058 0.37225 0.14992 0.0
C473 C 0.96891 0.37444 0.11943 0.0
C474 C 0.97722 0.36484 0.20222 0.0
N475 N 0.95605 0.36607 0.20162 0.0
O476 O 0.01893 0.34485 0.18239 0.0
H477 H 0.96998 0.37882 0.0758 0.0
H478 H 0.98635 0.36019 0.23838 0.0
O479 O 0.00756 0.3517 0.06879 0.0
C480 C 0.02833 0.34916 0.22839 0.0
O481 O 0.03305 0.36894 0.23898 0.0
N482 N 0.01028 0.39446 0.09329 0.0
C483 C 0.00719 0.43437 0.04394 0.0
C484 C 0.01179 0.41638 0.01155 0.0
C485 C 0.01336 0.39653 0.03708 0.0
C486 C 1.00601 0.41168 0.12547 0.0
C487 C 1.00422 0.43172 0.10168 0.0
H488 H 0.01755 0.38299 0.01194 0.0
H489 H 1.00411 0.40982 0.17017 0.0
H490 H 0.04584 0.34667 0.05359 0.0
H491 H 0.08839 0.39299 0.10897 0.0
H492 H 0.93458 0.37421 0.13494 0.0
H493 H 0.01466 0.41766 0.96704 0.0
H494 H 1.00043 0.44498 0.12842 0.0
C495 C 0.46566 0.64459 0.65006 0.0
C496 C 0.44739 0.64525 0.61899 0.0
N497 N 0.45276 0.6492 0.56559 0.0
N498 N 0.48229 0.64839 0.61625 0.0
C499 C 0.47391 0.65137 0.56525 0.0
H500 H 0.46684 0.64048 0.69382 0.0
Co501 Co 0.51006 0.64485 0.63568 0.0
C502 C 0.53625 0.66169 0.54002 0.0
O503 O 0.5491 0.64573 0.54754 0.0
N504 N 0.53856 0.64043 0.65796 0.0
C505 C 0.56981 0.62577 0.67681 0.0
C506 C 0.55141 0.62377 0.6473 0.0
C507 C 0.54993 0.65237 0.69376 0.0
N508 N 0.56873 0.64365 0.70681 0.0
O509 O 0.50745 0.66965 0.68473 0.0
H510 H 0.548 0.61074 0.61974 0.0
H511 H 0.54416 0.66671 0.71242 0.0
O512 O 0.51979 0.6634 0.57134 0.0
C513 C 0.5034 0.66554 0.73613 0.0
O514 O 0.5034 0.64575 0.75245 0.0
N515 N 0.51043 0.61968 0.59281 0.0
C516 C 0.51184 0.57915 0.54593 0.0
C517 C 0.51262 0.59726 0.51194 0.0
C518 C 0.51161 0.61738 0.53608 0.0
C519 C 0.50768 0.60234 0.62587 0.0
C520 C 0.50871 0.58197 0.60356 0.0
H521 H 0.5118 0.63091 0.50882 0.0
H522 H 0.50575 0.60438 0.67051 0.0
H523 H 0.48319 0.65434 0.52812 0.0
H524 H 0.43157 0.64197 0.63382 0.0
H525 H 0.58266 0.61452 0.67725 0.0
H526 H 0.51403 0.59595 0.46694 0.0
H527 H 0.50785 0.56861 0.63169 0.0
H528 H 0.53287 0.05162 0.50571 0.0
H529 H 0.47468 0.05243 0.40975 0.0
H530 H 0.47031 0.01432 0.42593 0.0
H531 H 0.5513 1.00152 0.45899 0.0
H532 H 0.56181 0.99349 0.52574 0.0
H533 H 0.56034 0.02109 0.5082 0.0
H534 H 0.53851 0.02829 0.5978 0.0
H535 H 0.54006 1.00073 0.61588 0.0
H536 H 0.51469 0.01344 0.61028 0.0
H537 H 0.47274 0.976 0.4487 0.0
H538 H 0.48057 0.9401 0.48252 0.0
H539 H 0.53676 0.96358 0.5658 0.0
C540 C 0.51905 0.04385 0.48883 0.0
C541 C 0.50424 0.05509 0.45588 0.0
C542 C 0.48647 0.04418 0.43418 0.0
C543 C 0.48378 0.02252 0.44335 0.0
C544 C 0.49887 0.01185 0.47478 0.0
C545 C 0.51604 0.02213 0.49777 0.0
C546 C 0.52992 0.00677 0.52981 0.0
C547 C 0.55216 1.00566 0.50413 0.0
C548 C 0.53084 0.01266 0.59215 0.0
C549 C 0.51791 0.9863 0.52082 0.0
C550 C 0.5001 0.98964 0.48875 0.0
C551 C 0.48662 0.97319 0.47398 0.0
C552 C 0.49132 0.95279 0.49299 0.0
C553 C 0.50932 0.94892 0.52664 0.0
C554 C 0.5228 0.966 0.5405 0.0
H555 H 0.30656 0.23506 0.75836 0.0
H556 H 0.30716 0.29684 0.83699 0.0
H557 H 0.269 0.30031 0.82016 0.0
H558 H 0.26783 0.24887 0.6495 0.0
H559 H 0.25536 0.22331 0.65124 0.0
H560 H 0.28298 0.22582 0.66798 0.0
H561 H 0.27631 0.20751 0.76319 0.0
H562 H 0.24863 0.20518 0.74707 0.0
H563 H 0.25687 0.21828 0.81032 0.0
H564 H 0.23064 0.29644 0.80082 0.0
H565 H 0.19462 0.28698 0.77088 0.0
H566 H 0.21829 0.2284 0.70075 0.0
C567 C 0.29873 0.24946 0.77112 0.0
C568 C 0.30988 0.26554 0.79977 0.0
C569 C 0.29895 0.28409 0.8161 0.0
C570 C 0.27726 0.28627 0.80653 0.0
C571 C 0.26663 0.26991 0.77987 0.0
C572 C 0.27698 0.252 0.76151 0.0
C573 C 0.26163 0.23681 0.73389 0.0
C574 C 0.26729 0.23352 0.67197 0.0
C575 C 0.26082 0.2157 0.76552 0.0
C576 C 0.24107 0.24894 0.7402 0.0
C577 C 0.24438 0.26792 0.76722 0.0
C578 C 0.22785 0.28167 0.77933 0.0
C579 C 0.2074 0.27606 0.76264 0.0
C580 C 0.2036 0.25691 0.73379 0.0
C581 C 0.22073 0.24317 0.72258 0.0
H582 H 0.02058 0.057 1.00207 0.0
H583 H 0.96687 0.05501 0.1148 0.0
H584 H 0.96278 0.017 0.09659 0.0
H585 H 0.99891 0.01908 0.90012 0.0
H586 H 0.0243 0.00739 0.88603 0.0
H587 H 0.02256 0.03473 0.9062 0.0
H588 H 0.04842 0.02768 0.988 0.0
H589 H 0.05005 1.00028 0.96848 0.0
H590 H 0.04225 0.00746 0.03845 0.0
H591 H 0.96599 0.97872 0.07222 0.0
H592 H 0.97421 0.94319 0.03535 0.0
H593 H 0.02465 0.96977 0.93484 0.0
C594 C 0.00771 0.04866 0.02205 0.0
C595 C 0.99423 0.05903 0.06049 0.0
C596 C 0.9777 0.04741 0.08611 0.0
C597 C 0.97516 0.02579 0.07586 0.0
C598 C 0.98909 0.01592 0.03925 0.0
C599 C 1.00484 0.02699 0.01198 0.0
C600 C 0.01776 0.01241 0.97497 0.0
C601 C 0.01575 0.01878 0.91316 0.0
C602 C 0.04099 0.01194 0.99361 0.0
C603 C 0.00695 0.99145 0.98629 0.0
C604 C 0.99053 0.99384 0.02378 0.0
C605 C 0.97868 0.97667 0.0424 0.0
C606 C 0.98356 0.95654 0.0216 0.0
C607 C 1.00001 0.95374 0.98222 0.0
C608 C 0.01184 0.97149 0.9645 0.0
H609 H 0.31175 0.76494 0.26238 0.0
H610 H 0.3122 0.7054 0.17228 0.0
H611 H 0.27401 0.70178 0.18762 0.0
H612 H 0.27308 0.74792 0.36807 0.0
H613 H 0.26071 0.7735 0.372 0.0
H614 H 0.28831 0.77142 0.35455 0.0
H615 H 0.28164 0.79263 0.26369 0.0
H616 H 0.25399 0.79457 0.28052 0.0
H617 H 0.26211 0.78345 0.21455 0.0
H618 H 0.23539 0.70553 0.20662 0.0
H619 H 0.19933 0.71446 0.2383 0.0
H620 H 0.22362 0.77015 0.32185 0.0
C621 C 0.30392 0.75096 0.24669 0.0
C622 C 0.3151 0.73568 0.21508 0.0
C623 C 0.30405 0.71768 0.19519 0.0
C624 C 0.2823 0.71538 0.20397 0.0
C625 C 0.2717 0.731 0.23365 0.0
C626 C 0.28214 0.74825 0.25569 0.0
C627 C 0.26686 0.76258 0.28664 0.0
C628 C 0.27258 0.76393 0.34902 0.0
C629 C 0.26611 0.78461 0.25973 0.0
C630 C 0.24625 0.75078 0.2779 0.0
C631 C 0.24941 0.7327 0.24675 0.0
C632 C 0.23273 0.71955 0.2315 0.0
C633 C 0.21229 0.72482 0.24929 0.0
C634 C 0.20869 0.74296 0.2825 0.0
C635 C 0.22595 0.7561 0.29682 0.0
H636 H 0.80786 0.78327 0.29141 0.0
H637 H 0.82087 0.71611 0.28537 0.0
H638 H 0.78332 0.70912 0.26421 0.0
H639 H 0.75678 0.77999 0.35553 0.0
H640 H 0.74546 0.80109 0.31483 0.0
H641 H 0.77336 0.80091 0.32938 0.0
H642 H 0.78147 0.80294 0.22331 0.0
H643 H 0.7536 0.80328 0.20846 0.0
H644 H 0.77026 0.78354 0.17685 0.0
H645 H 0.74408 0.70932 0.2478 0.0
H646 H 0.70656 0.71683 0.22797 0.0
H647 H 0.71901 0.78397 0.24088 0.0
C648 C 0.80278 0.76711 0.28551 0.0
C649 C 0.81729 0.75021 0.29002 0.0
C650 C 0.81008 0.72929 0.28155 0.0
C651 C 0.78876 0.72517 0.26992 0.0
C652 C 0.77483 0.74215 0.26629 0.0
C653 C 0.78157 0.76273 0.27308 0.0
C654 C 0.76343 0.77813 0.26564 0.0
C655 C 0.75953 0.79077 0.31956 0.0
C656 C 0.76743 0.79284 0.21558 0.0
C657 C 0.74541 0.76299 0.25398 0.0
C658 C 0.75231 0.7423 0.25513 0.0
C659 C 0.73853 0.72546 0.2466 0.0
C660 C 0.7172 0.72988 0.2358 0.0
C661 C 0.70983 0.75097 0.23308 0.0
C662 C 0.72419 0.7677 0.2425 0.0
H663 H 0.8061 0.23872 0.74035 0.0
H664 H 0.81842 0.30548 0.71756 0.0
H665 H 0.78162 0.31363 0.74425 0.0
H666 H 0.75373 0.23963 0.68256 0.0
H667 H 0.74307 0.22054 0.73077 0.0
H668 H 0.77067 0.2198 0.7127 0.0
H669 H 0.78073 0.22227 0.81749 0.0
H670 H 0.75315 0.22283 0.83591 0.0
H671 H 0.77045 0.24364 0.85919 0.0
H672 H 0.74384 0.31471 0.77352 0.0
H673 H 0.70688 0.30861 0.80227 0.0
H674 H 0.71787 0.24106 0.80188 0.0
C675 C 0.80104 0.25504 0.74175 0.0
C676 C 0.81508 0.27153 0.72731 0.0
C677 C 0.80787 0.29267 0.72853 0.0
C678 C 0.78703 0.29743 0.74363 0.0
C679 C 0.77348 0.28086 0.75687 0.0
C680 C 0.78011 0.26007 0.75596 0.0
C681 C 0.76203 0.24527 0.77033 0.0
C682 C 0.75709 0.23044 0.72115 0.0
C683 C 0.76688 0.23277 0.82392 0.0
C684 C 0.74428 0.261 0.77966 0.0
C685 C 0.75133 0.28144 0.77195 0.0
C686 C 0.73811 0.29878 0.77947 0.0
C687 C 0.71717 0.29518 0.79581 0.0
C688 C 0.70953 0.27441 0.80394 0.0
C689 C 0.72325 0.25709 0.7952 0.0
H690 H 0.0209 0.56037 0.02265 0.0
H691 H 0.99181 0.55612 0.85878 0.0
H692 H 0.98755 0.51773 0.87075 0.0
H693 H 0.05009 0.51205 0.01285 0.0
H694 H 0.04651 0.50481 0.08514 0.0
H695 H 0.04652 0.53222 0.0652 0.0
H696 H 0.00979 0.53712 0.11104 0.0
H697 H 0.00969 0.50973 0.13125 0.0
H698 H 0.98826 0.52024 0.09025 0.0
H699 H 0.98697 0.4798 0.89891 0.0
H700 H 0.98996 0.44461 0.94213 0.0
H701 H 0.0204 0.47273 0.08686 0.0
C702 C 0.01345 0.55134 0.98967 0.0
C703 C 0.00679 0.56122 0.93963 0.0
C704 C 0.99727 0.54885 0.89715 0.0
C705 C 0.99469 0.52704 0.90363 0.0
C706 C 1.00172 0.5177 0.95288 0.0
C707 C 0.01089 0.52939 0.99527 0.0
C708 C 0.01757 0.5152 0.04326 0.0
C709 C 0.0416 0.51613 0.05211 0.0
C710 C 1.00561 0.52092 0.09714 0.0
C711 C 0.01076 0.4938 0.02105 0.0
C712 C 1.0016 0.49565 0.96892 0.0
C713 C 0.99416 0.47813 0.93972 0.0
C714 C 0.99609 0.45814 0.96447 0.0
C715 C 1.00546 0.45573 0.01792 0.0
C716 C 0.01289 0.47394 0.04633 0.0
H717 H 0.49634 0.45362 0.51512 0.0
H718 H 0.54295 0.45585 0.38223 0.0
H719 H 0.547 0.49419 0.39658 0.0
H720 H 0.47133 0.50245 0.48225 0.0
H721 H 0.46679 0.51007 0.55389 0.0
H722 H 0.46821 0.48254 0.5355 0.0
H723 H 0.49795 0.47693 0.60832 0.0
H724 H 0.49653 0.50443 0.6272 0.0
H725 H 0.52131 0.49315 0.60526 0.0
H726 H 0.54538 0.53234 0.42307 0.0
H727 H 0.5389 0.56779 0.46162 0.0
H728 H 0.49261 0.54146 0.57617 0.0
C729 C 0.50764 0.46214 0.48973 0.0
C730 C 0.51933 0.45171 0.44749 0.0
C731 C 0.53371 0.46351 0.4145 0.0
C732 C 0.53616 0.48529 0.42243 0.0
C733 C 0.52413 0.49516 0.46358 0.0
C734 C 0.51021 0.48401 0.49689 0.0
C735 C 0.49881 0.49867 0.5371 0.0
C736 C 0.47487 0.49841 0.52653 0.0
C737 C 0.50397 0.49295 0.59809 0.0
C738 C 0.50845 0.51975 0.52093 0.0
C739 C 0.52304 0.51732 0.47851 0.0
C740 C 0.53396 0.53445 0.45625 0.0
C741 C 0.52999 0.55461 0.47814 0.0
C742 C 0.51513 0.55762 0.52182 0.0
C743 C 0.50422 0.53981 0.54322 0.0
H744 H 0.47998 0.1703 0.19157 0.0
H745 H 0.43638 0.12021 0.23385 0.0
H746 H 0.41954 0.1236 0.14102 0.0
H747 H 0.44419 0.20266 0.13579 0.0
H748 H 0.46073 0.21325 0.08115 0.0
H749 H 0.47253 0.20288 0.14338 0.0
H750 H 0.49511 0.17764 0.08224 0.0
H751 H 0.4828 0.18789 0.01989 0.0
H752 H 0.48228 0.15995 0.03395 0.0
H753 H 0.40364 0.13659 0.05323 0.0
H754 H 0.38804 0.15985 0.98178 0.0
H755 H 0.44107 0.20269 0.9996 0.0
C756 C 0.46747 0.1595 0.18008 0.0
C757 C 0.45952 0.14488 0.21905 0.0
C758 C 0.44261 0.13147 0.20408 0.0
C759 C 0.43316 0.13314 0.15136 0.0
C760 C 0.44088 0.14828 0.11433 0.0
C761 C 0.4577 0.16124 0.12805 0.0
C762 C 0.46059 0.17866 0.08556 0.0
C763 C 0.4594 0.20063 0.11317 0.0
C764 C 0.48144 0.17585 0.0535 0.0
C765 C 0.44181 0.17443 0.0482 0.0
C766 C 0.43114 0.15637 0.06412 0.0
C767 C 0.41205 0.15055 0.03966 0.0
C768 C 0.4032 0.16397 0.9995 0.0
C769 C 0.41321 0.1832 0.98521 0.0
C770 C 0.43318 0.18795 0.00836 0.0
H771 H 0.09076 0.13104 0.28662 0.0
H772 H 0.08551 0.18655 0.18235 0.0
H773 H 0.10815 0.20627 0.24817 0.0
H774 H 0.08069 0.15411 0.40227 0.0
H775 H 0.09815 0.13981 0.44822 0.0
H776 H 0.08929 0.12778 0.38476 0.0
H777 H 0.12793 0.12177 0.35313 0.0
H778 H 0.13706 0.13354 0.41742 0.0
H779 H 0.14607 0.14368 0.35113 0.0
H780 H 0.12168 0.22203 0.33411 0.0
H781 H 0.12375 0.23284 0.43238 0.0
H782 H 0.1198 0.16745 0.48418 0.0
C783 C 0.09547 0.14696 0.27608 0.0
C784 C 0.08669 0.15729 0.2294 0.0
C785 C 0.09227 0.17842 0.21794 0.0
C786 C 0.10525 0.18963 0.25485 0.0
C787 C 0.11253 0.1794 0.30278 0.0
C788 C 0.10803 0.15838 0.31317 0.0
C789 C 0.1135 0.15227 0.37261 0.0
C790 C 0.09426 0.14298 0.40372 0.0
C791 C 0.13226 0.13691 0.37361 0.0
C792 C 0.11973 0.17357 0.39561 0.0
C793 C 0.12001 0.18881 0.35414 0.0
C794 C 0.12227 0.21016 0.3666 0.0
C795 C 0.12344 0.21617 0.42278 0.0
C796 C 0.12204 0.20088 0.46586 0.0
C797 C 0.12108 0.17933 0.45184 0.0
H798 H 0.10965 0.79625 0.56733 0.0
H799 H 0.13476 0.85164 0.48361 0.0
H800 H 0.12916 0.8725 0.56959 0.0
H801 H 0.06829 0.8222 0.63438 0.0
H802 H 0.06953 0.80646 0.69708 0.0
H803 H 0.07811 0.79551 0.63159 0.0
H804 H 0.1145 0.78687 0.67525 0.0
H805 H 0.10615 0.79806 0.74092 0.0
H806 H 0.12977 0.80763 0.70732 0.0
H807 H 0.1176 0.8879 0.66045 0.0
H808 H 0.09835 0.89745 0.74616 0.0
H809 H 0.08129 0.83176 0.77064 0.0
C810 C 0.11396 0.81276 0.56676 0.0
C811 C 0.12262 0.82235 0.51867 0.0
C812 C 0.12832 0.84395 0.52023 0.0
C813 C 0.12526 0.85588 0.56885 0.0
C814 C 0.11663 0.8459 0.61544 0.0
C815 C 0.11097 0.82485 0.61466 0.0
C816 C 0.10027 0.81827 0.66836 0.0
C817 C 0.07772 0.81015 0.65715 0.0
C818 C 0.11348 0.80173 0.69982 0.0
C819 C 0.10013 0.83915 0.69879 0.0
C820 C 0.10997 0.85479 0.66805 0.0
C821 C 0.11018 0.87575 0.68545 0.0
C822 C 0.0993 0.88099 0.73445 0.0
C823 C 0.08825 0.86534 0.76504 0.0
C824 C 0.08949 0.84407 0.74801 0.0
H825 H 0.42539 0.79079 0.96452 0.0
H826 H 0.39332 0.84418 0.03956 0.0
H827 H 0.40179 0.86586 0.95607 0.0
H828 H 0.46758 0.81945 0.8997 0.0
H829 H 0.46782 0.80291 0.83833 0.0
H830 H 0.45949 0.79223 0.90444 0.0
H831 H 0.42409 0.78063 0.85984 0.0
H832 H 0.43225 0.79147 0.79365 0.0
H833 H 0.4078 0.79993 0.82508 0.0
H834 H 0.41434 0.88138 0.86545 0.0
H835 H 0.43161 0.89058 0.77686 0.0
H836 H 0.45303 0.82572 0.75935 0.0
C837 C 0.42055 0.80718 0.9639 0.0
C838 C 0.40902 0.81606 0.00846 0.0
C839 C 0.40231 0.83731 1.00561 0.0
C840 C 0.40695 0.84961 0.95849 0.0
C841 C 0.41802 0.84019 0.91473 0.0
C842 C 0.42477 0.81948 0.91715 0.0
C843 C 0.43622 0.81298 0.86456 0.0
C844 C 0.45914 0.80653 0.87755 0.0
C845 C 0.42437 0.79521 0.83398 0.0
C846 C 0.43521 0.83345 0.83241 0.0
C847 C 0.42459 0.84891 0.86187 0.0
C848 C 0.42254 0.86938 0.84169 0.0
C849 C 0.4323 0.87439 0.79088 0.0
C850 C 0.44392 0.85893 0.76085 0.0
C851 C 0.44463 0.83804 0.78129 0.0
H852 H 0.55595 0.8157 0.7436 0.0
H853 H 0.4991 0.83192 0.83417 0.0
H854 H 0.51117 0.81055 0.91481 0.0
H855 H 0.56389 0.76096 0.80532 0.0
H856 H 0.59207 0.76472 0.80758 0.0
H857 H 0.57668 0.77729 0.75367 0.0
H858 H 0.5924 0.81343 0.7834 0.0
H859 H 0.60731 0.80087 0.83804 0.0
H860 H 0.58946 0.8221 0.85481 0.0
H861 H 0.53168 0.79107 0.99043 0.0
H862 H 0.55887 0.77632 0.05385 0.0
H863 H 0.60311 0.77403 0.9155 0.0
C864 C 0.54565 0.81386 0.77945 0.0
C865 C 0.5262 0.82477 0.78198 0.0
C866 C 0.51371 0.82311 0.83086 0.0
C867 C 0.52051 0.81107 0.87694 0.0
C868 C 0.54007 0.80095 0.87398 0.0
C869 C 0.55243 0.80215 0.82628 0.0
C870 C 0.57385 0.792 0.83619 0.0
C871 C 0.57678 0.77258 0.79844 0.0
C872 C 0.5918 0.80806 0.82762 0.0
C873 C 0.57189 0.78559 0.89722 0.0
C874 C 0.55216 0.79049 0.91806 0.0
C875 C 0.54709 0.78694 0.97423 0.0
C876 C 0.56264 0.77852 0.01006 0.0
C877 C 0.58318 0.77395 0.98996 0.0
C878 C 0.58758 0.77724 0.93241 0.0
H879 H 0.97583 0.85439 0.69723 0.0
H880 H 0.02224 0.80765 0.74551 0.0
H881 H 0.00937 0.78401 0.66927 0.0
H882 H 0.93426 0.81777 0.6689 0.0
H883 H 0.92377 0.83335 0.61229 0.0
H884 H 0.93755 0.84603 0.66885 0.0
H885 H 0.96313 0.86325 0.59749 0.0
H886 H 0.94959 0.85037 0.54075 0.0
H887 H 0.97762 0.84674 0.54955 0.0
H888 H 0.99055 0.7659 0.58219 0.0
H889 H 0.96606 0.75442 0.50632 0.0
H890 H 0.93186 0.81325 0.5227 0.0
C891 C 0.98342 0.83921 0.69178 0.0
C892 C 1.00018 0.83294 0.72702 0.0
C893 C 0.00934 0.81276 0.71907 0.0
C894 C 1.00219 0.79933 0.67559 0.0
C895 C 0.98566 0.8062 0.64106 0.0
C896 C 0.97627 0.82563 0.64973 0.0
C897 C 0.95814 0.82933 0.60981 0.0
C898 C 0.9372 0.83175 0.64188 0.0
C899 C 0.96239 0.84856 0.57218 0.0
C900 C 0.95867 0.80905 0.57662 0.0
C901 C 0.97473 0.79585 0.59426 0.0
C902 C 0.97795 0.77621 0.56852 0.0
C903 C 0.9641 0.76986 0.52508 0.0
C904 C 0.9471 0.78297 0.50848 0.0
C905 C 0.94472 0.80286 0.53436 0.0
H906 H 0.97056 0.19408 0.25849 0.0
H907 H 0.02981 0.18136 0.34177 0.0
H908 H 0.01789 0.20199 0.42394 0.0
H909 H 0.9605 0.24818 0.32117 0.0
H910 H 0.93265 0.24284 0.32724 0.0
H911 H 0.94768 0.23114 0.27124 0.0
H912 H 0.93484 0.19412 0.30248 0.0
H913 H 0.92013 0.20572 0.35898 0.0
H914 H 0.93952 0.18561 0.37337 0.0
H915 H 0.99751 0.22061 0.50231 0.0
H916 H 0.9705 0.23411 0.56863 0.0
H917 H 0.92401 0.23286 0.43561 0.0
C918 C 0.98137 0.19658 0.29295 0.0
C919 C 1.00145 0.18683 0.29294 0.0
C920 C 0.01467 0.18929 0.34025 0.0
C921 C 0.00796 0.20091 0.38724 0.0
C922 C 0.98779 0.20982 0.38683 0.0
C923 C 0.97472 0.20785 0.34066 0.0
C924 C 0.95291 0.21663 0.35319 0.0
C925 C 0.94817 0.23584 0.316 0.0
C926 C 0.93586 0.1995 0.34663 0.0
C927 C 0.9555 0.22314 0.41396 0.0
C928 C 0.97583 0.21954 0.43245 0.0
C929 C 0.9816 0.22366 0.48794 0.0
C930 C 0.96617 0.23135 0.52544 0.0
C931 C 0.94508 0.2345 0.50767 0.0
C932 C 0.93995 0.23059 0.45084 0.0
H933 H 0.57261 0.17982 0.25634 0.0
H934 H 0.50849 0.20339 0.25623 0.0
H935 H 0.51725 0.22666 0.17541 0.0
H936 H 0.59853 0.22951 0.21877 0.0
H937 H 0.61811 0.21613 0.17709 0.0
H938 H 0.60653 0.20303 0.23647 0.0
H939 H 0.59542 0.17195 0.17239 0.0
H940 H 0.60661 0.18511 0.11267 0.0
H941 H 0.5793 0.17712 0.11177 0.0
H942 H 0.53379 0.24536 0.08588 0.0
H943 H 0.55636 0.25907 0.00841 0.0
H944 H 0.60899 0.22283 0.07308 0.0
C945 C 0.56051 0.19027 0.24025 0.0
C946 C 0.53996 0.19003 0.26317 0.0
C947 C 0.52449 0.20369 0.24026 0.0
C948 C 0.52931 0.21678 0.1939 0.0
C949 C 0.54974 0.21619 0.17135 0.0
C950 C 0.56512 0.20345 0.19485 0.0
C951 C 0.58576 0.20503 0.16338 0.0
C952 C 0.60326 0.21396 0.20118 0.0
C953 C 0.59213 0.18353 0.1386 0.0
C954 C 0.57979 0.22049 0.11791 0.0
C955 C 0.55897 0.2268 0.12235 0.0
C956 C 0.55015 0.24059 0.08279 0.0
C957 C 0.56303 0.24824 0.03863 0.0
C958 C 0.58454 0.24223 0.03466 0.0
C959 C 0.59272 0.22806 0.07495 0.0
H960 H 0.9351 0.63459 0.70396 0.0
H961 H 0.92603 0.68611 0.81998 0.0
H962 H 0.90265 0.70393 0.75153 0.0
H963 H 0.94409 0.66507 0.59452 0.0
H964 H 0.9319 0.64863 0.54212 0.0
H965 H 0.94177 0.63699 0.60517 0.0
H966 H 0.90492 0.62087 0.62545 0.0
H967 H 0.89488 0.6325 0.56196 0.0
H968 H 0.88204 0.63777 0.62779 0.0
H969 H 0.88608 0.71862 0.66633 0.0
H970 H 0.88158 0.73128 0.56991 0.0
H971 H 0.90452 0.67131 0.507 0.0
C972 C 0.92726 0.6491 0.71578 0.0
C973 C 0.93173 0.65885 0.76731 0.0
C974 C 0.92233 0.67839 0.78079 0.0
C975 C 0.90897 0.68844 0.74241 0.0
C976 C 0.90541 0.67873 0.69083 0.0
C977 C 0.91441 0.65949 0.67741 0.0
C978 C 0.91205 0.65447 0.61591 0.0
C979 C 0.93373 0.65112 0.58784 0.0
C980 C 0.89761 0.63526 0.60729 0.0
C981 C 0.90153 0.67449 0.596 0.0
C982 C 0.89703 0.68788 0.64013 0.0
C983 C 0.88928 0.70816 0.63156 0.0
C984 C 0.88703 0.7153 0.57653 0.0
C985 C 0.89311 0.7024 0.53082 0.0
C986 C 0.89946 0.68142 0.54087 0.0
H987 H 0.60145 0.71689 0.95812 0.0
H988 H 0.6376 0.6644 0.02407 0.0
H989 H 0.62872 0.64331 0.94 0.0
H990 H 0.55952 0.68657 0.89695 0.0
H991 H 0.55712 0.70381 0.83731 0.0
H992 H 0.56624 0.71413 0.90309 0.0
H993 H 0.59996 0.72818 0.85408 0.0
H994 H 0.59095 0.71761 0.78836 0.0
H995 H 0.61647 0.7102 0.81531 0.0
H996 H 0.61521 0.6281 0.85036 0.0
H997 H 0.59658 0.61883 0.76378 0.0
H998 H 0.57134 0.68255 0.75449 0.0
C999 C 0.60716 0.70082 0.95535 0.0
C1000 C 0.61997 0.69205 0.9975 0.0
C1001 C 0.6277 0.67122 0.9919 0.0
C1002 C 0.62281 0.65924 0.94446 0.0
C1003 C 0.61041 0.66853 0.90314 0.0
C1004 C 0.60264 0.68881 0.90822 0.0
C1005 C 0.58971 0.69519 0.85798 0.0
C1006 C 0.5668 0.7002 0.87487 0.0
C1007 C 0.59989 0.7139 0.8271 0.0
C1008 C 0.59113 0.67513 0.82413 0.0
C1009 C 0.60319 0.65999 0.85073 0.0
C1010 C 0.60588 0.63986 0.82878 0.0
C1011 C 0.59533 0.63481 0.77915 0.0
C1012 C 0.5823 0.6499 0.75209 0.0
C1013 C 0.58087 0.67051 0.77421 0.0
H1014 H 0.63056 0.31511 0.07103 0.0
H1015 H 0.59922 0.36105 0.96585 0.0
H1016 H 0.59049 0.38226 0.04886 0.0
H1017 H 0.59417 0.31147 0.16517 0.0
H1018 H 0.61049 0.30883 0.22654 0.0
H1019 H 0.62074 0.30146 0.15963 0.0
H1020 H 0.6522 0.32713 0.17297 0.0
H1021 H 0.64196 0.33463 0.24052 0.0
H1022 H 0.64728 0.35453 0.18851 0.0
H1023 H 0.576 0.39196 0.13969 0.0
H1024 H 0.55689 0.38888 0.22801 0.0
H1025 H 0.59887 0.33834 0.27928 0.0
C1026 C 0.62249 0.33001 0.06557 0.0
C1027 C 0.61548 0.33643 0.01234 0.0
C1028 C 0.60495 0.35598 1.0063 0.0
C1029 C 0.60001 0.36818 0.05328 0.0
C1030 C 0.60609 0.36082 0.10579 0.0
C1031 C 0.61749 0.34232 0.11213 0.0
C1032 C 0.61877 0.33578 0.17284 0.0
C1033 C 0.61053 0.31307 0.18148 0.0
C1034 C 0.6414 0.33817 0.19501 0.0
C1035 C 0.60427 0.35205 0.19872 0.0
C1036 C 0.5978 0.36685 0.15981 0.0
C1037 C 0.58148 0.38096 0.17112 0.0
C1038 C 0.57062 0.37903 0.22183 0.0
C1039 C 0.57605 0.36298 0.26055 0.0
C1040 C 0.59412 0.35053 0.2503 0.0
H1041 H 0.93274 0.29839 0.46666 0.0
H1042 H 0.88851 0.34654 0.51979 0.0
H1043 H 0.89291 0.36476 0.42852 0.0
H1044 H 0.96804 0.33236 0.40045 0.0
H1045 H 0.97459 0.31406 0.34543 0.0
H1046 H 0.96621 0.30432 0.4124 0.0
H1047 H 0.93631 0.283 0.36447 0.0
H1048 H 0.94462 0.29278 0.29723 0.0
H1049 H 0.91771 0.2964 0.31983 0.0
H1050 H 0.9038 0.37822 0.33249 0.0
H1051 H 0.92293 0.38749 0.24492 0.0
H1052 H 0.95963 0.33017 0.25864 0.0
C1053 C 0.92365 0.31253 0.45865 0.0
C1054 C 0.9101 0.321 0.49947 0.0
C1055 C 0.89898 0.33992 0.4886 0.0
C1056 C 0.90123 0.35018 0.43691 0.0
C1057 C 0.91467 0.34123 0.39722 0.0
C1058 C 0.92581 0.32291 0.40792 0.0
C1059 C 0.9406 0.31728 0.36093 0.0
C1060 C 0.96372 0.31701 0.38103 0.0
C1061 C 0.93442 0.29612 0.33401 0.0
C1062 C 0.93636 0.33553 0.32224 0.0
C1063 C 0.92114 0.34906 0.34314 0.0
C1064 C 0.91557 0.36764 0.31545 0.0
C1065 C 0.92635 0.37275 0.26595 0.0
C1066 C 0.94257 0.35945 0.24597 0.0
C1067 C 0.94718 0.34045 0.27357 0.0
H1068 H 0.0651 0.34765 0.28512 0.0
H1069 H 1.00567 0.31462 0.26726 0.0
H1070 H 0.01544 0.29124 0.34708 0.0
H1071 H 0.09668 0.30131 0.31948 0.0
H1072 H 0.11327 0.31602 0.3667 0.0
H1073 H 0.1013 0.32903 0.30776 0.0
H1074 H 0.08456 0.35649 0.37483 0.0
H1075 H 0.09617 0.34337 0.43403 0.0
H1076 H 0.06804 0.34756 0.43151 0.0
H1077 H 0.03215 0.27291 0.43644 0.0
H1078 H 0.05482 0.25991 0.51445 0.0
H1079 H 0.10302 0.30504 0.46713 0.0
C1080 C 0.05423 0.33529 0.29746 0.0
C1081 C 0.03467 0.33287 0.26994 0.0
C1082 C 0.02088 0.31654 0.28732 0.0
C1083 C 0.02626 0.30332 0.33294 0.0
C1084 C 0.04564 0.30646 0.36002 0.0
C1085 C 0.0595 0.32188 0.34182 0.0
C1086 C 0.07944 0.32227 0.37654 0.0
C1087 C 0.09881 0.31683 0.34047 0.0
C1088 C 0.0822 0.34369 0.40596 0.0
C1089 C 0.07468 0.30493 0.41808 0.0
C1090 C 0.05512 0.29593 0.40865 0.0
C1091 C 0.04753 0.27983 0.44354 0.0
C1092 C 0.06043 0.27262 0.48807 0.0
C1093 C 0.08075 0.28136 0.49694 0.0
C1094 C 0.08766 0.29783 0.46146 0.0
H1095 H 0.44942 0.29387 0.99581 0.0
H1096 H 0.42583 0.23908 0.08385 0.0
H1097 H 0.44518 0.25001 0.16887 0.0
H1098 H 0.50212 0.29777 0.07001 0.0
H1099 H 0.50076 0.32618 0.07123 0.0
H1100 H 0.48882 0.31172 0.01454 0.0
H1101 H 0.45316 0.33024 0.03462 0.0
H1102 H 0.46486 0.34452 0.0917 0.0
H1103 H 0.44178 0.32849 0.1036 0.0
H1104 H 0.46302 0.26972 0.24863 0.0
H1105 H 0.47801 0.29611 0.31428 0.0
H1106 H 0.4888 0.33861 0.17492 0.0
C1107 C 0.44923 0.2837 0.0322 0.0
C1108 C 0.4367 0.26527 0.03283 0.0
C1109 C 0.4358 0.25297 0.08221 0.0
C1110 C 0.44667 0.25911 0.13078 0.0
C1111 C 0.45826 0.27782 0.12973 0.0
C1112 C 0.45974 0.28987 0.08149 0.0
C1113 C 0.47111 0.31048 0.09312 0.0
C1114 C 0.49194 0.3116 0.06028 0.0
C1115 C 0.45688 0.32954 0.07999 0.0
C1116 C 0.47514 0.30847 0.1555 0.0
C1117 C 0.46793 0.28941 0.17585 0.0
C1118 C 0.46899 0.28458 0.23291 0.0
C1119 C 0.47749 0.29967 0.27001 0.0
C1120 C 0.48464 0.31946 0.25007 0.0
C1121 C 0.4836 0.32364 0.19183 0.0
H1122 H 0.42543 0.73526 0.91783 0.0
H1123 H 0.46998 0.72966 0.05468 0.0
H1124 H 0.49632 0.71446 0.98931 0.0
H1125 H 0.43632 0.68749 0.85513 0.0
H1126 H 0.43347 0.69656 0.78408 0.0
H1127 H 0.41958 0.70974 0.83957 0.0
H1128 H 0.43651 0.74518 0.81046 0.0
H1129 H 0.45073 0.7322 0.75494 0.0
H1130 H 0.46483 0.74743 0.80652 0.0
H1131 H 0.51569 0.69485 0.91149 0.0
H1132 H 0.52635 0.67356 0.82935 0.0
H1133 H 0.46971 0.6928 0.7421 0.0
C1134 C 0.4409 0.73129 0.93401 0.0
C1135 C 0.4456 0.73375 0.9917 0.0
C1136 C 0.46601 0.72817 0.01082 0.0
C1137 C 0.48107 0.71947 0.97385 0.0
C1138 C 0.47564 0.71669 0.91757 0.0
C1139 C 0.45608 0.7227 0.89768 0.0
C1140 C 0.45349 0.71673 0.83646 0.0
C1141 C 0.4346 0.70174 0.82837 0.0
C1142 C 0.45126 0.73657 0.79994 0.0
C1143 C 0.4743 0.70557 0.82531 0.0
C1144 C 0.48698 0.70594 0.8725 0.0
C1145 C 0.50609 0.69496 0.87406 0.0
C1146 C 0.51209 0.68296 0.82711 0.0
C1147 C 0.49924 0.68213 0.7787 0.0
C1148 C 0.48029 0.69392 0.77756 0.0
H1149 H 0.04803 0.69723 0.76033 0.0
H1150 H 0.98993 0.68738 0.66901 0.0
H1151 H 1.00387 0.70866 0.59028 0.0
H1152 H 0.06084 0.7517 0.70361 0.0
H1153 H 0.08859 0.74562 0.70001 0.0
H1154 H 0.07239 0.73373 0.75343 0.0
H1155 H 0.08443 0.69663 0.72079 0.0
H1156 H 0.10048 0.70836 0.66711 0.0
H1157 H 0.08072 0.68909 0.64874 0.0
H1158 H 0.02611 0.72741 0.51617 0.0
H1159 H 0.05469 0.7403 0.45388 0.0
H1160 H 0.09888 0.73615 0.5919 0.0
C1161 C 0.03791 0.70048 0.72486 0.0
C1162 C 0.01757 0.69137 0.72159 0.0
C1163 C 1.00526 0.69481 0.67303 0.0
C1164 C 0.01312 0.70682 0.62801 0.0
C1165 C 0.03351 0.71509 0.63164 0.0
C1166 C 0.04572 0.71213 0.67907 0.0
C1167 C 0.068 0.7203 0.66984 0.0
C1168 C 0.07273 0.73894 0.70906 0.0
C1169 C 0.08436 0.70254 0.67703 0.0
C1170 C 0.06667 0.72757 0.6094 0.0
C1171 C 0.04655 0.72491 0.58834 0.0
C1172 C 0.04186 0.72974 0.53258 0.0
C1173 C 0.05819 0.7371 0.49739 0.0
C1174 C 0.07908 0.73926 0.51771 0.0
C1175 C 0.08311 0.73473 0.57483 0.0
H1176 H 0.42118 0.19022 0.752 0.0
H1177 H 0.44417 0.2545 0.73997 0.0
H1178 H 0.46707 0.2439 0.66011 0.0
H1179 H 0.47048 0.16441 0.71994 0.0
H1180 H 0.4577 0.14346 0.68184 0.0
H1181 H 0.44404 0.15645 0.73821 0.0
H1182 H 0.41309 0.16536 0.67124 0.0
H1183 H 0.42668 0.15246 0.6147 0.0
H1184 H 0.41839 0.17953 0.60738 0.0
H1185 H 0.48689 0.22502 0.57644 0.0
H1186 H 0.50092 0.20071 0.50348 0.0
H1187 H 0.46413 0.14976 0.57546 0.0
C1188 C 0.43102 0.20219 0.7329 0.0
C1189 C 0.43074 0.22327 0.75238 0.0
C1190 C 0.4441 0.23824 0.72603 0.0
C1191 C 0.45714 0.23234 0.68051 0.0
C1192 C 0.45679 0.21135 0.66208 0.0
C1193 C 0.44408 0.19657 0.6881 0.0
C1194 C 0.44611 0.17509 0.66117 0.0
C1195 C 0.45512 0.1589 0.70277 0.0
C1196 C 0.42481 0.16769 0.6372 0.0
C1197 C 0.46174 0.17993 0.61516 0.0
C1198 C 0.46791 0.20085 0.6159 0.0
C1199 C 0.48211 0.20863 0.57596 0.0
C1200 C 0.49001 0.19471 0.53454 0.0
C1201 C 0.48369 0.17324 0.5333 0.0
C1202 C 0.46944 0.166 0.57469 0.0
H1203 H 0.06936 0.15926 0.98743 0.0
H1204 H 0.01288 0.19688 0.0112 0.0
H1205 H 0.02341 0.21934 0.93038 0.0
H1206 H 0.10406 0.20159 0.94988 0.0
H1207 H 0.11835 0.1858 0.8999 0.0
H1208 H 0.10614 0.17345 0.95949 0.0
H1209 H 0.08548 0.14838 0.89355 0.0
H1210 H 0.09762 0.16065 0.83378 0.0
H1211 H 0.06926 0.1594 0.83892 0.0
H1212 H 0.04149 0.23777 0.84279 0.0
H1213 H 0.0639 0.2488 0.76229 0.0
H1214 H 0.1074 0.19794 0.80028 0.0
C1215 C 0.05907 0.1722 0.97605 0.0
C1216 C 0.04022 0.1762 1.00609 0.0
C1217 C 0.02742 0.19344 0.98917 0.0
C1218 C 0.03331 0.20628 0.94318 0.0
C1219 C 0.05208 0.20175 0.91447 0.0
C1220 C 0.06468 0.18503 0.93074 0.0
C1221 C 0.08395 0.18295 0.89378 0.0
C1222 C 0.10432 0.18614 0.9278 0.0
C1223 C 0.08407 0.16158 0.8632 0.0
C1224 C 0.08037 0.20101 0.85354 0.0
C1225 C 0.06202 0.21187 0.86573 0.0
C1226 C 0.05585 0.22923 0.83324 0.0
C1227 C 0.06867 0.23542 0.78746 0.0
C1228 C 0.08746 0.22426 0.77435 0.0
C1229 C 0.09318 0.20691 0.80846 0.0
H1230 H 0.07041 0.85731 0.04336 0.0
H1231 H 0.01991 0.8142 0.99939 0.0
H1232 H 0.03108 0.79045 0.0771 0.0
H1233 H 0.10905 0.81888 0.07626 0.0
H1234 H 0.12012 0.83424 0.13251 0.0
H1235 H 0.10754 0.84729 0.0746 0.0
H1236 H 0.08244 0.86665 0.14324 0.0
H1237 H 0.09493 0.85364 0.2014 0.0
H1238 H 0.0668 0.85148 0.19174 0.0
H1239 H 0.04957 0.77109 0.16359 0.0
H1240 H 0.07242 0.75937 0.24258 0.0
H1241 H 0.10963 0.81637 0.22443 0.0
C1242 C 0.0615 0.84293 0.04965 0.0
C1243 C 0.04419 0.83774 0.01478 0.0
C1244 C 0.03322 0.81861 0.02527 0.0
C1245 C 0.03948 0.80503 0.06948 0.0
C1246 C 0.05674 0.81077 0.10297 0.0
C1247 C 0.06748 0.82939 0.09305 0.0
C1248 C 0.08557 0.83238 0.1335 0.0
C1249 C 0.10682 0.83324 0.10235 0.0
C1250 C 0.08222 0.85221 0.1696 0.0
C1251 C 0.08364 0.81251 0.16804 0.0
C1252 C 0.06696 0.80009 0.15054 0.0
C1253 C 0.06259 0.78087 0.17729 0.0
C1254 C 0.07562 0.77432 0.22234 0.0
C1255 C 0.09294 0.78687 0.24002 0.0
C1256 C 0.09668 0.80623 0.21222 0.0
H1257 H 0.41592 0.80902 0.28978 0.0
H1258 H 0.45629 0.75474 0.26251 0.0
H1259 H 0.47857 0.76592 0.34308 0.0
H1260 H 0.45615 0.8457 0.32707 0.0
H1261 H 0.44 0.85875 0.37861 0.0
H1262 H 0.42785 0.84615 0.31933 0.0
H1263 H 0.40466 0.82362 0.38586 0.0
H1264 H 0.4167 0.8362 0.44533 0.0
H1265 H 0.41713 0.80785 0.43921 0.0
H1266 H 0.49708 0.78502 0.42959 0.0
H1267 H 0.50763 0.8079 0.50972 0.0
H1268 H 0.4537 0.84814 0.47652 0.0
C1269 C 0.42944 0.79936 0.30033 0.0
C1270 C 0.4343 0.78097 0.26918 0.0
C1271 C 0.45215 0.76889 0.28543 0.0
C1272 C 0.46493 0.77518 0.33121 0.0
C1273 C 0.45965 0.79356 0.36073 0.0
C1274 C 0.44215 0.8053 0.34566 0.0
C1275 C 0.43927 0.82422 0.38349 0.0
C1276 C 0.44092 0.84492 0.35013 0.0
C1277 C 0.4182 0.82288 0.41536 0.0
C1278 C 0.45786 0.82152 0.42252 0.0
C1279 C 0.46966 0.80389 0.40917 0.0
C1280 C 0.48777 0.79878 0.44014 0.0
C1281 C 0.49371 0.81188 0.48567 0.0
C1282 C 0.48152 0.82986 0.50017 0.0
C1283 C 0.46345 0.83452 0.46747 0.0
H1284 H 0.56407 0.86995 0.46484 0.0
H1285 H 0.61171 0.84023 0.56821 0.0
H1286 H 0.63355 0.8338 0.48452 0.0
H1287 H 0.56371 0.83401 0.36536 0.0
H1288 H 0.55982 0.85132 0.30642 0.0
H1289 H 0.55118 0.85933 0.37455 0.0
H1290 H 0.57376 0.89333 0.36722 0.0
H1291 H 0.58249 0.88541 0.29854 0.0
H1292 H 0.60158 0.89138 0.35215 0.0
H1293 H 0.64521 0.82253 0.39152 0.0
H1294 H 0.646 0.80765 0.29612 0.0
H1295 H 0.59116 0.84466 0.25158 0.0
C1296 C 0.57936 0.86258 0.46989 0.0
C1297 C 0.58622 0.85544 0.52263 0.0
C1298 C 0.60632 0.84597 0.52807 0.0
C1299 C 0.61884 0.84235 0.4808 0.0
C1300 C 0.61113 0.84866 0.42881 0.0
C1301 C 0.59194 0.85886 0.42317 0.0
C1302 C 0.58556 0.86093 0.36251 0.0
C1303 C 0.56381 0.85078 0.35163 0.0
C1304 C 0.58588 0.88415 0.34402 0.0
C1305 C 0.6032 0.84863 0.3352 0.0
C1306 C 0.61814 0.84225 0.37398 0.0
C1307 C 0.63407 0.82799 0.36042 0.0
C1308 C 0.6343 0.81949 0.3065 0.0
C1309 C 0.6187 0.82528 0.26715 0.0
C1310 C 0.60355 0.84062 0.28086 0.0
H1311 H 0.93173 0.84614 0.24841 0.0
H1312 H 0.88091 0.80407 0.20179 0.0
H1313 H 0.88319 0.81659 0.10406 0.0
H1314 H 0.92044 0.88961 0.14119 0.0
H1315 H 0.94833 0.89342 0.13009 0.0
H1316 H 0.9387 0.88578 0.19813 0.0
H1317 H 0.96391 0.85355 0.19723 0.0
H1318 H 0.97339 0.86087 0.12926 0.0
H1319 H 0.96243 0.83495 0.14027 0.0
H1320 H 0.89545 0.82824 0.01033 0.0
H1321 H 0.91759 0.83718 0.92817 0.0
H1322 H 0.961 0.87073 0.03602 0.0
C1323 C 0.92045 0.8404 0.218 0.0
C1324 C 0.90603 0.82441 0.23213 0.0
C1325 C 0.89202 0.81643 0.19124 0.0
C1326 C 0.89309 0.82357 0.13594 0.0
C1327 C 0.90822 0.8387 0.12256 0.0
C1328 C 0.92159 0.84714 0.16259 0.0
C1329 C 0.93882 0.86031 0.13632 0.0
C1330 C 0.93642 0.88367 0.15238 0.0
C1331 C 0.96092 0.8519 0.15166 0.0
C1332 C 0.93387 0.85684 0.07528 0.0
C1333 C 0.9158 0.84492 0.06804 0.0
C1334 C 0.90933 0.83801 0.01535 0.0
C1335 C 0.92195 0.84306 0.96907 0.0
C1336 C 0.94092 0.85445 0.97639 0.0
C1337 C 0.94656 0.8619 0.02976 0.0
H1338 H 0.91869 0.2189 0.81455 0.0
H1339 H 0.89999 0.15886 0.74266 0.0
H1340 H 0.90499 0.14183 0.8352 0.0
H1341 H 0.96001 0.2001 0.89571 0.0
H1342 H 0.95531 0.2179 0.95317 0.0
H1343 H 0.94783 0.22542 0.88349 0.0
H1344 H 0.90956 0.23188 0.91689 0.0
H1345 H 0.91657 0.22408 0.98705 0.0
H1346 H 0.89525 0.211 0.95125 0.0
H1347 H 0.91435 0.13135 0.93492 0.0
H1348 H 0.93025 0.12782 0.02951 0.0
H1349 H 0.94409 0.19459 0.03129 0.0
C1350 C 0.91584 0.20211 0.81765 0.0
C1351 C 0.90925 0.1901 0.77112 0.0
C1352 C 0.90505 0.16831 0.7779 0.0
C1353 C 0.90778 0.15857 0.83022 0.0
C1354 C 0.9145 0.17096 0.87507 0.0
C1355 C 0.91855 0.19225 0.86899 0.0
C1356 C 0.92685 0.202 0.92215 0.0
C1357 C 0.9488 0.21192 0.91305 0.0
C1358 C 0.91112 0.21821 0.9457 0.0
C1359 C 0.9279 0.18265 0.95865 0.0
C1360 C 0.92012 0.16498 0.93154 0.0
C1361 C 0.92023 0.14512 0.95672 0.0
C1362 C 0.9291 0.14325 0.01027 0.0
C1363 C 0.93795 0.16105 0.037 0.0
C1364 C 0.93699 0.18096 0.01145 0.0
H1365 H 0.55172 0.17133 0.57059 0.0
H1366 H 0.6098 0.14487 0.50361 0.0
H1367 H 0.62747 0.15171 0.59346 0.0
H1368 H 0.57643 0.21365 0.64298 0.0
H1369 H 0.55812 0.21297 0.70066 0.0
H1370 H 0.54977 0.20453 0.63231 0.0
H1371 H 0.5383 0.16851 0.67368 0.0
H1372 H 0.5469 0.1767 0.74214 0.0
H1373 H 0.55719 0.15279 0.71169 0.0
H1374 H 0.63916 0.16243 0.68974 0.0
H1375 H 0.64492 0.17967 0.78104 0.0
H1376 H 0.57949 0.19975 0.78347 0.0
C1377 C 0.56817 0.16705 0.57412 0.0
C1378 C 0.57922 0.15733 0.52958 0.0
C1379 C 0.60077 0.15194 0.53711 0.0
C1380 C 0.611 0.15578 0.58809 0.0
C1381 C 0.59951 0.16512 0.63111 0.0
C1382 C 0.57866 0.17092 0.62438 0.0
C1383 C 0.57018 0.1819 0.67586 0.0
C1384 C 0.56323 0.2046 0.66212 0.0
C1385 C 0.55207 0.16921 0.7024 0.0
C1386 C 0.58965 0.18162 0.71239 0.0
C1387 C 0.60632 0.17161 0.68618 0.0
C1388 C 0.62618 0.17016 0.7109 0.0
C1389 C 0.62926 0.17983 0.763 0.0
C1390 C 0.61261 0.19096 0.78937 0.0
C1391 C 0.59246 0.19131 0.76424 0.0
H1392 H 0.97256 0.65734 0.06528 0.0
H1393 H 0.98054 0.71118 0.95581 0.0
H1394 H 0.97089 0.73516 0.03402 0.0
H1395 H 0.92917 0.67553 0.14373 0.0
H1396 H 0.93832 0.66545 0.20992 0.0
H1397 H 0.94624 0.65277 0.14589 0.0
H1398 H 0.98566 0.65757 0.17236 0.0
H1399 H 0.97778 0.66996 0.23691 0.0
H1400 H 0.99534 0.68351 0.18969 0.0
H1401 H 0.95612 0.75278 0.12308 0.0
H1402 H 0.94331 0.76286 0.21749 0.0
H1403 H 0.94912 0.69785 0.27145 0.0
C1404 C 0.97249 0.67422 0.05804 0.0
C1405 C 0.97717 0.68245 1.00442 0.0
C1406 C 0.97709 0.70459 0.99659 0.0
C1407 C 0.97152 0.71828 0.04075 0.0
C1408 C 0.96661 0.70963 0.093 0.0
C1409 C 0.96763 0.68811 0.1021 0.0
C1410 C 0.96229 0.68278 0.16242 0.0
C1411 C 0.94285 0.66828 0.16565 0.0
C1412 C 0.9814 0.67287 0.1921 0.0
C1413 C 0.95745 0.70457 0.18562 0.0
C1414 C 0.95977 0.71986 0.1448 0.0
C1415 C 0.9547 0.74095 0.15551 0.0
C1416 C 0.94735 0.74654 0.2092 0.0
C1417 C 0.94555 0.73124 0.25213 0.0
C1418 C 0.95076 0.71 0.23989 0.0
H1419 H 0.59435 0.68953 0.25522 0.0
H1420 H 0.57589 0.75506 0.27363 0.0
H1421 H 0.55535 0.74555 0.3588 0.0
H1422 H 0.54564 0.66581 0.30153 0.0
H1423 H 0.55899 0.64452 0.33683 0.0
H1424 H 0.5709 0.6567 0.27652 0.0
H1425 H 0.60462 0.66473 0.33419 0.0
H1426 H 0.59285 0.65252 0.39453 0.0
H1427 H 0.60237 0.67928 0.39871 0.0
H1428 H 0.5367 0.72735 0.44593 0.0
H1429 H 0.52518 0.70394 0.52404 0.0
H1430 H 0.55767 0.65157 0.44553 0.0
C1431 C 0.58589 0.70201 0.27655 0.0
C1432 C 0.58671 0.7231 0.25703 0.0
C1433 C 0.57549 0.73877 0.28729 0.0
C1434 C 0.56374 0.73346 0.33578 0.0
C1435 C 0.56338 0.71241 0.35379 0.0
C1436 C 0.57435 0.69704 0.32478 0.0
C1437 C 0.57255 0.67574 0.35294 0.0
C1438 C 0.56135 0.65976 0.31467 0.0
C1439 C 0.59439 0.6676 0.37118 0.0
C1440 C 0.559 0.68133 0.40287 0.0
C1441 C 0.55352 0.70244 0.40288 0.0
C1442 C 0.54101 0.71083 0.44592 0.0
C1443 C 0.53441 0.69741 0.49009 0.0
C1444 C 0.54058 0.6759 0.49134 0.0
C1445 C 0.55276 0.66794 0.44642 0.0
H1446 H 0.56715 0.32892 0.49876 0.0
H1447 H 0.50273 0.32891 0.5594 0.0
H1448 H 0.51417 0.30834 0.64299 0.0
H1449 H 0.58097 0.27564 0.54689 0.0
H1450 H 0.60762 0.2835 0.56319 0.0
H1451 H 0.59351 0.2964 0.50742 0.0
H1452 H 0.60026 0.33268 0.55437 0.0
H1453 H 0.61428 0.31991 0.61025 0.0
H1454 H 0.59211 0.33676 0.62582 0.0
H1455 H 0.53495 0.29038 0.72634 0.0
H1456 H 0.56145 0.27696 0.79454 0.0
H1457 H 0.61095 0.28841 0.67293 0.0
C1458 C 0.55533 0.32436 0.5292 0.0
C1459 C 0.53407 0.33053 0.5227 0.0
C1460 C 0.51909 0.32417 0.56336 0.0
C1461 C 0.52551 0.31255 0.61102 0.0
C1462 C 0.54685 0.30711 0.61668 0.0
C1463 C 0.56138 0.31264 0.57602 0.0
C1464 C 0.58346 0.3058 0.59149 0.0
C1465 C 0.59188 0.28935 0.54977 0.0
C1466 C 0.59839 0.32492 0.59575 0.0
C1467 C 0.57943 0.29605 0.64813 0.0
C1468 C 0.5583 0.29674 0.66244 0.0
C1469 C 0.55145 0.28958 0.71486 0.0
C1470 C 0.56661 0.28193 0.75342 0.0
C1471 C 0.58837 0.28156 0.7394 0.0
C1472 C 0.59452 0.28835 0.68545 0.0
H1473 H 0.96287 0.30879 0.04799 0.0
H1474 H 0.01547 0.33882 0.96351 0.0
H1475 H 1.00378 0.3229 0.87374 0.0
H1476 H 0.96152 0.26009 0.96555 0.0
H1477 H 0.9331 0.25919 0.96633 0.0
H1478 H 0.94711 0.27105 0.02378 0.0
H1479 H 0.92566 0.30556 0.01 0.0
H1480 H 0.91167 0.29363 0.9527 0.0
H1481 H 0.92554 0.31817 0.9424 0.0
H1482 H 0.98481 0.304 0.79133 0.0
H1483 H 0.95899 0.28792 0.72562 0.0
H1484 H 0.91838 0.27231 0.86535 0.0
C1485 C 0.97219 0.3118 0.01085 0.0
C1486 C 0.99026 0.3249 0.01306 0.0
C1487 C 1.00163 0.32877 0.96301 0.0
C1488 C 0.99514 0.3197 0.91186 0.0
C1489 C 0.97712 0.30692 0.91122 0.0
C1490 C 0.96576 0.30318 0.9596 0.0
C1491 C 0.94608 0.29035 0.94779 0.0
C1492 C 0.94703 0.26889 0.97766 0.0
C1493 C 0.92607 0.30267 0.96417 0.0
C1494 C 0.94778 0.28771 0.885 0.0
C1495 C 0.96599 0.29694 0.86449 0.0
C1496 C 0.97058 0.2967 0.80723 0.0
C1497 C 0.95592 0.28738 0.77015 0.0
C1498 C 0.93673 0.27882 0.79037 0.0
C1499 C 0.93295 0.27868 0.84866 0.0
H1500 H 0.09993 0.29569 0.81326 0.0
H1501 H 0.12378 0.35219 0.73199 0.0
H1502 H 0.12032 0.37166 0.82092 0.0
H1503 H 0.06041 0.32152 0.89116 0.0
H1504 H 0.06303 0.30439 0.9509 0.0
H1505 H 0.06941 0.29473 0.88224 0.0
H1506 H 0.10673 0.28429 0.91738 0.0
H1507 H 0.10057 0.2943 0.98604 0.0
H1508 H 0.1234 0.30401 0.94907 0.0
H1509 H 0.11219 0.38539 0.91701 0.0
H1510 H 0.09635 0.39324 0.00908 0.0
H1511 H 0.07764 0.32776 0.02582 0.0
C1512 C 0.10432 0.31217 0.81359 0.0
C1513 C 0.1122 0.32236 0.76542 0.0
C1514 C 0.11799 0.34394 0.76851 0.0
C1515 C 0.11612 0.35512 0.81884 0.0
C1516 C 0.10847 0.34447 0.86556 0.0
C1517 C 0.10245 0.32354 0.86313 0.0
C1518 C 0.09316 0.3161 0.91782 0.0
C1519 C 0.07015 0.30877 0.91004 0.0
C1520 C 0.10679 0.29864 0.94412 0.0
C1521 C 0.09442 0.33628 0.95113 0.0
C1522 C 0.10363 0.35239 0.92069 0.0
C1523 C 0.1052 0.37285 0.94157 0.0
C1524 C 0.09634 0.37713 0.99405 0.0
C1525 C 0.08588 0.36104 0.0244 0.0
C1526 C 0.08565 0.34027 1.00343 0.0
H1527 H 0.43457 0.34211 0.77524 0.0
H1528 H 0.3759 0.31158 0.73054 0.0
H1529 H 0.37677 0.32891 0.63788 0.0
H1530 H 0.42722 0.39227 0.68937 0.0
H1531 H 0.45474 0.39237 0.67015 0.0
H1532 H 0.44673 0.3822 0.73733 0.0
H1533 H 0.46567 0.34686 0.71541 0.0
H1534 H 0.47362 0.35684 0.64841 0.0
H1535 H 0.45882 0.33261 0.65271 0.0
H1536 H 0.38708 0.34402 0.54621 0.0
H1537 H 0.40706 0.3538 0.46134 0.0
H1538 H 0.45947 0.37408 0.56457 0.0
C1539 C 0.42152 0.33992 0.7466 0.0
C1540 C 0.40502 0.32591 0.75968 0.0
C1541 C 0.38856 0.32248 0.72084 0.0
C1542 C 0.38886 0.33236 0.6685 0.0
C1543 C 0.40579 0.34556 0.65581 0.0
C1544 C 0.42184 0.34938 0.69382 0.0
C1545 C 0.43993 0.3612 0.66693 0.0
C1546 C 0.44228 0.38333 0.69247 0.0
C1547 C 0.46071 0.34862 0.6711 0.0
C1548 C 0.43206 0.36239 0.60733 0.0
C1549 C 0.41208 0.35385 0.60202 0.0
C1550 C 0.40251 0.35121 0.54996 0.0
C1551 C 0.41392 0.35684 0.50199 0.0
C1552 C 0.43477 0.36462 0.50662 0.0
C1553 C 0.44355 0.36813 0.56002 0.0
H1554 H 0.46276 0.63611 0.46174 0.0
H1555 H 0.41247 0.66327 0.56116 0.0
H1556 H 0.39142 0.66885 0.47542 0.0
H1557 H 0.46263 0.67225 0.3624 0.0
H1558 H 0.4682 0.65518 0.3039 0.0
H1559 H 0.47633 0.64761 0.37281 0.0
H1560 H 0.45566 0.61249 0.36341 0.0
H1561 H 0.44744 0.61998 0.29396 0.0
H1562 H 0.42799 0.613 0.34581 0.0
H1563 H 0.38044 0.67961 0.38111 0.0
H1564 H 0.38024 0.69455 0.28573 0.0
H1565 H 0.43732 0.66028 0.24609 0.0
C1566 C 0.44709 0.64275 0.46546 0.0
C1567 C 0.43921 0.64945 0.51765 0.0
C1568 C 0.41863 0.65792 0.52138 0.0
C1569 C 0.40658 0.66103 0.47297 0.0
C1570 C 0.41526 0.6552 0.4216 0.0
C1571 C 0.43497 0.64595 0.41764 0.0
C1572 C 0.44225 0.64424 0.35758 0.0
C1573 C 0.46359 0.65551 0.3487 0.0
C1574 C 0.44339 0.62104 0.33911 0.0
C1575 C 0.42438 0.65562 0.32862 0.0
C1576 C 0.40865 0.66125 0.36609 0.0
C1577 C 0.39222 0.67469 0.35103 0.0
C1578 C 0.39228 0.68319 0.2971 0.0
C1579 C 0.40866 0.67822 0.25917 0.0
C1580 C 0.42434 0.66362 0.27421 0.0
H1581 H 0.07451 0.70233 0.24987 0.0
H1582 H 0.13467 0.66994 0.25743 0.0
H1583 H 0.12898 0.65618 0.16168 0.0
H1584 H 0.04606 0.66311 0.16448 0.0
H1585 H 0.03217 0.6834 0.1266 0.0
H1586 H 0.03996 0.68784 0.19807 0.0
H1587 H 0.05968 0.72183 0.16742 0.0
H1588 H 0.05237 0.71724 0.09577 0.0
H1589 H 0.0798 0.72016 0.11429 0.0
H1590 H 0.11806 0.64935 0.0607 0.0
H1591 H 0.10099 0.64708 0.96732 0.0
H1592 H 0.04934 0.6857 0.02781 0.0
C1593 C 0.08624 0.69194 0.23177 0.0
C1594 C 0.10494 0.6871 0.26073 0.0
C1595 C 0.12005 0.67352 0.23602 0.0
C1596 C 0.11704 0.66581 0.18158 0.0
C1597 C 0.0988 0.67179 0.15307 0.0
C1598 C 0.08352 0.68429 0.1778 0.0
C1599 C 0.06595 0.68964 0.13774 0.0
C1600 C 0.04479 0.68044 0.15792 0.0
C1601 C 0.06438 0.71363 0.12826 0.0
C1602 C 0.07386 0.67844 0.08625 0.0
C1603 C 0.09277 0.66818 0.09555 0.0
C1604 C 0.10314 0.65716 0.05309 0.0
C1605 C 0.09352 0.65614 1.00021 0.0
C1606 C 0.07384 0.66608 0.99089 0.0
C1607 C 0.06422 0.67766 0.03421 0.0
loop_
_geom_bond_atom_site_label_1
_geom_bond_atom_site_label_2
_geom_bond_distance
_geom_bond_site_symmetry_2
_ccdc_geom_bond_type
C0 C1 1.351 . S
C0 N3 1.368 . S
C0 H5 0.931 . S
C1 C0 1.351 . S
C1 N2 1.373 . S
C1 H29 0.930 . S
N2 C1 1.373 . S
N2 C4 1.340 . S
N3 C0 1.368 . S
N3 C4 1.321 . S
N3 Co6 2.135 . S
C4 N2 1.340 . S
C4 N3 1.321 . S
C4 H28 0.930 . S
H5 C0 0.931 . S
Co6 N3 2.135 . S
Co6 N9 2.121 . S
Co6 O14 2.055 . S
Co6 O17 2.039 . S
Co6 N20 2.140 . S
C7 O8 1.227 . S
C7 O17 1.265 . S
O8 C7 1.227 . S
N9 Co6 2.121 . S
N9 C11 1.375 . S
N9 C12 1.313 . S
C10 C11 1.338 . S
C10 N13 1.377 . S
C10 H30 0.930 . S
C11 N9 1.375 . S
C11 C10 1.338 . S
C11 H15 0.931 . S
C12 N9 1.313 . S
C12 N13 1.344 . S
C12 H16 0.930 . S
N13 C10 1.377 . S
N13 C12 1.344 . S
O14 Co6 2.055 . S
O14 C18 1.253 . S
H15 C11 0.931 . S
H16 C12 0.930 . S
O17 Co6 2.039 . S
O17 C7 1.265 . S
C18 O14 1.253 . S
C18 O19 1.227 . S
O19 C18 1.227 . S
N20 Co6 2.140 . S
N20 C23 1.346 . S
N20 C24 1.345 . S
C21 C22 1.387 . S
C21 C25 1.391 . S
C22 C21 1.387 . S
C22 C23 1.369 . S
C22 H31 0.929 . S
C23 N20 1.346 . S
C23 C22 1.369 . S
C23 H26 0.928 . S
C24 N20 1.345 . S
C24 C25 1.371 . S
C24 H27 0.931 . S
C25 C21 1.391 . S
C25 C24 1.371 . S
C25 H32 0.930 . S
H26 C23 0.928 . S
H27 C24 0.931 . S
H28 C4 0.930 . S
H29 C1 0.930 . S
H30 C10 0.930 . S
H31 C22 0.929 . S
H32 C25 0.930 . S
C33 C34 1.351 . S
C33 N36 1.368 . S
C33 H38 0.931 . S
C34 C33 1.351 . S
C34 N35 1.373 . S
C34 H62 0.930 . S
N35 C34 1.373 . S
N35 C37 1.340 . S
N36 C33 1.368 . S
N36 C37 1.321 . S
N36 Co39 2.135 . S
C37 N35 1.340 . S
C37 N36 1.321 . S
C37 H61 0.930 . S
H38 C33 0.931 . S
Co39 N36 2.135 . S
Co39 N42 2.121 . S
Co39 O47 2.055 . S
Co39 O50 2.039 . S
Co39 N53 2.140 . S
C40 O41 1.227 . S
C40 O50 1.265 . S
O41 C40 1.227 . S
N42 Co39 2.121 . S
N42 C44 1.375 . S
N42 C45 1.313 . S
C43 C44 1.338 . S
C43 N46 1.377 . S
C43 H63 0.930 . S
C44 N42 1.375 . S
C44 C43 1.338 . S
C44 H48 0.931 . S
C45 N42 1.313 . S
C45 N46 1.344 . S
C45 H49 0.930 . S
N46 C43 1.377 . S
N46 C45 1.344 . S
O47 Co39 2.055 . S
O47 C51 1.253 . S
H48 C44 0.931 . S
H49 C45 0.930 . S
O50 Co39 2.039 . S
O50 C40 1.265 . S
C51 O47 1.253 . S
C51 O52 1.227 . S
O52 C51 1.227 . S
N53 Co39 2.140 . S
N53 C56 1.346 . S
N53 C57 1.345 . S
C54 C55 1.387 . S
C54 C58 1.391 . S
C55 C54 1.387 . S
C55 C56 1.369 . S
C55 H64 0.929 . S
C56 N53 1.346 . S
C56 C55 1.369 . S
C56 H59 0.928 . S
C57 N53 1.345 . S
C57 C58 1.371 . S
C57 H60 0.931 . S
C58 C54 1.391 . S
C58 C57 1.371 . S
C58 H65 0.930 . S
H59 C56 0.928 . S
H60 C57 0.931 . S
H61 C37 0.930 . S
H62 C34 0.930 . S
H63 C43 0.930 . S
H64 C55 0.929 . S
H65 C58 0.930 . S
C66 C67 1.351 . S
C66 N69 1.368 . S
C66 H71 0.931 . S
C67 C66 1.351 . S
C67 N68 1.373 1_556 S
C67 H95 0.930 . S
N68 C67 1.373 1_554 S
N68 C70 1.340 1_554 S
N69 C66 1.368 . S
N69 C70 1.321 . S
N69 Co72 2.135 1_655 S
C70 N68 1.340 1_556 S
C70 N69 1.321 . S
C70 H94 0.930 1_556 S
H71 C66 0.931 . S
Co72 N69 2.135 1_455 S
Co72 N75 2.121 . S
Co72 O80 2.055 1_455 S
Co72 O83 2.039 . S
Co72 N86 2.140 . S
C73 O74 1.227 . S
C73 O83 1.265 . S
O74 C73 1.227 . S
N75 Co72 2.121 . S
N75 C77 1.375 . S
N75 C78 1.313 . S
C76 C77 1.338 . S
C76 N79 1.377 . S
C76 H96 0.930 . S
C77 N75 1.375 . S
C77 C76 1.338 . S
C77 H81 0.931 . S
C78 N75 1.313 . S
C78 N79 1.344 . S
C78 H82 0.930 . S
N79 C76 1.377 . S
N79 C78 1.344 . S
O80 Co72 2.055 1_655 S
O80 C84 1.253 . S
H81 C77 0.931 . S
H82 C78 0.930 . S
O83 Co72 2.039 . S
O83 C73 1.265 . S
C84 O80 1.253 . S
C84 O85 1.227 . S
O85 C84 1.227 . S
N86 Co72 2.140 . S
N86 C89 1.346 . S
N86 C90 1.345 . S
C87 C88 1.387 . S
C87 C91 1.391 . S
C88 C87 1.387 . S
C88 C89 1.369 . S
C88 H97 0.929 . S
C89 N86 1.346 . S
C89 C88 1.369 . S
C89 H92 0.928 . S
C90 N86 1.345 . S
C90 C91 1.371 . S
C90 H93 0.931 . S
C91 C87 1.391 . S
C91 C90 1.371 . S
C91 H98 0.930 . S
H92 C89 0.928 . S
H93 C90 0.931 . S
H94 C70 0.930 1_554 S
H95 C67 0.930 . S
H96 C76 0.930 . S
H97 C88 0.929 . S
H98 C91 0.930 . S
C99 C100 1.351 . S
C99 N102 1.368 . S
C99 H104 0.931 . S
C100 C99 1.351 . S
C100 N101 1.373 . S
C100 H128 0.930 . S
N101 C100 1.373 . S
N101 C103 1.340 . S
N102 C99 1.368 . S
N102 C103 1.321 . S
N102 Co105 2.135 . S
C103 N101 1.340 . S
C103 N102 1.321 . S
C103 H127 0.930 . S
H104 C99 0.931 . S
Co105 N102 2.135 . S
Co105 N108 2.121 . S
Co105 O113 2.055 . S
Co105 O116 2.039 . S
Co105 N119 2.140 . S
C106 O107 1.227 . S
C106 O116 1.265 . S
O107 C106 1.227 . S
N108 Co105 2.121 . S
N108 C110 1.375 . S
N108 C111 1.313 . S
C109 C110 1.338 . S
C109 N112 1.377 . S
C109 H129 0.930 . S
C110 N108 1.375 . S
C110 C109 1.338 . S
C110 H114 0.931 . S
C111 N108 1.313 . S
C111 N112 1.344 . S
C111 H115 0.930 . S
N112 C109 1.377 . S
N112 C111 1.344 . S
O113 Co105 2.055 . S
O113 C117 1.253 . S
H114 C110 0.931 . S
H115 C111 0.930 . S
O116 Co105 2.039 . S
O116 C106 1.265 . S
C117 O113 1.253 . S
C117 O118 1.227 . S
O118 C117 1.227 . S
N119 Co105 2.140 . S
N119 C122 1.346 . S
N119 C123 1.345 . S
C120 C121 1.387 . S
C120 C124 1.391 . S
C121 C120 1.387 . S
C121 C122 1.369 . S
C121 H130 0.929 . S
C122 N119 1.346 . S
C122 C121 1.369 . S
C122 H125 0.928 . S
C123 N119 1.345 . S
C123 C124 1.371 . S
C123 H126 0.931 . S
C124 C120 1.391 . S
C124 C123 1.371 . S
C124 H131 0.930 . S
H125 C122 0.928 . S
H126 C123 0.931 . S
H127 C103 0.930 . S
H128 C100 0.930 . S
H129 C109 0.930 . S
H130 C121 0.929 . S
H131 C124 0.930 . S
C132 C133 1.351 . S
C132 N135 1.368 . S
C132 H137 0.931 . S
C133 C132 1.351 . S
C133 N134 1.373 . S
C133 H161 0.930 . S
N134 C133 1.373 . S
N134 C136 1.340 . S
N135 C132 1.368 . S
N135 C136 1.321 . S
N135 Co138 2.135 . S
C136 N134 1.340 . S
C136 N135 1.321 . S
C136 H160 0.930 . S
H137 C132 0.931 . S
Co138 N135 2.135 . S
Co138 N141 2.121 . S
Co138 O146 2.055 . S
Co138 O149 2.039 . S
Co138 N152 2.140 . S
C139 O140 1.227 . S
C139 O149 1.265 . S
O140 C139 1.227 . S
N141 Co138 2.121 . S
N141 C143 1.375 . S
N141 C144 1.313 . S
C142 C143 1.338 . S
C142 N145 1.377 . S
C142 H162 0.930 . S
C143 N141 1.375 . S
C143 C142 1.338 . S
C143 H147 0.931 . S
C144 N141 1.313 . S
C144 N145 1.344 . S
C144 H148 0.930 . S
N145 C142 1.377 . S
N145 C144 1.344 . S
O146 Co138 2.055 . S
O146 C150 1.253 . S
H147 C143 0.931 . S
H148 C144 0.930 . S
O149 Co138 2.039 . S
O149 C139 1.265 . S
C150 O146 1.253 . S
C150 O151 1.227 . S
O151 C150 1.227 . S
N152 Co138 2.140 . S
N152 C155 1.346 . S
N152 C156 1.345 . S
C153 C154 1.387 . S
C153 C157 1.391 . S
C154 C153 1.387 . S
C154 C155 1.369 . S
C154 H163 0.929 . S
C155 N152 1.346 . S
C155 C154 1.369 . S
C155 H158 0.928 . S
C156 N152 1.345 . S
C156 C157 1.371 . S
C156 H159 0.931 . S
C157 C153 1.391 . S
C157 C156 1.371 . S
C157 H164 0.930 . S
H158 C155 0.928 . S
H159 C156 0.931 . S
H160 C136 0.930 . S
H161 C133 0.930 . S
H162 C142 0.930 . S
H163 C154 0.929 . S
H164 C157 0.930 . S
C165 C166 1.351 . S
C165 N168 1.368 . S
C165 H170 0.931 . S
C166 C165 1.351 . S
C166 N167 1.373 . S
C166 H194 0.930 . S
N167 C166 1.373 . S
N167 C169 1.340 . S
N168 C165 1.368 . S
N168 C169 1.321 . S
N168 Co171 2.135 . S
C169 N167 1.340 . S
C169 N168 1.321 . S
C169 H193 0.930 . S
H170 C165 0.931 . S
Co171 N168 2.135 . S
Co171 N174 2.121 . S
Co171 O179 2.055 . S
Co171 O182 2.039 . S
Co171 N185 2.140 . S
C172 O173 1.227 . S
C172 O182 1.265 . S
O173 C172 1.227 . S
N174 Co171 2.121 . S
N174 C176 1.375 . S
N174 C177 1.313 . S
C175 C176 1.338 . S
C175 N178 1.377 . S
C175 H195 0.930 . S
C176 N174 1.375 . S
C176 C175 1.338 . S
C176 H180 0.931 . S
C177 N174 1.313 . S
C177 N178 1.344 . S
C177 H181 0.930 . S
N178 C175 1.377 . S
N178 C177 1.344 . S
O179 Co171 2.055 . S
O179 C183 1.253 . S
H180 C176 0.931 . S
H181 C177 0.930 . S
O182 Co171 2.039 . S
O182 C172 1.265 . S
C183 O179 1.253 . S
C183 O184 1.227 . S
O184 C183 1.227 . S
N185 Co171 2.140 . S
N185 C188 1.346 . S
N185 C189 1.345 . S
C186 C187 1.387 . S
C186 C190 1.391 . S
C187 C186 1.387 . S
C187 C188 1.369 . S
C187 H196 0.929 . S
C188 N185 1.346 . S
C188 C187 1.369 . S
C188 H191 0.928 . S
C189 N185 1.345 . S
C189 C190 1.371 . S
C189 H192 0.931 . S
C190 C186 1.391 . S
C190 C189 1.371 . S
C190 H197 0.930 . S
H191 C188 0.928 . S
H192 C189 0.931 . S
H193 C169 0.930 . S
H194 C166 0.930 . S
H195 C175 0.930 . S
H196 C187 0.929 . S
H197 C190 0.930 . S
C198 C199 1.351 . S
C198 N201 1.368 . S
C198 H203 0.931 . S
C199 C198 1.351 . S
C199 N200 1.373 1_554 S
C199 H227 0.930 . S
N200 C199 1.373 1_556 S
N200 C202 1.340 1_556 S
N201 C198 1.368 . S
N201 C202 1.321 . S
N201 Co204 2.135 1_655 S
C202 N200 1.340 1_554 S
C202 N201 1.321 . S
C202 H226 0.930 1_554 S
H203 C198 0.931 . S
Co204 N201 2.135 1_455 S
Co204 N207 2.121 . S
Co204 O212 2.055 1_455 S
Co204 O215 2.039 . S
Co204 N218 2.140 . S
C205 O206 1.227 . S
C205 O215 1.265 . S
O206 C205 1.227 . S
N207 Co204 2.121 . S
N207 C209 1.375 . S
N207 C210 1.313 . S
C208 C209 1.338 . S
C208 N211 1.377 . S
C208 H228 0.930 . S
C209 N207 1.375 . S
C209 C208 1.338 . S
C209 H213 0.931 . S
C210 N207 1.313 . S
C210 N211 1.344 . S
C210 H214 0.930 . S
N211 C208 1.377 . S
N211 C210 1.344 . S
O212 Co204 2.055 1_655 S
O212 C216 1.253 . S
H213 C209 0.931 . S
H214 C210 0.930 . S
O215 Co204 2.039 . S
O215 C205 1.265 . S
C216 O212 1.253 . S
C216 O217 1.227 . S
O217 C216 1.227 . S
N218 Co204 2.140 . S
N218 C221 1.346 . S
N218 C222 1.345 . S
C219 C220 1.387 . S
C219 C223 1.391 . S
C220 C219 1.387 . S
C220 C221 1.369 . S
C220 H229 0.929 . S
C221 N218 1.346 . S
C221 C220 1.369 . S
C221 H224 0.928 . S
C222 N218 1.345 . S
C222 C223 1.371 . S
C222 H225 0.931 . S
C223 C219 1.391 . S
C223 C222 1.371 . S
C223 H230 0.930 . S
H224 C221 0.928 . S
H225 C222 0.931 . S
H226 C202 0.930 1_556 S
H227 C199 0.930 . S
H228 C208 0.930 . S
H229 C220 0.929 . S
H230 C223 0.930 . S
C231 C232 1.351 . S
C231 N234 1.368 . S
C231 H236 0.931 . S
C232 C231 1.351 . S
C232 N233 1.373 . S
C232 H260 0.930 . S
N233 C232 1.373 . S
N233 C235 1.340 . S
N234 C231 1.368 . S
N234 C235 1.321 . S
N234 Co237 2.135 . S
C235 N233 1.340 . S
C235 N234 1.321 . S
C235 H259 0.930 . S
H236 C231 0.931 . S
Co237 N234 2.135 . S
Co237 N240 2.121 . S
Co237 O245 2.055 . S
Co237 O248 2.039 . S
Co237 N251 2.140 . S
C238 O239 1.227 . S
C238 O248 1.265 . S
O239 C238 1.227 . S
N240 Co237 2.121 . S
N240 C242 1.375 . S
N240 C243 1.313 . S
C241 C242 1.338 . S
C241 N244 1.377 . S
C241 H261 0.930 . S
C242 N240 1.375 . S
C242 C241 1.338 . S
C242 H246 0.931 . S
C243 N240 1.313 . S
C243 N244 1.344 . S
C243 H247 0.930 . S
N244 C241 1.377 . S
N244 C243 1.344 . S
O245 Co237 2.055 . S
O245 C249 1.253 . S
H246 C242 0.931 . S
H247 C243 0.930 . S
O248 Co237 2.039 . S
O248 C238 1.265 . S
C249 O245 1.253 . S
C249 O250 1.227 . S
O250 C249 1.227 . S
N251 Co237 2.140 . S
N251 C254 1.346 . S
N251 C255 1.345 . S
C252 C253 1.387 . S
C252 C256 1.391 . S
C253 C252 1.387 . S
C253 C254 1.369 . S
C253 H262 0.929 . S
C254 N251 1.346 . S
C254 C253 1.369 . S
C254 H257 0.928 . S
C255 N251 1.345 . S
C255 C256 1.371 . S
C255 H258 0.931 . S
C256 C252 1.391 . S
C256 C255 1.371 . S
C256 H263 0.930 . S
H257 C254 0.928 . S
H258 C255 0.931 . S
H259 C235 0.930 . S
H260 C232 0.930 . S
H261 C241 0.930 . S
H262 C253 0.929 . S
H263 C256 0.930 . S
C264 C265 1.351 . S
C264 N267 1.368 . S
C264 H269 0.931 . S
C265 C264 1.351 . S
C265 N266 1.373 . S
C265 H293 0.930 . S
N266 C265 1.373 . S
N266 C268 1.340 . S
N267 C264 1.368 . S
N267 C268 1.321 . S
N267 Co270 2.135 . S
C268 N266 1.340 . S
C268 N267 1.321 . S
C268 H292 0.930 . S
H269 C264 0.931 . S
Co270 N267 2.135 . S
Co270 N273 2.121 . S
Co270 O278 2.055 . S
Co270 O281 2.039 . S
Co270 N284 2.140 . S
C271 O272 1.227 . S
C271 O281 1.265 . S
O272 C271 1.227 . S
N273 Co270 2.121 . S
N273 C275 1.375 . S
N273 C276 1.313 . S
C274 C275 1.338 . S
C274 N277 1.377 . S
C274 H294 0.930 . S
C275 N273 1.375 . S
C275 C274 1.338 . S
C275 H279 0.931 . S
C276 N273 1.313 . S
C276 N277 1.344 . S
C276 H280 0.930 . S
N277 C274 1.377 . S
N277 C276 1.344 . S
O278 Co270 2.055 . S
O278 C282 1.253 . S
H279 C275 0.931 . S
H280 C276 0.930 . S
O281 Co270 2.039 . S
O281 C271 1.265 . S
C282 O278 1.253 . S
C282 O283 1.227 . S
O283 C282 1.227 . S
N284 Co270 2.140 . S
N284 C287 1.346 . S
N284 C288 1.345 . S
C285 C286 1.387 . S
C285 C289 1.391 . S
C286 C285 1.387 . S
C286 C287 1.369 . S
C286 H295 0.929 . S
C287 N284 1.346 . S
C287 C286 1.369 . S
C287 H290 0.928 . S
C288 N284 1.345 . S
C288 C289 1.371 . S
C288 H291 0.931 . S
C289 C285 1.391 . S
C289 C288 1.371 . S
C289 H296 0.930 . S
H290 C287 0.928 . S
H291 C288 0.931 . S
H292 C268 0.930 . S
H293 C265 0.930 . S
H294 C274 0.930 . S
H295 C286 0.929 . S
H296 C289 0.930 . S
C297 C298 1.351 . S
C297 N300 1.368 . S
C297 H302 0.931 . S
C298 C297 1.351 . S
C298 N299 1.373 . S
C298 H326 0.930 . S
N299 C298 1.373 . S
N299 C301 1.340 . S
N300 C297 1.368 . S
N300 C301 1.321 . S
N300 Co303 2.135 . S
C301 N299 1.340 . S
C301 N300 1.321 . S
C301 H325 0.930 . S
H302 C297 0.931 . S
Co303 N300 2.135 . S
Co303 N306 2.121 . S
Co303 O311 2.055 . S
Co303 O314 2.039 . S
Co303 N317 2.140 . S
C304 O305 1.227 . S
C304 O314 1.265 . S
O305 C304 1.227 . S
N306 Co303 2.121 . S
N306 C308 1.375 . S
N306 C309 1.313 . S
C307 C308 1.338 . S
C307 N310 1.377 . S
C307 H327 0.930 . S
C308 N306 1.375 . S
C308 C307 1.338 . S
C308 H312 0.931 . S
C309 N306 1.313 . S
C309 N310 1.344 . S
C309 H313 0.930 . S
N310 C307 1.377 . S
N310 C309 1.344 . S
O311 Co303 2.055 . S
O311 C315 1.253 . S
H312 C308 0.931 . S
H313 C309 0.930 . S
O314 Co303 2.039 . S
O314 C304 1.265 . S
C315 O311 1.253 . S
C315 O316 1.227 . S
O316 C315 1.227 . S
N317 Co303 2.140 . S
N317 C320 1.346 . S
N317 C321 1.345 . S
C318 C319 1.387 . S
C318 C322 1.391 . S
C319 C318 1.387 . S
C319 C320 1.369 . S
C319 H328 0.929 . S
C320 N317 1.346 . S
C320 C319 1.369 . S
C320 H323 0.928 . S
C321 N317 1.345 . S
C321 C322 1.371 . S
C321 H324 0.931 . S
C322 C318 1.391 . S
C322 C321 1.371 . S
C322 H329 0.930 . S
H323 C320 0.928 . S
H324 C321 0.931 . S
H325 C301 0.930 . S
H326 C298 0.930 . S
H327 C307 0.930 . S
H328 C319 0.929 . S
H329 C322 0.930 . S
C330 C331 1.351 . S
C330 N333 1.368 . S
C330 H335 0.931 . S
C331 C330 1.351 . S
C331 N332 1.373 . S
C331 H359 0.930 . S
N332 C331 1.373 . S
N332 C334 1.340 . S
N333 C330 1.368 . S
N333 C334 1.321 . S
N333 Co336 2.135 . S
C334 N332 1.340 . S
C334 N333 1.321 . S
C334 H358 0.930 . S
H335 C330 0.931 . S
Co336 N333 2.135 . S
Co336 N339 2.121 . S
Co336 O344 2.055 . S
Co336 O347 2.039 . S
Co336 N350 2.140 . S
C337 O338 1.227 . S
C337 O347 1.265 . S
O338 C337 1.227 . S
N339 Co336 2.121 . S
N339 C341 1.375 . S
N339 C342 1.313 . S
C340 C341 1.338 . S
C340 N343 1.377 . S
C340 H360 0.930 . S
C341 N339 1.375 . S
C341 C340 1.338 . S
C341 H345 0.931 . S
C342 N339 1.313 . S
C342 N343 1.344 . S
C342 H346 0.930 . S
N343 C340 1.377 . S
N343 C342 1.344 . S
O344 Co336 2.055 . S
O344 C348 1.253 . S
H345 C341 0.931 . S
H346 C342 0.930 . S
O347 Co336 2.039 . S
O347 C337 1.265 . S
C348 O344 1.253 . S
C348 O349 1.227 . S
O349 C348 1.227 . S
N350 Co336 2.140 . S
N350 C353 1.346 . S
N350 C354 1.345 . S
C351 C352 1.387 . S
C351 C355 1.391 . S
C352 C351 1.387 . S
C352 C353 1.369 . S
C352 H361 0.929 . S
C353 N350 1.346 . S
C353 C352 1.369 . S
C353 H356 0.928 . S
C354 N350 1.345 . S
C354 C355 1.371 . S
C354 H357 0.931 . S
C355 C351 1.391 . S
C355 C354 1.371 . S
C355 H362 0.930 . S
H356 C353 0.928 . S
H357 C354 0.931 . S
H358 C334 0.930 . S
H359 C331 0.930 . S
H360 C340 0.930 . S
H361 C352 0.929 . S
H362 C355 0.930 . S
C363 C364 1.351 . S
C363 N366 1.368 . S
C363 H368 0.931 . S
C364 C363 1.351 . S
C364 N365 1.373 . S
C364 H392 0.930 . S
N365 C364 1.373 . S
N365 C367 1.340 . S
N366 C363 1.368 . S
N366 C367 1.321 . S
N366 Co369 2.135 . S
C367 N365 1.340 . S
C367 N366 1.321 . S
C367 H391 0.930 . S
H368 C363 0.931 . S
Co369 N366 2.135 . S
Co369 N372 2.121 . S
Co369 O377 2.055 . S
Co369 O380 2.039 . S
Co369 N383 2.140 . S
C370 O371 1.227 . S
C370 O380 1.265 . S
O371 C370 1.227 . S
N372 Co369 2.121 . S
N372 C374 1.375 . S
N372 C375 1.313 . S
C373 C374 1.338 . S
C373 N376 1.377 . S
C373 H393 0.930 . S
C374 N372 1.375 . S
C374 C373 1.338 . S
C374 H378 0.931 . S
C375 N372 1.313 . S
C375 N376 1.344 . S
C375 H379 0.930 . S
N376 C373 1.377 . S
N376 C375 1.344 . S
O377 Co369 2.055 . S
O377 C381 1.253 . S
H378 C374 0.931 . S
H379 C375 0.930 . S
O380 Co369 2.039 . S
O380 C370 1.265 . S
C381 O377 1.253 . S
C381 O382 1.227 . S
O382 C381 1.227 . S
N383 Co369 2.140 . S
N383 C386 1.346 . S
N383 C387 1.345 . S
C384 C385 1.387 . S
C384 C388 1.391 . S
C385 C384 1.387 . S
C385 C386 1.369 . S
C385 H394 0.929 . S
C386 N383 1.346 . S
C386 C385 1.369 . S
C386 H389 0.928 . S
C387 N383 1.345 . S
C387 C388 1.371 . S
C387 H390 0.931 . S
C388 C384 1.391 . S
C388 C387 1.371 . S
C388 H395 0.930 . S
H389 C386 0.928 . S
H390 C387 0.931 . S
H391 C367 0.930 . S
H392 C364 0.930 . S
H393 C373 0.930 . S
H394 C385 0.929 . S
H395 C388 0.930 . S
C396 C397 1.351 . S
C396 N399 1.368 . S
C396 H401 0.931 . S
C397 C396 1.351 . S
C397 N398 1.373 1_556 S
C397 H425 0.930 . S
N398 C397 1.373 1_554 S
N398 C400 1.340 1_554 S
N399 C396 1.368 . S
N399 C400 1.321 . S
N399 Co402 2.135 . S
C400 N398 1.340 1_556 S
C400 N399 1.321 . S
C400 H424 0.930 1_556 S
H401 C396 0.931 . S
Co402 N399 2.135 . S
Co402 N405 2.121 1_455 S
Co402 O410 2.055 . S
Co402 O413 2.039 1_455 S
Co402 N416 2.140 . S
C403 O404 1.227 . S
C403 O413 1.265 . S
O404 C403 1.227 . S
N405 Co402 2.121 1_655 S
N405 C407 1.375 . S
N405 C408 1.313 . S
C406 C407 1.338 . S
C406 N409 1.377 . S
C406 H426 0.930 . S
C407 N405 1.375 . S
C407 C406 1.338 . S
C407 H411 0.931 . S
C408 N405 1.313 . S
C408 N409 1.344 . S
C408 H412 0.930 . S
N409 C406 1.377 . S
N409 C408 1.344 . S
O410 Co402 2.055 . S
O410 C414 1.253 . S
H411 C407 0.931 . S
H412 C408 0.930 . S
O413 Co402 2.039 1_655 S
O413 C403 1.265 . S
C414 O410 1.253 . S
C414 O415 1.227 . S
O415 C414 1.227 . S
N416 Co402 2.140 . S
N416 C419 1.346 . S
N416 C420 1.345 . S
C417 C418 1.387 . S
C417 C421 1.391 . S
C418 C417 1.387 . S
C418 C419 1.369 . S
C418 H427 0.929 . S
C419 N416 1.346 . S
C419 C418 1.369 . S
C419 H422 0.928 . S
C420 N416 1.345 . S
C420 C421 1.371 . S
C420 H423 0.931 . S
C421 C417 1.391 . S
C421 C420 1.371 . S
C421 H428 0.930 . S
H422 C419 0.928 . S
H423 C420 0.931 . S
H424 C400 0.930 1_554 S
H425 C397 0.930 . S
H426 C406 0.930 . S
H427 C418 0.929 . S
H428 C421 0.930 . S
C429 C430 1.351 . S
C429 N432 1.368 . S
C429 H434 0.931 . S
C430 C429 1.351 . S
C430 N431 1.373 . S
C430 H458 0.930 . S
N431 C430 1.373 . S
N431 C433 1.340 . S
N432 C429 1.368 . S
N432 C433 1.321 . S
N432 Co435 2.135 . S
C433 N431 1.340 . S
C433 N432 1.321 . S
C433 H457 0.930 . S
H434 C429 0.931 . S
Co435 N432 2.135 . S
Co435 N438 2.121 . S
Co435 O443 2.055 . S
Co435 O446 2.039 . S
Co435 N449 2.140 . S
C436 O437 1.227 . S
C436 O446 1.265 . S
O437 C436 1.227 . S
N438 Co435 2.121 . S
N438 C440 1.375 . S
N438 C441 1.313 . S
C439 C440 1.338 . S
C439 N442 1.377 . S
C439 H459 0.930 . S
C440 N438 1.375 . S
C440 C439 1.338 . S
C440 H444 0.931 . S
C441 N438 1.313 . S
C441 N442 1.344 . S
C441 H445 0.930 . S
N442 C439 1.377 . S
N442 C441 1.344 . S
O443 Co435 2.055 . S
O443 C447 1.253 . S
H444 C440 0.931 . S
H445 C441 0.930 . S
O446 Co435 2.039 . S
O446 C436 1.265 . S
C447 O443 1.253 . S
C447 O448 1.227 . S
O448 C447 1.227 . S
N449 Co435 2.140 . S
N449 C452 1.346 . S
N449 C453 1.345 . S
C450 C451 1.387 . S
C450 C454 1.391 . S
C451 C450 1.387 . S
C451 C452 1.369 . S
C451 H460 0.929 . S
C452 N449 1.346 . S
C452 C451 1.369 . S
C452 H455 0.928 . S
C453 N449 1.345 . S
C453 C454 1.371 . S
C453 H456 0.931 . S
C454 C450 1.391 . S
C454 C453 1.371 . S
C454 H461 0.930 . S
H455 C452 0.928 . S
H456 C453 0.931 . S
H457 C433 0.930 . S
H458 C430 0.930 . S
H459 C439 0.930 . S
H460 C451 0.929 . S
H461 C454 0.930 . S
C462 C463 1.351 . S
C462 N465 1.368 . S
C462 H467 0.931 . S
C463 C462 1.351 . S
C463 N464 1.373 1_554 S
C463 H491 0.930 . S
N464 C463 1.373 1_556 S
N464 C466 1.340 1_556 S
N465 C462 1.368 . S
N465 C466 1.321 . S
N465 Co468 2.135 . S
C466 N464 1.340 1_554 S
C466 N465 1.321 . S
C466 H490 0.930 1_554 S
H467 C462 0.931 . S
Co468 N465 2.135 . S
Co468 N471 2.121 1_455 S
Co468 O476 2.055 . S
Co468 O479 2.039 1_455 S
Co468 N482 2.140 . S
C469 O470 1.227 . S
C469 O479 1.265 . S
O470 C469 1.227 . S
N471 Co468 2.121 1_655 S
N471 C473 1.375 . S
N471 C474 1.313 . S
C472 C473 1.338 . S
C472 N475 1.377 . S
C472 H492 0.930 . S
C473 N471 1.375 . S
C473 C472 1.338 . S
C473 H477 0.931 . S
C474 N471 1.313 . S
C474 N475 1.344 . S
C474 H478 0.930 . S
N475 C472 1.377 . S
N475 C474 1.344 . S
O476 Co468 2.055 . S
O476 C480 1.253 . S
H477 C473 0.931 . S
H478 C474 0.930 . S
O479 Co468 2.039 1_655 S
O479 C469 1.265 . S
C480 O476 1.253 . S
C480 O481 1.227 . S
O481 C480 1.227 . S
N482 Co468 2.140 . S
N482 C485 1.346 . S
N482 C486 1.345 . S
C483 C484 1.387 . S
C483 C487 1.391 . S
C484 C483 1.387 . S
C484 C485 1.369 . S
C484 H493 0.929 . S
C485 N482 1.346 . S
C485 C484 1.369 . S
C485 H488 0.928 . S
C486 N482 1.345 . S
C486 C487 1.371 . S
C486 H489 0.931 . S
C487 C483 1.391 . S
C487 C486 1.371 . S
C487 H494 0.930 . S
H488 C485 0.928 . S
H489 C486 0.931 . S
H490 C466 0.930 1_556 S
H491 C463 0.930 . S
H492 C472 0.930 . S
H493 C484 0.929 . S
H494 C487 0.930 . S
C495 C496 1.351 . S
C495 N498 1.368 . S
C495 H500 0.931 . S
C496 C495 1.351 . S
C496 N497 1.373 . S
C496 H524 0.930 . S
N497 C496 1.373 . S
N497 C499 1.340 . S
N498 C495 1.368 . S
N498 C499 1.321 . S
N498 Co501 2.135 . S
C499 N497 1.340 . S
C499 N498 1.321 . S
C499 H523 0.930 . S
H500 C495 0.931 . S
Co501 N498 2.135 . S
Co501 N504 2.121 . S
Co501 O509 2.055 . S
Co501 O512 2.039 . S
Co501 N515 2.140 . S
C502 O503 1.227 . S
C502 O512 1.265 . S
O503 C502 1.227 . S
N504 Co501 2.121 . S
N504 C506 1.375 . S
N504 C507 1.313 . S
C505 C506 1.338 . S
C505 N508 1.377 . S
C505 H525 0.930 . S
C506 N504 1.375 . S
C506 C505 1.338 . S
C506 H510 0.931 . S
C507 N504 1.313 . S
C507 N508 1.344 . S
C507 H511 0.930 . S
N508 C505 1.377 . S
N508 C507 1.344 . S
O509 Co501 2.055 . S
O509 C513 1.253 . S
H510 C506 0.931 . S
H511 C507 0.930 . S
O512 Co501 2.039 . S
O512 C502 1.265 . S
C513 O509 1.253 . S
C513 O514 1.227 . S
O514 C513 1.227 . S
N515 Co501 2.140 . S
N515 C518 1.346 . S
N515 C519 1.345 . S
C516 C517 1.387 . S
C516 C520 1.391 . S
C517 C516 1.387 . S
C517 C518 1.369 . S
C517 H526 0.929 . S
C518 N515 1.346 . S
C518 C517 1.369 . S
C518 H521 0.928 . S
C519 N515 1.345 . S
C519 C520 1.371 . S
C519 H522 0.931 . S
C520 C516 1.391 . S
C520 C519 1.371 . S
C520 H527 0.930 . S
H521 C518 0.928 . S
H522 C519 0.931 . S
H523 C499 0.930 . S
H524 C496 0.930 . S
H525 C505 0.930 . S
H526 C517 0.929 . S
H527 C520 0.930 . S
H528 C540 0.930 . S
H529 C542 0.930 . S
H530 C543 0.930 . S
H531 C547 0.959 1_565 S
H532 C547 0.959 1_565 S
H533 C547 0.961 . S
H534 C548 0.960 . S
H535 C548 0.961 . S
H536 C548 0.959 . S
H537 C551 0.929 . S
H538 C552 0.931 . S
H539 C554 0.930 . S
C540 H528 0.930 . S
C540 C541 1.399 . S
C540 C545 1.399 . S
C541 C540 1.399 . S
C541 C542 1.376 . S
C542 H529 0.930 . S
C542 C541 1.376 . S
C542 C543 1.388 . S
C543 H530 0.930 . S
C543 C542 1.388 . S
C543 C544 1.390 . S
C544 C543 1.390 . S
C544 C545 1.394 . S
C544 C550 1.465 1_545 S
C545 C540 1.399 . S
C545 C544 1.394 . S
C545 C546 1.516 . S
C546 C545 1.516 . S
C546 C547 1.502 . S
C546 C548 1.561 . S
C546 C549 1.526 1_545 S
C547 H531 0.959 1_545 S
C547 H532 0.959 1_545 S
C547 H533 0.961 . S
C547 C546 1.502 . S
C548 H534 0.960 . S
C548 H535 0.961 . S
C548 H536 0.959 . S
C548 C546 1.561 . S
C549 C546 1.526 1_565 S
C549 C550 1.396 . S
C549 C554 1.390 . S
C550 C544 1.465 1_565 S
C550 C549 1.396 . S
C550 C551 1.399 . S
C551 H537 0.929 . S
C551 C550 1.399 . S
C551 C552 1.385 . S
C552 H538 0.931 . S
C552 C551 1.385 . S
C552 C553 1.389 . S
C553 C552 1.389 . S
C553 C554 1.387 . S
C554 H539 0.930 . S
C554 C549 1.390 . S
C554 C553 1.387 . S
H555 C567 0.930 . S
H556 C569 0.930 . S
H557 C570 0.930 . S
H558 C574 0.959 . S
H559 C574 0.959 . S
H560 C574 0.961 . S
H561 C575 0.960 . S
H562 C575 0.961 . S
H563 C575 0.959 . S
H564 C578 0.929 . S
H565 C579 0.931 . S
H566 C581 0.930 . S
C567 H555 0.930 . S
C567 C568 1.399 . S
C567 C572 1.399 . S
C568 C567 1.399 . S
C568 C569 1.376 . S
C569 H556 0.930 . S
C569 C568 1.376 . S
C569 C570 1.388 . S
C570 H557 0.930 . S
C570 C569 1.388 . S
C570 C571 1.390 . S
C571 C570 1.390 . S
C571 C572 1.394 . S
C571 C577 1.465 . S
C572 C567 1.399 . S
C572 C571 1.394 . S
C572 C573 1.516 . S
C573 C572 1.516 . S
C573 C574 1.502 . S
C573 C575 1.561 . S
C573 C576 1.526 . S
C574 H558 0.959 . S
C574 H559 0.959 . S
C574 H560 0.961 . S
C574 C573 1.502 . S
C575 H561 0.960 . S
C575 H562 0.961 . S
C575 H563 0.959 . S
C575 C573 1.561 . S
C576 C573 1.526 . S
C576 C577 1.396 . S
C576 C581 1.390 . S
C577 C571 1.465 . S
C577 C576 1.396 . S
C577 C578 1.399 . S
C578 H564 0.929 . S
C578 C577 1.399 . S
C578 C579 1.385 . S
C579 H565 0.931 . S
C579 C578 1.385 . S
C579 C580 1.389 . S
C580 C579 1.389 . S
C580 C581 1.387 . S
C581 H566 0.930 . S
C581 C576 1.390 . S
C581 C580 1.387 . S
H582 C594 0.930 . S
H583 C596 0.930 . S
H584 C597 0.930 1_665 S
H585 C601 0.959 1_655 S
H586 C601 0.959 . S
H587 C601 0.961 . S
H588 C602 0.960 . S
H589 C602 0.961 . S
H590 C602 0.959 . S
H591 C605 0.923 1_655 S
H592 C606 0.931 1_655 S
H593 C608 0.930 . S
C594 H582 0.930 . S
C594 C595 1.399 . S
C594 C599 1.399 . S
C595 C594 1.399 . S
C595 C596 1.376 . S
C596 H583 0.930 . S
C596 C595 1.376 . S
C596 C597 1.388 . S
C597 H584 0.930 1_445 S
C597 C596 1.388 . S
C597 C598 1.390 . S
C598 C597 1.390 . S
C598 C599 1.394 . S
C598 C604 1.465 1_545 S
C599 C594 1.399 . S
C599 C598 1.394 . S
C599 C600 1.516 1_554 S
C600 C599 1.516 1_556 S
C600 C601 1.502 . S
C600 C602 1.561 . S
C600 C603 1.526 1_545 S
C601 H585 0.959 1_455 S
C601 H586 0.959 . S
C601 H587 0.961 . S
C601 C600 1.502 . S
C602 H588 0.960 . S
C602 H589 0.961 . S
C602 H590 0.959 . S
C602 C600 1.561 . S
C603 C600 1.526 1_565 S
C603 C604 1.396 1_556 S
C603 C608 1.390 . S
C604 C598 1.465 1_565 S
C604 C603 1.396 1_554 S
C604 C605 1.399 . S
C605 H591 0.923 1_455 S
C605 C604 1.399 . S
C605 C606 1.385 1_554 S
C606 H592 0.931 1_455 S
C606 C605 1.385 1_556 S
C606 C607 1.389 . S
C607 C606 1.389 . S
C607 C608 1.387 . S
C608 H593 0.930 . S
C608 C603 1.390 . S
C608 C607 1.387 . S
H609 C621 0.930 . S
H610 C623 0.930 . S
H611 C624 0.930 . S
H612 C628 0.959 . S
H613 C628 0.959 . S
H614 C628 0.961 . S
H615 C629 0.960 . S
H616 C629 0.961 . S
H617 C629 0.959 . S
H618 C632 0.929 . S
H619 C633 0.931 . S
H620 C635 0.930 . S
C621 H609 0.930 . S
C621 C622 1.399 . S
C621 C626 1.399 . S
C622 C621 1.399 . S
C622 C623 1.376 . S
C623 H610 0.930 . S
C623 C622 1.376 . S
C623 C624 1.388 . S
C624 H611 0.930 . S
C624 C623 1.388 . S
C624 C625 1.390 . S
C625 C624 1.390 . S
C625 C626 1.394 . S
C625 C631 1.465 . S
C626 C621 1.399 . S
C626 C625 1.394 . S
C626 C627 1.516 . S
C627 C626 1.516 . S
C627 C628 1.502 . S
C627 C629 1.561 . S
C627 C630 1.526 . S
C628 H612 0.959 . S
C628 H613 0.959 . S
C628 H614 0.961 . S
C628 C627 1.502 . S
C629 H615 0.960 . S
C629 H616 0.961 . S
C629 H617 0.959 . S
C629 C627 1.561 . S
C630 C627 1.526 . S
C630 C631 1.396 . S
C630 C635 1.390 . S
C631 C625 1.465 . S
C631 C630 1.396 . S
C631 C632 1.399 . S
C632 H618 0.929 . S
C632 C631 1.399 . S
C632 C633 1.385 . S
C633 H619 0.931 . S
C633 C632 1.385 . S
C633 C634 1.389 . S
C634 C633 1.389 . S
C634 C635 1.387 . S
C635 H620 0.930 . S
C635 C630 1.390 . S
C635 C634 1.387 . S
H636 C648 0.930 . S
H637 C650 0.930 . S
H638 C651 0.930 . S
H639 C655 0.959 . S
H640 C655 0.959 . S
H641 C655 0.961 . S
H642 C656 0.960 . S
H643 C656 0.961 . S
H644 C656 0.959 . S
H645 C659 0.929 . S
H646 C660 0.931 . S
H647 C662 0.930 . S
C648 H636 0.930 . S
C648 C649 1.399 . S
C648 C653 1.399 . S
C649 C648 1.399 . S
C649 C650 1.376 . S
C650 H637 0.930 . S
C650 C649 1.376 . S
C650 C651 1.388 . S
C651 H638 0.930 . S
C651 C650 1.388 . S
C651 C652 1.390 . S
C652 C651 1.390 . S
C652 C653 1.394 . S
C652 C658 1.465 . S
C653 C648 1.399 . S
C653 C652 1.394 . S
C653 C654 1.516 . S
C654 C653 1.516 . S
C654 C655 1.502 . S
C654 C656 1.561 . S
C654 C657 1.526 . S
C655 H639 0.959 . S
C655 H640 0.959 . S
C655 H641 0.961 . S
C655 C654 1.502 . S
C656 H642 0.960 . S
C656 H643 0.961 . S
C656 H644 0.959 . S
C656 C654 1.561 . S
C657 C654 1.526 . S
C657 C658 1.396 . S
C657 C662 1.390 . S
C658 C652 1.465 . S
C658 C657 1.396 . S
C658 C659 1.399 . S
C659 H645 0.929 . S
C659 C658 1.399 . S
C659 C660 1.385 . S
C660 H646 0.931 . S
C660 C659 1.385 . S
C660 C661 1.389 . S
C661 C660 1.389 . S
C661 C662 1.387 . S
C662 H647 0.930 . S
C662 C657 1.390 . S
C662 C661 1.387 . S
H663 C675 0.930 . S
H664 C677 0.930 . S
H665 C678 0.930 . S
H666 C682 0.959 . S
H667 C682 0.959 . S
H668 C682 0.961 . S
H669 C683 0.960 . S
H670 C683 0.961 . S
H671 C683 0.959 . S
H672 C686 0.929 . S
H673 C687 0.931 . S
H674 C689 0.930 . S
C675 H663 0.930 . S
C675 C676 1.399 . S
C675 C680 1.399 . S
C676 C675 1.399 . S
C676 C677 1.376 . S
C677 H664 0.930 . S
C677 C676 1.376 . S
C677 C678 1.388 . S
C678 H665 0.930 . S
C678 C677 1.388 . S
C678 C679 1.390 . S
C679 C678 1.390 . S
C679 C680 1.394 . S
C679 C685 1.465 . S
C680 C675 1.399 . S
C680 C679 1.394 . S
C680 C681 1.516 . S
C681 C680 1.516 . S
C681 C682 1.502 . S
C681 C683 1.561 . S
C681 C684 1.526 . S
C682 H666 0.959 . S
C682 H667 0.959 . S
C682 H668 0.961 . S
C682 C681 1.502 . S
C683 H669 0.960 . S
C683 H670 0.961 . S
C683 H671 0.959 . S
C683 C681 1.561 . S
C684 C681 1.526 . S
C684 C685 1.396 . S
C684 C689 1.390 . S
C685 C679 1.465 . S
C685 C684 1.396 . S
C685 C686 1.399 . S
C686 H672 0.929 . S
C686 C685 1.399 . S
C686 C687 1.385 . S
C687 H673 0.931 . S
C687 C686 1.385 . S
C687 C688 1.389 . S
C688 C687 1.389 . S
C688 C689 1.387 . S
C689 H674 0.930 . S
C689 C684 1.390 . S
C689 C688 1.387 . S
H690 C702 0.930 . S
H691 C704 0.930 . S
H692 C705 0.930 . S
H693 C709 0.959 . S
H694 C709 0.959 . S
H695 C709 0.961 . S
H696 C710 0.960 . S
H697 C710 0.961 . S
H698 C710 0.930 1_655 S
H699 C713 0.929 . S
H700 C714 0.931 . S
H701 C716 0.930 . S
C702 H690 0.930 . S
C702 C703 1.399 . S
C702 C707 1.399 . S
C703 C702 1.399 . S
C703 C704 1.376 1_455 S
C704 H691 0.930 . S
C704 C703 1.376 1_655 S
C704 C705 1.388 . S
C705 H692 0.930 . S
C705 C704 1.388 . S
C705 C706 1.390 . S
C706 C705 1.390 . S
C706 C707 1.394 1_655 S
C706 C712 1.465 1_556 S
C707 C702 1.399 . S
C707 C706 1.394 1_455 S
C707 C708 1.516 1_556 S
C708 C707 1.516 1_554 S
C708 C709 1.502 . S
C708 C710 1.561 . S
C708 C711 1.526 . S
C709 H693 0.959 . S
C709 H694 0.959 . S
C709 H695 0.961 . S
C709 C708 1.502 . S
C710 H696 0.960 . S
C710 H697 0.961 . S
C710 H698 0.930 1_455 S
C710 C708 1.561 . S
C711 C708 1.526 . S
C711 C712 1.396 1_455 S
C711 C716 1.390 . S
C712 C706 1.465 1_554 S
C712 C711 1.396 1_655 S
C712 C713 1.399 1_554 S
C713 H699 0.929 . S
C713 C712 1.399 1_556 S
C713 C714 1.385 1_556 S
C714 H700 0.931 . S
C714 C713 1.385 1_554 S
C714 C715 1.389 1_655 S
C715 C714 1.389 1_455 S
C715 C716 1.387 . S
C716 H701 0.930 . S
C716 C711 1.390 . S
C716 C715 1.387 . S
H717 C729 0.930 . S
H718 C731 0.930 . S
H719 C732 0.930 . S
H720 C736 0.959 . S
H721 C736 0.959 . S
H722 C736 0.961 . S
H723 C737 0.960 . S
H724 C737 0.961 . S
H725 C737 0.959 . S
H726 C740 0.929 . S
H727 C741 0.931 . S
H728 C743 0.930 . S
C729 H717 0.930 . S
C729 C730 1.399 . S
C729 C734 1.399 . S
C730 C729 1.399 . S
C730 C731 1.376 . S
C731 H718 0.930 . S
C731 C730 1.376 . S
C731 C732 1.388 . S
C732 H719 0.930 . S
C732 C731 1.388 . S
C732 C733 1.390 . S
C733 C732 1.390 . S
C733 C734 1.394 . S
C733 C739 1.465 . S
C734 C729 1.399 . S
C734 C733 1.394 . S
C734 C735 1.516 . S
C735 C734 1.516 . S
C735 C736 1.502 . S
C735 C737 1.561 . S
C735 C738 1.526 . S
C736 H720 0.959 . S
C736 H721 0.959 . S
C736 H722 0.961 . S
C736 C735 1.502 . S
C737 H723 0.960 . S
C737 H724 0.961 . S
C737 H725 0.959 . S
C737 C735 1.561 . S
C738 C735 1.526 . S
C738 C739 1.396 . S
C738 C743 1.390 . S
C739 C733 1.465 . S
C739 C738 1.396 . S
C739 C740 1.399 . S
C740 H726 0.929 . S
C740 C739 1.399 . S
C740 C741 1.385 . S
C741 H727 0.931 . S
C741 C740 1.385 . S
C741 C742 1.389 . S
C742 C741 1.389 . S
C742 C743 1.387 . S
C743 H728 0.930 . S
C743 C738 1.390 . S
C743 C742 1.387 . S
H744 C756 0.930 . S
H745 C758 0.930 . S
H746 C759 0.930 . S
H747 C763 0.959 . S
H748 C763 0.959 . S
H749 C763 0.961 . S
H750 C764 0.960 . S
H751 C764 0.961 . S
H752 C764 0.959 . S
H753 C767 0.929 . S
H754 C768 0.931 . S
H755 C770 0.930 . S
C756 H744 0.930 . S
C756 C757 1.399 . S
C756 C761 1.399 . S
C757 C756 1.399 . S
C757 C758 1.376 . S
C758 H745 0.930 . S
C758 C757 1.376 . S
C758 C759 1.388 . S
C759 H746 0.930 . S
C759 C758 1.388 . S
C759 C760 1.390 . S
C760 C759 1.390 . S
C760 C761 1.394 . S
C760 C766 1.465 . S
C761 C756 1.399 . S
C761 C760 1.394 . S
C761 C762 1.516 . S
C762 C761 1.516 . S
C762 C763 1.502 . S
C762 C764 1.561 . S
C762 C765 1.526 . S
C763 H747 0.959 . S
C763 H748 0.959 . S
C763 H749 0.961 . S
C763 C762 1.502 . S
C764 H750 0.960 . S
C764 H751 0.961 . S
C764 H752 0.959 . S
C764 C762 1.561 . S
C765 C762 1.526 . S
C765 C766 1.396 . S
C765 C770 1.390 . S
C766 C760 1.465 . S
C766 C765 1.396 . S
C766 C767 1.399 . S
C767 H753 0.929 . S
C767 C766 1.399 . S
C767 C768 1.385 . S
C768 H754 0.931 . S
C768 C767 1.385 . S
C768 C769 1.389 . S
C769 C768 1.389 . S
C769 C770 1.387 . S
C770 H755 0.930 . S
C770 C765 1.390 . S
C770 C769 1.387 . S
H771 C783 0.930 . S
H772 C785 0.930 . S
H773 C786 0.930 . S
H774 C790 0.959 . S
H775 C790 0.959 . S
H776 C790 0.961 . S
H777 C791 0.960 . S
H778 C791 0.961 . S
H779 C791 0.959 . S
H780 C794 0.929 . S
H781 C795 0.931 . S
H782 C797 0.930 . S
C783 H771 0.930 . S
C783 C784 1.399 . S
C783 C788 1.399 . S
C784 C783 1.399 . S
C784 C785 1.376 . S
C785 H772 0.930 . S
C785 C784 1.376 . S
C785 C786 1.388 . S
C786 H773 0.930 . S
C786 C785 1.388 . S
C786 C787 1.390 . S
C787 C786 1.390 . S
C787 C788 1.394 . S
C787 C793 1.465 . S
C788 C783 1.399 . S
C788 C787 1.394 . S
C788 C789 1.516 . S
C789 C788 1.516 . S
C789 C790 1.502 . S
C789 C791 1.561 . S
C789 C792 1.526 . S
C790 H774 0.959 . S
C790 H775 0.959 . S
C790 H776 0.961 . S
C790 C789 1.502 . S
C791 H777 0.960 . S
C791 H778 0.961 . S
C791 H779 0.959 . S
C791 C789 1.561 . S
C792 C789 1.526 . S
C792 C793 1.396 . S
C792 C797 1.390 . S
C793 C787 1.465 . S
C793 C792 1.396 . S
C793 C794 1.399 . S
C794 H780 0.929 . S
C794 C793 1.399 . S
C794 C795 1.385 . S
C795 H781 0.931 . S
C795 C794 1.385 . S
C795 C796 1.389 . S
C796 C795 1.389 . S
C796 C797 1.387 . S
C797 H782 0.930 . S
C797 C792 1.390 . S
C797 C796 1.387 . S
H798 C810 0.930 . S
H799 C812 0.930 . S
H800 C813 0.930 . S
H801 C817 0.959 . S
H802 C817 0.959 . S
H803 C817 0.961 . S
H804 C818 0.960 . S
H805 C818 0.961 . S
H806 C818 0.959 . S
H807 C821 0.929 . S
H808 C822 0.931 . S
H809 C824 0.930 . S
C810 H798 0.930 . S
C810 C811 1.399 . S
C810 C815 1.399 . S
C811 C810 1.399 . S
C811 C812 1.376 . S
C812 H799 0.930 . S
C812 C811 1.376 . S
C812 C813 1.388 . S
C813 H800 0.930 . S
C813 C812 1.388 . S
C813 C814 1.390 . S
C814 C813 1.390 . S
C814 C815 1.394 . S
C814 C820 1.465 . S
C815 C810 1.399 . S
C815 C814 1.394 . S
C815 C816 1.516 . S
C816 C815 1.516 . S
C816 C817 1.502 . S
C816 C818 1.561 . S
C816 C819 1.526 . S
C817 H801 0.959 . S
C817 H802 0.959 . S
C817 H803 0.961 . S
C817 C816 1.502 . S
C818 H804 0.960 . S
C818 H805 0.961 . S
C818 H806 0.959 . S
C818 C816 1.561 . S
C819 C816 1.526 . S
C819 C820 1.396 . S
C819 C824 1.390 . S
C820 C814 1.465 . S
C820 C819 1.396 . S
C820 C821 1.399 . S
C821 H807 0.929 . S
C821 C820 1.399 . S
C821 C822 1.385 . S
C822 H808 0.931 . S
C822 C821 1.385 . S
C822 C823 1.389 . S
C823 C822 1.389 . S
C823 C824 1.387 . S
C824 H809 0.930 . S
C824 C819 1.390 . S
C824 C823 1.387 . S
H825 C837 0.930 . S
H826 C839 0.930 1_554 S
H827 C840 0.930 . S
H828 C844 0.959 . S
H829 C844 0.959 . S
H830 C844 0.961 . S
H831 C845 0.960 . S
H832 C845 0.961 . S
H833 C845 0.959 . S
H834 C848 0.929 . S
H835 C849 0.931 . S
H836 C851 0.930 . S
C837 H825 0.930 . S
C837 C838 1.399 . S
C837 C842 1.399 . S
C838 C837 1.399 . S
C838 C839 1.376 . S
C839 H826 0.930 1_556 S
C839 C838 1.376 . S
C839 C840 1.388 . S
C840 H827 0.930 . S
C840 C839 1.388 . S
C840 C841 1.390 . S
C841 C840 1.390 . S
C841 C842 1.394 . S
C841 C847 1.465 . S
C842 C837 1.399 . S
C842 C841 1.394 . S
C842 C843 1.516 . S
C843 C842 1.516 . S
C843 C844 1.502 . S
C843 C845 1.561 . S
C843 C846 1.526 . S
C844 H828 0.959 . S
C844 H829 0.959 . S
C844 H830 0.961 . S
C844 C843 1.502 . S
C845 H831 0.960 . S
C845 H832 0.961 . S
C845 H833 0.959 . S
C845 C843 1.561 . S
C846 C843 1.526 . S
C846 C847 1.396 . S
C846 C851 1.390 . S
C847 C841 1.465 . S
C847 C846 1.396 . S
C847 C848 1.399 . S
C848 H834 0.929 . S
C848 C847 1.399 . S
C848 C849 1.385 . S
C849 H835 0.931 . S
C849 C848 1.385 . S
C849 C850 1.389 . S
C850 C849 1.389 . S
C850 C851 1.387 . S
C851 H836 0.930 . S
C851 C846 1.390 . S
C851 C850 1.387 . S
H852 C864 0.930 . S
H853 C866 0.930 . S
H854 C867 0.930 . S
H855 C871 0.959 . S
H856 C871 0.959 . S
H857 C871 0.961 . S
H858 C872 0.960 . S
H859 C872 0.961 . S
H860 C872 0.959 . S
H861 C875 0.929 . S
H862 C876 0.940 . S
H863 C878 0.930 . S
C864 H852 0.930 . S
C864 C865 1.399 . S
C864 C869 1.399 . S
C865 C864 1.399 . S
C865 C866 1.376 . S
C866 H853 0.930 . S
C866 C865 1.376 . S
C866 C867 1.388 . S
C867 H854 0.930 . S
C867 C866 1.388 . S
C867 C868 1.390 . S
C868 C867 1.390 . S
C868 C869 1.394 . S
C868 C874 1.465 . S
C869 C864 1.399 . S
C869 C868 1.394 . S
C869 C870 1.516 . S
C870 C869 1.516 . S
C870 C871 1.502 . S
C870 C872 1.561 . S
C870 C873 1.526 . S
C871 H855 0.959 . S
C871 H856 0.959 . S
C871 H857 0.961 . S
C871 C870 1.502 . S
C872 H858 0.960 . S
C872 H859 0.961 . S
C872 H860 0.959 . S
C872 C870 1.561 . S
C873 C870 1.526 . S
C873 C874 1.396 . S
C873 C878 1.390 . S
C874 C868 1.465 . S
C874 C873 1.396 . S
C874 C875 1.399 . S
C875 H861 0.929 . S
C875 C874 1.399 . S
C875 C876 1.385 . S
C876 H862 0.940 . S
C876 C875 1.385 . S
C876 C877 1.389 . S
C877 C876 1.389 . S
C877 C878 1.387 . S
C878 H863 0.930 . S
C878 C873 1.390 . S
C878 C877 1.387 . S
H879 C891 0.930 . S
H880 C893 0.930 . S
H881 C894 0.930 . S
H882 C898 0.959 . S
H883 C898 0.959 . S
H884 C898 0.961 . S
H885 C899 0.960 . S
H886 C899 0.961 . S
H887 C899 0.959 . S
H888 C902 0.929 . S
H889 C903 0.931 . S
H890 C905 0.930 . S
C891 H879 0.930 . S
C891 C892 1.399 . S
C891 C896 1.399 . S
C892 C891 1.399 . S
C892 C893 1.376 . S
C893 H880 0.930 . S
C893 C892 1.376 . S
C893 C894 1.388 . S
C894 H881 0.930 . S
C894 C893 1.388 . S
C894 C895 1.390 . S
C895 C894 1.390 . S
C895 C896 1.394 . S
C895 C901 1.465 . S
C896 C891 1.399 . S
C896 C895 1.394 . S
C896 C897 1.516 . S
C897 C896 1.516 . S
C897 C898 1.502 . S
C897 C899 1.561 . S
C897 C900 1.526 . S
C898 H882 0.959 . S
C898 H883 0.959 . S
C898 H884 0.961 . S
C898 C897 1.502 . S
C899 H885 0.960 . S
C899 H886 0.961 . S
C899 H887 0.959 . S
C899 C897 1.561 . S
C900 C897 1.526 . S
C900 C901 1.396 . S
C900 C905 1.390 . S
C901 C895 1.465 . S
C901 C900 1.396 . S
C901 C902 1.399 . S
C902 H888 0.929 . S
C902 C901 1.399 . S
C902 C903 1.385 . S
C903 H889 0.931 . S
C903 C902 1.385 . S
C903 C904 1.389 . S
C904 C903 1.389 . S
C904 C905 1.387 . S
C905 H890 0.930 . S
C905 C900 1.390 . S
C905 C904 1.387 . S
H906 C918 0.930 . S
H907 C920 0.930 . S
H908 C921 0.930 . S
H909 C925 0.959 . S
H910 C925 0.959 . S
H911 C925 0.961 . S
H912 C926 0.960 . S
H913 C926 0.961 . S
H914 C926 0.959 . S
H915 C929 0.929 . S
H916 C930 0.931 . S
H917 C932 0.930 . S
C918 H906 0.930 . S
C918 C919 1.399 . S
C918 C923 1.399 . S
C919 C918 1.399 . S
C919 C920 1.376 . S
C920 H907 0.930 . S
C920 C919 1.376 . S
C920 C921 1.388 . S
C921 H908 0.930 . S
C921 C920 1.388 . S
C921 C922 1.390 . S
C922 C921 1.390 . S
C922 C923 1.394 . S
C922 C928 1.465 . S
C923 C918 1.399 . S
C923 C922 1.394 . S
C923 C924 1.516 . S
C924 C923 1.516 . S
C924 C925 1.502 . S
C924 C926 1.561 . S
C924 C927 1.526 . S
C925 H909 0.959 . S
C925 H910 0.959 . S
C925 H911 0.961 . S
C925 C924 1.502 . S
C926 H912 0.960 . S
C926 H913 0.961 . S
C926 H914 0.959 . S
C926 C924 1.561 . S
C927 C924 1.526 . S
C927 C928 1.396 . S
C927 C932 1.390 . S
C928 C922 1.465 . S
C928 C927 1.396 . S
C928 C929 1.399 . S
C929 H915 0.929 . S
C929 C928 1.399 . S
C929 C930 1.385 . S
C930 H916 0.931 . S
C930 C929 1.385 . S
C930 C931 1.389 . S
C931 C930 1.389 . S
C931 C932 1.387 . S
C932 H917 0.930 . S
C932 C927 1.390 . S
C932 C931 1.387 . S
H933 C945 0.930 . S
H934 C947 0.930 . S
H935 C948 0.930 . S
H936 C952 0.959 . S
H937 C952 0.959 . S
H938 C952 0.961 . S
H939 C953 0.960 . S
H940 C953 0.961 . S
H941 C953 0.959 . S
H942 C956 0.929 . S
H943 C957 0.931 1_556 S
H944 C959 0.930 . S
C945 H933 0.930 . S
C945 C946 1.399 . S
C945 C950 1.399 . S
C946 C945 1.399 . S
C946 C947 1.376 . S
C947 H934 0.930 . S
C947 C946 1.376 . S
C947 C948 1.388 . S
C948 H935 0.930 . S
C948 C947 1.388 . S
C948 C949 1.390 . S
C949 C948 1.390 . S
C949 C950 1.394 . S
C949 C955 1.465 . S
C950 C945 1.399 . S
C950 C949 1.394 . S
C950 C951 1.516 . S
C951 C950 1.516 . S
C951 C952 1.502 . S
C951 C953 1.561 . S
C951 C954 1.526 . S
C952 H936 0.959 . S
C952 H937 0.959 . S
C952 H938 0.961 . S
C952 C951 1.502 . S
C953 H939 0.960 . S
C953 H940 0.961 . S
C953 H941 0.959 . S
C953 C951 1.561 . S
C954 C951 1.526 . S
C954 C955 1.396 . S
C954 C959 1.390 . S
C955 C949 1.465 . S
C955 C954 1.396 . S
C955 C956 1.399 . S
C956 H942 0.929 . S
C956 C955 1.399 . S
C956 C957 1.385 . S
C957 H943 0.931 1_554 S
C957 C956 1.385 . S
C957 C958 1.389 . S
C958 C957 1.389 . S
C958 C959 1.387 . S
C959 H944 0.930 . S
C959 C954 1.390 . S
C959 C958 1.387 . S
H960 C972 0.930 . S
H961 C974 0.930 . S
H962 C975 0.930 . S
H963 C979 0.959 . S
H964 C979 0.959 . S
H965 C979 0.961 . S
H966 C980 0.960 . S
H967 C980 0.961 . S
H968 C980 0.959 . S
H969 C983 0.929 . S
H970 C984 0.931 . S
H971 C986 0.930 . S
C972 H960 0.930 . S
C972 C973 1.399 . S
C972 C977 1.399 . S
C973 C972 1.399 . S
C973 C974 1.376 . S
C974 H961 0.930 . S
C974 C973 1.376 . S
C974 C975 1.388 . S
C975 H962 0.930 . S
C975 C974 1.388 . S
C975 C976 1.390 . S
C976 C975 1.390 . S
C976 C977 1.394 . S
C976 C982 1.465 . S
C977 C972 1.399 . S
C977 C976 1.394 . S
C977 C978 1.516 . S
C978 C977 1.516 . S
C978 C979 1.502 . S
C978 C980 1.561 . S
C978 C981 1.526 . S
C979 H963 0.959 . S
C979 H964 0.959 . S
C979 H965 0.961 . S
C979 C978 1.502 . S
C980 H966 0.960 . S
C980 H967 0.961 . S
C980 H968 0.959 . S
C980 C978 1.561 . S
C981 C978 1.526 . S
C981 C982 1.396 . S
C981 C986 1.390 . S
C982 C976 1.465 . S
C982 C981 1.396 . S
C982 C983 1.399 . S
C983 H969 0.929 . S
C983 C982 1.399 . S
C983 C984 1.385 . S
C984 H970 0.931 . S
C984 C983 1.385 . S
C984 C985 1.389 . S
C985 C984 1.389 . S
C985 C986 1.387 . S
C986 H971 0.930 . S
C986 C981 1.390 . S
C986 C985 1.387 . S
H987 C999 0.930 . S
H988 C1001 0.930 1_554 S
H989 C1002 0.930 . S
H990 C1006 0.959 . S
H991 C1006 0.959 . S
H992 C1006 0.961 . S
H993 C1007 0.960 . S
H994 C1007 0.961 . S
H995 C1007 0.959 . S
H996 C1010 0.929 . S
H997 C1011 0.931 . S
H998 C1013 0.930 . S
C999 H987 0.930 . S
C999 C1000 1.399 . S
C999 C1004 1.399 . S
C1000 C999 1.399 . S
C1000 C1001 1.376 . S
C1001 H988 0.930 1_556 S
C1001 C1000 1.376 . S
C1001 C1002 1.388 . S
C1002 H989 0.930 . S
C1002 C1001 1.388 . S
C1002 C1003 1.390 . S
C1003 C1002 1.390 . S
C1003 C1004 1.394 . S
C1003 C1009 1.465 . S
C1004 C999 1.399 . S
C1004 C1003 1.394 . S
C1004 C1005 1.516 . S
C1005 C1004 1.516 . S
C1005 C1006 1.502 . S
C1005 C1007 1.561 . S
C1005 C1008 1.526 . S
C1006 H990 0.959 . S
C1006 H991 0.959 . S
C1006 H992 0.961 . S
C1006 C1005 1.502 . S
C1007 H993 0.960 . S
C1007 H994 0.961 . S
C1007 H995 0.959 . S
C1007 C1005 1.561 . S
C1008 C1005 1.526 . S
C1008 C1009 1.396 . S
C1008 C1013 1.390 . S
C1009 C1003 1.465 . S
C1009 C1008 1.396 . S
C1009 C1010 1.399 . S
C1010 H996 0.929 . S
C1010 C1009 1.399 . S
C1010 C1011 1.385 . S
C1011 H997 0.931 . S
C1011 C1010 1.385 . S
C1011 C1012 1.389 . S
C1012 C1011 1.389 . S
C1012 C1013 1.387 . S
C1013 H998 0.930 . S
C1013 C1008 1.390 . S
C1013 C1012 1.387 . S
H1014 C1026 0.930 . S
H1015 C1028 0.930 . S
H1016 C1029 0.930 . S
H1017 C1033 0.959 . S
H1018 C1033 0.959 . S
H1019 C1033 0.961 . S
H1020 C1034 0.960 . S
H1021 C1034 0.961 . S
H1022 C1034 0.959 . S
H1023 C1037 0.929 . S
H1024 C1038 0.931 . S
H1025 C1040 0.930 . S
C1026 H1014 0.930 . S
C1026 C1027 1.399 . S
C1026 C1031 1.399 . S
C1027 C1026 1.399 . S
C1027 C1028 1.376 . S
C1028 H1015 0.930 . S
C1028 C1027 1.376 . S
C1028 C1029 1.388 . S
C1029 H1016 0.930 . S
C1029 C1028 1.388 . S
C1029 C1030 1.390 . S
C1030 C1029 1.390 . S
C1030 C1031 1.394 . S
C1030 C1036 1.465 . S
C1031 C1026 1.399 . S
C1031 C1030 1.394 . S
C1031 C1032 1.516 . S
C1032 C1031 1.516 . S
C1032 C1033 1.502 . S
C1032 C1034 1.561 . S
C1032 C1035 1.526 . S
C1033 H1017 0.959 . S
C1033 H1018 0.959 . S
C1033 H1019 0.961 . S
C1033 C1032 1.502 . S
C1034 H1020 0.960 . S
C1034 H1021 0.961 . S
C1034 H1022 0.959 . S
C1034 C1032 1.561 . S
C1035 C1032 1.526 . S
C1035 C1036 1.396 . S
C1035 C1040 1.390 . S
C1036 C1030 1.465 . S
C1036 C1035 1.396 . S
C1036 C1037 1.399 . S
C1037 H1023 0.929 . S
C1037 C1036 1.399 . S
C1037 C1038 1.385 . S
C1038 H1024 0.931 . S
C1038 C1037 1.385 . S
C1038 C1039 1.389 . S
C1039 C1038 1.389 . S
C1039 C1040 1.387 . S
C1040 H1025 0.930 . S
C1040 C1035 1.390 . S
C1040 C1039 1.387 . S
H1041 C1053 0.930 . S
H1042 C1055 0.930 . S
H1043 C1056 0.930 . S
H1044 C1060 0.959 . S
H1045 C1060 0.959 . S
H1046 C1060 0.961 . S
H1047 C1061 0.960 . S
H1048 C1061 0.961 . S
H1049 C1061 0.959 . S
H1050 C1064 0.929 . S
H1051 C1065 0.931 . S
H1052 C1067 0.930 . S
C1053 H1041 0.930 . S
C1053 C1054 1.399 . S
C1053 C1058 1.399 . S
C1054 C1053 1.399 . S
C1054 C1055 1.376 . S
C1055 H1042 0.930 . S
C1055 C1054 1.376 . S
C1055 C1056 1.388 . S
C1056 H1043 0.930 . S
C1056 C1055 1.388 . S
C1056 C1057 1.390 . S
C1057 C1056 1.390 . S
C1057 C1058 1.394 . S
C1057 C1063 1.465 . S
C1058 C1053 1.399 . S
C1058 C1057 1.394 . S
C1058 C1059 1.516 . S
C1059 C1058 1.516 . S
C1059 C1060 1.502 . S
C1059 C1061 1.561 . S
C1059 C1062 1.526 . S
C1060 H1044 0.959 . S
C1060 H1045 0.959 . S
C1060 H1046 0.961 . S
C1060 C1059 1.502 . S
C1061 H1047 0.960 . S
C1061 H1048 0.961 . S
C1061 H1049 0.959 . S
C1061 C1059 1.561 . S
C1062 C1059 1.526 . S
C1062 C1063 1.396 . S
C1062 C1067 1.390 . S
C1063 C1057 1.465 . S
C1063 C1062 1.396 . S
C1063 C1064 1.399 . S
C1064 H1050 0.929 . S
C1064 C1063 1.399 . S
C1064 C1065 1.385 . S
C1065 H1051 0.931 . S
C1065 C1064 1.385 . S
C1065 C1066 1.389 . S
C1066 C1065 1.389 . S
C1066 C1067 1.387 . S
C1067 H1052 0.930 . S
C1067 C1062 1.390 . S
C1067 C1066 1.387 . S
H1068 C1080 0.930 . S
H1069 C1082 0.930 . S
H1070 C1083 0.930 . S
H1071 C1087 0.959 . S
H1072 C1087 0.959 . S
H1073 C1087 0.961 . S
H1074 C1088 0.960 . S
H1075 C1088 0.961 . S
H1076 C1088 0.959 . S
H1077 C1091 0.929 . S
H1078 C1092 0.931 . S
H1079 C1094 0.930 . S
C1080 H1068 0.930 . S
C1080 C1081 1.399 . S
C1080 C1085 1.399 . S
C1081 C1080 1.399 . S
C1081 C1082 1.376 . S
C1082 H1069 0.930 . S
C1082 C1081 1.376 . S
C1082 C1083 1.388 . S
C1083 H1070 0.930 . S
C1083 C1082 1.388 . S
C1083 C1084 1.390 . S
C1084 C1083 1.390 . S
C1084 C1085 1.394 . S
C1084 C1090 1.465 . S
C1085 C1080 1.399 . S
C1085 C1084 1.394 . S
C1085 C1086 1.516 . S
C1086 C1085 1.516 . S
C1086 C1087 1.502 . S
C1086 C1088 1.561 . S
C1086 C1089 1.526 . S
C1087 H1071 0.959 . S
C1087 H1072 0.959 . S
C1087 H1073 0.961 . S
C1087 C1086 1.502 . S
C1088 H1074 0.960 . S
C1088 H1075 0.961 . S
C1088 H1076 0.959 . S
C1088 C1086 1.561 . S
C1089 C1086 1.526 . S
C1089 C1090 1.396 . S
C1089 C1094 1.390 . S
C1090 C1084 1.465 . S
C1090 C1089 1.396 . S
C1090 C1091 1.399 . S
C1091 H1077 0.929 . S
C1091 C1090 1.399 . S
C1091 C1092 1.385 . S
C1092 H1078 0.931 . S
C1092 C1091 1.385 . S
C1092 C1093 1.389 . S
C1093 C1092 1.389 . S
C1093 C1094 1.387 . S
C1094 H1079 0.930 . S
C1094 C1089 1.390 . S
C1094 C1093 1.387 . S
H1095 C1107 0.930 1_556 S
H1096 C1109 0.930 . S
H1097 C1110 0.930 . S
H1098 C1114 0.959 . S
H1099 C1114 0.959 . S
H1100 C1114 0.961 . S
H1101 C1115 0.960 . S
H1102 C1115 0.961 . S
H1103 C1115 0.959 . S
H1104 C1118 0.929 . S
H1105 C1119 0.931 . S
H1106 C1121 0.930 . S
C1107 H1095 0.930 1_554 S
C1107 C1108 1.399 . S
C1107 C1112 1.399 . S
C1108 C1107 1.399 . S
C1108 C1109 1.376 . S
C1109 H1096 0.930 . S
C1109 C1108 1.376 . S
C1109 C1110 1.388 . S
C1110 H1097 0.930 . S
C1110 C1109 1.388 . S
C1110 C1111 1.390 . S
C1111 C1110 1.390 . S
C1111 C1112 1.394 . S
C1111 C1117 1.465 . S
C1112 C1107 1.399 . S
C1112 C1111 1.394 . S
C1112 C1113 1.516 . S
C1113 C1112 1.516 . S
C1113 C1114 1.502 . S
C1113 C1115 1.561 . S
C1113 C1116 1.526 . S
C1114 H1098 0.959 . S
C1114 H1099 0.959 . S
C1114 H1100 0.961 . S
C1114 C1113 1.502 . S
C1115 H1101 0.960 . S
C1115 H1102 0.961 . S
C1115 H1103 0.959 . S
C1115 C1113 1.561 . S
C1116 C1113 1.526 . S
C1116 C1117 1.396 . S
C1116 C1121 1.390 . S
C1117 C1111 1.465 . S
C1117 C1116 1.396 . S
C1117 C1118 1.399 . S
C1118 H1104 0.929 . S
C1118 C1117 1.399 . S
C1118 C1119 1.385 . S
C1119 H1105 0.931 . S
C1119 C1118 1.385 . S
C1119 C1120 1.389 . S
C1120 C1119 1.389 . S
C1120 C1121 1.387 . S
C1121 H1106 0.930 . S
C1121 C1116 1.390 . S
C1121 C1120 1.387 . S
H1122 C1134 0.930 . S
H1123 C1136 0.930 . S
H1124 C1137 0.930 . S
H1125 C1141 0.959 . S
H1126 C1141 0.959 . S
H1127 C1141 0.961 . S
H1128 C1142 0.960 . S
H1129 C1142 0.961 . S
H1130 C1142 0.959 . S
H1131 C1145 0.929 . S
H1132 C1146 0.931 . S
H1133 C1148 0.930 . S
C1134 H1122 0.930 . S
C1134 C1135 1.399 . S
C1134 C1139 1.399 . S
C1135 C1134 1.399 . S
C1135 C1136 1.376 1_556 S
C1136 H1123 0.930 . S
C1136 C1135 1.376 1_554 S
C1136 C1137 1.388 1_554 S
C1137 H1124 0.930 . S
C1137 C1136 1.388 1_556 S
C1137 C1138 1.390 . S
C1138 C1137 1.390 . S
C1138 C1139 1.394 . S
C1138 C1144 1.465 . S
C1139 C1134 1.399 . S
C1139 C1138 1.394 . S
C1139 C1140 1.516 . S
C1140 C1139 1.516 . S
C1140 C1141 1.502 . S
C1140 C1142 1.561 . S
C1140 C1143 1.526 . S
C1141 H1125 0.959 . S
C1141 H1126 0.959 . S
C1141 H1127 0.961 . S
C1141 C1140 1.502 . S
C1142 H1128 0.960 . S
C1142 H1129 0.961 . S
C1142 H1130 0.959 . S
C1142 C1140 1.561 . S
C1143 C1140 1.526 . S
C1143 C1144 1.396 . S
C1143 C1148 1.390 . S
C1144 C1138 1.465 . S
C1144 C1143 1.396 . S
C1144 C1145 1.399 . S
C1145 H1131 0.929 . S
C1145 C1144 1.399 . S
C1145 C1146 1.385 . S
C1146 H1132 0.931 . S
C1146 C1145 1.385 . S
C1146 C1147 1.389 . S
C1147 C1146 1.389 . S
C1147 C1148 1.387 . S
C1148 H1133 0.930 . S
C1148 C1143 1.390 . S
C1148 C1147 1.387 . S
H1149 C1161 0.930 . S
H1150 C1163 0.930 . S
H1151 C1164 0.930 . S
H1152 C1168 0.959 . S
H1153 C1168 0.959 . S
H1154 C1168 0.961 . S
H1155 C1169 0.960 . S
H1156 C1169 0.961 . S
H1157 C1169 0.959 . S
H1158 C1172 0.929 . S
H1159 C1173 0.931 . S
H1160 C1175 0.930 . S
C1161 H1149 0.930 . S
C1161 C1162 1.399 . S
C1161 C1166 1.399 . S
C1162 C1161 1.399 . S
C1162 C1163 1.376 . S
C1163 H1150 0.930 . S
C1163 C1162 1.376 . S
C1163 C1164 1.388 . S
C1164 H1151 0.930 . S
C1164 C1163 1.388 . S
C1164 C1165 1.390 . S
C1165 C1164 1.390 . S
C1165 C1166 1.394 . S
C1165 C1171 1.465 . S
C1166 C1161 1.399 . S
C1166 C1165 1.394 . S
C1166 C1167 1.516 . S
C1167 C1166 1.516 . S
C1167 C1168 1.502 . S
C1167 C1169 1.561 . S
C1167 C1170 1.526 . S
C1168 H1152 0.959 . S
C1168 H1153 0.959 . S
C1168 H1154 0.961 . S
C1168 C1167 1.502 . S
C1169 H1155 0.960 . S
C1169 H1156 0.961 . S
C1169 H1157 0.959 . S
C1169 C1167 1.561 . S
C1170 C1167 1.526 . S
C1170 C1171 1.396 . S
C1170 C1175 1.390 . S
C1171 C1165 1.465 . S
C1171 C1170 1.396 . S
C1171 C1172 1.399 . S
C1172 H1158 0.929 . S
C1172 C1171 1.399 . S
C1172 C1173 1.385 . S
C1173 H1159 0.931 . S
C1173 C1172 1.385 . S
C1173 C1174 1.389 . S
C1174 C1173 1.389 . S
C1174 C1175 1.387 . S
C1175 H1160 0.930 . S
C1175 C1170 1.390 . S
C1175 C1174 1.387 . S
H1176 C1188 0.930 . S
H1177 C1190 0.930 . S
H1178 C1191 0.930 . S
H1179 C1195 0.959 . S
H1180 C1195 0.959 . S
H1181 C1195 0.961 . S
H1182 C1196 0.960 . S
H1183 C1196 0.961 . S
H1184 C1196 0.959 . S
H1185 C1199 0.929 . S
H1186 C1200 0.931 . S
H1187 C1202 0.930 . S
C1188 H1176 0.930 . S
C1188 C1189 1.399 . S
C1188 C1193 1.399 . S
C1189 C1188 1.399 . S
C1189 C1190 1.376 . S
C1190 H1177 0.930 . S
C1190 C1189 1.376 . S
C1190 C1191 1.388 . S
C1191 H1178 0.930 . S
C1191 C1190 1.388 . S
C1191 C1192 1.390 . S
C1192 C1191 1.390 . S
C1192 C1193 1.394 . S
C1192 C1198 1.465 . S
C1193 C1188 1.399 . S
C1193 C1192 1.394 . S
C1193 C1194 1.516 . S
C1194 C1193 1.516 . S
C1194 C1195 1.502 . S
C1194 C1196 1.561 . S
C1194 C1197 1.526 . S
C1195 H1179 0.959 . S
C1195 H1180 0.959 . S
C1195 H1181 0.961 . S
C1195 C1194 1.502 . S
C1196 H1182 0.960 . S
C1196 H1183 0.961 . S
C1196 H1184 0.959 . S
C1196 C1194 1.561 . S
C1197 C1194 1.526 . S
C1197 C1198 1.396 . S
C1197 C1202 1.390 . S
C1198 C1192 1.465 . S
C1198 C1197 1.396 . S
C1198 C1199 1.399 . S
C1199 H1185 0.929 . S
C1199 C1198 1.399 . S
C1199 C1200 1.385 . S
C1200 H1186 0.931 . S
C1200 C1199 1.385 . S
C1200 C1201 1.389 . S
C1201 C1200 1.389 . S
C1201 C1202 1.387 . S
C1202 H1187 0.930 . S
C1202 C1197 1.390 . S
C1202 C1201 1.387 . S
H1203 C1215 0.930 . S
H1204 C1217 0.930 . S
H1205 C1218 0.930 . S
H1206 C1222 0.959 . S
H1207 C1222 0.959 . S
H1208 C1222 0.961 . S
H1209 C1223 0.960 . S
H1210 C1223 0.961 . S
H1211 C1223 0.959 . S
H1212 C1226 0.929 . S
H1213 C1227 0.931 . S
H1214 C1229 0.930 . S
C1215 H1203 0.930 . S
C1215 C1216 1.399 . S
C1215 C1220 1.399 . S
C1216 C1215 1.399 . S
C1216 C1217 1.376 . S
C1217 H1204 0.930 . S
C1217 C1216 1.376 . S
C1217 C1218 1.388 . S
C1218 H1205 0.930 . S
C1218 C1217 1.388 . S
C1218 C1219 1.390 . S
C1219 C1218 1.390 . S
C1219 C1220 1.394 . S
C1219 C1225 1.465 . S
C1220 C1215 1.399 . S
C1220 C1219 1.394 . S
C1220 C1221 1.516 . S
C1221 C1220 1.516 . S
C1221 C1222 1.502 . S
C1221 C1223 1.561 . S
C1221 C1224 1.526 . S
C1222 H1206 0.959 . S
C1222 H1207 0.959 . S
C1222 H1208 0.961 . S
C1222 C1221 1.502 . S
C1223 H1209 0.960 . S
C1223 H1210 0.961 . S
C1223 H1211 0.959 . S
C1223 C1221 1.561 . S
C1224 C1221 1.526 . S
C1224 C1225 1.396 . S
C1224 C1229 1.390 . S
C1225 C1219 1.465 . S
C1225 C1224 1.396 . S
C1225 C1226 1.399 . S
C1226 H1212 0.929 . S
C1226 C1225 1.399 . S
C1226 C1227 1.385 . S
C1227 H1213 0.931 . S
C1227 C1226 1.385 . S
C1227 C1228 1.389 . S
C1228 C1227 1.389 . S
C1228 C1229 1.387 . S
C1229 H1214 0.930 . S
C1229 C1224 1.390 . S
C1229 C1228 1.387 . S
H1230 C1242 0.930 . S
H1231 C1244 0.930 . S
H1232 C1245 0.930 . S
H1233 C1249 0.959 . S
H1234 C1249 0.959 . S
H1235 C1249 0.961 . S
H1236 C1250 0.960 . S
H1237 C1250 0.961 . S
H1238 C1250 0.959 . S
H1239 C1253 0.929 . S
H1240 C1254 0.931 . S
H1241 C1256 0.930 . S
C1242 H1230 0.930 . S
C1242 C1243 1.399 . S
C1242 C1247 1.399 . S
C1243 C1242 1.399 . S
C1243 C1244 1.376 . S
C1244 H1231 0.930 . S
C1244 C1243 1.376 . S
C1244 C1245 1.388 . S
C1245 H1232 0.930 . S
C1245 C1244 1.388 . S
C1245 C1246 1.390 . S
C1246 C1245 1.390 . S
C1246 C1247 1.394 . S
C1246 C1252 1.465 . S
C1247 C1242 1.399 . S
C1247 C1246 1.394 . S
C1247 C1248 1.516 . S
C1248 C1247 1.516 . S
C1248 C1249 1.502 . S
C1248 C1250 1.561 . S
C1248 C1251 1.526 . S
C1249 H1233 0.959 . S
C1249 H1234 0.959 . S
C1249 H1235 0.961 . S
C1249 C1248 1.502 . S
C1250 H1236 0.960 . S
C1250 H1237 0.961 . S
C1250 H1238 0.959 . S
C1250 C1248 1.561 . S
C1251 C1248 1.526 . S
C1251 C1252 1.396 . S
C1251 C1256 1.390 . S
C1252 C1246 1.465 . S
C1252 C1251 1.396 . S
C1252 C1253 1.399 . S
C1253 H1239 0.929 . S
C1253 C1252 1.399 . S
C1253 C1254 1.385 . S
C1254 H1240 0.931 . S
C1254 C1253 1.385 . S
C1254 C1255 1.389 . S
C1255 C1254 1.389 . S
C1255 C1256 1.387 . S
C1256 H1241 0.930 . S
C1256 C1251 1.390 . S
C1256 C1255 1.387 . S
H1257 C1269 0.930 . S
H1258 C1271 0.930 . S
H1259 C1272 0.930 . S
H1260 C1276 0.959 . S
H1261 C1276 0.959 . S
H1262 C1276 0.961 . S
H1263 C1277 0.960 . S
H1264 C1277 0.961 . S
H1265 C1277 0.959 . S
H1266 C1280 0.929 . S
H1267 C1281 0.931 . S
H1268 C1283 0.930 . S
C1269 H1257 0.930 . S
C1269 C1270 1.399 . S
C1269 C1274 1.399 . S
C1270 C1269 1.399 . S
C1270 C1271 1.376 . S
C1271 H1258 0.930 . S
C1271 C1270 1.376 . S
C1271 C1272 1.388 . S
C1272 H1259 0.930 . S
C1272 C1271 1.388 . S
C1272 C1273 1.390 . S
C1273 C1272 1.390 . S
C1273 C1274 1.394 . S
C1273 C1279 1.465 . S
C1274 C1269 1.399 . S
C1274 C1273 1.394 . S
C1274 C1275 1.516 . S
C1275 C1274 1.516 . S
C1275 C1276 1.502 . S
C1275 C1277 1.561 . S
C1275 C1278 1.526 . S
C1276 H1260 0.959 . S
C1276 H1261 0.959 . S
C1276 H1262 0.961 . S
C1276 C1275 1.502 . S
C1277 H1263 0.960 . S
C1277 H1264 0.961 . S
C1277 H1265 0.959 . S
C1277 C1275 1.561 . S
C1278 C1275 1.526 . S
C1278 C1279 1.396 . S
C1278 C1283 1.390 . S
C1279 C1273 1.465 . S
C1279 C1278 1.396 . S
C1279 C1280 1.399 . S
C1280 H1266 0.929 . S
C1280 C1279 1.399 . S
C1280 C1281 1.385 . S
C1281 H1267 0.931 . S
C1281 C1280 1.385 . S
C1281 C1282 1.389 . S
C1282 C1281 1.389 . S
C1282 C1283 1.387 . S
C1283 H1268 0.930 . S
C1283 C1278 1.390 . S
C1283 C1282 1.387 . S
H1284 C1296 0.930 . S
H1285 C1298 0.930 . S
H1286 C1299 0.930 . S
H1287 C1303 0.959 . S
H1288 C1303 0.959 . S
H1289 C1303 0.961 . S
H1290 C1304 0.960 . S
H1291 C1304 0.961 . S
H1292 C1304 0.959 . S
H1293 C1307 0.929 . S
H1294 C1308 0.931 . S
H1295 C1310 0.930 . S
C1296 H1284 0.930 . S
C1296 C1297 1.399 . S
C1296 C1301 1.399 . S
C1297 C1296 1.399 . S
C1297 C1298 1.376 . S
C1298 H1285 0.930 . S
C1298 C1297 1.376 . S
C1298 C1299 1.388 . S
C1299 H1286 0.930 . S
C1299 C1298 1.388 . S
C1299 C1300 1.390 . S
C1300 C1299 1.390 . S
C1300 C1301 1.394 . S
C1300 C1306 1.465 . S
C1301 C1296 1.399 . S
C1301 C1300 1.394 . S
C1301 C1302 1.516 . S
C1302 C1301 1.516 . S
C1302 C1303 1.502 . S
C1302 C1304 1.561 . S
C1302 C1305 1.526 . S
C1303 H1287 0.959 . S
C1303 H1288 0.959 . S
C1303 H1289 0.961 . S
C1303 C1302 1.502 . S
C1304 H1290 0.960 . S
C1304 H1291 0.961 . S
C1304 H1292 0.959 . S
C1304 C1302 1.561 . S
C1305 C1302 1.526 . S
C1305 C1306 1.396 . S
C1305 C1310 1.390 . S
C1306 C1300 1.465 . S
C1306 C1305 1.396 . S
C1306 C1307 1.399 . S
C1307 H1293 0.929 . S
C1307 C1306 1.399 . S
C1307 C1308 1.385 . S
C1308 H1294 0.931 . S
C1308 C1307 1.385 . S
C1308 C1309 1.389 . S
C1309 C1308 1.389 . S
C1309 C1310 1.387 . S
C1310 H1295 0.930 . S
C1310 C1305 1.390 . S
C1310 C1309 1.387 . S
H1311 C1323 0.930 . S
H1312 C1325 0.930 . S
H1313 C1326 0.930 . S
H1314 C1330 0.959 . S
H1315 C1330 0.959 . S
H1316 C1330 0.961 . S
H1317 C1331 0.960 . S
H1318 C1331 0.961 . S
H1319 C1331 0.959 . S
H1320 C1334 0.929 . S
H1321 C1335 0.931 1_556 S
H1322 C1337 0.930 . S
C1323 H1311 0.930 . S
C1323 C1324 1.399 . S
C1323 C1328 1.399 . S
C1324 C1323 1.399 . S
C1324 C1325 1.376 . S
C1325 H1312 0.930 . S
C1325 C1324 1.376 . S
C1325 C1326 1.388 . S
C1326 H1313 0.930 . S
C1326 C1325 1.388 . S
C1326 C1327 1.390 . S
C1327 C1326 1.390 . S
C1327 C1328 1.394 . S
C1327 C1333 1.465 . S
C1328 C1323 1.399 . S
C1328 C1327 1.394 . S
C1328 C1329 1.516 . S
C1329 C1328 1.516 . S
C1329 C1330 1.502 . S
C1329 C1331 1.561 . S
C1329 C1332 1.526 . S
C1330 H1314 0.959 . S
C1330 H1315 0.959 . S
C1330 H1316 0.961 . S
C1330 C1329 1.502 . S
C1331 H1317 0.960 . S
C1331 H1318 0.961 . S
C1331 H1319 0.959 . S
C1331 C1329 1.561 . S
C1332 C1329 1.526 . S
C1332 C1333 1.396 . S
C1332 C1337 1.390 . S
C1333 C1327 1.465 . S
C1333 C1332 1.396 . S
C1333 C1334 1.399 . S
C1334 H1320 0.929 . S
C1334 C1333 1.399 . S
C1334 C1335 1.385 . S
C1335 H1321 0.931 1_554 S
C1335 C1334 1.385 . S
C1335 C1336 1.389 . S
C1336 C1335 1.389 . S
C1336 C1337 1.387 . S
C1337 H1322 0.930 . S
C1337 C1332 1.390 . S
C1337 C1336 1.387 . S
H1338 C1350 0.930 . S
H1339 C1352 0.930 . S
H1340 C1353 0.930 . S
H1341 C1357 0.959 . S
H1342 C1357 0.959 . S
H1343 C1357 0.961 . S
H1344 C1358 0.960 . S
H1345 C1358 0.961 1_554 S
H1346 C1358 0.959 . S
H1347 C1361 0.929 . S
H1348 C1362 0.931 . S
H1349 C1364 0.930 1_554 S
C1350 H1338 0.930 . S
C1350 C1351 1.399 . S
C1350 C1355 1.399 . S
C1351 C1350 1.399 . S
C1351 C1352 1.376 . S
C1352 H1339 0.930 . S
C1352 C1351 1.376 . S
C1352 C1353 1.388 . S
C1353 H1340 0.930 . S
C1353 C1352 1.388 . S
C1353 C1354 1.390 . S
C1354 C1353 1.390 . S
C1354 C1355 1.394 . S
C1354 C1360 1.465 . S
C1355 C1350 1.399 . S
C1355 C1354 1.394 . S
C1355 C1356 1.516 . S
C1356 C1355 1.516 . S
C1356 C1357 1.502 . S
C1356 C1358 1.561 . S
C1356 C1359 1.526 . S
C1357 H1341 0.959 . S
C1357 H1342 0.959 . S
C1357 H1343 0.961 . S
C1357 C1356 1.502 . S
C1358 H1344 0.960 . S
C1358 H1345 0.961 1_556 S
C1358 H1346 0.959 . S
C1358 C1356 1.561 . S
C1359 C1356 1.526 . S
C1359 C1360 1.396 . S
C1359 C1364 1.390 . S
C1360 C1354 1.465 . S
C1360 C1359 1.396 . S
C1360 C1361 1.399 . S
C1361 H1347 0.929 . S
C1361 C1360 1.399 . S
C1361 C1362 1.385 . S
C1362 H1348 0.931 . S
C1362 C1361 1.385 . S
C1362 C1363 1.389 . S
C1363 C1362 1.389 . S
C1363 C1364 1.387 . S
C1364 H1349 0.930 1_556 S
C1364 C1359 1.390 . S
C1364 C1363 1.387 . S
H1365 C1377 0.930 . S
H1366 C1379 0.930 . S
H1367 C1380 0.930 . S
H1368 C1384 0.959 . S
H1369 C1384 0.959 . S
H1370 C1384 0.961 . S
H1371 C1385 0.960 . S
H1372 C1385 0.961 . S
H1373 C1385 0.959 . S
H1374 C1388 0.929 . S
H1375 C1389 0.931 . S
H1376 C1391 0.930 . S
C1377 H1365 0.930 . S
C1377 C1378 1.399 . S
C1377 C1382 1.399 . S
C1378 C1377 1.399 . S
C1378 C1379 1.376 . S
C1379 H1366 0.930 . S
C1379 C1378 1.376 . S
C1379 C1380 1.388 . S
C1380 H1367 0.930 . S
C1380 C1379 1.388 . S
C1380 C1381 1.390 . S
C1381 C1380 1.390 . S
C1381 C1382 1.394 . S
C1381 C1387 1.465 . S
C1382 C1377 1.399 . S
C1382 C1381 1.394 . S
C1382 C1383 1.516 . S
C1383 C1382 1.516 . S
C1383 C1384 1.502 . S
C1383 C1385 1.561 . S
C1383 C1386 1.526 . S
C1384 H1368 0.959 . S
C1384 H1369 0.959 . S
C1384 H1370 0.961 . S
C1384 C1383 1.502 . S
C1385 H1371 0.960 . S
C1385 H1372 0.961 . S
C1385 H1373 0.959 . S
C1385 C1383 1.561 . S
C1386 C1383 1.526 . S
C1386 C1387 1.396 . S
C1386 C1391 1.390 . S
C1387 C1381 1.465 . S
C1387 C1386 1.396 . S
C1387 C1388 1.399 . S
C1388 H1374 0.929 . S
C1388 C1387 1.399 . S
C1388 C1389 1.385 . S
C1389 H1375 0.931 . S
C1389 C1388 1.385 . S
C1389 C1390 1.389 . S
C1390 C1389 1.389 . S
C1390 C1391 1.387 . S
C1391 H1376 0.930 . S
C1391 C1386 1.390 . S
C1391 C1390 1.387 . S
H1392 C1404 0.930 . S
H1393 C1406 0.930 1_556 S
H1394 C1407 0.930 . S
H1395 C1411 0.959 . S
H1396 C1411 0.959 . S
H1397 C1411 0.961 . S
H1398 C1412 0.960 . S
H1399 C1412 0.961 . S
H1400 C1412 0.959 . S
H1401 C1415 0.929 . S
H1402 C1416 0.931 . S
H1403 C1418 0.930 . S
C1404 H1392 0.930 . S
C1404 C1405 1.399 . S
C1404 C1409 1.399 . S
C1405 C1404 1.399 . S
C1405 C1406 1.376 . S
C1406 H1393 0.930 1_554 S
C1406 C1405 1.376 . S
C1406 C1407 1.388 . S
C1407 H1394 0.930 . S
C1407 C1406 1.388 . S
C1407 C1408 1.390 . S
C1408 C1407 1.390 . S
C1408 C1409 1.394 . S
C1408 C1414 1.465 . S
C1409 C1404 1.399 . S
C1409 C1408 1.394 . S
C1409 C1410 1.516 . S
C1410 C1409 1.516 . S
C1410 C1411 1.502 . S
C1410 C1412 1.561 . S
C1410 C1413 1.526 . S
C1411 H1395 0.959 . S
C1411 H1396 0.959 . S
C1411 H1397 0.961 . S
C1411 C1410 1.502 . S
C1412 H1398 0.960 . S
C1412 H1399 0.961 . S
C1412 H1400 0.959 . S
C1412 C1410 1.561 . S
C1413 C1410 1.526 . S
C1413 C1414 1.396 . S
C1413 C1418 1.390 . S
C1414 C1408 1.465 . S
C1414 C1413 1.396 . S
C1414 C1415 1.399 . S
C1415 H1401 0.929 . S
C1415 C1414 1.399 . S
C1415 C1416 1.385 . S
C1416 H1402 0.931 . S
C1416 C1415 1.385 . S
C1416 C1417 1.389 . S
C1417 C1416 1.389 . S
C1417 C1418 1.387 . S
C1418 H1403 0.930 . S
C1418 C1413 1.390 . S
C1418 C1417 1.387 . S
H1419 C1431 0.930 . S
H1420 C1433 0.930 . S
H1421 C1434 0.930 . S
H1422 C1438 0.959 . S
H1423 C1438 0.959 . S
H1424 C1438 0.961 . S
H1425 C1439 0.960 . S
H1426 C1439 0.961 . S
H1427 C1439 0.959 . S
H1428 C1442 0.929 . S
H1429 C1443 0.931 . S
H1430 C1445 0.930 . S
C1431 H1419 0.930 . S
C1431 C1432 1.399 . S
C1431 C1436 1.399 . S
C1432 C1431 1.399 . S
C1432 C1433 1.376 . S
C1433 H1420 0.930 . S
C1433 C1432 1.376 . S
C1433 C1434 1.388 . S
C1434 H1421 0.930 . S
C1434 C1433 1.388 . S
C1434 C1435 1.390 . S
C1435 C1434 1.390 . S
C1435 C1436 1.394 . S
C1435 C1441 1.465 . S
C1436 C1431 1.399 . S
C1436 C1435 1.394 . S
C1436 C1437 1.516 . S
C1437 C1436 1.516 . S
C1437 C1438 1.502 . S
C1437 C1439 1.561 . S
C1437 C1440 1.526 . S
C1438 H1422 0.959 . S
C1438 H1423 0.959 . S
C1438 H1424 0.961 . S
C1438 C1437 1.502 . S
C1439 H1425 0.960 . S
C1439 H1426 0.961 . S
C1439 H1427 0.959 . S
C1439 C1437 1.561 . S
C1440 C1437 1.526 . S
C1440 C1441 1.396 . S
C1440 C1445 1.390 . S
C1441 C1435 1.465 . S
C1441 C1440 1.396 . S
C1441 C1442 1.399 . S
C1442 H1428 0.929 . S
C1442 C1441 1.399 . S
C1442 C1443 1.385 . S
C1443 H1429 0.931 . S
C1443 C1442 1.385 . S
C1443 C1444 1.389 . S
C1444 C1443 1.389 . S
C1444 C1445 1.387 . S
C1445 H1430 0.930 . S
C1445 C1440 1.390 . S
C1445 C1444 1.387 . S
H1446 C1458 0.930 . S
H1447 C1460 0.930 . S
H1448 C1461 0.930 . S
H1449 C1465 0.959 . S
H1450 C1465 0.959 . S
H1451 C1465 0.961 . S
H1452 C1466 0.960 . S
H1453 C1466 0.961 . S
H1454 C1466 0.959 . S
H1455 C1469 0.929 . S
H1456 C1470 0.931 . S
H1457 C1472 0.930 . S
C1458 H1446 0.930 . S
C1458 C1459 1.399 . S
C1458 C1463 1.399 . S
C1459 C1458 1.399 . S
C1459 C1460 1.376 . S
C1460 H1447 0.930 . S
C1460 C1459 1.376 . S
C1460 C1461 1.388 . S
C1461 H1448 0.930 . S
C1461 C1460 1.388 . S
C1461 C1462 1.390 . S
C1462 C1461 1.390 . S
C1462 C1463 1.394 . S
C1462 C1468 1.465 . S
C1463 C1458 1.399 . S
C1463 C1462 1.394 . S
C1463 C1464 1.516 . S
C1464 C1463 1.516 . S
C1464 C1465 1.502 . S
C1464 C1466 1.561 . S
C1464 C1467 1.526 . S
C1465 H1449 0.959 . S
C1465 H1450 0.959 . S
C1465 H1451 0.961 . S
C1465 C1464 1.502 . S
C1466 H1452 0.960 . S
C1466 H1453 0.961 . S
C1466 H1454 0.959 . S
C1466 C1464 1.561 . S
C1467 C1464 1.526 . S
C1467 C1468 1.396 . S
C1467 C1472 1.390 . S
C1468 C1462 1.465 . S
C1468 C1467 1.396 . S
C1468 C1469 1.399 . S
C1469 H1455 0.929 . S
C1469 C1468 1.399 . S
C1469 C1470 1.385 . S
C1470 H1456 0.931 . S
C1470 C1469 1.385 . S
C1470 C1471 1.389 . S
C1471 C1470 1.389 . S
C1471 C1472 1.387 . S
C1472 H1457 0.930 . S
C1472 C1467 1.390 . S
C1472 C1471 1.387 . S
H1473 C1485 0.930 1_554 S
H1474 C1487 0.930 . S
H1475 C1488 0.930 . S
H1476 C1492 0.959 . S
H1477 C1492 0.959 . S
H1478 C1492 0.961 . S
H1479 C1493 0.960 . S
H1480 C1493 0.961 . S
H1481 C1493 0.959 . S
H1482 C1496 0.929 . S
H1483 C1497 0.931 . S
H1484 C1499 0.930 . S
C1485 H1473 0.930 1_556 S
C1485 C1486 1.399 . S
C1485 C1490 1.399 . S
C1486 C1485 1.399 . S
C1486 C1487 1.376 . S
C1487 H1474 0.930 . S
C1487 C1486 1.376 . S
C1487 C1488 1.388 . S
C1488 H1475 0.930 . S
C1488 C1487 1.388 . S
C1488 C1489 1.390 . S
C1489 C1488 1.390 . S
C1489 C1490 1.394 . S
C1489 C1495 1.465 . S
C1490 C1485 1.399 . S
C1490 C1489 1.394 . S
C1490 C1491 1.516 . S
C1491 C1490 1.516 . S
C1491 C1492 1.502 . S
C1491 C1493 1.561 . S
C1491 C1494 1.526 . S
C1492 H1476 0.959 . S
C1492 H1477 0.959 . S
C1492 H1478 0.961 . S
C1492 C1491 1.502 . S
C1493 H1479 0.960 . S
C1493 H1480 0.961 . S
C1493 H1481 0.959 . S
C1493 C1491 1.561 . S
C1494 C1491 1.526 . S
C1494 C1495 1.396 . S
C1494 C1499 1.390 . S
C1495 C1489 1.465 . S
C1495 C1494 1.396 . S
C1495 C1496 1.399 . S
C1496 H1482 0.929 . S
C1496 C1495 1.399 . S
C1496 C1497 1.385 . S
C1497 H1483 0.931 . S
C1497 C1496 1.385 . S
C1497 C1498 1.389 . S
C1498 C1497 1.389 . S
C1498 C1499 1.387 . S
C1499 H1484 0.930 . S
C1499 C1494 1.390 . S
C1499 C1498 1.387 . S
H1500 C1512 0.930 . S
H1501 C1514 0.930 . S
H1502 C1515 0.930 . S
H1503 C1519 0.959 . S
H1504 C1519 0.959 . S
H1505 C1519 0.961 . S
H1506 C1520 0.960 . S
H1507 C1520 0.961 1_554 S
H1508 C1520 0.959 . S
H1509 C1523 0.929 . S
H1510 C1524 0.931 . S
H1511 C1526 0.924 1_554 S
C1512 H1500 0.930 . S
C1512 C1513 1.399 . S
C1512 C1517 1.399 . S
C1513 C1512 1.399 . S
C1513 C1514 1.376 . S
C1514 H1501 0.930 . S
C1514 C1513 1.376 . S
C1514 C1515 1.388 . S
C1515 H1502 0.930 . S
C1515 C1514 1.388 . S
C1515 C1516 1.390 . S
C1516 C1515 1.390 . S
C1516 C1517 1.394 . S
C1516 C1522 1.465 . S
C1517 C1512 1.399 . S
C1517 C1516 1.394 . S
C1517 C1518 1.516 . S
C1518 C1517 1.516 . S
C1518 C1519 1.502 . S
C1518 C1520 1.561 . S
C1518 C1521 1.526 . S
C1519 H1503 0.959 . S
C1519 H1504 0.959 . S
C1519 H1505 0.961 . S
C1519 C1518 1.502 . S
C1520 H1506 0.960 . S
C1520 H1507 0.961 1_556 S
C1520 H1508 0.959 . S
C1520 C1518 1.561 . S
C1521 C1518 1.526 . S
C1521 C1522 1.396 . S
C1521 C1526 1.390 . S
C1522 C1516 1.465 . S
C1522 C1521 1.396 . S
C1522 C1523 1.399 . S
C1523 H1509 0.929 . S
C1523 C1522 1.399 . S
C1523 C1524 1.385 . S
C1524 H1510 0.931 . S
C1524 C1523 1.385 . S
C1524 C1525 1.389 . S
C1525 C1524 1.389 . S
C1525 C1526 1.387 . S
C1526 H1511 0.924 1_556 S
C1526 C1521 1.390 . S
C1526 C1525 1.387 . S
H1527 C1539 0.930 . S
H1528 C1541 0.930 . S
H1529 C1542 0.930 . S
H1530 C1546 0.959 . S
H1531 C1546 0.959 . S
H1532 C1546 0.961 . S
H1533 C1547 0.960 . S
H1534 C1547 0.961 . S
H1535 C1547 0.959 . S
H1536 C1550 0.929 . S
H1537 C1551 0.931 . S
H1538 C1553 0.930 . S
C1539 H1527 0.930 . S
C1539 C1540 1.399 . S
C1539 C1544 1.399 . S
C1540 C1539 1.399 . S
C1540 C1541 1.376 . S
C1541 H1528 0.930 . S
C1541 C1540 1.376 . S
C1541 C1542 1.388 . S
C1542 H1529 0.930 . S
C1542 C1541 1.388 . S
C1542 C1543 1.390 . S
C1543 C1542 1.390 . S
C1543 C1544 1.394 . S
C1543 C1549 1.465 . S
C1544 C1539 1.399 . S
C1544 C1543 1.394 . S
C1544 C1545 1.516 . S
C1545 C1544 1.516 . S
C1545 C1546 1.502 . S
C1545 C1547 1.561 . S
C1545 C1548 1.526 . S
C1546 H1530 0.959 . S
C1546 H1531 0.959 . S
C1546 H1532 0.961 . S
C1546 C1545 1.502 . S
C1547 H1533 0.960 . S
C1547 H1534 0.961 . S
C1547 H1535 0.959 . S
C1547 C1545 1.561 . S
C1548 C1545 1.526 . S
C1548 C1549 1.396 . S
C1548 C1553 1.390 . S
C1549 C1543 1.465 . S
C1549 C1548 1.396 . S
C1549 C1550 1.399 . S
C1550 H1536 0.929 . S
C1550 C1549 1.399 . S
C1550 C1551 1.385 . S
C1551 H1537 0.931 . S
C1551 C1550 1.385 . S
C1551 C1552 1.389 . S
C1552 C1551 1.389 . S
C1552 C1553 1.387 . S
C1553 H1538 0.930 . S
C1553 C1548 1.390 . S
C1553 C1552 1.387 . S
H1554 C1566 0.930 . S
H1555 C1568 0.930 . S
H1556 C1569 0.930 . S
H1557 C1573 0.959 . S
H1558 C1573 0.959 . S
H1559 C1573 0.961 . S
H1560 C1574 0.960 . S
H1561 C1574 0.961 . S
H1562 C1574 0.959 . S
H1563 C1577 0.929 . S
H1564 C1578 0.931 . S
H1565 C1580 0.930 . S
C1566 H1554 0.930 . S
C1566 C1567 1.399 . S
C1566 C1571 1.399 . S
C1567 C1566 1.399 . S
C1567 C1568 1.376 . S
C1568 H1555 0.930 . S
C1568 C1567 1.376 . S
C1568 C1569 1.388 . S
C1569 H1556 0.930 . S
C1569 C1568 1.388 . S
C1569 C1570 1.390 . S
C1570 C1569 1.390 . S
C1570 C1571 1.394 . S
C1570 C1576 1.465 . S
C1571 C1566 1.399 . S
C1571 C1570 1.394 . S
C1571 C1572 1.516 . S
C1572 C1571 1.516 . S
C1572 C1573 1.502 . S
C1572 C1574 1.561 . S
C1572 C1575 1.526 . S
C1573 H1557 0.959 . S
C1573 H1558 0.959 . S
C1573 H1559 0.961 . S
C1573 C1572 1.502 . S
C1574 H1560 0.960 . S
C1574 H1561 0.961 . S
C1574 H1562 0.959 . S
C1574 C1572 1.561 . S
C1575 C1572 1.526 . S
C1575 C1576 1.396 . S
C1575 C1580 1.390 . S
C1576 C1570 1.465 . S
C1576 C1575 1.396 . S
C1576 C1577 1.399 . S
C1577 H1563 0.929 . S
C1577 C1576 1.399 . S
C1577 C1578 1.385 . S
C1578 H1564 0.931 . S
C1578 C1577 1.385 . S
C1578 C1579 1.389 . S
C1579 C1578 1.389 . S
C1579 C1580 1.387 . S
C1580 H1565 0.930 . S
C1580 C1575 1.390 . S
C1580 C1579 1.387 . S
H1581 C1593 0.930 . S
H1582 C1595 0.930 . S
H1583 C1596 0.930 . S
H1584 C1600 0.959 . S
H1585 C1600 0.959 . S
H1586 C1600 0.961 . S
H1587 C1601 0.960 . S
H1588 C1601 0.961 . S
H1589 C1601 0.959 . S
H1590 C1604 0.929 . S
H1591 C1605 0.931 . S
H1592 C1607 0.930 . S
C1593 H1581 0.930 . S
C1593 C1594 1.399 . S
C1593 C1598 1.399 . S
C1594 C1593 1.399 . S
C1594 C1595 1.376 . S
C1595 H1582 0.930 . S
C1595 C1594 1.376 . S
C1595 C1596 1.388 . S
C1596 H1583 0.930 . S
C1596 C1595 1.388 . S
C1596 C1597 1.390 . S
C1597 C1596 1.390 . S
C1597 C1598 1.394 . S
C1597 C1603 1.465 . S
C1598 C1593 1.399 . S
C1598 C1597 1.394 . S
C1598 C1599 1.516 . S
C1599 C1598 1.516 . S
C1599 C1600 1.502 . S
C1599 C1601 1.561 . S
C1599 C1602 1.526 . S
C1600 H1584 0.959 . S
C1600 H1585 0.959 . S
C1600 H1586 0.961 . S
C1600 C1599 1.502 . S
C1601 H1587 0.960 . S
C1601 H1588 0.961 . S
C1601 H1589 0.959 . S
C1601 C1599 1.561 . S
C1602 C1599 1.526 . S
C1602 C1603 1.396 . S
C1602 C1607 1.390 . S
C1603 C1597 1.465 . S
C1603 C1602 1.396 . S
C1603 C1604 1.399 . S
C1604 H1590 0.929 . S
C1604 C1603 1.399 . S
C1604 C1605 1.385 . S
C1605 H1591 0.931 . S
C1605 C1604 1.385 . S
C1605 C1606 1.389 . S
C1606 C1605 1.389 . S
C1606 C1607 1.387 . S
C1607 H1592 0.930 . S
C1607 C1602 1.390 . S
C1607 C1606 1.387 . S
C541 C21 1.148 . S
C553 C153 1.131 . S
C568 C186 1.174 . S
C580 C54 1.126 . S
C595 C219 1.187 . S
C607 C87 1.103 . S
C622 C120 1.174 . S
C634 C252 1.126 . S
C649 C285 1.109 . S
C661 C351 1.171 . S
C676 C384 1.131 . S
C688 C318 1.146 . S
C703 C417 1.159 . S
C715 C483 1.120 . S
C730 C450 1.179 . S
C742 C516 1.106 . S
C757 N13 1.224 . S
C769 N178 1.179 1_554 S
C784 N211 1.111 . S
C796 N46 1.223 . S
C811 N244 1.150 . S
C823 N79 1.236 . S
C838 N112 1.141 1_556 S
C850 N145 1.237 . S
C865 C150 1.978 . S
C877 C348 1.977 1_556 S
C892 C84 1.962 . S
C904 C282 1.969 . S
C919 C216 1.978 . S
C931 C381 1.977 . S
C946 C18 1.962 . S
C958 C315 1.968 1_554 S
C973 N409 1.110 . S
C985 N277 1.208 . S
C1000 N343 1.173 1_556 S
C1012 N508 1.227 . S
C1027 N310 1.145 1_554 S
C1039 N442 1.150 . S
C1054 N376 1.237 . S
C1066 N475 1.148 . S
C1081 C480 1.970 . S
C1093 C51 1.980 . S
C1108 C183 1.966 1_554 S
C1120 C447 1.978 . S
C1135 C117 1.977 1_556 S
C1147 C513 1.965 . S
C1162 C414 1.972 . S
C1174 C249 1.980 . S
C1189 C172 1.646 . S
C1201 C7 1.695 . S
C1216 C205 1.650 1_556 S
C1228 C40 1.685 . S
C1243 C73 1.659 1_554 S
C1255 C238 1.672 . S
C1270 C106 1.656 . S
C1282 C139 1.675 . S
C1297 N134 0.615 . S
C1309 N332 0.796 . S
C1324 N266 0.751 . S
C1336 N68 0.625 . S
C1351 N365 0.672 . S
C1363 N200 0.812 . S
C1378 N2 0.676 . S
C1390 N299 0.811 . S
C1405 C403 1.667 1_554 S
C1417 C271 1.664 . S
C1432 C337 1.646 . S
C1444 C502 1.696 . S
C1459 C436 1.675 . S
C1471 C304 1.689 . S
C1486 C469 1.648 1_556 S
C1498 C370 1.699 . S
C1513 N35 0.680 . S
C1525 N464 0.810 . S
C1540 N167 0.795 . S
C1552 N431 0.616 . S
C1567 N497 0.613 . S
C1579 N101 0.778 . S
C1594 N233 0.740 . S
C1606 N398 0.779 . S
