# Generated by pormake.
# Topology snp, (6)-cn, num edge types: 1
# Building blocks:
#     Node 0, Type 0, BuildingBlock: KUMBUR_clean_sbu_0, # of connection points: 6
#     Node 1, Type 0, BuildingBlock: KUMBUR_clean_sbu_0, # of connection points: 6
#     Node 2, Type 0, BuildingBlock: KUMBUR_clean_sbu_0, # of connection points: 6
#     Node 3, Type 0, BuildingBlock: KUMBUR_clean_sbu_0, # of connection points: 6
#     Edge 4, Type (0, 0), BuildingBlock: KIFKEQ_clean_linker_1, # of connection points: 2
#     Edge 5, Type (0, 0), BuildingBlock: KIFKEQ_clean_linker_1, # of connection points: 2
#     Edge 6, Type (0, 0), BuildingBlock: KIFKEQ_clean_linker_1, # of connection points: 2
#     Edge 7, Type (0, 0), BuildingBlock: KIFKEQ_clean_linker_1, # of connection points: 2
#     Edge 8, Type (0, 0), BuildingBlock: KIFKEQ_clean_linker_1, # of connection points: 2
#     Edge 9, Type (0, 0), BuildingBlock: KIFKEQ_clean_linker_1, # of connection points: 2
#     Edge 10, Type (0, 0), BuildingBlock: KIFKEQ_clean_linker_1, # of connection points: 2
#     Edge 11, Type (0, 0), BuildingBlock: KIFKEQ_clean_linker_1, # of connection points: 2
#     Edge 12, Type (0, 0), BuildingBlock: KIFKEQ_clean_linker_1, # of connection points: 2
#     Edge 13, Type (0, 0), BuildingBlock: KIFKEQ_clean_linker_1, # of connection points: 2
#     Edge 14, Type (0, 0), BuildingBlock: KIFKEQ_clean_linker_1, # of connection points: 2
#     Edge 15, Type (0, 0), BuildingBlock: KIFKEQ_clean_linker_1, # of connection points: 2
# Relax obj value: 0.230
# Max RMSD: 0.258
# Mean RMSD: 0.234
data_MOF--net-snp--node1-KUMBUR_clean_sbu_0--edge1-KIFKEQ_clean_linker_1
_symmetry_space_group_name_H-M    P1
_symmetry_Int_Tables_number       1
_symmetry_cell_setting            triclinic
loop_
_symmetry_equiv_pos_as_xyz
'x, y, z'
_cell_length_a     25.016695
_cell_length_b     26.652936
_cell_length_c     33.404713
_cell_angle_alpha  117.49883
_cell_angle_beta   96.270862
_cell_angle_gamma 94.851774
loop_
_atom_site_label
_atom_site_type_symbol
_atom_site_fract_x
_atom_site_fract_y
_atom_site_fract_z
_atom_type_partial_charge
Tb0 Tb 0.35418 0.18822 0.25831 0.0
C1 C 0.39441 0.94423 0.20662 0.0
C2 C 0.32353 0.88175 0.14293 0.0
C3 C 0.41173 0.85181 0.14978 0.0
C4 C 0.3424 0.93388 0.18319 0.0
C5 C 0.42954 0.9031 0.19069 0.0
C6 C 0.35879 0.84116 0.12591 0.0
C7 C 0.49579 0.96514 0.25818 0.0
N8 N 0.40987 0.99425 0.24604 0.0
C9 C 0.45933 1.00454 0.27264 0.0
C10 C 0.48103 0.91439 0.21683 0.0
Tb11 Tb 0.34754 0.05628 0.2664 0.0
N12 N 0.30954 0.97394 0.2011 0.0
C13 C 0.25599 0.96282 0.18173 0.0
C14 C 0.26946 0.87148 0.12168 0.0
C15 C 0.23538 0.91198 0.14148 0.0
H16 H 0.47129 0.0437 0.30452 0.0
H17 H 0.19325 0.90416 0.12574 0.0
H18 H 0.34519 0.80099 0.09485 0.0
H19 H 0.53525 0.97393 0.27893 0.0
H20 H 0.22924 0.99373 0.19633 0.0
H21 H 0.51468 0.32188 0.40162 0.0
H22 H 0.25336 0.83205 0.09061 0.0
H23 H 0.24473 0.22178 0.21749 0.0
H24 H 0.4737 0.2371 0.32939 0.0
H25 H 0.19168 0.30161 0.24236 0.0
H26 H 0.43821 0.81974 0.13675 0.0
H27 H 0.46288 0.4018 0.43813 0.0
H28 H 0.37828 0.4453 0.43407 0.0
H29 H 0.5093 0.8839 0.20579 0.0
H30 H 0.28981 0.43977 0.39064 0.0
N31 N 0.3976 0.26658 0.32509 0.0
C32 C 0.45005 0.2711 0.3446 0.0
C33 C 0.44434 0.36433 0.40637 0.0
C34 C 0.3921 0.36119 0.38481 0.0
C35 C 0.47371 0.31937 0.38581 0.0
C36 C 0.36986 0.31129 0.34364 0.0
H37 H 0.22023 0.38668 0.31854 0.0
N38 N 0.30194 0.25996 0.27957 0.0
C39 C 0.22746 0.30374 0.26479 0.0
C40 C 0.32007 0.30783 0.31992 0.0
C41 C 0.25771 0.25845 0.25085 0.0
C42 C 0.24361 0.3516 0.30783 0.0
C43 C 0.2911 0.3546 0.33566 0.0
O44 O 0.34444 0.19265 0.19635 0.0
O45 O 0.33832 0.09547 0.22229 0.0
O46 O 0.41226 0.05825 0.2277 0.0
O47 O 0.43279 0.15652 0.25863 0.0
O48 O 0.29041 0.13792 0.19906 0.0
O49 O 0.41917 0.22898 0.24398 0.0
O50 O 0.35977 0.04135 0.32327 0.0
O51 O 0.35832 0.14829 0.30151 0.0
O52 O 0.27986 0.18179 0.2853 0.0
O53 O 0.2671 0.08419 0.26529 0.0
O54 O 0.40595 0.1116 0.32954 0.0
O55 O 0.28102 0.01738 0.28121 0.0
C56 C 0.29957 0.08777 0.19131 0.0
C57 C 0.39253 0.27572 0.20121 0.0
C58 C 0.39107 0.32152 0.15229 0.0
C59 C 0.38867 0.27169 0.15733 0.0
C60 C 0.39611 0.37507 0.19154 0.0
C61 C 0.39759 0.3298 0.23979 0.0
C62 C 0.39906 0.37903 0.23486 0.0
C63 C 0.44387 0.10434 0.23363 0.0
C64 C 0.39168 0.22356 0.20643 0.0
C65 C 0.31173 0.40358 0.37763 0.0
C66 C 0.36213 0.40678 0.40229 0.0
C67 C 0.39251 0.16002 0.33627 0.0
C68 C 0.30226 0.96284 0.31875 0.0
C69 C 0.27743 0.95962 0.35383 0.0
C70 C 0.2691 0.90729 0.3553 0.0
C71 C 0.28703 0.85912 0.32184 0.0
C72 C 0.31947 0.91389 0.28605 0.0
C73 C 0.31207 0.86254 0.28771 0.0
C74 C 0.24917 0.13421 0.2782 0.0
C75 C 0.30975 0.01688 0.31602 0.0
H76 H 0.38506 0.23013 0.12741 0.0
H77 H 0.39749 0.414 0.18866 0.0
H78 H 0.40084 0.33418 0.27381 0.0
H79 H 0.40289 0.4205 0.26481 0.0
H80 H 0.2637 0.99715 0.37916 0.0
H81 H 0.28189 0.81858 0.32223 0.0
H82 H 0.3386 0.91523 0.25914 0.0
H83 H 0.32566 0.82507 0.26226 0.0
Tb84 Tb 0.10719 0.26938 0.60094 0.0
C85 C 0.306 0.45448 0.71865 0.0
C86 C 0.38226 0.4322 0.67827 0.0
C87 C 0.37468 0.53137 0.72863 0.0
C88 C 0.33271 0.41471 0.68805 0.0
C89 C 0.32714 0.51328 0.7402 0.0
C90 C 0.40225 0.49082 0.69765 0.0
C91 C 0.25539 0.53121 0.78561 0.0
N92 N 0.26055 0.43504 0.72906 0.0
C93 C 0.2361 0.47244 0.76333 0.0
C94 C 0.30072 0.55185 0.77361 0.0
Tb95 Tb 0.22991 0.33809 0.68912 0.0
N96 N 0.31254 0.35863 0.67103 0.0
C97 C 0.3436 0.31789 0.64796 0.0
C98 C 0.41148 0.39027 0.65115 0.0
C99 C 0.39262 0.3329 0.63679 0.0
H100 H 0.20067 0.45759 0.77282 0.0
H101 H 0.4159 0.30011 0.61724 0.0
H102 H 0.4399 0.50512 0.69015 0.0
H103 H 0.23511 0.56057 0.81192 0.0
H104 H 0.33083 0.2733 0.63718 0.0
H105 H 0.94414 0.31244 0.70043 0.0
H106 H 0.44966 0.40182 0.64277 0.0
H107 H 0.11301 0.15509 0.50436 0.0
H108 H 0.02162 0.33712 0.66991 0.0
H109 H 0.06967 0.05379 0.46137 0.0
H110 H 0.39131 0.57639 0.74442 0.0
H111 H 0.91031 0.21104 0.67628 0.0
H112 H 0.91276 0.10692 0.62315 0.0
H113 H 0.31564 0.59737 0.79097 0.0
H114 H 0.94639 0.03552 0.55632 0.0
N115 N 0.03362 0.25064 0.63019 0.0
C116 C 0.00747 0.29264 0.65894 0.0
C117 C 0.94462 0.22161 0.66292 0.0
C118 C 0.96826 0.17867 0.63019 0.0
C119 C 0.96338 0.27886 0.6764 0.0
C120 C 0.01294 0.19493 0.61414 0.0
H121 H 0.00278 0.0159 0.49395 0.0
N122 N 0.07138 0.17417 0.56076 0.0
C123 C 0.05908 0.08167 0.49424 0.0
C124 C 0.03221 0.15499 0.57744 0.0
C125 C 0.08357 0.13902 0.51868 0.0
C126 C 0.02157 0.06036 0.51284 0.0
C127 C 0.00696 0.09742 0.55463 0.0
O128 O 0.09015 0.26043 0.53445 0.0
O129 O 0.19058 0.30967 0.62044 0.0
O130 O 0.19865 0.40077 0.67165 0.0
O131 O 0.10732 0.36011 0.64817 0.0
O132 O 0.1624 0.26195 0.55231 0.0
O133 O 0.04513 0.31028 0.58637 0.0
O134 O 0.23951 0.35051 0.75671 0.0
O135 O 0.14754 0.29004 0.66913 0.0
O136 O 0.15067 0.20217 0.601 0.0
O137 O 0.23877 0.2505 0.64019 0.0
O138 O 0.16863 0.35722 0.73367 0.0
O139 O 0.28325 0.29244 0.70771 0.0
C140 C 0.20419 0.2945 0.5817 0.0
C141 C 0.99745 0.25691 0.50987 0.0
C142 C 0.94144 0.22424 0.4345 0.0
C143 C 0.98934 0.25546 0.46672 0.0
C144 C 0.9028 0.19378 0.44618 0.0
C145 C 0.95742 0.22693 0.52044 0.0
C146 C 0.91068 0.19545 0.48874 0.0
C147 C 0.1466 0.40396 0.66221 0.0
C148 C 0.04849 0.28736 0.54294 0.0
C149 C 0.96559 0.07982 0.57275 0.0
C150 C 0.94645 0.12047 0.61078 0.0
C151 C 0.13061 0.31616 0.70677 0.0
C152 C 0.32443 0.3384 0.78584 0.0
C153 C 0.32451 0.3288 0.82394 0.0
C154 C 0.36961 0.35196 0.8597 0.0
C155 C 0.41492 0.38393 0.85623 0.0
C156 C 0.37001 0.37057 0.78327 0.0
C157 C 0.41508 0.39292 0.81823 0.0
C158 C 0.20365 0.20367 0.61248 0.0
C159 C 0.27569 0.31651 0.75013 0.0
H160 H 0.02001 0.27884 0.45854 0.0
H161 H 0.86647 0.16776 0.42212 0.0
H162 H 0.96228 0.22741 0.55313 0.0
H163 H 0.88047 0.17188 0.49711 0.0
H164 H 0.28897 0.30466 0.82629 0.0
H165 H 0.45044 0.40182 0.8829 0.0
H166 H 0.37071 0.37869 0.75446 0.0
H167 H 0.45017 0.41765 0.81602 0.0
Tb168 Tb 0.83714 0.11207 1.01978 0.0
C169 C 0.86835 0.87578 0.95779 0.0
C170 C 0.79349 0.8254 0.89468 0.0
C171 C 0.88087 0.79179 0.88874 0.0
C172 C 0.81484 0.87063 0.93905 0.0
C173 C 0.90109 0.83472 0.93363 0.0
C174 C 0.82721 0.78731 0.86921 0.0
C175 C 0.96829 0.8759 1.00211 0.0
N176 N 0.88711 0.91831 1.00094 0.0
C177 C 0.9344 0.91548 1.02445 0.0
C178 C 0.95229 0.83638 0.95601 0.0
Tb179 Tb 0.82984 0.98434 0.03352 0.0
N180 N 0.78333 0.90857 0.96465 0.0
C181 C 0.72836 0.89877 0.94875 0.0
C182 C 0.73857 0.81882 0.87744 0.0
C183 C 0.70572 0.85493 0.90499 0.0
H184 H 0.94695 0.94476 0.06052 0.0
H185 H 0.66255 0.84869 0.89271 0.0
H186 H 0.81162 0.75304 0.83492 0.0
H187 H 0.00654 0.87573 1.02061 0.0
H188 H 0.70016 0.9231 0.96884 0.0
H189 H 0.91073 0.28808 0.1894 0.0
H190 H 0.72076 0.78479 0.8436 0.0
H191 H 0.73534 0.09919 0.93839 0.0
H192 H 0.91225 0.19688 0.12152 0.0
H193 H 0.66008 0.14886 0.9326 0.0
H194 H 0.9058 0.76069 0.86941 0.0
H195 H 0.83431 0.34195 0.19163 0.0
H196 H 0.74758 0.3503 0.15105 0.0
H197 H 0.97849 0.80553 0.93872 0.0
H198 H 0.67925 0.31223 0.08106 0.0
N199 N 0.83791 0.19731 0.08481 0.0
C200 C 0.8792 0.21967 0.12138 0.0
C201 C 0.83506 0.30175 0.16148 0.0
C202 C 0.79396 0.28017 0.12328 0.0
C203 C 0.87827 0.27162 0.16027 0.0
C204 C 0.79695 0.22754 0.08494 0.0
H205 H 0.64647 0.23733 0.99943 0.0
N206 N 0.76475 0.15637 1.0096 0.0
C207 C 0.68733 0.16531 0.96487 0.0
C208 C 0.75908 0.20655 0.04581 0.0
C209 C 0.73044 0.13676 0.96871 0.0
C210 C 0.67982 0.21526 1.00259 0.0
C211 C 0.71632 0.23696 0.04357 0.0
O212 O 0.85969 0.10848 0.95933 0.0
O213 O 0.84241 0.02107 0.9898 0.0
O214 O 0.91657 0.01654 0.03899 0.0
O215 O 0.91705 0.11057 0.05313 0.0
O216 O 0.79617 0.04722 0.95173 0.0
O217 O 0.89998 0.17378 1.02477 0.0
O218 O 0.86416 0.97892 0.09165 0.0
O219 O 0.84725 0.0773 0.06731 0.0
O220 O 0.75665 0.09884 0.0352 0.0
O221 O 0.74734 1.00485 1.02445 0.0
O222 O 0.80192 0.04179 0.09651 0.0
O223 O 0.78904 0.92529 0.04932 0.0
C224 C 0.81444 1.00355 0.95099 0.0
C225 C 0.89211 0.19688 0.96385 0.0
C226 C 0.91386 0.2313 0.90972 0.0
C227 C 0.91726 0.19114 0.92626 0.0
C228 C 0.88533 0.2773 0.93202 0.0
C229 C 0.86367 0.24294 0.98476 0.0
C230 C 0.86043 0.2828 0.96893 0.0
C231 C 0.94281 0.0684 0.05162 0.0
C232 C 0.89514 0.15455 0.98082 0.0
C233 C 0.71196 0.28842 0.08203 0.0
C234 C 0.75079 0.31004 0.12185 0.0
C235 C 0.82553 0.09003 0.10266 0.0
C236 C 0.84264 0.89032 0.09134 0.0
C237 C 0.84592 0.89378 0.1349 0.0
C238 C 0.86221 0.84894 0.14219 0.0
C239 C 0.87608 0.80102 0.10558 0.0
C240 C 0.85412 0.8408 0.05475 0.0
C241 C 0.87165 0.7969 0.06208 0.0
C242 C 0.72802 0.05299 0.03248 0.0
C243 C 0.82579 0.93821 0.08492 0.0
H244 H 0.93879 0.15525 0.90976 0.0
H245 H 0.8829 0.30996 0.92148 0.0
H246 H 0.84423 0.2484 1.01358 0.0
H247 H 0.83874 0.31846 0.98557 0.0
H248 H 0.83561 0.93119 0.16307 0.0
H249 H 0.88859 0.76589 0.11028 0.0
H250 H 0.84928 0.83571 1.0205 0.0
H251 H 0.88107 0.75915 0.03379 0.0
Tb252 Tb 0.98326 0.8064 0.59432 0.0
C253 C 0.1977 0.97707 0.69279 0.0
C254 C 0.26323 0.93461 0.64376 0.0
C255 C 0.27656 0.03747 0.6934 0.0
C256 C 0.21475 0.92946 0.66039 0.0
C257 C 0.22895 0.0316 0.71061 0.0
C258 C 0.29344 0.98906 0.65971 0.0
C259 C 0.16498 0.06983 0.76223 0.0
N260 N 0.15185 0.96934 0.70866 0.0
C261 C 0.1358 0.01469 0.7438 0.0
C262 C 0.21178 0.07837 0.74556 0.0
Tb263 Tb 0.10818 0.8772 0.67842 0.0
N264 N 0.18536 0.87768 0.64718 0.0
C265 C 0.20422 0.82875 0.61921 0.0
C266 C 0.28078 0.88476 0.61284 0.0
C267 C 0.25143 0.83155 0.60093 0.0
H268 H 0.09995 1.0088 0.75731 0.0
H269 H 0.26528 0.79262 0.57786 0.0
H270 H 0.33063 0.994 0.64717 0.0
H271 H 0.1515 0.10564 0.78946 0.0
H272 H 0.18239 0.78722 0.60989 0.0
H273 H 0.80815 0.88641 0.67117 0.0
H274 H 0.31764 0.88682 0.59903 0.0
H275 H 0.00188 0.67362 0.52546 0.0
H276 H 0.89472 0.89329 0.64462 0.0
H277 H 0.95829 0.57541 0.50141 0.0
H278 H 0.30082 0.07912 0.70622 0.0
H279 H 0.76299 0.79285 0.65849 0.0
H280 H 0.76091 0.6862 0.62296 0.0
H281 H 0.23453 0.12106 0.76007 0.0
H282 H 0.80134 0.60121 0.57595 0.0
N283 N 0.90101 0.80468 0.61866 0.0
C284 C 0.87616 0.85202 0.63886 0.0
C285 C 0.80137 0.79558 0.64687 0.0
C286 C 0.82489 0.7466 0.6232 0.0
C287 C 0.82668 0.84839 0.65398 0.0
C288 C 0.87498 0.75268 0.60899 0.0
H289 H 0.87462 0.55939 0.52985 0.0
N290 N 0.94393 0.71337 0.56774 0.0
C291 C 0.94068 0.61156 0.52426 0.0
C292 C 0.89712 0.70517 0.5823 0.0
C293 C 0.96511 0.6674 0.5378 0.0
C294 C 0.89355 0.60268 0.54048 0.0
C295 C 0.87075 0.64979 0.56943 0.0
O296 O 0.96801 0.77513 0.5228 0.0
O297 O 0.06823 0.84314 0.60828 0.0
O298 O 0.07831 0.93767 0.65842 0.0
O299 O 0.98573 0.89976 0.62974 0.0
O300 O 0.04235 0.77163 0.54805 0.0
O301 O 0.93738 0.85075 0.56877 0.0
O302 O 0.11953 0.89655 0.74776 0.0
O303 O 0.02281 0.84526 0.66423 0.0
O304 O 0.00677 0.75277 0.62447 0.0
O305 O 0.09996 0.78354 0.64109 0.0
O306 O 0.05264 0.91239 0.7276 0.0
O307 O 0.16358 0.83625 0.70069 0.0
C308 C 0.08356 0.81073 0.57137 0.0
C309 C 0.89058 0.80031 0.49268 0.0
C310 C 0.84608 0.80017 0.42351 0.0
C311 C 0.8934 0.80926 0.45463 0.0
C312 C 0.79587 0.781 0.43125 0.0
C313 C 0.84038 0.7806 0.49934 0.0
C314 C 0.79328 0.77088 0.46859 0.0
C315 C 0.02757 0.94144 0.64477 0.0
C316 C 0.94021 0.81576 0.52632 0.0
C317 C 0.8221 0.64336 0.58515 0.0
C318 C 0.79915 0.69175 0.61199 0.0
C319 C 0.00944 0.87835 0.70177 0.0
C320 C 0.20749 0.8928 0.77792 0.0
C321 C 0.21028 0.89421 0.82084 0.0
C322 C 0.25598 0.92491 0.85578 0.0
C323 C 0.29859 0.95389 0.84631 0.0
C324 C 0.25125 0.92082 0.76942 0.0
C325 C 0.29639 0.95119 0.80344 0.0
C326 C 0.05741 0.74551 0.63352 0.0
C327 C 0.15754 0.86492 0.74337 0.0
H328 H 0.93275 0.82352 0.44959 0.0
H329 H 0.75826 0.77467 0.40899 0.0
H330 H 0.83751 0.77364 0.52856 0.0
H331 H 0.75441 0.75627 0.47408 0.0
H332 H 0.17666 0.87149 0.8267 0.0
H333 H 0.33347 0.97991 0.87221 0.0
H334 H 0.25039 0.91982 0.73671 0.0
H335 H 0.32955 0.97356 0.79679 0.0
H336 H 0.01991 1.00055 0.05225 0.0
H337 H 0.9929 0.17583 0.11585 0.0
H338 H 0.08455 0.02087 0.11939 0.0
H339 H 0.0496 0.19494 0.18514 0.0
H340 H 0.19141 0.223 0.29427 0.0
H341 H 0.1198 0.21181 0.23518 0.0
H342 H 0.09059 0.02943 0.18946 0.0
H343 H 0.16801 0.04116 0.24488 0.0
C344 C 0.02661 0.04305 0.08116 0.0
C345 C 0.99676 0.08493 0.08076 0.0
C346 C 0.06292 0.05473 0.12026 0.0
C347 C 0.0692 0.10836 0.16005 0.0
C348 C 0.04511 0.15234 0.15664 0.0
C349 C 0.0113 0.14115 0.11663 0.0
C350 C 0.16976 0.18054 0.27111 0.0
C351 C 0.18977 0.13226 0.26941 0.0
C352 C 0.12792 0.17378 0.23709 0.0
C353 C 0.10255 0.11845 0.20369 0.0
C354 C 0.11293 0.07202 0.21116 0.0
C355 C 0.15654 0.07888 0.24389 0.0
H356 H 0.04458 0.05653 0.70019 0.0
H357 H 0.00511 0.92637 0.5592 0.0
H358 H 0.11194 0.10817 0.68062 0.0
H359 H 0.07473 0.97447 0.53941 0.0
H360 H 0.19167 0.10831 0.52681 0.0
H361 H 0.13086 0.03317 0.52778 0.0
H362 H 0.19857 0.09625 0.66997 0.0
H363 H 0.25932 0.16944 0.6676 0.0
C364 C 0.0484 0.0406 0.6645 0.0
C365 C 0.02312 0.98587 0.63172 0.0
C366 C 0.08886 0.06858 0.65344 0.0
C367 C 0.10303 0.04217 0.60934 0.0
C368 C 0.06754 0.99469 0.57437 0.0
C369 C 0.0261 0.96776 0.58551 0.0
C370 C 0.19533 0.10361 0.55747 0.0
C371 C 0.22244 0.14875 0.59928 0.0
C372 C 0.15909 0.06177 0.55855 0.0
C373 C 0.15451 0.06439 0.60101 0.0
C374 C 0.19741 0.0967 0.63784 0.0
C375 C 0.23362 0.13778 0.63606 0.0
H376 H 0.70842 0.15166 0.10045 0.0
H377 H 0.63789 0.97436 1.01469 0.0
H378 H 0.64261 0.1632 0.14981 0.0
H379 H 0.56725 0.98705 0.06186 0.0
H380 H 0.48413 1.00608 0.18088 0.0
H381 H 0.54905 0.99404 0.12921 0.0
H382 H 0.56054 0.17404 0.16721 0.0
H383 H 0.50254 0.18682 0.22253 0.0
C384 C 0.67711 0.1156 0.09087 0.0
C385 C 0.6784 0.06204 0.05347 0.0
C386 C 0.63879 0.12223 0.11944 0.0
C387 C 0.599 0.07604 0.11051 0.0
C388 C 0.598 0.02333 0.07099 0.0
C389 C 0.63789 0.01616 0.04325 0.0
C390 C 0.5017 0.04321 0.17887 0.0
C391 C 0.48761 0.09737 0.20581 0.0
C392 C 0.53823 0.03618 0.14842 0.0
C393 C 0.56025 0.08286 0.14313 0.0
C394 C 0.54602 0.13694 0.17048 0.0
C395 C 0.51155 0.14427 0.20211 0.0
H396 H 0.04537 0.4238 0.63971 0.0
H397 H 0.2137 0.50398 0.68851 0.0
H398 H 0.02234 0.50604 0.63273 0.0
H399 H 0.18976 0.58845 0.6854 0.0
H400 H 0.14742 0.69462 0.61769 0.0
H401 H 0.16723 0.61323 0.62777 0.0
H402 H 0.01095 0.60232 0.67 0.0
H403 H 0.99002 0.68186 0.65706 0.0
C404 C 0.07735 0.45944 0.6499 0.0
C405 C 0.13156 0.45712 0.66433 0.0
C406 C 0.06395 0.50695 0.64631 0.0
C407 C 0.10428 0.55359 0.65802 0.0
C408 C 0.15794 0.55256 0.67494 0.0
C409 C 0.17158 0.50446 0.67746 0.0
C410 C 0.11725 0.67445 0.62882 0.0
C411 C 0.06737 0.69426 0.63677 0.0
C412 C 0.12878 0.62828 0.63513 0.0
C413 C 0.09109 0.60189 0.6505 0.0
C414 C 0.04069 0.62136 0.65777 0.0
C415 C 0.02869 0.66688 0.65047 0.0
H416 H 0.26533 0.38212 0.57912 0.0
H417 H 0.25915 0.20558 0.54812 0.0
H418 H 0.33552 0.37012 0.53047 0.0
H419 H 0.33099 0.19498 0.5033 0.0
H420 H 0.31754 0.23382 0.36369 0.0
H421 H 0.29889 0.28954 0.43963 0.0
H422 H 0.43263 0.23447 0.49375 0.0
H423 H 0.45473 0.18157 0.4165 0.0
C424 C 0.28148 0.34211 0.5645 0.0
C425 C 0.25818 0.29533 0.56867 0.0
C426 C 0.32156 0.33529 0.53685 0.0
C427 C 0.33924 0.28189 0.51385 0.0
C428 C 0.31933 0.23699 0.52163 0.0
C429 C 0.27809 0.24313 0.54754 0.0
C430 C 0.34531 0.23592 0.39141 0.0
C431 C 0.38824 0.20363 0.38346 0.0
C432 C 0.33455 0.2683 0.43545 0.0
C433 C 0.36462 0.26682 0.47265 0.0
C434 C 0.40946 0.23712 0.46561 0.0
C435 C 0.42166 0.20646 0.4214 0.0
H436 H 0.07279 0.37622 0.77105 0.0
H437 H 0.10568 0.20458 0.69109 0.0
H438 H 0.01687 0.34389 0.81261 0.0
H439 H 0.05032 0.17201 0.73429 0.0
H440 H 0.01341 0.19813 0.88781 0.0
H441 H 0.06156 0.20721 0.83062 0.0
H442 H 0.92373 0.26663 0.78629 0.0
H443 H 0.87475 0.25553 0.84157 0.0
C444 C 0.06745 0.33128 0.76207 0.0
C445 C 0.09239 0.29262 0.72711 0.0
C446 C 0.03551 0.3128 0.7859 0.0
C447 C 0.02906 0.25541 0.7766 0.0
C448 C 0.05456 0.21645 0.742 0.0
C449 C 0.08572 0.23486 0.71713 0.0
C450 C 0.99268 0.21151 0.86502 0.0
C451 C 0.94048 0.22736 0.87031 0.0
C452 C 0.02036 0.21672 0.83226 0.0
C453 C 0.99657 0.23823 0.80437 0.0
C454 C 0.94327 0.25051 0.80764 0.0
C455 C 0.91546 0.24462 0.83974 0.0
H456 H 0.91629 0.8817 0.4178 0.0
H457 H 0.78249 0.74385 0.33787 0.0
H458 H 0.92203 0.89733 0.35186 0.0
H459 H 0.78647 0.76258 0.27339 0.0
H460 H 0.77763 0.86211 0.1892 0.0
H461 H 0.77391 0.85341 0.25888 0.0
H462 H 0.94248 0.82961 0.26576 0.0
H463 H 0.94577 0.83678 0.19533 0.0
C464 C 0.88821 0.85447 0.38638 0.0
C465 C 0.84899 0.81116 0.38357 0.0
C466 C 0.89132 0.86395 0.34873 0.0
C467 C 0.85452 0.83137 0.30772 0.0
C468 C 0.81491 0.78878 0.30487 0.0
C469 C 0.81251 0.77837 0.34208 0.0
C470 C 0.81401 0.85576 0.20599 0.0
C471 C 0.86198 0.85013 0.18702 0.0
C472 C 0.81179 0.85045 0.24558 0.0
C473 C 0.85788 0.84071 0.26752 0.0
C474 C 0.90648 0.83734 0.24957 0.0
C475 C 0.90833 0.8413 0.20935 0.0
H476 H 0.17155 0.92086 0.90213 0.0
H477 H 0.347 0.93803 0.91659 0.0
H478 H 0.17735 0.93743 0.98002 0.0
H479 H 0.35314 0.96252 0.99599 0.0
H480 H 0.36417 1.0101 0.14105 0.0
H481 H 0.34851 0.95139 0.05809 0.0
H482 H 0.19296 1.00979 0.05101 0.0
H483 H 0.2069 0.06287 0.13339 0.0
C484 C 0.21151 0.92799 0.92158 0.0
C485 C 0.25881 0.92945 0.90258 0.0
C486 C 0.21496 0.93882 0.96712 0.0
C487 C 0.26583 0.95342 0.99577 0.0
C488 C 0.31295 0.95154 0.97588 0.0
C489 C 0.30944 0.93881 0.93 0.0
C490 C 0.32569 1.00801 0.12168 0.0
C491 C 0.28662 0.04082 0.14366 0.0
C492 C 0.317 0.97533 0.07377 0.0
C493 C 0.27001 0.9766 0.04672 0.0
C494 C 0.22953 1.00651 0.06957 0.0
C495 C 0.2376 0.03763 0.11724 0.0
H496 H 0.91158 0.96431 0.93751 0.0
H497 H 0.75184 0.95197 0.86706 0.0
H498 H 0.94149 0.91102 0.86402 0.0
H499 H 0.78308 0.90138 0.79327 0.0
H500 H 0.96027 0.79033 0.7114 0.0
H501 H 0.89842 0.8012 0.76658 0.0
H502 H 0.8872 0.97277 0.78961 0.0
H503 H 0.95085 0.96313 0.73695 0.0
C504 C 0.88227 0.94813 0.90633 0.0
C505 C 0.82907 0.96111 0.90784 0.0
C506 C 0.89936 0.91765 0.86434 0.0
C507 C 0.86418 0.90155 0.82328 0.0
C508 C 0.81035 0.91232 0.82458 0.0
C509 C 0.79277 0.94152 0.86664 0.0
C510 C 0.9424 0.8292 0.72674 0.0
C511 C 0.95909 0.8756 0.71953 0.0
C512 C 0.90742 0.83545 0.75828 0.0
C513 C 0.88798 0.88758 0.78168 0.0
C514 C 0.90107 0.93193 0.77129 0.0
C515 C 0.93729 0.92643 0.74123 0.0
H516 H 0.18542 0.82539 0.34017 0.0
H517 H 0.28941 0.9737 0.44953 0.0
H518 H 0.14612 0.80551 0.39559 0.0
H519 H 0.25094 0.95303 0.5059 0.0
H520 H 0.12867 0.92003 0.59137 0.0
H521 H 0.17524 0.94744 0.5422 0.0
H522 H 0.16838 0.76891 0.44577 0.0
H523 H 0.12129 0.74207 0.49466 0.0
C524 C 0.19994 0.85383 0.37626 0.0
C525 C 0.241 0.90077 0.39033 0.0
C526 C 0.17778 0.84209 0.40824 0.0
C527 C 0.19626 0.87651 0.45556 0.0
C528 C 0.23568 0.92524 0.46986 0.0
C529 C 0.25771 0.93729 0.43757 0.0
C530 C 0.13771 0.88675 0.56 0.0
C531 C 0.12074 0.82884 0.54684 0.0
C532 C 0.16447 0.90247 0.53164 0.0
C533 C 0.17416 0.86065 0.48901 0.0
C534 C 0.16 0.80267 0.4774 0.0
C535 C 0.13349 0.7871 0.50573 0.0
H536 H 0.39863 0.43393 0.94875 0.0
H537 H 0.33989 0.25346 0.86467 0.0
H538 H 0.40291 0.4227 1.01711 0.0
H539 H 0.34573 0.24143 0.93336 0.0
H540 H 0.3171 0.25539 0.07352 0.0
H541 H 0.30966 0.26026 1.00163 0.0
H542 H 0.45557 0.38585 0.05665 0.0
H543 H 0.46142 0.38227 0.12839 0.0
C544 C 0.38707 0.39164 0.9449 0.0
C545 C 0.36947 0.34452 0.90125 0.0
C546 C 0.38979 0.38503 0.98416 0.0
C547 C 0.37565 0.33089 0.98102 0.0
C548 C 0.35672 0.28383 0.9373 0.0
C549 C 0.35344 0.29064 0.89787 0.0
C550 C 0.34773 0.28354 0.06985 0.0
C551 C 0.38946 0.31895 0.1067 0.0
C552 C 0.34358 0.28635 0.02866 0.0
C553 C 0.38145 0.32426 1.02337 0.0
C554 C 0.42459 0.35749 0.05972 0.0
C555 C 0.42828 0.35517 0.10084 0.0
H556 H 0.78556 0.1767 0.16903 0.0
H557 H 0.92401 0.0877 0.14383 0.0
H558 H 0.82038 0.22526 0.25107 0.0
H559 H 0.95768 0.13268 0.22537 0.0
H560 H 0.01431 0.21914 0.37637 0.0
H561 H 0.99376 0.2036 0.29798 0.0
H562 H 0.82305 0.20348 0.30906 0.0
H563 H 0.84432 0.22377 0.38765 0.0
C564 C 0.82424 0.1687 0.18111 0.0
C565 C 0.85289 0.12979 0.14999 0.0
C566 C 0.84396 0.1957 0.22829 0.0
C567 C 0.89159 0.18234 0.24576 0.0
C568 C 0.92144 0.14523 0.21403 0.0
C569 C 0.90229 0.1194 0.16687 0.0
C570 C 0.97263 0.21732 0.36238 0.0
C571 C 0.93094 0.22164 0.3884 0.0
C572 C 0.96057 0.20752 0.31697 0.0
C573 C 0.9064 0.20126 0.29613 0.0
C574 C 0.86536 0.20852 0.32321 0.0
C575 C 0.8775 0.21914 0.36853 0.0
loop_
_geom_bond_atom_site_label_1
_geom_bond_atom_site_label_2
_geom_bond_distance
_geom_bond_site_symmetry_2
_ccdc_geom_bond_type
Tb0 N31 2.660 . S
Tb0 N38 2.600 . S
Tb0 O44 2.546 . S
Tb0 O45 2.610 1_545 S
Tb0 O47 2.320 . S
Tb0 O48 2.552 . S
Tb0 O49 2.413 . S
Tb0 O51 2.362 . S
Tb0 O52 2.421 . S
Tb0 C64 2.833 . S
C1 C4 1.432 . S
C1 C5 1.414 . S
C1 N8 1.359 . S
C2 C4 1.417 . S
C2 C6 1.432 . S
C2 C14 1.410 . S
C3 C5 1.444 . S
C3 C6 1.317 . S
C3 H26 0.929 . S
C4 C1 1.432 . S
C4 C2 1.417 . S
C4 N12 1.360 . S
C5 C1 1.414 . S
C5 C3 1.444 . S
C5 C10 1.385 . S
C6 C2 1.432 . S
C6 C3 1.317 . S
C6 H18 0.930 1_554 S
C7 C9 1.392 . S
C7 C10 1.370 . S
C7 H19 0.931 . S
N8 C1 1.359 . S
N8 C9 1.327 . S
N8 Tb11 2.600 . S
C9 C7 1.392 . S
C9 N8 1.327 . S
C9 H16 0.930 . S
C10 C5 1.385 . S
C10 C7 1.370 . S
C10 H29 0.930 . S
Tb11 N8 2.600 . S
Tb11 N12 2.660 . S
Tb11 O45 2.362 . S
Tb11 O46 2.421 . S
Tb11 O50 2.546 . S
Tb11 O51 2.610 1_565 S
Tb11 O53 2.320 . S
Tb11 O54 2.552 1_565 S
Tb11 O55 2.413 . S
Tb11 C75 2.833 . S
N12 C4 1.360 . S
N12 Tb11 2.660 . S
N12 C13 1.305 . S
C13 N12 1.305 . S
C13 C15 1.407 . S
C13 H20 0.930 . S
C14 C2 1.410 . S
C14 C15 1.345 . S
C14 H22 0.930 1_554 S
C15 C13 1.407 . S
C15 C14 1.345 . S
C15 H17 0.930 . S
H16 C9 0.930 . S
H17 C15 0.930 . S
H18 C6 0.930 1_556 S
H19 C7 0.931 . S
H20 C13 0.930 . S
H21 C35 0.930 . S
H22 C14 0.930 1_556 S
H23 C41 0.930 . S
H24 C32 0.930 . S
H25 C39 0.931 . S
H26 C3 0.929 . S
H27 C33 0.930 . S
H28 C66 0.930 . S
H29 C10 0.930 . S
H30 C65 0.929 . S
N31 Tb0 2.660 . S
N31 C32 1.305 . S
N31 C36 1.360 . S
C32 H24 0.930 . S
C32 N31 1.305 . S
C32 C35 1.407 . S
C33 H27 0.930 . S
C33 C34 1.410 . S
C33 C35 1.345 . S
C34 C33 1.410 . S
C34 C36 1.417 . S
C34 C66 1.432 . S
C35 H21 0.930 . S
C35 C32 1.407 . S
C35 C33 1.345 . S
C36 N31 1.360 . S
C36 C34 1.417 . S
C36 C40 1.432 . S
H37 C42 0.930 . S
N38 Tb0 2.600 . S
N38 C40 1.359 . S
N38 C41 1.327 . S
C39 H25 0.931 . S
C39 C41 1.392 . S
C39 C42 1.370 . S
C40 C36 1.432 . S
C40 N38 1.359 . S
C40 C43 1.414 . S
C41 H23 0.930 . S
C41 N38 1.327 . S
C41 C39 1.392 . S
C42 H37 0.930 . S
C42 C39 1.370 . S
C42 C43 1.385 . S
C43 C40 1.414 . S
C43 C42 1.385 . S
C43 C65 1.444 . S
O44 Tb0 2.546 . S
O44 C64 1.251 . S
O45 Tb0 2.610 1_565 S
O45 Tb11 2.362 . S
O45 C56 1.283 . S
O46 Tb11 2.421 . S
O46 C63 1.262 1_565 S
O47 Tb0 2.320 . S
O47 C63 1.260 . S
O48 Tb0 2.552 . S
O48 C56 1.243 1_545 S
O49 Tb0 2.413 . S
O49 C64 1.256 . S
O50 Tb11 2.546 . S
O50 C75 1.251 . S
O51 Tb0 2.362 . S
O51 Tb11 2.610 1_545 S
O51 C67 1.283 . S
O52 Tb0 2.421 . S
O52 C74 1.262 . S
O53 Tb11 2.320 . S
O53 C74 1.260 1_565 S
O54 Tb11 2.552 1_545 S
O54 C67 1.243 . S
O55 Tb11 2.413 . S
O55 C75 1.256 . S
C56 O45 1.283 . S
C56 O48 1.243 1_565 S
C57 C59 1.382 . S
C57 C61 1.393 . S
C57 C64 1.500 . S
C58 C59 1.400 . S
C58 C60 1.384 . S
C59 C57 1.382 . S
C59 C58 1.400 . S
C59 H76 0.930 . S
C60 C58 1.384 . S
C60 C62 1.392 . S
C60 H77 0.931 . S
C61 C57 1.393 . S
C61 C62 1.401 . S
C61 H78 0.930 . S
C62 C60 1.392 . S
C62 C61 1.401 . S
C62 H79 0.930 . S
C63 O46 1.262 1_545 S
C63 O47 1.260 . S
C64 Tb0 2.833 . S
C64 O44 1.251 . S
C64 O49 1.256 . S
C64 C57 1.500 . S
C65 H30 0.929 . S
C65 C43 1.444 . S
C65 C66 1.317 . S
C66 H28 0.930 . S
C66 C34 1.432 . S
C66 C65 1.317 . S
C67 O51 1.283 . S
C67 O54 1.243 . S
C68 C69 1.382 . S
C68 C72 1.393 . S
C68 C75 1.500 . S
C69 C68 1.382 . S
C69 C70 1.400 . S
C69 H80 0.930 . S
C70 C69 1.400 . S
C70 C71 1.384 . S
C71 C70 1.384 . S
C71 C73 1.392 . S
C71 H81 0.931 . S
C72 C68 1.393 . S
C72 C73 1.401 . S
C72 H82 0.930 . S
C73 C71 1.392 . S
C73 C72 1.401 . S
C73 H83 0.930 . S
C74 O52 1.262 . S
C74 O53 1.260 1_545 S
C75 Tb11 2.833 . S
C75 O50 1.251 . S
C75 O55 1.256 . S
C75 C68 1.500 . S
H76 C59 0.930 . S
H77 C60 0.931 . S
H78 C61 0.930 . S
H79 C62 0.930 . S
H80 C69 0.930 . S
H81 C71 0.931 . S
H82 C72 0.930 . S
H83 C73 0.930 . S
Tb84 N115 2.660 . S
Tb84 N122 2.600 . S
Tb84 O128 2.546 . S
Tb84 O129 2.610 . S
Tb84 O131 2.320 . S
Tb84 O132 2.552 . S
Tb84 O133 2.413 . S
Tb84 O135 2.362 . S
Tb84 O136 2.421 . S
Tb84 C148 2.833 . S
C85 C88 1.432 . S
C85 C89 1.414 . S
C85 N92 1.359 . S
C86 C88 1.417 . S
C86 C90 1.432 . S
C86 C98 1.410 . S
C87 C89 1.444 . S
C87 C90 1.317 . S
C87 H110 0.929 . S
C88 C85 1.432 . S
C88 C86 1.417 . S
C88 N96 1.360 . S
C89 C85 1.414 . S
C89 C87 1.444 . S
C89 C94 1.385 . S
C90 C86 1.432 . S
C90 C87 1.317 . S
C90 H102 0.930 . S
C91 C93 1.392 . S
C91 C94 1.370 . S
C91 H103 0.931 . S
N92 C85 1.359 . S
N92 C93 1.327 . S
N92 Tb95 2.600 . S
C93 C91 1.392 . S
C93 N92 1.327 . S
C93 H100 0.930 . S
C94 C89 1.385 . S
C94 C91 1.370 . S
C94 H113 0.930 . S
Tb95 N92 2.600 . S
Tb95 N96 2.660 . S
Tb95 O129 2.362 . S
Tb95 O130 2.421 . S
Tb95 O134 2.546 . S
Tb95 O135 2.610 . S
Tb95 O137 2.320 . S
Tb95 O138 2.552 . S
Tb95 O139 2.413 . S
Tb95 C159 2.833 . S
N96 C88 1.360 . S
N96 Tb95 2.660 . S
N96 C97 1.305 . S
C97 N96 1.305 . S
C97 C99 1.407 . S
C97 H104 0.930 . S
C98 C86 1.410 . S
C98 C99 1.345 . S
C98 H106 0.930 . S
C99 C97 1.407 . S
C99 C98 1.345 . S
C99 H101 0.930 . S
H100 C93 0.930 . S
H101 C99 0.930 . S
H102 C90 0.930 . S
H103 C91 0.931 . S
H104 C97 0.930 . S
H105 C119 0.930 . S
H106 C98 0.930 . S
H107 C125 0.930 . S
H108 C116 0.930 . S
H109 C123 0.931 . S
H110 C87 0.929 . S
H111 C117 0.930 . S
H112 C150 0.930 . S
H113 C94 0.930 . S
H114 C149 0.929 . S
N115 Tb84 2.660 . S
N115 C116 1.305 . S
N115 C120 1.360 1_455 S
C116 H108 0.930 . S
C116 N115 1.305 . S
C116 C119 1.407 . S
C117 H111 0.930 . S
C117 C118 1.410 . S
C117 C119 1.346 1_655 S
C118 C117 1.410 . S
C118 C120 1.417 . S
C118 C150 1.432 . S
C119 H105 0.930 . S
C119 C116 1.407 . S
C119 C117 1.346 1_455 S
C120 N115 1.360 1_655 S
C120 C118 1.417 . S
C120 C124 1.432 . S
H121 C126 0.930 . S
N122 Tb84 2.600 . S
N122 C124 1.359 1_455 S
N122 C125 1.327 . S
C123 H109 0.931 . S
C123 C125 1.392 1_655 S
C123 C126 1.370 . S
C124 C120 1.432 . S
C124 N122 1.359 1_655 S
C124 C127 1.414 . S
C125 H107 0.930 . S
C125 N122 1.327 . S
C125 C123 1.392 1_455 S
C126 H121 0.930 . S
C126 C123 1.370 . S
C126 C127 1.385 . S
C127 C124 1.414 . S
C127 C126 1.385 . S
C127 C149 1.444 . S
O128 Tb84 2.546 . S
O128 C148 1.251 . S
O129 Tb84 2.610 . S
O129 Tb95 2.362 . S
O129 C140 1.283 . S
O130 Tb95 2.421 . S
O130 C147 1.262 . S
O131 Tb84 2.320 . S
O131 C147 1.260 . S
O132 Tb84 2.552 . S
O132 C140 1.243 . S
O133 Tb84 2.413 . S
O133 C148 1.256 . S
O134 Tb95 2.546 . S
O134 C159 1.251 . S
O135 Tb84 2.362 . S
O135 Tb95 2.610 . S
O135 C151 1.283 . S
O136 Tb84 2.421 . S
O136 C158 1.262 . S
O137 Tb95 2.320 . S
O137 C158 1.260 . S
O138 Tb95 2.552 . S
O138 C151 1.243 . S
O139 Tb95 2.413 . S
O139 C159 1.256 . S
C140 O129 1.283 . S
C140 O132 1.243 . S
C141 C143 1.382 . S
C141 C145 1.393 1_455 S
C141 C148 1.500 . S
C142 C143 1.400 . S
C142 C144 1.384 1_455 S
C143 C141 1.382 . S
C143 C142 1.400 . S
C143 H160 0.930 . S
C144 C142 1.384 1_655 S
C144 C146 1.392 . S
C144 H161 0.931 . S
C145 C141 1.393 1_655 S
C145 C146 1.401 . S
C145 H162 0.930 . S
C146 C144 1.392 . S
C146 C145 1.401 . S
C146 H163 0.930 . S
C147 O130 1.262 . S
C147 O131 1.260 . S
C148 Tb84 2.833 . S
C148 O128 1.251 . S
C148 O133 1.256 . S
C148 C141 1.500 . S
C149 H114 0.929 . S
C149 C127 1.444 . S
C149 C150 1.317 . S
C150 H112 0.930 . S
C150 C118 1.432 . S
C150 C149 1.317 . S
C151 O135 1.283 . S
C151 O138 1.243 . S
C152 C153 1.382 . S
C152 C156 1.393 . S
C152 C159 1.500 . S
C153 C152 1.382 . S
C153 C154 1.400 . S
C153 H164 0.930 . S
C154 C153 1.400 . S
C154 C155 1.384 . S
C155 C154 1.384 . S
C155 C157 1.392 . S
C155 H165 0.931 . S
C156 C152 1.393 . S
C156 C157 1.401 . S
C156 H166 0.930 . S
C157 C155 1.392 . S
C157 C156 1.401 . S
C157 H167 0.930 . S
C158 O136 1.262 . S
C158 O137 1.260 . S
C159 Tb95 2.833 . S
C159 O134 1.251 . S
C159 O139 1.256 . S
C159 C152 1.500 . S
H160 C143 0.930 . S
H161 C144 0.931 . S
H162 C145 0.930 . S
H163 C146 0.930 . S
H164 C153 0.930 . S
H165 C155 0.931 . S
H166 C156 0.930 . S
H167 C157 0.930 . S
Tb168 N199 2.660 . S
Tb168 N206 2.600 . S
Tb168 O212 2.546 . S
Tb168 O213 2.610 . S
Tb168 O215 2.320 . S
Tb168 O216 2.552 1_554 S
Tb168 O217 2.413 . S
Tb168 O219 2.362 . S
Tb168 O220 2.421 . S
Tb168 C232 2.833 . S
C169 C172 1.432 . S
C169 C173 1.414 . S
C169 N176 1.359 1_556 S
C170 C172 1.417 . S
C170 C174 1.432 . S
C170 C182 1.410 . S
C171 C173 1.444 . S
C171 C174 1.317 . S
C171 H194 0.929 . S
C172 C169 1.432 . S
C172 C170 1.417 . S
C172 N180 1.360 1_556 S
C173 C169 1.414 . S
C173 C171 1.444 . S
C173 C178 1.385 . S
C174 C170 1.432 . S
C174 C171 1.317 . S
C174 H186 0.930 . S
C175 C177 1.392 . S
C175 C178 1.370 1_554 S
C175 H187 0.931 1_655 S
N176 C169 1.359 1_554 S
N176 C177 1.327 . S
N176 Tb179 2.600 1_565 S
C177 C175 1.392 . S
C177 N176 1.327 . S
C177 H184 0.930 . S
C178 C173 1.385 . S
C178 C175 1.370 1_556 S
C178 H197 0.930 . S
Tb179 N176 2.600 1_545 S
Tb179 N180 2.660 1_545 S
Tb179 O213 2.362 . S
Tb179 O214 2.421 . S
Tb179 O218 2.546 1_545 S
Tb179 O219 2.610 . S
Tb179 O221 2.320 . S
Tb179 O222 2.552 . S
Tb179 O223 2.413 1_545 S
Tb179 C243 2.833 1_545 S
N180 C172 1.360 1_554 S
N180 Tb179 2.660 1_565 S
N180 C181 1.305 1_554 S
C181 N180 1.305 1_556 S
C181 C183 1.407 . S
C181 H188 0.930 1_556 S
C182 C170 1.410 . S
C182 C183 1.345 . S
C182 H190 0.930 . S
C183 C181 1.407 . S
C183 C182 1.345 . S
C183 H185 0.930 . S
H184 C177 0.930 . S
H185 C183 0.930 . S
H186 C174 0.930 . S
H187 C175 0.931 1_455 S
H188 C181 0.930 1_554 S
H189 C203 0.930 . S
H190 C182 0.930 . S
H191 C209 0.930 . S
H192 C200 0.930 . S
H193 C207 0.931 . S
H194 C171 0.929 . S
H195 C201 0.930 1_455 S
H196 C234 0.930 . S
H197 C178 0.930 . S
H198 C233 0.929 . S
N199 Tb168 2.660 . S
N199 C200 1.305 . S
N199 C204 1.360 . S
C200 H192 0.930 . S
C200 N199 1.305 . S
C200 C203 1.407 1_655 S
C201 H195 0.930 1_655 S
C201 C202 1.410 . S
C201 C203 1.345 1_655 S
C202 C201 1.410 . S
C202 C204 1.417 . S
C202 C234 1.432 . S
C203 H189 0.930 . S
C203 C200 1.407 1_455 S
C203 C201 1.345 1_455 S
C204 N199 1.360 . S
C204 C202 1.417 . S
C204 C208 1.432 . S
H205 C210 0.930 . S
N206 Tb168 2.600 . S
N206 C208 1.359 . S
N206 C209 1.327 . S
C207 H193 0.931 . S
C207 C209 1.392 . S
C207 C210 1.370 . S
C208 C204 1.432 . S
C208 N206 1.359 . S
C208 C211 1.414 . S
C209 H191 0.930 . S
C209 N206 1.327 . S
C209 C207 1.392 . S
C210 H205 0.930 . S
C210 C207 1.370 . S
C210 C211 1.385 . S
C211 C208 1.414 . S
C211 C210 1.385 . S
C211 C233 1.444 . S
O212 Tb168 2.546 . S
O212 C232 1.251 . S
O213 Tb168 2.610 . S
O213 Tb179 2.362 . S
O213 C224 1.283 1_554 S
O214 Tb179 2.421 . S
O214 C231 1.262 . S
O215 Tb168 2.320 . S
O215 C231 1.260 . S
O216 Tb168 2.552 1_556 S
O216 C224 1.243 . S
O217 Tb168 2.413 . S
O217 C232 1.256 . S
O218 Tb179 2.546 1_565 S
O218 C243 1.251 . S
O219 Tb168 2.362 . S
O219 Tb179 2.610 . S
O219 C235 1.283 . S
O220 Tb168 2.421 . S
O220 C242 1.262 . S
O221 Tb179 2.320 . S
O221 C242 1.260 . S
O222 Tb179 2.552 . S
O222 C235 1.243 . S
O223 Tb179 2.413 1_565 S
O223 C243 1.256 . S
C224 O213 1.283 1_556 S
C224 O216 1.243 . S
C225 C227 1.382 . S
C225 C229 1.393 . S
C225 C232 1.500 1_556 S
C226 C227 1.400 . S
C226 C228 1.384 . S
C227 C225 1.382 . S
C227 C226 1.400 . S
C227 H244 0.930 . S
C228 C226 1.384 . S
C228 C230 1.392 . S
C228 H245 0.931 . S
C229 C225 1.393 . S
C229 C230 1.401 . S
C229 H246 0.930 . S
C230 C228 1.392 . S
C230 C229 1.401 . S
C230 H247 0.930 . S
C231 O214 1.262 . S
C231 O215 1.260 . S
C232 Tb168 2.833 . S
C232 O212 1.251 . S
C232 O217 1.256 . S
C232 C225 1.500 1_554 S
C233 H198 0.929 . S
C233 C211 1.444 . S
C233 C234 1.317 . S
C234 H196 0.930 . S
C234 C202 1.432 . S
C234 C233 1.317 . S
C235 O219 1.283 . S
C235 O222 1.243 . S
C236 C237 1.382 . S
C236 C240 1.393 . S
C236 C243 1.500 . S
C237 C236 1.382 . S
C237 C238 1.400 . S
C237 H248 0.930 . S
C238 C237 1.400 . S
C238 C239 1.384 . S
C239 C238 1.384 . S
C239 C241 1.392 . S
C239 H249 0.931 . S
C240 C236 1.393 . S
C240 C241 1.401 . S
C240 H250 0.930 . S
C241 C239 1.392 . S
C241 C240 1.401 . S
C241 H251 0.930 . S
C242 O220 1.262 . S
C242 O221 1.260 . S
C243 Tb179 2.833 1_565 S
C243 O218 1.251 . S
C243 O223 1.256 . S
C243 C236 1.500 . S
H244 C227 0.930 . S
H245 C228 0.931 . S
H246 C229 0.930 . S
H247 C230 0.930 . S
H248 C237 0.930 . S
H249 C239 0.931 . S
H250 C240 0.930 . S
H251 C241 0.930 . S
Tb252 N283 2.660 . S
Tb252 N290 2.600 . S
Tb252 O296 2.546 . S
Tb252 O297 2.610 1_655 S
Tb252 O299 2.320 . S
Tb252 O300 2.552 1_655 S
Tb252 O301 2.413 . S
Tb252 O303 2.362 . S
Tb252 O304 2.421 . S
Tb252 C316 2.833 . S
C253 C256 1.432 . S
C253 C257 1.414 . S
C253 N260 1.359 . S
C254 C256 1.417 . S
C254 C258 1.432 . S
C254 C266 1.410 . S
C255 C257 1.444 . S
C255 C258 1.317 . S
C255 H278 0.929 . S
C256 C253 1.432 . S
C256 C254 1.417 . S
C256 N264 1.360 . S
C257 C253 1.414 . S
C257 C255 1.444 . S
C257 C262 1.385 . S
C258 C254 1.432 . S
C258 C255 1.317 . S
C258 H270 0.930 . S
C259 C261 1.392 1_545 S
C259 C262 1.370 1_545 S
C259 H271 0.931 . S
N260 C253 1.359 . S
N260 C261 1.327 . S
N260 Tb263 2.600 . S
C261 C259 1.392 1_565 S
C261 N260 1.327 . S
C261 H268 0.930 . S
C262 C257 1.385 . S
C262 C259 1.370 1_565 S
C262 H281 0.930 1_565 S
Tb263 N260 2.600 . S
Tb263 N264 2.660 . S
Tb263 O297 2.362 . S
Tb263 O298 2.421 . S
Tb263 O302 2.546 . S
Tb263 O303 2.610 1_455 S
Tb263 O305 2.320 . S
Tb263 O306 2.552 . S
Tb263 O307 2.413 . S
Tb263 C327 2.833 . S
N264 C256 1.360 . S
N264 Tb263 2.660 . S
N264 C265 1.305 . S
C265 N264 1.305 . S
C265 C267 1.407 . S
C265 H272 0.930 . S
C266 C254 1.410 . S
C266 C267 1.345 . S
C266 H274 0.930 . S
C267 C265 1.407 . S
C267 C266 1.345 . S
C267 H269 0.930 . S
H268 C261 0.930 . S
H269 C267 0.930 . S
H270 C258 0.930 . S
H271 C259 0.931 . S
H272 C265 0.930 . S
H273 C287 0.930 . S
H274 C266 0.930 . S
H275 C293 0.930 . S
H276 C284 0.930 . S
H277 C291 0.931 . S
H278 C255 0.929 . S
H279 C285 0.930 . S
H280 C318 0.930 . S
H281 C262 0.930 1_545 S
H282 C317 0.929 . S
N283 Tb252 2.660 . S
N283 C284 1.305 . S
N283 C288 1.360 . S
C284 H276 0.930 . S
C284 N283 1.305 . S
C284 C287 1.407 . S
C285 H279 0.930 . S
C285 C286 1.410 . S
C285 C287 1.345 . S
C286 C285 1.410 . S
C286 C288 1.417 . S
C286 C318 1.432 . S
C287 H273 0.930 . S
C287 C284 1.407 . S
C287 C285 1.345 . S
C288 N283 1.360 . S
C288 C286 1.417 . S
C288 C292 1.432 . S
H289 C294 0.930 . S
N290 Tb252 2.600 . S
N290 C292 1.359 . S
N290 C293 1.327 . S
C291 H277 0.931 . S
C291 C293 1.392 . S
C291 C294 1.370 . S
C292 C288 1.432 . S
C292 N290 1.359 . S
C292 C295 1.414 . S
C293 H275 0.930 . S
C293 N290 1.327 . S
C293 C291 1.392 . S
C294 H289 0.930 . S
C294 C291 1.370 . S
C294 C295 1.385 . S
C295 C292 1.414 . S
C295 C294 1.385 . S
C295 C317 1.444 . S
O296 Tb252 2.546 . S
O296 C316 1.251 . S
O297 Tb252 2.610 1_455 S
O297 Tb263 2.362 . S
O297 C308 1.283 . S
O298 Tb263 2.421 . S
O298 C315 1.262 . S
O299 Tb252 2.320 . S
O299 C315 1.260 1_655 S
O300 Tb252 2.552 1_455 S
O300 C308 1.243 . S
O301 Tb252 2.413 . S
O301 C316 1.256 . S
O302 Tb263 2.546 . S
O302 C327 1.251 . S
O303 Tb252 2.362 . S
O303 Tb263 2.610 1_655 S
O303 C319 1.283 . S
O304 Tb252 2.421 . S
O304 C326 1.262 1_655 S
O305 Tb263 2.320 . S
O305 C326 1.260 . S
O306 Tb263 2.552 . S
O306 C319 1.243 1_455 S
O307 Tb263 2.413 . S
O307 C327 1.256 . S
C308 O297 1.283 . S
C308 O300 1.243 . S
C309 C311 1.382 . S
C309 C313 1.393 . S
C309 C316 1.500 . S
C310 C311 1.400 . S
C310 C312 1.384 . S
C311 C309 1.382 . S
C311 C310 1.400 . S
C311 H328 0.930 . S
C312 C310 1.384 . S
C312 C314 1.392 . S
C312 H329 0.931 . S
C313 C309 1.393 . S
C313 C314 1.401 . S
C313 H330 0.930 . S
C314 C312 1.392 . S
C314 C313 1.401 . S
C314 H331 0.930 . S
C315 O298 1.262 . S
C315 O299 1.260 1_455 S
C316 Tb252 2.833 . S
C316 O296 1.251 . S
C316 O301 1.256 . S
C316 C309 1.500 . S
C317 H282 0.929 . S
C317 C295 1.444 . S
C317 C318 1.317 . S
C318 H280 0.930 . S
C318 C286 1.432 . S
C318 C317 1.317 . S
C319 O303 1.283 . S
C319 O306 1.243 1_655 S
C320 C321 1.382 . S
C320 C324 1.393 . S
C320 C327 1.500 . S
C321 C320 1.382 . S
C321 C322 1.400 . S
C321 H332 0.930 . S
C322 C321 1.400 . S
C322 C323 1.384 . S
C323 C322 1.384 . S
C323 C325 1.392 . S
C323 H333 0.931 . S
C324 C320 1.393 . S
C324 C325 1.401 . S
C324 H334 0.930 . S
C325 C323 1.392 . S
C325 C324 1.401 . S
C325 H335 0.930 . S
C326 O304 1.262 1_455 S
C326 O305 1.260 . S
C327 Tb263 2.833 . S
C327 O302 1.251 . S
C327 O307 1.256 . S
C327 C320 1.500 . S
H328 C311 0.930 . S
H329 C312 0.931 . S
H330 C313 0.930 . S
H331 C314 0.930 . S
H332 C321 0.930 . S
H333 C323 0.931 . S
H334 C324 0.930 . S
H335 C325 0.930 . S
H336 C344 0.950 . S
H337 C349 0.950 . S
H338 C346 0.948 1_565 S
H339 C348 0.950 . S
H340 C350 0.950 . S
H341 C352 0.950 . S
H342 C354 0.950 1_565 S
H343 C355 0.950 . S
C344 H336 0.950 . S
C344 C345 1.386 1_655 S
C344 C346 1.391 1_655 S
C345 C344 1.386 1_455 S
C345 C349 1.393 . S
C346 H338 0.948 1_545 S
C346 C344 1.391 1_455 S
C346 C347 1.400 . S
C347 C346 1.400 . S
C347 C348 1.398 . S
C347 C353 1.491 . S
C348 H339 0.950 . S
C348 C347 1.398 . S
C348 C349 1.391 . S
C349 H337 0.950 . S
C349 C345 1.393 . S
C349 C348 1.391 . S
C350 H340 0.950 . S
C350 C351 1.386 . S
C350 C352 1.391 . S
C351 C350 1.386 . S
C351 C355 1.393 1_545 S
C352 H341 0.950 . S
C352 C350 1.391 . S
C352 C353 1.400 . S
C353 C347 1.491 . S
C353 C352 1.400 . S
C353 C354 1.398 . S
C354 H342 0.950 1_545 S
C354 C353 1.398 . S
C354 C355 1.391 1_545 S
C355 H343 0.950 . S
C355 C351 1.393 1_565 S
C355 C354 1.391 1_565 S
H356 C364 0.950 . S
H357 C369 0.950 . S
H358 C366 0.950 . S
H359 C368 0.950 . S
H360 C370 0.950 . S
H361 C372 0.950 . S
H362 C374 0.950 . S
H363 C375 0.950 . S
C364 H356 0.950 . S
C364 C365 1.386 . S
C364 C366 1.391 1_565 S
C365 C364 1.386 . S
C365 C369 1.393 . S
C366 H358 0.950 . S
C366 C364 1.391 1_545 S
C366 C367 1.400 . S
C367 C366 1.400 . S
C367 C368 1.398 1_545 S
C367 C373 1.491 . S
C368 H359 0.950 . S
C368 C367 1.398 1_565 S
C368 C369 1.391 . S
C369 H357 0.950 . S
C369 C365 1.393 . S
C369 C368 1.391 . S
C370 H360 0.950 . S
C370 C371 1.386 . S
C370 C372 1.391 . S
C371 C370 1.386 . S
C371 C375 1.393 . S
C372 H361 0.950 . S
C372 C370 1.391 . S
C372 C373 1.400 . S
C373 C367 1.491 . S
C373 C372 1.400 . S
C373 C374 1.398 . S
C374 H362 0.950 . S
C374 C373 1.398 . S
C374 C375 1.391 . S
C375 H363 0.950 . S
C375 C371 1.393 . S
C375 C374 1.391 . S
H376 C384 0.950 . S
H377 C389 0.950 . S
H378 C386 0.950 . S
H379 C388 0.950 . S
H380 C390 0.950 1_565 S
H381 C392 0.950 . S
H382 C394 0.950 . S
H383 C395 0.950 . S
C384 H376 0.950 . S
C384 C385 1.386 . S
C384 C386 1.391 . S
C385 C384 1.386 . S
C385 C389 1.393 . S
C386 H378 0.950 . S
C386 C384 1.391 . S
C386 C387 1.400 . S
C387 C386 1.400 . S
C387 C388 1.398 . S
C387 C393 1.491 . S
C388 H379 0.950 . S
C388 C387 1.398 . S
C388 C389 1.391 . S
C389 H377 0.950 . S
C389 C385 1.393 . S
C389 C388 1.391 . S
C390 H380 0.950 1_545 S
C390 C391 1.386 . S
C390 C392 1.391 . S
C391 C390 1.386 . S
C391 C395 1.393 . S
C392 H381 0.950 . S
C392 C390 1.391 . S
C392 C393 1.400 . S
C393 C387 1.491 . S
C393 C392 1.400 . S
C393 C394 1.398 . S
C394 H382 0.950 . S
C394 C393 1.398 . S
C394 C395 1.391 . S
C395 H383 0.950 . S
C395 C391 1.393 . S
C395 C394 1.391 . S
H396 C404 0.950 . S
H397 C409 0.950 . S
H398 C406 0.950 . S
H399 C408 0.950 . S
H400 C410 0.950 . S
H401 C412 0.950 . S
H402 C414 0.950 . S
H403 C415 0.950 . S
C404 H396 0.950 . S
C404 C405 1.386 . S
C404 C406 1.391 . S
C405 C404 1.386 . S
C405 C409 1.393 . S
C406 H398 0.950 . S
C406 C404 1.391 . S
C406 C407 1.400 . S
C407 C406 1.400 . S
C407 C408 1.398 . S
C407 C413 1.491 . S
C408 H399 0.950 . S
C408 C407 1.398 . S
C408 C409 1.391 . S
C409 H397 0.950 . S
C409 C405 1.393 . S
C409 C408 1.391 . S
C410 H400 0.950 . S
C410 C411 1.386 . S
C410 C412 1.391 . S
C411 C410 1.386 . S
C411 C415 1.393 . S
C412 H401 0.950 . S
C412 C410 1.391 . S
C412 C413 1.400 . S
C413 C407 1.491 . S
C413 C412 1.400 . S
C413 C414 1.398 . S
C414 H402 0.950 . S
C414 C413 1.398 . S
C414 C415 1.391 . S
C415 H403 0.950 . S
C415 C411 1.393 . S
C415 C414 1.391 . S
H416 C424 0.950 . S
H417 C429 0.950 . S
H418 C426 0.950 . S
H419 C428 0.950 . S
H420 C430 0.950 . S
H421 C432 0.950 . S
H422 C434 0.950 . S
H423 C435 0.950 . S
C424 H416 0.950 . S
C424 C425 1.386 . S
C424 C426 1.391 . S
C425 C424 1.386 . S
C425 C429 1.393 . S
C426 H418 0.950 . S
C426 C424 1.391 . S
C426 C427 1.400 . S
C427 C426 1.400 . S
C427 C428 1.398 . S
C427 C433 1.491 . S
C428 H419 0.950 . S
C428 C427 1.398 . S
C428 C429 1.391 . S
C429 H417 0.950 . S
C429 C425 1.393 . S
C429 C428 1.391 . S
C430 H420 0.950 . S
C430 C431 1.386 . S
C430 C432 1.391 . S
C431 C430 1.386 . S
C431 C435 1.393 . S
C432 H421 0.950 . S
C432 C430 1.391 . S
C432 C433 1.400 . S
C433 C427 1.491 . S
C433 C432 1.400 . S
C433 C434 1.398 . S
C434 H422 0.950 . S
C434 C433 1.398 . S
C434 C435 1.391 . S
C435 H423 0.950 . S
C435 C431 1.393 . S
C435 C434 1.391 . S
H436 C444 0.950 . S
H437 C449 0.950 . S
H438 C446 0.950 1_655 S
H439 C448 0.950 . S
H440 C450 0.950 . S
H441 C452 0.950 . S
H442 C454 0.950 . S
H443 C455 0.950 . S
C444 H436 0.950 . S
C444 C445 1.386 . S
C444 C446 1.391 . S
C445 C444 1.386 . S
C445 C449 1.393 . S
C446 H438 0.950 1_455 S
C446 C444 1.391 . S
C446 C447 1.400 . S
C447 C446 1.400 . S
C447 C448 1.398 . S
C447 C453 1.491 . S
C448 H439 0.950 . S
C448 C447 1.398 . S
C448 C449 1.391 . S
C449 H437 0.950 . S
C449 C445 1.393 . S
C449 C448 1.391 . S
C450 H440 0.950 . S
C450 C451 1.386 1_455 S
C450 C452 1.391 . S
C451 C450 1.386 1_655 S
C451 C455 1.393 . S
C452 H441 0.950 . S
C452 C450 1.391 . S
C452 C453 1.400 . S
C453 C447 1.491 . S
C453 C452 1.400 . S
C453 C454 1.398 1_455 S
C454 H442 0.950 . S
C454 C453 1.398 1_655 S
C454 C455 1.391 . S
C455 H443 0.950 . S
C455 C451 1.393 . S
C455 C454 1.391 . S
H456 C464 0.950 . S
H457 C469 0.950 . S
H458 C466 0.950 . S
H459 C468 0.950 . S
H460 C470 0.950 . S
H461 C472 0.950 . S
H462 C474 0.950 . S
H463 C475 0.950 1_545 S
C464 H456 0.950 . S
C464 C465 1.386 . S
C464 C466 1.391 . S
C465 C464 1.386 . S
C465 C469 1.393 . S
C466 H458 0.950 . S
C466 C464 1.391 . S
C466 C467 1.400 . S
C467 C466 1.400 . S
C467 C468 1.398 . S
C467 C473 1.491 . S
C468 H459 0.950 . S
C468 C467 1.398 . S
C468 C469 1.391 . S
C469 H457 0.950 . S
C469 C465 1.393 . S
C469 C468 1.391 . S
C470 H460 0.950 . S
C470 C471 1.386 . S
C470 C472 1.391 . S
C471 C470 1.386 . S
C471 C475 1.393 . S
C472 H461 0.950 . S
C472 C470 1.391 . S
C472 C473 1.400 . S
C473 C467 1.491 . S
C473 C472 1.400 . S
C473 C474 1.398 . S
C474 H462 0.950 . S
C474 C473 1.398 . S
C474 C475 1.391 . S
C475 H463 0.950 1_565 S
C475 C471 1.393 . S
C475 C474 1.391 . S
H476 C484 0.950 . S
H477 C489 0.950 . S
H478 C486 0.950 . S
H479 C488 0.950 . S
H480 C490 0.950 . S
H481 C492 0.950 . S
H482 C494 0.950 . S
H483 C495 0.950 . S
C484 H476 0.950 . S
C484 C485 1.386 . S
C484 C486 1.391 . S
C485 C484 1.386 . S
C485 C489 1.393 . S
C486 H478 0.950 . S
C486 C484 1.391 . S
C486 C487 1.400 . S
C487 C486 1.400 . S
C487 C488 1.398 . S
C487 C493 1.491 . S
C488 H479 0.950 . S
C488 C487 1.398 . S
C488 C489 1.391 . S
C489 H477 0.950 . S
C489 C485 1.393 . S
C489 C488 1.391 . S
C490 H480 0.950 . S
C490 C491 1.386 . S
C490 C492 1.391 1_554 S
C491 C490 1.386 . S
C491 C495 1.393 . S
C492 H481 0.950 . S
C492 C490 1.391 1_556 S
C492 C493 1.400 . S
C493 C487 1.491 . S
C493 C492 1.400 . S
C493 C494 1.398 . S
C494 H482 0.950 . S
C494 C493 1.398 . S
C494 C495 1.391 1_556 S
C495 H483 0.950 . S
C495 C491 1.393 . S
C495 C494 1.391 1_554 S
H496 C504 0.950 . S
H497 C509 0.950 . S
H498 C506 0.950 . S
H499 C508 0.950 . S
H500 C510 0.950 . S
H501 C512 0.950 . S
H502 C514 0.950 . S
H503 C515 0.950 1_455 S
C504 H496 0.950 . S
C504 C505 1.386 . S
C504 C506 1.391 1_545 S
C505 C504 1.386 . S
C505 C509 1.393 1_545 S
C506 H498 0.950 . S
C506 C504 1.391 1_565 S
C506 C507 1.400 . S
C507 C506 1.400 . S
C507 C508 1.398 . S
C507 C513 1.491 . S
C508 H499 0.950 . S
C508 C507 1.398 . S
C508 C509 1.391 . S
C509 H497 0.950 . S
C509 C505 1.393 1_565 S
C509 C508 1.391 . S
C510 H500 0.950 . S
C510 C511 1.386 . S
C510 C512 1.391 . S
C511 C510 1.386 . S
C511 C515 1.393 . S
C512 H501 0.950 . S
C512 C510 1.391 . S
C512 C513 1.400 . S
C513 C507 1.491 . S
C513 C512 1.400 . S
C513 C514 1.398 . S
C514 H502 0.950 . S
C514 C513 1.398 . S
C514 C515 1.391 . S
C515 H503 0.950 1_655 S
C515 C511 1.393 . S
C515 C514 1.391 . S
H516 C524 0.950 . S
H517 C529 0.950 . S
H518 C526 0.950 . S
H519 C528 0.950 . S
H520 C530 0.950 . S
H521 C532 0.950 . S
H522 C534 0.950 . S
H523 C535 0.950 . S
C524 H516 0.950 . S
C524 C525 1.386 . S
C524 C526 1.391 . S
C525 C524 1.386 . S
C525 C529 1.393 . S
C526 H518 0.950 . S
C526 C524 1.391 . S
C526 C527 1.400 . S
C527 C526 1.400 . S
C527 C528 1.398 . S
C527 C533 1.491 . S
C528 H519 0.950 . S
C528 C527 1.398 . S
C528 C529 1.391 . S
C529 H517 0.950 . S
C529 C525 1.393 . S
C529 C528 1.391 . S
C530 H520 0.950 . S
C530 C531 1.386 . S
C530 C532 1.391 . S
C531 C530 1.386 . S
C531 C535 1.393 . S
C532 H521 0.950 . S
C532 C530 1.391 . S
C532 C533 1.400 . S
C533 C527 1.491 . S
C533 C532 1.400 . S
C533 C534 1.398 . S
C534 H522 0.950 . S
C534 C533 1.398 . S
C534 C535 1.391 . S
C535 H523 0.950 . S
C535 C531 1.393 . S
C535 C534 1.391 . S
H536 C544 0.950 . S
H537 C549 0.950 . S
H538 C546 0.950 . S
H539 C548 0.950 . S
H540 C550 0.950 . S
H541 C552 0.950 . S
H542 C554 0.950 1_554 S
H543 C555 0.950 . S
C544 H536 0.950 . S
C544 C545 1.386 . S
C544 C546 1.391 . S
C545 C544 1.386 . S
C545 C549 1.393 . S
C546 H538 0.950 . S
C546 C544 1.391 . S
C546 C547 1.400 . S
C547 C546 1.400 . S
C547 C548 1.398 . S
C547 C553 1.491 . S
C548 H539 0.950 . S
C548 C547 1.398 . S
C548 C549 1.391 . S
C549 H537 0.950 . S
C549 C545 1.393 . S
C549 C548 1.391 . S
C550 H540 0.950 . S
C550 C551 1.386 1_556 S
C550 C552 1.391 . S
C551 C550 1.386 1_554 S
C551 C555 1.393 . S
C552 H541 0.950 . S
C552 C550 1.391 . S
C552 C553 1.400 . S
C553 C547 1.491 . S
C553 C552 1.400 . S
C553 C554 1.398 . S
C554 H542 0.950 1_556 S
C554 C553 1.398 . S
C554 C555 1.391 1_556 S
C555 H543 0.950 . S
C555 C551 1.393 . S
C555 C554 1.391 1_554 S
H556 C564 0.950 . S
H557 C569 0.950 . S
H558 C566 0.950 . S
H559 C568 0.950 . S
H560 C570 0.950 . S
H561 C572 0.950 . S
H562 C574 0.950 . S
H563 C575 0.950 . S
C564 H556 0.950 . S
C564 C565 1.386 . S
C564 C566 1.391 . S
C565 C564 1.386 . S
C565 C569 1.393 . S
C566 H558 0.950 . S
C566 C564 1.391 . S
C566 C567 1.400 . S
C567 C566 1.400 . S
C567 C568 1.398 . S
C567 C573 1.491 . S
C568 H559 0.950 . S
C568 C567 1.398 . S
C568 C569 1.391 . S
C569 H557 0.950 . S
C569 C565 1.393 . S
C569 C568 1.391 . S
C570 H560 0.950 . S
C570 C571 1.386 . S
C570 C572 1.391 1_455 S
C571 C570 1.386 . S
C571 C575 1.393 1_455 S
C572 H561 0.950 . S
C572 C570 1.391 1_655 S
C572 C573 1.400 . S
C573 C567 1.491 . S
C573 C572 1.400 . S
C573 C574 1.398 . S
C574 H562 0.950 . S
C574 C573 1.398 . S
C574 C575 1.391 . S
C575 H563 0.950 . S
C575 C571 1.393 1_655 S
C575 C574 1.391 . S
C345 C231 0.803 1_455 S
C351 C74 0.803 . S
C365 C315 0.504 . S
C371 C158 0.504 . S
C385 C242 1.252 . S
C391 C63 1.252 . S
C405 C147 1.362 . S
C411 C326 1.362 . S
C425 C140 1.947 . S
C431 C67 2.090 . S
C445 C151 2.085 . S
C451 C226 2.092 . S
C465 C310 1.120 . S
C471 C238 0.962 . S
C485 C322 0.815 . S
C491 C56 0.821 . S
C505 C224 2.097 . S
C511 C319 1.931 . S
C525 C70 2.086 . S
C531 C308 2.075 . S
C545 C154 1.122 . S
C551 C58 0.957 . S
C565 C235 0.854 . S
C571 C142 0.832 . S
