# Generated by pormake.
# Topology wme, (6)-cn, num edge types: 1
# Building blocks:
#     Node 0, Type 0, BuildingBlock: CUWYAW_clean_sbu_0, # of connection points: 6
#     Node 1, Type 0, BuildingBlock: CUWYAW_clean_sbu_0, # of connection points: 6
#     Node 2, Type 0, BuildingBlock: CUWYAW_clean_sbu_0, # of connection points: 6
#     Node 3, Type 0, BuildingBlock: CUWYAW_clean_sbu_0, # of connection points: 6
#     Node 4, Type 0, BuildingBlock: CUWYAW_clean_sbu_0, # of connection points: 6
#     Node 5, Type 0, BuildingBlock: CUWYAW_clean_sbu_0, # of connection points: 6
#     Node 6, Type 0, BuildingBlock: CUWYAW_clean_sbu_0, # of connection points: 6
#     Node 7, Type 0, BuildingBlock: CUWYAW_clean_sbu_0, # of connection points: 6
#     Node 8, Type 0, BuildingBlock: CUWYAW_clean_sbu_0, # of connection points: 6
#     Node 9, Type 0, BuildingBlock: CUWYAW_clean_sbu_0, # of connection points: 6
#     Node 10, Type 0, BuildingBlock: CUWYAW_clean_sbu_0, # of connection points: 6
#     Node 11, Type 0, BuildingBlock: CUWYAW_clean_sbu_0, # of connection points: 6
#     Edge 12, Type (0, 0), BuildingBlock: MIFKUJ_clean_linker_0, # of connection points: 2
#     Edge 13, Type (0, 0), BuildingBlock: MIFKUJ_clean_linker_0, # of connection points: 2
#     Edge 14, Type (0, 0), BuildingBlock: MIFKUJ_clean_linker_0, # of connection points: 2
#     Edge 15, Type (0, 0), BuildingBlock: MIFKUJ_clean_linker_0, # of connection points: 2
#     Edge 16, Type (0, 0), BuildingBlock: MIFKUJ_clean_linker_0, # of connection points: 2
#     Edge 17, Type (0, 0), BuildingBlock: MIFKUJ_clean_linker_0, # of connection points: 2
#     Edge 18, Type (0, 0), BuildingBlock: MIFKUJ_clean_linker_0, # of connection points: 2
#     Edge 19, Type (0, 0), BuildingBlock: MIFKUJ_clean_linker_0, # of connection points: 2
#     Edge 20, Type (0, 0), BuildingBlock: MIFKUJ_clean_linker_0, # of connection points: 2
#     Edge 21, Type (0, 0), BuildingBlock: MIFKUJ_clean_linker_0, # of connection points: 2
#     Edge 22, Type (0, 0), BuildingBlock: MIFKUJ_clean_linker_0, # of connection points: 2
#     Edge 23, Type (0, 0), BuildingBlock: MIFKUJ_clean_linker_0, # of connection points: 2
#     Edge 24, Type (0, 0), BuildingBlock: MIFKUJ_clean_linker_0, # of connection points: 2
#     Edge 25, Type (0, 0), BuildingBlock: MIFKUJ_clean_linker_0, # of connection points: 2
#     Edge 26, Type (0, 0), BuildingBlock: MIFKUJ_clean_linker_0, # of connection points: 2
#     Edge 27, Type (0, 0), BuildingBlock: MIFKUJ_clean_linker_0, # of connection points: 2
#     Edge 28, Type (0, 0), BuildingBlock: MIFKUJ_clean_linker_0, # of connection points: 2
#     Edge 29, Type (0, 0), BuildingBlock: MIFKUJ_clean_linker_0, # of connection points: 2
#     Edge 30, Type (0, 0), BuildingBlock: MIFKUJ_clean_linker_0, # of connection points: 2
#     Edge 31, Type (0, 0), BuildingBlock: MIFKUJ_clean_linker_0, # of connection points: 2
#     Edge 32, Type (0, 0), BuildingBlock: MIFKUJ_clean_linker_0, # of connection points: 2
#     Edge 33, Type (0, 0), BuildingBlock: MIFKUJ_clean_linker_0, # of connection points: 2
#     Edge 34, Type (0, 0), BuildingBlock: MIFKUJ_clean_linker_0, # of connection points: 2
#     Edge 35, Type (0, 0), BuildingBlock: MIFKUJ_clean_linker_0, # of connection points: 2
#     Edge 36, Type (0, 0), BuildingBlock: MIFKUJ_clean_linker_0, # of connection points: 2
#     Edge 37, Type (0, 0), BuildingBlock: MIFKUJ_clean_linker_0, # of connection points: 2
#     Edge 38, Type (0, 0), BuildingBlock: MIFKUJ_clean_linker_0, # of connection points: 2
#     Edge 39, Type (0, 0), BuildingBlock: MIFKUJ_clean_linker_0, # of connection points: 2
#     Edge 40, Type (0, 0), BuildingBlock: MIFKUJ_clean_linker_0, # of connection points: 2
#     Edge 41, Type (0, 0), BuildingBlock: MIFKUJ_clean_linker_0, # of connection points: 2
#     Edge 42, Type (0, 0), BuildingBlock: MIFKUJ_clean_linker_0, # of connection points: 2
#     Edge 43, Type (0, 0), BuildingBlock: MIFKUJ_clean_linker_0, # of connection points: 2
#     Edge 44, Type (0, 0), BuildingBlock: MIFKUJ_clean_linker_0, # of connection points: 2
#     Edge 45, Type (0, 0), BuildingBlock: MIFKUJ_clean_linker_0, # of connection points: 2
#     Edge 46, Type (0, 0), BuildingBlock: MIFKUJ_clean_linker_0, # of connection points: 2
#     Edge 47, Type (0, 0), BuildingBlock: MIFKUJ_clean_linker_0, # of connection points: 2
# Relax obj value: 0.081
# Max RMSD: 0.176
# Mean RMSD: 0.176
data_MOF--net-wme--node1-CUWYAW_clean_sbu_0--edge1-MIFKUJ_clean_linker_0
_symmetry_space_group_name_H-M    P1
_symmetry_Int_Tables_number       1
_symmetry_cell_setting            triclinic
loop_
_symmetry_equiv_pos_as_xyz
'x, y, z'
_cell_length_a     49.492082
_cell_length_b     49.38632
_cell_length_c     67.700823
_cell_angle_alpha  89.857454
_cell_angle_beta   89.890722
_cell_angle_gamma 119.96931
loop_
_atom_site_label
_atom_site_type_symbol
_atom_site_fract_x
_atom_site_fract_y
_atom_site_fract_z
_atom_type_partial_charge
C0 C 0.26376 0.28883 0.12124 0.0
Eu1 Eu 0.24151 0.32526 0.12969 0.0
C2 C 0.2542 0.25607 0.12575 0.0
C3 C 0.23585 0.24096 0.14242 0.0
C4 C 0.22434 0.20897 0.14547 0.0
C5 C 0.23072 0.19141 0.1318 0.0
C6 C 0.24927 0.20683 0.11516 0.0
C7 C 0.26087 0.23881 0.11219 0.0
C8 C 0.22547 0.33826 0.16537 0.0
C9 C 0.16462 0.28729 0.13192 0.0
C10 C 0.17648 0.39419 0.12055 0.0
Eu11 Eu 0.20318 0.36016 0.12284 0.0
C12 C 0.17803 0.42487 0.12199 0.0
C13 C 0.17155 0.43711 0.10507 0.0
C14 C 0.16803 0.46343 0.10629 0.0
C15 C 0.17079 0.47818 0.12451 0.0
C16 C 0.17847 0.46666 0.14137 0.0
C17 C 0.1819 0.44016 0.14015 0.0
C18 C 0.216 0.33447 0.0911 0.0
C19 C 0.27922 0.40079 0.1279 0.0
O20 O 0.24448 0.29241 0.1098 0.0
O21 O 0.27415 0.30878 0.13594 0.0
O22 O 0.24176 0.32444 0.16315 0.0
O23 O 0.21874 0.34438 0.14857 0.0
O24 O 0.19041 0.28601 0.12853 0.0
O25 O 0.16472 0.31398 0.13308 0.0
O26 O 0.17698 0.37981 0.13674 0.0
O27 O 0.1904 0.38943 0.1056 0.0
O28 O 0.18898 0.3322 0.09392 0.0
O29 O 0.23396 0.34951 0.10498 0.0
O30 O 0.25205 0.40009 0.1285 0.0
O31 O 0.2814 0.3751 0.12646 0.0
H32 H 0.22998 0.25377 0.15291 0.0
H33 H 0.21047 0.19804 0.15855 0.0
H34 H 0.25422 0.19405 0.10412 0.0
H35 H 0.27445 0.24993 0.09902 0.0
H36 H 0.16815 0.42566 0.09092 0.0
H37 H 0.16268 0.47197 0.09296 0.0
H38 H 0.18063 0.47738 0.15565 0.0
H39 H 0.1866 0.43113 0.1535 0.0
C40 C 0.99668 0.25833 0.63252 0.0
Eu41 Eu 0.9376 0.23774 0.63785 0.0
C42 C 1.01721 0.24521 0.63664 0.0
C43 C 0.04604 0.26351 0.64591 0.0
C44 C 0.06619 0.25168 0.64904 0.0
C45 C 0.058 0.22129 0.64285 0.0
C46 C 0.02873 0.20282 0.63393 0.0
C47 C 1.00854 0.21454 0.63098 0.0
C48 C 0.90441 0.21904 0.67211 0.0
C49 C 0.89587 0.1608 0.6358 0.0
C50 C 0.80485 0.17978 0.62488 0.0
Eu51 Eu 0.86498 0.20302 0.62819 0.0
C52 C 0.77623 0.18021 0.63105 0.0
C53 C 0.76602 0.19802 0.62053 0.0
C54 C 0.73637 0.19415 0.62401 0.0
C55 C 0.71607 0.17216 0.63795 0.0
C56 C 0.7268 0.15529 0.64903 0.0
C57 C 0.75646 0.15922 0.6456 0.0
C58 C 0.90598 0.21823 0.59743 0.0
C59 C 0.90227 0.27754 0.63852 0.0
O60 O 0.97563 0.24412 0.6188 0.0
O61 O 0.98587 0.26625 0.64783 0.0
O62 O 0.93466 0.23467 0.67129 0.0
O63 O 0.89376 0.21444 0.65479 0.0
O64 O 0.9238 0.18627 0.63436 0.0
O65 O 0.86987 0.16201 0.63633 0.0
O66 O 0.81767 0.16941 0.6375 0.0
O67 O 0.82534 0.20239 0.6136 0.0
O68 O 0.87943 0.19235 0.59825 0.0
O69 O 0.90878 0.23447 0.61232 0.0
O70 O 0.87556 0.25061 0.63887 0.0
O71 O 0.92971 0.27917 0.63597 0.0
H72 H 0.05315 0.28713 0.65052 0.0
H73 H 0.0882 0.26643 0.65633 0.0
H74 H 0.02165 0.17954 0.62866 0.0
H75 H 0.9864 0.19975 0.62383 0.0
H76 H 0.7804 0.21404 0.60901 0.0
H77 H 0.72879 0.20734 0.61508 0.0
H78 H 0.71197 0.13851 0.66009 0.0
H79 H 0.76338 0.14486 0.65385 0.0
C80 C 0.74426 0.98788 0.13989 0.0
Eu81 Eu 0.70517 0.92784 0.13926 0.0
C82 C 0.77838 1.00818 0.13817 0.0
C83 C 0.7934 0.03563 0.14933 0.0
C84 C 0.82577 0.05501 0.14819 0.0
C85 C 0.84387 0.04736 0.13582 0.0
C86 C 0.8287 0.01961 0.12474 0.0
C87 C 0.79628 1.0002 0.12591 0.0
C88 C 0.68104 0.89125 0.17166 0.0
C89 C 0.74408 0.89046 0.13342 0.0
C90 C 0.63594 0.79832 0.12751 0.0
Eu91 Eu 0.67108 0.85906 0.13007 0.0
C92 C 0.60496 0.77006 0.13068 0.0
C93 C 0.58007 0.76208 0.1176 0.0
C94 C 0.55278 0.73286 0.11894 0.0
C95 C 0.54985 0.71086 0.13329 0.0
C96 C 0.57432 0.71939 0.14682 0.0
C97 C 0.60152 0.74856 0.14549 0.0
C98 C 0.69553 0.89852 0.09844 0.0
C99 C 0.63128 0.89445 0.13672 0.0
O100 O 0.72944 0.97274 0.12402 0.0
O101 O 0.73421 0.97062 0.15582 0.0
O102 O 0.68135 0.91739 0.16875 0.0
O103 O 0.69426 0.88564 0.15744 0.0
O104 O 0.74462 0.91753 0.13269 0.0
O105 O 0.7177 0.86389 0.13508 0.0
O106 O 0.65279 0.81257 0.14301 0.0
O107 O 0.63931 0.81765 0.11321 0.0
O108 O 0.69652 0.87287 0.1002 0.0
O109 O 0.68127 0.90136 0.11289 0.0
O110 O 0.63191 0.86808 0.13853 0.0
O111 O 0.65723 0.92157 0.13411 0.0
H112 H 0.78006 0.04205 0.15902 0.0
H113 H 0.83664 0.07586 0.15721 0.0
H114 H 0.8418 0.01311 0.11492 0.0
H115 H 0.78521 0.97902 0.11721 0.0
H116 H 0.58205 0.77792 0.10585 0.0
H117 H 0.53454 0.72701 0.10817 0.0
H118 H 0.57269 0.70327 0.15826 0.0
H119 H 0.62039 0.75384 0.15566 0.0
C120 C 0.77194 0.73963 0.63137 0.0
Eu121 Eu 0.79361 0.70218 0.63796 0.0
C122 C 0.78297 0.77265 0.63569 0.0
C123 C 0.81095 0.79062 0.64598 0.0
C124 C 0.82357 0.82293 0.64782 0.0
C125 C 0.8085 0.83788 0.63932 0.0
C126 C 0.77996 0.81948 0.62949 0.0
C127 C 0.76734 0.78717 0.62771 0.0
C128 C 0.81404 0.69013 0.67232 0.0
C129 C 0.87002 0.73577 0.63574 0.0
C130 C 0.84773 0.62414 0.62444 0.0
Eu131 Eu 0.82647 0.66263 0.62867 0.0
C132 C 0.84694 0.59491 0.63067 0.0
C133 C 0.83002 0.56737 0.61965 0.0
C134 C 0.83373 0.54145 0.62309 0.0
C135 C 0.85456 0.5425 0.63759 0.0
C136 C 0.87046 0.56957 0.64917 0.0
C137 C 0.86677 0.59548 0.64572 0.0
C138 C 0.81234 0.68881 0.59767 0.0
C139 C 0.75319 0.62736 0.64094 0.0
O140 O 0.78937 0.73506 0.61876 0.0
O141 O 0.7631 0.72033 0.64649 0.0
O142 O 0.80015 0.7065 0.67124 0.0
O143 O 0.81666 0.68159 0.65523 0.0
O144 O 0.84506 0.73904 0.63409 0.0
O145 O 0.86818 0.70819 0.63642 0.0
O146 O 0.85998 0.64809 0.63647 0.0
O147 O 0.82429 0.62211 0.61423 0.0
O148 O 0.83793 0.68774 0.59868 0.0
O149 O 0.79581 0.67566 0.61258 0.0
O150 O 0.77979 0.62706 0.64151 0.0
O151 O 0.75194 0.65308 0.6371 0.0
H152 H 0.82344 0.77976 0.65213 0.0
H153 H 0.84529 0.8362 0.65574 0.0
H154 H 0.76794 0.83014 0.62243 0.0
H155 H 0.746 0.77371 0.61944 0.0
H156 H 0.81492 0.56628 0.60773 0.0
H157 H 0.82143 0.52115 0.61373 0.0
H158 H 0.88636 0.571 0.66063 0.0
H159 H 0.88043 0.61639 0.65437 0.0
C160 C 0.03996 0.77012 0.13189 0.0
Eu161 Eu 0.0991 0.7916 0.13793 0.0
C162 C 0.0202 0.78315 0.12588 0.0
C163 C 0.98846 0.76679 0.1307 0.0
C164 C 0.96989 0.78034 0.1276 0.0
C165 C 0.98259 0.81055 0.11937 0.0
C166 C 1.01444 0.8266 0.11411 0.0
C167 C 0.03312 0.81313 0.11753 0.0
C168 C 0.12892 0.79623 0.17268 0.0
C169 C 0.142 0.86746 0.13974 0.0
C170 C 0.2343 0.85536 0.13406 0.0
Eu171 Eu 0.1736 0.82391 0.13138 0.0
C172 C 0.26347 0.85388 0.13257 0.0
C173 C 0.28478 0.87011 0.11728 0.0
C174 C 0.31416 0.87249 0.11693 0.0
C175 C 0.32311 0.85885 0.13195 0.0
C176 C 0.30145 0.8419 0.147 0.0
C177 C 0.27202 0.83951 0.14734 0.0
C178 C 0.13645 0.80662 0.09891 0.0
C179 C 0.13283 0.74908 0.13399 0.0
O180 O 0.05855 0.76884 0.11852 0.0
O181 O 0.05338 0.77975 0.14908 0.0
O182 O 0.09885 0.78276 0.17112 0.0
O183 O 0.14053 0.80529 0.15579 0.0
O184 O 0.11338 0.843 0.13896 0.0
O185 O 0.16742 0.8651 0.13831 0.0
O186 O 0.21564 0.84134 0.14907 0.0
O187 O 0.21925 0.85352 0.11774 0.0
O188 O 0.1616 0.80447 0.1 0.0
O189 O 0.1331 0.81854 0.11447 0.0
O190 O 0.16047 0.77417 0.13694 0.0
O191 O 0.10686 0.75046 0.13111 0.0
H192 H 0.97822 0.7439 0.13756 0.0
H193 H 0.94578 0.76744 0.13235 0.0
H194 H 0.02511 0.84971 0.10757 0.0
H195 H 0.05778 0.82649 0.11416 0.0
H196 H 0.27903 0.88172 0.10581 0.0
H197 H 0.33003 0.88533 0.10496 0.0
H198 H 0.30762 0.83138 0.15893 0.0
H199 H 0.25638 0.82716 0.15951 0.0
C200 C 0.29 0.03583 0.63454 0.0
Eu201 Eu 0.3304 0.09455 0.63985 0.0
C202 C 0.25654 0.01571 0.63933 0.0
C203 C 0.24547 0.9855 0.64684 0.0
C204 C 0.21345 0.96549 0.6499 0.0
C205 C 0.19184 0.97523 0.64529 0.0
C206 C 0.20321 1.00602 0.63857 0.0
C207 C 0.23516 0.02603 0.63566 0.0
C208 C 0.34678 0.12701 0.6742 0.0
C209 C 0.29737 0.13836 0.64059 0.0
C210 C 0.40703 0.22639 0.62462 0.0
Eu211 Eu 0.36904 0.16668 0.62977 0.0
C212 C 0.43756 0.25476 0.62811 0.0
C213 C 0.45422 0.27307 0.61177 0.0
C214 C 0.48068 0.30241 0.61437 0.0
C215 C 0.49115 0.31423 0.63342 0.0
C216 C 0.47525 0.2953 0.64983 0.0
C217 C 0.44859 0.26587 0.64721 0.0
C218 C 0.34021 0.12601 0.5994 0.0
C219 C 0.40528 0.12785 0.63871 0.0
O220 O 0.29648 0.05759 0.62127 0.0
O221 O 0.30968 0.04567 0.64934 0.0
O222 O 0.33125 0.09673 0.67317 0.0
O223 O 0.35309 0.13842 0.65695 0.0
O224 O 0.2938 0.11001 0.63858 0.0
O225 O 0.32495 0.16389 0.63999 0.0
O226 O 0.38699 0.21476 0.63926 0.0
O227 O 0.40585 0.20502 0.61266 0.0
O228 O 0.34131 0.15273 0.60087 0.0
O229 O 0.35449 0.12265 0.61363 0.0
O230 O 0.40596 0.15504 0.63886 0.0
O231 O 0.37889 0.1007 0.63698 0.0
H232 H 0.26151 0.97711 0.64992 0.0
H233 H 0.20557 0.94213 0.65546 0.0
H234 H 0.18736 0.01432 0.6347 0.0
H235 H 0.24299 0.04927 0.62992 0.0
H236 H 0.4461 0.26512 0.5969 0.0
H237 H 0.49265 0.31612 0.60141 0.0
H238 H 0.48264 0.30376 0.6647 0.0
H239 H 0.4361 0.25233 0.6601 0.0
C240 C 0.74734 0.76519 0.41662 0.0
Eu241 Eu 0.70986 0.78571 0.40708 0.0
C242 C 0.78113 0.77634 0.41403 0.0
C243 C 0.79323 0.77243 0.39613 0.0
C244 C 0.82536 0.78417 0.39385 0.0
C245 C 0.84612 0.8001 0.4094 0.0
C246 C 0.83388 0.80349 0.42738 0.0
C247 C 0.80183 0.79168 0.42968 0.0
C248 C 0.69819 0.80191 0.37098 0.0
C249 C 0.7458 0.86222 0.40338 0.0
C250 C 0.63771 0.84741 0.41491 0.0
Eu251 Eu 0.67351 0.82262 0.41288 0.0
C252 C 0.60821 0.84648 0.40945 0.0
C253 C 0.57994 0.82633 0.41913 0.0
C254 C 0.55362 0.82953 0.41631 0.0
C255 C 0.55498 0.85307 0.40385 0.0
C256 C 0.58292 0.87232 0.39358 0.0
C257 C 0.6092 0.86912 0.39639 0.0
C258 C 0.69896 0.81096 0.44523 0.0
C259 C 0.63486 0.74706 0.4056 0.0
O260 O 0.74059 0.78204 0.42836 0.0
O261 O 0.72927 0.75531 0.40099 0.0
O262 O 0.71253 0.78618 0.37363 0.0
O263 O 0.69074 0.80787 0.38759 0.0
O264 O 0.748 0.83732 0.40821 0.0
O265 O 0.71881 0.86122 0.40172 0.0
O266 O 0.65909 0.85474 0.40126 0.0
O267 O 0.63676 0.82701 0.42773 0.0
O268 O 0.70091 0.83778 0.442 0.0
O269 O 0.68446 0.79259 0.43141 0.0
O270 O 0.63561 0.77423 0.40404 0.0
O271 O 0.66028 0.74509 0.409 0.0
H272 H 0.77798 0.76063 0.38379 0.0
H273 H 0.83402 0.78129 0.37977 0.0
H274 H 0.84908 0.81511 0.43978 0.0
H275 H 0.79329 0.79484 0.44374 0.0
H276 H 0.57843 0.80887 0.42949 0.0
H277 H 0.53262 0.81446 0.42461 0.0
H278 H 0.58471 0.89035 0.38362 0.0
H279 H 0.6307 0.88522 0.38888 0.0
C280 C 0.99078 0.73951 0.91367 0.0
Eu281 Eu 0.93205 0.70208 0.90645 0.0
C282 C 1.01287 0.77277 0.90995 0.0
C283 C 1.00506 0.79025 0.89722 0.0
C284 C 0.02477 0.82259 0.89539 0.0
C285 C 0.05252 0.83808 0.9064 0.0
C286 C 0.0603 0.82021 0.91896 0.0
C287 C 0.04068 0.78788 0.92067 0.0
C288 C 0.90028 0.69357 0.87225 0.0
C289 C 0.88831 0.73442 0.91176 0.0
C290 C 0.80073 0.62098 0.91971 0.0
Eu291 Eu 0.86016 0.66082 0.91564 0.0
C292 C 0.77252 0.59195 0.91318 0.0
C293 C 0.76105 0.56459 0.92463 0.0
C294 C 0.73154 0.53884 0.92096 0.0
C295 C 0.71267 0.53984 0.90578 0.0
C296 C 0.72475 0.56671 0.89376 0.0
C297 C 0.75427 0.59249 0.89744 0.0
C298 C 0.90049 0.68279 0.94679 0.0
C299 C 0.89888 0.62785 0.90046 0.0
O300 O 0.96843 0.73418 0.92619 0.0
O301 O 0.98088 0.72104 0.89821 0.0
O302 O 0.93045 0.70986 0.87365 0.0
O303 O 0.8885 0.68296 0.88905 0.0
O304 O 0.91671 0.73797 0.91243 0.0
O305 O 0.86286 0.70676 0.91076 0.0
O306 O 0.81185 0.64587 0.90838 0.0
O307 O 0.8225 0.61861 0.92923 0.0
O308 O 0.87391 0.68197 0.9467 0.0
O309 O 0.90385 0.67189 0.93089 0.0
O310 O 0.87186 0.62731 0.90045 0.0
O311 O 0.92554 0.65331 0.905 0.0
H312 H 0.98342 0.77898 0.889 0.0
H313 H 0.01817 0.83543 0.88539 0.0
H314 H 0.08105 0.83128 0.92801 0.0
H315 H 0.04675 0.77482 0.93086 0.0
H316 H 0.77428 0.56356 0.93706 0.0
H317 H 0.72293 0.51874 0.93067 0.0
H318 H 0.71109 0.56812 0.88174 0.0
H319 H 0.76223 0.61325 0.88841 0.0
C320 C 0.26656 0.98957 0.40663 0.0
Eu321 Eu 0.24631 0.93038 0.40152 0.0
C322 C 0.25301 1.00985 0.40285 0.0
C323 C 0.27073 0.03879 0.39338 0.0
C324 C 0.25856 0.05877 0.39069 0.0
C325 C 0.22843 0.05035 0.39759 0.0
C326 C 0.21051 0.02091 0.40666 0.0
C327 C 0.22254 1.00086 0.40914 0.0
C328 C 0.22965 0.89741 0.3673 0.0
C329 C 0.1696 0.88882 0.40119 0.0
C330 C 0.18684 0.79828 0.41738 0.0
Eu331 Eu 0.21095 0.85823 0.4118 0.0
C332 C 0.1873 0.76894 0.41431 0.0
C333 C 0.17851 0.74781 0.43014 0.0
C334 C 0.17446 0.718 0.42741 0.0
C335 C 0.17919 0.7086 0.40875 0.0
C336 C 0.18928 0.73026 0.39303 0.0
C337 C 0.19315 0.76018 0.39575 0.0
C338 C 0.22425 0.8997 0.44192 0.0
C339 C 0.286 0.89489 0.40281 0.0
O340 O 0.25292 0.96847 0.42051 0.0
O341 O 0.27417 0.97881 0.39117 0.0
O342 O 0.24487 0.92771 0.36817 0.0
O343 O 0.22417 0.88636 0.38463 0.0
O344 O 0.19477 0.91667 0.40376 0.0
O345 O 0.17083 0.86279 0.40115 0.0
O346 O 0.1797 0.81041 0.40244 0.0
O347 O 0.2074 0.81927 0.42931 0.0
O348 O 0.19791 0.87376 0.4405 0.0
O349 O 0.24156 0.90202 0.42771 0.0
O350 O 0.25911 0.8681 0.40287 0.0
O351 O 0.28758 0.92251 0.40429 0.0
H352 H 0.29416 0.04612 0.38828 0.0
H353 H 0.27288 0.08086 0.38323 0.0
H354 H 0.18748 0.01361 0.41248 0.0
H355 H 0.20818 0.97862 0.41644 0.0
H356 H 0.17378 0.75405 0.44455 0.0
H357 H 0.1672 0.7021 0.43989 0.0
H358 H 0.19303 0.72367 0.37847 0.0
H359 H 0.19983 0.77606 0.38329 0.0
C360 C 0.2871 0.25888 0.91812 0.0
Eu361 Eu 0.3237 0.23797 0.90718 0.0
C362 C 0.25362 0.24852 0.91591 0.0
C363 C 0.23828 0.23792 0.89773 0.0
C364 C 0.20602 0.22585 0.89644 0.0
C365 C 0.18843 0.22373 0.91334 0.0
C366 C 0.20392 0.23453 0.93147 0.0
C367 C 0.23619 0.24688 0.93271 0.0
C368 C 0.33437 0.22177 0.87084 0.0
C369 C 0.28733 0.16062 0.90645 0.0
C370 C 0.39673 0.17606 0.91049 0.0
Eu371 Eu 0.36092 0.2008 0.91153 0.0
C372 C 0.42746 0.17925 0.90569 0.0
C373 C 0.45319 0.19543 0.9183 0.0
C374 C 0.48012 0.19323 0.91577 0.0
C375 C 0.48191 0.17465 0.90066 0.0
C376 C 0.45677 0.15977 0.88747 0.0
C377 C 0.42986 0.16199 0.88999 0.0
C378 C 0.33807 0.21349 0.94472 0.0
C379 C 0.39914 0.27692 0.90553 0.0
O380 O 0.29296 0.24057 0.92908 0.0
O381 O 0.30499 0.26923 0.90233 0.0
O382 O 0.32032 0.23775 0.87369 0.0
O383 O 0.34164 0.2155 0.88738 0.0
O384 O 0.2856 0.18632 0.90944 0.0
O385 O 0.31405 0.16116 0.90416 0.0
O386 O 0.37818 0.1737 0.89595 0.0
O387 O 0.39466 0.19123 0.92574 0.0
O388 O 0.33697 0.18694 0.9419 0.0
O389 O 0.35095 0.23121 0.93023 0.0
O390 O 0.39881 0.24995 0.90414 0.0
O391 O 0.37347 0.27867 0.90858 0.0
H392 H 0.25107 0.23843 0.88461 0.0
H393 H 0.1947 0.21747 0.88231 0.0
H394 H 0.1911 0.23356 0.9447 0.0
H395 H 0.24751 0.2547 0.94691 0.0
H396 H 0.45207 0.2087 0.93067 0.0
H397 H 0.49891 0.20483 0.92629 0.0
H398 H 0.45756 0.14571 0.87547 0.0
H399 H 0.41037 0.14906 0.88012 0.0
C400 C 0.04221 0.28372 0.40571 0.0
Eu401 Eu 0.10107 0.32286 0.39975 0.0
C402 C 0.02149 0.2506 0.40059 0.0
C403 C 0.98998 0.2394 0.39627 0.0
C404 C 0.9698 0.20741 0.39313 0.0
C405 C 0.98078 0.18606 0.39457 0.0
C406 C 1.01274 0.19773 0.39788 0.0
C407 C 0.03283 0.2296 0.40083 0.0
C408 C 0.13169 0.33766 0.36458 0.0
C409 C 0.14457 0.28977 0.39943 0.0
C410 C 0.23257 0.40015 0.41273 0.0
Eu411 Eu 0.17285 0.36201 0.40837 0.0
C412 C 0.26169 0.42932 0.40742 0.0
C413 C 0.26974 0.45777 0.41676 0.0
C414 C 0.2997 0.48373 0.41452 0.0
C415 C 0.32239 0.48176 0.40303 0.0
C416 C 0.31387 0.45369 0.39305 0.0
C417 C 0.28395 0.4278 0.39526 0.0
C418 C 0.13338 0.33477 0.43978 0.0
C419 C 0.13428 0.39769 0.39873 0.0
O420 O 0.06407 0.28893 0.41853 0.0
O421 O 0.05229 0.30391 0.39108 0.0
O422 O 0.10161 0.32189 0.36649 0.0
O423 O 0.14419 0.34501 0.38146 0.0
O424 O 0.1164 0.28621 0.40212 0.0
O425 O 0.16986 0.31753 0.39873 0.0
O426 O 0.22093 0.37703 0.40008 0.0
O427 O 0.21116 0.4019 0.42315 0.0
O428 O 0.15993 0.33577 0.43803 0.0
O429 O 0.12958 0.34834 0.4253 0.0
O430 O 0.16128 0.39825 0.39741 0.0
O431 O 0.10761 0.37154 0.40233 0.0
H432 H 0.98079 0.25522 0.39595 0.0
H433 H 0.9453 0.19925 0.39071 0.0
H434 H 0.0222 0.18216 0.39856 0.0
H435 H 0.05713 0.2377 0.40386 0.0
H436 H 0.25336 0.45966 0.42648 0.0
H437 H 0.3055 0.50487 0.42256 0.0
H438 H 0.33058 0.45149 0.38384 0.0
H439 H 0.27868 0.40615 0.38805 0.0
C440 C 0.76762 0.03603 0.91467 0.0
Eu441 Eu 0.78825 0.09433 0.90573 0.0
C442 C 0.77962 0.01431 0.91153 0.0
C443 C 0.75923 0.98317 0.90629 0.0
C444 C 0.77033 0.96224 0.904 0.0
C445 C 0.80208 0.97201 0.90704 0.0
C446 C 0.8225 1.00343 0.91201 0.0
C447 C 0.81144 0.02434 0.91414 0.0
C448 C 0.80505 0.12222 0.86962 0.0
C449 C 0.86498 0.13513 0.90442 0.0
C450 C 0.84972 0.22879 0.91191 0.0
Eu451 Eu 0.82486 0.16814 0.91109 0.0
C452 C 0.84648 0.25684 0.90948 0.0
C453 C 0.85182 0.27617 0.92589 0.0
C454 C 0.8539 0.30528 0.92374 0.0
C455 C 0.85079 0.3159 0.90506 0.0
C456 C 0.84408 0.29599 0.88871 0.0
C457 C 0.8421 0.26678 0.89087 0.0
C458 C 0.81167 0.13127 0.94383 0.0
C459 C 0.74893 0.13052 0.90508 0.0
O460 O 0.7839 0.05921 0.92675 0.0
O461 O 0.75818 0.04464 0.89901 0.0
O462 O 0.78957 0.09217 0.87233 0.0
O463 O 0.81077 0.13552 0.88621 0.0
O464 O 0.83968 0.10809 0.90876 0.0
O465 O 0.86421 0.16118 0.90181 0.0
O466 O 0.84993 0.2134 0.89621 0.0
O467 O 0.83634 0.2107 0.92723 0.0
O468 O 0.83834 0.15655 0.94108 0.0
O469 O 0.79416 0.12707 0.92941 0.0
O470 O 0.77576 0.15735 0.90426 0.0
O471 O 0.74736 0.103 0.90743 0.0
H472 H 0.73466 0.97497 0.9041 0.0
H473 H 0.75399 0.93839 0.89981 0.0
H474 H 0.84697 1.0118 0.91474 0.0
H475 H 0.8278 0.04827 0.91814 0.0
H476 H 0.85555 0.26924 0.94038 0.0
H477 H 0.85857 0.31979 0.93668 0.0
H478 H 0.84171 0.30354 0.8741 0.0
H479 H 0.83822 0.25253 0.87789 0.0
H480 H 0.09999 0.88543 0.15189 0.0
H481 H 0.10924 0.93903 0.15453 0.0
H482 H 0.20303 0.97476 0.13264 0.0
H483 H 0.19444 0.92204 0.13073 0.0
H484 H 0.20433 1.00803 0.16242 0.0
H485 H 0.13807 0.96712 0.10358 0.0
H486 H 0.08907 0.92914 0.08727 0.0
H487 H 0.03694 0.95403 0.12666 0.0
H488 H 0.08565 0.99199 0.1433 0.0
H489 H 0.25943 0.15735 0.12403 0.0
H490 H 0.2385 0.10139 0.12828 0.0
H491 H 0.15271 0.09162 0.15123 0.0
H492 H 0.17296 0.14762 0.14609 0.0
H493 H 0.1404 0.04416 0.12698 0.0
H494 H 0.20647 0.09032 0.18243 0.0
H495 H 0.2544 0.12708 0.20015 0.0
H496 H 0.30553 0.09112 0.16919 0.0
H497 H 0.25801 0.05444 0.15108 0.0
C498 C 0.12256 0.90479 0.14768 0.0
C499 C 0.14651 0.89942 0.14121 0.0
C500 C 0.12779 0.93541 0.14911 0.0
C501 C 0.15682 0.96106 0.14366 0.0
C502 C 0.18052 0.95552 0.13709 0.0
C503 C 0.17551 0.9252 0.13597 0.0
C504 C 0.16333 0.99392 0.14472 0.0
C505 C 0.19042 0.01591 0.15455 0.0
C506 C 0.14449 1.00415 0.13524 0.0
C507 C 0.11543 0.98218 0.12477 0.0
C508 C 0.11614 0.96445 0.10876 0.0
C509 C 0.08844 0.94293 0.09947 0.0
C510 C 0.05991 0.93913 0.10595 0.0
C511 C 0.05905 0.95699 0.12166 0.0
C512 C 0.0867 0.97854 0.13101 0.0
C513 C 0.23597 0.14336 0.12978 0.0
C514 C 0.21798 0.15718 0.13476 0.0
C515 C 0.22413 0.11132 0.13241 0.0
C516 C 0.19419 0.09229 0.14041 0.0
C517 C 0.17593 0.10583 0.14517 0.0
C518 C 0.18772 0.13794 0.14241 0.0
C519 C 0.18233 0.05837 0.14377 0.0
C520 C 0.15414 0.03623 0.13499 0.0
C521 C 0.20006 0.04786 0.15433 0.0
C522 C 0.22868 0.06974 0.16531 0.0
C523 C 0.22797 0.09037 0.17931 0.0
C524 C 0.25507 0.11118 0.18944 0.0
C525 C 0.283 0.11146 0.18578 0.0
C526 C 0.28388 0.09088 0.17202 0.0
C527 C 0.25686 0.07004 0.16184 0.0
H528 H 0.30396 0.1276 0.19363 0.0
H529 H 0.03848 0.92238 0.09879 0.0
H530 H 0.23509 0.09296 0.64281 0.0
H531 H 0.19024 0.10103 0.6463 0.0
H532 H 0.25251 0.2008 0.64761 0.0
H533 H 0.297 0.19305 0.64458 0.0
H534 H 0.20923 0.18563 0.67423 0.0
H535 H 0.21149 0.16108 0.60531 0.0
H536 H 0.21067 0.12828 0.57764 0.0
H537 H 0.1208 0.05452 0.59643 0.0
H538 H 0.12128 0.08678 0.62438 0.0
H539 H 0.12193 0.25396 0.63961 0.0
H540 H 0.15802 0.23409 0.64265 0.0
H541 H 0.08099 0.14121 0.65295 0.0
H542 H 0.04458 0.16101 0.6509 0.0
H543 H 0.12573 0.14548 0.6237 0.0
H544 H 0.12199 0.17533 0.69038 0.0
H545 H 0.12412 0.21047 0.71689 0.0
H546 H 0.21863 0.27695 0.70099 0.0
H547 H 0.21691 0.24242 0.67416 0.0
C548 C 0.2392 0.11658 0.6439 0.0
C549 C 0.26972 0.14231 0.64325 0.0
C550 C 0.21352 0.12118 0.64585 0.0
C551 C 0.21794 0.15158 0.64702 0.0
C552 C 0.24841 0.17712 0.64677 0.0
C553 C 0.27392 0.17259 0.64493 0.0
C554 C 0.19121 0.1574 0.6481 0.0
C555 C 0.19107 0.17692 0.66312 0.0
C556 C 0.167 0.14549 0.6339 0.0
C557 C 0.16659 0.12617 0.61706 0.0
C558 C 0.19166 0.13778 0.60362 0.0
C559 C 0.19124 0.11931 0.58788 0.0
C560 C 0.16575 0.0893 0.58532 0.0
C561 C 0.14056 0.07774 0.59846 0.0
C562 C 0.14089 0.09611 0.61424 0.0
C563 C 0.11253 0.22941 0.64293 0.0
C564 C 0.08017 0.20921 0.64508 0.0
C565 C 0.13326 0.21804 0.6445 0.0
C566 C 0.12217 0.1862 0.64807 0.0
C567 C 0.08999 0.16585 0.65011 0.0
C568 C 0.06922 0.17726 0.64882 0.0
C569 C 0.14441 0.17437 0.64947 0.0
C570 C 0.14365 0.15375 0.63496 0.0
C571 C 0.16804 0.18557 0.66398 0.0
C572 C 0.16922 0.20637 0.68015 0.0
C573 C 0.14314 0.19756 0.69242 0.0
C574 C 0.14429 0.21735 0.70753 0.0
C575 C 0.17147 0.24595 0.71059 0.0
C576 C 0.19758 0.25479 0.69858 0.0
C577 C 0.19654 0.2351 0.68344 0.0
H578 H 0.17231 0.26124 0.7223 0.0
H579 H 0.16547 0.07503 0.57312 0.0
H580 H 0.88982 0.03152 0.13324 0.0
H581 H 0.94628 0.06678 0.13095 0.0
H582 H 0.93232 0.14622 0.13343 0.0
H583 H 0.87606 0.11131 0.13488 0.0
H584 H 0.97375 0.15518 0.10601 0.0
H585 H 0.95653 0.11979 0.17417 0.0
H586 H 0.93858 0.08012 0.20067 0.0
H587 H 0.99971 0.04841 0.17923 0.0
H588 H 0.01776 0.08769 0.15245 0.0
H589 H 0.10855 0.28237 0.14042 0.0
H590 H 0.05722 0.23606 0.13963 0.0
H591 H 0.09834 0.17922 0.12605 0.0
H592 H 0.15062 0.22607 0.12667 0.0
H593 H 0.04665 0.15273 0.15527 0.0
H594 H 0.0689 0.19399 0.08967 0.0
H595 H 0.08753 0.23547 0.06434 0.0
H596 H 1.01679 0.25693 0.08155 0.0
H597 H 0.99806 0.21593 0.10723 0.0
C598 C 0.89876 0.0565 0.13309 0.0
C599 C 0.87831 0.06854 0.13435 0.0
C600 C 0.9311 0.07664 0.13198 0.0
C601 C 0.94366 0.10921 0.13224 0.0
C602 C 0.92326 0.1212 0.13326 0.0
C603 C 0.89104 0.10116 0.13429 0.0
C604 C 0.97796 0.13115 0.13138 0.0
C605 C 0.98961 0.15463 0.11683 0.0
C606 C 0.99898 0.12992 0.14507 0.0
C607 C 0.9882 0.1064 0.16118 0.0
C608 C 0.96596 0.10419 0.17502 0.0
C609 C 0.95581 0.08182 0.19011 0.0
C610 C 0.96792 0.06169 0.1916 0.0
C611 C 0.9903 0.06397 0.17804 0.0
C612 C 1.00051 0.0863 0.16291 0.0
C613 C 0.107 0.26012 0.13737 0.0
C614 C 0.13387 0.25811 0.13336 0.0
C615 C 0.07748 0.2336 0.13693 0.0
C616 C 0.07393 0.2043 0.13252 0.0
C617 C 0.10063 0.20171 0.12941 0.0
C618 C 0.13044 0.22848 0.12975 0.0
C619 C 0.04198 0.17714 0.13032 0.0
C620 C 0.03082 0.15278 0.14423 0.0
C621 C 0.02129 0.17753 0.11608 0.0
C622 C 0.03219 0.20197 0.10046 0.0
C623 C 0.05745 0.20769 0.08815 0.0
C624 C 0.06801 0.23111 0.07372 0.0
C625 C 0.05338 0.24885 0.07135 0.0
C626 C 0.0281 0.24316 0.08339 0.0
C627 C 1.01748 0.21981 0.09788 0.0
H628 H 0.06159 0.26698 0.06017 0.0
H629 H 0.96003 0.04438 0.20329 0.0
H630 H 0.77912 0.87209 0.6439 0.0
H631 H 0.8022 0.92876 0.64235 0.0
H632 H 0.8936 0.93942 0.63545 0.0
H633 H 0.87063 0.8825 0.63615 0.0
H634 H 0.88872 0.98312 0.66347 0.0
H635 H 0.8669 0.94781 0.59683 0.0
H636 H 0.83481 0.91335 0.56987 0.0
H637 H 0.76701 0.94217 0.57904 0.0
H638 H 0.79839 0.97634 0.60635 0.0
H639 H 0.94235 0.14519 0.63677 0.0
H640 H 0.93556 0.09234 0.63654 0.0
H641 H 0.83571 0.0527 0.63544 0.0
H642 H 0.84206 0.10464 0.6356 0.0
H643 H 0.85479 0.02549 0.60832 0.0
H644 H 0.87277 0.05439 0.67766 0.0
H645 H 0.90348 0.08752 0.70551 0.0
H646 H 0.97842 0.07076 0.69118 0.0
H647 H 0.94825 0.0378 0.66308 0.0
C648 C 0.80411 0.88635 0.64193 0.0
C649 C 0.82291 0.87257 0.64 0.0
C650 C 0.81729 0.91878 0.64122 0.0
C651 C 0.84956 0.93821 0.63871 0.0
C652 C 0.86865 0.92478 0.63749 0.0
C653 C 0.85544 0.89223 0.63798 0.0
C654 C 0.86273 0.97238 0.63635 0.0
C655 C 0.8819 0.99258 0.65121 0.0
C656 C 0.85365 0.98457 0.62041 0.0
C657 C 0.83492 0.96448 0.60375 0.0
C658 C 0.84503 0.94663 0.59321 0.0
C659 C 0.82698 0.92716 0.57785 0.0
C660 C 0.79886 0.92555 0.57276 0.0
C661 C 0.78879 0.94345 0.583 0.0
C662 C 0.80672 0.96289 0.59842 0.0
C663 C 0.91898 0.1252 0.63651 0.0
C664 C 0.8928 0.1293 0.6362 0.0
C665 C 0.91514 0.09502 0.6364 0.0
C666 C 0.88509 0.06856 0.63594 0.0
C667 C 0.8591 0.07272 0.63566 0.0
C668 C 0.86286 0.10261 0.63586 0.0
C669 C 0.87998 0.03624 0.63578 0.0
C670 C 0.86224 0.01628 0.62038 0.0
C671 C 0.89042 0.02436 0.65121 0.0
C672 C 0.90844 0.04398 0.66814 0.0
C673 C 0.8959 0.05798 0.68036 0.0
C674 C 0.91318 0.07668 0.69621 0.0
C675 C 0.94293 0.08133 0.70007 0.0
C676 C 0.95541 0.06719 0.68814 0.0
C677 C 0.93823 0.04849 0.67226 0.0
H678 H 0.95627 0.09582 0.71235 0.0
H679 H 0.78491 0.91046 0.56087 0.0
H680 H 0.99978 0.87283 0.12333 0.0
H681 H 0.96633 0.89599 0.12179 0.0
H682 H 0.88676 0.80503 0.1105 0.0
H683 H 0.92033 0.78228 0.11019 0.0
H684 H 0.88034 0.84431 0.09006 0.0
H685 H 0.90893 0.84339 0.15899 0.0
H686 H 0.9464 0.85777 0.1864 0.0
H687 H 0.98115 0.95511 0.17437 0.0
H688 H 0.94404 0.94126 0.14677 0.0
H689 H 0.74966 0.83841 0.13189 0.0
H690 H 0.79645 0.83509 0.12663 0.0
H691 H 0.852 0.93563 0.12487 0.0
H692 H 0.80473 0.93936 0.13012 0.0
H693 H 0.8778 0.90403 0.14818 0.0
H694 H 0.83945 0.90184 0.08319 0.0
H695 H 0.79906 0.88482 0.05746 0.0
H696 H 0.78035 0.79039 0.06332 0.0
H697 H 0.82025 0.80674 0.08934 0.0
C698 C 0.97531 0.8578 0.12003 0.0
C699 C 0.96283 0.82544 0.11715 0.0
C700 C 0.95605 0.87108 0.11947 0.0
C701 C 0.92375 0.85221 0.11654 0.0
C702 C 0.91151 0.82019 0.11294 0.0
C703 C 0.93078 0.80705 0.11307 0.0
C704 C 0.90216 0.86508 0.11776 0.0
C705 C 0.87983 0.8573 0.10282 0.0
C706 C 0.90195 0.88304 0.13404 0.0
C707 C 0.92399 0.89131 0.15072 0.0
C708 C 0.92468 0.86785 0.16215 0.0
C709 C 0.94583 0.8759 0.17771 0.0
C710 C 0.96621 0.90733 0.18208 0.0
C711 C 0.9654 0.93078 0.17094 0.0
C712 C 0.9443 0.92284 0.15535 0.0
C713 C 0.77173 0.85997 0.13048 0.0
C714 C 0.77331 0.8892 0.13133 0.0
C715 C 0.79851 0.85796 0.12741 0.0
C716 C 0.82762 0.88506 0.12511 0.0
C717 C 0.82967 0.91442 0.12652 0.0
C718 C 0.80266 0.91649 0.12949 0.0
C719 C 0.8554 0.88196 0.12094 0.0
C720 C 0.87884 0.89162 0.13526 0.0
C721 C 0.85645 0.86538 0.10421 0.0
C722 C 0.8328 0.85553 0.08829 0.0
C723 C 0.82662 0.87742 0.07908 0.0
C724 C 0.80381 0.86789 0.06443 0.0
C725 C 0.78714 0.83654 0.05877 0.0
C726 C 0.7933 0.81467 0.06771 0.0
C727 C 0.81604 0.82407 0.08239 0.0
H728 H 0.76948 0.82921 0.04744 0.0
H729 H 0.98259 0.91352 0.19413 0.0
H730 H 0.88617 0.7963 0.64521 0.0
H731 H 0.93911 0.84104 0.64916 0.0
H732 H 0.97761 0.78287 0.63252 0.0
H733 H 0.92538 0.73838 0.62911 0.0
H734 H 1.00593 0.81487 0.66398 0.0
H735 H 0.97575 0.83884 0.60076 0.0
H736 H 0.94118 0.84891 0.57957 0.0
H737 H 0.95838 0.92736 0.61558 0.0
H738 H 0.99281 0.91752 0.63711 0.0
H739 H 0.16074 0.91364 0.63464 0.0
H740 H 0.10469 0.87723 0.63528 0.0
H741 H 0.08881 0.94971 0.6578 0.0
H742 H 0.14516 0.98636 0.65754 0.0
H743 H 0.0473 0.91547 0.62788 0.0
H744 H 0.08238 0.89492 0.6887 0.0
H745 H 0.11595 0.88408 0.7103 0.0
H746 H 0.08853 0.79852 0.67926 0.0
H747 H 0.05513 0.80907 0.65728 0.0
C748 C 0.90598 0.7932 0.64229 0.0
C749 C 0.90154 0.76373 0.63697 0.0
C750 C 0.93622 0.81878 0.64452 0.0
C751 C 0.96244 0.81537 0.64112 0.0
C752 C 0.95785 0.78609 0.63541 0.0
C753 C 0.92786 0.76062 0.63342 0.0
C754 C 0.99486 0.8417 0.64379 0.0
C755 C 1.01497 0.83676 0.65596 0.0
C756 C 1.00649 0.87077 0.63393 0.0
C757 C 0.98661 0.87727 0.62064 0.0
C758 C 0.97207 0.85817 0.60419 0.0
C759 C 0.95251 0.86384 0.59212 0.0
C760 C 0.94752 0.88871 0.59626 0.0
C761 C 0.96224 0.90808 0.61241 0.0
C762 C 0.98181 0.9025 0.62453 0.0
C763 C 0.14546 0.9218 0.64006 0.0
C764 C 0.1576 0.9529 0.64626 0.0
C765 C 0.11335 0.90098 0.64028 0.0
C766 C 0.09255 0.91066 0.64675 0.0
C767 C 0.10443 0.94175 0.65272 0.0
C768 C 0.13665 0.96265 0.65256 0.0
C769 C 0.05849 0.88796 0.64741 0.0
C770 C 0.03812 0.89367 0.63602 0.0
C771 C 0.04651 0.85948 0.65797 0.0
C772 C 0.0664 0.85291 0.67125 0.0
C773 C 0.08367 0.8739 0.68639 0.0
C774 C 0.10264 0.86779 0.69872 0.0
C775 C 0.10441 0.84065 0.69613 0.0
C776 C 0.08714 0.81954 0.68124 0.0
C777 C 0.06815 0.82555 0.66886 0.0
H778 H 0.11912 0.83597 0.70568 0.0
H779 H 0.93229 0.893 0.58693 0.0
H780 H 0.15081 0.9307 0.41196 0.0
H781 H 0.09747 0.92221 0.41126 0.0
H782 H 0.06481 0.83166 0.38497 0.0
H783 H 0.11761 0.84 0.38548 0.0
H784 H 0.03706 0.86117 0.36825 0.0
H785 H 0.0585 0.83927 0.43443 0.0
H786 H 0.08791 0.8526 0.46566 0.0
H787 H 0.06866 0.92728 0.47516 0.0
H788 H 0.03949 0.91464 0.44381 0.0
H789 H 0.87644 0.77302 0.39145 0.0
H790 H 0.93264 0.79412 0.38813 0.0
H791 H 0.94972 0.87789 0.41848 0.0
H792 H 0.89349 0.85681 0.42194 0.0
H793 H 0.98712 0.85886 0.43232 0.0
H794 H 0.96062 0.87713 0.36791 0.0
H795 H 0.93144 0.86403 0.33661 0.0
H796 H 0.96034 0.79726 0.32344 0.0
H797 H 0.98934 0.80963 0.3548 0.0
C798 C 0.13231 0.9092 0.40579 0.0
C799 C 0.13841 0.88589 0.399 0.0
C800 C 0.10182 0.9043 0.40549 0.0
C801 C 0.07702 0.87608 0.3983 0.0
C802 C 0.08346 0.85354 0.39065 0.0
C803 C 0.11372 0.8583 0.39107 0.0
C804 C 0.04406 0.86895 0.39956 0.0
C805 C 0.02608 0.86054 0.38227 0.0
C806 C 0.02988 0.86884 0.41776 0.0
C807 C 0.04715 0.87625 0.43668 0.0
C808 C 0.06074 0.85868 0.44311 0.0
C809 C 0.07733 0.86609 0.46083 0.0
C810 C 0.08023 0.89084 0.47235 0.0
C811 C 0.06645 0.90816 0.4662 0.0
C812 C 0.04988 0.90088 0.44846 0.0
C813 C 0.89213 0.79608 0.39722 0.0
C814 C 0.8804 0.81321 0.40695 0.0
C815 C 0.92432 0.80816 0.3953 0.0
C816 C 0.94555 0.83783 0.40283 0.0
C817 C 0.93389 0.85497 0.41255 0.0
C818 C 0.9017 0.84283 0.41457 0.0
C819 C 0.97985 0.8505 0.40103 0.0
C820 C 0.9981 0.85991 0.41823 0.0
C821 C 0.99429 0.8516 0.38272 0.0
C822 C 0.97695 0.84414 0.3638 0.0
C823 C 0.96057 0.85949 0.35841 0.0
C824 C 0.94408 0.85221 0.34065 0.0
C825 C 0.94398 0.82978 0.32807 0.0
C826 C 0.96042 0.81461 0.33321 0.0
C827 C 0.97691 0.82177 0.35097 0.0
H828 H 0.93121 0.82418 0.31432 0.0
H829 H 0.09309 0.89654 0.48607 0.0
H830 H 0.11643 0.87222 0.90733 0.0
H831 H 0.14963 0.92893 0.90796 0.0
H832 H 0.06873 0.93971 0.9028 0.0
H833 H 0.03499 0.88279 0.90292 0.0
H834 H 0.12153 0.98158 0.87787 0.0
H835 H 0.09685 0.95058 0.94525 0.0
H836 H 0.09011 0.91836 0.97473 0.0
H837 H 0.18773 0.94783 0.97378 0.0
H838 H 0.19495 0.97978 0.94405 0.0
H839 H 0.22572 0.14576 0.9027 0.0
H840 H 0.17931 0.09303 0.90305 0.0
H841 H 0.23833 0.05278 0.91129 0.0
H842 H 0.28414 0.10447 0.91082 0.0
H843 H 0.18796 0.02814 0.93694 0.0
H844 H 0.21052 0.05193 0.86714 0.0
H845 H 0.21776 0.08278 0.83688 0.0
H846 H 0.12441 0.06669 0.84239 0.0
H847 H 0.11678 0.03608 0.87287 0.0
C848 C 0.10553 0.88651 0.90649 0.0
C849 C 0.07291 0.87275 0.90528 0.0
C850 C 0.12461 0.91897 0.9067 0.0
C851 C 0.1116 0.93848 0.90557 0.0
C852 C 0.07921 0.92503 0.90363 0.0
C853 C 0.06 0.89246 0.90363 0.0
C854 C 0.13208 0.97283 0.90725 0.0
C855 C 0.13558 0.99195 0.89094 0.0
C856 C 0.15049 0.98624 0.92426 0.0
C857 C 0.14639 0.96743 0.94233 0.0
C858 C 0.11684 0.95002 0.95124 0.0
C859 C 0.11294 0.93182 0.968 0.0
C860 C 0.13847 0.93102 0.97611 0.0
C861 C 0.16797 0.94847 0.96748 0.0
C862 C 0.17199 0.96666 0.95068 0.0
C863 C 0.22869 0.12561 0.90458 0.0
C864 C 0.25868 0.12939 0.90661 0.0
C865 C 0.20222 0.09556 0.90475 0.0
C866 C 0.20542 0.069 0.90721 0.0
C867 C 0.23527 0.0729 0.90945 0.0
C868 C 0.26153 0.1026 0.90904 0.0
C869 C 0.17816 0.03681 0.90735 0.0
C870 C 0.17338 0.018 0.92405 0.0
C871 C 0.15866 0.02376 0.8907 0.0
C872 C 0.16323 0.04212 0.87242 0.0
C873 C 0.19165 0.05524 0.862 0.0
C874 C 0.1958 0.07262 0.8448 0.0
C875 C 0.1716 0.0768 0.83776 0.0
C876 C 0.14316 0.06351 0.84789 0.0
C877 C 0.13891 0.04615 0.86513 0.0
H878 H 0.17485 0.09024 0.82442 0.0
H879 H 0.1354 0.91691 0.98909 0.0
H880 H 0.09984 0.22713 0.40127 0.0
H881 H 0.10813 0.18226 0.39882 0.0
H882 H 0.2069 0.24502 0.39124 0.0
H883 H 0.19886 0.28953 0.39322 0.0
H884 H 0.18828 0.19865 0.36636 0.0
H885 H 0.17446 0.20893 0.43601 0.0
H886 H 0.14634 0.21142 0.46544 0.0
H887 H 0.07054 0.11925 0.45328 0.0
H888 H 0.09807 0.11639 0.42361 0.0
H889 H 0.26103 0.11452 0.40007 0.0
H890 H 0.24084 0.15047 0.39781 0.0
H891 H 0.14764 0.07288 0.39061 0.0
H892 H 0.16768 0.03658 0.39167 0.0
H893 H 0.15628 0.12078 0.42063 0.0
H894 H 0.17504 0.10978 0.3524 0.0
H895 H 0.20584 0.10871 0.32406 0.0
H896 H 0.27528 0.20427 0.33483 0.0
H897 H 0.24511 0.20576 0.36345 0.0
C898 C 0.12327 0.23135 0.39898 0.0
C899 C 0.14863 0.26204 0.39751 0.0
C900 C 0.12801 0.20566 0.39766 0.0
C901 C 0.15822 0.21024 0.395 0.0
C902 C 0.18338 0.24081 0.39324 0.0
C903 C 0.17868 0.26634 0.39447 0.0
C904 C 0.16421 0.18356 0.39429 0.0
C905 C 0.18134 0.18173 0.37829 0.0
C906 C 0.15465 0.16099 0.40962 0.0
C907 C 0.13814 0.1626 0.42747 0.0
C908 C 0.15168 0.18929 0.43953 0.0
C909 C 0.13588 0.19076 0.45627 0.0
C910 C 0.10662 0.16555 0.46119 0.0
C911 C 0.09317 0.13878 0.44942 0.0
C912 C 0.10887 0.13722 0.43265 0.0
C913 C 0.23631 0.10494 0.39758 0.0
C914 C 0.21612 0.07244 0.39596 0.0
C915 C 0.22478 0.1256 0.39651 0.0
C916 C 0.19277 0.1143 0.39406 0.0
C917 C 0.17241 0.08201 0.39262 0.0
C918 C 0.18398 0.06131 0.39334 0.0
C919 C 0.18086 0.13649 0.39296 0.0
C920 C 0.16271 0.13745 0.40859 0.0
C921 C 0.18978 0.15852 0.37743 0.0
C922 C 0.20794 0.15778 0.36018 0.0
C923 C 0.19702 0.13048 0.34884 0.0
C924 C 0.21434 0.12982 0.3327 0.0
C925 C 0.24254 0.15639 0.32768 0.0
C926 C 0.25344 0.1837 0.33876 0.0
C927 C 0.23623 0.18447 0.35493 0.0
H928 H 0.25591 0.15583 0.31517 0.0
H929 H 0.09442 0.16673 0.47415 0.0
H930 H 0.15588 0.23591 0.88554 0.0
H931 H 0.09953 0.21544 0.88411 0.0
H932 H 0.08683 0.16091 0.93672 0.0
H933 H 0.14331 0.18134 0.93826 0.0
H934 H 0.04114 0.12805 0.90617 0.0
H935 H 0.0852 0.22309 0.94304 0.0
H936 H 0.12233 0.27869 0.94949 0.0
H937 H 0.09088 0.30474 0.89755 0.0
H938 H 0.05389 0.24919 0.8906 0.0
H939 H 0.88584 0.10145 0.92528 0.0
H940 H 0.93963 0.11149 0.92686 0.0
H941 H 0.96719 0.18352 0.88244 0.0
H942 H 0.91406 0.17443 0.88146 0.0
H943 H 1.00545 0.20543 0.91151 0.0
H944 H 0.96099 0.10883 0.87455 0.0
H945 H 0.92384 0.0529 0.86897 0.0
H946 H 0.95532 0.02921 0.92183 0.0
H947 H 0.99231 0.08498 0.9279 0.0
C948 C 0.14107 0.2193 0.89668 0.0
C949 C 0.15406 0.21037 0.91206 0.0
C950 C 0.1089 0.20768 0.89588 0.0
C951 C 0.08902 0.18671 0.91034 0.0
C952 C 0.10175 0.177 0.9254 0.0
C953 C 0.13402 0.18891 0.92635 0.0
C954 C 0.05524 0.17654 0.91029 0.0
C955 C 0.03319 0.14483 0.90754 0.0
C956 C 0.04498 0.19849 0.91197 0.0
C957 C 0.06699 0.23195 0.91619 0.0
C958 C 0.08638 0.24065 0.9329 0.0
C959 C 0.10737 0.27216 0.93666 0.0
C960 C 0.10902 0.29523 0.92391 0.0
C961 C 0.08961 0.28683 0.9074 0.0
C962 C 0.06861 0.25534 0.90354 0.0
C963 C 0.90333 0.11902 0.91564 0.0
C964 C 0.89586 0.13731 0.90336 0.0
C965 C 0.93408 0.12475 0.91651 0.0
C966 C 0.95764 0.14832 0.90476 0.0
C967 C 0.94964 0.16544 0.89181 0.0
C968 C 0.9192 0.16015 0.89121 0.0
C969 C 0.991 0.1569 0.90672 0.0
C970 C 1.01315 0.18846 0.91003 0.0
C971 C 1.00118 0.13472 0.9056 0.0
C972 C 0.97923 0.10113 0.90178 0.0
C973 C 0.95985 0.0917 0.88505 0.0
C974 C 0.93882 0.06001 0.8818 0.0
C975 C 0.93715 0.03749 0.89507 0.0
C976 C 0.95658 0.04663 0.91158 0.0
C977 C 0.9776 0.07828 0.91493 0.0
H978 H 0.92087 0.01297 0.89253 0.0
H979 H 0.12528 0.31962 0.92685 0.0
H980 H 0.98195 0.14086 0.41742 0.0
H981 H 0.94538 0.08472 0.41733 0.0
H982 H 0.89245 0.09707 0.37124 0.0
H983 H 0.92946 0.15337 0.37085 0.0
H984 H 0.85595 0.06124 0.40238 0.0
H985 H 0.937 0.06539 0.36071 0.0
H986 H 0.99106 0.07966 0.35243 0.0
H987 H 0.99321 0.02636 0.40199 0.0
H988 H 0.93927 1.01213 0.41074 0.0
H989 H 0.75192 0.90748 0.3782 0.0
H990 H 0.79525 0.96087 0.37556 0.0
H991 H 0.84663 0.9404 0.41875 0.0
H992 H 0.80325 0.88612 0.421 0.0
H993 H 0.88531 0.9801 0.39053 0.0
H994 H 0.80599 0.97578 0.43274 0.0
H995 H 0.75254 0.96177 0.44255 0.0
H996 H 0.74809 0.01611 0.39437 0.0
H997 H 0.80136 0.03007 0.38408 0.0
C998 C 0.96294 0.13165 0.40694 0.0
C999 C 0.95885 0.1517 0.394 0.0
C1000 C 0.94196 0.09951 0.40699 0.0
C1001 C 0.91637 0.08667 0.39415 0.0
C1002 C 0.9121 0.10653 0.38125 0.0
C1003 C 0.93319 0.13871 0.38111 0.0
C1004 C 0.8933 0.05273 0.39481 0.0
C1005 C 0.86227 0.04351 0.39949 0.0
C1006 C 0.90185 0.02961 0.39183 0.0
C1007 C 0.93419 0.03795 0.38649 0.0
C1008 C 0.94908 0.05692 0.36994 0.0
C1009 C 0.97969 0.06496 0.36514 0.0
C1010 C 0.99559 0.054 0.37671 0.0
C1011 C 0.98088 0.03487 0.39306 0.0
C1012 C 0.95028 0.02679 0.39793 0.0
C1013 C 0.7726 0.9142 0.38697 0.0
C1014 C 0.77409 0.89282 0.40002 0.0
C1015 C 0.79733 0.94476 0.38549 0.0
C1016 C 0.82383 0.95491 0.39736 0.0
C1017 C 0.82627 0.93312 0.40956 0.0
C1018 C 0.80155 0.90217 0.41084 0.0
C1019 C 0.84782 0.98864 0.39773 0.0
C1020 C 0.87899 0.99783 0.39339 0.0
C1021 C 0.83955 1.01186 0.40129 0.0
C1022 C 0.80759 1.00376 0.40754 0.0
C1023 C 0.79354 0.98458 0.42415 0.0
C1024 C 0.76328 0.97666 0.42981 0.0
C1025 C 0.7469 0.98799 0.41906 0.0
C1026 C 0.76079 1.00733 0.40267 0.0
C1027 C 0.79103 0.01528 0.39693 0.0
H1028 H 0.72348 0.98183 0.42346 0.0
H1029 H 0.01929 0.06026 0.37298 0.0
H1030 H 0.83575 0.73618 0.92086 0.0
H1031 H 0.82675 0.78011 0.91817 0.0
H1032 H 0.92204 0.8397 0.8994 0.0
H1033 H 0.93155 0.79551 0.90252 0.0
H1034 H 0.90358 0.87055 0.92394 0.0
H1035 H 0.86393 0.81107 0.86553 0.0
H1036 H 0.83453 0.7637 0.84537 0.0
H1037 H 0.74887 0.74703 0.87224 0.0
H1038 H 0.7778 0.79404 0.89281 0.0
H1039 H 0.85848 0.98226 0.89246 0.0
H1040 H 0.87815 0.94561 0.89166 0.0
H1041 H 0.7918 0.87387 0.91705 0.0
H1042 H 0.77233 0.91047 0.91858 0.0
H1043 H 0.81175 0.85334 0.88469 0.0
H1044 H 0.8546 0.91173 0.94527 0.0
H1045 H 0.88547 0.95998 0.96444 0.0
H1046 H 0.96735 0.98038 0.931 0.0
H1047 H 0.93683 0.93248 0.91141 0.0
C1048 C 0.85493 0.75861 0.91622 0.0
C1049 C 0.88428 0.76222 0.91165 0.0
C1050 C 0.84969 0.78374 0.91463 0.0
C1051 C 0.87345 0.81304 0.90808 0.0
C1052 C 0.90326 0.81721 0.9043 0.0
C1053 C 0.90866 0.79197 0.9061 0.0
C1054 C 0.86646 0.83873 0.9049 0.0
C1055 C 0.88389 0.86703 0.91504 0.0
C1056 C 0.84071 0.83419 0.89331 0.0
C1057 C 0.82309 0.80602 0.88082 0.0
C1058 C 0.83884 0.79721 0.86724 0.0
C1059 C 0.82226 0.77042 0.85572 0.0
C1060 C 0.78986 0.75234 0.85754 0.0
C1061 C 0.77397 0.76106 0.87085 0.0
C1062 C 0.79045 0.7878 0.88243 0.0
C1063 C 0.84374 0.95879 0.89807 0.0
C1064 C 0.81375 0.94943 0.90562 0.0
C1065 C 0.85501 0.93783 0.8975 0.0
C1066 C 0.83648 0.90706 0.90437 0.0
C1067 C 0.80643 0.89748 0.91159 0.0
C1068 C 0.79525 0.91844 0.91233 0.0
C1069 C 0.84822 0.88464 0.90422 0.0
C1070 C 0.8317 0.85699 0.89336 0.0
C1071 C 0.87503 0.89003 0.9149 0.0
C1072 C 0.89337 0.91871 0.92674 0.0
C1073 C 0.87913 0.92665 0.9419 0.0
C1074 C 0.89657 0.9539 0.95286 0.0
C1075 C 0.92834 0.97325 0.94892 0.0
C1076 C 0.94274 0.96536 0.93403 0.0
C1077 C 0.92538 0.93818 0.92299 0.0
H1078 H 0.94181 0.99436 0.95742 0.0
H1079 H 0.77706 0.73161 0.84862 0.0
H1080 H 0.08984 0.69342 0.11658 0.0
H1081 H 0.0926 0.64512 0.11458 0.0
H1082 H 0.17644 0.68787 0.14965 0.0
H1083 H 0.17418 0.7358 0.15135 0.0
H1084 H 0.18513 0.66152 0.11898 0.0
H1085 H 0.10407 0.63038 0.1681 0.0
H1086 H 0.05352 0.621 0.18112 0.0
H1087 H 1.0057 0.55534 0.13462 0.0
H1088 H 0.05604 0.56464 0.12117 0.0
H1089 H 0.20318 0.53274 0.14547 0.0
H1090 H 0.19319 0.57653 0.147 0.0
H1091 H 0.11454 0.52765 0.10811 0.0
H1092 H 0.12397 0.48356 0.10684 0.0
H1093 H 0.10104 0.55557 0.13826 0.0
H1094 H 0.18255 0.58528 0.09025 0.0
H1095 H 0.2333 0.5947 0.07761 0.0
H1096 H 0.28062 0.66359 0.12256 0.0
H1097 H 0.2301 0.65425 0.13565 0.0
C1098 C 0.10861 0.6923 0.12403 0.0
C1099 C 0.1319 0.71855 0.13399 0.0
C1100 C 0.11019 0.66469 0.12289 0.0
C1101 C 0.13481 0.66279 0.13195 0.0
C1102 C 0.15741 0.68874 0.14236 0.0
C1103 C 0.15602 0.7162 0.14334 0.0
C1104 C 0.13818 0.6345 0.13018 0.0
C1105 C 0.1668 0.63843 0.12341 0.0
C1106 C 0.11407 0.60414 0.13542 0.0
C1107 C 0.08382 0.59847 0.14351 0.0
C1108 C 0.08279 0.61413 0.16056 0.0
C1109 C 0.05418 0.60879 0.16804 0.0
C1110 C 0.02642 0.58766 0.15867 0.0
C1111 C 0.02722 0.57175 0.14184 0.0
C1112 C 0.05578 0.57703 0.13429 0.0
C1113 C 0.18361 0.53119 0.13738 0.0
C1114 C 0.16458 0.50473 0.12588 0.0
C1115 C 0.17803 0.55633 0.13816 0.0
C1116 C 0.15331 0.55556 0.12748 0.0
C1117 C 0.13381 0.52886 0.11641 0.0
C1118 C 0.13944 0.5038 0.11555 0.0
C1119 C 0.14821 0.58285 0.12751 0.0
C1120 C 0.11929 0.57869 0.13381 0.0
C1121 C 0.17208 0.6131 0.12193 0.0
C1122 C 0.20251 0.61885 0.11404 0.0
C1123 C 0.20376 0.60226 0.09753 0.0
C1124 C 0.23249 0.60761 0.09027 0.0
C1125 C 0.26016 0.62967 0.09931 0.0
C1126 C 0.25916 0.64648 0.11559 0.0
C1127 C 0.23049 0.64118 0.12293 0.0
H1128 H 0.28238 0.63378 0.09366 0.0
H1129 H 1.00429 0.58355 0.16448 0.0
H1130 H 0.66287 0.11515 0.6416 0.0
H1131 H 0.60892 0.10401 0.64368 0.0
H1132 H 0.64079 0.20269 0.64058 0.0
H1133 H 0.69492 0.21406 0.63886 0.0
H1134 H 0.59542 0.17327 0.66865 0.0
H1135 H 0.61081 0.15688 0.60034 0.0
H1136 H 0.62472 0.13346 0.57283 0.0
H1137 H 0.55285 0.04195 0.5907 0.0
H1138 H 0.53878 0.0648 0.6185 0.0
H1139 H 0.46313 0.17961 0.64034 0.0
H1140 H 0.51339 0.18248 0.64217 0.0
H1141 H 0.46813 0.08184 0.64242 0.0
H1142 H 0.41701 0.07863 0.64017 0.0
H1143 H 0.51822 0.10699 0.61812 0.0
H1144 H 0.49983 0.12355 0.68488 0.0
H1145 H 0.48542 0.14697 0.71213 0.0
H1146 H 0.56246 0.23752 0.69757 0.0
H1147 H 0.57709 0.21472 0.67004 0.0
C1148 C 0.65847 0.13454 0.64163 0.0
C1149 C 0.6833 0.16554 0.64008 0.0
C1150 C 0.62755 0.12809 0.64263 0.0
C1151 C 0.62072 0.15247 0.64208 0.0
C1152 C 0.64546 0.18347 0.64096 0.0
C1153 C 0.67639 0.18994 0.63986 0.0
C1154 C 0.58782 0.14575 0.64249 0.0
C1155 C 0.57862 0.159 0.65751 0.0
C1156 C 0.56555 0.12628 0.62832 0.0
C1157 C 0.57399 0.11252 0.61163 0.0
C1158 C 0.59816 0.13173 0.59851 0.0
C1159 C 0.60603 0.11857 0.58284 0.0
C1160 C 0.58974 0.08623 0.58006 0.0
C1161 C 0.56548 0.06699 0.5929 0.0
C1162 C 0.55754 0.08004 0.60861 0.0
C1163 C 0.46356 0.15791 0.64087 0.0
C1164 C 0.43577 0.1288 0.64023 0.0
C1165 C 0.49252 0.15966 0.64202 0.0
C1166 C 0.49466 0.13242 0.64281 0.0
C1167 C 0.46707 0.10322 0.64196 0.0
C1168 C 0.43786 0.10141 0.64073 0.0
C1169 C 0.52592 0.13494 0.64411 0.0
C1170 C 0.53487 0.12093 0.62942 0.0
C1171 C 0.54796 0.15364 0.65863 0.0
C1172 C 0.53943 0.16743 0.67531 0.0
C1173 C 0.51359 0.14849 0.68741 0.0
C1174 C 0.5054 0.16165 0.70292 0.0
C1175 C 0.52298 0.19372 0.70656 0.0
C1176 C 0.54885 0.21268 0.69473 0.0
C1177 C 0.55714 0.19964 0.67919 0.0
H1178 H 0.51659 0.20386 0.71857 0.0
H1179 H 0.59587 0.07608 0.56792 0.0
H1180 H 0.54891 0.65548 0.13925 0.0
H1181 H 0.50396 0.60261 0.13909 0.0
H1182 H 0.44327 0.63987 0.12709 0.0
H1183 H 0.48813 0.69304 0.12777 0.0
H1184 H 0.41868 0.59429 0.15508 0.0
H1185 H 0.46462 0.60678 0.09054 0.0
H1186 H 0.50719 0.6187 0.06694 0.0
H1187 H 0.51815 0.54448 0.09144 0.0
H1188 H 0.4759 0.53239 0.11537 0.0
H1189 H 0.28382 0.45808 0.12451 0.0
H1190 H 0.33045 0.50936 0.12593 0.0
H1191 H 0.38692 0.4663 0.13448 0.0
H1192 H 0.34009 0.41443 0.13257 0.0
H1193 H 0.41496 0.51401 0.10945 0.0
H1194 H 0.36798 0.49967 0.17297 0.0
H1195 H 0.3255 0.48712 0.19666 0.0
H1196 H 0.31732 0.56461 0.1752 0.0
H1197 H 0.3593 0.57718 0.15098 0.0
C1198 C 0.52597 0.65253 0.13682 0.0
C1199 C 0.52219 0.67862 0.13355 0.0
C1200 C 0.5003 0.62219 0.13652 0.0
C1201 C 0.47022 0.61716 0.13284 0.0
C1202 C 0.46625 0.64314 0.12988 0.0
C1203 C 0.49196 0.67353 0.13014 0.0
C1204 C 0.44292 0.58484 0.13211 0.0
C1205 C 0.41769 0.57686 0.14492 0.0
C1206 C 0.442 0.56173 0.11931 0.0
C1207 C 0.46731 0.56889 0.10487 0.0
C1208 C 0.47627 0.59316 0.09099 0.0
C1209 C 0.50031 0.59992 0.07754 0.0
C1210 C 0.51542 0.58242 0.07773 0.0
C1211 C 0.50645 0.55805 0.09133 0.0
C1212 C 0.48244 0.55122 0.10483 0.0
C1213 C 0.30609 0.45933 0.12673 0.0
C1214 C 0.30807 0.43197 0.12858 0.0
C1215 C 0.33282 0.48882 0.12762 0.0
C1216 C 0.36225 0.49185 0.1307 0.0
C1217 C 0.36447 0.46462 0.13219 0.0
C1218 C 0.33766 0.43496 0.13113 0.0
C1219 C 0.3905 0.5235 0.13229 0.0
C1220 C 0.41594 0.53138 0.11967 0.0
C1221 C 0.3917 0.54649 0.14536 0.0
C1222 C 0.36664 0.53921 0.16004 0.0
C1223 C 0.35698 0.51391 0.17319 0.0
C1224 C 0.33299 0.50681 0.18674 0.0
C1225 C 0.31871 0.52507 0.18747 0.0
C1226 C 0.3284 0.55048 0.17463 0.0
C1227 C 0.35229 0.55759 0.16097 0.0
H1228 H 0.30018 0.51959 0.19799 0.0
H1229 H 0.53403 0.58769 0.0673 0.0
H1230 H 0.81288 0.47941 0.63709 0.0
H1231 H 0.82429 0.43662 0.63917 0.0
H1232 H 0.92232 0.50334 0.64507 0.0
H1233 H 0.91119 0.54622 0.64257 0.0
H1234 H 0.91222 0.45786 0.61859 0.0
H1235 H 0.88034 0.46253 0.68486 0.0
H1236 H 0.84552 0.46359 0.71056 0.0
H1237 H 0.77262 0.37315 0.69231 0.0
H1238 H 0.80688 0.37174 0.66631 0.0
H1239 H 0.95033 0.33877 0.64076 0.0
H1240 H 0.94582 0.38598 0.6429 0.0
H1241 H 0.84552 0.32899 0.64211 0.0
H1242 H 0.8497 0.28218 0.64051 0.0
H1243 H 0.86112 0.3727 0.66813 0.0
H1244 H 0.88987 0.36928 0.60042 0.0
H1245 H 0.92298 0.36763 0.57371 0.0
H1246 H 0.99973 0.45464 0.59356 0.0
H1247 H 0.96716 0.45659 0.62055 0.0
C1248 C 0.83687 0.48498 0.63881 0.0
C1249 C 0.86109 0.51627 0.63978 0.0
C1250 C 0.84335 0.46049 0.64013 0.0
C1251 C 0.87416 0.46675 0.64246 0.0
C1252 C 0.89838 0.49793 0.64335 0.0
C1253 C 0.89191 0.52242 0.64212 0.0
C1254 C 0.88114 0.44076 0.64363 0.0
C1255 C 0.90145 0.43949 0.62963 0.0
C1256 C 0.86668 0.41648 0.65779 0.0
C1257 C 0.84611 0.41715 0.67353 0.0
C1258 C 0.85682 0.44296 0.68624 0.0
C1259 C 0.83719 0.44361 0.70088 0.0
C1260 C 0.80686 0.41848 0.70304 0.0
C1261 C 0.79612 0.39261 0.69061 0.0
C1262 C 0.81564 0.39186 0.67593 0.0
C1263 C 0.92734 0.33633 0.64115 0.0
C1264 C 0.90044 0.30658 0.64043 0.0
C1265 C 0.92478 0.36335 0.64228 0.0
C1266 C 0.89529 0.36113 0.64247 0.0
C1267 C 0.86853 0.33143 0.64205 0.0
C1268 C 0.87103 0.30457 0.64107 0.0
C1269 C 0.89179 0.38943 0.64285 0.0
C1270 C 0.87214 0.39118 0.65718 0.0
C1271 C 0.90664 0.41399 0.62888 0.0
C1272 C 0.9262 0.41289 0.61264 0.0
C1273 C 0.91388 0.38793 0.59918 0.0
C1274 C 0.93253 0.38696 0.58397 0.0
C1275 C 0.96347 0.41096 0.58198 0.0
C1276 C 0.97578 0.43603 0.59515 0.0
C1277 C 0.95724 0.43709 0.61039 0.0
H1278 H 0.97787 0.41017 0.5702 0.0
H1279 H 0.79169 0.41903 0.71438 0.0
H1280 H 0.61783 0.94125 0.129 0.0
H1281 H 0.56629 0.93691 0.1282 0.0
H1282 H 0.52359 0.83972 0.14487 0.0
H1283 H 0.57462 0.84367 0.14534 0.0
H1284 H 0.49237 0.84596 0.11563 0.0
H1285 H 0.53201 0.8975 0.17778 0.0
H1286 H 0.5697 0.93869 0.19983 0.0
H1287 H 0.55874 1.00774 0.16781 0.0
H1288 H 0.52128 0.96699 0.14539 0.0
H1289 H 0.34082 0.81587 0.1416 0.0
H1290 H 0.39364 0.82362 0.14256 0.0
H1291 H 0.43095 0.91926 0.12371 0.0
H1292 H 0.37834 0.91198 0.12329 0.0
H1293 H 0.46543 0.91549 0.15308 0.0
H1294 H 0.42471 0.8634 0.09143 0.0
H1295 H 0.38681 0.82195 0.06961 0.0
H1296 H 0.39975 0.7536 0.10097 0.0
H1297 H 0.43743 0.7946 0.12316 0.0
C1298 C 0.59748 0.91902 0.13263 0.0
C1299 C 0.60046 0.89283 0.13722 0.0
C1300 C 0.568 0.91658 0.13222 0.0
C1301 C 0.54095 0.888 0.13659 0.0
C1302 C 0.544 0.86199 0.14136 0.0
C1303 C 0.57333 0.86435 0.14168 0.0
C1304 C 0.50933 0.88472 0.13578 0.0
C1305 C 0.48642 0.86095 0.12402 0.0
C1306 C 0.50163 0.90473 0.1463 0.0
C1307 C 0.5241 0.92924 0.15978 0.0
C1308 C 0.53783 0.9215 0.17534 0.0
C1309 C 0.55912 0.94476 0.18793 0.0
C1310 C 0.56668 0.97582 0.18519 0.0
C1311 C 0.5529 0.98368 0.16989 0.0
C1312 C 0.53162 0.96051 0.15725 0.0
C1313 C 0.36026 0.83862 0.13778 0.0
C1314 C 0.35522 0.86323 0.13225 0.0
C1315 C 0.39046 0.84295 0.13817 0.0
C1316 C 0.41632 0.87195 0.13298 0.0
C1317 C 0.41141 0.89665 0.1277 0.0
C1318 C 0.38123 0.89234 0.12727 0.0
C1319 C 0.44846 0.87652 0.1331 0.0
C1320 C 0.47144 0.90055 0.14467 0.0
C1321 C 0.45624 0.85671 0.12244 0.0
C1322 C 0.43367 0.83203 0.10907 0.0
C1323 C 0.4193 0.83949 0.09377 0.0
C1324 C 0.39788 0.81609 0.08132 0.0
C1325 C 0.39082 0.78515 0.08393 0.0
C1326 C 0.40522 0.77757 0.09898 0.0
C1327 C 0.42663 0.80089 0.11148 0.0
H1328 H 0.37423 0.76706 0.07428 0.0
H1329 H 0.58316 0.9938 0.19495 0.0
H1330 H 0.74485 0.57821 0.66359 0.0
H1331 H 0.69909 0.52595 0.66514 0.0
H1332 H 0.65059 0.55504 0.62507 0.0
H1333 H 0.696 0.60798 0.62432 0.0
H1334 H 0.61089 0.51655 0.65051 0.0
H1335 H 0.68945 0.51398 0.61006 0.0
H1336 H 0.74175 0.5221 0.60237 0.0
H1337 H 0.73276 0.45961 0.64939 0.0
H1338 H 0.68061 0.4515 0.65758 0.0
H1339 H 0.50165 0.36679 0.61344 0.0
H1340 H 0.54504 0.42009 0.61717 0.0
H1341 H 0.58367 0.38912 0.66313 0.0
H1342 H 0.54036 0.33538 0.65925 0.0
H1343 H 0.62805 0.42783 0.63597 0.0
H1344 H 0.54759 0.4291 0.675 0.0
H1345 H 0.49497 0.42089 0.68148 0.0
H1346 H 0.50717 0.48558 0.63512 0.0
H1347 H 0.55972 0.49384 0.62817 0.0
C1348 C 0.72426 0.57357 0.65532 0.0
C1349 C 0.72406 0.5971 0.64371 0.0
C1350 C 0.69816 0.54358 0.65609 0.0
C1351 C 0.6716 0.53612 0.64474 0.0
C1352 C 0.67082 0.56005 0.63386 0.0
C1353 C 0.69676 0.59033 0.63344 0.0
C1354 C 0.6452 0.50324 0.64369 0.0
C1355 C 0.61468 0.49725 0.6471 0.0
C1356 C 0.65 0.47776 0.6396 0.0
C1357 C 0.68123 0.48236 0.63455 0.0
C1358 C 0.6987 0.50212 0.61884 0.0
C1359 C 0.72832 0.50672 0.61439 0.0
C1360 C 0.74057 0.49142 0.62541 0.0
C1361 C 0.72324 0.47146 0.64089 0.0
C1362 C 0.69365 0.46685 0.64544 0.0
C1363 C 0.51946 0.37122 0.62427 0.0
C1364 C 0.51758 0.34675 0.636 0.0
C1365 C 0.54413 0.4018 0.62651 0.0
C1366 C 0.5675 0.40871 0.64056 0.0
C1367 C 0.56584 0.38436 0.65224 0.0
C1368 C 0.541 0.35371 0.65009 0.0
C1369 C 0.59389 0.44128 0.64272 0.0
C1370 C 0.62437 0.44718 0.63947 0.0
C1371 C 0.58902 0.46667 0.64672 0.0
C1372 C 0.5575 0.46188 0.65095 0.0
C1373 C 0.53897 0.44139 0.66609 0.0
C1374 C 0.50917 0.43676 0.66986 0.0
C1375 C 0.49771 0.45265 0.65869 0.0
C1376 C 0.51606 0.47327 0.64375 0.0
C1377 C 0.54587 0.47796 0.6399 0.0
H1378 H 0.47463 0.44903 0.66164 0.0
H1379 H 0.76344 0.49493 0.62192 0.0
H1380 H 0.34726 0.94302 0.40278 0.0
H1381 H 0.39449 0.93853 0.40225 0.0
H1382 H 0.33768 0.83815 0.39966 0.0
H1383 H 0.29079 0.84227 0.40028 0.0
H1384 H 0.38239 0.85536 0.42703 0.0
H1385 H 0.37629 0.88101 0.35902 0.0
H1386 H 0.37353 0.913 0.33193 0.0
H1387 H 0.46109 0.9908 0.34995 0.0
H1388 H 0.46416 0.95937 0.37733 0.0
H1389 H 0.49246 0.80962 0.40188 0.0
H1390 H 0.44846 0.81911 0.40115 0.0
H1391 H 0.51224 0.91854 0.40196 0.0
H1392 H 0.55632 0.90926 0.40275 0.0
H1393 H 0.46598 0.905 0.3765 0.0
H1394 H 0.47324 0.87948 0.44375 0.0
H1395 H 0.47629 0.8481 0.47112 0.0
H1396 H 0.38687 0.77109 0.45517 0.0
H1397 H 0.38348 0.80187 0.42751 0.0
C1398 C 0.34484 0.92001 0.40199 0.0
C1399 C 0.3151 0.89306 0.4016 0.0
C1400 C 0.37188 0.91748 0.40164 0.0
C1401 C 0.36967 0.88796 0.40087 0.0
C1402 C 0.34004 0.86115 0.40034 0.0
C1403 C 0.31316 0.86364 0.40063 0.0
C1404 C 0.39795 0.88456 0.40105 0.0
C1405 C 0.40049 0.86597 0.41585 0.0
C1406 C 0.42207 0.89906 0.38682 0.0
C1407 C 0.42028 0.91795 0.37035 0.0
C1408 C 0.39482 0.90502 0.35731 0.0
C1409 C 0.39323 0.92303 0.34188 0.0
C1410 C 0.41707 0.95394 0.33925 0.0
C1411 C 0.44261 0.96687 0.35202 0.0
C1412 C 0.4443 0.94897 0.36749 0.0
C1413 C 0.49716 0.83351 0.40197 0.0
C1414 C 0.52802 0.85864 0.40242 0.0
C1415 C 0.47195 0.83892 0.40154 0.0
C1416 C 0.47696 0.86957 0.40175 0.0
C1417 C 0.50772 0.8947 0.40175 0.0
C1418 C 0.53294 0.88932 0.40213 0.0
C1419 C 0.45015 0.87539 0.4023 0.0
C1420 C 0.44793 0.89449 0.38772 0.0
C1421 C 0.42633 0.86145 0.41679 0.0
C1422 C 0.42825 0.84289 0.43344 0.0
C1423 C 0.45433 0.85577 0.44598 0.0
C1424 C 0.45611 0.8381 0.46156 0.0
C1425 C 0.43183 0.80759 0.46485 0.0
C1426 C 0.40568 0.79471 0.45259 0.0
C1427 C 0.40381 0.81226 0.43696 0.0
H1428 H 0.43324 0.79396 0.47693 0.0
H1429 H 0.4158 0.96785 0.3273 0.0
H1430 H 0.69026 0.47659 0.90869 0.0
H1431 H 0.63605 0.43437 0.90677 0.0
H1432 H 0.60655 0.50159 0.89525 0.0
H1433 H 0.66057 0.54404 0.89782 0.0
H1434 H 0.56922 0.45948 0.92216 0.0
H1435 H 0.60873 0.45531 0.85822 0.0
H1436 H 0.6454 0.45261 0.83469 0.0
H1437 H 0.62557 0.36432 0.85932 0.0
H1438 H 0.58909 0.36669 0.88319 0.0
H1439 H 0.41265 0.33805 0.90069 0.0
H1440 H 0.4645 0.38497 0.89837 0.0
H1441 H 0.50729 0.32797 0.90585 0.0
H1442 H 0.45619 0.28144 0.90756 0.0
H1443 H 0.53664 0.36815 0.87828 0.0
H1444 H 0.50138 0.37408 0.94396 0.0
H1445 H 0.46554 0.37648 0.96834 0.0
H1446 H 0.47796 0.46071 0.94129 0.0
H1447 H 0.51359 0.45858 0.91659 0.0
C1448 C 0.67226 0.48244 0.90578 0.0
C1449 C 0.6799 0.51379 0.90334 0.0
C1450 C 0.64125 0.45822 0.90452 0.0
C1451 C 0.61716 0.46472 0.90065 0.0
C1452 C 0.62469 0.49595 0.89817 0.0
C1453 C 0.65569 0.52019 0.89943 0.0
C1454 C 0.58408 0.43896 0.89963 0.0
C1455 C 0.56198 0.43973 0.91233 0.0
C1456 C 0.57463 0.41292 0.88706 0.0
C1457 C 0.59635 0.4113 0.87259 0.0
C1458 C 0.61234 0.43542 0.8587 0.0
C1459 C 0.63307 0.43393 0.84529 0.0
C1460 C 0.63785 0.40834 0.84553 0.0
C1461 C 0.62185 0.38414 0.85915 0.0
C1462 C 0.60112 0.38552 0.87261 0.0
C1463 C 0.43314 0.33559 0.90183 0.0
C1464 C 0.43013 0.3059 0.90426 0.0
C1465 C 0.4628 0.36244 0.90058 0.0
C1466 C 0.48998 0.36015 0.90208 0.0
C1467 C 0.48684 0.3305 0.90452 0.0
C1468 C 0.45742 0.30379 0.90554 0.0
C1469 C 0.52185 0.38824 0.90114 0.0
C1470 C 0.54376 0.38798 0.88801 0.0
C1471 C 0.53115 0.41462 0.91343 0.0
C1472 C 0.50985 0.41597 0.9283 0.0
C1473 C 0.49628 0.39298 0.94313 0.0
C1474 C 0.47604 0.39431 0.95702 0.0
C1475 C 0.4694 0.41868 0.95633 0.0
C1476 C 0.48308 0.44182 0.94179 0.0
C1477 C 0.50331 0.44057 0.92785 0.0
H1478 H 0.45373 0.41967 0.9671 0.0
H1479 H 0.65392 0.40724 0.83514 0.0
H1480 H 0.2142 0.68836 0.38885 0.0
H1481 H 0.20337 0.63448 0.3852 0.0
H1482 H 0.11756 0.60118 0.41794 0.0
H1483 H 0.12857 0.65488 0.42191 0.0
H1484 H 0.14624 0.57285 0.43079 0.0
H1485 H 0.11959 0.59266 0.36656 0.0
H1486 H 0.12772 0.62117 0.33516 0.0
H1487 H 0.20505 0.60801 0.3212 0.0
H1488 H 0.19765 0.57978 0.35266 0.0
H1489 H 0.08915 0.41174 0.40979 0.0
H1490 H 0.09313 0.46331 0.40943 0.0
H1491 H 0.18477 0.50353 0.38332 0.0
H1492 H 0.18102 0.4524 0.38357 0.0
H1493 H 0.14999 0.52688 0.36649 0.0
H1494 H 0.17766 0.50952 0.43179 0.0
H1495 H 0.16881 0.48059 0.4631 0.0
H1496 H 0.08782 0.48871 0.47468 0.0
H1497 H 0.09595 0.51733 0.44328 0.0
C1498 C 0.19291 0.6695 0.39511 0.0
C1499 C 0.17234 0.67591 0.40575 0.0
C1500 C 0.18667 0.63868 0.39298 0.0
C1501 C 0.15944 0.61359 0.40114 0.0
C1502 C 0.13876 0.62002 0.41158 0.0
C1503 C 0.14513 0.65078 0.41386 0.0
C1504 C 0.15289 0.58075 0.39937 0.0
C1505 C 0.14655 0.5627 0.41666 0.0
C1506 C 0.15378 0.56748 0.38102 0.0
C1507 C 0.15824 0.58436 0.36206 0.0
C1508 C 0.13848 0.59605 0.35686 0.0
C1509 C 0.14293 0.61212 0.33904 0.0
C1510 C 0.16693 0.61647 0.32621 0.0
C1511 C 0.18649 0.60466 0.33116 0.0
C1512 C 0.18216 0.5886 0.34898 0.0
C1513 C 0.10996 0.43149 0.40374 0.0
C1514 C 0.13484 0.42794 0.39685 0.0
C1515 C 0.11227 0.46097 0.40363 0.0
C1516 C 0.1394 0.48735 0.39652 0.0
C1517 C 0.16364 0.48356 0.38888 0.0
C1518 C 0.16148 0.45426 0.38914 0.0
C1519 C 0.1434 0.51922 0.39787 0.0
C1520 C 0.14938 0.53705 0.38055 0.0
C1521 C 0.14201 0.53227 0.41616 0.0
C1522 C 0.13721 0.51525 0.43509 0.0
C1523 C 0.15782 0.50492 0.44094 0.0
C1524 C 0.15296 0.48861 0.45871 0.0
C1525 C 0.12771 0.48273 0.47084 0.0
C1526 C 0.10733 0.49323 0.46525 0.0
C1527 C 0.11206 0.5095 0.44747 0.0
H1528 H 0.12399 0.4701 0.4846 0.0
H1529 H 0.17034 0.62892 0.31242 0.0
H1530 H 0.74372 0.18296 0.90585 0.0
H1531 H 0.69664 0.18673 0.90476 0.0
H1532 H 0.6406 0.08646 0.90063 0.0
H1533 H 0.68806 0.08229 0.90176 0.0
H1534 H 0.6226 0.11944 0.87398 0.0
H1535 H 0.64229 0.11802 0.94302 0.0
H1536 H 0.6742 0.13415 0.97324 0.0
H1537 H 0.69125 0.22782 0.96601 0.0
H1538 H 0.6598 0.21235 0.93556 0.0
H1539 H 0.4807 0.11949 0.89355 0.0
H1540 H 0.52436 0.1096 0.89358 0.0
H1541 H 0.58783 0.20699 0.90566 0.0
H1542 H 0.54416 0.21705 0.9057 0.0
H1543 H 0.60005 0.17148 0.92901 0.0
H1544 H 0.58308 0.1744 0.85949 0.0
H1545 H 0.55248 0.15955 0.82872 0.0
H1546 H 0.53144 0.0646 0.83623 0.0
H1547 H 0.56157 0.07881 0.86721 0.0
C1548 C 0.7215 0.16156 0.90466 0.0
C1549 C 0.71979 0.13223 0.90396 0.0
C1550 C 0.69452 0.16383 0.9041 0.0
C1551 C 0.66508 0.1369 0.9028 0.0
C1552 C 0.66312 0.10755 0.90168 0.0
C1553 C 0.69025 0.1052 0.9024 0.0
C1554 C 0.6366 0.13985 0.90284 0.0
C1555 C 0.61728 0.13028 0.88615 0.0
C1556 C 0.63015 0.15472 0.91851 0.0
C1557 C 0.64888 0.16407 0.93691 0.0
C1558 C 0.65303 0.14211 0.94779 0.0
C1559 C 0.67101 0.15113 0.96497 0.0
C1560 C 0.6848 0.18201 0.97152 0.0
C1561 C 0.68057 0.20391 0.96091 0.0
C1562 C 0.66264 0.19503 0.9437 0.0
C1563 C 0.50401 0.13895 0.89588 0.0
C1564 C 0.50889 0.16914 0.89952 0.0
C1565 C 0.52899 0.13322 0.89594 0.0
C1566 C 0.55952 0.15757 0.89944 0.0
C1567 C 0.56451 0.18777 0.90296 0.0
C1568 C 0.5395 0.1935 0.90299 0.0
C1569 C 0.58612 0.15145 0.90001 0.0
C1570 C 0.60514 0.16043 0.91686 0.0
C1571 C 0.59235 0.13619 0.88443 0.0
C1572 C 0.5743 0.1276 0.86578 0.0
C1573 C 0.57171 0.1503 0.85466 0.0
C1574 C 0.55449 0.14201 0.83717 0.0
C1575 C 0.53995 0.11113 0.83055 0.0
C1576 C 0.54267 0.0885 0.84139 0.0
C1577 C 0.55984 0.09666 0.85891 0.0
H1578 H 0.52663 0.10476 0.817 0.0
H1579 H 0.69871 0.18894 0.98483 0.0
H1580 H 0.3762 0.47886 0.40478 0.0
H1581 H 0.43 0.5221 0.40424 0.0
H1582 H 0.39701 0.58786 0.39987 0.0
H1583 H 0.34303 0.54461 0.39988 0.0
H1584 H 0.44459 0.60211 0.37435 0.0
H1585 H 0.42427 0.57591 0.44348 0.0
H1586 H 0.40845 0.54079 0.47242 0.0
H1587 H 0.48202 0.5209 0.4605 0.0
H1588 H 0.49802 0.5556 0.43131 0.0
H1589 H 0.57837 0.7429 0.39955 0.0
H1590 H 0.52728 0.69628 0.3979 0.0
H1591 H 0.56905 0.63851 0.40593 0.0
H1592 H 0.62078 0.68552 0.40802 0.0
H1593 H 0.5184 0.61774 0.42848 0.0
H1594 H 0.53942 0.64289 0.36015 0.0
H1595 H 0.5547 0.67518 0.32998 0.0
H1596 H 0.48064 0.69524 0.33939 0.0
H1597 H 0.46488 0.66296 0.36968 0.0
C1598 C 0.38034 0.50249 0.40347 0.0
C1599 C 0.35521 0.50822 0.40232 0.0
C1600 C 0.41116 0.52723 0.4034 0.0
C1601 C 0.41761 0.55829 0.40225 0.0
C1602 C 0.39262 0.5641 0.40084 0.0
C1603 C 0.36176 0.53936 0.40097 0.0
C1604 C 0.45036 0.58473 0.40227 0.0
C1605 C 0.4606 0.60575 0.38632 0.0
C1606 C 0.47166 0.58887 0.41751 0.0
C1607 C 0.46213 0.56809 0.43509 0.0
C1608 C 0.43691 0.56385 0.44693 0.0
C1609 C 0.42794 0.54406 0.4634 0.0
C1610 C 0.44416 0.52855 0.46826 0.0
C1611 C 0.46945 0.53289 0.4567 0.0
C1612 C 0.47849 0.55263 0.4402 0.0
C1613 C 0.57695 0.72036 0.40086 0.0
C1614 C 0.60392 0.7181 0.40386 0.0
C1615 C 0.54755 0.6936 0.39979 0.0
C1616 C 0.54421 0.66374 0.40147 0.0
C1617 C 0.57101 0.66127 0.40451 0.0
C1618 C 0.6006 0.68818 0.40564 0.0
C1619 C 0.51254 0.63543 0.40067 0.0
C1620 C 0.50247 0.61404 0.41646 0.0
C1621 C 0.4914 0.63075 0.3852 0.0
C1622 C 0.50115 0.65073 0.36726 0.0
C1623 C 0.52657 0.65441 0.35588 0.0
C1624 C 0.53526 0.67265 0.33872 0.0
C1625 C 0.51873 0.68738 0.33279 0.0
C1626 C 0.49344 0.68384 0.34401 0.0
C1627 C 0.48455 0.6655 0.36114 0.0
H1628 H 0.52545 0.70144 0.31947 0.0
H1629 H 0.43719 0.51324 0.48102 0.0
H1630 H 0.85582 0.57846 0.8792 0.0
H1631 H 0.84958 0.52634 0.87692 0.0
H1632 H 0.93274 0.55666 0.91168 0.0
H1633 H 0.93969 0.60938 0.91344 0.0
H1634 H 0.92932 0.51696 0.88419 0.0
H1635 H 0.85836 0.51752 0.93249 0.0
H1636 H 0.81687 0.52713 0.9446 0.0
H1637 H 0.75338 0.46279 0.90189 0.0
H1638 H 0.79466 0.45315 0.88931 0.0
H1639 H 0.89701 0.36951 0.9215 0.0
H1640 H 0.90609 0.42263 0.91797 0.0
H1641 H 0.82667 0.38913 0.87932 0.0
H1642 H 0.81709 0.33557 0.88307 0.0
H1643 H 0.82755 0.42985 0.90742 0.0
H1644 H 0.89885 0.42778 0.86031 0.0
H1645 H 0.94086 0.41858 0.84877 0.0
H1646 H 1.00406 0.48577 0.89037 0.0
H1647 H 0.96229 0.49505 0.90236 0.0
C1648 C 0.87306 0.57418 0.88613 0.0
C1649 C 0.8981 0.59795 0.89667 0.0
C1650 C 0.86936 0.54429 0.8849 0.0
C1651 C 0.89017 0.53726 0.8946 0.0
C1652 C 0.91622 0.56142 0.9042 0.0
C1653 C 0.92022 0.59157 0.90517 0.0
C1654 C 0.88385 0.50445 0.89553 0.0
C1655 C 0.90719 0.49799 0.88948 0.0
C1656 C 0.85473 0.47948 0.90207 0.0
C1657 C 0.8297 0.48483 0.90984 0.0
C1658 C 0.83561 0.50555 0.92561 0.0
C1659 C 0.81213 0.511 0.93255 0.0
C1660 C 0.78254 0.49562 0.92399 0.0
C1661 C 0.77633 0.4747 0.90849 0.0
C1662 C 0.79976 0.46922 0.90146 0.0
C1663 C 0.8813 0.37335 0.91236 0.0
C1664 C 0.85622 0.34824 0.90263 0.0
C1665 C 0.88671 0.40381 0.9102 0.0
C1666 C 0.86725 0.40995 0.89823 0.0
C1667 C 0.84205 0.38495 0.88858 0.0
C1668 C 0.83671 0.35441 0.89064 0.0
C1669 C 0.87304 0.44242 0.89613 0.0
C1670 C 0.84961 0.44881 0.90203 0.0
C1671 C 0.90213 0.46733 0.88959 0.0
C1672 C 0.92735 0.4619 0.88235 0.0
C1673 C 0.92164 0.44041 0.8671 0.0
C1674 C 0.94542 0.43521 0.86046 0.0
C1675 C 0.97509 0.45152 0.86886 0.0
C1676 C 0.98106 0.47313 0.88389 0.0
C1677 C 0.95734 0.47839 0.8906 0.0
H1678 H 0.99348 0.44747 0.8637 0.0
H1679 H 0.76439 0.49984 0.92941 0.0
H1680 H 0.10652 0.34564 0.33163 0.0
H1681 H 0.12633 0.35324 0.298 0.0
H1682 H 0.21047 0.35719 0.31899 0.0
H1683 H 0.19076 0.35038 0.35328 0.0
H1684 H 0.2221 0.39814 0.28786 0.0
H1685 H 0.15253 0.28983 0.30071 0.0
H1686 H 0.10397 0.24377 0.31221 0.0
H1687 H 0.05161 0.26238 0.2692 0.0
H1688 H 0.09981 0.30887 0.25764 0.0
H1689 H 0.25769 0.34574 0.19883 0.0
H1690 H 0.24508 0.35423 0.23223 0.0
H1691 H 0.16516 0.35762 0.21011 0.0
H1692 H 0.17818 0.34957 0.1762 0.0
H1693 H 0.15194 0.31481 0.24157 0.0
H1694 H 0.22362 0.42233 0.22771 0.0
H1695 H 0.27286 0.46802 0.21685 0.0
H1696 H 0.32262 0.44938 0.26176 0.0
H1697 H 0.27367 0.40325 0.27275 0.0
C1698 C 0.12948 0.34858 0.32918 0.0
C1699 C 0.14699 0.34708 0.34502 0.0
C1700 C 0.14073 0.35282 0.3099 0.0
C1701 C 0.16951 0.35495 0.30585 0.0
C1702 C 0.18805 0.35534 0.32176 0.0
C1703 C 0.17686 0.3515 0.3413 0.0
C1704 C 0.17883 0.35483 0.28492 0.0
C1705 C 0.207 0.37971 0.2778 0.0
C1706 C 0.15879 0.33111 0.27163 0.0
C1707 C 0.12976 0.30301 0.27843 0.0
C1708 C 0.13063 0.28424 0.2938 0.0
C1709 C 0.10317 0.25803 0.30032 0.0
C1710 C 0.07471 0.25019 0.29147 0.0
C1711 C 0.07367 0.26851 0.27605 0.0
C1712 C 0.10105 0.29477 0.2695 0.0
C1713 C 0.23768 0.34879 0.20099 0.0
C1714 C 0.21885 0.34695 0.18494 0.0
C1715 C 0.2306 0.3538 0.22011 0.0
C1716 C 0.2043 0.35674 0.2237 0.0
C1717 C 0.18569 0.35557 0.20763 0.0
C1718 C 0.19315 0.35109 0.18831 0.0
C1719 C 0.19511 0.35823 0.24444 0.0
C1720 C 0.16698 0.33339 0.25157 0.0
C1721 C 0.21539 0.38176 0.25773 0.0
C1722 C 0.24498 0.40915 0.25094 0.0
C1723 C 0.2451 0.42775 0.23514 0.0
C1724 C 0.27297 0.4538 0.229 0.0
C1725 C 0.30089 0.4616 0.23859 0.0
C1726 C 0.30099 0.44332 0.25434 0.0
C1727 C 0.27317 0.41723 0.26055 0.0
H1728 H 0.32243 0.48187 0.23389 0.0
H1729 H 0.05348 0.2299 0.29654 0.0
H1730 H 0.85052 0.16623 0.68367 0.0
H1731 H 0.82932 0.15386 0.71748 0.0
H1732 H 0.89852 0.24651 0.73616 0.0
H1733 H 0.92046 0.25802 0.70291 0.0
H1734 H 0.89958 0.20799 0.76026 0.0
H1735 H 0.81662 0.21949 0.73277 0.0
H1736 H 0.77518 0.20941 0.70881 0.0
H1737 H 0.72633 0.11235 0.72518 0.0
H1738 H 0.76772 0.12175 0.74904 0.0
H1739 H 0.84159 0.18458 0.85943 0.0
H1740 H 0.85411 0.20648 0.8257 0.0
H1741 H 0.79661 0.11416 0.80172 0.0
H1742 H 0.78406 0.09251 0.83496 0.0
H1743 H 0.78875 0.15683 0.78114 0.0
H1744 H 0.87449 0.14513 0.80568 0.0
H1745 H 0.91599 0.15488 0.82954 0.0
H1746 H 0.95952 0.25352 0.81832 0.0
H1747 H 0.91796 0.24436 0.79463 0.0
C1748 C 0.86058 0.18404 0.69497 0.0
C1749 C 0.88704 0.21301 0.69081 0.0
C1750 C 0.84851 0.17705 0.71429 0.0
C1751 C 0.86229 0.19928 0.72951 0.0
C1752 C 0.88761 0.22883 0.72485 0.0
C1753 C 0.90002 0.23547 0.7058 0.0
C1754 C 0.85233 0.19129 0.75055 0.0
C1755 C 0.87535 0.19741 0.7648 0.0
C1756 C 0.82071 0.17689 0.75661 0.0
C1757 C 0.79542 0.17129 0.74259 0.0
C1758 C 0.79712 0.19597 0.7312 0.0
C1759 C 0.77364 0.19037 0.71763 0.0
C1760 C 0.74818 0.16025 0.71543 0.0
C1761 C 0.74608 0.13567 0.72688 0.0
C1762 C 0.76953 0.14113 0.74044 0.0
C1763 C 0.83148 0.16916 0.84692 0.0
C1764 C 0.81207 0.13687 0.8498 0.0
C1765 C 0.8386 0.18161 0.82769 0.0
C1766 C 0.82637 0.16189 0.81115 0.0
C1767 C 0.8062 0.12986 0.81417 0.0
C1768 C 0.79925 0.1175 0.83324 0.0
C1769 C 0.83602 0.17371 0.79063 0.0
C1770 C 0.81298 0.16805 0.77652 0.0
C1771 C 0.86763 0.18866 0.78464 0.0
C1772 C 0.89295 0.1941 0.79856 0.0
C1773 C 0.89282 0.16891 0.8084 0.0
C1774 C 0.91635 0.17432 0.82188 0.0
C1775 C 0.94033 0.2048 0.82549 0.0
C1776 C 0.9409 0.22992 0.81555 0.0
C1777 C 0.91737 0.22464 0.80209 0.0
H1778 H 0.9585 0.20895 0.83595 0.0
H1779 H 0.73007 0.15595 0.70488 0.0
H1780 H 0.65737 0.90523 0.20364 0.0
H1781 H 0.65546 0.88826 0.23775 0.0
H1782 H 0.69236 0.82949 0.21947 0.0
H1783 H 0.69431 0.84647 0.18504 0.0
H1784 H 0.64525 0.80113 0.24779 0.0
H1785 H 0.74016 0.8991 0.2389 0.0
H1786 H 0.77178 0.95455 0.22927 0.0
H1787 H 0.72302 0.9791 0.27164 0.0
H1788 H 0.69076 0.92369 0.28133 0.0
H1789 H 0.70877 0.78312 0.33594 0.0
H1790 H 0.70034 0.79687 0.30291 0.0
H1791 H 0.66541 0.85384 0.32775 0.0
H1792 H 0.67399 0.84 0.36131 0.0
H1793 H 0.70758 0.88338 0.29689 0.0
H1794 H 0.61582 0.7859 0.3079 0.0
H1795 H 0.58513 0.73078 0.31797 0.0
H1796 H 0.62722 0.70491 0.27169 0.0
H1797 H 0.65898 0.7602 0.26168 0.0
C1798 C 0.66481 0.88843 0.20681 0.0
C1799 C 0.67633 0.87743 0.19169 0.0
C1800 C 0.66379 0.87884 0.22635 0.0
C1801 C 0.6743 0.85806 0.23124 0.0
C1802 C 0.6843 0.8457 0.21603 0.0
C1803 C 0.6854 0.85539 0.19639 0.0
C1804 C 0.67598 0.85034 0.25231 0.0
C1805 C 0.65914 0.81905 0.25848 0.0
C1806 C 0.69335 0.87386 0.26642 0.0
C1807 C 0.71281 0.9072 0.26069 0.0
C1808 C 0.73599 0.91629 0.24605 0.0
C1809 C 0.75407 0.94771 0.2406 0.0
C1810 C 0.74935 0.97032 0.2498 0.0
C1811 C 0.72661 0.96156 0.26451 0.0
C1812 C 0.70843 0.93014 0.26999 0.0
C1813 C 0.69915 0.79849 0.33446 0.0
C1814 C 0.6919 0.81039 0.35123 0.0
C1815 C 0.69424 0.80624 0.31551 0.0
C1816 C 0.68189 0.82607 0.31279 0.0
C1817 C 0.67484 0.83835 0.32951 0.0
C1818 C 0.67961 0.83038 0.34864 0.0
C1819 C 0.67709 0.83409 0.29236 0.0
C1820 C 0.69342 0.86546 0.28627 0.0
C1821 C 0.65924 0.81063 0.27833 0.0
C1822 C 0.63999 0.77728 0.28414 0.0
C1823 C 0.61876 0.76852 0.29996 0.0
C1824 C 0.60112 0.73719 0.30565 0.0
C1825 C 0.60414 0.71427 0.29547 0.0
C1826 C 0.62489 0.72269 0.27957 0.0
C1827 C 0.64275 0.75404 0.27389 0.0
H1828 H 0.59042 0.69 0.29987 0.0
H1829 H 0.76337 0.99465 0.24556 0.0
H1830 H 0.80255 0.63436 0.68845 0.0
H1831 H 0.81408 0.62599 0.72271 0.0
H1832 H 0.86288 0.72558 0.73225 0.0
H1833 H 0.85038 0.73378 0.69859 0.0
H1834 H 0.89318 0.6891 0.74699 0.0
H1835 H 0.79566 0.69268 0.74703 0.0
H1836 H 0.74136 0.673 0.73645 0.0
H1837 H 0.71537 0.58205 0.75946 0.0
H1838 H 0.7697 0.60114 0.76991 0.0
H1839 H 0.91562 0.73595 0.84334 0.0
H1840 H 0.8972 0.72705 0.80936 0.0
H1841 H 0.83155 0.6307 0.82338 0.0
H1842 H 0.84937 0.64011 0.85804 0.0
H1843 H 0.80723 0.65279 0.7961 0.0
H1844 H 0.90082 0.64963 0.80148 0.0
H1845 H 0.95469 0.6666 0.81178 0.0
H1846 H 0.98817 0.75109 0.77795 0.0
H1847 H 0.93442 0.73489 0.76769 0.0
C1848 C 0.81638 0.65437 0.6978 0.0
C1849 C 0.82593 0.68473 0.69096 0.0
C1850 C 0.82271 0.64959 0.71733 0.0
C1851 C 0.83925 0.6752 0.73 0.0
C1852 C 0.85016 0.70554 0.72272 0.0
C1853 C 0.84312 0.71021 0.70351 0.0
C1854 C 0.84405 0.67098 0.75119 0.0
C1855 C 0.87444 0.68111 0.75775 0.0
C1856 C 0.81938 0.65953 0.76512 0.0
C1857 C 0.78677 0.64821 0.75899 0.0
C1858 C 0.77843 0.66841 0.74965 0.0
C1859 C 0.74764 0.65738 0.74372 0.0
C1860 C 0.72494 0.62626 0.74722 0.0
C1861 C 0.73298 0.60613 0.75672 0.0
C1862 C 0.76376 0.61704 0.76265 0.0
C1863 C 0.89674 0.71303 0.8393 0.0
C1864 C 0.88397 0.68869 0.85323 0.0
C1865 C 0.88641 0.70787 0.81981 0.0
C1866 C 0.86372 0.67793 0.81357 0.0
C1867 C 0.84935 0.65392 0.82778 0.0
C1868 C 0.85937 0.65931 0.84756 0.0
C1869 C 0.85672 0.67207 0.79206 0.0
C1870 C 0.82597 0.66009 0.7854 0.0
C1871 C 0.88103 0.68129 0.77793 0.0
C1872 C 0.91352 0.69108 0.78389 0.0
C1873 C 0.91964 0.67192 0.79632 0.0
C1874 C 0.95016 0.6814 0.80215 0.0
C1875 C 0.97483 0.70992 0.79554 0.0
C1876 C 0.96903 0.729 0.78305 0.0
C1877 C 0.93853 0.71965 0.7772 0.0
H1878 H 0.99845 0.71722 0.80007 0.0
H1879 H 0.70112 0.61776 0.74262 0.0
H1880 H 0.18525 0.84484 0.18456 0.0
H1881 H 0.20568 0.85492 0.21838 0.0
H1882 H 0.12918 0.76559 0.237 0.0
H1883 H 0.10808 0.75647 0.20358 0.0
H1884 H 0.1326 0.80602 0.26102 0.0
H1885 H 0.20945 0.78428 0.23458 0.0
H1886 H 0.24966 0.7895 0.21085 0.0
H1887 H 0.30649 0.88641 0.22584 0.0
H1888 H 0.26642 0.88192 0.24945 0.0
H1889 H 0.19034 0.83435 0.36031 0.0
H1890 H 0.17649 0.80864 0.32774 0.0
H1891 H 0.23918 0.89664 0.29956 0.0
H1892 H 0.25292 0.922 0.33159 0.0
H1893 H 0.24251 0.84928 0.28186 0.0
H1894 H 0.16227 0.87204 0.3039 0.0
H1895 H 0.12202 0.86776 0.3273 0.0
H1896 H 0.07171 0.76807 0.32018 0.0
H1897 H 0.11196 0.77175 0.29695 0.0
C1898 C 0.17339 0.8271 0.19581 0.0
C1899 C 0.14522 0.79987 0.19154 0.0
C1900 C 0.18503 0.8328 0.21516 0.0
C1901 C 0.16909 0.81094 0.23039 0.0
C1902 C 0.14186 0.78295 0.22568 0.0
C1903 C 0.12991 0.77764 0.20653 0.0
C1904 C 0.17898 0.81823 0.25145 0.0
C1905 C 0.15654 0.81476 0.26558 0.0
C1906 C 0.21028 0.83019 0.25754 0.0
C1907 C 0.2348 0.83279 0.2437 0.0
C1908 C 0.23046 0.80674 0.23276 0.0
C1909 C 0.25323 0.80958 0.21932 0.0
C1910 C 0.28058 0.83828 0.2168 0.0
C1911 C 0.28529 0.86419 0.2278 0.0
C1912 C 0.26257 0.8615 0.24123 0.0
C1913 C 0.20135 0.84795 0.34713 0.0
C1914 C 0.22245 0.88018 0.34844 0.0
C1915 C 0.19346 0.83333 0.32857 0.0
C1916 C 0.20671 0.8508 0.31117 0.0
C1917 C 0.22875 0.88264 0.3127 0.0
C1918 C 0.2364 0.89715 0.33107 0.0
C1919 C 0.19616 0.83717 0.29116 0.0
C1920 C 0.21846 0.8397 0.27726 0.0
C1921 C 0.16474 0.82427 0.28523 0.0
C1922 C 0.14028 0.82213 0.29889 0.0
C1923 C 0.14272 0.84919 0.30743 0.0
C1924 C 0.11991 0.84688 0.32065 0.0
C1925 C 0.09438 0.81765 0.32528 0.0
C1926 C 0.09154 0.79069 0.31662 0.0
C1927 C 0.11433 0.79287 0.30343 0.0
H1928 H 0.07676 0.81591 0.33553 0.0
H1929 H 0.29814 0.84045 0.20635 0.0
H1930 H 0.34605 0.17517 0.85913 0.0
H1931 H 0.35535 0.16409 0.82518 0.0
H1932 H 0.35273 0.24552 0.80444 0.0
H1933 H 0.34175 0.25537 0.83789 0.0
H1934 H 0.32048 0.20186 0.78107 0.0
H1935 H 0.42277 0.23976 0.80838 0.0
H1936 H 0.46049 0.24108 0.83267 0.0
H1937 H 0.43423 0.14642 0.81841 0.0
H1938 H 0.39605 0.14439 0.7942 0.0
H1939 H 0.36303 0.18814 0.68237 0.0
H1940 H 0.3702 0.21146 0.71551 0.0
H1941 H 0.35765 0.12617 0.7417 0.0
H1942 H 0.35058 0.10315 0.70908 0.0
H1943 H 0.40205 0.17684 0.7613 0.0
H1944 H 0.29679 0.13803 0.73682 0.0
H1945 H 0.25864 0.13611 0.71265 0.0
H1946 H 0.29144 0.23366 0.72187 0.0
H1947 H 0.33015 0.23625 0.74588 0.0
C1948 C 0.3478 0.19076 0.84728 0.0
C1949 C 0.34314 0.21605 0.85108 0.0
C1950 C 0.35325 0.18456 0.82788 0.0
C1951 C 0.35507 0.20414 0.8121 0.0
C1952 C 0.35127 0.2299 0.81618 0.0
C1953 C 0.34511 0.23559 0.83537 0.0
C1954 C 0.35936 0.19729 0.7912 0.0
C1955 C 0.33878 0.19704 0.77677 0.0
C1956 C 0.38283 0.19041 0.78542 0.0
C1957 C 0.40638 0.19186 0.79958 0.0
C1958 C 0.42496 0.21919 0.81047 0.0
C1959 C 0.44642 0.22006 0.82423 0.0
C1960 C 0.44969 0.19382 0.82712 0.0
C1961 C 0.43164 0.16671 0.81617 0.0
C1962 C 0.41013 0.16571 0.80241 0.0
C1963 C 0.36249 0.17477 0.69522 0.0
C1964 C 0.35597 0.1438 0.69322 0.0
C1965 C 0.36646 0.18799 0.71412 0.0
C1966 C 0.36415 0.1704 0.73113 0.0
C1967 C 0.35958 0.14022 0.72888 0.0
C1968 C 0.35535 0.12703 0.71018 0.0
C1969 C 0.36333 0.18166 0.75138 0.0
C1970 C 0.38428 0.18241 0.76566 0.0
C1971 C 0.34032 0.18914 0.75706 0.0
C1972 C 0.31659 0.18742 0.74296 0.0
C1973 C 0.29598 0.15911 0.73361 0.0
C1974 C 0.27426 0.1579 0.71994 0.0
C1975 C 0.27268 0.18477 0.71567 0.0
C1976 C 0.29274 0.21288 0.72515 0.0
C1977 C 0.31457 0.21423 0.73878 0.0
H1978 H 0.25588 0.1838 0.70506 0.0
H1979 H 0.46624 0.1945 0.83783 0.0
H1980 H 0.35468 0.27114 0.9584 0.0
H1981 H 0.32898 0.28533 0.98401 0.0
H1982 H 0.26139 0.18802 0.99299 0.0
H1983 H 0.28774 0.17352 0.96763 0.0
H1984 H 0.24426 0.24579 0.98489 0.0
H1985 H 0.29281 0.20184 0.02741 0.0
H1986 H 0.33761 0.19653 0.03801 0.0
H1987 H 0.39123 0.29542 0.04818 0.0
H1988 H 0.34685 0.30133 0.03735 0.0
H1989 H 0.1774 0.28362 0.0682 0.0
H1990 H 0.19324 0.25744 0.0437 0.0
H1991 H 0.28979 0.32664 0.0533 0.0
H1992 H 0.27409 0.35164 0.0782 0.0
H1993 H 0.28709 0.27485 0.05257 0.0
H1994 H 0.24321 0.32182 1.01095 0.0
H1995 H 0.20343 0.33267 0.99729 0.0
H1996 H 0.14609 0.23593 0.98203 0.0
H1997 H 0.18523 0.22435 0.996 0.0
C1998 C 0.33454 0.25272 0.96599 0.0
C1999 C 0.32329 0.22122 0.96114 0.0
C2000 C 0.31984 0.26088 0.98054 0.0
C2001 C 0.29329 0.23775 0.99035 0.0
C2002 C 0.28189 0.2062 0.98558 0.0
C2003 C 0.29704 0.19795 0.97123 0.0
C2004 C 0.27781 0.24712 1.00552 0.0
C2005 C 0.25303 0.25154 0.99986 0.0
C2006 C 0.29007 0.2556 0.02476 0.0
C2007 C 0.31666 0.25205 0.03137 0.0
C2008 C 0.31427 0.22248 0.03171 0.0
C2009 C 0.33955 0.21935 0.03781 0.0
C2010 C 0.36728 0.24563 0.04371 0.0
C2011 C 0.36975 0.27509 0.04358 0.0
C2012 C 0.34454 0.27833 0.03748 0.0
C2013 C 0.20195 0.29327 0.06489 0.0
C2014 C 0.22452 0.31964 0.07509 0.0
C2015 C 0.21103 0.27836 0.05084 0.0
C2016 C 0.24283 0.29003 0.04644 0.0
C2017 C 0.26516 0.31685 0.05641 0.0
C2018 C 0.25616 0.33131 0.07061 0.0
C2019 C 0.25341 0.27417 0.03204 0.0
C2020 C 0.2776 0.26866 0.03778 0.0
C2021 C 0.24091 0.26533 1.01272 0.0
C2022 C 0.21693 0.27211 1.00487 0.0
C2023 C 0.22191 0.30276 1.00497 0.0
C2024 C 0.19951 0.30906 0.99711 0.0
C2025 C 0.17217 0.28498 0.98891 0.0
C2026 C 0.16719 0.25454 0.9885 0.0
C2027 C 0.18946 0.24808 0.99642 0.0
H2028 H 0.1549 0.28993 0.98279 0.0
H2029 H 0.38683 0.24317 0.04843 0.0
H2030 H 0.13609 0.30083 0.47112 0.0
H2031 H 0.09814 0.27674 0.49819 0.0
H2032 H 0.04148 0.3114 0.4726 0.0
H2033 H 0.07955 0.33603 0.44589 0.0
H2034 H 0.07868 0.30246 0.52608 0.0
H2035 H 0.96315 0.25511 0.48066 0.0
H2036 H 0.93936 0.22698 0.44976 0.0
H2037 H 1.00832 0.19876 0.44551 0.0
H2038 H 0.03229 0.22629 0.47653 0.0
H2039 H 0.95457 0.27646 0.58981 0.0
H2040 H 0.99429 0.29251 0.56404 0.0
H2041 H 0.95231 0.19699 0.54416 0.0
H2042 H 0.91174 0.1811 0.56963 0.0
H2043 H 0.96608 0.23077 0.5139 0.0
H2044 H 0.03031 0.23614 0.56831 0.0
H2045 H 0.05494 0.25016 0.60111 0.0
H2046 H 0.08928 0.34731 0.58884 0.0
H2047 H 0.06588 0.33391 0.55557 0.0
C2048 C 0.11554 0.3033 0.4713 0.0
C2049 C 0.11067 0.32007 0.45626 0.0
C2050 C 0.09385 0.28952 0.48676 0.0
C2051 C 0.06669 0.2919 0.48734 0.0
C2052 C 0.06194 0.30877 0.47235 0.0
C2053 C 0.08378 0.3229 0.45709 0.0
C2054 C 0.04378 0.2778 0.50391 0.0
C2055 C 0.05405 0.2868 0.52337 0.0
C2056 C 1.01173 0.25661 0.5006 0.0
C2057 C 0.99963 0.24297 0.48088 0.0
C2058 C 0.97342 0.24314 0.47305 0.0
C2059 C 0.95984 0.22721 0.45556 0.0
C2060 C 0.97222 0.21095 0.44581 0.0
C2061 C 0.99876 0.21134 0.45315 0.0
C2062 C 1.01243 0.22722 0.47065 0.0
C2063 C 0.95387 0.25885 0.57997 0.0
C2064 C 0.93006 0.2275 0.58176 0.0
C2065 C 0.97686 0.26801 0.56533 0.0
C2066 C 0.97692 0.24597 0.55225 0.0
C2067 C 0.95301 0.21455 0.55403 0.0
C2068 C 0.92977 0.20543 0.56858 0.0
C2069 C 1.00076 0.25606 0.53605 0.0
C2070 C 0.99068 0.24649 0.51662 0.0
C2071 C 0.03311 0.27583 0.53944 0.0
C2072 C 0.04608 0.284 0.55961 0.0
C2073 C 0.0429 0.26046 0.57269 0.0
C2074 C 0.05674 0.2683 0.59133 0.0
C2075 C 0.07329 0.29956 0.59719 0.0
C2076 C 0.07635 0.32309 0.58431 0.0
C2077 C 0.06305 0.31542 0.5655 0.0
H2078 H 0.08394 0.30556 0.61165 0.0
H2079 H 0.96093 0.19768 0.43274 0.0
H2080 H 0.68908 0.9493 0.092 0.0
H2081 H 0.71326 0.98905 0.06622 0.0
H2082 H 0.75904 0.94115 0.04279 0.0
H2083 H 0.73475 0.90109 0.06877 0.0
H2084 H 0.77272 0.0302 0.0573 0.0
H2085 H 0.76458 0.95263 0.99168 0.0
H2086 H 0.73293 0.89805 0.98047 0.0
H2087 H 0.65482 0.88801 1.01417 0.0
H2088 H 0.68586 0.94263 0.02535 0.0
H2089 H 0.84975 0.12779 0.97213 0.0
H2090 H 0.83439 0.08868 0.99875 0.0
H2091 H 0.73864 0.04564 0.9797 0.0
H2092 H 0.75382 0.08434 0.9533 0.0
H2093 H 0.75447 1.00204 0.98638 0.0
H2094 H 0.76452 0.09255 0.02038 0.0
H2095 H 0.79218 0.14734 0.03159 0.0
H2096 H 0.85986 0.1318 0.0613 0.0
H2097 H 0.83282 0.077 0.05003 0.0
C2098 C 0.70441 0.94726 0.08142 0.0
C2099 C 0.71006 0.92209 0.08243 0.0
C2100 C 0.71831 0.97009 0.0667 0.0
C2101 C 0.73798 0.96819 0.05249 0.0
C2102 C 0.74376 0.94305 0.05347 0.0
C2103 C 0.72986 0.92015 0.0683 0.0
C2104 C 0.75167 0.99228 0.03652 0.0
C2105 C 0.76895 0.024 0.04179 0.0
C2106 C 0.74666 0.98437 1.01624 0.0
C2107 C 0.72769 0.95156 1.00956 0.0
C2108 C 0.74064 0.93876 0.99667 0.0
C2109 C 0.7228 0.90784 0.99032 0.0
C2110 C 0.69193 0.88953 0.99668 0.0
C2111 C 0.67878 0.90217 1.00933 0.0
C2112 C 0.6965 0.93309 1.0157 0.0
C2113 C 0.82544 0.11006 0.97376 0.0
C2114 C 0.80302 0.10901 0.96058 0.0
C2115 C 0.81667 0.08772 0.98894 0.0
C2116 C 0.78531 0.06409 0.99124 0.0
C2117 C 0.76298 0.06339 0.97818 0.0
C2118 C 0.77168 0.08565 0.96313 0.0
C2119 C 0.77529 0.03997 1.00717 0.0
C2120 C 0.75873 1.00824 1.00188 0.0
C2121 C 0.78059 0.04789 0.02743 0.0
C2122 C 0.79688 0.08082 0.03415 0.0
C2123 C 0.78547 0.10091 0.02915 0.0
C2124 C 0.801 0.13194 0.03554 0.0
C2125 C 0.82782 0.14307 0.04709 0.0
C2126 C 0.83912 0.12317 0.05231 0.0
C2127 C 0.8237 0.09212 0.04593 0.0
H2128 H 0.8398 0.1671 0.05203 0.0
H2129 H 0.67816 0.86559 0.99175 0.0
H2130 H 0.85085 0.73269 0.57054 0.0
H2131 H 0.83601 0.75788 0.54461 0.0
H2132 H 0.73992 0.70391 0.56309 0.0
H2133 H 0.75464 0.6793 0.58913 0.0
H2134 H 0.75286 0.70318 0.52068 0.0
H2135 H 0.78089 0.77523 0.57614 0.0
H2136 H 0.81872 0.81192 0.60016 0.0
H2137 H 0.87566 0.87113 0.553 0.0
H2138 H 0.83918 0.83404 0.52855 0.0
H2139 H 0.67085 0.75848 0.46735 0.0
H2140 H 0.69345 0.74184 0.49334 0.0
H2141 H 0.78205 0.82642 0.48521 0.0
H2142 H 0.75819 0.84437 0.46035 0.0
H2143 H 0.77956 0.81425 0.52079 0.0
H2144 H 0.76376 0.74773 0.46628 0.0
H2145 H 0.73666 0.71152 0.43877 0.0
H2146 H 0.66841 0.6457 0.47919 0.0
H2147 H 0.69528 0.68132 0.50697 0.0
C2148 C 0.82659 0.72629 0.56903 0.0
C2149 C 0.80388 0.70402 0.58183 0.0
C2150 C 0.81818 0.74077 0.5543 0.0
C2151 C 0.78686 0.73287 0.55197 0.0
C2152 C 0.76421 0.71042 0.56464 0.0
C2153 C 0.77265 0.69638 0.57951 0.0
C2154 C 0.77712 0.74697 0.53599 0.0
C2155 C 0.75845 0.72741 0.52078 0.0
C2156 C 0.78586 0.77902 0.53555 0.0
C2157 C 0.8074 0.80153 0.55043 0.0
C2158 C 0.80165 0.79582 0.57082 0.0
C2159 C 0.82283 0.81675 0.58454 0.0
C2160 C 0.84943 0.84388 0.57814 0.0
C2161 C 0.85503 0.85009 0.55796 0.0
C2162 C 0.83419 0.82905 0.54415 0.0
C2163 C 0.69504 0.7737 0.47135 0.0
C2164 C 0.71275 0.80271 0.46194 0.0
C2165 C 0.7082 0.76396 0.48602 0.0
C2166 C 0.73998 0.78217 0.49093 0.0
C2167 C 0.75757 0.81167 0.48177 0.0
C2168 C 0.74396 0.82201 0.46757 0.0
C2169 C 0.75442 0.77019 0.50555 0.0
C2170 C 0.77404 0.79007 0.5205 0.0
C2171 C 0.74784 0.7387 0.50532 0.0
C2172 C 0.73136 0.71733 0.48866 0.0
C2173 C 0.74285 0.72564 0.46926 0.0
C2174 C 0.72757 0.70521 0.45364 0.0
C2175 C 0.7007 0.67649 0.45721 0.0
C2176 C 0.68919 0.668 0.47644 0.0
C2177 C 0.70451 0.68822 0.49215 0.0
H2178 H 0.68889 0.66074 0.44508 0.0
H2179 H 0.86569 0.86007 0.58883 0.0
H2180 H 0.90421 0.71975 0.97811 0.0
H2181 H 0.9449 0.74183 1.00361 0.0
H2182 H 0.99093 0.69655 0.97674 0.0
H2183 H 0.9506 0.67472 0.95127 0.0
H2184 H 0.9867 0.68956 1.01754 0.0
H2185 H 1.01749 0.77177 0.9694 0.0
H2186 H 1.01064 0.80911 0.94875 0.0
H2187 H 1.00016 0.85262 1.00071 0.0
H2188 H 1.00586 0.81493 0.02172 0.0
H2189 H 0.13107 0.76754 0.06853 0.0
H2190 H 0.09194 0.74781 0.04213 0.0
H2191 H 0.05179 0.80104 0.06563 0.0
H2192 H 0.0915 0.8215 0.09151 0.0
H2193 H 0.05279 0.80411 0.02649 0.0
H2194 H 0.01913 0.72236 0.07457 0.0
H2195 H 0.02517 0.68572 0.09641 0.0
H2196 H 0.03968 0.64194 0.04595 0.0
H2197 H 0.0343 0.67873 0.0238 0.0
C2198 C 0.92297 0.71447 0.97772 0.0
C2199 C 0.92427 0.6956 0.96267 0.0
C2200 C 0.94627 0.72717 0.99223 0.0
C2201 C 0.97114 0.72102 0.99205 0.0
C2202 C 0.97204 0.70165 0.97723 0.0
C2203 C 0.949 0.68924 0.96265 0.0
C2204 C 0.99638 0.73481 1.00718 0.0
C2205 C 1.00138 0.71462 1.01933 0.0
C2206 C 1.01513 0.76752 1.00987 0.0
C2207 C 1.01176 0.79024 0.99717 0.0
C2208 C 1.01338 0.78906 0.97645 0.0
C2209 C 1.00978 0.81033 0.96466 0.0
C2210 C 1.00505 0.83322 0.9734 0.0
C2211 C 1.00382 0.83486 0.99395 0.0
C2212 C 1.00716 0.8135 1.00581 0.0
C2213 C 0.11402 0.77516 0.06794 0.0
C2214 C 0.11395 0.79562 0.08229 0.0
C2215 C 0.09153 0.76376 0.05292 0.0
C2216 C 0.06845 0.77247 0.052 0.0
C2217 C 0.06914 0.79378 0.06598 0.0
C2218 C 0.09166 0.80524 0.0809 0.0
C2219 C 0.04316 0.75887 0.03685 0.0
C2220 C 0.03812 0.77906 0.0247 0.0
C2221 C 0.02412 0.72615 0.03428 0.0
C2222 C 0.02661 0.7035 0.04753 0.0
C2223 C 0.02379 0.70503 0.06813 0.0
C2224 C 0.02709 0.68424 0.08057 0.0
C2225 C 0.03288 0.66157 0.07258 0.0
C2226 C 0.03524 0.65956 0.05212 0.0
C2227 C 0.03206 0.68037 0.03961 0.0
H2228 H 0.03549 0.64552 0.08223 0.0
H2229 H 1.00235 0.84971 0.96424 0.0
H2230 H 0.18669 0.90551 0.46952 0.0
H2231 H 0.20248 0.94544 0.49535 0.0
H2232 H 0.29821 0.98667 0.47608 0.0
H2233 H 0.28243 0.94742 0.45016 0.0
H2234 H 0.23732 0.95798 0.52608 0.0
H2235 H 0.33883 0.05845 0.48392 0.0
H2236 H 0.35227 0.08207 0.45058 0.0
H2237 H 0.25541 0.04811 0.43879 0.0
H2238 H 0.24133 0.02324 0.47167 0.0
H2239 H 0.34263 0.07274 0.59308 0.0
H2240 H 0.31812 0.03451 0.56661 0.0
H2241 H 0.28067 0.08947 0.542 0.0
H2242 H 0.30475 0.12762 0.5688 0.0
H2243 H 0.30699 0.07129 0.51358 0.0
H2244 H 0.23065 0.02105 0.56398 0.0
H2245 H 0.20646 0.99707 0.59591 0.0
H2246 H 0.24204 0.93388 0.59118 0.0
H2247 H 0.2663 0.95738 0.55911 0.0
C2248 C 0.21106 0.92322 0.47079 0.0
C2249 C 0.23328 0.92344 0.45774 0.0
C2250 C 0.2201 0.94608 0.48554 0.0
C2251 C 0.25154 0.9696 0.48755 0.0
C2252 C 0.27372 0.96949 0.4746 0.0
C2253 C 0.26469 0.9468 0.45986 0.0
C2254 C 0.26154 0.99319 0.50378 0.0
C2255 C 0.25254 0.98274 0.52329 0.0
C2256 C 0.2809 0.02568 0.50033 0.0
C2257 C 0.28906 0.03884 0.48013 0.0
C2258 C 0.32041 0.05575 0.47408 0.0
C2259 C 0.32811 0.06918 0.45523 0.0
C2260 C 0.30466 0.06628 0.44246 0.0
C2261 C 0.27347 0.04978 0.44849 0.0
C2262 C 0.2656 0.03581 0.46717 0.0
C2263 C 0.3289 0.07655 0.58215 0.0
C2264 C 0.32534 0.10305 0.58317 0.0
C2265 C 0.31483 0.0546 0.56703 0.0
C2266 C 0.29721 0.05884 0.55238 0.0
C2267 C 0.29401 0.08557 0.55317 0.0
C2268 C 0.30779 0.10738 0.56848 0.0
C2269 C 0.28327 0.03595 0.53588 0.0
C2270 C 0.29174 0.04652 0.51636 0.0
C2271 C 0.26283 1.00366 0.5393 0.0
C2272 C 0.25049 0.99114 0.55924 0.0
C2273 C 0.23372 1.00237 0.56989 0.0
C2274 C 0.21986 0.98875 0.58797 0.0
C2275 C 0.22275 0.96399 0.59557 0.0
C2276 C 0.23981 0.95304 0.58525 0.0
C2277 C 0.25354 0.96643 0.5671 0.0
H2278 H 0.21151 0.95304 0.60935 0.0
H2279 H 0.31068 0.07703 0.42797 0.0
loop_
_geom_bond_atom_site_label_1
_geom_bond_atom_site_label_2
_geom_bond_distance
_geom_bond_site_symmetry_2
_ccdc_geom_bond_type
C0 Eu1 2.835 . S
C0 C2 1.500 . S
C0 O20 1.257 . S
C0 O21 1.260 . S
Eu1 C0 2.835 . S
Eu1 O20 2.473 . S
Eu1 O21 2.480 . S
Eu1 O22 2.430 . S
Eu1 O23 2.670 . S
Eu1 O24 2.394 . S
Eu1 O29 2.355 . S
Eu1 O31 2.374 . S
C2 C0 1.500 . S
C2 C3 1.377 . S
C2 C7 1.377 . S
C3 C2 1.377 . S
C3 C4 1.395 . S
C3 H32 0.931 . S
C4 C3 1.395 . S
C4 C5 1.383 . S
C4 H33 0.931 . S
C5 C4 1.383 . S
C5 C6 1.394 . S
C6 C5 1.394 . S
C6 C7 1.378 . S
C6 H34 0.931 . S
C7 C2 1.377 . S
C7 C6 1.378 . S
C7 H35 0.931 . S
C8 O22 1.259 . S
C8 O23 1.270 . S
C9 O24 1.251 . S
C9 O25 1.251 . S
C10 Eu11 2.835 . S
C10 C12 1.500 . S
C10 O26 1.257 . S
C10 O27 1.260 . S
Eu11 C10 2.835 . S
Eu11 O23 2.355 . S
Eu11 O25 2.374 . S
Eu11 O26 2.473 . S
Eu11 O27 2.480 . S
Eu11 O28 2.430 . S
Eu11 O29 2.670 . S
Eu11 O30 2.394 . S
C12 C10 1.500 . S
C12 C13 1.377 . S
C12 C17 1.377 . S
C13 C12 1.377 . S
C13 C14 1.395 . S
C13 H36 0.931 . S
C14 C13 1.395 . S
C14 C15 1.383 . S
C14 H37 0.931 . S
C15 C14 1.383 . S
C15 C16 1.394 . S
C16 C15 1.394 . S
C16 C17 1.378 . S
C16 H38 0.931 . S
C17 C12 1.377 . S
C17 C16 1.378 . S
C17 H39 0.931 . S
C18 O28 1.259 . S
C18 O29 1.270 . S
C19 O30 1.251 . S
C19 O31 1.251 . S
O20 C0 1.257 . S
O20 Eu1 2.473 . S
O21 C0 1.260 . S
O21 Eu1 2.480 . S
O22 Eu1 2.430 . S
O22 C8 1.259 . S
O23 Eu1 2.670 . S
O23 C8 1.270 . S
O23 Eu11 2.355 . S
O24 Eu1 2.394 . S
O24 C9 1.251 . S
O25 C9 1.251 . S
O25 Eu11 2.374 . S
O26 C10 1.257 . S
O26 Eu11 2.473 . S
O27 C10 1.260 . S
O27 Eu11 2.480 . S
O28 Eu11 2.430 . S
O28 C18 1.259 . S
O29 Eu1 2.355 . S
O29 Eu11 2.670 . S
O29 C18 1.270 . S
O30 Eu11 2.394 . S
O30 C19 1.251 . S
O31 Eu1 2.374 . S
O31 C19 1.251 . S
H32 C3 0.931 . S
H33 C4 0.931 . S
H34 C6 0.931 . S
H35 C7 0.931 . S
H36 C13 0.931 . S
H37 C14 0.931 . S
H38 C16 0.931 . S
H39 C17 0.931 . S
C40 Eu41 2.835 . S
C40 C42 1.500 . S
C40 O60 1.257 . S
C40 O61 1.260 . S
Eu41 C40 2.835 . S
Eu41 O60 2.473 . S
Eu41 O61 2.480 . S
Eu41 O62 2.430 . S
Eu41 O63 2.670 . S
Eu41 O64 2.394 . S
Eu41 O69 2.355 . S
Eu41 O71 2.374 . S
C42 C40 1.500 . S
C42 C43 1.377 . S
C42 C47 1.377 . S
C43 C42 1.377 . S
C43 C44 1.395 1_655 S
C43 H72 0.931 . S
C44 C43 1.395 1_455 S
C44 C45 1.383 . S
C44 H73 0.931 . S
C45 C44 1.383 . S
C45 C46 1.394 . S
C46 C45 1.394 . S
C46 C47 1.378 1_455 S
C46 H74 0.931 . S
C47 C42 1.377 . S
C47 C46 1.378 1_655 S
C47 H75 0.931 . S
C48 O62 1.259 . S
C48 O63 1.270 . S
C49 O64 1.251 . S
C49 O65 1.251 . S
C50 Eu51 2.835 . S
C50 C52 1.500 . S
C50 O66 1.257 . S
C50 O67 1.260 . S
Eu51 C50 2.835 . S
Eu51 O63 2.355 . S
Eu51 O65 2.374 . S
Eu51 O66 2.473 . S
Eu51 O67 2.480 . S
Eu51 O68 2.430 . S
Eu51 O69 2.670 . S
Eu51 O70 2.394 . S
C52 C50 1.500 . S
C52 C53 1.377 . S
C52 C57 1.377 . S
C53 C52 1.377 . S
C53 C54 1.395 . S
C53 H76 0.931 . S
C54 C53 1.395 . S
C54 C55 1.383 . S
C54 H77 0.931 . S
C55 C54 1.383 . S
C55 C56 1.394 . S
C56 C55 1.394 . S
C56 C57 1.378 . S
C56 H78 0.931 . S
C57 C52 1.377 . S
C57 C56 1.378 . S
C57 H79 0.931 . S
C58 O68 1.259 . S
C58 O69 1.270 . S
C59 O70 1.251 . S
C59 O71 1.251 . S
O60 C40 1.257 . S
O60 Eu41 2.473 . S
O61 C40 1.260 . S
O61 Eu41 2.480 . S
O62 Eu41 2.430 . S
O62 C48 1.259 . S
O63 Eu41 2.670 . S
O63 C48 1.270 . S
O63 Eu51 2.355 . S
O64 Eu41 2.394 . S
O64 C49 1.251 . S
O65 C49 1.251 . S
O65 Eu51 2.374 . S
O66 C50 1.257 . S
O66 Eu51 2.473 . S
O67 C50 1.260 . S
O67 Eu51 2.480 . S
O68 Eu51 2.430 . S
O68 C58 1.259 . S
O69 Eu41 2.355 . S
O69 Eu51 2.670 . S
O69 C58 1.270 . S
O70 Eu51 2.394 . S
O70 C59 1.251 . S
O71 Eu41 2.374 . S
O71 C59 1.251 . S
H72 C43 0.931 . S
H73 C44 0.931 . S
H74 C46 0.931 . S
H75 C47 0.931 . S
H76 C53 0.931 . S
H77 C54 0.931 . S
H78 C56 0.931 . S
H79 C57 0.931 . S
C80 Eu81 2.835 . S
C80 C82 1.500 . S
C80 O100 1.257 . S
C80 O101 1.260 . S
Eu81 C80 2.835 . S
Eu81 O100 2.473 . S
Eu81 O101 2.480 . S
Eu81 O102 2.430 . S
Eu81 O103 2.670 . S
Eu81 O104 2.394 . S
Eu81 O109 2.355 . S
Eu81 O111 2.374 . S
C82 C80 1.500 . S
C82 C83 1.377 . S
C82 C87 1.377 . S
C83 C82 1.377 . S
C83 C84 1.395 1_565 S
C83 H112 0.931 . S
C84 C83 1.395 1_545 S
C84 C85 1.383 . S
C84 H113 0.931 . S
C85 C84 1.383 . S
C85 C86 1.394 . S
C86 C85 1.394 . S
C86 C87 1.378 1_545 S
C86 H114 0.931 . S
C87 C82 1.377 . S
C87 C86 1.378 1_565 S
C87 H115 0.931 . S
C88 O102 1.259 . S
C88 O103 1.270 . S
C89 O104 1.251 . S
C89 O105 1.251 . S
C90 Eu91 2.835 . S
C90 C92 1.500 . S
C90 O106 1.257 . S
C90 O107 1.260 . S
Eu91 C90 2.835 . S
Eu91 O103 2.355 . S
Eu91 O105 2.374 . S
Eu91 O106 2.473 . S
Eu91 O107 2.480 . S
Eu91 O108 2.430 . S
Eu91 O109 2.670 . S
Eu91 O110 2.394 . S
C92 C90 1.500 . S
C92 C93 1.377 . S
C92 C97 1.377 . S
C93 C92 1.377 . S
C93 C94 1.395 . S
C93 H116 0.931 . S
C94 C93 1.395 . S
C94 C95 1.383 . S
C94 H117 0.931 . S
C95 C94 1.383 . S
C95 C96 1.394 . S
C96 C95 1.394 . S
C96 C97 1.378 . S
C96 H118 0.931 . S
C97 C92 1.377 . S
C97 C96 1.378 . S
C97 H119 0.931 . S
C98 O108 1.259 . S
C98 O109 1.270 . S
C99 O110 1.251 . S
C99 O111 1.251 . S
O100 C80 1.257 . S
O100 Eu81 2.473 . S
O101 C80 1.260 . S
O101 Eu81 2.480 . S
O102 Eu81 2.430 . S
O102 C88 1.259 . S
O103 Eu81 2.670 . S
O103 C88 1.270 . S
O103 Eu91 2.355 . S
O104 Eu81 2.394 . S
O104 C89 1.251 . S
O105 C89 1.251 . S
O105 Eu91 2.374 . S
O106 C90 1.257 . S
O106 Eu91 2.473 . S
O107 C90 1.260 . S
O107 Eu91 2.480 . S
O108 Eu91 2.430 . S
O108 C98 1.259 . S
O109 Eu81 2.355 . S
O109 Eu91 2.670 . S
O109 C98 1.270 . S
O110 Eu91 2.394 . S
O110 C99 1.251 . S
O111 Eu81 2.374 . S
O111 C99 1.251 . S
H112 C83 0.931 . S
H113 C84 0.931 . S
H114 C86 0.931 . S
H115 C87 0.931 . S
H116 C93 0.931 . S
H117 C94 0.931 . S
H118 C96 0.931 . S
H119 C97 0.931 . S
C120 Eu121 2.835 . S
C120 C122 1.500 . S
C120 O140 1.257 . S
C120 O141 1.260 . S
Eu121 C120 2.835 . S
Eu121 O140 2.473 . S
Eu121 O141 2.480 . S
Eu121 O142 2.430 . S
Eu121 O143 2.670 . S
Eu121 O144 2.394 . S
Eu121 O149 2.355 . S
Eu121 O151 2.374 . S
C122 C120 1.500 . S
C122 C123 1.377 . S
C122 C127 1.377 . S
C123 C122 1.377 . S
C123 C124 1.395 . S
C123 H152 0.931 . S
C124 C123 1.395 . S
C124 C125 1.383 . S
C124 H153 0.931 . S
C125 C124 1.383 . S
C125 C126 1.394 . S
C126 C125 1.394 . S
C126 C127 1.378 . S
C126 H154 0.931 . S
C127 C122 1.377 . S
C127 C126 1.378 . S
C127 H155 0.931 . S
C128 O142 1.259 . S
C128 O143 1.270 . S
C129 O144 1.251 . S
C129 O145 1.251 . S
C130 Eu131 2.835 . S
C130 C132 1.500 . S
C130 O146 1.257 . S
C130 O147 1.260 . S
Eu131 C130 2.835 . S
Eu131 O143 2.355 . S
Eu131 O145 2.374 . S
Eu131 O146 2.473 . S
Eu131 O147 2.480 . S
Eu131 O148 2.430 . S
Eu131 O149 2.670 . S
Eu131 O150 2.394 . S
C132 C130 1.500 . S
C132 C133 1.377 . S
C132 C137 1.377 . S
C133 C132 1.377 . S
C133 C134 1.395 . S
C133 H156 0.931 . S
C134 C133 1.395 . S
C134 C135 1.383 . S
C134 H157 0.931 . S
C135 C134 1.383 . S
C135 C136 1.394 . S
C136 C135 1.394 . S
C136 C137 1.378 . S
C136 H158 0.931 . S
C137 C132 1.377 . S
C137 C136 1.378 . S
C137 H159 0.931 . S
C138 O148 1.259 . S
C138 O149 1.270 . S
C139 O150 1.251 . S
C139 O151 1.251 . S
O140 C120 1.257 . S
O140 Eu121 2.473 . S
O141 C120 1.260 . S
O141 Eu121 2.480 . S
O142 Eu121 2.430 . S
O142 C128 1.259 . S
O143 Eu121 2.670 . S
O143 C128 1.270 . S
O143 Eu131 2.355 . S
O144 Eu121 2.394 . S
O144 C129 1.251 . S
O145 C129 1.251 . S
O145 Eu131 2.374 . S
O146 C130 1.257 . S
O146 Eu131 2.473 . S
O147 C130 1.260 . S
O147 Eu131 2.480 . S
O148 Eu131 2.430 . S
O148 C138 1.259 . S
O149 Eu121 2.355 . S
O149 Eu131 2.670 . S
O149 C138 1.270 . S
O150 Eu131 2.394 . S
O150 C139 1.251 . S
O151 Eu121 2.374 . S
O151 C139 1.251 . S
H152 C123 0.931 . S
H153 C124 0.931 . S
H154 C126 0.931 . S
H155 C127 0.931 . S
H156 C133 0.931 . S
H157 C134 0.931 . S
H158 C136 0.931 . S
H159 C137 0.931 . S
C160 Eu161 2.835 . S
C160 C162 1.500 . S
C160 O180 1.257 . S
C160 O181 1.260 . S
Eu161 C160 2.835 . S
Eu161 O180 2.473 . S
Eu161 O181 2.480 . S
Eu161 O182 2.430 . S
Eu161 O183 2.670 . S
Eu161 O184 2.394 . S
Eu161 O189 2.355 . S
Eu161 O191 2.374 . S
C162 C160 1.500 . S
C162 C163 1.377 . S
C162 C167 1.377 . S
C163 C162 1.377 . S
C163 C164 1.395 1_455 S
C163 H192 0.931 . S
C164 C163 1.395 1_655 S
C164 C165 1.383 . S
C164 H193 0.931 . S
C165 C164 1.383 . S
C165 C166 1.394 . S
C166 C165 1.394 . S
C166 C167 1.378 1_655 S
C166 H194 0.931 . S
C167 C162 1.377 . S
C167 C166 1.378 1_455 S
C167 H195 0.931 . S
C168 O182 1.259 . S
C168 O183 1.270 . S
C169 O184 1.251 . S
C169 O185 1.251 . S
C170 Eu171 2.835 . S
C170 C172 1.500 . S
C170 O186 1.257 . S
C170 O187 1.260 . S
Eu171 C170 2.835 . S
Eu171 O183 2.355 . S
Eu171 O185 2.374 . S
Eu171 O186 2.473 . S
Eu171 O187 2.480 . S
Eu171 O188 2.430 . S
Eu171 O189 2.670 . S
Eu171 O190 2.394 . S
C172 C170 1.500 . S
C172 C173 1.377 . S
C172 C177 1.377 . S
C173 C172 1.377 . S
C173 C174 1.395 . S
C173 H196 0.931 . S
C174 C173 1.395 . S
C174 C175 1.383 . S
C174 H197 0.931 . S
C175 C174 1.383 . S
C175 C176 1.394 . S
C176 C175 1.394 . S
C176 C177 1.378 . S
C176 H198 0.931 . S
C177 C172 1.377 . S
C177 C176 1.378 . S
C177 H199 0.931 . S
C178 O188 1.259 . S
C178 O189 1.270 . S
C179 O190 1.251 . S
C179 O191 1.251 . S
O180 C160 1.257 . S
O180 Eu161 2.473 . S
O181 C160 1.260 . S
O181 Eu161 2.480 . S
O182 Eu161 2.430 . S
O182 C168 1.259 . S
O183 Eu161 2.670 . S
O183 C168 1.270 . S
O183 Eu171 2.355 . S
O184 Eu161 2.394 . S
O184 C169 1.251 . S
O185 C169 1.251 . S
O185 Eu171 2.374 . S
O186 C170 1.257 . S
O186 Eu171 2.473 . S
O187 C170 1.260 . S
O187 Eu171 2.480 . S
O188 Eu171 2.430 . S
O188 C178 1.259 . S
O189 Eu161 2.355 . S
O189 Eu171 2.670 . S
O189 C178 1.270 . S
O190 Eu171 2.394 . S
O190 C179 1.251 . S
O191 Eu161 2.374 . S
O191 C179 1.251 . S
H192 C163 0.931 . S
H193 C164 0.931 . S
H194 C166 0.931 . S
H195 C167 0.931 . S
H196 C173 0.931 . S
H197 C174 0.931 . S
H198 C176 0.931 . S
H199 C177 0.931 . S
C200 Eu201 2.835 . S
C200 C202 1.500 . S
C200 O220 1.257 . S
C200 O221 1.260 . S
Eu201 C200 2.835 . S
Eu201 O220 2.473 . S
Eu201 O221 2.480 . S
Eu201 O222 2.430 . S
Eu201 O223 2.670 . S
Eu201 O224 2.394 . S
Eu201 O229 2.355 . S
Eu201 O231 2.374 . S
C202 C200 1.500 . S
C202 C203 1.377 . S
C202 C207 1.377 . S
C203 C202 1.377 . S
C203 C204 1.395 1_545 S
C203 H232 0.931 . S
C204 C203 1.395 1_565 S
C204 C205 1.383 . S
C204 H233 0.931 . S
C205 C204 1.383 . S
C205 C206 1.394 . S
C206 C205 1.394 . S
C206 C207 1.378 1_565 S
C206 H234 0.931 . S
C207 C202 1.377 . S
C207 C206 1.378 1_545 S
C207 H235 0.931 . S
C208 O222 1.259 . S
C208 O223 1.270 . S
C209 O224 1.251 . S
C209 O225 1.251 . S
C210 Eu211 2.835 . S
C210 C212 1.500 . S
C210 O226 1.257 . S
C210 O227 1.260 . S
Eu211 C210 2.835 . S
Eu211 O223 2.355 . S
Eu211 O225 2.374 . S
Eu211 O226 2.473 . S
Eu211 O227 2.480 . S
Eu211 O228 2.430 . S
Eu211 O229 2.670 . S
Eu211 O230 2.394 . S
C212 C210 1.500 . S
C212 C213 1.377 . S
C212 C217 1.377 . S
C213 C212 1.377 . S
C213 C214 1.395 . S
C213 H236 0.931 . S
C214 C213 1.395 . S
C214 C215 1.383 . S
C214 H237 0.931 . S
C215 C214 1.383 . S
C215 C216 1.394 . S
C216 C215 1.394 . S
C216 C217 1.378 . S
C216 H238 0.931 . S
C217 C212 1.377 . S
C217 C216 1.378 . S
C217 H239 0.931 . S
C218 O228 1.259 . S
C218 O229 1.270 . S
C219 O230 1.251 . S
C219 O231 1.251 . S
O220 C200 1.257 . S
O220 Eu201 2.473 . S
O221 C200 1.260 . S
O221 Eu201 2.480 . S
O222 Eu201 2.430 . S
O222 C208 1.259 . S
O223 Eu201 2.670 . S
O223 C208 1.270 . S
O223 Eu211 2.355 . S
O224 Eu201 2.394 . S
O224 C209 1.251 . S
O225 C209 1.251 . S
O225 Eu211 2.374 . S
O226 C210 1.257 . S
O226 Eu211 2.473 . S
O227 C210 1.260 . S
O227 Eu211 2.480 . S
O228 Eu211 2.430 . S
O228 C218 1.259 . S
O229 Eu201 2.355 . S
O229 Eu211 2.670 . S
O229 C218 1.270 . S
O230 Eu211 2.394 . S
O230 C219 1.251 . S
O231 Eu201 2.374 . S
O231 C219 1.251 . S
H232 C203 0.931 . S
H233 C204 0.931 . S
H234 C206 0.931 . S
H235 C207 0.931 . S
H236 C213 0.931 . S
H237 C214 0.931 . S
H238 C216 0.931 . S
H239 C217 0.931 . S
C240 Eu241 2.835 . S
C240 C242 1.500 . S
C240 O260 1.257 . S
C240 O261 1.260 . S
Eu241 C240 2.835 . S
Eu241 O260 2.473 . S
Eu241 O261 2.480 . S
Eu241 O262 2.430 . S
Eu241 O263 2.670 . S
Eu241 O264 2.394 . S
Eu241 O269 2.355 . S
Eu241 O271 2.374 . S
C242 C240 1.500 . S
C242 C243 1.377 . S
C242 C247 1.377 . S
C243 C242 1.377 . S
C243 C244 1.395 . S
C243 H272 0.931 . S
C244 C243 1.395 . S
C244 C245 1.383 . S
C244 H273 0.931 . S
C245 C244 1.383 . S
C245 C246 1.394 . S
C246 C245 1.394 . S
C246 C247 1.378 . S
C246 H274 0.931 . S
C247 C242 1.377 . S
C247 C246 1.378 . S
C247 H275 0.931 . S
C248 O262 1.259 . S
C248 O263 1.270 . S
C249 O264 1.251 . S
C249 O265 1.251 . S
C250 Eu251 2.835 . S
C250 C252 1.500 . S
C250 O266 1.257 . S
C250 O267 1.260 . S
Eu251 C250 2.835 . S
Eu251 O263 2.355 . S
Eu251 O265 2.374 . S
Eu251 O266 2.473 . S
Eu251 O267 2.480 . S
Eu251 O268 2.430 . S
Eu251 O269 2.670 . S
Eu251 O270 2.394 . S
C252 C250 1.500 . S
C252 C253 1.377 . S
C252 C257 1.377 . S
C253 C252 1.377 . S
C253 C254 1.395 . S
C253 H276 0.931 . S
C254 C253 1.395 . S
C254 C255 1.383 . S
C254 H277 0.931 . S
C255 C254 1.383 . S
C255 C256 1.394 . S
C256 C255 1.394 . S
C256 C257 1.378 . S
C256 H278 0.931 . S
C257 C252 1.377 . S
C257 C256 1.378 . S
C257 H279 0.931 . S
C258 O268 1.259 . S
C258 O269 1.270 . S
C259 O270 1.251 . S
C259 O271 1.251 . S
O260 C240 1.257 . S
O260 Eu241 2.473 . S
O261 C240 1.260 . S
O261 Eu241 2.480 . S
O262 Eu241 2.430 . S
O262 C248 1.259 . S
O263 Eu241 2.670 . S
O263 C248 1.270 . S
O263 Eu251 2.355 . S
O264 Eu241 2.394 . S
O264 C249 1.251 . S
O265 C249 1.251 . S
O265 Eu251 2.374 . S
O266 C250 1.257 . S
O266 Eu251 2.473 . S
O267 C250 1.260 . S
O267 Eu251 2.480 . S
O268 Eu251 2.430 . S
O268 C258 1.259 . S
O269 Eu241 2.355 . S
O269 Eu251 2.670 . S
O269 C258 1.270 . S
O270 Eu251 2.394 . S
O270 C259 1.251 . S
O271 Eu241 2.374 . S
O271 C259 1.251 . S
H272 C243 0.931 . S
H273 C244 0.931 . S
H274 C246 0.931 . S
H275 C247 0.931 . S
H276 C253 0.931 . S
H277 C254 0.931 . S
H278 C256 0.931 . S
H279 C257 0.931 . S
C280 Eu281 2.835 . S
C280 C282 1.500 . S
C280 O300 1.257 . S
C280 O301 1.260 . S
Eu281 C280 2.835 . S
Eu281 O300 2.473 . S
Eu281 O301 2.480 . S
Eu281 O302 2.430 . S
Eu281 O303 2.670 . S
Eu281 O304 2.394 . S
Eu281 O309 2.355 . S
Eu281 O311 2.374 . S
C282 C280 1.500 . S
C282 C283 1.377 . S
C282 C287 1.377 . S
C283 C282 1.377 . S
C283 C284 1.395 1_655 S
C283 H312 0.931 . S
C284 C283 1.395 1_455 S
C284 C285 1.383 . S
C284 H313 0.931 . S
C285 C284 1.383 . S
C285 C286 1.394 . S
C286 C285 1.394 . S
C286 C287 1.378 1_455 S
C286 H314 0.931 . S
C287 C282 1.377 . S
C287 C286 1.378 1_655 S
C287 H315 0.931 . S
C288 O302 1.259 . S
C288 O303 1.270 . S
C289 O304 1.251 . S
C289 O305 1.251 . S
C290 Eu291 2.835 . S
C290 C292 1.500 . S
C290 O306 1.257 . S
C290 O307 1.260 . S
Eu291 C290 2.835 . S
Eu291 O303 2.355 . S
Eu291 O305 2.374 . S
Eu291 O306 2.473 . S
Eu291 O307 2.480 . S
Eu291 O308 2.430 . S
Eu291 O309 2.670 . S
Eu291 O310 2.394 . S
C292 C290 1.500 . S
C292 C293 1.377 . S
C292 C297 1.377 . S
C293 C292 1.377 . S
C293 C294 1.395 . S
C293 H316 0.931 . S
C294 C293 1.395 . S
C294 C295 1.383 . S
C294 H317 0.931 . S
C295 C294 1.383 . S
C295 C296 1.394 . S
C296 C295 1.394 . S
C296 C297 1.378 . S
C296 H318 0.931 . S
C297 C292 1.377 . S
C297 C296 1.378 . S
C297 H319 0.931 . S
C298 O308 1.259 . S
C298 O309 1.270 . S
C299 O310 1.251 . S
C299 O311 1.251 . S
O300 C280 1.257 . S
O300 Eu281 2.473 . S
O301 C280 1.260 . S
O301 Eu281 2.480 . S
O302 Eu281 2.430 . S
O302 C288 1.259 . S
O303 Eu281 2.670 . S
O303 C288 1.270 . S
O303 Eu291 2.355 . S
O304 Eu281 2.394 . S
O304 C289 1.251 . S
O305 C289 1.251 . S
O305 Eu291 2.374 . S
O306 C290 1.257 . S
O306 Eu291 2.473 . S
O307 C290 1.260 . S
O307 Eu291 2.480 . S
O308 Eu291 2.430 . S
O308 C298 1.259 . S
O309 Eu281 2.355 . S
O309 Eu291 2.670 . S
O309 C298 1.270 . S
O310 Eu291 2.394 . S
O310 C299 1.251 . S
O311 Eu281 2.374 . S
O311 C299 1.251 . S
H312 C283 0.931 . S
H313 C284 0.931 . S
H314 C286 0.931 . S
H315 C287 0.931 . S
H316 C293 0.931 . S
H317 C294 0.931 . S
H318 C296 0.931 . S
H319 C297 0.931 . S
C320 Eu321 2.835 . S
C320 C322 1.500 . S
C320 O340 1.257 . S
C320 O341 1.260 . S
Eu321 C320 2.835 . S
Eu321 O340 2.473 . S
Eu321 O341 2.480 . S
Eu321 O342 2.430 . S
Eu321 O343 2.670 . S
Eu321 O344 2.394 . S
Eu321 O349 2.355 . S
Eu321 O351 2.374 . S
C322 C320 1.500 . S
C322 C323 1.377 . S
C322 C327 1.377 . S
C323 C322 1.377 . S
C323 C324 1.395 1_565 S
C323 H352 0.931 . S
C324 C323 1.395 1_545 S
C324 C325 1.383 . S
C324 H353 0.931 . S
C325 C324 1.383 . S
C325 C326 1.394 . S
C326 C325 1.394 . S
C326 C327 1.378 1_545 S
C326 H354 0.931 . S
C327 C322 1.377 . S
C327 C326 1.378 1_565 S
C327 H355 0.931 . S
C328 O342 1.259 . S
C328 O343 1.270 . S
C329 O344 1.251 . S
C329 O345 1.251 . S
C330 Eu331 2.835 . S
C330 C332 1.500 . S
C330 O346 1.257 . S
C330 O347 1.260 . S
Eu331 C330 2.835 . S
Eu331 O343 2.355 . S
Eu331 O345 2.374 . S
Eu331 O346 2.473 . S
Eu331 O347 2.480 . S
Eu331 O348 2.430 . S
Eu331 O349 2.670 . S
Eu331 O350 2.394 . S
C332 C330 1.500 . S
C332 C333 1.377 . S
C332 C337 1.377 . S
C333 C332 1.377 . S
C333 C334 1.395 . S
C333 H356 0.931 . S
C334 C333 1.395 . S
C334 C335 1.383 . S
C334 H357 0.931 . S
C335 C334 1.383 . S
C335 C336 1.394 . S
C336 C335 1.394 . S
C336 C337 1.378 . S
C336 H358 0.931 . S
C337 C332 1.377 . S
C337 C336 1.378 . S
C337 H359 0.931 . S
C338 O348 1.259 . S
C338 O349 1.270 . S
C339 O350 1.251 . S
C339 O351 1.251 . S
O340 C320 1.257 . S
O340 Eu321 2.473 . S
O341 C320 1.260 . S
O341 Eu321 2.480 . S
O342 Eu321 2.430 . S
O342 C328 1.259 . S
O343 Eu321 2.670 . S
O343 C328 1.270 . S
O343 Eu331 2.355 . S
O344 Eu321 2.394 . S
O344 C329 1.251 . S
O345 C329 1.251 . S
O345 Eu331 2.374 . S
O346 C330 1.257 . S
O346 Eu331 2.473 . S
O347 C330 1.260 . S
O347 Eu331 2.480 . S
O348 Eu331 2.430 . S
O348 C338 1.259 . S
O349 Eu321 2.355 . S
O349 Eu331 2.670 . S
O349 C338 1.270 . S
O350 Eu331 2.394 . S
O350 C339 1.251 . S
O351 Eu321 2.374 . S
O351 C339 1.251 . S
H352 C323 0.931 . S
H353 C324 0.931 . S
H354 C326 0.931 . S
H355 C327 0.931 . S
H356 C333 0.931 . S
H357 C334 0.931 . S
H358 C336 0.931 . S
H359 C337 0.931 . S
C360 Eu361 2.835 . S
C360 C362 1.500 . S
C360 O380 1.257 . S
C360 O381 1.260 . S
Eu361 C360 2.835 . S
Eu361 O380 2.473 . S
Eu361 O381 2.480 . S
Eu361 O382 2.430 . S
Eu361 O383 2.670 . S
Eu361 O384 2.394 . S
Eu361 O389 2.355 . S
Eu361 O391 2.374 . S
C362 C360 1.500 . S
C362 C363 1.377 . S
C362 C367 1.377 . S
C363 C362 1.377 . S
C363 C364 1.395 . S
C363 H392 0.931 . S
C364 C363 1.395 . S
C364 C365 1.383 . S
C364 H393 0.931 . S
C365 C364 1.383 . S
C365 C366 1.394 . S
C366 C365 1.394 . S
C366 C367 1.378 . S
C366 H394 0.931 . S
C367 C362 1.377 . S
C367 C366 1.378 . S
C367 H395 0.931 . S
C368 O382 1.259 . S
C368 O383 1.270 . S
C369 O384 1.251 . S
C369 O385 1.251 . S
C370 Eu371 2.835 . S
C370 C372 1.500 . S
C370 O386 1.257 . S
C370 O387 1.260 . S
Eu371 C370 2.835 . S
Eu371 O383 2.355 . S
Eu371 O385 2.374 . S
Eu371 O386 2.473 . S
Eu371 O387 2.480 . S
Eu371 O388 2.430 . S
Eu371 O389 2.670 . S
Eu371 O390 2.394 . S
C372 C370 1.500 . S
C372 C373 1.377 . S
C372 C377 1.377 . S
C373 C372 1.377 . S
C373 C374 1.395 . S
C373 H396 0.931 . S
C374 C373 1.395 . S
C374 C375 1.383 . S
C374 H397 0.931 . S
C375 C374 1.383 . S
C375 C376 1.394 . S
C376 C375 1.394 . S
C376 C377 1.378 . S
C376 H398 0.931 . S
C377 C372 1.377 . S
C377 C376 1.378 . S
C377 H399 0.931 . S
C378 O388 1.259 . S
C378 O389 1.270 . S
C379 O390 1.251 . S
C379 O391 1.251 . S
O380 C360 1.257 . S
O380 Eu361 2.473 . S
O381 C360 1.260 . S
O381 Eu361 2.480 . S
O382 Eu361 2.430 . S
O382 C368 1.259 . S
O383 Eu361 2.670 . S
O383 C368 1.270 . S
O383 Eu371 2.355 . S
O384 Eu361 2.394 . S
O384 C369 1.251 . S
O385 C369 1.251 . S
O385 Eu371 2.374 . S
O386 C370 1.257 . S
O386 Eu371 2.473 . S
O387 C370 1.260 . S
O387 Eu371 2.480 . S
O388 Eu371 2.430 . S
O388 C378 1.259 . S
O389 Eu361 2.355 . S
O389 Eu371 2.670 . S
O389 C378 1.270 . S
O390 Eu371 2.394 . S
O390 C379 1.251 . S
O391 Eu361 2.374 . S
O391 C379 1.251 . S
H392 C363 0.931 . S
H393 C364 0.931 . S
H394 C366 0.931 . S
H395 C367 0.931 . S
H396 C373 0.931 . S
H397 C374 0.931 . S
H398 C376 0.931 . S
H399 C377 0.931 . S
C400 Eu401 2.835 . S
C400 C402 1.500 . S
C400 O420 1.257 . S
C400 O421 1.260 . S
Eu401 C400 2.835 . S
Eu401 O420 2.473 . S
Eu401 O421 2.480 . S
Eu401 O422 2.430 . S
Eu401 O423 2.670 . S
Eu401 O424 2.394 . S
Eu401 O429 2.355 . S
Eu401 O431 2.374 . S
C402 C400 1.500 . S
C402 C403 1.377 . S
C402 C407 1.377 . S
C403 C402 1.377 . S
C403 C404 1.395 1_455 S
C403 H432 0.931 . S
C404 C403 1.395 1_655 S
C404 C405 1.383 . S
C404 H433 0.931 . S
C405 C404 1.383 . S
C405 C406 1.394 . S
C406 C405 1.394 . S
C406 C407 1.378 1_655 S
C406 H434 0.931 . S
C407 C402 1.377 . S
C407 C406 1.378 1_455 S
C407 H435 0.931 . S
C408 O422 1.259 . S
C408 O423 1.270 . S
C409 O424 1.251 . S
C409 O425 1.251 . S
C410 Eu411 2.835 . S
C410 C412 1.500 . S
C410 O426 1.257 . S
C410 O427 1.260 . S
Eu411 C410 2.835 . S
Eu411 O423 2.355 . S
Eu411 O425 2.374 . S
Eu411 O426 2.473 . S
Eu411 O427 2.480 . S
Eu411 O428 2.430 . S
Eu411 O429 2.670 . S
Eu411 O430 2.394 . S
C412 C410 1.500 . S
C412 C413 1.377 . S
C412 C417 1.377 . S
C413 C412 1.377 . S
C413 C414 1.395 . S
C413 H436 0.931 . S
C414 C413 1.395 . S
C414 C415 1.383 . S
C414 H437 0.931 . S
C415 C414 1.383 . S
C415 C416 1.394 . S
C416 C415 1.394 . S
C416 C417 1.378 . S
C416 H438 0.931 . S
C417 C412 1.377 . S
C417 C416 1.378 . S
C417 H439 0.931 . S
C418 O428 1.259 . S
C418 O429 1.270 . S
C419 O430 1.251 . S
C419 O431 1.251 . S
O420 C400 1.257 . S
O420 Eu401 2.473 . S
O421 C400 1.260 . S
O421 Eu401 2.480 . S
O422 Eu401 2.430 . S
O422 C408 1.259 . S
O423 Eu401 2.670 . S
O423 C408 1.270 . S
O423 Eu411 2.355 . S
O424 Eu401 2.394 . S
O424 C409 1.251 . S
O425 C409 1.251 . S
O425 Eu411 2.374 . S
O426 C410 1.257 . S
O426 Eu411 2.473 . S
O427 C410 1.260 . S
O427 Eu411 2.480 . S
O428 Eu411 2.430 . S
O428 C418 1.259 . S
O429 Eu401 2.355 . S
O429 Eu411 2.670 . S
O429 C418 1.270 . S
O430 Eu411 2.394 . S
O430 C419 1.251 . S
O431 Eu401 2.374 . S
O431 C419 1.251 . S
H432 C403 0.931 . S
H433 C404 0.931 . S
H434 C406 0.931 . S
H435 C407 0.931 . S
H436 C413 0.931 . S
H437 C414 0.931 . S
H438 C416 0.931 . S
H439 C417 0.931 . S
C440 Eu441 2.835 . S
C440 C442 1.500 . S
C440 O460 1.257 . S
C440 O461 1.260 . S
Eu441 C440 2.835 . S
Eu441 O460 2.473 . S
Eu441 O461 2.480 . S
Eu441 O462 2.430 . S
Eu441 O463 2.670 . S
Eu441 O464 2.394 . S
Eu441 O469 2.355 . S
Eu441 O471 2.374 . S
C442 C440 1.500 . S
C442 C443 1.377 . S
C442 C447 1.377 . S
C443 C442 1.377 . S
C443 C444 1.395 1_545 S
C443 H472 0.931 . S
C444 C443 1.395 1_565 S
C444 C445 1.383 . S
C444 H473 0.931 . S
C445 C444 1.383 . S
C445 C446 1.394 . S
C446 C445 1.394 . S
C446 C447 1.378 1_565 S
C446 H474 0.931 . S
C447 C442 1.377 . S
C447 C446 1.378 1_545 S
C447 H475 0.931 . S
C448 O462 1.259 . S
C448 O463 1.270 . S
C449 O464 1.251 . S
C449 O465 1.251 . S
C450 Eu451 2.835 . S
C450 C452 1.500 . S
C450 O466 1.257 . S
C450 O467 1.260 . S
Eu451 C450 2.835 . S
Eu451 O463 2.355 . S
Eu451 O465 2.374 . S
Eu451 O466 2.473 . S
Eu451 O467 2.480 . S
Eu451 O468 2.430 . S
Eu451 O469 2.670 . S
Eu451 O470 2.394 . S
C452 C450 1.500 . S
C452 C453 1.377 . S
C452 C457 1.377 . S
C453 C452 1.377 . S
C453 C454 1.395 . S
C453 H476 0.931 . S
C454 C453 1.395 . S
C454 C455 1.383 . S
C454 H477 0.931 . S
C455 C454 1.383 . S
C455 C456 1.394 . S
C456 C455 1.394 . S
C456 C457 1.378 . S
C456 H478 0.931 . S
C457 C452 1.377 . S
C457 C456 1.378 . S
C457 H479 0.931 . S
C458 O468 1.259 . S
C458 O469 1.270 . S
C459 O470 1.251 . S
C459 O471 1.251 . S
O460 C440 1.257 . S
O460 Eu441 2.473 . S
O461 C440 1.260 . S
O461 Eu441 2.480 . S
O462 Eu441 2.430 . S
O462 C448 1.259 . S
O463 Eu441 2.670 . S
O463 C448 1.270 . S
O463 Eu451 2.355 . S
O464 Eu441 2.394 . S
O464 C449 1.251 . S
O465 C449 1.251 . S
O465 Eu451 2.374 . S
O466 C450 1.257 . S
O466 Eu451 2.473 . S
O467 C450 1.260 . S
O467 Eu451 2.480 . S
O468 Eu451 2.430 . S
O468 C458 1.259 . S
O469 Eu441 2.355 . S
O469 Eu451 2.670 . S
O469 C458 1.270 . S
O470 Eu451 2.394 . S
O470 C459 1.251 . S
O471 Eu441 2.374 . S
O471 C459 1.251 . S
H472 C443 0.931 . S
H473 C444 0.931 . S
H474 C446 0.931 . S
H475 C447 0.931 . S
H476 C453 0.931 . S
H477 C454 0.931 . S
H478 C456 0.931 . S
H479 C457 0.931 . S
H480 C498 0.951 . S
H481 C500 0.951 . S
H482 C502 0.950 . S
H483 C503 0.950 . S
H484 C505 0.950 1_565 S
H485 C508 0.950 . S
H486 C509 0.950 . S
H487 C511 0.950 . S
H488 C512 0.950 . S
H489 C513 0.951 . S
H490 C515 0.951 . S
H491 C517 0.950 . S
H492 C518 0.950 . S
H493 C520 0.950 . S
H494 C523 0.950 . S
H495 C524 0.950 . S
H496 C526 0.950 . S
H497 C527 0.950 . S
C498 H480 0.951 . S
C498 C499 1.366 . S
C498 C500 1.388 . S
C499 C498 1.366 . S
C499 C503 1.385 . S
C500 H481 0.951 . S
C500 C498 1.388 . S
C500 C501 1.366 . S
C501 C500 1.366 . S
C501 C502 1.414 . S
C501 C504 1.499 . S
C502 H482 0.950 . S
C502 C501 1.414 . S
C502 C503 1.374 . S
C503 H483 0.950 . S
C503 C499 1.385 . S
C503 C502 1.374 . S
C504 C501 1.499 . S
C504 C505 1.373 1_565 S
C504 C506 1.389 . S
C505 H484 0.950 1_545 S
C505 C504 1.373 1_545 S
C505 C521 1.377 . S
C506 C504 1.389 . S
C506 C507 1.524 . S
C506 C520 1.377 1_565 S
C507 C506 1.524 . S
C507 C508 1.397 . S
C507 C512 1.363 . S
C508 H485 0.950 . S
C508 C507 1.397 . S
C508 C509 1.334 . S
C509 H486 0.950 . S
C509 C508 1.334 . S
C509 C510 1.287 . S
C510 C509 1.287 . S
C510 C511 1.524 . S
C510 H529 0.913 . S
C511 H487 0.950 . S
C511 C510 1.524 . S
C511 C512 1.415 . S
C512 H488 0.950 . S
C512 C507 1.363 . S
C512 C511 1.415 . S
C513 H489 0.951 . S
C513 C514 1.366 . S
C513 C515 1.388 . S
C514 C513 1.366 . S
C514 C518 1.385 . S
C515 H490 0.951 . S
C515 C513 1.388 . S
C515 C516 1.366 . S
C516 C515 1.366 . S
C516 C517 1.414 . S
C516 C519 1.499 . S
C517 H491 0.950 . S
C517 C516 1.414 . S
C517 C518 1.374 . S
C518 H492 0.950 . S
C518 C514 1.385 . S
C518 C517 1.374 . S
C519 C516 1.499 . S
C519 C520 1.373 . S
C519 C521 1.389 . S
C520 H493 0.950 . S
C520 C506 1.377 1_545 S
C520 C519 1.373 . S
C521 C505 1.377 . S
C521 C519 1.389 . S
C521 C522 1.524 . S
C522 C521 1.524 . S
C522 C523 1.397 . S
C522 C527 1.363 . S
C523 H494 0.950 . S
C523 C522 1.397 . S
C523 C524 1.334 . S
C524 H495 0.950 . S
C524 C523 1.334 . S
C524 C525 1.287 . S
C525 C524 1.287 . S
C525 C526 1.524 . S
C525 H528 0.999 . S
C526 H496 0.950 . S
C526 C525 1.524 . S
C526 C527 1.415 . S
C527 H497 0.950 . S
C527 C522 1.363 . S
C527 C526 1.415 . S
H528 C525 0.999 . S
H529 C510 0.913 . S
H530 C548 0.951 . S
H531 C550 0.951 . S
H532 C552 0.950 . S
H533 C553 0.950 . S
H534 C555 0.950 . S
H535 C558 0.950 . S
H536 C559 0.950 . S
H537 C561 0.950 . S
H538 C562 0.950 . S
H539 C563 0.951 . S
H540 C565 0.951 . S
H541 C567 0.950 . S
H542 C568 0.950 . S
H543 C570 0.950 . S
H544 C573 0.950 . S
H545 C574 0.950 . S
H546 C576 0.950 . S
H547 C577 0.950 . S
C548 H530 0.951 . S
C548 C549 1.366 . S
C548 C550 1.388 . S
C549 C548 1.366 . S
C549 C553 1.385 . S
C550 H531 0.951 . S
C550 C548 1.388 . S
C550 C551 1.366 . S
C551 C550 1.366 . S
C551 C552 1.414 . S
C551 C554 1.499 . S
C552 H532 0.950 . S
C552 C551 1.414 . S
C552 C553 1.374 . S
C553 H533 0.950 . S
C553 C549 1.385 . S
C553 C552 1.374 . S
C554 C551 1.499 . S
C554 C555 1.373 . S
C554 C556 1.389 . S
C555 H534 0.950 . S
C555 C554 1.373 . S
C555 C571 1.377 . S
C556 C554 1.389 . S
C556 C557 1.524 . S
C556 C570 1.377 . S
C557 C556 1.524 . S
C557 C558 1.397 . S
C557 C562 1.363 . S
C558 H535 0.950 . S
C558 C557 1.397 . S
C558 C559 1.334 . S
C559 H536 0.950 . S
C559 C558 1.334 . S
C559 C560 1.287 . S
C560 C559 1.287 . S
C560 C561 1.524 . S
C560 H579 0.913 . S
C561 H537 0.950 . S
C561 C560 1.524 . S
C561 C562 1.415 . S
C562 H538 0.950 . S
C562 C557 1.363 . S
C562 C561 1.415 . S
C563 H539 0.951 . S
C563 C564 1.366 . S
C563 C565 1.388 . S
C564 C563 1.366 . S
C564 C568 1.385 . S
C565 H540 0.951 . S
C565 C563 1.388 . S
C565 C566 1.366 . S
C566 C565 1.366 . S
C566 C567 1.414 . S
C566 C569 1.499 . S
C567 H541 0.950 . S
C567 C566 1.414 . S
C567 C568 1.374 . S
C568 H542 0.950 . S
C568 C564 1.385 . S
C568 C567 1.374 . S
C569 C566 1.499 . S
C569 C570 1.373 . S
C569 C571 1.389 . S
C570 H543 0.950 . S
C570 C556 1.377 . S
C570 C569 1.373 . S
C571 C555 1.377 . S
C571 C569 1.389 . S
C571 C572 1.524 . S
C572 C571 1.524 . S
C572 C573 1.397 . S
C572 C577 1.363 . S
C573 H544 0.950 . S
C573 C572 1.397 . S
C573 C574 1.334 . S
C574 H545 0.950 . S
C574 C573 1.334 . S
C574 C575 1.287 . S
C575 C574 1.287 . S
C575 C576 1.524 . S
C575 H578 0.999 . S
C576 H546 0.950 . S
C576 C575 1.524 . S
C576 C577 1.415 . S
C577 H547 0.950 . S
C577 C572 1.363 . S
C577 C576 1.415 . S
H578 C575 0.999 . S
H579 C560 0.913 . S
H580 C598 0.951 . S
H581 C600 0.951 . S
H582 C602 0.950 . S
H583 C603 0.950 . S
H584 C605 0.950 . S
H585 C608 0.950 . S
H586 C609 0.950 . S
H587 C611 0.950 1_455 S
H588 C612 0.925 1_455 S
H589 C613 0.951 . S
H590 C615 0.951 . S
H591 C617 0.950 . S
H592 C618 0.950 . S
H593 C620 0.950 . S
H594 C623 0.950 . S
H595 C624 0.950 . S
H596 C626 0.950 . S
H597 C627 0.950 . S
C598 H580 0.951 . S
C598 C599 1.366 . S
C598 C600 1.388 . S
C599 C598 1.366 . S
C599 C603 1.385 . S
C600 H581 0.951 . S
C600 C598 1.388 . S
C600 C601 1.366 . S
C601 C600 1.366 . S
C601 C602 1.414 . S
C601 C604 1.499 . S
C602 H582 0.950 . S
C602 C601 1.414 . S
C602 C603 1.374 . S
C603 H583 0.950 . S
C603 C599 1.385 . S
C603 C602 1.374 . S
C604 C601 1.499 . S
C604 C605 1.373 . S
C604 C606 1.389 . S
C605 H584 0.950 . S
C605 C604 1.373 . S
C605 C621 1.377 . S
C606 C604 1.389 . S
C606 C607 1.524 . S
C606 C620 1.377 1_655 S
C607 C606 1.524 . S
C607 C608 1.397 . S
C607 C612 1.395 . S
C608 H585 0.950 . S
C608 C607 1.397 . S
C608 C609 1.334 . S
C609 H586 0.950 . S
C609 C608 1.334 . S
C609 C610 1.287 . S
C610 C609 1.287 . S
C610 C611 1.524 . S
C610 H629 0.913 . S
C611 H587 0.950 1_655 S
C611 C610 1.524 . S
C611 C612 1.408 . S
C612 H588 0.925 1_655 S
C612 C607 1.395 . S
C612 C611 1.408 . S
C613 H589 0.951 . S
C613 C614 1.366 . S
C613 C615 1.388 . S
C614 C613 1.366 . S
C614 C618 1.385 . S
C615 H590 0.951 . S
C615 C613 1.388 . S
C615 C616 1.366 . S
C616 C615 1.366 . S
C616 C617 1.414 . S
C616 C619 1.499 . S
C617 H591 0.950 . S
C617 C616 1.414 . S
C617 C618 1.374 . S
C618 H592 0.950 . S
C618 C614 1.385 . S
C618 C617 1.374 . S
C619 C616 1.499 . S
C619 C620 1.373 . S
C619 C621 1.389 1_455 S
C620 H593 0.950 . S
C620 C606 1.377 1_455 S
C620 C619 1.373 . S
C621 C605 1.377 . S
C621 C619 1.389 1_655 S
C621 C622 1.524 1_655 S
C622 C621 1.524 1_455 S
C622 C623 1.397 . S
C622 C627 1.363 1_455 S
C623 H594 0.950 . S
C623 C622 1.397 . S
C623 C624 1.334 . S
C624 H595 0.950 . S
C624 C623 1.334 . S
C624 C625 1.287 . S
C625 C624 1.287 . S
C625 C626 1.524 1_455 S
C625 H628 0.999 . S
C626 H596 0.950 . S
C626 C625 1.524 1_655 S
C626 C627 1.415 . S
C627 H597 0.950 . S
C627 C622 1.363 1_655 S
C627 C626 1.415 . S
H628 C625 0.999 . S
H629 C610 0.913 . S
H630 C648 0.951 . S
H631 C650 0.951 . S
H632 C652 0.950 . S
H633 C653 0.950 . S
H634 C655 0.950 . S
H635 C658 0.950 . S
H636 C659 0.950 . S
H637 C661 0.950 . S
H638 C662 0.950 . S
H639 C663 0.951 . S
H640 C665 0.951 . S
H641 C667 0.950 . S
H642 C668 0.950 . S
H643 C670 0.950 . S
H644 C673 0.950 . S
H645 C674 0.950 . S
H646 C676 0.950 . S
H647 C677 0.950 . S
C648 H630 0.951 . S
C648 C649 1.366 . S
C648 C650 1.388 . S
C649 C648 1.366 . S
C649 C653 1.385 . S
C650 H631 0.951 . S
C650 C648 1.388 . S
C650 C651 1.366 . S
C651 C650 1.366 . S
C651 C652 1.414 . S
C651 C654 1.499 . S
C652 H632 0.950 . S
C652 C651 1.414 . S
C652 C653 1.374 . S
C653 H633 0.950 . S
C653 C649 1.385 . S
C653 C652 1.374 . S
C654 C651 1.499 . S
C654 C655 1.373 . S
C654 C656 1.389 . S
C655 H634 0.950 . S
C655 C654 1.373 . S
C655 C671 1.377 1_565 S
C656 C654 1.389 . S
C656 C657 1.524 . S
C656 C670 1.377 1_565 S
C657 C656 1.524 . S
C657 C658 1.397 . S
C657 C662 1.363 . S
C658 H635 0.950 . S
C658 C657 1.397 . S
C658 C659 1.334 . S
C659 H636 0.950 . S
C659 C658 1.334 . S
C659 C660 1.287 . S
C660 C659 1.287 . S
C660 C661 1.524 . S
C660 H679 0.913 . S
C661 H637 0.950 . S
C661 C660 1.524 . S
C661 C662 1.415 . S
C662 H638 0.950 . S
C662 C657 1.363 . S
C662 C661 1.415 . S
C663 H639 0.951 . S
C663 C664 1.366 . S
C663 C665 1.388 . S
C664 C663 1.366 . S
C664 C668 1.385 . S
C665 H640 0.951 . S
C665 C663 1.388 . S
C665 C666 1.366 . S
C666 C665 1.366 . S
C666 C667 1.414 . S
C666 C669 1.499 . S
C667 H641 0.950 . S
C667 C666 1.414 . S
C667 C668 1.374 . S
C668 H642 0.950 . S
C668 C664 1.385 . S
C668 C667 1.374 . S
C669 C666 1.499 . S
C669 C670 1.373 . S
C669 C671 1.389 . S
C670 H643 0.950 . S
C670 C656 1.377 1_545 S
C670 C669 1.373 . S
C671 C655 1.377 1_545 S
C671 C669 1.389 . S
C671 C672 1.524 . S
C672 C671 1.524 . S
C672 C673 1.397 . S
C672 C677 1.363 . S
C673 H644 0.950 . S
C673 C672 1.397 . S
C673 C674 1.334 . S
C674 H645 0.950 . S
C674 C673 1.334 . S
C674 C675 1.287 . S
C675 C674 1.287 . S
C675 C676 1.524 . S
C675 H678 0.999 . S
C676 H646 0.950 . S
C676 C675 1.524 . S
C676 C677 1.415 . S
C677 H647 0.950 . S
C677 C672 1.363 . S
C677 C676 1.415 . S
H678 C675 0.999 . S
H679 C660 0.913 . S
H680 C698 0.951 . S
H681 C700 0.951 . S
H682 C702 0.950 . S
H683 C703 0.950 . S
H684 C705 0.950 . S
H685 C708 0.950 . S
H686 C709 0.950 . S
H687 C711 0.950 . S
H688 C712 0.950 . S
H689 C713 0.951 . S
H690 C715 0.951 . S
H691 C717 0.950 . S
H692 C718 0.950 . S
H693 C720 0.950 . S
H694 C723 0.950 . S
H695 C724 0.950 . S
H696 C726 0.950 . S
H697 C727 0.950 . S
C698 H680 0.951 . S
C698 C699 1.366 . S
C698 C700 1.388 . S
C699 C698 1.366 . S
C699 C703 1.385 . S
C700 H681 0.951 . S
C700 C698 1.388 . S
C700 C701 1.366 . S
C701 C700 1.366 . S
C701 C702 1.414 . S
C701 C704 1.499 . S
C702 H682 0.950 . S
C702 C701 1.414 . S
C702 C703 1.374 . S
C703 H683 0.950 . S
C703 C699 1.385 . S
C703 C702 1.374 . S
C704 C701 1.499 . S
C704 C705 1.373 . S
C704 C706 1.389 . S
C705 H684 0.950 . S
C705 C704 1.373 . S
C705 C721 1.377 . S
C706 C704 1.389 . S
C706 C707 1.524 . S
C706 C720 1.377 . S
C707 C706 1.524 . S
C707 C708 1.397 . S
C707 C712 1.363 . S
C708 H685 0.950 . S
C708 C707 1.397 . S
C708 C709 1.334 . S
C709 H686 0.950 . S
C709 C708 1.334 . S
C709 C710 1.287 . S
C710 C709 1.287 . S
C710 C711 1.524 . S
C710 H729 0.913 . S
C711 H687 0.950 . S
C711 C710 1.524 . S
C711 C712 1.415 . S
C712 H688 0.950 . S
C712 C707 1.363 . S
C712 C711 1.415 . S
C713 H689 0.951 . S
C713 C714 1.366 . S
C713 C715 1.388 . S
C714 C713 1.366 . S
C714 C718 1.385 . S
C715 H690 0.951 . S
C715 C713 1.388 . S
C715 C716 1.366 . S
C716 C715 1.366 . S
C716 C717 1.414 . S
C716 C719 1.499 . S
C717 H691 0.950 . S
C717 C716 1.414 . S
C717 C718 1.374 . S
C718 H692 0.950 . S
C718 C714 1.385 . S
C718 C717 1.374 . S
C719 C716 1.499 . S
C719 C720 1.373 . S
C719 C721 1.389 . S
C720 H693 0.950 . S
C720 C706 1.377 . S
C720 C719 1.373 . S
C721 C705 1.377 . S
C721 C719 1.389 . S
C721 C722 1.524 . S
C722 C721 1.524 . S
C722 C723 1.397 . S
C722 C727 1.363 . S
C723 H694 0.950 . S
C723 C722 1.397 . S
C723 C724 1.334 . S
C724 H695 0.950 . S
C724 C723 1.334 . S
C724 C725 1.287 . S
C725 C724 1.287 . S
C725 C726 1.524 . S
C725 H728 0.999 . S
C726 H696 0.950 . S
C726 C725 1.524 . S
C726 C727 1.415 . S
C727 H697 0.950 . S
C727 C722 1.363 . S
C727 C726 1.415 . S
H728 C725 0.999 . S
H729 C710 0.913 . S
H730 C748 0.951 . S
H731 C750 0.951 . S
H732 C752 0.950 . S
H733 C753 0.950 . S
H734 C755 0.950 . S
H735 C758 0.950 . S
H736 C759 0.950 . S
H737 C761 0.950 . S
H738 C762 0.950 . S
H739 C763 0.951 . S
H740 C765 0.951 . S
H741 C767 0.950 . S
H742 C768 0.950 . S
H743 C770 0.950 . S
H744 C773 0.950 . S
H745 C774 0.950 . S
H746 C776 0.950 . S
H747 C777 0.950 . S
C748 H730 0.951 . S
C748 C749 1.366 . S
C748 C750 1.388 . S
C749 C748 1.366 . S
C749 C753 1.385 . S
C750 H731 0.951 . S
C750 C748 1.388 . S
C750 C751 1.366 . S
C751 C750 1.366 . S
C751 C752 1.414 . S
C751 C754 1.499 . S
C752 H732 0.950 . S
C752 C751 1.414 . S
C752 C753 1.374 . S
C753 H733 0.950 . S
C753 C749 1.385 . S
C753 C752 1.374 . S
C754 C751 1.499 . S
C754 C755 1.373 . S
C754 C756 1.389 . S
C755 H734 0.950 . S
C755 C754 1.373 . S
C755 C771 1.377 1_655 S
C756 C754 1.389 . S
C756 C757 1.524 . S
C756 C770 1.377 1_655 S
C757 C756 1.524 . S
C757 C758 1.397 . S
C757 C762 1.363 . S
C758 H735 0.950 . S
C758 C757 1.397 . S
C758 C759 1.334 . S
C759 H736 0.950 . S
C759 C758 1.334 . S
C759 C760 1.287 . S
C760 C759 1.287 . S
C760 C761 1.524 . S
C760 H779 0.913 . S
C761 H737 0.950 . S
C761 C760 1.524 . S
C761 C762 1.415 . S
C762 H738 0.950 . S
C762 C757 1.363 . S
C762 C761 1.415 . S
C763 H739 0.951 . S
C763 C764 1.366 . S
C763 C765 1.388 . S
C764 C763 1.366 . S
C764 C768 1.385 . S
C765 H740 0.951 . S
C765 C763 1.388 . S
C765 C766 1.366 . S
C766 C765 1.366 . S
C766 C767 1.414 . S
C766 C769 1.499 . S
C767 H741 0.950 . S
C767 C766 1.414 . S
C767 C768 1.374 . S
C768 H742 0.950 . S
C768 C764 1.385 . S
C768 C767 1.374 . S
C769 C766 1.499 . S
C769 C770 1.373 . S
C769 C771 1.389 . S
C770 H743 0.950 . S
C770 C756 1.377 1_455 S
C770 C769 1.373 . S
C771 C755 1.377 1_455 S
C771 C769 1.389 . S
C771 C772 1.524 . S
C772 C771 1.524 . S
C772 C773 1.397 . S
C772 C777 1.363 . S
C773 H744 0.950 . S
C773 C772 1.397 . S
C773 C774 1.334 . S
C774 H745 0.950 . S
C774 C773 1.334 . S
C774 C775 1.287 . S
C775 C774 1.287 . S
C775 C776 1.524 . S
C775 H778 0.999 . S
C776 H746 0.950 . S
C776 C775 1.524 . S
C776 C777 1.415 . S
C777 H747 0.950 . S
C777 C772 1.363 . S
C777 C776 1.415 . S
H778 C775 0.999 . S
H779 C760 0.913 . S
H780 C798 0.951 . S
H781 C800 0.951 . S
H782 C802 0.950 . S
H783 C803 0.950 . S
H784 C805 0.950 . S
H785 C808 0.950 . S
H786 C809 0.950 . S
H787 C811 0.950 . S
H788 C812 0.950 . S
H789 C813 0.951 . S
H790 C815 0.951 . S
H791 C817 0.950 . S
H792 C818 0.950 . S
H793 C820 0.950 . S
H794 C823 0.950 . S
H795 C824 0.950 . S
H796 C826 0.950 . S
H797 C827 0.950 . S
C798 H780 0.951 . S
C798 C799 1.366 . S
C798 C800 1.388 . S
C799 C798 1.366 . S
C799 C803 1.385 . S
C800 H781 0.951 . S
C800 C798 1.388 . S
C800 C801 1.366 . S
C801 C800 1.366 . S
C801 C802 1.414 . S
C801 C804 1.499 . S
C802 H782 0.950 . S
C802 C801 1.414 . S
C802 C803 1.374 . S
C803 H783 0.950 . S
C803 C799 1.385 . S
C803 C802 1.374 . S
C804 C801 1.499 . S
C804 C805 1.373 . S
C804 C806 1.389 . S
C805 H784 0.950 . S
C805 C804 1.373 . S
C805 C821 1.377 1_455 S
C806 C804 1.389 . S
C806 C807 1.524 . S
C806 C820 1.377 1_455 S
C807 C806 1.524 . S
C807 C808 1.397 . S
C807 C812 1.363 . S
C808 H785 0.950 . S
C808 C807 1.397 . S
C808 C809 1.334 . S
C809 H786 0.950 . S
C809 C808 1.334 . S
C809 C810 1.287 . S
C810 C809 1.287 . S
C810 C811 1.524 . S
C810 H829 0.913 . S
C811 H787 0.950 . S
C811 C810 1.524 . S
C811 C812 1.415 . S
C812 H788 0.950 . S
C812 C807 1.363 . S
C812 C811 1.415 . S
C813 H789 0.951 . S
C813 C814 1.366 . S
C813 C815 1.388 . S
C814 C813 1.366 . S
C814 C818 1.385 . S
C815 H790 0.951 . S
C815 C813 1.388 . S
C815 C816 1.366 . S
C816 C815 1.366 . S
C816 C817 1.414 . S
C816 C819 1.499 . S
C817 H791 0.950 . S
C817 C816 1.414 . S
C817 C818 1.374 . S
C818 H792 0.950 . S
C818 C814 1.385 . S
C818 C817 1.374 . S
C819 C816 1.499 . S
C819 C820 1.373 . S
C819 C821 1.389 . S
C820 H793 0.950 . S
C820 C806 1.377 1_655 S
C820 C819 1.373 . S
C821 C805 1.377 1_655 S
C821 C819 1.389 . S
C821 C822 1.524 . S
C822 C821 1.524 . S
C822 C823 1.397 . S
C822 C827 1.363 . S
C823 H794 0.950 . S
C823 C822 1.397 . S
C823 C824 1.334 . S
C824 H795 0.950 . S
C824 C823 1.334 . S
C824 C825 1.287 . S
C825 C824 1.287 . S
C825 C826 1.524 . S
C825 H828 0.999 . S
C826 H796 0.950 . S
C826 C825 1.524 . S
C826 C827 1.415 . S
C827 H797 0.950 . S
C827 C822 1.363 . S
C827 C826 1.415 . S
H828 C825 0.999 . S
H829 C810 0.913 . S
H830 C848 0.951 . S
H831 C850 0.951 . S
H832 C852 0.950 . S
H833 C853 0.950 . S
H834 C855 0.950 . S
H835 C858 0.950 . S
H836 C859 0.950 . S
H837 C861 0.950 . S
H838 C862 0.950 . S
H839 C863 0.951 . S
H840 C865 0.951 . S
H841 C867 0.950 . S
H842 C868 0.950 . S
H843 C870 0.950 . S
H844 C873 0.950 . S
H845 C874 0.950 . S
H846 C876 0.950 . S
H847 C877 0.950 . S
C848 H830 0.951 . S
C848 C849 1.366 . S
C848 C850 1.388 . S
C849 C848 1.366 . S
C849 C853 1.385 . S
C850 H831 0.951 . S
C850 C848 1.388 . S
C850 C851 1.366 . S
C851 C850 1.366 . S
C851 C852 1.414 . S
C851 C854 1.499 . S
C852 H832 0.950 . S
C852 C851 1.414 . S
C852 C853 1.374 . S
C853 H833 0.950 . S
C853 C849 1.385 . S
C853 C852 1.374 . S
C854 C851 1.499 . S
C854 C855 1.373 . S
C854 C856 1.389 . S
C855 H834 0.950 . S
C855 C854 1.373 . S
C855 C871 1.377 1_565 S
C856 C854 1.389 . S
C856 C857 1.524 . S
C856 C870 1.377 1_565 S
C857 C856 1.524 . S
C857 C858 1.397 . S
C857 C862 1.363 . S
C858 H835 0.950 . S
C858 C857 1.397 . S
C858 C859 1.334 . S
C859 H836 0.950 . S
C859 C858 1.334 . S
C859 C860 1.287 . S
C860 C859 1.287 . S
C860 C861 1.524 . S
C860 H879 0.913 . S
C861 H837 0.950 . S
C861 C860 1.524 . S
C861 C862 1.415 . S
C862 H838 0.950 . S
C862 C857 1.363 . S
C862 C861 1.415 . S
C863 H839 0.951 . S
C863 C864 1.366 . S
C863 C865 1.388 . S
C864 C863 1.366 . S
C864 C868 1.385 . S
C865 H840 0.951 . S
C865 C863 1.388 . S
C865 C866 1.366 . S
C866 C865 1.366 . S
C866 C867 1.414 . S
C866 C869 1.499 . S
C867 H841 0.950 . S
C867 C866 1.414 . S
C867 C868 1.374 . S
C868 H842 0.950 . S
C868 C864 1.385 . S
C868 C867 1.374 . S
C869 C866 1.499 . S
C869 C870 1.373 . S
C869 C871 1.389 . S
C870 H843 0.950 . S
C870 C856 1.377 1_545 S
C870 C869 1.373 . S
C871 C855 1.377 1_545 S
C871 C869 1.389 . S
C871 C872 1.524 . S
C872 C871 1.524 . S
C872 C873 1.397 . S
C872 C877 1.363 . S
C873 H844 0.950 . S
C873 C872 1.397 . S
C873 C874 1.334 . S
C874 H845 0.950 . S
C874 C873 1.334 . S
C874 C875 1.287 . S
C875 C874 1.287 . S
C875 C876 1.524 . S
C875 H878 0.999 . S
C876 H846 0.950 . S
C876 C875 1.524 . S
C876 C877 1.415 . S
C877 H847 0.950 . S
C877 C872 1.363 . S
C877 C876 1.415 . S
H878 C875 0.999 . S
H879 C860 0.913 . S
H880 C898 0.951 . S
H881 C900 0.951 . S
H882 C902 0.950 . S
H883 C903 0.950 . S
H884 C905 0.950 . S
H885 C908 0.950 . S
H886 C909 0.950 . S
H887 C911 0.950 . S
H888 C912 0.950 . S
H889 C913 0.951 . S
H890 C915 0.951 . S
H891 C917 0.950 . S
H892 C918 0.950 . S
H893 C920 0.950 . S
H894 C923 0.950 . S
H895 C924 0.950 . S
H896 C926 0.950 . S
H897 C927 0.950 . S
C898 H880 0.951 . S
C898 C899 1.366 . S
C898 C900 1.388 . S
C899 C898 1.366 . S
C899 C903 1.385 . S
C900 H881 0.951 . S
C900 C898 1.388 . S
C900 C901 1.366 . S
C901 C900 1.366 . S
C901 C902 1.414 . S
C901 C904 1.499 . S
C902 H882 0.950 . S
C902 C901 1.414 . S
C902 C903 1.374 . S
C903 H883 0.950 . S
C903 C899 1.385 . S
C903 C902 1.374 . S
C904 C901 1.499 . S
C904 C905 1.373 . S
C904 C906 1.389 . S
C905 H884 0.950 . S
C905 C904 1.373 . S
C905 C921 1.377 . S
C906 C904 1.389 . S
C906 C907 1.524 . S
C906 C920 1.377 . S
C907 C906 1.524 . S
C907 C908 1.397 . S
C907 C912 1.363 . S
C908 H885 0.950 . S
C908 C907 1.397 . S
C908 C909 1.334 . S
C909 H886 0.950 . S
C909 C908 1.334 . S
C909 C910 1.287 . S
C910 C909 1.287 . S
C910 C911 1.524 . S
C910 H929 0.913 . S
C911 H887 0.950 . S
C911 C910 1.524 . S
C911 C912 1.415 . S
C912 H888 0.950 . S
C912 C907 1.363 . S
C912 C911 1.415 . S
C913 H889 0.951 . S
C913 C914 1.366 . S
C913 C915 1.388 . S
C914 C913 1.366 . S
C914 C918 1.385 . S
C915 H890 0.951 . S
C915 C913 1.388 . S
C915 C916 1.366 . S
C916 C915 1.366 . S
C916 C917 1.414 . S
C916 C919 1.499 . S
C917 H891 0.950 . S
C917 C916 1.414 . S
C917 C918 1.374 . S
C918 H892 0.950 . S
C918 C914 1.385 . S
C918 C917 1.374 . S
C919 C916 1.499 . S
C919 C920 1.373 . S
C919 C921 1.389 . S
C920 H893 0.950 . S
C920 C906 1.377 . S
C920 C919 1.373 . S
C921 C905 1.377 . S
C921 C919 1.389 . S
C921 C922 1.524 . S
C922 C921 1.524 . S
C922 C923 1.397 . S
C922 C927 1.363 . S
C923 H894 0.950 . S
C923 C922 1.397 . S
C923 C924 1.334 . S
C924 H895 0.950 . S
C924 C923 1.334 . S
C924 C925 1.287 . S
C925 C924 1.287 . S
C925 C926 1.524 . S
C925 H928 0.999 . S
C926 H896 0.950 . S
C926 C925 1.524 . S
C926 C927 1.415 . S
C927 H897 0.950 . S
C927 C922 1.363 . S
C927 C926 1.415 . S
H928 C925 0.999 . S
H929 C910 0.913 . S
H930 C948 0.951 . S
H931 C950 0.951 . S
H932 C952 0.950 . S
H933 C953 0.950 . S
H934 C955 0.950 . S
H935 C958 0.950 . S
H936 C959 0.950 . S
H937 C961 0.950 . S
H938 C962 0.950 . S
H939 C963 0.951 . S
H940 C965 0.951 . S
H941 C967 0.950 . S
H942 C968 0.950 . S
H943 C970 0.950 1_655 S
H944 C973 0.950 . S
H945 C974 0.950 . S
H946 C976 0.950 . S
H947 C977 0.950 . S
C948 H930 0.951 . S
C948 C949 1.366 . S
C948 C950 1.388 . S
C949 C948 1.366 . S
C949 C953 1.385 . S
C950 H931 0.951 . S
C950 C948 1.388 . S
C950 C951 1.366 . S
C951 C950 1.366 . S
C951 C952 1.414 . S
C951 C954 1.499 . S
C952 H932 0.950 . S
C952 C951 1.414 . S
C952 C953 1.374 . S
C953 H933 0.950 . S
C953 C949 1.385 . S
C953 C952 1.374 . S
C954 C951 1.499 . S
C954 C955 1.373 . S
C954 C956 1.389 . S
C955 H934 0.950 . S
C955 C954 1.373 . S
C955 C971 1.377 1_455 S
C956 C954 1.389 . S
C956 C957 1.524 . S
C956 C970 1.377 . S
C957 C956 1.524 . S
C957 C958 1.397 . S
C957 C962 1.363 . S
C958 H935 0.950 . S
C958 C957 1.397 . S
C958 C959 1.334 . S
C959 H936 0.950 . S
C959 C958 1.334 . S
C959 C960 1.287 . S
C960 C959 1.287 . S
C960 C961 1.524 . S
C960 H979 0.913 . S
C961 H937 0.950 . S
C961 C960 1.524 . S
C961 C962 1.415 . S
C962 H938 0.950 . S
C962 C957 1.363 . S
C962 C961 1.415 . S
C963 H939 0.951 . S
C963 C964 1.366 . S
C963 C965 1.388 . S
C964 C963 1.366 . S
C964 C968 1.385 . S
C965 H940 0.951 . S
C965 C963 1.388 . S
C965 C966 1.366 . S
C966 C965 1.366 . S
C966 C967 1.414 . S
C966 C969 1.499 . S
C967 H941 0.950 . S
C967 C966 1.414 . S
C967 C968 1.374 . S
C968 H942 0.950 . S
C968 C964 1.385 . S
C968 C967 1.374 . S
C969 C966 1.499 . S
C969 C970 1.373 1_655 S
C969 C971 1.389 . S
C970 H943 0.950 1_455 S
C970 C956 1.377 . S
C970 C969 1.373 1_455 S
C971 C955 1.377 1_655 S
C971 C969 1.389 . S
C971 C972 1.524 . S
C972 C971 1.524 . S
C972 C973 1.397 . S
C972 C977 1.363 . S
C973 H944 0.950 . S
C973 C972 1.397 . S
C973 C974 1.334 . S
C974 H945 0.950 . S
C974 C973 1.334 . S
C974 C975 1.287 . S
C975 C974 1.287 . S
C975 C976 1.524 . S
C975 H978 0.999 . S
C976 H946 0.950 . S
C976 C975 1.524 . S
C976 C977 1.415 . S
C977 H947 0.950 . S
C977 C972 1.363 . S
C977 C976 1.415 . S
H978 C975 0.999 . S
H979 C960 0.913 . S
H980 C998 0.951 . S
H981 C1000 0.951 . S
H982 C1002 0.950 . S
H983 C1003 0.950 . S
H984 C1005 0.950 . S
H985 C1008 0.950 . S
H986 C1009 0.950 . S
H987 C1011 0.950 . S
H988 C1012 0.951 1_565 S
H989 C1013 0.951 . S
H990 C1015 0.951 . S
H991 C1017 0.950 . S
H992 C1018 0.950 . S
H993 C1020 0.950 . S
H994 C1023 0.950 . S
H995 C1024 0.950 . S
H996 C1026 0.950 . S
H997 C1027 0.950 . S
C998 H980 0.951 . S
C998 C999 1.366 . S
C998 C1000 1.388 . S
C999 C998 1.366 . S
C999 C1003 1.385 . S
C1000 H981 0.951 . S
C1000 C998 1.388 . S
C1000 C1001 1.366 . S
C1001 C1000 1.366 . S
C1001 C1002 1.414 . S
C1001 C1004 1.499 . S
C1002 H982 0.950 . S
C1002 C1001 1.414 . S
C1002 C1003 1.374 . S
C1003 H983 0.950 . S
C1003 C999 1.385 . S
C1003 C1002 1.374 . S
C1004 C1001 1.499 . S
C1004 C1005 1.373 . S
C1004 C1006 1.389 . S
C1005 H984 0.950 . S
C1005 C1004 1.373 . S
C1005 C1021 1.377 . S
C1006 C1004 1.389 . S
C1006 C1007 1.524 . S
C1006 C1020 1.377 1_545 S
C1007 C1006 1.524 . S
C1007 C1008 1.397 . S
C1007 C1012 1.363 . S
C1008 H985 0.950 . S
C1008 C1007 1.397 . S
C1008 C1009 1.334 . S
C1009 H986 0.950 . S
C1009 C1008 1.334 . S
C1009 C1010 1.287 . S
C1010 C1009 1.287 . S
C1010 C1011 1.524 . S
C1010 H1029 0.913 . S
C1011 H987 0.950 . S
C1011 C1010 1.524 . S
C1011 C1012 1.415 . S
C1012 H988 0.951 1_545 S
C1012 C1007 1.363 . S
C1012 C1011 1.415 . S
C1013 H989 0.951 . S
C1013 C1014 1.366 . S
C1013 C1015 1.388 . S
C1014 C1013 1.366 . S
C1014 C1018 1.385 . S
C1015 H990 0.951 . S
C1015 C1013 1.388 . S
C1015 C1016 1.366 . S
C1016 C1015 1.366 . S
C1016 C1017 1.414 . S
C1016 C1019 1.499 . S
C1017 H991 0.950 . S
C1017 C1016 1.414 . S
C1017 C1018 1.374 . S
C1018 H992 0.950 . S
C1018 C1014 1.385 . S
C1018 C1017 1.374 . S
C1019 C1016 1.499 . S
C1019 C1020 1.373 . S
C1019 C1021 1.389 1_565 S
C1020 H993 0.950 . S
C1020 C1006 1.377 1_565 S
C1020 C1019 1.373 . S
C1021 C1005 1.377 . S
C1021 C1019 1.389 1_545 S
C1021 C1022 1.524 1_545 S
C1022 C1021 1.524 1_565 S
C1022 C1023 1.397 . S
C1022 C1027 1.363 1_565 S
C1023 H994 0.950 . S
C1023 C1022 1.397 . S
C1023 C1024 1.334 . S
C1024 H995 0.950 . S
C1024 C1023 1.334 . S
C1024 C1025 1.287 . S
C1025 C1024 1.287 . S
C1025 C1026 1.524 1_565 S
C1025 H1028 0.999 . S
C1026 H996 0.950 . S
C1026 C1025 1.524 1_545 S
C1026 C1027 1.415 . S
C1027 H997 0.950 . S
C1027 C1022 1.363 1_545 S
C1027 C1026 1.415 . S
H1028 C1025 0.999 . S
H1029 C1010 0.913 . S
H1030 C1048 0.951 . S
H1031 C1050 0.951 . S
H1032 C1052 0.950 . S
H1033 C1053 0.950 . S
H1034 C1055 0.950 . S
H1035 C1058 0.950 . S
H1036 C1059 0.950 . S
H1037 C1061 0.950 . S
H1038 C1062 0.950 . S
H1039 C1063 0.951 . S
H1040 C1065 0.951 . S
H1041 C1067 0.950 . S
H1042 C1068 0.950 . S
H1043 C1070 0.950 . S
H1044 C1073 0.950 . S
H1045 C1074 0.950 . S
H1046 C1076 0.950 . S
H1047 C1077 0.950 . S
C1048 H1030 0.951 . S
C1048 C1049 1.366 . S
C1048 C1050 1.388 . S
C1049 C1048 1.366 . S
C1049 C1053 1.385 . S
C1050 H1031 0.951 . S
C1050 C1048 1.388 . S
C1050 C1051 1.366 . S
C1051 C1050 1.366 . S
C1051 C1052 1.414 . S
C1051 C1054 1.499 . S
C1052 H1032 0.950 . S
C1052 C1051 1.414 . S
C1052 C1053 1.374 . S
C1053 H1033 0.950 . S
C1053 C1049 1.385 . S
C1053 C1052 1.374 . S
C1054 C1051 1.499 . S
C1054 C1055 1.373 . S
C1054 C1056 1.389 . S
C1055 H1034 0.950 . S
C1055 C1054 1.373 . S
C1055 C1071 1.377 . S
C1056 C1054 1.389 . S
C1056 C1057 1.524 . S
C1056 C1070 1.377 . S
C1057 C1056 1.524 . S
C1057 C1058 1.397 . S
C1057 C1062 1.363 . S
C1058 H1035 0.950 . S
C1058 C1057 1.397 . S
C1058 C1059 1.334 . S
C1059 H1036 0.950 . S
C1059 C1058 1.334 . S
C1059 C1060 1.287 . S
C1060 C1059 1.287 . S
C1060 C1061 1.524 . S
C1060 H1079 0.913 . S
C1061 H1037 0.950 . S
C1061 C1060 1.524 . S
C1061 C1062 1.415 . S
C1062 H1038 0.950 . S
C1062 C1057 1.363 . S
C1062 C1061 1.415 . S
C1063 H1039 0.951 . S
C1063 C1064 1.366 . S
C1063 C1065 1.388 . S
C1064 C1063 1.366 . S
C1064 C1068 1.385 . S
C1065 H1040 0.951 . S
C1065 C1063 1.388 . S
C1065 C1066 1.366 . S
C1066 C1065 1.366 . S
C1066 C1067 1.414 . S
C1066 C1069 1.499 . S
C1067 H1041 0.950 . S
C1067 C1066 1.414 . S
C1067 C1068 1.374 . S
C1068 H1042 0.950 . S
C1068 C1064 1.385 . S
C1068 C1067 1.374 . S
C1069 C1066 1.499 . S
C1069 C1070 1.373 . S
C1069 C1071 1.389 . S
C1070 H1043 0.950 . S
C1070 C1056 1.377 . S
C1070 C1069 1.373 . S
C1071 C1055 1.377 . S
C1071 C1069 1.389 . S
C1071 C1072 1.524 . S
C1072 C1071 1.524 . S
C1072 C1073 1.397 . S
C1072 C1077 1.363 . S
C1073 H1044 0.950 . S
C1073 C1072 1.397 . S
C1073 C1074 1.334 . S
C1074 H1045 0.950 . S
C1074 C1073 1.334 . S
C1074 C1075 1.287 . S
C1075 C1074 1.287 . S
C1075 C1076 1.524 . S
C1075 H1078 0.999 . S
C1076 H1046 0.950 . S
C1076 C1075 1.524 . S
C1076 C1077 1.415 . S
C1077 H1047 0.950 . S
C1077 C1072 1.363 . S
C1077 C1076 1.415 . S
H1078 C1075 0.999 . S
H1079 C1060 0.913 . S
H1080 C1098 0.951 . S
H1081 C1100 0.951 . S
H1082 C1102 0.950 . S
H1083 C1103 0.950 . S
H1084 C1105 0.950 . S
H1085 C1108 0.950 . S
H1086 C1109 0.950 . S
H1087 C1111 0.950 . S
H1088 C1112 0.950 . S
H1089 C1113 0.951 . S
H1090 C1115 0.951 . S
H1091 C1117 0.950 . S
H1092 C1118 0.950 . S
H1093 C1120 0.950 . S
H1094 C1123 0.950 . S
H1095 C1124 0.950 . S
H1096 C1126 0.950 . S
H1097 C1127 0.950 . S
C1098 H1080 0.951 . S
C1098 C1099 1.366 . S
C1098 C1100 1.388 . S
C1099 C1098 1.366 . S
C1099 C1103 1.385 . S
C1100 H1081 0.951 . S
C1100 C1098 1.388 . S
C1100 C1101 1.366 . S
C1101 C1100 1.366 . S
C1101 C1102 1.414 . S
C1101 C1104 1.499 . S
C1102 H1082 0.950 . S
C1102 C1101 1.414 . S
C1102 C1103 1.374 . S
C1103 H1083 0.950 . S
C1103 C1099 1.385 . S
C1103 C1102 1.374 . S
C1104 C1101 1.499 . S
C1104 C1105 1.373 . S
C1104 C1106 1.389 . S
C1105 H1084 0.950 . S
C1105 C1104 1.373 . S
C1105 C1121 1.377 . S
C1106 C1104 1.389 . S
C1106 C1107 1.524 . S
C1106 C1120 1.377 . S
C1107 C1106 1.524 . S
C1107 C1108 1.397 . S
C1107 C1112 1.363 . S
C1108 H1085 0.950 . S
C1108 C1107 1.397 . S
C1108 C1109 1.334 . S
C1109 H1086 0.950 . S
C1109 C1108 1.334 . S
C1109 C1110 1.287 . S
C1110 C1109 1.287 . S
C1110 C1111 1.524 . S
C1110 H1129 0.913 . S
C1111 H1087 0.950 . S
C1111 C1110 1.524 . S
C1111 C1112 1.415 . S
C1112 H1088 0.950 . S
C1112 C1107 1.363 . S
C1112 C1111 1.415 . S
C1113 H1089 0.951 . S
C1113 C1114 1.366 . S
C1113 C1115 1.388 . S
C1114 C1113 1.366 . S
C1114 C1118 1.385 . S
C1115 H1090 0.951 . S
C1115 C1113 1.388 . S
C1115 C1116 1.366 . S
C1116 C1115 1.366 . S
C1116 C1117 1.414 . S
C1116 C1119 1.499 . S
C1117 H1091 0.950 . S
C1117 C1116 1.414 . S
C1117 C1118 1.374 . S
C1118 H1092 0.950 . S
C1118 C1114 1.385 . S
C1118 C1117 1.374 . S
C1119 C1116 1.499 . S
C1119 C1120 1.373 . S
C1119 C1121 1.389 . S
C1120 H1093 0.950 . S
C1120 C1106 1.377 . S
C1120 C1119 1.373 . S
C1121 C1105 1.377 . S
C1121 C1119 1.389 . S
C1121 C1122 1.524 . S
C1122 C1121 1.524 . S
C1122 C1123 1.397 . S
C1122 C1127 1.363 . S
C1123 H1094 0.950 . S
C1123 C1122 1.397 . S
C1123 C1124 1.334 . S
C1124 H1095 0.950 . S
C1124 C1123 1.334 . S
C1124 C1125 1.287 . S
C1125 C1124 1.287 . S
C1125 C1126 1.524 . S
C1125 H1128 0.999 . S
C1126 H1096 0.950 . S
C1126 C1125 1.524 . S
C1126 C1127 1.415 . S
C1127 H1097 0.950 . S
C1127 C1122 1.363 . S
C1127 C1126 1.415 . S
H1128 C1125 0.999 . S
H1129 C1110 0.913 . S
H1130 C1148 0.951 . S
H1131 C1150 0.951 . S
H1132 C1152 0.950 . S
H1133 C1153 0.950 . S
H1134 C1155 0.950 . S
H1135 C1158 0.950 . S
H1136 C1159 0.950 . S
H1137 C1161 0.950 . S
H1138 C1162 0.950 . S
H1139 C1163 0.951 . S
H1140 C1165 0.951 . S
H1141 C1167 0.950 . S
H1142 C1168 0.950 . S
H1143 C1170 0.950 . S
H1144 C1173 0.950 . S
H1145 C1174 0.950 . S
H1146 C1176 0.950 . S
H1147 C1177 0.950 . S
C1148 H1130 0.951 . S
C1148 C1149 1.366 . S
C1148 C1150 1.388 . S
C1149 C1148 1.366 . S
C1149 C1153 1.385 . S
C1150 H1131 0.951 . S
C1150 C1148 1.388 . S
C1150 C1151 1.366 . S
C1151 C1150 1.366 . S
C1151 C1152 1.414 . S
C1151 C1154 1.499 . S
C1152 H1132 0.950 . S
C1152 C1151 1.414 . S
C1152 C1153 1.374 . S
C1153 H1133 0.950 . S
C1153 C1149 1.385 . S
C1153 C1152 1.374 . S
C1154 C1151 1.499 . S
C1154 C1155 1.373 . S
C1154 C1156 1.389 . S
C1155 H1134 0.950 . S
C1155 C1154 1.373 . S
C1155 C1171 1.377 . S
C1156 C1154 1.389 . S
C1156 C1157 1.524 . S
C1156 C1170 1.377 . S
C1157 C1156 1.524 . S
C1157 C1158 1.397 . S
C1157 C1162 1.363 . S
C1158 H1135 0.950 . S
C1158 C1157 1.397 . S
C1158 C1159 1.334 . S
C1159 H1136 0.950 . S
C1159 C1158 1.334 . S
C1159 C1160 1.287 . S
C1160 C1159 1.287 . S
C1160 C1161 1.524 . S
C1160 H1179 0.913 . S
C1161 H1137 0.950 . S
C1161 C1160 1.524 . S
C1161 C1162 1.415 . S
C1162 H1138 0.950 . S
C1162 C1157 1.363 . S
C1162 C1161 1.415 . S
C1163 H1139 0.951 . S
C1163 C1164 1.366 . S
C1163 C1165 1.388 . S
C1164 C1163 1.366 . S
C1164 C1168 1.385 . S
C1165 H1140 0.951 . S
C1165 C1163 1.388 . S
C1165 C1166 1.366 . S
C1166 C1165 1.366 . S
C1166 C1167 1.414 . S
C1166 C1169 1.499 . S
C1167 H1141 0.950 . S
C1167 C1166 1.414 . S
C1167 C1168 1.374 . S
C1168 H1142 0.950 . S
C1168 C1164 1.385 . S
C1168 C1167 1.374 . S
C1169 C1166 1.499 . S
C1169 C1170 1.373 . S
C1169 C1171 1.389 . S
C1170 H1143 0.950 . S
C1170 C1156 1.377 . S
C1170 C1169 1.373 . S
C1171 C1155 1.377 . S
C1171 C1169 1.389 . S
C1171 C1172 1.524 . S
C1172 C1171 1.524 . S
C1172 C1173 1.397 . S
C1172 C1177 1.363 . S
C1173 H1144 0.950 . S
C1173 C1172 1.397 . S
C1173 C1174 1.334 . S
C1174 H1145 0.950 . S
C1174 C1173 1.334 . S
C1174 C1175 1.287 . S
C1175 C1174 1.287 . S
C1175 C1176 1.524 . S
C1175 H1178 0.999 . S
C1176 H1146 0.950 . S
C1176 C1175 1.524 . S
C1176 C1177 1.415 . S
C1177 H1147 0.950 . S
C1177 C1172 1.363 . S
C1177 C1176 1.415 . S
H1178 C1175 0.999 . S
H1179 C1160 0.913 . S
H1180 C1198 0.951 . S
H1181 C1200 0.951 . S
H1182 C1202 0.950 . S
H1183 C1203 0.950 . S
H1184 C1205 0.950 . S
H1185 C1208 0.950 . S
H1186 C1209 0.950 . S
H1187 C1211 0.950 . S
H1188 C1212 0.950 . S
H1189 C1213 0.951 . S
H1190 C1215 0.951 . S
H1191 C1217 0.950 . S
H1192 C1218 0.950 . S
H1193 C1220 0.950 . S
H1194 C1223 0.950 . S
H1195 C1224 0.950 . S
H1196 C1226 0.950 . S
H1197 C1227 0.950 . S
C1198 H1180 0.951 . S
C1198 C1199 1.366 . S
C1198 C1200 1.388 . S
C1199 C1198 1.366 . S
C1199 C1203 1.385 . S
C1200 H1181 0.951 . S
C1200 C1198 1.388 . S
C1200 C1201 1.366 . S
C1201 C1200 1.366 . S
C1201 C1202 1.414 . S
C1201 C1204 1.499 . S
C1202 H1182 0.950 . S
C1202 C1201 1.414 . S
C1202 C1203 1.374 . S
C1203 H1183 0.950 . S
C1203 C1199 1.385 . S
C1203 C1202 1.374 . S
C1204 C1201 1.499 . S
C1204 C1205 1.373 . S
C1204 C1206 1.389 . S
C1205 H1184 0.950 . S
C1205 C1204 1.373 . S
C1205 C1221 1.377 . S
C1206 C1204 1.389 . S
C1206 C1207 1.524 . S
C1206 C1220 1.377 . S
C1207 C1206 1.524 . S
C1207 C1208 1.397 . S
C1207 C1212 1.363 . S
C1208 H1185 0.950 . S
C1208 C1207 1.397 . S
C1208 C1209 1.334 . S
C1209 H1186 0.950 . S
C1209 C1208 1.334 . S
C1209 C1210 1.287 . S
C1210 C1209 1.287 . S
C1210 C1211 1.524 . S
C1210 H1229 0.913 . S
C1211 H1187 0.950 . S
C1211 C1210 1.524 . S
C1211 C1212 1.415 . S
C1212 H1188 0.950 . S
C1212 C1207 1.363 . S
C1212 C1211 1.415 . S
C1213 H1189 0.951 . S
C1213 C1214 1.366 . S
C1213 C1215 1.388 . S
C1214 C1213 1.366 . S
C1214 C1218 1.385 . S
C1215 H1190 0.951 . S
C1215 C1213 1.388 . S
C1215 C1216 1.366 . S
C1216 C1215 1.366 . S
C1216 C1217 1.414 . S
C1216 C1219 1.499 . S
C1217 H1191 0.950 . S
C1217 C1216 1.414 . S
C1217 C1218 1.374 . S
C1218 H1192 0.950 . S
C1218 C1214 1.385 . S
C1218 C1217 1.374 . S
C1219 C1216 1.499 . S
C1219 C1220 1.373 . S
C1219 C1221 1.389 . S
C1220 H1193 0.950 . S
C1220 C1206 1.377 . S
C1220 C1219 1.373 . S
C1221 C1205 1.377 . S
C1221 C1219 1.389 . S
C1221 C1222 1.524 . S
C1222 C1221 1.524 . S
C1222 C1223 1.397 . S
C1222 C1227 1.363 . S
C1223 H1194 0.950 . S
C1223 C1222 1.397 . S
C1223 C1224 1.334 . S
C1224 H1195 0.950 . S
C1224 C1223 1.334 . S
C1224 C1225 1.287 . S
C1225 C1224 1.287 . S
C1225 C1226 1.524 . S
C1225 H1228 0.999 . S
C1226 H1196 0.950 . S
C1226 C1225 1.524 . S
C1226 C1227 1.415 . S
C1227 H1197 0.950 . S
C1227 C1222 1.363 . S
C1227 C1226 1.415 . S
H1228 C1225 0.999 . S
H1229 C1210 0.913 . S
H1230 C1248 0.951 . S
H1231 C1250 0.951 . S
H1232 C1252 0.950 . S
H1233 C1253 0.950 . S
H1234 C1255 0.950 . S
H1235 C1258 0.950 . S
H1236 C1259 0.950 . S
H1237 C1261 0.950 . S
H1238 C1262 0.950 . S
H1239 C1263 0.951 . S
H1240 C1265 0.951 . S
H1241 C1267 0.950 . S
H1242 C1268 0.950 . S
H1243 C1270 0.950 . S
H1244 C1273 0.950 . S
H1245 C1274 0.950 . S
H1246 C1276 0.950 . S
H1247 C1277 0.950 . S
C1248 H1230 0.951 . S
C1248 C1249 1.366 . S
C1248 C1250 1.388 . S
C1249 C1248 1.366 . S
C1249 C1253 1.385 . S
C1250 H1231 0.951 . S
C1250 C1248 1.388 . S
C1250 C1251 1.366 . S
C1251 C1250 1.366 . S
C1251 C1252 1.414 . S
C1251 C1254 1.499 . S
C1252 H1232 0.950 . S
C1252 C1251 1.414 . S
C1252 C1253 1.374 . S
C1253 H1233 0.950 . S
C1253 C1249 1.385 . S
C1253 C1252 1.374 . S
C1254 C1251 1.499 . S
C1254 C1255 1.373 . S
C1254 C1256 1.389 . S
C1255 H1234 0.950 . S
C1255 C1254 1.373 . S
C1255 C1271 1.377 . S
C1256 C1254 1.389 . S
C1256 C1257 1.524 . S
C1256 C1270 1.377 . S
C1257 C1256 1.524 . S
C1257 C1258 1.397 . S
C1257 C1262 1.363 . S
C1258 H1235 0.950 . S
C1258 C1257 1.397 . S
C1258 C1259 1.334 . S
C1259 H1236 0.950 . S
C1259 C1258 1.334 . S
C1259 C1260 1.287 . S
C1260 C1259 1.287 . S
C1260 C1261 1.524 . S
C1260 H1279 0.913 . S
C1261 H1237 0.950 . S
C1261 C1260 1.524 . S
C1261 C1262 1.415 . S
C1262 H1238 0.950 . S
C1262 C1257 1.363 . S
C1262 C1261 1.415 . S
C1263 H1239 0.951 . S
C1263 C1264 1.366 . S
C1263 C1265 1.388 . S
C1264 C1263 1.366 . S
C1264 C1268 1.385 . S
C1265 H1240 0.951 . S
C1265 C1263 1.388 . S
C1265 C1266 1.366 . S
C1266 C1265 1.366 . S
C1266 C1267 1.414 . S
C1266 C1269 1.499 . S
C1267 H1241 0.950 . S
C1267 C1266 1.414 . S
C1267 C1268 1.374 . S
C1268 H1242 0.950 . S
C1268 C1264 1.385 . S
C1268 C1267 1.374 . S
C1269 C1266 1.499 . S
C1269 C1270 1.373 . S
C1269 C1271 1.389 . S
C1270 H1243 0.950 . S
C1270 C1256 1.377 . S
C1270 C1269 1.373 . S
C1271 C1255 1.377 . S
C1271 C1269 1.389 . S
C1271 C1272 1.524 . S
C1272 C1271 1.524 . S
C1272 C1273 1.397 . S
C1272 C1277 1.363 . S
C1273 H1244 0.950 . S
C1273 C1272 1.397 . S
C1273 C1274 1.334 . S
C1274 H1245 0.950 . S
C1274 C1273 1.334 . S
C1274 C1275 1.287 . S
C1275 C1274 1.287 . S
C1275 C1276 1.524 . S
C1275 H1278 0.999 . S
C1276 H1246 0.950 . S
C1276 C1275 1.524 . S
C1276 C1277 1.415 . S
C1277 H1247 0.950 . S
C1277 C1272 1.363 . S
C1277 C1276 1.415 . S
H1278 C1275 0.999 . S
H1279 C1260 0.913 . S
H1280 C1298 0.951 . S
H1281 C1300 0.951 . S
H1282 C1302 0.950 . S
H1283 C1303 0.950 . S
H1284 C1305 0.950 . S
H1285 C1308 0.950 . S
H1286 C1309 0.950 . S
H1287 C1311 0.950 . S
H1288 C1312 0.950 . S
H1289 C1313 0.951 . S
H1290 C1315 0.951 . S
H1291 C1317 0.950 . S
H1292 C1318 0.950 . S
H1293 C1320 0.950 . S
H1294 C1323 0.950 . S
H1295 C1324 0.950 . S
H1296 C1326 0.950 . S
H1297 C1327 0.950 . S
C1298 H1280 0.951 . S
C1298 C1299 1.366 . S
C1298 C1300 1.388 . S
C1299 C1298 1.366 . S
C1299 C1303 1.385 . S
C1300 H1281 0.951 . S
C1300 C1298 1.388 . S
C1300 C1301 1.366 . S
C1301 C1300 1.366 . S
C1301 C1302 1.414 . S
C1301 C1304 1.499 . S
C1302 H1282 0.950 . S
C1302 C1301 1.414 . S
C1302 C1303 1.374 . S
C1303 H1283 0.950 . S
C1303 C1299 1.385 . S
C1303 C1302 1.374 . S
C1304 C1301 1.499 . S
C1304 C1305 1.373 . S
C1304 C1306 1.389 . S
C1305 H1284 0.950 . S
C1305 C1304 1.373 . S
C1305 C1321 1.377 . S
C1306 C1304 1.389 . S
C1306 C1307 1.524 . S
C1306 C1320 1.377 . S
C1307 C1306 1.524 . S
C1307 C1308 1.397 . S
C1307 C1312 1.363 . S
C1308 H1285 0.950 . S
C1308 C1307 1.397 . S
C1308 C1309 1.334 . S
C1309 H1286 0.950 . S
C1309 C1308 1.334 . S
C1309 C1310 1.287 . S
C1310 C1309 1.287 . S
C1310 C1311 1.524 . S
C1310 H1329 0.913 . S
C1311 H1287 0.950 . S
C1311 C1310 1.524 . S
C1311 C1312 1.415 . S
C1312 H1288 0.950 . S
C1312 C1307 1.363 . S
C1312 C1311 1.415 . S
C1313 H1289 0.951 . S
C1313 C1314 1.366 . S
C1313 C1315 1.388 . S
C1314 C1313 1.366 . S
C1314 C1318 1.385 . S
C1315 H1290 0.951 . S
C1315 C1313 1.388 . S
C1315 C1316 1.366 . S
C1316 C1315 1.366 . S
C1316 C1317 1.414 . S
C1316 C1319 1.499 . S
C1317 H1291 0.950 . S
C1317 C1316 1.414 . S
C1317 C1318 1.374 . S
C1318 H1292 0.950 . S
C1318 C1314 1.385 . S
C1318 C1317 1.374 . S
C1319 C1316 1.499 . S
C1319 C1320 1.373 . S
C1319 C1321 1.389 . S
C1320 H1293 0.950 . S
C1320 C1306 1.377 . S
C1320 C1319 1.373 . S
C1321 C1305 1.377 . S
C1321 C1319 1.389 . S
C1321 C1322 1.524 . S
C1322 C1321 1.524 . S
C1322 C1323 1.397 . S
C1322 C1327 1.363 . S
C1323 H1294 0.950 . S
C1323 C1322 1.397 . S
C1323 C1324 1.334 . S
C1324 H1295 0.950 . S
C1324 C1323 1.334 . S
C1324 C1325 1.287 . S
C1325 C1324 1.287 . S
C1325 C1326 1.524 . S
C1325 H1328 0.999 . S
C1326 H1296 0.950 . S
C1326 C1325 1.524 . S
C1326 C1327 1.415 . S
C1327 H1297 0.950 . S
C1327 C1322 1.363 . S
C1327 C1326 1.415 . S
H1328 C1325 0.999 . S
H1329 C1310 0.913 . S
H1330 C1348 0.951 . S
H1331 C1350 0.951 . S
H1332 C1352 0.950 . S
H1333 C1353 0.950 . S
H1334 C1355 0.950 . S
H1335 C1358 0.950 . S
H1336 C1359 0.950 . S
H1337 C1361 0.950 . S
H1338 C1362 0.950 . S
H1339 C1363 0.951 . S
H1340 C1365 0.951 . S
H1341 C1367 0.950 . S
H1342 C1368 0.950 . S
H1343 C1370 0.950 . S
H1344 C1373 0.950 . S
H1345 C1374 0.950 . S
H1346 C1376 0.950 . S
H1347 C1377 0.950 . S
C1348 H1330 0.951 . S
C1348 C1349 1.366 . S
C1348 C1350 1.388 . S
C1349 C1348 1.366 . S
C1349 C1353 1.385 . S
C1350 H1331 0.951 . S
C1350 C1348 1.388 . S
C1350 C1351 1.366 . S
C1351 C1350 1.366 . S
C1351 C1352 1.414 . S
C1351 C1354 1.499 . S
C1352 H1332 0.950 . S
C1352 C1351 1.414 . S
C1352 C1353 1.374 . S
C1353 H1333 0.950 . S
C1353 C1349 1.385 . S
C1353 C1352 1.374 . S
C1354 C1351 1.499 . S
C1354 C1355 1.373 . S
C1354 C1356 1.389 . S
C1355 H1334 0.950 . S
C1355 C1354 1.373 . S
C1355 C1371 1.377 . S
C1356 C1354 1.389 . S
C1356 C1357 1.524 . S
C1356 C1370 1.377 . S
C1357 C1356 1.524 . S
C1357 C1358 1.397 . S
C1357 C1362 1.363 . S
C1358 H1335 0.950 . S
C1358 C1357 1.397 . S
C1358 C1359 1.334 . S
C1359 H1336 0.950 . S
C1359 C1358 1.334 . S
C1359 C1360 1.287 . S
C1360 C1359 1.287 . S
C1360 C1361 1.524 . S
C1360 H1379 0.913 . S
C1361 H1337 0.950 . S
C1361 C1360 1.524 . S
C1361 C1362 1.415 . S
C1362 H1338 0.950 . S
C1362 C1357 1.363 . S
C1362 C1361 1.415 . S
C1363 H1339 0.951 . S
C1363 C1364 1.366 . S
C1363 C1365 1.388 . S
C1364 C1363 1.366 . S
C1364 C1368 1.385 . S
C1365 H1340 0.951 . S
C1365 C1363 1.388 . S
C1365 C1366 1.366 . S
C1366 C1365 1.366 . S
C1366 C1367 1.414 . S
C1366 C1369 1.499 . S
C1367 H1341 0.950 . S
C1367 C1366 1.414 . S
C1367 C1368 1.374 . S
C1368 H1342 0.950 . S
C1368 C1364 1.385 . S
C1368 C1367 1.374 . S
C1369 C1366 1.499 . S
C1369 C1370 1.373 . S
C1369 C1371 1.389 . S
C1370 H1343 0.950 . S
C1370 C1356 1.377 . S
C1370 C1369 1.373 . S
C1371 C1355 1.377 . S
C1371 C1369 1.389 . S
C1371 C1372 1.524 . S
C1372 C1371 1.524 . S
C1372 C1373 1.397 . S
C1372 C1377 1.363 . S
C1373 H1344 0.950 . S
C1373 C1372 1.397 . S
C1373 C1374 1.334 . S
C1374 H1345 0.950 . S
C1374 C1373 1.334 . S
C1374 C1375 1.287 . S
C1375 C1374 1.287 . S
C1375 C1376 1.524 . S
C1375 H1378 0.999 . S
C1376 H1346 0.950 . S
C1376 C1375 1.524 . S
C1376 C1377 1.415 . S
C1377 H1347 0.950 . S
C1377 C1372 1.363 . S
C1377 C1376 1.415 . S
H1378 C1375 0.999 . S
H1379 C1360 0.913 . S
H1380 C1398 0.951 . S
H1381 C1400 0.951 . S
H1382 C1402 0.950 . S
H1383 C1403 0.950 . S
H1384 C1405 0.950 . S
H1385 C1408 0.950 . S
H1386 C1409 0.950 . S
H1387 C1411 0.950 . S
H1388 C1412 0.950 . S
H1389 C1413 0.951 . S
H1390 C1415 0.951 . S
H1391 C1417 0.950 . S
H1392 C1418 0.950 . S
H1393 C1420 0.950 . S
H1394 C1423 0.950 . S
H1395 C1424 0.950 . S
H1396 C1426 0.950 . S
H1397 C1427 0.950 . S
C1398 H1380 0.951 . S
C1398 C1399 1.366 . S
C1398 C1400 1.388 . S
C1399 C1398 1.366 . S
C1399 C1403 1.385 . S
C1400 H1381 0.951 . S
C1400 C1398 1.388 . S
C1400 C1401 1.366 . S
C1401 C1400 1.366 . S
C1401 C1402 1.414 . S
C1401 C1404 1.499 . S
C1402 H1382 0.950 . S
C1402 C1401 1.414 . S
C1402 C1403 1.374 . S
C1403 H1383 0.950 . S
C1403 C1399 1.385 . S
C1403 C1402 1.374 . S
C1404 C1401 1.499 . S
C1404 C1405 1.373 . S
C1404 C1406 1.389 . S
C1405 H1384 0.950 . S
C1405 C1404 1.373 . S
C1405 C1421 1.377 . S
C1406 C1404 1.389 . S
C1406 C1407 1.524 . S
C1406 C1420 1.377 . S
C1407 C1406 1.524 . S
C1407 C1408 1.397 . S
C1407 C1412 1.363 . S
C1408 H1385 0.950 . S
C1408 C1407 1.397 . S
C1408 C1409 1.334 . S
C1409 H1386 0.950 . S
C1409 C1408 1.334 . S
C1409 C1410 1.287 . S
C1410 C1409 1.287 . S
C1410 C1411 1.524 . S
C1410 H1429 0.913 . S
C1411 H1387 0.950 . S
C1411 C1410 1.524 . S
C1411 C1412 1.415 . S
C1412 H1388 0.950 . S
C1412 C1407 1.363 . S
C1412 C1411 1.415 . S
C1413 H1389 0.951 . S
C1413 C1414 1.366 . S
C1413 C1415 1.388 . S
C1414 C1413 1.366 . S
C1414 C1418 1.385 . S
C1415 H1390 0.951 . S
C1415 C1413 1.388 . S
C1415 C1416 1.366 . S
C1416 C1415 1.366 . S
C1416 C1417 1.414 . S
C1416 C1419 1.499 . S
C1417 H1391 0.950 . S
C1417 C1416 1.414 . S
C1417 C1418 1.374 . S
C1418 H1392 0.950 . S
C1418 C1414 1.385 . S
C1418 C1417 1.374 . S
C1419 C1416 1.499 . S
C1419 C1420 1.373 . S
C1419 C1421 1.389 . S
C1420 H1393 0.950 . S
C1420 C1406 1.377 . S
C1420 C1419 1.373 . S
C1421 C1405 1.377 . S
C1421 C1419 1.389 . S
C1421 C1422 1.524 . S
C1422 C1421 1.524 . S
C1422 C1423 1.397 . S
C1422 C1427 1.363 . S
C1423 H1394 0.950 . S
C1423 C1422 1.397 . S
C1423 C1424 1.334 . S
C1424 H1395 0.950 . S
C1424 C1423 1.334 . S
C1424 C1425 1.287 . S
C1425 C1424 1.287 . S
C1425 C1426 1.524 . S
C1425 H1428 0.999 . S
C1426 H1396 0.950 . S
C1426 C1425 1.524 . S
C1426 C1427 1.415 . S
C1427 H1397 0.950 . S
C1427 C1422 1.363 . S
C1427 C1426 1.415 . S
H1428 C1425 0.999 . S
H1429 C1410 0.913 . S
H1430 C1448 0.951 . S
H1431 C1450 0.951 . S
H1432 C1452 0.950 . S
H1433 C1453 0.950 . S
H1434 C1455 0.950 . S
H1435 C1458 0.950 . S
H1436 C1459 0.950 . S
H1437 C1461 0.950 . S
H1438 C1462 0.950 . S
H1439 C1463 0.951 . S
H1440 C1465 0.951 . S
H1441 C1467 0.950 . S
H1442 C1468 0.950 . S
H1443 C1470 0.950 . S
H1444 C1473 0.950 . S
H1445 C1474 0.950 . S
H1446 C1476 0.950 . S
H1447 C1477 0.950 . S
C1448 H1430 0.951 . S
C1448 C1449 1.366 . S
C1448 C1450 1.388 . S
C1449 C1448 1.366 . S
C1449 C1453 1.385 . S
C1450 H1431 0.951 . S
C1450 C1448 1.388 . S
C1450 C1451 1.366 . S
C1451 C1450 1.366 . S
C1451 C1452 1.414 . S
C1451 C1454 1.499 . S
C1452 H1432 0.950 . S
C1452 C1451 1.414 . S
C1452 C1453 1.374 . S
C1453 H1433 0.950 . S
C1453 C1449 1.385 . S
C1453 C1452 1.374 . S
C1454 C1451 1.499 . S
C1454 C1455 1.373 . S
C1454 C1456 1.389 . S
C1455 H1434 0.950 . S
C1455 C1454 1.373 . S
C1455 C1471 1.377 . S
C1456 C1454 1.389 . S
C1456 C1457 1.524 . S
C1456 C1470 1.377 . S
C1457 C1456 1.524 . S
C1457 C1458 1.397 . S
C1457 C1462 1.363 . S
C1458 H1435 0.950 . S
C1458 C1457 1.397 . S
C1458 C1459 1.334 . S
C1459 H1436 0.950 . S
C1459 C1458 1.334 . S
C1459 C1460 1.287 . S
C1460 C1459 1.287 . S
C1460 C1461 1.524 . S
C1460 H1479 0.913 . S
C1461 H1437 0.950 . S
C1461 C1460 1.524 . S
C1461 C1462 1.415 . S
C1462 H1438 0.950 . S
C1462 C1457 1.363 . S
C1462 C1461 1.415 . S
C1463 H1439 0.951 . S
C1463 C1464 1.366 . S
C1463 C1465 1.388 . S
C1464 C1463 1.366 . S
C1464 C1468 1.385 . S
C1465 H1440 0.951 . S
C1465 C1463 1.388 . S
C1465 C1466 1.366 . S
C1466 C1465 1.366 . S
C1466 C1467 1.414 . S
C1466 C1469 1.499 . S
C1467 H1441 0.950 . S
C1467 C1466 1.414 . S
C1467 C1468 1.374 . S
C1468 H1442 0.950 . S
C1468 C1464 1.385 . S
C1468 C1467 1.374 . S
C1469 C1466 1.499 . S
C1469 C1470 1.373 . S
C1469 C1471 1.389 . S
C1470 H1443 0.950 . S
C1470 C1456 1.377 . S
C1470 C1469 1.373 . S
C1471 C1455 1.377 . S
C1471 C1469 1.389 . S
C1471 C1472 1.524 . S
C1472 C1471 1.524 . S
C1472 C1473 1.397 . S
C1472 C1477 1.363 . S
C1473 H1444 0.950 . S
C1473 C1472 1.397 . S
C1473 C1474 1.334 . S
C1474 H1445 0.950 . S
C1474 C1473 1.334 . S
C1474 C1475 1.287 . S
C1475 C1474 1.287 . S
C1475 C1476 1.524 . S
C1475 H1478 0.999 . S
C1476 H1446 0.950 . S
C1476 C1475 1.524 . S
C1476 C1477 1.415 . S
C1477 H1447 0.950 . S
C1477 C1472 1.363 . S
C1477 C1476 1.415 . S
H1478 C1475 0.999 . S
H1479 C1460 0.913 . S
H1480 C1498 0.951 . S
H1481 C1500 0.951 . S
H1482 C1502 0.950 . S
H1483 C1503 0.950 . S
H1484 C1505 0.950 . S
H1485 C1508 0.950 . S
H1486 C1509 0.950 . S
H1487 C1511 0.950 . S
H1488 C1512 0.950 . S
H1489 C1513 0.951 . S
H1490 C1515 0.951 . S
H1491 C1517 0.950 . S
H1492 C1518 0.950 . S
H1493 C1520 0.950 . S
H1494 C1523 0.950 . S
H1495 C1524 0.950 . S
H1496 C1526 0.950 . S
H1497 C1527 0.950 . S
C1498 H1480 0.951 . S
C1498 C1499 1.366 . S
C1498 C1500 1.388 . S
C1499 C1498 1.366 . S
C1499 C1503 1.385 . S
C1500 H1481 0.951 . S
C1500 C1498 1.388 . S
C1500 C1501 1.366 . S
C1501 C1500 1.366 . S
C1501 C1502 1.414 . S
C1501 C1504 1.499 . S
C1502 H1482 0.950 . S
C1502 C1501 1.414 . S
C1502 C1503 1.374 . S
C1503 H1483 0.950 . S
C1503 C1499 1.385 . S
C1503 C1502 1.374 . S
C1504 C1501 1.499 . S
C1504 C1505 1.373 . S
C1504 C1506 1.389 . S
C1505 H1484 0.950 . S
C1505 C1504 1.373 . S
C1505 C1521 1.377 . S
C1506 C1504 1.389 . S
C1506 C1507 1.524 . S
C1506 C1520 1.377 . S
C1507 C1506 1.524 . S
C1507 C1508 1.397 . S
C1507 C1512 1.363 . S
C1508 H1485 0.950 . S
C1508 C1507 1.397 . S
C1508 C1509 1.334 . S
C1509 H1486 0.950 . S
C1509 C1508 1.334 . S
C1509 C1510 1.287 . S
C1510 C1509 1.287 . S
C1510 C1511 1.524 . S
C1510 H1529 0.913 . S
C1511 H1487 0.950 . S
C1511 C1510 1.524 . S
C1511 C1512 1.415 . S
C1512 H1488 0.950 . S
C1512 C1507 1.363 . S
C1512 C1511 1.415 . S
C1513 H1489 0.951 . S
C1513 C1514 1.366 . S
C1513 C1515 1.388 . S
C1514 C1513 1.366 . S
C1514 C1518 1.385 . S
C1515 H1490 0.951 . S
C1515 C1513 1.388 . S
C1515 C1516 1.366 . S
C1516 C1515 1.366 . S
C1516 C1517 1.414 . S
C1516 C1519 1.499 . S
C1517 H1491 0.950 . S
C1517 C1516 1.414 . S
C1517 C1518 1.374 . S
C1518 H1492 0.950 . S
C1518 C1514 1.385 . S
C1518 C1517 1.374 . S
C1519 C1516 1.499 . S
C1519 C1520 1.373 . S
C1519 C1521 1.389 . S
C1520 H1493 0.950 . S
C1520 C1506 1.377 . S
C1520 C1519 1.373 . S
C1521 C1505 1.377 . S
C1521 C1519 1.389 . S
C1521 C1522 1.524 . S
C1522 C1521 1.524 . S
C1522 C1523 1.397 . S
C1522 C1527 1.363 . S
C1523 H1494 0.950 . S
C1523 C1522 1.397 . S
C1523 C1524 1.334 . S
C1524 H1495 0.950 . S
C1524 C1523 1.334 . S
C1524 C1525 1.287 . S
C1525 C1524 1.287 . S
C1525 C1526 1.524 . S
C1525 H1528 0.999 . S
C1526 H1496 0.950 . S
C1526 C1525 1.524 . S
C1526 C1527 1.415 . S
C1527 H1497 0.950 . S
C1527 C1522 1.363 . S
C1527 C1526 1.415 . S
H1528 C1525 0.999 . S
H1529 C1510 0.913 . S
H1530 C1548 0.951 . S
H1531 C1550 0.951 . S
H1532 C1552 0.950 . S
H1533 C1553 0.950 . S
H1534 C1555 0.950 . S
H1535 C1558 0.950 . S
H1536 C1559 0.950 . S
H1537 C1561 0.950 . S
H1538 C1562 0.950 . S
H1539 C1563 0.951 . S
H1540 C1565 0.951 . S
H1541 C1567 0.950 . S
H1542 C1568 0.950 . S
H1543 C1570 0.950 . S
H1544 C1573 0.950 . S
H1545 C1574 0.950 . S
H1546 C1576 0.950 . S
H1547 C1577 0.950 . S
C1548 H1530 0.951 . S
C1548 C1549 1.366 . S
C1548 C1550 1.388 . S
C1549 C1548 1.366 . S
C1549 C1553 1.385 . S
C1550 H1531 0.951 . S
C1550 C1548 1.388 . S
C1550 C1551 1.366 . S
C1551 C1550 1.366 . S
C1551 C1552 1.414 . S
C1551 C1554 1.499 . S
C1552 H1532 0.950 . S
C1552 C1551 1.414 . S
C1552 C1553 1.374 . S
C1553 H1533 0.950 . S
C1553 C1549 1.385 . S
C1553 C1552 1.374 . S
C1554 C1551 1.499 . S
C1554 C1555 1.373 . S
C1554 C1556 1.389 . S
C1555 H1534 0.950 . S
C1555 C1554 1.373 . S
C1555 C1571 1.377 . S
C1556 C1554 1.389 . S
C1556 C1557 1.524 . S
C1556 C1570 1.377 . S
C1557 C1556 1.524 . S
C1557 C1558 1.397 . S
C1557 C1562 1.363 . S
C1558 H1535 0.950 . S
C1558 C1557 1.397 . S
C1558 C1559 1.334 . S
C1559 H1536 0.950 . S
C1559 C1558 1.334 . S
C1559 C1560 1.287 . S
C1560 C1559 1.287 . S
C1560 C1561 1.524 . S
C1560 H1579 0.913 . S
C1561 H1537 0.950 . S
C1561 C1560 1.524 . S
C1561 C1562 1.415 . S
C1562 H1538 0.950 . S
C1562 C1557 1.363 . S
C1562 C1561 1.415 . S
C1563 H1539 0.951 . S
C1563 C1564 1.366 . S
C1563 C1565 1.388 . S
C1564 C1563 1.366 . S
C1564 C1568 1.385 . S
C1565 H1540 0.951 . S
C1565 C1563 1.388 . S
C1565 C1566 1.366 . S
C1566 C1565 1.366 . S
C1566 C1567 1.414 . S
C1566 C1569 1.499 . S
C1567 H1541 0.950 . S
C1567 C1566 1.414 . S
C1567 C1568 1.374 . S
C1568 H1542 0.950 . S
C1568 C1564 1.385 . S
C1568 C1567 1.374 . S
C1569 C1566 1.499 . S
C1569 C1570 1.373 . S
C1569 C1571 1.389 . S
C1570 H1543 0.950 . S
C1570 C1556 1.377 . S
C1570 C1569 1.373 . S
C1571 C1555 1.377 . S
C1571 C1569 1.389 . S
C1571 C1572 1.524 . S
C1572 C1571 1.524 . S
C1572 C1573 1.397 . S
C1572 C1577 1.363 . S
C1573 H1544 0.950 . S
C1573 C1572 1.397 . S
C1573 C1574 1.334 . S
C1574 H1545 0.950 . S
C1574 C1573 1.334 . S
C1574 C1575 1.287 . S
C1575 C1574 1.287 . S
C1575 C1576 1.524 . S
C1575 H1578 0.999 . S
C1576 H1546 0.950 . S
C1576 C1575 1.524 . S
C1576 C1577 1.415 . S
C1577 H1547 0.950 . S
C1577 C1572 1.363 . S
C1577 C1576 1.415 . S
H1578 C1575 0.999 . S
H1579 C1560 0.913 . S
H1580 C1598 0.951 . S
H1581 C1600 0.951 . S
H1582 C1602 0.950 . S
H1583 C1603 0.950 . S
H1584 C1605 0.950 . S
H1585 C1608 0.950 . S
H1586 C1609 0.950 . S
H1587 C1611 0.950 . S
H1588 C1612 0.950 . S
H1589 C1613 0.951 . S
H1590 C1615 0.951 . S
H1591 C1617 0.950 . S
H1592 C1618 0.950 . S
H1593 C1620 0.950 . S
H1594 C1623 0.950 . S
H1595 C1624 0.950 . S
H1596 C1626 0.950 . S
H1597 C1627 0.950 . S
C1598 H1580 0.951 . S
C1598 C1599 1.366 . S
C1598 C1600 1.388 . S
C1599 C1598 1.366 . S
C1599 C1603 1.385 . S
C1600 H1581 0.951 . S
C1600 C1598 1.388 . S
C1600 C1601 1.366 . S
C1601 C1600 1.366 . S
C1601 C1602 1.414 . S
C1601 C1604 1.499 . S
C1602 H1582 0.950 . S
C1602 C1601 1.414 . S
C1602 C1603 1.374 . S
C1603 H1583 0.950 . S
C1603 C1599 1.385 . S
C1603 C1602 1.374 . S
C1604 C1601 1.499 . S
C1604 C1605 1.373 . S
C1604 C1606 1.389 . S
C1605 H1584 0.950 . S
C1605 C1604 1.373 . S
C1605 C1621 1.377 . S
C1606 C1604 1.389 . S
C1606 C1607 1.524 . S
C1606 C1620 1.377 . S
C1607 C1606 1.524 . S
C1607 C1608 1.397 . S
C1607 C1612 1.363 . S
C1608 H1585 0.950 . S
C1608 C1607 1.397 . S
C1608 C1609 1.334 . S
C1609 H1586 0.950 . S
C1609 C1608 1.334 . S
C1609 C1610 1.287 . S
C1610 C1609 1.287 . S
C1610 C1611 1.524 . S
C1610 H1629 0.913 . S
C1611 H1587 0.950 . S
C1611 C1610 1.524 . S
C1611 C1612 1.415 . S
C1612 H1588 0.950 . S
C1612 C1607 1.363 . S
C1612 C1611 1.415 . S
C1613 H1589 0.951 . S
C1613 C1614 1.366 . S
C1613 C1615 1.388 . S
C1614 C1613 1.366 . S
C1614 C1618 1.385 . S
C1615 H1590 0.951 . S
C1615 C1613 1.388 . S
C1615 C1616 1.366 . S
C1616 C1615 1.366 . S
C1616 C1617 1.414 . S
C1616 C1619 1.499 . S
C1617 H1591 0.950 . S
C1617 C1616 1.414 . S
C1617 C1618 1.374 . S
C1618 H1592 0.950 . S
C1618 C1614 1.385 . S
C1618 C1617 1.374 . S
C1619 C1616 1.499 . S
C1619 C1620 1.373 . S
C1619 C1621 1.389 . S
C1620 H1593 0.950 . S
C1620 C1606 1.377 . S
C1620 C1619 1.373 . S
C1621 C1605 1.377 . S
C1621 C1619 1.389 . S
C1621 C1622 1.524 . S
C1622 C1621 1.524 . S
C1622 C1623 1.397 . S
C1622 C1627 1.363 . S
C1623 H1594 0.950 . S
C1623 C1622 1.397 . S
C1623 C1624 1.334 . S
C1624 H1595 0.950 . S
C1624 C1623 1.334 . S
C1624 C1625 1.287 . S
C1625 C1624 1.287 . S
C1625 C1626 1.524 . S
C1625 H1628 0.999 . S
C1626 H1596 0.950 . S
C1626 C1625 1.524 . S
C1626 C1627 1.415 . S
C1627 H1597 0.950 . S
C1627 C1622 1.363 . S
C1627 C1626 1.415 . S
H1628 C1625 0.999 . S
H1629 C1610 0.913 . S
H1630 C1648 0.951 . S
H1631 C1650 0.951 . S
H1632 C1652 0.950 . S
H1633 C1653 0.950 . S
H1634 C1655 0.950 . S
H1635 C1658 0.950 . S
H1636 C1659 0.950 . S
H1637 C1661 0.950 . S
H1638 C1662 0.950 . S
H1639 C1663 0.951 . S
H1640 C1665 0.951 . S
H1641 C1667 0.950 . S
H1642 C1668 0.950 . S
H1643 C1670 0.950 . S
H1644 C1673 0.950 . S
H1645 C1674 0.950 . S
H1646 C1676 0.950 . S
H1647 C1677 0.950 . S
C1648 H1630 0.951 . S
C1648 C1649 1.366 . S
C1648 C1650 1.388 . S
C1649 C1648 1.366 . S
C1649 C1653 1.385 . S
C1650 H1631 0.951 . S
C1650 C1648 1.388 . S
C1650 C1651 1.366 . S
C1651 C1650 1.366 . S
C1651 C1652 1.414 . S
C1651 C1654 1.499 . S
C1652 H1632 0.950 . S
C1652 C1651 1.414 . S
C1652 C1653 1.374 . S
C1653 H1633 0.950 . S
C1653 C1649 1.385 . S
C1653 C1652 1.374 . S
C1654 C1651 1.499 . S
C1654 C1655 1.373 . S
C1654 C1656 1.389 . S
C1655 H1634 0.950 . S
C1655 C1654 1.373 . S
C1655 C1671 1.377 . S
C1656 C1654 1.389 . S
C1656 C1657 1.524 . S
C1656 C1670 1.377 . S
C1657 C1656 1.524 . S
C1657 C1658 1.397 . S
C1657 C1662 1.363 . S
C1658 H1635 0.950 . S
C1658 C1657 1.397 . S
C1658 C1659 1.334 . S
C1659 H1636 0.950 . S
C1659 C1658 1.334 . S
C1659 C1660 1.287 . S
C1660 C1659 1.287 . S
C1660 C1661 1.524 . S
C1660 H1679 0.913 . S
C1661 H1637 0.950 . S
C1661 C1660 1.524 . S
C1661 C1662 1.415 . S
C1662 H1638 0.950 . S
C1662 C1657 1.363 . S
C1662 C1661 1.415 . S
C1663 H1639 0.951 . S
C1663 C1664 1.366 . S
C1663 C1665 1.388 . S
C1664 C1663 1.366 . S
C1664 C1668 1.385 . S
C1665 H1640 0.951 . S
C1665 C1663 1.388 . S
C1665 C1666 1.366 . S
C1666 C1665 1.366 . S
C1666 C1667 1.414 . S
C1666 C1669 1.499 . S
C1667 H1641 0.950 . S
C1667 C1666 1.414 . S
C1667 C1668 1.374 . S
C1668 H1642 0.950 . S
C1668 C1664 1.385 . S
C1668 C1667 1.374 . S
C1669 C1666 1.499 . S
C1669 C1670 1.373 . S
C1669 C1671 1.389 . S
C1670 H1643 0.950 . S
C1670 C1656 1.377 . S
C1670 C1669 1.373 . S
C1671 C1655 1.377 . S
C1671 C1669 1.389 . S
C1671 C1672 1.524 . S
C1672 C1671 1.524 . S
C1672 C1673 1.397 . S
C1672 C1677 1.363 . S
C1673 H1644 0.950 . S
C1673 C1672 1.397 . S
C1673 C1674 1.334 . S
C1674 H1645 0.950 . S
C1674 C1673 1.334 . S
C1674 C1675 1.287 . S
C1675 C1674 1.287 . S
C1675 C1676 1.524 . S
C1675 H1678 0.999 . S
C1676 H1646 0.950 . S
C1676 C1675 1.524 . S
C1676 C1677 1.415 . S
C1677 H1647 0.950 . S
C1677 C1672 1.363 . S
C1677 C1676 1.415 . S
H1678 C1675 0.999 . S
H1679 C1660 0.913 . S
H1680 C1698 0.951 . S
H1681 C1700 0.951 . S
H1682 C1702 0.950 . S
H1683 C1703 0.950 . S
H1684 C1705 0.950 . S
H1685 C1708 0.950 . S
H1686 C1709 0.950 . S
H1687 C1711 0.950 . S
H1688 C1712 0.950 . S
H1689 C1713 0.951 . S
H1690 C1715 0.951 . S
H1691 C1717 0.950 . S
H1692 C1718 0.950 . S
H1693 C1720 0.950 . S
H1694 C1723 0.950 . S
H1695 C1724 0.950 . S
H1696 C1726 0.950 . S
H1697 C1727 0.950 . S
C1698 H1680 0.951 . S
C1698 C1699 1.366 . S
C1698 C1700 1.388 . S
C1699 C1698 1.366 . S
C1699 C1703 1.385 . S
C1700 H1681 0.951 . S
C1700 C1698 1.388 . S
C1700 C1701 1.366 . S
C1701 C1700 1.366 . S
C1701 C1702 1.414 . S
C1701 C1704 1.499 . S
C1702 H1682 0.950 . S
C1702 C1701 1.414 . S
C1702 C1703 1.374 . S
C1703 H1683 0.950 . S
C1703 C1699 1.385 . S
C1703 C1702 1.374 . S
C1704 C1701 1.499 . S
C1704 C1705 1.373 . S
C1704 C1706 1.389 . S
C1705 H1684 0.950 . S
C1705 C1704 1.373 . S
C1705 C1721 1.377 . S
C1706 C1704 1.389 . S
C1706 C1707 1.524 . S
C1706 C1720 1.377 . S
C1707 C1706 1.524 . S
C1707 C1708 1.397 . S
C1707 C1712 1.363 . S
C1708 H1685 0.950 . S
C1708 C1707 1.397 . S
C1708 C1709 1.334 . S
C1709 H1686 0.950 . S
C1709 C1708 1.334 . S
C1709 C1710 1.287 . S
C1710 C1709 1.287 . S
C1710 C1711 1.524 . S
C1710 H1729 0.913 . S
C1711 H1687 0.950 . S
C1711 C1710 1.524 . S
C1711 C1712 1.415 . S
C1712 H1688 0.950 . S
C1712 C1707 1.363 . S
C1712 C1711 1.415 . S
C1713 H1689 0.951 . S
C1713 C1714 1.366 . S
C1713 C1715 1.388 . S
C1714 C1713 1.366 . S
C1714 C1718 1.385 . S
C1715 H1690 0.951 . S
C1715 C1713 1.388 . S
C1715 C1716 1.366 . S
C1716 C1715 1.366 . S
C1716 C1717 1.414 . S
C1716 C1719 1.499 . S
C1717 H1691 0.950 . S
C1717 C1716 1.414 . S
C1717 C1718 1.374 . S
C1718 H1692 0.950 . S
C1718 C1714 1.385 . S
C1718 C1717 1.374 . S
C1719 C1716 1.499 . S
C1719 C1720 1.373 . S
C1719 C1721 1.389 . S
C1720 H1693 0.950 . S
C1720 C1706 1.377 . S
C1720 C1719 1.373 . S
C1721 C1705 1.377 . S
C1721 C1719 1.389 . S
C1721 C1722 1.524 . S
C1722 C1721 1.524 . S
C1722 C1723 1.397 . S
C1722 C1727 1.363 . S
C1723 H1694 0.950 . S
C1723 C1722 1.397 . S
C1723 C1724 1.334 . S
C1724 H1695 0.950 . S
C1724 C1723 1.334 . S
C1724 C1725 1.287 . S
C1725 C1724 1.287 . S
C1725 C1726 1.524 . S
C1725 H1728 0.999 . S
C1726 H1696 0.950 . S
C1726 C1725 1.524 . S
C1726 C1727 1.415 . S
C1727 H1697 0.950 . S
C1727 C1722 1.363 . S
C1727 C1726 1.415 . S
H1728 C1725 0.999 . S
H1729 C1710 0.913 . S
H1730 C1748 0.951 . S
H1731 C1750 0.951 . S
H1732 C1752 0.950 . S
H1733 C1753 0.950 . S
H1734 C1755 0.950 . S
H1735 C1758 0.950 . S
H1736 C1759 0.950 . S
H1737 C1761 0.950 . S
H1738 C1762 0.950 . S
H1739 C1763 0.951 . S
H1740 C1765 0.951 . S
H1741 C1767 0.950 . S
H1742 C1768 0.950 . S
H1743 C1770 0.950 . S
H1744 C1773 0.950 . S
H1745 C1774 0.950 . S
H1746 C1776 0.950 . S
H1747 C1777 0.950 . S
C1748 H1730 0.951 . S
C1748 C1749 1.366 . S
C1748 C1750 1.388 . S
C1749 C1748 1.366 . S
C1749 C1753 1.385 . S
C1750 H1731 0.951 . S
C1750 C1748 1.388 . S
C1750 C1751 1.366 . S
C1751 C1750 1.366 . S
C1751 C1752 1.414 . S
C1751 C1754 1.499 . S
C1752 H1732 0.950 . S
C1752 C1751 1.414 . S
C1752 C1753 1.374 . S
C1753 H1733 0.950 . S
C1753 C1749 1.385 . S
C1753 C1752 1.374 . S
C1754 C1751 1.499 . S
C1754 C1755 1.373 . S
C1754 C1756 1.389 . S
C1755 H1734 0.950 . S
C1755 C1754 1.373 . S
C1755 C1771 1.377 . S
C1756 C1754 1.389 . S
C1756 C1757 1.524 . S
C1756 C1770 1.377 . S
C1757 C1756 1.524 . S
C1757 C1758 1.397 . S
C1757 C1762 1.363 . S
C1758 H1735 0.950 . S
C1758 C1757 1.397 . S
C1758 C1759 1.334 . S
C1759 H1736 0.950 . S
C1759 C1758 1.334 . S
C1759 C1760 1.287 . S
C1760 C1759 1.287 . S
C1760 C1761 1.524 . S
C1760 H1779 0.913 . S
C1761 H1737 0.950 . S
C1761 C1760 1.524 . S
C1761 C1762 1.415 . S
C1762 H1738 0.950 . S
C1762 C1757 1.363 . S
C1762 C1761 1.415 . S
C1763 H1739 0.951 . S
C1763 C1764 1.366 . S
C1763 C1765 1.388 . S
C1764 C1763 1.366 . S
C1764 C1768 1.385 . S
C1765 H1740 0.951 . S
C1765 C1763 1.388 . S
C1765 C1766 1.366 . S
C1766 C1765 1.366 . S
C1766 C1767 1.414 . S
C1766 C1769 1.499 . S
C1767 H1741 0.950 . S
C1767 C1766 1.414 . S
C1767 C1768 1.374 . S
C1768 H1742 0.950 . S
C1768 C1764 1.385 . S
C1768 C1767 1.374 . S
C1769 C1766 1.499 . S
C1769 C1770 1.373 . S
C1769 C1771 1.389 . S
C1770 H1743 0.950 . S
C1770 C1756 1.377 . S
C1770 C1769 1.373 . S
C1771 C1755 1.377 . S
C1771 C1769 1.389 . S
C1771 C1772 1.524 . S
C1772 C1771 1.524 . S
C1772 C1773 1.397 . S
C1772 C1777 1.363 . S
C1773 H1744 0.950 . S
C1773 C1772 1.397 . S
C1773 C1774 1.334 . S
C1774 H1745 0.950 . S
C1774 C1773 1.334 . S
C1774 C1775 1.287 . S
C1775 C1774 1.287 . S
C1775 C1776 1.524 . S
C1775 H1778 0.999 . S
C1776 H1746 0.950 . S
C1776 C1775 1.524 . S
C1776 C1777 1.415 . S
C1777 H1747 0.950 . S
C1777 C1772 1.363 . S
C1777 C1776 1.415 . S
H1778 C1775 0.999 . S
H1779 C1760 0.913 . S
H1780 C1798 0.951 . S
H1781 C1800 0.951 . S
H1782 C1802 0.950 . S
H1783 C1803 0.950 . S
H1784 C1805 0.950 . S
H1785 C1808 0.950 . S
H1786 C1809 0.950 . S
H1787 C1811 0.950 . S
H1788 C1812 0.950 . S
H1789 C1813 0.951 . S
H1790 C1815 0.951 . S
H1791 C1817 0.950 . S
H1792 C1818 0.950 . S
H1793 C1820 0.950 . S
H1794 C1823 0.950 . S
H1795 C1824 0.950 . S
H1796 C1826 0.950 . S
H1797 C1827 0.950 . S
C1798 H1780 0.951 . S
C1798 C1799 1.366 . S
C1798 C1800 1.388 . S
C1799 C1798 1.366 . S
C1799 C1803 1.385 . S
C1800 H1781 0.951 . S
C1800 C1798 1.388 . S
C1800 C1801 1.366 . S
C1801 C1800 1.366 . S
C1801 C1802 1.414 . S
C1801 C1804 1.499 . S
C1802 H1782 0.950 . S
C1802 C1801 1.414 . S
C1802 C1803 1.374 . S
C1803 H1783 0.950 . S
C1803 C1799 1.385 . S
C1803 C1802 1.374 . S
C1804 C1801 1.499 . S
C1804 C1805 1.373 . S
C1804 C1806 1.389 . S
C1805 H1784 0.950 . S
C1805 C1804 1.373 . S
C1805 C1821 1.377 . S
C1806 C1804 1.389 . S
C1806 C1807 1.524 . S
C1806 C1820 1.377 . S
C1807 C1806 1.524 . S
C1807 C1808 1.397 . S
C1807 C1812 1.363 . S
C1808 H1785 0.950 . S
C1808 C1807 1.397 . S
C1808 C1809 1.334 . S
C1809 H1786 0.950 . S
C1809 C1808 1.334 . S
C1809 C1810 1.287 . S
C1810 C1809 1.287 . S
C1810 C1811 1.524 . S
C1810 H1829 0.913 . S
C1811 H1787 0.950 . S
C1811 C1810 1.524 . S
C1811 C1812 1.415 . S
C1812 H1788 0.950 . S
C1812 C1807 1.363 . S
C1812 C1811 1.415 . S
C1813 H1789 0.951 . S
C1813 C1814 1.366 . S
C1813 C1815 1.388 . S
C1814 C1813 1.366 . S
C1814 C1818 1.385 . S
C1815 H1790 0.951 . S
C1815 C1813 1.388 . S
C1815 C1816 1.366 . S
C1816 C1815 1.366 . S
C1816 C1817 1.414 . S
C1816 C1819 1.499 . S
C1817 H1791 0.950 . S
C1817 C1816 1.414 . S
C1817 C1818 1.374 . S
C1818 H1792 0.950 . S
C1818 C1814 1.385 . S
C1818 C1817 1.374 . S
C1819 C1816 1.499 . S
C1819 C1820 1.373 . S
C1819 C1821 1.389 . S
C1820 H1793 0.950 . S
C1820 C1806 1.377 . S
C1820 C1819 1.373 . S
C1821 C1805 1.377 . S
C1821 C1819 1.389 . S
C1821 C1822 1.524 . S
C1822 C1821 1.524 . S
C1822 C1823 1.397 . S
C1822 C1827 1.363 . S
C1823 H1794 0.950 . S
C1823 C1822 1.397 . S
C1823 C1824 1.334 . S
C1824 H1795 0.950 . S
C1824 C1823 1.334 . S
C1824 C1825 1.287 . S
C1825 C1824 1.287 . S
C1825 C1826 1.524 . S
C1825 H1828 0.999 . S
C1826 H1796 0.950 . S
C1826 C1825 1.524 . S
C1826 C1827 1.415 . S
C1827 H1797 0.950 . S
C1827 C1822 1.363 . S
C1827 C1826 1.415 . S
H1828 C1825 0.999 . S
H1829 C1810 0.913 . S
H1830 C1848 0.951 . S
H1831 C1850 0.951 . S
H1832 C1852 0.950 . S
H1833 C1853 0.950 . S
H1834 C1855 0.950 . S
H1835 C1858 0.950 . S
H1836 C1859 0.950 . S
H1837 C1861 0.950 . S
H1838 C1862 0.950 . S
H1839 C1863 0.951 . S
H1840 C1865 0.951 . S
H1841 C1867 0.950 . S
H1842 C1868 0.950 . S
H1843 C1870 0.950 . S
H1844 C1873 0.950 . S
H1845 C1874 0.950 . S
H1846 C1876 0.950 . S
H1847 C1877 0.950 . S
C1848 H1830 0.951 . S
C1848 C1849 1.366 . S
C1848 C1850 1.388 . S
C1849 C1848 1.366 . S
C1849 C1853 1.385 . S
C1850 H1831 0.951 . S
C1850 C1848 1.388 . S
C1850 C1851 1.366 . S
C1851 C1850 1.366 . S
C1851 C1852 1.414 . S
C1851 C1854 1.499 . S
C1852 H1832 0.950 . S
C1852 C1851 1.414 . S
C1852 C1853 1.374 . S
C1853 H1833 0.950 . S
C1853 C1849 1.385 . S
C1853 C1852 1.374 . S
C1854 C1851 1.499 . S
C1854 C1855 1.373 . S
C1854 C1856 1.389 . S
C1855 H1834 0.950 . S
C1855 C1854 1.373 . S
C1855 C1871 1.377 . S
C1856 C1854 1.389 . S
C1856 C1857 1.524 . S
C1856 C1870 1.377 . S
C1857 C1856 1.524 . S
C1857 C1858 1.397 . S
C1857 C1862 1.363 . S
C1858 H1835 0.950 . S
C1858 C1857 1.397 . S
C1858 C1859 1.334 . S
C1859 H1836 0.950 . S
C1859 C1858 1.334 . S
C1859 C1860 1.287 . S
C1860 C1859 1.287 . S
C1860 C1861 1.524 . S
C1860 H1879 0.913 . S
C1861 H1837 0.950 . S
C1861 C1860 1.524 . S
C1861 C1862 1.415 . S
C1862 H1838 0.950 . S
C1862 C1857 1.363 . S
C1862 C1861 1.415 . S
C1863 H1839 0.951 . S
C1863 C1864 1.366 . S
C1863 C1865 1.388 . S
C1864 C1863 1.366 . S
C1864 C1868 1.385 . S
C1865 H1840 0.951 . S
C1865 C1863 1.388 . S
C1865 C1866 1.366 . S
C1866 C1865 1.366 . S
C1866 C1867 1.414 . S
C1866 C1869 1.499 . S
C1867 H1841 0.950 . S
C1867 C1866 1.414 . S
C1867 C1868 1.374 . S
C1868 H1842 0.950 . S
C1868 C1864 1.385 . S
C1868 C1867 1.374 . S
C1869 C1866 1.499 . S
C1869 C1870 1.373 . S
C1869 C1871 1.389 . S
C1870 H1843 0.950 . S
C1870 C1856 1.377 . S
C1870 C1869 1.373 . S
C1871 C1855 1.377 . S
C1871 C1869 1.389 . S
C1871 C1872 1.524 . S
C1872 C1871 1.524 . S
C1872 C1873 1.397 . S
C1872 C1877 1.363 . S
C1873 H1844 0.950 . S
C1873 C1872 1.397 . S
C1873 C1874 1.334 . S
C1874 H1845 0.950 . S
C1874 C1873 1.334 . S
C1874 C1875 1.287 . S
C1875 C1874 1.287 . S
C1875 C1876 1.524 . S
C1875 H1878 0.999 . S
C1876 H1846 0.950 . S
C1876 C1875 1.524 . S
C1876 C1877 1.415 . S
C1877 H1847 0.950 . S
C1877 C1872 1.363 . S
C1877 C1876 1.415 . S
H1878 C1875 0.999 . S
H1879 C1860 0.913 . S
H1880 C1898 0.951 . S
H1881 C1900 0.951 . S
H1882 C1902 0.950 . S
H1883 C1903 0.950 . S
H1884 C1905 0.950 . S
H1885 C1908 0.950 . S
H1886 C1909 0.950 . S
H1887 C1911 0.950 . S
H1888 C1912 0.950 . S
H1889 C1913 0.951 . S
H1890 C1915 0.951 . S
H1891 C1917 0.950 . S
H1892 C1918 0.950 . S
H1893 C1920 0.950 . S
H1894 C1923 0.950 . S
H1895 C1924 0.950 . S
H1896 C1926 0.950 . S
H1897 C1927 0.950 . S
C1898 H1880 0.951 . S
C1898 C1899 1.366 . S
C1898 C1900 1.388 . S
C1899 C1898 1.366 . S
C1899 C1903 1.385 . S
C1900 H1881 0.951 . S
C1900 C1898 1.388 . S
C1900 C1901 1.366 . S
C1901 C1900 1.366 . S
C1901 C1902 1.414 . S
C1901 C1904 1.499 . S
C1902 H1882 0.950 . S
C1902 C1901 1.414 . S
C1902 C1903 1.374 . S
C1903 H1883 0.950 . S
C1903 C1899 1.385 . S
C1903 C1902 1.374 . S
C1904 C1901 1.499 . S
C1904 C1905 1.373 . S
C1904 C1906 1.389 . S
C1905 H1884 0.950 . S
C1905 C1904 1.373 . S
C1905 C1921 1.377 . S
C1906 C1904 1.389 . S
C1906 C1907 1.524 . S
C1906 C1920 1.377 . S
C1907 C1906 1.524 . S
C1907 C1908 1.397 . S
C1907 C1912 1.363 . S
C1908 H1885 0.950 . S
C1908 C1907 1.397 . S
C1908 C1909 1.334 . S
C1909 H1886 0.950 . S
C1909 C1908 1.334 . S
C1909 C1910 1.287 . S
C1910 C1909 1.287 . S
C1910 C1911 1.524 . S
C1910 H1929 0.913 . S
C1911 H1887 0.950 . S
C1911 C1910 1.524 . S
C1911 C1912 1.415 . S
C1912 H1888 0.950 . S
C1912 C1907 1.363 . S
C1912 C1911 1.415 . S
C1913 H1889 0.951 . S
C1913 C1914 1.366 . S
C1913 C1915 1.388 . S
C1914 C1913 1.366 . S
C1914 C1918 1.385 . S
C1915 H1890 0.951 . S
C1915 C1913 1.388 . S
C1915 C1916 1.366 . S
C1916 C1915 1.366 . S
C1916 C1917 1.414 . S
C1916 C1919 1.499 . S
C1917 H1891 0.950 . S
C1917 C1916 1.414 . S
C1917 C1918 1.374 . S
C1918 H1892 0.950 . S
C1918 C1914 1.385 . S
C1918 C1917 1.374 . S
C1919 C1916 1.499 . S
C1919 C1920 1.373 . S
C1919 C1921 1.389 . S
C1920 H1893 0.950 . S
C1920 C1906 1.377 . S
C1920 C1919 1.373 . S
C1921 C1905 1.377 . S
C1921 C1919 1.389 . S
C1921 C1922 1.524 . S
C1922 C1921 1.524 . S
C1922 C1923 1.397 . S
C1922 C1927 1.363 . S
C1923 H1894 0.950 . S
C1923 C1922 1.397 . S
C1923 C1924 1.334 . S
C1924 H1895 0.950 . S
C1924 C1923 1.334 . S
C1924 C1925 1.287 . S
C1925 C1924 1.287 . S
C1925 C1926 1.524 . S
C1925 H1928 0.999 . S
C1926 H1896 0.950 . S
C1926 C1925 1.524 . S
C1926 C1927 1.415 . S
C1927 H1897 0.950 . S
C1927 C1922 1.363 . S
C1927 C1926 1.415 . S
H1928 C1925 0.999 . S
H1929 C1910 0.913 . S
H1930 C1948 0.951 . S
H1931 C1950 0.951 . S
H1932 C1952 0.950 . S
H1933 C1953 0.950 . S
H1934 C1955 0.950 . S
H1935 C1958 0.950 . S
H1936 C1959 0.950 . S
H1937 C1961 0.950 . S
H1938 C1962 0.950 . S
H1939 C1963 0.951 . S
H1940 C1965 0.951 . S
H1941 C1967 0.950 . S
H1942 C1968 0.950 . S
H1943 C1970 0.950 . S
H1944 C1973 0.950 . S
H1945 C1974 0.950 . S
H1946 C1976 0.950 . S
H1947 C1977 0.950 . S
C1948 H1930 0.951 . S
C1948 C1949 1.366 . S
C1948 C1950 1.388 . S
C1949 C1948 1.366 . S
C1949 C1953 1.385 . S
C1950 H1931 0.951 . S
C1950 C1948 1.388 . S
C1950 C1951 1.366 . S
C1951 C1950 1.366 . S
C1951 C1952 1.414 . S
C1951 C1954 1.499 . S
C1952 H1932 0.950 . S
C1952 C1951 1.414 . S
C1952 C1953 1.374 . S
C1953 H1933 0.950 . S
C1953 C1949 1.385 . S
C1953 C1952 1.374 . S
C1954 C1951 1.499 . S
C1954 C1955 1.373 . S
C1954 C1956 1.389 . S
C1955 H1934 0.950 . S
C1955 C1954 1.373 . S
C1955 C1971 1.377 . S
C1956 C1954 1.389 . S
C1956 C1957 1.524 . S
C1956 C1970 1.377 . S
C1957 C1956 1.524 . S
C1957 C1958 1.397 . S
C1957 C1962 1.363 . S
C1958 H1935 0.950 . S
C1958 C1957 1.397 . S
C1958 C1959 1.334 . S
C1959 H1936 0.950 . S
C1959 C1958 1.334 . S
C1959 C1960 1.287 . S
C1960 C1959 1.287 . S
C1960 C1961 1.524 . S
C1960 H1979 0.913 . S
C1961 H1937 0.950 . S
C1961 C1960 1.524 . S
C1961 C1962 1.415 . S
C1962 H1938 0.950 . S
C1962 C1957 1.363 . S
C1962 C1961 1.415 . S
C1963 H1939 0.951 . S
C1963 C1964 1.366 . S
C1963 C1965 1.388 . S
C1964 C1963 1.366 . S
C1964 C1968 1.385 . S
C1965 H1940 0.951 . S
C1965 C1963 1.388 . S
C1965 C1966 1.366 . S
C1966 C1965 1.366 . S
C1966 C1967 1.414 . S
C1966 C1969 1.499 . S
C1967 H1941 0.950 . S
C1967 C1966 1.414 . S
C1967 C1968 1.374 . S
C1968 H1942 0.950 . S
C1968 C1964 1.385 . S
C1968 C1967 1.374 . S
C1969 C1966 1.499 . S
C1969 C1970 1.373 . S
C1969 C1971 1.389 . S
C1970 H1943 0.950 . S
C1970 C1956 1.377 . S
C1970 C1969 1.373 . S
C1971 C1955 1.377 . S
C1971 C1969 1.389 . S
C1971 C1972 1.524 . S
C1972 C1971 1.524 . S
C1972 C1973 1.397 . S
C1972 C1977 1.363 . S
C1973 H1944 0.950 . S
C1973 C1972 1.397 . S
C1973 C1974 1.334 . S
C1974 H1945 0.950 . S
C1974 C1973 1.334 . S
C1974 C1975 1.287 . S
C1975 C1974 1.287 . S
C1975 C1976 1.524 . S
C1975 H1978 0.999 . S
C1976 H1946 0.950 . S
C1976 C1975 1.524 . S
C1976 C1977 1.415 . S
C1977 H1947 0.950 . S
C1977 C1972 1.363 . S
C1977 C1976 1.415 . S
H1978 C1975 0.999 . S
H1979 C1960 0.913 . S
H1980 C1998 0.951 . S
H1981 C2000 0.951 . S
H1982 C2002 0.950 . S
H1983 C2003 0.950 . S
H1984 C2005 0.950 . S
H1985 C2008 0.948 1_554 S
H1986 C2009 0.950 . S
H1987 C2011 0.950 . S
H1988 C2012 0.950 . S
H1989 C2013 0.951 . S
H1990 C2015 0.951 . S
H1991 C2017 0.950 . S
H1992 C2018 0.950 . S
H1993 C2020 0.950 . S
H1994 C2023 0.948 1_556 S
H1995 C2024 0.950 . S
H1996 C2026 0.950 . S
H1997 C2027 0.950 . S
C1998 H1980 0.951 . S
C1998 C1999 1.366 . S
C1998 C2000 1.388 . S
C1999 C1998 1.366 . S
C1999 C2003 1.385 . S
C2000 H1981 0.951 . S
C2000 C1998 1.388 . S
C2000 C2001 1.366 . S
C2001 C2000 1.366 . S
C2001 C2002 1.414 . S
C2001 C2004 1.499 . S
C2002 H1982 0.950 . S
C2002 C2001 1.414 . S
C2002 C2003 1.374 . S
C2003 H1983 0.950 . S
C2003 C1999 1.385 . S
C2003 C2002 1.374 . S
C2004 C2001 1.499 . S
C2004 C2005 1.373 . S
C2004 C2006 1.389 . S
C2005 H1984 0.950 . S
C2005 C2004 1.373 . S
C2005 C2021 1.377 1_556 S
C2006 C2004 1.389 . S
C2006 C2007 1.524 . S
C2006 C2020 1.377 1_556 S
C2007 C2006 1.524 . S
C2007 C2008 1.397 . S
C2007 C2012 1.363 . S
C2008 H1985 0.948 1_556 S
C2008 C2007 1.397 . S
C2008 C2009 1.334 . S
C2009 H1986 0.950 . S
C2009 C2008 1.334 . S
C2009 C2010 1.287 . S
C2010 C2009 1.287 . S
C2010 C2011 1.524 . S
C2010 H2029 0.913 . S
C2011 H1987 0.950 . S
C2011 C2010 1.524 . S
C2011 C2012 1.415 . S
C2012 H1988 0.950 . S
C2012 C2007 1.363 . S
C2012 C2011 1.415 . S
C2013 H1989 0.951 . S
C2013 C2014 1.366 . S
C2013 C2015 1.388 . S
C2014 C2013 1.366 . S
C2014 C2018 1.385 . S
C2015 H1990 0.951 . S
C2015 C2013 1.388 . S
C2015 C2016 1.366 . S
C2016 C2015 1.366 . S
C2016 C2017 1.414 . S
C2016 C2019 1.499 . S
C2017 H1991 0.950 . S
C2017 C2016 1.414 . S
C2017 C2018 1.374 . S
C2018 H1992 0.950 . S
C2018 C2014 1.385 . S
C2018 C2017 1.374 . S
C2019 C2016 1.499 . S
C2019 C2020 1.373 . S
C2019 C2021 1.389 . S
C2020 H1993 0.950 . S
C2020 C2006 1.377 1_554 S
C2020 C2019 1.373 . S
C2021 C2005 1.377 1_554 S
C2021 C2019 1.389 . S
C2021 C2022 1.524 . S
C2022 C2021 1.524 . S
C2022 C2023 1.397 . S
C2022 C2027 1.363 . S
C2023 H1994 0.948 1_554 S
C2023 C2022 1.397 . S
C2023 C2024 1.334 . S
C2024 H1995 0.950 . S
C2024 C2023 1.334 . S
C2024 C2025 1.287 . S
C2025 C2024 1.287 . S
C2025 C2026 1.524 . S
C2025 H2028 0.999 . S
C2026 H1996 0.950 . S
C2026 C2025 1.524 . S
C2026 C2027 1.415 . S
C2027 H1997 0.950 . S
C2027 C2022 1.363 . S
C2027 C2026 1.415 . S
H2028 C2025 0.999 . S
H2029 C2010 0.913 . S
H2030 C2048 0.951 . S
H2031 C2050 0.951 . S
H2032 C2052 0.950 . S
H2033 C2053 0.950 . S
H2034 C2055 0.950 . S
H2035 C2058 0.950 . S
H2036 C2059 0.950 . S
H2037 C2061 0.950 . S
H2038 C2062 0.950 . S
H2039 C2063 0.951 . S
H2040 C2065 0.951 . S
H2041 C2067 0.950 . S
H2042 C2068 0.950 . S
H2043 C2070 0.950 . S
H2044 C2073 0.950 . S
H2045 C2074 0.950 . S
H2046 C2076 0.950 . S
H2047 C2077 0.950 . S
C2048 H2030 0.951 . S
C2048 C2049 1.366 . S
C2048 C2050 1.388 . S
C2049 C2048 1.366 . S
C2049 C2053 1.385 . S
C2050 H2031 0.951 . S
C2050 C2048 1.388 . S
C2050 C2051 1.366 . S
C2051 C2050 1.366 . S
C2051 C2052 1.414 . S
C2051 C2054 1.499 . S
C2052 H2032 0.950 . S
C2052 C2051 1.414 . S
C2052 C2053 1.374 . S
C2053 H2033 0.950 . S
C2053 C2049 1.385 . S
C2053 C2052 1.374 . S
C2054 C2051 1.499 . S
C2054 C2055 1.373 . S
C2054 C2056 1.389 1_455 S
C2055 H2034 0.950 . S
C2055 C2054 1.373 . S
C2055 C2071 1.377 . S
C2056 C2054 1.389 1_655 S
C2056 C2057 1.524 . S
C2056 C2070 1.377 . S
C2057 C2056 1.524 . S
C2057 C2058 1.397 . S
C2057 C2062 1.363 . S
C2058 H2035 0.950 . S
C2058 C2057 1.397 . S
C2058 C2059 1.334 . S
C2059 H2036 0.950 . S
C2059 C2058 1.334 . S
C2059 C2060 1.287 . S
C2060 C2059 1.287 . S
C2060 C2061 1.524 . S
C2060 H2079 0.913 . S
C2061 H2037 0.950 . S
C2061 C2060 1.524 . S
C2061 C2062 1.415 . S
C2062 H2038 0.950 . S
C2062 C2057 1.363 . S
C2062 C2061 1.415 . S
C2063 H2039 0.951 . S
C2063 C2064 1.366 . S
C2063 C2065 1.388 . S
C2064 C2063 1.366 . S
C2064 C2068 1.385 . S
C2065 H2040 0.951 . S
C2065 C2063 1.388 . S
C2065 C2066 1.366 . S
C2066 C2065 1.366 . S
C2066 C2067 1.414 . S
C2066 C2069 1.499 . S
C2067 H2041 0.950 . S
C2067 C2066 1.414 . S
C2067 C2068 1.374 . S
C2068 H2042 0.950 . S
C2068 C2064 1.385 . S
C2068 C2067 1.374 . S
C2069 C2066 1.499 . S
C2069 C2070 1.373 . S
C2069 C2071 1.389 1_655 S
C2070 H2043 0.950 . S
C2070 C2056 1.377 . S
C2070 C2069 1.373 . S
C2071 C2055 1.377 . S
C2071 C2069 1.389 1_455 S
C2071 C2072 1.524 . S
C2072 C2071 1.524 . S
C2072 C2073 1.397 . S
C2072 C2077 1.363 . S
C2073 H2044 0.950 . S
C2073 C2072 1.397 . S
C2073 C2074 1.334 . S
C2074 H2045 0.950 . S
C2074 C2073 1.334 . S
C2074 C2075 1.287 . S
C2075 C2074 1.287 . S
C2075 C2076 1.524 . S
C2075 H2078 0.999 . S
C2076 H2046 0.950 . S
C2076 C2075 1.524 . S
C2076 C2077 1.415 . S
C2077 H2047 0.950 . S
C2077 C2072 1.363 . S
C2077 C2076 1.415 . S
H2078 C2075 0.999 . S
H2079 C2060 0.913 . S
H2080 C2098 0.951 . S
H2081 C2100 0.951 . S
H2082 C2102 0.950 . S
H2083 C2103 0.950 . S
H2084 C2105 0.950 . S
H2085 C2108 0.950 . S
H2086 C2109 0.950 . S
H2087 C2111 0.950 . S
H2088 C2112 0.950 . S
H2089 C2113 0.951 . S
H2090 C2115 0.951 . S
H2091 C2117 0.950 . S
H2092 C2118 0.950 . S
H2093 C2120 0.950 . S
H2094 C2123 0.950 . S
H2095 C2124 0.950 . S
H2096 C2126 0.950 . S
H2097 C2127 0.950 . S
C2098 H2080 0.951 . S
C2098 C2099 1.366 . S
C2098 C2100 1.388 . S
C2099 C2098 1.366 . S
C2099 C2103 1.385 . S
C2100 H2081 0.951 . S
C2100 C2098 1.388 . S
C2100 C2101 1.366 . S
C2101 C2100 1.366 . S
C2101 C2102 1.414 . S
C2101 C2104 1.499 . S
C2102 H2082 0.950 . S
C2102 C2101 1.414 . S
C2102 C2103 1.374 . S
C2103 H2083 0.950 . S
C2103 C2099 1.385 . S
C2103 C2102 1.374 . S
C2104 C2101 1.499 . S
C2104 C2105 1.373 1_565 S
C2104 C2106 1.389 1_554 S
C2105 H2084 0.950 . S
C2105 C2104 1.373 1_545 S
C2105 C2121 1.377 . S
C2106 C2104 1.389 1_556 S
C2106 C2107 1.524 . S
C2106 C2120 1.377 . S
C2107 C2106 1.524 . S
C2107 C2108 1.397 . S
C2107 C2112 1.363 . S
C2108 H2085 0.950 . S
C2108 C2107 1.397 . S
C2108 C2109 1.334 . S
C2109 H2086 0.950 . S
C2109 C2108 1.334 . S
C2109 C2110 1.287 . S
C2110 C2109 1.287 . S
C2110 C2111 1.524 . S
C2110 H2129 0.913 . S
C2111 H2087 0.950 . S
C2111 C2110 1.524 . S
C2111 C2112 1.415 . S
C2112 H2088 0.950 . S
C2112 C2107 1.363 . S
C2112 C2111 1.415 . S
C2113 H2089 0.951 . S
C2113 C2114 1.366 . S
C2113 C2115 1.388 . S
C2114 C2113 1.366 . S
C2114 C2118 1.385 . S
C2115 H2090 0.951 . S
C2115 C2113 1.388 . S
C2115 C2116 1.366 . S
C2116 C2115 1.366 . S
C2116 C2117 1.414 . S
C2116 C2119 1.499 . S
C2117 H2091 0.950 . S
C2117 C2116 1.414 . S
C2117 C2118 1.374 . S
C2118 H2092 0.950 . S
C2118 C2114 1.385 . S
C2118 C2117 1.374 . S
C2119 C2116 1.499 . S
C2119 C2120 1.373 1_545 S
C2119 C2121 1.389 1_556 S
C2120 H2093 0.950 . S
C2120 C2106 1.377 . S
C2120 C2119 1.373 1_565 S
C2121 C2105 1.377 . S
C2121 C2119 1.389 1_554 S
C2121 C2122 1.524 . S
C2122 C2121 1.524 . S
C2122 C2123 1.397 . S
C2122 C2127 1.363 . S
C2123 H2094 0.950 . S
C2123 C2122 1.397 . S
C2123 C2124 1.334 . S
C2124 H2095 0.950 . S
C2124 C2123 1.334 . S
C2124 C2125 1.287 . S
C2125 C2124 1.287 . S
C2125 C2126 1.524 . S
C2125 H2128 0.999 . S
C2126 H2096 0.950 . S
C2126 C2125 1.524 . S
C2126 C2127 1.415 . S
C2127 H2097 0.950 . S
C2127 C2122 1.363 . S
C2127 C2126 1.415 . S
H2128 C2125 0.999 . S
H2129 C2110 0.913 . S
H2130 C2148 0.951 . S
H2131 C2150 0.951 . S
H2132 C2152 0.950 . S
H2133 C2153 0.950 . S
H2134 C2155 0.950 . S
H2135 C2158 0.950 . S
H2136 C2159 0.950 . S
H2137 C2161 0.950 . S
H2138 C2162 0.950 . S
H2139 C2163 0.951 . S
H2140 C2165 0.951 . S
H2141 C2167 0.950 . S
H2142 C2168 0.950 . S
H2143 C2170 0.950 . S
H2144 C2173 0.950 . S
H2145 C2174 0.950 . S
H2146 C2176 0.950 . S
H2147 C2177 0.950 . S
C2148 H2130 0.951 . S
C2148 C2149 1.366 . S
C2148 C2150 1.388 . S
C2149 C2148 1.366 . S
C2149 C2153 1.385 . S
C2150 H2131 0.951 . S
C2150 C2148 1.388 . S
C2150 C2151 1.366 . S
C2151 C2150 1.366 . S
C2151 C2152 1.414 . S
C2151 C2154 1.499 . S
C2152 H2132 0.950 . S
C2152 C2151 1.414 . S
C2152 C2153 1.374 . S
C2153 H2133 0.950 . S
C2153 C2149 1.385 . S
C2153 C2152 1.374 . S
C2154 C2151 1.499 . S
C2154 C2155 1.373 . S
C2154 C2156 1.389 . S
C2155 H2134 0.950 . S
C2155 C2154 1.373 . S
C2155 C2171 1.377 . S
C2156 C2154 1.389 . S
C2156 C2157 1.524 . S
C2156 C2170 1.377 . S
C2157 C2156 1.524 . S
C2157 C2158 1.397 . S
C2157 C2162 1.363 . S
C2158 H2135 0.950 . S
C2158 C2157 1.397 . S
C2158 C2159 1.334 . S
C2159 H2136 0.950 . S
C2159 C2158 1.334 . S
C2159 C2160 1.287 . S
C2160 C2159 1.287 . S
C2160 C2161 1.524 . S
C2160 H2179 0.913 . S
C2161 H2137 0.950 . S
C2161 C2160 1.524 . S
C2161 C2162 1.415 . S
C2162 H2138 0.950 . S
C2162 C2157 1.363 . S
C2162 C2161 1.415 . S
C2163 H2139 0.951 . S
C2163 C2164 1.366 . S
C2163 C2165 1.388 . S
C2164 C2163 1.366 . S
C2164 C2168 1.385 . S
C2165 H2140 0.951 . S
C2165 C2163 1.388 . S
C2165 C2166 1.366 . S
C2166 C2165 1.366 . S
C2166 C2167 1.414 . S
C2166 C2169 1.499 . S
C2167 H2141 0.950 . S
C2167 C2166 1.414 . S
C2167 C2168 1.374 . S
C2168 H2142 0.950 . S
C2168 C2164 1.385 . S
C2168 C2167 1.374 . S
C2169 C2166 1.499 . S
C2169 C2170 1.373 . S
C2169 C2171 1.389 . S
C2170 H2143 0.950 . S
C2170 C2156 1.377 . S
C2170 C2169 1.373 . S
C2171 C2155 1.377 . S
C2171 C2169 1.389 . S
C2171 C2172 1.524 . S
C2172 C2171 1.524 . S
C2172 C2173 1.397 . S
C2172 C2177 1.363 . S
C2173 H2144 0.950 . S
C2173 C2172 1.397 . S
C2173 C2174 1.334 . S
C2174 H2145 0.950 . S
C2174 C2173 1.334 . S
C2174 C2175 1.287 . S
C2175 C2174 1.287 . S
C2175 C2176 1.524 . S
C2175 H2178 0.999 . S
C2176 H2146 0.950 . S
C2176 C2175 1.524 . S
C2176 C2177 1.415 . S
C2177 H2147 0.950 . S
C2177 C2172 1.363 . S
C2177 C2176 1.415 . S
H2178 C2175 0.999 . S
H2179 C2160 0.913 . S
H2180 C2198 0.951 . S
H2181 C2200 0.951 . S
H2182 C2202 0.950 . S
H2183 C2203 0.950 . S
H2184 C2205 0.950 . S
H2185 C2208 0.950 . S
H2186 C2209 0.950 . S
H2187 C2211 0.950 . S
H2188 C2212 0.950 . S
H2189 C2213 0.951 . S
H2190 C2215 0.951 . S
H2191 C2217 0.950 . S
H2192 C2218 0.950 . S
H2193 C2220 0.950 . S
H2194 C2223 0.950 . S
H2195 C2224 0.950 . S
H2196 C2226 0.950 . S
H2197 C2227 0.950 . S
C2198 H2180 0.951 . S
C2198 C2199 1.366 . S
C2198 C2200 1.388 . S
C2199 C2198 1.366 . S
C2199 C2203 1.385 . S
C2200 H2181 0.951 . S
C2200 C2198 1.388 . S
C2200 C2201 1.366 . S
C2201 C2200 1.366 . S
C2201 C2202 1.414 . S
C2201 C2204 1.499 . S
C2202 H2182 0.950 . S
C2202 C2201 1.414 . S
C2202 C2203 1.374 . S
C2203 H2183 0.950 . S
C2203 C2199 1.385 . S
C2203 C2202 1.374 . S
C2204 C2201 1.499 . S
C2204 C2205 1.373 . S
C2204 C2206 1.389 . S
C2205 H2184 0.950 . S
C2205 C2204 1.373 . S
C2205 C2221 1.377 1_656 S
C2206 C2204 1.389 . S
C2206 C2207 1.524 . S
C2206 C2220 1.377 1_656 S
C2207 C2206 1.524 . S
C2207 C2208 1.397 . S
C2207 C2212 1.363 1_556 S
C2208 H2185 0.950 . S
C2208 C2207 1.397 . S
C2208 C2209 1.334 . S
C2209 H2186 0.950 . S
C2209 C2208 1.334 . S
C2209 C2210 1.287 . S
C2210 C2209 1.287 . S
C2210 C2211 1.524 1_556 S
C2210 H2229 0.913 . S
C2211 H2187 0.950 . S
C2211 C2210 1.524 1_554 S
C2211 C2212 1.415 . S
C2212 H2188 0.950 . S
C2212 C2207 1.363 1_554 S
C2212 C2211 1.415 . S
C2213 H2189 0.951 . S
C2213 C2214 1.366 . S
C2213 C2215 1.388 . S
C2214 C2213 1.366 . S
C2214 C2218 1.385 . S
C2215 H2190 0.951 . S
C2215 C2213 1.388 . S
C2215 C2216 1.366 . S
C2216 C2215 1.366 . S
C2216 C2217 1.414 . S
C2216 C2219 1.499 . S
C2217 H2191 0.950 . S
C2217 C2216 1.414 . S
C2217 C2218 1.374 . S
C2218 H2192 0.950 . S
C2218 C2214 1.385 . S
C2218 C2217 1.374 . S
C2219 C2216 1.499 . S
C2219 C2220 1.373 . S
C2219 C2221 1.389 . S
C2220 H2193 0.950 . S
C2220 C2206 1.377 1_454 S
C2220 C2219 1.373 . S
C2221 C2205 1.377 1_454 S
C2221 C2219 1.389 . S
C2221 C2222 1.524 . S
C2222 C2221 1.524 . S
C2222 C2223 1.397 . S
C2222 C2227 1.363 1_554 S
C2223 H2194 0.950 . S
C2223 C2222 1.397 . S
C2223 C2224 1.334 . S
C2224 H2195 0.950 . S
C2224 C2223 1.334 . S
C2224 C2225 1.287 . S
C2225 C2224 1.287 . S
C2225 C2226 1.524 1_554 S
C2225 H2228 0.999 . S
C2226 H2196 0.950 . S
C2226 C2225 1.524 1_556 S
C2226 C2227 1.415 . S
C2227 H2197 0.950 . S
C2227 C2222 1.363 1_556 S
C2227 C2226 1.415 . S
H2228 C2225 0.999 . S
H2229 C2210 0.913 . S
H2230 C2248 0.951 . S
H2231 C2250 0.951 . S
H2232 C2252 0.950 . S
H2233 C2253 0.950 . S
H2234 C2255 0.950 . S
H2235 C2258 0.950 1_565 S
H2236 C2259 0.950 . S
H2237 C2261 0.950 . S
H2238 C2262 0.950 . S
H2239 C2263 0.951 . S
H2240 C2265 0.951 . S
H2241 C2267 0.950 . S
H2242 C2268 0.950 . S
H2243 C2270 0.950 . S
H2244 C2273 0.950 1_545 S
H2245 C2274 0.950 . S
H2246 C2276 0.950 . S
H2247 C2277 0.950 . S
C2248 H2230 0.951 . S
C2248 C2249 1.366 . S
C2248 C2250 1.388 . S
C2249 C2248 1.366 . S
C2249 C2253 1.385 . S
C2250 H2231 0.951 . S
C2250 C2248 1.388 . S
C2250 C2251 1.366 . S
C2251 C2250 1.366 . S
C2251 C2252 1.414 . S
C2251 C2254 1.499 . S
C2252 H2232 0.950 . S
C2252 C2251 1.414 . S
C2252 C2253 1.374 . S
C2253 H2233 0.950 . S
C2253 C2249 1.385 . S
C2253 C2252 1.374 . S
C2254 C2251 1.499 . S
C2254 C2255 1.373 . S
C2254 C2256 1.389 1_565 S
C2255 H2234 0.950 . S
C2255 C2254 1.373 . S
C2255 C2271 1.377 . S
C2256 C2254 1.389 1_545 S
C2256 C2257 1.524 . S
C2256 C2270 1.377 . S
C2257 C2256 1.524 . S
C2257 C2258 1.397 . S
C2257 C2262 1.363 . S
C2258 H2235 0.950 1_545 S
C2258 C2257 1.397 . S
C2258 C2259 1.334 . S
C2259 H2236 0.950 . S
C2259 C2258 1.334 . S
C2259 C2260 1.287 . S
C2260 C2259 1.287 . S
C2260 C2261 1.524 . S
C2260 H2279 0.913 . S
C2261 H2237 0.950 . S
C2261 C2260 1.524 . S
C2261 C2262 1.415 . S
C2262 H2238 0.950 . S
C2262 C2257 1.363 . S
C2262 C2261 1.415 . S
C2263 H2239 0.951 . S
C2263 C2264 1.366 . S
C2263 C2265 1.388 . S
C2264 C2263 1.366 . S
C2264 C2268 1.385 . S
C2265 H2240 0.951 . S
C2265 C2263 1.388 . S
C2265 C2266 1.366 . S
C2266 C2265 1.366 . S
C2266 C2267 1.414 . S
C2266 C2269 1.499 . S
C2267 H2241 0.950 . S
C2267 C2266 1.414 . S
C2267 C2268 1.374 . S
C2268 H2242 0.950 . S
C2268 C2264 1.385 . S
C2268 C2267 1.374 . S
C2269 C2266 1.499 . S
C2269 C2270 1.373 . S
C2269 C2271 1.389 1_545 S
C2270 H2243 0.950 . S
C2270 C2256 1.377 . S
C2270 C2269 1.373 . S
C2271 C2255 1.377 . S
C2271 C2269 1.389 1_565 S
C2271 C2272 1.524 . S
C2272 C2271 1.524 . S
C2272 C2273 1.397 . S
C2272 C2277 1.363 . S
C2273 H2244 0.950 1_565 S
C2273 C2272 1.397 . S
C2273 C2274 1.334 . S
C2274 H2245 0.950 . S
C2274 C2273 1.334 . S
C2274 C2275 1.287 . S
C2275 C2274 1.287 . S
C2275 C2276 1.524 . S
C2275 H2278 0.999 . S
C2276 H2246 0.950 . S
C2276 C2275 1.524 . S
C2276 C2277 1.415 . S
C2277 H2247 0.950 . S
C2277 C2272 1.363 . S
C2277 C2276 1.415 . S
H2278 C2275 0.999 . S
H2279 C2260 0.913 . S
C499 C169 1.179 . S
C514 C5 1.205 . S
C549 C209 1.179 . S
C564 C45 1.205 . S
C599 C85 1.205 . S
C614 C9 1.179 . S
C649 C125 1.205 . S
C664 C49 1.180 . S
C699 C165 1.205 . S
C714 C89 1.179 . S
C749 C129 1.179 . S
C764 C205 1.205 . S
C799 C329 1.179 . S
C814 C245 1.205 . S
C849 C285 1.205 . S
C864 C369 1.180 . S
C899 C409 1.179 . S
C914 C325 1.205 . S
C949 C365 1.205 . S
C964 C449 1.179 . S
C999 C405 1.205 . S
C1014 C249 1.180 . S
C1049 C289 1.180 . S
C1064 C445 1.205 . S
C1099 C179 1.671 . S
C1114 C15 1.675 . S
C1149 C55 1.675 . S
C1164 C219 1.671 . S
C1199 C95 1.675 . S
C1214 C19 1.671 . S
C1249 C135 1.675 . S
C1264 C59 1.671 . S
C1299 C99 1.671 . S
C1314 C175 1.675 . S
C1349 C139 1.671 . S
C1364 C215 1.675 . S
C1399 C339 1.671 . S
C1414 C255 1.675 . S
C1449 C295 1.675 . S
C1464 C379 1.671 . S
C1499 C335 1.675 . S
C1514 C419 1.671 . S
C1549 C459 1.671 . S
C1564 C375 1.675 . S
C1599 C415 1.675 . S
C1614 C259 1.671 . S
C1649 C299 1.671 . S
C1664 C455 1.675 . S
C1699 C408 1.641 . S
C1714 C8 1.641 . S
C1749 C48 1.640 . S
C1764 C448 1.640 . S
C1799 C88 1.641 . S
C1814 C248 1.641 . S
C1849 C128 1.642 . S
C1864 C288 1.641 . S
C1899 C168 1.640 . S
C1914 C328 1.640 . S
C1949 C368 1.641 . S
C1964 C208 1.641 . S
C1999 C378 2.070 . S
C2014 C18 2.070 . S
C2049 C418 2.070 . S
C2064 C58 2.070 . S
C2099 C98 2.070 . S
C2114 C458 2.070 . S
C2149 C138 2.070 . S
C2164 C258 2.070 . S
C2199 C298 2.070 . S
C2214 C178 2.070 . S
C2249 C338 2.070 . S
C2264 C218 2.070 . S
