# Generated by pormake.
# Topology kag, (6)-cn, num edge types: 1
# Building blocks:
#     Node 0, Type 0, BuildingBlock: GEDQOX_clean_sbu_0, # of connection points: 6
#     Node 1, Type 0, BuildingBlock: GEDQOX_clean_sbu_0, # of connection points: 6
#     Node 2, Type 0, BuildingBlock: GEDQOX_clean_sbu_0, # of connection points: 6
#     Edge 3, Type (0, 0), BuildingBlock: EZIPEK_clean_linker_0, # of connection points: 2
#     Edge 4, Type (0, 0), BuildingBlock: EZIPEK_clean_linker_0, # of connection points: 2
#     Edge 5, Type (0, 0), BuildingBlock: EZIPEK_clean_linker_0, # of connection points: 2
#     Edge 6, Type (0, 0), BuildingBlock: EZIPEK_clean_linker_0, # of connection points: 2
#     Edge 7, Type (0, 0), BuildingBlock: EZIPEK_clean_linker_0, # of connection points: 2
#     Edge 8, Type (0, 0), BuildingBlock: EZIPEK_clean_linker_0, # of connection points: 2
#     Edge 9, Type (0, 0), BuildingBlock: EZIPEK_clean_linker_0, # of connection points: 2
#     Edge 10, Type (0, 0), BuildingBlock: EZIPEK_clean_linker_0, # of connection points: 2
#     Edge 11, Type (0, 0), BuildingBlock: EZIPEK_clean_linker_0, # of connection points: 2
# Relax obj value: 0.117
# Max RMSD: 0.242
# Mean RMSD: 0.135
data_MOF--net-kag--node1-GEDQOX_clean_sbu_0--edge1-EZIPEK_clean_linker_0
_symmetry_space_group_name_H-M    P1
_symmetry_Int_Tables_number       1
_symmetry_cell_setting            triclinic
loop_
_symmetry_equiv_pos_as_xyz
'x, y, z'
_cell_length_a     40.83802
_cell_length_b     34.492793
_cell_length_c     10.85631
_cell_angle_alpha  94.721488
_cell_angle_beta   88.576971
_cell_angle_gamma 144.43996
loop_
_atom_site_label
_atom_site_type_symbol
_atom_site_fract_x
_atom_site_fract_y
_atom_site_fract_z
_atom_type_partial_charge
Nd0 Nd 1.05734 0.57904 0.00409 0.0
Nd1 Nd 0.06597 0.50317 0.99274 0.0
C2 C 0.06433 0.66227 0.05666 0.0
C3 C 1.02965 0.66393 0.0742 0.0
C4 C 0.97153 0.60775 0.03873 0.0
C5 C 0.94071 0.61278 0.04815 0.0
C6 C 0.96787 0.67404 0.09281 0.0
C7 C 1.02562 0.72949 0.13052 0.0
C8 C 1.05623 0.72444 0.12133 0.0
C9 C 1.04653 0.53522 0.76346 0.0
C10 C 0.93672 0.41822 0.99629 0.0
C11 C 1.06205 0.4228 0.94212 0.0
C12 C 0.10116 0.42758 0.92697 0.0
C13 C 0.15472 0.48374 0.88252 0.0
C14 C 0.19126 0.48713 0.87088 0.0
C15 C 0.17482 0.43473 0.90466 0.0
C16 C 0.12143 0.3789 0.94942 0.0
C17 C 0.0849 0.37537 0.96041 0.0
C18 C 0.07703 0.54751 0.23306 0.0
C19 C 0.18654 0.66377 -0.00027 0.0
O20 O 0.06465 0.63776 0.14139 0.0
O21 O 0.06329 0.64438 0.94452 0.0
O22 O 1.01492 0.53266 0.80652 0.0
O23 O 0.08241 0.56018 0.84754 0.0
O24 O 0.96226 0.47685 0.02315 0.0
O25 O 0.96725 0.41613 0.96959 0.0
O26 O 1.05951 0.44511 0.85695 0.0
O27 O 1.06103 0.43876 0.05386 0.0
O28 O 0.10885 0.55045 0.18991 0.0
O29 O 1.04087 0.52201 0.14913 0.0
O30 O 0.1609 0.60512 0.97273 0.0
O31 O 0.15607 0.6659 0.02682 0.0
H32 H 0.95038 0.56064 0.00187 0.0
H33 H 0.89615 0.56954 0.0186 0.0
H34 H 1.04721 0.77709 0.16509 0.0
H35 H 0.10104 0.76829 0.14876 0.0
H36 H 0.16826 0.52485 0.85711 0.0
H37 H 0.23229 0.53052 0.83595 0.0
H38 H 0.10805 0.33801 0.9757 0.0
H39 H 1.0439 0.33185 0.99541 0.0
Nd40 Nd 0.55609 0.07826 0.0047 0.0
Nd41 Nd 0.56711 1.00294 0.99157 0.0
C42 C 0.55679 0.15507 0.98236 0.0
C43 C 0.55648 0.19779 0.97432 0.0
C44 C 0.57159 0.22897 0.86709 0.0
C45 C 0.57142 0.26942 0.86136 0.0
C46 C 0.55562 0.27906 0.9623 0.0
C47 C 0.54004 0.24743 0.06883 0.0
C48 C 0.54061 0.20751 0.07491 0.0
C49 C 0.55342 0.04581 0.23373 0.0
C50 C 0.68632 0.16546 0.00718 0.0
C51 C 0.56576 0.92549 0.01395 0.0
C52 C 0.56565 0.88236 0.0223 0.0
C53 C 0.55074 0.85157 0.13003 0.0
C54 C 0.55043 0.81065 0.13606 0.0
C55 C 0.56556 0.80017 0.03496 0.0
C56 C 0.5808 0.83129 0.92781 0.0
C57 C 0.5807 0.87166 0.92142 0.0
C58 C 0.56981 1.03552 0.76293 0.0
C59 C 0.43695 0.91589 0.98887 0.0
O60 O 0.56236 0.13494 0.88788 0.0
O61 O 0.55184 0.13506 0.08716 0.0
O62 O 0.52155 1.0428 0.19602 0.0
O63 O 0.58721 0.06754 0.15212 0.0
O64 O 0.65384 0.1647 0.98598 0.0
O65 O 0.66289 0.10944 0.02846 0.0
O66 O 0.56134 0.9468 0.10873 0.0
O67 O 0.57015 0.94489 0.90883 0.0
O68 O 0.60181 1.03871 0.80058 0.0
O69 O 0.53585 1.0135 0.84438 0.0
O70 O 0.4694 0.91666 0.01071 0.0
O71 O 0.46042 0.97186 0.96694 0.0
H72 H 0.58401 0.22256 0.78798 0.0
H73 H 0.58391 0.29354 0.77842 0.0
H74 H 0.52786 0.25416 0.148 0.0
H75 H 0.52849 0.18414 0.15878 0.0
H76 H 0.53887 0.85864 0.20933 0.0
H77 H 0.53817 0.78692 0.21946 0.0
H78 H 0.59246 0.82393 0.84847 0.0
H79 H 0.59258 0.89465 0.83713 0.0
Nd80 Nd 0.49895 0.47996 0.98373 0.0
Nd81 Nd 0.62295 0.59985 0.01457 0.0
C82 C 0.39481 0.39679 0.9042 0.0
C83 C 0.36348 0.40362 0.89503 0.0
C84 C 0.37525 0.44079 0.80598 0.0
C85 C 0.3472 0.44938 0.80211 0.0
C86 C 0.3068 0.42078 0.88672 0.0
C87 C 0.29449 0.3832 0.97475 0.0
C88 C 0.32245 0.37451 0.97865 0.0
C89 C 0.53743 0.5118 0.22757 0.0
C90 C 0.56632 0.63036 0.02365 0.0
C91 C 0.72696 0.68354 0.09737 0.0
C92 C 0.76382 0.68432 0.09725 0.0
C93 C 0.77783 0.68077 0.208 0.0
C94 C 0.81462 0.68457 0.2108 0.0
C95 C 0.84215 0.69698 0.1046 0.0
C96 C 0.82134 0.69108 0.99108 0.0
C97 C 0.78427 0.68689 0.98781 0.0
C98 C 0.58476 0.56821 0.77058 0.0
C99 C 0.55538 0.44925 0.97337 0.0
O100 O 0.43558 0.42953 0.8304 0.0
O101 O 0.40807 0.39934 0.01594 0.0
O102 O 0.49326 0.45096 0.17378 0.0
O103 O 0.55846 0.55396 0.15349 0.0
O104 O 0.51852 0.56482 -0.00183 0.0
O105 O 0.61436 0.65808 0.04372 0.0
O106 O 0.68377 0.64177 0.16557 0.0
O107 O 0.715 0.687 0.99175 0.0
O108 O 0.62944 0.62901 0.82394 0.0
O109 O 0.5635 0.52597 0.84473 0.0
O110 O 0.60354 0.51505 0.99351 0.0
O111 O 0.50696 0.42114 0.95874 0.0
H112 H 0.40643 0.46376 0.73979 0.0
H113 H 0.35708 0.47844 0.73345 0.0
H114 H 0.2632 0.36059 0.04039 0.0
H115 H 0.31231 0.34545 0.04785 0.0
H116 H 0.75997 0.67457 0.29301 0.0
H117 H 0.81985 0.67633 0.29726 0.0
H118 H 0.83259 0.68871 0.90273 0.0
H119 H 0.77153 0.68536 0.89909 0.0
C120 C 1.02681 0.48096 0.55164 0.0
C121 C 1.05592 0.53899 0.62825 0.0
C122 C 0.09696 0.60188 0.44502 0.0
C123 C 0.06777 0.5438 0.36835 0.0
N124 N 0.99946 0.42578 0.34363 0.0
N125 N 0.12431 0.65703 0.65308 0.0
C126 C 1.03126 0.4827 0.42047 0.0
C127 C 0.09247 0.60011 0.57618 0.0
N128 N 0.99664 0.42493 0.60549 0.0
N129 N 0.12727 0.65797 0.39123 0.0
H130 H 0.12155 0.65754 0.74878 0.0
H131 H 0.15619 0.7048 0.62443 0.0
H132 H 0.13121 0.66061 0.296 0.0
H133 H 0.14536 0.70033 0.43826 0.0
H134 H 0.97863 0.38263 0.55847 0.0
H135 H 0.99278 0.42234 0.70076 0.0
H136 H 0.9676 0.37802 0.37234 0.0
H137 H 1.00226 0.42526 0.24795 0.0
C138 C 0.60754 0.10231 0.44548 0.0
C139 C 0.55901 1.04284 0.36811 0.0
C140 C 0.51568 0.97902 0.55117 0.0
C141 C 0.56421 1.03849 0.62855 0.0
N142 N 0.65979 0.15493 0.64691 0.0
N143 N 0.46338 0.92645 0.34981 0.0
C144 C 0.6111 0.09951 0.57463 0.0
C145 C 0.51211 0.98183 0.42205 0.0
N146 N 0.64843 0.16257 0.39748 0.0
N147 N 0.4748 0.91874 0.59911 0.0
H148 H 0.46023 0.92474 0.25408 0.0
H149 H 0.42504 0.88335 0.38486 0.0
H150 H 0.47681 0.91436 0.69134 0.0
H151 H 0.44142 0.87248 0.5463 0.0
H152 H 0.68184 0.20884 0.45022 0.0
H153 H 0.6464 0.16691 0.30523 0.0
H154 H 0.69814 0.19805 0.61192 0.0
H155 H 0.6629 0.15665 0.74267 0.0
C156 C 0.56983 0.51398 0.56184 0.0
C157 C 0.5724 0.55335 0.6314 0.0
C158 C 0.55235 0.56593 0.43637 0.0
C159 C 0.54987 0.52667 0.36673 0.0
N160 N 0.54514 0.45214 0.36751 0.0
N161 N 0.57811 0.62878 0.63004 0.0
C162 C 0.55526 0.4974 0.43096 0.0
C163 C 0.56728 0.58285 0.56704 0.0
N164 N 0.5866 0.49759 0.61842 0.0
N165 N 0.53525 0.58199 0.38015 0.0
H166 H 0.5866 0.64089 0.72558 0.0
H167 H 0.58318 0.65913 0.5867 0.0
H168 H 0.52038 0.56718 0.28743 0.0
H169 H 0.52948 0.6034 0.42785 0.0
H170 H 0.59226 0.47601 0.57109 0.0
H171 H 0.60123 0.51219 0.71127 0.0
H172 H 0.54008 0.42171 0.41039 0.0
H173 H 0.53746 0.44084 0.27176 0.0
C174 C 0.19916 0.39381 0.79714 0.0
C175 C 0.21274 0.437 0.89174 0.0
C176 C 0.29473 0.47886 0.96635 0.0
C177 C 0.27653 0.42926 0.88277 0.0
N178 N 0.20908 0.33546 0.72492 0.0
N179 N 0.2701 0.51644 0.07445 0.0
C180 C 0.22825 0.38582 0.79927 0.0
C181 C 0.25997 0.47891 0.97804 0.0
N182 N 0.15928 0.36163 0.70366 0.0
N183 N 0.34566 0.52648 0.0331 0.0
H184 H 0.24582 0.5181 0.08594 0.0
H185 H 0.2999 0.54206 0.14814 0.0
H186 H 0.37185 0.52743 0.02755 0.0
H187 H 0.36421 0.56825 0.08551 0.0
H188 H 0.15145 0.33486 0.6252 0.0
H189 H 0.13741 0.3667 0.69888 0.0
H190 H 0.17047 0.2973 0.67283 0.0
H191 H 0.22998 0.32896 0.72168 0.0
C192 C 0.77965 0.23711 0.90989 0.0
C193 C 0.75059 0.23055 0.00389 0.0
C194 C 0.84408 0.34386 0.09998 0.0
C195 C 0.87245 0.35329 -0.00123 0.0
N196 N 0.86304 0.31223 0.79247 0.0
N197 N 0.75679 0.28572 0.17564 0.0
C198 C 0.83902 0.30059 0.89997 0.0
C199 C 0.78337 0.28657 0.09442 0.0
N200 N 0.75076 0.1828 0.82869 0.0
N201 N 0.87487 0.38752 0.20548 0.0
H202 H 0.71307 0.24523 0.17584 0.0
H203 H 0.778 0.32755 0.23474 0.0
H204 H 0.91869 0.4276 0.21683 0.0
H205 H 0.85663 0.3796 0.28681 0.0
H206 H 0.77052 0.18216 0.76805 0.0
H207 H 0.70746 0.13667 0.82828 0.0
H208 H 0.83998 0.27866 0.71234 0.0
H209 H 0.905 0.35856 0.77858 0.0
C210 C 0.5243 0.69455 0.95797 0.0
C211 C 0.56385 0.75502 0.03843 0.0
C212 C 0.59796 0.7275 0.12444 0.0
C213 C 0.56499 0.67297 0.03002 0.0
N214 N 0.50384 0.61348 0.8404 0.0
N215 N 0.64489 0.83443 0.18612 0.0
C216 C 0.52985 0.65868 0.94254 0.0
C217 C 0.60257 0.77303 0.11831 0.0
N218 N 0.48027 0.67015 0.89817 0.0
N219 N 0.6224 0.73401 0.22413 0.0
H220 H 0.64996 0.86928 0.18389 0.0
H221 H 0.6778 0.85295 0.23563 0.0
H222 H 0.61703 0.69954 0.23742 0.0
H223 H 0.64228 0.76904 0.30093 0.0
H224 H 0.44667 0.62257 0.84928 0.0
H225 H 0.47419 0.69432 0.90846 0.0
H226 H 0.48301 0.60701 0.76803 0.0
H227 H 0.50778 0.58747 0.82025 0.0
C228 C 0.93368 0.70036 0.9907 0.0
C229 C 0.93742 0.6824 0.09677 0.0
C230 C 0.90363 0.7067 0.21959 0.0
C231 C 0.88709 0.70844 0.109 0.0
N232 N 0.93069 0.76217 0.92202 0.0
N233 N 0.92469 0.6672 0.31439 0.0
C234 C 0.91426 0.72067 0.00174 0.0
C235 C 0.92194 0.6851 0.21192 0.0
N236 N 0.94884 0.69845 0.87936 0.0
N237 N 0.91276 0.73795 0.32856 0.0
H238 H 0.93826 0.65146 0.3128 0.0
H239 H 0.90897 0.66282 0.39766 0.0
H240 H 0.9122 0.76775 0.33135 0.0
H241 H 0.92959 0.74331 0.41013 0.0
H242 H 0.94131 0.70452 0.797 0.0
H243 H 0.96496 0.68588 0.8679 0.0
H244 H 0.9553 0.77809 0.84835 0.0
H245 H 0.92677 0.78839 0.94148 0.0
C246 C 0.28432 0.78137 0.0958 0.0
C247 C 0.25082 0.72856 0.9972 0.0
C248 C 0.33984 0.7948 0.902 0.0
C249 C 0.37269 0.85093 0.99223 0.0
N250 N 0.37271 0.89915 0.16669 0.0
N251 N 0.24832 0.69391 0.79094 0.0
C252 C 0.34371 0.84469 0.08585 0.0
C253 C 0.27914 0.73769 0.8963 0.0
N254 N 0.26036 0.76996 0.20324 0.0
N255 N 0.36634 0.79538 0.82118 0.0
H256 H 0.20453 0.654 0.77937 0.0
H257 H 0.26656 0.70158 0.70982 0.0
H258 H 0.41006 0.83578 0.82104 0.0
H259 H 0.34505 0.75343 0.76239 0.0
H260 H 0.28348 0.80363 0.28324 0.0
H261 H 0.2184 0.7237 0.21728 0.0
H262 H 0.35301 0.90001 0.22696 0.0
H263 H 0.41603 0.94519 0.16711 0.0
C264 C 0.52302 0.35157 0.87371 0.0
C265 C 0.55664 0.40664 0.96713 0.0
C266 C 0.59697 0.3847 0.03977 0.0
C267 C 0.55723 0.32414 0.95945 0.0
N268 N 0.47603 0.24457 0.8123 0.0
N269 N 0.61913 0.46769 0.15469 0.0
C270 C 0.51843 0.30606 0.87981 0.0
C271 C 0.59206 0.42126 0.05416 0.0
N272 N 0.49788 0.34452 0.775 0.0
N273 N 0.64065 0.40858 0.1002 0.0
H274 H 0.61624 0.49486 0.1732 0.0
H275 H 0.64001 0.47441 0.2274 0.0
H276 H 0.64621 0.38387 0.09095 0.0
H277 H 0.67445 0.45614 0.14898 0.0
H278 H 0.47755 0.30918 0.69852 0.0
H279 H 0.50291 0.37874 0.76226 0.0
H280 H 0.44299 0.22589 0.76312 0.0
H281 H 0.47104 0.20979 0.81442 0.0
loop_
_geom_bond_atom_site_label_1
_geom_bond_atom_site_label_2
_geom_bond_distance
_geom_bond_site_symmetry_2
_ccdc_geom_bond_type
Nd0 C2 2.836 1_556 S
Nd0 O20 2.500 1_556 S
Nd0 O21 2.492 . S
Nd0 O22 2.487 . S
Nd0 O23 2.682 1_655 S
Nd0 O24 2.410 . S
Nd0 O29 2.414 1_556 S
Nd0 O31 2.424 1_656 S
Nd1 C11 2.836 1_554 S
Nd1 O23 2.414 1_554 S
Nd1 O25 2.424 1_454 S
Nd1 O26 2.500 1_554 S
Nd1 O27 2.492 . S
Nd1 O28 2.487 . S
Nd1 O29 2.682 1_455 S
Nd1 O30 2.410 . S
C2 Nd0 2.836 1_554 S
C2 C3 1.498 . S
C2 O20 1.258 . S
C2 O21 1.239 1_554 S
C3 C2 1.498 . S
C3 C4 1.366 . S
C3 C8 1.407 1_554 S
C4 C3 1.366 . S
C4 C5 1.392 . S
C4 H32 0.930 . S
C5 C4 1.392 . S
C5 C6 1.398 . S
C5 H33 0.929 . S
C6 C5 1.398 . S
C6 C7 1.352 1_554 S
C7 C6 1.352 1_556 S
C7 C8 1.384 . S
C7 H34 0.930 . S
C8 C3 1.407 1_556 S
C8 C7 1.384 . S
C8 H35 0.929 . S
C9 O22 1.241 1_455 S
C9 O23 1.273 . S
C10 O24 1.251 . S
C10 O25 1.268 . S
C11 Nd1 2.836 1_556 S
C11 C12 1.498 . S
C11 O26 1.258 . S
C11 O27 1.239 1_556 S
C12 C11 1.498 . S
C12 C13 1.366 . S
C12 C17 1.407 1_556 S
C13 C12 1.366 . S
C13 C14 1.392 . S
C13 H36 0.930 . S
C14 C13 1.392 . S
C14 C15 1.398 . S
C14 H37 0.929 . S
C15 C14 1.398 . S
C15 C16 1.352 1_556 S
C16 C15 1.352 1_554 S
C16 C17 1.384 . S
C16 H38 0.930 . S
C17 C12 1.407 1_554 S
C17 C16 1.384 . S
C17 H39 0.929 . S
C18 O28 1.241 . S
C18 O29 1.273 1_455 S
C19 O30 1.251 . S
C19 O31 1.268 . S
O20 Nd0 2.500 1_554 S
O20 C2 1.258 . S
O21 Nd0 2.492 . S
O21 C2 1.239 1_556 S
O22 Nd0 2.487 . S
O22 C9 1.241 1_655 S
O23 Nd0 2.682 1_455 S
O23 Nd1 2.414 1_556 S
O23 C9 1.273 . S
O24 Nd0 2.410 . S
O24 C10 1.251 . S
O25 Nd1 2.424 1_656 S
O25 C10 1.268 . S
O26 Nd1 2.500 1_556 S
O26 C11 1.258 . S
O27 Nd1 2.492 . S
O27 C11 1.239 1_554 S
O28 Nd1 2.487 . S
O28 C18 1.241 . S
O29 Nd0 2.414 1_554 S
O29 Nd1 2.682 1_655 S
O29 C18 1.273 1_655 S
O30 Nd1 2.410 . S
O30 C19 1.251 . S
O31 Nd0 2.424 1_454 S
O31 C19 1.268 . S
H32 C4 0.930 . S
H33 C5 0.929 . S
H34 C7 0.930 . S
H35 C8 0.929 . S
H36 C13 0.930 . S
H37 C14 0.929 . S
H38 C16 0.930 . S
H39 C17 0.929 . S
Nd40 C42 2.836 . S
Nd40 O60 2.500 1_554 S
Nd40 O61 2.492 . S
Nd40 O62 2.487 . S
Nd40 O63 2.682 1_545 S
Nd40 O64 2.410 . S
Nd40 O69 2.414 1_554 S
Nd40 O71 2.424 1_545 S
Nd41 C51 2.836 . S
Nd41 O63 2.414 1_556 S
Nd41 O65 2.424 1_565 S
Nd41 O66 2.500 1_556 S
Nd41 O67 2.492 . S
Nd41 O68 2.487 . S
Nd41 O69 2.682 1_565 S
Nd41 O70 2.410 . S
C42 Nd40 2.836 . S
C42 C43 1.498 . S
C42 O60 1.258 1_554 S
C42 O61 1.239 . S
C43 C42 1.498 . S
C43 C44 1.366 1_554 S
C43 C48 1.407 . S
C44 C43 1.366 1_556 S
C44 C45 1.392 . S
C44 H72 0.930 . S
C45 C44 1.392 . S
C45 C46 1.398 1_556 S
C45 H73 0.929 . S
C46 C45 1.398 1_554 S
C46 C47 1.352 . S
C47 C46 1.352 . S
C47 C48 1.384 . S
C47 H74 0.930 . S
C48 C43 1.407 . S
C48 C47 1.384 . S
C48 H75 0.929 . S
C49 O62 1.241 . S
C49 O63 1.273 1_545 S
C50 O64 1.251 . S
C50 O65 1.268 1_554 S
C51 Nd41 2.836 . S
C51 C52 1.498 . S
C51 O66 1.258 1_556 S
C51 O67 1.239 . S
C52 C51 1.498 . S
C52 C53 1.366 1_556 S
C52 C57 1.407 . S
C53 C52 1.366 1_554 S
C53 C54 1.392 . S
C53 H76 0.930 . S
C54 C53 1.392 . S
C54 C55 1.398 1_554 S
C54 H77 0.929 . S
C55 C54 1.398 1_556 S
C55 C56 1.352 . S
C56 C55 1.352 . S
C56 C57 1.384 . S
C56 H78 0.930 . S
C57 C52 1.407 . S
C57 C56 1.384 . S
C57 H79 0.929 . S
C58 O68 1.241 . S
C58 O69 1.273 1_565 S
C59 O70 1.251 . S
C59 O71 1.268 1_556 S
O60 Nd40 2.500 1_556 S
O60 C42 1.258 1_556 S
O61 Nd40 2.492 . S
O61 C42 1.239 . S
O62 Nd40 2.487 . S
O62 C49 1.241 . S
O63 Nd40 2.682 1_565 S
O63 Nd41 2.414 1_554 S
O63 C49 1.273 1_565 S
O64 Nd40 2.410 . S
O64 C50 1.251 . S
O65 Nd41 2.424 1_545 S
O65 C50 1.268 1_556 S
O66 Nd41 2.500 1_554 S
O66 C51 1.258 1_554 S
O67 Nd41 2.492 . S
O67 C51 1.239 . S
O68 Nd41 2.487 . S
O68 C58 1.241 . S
O69 Nd40 2.414 1_556 S
O69 Nd41 2.682 1_545 S
O69 C58 1.273 1_545 S
O70 Nd41 2.410 . S
O70 C59 1.251 . S
O71 Nd40 2.424 1_565 S
O71 C59 1.268 1_554 S
H72 C44 0.930 . S
H73 C45 0.929 . S
H74 C47 0.930 . S
H75 C48 0.929 . S
H76 C53 0.930 . S
H77 C54 0.929 . S
H78 C56 0.930 . S
H79 C57 0.929 . S
Nd80 C82 2.836 1_554 S
Nd80 O100 2.500 1_554 S
Nd80 O101 2.492 . S
Nd80 O102 2.487 . S
Nd80 O103 2.682 . S
Nd80 O104 2.410 . S
Nd80 O109 2.414 1_554 S
Nd80 O111 2.424 1_554 S
Nd81 C91 2.836 1_556 S
Nd81 O103 2.414 1_556 S
Nd81 O105 2.424 1_556 S
Nd81 O106 2.500 1_556 S
Nd81 O107 2.492 . S
Nd81 O108 2.487 . S
Nd81 O109 2.682 . S
Nd81 O110 2.410 . S
C82 Nd80 2.836 1_556 S
C82 C83 1.498 . S
C82 O100 1.258 . S
C82 O101 1.239 1_556 S
C83 C82 1.498 . S
C83 C84 1.366 . S
C83 C88 1.407 1_556 S
C84 C83 1.366 . S
C84 C85 1.392 . S
C84 H112 0.930 . S
C85 C84 1.392 . S
C85 C86 1.398 . S
C85 H113 0.929 . S
C86 C85 1.398 . S
C86 C87 1.352 1_556 S
C87 C86 1.352 1_554 S
C87 C88 1.384 . S
C87 H114 0.930 . S
C88 C83 1.407 1_554 S
C88 C87 1.384 . S
C88 H115 0.929 . S
C89 O102 1.241 . S
C89 O103 1.273 . S
C90 O104 1.251 . S
C90 O105 1.268 . S
C91 Nd81 2.836 1_554 S
C91 C92 1.498 . S
C91 O106 1.258 . S
C91 O107 1.239 1_554 S
C92 C91 1.498 . S
C92 C93 1.366 . S
C92 C97 1.407 1_554 S
C93 C92 1.366 . S
C93 C94 1.392 . S
C93 H116 0.930 . S
C94 C93 1.392 . S
C94 C95 1.398 . S
C94 H117 0.929 . S
C95 C94 1.398 . S
C95 C96 1.352 1_554 S
C96 C95 1.352 1_556 S
C96 C97 1.384 . S
C96 H118 0.930 . S
C97 C92 1.407 1_556 S
C97 C96 1.384 . S
C97 H119 0.929 . S
C98 O108 1.241 . S
C98 O109 1.273 . S
C99 O110 1.251 . S
C99 O111 1.268 . S
O100 Nd80 2.500 1_556 S
O100 C82 1.258 . S
O101 Nd80 2.492 . S
O101 C82 1.239 1_554 S
O102 Nd80 2.487 . S
O102 C89 1.241 . S
O103 Nd80 2.682 . S
O103 Nd81 2.414 1_554 S
O103 C89 1.273 . S
O104 Nd80 2.410 . S
O104 C90 1.251 . S
O105 Nd81 2.424 1_554 S
O105 C90 1.268 . S
O106 Nd81 2.500 1_554 S
O106 C91 1.258 . S
O107 Nd81 2.492 . S
O107 C91 1.239 1_556 S
O108 Nd81 2.487 . S
O108 C98 1.241 . S
O109 Nd80 2.414 1_556 S
O109 Nd81 2.682 . S
O109 C98 1.273 . S
O110 Nd81 2.410 . S
O110 C99 1.251 . S
O111 Nd80 2.424 1_556 S
O111 C99 1.268 . S
H112 C84 0.930 . S
H113 C85 0.929 . S
H114 C87 0.930 . S
H115 C88 0.929 . S
H116 C93 0.930 . S
H117 C94 0.929 . S
H118 C96 0.930 . S
H119 C97 0.929 . S
C120 C121 1.363 1_655 S
C120 C126 1.379 . S
C120 N128 1.356 . S
C121 C120 1.363 1_455 S
C121 C127 1.363 . S
C122 C123 1.352 . S
C122 C127 1.379 . S
C122 N129 1.356 . S
C123 C122 1.352 . S
C123 C126 1.376 1_455 S
N124 C126 1.356 . S
N124 H136 0.984 . S
N124 H137 0.985 . S
N125 C127 1.356 . S
N125 H130 0.984 . S
N125 H131 0.985 . S
C126 C120 1.379 . S
C126 C123 1.376 1_655 S
C126 N124 1.356 . S
C127 C121 1.363 . S
C127 C122 1.379 . S
C127 N125 1.356 . S
N128 C120 1.356 . S
N128 H134 0.984 . S
N128 H135 0.984 . S
N129 C122 1.356 . S
N129 H132 0.984 . S
N129 H133 0.985 . S
H130 N125 0.984 . S
H131 N125 0.985 . S
H132 N129 0.984 . S
H133 N129 0.985 . S
H134 N128 0.984 . S
H135 N128 0.984 . S
H136 N124 0.984 . S
H137 N124 0.985 . S
C138 C139 1.363 . S
C138 C144 1.379 . S
C138 N146 1.356 . S
C139 C138 1.363 . S
C139 C145 1.363 1_545 S
C140 C141 1.368 . S
C140 C145 1.379 . S
C140 N147 1.356 . S
C141 C140 1.368 . S
C141 C144 1.356 1_565 S
N142 C144 1.356 . S
N142 H154 0.984 . S
N142 H155 0.985 . S
N143 C145 1.356 . S
N143 H148 0.984 . S
N143 H149 0.985 . S
C144 C138 1.379 . S
C144 C141 1.356 1_545 S
C144 N142 1.356 . S
C145 C139 1.363 1_565 S
C145 C140 1.379 . S
C145 N143 1.356 . S
N146 C138 1.356 . S
N146 H152 0.984 . S
N146 H153 0.984 . S
N147 C140 1.356 . S
N147 H150 0.984 . S
N147 H151 0.985 . S
H148 N143 0.984 . S
H149 N143 0.985 . S
H150 N147 0.984 . S
H151 N147 0.985 . S
H152 N146 0.984 . S
H153 N146 0.984 . S
H154 N142 0.984 . S
H155 N142 0.985 . S
C156 C157 1.363 . S
C156 C162 1.379 . S
C156 N164 1.356 . S
C157 C156 1.363 . S
C157 C163 1.363 . S
C158 C159 1.363 . S
C158 C163 1.379 . S
C158 N165 1.356 . S
C159 C158 1.363 . S
C159 C162 1.363 . S
N160 C162 1.356 . S
N160 H172 0.984 . S
N160 H173 0.985 . S
N161 C163 1.356 . S
N161 H166 0.984 . S
N161 H167 0.985 . S
C162 C156 1.379 . S
C162 C159 1.363 . S
C162 N160 1.356 . S
C163 C157 1.363 . S
C163 C158 1.379 . S
C163 N161 1.356 . S
N164 C156 1.356 . S
N164 H170 0.984 . S
N164 H171 0.984 . S
N165 C158 1.356 . S
N165 H168 0.984 . S
N165 H169 0.985 . S
H166 N161 0.984 . S
H167 N161 0.985 . S
H168 N165 0.984 . S
H169 N165 0.985 . S
H170 N164 0.984 . S
H171 N164 0.984 . S
H172 N160 0.984 . S
H173 N160 0.985 . S
C174 C175 1.363 . S
C174 C180 1.379 . S
C174 N182 1.356 . S
C175 C174 1.363 . S
C175 C181 1.363 1_556 S
C176 C177 1.363 1_554 S
C176 C181 1.379 . S
C176 N183 1.356 . S
C177 C176 1.363 1_556 S
C177 C180 1.363 . S
N178 C180 1.356 . S
N178 H190 0.984 . S
N178 H191 0.985 . S
N179 C181 1.356 . S
N179 H184 0.984 . S
N179 H185 0.985 . S
C180 C174 1.379 . S
C180 C177 1.363 . S
C180 N178 1.356 . S
C181 C175 1.363 1_554 S
C181 C176 1.379 . S
C181 N179 1.356 . S
N182 C174 1.356 . S
N182 H188 0.984 . S
N182 H189 0.984 . S
N183 C176 1.356 . S
N183 H186 0.984 . S
N183 H187 0.985 . S
H184 N179 0.984 . S
H185 N179 0.985 . S
H186 N183 0.984 . S
H187 N183 0.985 . S
H188 N182 0.984 . S
H189 N182 0.984 . S
H190 N178 0.984 . S
H191 N178 0.985 . S
C192 C193 1.362 1_556 S
C192 C198 1.379 . S
C192 N200 1.356 . S
C193 C192 1.362 1_554 S
C193 C199 1.364 . S
C194 C195 1.363 1_554 S
C194 C199 1.379 . S
C194 N201 1.356 . S
C195 C194 1.363 1_556 S
C195 C198 1.363 . S
N196 C198 1.356 . S
N196 H208 0.984 . S
N196 H209 0.985 . S
N197 C199 1.356 . S
N197 H202 0.984 . S
N197 H203 0.985 . S
C198 C192 1.379 . S
C198 C195 1.363 . S
C198 N196 1.356 . S
C199 C193 1.364 . S
C199 C194 1.379 . S
C199 N197 1.356 . S
N200 C192 1.356 . S
N200 H206 0.984 . S
N200 H207 0.984 . S
N201 C194 1.356 . S
N201 H204 0.984 . S
N201 H205 0.985 . S
H202 N197 0.984 . S
H203 N197 0.985 . S
H204 N201 0.984 . S
H205 N201 0.985 . S
H206 N200 0.984 . S
H207 N200 0.984 . S
H208 N196 0.984 . S
H209 N196 0.985 . S
C210 C211 1.363 . S
C210 C216 1.379 . S
C210 N218 1.356 . S
C211 C210 1.363 . S
C211 C217 1.363 1_556 S
C212 C213 1.363 . S
C212 C217 1.379 . S
C212 N219 1.356 . S
C213 C212 1.363 . S
C213 C216 1.363 1_554 S
N214 C216 1.356 . S
N214 H226 0.984 . S
N214 H227 0.985 . S
N215 C217 1.356 . S
N215 H220 0.984 . S
N215 H221 0.985 . S
C216 C210 1.379 . S
C216 C213 1.363 1_556 S
C216 N214 1.356 . S
C217 C211 1.363 1_554 S
C217 C212 1.379 . S
C217 N215 1.356 . S
N218 C210 1.356 . S
N218 H224 0.984 . S
N218 H225 0.984 . S
N219 C212 1.356 . S
N219 H222 0.984 . S
N219 H223 0.985 . S
H220 N215 0.984 . S
H221 N215 0.985 . S
H222 N219 0.984 . S
H223 N219 0.985 . S
H224 N218 0.984 . S
H225 N218 0.984 . S
H226 N214 0.984 . S
H227 N214 0.985 . S
C228 C229 1.363 1_556 S
C228 C234 1.379 . S
C228 N236 1.356 . S
C229 C228 1.363 1_554 S
C229 C235 1.363 . S
C230 C231 1.363 . S
C230 C235 1.379 . S
C230 N237 1.356 . S
C231 C230 1.363 . S
C231 C234 1.363 1_554 S
N232 C234 1.356 . S
N232 H244 0.984 . S
N232 H245 0.985 . S
N233 C235 1.356 . S
N233 H238 0.984 . S
N233 H239 0.985 . S
C234 C228 1.379 . S
C234 C231 1.363 1_556 S
C234 N232 1.356 . S
C235 C229 1.363 . S
C235 C230 1.379 . S
C235 N233 1.356 . S
N236 C228 1.356 . S
N236 H242 0.984 . S
N236 H243 0.984 . S
N237 C230 1.356 . S
N237 H240 0.984 . S
N237 H241 0.985 . S
H238 N233 0.984 . S
H239 N233 0.985 . S
H240 N237 0.984 . S
H241 N237 0.985 . S
H242 N236 0.984 . S
H243 N236 0.984 . S
H244 N232 0.984 . S
H245 N232 0.985 . S
C246 C247 1.363 . S
C246 C252 1.379 . S
C246 N254 1.356 . S
C247 C246 1.363 . S
C247 C253 1.363 1_554 S
C248 C249 1.363 1_556 S
C248 C253 1.379 . S
C248 N255 1.356 . S
C249 C248 1.363 1_554 S
C249 C252 1.363 . S
N250 C252 1.356 . S
N250 H262 0.984 . S
N250 H263 0.985 . S
N251 C253 1.356 . S
N251 H256 0.984 . S
N251 H257 0.985 . S
C252 C246 1.379 . S
C252 C249 1.363 . S
C252 N250 1.356 . S
C253 C247 1.363 1_556 S
C253 C248 1.379 . S
C253 N251 1.356 . S
N254 C246 1.356 . S
N254 H260 0.984 . S
N254 H261 0.984 . S
N255 C248 1.356 . S
N255 H258 0.984 . S
N255 H259 0.985 . S
H256 N251 0.984 . S
H257 N251 0.985 . S
H258 N255 0.984 . S
H259 N255 0.985 . S
H260 N254 0.984 . S
H261 N254 0.984 . S
H262 N250 0.984 . S
H263 N250 0.985 . S
C264 C265 1.367 . S
C264 C270 1.379 . S
C264 N272 1.356 . S
C265 C264 1.367 . S
C265 C271 1.359 1_556 S
C266 C267 1.363 . S
C266 C271 1.379 . S
C266 N273 1.356 . S
C267 C266 1.363 . S
C267 C270 1.363 1_554 S
N268 C270 1.356 . S
N268 H280 0.984 . S
N268 H281 0.985 . S
N269 C271 1.356 . S
N269 H274 0.984 . S
N269 H275 0.985 . S
C270 C264 1.379 . S
C270 C267 1.363 1_556 S
C270 N268 1.356 . S
C271 C265 1.359 1_554 S
C271 C266 1.379 . S
C271 N269 1.356 . S
N272 C264 1.356 . S
N272 H278 0.984 . S
N272 H279 0.984 . S
N273 C266 1.356 . S
N273 H276 0.984 . S
N273 H277 0.985 . S
H274 N269 0.984 . S
H275 N269 0.985 . S
H276 N273 0.984 . S
H277 N273 0.985 . S
H278 N272 0.984 . S
H279 N272 0.984 . S
H280 N268 0.984 . S
H281 N268 0.985 . S
C121 C9 1.436 . S
C123 C18 1.441 . S
C139 C49 1.458 . S
C141 C58 1.463 . S
C157 C98 1.438 . S
C159 C89 1.438 . S
C175 C15 0.983 . S
C177 C86 0.990 . S
C193 C50 2.586 . S
C195 C10 2.667 . S
C211 C55 2.206 . S
C213 C90 2.335 . S
C229 C6 0.983 . S
C231 C95 0.990 . S
C247 C19 2.667 . S
C249 C59 2.586 1_554 S
C265 C99 2.336 . S
C267 C46 2.206 . S
