# Generated by pormake.
# Topology umy, (4)-cn, num edge types: 1
# Building blocks:
#     Node 0, Type 0, BuildingBlock: TATPOV_clean_sbu_0, # of connection points: 4
#     Node 1, Type 0, BuildingBlock: TATPOV_clean_sbu_0, # of connection points: 4
#     Node 2, Type 0, BuildingBlock: TATPOV_clean_sbu_0, # of connection points: 4
#     Node 3, Type 0, BuildingBlock: TATPOV_clean_sbu_0, # of connection points: 4
#     Node 4, Type 0, BuildingBlock: TATPOV_clean_sbu_0, # of connection points: 4
#     Node 5, Type 0, BuildingBlock: TATPOV_clean_sbu_0, # of connection points: 4
#     Node 6, Type 0, BuildingBlock: TATPOV_clean_sbu_0, # of connection points: 4
#     Node 7, Type 0, BuildingBlock: TATPOV_clean_sbu_0, # of connection points: 4
#     Node 8, Type 0, BuildingBlock: TATPOV_clean_sbu_0, # of connection points: 4
#     Node 9, Type 0, BuildingBlock: TATPOV_clean_sbu_0, # of connection points: 4
#     Node 10, Type 0, BuildingBlock: TATPOV_clean_sbu_0, # of connection points: 4
#     Node 11, Type 0, BuildingBlock: TATPOV_clean_sbu_0, # of connection points: 4
#     Edge 12, Type (0, 0), BuildingBlock: ZUJKAS_clean_linker_0, # of connection points: 2
#     Edge 13, Type (0, 0), BuildingBlock: ZUJKAS_clean_linker_0, # of connection points: 2
#     Edge 14, Type (0, 0), BuildingBlock: ZUJKAS_clean_linker_0, # of connection points: 2
#     Edge 15, Type (0, 0), BuildingBlock: ZUJKAS_clean_linker_0, # of connection points: 2
#     Edge 16, Type (0, 0), BuildingBlock: ZUJKAS_clean_linker_0, # of connection points: 2
#     Edge 17, Type (0, 0), BuildingBlock: ZUJKAS_clean_linker_0, # of connection points: 2
#     Edge 18, Type (0, 0), BuildingBlock: ZUJKAS_clean_linker_0, # of connection points: 2
#     Edge 19, Type (0, 0), BuildingBlock: ZUJKAS_clean_linker_0, # of connection points: 2
#     Edge 20, Type (0, 0), BuildingBlock: ZUJKAS_clean_linker_0, # of connection points: 2
#     Edge 21, Type (0, 0), BuildingBlock: ZUJKAS_clean_linker_0, # of connection points: 2
#     Edge 22, Type (0, 0), BuildingBlock: ZUJKAS_clean_linker_0, # of connection points: 2
#     Edge 23, Type (0, 0), BuildingBlock: ZUJKAS_clean_linker_0, # of connection points: 2
#     Edge 24, Type (0, 0), BuildingBlock: ZUJKAS_clean_linker_0, # of connection points: 2
#     Edge 25, Type (0, 0), BuildingBlock: ZUJKAS_clean_linker_0, # of connection points: 2
#     Edge 26, Type (0, 0), BuildingBlock: ZUJKAS_clean_linker_0, # of connection points: 2
#     Edge 27, Type (0, 0), BuildingBlock: ZUJKAS_clean_linker_0, # of connection points: 2
#     Edge 28, Type (0, 0), BuildingBlock: ZUJKAS_clean_linker_0, # of connection points: 2
#     Edge 29, Type (0, 0), BuildingBlock: ZUJKAS_clean_linker_0, # of connection points: 2
#     Edge 30, Type (0, 0), BuildingBlock: ZUJKAS_clean_linker_0, # of connection points: 2
#     Edge 31, Type (0, 0), BuildingBlock: ZUJKAS_clean_linker_0, # of connection points: 2
#     Edge 32, Type (0, 0), BuildingBlock: ZUJKAS_clean_linker_0, # of connection points: 2
#     Edge 33, Type (0, 0), BuildingBlock: ZUJKAS_clean_linker_0, # of connection points: 2
#     Edge 34, Type (0, 0), BuildingBlock: ZUJKAS_clean_linker_0, # of connection points: 2
#     Edge 35, Type (0, 0), BuildingBlock: ZUJKAS_clean_linker_0, # of connection points: 2
# Relax obj value: 0.093
# Max RMSD: 0.113
# Mean RMSD: 0.113
data_MOF--net-umy--node1-TATPOV_clean_sbu_0--edge1-ZUJKAS_clean_linker_0
_symmetry_space_group_name_H-M    P1
_symmetry_Int_Tables_number       1
_symmetry_cell_setting            triclinic
loop_
_symmetry_equiv_pos_as_xyz
'x, y, z'
_cell_length_a     50.610787
_cell_length_b     50.59111
_cell_length_c     63.01525
_cell_angle_alpha  90.004789
_cell_angle_beta   89.987217
_cell_angle_gamma 119.96386
loop_
_atom_site_label
_atom_site_type_symbol
_atom_site_fract_x
_atom_site_fract_y
_atom_site_fract_z
_atom_type_partial_charge
Zn0 Zn 0.0875 0.3016 0.11704 0.0
Zn1 Zn 0.08995 0.35462 0.11068 0.0
O2 O 0.04387 0.3246 0.1155 0.0
O3 O 0.0422 0.28089 0.12115 0.0
O4 O 0.09112 0.39408 0.10382 0.0
O5 O 0.10451 0.30264 0.08815 0.0
O6 O 0.1099 0.34825 0.08385 0.0
C7 C 0.02866 0.29613 0.11965 0.0
C8 C 0.12382 0.34731 0.14835 0.0
O9 O 0.11549 0.36359 0.13803 0.0
O10 O 0.11554 0.32042 0.14223 0.0
C11 C 0.08572 0.40937 0.11739 0.0
O12 O 0.07944 0.39952 0.13705 0.0
C13 C 0.11333 0.32642 0.07703 0.0
Zn14 Zn 0.78455 0.08436 0.2787 0.0
Zn15 Zn 0.7334 0.08686 0.27411 0.0
O16 O 0.71847 0.04057 0.27618 0.0
O17 O 0.76067 0.03862 0.27992 0.0
O18 O 0.69467 0.08806 0.26903 0.0
O19 O 0.80028 0.10534 0.25071 0.0
O20 O 0.75952 0.11017 0.24798 0.0
C21 C 0.73189 0.0251 0.27856 0.0
C22 C 0.77399 0.11667 0.31272 0.0
O23 O 0.74971 0.10964 0.30237 0.0
O24 O 0.79264 0.10892 0.30576 0.0
C25 C 0.66931 0.06883 0.27728 0.0
O26 O 0.6682 0.04776 0.29003 0.0
C27 C 0.78508 0.11499 0.24073 0.0
Zn28 Zn 0.70811 0.78828 0.4375 0.0
Zn29 Zn 0.65378 0.73737 0.43523 0.0
O30 O 0.6841 0.72177 0.43977 0.0
O31 O 0.72918 0.7635 0.43992 0.0
O32 O 0.61402 0.69854 0.43033 0.0
O33 O 0.70295 0.80234 0.40895 0.0
O34 O 0.65704 0.7619 0.40796 0.0
C35 C 0.71305 0.73474 0.44106 0.0
C36 C 0.66576 0.78128 0.47155 0.0
O37 O 0.64794 0.75598 0.46252 0.0
O38 O 0.69194 0.79901 0.46383 0.0
C39 C 0.59633 0.68144 0.44487 0.0
O40 O 0.60362 0.6891 0.46483 0.0
C41 C 0.67768 0.78661 0.39961 0.0
Zn42 Zn 0.91705 0.70223 0.62304 0.0
Zn43 Zn 0.91395 0.64974 0.61439 0.0
O44 O 0.96025 0.68055 0.61671 0.0
O45 O 0.96279 0.72477 0.62164 0.0
O46 O 0.91385 0.61095 0.6067 0.0
O47 O 0.89188 0.69833 0.59762 0.0
O48 O 0.89078 0.65557 0.58917 0.0
C49 C 0.97604 0.70936 0.6193 0.0
C50 C 0.88645 0.65761 0.65572 0.0
O51 O 0.89133 0.64056 0.64331 0.0
O52 O 0.8958 0.68512 0.65073 0.0
C53 C 0.89284 0.58433 0.61178 0.0
O54 O 0.86931 0.58115 0.62271 0.0
C55 C 0.88343 0.67582 0.58526 0.0
Zn56 Zn 0.21653 0.9129 0.7797 0.0
Zn57 Zn 0.26749 0.91042 0.77488 0.0
O58 O 0.28284 0.95672 0.77807 0.0
O59 O 0.24056 0.95851 0.78189 0.0
O60 O 0.30596 0.90878 0.76959 0.0
O61 O 0.20099 0.89328 0.75137 0.0
O62 O 0.24187 0.88881 0.74813 0.0
C63 C 0.26936 0.97207 0.7808 0.0
C64 C 0.22591 0.87888 0.81289 0.0
O65 O 0.25039 0.88628 0.80268 0.0
O66 O 0.20753 0.88711 0.80613 0.0
C67 C 0.33145 0.92724 0.77804 0.0
O68 O 0.33309 0.94811 0.79123 0.0
C69 C 0.2164 0.88431 0.74094 0.0
Zn70 Zn 0.29424 0.2059 0.94459 0.0
Zn71 Zn 0.34599 0.25852 0.9399 0.0
O72 O 0.31387 0.2719 0.94404 0.0
O73 O 0.27135 0.22851 0.94919 0.0
O74 O 0.38435 0.29825 0.93392 0.0
O75 O 0.29772 0.19202 0.91545 0.0
O76 O 0.34286 0.23333 0.91311 0.0
C77 C 0.28535 0.25735 0.94798 0.0
C78 C 0.33937 0.21669 0.97679 0.0
O79 O 0.35461 0.24237 0.9675 0.0
O80 O 0.31362 0.19681 0.96961 0.0
C81 C 0.4019 0.31624 0.94816 0.0
O82 O 0.39527 0.30901 0.96825 0.0
C83 C 0.32231 0.20805 0.90538 0.0
Zn84 Zn 0.70391 0.90815 0.7181 0.0
Zn85 Zn 0.6502 0.9056 0.72148 0.0
O86 O 0.68117 0.95186 0.71983 0.0
O87 O 0.72535 0.95396 0.7159 0.0
O88 O 0.6099 0.90397 0.72592 0.0
O89 O 0.69862 0.88826 0.74646 0.0
O90 O 0.65247 0.8822 0.74786 0.0
C91 C 0.70998 0.9674 0.71725 0.0
C92 C 0.66257 0.87572 0.68356 0.0
O93 O 0.64539 0.88384 0.69288 0.0
O94 O 0.68809 0.88226 0.69157 0.0
C95 C 0.60397 0.92353 0.71798 0.0
O96 O 0.62431 0.94521 0.70578 0.0
C97 C 0.67327 0.87804 0.75585 0.0
Zn98 Zn 0.78481 0.69803 0.89017 0.0
Zn99 Zn 0.73441 0.64429 0.8953 0.0
O100 O 0.71819 0.67415 0.89024 0.0
O101 O 0.75994 0.71859 0.88623 0.0
O102 O 0.69617 0.60464 0.90136 0.0
O103 O 0.7999 0.69568 0.91919 0.0
O104 O 0.75982 0.64978 0.92236 0.0
C105 C 0.73113 0.70279 0.88682 0.0
C106 C 0.77683 0.65289 0.8584 0.0
O107 O 0.75211 0.63599 0.8684 0.0
O108 O 0.79469 0.67988 0.86474 0.0
C109 C 0.67471 0.59136 0.88798 0.0
O110 O 0.67754 0.60356 0.86911 0.0
C111 C 0.78477 0.67135 0.92973 0.0
Zn112 Zn 0.0887 0.79201 0.05104 0.0
Zn113 Zn 0.09098 0.74144 0.05794 0.0
O114 O 0.04479 0.72586 0.05415 0.0
O115 O 0.04315 0.76794 0.04858 0.0
O116 O 0.09169 0.70298 0.0652 0.0
O117 O 0.10817 0.80947 0.07911 0.0
O118 O 0.11254 0.76877 0.08407 0.0
C119 C 0.02952 0.7392 0.05044 0.0
C120 C 0.12286 0.78065 0.01904 0.0
O121 O 0.11539 0.75674 0.03 0.0
O122 O 0.11465 0.79942 0.02494 0.0
C123 C 0.08931 0.68352 0.05146 0.0
O124 O 0.0866 0.68847 0.03132 0.0
C125 C 0.1171 0.7947 0.09033 0.0
Zn126 Zn 0.2986 0.093 0.22205 0.0
Zn127 Zn 0.35141 0.09396 0.22608 0.0
O128 O 0.31975 0.04805 0.22296 0.0
O129 O 0.27631 0.04736 0.21857 0.0
O130 O 0.39091 0.09416 0.23082 0.0
O131 O 0.30301 0.11135 0.25089 0.0
O132 O 0.34866 0.11627 0.25293 0.0
C133 C 0.29106 0.03326 0.21971 0.0
C134 C 0.34186 0.12672 0.18875 0.0
O135 O 0.35814 0.11754 0.19811 0.0
O136 O 0.31609 0.12026 0.19628 0.0
C137 C 0.39691 0.07546 0.22153 0.0
O138 O 0.37718 0.05584 0.20794 0.0
C139 C 0.32785 0.12054 0.26076 0.0
Zn140 Zn 0.21143 0.30032 0.38717 0.0
Zn141 Zn 0.26178 0.35414 0.3929 0.0
O142 O 0.27805 0.32407 0.38954 0.0
O143 O 0.23646 0.27963 0.38505 0.0
O144 O 0.29983 0.39383 0.39935 0.0
O145 O 0.19477 0.30343 0.41543 0.0
O146 O 0.23493 0.3492 0.41905 0.0
C147 C 0.26522 0.29536 0.38646 0.0
C148 C 0.22165 0.34487 0.35436 0.0
O149 O 0.24571 0.36189 0.36498 0.0
O150 O 0.20328 0.31802 0.36071 0.0
C151 C 0.32134 0.40743 0.38603 0.0
O152 O 0.31866 0.39556 0.36706 0.0
C153 C 0.20946 0.32787 0.42594 0.0
Zn154 Zn 0.90823 0.20945 0.55251 0.0
Zn155 Zn 0.90486 0.25967 0.55786 0.0
O156 O 0.95127 0.27619 0.55388 0.0
O157 O 0.95358 0.2343 0.54923 0.0
O158 O 0.90197 0.29742 0.56349 0.0
O159 O 0.89003 0.19353 0.58109 0.0
O160 O 0.88435 0.23366 0.58476 0.0
C161 C 0.96684 0.26309 0.5504 0.0
C162 C 0.87283 0.21773 0.52004 0.0
O163 O 0.88033 0.24228 0.53021 0.0
O164 O 0.88134 0.19951 0.52665 0.0
C165 C 0.9188 0.3228 0.55432 0.0
O166 O 0.93894 0.32488 0.54027 0.0
C167 C 0.88078 0.20845 0.59183 0.0
H168 H 0.08846 0.66366 0.09195 0.0
H169 H 0.08809 0.61715 0.10306 0.0
H170 H 0.08939 0.59317 0.03758 0.0
H171 H 0.08977 0.63966 0.02624 0.0
H172 H 0.04347 0.55457 0.09101 0.0
H173 H 0.16199 0.58941 0.06637 0.0
H174 H 0.14914 0.61657 0.07028 0.0
H175 H 0.13862 0.59363 0.04669 0.0
C176 C 0.08877 0.64858 0.07988 0.0
C177 C 0.08926 0.65544 0.05819 0.0
C178 C 0.0885 0.62199 0.08628 0.0
C179 C 0.08903 0.60195 0.07115 0.0
C180 C 0.08939 0.6086 0.0495 0.0
H181 H 0.09355 0.43334 0.07748 0.0
H182 H 0.09342 0.47964 0.06667 0.0
C183 C 0.08948 0.63511 0.04306 0.0
C184 C 0.08871 0.57383 0.07804 0.0
H185 H 0.13143 0.5388 0.0786 0.0
C186 C 0.0627 0.55109 0.08838 0.0
C187 C 0.11382 0.56944 0.07451 0.0
C188 C 0.14263 0.59359 0.064 0.0
C189 C 0.0609 0.52371 0.09496 0.0
C190 C 0.08612 0.51936 0.09155 0.0
C191 C 0.11215 0.54219 0.08122 0.0
C192 C 0.08588 0.49116 0.09831 0.0
C193 C 0.03173 0.49942 0.105 0.0
C194 C 0.08204 0.48242 0.11975 0.0
C195 C 0.08195 0.45583 0.12598 0.0
C196 C 0.08604 0.43767 0.11091 0.0
C197 C 0.09031 0.44676 0.0895 0.0
C198 C 0.09026 0.47324 0.08328 0.0
H199 H 0.01214 0.50274 0.10118 0.0
H200 H 0.02621 0.4763 0.09966 0.0
H201 H 0.03447 0.50051 0.1225 0.0
H202 H 0.07935 0.49629 0.13169 0.0
H203 H 0.07882 0.44962 0.14262 0.0
H204 H 0.61056 0.02699 0.2879 0.0
H205 H 0.56401 0.02724 0.27786 0.0
H206 H 0.61778 0.11259 0.24499 0.0
H207 H 0.66437 0.1122 0.25452 0.0
H208 H 0.54527 0.06777 0.28675 0.0
H209 H 0.5569 0.06092 0.19977 0.0
H210 H 0.57986 0.0542 0.21851 0.0
H211 H 0.58958 0.09256 0.2117 0.0
C212 C 0.6125 0.04581 0.2785 0.0
C213 C 0.64117 0.06947 0.27189 0.0
C214 C 0.58586 0.0459 0.27278 0.0
C215 C 0.58738 0.06963 0.26033 0.0
C216 C 0.61601 0.09365 0.25412 0.0
H217 H 0.44459 0.11572 0.24621 0.0
H218 H 0.49053 0.11391 0.25553 0.0
C219 C 0.64264 0.09348 0.25972 0.0
C220 C 0.55905 0.06955 0.25421 0.0
H221 H 0.51895 0.07232 0.21152 0.0
C222 C 0.53943 0.06863 0.2703 0.0
C223 C 0.55121 0.07016 0.23272 0.0
C224 C 0.57032 0.0692 0.21467 0.0
C225 C 0.51249 0.06892 0.26552 0.0
C226 C 0.50536 0.07091 0.24407 0.0
C227 C 0.52465 0.07119 0.22796 0.0
C228 C 0.47786 0.07246 0.238 0.0
C229 C 0.49168 0.06655 0.28348 0.0
C230 C 0.45599 0.05039 0.22442 0.0
C231 C 0.42988 0.05158 0.21883 0.0
C232 C 0.42515 0.0749 0.22672 0.0
C233 C 0.44739 0.09731 0.24001 0.0
C234 C 0.47358 0.09619 0.24548 0.0
H235 H 0.49572 0.05643 0.29791 0.0
H236 H 0.49614 0.08973 0.28767 0.0
H237 H 0.46734 0.05248 0.27888 0.0
H238 H 0.45895 0.03199 0.21835 0.0
H239 H 0.41322 0.03399 0.20854 0.0
H240 H 0.55063 0.64201 0.47139 0.0
H241 H 0.50386 0.59501 0.46166 0.0
H242 H 0.5311 0.60973 0.39593 0.0
H243 H 0.5778 0.65661 0.40541 0.0
H244 H 0.45773 0.58949 0.43101 0.0
H245 H 0.51189 0.52094 0.40926 0.0
H246 H 0.53075 0.55474 0.42559 0.0
H247 H 0.52847 0.55817 0.39738 0.0
C248 C 0.54672 0.6352 0.45487 0.0
C249 C 0.56799 0.65302 0.43919 0.0
C250 C 0.51999 0.60839 0.44936 0.0
C251 C 0.51428 0.59879 0.42813 0.0
C252 C 0.53535 0.61655 0.41244 0.0
H253 H 0.37033 0.44426 0.36096 0.0
H254 H 0.41663 0.4912 0.37127 0.0
C255 C 0.56195 0.64341 0.4179 0.0
C256 C 0.48596 0.57055 0.42224 0.0
H257 H 0.45936 0.49941 0.40143 0.0
C258 C 0.45799 0.56969 0.42465 0.0
C259 C 0.48652 0.54494 0.41383 0.0
C260 C 0.51596 0.54448 0.41147 0.0
C261 C 0.43049 0.544 0.41847 0.0
C262 C 0.43101 0.51827 0.41013 0.0
C263 C 0.45903 0.51916 0.40779 0.0
C264 C 0.40272 0.4901 0.40388 0.0
C265 C 0.40127 0.54497 0.42041 0.0
C266 C 0.37971 0.47376 0.41886 0.0
C267 C 0.35319 0.44706 0.413 0.0
C268 C 0.34931 0.43597 0.39209 0.0
C269 C 0.37256 0.45221 0.37717 0.0
C270 C 0.39904 0.47901 0.38304 0.0
H271 H 0.40569 0.56878 0.42126 0.0
H272 H 0.38585 0.53333 0.4068 0.0
H273 H 0.38932 0.53312 0.4352 0.0
H274 H 0.38238 0.48148 0.43515 0.0
H275 H 0.33586 0.43498 0.42494 0.0
H276 H 0.93647 0.58286 0.58699 0.0
H277 H 0.94007 0.53824 0.57656 0.0
H278 H 0.85853 0.48014 0.61221 0.0
H279 H 0.85437 0.52457 0.6224 0.0
H280 H 0.94624 0.49734 0.60165 0.0
H281 H 0.83931 0.43794 0.55483 0.0
H282 H 0.85584 0.47727 0.56293 0.0
H283 H 0.83385 0.44703 0.58142 0.0
C284 C 0.91918 0.56058 0.59254 0.0
C285 C 0.89501 0.55727 0.60545 0.0
C286 C 0.92131 0.5351 0.58657 0.0
C287 C 0.89931 0.50581 0.59332 0.0
C288 C 0.87536 0.50244 0.6064 0.0
H289 H 0.87739 0.3254 0.58089 0.0
H290 H 0.87336 0.37019 0.59021 0.0
C291 C 0.87313 0.52791 0.61232 0.0
C292 C 0.90198 0.47893 0.58714 0.0
H293 H 0.86457 0.40994 0.56203 0.0
C294 C 0.92847 0.4783 0.59288 0.0
C295 C 0.87876 0.45414 0.57568 0.0
C296 C 0.85046 0.45415 0.56816 0.0
C297 C 0.93212 0.45329 0.58781 0.0
C298 C 0.90881 0.42843 0.57651 0.0
C299 C 0.88235 0.42905 0.57074 0.0
C300 C 0.91136 0.40143 0.57066 0.0
C301 C 0.9606 0.45334 0.59497 0.0
C302 C 0.93384 0.40414 0.55637 0.0
C303 C 0.93618 0.37857 0.55095 0.0
C304 C 0.91604 0.34983 0.55973 0.0
C305 C 0.89334 0.3472 0.57388 0.0
C306 C 0.89096 0.37275 0.57922 0.0
H307 H 0.97302 0.47079 0.60741 0.0
H308 H 0.95498 0.43061 0.60126 0.0
H309 H 0.97611 0.45852 0.58121 0.0
H310 H 0.9495 0.42602 0.54933 0.0
H311 H 0.95385 0.38139 0.53995 0.0
H312 H 0.55541 0.8797 0.74028 0.0
H313 H 0.50835 0.87921 0.74986 0.0
H314 H 0.54041 0.96536 0.71797 0.0
H315 H 0.58724 0.96573 0.70792 0.0
H316 H 0.5012 0.91978 0.77405 0.0
H317 H 0.45568 0.91461 0.69318 0.0
H318 H 0.48671 0.90755 0.69829 0.0
H319 H 0.49364 0.94602 0.69687 0.0
C320 C 0.55236 0.89843 0.73514 0.0
C321 C 0.57503 0.92269 0.72323 0.0
C322 C 0.52546 0.89813 0.74066 0.0
C323 C 0.52067 0.92202 0.73438 0.0
C324 C 0.5433 0.94633 0.72257 0.0
H325 H 0.39039 0.96661 0.78992 0.0
H326 H 0.43618 0.96499 0.77973 0.0
C327 C 0.57014 0.94657 0.71693 0.0
C328 C 0.49245 0.92197 0.74083 0.0
H329 H 0.4309 0.92478 0.72148 0.0
C330 C 0.48575 0.92074 0.76256 0.0
C331 C 0.47214 0.92287 0.72581 0.0
C332 C 0.47719 0.92254 0.70223 0.0
C333 C 0.4595 0.9208 0.76969 0.0
C334 C 0.43975 0.92277 0.7547 0.0
C335 C 0.44622 0.92357 0.73296 0.0
C336 C 0.412 0.92363 0.76117 0.0
C337 C 0.4529 0.91819 0.79319 0.0
C338 C 0.38327 0.90131 0.75374 0.0
C339 C 0.35708 0.90234 0.75936 0.0
C340 C 0.35914 0.92577 0.77251 0.0
C341 C 0.38797 0.94812 0.77992 0.0
C342 C 0.41417 0.94714 0.7742 0.0
H343 H 0.46523 0.90844 0.8018 0.0
H344 H 0.46053 0.94124 0.79977 0.0
H345 H 0.4281 0.90369 0.79634 0.0
H346 H 0.38109 0.88303 0.7436 0.0
H347 H 0.33525 0.88479 0.75335 0.0
H348 H 0.44791 0.35679 0.97394 0.0
H349 H 0.49393 0.40398 0.96346 0.0
H350 H 0.46459 0.38783 0.89819 0.0
H351 H 0.41861 0.34068 0.90842 0.0
H352 H 0.53896 0.40866 0.93178 0.0
H353 H 0.48406 0.47705 0.91139 0.0
H354 H 0.46595 0.44371 0.92822 0.0
H355 H 0.46704 0.43947 0.90001 0.0
C356 C 0.45117 0.36334 0.95737 0.0
C357 C 0.42957 0.345 0.94202 0.0
C358 C 0.47747 0.39026 0.95143 0.0
C359 C 0.48241 0.39946 0.93011 0.0
C360 C 0.46093 0.38128 0.91476 0.0
H361 H 0.62557 0.55524 0.86278 0.0
H362 H 0.57926 0.50807 0.87279 0.0
C363 C 0.43475 0.35428 0.92065 0.0
C364 C 0.5105 0.42762 0.92377 0.0
H365 H 0.53652 0.4989 0.90337 0.0
C366 C 0.53852 0.42848 0.92564 0.0
C367 C 0.50967 0.45322 0.91563 0.0
C368 C 0.48014 0.4536 0.91379 0.0
C369 C 0.56584 0.45422 0.9193 0.0
C370 C 0.56511 0.48003 0.91137 0.0
C371 C 0.53701 0.47909 0.90944 0.0
C372 C 0.59329 0.5084 0.90528 0.0
C373 C 0.59512 0.45327 0.9207 0.0
C374 C 0.61634 0.52439 0.92029 0.0
C375 C 0.64284 0.5512 0.9146 0.0
C376 C 0.64668 0.56276 0.89383 0.0
C377 C 0.62337 0.5469 0.87889 0.0
C378 C 0.59689 0.51998 0.88458 0.0
H379 H 0.59073 0.42945 0.92114 0.0
H380 H 0.61033 0.46525 0.90705 0.0
H381 H 0.60727 0.46477 0.93551 0.0
H382 H 0.61372 0.51627 0.93648 0.0
H383 H 0.66021 0.56297 0.92657 0.0
H384 H 0.15653 0.37828 0.05699 0.0
H385 H 0.18788 0.38092 0.02633 0.0
H386 H 0.13688 0.28285 0.02106 0.0
H387 H 0.10602 0.28003 0.0516 0.0
H388 H 0.22274 0.34985 0.02789 0.0
H389 H 0.14522 0.31279 0.95874 0.0
H390 H 0.1386 0.32901 0.98235 0.0
H391 H 0.12818 0.28941 0.98174 0.0
C392 C 0.15159 0.3574 0.04892 0.0
C393 C 0.12898 0.32893 0.05672 0.0
C394 C 0.16948 0.35894 0.03146 0.0
C395 C 0.16441 0.3321 0.02129 0.0
C396 C 0.14079 0.30386 0.02842 0.0
H397 H 0.22526 0.23261 0.95812 0.0
H398 H 0.19955 0.25876 0.97179 0.0
C399 C 0.12334 0.30227 0.04599 0.0
C400 C 0.18603 0.33252 0.00529 0.0
H401 H 0.18697 0.30227 0.95714 0.0
C402 C 0.21542 0.34036 0.01212 0.0
C403 C 0.17629 0.32017 0.9848 0.0
C404 C 0.14543 0.31263 0.97637 0.0
C405 C 0.23421 0.33327 -0.00015 0.0
C406 C 0.22348 0.31865 0.97998 0.0
C407 C 0.19514 0.31334 0.97239 0.0
C408 C 0.2387 0.3041 0.96875 0.0
C409 C 0.26414 0.33902 0.00912 0.0
C410 C 0.26907 0.32096 0.96177 0.0
C411 C 0.2841 0.30594 0.95411 0.0
C412 C 0.26883 0.27386 0.95312 0.0
C413 C 0.23785 0.25731 0.95881 0.0
C414 C 0.22301 0.27226 0.96657 0.0
H415 H 0.26672 0.34609 0.02604 0.0
H416 H 0.26619 0.31822 0.00796 0.0
H417 H 0.28324 0.3575 8e-05 0.0
H418 H 0.28143 0.34561 0.96287 0.0
H419 H 0.30789 0.31939 0.94966 0.0
H420 H 0.77656 0.16063 0.22476 0.0
H421 H 0.80552 0.19599 0.1958 0.0
H422 H 0.8524 0.14583 0.1844 0.0
H423 H 0.82417 0.11103 0.21329 0.0
H424 H 0.87179 0.23035 0.19775 0.0
H425 H 0.83099 0.16273 0.12396 0.0
H426 H 0.80797 0.15332 0.14773 0.0
H427 H 0.83652 0.14223 0.14513 0.0
C428 C 0.79251 0.15678 0.21569 0.0
C429 C 0.79828 0.13322 0.22131 0.0
C430 C 0.809 0.17696 0.1992 0.0
C431 C 0.83078 0.17325 0.18782 0.0
C432 C 0.83529 0.14875 0.19273 0.0
H433 H 0.99038 0.23565 0.12672 0.0
H434 H 0.9381 0.21095 0.1393 0.0
C435 C 0.81932 0.12903 0.20935 0.0
C436 C 0.85214 0.19689 0.17291 0.0
H437 H 0.88385 0.20349 0.12409 0.0
C438 C 0.874 0.22507 0.18139 0.0
C439 C 0.85477 0.18985 0.15162 0.0
C440 C 0.83111 0.16048 0.14149 0.0
C441 C 0.9003 0.24497 0.16987 0.0
C442 C 0.90432 0.23662 0.14917 0.0
C443 C 0.88086 0.20981 0.13999 0.0
C444 C 0.9346 0.25187 0.13866 0.0
C445 C 0.92481 0.27324 0.18072 0.0
C446 C 0.94987 0.28305 0.13346 0.0
C447 C 0.9802 0.29749 0.1264 0.0
C448 C 0.99555 0.28085 0.12432 0.0
C449 C 0.97945 0.24929 0.12833 0.0
C450 C 0.9494 0.23503 0.13543 0.0
H451 H 0.91967 0.2742 0.19776 0.0
H452 H 0.94718 0.27423 0.17957 0.0
H453 H 0.92692 0.29378 0.17279 0.0
H454 H 0.93867 0.29636 0.13545 0.0
H455 H 0.99189 0.32178 0.12328 0.0
H456 H 0.71977 0.82725 0.37224 0.0
H457 H 0.71133 0.85413 0.3433 0.0
H458 H 0.61423 0.80116 0.35349 0.0
H459 H 0.6225 0.77378 0.38266 0.0
H460 H 0.67084 0.83298 0.30433 0.0
H461 H 0.64174 0.89402 0.36563 0.0
H462 H 0.66146 0.87386 0.37278 0.0
H463 H 0.62201 0.85293 0.36538 0.0
C464 C 0.69655 0.82085 0.3681 0.0
C465 C 0.67182 0.79866 0.37988 0.0
C466 C 0.69177 0.83613 0.35148 0.0
C467 C 0.66221 0.82978 0.34641 0.0
C468 C 0.63723 0.8064 0.35726 0.0
H469 H 0.6702 0.98873 0.28532 0.0
H470 H 0.64344 0.93507 0.29644 0.0
C471 C 0.64199 0.79077 0.37384 0.0
C472 C 0.65867 0.8504 0.33153 0.0
H473 H 0.65628 0.91654 0.33216 0.0
C474 C 0.66677 0.8508 0.3102 0.0
C475 C 0.653 0.87337 0.33918 0.0
C476 C 0.6441 0.87381 0.36198 0.0
C477 C 0.67168 0.87495 0.29674 0.0
C478 C 0.66929 0.89967 0.30505 0.0
C479 C 0.65832 0.89772 0.3258 0.0
C480 C 0.68323 0.92976 0.29425 0.0
C481 C 0.68068 0.87435 0.27401 0.0
C482 C 0.71431 0.94446 0.28897 0.0
C483 C 0.72956 0.97493 0.28266 0.0
C484 C 0.7142 0.99161 0.28169 0.0
C485 C 0.68269 0.97651 0.28589 0.0
C486 C 0.66736 0.94585 0.29224 0.0
H487 H 0.66923 0.85059 0.26787 0.0
H488 H 0.67485 0.88838 0.26357 0.0
H489 H 0.70565 0.88333 0.27319 0.0
H490 H 0.72735 0.93296 0.29096 0.0
H491 H 0.7538 0.98578 0.2795 0.0
H492 H 0.69214 0.68703 0.46851 0.0
H493 H 0.72274 0.66815 0.48584 0.0
H494 H 0.79788 0.72308 0.44388 0.0
H495 H 0.76799 0.7436 0.42751 0.0
H496 H 0.75558 0.64066 0.47851 0.0
H497 H 0.83336 0.76239 0.49946 0.0
H498 H 0.79758 0.74986 0.48619 0.0
H499 H 0.83031 0.75481 0.47153 0.0
C500 C 0.71491 0.69445 0.46263 0.0
C501 C 0.72798 0.71716 0.44698 0.0
C502 C 0.73241 0.68364 0.47254 0.0
C503 C 0.76299 0.695 0.46664 0.0
C504 C 0.77471 0.71483 0.44919 0.0
H505 H 0.87732 0.64641 0.54715 0.0
H506 H 0.84907 0.64766 0.51567 0.0
C507 C 0.75758 0.72636 0.43974 0.0
C508 C 0.78342 0.68955 0.48065 0.0
H509 H 0.8448 0.72673 0.51354 0.0
C510 C 0.7753 0.65944 0.48603 0.0
C511 C 0.80901 0.71413 0.49063 0.0
C512 C 0.81798 0.74709 0.48685 0.0
C513 C 0.79133 0.65331 0.50172 0.0
C514 C 0.81646 0.67795 0.51188 0.0
C515 C 0.82551 0.7079 0.50567 0.0
C516 C 0.83137 0.67398 0.53092 0.0
C517 C 0.78031 0.62072 0.50811 0.0
C518 C 0.8307 0.68822 0.54985 0.0
C519 C 0.84713 0.68806 0.56748 0.0
C520 C 0.86441 0.67334 0.56675 0.0
C521 C 0.86412 0.65787 0.54812 0.0
C522 C 0.8479 0.65844 0.53021 0.0
H523 H 0.75771 0.60467 0.50111 0.0
H524 H 0.79693 0.61396 0.50262 0.0
H525 H 0.77863 0.61836 0.52565 0.0
H526 H 0.81797 0.70018 0.55082 0.0
H527 H 0.84654 0.69984 0.58167 0.0
H528 H 0.01581 0.77043 0.62157 0.0
H529 H 0.06888 0.79563 0.63234 0.0
H530 H 0.06607 0.70899 0.6336 0.0
H531 H 0.01218 0.68325 0.62323 0.0
H532 H 0.08529 0.73751 0.6701 0.0
H533 H 0.15081 0.82106 0.60807 0.0
H534 H 0.11837 0.82471 0.61464 0.0
H535 H 0.11284 0.78952 0.60329 0.0
C536 C 0.02656 0.7567 0.62363 0.0
C537 C 0.00961 0.72476 0.62175 0.0
C538 C 0.05717 0.77126 0.62954 0.0
C539 C 0.07175 0.75433 0.63348 0.0
C540 C 0.05539 0.72256 0.63046 0.0
H541 H 0.22925 0.84344 0.72138 0.0
H542 H 0.20145 0.80971 0.69141 0.0
C543 C 0.02459 0.70789 0.62453 0.0
C544 C 0.10197 0.76947 0.64413 0.0
H545 H 0.16872 0.83752 0.64498 0.0
C546 C 0.10408 0.75879 0.66427 0.0
C547 C 0.12667 0.79712 0.63649 0.0
C548 C 0.12712 0.8085 0.61431 0.0
C549 C 0.12857 0.77666 0.67787 0.0
C550 C 0.15147 0.80584 0.67107 0.0
C551 C 0.15094 0.81522 0.65021 0.0
C552 C 0.17202 0.82881 0.68661 0.0
C553 C 0.12834 0.76554 0.70013 0.0
C554 C 0.1652 0.85114 0.6933 0.0
C555 C 0.18068 0.87005 0.71038 0.0
C556 C 0.20354 0.86721 0.72102 0.0
C557 C 0.21173 0.84611 0.71347 0.0
C558 C 0.19589 0.82684 0.69641 0.0
H559 H 0.10844 0.7425 0.70307 0.0
H560 H 0.14951 0.76461 0.70293 0.0
H561 H 0.12782 0.78171 0.71181 0.0
H562 H 0.1468 0.85293 0.68595 0.0
H563 H 0.17404 0.88627 0.71569 0.0
H564 H 0.24728 0.0112 0.78226 0.0
H565 H 0.27327 0.06357 0.7946 0.0
H566 H 0.35721 0.06161 0.80042 0.0
H567 H 0.33087 0.00831 0.78844 0.0
H568 H 0.34374 0.07909 0.83623 0.0
H569 H 0.33139 0.14664 0.77288 0.0
H570 H 0.29491 0.1137 0.77768 0.0
H571 H 0.32594 0.10903 0.76804 0.0
C572 C 0.27144 0.02199 0.78569 0.0
C573 C 0.28691 0.00543 0.78455 0.0
C574 C 0.28644 0.05222 0.7925 0.0
C575 C 0.31739 0.06684 0.79811 0.0
C576 C 0.33339 0.0509 0.79597 0.0
H577 H 0.37705 0.22241 0.88694 0.0
H578 H 0.38506 0.19525 0.85749 0.0
C579 C 0.31831 0.02046 0.78912 0.0
C580 C 0.33096 0.09659 0.80935 0.0
H581 H 0.32876 0.16296 0.80962 0.0
C582 C 0.34162 0.098 0.83013 0.0
C583 C 0.32847 0.12144 0.8014 0.0
C584 C 0.31986 0.1227 0.77867 0.0
C585 C 0.34657 0.1219 0.84384 0.0
C586 C 0.34074 0.1449 0.83653 0.0
C587 C 0.33292 0.14508 0.81522 0.0
C588 C 0.33697 0.16503 0.85172 0.0
C589 C 0.35529 0.12098 0.86662 0.0
C590 C 0.30736 0.15753 0.85768 0.0
C591 C 0.30272 0.17266 0.87448 0.0
C592 C 0.32765 0.19582 0.88555 0.0
C593 C 0.35741 0.20469 0.87867 0.0
C594 C 0.36204 0.18921 0.86192 0.0
H595 H 0.3587 0.1013 0.86984 0.0
H596 H 0.37672 0.14233 0.87046 0.0
H597 H 0.33724 0.11953 0.87738 0.0
H598 H 0.28775 0.13887 0.84999 0.0
H599 H 0.27954 0.16546 0.87929 0.0
H600 H 0.75173 0.76361 0.88333 0.0
H601 H 0.72475 0.78804 0.86913 0.0
H602 H 0.64242 0.70061 0.86422 0.0
H603 H 0.66974 0.67563 0.87813 0.0
H604 H 0.65601 0.73013 0.82755 0.0
H605 H 0.66407 0.81114 0.88878 0.0
H606 H 0.7011 0.8156 0.88476 0.0
H607 H 0.67054 0.77989 0.89473 0.0
C608 C 0.72771 0.74952 0.87969 0.0
C609 C 0.71298 0.7176 0.88172 0.0
C610 C 0.71214 0.76363 0.87179 0.0
C611 C 0.68135 0.74629 0.86593 0.0
C612 C 0.66609 0.7145 0.86885 0.0
H613 H 0.61847 0.83527 0.77313 0.0
H614 H 0.61095 0.80057 0.80284 0.0
C615 C 0.68173 0.70026 0.87681 0.0
C616 C 0.66717 0.76119 0.85382 0.0
H617 H 0.66628 0.82817 0.85163 0.0
C618 C 0.65711 0.75096 0.83308 0.0
C619 C 0.66833 0.78826 0.86104 0.0
C620 C 0.67629 0.79909 0.88366 0.0
C621 C 0.65145 0.76875 0.81871 0.0
C622 C 0.65592 0.79739 0.82532 0.0
C623 C 0.66314 0.80629 0.84658 0.0
C624 C 0.65908 0.82044 0.80957 0.0
C625 C 0.64344 0.75818 0.79603 0.0
C626 C 0.6885 0.84342 0.804 0.0
C627 C 0.69286 0.86289 0.78707 0.0
C628 C 0.66783 0.85998 0.77546 0.0
C629 C 0.63817 0.83805 0.78182 0.0
C630 C 0.63383 0.81822 0.79871 0.0
H631 H 0.64107 0.73538 0.79339 0.0
H632 H 0.62162 0.757 0.79169 0.0
H633 H 0.66135 0.77485 0.78522 0.0
H634 H 0.70825 0.84543 0.81218 0.0
H635 H 0.71597 0.87971 0.78269 0.0
H636 H 0.77608 0.61832 0.94779 0.0
H637 H 0.80502 0.61374 0.97752 0.0
H638 H 0.8516 0.71131 0.98613 0.0
H639 H 0.82334 0.71608 0.95647 0.0
H640 H 0.87071 0.64516 0.97505 0.0
H641 H 0.83192 0.67708 0.0476 0.0
H642 H 0.8084 0.66223 0.02414 0.0
H643 H 0.83725 0.70188 0.02564 0.0
C644 C 0.79191 0.63865 0.95643 0.0
C645 C 0.79763 0.66758 0.94978 0.0
C646 C 0.80839 0.63599 0.97336 0.0
C647 C 0.83015 0.66214 0.98416 0.0
C648 C 0.8345 0.69079 0.97828 0.0
H649 H 0.99139 0.76162 0.04337 0.0
H650 H 0.93873 0.73393 0.03162 0.0
C651 C 0.81851 0.69351 0.96121 0.0
C652 C 0.85182 0.66078 0.99927 0.0
H653 H 0.88462 0.68862 0.04743 0.0
C654 C 0.87334 0.65369 0.99116 0.0
C655 C 0.85499 0.67181 0.02023 0.0
C656 C 0.83171 0.67841 0.03001 0.0
C657 C 0.8998 0.66054 0.0026 0.0
C658 C 0.90433 0.67413 0.02293 0.0
C659 C 0.88124 0.67836 0.03182 0.0
C660 C 0.9348 0.68936 0.03319 0.0
C661 C 0.92391 0.65584 0.992 0.0
C662 C 0.94995 0.67344 0.0387 0.0
C663 C 0.98052 0.6894 0.04525 0.0
C664 C 0.99621 0.72146 0.04654 0.0
C665 C 0.98021 0.73698 0.04235 0.0
C666 C 0.94993 0.72113 0.03573 0.0
H667 H 0.91851 0.64906 0.97509 0.0
H668 H 0.94647 0.67704 0.99277 0.0
H669 H 0.92576 0.63755 0.00038 0.0
H670 H 0.9385 0.64884 0.03729 0.0
H671 H 0.99211 0.67673 0.04855 0.0
H672 H 0.22997 0.99517 0.21495 0.0
H673 H 0.20427 0.9433 0.20151 0.0
H674 H 0.2897 0.9437 0.20055 0.0
H675 H 0.31598 0.99638 0.21365 0.0
H676 H 0.26235 0.92786 0.16315 0.0
H677 H 0.17631 0.85932 0.22321 0.0
H678 H 0.17388 0.89272 0.21757 0.0
H679 H 0.20825 0.89659 0.22916 0.0
C680 C 0.24331 0.98411 0.21236 0.0
C681 C 0.27511 7e-05 0.21523 0.0
C682 C 0.22845 0.95418 0.20488 0.0
C683 C 0.24491 0.93929 0.20033 0.0
C684 C 0.27648 0.95462 0.20415 0.0
H685 H 0.15677 0.78194 0.11172 0.0
H686 H 0.18991 0.81074 0.14169 0.0
C687 C 0.29146 0.98473 0.21164 0.0
C688 C 0.22962 0.90988 0.18864 0.0
H689 H 0.16153 0.84327 0.18598 0.0
C690 C 0.24085 0.90883 0.16846 0.0
C691 C 0.20164 0.8849 0.19557 0.0
C692 C 0.18957 0.88335 0.21768 0.0
C693 C 0.2234 0.885 0.15427 0.0
C694 C 0.19408 0.86173 0.16047 0.0
C695 C 0.18397 0.86132 0.18125 0.0
C696 C 0.17188 0.84137 0.1445 0.0
C697 C 0.2352 0.88614 0.1321 0.0
C698 C 0.1505 0.84875 0.13662 0.0
C699 C 0.13193 0.83271 0.11952 0.0
C700 C 0.13417 0.80874 0.11007 0.0
C701 C 0.15452 0.80027 0.11872 0.0
C702 C 0.17344 0.81666 0.13577 0.0
H703 H 0.25866 0.90567 0.12984 0.0
H704 H 0.2353 0.86468 0.12868 0.0
H705 H 0.21984 0.88807 0.1204 0.0
H706 H 0.14906 0.8678 0.14315 0.0
H707 H 0.11633 0.83964 0.11335 0.0
H708 H 0.28452 0.11786 0.28741 0.0
H709 H 0.29147 0.15171 0.31704 0.0
H710 H 0.389 0.19686 0.30875 0.0
H711 H 0.38221 0.16263 0.2789 0.0
H712 H 0.33111 0.16909 0.35686 0.0
H713 H 0.36038 0.26216 0.29798 0.0
H714 H 0.34097 0.22271 0.28976 0.0
H715 H 0.38024 0.2409 0.29756 0.0
C716 C 0.30751 0.13461 0.29209 0.0
C717 C 0.33282 0.13783 0.28069 0.0
C718 C 0.31144 0.15382 0.3091 0.0
C719 C 0.3407 0.17685 0.31494 0.0
C720 C 0.36623 0.1792 0.30439 0.0
H721 H 0.32713 0.32225 0.38001 0.0
H722 H 0.35517 0.29703 0.36801 0.0
C723 C 0.36232 0.15963 0.28742 0.0
C724 C 0.34339 0.20002 0.33044 0.0
H725 H 0.34398 0.26766 0.33151 0.0
C726 C 0.33482 0.19109 0.35155 0.0
C727 C 0.3486 0.22881 0.32352 0.0
C728 C 0.35804 0.23945 0.30099 0.0
C729 C 0.32896 0.20922 0.36548 0.0
C730 C 0.33085 0.23643 0.35784 0.0
C731 C 0.34231 0.24671 0.33735 0.0
C732 C 0.31602 0.25143 0.36905 0.0
C733 C 0.3195 0.19832 0.38795 0.0
C734 C 0.28485 0.23421 0.37394 0.0
C735 C 0.26887 0.24846 0.38076 0.0
C736 C 0.28357 0.28039 0.38263 0.0
C737 C 0.31514 0.2976 0.37876 0.0
C738 C 0.33119 0.28323 0.3719 0.0
H739 H 0.33127 0.18617 0.39378 0.0
H740 H 0.3246 0.21751 0.39888 0.0
H741 H 0.29462 0.18188 0.38835 0.0
H742 H 0.27234 0.20979 0.37129 0.0
H743 H 0.24461 0.23447 0.38363 0.0
H744 H 0.21784 0.38117 0.44337 0.0
H745 H 0.18858 0.38628 0.47268 0.0
H746 H 0.14096 0.28875 0.48159 0.0
H747 H 0.16946 0.28343 0.45227 0.0
H748 H 0.12098 0.35304 0.47026 0.0
H749 H 0.16401 0.32611 0.54308 0.0
H750 H 0.18683 0.34119 0.51934 0.0
H751 H 0.15892 0.3013 0.52114 0.0
C752 C 0.20162 0.36094 0.45194 0.0
C753 C 0.19577 0.33187 0.44551 0.0
C754 C 0.18496 0.3639 0.46863 0.0
C755 C 0.16291 0.33792 0.47941 0.0
C756 C 0.15824 0.30912 0.47368 0.0
H757 H 0.00557 0.2412 0.54423 0.0
H758 H 0.05742 0.26852 0.5309 0.0
C759 C 0.17438 0.30609 0.45684 0.0
C760 C 0.14164 0.33971 0.49466 0.0
H761 H 0.11181 0.31522 0.54401 0.0
C762 C 0.11935 0.34572 0.48662 0.0
C763 C 0.13978 0.33021 0.51593 0.0
C764 C 0.16383 0.32459 0.52549 0.0
C765 C 0.09343 0.33935 0.49861 0.0
C766 C 0.09029 0.32743 0.5194 0.0
C767 C 0.11414 0.32424 0.52807 0.0
C768 C 0.06049 0.31275 0.53058 0.0
C769 C 0.06843 0.34274 0.48817 0.0
C770 C 0.04515 0.32868 0.53562 0.0
C771 C 0.015 0.31289 0.54307 0.0
C772 C 0.99995 0.28103 0.54577 0.0
C773 C 0.01625 0.26566 0.54212 0.0
C774 C 0.04608 0.28132 0.53458 0.0
H775 H 0.07268 0.348 0.47097 0.0
H776 H 0.04608 0.32152 0.49003 0.0
H777 H 0.06686 0.36163 0.49587 0.0
H778 H 0.05608 0.35307 0.53312 0.0
H779 H 0.00317 0.32544 0.54592 0.0
H780 H 0.88468 0.16673 0.61662 0.0
H781 H 0.85237 0.13874 0.64661 0.0
H782 H 0.80676 0.19127 0.64244 0.0
H783 H 0.83942 0.21981 0.61221 0.0
H784 H 0.83727 0.15958 0.68797 0.0
H785 H 0.74091 0.09786 0.63112 0.0
H786 H 0.77986 0.11817 0.62188 0.0
H787 H 0.76209 0.13897 0.6313 0.0
C788 C 0.86815 0.17275 0.62226 0.0
C789 C 0.86434 0.19523 0.61191 0.0
C790 C 0.84982 0.15684 0.63948 0.0
C791 C 0.82711 0.16283 0.6466 0.0
C792 C 0.82417 0.18633 0.63709 0.0
H793 H 0.68404 0.00363 0.71277 0.0
H794 H 0.70956 0.05703 0.70122 0.0
C795 C 0.84285 0.20261 0.61989 0.0
C796 C 0.80483 0.14189 0.66235 0.0
H797 H 0.73695 0.07524 0.66417 0.0
C798 C 0.81493 0.14157 0.68303 0.0
C799 C 0.77561 0.11866 0.65592 0.0
C800 C 0.76375 0.11815 0.63386 0.0
C801 C 0.79743 0.11732 0.69693 0.0
C802 C 0.76965 0.09241 0.68968 0.0
C803 C 0.75833 0.09421 0.66971 0.0
C804 C 0.75476 0.06242 0.70066 0.0
C805 C 0.80954 0.11808 0.71891 0.0
C806 C 0.77169 0.04784 0.70453 0.0
C807 C 0.75725 0.01749 0.71114 0.0
C808 C 0.72542 0.00081 0.71376 0.0
C809 C 0.70858 0.01582 0.7109 0.0
C810 C 0.72314 0.04635 0.7043 0.0
H811 H 0.82237 0.14187 0.72497 0.0
H812 H 0.79093 0.10402 0.73024 0.0
H813 H 0.82565 0.10922 0.71831 0.0
H814 H 0.79592 0.05932 0.70126 0.0
H815 H 0.77097 0.00672 0.71319 0.0
H816 H 0.258 0.39869 0.33317 0.0
H817 H 0.24797 0.41436 0.29862 0.0
H818 H 0.16146 0.33079 0.29526 0.0
H819 H 0.17096 0.31524 0.32959 0.0
H820 H 0.23972 0.38503 0.26073 0.0
H821 H 0.1374 0.39318 0.27875 0.0
H822 H 0.16196 0.39251 0.29928 0.0
H823 H 0.1326 0.35744 0.28777 0.0
C824 C 0.23665 0.38389 0.32519 0.0
C825 C 0.21527 0.35572 0.33418 0.0
C826 C 0.23097 0.39288 0.30547 0.0
C827 C 0.20371 0.37402 0.29455 0.0
C828 C 0.18227 0.34612 0.30363 0.0
H829 H 0.15051 0.32095 0.17081 0.0
H830 H 0.17526 0.33603 0.20523 0.0
C831 C 0.18791 0.33712 0.32323 0.0
C832 C 0.19836 0.38175 0.27285 0.0
H833 H 0.14265 0.38122 0.24206 0.0
C834 C 0.21885 0.38496 0.25669 0.0
C835 C 0.17151 0.38239 0.26757 0.0
C836 C 0.14981 0.38154 0.28433 0.0
C837 C 0.21186 0.38604 0.23526 0.0
C838 C 0.18343 0.38326 0.22989 0.0
C839 C 0.16424 0.38285 0.24613 0.0
C840 C 0.17141 0.37663 0.20789 0.0
C841 C 0.23457 0.3891 0.21856 0.0
C842 C 0.16059 0.39424 0.19794 0.0
C843 C 0.14609 0.3855 0.17814 0.0
C844 C 0.14184 0.35877 0.16815 0.0
C845 C 0.15337 0.34167 0.178 0.0
C846 C 0.16786 0.35044 0.19764 0.0
H847 H 0.25827 0.40212 0.22472 0.0
H848 H 0.23019 0.36605 0.21405 0.0
H849 H 0.23276 0.40067 0.20411 0.0
H850 H 0.1628 0.41437 0.20568 0.0
H851 H 0.13736 0.39909 0.17102 0.0
H852 H 0.85102 0.16602 0.49633 0.0
H853 H 0.82716 0.15604 0.46155 0.0
H854 H 0.83096 0.2431 0.46297 0.0
H855 H 0.85558 0.25367 0.49795 0.0
H856 H 0.77394 0.15328 0.44674 0.0
H857 H 0.8778 0.24742 0.40865 0.0
H858 H 0.87844 0.23432 0.43517 0.0
H859 H 0.86136 0.25745 0.4303 0.0
C860 C 0.84668 0.18307 0.4894 0.0
C861 C 0.85557 0.21083 0.49986 0.0
C862 C 0.83288 0.17723 0.4695 0.0
C863 C 0.82763 0.19897 0.45955 0.0
C864 C 0.83525 0.22622 0.47025 0.0
H865 H 0.73882 0.13569 0.3339 0.0
H866 H 0.7488 0.16021 0.36888 0.0
C867 C 0.84917 0.23215 0.49026 0.0
C868 C 0.81579 0.19318 0.43751 0.0
H869 H 0.83861 0.21361 0.38622 0.0
C870 C 0.78772 0.16678 0.43347 0.0
C871 C 0.83397 0.21082 0.42028 0.0
C872 C 0.86467 0.239 0.42366 0.0
C873 C 0.7782 0.15648 0.41266 0.0
C874 C 0.79706 0.17338 0.39546 0.0
C875 C 0.8242 0.20079 0.39947 0.0
C876 C 0.79144 0.1608 0.37363 0.0
C877 C 0.74912 0.12652 0.40933 0.0
C878 C 0.81251 0.15388 0.36446 0.0
C879 C 0.80702 0.14014 0.34455 0.0
C880 C 0.78028 0.13298 0.33328 0.0
C881 C 0.75953 0.14073 0.34221 0.0
C882 C 0.76513 0.15461 0.36222 0.0
H883 H 0.73965 0.11407 0.42447 0.0
H884 H 0.73175 0.13087 0.40196 0.0
H885 H 0.75314 0.11162 0.39845 0.0
H886 H 0.83296 0.15845 0.37298 0.0
H887 H 0.82359 0.13465 0.33817 0.0
H888 H 0.68114 0.83833 0.66657 0.0
H889 H 0.67369 0.81907 0.63026 0.0
H890 H 0.61887 0.86038 0.61655 0.0
H891 H 0.62532 0.87883 0.65328 0.0
H892 H 0.59743 0.80514 0.59609 0.0
H893 H 0.72174 0.87823 0.58341 0.0
H894 H 0.71317 0.85179 0.60479 0.0
H895 H 0.70289 0.88103 0.60686 0.0
C896 C 0.66712 0.84295 0.65592 0.0
C897 C 0.65417 0.86046 0.66265 0.0
C898 C 0.66299 0.83204 0.63515 0.0
C899 C 0.64651 0.83907 0.62053 0.0
C900 C 0.63192 0.85492 0.62754 0.0
H901 H 0.68496 0.83835 0.48666 0.0
H902 H 0.6756 0.85253 0.52172 0.0
C903 C 0.6356 0.86544 0.6485 0.0
C904 C 0.64643 0.83169 0.59773 0.0
H905 H 0.69431 0.8417 0.55658 0.0
C906 C 0.61856 0.81328 0.58735 0.0
C907 C 0.67398 0.84292 0.5862 0.0
C908 C 0.7046 0.86485 0.59581 0.0
C909 C 0.61759 0.80507 0.5659 0.0
C910 C 0.64528 0.81494 0.55474 0.0
C911 C 0.67304 0.8339 0.56508 0.0
C912 C 0.64656 0.80604 0.53242 0.0
C913 C 0.58694 0.78637 0.55538 0.0
C914 C 0.6327 0.77518 0.52645 0.0
C915 C 0.63751 0.76705 0.50616 0.0
C916 C 0.65695 0.78963 0.49174 0.0
C917 C 0.67003 0.82046 0.49751 0.0
C918 C 0.66468 0.82857 0.51755 0.0
H919 H 0.56914 0.78949 0.5634 0.0
H920 H 0.58778 0.79249 0.53837 0.0
H921 H 0.57996 0.76184 0.55645 0.0
H922 H 0.6193 0.7573 0.53774 0.0
H923 H 0.62737 0.74309 0.50219 0.0
H924 H 0.86863 0.6874 0.68288 0.0
H925 H 0.84324 0.67016 0.71689 0.0
H926 H 0.8408 0.58428 0.70921 0.0
H927 H 0.86677 0.60158 0.67472 0.0
H928 H 0.78558 0.61709 0.72638 0.0
H929 H 0.88398 0.61884 0.76756 0.0
H930 H 0.88867 0.63819 0.74259 0.0
H931 H 0.86989 0.59734 0.74335 0.0
C932 C 0.86275 0.66479 0.68827 0.0
C933 C 0.86997 0.64595 0.67608 0.0
C934 C 0.84807 0.65492 0.70773 0.0
C935 C 0.84027 0.62604 0.7156 0.0
C936 C 0.84688 0.60678 0.70345 0.0
H937 H 0.74256 0.59815 0.83767 0.0
H938 H 0.75452 0.5824 0.80382 0.0
C939 C 0.86163 0.61666 0.68377 0.0
C940 C 0.82612 0.61734 0.73691 0.0
H941 H 0.84475 0.6162 0.78881 0.0
C942 C 0.79802 0.61601 0.74006 0.0
C943 C 0.84258 0.6161 0.75462 0.0
C944 C 0.87302 0.61777 0.75206 0.0
C945 C 0.78706 0.61588 0.76054 0.0
C946 C 0.8045 0.61661 0.77831 0.0
C947 C 0.83144 0.61559 0.77513 0.0
C948 C 0.79802 0.62375 0.79985 0.0
C949 C 0.75822 0.61749 0.76297 0.0
C950 C 0.81891 0.65169 0.80913 0.0
C951 C 0.81227 0.66065 0.82838 0.0
C952 C 0.78452 0.64184 0.83885 0.0
C953 C 0.76404 0.61326 0.82995 0.0
C954 C 0.77078 0.60426 0.81059 0.0
H955 H 0.74966 0.62078 0.74753 0.0
H956 H 0.74017 0.59595 0.77013 0.0
H957 H 0.76215 0.63652 0.77371 0.0
H958 H 0.84005 0.66709 0.80111 0.0
H959 H 0.82869 0.68271 0.8348 0.0
H960 H 0.17517 0.85899 0.83743 0.0
H961 H 0.16511 0.83453 0.87201 0.0
H962 H 0.2503 0.83464 0.86903 0.0
H963 H 0.26099 0.85988 0.83427 0.0
H964 H 0.16015 0.77995 0.88571 0.0
H965 H 0.25759 0.88058 0.92428 0.0
H966 H 0.24454 0.88264 0.89803 0.0
H967 H 0.26617 0.86376 0.90212 0.0
C968 C 0.19182 0.85375 0.84399 0.0
C969 C 0.21908 0.86174 0.83313 0.0
C970 C 0.18592 0.8396 0.86377 0.0
C971 C 0.20709 0.83307 0.87322 0.0
C972 C 0.23387 0.83992 0.86216 0.0
H973 H 0.14014 0.74353 0.9985 0.0
H974 H 0.16536 0.75252 0.96378 0.0
C975 C 0.23987 0.85422 0.84227 0.0
C976 C 0.20121 0.8206 0.8951 0.0
H977 H 0.22273 0.84176 0.94648 0.0
C978 C 0.17413 0.79307 0.89903 0.0
C979 C 0.21952 0.83788 0.91239 0.0
C980 C 0.2485 0.86795 0.90916 0.0
C981 C 0.16379 0.78339 0.91981 0.0
C982 C 0.18132 0.80151 0.9371 0.0
C983 C 0.20943 0.82792 0.93317 0.0
C984 C 0.16863 0.79641 0.95889 0.0
C985 C 0.13314 0.7551 0.92306 0.0
C986 C 0.16302 0.81847 0.9679 0.0
C987 C 0.1489 0.81353 0.98763 0.0
C988 C 0.14001 0.78636 0.99889 0.0
C989 C 0.14656 0.76463 0.99019 0.0
C990 C 0.16082 0.76965 0.97033 0.0
H991 H 0.12065 0.74602 0.90789 0.0
H992 H 0.13643 0.73707 0.9305 0.0
H993 H 0.11877 0.75998 0.93387 0.0
H994 H 0.16884 0.83928 0.95936 0.0
H995 H 0.14441 0.83088 0.99383 0.0
H996 H 0.32345 0.16399 0.17128 0.0
H997 H 0.33254 0.18405 0.13514 0.0
H998 H 0.38999 0.14519 0.12318 0.0
H999 H 0.38171 0.12574 0.15971 0.0
H1000 H 0.41062 0.20219 0.10291 0.0
H1001 H 0.28787 0.12233 0.08794 0.0
H1002 H 0.29438 0.14816 0.10942 0.0
H1003 H 0.30685 0.12061 0.11167 0.0
C1004 C 0.33844 0.16014 0.16108 0.0
C1005 C 0.35149 0.14288 0.1682 0.0
C1006 C 0.34356 0.17156 0.14043 0.0
C1007 C 0.36128 0.16542 0.12635 0.0
C1008 C 0.37606 0.15 0.13379 0.0
H1009 H 0.32713 0.16144 0.99183 0.0
H1010 H 0.33808 0.14962 0.02716 0.0
C1011 C 0.3713 0.13889 0.15463 0.0
C1012 C 0.36189 0.17262 0.10349 0.0
H1013 H 0.31491 0.15875 0.06111 0.0
C1014 C 0.38978 0.1926 0.09366 0.0
C1015 C 0.33474 0.15955 0.09138 0.0
C1016 C 0.30431 0.13623 0.10056 0.0
C1017 C 0.39107 0.2005 0.07211 0.0
C1018 C 0.36366 0.18851 0.06029 0.0
C1019 C 0.33595 0.16808 0.07012 0.0
C1020 C 0.36256 0.19661 0.03777 0.0
C1021 C 0.42175 0.22119 0.06218 0.0
C1022 C 0.37359 0.22708 0.03164 0.0
C1023 C 0.36784 0.23393 0.01121 0.0
C1024 C 0.35031 0.21035 0.99682 0.0
C1025 C 0.3405 0.18005 0.00267 0.0
C1026 C 0.34677 0.17328 0.02286 0.0
H1027 H 0.44035 0.22034 0.07095 0.0
H1028 H 0.42234 0.21498 0.04535 0.0
H1029 H 0.42637 0.24506 0.0627 0.0
H1030 H 0.38519 0.24544 0.04296 0.0
H1031 H 0.37545 0.25747 0.00716 0.0
loop_
_geom_bond_atom_site_label_1
_geom_bond_atom_site_label_2
_geom_bond_distance
_geom_bond_site_symmetry_2
_ccdc_geom_bond_type
Zn0 O3 2.031 . S
Zn0 O5 2.049 . S
Zn0 O10 2.067 . S
Zn1 O2 1.962 . S
Zn1 O4 1.986 . S
Zn1 O6 1.996 . S
Zn1 O9 1.943 . S
O2 Zn1 1.962 . S
O2 C7 1.254 . S
O3 Zn0 2.031 . S
O3 C7 1.269 . S
O4 Zn1 1.986 . S
O4 C11 1.262 . S
O5 Zn0 2.049 . S
O5 C13 1.260 . S
O6 Zn1 1.996 . S
O6 C13 1.257 . S
C7 O2 1.254 . S
C7 O3 1.269 . S
C8 O9 1.249 . S
C8 O10 1.270 . S
O9 Zn1 1.943 . S
O9 C8 1.249 . S
O10 Zn0 2.067 . S
O10 C8 1.270 . S
C11 O4 1.262 . S
C11 O12 1.232 . S
O12 C11 1.232 . S
C13 O5 1.260 . S
C13 O6 1.257 . S
Zn14 O17 2.031 . S
Zn14 O19 2.049 . S
Zn14 O24 2.067 . S
Zn15 O16 1.962 . S
Zn15 O18 1.986 . S
Zn15 O20 1.996 . S
Zn15 O23 1.943 . S
O16 Zn15 1.962 . S
O16 C21 1.254 . S
O17 Zn14 2.031 . S
O17 C21 1.269 . S
O18 Zn15 1.986 . S
O18 C25 1.262 . S
O19 Zn14 2.049 . S
O19 C27 1.260 . S
O20 Zn15 1.996 . S
O20 C27 1.257 . S
C21 O16 1.254 . S
C21 O17 1.269 . S
C22 O23 1.249 . S
C22 O24 1.270 . S
O23 Zn15 1.943 . S
O23 C22 1.249 . S
O24 Zn14 2.067 . S
O24 C22 1.270 . S
C25 O18 1.262 . S
C25 O26 1.232 . S
O26 C25 1.232 . S
C27 O19 1.260 . S
C27 O20 1.257 . S
Zn28 O31 2.031 . S
Zn28 O33 2.049 . S
Zn28 O38 2.067 . S
Zn29 O30 1.962 . S
Zn29 O32 1.986 . S
Zn29 O34 1.996 . S
Zn29 O37 1.943 . S
O30 Zn29 1.962 . S
O30 C35 1.254 . S
O31 Zn28 2.031 . S
O31 C35 1.269 . S
O32 Zn29 1.986 . S
O32 C39 1.262 . S
O33 Zn28 2.049 . S
O33 C41 1.260 . S
O34 Zn29 1.996 . S
O34 C41 1.257 . S
C35 O30 1.254 . S
C35 O31 1.269 . S
C36 O37 1.249 . S
C36 O38 1.270 . S
O37 Zn29 1.943 . S
O37 C36 1.249 . S
O38 Zn28 2.067 . S
O38 C36 1.270 . S
C39 O32 1.262 . S
C39 O40 1.232 . S
O40 C39 1.232 . S
C41 O33 1.260 . S
C41 O34 1.257 . S
Zn42 O45 2.031 . S
Zn42 O47 2.049 . S
Zn42 O52 2.067 . S
Zn43 O44 1.962 . S
Zn43 O46 1.986 . S
Zn43 O48 1.996 . S
Zn43 O51 1.943 . S
O44 Zn43 1.962 . S
O44 C49 1.254 . S
O45 Zn42 2.031 . S
O45 C49 1.269 . S
O46 Zn43 1.986 . S
O46 C53 1.262 . S
O47 Zn42 2.049 . S
O47 C55 1.260 . S
O48 Zn43 1.996 . S
O48 C55 1.257 . S
C49 O44 1.254 . S
C49 O45 1.269 . S
C50 O51 1.249 . S
C50 O52 1.270 . S
O51 Zn43 1.943 . S
O51 C50 1.249 . S
O52 Zn42 2.067 . S
O52 C50 1.270 . S
C53 O46 1.262 . S
C53 O54 1.232 . S
O54 C53 1.232 . S
C55 O47 1.260 . S
C55 O48 1.257 . S
Zn56 O59 2.031 . S
Zn56 O61 2.049 . S
Zn56 O66 2.067 . S
Zn57 O58 1.962 . S
Zn57 O60 1.986 . S
Zn57 O62 1.996 . S
Zn57 O65 1.943 . S
O58 Zn57 1.962 . S
O58 C63 1.254 . S
O59 Zn56 2.031 . S
O59 C63 1.269 . S
O60 Zn57 1.986 . S
O60 C67 1.262 . S
O61 Zn56 2.049 . S
O61 C69 1.260 . S
O62 Zn57 1.996 . S
O62 C69 1.257 . S
C63 O58 1.254 . S
C63 O59 1.269 . S
C64 O65 1.249 . S
C64 O66 1.270 . S
O65 Zn57 1.943 . S
O65 C64 1.249 . S
O66 Zn56 2.067 . S
O66 C64 1.270 . S
C67 O60 1.262 . S
C67 O68 1.232 . S
O68 C67 1.232 . S
C69 O61 1.260 . S
C69 O62 1.257 . S
Zn70 O73 2.031 . S
Zn70 O75 2.049 . S
Zn70 O80 2.067 . S
Zn71 O72 1.962 . S
Zn71 O74 1.986 . S
Zn71 O76 1.996 . S
Zn71 O79 1.943 . S
O72 Zn71 1.962 . S
O72 C77 1.254 . S
O73 Zn70 2.031 . S
O73 C77 1.269 . S
O74 Zn71 1.986 . S
O74 C81 1.262 . S
O75 Zn70 2.049 . S
O75 C83 1.260 . S
O76 Zn71 1.996 . S
O76 C83 1.257 . S
C77 O72 1.254 . S
C77 O73 1.269 . S
C78 O79 1.249 . S
C78 O80 1.270 . S
O79 Zn71 1.943 . S
O79 C78 1.249 . S
O80 Zn70 2.067 . S
O80 C78 1.270 . S
C81 O74 1.262 . S
C81 O82 1.232 . S
O82 C81 1.232 . S
C83 O75 1.260 . S
C83 O76 1.257 . S
Zn84 O87 2.031 . S
Zn84 O89 2.049 . S
Zn84 O94 2.067 . S
Zn85 O86 1.962 . S
Zn85 O88 1.986 . S
Zn85 O90 1.996 . S
Zn85 O93 1.943 . S
O86 Zn85 1.962 . S
O86 C91 1.254 . S
O87 Zn84 2.031 . S
O87 C91 1.269 . S
O88 Zn85 1.986 . S
O88 C95 1.262 . S
O89 Zn84 2.049 . S
O89 C97 1.260 . S
O90 Zn85 1.996 . S
O90 C97 1.257 . S
C91 O86 1.254 . S
C91 O87 1.269 . S
C92 O93 1.249 . S
C92 O94 1.270 . S
O93 Zn85 1.943 . S
O93 C92 1.249 . S
O94 Zn84 2.067 . S
O94 C92 1.270 . S
C95 O88 1.262 . S
C95 O96 1.232 . S
O96 C95 1.232 . S
C97 O89 1.260 . S
C97 O90 1.257 . S
Zn98 O101 2.031 . S
Zn98 O103 2.049 . S
Zn98 O108 2.067 . S
Zn99 O100 1.962 . S
Zn99 O102 1.986 . S
Zn99 O104 1.996 . S
Zn99 O107 1.943 . S
O100 Zn99 1.962 . S
O100 C105 1.254 . S
O101 Zn98 2.031 . S
O101 C105 1.269 . S
O102 Zn99 1.986 . S
O102 C109 1.262 . S
O103 Zn98 2.049 . S
O103 C111 1.260 . S
O104 Zn99 1.996 . S
O104 C111 1.257 . S
C105 O100 1.254 . S
C105 O101 1.269 . S
C106 O107 1.249 . S
C106 O108 1.270 . S
O107 Zn99 1.943 . S
O107 C106 1.249 . S
O108 Zn98 2.067 . S
O108 C106 1.270 . S
C109 O102 1.262 . S
C109 O110 1.232 . S
O110 C109 1.232 . S
C111 O103 1.260 . S
C111 O104 1.257 . S
Zn112 O115 2.031 . S
Zn112 O117 2.049 . S
Zn112 O122 2.067 . S
Zn113 O114 1.962 . S
Zn113 O116 1.986 . S
Zn113 O118 1.996 . S
Zn113 O121 1.943 . S
O114 Zn113 1.962 . S
O114 C119 1.254 . S
O115 Zn112 2.031 . S
O115 C119 1.269 . S
O116 Zn113 1.986 . S
O116 C123 1.262 . S
O117 Zn112 2.049 . S
O117 C125 1.260 . S
O118 Zn113 1.996 . S
O118 C125 1.257 . S
C119 O114 1.254 . S
C119 O115 1.269 . S
C120 O121 1.249 . S
C120 O122 1.270 . S
O121 Zn113 1.943 . S
O121 C120 1.249 . S
O122 Zn112 2.067 . S
O122 C120 1.270 . S
C123 O116 1.262 . S
C123 O124 1.232 . S
O124 C123 1.232 . S
C125 O117 1.260 . S
C125 O118 1.257 . S
Zn126 O129 2.031 . S
Zn126 O131 2.049 . S
Zn126 O136 2.067 . S
Zn127 O128 1.962 . S
Zn127 O130 1.986 . S
Zn127 O132 1.996 . S
Zn127 O135 1.943 . S
O128 Zn127 1.962 . S
O128 C133 1.254 . S
O129 Zn126 2.031 . S
O129 C133 1.269 . S
O130 Zn127 1.986 . S
O130 C137 1.262 . S
O131 Zn126 2.049 . S
O131 C139 1.260 . S
O132 Zn127 1.996 . S
O132 C139 1.257 . S
C133 O128 1.254 . S
C133 O129 1.269 . S
C134 O135 1.249 . S
C134 O136 1.270 . S
O135 Zn127 1.943 . S
O135 C134 1.249 . S
O136 Zn126 2.067 . S
O136 C134 1.270 . S
C137 O130 1.262 . S
C137 O138 1.232 . S
O138 C137 1.232 . S
C139 O131 1.260 . S
C139 O132 1.257 . S
Zn140 O143 2.031 . S
Zn140 O145 2.049 . S
Zn140 O150 2.067 . S
Zn141 O142 1.962 . S
Zn141 O144 1.986 . S
Zn141 O146 1.996 . S
Zn141 O149 1.943 . S
O142 Zn141 1.962 . S
O142 C147 1.254 . S
O143 Zn140 2.031 . S
O143 C147 1.269 . S
O144 Zn141 1.986 . S
O144 C151 1.262 . S
O145 Zn140 2.049 . S
O145 C153 1.260 . S
O146 Zn141 1.996 . S
O146 C153 1.257 . S
C147 O142 1.254 . S
C147 O143 1.269 . S
C148 O149 1.249 . S
C148 O150 1.270 . S
O149 Zn141 1.943 . S
O149 C148 1.249 . S
O150 Zn140 2.067 . S
O150 C148 1.270 . S
C151 O144 1.262 . S
C151 O152 1.232 . S
O152 C151 1.232 . S
C153 O145 1.260 . S
C153 O146 1.257 . S
Zn154 O157 2.031 . S
Zn154 O159 2.049 . S
Zn154 O164 2.067 . S
Zn155 O156 1.962 . S
Zn155 O158 1.986 . S
Zn155 O160 1.996 . S
Zn155 O163 1.943 . S
O156 Zn155 1.962 . S
O156 C161 1.254 . S
O157 Zn154 2.031 . S
O157 C161 1.269 . S
O158 Zn155 1.986 . S
O158 C165 1.262 . S
O159 Zn154 2.049 . S
O159 C167 1.260 . S
O160 Zn155 1.996 . S
O160 C167 1.257 . S
C161 O156 1.254 . S
C161 O157 1.269 . S
C162 O163 1.249 . S
C162 O164 1.270 . S
O163 Zn155 1.943 . S
O163 C162 1.249 . S
O164 Zn154 2.067 . S
O164 C162 1.270 . S
C165 O158 1.262 . S
C165 O166 1.232 . S
O166 C165 1.232 . S
C167 O159 1.260 . S
C167 O160 1.257 . S
H168 C176 0.929 . S
H169 C178 0.930 . S
H170 C180 0.930 . S
H171 C183 0.929 . S
H172 C186 0.930 . S
H173 C188 0.960 . S
H174 C188 0.960 . S
H175 C188 0.960 . S
C176 H168 0.929 . S
C176 C177 1.377 . S
C176 C178 1.384 . S
C177 C176 1.377 . S
C177 C183 1.390 . S
C178 H169 0.930 . S
C178 C176 1.384 . S
C178 C179 1.372 . S
C179 C178 1.372 . S
C179 C180 1.400 . S
C179 C184 1.490 . S
C180 H170 0.930 . S
C180 C179 1.400 . S
C180 C183 1.386 . S
H181 C197 0.930 . S
H182 C198 0.931 . S
C183 H171 0.929 . S
C183 C177 1.390 . S
C183 C180 1.386 . S
C184 C179 1.490 . S
C184 C186 1.395 . S
C184 C187 1.403 . S
H185 C191 0.930 . S
C186 H172 0.930 . S
C186 C184 1.395 . S
C186 C189 1.403 . S
C187 C184 1.403 . S
C187 C188 1.524 . S
C187 C191 1.400 . S
C188 H173 0.960 . S
C188 H174 0.960 . S
C188 H175 0.960 . S
C188 C187 1.524 . S
C189 C186 1.403 . S
C189 C190 1.392 . S
C189 C193 1.495 . S
C190 C189 1.392 . S
C190 C191 1.385 . S
C190 C192 1.478 . S
C191 H185 0.930 . S
C191 C187 1.400 . S
C191 C190 1.385 . S
C192 C190 1.478 . S
C192 C194 1.381 . S
C192 C198 1.383 . S
C193 C189 1.495 . S
C193 H199 0.959 . S
C193 H200 0.961 . S
C193 H201 0.960 . S
C194 C192 1.381 . S
C194 C195 1.394 . S
C194 H202 0.930 . S
C195 C194 1.394 . S
C195 C196 1.383 . S
C195 H203 0.929 . S
C196 C195 1.383 . S
C196 C197 1.377 . S
C197 H181 0.930 . S
C197 C196 1.377 . S
C197 C198 1.379 . S
C198 H182 0.931 . S
C198 C192 1.383 . S
C198 C197 1.379 . S
H199 C193 0.959 . S
H200 C193 0.961 . S
H201 C193 0.960 . S
H202 C194 0.930 . S
H203 C195 0.929 . S
H204 C212 0.929 . S
H205 C214 0.930 . S
H206 C216 0.930 . S
H207 C219 0.929 . S
H208 C222 0.930 . S
H209 C224 0.960 . S
H210 C224 0.960 . S
H211 C224 0.960 . S
C212 H204 0.929 . S
C212 C213 1.377 . S
C212 C214 1.384 . S
C213 C212 1.377 . S
C213 C219 1.390 . S
C214 H205 0.930 . S
C214 C212 1.384 . S
C214 C215 1.372 . S
C215 C214 1.372 . S
C215 C216 1.400 . S
C215 C220 1.490 . S
C216 H206 0.930 . S
C216 C215 1.400 . S
C216 C219 1.386 . S
H217 C233 0.930 . S
H218 C234 0.931 . S
C219 H207 0.929 . S
C219 C213 1.390 . S
C219 C216 1.386 . S
C220 C215 1.490 . S
C220 C222 1.395 . S
C220 C223 1.403 . S
H221 C227 0.930 . S
C222 H208 0.930 . S
C222 C220 1.395 . S
C222 C225 1.403 . S
C223 C220 1.403 . S
C223 C224 1.524 . S
C223 C227 1.400 . S
C224 H209 0.960 . S
C224 H210 0.960 . S
C224 H211 0.960 . S
C224 C223 1.524 . S
C225 C222 1.403 . S
C225 C226 1.392 . S
C225 C229 1.495 . S
C226 C225 1.392 . S
C226 C227 1.385 . S
C226 C228 1.478 . S
C227 H221 0.930 . S
C227 C223 1.400 . S
C227 C226 1.385 . S
C228 C226 1.478 . S
C228 C230 1.381 . S
C228 C234 1.383 . S
C229 C225 1.495 . S
C229 H235 0.959 . S
C229 H236 0.961 . S
C229 H237 0.960 . S
C230 C228 1.381 . S
C230 C231 1.394 . S
C230 H238 0.930 . S
C231 C230 1.394 . S
C231 C232 1.383 . S
C231 H239 0.929 . S
C232 C231 1.383 . S
C232 C233 1.377 . S
C233 H217 0.930 . S
C233 C232 1.377 . S
C233 C234 1.379 . S
C234 H218 0.931 . S
C234 C228 1.383 . S
C234 C233 1.379 . S
H235 C229 0.959 . S
H236 C229 0.961 . S
H237 C229 0.960 . S
H238 C230 0.930 . S
H239 C231 0.929 . S
H240 C248 0.929 . S
H241 C250 0.930 . S
H242 C252 0.930 . S
H243 C255 0.929 . S
H244 C258 0.930 . S
H245 C260 0.960 . S
H246 C260 0.960 . S
H247 C260 0.960 . S
C248 H240 0.929 . S
C248 C249 1.377 . S
C248 C250 1.384 . S
C249 C248 1.377 . S
C249 C255 1.390 . S
C250 H241 0.930 . S
C250 C248 1.384 . S
C250 C251 1.372 . S
C251 C250 1.372 . S
C251 C252 1.400 . S
C251 C256 1.490 . S
C252 H242 0.930 . S
C252 C251 1.400 . S
C252 C255 1.386 . S
H253 C269 0.930 . S
H254 C270 0.931 . S
C255 H243 0.929 . S
C255 C249 1.390 . S
C255 C252 1.386 . S
C256 C251 1.490 . S
C256 C258 1.395 . S
C256 C259 1.403 . S
H257 C263 0.930 . S
C258 H244 0.930 . S
C258 C256 1.395 . S
C258 C261 1.403 . S
C259 C256 1.403 . S
C259 C260 1.524 . S
C259 C263 1.400 . S
C260 H245 0.960 . S
C260 H246 0.960 . S
C260 H247 0.960 . S
C260 C259 1.524 . S
C261 C258 1.403 . S
C261 C262 1.392 . S
C261 C265 1.495 . S
C262 C261 1.392 . S
C262 C263 1.385 . S
C262 C264 1.478 . S
C263 H257 0.930 . S
C263 C259 1.400 . S
C263 C262 1.385 . S
C264 C262 1.478 . S
C264 C266 1.381 . S
C264 C270 1.383 . S
C265 C261 1.495 . S
C265 H271 0.959 . S
C265 H272 0.961 . S
C265 H273 0.960 . S
C266 C264 1.381 . S
C266 C267 1.394 . S
C266 H274 0.930 . S
C267 C266 1.394 . S
C267 C268 1.383 . S
C267 H275 0.929 . S
C268 C267 1.383 . S
C268 C269 1.377 . S
C269 H253 0.930 . S
C269 C268 1.377 . S
C269 C270 1.379 . S
C270 H254 0.931 . S
C270 C264 1.383 . S
C270 C269 1.379 . S
H271 C265 0.959 . S
H272 C265 0.961 . S
H273 C265 0.960 . S
H274 C266 0.930 . S
H275 C267 0.929 . S
H276 C284 0.929 . S
H277 C286 0.930 . S
H278 C288 0.930 . S
H279 C291 0.929 . S
H280 C294 0.930 . S
H281 C296 0.960 . S
H282 C296 0.960 . S
H283 C296 0.960 . S
C284 H276 0.929 . S
C284 C285 1.377 . S
C284 C286 1.384 . S
C285 C284 1.377 . S
C285 C291 1.390 . S
C286 H277 0.930 . S
C286 C284 1.384 . S
C286 C287 1.372 . S
C287 C286 1.372 . S
C287 C288 1.400 . S
C287 C292 1.490 . S
C288 H278 0.930 . S
C288 C287 1.400 . S
C288 C291 1.386 . S
H289 C305 0.930 . S
H290 C306 0.931 . S
C291 H279 0.929 . S
C291 C285 1.390 . S
C291 C288 1.386 . S
C292 C287 1.490 . S
C292 C294 1.395 . S
C292 C295 1.403 . S
H293 C299 0.930 . S
C294 H280 0.930 . S
C294 C292 1.395 . S
C294 C297 1.403 . S
C295 C292 1.403 . S
C295 C296 1.524 . S
C295 C299 1.400 . S
C296 H281 0.960 . S
C296 H282 0.960 . S
C296 H283 0.960 . S
C296 C295 1.524 . S
C297 C294 1.403 . S
C297 C298 1.392 . S
C297 C301 1.495 . S
C298 C297 1.392 . S
C298 C299 1.385 . S
C298 C300 1.478 . S
C299 H293 0.930 . S
C299 C295 1.400 . S
C299 C298 1.385 . S
C300 C298 1.478 . S
C300 C302 1.381 . S
C300 C306 1.383 . S
C301 C297 1.495 . S
C301 H307 0.959 . S
C301 H308 0.961 . S
C301 H309 0.960 . S
C302 C300 1.381 . S
C302 C303 1.394 . S
C302 H310 0.930 . S
C303 C302 1.394 . S
C303 C304 1.383 . S
C303 H311 0.929 . S
C304 C303 1.383 . S
C304 C305 1.377 . S
C305 H289 0.930 . S
C305 C304 1.377 . S
C305 C306 1.379 . S
C306 H290 0.931 . S
C306 C300 1.383 . S
C306 C305 1.379 . S
H307 C301 0.959 . S
H308 C301 0.961 . S
H309 C301 0.960 . S
H310 C302 0.930 . S
H311 C303 0.929 . S
H312 C320 0.929 . S
H313 C322 0.930 . S
H314 C324 0.930 . S
H315 C327 0.929 . S
H316 C330 0.930 . S
H317 C332 0.960 . S
H318 C332 0.960 . S
H319 C332 0.960 . S
C320 H312 0.929 . S
C320 C321 1.377 . S
C320 C322 1.384 . S
C321 C320 1.377 . S
C321 C327 1.390 . S
C322 H313 0.930 . S
C322 C320 1.384 . S
C322 C323 1.372 . S
C323 C322 1.372 . S
C323 C324 1.400 . S
C323 C328 1.490 . S
C324 H314 0.930 . S
C324 C323 1.400 . S
C324 C327 1.386 . S
H325 C341 0.930 . S
H326 C342 0.931 . S
C327 H315 0.929 . S
C327 C321 1.390 . S
C327 C324 1.386 . S
C328 C323 1.490 . S
C328 C330 1.395 . S
C328 C331 1.403 . S
H329 C335 0.930 . S
C330 H316 0.930 . S
C330 C328 1.395 . S
C330 C333 1.403 . S
C331 C328 1.403 . S
C331 C332 1.524 . S
C331 C335 1.400 . S
C332 H317 0.960 . S
C332 H318 0.960 . S
C332 H319 0.960 . S
C332 C331 1.524 . S
C333 C330 1.403 . S
C333 C334 1.392 . S
C333 C337 1.495 . S
C334 C333 1.392 . S
C334 C335 1.385 . S
C334 C336 1.478 . S
C335 H329 0.930 . S
C335 C331 1.400 . S
C335 C334 1.385 . S
C336 C334 1.478 . S
C336 C338 1.381 . S
C336 C342 1.383 . S
C337 C333 1.495 . S
C337 H343 0.959 . S
C337 H344 0.961 . S
C337 H345 0.960 . S
C338 C336 1.381 . S
C338 C339 1.394 . S
C338 H346 0.930 . S
C339 C338 1.394 . S
C339 C340 1.383 . S
C339 H347 0.929 . S
C340 C339 1.383 . S
C340 C341 1.377 . S
C341 H325 0.930 . S
C341 C340 1.377 . S
C341 C342 1.379 . S
C342 H326 0.931 . S
C342 C336 1.383 . S
C342 C341 1.379 . S
H343 C337 0.959 . S
H344 C337 0.961 . S
H345 C337 0.960 . S
H346 C338 0.930 . S
H347 C339 0.929 . S
H348 C356 0.929 . S
H349 C358 0.930 . S
H350 C360 0.930 . S
H351 C363 0.929 . S
H352 C366 0.930 . S
H353 C368 0.960 . S
H354 C368 0.960 . S
H355 C368 0.960 . S
C356 H348 0.929 . S
C356 C357 1.377 . S
C356 C358 1.384 . S
C357 C356 1.377 . S
C357 C363 1.390 . S
C358 H349 0.930 . S
C358 C356 1.384 . S
C358 C359 1.372 . S
C359 C358 1.372 . S
C359 C360 1.400 . S
C359 C364 1.490 . S
C360 H350 0.930 . S
C360 C359 1.400 . S
C360 C363 1.386 . S
H361 C377 0.930 . S
H362 C378 0.931 . S
C363 H351 0.929 . S
C363 C357 1.390 . S
C363 C360 1.386 . S
C364 C359 1.490 . S
C364 C366 1.395 . S
C364 C367 1.403 . S
H365 C371 0.930 . S
C366 H352 0.930 . S
C366 C364 1.395 . S
C366 C369 1.403 . S
C367 C364 1.403 . S
C367 C368 1.524 . S
C367 C371 1.400 . S
C368 H353 0.960 . S
C368 H354 0.960 . S
C368 H355 0.960 . S
C368 C367 1.524 . S
C369 C366 1.403 . S
C369 C370 1.392 . S
C369 C373 1.495 . S
C370 C369 1.392 . S
C370 C371 1.385 . S
C370 C372 1.478 . S
C371 H365 0.930 . S
C371 C367 1.400 . S
C371 C370 1.385 . S
C372 C370 1.478 . S
C372 C374 1.381 . S
C372 C378 1.383 . S
C373 C369 1.495 . S
C373 H379 0.959 . S
C373 H380 0.961 . S
C373 H381 0.960 . S
C374 C372 1.381 . S
C374 C375 1.394 . S
C374 H382 0.930 . S
C375 C374 1.394 . S
C375 C376 1.383 . S
C375 H383 0.929 . S
C376 C375 1.383 . S
C376 C377 1.377 . S
C377 H361 0.930 . S
C377 C376 1.377 . S
C377 C378 1.379 . S
C378 H362 0.931 . S
C378 C372 1.383 . S
C378 C377 1.379 . S
H379 C373 0.959 . S
H380 C373 0.961 . S
H381 C373 0.960 . S
H382 C374 0.930 . S
H383 C375 0.929 . S
H384 C392 0.929 . S
H385 C394 0.930 . S
H386 C396 0.930 . S
H387 C399 0.929 . S
H388 C402 0.930 . S
H389 C404 0.960 . S
H390 C404 0.960 . S
H391 C404 0.960 . S
C392 H384 0.929 . S
C392 C393 1.377 . S
C392 C394 1.384 . S
C393 C392 1.377 . S
C393 C399 1.390 . S
C394 H385 0.930 . S
C394 C392 1.384 . S
C394 C395 1.372 . S
C395 C394 1.372 . S
C395 C396 1.400 . S
C395 C400 1.490 . S
C396 H386 0.930 . S
C396 C395 1.400 . S
C396 C399 1.386 . S
H397 C413 0.930 . S
H398 C414 0.931 . S
C399 H387 0.929 . S
C399 C393 1.390 . S
C399 C396 1.386 . S
C400 C395 1.490 . S
C400 C402 1.395 . S
C400 C403 1.403 . S
H401 C407 0.930 . S
C402 H388 0.930 . S
C402 C400 1.395 . S
C402 C405 1.403 . S
C403 C400 1.403 . S
C403 C404 1.524 . S
C403 C407 1.400 . S
C404 H389 0.960 . S
C404 H390 0.960 . S
C404 H391 0.960 . S
C404 C403 1.524 . S
C405 C402 1.403 . S
C405 C406 1.392 . S
C405 C409 1.495 . S
C406 C405 1.392 . S
C406 C407 1.385 . S
C406 C408 1.478 . S
C407 H401 0.930 . S
C407 C403 1.400 . S
C407 C406 1.385 . S
C408 C406 1.478 . S
C408 C410 1.381 1_554 S
C408 C414 1.383 . S
C409 C405 1.495 . S
C409 H415 0.959 . S
C409 H416 0.961 . S
C409 H417 0.960 . S
C410 C408 1.381 1_556 S
C410 C411 1.394 . S
C410 H418 0.930 . S
C411 C410 1.394 . S
C411 C412 1.383 . S
C411 H419 0.929 . S
C412 C411 1.383 . S
C412 C413 1.377 . S
C413 H397 0.930 . S
C413 C412 1.377 . S
C413 C414 1.379 1_556 S
C414 H398 0.931 . S
C414 C408 1.383 . S
C414 C413 1.379 1_554 S
H415 C409 0.959 . S
H416 C409 0.961 . S
H417 C409 0.960 . S
H418 C410 0.930 . S
H419 C411 0.929 . S
H420 C428 0.929 . S
H421 C430 0.930 . S
H422 C432 0.930 . S
H423 C435 0.929 . S
H424 C438 0.930 . S
H425 C440 0.960 . S
H426 C440 0.960 . S
H427 C440 0.960 . S
C428 H420 0.929 . S
C428 C429 1.377 . S
C428 C430 1.384 . S
C429 C428 1.377 . S
C429 C435 1.390 . S
C430 H421 0.930 . S
C430 C428 1.384 . S
C430 C431 1.372 . S
C431 C430 1.372 . S
C431 C432 1.400 . S
C431 C436 1.490 . S
C432 H422 0.930 . S
C432 C431 1.400 . S
C432 C435 1.386 . S
H433 C449 0.930 . S
H434 C450 0.931 . S
C435 H423 0.929 . S
C435 C429 1.390 . S
C435 C432 1.386 . S
C436 C431 1.490 . S
C436 C438 1.395 . S
C436 C439 1.403 . S
H437 C443 0.930 . S
C438 H424 0.930 . S
C438 C436 1.395 . S
C438 C441 1.403 . S
C439 C436 1.403 . S
C439 C440 1.524 . S
C439 C443 1.400 . S
C440 H425 0.960 . S
C440 H426 0.960 . S
C440 H427 0.960 . S
C440 C439 1.524 . S
C441 C438 1.403 . S
C441 C442 1.392 . S
C441 C445 1.495 . S
C442 C441 1.392 . S
C442 C443 1.385 . S
C442 C444 1.478 . S
C443 H437 0.930 . S
C443 C439 1.400 . S
C443 C442 1.385 . S
C444 C442 1.478 . S
C444 C446 1.381 . S
C444 C450 1.383 . S
C445 C441 1.495 . S
C445 H451 0.959 . S
C445 H452 0.961 . S
C445 H453 0.960 . S
C446 C444 1.381 . S
C446 C447 1.394 . S
C446 H454 0.930 . S
C447 C446 1.394 . S
C447 C448 1.359 1_655 S
C447 H455 0.929 . S
C448 C447 1.359 1_455 S
C448 C449 1.386 . S
C449 H433 0.930 . S
C449 C448 1.386 . S
C449 C450 1.379 1_455 S
C450 H434 0.931 . S
C450 C444 1.383 . S
C450 C449 1.379 1_655 S
H451 C445 0.959 . S
H452 C445 0.961 . S
H453 C445 0.960 . S
H454 C446 0.930 . S
H455 C447 0.929 . S
H456 C464 0.929 . S
H457 C466 0.930 . S
H458 C468 0.930 . S
H459 C471 0.929 . S
H460 C474 0.930 . S
H461 C476 0.960 . S
H462 C476 0.960 . S
H463 C476 0.960 . S
C464 H456 0.929 . S
C464 C465 1.377 . S
C464 C466 1.384 . S
C465 C464 1.377 . S
C465 C471 1.390 . S
C466 H457 0.930 . S
C466 C464 1.384 . S
C466 C467 1.372 . S
C467 C466 1.372 . S
C467 C468 1.400 . S
C467 C472 1.490 . S
C468 H458 0.930 . S
C468 C467 1.400 . S
C468 C471 1.386 . S
H469 C485 0.943 . S
H470 C486 0.931 . S
C471 H459 0.929 . S
C471 C465 1.390 . S
C471 C468 1.386 . S
C472 C467 1.490 . S
C472 C474 1.395 . S
C472 C475 1.403 . S
H473 C479 0.930 . S
C474 H460 0.930 . S
C474 C472 1.395 . S
C474 C477 1.403 . S
C475 C472 1.403 . S
C475 C476 1.524 . S
C475 C479 1.400 . S
C476 H461 0.960 . S
C476 H462 0.960 . S
C476 H463 0.960 . S
C476 C475 1.524 . S
C477 C474 1.403 . S
C477 C478 1.392 . S
C477 C481 1.495 . S
C478 C477 1.392 . S
C478 C479 1.385 . S
C478 C480 1.478 . S
C479 H473 0.930 . S
C479 C475 1.400 . S
C479 C478 1.385 . S
C480 C478 1.478 . S
C480 C482 1.381 . S
C480 C486 1.383 . S
C481 C477 1.495 . S
C481 H487 0.959 . S
C481 H488 0.961 . S
C481 H489 0.960 . S
C482 C480 1.381 . S
C482 C483 1.394 . S
C482 H490 0.930 . S
C483 C482 1.394 . S
C483 C484 1.403 . S
C483 H491 0.929 . S
C484 C483 1.403 . S
C484 C485 1.377 . S
C485 H469 0.943 . S
C485 C484 1.377 . S
C485 C486 1.379 . S
C486 H470 0.931 . S
C486 C480 1.383 . S
C486 C485 1.379 . S
H487 C481 0.959 . S
H488 C481 0.961 . S
H489 C481 0.960 . S
H490 C482 0.930 . S
H491 C483 0.929 . S
H492 C500 0.929 . S
H493 C502 0.930 . S
H494 C504 0.930 . S
H495 C507 0.929 . S
H496 C510 0.930 . S
H497 C512 0.960 . S
H498 C512 0.960 . S
H499 C512 0.960 . S
C500 H492 0.929 . S
C500 C501 1.377 . S
C500 C502 1.384 . S
C501 C500 1.377 . S
C501 C507 1.390 . S
C502 H493 0.930 . S
C502 C500 1.384 . S
C502 C503 1.372 . S
C503 C502 1.372 . S
C503 C504 1.400 . S
C503 C508 1.490 . S
C504 H494 0.930 . S
C504 C503 1.400 . S
C504 C507 1.386 . S
H505 C521 0.930 . S
H506 C522 0.931 . S
C507 H495 0.929 . S
C507 C501 1.390 . S
C507 C504 1.386 . S
C508 C503 1.490 . S
C508 C510 1.395 . S
C508 C511 1.403 . S
H509 C515 0.930 . S
C510 H496 0.930 . S
C510 C508 1.395 . S
C510 C513 1.403 . S
C511 C508 1.403 . S
C511 C512 1.524 . S
C511 C515 1.400 . S
C512 H497 0.960 . S
C512 H498 0.960 . S
C512 H499 0.960 . S
C512 C511 1.524 . S
C513 C510 1.403 . S
C513 C514 1.392 . S
C513 C517 1.495 . S
C514 C513 1.392 . S
C514 C515 1.385 . S
C514 C516 1.478 . S
C515 H509 0.930 . S
C515 C511 1.400 . S
C515 C514 1.385 . S
C516 C514 1.478 . S
C516 C518 1.381 . S
C516 C522 1.383 . S
C517 C513 1.495 . S
C517 H523 0.959 . S
C517 H524 0.961 . S
C517 H525 0.960 . S
C518 C516 1.381 . S
C518 C519 1.394 . S
C518 H526 0.930 . S
C519 C518 1.394 . S
C519 C520 1.383 . S
C519 H527 0.929 . S
C520 C519 1.383 . S
C520 C521 1.377 . S
C521 H505 0.930 . S
C521 C520 1.377 . S
C521 C522 1.379 . S
C522 H506 0.931 . S
C522 C516 1.383 . S
C522 C521 1.379 . S
H523 C517 0.959 . S
H524 C517 0.961 . S
H525 C517 0.960 . S
H526 C518 0.930 . S
H527 C519 0.929 . S
H528 C536 0.924 1_655 S
H529 C538 0.930 . S
H530 C540 0.930 . S
H531 C543 0.929 . S
H532 C546 0.930 . S
H533 C548 0.960 . S
H534 C548 0.960 . S
H535 C548 0.960 . S
C536 H528 0.924 1_455 S
C536 C537 1.393 1_455 S
C536 C538 1.386 . S
C537 C536 1.393 1_655 S
C537 C543 1.360 1_655 S
C538 H529 0.930 . S
C538 C536 1.386 . S
C538 C539 1.372 . S
C539 C538 1.372 . S
C539 C540 1.400 . S
C539 C544 1.490 . S
C540 H530 0.930 . S
C540 C539 1.400 . S
C540 C543 1.386 . S
H541 C557 0.930 . S
H542 C558 0.931 . S
C543 H531 0.929 . S
C543 C537 1.360 1_455 S
C543 C540 1.386 . S
C544 C539 1.490 . S
C544 C546 1.395 . S
C544 C547 1.403 . S
H545 C551 0.930 . S
C546 H532 0.930 . S
C546 C544 1.395 . S
C546 C549 1.403 . S
C547 C544 1.403 . S
C547 C548 1.524 . S
C547 C551 1.400 . S
C548 H533 0.960 . S
C548 H534 0.960 . S
C548 H535 0.960 . S
C548 C547 1.524 . S
C549 C546 1.403 . S
C549 C550 1.392 . S
C549 C553 1.495 . S
C550 C549 1.392 . S
C550 C551 1.385 . S
C550 C552 1.478 . S
C551 H545 0.930 . S
C551 C547 1.400 . S
C551 C550 1.385 . S
C552 C550 1.478 . S
C552 C554 1.381 . S
C552 C558 1.383 . S
C553 C549 1.495 . S
C553 H559 0.959 . S
C553 H560 0.961 . S
C553 H561 0.960 . S
C554 C552 1.381 . S
C554 C555 1.394 . S
C554 H562 0.930 . S
C555 C554 1.394 . S
C555 C556 1.383 . S
C555 H563 0.929 . S
C556 C555 1.383 . S
C556 C557 1.377 . S
C557 H541 0.930 . S
C557 C556 1.377 . S
C557 C558 1.379 . S
C558 H542 0.931 . S
C558 C552 1.383 . S
C558 C557 1.379 . S
H559 C553 0.959 . S
H560 C553 0.961 . S
H561 C553 0.960 . S
H562 C554 0.930 . S
H563 C555 0.929 . S
H564 C572 0.933 . S
H565 C574 0.930 . S
H566 C576 0.930 . S
H567 C579 0.929 . S
H568 C582 0.930 . S
H569 C584 0.960 . S
H570 C584 0.960 . S
H571 C584 0.960 . S
C572 H564 0.933 . S
C572 C573 1.360 1_545 S
C572 C574 1.384 . S
C573 C572 1.360 1_565 S
C573 C579 1.388 1_565 S
C574 H565 0.930 . S
C574 C572 1.384 . S
C574 C575 1.372 . S
C575 C574 1.372 . S
C575 C576 1.400 . S
C575 C580 1.490 . S
C576 H566 0.930 . S
C576 C575 1.400 . S
C576 C579 1.386 . S
H577 C593 0.930 . S
H578 C594 0.931 . S
C579 H567 0.929 . S
C579 C573 1.388 1_545 S
C579 C576 1.386 . S
C580 C575 1.490 . S
C580 C582 1.395 . S
C580 C583 1.403 . S
H581 C587 0.930 . S
C582 H568 0.930 . S
C582 C580 1.395 . S
C582 C585 1.403 . S
C583 C580 1.403 . S
C583 C584 1.524 . S
C583 C587 1.400 . S
C584 H569 0.960 . S
C584 H570 0.960 . S
C584 H571 0.960 . S
C584 C583 1.524 . S
C585 C582 1.403 . S
C585 C586 1.392 . S
C585 C589 1.495 . S
C586 C585 1.392 . S
C586 C587 1.385 . S
C586 C588 1.478 . S
C587 H581 0.930 . S
C587 C583 1.400 . S
C587 C586 1.385 . S
C588 C586 1.478 . S
C588 C590 1.381 . S
C588 C594 1.383 . S
C589 C585 1.495 . S
C589 H595 0.959 . S
C589 H596 0.961 . S
C589 H597 0.960 . S
C590 C588 1.381 . S
C590 C591 1.394 . S
C590 H598 0.930 . S
C591 C590 1.394 . S
C591 C592 1.383 . S
C591 H599 0.929 . S
C592 C591 1.383 . S
C592 C593 1.377 . S
C593 H577 0.930 . S
C593 C592 1.377 . S
C593 C594 1.379 . S
C594 H578 0.931 . S
C594 C588 1.383 . S
C594 C593 1.379 . S
H595 C589 0.959 . S
H596 C589 0.961 . S
H597 C589 0.960 . S
H598 C590 0.930 . S
H599 C591 0.929 . S
H600 C608 0.929 . S
H601 C610 0.930 . S
H602 C612 0.930 . S
H603 C615 0.929 . S
H604 C618 0.930 . S
H605 C620 0.960 . S
H606 C620 0.960 . S
H607 C620 0.960 . S
C608 H600 0.929 . S
C608 C609 1.377 . S
C608 C610 1.384 . S
C609 C608 1.377 . S
C609 C615 1.390 . S
C610 H601 0.930 . S
C610 C608 1.384 . S
C610 C611 1.372 . S
C611 C610 1.372 . S
C611 C612 1.400 . S
C611 C616 1.490 . S
C612 H602 0.930 . S
C612 C611 1.400 . S
C612 C615 1.386 . S
H613 C629 0.930 . S
H614 C630 0.931 . S
C615 H603 0.929 . S
C615 C609 1.390 . S
C615 C612 1.386 . S
C616 C611 1.490 . S
C616 C618 1.395 . S
C616 C619 1.403 . S
H617 C623 0.930 . S
C618 H604 0.930 . S
C618 C616 1.395 . S
C618 C621 1.403 . S
C619 C616 1.403 . S
C619 C620 1.524 . S
C619 C623 1.400 . S
C620 H605 0.960 . S
C620 H606 0.960 . S
C620 H607 0.960 . S
C620 C619 1.524 . S
C621 C618 1.403 . S
C621 C622 1.392 . S
C621 C625 1.495 . S
C622 C621 1.392 . S
C622 C623 1.385 . S
C622 C624 1.478 . S
C623 H617 0.930 . S
C623 C619 1.400 . S
C623 C622 1.385 . S
C624 C622 1.478 . S
C624 C626 1.381 . S
C624 C630 1.383 . S
C625 C621 1.495 . S
C625 H631 0.959 . S
C625 H632 0.961 . S
C625 H633 0.960 . S
C626 C624 1.381 . S
C626 C627 1.394 . S
C626 H634 0.930 . S
C627 C626 1.394 . S
C627 C628 1.383 . S
C627 H635 0.929 . S
C628 C627 1.383 . S
C628 C629 1.377 . S
C629 H613 0.930 . S
C629 C628 1.377 . S
C629 C630 1.379 . S
C630 H614 0.931 . S
C630 C624 1.383 . S
C630 C629 1.379 . S
H631 C625 0.959 . S
H632 C625 0.961 . S
H633 C625 0.960 . S
H634 C626 0.930 . S
H635 C627 0.929 . S
H636 C644 0.929 . S
H637 C646 0.930 . S
H638 C648 0.930 . S
H639 C651 0.929 . S
H640 C654 0.930 . S
H641 C656 0.960 . S
H642 C656 0.960 . S
H643 C656 0.960 . S
C644 H636 0.929 . S
C644 C645 1.377 . S
C644 C646 1.384 . S
C645 C644 1.377 . S
C645 C651 1.390 . S
C646 H637 0.930 . S
C646 C644 1.384 . S
C646 C647 1.372 . S
C647 C646 1.372 . S
C647 C648 1.400 . S
C647 C652 1.490 . S
C648 H638 0.930 . S
C648 C647 1.400 . S
C648 C651 1.386 . S
H649 C665 0.930 . S
H650 C666 0.931 . S
C651 H639 0.929 . S
C651 C645 1.390 . S
C651 C648 1.386 . S
C652 C647 1.490 . S
C652 C654 1.395 . S
C652 C655 1.403 . S
H653 C659 0.930 . S
C654 H640 0.930 . S
C654 C652 1.395 . S
C654 C657 1.403 . S
C655 C652 1.403 . S
C655 C656 1.524 . S
C655 C659 1.400 . S
C656 H641 0.960 . S
C656 H642 0.960 . S
C656 H643 0.960 . S
C656 C655 1.524 . S
C657 C654 1.403 . S
C657 C658 1.392 . S
C657 C661 1.495 . S
C658 C657 1.392 . S
C658 C659 1.385 . S
C658 C660 1.478 . S
C659 H653 0.930 . S
C659 C655 1.400 . S
C659 C658 1.385 . S
C660 C658 1.478 . S
C660 C662 1.381 1_556 S
C660 C666 1.383 . S
C661 C657 1.495 . S
C661 H667 0.959 . S
C661 H668 0.961 . S
C661 H669 0.960 . S
C662 C660 1.381 1_554 S
C662 C663 1.394 . S
C662 H670 0.930 . S
C663 C662 1.394 . S
C663 C664 1.383 1_655 S
C663 H671 0.929 . S
C664 C663 1.383 1_455 S
C664 C665 1.377 . S
C665 H649 0.930 . S
C665 C664 1.377 . S
C665 C666 1.379 1_454 S
C666 H650 0.931 . S
C666 C660 1.383 . S
C666 C665 1.379 1_656 S
H667 C661 0.959 . S
H668 C661 0.961 . S
H669 C661 0.960 . S
H670 C662 0.930 . S
H671 C663 0.929 . S
H672 C680 0.929 . S
H673 C682 0.930 . S
H674 C684 0.930 . S
H675 C687 0.929 . S
H676 C690 0.930 . S
H677 C692 0.960 . S
H678 C692 0.960 . S
H679 C692 0.960 . S
C680 H672 0.929 . S
C680 C681 1.393 . S
C680 C682 1.384 1_545 S
C681 C680 1.393 . S
C681 C687 1.357 1_545 S
C682 H673 0.930 . S
C682 C680 1.384 1_565 S
C682 C683 1.372 . S
C683 C682 1.372 . S
C683 C684 1.400 . S
C683 C688 1.490 . S
C684 H674 0.930 . S
C684 C683 1.400 . S
C684 C687 1.386 . S
H685 C701 0.930 . S
H686 C702 0.931 . S
C687 H675 0.929 . S
C687 C681 1.357 1_565 S
C687 C684 1.386 . S
C688 C683 1.490 . S
C688 C690 1.395 . S
C688 C691 1.403 . S
H689 C695 0.930 . S
C690 H676 0.930 . S
C690 C688 1.395 . S
C690 C693 1.403 . S
C691 C688 1.403 . S
C691 C692 1.524 . S
C691 C695 1.400 . S
C692 H677 0.960 . S
C692 H678 0.960 . S
C692 H679 0.960 . S
C692 C691 1.524 . S
C693 C690 1.403 . S
C693 C694 1.392 . S
C693 C697 1.495 . S
C694 C693 1.392 . S
C694 C695 1.385 . S
C694 C696 1.478 . S
C695 H689 0.930 . S
C695 C691 1.400 . S
C695 C694 1.385 . S
C696 C694 1.478 . S
C696 C698 1.381 . S
C696 C702 1.383 . S
C697 C693 1.495 . S
C697 H703 0.959 . S
C697 H704 0.961 . S
C697 H705 0.960 . S
C698 C696 1.381 . S
C698 C699 1.394 . S
C698 H706 0.930 . S
C699 C698 1.394 . S
C699 C700 1.383 . S
C699 H707 0.929 . S
C700 C699 1.383 . S
C700 C701 1.377 . S
C701 H685 0.930 . S
C701 C700 1.377 . S
C701 C702 1.379 . S
C702 H686 0.931 . S
C702 C696 1.383 . S
C702 C701 1.379 . S
H703 C697 0.959 . S
H704 C697 0.961 . S
H705 C697 0.960 . S
H706 C698 0.930 . S
H707 C699 0.929 . S
H708 C716 0.929 . S
H709 C718 0.930 . S
H710 C720 0.930 . S
H711 C723 0.929 . S
H712 C726 0.930 . S
H713 C728 0.960 . S
H714 C728 0.960 . S
H715 C728 0.960 . S
C716 H708 0.929 . S
C716 C717 1.377 . S
C716 C718 1.384 . S
C717 C716 1.377 . S
C717 C723 1.390 . S
C718 H709 0.930 . S
C718 C716 1.384 . S
C718 C719 1.372 . S
C719 C718 1.372 . S
C719 C720 1.400 . S
C719 C724 1.490 . S
C720 H710 0.930 . S
C720 C719 1.400 . S
C720 C723 1.386 . S
H721 C737 0.930 . S
H722 C738 0.931 . S
C723 H711 0.929 . S
C723 C717 1.390 . S
C723 C720 1.386 . S
C724 C719 1.490 . S
C724 C726 1.395 . S
C724 C727 1.403 . S
H725 C731 0.930 . S
C726 H712 0.930 . S
C726 C724 1.395 . S
C726 C729 1.403 . S
C727 C724 1.403 . S
C727 C728 1.524 . S
C727 C731 1.400 . S
C728 H713 0.960 . S
C728 H714 0.960 . S
C728 H715 0.960 . S
C728 C727 1.524 . S
C729 C726 1.403 . S
C729 C730 1.392 . S
C729 C733 1.495 . S
C730 C729 1.392 . S
C730 C731 1.385 . S
C730 C732 1.478 . S
C731 H725 0.930 . S
C731 C727 1.400 . S
C731 C730 1.385 . S
C732 C730 1.478 . S
C732 C734 1.381 . S
C732 C738 1.383 . S
C733 C729 1.495 . S
C733 H739 0.959 . S
C733 H740 0.961 . S
C733 H741 0.960 . S
C734 C732 1.381 . S
C734 C735 1.394 . S
C734 H742 0.930 . S
C735 C734 1.394 . S
C735 C736 1.383 . S
C735 H743 0.929 . S
C736 C735 1.383 . S
C736 C737 1.377 . S
C737 H721 0.930 . S
C737 C736 1.377 . S
C737 C738 1.379 . S
C738 H722 0.931 . S
C738 C732 1.383 . S
C738 C737 1.379 . S
H739 C733 0.959 . S
H740 C733 0.961 . S
H741 C733 0.960 . S
H742 C734 0.930 . S
H743 C735 0.929 . S
H744 C752 0.929 . S
H745 C754 0.930 . S
H746 C756 0.930 . S
H747 C759 0.929 . S
H748 C762 0.930 . S
H749 C764 0.960 . S
H750 C764 0.960 . S
H751 C764 0.960 . S
C752 H744 0.929 . S
C752 C753 1.377 . S
C752 C754 1.384 . S
C753 C752 1.377 . S
C753 C759 1.390 . S
C754 H745 0.930 . S
C754 C752 1.384 . S
C754 C755 1.372 . S
C755 C754 1.372 . S
C755 C756 1.400 . S
C755 C760 1.490 . S
C756 H746 0.930 . S
C756 C755 1.400 . S
C756 C759 1.386 . S
H757 C773 0.930 . S
H758 C774 0.931 . S
C759 H747 0.929 . S
C759 C753 1.390 . S
C759 C756 1.386 . S
C760 C755 1.490 . S
C760 C762 1.395 . S
C760 C763 1.403 . S
H761 C767 0.930 . S
C762 H748 0.930 . S
C762 C760 1.395 . S
C762 C765 1.403 . S
C763 C760 1.403 . S
C763 C764 1.524 . S
C763 C767 1.400 . S
C764 H749 0.960 . S
C764 H750 0.960 . S
C764 H751 0.960 . S
C764 C763 1.524 . S
C765 C762 1.403 . S
C765 C766 1.392 . S
C765 C769 1.495 . S
C766 C765 1.392 . S
C766 C767 1.385 . S
C766 C768 1.478 . S
C767 H761 0.930 . S
C767 C763 1.400 . S
C767 C766 1.385 . S
C768 C766 1.478 . S
C768 C770 1.381 . S
C768 C774 1.383 . S
C769 C765 1.495 . S
C769 H775 0.959 . S
C769 H776 0.961 . S
C769 H777 0.960 . S
C770 C768 1.381 . S
C770 C771 1.394 . S
C770 H778 0.930 . S
C771 C770 1.394 . S
C771 C772 1.383 1_455 S
C771 H779 0.929 . S
C772 C771 1.383 1_655 S
C772 C773 1.377 . S
C773 H757 0.930 . S
C773 C772 1.377 . S
C773 C774 1.379 1_655 S
C774 H758 0.931 . S
C774 C768 1.383 . S
C774 C773 1.379 1_455 S
H775 C769 0.959 . S
H776 C769 0.961 . S
H777 C769 0.960 . S
H778 C770 0.930 . S
H779 C771 0.929 . S
H780 C788 0.929 . S
H781 C790 0.930 . S
H782 C792 0.930 . S
H783 C795 0.929 . S
H784 C798 0.930 . S
H785 C800 0.960 . S
H786 C800 0.960 . S
H787 C800 0.960 . S
C788 H780 0.929 . S
C788 C789 1.377 . S
C788 C790 1.384 . S
C789 C788 1.377 . S
C789 C795 1.390 . S
C790 H781 0.930 . S
C790 C788 1.384 . S
C790 C791 1.372 . S
C791 C790 1.372 . S
C791 C792 1.400 . S
C791 C796 1.490 . S
C792 H782 0.930 . S
C792 C791 1.400 . S
C792 C795 1.386 . S
H793 C809 0.930 . S
H794 C810 0.931 . S
C795 H783 0.929 . S
C795 C789 1.390 . S
C795 C792 1.386 . S
C796 C791 1.490 . S
C796 C798 1.395 . S
C796 C799 1.403 . S
H797 C803 0.930 . S
C798 H784 0.930 . S
C798 C796 1.395 . S
C798 C801 1.403 . S
C799 C796 1.403 . S
C799 C800 1.524 . S
C799 C803 1.400 . S
C800 H785 0.960 . S
C800 H786 0.960 . S
C800 H787 0.960 . S
C800 C799 1.524 . S
C801 C798 1.403 . S
C801 C802 1.392 . S
C801 C805 1.495 . S
C802 C801 1.392 . S
C802 C803 1.385 . S
C802 C804 1.478 . S
C803 H797 0.930 . S
C803 C799 1.400 . S
C803 C802 1.385 . S
C804 C802 1.478 . S
C804 C806 1.381 . S
C804 C810 1.383 . S
C805 C801 1.495 . S
C805 H811 0.959 . S
C805 H812 0.961 . S
C805 H813 0.960 . S
C806 C804 1.381 . S
C806 C807 1.394 1_545 S
C806 H814 0.930 . S
C807 C806 1.394 1_565 S
C807 C808 1.383 . S
C807 H815 0.929 . S
C808 C807 1.383 . S
C808 C809 1.377 1_565 S
C809 H793 0.930 . S
C809 C808 1.377 1_545 S
C809 C810 1.379 . S
C810 H794 0.931 . S
C810 C804 1.383 . S
C810 C809 1.379 . S
H811 C805 0.959 . S
H812 C805 0.961 . S
H813 C805 0.960 . S
H814 C806 0.930 . S
H815 C807 0.929 . S
H816 C824 0.929 . S
H817 C826 0.930 . S
H818 C828 0.930 . S
H819 C831 0.929 . S
H820 C834 0.930 . S
H821 C836 0.960 . S
H822 C836 0.960 . S
H823 C836 0.960 . S
C824 H816 0.929 . S
C824 C825 1.377 . S
C824 C826 1.384 . S
C825 C824 1.377 . S
C825 C831 1.390 . S
C826 H817 0.930 . S
C826 C824 1.384 . S
C826 C827 1.372 . S
C827 C826 1.372 . S
C827 C828 1.400 . S
C827 C832 1.490 . S
C828 H818 0.930 . S
C828 C827 1.400 . S
C828 C831 1.386 . S
H829 C845 0.930 . S
H830 C846 0.931 . S
C831 H819 0.929 . S
C831 C825 1.390 . S
C831 C828 1.386 . S
C832 C827 1.490 . S
C832 C834 1.395 . S
C832 C835 1.403 . S
H833 C839 0.930 . S
C834 H820 0.930 . S
C834 C832 1.395 . S
C834 C837 1.403 . S
C835 C832 1.403 . S
C835 C836 1.524 . S
C835 C839 1.400 . S
C836 H821 0.960 . S
C836 H822 0.960 . S
C836 H823 0.960 . S
C836 C835 1.524 . S
C837 C834 1.403 . S
C837 C838 1.392 . S
C837 C841 1.495 . S
C838 C837 1.392 . S
C838 C839 1.385 . S
C838 C840 1.478 . S
C839 H833 0.930 . S
C839 C835 1.400 . S
C839 C838 1.385 . S
C840 C838 1.478 . S
C840 C842 1.381 . S
C840 C846 1.383 . S
C841 C837 1.495 . S
C841 H847 0.959 . S
C841 H848 0.961 . S
C841 H849 0.960 . S
C842 C840 1.381 . S
C842 C843 1.394 . S
C842 H850 0.930 . S
C843 C842 1.394 . S
C843 C844 1.383 . S
C843 H851 0.929 . S
C844 C843 1.383 . S
C844 C845 1.377 . S
C845 H829 0.930 . S
C845 C844 1.377 . S
C845 C846 1.379 . S
C846 H830 0.931 . S
C846 C840 1.383 . S
C846 C845 1.379 . S
H847 C841 0.959 . S
H848 C841 0.961 . S
H849 C841 0.960 . S
H850 C842 0.930 . S
H851 C843 0.929 . S
H852 C860 0.929 . S
H853 C862 0.930 . S
H854 C864 0.930 . S
H855 C867 0.929 . S
H856 C870 0.930 . S
H857 C872 0.960 . S
H858 C872 0.960 . S
H859 C872 0.960 . S
C860 H852 0.929 . S
C860 C861 1.377 . S
C860 C862 1.384 . S
C861 C860 1.377 . S
C861 C867 1.390 . S
C862 H853 0.930 . S
C862 C860 1.384 . S
C862 C863 1.372 . S
C863 C862 1.372 . S
C863 C864 1.400 . S
C863 C868 1.490 . S
C864 H854 0.930 . S
C864 C863 1.400 . S
C864 C867 1.386 . S
H865 C881 0.930 . S
H866 C882 0.931 . S
C867 H855 0.929 . S
C867 C861 1.390 . S
C867 C864 1.386 . S
C868 C863 1.490 . S
C868 C870 1.395 . S
C868 C871 1.403 . S
H869 C875 0.930 . S
C870 H856 0.930 . S
C870 C868 1.395 . S
C870 C873 1.403 . S
C871 C868 1.403 . S
C871 C872 1.524 . S
C871 C875 1.400 . S
C872 H857 0.960 . S
C872 H858 0.960 . S
C872 H859 0.960 . S
C872 C871 1.524 . S
C873 C870 1.403 . S
C873 C874 1.392 . S
C873 C877 1.495 . S
C874 C873 1.392 . S
C874 C875 1.385 . S
C874 C876 1.478 . S
C875 H869 0.930 . S
C875 C871 1.400 . S
C875 C874 1.385 . S
C876 C874 1.478 . S
C876 C878 1.381 . S
C876 C882 1.383 . S
C877 C873 1.495 . S
C877 H883 0.959 . S
C877 H884 0.961 . S
C877 H885 0.960 . S
C878 C876 1.381 . S
C878 C879 1.394 . S
C878 H886 0.930 . S
C879 C878 1.394 . S
C879 C880 1.383 . S
C879 H887 0.929 . S
C880 C879 1.383 . S
C880 C881 1.377 . S
C881 H865 0.930 . S
C881 C880 1.377 . S
C881 C882 1.379 . S
C882 H866 0.931 . S
C882 C876 1.383 . S
C882 C881 1.379 . S
H883 C877 0.959 . S
H884 C877 0.961 . S
H885 C877 0.960 . S
H886 C878 0.930 . S
H887 C879 0.929 . S
H888 C896 0.929 . S
H889 C898 0.930 . S
H890 C900 0.930 . S
H891 C903 0.929 . S
H892 C906 0.930 . S
H893 C908 0.960 . S
H894 C908 0.960 . S
H895 C908 0.960 . S
C896 H888 0.929 . S
C896 C897 1.377 . S
C896 C898 1.384 . S
C897 C896 1.377 . S
C897 C903 1.390 . S
C898 H889 0.930 . S
C898 C896 1.384 . S
C898 C899 1.372 . S
C899 C898 1.372 . S
C899 C900 1.400 . S
C899 C904 1.490 . S
C900 H890 0.930 . S
C900 C899 1.400 . S
C900 C903 1.386 . S
H901 C917 0.930 . S
H902 C918 0.931 . S
C903 H891 0.929 . S
C903 C897 1.390 . S
C903 C900 1.386 . S
C904 C899 1.490 . S
C904 C906 1.395 . S
C904 C907 1.403 . S
H905 C911 0.930 . S
C906 H892 0.930 . S
C906 C904 1.395 . S
C906 C909 1.403 . S
C907 C904 1.403 . S
C907 C908 1.524 . S
C907 C911 1.400 . S
C908 H893 0.960 . S
C908 H894 0.960 . S
C908 H895 0.960 . S
C908 C907 1.524 . S
C909 C906 1.403 . S
C909 C910 1.392 . S
C909 C913 1.495 . S
C910 C909 1.392 . S
C910 C911 1.385 . S
C910 C912 1.478 . S
C911 H905 0.930 . S
C911 C907 1.400 . S
C911 C910 1.385 . S
C912 C910 1.478 . S
C912 C914 1.381 . S
C912 C918 1.383 . S
C913 C909 1.495 . S
C913 H919 0.959 . S
C913 H920 0.961 . S
C913 H921 0.960 . S
C914 C912 1.381 . S
C914 C915 1.394 . S
C914 H922 0.930 . S
C915 C914 1.394 . S
C915 C916 1.383 . S
C915 H923 0.929 . S
C916 C915 1.383 . S
C916 C917 1.377 . S
C917 H901 0.930 . S
C917 C916 1.377 . S
C917 C918 1.379 . S
C918 H902 0.931 . S
C918 C912 1.383 . S
C918 C917 1.379 . S
H919 C913 0.959 . S
H920 C913 0.961 . S
H921 C913 0.960 . S
H922 C914 0.930 . S
H923 C915 0.929 . S
H924 C932 0.929 . S
H925 C934 0.930 . S
H926 C936 0.930 . S
H927 C939 0.929 . S
H928 C942 0.930 . S
H929 C944 0.960 . S
H930 C944 0.960 . S
H931 C944 0.960 . S
C932 H924 0.929 . S
C932 C933 1.377 . S
C932 C934 1.384 . S
C933 C932 1.377 . S
C933 C939 1.390 . S
C934 H925 0.930 . S
C934 C932 1.384 . S
C934 C935 1.372 . S
C935 C934 1.372 . S
C935 C936 1.400 . S
C935 C940 1.490 . S
C936 H926 0.930 . S
C936 C935 1.400 . S
C936 C939 1.386 . S
H937 C953 0.930 . S
H938 C954 0.931 . S
C939 H927 0.929 . S
C939 C933 1.390 . S
C939 C936 1.386 . S
C940 C935 1.490 . S
C940 C942 1.395 . S
C940 C943 1.403 . S
H941 C947 0.930 . S
C942 H928 0.930 . S
C942 C940 1.395 . S
C942 C945 1.403 . S
C943 C940 1.403 . S
C943 C944 1.524 . S
C943 C947 1.400 . S
C944 H929 0.960 . S
C944 H930 0.960 . S
C944 H931 0.960 . S
C944 C943 1.524 . S
C945 C942 1.403 . S
C945 C946 1.392 . S
C945 C949 1.495 . S
C946 C945 1.392 . S
C946 C947 1.385 . S
C946 C948 1.478 . S
C947 H941 0.930 . S
C947 C943 1.400 . S
C947 C946 1.385 . S
C948 C946 1.478 . S
C948 C950 1.381 . S
C948 C954 1.383 . S
C949 C945 1.495 . S
C949 H955 0.959 . S
C949 H956 0.961 . S
C949 H957 0.960 . S
C950 C948 1.381 . S
C950 C951 1.394 . S
C950 H958 0.930 . S
C951 C950 1.394 . S
C951 C952 1.383 . S
C951 H959 0.929 . S
C952 C951 1.383 . S
C952 C953 1.377 . S
C953 H937 0.930 . S
C953 C952 1.377 . S
C953 C954 1.379 . S
C954 H938 0.931 . S
C954 C948 1.383 . S
C954 C953 1.379 . S
H955 C949 0.959 . S
H956 C949 0.961 . S
H957 C949 0.960 . S
H958 C950 0.930 . S
H959 C951 0.929 . S
H960 C968 0.929 . S
H961 C970 0.930 . S
H962 C972 0.930 . S
H963 C975 0.929 . S
H964 C978 0.930 . S
H965 C980 0.960 . S
H966 C980 0.960 . S
H967 C980 0.960 . S
C968 H960 0.929 . S
C968 C969 1.377 . S
C968 C970 1.384 . S
C969 C968 1.377 . S
C969 C975 1.390 . S
C970 H961 0.930 . S
C970 C968 1.384 . S
C970 C971 1.372 . S
C971 C970 1.372 . S
C971 C972 1.400 . S
C971 C976 1.490 . S
C972 H962 0.930 . S
C972 C971 1.400 . S
C972 C975 1.386 . S
H973 C989 0.930 . S
H974 C990 0.931 . S
C975 H963 0.929 . S
C975 C969 1.390 . S
C975 C972 1.386 . S
C976 C971 1.490 . S
C976 C978 1.395 . S
C976 C979 1.403 . S
H977 C983 0.930 . S
C978 H964 0.930 . S
C978 C976 1.395 . S
C978 C981 1.403 . S
C979 C976 1.403 . S
C979 C980 1.524 . S
C979 C983 1.400 . S
C980 H965 0.960 . S
C980 H966 0.960 . S
C980 H967 0.960 . S
C980 C979 1.524 . S
C981 C978 1.403 . S
C981 C982 1.392 . S
C981 C985 1.495 . S
C982 C981 1.392 . S
C982 C983 1.385 . S
C982 C984 1.478 . S
C983 H977 0.930 . S
C983 C979 1.400 . S
C983 C982 1.385 . S
C984 C982 1.478 . S
C984 C986 1.381 . S
C984 C990 1.383 . S
C985 C981 1.495 . S
C985 H991 0.959 . S
C985 H992 0.961 . S
C985 H993 0.960 . S
C986 C984 1.381 . S
C986 C987 1.394 . S
C986 H994 0.930 . S
C987 C986 1.394 . S
C987 C988 1.383 . S
C987 H995 0.929 . S
C988 C987 1.383 . S
C988 C989 1.377 . S
C989 H973 0.930 . S
C989 C988 1.377 . S
C989 C990 1.379 . S
C990 H974 0.931 . S
C990 C984 1.383 . S
C990 C989 1.379 . S
H991 C985 0.959 . S
H992 C985 0.961 . S
H993 C985 0.960 . S
H994 C986 0.930 . S
H995 C987 0.929 . S
H996 C1004 0.929 . S
H997 C1006 0.930 . S
H998 C1008 0.930 . S
H999 C1011 0.929 . S
H1000 C1014 0.930 . S
H1001 C1016 0.960 . S
H1002 C1016 0.960 . S
H1003 C1016 0.960 . S
C1004 H996 0.929 . S
C1004 C1005 1.377 . S
C1004 C1006 1.384 . S
C1005 C1004 1.377 . S
C1005 C1011 1.390 . S
C1006 H997 0.930 . S
C1006 C1004 1.384 . S
C1006 C1007 1.372 . S
C1007 C1006 1.372 . S
C1007 C1008 1.400 . S
C1007 C1012 1.490 . S
C1008 H998 0.930 . S
C1008 C1007 1.400 . S
C1008 C1011 1.386 . S
H1009 C1025 0.920 1_556 S
H1010 C1026 0.931 . S
C1011 H999 0.929 . S
C1011 C1005 1.390 . S
C1011 C1008 1.386 . S
C1012 C1007 1.490 . S
C1012 C1014 1.395 . S
C1012 C1015 1.403 . S
H1013 C1019 0.930 . S
C1014 H1000 0.930 . S
C1014 C1012 1.395 . S
C1014 C1017 1.403 . S
C1015 C1012 1.403 . S
C1015 C1016 1.524 . S
C1015 C1019 1.400 . S
C1016 H1001 0.960 . S
C1016 H1002 0.960 . S
C1016 H1003 0.960 . S
C1016 C1015 1.524 . S
C1017 C1014 1.403 . S
C1017 C1018 1.392 . S
C1017 C1021 1.495 . S
C1018 C1017 1.392 . S
C1018 C1019 1.385 . S
C1018 C1020 1.478 . S
C1019 H1013 0.930 . S
C1019 C1015 1.400 . S
C1019 C1018 1.385 . S
C1020 C1018 1.478 . S
C1020 C1022 1.381 . S
C1020 C1026 1.383 . S
C1021 C1017 1.495 . S
C1021 H1027 0.959 . S
C1021 H1028 0.961 . S
C1021 H1029 0.960 . S
C1022 C1020 1.381 . S
C1022 C1023 1.394 . S
C1022 H1030 0.930 . S
C1023 C1022 1.394 . S
C1023 C1024 1.383 . S
C1023 H1031 0.929 . S
C1024 C1023 1.383 . S
C1024 C1025 1.377 . S
C1025 H1009 0.920 1_554 S
C1025 C1024 1.377 . S
C1025 C1026 1.379 . S
C1026 H1010 0.931 . S
C1026 C1020 1.383 . S
C1026 C1025 1.379 . S
H1027 C1021 0.959 . S
H1028 C1021 0.961 . S
H1029 C1021 0.960 . S
H1030 C1022 0.930 . S
H1031 C1023 0.929 . S
C177 C123 1.396 . S
C196 C11 1.383 . S
C213 C25 1.394 . S
C232 C137 1.395 . S
C249 C39 1.391 . S
C268 C151 1.399 . S
C285 C53 1.395 . S
C304 C165 1.388 . S
C321 C95 1.394 . S
C340 C67 1.384 . S
C357 C81 1.391 . S
C376 C109 1.398 . S
C393 C13 1.249 . S
C412 C77 1.307 . S
C429 C27 1.246 . S
C448 C7 1.334 . S
C465 C41 1.235 . S
C484 C21 1.306 1_565 S
C501 C35 1.307 . S
C520 C55 1.257 . S
C537 C49 1.332 . S
C556 C69 1.202 . S
C573 C63 1.332 . S
C592 C83 1.197 . S
C609 C105 1.312 . S
C628 C97 1.199 . S
C645 C111 1.248 . S
C664 C119 1.310 . S
C681 C133 1.333 . S
C700 C125 1.205 . S
C717 C139 1.234 . S
C736 C147 1.326 . S
C753 C153 1.249 . S
C772 C161 1.306 . S
C789 C167 1.236 . S
C808 C91 1.298 . S
C825 C148 1.189 . S
C844 C8 1.168 . S
C861 C162 1.185 . S
C880 C22 1.211 . S
C897 C92 1.182 . S
C916 C36 1.215 . S
C933 C50 1.188 . S
C952 C106 1.202 . S
C969 C64 1.184 . S
C988 C120 1.212 1_556 S
C1005 C134 1.184 . S
C1024 C78 1.192 1_554 S
