# Generated by pormake.
# Topology ukh, (4)-cn, num edge types: 1
# Building blocks:
#     Node 0, Type 0, BuildingBlock: QUQFOY_clean_sbu_3, # of connection points: 4
#     Node 1, Type 0, BuildingBlock: QUQFOY_clean_sbu_3, # of connection points: 4
#     Node 2, Type 0, BuildingBlock: QUQFOY_clean_sbu_3, # of connection points: 4
#     Node 3, Type 0, BuildingBlock: QUQFOY_clean_sbu_3, # of connection points: 4
#     Node 4, Type 0, BuildingBlock: QUQFOY_clean_sbu_3, # of connection points: 4
#     Node 5, Type 0, BuildingBlock: QUQFOY_clean_sbu_3, # of connection points: 4
#     Node 6, Type 0, BuildingBlock: QUQFOY_clean_sbu_3, # of connection points: 4
#     Node 7, Type 0, BuildingBlock: QUQFOY_clean_sbu_3, # of connection points: 4
#     Node 8, Type 0, BuildingBlock: QUQFOY_clean_sbu_3, # of connection points: 4
#     Node 9, Type 0, BuildingBlock: QUQFOY_clean_sbu_3, # of connection points: 4
#     Node 10, Type 0, BuildingBlock: QUQFOY_clean_sbu_3, # of connection points: 4
#     Node 11, Type 0, BuildingBlock: QUQFOY_clean_sbu_3, # of connection points: 4
#     Edge 12, Type (0, 0), BuildingBlock: MIFKUJ_clean_linker_0, # of connection points: 2
#     Edge 13, Type (0, 0), BuildingBlock: MIFKUJ_clean_linker_0, # of connection points: 2
#     Edge 14, Type (0, 0), BuildingBlock: MIFKUJ_clean_linker_0, # of connection points: 2
#     Edge 15, Type (0, 0), BuildingBlock: MIFKUJ_clean_linker_0, # of connection points: 2
#     Edge 16, Type (0, 0), BuildingBlock: MIFKUJ_clean_linker_0, # of connection points: 2
#     Edge 17, Type (0, 0), BuildingBlock: MIFKUJ_clean_linker_0, # of connection points: 2
#     Edge 18, Type (0, 0), BuildingBlock: MIFKUJ_clean_linker_0, # of connection points: 2
#     Edge 19, Type (0, 0), BuildingBlock: MIFKUJ_clean_linker_0, # of connection points: 2
#     Edge 20, Type (0, 0), BuildingBlock: MIFKUJ_clean_linker_0, # of connection points: 2
#     Edge 21, Type (0, 0), BuildingBlock: MIFKUJ_clean_linker_0, # of connection points: 2
#     Edge 22, Type (0, 0), BuildingBlock: MIFKUJ_clean_linker_0, # of connection points: 2
#     Edge 23, Type (0, 0), BuildingBlock: MIFKUJ_clean_linker_0, # of connection points: 2
#     Edge 24, Type (0, 0), BuildingBlock: MIFKUJ_clean_linker_0, # of connection points: 2
#     Edge 25, Type (0, 0), BuildingBlock: MIFKUJ_clean_linker_0, # of connection points: 2
#     Edge 26, Type (0, 0), BuildingBlock: MIFKUJ_clean_linker_0, # of connection points: 2
#     Edge 27, Type (0, 0), BuildingBlock: MIFKUJ_clean_linker_0, # of connection points: 2
#     Edge 28, Type (0, 0), BuildingBlock: MIFKUJ_clean_linker_0, # of connection points: 2
#     Edge 29, Type (0, 0), BuildingBlock: MIFKUJ_clean_linker_0, # of connection points: 2
#     Edge 30, Type (0, 0), BuildingBlock: MIFKUJ_clean_linker_0, # of connection points: 2
#     Edge 31, Type (0, 0), BuildingBlock: MIFKUJ_clean_linker_0, # of connection points: 2
#     Edge 32, Type (0, 0), BuildingBlock: MIFKUJ_clean_linker_0, # of connection points: 2
#     Edge 33, Type (0, 0), BuildingBlock: MIFKUJ_clean_linker_0, # of connection points: 2
#     Edge 34, Type (0, 0), BuildingBlock: MIFKUJ_clean_linker_0, # of connection points: 2
#     Edge 35, Type (0, 0), BuildingBlock: MIFKUJ_clean_linker_0, # of connection points: 2
# Relax obj value: 0.081
# Max RMSD: 0.103
# Mean RMSD: 0.098
data_MOF--net-ukh--node1-QUQFOY_clean_sbu_3--edge1-MIFKUJ_clean_linker_0
_symmetry_space_group_name_H-M    P1
_symmetry_Int_Tables_number       1
_symmetry_cell_setting            triclinic
loop_
_symmetry_equiv_pos_as_xyz
'x, y, z'
_cell_length_a     42.425838
_cell_length_b     43.053231
_cell_length_c     84.463822
_cell_angle_alpha  89.935088
_cell_angle_beta   89.728981
_cell_angle_gamma 119.32254
loop_
_atom_site_label
_atom_site_type_symbol
_atom_site_fract_x
_atom_site_fract_y
_atom_site_fract_z
_atom_type_partial_charge
C0 C 0.22256 0.19852 0.04112 0.0
O1 O 0.21225 0.17888 0.05339 0.0
Cd2 Cd 0.25315 0.16709 0.06819 0.0
O3 O 0.2558 0.21477 0.03705 0.0
Cd4 Cd 0.31624 0.226 0.04564 0.0
C5 C 0.2867 0.1398 0.03657 0.0
O6 O 0.30424 0.22329 0.07371 0.0
O7 O 0.35092 0.21862 0.06738 0.0
O8 O 0.33037 0.28666 0.04043 0.0
C9 C 0.33126 0.22072 0.07822 0.0
O10 O 0.26857 0.1334 0.0494 0.0
C11 C 0.361 0.29701 0.03401 0.0
O12 O 0.30567 0.17165 0.03142 0.0
O13 O 0.3713 0.2739 0.03257 0.0
C14 C 0.14225 0.33506 0.34842 0.0
O15 O 0.13039 0.34992 0.33902 0.0
Cd16 Cd 0.07614 0.3522 0.34437 0.0
O17 O 0.12642 0.32238 0.36162 0.0
Cd18 Cd 0.07485 0.31737 0.37742 0.0
C19 C 0.01788 0.26261 0.34963 0.0
O20 O 0.07961 0.37473 0.37074 0.0
O21 O 0.02963 0.33578 0.3817 0.0
O22 O 0.11349 0.33235 0.40063 0.0
C23 C 0.04928 0.36738 0.37675 0.0
O24 O 0.02803 0.29039 0.34111 0.0
C25 C 0.0906 0.30697 0.40919 0.0
O26 O 0.03177 0.26455 0.36317 0.0
O27 O 0.06039 0.28604 0.40291 0.0
C28 C 0.79577 0.15029 0.67976 0.0
O29 O 0.76911 0.1428 0.67079 0.0
Cd30 Cd 0.71288 0.08875 0.67585 0.0
O31 O 0.79163 0.13229 0.6923 0.0
Cd32 Cd 0.7443 0.08484 0.70848 0.0
C33 C 0.74239 0.02743 0.68148 0.0
O34 O 0.69002 0.08869 0.70188 0.0
O35 O 0.68206 0.0393 0.7122 0.0
O36 O 0.76536 0.1276 0.72978 0.0
C37 C 0.66838 0.05805 0.70749 0.0
O38 O 0.72491 0.03871 0.67324 0.0
C39 C 0.76963 0.108 0.73979 0.0
O40 O 0.75561 0.04131 0.69484 0.0
O41 O 0.76236 0.07705 0.73523 0.0
C42 C 0.73024 0.77278 0.04081 0.0
O43 O 0.74067 0.79398 0.05249 0.0
Cd44 Cd 0.70038 0.80557 0.06806 0.0
O45 O 0.6968 0.75504 0.0373 0.0
Cd46 Cd 0.63641 0.7438 0.04645 0.0
C47 C 0.66377 0.83013 0.03698 0.0
O48 O 0.65132 0.74826 0.07404 0.0
O49 O 0.60161 0.74823 0.06926 0.0
O50 O 0.62094 0.68265 0.04106 0.0
C51 C 0.62369 0.74865 0.07945 0.0
O52 O 0.68269 0.83789 0.04953 0.0
C53 C 0.59046 0.67326 0.03483 0.0
O54 O 0.64542 0.79788 0.03235 0.0
O55 O 0.58109 0.69708 0.03359 0.0
C56 C 0.8041 0.63281 0.34836 0.0
O57 O 0.81642 0.62023 0.33798 0.0
Cd58 Cd 0.87292 0.62097 0.34143 0.0
O59 O 0.82106 0.64531 0.36124 0.0
Cd60 Cd 0.87621 0.65404 0.3748 0.0
C61 C 0.92971 0.71059 0.3462 0.0
O62 O 0.87528 0.59881 0.36737 0.0
O63 O 0.92517 0.64039 0.37719 0.0
O64 O 0.84443 0.63307 0.39993 0.0
C65 C 0.90677 0.60843 0.37255 0.0
O66 O 0.9192 0.68317 0.3375 0.0
C67 C 0.86279 0.6621 0.40731 0.0
O68 O 0.91715 0.70793 0.36016 0.0
O69 O 0.88751 0.68784 0.39952 0.0
C70 C 0.15803 0.81589 0.67764 0.0
O71 O 0.18479 0.82833 0.66817 0.0
Cd72 Cd 0.24066 0.88126 0.67431 0.0
O73 O 0.16079 0.83034 0.69107 0.0
Cd74 Cd 0.20626 0.87934 0.7072 0.0
C75 C 0.20907 0.93995 0.68134 0.0
O76 O 0.26181 0.87806 0.70023 0.0
O77 O 0.26795 0.92596 0.71132 0.0
O78 O 0.18883 0.83836 0.72938 0.0
C79 C 0.28257 0.90825 0.70632 0.0
O80 O 0.22816 0.93085 0.6729 0.0
C81 C 0.18139 0.85683 0.7388 0.0
O82 O 0.19456 0.92359 0.69422 0.0
O83 O 0.18505 0.88606 0.73346 0.0
C84 C 0.79432 0.63625 0.63114 0.0
O85 O 0.76921 0.62418 0.64147 0.0
Cd86 Cd 0.71063 0.61915 0.63695 0.0
O87 O 0.78939 0.64625 0.61763 0.0
Cd88 Cd 0.74264 0.65134 0.60255 0.0
C89 C 0.73734 0.70699 0.6297 0.0
O90 O 0.69018 0.59544 0.61102 0.0
O91 O 0.67945 0.63155 0.5972 0.0
O92 O 0.76039 0.63178 0.57879 0.0
C93 C 0.66728 0.60175 0.60419 0.0
O94 O 0.7201 0.67966 0.63851 0.0
C95 C 0.76892 0.65979 0.57078 0.0
O96 O 0.75073 0.70478 0.61649 0.0
O97 O 0.76546 0.68426 0.5776 0.0
C98 C 0.0037 0.77284 0.93999 0.0
O99 O 0.01365 0.79331 0.92798 0.0
Cd100 Cd 0.06466 0.80454 0.91198 0.0
O101 O 0.01955 0.75515 0.94358 0.0
Cd102 Cd 0.06777 0.74286 0.93376 0.0
C103 C 0.1274 0.82915 0.94237 0.0
O104 O 0.05557 0.74689 0.9063 0.0
O105 O 0.10537 0.74664 0.91038 0.0
O106 O 0.02209 0.68214 0.94008 0.0
C107 C 0.08313 0.74701 0.90049 0.0
O108 O 0.11544 0.83671 0.92997 0.0
C109 C 0.04346 0.67205 0.94547 0.0
O110 O 0.11383 0.797 0.94723 0.0
O111 O 0.07683 0.69532 0.9459 0.0
C112 C 0.32128 0.15035 0.30016 0.0
O113 O 0.33354 0.13785 0.31057 0.0
Cd114 Cd 0.33493 0.08361 0.30597 0.0
O115 O 0.31151 0.13535 0.28673 0.0
Cd116 Cd 0.30959 0.08531 0.27168 0.0
C117 C 0.24574 0.02758 0.29658 0.0
O118 O 0.36474 0.08683 0.28118 0.0
O119 O 0.32573 0.0387 0.26944 0.0
O120 O 0.33508 0.12645 0.24953 0.0
C121 C 0.35696 0.05678 0.27533 0.0
O122 O 0.27149 0.03684 0.3064 0.0
C123 C 0.31177 0.10659 0.23949 0.0
O124 O 0.25135 0.04225 0.28299 0.0
O125 O 0.2869 0.07662 0.24445 0.0
C126 C 0.15671 0.33132 0.63286 0.0
O127 O 0.18263 0.34693 0.64252 0.0
Cd128 Cd 0.24041 0.35007 0.63794 0.0
O129 O 0.16136 0.31902 0.61989 0.0
Cd130 Cd 0.20847 0.31552 0.60418 0.0
C131 C 0.21248 0.26113 0.63206 0.0
O132 O 0.26023 0.37271 0.6117 0.0
O133 O 0.27193 0.33648 0.59856 0.0
O134 O 0.18297 0.33072 0.58169 0.0
C135 C 0.28353 0.36667 0.605 0.0
O136 O 0.22981 0.28892 0.64049 0.0
C137 C 0.18092 0.30608 0.57277 0.0
O138 O 0.19955 0.26273 0.61869 0.0
O139 O 0.1915 0.28547 0.5785 0.0
C140 C 0.95154 0.19725 0.93945 0.0
O141 O 0.94232 0.17768 0.92723 0.0
Cd142 Cd 0.89132 0.167 0.91159 0.0
O143 O 0.93511 0.21429 0.94325 0.0
Cd144 Cd 0.8867 0.226 0.93343 0.0
C145 C 0.8277 0.13987 0.94196 0.0
O146 O 0.89799 0.22375 0.90548 0.0
O147 O 0.8462 0.2188 0.91103 0.0
O148 O 0.93098 0.28789 0.93801 0.0
C149 C 0.86882 0.22139 0.90052 0.0
O150 O 0.84008 0.13332 0.92938 0.0
C151 C 0.90976 0.29678 0.94469 0.0
O152 O 0.84102 0.17164 0.94717 0.0
O153 O 0.87714 0.2723 0.94661 0.0
C154 C 0.6303 0.82041 0.30227 0.0
O155 O 0.61675 0.83343 0.31183 0.0
Cd156 Cd 0.61737 0.88804 0.30607 0.0
O157 O 0.64242 0.83506 0.28884 0.0
Cd158 Cd 0.64684 0.88492 0.27245 0.0
C159 C 0.7081 0.94302 0.29765 0.0
O160 O 0.59053 0.88323 0.28059 0.0
O161 O 0.63002 0.93075 0.26847 0.0
O162 O 0.62555 0.8414 0.25116 0.0
C163 C 0.59845 0.91287 0.27419 0.0
O164 O 0.68121 0.93373 0.30696 0.0
C165 C 0.64738 0.86218 0.24076 0.0
O166 O 0.70414 0.9285 0.28414 0.0
O167 O 0.66971 0.8936 0.24514 0.0
H168 H 0.60855 0.62101 0.03148 0.0
H169 H 0.56816 0.55765 0.02685 0.0
H170 H 0.47766 0.57673 0.02342 0.0
H171 H 0.51811 0.64047 0.028 0.0
H172 H 0.46633 0.52368 0.04476 0.0
H173 H 0.50618 0.55316 -0.00895 0.0
H174 H 0.55071 0.57943 0.96935 0.0
H175 H 0.59536 0.51208 0.98148 0.0
H176 H 0.55141 0.48574 0.00341 0.0
H177 H 0.33955 0.34631 0.02934 0.0
H178 H 0.37757 0.41027 0.02523 0.0
H179 H 0.47251 0.39787 0.02487 0.0
H180 H 0.43425 0.33332 0.02853 0.0
H181 H 0.48001 0.44819 0.00396 0.0
H182 H 0.44555 0.42276 0.05861 0.0
H183 H 0.40329 0.39691 0.08113 0.0
H184 H 0.35155 0.45754 0.06827 0.0
H185 H 0.39322 0.48339 0.04553 0.0
C186 C 0.58014 0.61186 0.02951 0.0
C187 C 0.56648 0.63574 0.03017 0.0
C188 C 0.55711 0.57562 0.02678 0.0
C189 C 0.51992 0.56247 0.02472 0.0
C190 C 0.50631 0.58637 0.02494 0.0
C191 C 0.52944 0.62276 0.02751 0.0
C192 C 0.49506 0.52346 0.02373 0.0
C193 C 0.46881 0.50727 0.03564 0.0
C194 C 0.4992 0.50194 0.01216 0.0
C195 C 0.52567 0.51769 -0.00104 0.0
C196 C 0.52568 0.54416 0.98918 0.0
C197 C 0.55079 0.55902 0.97682 0.0
C198 C 0.5759 0.54748 0.97406 0.0
C199 C 0.57591 0.521 0.98364 0.0
C200 C 0.55087 0.50607 -0.00398 0.0
C201 C 0.36849 0.35709 0.02817 0.0
C202 C 0.38397 0.33484 0.02944 0.0
C203 C 0.39022 0.39371 0.02587 0.0
C204 C 0.42799 0.40904 0.02513 0.0
C205 C 0.44344 0.38667 0.0255 0.0
C206 C 0.42158 0.34981 0.02761 0.0
C207 C 0.45121 0.44847 0.02498 0.0
C208 C 0.47726 0.46469 0.01296 0.0
C209 C 0.44725 0.47012 0.03657 0.0
C210 C 0.42225 0.45472 0.05027 0.0
C211 C 0.42499 0.43038 0.06052 0.0
C212 C 0.40117 0.41576 0.07333 0.0
C213 C 0.37469 0.4255 0.07611 0.0
C214 C 0.37204 0.44997 0.06609 0.0
C215 C 0.39576 0.46463 0.05324 0.0
H216 H 0.35628 0.41415 0.08604 0.0
H217 H 0.59531 0.55902 0.96448 0.0
H218 H -0.02032 0.35328 0.38032 0.0
H219 H 0.957 0.39566 0.3792 0.0
H220 H 0.06553 0.48186 0.37183 0.0
H221 H 0.08848 0.43947 0.37261 0.0
H222 H 0.0206 0.49203 0.39637 0.0
H223 H 0.01933 0.45896 0.34163 0.0
H224 H 0.00395 0.41615 0.31975 0.0
H225 H 0.89094 0.37297 0.33013 0.0
H226 H 0.90569 0.41519 0.35224 0.0
H227 H -0.02275 0.62574 0.37626 0.0
H228 H 0.00238 0.58546 0.37669 0.0
H229 H 0.8956 0.49576 0.37011 0.0
H230 H 0.87051 0.53618 0.36904 0.0
H231 H 0.94096 0.4875 0.35254 0.0
H232 H 0.93896 0.51702 0.40691 0.0
H233 H 0.95108 0.55631 0.42996 0.0
H234 H 0.06533 0.60181 0.42212 0.0
H235 H 0.05389 0.56311 0.39888 0.0
C236 C -0.00125 0.38126 0.37849 0.0
C237 C 0.03584 0.39313 0.37651 0.0
C238 C -0.01427 0.40536 0.37782 0.0
C239 C 0.00964 0.44171 0.37538 0.0
C240 C 0.04676 0.45382 0.37372 0.0
C241 C 0.05976 0.42962 0.37411 0.0
C242 C -0.00438 0.46697 0.37442 0.0
C243 C 0.00363 0.49153 0.38669 0.0
C244 C 0.97256 0.46525 0.36204 0.0
C245 C 0.96364 0.43999 0.34869 0.0
C246 C -0.00878 0.44011 0.33934 0.0
C247 C -0.01739 0.416 0.32688 0.0
C248 C 0.9465 0.39178 0.32358 0.0
C249 C 0.91891 0.39171 0.33271 0.0
C250 C 0.92738 0.41574 0.3452 0.0
C251 C 0.95913 0.59743 0.3749 0.0
C252 C 0.9219 0.58405 0.37268 0.0
C253 C 0.9735 0.57441 0.37523 0.0
C254 C 0.9508 0.5375 0.37373 0.0
C255 C 0.91363 0.52413 0.37133 0.0
C256 C 0.89931 0.54722 0.37075 0.0
C257 C 0.96585 0.51287 0.37453 0.0
C258 C 0.958 0.48826 0.36224 0.0
C259 C -0.01145 0.51414 0.38706 0.0
C260 C -0.00445 0.53741 0.40106 0.0
C261 C 0.96667 0.5356 0.41003 0.0
C262 C 0.97341 0.55773 0.42314 0.0
C263 C 0.00895 0.58161 0.42748 0.0
C264 C 0.03782 0.58333 0.41873 0.0
C265 C 0.03122 0.56129 0.4056 0.0
H266 H 0.01411 0.59872 0.43763 0.0
H267 H 0.93989 0.37314 0.31392 0.0
H268 H 0.32136 0.87337 0.70275 0.0
H269 H 0.38739 0.89953 0.70305 0.0
H270 H 0.39893 0.00385 0.70981 0.0
H271 H 0.33315 0.97796 0.70984 0.0
H272 H 0.44431 -0.00227 0.68499 0.0
H273 H 0.4107 0.96984 0.74011 0.0
H274 H 0.37646 0.93013 0.7623 0.0
H275 H 0.41988 0.86125 0.75098 0.0
H276 H 0.45398 0.90032 0.72856 0.0
H277 H 0.63092 0.0942 0.70357 0.0
H278 H 0.5652 0.06927 0.70345 0.0
H279 H 0.5512 0.96383 0.71027 0.0
H280 H 0.61661 -0.01125 0.71109 0.0
H281 H 0.50607 0.97048 0.72814 0.0
H282 H 0.53907 -0.00478 0.67342 0.0
H283 H 0.57222 0.03167 0.65024 0.0
H284 H 0.52924 0.10196 0.65909 0.0
H285 H 0.49619 0.06617 0.68246 0.0
C286 C 0.33801 0.90186 0.70429 0.0
C287 C 0.32219 0.92363 0.70632 0.0
C288 C 0.3756 0.91671 0.70449 0.0
C289 C 0.39781 0.95354 0.70647 0.0
C290 C 0.38212 0.97537 0.70825 0.0
C291 C 0.3446 0.96051 0.70833 0.0
C292 C 0.43751 0.96936 0.70685 0.0
C293 C 0.458 -0.00781 0.69449 0.0
C294 C 0.45495 0.96122 0.71905 0.0
C295 C 0.43457 0.93779 0.73255 0.0
C296 C 0.41268 0.94605 0.74226 0.0
C297 C 0.39335 0.9237 0.75489 0.0
C298 C 0.39591 0.89313 0.75802 0.0
C299 C 0.41788 0.88491 0.74853 0.0
C300 C 0.43723 0.90716 0.73586 0.0
C301 C 0.61375 0.06572 0.70505 0.0
C302 C 0.62884 0.04341 0.70732 0.0
C303 C 0.57623 0.05146 0.70489 0.0
C304 C 0.5532 0.01456 0.70661 0.0
C305 C 0.56835 -0.00765 0.70894 0.0
C306 C 0.60577 0.00664 0.70936 0.0
C307 C 0.51331 -0.00103 0.70619 0.0
C308 C 0.49263 0.97614 0.71857 0.0
C309 C 0.49566 0.00666 0.69384 0.0
C310 C 0.51546 0.02822 0.67979 0.0
C311 C 0.53691 0.0186 0.6705 0.0
C312 C 0.55564 0.03912 0.65731 0.0
C313 C 0.55292 0.06917 0.65322 0.0
C314 C 0.53137 0.07871 0.66229 0.0
C315 C 0.51261 0.0583 0.6755 0.0
H316 H 0.56744 0.08502 0.643 0.0
H317 H 0.38094 0.87586 0.76781 0.0
H318 H 0.6148 0.60003 0.58525 0.0
H319 H 0.54972 0.56009 0.58719 0.0
H320 H 0.56586 0.5083 0.62769 0.0
H321 H 0.63131 0.54727 0.62531 0.0
H322 H 0.51735 0.46058 0.61046 0.0
H323 H 0.53416 0.56996 0.63118 0.0
H324 H 0.55617 0.63461 0.63199 0.0
H325 H 0.49444 0.62661 0.59054 0.0
H326 H 0.47245 0.56196 0.58935 0.0
H327 H 0.31852 0.42357 0.62483 0.0
H328 H 0.38385 0.46332 0.62692 0.0
H329 H 0.40168 0.40784 0.58838 0.0
H330 H 0.33675 0.36729 0.58671 0.0
H331 H 0.43304 0.50946 0.60878 0.0
H332 H 0.4786 0.40581 0.59227 0.0
H333 H 0.45653 0.34143 0.59543 0.0
H334 H 0.3934 0.33841 0.63589 0.0
H335 H 0.41547 0.40284 0.63311 0.0
C336 C 0.60447 0.58006 0.59454 0.0
C337 C 0.62806 0.57682 0.60517 0.0
C338 C 0.56723 0.5574 0.59572 0.0
C339 C 0.55273 0.53166 0.60781 0.0
C340 C 0.57635 0.52802 0.61829 0.0
C341 C 0.61373 0.55029 0.61693 0.0
C342 C 0.51297 0.50832 0.60933 0.0
C343 C 0.49895 0.4713 0.61015 0.0
C344 C 0.48885 0.52226 0.60941 0.0
C345 C 0.50187 0.56114 0.61011 0.0
C346 C 0.52546 0.58202 0.62217 0.0
C347 C 0.53791 0.61866 0.62271 0.0
C348 C 0.52677 0.63472 0.6113 0.0
C349 C 0.50307 0.61414 0.59936 0.0
C350 C 0.49057 0.57748 0.59876 0.0
C351 C 0.33644 0.41994 0.61681 0.0
C352 C 0.32263 0.3922 0.60569 0.0
C353 C 0.37374 0.44266 0.618 0.0
C354 C 0.39779 0.43818 0.60801 0.0
C355 C 0.38381 0.41124 0.59652 0.0
C356 C 0.34666 0.38822 0.5955 0.0
C357 C 0.43747 0.46172 0.60946 0.0
C358 C 0.45146 0.49877 0.6092 0.0
C359 C 0.46155 0.44785 0.61051 0.0
C360 C 0.44848 0.40912 0.61238 0.0
C361 C 0.46015 0.39145 0.60188 0.0
C362 C 0.44761 0.35493 0.6036 0.0
C363 C 0.4235 0.33583 0.61582 0.0
C364 C 0.41198 0.35322 0.62639 0.0
C365 C 0.42446 0.38973 0.62474 0.0
H366 H 0.4138 0.30756 0.61712 0.0
H367 H 0.53644 0.66309 0.61174 0.0
H368 H 0.86933 0.32715 0.95471 0.0
H369 H 0.89047 0.39064 0.95912 0.0
H370 H -0.00019 0.41483 0.94873 0.0
H371 H -0.02096 0.3517 0.94442 0.0
H372 H -0.00256 0.455 0.97333 0.0
H373 H 0.94883 0.42308 0.92037 0.0
H374 H 0.9015 0.38853 0.90082 0.0
H375 H 0.83159 0.42245 0.92238 0.0
H376 H 0.87839 0.45684 0.94219 0.0
H377 H 0.08203 0.63666 0.94858 0.0
H378 H 0.05787 0.57262 0.95254 0.0
H379 H 0.95014 0.55837 0.95677 0.0
H380 H 0.97401 0.62201 0.9522 0.0
H381 H 0.94833 0.51206 0.93749 0.0
H382 H -0.00148 0.54876 0.98907 0.0
H383 H 0.0454 0.58322 0.0088 0.0
H384 H 0.11127 0.54079 -0.00925 0.0
H385 H 0.06499 0.50643 0.97076 0.0
C386 C 0.89793 0.34595 0.95358 0.0
C387 C 0.92245 0.3344 0.94908 0.0
C388 C 0.90996 0.38223 0.95606 0.0
C389 C 0.94669 0.40755 0.95407 0.0
C390 C 0.97138 0.39583 0.95032 0.0
C391 C 0.95939 0.35969 0.94779 0.0
C392 C 0.9593 0.44639 0.95484 0.0
C393 C -0.01313 0.4676 0.96546 0.0
C394 C 0.94497 0.4627 0.94481 0.0
C395 C 0.91693 0.44218 0.93286 0.0
C396 C 0.92326 0.42294 0.92101 0.0
C397 C 0.89655 0.40343 0.90987 0.0
C398 C 0.86352 0.4032 0.91039 0.0
C399 C 0.85716 0.42259 0.92201 0.0
C400 C 0.88377 0.4421 0.9332 0.0
C401 C 0.05328 0.61992 0.95062 0.0
C402 C 0.02991 0.63435 0.95002 0.0
C403 C 0.03946 0.58327 0.95295 0.0
C404 C 0.00209 0.56048 0.95508 0.0
C405 C -0.021 0.57523 0.9551 0.0
C406 C -0.00729 0.61168 0.95253 0.0
C407 C -0.01331 0.52106 0.95601 0.0
C408 C 0.95865 0.49965 0.9456 0.0
C409 C 0.00051 0.50464 0.96631 0.0
C410 C 0.0284 0.52524 0.97832 0.0
C411 C 0.02312 0.54698 0.98922 0.0
C412 C 0.04956 0.56646 0.00047 0.0
C413 C 0.08132 0.56426 0.001 0.0
C414 C 0.08667 0.5425 -0.00969 0.0
C415 C 0.06032 0.52298 0.97903 0.0
H416 H 0.10176 0.57936 0.00972 0.0
H417 H 0.84287 0.38809 0.90175 0.0
H418 H 0.34053 -0.01252 0.2729 0.0
H419 H 0.38235 0.96363 0.2736 0.0
H420 H 0.47195 0.06976 0.27954 0.0
H421 H 0.43012 0.09387 0.27925 0.0
H422 H 0.47669 0.02318 0.25378 0.0
H423 H 0.45285 0.02601 0.30973 0.0
H424 H 0.4131 0.0127 0.33308 0.0
H425 H 0.36585 0.90065 0.32394 0.0
H426 H 0.40496 0.91334 0.30038 0.0
H427 H 0.61458 0.98148 0.26904 0.0
H428 H 0.57341 0.00582 0.26974 0.0
H429 H 0.48427 0.90121 0.28018 0.0
H430 H 0.5258 0.87695 0.28016 0.0
H431 H 0.47839 0.94718 0.29762 0.0
H432 H 0.49858 0.94053 0.24251 0.0
H433 H 0.53372 0.94988 0.21792 0.0
H434 H 0.58197 0.06319 0.22343 0.0
H435 H 0.54748 0.05452 0.24818 0.0
C436 C 0.36913 0.00574 0.27441 0.0
C437 C 0.38217 0.04252 0.27603 0.0
C438 C 0.39288 -0.00793 0.27484 0.0
C439 C 0.43005 0.01501 0.27664 0.0
C440 C 0.44325 0.05176 0.27816 0.0
C441 C 0.4194 0.06541 0.27805 0.0
C442 C 0.4551 0.0005 0.27664 0.0
C443 C 0.47761 0.00701 0.26344 0.0
C444 C 0.45495 0.97832 0.289 0.0
C445 C 0.43156 0.97065 0.3032 0.0
C446 C 0.43374 -0.00145 0.31261 0.0
C447 C 0.41138 -0.00888 0.3259 0.0
C448 C 0.38689 0.95586 0.32997 0.0
C449 C 0.38479 0.92795 0.32077 0.0
C450 C 0.40707 0.93525 0.30745 0.0
C451 C 0.58619 0.96364 0.27146 0.0
C452 C 0.57331 0.92729 0.27447 0.0
C453 C 0.56264 0.97756 0.27177 0.0
C454 C 0.52561 0.95524 0.27471 0.0
C455 C 0.51273 0.91892 0.27785 0.0
C456 C 0.53642 0.90508 0.2778 0.0
C457 C 0.5005 0.96997 0.27474 0.0
C458 C 0.47775 0.9634 0.28792 0.0
C459 C 0.49987 -0.00849 0.26217 0.0
C460 C 0.5207 -0.00314 0.24729 0.0
C461 C 0.5169 0.96744 0.23855 0.0
C462 C 0.53666 0.97262 0.22456 0.0
C463 C 0.56013 0.00711 0.21914 0.0
C464 C 0.56382 0.03649 0.22766 0.0
C465 C 0.54414 0.03146 0.24166 0.0
H466 H 0.5754 0.01106 0.20831 0.0
H467 H 0.36961 0.95015 0.34027 0.0
H468 H 0.27324 0.06611 0.21432 0.0
H469 H 0.27899 0.0845 0.18655 0.0
H470 H 0.36028 0.19095 0.19933 0.0
H471 H 0.35548 0.17246 0.22696 0.0
H472 H 0.26673 0.12968 0.17155 0.0
H473 H 0.42148 0.22957 0.17018 0.0
H474 H 0.47711 0.23701 0.18278 0.0
H475 H 0.42602 0.12441 0.19157 0.0
H476 H 0.37029 0.11622 0.17884 0.0
H477 H 0.30313 0.23604 0.10408 0.0
H478 H 0.30275 0.2172 0.1314 0.0
H479 H 0.36464 0.16665 0.11723 0.0
H480 H 0.36648 0.18691 0.08998 0.0
H481 H 0.38622 0.19443 0.14475 0.0
H482 H 0.27077 0.11884 0.12222 0.0
H483 H 0.21432 0.10413 0.10821 0.0
H484 H 0.18496 0.15423 0.14493 0.0
H485 H 0.24152 0.16972 0.15906 0.0
C486 C 0.29235 0.09341 0.21119 0.0
C487 C 0.31406 0.11779 0.22279 0.0
C488 C 0.29559 0.1039 0.19532 0.0
C489 C 0.32046 0.13897 0.1908 0.0
C490 C 0.34152 0.16354 0.20245 0.0
C491 C 0.33859 0.15298 0.21827 0.0
C492 C 0.32406 0.15009 0.17394 0.0
C493 C 0.29285 0.14378 0.1657 0.0
C494 C 0.35804 0.16772 0.16613 0.0
C495 C 0.39159 0.17236 0.17369 0.0
C496 C 0.42217 0.20638 0.17475 0.0
C497 C 0.45371 0.21073 0.18192 0.0
C498 C 0.45506 0.18122 0.18801 0.0
C499 C 0.4249 0.14727 0.1869 0.0
C500 C 0.39332 0.14277 0.17972 0.0
C501 C 0.31705 0.22131 0.10685 0.0
C502 C 0.33458 0.21267 0.09491 0.0
C503 C 0.31662 0.21034 0.12244 0.0
C504 C 0.33284 0.18968 0.12631 0.0
C505 C 0.35176 0.18239 0.11452 0.0
C506 C 0.35279 0.19396 0.09895 0.0
C507 C 0.32897 0.17472 0.1425 0.0
C508 C 0.3601 0.18028 0.15061 0.0
C509 C 0.29476 0.15528 0.15001 0.0
C510 C 0.26053 0.14569 0.14163 0.0
C511 C 0.25237 0.1269 0.12726 0.0
C512 C 0.22035 0.11841 0.1193 0.0
C513 C 0.1961 0.1283 0.12566 0.0
C514 C 0.20378 0.14662 0.14002 0.0
C515 C 0.23581 0.15524 0.14801 0.0
H516 H 0.17133 0.12171 0.11948 0.0
H517 H 0.47949 0.18465 0.19357 0.0
H518 H 0.04282 0.26522 0.43209 0.0
H519 H 0.05517 0.26226 0.46016 0.0
H520 H 0.16837 0.33546 0.45185 0.0
H521 H 0.15597 0.33951 0.42394 0.0
H522 H 0.09342 0.24181 0.47662 0.0
H523 H 0.20499 0.38973 0.48271 0.0
H524 H 0.22186 0.44814 0.47071 0.0
H525 H 0.11143 0.41044 0.45748 0.0
H526 H 0.09384 0.35199 0.46958 0.0
H527 H 0.18791 0.26716 0.54884 0.0
H528 H 0.16919 0.26411 0.52129 0.0
H529 H 0.12441 0.33261 0.53223 0.0
H530 H 0.14433 0.33683 0.55961 0.0
H531 H 0.16049 0.35448 0.50659 0.0
H532 H 0.07043 0.24061 0.52527 0.0
H533 H 0.0463 0.18189 0.5382 0.0
H534 H 0.10042 0.15089 0.50381 0.0
H535 H 0.12529 0.20963 0.49079 0.0
C536 C 0.07036 0.28056 0.43625 0.0
C537 C 0.09838 0.30289 0.42586 0.0
C538 C 0.0774 0.27877 0.45228 0.0
C539 C 0.11259 0.29911 0.45818 0.0
C540 C 0.14085 0.32018 0.44766 0.0
C541 C 0.13376 0.32237 0.43169 0.0
C542 C 0.11964 0.29909 0.47539 0.0
C543 C 0.10808 0.26643 0.48319 0.0
C544 C 0.13795 0.33116 0.48407 0.0
C545 C 0.14819 0.36638 0.47692 0.0
C546 C 0.1843 0.39396 0.4773 0.0
C547 C 0.19399 0.42706 0.47047 0.0
C548 C 0.16775 0.43296 0.46329 0.0
C549 C 0.13175 0.4058 0.46299 0.0
C550 C 0.12191 0.37267 0.46981 0.0
C551 C 0.17385 0.28135 0.54538 0.0
C552 C 0.16764 0.30229 0.55636 0.0
C553 C 0.16298 0.27945 0.52964 0.0
C554 C 0.14504 0.29785 0.52468 0.0
C555 C 0.1383 0.31827 0.53574 0.0
C556 C 0.14962 0.3206 0.5514 0.0
C557 C 0.13472 0.29719 0.50784 0.0
C558 C 0.14576 0.32979 0.50008 0.0
C559 C 0.11491 0.26502 0.49936 0.0
C560 C 0.09999 0.22965 0.50714 0.0
C561 C 0.07741 0.22137 0.52053 0.0
C562 C 0.06356 0.18806 0.52787 0.0
C563 C 0.07189 0.16271 0.52185 0.0
C564 C 0.09403 0.17058 0.50847 0.0
C565 C 0.10797 0.20386 0.50109 0.0
H566 H 0.06114 0.13694 0.52755 0.0
H567 H 0.17532 0.45859 0.458 0.0
H568 H 0.79651 0.17562 0.75078 0.0
H569 H 0.81508 0.19698 0.7777 0.0
H570 H 0.78757 0.09072 0.79265 0.0
H571 H 0.7699 0.06933 0.76554 0.0
H572 H 0.77934 0.18274 0.80403 0.0
H573 H 0.84122 0.09457 0.82302 0.0
H574 H 0.87347 0.06576 0.81101 0.0
H575 H 0.91215 0.14329 0.77349 0.0
H576 H 0.88055 0.1728 0.78538 0.0
H577 H 0.80123 0.18976 0.88757 0.0
H578 H 0.78537 0.17263 0.85992 0.0
H579 H 0.89865 0.22091 0.84773 0.0
H580 H 0.91449 0.23666 0.87545 0.0
H581 H 0.86583 0.16021 0.83449 0.0
H582 H 0.84377 0.25885 0.83767 0.0
H583 H 0.8177 0.29458 0.84847 0.0
H584 H 0.71068 0.20892 0.83944 0.0
H585 H 0.73611 0.1725 0.82876 0.0
C586 C 0.7946 0.1568 0.75978 0.0
C587 C 0.78183 0.12079 0.75604 0.0
C588 C 0.8051 0.16904 0.77518 0.0
C589 C 0.80291 0.14555 0.7872 0.0
C590 C 0.79006 0.10949 0.78352 0.0
C591 C 0.77988 0.09727 0.76804 0.0
C592 C 0.81367 0.15886 0.80359 0.0
C593 C 0.79827 0.17782 0.81069 0.0
C594 C 0.83886 0.15305 0.8122 0.0
C595 C 0.85818 0.13563 0.80501 0.0
C596 C 0.8567 0.10551 0.81223 0.0
C597 C 0.87485 0.08906 0.80544 0.0
C598 C 0.89474 0.10261 0.79147 0.0
C599 C 0.89662 0.13272 0.78428 0.0
C600 C 0.87855 0.1493 0.79103 0.0
C601 C 0.82272 0.19707 0.87894 0.0
C602 C 0.85909 0.21451 0.88364 0.0
C603 C 0.81365 0.18735 0.86313 0.0
C604 C 0.84082 0.19568 0.85168 0.0
C605 C 0.87719 0.21399 0.85633 0.0
C606 C 0.88622 0.22315 0.87216 0.0
C607 C 0.83147 0.18409 0.83498 0.0
C608 C 0.84695 0.16522 0.82784 0.0
C609 C 0.80724 0.19098 0.82617 0.0
C610 C 0.79185 0.21283 0.83256 0.0
C611 C 0.81467 0.24754 0.8381 0.0
C612 C 0.80001 0.26793 0.84418 0.0
C613 C 0.76255 0.254 0.84468 0.0
C614 C 0.73968 0.21967 0.83906 0.0
C615 C 0.75421 0.19915 0.83298 0.0
H616 H 0.75126 0.26983 0.84939 0.0
H617 H 0.90876 0.08982 0.78623 0.0
H618 H 0.57553 0.76505 0.09377 0.0
H619 H 0.57687 0.78411 0.12123 0.0
H620 H 0.66776 0.76808 0.13063 0.0
H621 H 0.667 0.74967 0.10328 0.0
H622 H 0.57096 0.75495 0.1501 0.0
H623 H 0.72804 0.8351 0.15318 0.0
H624 H 0.77976 0.86814 0.13505 0.0
H625 H 0.71188 0.8867 0.10332 0.0
H626 H 0.65994 0.8543 0.12136 0.0
H627 H 0.62109 0.79445 0.22996 0.0
H628 H 0.61541 0.77495 0.20246 0.0
H629 H 0.66166 0.88417 0.18673 0.0
H630 H 0.66933 0.90385 0.21428 0.0
H631 H 0.68693 0.8544 0.16933 0.0
H632 H 0.56655 0.821 0.18577 0.0
H633 H 0.51217 0.79266 0.20278 0.0
H634 H 0.50167 0.68991 0.19368 0.0
H635 H 0.55626 0.7177 0.17676 0.0
C636 C 0.59555 0.76527 0.10175 0.0
C637 C 0.62143 0.75629 0.09634 0.0
C638 C 0.59624 0.7761 0.11742 0.0
C639 C 0.62283 0.77812 0.12787 0.0
C640 C 0.64747 0.76739 0.12268 0.0
C641 C 0.64691 0.75677 0.10705 0.0
C642 C 0.62599 0.79278 0.14401 0.0
C643 C 0.59625 0.77671 0.15433 0.0
C644 C 0.65871 0.82185 0.14936 0.0
C645 C 0.69002 0.84195 0.13856 0.0
C646 C 0.7242 0.84638 0.14237 0.0
C647 C 0.75355 0.86499 0.1321 0.0
C648 C 0.74908 0.87941 0.11802 0.0
C649 C 0.71529 0.87541 0.1142 0.0
C650 C 0.68588 0.8569 0.12444 0.0
C651 C 0.63024 0.81427 0.22061 0.0
C652 C 0.64557 0.85063 0.22421 0.0
C653 C 0.62669 0.8031 0.20489 0.0
C654 C 0.63725 0.82797 0.19245 0.0
C655 C 0.65319 0.86441 0.19608 0.0
C656 C 0.65757 0.87566 0.21182 0.0
C657 C 0.63207 0.81609 0.17567 0.0
C658 C 0.66151 0.8327 0.16517 0.0
C659 C 0.59867 0.7883 0.17004 0.0
C660 C 0.56566 0.77148 0.1801 0.0
C661 C 0.55276 0.79239 0.18747 0.0
C662 C 0.52189 0.77642 0.19708 0.0
C663 C 0.50352 0.73952 0.19933 0.0
C664 C 0.51594 0.71849 0.19193 0.0
C665 C 0.54682 0.73433 0.18232 0.0
H666 H 0.47964 0.72721 0.20679 0.0
H667 H 0.77182 0.89376 0.11008 0.0
H668 H 0.79979 0.71984 0.55229 0.0
H669 H 0.82029 0.72505 0.52479 0.0
H670 H 0.78623 0.61272 0.52429 0.0
H671 H 0.76699 0.60768 0.55188 0.0
H672 H 0.84798 0.64689 0.51008 0.0
H673 H 0.73586 0.64888 0.50702 0.0
H674 H 0.69299 0.67047 0.51308 0.0
H675 H 0.76779 0.77343 0.49413 0.0
H676 H 0.81132 0.75256 0.48814 0.0
H677 H 0.82349 0.60837 0.42812 0.0
H678 H 0.81246 0.61332 0.45619 0.0
H679 H 0.87469 0.72781 0.45282 0.0
H680 H 0.88644 0.72311 0.42467 0.0
H681 H 0.80418 0.69858 0.46885 0.0
H682 H 0.91391 0.6918 0.46987 0.0
H683 H 0.95295 0.66622 0.46291 0.0
H684 H 0.87762 0.56728 0.48501 0.0
H685 H 0.83783 0.59209 0.49189 0.0
C686 C 0.79676 0.6963 0.5463 0.0
C687 C 0.78168 0.66333 0.55422 0.0
C688 C 0.80834 0.69927 0.53057 0.0
C689 C 0.80436 0.66917 0.52237 0.0
C690 C 0.78964 0.63634 0.53035 0.0
C691 C 0.77854 0.63346 0.54612 0.0
C692 C 0.8153 0.67158 0.50548 0.0
C693 C 0.83813 0.65796 0.50108 0.0
C694 C 0.80312 0.68668 0.49372 0.0
C695 C 0.77701 0.69929 0.49731 0.0
C696 C 0.74328 0.67621 0.50426 0.0
C697 C 0.71884 0.6883 0.50766 0.0
C698 C 0.72771 0.72333 0.50404 0.0
C699 C 0.76099 0.74632 0.49696 0.0
C700 C 0.78555 0.73437 0.49355 0.0
C701 C 0.83484 0.63463 0.43333 0.0
C702 C 0.85588 0.66537 0.42421 0.0
C703 C 0.82859 0.63738 0.44936 0.0
C704 C 0.84293 0.67091 0.45654 0.0
C705 C 0.86347 0.70172 0.44745 0.0
C706 C 0.87023 0.69897 0.43142 0.0
C707 C 0.83624 0.67343 0.47356 0.0
C708 C 0.81427 0.68793 0.47794 0.0
C709 C 0.8487 0.65862 0.48527 0.0
C710 C 0.87274 0.64373 0.48128 0.0
C711 C 0.90552 0.66449 0.47314 0.0
C712 C 0.92781 0.65015 0.46923 0.0
C713 C 0.91773 0.61512 0.47349 0.0
C714 C 0.88538 0.5944 0.48171 0.0
C715 C 0.86296 0.60861 0.48563 0.0
H716 H 0.93502 0.60406 0.47044 0.0
H717 H 0.70875 0.73264 0.50668 0.0
H718 H 0.14606 0.76144 0.88521 0.0
H719 H 0.16167 0.77859 0.85738 0.0
H720 H 0.05589 0.76676 0.84969 0.0
H721 H 0.04001 0.74935 0.87734 0.0
H722 H 0.07574 0.73986 0.82538 0.0
H723 H 0.12691 0.84788 0.85556 0.0
H724 H 0.16391 0.8888 0.87671 0.0
H725 H 0.25919 0.89275 0.85687 0.0
H726 H 0.22264 0.85141 0.83573 0.0
H727 H 0.1654 0.89126 0.76209 0.0
H728 H 0.14699 0.87134 0.78945 0.0
H729 H 0.15351 0.77616 0.78008 0.0
H730 H 0.17142 0.79557 0.75277 0.0
H731 H 0.18149 0.85776 0.81296 0.0
H732 H 0.08794 0.70732 0.80108 0.0
H733 H 0.04759 0.66844 0.78014 0.0
H734 H 0.03096 0.75362 0.76356 0.0
H735 H 0.0708 0.79283 0.78452 0.0
C736 C 0.12603 0.76215 0.87754 0.0
C737 C 0.0919 0.75429 0.88347 0.0
C738 C 0.13503 0.77209 0.86168 0.0
C739 C 0.11007 0.77436 0.85154 0.0
C740 C 0.07556 0.76523 0.85732 0.0
C741 C 0.06658 0.75539 0.87314 0.0
C742 C 0.12011 0.78734 0.83505 0.0
C743 C 0.09895 0.76556 0.82265 0.0
C744 C 0.14991 0.82122 0.83154 0.0
C745 C 0.17199 0.84627 0.84416 0.0
C746 C 0.15571 0.85727 0.85578 0.0
C747 C 0.1766 0.88056 0.86775 0.0
C748 C 0.21386 0.89329 0.86816 0.0
C749 C 0.23032 0.88282 0.85656 0.0
C750 C 0.20953 0.85948 0.84457 0.0
C751 C 0.16274 0.86602 0.76586 0.0
C752 C 0.16971 0.84491 0.75526 0.0
C753 C 0.15238 0.85476 0.78149 0.0
C754 C 0.1486 0.82215 0.78675 0.0
C755 C 0.15576 0.80117 0.77621 0.0
C756 C 0.16609 0.81237 0.76061 0.0
C757 C 0.13743 0.81004 0.80328 0.0
C758 C 0.15839 0.83199 0.81568 0.0
C759 C 0.10701 0.77659 0.80682 0.0
C760 C 0.08265 0.7531 0.79427 0.0
C761 C 0.07556 0.7177 0.793 0.0
C762 C 0.0528 0.69562 0.78112 0.0
C763 C 0.03682 0.70859 0.77049 0.0
C764 C 0.04347 0.74364 0.77176 0.0
C765 C 0.06618 0.76583 0.78362 0.0
H766 H 0.01923 0.69146 0.7613 0.0
H767 H 0.22999 0.91133 0.87744 0.0
H768 H 0.17355 0.89696 0.93248 0.0
H769 H 0.21068 0.94868 0.94892 0.0
H770 H 0.17942 0.88134 -0.00962 0.0
H771 H 0.14217 0.82921 0.97395 0.0
H772 H 0.16561 0.93799 -0.00725 0.0
H773 H 0.26519 0.92044 0.97801 0.0
H774 H 0.30507 0.91162 0.95941 0.0
H775 H 0.3352 0.01234 0.93735 0.0
H776 H 0.2951 0.02155 0.95568 0.0
H777 H 0.26333 0.07207 0.04689 0.0
H778 H 0.24596 0.01913 0.03089 0.0
H779 H 0.28132 0.08405 0.98867 0.0
H780 H 0.29946 0.13761 0.00474 0.0
H781 H 0.29533 0.02807 0.98693 0.0
H782 H 0.19438 0.0446 -0.0015 0.0
H783 H 0.15276 0.05513 0.01522 0.0
H784 H 0.12285 0.95832 0.04084 0.0
H785 H 0.1647 0.94746 0.0244 0.0
C786 C 0.17513 0.89298 0.94506 0.0
C787 C 0.15471 0.85898 0.95193 0.0
C788 C 0.19653 0.9226 0.95443 0.0
C789 C 0.19784 0.91888 0.97087 0.0
C790 C 0.17882 0.88475 0.9777 0.0
C791 C 0.15768 0.85497 0.96829 0.0
C792 C 0.21577 0.95101 0.98102 0.0
C793 C 0.19415 0.95728 -0.00828 0.0
C794 C 0.25264 0.97695 0.97914 0.0
C795 C 0.27689 0.97154 0.96814 0.0
C796 C 0.28008 0.94058 0.96911 0.0
C797 C 0.30278 0.93554 0.95863 0.0
C798 C 0.32259 0.96137 0.94718 0.0
C799 C 0.31982 -0.00766 0.94622 0.0
C800 C 0.29714 -0.0025 0.95666 0.0
C801 C 0.26802 0.07526 0.03423 0.0
C802 C 0.28233 0.10903 0.02706 0.0
C803 C 0.258 0.04492 0.02509 0.0
C804 C 0.26159 0.04753 0.00856 0.0
C805 C 0.27816 0.08141 0.00142 0.0
C806 C 0.28851 0.11199 0.01061 0.0
C807 C 0.24521 0.01468 -0.0012 0.0
C808 C 0.26691 0.00849 0.98809 0.0
C809 C 0.20816 -0.01101 0.00039 0.0
C810 C 0.18297 -0.00459 0.01033 0.0
C811 C 0.17915 0.02571 0.00778 0.0
C812 C 0.15548 0.03171 0.01719 0.0
C813 C 0.13524 0.00746 0.02911 0.0
C814 C 0.13859 0.97711 0.03162 0.0
C815 C 0.16226 0.971 0.02225 0.0
H816 H 0.1169 0.01214 0.03637 0.0
H817 H 0.34015 0.95741 0.93908 0.0
H818 H 0.17249 0.34486 0.31892 0.0
H819 H 0.21463 0.32537 0.30966 0.0
H820 H 0.22196 0.29216 0.35704 0.0
H821 H 0.17966 0.3114 0.36645 0.0
H822 H 0.28908 0.3235 0.33939 0.0
H823 H 0.16341 0.2324 0.33496 0.0
H824 H 0.1002 0.20865 0.32646 0.0
H825 H 0.13482 0.22921 0.27789 0.0
H826 H 0.19833 0.25353 0.28613 0.0
H827 H 0.32422 0.17951 0.32925 0.0
H828 H 0.30542 0.22312 0.336 0.0
H829 H 0.28651 0.23356 0.28662 0.0
H830 H 0.30439 0.18926 0.27981 0.0
H831 H 0.22943 0.21982 0.30336 0.0
H832 H 0.3551 0.30302 0.30774 0.0
H833 H 0.41795 0.32587 0.31651 0.0
H834 H 0.38445 0.32017 0.36497 0.0
H835 H 0.32129 0.2968 0.35651 0.0
C836 C 0.18364 0.33414 0.32745 0.0
C837 C 0.17233 0.32918 0.34338 0.0
C838 C 0.20772 0.32305 0.32213 0.0
C839 C 0.22101 0.30705 0.33265 0.0
C840 C 0.21193 0.30449 0.34876 0.0
C841 C 0.18761 0.31529 0.35408 0.0
C842 C 0.24064 0.28909 0.32659 0.0
C843 C 0.27618 0.30075 0.33155 0.0
C844 C 0.2238 0.25989 0.31615 0.0
C845 C 0.18564 0.2452 0.31117 0.0
C846 C 0.15757 0.23216 0.32248 0.0
C847 C 0.12169 0.21853 0.31771 0.0
C848 C 0.11352 0.21754 0.30165 0.0
C849 C 0.1412 0.23007 0.29032 0.0
C850 C 0.17714 0.24376 0.29504 0.0
C851 C 0.31675 0.19159 0.31979 0.0
C852 C 0.31543 0.18065 0.30401 0.0
C853 C 0.30619 0.21671 0.32366 0.0
C854 C 0.29469 0.23174 0.31181 0.0
C855 C 0.2952 0.22224 0.29596 0.0
C856 C 0.30543 0.19691 0.29209 0.0
C857 C 0.27824 0.25407 0.31611 0.0
C858 C 0.24293 0.24301 0.31092 0.0
C859 C 0.29539 0.28376 0.32633 0.0
C860 C 0.33338 0.29789 0.33148 0.0
C861 C 0.36107 0.30637 0.32027 0.0
C862 C 0.39678 0.31947 0.32519 0.0
C863 C 0.40518 0.3244 0.34129 0.0
C864 C 0.3779 0.31632 0.3525 0.0
C865 C 0.34215 0.30319 0.34765 0.0
H866 H 0.43284 0.33455 0.34507 0.0
H867 H 0.08573 0.207 0.29798 0.0
H868 H 0.8593 0.15413 0.68758 0.0
H869 H 0.9199 0.19952 0.68007 0.0
H870 H 0.87606 0.25771 0.65541 0.0
H871 H 0.81465 0.21061 0.66215 0.0
H872 H 0.92538 0.26046 0.63849 0.0
H873 H 0.92501 0.28791 0.69197 0.0
H874 H 0.91392 0.27819 0.7207 0.0
H875 H -0.01177 0.23764 0.72332 0.0
H876 H -0.00061 0.24658 0.69458 0.0
H877 H 0.13771 0.36565 0.65517 0.0
H878 H 0.07643 0.35202 0.66282 0.0
H879 H 0.0324 0.26772 0.6282 0.0
H880 H 0.09301 0.28242 0.62002 0.0
H881 H 0.02703 0.2992 0.67616 0.0
H882 H 0.95289 0.24636 0.61522 0.0
H883 H 0.96386 0.26422 0.58713 0.0
H884 H 0.03861 0.37175 0.60049 0.0
H885 H 0.02773 0.35472 0.62869 0.0
C886 C 0.86254 0.17672 0.68065 0.0
C887 C 0.83231 0.17897 0.67551 0.0
C888 C 0.89731 0.20294 0.67648 0.0
C889 C 0.90285 0.23276 0.66755 0.0
C890 C 0.8726 0.23515 0.66242 0.0
C891 C 0.83756 0.20828 0.66626 0.0
C892 C 0.94021 0.25981 0.66281 0.0
C893 C 0.94757 0.26931 0.64677 0.0
C894 C 0.96922 0.27304 0.67369 0.0
C895 C 0.96298 0.26789 0.69107 0.0
C896 C 0.93888 0.27677 0.69865 0.0
C897 C 0.93258 0.27139 0.71495 0.0
C898 C 0.95035 0.25729 0.72383 0.0
C899 C 0.97452 0.24861 0.71643 0.0
C900 C -0.01909 0.2539 0.70014 0.0
C901 C 0.11487 0.34465 0.64903 0.0
C902 C 0.12018 0.32518 0.63697 0.0
C903 C 0.07987 0.33686 0.65341 0.0
C904 C 0.04959 0.30919 0.64593 0.0
C905 C 0.05509 0.29 0.63381 0.0
C906 C 0.08991 0.29822 0.62923 0.0
C907 C 0.01225 0.29766 0.65168 0.0
C908 C 0.00486 0.29121 0.66794 0.0
C909 C -0.01675 0.28872 0.6411 0.0
C910 C -0.01044 0.29919 0.62411 0.0
C911 C 0.97146 0.27388 0.61219 0.0
C912 C -0.02227 0.28385 0.59624 0.0
C913 C 0.00195 0.31908 0.59203 0.0
C914 C 0.01992 0.34445 0.60377 0.0
C915 C 0.01375 0.33464 0.61974 0.0
H916 H 0.00678 0.32673 0.57967 0.0
H917 H 0.9454 0.25312 0.73644 0.0
H918 H 0.68545 0.89842 0.04601 0.0
H919 H 0.70114 0.94972 0.02888 0.0
H920 H 0.66615 0.88096 0.98811 0.0
H921 H 0.65019 0.82926 0.00523 0.0
H922 H 0.73625 0.93593 0.98559 0.0
H923 H 0.62065 0.92271 -0.00121 0.0
H924 H 0.57118 0.91565 0.0165 0.0
H925 H 0.64171 0.01607 0.0383 0.0
H926 H 0.69179 0.02352 0.02088 0.0
H927 H 0.78236 0.07314 0.93111 0.0
H928 H 0.74363 0.02009 0.94666 0.0
H929 H 0.77162 0.0834 0.98913 0.0
H930 H 0.81013 0.13708 0.97351 0.0
H931 H 0.70094 0.02978 -0.01008 0.0
H932 H 0.81707 0.04082 0.97952 0.0
H933 H 0.86873 0.04874 0.96311 0.0
H934 H 0.79958 0.95294 0.93774 0.0
H935 H 0.74736 0.94475 0.95385 0.0
C936 C 0.68033 0.89405 0.03343 0.0
C937 C 0.66679 0.85977 0.02696 0.0
C938 C 0.68916 0.92342 0.02366 0.0
C939 C 0.6848 0.91918 0.00722 0.0
C940 C 0.66965 0.88478 0.00078 0.0
C941 C 0.6604 0.85526 0.01059 0.0
C942 C 0.70001 0.95101 -0.00327 0.0
C943 C 0.72792 0.95605 0.98628 0.0
C944 C 0.69013 0.97791 -0.0019 0.0
C945 C 0.66008 0.97353 0.0086 0.0
C946 C 0.62572 0.94316 0.00745 0.0
C947 C 0.59754 0.93911 0.01742 0.0
C948 C 0.60332 0.96536 0.02854 0.0
C949 C 0.63728 -0.00425 0.02969 0.0
C950 C 0.66556 -8e-05 0.01975 0.0
C951 C 0.77987 0.07597 0.94373 0.0
C952 C 0.79975 0.10928 0.95111 0.0
C953 C 0.75772 0.04556 0.95261 0.0
C954 C 0.75537 0.04763 0.96911 0.0
C955 C 0.77319 0.08117 0.97642 0.0
C956 C 0.7952 0.11182 0.96748 0.0
C957 C 0.73694 0.01446 0.97873 0.0
C958 C 0.7088 0.00936 0.98909 0.0
C959 C 0.74687 -0.01243 0.97748 0.0
C960 C 0.77823 -0.0076 0.96777 0.0
C961 C 0.81281 0.02161 0.97035 0.0
C962 C 0.84221 0.02612 0.96112 0.0
C963 C 0.83742 0.00142 0.94936 0.0
C964 C 0.80324 0.9721 0.94683 0.0
C965 C 0.77373 0.9675 0.95601 0.0
H966 H 0.86022 0.00494 0.94223 0.0
H967 H 0.58147 0.96218 0.03624 0.0
H968 H 0.61561 0.78784 0.33129 0.0
H969 H 0.63055 0.74271 0.34034 0.0
H970 H 0.66937 0.73822 0.29359 0.0
H971 H 0.65448 0.78329 0.28438 0.0
H972 H 0.63276 0.6707 0.30917 0.0
H973 H 0.7279 0.79198 0.31866 0.0
H974 H 0.75227 0.85272 0.32931 0.0
H975 H 0.72116 0.81007 0.37633 0.0
H976 H 0.69611 0.749 0.36589 0.0
H977 H 0.77452 0.63066 0.31945 0.0
H978 H 0.73003 0.64909 0.31326 0.0
H979 H 0.71655 0.66197 0.36308 0.0
H980 H 0.76209 0.6448 0.36931 0.0
H981 H 0.73199 0.71978 0.34842 0.0
H982 H 0.64618 0.59829 0.33937 0.0
H983 H 0.62223 0.53772 0.32861 0.0
H984 H 0.63504 0.5789 0.28129 0.0
H985 H 0.65956 0.63981 0.29174 0.0
C986 C 0.6267 0.77682 0.32284 0.0
C987 C 0.6344 0.78958 0.30717 0.0
C988 C 0.63513 0.75098 0.32803 0.0
C989 C 0.65137 0.73748 0.31766 0.0
C990 C 0.65681 0.74833 0.30176 0.0
C991 C 0.64853 0.77428 0.29656 0.0
C992 C 0.66676 0.7156 0.32376 0.0
C993 C 0.6545 0.68126 0.31773 0.0
C994 C 0.69451 0.72927 0.33519 0.0
C995 C 0.70974 0.76595 0.34148 0.0
C996 C 0.72599 0.79556 0.33125 0.0
C997 C 0.73997 0.83004 0.33725 0.0
C998 C 0.73816 0.83525 0.35348 0.0
C999 C 0.72246 0.80599 0.36375 0.0
C1000 C 0.70838 0.77145 0.3578 0.0
C1001 C 0.76143 0.63655 0.32912 0.0
C1002 C 0.77213 0.63673 0.34486 0.0
C1003 C 0.73577 0.64688 0.32557 0.0
C1004 C 0.71981 0.65686 0.33771 0.0
C1005 C 0.7286 0.65454 0.35351 0.0
C1006 C 0.75463 0.64473 0.35706 0.0
C1007 C 0.69826 0.67451 0.33382 0.0
C1008 C 0.70963 0.70847 0.34017 0.0
C1009 C 0.6697 0.66032 0.32272 0.0
C1010 C 0.65495 0.6237 0.31635 0.0
C1011 C 0.64416 0.59449 0.32666 0.0
C1012 C 0.63042 0.56007 0.32062 0.0
C1013 C 0.62717 0.55447 0.30428 0.0
C1014 C 0.63758 0.58328 0.29395 0.0
C1015 C 0.65135 0.61776 0.29993 0.0
H1016 H 0.61653 0.52781 0.29962 0.0
H1017 H 0.749 0.86196 0.35811 0.0
H1018 H 0.1383 0.78613 0.64818 0.0
H1019 H 0.07731 0.74389 0.63926 0.0
H1020 H 0.03645 0.7371 0.68672 0.0
H1021 H 0.09723 0.77911 0.69579 0.0
H1022 H 0.00241 0.67159 0.67082 0.0
H1023 H 0.03354 0.79465 0.66235 0.0
H1024 H 0.07126 0.85558 0.65196 0.0
H1025 H 0.05587 0.81494 0.60455 0.0
H1026 H 0.01846 0.75366 0.61471 0.0
H1027 H 0.82133 0.63606 0.66051 0.0
H1028 H 0.88412 0.65496 0.66717 0.0
H1029 H 0.91223 0.66777 0.61751 0.0
H1030 H 0.84976 0.64984 0.61079 0.0
H1031 H 0.9547 0.7257 0.63259 0.0
H1032 H 0.91576 0.60262 0.64096 0.0
H1033 H 0.87771 0.54202 0.65161 0.0
H1034 H 0.90659 0.58153 0.69899 0.0
H1035 H 0.94444 0.64248 0.68865 0.0
C1036 C 0.11649 0.77513 0.65679 0.0
C1037 C 0.12253 0.7864 0.67265 0.0
C1038 C 0.08167 0.75101 0.65167 0.0
C1039 C 0.05237 0.73777 0.6623 0.0
C1040 C 0.05871 0.74705 0.67833 0.0
C1041 C 0.09346 0.77126 0.68346 0.0
C1042 C 0.01477 0.71758 0.65649 0.0
C1043 C -0.0082 0.68331 0.66249 0.0
C1044 C 0.00128 0.73276 0.64542 0.0
C1045 C 0.0236 0.76957 0.6393 0.0
C1046 C 0.03846 0.79869 0.64972 0.0
C1047 C 0.05973 0.83328 0.64387 0.0
C1048 C 0.06606 0.83912 0.62761 0.0
C1049 C 0.05102 0.81037 0.61715 0.0
C1050 C 0.02977 0.77571 0.62294 0.0
C1051 C 0.84072 0.64218 0.651 0.0
C1052 C 0.83065 0.64183 0.63513 0.0
C1053 C 0.87662 0.65282 0.65482 0.0
C1054 C 0.90294 0.66271 0.64283 0.0
C1055 C 0.89244 0.66039 0.62695 0.0
C1056 C 0.8567 0.65013 0.62314 0.0
C1057 C 0.94187 0.67939 0.64688 0.0
C1058 C 0.9652 0.71336 0.64065 0.0
C1059 C 0.95551 0.66383 0.65773 0.0
C1060 C 0.93274 0.6272 0.66402 0.0
C1061 C 0.91378 0.59845 0.65366 0.0
C1062 C 0.89229 0.56402 0.65964 0.0
C1063 C 0.88968 0.55794 0.67597 0.0
C1064 C 0.90862 0.58628 0.68635 0.0
C1065 C 0.93015 0.62078 0.68043 0.0
H1066 H 0.87302 0.53126 0.68057 0.0
H1067 H 0.08252 0.86592 0.6231 0.0
H1068 H 0.97393 0.2306 0.96805 0.0
H1069 H 0.02142 0.23272 0.985 0.0
H1070 H 0.04383 0.17203 0.95056 0.0
H1071 H -0.00411 0.16908 0.93369 0.0
H1072 H 0.04169 0.14674 0.97909 0.0
H1073 H 0.10002 0.26201 0.9548 0.0
H1074 H 0.10716 0.32016 0.94668 0.0
H1075 H 0.10644 0.3481 -0.00458 0.0
H1076 H 0.0988 0.28989 0.00383 0.0
H1077 H 0.23492 0.23701 0.01379 0.0
H1078 H 0.19014 0.23881 -0.00367 0.0
H1079 H 0.10487 0.16944 0.02831 0.0
H1080 H 0.14938 0.16701 0.04575 0.0
H1081 H 0.14092 0.26039 -0.00021 0.0
H1082 H 0.03269 0.11166 0.0066 0.0
H1083 H 0.02979 0.05422 0.01266 0.0
H1084 H 0.13763 0.09425 -0.00541 0.0
H1085 H 0.14098 0.15171 0.98822 0.0
C1086 C -0.01095 0.21782 0.96404 0.0
C1087 C -0.01887 0.19971 0.9495 0.0
C1088 C 0.01627 0.21916 0.97373 0.0
C1089 C 0.03639 0.2028 0.96898 0.0
C1090 C 0.0286 0.18478 0.95447 0.0
C1091 C 0.00126 0.18324 0.94482 0.0
C1092 C 0.06513 0.2039 0.97926 0.0
C1093 C 0.06336 0.1716 0.98361 0.0
C1094 C 0.09378 0.23637 0.98494 0.0
C1095 C 0.0985 0.27145 0.97993 0.0
C1096 C 0.10111 0.28045 0.96378 0.0
C1097 C 0.1053 0.31344 0.95913 0.0
C1098 C 0.10716 0.33777 0.97053 0.0
C1099 C 0.10495 0.3292 0.9866 0.0
C1100 C 0.10073 0.29623 -0.00868 0.0
C1101 C 0.20667 0.22226 0.01717 0.0
C1102 C 0.1957 0.20161 0.03111 0.0
C1103 C 0.18113 0.22344 0.0072 0.0
C1104 C 0.1442 0.20393 0.01094 0.0
C1105 C 0.13323 0.18427 0.0251 0.0
C1106 C 0.15873 0.183 0.03507 0.0
C1107 C 0.11708 0.20324 -0.00022 0.0
C1108 C 0.11916 0.23557 -0.00472 0.0
C1109 C 0.08924 0.17087 -0.00637 0.0
C1110 C 0.08719 0.13611 -0.00291 0.0
C1111 C 0.05571 0.10814 0.00385 0.0
C1112 C 0.05401 0.07559 0.00736 0.0
C1113 C 0.08357 0.07064 0.00407 0.0
C1114 C 0.11482 0.09816 -0.00281 0.0
C1115 C 0.11664 0.13073 -0.00635 0.0
H1116 H 0.08223 0.04546 0.00683 0.0
H1117 H 0.1104 0.3633 0.9669 0.0
H1118 H 0.73308 0.96216 0.32764 0.0
H1119 H 0.78948 0.01369 0.33588 0.0
H1120 H 0.81955 0.04222 0.28694 0.0
H1121 H 0.76371 -0.01049 0.27862 0.0
H1122 H 0.87762 0.05762 0.30313 0.0
H1123 H 0.77996 0.08181 0.30957 0.0
H1124 H 0.72021 0.07138 0.31864 0.0
H1125 H 0.75222 0.07477 0.36704 0.0
H1126 H 0.81203 0.08473 0.35826 0.0
H1127 H -0.00607 0.24442 0.31925 0.0
H1128 H 0.94478 0.18742 0.30992 0.0
H1129 H 0.9274 0.14557 0.35749 0.0
H1130 H -0.02323 0.20223 0.36691 0.0
H1131 H 0.86424 0.13785 0.3414 0.0
H1132 H 0.96536 0.11749 0.33311 0.0
H1133 H 0.02537 0.13269 0.32235 0.0
H1134 H -0.01347 0.12749 0.27504 0.0
H1135 H 0.92645 0.11294 0.28554 0.0
C1136 C 0.7519 0.9792 0.31863 0.0
C1137 C 0.74384 0.97211 0.30249 0.0
C1138 C 0.78408 0.00873 0.32335 0.0
C1139 C 0.80833 0.03244 0.31204 0.0
C1140 C 0.80116 0.02446 0.29589 0.0
C1141 C 0.76924 -0.00561 0.29114 0.0
C1142 C 0.84004 0.06635 0.31712 0.0
C1143 C 0.87462 0.07531 0.31136 0.0
C1144 C 0.83625 0.08953 0.32791 0.0
C1145 C 0.80035 0.08367 0.33325 0.0
C1146 C 0.77417 0.08008 0.32215 0.0
C1147 C 0.7403 0.07429 0.32724 0.0
C1148 C 0.73239 0.07232 0.3434 0.0
C1149 C 0.75837 0.07625 0.35452 0.0
C1150 C 0.79227 0.08199 0.3495 0.0
C1151 C -0.02022 0.22302 0.32771 0.0
C1152 C -0.01085 0.22784 0.34383 0.0
C1153 C 0.95186 0.19047 0.32235 0.0
C1154 C 0.93266 0.16237 0.33303 0.0
C1155 C 0.94204 0.167 0.34909 0.0
C1156 C 0.97027 0.19934 0.35443 0.0
C1157 C 0.90162 0.12869 0.3276 0.0
C1158 C 0.86715 0.11997 0.33323 0.0
C1159 C 0.90551 0.1063 0.31645 0.0
C1160 C 0.94147 0.11445 0.31013 0.0
C1161 C 0.96968 0.11988 0.32042 0.0
C1162 C 0.00371 0.12834 0.31437 0.0
C1163 C 0.00978 0.13112 0.29803 0.0
C1164 C -0.0182 0.12536 0.2877 0.0
C1165 C 0.94775 0.11699 0.2937 0.0
H1166 H 0.03613 0.13766 0.29336 0.0
H1167 H 0.70616 0.06784 0.34732 0.0
H1168 H 0.69798 0.71807 0.65233 0.0
H1169 H 0.70296 0.77451 0.66057 0.0
H1170 H 0.79139 0.83064 0.62769 0.0
H1171 H 0.78551 0.77389 0.61891 0.0
H1172 H 0.75133 0.82991 0.67437 0.0
H1173 H 0.79277 0.90557 0.61453 0.0
H1174 H 0.78494 0.89268 0.58591 0.0
H1175 H 0.68631 0.79552 0.59521 0.0
H1176 H 0.69333 0.80806 0.62384 0.0
H1177 H 0.7919 0.00731 0.69032 0.0
H1178 H 0.79634 0.95581 0.68093 0.0
H1179 H 0.70443 0.92651 0.6506 0.0
H1180 H 0.70101 0.97868 0.65936 0.0
H1181 H 0.74952 0.91532 0.63543 0.0
H1182 H 0.69908 0.88562 0.68791 0.0
H1183 H 0.69671 0.89356 0.71673 0.0
H1184 H 0.79546 0.8901 0.72249 0.0
H1185 H 0.79863 0.88257 0.69367 0.0
C1186 C 0.71851 0.74241 0.64683 0.0
C1187 C 0.74123 0.74149 0.6349 0.0
C1188 C 0.72141 0.77472 0.6516 0.0
C1189 C 0.74733 0.80689 0.64467 0.0
C1190 C 0.77068 0.80615 0.633 0.0
C1191 C 0.76739 0.77371 0.62802 0.0
C1192 C 0.74937 0.84095 0.64961 0.0
C1193 C 0.75106 0.84863 0.66584 0.0
C1194 C 0.74847 0.86522 0.63854 0.0
C1195 C 0.74384 0.85756 0.62133 0.0
C1196 C 0.76938 0.88151 0.61045 0.0
C1197 C 0.76508 0.87425 0.59423 0.0
C1198 C 0.73522 0.84323 0.58875 0.0
C1199 C 0.70951 0.81946 0.59947 0.0
C1200 C 0.71366 0.82661 0.6157 0.0
C1201 C 0.77279 -0.01005 0.68159 0.0
C1202 C 0.74603 -0.00303 0.67562 0.0
C1203 C 0.77524 0.96043 0.67627 0.0
C1204 C 0.75036 0.93687 0.66522 0.0
C1205 C 0.72403 0.94427 0.65909 0.0
C1206 C 0.72202 0.97409 0.66415 0.0
C1207 C 0.75101 0.90408 0.66022 0.0
C1208 C 0.75006 0.89674 0.64397 0.0
C1209 C 0.75114 0.87943 0.6713 0.0
C1210 C 0.7493 0.88395 0.68862 0.0
C1211 C 0.72042 0.88682 0.69531 0.0
C1212 C 0.71891 0.8912 0.71165 0.0
C1213 C 0.74598 0.89245 0.72143 0.0
C1214 C 0.77455 0.88921 0.7149 0.0
C1215 C 0.77621 0.88486 0.69857 0.0
H1216 H 0.74476 0.89583 0.73407 0.0
H1217 H 0.73196 0.83766 0.57619 0.0
H1218 H 0.80373 0.80753 0.04429 0.0
H1219 H 0.84837 0.80438 0.02701 0.0
H1220 H 0.7629 0.72792 -0.00249 0.0
H1221 H 0.71794 0.7305 0.01482 0.0
H1222 H 0.81484 0.70973 0.002 0.0
H1223 H 0.80837 0.8132 0.98617 0.0
H1224 H 0.80931 0.87044 -0.01006 0.0
H1225 H 0.91849 0.9179 0.00672 0.0
H1226 H 0.91802 0.86076 0.00326 0.0
H1227 H 0.95651 0.79699 0.93331 0.0
H1228 H 0.90775 0.79332 0.95004 0.0
H1229 H 0.93492 0.73972 0.98623 0.0
H1230 H -0.01688 0.74234 0.96937 0.0
H1231 H 0.9094 0.82164 0.97729 0.0
H1232 H 0.86013 0.68443 0.00748 0.0
H1233 H 0.85556 0.62628 0.00153 0.0
H1234 H 0.85104 0.64437 0.95179 0.0
H1235 H 0.85509 0.70239 0.95746 0.0
C1236 C 0.79434 0.78985 0.03419 0.0
C1237 C 0.75724 0.76946 0.03087 0.0
C1238 C 0.81993 0.78817 0.02431 0.0
C1239 C 0.80892 0.76625 0.01089 0.0
C1240 C 0.77192 0.74503 0.00781 0.0
C1241 C 0.74628 0.74666 0.01768 0.0
C1242 C 0.83608 0.76637 -0.0002 0.0
C1243 C 0.83557 0.73416 -0.00341 0.0
C1244 C 0.86261 0.79817 -0.00748 0.0
C1245 C 0.86303 0.8326 -0.0054 0.0
C1246 C 0.83248 0.83576 -0.00922 0.0
C1247 C 0.83295 0.8682 -0.00716 0.0
C1248 C 0.86391 0.89776 -0.0014 0.0
C1249 C 0.89451 0.89496 0.00228 0.0
C1250 C 0.89417 0.86256 0.00026 0.0
C1251 C 0.95201 0.78422 0.9448 0.0
C1252 C 0.97366 0.7699 0.95 0.0
C1253 C 0.92416 0.78222 0.95436 0.0
C1254 C 0.91748 0.76601 0.96933 0.0
C1255 C 0.93913 0.75177 0.9746 0.0
C1256 C 0.96677 0.75341 0.96497 0.0
C1257 C 0.88854 0.76502 0.97959 0.0
C1258 C 0.88875 0.79714 0.98268 0.0
C1259 C 0.86125 0.73299 0.98644 0.0
C1260 C 0.85828 0.69791 0.9829 0.0
C1261 C 0.85801 0.67592 -0.00472 0.0
C1262 C 0.85554 0.643 -0.00804 0.0
C1263 C 0.85313 0.63169 0.97629 0.0
C1264 C 0.85305 0.65322 0.96392 0.0
C1265 C 0.85548 0.68615 0.96718 0.0
H1266 H 0.85126 0.60621 0.97374 0.0
H1267 H 0.86423 0.92285 0.00018 0.0
H1268 H 0.97282 0.77032 0.36328 0.0
H1269 H 0.02191 0.82673 0.35341 0.0
H1270 H -0.00171 0.78701 0.30557 0.0
H1271 H 0.95009 0.72998 0.31545 0.0
H1272 H 0.06642 0.81669 0.30963 0.0
H1273 H -0.02093 0.85303 0.32024 0.0
H1274 H 0.93361 0.86023 0.33568 0.0
H1275 H 0.01411 0.92278 0.37003 0.0
H1276 H 0.05997 0.91555 0.35491 0.0
H1277 H 0.18982 -0.01336 0.27676 0.0
H1278 H 0.13142 0.93536 0.28395 0.0
H1279 H 0.16083 0.9519 0.33325 0.0
H1280 H 0.2194 0.00281 0.32619 0.0
H1281 H 0.08707 0.93565 0.32634 0.0
H1282 H 0.17225 0.8932 0.3158 0.0
H1283 H 0.21668 0.88653 0.29932 0.0
H1284 H 0.137 0.83585 0.26309 0.0
H1285 H 0.09222 0.84272 0.27929 0.0
C1286 C -0.02216 0.77373 0.35064 0.0
C1287 C 0.95764 0.74568 0.34015 0.0
C1288 C 0.00581 0.8061 0.34499 0.0
C1289 C 0.01356 0.81139 0.3287 0.0
C1290 C -0.00713 0.78361 0.31818 0.0
C1291 C 0.9653 0.75103 0.32385 0.0
C1292 C 0.04468 0.84498 0.32276 0.0
C1293 C 0.07042 0.84265 0.31305 0.0
C1294 C 0.05038 0.879 0.32736 0.0
C1295 C 0.0229 0.88349 0.3365 0.0
C1296 C -0.01297 0.8681 0.33115 0.0
C1297 C 0.9612 0.87223 0.33983 0.0
C1298 C 0.97095 0.89189 0.35384 0.0
C1299 C 0.00659 0.90754 0.35918 0.0
C1300 C 0.03253 0.90347 0.35054 0.0
C1301 C 0.18369 0.9796 0.28914 0.0
C1302 C 0.2093 -0.00142 0.30091 0.0
C1303 C 0.15037 0.95033 0.29321 0.0
C1304 C 0.14201 0.93989 0.30911 0.0
C1305 C 0.16685 0.95966 0.32092 0.0
C1306 C 0.20034 -0.01143 0.31685 0.0
C1307 C 0.10843 0.90699 0.3134 0.0
C1308 C 0.08248 0.90955 0.3228 0.0
C1309 C 0.10221 0.87319 0.30835 0.0
C1310 C 0.12904 0.86886 0.29867 0.0
C1311 C 0.16431 0.88093 0.30426 0.0
C1312 C 0.18953 0.87705 0.29498 0.0
C1313 C 0.1797 0.86088 0.28014 0.0
C1314 C 0.14459 0.84844 0.27457 0.0
C1315 C 0.11928 0.8523 0.2838 0.0
H1316 H 0.19926 0.85789 0.27298 0.0
H1317 H 0.95091 0.89505 0.36055 0.0
H1318 H 0.24865 -0.01027 0.659 0.0
H1319 H 0.24442 0.04201 0.65129 0.0
H1320 H 0.15545 0.01189 0.68394 0.0
H1321 H 0.16049 0.95993 0.69219 0.0
H1322 H 0.19672 0.05214 0.63766 0.0
H1323 H 0.15557 0.08623 0.69779 0.0
H1324 H 0.16217 0.07894 0.72637 0.0
H1325 H 0.25955 0.07454 0.71719 0.0
H1326 H 0.25376 0.08225 0.6886 0.0
H1327 H 0.16164 0.19413 0.62304 0.0
H1328 H 0.15523 0.13738 0.63217 0.0
H1329 H 0.24759 0.19377 0.66259 0.0
H1330 H 0.25301 0.25037 0.65407 0.0
H1331 H 0.20087 0.13864 0.67748 0.0
H1332 H 0.25215 0.15885 0.62512 0.0
H1333 H 0.25527 0.17075 0.59642 0.0
H1334 H 0.1547 0.07425 0.58984 0.0
H1335 H 0.15077 0.06201 0.61855 0.0
C1336 C 0.2281 -0.0059 0.66454 0.0
C1337 C 0.20501 0.97073 0.67628 0.0
C1338 C 0.22564 0.02402 0.66008 0.0
C1339 C 0.19985 0.03116 0.66712 0.0
C1340 C 0.17604 0.00735 0.67855 0.0
C1341 C 0.17885 0.97759 0.68321 0.0
C1342 C 0.19858 0.06388 0.66255 0.0
C1343 C 0.19745 0.07095 0.64639 0.0
C1344 C 0.20007 0.08878 0.67388 0.0
C1345 C 0.20395 0.08437 0.69105 0.0
C1346 C 0.17842 0.08378 0.70189 0.0
C1347 C 0.18202 0.07957 0.71808 0.0
C1348 C 0.21118 0.07613 0.72358 0.0
C1349 C 0.23689 0.07705 0.71291 0.0
C1350 C 0.23344 0.08129 0.69671 0.0
C1351 C 0.18047 0.19437 0.63172 0.0
C1352 C 0.20796 0.2267 0.63777 0.0
C1353 C 0.17686 0.16193 0.6369 0.0
C1354 C 0.2013 0.16124 0.64788 0.0
C1355 C 0.22835 0.19353 0.65413 0.0
C1356 C 0.23151 0.2259 0.6492 0.0
C1357 C 0.1995 0.12711 0.65258 0.0
C1358 C 0.19981 0.11968 0.66876 0.0
C1359 C 0.19863 0.10249 0.64125 0.0
C1360 C 0.20098 0.10973 0.62399 0.0
C1361 C 0.23058 0.1403 0.61756 0.0
C1362 C 0.23252 0.14709 0.60129 0.0
C1363 C 0.20515 0.12333 0.59132 0.0
C1364 C 0.17584 0.09267 0.59758 0.0
C1365 C 0.17376 0.08578 0.61385 0.0
H1366 H 0.20669 0.12862 0.57873 0.0
H1367 H 0.2139 0.07286 0.73612 0.0
loop_
_geom_bond_atom_site_label_1
_geom_bond_atom_site_label_2
_geom_bond_distance
_geom_bond_site_symmetry_2
_ccdc_geom_bond_type
C0 O1 1.306 . S
C0 O3 1.160 . S
O1 C0 1.306 . S
O1 Cd2 2.228 . S
Cd2 O1 2.228 . S
Cd2 O6 2.273 . S
Cd2 O10 2.277 . S
O3 C0 1.160 . S
O3 Cd4 2.203 . S
Cd4 O3 2.203 . S
Cd4 O6 2.411 . S
Cd4 O7 2.333 . S
Cd4 O8 2.352 . S
Cd4 O12 2.277 . S
Cd4 O13 2.356 . S
C5 O10 1.209 . S
C5 O12 1.226 . S
O6 Cd2 2.273 . S
O6 Cd4 2.411 . S
O6 C9 1.320 . S
O7 Cd4 2.333 . S
O7 C9 1.214 . S
O8 Cd4 2.352 . S
O8 C11 1.258 . S
C9 O6 1.320 . S
C9 O7 1.214 . S
O10 Cd2 2.277 . S
O10 C5 1.209 . S
C11 O8 1.258 . S
C11 O13 1.282 . S
O12 Cd4 2.277 . S
O12 C5 1.226 . S
O13 Cd4 2.356 . S
O13 C11 1.282 . S
C14 O15 1.306 . S
C14 O17 1.160 . S
O15 C14 1.306 . S
O15 Cd16 2.228 . S
Cd16 O15 2.228 . S
Cd16 O20 2.273 . S
Cd16 O24 2.277 . S
O17 C14 1.160 . S
O17 Cd18 2.203 . S
Cd18 O17 2.203 . S
Cd18 O20 2.411 . S
Cd18 O21 2.333 . S
Cd18 O22 2.352 . S
Cd18 O26 2.277 . S
Cd18 O27 2.356 . S
C19 O24 1.209 . S
C19 O26 1.226 . S
O20 Cd16 2.273 . S
O20 Cd18 2.411 . S
O20 C23 1.320 . S
O21 Cd18 2.333 . S
O21 C23 1.214 . S
O22 Cd18 2.352 . S
O22 C25 1.258 . S
C23 O20 1.320 . S
C23 O21 1.214 . S
O24 Cd16 2.277 . S
O24 C19 1.209 . S
C25 O22 1.258 . S
C25 O27 1.282 . S
O26 Cd18 2.277 . S
O26 C19 1.226 . S
O27 Cd18 2.356 . S
O27 C25 1.282 . S
C28 O29 1.306 . S
C28 O31 1.160 . S
O29 C28 1.306 . S
O29 Cd30 2.228 . S
Cd30 O29 2.228 . S
Cd30 O34 2.273 . S
Cd30 O38 2.277 . S
O31 C28 1.160 . S
O31 Cd32 2.203 . S
Cd32 O31 2.203 . S
Cd32 O34 2.411 . S
Cd32 O35 2.333 . S
Cd32 O36 2.352 . S
Cd32 O40 2.277 . S
Cd32 O41 2.356 . S
C33 O38 1.209 . S
C33 O40 1.226 . S
O34 Cd30 2.273 . S
O34 Cd32 2.411 . S
O34 C37 1.320 . S
O35 Cd32 2.333 . S
O35 C37 1.214 . S
O36 Cd32 2.352 . S
O36 C39 1.258 . S
C37 O34 1.320 . S
C37 O35 1.214 . S
O38 Cd30 2.277 . S
O38 C33 1.209 . S
C39 O36 1.258 . S
C39 O41 1.282 . S
O40 Cd32 2.277 . S
O40 C33 1.226 . S
O41 Cd32 2.356 . S
O41 C39 1.282 . S
C42 O43 1.306 . S
C42 O45 1.160 . S
O43 C42 1.306 . S
O43 Cd44 2.228 . S
Cd44 O43 2.228 . S
Cd44 O48 2.273 . S
Cd44 O52 2.277 . S
O45 C42 1.160 . S
O45 Cd46 2.203 . S
Cd46 O45 2.203 . S
Cd46 O48 2.411 . S
Cd46 O49 2.333 . S
Cd46 O50 2.352 . S
Cd46 O54 2.277 . S
Cd46 O55 2.356 . S
C47 O52 1.209 . S
C47 O54 1.226 . S
O48 Cd44 2.273 . S
O48 Cd46 2.411 . S
O48 C51 1.320 . S
O49 Cd46 2.333 . S
O49 C51 1.214 . S
O50 Cd46 2.352 . S
O50 C53 1.258 . S
C51 O48 1.320 . S
C51 O49 1.214 . S
O52 Cd44 2.277 . S
O52 C47 1.209 . S
C53 O50 1.258 . S
C53 O55 1.282 . S
O54 Cd46 2.277 . S
O54 C47 1.226 . S
O55 Cd46 2.356 . S
O55 C53 1.282 . S
C56 O57 1.306 . S
C56 O59 1.160 . S
O57 C56 1.306 . S
O57 Cd58 2.228 . S
Cd58 O57 2.228 . S
Cd58 O62 2.273 . S
Cd58 O66 2.277 . S
O59 C56 1.160 . S
O59 Cd60 2.203 . S
Cd60 O59 2.203 . S
Cd60 O62 2.411 . S
Cd60 O63 2.333 . S
Cd60 O64 2.352 . S
Cd60 O68 2.277 . S
Cd60 O69 2.356 . S
C61 O66 1.209 . S
C61 O68 1.226 . S
O62 Cd58 2.273 . S
O62 Cd60 2.411 . S
O62 C65 1.320 . S
O63 Cd60 2.333 . S
O63 C65 1.214 . S
O64 Cd60 2.352 . S
O64 C67 1.258 . S
C65 O62 1.320 . S
C65 O63 1.214 . S
O66 Cd58 2.277 . S
O66 C61 1.209 . S
C67 O64 1.258 . S
C67 O69 1.282 . S
O68 Cd60 2.277 . S
O68 C61 1.226 . S
O69 Cd60 2.356 . S
O69 C67 1.282 . S
C70 O71 1.306 . S
C70 O73 1.160 . S
O71 C70 1.306 . S
O71 Cd72 2.228 . S
Cd72 O71 2.228 . S
Cd72 O76 2.273 . S
Cd72 O80 2.277 . S
O73 C70 1.160 . S
O73 Cd74 2.203 . S
Cd74 O73 2.203 . S
Cd74 O76 2.411 . S
Cd74 O77 2.333 . S
Cd74 O78 2.352 . S
Cd74 O82 2.277 . S
Cd74 O83 2.356 . S
C75 O80 1.209 . S
C75 O82 1.226 . S
O76 Cd72 2.273 . S
O76 Cd74 2.411 . S
O76 C79 1.320 . S
O77 Cd74 2.333 . S
O77 C79 1.214 . S
O78 Cd74 2.352 . S
O78 C81 1.258 . S
C79 O76 1.320 . S
C79 O77 1.214 . S
O80 Cd72 2.277 . S
O80 C75 1.209 . S
C81 O78 1.258 . S
C81 O83 1.282 . S
O82 Cd74 2.277 . S
O82 C75 1.226 . S
O83 Cd74 2.356 . S
O83 C81 1.282 . S
C84 O85 1.306 . S
C84 O87 1.160 . S
O85 C84 1.306 . S
O85 Cd86 2.228 . S
Cd86 O85 2.228 . S
Cd86 O90 2.273 . S
Cd86 O94 2.277 . S
O87 C84 1.160 . S
O87 Cd88 2.203 . S
Cd88 O87 2.203 . S
Cd88 O90 2.411 . S
Cd88 O91 2.333 . S
Cd88 O92 2.352 . S
Cd88 O96 2.277 . S
Cd88 O97 2.356 . S
C89 O94 1.209 . S
C89 O96 1.226 . S
O90 Cd86 2.273 . S
O90 Cd88 2.411 . S
O90 C93 1.320 . S
O91 Cd88 2.333 . S
O91 C93 1.214 . S
O92 Cd88 2.352 . S
O92 C95 1.258 . S
C93 O90 1.320 . S
C93 O91 1.214 . S
O94 Cd86 2.277 . S
O94 C89 1.209 . S
C95 O92 1.258 . S
C95 O97 1.282 . S
O96 Cd88 2.277 . S
O96 C89 1.226 . S
O97 Cd88 2.356 . S
O97 C95 1.282 . S
C98 O99 1.306 . S
C98 O101 1.160 . S
O99 C98 1.306 . S
O99 Cd100 2.228 . S
Cd100 O99 2.228 . S
Cd100 O104 2.273 . S
Cd100 O108 2.277 . S
O101 C98 1.160 . S
O101 Cd102 2.203 . S
Cd102 O101 2.203 . S
Cd102 O104 2.411 . S
Cd102 O105 2.333 . S
Cd102 O106 2.352 . S
Cd102 O110 2.277 . S
Cd102 O111 2.356 . S
C103 O108 1.209 . S
C103 O110 1.226 . S
O104 Cd100 2.273 . S
O104 Cd102 2.411 . S
O104 C107 1.320 . S
O105 Cd102 2.333 . S
O105 C107 1.214 . S
O106 Cd102 2.352 . S
O106 C109 1.258 . S
C107 O104 1.320 . S
C107 O105 1.214 . S
O108 Cd100 2.277 . S
O108 C103 1.209 . S
C109 O106 1.258 . S
C109 O111 1.282 . S
O110 Cd102 2.277 . S
O110 C103 1.226 . S
O111 Cd102 2.356 . S
O111 C109 1.282 . S
C112 O113 1.306 . S
C112 O115 1.160 . S
O113 C112 1.306 . S
O113 Cd114 2.228 . S
Cd114 O113 2.228 . S
Cd114 O118 2.273 . S
Cd114 O122 2.277 . S
O115 C112 1.160 . S
O115 Cd116 2.203 . S
Cd116 O115 2.203 . S
Cd116 O118 2.411 . S
Cd116 O119 2.333 . S
Cd116 O120 2.352 . S
Cd116 O124 2.277 . S
Cd116 O125 2.356 . S
C117 O122 1.209 . S
C117 O124 1.226 . S
O118 Cd114 2.273 . S
O118 Cd116 2.411 . S
O118 C121 1.320 . S
O119 Cd116 2.333 . S
O119 C121 1.214 . S
O120 Cd116 2.352 . S
O120 C123 1.258 . S
C121 O118 1.320 . S
C121 O119 1.214 . S
O122 Cd114 2.277 . S
O122 C117 1.209 . S
C123 O120 1.258 . S
C123 O125 1.282 . S
O124 Cd116 2.277 . S
O124 C117 1.226 . S
O125 Cd116 2.356 . S
O125 C123 1.282 . S
C126 O127 1.306 . S
C126 O129 1.160 . S
O127 C126 1.306 . S
O127 Cd128 2.228 . S
Cd128 O127 2.228 . S
Cd128 O132 2.273 . S
Cd128 O136 2.277 . S
O129 C126 1.160 . S
O129 Cd130 2.203 . S
Cd130 O129 2.203 . S
Cd130 O132 2.411 . S
Cd130 O133 2.333 . S
Cd130 O134 2.352 . S
Cd130 O138 2.277 . S
Cd130 O139 2.356 . S
C131 O136 1.209 . S
C131 O138 1.226 . S
O132 Cd128 2.273 . S
O132 Cd130 2.411 . S
O132 C135 1.320 . S
O133 Cd130 2.333 . S
O133 C135 1.214 . S
O134 Cd130 2.352 . S
O134 C137 1.258 . S
C135 O132 1.320 . S
C135 O133 1.214 . S
O136 Cd128 2.277 . S
O136 C131 1.209 . S
C137 O134 1.258 . S
C137 O139 1.282 . S
O138 Cd130 2.277 . S
O138 C131 1.226 . S
O139 Cd130 2.356 . S
O139 C137 1.282 . S
C140 O141 1.306 . S
C140 O143 1.160 . S
O141 C140 1.306 . S
O141 Cd142 2.228 . S
Cd142 O141 2.228 . S
Cd142 O146 2.273 . S
Cd142 O150 2.277 . S
O143 C140 1.160 . S
O143 Cd144 2.203 . S
Cd144 O143 2.203 . S
Cd144 O146 2.411 . S
Cd144 O147 2.333 . S
Cd144 O148 2.352 . S
Cd144 O152 2.277 . S
Cd144 O153 2.356 . S
C145 O150 1.209 . S
C145 O152 1.226 . S
O146 Cd142 2.273 . S
O146 Cd144 2.411 . S
O146 C149 1.320 . S
O147 Cd144 2.333 . S
O147 C149 1.214 . S
O148 Cd144 2.352 . S
O148 C151 1.258 . S
C149 O146 1.320 . S
C149 O147 1.214 . S
O150 Cd142 2.277 . S
O150 C145 1.209 . S
C151 O148 1.258 . S
C151 O153 1.282 . S
O152 Cd144 2.277 . S
O152 C145 1.226 . S
O153 Cd144 2.356 . S
O153 C151 1.282 . S
C154 O155 1.306 . S
C154 O157 1.160 . S
O155 C154 1.306 . S
O155 Cd156 2.228 . S
Cd156 O155 2.228 . S
Cd156 O160 2.273 . S
Cd156 O164 2.277 . S
O157 C154 1.160 . S
O157 Cd158 2.203 . S
Cd158 O157 2.203 . S
Cd158 O160 2.411 . S
Cd158 O161 2.333 . S
Cd158 O162 2.352 . S
Cd158 O166 2.277 . S
Cd158 O167 2.356 . S
C159 O164 1.209 . S
C159 O166 1.226 . S
O160 Cd156 2.273 . S
O160 Cd158 2.411 . S
O160 C163 1.320 . S
O161 Cd158 2.333 . S
O161 C163 1.214 . S
O162 Cd158 2.352 . S
O162 C165 1.258 . S
C163 O160 1.320 . S
C163 O161 1.214 . S
O164 Cd156 2.277 . S
O164 C159 1.209 . S
C165 O162 1.258 . S
C165 O167 1.282 . S
O166 Cd158 2.277 . S
O166 C159 1.226 . S
O167 Cd158 2.356 . S
O167 C165 1.282 . S
H168 C186 0.951 . S
H169 C188 0.951 . S
H170 C190 0.950 . S
H171 C191 0.950 . S
H172 C193 0.950 . S
H173 C196 0.950 . S
H174 C197 0.950 . S
H175 C199 0.950 . S
H176 C200 0.950 . S
H177 C201 0.951 . S
H178 C203 0.951 . S
H179 C205 0.950 . S
H180 C206 0.950 . S
H181 C208 0.950 . S
H182 C211 0.950 . S
H183 C212 0.950 . S
H184 C214 0.950 . S
H185 C215 0.950 . S
C186 H168 0.951 . S
C186 C187 1.366 . S
C186 C188 1.388 . S
C187 C186 1.366 . S
C187 C191 1.385 . S
C188 H169 0.951 . S
C188 C186 1.388 . S
C188 C189 1.366 . S
C189 C188 1.366 . S
C189 C190 1.414 . S
C189 C192 1.499 . S
C190 H170 0.950 . S
C190 C189 1.414 . S
C190 C191 1.374 . S
C191 H171 0.950 . S
C191 C187 1.385 . S
C191 C190 1.374 . S
C192 C189 1.499 . S
C192 C193 1.373 . S
C192 C194 1.389 . S
C193 H172 0.950 . S
C193 C192 1.373 . S
C193 C209 1.377 . S
C194 C192 1.389 . S
C194 C195 1.524 . S
C194 C208 1.377 . S
C195 C194 1.524 . S
C195 C196 1.397 . S
C195 C200 1.363 . S
C196 H173 0.950 . S
C196 C195 1.397 . S
C196 C197 1.334 1_554 S
C197 H174 0.950 . S
C197 C196 1.334 1_556 S
C197 C198 1.287 . S
C198 C197 1.287 . S
C198 C199 1.524 . S
C198 H217 0.913 . S
C199 H175 0.950 . S
C199 C198 1.524 . S
C199 C200 1.415 1_556 S
C200 H176 0.950 . S
C200 C195 1.363 . S
C200 C199 1.415 1_554 S
C201 H177 0.951 . S
C201 C202 1.366 . S
C201 C203 1.388 . S
C202 C201 1.366 . S
C202 C206 1.385 . S
C203 H178 0.951 . S
C203 C201 1.388 . S
C203 C204 1.366 . S
C204 C203 1.366 . S
C204 C205 1.414 . S
C204 C207 1.499 . S
C205 H179 0.950 . S
C205 C204 1.414 . S
C205 C206 1.374 . S
C206 H180 0.950 . S
C206 C202 1.385 . S
C206 C205 1.374 . S
C207 C204 1.499 . S
C207 C208 1.373 . S
C207 C209 1.389 . S
C208 H181 0.950 . S
C208 C194 1.377 . S
C208 C207 1.373 . S
C209 C193 1.377 . S
C209 C207 1.389 . S
C209 C210 1.524 . S
C210 C209 1.524 . S
C210 C211 1.397 . S
C210 C215 1.363 . S
C211 H182 0.950 . S
C211 C210 1.397 . S
C211 C212 1.334 . S
C212 H183 0.950 . S
C212 C211 1.334 . S
C212 C213 1.287 . S
C213 C212 1.287 . S
C213 C214 1.524 . S
C213 H216 0.999 . S
C214 H184 0.950 . S
C214 C213 1.524 . S
C214 C215 1.415 . S
C215 H185 0.950 . S
C215 C210 1.363 . S
C215 C214 1.415 . S
H216 C213 0.999 . S
H217 C198 0.913 . S
H218 C236 0.951 . S
H219 C238 0.951 1_655 S
H220 C240 0.950 . S
H221 C241 0.950 . S
H222 C243 0.950 . S
H223 C246 0.950 . S
H224 C247 0.950 . S
H225 C249 0.950 . S
H226 C250 0.950 . S
H227 C251 0.951 . S
H228 C253 0.951 1_455 S
H229 C255 0.950 . S
H230 C256 0.950 . S
H231 C258 0.950 . S
H232 C261 0.950 . S
H233 C262 0.950 . S
H234 C264 0.950 . S
H235 C265 0.950 . S
C236 H218 0.951 . S
C236 C237 1.366 . S
C236 C238 1.388 . S
C237 C236 1.366 . S
C237 C241 1.385 . S
C238 H219 0.951 1_455 S
C238 C236 1.388 . S
C238 C239 1.366 . S
C239 C238 1.366 . S
C239 C240 1.414 . S
C239 C242 1.499 . S
C240 H220 0.950 . S
C240 C239 1.414 . S
C240 C241 1.374 . S
C241 H221 0.950 . S
C241 C237 1.385 . S
C241 C240 1.374 . S
C242 C239 1.499 . S
C242 C243 1.373 . S
C242 C244 1.389 1_455 S
C243 H222 0.950 . S
C243 C242 1.373 . S
C243 C259 1.377 . S
C244 C242 1.389 1_655 S
C244 C245 1.524 . S
C244 C258 1.377 . S
C245 C244 1.524 . S
C245 C246 1.397 1_655 S
C245 C250 1.363 . S
C246 H223 0.950 . S
C246 C245 1.397 1_455 S
C246 C247 1.334 . S
C247 H224 0.950 . S
C247 C246 1.334 . S
C247 C248 1.287 1_455 S
C248 C247 1.287 1_655 S
C248 C249 1.524 . S
C248 H267 0.913 . S
C249 H225 0.950 . S
C249 C248 1.524 . S
C249 C250 1.415 . S
C250 H226 0.950 . S
C250 C245 1.363 . S
C250 C249 1.415 . S
C251 H227 0.951 . S
C251 C252 1.366 . S
C251 C253 1.388 . S
C252 C251 1.366 . S
C252 C256 1.385 . S
C253 H228 0.951 1_655 S
C253 C251 1.388 . S
C253 C254 1.366 . S
C254 C253 1.366 . S
C254 C255 1.414 . S
C254 C257 1.499 . S
C255 H229 0.950 . S
C255 C254 1.414 . S
C255 C256 1.374 . S
C256 H230 0.950 . S
C256 C252 1.385 . S
C256 C255 1.374 . S
C257 C254 1.499 . S
C257 C258 1.373 . S
C257 C259 1.389 1_655 S
C258 H231 0.950 . S
C258 C244 1.377 . S
C258 C257 1.373 . S
C259 C243 1.377 . S
C259 C257 1.389 1_455 S
C259 C260 1.524 . S
C260 C259 1.524 . S
C260 C261 1.397 1_455 S
C260 C265 1.363 . S
C261 H232 0.950 . S
C261 C260 1.397 1_655 S
C261 C262 1.334 . S
C262 H233 0.950 . S
C262 C261 1.334 . S
C262 C263 1.287 1_655 S
C263 C262 1.287 1_455 S
C263 C264 1.524 . S
C263 H266 0.999 . S
C264 H234 0.950 . S
C264 C263 1.524 . S
C264 C265 1.415 . S
C265 H235 0.950 . S
C265 C260 1.363 . S
C265 C264 1.415 . S
H266 C263 0.999 . S
H267 C248 0.913 . S
H268 C286 0.951 . S
H269 C288 0.951 . S
H270 C290 0.950 1_545 S
H271 C291 0.950 . S
H272 C293 0.950 . S
H273 C296 0.950 . S
H274 C297 0.950 . S
H275 C299 0.950 . S
H276 C300 0.950 . S
H277 C301 0.951 . S
H278 C303 0.951 . S
H279 C305 0.950 1_565 S
H280 C306 0.950 . S
H281 C308 0.950 . S
H282 C311 0.950 . S
H283 C312 0.950 . S
H284 C314 0.950 . S
H285 C315 0.950 . S
C286 H268 0.951 . S
C286 C287 1.366 . S
C286 C288 1.388 . S
C287 C286 1.366 . S
C287 C291 1.385 . S
C288 H269 0.951 . S
C288 C286 1.388 . S
C288 C289 1.366 . S
C289 C288 1.366 . S
C289 C290 1.414 . S
C289 C292 1.499 . S
C290 H270 0.950 1_565 S
C290 C289 1.414 . S
C290 C291 1.374 . S
C291 H271 0.950 . S
C291 C287 1.385 . S
C291 C290 1.374 . S
C292 C289 1.499 . S
C292 C293 1.373 1_565 S
C292 C294 1.389 . S
C293 H272 0.950 . S
C293 C292 1.373 1_545 S
C293 C309 1.377 . S
C294 C292 1.389 . S
C294 C295 1.524 . S
C294 C308 1.377 . S
C295 C294 1.524 . S
C295 C296 1.397 . S
C295 C300 1.363 . S
C296 H273 0.950 . S
C296 C295 1.397 . S
C296 C297 1.334 . S
C297 H274 0.950 . S
C297 C296 1.334 . S
C297 C298 1.287 . S
C298 C297 1.287 . S
C298 C299 1.524 . S
C298 H317 0.913 . S
C299 H275 0.950 . S
C299 C298 1.524 . S
C299 C300 1.415 . S
C300 H276 0.950 . S
C300 C295 1.363 . S
C300 C299 1.415 . S
C301 H277 0.951 . S
C301 C302 1.366 . S
C301 C303 1.388 . S
C302 C301 1.366 . S
C302 C306 1.385 . S
C303 H278 0.951 . S
C303 C301 1.388 . S
C303 C304 1.366 . S
C304 C303 1.366 . S
C304 C305 1.414 . S
C304 C307 1.499 . S
C305 H279 0.950 1_545 S
C305 C304 1.414 . S
C305 C306 1.374 . S
C306 H280 0.950 . S
C306 C302 1.385 . S
C306 C305 1.374 . S
C307 C304 1.499 . S
C307 C308 1.373 1_545 S
C307 C309 1.389 . S
C308 H281 0.950 . S
C308 C294 1.377 . S
C308 C307 1.373 1_565 S
C309 C293 1.377 . S
C309 C307 1.389 . S
C309 C310 1.524 . S
C310 C309 1.524 . S
C310 C311 1.397 . S
C310 C315 1.363 . S
C311 H282 0.950 . S
C311 C310 1.397 . S
C311 C312 1.334 . S
C312 H283 0.950 . S
C312 C311 1.334 . S
C312 C313 1.287 . S
C313 C312 1.287 . S
C313 C314 1.524 . S
C313 H316 0.999 . S
C314 H284 0.950 . S
C314 C313 1.524 . S
C314 C315 1.415 . S
C315 H285 0.950 . S
C315 C310 1.363 . S
C315 C314 1.415 . S
H316 C313 0.999 . S
H317 C298 0.913 . S
H318 C336 0.951 . S
H319 C338 0.951 . S
H320 C340 0.950 . S
H321 C341 0.950 . S
H322 C343 0.950 . S
H323 C346 0.950 . S
H324 C347 0.950 . S
H325 C349 0.950 . S
H326 C350 0.950 . S
H327 C351 0.951 . S
H328 C353 0.951 . S
H329 C355 0.950 . S
H330 C356 0.950 . S
H331 C358 0.950 . S
H332 C361 0.950 . S
H333 C362 0.950 . S
H334 C364 0.950 . S
H335 C365 0.950 . S
C336 H318 0.951 . S
C336 C337 1.366 . S
C336 C338 1.388 . S
C337 C336 1.366 . S
C337 C341 1.385 . S
C338 H319 0.951 . S
C338 C336 1.388 . S
C338 C339 1.366 . S
C339 C338 1.366 . S
C339 C340 1.414 . S
C339 C342 1.499 . S
C340 H320 0.950 . S
C340 C339 1.414 . S
C340 C341 1.374 . S
C341 H321 0.950 . S
C341 C337 1.385 . S
C341 C340 1.374 . S
C342 C339 1.499 . S
C342 C343 1.373 . S
C342 C344 1.389 . S
C343 H322 0.950 . S
C343 C342 1.373 . S
C343 C359 1.377 . S
C344 C342 1.389 . S
C344 C345 1.524 . S
C344 C358 1.377 . S
C345 C344 1.524 . S
C345 C346 1.397 . S
C345 C350 1.363 . S
C346 H323 0.950 . S
C346 C345 1.397 . S
C346 C347 1.334 . S
C347 H324 0.950 . S
C347 C346 1.334 . S
C347 C348 1.287 . S
C348 C347 1.287 . S
C348 C349 1.524 . S
C348 H367 0.913 . S
C349 H325 0.950 . S
C349 C348 1.524 . S
C349 C350 1.415 . S
C350 H326 0.950 . S
C350 C345 1.363 . S
C350 C349 1.415 . S
C351 H327 0.951 . S
C351 C352 1.366 . S
C351 C353 1.388 . S
C352 C351 1.366 . S
C352 C356 1.385 . S
C353 H328 0.951 . S
C353 C351 1.388 . S
C353 C354 1.366 . S
C354 C353 1.366 . S
C354 C355 1.414 . S
C354 C357 1.499 . S
C355 H329 0.950 . S
C355 C354 1.414 . S
C355 C356 1.374 . S
C356 H330 0.950 . S
C356 C352 1.385 . S
C356 C355 1.374 . S
C357 C354 1.499 . S
C357 C358 1.373 . S
C357 C359 1.389 . S
C358 H331 0.950 . S
C358 C344 1.377 . S
C358 C357 1.373 . S
C359 C343 1.377 . S
C359 C357 1.389 . S
C359 C360 1.524 . S
C360 C359 1.524 . S
C360 C361 1.397 . S
C360 C365 1.363 . S
C361 H332 0.950 . S
C361 C360 1.397 . S
C361 C362 1.334 . S
C362 H333 0.950 . S
C362 C361 1.334 . S
C362 C363 1.287 . S
C363 C362 1.287 . S
C363 C364 1.524 . S
C363 H366 0.999 . S
C364 H334 0.950 . S
C364 C363 1.524 . S
C364 C365 1.415 . S
C365 H335 0.950 . S
C365 C360 1.363 . S
C365 C364 1.415 . S
H366 C363 0.999 . S
H367 C348 0.913 . S
H368 C386 0.951 . S
H369 C388 0.951 . S
H370 C390 0.950 . S
H371 C391 0.950 . S
H372 C393 0.950 . S
H373 C396 0.950 . S
H374 C397 0.950 . S
H375 C399 0.950 . S
H376 C400 0.950 . S
H377 C401 0.951 . S
H378 C403 0.951 . S
H379 C405 0.950 . S
H380 C406 0.950 . S
H381 C408 0.950 . S
H382 C411 0.950 . S
H383 C412 0.950 . S
H384 C414 0.950 . S
H385 C415 0.950 . S
C386 H368 0.951 . S
C386 C387 1.366 . S
C386 C388 1.388 . S
C387 C386 1.366 . S
C387 C391 1.385 . S
C388 H369 0.951 . S
C388 C386 1.388 . S
C388 C389 1.366 . S
C389 C388 1.366 . S
C389 C390 1.414 . S
C389 C392 1.499 . S
C390 H370 0.950 . S
C390 C389 1.414 . S
C390 C391 1.374 . S
C391 H371 0.950 . S
C391 C387 1.385 . S
C391 C390 1.374 . S
C392 C389 1.499 . S
C392 C393 1.373 1_655 S
C392 C394 1.389 . S
C393 H372 0.950 . S
C393 C392 1.373 1_455 S
C393 C409 1.377 . S
C394 C392 1.389 . S
C394 C395 1.524 . S
C394 C408 1.377 . S
C395 C394 1.524 . S
C395 C396 1.397 . S
C395 C400 1.363 . S
C396 H373 0.950 . S
C396 C395 1.397 . S
C396 C397 1.334 . S
C397 H374 0.950 . S
C397 C396 1.334 . S
C397 C398 1.287 . S
C398 C397 1.287 . S
C398 C399 1.524 . S
C398 H417 0.913 . S
C399 H375 0.950 . S
C399 C398 1.524 . S
C399 C400 1.415 . S
C400 H376 0.950 . S
C400 C395 1.363 . S
C400 C399 1.415 . S
C401 H377 0.951 . S
C401 C402 1.366 . S
C401 C403 1.388 . S
C402 C401 1.366 . S
C402 C406 1.385 . S
C403 H378 0.951 . S
C403 C401 1.388 . S
C403 C404 1.366 . S
C404 C403 1.366 . S
C404 C405 1.414 . S
C404 C407 1.499 . S
C405 H379 0.950 . S
C405 C404 1.414 . S
C405 C406 1.374 . S
C406 H380 0.950 . S
C406 C402 1.385 . S
C406 C405 1.374 . S
C407 C404 1.499 . S
C407 C408 1.373 1_455 S
C407 C409 1.389 . S
C408 H381 0.950 . S
C408 C394 1.377 . S
C408 C407 1.373 1_655 S
C409 C393 1.377 . S
C409 C407 1.389 . S
C409 C410 1.524 . S
C410 C409 1.524 . S
C410 C411 1.397 . S
C410 C415 1.363 . S
C411 H382 0.950 . S
C411 C410 1.397 . S
C411 C412 1.334 . S
C412 H383 0.950 . S
C412 C411 1.334 . S
C412 C413 1.287 . S
C413 C412 1.287 . S
C413 C414 1.524 . S
C413 H416 0.999 . S
C414 H384 0.950 . S
C414 C413 1.524 . S
C414 C415 1.415 . S
C415 H385 0.950 . S
C415 C410 1.363 . S
C415 C414 1.415 . S
H416 C413 0.999 . S
H417 C398 0.913 . S
H418 C436 0.951 . S
H419 C438 0.951 1_565 S
H420 C440 0.950 . S
H421 C441 0.950 . S
H422 C443 0.950 . S
H423 C446 0.950 . S
H424 C447 0.950 . S
H425 C449 0.950 . S
H426 C450 0.950 . S
H427 C451 0.951 . S
H428 C453 0.951 1_545 S
H429 C455 0.950 . S
H430 C456 0.950 . S
H431 C458 0.950 . S
H432 C461 0.950 . S
H433 C462 0.950 . S
H434 C464 0.950 . S
H435 C465 0.950 . S
C436 H418 0.951 . S
C436 C437 1.366 . S
C436 C438 1.388 . S
C437 C436 1.366 . S
C437 C441 1.385 . S
C438 H419 0.951 1_545 S
C438 C436 1.388 . S
C438 C439 1.366 . S
C439 C438 1.366 . S
C439 C440 1.414 . S
C439 C442 1.499 . S
C440 H420 0.950 . S
C440 C439 1.414 . S
C440 C441 1.374 . S
C441 H421 0.950 . S
C441 C437 1.385 . S
C441 C440 1.374 . S
C442 C439 1.499 . S
C442 C443 1.373 . S
C442 C444 1.389 . S
C443 H422 0.950 . S
C443 C442 1.373 . S
C443 C459 1.377 1_545 S
C444 C442 1.389 . S
C444 C445 1.524 . S
C444 C458 1.377 1_545 S
C445 C444 1.524 . S
C445 C446 1.397 . S
C445 C450 1.363 1_545 S
C446 H423 0.950 . S
C446 C445 1.397 . S
C446 C447 1.334 . S
C447 H424 0.950 . S
C447 C446 1.334 . S
C447 C448 1.287 . S
C448 C447 1.287 . S
C448 C449 1.524 1_545 S
C448 H467 0.913 . S
C449 H425 0.950 . S
C449 C448 1.524 1_565 S
C449 C450 1.415 . S
C450 H426 0.950 . S
C450 C445 1.363 1_565 S
C450 C449 1.415 . S
C451 H427 0.951 . S
C451 C452 1.366 . S
C451 C453 1.388 . S
C452 C451 1.366 . S
C452 C456 1.385 . S
C453 H428 0.951 1_565 S
C453 C451 1.388 . S
C453 C454 1.366 . S
C454 C453 1.366 . S
C454 C455 1.414 . S
C454 C457 1.499 . S
C455 H429 0.950 . S
C455 C454 1.414 . S
C455 C456 1.374 . S
C456 H430 0.950 . S
C456 C452 1.385 . S
C456 C455 1.374 . S
C457 C454 1.499 . S
C457 C458 1.373 . S
C457 C459 1.389 . S
C458 H431 0.950 . S
C458 C444 1.377 1_565 S
C458 C457 1.373 . S
C459 C443 1.377 1_565 S
C459 C457 1.389 . S
C459 C460 1.524 . S
C460 C459 1.524 . S
C460 C461 1.397 . S
C460 C465 1.363 1_565 S
C461 H432 0.950 . S
C461 C460 1.397 . S
C461 C462 1.334 . S
C462 H433 0.950 . S
C462 C461 1.334 . S
C462 C463 1.287 . S
C463 C462 1.287 . S
C463 C464 1.524 1_565 S
C463 H466 0.999 . S
C464 H434 0.950 . S
C464 C463 1.524 1_545 S
C464 C465 1.415 . S
C465 H435 0.950 . S
C465 C460 1.363 1_545 S
C465 C464 1.415 . S
H466 C463 0.999 . S
H467 C448 0.913 . S
H468 C486 0.951 . S
H469 C488 0.951 . S
H470 C490 0.950 . S
H471 C491 0.950 . S
H472 C493 0.950 . S
H473 C496 0.950 . S
H474 C497 0.950 . S
H475 C499 0.950 . S
H476 C500 0.950 . S
H477 C501 0.951 . S
H478 C503 0.951 . S
H479 C505 0.950 . S
H480 C506 0.950 . S
H481 C508 0.950 . S
H482 C511 0.950 . S
H483 C512 0.950 . S
H484 C514 0.950 . S
H485 C515 0.950 . S
C486 H468 0.951 . S
C486 C487 1.366 . S
C486 C488 1.388 . S
C487 C486 1.366 . S
C487 C491 1.385 . S
C488 H469 0.951 . S
C488 C486 1.388 . S
C488 C489 1.366 . S
C489 C488 1.366 . S
C489 C490 1.414 . S
C489 C492 1.499 . S
C490 H470 0.950 . S
C490 C489 1.414 . S
C490 C491 1.374 . S
C491 H471 0.950 . S
C491 C487 1.385 . S
C491 C490 1.374 . S
C492 C489 1.499 . S
C492 C493 1.373 . S
C492 C494 1.389 . S
C493 H472 0.950 . S
C493 C492 1.373 . S
C493 C509 1.377 . S
C494 C492 1.389 . S
C494 C495 1.524 . S
C494 C508 1.377 . S
C495 C494 1.524 . S
C495 C496 1.397 . S
C495 C500 1.363 . S
C496 H473 0.950 . S
C496 C495 1.397 . S
C496 C497 1.334 . S
C497 H474 0.950 . S
C497 C496 1.334 . S
C497 C498 1.287 . S
C498 C497 1.287 . S
C498 C499 1.524 . S
C498 H517 0.913 . S
C499 H475 0.950 . S
C499 C498 1.524 . S
C499 C500 1.415 . S
C500 H476 0.950 . S
C500 C495 1.363 . S
C500 C499 1.415 . S
C501 H477 0.951 . S
C501 C502 1.366 . S
C501 C503 1.388 . S
C502 C501 1.366 . S
C502 C506 1.385 . S
C503 H478 0.951 . S
C503 C501 1.388 . S
C503 C504 1.366 . S
C504 C503 1.366 . S
C504 C505 1.414 . S
C504 C507 1.499 . S
C505 H479 0.950 . S
C505 C504 1.414 . S
C505 C506 1.374 . S
C506 H480 0.950 . S
C506 C502 1.385 . S
C506 C505 1.374 . S
C507 C504 1.499 . S
C507 C508 1.373 . S
C507 C509 1.389 . S
C508 H481 0.950 . S
C508 C494 1.377 . S
C508 C507 1.373 . S
C509 C493 1.377 . S
C509 C507 1.389 . S
C509 C510 1.524 . S
C510 C509 1.524 . S
C510 C511 1.397 . S
C510 C515 1.363 . S
C511 H482 0.950 . S
C511 C510 1.397 . S
C511 C512 1.334 . S
C512 H483 0.950 . S
C512 C511 1.334 . S
C512 C513 1.287 . S
C513 C512 1.287 . S
C513 C514 1.524 . S
C513 H516 0.999 . S
C514 H484 0.950 . S
C514 C513 1.524 . S
C514 C515 1.415 . S
C515 H485 0.950 . S
C515 C510 1.363 . S
C515 C514 1.415 . S
H516 C513 0.999 . S
H517 C498 0.913 . S
H518 C536 0.951 . S
H519 C538 0.951 . S
H520 C540 0.950 . S
H521 C541 0.950 . S
H522 C543 0.950 . S
H523 C546 0.950 . S
H524 C547 0.950 . S
H525 C549 0.950 . S
H526 C550 0.950 . S
H527 C551 0.951 . S
H528 C553 0.951 . S
H529 C555 0.950 . S
H530 C556 0.950 . S
H531 C558 0.950 . S
H532 C561 0.950 . S
H533 C562 0.950 . S
H534 C564 0.950 . S
H535 C565 0.950 . S
C536 H518 0.951 . S
C536 C537 1.366 . S
C536 C538 1.388 . S
C537 C536 1.366 . S
C537 C541 1.385 . S
C538 H519 0.951 . S
C538 C536 1.388 . S
C538 C539 1.366 . S
C539 C538 1.366 . S
C539 C540 1.414 . S
C539 C542 1.499 . S
C540 H520 0.950 . S
C540 C539 1.414 . S
C540 C541 1.374 . S
C541 H521 0.950 . S
C541 C537 1.385 . S
C541 C540 1.374 . S
C542 C539 1.499 . S
C542 C543 1.373 . S
C542 C544 1.389 . S
C543 H522 0.950 . S
C543 C542 1.373 . S
C543 C559 1.377 . S
C544 C542 1.389 . S
C544 C545 1.524 . S
C544 C558 1.377 . S
C545 C544 1.524 . S
C545 C546 1.397 . S
C545 C550 1.363 . S
C546 H523 0.950 . S
C546 C545 1.397 . S
C546 C547 1.334 . S
C547 H524 0.950 . S
C547 C546 1.334 . S
C547 C548 1.287 . S
C548 C547 1.287 . S
C548 C549 1.524 . S
C548 H567 0.913 . S
C549 H525 0.950 . S
C549 C548 1.524 . S
C549 C550 1.415 . S
C550 H526 0.950 . S
C550 C545 1.363 . S
C550 C549 1.415 . S
C551 H527 0.951 . S
C551 C552 1.366 . S
C551 C553 1.388 . S
C552 C551 1.366 . S
C552 C556 1.385 . S
C553 H528 0.951 . S
C553 C551 1.388 . S
C553 C554 1.366 . S
C554 C553 1.366 . S
C554 C555 1.414 . S
C554 C557 1.499 . S
C555 H529 0.950 . S
C555 C554 1.414 . S
C555 C556 1.374 . S
C556 H530 0.950 . S
C556 C552 1.385 . S
C556 C555 1.374 . S
C557 C554 1.499 . S
C557 C558 1.373 . S
C557 C559 1.389 . S
C558 H531 0.950 . S
C558 C544 1.377 . S
C558 C557 1.373 . S
C559 C543 1.377 . S
C559 C557 1.389 . S
C559 C560 1.524 . S
C560 C559 1.524 . S
C560 C561 1.397 . S
C560 C565 1.363 . S
C561 H532 0.950 . S
C561 C560 1.397 . S
C561 C562 1.334 . S
C562 H533 0.950 . S
C562 C561 1.334 . S
C562 C563 1.287 . S
C563 C562 1.287 . S
C563 C564 1.524 . S
C563 H566 0.999 . S
C564 H534 0.950 . S
C564 C563 1.524 . S
C564 C565 1.415 . S
C565 H535 0.950 . S
C565 C560 1.363 . S
C565 C564 1.415 . S
H566 C563 0.999 . S
H567 C548 0.913 . S
H568 C586 0.951 . S
H569 C588 0.951 . S
H570 C590 0.950 . S
H571 C591 0.950 . S
H572 C593 0.950 . S
H573 C596 0.950 . S
H574 C597 0.950 . S
H575 C599 0.950 . S
H576 C600 0.950 . S
H577 C601 0.951 . S
H578 C603 0.951 . S
H579 C605 0.950 . S
H580 C606 0.950 . S
H581 C608 0.950 . S
H582 C611 0.950 . S
H583 C612 0.950 . S
H584 C614 0.950 . S
H585 C615 0.950 . S
C586 H568 0.951 . S
C586 C587 1.366 . S
C586 C588 1.388 . S
C587 C586 1.366 . S
C587 C591 1.385 . S
C588 H569 0.951 . S
C588 C586 1.388 . S
C588 C589 1.366 . S
C589 C588 1.366 . S
C589 C590 1.414 . S
C589 C592 1.499 . S
C590 H570 0.950 . S
C590 C589 1.414 . S
C590 C591 1.374 . S
C591 H571 0.950 . S
C591 C587 1.385 . S
C591 C590 1.374 . S
C592 C589 1.499 . S
C592 C593 1.373 . S
C592 C594 1.389 . S
C593 H572 0.950 . S
C593 C592 1.373 . S
C593 C609 1.377 . S
C594 C592 1.389 . S
C594 C595 1.524 . S
C594 C608 1.377 . S
C595 C594 1.524 . S
C595 C596 1.397 . S
C595 C600 1.363 . S
C596 H573 0.950 . S
C596 C595 1.397 . S
C596 C597 1.334 . S
C597 H574 0.950 . S
C597 C596 1.334 . S
C597 C598 1.287 . S
C598 C597 1.287 . S
C598 C599 1.524 . S
C598 H617 0.913 . S
C599 H575 0.950 . S
C599 C598 1.524 . S
C599 C600 1.415 . S
C600 H576 0.950 . S
C600 C595 1.363 . S
C600 C599 1.415 . S
C601 H577 0.951 . S
C601 C602 1.366 . S
C601 C603 1.388 . S
C602 C601 1.366 . S
C602 C606 1.385 . S
C603 H578 0.951 . S
C603 C601 1.388 . S
C603 C604 1.366 . S
C604 C603 1.366 . S
C604 C605 1.414 . S
C604 C607 1.499 . S
C605 H579 0.950 . S
C605 C604 1.414 . S
C605 C606 1.374 . S
C606 H580 0.950 . S
C606 C602 1.385 . S
C606 C605 1.374 . S
C607 C604 1.499 . S
C607 C608 1.373 . S
C607 C609 1.389 . S
C608 H581 0.950 . S
C608 C594 1.377 . S
C608 C607 1.373 . S
C609 C593 1.377 . S
C609 C607 1.389 . S
C609 C610 1.524 . S
C610 C609 1.524 . S
C610 C611 1.397 . S
C610 C615 1.363 . S
C611 H582 0.950 . S
C611 C610 1.397 . S
C611 C612 1.334 . S
C612 H583 0.950 . S
C612 C611 1.334 . S
C612 C613 1.287 . S
C613 C612 1.287 . S
C613 C614 1.524 . S
C613 H616 0.999 . S
C614 H584 0.950 . S
C614 C613 1.524 . S
C614 C615 1.415 . S
C615 H585 0.950 . S
C615 C610 1.363 . S
C615 C614 1.415 . S
H616 C613 0.999 . S
H617 C598 0.913 . S
H618 C636 0.951 . S
H619 C638 0.951 . S
H620 C640 0.950 . S
H621 C641 0.950 . S
H622 C643 0.950 . S
H623 C646 0.950 . S
H624 C647 0.950 . S
H625 C649 0.950 . S
H626 C650 0.950 . S
H627 C651 0.951 . S
H628 C653 0.951 . S
H629 C655 0.950 . S
H630 C656 0.950 . S
H631 C658 0.950 . S
H632 C661 0.950 . S
H633 C662 0.950 . S
H634 C664 0.950 . S
H635 C665 0.950 . S
C636 H618 0.951 . S
C636 C637 1.366 . S
C636 C638 1.388 . S
C637 C636 1.366 . S
C637 C641 1.385 . S
C638 H619 0.951 . S
C638 C636 1.388 . S
C638 C639 1.366 . S
C639 C638 1.366 . S
C639 C640 1.414 . S
C639 C642 1.499 . S
C640 H620 0.950 . S
C640 C639 1.414 . S
C640 C641 1.374 . S
C641 H621 0.950 . S
C641 C637 1.385 . S
C641 C640 1.374 . S
C642 C639 1.499 . S
C642 C643 1.373 . S
C642 C644 1.389 . S
C643 H622 0.950 . S
C643 C642 1.373 . S
C643 C659 1.377 . S
C644 C642 1.389 . S
C644 C645 1.524 . S
C644 C658 1.377 . S
C645 C644 1.524 . S
C645 C646 1.397 . S
C645 C650 1.363 . S
C646 H623 0.950 . S
C646 C645 1.397 . S
C646 C647 1.334 . S
C647 H624 0.950 . S
C647 C646 1.334 . S
C647 C648 1.287 . S
C648 C647 1.287 . S
C648 C649 1.524 . S
C648 H667 0.913 . S
C649 H625 0.950 . S
C649 C648 1.524 . S
C649 C650 1.415 . S
C650 H626 0.950 . S
C650 C645 1.363 . S
C650 C649 1.415 . S
C651 H627 0.951 . S
C651 C652 1.366 . S
C651 C653 1.388 . S
C652 C651 1.366 . S
C652 C656 1.385 . S
C653 H628 0.951 . S
C653 C651 1.388 . S
C653 C654 1.366 . S
C654 C653 1.366 . S
C654 C655 1.414 . S
C654 C657 1.499 . S
C655 H629 0.950 . S
C655 C654 1.414 . S
C655 C656 1.374 . S
C656 H630 0.950 . S
C656 C652 1.385 . S
C656 C655 1.374 . S
C657 C654 1.499 . S
C657 C658 1.373 . S
C657 C659 1.389 . S
C658 H631 0.950 . S
C658 C644 1.377 . S
C658 C657 1.373 . S
C659 C643 1.377 . S
C659 C657 1.389 . S
C659 C660 1.524 . S
C660 C659 1.524 . S
C660 C661 1.397 . S
C660 C665 1.363 . S
C661 H632 0.950 . S
C661 C660 1.397 . S
C661 C662 1.334 . S
C662 H633 0.950 . S
C662 C661 1.334 . S
C662 C663 1.287 . S
C663 C662 1.287 . S
C663 C664 1.524 . S
C663 H666 0.999 . S
C664 H634 0.950 . S
C664 C663 1.524 . S
C664 C665 1.415 . S
C665 H635 0.950 . S
C665 C660 1.363 . S
C665 C664 1.415 . S
H666 C663 0.999 . S
H667 C648 0.913 . S
H668 C686 0.951 . S
H669 C688 0.951 . S
H670 C690 0.950 . S
H671 C691 0.950 . S
H672 C693 0.950 . S
H673 C696 0.950 . S
H674 C697 0.950 . S
H675 C699 0.950 . S
H676 C700 0.950 . S
H677 C701 0.951 . S
H678 C703 0.951 . S
H679 C705 0.950 . S
H680 C706 0.950 . S
H681 C708 0.950 . S
H682 C711 0.950 . S
H683 C712 0.950 . S
H684 C714 0.950 . S
H685 C715 0.950 . S
C686 H668 0.951 . S
C686 C687 1.366 . S
C686 C688 1.388 . S
C687 C686 1.366 . S
C687 C691 1.385 . S
C688 H669 0.951 . S
C688 C686 1.388 . S
C688 C689 1.366 . S
C689 C688 1.366 . S
C689 C690 1.414 . S
C689 C692 1.499 . S
C690 H670 0.950 . S
C690 C689 1.414 . S
C690 C691 1.374 . S
C691 H671 0.950 . S
C691 C687 1.385 . S
C691 C690 1.374 . S
C692 C689 1.499 . S
C692 C693 1.373 . S
C692 C694 1.389 . S
C693 H672 0.950 . S
C693 C692 1.373 . S
C693 C709 1.377 . S
C694 C692 1.389 . S
C694 C695 1.524 . S
C694 C708 1.377 . S
C695 C694 1.524 . S
C695 C696 1.397 . S
C695 C700 1.363 . S
C696 H673 0.950 . S
C696 C695 1.397 . S
C696 C697 1.334 . S
C697 H674 0.950 . S
C697 C696 1.334 . S
C697 C698 1.287 . S
C698 C697 1.287 . S
C698 C699 1.524 . S
C698 H717 0.913 . S
C699 H675 0.950 . S
C699 C698 1.524 . S
C699 C700 1.415 . S
C700 H676 0.950 . S
C700 C695 1.363 . S
C700 C699 1.415 . S
C701 H677 0.951 . S
C701 C702 1.366 . S
C701 C703 1.388 . S
C702 C701 1.366 . S
C702 C706 1.385 . S
C703 H678 0.951 . S
C703 C701 1.388 . S
C703 C704 1.366 . S
C704 C703 1.366 . S
C704 C705 1.414 . S
C704 C707 1.499 . S
C705 H679 0.950 . S
C705 C704 1.414 . S
C705 C706 1.374 . S
C706 H680 0.950 . S
C706 C702 1.385 . S
C706 C705 1.374 . S
C707 C704 1.499 . S
C707 C708 1.373 . S
C707 C709 1.389 . S
C708 H681 0.950 . S
C708 C694 1.377 . S
C708 C707 1.373 . S
C709 C693 1.377 . S
C709 C707 1.389 . S
C709 C710 1.524 . S
C710 C709 1.524 . S
C710 C711 1.397 . S
C710 C715 1.363 . S
C711 H682 0.950 . S
C711 C710 1.397 . S
C711 C712 1.334 . S
C712 H683 0.950 . S
C712 C711 1.334 . S
C712 C713 1.287 . S
C713 C712 1.287 . S
C713 C714 1.524 . S
C713 H716 0.999 . S
C714 H684 0.950 . S
C714 C713 1.524 . S
C714 C715 1.415 . S
C715 H685 0.950 . S
C715 C710 1.363 . S
C715 C714 1.415 . S
H716 C713 0.999 . S
H717 C698 0.913 . S
H718 C736 0.951 . S
H719 C738 0.951 . S
H720 C740 0.950 . S
H721 C741 0.950 . S
H722 C743 0.950 . S
H723 C746 0.950 . S
H724 C747 0.950 . S
H725 C749 0.950 . S
H726 C750 0.950 . S
H727 C751 0.951 . S
H728 C753 0.951 . S
H729 C755 0.950 . S
H730 C756 0.950 . S
H731 C758 0.950 . S
H732 C761 0.950 . S
H733 C762 0.950 . S
H734 C764 0.950 . S
H735 C765 0.950 . S
C736 H718 0.951 . S
C736 C737 1.366 . S
C736 C738 1.388 . S
C737 C736 1.366 . S
C737 C741 1.385 . S
C738 H719 0.951 . S
C738 C736 1.388 . S
C738 C739 1.366 . S
C739 C738 1.366 . S
C739 C740 1.414 . S
C739 C742 1.499 . S
C740 H720 0.950 . S
C740 C739 1.414 . S
C740 C741 1.374 . S
C741 H721 0.950 . S
C741 C737 1.385 . S
C741 C740 1.374 . S
C742 C739 1.499 . S
C742 C743 1.373 . S
C742 C744 1.389 . S
C743 H722 0.950 . S
C743 C742 1.373 . S
C743 C759 1.377 . S
C744 C742 1.389 . S
C744 C745 1.524 . S
C744 C758 1.377 . S
C745 C744 1.524 . S
C745 C746 1.397 . S
C745 C750 1.363 . S
C746 H723 0.950 . S
C746 C745 1.397 . S
C746 C747 1.334 . S
C747 H724 0.950 . S
C747 C746 1.334 . S
C747 C748 1.287 . S
C748 C747 1.287 . S
C748 C749 1.524 . S
C748 H767 0.913 . S
C749 H725 0.950 . S
C749 C748 1.524 . S
C749 C750 1.415 . S
C750 H726 0.950 . S
C750 C745 1.363 . S
C750 C749 1.415 . S
C751 H727 0.951 . S
C751 C752 1.366 . S
C751 C753 1.388 . S
C752 C751 1.366 . S
C752 C756 1.385 . S
C753 H728 0.951 . S
C753 C751 1.388 . S
C753 C754 1.366 . S
C754 C753 1.366 . S
C754 C755 1.414 . S
C754 C757 1.499 . S
C755 H729 0.950 . S
C755 C754 1.414 . S
C755 C756 1.374 . S
C756 H730 0.950 . S
C756 C752 1.385 . S
C756 C755 1.374 . S
C757 C754 1.499 . S
C757 C758 1.373 . S
C757 C759 1.389 . S
C758 H731 0.950 . S
C758 C744 1.377 . S
C758 C757 1.373 . S
C759 C743 1.377 . S
C759 C757 1.389 . S
C759 C760 1.524 . S
C760 C759 1.524 . S
C760 C761 1.397 . S
C760 C765 1.363 . S
C761 H732 0.950 . S
C761 C760 1.397 . S
C761 C762 1.334 . S
C762 H733 0.950 . S
C762 C761 1.334 . S
C762 C763 1.287 . S
C763 C762 1.287 . S
C763 C764 1.524 . S
C763 H766 0.999 . S
C764 H734 0.950 . S
C764 C763 1.524 . S
C764 C765 1.415 . S
C765 H735 0.950 . S
C765 C760 1.363 . S
C765 C764 1.415 . S
H766 C763 0.999 . S
H767 C748 0.913 . S
H768 C786 0.951 . S
H769 C788 0.951 . S
H770 C790 0.950 1_554 S
H771 C791 0.950 . S
H772 C793 0.950 . S
H773 C796 0.950 . S
H774 C797 0.950 . S
H775 C799 0.950 . S
H776 C800 0.950 . S
H777 C801 0.951 . S
H778 C803 0.951 . S
H779 C805 0.950 1_556 S
H780 C806 0.950 . S
H781 C808 0.950 . S
H782 C811 0.950 . S
H783 C812 0.950 . S
H784 C814 0.950 . S
H785 C815 0.950 . S
C786 H768 0.951 . S
C786 C787 1.366 . S
C786 C788 1.388 . S
C787 C786 1.366 . S
C787 C791 1.385 . S
C788 H769 0.951 . S
C788 C786 1.388 . S
C788 C789 1.366 . S
C789 C788 1.366 . S
C789 C790 1.414 . S
C789 C792 1.499 . S
C790 H770 0.950 1_556 S
C790 C789 1.414 . S
C790 C791 1.374 . S
C791 H771 0.950 . S
C791 C787 1.385 . S
C791 C790 1.374 . S
C792 C789 1.499 . S
C792 C793 1.373 1_556 S
C792 C794 1.389 . S
C793 H772 0.950 . S
C793 C792 1.373 1_554 S
C793 C809 1.377 1_565 S
C794 C792 1.389 . S
C794 C795 1.524 . S
C794 C808 1.377 1_565 S
C795 C794 1.524 . S
C795 C796 1.397 . S
C795 C800 1.363 1_565 S
C796 H773 0.950 . S
C796 C795 1.397 . S
C796 C797 1.334 . S
C797 H774 0.950 . S
C797 C796 1.334 . S
C797 C798 1.287 . S
C798 C797 1.287 . S
C798 C799 1.524 1_565 S
C798 H817 0.913 . S
C799 H775 0.950 . S
C799 C798 1.524 1_545 S
C799 C800 1.415 . S
C800 H776 0.950 . S
C800 C795 1.363 1_545 S
C800 C799 1.415 . S
C801 H777 0.951 . S
C801 C802 1.366 . S
C801 C803 1.388 . S
C802 C801 1.366 . S
C802 C806 1.385 . S
C803 H778 0.951 . S
C803 C801 1.388 . S
C803 C804 1.366 . S
C804 C803 1.366 . S
C804 C805 1.414 . S
C804 C807 1.499 . S
C805 H779 0.950 1_554 S
C805 C804 1.414 . S
C805 C806 1.374 . S
C806 H780 0.950 . S
C806 C802 1.385 . S
C806 C805 1.374 . S
C807 C804 1.499 . S
C807 C808 1.373 1_554 S
C807 C809 1.389 . S
C808 H781 0.950 . S
C808 C794 1.377 1_545 S
C808 C807 1.373 1_556 S
C809 C793 1.377 1_545 S
C809 C807 1.389 . S
C809 C810 1.524 . S
C810 C809 1.524 . S
C810 C811 1.397 . S
C810 C815 1.363 1_545 S
C811 H782 0.950 . S
C811 C810 1.397 . S
C811 C812 1.334 . S
C812 H783 0.950 . S
C812 C811 1.334 . S
C812 C813 1.287 . S
C813 C812 1.287 . S
C813 C814 1.524 1_545 S
C813 H816 0.999 . S
C814 H784 0.950 . S
C814 C813 1.524 1_565 S
C814 C815 1.415 . S
C815 H785 0.950 . S
C815 C810 1.363 1_565 S
C815 C814 1.415 . S
H816 C813 0.999 . S
H817 C798 0.913 . S
H818 C836 0.951 . S
H819 C838 0.951 . S
H820 C840 0.950 . S
H821 C841 0.950 . S
H822 C843 0.950 . S
H823 C846 0.950 . S
H824 C847 0.950 . S
H825 C849 0.950 . S
H826 C850 0.950 . S
H827 C851 0.951 . S
H828 C853 0.951 . S
H829 C855 0.950 . S
H830 C856 0.950 . S
H831 C858 0.950 . S
H832 C861 0.950 . S
H833 C862 0.950 . S
H834 C864 0.950 . S
H835 C865 0.950 . S
C836 H818 0.951 . S
C836 C837 1.366 . S
C836 C838 1.388 . S
C837 C836 1.366 . S
C837 C841 1.385 . S
C838 H819 0.951 . S
C838 C836 1.388 . S
C838 C839 1.366 . S
C839 C838 1.366 . S
C839 C840 1.414 . S
C839 C842 1.499 . S
C840 H820 0.950 . S
C840 C839 1.414 . S
C840 C841 1.374 . S
C841 H821 0.950 . S
C841 C837 1.385 . S
C841 C840 1.374 . S
C842 C839 1.499 . S
C842 C843 1.373 . S
C842 C844 1.389 . S
C843 H822 0.950 . S
C843 C842 1.373 . S
C843 C859 1.377 . S
C844 C842 1.389 . S
C844 C845 1.524 . S
C844 C858 1.377 . S
C845 C844 1.524 . S
C845 C846 1.397 . S
C845 C850 1.363 . S
C846 H823 0.950 . S
C846 C845 1.397 . S
C846 C847 1.334 . S
C847 H824 0.950 . S
C847 C846 1.334 . S
C847 C848 1.287 . S
C848 C847 1.287 . S
C848 C849 1.524 . S
C848 H867 0.913 . S
C849 H825 0.950 . S
C849 C848 1.524 . S
C849 C850 1.415 . S
C850 H826 0.950 . S
C850 C845 1.363 . S
C850 C849 1.415 . S
C851 H827 0.951 . S
C851 C852 1.366 . S
C851 C853 1.388 . S
C852 C851 1.366 . S
C852 C856 1.385 . S
C853 H828 0.951 . S
C853 C851 1.388 . S
C853 C854 1.366 . S
C854 C853 1.366 . S
C854 C855 1.414 . S
C854 C857 1.499 . S
C855 H829 0.950 . S
C855 C854 1.414 . S
C855 C856 1.374 . S
C856 H830 0.950 . S
C856 C852 1.385 . S
C856 C855 1.374 . S
C857 C854 1.499 . S
C857 C858 1.373 . S
C857 C859 1.389 . S
C858 H831 0.950 . S
C858 C844 1.377 . S
C858 C857 1.373 . S
C859 C843 1.377 . S
C859 C857 1.389 . S
C859 C860 1.524 . S
C860 C859 1.524 . S
C860 C861 1.397 . S
C860 C865 1.363 . S
C861 H832 0.950 . S
C861 C860 1.397 . S
C861 C862 1.334 . S
C862 H833 0.950 . S
C862 C861 1.334 . S
C862 C863 1.287 . S
C863 C862 1.287 . S
C863 C864 1.524 . S
C863 H866 0.999 . S
C864 H834 0.950 . S
C864 C863 1.524 . S
C864 C865 1.415 . S
C865 H835 0.950 . S
C865 C860 1.363 . S
C865 C864 1.415 . S
H866 C863 0.999 . S
H867 C848 0.913 . S
H868 C886 0.951 . S
H869 C888 0.951 . S
H870 C890 0.950 . S
H871 C891 0.950 . S
H872 C893 0.950 . S
H873 C896 0.950 . S
H874 C897 0.950 . S
H875 C899 0.950 1_455 S
H876 C900 0.950 1_455 S
H877 C901 0.951 . S
H878 C903 0.951 . S
H879 C905 0.950 . S
H880 C906 0.950 . S
H881 C908 0.950 . S
H882 C911 0.950 . S
H883 C912 0.950 . S
H884 C914 0.932 1_655 S
H885 C915 0.950 . S
C886 H868 0.951 . S
C886 C887 1.366 . S
C886 C888 1.388 . S
C887 C886 1.366 . S
C887 C891 1.385 . S
C888 H869 0.951 . S
C888 C886 1.388 . S
C888 C889 1.366 . S
C889 C888 1.366 . S
C889 C890 1.414 . S
C889 C892 1.499 . S
C890 H870 0.950 . S
C890 C889 1.414 . S
C890 C891 1.374 . S
C891 H871 0.950 . S
C891 C887 1.385 . S
C891 C890 1.374 . S
C892 C889 1.499 . S
C892 C893 1.373 . S
C892 C894 1.389 . S
C893 H872 0.950 . S
C893 C892 1.373 . S
C893 C909 1.377 1_655 S
C894 C892 1.389 . S
C894 C895 1.524 . S
C894 C908 1.377 1_655 S
C895 C894 1.524 . S
C895 C896 1.397 . S
C895 C900 1.363 . S
C896 H873 0.950 . S
C896 C895 1.397 . S
C896 C897 1.334 . S
C897 H874 0.950 . S
C897 C896 1.334 . S
C897 C898 1.287 . S
C898 C897 1.287 . S
C898 C899 1.524 . S
C898 H917 0.913 . S
C899 H875 0.950 1_655 S
C899 C898 1.524 . S
C899 C900 1.415 . S
C900 H876 0.950 1_655 S
C900 C895 1.363 . S
C900 C899 1.415 . S
C901 H877 0.951 . S
C901 C902 1.366 . S
C901 C903 1.388 . S
C902 C901 1.366 . S
C902 C906 1.385 . S
C903 H878 0.951 . S
C903 C901 1.388 . S
C903 C904 1.366 . S
C904 C903 1.366 . S
C904 C905 1.414 . S
C904 C907 1.499 . S
C905 H879 0.950 . S
C905 C904 1.414 . S
C905 C906 1.374 . S
C906 H880 0.950 . S
C906 C902 1.385 . S
C906 C905 1.374 . S
C907 C904 1.499 . S
C907 C908 1.373 . S
C907 C909 1.389 . S
C908 H881 0.950 . S
C908 C894 1.377 1_455 S
C908 C907 1.373 . S
C909 C893 1.377 1_455 S
C909 C907 1.389 . S
C909 C910 1.524 . S
C910 C909 1.524 . S
C910 C911 1.397 . S
C910 C915 1.363 1_455 S
C911 H882 0.950 . S
C911 C910 1.397 . S
C911 C912 1.334 . S
C912 H883 0.950 . S
C912 C911 1.334 . S
C912 C913 1.287 . S
C913 C912 1.287 . S
C913 C914 1.538 . S
C913 H916 0.999 . S
C914 H884 0.932 1_455 S
C914 C913 1.538 . S
C914 C915 1.422 1_455 S
C915 H885 0.950 . S
C915 C910 1.363 1_655 S
C915 C914 1.422 1_655 S
H916 C913 0.999 . S
H917 C898 0.913 . S
H918 C936 0.951 . S
H919 C938 0.951 . S
H920 C940 0.950 1_556 S
H921 C941 0.950 . S
H922 C943 0.950 . S
H923 C946 0.950 . S
H924 C947 0.950 . S
H925 C949 0.950 . S
H926 C950 0.950 1_545 S
H927 C951 0.951 . S
H928 C953 0.951 . S
H929 C955 0.950 1_554 S
H930 C956 0.950 . S
H931 C958 0.950 . S
H932 C961 0.950 . S
H933 C962 0.950 . S
H934 C964 0.950 . S
H935 C965 0.950 1_565 S
C936 H918 0.951 . S
C936 C937 1.366 . S
C936 C938 1.388 . S
C937 C936 1.366 . S
C937 C941 1.385 . S
C938 H919 0.951 . S
C938 C936 1.388 . S
C938 C939 1.366 . S
C939 C938 1.366 . S
C939 C940 1.414 . S
C939 C942 1.499 . S
C940 H920 0.950 1_554 S
C940 C939 1.414 . S
C940 C941 1.374 . S
C941 H921 0.950 . S
C941 C937 1.385 . S
C941 C940 1.374 . S
C942 C939 1.499 . S
C942 C943 1.373 . S
C942 C944 1.389 . S
C943 H922 0.950 . S
C943 C942 1.373 . S
C943 C959 1.377 1_564 S
C944 C942 1.389 . S
C944 C945 1.524 . S
C944 C958 1.377 1_564 S
C945 C944 1.524 . S
C945 C946 1.397 1_554 S
C945 C950 1.363 . S
C946 H923 0.950 . S
C946 C945 1.397 1_556 S
C946 C947 1.334 . S
C947 H924 0.950 . S
C947 C946 1.334 . S
C947 C948 1.287 1_556 S
C948 C947 1.287 1_554 S
C948 C949 1.524 . S
C948 H967 0.913 . S
C949 H925 0.950 . S
C949 C948 1.524 . S
C949 C950 1.415 . S
C950 H926 0.950 1_565 S
C950 C945 1.363 . S
C950 C949 1.415 . S
C951 H927 0.951 . S
C951 C952 1.366 . S
C951 C953 1.388 . S
C952 C951 1.366 . S
C952 C956 1.385 . S
C953 H928 0.951 . S
C953 C951 1.388 . S
C953 C954 1.366 . S
C954 C953 1.366 . S
C954 C955 1.414 . S
C954 C957 1.499 . S
C955 H929 0.950 1_556 S
C955 C954 1.414 . S
C955 C956 1.374 . S
C956 H930 0.950 . S
C956 C952 1.385 . S
C956 C955 1.374 . S
C957 C954 1.499 . S
C957 C958 1.373 . S
C957 C959 1.389 . S
C958 H931 0.950 . S
C958 C944 1.377 1_546 S
C958 C957 1.373 . S
C959 C943 1.377 1_546 S
C959 C957 1.389 . S
C959 C960 1.524 . S
C960 C959 1.524 . S
C960 C961 1.397 1_556 S
C960 C965 1.363 . S
C961 H932 0.950 . S
C961 C960 1.397 1_554 S
C961 C962 1.334 . S
C962 H933 0.950 . S
C962 C961 1.334 . S
C962 C963 1.287 1_554 S
C963 C962 1.287 1_556 S
C963 C964 1.524 . S
C963 H966 0.999 . S
C964 H934 0.950 . S
C964 C963 1.524 . S
C964 C965 1.415 . S
C965 H935 0.950 1_545 S
C965 C960 1.363 . S
C965 C964 1.415 . S
H966 C963 0.999 . S
H967 C948 0.913 . S
H968 C986 0.951 . S
H969 C988 0.951 . S
H970 C990 0.950 . S
H971 C991 0.950 . S
H972 C993 0.950 . S
H973 C996 0.950 . S
H974 C997 0.950 . S
H975 C999 0.950 . S
H976 C1000 0.950 . S
H977 C1001 0.951 . S
H978 C1003 0.951 . S
H979 C1005 0.950 . S
H980 C1006 0.950 . S
H981 C1008 0.950 . S
H982 C1011 0.950 . S
H983 C1012 0.950 . S
H984 C1014 0.950 . S
H985 C1015 0.950 . S
C986 H968 0.951 . S
C986 C987 1.366 . S
C986 C988 1.388 . S
C987 C986 1.366 . S
C987 C991 1.385 . S
C988 H969 0.951 . S
C988 C986 1.388 . S
C988 C989 1.366 . S
C989 C988 1.366 . S
C989 C990 1.414 . S
C989 C992 1.499 . S
C990 H970 0.950 . S
C990 C989 1.414 . S
C990 C991 1.374 . S
C991 H971 0.950 . S
C991 C987 1.385 . S
C991 C990 1.374 . S
C992 C989 1.499 . S
C992 C993 1.373 . S
C992 C994 1.389 . S
C993 H972 0.950 . S
C993 C992 1.373 . S
C993 C1009 1.377 . S
C994 C992 1.389 . S
C994 C995 1.524 . S
C994 C1008 1.377 . S
C995 C994 1.524 . S
C995 C996 1.397 . S
C995 C1000 1.363 . S
C996 H973 0.950 . S
C996 C995 1.397 . S
C996 C997 1.334 . S
C997 H974 0.950 . S
C997 C996 1.334 . S
C997 C998 1.287 . S
C998 C997 1.287 . S
C998 C999 1.524 . S
C998 H1017 0.913 . S
C999 H975 0.950 . S
C999 C998 1.524 . S
C999 C1000 1.415 . S
C1000 H976 0.950 . S
C1000 C995 1.363 . S
C1000 C999 1.415 . S
C1001 H977 0.951 . S
C1001 C1002 1.366 . S
C1001 C1003 1.388 . S
C1002 C1001 1.366 . S
C1002 C1006 1.385 . S
C1003 H978 0.951 . S
C1003 C1001 1.388 . S
C1003 C1004 1.366 . S
C1004 C1003 1.366 . S
C1004 C1005 1.414 . S
C1004 C1007 1.499 . S
C1005 H979 0.950 . S
C1005 C1004 1.414 . S
C1005 C1006 1.374 . S
C1006 H980 0.950 . S
C1006 C1002 1.385 . S
C1006 C1005 1.374 . S
C1007 C1004 1.499 . S
C1007 C1008 1.373 . S
C1007 C1009 1.389 . S
C1008 H981 0.950 . S
C1008 C994 1.377 . S
C1008 C1007 1.373 . S
C1009 C993 1.377 . S
C1009 C1007 1.389 . S
C1009 C1010 1.524 . S
C1010 C1009 1.524 . S
C1010 C1011 1.397 . S
C1010 C1015 1.363 . S
C1011 H982 0.950 . S
C1011 C1010 1.397 . S
C1011 C1012 1.334 . S
C1012 H983 0.950 . S
C1012 C1011 1.334 . S
C1012 C1013 1.287 . S
C1013 C1012 1.287 . S
C1013 C1014 1.524 . S
C1013 H1016 0.999 . S
C1014 H984 0.950 . S
C1014 C1013 1.524 . S
C1014 C1015 1.415 . S
C1015 H985 0.950 . S
C1015 C1010 1.363 . S
C1015 C1014 1.415 . S
H1016 C1013 0.999 . S
H1017 C998 0.913 . S
H1018 C1036 0.951 . S
H1019 C1038 0.951 . S
H1020 C1040 0.950 . S
H1021 C1041 0.950 . S
H1022 C1043 0.950 . S
H1023 C1046 0.950 . S
H1024 C1047 0.950 . S
H1025 C1049 0.950 . S
H1026 C1050 0.950 . S
H1027 C1051 0.951 . S
H1028 C1053 0.951 . S
H1029 C1055 0.950 . S
H1030 C1056 0.950 . S
H1031 C1058 0.950 . S
H1032 C1061 0.950 . S
H1033 C1062 0.950 . S
H1034 C1064 0.950 . S
H1035 C1065 0.950 . S
C1036 H1018 0.951 . S
C1036 C1037 1.366 . S
C1036 C1038 1.388 . S
C1037 C1036 1.366 . S
C1037 C1041 1.385 . S
C1038 H1019 0.951 . S
C1038 C1036 1.388 . S
C1038 C1039 1.366 . S
C1039 C1038 1.366 . S
C1039 C1040 1.414 . S
C1039 C1042 1.499 . S
C1040 H1020 0.950 . S
C1040 C1039 1.414 . S
C1040 C1041 1.374 . S
C1041 H1021 0.950 . S
C1041 C1037 1.385 . S
C1041 C1040 1.374 . S
C1042 C1039 1.499 . S
C1042 C1043 1.373 . S
C1042 C1044 1.389 . S
C1043 H1022 0.950 . S
C1043 C1042 1.373 . S
C1043 C1059 1.377 1_455 S
C1044 C1042 1.389 . S
C1044 C1045 1.524 . S
C1044 C1058 1.377 1_455 S
C1045 C1044 1.524 . S
C1045 C1046 1.397 . S
C1045 C1050 1.363 . S
C1046 H1023 0.950 . S
C1046 C1045 1.397 . S
C1046 C1047 1.334 . S
C1047 H1024 0.950 . S
C1047 C1046 1.334 . S
C1047 C1048 1.287 . S
C1048 C1047 1.287 . S
C1048 C1049 1.524 . S
C1048 H1067 0.913 . S
C1049 H1025 0.950 . S
C1049 C1048 1.524 . S
C1049 C1050 1.415 . S
C1050 H1026 0.950 . S
C1050 C1045 1.363 . S
C1050 C1049 1.415 . S
C1051 H1027 0.951 . S
C1051 C1052 1.366 . S
C1051 C1053 1.388 . S
C1052 C1051 1.366 . S
C1052 C1056 1.385 . S
C1053 H1028 0.951 . S
C1053 C1051 1.388 . S
C1053 C1054 1.366 . S
C1054 C1053 1.366 . S
C1054 C1055 1.414 . S
C1054 C1057 1.499 . S
C1055 H1029 0.950 . S
C1055 C1054 1.414 . S
C1055 C1056 1.374 . S
C1056 H1030 0.950 . S
C1056 C1052 1.385 . S
C1056 C1055 1.374 . S
C1057 C1054 1.499 . S
C1057 C1058 1.373 . S
C1057 C1059 1.389 . S
C1058 H1031 0.950 . S
C1058 C1044 1.377 1_655 S
C1058 C1057 1.373 . S
C1059 C1043 1.377 1_655 S
C1059 C1057 1.389 . S
C1059 C1060 1.524 . S
C1060 C1059 1.524 . S
C1060 C1061 1.397 . S
C1060 C1065 1.363 . S
C1061 H1032 0.950 . S
C1061 C1060 1.397 . S
C1061 C1062 1.334 . S
C1062 H1033 0.950 . S
C1062 C1061 1.334 . S
C1062 C1063 1.287 . S
C1063 C1062 1.287 . S
C1063 C1064 1.524 . S
C1063 H1066 0.999 . S
C1064 H1034 0.950 . S
C1064 C1063 1.524 . S
C1064 C1065 1.415 . S
C1065 H1035 0.950 . S
C1065 C1060 1.363 . S
C1065 C1064 1.415 . S
H1066 C1063 0.999 . S
H1067 C1048 0.913 . S
H1068 C1086 0.951 . S
H1069 C1088 0.951 . S
H1070 C1090 0.950 . S
H1071 C1091 0.950 1_655 S
H1072 C1093 0.950 . S
H1073 C1096 0.950 . S
H1074 C1097 0.950 . S
H1075 C1099 0.950 . S
H1076 C1100 0.950 1_554 S
H1077 C1101 0.951 . S
H1078 C1103 0.951 . S
H1079 C1105 0.950 . S
H1080 C1106 0.950 . S
H1081 C1108 0.950 . S
H1082 C1111 0.950 . S
H1083 C1112 0.950 . S
H1084 C1114 0.950 . S
H1085 C1115 0.950 1_556 S
C1086 H1068 0.951 . S
C1086 C1087 1.366 1_455 S
C1086 C1088 1.388 . S
C1087 C1086 1.366 1_655 S
C1087 C1091 1.385 1_655 S
C1088 H1069 0.951 . S
C1088 C1086 1.388 . S
C1088 C1089 1.366 . S
C1089 C1088 1.366 . S
C1089 C1090 1.414 . S
C1089 C1092 1.499 . S
C1090 H1070 0.950 . S
C1090 C1089 1.414 . S
C1090 C1091 1.374 . S
C1091 H1071 0.950 1_455 S
C1091 C1087 1.385 1_455 S
C1091 C1090 1.374 . S
C1092 C1089 1.499 . S
C1092 C1093 1.389 . S
C1092 C1094 1.389 . S
C1093 H1072 0.950 . S
C1093 C1092 1.389 . S
C1093 C1109 1.361 1_556 S
C1094 C1092 1.389 . S
C1094 C1095 1.524 . S
C1094 C1108 1.361 1_556 S
C1095 C1094 1.524 . S
C1095 C1096 1.397 . S
C1095 C1100 1.363 . S
C1096 H1073 0.950 . S
C1096 C1095 1.397 . S
C1096 C1097 1.334 . S
C1097 H1074 0.950 . S
C1097 C1096 1.334 . S
C1097 C1098 1.287 . S
C1098 C1097 1.287 . S
C1098 C1099 1.524 . S
C1098 H1117 0.913 . S
C1099 H1075 0.950 . S
C1099 C1098 1.524 . S
C1099 C1100 1.415 . S
C1100 H1076 0.950 1_556 S
C1100 C1095 1.363 . S
C1100 C1099 1.415 . S
C1101 H1077 0.951 . S
C1101 C1102 1.366 . S
C1101 C1103 1.388 . S
C1102 C1101 1.366 . S
C1102 C1106 1.385 . S
C1103 H1078 0.951 . S
C1103 C1101 1.388 . S
C1103 C1104 1.366 . S
C1104 C1103 1.366 . S
C1104 C1105 1.414 . S
C1104 C1107 1.499 . S
C1105 H1079 0.950 . S
C1105 C1104 1.414 . S
C1105 C1106 1.374 . S
C1106 H1080 0.950 . S
C1106 C1102 1.385 . S
C1106 C1105 1.374 . S
C1107 C1104 1.499 . S
C1107 C1108 1.389 . S
C1107 C1109 1.389 . S
C1108 H1081 0.950 . S
C1108 C1094 1.361 1_554 S
C1108 C1107 1.389 . S
C1109 C1093 1.361 1_554 S
C1109 C1107 1.389 . S
C1109 C1110 1.524 . S
C1110 C1109 1.524 . S
C1110 C1111 1.397 . S
C1110 C1115 1.363 . S
C1111 H1082 0.950 . S
C1111 C1110 1.397 . S
C1111 C1112 1.334 . S
C1112 H1083 0.950 . S
C1112 C1111 1.334 . S
C1112 C1113 1.287 . S
C1113 C1112 1.287 . S
C1113 C1114 1.524 . S
C1113 H1116 0.999 . S
C1114 H1084 0.950 . S
C1114 C1113 1.524 . S
C1114 C1115 1.415 . S
C1115 H1085 0.950 1_554 S
C1115 C1110 1.363 . S
C1115 C1114 1.415 . S
H1116 C1113 0.999 . S
H1117 C1098 0.913 . S
H1118 C1136 0.951 1_565 S
H1119 C1138 0.951 . S
H1120 C1140 0.950 . S
H1121 C1141 0.950 . S
H1122 C1143 0.950 . S
H1123 C1146 0.950 . S
H1124 C1147 0.950 . S
H1125 C1149 0.950 . S
H1126 C1150 0.950 . S
H1127 C1151 0.951 1_455 S
H1128 C1153 0.951 . S
H1129 C1155 0.950 . S
H1130 C1156 0.950 . S
H1131 C1158 0.950 . S
H1132 C1161 0.950 . S
H1133 C1162 0.950 . S
H1134 C1164 0.950 . S
H1135 C1165 0.950 . S
C1136 H1118 0.951 1_545 S
C1136 C1137 1.366 . S
C1136 C1138 1.388 . S
C1137 C1136 1.366 . S
C1137 C1141 1.385 . S
C1138 H1119 0.951 . S
C1138 C1136 1.388 . S
C1138 C1139 1.366 . S
C1139 C1138 1.366 . S
C1139 C1140 1.414 . S
C1139 C1142 1.499 . S
C1140 H1120 0.950 . S
C1140 C1139 1.414 . S
C1140 C1141 1.374 . S
C1141 H1121 0.950 . S
C1141 C1137 1.385 . S
C1141 C1140 1.374 . S
C1142 C1139 1.499 . S
C1142 C1143 1.373 . S
C1142 C1144 1.389 . S
C1143 H1122 0.950 . S
C1143 C1142 1.373 . S
C1143 C1159 1.377 . S
C1144 C1142 1.389 . S
C1144 C1145 1.524 . S
C1144 C1158 1.377 . S
C1145 C1144 1.524 . S
C1145 C1146 1.397 . S
C1145 C1150 1.363 . S
C1146 H1123 0.950 . S
C1146 C1145 1.397 . S
C1146 C1147 1.334 . S
C1147 H1124 0.950 . S
C1147 C1146 1.334 . S
C1147 C1148 1.287 . S
C1148 C1147 1.287 . S
C1148 C1149 1.524 . S
C1148 H1167 0.913 . S
C1149 H1125 0.950 . S
C1149 C1148 1.524 . S
C1149 C1150 1.415 . S
C1150 H1126 0.950 . S
C1150 C1145 1.363 . S
C1150 C1149 1.415 . S
C1151 H1127 0.951 1_655 S
C1151 C1152 1.366 1_655 S
C1151 C1153 1.388 . S
C1152 C1151 1.366 1_455 S
C1152 C1156 1.385 1_455 S
C1153 H1128 0.951 . S
C1153 C1151 1.388 . S
C1153 C1154 1.366 . S
C1154 C1153 1.366 . S
C1154 C1155 1.414 . S
C1154 C1157 1.499 . S
C1155 H1129 0.950 . S
C1155 C1154 1.414 . S
C1155 C1156 1.374 . S
C1156 H1130 0.950 . S
C1156 C1152 1.385 1_655 S
C1156 C1155 1.374 . S
C1157 C1154 1.499 . S
C1157 C1158 1.373 . S
C1157 C1159 1.389 . S
C1158 H1131 0.950 . S
C1158 C1144 1.377 . S
C1158 C1157 1.373 . S
C1159 C1143 1.377 . S
C1159 C1157 1.389 . S
C1159 C1160 1.524 . S
C1160 C1159 1.524 . S
C1160 C1161 1.397 . S
C1160 C1165 1.363 . S
C1161 H1132 0.950 . S
C1161 C1160 1.397 . S
C1161 C1162 1.334 1_655 S
C1162 H1133 0.950 . S
C1162 C1161 1.334 1_455 S
C1162 C1163 1.287 . S
C1163 C1162 1.287 . S
C1163 C1164 1.524 1_455 S
C1163 H1166 0.999 . S
C1164 H1134 0.950 . S
C1164 C1163 1.524 1_655 S
C1164 C1165 1.415 . S
C1165 H1135 0.950 . S
C1165 C1160 1.363 . S
C1165 C1164 1.415 . S
H1166 C1163 0.999 . S
H1167 C1148 0.913 . S
H1168 C1186 0.951 . S
H1169 C1188 0.951 . S
H1170 C1190 0.950 . S
H1171 C1191 0.950 . S
H1172 C1193 0.950 . S
H1173 C1196 0.950 . S
H1174 C1197 0.950 . S
H1175 C1199 0.950 . S
H1176 C1200 0.950 . S
H1177 C1201 0.951 1_545 S
H1178 C1203 0.951 . S
H1179 C1205 0.950 . S
H1180 C1206 0.950 . S
H1181 C1208 0.950 . S
H1182 C1211 0.950 . S
H1183 C1212 0.950 . S
H1184 C1214 0.950 . S
H1185 C1215 0.950 . S
C1186 H1168 0.951 . S
C1186 C1187 1.366 . S
C1186 C1188 1.388 . S
C1187 C1186 1.366 . S
C1187 C1191 1.385 . S
C1188 H1169 0.951 . S
C1188 C1186 1.388 . S
C1188 C1189 1.366 . S
C1189 C1188 1.366 . S
C1189 C1190 1.414 . S
C1189 C1192 1.499 . S
C1190 H1170 0.950 . S
C1190 C1189 1.414 . S
C1190 C1191 1.374 . S
C1191 H1171 0.950 . S
C1191 C1187 1.385 . S
C1191 C1190 1.374 . S
C1192 C1189 1.499 . S
C1192 C1193 1.373 . S
C1192 C1194 1.389 . S
C1193 H1172 0.950 . S
C1193 C1192 1.373 . S
C1193 C1209 1.377 . S
C1194 C1192 1.389 . S
C1194 C1195 1.524 . S
C1194 C1208 1.377 . S
C1195 C1194 1.524 . S
C1195 C1196 1.397 . S
C1195 C1200 1.363 . S
C1196 H1173 0.950 . S
C1196 C1195 1.397 . S
C1196 C1197 1.334 . S
C1197 H1174 0.950 . S
C1197 C1196 1.334 . S
C1197 C1198 1.287 . S
C1198 C1197 1.287 . S
C1198 C1199 1.524 . S
C1198 H1217 0.913 . S
C1199 H1175 0.950 . S
C1199 C1198 1.524 . S
C1199 C1200 1.415 . S
C1200 H1176 0.950 . S
C1200 C1195 1.363 . S
C1200 C1199 1.415 . S
C1201 H1177 0.951 1_565 S
C1201 C1202 1.366 . S
C1201 C1203 1.388 . S
C1202 C1201 1.366 . S
C1202 C1206 1.385 . S
C1203 H1178 0.951 . S
C1203 C1201 1.388 . S
C1203 C1204 1.366 . S
C1204 C1203 1.366 . S
C1204 C1205 1.414 . S
C1204 C1207 1.499 . S
C1205 H1179 0.950 . S
C1205 C1204 1.414 . S
C1205 C1206 1.374 . S
C1206 H1180 0.950 . S
C1206 C1202 1.385 . S
C1206 C1205 1.374 . S
C1207 C1204 1.499 . S
C1207 C1208 1.373 . S
C1207 C1209 1.389 . S
C1208 H1181 0.950 . S
C1208 C1194 1.377 . S
C1208 C1207 1.373 . S
C1209 C1193 1.377 . S
C1209 C1207 1.389 . S
C1209 C1210 1.524 . S
C1210 C1209 1.524 . S
C1210 C1211 1.397 . S
C1210 C1215 1.363 . S
C1211 H1182 0.950 . S
C1211 C1210 1.397 . S
C1211 C1212 1.334 . S
C1212 H1183 0.950 . S
C1212 C1211 1.334 . S
C1212 C1213 1.287 . S
C1213 C1212 1.287 . S
C1213 C1214 1.524 . S
C1213 H1216 0.999 . S
C1214 H1184 0.950 . S
C1214 C1213 1.524 . S
C1214 C1215 1.415 . S
C1215 H1185 0.950 . S
C1215 C1210 1.363 . S
C1215 C1214 1.415 . S
H1216 C1213 0.999 . S
H1217 C1198 0.913 . S
H1218 C1236 0.951 . S
H1219 C1238 0.951 . S
H1220 C1240 0.950 . S
H1221 C1241 0.950 . S
H1222 C1243 0.950 . S
H1223 C1246 0.950 . S
H1224 C1247 0.950 . S
H1225 C1249 0.950 . S
H1226 C1250 0.950 1_554 S
H1227 C1251 0.951 . S
H1228 C1253 0.951 . S
H1229 C1255 0.950 . S
H1230 C1256 0.950 . S
H1231 C1258 0.950 . S
H1232 C1261 0.950 . S
H1233 C1262 0.950 . S
H1234 C1264 0.950 . S
H1235 C1265 0.950 1_556 S
C1236 H1218 0.951 . S
C1236 C1237 1.366 . S
C1236 C1238 1.388 . S
C1237 C1236 1.366 . S
C1237 C1241 1.385 . S
C1238 H1219 0.951 . S
C1238 C1236 1.388 . S
C1238 C1239 1.366 . S
C1239 C1238 1.366 . S
C1239 C1240 1.414 . S
C1239 C1242 1.499 . S
C1240 H1220 0.950 . S
C1240 C1239 1.414 . S
C1240 C1241 1.374 . S
C1241 H1221 0.950 . S
C1241 C1237 1.385 . S
C1241 C1240 1.374 . S
C1242 C1239 1.499 . S
C1242 C1243 1.373 . S
C1242 C1244 1.389 1_554 S
C1243 H1222 0.950 . S
C1243 C1242 1.373 . S
C1243 C1259 1.377 . S
C1244 C1242 1.389 1_556 S
C1244 C1245 1.524 . S
C1244 C1258 1.377 . S
C1245 C1244 1.524 . S
C1245 C1246 1.397 . S
C1245 C1250 1.363 . S
C1246 H1223 0.950 . S
C1246 C1245 1.397 . S
C1246 C1247 1.334 . S
C1247 H1224 0.950 . S
C1247 C1246 1.334 . S
C1247 C1248 1.287 . S
C1248 C1247 1.287 . S
C1248 C1249 1.524 . S
C1248 H1267 0.913 . S
C1249 H1225 0.950 . S
C1249 C1248 1.524 . S
C1249 C1250 1.415 . S
C1250 H1226 0.950 1_556 S
C1250 C1245 1.363 . S
C1250 C1249 1.415 . S
C1251 H1227 0.951 . S
C1251 C1252 1.366 1_655 S
C1251 C1253 1.388 . S
C1252 C1251 1.366 1_455 S
C1252 C1256 1.385 . S
C1253 H1228 0.951 . S
C1253 C1251 1.388 . S
C1253 C1254 1.366 . S
C1254 C1253 1.366 . S
C1254 C1255 1.414 . S
C1254 C1257 1.499 . S
C1255 H1229 0.950 . S
C1255 C1254 1.414 . S
C1255 C1256 1.374 1_655 S
C1256 H1230 0.950 . S
C1256 C1252 1.385 . S
C1256 C1255 1.374 1_455 S
C1257 C1254 1.499 . S
C1257 C1258 1.373 . S
C1257 C1259 1.389 1_556 S
C1258 H1231 0.950 . S
C1258 C1244 1.377 . S
C1258 C1257 1.373 . S
C1259 C1243 1.377 . S
C1259 C1257 1.389 1_554 S
C1259 C1260 1.524 . S
C1260 C1259 1.524 . S
C1260 C1261 1.397 . S
C1260 C1265 1.363 . S
C1261 H1232 0.950 . S
C1261 C1260 1.397 . S
C1261 C1262 1.334 . S
C1262 H1233 0.950 . S
C1262 C1261 1.334 . S
C1262 C1263 1.287 . S
C1263 C1262 1.287 . S
C1263 C1264 1.524 . S
C1263 H1266 0.999 . S
C1264 H1234 0.950 . S
C1264 C1263 1.524 . S
C1264 C1265 1.415 . S
C1265 H1235 0.950 1_554 S
C1265 C1260 1.363 . S
C1265 C1264 1.415 . S
H1266 C1263 0.999 . S
H1267 C1248 0.913 . S
H1268 C1286 0.951 . S
H1269 C1288 0.951 . S
H1270 C1290 0.950 . S
H1271 C1291 0.950 1_655 S
H1272 C1293 0.950 . S
H1273 C1296 0.950 . S
H1274 C1297 0.950 1_655 S
H1275 C1299 0.950 . S
H1276 C1300 0.950 . S
H1277 C1301 0.951 . S
H1278 C1303 0.951 . S
H1279 C1305 0.950 . S
H1280 C1306 0.950 1_545 S
H1281 C1308 0.950 . S
H1282 C1311 0.950 . S
H1283 C1312 0.950 . S
H1284 C1314 0.950 . S
H1285 C1315 0.950 . S
C1286 H1268 0.951 . S
C1286 C1287 1.366 1_455 S
C1286 C1288 1.388 . S
C1287 C1286 1.366 1_655 S
C1287 C1291 1.385 1_655 S
C1288 H1269 0.951 . S
C1288 C1286 1.388 . S
C1288 C1289 1.366 . S
C1289 C1288 1.366 . S
C1289 C1290 1.414 . S
C1289 C1292 1.499 . S
C1290 H1270 0.950 . S
C1290 C1289 1.414 . S
C1290 C1291 1.374 . S
C1291 H1271 0.950 1_455 S
C1291 C1287 1.385 1_455 S
C1291 C1290 1.374 . S
C1292 C1289 1.499 . S
C1292 C1293 1.373 . S
C1292 C1294 1.389 . S
C1293 H1272 0.950 . S
C1293 C1292 1.373 . S
C1293 C1309 1.377 . S
C1294 C1292 1.389 . S
C1294 C1295 1.524 . S
C1294 C1308 1.377 . S
C1295 C1294 1.524 . S
C1295 C1296 1.397 . S
C1295 C1300 1.363 . S
C1296 H1273 0.950 . S
C1296 C1295 1.397 . S
C1296 C1297 1.334 . S
C1297 H1274 0.950 1_455 S
C1297 C1296 1.334 . S
C1297 C1298 1.287 . S
C1298 C1297 1.287 . S
C1298 C1299 1.524 . S
C1298 H1317 0.913 . S
C1299 H1275 0.950 . S
C1299 C1298 1.524 . S
C1299 C1300 1.415 . S
C1300 H1276 0.950 . S
C1300 C1295 1.363 . S
C1300 C1299 1.415 . S
C1301 H1277 0.951 . S
C1301 C1302 1.366 . S
C1301 C1303 1.388 . S
C1302 C1301 1.366 . S
C1302 C1306 1.385 . S
C1303 H1278 0.951 . S
C1303 C1301 1.388 . S
C1303 C1304 1.366 . S
C1304 C1303 1.366 . S
C1304 C1305 1.414 . S
C1304 C1307 1.499 . S
C1305 H1279 0.950 . S
C1305 C1304 1.414 . S
C1305 C1306 1.374 . S
C1306 H1280 0.950 1_565 S
C1306 C1302 1.385 . S
C1306 C1305 1.374 . S
C1307 C1304 1.499 . S
C1307 C1308 1.373 . S
C1307 C1309 1.389 . S
C1308 H1281 0.950 . S
C1308 C1294 1.377 . S
C1308 C1307 1.373 . S
C1309 C1293 1.377 . S
C1309 C1307 1.389 . S
C1309 C1310 1.524 . S
C1310 C1309 1.524 . S
C1310 C1311 1.397 . S
C1310 C1315 1.363 . S
C1311 H1282 0.950 . S
C1311 C1310 1.397 . S
C1311 C1312 1.334 . S
C1312 H1283 0.950 . S
C1312 C1311 1.334 . S
C1312 C1313 1.287 . S
C1313 C1312 1.287 . S
C1313 C1314 1.524 . S
C1313 H1316 0.999 . S
C1314 H1284 0.950 . S
C1314 C1313 1.524 . S
C1314 C1315 1.415 . S
C1315 H1285 0.950 . S
C1315 C1310 1.363 . S
C1315 C1314 1.415 . S
H1316 C1313 0.999 . S
H1317 C1298 0.913 . S
H1318 C1336 0.951 . S
H1319 C1338 0.951 . S
H1320 C1340 0.950 . S
H1321 C1341 0.950 . S
H1322 C1343 0.950 . S
H1323 C1346 0.950 . S
H1324 C1347 0.950 . S
H1325 C1349 0.950 . S
H1326 C1350 0.950 . S
H1327 C1351 0.951 . S
H1328 C1353 0.951 . S
H1329 C1355 0.950 . S
H1330 C1356 0.950 . S
H1331 C1358 0.950 . S
H1332 C1361 0.950 . S
H1333 C1362 0.950 . S
H1334 C1364 0.950 . S
H1335 C1365 0.950 . S
C1336 H1318 0.951 . S
C1336 C1337 1.366 . S
C1336 C1338 1.388 . S
C1337 C1336 1.366 . S
C1337 C1341 1.385 1_545 S
C1338 H1319 0.951 . S
C1338 C1336 1.388 . S
C1338 C1339 1.366 . S
C1339 C1338 1.366 . S
C1339 C1340 1.414 . S
C1339 C1342 1.499 . S
C1340 H1320 0.950 . S
C1340 C1339 1.414 . S
C1340 C1341 1.374 1_545 S
C1341 H1321 0.950 . S
C1341 C1337 1.385 1_565 S
C1341 C1340 1.374 1_565 S
C1342 C1339 1.499 . S
C1342 C1343 1.373 . S
C1342 C1344 1.389 . S
C1343 H1322 0.950 . S
C1343 C1342 1.373 . S
C1343 C1359 1.377 . S
C1344 C1342 1.389 . S
C1344 C1345 1.524 . S
C1344 C1358 1.377 . S
C1345 C1344 1.524 . S
C1345 C1346 1.397 . S
C1345 C1350 1.363 . S
C1346 H1323 0.950 . S
C1346 C1345 1.397 . S
C1346 C1347 1.334 . S
C1347 H1324 0.950 . S
C1347 C1346 1.334 . S
C1347 C1348 1.287 . S
C1348 C1347 1.287 . S
C1348 C1349 1.524 . S
C1348 H1367 0.913 . S
C1349 H1325 0.950 . S
C1349 C1348 1.524 . S
C1349 C1350 1.415 . S
C1350 H1326 0.950 . S
C1350 C1345 1.363 . S
C1350 C1349 1.415 . S
C1351 H1327 0.951 . S
C1351 C1352 1.366 . S
C1351 C1353 1.388 . S
C1352 C1351 1.366 . S
C1352 C1356 1.385 . S
C1353 H1328 0.951 . S
C1353 C1351 1.388 . S
C1353 C1354 1.366 . S
C1354 C1353 1.366 . S
C1354 C1355 1.414 . S
C1354 C1357 1.499 . S
C1355 H1329 0.950 . S
C1355 C1354 1.414 . S
C1355 C1356 1.374 . S
C1356 H1330 0.950 . S
C1356 C1352 1.385 . S
C1356 C1355 1.374 . S
C1357 C1354 1.499 . S
C1357 C1358 1.373 . S
C1357 C1359 1.389 . S
C1358 H1331 0.950 . S
C1358 C1344 1.377 . S
C1358 C1357 1.373 . S
C1359 C1343 1.377 . S
C1359 C1357 1.389 . S
C1359 C1360 1.524 . S
C1360 C1359 1.524 . S
C1360 C1361 1.397 . S
C1360 C1365 1.363 . S
C1361 H1332 0.950 . S
C1361 C1360 1.397 . S
C1361 C1362 1.334 . S
C1362 H1333 0.950 . S
C1362 C1361 1.334 . S
C1362 C1363 1.287 . S
C1363 C1362 1.287 . S
C1363 C1364 1.524 . S
C1363 H1366 0.999 . S
C1364 H1334 0.950 . S
C1364 C1363 1.524 . S
C1364 C1365 1.415 . S
C1365 H1335 0.950 . S
C1365 C1360 1.363 . S
C1365 C1364 1.415 . S
H1366 C1363 0.999 . S
H1367 C1348 0.913 . S
C187 C53 1.204 . S
C202 C11 1.205 . S
C237 C23 1.339 . S
C252 C65 1.340 . S
C287 C79 1.244 . S
C302 C37 1.244 . S
C337 C93 1.339 . S
C352 C135 1.339 . S
C387 C151 1.204 . S
C402 C109 1.204 . S
C437 C121 1.244 . S
C452 C163 1.244 . S
C487 C123 1.662 . S
C502 C9 1.671 . S
C537 C25 1.697 . S
C552 C137 1.698 . S
C587 C39 1.663 . S
C602 C149 1.671 . S
C637 C51 1.671 . S
C652 C165 1.662 . S
C687 C95 1.698 . S
C702 C67 1.698 . S
C737 C107 1.671 . S
C752 C81 1.662 . S
C787 C103 1.110 . S
C802 C5 1.111 . S
C837 C14 1.234 . S
C852 C112 1.237 . S
C887 C28 1.238 . S
C902 C126 1.233 . S
C937 C47 1.110 . S
C952 C145 1.111 . S
C987 C154 1.238 . S
C1002 C56 1.233 . S
C1037 C70 1.238 . S
C1052 C84 1.233 . S
C1087 C140 1.279 . S
C1102 C0 1.279 . S
C1137 C159 1.475 1_545 S
C1152 C19 1.474 . S
C1187 C89 1.474 . S
C1202 C33 1.475 1_565 S
C1237 C42 1.279 . S
C1252 C98 1.279 . S
C1287 C61 1.474 . S
C1302 C117 1.474 1_565 S
C1337 C75 1.475 1_545 S
C1352 C131 1.474 . S
