# Generated by pormake.
# Topology unx, (4)-cn, num edge types: 1
# Building blocks:
#     Node 0, Type 0, BuildingBlock: QUQFOY_clean_sbu_1, # of connection points: 4
#     Node 1, Type 0, BuildingBlock: QUQFOY_clean_sbu_1, # of connection points: 4
#     Node 2, Type 0, BuildingBlock: QUQFOY_clean_sbu_1, # of connection points: 4
#     Node 3, Type 0, BuildingBlock: QUQFOY_clean_sbu_1, # of connection points: 4
#     Node 4, Type 0, BuildingBlock: QUQFOY_clean_sbu_1, # of connection points: 4
#     Node 5, Type 0, BuildingBlock: QUQFOY_clean_sbu_1, # of connection points: 4
#     Node 6, Type 0, BuildingBlock: QUQFOY_clean_sbu_1, # of connection points: 4
#     Node 7, Type 0, BuildingBlock: QUQFOY_clean_sbu_1, # of connection points: 4
#     Node 8, Type 0, BuildingBlock: QUQFOY_clean_sbu_1, # of connection points: 4
#     Node 9, Type 0, BuildingBlock: QUQFOY_clean_sbu_1, # of connection points: 4
#     Node 10, Type 0, BuildingBlock: QUQFOY_clean_sbu_1, # of connection points: 4
#     Node 11, Type 0, BuildingBlock: QUQFOY_clean_sbu_1, # of connection points: 4
#     Node 12, Type 0, BuildingBlock: QUQFOY_clean_sbu_1, # of connection points: 4
#     Node 13, Type 0, BuildingBlock: QUQFOY_clean_sbu_1, # of connection points: 4
#     Node 14, Type 0, BuildingBlock: QUQFOY_clean_sbu_1, # of connection points: 4
#     Node 15, Type 0, BuildingBlock: QUQFOY_clean_sbu_1, # of connection points: 4
#     Node 16, Type 0, BuildingBlock: QUQFOY_clean_sbu_1, # of connection points: 4
#     Node 17, Type 0, BuildingBlock: QUQFOY_clean_sbu_1, # of connection points: 4
#     Node 18, Type 0, BuildingBlock: QUQFOY_clean_sbu_1, # of connection points: 4
#     Node 19, Type 0, BuildingBlock: QUQFOY_clean_sbu_1, # of connection points: 4
#     Node 20, Type 0, BuildingBlock: QUQFOY_clean_sbu_1, # of connection points: 4
#     Node 21, Type 0, BuildingBlock: QUQFOY_clean_sbu_1, # of connection points: 4
#     Node 22, Type 0, BuildingBlock: QUQFOY_clean_sbu_1, # of connection points: 4
#     Node 23, Type 0, BuildingBlock: QUQFOY_clean_sbu_1, # of connection points: 4
#     Node 24, Type 0, BuildingBlock: QUQFOY_clean_sbu_1, # of connection points: 4
#     Node 25, Type 0, BuildingBlock: QUQFOY_clean_sbu_1, # of connection points: 4
#     Node 26, Type 0, BuildingBlock: QUQFOY_clean_sbu_1, # of connection points: 4
#     Node 27, Type 0, BuildingBlock: QUQFOY_clean_sbu_1, # of connection points: 4
#     Node 28, Type 0, BuildingBlock: QUQFOY_clean_sbu_1, # of connection points: 4
#     Node 29, Type 0, BuildingBlock: QUQFOY_clean_sbu_1, # of connection points: 4
#     Node 30, Type 0, BuildingBlock: QUQFOY_clean_sbu_1, # of connection points: 4
#     Node 31, Type 0, BuildingBlock: QUQFOY_clean_sbu_1, # of connection points: 4
#     Node 32, Type 0, BuildingBlock: QUQFOY_clean_sbu_1, # of connection points: 4
#     Node 33, Type 0, BuildingBlock: QUQFOY_clean_sbu_1, # of connection points: 4
#     Node 34, Type 0, BuildingBlock: QUQFOY_clean_sbu_1, # of connection points: 4
#     Node 35, Type 0, BuildingBlock: QUQFOY_clean_sbu_1, # of connection points: 4
#     Node 36, Type 0, BuildingBlock: QUQFOY_clean_sbu_1, # of connection points: 4
#     Node 37, Type 0, BuildingBlock: QUQFOY_clean_sbu_1, # of connection points: 4
#     Node 38, Type 0, BuildingBlock: QUQFOY_clean_sbu_1, # of connection points: 4
#     Node 39, Type 0, BuildingBlock: QUQFOY_clean_sbu_1, # of connection points: 4
#     Node 40, Type 0, BuildingBlock: QUQFOY_clean_sbu_1, # of connection points: 4
#     Node 41, Type 0, BuildingBlock: QUQFOY_clean_sbu_1, # of connection points: 4
#     Node 42, Type 0, BuildingBlock: QUQFOY_clean_sbu_1, # of connection points: 4
#     Node 43, Type 0, BuildingBlock: QUQFOY_clean_sbu_1, # of connection points: 4
#     Node 44, Type 0, BuildingBlock: QUQFOY_clean_sbu_1, # of connection points: 4
#     Node 45, Type 0, BuildingBlock: QUQFOY_clean_sbu_1, # of connection points: 4
#     Node 46, Type 0, BuildingBlock: QUQFOY_clean_sbu_1, # of connection points: 4
#     Node 47, Type 0, BuildingBlock: QUQFOY_clean_sbu_1, # of connection points: 4
#     Edge 48, Type (0, 0), BuildingBlock: XUDNAN_clean_linker_2, # of connection points: 2
#     Edge 49, Type (0, 0), BuildingBlock: XUDNAN_clean_linker_2, # of connection points: 2
#     Edge 50, Type (0, 0), BuildingBlock: XUDNAN_clean_linker_2, # of connection points: 2
#     Edge 51, Type (0, 0), BuildingBlock: XUDNAN_clean_linker_2, # of connection points: 2
#     Edge 52, Type (0, 0), BuildingBlock: XUDNAN_clean_linker_2, # of connection points: 2
#     Edge 53, Type (0, 0), BuildingBlock: XUDNAN_clean_linker_2, # of connection points: 2
#     Edge 54, Type (0, 0), BuildingBlock: XUDNAN_clean_linker_2, # of connection points: 2
#     Edge 55, Type (0, 0), BuildingBlock: XUDNAN_clean_linker_2, # of connection points: 2
#     Edge 56, Type (0, 0), BuildingBlock: XUDNAN_clean_linker_2, # of connection points: 2
#     Edge 57, Type (0, 0), BuildingBlock: XUDNAN_clean_linker_2, # of connection points: 2
#     Edge 58, Type (0, 0), BuildingBlock: XUDNAN_clean_linker_2, # of connection points: 2
#     Edge 59, Type (0, 0), BuildingBlock: XUDNAN_clean_linker_2, # of connection points: 2
#     Edge 60, Type (0, 0), BuildingBlock: XUDNAN_clean_linker_2, # of connection points: 2
#     Edge 61, Type (0, 0), BuildingBlock: XUDNAN_clean_linker_2, # of connection points: 2
#     Edge 62, Type (0, 0), BuildingBlock: XUDNAN_clean_linker_2, # of connection points: 2
#     Edge 63, Type (0, 0), BuildingBlock: XUDNAN_clean_linker_2, # of connection points: 2
#     Edge 64, Type (0, 0), BuildingBlock: XUDNAN_clean_linker_2, # of connection points: 2
#     Edge 65, Type (0, 0), BuildingBlock: XUDNAN_clean_linker_2, # of connection points: 2
#     Edge 66, Type (0, 0), BuildingBlock: XUDNAN_clean_linker_2, # of connection points: 2
#     Edge 67, Type (0, 0), BuildingBlock: XUDNAN_clean_linker_2, # of connection points: 2
#     Edge 68, Type (0, 0), BuildingBlock: XUDNAN_clean_linker_2, # of connection points: 2
#     Edge 69, Type (0, 0), BuildingBlock: XUDNAN_clean_linker_2, # of connection points: 2
#     Edge 70, Type (0, 0), BuildingBlock: XUDNAN_clean_linker_2, # of connection points: 2
#     Edge 71, Type (0, 0), BuildingBlock: XUDNAN_clean_linker_2, # of connection points: 2
#     Edge 72, Type (0, 0), BuildingBlock: XUDNAN_clean_linker_2, # of connection points: 2
#     Edge 73, Type (0, 0), BuildingBlock: XUDNAN_clean_linker_2, # of connection points: 2
#     Edge 74, Type (0, 0), BuildingBlock: XUDNAN_clean_linker_2, # of connection points: 2
#     Edge 75, Type (0, 0), BuildingBlock: XUDNAN_clean_linker_2, # of connection points: 2
#     Edge 76, Type (0, 0), BuildingBlock: XUDNAN_clean_linker_2, # of connection points: 2
#     Edge 77, Type (0, 0), BuildingBlock: XUDNAN_clean_linker_2, # of connection points: 2
#     Edge 78, Type (0, 0), BuildingBlock: XUDNAN_clean_linker_2, # of connection points: 2
#     Edge 79, Type (0, 0), BuildingBlock: XUDNAN_clean_linker_2, # of connection points: 2
#     Edge 80, Type (0, 0), BuildingBlock: XUDNAN_clean_linker_2, # of connection points: 2
#     Edge 81, Type (0, 0), BuildingBlock: XUDNAN_clean_linker_2, # of connection points: 2
#     Edge 82, Type (0, 0), BuildingBlock: XUDNAN_clean_linker_2, # of connection points: 2
#     Edge 83, Type (0, 0), BuildingBlock: XUDNAN_clean_linker_2, # of connection points: 2
#     Edge 84, Type (0, 0), BuildingBlock: XUDNAN_clean_linker_2, # of connection points: 2
#     Edge 85, Type (0, 0), BuildingBlock: XUDNAN_clean_linker_2, # of connection points: 2
#     Edge 86, Type (0, 0), BuildingBlock: XUDNAN_clean_linker_2, # of connection points: 2
#     Edge 87, Type (0, 0), BuildingBlock: XUDNAN_clean_linker_2, # of connection points: 2
#     Edge 88, Type (0, 0), BuildingBlock: XUDNAN_clean_linker_2, # of connection points: 2
#     Edge 89, Type (0, 0), BuildingBlock: XUDNAN_clean_linker_2, # of connection points: 2
#     Edge 90, Type (0, 0), BuildingBlock: XUDNAN_clean_linker_2, # of connection points: 2
#     Edge 91, Type (0, 0), BuildingBlock: XUDNAN_clean_linker_2, # of connection points: 2
#     Edge 92, Type (0, 0), BuildingBlock: XUDNAN_clean_linker_2, # of connection points: 2
#     Edge 93, Type (0, 0), BuildingBlock: XUDNAN_clean_linker_2, # of connection points: 2
#     Edge 94, Type (0, 0), BuildingBlock: XUDNAN_clean_linker_2, # of connection points: 2
#     Edge 95, Type (0, 0), BuildingBlock: XUDNAN_clean_linker_2, # of connection points: 2
#     Edge 96, Type (0, 0), BuildingBlock: XUDNAN_clean_linker_2, # of connection points: 2
#     Edge 97, Type (0, 0), BuildingBlock: XUDNAN_clean_linker_2, # of connection points: 2
#     Edge 98, Type (0, 0), BuildingBlock: XUDNAN_clean_linker_2, # of connection points: 2
#     Edge 99, Type (0, 0), BuildingBlock: XUDNAN_clean_linker_2, # of connection points: 2
#     Edge 100, Type (0, 0), BuildingBlock: XUDNAN_clean_linker_2, # of connection points: 2
#     Edge 101, Type (0, 0), BuildingBlock: XUDNAN_clean_linker_2, # of connection points: 2
#     Edge 102, Type (0, 0), BuildingBlock: XUDNAN_clean_linker_2, # of connection points: 2
#     Edge 103, Type (0, 0), BuildingBlock: XUDNAN_clean_linker_2, # of connection points: 2
#     Edge 104, Type (0, 0), BuildingBlock: XUDNAN_clean_linker_2, # of connection points: 2
#     Edge 105, Type (0, 0), BuildingBlock: XUDNAN_clean_linker_2, # of connection points: 2
#     Edge 106, Type (0, 0), BuildingBlock: XUDNAN_clean_linker_2, # of connection points: 2
#     Edge 107, Type (0, 0), BuildingBlock: XUDNAN_clean_linker_2, # of connection points: 2
#     Edge 108, Type (0, 0), BuildingBlock: XUDNAN_clean_linker_2, # of connection points: 2
#     Edge 109, Type (0, 0), BuildingBlock: XUDNAN_clean_linker_2, # of connection points: 2
#     Edge 110, Type (0, 0), BuildingBlock: XUDNAN_clean_linker_2, # of connection points: 2
#     Edge 111, Type (0, 0), BuildingBlock: XUDNAN_clean_linker_2, # of connection points: 2
#     Edge 112, Type (0, 0), BuildingBlock: XUDNAN_clean_linker_2, # of connection points: 2
#     Edge 113, Type (0, 0), BuildingBlock: XUDNAN_clean_linker_2, # of connection points: 2
#     Edge 114, Type (0, 0), BuildingBlock: XUDNAN_clean_linker_2, # of connection points: 2
#     Edge 115, Type (0, 0), BuildingBlock: XUDNAN_clean_linker_2, # of connection points: 2
#     Edge 116, Type (0, 0), BuildingBlock: XUDNAN_clean_linker_2, # of connection points: 2
#     Edge 117, Type (0, 0), BuildingBlock: XUDNAN_clean_linker_2, # of connection points: 2
#     Edge 118, Type (0, 0), BuildingBlock: XUDNAN_clean_linker_2, # of connection points: 2
#     Edge 119, Type (0, 0), BuildingBlock: XUDNAN_clean_linker_2, # of connection points: 2
#     Edge 120, Type (0, 0), BuildingBlock: XUDNAN_clean_linker_2, # of connection points: 2
#     Edge 121, Type (0, 0), BuildingBlock: XUDNAN_clean_linker_2, # of connection points: 2
#     Edge 122, Type (0, 0), BuildingBlock: XUDNAN_clean_linker_2, # of connection points: 2
#     Edge 123, Type (0, 0), BuildingBlock: XUDNAN_clean_linker_2, # of connection points: 2
#     Edge 124, Type (0, 0), BuildingBlock: XUDNAN_clean_linker_2, # of connection points: 2
#     Edge 125, Type (0, 0), BuildingBlock: XUDNAN_clean_linker_2, # of connection points: 2
#     Edge 126, Type (0, 0), BuildingBlock: XUDNAN_clean_linker_2, # of connection points: 2
#     Edge 127, Type (0, 0), BuildingBlock: XUDNAN_clean_linker_2, # of connection points: 2
#     Edge 128, Type (0, 0), BuildingBlock: XUDNAN_clean_linker_2, # of connection points: 2
#     Edge 129, Type (0, 0), BuildingBlock: XUDNAN_clean_linker_2, # of connection points: 2
#     Edge 130, Type (0, 0), BuildingBlock: XUDNAN_clean_linker_2, # of connection points: 2
#     Edge 131, Type (0, 0), BuildingBlock: XUDNAN_clean_linker_2, # of connection points: 2
#     Edge 132, Type (0, 0), BuildingBlock: XUDNAN_clean_linker_2, # of connection points: 2
#     Edge 133, Type (0, 0), BuildingBlock: XUDNAN_clean_linker_2, # of connection points: 2
#     Edge 134, Type (0, 0), BuildingBlock: XUDNAN_clean_linker_2, # of connection points: 2
#     Edge 135, Type (0, 0), BuildingBlock: XUDNAN_clean_linker_2, # of connection points: 2
#     Edge 136, Type (0, 0), BuildingBlock: XUDNAN_clean_linker_2, # of connection points: 2
#     Edge 137, Type (0, 0), BuildingBlock: XUDNAN_clean_linker_2, # of connection points: 2
#     Edge 138, Type (0, 0), BuildingBlock: XUDNAN_clean_linker_2, # of connection points: 2
#     Edge 139, Type (0, 0), BuildingBlock: XUDNAN_clean_linker_2, # of connection points: 2
#     Edge 140, Type (0, 0), BuildingBlock: XUDNAN_clean_linker_2, # of connection points: 2
#     Edge 141, Type (0, 0), BuildingBlock: XUDNAN_clean_linker_2, # of connection points: 2
#     Edge 142, Type (0, 0), BuildingBlock: XUDNAN_clean_linker_2, # of connection points: 2
#     Edge 143, Type (0, 0), BuildingBlock: XUDNAN_clean_linker_2, # of connection points: 2
# Relax obj value: 0.333
# Max RMSD: 0.120
# Mean RMSD: 0.120
data_MOF--net-unx--node1-QUQFOY_clean_sbu_1--edge1-XUDNAN_clean_linker_2
_symmetry_space_group_name_H-M    P1
_symmetry_Int_Tables_number       1
_symmetry_cell_setting            triclinic
loop_
_symmetry_equiv_pos_as_xyz
'x, y, z'
_cell_length_a     61.588843
_cell_length_b     61.678859
_cell_length_c     61.606297
_cell_angle_alpha  89.995821
_cell_angle_beta   90.008196
_cell_angle_gamma 89.963998
loop_
_atom_site_label
_atom_site_type_symbol
_atom_site_fract_x
_atom_site_fract_y
_atom_site_fract_z
_atom_type_partial_charge
O0 O 0.1416 0.558 0.1931 0.0
Cd1 Cd 0.13572 0.5504 0.22468 0.0
Cd2 Cd 0.10527 0.5253 0.1984 0.0
O3 O 0.1345 0.52536 0.18091 0.0
O4 O 0.16258 0.56216 0.23817 0.0
O5 O 0.15535 0.52708 0.23647 0.0
C6 C 0.16911 0.54241 0.24042 0.0
C7 C 0.07479 0.5054 0.18783 0.0
C8 C 0.14508 0.54303 0.17948 0.0
C9 C 0.09246 0.56594 0.22551 0.0
O10 O 0.09125 0.55358 0.2091 0.0
O11 O 0.10908 0.56561 0.23774 0.0
O12 O 0.08369 0.51934 0.17512 0.0
O13 O 0.08495 0.50041 0.20548 0.0
O14 O 0.68672 0.36527 0.44153 0.0
Cd15 Cd 0.71852 0.3734 0.44499 0.0
Cd16 Cd 0.69861 0.39514 0.47372 0.0
O17 O 0.68153 0.3659 0.47653 0.0
O18 O 0.73083 0.35049 0.42635 0.0
O19 O 0.73502 0.35082 0.46204 0.0
C20 C 0.7361 0.34034 0.44388 0.0
C21 C 0.71208 0.41951 0.4983 0.0
C22 C 0.67684 0.35806 0.45801 0.0
C23 C 0.7106 0.41637 0.43256 0.0
O24 O 0.69506 0.41316 0.44576 0.0
O25 O 0.72623 0.40291 0.43162 0.0
O26 O 0.69137 0.41657 0.49641 0.0
O27 O 0.72498 0.40552 0.48933 0.0
O28 O 0.84473 0.95081 0.69456 0.0
Cd29 Cd 0.8541 0.94813 0.72611 0.0
Cd30 Cd 0.88413 0.97506 0.7054 0.0
O31 O 0.85689 0.98353 0.6876 0.0
O32 O 0.82712 0.9338 0.73672 0.0
O33 O 0.83636 0.96711 0.74614 0.0
C34 C 0.82175 0.95209 0.7453 0.0
C35 C 0.91585 0.99622 0.70469 0.0
C36 C 0.84416 0.96793 0.68322 0.0
C37 C 0.89362 0.9275 0.71465 0.0
O38 O 0.89412 0.94356 0.70178 0.0
O39 O 0.88036 0.92733 0.73053 0.0
O40 O 0.90699 0.98901 0.68728 0.0
O41 O 0.90573 0.99318 0.72276 0.0
O42 O 0.30299 0.14004 0.94924 0.0
Cd43 Cd 0.2709 0.13423 0.9536 0.0
Cd44 Cd 0.2943 0.10291 0.9798 0.0
O45 O 0.31544 0.12951 0.98107 0.0
O46 O 0.25889 0.16181 0.9413 0.0
O47 O 0.25678 0.15354 0.97609 0.0
C48 C 0.25452 0.1678 0.96087 0.0
C49 C 0.29662 0.07225 0.002 0.0
C50 C 0.31749 0.14069 0.9638 0.0
C51 C 0.27275 0.09187 0.93547 0.0
O52 O 0.28717 0.08988 0.95003 0.0
O53 O 0.26044 0.10845 0.93498 0.0
O54 O 0.31232 0.07779 0.98945 0.0
O55 O 0.28059 0.08557 0.00419 0.0
O56 O 0.09742 0.44766 0.79106 0.0
Cd57 Cd 0.10512 0.47822 0.80146 0.0
Cd58 Cd 0.14082 0.45672 0.77351 0.0
O59 O 0.11663 0.43609 0.76315 0.0
O60 O 0.08185 0.47899 0.82395 0.0
O61 O 0.08039 0.49916 0.79456 0.0
C62 C 0.07082 0.49163 0.81159 0.0
C63 C 0.17494 0.46183 0.75718 0.0
C64 C 0.10078 0.43385 0.77619 0.0
C65 C 0.14613 0.46647 0.82141 0.0
O66 O 0.14737 0.45336 0.80563 0.0
O67 O 0.13239 0.4819 0.82121 0.0
O68 O 0.16819 0.44289 0.76268 0.0
O69 O 0.16121 0.47762 0.75827 0.0
O70 O 0.7787 0.39393 0.05386 0.0
Cd71 Cd 0.79384 0.40143 0.02537 0.0
Cd72 Cd 0.7728 0.34846 0.05023 0.0
O73 O 0.76235 0.36999 0.07387 0.0
O74 O 0.8098 0.42781 0.0337 0.0
O75 O 0.78388 0.42784 0.00884 0.0
C76 C 0.79757 0.43853 0.02059 0.0
C77 C 0.76839 0.31129 0.05356 0.0
C78 C 0.76929 0.38921 0.0715 0.0
C79 C 0.81834 0.36139 0.02446 0.0
O80 O 0.80205 0.35443 0.03501 0.0
O81 O 0.81788 0.38026 0.01614 0.0
O82 O 0.78062 0.3221 0.06659 0.0
O83 O 0.75686 0.32197 0.03966 0.0
O84 O 0.88834 0.06218 0.2969 0.0
Cd85 Cd 0.87832 0.0312 0.30144 0.0
Cd86 Cd 0.85803 0.04802 0.26912 0.0
O87 O 0.88736 0.06332 0.26146 0.0
O88 O 0.90151 0.02413 0.32265 0.0
O89 O 0.90064 0.00998 0.28975 0.0
C90 C 0.91147 0.01414 0.30723 0.0
C91 C 0.82851 0.03633 0.24943 0.0
C92 C 0.89543 0.06996 0.27927 0.0
C93 C 0.83916 0.04875 0.31406 0.0
O94 O 0.84399 0.05932 0.29705 0.0
O95 O 0.84919 0.03116 0.31827 0.0
O96 O 0.83452 0.05638 0.2489 0.0
O97 O 0.84182 0.02224 0.25756 0.0
O98 O 0.20397 0.10106 0.55641 0.0
Cd99 Cd 0.20307 0.11757 0.52748 0.0
Cd100 Cd 0.22949 0.14053 0.55304 0.0
O101 O 0.23692 0.11086 0.56635 0.0
O102 O 0.18806 0.09645 0.50845 0.0
O103 O 0.2233 0.10375 0.50614 0.0
C104 C 0.20695 0.09177 0.50073 0.0
C105 C 0.24911 0.1725 0.55529 0.0
C106 C 0.22094 0.09792 0.5677 0.0
C107 C 0.18652 0.15733 0.54427 0.0
O108 O 0.19893 0.15132 0.5595 0.0
O109 O 0.18712 0.14738 0.52621 0.0
O110 O 0.24447 0.16126 0.57225 0.0
O111 O 0.24622 0.16352 0.53656 0.0
O112 O 0.19822 0.84873 0.46851 0.0
Cd113 Cd 0.22954 0.85389 0.45921 0.0
Cd114 Cd 0.20606 0.89813 0.47507 0.0
O115 O 0.18286 0.87618 0.48573 0.0
O116 O 0.23373 0.82439 0.44685 0.0
O117 O 0.25131 0.83537 0.47588 0.0
C118 C 0.24625 0.81982 0.46284 0.0
C119 C 0.20346 0.93516 0.48295 0.0
C120 C 0.18232 0.85673 0.47883 0.0
C121 C 0.22274 0.88877 0.42751 0.0
O122 O 0.2122 0.89802 0.44252 0.0
O123 O 0.23322 0.87137 0.43098 0.0
O124 O 0.18836 0.92496 0.4729 0.0
O125 O 0.21905 0.92389 0.49123 0.0
O126 O 0.34252 0.45174 0.6927 0.0
Cd127 Cd 0.35973 0.44938 0.72116 0.0
Cd128 Cd 0.38272 0.47435 0.69386 0.0
O129 O 0.35279 0.48457 0.68301 0.0
O130 O 0.33762 0.43543 0.73989 0.0
O131 O 0.34707 0.47004 0.74265 0.0
C132 C 0.33339 0.45469 0.74702 0.0
C133 C 0.41667 0.49068 0.69181 0.0
C134 C 0.33905 0.46919 0.68228 0.0
C135 C 0.3974 0.43159 0.70191 0.0
O136 O 0.38892 0.44274 0.68693 0.0
O137 O 0.38982 0.43336 0.72105 0.0
O138 O 0.40508 0.48724 0.67472 0.0
O139 O 0.40744 0.48826 0.7105 0.0
O140 O 0.79518 0.64821 0.93294 0.0
Cd141 Cd 0.76593 0.63942 0.9458 0.0
Cd142 Cd 0.79356 0.61704 0.96709 0.0
O143 O 0.81148 0.64543 0.9643 0.0
O144 O 0.74858 0.66215 0.93164 0.0
O145 O 0.75557 0.66226 0.96687 0.0
C146 C 0.74944 0.67266 0.9497 0.0
C147 C 0.79302 0.59345 0.99587 0.0
C148 C 0.8103 0.65399 0.94559 0.0
C149 C 0.76924 0.59673 0.93055 0.0
O150 O 0.78768 0.59914 0.9395 0.0
O151 O 0.75426 0.61044 0.93418 0.0
O152 O 0.81055 0.59656 0.9849 0.0
O153 O 0.7764 0.6057 0.99216 0.0
O154 O 0.65177 0.04386 0.19931 0.0
Cd155 Cd 0.64006 0.04109 0.23013 0.0
Cd156 Cd 0.61678 0.01737 0.20695 0.0
O157 O 0.64393 0.01097 0.18829 0.0
O158 O 0.66499 0.05299 0.24664 0.0
O159 O 0.65604 0.0182 0.24687 0.0
C160 C 0.67011 0.0332 0.25116 0.0
C161 C 0.58731 0.997 0.21729 0.0
C162 C 0.6544 0.02855 0.18581 0.0
C163 C 0.60193 0.06176 0.21735 0.0
O164 O 0.60483 0.04797 0.20233 0.0
O165 O 0.61248 0.05983 0.23503 0.0
O166 O 0.59182 -0.00012 0.19703 0.0
O167 O 0.60176 0.00246 0.23154 0.0
O168 O 0.55552 0.2023 0.09887 0.0
Cd169 Cd 0.52416 0.20383 0.10931 0.0
Cd170 Cd 0.54458 0.22805 0.13728 0.0
O171 O 0.56552 0.23403 0.11153 0.0
O172 O 0.50915 0.19161 0.08361 0.0
O173 O 0.50689 0.22618 0.09303 0.0
C174 C 0.50352 0.21117 0.07876 0.0
C175 C 0.53268 0.25087 0.16443 0.0
C176 C 0.56862 0.21815 0.09873 0.0
C177 C 0.53139 0.1838 0.15051 0.0
O178 O 0.54632 0.19794 0.15123 0.0
O179 O 0.51706 0.18449 0.13568 0.0
O180 O 0.55307 0.24678 0.16193 0.0
O181 O 0.51938 0.24468 0.1494 0.0
O182 O 0.05367 0.81034 0.40798 0.0
Cd183 Cd 0.02735 0.80874 0.3881 0.0
Cd184 Cd 0.05117 0.78022 0.3726 0.0
O185 O 0.05994 0.77535 0.40478 0.0
O186 O 0.00345 0.81727 0.40794 0.0
O187 O 0.01012 0.78327 0.39784 0.0
C188 C 0.00112 0.79665 0.41139 0.0
C189 C 0.04489 0.75731 0.34345 0.0
C190 C 0.06192 0.79298 0.41538 0.0
C191 C 0.05146 0.82156 0.35094 0.0
O192 O 0.06383 0.80779 0.35991 0.0
O193 O 0.0318 0.82301 0.35737 0.0
O194 O 0.06336 0.75741 0.35337 0.0
O195 O 0.02893 0.76795 0.35201 0.0
O196 O 0.45337 0.28856 0.60337 0.0
Cd197 Cd 0.48443 0.28671 0.6149 0.0
Cd198 Cd 0.45885 0.27205 0.64883 0.0
O199 O 0.43543 0.26667 0.62532 0.0
O200 O 0.49923 0.29638 0.58809 0.0
O201 O 0.50081 0.2626 0.59978 0.0
C202 C 0.50431 0.27649 0.58451 0.0
C203 C 0.46328 0.25414 0.6816 0.0
C204 C 0.4365 0.27774 0.60793 0.0
C205 C 0.48035 0.31604 0.65133 0.0
O206 O 0.46446 0.30383 0.6559 0.0
O207 O 0.49357 0.31081 0.63639 0.0
O208 O 0.4456 0.26433 0.67703 0.0
O209 O 0.47725 0.25122 0.66623 0.0
O210 O 0.97615 0.69622 0.84743 0.0
Cd211 Cd 0.96771 0.72779 0.85284 0.0
Cd212 Cd 0.98378 0.705 0.89604 0.0
O213 O 0.99179 0.67988 0.87527 0.0
O214 O 0.95304 0.73104 0.82424 0.0
O215 O 0.98303 0.74862 0.83219 0.0
C216 C 0.96886 0.74295 0.81785 0.0
C217 C 0.99904 0.71023 0.93048 0.0
C218 C 0.98546 0.67984 0.85562 0.0
C219 C 0.93728 0.72321 0.89039 0.0
O220 O 0.95141 0.71101 0.89906 0.0
O221 O 0.94133 0.73361 0.873 0.0
O222 O 0.98886 0.69271 0.92557 0.0
O223 O 0.00274 0.72393 0.91506 0.0
O224 O 0.05688 0.70419 0.11102 0.0
Cd225 Cd 0.02581 0.71079 0.12088 0.0
Cd226 Cd 0.05608 0.72889 0.15038 0.0
O227 O 0.07782 0.7298 0.12476 0.0
O228 O 0.01008 0.69853 0.09534 0.0
O229 O 0.01121 0.73359 0.10245 0.0
C230 C 0.00652 0.71814 0.08908 0.0
C231 C 0.06023 0.74294 0.18576 0.0
C232 C 0.07498 0.71402 0.11171 0.0
C233 C 0.03221 0.6876 0.15978 0.0
O234 O 0.05006 0.69746 0.15754 0.0
O235 O 0.01605 0.69287 0.14801 0.0
O236 O 0.07553 0.73266 0.17601 0.0
O237 O 0.04383 0.74882 0.17415 0.0
O238 O 0.43957 0.78734 0.09828 0.0
Cd239 Cd 0.47105 0.79436 0.10679 0.0
Cd240 Cd 0.45013 0.7707 0.14062 0.0
O241 O 0.42949 0.75874 0.1171 0.0
O242 O 0.47489 0.8163 0.08363 0.0
O243 O 0.49163 0.78479 0.08272 0.0
C244 C 0.48618 0.80246 0.0729 0.0
C245 C 0.46063 0.75508 0.17328 0.0
C246 C 0.42656 0.77169 0.10132 0.0
C247 C 0.46146 0.81645 0.14698 0.0
O248 O 0.44607 0.80284 0.14741 0.0
O249 O 0.47704 0.81381 0.1337 0.0
O250 O 0.44056 0.75926 0.1691 0.0
O251 O 0.47448 0.75667 0.15759 0.0
O252 O 0.45018 0.20432 0.84937 0.0
Cd253 Cd 0.45704 0.23299 0.86455 0.0
Cd254 Cd 0.4743 0.20525 0.88968 0.0
O255 O 0.47956 0.18799 0.86141 0.0
O256 O 0.45254 0.25376 0.84057 0.0
O257 O 0.48508 0.24427 0.85293 0.0
C258 C 0.47332 0.25303 0.83785 0.0
C259 C 0.49496 0.20968 0.92055 0.0
C260 C 0.46423 0.18936 0.84762 0.0
C261 C 0.43222 0.22398 0.90177 0.0
O262 O 0.44281 0.20651 0.89961 0.0
O263 O 0.43755 0.24068 0.89093 0.0
O264 O 0.48782 0.1908 0.91497 0.0
O265 O 0.49331 0.22536 0.90667 0.0
O266 O 0.55027 0.2813 0.40306 0.0
Cd267 Cd 0.51914 0.28851 0.39441 0.0
Cd268 Cd 0.54347 0.27308 0.35517 0.0
O269 O 0.56777 0.26439 0.37683 0.0
O270 O 0.51251 0.30187 0.42285 0.0
O271 O 0.49739 0.27134 0.41243 0.0
C272 C 0.50128 0.28506 0.42773 0.0
C273 C 0.53778 0.25811 0.32096 0.0
C274 C 0.56696 0.27149 0.39619 0.0
C275 C 0.52715 0.31994 0.35919 0.0
O276 O 0.53961 0.30564 0.3513 0.0
O277 O 0.51528 0.31595 0.37558 0.0
O278 O 0.55585 0.26724 0.32606 0.0
O279 O 0.52381 0.25483 0.33625 0.0
O280 O 0.15013 0.04118 0.69915 0.0
Cd281 Cd 0.13877 0.04183 0.73039 0.0
Cd282 Cd 0.109 0.01953 0.70136 0.0
O283 O 0.13677 0.01155 0.68434 0.0
O284 O 0.16054 0.06295 0.74154 0.0
O285 O 0.16097 0.02855 0.75104 0.0
C286 C 0.17041 0.04722 0.75096 0.0
C287 C 0.0741 0.00542 0.69608 0.0
C288 C 0.15057 0.02689 0.68433 0.0
C289 C 0.09972 0.06326 0.7185 0.0
O290 O 0.10305 0.05199 0.70167 0.0
O291 O 0.11034 0.05925 0.73574 0.0
O292 O 0.08549 0.01293 0.6803 0.0
O293 O 0.08381 0.00254 0.71443 0.0
O294 O 0.69603 0.8488 0.9574 0.0
Cd295 Cd 0.72731 0.86009 0.9594 0.0
Cd296 Cd 0.70246 0.8906 0.97915 0.0
O297 O 0.68162 0.8651 0.98565 0.0
O298 O 0.74126 0.8373 0.94163 0.0
O299 O 0.7469 0.83998 0.97687 0.0
C300 C 0.74958 0.8294 0.95901 0.0
C301 C 0.71089 0.92064 0.99997 0.0
C302 C 0.68081 0.85042 0.97117 0.0
C303 C 0.72035 0.90024 0.93612 0.0
O304 O 0.70328 0.90091 0.94763 0.0
O305 O 0.73524 0.88672 0.94062 0.0
O306 O 0.6912 0.9169 0.9939 0.0
O307 O 0.72524 0.90562 0.99693 0.0
O308 O 0.84864 0.44318 0.19805 0.0
Cd309 Cd 0.8636 0.44629 0.22763 0.0
Cd310 Cd 0.88557 0.47101 0.19702 0.0
O311 O 0.85466 0.47567 0.18465 0.0
O312 O 0.84498 0.42519 0.24312 0.0
O313 O 0.84267 0.4605 0.2485 0.0
C314 C 0.83433 0.44142 0.2508 0.0
C315 C 0.9165 0.4919 0.19054 0.0
C316 C 0.84312 0.45861 0.1856 0.0
C317 C 0.90349 0.42989 0.21264 0.0
O318 O 0.8964 0.43975 0.19603 0.0
O319 O 0.89462 0.43334 0.23094 0.0
O320 O 0.90549 0.48346 0.17492 0.0
O321 O 0.90827 0.49107 0.20981 0.0
O322 O 0.29644 0.64196 0.44157 0.0
Cd323 Cd 0.2685 0.63125 0.45556 0.0
Cd324 Cd 0.29821 0.61098 0.47566 0.0
O325 O 0.31654 0.63903 0.47081 0.0
O326 O 0.24851 0.65522 0.44792 0.0
O327 O 0.25967 0.64876 0.48152 0.0
C328 C 0.25036 0.66165 0.46779 0.0
C329 C 0.30108 0.58482 0.50258 0.0
C330 C 0.3136 0.64673 0.45187 0.0
C331 C 0.27475 0.59015 0.43838 0.0
O332 O 0.29274 0.59385 0.44776 0.0
O333 O 0.25847 0.60221 0.44241 0.0
O334 O 0.31761 0.5904 0.49109 0.0
O335 O 0.28353 0.59618 0.50092 0.0
O336 O 0.0946 0.94466 0.27613 0.0
Cd337 Cd 0.10076 0.97339 0.2915 0.0
Cd338 Cd 0.14038 0.96066 0.26606 0.0
O339 O 0.11983 0.93878 0.25138 0.0
O340 O 0.07152 0.97551 0.30512 0.0
O341 O 0.08394 0.00052 0.28276 0.0
C342 C 0.06821 0.99295 0.29429 0.0
C343 C 0.17507 0.96871 0.25222 0.0
C344 C 0.1023 0.93327 0.26082 0.0
C345 C 0.13797 0.95805 0.31626 0.0
O346 O 0.14532 0.95305 0.29775 0.0
O347 O 0.12082 0.96936 0.31827 0.0
O348 O 0.16891 0.94919 0.2559 0.0
O349 O 0.16069 0.98381 0.25405 0.0
O350 O 0.80083 0.90103 0.54077 0.0
Cd351 Cd 0.79149 0.88831 0.51184 0.0
Cd352 Cd 0.7785 0.8572 0.54185 0.0
O353 O 0.77473 0.88569 0.5597 0.0
O354 O 0.79378 0.91456 0.49351 0.0
O355 O 0.76235 0.90023 0.50353 0.0
C356 C 0.77302 0.91637 0.49544 0.0
C357 C 0.76535 0.82353 0.55327 0.0
C358 C 0.7886 0.90082 0.55729 0.0
C359 C 0.81973 0.85275 0.51379 0.0
O360 O 0.80917 0.85023 0.53126 0.0
O361 O 0.81323 0.86622 0.49963 0.0
O362 O 0.77815 0.83492 0.56514 0.0
O363 O 0.75754 0.83252 0.53602 0.0
O364 O 0.89365 0.55559 0.80996 0.0
Cd365 Cd 0.88226 0.52482 0.80489 0.0
Cd366 Cd 0.86003 0.55167 0.77702 0.0
O367 O 0.8907 0.56577 0.77599 0.0
O368 O 0.90206 0.50828 0.8242 0.0
O369 O 0.9039 0.50655 0.7884 0.0
C370 C 0.91233 0.50207 0.80708 0.0
C371 C 0.83183 0.5561 0.75243 0.0
C372 C 0.89989 0.56752 0.7944 0.0
C373 C 0.83876 0.53463 0.81636 0.0
O374 O 0.84379 0.55166 0.80601 0.0
O375 O 0.85118 0.51819 0.81573 0.0
O376 O 0.84093 0.57249 0.76162 0.0
O377 O 0.84113 0.5374 0.75437 0.0
O378 O 0.22017 0.59619 0.04968 0.0
Cd379 Cd 0.20849 0.59876 0.01889 0.0
Cd380 Cd 0.22431 0.64675 0.04522 0.0
O381 O 0.23393 0.62377 0.068 0.0
O382 O 0.19547 0.56906 0.01839 0.0
O383 O 0.22265 0.57816 0.99719 0.0
C384 C 0.21006 0.56323 0.00472 0.0
C385 C 0.2304 0.68399 0.05199 0.0
C386 C 0.22915 0.60373 0.06656 0.0
C387 C 0.17756 0.63527 0.02525 0.0
O388 O 0.19264 0.64458 0.03566 0.0
O389 O 0.18061 0.6172 0.01575 0.0
O390 O 0.21954 0.67193 0.06501 0.0
O391 O 0.23976 0.67461 0.0358 0.0
O392 O 0.20384 0.3468 0.93879 0.0
Cd393 Cd 0.23233 0.35791 0.95112 0.0
Cd394 Cd 0.20363 0.37912 0.97149 0.0
O395 O 0.18673 0.34978 0.96981 0.0
O396 O 0.25172 0.33379 0.94216 0.0
O397 O 0.24245 0.33996 0.97638 0.0
C398 C 0.25073 0.32706 0.962 0.0
C399 C 0.2114 0.40518 0.99662 0.0
C400 C 0.18866 0.34079 0.95127 0.0
C401 C 0.22516 0.39971 0.93459 0.0
O402 O 0.2068 0.39531 0.94284 0.0
O403 O 0.24148 0.38767 0.93856 0.0
O404 O 0.19149 0.40182 0.99077 0.0
O405 O 0.22587 0.3907 0.99172 0.0
O406 O 0.3576 0.96558 0.19472 0.0
Cd407 Cd 0.36511 0.96179 0.22688 0.0
Cd408 Cd 0.39752 0.98813 0.21008 0.0
O409 O 0.37471 0.99596 0.18702 0.0
O410 O 0.33797 0.94833 0.23773 0.0
O411 O 0.34834 0.98147 0.24677 0.0
C412 C 0.3335 0.96665 0.24676 0.0
C413 C 0.42984 0.00678 0.21567 0.0
C414 C 0.36098 0.98142 0.18203 0.0
C415 C 0.40627 0.9409 0.22022 0.0
O416 O 0.40887 0.95722 0.20806 0.0
O417 O 0.39006 0.93992 0.23298 0.0
O418 O 0.42386 0.00069 0.19666 0.0
O419 O 0.41567 0.00579 0.23107 0.0
O420 O 0.79929 0.15363 0.4697 0.0
Cd421 Cd 0.76654 0.14966 0.465 0.0
Cd422 Cd 0.7845 0.10652 0.48292 0.0
O423 O 0.81138 0.12568 0.48875 0.0
O424 O 0.76196 0.17636 0.44754 0.0
O425 O 0.74652 0.17192 0.47945 0.0
C426 C 0.74991 0.18391 0.46267 0.0
C427 C 0.77949 0.07223 0.49844 0.0
C428 C 0.81454 0.14395 0.47962 0.0
C429 C 0.76672 0.11052 0.43667 0.0
O430 O 0.77854 0.10153 0.45084 0.0
O431 O 0.75774 0.12868 0.44039 0.0
O432 O 0.79648 0.07694 0.48734 0.0
O433 O 0.76645 0.08783 0.5034 0.0
O434 O 0.64514 0.54574 0.69963 0.0
Cd435 Cd 0.639 0.54484 0.7321 0.0
Cd436 Cd 0.60708 0.51821 0.70734 0.0
O437 O 0.63489 0.51339 0.68882 0.0
O438 O 0.66094 0.56738 0.73952 0.0
O439 O 0.66501 0.53336 0.74924 0.0
C440 C 0.67322 0.55251 0.74738 0.0
C441 C 0.57525 0.49799 0.70171 0.0
C442 C 0.64651 0.53023 0.68624 0.0
C443 C 0.59697 0.56289 0.72615 0.0
O444 O 0.5966 0.54962 0.71041 0.0
O445 O 0.61108 0.56092 0.7411 0.0
O446 O 0.58454 0.50843 0.68626 0.0
O447 O 0.58513 0.49704 0.72014 0.0
O448 O 0.55952 0.69886 0.60934 0.0
Cd449 Cd 0.52761 0.70094 0.61753 0.0
Cd450 Cd 0.5485 0.72877 0.64155 0.0
O451 O 0.56708 0.73323 0.61358 0.0
O452 O 0.51683 0.67945 0.59619 0.0
O453 O 0.50944 0.71433 0.59354 0.0
C454 C 0.50937 0.69529 0.58482 0.0
C455 C 0.5346 0.75088 0.66779 0.0
C456 C 0.57105 0.71514 0.60449 0.0
C457 C 0.53607 0.68719 0.66045 0.0
O458 O 0.55205 0.69988 0.65763 0.0
O459 O 0.52034 0.68724 0.64709 0.0
O460 O 0.55534 0.74979 0.66474 0.0
O461 O 0.52187 0.74301 0.65301 0.0
O462 O 0.05737 0.28644 0.89781 0.0
Cd463 Cd 0.0264 0.29509 0.88916 0.0
Cd464 Cd 0.03935 0.26557 0.8593 0.0
O465 O 0.05959 0.25389 0.8831 0.0
O466 O 0.01646 0.30999 0.91609 0.0
O467 O 0.00417 0.2779 0.90567 0.0
C468 C 0.00574 0.29258 0.9206 0.0
C469 C 0.02844 0.24824 0.82754 0.0
C470 C 0.06673 0.26815 0.89619 0.0
C471 C 0.038 0.31221 0.84753 0.0
O472 O 0.04901 0.2949 0.84793 0.0
O473 O 0.02362 0.31548 0.86204 0.0
O474 O 0.04856 0.24971 0.83289 0.0
O475 O 0.01412 0.25321 0.84201 0.0
O476 O 0.95494 0.19351 0.34281 0.0
Cd477 Cd 0.94912 0.22232 0.35793 0.0
Cd478 Cd 0.98037 0.20234 0.38144 0.0
O479 O 0.98961 0.19098 0.35119 0.0
O480 O 0.93477 0.23892 0.3342 0.0
O481 O 0.96876 0.24446 0.34491 0.0
C482 C 0.95374 0.24703 0.33039 0.0
C483 C 0.00141 0.20089 0.41331 0.0
C484 C 0.97375 0.18605 0.33891 0.0
C485 C 0.93392 0.20123 0.39553 0.0
O486 O 0.95099 0.19067 0.39107 0.0
O487 O 0.93059 0.21946 0.38633 0.0
O488 O 0.99822 0.1841 0.40139 0.0
O489 O 0.99512 0.21936 0.40572 0.0
O490 O 0.05484 0.21107 0.5993 0.0
Cd491 Cd 0.0242 0.20096 0.60657 0.0
Cd492 Cd 0.03915 0.23154 0.64007 0.0
O493 O 0.06078 0.24187 0.6165 0.0
O494 O 0.02244 0.179 0.5829 0.0
O495 O 0.00319 0.20905 0.5823 0.0
C496 C 0.01008 0.19201 0.57227 0.0
C497 C 0.02651 0.25085 0.67004 0.0
C498 C 0.06599 0.22812 0.60202 0.0
C499 C 0.03322 0.18435 0.65036 0.0
O500 O 0.04475 0.20128 0.65213 0.0
O501 O 0.02052 0.18186 0.63423 0.0
O502 O 0.04696 0.24832 0.66651 0.0
O503 O 0.01323 0.24526 0.65481 0.0
O504 O 0.46246 0.70519 0.34575 0.0
Cd505 Cd 0.46439 0.73515 0.35923 0.0
Cd506 Cd 0.47834 0.70575 0.39326 0.0
O507 O 0.48403 0.68574 0.36666 0.0
O508 O 0.45437 0.75138 0.33321 0.0
O509 O 0.48826 0.75243 0.3446 0.0
C510 C 0.47423 0.75659 0.32961 0.0
C511 C 0.49576 0.69943 0.42652 0.0
C512 C 0.47326 0.68808 0.34919 0.0
C513 C 0.43381 0.72781 0.39456 0.0
O514 O 0.44627 0.71216 0.3994 0.0
O515 O 0.43941 0.74181 0.38048 0.0
O516 O 0.48403 0.68493 0.41726 0.0
O517 O 0.49911 0.71732 0.41621 0.0
O518 O 0.54393 0.79314 0.90009 0.0
Cd519 Cd 0.51411 0.79093 0.88557 0.0
Cd520 Cd 0.54589 0.7745 0.85625 0.0
O521 O 0.56555 0.77018 0.88328 0.0
O522 O 0.49937 0.81002 0.90676 0.0
O523 O 0.49325 0.77488 0.9056 0.0
C524 C 0.4907 0.79321 0.91535 0.0
C525 C 0.54289 0.75437 0.8248 0.0
C526 C 0.56154 0.78253 0.89933 0.0
C527 C 0.5232 0.8159 0.84641 0.0
O528 O 0.54115 0.80585 0.84665 0.0
O529 O 0.50776 0.81002 0.85872 0.0
O530 O 0.56084 0.76388 0.82989 0.0
O531 O 0.52778 0.75327 0.83933 0.0
O532 O 0.60285 0.45375 0.29571 0.0
Cd533 Cd 0.60853 0.48588 0.29116 0.0
Cd534 Cd 0.64341 0.45325 0.26818 0.0
O535 O 0.61837 0.43122 0.27251 0.0
O536 O 0.58638 0.4949 0.3129 0.0
O537 O 0.58222 0.50157 0.27819 0.0
C538 C 0.57402 0.50129 0.29743 0.0
C539 C 0.67614 0.44177 0.25207 0.0
C540 C 0.6053 0.43487 0.28803 0.0
C541 C 0.65175 0.48365 0.30913 0.0
O542 O 0.65375 0.46786 0.29609 0.0
O543 O 0.63567 0.49653 0.30767 0.0
O544 O 0.66715 0.43129 0.26759 0.0
O545 O 0.66552 0.45777 0.2438 0.0
O546 O 0.29538 0.39935 0.55822 0.0
Cd547 Cd 0.30108 0.39289 0.52633 0.0
Cd548 Cd 0.27101 0.36266 0.54487 0.0
O549 O 0.26079 0.3913 0.55935 0.0
O550 O 0.32305 0.41619 0.52308 0.0
O551 O 0.29097 0.41801 0.50743 0.0
C552 C 0.30866 0.42764 0.51323 0.0
C553 C 0.25071 0.33067 0.54749 0.0
C554 C 0.2766 0.40283 0.56577 0.0
C555 C 0.31855 0.35243 0.53737 0.0
O556 O 0.30261 0.35313 0.55042 0.0
O557 O 0.31914 0.36513 0.52111 0.0
O558 O 0.25701 0.34125 0.56431 0.0
O559 O 0.25384 0.33945 0.52874 0.0
O560 O 0.40454 0.05251 0.79772 0.0
Cd561 Cd 0.3954 0.02067 0.7991 0.0
Cd562 Cd 0.36364 0.04437 0.77442 0.0
O563 O 0.39104 0.06165 0.7659 0.0
O564 O 0.42227 0.00812 0.81238 0.0
O565 O 0.4128 0.00244 0.77824 0.0
C566 C 0.42739 0.0012 0.7933 0.0
C567 C 0.32937 0.05054 0.75848 0.0
C568 C 0.40445 0.06491 0.78126 0.0
C569 C 0.35614 0.03048 0.82093 0.0
O570 O 0.35657 0.04529 0.8067 0.0
O571 O 0.36887 0.01428 0.81925 0.0
O572 O 0.34089 0.06593 0.76644 0.0
O573 O 0.33843 0.03176 0.75681 0.0
O574 O 0.69929 0.10183 0.05152 0.0
Cd575 Cd 0.6999 0.10972 0.01949 0.0
Cd576 Cd 0.73168 0.13163 0.0354 0.0
O577 O 0.73482 0.10246 0.052 0.0
O578 O 0.68652 0.0838 0.00648 0.0
O579 O 0.72147 0.09215 0.00287 0.0
C580 C 0.70599 0.07803 0.00114 0.0
C581 C 0.75965 0.15657 0.03367 0.0
C582 C 0.71705 0.09542 0.05961 0.0
C583 C 0.6881 0.15261 0.02662 0.0
O584 O 0.70405 0.15033 0.03951 0.0
O585 O 0.68443 0.13826 0.01227 0.0
O586 O 0.75212 0.14993 0.05194 0.0
O587 O 0.75309 0.14712 0.01616 0.0
O588 O 0.95525 0.31057 0.10384 0.0
Cd589 Cd 0.98424 0.29721 0.1124 0.0
Cd590 Cd 0.95354 0.28207 0.14089 0.0
O591 O 0.9343 0.28327 0.11283 0.0
O592 O 0.00087 0.30693 0.08646 0.0
O593 O 0.99316 0.27255 0.09272 0.0
C594 C 1.00004 0.28728 0.07946 0.0
C595 C 0.95077 0.26109 0.17208 0.0
C596 C 0.93801 0.29977 0.10093 0.0
C597 C 0.98435 0.31826 0.15272 0.0
O598 O 0.96507 0.31103 0.15217 0.0
O599 O 0.99834 0.31182 0.139 0.0
O600 O 0.9355 0.27433 0.1666 0.0
O601 O 0.96578 0.25708 0.15793 0.0
O602 O 0.94668 0.79988 0.59782 0.0
Cd603 Cd 0.97828 0.79412 0.60404 0.0
Cd604 Cd 0.95417 0.77122 0.6329 0.0
O605 O 0.92914 0.77134 0.61018 0.0
O606 O 0.98974 0.80801 0.57702 0.0
O607 O 0.99232 0.77288 0.58315 0.0
C608 C 0.99391 0.78889 0.56971 0.0
C609 C 0.96352 0.74742 0.66035 0.0
C610 C 0.92947 0.78877 0.59916 0.0
C611 C 0.97425 0.81397 0.64585 0.0
O612 O 0.95841 0.80088 0.64692 0.0
O613 O 0.98807 0.81265 0.63047 0.0
O614 O 0.94399 0.75477 0.65868 0.0
O615 O 0.97665 0.75053 0.64427 0.0
O616 O 0.60366 0.94426 0.80585 0.0
Cd617 Cd 0.61642 0.97391 0.79976 0.0
Cd618 Cd 0.63669 0.94897 0.77394 0.0
O619 O 0.60586 0.93494 0.7716 0.0
O620 O 0.59314 0.99239 0.812 0.0
O621 O 0.59935 0.98902 0.77664 0.0
C622 C 0.58652 0.99495 0.79223 0.0
C623 C 0.66352 0.9603 0.751 0.0
C624 C 0.59639 0.9335 0.78993 0.0
C625 C 0.65834 0.96176 0.8137 0.0
O626 O 0.65286 0.94528 0.80261 0.0
O627 O 0.64693 0.97898 0.81284 0.0
O628 O 0.65883 0.93989 0.75246 0.0
O629 O 0.64988 0.97425 0.75892 0.0
O630 O 0.31361 0.88472 0.05446 0.0
Cd631 Cd 0.30198 0.87925 0.02428 0.0
Cd632 Cd 0.27404 0.86277 0.05021 0.0
O633 O 0.28151 0.89031 0.06859 0.0
O634 O 0.31549 0.90394 0.00836 0.0
O635 O 0.28025 0.90187 0.01545 0.0
C636 C 0.29675 0.91335 0.00933 0.0
C637 C 0.24367 0.84074 0.05106 0.0
C638 C 0.30197 0.89307 0.06917 0.0
C639 C 0.30975 0.83541 0.03075 0.0
O640 O 0.29878 0.84068 0.04739 0.0
O641 O 0.31093 0.84837 0.01465 0.0
O642 O 0.25409 0.84543 0.06855 0.0
O643 O 0.24823 0.85148 0.03363 0.0
O644 O 0.39253 0.55772 0.30076 0.0
Cd645 Cd 0.38303 0.52616 0.298 0.0
Cd646 Cd 0.35599 0.54998 0.27173 0.0
O647 O 0.38367 0.56897 0.26814 0.0
O648 O 0.40492 0.51342 0.31794 0.0
O649 O 0.40566 0.50778 0.28262 0.0
C650 C 0.41508 0.50608 0.30126 0.0
C651 C 0.32759 0.54394 0.2479 0.0
C652 C 0.39501 0.57102 0.28529 0.0
C653 C 0.33997 0.5334 0.31398 0.0
O654 O 0.34129 0.54974 0.30155 0.0
O655 O 0.35413 0.51844 0.31304 0.0
O656 O 0.33209 0.56322 0.25466 0.0
O657 O 0.34154 0.52872 0.25172 0.0
O658 O 0.70184 0.59684 0.55088 0.0
Cd659 Cd 0.70543 0.60788 0.52007 0.0
Cd660 Cd 0.73038 0.6369 0.54541 0.0
O661 O 0.73285 0.60887 0.56399 0.0
O662 O 0.69253 0.58232 0.5056 0.0
O663 O 0.72751 0.59029 0.50357 0.0
C664 C 0.71205 0.57636 0.50094 0.0
C665 C 0.75413 0.66596 0.54945 0.0
C666 C 0.71696 0.59575 0.56472 0.0
C667 C 0.68664 0.65014 0.52602 0.0
O668 O 0.70051 0.65101 0.54123 0.0
O669 O 0.68685 0.63467 0.51238 0.0
O670 O 0.74296 0.65873 0.56549 0.0
O671 O 0.75375 0.65523 0.53146 0.0
H672 H 0.22291 0.61542 0.10886 0.0
H673 H 0.23198 0.55977 0.06694 0.0
H674 H 0.21552 0.53616 0.09457 0.0
H675 H 0.22882 0.5831 0.16337 0.0
H676 H 0.20843 0.60015 0.17557 0.0
H677 H 0.22689 0.61125 0.15575 0.0
H678 H 0.19396 0.6245 0.13319 0.0
H679 H 0.1754 0.61291 0.15236 0.0
H680 H 0.17397 0.60511 0.1242 0.0
H681 H 0.18918 0.52089 0.12145 0.0
H682 H 0.16027 0.51423 0.14863 0.0
H683 H 0.16905 0.57957 0.17328 0.0
C684 C 0.2228 0.59808 0.10616 0.0
C685 C 0.22878 0.58945 0.08583 0.0
C686 C 0.22763 0.56671 0.08251 0.0
C687 C 0.2182 0.55314 0.09809 0.0
C688 C 0.21052 0.56244 0.11718 0.0
C689 C 0.21345 0.58428 0.12166 0.0
C690 C 0.20132 0.59077 0.14203 0.0
C691 C 0.21732 0.59666 0.16026 0.0
C692 C 0.18522 0.6094 0.13765 0.0
C693 C 0.18964 0.56979 0.14706 0.0
C694 C 0.19544 0.55347 0.13289 0.0
C695 C 0.18501 0.53334 0.1331 0.0
C696 C 0.16845 0.52976 0.14841 0.0
C697 C 0.16238 0.54633 0.1631 0.0
C698 C 0.17336 0.56646 0.16242 0.0
H699 H 0.72014 0.4154 0.38955 0.0
H700 H 0.69522 0.45687 0.44047 0.0
H701 H 0.68447 0.48415 0.41312 0.0
H702 H 0.73695 0.45882 0.34917 0.0
H703 H 0.72674 0.4428 0.32692 0.0
H704 H 0.73788 0.42963 0.35056 0.0
H705 H 0.70218 0.40787 0.35514 0.0
H706 H 0.69096 0.42099 0.3317 0.0
H707 H 0.67679 0.42227 0.35726 0.0
H708 H 0.6689 0.50244 0.38047 0.0
H709 H 0.65002 0.50962 0.34574 0.0
H710 H 0.68601 0.45688 0.316 0.0
C711 C 0.71346 0.43073 0.39492 0.0
C712 C 0.70882 0.43433 0.41699 0.0
C713 C 0.69907 0.45404 0.42354 0.0
C714 C 0.693 0.46964 0.40814 0.0
C715 C 0.69676 0.4652 0.38627 0.0
C716 C 0.70692 0.44625 0.37968 0.0
C717 C 0.70549 0.44338 0.35536 0.0
C718 C 0.72812 0.44369 0.34489 0.0
C719 C 0.69312 0.42241 0.34954 0.0
C720 C 0.69253 0.46336 0.34938 0.0
C721 C 0.68774 0.47589 0.36732 0.0
C722 C 0.67308 0.49317 0.36616 0.0
C723 C 0.66244 0.4972 0.34635 0.0
C724 C 0.66656 0.48394 0.32808 0.0
C725 C 0.68264 0.46759 0.32951 0.0
H726 H 0.81042 0.94112 0.67536 0.0
H727 H 0.84762 0.99344 0.64665 0.0
H728 H 0.83021 0.98609 0.61121 0.0
H729 H 0.81962 0.90571 0.63648 0.0
H730 H 0.79362 0.89231 0.63673 0.0
H731 H 0.80322 0.90567 0.66073 0.0
H732 H 0.76849 0.92913 0.66205 0.0
H733 H 0.75842 0.91573 0.6381 0.0
H734 H 0.76058 0.94488 0.63872 0.0
H735 H 0.81589 0.96782 0.57825 0.0
H736 H 0.80558 0.94092 0.55058 0.0
H737 H 0.77867 0.89945 0.60063 0.0
C738 C 0.8143 0.9516 0.6618 0.0
C739 C 0.83037 0.96783 0.66366 0.0
C740 C 0.83519 0.98108 0.64559 0.0
C741 C 0.82536 0.97699 0.62542 0.0
C742 C 0.81062 0.95983 0.62383 0.0
C743 C 0.80488 0.94754 0.64167 0.0
C744 C 0.79167 0.92785 0.63527 0.0
C745 C 0.80271 0.90666 0.64273 0.0
C746 C 0.76839 0.92951 0.64404 0.0
C747 C 0.79207 0.93011 0.61087 0.0
C748 C 0.80256 0.94896 0.60462 0.0
C749 C 0.80718 0.95332 0.58295 0.0
C750 C 0.80142 0.93784 0.56739 0.0
C751 C 0.79133 0.91812 0.57356 0.0
C752 C 0.78597 0.91457 0.59548 0.0
H753 H 0.3318 0.06615 0.82868 0.0
H754 H 0.34484 0.00175 0.85403 0.0
H755 H 0.31775 0.00834 0.8833 0.0
H756 H 0.32904 0.09212 0.87829 0.0
H757 H 0.30843 0.11102 0.8697 0.0
H758 H 0.32673 0.09963 0.8501 0.0
H759 H 0.29374 0.08588 0.82776 0.0
H760 H 0.27533 0.09686 0.84767 0.0
H761 H 0.27391 0.06856 0.84049 0.0
H762 H 0.29203 0.02404 0.91167 0.0
H763 H 0.27415 0.04807 0.93829 0.0
H764 H 0.27779 0.10148 0.89295 0.0
C765 C 0.32889 0.05313 0.84012 0.0
C766 C 0.34043 0.03331 0.83895 0.0
C767 C 0.3362 0.01703 0.85458 0.0
C768 C 0.32071 0.0206 0.87108 0.0
C769 C 0.30957 0.04041 0.87152 0.0
C770 C 0.31368 0.0564 0.85644 0.0
C771 C 0.30149 0.0771 0.86134 0.0
C772 C 0.31736 0.09606 0.86509 0.0
C773 C 0.28514 0.0824 0.84324 0.0
C774 C 0.29007 0.07063 0.88202 0.0
C775 C 0.29463 0.04928 0.8875 0.0
C776 C 0.28798 0.04053 0.90725 0.0
C777 C 0.27763 0.05424 0.9222 0.0
C778 C 0.27409 0.07643 0.91735 0.0
C779 C 0.27938 0.08437 0.89662 0.0
H780 H 0.22071 0.39152 0.89257 0.0
H781 H 0.22602 0.44352 0.93919 0.0
H782 H 0.20963 0.46901 0.91276 0.0
H783 H 0.22475 0.42351 0.84021 0.0
H784 H 0.20364 0.40704 0.82845 0.0
H785 H 0.22202 0.39547 0.84805 0.0
H786 H 0.18887 0.38346 0.87105 0.0
H787 H 0.17042 0.39576 0.85215 0.0
H788 H 0.16978 0.4036 0.88031 0.0
H789 H 0.18515 0.48647 0.88398 0.0
H790 H 0.15843 0.49446 0.85469 0.0
H791 H 0.16747 0.4293 0.8297 0.0
C792 C 0.2199 0.40863 0.89651 0.0
C793 C 0.22543 0.41591 0.91735 0.0
C794 C 0.22267 0.43801 0.92283 0.0
C795 C 0.21312 0.45248 0.90802 0.0
C796 C 0.20619 0.44438 0.88803 0.0
C797 C 0.20977 0.42295 0.88222 0.0
C798 C 0.19737 0.4169 0.86201 0.0
C799 C 0.21288 0.41036 0.84359 0.0
C800 C 0.18064 0.39888 0.86668 0.0
C801 C 0.18626 0.43815 0.85732 0.0
C802 C 0.19141 0.45394 0.87231 0.0
C803 C 0.18138 0.47432 0.87189 0.0
C804 C 0.16608 0.47866 0.8554 0.0
C805 C 0.16102 0.4626 0.8398 0.0
C806 C 0.17123 0.44216 0.84107 0.0
H807 H 0.79284 0.4266 0.07435 0.0
H808 H 0.74984 0.385 0.11137 0.0
H809 H 0.75856 0.40568 0.14452 0.0
H810 H 0.83349 0.42605 0.10936 0.0
H811 H 0.84243 0.45368 0.10602 0.0
H812 H 0.82816 0.44041 0.08441 0.0
H813 H 0.79916 0.47108 0.08419 0.0
H814 H 0.81392 0.48457 0.10556 0.0
H815 H 0.78557 0.47822 0.10906 0.0
H816 H 0.77728 0.42494 0.17411 0.0
H817 H 0.80569 0.43974 0.19798 0.0
H818 H 0.83787 0.46844 0.14245 0.0
C819 C 0.7845 0.42244 0.08923 0.0
C820 C 0.77045 0.40431 0.0902 0.0
C821 C 0.76043 0.39897 0.11016 0.0
C822 C 0.76524 0.4107 0.12907 0.0
C823 C 0.77999 0.42783 0.12774 0.0
C824 C 0.78938 0.43382 0.10827 0.0
C825 C 0.80741 0.45024 0.11172 0.0
C826 C 0.82914 0.44209 0.10234 0.0
C827 C 0.80114 0.47234 0.10206 0.0
C828 C 0.8079 0.45123 0.13628 0.0
C829 C 0.79138 0.4388 0.14514 0.0
C830 C 0.7899 0.43513 0.16738 0.0
C831 C 0.80615 0.44355 0.1808 0.0
C832 C 0.82377 0.45535 0.17196 0.0
C833 C 0.82419 0.46001 0.14957 0.0
H834 H 0.77638 0.06898 0.42477 0.0
H835 H 0.76046 0.13243 0.39876 0.0
H836 H 0.77282 0.12064 0.36267 0.0
H837 H 0.82336 0.0619 0.40101 0.0
H838 H 0.82145 0.0336 0.39391 0.0
H839 H 0.80586 0.04402 0.41621 0.0
H840 H 0.77023 0.03035 0.39884 0.0
H841 H 0.78573 0.01914 0.37667 0.0
H842 H 0.7638 0.03772 0.37127 0.0
H843 H 0.79367 0.10571 0.33271 0.0
H844 H 0.81897 0.08733 0.30849 0.0
H845 H 0.82265 0.03276 0.35306 0.0
C846 C 0.77455 0.08002 0.41122 0.0
C847 C 0.76736 0.10159 0.41449 0.0
C848 C 0.76552 0.11575 0.39655 0.0
C849 C 0.77261 0.1092 0.37599 0.0
C850 C 0.78092 0.08831 0.37361 0.0
C851 C 0.7814 0.07365 0.39054 0.0
C852 C 0.79328 0.05301 0.38411 0.0
C853 C 0.81211 0.04787 0.39974 0.0
C854 C 0.77731 0.03392 0.38264 0.0
C855 C 0.80138 0.05934 0.36175 0.0
C856 C 0.79337 0.07948 0.35588 0.0
C857 C 0.79953 0.08968 0.3368 0.0
C858 C 0.81411 0.07904 0.3232 0.0
C859 C 0.82279 0.05843 0.32876 0.0
C860 C 0.81615 0.04836 0.34826 0.0
H861 H 0.22068 0.10342 0.61105 0.0
H862 H 0.21667 0.05508 0.56067 0.0
H863 H 0.20356 0.02798 0.58735 0.0
H864 H 0.23286 0.06651 0.65902 0.0
H865 H 0.21493 0.08219 0.67602 0.0
H866 H 0.22982 0.09524 0.65449 0.0
H867 H 0.19365 0.11016 0.63897 0.0
H868 H 0.17863 0.09684 0.66004 0.0
H869 H 0.17225 0.09148 0.632 0.0
H870 H 0.183 0.00934 0.61756 0.0
H871 H 0.15914 0.00042 0.64881 0.0
H872 H 0.17674 0.06164 0.67881 0.0
C873 C 0.21834 0.08674 0.60606 0.0
C874 C 0.22026 0.08084 0.58414 0.0
C875 C 0.21575 0.05938 0.57763 0.0
C876 C 0.20826 0.04403 0.59266 0.0
C877 C 0.20523 0.05062 0.61409 0.0
C878 C 0.21043 0.07146 0.62082 0.0
C879 C 0.20221 0.07583 0.64347 0.0
C880 C 0.22109 0.08018 0.65918 0.0
C881 C 0.18572 0.09467 0.64361 0.0
C882 C 0.19128 0.05445 0.64828 0.0
C883 C 0.19317 0.04 0.6313 0.0
C884 C 0.18192 0.02029 0.63124 0.0
C885 C 0.16833 0.01538 0.64896 0.0
C886 C 0.16616 0.0302 0.66635 0.0
C887 C 0.17823 0.04969 0.66602 0.0
H888 H 0.07332 0.21 0.56295 0.0
H889 H 0.10434 0.24838 0.61301 0.0
H890 H 0.14013 0.24051 0.59656 0.0
H891 H 0.10582 0.1687 0.56679 0.0
H892 H 0.10687 0.16096 0.53859 0.0
H893 H 0.08386 0.1756 0.54869 0.0
H894 H 0.08957 0.20565 0.51995 0.0
H895 H 0.11249 0.19085 0.5093 0.0
H896 H 0.11565 0.2187 0.5176 0.0
H897 H 0.17174 0.22091 0.58141 0.0
H898 H 0.19647 0.19221 0.56882 0.0
H899 H 0.14512 0.1648 0.52935 0.0
C900 C 0.0876 0.2176 0.56985 0.0
C901 C 0.08615 0.22984 0.5892 0.0
C902 C 0.10509 0.23927 0.598 0.0
C903 C 0.12547 0.23479 0.58875 0.0
C904 C 0.12646 0.22114 0.57064 0.0
C905 C 0.10791 0.21296 0.56105 0.0
C906 C 0.11318 0.19552 0.5445 0.0
C907 C 0.10177 0.17394 0.55 0.0
C908 C 0.10738 0.20315 0.52147 0.0
C909 C 0.13749 0.1939 0.54742 0.0
C910 C 0.1449 0.20929 0.56206 0.0
C911 C 0.16622 0.20923 0.56953 0.0
C912 C 0.18008 0.19273 0.56241 0.0
C913 C 0.17259 0.17638 0.5481 0.0
C914 C 0.15129 0.17742 0.53989 0.0
H915 H 0.02833 0.35615 0.84489 0.0
H916 H 0.05934 0.30327 0.81018 0.0
H917 H 0.0733 0.3288 0.78315 0.0
H918 H 0.01582 0.38967 0.79372 0.0
H919 H 0.02129 0.41464 0.8079 0.0
H920 H 0.00984 0.39188 0.82227 0.0
H921 H 0.04143 0.39347 0.85007 0.0
H922 H 0.05278 0.41619 0.83585 0.0
H923 H 0.06906 0.39231 0.84041 0.0
H924 H 0.09022 0.35992 0.7644 0.0
H925 H 0.10789 0.3948 0.75542 0.0
H926 H 0.06402 0.42767 0.7997 0.0
C927 C 0.03738 0.34993 0.83118 0.0
C928 C 0.04285 0.32776 0.82984 0.0
C929 C 0.05508 0.32024 0.81179 0.0
C930 C 0.06296 0.33458 0.79613 0.0
C931 C 0.0581 0.35644 0.7983 0.0
C932 C 0.04527 0.36411 0.81513 0.0
C933 C 0.04445 0.38864 0.81488 0.0
C934 C 0.02148 0.39668 0.80936 0.0
C935 C 0.05242 0.39819 0.83658 0.0
C936 C 0.06012 0.39339 0.79648 0.0
C937 C 0.06746 0.37462 0.78677 0.0
C938 C 0.08413 0.37484 0.77136 0.0
C939 C 0.09408 0.39471 0.76629 0.0
C940 C 0.08734 0.41397 0.77675 0.0
C941 C 0.06947 0.41327 0.79122 0.0
H942 H 0.82537 0.32164 0.04319 0.0
H943 H 0.85824 0.37418 0.00976 0.0
H944 H 0.89346 0.35909 0.02087 0.0
H945 H 0.85363 0.32173 0.08777 0.0
H946 H 0.8561 0.29299 0.09258 0.0
H947 H 0.83384 0.30317 0.07679 0.0
H948 H 0.84441 0.27843 0.04466 0.0
H949 H 0.86657 0.26765 0.0605 0.0
H950 H 0.87171 0.2792 0.03413 0.0
H951 H 0.92347 0.34435 0.04198 0.0
H952 H 0.94727 0.32959 0.07002 0.0
H953 H 0.89589 0.28627 0.09136 0.0
C954 C 0.84001 0.32942 0.03737 0.0
C955 C 0.83902 0.34915 0.0256 0.0
C956 C 0.85853 0.35901 0.0186 0.0
C957 C 0.87867 0.35051 0.02484 0.0
C958 C 0.87904 0.3319 0.03768 0.0
C959 C 0.86028 0.32109 0.04346 0.0
C960 C 0.86509 0.3031 0.05967 0.0
C961 C 0.85136 0.30543 0.08043 0.0
C962 C 0.86175 0.28077 0.04911 0.0
C963 C 0.88898 0.30721 0.06398 0.0
C964 C 0.89677 0.32332 0.05041 0.0
C965 C 0.91772 0.33138 0.05232 0.0
C966 C 0.93104 0.32298 0.06857 0.0
C967 C 0.92342 0.3068 0.08311 0.0
C968 C 0.90221 0.29849 0.08044 0.0
H969 H 0.96754 0.14543 0.35074 0.0
H970 H 0.97809 0.1862 0.29478 0.0
H971 H 0.96397 0.15714 0.27076 0.0
H972 H 0.97319 0.08993 0.32671 0.0
H973 H 0.9499 0.08095 0.34197 0.0
H974 H 0.96736 0.10165 0.3529 0.0
H975 H 0.93368 0.12659 0.35749 0.0
H976 H 0.91634 0.10637 0.34579 0.0
H977 H 0.91741 0.13309 0.33406 0.0
H978 H 0.94105 0.12609 0.25416 0.0
H979 H 0.91348 0.09719 0.24757 0.0
H980 H 0.91707 0.07974 0.31575 0.0
C981 C 0.96837 0.14752 0.33328 0.0
C982 C 0.97483 0.1674 0.32438 0.0
C983 C 0.97409 0.17054 0.30165 0.0
C984 C 0.96584 0.15421 0.28798 0.0
C985 C 0.95806 0.13517 0.29747 0.0
C986 C 0.95943 0.13184 0.31972 0.0
C987 C 0.94593 0.11281 0.32686 0.0
C988 C 0.95995 0.09529 0.33773 0.0
C989 C 0.92726 0.12016 0.34192 0.0
C990 C 0.93731 0.10545 0.30523 0.0
C991 C 0.94416 0.11839 0.28832 0.0
C992 C 0.93596 0.1156 0.26727 0.0
C993 C 0.92029 0.09923 0.26364 0.0
C994 C 0.91302 0.0862 0.28108 0.0
C995 C 0.92216 0.08926 0.30188 0.0
H996 H 0.17529 0.81813 0.45894 0.0
H997 H 0.14368 0.86595 0.49984 0.0
H998 H 0.10886 0.8465 0.49515 0.0
H999 H 0.13753 0.81896 0.4207 0.0
H1000 H 0.13932 0.79078 0.41316 0.0
H1001 H 0.16228 0.80397 0.42514 0.0
H1002 H 0.16345 0.77476 0.45534 0.0
H1003 H 0.14025 0.76147 0.44344 0.0
H1004 H 0.1396 0.76965 0.47152 0.0
H1005 H 0.07707 0.82747 0.47968 0.0
H1006 H 0.05119 0.81327 0.45267 0.0
H1007 H 0.10315 0.77848 0.42073 0.0
C1008 C 0.16128 0.82413 0.4677 0.0
C1009 C 0.16228 0.84351 0.47997 0.0
C1010 C 0.14337 0.85104 0.49057 0.0
C1011 C 0.12357 0.83999 0.48807 0.0
C1012 C 0.123 0.82147 0.47497 0.0
C1013 C 0.14146 0.81362 0.46495 0.0
C1014 C 0.13615 0.79637 0.44827 0.0
C1015 C 0.14428 0.80294 0.4255 0.0
C1016 C 0.14541 0.77425 0.45507 0.0
C1017 C 0.11164 0.79652 0.44952 0.0
C1018 C 0.10439 0.8106 0.46552 0.0
C1019 C 0.08251 0.81597 0.46757 0.0
C1020 C 0.06793 0.80783 0.45219 0.0
C1021 C 0.07531 0.79456 0.43498 0.0
C1022 C 0.09713 0.78791 0.43429 0.0
H1023 H 0.4668 0.32613 0.69178 0.0
H1024 H 0.49268 0.35437 0.63288 0.0
H1025 H 0.48051 0.3905 0.64501 0.0
H1026 H 0.4209 0.34947 0.69216 0.0
H1027 H 0.41752 0.35531 0.72064 0.0
H1028 H 0.43504 0.33364 0.71236 0.0
H1029 H 0.46743 0.35059 0.7329 0.0
H1030 H 0.44982 0.37209 0.74209 0.0
H1031 H 0.47467 0.37847 0.72804 0.0
H1032 H 0.45684 0.41985 0.65735 0.0
H1033 H 0.42588 0.44129 0.67008 0.0
H1034 H 0.41404 0.39471 0.72149 0.0
C1035 C 0.47096 0.34018 0.68208 0.0
C1036 C 0.48074 0.33763 0.66149 0.0
C1037 C 0.48559 0.3561 0.64888 0.0
C1038 C 0.47865 0.37667 0.65566 0.0
C1039 C 0.46739 0.37843 0.67528 0.0
C1040 C 0.46413 0.36075 0.68869 0.0
C1041 C 0.44863 0.36616 0.70708 0.0
C1042 C 0.42939 0.35021 0.70807 0.0
C1043 C 0.46087 0.36687 0.72882 0.0
C1044 C 0.4415 0.38867 0.70035 0.0
C1045 C 0.45325 0.39573 0.6825 0.0
C1046 C 0.44803 0.41479 0.67167 0.0
C1047 C 0.43019 0.42673 0.67893 0.0
C1048 C 0.41752 0.41958 0.69677 0.0
C1049 C 0.42367 0.40066 0.70805 0.0
H1050 H 0.92546 0.70674 0.92961 0.0
H1051 H 0.89917 0.73742 0.87189 0.0
H1052 H 0.86212 0.72821 0.88412 0.0
H1053 H 0.89505 0.66266 0.92784 0.0
H1054 H 0.89076 0.65916 0.95657 0.0
H1055 H 0.91438 0.6733 0.94707 0.0
H1056 H 0.90415 0.7069 0.97005 0.0
H1057 H 0.8806 0.69271 0.98007 0.0
H1058 H 0.87755 0.71881 0.96726 0.0
H1059 H 0.82968 0.70908 0.89796 0.0
H1060 H 0.80376 0.68277 0.91293 0.0
H1061 H 0.85102 0.66346 0.9615 0.0
C1062 C 0.91187 0.71227 0.9199 0.0
C1063 C 0.91518 0.72281 0.89976 0.0
C1064 C 0.89702 0.72954 0.88745 0.0
C1065 C 0.87591 0.72436 0.8943 0.0
C1066 C 0.87334 0.71276 0.91359 0.0
C1067 C 0.89083 0.7071 0.92643 0.0
C1068 C 0.88414 0.69207 0.94472 0.0
C1069 C 0.89683 0.67053 0.94397 0.0
C1070 C 0.88676 0.7033 0.96684 0.0
C1071 C 0.86043 0.68882 0.93922 0.0
C1072 C 0.85443 0.70137 0.92156 0.0
C1073 C 0.83404 0.69958 0.91207 0.0
C1074 C 0.81951 0.68441 0.92059 0.0
C1075 C 0.82545 0.67104 0.93835 0.0
C1076 C 0.84599 0.67367 0.94811 0.0
H1077 H 0.54156 0.14309 0.13889 0.0
H1078 H 0.52823 0.18377 0.19448 0.0
H1079 H 0.54125 0.1547 0.21907 0.0
H1080 H 0.53125 0.08877 0.16365 0.0
H1081 H 0.55434 0.07728 0.14982 0.0
H1082 H 0.53933 0.09914 0.1375 0.0
H1083 H 0.575 0.12119 0.13405 0.0
H1084 H 0.59003 0.09968 0.14678 0.0
H1085 H 0.59086 0.12663 0.15803 0.0
H1086 H 0.56132 0.12326 0.23691 0.0
H1087 H 0.58512 0.09201 0.24613 0.0
H1088 H 0.58619 0.07362 0.17813 0.0
C1089 C 0.5403 0.14531 0.15629 0.0
C1090 C 0.5332 0.16512 0.165 0.0
C1091 C 0.53304 0.16827 0.18773 0.0
C1092 C 0.5405 0.15193 0.20174 0.0
C1093 C 0.54837 0.13278 0.19262 0.0
C1094 C 0.54819 0.12941 0.17037 0.0
C1095 C 0.56044 0.10911 0.16428 0.0
C1096 C 0.54543 0.09259 0.15317 0.0
C1097 C 0.58024 0.11448 0.14995 0.0
C1098 C 0.56741 0.10149 0.1865 0.0
C1099 C 0.5604 0.11523 0.20272 0.0
C1100 C 0.56656 0.11216 0.22436 0.0
C1101 C 0.58016 0.0945 0.22945 0.0
C1102 C 0.58734 0.08027 0.21292 0.0
C1103 C 0.5807 0.08391 0.19128 0.0
H1104 H 0.03159 0.8535 0.32572 0.0
H1105 H 0.09225 0.81858 0.3347 0.0
H1106 H 0.1084 0.83833 0.30443 0.0
H1107 H 0.03704 0.85857 0.2645 0.0
H1108 H 0.02575 0.88553 0.26435 0.0
H1109 H 0.0169 0.86607 0.28435 0.0
H1110 H 0.02725 0.89246 0.31549 0.0
H1111 H 0.03529 0.91211 0.29557 0.0
H1112 H 0.05426 0.90372 0.31624 0.0
H1113 H 0.11971 0.86335 0.27591 0.0
H1114 H 0.12774 0.89764 0.25736 0.0
H1115 H 0.0611 0.91821 0.26663 0.0
C1116 C 0.04812 0.84981 0.32103 0.0
C1117 C 0.06044 0.83423 0.33253 0.0
C1118 C 0.08223 0.8302 0.32612 0.0
C1119 C 0.09159 0.84118 0.30869 0.0
C1120 C 0.07906 0.85618 0.29751 0.0
C1121 C 0.05791 0.86082 0.30356 0.0
C1122 C 0.04914 0.87972 0.29045 0.0
C1123 C 0.03114 0.87202 0.275 0.0
C1124 C 0.04104 0.89808 0.30533 0.0
C1125 C 0.06933 0.88614 0.27776 0.0
C1126 C 0.08597 0.87153 0.28119 0.0
C1127 C 0.10673 0.87475 0.27273 0.0
C1128 C 0.1111 0.89422 0.26189 0.0
C1129 C 0.095 0.91051 0.26042 0.0
C1130 C 0.07352 0.90578 0.26712 0.0
H1131 H 0.3954 0.28944 0.61887 0.0
H1132 H 0.4368 0.27413 0.5642 0.0
H1133 H 0.40915 0.28861 0.53898 0.0
H1134 H 0.34133 0.28098 0.59153 0.0
H1135 H 0.32993 0.30416 0.60524 0.0
H1136 H 0.35076 0.28828 0.61826 0.0
H1137 H 0.37375 0.32311 0.62334 0.0
H1138 H 0.35331 0.339 0.60988 0.0
H1139 H 0.38081 0.33913 0.5999 0.0
H1140 H 0.38004 0.31077 0.52045 0.0
H1141 H 0.35004 0.33567 0.51012 0.0
H1142 H 0.32839 0.3366 0.57713 0.0
C1143 C 0.39802 0.28807 0.60153 0.0
C1144 C 0.41782 0.28019 0.59333 0.0
C1145 C 0.42141 0.27972 0.57064 0.0
C1146 C 0.40587 0.288 0.55623 0.0
C1147 C 0.38692 0.2968 0.56485 0.0
C1148 C 0.38281 0.29662 0.58697 0.0
C1149 C 0.36261 0.30946 0.59235 0.0
C1150 C 0.34512 0.29484 0.60243 0.0
C1151 C 0.36795 0.32881 0.60724 0.0
C1152 C 0.35616 0.31703 0.56991 0.0
C1153 C 0.37032 0.30966 0.5542 0.0
C1154 C 0.36854 0.31625 0.53256 0.0
C1155 C 0.35162 0.3305 0.52684 0.0
C1156 C 0.33678 0.33784 0.54275 0.0
C1157 C 0.3392 0.33092 0.56448 0.0
H1158 H 0.9189 0.57651 0.83312 0.0
H1159 H 0.92132 0.59366 0.76485 0.0
H1160 H 0.95082 0.61984 0.77279 0.0
H1161 H 0.92362 0.62847 0.85254 0.0
H1162 H 0.9393 0.62109 0.87612 0.0
H1163 H 0.92121 0.60172 0.86408 0.0
H1164 H 0.95327 0.57466 0.86006 0.0
H1165 H 0.97159 0.59423 0.87177 0.0
H1166 H 0.97729 0.58276 0.84546 0.0
H1167 H 0.97635 0.64724 0.78911 0.0
H1168 H 0.99222 0.67574 0.81228 0.0
H1169 H 0.9734 0.63998 0.86973 0.0
C1170 C 0.92585 0.58544 0.81968 0.0
C1171 C 0.91785 0.58298 0.79833 0.0
C1172 C 0.92721 0.59527 0.78133 0.0
C1173 C 0.9441 0.61 0.78568 0.0
C1174 C 0.9515 0.61205 0.80704 0.0
C1175 C 0.94254 0.60013 0.82373 0.0
C1176 C 0.95126 0.60703 0.84561 0.0
C1177 C 0.93276 0.61506 0.86044 0.0
C1178 C 0.96412 0.58857 0.85635 0.0
C1179 C 0.96607 0.62534 0.83883 0.0
C1180 C 0.96635 0.62772 0.81646 0.0
C1181 C 0.97669 0.64519 0.80656 0.0
C1182 C 0.98581 0.66123 0.81985 0.0
C1183 C 0.98443 0.65974 0.84277 0.0
C1184 C 0.97548 0.64103 0.8523 0.0
H1185 H 0.15826 0.67513 0.02006 0.0
H1186 H 0.1496 0.61107 0.04768 0.0
H1187 H 0.12406 0.62603 0.07445 0.0
H1188 H 0.15767 0.70543 0.06479 0.0
H1189 H 0.14062 0.72753 0.05603 0.0
H1190 H 0.15569 0.71207 0.03636 0.0
H1191 H 0.12057 0.70264 0.01531 0.0
H1192 H 0.10545 0.71905 0.03423 0.0
H1193 H 0.0978 0.69122 0.02969 0.0
H1194 H 0.10832 0.64861 0.10317 0.0
H1195 H 0.08841 0.67544 0.12495 0.0
H1196 H 0.10107 0.72474 0.07635 0.0
C1197 C 0.1498 0.66409 0.0308 0.0
C1198 C 0.15564 0.64189 0.03169 0.0
C1199 C 0.1449 0.62796 0.04639 0.0
C1200 C 0.13072 0.63641 0.06195 0.0
C1201 C 0.12671 0.65861 0.06183 0.0
C1202 C 0.13469 0.67211 0.04585 0.0
C1203 C 0.12713 0.69535 0.04948 0.0
C1204 C 0.14644 0.711 0.0518 0.0
C1205 C 0.11182 0.70249 0.03109 0.0
C1206 C 0.11495 0.6929 0.07079 0.0
C1207 C 0.11548 0.67157 0.0777 0.0
C1208 C 0.10705 0.6652 0.0976 0.0
C1209 C 0.09615 0.68063 0.11002 0.0
C1210 C 0.09328 0.70205 0.1023 0.0
C1211 C 0.10332 0.70853 0.08272 0.0
H1212 H 0.43057 0.82456 0.17743 0.0
H1213 H 0.48959 0.85117 0.14966 0.0
H1214 H 0.48528 0.88385 0.1726 0.0
H1215 H 0.40121 0.87092 0.17542 0.0
H1216 H 0.38643 0.86655 0.2003 0.0
H1217 H 0.39673 0.84379 0.18536 0.0
H1218 H 0.41697 0.83085 0.21957 0.0
H1219 H 0.40756 0.85394 0.23481 0.0
H1220 H 0.43624 0.84847 0.23278 0.0
H1221 H 0.47167 0.91531 0.19405 0.0
H1222 H 0.44871 0.94411 0.20942 0.0
H1223 H 0.39797 0.89726 0.22263 0.0
C1224 C 0.44291 0.83701 0.17646 0.0
C1225 C 0.46044 0.83532 0.16174 0.0
C1226 C 0.47608 0.85209 0.16087 0.0
C1227 C 0.47383 0.87061 0.17396 0.0
C1228 C 0.45602 0.87193 0.18795 0.0
C1229 C 0.44084 0.85552 0.18927 0.0
C1230 C 0.42165 0.86196 0.20322 0.0
C1231 C 0.40026 0.86075 0.19029 0.0
C1232 C 0.42057 0.84798 0.22383 0.0
C1233 C 0.42771 0.88509 0.2086 0.0
C1234 C 0.44792 0.89029 0.20018 0.0
C1235 C 0.45608 0.91129 0.20107 0.0
C1236 C 0.44287 0.92754 0.20982 0.0
C1237 C 0.42163 0.92279 0.21733 0.0
C1238 C 0.41434 0.90116 0.21757 0.0
H1239 H 0.39492 0.2078 0.88759 0.0
H1240 H 0.42653 0.23386 0.94449 0.0
H1241 H 0.39858 0.21681 0.96793 0.0
H1242 H 0.33715 0.20746 0.90775 0.0
H1243 H 0.33252 0.18173 0.89467 0.0
H1244 H 0.35128 0.20084 0.88298 0.0
H1245 H 0.38094 0.17099 0.88335 0.0
H1246 H 0.36268 0.15209 0.89594 0.0
H1247 H 0.38825 0.15834 0.90871 0.0
H1248 H 0.37059 0.19096 0.98511 0.0
H1249 H 0.34313 0.16258 0.99368 0.0
H1250 H 0.3331 0.15226 0.92478 0.0
C1251 C 0.39502 0.2111 0.90487 0.0
C1252 C 0.41214 0.22281 0.91429 0.0
C1253 C 0.41286 0.22568 0.93705 0.0
C1254 C 0.39725 0.21578 0.95044 0.0
C1255 C 0.38132 0.20297 0.94069 0.0
C1256 C 0.37996 0.20096 0.91832 0.0
C1257 C 0.36364 0.18398 0.91172 0.0
C1258 C 0.34504 0.19412 0.89851 0.0
C1259 C 0.37454 0.16527 0.8992 0.0
C1260 C 0.35607 0.17661 0.93376 0.0
C1261 C 0.36627 0.18761 0.95039 0.0
C1262 C 0.3623 0.18247 0.97216 0.0
C1263 C 0.34696 0.16617 0.9769 0.0
C1264 C 0.33601 0.15531 0.95989 0.0
C1265 C 0.34104 0.16044 0.93817 0.0
H1266 H 0.60872 0.2798 0.38433 0.0
H1267 H 0.56758 0.26792 0.44002 0.0
H1268 H 0.59507 0.28414 0.46405 0.0
H1269 H 0.66394 0.2749 0.41522 0.0
H1270 H 0.67489 0.29654 0.39892 0.0
H1271 H 0.65557 0.27786 0.38733 0.0
H1272 H 0.63132 0.31037 0.3762 0.0
H1273 H 0.65008 0.32907 0.38821 0.0
H1274 H 0.62209 0.32903 0.39677 0.0
H1275 H 0.62201 0.31005 0.48031 0.0
H1276 H 0.64815 0.33984 0.48752 0.0
H1277 H 0.6714 0.33464 0.42123 0.0
C1278 C 0.60624 0.27926 0.40172 0.0
C1279 C 0.58624 0.27236 0.41036 0.0
C1280 C 0.58301 0.27284 0.43315 0.0
C1281 C 0.59851 0.28212 0.44694 0.0
C1282 C 0.61735 0.29054 0.43774 0.0
C1283 C 0.62159 0.28861 0.4157 0.0
C1284 C 0.64131 0.30178 0.40936 0.0
C1285 C 0.66004 0.28688 0.40229 0.0
C1286 C 0.63585 0.31854 0.39161 0.0
C1287 C 0.64636 0.31265 0.43078 0.0
C1288 C 0.63277 0.30568 0.44714 0.0
C1289 C 0.63317 0.31519 0.46776 0.0
C1290 C 0.64791 0.3322 0.4717 0.0
C1291 C 0.6617 0.33968 0.45495 0.0
C1292 C 0.66105 0.3294 0.43444 0.0
H1293 H 0.66185 0.97623 0.85525 0.0
H1294 H 0.69604 0.94111 0.80496 0.0
H1295 H 0.72297 0.92858 0.83173 0.0
H1296 H 0.71271 0.98686 0.8923 0.0
H1297 H 0.69617 0.98251 0.91603 0.0
H1298 H 0.68465 0.99517 0.89227 0.0
H1299 H 0.65429 0.96612 0.89174 0.0
H1300 H 0.66577 0.95325 0.91513 0.0
H1301 H 0.66164 0.93782 0.89062 0.0
H1302 H 0.73954 0.91206 0.86409 0.0
H1303 H 0.74398 0.89305 0.8991 0.0
H1304 H 0.69867 0.93781 0.92897 0.0
C1305 C 0.67576 0.96696 0.84982 0.0
C1306 C 0.67713 0.95975 0.82821 0.0
C1307 C 0.69492 0.94686 0.82155 0.0
C1308 C 0.71037 0.93979 0.83662 0.0
C1309 C 0.70782 0.94585 0.85825 0.0
C1310 C 0.69112 0.95947 0.86483 0.0
C1311 C 0.68941 0.96013 0.88932 0.0
C1312 C 0.69614 0.9825 0.89799 0.0
C1313 C 0.66644 0.95394 0.89713 0.0
C1314 C 0.70605 0.94309 0.8953 0.0
C1315 C 0.7172 0.93574 0.87728 0.0
C1316 C 0.73144 0.91814 0.87844 0.0
C1317 C 0.73383 0.90738 0.89836 0.0
C1318 C 0.72163 0.914 0.91663 0.0
C1319 C 0.70827 0.93254 0.91521 0.0
H1320 H 0.34479 0.52552 0.35701 0.0
H1321 H 0.29756 0.54345 0.3082 0.0
H1322 H 0.27091 0.55206 0.33689 0.0
H1323 H 0.30604 0.50593 0.40104 0.0
H1324 H 0.32219 0.51892 0.4217 0.0
H1325 H 0.33505 0.50808 0.39774 0.0
H1326 H 0.35241 0.5456 0.39005 0.0
H1327 H 0.33966 0.55649 0.41383 0.0
H1328 H 0.33513 0.5691 0.38784 0.0
H1329 H 0.25289 0.56657 0.37003 0.0
H1330 H 0.24598 0.58648 0.40422 0.0
H1331 H 0.30462 0.55884 0.43168 0.0
C1332 C 0.32842 0.53008 0.35248 0.0
C1333 C 0.3229 0.53332 0.33058 0.0
C1334 C 0.30181 0.54053 0.32502 0.0
C1335 C 0.28659 0.54538 0.34119 0.0
C1336 C 0.29279 0.54306 0.36282 0.0
C1337 C 0.31322 0.53546 0.36848 0.0
C1338 C 0.31749 0.53846 0.39245 0.0
C1339 C 0.32035 0.51653 0.40391 0.0
C1340 C 0.33732 0.55329 0.39624 0.0
C1341 C 0.29661 0.54944 0.39925 0.0
C1342 C 0.28238 0.55173 0.38207 0.0
C1343 C 0.26356 0.56431 0.3838 0.0
C1344 C 0.25969 0.57552 0.4033 0.0
C1345 C 0.27472 0.57413 0.42059 0.0
C1346 C 0.29269 0.56002 0.41881 0.0
H1347 H 0.16431 0.97219 0.34975 0.0
H1348 H 0.13341 0.91559 0.32171 0.0
H1349 H 0.15691 0.89173 0.34354 0.0
H1350 H 0.21775 0.95067 0.35278 0.0
H1351 H 0.22442 0.96219 0.37883 0.0
H1352 H 0.20502 0.97554 0.36146 0.0
H1353 H 0.17564 0.97434 0.39171 0.0
H1354 H 0.19564 0.96235 0.40928 0.0
H1355 H 0.16997 0.94893 0.40505 0.0
H1356 H 0.18566 0.87404 0.36507 0.0
H1357 H 0.20996 0.8627 0.39477 0.0
H1358 H 0.22047 0.93009 0.41183 0.0
C1359 C 0.16202 0.9548 0.34893 0.0
C1360 C 0.14694 0.9456 0.33438 0.0
C1361 C 0.1447 0.92281 0.33313 0.0
C1362 C 0.1582 0.90915 0.34514 0.0
C1363 C 0.17373 0.91858 0.35849 0.0
C1364 C 0.17517 0.94081 0.36122 0.0
C1365 C 0.19261 0.94644 0.37766 0.0
C1366 C 0.21104 0.95948 0.36704 0.0
C1367 C 0.18287 0.95872 0.39709 0.0
C1368 C 0.20029 0.92388 0.38395 0.0
C1369 C 0.18976 0.90816 0.37197 0.0
C1370 C 0.19398 0.88613 0.37471 0.0
C1371 C 0.20811 0.87984 0.39134 0.0
C1372 C 0.21721 0.89552 0.40535 0.0
C1373 C 0.21403 0.91783 0.401 0.0
H1374 H 0.83388 0.52048 0.85797 0.0
H1375 H 0.80011 0.55181 0.80497 0.0
H1376 H 0.77049 0.5622 0.82967 0.0
H1377 H 0.78122 0.50639 0.89208 0.0
H1378 H 0.79579 0.51239 0.91673 0.0
H1379 H 0.80972 0.50006 0.8941 0.0
H1380 H 0.83803 0.53112 0.89463 0.0
H1381 H 0.82429 0.54338 0.91706 0.0
H1382 H 0.82882 0.55883 0.89261 0.0
H1383 H 0.75089 0.57805 0.86031 0.0
H1384 H 0.74454 0.59905 0.89376 0.0
H1385 H 0.79071 0.55855 0.92792 0.0
C1386 C 0.81957 0.52838 0.8515 0.0
C1387 C 0.819 0.53513 0.8297 0.0
C1388 C 0.80062 0.54634 0.82169 0.0
C1389 C 0.78365 0.55217 0.83559 0.0
C1390 C 0.78523 0.54661 0.85745 0.0
C1391 C 0.80262 0.53465 0.86536 0.0
C1392 C 0.80279 0.53462 0.88996 0.0
C1393 C 0.79704 0.51202 0.89874 0.0
C1394 C 0.82476 0.54249 0.89906 0.0
C1395 C 0.78463 0.55057 0.89448 0.0
C1396 C 0.77391 0.55637 0.87562 0.0
C1397 C 0.75863 0.57313 0.87529 0.0
C1398 C 0.75507 0.585 0.89438 0.0
C1399 C 0.76716 0.58032 0.91331 0.0
C1400 C 0.78113 0.56218 0.91363 0.0
H1401 H 0.83715 0.81191 0.51149 0.0
H1402 H 0.85214 0.87957 0.52287 0.0
H1403 H 0.88076 0.86896 0.54849 0.0
H1404 H 0.84244 0.79152 0.55972 0.0
H1405 H 0.85775 0.76713 0.5546 0.0
H1406 H 0.84137 0.77876 0.5334 0.0
H1407 H 0.87446 0.78171 0.50765 0.0
H1408 H 0.89072 0.7687 0.52822 0.0
H1409 H 0.899 0.79446 0.51718 0.0
H1410 H 0.89678 0.85208 0.5807 0.0
H1411 H 0.91718 0.8294 0.60625 0.0
H1412 H 0.89925 0.77176 0.56997 0.0
C1413 C 0.8477 0.82435 0.51799 0.0
C1414 C 0.84256 0.84656 0.51524 0.0
C1415 C 0.85615 0.86253 0.52447 0.0
C1416 C 0.8721 0.85665 0.53945 0.0
C1417 C 0.87513 0.83471 0.54371 0.0
C1418 C 0.8647 0.81869 0.53207 0.0
C1419 C 0.87164 0.79631 0.53991 0.0
C1420 C 0.85212 0.78264 0.54734 0.0
C1421 C 0.88474 0.7846 0.52219 0.0
C1422 C 0.88603 0.80245 0.55896 0.0
C1423 C 0.88715 0.82475 0.56103 0.0
C1424 C 0.89709 0.83466 0.57861 0.0
C1425 C 0.90824 0.82158 0.59325 0.0
C1426 C 0.91014 0.79896 0.58974 0.0
C1427 C 0.89806 0.78902 0.57298 0.0
H1428 H 0.07759 0.2797 0.93707 0.0
H1429 H 0.10388 0.25445 0.87703 0.0
H1430 H 0.14067 0.2651 0.88865 0.0
H1431 H 0.10323 0.3243 0.93977 0.0
H1432 H 0.10997 0.32573 0.96822 0.0
H1433 H 0.08722 0.30981 0.95955 0.0
H1434 H 0.1031 0.27552 0.97773 0.0
H1435 H 0.1257 0.29147 0.98733 0.0
H1436 H 0.13052 0.26727 0.97168 0.0
H1437 H 0.17109 0.28734 0.90115 0.0
H1438 H 0.19506 0.31527 0.91598 0.0
H1439 H 0.14997 0.3263 0.96906 0.0
C1440 C 0.09137 0.27519 0.9271 0.0
C1441 C 0.08815 0.26601 0.90636 0.0
C1442 C 0.1062 0.26091 0.89322 0.0
C1443 C 0.12712 0.26706 0.89967 0.0
C1444 C 0.12962 0.27761 0.91956 0.0
C1445 C 0.11237 0.28091 0.93352 0.0
C1446 C 0.11893 0.29502 0.95263 0.0
C1447 C 0.10395 0.31489 0.95514 0.0
C1448 C 0.1196 0.28152 0.97359 0.0
C1449 C 0.14162 0.30144 0.94575 0.0
C1450 C 0.14768 0.29058 0.92704 0.0
C1451 C 0.16686 0.29535 0.9162 0.0
C1452 C 0.18026 0.3115 0.92469 0.0
C1453 C 0.17441 0.323 0.94379 0.0
C1454 C 0.15498 0.3176 0.95465 0.0
H1455 H 0.89574 0.21799 0.41372 0.0
H1456 H 0.93804 0.16148 0.41367 0.0
H1457 H 0.91504 0.14394 0.44058 0.0
H1458 H 0.88152 0.21436 0.47286 0.0
H1459 H 0.85372 0.22235 0.46841 0.0
H1460 H 0.87487 0.23242 0.45084 0.0
H1461 H 0.8545 0.21752 0.41718 0.0
H1462 H 0.83318 0.20788 0.43461 0.0
H1463 H 0.84675 0.18933 0.41649 0.0
H1464 H 0.88709 0.13081 0.46541 0.0
H1465 H 0.85232 0.12092 0.48239 0.0
H1466 H 0.82681 0.18473 0.46693 0.0
C1467 C 0.90023 0.20205 0.41957 0.0
C1468 C 0.91892 0.19136 0.41161 0.0
C1469 C 0.92402 0.17031 0.41954 0.0
C1470 C 0.91113 0.16013 0.43506 0.0
C1471 C 0.89306 0.17109 0.44278 0.0
C1472 C 0.88737 0.19146 0.43524 0.0
C1473 C 0.86591 0.19855 0.44505 0.0
C1474 C 0.86921 0.21808 0.46019 0.0
C1475 C 0.84909 0.20359 0.42727 0.0
C1476 C 0.85994 0.17839 0.45794 0.0
C1477 C 0.87629 0.16312 0.45704 0.0
C1478 C 0.87421 0.14271 0.46654 0.0
C1479 C 0.85443 0.13727 0.47632 0.0
C1480 C 0.83685 0.15204 0.47606 0.0
C1481 C 0.84004 0.17318 0.46757 0.0
H1482 H 0.52917 0.64409 0.65654 0.0
H1483 H 0.54825 0.69385 0.70221 0.0
H1484 H 0.55942 0.66568 0.72852 0.0
H1485 H 0.51326 0.6 0.69673 0.0
H1486 H 0.52579 0.57962 0.6799 0.0
H1487 H 0.5135 0.60316 0.66763 0.0
H1488 H 0.54971 0.61151 0.6479 0.0
H1489 H 0.56215 0.58828 0.66025 0.0
H1490 H 0.57419 0.61469 0.66364 0.0
H1491 H 0.57585 0.633 0.746 0.0
H1492 H 0.5958 0.59882 0.75297 0.0
H1493 H 0.56621 0.57058 0.69561 0.0
C1494 C 0.53458 0.64891 0.67256 0.0
C1495 C 0.53747 0.67092 0.6777 0.0
C1496 C 0.54569 0.67692 0.69827 0.0
C1497 C 0.552 0.66105 0.71328 0.0
C1498 C 0.55009 0.63933 0.70733 0.0
C1499 C 0.54141 0.63325 0.68747 0.0
C1500 C 0.54482 0.60937 0.6832 0.0
C1501 C 0.52304 0.59733 0.6818 0.0
C1502 C 0.55853 0.60577 0.66255 0.0
C1503 C 0.55725 0.60311 0.70341 0.0
C1504 C 0.55995 0.62046 0.71731 0.0
C1505 C 0.57335 0.61911 0.73556 0.0
C1506 C 0.58466 0.59967 0.73939 0.0
C1507 C 0.58254 0.58201 0.72491 0.0
C1508 C 0.56804 0.58366 0.70719 0.0
H1509 H 0.42194 0.79136 0.06234 0.0
H1510 H 0.38765 0.75037 0.10809 0.0
H1511 H 0.35386 0.75546 0.08687 0.0
H1512 H 0.38512 0.83005 0.06003 0.0
H1513 H 0.38817 0.83683 0.03172 0.0
H1514 H 0.41033 0.82471 0.04612 0.0
H1515 H 0.41203 0.79371 0.01784 0.0
H1516 H 0.38972 0.8058 0.00321 0.0
H1517 H 0.38803 0.778 0.01209 0.0
H1518 H 0.32311 0.77113 0.06587 0.0
H1519 H 0.29812 0.79782 0.04981 0.0
H1520 H 0.3521 0.83003 0.01851 0.0
C1521 C 0.40749 0.78279 0.06752 0.0
C1522 C 0.4074 0.7704 0.08685 0.0
C1523 C 0.38815 0.75969 0.0932 0.0
C1524 C 0.36891 0.76247 0.08117 0.0
C1525 C 0.36936 0.77575 0.06274 0.0
C1526 C 0.38827 0.78562 0.05589 0.0
C1527 C 0.38401 0.80201 0.03805 0.0
C1528 C 0.39238 0.82472 0.04439 0.0
C1529 C 0.39405 0.79442 0.01652 0.0
C1530 C 0.35947 0.80123 0.03709 0.0
C1531 C 0.35141 0.78531 0.0508 0.0
C1532 C 0.32925 0.78319 0.05469 0.0
C1533 C 0.31515 0.7984 0.04542 0.0
C1534 C 0.32322 0.81573 0.03266 0.0
C1535 C 0.3455 0.81649 0.02753 0.0
H1536 H 0.41527 0.72561 0.43496 0.0
H1537 H 0.40204 0.72037 0.36609 0.0
H1538 H 0.36839 0.70041 0.37401 0.0
H1539 H 0.40033 0.67764 0.45205 0.0
H1540 H 0.38541 0.68454 0.47627 0.0
H1541 H 0.40595 0.70262 0.46622 0.0
H1542 H 0.37835 0.73417 0.46411 0.0
H1543 H 0.35779 0.71643 0.47503 0.0
H1544 H 0.35314 0.73038 0.44975 0.0
H1545 H 0.34239 0.67437 0.38828 0.0
H1546 H 0.31848 0.65009 0.40863 0.0
H1547 H 0.34543 0.67373 0.46937 0.0
C1548 C 0.4045 0.72142 0.42172 0.0
C1549 C 0.41085 0.72488 0.39994 0.0
C1550 C 0.39699 0.7185 0.38284 0.0
C1551 C 0.378 0.70691 0.38719 0.0
C1552 C 0.37275 0.70266 0.40876 0.0
C1553 C 0.38491 0.71057 0.42585 0.0
C1554 C 0.37571 0.70292 0.44745 0.0
C1555 C 0.39289 0.69122 0.46129 0.0
C1556 C 0.36566 0.72211 0.45982 0.0
C1557 C 0.35816 0.68751 0.43962 0.0
C1558 C 0.35663 0.68804 0.41723 0.0
C1559 C 0.34279 0.67443 0.40584 0.0
C1560 C 0.32936 0.66058 0.41761 0.0
C1561 C 0.3298 0.6603 0.44061 0.0
C1562 C 0.34467 0.67372 0.45181 0.0
H1563 H 0.67617 0.8171 0.94258 0.0
H1564 H 0.64184 0.85208 0.99317 0.0
H1565 H 0.60845 0.83165 0.98433 0.0
H1566 H 0.63771 0.8205 0.90465 0.0
H1567 H 0.64141 0.794 0.89284 0.0
H1568 H 0.66359 0.80693 0.90658 0.0
H1569 H 0.66757 0.77376 0.9321 0.0
H1570 H 0.64538 0.76058 0.91828 0.0
H1571 H 0.64439 0.76435 0.94727 0.0
H1572 H 0.57807 0.81229 0.96635 0.0
H1573 H 0.55242 0.79787 0.93954 0.0
H1574 H 0.60608 0.77668 0.8991 0.0
C1575 C 0.66182 0.82005 0.95228 0.0
C1576 C 0.66163 0.83618 0.96863 0.0
C1577 C 0.64243 0.8397 0.98072 0.0
C1578 C 0.62343 0.82808 0.97586 0.0
C1579 C 0.62402 0.81287 0.95906 0.0
C1580 C 0.64278 0.80874 0.94754 0.0
C1581 C 0.63854 0.79392 0.92834 0.0
C1582 C 0.64572 0.80449 0.90685 0.0
C1583 C 0.64963 0.77184 0.9317 0.0
C1584 C 0.6141 0.7918 0.92974 0.0
C1585 C 0.60621 0.80212 0.9481 0.0
C1586 C 0.5841 0.8039 0.95214 0.0
C1587 C 0.56965 0.79574 0.93668 0.0
C1588 C 0.57729 0.78627 0.9171 0.0
C1589 C 0.59981 0.78354 0.91401 0.0
H1590 H 0.71561 0.60357 0.60789 0.0
H1591 H 0.7107 0.55264 0.55985 0.0
H1592 H 0.69684 0.52741 0.5878 0.0
H1593 H 0.7272 0.5689 0.65723 0.0
H1594 H 0.70962 0.58552 0.67369 0.0
H1595 H 0.72442 0.59743 0.65145 0.0
H1596 H 0.68827 0.61204 0.63558 0.0
H1597 H 0.67333 0.59987 0.65743 0.0
H1598 H 0.66657 0.59332 0.62974 0.0
H1599 H 0.67692 0.51017 0.61923 0.0
H1600 H 0.65412 0.50244 0.65158 0.0
H1601 H 0.6716 0.56531 0.67806 0.0
C1602 C 0.71277 0.58676 0.60366 0.0
C1603 C 0.71476 0.57972 0.58208 0.0
C1604 C 0.7097 0.55802 0.57657 0.0
C1605 C 0.70178 0.54364 0.5923 0.0
C1606 C 0.69886 0.55134 0.61335 0.0
C1607 C 0.70441 0.57238 0.61908 0.0
C1608 C 0.69648 0.57787 0.64159 0.0
C1609 C 0.71557 0.5827 0.6569 0.0
C1610 C 0.6802 0.59688 0.64103 0.0
C1611 C 0.68536 0.55685 0.64748 0.0
C1612 C 0.68695 0.54162 0.63117 0.0
C1613 C 0.67597 0.5218 0.63234 0.0
C1614 C 0.66299 0.51757 0.65068 0.0
C1615 C 0.66107 0.53319 0.66738 0.0
C1616 C 0.67278 0.55284 0.66574 0.0
H1617 H 0.32076 0.98104 0.16267 0.0
H1618 H 0.38943 0.97022 0.1518 0.0
H1619 H 0.38093 0.94736 0.12032 0.0
H1620 H 0.30046 0.9338 0.15223 0.0
H1621 H 0.27731 0.94036 0.13554 0.0
H1622 H 0.28789 0.96017 0.15414 0.0
H1623 H 0.29328 0.98787 0.12306 0.0
H1624 H 0.28174 0.9685 0.1044 0.0
H1625 H 0.3081 0.97997 0.09911 0.0
H1626 H 0.36571 0.9182 0.09925 0.0
H1627 H 0.34468 0.89229 0.07804 0.0
H1628 H 0.28482 0.92466 0.09688 0.0
C1629 C 0.33391 0.97507 0.15264 0.0
C1630 C 0.35575 0.9776 0.15926 0.0
C1631 C 0.37269 0.96895 0.14649 0.0
C1632 C 0.368 0.95572 0.12877 0.0
C1633 C 0.34632 0.95228 0.12349 0.0
C1634 C 0.3295 0.96268 0.13405 0.0
C1635 C 0.30768 0.95545 0.12494 0.0
C1636 C 0.29246 0.94693 0.1428 0.0
C1637 C 0.29707 0.97405 0.11212 0.0
C1638 C 0.31495 0.93748 0.10974 0.0
C1639 C 0.33735 0.93621 0.10924 0.0
C1640 C 0.34822 0.91973 0.09849 0.0
C1641 C 0.33603 0.90494 0.08664 0.0
C1642 C 0.31312 0.90681 0.08527 0.0
C1643 C 0.30232 0.92302 0.09741 0.0
H1644 H 0.33905 0.48032 0.63974 0.0
H1645 H 0.29812 0.45651 0.69152 0.0
H1646 H 0.27063 0.44511 0.66482 0.0
H1647 H 0.29274 0.49363 0.59807 0.0
H1648 H 0.30955 0.48346 0.5764 0.0
H1649 H 0.32176 0.49729 0.59912 0.0
H1650 H 0.3468 0.46421 0.60571 0.0
H1651 H 0.33468 0.45032 0.58328 0.0
H1652 H 0.33483 0.43783 0.60975 0.0
H1653 H 0.2537 0.42655 0.63366 0.0
H1654 H 0.24916 0.40341 0.60111 0.0
H1655 H 0.30061 0.43892 0.56904 0.0
C1656 C 0.32362 0.47406 0.64537 0.0
C1657 C 0.32036 0.46965 0.66751 0.0
C1658 C 0.3006 0.46033 0.67452 0.0
C1659 C 0.28489 0.45384 0.65946 0.0
C1660 C 0.2892 0.45681 0.63745 0.0
C1661 C 0.30797 0.46709 0.63039 0.0
C1662 C 0.31106 0.46422 0.60619 0.0
C1663 C 0.30862 0.48595 0.59424 0.0
C1664 C 0.33312 0.45349 0.60096 0.0
C1665 C 0.29225 0.44927 0.60117 0.0
C1666 C 0.27936 0.4457 0.61918 0.0
C1667 C 0.26315 0.42979 0.61922 0.0
C1668 C 0.26062 0.41671 0.6007 0.0
C1669 C 0.27451 0.41951 0.5827 0.0
C1670 C 0.28966 0.43666 0.58262 0.0
H1671 H 0.66446 0.068 0.17057 0.0
H1672 H 0.67377 0.99959 0.15709 0.0
H1673 H 0.69602 0.00935 0.12474 0.0
H1674 H 0.65669 0.08337 0.1166 0.0
H1675 H 0.66933 0.10946 0.12024 0.0
H1676 H 0.65626 0.09641 0.14278 0.0
H1677 H 0.692 0.09932 0.16494 0.0
H1678 H 0.70532 0.11205 0.14226 0.0
H1679 H 0.71668 0.08786 0.15415 0.0
H1680 H 0.71532 0.02774 0.09234 0.0
H1681 H 0.72645 0.05222 0.06224 0.0
H1682 H 0.70343 0.10753 0.09875 0.0
C1683 C 0.67145 0.05492 0.16114 0.0
C1684 C 0.66771 0.03302 0.16648 0.0
C1685 C 0.6766 0.01649 0.15327 0.0
C1686 C 0.68932 0.02191 0.13502 0.0
C1687 C 0.69277 0.04385 0.13039 0.0
C1688 C 0.68381 0.05999 0.14308 0.0
C1689 C 0.68783 0.08229 0.13401 0.0
C1690 C 0.66626 0.09352 0.12805 0.0
C1691 C 0.70127 0.09619 0.14978 0.0
C1692 C 0.70066 0.0764 0.11412 0.0
C1693 C 0.70357 0.05421 0.11219 0.0
C1694 C 0.71351 0.04512 0.09396 0.0
C1695 C 0.71996 0.05907 0.07708 0.0
C1696 C 0.7163 0.08163 0.07878 0.0
C1697 C 0.70702 0.09036 0.09761 0.0
H1698 H 0.57396 0.19058 0.06495 0.0
H1699 H 0.60633 0.24234 0.09994 0.0
H1700 H 0.63976 0.23552 0.07859 0.0
H1701 H 0.61517 0.155 0.06709 0.0
H1702 H 0.61087 0.1431 0.04071 0.0
H1703 H 0.58857 0.15536 0.05487 0.0
H1704 H 0.58132 0.18061 0.02202 0.0
H1705 H 0.60369 0.16835 0.00766 0.0
H1706 H 0.60295 0.19731 0.01159 0.0
H1707 H 0.67099 0.21835 0.05891 0.0
H1708 H 0.69722 0.19237 0.04337 0.0
H1709 H 0.64418 0.15199 0.02106 0.0
C1710 C 0.58788 0.20093 0.06776 0.0
C1711 C 0.58761 0.21698 0.08413 0.0
C1712 C 0.60617 0.23006 0.08738 0.0
C1713 C 0.62517 0.22632 0.07527 0.0
C1714 C 0.62512 0.20971 0.05983 0.0
C1715 C 0.60682 0.19739 0.05592 0.0
C1716 C 0.6115 0.1787 0.04071 0.0
C1717 C 0.60623 0.15677 0.0515 0.0
C1718 C 0.59913 0.18142 0.01922 0.0
C1719 C 0.63564 0.18163 0.03751 0.0
C1720 C 0.64314 0.19987 0.0483 0.0
C1721 C 0.66523 0.20439 0.04996 0.0
C1722 C 0.68001 0.18952 0.04113 0.0
C1723 C 0.67263 0.17035 0.03082 0.0
C1724 C 0.65018 0.16684 0.02826 0.0
H1725 H 0.5273 0.33564 0.31781 0.0
H1726 H 0.53885 0.35304 0.38498 0.0
H1727 H 0.56053 0.38442 0.37309 0.0
H1728 H 0.57585 0.34594 0.29689 0.0
H1729 H 0.56807 0.359 0.27188 0.0
H1730 H 0.54979 0.34028 0.2848 0.0
H1731 H 0.5195 0.3693 0.28639 0.0
H1732 H 0.5373 0.38791 0.27251 0.0
H1733 H 0.52525 0.39547 0.29807 0.0
H1734 H 0.58706 0.40755 0.35487 0.0
H1735 H 0.60922 0.43019 0.33074 0.0
H1736 H 0.57874 0.40093 0.27438 0.0
C1737 C 0.53335 0.34687 0.3299 0.0
C1738 C 0.53123 0.34226 0.35229 0.0
C1739 C 0.53985 0.35673 0.36781 0.0
C1740 C 0.55245 0.37437 0.36119 0.0
C1741 C 0.55553 0.37761 0.33902 0.0
C1742 C 0.54539 0.36502 0.32352 0.0
C1743 C 0.55191 0.372 0.30075 0.0
C1744 C 0.56201 0.35317 0.28784 0.0
C1745 C 0.53233 0.38175 0.28872 0.0
C1746 C 0.5686 0.3893 0.30602 0.0
C1747 C 0.57033 0.39209 0.32825 0.0
C1748 C 0.58536 0.40608 0.33745 0.0
C1749 C 0.59802 0.41865 0.32361 0.0
C1750 C 0.59551 0.41734 0.3008 0.0
C1751 C 0.58103 0.40208 0.29177 0.0
H1752 H 0.47338 0.14609 0.84909 0.0
H1753 H 0.44775 0.19661 0.80747 0.0
H1754 H 0.4362 0.16909 0.78084 0.0
H1755 H 0.489 0.10598 0.8042 0.0
H1756 H 0.47996 0.08351 0.82058 0.0
H1757 H 0.49153 0.10714 0.83334 0.0
H1758 H 0.45701 0.11115 0.85709 0.0
H1759 H 0.44537 0.08771 0.84441 0.0
H1760 H 0.43084 0.11309 0.84409 0.0
H1761 H 0.42048 0.13654 0.763 0.0
H1762 H 0.40181 0.10173 0.75599 0.0
H1763 H 0.43786 0.0723 0.80886 0.0
C1764 C 0.46627 0.15132 0.83388 0.0
C1765 C 0.46159 0.17334 0.83016 0.0
C1766 C 0.4515 0.17971 0.81051 0.0
C1767 C 0.44502 0.16422 0.79523 0.0
C1768 C 0.44884 0.14245 0.79981 0.0
C1769 C 0.45944 0.13599 0.81859 0.0
C1770 C 0.45836 0.11167 0.82144 0.0
C1771 C 0.48107 0.10148 0.81978 0.0
C1772 C 0.44723 0.10557 0.84302 0.0
C1773 C 0.44449 0.10567 0.80208 0.0
C1774 C 0.43955 0.12352 0.78948 0.0
C1775 C 0.42471 0.12231 0.77237 0.0
C1776 C 0.41415 0.1025 0.76849 0.0
C1777 C 0.41838 0.08436 0.78188 0.0
C1778 C 0.43438 0.08586 0.79824 0.0
H1779 H 0.92417 0.42134 0.17498 0.0
H1780 H 0.92425 0.40399 0.24325 0.0
H1781 H 0.954 0.37767 0.23612 0.0
H1782 H 0.92894 0.36888 0.15659 0.0
H1783 H 0.94442 0.37636 0.13293 0.0
H1784 H 0.92604 0.3955 0.14486 0.0
H1785 H 0.95777 0.42302 0.14847 0.0
H1786 H 0.97641 0.40357 0.13708 0.0
H1787 H 0.9819 0.41548 0.16325 0.0
H1788 H 0.97854 0.34882 0.21969 0.0
H1789 H 0.99281 0.31979 0.19596 0.0
H1790 H 0.97864 0.35864 0.13943 0.0
C1791 C 0.93064 0.4124 0.18867 0.0
C1792 C 0.92189 0.41475 0.20971 0.0
C1793 C 0.93073 0.40245 0.22698 0.0
C1794 C 0.94772 0.38762 0.22308 0.0
C1795 C 0.95575 0.38559 0.20193 0.0
C1796 C 0.94735 0.39773 0.18508 0.0
C1797 C 0.95626 0.39083 0.16336 0.0
C1798 C 0.93784 0.38239 0.14859 0.0
C1799 C 0.96885 0.40933 0.15241 0.0
C1800 C 0.97118 0.37274 0.17039 0.0
C1801 C 0.97071 0.36983 0.19272 0.0
C1802 C 0.97978 0.35147 0.20237 0.0
C1803 C 0.98819 0.33517 0.18882 0.0
C1804 C 0.98769 0.33757 0.166 0.0
C1805 C 0.98042 0.35713 0.15687 0.0
H1806 H 0.06962 0.06883 0.6871 0.0
H1807 H 0.0957 0.09924 0.74499 0.0
H1808 H 0.07403 0.13219 0.737 0.0
H1809 H 0.07571 0.11156 0.65445 0.0
H1810 H 0.05156 0.10751 0.63841 0.0
H1811 H 0.06421 0.08483 0.65156 0.0
H1812 H 0.02818 0.07569 0.67119 0.0
H1813 H 0.01524 0.09834 0.65792 0.0
H1814 H 0.01471 0.09621 0.6871 0.0
H1815 H 0.05585 0.16348 0.71899 0.0
H1816 H 0.04359 0.19084 0.69259 0.0
H1817 H 0.03008 0.14018 0.64574 0.0
C1818 C 0.07035 0.08219 0.69849 0.0
C1819 C 0.08439 0.08157 0.71665 0.0
C1820 C 0.08494 0.09936 0.73109 0.0
C1821 C 0.07264 0.11807 0.72667 0.0
C1822 C 0.05975 0.11848 0.70798 0.0
C1823 C 0.0584 0.10086 0.69423 0.0
C1824 C 0.04611 0.10624 0.67362 0.0
C1825 C 0.06025 0.10232 0.65334 0.0
C1826 C 0.02479 0.09336 0.67239 0.0
C1827 C 0.04185 0.13011 0.6772 0.0
C1828 C 0.04933 0.1367 0.69738 0.0
C1829 C 0.04951 0.15842 0.70341 0.0
C1830 C 0.04263 0.17384 0.68824 0.0
C1831 C 0.03583 0.16752 0.66718 0.0
C1832 C 0.03468 0.14534 0.66189 0.0
H1833 H 0.58502 0.89423 0.77208 0.0
H1834 H 0.56327 0.94426 0.81641 0.0
H1835 H 0.53368 0.92075 0.82894 0.0
H1836 H 0.52635 0.87051 0.76359 0.0
H1837 H 0.53656 0.84327 0.76231 0.0
H1838 H 0.55231 0.86525 0.75114 0.0
H1839 H 0.58534 0.85558 0.77483 0.0
H1840 H 0.57082 0.83287 0.78559 0.0
H1841 H 0.582 0.85285 0.8038 0.0
H1842 H 0.51324 0.88997 0.84328 0.0
H1843 H 0.5052 0.85412 0.85912 0.0
H1844 H 0.53982 0.82316 0.8064 0.0
C1845 C 0.57335 0.90045 0.78365 0.0
C1846 C 0.57638 0.9209 0.79332 0.0
C1847 C 0.56124 0.92851 0.80888 0.0
C1848 C 0.5442 0.91537 0.81594 0.0
C1849 C 0.54226 0.89472 0.80708 0.0
C1850 C 0.55621 0.88737 0.791 0.0
C1851 C 0.55261 0.86348 0.78665 0.0
C1852 C 0.54132 0.86044 0.76461 0.0
C1853 C 0.57396 0.85045 0.78783 0.0
C1854 C 0.53722 0.85798 0.80505 0.0
C1855 C 0.53029 0.87646 0.81571 0.0
C1856 C 0.51795 0.87541 0.8347 0.0
C1857 C 0.51343 0.85499 0.8436 0.0
C1858 C 0.52184 0.83608 0.83383 0.0
C1859 C 0.53301 0.83753 0.81388 0.0
H1860 H 0.4211 0.57727 0.3202 0.0
H1861 H 0.40511 0.60471 0.2573 0.0
H1862 H 0.43061 0.635 0.26447 0.0
H1863 H 0.42023 0.62477 0.34817 0.0
H1864 H 0.44198 0.61787 0.3665 0.0
H1865 H 0.42588 0.59679 0.35451 0.0
H1866 H 0.4608 0.57888 0.33922 0.0
H1867 H 0.47704 0.60012 0.35107 0.0
H1868 H 0.47892 0.59452 0.32241 0.0
H1869 H 0.45335 0.66453 0.28086 0.0
H1870 H 0.46876 0.69192 0.3056 0.0
H1871 H 0.46973 0.64483 0.35776 0.0
C1872 C 0.42319 0.58937 0.30764 0.0
C1873 C 0.41108 0.58862 0.28814 0.0
C1874 C 0.41424 0.60494 0.27232 0.0
C1875 C 0.4288 0.62208 0.27621 0.0
C1876 C 0.44017 0.62244 0.29586 0.0
C1877 C 0.43748 0.60645 0.31128 0.0
C1878 C 0.4493 0.61172 0.33216 0.0
C1879 C 0.4334 0.61287 0.35145 0.0
C1880 C 0.46761 0.59533 0.33646 0.0
C1881 C 0.45833 0.63379 0.32655 0.0
C1882 C 0.45333 0.63947 0.30536 0.0
C1883 C 0.45777 0.66006 0.29727 0.0
C1884 C 0.46653 0.67549 0.31144 0.0
C1885 C 0.47065 0.6703 0.33347 0.0
C1886 C 0.4674 0.64895 0.34083 0.0
H1887 H 0.64429 0.64077 0.53121 0.0
H1888 H 0.68971 0.69398 0.52654 0.0
H1889 H 0.66213 0.719 0.54152 0.0
H1890 H 0.59161 0.67231 0.52377 0.0
H1891 H 0.5787 0.65618 0.54446 0.0
H1892 H 0.59936 0.64435 0.52744 0.0
H1893 H 0.62072 0.63301 0.56188 0.0
H1894 H 0.60055 0.64526 0.57897 0.0
H1895 H 0.62853 0.65346 0.58128 0.0
H1896 H 0.63237 0.73629 0.56419 0.0
H1897 H 0.6028 0.74405 0.59058 0.0
H1898 H 0.57842 0.67867 0.58133 0.0
C1899 C 0.64782 0.65796 0.532 0.0
C1900 C 0.66868 0.66571 0.52703 0.0
C1901 C 0.67346 0.68801 0.52964 0.0
C1902 C 0.65795 0.70228 0.53826 0.0
C1903 C 0.63785 0.69389 0.54438 0.0
C1904 C 0.63269 0.67223 0.54109 0.0
C1905 C 0.61182 0.66624 0.55245 0.0
C1906 C 0.59434 0.65938 0.53604 0.0
C1907 C 0.61565 0.64846 0.56965 0.0
C1908 C 0.6063 0.68766 0.56295 0.0
C1909 C 0.62125 0.70356 0.55806 0.0
C1910 C 0.62028 0.72407 0.56775 0.0
C1911 C 0.60356 0.72833 0.58279 0.0
C1912 C 0.58832 0.71201 0.58808 0.0
C1913 C 0.5897 0.69163 0.57768 0.0
H1914 H 0.96332 0.85472 0.63519 0.0
H1915 H 0.97897 0.81328 0.68957 0.0
H1916 H 0.96201 0.83961 0.71473 0.0
H1917 H 0.96662 0.90895 0.66346 0.0
H1918 H 0.94318 0.9185 0.64875 0.0
H1919 H 0.96136 0.89924 0.63635 0.0
H1920 H 0.92866 0.87368 0.62945 0.0
H1921 H 0.91052 0.89242 0.64251 0.0
H1922 H 0.91235 0.86487 0.65208 0.0
H1923 H 0.93702 0.8674 0.73291 0.0
H1924 H 0.91023 0.89611 0.74246 0.0
H1925 H 0.9102 0.91751 0.67539 0.0
C1926 C 0.96452 0.85201 0.65253 0.0
C1927 C 0.97329 0.83257 0.66063 0.0
C1928 C 0.97313 0.82862 0.68326 0.0
C1929 C 0.96325 0.84333 0.69761 0.0
C1930 C 0.95343 0.86179 0.68896 0.0
C1931 C 0.95432 0.8663 0.66693 0.0
C1932 C 0.94006 0.88539 0.66117 0.0
C1933 C 0.95362 0.90413 0.6519 0.0
C1934 C 0.92184 0.87867 0.64538 0.0
C1935 C 0.931 0.89089 0.68327 0.0
C1936 C 0.93872 0.87717 0.69919 0.0
C1937 C 0.93121 0.8785 0.72061 0.0
C1938 C 0.91586 0.89466 0.72587 0.0
C1939 C 0.90833 0.90917 0.70975 0.0
C1940 C 0.91594 0.90695 0.68823 0.0
H1941 H 0.0622 0.68085 0.19076 0.0
H1942 H 0.00277 0.65356 0.16464 0.0
H1943 H 0.00798 0.62118 0.18814 0.0
H1944 H 0.0907 0.63448 0.18529 0.0
H1945 H 0.10795 0.63904 0.20848 0.0
H1946 H 0.0962 0.66167 0.1945 0.0
H1947 H 0.07947 0.67484 0.23053 0.0
H1948 H 0.09051 0.65188 0.24484 0.0
H1949 H 0.06175 0.65732 0.24584 0.0
H1950 H 0.02372 0.58941 0.20851 0.0
H1951 H 0.04911 0.56077 0.22025 0.0
H1952 H 0.09884 0.60892 0.2317 0.0
C1953 C 0.04981 0.6684 0.19029 0.0
C1954 C 0.03201 0.66974 0.17583 0.0
C1955 C 0.0164 0.65297 0.17573 0.0
C1956 C 0.01926 0.63459 0.18907 0.0
C1957 C 0.0377 0.63344 0.20238 0.0
C1958 C 0.05271 0.65002 0.20295 0.0
C1959 C 0.07314 0.64367 0.21499 0.0
C1960 C 0.09314 0.64477 0.19992 0.0
C1961 C 0.07638 0.65776 0.23528 0.0
C1962 C 0.06765 0.62059 0.22094 0.0
C1963 C 0.04697 0.61506 0.21389 0.0
C1964 C 0.03962 0.59373 0.21461 0.0
C1965 C 0.05412 0.57758 0.22142 0.0
C1966 C 0.07573 0.58284 0.2273 0.0
C1967 C 0.08214 0.60467 0.2282 0.0
H1968 H 0.20233 0.5717 0.24219 0.0
H1969 H 0.18907 0.50264 0.24458 0.0
H1970 H 0.22857 0.49518 0.24343 0.0
H1971 H 0.24583 0.56864 0.20455 0.0
H1972 H 0.26138 0.59003 0.21701 0.0
H1973 H 0.23221 0.59 0.21916 0.0
H1974 H 0.23475 0.59119 0.26121 0.0
H1975 H 0.26388 0.59191 0.25912 0.0
H1976 H 0.25092 0.5712 0.27518 0.0
H1977 H 0.26996 0.49554 0.24096 0.0
H1978 H 0.30922 0.50376 0.24212 0.0
H1979 H 0.29459 0.57256 0.24002 0.0
C1980 C 0.20766 0.55498 0.2429 0.0
C1981 C 0.19254 0.53775 0.24365 0.0
C1982 C 0.20031 0.51613 0.24421 0.0
C1983 C 0.22272 0.51173 0.24335 0.0
C1984 C 0.23712 0.52913 0.24179 0.0
C1985 C 0.22986 0.55032 0.24184 0.0
C1986 C 0.24851 0.56618 0.23999 0.0
C1987 C 0.24688 0.57949 0.21893 0.0
C1988 C 0.24958 0.58098 0.26007 0.0
C1989 C 0.26751 0.55064 0.23921 0.0
C1990 C 0.26067 0.52932 0.24003 0.0
C1991 C 0.27546 0.51219 0.24024 0.0
C1992 C 0.29778 0.51701 0.24066 0.0
C1993 C 0.30508 0.53881 0.24102 0.0
C1994 C 0.28964 0.55572 0.23949 0.0
H1995 H 0.68981 0.45126 0.51969 0.0
H1996 H 0.7517 0.43751 0.48911 0.0
H1997 H 0.75959 0.4767 0.48752 0.0
H1998 H 0.67522 0.49268 0.48848 0.0
H1999 H 0.66301 0.5096 0.50899 0.0
H2000 H 0.66417 0.48074 0.51281 0.0
H2001 H 0.68465 0.48544 0.54928 0.0
H2002 H 0.68274 0.51443 0.54608 0.0
H2003 H 0.70883 0.50187 0.5502 0.0
H2004 H 0.75799 0.51804 0.48413 0.0
H2005 H 0.7486 0.55723 0.48328 0.0
H2006 H 0.68695 0.54276 0.51405 0.0
C2007 C 0.70547 0.45641 0.51359 0.0
C2008 C 0.72015 0.44126 0.50463 0.0
C2009 C 0.74031 0.44873 0.49641 0.0
C2010 C 0.74486 0.47104 0.49523 0.0
C2011 C 0.72926 0.48564 0.5027 0.0
C2012 C 0.71024 0.47856 0.51232 0.0
C2013 C 0.69532 0.49736 0.51752 0.0
C2014 C 0.67313 0.49493 0.50627 0.0
C2015 C 0.69274 0.49992 0.54223 0.0
C2016 C 0.70822 0.51592 0.50803 0.0
C2017 C 0.72799 0.50905 0.50002 0.0
C2018 C 0.74259 0.52358 0.49052 0.0
C2019 C 0.73705 0.54574 0.48986 0.0
C2020 C 0.71686 0.553 0.49811 0.0
C2021 C 0.70228 0.53773 0.50704 0.0
H2022 H 0.78655 0.93037 0.72969 0.0
H2023 H 0.80442 0.98557 0.76947 0.0
H2024 H 0.7656 0.99611 0.77191 0.0
H2025 H 0.74512 0.95883 0.69953 0.0
H2026 H 0.72778 0.93541 0.69725 0.0
H2027 H 0.75679 0.93204 0.69919 0.0
H2028 H 0.75232 0.90695 0.73252 0.0
H2029 H 0.72333 0.90977 0.73042 0.0
H2030 H 0.73685 0.91631 0.75555 0.0
H2031 H 0.72441 0.00051 0.7695 0.0
H2032 H 0.68473 0.99589 0.76656 0.0
H2033 H 0.69435 0.93801 0.72778 0.0
C2034 C 0.78233 0.94444 0.73933 0.0
C2035 C 0.79853 0.95693 0.74975 0.0
C2036 C 0.79228 0.9756 0.76159 0.0
C2037 C 0.77029 0.98181 0.76287 0.0
C2038 C 0.75482 0.96941 0.75187 0.0
C2039 C 0.76061 0.95104 0.74044 0.0
C2040 C 0.74105 0.94056 0.72984 0.0
C2041 C 0.74278 0.94179 0.70497 0.0
C2042 C 0.73822 0.91701 0.73757 0.0
C2043 C 0.72308 0.95513 0.7381 0.0
C2044 C 0.73138 0.97206 0.75026 0.0
C2045 C 0.7178 0.98738 0.75989 0.0
C2046 C 0.69522 0.98476 0.75789 0.0
C2047 C 0.68636 0.96669 0.74672 0.0
C2048 C 0.70058 0.95213 0.73615 0.0
H2049 H 0.28433 0.03881 0.97682 0.0
H2050 H 0.30588 0.05444 0.04185 0.0
H2051 H 0.30665 0.01515 0.05092 0.0
H2052 H 0.24981 0.99217 0.99183 0.0
H2053 H 0.25691 0.97721 0.96772 0.0
H2054 H 0.25653 0.00642 0.96718 0.0
H2055 H 0.29621 0.00664 0.95355 0.0
H2056 H 0.2969 0.97747 0.95423 0.0
H2057 H 0.31687 0.99287 0.96905 0.0
H2058 H 0.30781 0.97438 0.0517 0.0
H2059 H 0.30778 0.93493 0.04516 0.0
H2060 H 0.28466 0.9453 0.97954 0.0
C2061 C 0.28878 0.03387 0.99309 0.0
C2062 C 0.29481 0.04944 0.0088 0.0
C2063 C 0.30094 0.04265 0.0298 0.0
C2064 C 0.30146 0.02042 0.03499 0.0
C2065 C 0.2957 0.00538 0.01898 0.0
C2066 C 0.28925 0.01183 0.99852 0.0
C2067 C 0.28456 0.99245 0.98403 0.0
C2068 C 0.26052 0.99204 0.9773 0.0
C2069 C 0.29953 0.99236 0.96404 0.0
C2070 C 0.28988 0.97393 0.99937 0.0
C2071 C 0.29619 0.98184 0.01946 0.0
C2072 C 0.30265 0.96806 0.03614 0.0
C2073 C 0.30261 0.94569 0.03227 0.0
C2074 C 0.29607 0.93716 0.01196 0.0
C2075 C 0.28955 0.95144 0.99526 0.0
H2076 H 0.20685 0.43126 0.75227 0.0
H2077 H 0.1965 0.5008 0.75514 0.0
H2078 H 0.23626 0.50651 0.75621 0.0
H2079 H 0.2511 0.42887 0.78858 0.0
H2080 H 0.2657 0.40828 0.77379 0.0
H2081 H 0.23654 0.40958 0.77212 0.0
H2082 H 0.23844 0.41255 0.73014 0.0
H2083 H 0.26756 0.41051 0.73169 0.0
H2084 H 0.25521 0.4332 0.71798 0.0
H2085 H 0.27752 0.5043 0.75872 0.0
H2086 H 0.31644 0.49478 0.75663 0.0
H2087 H 0.29932 0.42665 0.75253 0.0
C2088 C 0.2129 0.44774 0.75271 0.0
C2089 C 0.19849 0.46559 0.75353 0.0
C2090 C 0.20717 0.48686 0.75426 0.0
C2091 C 0.22974 0.49025 0.75512 0.0
C2092 C 0.24344 0.47222 0.75515 0.0
C2093 C 0.23533 0.4514 0.75353 0.0
C2094 C 0.25342 0.43476 0.75353 0.0
C2095 C 0.25157 0.41948 0.77318 0.0
C2096 C 0.25367 0.42201 0.73206 0.0
C2097 C 0.27305 0.44941 0.7555 0.0
C2098 C 0.26699 0.47096 0.75659 0.0
C2099 C 0.28241 0.48747 0.75786 0.0
C2100 C 0.30453 0.48187 0.7569 0.0
C2101 C 0.31107 0.45994 0.75456 0.0
C2102 C 0.295 0.44354 0.75463 0.0
H2103 H 0.77602 0.46706 0.99351 0.0
H2104 H 0.82032 0.46402 0.04833 0.0
H2105 H 0.81976 0.50372 0.0511 0.0
H2106 H 0.80038 0.51417 0.96943 0.0
H2107 H 0.77502 0.52529 0.96001 0.0
H2108 H 0.77802 0.49644 0.96306 0.0
H2109 H 0.74434 0.49586 0.98822 0.0
H2110 H 0.74151 0.52482 0.98564 0.0
H2111 H 0.74388 0.51268 0.01215 0.0
H2112 H 0.81695 0.54345 0.04655 0.0
H2113 H 0.81343 0.58117 0.03315 0.0
H2114 H 0.76982 0.55918 0.98264 0.0
C2115 C 0.78558 0.47478 0.00608 0.0
C2116 C 0.79815 0.46243 0.02075 0.0
C2117 C 0.81058 0.47312 0.03687 0.0
C2118 C 0.81026 0.49569 0.03871 0.0
C2119 C 0.79752 0.50741 0.02424 0.0
C2120 C 0.78558 0.49742 0.00806 0.0
C2121 C 0.77436 0.51403 0.99381 0.0
C2122 C 0.78243 0.51238 0.9702 0.0
C2123 C 0.74955 0.5117 0.99505 0.0
C2124 C 0.78198 0.53483 0.00453 0.0
C2125 C 0.79529 0.53061 0.02209 0.0
C2126 C 0.80614 0.54708 0.03319 0.0
C2127 C 0.80396 0.56842 0.02565 0.0
C2128 C 0.79067 0.57297 0.00757 0.0
C2129 C 0.77917 0.55609 0.99722 0.0
H2130 H 0.79446 0.0639 0.25341 0.0
H2131 H 0.80991 0.99641 0.2411 0.0
H2132 H 0.77068 0.98731 0.24329 0.0
H2133 H 0.754 0.0527 0.29335 0.0
H2134 H 0.73717 0.07541 0.28586 0.0
H2135 H 0.76613 0.07667 0.28187 0.0
H2136 H 0.76061 0.0851 0.24096 0.0
H2137 H 0.73169 0.08447 0.24499 0.0
H2138 H 0.74399 0.06731 0.22474 0.0
H2139 H 0.72915 0.98606 0.24739 0.0
H2140 H 0.68969 0.99318 0.24961 0.0
H2141 H 0.7028 0.06121 0.2617 0.0
C2142 C 0.78963 0.04726 0.25054 0.0
C2143 C 0.80524 0.03093 0.24652 0.0
C2144 C 0.7982 0.00924 0.24377 0.0
C2145 C 0.77599 0.00392 0.24523 0.0
C2146 C 0.76114 0.0204 0.24996 0.0
C2147 C 0.76775 0.04164 0.25251 0.0
C2148 C 0.74893 0.05633 0.25826 0.0
C2149 C 0.75173 0.06583 0.28119 0.0
C2150 C 0.74614 0.07435 0.24121 0.0
C2151 C 0.7304 0.04027 0.25762 0.0
C2152 C 0.73772 0.01954 0.25315 0.0
C2153 C 0.72332 0.00221 0.25104 0.0
C2154 C 0.7009 0.00638 0.25256 0.0
C2155 C 0.69308 0.02774 0.25599 0.0
C2156 C 0.70818 0.04466 0.25932 0.0
H2157 H 0.22324 0.05718 0.52151 0.0
H2158 H 0.19591 0.07759 0.46009 0.0
H2159 H 0.19498 0.03924 0.44784 0.0
H2160 H 0.25553 0.01044 0.50295 0.0
H2161 H 0.24816 0.99412 0.52608 0.0
H2162 H 0.24967 0.02318 0.52864 0.0
H2163 H 0.21023 0.02354 0.54299 0.0
H2164 H 0.20822 0.99471 0.53996 0.0
H2165 H 0.18881 0.01217 0.52674 0.0
H2166 H 0.19216 0.99897 0.4446 0.0
H2167 H 0.18985 0.95937 0.44919 0.0
H2168 H 0.21939 0.96459 0.51286 0.0
C2169 C 0.21787 0.05354 0.50518 0.0
C2170 C 0.21032 0.07018 0.49135 0.0
C2171 C 0.20231 0.06499 0.47054 0.0
C2172 C 0.20164 0.04331 0.46358 0.0
C2173 C 0.20865 0.02714 0.47786 0.0
C2174 C 0.21666 0.03199 0.49824 0.0
C2175 C 0.22095 0.01154 0.5113 0.0
C2176 C 0.24502 0.00971 0.5176 0.0
C2177 C 0.20617 0.01045 0.53142 0.0
C2178 C 0.21449 0.9944 0.49498 0.0
C2179 C 0.20714 0.00379 0.47593 0.0
C2180 C 0.1982 0.99147 0.45929 0.0
C2181 C 0.19677 0.96901 0.46215 0.0
C2182 C 0.20448 0.959 0.48137 0.0
C2183 C 0.21365 0.97184 0.49792 0.0
H2184 H 0.257 0.20337 0.52324 0.0
H2185 H 0.24599 0.19565 0.59253 0.0
H2186 H 0.24057 0.23476 0.59613 0.0
H2187 H 0.28783 0.2545 0.52944 0.0
H2188 H 0.27731 0.26589 0.50462 0.0
H2189 H 0.28027 0.23696 0.50729 0.0
H2190 H 0.23962 0.2324 0.49754 0.0
H2191 H 0.2364 0.26137 0.49553 0.0
H2192 H 0.21932 0.24601 0.51364 0.0
H2193 H 0.23321 0.27354 0.59251 0.0
H2194 H 0.23432 0.3124 0.58385 0.0
H2195 H 0.25309 0.29722 0.51763 0.0
C2196 C 0.25398 0.21 0.53923 0.0
C2197 C 0.25179 0.19627 0.55756 0.0
C2198 C 0.24779 0.20565 0.57819 0.0
C2199 C 0.24438 0.22791 0.58042 0.0
C2200 C 0.24555 0.2408 0.56199 0.0
C2201 C 0.25108 0.23248 0.54192 0.0
C2202 C 0.25269 0.25054 0.52518 0.0
C2203 C 0.2759 0.25206 0.5161 0.0
C2204 C 0.23601 0.24738 0.50689 0.0
C2205 C 0.24708 0.27016 0.53908 0.0
C2206 C 0.2425 0.2639 0.56011 0.0
C2207 C 0.23699 0.27875 0.57617 0.0
C2208 C 0.23752 0.30079 0.57104 0.0
C2209 C 0.24384 0.30786 0.55012 0.0
C2210 C 0.24788 0.2923 0.53367 0.0
H2211 H 0.03942 0.50588 0.78278 0.0
H2212 H 0.04847 0.48123 0.8482 0.0
H2213 H 0.00889 0.47787 0.85243 0.0
H2214 H 0.9903 0.53723 0.79444 0.0
H2215 H 0.97801 0.53106 0.76862 0.0
H2216 H 0.00712 0.5321 0.77104 0.0
H2217 H 0.00943 0.49313 0.75544 0.0
H2218 H 0.98026 0.49179 0.75357 0.0
H2219 H 0.9949 0.47149 0.7687 0.0
H2220 H 0.96874 0.47615 0.84964 0.0
H2221 H 0.9298 0.4811 0.84175 0.0
H2222 H 0.94591 0.50648 0.77808 0.0
C2223 C 0.03304 0.50027 0.79817 0.0
C2224 C 0.04712 0.49395 0.81522 0.0
C2225 C 0.03808 0.48629 0.83494 0.0
C2226 C 0.0156 0.48413 0.83746 0.0
C2227 C 0.00224 0.4897 0.82012 0.0
C2228 C 0.01051 0.49797 0.80098 0.0
C2229 C 0.99235 0.50298 0.78505 0.0
C2230 C 0.99192 0.52729 0.77947 0.0
C2231 C 0.99436 0.48901 0.76447 0.0
C2232 C 0.97265 0.49643 0.79836 0.0
C2233 C 0.97883 0.48857 0.81844 0.0
C2234 C 0.96367 0.48223 0.83396 0.0
C2235 C 0.94158 0.48495 0.82928 0.0
C2236 C 0.93481 0.49391 0.80924 0.0
C2237 C 0.95057 0.49907 0.79332 0.0
H2238 H 0.74754 0.28277 0.02598 0.0
H2239 H 0.79346 0.28589 0.07946 0.0
H2240 H 0.80055 0.24689 0.07576 0.0
H2241 H 0.7251 0.23079 0.04082 0.0
H2242 H 0.72156 0.22212 0.01312 0.0
H2243 H 0.72066 0.25052 0.01969 0.0
H2244 H 0.75098 0.25754 0.99137 0.0
H2245 H 0.75244 0.22901 0.98523 0.0
H2246 H 0.77648 0.24337 0.9937 0.0
H2247 H 0.80177 0.20777 0.0678 0.0
H2248 H 0.7932 0.16968 0.05892 0.0
H2249 H 0.74784 0.19127 0.00972 0.0
C2250 C 0.75895 0.27519 0.03701 0.0
C2251 C 0.76999 0.28742 0.05297 0.0
C2252 C 0.78478 0.2769 0.06711 0.0
C2253 C 0.7891 0.25476 0.06502 0.0
C2254 C 0.7785 0.2433 0.04874 0.0
C2255 C 0.76344 0.25298 0.03521 0.0
C2256 C 0.75341 0.23653 0.01993 0.0
C2257 C 0.72873 0.23489 0.02362 0.0
C2258 C 0.75865 0.24194 0.99615 0.0
C2259 C 0.76508 0.2161 0.02721 0.0
C2260 C 0.77964 0.22048 0.0437 0.0
C2261 C 0.79078 0.2041 0.0546 0.0
C2262 C 0.78603 0.18254 0.04932 0.0
C2263 C 0.77051 0.17768 0.03316 0.0
C2264 C 0.76058 0.19464 0.02138 0.0
H2265 H 0.93945 0.98541 0.28631 0.0
H2266 H 0.9379 0.04247 0.32754 0.0
H2267 H 0.97751 0.0459 0.32458 0.0
H2268 H 0.98805 0.96315 0.3101 0.0
H2269 H 0.99835 0.95241 0.28492 0.0
H2270 H 0.96954 0.95537 0.2888 0.0
H2271 H 0.96753 0.97855 0.25374 0.0
H2272 H 0.99646 0.97601 0.2501 0.0
H2273 H 0.98414 0.00249 0.25137 0.0
H2274 H 0.01733 0.04374 0.31717 0.0
H2275 H 0.05537 0.03177 0.31127 0.0
H2276 H 0.032 0.97468 0.2777 0.0
C2277 C 0.94753 0.99846 0.29485 0.0
C2278 C 0.93554 0.01352 0.30735 0.0
C2279 C 0.94671 0.03046 0.31821 0.0
C2280 C 0.96922 0.03278 0.31637 0.0
C2281 C 0.98058 0.01785 0.30386 0.0
C2282 C 0.97025 0.0007 0.29369 0.0
C2283 C 0.98667 0.98593 0.28279 0.0
C2284 C 0.98559 0.96285 0.29223 0.0
C2285 C 0.9835 0.98574 0.25803 0.0
C2286 C 0.0077 0.9972 0.28894 0.0
C2287 C 0.00377 0.01598 0.30049 0.0
C2288 C 0.02065 0.02905 0.30815 0.0
C2289 C 0.04215 0.02227 0.30466 0.0
C2290 C 0.04637 0.00247 0.29401 0.0
C2291 C 0.02901 0.99002 0.28572 0.0
H2292 H 0.24151 0.78549 0.43557 0.0
H2293 H 0.26109 0.80215 0.50112 0.0
H2294 H 0.26189 0.7631 0.51067 0.0
H2295 H 0.20578 0.74362 0.44924 0.0
H2296 H 0.21268 0.72658 0.42648 0.0
H2297 H 0.2154 0.75556 0.42433 0.0
H2298 H 0.25599 0.75165 0.4138 0.0
H2299 H 0.25322 0.72263 0.41518 0.0
H2300 H 0.27385 0.73607 0.43096 0.0
H2301 H 0.25857 0.72174 0.51315 0.0
H2302 H 0.25622 0.68214 0.50708 0.0
H2303 H 0.23739 0.69377 0.44019 0.0
C2304 C 0.24641 0.78096 0.45184 0.0
C2305 C 0.25134 0.79686 0.46758 0.0
C2306 C 0.25753 0.79023 0.48871 0.0
C2307 C 0.25778 0.7681 0.49434 0.0
C2308 C 0.25186 0.75291 0.47861 0.0
C2309 C 0.24668 0.75911 0.45769 0.0
C2310 C 0.24079 0.73984 0.44373 0.0
C2311 C 0.21727 0.74151 0.43547 0.0
C2312 C 0.25692 0.7374 0.42481 0.0
C2313 C 0.24327 0.72171 0.46006 0.0
C2314 C 0.24962 0.72949 0.48012 0.0
C2315 C 0.25359 0.71552 0.4975 0.0
C2316 C 0.25201 0.69304 0.49395 0.0
C2317 C 0.24646 0.68477 0.47321 0.0
C2318 C 0.24136 0.69945 0.45634 0.0
H2319 H 0.44729 0.50214 0.72307 0.0
H2320 H 0.44042 0.48181 0.65589 0.0
H2321 H 0.47988 0.4777 0.65298 0.0
H2322 H 0.49702 0.53386 0.71291 0.0
H2323 H 0.50878 0.52731 0.73889 0.0
H2324 H 0.47971 0.52854 0.7359 0.0
H2325 H 0.47685 0.48941 0.75091 0.0
H2326 H 0.50595 0.4879 0.75344 0.0
H2327 H 0.49159 0.46784 0.73773 0.0
H2328 H 0.51958 0.47498 0.65682 0.0
H2329 H 0.5584 0.47924 0.66577 0.0
H2330 H 0.54112 0.50196 0.73009 0.0
C2331 C 0.45416 0.49719 0.70767 0.0
C2332 C 0.44062 0.49238 0.68969 0.0
C2333 C 0.4503 0.48586 0.66985 0.0
C2334 C 0.47277 0.48321 0.66806 0.0
C2335 C 0.48557 0.4875 0.68613 0.0
C2336 C 0.4768 0.49489 0.70541 0.0
C2337 C 0.49465 0.49949 0.72184 0.0
C2338 C 0.49506 0.52373 0.72773 0.0
C2339 C 0.4921 0.48531 0.74218 0.0
C2340 C 0.51466 0.49308 0.70884 0.0
C2341 C 0.5089 0.4861 0.68833 0.0
C2342 C 0.52434 0.48031 0.67286 0.0
C2343 C 0.54634 0.48262 0.67812 0.0
C2344 C 0.55272 0.49044 0.69872 0.0
C2345 C 0.53667 0.49521 0.71448 0.0
H2346 H 0.74059 0.70311 0.98211 0.0
H2347 H 0.76243 0.69619 0.91539 0.0
H2348 H 0.77122 0.73478 0.91403 0.0
H2349 H 0.71375 0.75431 0.97244 0.0
H2350 H 0.72026 0.76548 0.99868 0.0
H2351 H 0.71764 0.73662 0.99541 0.0
H2352 H 0.75628 0.73167 0.01132 0.0
H2353 H 0.75917 0.76063 0.01408 0.0
H2354 H 0.77889 0.74536 0.99878 0.0
H2355 H 0.77752 0.77329 0.91872 0.0
H2356 H 0.77289 0.81215 0.92631 0.0
H2357 H 0.74478 0.79673 0.98898 0.0
C2358 C 0.74702 0.70986 0.96722 0.0
C2359 C 0.75071 0.69657 0.94884 0.0
C2360 C 0.75912 0.70598 0.92961 0.0
C2361 C 0.76457 0.72789 0.92874 0.0
C2362 C 0.76116 0.74046 0.94711 0.0
C2363 C 0.75195 0.73211 0.96578 0.0
C2364 C 0.74777 0.7501 0.98214 0.0
C2365 C 0.72341 0.75173 0.98747 0.0
C2366 C 0.76134 0.74673 0.00281 0.0
C2367 C 0.75565 0.76974 0.96942 0.0
C2368 C 0.76396 0.76352 0.94955 0.0
C2369 C 0.77118 0.77846 0.93426 0.0
C2370 C 0.76862 0.80049 0.93876 0.0
C2371 C 0.75875 0.80737 0.95828 0.0
C2372 C 0.75299 0.79187 0.97422 0.0
H2373 H 0.46311 0.99756 0.1883 0.0
H2374 H 0.44961 0.01958 0.25383 0.0
H2375 H 0.4887 0.01577 0.26287 0.0
H2376 H 0.5008 0.95672 0.2039 0.0
H2377 H 0.5178 0.96029 0.18036 0.0
H2378 H 0.48918 0.96609 0.17875 0.0
H2379 H 0.4972 0.00522 0.16552 0.0
H2380 H 0.52578 0.99931 0.16638 0.0
H2381 H 0.51516 0.02221 0.18115 0.0
H2382 H 0.52962 0.00862 0.26447 0.0
H2383 H 0.56876 0.00348 0.25727 0.0
H2384 H 0.55391 0.98401 0.19125 0.0
C2385 C 0.46832 0.00212 0.20445 0.0
C2386 C 0.4533 0.0092 0.22029 0.0
C2387 C 0.46087 0.01444 0.24135 0.0
C2388 C 0.48298 0.01205 0.24669 0.0
C2389 C 0.49714 0.00408 0.23087 0.0
C2390 C 0.49006 0.99938 0.21013 0.0
C2391 C 0.50819 0.99066 0.19609 0.0
C2392 C 0.50372 0.96705 0.18939 0.0
C2393 C 0.5118 0.00523 0.17612 0.0
C2394 C 0.52693 0.99196 0.21186 0.0
C2395 C 0.52024 0.99937 0.23197 0.0
C2396 C 0.53498 0.00269 0.24883 0.0
C2397 C 0.5572 0.99947 0.24465 0.0
C2398 C 0.56444 0.99322 0.22372 0.0
C2399 C 0.54893 0.98855 0.20749 0.0
H2400 H 0.55366 0.27548 0.19452 0.0
H2401 H 0.49515 0.23799 0.18395 0.0
H2402 H 0.48857 0.23707 0.22348 0.0
H2403 H 0.57284 0.24874 0.23704 0.0
H2404 H 0.58275 0.2714 0.25264 0.0
H2405 H 0.58047 0.27361 0.22366 0.0
H2406 H 0.55571 0.30741 0.22733 0.0
H2407 H 0.55859 0.30585 0.25641 0.0
H2408 H 0.53194 0.30611 0.24435 0.0
H2409 H 0.49216 0.2348 0.26465 0.0
H2410 H 0.50301 0.23592 0.30344 0.0
H2411 H 0.55935 0.27443 0.28617 0.0
C2412 C 0.5389 0.26802 0.20048 0.0
C2413 C 0.5248 0.25704 0.1862 0.0
C2414 C 0.5059 0.24696 0.19457 0.0
C2415 C 0.50215 0.24615 0.21705 0.0
C2416 C 0.51718 0.25596 0.23084 0.0
C2417 C 0.5348 0.26734 0.2228 0.0
C2418 C 0.54935 0.27522 0.24094 0.0
C2419 C 0.57272 0.26671 0.2384 0.0
C2420 C 0.54886 0.30012 0.24234 0.0
C2421 C 0.53813 0.26511 0.26025 0.0
C2422 C 0.51936 0.25442 0.25428 0.0
C2423 C 0.50667 0.24342 0.26951 0.0
C2424 C 0.51306 0.24392 0.29145 0.0
C2425 C 0.53216 0.255 0.29781 0.0
C2426 C 0.54483 0.26552 0.28187 0.0
H2427 H 0.0261 0.77624 0.30782 0.0
H2428 H 0.06301 0.72007 0.32854 0.0
H2429 H 0.06918 0.71003 0.29024 0.0
H2430 H 0.0019 0.75186 0.25734 0.0
H2431 H 0.00497 0.77669 0.24221 0.0
H2432 H 0.00042 0.77762 0.27109 0.0
H2433 H 0.03521 0.80068 0.2756 0.0
H2434 H 0.04016 0.79945 0.24682 0.0
H2435 H 0.0607 0.79038 0.26559 0.0
H2436 H 0.07644 0.70925 0.25113 0.0
H2437 H 0.08017 0.71404 0.21181 0.0
H2438 H 0.03786 0.77037 0.21441 0.0
C2439 C 0.03462 0.7613 0.30421 0.0
C2440 C 0.04367 0.74856 0.32113 0.0
C2441 C 0.05565 0.72975 0.31584 0.0
C2442 C 0.05933 0.72403 0.29414 0.0
C2443 C 0.05109 0.73742 0.27786 0.0
C2444 C 0.03868 0.75549 0.28249 0.0
C2445 C 0.03332 0.76794 0.26178 0.0
C2446 C 0.00869 0.76855 0.25787 0.0
C2447 C 0.04291 0.79097 0.2625 0.0
C2448 C 0.04481 0.75407 0.24486 0.0
C2449 C 0.0551 0.73673 0.25471 0.0
C2450 C 0.06813 0.72247 0.24311 0.0
C2451 C 0.07036 0.72557 0.22075 0.0
C2452 C 0.05941 0.74266 0.2099 0.0
C2453 C 0.04641 0.75714 0.22219 0.0
H2454 H 0.51445 0.30877 0.46236 0.0
H2455 H 0.48106 0.24916 0.44546 0.0
H2456 H 0.48205 0.23798 0.48417 0.0
H2457 H 0.55064 0.28458 0.50035 0.0
H2458 H 0.55074 0.30771 0.51823 0.0
H2459 H 0.54636 0.3114 0.48955 0.0
H2460 H 0.50988 0.33117 0.49696 0.0
H2461 H 0.51459 0.32828 0.52561 0.0
H2462 H 0.48974 0.31827 0.51382 0.0
H2463 H 0.48772 0.23347 0.52525 0.0
H2464 H 0.49238 0.23859 0.56484 0.0
H2465 H 0.52368 0.30037 0.5531 0.0
C2466 C 0.50692 0.29351 0.46672 0.0
C2467 C 0.4975 0.27991 0.45087 0.0
C2468 C 0.48816 0.25995 0.45737 0.0
C2469 C 0.48891 0.25337 0.47925 0.0
C2470 C 0.49931 0.2668 0.49425 0.0
C2471 C 0.50791 0.28657 0.4882 0.0
C2472 C 0.51837 0.29815 0.50709 0.0
C2473 C 0.54298 0.3006 0.50359 0.0
C2474 C 0.50748 0.32026 0.51111 0.0
C2475 C 0.5136 0.28224 0.52508 0.0
C2476 C 0.503 0.26402 0.51739 0.0
C2477 C 0.49617 0.24759 0.53137 0.0
C2478 C 0.49917 0.25047 0.55383 0.0
C2479 C 0.50863 0.26977 0.56196 0.0
C2480 C 0.51674 0.28531 0.54729 0.0
H2481 H 0.94189 0.72639 0.69282 0.0
H2482 H 0.00275 0.75807 0.67753 0.0
H2483 H 0.01141 0.7604 0.71661 0.0
H2484 H 0.92746 0.75601 0.73606 0.0
H2485 H 0.91693 0.73448 0.75281 0.0
H2486 H 0.91704 0.7316 0.72378 0.0
H2487 H 0.93931 0.69602 0.72656 0.0
H2488 H 0.93853 0.6983 0.75572 0.0
H2489 H 0.9642 0.69576 0.74194 0.0
H2490 H 0.01041 0.76447 0.75788 0.0
H2491 H 0.00278 0.76393 0.79741 0.0
H2492 H 0.94279 0.72921 0.78492 0.0
C2493 C 0.95748 0.73287 0.69768 0.0
C2494 C 0.97176 0.74177 0.68216 0.0
C2495 C 0.99181 0.75065 0.68912 0.0
C2496 C 0.99675 0.7523 0.71133 0.0
C2497 C 0.98171 0.74449 0.72632 0.0
C2498 C 0.96285 0.73423 0.71973 0.0
C2499 C 0.94902 0.72784 0.73899 0.0
C2500 C 0.92628 0.73811 0.73782 0.0
C2501 C 0.94769 0.70301 0.74092 0.0
C2502 C 0.96229 0.73738 0.7573 0.0
C2503 C 0.98123 0.74671 0.74981 0.0
C2504 C 0.99577 0.7569 0.76392 0.0
C2505 C 0.99119 0.75675 0.78632 0.0
C2506 C 0.97215 0.74664 0.7943 0.0
C2507 C 0.95743 0.73722 0.77943 0.0
H2508 H 0.99513 0.68332 0.96552 0.0
H2509 H 0.0113 0.74945 0.94778 0.0
H2510 H 0.01199 0.75954 0.98667 0.0
H2511 H 0.95975 0.69608 0.00914 0.0
H2512 H 0.96836 0.67376 0.02596 0.0
H2513 H 0.96986 0.67155 0.99684 0.0
H2514 H 0.01094 0.66264 0.99911 0.0
H2515 H 0.00944 0.66424 0.02824 0.0
H2516 H 0.02877 0.68066 0.01369 0.0
H2517 H 0.00921 0.76256 0.02785 0.0
H2518 H 0.00877 0.75708 0.06761 0.0
H2519 H 0.99451 0.68888 0.05785 0.0
C2520 C 0.99916 0.69987 0.96977 0.0
C2521 C 0.00324 0.71558 0.95357 0.0
C2522 C 0.00833 0.73708 0.95989 0.0
C2523 C 0.00853 0.74301 0.98194 0.0
C2524 C 0.00367 0.72724 0.99745 0.0
C2525 C 0.99947 0.70603 0.99162 0.0
C2526 C 0.99508 0.69203 0.01132 0.0
C2527 C 0.97189 0.68282 0.01077 0.0
C2528 C 0.01208 0.67382 0.0132 0.0
C2529 C 0.99762 0.70862 0.02925 0.0
C2530 C 0.00228 0.72891 0.02095 0.0
C2531 C 0.0056 0.74672 0.0345 0.0
C2532 C 0.0051 0.7435 0.0571 0.0
C2533 C 0.00151 0.72257 0.06592 0.0
C2534 C 0.99711 0.70512 0.0517 0.0
H2535 H 0.45063 0.7781 0.29927 0.0
H2536 H 0.51138 0.74407 0.30892 0.0
H2537 H 0.51595 0.74094 0.26914 0.0
H2538 H 0.43059 0.74755 0.25955 0.0
H2539 H 0.41863 0.76878 0.24335 0.0
H2540 H 0.42235 0.77271 0.272 0.0
H2541 H 0.44468 0.80747 0.26491 0.0
H2542 H 0.44093 0.80398 0.2361 0.0
H2543 H 0.46789 0.80642 0.24711 0.0
H2544 H 0.51076 0.73702 0.22786 0.0
H2545 H 0.49798 0.73607 0.18956 0.0
H2546 H 0.44 0.77123 0.20844 0.0
C2547 C 0.4654 0.77093 0.29297 0.0
C2548 C 0.48079 0.76162 0.30712 0.0
C2549 C 0.49967 0.75183 0.29835 0.0
C2550 C 0.50226 0.74975 0.27575 0.0
C2551 C 0.48603 0.75792 0.26221 0.0
C2552 C 0.46827 0.76888 0.27056 0.0
C2553 C 0.45235 0.77491 0.2529 0.0
C2554 C 0.42965 0.7654 0.25722 0.0
C2555 C 0.45141 0.79967 0.25011 0.0
C2556 C 0.46306 0.76431 0.23356 0.0
C2557 C 0.48274 0.75504 0.23898 0.0
C2558 C 0.49543 0.74439 0.22346 0.0
C2559 C 0.48799 0.74373 0.20182 0.0
C2560 C 0.4678 0.75313 0.19613 0.0
C2561 C 0.45524 0.76337 0.21234 0.0
H2562 H 0.49183 0.18306 0.04658 0.0
H2563 H 0.50447 0.2511 0.05917 0.0
H2564 H 0.50503 0.25819 0.01967 0.0
H2565 H 0.52651 0.17704 0.00314 0.0
H2566 H 0.50929 0.1593 0.98752 0.0
H2567 H 0.50705 0.15987 0.01664 0.0
H2568 H 0.46603 0.16903 0.01403 0.0
H2569 H 0.46795 0.16771 0.98489 0.0
H2570 H 0.45738 0.19174 0.99775 0.0
H2571 H 0.50785 0.25692 0.97839 0.0
H2572 H 0.50706 0.24841 0.93914 0.0
H2573 H 0.49345 0.18105 0.95434 0.0
C2574 C 0.49405 0.19959 0.04108 0.0
C2575 C 0.49799 0.21653 0.05599 0.0
C2576 C 0.50109 0.23789 0.04809 0.0
C2577 C 0.50169 0.24204 0.02565 0.0
C2578 C 0.49894 0.2247 0.01139 0.0
C2579 C 0.49464 0.204 0.01883 0.0
C2580 C 0.49274 0.18804 0.00027 0.0
C2581 C 0.50993 0.17001 0.00201 0.0
C2582 C 0.46966 0.17858 0.99917 0.0
C2583 C 0.49724 0.20284 0.98122 0.0
C2584 C 0.50073 0.22394 0.98788 0.0
C2585 C 0.50501 0.24046 0.97301 0.0
C2586 C 0.50477 0.23542 0.95075 0.0
C2587 C 0.50037 0.21403 0.94359 0.0
C2588 C 0.49715 0.19752 0.95918 0.0
H2589 H 0.29743 0.02003 0.74944 0.0
H2590 H 0.30753 0.08869 0.76152 0.0
H2591 H 0.26813 0.09411 0.76407 0.0
H2592 H 0.24799 0.02771 0.71611 0.0
H2593 H 0.23526 0.00349 0.72638 0.0
H2594 H 0.26442 0.00507 0.7247 0.0
H2595 H 0.26691 0.99575 0.76562 0.0
H2596 H 0.23774 0.99473 0.76754 0.0
H2597 H 0.25292 0.01253 0.78509 0.0
H2598 H 0.22822 0.09234 0.76731 0.0
H2599 H 0.18907 0.08446 0.76499 0.0
H2600 H 0.20351 0.01718 0.75032 0.0
C2601 C 0.29132 0.03627 0.75212 0.0
C2602 C 0.3057 0.05392 0.75529 0.0
C2603 C 0.29697 0.07488 0.75898 0.0
C2604 C 0.27456 0.07814 0.76065 0.0
C2605 C 0.26091 0.06034 0.75835 0.0
C2606 C 0.2688 0.0399 0.75364 0.0
C2607 C 0.25027 0.02377 0.75143 0.0
C2608 C 0.24943 0.01447 0.72828 0.0
C2609 C 0.25208 0.00562 0.76844 0.0
C2610 C 0.23086 0.03835 0.75594 0.0
C2611 C 0.23751 0.05934 0.76005 0.0
C2612 C 0.22277 0.07598 0.7641 0.0
C2613 C 0.20056 0.07131 0.76292 0.0
C2614 C 0.19324 0.05018 0.75778 0.0
C2615 C 0.20862 0.03335 0.75486 0.0
H2616 H 0.68107 0.04388 0.01341 0.0
H2617 H 0.74286 0.05969 0.98357 0.0
H2618 H 0.75299 0.02075 0.98429 0.0
H2619 H 0.70318 0.00307 0.04946 0.0
H2620 H 0.67929 0.98628 0.04806 0.0
H2621 H 0.67697 0.01525 0.04501 0.0
H2622 H 0.65786 0.01037 0.00778 0.0
H2623 H 0.65954 0.98146 0.01102 0.0
H2624 H 0.6707 0.99411 0.98711 0.0
H2625 H 0.75593 0.97965 0.98841 0.0
H2626 H 0.74952 0.94017 0.99081 0.0
H2627 H 0.68602 0.95217 0.01866 0.0
C2628 C 0.69657 0.03918 0.00658 0.0
C2629 C 0.71101 0.05478 0.99801 0.0
C2630 C 0.73142 0.04796 0.98991 0.0
C2631 C 0.73739 0.02593 0.9905 0.0
C2632 C 0.72295 0.01107 0.99968 0.0
C2633 C 0.70292 0.01747 0.00745 0.0
C2634 C 0.69026 0.99853 0.01654 0.0
C2635 C 0.68725 0.00093 0.04122 0.0
C2636 C 0.66831 0.99596 0.0049 0.0
C2637 C 0.70564 0.98013 0.01136 0.0
C2638 C 0.72474 0.98772 0.00229 0.0
C2639 C 0.74112 0.97359 0.99564 0.0
C2640 C 0.73743 0.95116 0.9973 0.0
C2641 C 0.71734 0.94314 0.00511 0.0
C2642 C 0.70163 0.95786 0.0129 0.0
H2643 H 0.80183 0.47216 0.25181 0.0
H2644 H 0.81426 0.40344 0.26077 0.0
H2645 H 0.77502 0.39616 0.25902 0.0
H2646 H 0.75015 0.47302 0.28381 0.0
H2647 H 0.73805 0.49276 0.26594 0.0
H2648 H 0.767 0.49261 0.27011 0.0
H2649 H 0.77237 0.48974 0.22851 0.0
H2650 H 0.74345 0.48896 0.22425 0.0
H2651 H 0.76035 0.46741 0.21394 0.0
H2652 H 0.73522 0.39559 0.25317 0.0
H2653 H 0.69586 0.40261 0.25056 0.0
H2654 H 0.70842 0.47155 0.24504 0.0
C2655 C 0.79625 0.4557 0.25425 0.0
C2656 C 0.81118 0.43837 0.25654 0.0
C2657 C 0.80318 0.41699 0.25915 0.0
C2658 C 0.78091 0.41265 0.25795 0.0
C2659 C 0.76676 0.42987 0.25433 0.0
C2660 C 0.77395 0.45105 0.25315 0.0
C2661 C 0.75513 0.46648 0.24915 0.0
C2662 C 0.75242 0.48214 0.2684 0.0
C2663 C 0.75801 0.47887 0.22768 0.0
C2664 C 0.73636 0.45056 0.24785 0.0
C2665 C 0.74355 0.42954 0.2508 0.0
C2666 C 0.72936 0.41198 0.25091 0.0
C2667 C 0.70707 0.41608 0.24918 0.0
C2668 C 0.69918 0.43753 0.2472 0.0
C2669 C 0.71407 0.45494 0.24584 0.0
H2670 H 0.28118 0.45833 0.49481 0.0
H2671 H 0.3404 0.45134 0.53252 0.0
H2672 H 0.34141 0.49064 0.53839 0.0
H2673 H 0.29772 0.50832 0.46818 0.0
H2674 H 0.27074 0.51963 0.46822 0.0
H2675 H 0.2744 0.49069 0.46747 0.0
H2676 H 0.25015 0.48719 0.50167 0.0
H2677 H 0.24697 0.51621 0.50286 0.0
H2678 H 0.25739 0.50169 0.52603 0.0
H2679 H 0.33723 0.53048 0.53952 0.0
H2680 H 0.33041 0.56919 0.53155 0.0
H2681 H 0.27367 0.55152 0.49401 0.0
C2682 C 0.29451 0.46513 0.50402 0.0
C2683 C 0.31077 0.45162 0.51308 0.0
C2684 C 0.32786 0.46122 0.52516 0.0
C2685 C 0.32847 0.48358 0.52885 0.0
C2686 C 0.31199 0.49635 0.52022 0.0
C2687 C 0.29555 0.48762 0.50769 0.0
C2688 C 0.28061 0.50535 0.4993 0.0
C2689 C 0.28089 0.50604 0.47432 0.0
C2690 C 0.25741 0.50243 0.50799 0.0
C2691 C 0.29137 0.52531 0.50901 0.0
C2692 C 0.30932 0.51964 0.52121 0.0
C2693 C 0.32304 0.53518 0.5303 0.0
C2694 C 0.31897 0.55711 0.52589 0.0
C2695 C 0.30116 0.56328 0.51285 0.0
C2696 C 0.28681 0.54722 0.50488 0.0
H2697 H 0.20811 0.93943 0.24931 0.0
H2698 H 0.19511 0.0086 0.25012 0.0
H2699 H 0.23465 0.01577 0.25192 0.0
H2700 H 0.25152 0.94034 0.28724 0.0
H2701 H 0.26695 0.91949 0.27373 0.0
H2702 H 0.23778 0.91982 0.27157 0.0
H2703 H 0.24038 0.92064 0.22955 0.0
H2704 H 0.2695 0.91968 0.23161 0.0
H2705 H 0.25661 0.94121 0.21657 0.0
H2706 H 0.27597 0.015 0.25508 0.0
H2707 H 0.31523 0.00657 0.25404 0.0
H2708 H 0.30025 0.93788 0.25185 0.0
C2709 C 0.2135 0.95614 0.2495 0.0
C2710 C 0.19848 0.97348 0.24947 0.0
C2711 C 0.20631 0.99506 0.24993 0.0
C2712 C 0.22873 0.99927 0.25118 0.0
C2713 C 0.24302 0.98172 0.25202 0.0
C2714 C 0.23568 0.9606 0.25088 0.0
C2715 C 0.25421 0.94453 0.25196 0.0
C2716 C 0.2525 0.93021 0.27234 0.0
C2717 C 0.25524 0.93072 0.23119 0.0
C2718 C 0.27326 0.95989 0.25355 0.0
C2719 C 0.26653 0.98128 0.25388 0.0
C2720 C 0.28139 0.99831 0.25485 0.0
C2721 C 0.30367 0.99335 0.25448 0.0
C2722 C 0.31082 0.97156 0.25295 0.0
C2723 C 0.29533 0.95469 0.25319 0.0
H2724 H 0.78948 0.03939 0.47143 0.0
H2725 H 0.75518 0.05341 0.53124 0.0
H2726 H 0.74452 0.01457 0.53395 0.0
H2727 H 0.74952 0.99957 0.45144 0.0
H2728 H 0.77023 0.98333 0.43868 0.0
H2729 H 0.77372 0.01226 0.44102 0.0
H2730 H 0.81037 0.00658 0.46093 0.0
H2731 H 0.80721 0.97777 0.45827 0.0
H2732 H 0.81129 0.98958 0.48474 0.0
H2733 H 0.74 0.97342 0.5308 0.0
H2734 H 0.74505 0.93419 0.52438 0.0
H2735 H 0.7819 0.94825 0.46622 0.0
C2736 C 0.77982 0.03431 0.48522 0.0
C2737 C 0.77346 0.04924 0.50138 0.0
C2738 C 0.76034 0.04211 0.51881 0.0
C2739 C 0.75409 0.02017 0.52034 0.0
C2740 C 0.76057 0.00588 0.50393 0.0
C2741 C 0.77309 0.01279 0.48666 0.0
C2742 C 0.77859 0.9944 0.4714 0.0
C2743 C 0.76735 0.99759 0.44933 0.0
C2744 C 0.80333 0.99194 0.46872 0.0
C2745 C 0.76872 0.97558 0.4836 0.0
C2746 C 0.7577 0.98256 0.50192 0.0
C2747 C 0.74823 0.96788 0.5163 0.0
C2748 C 0.75094 0.94559 0.51237 0.0
C2749 C 0.76347 0.93826 0.49452 0.0
C2750 C 0.77179 0.95346 0.47963 0.0
H2751 H 0.80036 0.52451 0.75114 0.0
H2752 H 0.81158 0.5929 0.73902 0.0
H2753 H 0.77208 0.59913 0.73761 0.0
H2754 H 0.75036 0.51973 0.71657 0.0
H2755 H 0.7378 0.50114 0.73532 0.0
H2756 H 0.76692 0.50166 0.73256 0.0
H2757 H 0.77025 0.50789 0.774 0.0
H2758 H 0.74115 0.50817 0.77682 0.0
H2759 H 0.75696 0.53091 0.78619 0.0
H2760 H 0.73218 0.59908 0.74242 0.0
H2761 H 0.69313 0.59178 0.74589 0.0
H2762 H 0.70668 0.52313 0.75412 0.0
C2763 C 0.79451 0.5406 0.74722 0.0
C2764 C 0.80909 0.55821 0.74494 0.0
C2765 C 0.80074 0.57916 0.74059 0.0
C2766 C 0.77832 0.58289 0.73996 0.0
C2767 C 0.76441 0.56548 0.74359 0.0
C2768 C 0.77206 0.54463 0.74655 0.0
C2769 C 0.75344 0.52901 0.7508 0.0
C2770 C 0.75205 0.51187 0.73273 0.0
C2771 C 0.75559 0.51837 0.77329 0.0
C2772 C 0.73422 0.54444 0.75005 0.0
C2773 C 0.74106 0.5654 0.74607 0.0
C2774 C 0.72658 0.58269 0.74519 0.0
C2775 C 0.70439 0.57836 0.74738 0.0
C2776 C 0.69674 0.55687 0.75024 0.0
C2777 C 0.71197 0.53975 0.75212 0.0
H2778 H 0.1883 0.43644 0.0186 0.0
H2779 H 0.2488 0.42501 0.98449 0.0
H2780 H 0.25522 0.4644 0.98252 0.0
H2781 H 0.17077 0.48051 0.99075 0.0
H2782 H 0.16051 0.49595 0.01339 0.0
H2783 H 0.16182 0.46686 0.01505 0.0
H2784 H 0.1853 0.46916 0.04988 0.0
H2785 H 0.18345 0.49831 0.04877 0.0
H2786 H 0.20966 0.48535 0.04976 0.0
H2787 H 0.25219 0.50531 0.97938 0.0
H2788 H 0.24336 0.54443 0.98159 0.0
H2789 H 0.18573 0.52905 0.01907 0.0
C2790 C 0.20333 0.44222 0.01156 0.0
C2791 C 0.21816 0.4276 0.00196 0.0
C2792 C 0.23745 0.43582 0.99244 0.0
C2793 C 0.24112 0.45823 0.99099 0.0
C2794 C 0.22565 0.47226 0.99966 0.0
C2795 C 0.20754 0.46457 0.01048 0.0
C2796 C 0.19332 0.4831 0.01818 0.0
C2797 C 0.17024 0.48149 0.00876 0.0
C2798 C 0.19291 0.48404 0.04313 0.0
C2799 C 0.20553 0.50226 0.00883 0.0
C2800 C 0.22421 0.49574 0.9983 0.0
C2801 C 0.23778 0.51062 0.98792 0.0
C2802 C 0.23252 0.53279 0.98904 0.0
C2803 C 0.21385 0.53986 0.00045 0.0
C2804 C 0.20009 0.52425 0.01015 0.0
H2805 H 0.24722 0.71567 0.0248 0.0
H2806 H 0.21143 0.70652 0.08485 0.0
H2807 H 0.20619 0.7459 0.08785 0.0
H2808 H 0.27506 0.76379 0.0419 0.0
H2809 H 0.27404 0.77673 0.01567 0.0
H2810 H 0.2742 0.74762 0.01755 0.0
H2811 H 0.23875 0.74594 0.99515 0.0
H2812 H 0.23816 0.7751 0.99334 0.0
H2813 H 0.21517 0.76068 0.00423 0.0
H2814 H 0.20604 0.78602 0.08567 0.0
H2815 H 0.21488 0.82474 0.08042 0.0
H2816 H 0.24947 0.80882 0.02132 0.0
C2817 C 0.23841 0.72198 0.03863 0.0
C2818 C 0.22974 0.70791 0.05458 0.0
C2819 C 0.21827 0.71687 0.07242 0.0
C2820 C 0.21502 0.73926 0.07419 0.0
C2821 C 0.22328 0.75263 0.058 0.0
C2822 C 0.23499 0.74443 0.0407 0.0
C2823 C 0.2431 0.76263 0.02622 0.0
C2824 C 0.26808 0.76271 0.02529 0.0
C2825 C 0.2332 0.76098 0.00338 0.0
C2826 C 0.23438 0.78227 0.03833 0.0
C2827 C 0.22278 0.77606 0.05649 0.0
C2828 C 0.21474 0.79115 0.07131 0.0
C2829 C 0.21962 0.81313 0.06811 0.0
C2830 C 0.23218 0.81981 0.05013 0.0
C2831 C 0.23896 0.80425 0.03465 0.0
H2832 H 0.74623 0.69923 0.52177 0.0
H2833 H 0.77935 0.68258 0.58153 0.0
H2834 H 0.78548 0.72151 0.58901 0.0
H2835 H 0.77811 0.74841 0.50754 0.0
H2836 H 0.75432 0.76263 0.49813 0.0
H2837 H 0.75573 0.73354 0.49597 0.0
H2838 H 0.71958 0.73065 0.51726 0.0
H2839 H 0.7184 0.75968 0.52011 0.0
H2840 H 0.71757 0.74264 0.54386 0.0
H2841 H 0.78456 0.76175 0.59194 0.0
H2842 H 0.78065 0.80126 0.58825 0.0
H2843 H 0.7467 0.79231 0.5271 0.0
C2844 C 0.75567 0.70383 0.53588 0.0
C2845 C 0.763 0.68802 0.55078 0.0
C2846 C 0.77419 0.69453 0.56971 0.0
C2847 C 0.77752 0.71656 0.57416 0.0
C2848 C 0.7692 0.73182 0.55968 0.0
C2849 C 0.75872 0.7258 0.54078 0.0
C2850 C 0.7498 0.74546 0.52891 0.0
C2851 C 0.76012 0.74764 0.5063 0.0
C2852 C 0.72486 0.74454 0.52745 0.0
C2853 C 0.75711 0.76347 0.54398 0.0
C2854 C 0.76811 0.75517 0.56169 0.0
C2855 C 0.77614 0.76847 0.57806 0.0
C2856 C 0.77364 0.79092 0.57589 0.0
C2857 C 0.76331 0.79996 0.55741 0.0
C2858 C 0.75449 0.78594 0.54151 0.0
H2859 H 0.25499 0.29387 0.93302 0.0
H2860 H 0.25318 0.30734 0.00211 0.0
H2861 H 0.25247 0.26786 0.00963 0.0
H2862 H 0.21744 0.25062 0.93472 0.0
H2863 H 0.23062 0.23503 0.91377 0.0
H2864 H 0.23292 0.26414 0.91392 0.0
H2865 H 0.27492 0.26129 0.91422 0.0
H2866 H 0.27278 0.23219 0.91355 0.0
H2867 H 0.28811 0.2452 0.93481 0.0
H2868 H 0.2504 0.2263 0.00918 0.0
H2869 H 0.25009 0.18702 0.00097 0.0
H2870 H 0.25157 0.2016 0.93208 0.0
C2871 C 0.25506 0.2886 0.94979 0.0
C2872 C 0.25454 0.30378 0.967 0.0
C2873 C 0.25393 0.29606 0.98866 0.0
C2874 C 0.25334 0.27365 0.99307 0.0
C2875 C 0.2531 0.25916 0.97564 0.0
C2876 C 0.2541 0.2664 0.95444 0.0
C2877 C 0.25277 0.24773 0.93851 0.0
C2878 C 0.23222 0.24949 0.9244 0.0
C2879 C 0.27337 0.24653 0.92445 0.0
C2880 C 0.25128 0.22873 0.95401 0.0
C2881 C 0.25133 0.2356 0.97537 0.0
C2882 C 0.25034 0.22081 0.99249 0.0
C2883 C 0.24999 0.19849 0.98766 0.0
C2884 C 0.25065 0.19111 0.96587 0.0
C2885 C 0.25083 0.20659 0.94891 0.0
H2886 H 0.75333 0.31249 0.47501 0.0
H2887 H 0.7212 0.31395 0.41221 0.0
H2888 H 0.71726 0.27446 0.41315 0.0
H2889 H 0.78386 0.2629 0.46353 0.0
H2890 H 0.7821 0.25299 0.49099 0.0
H2891 H 0.78186 0.28172 0.48582 0.0
H2892 H 0.74562 0.28488 0.50696 0.0
H2893 H 0.74553 0.25605 0.5117 0.0
H2894 H 0.72265 0.2688 0.49864 0.0
H2895 H 0.71644 0.23541 0.42011 0.0
H2896 H 0.7241 0.1975 0.43035 0.0
H2897 H 0.75746 0.21955 0.4882 0.0
C2898 C 0.74579 0.30441 0.46135 0.0
C2899 C 0.73774 0.31639 0.44346 0.0
C2900 C 0.72786 0.30522 0.42594 0.0
C2901 C 0.72524 0.28274 0.42642 0.0
C2902 C 0.73288 0.27147 0.44439 0.0
C2903 C 0.74345 0.28171 0.46131 0.0
C2904 C 0.75135 0.26525 0.4779 0.0
C2905 C 0.77627 0.26574 0.47966 0.0
C2906 C 0.74064 0.26898 0.50012 0.0
C2907 C 0.74348 0.24428 0.46758 0.0
C2908 C 0.7326 0.24843 0.4484 0.0
C2909 C 0.72477 0.23189 0.43517 0.0
C2910 C 0.72903 0.21045 0.44116 0.0
C2911 C 0.74083 0.20576 0.46024 0.0
C2912 C 0.7477 0.22282 0.47394 0.0
H2913 H 0.55938 0.77563 0.79022 0.0
H2914 H 0.51445 0.72436 0.80744 0.0
H2915 H 0.50369 0.72108 0.76867 0.0
H2916 H 0.52335 0.8001 0.75035 0.0
H2917 H 0.54552 0.8085 0.73321 0.0
H2918 H 0.54939 0.80625 0.76214 0.0
H2919 H 0.58173 0.78014 0.75618 0.0
H2920 H 0.57816 0.78253 0.72734 0.0
H2921 H 0.5779 0.75613 0.73992 0.0
H2922 H 0.49861 0.72352 0.72751 0.0
H2923 H 0.50273 0.7281 0.68792 0.0
H2924 H 0.55048 0.77854 0.69861 0.0
C2925 C 0.5476 0.76335 0.78583 0.0
C2926 C 0.53811 0.74985 0.80172 0.0
C2927 C 0.52213 0.73462 0.79542 0.0
C2928 C 0.51579 0.73283 0.77351 0.0
C2929 C 0.52517 0.74684 0.75833 0.0
C2930 C 0.54076 0.76176 0.7643 0.0
C2931 C 0.54826 0.77516 0.74516 0.0
C2932 C 0.5412 0.79892 0.74786 0.0
C2933 C 0.57297 0.77335 0.74196 0.0
C2934 C 0.53575 0.76438 0.72703 0.0
C2935 C 0.52192 0.74858 0.735 0.0
C2936 C 0.50918 0.73602 0.72117 0.0
C2937 C 0.51142 0.73897 0.69867 0.0
C2938 C 0.52667 0.75398 0.69021 0.0
C2939 C 0.5384 0.76731 0.70464 0.0
H2940 H 0.04948 0.26962 0.70275 0.0
H2941 H 0.98741 0.23987 0.68834 0.0
H2942 H 0.97969 0.23706 0.72766 0.0
H2943 H 0.06399 0.23706 0.74391 0.0
H2944 H 0.07646 0.25736 0.76088 0.0
H2945 H 0.07524 0.2613 0.73201 0.0
H2946 H 0.05519 0.29797 0.73711 0.0
H2947 H 0.05714 0.29441 0.76607 0.0
H2948 H 0.03106 0.29901 0.75365 0.0
H2949 H 0.98106 0.23368 0.76948 0.0
H2950 H 0.99071 0.23236 0.80873 0.0
H2951 H 0.05273 0.26211 0.794 0.0
C2952 C 0.03388 0.26332 0.70782 0.0
C2953 C 0.01897 0.25519 0.69246 0.0
C2954 C 0.9989 0.24664 0.69979 0.0
C2955 C 0.99446 0.24479 0.72214 0.0
C2956 C 0.01012 0.25185 0.73691 0.0
C2957 C 0.02923 0.26139 0.72995 0.0
C2958 C 0.04419 0.26626 0.74877 0.0
C2959 C 0.06626 0.25479 0.74622 0.0
C2960 C 0.04705 0.29087 0.75156 0.0
C2961 C 0.03119 0.25677 0.76725 0.0
C2962 C 0.01132 0.24901 0.76037 0.0
C2963 C 0.99658 0.23978 0.77498 0.0
C2964 C 0.00223 0.2389 0.79717 0.0
C2965 C 0.02268 0.24656 0.80429 0.0
C2966 C 0.03723 0.25547 0.789 0.0
H2967 H 0.50002 0.77249 0.04231 0.0
H2968 H 0.47635 0.83848 0.0496 0.0
H2969 H 0.47092 0.84095 0.01023 0.0
H2970 H 0.52913 0.78315 0.99065 0.0
H2971 H 0.52292 0.75669 0.97991 0.0
H2972 H 0.5257 0.76044 0.00876 0.0
H2973 H 0.48737 0.74391 0.01402 0.0
H2974 H 0.48421 0.74089 0.9851 0.0
H2975 H 0.46445 0.75606 0.00046 0.0
H2976 H 0.46554 0.83606 0.97104 0.0
H2977 H 0.46845 0.82693 0.93222 0.0
H2978 H 0.49643 0.76458 0.94889 0.0
C2979 C 0.49425 0.78764 0.03555 0.0
C2980 C 0.48851 0.80526 0.04914 0.0
C2981 C 0.48084 0.82473 0.03962 0.0
C2982 C 0.47747 0.82626 0.01725 0.0
C2983 C 0.48212 0.80828 0.00447 0.0
C2984 C 0.49101 0.78958 0.01305 0.0
C2985 C 0.49528 0.77303 0.99526 0.0
C2986 C 0.51971 0.76805 0.99354 0.0
C2987 C 0.48203 0.75224 0.99894 0.0
C2988 C 0.48717 0.78538 0.97551 0.0
C2989 C 0.47937 0.80555 0.98138 0.0
C2990 C 0.47161 0.82033 0.96617 0.0
C2991 C 0.47309 0.81492 0.94419 0.0
C2992 C 0.48231 0.79497 0.93763 0.0
C2993 C 0.48867 0.77965 0.95351 0.0
H2994 H 0.93132 0.27135 0.30009 0.0
H2995 H 0.98854 0.23138 0.30896 0.0
H2996 H 0.99353 0.22951 0.26929 0.0
H2997 H 0.90966 0.24755 0.25528 0.0
H2998 H 0.90204 0.27177 0.24076 0.0
H2999 H 0.90404 0.27227 0.26989 0.0
H3000 H 0.93162 0.30394 0.26818 0.0
H3001 H 0.92914 0.30405 0.23902 0.0
H3002 H 0.95548 0.30133 0.25144 0.0
H3003 H 0.98953 0.22815 0.22843 0.0
H3004 H 0.98094 0.23318 0.18952 0.0
H3005 H 0.92742 0.2755 0.20712 0.0
C3006 C 0.94535 0.26295 0.29364 0.0
C3007 C 0.95973 0.25179 0.30761 0.0
C3008 C 0.97767 0.24054 0.2986 0.0
C3009 C 0.98049 0.23915 0.27604 0.0
C3010 C 0.96559 0.24964 0.26265 0.0
C3011 C 0.94887 0.26204 0.27111 0.0
C3012 C 0.93538 0.27199 0.25306 0.0
C3013 C 0.91136 0.26548 0.25487 0.0
C3014 C 0.93806 0.29679 0.25292 0.0
C3015 C 0.94606 0.26189 0.2333 0.0
C3016 C 0.96361 0.24923 0.23914 0.0
C3017 C 0.97598 0.23825 0.22366 0.0
C3018 C 0.97083 0.24101 0.20158 0.0
C3019 C 0.95337 0.25455 0.19516 0.0
C3020 C 0.94064 0.26473 0.21139 0.0
H3021 H 0.99604 0.22182 0.54165 0.0
H3022 H 0.01929 0.15573 0.54896 0.0
H3023 H 0.02225 0.15236 0.50929 0.0
H3024 H 0.96404 0.21191 0.49218 0.0
H3025 H 0.97073 0.23785 0.48049 0.0
H3026 H 0.96961 0.23478 0.50954 0.0
H3027 H 0.00889 0.2495 0.51227 0.0
H3028 H 0.01032 0.25209 0.48317 0.0
H3029 H 0.03033 0.23621 0.49744 0.0
H3030 H 0.02485 0.15642 0.46938 0.0
H3031 H 0.02129 0.16559 0.43067 0.0
H3032 H 0.99574 0.22889 0.44799 0.0
C3033 C 0.00121 0.20647 0.53487 0.0
C3034 C 0.00733 0.18899 0.54851 0.0
C3035 C 0.01442 0.16932 0.53894 0.0
C3036 C 0.01633 0.16729 0.51638 0.0
C3037 C 0.01103 0.18503 0.50347 0.0
C3038 C 0.00319 0.20411 0.51223 0.0
C3039 C 0.9985 0.22057 0.49443 0.0
C3040 C 0.97428 0.22663 0.49414 0.0
C3041 C 0.01287 0.24079 0.49699 0.0
C3042 C 0.00484 0.20765 0.47438 0.0
C3043 C 0.01231 0.18731 0.48011 0.0
C3044 C 0.01895 0.17226 0.46465 0.0
C3045 C 0.01699 0.17769 0.44267 0.0
C3046 C 0.00834 0.19798 0.43621 0.0
C3047 C 0.00276 0.21339 0.45236 0.0
H3048 H 0.44989 0.27797 0.71577 0.0
H3049 H 0.49082 0.22326 0.69903 0.0
H3050 H 0.50248 0.22047 0.7376 0.0
H3051 H 0.48821 0.30124 0.75483 0.0
H3052 H 0.4668 0.31114 0.77212 0.0
H3053 H 0.46248 0.30897 0.74325 0.0
H3054 H 0.42869 0.28477 0.74971 0.0
H3055 H 0.43261 0.28727 0.77849 0.0
H3056 H 0.43124 0.26075 0.76623 0.0
H3057 H 0.50805 0.22316 0.77864 0.0
H3058 H 0.50392 0.22811 0.81819 0.0
H3059 H 0.45991 0.28177 0.80699 0.0
C3060 C 0.46109 0.26517 0.72022 0.0
C3061 C 0.46911 0.25049 0.70457 0.0
C3062 C 0.4843 0.23447 0.71089 0.0
C3063 C 0.49114 0.23294 0.73267 0.0
C3064 C 0.48312 0.248 0.74764 0.0
C3065 C 0.46844 0.26381 0.74158 0.0
C3066 C 0.46191 0.27792 0.76055 0.0
C3067 C 0.47035 0.30119 0.7575 0.0
C3068 C 0.43715 0.27763 0.76395 0.0
C3069 C 0.47388 0.26659 0.77873 0.0
C3070 C 0.48665 0.24984 0.77091 0.0
C3071 C 0.49838 0.23644 0.78486 0.0
C3072 C 0.49615 0.23956 0.80734 0.0
C3073 C 0.48188 0.2556 0.81562 0.0
C3074 C 0.47129 0.26974 0.80108 0.0
H3075 H 0.49958 0.72604 0.55344 0.0
H3076 H 0.5106 0.65708 0.56292 0.0
H3077 H 0.51134 0.65173 0.52345 0.0
H3078 H 0.46399 0.71918 0.50553 0.0
H3079 H 0.47418 0.74323 0.49241 0.0
H3080 H 0.4737 0.7416 0.5216 0.0
H3081 H 0.51487 0.75011 0.52239 0.0
H3082 H 0.51557 0.75119 0.49318 0.0
H3083 H 0.53342 0.73301 0.50755 0.0
H3084 H 0.51254 0.6535 0.48353 0.0
H3085 H 0.50867 0.6616 0.44452 0.0
H3086 H 0.4968 0.72925 0.45966 0.0
C3087 C 0.50163 0.70975 0.5472 0.0
C3088 C 0.50501 0.69198 0.56138 0.0
C3089 C 0.50788 0.67097 0.5525 0.0
C3090 C 0.50852 0.66775 0.53005 0.0
C3091 C 0.50602 0.68565 0.51656 0.0
C3092 C 0.50212 0.70617 0.52467 0.0
C3093 C 0.49946 0.72242 0.50631 0.0
C3094 C 0.47647 0.73218 0.50647 0.0
C3095 C 0.51688 0.74023 0.50744 0.0
C3096 C 0.50285 0.70781 0.48673 0.0
C3097 C 0.5067 0.68668 0.49315 0.0
C3098 C 0.50955 0.66996 0.47825 0.0
C3099 C 0.50747 0.67473 0.45615 0.0
C3100 C 0.50278 0.69605 0.44914 0.0
C3101 C 0.501 0.71292 0.46459 0.0
H3102 H 0.44671 0.50496 0.26949 0.0
H3103 H 0.43587 0.49455 0.33835 0.0
H3104 H 0.47533 0.49343 0.34442 0.0
H3105 H 0.49628 0.46991 0.26566 0.0
H3106 H 0.50911 0.4878 0.24641 0.0
H3107 H 0.47995 0.48554 0.24707 0.0
H3108 H 0.47719 0.52715 0.252 0.0
H3109 H 0.50634 0.52948 0.252 0.0
H3110 H 0.49084 0.53987 0.27454 0.0
H3111 H 0.51504 0.49816 0.34415 0.0
H3112 H 0.55407 0.50114 0.33672 0.0
H3113 H 0.54058 0.50705 0.26773 0.0
C3114 C 0.45266 0.50165 0.2857 0.0
C3115 C 0.43817 0.49977 0.30346 0.0
C3116 C 0.44662 0.49597 0.3245 0.0
C3117 C 0.46903 0.49545 0.32815 0.0
C3118 C 0.48284 0.49856 0.31056 0.0
C3119 C 0.47513 0.50099 0.28965 0.0
C3120 C 0.49376 0.50443 0.27381 0.0
C3121 C 0.49484 0.48581 0.25726 0.0
C3122 C 0.49191 0.52655 0.26242 0.0
C3123 C 0.51302 0.50391 0.28921 0.0
C3124 C 0.50619 0.50072 0.31033 0.0
C3125 C 0.52066 0.50031 0.32765 0.0
C3126 C 0.54284 0.50222 0.32323 0.0
C3127 C 0.5505 0.50428 0.30162 0.0
C3128 C 0.53528 0.50563 0.28442 0.0
H3129 H 0.46064 0.99262 0.82175 0.0
H3130 H 0.44662 0.00038 0.75319 0.0
H3131 H 0.48596 0.00095 0.74528 0.0
H3132 H 0.50448 0.0273 0.82507 0.0
H3133 H 0.52053 0.01093 0.84327 0.0
H3134 H 0.49139 0.00872 0.8435 0.0
H3135 H 0.49394 0.96735 0.83632 0.0
H3136 H 0.52312 0.96932 0.83666 0.0
H3137 H 0.50954 0.95766 0.81355 0.0
H3138 H 0.52736 0.00366 0.74535 0.0
H3139 H 0.56685 0.00363 0.75301 0.0
H3140 H 0.55323 0.99468 0.82153 0.0
C3141 C 0.46581 0.99384 0.805 0.0
C3142 C 0.45046 0.99632 0.78809 0.0
C3143 C 0.45799 0.99812 0.76641 0.0
C3144 C 0.48035 0.99868 0.76177 0.0
C3145 C 0.49503 0.99713 0.77894 0.0
C3146 C 0.48804 0.99421 0.80007 0.0
C3147 C 0.50707 0.99311 0.81563 0.0
C3148 C 0.50577 0.0111 0.83288 0.0
C3149 C 0.5085 0.97052 0.82616 0.0
C3150 C 0.52579 0.99684 0.80014 0.0
C3151 C 0.51861 0.99892 0.779 0.0
C3152 C 0.53312 0.00201 0.76186 0.0
C3153 C 0.55553 0.0022 0.76639 0.0
C3154 C 0.56323 0.99955 0.78791 0.0
C3155 C 0.54799 0.99729 0.80495 0.0
H3156 H 0.04332 0.49706 0.21828 0.0
H3157 H 0.05434 0.50195 0.14892 0.0
H3158 H 0.0148 0.50107 0.14255 0.0
H3159 H 0.99497 0.46138 0.21561 0.0
H3160 H 0.98184 0.47504 0.2379 0.0
H3161 H 0.01103 0.47383 0.23667 0.0
H3162 H 0.01239 0.51572 0.23949 0.0
H3163 H 0.98318 0.5171 0.24 0.0
H3164 H 0.99816 0.53193 0.21973 0.0
H3165 H 0.9745 0.50263 0.14366 0.0
H3166 H 0.93536 0.50097 0.15167 0.0
H3167 H 0.94968 0.49563 0.22047 0.0
C3168 C 0.0374 0.49709 0.20173 0.0
C3169 C 0.05191 0.49919 0.18402 0.0
C3170 C 0.04353 0.50004 0.16265 0.0
C3171 C 0.02109 0.49976 0.1589 0.0
C3172 C 0.0072 0.49876 0.17671 0.0
C3173 C 0.01495 0.49704 0.19769 0.0
C3174 C 0.99636 0.49688 0.21392 0.0
C3175 C 0.99603 0.47551 0.22678 0.0
C3176 C 0.9976 0.51658 0.22918 0.0
C3177 C 0.977 0.49861 0.19873 0.0
C3178 C 0.98373 0.49991 0.17737 0.0
C3179 C 0.969 0.5015 0.1603 0.0
C3180 C 0.94678 0.50072 0.16505 0.0
C3181 C 0.93939 0.49829 0.18669 0.0
C3182 C 0.95476 0.49786 0.20379 0.0
H3183 H 0.04357 0.98861 0.72486 0.0
H3184 H 0.05016 0.02202 0.6631 0.0
H3185 H 0.01074 0.02714 0.66153 0.0
H3186 H 0.99387 0.96007 0.7098 0.0
H3187 H 0.98229 0.96176 0.73661 0.0
H3188 H 0.01133 0.96113 0.73326 0.0
H3189 H 0.01426 0.99689 0.75514 0.0
H3190 H 0.98516 0.99785 0.75808 0.0
H3191 H 0.99941 0.02046 0.74621 0.0
H3192 H 0.97111 0.02892 0.66592 0.0
H3193 H 0.93237 0.02233 0.67359 0.0
H3194 H 0.94985 0.98748 0.73217 0.0
C3195 C 0.03665 0.99671 0.71089 0.0
C3196 C 0.05009 0.0048 0.69407 0.0
C3197 C 0.04035 0.01541 0.6761 0.0
C3198 C 0.01791 0.01867 0.67514 0.0
C3199 C 0.00521 0.011 0.69213 0.0
C3200 C 0.01404 -0.00018 0.70945 0.0
C3201 C 0.99629 0.99223 0.72482 0.0
C3202 C 0.99592 0.96732 0.7262 0.0
C3203 C 0.99895 0.00248 0.7474 0.0
C3204 C 0.97621 0.00093 0.71334 0.0
C3205 C 0.9819 0.01194 0.69465 0.0
C3206 C 0.9664 0.02047 0.68057 0.0
C3207 C 0.94445 0.01679 0.68512 0.0
C3208 C 0.93817 0.00481 0.70364 0.0
C3209 C 0.95423 0.99733 0.71829 0.0
H3210 H 0.00461 0.32098 0.95483 0.0
H3211 H 0.99428 0.25339 0.93828 0.0
H3212 H 0.99263 0.24419 0.9773 0.0
H3213 H 0.03919 0.31305 0.99819 0.0
H3214 H 0.02845 0.3344 0.01505 0.0
H3215 H 0.02628 0.3363 0.98598 0.0
H3216 H 0.98448 0.34058 0.98873 0.0
H3217 H 0.98659 0.33939 0.01787 0.0
H3218 H 0.96897 0.32085 0.00373 0.0
H3219 H 0.99547 0.24202 0.01862 0.0
H3220 H 0.99778 0.24795 0.05833 0.0
H3221 H 0.00689 0.31682 0.04715 0.0
C3222 C 0.00138 0.30432 0.95936 0.0
C3223 C 0.99947 0.28794 0.94342 0.0
C3224 C 0.99551 0.2663 0.95013 0.0
C3225 C 0.99475 0.26087 0.97229 0.0
C3226 C 0.99774 0.27729 0.98758 0.0
C3227 C 0.00046 0.29866 0.98137 0.0
C3228 C 0.00368 0.31323 0.00089 0.0
C3229 C 0.02571 0.32492 0.99996 0.0
C3230 C 0.98481 0.32947 0.00292 0.0
C3231 C 0.00312 0.29666 0.01901 0.0
C3232 C 0.99954 0.27602 0.0111 0.0
C3233 C 0.99817 0.25816 0.02496 0.0
C3234 C 0.99973 0.26164 0.0475 0.0
C3235 C 0.00276 0.2828 0.05593 0.0
C3236 C 0.00491 0.30037 0.04133 0.0
H3237 H 0.98334 0.82057 0.44463 0.0
H3238 H 0.00558 0.7558 0.42849 0.0
H3239 H 0.00541 0.74613 0.46735 0.0
H3240 H 0.0148 0.8287 0.48877 0.0
H3241 H 0.99507 0.84258 0.50535 0.0
H3242 H 0.99285 0.84351 0.47627 0.0
H3243 H 0.95379 0.82798 0.47798 0.0
H3244 H 0.95556 0.82769 0.50719 0.0
H3245 H 0.94882 0.80323 0.49271 0.0
H3246 H 0.0075 0.74513 0.50883 0.0
H3247 H 0.00757 0.75187 0.54853 0.0
H3248 H 0.98496 0.8175 0.53704 0.0
C3249 C 0.98733 0.80408 0.44914 0.0
C3250 C 0.99434 0.78896 0.43333 0.0
C3251 C 0.99983 0.76765 0.44012 0.0
C3252 C 0.99998 0.76203 0.46226 0.0
C3253 C 0.99425 0.77775 0.4775 0.0
C3254 C 0.98746 0.79817 0.47116 0.0
C3255 C 0.98318 0.81248 0.49071 0.0
C3256 C 0.99733 0.83302 0.49023 0.0
C3257 C 0.9589 0.81818 0.49223 0.0
C3258 C 0.98986 0.79741 0.50895 0.0
C3259 C 0.99583 0.7773 0.50112 0.0
C3260 C 0.00268 0.7608 0.5151 0.0
C3261 C 0.00287 0.76482 0.53762 0.0
C3262 C 0.99662 0.78531 0.54596 0.0
C3263 C 0.99025 0.80178 0.53127 0.0
loop_
_geom_bond_atom_site_label_1
_geom_bond_atom_site_label_2
_geom_bond_distance
_geom_bond_site_symmetry_2
_ccdc_geom_bond_type
O0 Cd1 2.223 . S
O0 C8 1.315 . S
Cd1 O0 2.223 . S
Cd1 O4 2.297 . S
Cd1 O5 2.439 . S
Cd1 O11 2.240 . S
Cd2 O3 2.240 . S
Cd2 O10 2.223 . S
Cd2 O12 2.297 . S
Cd2 O13 2.439 . S
O3 Cd2 2.240 . S
O3 C8 1.279 . S
O4 Cd1 2.297 . S
O4 C6 1.247 . S
O5 Cd1 2.439 . S
O5 C6 1.208 . S
C6 O4 1.247 . S
C6 O5 1.208 . S
C7 O12 1.247 . S
C7 O13 1.208 . S
C8 O0 1.315 . S
C8 O3 1.279 . S
C9 O10 1.315 . S
C9 O11 1.279 . S
O10 Cd2 2.223 . S
O10 C9 1.315 . S
O11 Cd1 2.240 . S
O11 C9 1.279 . S
O12 Cd2 2.297 . S
O12 C7 1.247 . S
O13 Cd2 2.439 . S
O13 C7 1.208 . S
O14 Cd15 2.223 . S
O14 C22 1.315 . S
Cd15 O14 2.223 . S
Cd15 O18 2.297 . S
Cd15 O19 2.439 . S
Cd15 O25 2.240 . S
Cd16 O17 2.240 . S
Cd16 O24 2.223 . S
Cd16 O26 2.297 . S
Cd16 O27 2.439 . S
O17 Cd16 2.240 . S
O17 C22 1.279 . S
O18 Cd15 2.297 . S
O18 C20 1.247 . S
O19 Cd15 2.439 . S
O19 C20 1.208 . S
C20 O18 1.247 . S
C20 O19 1.208 . S
C21 O26 1.247 . S
C21 O27 1.208 . S
C22 O14 1.315 . S
C22 O17 1.279 . S
C23 O24 1.315 . S
C23 O25 1.279 . S
O24 Cd16 2.223 . S
O24 C23 1.315 . S
O25 Cd15 2.240 . S
O25 C23 1.279 . S
O26 Cd16 2.297 . S
O26 C21 1.247 . S
O27 Cd16 2.439 . S
O27 C21 1.208 . S
O28 Cd29 2.223 . S
O28 C36 1.315 . S
Cd29 O28 2.223 . S
Cd29 O32 2.297 . S
Cd29 O33 2.439 . S
Cd29 O39 2.240 . S
Cd30 O31 2.240 . S
Cd30 O38 2.223 . S
Cd30 O40 2.297 . S
Cd30 O41 2.439 . S
O31 Cd30 2.240 . S
O31 C36 1.279 . S
O32 Cd29 2.297 . S
O32 C34 1.247 . S
O33 Cd29 2.439 . S
O33 C34 1.208 . S
C34 O32 1.247 . S
C34 O33 1.208 . S
C35 O40 1.247 . S
C35 O41 1.208 . S
C36 O28 1.315 . S
C36 O31 1.279 . S
C37 O38 1.315 . S
C37 O39 1.279 . S
O38 Cd30 2.223 . S
O38 C37 1.315 . S
O39 Cd29 2.240 . S
O39 C37 1.279 . S
O40 Cd30 2.297 . S
O40 C35 1.247 . S
O41 Cd30 2.439 . S
O41 C35 1.208 . S
O42 Cd43 2.223 . S
O42 C50 1.315 . S
Cd43 O42 2.223 . S
Cd43 O46 2.297 . S
Cd43 O47 2.439 . S
Cd43 O53 2.240 . S
Cd44 O45 2.240 . S
Cd44 O52 2.223 . S
Cd44 O54 2.297 . S
Cd44 O55 2.439 . S
O45 Cd44 2.240 . S
O45 C50 1.279 . S
O46 Cd43 2.297 . S
O46 C48 1.247 . S
O47 Cd43 2.439 . S
O47 C48 1.208 . S
C48 O46 1.247 . S
C48 O47 1.208 . S
C49 O54 1.247 . S
C49 O55 1.208 . S
C50 O42 1.315 . S
C50 O45 1.279 . S
C51 O52 1.315 . S
C51 O53 1.279 . S
O52 Cd44 2.223 . S
O52 C51 1.315 . S
O53 Cd43 2.240 . S
O53 C51 1.279 . S
O54 Cd44 2.297 . S
O54 C49 1.247 . S
O55 Cd44 2.439 . S
O55 C49 1.208 . S
O56 Cd57 2.223 . S
O56 C64 1.315 . S
Cd57 O56 2.223 . S
Cd57 O60 2.297 . S
Cd57 O61 2.439 . S
Cd57 O67 2.240 . S
Cd58 O59 2.240 . S
Cd58 O66 2.223 . S
Cd58 O68 2.297 . S
Cd58 O69 2.439 . S
O59 Cd58 2.240 . S
O59 C64 1.279 . S
O60 Cd57 2.297 . S
O60 C62 1.247 . S
O61 Cd57 2.439 . S
O61 C62 1.208 . S
C62 O60 1.247 . S
C62 O61 1.208 . S
C63 O68 1.247 . S
C63 O69 1.208 . S
C64 O56 1.315 . S
C64 O59 1.279 . S
C65 O66 1.315 . S
C65 O67 1.279 . S
O66 Cd58 2.223 . S
O66 C65 1.315 . S
O67 Cd57 2.240 . S
O67 C65 1.279 . S
O68 Cd58 2.297 . S
O68 C63 1.247 . S
O69 Cd58 2.439 . S
O69 C63 1.208 . S
O70 Cd71 2.223 . S
O70 C78 1.315 . S
Cd71 O70 2.223 . S
Cd71 O74 2.297 . S
Cd71 O75 2.439 . S
Cd71 O81 2.240 . S
Cd72 O73 2.240 . S
Cd72 O80 2.223 . S
Cd72 O82 2.297 . S
Cd72 O83 2.439 . S
O73 Cd72 2.240 . S
O73 C78 1.279 . S
O74 Cd71 2.297 . S
O74 C76 1.247 . S
O75 Cd71 2.439 . S
O75 C76 1.208 . S
C76 O74 1.247 . S
C76 O75 1.208 . S
C77 O82 1.247 . S
C77 O83 1.208 . S
C78 O70 1.315 . S
C78 O73 1.279 . S
C79 O80 1.315 . S
C79 O81 1.279 . S
O80 Cd72 2.223 . S
O80 C79 1.315 . S
O81 Cd71 2.240 . S
O81 C79 1.279 . S
O82 Cd72 2.297 . S
O82 C77 1.247 . S
O83 Cd72 2.439 . S
O83 C77 1.208 . S
O84 Cd85 2.223 . S
O84 C92 1.315 . S
Cd85 O84 2.223 . S
Cd85 O88 2.297 . S
Cd85 O89 2.439 . S
Cd85 O95 2.240 . S
Cd86 O87 2.240 . S
Cd86 O94 2.223 . S
Cd86 O96 2.297 . S
Cd86 O97 2.439 . S
O87 Cd86 2.240 . S
O87 C92 1.279 . S
O88 Cd85 2.297 . S
O88 C90 1.247 . S
O89 Cd85 2.439 . S
O89 C90 1.208 . S
C90 O88 1.247 . S
C90 O89 1.208 . S
C91 O96 1.247 . S
C91 O97 1.208 . S
C92 O84 1.315 . S
C92 O87 1.279 . S
C93 O94 1.315 . S
C93 O95 1.279 . S
O94 Cd86 2.223 . S
O94 C93 1.315 . S
O95 Cd85 2.240 . S
O95 C93 1.279 . S
O96 Cd86 2.297 . S
O96 C91 1.247 . S
O97 Cd86 2.439 . S
O97 C91 1.208 . S
O98 Cd99 2.223 . S
O98 C106 1.315 . S
Cd99 O98 2.223 . S
Cd99 O102 2.297 . S
Cd99 O103 2.439 . S
Cd99 O109 2.240 . S
Cd100 O101 2.240 . S
Cd100 O108 2.223 . S
Cd100 O110 2.297 . S
Cd100 O111 2.439 . S
O101 Cd100 2.240 . S
O101 C106 1.279 . S
O102 Cd99 2.297 . S
O102 C104 1.247 . S
O103 Cd99 2.439 . S
O103 C104 1.208 . S
C104 O102 1.247 . S
C104 O103 1.208 . S
C105 O110 1.247 . S
C105 O111 1.208 . S
C106 O98 1.315 . S
C106 O101 1.279 . S
C107 O108 1.315 . S
C107 O109 1.279 . S
O108 Cd100 2.223 . S
O108 C107 1.315 . S
O109 Cd99 2.240 . S
O109 C107 1.279 . S
O110 Cd100 2.297 . S
O110 C105 1.247 . S
O111 Cd100 2.439 . S
O111 C105 1.208 . S
O112 Cd113 2.223 . S
O112 C120 1.315 . S
Cd113 O112 2.223 . S
Cd113 O116 2.297 . S
Cd113 O117 2.439 . S
Cd113 O123 2.240 . S
Cd114 O115 2.240 . S
Cd114 O122 2.223 . S
Cd114 O124 2.297 . S
Cd114 O125 2.439 . S
O115 Cd114 2.240 . S
O115 C120 1.279 . S
O116 Cd113 2.297 . S
O116 C118 1.247 . S
O117 Cd113 2.439 . S
O117 C118 1.208 . S
C118 O116 1.247 . S
C118 O117 1.208 . S
C119 O124 1.247 . S
C119 O125 1.208 . S
C120 O112 1.315 . S
C120 O115 1.279 . S
C121 O122 1.315 . S
C121 O123 1.279 . S
O122 Cd114 2.223 . S
O122 C121 1.315 . S
O123 Cd113 2.240 . S
O123 C121 1.279 . S
O124 Cd114 2.297 . S
O124 C119 1.247 . S
O125 Cd114 2.439 . S
O125 C119 1.208 . S
O126 Cd127 2.223 . S
O126 C134 1.315 . S
Cd127 O126 2.223 . S
Cd127 O130 2.297 . S
Cd127 O131 2.439 . S
Cd127 O137 2.240 . S
Cd128 O129 2.240 . S
Cd128 O136 2.223 . S
Cd128 O138 2.297 . S
Cd128 O139 2.439 . S
O129 Cd128 2.240 . S
O129 C134 1.279 . S
O130 Cd127 2.297 . S
O130 C132 1.247 . S
O131 Cd127 2.439 . S
O131 C132 1.208 . S
C132 O130 1.247 . S
C132 O131 1.208 . S
C133 O138 1.247 . S
C133 O139 1.208 . S
C134 O126 1.315 . S
C134 O129 1.279 . S
C135 O136 1.315 . S
C135 O137 1.279 . S
O136 Cd128 2.223 . S
O136 C135 1.315 . S
O137 Cd127 2.240 . S
O137 C135 1.279 . S
O138 Cd128 2.297 . S
O138 C133 1.247 . S
O139 Cd128 2.439 . S
O139 C133 1.208 . S
O140 Cd141 2.223 . S
O140 C148 1.315 . S
Cd141 O140 2.223 . S
Cd141 O144 2.297 . S
Cd141 O145 2.439 . S
Cd141 O151 2.240 . S
Cd142 O143 2.240 . S
Cd142 O150 2.223 . S
Cd142 O152 2.297 . S
Cd142 O153 2.439 . S
O143 Cd142 2.240 . S
O143 C148 1.279 . S
O144 Cd141 2.297 . S
O144 C146 1.247 . S
O145 Cd141 2.439 . S
O145 C146 1.208 . S
C146 O144 1.247 . S
C146 O145 1.208 . S
C147 O152 1.247 . S
C147 O153 1.208 . S
C148 O140 1.315 . S
C148 O143 1.279 . S
C149 O150 1.315 . S
C149 O151 1.279 . S
O150 Cd142 2.223 . S
O150 C149 1.315 . S
O151 Cd141 2.240 . S
O151 C149 1.279 . S
O152 Cd142 2.297 . S
O152 C147 1.247 . S
O153 Cd142 2.439 . S
O153 C147 1.208 . S
O154 Cd155 2.223 . S
O154 C162 1.315 . S
Cd155 O154 2.223 . S
Cd155 O158 2.297 . S
Cd155 O159 2.439 . S
Cd155 O165 2.240 . S
Cd156 O157 2.240 . S
Cd156 O164 2.223 . S
Cd156 O166 2.297 . S
Cd156 O167 2.439 . S
O157 Cd156 2.240 . S
O157 C162 1.279 . S
O158 Cd155 2.297 . S
O158 C160 1.247 . S
O159 Cd155 2.439 . S
O159 C160 1.208 . S
C160 O158 1.247 . S
C160 O159 1.208 . S
C161 O166 1.247 . S
C161 O167 1.208 . S
C162 O154 1.315 . S
C162 O157 1.279 . S
C163 O164 1.315 . S
C163 O165 1.279 . S
O164 Cd156 2.223 . S
O164 C163 1.315 . S
O165 Cd155 2.240 . S
O165 C163 1.279 . S
O166 Cd156 2.297 . S
O166 C161 1.247 . S
O167 Cd156 2.439 . S
O167 C161 1.208 . S
O168 Cd169 2.223 . S
O168 C176 1.315 . S
Cd169 O168 2.223 . S
Cd169 O172 2.297 . S
Cd169 O173 2.439 . S
Cd169 O179 2.240 . S
Cd170 O171 2.240 . S
Cd170 O178 2.223 . S
Cd170 O180 2.297 . S
Cd170 O181 2.439 . S
O171 Cd170 2.240 . S
O171 C176 1.279 . S
O172 Cd169 2.297 . S
O172 C174 1.247 . S
O173 Cd169 2.439 . S
O173 C174 1.208 . S
C174 O172 1.247 . S
C174 O173 1.208 . S
C175 O180 1.247 . S
C175 O181 1.208 . S
C176 O168 1.315 . S
C176 O171 1.279 . S
C177 O178 1.315 . S
C177 O179 1.279 . S
O178 Cd170 2.223 . S
O178 C177 1.315 . S
O179 Cd169 2.240 . S
O179 C177 1.279 . S
O180 Cd170 2.297 . S
O180 C175 1.247 . S
O181 Cd170 2.439 . S
O181 C175 1.208 . S
O182 Cd183 2.223 . S
O182 C190 1.315 . S
Cd183 O182 2.223 . S
Cd183 O186 2.297 . S
Cd183 O187 2.439 . S
Cd183 O193 2.240 . S
Cd184 O185 2.240 . S
Cd184 O192 2.223 . S
Cd184 O194 2.297 . S
Cd184 O195 2.439 . S
O185 Cd184 2.240 . S
O185 C190 1.279 . S
O186 Cd183 2.297 . S
O186 C188 1.247 . S
O187 Cd183 2.439 . S
O187 C188 1.208 . S
C188 O186 1.247 . S
C188 O187 1.208 . S
C189 O194 1.247 . S
C189 O195 1.208 . S
C190 O182 1.315 . S
C190 O185 1.279 . S
C191 O192 1.315 . S
C191 O193 1.279 . S
O192 Cd184 2.223 . S
O192 C191 1.315 . S
O193 Cd183 2.240 . S
O193 C191 1.279 . S
O194 Cd184 2.297 . S
O194 C189 1.247 . S
O195 Cd184 2.439 . S
O195 C189 1.208 . S
O196 Cd197 2.223 . S
O196 C204 1.315 . S
Cd197 O196 2.223 . S
Cd197 O200 2.297 . S
Cd197 O201 2.439 . S
Cd197 O207 2.240 . S
Cd198 O199 2.240 . S
Cd198 O206 2.223 . S
Cd198 O208 2.297 . S
Cd198 O209 2.439 . S
O199 Cd198 2.240 . S
O199 C204 1.279 . S
O200 Cd197 2.297 . S
O200 C202 1.247 . S
O201 Cd197 2.439 . S
O201 C202 1.208 . S
C202 O200 1.247 . S
C202 O201 1.208 . S
C203 O208 1.247 . S
C203 O209 1.208 . S
C204 O196 1.315 . S
C204 O199 1.279 . S
C205 O206 1.315 . S
C205 O207 1.279 . S
O206 Cd198 2.223 . S
O206 C205 1.315 . S
O207 Cd197 2.240 . S
O207 C205 1.279 . S
O208 Cd198 2.297 . S
O208 C203 1.247 . S
O209 Cd198 2.439 . S
O209 C203 1.208 . S
O210 Cd211 2.223 . S
O210 C218 1.315 . S
Cd211 O210 2.223 . S
Cd211 O214 2.297 . S
Cd211 O215 2.439 . S
Cd211 O221 2.240 . S
Cd212 O213 2.240 . S
Cd212 O220 2.223 . S
Cd212 O222 2.297 . S
Cd212 O223 2.439 . S
O213 Cd212 2.240 . S
O213 C218 1.279 . S
O214 Cd211 2.297 . S
O214 C216 1.247 . S
O215 Cd211 2.439 . S
O215 C216 1.208 . S
C216 O214 1.247 . S
C216 O215 1.208 . S
C217 O222 1.247 . S
C217 O223 1.208 . S
C218 O210 1.315 . S
C218 O213 1.279 . S
C219 O220 1.315 . S
C219 O221 1.279 . S
O220 Cd212 2.223 . S
O220 C219 1.315 . S
O221 Cd211 2.240 . S
O221 C219 1.279 . S
O222 Cd212 2.297 . S
O222 C217 1.247 . S
O223 Cd212 2.439 . S
O223 C217 1.208 . S
O224 Cd225 2.223 . S
O224 C232 1.315 . S
Cd225 O224 2.223 . S
Cd225 O228 2.297 . S
Cd225 O229 2.439 . S
Cd225 O235 2.240 . S
Cd226 O227 2.240 . S
Cd226 O234 2.223 . S
Cd226 O236 2.297 . S
Cd226 O237 2.439 . S
O227 Cd226 2.240 . S
O227 C232 1.279 . S
O228 Cd225 2.297 . S
O228 C230 1.247 . S
O229 Cd225 2.439 . S
O229 C230 1.208 . S
C230 O228 1.247 . S
C230 O229 1.208 . S
C231 O236 1.247 . S
C231 O237 1.208 . S
C232 O224 1.315 . S
C232 O227 1.279 . S
C233 O234 1.315 . S
C233 O235 1.279 . S
O234 Cd226 2.223 . S
O234 C233 1.315 . S
O235 Cd225 2.240 . S
O235 C233 1.279 . S
O236 Cd226 2.297 . S
O236 C231 1.247 . S
O237 Cd226 2.439 . S
O237 C231 1.208 . S
O238 Cd239 2.223 . S
O238 C246 1.315 . S
Cd239 O238 2.223 . S
Cd239 O242 2.297 . S
Cd239 O243 2.439 . S
Cd239 O249 2.240 . S
Cd240 O241 2.240 . S
Cd240 O248 2.223 . S
Cd240 O250 2.297 . S
Cd240 O251 2.439 . S
O241 Cd240 2.240 . S
O241 C246 1.279 . S
O242 Cd239 2.297 . S
O242 C244 1.247 . S
O243 Cd239 2.439 . S
O243 C244 1.208 . S
C244 O242 1.247 . S
C244 O243 1.208 . S
C245 O250 1.247 . S
C245 O251 1.208 . S
C246 O238 1.315 . S
C246 O241 1.279 . S
C247 O248 1.315 . S
C247 O249 1.279 . S
O248 Cd240 2.223 . S
O248 C247 1.315 . S
O249 Cd239 2.240 . S
O249 C247 1.279 . S
O250 Cd240 2.297 . S
O250 C245 1.247 . S
O251 Cd240 2.439 . S
O251 C245 1.208 . S
O252 Cd253 2.223 . S
O252 C260 1.315 . S
Cd253 O252 2.223 . S
Cd253 O256 2.297 . S
Cd253 O257 2.439 . S
Cd253 O263 2.240 . S
Cd254 O255 2.240 . S
Cd254 O262 2.223 . S
Cd254 O264 2.297 . S
Cd254 O265 2.439 . S
O255 Cd254 2.240 . S
O255 C260 1.279 . S
O256 Cd253 2.297 . S
O256 C258 1.247 . S
O257 Cd253 2.439 . S
O257 C258 1.208 . S
C258 O256 1.247 . S
C258 O257 1.208 . S
C259 O264 1.247 . S
C259 O265 1.208 . S
C260 O252 1.315 . S
C260 O255 1.279 . S
C261 O262 1.315 . S
C261 O263 1.279 . S
O262 Cd254 2.223 . S
O262 C261 1.315 . S
O263 Cd253 2.240 . S
O263 C261 1.279 . S
O264 Cd254 2.297 . S
O264 C259 1.247 . S
O265 Cd254 2.439 . S
O265 C259 1.208 . S
O266 Cd267 2.223 . S
O266 C274 1.315 . S
Cd267 O266 2.223 . S
Cd267 O270 2.297 . S
Cd267 O271 2.439 . S
Cd267 O277 2.240 . S
Cd268 O269 2.240 . S
Cd268 O276 2.223 . S
Cd268 O278 2.297 . S
Cd268 O279 2.439 . S
O269 Cd268 2.240 . S
O269 C274 1.279 . S
O270 Cd267 2.297 . S
O270 C272 1.247 . S
O271 Cd267 2.439 . S
O271 C272 1.208 . S
C272 O270 1.247 . S
C272 O271 1.208 . S
C273 O278 1.247 . S
C273 O279 1.208 . S
C274 O266 1.315 . S
C274 O269 1.279 . S
C275 O276 1.315 . S
C275 O277 1.279 . S
O276 Cd268 2.223 . S
O276 C275 1.315 . S
O277 Cd267 2.240 . S
O277 C275 1.279 . S
O278 Cd268 2.297 . S
O278 C273 1.247 . S
O279 Cd268 2.439 . S
O279 C273 1.208 . S
O280 Cd281 2.223 . S
O280 C288 1.315 . S
Cd281 O280 2.223 . S
Cd281 O284 2.297 . S
Cd281 O285 2.439 . S
Cd281 O291 2.240 . S
Cd282 O283 2.240 . S
Cd282 O290 2.223 . S
Cd282 O292 2.297 . S
Cd282 O293 2.439 . S
O283 Cd282 2.240 . S
O283 C288 1.279 . S
O284 Cd281 2.297 . S
O284 C286 1.247 . S
O285 Cd281 2.439 . S
O285 C286 1.208 . S
C286 O284 1.247 . S
C286 O285 1.208 . S
C287 O292 1.247 . S
C287 O293 1.208 . S
C288 O280 1.315 . S
C288 O283 1.279 . S
C289 O290 1.315 . S
C289 O291 1.279 . S
O290 Cd282 2.223 . S
O290 C289 1.315 . S
O291 Cd281 2.240 . S
O291 C289 1.279 . S
O292 Cd282 2.297 . S
O292 C287 1.247 . S
O293 Cd282 2.439 . S
O293 C287 1.208 . S
O294 Cd295 2.223 . S
O294 C302 1.315 . S
Cd295 O294 2.223 . S
Cd295 O298 2.297 . S
Cd295 O299 2.439 . S
Cd295 O305 2.240 . S
Cd296 O297 2.240 . S
Cd296 O304 2.223 . S
Cd296 O306 2.297 . S
Cd296 O307 2.439 . S
O297 Cd296 2.240 . S
O297 C302 1.279 . S
O298 Cd295 2.297 . S
O298 C300 1.247 . S
O299 Cd295 2.439 . S
O299 C300 1.208 . S
C300 O298 1.247 . S
C300 O299 1.208 . S
C301 O306 1.247 . S
C301 O307 1.208 . S
C302 O294 1.315 . S
C302 O297 1.279 . S
C303 O304 1.315 . S
C303 O305 1.279 . S
O304 Cd296 2.223 . S
O304 C303 1.315 . S
O305 Cd295 2.240 . S
O305 C303 1.279 . S
O306 Cd296 2.297 . S
O306 C301 1.247 . S
O307 Cd296 2.439 . S
O307 C301 1.208 . S
O308 Cd309 2.223 . S
O308 C316 1.315 . S
Cd309 O308 2.223 . S
Cd309 O312 2.297 . S
Cd309 O313 2.439 . S
Cd309 O319 2.240 . S
Cd310 O311 2.240 . S
Cd310 O318 2.223 . S
Cd310 O320 2.297 . S
Cd310 O321 2.439 . S
O311 Cd310 2.240 . S
O311 C316 1.279 . S
O312 Cd309 2.297 . S
O312 C314 1.247 . S
O313 Cd309 2.439 . S
O313 C314 1.208 . S
C314 O312 1.247 . S
C314 O313 1.208 . S
C315 O320 1.247 . S
C315 O321 1.208 . S
C316 O308 1.315 . S
C316 O311 1.279 . S
C317 O318 1.315 . S
C317 O319 1.279 . S
O318 Cd310 2.223 . S
O318 C317 1.315 . S
O319 Cd309 2.240 . S
O319 C317 1.279 . S
O320 Cd310 2.297 . S
O320 C315 1.247 . S
O321 Cd310 2.439 . S
O321 C315 1.208 . S
O322 Cd323 2.223 . S
O322 C330 1.315 . S
Cd323 O322 2.223 . S
Cd323 O326 2.297 . S
Cd323 O327 2.439 . S
Cd323 O333 2.240 . S
Cd324 O325 2.240 . S
Cd324 O332 2.223 . S
Cd324 O334 2.297 . S
Cd324 O335 2.439 . S
O325 Cd324 2.240 . S
O325 C330 1.279 . S
O326 Cd323 2.297 . S
O326 C328 1.247 . S
O327 Cd323 2.439 . S
O327 C328 1.208 . S
C328 O326 1.247 . S
C328 O327 1.208 . S
C329 O334 1.247 . S
C329 O335 1.208 . S
C330 O322 1.315 . S
C330 O325 1.279 . S
C331 O332 1.315 . S
C331 O333 1.279 . S
O332 Cd324 2.223 . S
O332 C331 1.315 . S
O333 Cd323 2.240 . S
O333 C331 1.279 . S
O334 Cd324 2.297 . S
O334 C329 1.247 . S
O335 Cd324 2.439 . S
O335 C329 1.208 . S
O336 Cd337 2.223 . S
O336 C344 1.315 . S
Cd337 O336 2.223 . S
Cd337 O340 2.297 . S
Cd337 O341 2.439 . S
Cd337 O347 2.240 . S
Cd338 O339 2.240 . S
Cd338 O346 2.223 . S
Cd338 O348 2.297 . S
Cd338 O349 2.439 . S
O339 Cd338 2.240 . S
O339 C344 1.279 . S
O340 Cd337 2.297 . S
O340 C342 1.247 . S
O341 Cd337 2.439 . S
O341 C342 1.208 . S
C342 O340 1.247 . S
C342 O341 1.208 . S
C343 O348 1.247 . S
C343 O349 1.208 . S
C344 O336 1.315 . S
C344 O339 1.279 . S
C345 O346 1.315 . S
C345 O347 1.279 . S
O346 Cd338 2.223 . S
O346 C345 1.315 . S
O347 Cd337 2.240 . S
O347 C345 1.279 . S
O348 Cd338 2.297 . S
O348 C343 1.247 . S
O349 Cd338 2.439 . S
O349 C343 1.208 . S
O350 Cd351 2.223 . S
O350 C358 1.315 . S
Cd351 O350 2.223 . S
Cd351 O354 2.297 . S
Cd351 O355 2.439 . S
Cd351 O361 2.240 . S
Cd352 O353 2.240 . S
Cd352 O360 2.223 . S
Cd352 O362 2.297 . S
Cd352 O363 2.439 . S
O353 Cd352 2.240 . S
O353 C358 1.279 . S
O354 Cd351 2.297 . S
O354 C356 1.247 . S
O355 Cd351 2.439 . S
O355 C356 1.208 . S
C356 O354 1.247 . S
C356 O355 1.208 . S
C357 O362 1.247 . S
C357 O363 1.208 . S
C358 O350 1.315 . S
C358 O353 1.279 . S
C359 O360 1.315 . S
C359 O361 1.279 . S
O360 Cd352 2.223 . S
O360 C359 1.315 . S
O361 Cd351 2.240 . S
O361 C359 1.279 . S
O362 Cd352 2.297 . S
O362 C357 1.247 . S
O363 Cd352 2.439 . S
O363 C357 1.208 . S
O364 Cd365 2.223 . S
O364 C372 1.315 . S
Cd365 O364 2.223 . S
Cd365 O368 2.297 . S
Cd365 O369 2.439 . S
Cd365 O375 2.240 . S
Cd366 O367 2.240 . S
Cd366 O374 2.223 . S
Cd366 O376 2.297 . S
Cd366 O377 2.439 . S
O367 Cd366 2.240 . S
O367 C372 1.279 . S
O368 Cd365 2.297 . S
O368 C370 1.247 . S
O369 Cd365 2.439 . S
O369 C370 1.208 . S
C370 O368 1.247 . S
C370 O369 1.208 . S
C371 O376 1.247 . S
C371 O377 1.208 . S
C372 O364 1.315 . S
C372 O367 1.279 . S
C373 O374 1.315 . S
C373 O375 1.279 . S
O374 Cd366 2.223 . S
O374 C373 1.315 . S
O375 Cd365 2.240 . S
O375 C373 1.279 . S
O376 Cd366 2.297 . S
O376 C371 1.247 . S
O377 Cd366 2.439 . S
O377 C371 1.208 . S
O378 Cd379 2.223 . S
O378 C386 1.315 . S
Cd379 O378 2.223 . S
Cd379 O382 2.297 . S
Cd379 O383 2.439 . S
Cd379 O389 2.240 . S
Cd380 O381 2.240 . S
Cd380 O388 2.223 . S
Cd380 O390 2.297 . S
Cd380 O391 2.439 . S
O381 Cd380 2.240 . S
O381 C386 1.279 . S
O382 Cd379 2.297 . S
O382 C384 1.247 . S
O383 Cd379 2.439 . S
O383 C384 1.208 . S
C384 O382 1.247 . S
C384 O383 1.208 . S
C385 O390 1.247 . S
C385 O391 1.208 . S
C386 O378 1.315 . S
C386 O381 1.279 . S
C387 O388 1.315 . S
C387 O389 1.279 . S
O388 Cd380 2.223 . S
O388 C387 1.315 . S
O389 Cd379 2.240 . S
O389 C387 1.279 . S
O390 Cd380 2.297 . S
O390 C385 1.247 . S
O391 Cd380 2.439 . S
O391 C385 1.208 . S
O392 Cd393 2.223 . S
O392 C400 1.315 . S
Cd393 O392 2.223 . S
Cd393 O396 2.297 . S
Cd393 O397 2.439 . S
Cd393 O403 2.240 . S
Cd394 O395 2.240 . S
Cd394 O402 2.223 . S
Cd394 O404 2.297 . S
Cd394 O405 2.439 . S
O395 Cd394 2.240 . S
O395 C400 1.279 . S
O396 Cd393 2.297 . S
O396 C398 1.247 . S
O397 Cd393 2.439 . S
O397 C398 1.208 . S
C398 O396 1.247 . S
C398 O397 1.208 . S
C399 O404 1.247 . S
C399 O405 1.208 . S
C400 O392 1.315 . S
C400 O395 1.279 . S
C401 O402 1.315 . S
C401 O403 1.279 . S
O402 Cd394 2.223 . S
O402 C401 1.315 . S
O403 Cd393 2.240 . S
O403 C401 1.279 . S
O404 Cd394 2.297 . S
O404 C399 1.247 . S
O405 Cd394 2.439 . S
O405 C399 1.208 . S
O406 Cd407 2.223 . S
O406 C414 1.315 . S
Cd407 O406 2.223 . S
Cd407 O410 2.297 . S
Cd407 O411 2.439 . S
Cd407 O417 2.240 . S
Cd408 O409 2.240 . S
Cd408 O416 2.223 . S
Cd408 O418 2.297 . S
Cd408 O419 2.439 . S
O409 Cd408 2.240 . S
O409 C414 1.279 . S
O410 Cd407 2.297 . S
O410 C412 1.247 . S
O411 Cd407 2.439 . S
O411 C412 1.208 . S
C412 O410 1.247 . S
C412 O411 1.208 . S
C413 O418 1.247 . S
C413 O419 1.208 . S
C414 O406 1.315 . S
C414 O409 1.279 . S
C415 O416 1.315 . S
C415 O417 1.279 . S
O416 Cd408 2.223 . S
O416 C415 1.315 . S
O417 Cd407 2.240 . S
O417 C415 1.279 . S
O418 Cd408 2.297 . S
O418 C413 1.247 . S
O419 Cd408 2.439 . S
O419 C413 1.208 . S
O420 Cd421 2.223 . S
O420 C428 1.315 . S
Cd421 O420 2.223 . S
Cd421 O424 2.297 . S
Cd421 O425 2.439 . S
Cd421 O431 2.240 . S
Cd422 O423 2.240 . S
Cd422 O430 2.223 . S
Cd422 O432 2.297 . S
Cd422 O433 2.439 . S
O423 Cd422 2.240 . S
O423 C428 1.279 . S
O424 Cd421 2.297 . S
O424 C426 1.247 . S
O425 Cd421 2.439 . S
O425 C426 1.208 . S
C426 O424 1.247 . S
C426 O425 1.208 . S
C427 O432 1.247 . S
C427 O433 1.208 . S
C428 O420 1.315 . S
C428 O423 1.279 . S
C429 O430 1.315 . S
C429 O431 1.279 . S
O430 Cd422 2.223 . S
O430 C429 1.315 . S
O431 Cd421 2.240 . S
O431 C429 1.279 . S
O432 Cd422 2.297 . S
O432 C427 1.247 . S
O433 Cd422 2.439 . S
O433 C427 1.208 . S
O434 Cd435 2.223 . S
O434 C442 1.315 . S
Cd435 O434 2.223 . S
Cd435 O438 2.297 . S
Cd435 O439 2.439 . S
Cd435 O445 2.240 . S
Cd436 O437 2.240 . S
Cd436 O444 2.223 . S
Cd436 O446 2.297 . S
Cd436 O447 2.439 . S
O437 Cd436 2.240 . S
O437 C442 1.279 . S
O438 Cd435 2.297 . S
O438 C440 1.247 . S
O439 Cd435 2.439 . S
O439 C440 1.208 . S
C440 O438 1.247 . S
C440 O439 1.208 . S
C441 O446 1.247 . S
C441 O447 1.208 . S
C442 O434 1.315 . S
C442 O437 1.279 . S
C443 O444 1.315 . S
C443 O445 1.279 . S
O444 Cd436 2.223 . S
O444 C443 1.315 . S
O445 Cd435 2.240 . S
O445 C443 1.279 . S
O446 Cd436 2.297 . S
O446 C441 1.247 . S
O447 Cd436 2.439 . S
O447 C441 1.208 . S
O448 Cd449 2.223 . S
O448 C456 1.315 . S
Cd449 O448 2.223 . S
Cd449 O452 2.297 . S
Cd449 O453 2.439 . S
Cd449 O459 2.240 . S
Cd450 O451 2.240 . S
Cd450 O458 2.223 . S
Cd450 O460 2.297 . S
Cd450 O461 2.439 . S
O451 Cd450 2.240 . S
O451 C456 1.279 . S
O452 Cd449 2.297 . S
O452 C454 1.247 . S
O453 Cd449 2.439 . S
O453 C454 1.208 . S
C454 O452 1.247 . S
C454 O453 1.208 . S
C455 O460 1.247 . S
C455 O461 1.208 . S
C456 O448 1.315 . S
C456 O451 1.279 . S
C457 O458 1.315 . S
C457 O459 1.279 . S
O458 Cd450 2.223 . S
O458 C457 1.315 . S
O459 Cd449 2.240 . S
O459 C457 1.279 . S
O460 Cd450 2.297 . S
O460 C455 1.247 . S
O461 Cd450 2.439 . S
O461 C455 1.208 . S
O462 Cd463 2.223 . S
O462 C470 1.315 . S
Cd463 O462 2.223 . S
Cd463 O466 2.297 . S
Cd463 O467 2.439 . S
Cd463 O473 2.240 . S
Cd464 O465 2.240 . S
Cd464 O472 2.223 . S
Cd464 O474 2.297 . S
Cd464 O475 2.439 . S
O465 Cd464 2.240 . S
O465 C470 1.279 . S
O466 Cd463 2.297 . S
O466 C468 1.247 . S
O467 Cd463 2.439 . S
O467 C468 1.208 . S
C468 O466 1.247 . S
C468 O467 1.208 . S
C469 O474 1.247 . S
C469 O475 1.208 . S
C470 O462 1.315 . S
C470 O465 1.279 . S
C471 O472 1.315 . S
C471 O473 1.279 . S
O472 Cd464 2.223 . S
O472 C471 1.315 . S
O473 Cd463 2.240 . S
O473 C471 1.279 . S
O474 Cd464 2.297 . S
O474 C469 1.247 . S
O475 Cd464 2.439 . S
O475 C469 1.208 . S
O476 Cd477 2.223 . S
O476 C484 1.315 . S
Cd477 O476 2.223 . S
Cd477 O480 2.297 . S
Cd477 O481 2.439 . S
Cd477 O487 2.240 . S
Cd478 O479 2.240 . S
Cd478 O486 2.223 . S
Cd478 O488 2.297 . S
Cd478 O489 2.439 . S
O479 Cd478 2.240 . S
O479 C484 1.279 . S
O480 Cd477 2.297 . S
O480 C482 1.247 . S
O481 Cd477 2.439 . S
O481 C482 1.208 . S
C482 O480 1.247 . S
C482 O481 1.208 . S
C483 O488 1.247 . S
C483 O489 1.208 . S
C484 O476 1.315 . S
C484 O479 1.279 . S
C485 O486 1.315 . S
C485 O487 1.279 . S
O486 Cd478 2.223 . S
O486 C485 1.315 . S
O487 Cd477 2.240 . S
O487 C485 1.279 . S
O488 Cd478 2.297 . S
O488 C483 1.247 . S
O489 Cd478 2.439 . S
O489 C483 1.208 . S
O490 Cd491 2.223 . S
O490 C498 1.315 . S
Cd491 O490 2.223 . S
Cd491 O494 2.297 . S
Cd491 O495 2.439 . S
Cd491 O501 2.240 . S
Cd492 O493 2.240 . S
Cd492 O500 2.223 . S
Cd492 O502 2.297 . S
Cd492 O503 2.439 . S
O493 Cd492 2.240 . S
O493 C498 1.279 . S
O494 Cd491 2.297 . S
O494 C496 1.247 . S
O495 Cd491 2.439 . S
O495 C496 1.208 . S
C496 O494 1.247 . S
C496 O495 1.208 . S
C497 O502 1.247 . S
C497 O503 1.208 . S
C498 O490 1.315 . S
C498 O493 1.279 . S
C499 O500 1.315 . S
C499 O501 1.279 . S
O500 Cd492 2.223 . S
O500 C499 1.315 . S
O501 Cd491 2.240 . S
O501 C499 1.279 . S
O502 Cd492 2.297 . S
O502 C497 1.247 . S
O503 Cd492 2.439 . S
O503 C497 1.208 . S
O504 Cd505 2.223 . S
O504 C512 1.315 . S
Cd505 O504 2.223 . S
Cd505 O508 2.297 . S
Cd505 O509 2.439 . S
Cd505 O515 2.240 . S
Cd506 O507 2.240 . S
Cd506 O514 2.223 . S
Cd506 O516 2.297 . S
Cd506 O517 2.439 . S
O507 Cd506 2.240 . S
O507 C512 1.279 . S
O508 Cd505 2.297 . S
O508 C510 1.247 . S
O509 Cd505 2.439 . S
O509 C510 1.208 . S
C510 O508 1.247 . S
C510 O509 1.208 . S
C511 O516 1.247 . S
C511 O517 1.208 . S
C512 O504 1.315 . S
C512 O507 1.279 . S
C513 O514 1.315 . S
C513 O515 1.279 . S
O514 Cd506 2.223 . S
O514 C513 1.315 . S
O515 Cd505 2.240 . S
O515 C513 1.279 . S
O516 Cd506 2.297 . S
O516 C511 1.247 . S
O517 Cd506 2.439 . S
O517 C511 1.208 . S
O518 Cd519 2.223 . S
O518 C526 1.315 . S
Cd519 O518 2.223 . S
Cd519 O522 2.297 . S
Cd519 O523 2.439 . S
Cd519 O529 2.240 . S
Cd520 O521 2.240 . S
Cd520 O528 2.223 . S
Cd520 O530 2.297 . S
Cd520 O531 2.439 . S
O521 Cd520 2.240 . S
O521 C526 1.279 . S
O522 Cd519 2.297 . S
O522 C524 1.247 . S
O523 Cd519 2.439 . S
O523 C524 1.208 . S
C524 O522 1.247 . S
C524 O523 1.208 . S
C525 O530 1.247 . S
C525 O531 1.208 . S
C526 O518 1.315 . S
C526 O521 1.279 . S
C527 O528 1.315 . S
C527 O529 1.279 . S
O528 Cd520 2.223 . S
O528 C527 1.315 . S
O529 Cd519 2.240 . S
O529 C527 1.279 . S
O530 Cd520 2.297 . S
O530 C525 1.247 . S
O531 Cd520 2.439 . S
O531 C525 1.208 . S
O532 Cd533 2.223 . S
O532 C540 1.315 . S
Cd533 O532 2.223 . S
Cd533 O536 2.297 . S
Cd533 O537 2.439 . S
Cd533 O543 2.240 . S
Cd534 O535 2.240 . S
Cd534 O542 2.223 . S
Cd534 O544 2.297 . S
Cd534 O545 2.439 . S
O535 Cd534 2.240 . S
O535 C540 1.279 . S
O536 Cd533 2.297 . S
O536 C538 1.247 . S
O537 Cd533 2.439 . S
O537 C538 1.208 . S
C538 O536 1.247 . S
C538 O537 1.208 . S
C539 O544 1.247 . S
C539 O545 1.208 . S
C540 O532 1.315 . S
C540 O535 1.279 . S
C541 O542 1.315 . S
C541 O543 1.279 . S
O542 Cd534 2.223 . S
O542 C541 1.315 . S
O543 Cd533 2.240 . S
O543 C541 1.279 . S
O544 Cd534 2.297 . S
O544 C539 1.247 . S
O545 Cd534 2.439 . S
O545 C539 1.208 . S
O546 Cd547 2.223 . S
O546 C554 1.315 . S
Cd547 O546 2.223 . S
Cd547 O550 2.297 . S
Cd547 O551 2.439 . S
Cd547 O557 2.240 . S
Cd548 O549 2.240 . S
Cd548 O556 2.223 . S
Cd548 O558 2.297 . S
Cd548 O559 2.439 . S
O549 Cd548 2.240 . S
O549 C554 1.279 . S
O550 Cd547 2.297 . S
O550 C552 1.247 . S
O551 Cd547 2.439 . S
O551 C552 1.208 . S
C552 O550 1.247 . S
C552 O551 1.208 . S
C553 O558 1.247 . S
C553 O559 1.208 . S
C554 O546 1.315 . S
C554 O549 1.279 . S
C555 O556 1.315 . S
C555 O557 1.279 . S
O556 Cd548 2.223 . S
O556 C555 1.315 . S
O557 Cd547 2.240 . S
O557 C555 1.279 . S
O558 Cd548 2.297 . S
O558 C553 1.247 . S
O559 Cd548 2.439 . S
O559 C553 1.208 . S
O560 Cd561 2.223 . S
O560 C568 1.315 . S
Cd561 O560 2.223 . S
Cd561 O564 2.297 . S
Cd561 O565 2.439 . S
Cd561 O571 2.240 . S
Cd562 O563 2.240 . S
Cd562 O570 2.223 . S
Cd562 O572 2.297 . S
Cd562 O573 2.439 . S
O563 Cd562 2.240 . S
O563 C568 1.279 . S
O564 Cd561 2.297 . S
O564 C566 1.247 . S
O565 Cd561 2.439 . S
O565 C566 1.208 . S
C566 O564 1.247 . S
C566 O565 1.208 . S
C567 O572 1.247 . S
C567 O573 1.208 . S
C568 O560 1.315 . S
C568 O563 1.279 . S
C569 O570 1.315 . S
C569 O571 1.279 . S
O570 Cd562 2.223 . S
O570 C569 1.315 . S
O571 Cd561 2.240 . S
O571 C569 1.279 . S
O572 Cd562 2.297 . S
O572 C567 1.247 . S
O573 Cd562 2.439 . S
O573 C567 1.208 . S
O574 Cd575 2.223 . S
O574 C582 1.315 . S
Cd575 O574 2.223 . S
Cd575 O578 2.297 . S
Cd575 O579 2.439 . S
Cd575 O585 2.240 . S
Cd576 O577 2.240 . S
Cd576 O584 2.223 . S
Cd576 O586 2.297 . S
Cd576 O587 2.439 . S
O577 Cd576 2.240 . S
O577 C582 1.279 . S
O578 Cd575 2.297 . S
O578 C580 1.247 . S
O579 Cd575 2.439 . S
O579 C580 1.208 . S
C580 O578 1.247 . S
C580 O579 1.208 . S
C581 O586 1.247 . S
C581 O587 1.208 . S
C582 O574 1.315 . S
C582 O577 1.279 . S
C583 O584 1.315 . S
C583 O585 1.279 . S
O584 Cd576 2.223 . S
O584 C583 1.315 . S
O585 Cd575 2.240 . S
O585 C583 1.279 . S
O586 Cd576 2.297 . S
O586 C581 1.247 . S
O587 Cd576 2.439 . S
O587 C581 1.208 . S
O588 Cd589 2.223 . S
O588 C596 1.315 . S
Cd589 O588 2.223 . S
Cd589 O592 2.297 . S
Cd589 O593 2.439 . S
Cd589 O599 2.240 . S
Cd590 O591 2.240 . S
Cd590 O598 2.223 . S
Cd590 O600 2.297 . S
Cd590 O601 2.439 . S
O591 Cd590 2.240 . S
O591 C596 1.279 . S
O592 Cd589 2.297 . S
O592 C594 1.247 . S
O593 Cd589 2.439 . S
O593 C594 1.208 . S
C594 O592 1.247 . S
C594 O593 1.208 . S
C595 O600 1.247 . S
C595 O601 1.208 . S
C596 O588 1.315 . S
C596 O591 1.279 . S
C597 O598 1.315 . S
C597 O599 1.279 . S
O598 Cd590 2.223 . S
O598 C597 1.315 . S
O599 Cd589 2.240 . S
O599 C597 1.279 . S
O600 Cd590 2.297 . S
O600 C595 1.247 . S
O601 Cd590 2.439 . S
O601 C595 1.208 . S
O602 Cd603 2.223 . S
O602 C610 1.315 . S
Cd603 O602 2.223 . S
Cd603 O606 2.297 . S
Cd603 O607 2.439 . S
Cd603 O613 2.240 . S
Cd604 O605 2.240 . S
Cd604 O612 2.223 . S
Cd604 O614 2.297 . S
Cd604 O615 2.439 . S
O605 Cd604 2.240 . S
O605 C610 1.279 . S
O606 Cd603 2.297 . S
O606 C608 1.247 . S
O607 Cd603 2.439 . S
O607 C608 1.208 . S
C608 O606 1.247 . S
C608 O607 1.208 . S
C609 O614 1.247 . S
C609 O615 1.208 . S
C610 O602 1.315 . S
C610 O605 1.279 . S
C611 O612 1.315 . S
C611 O613 1.279 . S
O612 Cd604 2.223 . S
O612 C611 1.315 . S
O613 Cd603 2.240 . S
O613 C611 1.279 . S
O614 Cd604 2.297 . S
O614 C609 1.247 . S
O615 Cd604 2.439 . S
O615 C609 1.208 . S
O616 Cd617 2.223 . S
O616 C624 1.315 . S
Cd617 O616 2.223 . S
Cd617 O620 2.297 . S
Cd617 O621 2.439 . S
Cd617 O627 2.240 . S
Cd618 O619 2.240 . S
Cd618 O626 2.223 . S
Cd618 O628 2.297 . S
Cd618 O629 2.439 . S
O619 Cd618 2.240 . S
O619 C624 1.279 . S
O620 Cd617 2.297 . S
O620 C622 1.247 . S
O621 Cd617 2.439 . S
O621 C622 1.208 . S
C622 O620 1.247 . S
C622 O621 1.208 . S
C623 O628 1.247 . S
C623 O629 1.208 . S
C624 O616 1.315 . S
C624 O619 1.279 . S
C625 O626 1.315 . S
C625 O627 1.279 . S
O626 Cd618 2.223 . S
O626 C625 1.315 . S
O627 Cd617 2.240 . S
O627 C625 1.279 . S
O628 Cd618 2.297 . S
O628 C623 1.247 . S
O629 Cd618 2.439 . S
O629 C623 1.208 . S
O630 Cd631 2.223 . S
O630 C638 1.315 . S
Cd631 O630 2.223 . S
Cd631 O634 2.297 . S
Cd631 O635 2.439 . S
Cd631 O641 2.240 . S
Cd632 O633 2.240 . S
Cd632 O640 2.223 . S
Cd632 O642 2.297 . S
Cd632 O643 2.439 . S
O633 Cd632 2.240 . S
O633 C638 1.279 . S
O634 Cd631 2.297 . S
O634 C636 1.247 . S
O635 Cd631 2.439 . S
O635 C636 1.208 . S
C636 O634 1.247 . S
C636 O635 1.208 . S
C637 O642 1.247 . S
C637 O643 1.208 . S
C638 O630 1.315 . S
C638 O633 1.279 . S
C639 O640 1.315 . S
C639 O641 1.279 . S
O640 Cd632 2.223 . S
O640 C639 1.315 . S
O641 Cd631 2.240 . S
O641 C639 1.279 . S
O642 Cd632 2.297 . S
O642 C637 1.247 . S
O643 Cd632 2.439 . S
O643 C637 1.208 . S
O644 Cd645 2.223 . S
O644 C652 1.315 . S
Cd645 O644 2.223 . S
Cd645 O648 2.297 . S
Cd645 O649 2.439 . S
Cd645 O655 2.240 . S
Cd646 O647 2.240 . S
Cd646 O654 2.223 . S
Cd646 O656 2.297 . S
Cd646 O657 2.439 . S
O647 Cd646 2.240 . S
O647 C652 1.279 . S
O648 Cd645 2.297 . S
O648 C650 1.247 . S
O649 Cd645 2.439 . S
O649 C650 1.208 . S
C650 O648 1.247 . S
C650 O649 1.208 . S
C651 O656 1.247 . S
C651 O657 1.208 . S
C652 O644 1.315 . S
C652 O647 1.279 . S
C653 O654 1.315 . S
C653 O655 1.279 . S
O654 Cd646 2.223 . S
O654 C653 1.315 . S
O655 Cd645 2.240 . S
O655 C653 1.279 . S
O656 Cd646 2.297 . S
O656 C651 1.247 . S
O657 Cd646 2.439 . S
O657 C651 1.208 . S
O658 Cd659 2.223 . S
O658 C666 1.315 . S
Cd659 O658 2.223 . S
Cd659 O662 2.297 . S
Cd659 O663 2.439 . S
Cd659 O669 2.240 . S
Cd660 O661 2.240 . S
Cd660 O668 2.223 . S
Cd660 O670 2.297 . S
Cd660 O671 2.439 . S
O661 Cd660 2.240 . S
O661 C666 1.279 . S
O662 Cd659 2.297 . S
O662 C664 1.247 . S
O663 Cd659 2.439 . S
O663 C664 1.208 . S
C664 O662 1.247 . S
C664 O663 1.208 . S
C665 O670 1.247 . S
C665 O671 1.208 . S
C666 O658 1.315 . S
C666 O661 1.279 . S
C667 O668 1.315 . S
C667 O669 1.279 . S
O668 Cd660 2.223 . S
O668 C667 1.315 . S
O669 Cd659 2.240 . S
O669 C667 1.279 . S
O670 Cd660 2.297 . S
O670 C665 1.247 . S
O671 Cd660 2.439 . S
O671 C665 1.208 . S
H672 C684 0.930 . S
H673 C686 0.930 . S
H674 C687 0.930 . S
H675 C691 0.959 . S
H676 C691 0.959 . S
H677 C691 0.961 . S
H678 C692 0.960 . S
H679 C692 0.961 . S
H680 C692 0.959 . S
H681 C695 0.929 . S
H682 C696 0.931 . S
H683 C698 0.930 . S
C684 H672 0.930 . S
C684 C685 1.399 . S
C684 C689 1.399 . S
C685 C684 1.399 . S
C685 C686 1.376 . S
C686 H673 0.930 . S
C686 C685 1.376 . S
C686 C687 1.388 . S
C687 H674 0.930 . S
C687 C686 1.388 . S
C687 C688 1.390 . S
C688 C687 1.390 . S
C688 C689 1.394 . S
C688 C694 1.465 . S
C689 C684 1.399 . S
C689 C688 1.394 . S
C689 C690 1.516 . S
C690 C689 1.516 . S
C690 C691 1.502 . S
C690 C692 1.561 . S
C690 C693 1.526 . S
C691 H675 0.959 . S
C691 H676 0.959 . S
C691 H677 0.961 . S
C691 C690 1.502 . S
C692 H678 0.960 . S
C692 H679 0.961 . S
C692 H680 0.959 . S
C692 C690 1.561 . S
C693 C690 1.526 . S
C693 C694 1.396 . S
C693 C698 1.390 . S
C694 C688 1.465 . S
C694 C693 1.396 . S
C694 C695 1.399 . S
C695 H681 0.929 . S
C695 C694 1.399 . S
C695 C696 1.385 . S
C696 H682 0.931 . S
C696 C695 1.385 . S
C696 C697 1.389 . S
C697 C696 1.389 . S
C697 C698 1.387 . S
C698 H683 0.930 . S
C698 C693 1.390 . S
C698 C697 1.387 . S
H699 C711 0.930 . S
H700 C713 0.930 . S
H701 C714 0.930 . S
H702 C718 0.959 . S
H703 C718 0.959 . S
H704 C718 0.961 . S
H705 C719 0.960 . S
H706 C719 0.961 . S
H707 C719 0.959 . S
H708 C722 0.929 . S
H709 C723 0.931 . S
H710 C725 0.930 . S
C711 H699 0.930 . S
C711 C712 1.399 . S
C711 C716 1.399 . S
C712 C711 1.399 . S
C712 C713 1.376 . S
C713 H700 0.930 . S
C713 C712 1.376 . S
C713 C714 1.388 . S
C714 H701 0.930 . S
C714 C713 1.388 . S
C714 C715 1.390 . S
C715 C714 1.390 . S
C715 C716 1.394 . S
C715 C721 1.465 . S
C716 C711 1.399 . S
C716 C715 1.394 . S
C716 C717 1.516 . S
C717 C716 1.516 . S
C717 C718 1.502 . S
C717 C719 1.561 . S
C717 C720 1.526 . S
C718 H702 0.959 . S
C718 H703 0.959 . S
C718 H704 0.961 . S
C718 C717 1.502 . S
C719 H705 0.960 . S
C719 H706 0.961 . S
C719 H707 0.959 . S
C719 C717 1.561 . S
C720 C717 1.526 . S
C720 C721 1.396 . S
C720 C725 1.390 . S
C721 C715 1.465 . S
C721 C720 1.396 . S
C721 C722 1.399 . S
C722 H708 0.929 . S
C722 C721 1.399 . S
C722 C723 1.385 . S
C723 H709 0.931 . S
C723 C722 1.385 . S
C723 C724 1.389 . S
C724 C723 1.389 . S
C724 C725 1.387 . S
C725 H710 0.930 . S
C725 C720 1.390 . S
C725 C724 1.387 . S
H726 C738 0.930 . S
H727 C740 0.930 . S
H728 C741 0.930 . S
H729 C745 0.959 . S
H730 C745 0.959 . S
H731 C745 0.961 . S
H732 C746 0.960 . S
H733 C746 0.961 . S
H734 C746 0.959 . S
H735 C749 0.929 . S
H736 C750 0.931 . S
H737 C752 0.930 . S
C738 H726 0.930 . S
C738 C739 1.399 . S
C738 C743 1.399 . S
C739 C738 1.399 . S
C739 C740 1.376 . S
C740 H727 0.930 . S
C740 C739 1.376 . S
C740 C741 1.388 . S
C741 H728 0.930 . S
C741 C740 1.388 . S
C741 C742 1.390 . S
C742 C741 1.390 . S
C742 C743 1.394 . S
C742 C748 1.465 . S
C743 C738 1.399 . S
C743 C742 1.394 . S
C743 C744 1.516 . S
C744 C743 1.516 . S
C744 C745 1.502 . S
C744 C746 1.561 . S
C744 C747 1.526 . S
C745 H729 0.959 . S
C745 H730 0.959 . S
C745 H731 0.961 . S
C745 C744 1.502 . S
C746 H732 0.960 . S
C746 H733 0.961 . S
C746 H734 0.959 . S
C746 C744 1.561 . S
C747 C744 1.526 . S
C747 C748 1.396 . S
C747 C752 1.390 . S
C748 C742 1.465 . S
C748 C747 1.396 . S
C748 C749 1.399 . S
C749 H735 0.929 . S
C749 C748 1.399 . S
C749 C750 1.385 . S
C750 H736 0.931 . S
C750 C749 1.385 . S
C750 C751 1.389 . S
C751 C750 1.389 . S
C751 C752 1.387 . S
C752 H737 0.930 . S
C752 C747 1.390 . S
C752 C751 1.387 . S
H753 C765 0.930 . S
H754 C767 0.930 . S
H755 C768 0.930 . S
H756 C772 0.959 . S
H757 C772 0.959 . S
H758 C772 0.961 . S
H759 C773 0.960 . S
H760 C773 0.961 . S
H761 C773 0.959 . S
H762 C776 0.929 . S
H763 C777 0.931 . S
H764 C779 0.930 . S
C765 H753 0.930 . S
C765 C766 1.399 . S
C765 C770 1.399 . S
C766 C765 1.399 . S
C766 C767 1.376 . S
C767 H754 0.930 . S
C767 C766 1.376 . S
C767 C768 1.388 . S
C768 H755 0.930 . S
C768 C767 1.388 . S
C768 C769 1.390 . S
C769 C768 1.390 . S
C769 C770 1.394 . S
C769 C775 1.465 . S
C770 C765 1.399 . S
C770 C769 1.394 . S
C770 C771 1.516 . S
C771 C770 1.516 . S
C771 C772 1.502 . S
C771 C773 1.561 . S
C771 C774 1.526 . S
C772 H756 0.959 . S
C772 H757 0.959 . S
C772 H758 0.961 . S
C772 C771 1.502 . S
C773 H759 0.960 . S
C773 H760 0.961 . S
C773 H761 0.959 . S
C773 C771 1.561 . S
C774 C771 1.526 . S
C774 C775 1.396 . S
C774 C779 1.390 . S
C775 C769 1.465 . S
C775 C774 1.396 . S
C775 C776 1.399 . S
C776 H762 0.929 . S
C776 C775 1.399 . S
C776 C777 1.385 . S
C777 H763 0.931 . S
C777 C776 1.385 . S
C777 C778 1.389 . S
C778 C777 1.389 . S
C778 C779 1.387 . S
C779 H764 0.930 . S
C779 C774 1.390 . S
C779 C778 1.387 . S
H780 C792 0.930 . S
H781 C794 0.930 . S
H782 C795 0.930 . S
H783 C799 0.959 . S
H784 C799 0.959 . S
H785 C799 0.961 . S
H786 C800 0.960 . S
H787 C800 0.961 . S
H788 C800 0.959 . S
H789 C803 0.929 . S
H790 C804 0.931 . S
H791 C806 0.930 . S
C792 H780 0.930 . S
C792 C793 1.399 . S
C792 C797 1.399 . S
C793 C792 1.399 . S
C793 C794 1.376 . S
C794 H781 0.930 . S
C794 C793 1.376 . S
C794 C795 1.388 . S
C795 H782 0.930 . S
C795 C794 1.388 . S
C795 C796 1.390 . S
C796 C795 1.390 . S
C796 C797 1.394 . S
C796 C802 1.465 . S
C797 C792 1.399 . S
C797 C796 1.394 . S
C797 C798 1.516 . S
C798 C797 1.516 . S
C798 C799 1.502 . S
C798 C800 1.561 . S
C798 C801 1.526 . S
C799 H783 0.959 . S
C799 H784 0.959 . S
C799 H785 0.961 . S
C799 C798 1.502 . S
C800 H786 0.960 . S
C800 H787 0.961 . S
C800 H788 0.959 . S
C800 C798 1.561 . S
C801 C798 1.526 . S
C801 C802 1.396 . S
C801 C806 1.390 . S
C802 C796 1.465 . S
C802 C801 1.396 . S
C802 C803 1.399 . S
C803 H789 0.929 . S
C803 C802 1.399 . S
C803 C804 1.385 . S
C804 H790 0.931 . S
C804 C803 1.385 . S
C804 C805 1.389 . S
C805 C804 1.389 . S
C805 C806 1.387 . S
C806 H791 0.930 . S
C806 C801 1.390 . S
C806 C805 1.387 . S
H807 C819 0.930 . S
H808 C821 0.930 . S
H809 C822 0.930 . S
H810 C826 0.959 . S
H811 C826 0.959 . S
H812 C826 0.961 . S
H813 C827 0.960 . S
H814 C827 0.961 . S
H815 C827 0.959 . S
H816 C830 0.929 . S
H817 C831 0.931 . S
H818 C833 0.930 . S
C819 H807 0.930 . S
C819 C820 1.399 . S
C819 C824 1.399 . S
C820 C819 1.399 . S
C820 C821 1.376 . S
C821 H808 0.930 . S
C821 C820 1.376 . S
C821 C822 1.388 . S
C822 H809 0.930 . S
C822 C821 1.388 . S
C822 C823 1.390 . S
C823 C822 1.390 . S
C823 C824 1.394 . S
C823 C829 1.465 . S
C824 C819 1.399 . S
C824 C823 1.394 . S
C824 C825 1.516 . S
C825 C824 1.516 . S
C825 C826 1.502 . S
C825 C827 1.561 . S
C825 C828 1.526 . S
C826 H810 0.959 . S
C826 H811 0.959 . S
C826 H812 0.961 . S
C826 C825 1.502 . S
C827 H813 0.960 . S
C827 H814 0.961 . S
C827 H815 0.959 . S
C827 C825 1.561 . S
C828 C825 1.526 . S
C828 C829 1.396 . S
C828 C833 1.390 . S
C829 C823 1.465 . S
C829 C828 1.396 . S
C829 C830 1.399 . S
C830 H816 0.929 . S
C830 C829 1.399 . S
C830 C831 1.385 . S
C831 H817 0.931 . S
C831 C830 1.385 . S
C831 C832 1.389 . S
C832 C831 1.389 . S
C832 C833 1.387 . S
C833 H818 0.930 . S
C833 C828 1.390 . S
C833 C832 1.387 . S
H834 C846 0.930 . S
H835 C848 0.930 . S
H836 C849 0.930 . S
H837 C853 0.959 . S
H838 C853 0.959 . S
H839 C853 0.961 . S
H840 C854 0.960 . S
H841 C854 0.961 . S
H842 C854 0.959 . S
H843 C857 0.929 . S
H844 C858 0.931 . S
H845 C860 0.930 . S
C846 H834 0.930 . S
C846 C847 1.399 . S
C846 C851 1.399 . S
C847 C846 1.399 . S
C847 C848 1.376 . S
C848 H835 0.930 . S
C848 C847 1.376 . S
C848 C849 1.388 . S
C849 H836 0.930 . S
C849 C848 1.388 . S
C849 C850 1.390 . S
C850 C849 1.390 . S
C850 C851 1.394 . S
C850 C856 1.465 . S
C851 C846 1.399 . S
C851 C850 1.394 . S
C851 C852 1.516 . S
C852 C851 1.516 . S
C852 C853 1.502 . S
C852 C854 1.561 . S
C852 C855 1.526 . S
C853 H837 0.959 . S
C853 H838 0.959 . S
C853 H839 0.961 . S
C853 C852 1.502 . S
C854 H840 0.960 . S
C854 H841 0.961 . S
C854 H842 0.959 . S
C854 C852 1.561 . S
C855 C852 1.526 . S
C855 C856 1.396 . S
C855 C860 1.390 . S
C856 C850 1.465 . S
C856 C855 1.396 . S
C856 C857 1.399 . S
C857 H843 0.929 . S
C857 C856 1.399 . S
C857 C858 1.385 . S
C858 H844 0.931 . S
C858 C857 1.385 . S
C858 C859 1.389 . S
C859 C858 1.389 . S
C859 C860 1.387 . S
C860 H845 0.930 . S
C860 C855 1.390 . S
C860 C859 1.387 . S
H861 C873 0.930 . S
H862 C875 0.930 . S
H863 C876 0.930 . S
H864 C880 0.959 . S
H865 C880 0.959 . S
H866 C880 0.961 . S
H867 C881 0.960 . S
H868 C881 0.961 . S
H869 C881 0.959 . S
H870 C884 0.929 . S
H871 C885 0.931 . S
H872 C887 0.930 . S
C873 H861 0.930 . S
C873 C874 1.399 . S
C873 C878 1.399 . S
C874 C873 1.399 . S
C874 C875 1.376 . S
C875 H862 0.930 . S
C875 C874 1.376 . S
C875 C876 1.388 . S
C876 H863 0.930 . S
C876 C875 1.388 . S
C876 C877 1.390 . S
C877 C876 1.390 . S
C877 C878 1.394 . S
C877 C883 1.465 . S
C878 C873 1.399 . S
C878 C877 1.394 . S
C878 C879 1.516 . S
C879 C878 1.516 . S
C879 C880 1.502 . S
C879 C881 1.561 . S
C879 C882 1.526 . S
C880 H864 0.959 . S
C880 H865 0.959 . S
C880 H866 0.961 . S
C880 C879 1.502 . S
C881 H867 0.960 . S
C881 H868 0.961 . S
C881 H869 0.959 . S
C881 C879 1.561 . S
C882 C879 1.526 . S
C882 C883 1.396 . S
C882 C887 1.390 . S
C883 C877 1.465 . S
C883 C882 1.396 . S
C883 C884 1.399 . S
C884 H870 0.929 . S
C884 C883 1.399 . S
C884 C885 1.385 . S
C885 H871 0.931 . S
C885 C884 1.385 . S
C885 C886 1.389 . S
C886 C885 1.389 . S
C886 C887 1.387 . S
C887 H872 0.930 . S
C887 C882 1.390 . S
C887 C886 1.387 . S
H888 C900 0.930 . S
H889 C902 0.930 . S
H890 C903 0.930 . S
H891 C907 0.959 . S
H892 C907 0.959 . S
H893 C907 0.961 . S
H894 C908 0.960 . S
H895 C908 0.961 . S
H896 C908 0.959 . S
H897 C911 0.929 . S
H898 C912 0.931 . S
H899 C914 0.930 . S
C900 H888 0.930 . S
C900 C901 1.399 . S
C900 C905 1.399 . S
C901 C900 1.399 . S
C901 C902 1.376 . S
C902 H889 0.930 . S
C902 C901 1.376 . S
C902 C903 1.388 . S
C903 H890 0.930 . S
C903 C902 1.388 . S
C903 C904 1.390 . S
C904 C903 1.390 . S
C904 C905 1.394 . S
C904 C910 1.465 . S
C905 C900 1.399 . S
C905 C904 1.394 . S
C905 C906 1.516 . S
C906 C905 1.516 . S
C906 C907 1.502 . S
C906 C908 1.561 . S
C906 C909 1.526 . S
C907 H891 0.959 . S
C907 H892 0.959 . S
C907 H893 0.961 . S
C907 C906 1.502 . S
C908 H894 0.960 . S
C908 H895 0.961 . S
C908 H896 0.959 . S
C908 C906 1.561 . S
C909 C906 1.526 . S
C909 C910 1.396 . S
C909 C914 1.390 . S
C910 C904 1.465 . S
C910 C909 1.396 . S
C910 C911 1.399 . S
C911 H897 0.929 . S
C911 C910 1.399 . S
C911 C912 1.385 . S
C912 H898 0.931 . S
C912 C911 1.385 . S
C912 C913 1.389 . S
C913 C912 1.389 . S
C913 C914 1.387 . S
C914 H899 0.930 . S
C914 C909 1.390 . S
C914 C913 1.387 . S
H915 C927 0.930 . S
H916 C929 0.930 . S
H917 C930 0.930 . S
H918 C934 0.959 . S
H919 C934 0.959 . S
H920 C934 0.961 . S
H921 C935 0.960 . S
H922 C935 0.961 . S
H923 C935 0.959 . S
H924 C938 0.929 . S
H925 C939 0.931 . S
H926 C941 0.930 . S
C927 H915 0.930 . S
C927 C928 1.399 . S
C927 C932 1.399 . S
C928 C927 1.399 . S
C928 C929 1.376 . S
C929 H916 0.930 . S
C929 C928 1.376 . S
C929 C930 1.388 . S
C930 H917 0.930 . S
C930 C929 1.388 . S
C930 C931 1.390 . S
C931 C930 1.390 . S
C931 C932 1.394 . S
C931 C937 1.465 . S
C932 C927 1.399 . S
C932 C931 1.394 . S
C932 C933 1.516 . S
C933 C932 1.516 . S
C933 C934 1.502 . S
C933 C935 1.561 . S
C933 C936 1.526 . S
C934 H918 0.959 . S
C934 H919 0.959 . S
C934 H920 0.961 . S
C934 C933 1.502 . S
C935 H921 0.960 . S
C935 H922 0.961 . S
C935 H923 0.959 . S
C935 C933 1.561 . S
C936 C933 1.526 . S
C936 C937 1.396 . S
C936 C941 1.390 . S
C937 C931 1.465 . S
C937 C936 1.396 . S
C937 C938 1.399 . S
C938 H924 0.929 . S
C938 C937 1.399 . S
C938 C939 1.385 . S
C939 H925 0.931 . S
C939 C938 1.385 . S
C939 C940 1.389 . S
C940 C939 1.389 . S
C940 C941 1.387 . S
C941 H926 0.930 . S
C941 C936 1.390 . S
C941 C940 1.387 . S
H942 C954 0.930 . S
H943 C956 0.930 . S
H944 C957 0.930 . S
H945 C961 0.959 . S
H946 C961 0.959 . S
H947 C961 0.961 . S
H948 C962 0.960 . S
H949 C962 0.961 . S
H950 C962 0.959 . S
H951 C965 0.929 . S
H952 C966 0.931 . S
H953 C968 0.930 . S
C954 H942 0.930 . S
C954 C955 1.399 . S
C954 C959 1.399 . S
C955 C954 1.399 . S
C955 C956 1.376 . S
C956 H943 0.930 . S
C956 C955 1.376 . S
C956 C957 1.388 . S
C957 H944 0.930 . S
C957 C956 1.388 . S
C957 C958 1.390 . S
C958 C957 1.390 . S
C958 C959 1.394 . S
C958 C964 1.465 . S
C959 C954 1.399 . S
C959 C958 1.394 . S
C959 C960 1.516 . S
C960 C959 1.516 . S
C960 C961 1.502 . S
C960 C962 1.561 . S
C960 C963 1.526 . S
C961 H945 0.959 . S
C961 H946 0.959 . S
C961 H947 0.961 . S
C961 C960 1.502 . S
C962 H948 0.960 . S
C962 H949 0.961 . S
C962 H950 0.959 . S
C962 C960 1.561 . S
C963 C960 1.526 . S
C963 C964 1.396 . S
C963 C968 1.390 . S
C964 C958 1.465 . S
C964 C963 1.396 . S
C964 C965 1.399 . S
C965 H951 0.929 . S
C965 C964 1.399 . S
C965 C966 1.385 . S
C966 H952 0.931 . S
C966 C965 1.385 . S
C966 C967 1.389 . S
C967 C966 1.389 . S
C967 C968 1.387 . S
C968 H953 0.930 . S
C968 C963 1.390 . S
C968 C967 1.387 . S
H969 C981 0.930 . S
H970 C983 0.930 . S
H971 C984 0.930 . S
H972 C988 0.959 . S
H973 C988 0.959 . S
H974 C988 0.961 . S
H975 C989 0.960 . S
H976 C989 0.961 . S
H977 C989 0.959 . S
H978 C992 0.929 . S
H979 C993 0.931 . S
H980 C995 0.930 . S
C981 H969 0.930 . S
C981 C982 1.399 . S
C981 C986 1.399 . S
C982 C981 1.399 . S
C982 C983 1.376 . S
C983 H970 0.930 . S
C983 C982 1.376 . S
C983 C984 1.388 . S
C984 H971 0.930 . S
C984 C983 1.388 . S
C984 C985 1.390 . S
C985 C984 1.390 . S
C985 C986 1.394 . S
C985 C991 1.465 . S
C986 C981 1.399 . S
C986 C985 1.394 . S
C986 C987 1.516 . S
C987 C986 1.516 . S
C987 C988 1.502 . S
C987 C989 1.561 . S
C987 C990 1.526 . S
C988 H972 0.959 . S
C988 H973 0.959 . S
C988 H974 0.961 . S
C988 C987 1.502 . S
C989 H975 0.960 . S
C989 H976 0.961 . S
C989 H977 0.959 . S
C989 C987 1.561 . S
C990 C987 1.526 . S
C990 C991 1.396 . S
C990 C995 1.390 . S
C991 C985 1.465 . S
C991 C990 1.396 . S
C991 C992 1.399 . S
C992 H978 0.929 . S
C992 C991 1.399 . S
C992 C993 1.385 . S
C993 H979 0.931 . S
C993 C992 1.385 . S
C993 C994 1.389 . S
C994 C993 1.389 . S
C994 C995 1.387 . S
C995 H980 0.930 . S
C995 C990 1.390 . S
C995 C994 1.387 . S
H996 C1008 0.930 . S
H997 C1010 0.930 . S
H998 C1011 0.930 . S
H999 C1015 0.959 . S
H1000 C1015 0.959 . S
H1001 C1015 0.961 . S
H1002 C1016 0.960 . S
H1003 C1016 0.961 . S
H1004 C1016 0.959 . S
H1005 C1019 0.929 . S
H1006 C1020 0.931 . S
H1007 C1022 0.930 . S
C1008 H996 0.930 . S
C1008 C1009 1.399 . S
C1008 C1013 1.399 . S
C1009 C1008 1.399 . S
C1009 C1010 1.376 . S
C1010 H997 0.930 . S
C1010 C1009 1.376 . S
C1010 C1011 1.388 . S
C1011 H998 0.930 . S
C1011 C1010 1.388 . S
C1011 C1012 1.390 . S
C1012 C1011 1.390 . S
C1012 C1013 1.394 . S
C1012 C1018 1.465 . S
C1013 C1008 1.399 . S
C1013 C1012 1.394 . S
C1013 C1014 1.516 . S
C1014 C1013 1.516 . S
C1014 C1015 1.502 . S
C1014 C1016 1.561 . S
C1014 C1017 1.526 . S
C1015 H999 0.959 . S
C1015 H1000 0.959 . S
C1015 H1001 0.961 . S
C1015 C1014 1.502 . S
C1016 H1002 0.960 . S
C1016 H1003 0.961 . S
C1016 H1004 0.959 . S
C1016 C1014 1.561 . S
C1017 C1014 1.526 . S
C1017 C1018 1.396 . S
C1017 C1022 1.390 . S
C1018 C1012 1.465 . S
C1018 C1017 1.396 . S
C1018 C1019 1.399 . S
C1019 H1005 0.929 . S
C1019 C1018 1.399 . S
C1019 C1020 1.385 . S
C1020 H1006 0.931 . S
C1020 C1019 1.385 . S
C1020 C1021 1.389 . S
C1021 C1020 1.389 . S
C1021 C1022 1.387 . S
C1022 H1007 0.930 . S
C1022 C1017 1.390 . S
C1022 C1021 1.387 . S
H1023 C1035 0.930 . S
H1024 C1037 0.930 . S
H1025 C1038 0.930 . S
H1026 C1042 0.959 . S
H1027 C1042 0.959 . S
H1028 C1042 0.961 . S
H1029 C1043 0.960 . S
H1030 C1043 0.961 . S
H1031 C1043 0.959 . S
H1032 C1046 0.929 . S
H1033 C1047 0.931 . S
H1034 C1049 0.930 . S
C1035 H1023 0.930 . S
C1035 C1036 1.399 . S
C1035 C1040 1.399 . S
C1036 C1035 1.399 . S
C1036 C1037 1.376 . S
C1037 H1024 0.930 . S
C1037 C1036 1.376 . S
C1037 C1038 1.388 . S
C1038 H1025 0.930 . S
C1038 C1037 1.388 . S
C1038 C1039 1.390 . S
C1039 C1038 1.390 . S
C1039 C1040 1.394 . S
C1039 C1045 1.465 . S
C1040 C1035 1.399 . S
C1040 C1039 1.394 . S
C1040 C1041 1.516 . S
C1041 C1040 1.516 . S
C1041 C1042 1.502 . S
C1041 C1043 1.561 . S
C1041 C1044 1.526 . S
C1042 H1026 0.959 . S
C1042 H1027 0.959 . S
C1042 H1028 0.961 . S
C1042 C1041 1.502 . S
C1043 H1029 0.960 . S
C1043 H1030 0.961 . S
C1043 H1031 0.959 . S
C1043 C1041 1.561 . S
C1044 C1041 1.526 . S
C1044 C1045 1.396 . S
C1044 C1049 1.390 . S
C1045 C1039 1.465 . S
C1045 C1044 1.396 . S
C1045 C1046 1.399 . S
C1046 H1032 0.929 . S
C1046 C1045 1.399 . S
C1046 C1047 1.385 . S
C1047 H1033 0.931 . S
C1047 C1046 1.385 . S
C1047 C1048 1.389 . S
C1048 C1047 1.389 . S
C1048 C1049 1.387 . S
C1049 H1034 0.930 . S
C1049 C1044 1.390 . S
C1049 C1048 1.387 . S
H1050 C1062 0.930 . S
H1051 C1064 0.930 . S
H1052 C1065 0.930 . S
H1053 C1069 0.959 . S
H1054 C1069 0.959 . S
H1055 C1069 0.961 . S
H1056 C1070 0.960 . S
H1057 C1070 0.961 . S
H1058 C1070 0.959 . S
H1059 C1073 0.929 . S
H1060 C1074 0.931 . S
H1061 C1076 0.930 . S
C1062 H1050 0.930 . S
C1062 C1063 1.399 . S
C1062 C1067 1.399 . S
C1063 C1062 1.399 . S
C1063 C1064 1.376 . S
C1064 H1051 0.930 . S
C1064 C1063 1.376 . S
C1064 C1065 1.388 . S
C1065 H1052 0.930 . S
C1065 C1064 1.388 . S
C1065 C1066 1.390 . S
C1066 C1065 1.390 . S
C1066 C1067 1.394 . S
C1066 C1072 1.465 . S
C1067 C1062 1.399 . S
C1067 C1066 1.394 . S
C1067 C1068 1.516 . S
C1068 C1067 1.516 . S
C1068 C1069 1.502 . S
C1068 C1070 1.561 . S
C1068 C1071 1.526 . S
C1069 H1053 0.959 . S
C1069 H1054 0.959 . S
C1069 H1055 0.961 . S
C1069 C1068 1.502 . S
C1070 H1056 0.960 . S
C1070 H1057 0.961 . S
C1070 H1058 0.959 . S
C1070 C1068 1.561 . S
C1071 C1068 1.526 . S
C1071 C1072 1.396 . S
C1071 C1076 1.390 . S
C1072 C1066 1.465 . S
C1072 C1071 1.396 . S
C1072 C1073 1.399 . S
C1073 H1059 0.929 . S
C1073 C1072 1.399 . S
C1073 C1074 1.385 . S
C1074 H1060 0.931 . S
C1074 C1073 1.385 . S
C1074 C1075 1.389 . S
C1075 C1074 1.389 . S
C1075 C1076 1.387 . S
C1076 H1061 0.930 . S
C1076 C1071 1.390 . S
C1076 C1075 1.387 . S
H1077 C1089 0.930 . S
H1078 C1091 0.930 . S
H1079 C1092 0.930 . S
H1080 C1096 0.959 . S
H1081 C1096 0.959 . S
H1082 C1096 0.961 . S
H1083 C1097 0.960 . S
H1084 C1097 0.961 . S
H1085 C1097 0.959 . S
H1086 C1100 0.929 . S
H1087 C1101 0.931 . S
H1088 C1103 0.930 . S
C1089 H1077 0.930 . S
C1089 C1090 1.399 . S
C1089 C1094 1.399 . S
C1090 C1089 1.399 . S
C1090 C1091 1.376 . S
C1091 H1078 0.930 . S
C1091 C1090 1.376 . S
C1091 C1092 1.388 . S
C1092 H1079 0.930 . S
C1092 C1091 1.388 . S
C1092 C1093 1.390 . S
C1093 C1092 1.390 . S
C1093 C1094 1.394 . S
C1093 C1099 1.465 . S
C1094 C1089 1.399 . S
C1094 C1093 1.394 . S
C1094 C1095 1.516 . S
C1095 C1094 1.516 . S
C1095 C1096 1.502 . S
C1095 C1097 1.561 . S
C1095 C1098 1.526 . S
C1096 H1080 0.959 . S
C1096 H1081 0.959 . S
C1096 H1082 0.961 . S
C1096 C1095 1.502 . S
C1097 H1083 0.960 . S
C1097 H1084 0.961 . S
C1097 H1085 0.959 . S
C1097 C1095 1.561 . S
C1098 C1095 1.526 . S
C1098 C1099 1.396 . S
C1098 C1103 1.390 . S
C1099 C1093 1.465 . S
C1099 C1098 1.396 . S
C1099 C1100 1.399 . S
C1100 H1086 0.929 . S
C1100 C1099 1.399 . S
C1100 C1101 1.385 . S
C1101 H1087 0.931 . S
C1101 C1100 1.385 . S
C1101 C1102 1.389 . S
C1102 C1101 1.389 . S
C1102 C1103 1.387 . S
C1103 H1088 0.930 . S
C1103 C1098 1.390 . S
C1103 C1102 1.387 . S
H1104 C1116 0.930 . S
H1105 C1118 0.930 . S
H1106 C1119 0.930 . S
H1107 C1123 0.959 . S
H1108 C1123 0.959 . S
H1109 C1123 0.961 . S
H1110 C1124 0.960 . S
H1111 C1124 0.961 . S
H1112 C1124 0.959 . S
H1113 C1127 0.929 . S
H1114 C1128 0.931 . S
H1115 C1130 0.930 . S
C1116 H1104 0.930 . S
C1116 C1117 1.399 . S
C1116 C1121 1.399 . S
C1117 C1116 1.399 . S
C1117 C1118 1.376 . S
C1118 H1105 0.930 . S
C1118 C1117 1.376 . S
C1118 C1119 1.388 . S
C1119 H1106 0.930 . S
C1119 C1118 1.388 . S
C1119 C1120 1.390 . S
C1120 C1119 1.390 . S
C1120 C1121 1.394 . S
C1120 C1126 1.465 . S
C1121 C1116 1.399 . S
C1121 C1120 1.394 . S
C1121 C1122 1.516 . S
C1122 C1121 1.516 . S
C1122 C1123 1.502 . S
C1122 C1124 1.561 . S
C1122 C1125 1.526 . S
C1123 H1107 0.959 . S
C1123 H1108 0.959 . S
C1123 H1109 0.961 . S
C1123 C1122 1.502 . S
C1124 H1110 0.960 . S
C1124 H1111 0.961 . S
C1124 H1112 0.959 . S
C1124 C1122 1.561 . S
C1125 C1122 1.526 . S
C1125 C1126 1.396 . S
C1125 C1130 1.390 . S
C1126 C1120 1.465 . S
C1126 C1125 1.396 . S
C1126 C1127 1.399 . S
C1127 H1113 0.929 . S
C1127 C1126 1.399 . S
C1127 C1128 1.385 . S
C1128 H1114 0.931 . S
C1128 C1127 1.385 . S
C1128 C1129 1.389 . S
C1129 C1128 1.389 . S
C1129 C1130 1.387 . S
C1130 H1115 0.930 . S
C1130 C1125 1.390 . S
C1130 C1129 1.387 . S
H1131 C1143 0.930 . S
H1132 C1145 0.930 . S
H1133 C1146 0.930 . S
H1134 C1150 0.959 . S
H1135 C1150 0.959 . S
H1136 C1150 0.961 . S
H1137 C1151 0.960 . S
H1138 C1151 0.961 . S
H1139 C1151 0.959 . S
H1140 C1154 0.929 . S
H1141 C1155 0.931 . S
H1142 C1157 0.930 . S
C1143 H1131 0.930 . S
C1143 C1144 1.399 . S
C1143 C1148 1.399 . S
C1144 C1143 1.399 . S
C1144 C1145 1.376 . S
C1145 H1132 0.930 . S
C1145 C1144 1.376 . S
C1145 C1146 1.388 . S
C1146 H1133 0.930 . S
C1146 C1145 1.388 . S
C1146 C1147 1.390 . S
C1147 C1146 1.390 . S
C1147 C1148 1.394 . S
C1147 C1153 1.465 . S
C1148 C1143 1.399 . S
C1148 C1147 1.394 . S
C1148 C1149 1.516 . S
C1149 C1148 1.516 . S
C1149 C1150 1.502 . S
C1149 C1151 1.561 . S
C1149 C1152 1.526 . S
C1150 H1134 0.959 . S
C1150 H1135 0.959 . S
C1150 H1136 0.961 . S
C1150 C1149 1.502 . S
C1151 H1137 0.960 . S
C1151 H1138 0.961 . S
C1151 H1139 0.959 . S
C1151 C1149 1.561 . S
C1152 C1149 1.526 . S
C1152 C1153 1.396 . S
C1152 C1157 1.390 . S
C1153 C1147 1.465 . S
C1153 C1152 1.396 . S
C1153 C1154 1.399 . S
C1154 H1140 0.929 . S
C1154 C1153 1.399 . S
C1154 C1155 1.385 . S
C1155 H1141 0.931 . S
C1155 C1154 1.385 . S
C1155 C1156 1.389 . S
C1156 C1155 1.389 . S
C1156 C1157 1.387 . S
C1157 H1142 0.930 . S
C1157 C1152 1.390 . S
C1157 C1156 1.387 . S
H1158 C1170 0.930 . S
H1159 C1172 0.930 . S
H1160 C1173 0.930 . S
H1161 C1177 0.959 . S
H1162 C1177 0.959 . S
H1163 C1177 0.961 . S
H1164 C1178 0.960 . S
H1165 C1178 0.961 . S
H1166 C1178 0.959 . S
H1167 C1181 0.929 . S
H1168 C1182 0.931 . S
H1169 C1184 0.930 . S
C1170 H1158 0.930 . S
C1170 C1171 1.399 . S
C1170 C1175 1.399 . S
C1171 C1170 1.399 . S
C1171 C1172 1.376 . S
C1172 H1159 0.930 . S
C1172 C1171 1.376 . S
C1172 C1173 1.388 . S
C1173 H1160 0.930 . S
C1173 C1172 1.388 . S
C1173 C1174 1.390 . S
C1174 C1173 1.390 . S
C1174 C1175 1.394 . S
C1174 C1180 1.465 . S
C1175 C1170 1.399 . S
C1175 C1174 1.394 . S
C1175 C1176 1.516 . S
C1176 C1175 1.516 . S
C1176 C1177 1.502 . S
C1176 C1178 1.561 . S
C1176 C1179 1.526 . S
C1177 H1161 0.959 . S
C1177 H1162 0.959 . S
C1177 H1163 0.961 . S
C1177 C1176 1.502 . S
C1178 H1164 0.960 . S
C1178 H1165 0.961 . S
C1178 H1166 0.959 . S
C1178 C1176 1.561 . S
C1179 C1176 1.526 . S
C1179 C1180 1.396 . S
C1179 C1184 1.390 . S
C1180 C1174 1.465 . S
C1180 C1179 1.396 . S
C1180 C1181 1.399 . S
C1181 H1167 0.929 . S
C1181 C1180 1.399 . S
C1181 C1182 1.385 . S
C1182 H1168 0.931 . S
C1182 C1181 1.385 . S
C1182 C1183 1.389 . S
C1183 C1182 1.389 . S
C1183 C1184 1.387 . S
C1184 H1169 0.930 . S
C1184 C1179 1.390 . S
C1184 C1183 1.387 . S
H1185 C1197 0.930 . S
H1186 C1199 0.930 . S
H1187 C1200 0.930 . S
H1188 C1204 0.959 . S
H1189 C1204 0.959 . S
H1190 C1204 0.961 . S
H1191 C1205 0.960 . S
H1192 C1205 0.961 . S
H1193 C1205 0.959 . S
H1194 C1208 0.929 . S
H1195 C1209 0.931 . S
H1196 C1211 0.930 . S
C1197 H1185 0.930 . S
C1197 C1198 1.399 . S
C1197 C1202 1.399 . S
C1198 C1197 1.399 . S
C1198 C1199 1.376 . S
C1199 H1186 0.930 . S
C1199 C1198 1.376 . S
C1199 C1200 1.388 . S
C1200 H1187 0.930 . S
C1200 C1199 1.388 . S
C1200 C1201 1.390 . S
C1201 C1200 1.390 . S
C1201 C1202 1.394 . S
C1201 C1207 1.465 . S
C1202 C1197 1.399 . S
C1202 C1201 1.394 . S
C1202 C1203 1.516 . S
C1203 C1202 1.516 . S
C1203 C1204 1.502 . S
C1203 C1205 1.561 . S
C1203 C1206 1.526 . S
C1204 H1188 0.959 . S
C1204 H1189 0.959 . S
C1204 H1190 0.961 . S
C1204 C1203 1.502 . S
C1205 H1191 0.960 . S
C1205 H1192 0.961 . S
C1205 H1193 0.959 . S
C1205 C1203 1.561 . S
C1206 C1203 1.526 . S
C1206 C1207 1.396 . S
C1206 C1211 1.390 . S
C1207 C1201 1.465 . S
C1207 C1206 1.396 . S
C1207 C1208 1.399 . S
C1208 H1194 0.929 . S
C1208 C1207 1.399 . S
C1208 C1209 1.385 . S
C1209 H1195 0.931 . S
C1209 C1208 1.385 . S
C1209 C1210 1.389 . S
C1210 C1209 1.389 . S
C1210 C1211 1.387 . S
C1211 H1196 0.930 . S
C1211 C1206 1.390 . S
C1211 C1210 1.387 . S
H1212 C1224 0.930 . S
H1213 C1226 0.930 . S
H1214 C1227 0.930 . S
H1215 C1231 0.959 . S
H1216 C1231 0.959 . S
H1217 C1231 0.961 . S
H1218 C1232 0.960 . S
H1219 C1232 0.961 . S
H1220 C1232 0.959 . S
H1221 C1235 0.929 . S
H1222 C1236 0.931 . S
H1223 C1238 0.930 . S
C1224 H1212 0.930 . S
C1224 C1225 1.399 . S
C1224 C1229 1.399 . S
C1225 C1224 1.399 . S
C1225 C1226 1.376 . S
C1226 H1213 0.930 . S
C1226 C1225 1.376 . S
C1226 C1227 1.388 . S
C1227 H1214 0.930 . S
C1227 C1226 1.388 . S
C1227 C1228 1.390 . S
C1228 C1227 1.390 . S
C1228 C1229 1.394 . S
C1228 C1234 1.465 . S
C1229 C1224 1.399 . S
C1229 C1228 1.394 . S
C1229 C1230 1.516 . S
C1230 C1229 1.516 . S
C1230 C1231 1.502 . S
C1230 C1232 1.561 . S
C1230 C1233 1.526 . S
C1231 H1215 0.959 . S
C1231 H1216 0.959 . S
C1231 H1217 0.961 . S
C1231 C1230 1.502 . S
C1232 H1218 0.960 . S
C1232 H1219 0.961 . S
C1232 H1220 0.959 . S
C1232 C1230 1.561 . S
C1233 C1230 1.526 . S
C1233 C1234 1.396 . S
C1233 C1238 1.390 . S
C1234 C1228 1.465 . S
C1234 C1233 1.396 . S
C1234 C1235 1.399 . S
C1235 H1221 0.929 . S
C1235 C1234 1.399 . S
C1235 C1236 1.385 . S
C1236 H1222 0.931 . S
C1236 C1235 1.385 . S
C1236 C1237 1.389 . S
C1237 C1236 1.389 . S
C1237 C1238 1.387 . S
C1238 H1223 0.930 . S
C1238 C1233 1.390 . S
C1238 C1237 1.387 . S
H1239 C1251 0.930 . S
H1240 C1253 0.930 . S
H1241 C1254 0.930 . S
H1242 C1258 0.959 . S
H1243 C1258 0.959 . S
H1244 C1258 0.961 . S
H1245 C1259 0.960 . S
H1246 C1259 0.961 . S
H1247 C1259 0.959 . S
H1248 C1262 0.929 . S
H1249 C1263 0.931 . S
H1250 C1265 0.930 . S
C1251 H1239 0.930 . S
C1251 C1252 1.399 . S
C1251 C1256 1.399 . S
C1252 C1251 1.399 . S
C1252 C1253 1.376 . S
C1253 H1240 0.930 . S
C1253 C1252 1.376 . S
C1253 C1254 1.388 . S
C1254 H1241 0.930 . S
C1254 C1253 1.388 . S
C1254 C1255 1.390 . S
C1255 C1254 1.390 . S
C1255 C1256 1.394 . S
C1255 C1261 1.465 . S
C1256 C1251 1.399 . S
C1256 C1255 1.394 . S
C1256 C1257 1.516 . S
C1257 C1256 1.516 . S
C1257 C1258 1.502 . S
C1257 C1259 1.561 . S
C1257 C1260 1.526 . S
C1258 H1242 0.959 . S
C1258 H1243 0.959 . S
C1258 H1244 0.961 . S
C1258 C1257 1.502 . S
C1259 H1245 0.960 . S
C1259 H1246 0.961 . S
C1259 H1247 0.959 . S
C1259 C1257 1.561 . S
C1260 C1257 1.526 . S
C1260 C1261 1.396 . S
C1260 C1265 1.390 . S
C1261 C1255 1.465 . S
C1261 C1260 1.396 . S
C1261 C1262 1.399 . S
C1262 H1248 0.929 . S
C1262 C1261 1.399 . S
C1262 C1263 1.385 . S
C1263 H1249 0.931 . S
C1263 C1262 1.385 . S
C1263 C1264 1.389 . S
C1264 C1263 1.389 . S
C1264 C1265 1.387 . S
C1265 H1250 0.930 . S
C1265 C1260 1.390 . S
C1265 C1264 1.387 . S
H1266 C1278 0.930 . S
H1267 C1280 0.930 . S
H1268 C1281 0.930 . S
H1269 C1285 0.959 . S
H1270 C1285 0.959 . S
H1271 C1285 0.961 . S
H1272 C1286 0.960 . S
H1273 C1286 0.961 . S
H1274 C1286 0.959 . S
H1275 C1289 0.929 . S
H1276 C1290 0.931 . S
H1277 C1292 0.930 . S
C1278 H1266 0.930 . S
C1278 C1279 1.399 . S
C1278 C1283 1.399 . S
C1279 C1278 1.399 . S
C1279 C1280 1.376 . S
C1280 H1267 0.930 . S
C1280 C1279 1.376 . S
C1280 C1281 1.388 . S
C1281 H1268 0.930 . S
C1281 C1280 1.388 . S
C1281 C1282 1.390 . S
C1282 C1281 1.390 . S
C1282 C1283 1.394 . S
C1282 C1288 1.465 . S
C1283 C1278 1.399 . S
C1283 C1282 1.394 . S
C1283 C1284 1.516 . S
C1284 C1283 1.516 . S
C1284 C1285 1.502 . S
C1284 C1286 1.561 . S
C1284 C1287 1.526 . S
C1285 H1269 0.959 . S
C1285 H1270 0.959 . S
C1285 H1271 0.961 . S
C1285 C1284 1.502 . S
C1286 H1272 0.960 . S
C1286 H1273 0.961 . S
C1286 H1274 0.959 . S
C1286 C1284 1.561 . S
C1287 C1284 1.526 . S
C1287 C1288 1.396 . S
C1287 C1292 1.390 . S
C1288 C1282 1.465 . S
C1288 C1287 1.396 . S
C1288 C1289 1.399 . S
C1289 H1275 0.929 . S
C1289 C1288 1.399 . S
C1289 C1290 1.385 . S
C1290 H1276 0.931 . S
C1290 C1289 1.385 . S
C1290 C1291 1.389 . S
C1291 C1290 1.389 . S
C1291 C1292 1.387 . S
C1292 H1277 0.930 . S
C1292 C1287 1.390 . S
C1292 C1291 1.387 . S
H1293 C1305 0.930 . S
H1294 C1307 0.930 . S
H1295 C1308 0.930 . S
H1296 C1312 0.959 . S
H1297 C1312 0.959 . S
H1298 C1312 0.961 . S
H1299 C1313 0.960 . S
H1300 C1313 0.961 . S
H1301 C1313 0.959 . S
H1302 C1316 0.929 . S
H1303 C1317 0.931 . S
H1304 C1319 0.930 . S
C1305 H1293 0.930 . S
C1305 C1306 1.399 . S
C1305 C1310 1.399 . S
C1306 C1305 1.399 . S
C1306 C1307 1.376 . S
C1307 H1294 0.930 . S
C1307 C1306 1.376 . S
C1307 C1308 1.388 . S
C1308 H1295 0.930 . S
C1308 C1307 1.388 . S
C1308 C1309 1.390 . S
C1309 C1308 1.390 . S
C1309 C1310 1.394 . S
C1309 C1315 1.465 . S
C1310 C1305 1.399 . S
C1310 C1309 1.394 . S
C1310 C1311 1.516 . S
C1311 C1310 1.516 . S
C1311 C1312 1.502 . S
C1311 C1313 1.561 . S
C1311 C1314 1.526 . S
C1312 H1296 0.959 . S
C1312 H1297 0.959 . S
C1312 H1298 0.961 . S
C1312 C1311 1.502 . S
C1313 H1299 0.960 . S
C1313 H1300 0.961 . S
C1313 H1301 0.959 . S
C1313 C1311 1.561 . S
C1314 C1311 1.526 . S
C1314 C1315 1.396 . S
C1314 C1319 1.390 . S
C1315 C1309 1.465 . S
C1315 C1314 1.396 . S
C1315 C1316 1.399 . S
C1316 H1302 0.929 . S
C1316 C1315 1.399 . S
C1316 C1317 1.385 . S
C1317 H1303 0.931 . S
C1317 C1316 1.385 . S
C1317 C1318 1.389 . S
C1318 C1317 1.389 . S
C1318 C1319 1.387 . S
C1319 H1304 0.930 . S
C1319 C1314 1.390 . S
C1319 C1318 1.387 . S
H1320 C1332 0.930 . S
H1321 C1334 0.930 . S
H1322 C1335 0.930 . S
H1323 C1339 0.959 . S
H1324 C1339 0.959 . S
H1325 C1339 0.961 . S
H1326 C1340 0.960 . S
H1327 C1340 0.961 . S
H1328 C1340 0.959 . S
H1329 C1343 0.929 . S
H1330 C1344 0.931 . S
H1331 C1346 0.930 . S
C1332 H1320 0.930 . S
C1332 C1333 1.399 . S
C1332 C1337 1.399 . S
C1333 C1332 1.399 . S
C1333 C1334 1.376 . S
C1334 H1321 0.930 . S
C1334 C1333 1.376 . S
C1334 C1335 1.388 . S
C1335 H1322 0.930 . S
C1335 C1334 1.388 . S
C1335 C1336 1.390 . S
C1336 C1335 1.390 . S
C1336 C1337 1.394 . S
C1336 C1342 1.465 . S
C1337 C1332 1.399 . S
C1337 C1336 1.394 . S
C1337 C1338 1.516 . S
C1338 C1337 1.516 . S
C1338 C1339 1.502 . S
C1338 C1340 1.561 . S
C1338 C1341 1.526 . S
C1339 H1323 0.959 . S
C1339 H1324 0.959 . S
C1339 H1325 0.961 . S
C1339 C1338 1.502 . S
C1340 H1326 0.960 . S
C1340 H1327 0.961 . S
C1340 H1328 0.959 . S
C1340 C1338 1.561 . S
C1341 C1338 1.526 . S
C1341 C1342 1.396 . S
C1341 C1346 1.390 . S
C1342 C1336 1.465 . S
C1342 C1341 1.396 . S
C1342 C1343 1.399 . S
C1343 H1329 0.929 . S
C1343 C1342 1.399 . S
C1343 C1344 1.385 . S
C1344 H1330 0.931 . S
C1344 C1343 1.385 . S
C1344 C1345 1.389 . S
C1345 C1344 1.389 . S
C1345 C1346 1.387 . S
C1346 H1331 0.930 . S
C1346 C1341 1.390 . S
C1346 C1345 1.387 . S
H1347 C1359 0.930 . S
H1348 C1361 0.930 . S
H1349 C1362 0.930 . S
H1350 C1366 0.959 . S
H1351 C1366 0.959 . S
H1352 C1366 0.961 . S
H1353 C1367 0.960 . S
H1354 C1367 0.961 . S
H1355 C1367 0.959 . S
H1356 C1370 0.929 . S
H1357 C1371 0.931 . S
H1358 C1373 0.930 . S
C1359 H1347 0.930 . S
C1359 C1360 1.399 . S
C1359 C1364 1.399 . S
C1360 C1359 1.399 . S
C1360 C1361 1.376 . S
C1361 H1348 0.930 . S
C1361 C1360 1.376 . S
C1361 C1362 1.388 . S
C1362 H1349 0.930 . S
C1362 C1361 1.388 . S
C1362 C1363 1.390 . S
C1363 C1362 1.390 . S
C1363 C1364 1.394 . S
C1363 C1369 1.465 . S
C1364 C1359 1.399 . S
C1364 C1363 1.394 . S
C1364 C1365 1.516 . S
C1365 C1364 1.516 . S
C1365 C1366 1.502 . S
C1365 C1367 1.561 . S
C1365 C1368 1.526 . S
C1366 H1350 0.959 . S
C1366 H1351 0.959 . S
C1366 H1352 0.961 . S
C1366 C1365 1.502 . S
C1367 H1353 0.960 . S
C1367 H1354 0.961 . S
C1367 H1355 0.959 . S
C1367 C1365 1.561 . S
C1368 C1365 1.526 . S
C1368 C1369 1.396 . S
C1368 C1373 1.390 . S
C1369 C1363 1.465 . S
C1369 C1368 1.396 . S
C1369 C1370 1.399 . S
C1370 H1356 0.929 . S
C1370 C1369 1.399 . S
C1370 C1371 1.385 . S
C1371 H1357 0.931 . S
C1371 C1370 1.385 . S
C1371 C1372 1.389 . S
C1372 C1371 1.389 . S
C1372 C1373 1.387 . S
C1373 H1358 0.930 . S
C1373 C1368 1.390 . S
C1373 C1372 1.387 . S
H1374 C1386 0.930 . S
H1375 C1388 0.930 . S
H1376 C1389 0.930 . S
H1377 C1393 0.959 . S
H1378 C1393 0.959 . S
H1379 C1393 0.961 . S
H1380 C1394 0.960 . S
H1381 C1394 0.961 . S
H1382 C1394 0.959 . S
H1383 C1397 0.929 . S
H1384 C1398 0.931 . S
H1385 C1400 0.930 . S
C1386 H1374 0.930 . S
C1386 C1387 1.399 . S
C1386 C1391 1.399 . S
C1387 C1386 1.399 . S
C1387 C1388 1.376 . S
C1388 H1375 0.930 . S
C1388 C1387 1.376 . S
C1388 C1389 1.388 . S
C1389 H1376 0.930 . S
C1389 C1388 1.388 . S
C1389 C1390 1.390 . S
C1390 C1389 1.390 . S
C1390 C1391 1.394 . S
C1390 C1396 1.465 . S
C1391 C1386 1.399 . S
C1391 C1390 1.394 . S
C1391 C1392 1.516 . S
C1392 C1391 1.516 . S
C1392 C1393 1.502 . S
C1392 C1394 1.561 . S
C1392 C1395 1.526 . S
C1393 H1377 0.959 . S
C1393 H1378 0.959 . S
C1393 H1379 0.961 . S
C1393 C1392 1.502 . S
C1394 H1380 0.960 . S
C1394 H1381 0.961 . S
C1394 H1382 0.959 . S
C1394 C1392 1.561 . S
C1395 C1392 1.526 . S
C1395 C1396 1.396 . S
C1395 C1400 1.390 . S
C1396 C1390 1.465 . S
C1396 C1395 1.396 . S
C1396 C1397 1.399 . S
C1397 H1383 0.929 . S
C1397 C1396 1.399 . S
C1397 C1398 1.385 . S
C1398 H1384 0.931 . S
C1398 C1397 1.385 . S
C1398 C1399 1.389 . S
C1399 C1398 1.389 . S
C1399 C1400 1.387 . S
C1400 H1385 0.930 . S
C1400 C1395 1.390 . S
C1400 C1399 1.387 . S
H1401 C1413 0.930 . S
H1402 C1415 0.930 . S
H1403 C1416 0.930 . S
H1404 C1420 0.959 . S
H1405 C1420 0.959 . S
H1406 C1420 0.961 . S
H1407 C1421 0.960 . S
H1408 C1421 0.961 . S
H1409 C1421 0.959 . S
H1410 C1424 0.929 . S
H1411 C1425 0.931 . S
H1412 C1427 0.930 . S
C1413 H1401 0.930 . S
C1413 C1414 1.399 . S
C1413 C1418 1.399 . S
C1414 C1413 1.399 . S
C1414 C1415 1.376 . S
C1415 H1402 0.930 . S
C1415 C1414 1.376 . S
C1415 C1416 1.388 . S
C1416 H1403 0.930 . S
C1416 C1415 1.388 . S
C1416 C1417 1.390 . S
C1417 C1416 1.390 . S
C1417 C1418 1.394 . S
C1417 C1423 1.465 . S
C1418 C1413 1.399 . S
C1418 C1417 1.394 . S
C1418 C1419 1.516 . S
C1419 C1418 1.516 . S
C1419 C1420 1.502 . S
C1419 C1421 1.561 . S
C1419 C1422 1.526 . S
C1420 H1404 0.959 . S
C1420 H1405 0.959 . S
C1420 H1406 0.961 . S
C1420 C1419 1.502 . S
C1421 H1407 0.960 . S
C1421 H1408 0.961 . S
C1421 H1409 0.959 . S
C1421 C1419 1.561 . S
C1422 C1419 1.526 . S
C1422 C1423 1.396 . S
C1422 C1427 1.390 . S
C1423 C1417 1.465 . S
C1423 C1422 1.396 . S
C1423 C1424 1.399 . S
C1424 H1410 0.929 . S
C1424 C1423 1.399 . S
C1424 C1425 1.385 . S
C1425 H1411 0.931 . S
C1425 C1424 1.385 . S
C1425 C1426 1.389 . S
C1426 C1425 1.389 . S
C1426 C1427 1.387 . S
C1427 H1412 0.930 . S
C1427 C1422 1.390 . S
C1427 C1426 1.387 . S
H1428 C1440 0.930 . S
H1429 C1442 0.930 . S
H1430 C1443 0.930 . S
H1431 C1447 0.959 . S
H1432 C1447 0.959 . S
H1433 C1447 0.961 . S
H1434 C1448 0.960 . S
H1435 C1448 0.961 . S
H1436 C1448 0.959 . S
H1437 C1451 0.929 . S
H1438 C1452 0.931 . S
H1439 C1454 0.930 . S
C1440 H1428 0.930 . S
C1440 C1441 1.399 . S
C1440 C1445 1.399 . S
C1441 C1440 1.399 . S
C1441 C1442 1.376 . S
C1442 H1429 0.930 . S
C1442 C1441 1.376 . S
C1442 C1443 1.388 . S
C1443 H1430 0.930 . S
C1443 C1442 1.388 . S
C1443 C1444 1.390 . S
C1444 C1443 1.390 . S
C1444 C1445 1.394 . S
C1444 C1450 1.465 . S
C1445 C1440 1.399 . S
C1445 C1444 1.394 . S
C1445 C1446 1.516 . S
C1446 C1445 1.516 . S
C1446 C1447 1.502 . S
C1446 C1448 1.561 . S
C1446 C1449 1.526 . S
C1447 H1431 0.959 . S
C1447 H1432 0.959 . S
C1447 H1433 0.961 . S
C1447 C1446 1.502 . S
C1448 H1434 0.960 . S
C1448 H1435 0.961 . S
C1448 H1436 0.959 . S
C1448 C1446 1.561 . S
C1449 C1446 1.526 . S
C1449 C1450 1.396 . S
C1449 C1454 1.390 . S
C1450 C1444 1.465 . S
C1450 C1449 1.396 . S
C1450 C1451 1.399 . S
C1451 H1437 0.929 . S
C1451 C1450 1.399 . S
C1451 C1452 1.385 . S
C1452 H1438 0.931 . S
C1452 C1451 1.385 . S
C1452 C1453 1.389 . S
C1453 C1452 1.389 . S
C1453 C1454 1.387 . S
C1454 H1439 0.930 . S
C1454 C1449 1.390 . S
C1454 C1453 1.387 . S
H1455 C1467 0.930 . S
H1456 C1469 0.930 . S
H1457 C1470 0.930 . S
H1458 C1474 0.959 . S
H1459 C1474 0.959 . S
H1460 C1474 0.961 . S
H1461 C1475 0.960 . S
H1462 C1475 0.961 . S
H1463 C1475 0.959 . S
H1464 C1478 0.929 . S
H1465 C1479 0.931 . S
H1466 C1481 0.930 . S
C1467 H1455 0.930 . S
C1467 C1468 1.399 . S
C1467 C1472 1.399 . S
C1468 C1467 1.399 . S
C1468 C1469 1.376 . S
C1469 H1456 0.930 . S
C1469 C1468 1.376 . S
C1469 C1470 1.388 . S
C1470 H1457 0.930 . S
C1470 C1469 1.388 . S
C1470 C1471 1.390 . S
C1471 C1470 1.390 . S
C1471 C1472 1.394 . S
C1471 C1477 1.465 . S
C1472 C1467 1.399 . S
C1472 C1471 1.394 . S
C1472 C1473 1.516 . S
C1473 C1472 1.516 . S
C1473 C1474 1.502 . S
C1473 C1475 1.561 . S
C1473 C1476 1.526 . S
C1474 H1458 0.959 . S
C1474 H1459 0.959 . S
C1474 H1460 0.961 . S
C1474 C1473 1.502 . S
C1475 H1461 0.960 . S
C1475 H1462 0.961 . S
C1475 H1463 0.959 . S
C1475 C1473 1.561 . S
C1476 C1473 1.526 . S
C1476 C1477 1.396 . S
C1476 C1481 1.390 . S
C1477 C1471 1.465 . S
C1477 C1476 1.396 . S
C1477 C1478 1.399 . S
C1478 H1464 0.929 . S
C1478 C1477 1.399 . S
C1478 C1479 1.385 . S
C1479 H1465 0.931 . S
C1479 C1478 1.385 . S
C1479 C1480 1.389 . S
C1480 C1479 1.389 . S
C1480 C1481 1.387 . S
C1481 H1466 0.930 . S
C1481 C1476 1.390 . S
C1481 C1480 1.387 . S
H1482 C1494 0.930 . S
H1483 C1496 0.930 . S
H1484 C1497 0.930 . S
H1485 C1501 0.959 . S
H1486 C1501 0.959 . S
H1487 C1501 0.961 . S
H1488 C1502 0.960 . S
H1489 C1502 0.961 . S
H1490 C1502 0.959 . S
H1491 C1505 0.929 . S
H1492 C1506 0.931 . S
H1493 C1508 0.930 . S
C1494 H1482 0.930 . S
C1494 C1495 1.399 . S
C1494 C1499 1.399 . S
C1495 C1494 1.399 . S
C1495 C1496 1.376 . S
C1496 H1483 0.930 . S
C1496 C1495 1.376 . S
C1496 C1497 1.388 . S
C1497 H1484 0.930 . S
C1497 C1496 1.388 . S
C1497 C1498 1.390 . S
C1498 C1497 1.390 . S
C1498 C1499 1.394 . S
C1498 C1504 1.465 . S
C1499 C1494 1.399 . S
C1499 C1498 1.394 . S
C1499 C1500 1.516 . S
C1500 C1499 1.516 . S
C1500 C1501 1.502 . S
C1500 C1502 1.561 . S
C1500 C1503 1.526 . S
C1501 H1485 0.959 . S
C1501 H1486 0.959 . S
C1501 H1487 0.961 . S
C1501 C1500 1.502 . S
C1502 H1488 0.960 . S
C1502 H1489 0.961 . S
C1502 H1490 0.959 . S
C1502 C1500 1.561 . S
C1503 C1500 1.526 . S
C1503 C1504 1.396 . S
C1503 C1508 1.390 . S
C1504 C1498 1.465 . S
C1504 C1503 1.396 . S
C1504 C1505 1.399 . S
C1505 H1491 0.929 . S
C1505 C1504 1.399 . S
C1505 C1506 1.385 . S
C1506 H1492 0.931 . S
C1506 C1505 1.385 . S
C1506 C1507 1.389 . S
C1507 C1506 1.389 . S
C1507 C1508 1.387 . S
C1508 H1493 0.930 . S
C1508 C1503 1.390 . S
C1508 C1507 1.387 . S
H1509 C1521 0.930 . S
H1510 C1523 0.930 . S
H1511 C1524 0.930 . S
H1512 C1528 0.959 . S
H1513 C1528 0.959 . S
H1514 C1528 0.961 . S
H1515 C1529 0.960 . S
H1516 C1529 0.961 . S
H1517 C1529 0.959 . S
H1518 C1532 0.929 . S
H1519 C1533 0.931 . S
H1520 C1535 0.930 . S
C1521 H1509 0.930 . S
C1521 C1522 1.399 . S
C1521 C1526 1.399 . S
C1522 C1521 1.399 . S
C1522 C1523 1.376 . S
C1523 H1510 0.930 . S
C1523 C1522 1.376 . S
C1523 C1524 1.388 . S
C1524 H1511 0.930 . S
C1524 C1523 1.388 . S
C1524 C1525 1.390 . S
C1525 C1524 1.390 . S
C1525 C1526 1.394 . S
C1525 C1531 1.465 . S
C1526 C1521 1.399 . S
C1526 C1525 1.394 . S
C1526 C1527 1.516 . S
C1527 C1526 1.516 . S
C1527 C1528 1.502 . S
C1527 C1529 1.561 . S
C1527 C1530 1.526 . S
C1528 H1512 0.959 . S
C1528 H1513 0.959 . S
C1528 H1514 0.961 . S
C1528 C1527 1.502 . S
C1529 H1515 0.960 . S
C1529 H1516 0.961 . S
C1529 H1517 0.959 . S
C1529 C1527 1.561 . S
C1530 C1527 1.526 . S
C1530 C1531 1.396 . S
C1530 C1535 1.390 . S
C1531 C1525 1.465 . S
C1531 C1530 1.396 . S
C1531 C1532 1.399 . S
C1532 H1518 0.929 . S
C1532 C1531 1.399 . S
C1532 C1533 1.385 . S
C1533 H1519 0.931 . S
C1533 C1532 1.385 . S
C1533 C1534 1.389 . S
C1534 C1533 1.389 . S
C1534 C1535 1.387 . S
C1535 H1520 0.930 . S
C1535 C1530 1.390 . S
C1535 C1534 1.387 . S
H1536 C1548 0.930 . S
H1537 C1550 0.930 . S
H1538 C1551 0.930 . S
H1539 C1555 0.959 . S
H1540 C1555 0.959 . S
H1541 C1555 0.961 . S
H1542 C1556 0.960 . S
H1543 C1556 0.961 . S
H1544 C1556 0.959 . S
H1545 C1559 0.929 . S
H1546 C1560 0.931 . S
H1547 C1562 0.930 . S
C1548 H1536 0.930 . S
C1548 C1549 1.399 . S
C1548 C1553 1.399 . S
C1549 C1548 1.399 . S
C1549 C1550 1.376 . S
C1550 H1537 0.930 . S
C1550 C1549 1.376 . S
C1550 C1551 1.388 . S
C1551 H1538 0.930 . S
C1551 C1550 1.388 . S
C1551 C1552 1.390 . S
C1552 C1551 1.390 . S
C1552 C1553 1.394 . S
C1552 C1558 1.465 . S
C1553 C1548 1.399 . S
C1553 C1552 1.394 . S
C1553 C1554 1.516 . S
C1554 C1553 1.516 . S
C1554 C1555 1.502 . S
C1554 C1556 1.561 . S
C1554 C1557 1.526 . S
C1555 H1539 0.959 . S
C1555 H1540 0.959 . S
C1555 H1541 0.961 . S
C1555 C1554 1.502 . S
C1556 H1542 0.960 . S
C1556 H1543 0.961 . S
C1556 H1544 0.959 . S
C1556 C1554 1.561 . S
C1557 C1554 1.526 . S
C1557 C1558 1.396 . S
C1557 C1562 1.390 . S
C1558 C1552 1.465 . S
C1558 C1557 1.396 . S
C1558 C1559 1.399 . S
C1559 H1545 0.929 . S
C1559 C1558 1.399 . S
C1559 C1560 1.385 . S
C1560 H1546 0.931 . S
C1560 C1559 1.385 . S
C1560 C1561 1.389 . S
C1561 C1560 1.389 . S
C1561 C1562 1.387 . S
C1562 H1547 0.930 . S
C1562 C1557 1.390 . S
C1562 C1561 1.387 . S
H1563 C1575 0.930 . S
H1564 C1577 0.930 . S
H1565 C1578 0.930 . S
H1566 C1582 0.959 . S
H1567 C1582 0.959 . S
H1568 C1582 0.961 . S
H1569 C1583 0.960 . S
H1570 C1583 0.961 . S
H1571 C1583 0.959 . S
H1572 C1586 0.929 . S
H1573 C1587 0.931 . S
H1574 C1589 0.930 . S
C1575 H1563 0.930 . S
C1575 C1576 1.399 . S
C1575 C1580 1.399 . S
C1576 C1575 1.399 . S
C1576 C1577 1.376 . S
C1577 H1564 0.930 . S
C1577 C1576 1.376 . S
C1577 C1578 1.388 . S
C1578 H1565 0.930 . S
C1578 C1577 1.388 . S
C1578 C1579 1.390 . S
C1579 C1578 1.390 . S
C1579 C1580 1.394 . S
C1579 C1585 1.465 . S
C1580 C1575 1.399 . S
C1580 C1579 1.394 . S
C1580 C1581 1.516 . S
C1581 C1580 1.516 . S
C1581 C1582 1.502 . S
C1581 C1583 1.561 . S
C1581 C1584 1.526 . S
C1582 H1566 0.959 . S
C1582 H1567 0.959 . S
C1582 H1568 0.961 . S
C1582 C1581 1.502 . S
C1583 H1569 0.960 . S
C1583 H1570 0.961 . S
C1583 H1571 0.959 . S
C1583 C1581 1.561 . S
C1584 C1581 1.526 . S
C1584 C1585 1.396 . S
C1584 C1589 1.390 . S
C1585 C1579 1.465 . S
C1585 C1584 1.396 . S
C1585 C1586 1.399 . S
C1586 H1572 0.929 . S
C1586 C1585 1.399 . S
C1586 C1587 1.385 . S
C1587 H1573 0.931 . S
C1587 C1586 1.385 . S
C1587 C1588 1.389 . S
C1588 C1587 1.389 . S
C1588 C1589 1.387 . S
C1589 H1574 0.930 . S
C1589 C1584 1.390 . S
C1589 C1588 1.387 . S
H1590 C1602 0.930 . S
H1591 C1604 0.930 . S
H1592 C1605 0.930 . S
H1593 C1609 0.959 . S
H1594 C1609 0.959 . S
H1595 C1609 0.961 . S
H1596 C1610 0.960 . S
H1597 C1610 0.961 . S
H1598 C1610 0.959 . S
H1599 C1613 0.929 . S
H1600 C1614 0.931 . S
H1601 C1616 0.930 . S
C1602 H1590 0.930 . S
C1602 C1603 1.399 . S
C1602 C1607 1.399 . S
C1603 C1602 1.399 . S
C1603 C1604 1.376 . S
C1604 H1591 0.930 . S
C1604 C1603 1.376 . S
C1604 C1605 1.388 . S
C1605 H1592 0.930 . S
C1605 C1604 1.388 . S
C1605 C1606 1.390 . S
C1606 C1605 1.390 . S
C1606 C1607 1.394 . S
C1606 C1612 1.465 . S
C1607 C1602 1.399 . S
C1607 C1606 1.394 . S
C1607 C1608 1.516 . S
C1608 C1607 1.516 . S
C1608 C1609 1.502 . S
C1608 C1610 1.561 . S
C1608 C1611 1.526 . S
C1609 H1593 0.959 . S
C1609 H1594 0.959 . S
C1609 H1595 0.961 . S
C1609 C1608 1.502 . S
C1610 H1596 0.960 . S
C1610 H1597 0.961 . S
C1610 H1598 0.959 . S
C1610 C1608 1.561 . S
C1611 C1608 1.526 . S
C1611 C1612 1.396 . S
C1611 C1616 1.390 . S
C1612 C1606 1.465 . S
C1612 C1611 1.396 . S
C1612 C1613 1.399 . S
C1613 H1599 0.929 . S
C1613 C1612 1.399 . S
C1613 C1614 1.385 . S
C1614 H1600 0.931 . S
C1614 C1613 1.385 . S
C1614 C1615 1.389 . S
C1615 C1614 1.389 . S
C1615 C1616 1.387 . S
C1616 H1601 0.930 . S
C1616 C1611 1.390 . S
C1616 C1615 1.387 . S
H1617 C1629 0.930 . S
H1618 C1631 0.930 . S
H1619 C1632 0.930 . S
H1620 C1636 0.959 . S
H1621 C1636 0.959 . S
H1622 C1636 0.961 . S
H1623 C1637 0.960 . S
H1624 C1637 0.961 . S
H1625 C1637 0.959 . S
H1626 C1640 0.929 . S
H1627 C1641 0.931 . S
H1628 C1643 0.930 . S
C1629 H1617 0.930 . S
C1629 C1630 1.399 . S
C1629 C1634 1.399 . S
C1630 C1629 1.399 . S
C1630 C1631 1.376 . S
C1631 H1618 0.930 . S
C1631 C1630 1.376 . S
C1631 C1632 1.388 . S
C1632 H1619 0.930 . S
C1632 C1631 1.388 . S
C1632 C1633 1.390 . S
C1633 C1632 1.390 . S
C1633 C1634 1.394 . S
C1633 C1639 1.465 . S
C1634 C1629 1.399 . S
C1634 C1633 1.394 . S
C1634 C1635 1.516 . S
C1635 C1634 1.516 . S
C1635 C1636 1.502 . S
C1635 C1637 1.561 . S
C1635 C1638 1.526 . S
C1636 H1620 0.959 . S
C1636 H1621 0.959 . S
C1636 H1622 0.961 . S
C1636 C1635 1.502 . S
C1637 H1623 0.960 . S
C1637 H1624 0.961 . S
C1637 H1625 0.959 . S
C1637 C1635 1.561 . S
C1638 C1635 1.526 . S
C1638 C1639 1.396 . S
C1638 C1643 1.390 . S
C1639 C1633 1.465 . S
C1639 C1638 1.396 . S
C1639 C1640 1.399 . S
C1640 H1626 0.929 . S
C1640 C1639 1.399 . S
C1640 C1641 1.385 . S
C1641 H1627 0.931 . S
C1641 C1640 1.385 . S
C1641 C1642 1.389 . S
C1642 C1641 1.389 . S
C1642 C1643 1.387 . S
C1643 H1628 0.930 . S
C1643 C1638 1.390 . S
C1643 C1642 1.387 . S
H1644 C1656 0.930 . S
H1645 C1658 0.930 . S
H1646 C1659 0.930 . S
H1647 C1663 0.959 . S
H1648 C1663 0.959 . S
H1649 C1663 0.961 . S
H1650 C1664 0.960 . S
H1651 C1664 0.961 . S
H1652 C1664 0.959 . S
H1653 C1667 0.929 . S
H1654 C1668 0.931 . S
H1655 C1670 0.930 . S
C1656 H1644 0.930 . S
C1656 C1657 1.399 . S
C1656 C1661 1.399 . S
C1657 C1656 1.399 . S
C1657 C1658 1.376 . S
C1658 H1645 0.930 . S
C1658 C1657 1.376 . S
C1658 C1659 1.388 . S
C1659 H1646 0.930 . S
C1659 C1658 1.388 . S
C1659 C1660 1.390 . S
C1660 C1659 1.390 . S
C1660 C1661 1.394 . S
C1660 C1666 1.465 . S
C1661 C1656 1.399 . S
C1661 C1660 1.394 . S
C1661 C1662 1.516 . S
C1662 C1661 1.516 . S
C1662 C1663 1.502 . S
C1662 C1664 1.561 . S
C1662 C1665 1.526 . S
C1663 H1647 0.959 . S
C1663 H1648 0.959 . S
C1663 H1649 0.961 . S
C1663 C1662 1.502 . S
C1664 H1650 0.960 . S
C1664 H1651 0.961 . S
C1664 H1652 0.959 . S
C1664 C1662 1.561 . S
C1665 C1662 1.526 . S
C1665 C1666 1.396 . S
C1665 C1670 1.390 . S
C1666 C1660 1.465 . S
C1666 C1665 1.396 . S
C1666 C1667 1.399 . S
C1667 H1653 0.929 . S
C1667 C1666 1.399 . S
C1667 C1668 1.385 . S
C1668 H1654 0.931 . S
C1668 C1667 1.385 . S
C1668 C1669 1.389 . S
C1669 C1668 1.389 . S
C1669 C1670 1.387 . S
C1670 H1655 0.930 . S
C1670 C1665 1.390 . S
C1670 C1669 1.387 . S
H1671 C1683 0.930 . S
H1672 C1685 0.930 . S
H1673 C1686 0.930 . S
H1674 C1690 0.959 . S
H1675 C1690 0.959 . S
H1676 C1690 0.961 . S
H1677 C1691 0.960 . S
H1678 C1691 0.961 . S
H1679 C1691 0.959 . S
H1680 C1694 0.929 . S
H1681 C1695 0.931 . S
H1682 C1697 0.930 . S
C1683 H1671 0.930 . S
C1683 C1684 1.399 . S
C1683 C1688 1.399 . S
C1684 C1683 1.399 . S
C1684 C1685 1.376 . S
C1685 H1672 0.930 . S
C1685 C1684 1.376 . S
C1685 C1686 1.388 . S
C1686 H1673 0.930 . S
C1686 C1685 1.388 . S
C1686 C1687 1.390 . S
C1687 C1686 1.390 . S
C1687 C1688 1.394 . S
C1687 C1693 1.465 . S
C1688 C1683 1.399 . S
C1688 C1687 1.394 . S
C1688 C1689 1.516 . S
C1689 C1688 1.516 . S
C1689 C1690 1.502 . S
C1689 C1691 1.561 . S
C1689 C1692 1.526 . S
C1690 H1674 0.959 . S
C1690 H1675 0.959 . S
C1690 H1676 0.961 . S
C1690 C1689 1.502 . S
C1691 H1677 0.960 . S
C1691 H1678 0.961 . S
C1691 H1679 0.959 . S
C1691 C1689 1.561 . S
C1692 C1689 1.526 . S
C1692 C1693 1.396 . S
C1692 C1697 1.390 . S
C1693 C1687 1.465 . S
C1693 C1692 1.396 . S
C1693 C1694 1.399 . S
C1694 H1680 0.929 . S
C1694 C1693 1.399 . S
C1694 C1695 1.385 . S
C1695 H1681 0.931 . S
C1695 C1694 1.385 . S
C1695 C1696 1.389 . S
C1696 C1695 1.389 . S
C1696 C1697 1.387 . S
C1697 H1682 0.930 . S
C1697 C1692 1.390 . S
C1697 C1696 1.387 . S
H1698 C1710 0.930 . S
H1699 C1712 0.930 . S
H1700 C1713 0.930 . S
H1701 C1717 0.959 . S
H1702 C1717 0.959 . S
H1703 C1717 0.961 . S
H1704 C1718 0.960 . S
H1705 C1718 0.961 . S
H1706 C1718 0.959 . S
H1707 C1721 0.929 . S
H1708 C1722 0.931 . S
H1709 C1724 0.930 . S
C1710 H1698 0.930 . S
C1710 C1711 1.399 . S
C1710 C1715 1.399 . S
C1711 C1710 1.399 . S
C1711 C1712 1.376 . S
C1712 H1699 0.930 . S
C1712 C1711 1.376 . S
C1712 C1713 1.388 . S
C1713 H1700 0.930 . S
C1713 C1712 1.388 . S
C1713 C1714 1.390 . S
C1714 C1713 1.390 . S
C1714 C1715 1.394 . S
C1714 C1720 1.465 . S
C1715 C1710 1.399 . S
C1715 C1714 1.394 . S
C1715 C1716 1.516 . S
C1716 C1715 1.516 . S
C1716 C1717 1.502 . S
C1716 C1718 1.561 . S
C1716 C1719 1.526 . S
C1717 H1701 0.959 . S
C1717 H1702 0.959 . S
C1717 H1703 0.961 . S
C1717 C1716 1.502 . S
C1718 H1704 0.960 . S
C1718 H1705 0.961 . S
C1718 H1706 0.959 . S
C1718 C1716 1.561 . S
C1719 C1716 1.526 . S
C1719 C1720 1.396 . S
C1719 C1724 1.390 . S
C1720 C1714 1.465 . S
C1720 C1719 1.396 . S
C1720 C1721 1.399 . S
C1721 H1707 0.929 . S
C1721 C1720 1.399 . S
C1721 C1722 1.385 . S
C1722 H1708 0.931 . S
C1722 C1721 1.385 . S
C1722 C1723 1.389 . S
C1723 C1722 1.389 . S
C1723 C1724 1.387 . S
C1724 H1709 0.930 . S
C1724 C1719 1.390 . S
C1724 C1723 1.387 . S
H1725 C1737 0.930 . S
H1726 C1739 0.930 . S
H1727 C1740 0.930 . S
H1728 C1744 0.959 . S
H1729 C1744 0.959 . S
H1730 C1744 0.961 . S
H1731 C1745 0.960 . S
H1732 C1745 0.961 . S
H1733 C1745 0.959 . S
H1734 C1748 0.929 . S
H1735 C1749 0.931 . S
H1736 C1751 0.930 . S
C1737 H1725 0.930 . S
C1737 C1738 1.399 . S
C1737 C1742 1.399 . S
C1738 C1737 1.399 . S
C1738 C1739 1.376 . S
C1739 H1726 0.930 . S
C1739 C1738 1.376 . S
C1739 C1740 1.388 . S
C1740 H1727 0.930 . S
C1740 C1739 1.388 . S
C1740 C1741 1.390 . S
C1741 C1740 1.390 . S
C1741 C1742 1.394 . S
C1741 C1747 1.465 . S
C1742 C1737 1.399 . S
C1742 C1741 1.394 . S
C1742 C1743 1.516 . S
C1743 C1742 1.516 . S
C1743 C1744 1.502 . S
C1743 C1745 1.561 . S
C1743 C1746 1.526 . S
C1744 H1728 0.959 . S
C1744 H1729 0.959 . S
C1744 H1730 0.961 . S
C1744 C1743 1.502 . S
C1745 H1731 0.960 . S
C1745 H1732 0.961 . S
C1745 H1733 0.959 . S
C1745 C1743 1.561 . S
C1746 C1743 1.526 . S
C1746 C1747 1.396 . S
C1746 C1751 1.390 . S
C1747 C1741 1.465 . S
C1747 C1746 1.396 . S
C1747 C1748 1.399 . S
C1748 H1734 0.929 . S
C1748 C1747 1.399 . S
C1748 C1749 1.385 . S
C1749 H1735 0.931 . S
C1749 C1748 1.385 . S
C1749 C1750 1.389 . S
C1750 C1749 1.389 . S
C1750 C1751 1.387 . S
C1751 H1736 0.930 . S
C1751 C1746 1.390 . S
C1751 C1750 1.387 . S
H1752 C1764 0.930 . S
H1753 C1766 0.930 . S
H1754 C1767 0.930 . S
H1755 C1771 0.959 . S
H1756 C1771 0.959 . S
H1757 C1771 0.961 . S
H1758 C1772 0.960 . S
H1759 C1772 0.961 . S
H1760 C1772 0.959 . S
H1761 C1775 0.929 . S
H1762 C1776 0.931 . S
H1763 C1778 0.930 . S
C1764 H1752 0.930 . S
C1764 C1765 1.399 . S
C1764 C1769 1.399 . S
C1765 C1764 1.399 . S
C1765 C1766 1.376 . S
C1766 H1753 0.930 . S
C1766 C1765 1.376 . S
C1766 C1767 1.388 . S
C1767 H1754 0.930 . S
C1767 C1766 1.388 . S
C1767 C1768 1.390 . S
C1768 C1767 1.390 . S
C1768 C1769 1.394 . S
C1768 C1774 1.465 . S
C1769 C1764 1.399 . S
C1769 C1768 1.394 . S
C1769 C1770 1.516 . S
C1770 C1769 1.516 . S
C1770 C1771 1.502 . S
C1770 C1772 1.561 . S
C1770 C1773 1.526 . S
C1771 H1755 0.959 . S
C1771 H1756 0.959 . S
C1771 H1757 0.961 . S
C1771 C1770 1.502 . S
C1772 H1758 0.960 . S
C1772 H1759 0.961 . S
C1772 H1760 0.959 . S
C1772 C1770 1.561 . S
C1773 C1770 1.526 . S
C1773 C1774 1.396 . S
C1773 C1778 1.390 . S
C1774 C1768 1.465 . S
C1774 C1773 1.396 . S
C1774 C1775 1.399 . S
C1775 H1761 0.929 . S
C1775 C1774 1.399 . S
C1775 C1776 1.385 . S
C1776 H1762 0.931 . S
C1776 C1775 1.385 . S
C1776 C1777 1.389 . S
C1777 C1776 1.389 . S
C1777 C1778 1.387 . S
C1778 H1763 0.930 . S
C1778 C1773 1.390 . S
C1778 C1777 1.387 . S
H1779 C1791 0.930 . S
H1780 C1793 0.930 . S
H1781 C1794 0.930 . S
H1782 C1798 0.959 . S
H1783 C1798 0.959 . S
H1784 C1798 0.961 . S
H1785 C1799 0.960 . S
H1786 C1799 0.961 . S
H1787 C1799 0.959 . S
H1788 C1802 0.929 . S
H1789 C1803 0.931 . S
H1790 C1805 0.930 . S
C1791 H1779 0.930 . S
C1791 C1792 1.399 . S
C1791 C1796 1.399 . S
C1792 C1791 1.399 . S
C1792 C1793 1.376 . S
C1793 H1780 0.930 . S
C1793 C1792 1.376 . S
C1793 C1794 1.388 . S
C1794 H1781 0.930 . S
C1794 C1793 1.388 . S
C1794 C1795 1.390 . S
C1795 C1794 1.390 . S
C1795 C1796 1.394 . S
C1795 C1801 1.465 . S
C1796 C1791 1.399 . S
C1796 C1795 1.394 . S
C1796 C1797 1.516 . S
C1797 C1796 1.516 . S
C1797 C1798 1.502 . S
C1797 C1799 1.561 . S
C1797 C1800 1.526 . S
C1798 H1782 0.959 . S
C1798 H1783 0.959 . S
C1798 H1784 0.961 . S
C1798 C1797 1.502 . S
C1799 H1785 0.960 . S
C1799 H1786 0.961 . S
C1799 H1787 0.959 . S
C1799 C1797 1.561 . S
C1800 C1797 1.526 . S
C1800 C1801 1.396 . S
C1800 C1805 1.390 . S
C1801 C1795 1.465 . S
C1801 C1800 1.396 . S
C1801 C1802 1.399 . S
C1802 H1788 0.929 . S
C1802 C1801 1.399 . S
C1802 C1803 1.385 . S
C1803 H1789 0.931 . S
C1803 C1802 1.385 . S
C1803 C1804 1.389 . S
C1804 C1803 1.389 . S
C1804 C1805 1.387 . S
C1805 H1790 0.930 . S
C1805 C1800 1.390 . S
C1805 C1804 1.387 . S
H1806 C1818 0.930 . S
H1807 C1820 0.930 . S
H1808 C1821 0.930 . S
H1809 C1825 0.959 . S
H1810 C1825 0.959 . S
H1811 C1825 0.961 . S
H1812 C1826 0.960 . S
H1813 C1826 0.961 . S
H1814 C1826 0.959 . S
H1815 C1829 0.929 . S
H1816 C1830 0.931 . S
H1817 C1832 0.930 . S
C1818 H1806 0.930 . S
C1818 C1819 1.399 . S
C1818 C1823 1.399 . S
C1819 C1818 1.399 . S
C1819 C1820 1.376 . S
C1820 H1807 0.930 . S
C1820 C1819 1.376 . S
C1820 C1821 1.388 . S
C1821 H1808 0.930 . S
C1821 C1820 1.388 . S
C1821 C1822 1.390 . S
C1822 C1821 1.390 . S
C1822 C1823 1.394 . S
C1822 C1828 1.465 . S
C1823 C1818 1.399 . S
C1823 C1822 1.394 . S
C1823 C1824 1.516 . S
C1824 C1823 1.516 . S
C1824 C1825 1.502 . S
C1824 C1826 1.561 . S
C1824 C1827 1.526 . S
C1825 H1809 0.959 . S
C1825 H1810 0.959 . S
C1825 H1811 0.961 . S
C1825 C1824 1.502 . S
C1826 H1812 0.960 . S
C1826 H1813 0.961 . S
C1826 H1814 0.959 . S
C1826 C1824 1.561 . S
C1827 C1824 1.526 . S
C1827 C1828 1.396 . S
C1827 C1832 1.390 . S
C1828 C1822 1.465 . S
C1828 C1827 1.396 . S
C1828 C1829 1.399 . S
C1829 H1815 0.929 . S
C1829 C1828 1.399 . S
C1829 C1830 1.385 . S
C1830 H1816 0.931 . S
C1830 C1829 1.385 . S
C1830 C1831 1.389 . S
C1831 C1830 1.389 . S
C1831 C1832 1.387 . S
C1832 H1817 0.930 . S
C1832 C1827 1.390 . S
C1832 C1831 1.387 . S
H1833 C1845 0.930 . S
H1834 C1847 0.930 . S
H1835 C1848 0.930 . S
H1836 C1852 0.959 . S
H1837 C1852 0.959 . S
H1838 C1852 0.961 . S
H1839 C1853 0.960 . S
H1840 C1853 0.961 . S
H1841 C1853 0.959 . S
H1842 C1856 0.929 . S
H1843 C1857 0.931 . S
H1844 C1859 0.930 . S
C1845 H1833 0.930 . S
C1845 C1846 1.399 . S
C1845 C1850 1.399 . S
C1846 C1845 1.399 . S
C1846 C1847 1.376 . S
C1847 H1834 0.930 . S
C1847 C1846 1.376 . S
C1847 C1848 1.388 . S
C1848 H1835 0.930 . S
C1848 C1847 1.388 . S
C1848 C1849 1.390 . S
C1849 C1848 1.390 . S
C1849 C1850 1.394 . S
C1849 C1855 1.465 . S
C1850 C1845 1.399 . S
C1850 C1849 1.394 . S
C1850 C1851 1.516 . S
C1851 C1850 1.516 . S
C1851 C1852 1.502 . S
C1851 C1853 1.561 . S
C1851 C1854 1.526 . S
C1852 H1836 0.959 . S
C1852 H1837 0.959 . S
C1852 H1838 0.961 . S
C1852 C1851 1.502 . S
C1853 H1839 0.960 . S
C1853 H1840 0.961 . S
C1853 H1841 0.959 . S
C1853 C1851 1.561 . S
C1854 C1851 1.526 . S
C1854 C1855 1.396 . S
C1854 C1859 1.390 . S
C1855 C1849 1.465 . S
C1855 C1854 1.396 . S
C1855 C1856 1.399 . S
C1856 H1842 0.929 . S
C1856 C1855 1.399 . S
C1856 C1857 1.385 . S
C1857 H1843 0.931 . S
C1857 C1856 1.385 . S
C1857 C1858 1.389 . S
C1858 C1857 1.389 . S
C1858 C1859 1.387 . S
C1859 H1844 0.930 . S
C1859 C1854 1.390 . S
C1859 C1858 1.387 . S
H1860 C1872 0.930 . S
H1861 C1874 0.930 . S
H1862 C1875 0.930 . S
H1863 C1879 0.959 . S
H1864 C1879 0.959 . S
H1865 C1879 0.961 . S
H1866 C1880 0.960 . S
H1867 C1880 0.961 . S
H1868 C1880 0.959 . S
H1869 C1883 0.929 . S
H1870 C1884 0.931 . S
H1871 C1886 0.930 . S
C1872 H1860 0.930 . S
C1872 C1873 1.399 . S
C1872 C1877 1.399 . S
C1873 C1872 1.399 . S
C1873 C1874 1.376 . S
C1874 H1861 0.930 . S
C1874 C1873 1.376 . S
C1874 C1875 1.388 . S
C1875 H1862 0.930 . S
C1875 C1874 1.388 . S
C1875 C1876 1.390 . S
C1876 C1875 1.390 . S
C1876 C1877 1.394 . S
C1876 C1882 1.465 . S
C1877 C1872 1.399 . S
C1877 C1876 1.394 . S
C1877 C1878 1.516 . S
C1878 C1877 1.516 . S
C1878 C1879 1.502 . S
C1878 C1880 1.561 . S
C1878 C1881 1.526 . S
C1879 H1863 0.959 . S
C1879 H1864 0.959 . S
C1879 H1865 0.961 . S
C1879 C1878 1.502 . S
C1880 H1866 0.960 . S
C1880 H1867 0.961 . S
C1880 H1868 0.959 . S
C1880 C1878 1.561 . S
C1881 C1878 1.526 . S
C1881 C1882 1.396 . S
C1881 C1886 1.390 . S
C1882 C1876 1.465 . S
C1882 C1881 1.396 . S
C1882 C1883 1.399 . S
C1883 H1869 0.929 . S
C1883 C1882 1.399 . S
C1883 C1884 1.385 . S
C1884 H1870 0.931 . S
C1884 C1883 1.385 . S
C1884 C1885 1.389 . S
C1885 C1884 1.389 . S
C1885 C1886 1.387 . S
C1886 H1871 0.930 . S
C1886 C1881 1.390 . S
C1886 C1885 1.387 . S
H1887 C1899 0.930 . S
H1888 C1901 0.930 . S
H1889 C1902 0.930 . S
H1890 C1906 0.959 . S
H1891 C1906 0.959 . S
H1892 C1906 0.961 . S
H1893 C1907 0.960 . S
H1894 C1907 0.961 . S
H1895 C1907 0.959 . S
H1896 C1910 0.929 . S
H1897 C1911 0.931 . S
H1898 C1913 0.930 . S
C1899 H1887 0.930 . S
C1899 C1900 1.399 . S
C1899 C1904 1.399 . S
C1900 C1899 1.399 . S
C1900 C1901 1.376 . S
C1901 H1888 0.930 . S
C1901 C1900 1.376 . S
C1901 C1902 1.388 . S
C1902 H1889 0.930 . S
C1902 C1901 1.388 . S
C1902 C1903 1.390 . S
C1903 C1902 1.390 . S
C1903 C1904 1.394 . S
C1903 C1909 1.465 . S
C1904 C1899 1.399 . S
C1904 C1903 1.394 . S
C1904 C1905 1.516 . S
C1905 C1904 1.516 . S
C1905 C1906 1.502 . S
C1905 C1907 1.561 . S
C1905 C1908 1.526 . S
C1906 H1890 0.959 . S
C1906 H1891 0.959 . S
C1906 H1892 0.961 . S
C1906 C1905 1.502 . S
C1907 H1893 0.960 . S
C1907 H1894 0.961 . S
C1907 H1895 0.959 . S
C1907 C1905 1.561 . S
C1908 C1905 1.526 . S
C1908 C1909 1.396 . S
C1908 C1913 1.390 . S
C1909 C1903 1.465 . S
C1909 C1908 1.396 . S
C1909 C1910 1.399 . S
C1910 H1896 0.929 . S
C1910 C1909 1.399 . S
C1910 C1911 1.385 . S
C1911 H1897 0.931 . S
C1911 C1910 1.385 . S
C1911 C1912 1.389 . S
C1912 C1911 1.389 . S
C1912 C1913 1.387 . S
C1913 H1898 0.930 . S
C1913 C1908 1.390 . S
C1913 C1912 1.387 . S
H1914 C1926 0.930 . S
H1915 C1928 0.930 . S
H1916 C1929 0.930 . S
H1917 C1933 0.959 . S
H1918 C1933 0.959 . S
H1919 C1933 0.961 . S
H1920 C1934 0.960 . S
H1921 C1934 0.961 . S
H1922 C1934 0.959 . S
H1923 C1937 0.929 . S
H1924 C1938 0.931 . S
H1925 C1940 0.930 . S
C1926 H1914 0.930 . S
C1926 C1927 1.399 . S
C1926 C1931 1.399 . S
C1927 C1926 1.399 . S
C1927 C1928 1.376 . S
C1928 H1915 0.930 . S
C1928 C1927 1.376 . S
C1928 C1929 1.388 . S
C1929 H1916 0.930 . S
C1929 C1928 1.388 . S
C1929 C1930 1.390 . S
C1930 C1929 1.390 . S
C1930 C1931 1.394 . S
C1930 C1936 1.465 . S
C1931 C1926 1.399 . S
C1931 C1930 1.394 . S
C1931 C1932 1.516 . S
C1932 C1931 1.516 . S
C1932 C1933 1.502 . S
C1932 C1934 1.561 . S
C1932 C1935 1.526 . S
C1933 H1917 0.959 . S
C1933 H1918 0.959 . S
C1933 H1919 0.961 . S
C1933 C1932 1.502 . S
C1934 H1920 0.960 . S
C1934 H1921 0.961 . S
C1934 H1922 0.959 . S
C1934 C1932 1.561 . S
C1935 C1932 1.526 . S
C1935 C1936 1.396 . S
C1935 C1940 1.390 . S
C1936 C1930 1.465 . S
C1936 C1935 1.396 . S
C1936 C1937 1.399 . S
C1937 H1923 0.929 . S
C1937 C1936 1.399 . S
C1937 C1938 1.385 . S
C1938 H1924 0.931 . S
C1938 C1937 1.385 . S
C1938 C1939 1.389 . S
C1939 C1938 1.389 . S
C1939 C1940 1.387 . S
C1940 H1925 0.930 . S
C1940 C1935 1.390 . S
C1940 C1939 1.387 . S
H1941 C1953 0.930 . S
H1942 C1955 0.930 . S
H1943 C1956 0.930 . S
H1944 C1960 0.959 . S
H1945 C1960 0.959 . S
H1946 C1960 0.961 . S
H1947 C1961 0.960 . S
H1948 C1961 0.961 . S
H1949 C1961 0.959 . S
H1950 C1964 0.929 . S
H1951 C1965 0.931 . S
H1952 C1967 0.930 . S
C1953 H1941 0.930 . S
C1953 C1954 1.399 . S
C1953 C1958 1.399 . S
C1954 C1953 1.399 . S
C1954 C1955 1.376 . S
C1955 H1942 0.930 . S
C1955 C1954 1.376 . S
C1955 C1956 1.388 . S
C1956 H1943 0.930 . S
C1956 C1955 1.388 . S
C1956 C1957 1.390 . S
C1957 C1956 1.390 . S
C1957 C1958 1.394 . S
C1957 C1963 1.465 . S
C1958 C1953 1.399 . S
C1958 C1957 1.394 . S
C1958 C1959 1.516 . S
C1959 C1958 1.516 . S
C1959 C1960 1.502 . S
C1959 C1961 1.561 . S
C1959 C1962 1.526 . S
C1960 H1944 0.959 . S
C1960 H1945 0.959 . S
C1960 H1946 0.961 . S
C1960 C1959 1.502 . S
C1961 H1947 0.960 . S
C1961 H1948 0.961 . S
C1961 H1949 0.959 . S
C1961 C1959 1.561 . S
C1962 C1959 1.526 . S
C1962 C1963 1.396 . S
C1962 C1967 1.390 . S
C1963 C1957 1.465 . S
C1963 C1962 1.396 . S
C1963 C1964 1.399 . S
C1964 H1950 0.929 . S
C1964 C1963 1.399 . S
C1964 C1965 1.385 . S
C1965 H1951 0.931 . S
C1965 C1964 1.385 . S
C1965 C1966 1.389 . S
C1966 C1965 1.389 . S
C1966 C1967 1.387 . S
C1967 H1952 0.930 . S
C1967 C1962 1.390 . S
C1967 C1966 1.387 . S
H1968 C1980 0.930 . S
H1969 C1982 0.930 . S
H1970 C1983 0.930 . S
H1971 C1987 0.959 . S
H1972 C1987 0.959 . S
H1973 C1987 0.961 . S
H1974 C1988 0.960 . S
H1975 C1988 0.961 . S
H1976 C1988 0.959 . S
H1977 C1991 0.929 . S
H1978 C1992 0.931 . S
H1979 C1994 0.930 . S
C1980 H1968 0.930 . S
C1980 C1981 1.399 . S
C1980 C1985 1.399 . S
C1981 C1980 1.399 . S
C1981 C1982 1.376 . S
C1982 H1969 0.930 . S
C1982 C1981 1.376 . S
C1982 C1983 1.388 . S
C1983 H1970 0.930 . S
C1983 C1982 1.388 . S
C1983 C1984 1.390 . S
C1984 C1983 1.390 . S
C1984 C1985 1.394 . S
C1984 C1990 1.465 . S
C1985 C1980 1.399 . S
C1985 C1984 1.394 . S
C1985 C1986 1.516 . S
C1986 C1985 1.516 . S
C1986 C1987 1.502 . S
C1986 C1988 1.561 . S
C1986 C1989 1.526 . S
C1987 H1971 0.959 . S
C1987 H1972 0.959 . S
C1987 H1973 0.961 . S
C1987 C1986 1.502 . S
C1988 H1974 0.960 . S
C1988 H1975 0.961 . S
C1988 H1976 0.959 . S
C1988 C1986 1.561 . S
C1989 C1986 1.526 . S
C1989 C1990 1.396 . S
C1989 C1994 1.390 . S
C1990 C1984 1.465 . S
C1990 C1989 1.396 . S
C1990 C1991 1.399 . S
C1991 H1977 0.929 . S
C1991 C1990 1.399 . S
C1991 C1992 1.385 . S
C1992 H1978 0.931 . S
C1992 C1991 1.385 . S
C1992 C1993 1.389 . S
C1993 C1992 1.389 . S
C1993 C1994 1.387 . S
C1994 H1979 0.930 . S
C1994 C1989 1.390 . S
C1994 C1993 1.387 . S
H1995 C2007 0.930 . S
H1996 C2009 0.930 . S
H1997 C2010 0.930 . S
H1998 C2014 0.959 . S
H1999 C2014 0.959 . S
H2000 C2014 0.961 . S
H2001 C2015 0.960 . S
H2002 C2015 0.961 . S
H2003 C2015 0.959 . S
H2004 C2018 0.929 . S
H2005 C2019 0.931 . S
H2006 C2021 0.930 . S
C2007 H1995 0.930 . S
C2007 C2008 1.399 . S
C2007 C2012 1.399 . S
C2008 C2007 1.399 . S
C2008 C2009 1.376 . S
C2009 H1996 0.930 . S
C2009 C2008 1.376 . S
C2009 C2010 1.388 . S
C2010 H1997 0.930 . S
C2010 C2009 1.388 . S
C2010 C2011 1.390 . S
C2011 C2010 1.390 . S
C2011 C2012 1.394 . S
C2011 C2017 1.465 . S
C2012 C2007 1.399 . S
C2012 C2011 1.394 . S
C2012 C2013 1.516 . S
C2013 C2012 1.516 . S
C2013 C2014 1.502 . S
C2013 C2015 1.561 . S
C2013 C2016 1.526 . S
C2014 H1998 0.959 . S
C2014 H1999 0.959 . S
C2014 H2000 0.961 . S
C2014 C2013 1.502 . S
C2015 H2001 0.960 . S
C2015 H2002 0.961 . S
C2015 H2003 0.959 . S
C2015 C2013 1.561 . S
C2016 C2013 1.526 . S
C2016 C2017 1.396 . S
C2016 C2021 1.390 . S
C2017 C2011 1.465 . S
C2017 C2016 1.396 . S
C2017 C2018 1.399 . S
C2018 H2004 0.929 . S
C2018 C2017 1.399 . S
C2018 C2019 1.385 . S
C2019 H2005 0.931 . S
C2019 C2018 1.385 . S
C2019 C2020 1.389 . S
C2020 C2019 1.389 . S
C2020 C2021 1.387 . S
C2021 H2006 0.930 . S
C2021 C2016 1.390 . S
C2021 C2020 1.387 . S
H2022 C2034 0.930 . S
H2023 C2036 0.930 . S
H2024 C2037 0.930 . S
H2025 C2041 0.925 1_545 S
H2026 C2041 0.959 . S
H2027 C2041 0.961 . S
H2028 C2042 0.960 . S
H2029 C2042 0.961 . S
H2030 C2042 0.959 . S
H2031 C2045 0.929 . S
H2032 C2046 0.931 . S
H2033 C2048 0.930 . S
C2034 H2022 0.930 . S
C2034 C2035 1.399 . S
C2034 C2039 1.399 . S
C2035 C2034 1.399 . S
C2035 C2036 1.376 . S
C2036 H2023 0.930 . S
C2036 C2035 1.376 . S
C2036 C2037 1.388 . S
C2037 H2024 0.930 . S
C2037 C2036 1.388 . S
C2037 C2038 1.390 . S
C2038 C2037 1.390 . S
C2038 C2039 1.394 . S
C2038 C2044 1.465 . S
C2039 C2034 1.399 . S
C2039 C2038 1.394 . S
C2039 C2040 1.516 . S
C2040 C2039 1.516 . S
C2040 C2041 1.502 . S
C2040 C2042 1.561 . S
C2040 C2043 1.526 . S
C2041 H2025 0.925 1_565 S
C2041 H2026 0.959 . S
C2041 H2027 0.961 . S
C2041 C2040 1.502 . S
C2042 H2028 0.960 . S
C2042 H2029 0.961 . S
C2042 H2030 0.959 . S
C2042 C2040 1.561 . S
C2043 C2040 1.526 . S
C2043 C2044 1.396 . S
C2043 C2048 1.390 . S
C2044 C2038 1.465 . S
C2044 C2043 1.396 . S
C2044 C2045 1.399 . S
C2045 H2031 0.929 . S
C2045 C2044 1.399 . S
C2045 C2046 1.385 . S
C2046 H2032 0.931 . S
C2046 C2045 1.385 . S
C2046 C2047 1.389 . S
C2047 C2046 1.389 . S
C2047 C2048 1.387 . S
C2048 H2033 0.930 . S
C2048 C2043 1.390 . S
C2048 C2047 1.387 . S
H2049 C2061 0.930 . S
H2050 C2063 0.930 . S
H2051 C2064 0.930 . S
H2052 C2068 0.960 . S
H2053 C2068 0.966 . S
H2054 C2068 0.954 1_545 S
H2055 C2069 0.965 . S
H2056 C2069 0.957 1_565 S
H2057 C2069 0.958 1_565 S
H2058 C2072 0.929 . S
H2059 C2073 0.931 . S
H2060 C2075 0.930 . S
C2061 H2049 0.930 . S
C2061 C2062 1.399 1_556 S
C2061 C2066 1.399 . S
C2062 C2061 1.399 1_554 S
C2062 C2063 1.376 . S
C2063 H2050 0.930 . S
C2063 C2062 1.376 . S
C2063 C2064 1.388 . S
C2064 H2051 0.930 . S
C2064 C2063 1.388 . S
C2064 C2065 1.390 . S
C2065 C2064 1.390 . S
C2065 C2066 1.394 1_554 S
C2065 C2071 1.465 1_545 S
C2066 C2061 1.399 . S
C2066 C2065 1.394 1_556 S
C2066 C2067 1.517 . S
C2067 C2066 1.517 . S
C2067 C2068 1.502 1_545 S
C2067 C2069 1.561 . S
C2067 C2070 1.525 1_545 S
C2068 H2052 0.960 . S
C2068 H2053 0.966 . S
C2068 H2054 0.954 1_565 S
C2068 C2067 1.502 1_565 S
C2069 H2055 0.965 . S
C2069 H2056 0.957 1_545 S
C2069 H2057 0.958 1_545 S
C2069 C2067 1.561 . S
C2070 C2067 1.525 1_565 S
C2070 C2071 1.396 1_556 S
C2070 C2075 1.390 . S
C2071 C2065 1.465 1_565 S
C2071 C2070 1.396 1_554 S
C2071 C2072 1.399 . S
C2072 H2058 0.929 . S
C2072 C2071 1.399 . S
C2072 C2073 1.385 . S
C2073 H2059 0.931 . S
C2073 C2072 1.385 . S
C2073 C2074 1.389 . S
C2074 C2073 1.389 . S
C2074 C2075 1.387 1_554 S
C2075 H2060 0.930 . S
C2075 C2070 1.390 . S
C2075 C2074 1.387 1_556 S
H2076 C2088 0.930 . S
H2077 C2090 0.930 . S
H2078 C2091 0.930 . S
H2079 C2095 0.959 . S
H2080 C2095 0.959 . S
H2081 C2095 0.961 . S
H2082 C2096 0.960 . S
H2083 C2096 0.961 . S
H2084 C2096 0.959 . S
H2085 C2099 0.929 . S
H2086 C2100 0.931 . S
H2087 C2102 0.930 . S
C2088 H2076 0.930 . S
C2088 C2089 1.399 . S
C2088 C2093 1.399 . S
C2089 C2088 1.399 . S
C2089 C2090 1.376 . S
C2090 H2077 0.930 . S
C2090 C2089 1.376 . S
C2090 C2091 1.388 . S
C2091 H2078 0.930 . S
C2091 C2090 1.388 . S
C2091 C2092 1.390 . S
C2092 C2091 1.390 . S
C2092 C2093 1.394 . S
C2092 C2098 1.465 . S
C2093 C2088 1.399 . S
C2093 C2092 1.394 . S
C2093 C2094 1.516 . S
C2094 C2093 1.516 . S
C2094 C2095 1.502 . S
C2094 C2096 1.561 . S
C2094 C2097 1.526 . S
C2095 H2079 0.959 . S
C2095 H2080 0.959 . S
C2095 H2081 0.961 . S
C2095 C2094 1.502 . S
C2096 H2082 0.960 . S
C2096 H2083 0.961 . S
C2096 H2084 0.959 . S
C2096 C2094 1.561 . S
C2097 C2094 1.526 . S
C2097 C2098 1.396 . S
C2097 C2102 1.390 . S
C2098 C2092 1.465 . S
C2098 C2097 1.396 . S
C2098 C2099 1.399 . S
C2099 H2085 0.929 . S
C2099 C2098 1.399 . S
C2099 C2100 1.385 . S
C2100 H2086 0.931 . S
C2100 C2099 1.385 . S
C2100 C2101 1.389 . S
C2101 C2100 1.389 . S
C2101 C2102 1.387 . S
C2102 H2087 0.930 . S
C2102 C2097 1.390 . S
C2102 C2101 1.387 . S
H2103 C2115 0.930 . S
H2104 C2117 0.930 . S
H2105 C2118 0.930 . S
H2106 C2122 0.959 . S
H2107 C2122 0.959 . S
H2108 C2122 0.961 . S
H2109 C2123 0.960 . S
H2110 C2123 0.961 . S
H2111 C2123 0.959 . S
H2112 C2126 0.929 . S
H2113 C2127 0.931 . S
H2114 C2129 0.930 . S
C2115 H2103 0.930 . S
C2115 C2116 1.399 1_556 S
C2115 C2120 1.399 . S
C2116 C2115 1.399 1_554 S
C2116 C2117 1.376 . S
C2117 H2104 0.930 . S
C2117 C2116 1.376 . S
C2117 C2118 1.388 . S
C2118 H2105 0.930 . S
C2118 C2117 1.388 . S
C2118 C2119 1.390 . S
C2119 C2118 1.390 . S
C2119 C2120 1.394 1_554 S
C2119 C2125 1.465 . S
C2120 C2115 1.399 . S
C2120 C2119 1.394 1_556 S
C2120 C2121 1.516 . S
C2121 C2120 1.516 . S
C2121 C2122 1.502 . S
C2121 C2123 1.561 . S
C2121 C2124 1.526 . S
C2122 H2106 0.959 . S
C2122 H2107 0.959 . S
C2122 H2108 0.961 . S
C2122 C2121 1.502 . S
C2123 H2109 0.960 . S
C2123 H2110 0.961 . S
C2123 H2111 0.959 . S
C2123 C2121 1.561 . S
C2124 C2121 1.526 . S
C2124 C2125 1.396 1_556 S
C2124 C2129 1.390 . S
C2125 C2119 1.465 . S
C2125 C2124 1.396 1_554 S
C2125 C2126 1.399 . S
C2126 H2112 0.929 . S
C2126 C2125 1.399 . S
C2126 C2127 1.385 . S
C2127 H2113 0.931 . S
C2127 C2126 1.385 . S
C2127 C2128 1.389 . S
C2128 C2127 1.389 . S
C2128 C2129 1.387 1_554 S
C2129 H2114 0.930 . S
C2129 C2124 1.390 . S
C2129 C2128 1.387 1_556 S
H2130 C2142 0.930 . S
H2131 C2144 0.930 1_565 S
H2132 C2145 0.907 1_565 S
H2133 C2149 0.959 . S
H2134 C2149 0.959 . S
H2135 C2149 0.961 . S
H2136 C2150 0.960 . S
H2137 C2150 0.961 . S
H2138 C2150 0.959 . S
H2139 C2153 0.930 . S
H2140 C2154 0.931 1_565 S
H2141 C2156 0.930 . S
C2142 H2130 0.930 . S
C2142 C2143 1.399 . S
C2142 C2147 1.399 . S
C2143 C2142 1.399 . S
C2143 C2144 1.376 . S
C2144 H2131 0.930 1_545 S
C2144 C2143 1.376 . S
C2144 C2145 1.394 . S
C2145 H2132 0.907 1_545 S
C2145 C2144 1.394 . S
C2145 C2146 1.409 . S
C2146 C2145 1.409 . S
C2146 C2147 1.394 . S
C2146 C2152 1.465 . S
C2147 C2142 1.399 . S
C2147 C2146 1.394 . S
C2147 C2148 1.516 . S
C2148 C2147 1.516 . S
C2148 C2149 1.502 . S
C2148 C2150 1.561 . S
C2148 C2151 1.526 . S
C2149 H2133 0.959 . S
C2149 H2134 0.959 . S
C2149 H2135 0.961 . S
C2149 C2148 1.502 . S
C2150 H2136 0.960 . S
C2150 H2137 0.961 . S
C2150 H2138 0.959 . S
C2150 C2148 1.561 . S
C2151 C2148 1.526 . S
C2151 C2152 1.396 . S
C2151 C2156 1.390 . S
C2152 C2146 1.465 . S
C2152 C2151 1.396 . S
C2152 C2153 1.398 1_545 S
C2153 H2139 0.930 . S
C2153 C2152 1.398 1_565 S
C2153 C2154 1.385 1_565 S
C2154 H2140 0.931 1_545 S
C2154 C2153 1.385 1_545 S
C2154 C2155 1.389 . S
C2155 C2154 1.389 . S
C2155 C2156 1.387 . S
C2156 H2141 0.930 . S
C2156 C2151 1.390 . S
C2156 C2155 1.387 . S
H2157 C2169 0.930 . S
H2158 C2171 0.930 . S
H2159 C2172 0.930 . S
H2160 C2176 0.960 . S
H2161 C2176 0.966 . S
H2162 C2176 0.953 1_545 S
H2163 C2177 0.965 . S
H2164 C2177 0.957 1_565 S
H2165 C2177 0.958 1_565 S
H2166 C2180 0.929 . S
H2167 C2181 0.931 . S
H2168 C2183 0.930 . S
C2169 H2157 0.930 . S
C2169 C2170 1.399 . S
C2169 C2174 1.399 . S
C2170 C2169 1.399 . S
C2170 C2171 1.376 . S
C2171 H2158 0.930 . S
C2171 C2170 1.376 . S
C2171 C2172 1.388 . S
C2172 H2159 0.930 . S
C2172 C2171 1.388 . S
C2172 C2173 1.390 . S
C2173 C2172 1.390 . S
C2173 C2174 1.394 . S
C2173 C2179 1.465 1_545 S
C2174 C2169 1.399 . S
C2174 C2173 1.394 . S
C2174 C2175 1.517 . S
C2175 C2174 1.517 . S
C2175 C2176 1.502 1_545 S
C2175 C2177 1.561 . S
C2175 C2178 1.525 1_545 S
C2176 H2160 0.960 . S
C2176 H2161 0.966 . S
C2176 H2162 0.953 1_565 S
C2176 C2175 1.502 1_565 S
C2177 H2163 0.965 . S
C2177 H2164 0.957 1_545 S
C2177 H2165 0.958 1_545 S
C2177 C2175 1.561 . S
C2178 C2175 1.525 1_565 S
C2178 C2179 1.396 . S
C2178 C2183 1.390 . S
C2179 C2173 1.465 1_565 S
C2179 C2178 1.396 . S
C2179 C2180 1.399 . S
C2180 H2166 0.929 . S
C2180 C2179 1.399 . S
C2180 C2181 1.385 . S
C2181 H2167 0.931 . S
C2181 C2180 1.385 . S
C2181 C2182 1.389 . S
C2182 C2181 1.389 . S
C2182 C2183 1.387 . S
C2183 H2168 0.930 . S
C2183 C2178 1.390 . S
C2183 C2182 1.387 . S
H2184 C2196 0.930 . S
H2185 C2198 0.930 . S
H2186 C2199 0.930 . S
H2187 C2203 0.959 . S
H2188 C2203 0.959 . S
H2189 C2203 0.961 . S
H2190 C2204 0.960 . S
H2191 C2204 0.961 . S
H2192 C2204 0.959 . S
H2193 C2207 0.929 . S
H2194 C2208 0.931 . S
H2195 C2210 0.930 . S
C2196 H2184 0.930 . S
C2196 C2197 1.399 . S
C2196 C2201 1.399 . S
C2197 C2196 1.399 . S
C2197 C2198 1.376 . S
C2198 H2185 0.930 . S
C2198 C2197 1.376 . S
C2198 C2199 1.388 . S
C2199 H2186 0.930 . S
C2199 C2198 1.388 . S
C2199 C2200 1.390 . S
C2200 C2199 1.390 . S
C2200 C2201 1.394 . S
C2200 C2206 1.465 . S
C2201 C2196 1.399 . S
C2201 C2200 1.394 . S
C2201 C2202 1.516 . S
C2202 C2201 1.516 . S
C2202 C2203 1.502 . S
C2202 C2204 1.561 . S
C2202 C2205 1.526 . S
C2203 H2187 0.959 . S
C2203 H2188 0.959 . S
C2203 H2189 0.961 . S
C2203 C2202 1.502 . S
C2204 H2190 0.960 . S
C2204 H2191 0.961 . S
C2204 H2192 0.959 . S
C2204 C2202 1.561 . S
C2205 C2202 1.526 . S
C2205 C2206 1.396 . S
C2205 C2210 1.390 . S
C2206 C2200 1.465 . S
C2206 C2205 1.396 . S
C2206 C2207 1.399 . S
C2207 H2193 0.929 . S
C2207 C2206 1.399 . S
C2207 C2208 1.385 . S
C2208 H2194 0.931 . S
C2208 C2207 1.385 . S
C2208 C2209 1.389 . S
C2209 C2208 1.389 . S
C2209 C2210 1.387 . S
C2210 H2195 0.930 . S
C2210 C2205 1.390 . S
C2210 C2209 1.387 . S
H2211 C2223 0.930 . S
H2212 C2225 0.930 . S
H2213 C2226 0.930 . S
H2214 C2230 0.963 . S
H2215 C2230 0.988 . S
H2216 C2230 0.930 1_455 S
H2217 C2231 0.963 1_455 S
H2218 C2231 0.958 . S
H2219 C2231 0.959 . S
H2220 C2234 0.929 . S
H2221 C2235 0.931 . S
H2222 C2237 0.930 . S
C2223 H2211 0.930 . S
C2223 C2224 1.399 . S
C2223 C2228 1.399 . S
C2224 C2223 1.399 . S
C2224 C2225 1.376 . S
C2225 H2212 0.930 . S
C2225 C2224 1.376 . S
C2225 C2226 1.388 . S
C2226 H2213 0.930 . S
C2226 C2225 1.388 . S
C2226 C2227 1.390 . S
C2227 C2226 1.390 . S
C2227 C2228 1.394 . S
C2227 C2233 1.465 1_455 S
C2228 C2223 1.399 . S
C2228 C2227 1.394 . S
C2228 C2229 1.516 1_455 S
C2229 C2228 1.516 1_655 S
C2229 C2230 1.501 . S
C2229 C2231 1.561 . S
C2229 C2232 1.526 . S
C2230 H2214 0.963 . S
C2230 H2215 0.988 . S
C2230 H2216 0.930 1_655 S
C2230 C2229 1.501 . S
C2231 H2217 0.963 1_655 S
C2231 H2218 0.958 . S
C2231 H2219 0.959 . S
C2231 C2229 1.561 . S
C2232 C2229 1.526 . S
C2232 C2233 1.396 . S
C2232 C2237 1.390 . S
C2233 C2227 1.465 1_655 S
C2233 C2232 1.396 . S
C2233 C2234 1.399 . S
C2234 H2220 0.929 . S
C2234 C2233 1.399 . S
C2234 C2235 1.385 . S
C2235 H2221 0.931 . S
C2235 C2234 1.385 . S
C2235 C2236 1.389 . S
C2236 C2235 1.389 . S
C2236 C2237 1.387 . S
C2237 H2222 0.930 . S
C2237 C2232 1.390 . S
C2237 C2236 1.387 . S
H2238 C2250 0.930 1_556 S
H2239 C2252 0.930 . S
H2240 C2253 0.930 . S
H2241 C2257 0.959 1_554 S
H2242 C2257 0.959 . S
H2243 C2257 0.961 . S
H2244 C2258 0.960 . S
H2245 C2258 0.961 . S
H2246 C2258 0.959 . S
H2247 C2261 0.929 . S
H2248 C2262 0.931 . S
H2249 C2264 0.930 1_556 S
C2250 H2238 0.930 1_554 S
C2250 C2251 1.399 . S
C2250 C2255 1.399 . S
C2251 C2250 1.399 . S
C2251 C2252 1.376 . S
C2252 H2239 0.930 . S
C2252 C2251 1.376 . S
C2252 C2253 1.388 . S
C2253 H2240 0.930 . S
C2253 C2252 1.388 . S
C2253 C2254 1.390 . S
C2254 C2253 1.390 . S
C2254 C2255 1.394 . S
C2254 C2260 1.465 . S
C2255 C2250 1.399 . S
C2255 C2254 1.394 . S
C2255 C2256 1.516 1_554 S
C2256 C2255 1.516 1_556 S
C2256 C2257 1.502 . S
C2256 C2258 1.561 . S
C2256 C2259 1.526 1_556 S
C2257 H2241 0.959 1_556 S
C2257 H2242 0.959 . S
C2257 H2243 0.961 . S
C2257 C2256 1.502 . S
C2258 H2244 0.960 . S
C2258 H2245 0.961 . S
C2258 H2246 0.959 . S
C2258 C2256 1.561 . S
C2259 C2256 1.526 1_554 S
C2259 C2260 1.396 . S
C2259 C2264 1.390 . S
C2260 C2254 1.465 . S
C2260 C2259 1.396 . S
C2260 C2261 1.399 . S
C2261 H2247 0.929 . S
C2261 C2260 1.399 . S
C2261 C2262 1.385 . S
C2262 H2248 0.931 . S
C2262 C2261 1.385 . S
C2262 C2263 1.389 . S
C2263 C2262 1.389 . S
C2263 C2264 1.387 . S
C2264 H2249 0.930 1_554 S
C2264 C2259 1.390 . S
C2264 C2263 1.387 . S
H2265 C2277 0.930 . S
H2266 C2279 0.930 . S
H2267 C2280 0.930 . S
H2268 C2284 0.964 . S
H2269 C2284 0.995 . S
H2270 C2284 0.923 1_655 S
H2271 C2285 0.952 1_655 S
H2272 C2285 0.968 . S
H2273 C2285 0.964 . S
H2274 C2288 0.929 . S
H2275 C2289 0.931 . S
H2276 C2291 0.930 . S
C2277 H2265 0.930 . S
C2277 C2278 1.399 1_565 S
C2277 C2282 1.399 . S
C2278 C2277 1.399 1_545 S
C2278 C2279 1.376 . S
C2279 H2266 0.930 . S
C2279 C2278 1.376 . S
C2279 C2280 1.388 . S
C2280 H2267 0.930 . S
C2280 C2279 1.388 . S
C2280 C2281 1.390 . S
C2281 C2280 1.390 . S
C2281 C2282 1.394 1_545 S
C2281 C2287 1.465 1_655 S
C2282 C2277 1.399 . S
C2282 C2281 1.394 1_565 S
C2282 C2283 1.510 1_655 S
C2283 C2282 1.510 1_455 S
C2283 C2284 1.501 . S
C2283 C2285 1.561 . S
C2283 C2286 1.531 . S
C2284 H2268 0.964 . S
C2284 H2269 0.995 . S
C2284 H2270 0.923 1_455 S
C2284 C2283 1.501 . S
C2285 H2271 0.952 1_455 S
C2285 H2272 0.968 . S
C2285 H2273 0.964 . S
C2285 C2283 1.561 . S
C2286 C2283 1.531 . S
C2286 C2287 1.396 1_565 S
C2286 C2291 1.390 . S
C2287 C2281 1.465 1_455 S
C2287 C2286 1.396 1_545 S
C2287 C2288 1.399 . S
C2288 H2274 0.929 . S
C2288 C2287 1.399 . S
C2288 C2289 1.385 . S
C2289 H2275 0.931 . S
C2289 C2288 1.385 . S
C2289 C2290 1.389 . S
C2290 C2289 1.389 . S
C2290 C2291 1.387 1_545 S
C2291 H2276 0.930 . S
C2291 C2286 1.390 . S
C2291 C2290 1.387 1_565 S
H2292 C2304 0.930 . S
H2293 C2306 0.930 . S
H2294 C2307 0.930 . S
H2295 C2311 0.959 . S
H2296 C2311 0.959 . S
H2297 C2311 0.961 . S
H2298 C2312 0.960 . S
H2299 C2312 0.961 . S
H2300 C2312 0.959 . S
H2301 C2315 0.929 . S
H2302 C2316 0.931 . S
H2303 C2318 0.930 . S
C2304 H2292 0.930 . S
C2304 C2305 1.399 . S
C2304 C2309 1.399 . S
C2305 C2304 1.399 . S
C2305 C2306 1.376 . S
C2306 H2293 0.930 . S
C2306 C2305 1.376 . S
C2306 C2307 1.388 . S
C2307 H2294 0.930 . S
C2307 C2306 1.388 . S
C2307 C2308 1.390 . S
C2308 C2307 1.390 . S
C2308 C2309 1.394 . S
C2308 C2314 1.465 . S
C2309 C2304 1.399 . S
C2309 C2308 1.394 . S
C2309 C2310 1.516 . S
C2310 C2309 1.516 . S
C2310 C2311 1.502 . S
C2310 C2312 1.561 . S
C2310 C2313 1.526 . S
C2311 H2295 0.959 . S
C2311 H2296 0.959 . S
C2311 H2297 0.961 . S
C2311 C2310 1.502 . S
C2312 H2298 0.960 . S
C2312 H2299 0.961 . S
C2312 H2300 0.959 . S
C2312 C2310 1.561 . S
C2313 C2310 1.526 . S
C2313 C2314 1.396 . S
C2313 C2318 1.390 . S
C2314 C2308 1.465 . S
C2314 C2313 1.396 . S
C2314 C2315 1.399 . S
C2315 H2301 0.929 . S
C2315 C2314 1.399 . S
C2315 C2316 1.385 . S
C2316 H2302 0.931 . S
C2316 C2315 1.385 . S
C2316 C2317 1.389 . S
C2317 C2316 1.389 . S
C2317 C2318 1.387 . S
C2318 H2303 0.930 . S
C2318 C2313 1.390 . S
C2318 C2317 1.387 . S
H2319 C2331 0.930 . S
H2320 C2333 0.930 . S
H2321 C2334 0.930 . S
H2322 C2338 0.959 . S
H2323 C2338 0.959 . S
H2324 C2338 0.961 . S
H2325 C2339 0.960 . S
H2326 C2339 0.961 . S
H2327 C2339 0.959 . S
H2328 C2342 0.929 . S
H2329 C2343 0.931 . S
H2330 C2345 0.930 . S
C2331 H2319 0.930 . S
C2331 C2332 1.399 . S
C2331 C2336 1.399 . S
C2332 C2331 1.399 . S
C2332 C2333 1.376 . S
C2333 H2320 0.930 . S
C2333 C2332 1.376 . S
C2333 C2334 1.388 . S
C2334 H2321 0.930 . S
C2334 C2333 1.388 . S
C2334 C2335 1.390 . S
C2335 C2334 1.390 . S
C2335 C2336 1.394 . S
C2335 C2341 1.465 . S
C2336 C2331 1.399 . S
C2336 C2335 1.394 . S
C2336 C2337 1.516 . S
C2337 C2336 1.516 . S
C2337 C2338 1.502 . S
C2337 C2339 1.561 . S
C2337 C2340 1.526 . S
C2338 H2322 0.959 . S
C2338 H2323 0.959 . S
C2338 H2324 0.961 . S
C2338 C2337 1.502 . S
C2339 H2325 0.960 . S
C2339 H2326 0.961 . S
C2339 H2327 0.959 . S
C2339 C2337 1.561 . S
C2340 C2337 1.526 . S
C2340 C2341 1.396 . S
C2340 C2345 1.390 . S
C2341 C2335 1.465 . S
C2341 C2340 1.396 . S
C2341 C2342 1.399 . S
C2342 H2328 0.929 . S
C2342 C2341 1.399 . S
C2342 C2343 1.385 . S
C2343 H2329 0.931 . S
C2343 C2342 1.385 . S
C2343 C2344 1.389 . S
C2344 C2343 1.389 . S
C2344 C2345 1.387 . S
C2345 H2330 0.930 . S
C2345 C2340 1.390 . S
C2345 C2344 1.387 . S
H2346 C2358 0.930 1_554 S
H2347 C2360 0.930 . S
H2348 C2361 0.930 . S
H2349 C2365 0.959 . S
H2350 C2365 0.959 . S
H2351 C2365 0.961 . S
H2352 C2366 0.960 . S
H2353 C2366 0.961 . S
H2354 C2366 0.959 . S
H2355 C2369 0.929 . S
H2356 C2370 0.931 . S
H2357 C2372 0.930 1_554 S
C2358 H2346 0.930 1_556 S
C2358 C2359 1.399 . S
C2358 C2363 1.399 . S
C2359 C2358 1.399 . S
C2359 C2360 1.376 . S
C2360 H2347 0.930 . S
C2360 C2359 1.376 . S
C2360 C2361 1.388 . S
C2361 H2348 0.930 . S
C2361 C2360 1.388 . S
C2361 C2362 1.390 . S
C2362 C2361 1.390 . S
C2362 C2363 1.394 . S
C2362 C2368 1.465 . S
C2363 C2358 1.399 . S
C2363 C2362 1.394 . S
C2363 C2364 1.516 1_556 S
C2364 C2363 1.516 1_554 S
C2364 C2365 1.502 . S
C2364 C2366 1.561 . S
C2364 C2367 1.526 1_554 S
C2365 H2349 0.959 . S
C2365 H2350 0.959 . S
C2365 H2351 0.961 . S
C2365 C2364 1.502 . S
C2366 H2352 0.960 . S
C2366 H2353 0.961 . S
C2366 H2354 0.959 . S
C2366 C2364 1.561 . S
C2367 C2364 1.526 1_556 S
C2367 C2368 1.396 . S
C2367 C2372 1.390 . S
C2368 C2362 1.465 . S
C2368 C2367 1.396 . S
C2368 C2369 1.399 . S
C2369 H2355 0.929 . S
C2369 C2368 1.399 . S
C2369 C2370 1.385 . S
C2370 H2356 0.931 . S
C2370 C2369 1.385 . S
C2370 C2371 1.389 . S
C2371 C2370 1.389 . S
C2371 C2372 1.387 . S
C2372 H2357 0.930 1_556 S
C2372 C2367 1.390 . S
C2372 C2371 1.387 . S
H2373 C2385 0.930 . S
H2374 C2387 0.930 . S
H2375 C2388 0.930 . S
H2376 C2392 0.959 . S
H2377 C2392 0.959 . S
H2378 C2392 0.961 . S
H2379 C2393 0.960 . S
H2380 C2393 0.961 . S
H2381 C2393 0.959 1_545 S
H2382 C2396 0.929 . S
H2383 C2397 0.931 . S
H2384 C2399 0.930 . S
C2385 H2373 0.930 . S
C2385 C2386 1.399 1_565 S
C2385 C2390 1.399 . S
C2386 C2385 1.399 1_545 S
C2386 C2387 1.376 . S
C2387 H2374 0.930 . S
C2387 C2386 1.376 . S
C2387 C2388 1.388 . S
C2388 H2375 0.930 . S
C2388 C2387 1.388 . S
C2388 C2389 1.390 . S
C2389 C2388 1.390 . S
C2389 C2390 1.394 1_545 S
C2389 C2395 1.465 . S
C2390 C2385 1.399 . S
C2390 C2389 1.394 1_565 S
C2390 C2391 1.516 . S
C2391 C2390 1.516 . S
C2391 C2392 1.502 . S
C2391 C2393 1.561 . S
C2391 C2394 1.526 . S
C2392 H2376 0.959 . S
C2392 H2377 0.959 . S
C2392 H2378 0.961 . S
C2392 C2391 1.502 . S
C2393 H2379 0.960 . S
C2393 H2380 0.961 . S
C2393 H2381 0.959 1_565 S
C2393 C2391 1.561 . S
C2394 C2391 1.526 . S
C2394 C2395 1.396 1_565 S
C2394 C2399 1.390 . S
C2395 C2389 1.465 . S
C2395 C2394 1.396 1_545 S
C2395 C2396 1.399 . S
C2396 H2382 0.929 . S
C2396 C2395 1.399 . S
C2396 C2397 1.385 . S
C2397 H2383 0.931 . S
C2397 C2396 1.385 . S
C2397 C2398 1.389 . S
C2398 C2397 1.389 . S
C2398 C2399 1.387 1_545 S
C2399 H2384 0.930 . S
C2399 C2394 1.390 . S
C2399 C2398 1.387 1_565 S
H2400 C2412 0.930 . S
H2401 C2414 0.930 . S
H2402 C2415 0.930 . S
H2403 C2419 0.959 . S
H2404 C2419 0.959 . S
H2405 C2419 0.961 . S
H2406 C2420 0.960 . S
H2407 C2420 0.961 . S
H2408 C2420 0.959 . S
H2409 C2423 0.929 . S
H2410 C2424 0.931 . S
H2411 C2426 0.930 . S
C2412 H2400 0.930 . S
C2412 C2413 1.399 . S
C2412 C2417 1.399 . S
C2413 C2412 1.399 . S
C2413 C2414 1.376 . S
C2414 H2401 0.930 . S
C2414 C2413 1.376 . S
C2414 C2415 1.388 . S
C2415 H2402 0.930 . S
C2415 C2414 1.388 . S
C2415 C2416 1.390 . S
C2416 C2415 1.390 . S
C2416 C2417 1.394 . S
C2416 C2422 1.465 . S
C2417 C2412 1.399 . S
C2417 C2416 1.394 . S
C2417 C2418 1.516 . S
C2418 C2417 1.516 . S
C2418 C2419 1.502 . S
C2418 C2420 1.561 . S
C2418 C2421 1.526 . S
C2419 H2403 0.959 . S
C2419 H2404 0.959 . S
C2419 H2405 0.961 . S
C2419 C2418 1.502 . S
C2420 H2406 0.960 . S
C2420 H2407 0.961 . S
C2420 H2408 0.959 . S
C2420 C2418 1.561 . S
C2421 C2418 1.526 . S
C2421 C2422 1.396 . S
C2421 C2426 1.390 . S
C2422 C2416 1.465 . S
C2422 C2421 1.396 . S
C2422 C2423 1.399 . S
C2423 H2409 0.929 . S
C2423 C2422 1.399 . S
C2423 C2424 1.385 . S
C2424 H2410 0.931 . S
C2424 C2423 1.385 . S
C2424 C2425 1.389 . S
C2425 C2424 1.389 . S
C2425 C2426 1.387 . S
C2426 H2411 0.930 . S
C2426 C2421 1.390 . S
C2426 C2425 1.387 . S
H2427 C2439 0.930 . S
H2428 C2441 0.930 . S
H2429 C2442 0.930 . S
H2430 C2446 0.959 . S
H2431 C2446 0.959 . S
H2432 C2446 0.961 . S
H2433 C2447 0.960 . S
H2434 C2447 0.961 . S
H2435 C2447 0.959 . S
H2436 C2450 0.929 . S
H2437 C2451 0.931 . S
H2438 C2453 0.930 . S
C2439 H2427 0.930 . S
C2439 C2440 1.399 . S
C2439 C2444 1.399 . S
C2440 C2439 1.399 . S
C2440 C2441 1.376 . S
C2441 H2428 0.930 . S
C2441 C2440 1.376 . S
C2441 C2442 1.388 . S
C2442 H2429 0.930 . S
C2442 C2441 1.388 . S
C2442 C2443 1.390 . S
C2443 C2442 1.390 . S
C2443 C2444 1.394 . S
C2443 C2449 1.465 . S
C2444 C2439 1.399 . S
C2444 C2443 1.394 . S
C2444 C2445 1.516 . S
C2445 C2444 1.516 . S
C2445 C2446 1.502 1_455 S
C2445 C2447 1.561 . S
C2445 C2448 1.526 . S
C2446 H2430 0.959 . S
C2446 H2431 0.959 . S
C2446 H2432 0.961 . S
C2446 C2445 1.502 1_655 S
C2447 H2433 0.960 . S
C2447 H2434 0.961 . S
C2447 H2435 0.959 . S
C2447 C2445 1.561 . S
C2448 C2445 1.526 . S
C2448 C2449 1.396 . S
C2448 C2453 1.390 . S
C2449 C2443 1.465 . S
C2449 C2448 1.396 . S
C2449 C2450 1.399 . S
C2450 H2436 0.929 . S
C2450 C2449 1.399 . S
C2450 C2451 1.385 . S
C2451 H2437 0.931 . S
C2451 C2450 1.385 . S
C2451 C2452 1.389 . S
C2452 C2451 1.389 . S
C2452 C2453 1.387 . S
C2453 H2438 0.930 . S
C2453 C2448 1.390 . S
C2453 C2452 1.387 . S
H2454 C2466 0.930 . S
H2455 C2468 0.930 . S
H2456 C2469 0.930 . S
H2457 C2473 0.959 . S
H2458 C2473 0.959 . S
H2459 C2473 0.961 . S
H2460 C2474 0.960 . S
H2461 C2474 0.961 . S
H2462 C2474 0.959 . S
H2463 C2477 0.929 . S
H2464 C2478 0.931 . S
H2465 C2480 0.930 . S
C2466 H2454 0.930 . S
C2466 C2467 1.399 . S
C2466 C2471 1.399 . S
C2467 C2466 1.399 . S
C2467 C2468 1.376 . S
C2468 H2455 0.930 . S
C2468 C2467 1.376 . S
C2468 C2469 1.388 . S
C2469 H2456 0.930 . S
C2469 C2468 1.388 . S
C2469 C2470 1.390 . S
C2470 C2469 1.390 . S
C2470 C2471 1.394 . S
C2470 C2476 1.465 . S
C2471 C2466 1.399 . S
C2471 C2470 1.394 . S
C2471 C2472 1.516 . S
C2472 C2471 1.516 . S
C2472 C2473 1.502 . S
C2472 C2474 1.561 . S
C2472 C2475 1.526 . S
C2473 H2457 0.959 . S
C2473 H2458 0.959 . S
C2473 H2459 0.961 . S
C2473 C2472 1.502 . S
C2474 H2460 0.960 . S
C2474 H2461 0.961 . S
C2474 H2462 0.959 . S
C2474 C2472 1.561 . S
C2475 C2472 1.526 . S
C2475 C2476 1.396 . S
C2475 C2480 1.390 . S
C2476 C2470 1.465 . S
C2476 C2475 1.396 . S
C2476 C2477 1.399 . S
C2477 H2463 0.929 . S
C2477 C2476 1.399 . S
C2477 C2478 1.385 . S
C2478 H2464 0.931 . S
C2478 C2477 1.385 . S
C2478 C2479 1.389 . S
C2479 C2478 1.389 . S
C2479 C2480 1.387 . S
C2480 H2465 0.930 . S
C2480 C2475 1.390 . S
C2480 C2479 1.387 . S
H2481 C2493 0.930 . S
H2482 C2495 0.930 . S
H2483 C2496 0.930 1_455 S
H2484 C2500 0.959 . S
H2485 C2500 0.959 . S
H2486 C2500 0.961 . S
H2487 C2501 0.960 . S
H2488 C2501 0.961 . S
H2489 C2501 0.932 1_455 S
H2490 C2504 0.929 1_455 S
H2491 C2505 0.931 . S
H2492 C2507 0.930 . S
C2493 H2481 0.930 . S
C2493 C2494 1.399 . S
C2493 C2498 1.399 . S
C2494 C2493 1.399 . S
C2494 C2495 1.376 . S
C2495 H2482 0.930 . S
C2495 C2494 1.376 . S
C2495 C2496 1.388 . S
C2496 H2483 0.930 1_655 S
C2496 C2495 1.388 . S
C2496 C2497 1.390 . S
C2497 C2496 1.390 . S
C2497 C2498 1.394 . S
C2497 C2503 1.465 . S
C2498 C2493 1.399 . S
C2498 C2497 1.394 . S
C2498 C2499 1.516 . S
C2499 C2498 1.516 . S
C2499 C2500 1.502 . S
C2499 C2501 1.561 . S
C2499 C2502 1.526 . S
C2500 H2484 0.959 . S
C2500 H2485 0.959 . S
C2500 H2486 0.961 . S
C2500 C2499 1.502 . S
C2501 H2487 0.960 . S
C2501 H2488 0.961 . S
C2501 H2489 0.932 1_655 S
C2501 C2499 1.561 . S
C2502 C2499 1.526 . S
C2502 C2503 1.396 . S
C2502 C2507 1.390 . S
C2503 C2497 1.465 . S
C2503 C2502 1.396 . S
C2503 C2504 1.399 . S
C2504 H2490 0.929 1_655 S
C2504 C2503 1.399 . S
C2504 C2505 1.385 . S
C2505 H2491 0.931 . S
C2505 C2504 1.385 . S
C2505 C2506 1.389 . S
C2506 C2505 1.389 . S
C2506 C2507 1.387 . S
C2507 H2492 0.930 . S
C2507 C2502 1.390 . S
C2507 C2506 1.387 . S
H2508 C2520 0.930 . S
H2509 C2522 0.930 . S
H2510 C2523 0.930 . S
H2511 C2527 0.960 . S
H2512 C2527 0.967 . S
H2513 C2527 0.952 1_556 S
H2514 C2528 0.955 1_556 S
H2515 C2528 0.965 . S
H2516 C2528 0.959 . S
H2517 C2531 0.929 . S
H2518 C2532 0.931 . S
H2519 C2534 0.930 . S
C2520 H2508 0.930 . S
C2520 C2521 1.399 1_655 S
C2520 C2525 1.399 . S
C2521 C2520 1.399 1_455 S
C2521 C2522 1.376 . S
C2522 H2509 0.930 . S
C2522 C2521 1.376 . S
C2522 C2523 1.388 . S
C2523 H2510 0.930 . S
C2523 C2522 1.388 . S
C2523 C2524 1.390 . S
C2524 C2523 1.390 . S
C2524 C2525 1.394 1_455 S
C2524 C2530 1.465 1_556 S
C2525 C2520 1.399 . S
C2525 C2524 1.394 1_655 S
C2525 C2526 1.520 1_556 S
C2526 C2525 1.520 1_554 S
C2526 C2527 1.502 . S
C2526 C2528 1.561 1_655 S
C2526 C2529 1.522 . S
C2527 H2511 0.960 . S
C2527 H2512 0.967 . S
C2527 H2513 0.952 1_554 S
C2527 C2526 1.502 . S
C2528 H2514 0.955 1_554 S
C2528 H2515 0.965 . S
C2528 H2516 0.959 . S
C2528 C2526 1.561 1_455 S
C2529 C2526 1.522 . S
C2529 C2530 1.396 1_655 S
C2529 C2534 1.390 . S
C2530 C2524 1.465 1_554 S
C2530 C2529 1.396 1_455 S
C2530 C2531 1.399 . S
C2531 H2517 0.929 . S
C2531 C2530 1.399 . S
C2531 C2532 1.385 . S
C2532 H2518 0.931 . S
C2532 C2531 1.385 . S
C2532 C2533 1.408 . S
C2533 C2532 1.408 . S
C2533 C2534 1.375 1_455 S
C2534 H2519 0.930 . S
C2534 C2529 1.390 . S
C2534 C2533 1.375 1_655 S
H2535 C2547 0.930 . S
H2536 C2549 0.930 . S
H2537 C2550 0.930 . S
H2538 C2554 0.959 . S
H2539 C2554 0.959 . S
H2540 C2554 0.961 . S
H2541 C2555 0.960 . S
H2542 C2555 0.961 . S
H2543 C2555 0.959 . S
H2544 C2558 0.929 . S
H2545 C2559 0.931 . S
H2546 C2561 0.930 . S
C2547 H2535 0.930 . S
C2547 C2548 1.399 . S
C2547 C2552 1.399 . S
C2548 C2547 1.399 . S
C2548 C2549 1.376 . S
C2549 H2536 0.930 . S
C2549 C2548 1.376 . S
C2549 C2550 1.388 . S
C2550 H2537 0.930 . S
C2550 C2549 1.388 . S
C2550 C2551 1.390 . S
C2551 C2550 1.390 . S
C2551 C2552 1.394 . S
C2551 C2557 1.465 . S
C2552 C2547 1.399 . S
C2552 C2551 1.394 . S
C2552 C2553 1.516 . S
C2553 C2552 1.516 . S
C2553 C2554 1.502 . S
C2553 C2555 1.561 . S
C2553 C2556 1.526 . S
C2554 H2538 0.959 . S
C2554 H2539 0.959 . S
C2554 H2540 0.961 . S
C2554 C2553 1.502 . S
C2555 H2541 0.960 . S
C2555 H2542 0.961 . S
C2555 H2543 0.959 . S
C2555 C2553 1.561 . S
C2556 C2553 1.526 . S
C2556 C2557 1.396 . S
C2556 C2561 1.390 . S
C2557 C2551 1.465 . S
C2557 C2556 1.396 . S
C2557 C2558 1.399 . S
C2558 H2544 0.929 . S
C2558 C2557 1.399 . S
C2558 C2559 1.385 . S
C2559 H2545 0.931 . S
C2559 C2558 1.385 . S
C2559 C2560 1.389 . S
C2560 C2559 1.389 . S
C2560 C2561 1.387 . S
C2561 H2546 0.930 . S
C2561 C2556 1.390 . S
C2561 C2560 1.387 . S
H2562 C2574 0.930 . S
H2563 C2576 0.930 . S
H2564 C2577 0.930 . S
H2565 C2581 0.962 . S
H2566 C2581 0.979 . S
H2567 C2581 0.939 1_554 S
H2568 C2582 0.944 1_554 S
H2569 C2582 0.976 . S
H2570 C2582 0.961 . S
H2571 C2585 0.929 . S
H2572 C2586 0.931 . S
H2573 C2588 0.930 . S
C2574 H2562 0.930 . S
C2574 C2575 1.399 . S
C2574 C2579 1.399 . S
C2575 C2574 1.399 . S
C2575 C2576 1.376 . S
C2576 H2563 0.930 . S
C2576 C2575 1.376 . S
C2576 C2577 1.388 . S
C2577 H2564 0.930 . S
C2577 C2576 1.388 . S
C2577 C2578 1.390 . S
C2578 C2577 1.390 . S
C2578 C2579 1.394 . S
C2578 C2584 1.465 1_554 S
C2579 C2574 1.399 . S
C2579 C2578 1.394 . S
C2579 C2580 1.513 1_554 S
C2580 C2579 1.513 1_556 S
C2580 C2581 1.502 . S
C2580 C2582 1.561 . S
C2580 C2583 1.529 . S
C2581 H2565 0.962 . S
C2581 H2566 0.979 . S
C2581 H2567 0.939 1_556 S
C2581 C2580 1.502 . S
C2582 H2568 0.944 1_556 S
C2582 H2569 0.976 . S
C2582 H2570 0.961 . S
C2582 C2580 1.561 . S
C2583 C2580 1.529 . S
C2583 C2584 1.396 . S
C2583 C2588 1.390 . S
C2584 C2578 1.465 1_556 S
C2584 C2583 1.396 . S
C2584 C2585 1.399 . S
C2585 H2571 0.929 . S
C2585 C2584 1.399 . S
C2585 C2586 1.385 . S
C2586 H2572 0.931 . S
C2586 C2585 1.385 . S
C2586 C2587 1.389 . S
C2587 C2586 1.389 . S
C2587 C2588 1.387 . S
C2588 H2573 0.930 . S
C2588 C2583 1.390 . S
C2588 C2587 1.387 . S
H2589 C2601 0.930 1_565 S
H2590 C2603 0.930 . S
H2591 C2604 0.930 . S
H2592 C2608 0.959 . S
H2593 C2608 0.959 . S
H2594 C2608 0.961 . S
H2595 C2609 0.960 . S
H2596 C2609 0.961 . S
H2597 C2609 0.959 . S
H2598 C2612 0.929 . S
H2599 C2613 0.931 . S
H2600 C2615 0.930 1_565 S
C2601 H2589 0.930 1_545 S
C2601 C2602 1.399 . S
C2601 C2606 1.399 . S
C2602 C2601 1.399 . S
C2602 C2603 1.376 . S
C2603 H2590 0.930 . S
C2603 C2602 1.376 . S
C2603 C2604 1.388 . S
C2604 H2591 0.930 . S
C2604 C2603 1.388 . S
C2604 C2605 1.390 . S
C2605 C2604 1.390 . S
C2605 C2606 1.394 . S
C2605 C2611 1.465 . S
C2606 C2601 1.399 . S
C2606 C2605 1.394 . S
C2606 C2607 1.516 1_545 S
C2607 C2606 1.516 1_565 S
C2607 C2608 1.502 . S
C2607 C2609 1.561 . S
C2607 C2610 1.526 1_565 S
C2608 H2592 0.959 . S
C2608 H2593 0.959 . S
C2608 H2594 0.961 . S
C2608 C2607 1.502 . S
C2609 H2595 0.960 . S
C2609 H2596 0.961 . S
C2609 H2597 0.959 . S
C2609 C2607 1.561 . S
C2610 C2607 1.526 1_545 S
C2610 C2611 1.396 . S
C2610 C2615 1.390 . S
C2611 C2605 1.465 . S
C2611 C2610 1.396 . S
C2611 C2612 1.399 . S
C2612 H2598 0.929 . S
C2612 C2611 1.399 . S
C2612 C2613 1.385 . S
C2613 H2599 0.931 . S
C2613 C2612 1.385 . S
C2613 C2614 1.389 . S
C2614 C2613 1.389 . S
C2614 C2615 1.387 . S
C2615 H2600 0.930 1_545 S
C2615 C2610 1.390 . S
C2615 C2614 1.387 . S
H2616 C2628 0.930 . S
H2617 C2630 0.930 . S
H2618 C2631 0.930 . S
H2619 C2635 0.960 . S
H2620 C2635 0.962 . S
H2621 C2635 0.957 1_545 S
H2622 C2636 0.957 . S
H2623 C2636 0.964 1_565 S
H2624 C2636 0.959 1_565 S
H2625 C2639 0.929 . S
H2626 C2640 0.931 . S
H2627 C2642 0.930 . S
C2628 H2616 0.930 . S
C2628 C2629 1.399 1_554 S
C2628 C2633 1.399 . S
C2629 C2628 1.399 1_556 S
C2629 C2630 1.376 . S
C2630 H2617 0.930 . S
C2630 C2629 1.376 . S
C2630 C2631 1.388 . S
C2631 H2618 0.930 . S
C2631 C2630 1.388 . S
C2631 C2632 1.390 . S
C2632 C2631 1.390 . S
C2632 C2633 1.394 1_556 S
C2632 C2638 1.465 1_545 S
C2633 C2628 1.399 . S
C2633 C2632 1.394 1_554 S
C2633 C2634 1.516 . S
C2634 C2633 1.516 . S
C2634 C2635 1.502 1_545 S
C2634 C2636 1.561 . S
C2634 C2637 1.526 1_545 S
C2635 H2619 0.960 . S
C2635 H2620 0.962 . S
C2635 H2621 0.957 1_565 S
C2635 C2634 1.502 1_565 S
C2636 H2622 0.957 . S
C2636 H2623 0.964 1_545 S
C2636 H2624 0.959 1_545 S
C2636 C2634 1.561 . S
C2637 C2634 1.526 1_565 S
C2637 C2638 1.396 1_554 S
C2637 C2642 1.390 . S
C2638 C2632 1.465 1_565 S
C2638 C2637 1.396 1_556 S
C2638 C2639 1.399 . S
C2639 H2625 0.929 . S
C2639 C2638 1.399 . S
C2639 C2640 1.385 . S
C2640 H2626 0.931 . S
C2640 C2639 1.385 . S
C2640 C2641 1.389 . S
C2641 C2640 1.389 . S
C2641 C2642 1.387 1_556 S
C2642 H2627 0.930 . S
C2642 C2637 1.390 . S
C2642 C2641 1.387 1_554 S
H2643 C2655 0.930 . S
H2644 C2657 0.930 . S
H2645 C2658 0.930 . S
H2646 C2662 0.959 . S
H2647 C2662 0.959 . S
H2648 C2662 0.961 . S
H2649 C2663 0.960 . S
H2650 C2663 0.961 . S
H2651 C2663 0.959 . S
H2652 C2666 0.929 . S
H2653 C2667 0.931 . S
H2654 C2669 0.930 . S
C2655 H2643 0.930 . S
C2655 C2656 1.399 . S
C2655 C2660 1.399 . S
C2656 C2655 1.399 . S
C2656 C2657 1.376 . S
C2657 H2644 0.930 . S
C2657 C2656 1.376 . S
C2657 C2658 1.388 . S
C2658 H2645 0.930 . S
C2658 C2657 1.388 . S
C2658 C2659 1.390 . S
C2659 C2658 1.390 . S
C2659 C2660 1.394 . S
C2659 C2665 1.465 . S
C2660 C2655 1.399 . S
C2660 C2659 1.394 . S
C2660 C2661 1.516 . S
C2661 C2660 1.516 . S
C2661 C2662 1.502 . S
C2661 C2663 1.561 . S
C2661 C2664 1.526 . S
C2662 H2646 0.959 . S
C2662 H2647 0.959 . S
C2662 H2648 0.961 . S
C2662 C2661 1.502 . S
C2663 H2649 0.960 . S
C2663 H2650 0.961 . S
C2663 H2651 0.959 . S
C2663 C2661 1.561 . S
C2664 C2661 1.526 . S
C2664 C2665 1.396 . S
C2664 C2669 1.390 . S
C2665 C2659 1.465 . S
C2665 C2664 1.396 . S
C2665 C2666 1.399 . S
C2666 H2652 0.929 . S
C2666 C2665 1.399 . S
C2666 C2667 1.385 . S
C2667 H2653 0.931 . S
C2667 C2666 1.385 . S
C2667 C2668 1.389 . S
C2668 C2667 1.389 . S
C2668 C2669 1.387 . S
C2669 H2654 0.930 . S
C2669 C2664 1.390 . S
C2669 C2668 1.387 . S
H2670 C2682 0.930 . S
H2671 C2684 0.930 . S
H2672 C2685 0.930 . S
H2673 C2689 0.959 . S
H2674 C2689 0.959 . S
H2675 C2689 0.961 . S
H2676 C2690 0.960 . S
H2677 C2690 0.961 . S
H2678 C2690 0.959 . S
H2679 C2693 0.929 . S
H2680 C2694 0.931 . S
H2681 C2696 0.930 . S
C2682 H2670 0.930 . S
C2682 C2683 1.399 . S
C2682 C2687 1.399 . S
C2683 C2682 1.399 . S
C2683 C2684 1.376 . S
C2684 H2671 0.930 . S
C2684 C2683 1.376 . S
C2684 C2685 1.388 . S
C2685 H2672 0.930 . S
C2685 C2684 1.388 . S
C2685 C2686 1.390 . S
C2686 C2685 1.390 . S
C2686 C2687 1.394 . S
C2686 C2692 1.465 . S
C2687 C2682 1.399 . S
C2687 C2686 1.394 . S
C2687 C2688 1.516 . S
C2688 C2687 1.516 . S
C2688 C2689 1.502 . S
C2688 C2690 1.561 . S
C2688 C2691 1.526 . S
C2689 H2673 0.959 . S
C2689 H2674 0.959 . S
C2689 H2675 0.961 . S
C2689 C2688 1.502 . S
C2690 H2676 0.960 . S
C2690 H2677 0.961 . S
C2690 H2678 0.959 . S
C2690 C2688 1.561 . S
C2691 C2688 1.526 . S
C2691 C2692 1.396 . S
C2691 C2696 1.390 . S
C2692 C2686 1.465 . S
C2692 C2691 1.396 . S
C2692 C2693 1.399 . S
C2693 H2679 0.929 . S
C2693 C2692 1.399 . S
C2693 C2694 1.385 . S
C2694 H2680 0.931 . S
C2694 C2693 1.385 . S
C2694 C2695 1.389 . S
C2695 C2694 1.389 . S
C2695 C2696 1.387 . S
C2696 H2681 0.930 . S
C2696 C2691 1.390 . S
C2696 C2695 1.387 . S
H2697 C2709 0.930 . S
H2698 C2711 0.930 . S
H2699 C2712 0.930 . S
H2700 C2716 0.959 . S
H2701 C2716 0.959 . S
H2702 C2716 0.961 . S
H2703 C2717 0.960 . S
H2704 C2717 0.961 . S
H2705 C2717 0.959 . S
H2706 C2720 0.929 . S
H2707 C2721 0.931 . S
H2708 C2723 0.930 . S
C2709 H2697 0.930 . S
C2709 C2710 1.399 . S
C2709 C2714 1.399 . S
C2710 C2709 1.399 . S
C2710 C2711 1.376 1_565 S
C2711 H2698 0.930 . S
C2711 C2710 1.376 1_545 S
C2711 C2712 1.388 . S
C2712 H2699 0.930 . S
C2712 C2711 1.388 . S
C2712 C2713 1.390 1_545 S
C2713 C2712 1.390 1_565 S
C2713 C2714 1.394 . S
C2713 C2719 1.465 . S
C2714 C2709 1.399 . S
C2714 C2713 1.394 . S
C2714 C2715 1.516 . S
C2715 C2714 1.516 . S
C2715 C2716 1.502 . S
C2715 C2717 1.561 . S
C2715 C2718 1.526 . S
C2716 H2700 0.959 . S
C2716 H2701 0.959 . S
C2716 H2702 0.961 . S
C2716 C2715 1.502 . S
C2717 H2703 0.960 . S
C2717 H2704 0.961 . S
C2717 H2705 0.959 . S
C2717 C2715 1.561 . S
C2718 C2715 1.526 . S
C2718 C2719 1.396 . S
C2718 C2723 1.390 . S
C2719 C2713 1.465 . S
C2719 C2718 1.396 . S
C2719 C2720 1.399 1_565 S
C2720 H2706 0.929 . S
C2720 C2719 1.399 1_545 S
C2720 C2721 1.385 . S
C2721 H2707 0.931 . S
C2721 C2720 1.385 . S
C2721 C2722 1.389 1_545 S
C2722 C2721 1.389 1_565 S
C2722 C2723 1.387 . S
C2723 H2708 0.930 . S
C2723 C2718 1.390 . S
C2723 C2722 1.387 . S
H2724 C2736 0.930 . S
H2725 C2738 0.930 . S
H2726 C2739 0.930 . S
H2727 C2743 0.960 . S
H2728 C2743 0.967 . S
H2729 C2743 0.952 1_545 S
H2730 C2744 0.965 . S
H2731 C2744 0.956 1_565 S
H2732 C2744 0.958 1_565 S
H2733 C2747 0.929 . S
H2734 C2748 0.931 . S
H2735 C2750 0.930 . S
C2736 H2724 0.930 . S
C2736 C2737 1.399 . S
C2736 C2741 1.399 . S
C2737 C2736 1.399 . S
C2737 C2738 1.376 . S
C2738 H2725 0.930 . S
C2738 C2737 1.376 . S
C2738 C2739 1.388 . S
C2739 H2726 0.930 . S
C2739 C2738 1.388 . S
C2739 C2740 1.390 . S
C2740 C2739 1.390 . S
C2740 C2741 1.394 . S
C2740 C2746 1.465 1_545 S
C2741 C2736 1.399 . S
C2741 C2740 1.394 . S
C2741 C2742 1.516 . S
C2742 C2741 1.516 . S
C2742 C2743 1.502 1_545 S
C2742 C2744 1.561 . S
C2742 C2745 1.526 1_545 S
C2743 H2727 0.960 . S
C2743 H2728 0.967 . S
C2743 H2729 0.952 1_565 S
C2743 C2742 1.502 1_565 S
C2744 H2730 0.965 . S
C2744 H2731 0.956 1_545 S
C2744 H2732 0.958 1_545 S
C2744 C2742 1.561 . S
C2745 C2742 1.526 1_565 S
C2745 C2746 1.396 . S
C2745 C2750 1.390 . S
C2746 C2740 1.465 1_565 S
C2746 C2745 1.396 . S
C2746 C2747 1.399 . S
C2747 H2733 0.929 . S
C2747 C2746 1.399 . S
C2747 C2748 1.385 . S
C2748 H2734 0.931 . S
C2748 C2747 1.385 . S
C2748 C2749 1.389 . S
C2749 C2748 1.389 . S
C2749 C2750 1.387 . S
C2750 H2735 0.930 . S
C2750 C2745 1.390 . S
C2750 C2749 1.387 . S
H2751 C2763 0.930 . S
H2752 C2765 0.930 . S
H2753 C2766 0.930 . S
H2754 C2770 0.959 . S
H2755 C2770 0.959 . S
H2756 C2770 0.961 . S
H2757 C2771 0.960 . S
H2758 C2771 0.961 . S
H2759 C2771 0.959 . S
H2760 C2774 0.929 . S
H2761 C2775 0.931 . S
H2762 C2777 0.930 . S
C2763 H2751 0.930 . S
C2763 C2764 1.399 . S
C2763 C2768 1.399 . S
C2764 C2763 1.399 . S
C2764 C2765 1.376 . S
C2765 H2752 0.930 . S
C2765 C2764 1.376 . S
C2765 C2766 1.388 . S
C2766 H2753 0.930 . S
C2766 C2765 1.388 . S
C2766 C2767 1.390 . S
C2767 C2766 1.390 . S
C2767 C2768 1.394 . S
C2767 C2773 1.465 . S
C2768 C2763 1.399 . S
C2768 C2767 1.394 . S
C2768 C2769 1.516 . S
C2769 C2768 1.516 . S
C2769 C2770 1.502 . S
C2769 C2771 1.561 . S
C2769 C2772 1.526 . S
C2770 H2754 0.959 . S
C2770 H2755 0.959 . S
C2770 H2756 0.961 . S
C2770 C2769 1.502 . S
C2771 H2757 0.960 . S
C2771 H2758 0.961 . S
C2771 H2759 0.959 . S
C2771 C2769 1.561 . S
C2772 C2769 1.526 . S
C2772 C2773 1.396 . S
C2772 C2777 1.390 . S
C2773 C2767 1.465 . S
C2773 C2772 1.396 . S
C2773 C2774 1.399 . S
C2774 H2760 0.929 . S
C2774 C2773 1.399 . S
C2774 C2775 1.385 . S
C2775 H2761 0.931 . S
C2775 C2774 1.385 . S
C2775 C2776 1.389 . S
C2776 C2775 1.389 . S
C2776 C2777 1.387 . S
C2777 H2762 0.930 . S
C2777 C2772 1.390 . S
C2777 C2776 1.387 . S
H2778 C2790 0.930 . S
H2779 C2792 0.930 . S
H2780 C2793 0.930 . S
H2781 C2797 0.959 . S
H2782 C2797 0.959 . S
H2783 C2797 0.961 . S
H2784 C2798 0.960 . S
H2785 C2798 0.961 . S
H2786 C2798 0.959 . S
H2787 C2801 0.929 . S
H2788 C2802 0.931 . S
H2789 C2804 0.930 . S
C2790 H2778 0.930 . S
C2790 C2791 1.399 1_554 S
C2790 C2795 1.399 . S
C2791 C2790 1.399 1_556 S
C2791 C2792 1.376 . S
C2792 H2779 0.930 . S
C2792 C2791 1.376 . S
C2792 C2793 1.388 . S
C2793 H2780 0.930 . S
C2793 C2792 1.388 . S
C2793 C2794 1.390 . S
C2794 C2793 1.390 . S
C2794 C2795 1.394 1_556 S
C2794 C2800 1.465 . S
C2795 C2790 1.399 . S
C2795 C2794 1.394 1_554 S
C2795 C2796 1.516 . S
C2796 C2795 1.516 . S
C2796 C2797 1.502 . S
C2796 C2798 1.561 . S
C2796 C2799 1.526 . S
C2797 H2781 0.959 . S
C2797 H2782 0.959 . S
C2797 H2783 0.961 . S
C2797 C2796 1.502 . S
C2798 H2784 0.960 . S
C2798 H2785 0.961 . S
C2798 H2786 0.959 . S
C2798 C2796 1.561 . S
C2799 C2796 1.526 . S
C2799 C2800 1.396 1_554 S
C2799 C2804 1.390 . S
C2800 C2794 1.465 . S
C2800 C2799 1.396 1_556 S
C2800 C2801 1.399 . S
C2801 H2787 0.929 . S
C2801 C2800 1.399 . S
C2801 C2802 1.385 . S
C2802 H2788 0.931 . S
C2802 C2801 1.385 . S
C2802 C2803 1.389 . S
C2803 C2802 1.389 . S
C2803 C2804 1.387 1_556 S
C2804 H2789 0.930 . S
C2804 C2799 1.390 . S
C2804 C2803 1.387 1_554 S
H2805 C2817 0.930 1_556 S
H2806 C2819 0.930 . S
H2807 C2820 0.930 . S
H2808 C2824 0.959 . S
H2809 C2824 0.959 . S
H2810 C2824 0.961 . S
H2811 C2825 0.960 . S
H2812 C2825 0.961 . S
H2813 C2825 0.959 . S
H2814 C2828 0.929 . S
H2815 C2829 0.931 . S
H2816 C2831 0.930 1_556 S
C2817 H2805 0.930 1_554 S
C2817 C2818 1.399 . S
C2817 C2822 1.399 . S
C2818 C2817 1.399 . S
C2818 C2819 1.376 . S
C2819 H2806 0.930 . S
C2819 C2818 1.376 . S
C2819 C2820 1.388 . S
C2820 H2807 0.930 . S
C2820 C2819 1.388 . S
C2820 C2821 1.390 . S
C2821 C2820 1.390 . S
C2821 C2822 1.394 . S
C2821 C2827 1.465 . S
C2822 C2817 1.399 . S
C2822 C2821 1.394 . S
C2822 C2823 1.516 1_554 S
C2823 C2822 1.516 1_556 S
C2823 C2824 1.502 . S
C2823 C2825 1.561 . S
C2823 C2826 1.526 1_556 S
C2824 H2808 0.959 . S
C2824 H2809 0.959 . S
C2824 H2810 0.961 . S
C2824 C2823 1.502 . S
C2825 H2811 0.960 . S
C2825 H2812 0.961 . S
C2825 H2813 0.959 . S
C2825 C2823 1.561 . S
C2826 C2823 1.526 1_554 S
C2826 C2827 1.396 . S
C2826 C2831 1.390 . S
C2827 C2821 1.465 . S
C2827 C2826 1.396 . S
C2827 C2828 1.399 . S
C2828 H2814 0.929 . S
C2828 C2827 1.399 . S
C2828 C2829 1.385 . S
C2829 H2815 0.931 . S
C2829 C2828 1.385 . S
C2829 C2830 1.389 . S
C2830 C2829 1.389 . S
C2830 C2831 1.387 . S
C2831 H2816 0.930 1_554 S
C2831 C2826 1.390 . S
C2831 C2830 1.387 . S
H2832 C2844 0.930 . S
H2833 C2846 0.930 . S
H2834 C2847 0.930 . S
H2835 C2851 0.959 . S
H2836 C2851 0.959 . S
H2837 C2851 0.961 . S
H2838 C2852 0.960 . S
H2839 C2852 0.961 . S
H2840 C2852 0.959 . S
H2841 C2855 0.929 . S
H2842 C2856 0.931 . S
H2843 C2858 0.930 . S
C2844 H2832 0.930 . S
C2844 C2845 1.399 . S
C2844 C2849 1.399 . S
C2845 C2844 1.399 . S
C2845 C2846 1.376 . S
C2846 H2833 0.930 . S
C2846 C2845 1.376 . S
C2846 C2847 1.388 . S
C2847 H2834 0.930 . S
C2847 C2846 1.388 . S
C2847 C2848 1.390 . S
C2848 C2847 1.390 . S
C2848 C2849 1.394 . S
C2848 C2854 1.465 . S
C2849 C2844 1.399 . S
C2849 C2848 1.394 . S
C2849 C2850 1.516 . S
C2850 C2849 1.516 . S
C2850 C2851 1.502 . S
C2850 C2852 1.561 . S
C2850 C2853 1.526 . S
C2851 H2835 0.959 . S
C2851 H2836 0.959 . S
C2851 H2837 0.961 . S
C2851 C2850 1.502 . S
C2852 H2838 0.960 . S
C2852 H2839 0.961 . S
C2852 H2840 0.959 . S
C2852 C2850 1.561 . S
C2853 C2850 1.526 . S
C2853 C2854 1.396 . S
C2853 C2858 1.390 . S
C2854 C2848 1.465 . S
C2854 C2853 1.396 . S
C2854 C2855 1.399 . S
C2855 H2841 0.929 . S
C2855 C2854 1.399 . S
C2855 C2856 1.385 . S
C2856 H2842 0.931 . S
C2856 C2855 1.385 . S
C2856 C2857 1.389 . S
C2857 C2856 1.389 . S
C2857 C2858 1.387 . S
C2858 H2843 0.930 . S
C2858 C2853 1.390 . S
C2858 C2857 1.387 . S
H2859 C2871 0.930 . S
H2860 C2873 0.930 . S
H2861 C2874 0.930 . S
H2862 C2878 0.959 . S
H2863 C2878 0.959 . S
H2864 C2878 0.961 . S
H2865 C2879 0.960 . S
H2866 C2879 0.961 . S
H2867 C2879 0.959 . S
H2868 C2882 0.929 . S
H2869 C2883 0.931 . S
H2870 C2885 0.930 . S
C2871 H2859 0.930 . S
C2871 C2872 1.399 . S
C2871 C2876 1.399 . S
C2872 C2871 1.399 . S
C2872 C2873 1.376 1_556 S
C2873 H2860 0.930 . S
C2873 C2872 1.376 1_554 S
C2873 C2874 1.388 . S
C2874 H2861 0.930 . S
C2874 C2873 1.388 . S
C2874 C2875 1.390 1_554 S
C2875 C2874 1.390 1_556 S
C2875 C2876 1.394 . S
C2875 C2881 1.465 . S
C2876 C2871 1.399 . S
C2876 C2875 1.394 . S
C2876 C2877 1.516 . S
C2877 C2876 1.516 . S
C2877 C2878 1.502 . S
C2877 C2879 1.561 . S
C2877 C2880 1.526 . S
C2878 H2862 0.959 . S
C2878 H2863 0.959 . S
C2878 H2864 0.961 . S
C2878 C2877 1.502 . S
C2879 H2865 0.960 . S
C2879 H2866 0.961 . S
C2879 H2867 0.959 . S
C2879 C2877 1.561 . S
C2880 C2877 1.526 . S
C2880 C2881 1.396 . S
C2880 C2885 1.390 . S
C2881 C2875 1.465 . S
C2881 C2880 1.396 . S
C2881 C2882 1.399 1_556 S
C2882 H2868 0.929 . S
C2882 C2881 1.399 1_554 S
C2882 C2883 1.385 . S
C2883 H2869 0.931 . S
C2883 C2882 1.385 . S
C2883 C2884 1.389 1_554 S
C2884 C2883 1.389 1_556 S
C2884 C2885 1.387 . S
C2885 H2870 0.930 . S
C2885 C2880 1.390 . S
C2885 C2884 1.387 . S
H2886 C2898 0.930 . S
H2887 C2900 0.930 . S
H2888 C2901 0.930 . S
H2889 C2905 0.959 . S
H2890 C2905 0.959 . S
H2891 C2905 0.961 . S
H2892 C2906 0.960 . S
H2893 C2906 0.961 . S
H2894 C2906 0.959 . S
H2895 C2909 0.929 . S
H2896 C2910 0.931 . S
H2897 C2912 0.930 . S
C2898 H2886 0.930 . S
C2898 C2899 1.399 . S
C2898 C2903 1.399 . S
C2899 C2898 1.399 . S
C2899 C2900 1.376 . S
C2900 H2887 0.930 . S
C2900 C2899 1.376 . S
C2900 C2901 1.388 . S
C2901 H2888 0.930 . S
C2901 C2900 1.388 . S
C2901 C2902 1.390 . S
C2902 C2901 1.390 . S
C2902 C2903 1.394 . S
C2902 C2908 1.465 . S
C2903 C2898 1.399 . S
C2903 C2902 1.394 . S
C2903 C2904 1.516 . S
C2904 C2903 1.516 . S
C2904 C2905 1.502 . S
C2904 C2906 1.561 . S
C2904 C2907 1.526 . S
C2905 H2889 0.959 . S
C2905 H2890 0.959 . S
C2905 H2891 0.961 . S
C2905 C2904 1.502 . S
C2906 H2892 0.960 . S
C2906 H2893 0.961 . S
C2906 H2894 0.959 . S
C2906 C2904 1.561 . S
C2907 C2904 1.526 . S
C2907 C2908 1.396 . S
C2907 C2912 1.390 . S
C2908 C2902 1.465 . S
C2908 C2907 1.396 . S
C2908 C2909 1.399 . S
C2909 H2895 0.929 . S
C2909 C2908 1.399 . S
C2909 C2910 1.385 . S
C2910 H2896 0.931 . S
C2910 C2909 1.385 . S
C2910 C2911 1.389 . S
C2911 C2910 1.389 . S
C2911 C2912 1.387 . S
C2912 H2897 0.930 . S
C2912 C2907 1.390 . S
C2912 C2911 1.387 . S
H2913 C2925 0.930 . S
H2914 C2927 0.930 . S
H2915 C2928 0.930 . S
H2916 C2932 0.959 . S
H2917 C2932 0.959 . S
H2918 C2932 0.961 . S
H2919 C2933 0.960 . S
H2920 C2933 0.961 . S
H2921 C2933 0.959 . S
H2922 C2936 0.929 . S
H2923 C2937 0.931 . S
H2924 C2939 0.930 . S
C2925 H2913 0.930 . S
C2925 C2926 1.399 . S
C2925 C2930 1.399 . S
C2926 C2925 1.399 . S
C2926 C2927 1.376 . S
C2927 H2914 0.930 . S
C2927 C2926 1.376 . S
C2927 C2928 1.388 . S
C2928 H2915 0.930 . S
C2928 C2927 1.388 . S
C2928 C2929 1.390 . S
C2929 C2928 1.390 . S
C2929 C2930 1.394 . S
C2929 C2935 1.465 . S
C2930 C2925 1.399 . S
C2930 C2929 1.394 . S
C2930 C2931 1.516 . S
C2931 C2930 1.516 . S
C2931 C2932 1.502 . S
C2931 C2933 1.561 . S
C2931 C2934 1.526 . S
C2932 H2916 0.959 . S
C2932 H2917 0.959 . S
C2932 H2918 0.961 . S
C2932 C2931 1.502 . S
C2933 H2919 0.960 . S
C2933 H2920 0.961 . S
C2933 H2921 0.959 . S
C2933 C2931 1.561 . S
C2934 C2931 1.526 . S
C2934 C2935 1.396 . S
C2934 C2939 1.390 . S
C2935 C2929 1.465 . S
C2935 C2934 1.396 . S
C2935 C2936 1.399 . S
C2936 H2922 0.929 . S
C2936 C2935 1.399 . S
C2936 C2937 1.385 . S
C2937 H2923 0.931 . S
C2937 C2936 1.385 . S
C2937 C2938 1.389 . S
C2938 C2937 1.389 . S
C2938 C2939 1.387 . S
C2939 H2924 0.930 . S
C2939 C2934 1.390 . S
C2939 C2938 1.387 . S
H2940 C2952 0.930 . S
H2941 C2954 0.930 . S
H2942 C2955 0.930 . S
H2943 C2959 0.959 . S
H2944 C2959 0.959 . S
H2945 C2959 0.961 . S
H2946 C2960 0.960 . S
H2947 C2960 0.961 . S
H2948 C2960 0.959 1_655 S
H2949 C2963 0.929 . S
H2950 C2964 0.931 . S
H2951 C2966 0.930 . S
C2952 H2940 0.930 . S
C2952 C2953 1.399 . S
C2952 C2957 1.399 . S
C2953 C2952 1.399 . S
C2953 C2954 1.376 . S
C2954 H2941 0.930 . S
C2954 C2953 1.376 . S
C2954 C2955 1.388 . S
C2955 H2942 0.930 . S
C2955 C2954 1.388 . S
C2955 C2956 1.390 . S
C2956 C2955 1.390 . S
C2956 C2957 1.394 . S
C2956 C2962 1.465 . S
C2957 C2952 1.399 . S
C2957 C2956 1.394 . S
C2957 C2958 1.516 . S
C2958 C2957 1.516 . S
C2958 C2959 1.502 . S
C2958 C2960 1.561 . S
C2958 C2961 1.526 . S
C2959 H2943 0.959 . S
C2959 H2944 0.959 . S
C2959 H2945 0.961 . S
C2959 C2958 1.502 . S
C2960 H2946 0.960 . S
C2960 H2947 0.961 . S
C2960 H2948 0.959 1_455 S
C2960 C2958 1.561 . S
C2961 C2958 1.526 . S
C2961 C2962 1.396 . S
C2961 C2966 1.390 . S
C2962 C2956 1.465 . S
C2962 C2961 1.396 . S
C2962 C2963 1.399 . S
C2963 H2949 0.929 . S
C2963 C2962 1.399 . S
C2963 C2964 1.385 . S
C2964 H2950 0.931 . S
C2964 C2963 1.385 . S
C2964 C2965 1.389 . S
C2965 C2964 1.389 . S
C2965 C2966 1.387 . S
C2966 H2951 0.930 . S
C2966 C2961 1.390 . S
C2966 C2965 1.387 . S
H2967 C2979 0.930 . S
H2968 C2981 0.930 . S
H2969 C2982 0.930 . S
H2970 C2986 0.963 . S
H2971 C2986 0.988 . S
H2972 C2986 0.929 1_554 S
H2973 C2987 0.963 1_554 S
H2974 C2987 0.958 . S
H2975 C2987 0.959 . S
H2976 C2990 0.929 . S
H2977 C2991 0.931 . S
H2978 C2993 0.930 . S
C2979 H2967 0.930 . S
C2979 C2980 1.399 . S
C2979 C2984 1.399 . S
C2980 C2979 1.399 . S
C2980 C2981 1.376 . S
C2981 H2968 0.930 . S
C2981 C2980 1.376 . S
C2981 C2982 1.388 . S
C2982 H2969 0.930 . S
C2982 C2981 1.388 . S
C2982 C2983 1.390 . S
C2983 C2982 1.390 . S
C2983 C2984 1.394 . S
C2983 C2989 1.465 1_554 S
C2984 C2979 1.399 . S
C2984 C2983 1.394 . S
C2984 C2985 1.515 1_554 S
C2985 C2984 1.515 1_556 S
C2985 C2986 1.501 . S
C2985 C2987 1.561 . S
C2985 C2988 1.526 . S
C2986 H2970 0.963 . S
C2986 H2971 0.988 . S
C2986 H2972 0.929 1_556 S
C2986 C2985 1.501 . S
C2987 H2973 0.963 1_556 S
C2987 H2974 0.958 . S
C2987 H2975 0.959 . S
C2987 C2985 1.561 . S
C2988 C2985 1.526 . S
C2988 C2989 1.396 . S
C2988 C2993 1.390 . S
C2989 C2983 1.465 1_556 S
C2989 C2988 1.396 . S
C2989 C2990 1.399 . S
C2990 H2976 0.929 . S
C2990 C2989 1.399 . S
C2990 C2991 1.385 . S
C2991 H2977 0.931 . S
C2991 C2990 1.385 . S
C2991 C2992 1.389 . S
C2992 C2991 1.389 . S
C2992 C2993 1.387 . S
C2993 H2978 0.930 . S
C2993 C2988 1.390 . S
C2993 C2992 1.387 . S
H2994 C3006 0.930 . S
H2995 C3008 0.930 . S
H2996 C3009 0.930 . S
H2997 C3013 0.959 . S
H2998 C3013 0.959 . S
H2999 C3013 0.961 . S
H3000 C3014 0.960 . S
H3001 C3014 0.961 . S
H3002 C3014 0.959 1_455 S
H3003 C3017 0.929 . S
H3004 C3018 0.931 . S
H3005 C3020 0.930 . S
C3006 H2994 0.930 . S
C3006 C3007 1.399 . S
C3006 C3011 1.399 . S
C3007 C3006 1.399 . S
C3007 C3008 1.376 . S
C3008 H2995 0.930 . S
C3008 C3007 1.376 . S
C3008 C3009 1.388 . S
C3009 H2996 0.930 . S
C3009 C3008 1.388 . S
C3009 C3010 1.390 . S
C3010 C3009 1.390 . S
C3010 C3011 1.394 . S
C3010 C3016 1.465 . S
C3011 C3006 1.399 . S
C3011 C3010 1.394 . S
C3011 C3012 1.516 . S
C3012 C3011 1.516 . S
C3012 C3013 1.502 . S
C3012 C3014 1.561 . S
C3012 C3015 1.526 . S
C3013 H2997 0.959 . S
C3013 H2998 0.959 . S
C3013 H2999 0.961 . S
C3013 C3012 1.502 . S
C3014 H3000 0.960 . S
C3014 H3001 0.961 . S
C3014 H3002 0.959 1_655 S
C3014 C3012 1.561 . S
C3015 C3012 1.526 . S
C3015 C3016 1.396 . S
C3015 C3020 1.390 . S
C3016 C3010 1.465 . S
C3016 C3015 1.396 . S
C3016 C3017 1.399 . S
C3017 H3003 0.929 . S
C3017 C3016 1.399 . S
C3017 C3018 1.385 . S
C3018 H3004 0.931 . S
C3018 C3017 1.385 . S
C3018 C3019 1.389 . S
C3019 C3018 1.389 . S
C3019 C3020 1.387 . S
C3020 H3005 0.930 . S
C3020 C3015 1.390 . S
C3020 C3019 1.387 . S
H3021 C3033 0.930 . S
H3022 C3035 0.930 . S
H3023 C3036 0.930 . S
H3024 C3040 0.959 . S
H3025 C3040 0.959 . S
H3026 C3040 0.961 . S
H3027 C3041 0.960 . S
H3028 C3041 0.961 . S
H3029 C3041 0.959 . S
H3030 C3044 0.929 . S
H3031 C3045 0.931 . S
H3032 C3047 0.930 . S
C3033 H3021 0.930 . S
C3033 C3034 1.399 1_655 S
C3033 C3038 1.399 . S
C3034 C3033 1.399 1_455 S
C3034 C3035 1.376 . S
C3035 H3022 0.930 . S
C3035 C3034 1.376 . S
C3035 C3036 1.388 . S
C3036 H3023 0.930 . S
C3036 C3035 1.388 . S
C3036 C3037 1.390 . S
C3037 C3036 1.390 . S
C3037 C3038 1.394 1_455 S
C3037 C3043 1.465 . S
C3038 C3033 1.399 . S
C3038 C3037 1.394 1_655 S
C3038 C3039 1.516 . S
C3039 C3038 1.516 . S
C3039 C3040 1.502 . S
C3039 C3041 1.561 1_655 S
C3039 C3042 1.526 . S
C3040 H3024 0.959 . S
C3040 H3025 0.959 . S
C3040 H3026 0.961 . S
C3040 C3039 1.502 . S
C3041 H3027 0.960 . S
C3041 H3028 0.961 . S
C3041 H3029 0.959 . S
C3041 C3039 1.561 1_455 S
C3042 C3039 1.526 . S
C3042 C3043 1.396 1_655 S
C3042 C3047 1.390 . S
C3043 C3037 1.465 . S
C3043 C3042 1.396 1_455 S
C3043 C3044 1.399 . S
C3044 H3030 0.929 . S
C3044 C3043 1.399 . S
C3044 C3045 1.385 . S
C3045 H3031 0.931 . S
C3045 C3044 1.385 . S
C3045 C3046 1.389 . S
C3046 C3045 1.389 . S
C3046 C3047 1.387 1_455 S
C3047 H3032 0.930 . S
C3047 C3042 1.390 . S
C3047 C3046 1.387 1_655 S
H3048 C3060 0.930 . S
H3049 C3062 0.930 . S
H3050 C3063 0.930 . S
H3051 C3067 0.959 . S
H3052 C3067 0.959 . S
H3053 C3067 0.961 . S
H3054 C3068 0.960 . S
H3055 C3068 0.961 . S
H3056 C3068 0.959 . S
H3057 C3071 0.929 . S
H3058 C3072 0.931 . S
H3059 C3074 0.930 . S
C3060 H3048 0.930 . S
C3060 C3061 1.399 . S
C3060 C3065 1.399 . S
C3061 C3060 1.399 . S
C3061 C3062 1.376 . S
C3062 H3049 0.930 . S
C3062 C3061 1.376 . S
C3062 C3063 1.388 . S
C3063 H3050 0.930 . S
C3063 C3062 1.388 . S
C3063 C3064 1.390 . S
C3064 C3063 1.390 . S
C3064 C3065 1.394 . S
C3064 C3070 1.465 . S
C3065 C3060 1.399 . S
C3065 C3064 1.394 . S
C3065 C3066 1.516 . S
C3066 C3065 1.516 . S
C3066 C3067 1.502 . S
C3066 C3068 1.561 . S
C3066 C3069 1.526 . S
C3067 H3051 0.959 . S
C3067 H3052 0.959 . S
C3067 H3053 0.961 . S
C3067 C3066 1.502 . S
C3068 H3054 0.960 . S
C3068 H3055 0.961 . S
C3068 H3056 0.959 . S
C3068 C3066 1.561 . S
C3069 C3066 1.526 . S
C3069 C3070 1.396 . S
C3069 C3074 1.390 . S
C3070 C3064 1.465 . S
C3070 C3069 1.396 . S
C3070 C3071 1.399 . S
C3071 H3057 0.929 . S
C3071 C3070 1.399 . S
C3071 C3072 1.385 . S
C3072 H3058 0.931 . S
C3072 C3071 1.385 . S
C3072 C3073 1.389 . S
C3073 C3072 1.389 . S
C3073 C3074 1.387 . S
C3074 H3059 0.930 . S
C3074 C3069 1.390 . S
C3074 C3073 1.387 . S
H3075 C3087 0.930 . S
H3076 C3089 0.930 . S
H3077 C3090 0.930 . S
H3078 C3094 0.959 . S
H3079 C3094 0.959 . S
H3080 C3094 0.961 . S
H3081 C3095 0.960 . S
H3082 C3095 0.961 . S
H3083 C3095 0.959 . S
H3084 C3098 0.929 . S
H3085 C3099 0.931 . S
H3086 C3101 0.930 . S
C3087 H3075 0.930 . S
C3087 C3088 1.399 . S
C3087 C3092 1.399 . S
C3088 C3087 1.399 . S
C3088 C3089 1.376 . S
C3089 H3076 0.930 . S
C3089 C3088 1.376 . S
C3089 C3090 1.388 . S
C3090 H3077 0.930 . S
C3090 C3089 1.388 . S
C3090 C3091 1.390 . S
C3091 C3090 1.390 . S
C3091 C3092 1.394 . S
C3091 C3097 1.465 . S
C3092 C3087 1.399 . S
C3092 C3091 1.394 . S
C3092 C3093 1.516 . S
C3093 C3092 1.516 . S
C3093 C3094 1.502 . S
C3093 C3095 1.561 . S
C3093 C3096 1.526 . S
C3094 H3078 0.959 . S
C3094 H3079 0.959 . S
C3094 H3080 0.961 . S
C3094 C3093 1.502 . S
C3095 H3081 0.960 . S
C3095 H3082 0.961 . S
C3095 H3083 0.959 . S
C3095 C3093 1.561 . S
C3096 C3093 1.526 . S
C3096 C3097 1.396 . S
C3096 C3101 1.390 . S
C3097 C3091 1.465 . S
C3097 C3096 1.396 . S
C3097 C3098 1.399 . S
C3098 H3084 0.929 . S
C3098 C3097 1.399 . S
C3098 C3099 1.385 . S
C3099 H3085 0.931 . S
C3099 C3098 1.385 . S
C3099 C3100 1.389 . S
C3100 C3099 1.389 . S
C3100 C3101 1.387 . S
C3101 H3086 0.930 . S
C3101 C3096 1.390 . S
C3101 C3100 1.387 . S
H3102 C3114 0.930 . S
H3103 C3116 0.930 . S
H3104 C3117 0.930 . S
H3105 C3121 0.959 . S
H3106 C3121 0.959 . S
H3107 C3121 0.961 . S
H3108 C3122 0.960 . S
H3109 C3122 0.961 . S
H3110 C3122 0.959 . S
H3111 C3125 0.929 . S
H3112 C3126 0.931 . S
H3113 C3128 0.930 . S
C3114 H3102 0.930 . S
C3114 C3115 1.399 . S
C3114 C3119 1.399 . S
C3115 C3114 1.399 . S
C3115 C3116 1.376 . S
C3116 H3103 0.930 . S
C3116 C3115 1.376 . S
C3116 C3117 1.388 . S
C3117 H3104 0.930 . S
C3117 C3116 1.388 . S
C3117 C3118 1.390 . S
C3118 C3117 1.390 . S
C3118 C3119 1.394 . S
C3118 C3124 1.465 . S
C3119 C3114 1.399 . S
C3119 C3118 1.394 . S
C3119 C3120 1.516 . S
C3120 C3119 1.516 . S
C3120 C3121 1.502 . S
C3120 C3122 1.561 . S
C3120 C3123 1.526 . S
C3121 H3105 0.959 . S
C3121 H3106 0.959 . S
C3121 H3107 0.961 . S
C3121 C3120 1.502 . S
C3122 H3108 0.960 . S
C3122 H3109 0.961 . S
C3122 H3110 0.959 . S
C3122 C3120 1.561 . S
C3123 C3120 1.526 . S
C3123 C3124 1.396 . S
C3123 C3128 1.390 . S
C3124 C3118 1.465 . S
C3124 C3123 1.396 . S
C3124 C3125 1.399 . S
C3125 H3111 0.929 . S
C3125 C3124 1.399 . S
C3125 C3126 1.385 . S
C3126 H3112 0.931 . S
C3126 C3125 1.385 . S
C3126 C3127 1.389 . S
C3127 C3126 1.389 . S
C3127 C3128 1.387 . S
C3128 H3113 0.930 . S
C3128 C3123 1.390 . S
C3128 C3127 1.387 . S
H3129 C3141 0.930 . S
H3130 C3143 0.930 . S
H3131 C3144 0.930 . S
H3132 C3148 0.959 1_545 S
H3133 C3148 0.959 . S
H3134 C3148 0.961 . S
H3135 C3149 0.960 . S
H3136 C3149 0.961 . S
H3137 C3149 0.959 . S
H3138 C3152 0.929 . S
H3139 C3153 0.931 . S
H3140 C3155 0.930 . S
C3141 H3129 0.930 . S
C3141 C3142 1.407 . S
C3141 C3146 1.399 . S
C3142 C3141 1.407 . S
C3142 C3143 1.368 1_565 S
C3143 H3130 0.930 . S
C3143 C3142 1.368 1_545 S
C3143 C3144 1.388 . S
C3144 H3131 0.930 . S
C3144 C3143 1.388 . S
C3144 C3145 1.390 . S
C3145 C3144 1.390 . S
C3145 C3146 1.394 1_545 S
C3145 C3151 1.465 . S
C3146 C3141 1.399 . S
C3146 C3145 1.394 1_565 S
C3146 C3147 1.516 . S
C3147 C3146 1.516 . S
C3147 C3148 1.502 . S
C3147 C3149 1.561 . S
C3147 C3150 1.526 . S
C3148 H3132 0.959 1_565 S
C3148 H3133 0.959 . S
C3148 H3134 0.961 . S
C3148 C3147 1.502 . S
C3149 H3135 0.960 . S
C3149 H3136 0.961 . S
C3149 H3137 0.959 . S
C3149 C3147 1.561 . S
C3150 C3147 1.526 . S
C3150 C3151 1.396 1_565 S
C3150 C3155 1.390 . S
C3151 C3145 1.465 . S
C3151 C3150 1.396 1_545 S
C3151 C3152 1.399 . S
C3152 H3138 0.929 . S
C3152 C3151 1.399 . S
C3152 C3153 1.385 . S
C3153 H3139 0.931 . S
C3153 C3152 1.385 . S
C3153 C3154 1.407 . S
C3154 C3153 1.407 . S
C3154 C3155 1.371 1_545 S
C3155 H3140 0.930 . S
C3155 C3150 1.390 . S
C3155 C3154 1.371 1_565 S
H3156 C3168 0.930 . S
H3157 C3170 0.930 . S
H3158 C3171 0.930 . S
H3159 C3175 0.963 . S
H3160 C3175 0.985 . S
H3161 C3175 0.934 1_455 S
H3162 C3176 0.957 . S
H3163 C3176 0.964 1_655 S
H3164 C3176 0.959 1_655 S
H3165 C3179 0.929 . S
H3166 C3180 0.931 . S
H3167 C3182 0.930 . S
C3168 H3156 0.930 . S
C3168 C3169 1.399 . S
C3168 C3173 1.399 . S
C3169 C3168 1.399 . S
C3169 C3170 1.376 . S
C3170 H3157 0.930 . S
C3170 C3169 1.376 . S
C3170 C3171 1.388 . S
C3171 H3158 0.930 . S
C3171 C3170 1.388 . S
C3171 C3172 1.390 . S
C3172 C3171 1.390 . S
C3172 C3173 1.394 . S
C3172 C3178 1.465 1_455 S
C3173 C3168 1.399 . S
C3173 C3172 1.394 . S
C3173 C3174 1.518 1_455 S
C3174 C3173 1.518 1_655 S
C3174 C3175 1.501 . S
C3174 C3176 1.561 1_655 S
C3174 C3177 1.524 . S
C3175 H3159 0.963 . S
C3175 H3160 0.985 . S
C3175 H3161 0.934 1_655 S
C3175 C3174 1.501 . S
C3176 H3162 0.957 . S
C3176 H3163 0.964 1_455 S
C3176 H3164 0.959 1_455 S
C3176 C3174 1.561 1_455 S
C3177 C3174 1.524 . S
C3177 C3178 1.396 . S
C3177 C3182 1.390 . S
C3178 C3172 1.465 1_655 S
C3178 C3177 1.396 . S
C3178 C3179 1.399 . S
C3179 H3165 0.929 . S
C3179 C3178 1.399 . S
C3179 C3180 1.385 . S
C3180 H3166 0.931 . S
C3180 C3179 1.385 . S
C3180 C3181 1.389 . S
C3181 C3180 1.389 . S
C3181 C3182 1.387 . S
C3182 H3167 0.930 . S
C3182 C3177 1.390 . S
C3182 C3181 1.387 . S
H3183 C3195 0.930 . S
H3184 C3197 0.930 . S
H3185 C3198 0.930 . S
H3186 C3202 0.964 . S
H3187 C3202 0.992 . S
H3188 C3202 0.926 1_455 S
H3189 C3203 0.965 1_455 S
H3190 C3203 0.974 . S
H3191 C3203 0.926 1_545 S
H3192 C3206 0.929 . S
H3193 C3207 0.931 . S
H3194 C3209 0.930 . S
C3195 H3183 0.930 . S
C3195 C3196 1.399 1_565 S
C3195 C3200 1.399 . S
C3196 C3195 1.399 1_545 S
C3196 C3197 1.376 . S
C3197 H3184 0.930 . S
C3197 C3196 1.376 . S
C3197 C3198 1.388 . S
C3198 H3185 0.930 . S
C3198 C3197 1.388 . S
C3198 C3199 1.390 . S
C3199 C3198 1.390 . S
C3199 C3200 1.394 1_545 S
C3199 C3205 1.465 1_455 S
C3200 C3195 1.399 . S
C3200 C3199 1.394 1_565 S
C3200 C3201 1.513 1_455 S
C3201 C3200 1.513 1_655 S
C3201 C3202 1.501 . S
C3201 C3203 1.577 . S
C3201 C3204 1.529 . S
C3202 H3186 0.964 . S
C3202 H3187 0.992 . S
C3202 H3188 0.926 1_655 S
C3202 C3201 1.501 . S
C3203 H3189 0.965 1_655 S
C3203 H3190 0.974 . S
C3203 H3191 0.926 1_565 S
C3203 C3201 1.577 . S
C3204 C3201 1.529 . S
C3204 C3205 1.396 1_565 S
C3204 C3209 1.390 . S
C3205 C3199 1.465 1_655 S
C3205 C3204 1.396 1_545 S
C3205 C3206 1.399 . S
C3206 H3192 0.929 . S
C3206 C3205 1.399 . S
C3206 C3207 1.385 . S
C3207 H3193 0.931 . S
C3207 C3206 1.385 . S
C3207 C3208 1.389 . S
C3208 C3207 1.389 . S
C3208 C3209 1.387 1_545 S
C3209 H3194 0.930 . S
C3209 C3204 1.390 . S
C3209 C3208 1.387 1_565 S
H3210 C3222 0.930 . S
H3211 C3224 0.933 . S
H3212 C3225 0.930 . S
H3213 C3229 0.961 . S
H3214 C3229 0.975 . S
H3215 C3229 0.943 1_556 S
H3216 C3230 0.946 1_556 S
H3217 C3230 0.974 . S
H3218 C3230 0.960 . S
H3219 C3233 0.929 . S
H3220 C3234 0.931 . S
H3221 C3236 0.930 . S
C3222 H3210 0.930 . S
C3222 C3223 1.399 . S
C3222 C3227 1.399 . S
C3223 C3222 1.399 . S
C3223 C3224 1.374 1_655 S
C3224 H3211 0.933 . S
C3224 C3223 1.374 1_455 S
C3224 C3225 1.389 . S
C3225 H3212 0.930 . S
C3225 C3224 1.389 . S
C3225 C3226 1.390 1_455 S
C3226 C3225 1.390 1_655 S
C3226 C3227 1.394 . S
C3226 C3232 1.466 1_556 S
C3227 C3222 1.399 . S
C3227 C3226 1.394 . S
C3227 C3228 1.515 1_556 S
C3228 C3227 1.515 1_554 S
C3228 C3229 1.502 1_655 S
C3228 C3230 1.561 . S
C3228 C3231 1.527 . S
C3229 H3213 0.961 . S
C3229 H3214 0.975 . S
C3229 H3215 0.943 1_554 S
C3229 C3228 1.502 1_455 S
C3230 H3216 0.946 1_554 S
C3230 H3217 0.974 . S
C3230 H3218 0.960 . S
C3230 C3228 1.561 . S
C3231 C3228 1.527 . S
C3231 C3232 1.398 . S
C3231 C3236 1.390 . S
C3232 C3226 1.466 1_554 S
C3232 C3231 1.398 . S
C3232 C3233 1.397 1_655 S
C3233 H3219 0.929 . S
C3233 C3232 1.397 1_455 S
C3233 C3234 1.385 . S
C3234 H3220 0.931 . S
C3234 C3233 1.385 . S
C3234 C3235 1.392 . S
C3235 C3234 1.392 . S
C3235 C3236 1.384 1_455 S
C3236 H3221 0.930 . S
C3236 C3231 1.390 . S
C3236 C3235 1.384 1_655 S
H3237 C3249 0.930 . S
H3238 C3251 0.930 . S
H3239 C3252 0.930 . S
H3240 C3256 0.959 1_455 S
H3241 C3256 0.959 . S
H3242 C3256 0.961 . S
H3243 C3257 0.960 . S
H3244 C3257 0.961 . S
H3245 C3257 0.959 . S
H3246 C3260 0.929 . S
H3247 C3261 0.931 . S
H3248 C3263 0.930 . S
C3249 H3237 0.930 . S
C3249 C3250 1.398 1_655 S
C3249 C3254 1.399 . S
C3250 C3249 1.398 1_455 S
C3250 C3251 1.377 . S
C3251 H3238 0.930 . S
C3251 C3250 1.377 . S
C3251 C3252 1.388 . S
C3252 H3239 0.930 . S
C3252 C3251 1.388 . S
C3252 C3253 1.390 . S
C3253 C3252 1.390 . S
C3253 C3254 1.394 1_455 S
C3253 C3259 1.465 . S
C3254 C3249 1.399 . S
C3254 C3253 1.394 1_655 S
C3254 C3255 1.516 . S
C3255 C3254 1.516 . S
C3255 C3256 1.502 . S
C3255 C3257 1.561 . S
C3255 C3258 1.526 . S
C3256 H3240 0.959 1_655 S
C3256 H3241 0.959 . S
C3256 H3242 0.961 . S
C3256 C3255 1.502 . S
C3257 H3243 0.960 . S
C3257 H3244 0.961 . S
C3257 H3245 0.959 . S
C3257 C3255 1.561 . S
C3258 C3255 1.526 . S
C3258 C3259 1.396 1_655 S
C3258 C3263 1.390 . S
C3259 C3253 1.465 . S
C3259 C3258 1.396 1_455 S
C3259 C3260 1.399 . S
C3260 H3246 0.929 . S
C3260 C3259 1.399 . S
C3260 C3261 1.385 . S
C3261 H3247 0.931 . S
C3261 C3260 1.385 . S
C3261 C3262 1.389 . S
C3262 C3261 1.389 . S
C3262 C3263 1.387 1_455 S
C3263 H3248 0.930 . S
C3263 C3258 1.390 . S
C3263 C3262 1.387 1_655 S
C685 C386 0.819 . S
C697 C8 0.938 . S
C712 C23 0.821 . S
C724 C541 0.940 . S
C739 C36 0.940 . S
C751 C358 0.821 . S
C766 C569 0.927 . S
C778 C51 0.857 . S
C793 C401 0.837 . S
C805 C65 0.937 . S
C820 C78 0.938 . S
C832 C316 0.821 . S
C847 C429 0.909 . S
C859 C93 0.836 . S
C874 C106 0.824 . S
C886 C288 0.941 . S
C901 C498 0.937 . S
C913 C107 0.820 . S
C928 C471 0.839 . S
C940 C64 0.904 . S
C955 C79 0.925 . S
C967 C596 0.825 . S
C982 C484 0.848 . S
C994 C92 0.931 . S
C1009 C120 0.934 . S
C1021 C190 0.821 . S
C1036 C205 0.917 . S
C1048 C135 0.830 . S
C1063 C219 0.924 . S
C1075 C148 0.826 . S
C1090 C177 0.845 . S
C1102 C163 0.933 . S
C1117 C191 0.872 . S
C1129 C344 0.869 . S
C1144 C204 0.839 . S
C1156 C555 0.936 . S
C1171 C372 0.906 . S
C1183 C218 0.883 . S
C1198 C387 0.889 . S
C1210 C232 0.852 . S
C1225 C247 0.942 . S
C1237 C415 0.824 . S
C1252 C261 0.860 . S
C1264 C50 0.924 . S
C1279 C274 0.826 . S
C1291 C22 0.941 . S
C1306 C625 0.861 . S
C1318 C303 0.880 . S
C1333 C653 0.822 . S
C1345 C331 0.941 . S
C1360 C345 0.862 . S
C1372 C121 0.879 . S
C1387 C373 0.858 . S
C1399 C149 0.882 . S
C1414 C359 0.895 . S
C1426 C610 0.848 . S
C1441 C470 0.906 . S
C1453 C400 0.838 . S
C1468 C485 0.856 . S
C1480 C428 0.885 . S
C1495 C457 0.824 . S
C1507 C443 0.941 . S
C1522 C246 0.912 . S
C1534 C639 0.834 . S
C1549 C513 0.890 . S
C1561 C330 0.852 . S
C1576 C302 0.939 . S
C1588 C526 0.821 . S
C1603 C666 0.827 . S
C1615 C442 0.941 . S
C1630 C414 0.890 . S
C1642 C638 0.852 . S
C1657 C134 0.832 . S
C1669 C554 0.912 . S
C1684 C162 0.896 . S
C1696 C582 0.893 . S
C1711 C176 0.942 . S
C1723 C583 0.828 . S
C1738 C275 0.904 . S
C1750 C540 0.840 . S
C1765 C260 0.820 . S
C1777 C568 0.933 . S
C1792 C317 0.892 . S
C1804 C597 0.897 . S
C1819 C289 0.939 . S
C1831 C499 0.836 . S
C1846 C624 0.878 . S
C1858 C527 0.863 . S
C1873 C652 0.930 . S
C1885 C512 0.853 . S
C1900 C667 0.833 . S
C1912 C456 0.939 . S
C1927 C611 0.840 . S
C1939 C37 0.936 . S
C1954 C233 0.935 . S
C1966 C9 0.845 . S
C1981 C6 1.545 . S
C1993 C651 1.516 . S
C2008 C21 1.504 . S
C2020 C664 1.543 . S
C2035 C34 1.515 . S
C2047 C623 1.456 . S
C2062 C49 1.485 1_554 S
C2074 C636 1.437 . S
C2089 C63 1.544 . S
C2101 C132 1.525 . S
C2116 C76 1.448 . S
C2128 C147 1.505 1_554 S
C2143 C91 1.539 . S
C2155 C160 1.490 . S
C2170 C104 1.483 . S
C2182 C119 1.437 . S
C2197 C105 1.432 . S
C2209 C553 1.468 . S
C2224 C62 1.432 . S
C2236 C370 1.466 . S
C2251 C77 1.435 . S
C2263 C581 1.484 . S
C2278 C90 1.444 . S
C2290 C342 1.501 1_545 S
C2305 C118 1.545 . S
C2317 C328 1.510 . S
C2332 C133 1.434 . S
C2344 C441 1.479 . S
C2359 C146 1.432 . S
C2371 C300 1.471 . S
C2386 C413 1.537 1_545 S
C2398 C161 1.485 . S
C2413 C175 1.489 . S
C2425 C273 1.538 . S
C2440 C189 1.481 . S
C2452 C231 1.436 . S
C2467 C272 1.526 . S
C2479 C202 1.469 . S
C2494 C609 1.501 . S
C2506 C216 1.542 . S
C2521 C217 1.544 1_455 S
C2533 C230 1.515 . S
C2548 C510 1.498 . S
C2560 C245 1.542 . S
C2575 C174 1.534 . S
C2587 C259 1.539 . S
C2602 C567 1.432 . S
C2614 C286 1.465 . S
C2629 C580 1.526 1_556 S
C2641 C301 1.468 . S
C2656 C314 1.432 . S
C2668 C539 1.457 . S
C2683 C552 1.436 . S
C2695 C329 1.485 . S
C2710 C343 1.545 . S
C2722 C412 1.516 . S
C2737 C427 1.477 . S
C2749 C356 1.435 . S
C2764 C371 1.434 . S
C2776 C440 1.451 . S
C2791 C399 1.500 . S
C2803 C384 1.542 1_556 S
C2818 C385 1.432 . S
C2830 C637 1.474 . S
C2845 C665 1.456 . S
C2857 C357 1.434 . S
C2872 C398 1.545 . S
C2884 C48 1.517 . S
C2899 C20 1.434 . S
C2911 C426 1.481 . S
C2926 C525 1.484 . S
C2938 C455 1.437 . S
C2953 C497 1.496 . S
C2965 C469 1.541 . S
C2980 C244 1.432 . S
C2992 C524 1.467 . S
C3007 C482 1.490 . S
C3019 C595 1.539 . S
C3034 C496 1.432 . S
C3046 C483 1.467 1_455 S
C3061 C203 1.483 . S
C3073 C258 1.437 . S
C3088 C454 1.432 . S
C3100 C511 1.472 . S
C3115 C650 1.436 . S
C3127 C538 1.447 . S
C3142 C566 1.527 1_565 S
C3154 C622 1.526 1_545 S
C3169 C7 1.433 . S
C3181 C315 1.454 . S
C3196 C287 1.435 . S
C3208 C35 1.482 1_545 S
C3223 C468 1.541 1_655 S
C3235 C594 1.527 1_455 S
C3250 C188 1.523 . S
C3262 C608 1.544 1_455 S
