# Generated by pormake.
# Topology wir, (6)-cn, num edge types: 1
# Building blocks:
#     Node 0, Type 0, BuildingBlock: BETFAJ_clean_sbu_0, # of connection points: 6
#     Node 1, Type 0, BuildingBlock: BETFAJ_clean_sbu_0, # of connection points: 6
#     Node 2, Type 0, BuildingBlock: BETFAJ_clean_sbu_0, # of connection points: 6
#     Node 3, Type 0, BuildingBlock: BETFAJ_clean_sbu_0, # of connection points: 6
#     Node 4, Type 0, BuildingBlock: BETFAJ_clean_sbu_0, # of connection points: 6
#     Node 5, Type 0, BuildingBlock: BETFAJ_clean_sbu_0, # of connection points: 6
#     Node 6, Type 0, BuildingBlock: BETFAJ_clean_sbu_0, # of connection points: 6
#     Node 7, Type 0, BuildingBlock: BETFAJ_clean_sbu_0, # of connection points: 6
#     Node 8, Type 0, BuildingBlock: BETFAJ_clean_sbu_0, # of connection points: 6
#     Node 9, Type 0, BuildingBlock: BETFAJ_clean_sbu_0, # of connection points: 6
#     Node 10, Type 0, BuildingBlock: BETFAJ_clean_sbu_0, # of connection points: 6
#     Node 11, Type 0, BuildingBlock: BETFAJ_clean_sbu_0, # of connection points: 6
#     Node 12, Type 0, BuildingBlock: BETFAJ_clean_sbu_0, # of connection points: 6
#     Node 13, Type 0, BuildingBlock: BETFAJ_clean_sbu_0, # of connection points: 6
#     Node 14, Type 0, BuildingBlock: BETFAJ_clean_sbu_0, # of connection points: 6
#     Node 15, Type 0, BuildingBlock: BETFAJ_clean_sbu_0, # of connection points: 6
#     Node 16, Type 0, BuildingBlock: BETFAJ_clean_sbu_0, # of connection points: 6
#     Node 17, Type 0, BuildingBlock: BETFAJ_clean_sbu_0, # of connection points: 6
#     Node 18, Type 0, BuildingBlock: BETFAJ_clean_sbu_0, # of connection points: 6
#     Node 19, Type 0, BuildingBlock: BETFAJ_clean_sbu_0, # of connection points: 6
#     Node 20, Type 0, BuildingBlock: BETFAJ_clean_sbu_0, # of connection points: 6
#     Node 21, Type 0, BuildingBlock: BETFAJ_clean_sbu_0, # of connection points: 6
#     Node 22, Type 0, BuildingBlock: BETFAJ_clean_sbu_0, # of connection points: 6
#     Node 23, Type 0, BuildingBlock: BETFAJ_clean_sbu_0, # of connection points: 6
#     Node 24, Type 0, BuildingBlock: BETFAJ_clean_sbu_0, # of connection points: 6
#     Node 25, Type 0, BuildingBlock: BETFAJ_clean_sbu_0, # of connection points: 6
#     Node 26, Type 0, BuildingBlock: BETFAJ_clean_sbu_0, # of connection points: 6
#     Node 27, Type 0, BuildingBlock: BETFAJ_clean_sbu_0, # of connection points: 6
#     Node 28, Type 0, BuildingBlock: BETFAJ_clean_sbu_0, # of connection points: 6
#     Node 29, Type 0, BuildingBlock: BETFAJ_clean_sbu_0, # of connection points: 6
#     Node 30, Type 0, BuildingBlock: BETFAJ_clean_sbu_0, # of connection points: 6
#     Node 31, Type 0, BuildingBlock: BETFAJ_clean_sbu_0, # of connection points: 6
#     Edge 32, Type (0, 0), BuildingBlock: XIVTED_clean_linker_0, # of connection points: 2
#     Edge 33, Type (0, 0), BuildingBlock: XIVTED_clean_linker_0, # of connection points: 2
#     Edge 34, Type (0, 0), BuildingBlock: XIVTED_clean_linker_0, # of connection points: 2
#     Edge 35, Type (0, 0), BuildingBlock: XIVTED_clean_linker_0, # of connection points: 2
#     Edge 36, Type (0, 0), BuildingBlock: XIVTED_clean_linker_0, # of connection points: 2
#     Edge 37, Type (0, 0), BuildingBlock: XIVTED_clean_linker_0, # of connection points: 2
#     Edge 38, Type (0, 0), BuildingBlock: XIVTED_clean_linker_0, # of connection points: 2
#     Edge 39, Type (0, 0), BuildingBlock: XIVTED_clean_linker_0, # of connection points: 2
#     Edge 40, Type (0, 0), BuildingBlock: XIVTED_clean_linker_0, # of connection points: 2
#     Edge 41, Type (0, 0), BuildingBlock: XIVTED_clean_linker_0, # of connection points: 2
#     Edge 42, Type (0, 0), BuildingBlock: XIVTED_clean_linker_0, # of connection points: 2
#     Edge 43, Type (0, 0), BuildingBlock: XIVTED_clean_linker_0, # of connection points: 2
#     Edge 44, Type (0, 0), BuildingBlock: XIVTED_clean_linker_0, # of connection points: 2
#     Edge 45, Type (0, 0), BuildingBlock: XIVTED_clean_linker_0, # of connection points: 2
#     Edge 46, Type (0, 0), BuildingBlock: XIVTED_clean_linker_0, # of connection points: 2
#     Edge 47, Type (0, 0), BuildingBlock: XIVTED_clean_linker_0, # of connection points: 2
#     Edge 48, Type (0, 0), BuildingBlock: XIVTED_clean_linker_0, # of connection points: 2
#     Edge 49, Type (0, 0), BuildingBlock: XIVTED_clean_linker_0, # of connection points: 2
#     Edge 50, Type (0, 0), BuildingBlock: XIVTED_clean_linker_0, # of connection points: 2
#     Edge 51, Type (0, 0), BuildingBlock: XIVTED_clean_linker_0, # of connection points: 2
#     Edge 52, Type (0, 0), BuildingBlock: XIVTED_clean_linker_0, # of connection points: 2
#     Edge 53, Type (0, 0), BuildingBlock: XIVTED_clean_linker_0, # of connection points: 2
#     Edge 54, Type (0, 0), BuildingBlock: XIVTED_clean_linker_0, # of connection points: 2
#     Edge 55, Type (0, 0), BuildingBlock: XIVTED_clean_linker_0, # of connection points: 2
#     Edge 56, Type (0, 0), BuildingBlock: XIVTED_clean_linker_0, # of connection points: 2
#     Edge 57, Type (0, 0), BuildingBlock: XIVTED_clean_linker_0, # of connection points: 2
#     Edge 58, Type (0, 0), BuildingBlock: XIVTED_clean_linker_0, # of connection points: 2
#     Edge 59, Type (0, 0), BuildingBlock: XIVTED_clean_linker_0, # of connection points: 2
#     Edge 60, Type (0, 0), BuildingBlock: XIVTED_clean_linker_0, # of connection points: 2
#     Edge 61, Type (0, 0), BuildingBlock: XIVTED_clean_linker_0, # of connection points: 2
#     Edge 62, Type (0, 0), BuildingBlock: XIVTED_clean_linker_0, # of connection points: 2
#     Edge 63, Type (0, 0), BuildingBlock: XIVTED_clean_linker_0, # of connection points: 2
#     Edge 64, Type (0, 0), BuildingBlock: XIVTED_clean_linker_0, # of connection points: 2
#     Edge 65, Type (0, 0), BuildingBlock: XIVTED_clean_linker_0, # of connection points: 2
#     Edge 66, Type (0, 0), BuildingBlock: XIVTED_clean_linker_0, # of connection points: 2
#     Edge 67, Type (0, 0), BuildingBlock: XIVTED_clean_linker_0, # of connection points: 2
#     Edge 68, Type (0, 0), BuildingBlock: XIVTED_clean_linker_0, # of connection points: 2
#     Edge 69, Type (0, 0), BuildingBlock: XIVTED_clean_linker_0, # of connection points: 2
#     Edge 70, Type (0, 0), BuildingBlock: XIVTED_clean_linker_0, # of connection points: 2
#     Edge 71, Type (0, 0), BuildingBlock: XIVTED_clean_linker_0, # of connection points: 2
#     Edge 72, Type (0, 0), BuildingBlock: XIVTED_clean_linker_0, # of connection points: 2
#     Edge 73, Type (0, 0), BuildingBlock: XIVTED_clean_linker_0, # of connection points: 2
#     Edge 74, Type (0, 0), BuildingBlock: XIVTED_clean_linker_0, # of connection points: 2
#     Edge 75, Type (0, 0), BuildingBlock: XIVTED_clean_linker_0, # of connection points: 2
#     Edge 76, Type (0, 0), BuildingBlock: XIVTED_clean_linker_0, # of connection points: 2
#     Edge 77, Type (0, 0), BuildingBlock: XIVTED_clean_linker_0, # of connection points: 2
#     Edge 78, Type (0, 0), BuildingBlock: XIVTED_clean_linker_0, # of connection points: 2
#     Edge 79, Type (0, 0), BuildingBlock: XIVTED_clean_linker_0, # of connection points: 2
#     Edge 80, Type (0, 0), BuildingBlock: XIVTED_clean_linker_0, # of connection points: 2
#     Edge 81, Type (0, 0), BuildingBlock: XIVTED_clean_linker_0, # of connection points: 2
#     Edge 82, Type (0, 0), BuildingBlock: XIVTED_clean_linker_0, # of connection points: 2
#     Edge 83, Type (0, 0), BuildingBlock: XIVTED_clean_linker_0, # of connection points: 2
#     Edge 84, Type (0, 0), BuildingBlock: XIVTED_clean_linker_0, # of connection points: 2
#     Edge 85, Type (0, 0), BuildingBlock: XIVTED_clean_linker_0, # of connection points: 2
#     Edge 86, Type (0, 0), BuildingBlock: XIVTED_clean_linker_0, # of connection points: 2
#     Edge 87, Type (0, 0), BuildingBlock: XIVTED_clean_linker_0, # of connection points: 2
#     Edge 88, Type (0, 0), BuildingBlock: XIVTED_clean_linker_0, # of connection points: 2
#     Edge 89, Type (0, 0), BuildingBlock: XIVTED_clean_linker_0, # of connection points: 2
#     Edge 90, Type (0, 0), BuildingBlock: XIVTED_clean_linker_0, # of connection points: 2
#     Edge 91, Type (0, 0), BuildingBlock: XIVTED_clean_linker_0, # of connection points: 2
#     Edge 92, Type (0, 0), BuildingBlock: XIVTED_clean_linker_0, # of connection points: 2
#     Edge 93, Type (0, 0), BuildingBlock: XIVTED_clean_linker_0, # of connection points: 2
#     Edge 94, Type (0, 0), BuildingBlock: XIVTED_clean_linker_0, # of connection points: 2
#     Edge 95, Type (0, 0), BuildingBlock: XIVTED_clean_linker_0, # of connection points: 2
#     Edge 96, Type (0, 0), BuildingBlock: XIVTED_clean_linker_0, # of connection points: 2
#     Edge 97, Type (0, 0), BuildingBlock: XIVTED_clean_linker_0, # of connection points: 2
#     Edge 98, Type (0, 0), BuildingBlock: XIVTED_clean_linker_0, # of connection points: 2
#     Edge 99, Type (0, 0), BuildingBlock: XIVTED_clean_linker_0, # of connection points: 2
#     Edge 100, Type (0, 0), BuildingBlock: XIVTED_clean_linker_0, # of connection points: 2
#     Edge 101, Type (0, 0), BuildingBlock: XIVTED_clean_linker_0, # of connection points: 2
#     Edge 102, Type (0, 0), BuildingBlock: XIVTED_clean_linker_0, # of connection points: 2
#     Edge 103, Type (0, 0), BuildingBlock: XIVTED_clean_linker_0, # of connection points: 2
#     Edge 104, Type (0, 0), BuildingBlock: XIVTED_clean_linker_0, # of connection points: 2
#     Edge 105, Type (0, 0), BuildingBlock: XIVTED_clean_linker_0, # of connection points: 2
#     Edge 106, Type (0, 0), BuildingBlock: XIVTED_clean_linker_0, # of connection points: 2
#     Edge 107, Type (0, 0), BuildingBlock: XIVTED_clean_linker_0, # of connection points: 2
#     Edge 108, Type (0, 0), BuildingBlock: XIVTED_clean_linker_0, # of connection points: 2
#     Edge 109, Type (0, 0), BuildingBlock: XIVTED_clean_linker_0, # of connection points: 2
#     Edge 110, Type (0, 0), BuildingBlock: XIVTED_clean_linker_0, # of connection points: 2
#     Edge 111, Type (0, 0), BuildingBlock: XIVTED_clean_linker_0, # of connection points: 2
#     Edge 112, Type (0, 0), BuildingBlock: XIVTED_clean_linker_0, # of connection points: 2
#     Edge 113, Type (0, 0), BuildingBlock: XIVTED_clean_linker_0, # of connection points: 2
#     Edge 114, Type (0, 0), BuildingBlock: XIVTED_clean_linker_0, # of connection points: 2
#     Edge 115, Type (0, 0), BuildingBlock: XIVTED_clean_linker_0, # of connection points: 2
#     Edge 116, Type (0, 0), BuildingBlock: XIVTED_clean_linker_0, # of connection points: 2
#     Edge 117, Type (0, 0), BuildingBlock: XIVTED_clean_linker_0, # of connection points: 2
#     Edge 118, Type (0, 0), BuildingBlock: XIVTED_clean_linker_0, # of connection points: 2
#     Edge 119, Type (0, 0), BuildingBlock: XIVTED_clean_linker_0, # of connection points: 2
#     Edge 120, Type (0, 0), BuildingBlock: XIVTED_clean_linker_0, # of connection points: 2
#     Edge 121, Type (0, 0), BuildingBlock: XIVTED_clean_linker_0, # of connection points: 2
#     Edge 122, Type (0, 0), BuildingBlock: XIVTED_clean_linker_0, # of connection points: 2
#     Edge 123, Type (0, 0), BuildingBlock: XIVTED_clean_linker_0, # of connection points: 2
#     Edge 124, Type (0, 0), BuildingBlock: XIVTED_clean_linker_0, # of connection points: 2
#     Edge 125, Type (0, 0), BuildingBlock: XIVTED_clean_linker_0, # of connection points: 2
#     Edge 126, Type (0, 0), BuildingBlock: XIVTED_clean_linker_0, # of connection points: 2
#     Edge 127, Type (0, 0), BuildingBlock: XIVTED_clean_linker_0, # of connection points: 2
# Relax obj value: 0.448
# Max RMSD: 0.205
# Mean RMSD: 0.205
data_MOF--net-wir--node1-BETFAJ_clean_sbu_0--edge1-XIVTED_clean_linker_0
_symmetry_space_group_name_H-M    P1
_symmetry_Int_Tables_number       1
_symmetry_cell_setting            triclinic
loop_
_symmetry_equiv_pos_as_xyz
'x, y, z'
_cell_length_a     39.787244
_cell_length_b     39.976112
_cell_length_c     109.90799
_cell_angle_alpha  89.916196
_cell_angle_beta   89.955994
_cell_angle_gamma 89.931378
loop_
_atom_site_label
_atom_site_type_symbol
_atom_site_fract_x
_atom_site_fract_y
_atom_site_fract_z
_atom_type_partial_charge
Sm0 Sm 0.24522 0.21079 0.39119 0.0
Sm1 Sm 0.2203 0.18366 0.38483 0.0
C2 C 0.27219 0.2696 0.39646 0.0
C3 C 0.25724 0.30209 0.39863 0.0
C4 C 0.22419 0.30788 0.39475 0.0
C5 C 0.20486 0.33202 0.4005 0.0
C6 C 0.21866 0.3504 0.41012 0.0
C7 C 0.25317 0.34806 0.41266 0.0
C8 C 0.27245 0.32364 0.40696 0.0
C9 C 0.28158 0.16059 0.4063 0.0
C10 C 0.18707 0.1826 0.4079 0.0
C11 C 0.23886 0.13715 0.36956 0.0
C12 C 0.24974 0.14036 0.35688 0.0
C13 C 0.28293 0.15012 0.35426 0.0
C14 C 0.29276 0.15634 0.34237 0.0
C15 C 0.27023 0.15112 0.3328 0.0
C16 C 0.23673 0.14228 0.33543 0.0
C17 C 0.22655 0.13705 0.34739 0.0
C18 C 0.15748 0.21775 0.38555 0.0
C19 C 0.25125 0.22231 0.36237 0.0
O20 O 0.26933 0.25831 0.38543 0.0
O21 O 0.26468 0.24721 0.40462 0.0
O22 O 0.25055 0.1603 0.4024 0.0
O23 O 0.29426 0.18624 0.40066 0.0
O24 O 0.205 0.20998 0.40662 0.0
O25 O 0.19022 0.16024 0.39944 0.0
O26 O 0.25945 0.15047 0.37749 0.0
O27 O 0.20707 0.14325 0.37188 0.0
O28 O 0.18756 0.2313 0.38712 0.0
O29 O 0.16169 0.18567 0.38361 0.0
O30 O 0.22098 0.21823 0.36671 0.0
O31 O 0.27196 0.21288 0.37106 0.0
H32 H 0.21223 0.29145 0.38825 0.0
H33 H 0.17824 0.33323 0.39846 0.0
H34 H 0.26417 0.36235 0.42001 0.0
H35 H 0.29801 0.31933 0.40998 0.0
H36 H 0.30143 0.1533 0.36138 0.0
H37 H 0.31858 0.16347 0.34063 0.0
H38 H 0.21882 0.13726 0.32824 0.0
H39 H 0.20077 0.12984 0.34917 0.0
Sm40 Sm 0.07579 0.9922 0.6405 0.0
Sm41 Sm 0.10643 0.96607 0.63432 0.0
C42 C 1.0177 1.02469 0.64163 0.0
C43 C 0.98408 1.01147 0.64309 0.0
C44 C 0.97952 0.97692 0.64188 0.0
C45 C 0.9526 0.96152 0.64756 0.0
C46 C 0.92997 0.98071 0.65446 0.0
C47 C 0.93167 1.01582 0.65393 0.0
C48 C 0.95911 0.03121 0.64841 0.0
C49 C 0.12404 0.02704 0.65695 0.0
C50 C 0.09776 0.94727 0.66035 0.0
C51 C 0.1607 0.96292 0.62105 0.0
C52 C 0.17776 0.95843 0.6095 0.0
C53 C 0.1727 0.98195 0.6002 0.0
C54 C 0.19948 0.99082 0.59277 0.0
C55 C 0.23089 0.97543 0.59446 0.0
C56 C 0.23343 0.9472 0.60202 0.0
C57 C 0.20685 0.93883 0.60961 0.0
C58 C 0.07164 0.9038 0.63695 0.0
C59 C 0.07015 0.99849 0.61126 0.0
O60 O 0.0324 1.01708 0.63146 0.0
O61 O 0.037 1.01964 0.65099 0.0
O62 O 0.13019 1.01213 0.64642 0.0
O63 O 0.09198 1.02275 0.65832 0.0
O64 O 0.06825 0.95436 0.65596 0.0
O65 O 0.12298 0.95452 0.65338 0.0
O66 O 0.14281 0.99017 0.62239 0.0
O67 O 0.14986 0.93697 0.62713 0.0
O68 O 0.05782 0.9339 0.63645 0.0
O69 O 0.10411 0.90797 0.63679 0.0
O70 O 0.07493 0.96824 0.61545 0.0
O71 O 0.07704 1.01905 0.62033 0.0
H72 H 0.99873 0.96142 0.63777 0.0
H73 H 0.95231 0.93443 0.64786 0.0
H74 H 0.91415 0.03107 0.65905 0.0
H75 H 0.96248 0.05797 0.64936 0.0
H76 H 0.14996 0.99688 0.59981 0.0
H77 H 0.19657 1.01236 0.58688 0.0
H78 H 0.25708 0.93408 0.60308 0.0
H79 H 0.21088 0.92025 0.61666 0.0
Sm80 Sm 0.31212 0.82832 0.89256 0.0
Sm81 Sm 0.3378 0.86089 0.88607 0.0
C82 C 0.27961 0.77053 0.89427 0.0
C83 C 0.29291 0.73674 0.89452 0.0
C84 C 0.32715 0.73216 0.89208 0.0
C85 C 0.34365 0.70426 0.89662 0.0
C86 C 0.32589 0.68087 0.90367 0.0
C87 C 0.29059 0.68265 0.90415 0.0
C88 C 0.27414 0.711 0.89977 0.0
C89 C 0.27739 0.87765 0.90849 0.0
C90 C 0.35814 0.85167 0.91201 0.0
C91 C 0.3482 0.91322 0.87237 0.0
C92 C 0.36864 0.91751 0.86152 0.0
C93 C 0.36541 0.89603 0.85149 0.0
C94 C 0.38164 0.90366 0.84064 0.0
C95 C 0.39946 0.93381 0.83965 0.0
C96 C 0.40791 0.9513 0.85034 0.0
C97 C 0.39192 0.94354 0.86119 0.0
C98 C 0.4004 0.82493 0.88824 0.0
C99 C 0.30553 0.82289 0.86338 0.0
O100 O 0.28379 0.78644 0.88409 0.0
O101 O 0.28805 0.78852 0.90362 0.0
O102 O 0.28813 0.88157 0.89717 0.0
O103 O 0.28632 0.84727 0.91102 0.0
O104 O 0.35148 0.82215 0.90766 0.0
O105 O 0.34956 0.87664 0.90516 0.0
O106 O 0.32128 0.89464 0.87127 0.0
O107 O 0.36523 0.90761 0.88228 0.0
O108 O 0.3701 0.81162 0.88739 0.0
O109 O 0.39619 0.85713 0.8887 0.0
O110 O 0.33584 0.82968 0.86722 0.0
O111 O 0.28493 0.82803 0.87259 0.0
H112 H 0.34188 0.75191 0.88795 0.0
H113 H 0.37085 0.70379 0.8961 0.0
H114 H 0.27638 0.66454 0.90938 0.0
H115 H 0.24759 0.71429 0.90162 0.0
H116 H 0.3484 0.87501 0.85165 0.0
H117 H 0.37554 0.88926 0.83259 0.0
H118 H 0.42237 0.97422 0.85002 0.0
H119 H 0.39576 0.95944 0.86905 0.0
Sm120 Sm 0.46519 0.05771 0.14208 0.0
Sm121 Sm 0.43865 0.08423 0.13807 0.0
C122 C 0.52153 1.0236 0.14581 0.0
C123 C 0.5556 0.03569 0.14726 0.0
C124 C 0.56247 0.06897 0.14411 0.0
C125 C 0.5891 0.08545 0.14956 0.0
C126 C 0.60877 0.06864 0.15821 0.0
C127 C 0.60535 0.03387 0.15967 0.0
C128 C 0.57835 1.01744 0.15431 0.0
C129 C 0.4125 1.02413 0.15769 0.0
C130 C 0.45546 0.11331 0.16144 0.0
C131 C 0.3863 0.07166 0.1245 0.0
C132 C 0.38408 0.07229 0.11136 0.0
C133 C 0.36182 0.05104 0.10539 0.0
C134 C 0.35765 0.0541 0.09288 0.0
C135 C 0.37588 0.07849 0.08634 0.0
C136 C 0.40213 0.09549 0.09213 0.0
C137 C 0.4053 0.0934 0.10466 0.0
C138 C 0.47253 0.14633 0.13692 0.0
C139 C 0.47513 0.05585 0.11381 0.0
O140 O 0.5086 0.02835 0.13512 0.0
O141 O 0.50122 0.03252 0.15449 0.0
O142 O 0.42183 0.0551 0.15668 0.0
O143 O 0.42842 1.01122 0.14842 0.0
O144 O 0.48002 0.09445 0.1575 0.0
O145 O 0.42755 0.11154 0.15534 0.0
O146 O 0.40549 0.0478 0.12874 0.0
O147 O 0.39108 0.10077 0.1297 0.0
O148 O 0.48624 0.11596 0.1372 0.0
O149 O 0.43985 0.14251 0.13709 0.0
O150 O 0.47273 0.08487 0.11935 0.0
O151 O 0.46522 0.03367 0.12176 0.0
H152 H 0.54503 0.08332 0.13862 0.0
H153 H 0.59103 0.11229 0.14832 0.0
H154 H 0.62064 1.02048 0.16623 0.0
H155 H 0.57324 0.99166 0.15673 0.0
H156 H 0.34619 0.03375 0.11046 0.0
H157 H 0.33736 0.0402 0.08872 0.0
H158 H 0.41711 0.11374 0.08726 0.0
H159 H 0.42297 0.10979 0.10915 0.0
Sm160 Sm 0.22656 0.84634 0.24822 0.0
Sm161 Sm 0.21397 0.84799 0.2493 0.0
C162 C 0.25979 0.78943 0.24371 0.0
C163 C 0.27348 0.77193 0.23336 0.0
C164 C 0.27197 0.73706 0.2336 0.0
C165 C 0.26956 0.7196 0.22275 0.0
C166 C 0.26892 0.73711 0.21165 0.0
C167 C 0.27614 0.77148 0.21148 0.0
C168 C 0.27806 0.78898 0.22236 0.0
C169 C 0.26921 0.88425 0.22997 0.0
C170 C 0.17689 0.8606 0.22856 0.0
C171 C 0.2051 0.90959 0.25909 0.0
C172 C 0.21728 0.93046 0.26894 0.0
C173 C 0.25176 0.93063 0.27172 0.0
C174 C 0.26577 0.9579 0.27756 0.0
C175 C 0.24543 0.98512 0.28073 0.0
C176 C 0.2104 0.98311 0.27923 0.0
C177 C 0.19638 0.95583 0.27328 0.0
C178 C 0.14585 0.82187 0.25062 0.0
C179 C 0.24157 0.82654 0.27478 0.0
O180 O 0.22711 0.79144 0.2437 0.0
O181 O 0.27443 0.8171 0.24699 0.0
O182 O 0.24111 0.86784 0.22981 0.0
O183 O 0.27634 0.88072 0.24155 0.0
O184 O 0.18475 0.88007 0.23739 0.0
O185 O 0.1945 0.83365 0.22964 0.0
O186 O 0.22729 0.90306 0.25091 0.0
O187 O 0.18596 0.88418 0.26158 0.0
O188 O 0.17433 0.81003 0.24699 0.0
O189 O 0.15438 0.85119 0.2544 0.0
O190 O 0.23557 0.8086 0.26523 0.0
O191 O 0.23697 0.85663 0.27042 0.0
H192 H 0.26816 0.72378 0.2421 0.0
H193 H 0.26373 0.69317 0.22322 0.0
H194 H 0.27624 0.78536 0.203 0.0
H195 H 0.27927 0.816 0.22209 0.0
H196 H 0.26854 0.91149 0.26829 0.0
H197 H 0.29282 0.95882 0.27861 0.0
H198 H 0.19415 1.00351 0.28197 0.0
H199 H 0.16977 0.95598 0.27116 0.0
Sm200 Sm 0.47244 0.98332 0.49337 0.0
Sm201 Sm 0.44494 0.95959 0.49989 0.0
C202 C 0.53148 1.00828 0.48702 0.0
C203 C 0.56418 0.99225 0.48688 0.0
C204 C 0.56903 0.96309 0.49379 0.0
C205 C 0.59586 0.94203 0.49125 0.0
C206 C 0.61824 0.95025 0.4819 0.0
C207 C 0.61517 0.98113 0.47582 0.0
C208 C 0.58804 1.00203 0.47828 0.0
C209 C 0.42197 1.01979 0.47833 0.0
C210 C 0.44232 0.92421 0.4774 0.0
C211 C 0.39962 0.98376 0.51465 0.0
C212 C 0.4034 0.9972 0.52699 0.0
C213 C 0.41099 0.03129 0.5286 0.0
C214 C 0.416 0.04419 0.54018 0.0
C215 C 0.41177 1.02368 0.5504 0.0
C216 C 0.40667 0.98907 0.54873 0.0
C217 C 0.40248 0.97598 0.53712 0.0
C218 C 0.47875 0.89673 0.50007 0.0
C219 C 0.48378 0.99005 0.52242 0.0
O220 O 0.51838 1.01226 0.49775 0.0
O221 O 0.51022 0.99602 0.47924 0.0
O222 O 0.42277 0.98847 0.48173 0.0
O223 O 0.44651 0.03259 0.48458 0.0
O224 O 0.46984 0.94221 0.47836 0.0
O225 O 0.42028 0.92778 0.48602 0.0
O226 O 0.41422 1.00183 0.50623 0.0
O227 O 0.4037 0.95137 0.51317 0.0
O228 O 0.49275 0.9265 0.49842 0.0
O229 O 0.44638 0.90134 0.50173 0.0
O230 O 0.4777 0.95982 0.5185 0.0
O231 O 0.47658 1.01041 0.51337 0.0
H232 H 0.55075 0.95535 0.50053 0.0
H233 H 0.59775 0.91826 0.49596 0.0
H234 H 0.63186 0.98765 0.4684 0.0
H235 H 0.5843 1.02436 0.47284 0.0
H236 H 0.41269 0.04824 0.52093 0.0
H237 H 0.4204 0.07078 0.54117 0.0
H238 H 0.40292 0.97239 0.55638 0.0
H239 H 0.39748 0.94949 0.53613 0.0
Sm240 Sm 0.30135 0.22305 0.74351 0.0
Sm241 Sm 0.32745 0.1959 0.74831 0.0
C242 C 0.26908 0.28 0.73936 0.0
C243 C 0.28202 0.31379 0.73843 0.0
C244 C 0.31522 0.31975 0.74206 0.0
C245 C 0.33285 0.34629 0.73705 0.0
C246 C 0.31725 0.36678 0.72835 0.0
C247 C 0.28234 0.36443 0.72657 0.0
C248 C 0.26479 0.33744 0.73145 0.0
C249 C 0.26745 0.17091 0.72791 0.0
C250 C 0.35849 0.20974 0.72496 0.0
C251 C 0.31164 0.14456 0.76184 0.0
C252 C 0.30936 0.14088 0.77492 0.0
C253 C 0.2872 0.11752 0.77984 0.0
C254 C 0.28875 0.11027 0.79219 0.0
C255 C 0.31277 0.12632 0.79958 0.0
C256 C 0.33015 0.15407 0.79497 0.0
C257 C 0.32947 0.16047 0.78257 0.0
C258 C 0.39006 0.22961 0.7492 0.0
C259 C 0.29869 0.23313 0.7722 0.0
O260 O 0.27162 0.26649 0.75006 0.0
O261 O 0.27924 0.26007 0.73075 0.0
O262 O 0.29909 0.17707 0.72986 0.0
O263 O 0.25357 0.19028 0.73603 0.0
O264 O 0.34006 0.23516 0.72835 0.0
O265 O 0.35562 0.18257 0.73138 0.0
O266 O 0.2888 0.16431 0.75715 0.0
O267 O 0.34201 0.14902 0.75746 0.0
O268 O 0.35967 0.24341 0.74846 0.0
O269 O 0.38602 0.19708 0.74965 0.0
O270 O 0.32825 0.22901 0.7671 0.0
O271 O 0.27669 0.22467 0.7639 0.0
H272 H 0.32869 0.30171 0.74757 0.0
H273 H 0.35973 0.34744 0.7386 0.0
H274 H 0.26981 0.38041 0.72001 0.0
H275 H 0.23903 0.33312 0.72868 0.0
H276 H 0.27071 0.1031 0.77402 0.0
H277 H 0.27445 0.08905 0.79545 0.0
H278 H 0.34808 0.16744 0.80056 0.0
H279 H 0.34653 0.17893 0.7789 0.0
Sm280 Sm 0.08052 0.05763 0.99352 0.0
Sm281 Sm 0.11345 0.08337 0.99974 0.0
C282 C 1.02277 1.02485 0.99176 0.0
C283 C 0.989 0.03817 0.99071 0.0
C284 C 0.98419 0.07237 0.99283 0.0
C285 C 0.95684 0.08863 0.98774 0.0
C286 C 0.93412 0.07071 0.98047 0.0
C287 C 0.93623 0.0356 0.98003 0.0
C288 C 0.96402 1.01936 0.98501 0.0
C289 C 0.13036 1.02339 0.97753 0.0
C290 C 0.10118 0.10374 0.97388 0.0
C291 C 0.16685 0.09521 1.01276 0.0
C292 C 0.17163 0.11849 1.02274 0.0
C293 C 0.14989 0.11886 1.03282 0.0
C294 C 0.15744 0.13872 1.04282 0.0
C295 C 0.18763 0.15684 1.04296 0.0
C296 C 0.20532 0.16137 1.03197 0.0
C297 C 0.19778 0.14161 1.02199 0.0
C298 C 0.07752 0.14587 0.99774 0.0
C299 C 0.07514 0.05135 1.0227 0.0
O300 O 0.03761 0.03071 1.00205 0.0
O301 O 0.04191 0.03164 0.98249 0.0
O302 O 0.13406 0.03369 0.98889 0.0
O303 O 0.09993 0.03255 0.97498 0.0
O304 O 0.07207 0.097 0.97867 0.0
O305 O 0.12703 0.09511 0.98034 0.0
O306 O 0.14746 0.06937 1.01485 0.0
O307 O 0.16158 0.10953 1.00228 0.0
O308 O 0.06402 0.1157 0.99851 0.0
O309 O 0.10984 0.14154 0.9973 0.0
O310 O 0.08279 0.08134 1.01881 0.0
O311 O 0.07961 0.03068 1.01351 0.0
H312 H 1.00346 0.08718 0.99721 0.0
H313 H 0.95622 0.11571 0.98816 0.0
H314 H 0.9187 1.0213 0.97459 0.0
H315 H 0.96758 0.99289 0.98334 0.0
H316 H 0.12857 0.1022 1.03338 0.0
H317 H 0.14288 0.13556 1.05108 0.0
H318 H 0.22826 0.1759 1.0316 0.0
H319 H 0.21378 0.14274 1.01401 0.0
Sm320 Sm 0.83544 0.85956 0.7503 0.0
Sm321 Sm 0.81068 0.83186 0.74391 0.0
C322 C 0.81448 0.90595 0.76516 0.0
C323 C 0.80292 0.90341 0.77778 0.0
C324 C 0.77041 0.8914 0.78032 0.0
C325 C 0.75943 0.88824 0.79223 0.0
C326 C 0.77991 0.89894 0.80179 0.0
C327 C 0.8132 0.90892 0.79932 0.0
C328 C 0.82461 0.9111 0.78738 0.0
C329 C 0.89802 0.82518 0.75033 0.0
C330 C 0.8055 0.82088 0.77301 0.0
C331 C 0.78493 0.77292 0.73817 0.0
C332 C 0.80162 0.74058 0.73796 0.0
C333 C 0.83049 0.7361 0.74514 0.0
C334 C 0.85457 0.71281 0.74172 0.0
C335 C 0.84962 0.69372 0.73124 0.0
C336 C 0.81865 0.69477 0.72514 0.0
C337 C 0.79465 0.71842 0.72847 0.0
C338 C 0.77445 0.88248 0.72879 0.0
C339 C 0.87008 0.8594 0.72753 0.0
O340 O 0.79477 0.89144 0.75721 0.0
O341 O 0.84662 0.90092 0.76311 0.0
O342 O 0.8679 0.81152 0.74888 0.0
O343 O 0.89395 0.85751 0.75177 0.0
O344 O 0.83568 0.82668 0.76885 0.0
O345 O 0.78458 0.82837 0.76414 0.0
O346 O 0.78168 0.78637 0.74887 0.0
O347 O 0.79631 0.79399 0.73014 0.0
O348 O 0.80579 0.88186 0.73238 0.0
O349 O 0.76155 0.85754 0.73479 0.0
O350 O 0.85186 0.83225 0.72884 0.0
O351 O 0.86656 0.88232 0.73578 0.0
H352 H 0.75306 0.88481 0.77313 0.0
H353 H 0.73385 0.88018 0.7939 0.0
H354 H 0.82956 0.9179 0.80647 0.0
H355 H 0.84989 0.92 0.78566 0.0
H356 H 0.83627 0.75307 0.75252 0.0
H357 H 0.87851 0.71234 0.74641 0.0
H358 H 0.81479 0.68043 0.7169 0.0
H359 H 0.7726 0.72187 0.72282 0.0
Sm360 Sm 0.9368 0.08682 0.49811 0.0
Sm361 Sm 0.96365 0.0615 0.49285 0.0
C362 C 0.88829 0.06577 0.51217 0.0
C363 C 0.88971 0.05329 0.5247 0.0
C364 C 0.90135 1.0206 0.52705 0.0
C365 C 0.90303 1.00855 0.53885 0.0
C366 C 0.89099 0.02808 0.54846 0.0
C367 C 0.88175 0.06161 0.54623 0.0
C368 C 0.88114 0.07411 0.53442 0.0
C369 C 0.97072 0.14887 0.49915 0.0
C370 C 0.97436 0.05733 0.52165 0.0
C371 C 1.02115 0.0306 0.4881 0.0
C372 C 0.0551 0.04336 0.48738 0.0
C373 C 0.06 0.07793 0.48791 0.0
C374 C 0.09077 0.09136 0.48469 0.0
C375 C 0.11695 0.0702 0.48085 0.0
C376 C 0.11326 0.03535 0.48205 0.0
C377 C 0.08211 1.0219 0.48516 0.0
C378 C 0.9121 0.02741 0.47711 0.0
C379 C 0.94551 0.12055 0.47522 0.0
O380 O 0.90349 0.04654 0.50428 0.0
O381 O 0.89374 0.09782 0.5104 0.0
O382 O 0.98462 0.11875 0.4981 0.0
O383 O 0.93796 0.14497 0.4997 0.0
O384 O 0.96991 0.08705 0.51687 0.0
O385 O 0.96568 0.03603 0.51313 0.0
O386 O 1.00792 0.03202 0.49887 0.0
O387 O 1.00094 0.04166 0.4797 0.0
O388 O 0.91716 0.05904 0.47944 0.0
O389 O 0.9323 1.01355 0.48499 0.0
O390 O 0.97139 0.10141 0.47772 0.0
O391 O 0.9197 0.11786 0.48243 0.0
H392 H 0.90857 1.00384 0.51977 0.0
H393 H 0.91053 0.98279 0.54033 0.0
H394 H 0.87189 0.07733 0.55342 0.0
H395 H 0.87257 0.09949 0.53286 0.0
H396 H 0.03927 0.09468 0.48977 0.0
H397 H 0.09241 0.1183 0.48378 0.0
H398 H 0.13326 1.01859 0.47929 0.0
H399 H 0.07856 0.99504 0.48498 0.0
Sm400 Sm 0.72291 0.18141 0.25022 0.0
Sm401 Sm 0.74784 0.21047 0.24437 0.0
C402 C 0.74597 0.13045 0.26267 0.0
C403 C 0.75832 0.12437 0.27495 0.0
C404 C 0.78392 0.14452 0.27986 0.0
C405 C 0.79609 0.13837 0.29143 0.0
C406 C 0.78385 0.11119 0.298 0.0
C407 C 0.75865 0.09063 0.29313 0.0
C408 C 0.74573 0.09739 0.28163 0.0
C409 C 0.66051 0.2158 0.25125 0.0
C410 C 0.75198 0.21993 0.27353 0.0
C411 C 0.77561 0.2682 0.23818 0.0
C412 C 0.75988 0.30044 0.23641 0.0
C413 C 0.72482 0.30228 0.23682 0.0
C414 C 0.70858 0.33099 0.23301 0.0
C415 C 0.72737 0.35826 0.22871 0.0
C416 C 0.76264 0.35762 0.2296 0.0
C417 C 0.77893 0.32853 0.23336 0.0
C418 C 0.78266 0.15915 0.22909 0.0
C419 C 0.68721 0.18835 0.22775 0.0
O420 O 0.76501 0.1503 0.25615 0.0
O421 O 0.71357 0.13569 0.2613 0.0
O422 O 0.69061 0.22961 0.24995 0.0
O423 O 0.66451 0.18327 0.25222 0.0
O424 O 0.72234 0.21087 0.26958 0.0
O425 O 0.77324 0.21568 0.26449 0.0
O426 O 0.7745 0.25725 0.24929 0.0
O427 O 0.76668 0.24561 0.23033 0.0
O428 O 0.75084 0.16379 0.23135 0.0
O429 O 0.7965 0.17955 0.23686 0.0
O430 O 0.70566 0.21492 0.22981 0.0
O431 O 0.69135 0.16299 0.235 0.0
H432 H 0.79525 0.16464 0.27476 0.0
H433 H 0.81567 0.15424 0.29511 0.0
H434 H 0.74894 0.06957 0.29825 0.0
H435 H 0.72634 0.0814 0.2779 0.0
H436 H 0.7099 0.28068 0.23916 0.0
H437 H 0.68144 0.33027 0.23222 0.0
H438 H 0.77754 0.37849 0.22636 0.0
H439 H 0.80613 0.32731 0.23318 0.0
Sm440 Sm 0.60519 0.96913 1.0014 0.0
Sm441 Sm 0.57631 0.99531 0.99473 0.0
C442 C 0.65687 0.97005 1.01573 0.0
C443 C 0.68555 0.97055 1.0237 0.0
C444 C 0.71247 0.99126 1.0206 0.0
C445 C 0.74455 0.98327 1.02463 0.0
C446 C 0.74963 0.95492 1.03198 0.0
C447 C 0.72177 0.93661 1.03617 0.0
C448 C 0.68982 0.94422 1.03191 0.0
C449 C 0.57039 0.90705 0.99956 0.0
C450 C 0.56691 1.001 1.02381 0.0
C451 C 0.51689 1.02259 0.99105 0.0
C452 C 0.48498 1.00519 0.99007 0.0
C453 C 0.48113 0.97448 0.99615 0.0
C454 C 0.45709 0.95178 0.99226 0.0
C455 C 0.43647 0.95976 0.98239 0.0
C456 C 0.43833 0.99164 0.97701 0.0
C457 C 0.46266 1.01428 0.98083 0.0
C458 C 0.62581 0.03152 0.97912 0.0
C459 C 0.59869 0.94349 0.97637 0.0
O460 O 0.63874 0.99697 1.01387 0.0
O461 O 0.64749 0.94279 1.01017 0.0
O462 O 0.55681 0.93728 0.99899 0.0
O463 O 0.60276 0.91087 1.00063 0.0
O464 O 0.57151 0.9708 1.01964 0.0
O465 O 0.57495 1.02174 1.01492 0.0
O466 O 0.53113 1.02185 1.00173 0.0
O467 O 0.53764 1.01541 0.98226 0.0
O468 O 0.63168 1.00653 0.98664 0.0
O469 O 0.59426 0.03787 0.98081 0.0
O470 O 0.57008 0.95673 0.97943 0.0
O471 O 0.62375 0.94909 0.98359 0.0
H472 H 0.70936 1.01134 1.01406 0.0
H473 H 0.7655 0.99778 1.02122 0.0
H474 H 0.72484 0.91531 1.04217 0.0
H475 H 0.66898 0.92798 1.03425 0.0
H476 H 0.49843 0.96686 1.00323 0.0
H477 H 0.45595 0.92727 0.99646 0.0
H478 H 0.42294 0.99798 0.9692 0.0
H479 H 0.46592 0.03754 0.97589 0.0
Sm480 Sm 0.83146 0.19722 0.88708 0.0
Sm481 Sm 0.80721 0.22553 0.89351 0.0
C482 C 0.81026 0.14819 0.87359 0.0
C483 C 0.80153 0.13899 0.86119 0.0
C484 C 0.76746 0.13435 0.85843 0.0
C485 C 0.75842 0.11248 0.84923 0.0
C486 C 0.78352 0.09513 0.8429 0.0
C487 C 0.8172 0.10509 0.84401 0.0
C488 C 0.8263 0.1269 0.85326 0.0
C489 C 0.89425 0.23113 0.88641 0.0
C490 C 0.80199 0.23552 0.86413 0.0
C491 C 0.78269 0.28421 0.90027 0.0
C492 C 0.80073 0.31578 0.90091 0.0
C493 C 0.82899 0.32025 0.89341 0.0
C494 C 0.85392 0.34267 0.89675 0.0
C495 C 0.8505 0.36102 0.90749 0.0
C496 C 0.82039 0.35964 0.91414 0.0
C497 C 0.79554 0.33684 0.91088 0.0
C498 C 0.77109 0.17379 0.90828 0.0
C499 C 0.86731 0.19762 0.90959 0.0
O500 O 0.78967 0.16892 0.8791 0.0
O501 O 0.84215 0.15197 0.87636 0.0
O502 O 0.86433 0.2451 0.88807 0.0
O503 O 0.88976 0.19892 0.88496 0.0
O504 O 0.83195 0.22694 0.86789 0.0
O505 O 0.78121 0.23136 0.87334 0.0
O506 O 0.77874 0.27207 0.8894 0.0
O507 O 0.79337 0.26183 0.90794 0.0
O508 O 0.80281 0.1764 0.90541 0.0
O509 O 0.75776 0.19713 0.90155 0.0
O510 O 0.8492 0.22491 0.90836 0.0
O511 O 0.86294 0.17452 0.90149 0.0
H512 H 0.74787 0.14397 0.86433 0.0
H513 H 0.73221 0.10548 0.84844 0.0
H514 H 0.83681 0.09249 0.83892 0.0
H515 H 0.85276 0.1309 0.85505 0.0
H516 H 0.83348 0.30411 0.88567 0.0
H517 H 0.87712 0.34345 0.89159 0.0
H518 H 0.81767 0.3734 0.92258 0.0
H519 H 0.77405 0.33331 0.91681 0.0
Sm520 Sm 0.60732 0.08252 0.63577 0.0
Sm521 Sm 0.58016 0.05765 0.64138 0.0
C522 C 0.6568 0.06188 0.62222 0.0
C523 C 0.66054 0.05032 0.60972 0.0
C524 C 0.66641 1.01618 0.60773 0.0
C525 C 0.67893 1.00558 0.59663 0.0
C526 C 0.68702 0.02941 0.58774 0.0
C527 C 0.67424 0.06207 0.58879 0.0
C528 C 0.66151 0.07276 0.59992 0.0
C529 C 0.57401 0.14534 0.6352 0.0
C530 C 0.57145 0.05188 0.61242 0.0
C531 C 0.52176 0.02871 0.64621 0.0
C532 C 0.48872 0.04318 0.64801 0.0
C533 C 0.48275 0.07573 0.64375 0.0
C534 C 0.45811 0.09518 0.64919 0.0
C535 C 0.43949 0.08209 0.65891 0.0
C536 C 0.44195 0.04792 0.6618 0.0
C537 C 0.46684 0.02849 0.6564 0.0
C538 C 0.63149 1.02265 0.65686 0.0
C539 C 0.60043 0.11583 0.65882 0.0
O540 O 0.63942 0.04175 0.6292 0.0
O541 O 0.65128 0.09387 0.62413 0.0
O542 O 0.55982 0.11544 0.63654 0.0
O543 O 0.60654 0.14071 0.63406 0.0
O544 O 0.57573 0.08201 0.61679 0.0
O545 O 0.57912 0.03115 0.62128 0.0
O546 O 0.53392 0.03154 0.63529 0.0
O547 O 0.54347 0.03684 0.65454 0.0
O548 O 0.62844 0.05425 0.65403 0.0
O549 O 0.6089 1.00913 0.64986 0.0
O550 O 0.57399 0.09737 0.65661 0.0
O551 O 0.62573 0.11267 0.65143 0.0
H552 H 0.66468 0.99817 0.61508 0.0
H553 H 0.68777 0.98 0.59594 0.0
H554 H 0.6794 0.08056 0.58182 0.0
H555 H 0.65562 0.099 0.60114 0.0
H556 H 0.49951 0.08737 0.63724 0.0
H557 H 0.45686 0.12153 0.64688 0.0
H558 H 0.42752 0.03745 0.66925 0.0
H559 H 0.47131 1.00335 0.65972 0.0
Sm560 Sm 0.70594 0.86819 0.38306 0.0
Sm561 Sm 0.73342 0.83639 0.38947 0.0
C562 C 0.69901 0.92242 0.36973 0.0
C563 C 0.71654 0.9542 0.37062 0.0
C564 C 0.74874 0.95511 0.3758 0.0
C565 C 0.76779 0.98404 0.37528 0.0
C566 C 0.75528 1.01214 0.36918 0.0
C567 C 0.72183 1.01213 0.36494 0.0
C568 C 0.70248 0.98316 0.36569 0.0
C569 C 0.64443 0.83183 0.38594 0.0
C570 C 0.73947 0.83021 0.36052 0.0
C571 C 0.76659 0.77897 0.39109 0.0
C572 C 0.75355 0.74575 0.39326 0.0
C573 C 0.71867 0.74143 0.39316 0.0
C574 C 0.70458 0.71379 0.39875 0.0
C575 C 0.72537 0.69013 0.40447 0.0
C576 C 0.76045 0.6924 0.40314 0.0
C577 C 0.77457 0.72051 0.39766 0.0
C578 C 0.76785 0.88553 0.40554 0.0
C579 C 0.68815 0.85809 0.40925 0.0
O580 O 0.67894 0.91538 0.37876 0.0
O581 O 0.7182 0.89737 0.36657 0.0
O582 O 0.67487 0.8187 0.38528 0.0
O583 O 0.64796 0.86411 0.38584 0.0
O584 O 0.709 0.83535 0.3646 0.0
O585 O 0.7603 0.83731 0.36948 0.0
O586 O 0.75766 0.79225 0.38081 0.0
O587 O 0.76246 0.7993 0.40018 0.0
O588 O 0.75441 0.89046 0.39461 0.0
O589 O 0.76206 0.8541 0.40752 0.0
O590 O 0.69496 0.82891 0.40465 0.0
O591 O 0.69545 0.88354 0.4024 0.0
H592 H 0.76031 0.93286 0.37941 0.0
H593 H 0.79344 0.98341 0.37858 0.0
H594 H 0.71167 0.03335 0.36003 0.0
H595 H 0.67754 0.98277 0.36174 0.0
H596 H 0.7022 0.76098 0.38983 0.0
H597 H 0.6775 0.71322 0.39979 0.0
H598 H 0.77688 0.67425 0.40742 0.0
H599 H 0.8016 0.72379 0.39778 0.0
Sm600 Sm 0.94223 0.95867 0.13481 0.0
Sm601 Sm 0.97379 0.98511 0.14106 0.0
C602 C 0.89148 0.95362 0.11993 0.0
C603 C 0.8928 0.9415 0.10746 0.0
C604 C 0.88499 0.96374 0.09806 0.0
C605 C 0.89257 0.95541 0.08613 0.0
C606 C 0.90771 0.92448 0.08342 0.0
C607 C 0.91524 0.90206 0.09281 0.0
C608 C 0.9081 0.91062 0.10479 0.0
C609 C 0.97923 0.897 0.13701 0.0
C610 C 0.97936 0.99122 0.1119 0.0
C611 C 0.03133 1.01849 0.14247 0.0
C612 C 0.06553 1.00654 0.1437 0.0
C613 C 0.07132 0.97207 0.14306 0.0
C614 C 0.1002 0.95865 0.14815 0.0
C615 C 0.12352 0.97973 0.15391 0.0
C616 C 0.11997 1.01462 0.1528 0.0
C617 C 0.09065 0.02803 0.14786 0.0
C618 C 0.92499 1.01911 0.15739 0.0
C619 C 0.95075 0.93922 0.16074 0.0
O620 O 0.90774 0.98171 0.12151 0.0
O621 O 0.89709 0.93151 0.12848 0.0
O622 O 0.99217 0.92745 0.13647 0.0
O623 O 0.94666 0.90049 0.13715 0.0
O624 O 0.97399 0.96096 0.116 0.0
O625 O 0.97297 1.01189 0.12098 0.0
O626 O 1.01679 1.01124 0.13226 0.0
O627 O 1.01235 1.01195 0.15181 0.0
O628 O 0.91933 1.00548 0.14663 0.0
O629 O 0.9568 1.01406 0.15909 0.0
O630 O 0.98029 0.94676 0.15642 0.0
O631 O 0.92552 0.94609 0.15371 0.0
H632 H 0.87391 0.98796 0.09998 0.0
H633 H 0.8855 0.97274 0.07898 0.0
H634 H 0.92628 0.87788 0.09085 0.0
H635 H 0.91522 0.89335 0.11195 0.0
H636 H 0.05196 0.95526 0.13985 0.0
H637 H 0.10183 0.93168 0.14892 0.0
H638 H 0.13789 0.03134 0.15703 0.0
H639 H 0.08634 0.05476 0.14833 0.0
Sm640 Sm 0.74666 0.72176 0.89223 0.0
Sm641 Sm 0.72146 0.69465 0.88712 0.0
C642 C 0.77696 0.77898 0.89762 0.0
C643 C 0.76284 0.81197 0.8995 0.0
C644 C 0.72842 0.81651 0.89753 0.0
C645 C 0.71237 0.84448 0.90213 0.0
C646 C 0.73072 0.86828 0.90875 0.0
C647 C 0.76598 0.8658 0.90924 0.0
C648 C 0.78201 0.83736 0.90475 0.0
C649 C 0.78155 0.66931 0.90722 0.0
C650 C 0.68763 0.70212 0.90991 0.0
C651 C 0.74079 0.64539 0.87314 0.0
C652 C 0.74711 0.64414 0.86016 0.0
C653 C 0.77449 0.62582 0.85587 0.0
C654 C 0.77888 0.62187 0.84342 0.0
C655 C 0.75528 0.63573 0.83525 0.0
C656 C 0.73276 0.65999 0.8396 0.0
C657 C 0.72741 0.66278 0.85204 0.0
C658 C 0.65846 0.72803 0.88627 0.0
C659 C 0.75041 0.73288 0.86363 0.0
O660 O 0.77396 0.76767 0.88662 0.0
O661 O 0.76819 0.75697 0.90573 0.0
O662 O 0.74999 0.67679 0.9059 0.0
O663 O 0.7948 0.68734 0.89855 0.0
O664 O 0.70624 0.72832 0.90743 0.0
O665 O 0.69124 0.67647 0.90279 0.0
O666 O 0.76212 0.66412 0.87904 0.0
O667 O 0.70941 0.64921 0.87657 0.0
O668 O 0.6886 0.74198 0.88734 0.0
O669 O 0.66287 0.6956 0.88541 0.0
O670 O 0.72065 0.72827 0.86848 0.0
O671 O 0.77216 0.7245 0.87203 0.0
H672 H 0.71345 0.79711 0.89338 0.0
H673 H 0.68518 0.84523 0.90169 0.0
H674 H 0.78066 0.88412 0.91417 0.0
H675 H 0.80876 0.83412 0.90617 0.0
H676 H 0.79102 0.61275 0.86211 0.0
H677 H 0.79763 0.604 0.84046 0.0
H678 H 0.71539 0.67236 0.83348 0.0
H679 H 0.70674 0.67804 0.85524 0.0
Sm680 Sm 0.57412 0.49131 0.14228 0.0
Sm681 Sm 0.60295 0.46651 0.13526 0.0
C682 C 0.51454 0.51978 0.14533 0.0
C683 C 0.48082 0.50601 0.1454 0.0
C684 C 0.47658 0.47227 0.1424 0.0
C685 C 0.44907 0.45489 0.14688 0.0
C686 C 0.42567 0.47134 0.15436 0.0
C687 C 0.42681 0.50642 0.1553 0.0
C688 C 0.45484 0.52369 0.15103 0.0
C689 C 0.62259 0.52807 0.15788 0.0
C690 C 0.60232 0.43872 0.15981 0.0
C691 C 0.6498 0.47416 0.11889 0.0
C692 C 0.64788 0.47555 0.10564 0.0
C693 C 0.63387 0.5035 0.09972 0.0
C694 C 0.63465 0.50583 0.08714 0.0
C695 C 0.65254 0.48194 0.08044 0.0
C696 C 0.66228 0.45188 0.08619 0.0
C697 C 0.6602 0.44889 0.09875 0.0
C698 C 0.56965 0.40334 0.13716 0.0
C699 C 0.56333 0.49814 0.11334 0.0
O700 O 0.53002 0.51887 0.13491 0.0
O701 O 0.53333 0.50944 0.15429 0.0
O702 O 0.6292 0.50459 0.14985 0.0
O703 O 0.59049 0.53248 0.1569 0.0
O704 O 0.57295 0.4521 0.15769 0.0
O705 O 0.6257 0.44457 0.1519 0.0
O706 O 0.63611 0.49945 0.1246 0.0
O707 O 0.64366 0.44512 0.12394 0.0
O708 O 0.55548 0.43327 0.13808 0.0
O709 O 0.60191 0.40797 0.1357 0.0
O710 O 0.56735 0.46787 0.11751 0.0
O711 O 0.57268 0.51846 0.12217 0.0
H712 H 0.49636 0.4585 0.13787 0.0
H713 H 0.44904 0.42791 0.14594 0.0
H714 H 0.40858 0.51971 0.16081 0.0
H715 H 0.45778 0.54992 0.15326 0.0
H716 H 0.62387 0.5245 0.10477 0.0
H717 H 0.62606 0.52877 0.08288 0.0
H718 H 0.67578 0.43254 0.08133 0.0
H719 H 0.67045 0.42679 0.10312 0.0
Sm720 Sm 0.81316 0.32197 0.39256 0.0
Sm721 Sm 0.83883 0.35225 0.38561 0.0
C722 C 0.78016 0.26455 0.39452 0.0
C723 C 0.79268 0.23048 0.39373 0.0
C724 C 0.82649 0.22564 0.39062 0.0
C725 C 0.84335 0.19748 0.39481 0.0
C726 C 0.82631 0.17416 0.40212 0.0
C727 C 0.79102 0.17575 0.40289 0.0
C728 C 0.77428 0.20443 0.39895 0.0
C729 C 0.77939 0.3716 0.40865 0.0
C730 C 0.86352 0.34579 0.41089 0.0
C731 C 0.84175 0.4013 0.36994 0.0
C732 C 0.85125 0.40276 0.35713 0.0
C733 C 0.83278 0.38546 0.34825 0.0
C734 C 0.83801 0.39212 0.336 0.0
C735 C 0.85963 0.41823 0.33267 0.0
C736 C 0.88234 0.43081 0.34137 0.0
C737 C 0.87779 0.42341 0.35361 0.0
C738 C 0.90121 0.31692 0.3877 0.0
C739 C 0.80718 0.31262 0.36345 0.0
O740 O 0.78154 0.28175 0.38451 0.0
O741 O 0.79169 0.28114 0.40379 0.0
O742 O 0.79346 0.37676 0.3979 0.0
O743 O 0.7839 0.33989 0.41043 0.0
O744 O 0.85298 0.31639 0.40754 0.0
O745 O 0.85558 0.37061 0.40385 0.0
O746 O 0.8138 0.38542 0.37241 0.0
O747 O 0.86604 0.39526 0.37763 0.0
O748 O 0.87084 0.30345 0.3876 0.0
O749 O 0.89733 0.34929 0.3874 0.0
O750 O 0.83751 0.31809 0.36747 0.0
O751 O 0.78648 0.32052 0.3724 0.0
H752 H 0.84085 0.24551 0.3864 0.0
H753 H 0.87047 0.197 0.39394 0.0
H754 H 0.77727 0.15753 0.40823 0.0
H755 H 0.74801 0.2078 0.40125 0.0
H756 H 0.81219 0.36925 0.35068 0.0
H757 H 0.82093 0.38132 0.32942 0.0
H758 H 0.90003 0.45042 0.33911 0.0
H759 H 0.89293 0.43623 0.36033 0.0
Sm760 Sm 0.96513 0.55977 0.6422 0.0
Sm761 Sm 0.93862 0.58648 0.63786 0.0
C762 C 1.02225 0.52697 0.64588 0.0
C763 C 0.0561 0.53942 0.64749 0.0
C764 C 0.0616 0.57383 0.64642 0.0
C765 C 0.09059 0.58782 0.65112 0.0
C766 C 0.11442 0.56737 0.65695 0.0
C767 C 0.11092 0.53238 0.65641 0.0
C768 C 0.08145 0.51842 0.65184 0.0
C769 C 0.91364 0.52622 0.65818 0.0
C770 C 0.95413 0.61607 0.6612 0.0
C771 C 0.88691 0.56922 0.62479 0.0
C772 C 0.88333 0.55854 0.6122 0.0
C773 C 0.87624 0.52479 0.60998 0.0
C774 C 0.86868 0.5143 0.59832 0.0
C775 C 0.86644 0.53786 0.58889 0.0
C776 C 0.87913 0.57028 0.59071 0.0
C777 C 0.88726 0.58076 0.60243 0.0
C778 C 0.97262 0.64815 0.63684 0.0
C779 C 0.97302 0.55645 0.61365 0.0
O780 O 1.00958 0.53221 0.63517 0.0
O781 O 1.00159 0.53507 0.65456 0.0
O782 O 0.92007 0.55779 0.65634 0.0
O783 O 0.93235 0.51237 0.64984 0.0
O784 O 0.97866 0.59691 0.65746 0.0
O785 O 0.9265 0.61508 0.65489 0.0
O786 O 0.90384 0.54799 0.63145 0.0
O787 O 0.89383 0.60076 0.627 0.0
O788 O 0.98633 0.61779 0.63731 0.0
O789 O 0.93982 0.64461 0.63684 0.0
O790 O 0.97093 0.58592 0.61884 0.0
O791 O 0.96339 0.53495 0.62195 0.0
H792 H 0.04215 0.59024 0.64298 0.0
H793 H 0.09212 0.61486 0.65148 0.0
H794 H 0.12923 0.51613 0.6607 0.0
H795 H 0.07743 0.4917 0.65259 0.0
H796 H 0.8743 0.5069 0.61737 0.0
H797 H 0.85954 0.48896 0.59721 0.0
H798 H 0.87827 0.58863 0.58346 0.0
H799 H 0.89433 0.60659 0.6039 0.0
Sm800 Sm 0.73674 0.33358 0.74565 0.0
Sm801 Sm 0.71066 0.36209 0.75167 0.0
C802 C 0.77173 0.27696 0.74491 0.0
C803 C 0.77224 0.24908 0.73635 0.0
C804 C 0.7564 0.21922 0.73979 0.0
C805 C 0.74271 0.19862 0.73094 0.0
C806 C 0.74553 0.20758 0.71863 0.0
C807 C 0.76684 0.23389 0.71522 0.0
C808 C 0.78005 0.25479 0.72407 0.0
C809 C 0.7692 0.38126 0.72858 0.0
C810 C 0.69002 0.35668 0.72579 0.0
C811 C 0.70514 0.41081 0.7674 0.0
C812 C 0.69496 0.41124 0.78013 0.0
C813 C 0.71352 0.39404 0.78903 0.0
C814 C 0.70705 0.39944 0.80128 0.0
C815 C 0.68485 0.42513 0.80457 0.0
C816 C 0.6617 0.43687 0.79584 0.0
C817 C 0.66722 0.43041 0.78359 0.0
C818 C 0.64799 0.32753 0.74882 0.0
C819 C 0.74365 0.32425 0.77402 0.0
O820 O 0.74351 0.28042 0.75077 0.0
O821 O 0.78322 0.30544 0.741 0.0
O822 O 0.75602 0.38724 0.73944 0.0
O823 O 0.76339 0.34951 0.72693 0.0
O824 O 0.70273 0.32779 0.72886 0.0
O825 O 0.69448 0.38088 0.73344 0.0
O826 O 0.73385 0.39635 0.76499 0.0
O827 O 0.68151 0.40388 0.75959 0.0
O828 O 0.67833 0.31397 0.74905 0.0
O829 O 0.65214 0.35978 0.7494 0.0
O830 O 0.7134 0.32592 0.76943 0.0
O831 O 0.76375 0.33631 0.76559 0.0
H832 H 0.75064 0.21418 0.74926 0.0
H833 H 0.72649 0.17833 0.7338 0.0
H834 H 0.77 0.24059 0.70573 0.0
H835 H 0.79293 0.27731 0.72118 0.0
H836 H 0.73512 0.37913 0.78668 0.0
H837 H 0.72424 0.38893 0.80791 0.0
H838 H 0.64314 0.4557 0.79809 0.0
H839 H 0.65185 0.44294 0.77684 0.0
Sm840 Sm 0.97469 0.49256 0.99446 0.0
Sm841 Sm 0.94866 0.46576 0.99808 0.0
C842 C 0.03073 0.52762 0.99151 0.0
C843 C 0.06508 0.51661 0.98991 0.0
C844 C 0.07197 0.48238 0.99074 0.0
C845 C 0.10137 0.46978 0.9858 0.0
C846 C 0.12411 0.49143 0.97997 0.0
C847 C 0.11939 0.52622 0.98089 0.0
C848 C 0.08953 0.5388 0.98568 0.0
C849 C 0.92294 0.52638 0.97857 0.0
C850 C 0.96829 0.43923 0.97439 0.0
C851 C 0.89516 0.48082 1.01067 0.0
C852 C 0.88969 0.48806 1.02343 0.0
C853 C 0.87521 0.5188 1.02644 0.0
C854 C 0.86659 0.52541 1.03839 0.0
C855 C 0.87087 0.50047 1.04728 0.0
C856 C 0.89106 0.47254 1.04463 0.0
C857 C 0.90012 0.46608 1.03263 0.0
C858 C 0.98158 0.4035 0.99897 0.0
C859 C 0.98243 0.49464 1.02286 0.0
O860 O 1.01787 0.52078 1.00207 0.0
O861 O 1.01075 0.51965 0.98262 0.0
O862 O 0.93212 0.4953 0.97953 0.0
O863 O 0.93866 0.53928 0.98785 0.0
O864 O 0.99202 0.45801 0.97886 0.0
O865 O 0.9398 0.43971 0.98019 0.0
O866 O 0.91363 0.50332 1.00529 0.0
O867 O 0.90213 0.44988 1.00755 0.0
O868 O 0.99561 0.43374 0.99901 0.0
O869 O 0.94889 0.40757 0.99857 0.0
O870 O 0.98083 0.46553 1.01732 0.0
O871 O 0.97244 0.5165 1.01479 0.0
H872 H 0.05318 0.46506 0.99408 0.0
H873 H 0.10387 0.44284 0.9852 0.0
H874 H 0.13684 0.54337 0.97661 0.0
H875 H 0.0844 0.56538 0.98514 0.0
H876 H 0.86866 0.53683 1.01944 0.0
H877 H 0.85184 0.54768 1.04014 0.0
H878 H 0.89547 0.45344 1.05145 0.0
H879 H 0.91326 0.44307 1.03049 0.0
Sm880 Sm 0.80175 0.72462 0.24224 0.0
Sm881 Sm 0.82551 0.69629 0.24877 0.0
C882 C 0.77736 0.78277 0.23485 0.0
C883 C 0.79457 0.81474 0.23464 0.0
C884 C 0.82289 0.81908 0.2421 0.0
C885 C 0.84572 0.84437 0.23959 0.0
C886 C 0.84007 0.86581 0.22975 0.0
C887 C 0.8101 0.86342 0.22302 0.0
C888 C 0.78745 0.83774 0.22543 0.0
C889 C 0.76538 0.67265 0.22788 0.0
C890 C 0.86148 0.69494 0.22635 0.0
C891 C 0.8027 0.65019 0.26339 0.0
C892 C 0.79678 0.64849 0.27639 0.0
C893 C 0.77005 0.6293 0.28067 0.0
C894 C 0.76841 0.62128 0.29295 0.0
C895 C 0.79416 0.63188 0.30086 0.0
C896 C 0.81612 0.65718 0.29695 0.0
C897 C 0.81843 0.66438 0.28461 0.0
C898 C 0.8884 0.72994 0.24933 0.0
C899 C 0.79786 0.73761 0.27128 0.0
O900 O 0.77179 0.77057 0.24562 0.0
O901 O 0.79003 0.76072 0.22748 0.0
O902 O 0.79712 0.67543 0.23051 0.0
O903 O 0.75215 0.69575 0.23472 0.0
O904 O 0.84404 0.72268 0.22754 0.0
O905 O 0.85677 0.67222 0.23461 0.0
O906 O 0.78259 0.67045 0.25748 0.0
O907 O 0.83429 0.65138 0.25991 0.0
O908 O 0.85858 0.74401 0.24772 0.0
O909 O 0.8839 0.69771 0.25083 0.0
O910 O 0.8275 0.72859 0.26733 0.0
O911 O 0.77644 0.73277 0.26236 0.0
H912 H 0.82867 0.80145 0.24928 0.0
H913 H 0.86878 0.84584 0.2448 0.0
H914 H 0.80563 0.87948 0.21524 0.0
H915 H 0.76589 0.83432 0.21954 0.0
H916 H 0.7524 0.61797 0.2744 0.0
H917 H 0.75027 0.60254 0.29567 0.0
H918 H 0.83534 0.66678 0.30299 0.0
H919 H 0.83889 0.67995 0.28147 0.0
Sm920 Sm 0.58576 0.5545 0.49389 0.0
Sm921 Sm 0.61289 0.57852 0.4998 0.0
C922 C 0.52772 0.52678 0.48774 0.0
C923 C 0.49444 0.54092 0.48651 0.0
C924 C 0.49069 0.5756 0.48732 0.0
C925 C 0.46083 0.59044 0.48381 0.0
C926 C 0.43442 0.57061 0.47938 0.0
C927 C 0.43682 0.53556 0.48013 0.0
C928 C 0.46705 0.5207 0.48358 0.0
C929 C 0.63696 0.51873 0.47872 0.0
C930 C 0.61305 0.61436 0.47761 0.0
C931 C 0.65864 0.55351 0.51414 0.0
C932 C 0.65661 0.54072 0.5266 0.0
C933 C 0.64815 0.507 0.52869 0.0
C934 C 0.64885 0.49395 0.54039 0.0
C935 C 0.65978 0.51396 0.55005 0.0
C936 C 0.66372 0.54866 0.54816 0.0
C937 C 0.66244 0.56187 0.53648 0.0
C938 C 0.57917 0.64133 0.50035 0.0
C939 C 0.57419 0.55044 0.52298 0.0
O940 O 0.53936 0.52683 0.49875 0.0
O941 O 0.54954 0.53765 0.47986 0.0
O942 O 0.63355 0.55042 0.48128 0.0
O943 O 0.61503 0.50533 0.48606 0.0
O944 O 0.58567 0.59633 0.47901 0.0
O945 O 0.63653 0.61015 0.48567 0.0
O946 O 0.64234 0.53548 0.50617 0.0
O947 O 0.65553 0.58595 0.51249 0.0
O948 O 0.56516 0.61154 0.49875 0.0
O949 O 0.61163 0.63675 0.50182 0.0
O950 O 0.58083 0.58016 0.51862 0.0
O951 O 0.58099 0.5291 0.51421 0.0
H952 H 0.5117 0.5914 0.48966 0.0
H953 H 0.46018 0.61749 0.48321 0.0
H954 H 0.41662 0.51982 0.47686 0.0
H955 H 0.4697 0.49375 0.48315 0.0
H956 H 0.64254 0.49018 0.52125 0.0
H957 H 0.64506 0.46733 0.54164 0.0
H958 H 0.67194 0.56506 0.5554 0.0
H959 H 0.66802 0.58814 0.53516 0.0
Sm960 Sm 0.34318 0.35127 0.24985 0.0
Sm961 Sm 0.3171 0.32372 0.24398 0.0
C962 C 0.32961 0.40214 0.2638 0.0
C963 C 0.32329 0.41029 0.27652 0.0
C964 C 0.29026 0.40885 0.28101 0.0
C965 C 0.28083 0.42951 0.29054 0.0
C966 C 0.30446 0.45151 0.29554 0.0
C967 C 0.33869 0.44732 0.29283 0.0
C968 C 0.34809 0.42704 0.28317 0.0
C969 C 0.40512 0.31651 0.24992 0.0
C970 C 0.31213 0.31464 0.27295 0.0
C971 C 0.28734 0.26553 0.23981 0.0
C972 C 0.30067 0.23173 0.23967 0.0
C973 C 0.33419 0.22666 0.24304 0.0
C974 C 0.35093 0.19803 0.2393 0.0
C975 C 0.33408 0.17417 0.23219 0.0
C976 C 0.29901 0.17674 0.23075 0.0
C977 C 0.28241 0.2059 0.23428 0.0
C978 C 0.28186 0.3751 0.22866 0.0
C979 C 0.37429 0.34377 0.22601 0.0
O980 O 0.30627 0.38476 0.25826 0.0
O981 O 0.36045 0.39471 0.26055 0.0
O982 O 0.37475 0.30308 0.24899 0.0
O983 O 0.40157 0.34898 0.25075 0.0
O984 O 0.34232 0.31879 0.26852 0.0
O985 O 0.29112 0.32289 0.26422 0.0
O986 O 0.28766 0.27998 0.25039 0.0
O987 O 0.29883 0.28485 0.23121 0.0
O988 O 0.31319 0.37387 0.23222 0.0
O989 O 0.26863 0.35036 0.23466 0.0
O990 O 0.35569 0.31752 0.22832 0.0
O991 O 0.37183 0.36849 0.2336 0.0
H992 H 0.27074 0.3953 0.27623 0.0
H993 H 0.25431 0.4318 0.29262 0.0
H994 H 0.35744 0.4634 0.29693 0.0
H995 H 0.37391 0.42778 0.28004 0.0
H996 H 0.34834 0.24624 0.24745 0.0
H997 H 0.3779 0.19704 0.24061 0.0
H998 H 0.28532 0.15824 0.22554 0.0
H999 H 0.25627 0.20942 0.23183 0.0
Sm1000 Sm 0.43817 0.58987 1.00037 0.0
Sm1001 Sm 0.46557 0.56381 0.99451 0.0
C1002 C 0.389 0.57557 1.01485 0.0
C1003 C 0.36347 0.56467 1.0233 0.0
C1004 C 0.3672 0.53327 1.02881 0.0
C1005 C 0.34007 0.51841 1.03448 0.0
C1006 C 0.30915 0.53515 1.03493 0.0
C1007 C 0.30645 0.56801 1.03045 0.0
C1008 C 0.33363 0.58274 1.02458 0.0
C1009 C 0.47227 0.65178 1.00001 0.0
C1010 C 0.47584 0.55931 1.02342 0.0
C1011 C 0.52366 0.53375 0.99018 0.0
C1012 C 0.55735 0.54703 0.98923 0.0
C1013 C 0.56229 0.58105 0.99155 0.0
C1014 C 0.59023 0.5971 0.98683 0.0
C1015 C 0.61346 0.57902 0.97981 0.0
C1016 C 0.6112 0.54393 0.97932 0.0
C1017 C 0.58274 0.52796 0.98386 0.0
C1018 C 0.41425 0.52838 0.97924 0.0
C1019 C 0.44529 0.61972 0.97637 0.0
O1020 O 0.40803 0.55282 1.00975 0.0
O1021 O 0.39433 0.60677 1.01166 0.0
O1022 O 0.48609 0.62164 0.99905 0.0
O1023 O 0.43973 0.64797 1.00111 0.0
O1024 O 0.47149 0.58932 1.01889 0.0
O1025 O 0.46793 0.53813 1.01476 0.0
O1026 O 0.51033 0.53582 1.00095 0.0
O1027 O 0.50336 0.5438 0.98162 0.0
O1028 O 0.41466 0.55942 0.98303 0.0
O1029 O 0.43958 0.51552 0.98506 0.0
O1030 O 0.47212 0.6021 0.9789 0.0
O1031 O 0.42012 0.61683 0.98383 0.0
H1032 H 0.39044 0.51923 1.02805 0.0
H1033 H 0.34287 0.49309 1.03785 0.0
H1034 H 0.28301 0.58172 1.03104 0.0
H1035 H 0.33069 0.60719 1.02044 0.0
H1036 H 0.54293 0.59588 0.99585 0.0
H1037 H 0.59101 0.62416 0.98733 0.0
H1038 H 0.62922 0.52948 0.97413 0.0
H1039 H 0.57919 0.50151 0.98218 0.0
Sm1040 Sm 0.21746 0.69268 0.7511 0.0
Sm1041 Sm 0.24187 0.72041 0.74418 0.0
C1042 C 0.23735 0.64506 0.76535 0.0
C1043 C 0.25005 0.61899 0.77327 0.0
C1044 C 0.28461 0.6177 0.7757 0.0
C1045 C 0.2986 0.58902 0.78061 0.0
C1046 C 0.2781 0.56155 0.78328 0.0
C1047 C 0.24311 0.56392 0.78179 0.0
C1048 C 0.2291 0.59261 0.77677 0.0
C1049 C 0.15465 0.72684 0.75085 0.0
C1050 C 0.24702 0.73284 0.77352 0.0
C1051 C 0.26666 0.77838 0.73693 0.0
C1052 C 0.24955 0.81025 0.73598 0.0
C1053 C 0.21967 0.81503 0.74255 0.0
C1054 C 0.19751 0.84017 0.73919 0.0
C1055 C 0.20546 0.86106 0.7294 0.0
C1056 C 0.23675 0.85815 0.72354 0.0
C1057 C 0.25872 0.83258 0.7268 0.0
C1058 C 0.27872 0.66875 0.72965 0.0
C1059 C 0.1831 0.69063 0.72823 0.0
O1060 O 0.25827 0.66639 0.76035 0.0
O1061 O 0.20536 0.64869 0.76268 0.0
O1062 O 0.18463 0.74047 0.74912 0.0
O1063 O 0.15899 0.6948 0.75281 0.0
O1064 O 0.21705 0.72394 0.7699 0.0
O1065 O 0.26775 0.72833 0.7643 0.0
O1066 O 0.27023 0.76701 0.74795 0.0
O1067 O 0.25541 0.75585 0.72946 0.0
O1068 O 0.24743 0.66929 0.73336 0.0
O1069 O 0.2913 0.69424 0.7354 0.0
O1070 O 0.20028 0.71847 0.72931 0.0
O1071 O 0.18762 0.66828 0.73663 0.0
H1072 H 0.30122 0.63799 0.77314 0.0
H1073 H 0.32562 0.58776 0.78174 0.0
H1074 H 0.22676 0.54324 0.78415 0.0
H1075 H 0.20231 0.59335 0.77502 0.0
H1076 H 0.21235 0.79793 0.74971 0.0
H1077 H 0.17342 0.84212 0.74374 0.0
H1078 H 0.243 0.87382 0.71582 0.0
H1079 H 0.28152 0.82875 0.72158 0.0
Sm1080 Sm 0.10284 0.467 0.50063 0.0
Sm1081 Sm 0.07415 0.49304 0.49495 0.0
C1082 C 0.15621 0.47937 0.51355 0.0
C1083 C 0.17156 0.48469 0.5254 0.0
C1084 C 0.17289 0.51733 0.53007 0.0
C1085 C 0.19994 0.52684 0.53721 0.0
C1086 C 0.2253 0.50356 0.53983 0.0
C1087 C 0.22033 0.46962 0.53714 0.0
C1088 C 0.1935 0.46019 0.52986 0.0
C1089 C 0.06901 0.40466 0.50044 0.0
C1090 C 0.06619 0.49787 0.52395 0.0
C1091 C 1.01519 0.52163 0.49072 0.0
C1092 C 0.98211 0.50687 0.48948 0.0
C1093 C 0.97877 0.47236 0.49115 0.0
C1094 C 0.95046 0.45602 0.48693 0.0
C1095 C 0.925 0.47418 0.48101 0.0
C1096 C 0.92638 0.50937 0.48096 0.0
C1097 C 0.95521 0.52569 0.48502 0.0
C1098 C 0.12532 0.52886 0.47967 0.0
C1099 C 0.09268 0.43751 0.47662 0.0
O1100 O 0.13644 0.50302 0.50935 0.0
O1101 O 0.14811 0.44892 0.51025 0.0
O1102 O 0.05503 0.43477 0.49975 0.0
O1103 O 0.10154 0.40873 0.50126 0.0
O1104 O 0.07126 0.46784 0.51958 0.0
O1105 O 0.07335 0.51893 0.51513 0.0
O1106 O 0.02828 0.51902 0.50151 0.0
O1107 O 0.03625 0.51343 0.48214 0.0
O1108 O 0.12407 0.49748 0.48297 0.0
O1109 O 0.10081 0.5418 0.48593 0.0
O1110 O 0.06594 0.45469 0.47952 0.0
O1111 O 0.11865 0.4408 0.48363 0.0
H1112 H 0.15577 0.5366 0.52693 0.0
H1113 H 0.20296 0.55311 0.53934 0.0
H1114 H 0.23912 0.45107 0.5395 0.0
H1115 H 0.19254 0.43471 0.52653 0.0
H1116 H 0.99928 0.45764 0.49471 0.0
H1117 H 0.95063 0.42892 0.48705 0.0
H1118 H 0.90677 0.52396 0.47663 0.0
H1119 H 0.95748 0.55251 0.48384 0.0
Sm1120 Sm 0.32741 0.69457 0.38679 0.0
Sm1121 Sm 0.30348 0.72307 0.39339 0.0
C1122 C 0.30201 0.64939 0.37251 0.0
C1123 C 0.29176 0.65084 0.35974 0.0
C1124 C 0.2584 0.65923 0.35678 0.0
C1125 C 0.24795 0.65951 0.34474 0.0
C1126 C 0.27032 0.65009 0.33553 0.0
C1127 C 0.30444 0.64491 0.33838 0.0
C1128 C 0.31506 0.64518 0.35042 0.0
C1129 C 0.3899 0.72916 0.38606 0.0
C1130 C 0.29935 0.73421 0.36397 0.0
C1131 C 0.27629 0.78078 0.4 0.0
C1132 C 0.28906 0.81471 0.39959 0.0
C1133 C 0.3233 0.81981 0.39744 0.0
C1134 C 0.33764 0.85051 0.40006 0.0
C1135 C 0.31774 0.87626 0.405 0.0
C1136 C 0.28253 0.87279 0.40492 0.0
C1137 C 0.26823 0.8417 0.40247 0.0
C1138 C 0.26727 0.67131 0.40811 0.0
C1139 C 0.36374 0.69411 0.40912 0.0
O1140 O 0.28346 0.66774 0.3798 0.0
O1141 O 0.33443 0.65048 0.3749 0.0
O1142 O 0.35991 0.74292 0.38774 0.0
O1143 O 0.38571 0.69684 0.38458 0.0
O1144 O 0.32871 0.72307 0.36743 0.0
O1145 O 0.27867 0.73168 0.37327 0.0
O1146 O 0.27151 0.76723 0.38942 0.0
O1147 O 0.29179 0.76085 0.40752 0.0
O1148 O 0.29894 0.67332 0.40507 0.0
O1149 O 0.25417 0.6952 0.40161 0.0
O1150 O 0.34578 0.7216 0.40802 0.0
O1151 O 0.35929 0.6712 0.4009 0.0
H1152 H 0.23997 0.66443 0.36379 0.0
H1153 H 0.22162 0.66381 0.34276 0.0
H1154 H 0.32237 0.63734 0.33149 0.0
H1155 H 0.3411 0.63947 0.35242 0.0
H1156 H 0.3395 0.79925 0.39491 0.0
H1157 H 0.36481 0.85208 0.39987 0.0
H1158 H 0.26655 0.89261 0.40835 0.0
H1159 H 0.24148 0.83813 0.40377 0.0
Sm1160 Sm 0.11727 0.57881 0.1353 0.0
Sm1161 Sm 0.09053 0.55554 0.14208 0.0
C1162 C 0.16061 0.55108 0.12053 0.0
C1163 C 0.1559 0.53549 0.10859 0.0
C1164 C 0.14774 0.50128 0.10793 0.0
C1165 C 0.1408 0.48647 0.09681 0.0
C1166 C 0.14351 0.5051 0.08607 0.0
C1167 C 0.15009 0.5397 0.08677 0.0
C1168 C 0.15619 0.55476 0.09795 0.0
C1169 C 0.08266 0.64184 0.1353 0.0
C1170 C 0.07692 0.54984 0.11287 0.0
C1171 C 0.03197 0.53249 0.14961 0.0
C1172 C 1.00084 0.5506 0.15132 0.0
C1173 C 1.00211 0.58498 0.15365 0.0
C1174 C 0.97278 0.60257 0.15574 0.0
C1175 C 0.94168 0.58594 0.15559 0.0
C1176 C 0.94033 0.55207 0.15221 0.0
C1177 C 0.96995 0.53439 0.15011 0.0
C1178 C 0.14125 0.51872 0.15687 0.0
C1179 C 0.12458 0.61577 0.15665 0.0
O1180 O 0.14598 0.53483 0.12942 0.0
O1181 O 0.15732 0.58376 0.1213 0.0
O1182 O 0.06939 0.61206 0.13757 0.0
O1183 O 0.11469 0.63726 0.13285 0.0
O1184 O 0.08441 0.5798 0.11674 0.0
O1185 O 0.08377 0.52917 0.12192 0.0
O1186 O 0.04174 0.53086 0.13836 0.0
O1187 O 0.05614 0.54064 0.15698 0.0
O1188 O 0.1401 0.5502 0.15358 0.0
O1189 O 0.1169 0.50589 0.15049 0.0
O1190 O 0.0967 0.59815 0.15654 0.0
O1191 O 0.14563 0.61122 0.14781 0.0
H1192 H 0.14675 0.48578 0.11601 0.0
H1193 H 0.13546 0.45991 0.09656 0.0
H1194 H 0.15296 0.55482 0.07866 0.0
H1195 H 0.16179 0.58126 0.09822 0.0
H1196 H 1.02587 0.59796 0.15442 0.0
H1197 H 0.97494 0.62845 0.15856 0.0
H1198 H 0.91661 0.53883 0.15203 0.0
H1199 H 0.96882 0.50797 0.14797 0.0
Sm1200 Sm 0.21337 0.36397 0.88525 0.0
Sm1201 Sm 0.237 0.33684 0.89188 0.0
C1202 C 0.24046 0.40813 0.87073 0.0
C1203 C 0.25584 0.40437 0.8587 0.0
C1204 C 0.28993 0.39519 0.85783 0.0
C1205 C 0.30459 0.38961 0.84658 0.0
C1206 C 0.28598 0.39473 0.83595 0.0
C1207 C 0.25149 0.40239 0.8368 0.0
C1208 C 0.23651 0.4071 0.84811 0.0
C1209 C 0.15036 0.33016 0.88509 0.0
C1210 C 0.24219 0.32439 0.86256 0.0
C1211 C 0.2615 0.27844 0.89903 0.0
C1212 C 0.24504 0.24615 0.89954 0.0
C1213 C 0.21578 0.24117 0.89266 0.0
C1214 C 0.19433 0.21494 0.89544 0.0
C1215 C 0.20238 0.19318 0.90497 0.0
C1216 C 0.2332 0.1964 0.91112 0.0
C1217 C 0.25444 0.22304 0.90844 0.0
C1218 C 0.27328 0.38733 0.90696 0.0
C1219 C 0.17631 0.36899 0.90703 0.0
O1220 O 0.25713 0.39308 0.87943 0.0
O1221 O 0.20767 0.40463 0.87159 0.0
O1222 O 0.18016 0.31637 0.88712 0.0
O1223 O 0.15498 0.3622 0.88299 0.0
O1224 O 0.21221 0.33208 0.86653 0.0
O1225 O 0.2631 0.33054 0.8716 0.0
O1226 O 0.26595 0.29046 0.88816 0.0
O1227 O 0.2491 0.30043 0.90648 0.0
O1228 O 0.24179 0.3862 0.90354 0.0
O1229 O 0.28637 0.36308 0.90064 0.0
O1230 O 0.19426 0.34133 0.90641 0.0
O1231 O 0.18053 0.39044 0.89829 0.0
H1232 H 0.30551 0.39241 0.86585 0.0
H1233 H 0.33109 0.38345 0.84618 0.0
H1234 H 0.23653 0.4071 0.82875 0.0
H1235 H 0.2101 0.41365 0.84854 0.0
H1236 H 0.20834 0.25883 0.88569 0.0
H1237 H 0.17059 0.21281 0.89069 0.0
H1238 H 0.23951 0.18005 0.91865 0.0
H1239 H 0.27681 0.22692 0.91388 0.0
Sm1240 Sm 0.44205 0.46498 0.63606 0.0
Sm1241 Sm 0.47029 0.4894 0.64204 0.0
C1242 C 0.39526 0.48731 0.62153 0.0
C1243 C 0.39819 0.49892 0.60891 0.0
C1244 C 0.41001 0.53145 0.60649 0.0
C1245 C 0.41529 0.54203 0.59463 0.0
C1246 C 0.40702 0.52107 0.5849 0.0
C1247 C 0.39649 0.48805 0.58731 0.0
C1248 C 0.39221 0.47705 0.59922 0.0
C1249 C 0.47532 0.40203 0.63549 0.0
C1250 C 0.48129 0.4942 0.61306 0.0
C1251 C 0.52946 0.51559 0.64756 0.0
C1252 C 0.56216 0.49966 0.64838 0.0
C1253 C 0.56372 0.46474 0.64872 0.0
C1254 C 0.59391 0.44883 0.65108 0.0
C1255 C 0.62306 0.46773 0.65324 0.0
C1256 C 0.62207 0.50264 0.65155 0.0
C1257 C 0.59154 0.51862 0.6492 0.0
C1258 C 0.41931 0.5254 0.6574 0.0
C1259 C 0.44656 0.43041 0.65887 0.0
O1260 O 0.41068 0.50636 0.62944 0.0
O1261 O 0.39932 0.45514 0.62357 0.0
O1262 O 0.48961 0.43186 0.63676 0.0
O1263 O 0.44275 0.40671 0.63445 0.0
O1264 O 0.475 0.46438 0.61741 0.0
O1265 O 0.47407 0.51539 0.62183 0.0
O1266 O 0.51685 0.51622 0.63668 0.0
O1267 O 0.50776 0.50589 0.6557 0.0
O1268 O 0.42116 0.49387 0.65428 0.0
O1269 O 0.44298 0.53847 0.65073 0.0
O1270 O 0.47354 0.44843 0.65696 0.0
O1271 O 0.42181 0.43436 0.65129 0.0
H1272 H 0.41532 0.54895 0.61375 0.0
H1273 H 0.42372 0.56743 0.59305 0.0
H1274 H 0.38921 0.47135 0.58002 0.0
H1275 H 0.38345 0.45178 0.60083 0.0
H1276 H 0.5412 0.44981 0.64802 0.0
H1277 H 0.59336 0.42202 0.65249 0.0
H1278 H 0.64426 0.51773 0.65308 0.0
H1279 H 0.5906 0.54567 0.64869 0.0
H1280 H 0.164 0.39103 0.40686 0.0
H1281 H 0.11637 0.37504 0.4767 0.0
H1282 H 0.22014 0.33661 0.43408 0.0
H1283 H 0.07577 0.45194 0.45343 0.0
H1284 H 0.14145 0.34813 0.45905 0.0
H1285 H 0.12143 0.40427 0.42231 0.0
C1286 C 0.16752 0.38243 0.41612 0.0
C1287 C 0.19583 0.3636 0.41935 0.0
C1288 C 0.12621 0.37032 0.45771 0.0
C1289 C 0.14723 0.37717 0.43668 0.0
C1290 C 0.11164 0.38533 0.46773 0.0
C1291 C 0.09458 0.41562 0.46629 0.0
C1292 C 0.12396 0.38629 0.44637 0.0
C1293 C 0.08889 0.42844 0.45468 0.0
C1294 C 0.14319 0.38952 0.42483 0.0
C1295 C 0.19916 0.35218 0.43134 0.0
N1296 N 0.10447 0.41407 0.44506 0.0
N1297 N 0.17507 0.35918 0.43959 0.0
H1298 H 0.92767 1.00247 0.67779 0.0
H1299 H 0.85922 0.8332 0.70518 0.0
H1300 H 0.89634 0.92078 0.65469 0.0
H1301 H 0.91954 0.90457 0.72488 0.0
H1302 H 0.8711 0.86354 0.68635 0.0
H1303 H 0.91684 0.9682 0.69547 0.0
C1304 C 0.91737 0.97769 0.67641 0.0
C1305 C 0.91297 0.96436 0.66472 0.0
C1306 C 0.88235 0.87203 0.69477 0.0
C1307 C 0.90252 0.92443 0.68493 0.0
C1308 C 0.87609 0.85444 0.70542 0.0
C1309 C 0.88786 0.86716 0.71645 0.0
C1310 C 0.90035 0.9021 0.69539 0.0
C1311 C 0.90954 0.89461 0.71646 0.0
C1312 C 0.91207 0.95783 0.68653 0.0
C1313 C 0.90029 0.93181 0.66356 0.0
N1314 N 0.91452 0.91179 0.70606 0.0
N1315 N 0.8959 0.91263 0.6736 0.0
H1316 H 0.38618 0.64716 0.90241 0.0
H1317 H 0.40961 0.67584 0.9731 0.0
H1318 H 0.30865 0.67899 0.92745 0.0
H1319 H 0.46901 0.60195 0.95424 0.0
H1320 H 0.3822 0.69031 0.95401 0.0
H1321 H 0.42379 0.63783 0.9198 0.0
C1322 C 0.37677 0.65115 0.91154 0.0
C1323 C 0.3443 0.66386 0.91348 0.0
C1324 C 0.4018 0.67147 0.95399 0.0
C1325 C 0.38713 0.65471 0.93305 0.0
C1326 C 0.41772 0.66366 0.96479 0.0
C1327 C 0.44083 0.63739 0.96506 0.0
C1328 C 0.40923 0.65267 0.94357 0.0
C1329 C 0.45101 0.62229 0.95421 0.0
C1330 C 0.39829 0.6463 0.92137 0.0
C1331 C 0.33328 0.66881 0.92547 0.0
N1332 N 0.43439 0.62961 0.94379 0.0
N1333 N 0.35489 0.66471 0.9348 0.0
H1334 H 0.62778 0.1569 0.22742 0.0
H1335 H 0.64824 0.12464 0.15661 0.0
H1336 H 0.69791 0.21156 0.20505 0.0
H1337 H 0.59818 0.05932 0.18219 0.0
H1338 H 0.65854 0.16431 0.17318 0.0
H1339 H 0.60399 0.13169 0.20923 0.0
C1340 C 0.63717 0.16448 0.21857 0.0
C1341 C 0.66505 0.18545 0.2175 0.0
C1342 C 0.64554 0.14111 0.1751 0.0
C1343 C 0.63938 0.15617 0.19698 0.0
C1344 C 0.64022 0.11836 0.16575 0.0
C1345 C 0.62301 0.0885 0.16811 0.0
C1346 C 0.63319 0.13386 0.18675 0.0
C1347 C 0.61241 0.08163 0.18002 0.0
C1348 C 0.62399 0.14987 0.20824 0.0
C1349 C 0.67646 0.19512 0.20604 0.0
N1350 N 0.61757 0.10426 0.1889 0.0
N1351 N 0.66412 0.17951 0.1961 0.0
H1352 H 0.27504 0.67308 0.20318 0.0
H1353 H 0.1303 0.68222 0.15517 0.0
H1354 H 0.22149 0.76594 0.19725 0.0
H1355 H 0.14391 0.59716 0.17879 0.0
H1356 H 0.16868 0.71457 0.16796 0.0
H1357 H 0.23398 0.64462 0.19031 0.0
C1358 C 0.25525 0.68757 0.19893 0.0
C1359 C 0.25162 0.7218 0.20129 0.0
C1360 C 0.16233 0.68918 0.17054 0.0
C1361 C 0.20504 0.68972 0.18684 0.0
C1362 C 0.14011 0.67112 0.16345 0.0
C1363 C 0.13365 0.63772 0.16633 0.0
C1364 C 0.17846 0.67302 0.18022 0.0
C1365 C 0.14782 0.62336 0.17668 0.0
C1366 C 0.23176 0.67135 0.19175 0.0
C1367 C 0.22565 0.73962 0.19552 0.0
N1368 N 0.17035 0.64103 0.18321 0.0
N1369 N 0.20308 0.72323 0.18857 0.0
H1370 H 0.6568 0.8167 0.4255 0.0
H1371 H 0.68428 0.95505 0.47571 0.0
H1372 H 0.7116 0.90946 0.4222 0.0
H1373 H 0.59977 0.88746 0.47552 0.0
H1374 H 0.71195 0.92006 0.46054 0.0
H1375 H 0.65091 0.82719 0.44752 0.0
C1376 C 0.66769 0.83899 0.42947 0.0
C1377 C 0.68374 0.86277 0.42218 0.0
C1378 C 0.68788 0.91222 0.46418 0.0
C1379 C 0.67883 0.87388 0.44691 0.0
C1380 C 0.67224 0.9321 0.47282 0.0
C1381 C 0.63967 0.92431 0.47661 0.0
C1382 C 0.67021 0.88521 0.45913 0.0
C1383 C 0.62493 0.89432 0.4727 0.0
C1384 C 0.66478 0.84472 0.44193 0.0
C1385 C 0.69816 0.891 0.42753 0.0
N1386 N 0.63995 0.87623 0.46383 0.0
N1387 N 0.69524 0.89582 0.43959 0.0
H1388 H 0.4129 0.37245 0.66017 0.0
H1389 H 0.3756 0.40307 0.73022 0.0
H1390 H 0.46867 0.44371 0.68153 0.0
H1391 H 0.3083 0.35723 0.70429 0.0
H1392 H 0.41724 0.40988 0.71392 0.0
H1393 H 0.38478 0.35319 0.67856 0.0
C1394 C 0.42008 0.38302 0.66887 0.0
C1395 C 0.44216 0.41003 0.66953 0.0
C1396 C 0.39315 0.39864 0.71187 0.0
C1397 C 0.40965 0.38953 0.69023 0.0
C1398 C 0.36932 0.39531 0.72106 0.0
C1399 C 0.33837 0.38009 0.71855 0.0
C1400 C 0.38588 0.38622 0.70026 0.0
C1401 C 0.33148 0.36986 0.70661 0.0
C1402 C 0.40381 0.37244 0.67929 0.0
C1403 C 0.45132 0.42294 0.68084 0.0
N1404 N 0.35521 0.37292 0.69792 0.0
N1405 N 0.43412 0.4132 0.69085 0.0
H1406 H 0.89918 0.12984 0.98206 0.0
H1407 H 0.92048 0.15648 0.91097 0.0
H1408 H 0.93225 0.05428 0.95661 0.0
H1409 H 0.85558 0.21962 0.93247 0.0
H1410 H 0.93549 0.12542 0.92921 0.0
H1411 H 0.88821 0.16748 0.96491 0.0
C1412 C 0.90312 0.12086 0.97287 0.0
C1413 C 0.91666 0.08897 0.97075 0.0
C1414 C 0.91849 0.1465 0.93 0.0
C1415 C 0.90538 0.13184 0.95137 0.0
C1416 C 0.91044 0.16452 0.91967 0.0
C1417 C 0.88642 0.18996 0.92038 0.0
C1418 C 0.90239 0.15435 0.94098 0.0
C1419 C 0.87413 0.19989 0.93171 0.0
C1420 C 0.89729 0.1424 0.96316 0.0
C1421 C 0.92146 0.07846 0.9587 0.0
N1422 N 0.88174 0.18143 0.94167 0.0
N1423 N 0.91625 0.10008 0.94946 0.0
H1424 H 0.8644 0.62979 0.72454 0.0
H1425 H 0.93011 0.6778 0.6657 0.0
H1426 H 0.89876 0.73188 0.72208 0.0
H1427 H 0.97964 0.59309 0.68217 0.0
H1428 H 0.91791 0.69979 0.68602 0.0
H1429 H 0.90578 0.61409 0.70896 0.0
C1430 C 0.88161 0.64845 0.72104 0.0
C1431 C 0.8789 0.68184 0.72458 0.0
C1432 C 0.93265 0.67709 0.68515 0.0
C1433 C 0.9247 0.66471 0.70682 0.0
C1434 C 0.93942 0.66463 0.67365 0.0
C1435 C 0.95567 0.63385 0.67254 0.0
C1436 C 0.94124 0.65778 0.69535 0.0
C1437 C 0.96717 0.61711 0.68289 0.0
C1438 C 0.90511 0.63962 0.71225 0.0
C1439 C 0.90083 0.70571 0.71963 0.0
N1440 N 0.95865 0.62877 0.69401 0.0
N1441 N 0.92234 0.69684 0.71068 0.0
H1442 H 0.15151 0.12965 0.4821 0.0
H1443 H 0.14103 0.13425 0.41083 0.0
H1444 H 0.13578 0.04296 0.45933 0.0
H1445 H 0.19766 0.20914 0.43028 0.0
H1446 H 0.13189 0.10446 0.42978 0.0
H1447 H 0.16789 0.16145 0.46403 0.0
C1448 C 0.1529 0.11694 0.47342 0.0
C1449 C 0.14143 0.08392 0.47217 0.0
C1450 C 0.146 0.12762 0.42994 0.0
C1451 C 0.15921 0.11996 0.45172 0.0
C1452 C 0.15061 0.14492 0.41921 0.0
C1453 C 0.17067 0.17359 0.41913 0.0
C1454 C 0.16108 0.13961 0.44059 0.0
C1455 C 0.18225 0.18685 0.4301 0.0
C1456 C 0.16183 0.13516 0.46314 0.0
C1457 C 0.1441 0.06841 0.46077 0.0
N1458 N 0.17767 0.16933 0.44051 0.0
N1459 N 0.15191 0.08689 0.4509 0.0
H1460 H 0.57811 0.44952 0.18257 0.0
H1461 H 0.74993 0.37795 0.20663 0.0
H1462 H 0.64716 0.38931 0.16164 0.0
H1463 H 0.66616 0.38908 0.23139 0.0
H1464 H 0.71466 0.39734 0.19015 0.0
H1465 H 0.60984 0.43539 0.20107 0.0
C1466 C 0.5991 0.4323 0.182 0.0
C1467 C 0.61073 0.42086 0.17077 0.0
C1468 C 0.70418 0.39604 0.19925 0.0
C1469 C 0.64721 0.40632 0.19128 0.0
C1470 C 0.72451 0.38579 0.20873 0.0
C1471 C 0.71075 0.3816 0.22037 0.0
C1472 C 0.67003 0.40195 0.20146 0.0
C1473 C 0.67743 0.39164 0.22247 0.0
C1474 C 0.61743 0.42483 0.19243 0.0
C1475 C 0.638 0.3989 0.17025 0.0
N1476 N 0.65777 0.40081 0.21298 0.0
N1477 N 0.65594 0.39288 0.18039 0.0
H1478 H 0.39761 0.81601 0.92795 0.0
H1479 H 0.37102 0.9622 0.97561 0.0
H1480 H 0.33096 0.90092 0.92488 0.0
H1481 H 0.45876 0.89862 0.97528 0.0
H1482 H 0.34363 0.92422 0.96144 0.0
H1483 H 0.40924 0.83235 0.94922 0.0
C1484 C 0.3851 0.83757 0.93185 0.0
C1485 C 0.36399 0.85764 0.92479 0.0
C1486 C 0.36856 0.91805 0.96472 0.0
C1487 C 0.37585 0.87546 0.94865 0.0
C1488 C 0.38404 0.93969 0.97278 0.0
C1489 C 0.41705 0.9335 0.97642 0.0
C1490 C 0.38675 0.8908 0.96003 0.0
C1491 C 0.43314 0.90407 0.9726 0.0
C1492 C 0.39147 0.84672 0.94389 0.0
C1493 C 0.34791 0.88515 0.93003 0.0
N1494 N 0.41808 0.88407 0.9643 0.0
N1495 N 0.35431 0.89333 0.94164 0.0
H1496 H 0.90557 0.32617 0.9139 0.0
H1497 H 0.97837 0.4736 0.95389 0.0
H1498 H 0.86186 0.42494 0.91501 0.0
H1499 H 0.9588 0.37489 0.96801 0.0
H1500 H 0.96025 0.45486 0.9337 0.0
H1501 H 0.94942 0.34463 0.92798 0.0
C1502 C 0.90613 0.35213 0.91673 0.0
C1503 C 0.8805 0.37436 0.91334 0.0
C1504 C 0.96157 0.43701 0.94111 0.0
C1505 C 0.93018 0.39524 0.92911 0.0
C1506 C 0.9721 0.44749 0.95251 0.0
C1507 C 0.97018 0.42541 0.96234 0.0
C1508 C 0.94999 0.40421 0.9397 0.0
C1509 C 0.96079 0.39223 0.96045 0.0
C1510 C 0.93096 0.36247 0.92473 0.0
C1511 C 0.8815 0.40738 0.91743 0.0
N1512 N 0.95063 0.38254 0.94926 0.0
N1513 N 0.90597 0.41689 0.92526 0.0
H1514 H 0.39871 0.13648 0.65536 0.0
H1515 H 0.42279 0.19036 0.72421 0.0
H1516 H 0.45428 0.08226 0.68279 0.0
H1517 H 0.34118 0.22676 0.70209 0.0
H1518 H 0.44818 0.16511 0.70626 0.0
H1519 H 0.38728 0.18059 0.67036 0.0
C1520 C 0.4079 0.13368 0.66458 0.0
C1521 C 0.42661 0.10551 0.66799 0.0
C1522 C 0.42531 0.17958 0.70522 0.0
C1523 C 0.41529 0.15592 0.68476 0.0
C1524 C 0.41119 0.19433 0.71539 0.0
C1525 C 0.37992 0.20998 0.71442 0.0
C1526 C 0.40746 0.18027 0.69422 0.0
C1527 C 0.36543 0.21468 0.703 0.0
C1528 C 0.40189 0.15891 0.67302 0.0
C1529 C 0.43881 0.10314 0.67992 0.0
N1530 N 0.37889 0.19884 0.69327 0.0
N1531 N 0.43296 0.12811 0.68788 0.0
H1532 H 0.75092 0.68174 0.42711 0.0
H1533 H 0.5851 0.60593 0.45536 0.0
H1534 H 0.66595 0.65543 0.40457 0.0
H1535 H 0.65841 0.6636 0.47524 0.0
H1536 H 0.61358 0.62084 0.43639 0.0
H1537 H 0.71929 0.66552 0.44494 0.0
C1538 C 0.72601 0.67142 0.42585 0.0
C1539 C 0.71089 0.67008 0.41434 0.0
C1540 C 0.62291 0.63074 0.4449 0.0
C1541 C 0.67399 0.65348 0.43476 0.0
C1542 C 0.6064 0.62277 0.45565 0.0
C1543 C 0.62016 0.63307 0.46671 0.0
C1544 C 0.65299 0.64891 0.44548 0.0
C1545 C 0.64766 0.65474 0.46678 0.0
C1546 C 0.70766 0.663 0.43608 0.0
C1547 C 0.67827 0.65713 0.41333 0.0
N1548 N 0.66376 0.66143 0.45628 0.0
N1549 N 0.66055 0.64976 0.42349 0.0
H1550 H 0.1408 0.91668 0.2261 0.0
H1551 H 0.15927 0.92082 0.1543 0.0
H1552 H 0.1848 0.83529 0.20581 0.0
H1553 H 0.13126 1.00545 0.17656 0.0
H1554 H 0.17179 0.88921 0.17279 0.0
H1555 H 0.13512 0.9485 0.20741 0.0
C1556 C 0.14831 0.90521 0.21759 0.0
C1557 C 0.16343 0.87368 0.21734 0.0
C1558 C 0.16368 0.91499 0.17355 0.0
C1559 C 0.15796 0.90991 0.19608 0.0
C1560 C 0.1569 0.93312 0.16303 0.0
C1561 C 0.14369 0.96559 0.16388 0.0
C1562 C 0.15712 0.92964 0.18488 0.0
C1563 C 0.14139 0.98053 0.1754 0.0
C1564 C 0.14568 0.92354 0.20697 0.0
C1565 C 0.17293 0.85966 0.20622 0.0
N1566 N 0.1474 0.96216 0.18547 0.0
N1567 N 0.17034 0.87816 0.19594 0.0
H1568 H 0.62793 0.88356 0.97469 0.0
H1569 H 0.74785 0.87797 0.93237 0.0
H1570 H 0.5845 0.96348 0.95352 0.0
H1571 H 0.67127 0.90252 0.9059 0.0
H1572 H 0.70927 0.89298 0.94851 0.0
H1573 H 0.66095 0.86654 0.95704 0.0
C1574 C 0.62443 0.89655 0.96611 0.0
C1575 C 0.60414 0.92498 0.96536 0.0
C1576 C 0.70097 0.89499 0.93915 0.0
C1577 C 0.64274 0.9074 0.94571 0.0
C1578 C 0.72328 0.88747 0.9299 0.0
C1579 C 0.71251 0.88848 0.91775 0.0
C1580 C 0.66774 0.90323 0.9362 0.0
C1581 C 0.68022 0.9008 0.91518 0.0
C1582 C 0.64377 0.88746 0.95621 0.0
C1583 C 0.6001 0.94134 0.95424 0.0
N1584 N 0.65858 0.90733 0.9244 0.0
N1585 N 0.62004 0.93271 0.94476 0.0
H1586 H 0.42978 0.38048 0.22253 0.0
H1587 H 0.39369 0.41045 0.15265 0.0
H1588 H 0.35569 0.32102 0.20383 0.0
H1589 H 0.42394 0.48646 0.17836 0.0
H1590 H 0.38669 0.37119 0.16966 0.0
H1591 H 0.44072 0.41089 0.20375 0.0
C1592 C 0.41695 0.37291 0.21428 0.0
C1593 C 0.39141 0.34898 0.21459 0.0
C1594 C 0.39425 0.39672 0.17147 0.0
C1595 C 0.40284 0.38383 0.19344 0.0
C1596 C 0.39781 0.41916 0.16186 0.0
C1597 C 0.40955 0.45169 0.16407 0.0
C1598 C 0.40295 0.40703 0.18321 0.0
C1599 C 0.41458 0.46179 0.17616 0.0
C1600 C 0.42268 0.3906 0.20367 0.0
C1601 C 0.37545 0.33963 0.2038 0.0
N1602 N 0.41179 0.43931 0.18527 0.0
N1603 N 0.38085 0.35781 0.19358 0.0
H1604 H 0.91011 0.17686 0.47158 0.0
H1605 H 0.88753 0.14183 0.40116 0.0
H1606 H 0.97178 0.10354 0.45339 0.0
H1607 H 0.80958 0.17399 0.42599 0.0
H1608 H 0.9257 0.13537 0.41858 0.0
H1609 H 0.88302 0.18986 0.45229 0.0
C1610 C 0.91885 0.16458 0.46337 0.0
C1611 C 0.94229 0.13862 0.46392 0.0
C1612 C 0.90001 0.14334 0.4201 0.0
C1613 C 0.91112 0.15225 0.4422 0.0
C1614 C 0.87817 0.14652 0.41026 0.0
C1615 C 0.84537 0.1585 0.4121 0.0
C1616 C 0.88885 0.15271 0.43168 0.0
C1617 C 0.83445 0.16435 0.42406 0.0
C1618 C 0.90309 0.17152 0.45246 0.0
C1619 C 0.95337 0.12351 0.45318 0.0
N1620 N 0.85635 0.1619 0.43337 0.0
N1621 N 0.93687 0.12989 0.44266 0.0
H1622 H 0.1248 0.54419 0.67984 0.0
H1623 H 0.19386 0.71521 0.70557 0.0
H1624 H 0.14995 0.62625 0.65583 0.0
H1625 H 0.13544 0.64357 0.726 0.0
H1626 H 0.18265 0.68331 0.68702 0.0
H1627 H 0.14046 0.5781 0.69707 0.0
C1628 C 0.13483 0.56892 0.67811 0.0
C1629 C 0.13562 0.58263 0.66636 0.0
C1630 C 0.17178 0.67507 0.69554 0.0
C1631 C 0.15161 0.62211 0.68613 0.0
C1632 C 0.17759 0.69352 0.70603 0.0
C1633 C 0.16597 0.68136 0.71718 0.0
C1634 C 0.15446 0.64466 0.69647 0.0
C1635 C 0.1452 0.65324 0.71749 0.0
C1636 C 0.14293 0.58857 0.68801 0.0
C1637 C 0.14844 0.61504 0.66479 0.0
N1638 N 0.14064 0.63529 0.70726 0.0
N1639 N 0.15535 0.63411 0.67464 0.0
H1640 H 0.61709 0.18057 0.65857 0.0
H1641 H 0.72336 0.14348 0.71548 0.0
H1642 H 0.59422 0.0975 0.68217 0.0
H1643 H 0.70863 0.24505 0.70303 0.0
H1644 H 0.67569 0.12606 0.70297 0.0
H1645 H 0.64776 0.2072 0.67509 0.0
C1646 C 0.6171 0.16895 0.6675 0.0
C1647 C 0.60344 0.13715 0.66924 0.0
C1648 C 0.68285 0.15219 0.7031 0.0
C1649 C 0.63935 0.1661 0.68774 0.0
C1650 C 0.71024 0.16195 0.71004 0.0
C1651 C 0.72026 0.19547 0.71005 0.0
C1652 C 0.66572 0.1762 0.69613 0.0
C1653 C 0.70239 0.21869 0.70296 0.0
C1654 C 0.63484 0.18385 0.67685 0.0
C1655 C 0.60439 0.12231 0.68071 0.0
N1656 N 0.67601 0.20854 0.6962 0.0
N1657 N 0.62319 0.13653 0.68954 0.0
H1658 H 0.18446 0.34214 0.92948 0.0
H1659 H 0.13101 0.51697 0.9572 0.0
H1660 H 0.13394 0.42106 0.90978 0.0
H1661 H 0.16146 0.43352 0.97974 0.0
H1662 H 0.14277 0.48415 0.93931 0.0
H1663 H 0.17924 0.37485 0.9481 0.0
C1664 C 0.17114 0.36579 0.92919 0.0
C1665 C 0.16035 0.37957 0.91817 0.0
C1666 C 0.14735 0.47314 0.94817 0.0
C1667 C 0.15553 0.41712 0.93904 0.0
C1668 C 0.1415 0.49219 0.95845 0.0
C1669 C 0.14457 0.47766 0.97003 0.0
C1670 C 0.15603 0.43939 0.94953 0.0
C1671 C 0.15803 0.44532 0.97095 0.0
C1672 C 0.16884 0.3847 0.93973 0.0
C1673 C 0.14313 0.41005 0.91816 0.0
N1674 N 0.16249 0.4268 0.96078 0.0
N1675 N 0.1419 0.4283 0.92845 0.0
H1676 H 0.98784 0.90367 0.17743 0.0
H1677 H 0.83859 0.93167 0.22374 0.0
H1678 H 0.90005 0.96614 0.17305 0.0
H1679 H 0.90321 0.84493 0.22446 0.0
H1680 H 0.87842 0.9594 0.21024 0.0
H1681 H 0.97198 0.89508 0.19897 0.0
C1682 C 0.96571 0.91588 0.18109 0.0
C1683 C 0.94467 0.93482 0.17359 0.0
C1684 C 0.88447 0.9347 0.21368 0.0
C1685 C 0.92752 0.92662 0.19776 0.0
C1686 C 0.86179 0.91903 0.22137 0.0
C1687 C 0.86763 0.88607 0.22499 0.0
C1688 C 0.91228 0.91665 0.20929 0.0
C1689 C 0.89795 0.87047 0.22175 0.0
C1690 C 0.95688 0.91131 0.19328 0.0
C1691 C 0.91652 0.95071 0.17854 0.0
N1692 N 0.91886 0.88559 0.21373 0.0
N1693 N 0.90869 0.9461 0.1903 0.0
H1694 H 0.41715 0.54691 0.45718 0.0
H1695 H 0.35329 0.71971 0.43161 0.0
H1696 H 0.40103 0.63055 0.4814 0.0
H1697 H 0.41233 0.64788 0.41151 0.0
H1698 H 0.36379 0.68774 0.45024 0.0
H1699 H 0.40068 0.58164 0.4402 0.0
C1700 C 0.40876 0.57217 0.45905 0.0
C1701 C 0.41107 0.58612 0.47072 0.0
C1702 C 0.37496 0.67952 0.44177 0.0
C1703 C 0.39411 0.62627 0.45123 0.0
C1704 C 0.3696 0.69801 0.43124 0.0
C1705 C 0.38142 0.68567 0.42014 0.0
C1706 C 0.39204 0.64895 0.44092 0.0
C1707 C 0.40234 0.6576 0.41997 0.0
C1708 C 0.40024 0.59222 0.44927 0.0
C1709 C 0.40014 0.61916 0.47248 0.0
N1710 N 0.40636 0.63955 0.43023 0.0
N1711 N 0.39284 0.63857 0.46273 0.0
H1712 H 0.3941 0.14096 0.23574 0.0
H1713 H 0.48095 0.08869 0.18235 0.0
H1714 H 0.32079 0.16644 0.2082 0.0
H1715 H 0.42704 0.17213 0.16692 0.0
H1716 H 0.45386 0.09944 0.20195 0.0
H1717 H 0.43502 0.12954 0.21957 0.0
C1718 C 0.38624 0.14295 0.22633 0.0
C1719 C 0.35406 0.15494 0.22334 0.0
C1720 C 0.44924 0.11633 0.19443 0.0
C1721 C 0.40044 0.14259 0.20507 0.0
C1722 C 0.46504 0.11054 0.18333 0.0
C1723 C 0.45555 0.12938 0.17317 0.0
C1724 C 0.42437 0.14113 0.19508 0.0
C1725 C 0.4345 0.15701 0.17466 0.0
C1726 C 0.40962 0.13668 0.21717 0.0
C1727 C 0.3451 0.15708 0.21102 0.0
N1728 N 0.41863 0.16148 0.18538 0.0
N1729 N 0.36846 0.15167 0.20234 0.0
H1730 H 0.61743 0.56218 0.95601 0.0
H1731 H 0.70359 0.72481 0.93229 0.0
H1732 H 0.64814 0.63817 0.98166 0.0
H1733 H 0.62915 0.66958 0.91214 0.0
H1734 H 0.68645 0.69533 0.95083 0.0
H1735 H 0.6307 0.59977 0.93946 0.0
C1736 C 0.62807 0.58637 0.95819 0.0
C1737 C 0.63171 0.59714 0.97026 0.0
C1738 C 0.67313 0.69061 0.94241 0.0
C1739 C 0.64504 0.6408 0.95134 0.0
C1740 C 0.68245 0.70778 0.93195 0.0
C1741 C 0.66802 0.69879 0.92085 0.0
C1742 C 0.64958 0.6647 0.94148 0.0
C1743 C 0.64105 0.67649 0.92064 0.0
C1744 C 0.63471 0.60814 0.94872 0.0
C1745 C 0.64487 0.6291 0.97246 0.0
N1746 N 0.6332 0.65934 0.93082 0.0
N1747 N 0.65083 0.65014 0.96303 0.0
H1748 H 0.20981 0.92667 0.72346 0.0
H1749 H 0.0614 0.90798 0.67604 0.0
H1750 H 0.143 0.84177 0.72258 0.0
H1751 H 0.14755 0.97314 0.67337 0.0
H1752 H 0.07789 0.89461 0.69715 0.0
H1753 H 0.17223 0.95635 0.70968 0.0
C1754 C 0.18664 0.9148 0.72062 0.0
C1755 C 0.17941 0.88192 0.72396 0.0
C1756 C 0.09254 0.91242 0.69196 0.0
C1757 C 0.13717 0.91479 0.70801 0.0
C1758 C 0.08327 0.91982 0.68001 0.0
C1759 C 0.10366 0.94096 0.6731 0.0
C1760 C 0.1218 0.92698 0.69679 0.0
C1761 C 0.1316 0.95613 0.67842 0.0
C1762 C 0.16525 0.93157 0.71277 0.0
C1763 C 0.14922 0.86727 0.72012 0.0
N1764 N 0.13999 0.94865 0.68994 0.0
N1765 N 0.12944 0.88358 0.71204 0.0
H1766 H 0.91046 0.49413 0.45799 0.0
H1767 H 0.84707 0.32147 0.43314 0.0
H1768 H 0.89395 0.41291 0.48334 0.0
H1769 H 0.91444 0.388 0.41418 0.0
H1770 H 0.85616 0.3538 0.45187 0.0
H1771 H 0.89636 0.45715 0.44141 0.0
C1772 C 0.90263 0.46888 0.46017 0.0
C1773 C 0.90404 0.45639 0.47209 0.0
C1774 C 0.86957 0.36059 0.44365 0.0
C1775 C 0.88969 0.41366 0.45305 0.0
C1776 C 0.865 0.34185 0.43312 0.0
C1777 C 0.87988 0.35265 0.42229 0.0
C1778 C 0.8887 0.38997 0.44302 0.0
C1779 C 0.90245 0.37935 0.42247 0.0
C1780 C 0.89541 0.44757 0.45064 0.0
C1781 C 0.89387 0.42324 0.47423 0.0
N1782 N 0.90558 0.39777 0.43265 0.0
N1783 N 0.88775 0.4026 0.46472 0.0
H1784 H 0.39214 0.88003 0.47414 0.0
H1785 H 0.37862 0.90908 0.4035 0.0
H1786 H 0.46805 0.93648 0.45498 0.0
H1787 H 0.2942 0.89189 0.42751 0.0
H1788 H 0.41406 0.91849 0.42134 0.0
H1789 H 0.35978 0.87633 0.45546 0.0
C1790 C 0.40249 0.8906 0.46585 0.0
C1791 C 0.43215 0.90928 0.46602 0.0
C1792 C 0.38752 0.91356 0.42259 0.0
C1793 C 0.39525 0.90605 0.44491 0.0
C1794 C 0.36721 0.90865 0.41245 0.0
C1795 C 0.33369 0.89846 0.414 0.0
C1796 C 0.37387 0.90837 0.43417 0.0
C1797 C 0.31998 0.89905 0.42577 0.0
C1798 C 0.38374 0.88917 0.4553 0.0
C1799 C 0.44496 0.92218 0.45513 0.0
N1800 N 0.34041 0.90288 0.43545 0.0
N1801 N 0.42597 0.92089 0.44493 0.0
H1802 H 0.90552 0.64464 0.22321 0.0
H1803 H 0.90221 0.55622 0.17253 0.0
H1804 H 0.85316 0.72361 0.20416 0.0
H1805 H 0.919 0.65077 0.1544 0.0
H1806 H 0.87859 0.58594 0.18973 0.0
H1807 H 0.91399 0.61588 0.20397 0.0
C1808 C 0.89656 0.65625 0.21489 0.0
C1809 C 0.87792 0.68588 0.21514 0.0
C1810 C 0.88681 0.60004 0.18184 0.0
C1811 C 0.88617 0.6529 0.19346 0.0
C1812 C 0.89951 0.58313 0.17188 0.0
C1813 C 0.91365 0.60126 0.16222 0.0
C1814 C 0.88871 0.63499 0.18205 0.0
C1815 C 0.90924 0.63609 0.1619 0.0
C1816 C 0.90057 0.63948 0.20403 0.0
C1817 C 0.86734 0.70048 0.20422 0.0
N1818 N 0.89807 0.65215 0.17194 0.0
N1819 N 0.87136 0.68351 0.19367 0.0
H1820 H 0.20772 0.12698 0.91005 0.0
H1821 H 0.06314 0.14348 0.95887 0.0
H1822 H 0.1394 0.21072 0.91178 0.0
H1823 H 0.14917 0.07766 0.95999 0.0
H1824 H 0.07692 0.15678 0.9375 0.0
H1825 H 0.17068 0.09572 0.92356 0.0
C1826 C 0.18432 0.13825 0.91299 0.0
C1827 C 0.17656 0.17129 0.91001 0.0
C1828 C 0.0921 0.13878 0.94241 0.0
C1829 C 0.13502 0.1367 0.92572 0.0
C1830 C 0.0844 0.13148 0.95451 0.0
C1831 C 0.1056 0.11024 0.96106 0.0
C1832 C 0.12064 0.12403 0.93706 0.0
C1833 C 0.13266 0.09478 0.95523 0.0
C1834 C 0.16322 0.12059 0.9207 0.0
C1835 C 0.14607 0.18514 0.91397 0.0
N1836 N 0.13953 0.10216 0.94357 0.0
N1837 N 0.12668 0.16802 0.92196 0.0
H1838 H 0.6511 0.40496 0.65103 0.0
H1839 H 0.64462 0.40381 0.7209 0.0
H1840 H 0.65389 0.49461 0.67294 0.0
H1841 H 0.70737 0.32899 0.70397 0.0
H1842 H 0.63925 0.43217 0.70147 0.0
H1843 H 0.67015 0.37274 0.6687 0.0
C1844 C 0.65723 0.4181 0.65935 0.0
C1845 C 0.64973 0.45229 0.66065 0.0
C1846 C 0.65391 0.40933 0.70196 0.0
C1847 C 0.67083 0.41587 0.68059 0.0
C1848 C 0.65638 0.39283 0.71294 0.0
C1849 C 0.67683 0.36453 0.71389 0.0
C1850 C 0.67146 0.39691 0.69189 0.0
C1851 C 0.69141 0.3509 0.70343 0.0
C1852 C 0.66783 0.39967 0.66939 0.0
C1853 C 0.65871 0.46825 0.67152 0.0
N1854 N 0.68869 0.36756 0.69271 0.0
N1855 N 0.66777 0.44966 0.68123 0.0
H1856 H 0.13252 0.28664 0.38875 0.0
H1857 H 0.926 0.24735 0.38688 0.0
H1858 H 0.09299 0.18776 0.3837 0.0
H1859 H 0.96573 0.34708 0.38823 0.0
H1860 H 0.98466 0.22545 0.38651 0.0
H1861 H 0.07386 0.30845 0.38935 0.0
C1862 C 0.11207 0.26905 0.38772 0.0
C1863 C 0.1201 0.2344 0.38605 0.0
C1864 C 0.98093 0.25225 0.38688 0.0
C1865 C 0.04876 0.26066 0.38687 0.0
C1866 C 0.94649 0.26512 0.3871 0.0
C1867 C 0.93852 0.30006 0.38756 0.0
C1868 C 1.00985 0.27365 0.38716 0.0
C1869 C 0.96857 0.32018 0.38785 0.0
C1870 C 0.07763 0.28187 0.38808 0.0
C1871 C 0.0901 0.21445 0.38493 0.0
N1872 N 1.00135 0.30715 0.38767 0.0
N1873 N 0.0573 0.22741 0.38536 0.0
H1874 H 0.04264 0.67283 0.63776 0.0
H1875 H 1.00195 0.87853 0.63692 0.0
H1876 H 0.94246 0.71247 0.63589 0.0
H1877 H 0.10255 0.8396 0.63711 0.0
H1878 H 0.98043 0.82004 0.6369 0.0
H1879 H 0.06459 0.73122 0.63786 0.0
C1880 C 1.02477 0.69324 0.63731 0.0
C1881 C 0.98967 0.68528 0.63672 0.0
C1882 C 1.00734 0.82389 0.63693 0.0
C1883 C 1.01616 0.75637 0.63692 0.0
C1884 C 1.02 0.85826 0.63694 0.0
C1885 C 0.05506 0.86646 0.63698 0.0
C1886 C 0.02906 0.7952 0.63698 0.0
C1887 C 0.07553 0.83662 0.63706 0.0
C1888 C 0.03768 0.72754 0.63739 0.0
C1889 C 0.96947 0.71525 0.63629 0.0
N1890 N 0.06269 0.80389 0.63705 0.0
N1891 N 0.98253 0.74787 0.63639 0.0
H1892 H 0.42616 0.75564 0.8865 0.0
H1893 H 0.63258 0.79694 0.88897 0.0
H1894 H 0.46478 0.85553 0.88937 0.0
H1895 H 0.59407 0.69751 0.88439 0.0
H1896 H 0.57368 0.81817 0.88949 0.0
H1897 H 0.48507 0.73439 0.8861 0.0
C1898 C 0.44644 0.7736 0.88704 0.0
C1899 C 0.43799 0.80839 0.88795 0.0
C1900 C 0.57771 0.79159 0.88832 0.0
C1901 C 0.5098 0.7827 0.88749 0.0
C1902 C 0.61233 0.7791 0.88799 0.0
C1903 C 0.62081 0.74446 0.88649 0.0
C1904 C 0.54899 0.77009 0.88721 0.0
C1905 C 0.59093 0.72422 0.88547 0.0
C1906 C 0.48106 0.76109 0.88681 0.0
C1907 C 0.4679 0.82872 0.88863 0.0
N1908 N 0.55796 0.73688 0.88584 0.0
N1909 N 0.50085 0.81604 0.8884 0.0
H1910 H 0.5425 0.17181 0.13703 0.0
H1911 H 0.5003 0.37734 0.13875 0.0
H1912 H 0.44185 0.21058 0.13682 0.0
H1913 H 0.60091 0.33929 0.13589 0.0
H1914 H 0.47919 0.31869 0.13867 0.0
H1915 H 0.56393 0.2304 0.13719 0.0
C1916 C 0.5244 0.19204 0.13697 0.0
C1917 C 0.48932 0.18371 0.13682 0.0
C1918 C 0.50602 0.32275 0.13805 0.0
C1919 C 0.51524 0.25518 0.13711 0.0
C1920 C 0.51845 0.35724 0.1381 0.0
C1921 C 0.55338 0.36578 0.13728 0.0
C1922 C 0.52786 0.29421 0.13724 0.0
C1923 C 0.57397 0.33609 0.13651 0.0
C1924 C 0.53702 0.22649 0.13708 0.0
C1925 C 0.46887 0.21357 0.13686 0.0
N1926 N 0.56136 0.30324 0.13653 0.0
N1927 N 0.48165 0.24634 0.13701 0.0
H1928 H 0.91392 0.79909 0.2492 0.0
H1929 H 0.11871 0.75575 0.24552 0.0
H1930 H 0.95225 0.69863 0.24909 0.0
H1931 H 0.08272 0.85415 0.25417 0.0
H1932 H 0.05957 0.73575 0.24511 0.0
H1933 H 0.97288 0.82007 0.24933 0.0
C1934 C 0.93418 0.781 0.24921 0.0
C1935 C 0.92581 0.74615 0.24925 0.0
C1936 C 0.06421 0.76184 0.2471 0.0
C1937 C 0.99724 0.77137 0.24922 0.0
C1938 C 0.09885 0.77358 0.24733 0.0
C1939 C 0.10791 0.80739 0.24998 0.0
C1940 C 0.0362 0.7835 0.24933 0.0
C1941 C 0.07882 0.82796 0.25214 0.0
C1942 C 0.96873 0.79332 0.24929 0.0
C1943 C 0.95547 0.72549 0.24916 0.0
N1944 N 0.04566 0.81609 0.25171 0.0
N1945 N 0.98836 0.738 0.2491 0.0
H1946 H 0.44717 0.83347 0.50123 0.0
H1947 H 0.61078 0.70465 0.50106 0.0
H1948 H 0.54831 0.86992 0.4984 0.0
H1949 H 0.50955 0.66812 0.49894 0.0
H1950 H 0.58926 0.76256 0.50071 0.0
H1951 H 0.46866 0.77554 0.50101 0.0
C1952 C 0.47409 0.82998 0.5006 0.0
C1953 C 0.49498 0.85919 0.49992 0.0
C1954 C 0.57131 0.74227 0.50035 0.0
C1955 C 0.52148 0.78811 0.49972 0.0
C1956 C 0.58383 0.70811 0.50057 0.0
C1957 C 0.56293 0.67888 0.50013 0.0
C1958 C 0.5364 0.74996 0.49976 0.0
C1959 C 0.52794 0.68799 0.49939 0.0
C1960 C 0.4866 0.79582 0.50046 0.0
C1961 C 0.52994 0.85006 0.49904 0.0
N1962 N 0.51644 0.72144 0.4993 0.0
N1963 N 0.54143 0.81661 0.49903 0.0
H1964 H 0.62243 0.25802 0.74881 0.0
H1965 H 0.41563 0.29904 0.74774 0.0
H1966 H 0.58336 0.35813 0.74854 0.0
H1967 H 0.45475 0.19919 0.75034 0.0
H1968 H 0.47443 0.3205 0.74753 0.0
H1969 H 0.56363 0.2366 0.74885 0.0
C1970 C 0.60208 0.276 0.74876 0.0
C1971 C 0.6104 0.31091 0.7487 0.0
C1972 C 0.47056 0.29376 0.74819 0.0
C1973 C 0.53862 0.28499 0.74873 0.0
C1974 C 0.43598 0.28113 0.74834 0.0
C1975 C 0.42766 0.24627 0.74918 0.0
C1976 C 0.49945 0.27224 0.74883 0.0
C1977 C 0.45771 0.22603 0.74976 0.0
C1978 C 0.5675 0.26339 0.74879 0.0
C1979 C 0.58037 0.33124 0.74861 0.0
N1980 N 0.49062 0.23884 0.74958 0.0
N1981 N 0.54745 0.31845 0.74862 0.0
H1982 H 1.00789 0.1721 0.99869 0.0
H1983 H 0.05125 0.37742 0.998 0.0
H1984 H 0.10881 0.20978 0.99734 0.0
H1985 H 0.95045 0.33958 0.99976 0.0
H1986 H 0.07225 0.31865 0.99766 0.0
H1987 H 0.98699 0.23091 0.99897 0.0
C1988 C 1.02615 0.19213 0.99847 0.0
C1989 C 0.06112 0.18343 0.99802 0.0
C1990 C 0.0454 0.3228 0.99817 0.0
C1991 C 0.03584 0.25517 0.99835 0.0
C1992 C 0.03304 0.35735 0.9984 0.0
C1993 C 0.99807 0.36599 0.99903 0.0
C1994 C 1.02346 0.2943 0.99855 0.0
C1995 C 0.97742 0.33633 0.99935 0.0
C1996 C 1.01385 0.22671 0.99863 0.0
C1997 C 0.08183 0.21307 0.99771 0.0
N1998 N 0.98996 0.30344 0.99913 0.0
N1999 N 0.06934 0.24598 0.99788 0.0
H2000 H 0.12935 0.79586 0.7486 0.0
H2001 H 0.92306 0.75575 0.74921 0.0
H2002 H 0.09031 0.69629 0.75226 0.0
H2003 H 0.96249 0.85551 0.75098 0.0
H2004 H 0.98174 0.73393 0.74921 0.0
H2005 H 0.07061 0.81744 0.74836 0.0
C2006 C 0.10899 0.77807 0.74938 0.0
C2007 C 0.11719 0.74331 0.75056 0.0
C2008 C 0.97794 0.76071 0.74962 0.0
C2009 C 0.04573 0.76929 0.75014 0.0
C2010 C 0.94349 0.77354 0.74962 0.0
C2011 C 0.93541 0.80845 0.75019 0.0
C2012 C 1.00679 0.78218 0.75007 0.0
C2013 C 0.9654 0.82862 0.7506 0.0
C2014 C 0.0745 0.79075 0.74923 0.0
C2015 C 0.08728 0.72309 0.75141 0.0
N2016 N 0.9982 0.81566 0.75051 0.0
N2017 N 0.05442 0.73592 0.75116 0.0
H2018 H 0.04061 0.17385 0.49855 0.0
H2019 H 0.99945 0.37939 0.499 0.0
H2020 H 0.9402 0.21307 0.49997 0.0
H2021 H 0.09993 0.34055 0.50106 0.0
H2022 H 0.97801 0.32087 0.49863 0.0
H2023 H 0.06235 0.23231 0.49876 0.0
C2024 C 1.02265 0.19418 0.49895 0.0
C2025 C 0.98755 0.18609 0.49933 0.0
C2026 C 1.00487 0.32475 0.4992 0.0
C2027 C 1.01379 0.25725 0.49948 0.0
C2028 C 1.01748 0.35912 0.49943 0.0
C2029 C 0.05247 0.36734 0.5002 0.0
C2030 C 1.0266 0.29609 0.49965 0.0
C2031 C 0.07294 0.33754 0.50056 0.0
C2032 C 0.03543 0.22851 0.49906 0.0
C2033 C 0.96722 0.21596 0.49973 0.0
N2034 N 0.06016 0.3048 0.50029 0.0
N2035 N 0.98016 0.24863 0.49977 0.0
H2036 H 0.63606 0.28522 0.24958 0.0
H2037 H 0.42943 0.24681 0.2492 0.0
H2038 H 0.59586 0.18585 0.25218 0.0
H2039 H 0.46968 0.34632 0.25075 0.0
H2040 H 0.48796 0.22456 0.24944 0.0
H2041 H 0.57754 0.30741 0.2492 0.0
C2042 C 0.61548 0.2676 0.25013 0.0
C2043 C 0.62325 0.23268 0.25106 0.0
C2044 C 0.48436 0.25137 0.24976 0.0
C2045 C 0.55214 0.25941 0.25045 0.0
C2046 C 0.45002 0.26445 0.24962 0.0
C2047 C 0.44227 0.29943 0.25003 0.0
C2048 C 0.51336 0.27263 0.25023 0.0
C2049 C 0.47238 0.3194 0.25047 0.0
C2050 C 0.58114 0.28064 0.24989 0.0
C2051 C 0.59314 0.21272 0.25157 0.0
N2052 N 0.50507 0.30618 0.25054 0.0
N2053 N 0.56044 0.22591 0.25125 0.0
H2054 H 0.50062 0.88204 0.99881 0.0
H2055 H 0.5419 0.67671 0.99862 0.0
H2056 H 0.60113 0.843 0.99994 0.0
H2057 H 0.4415 0.71573 1.00081 0.0
H2058 H 0.56347 0.73521 0.99843 0.0
H2059 H 0.47902 0.82357 0.99884 0.0
C2060 C 0.51862 0.86175 0.99907 0.0
C2061 C 0.55367 0.86986 0.99942 0.0
C2062 C 0.5366 0.73135 0.99897 0.0
C2063 C 0.52766 0.79876 0.99941 0.0
C2064 C 0.52393 0.69702 0.99909 0.0
C2065 C 0.48893 0.68893 0.99983 0.0
C2066 C 0.51489 0.76 0.99949 0.0
C2067 C 0.46848 0.71871 1.0003 0.0
C2068 C 0.50593 0.82742 0.99909 0.0
C2069 C 0.57412 0.84005 0.9997 0.0
N2070 N 0.48131 0.75138 1.00012 0.0
N2071 N 0.56126 0.80737 0.99967 0.0
H2072 H 0.08688 0.36157 0.88358 0.0
H2073 H 0.95764 0.1993 0.88581 0.0
H2074 H 0.12368 0.26118 0.88761 0.0
H2075 H 0.92117 0.30032 0.88713 0.0
H2076 H 1.01587 0.22047 0.8858 0.0
H2077 H 0.02873 0.34027 0.88416 0.0
C2078 C 0.08341 0.33485 0.88455 0.0
C2079 C 0.11274 0.31409 0.88546 0.0
C2080 C 0.99551 0.23843 0.88606 0.0
C2081 C 0.0415 0.28786 0.88609 0.0
C2082 C 0.96119 0.22613 0.88606 0.0
C2083 C 0.93191 0.24713 0.88641 0.0
C2084 C 1.00325 0.27317 0.88631 0.0
C2085 C 0.94108 0.28192 0.8868 0.0
C2086 C 0.04914 0.32247 0.8849 0.0
C2087 C 0.10369 0.27941 0.88678 0.0
N2088 N 0.97468 0.29321 0.88667 0.0
N2089 N 0.07012 0.26801 0.88698 0.0
H2090 H 0.44337 0.33884 0.63485 0.0
H2091 H 0.60604 0.20848 0.63417 0.0
H2092 H 0.54494 0.37462 0.63639 0.0
H2093 H 0.50454 0.17291 0.6367 0.0
H2094 H 0.58507 0.2666 0.63443 0.0
H2095 H 0.46448 0.28077 0.63499 0.0
C2096 C 0.47032 0.33519 0.63517 0.0
C2097 C 0.49141 0.36432 0.63553 0.0
C2098 C 0.56693 0.24649 0.63491 0.0
C2099 C 0.51748 0.29292 0.63566 0.0
C2100 C 0.57913 0.21218 0.63474 0.0
C2101 C 0.55801 0.18308 0.63532 0.0
C2102 C 0.5321 0.25456 0.63561 0.0
C2103 C 0.52312 0.19259 0.63614 0.0
C2104 C 0.4826 0.30092 0.63527 0.0
C2105 C 0.52637 0.3549 0.63603 0.0
N2106 N 0.51193 0.22617 0.6362 0.0
N2107 N 0.53764 0.32133 0.63602 0.0
H2108 H 0.58068 0.86238 0.38721 0.0
H2109 H 0.45364 0.69856 0.38383 0.0
H2110 H 0.61881 0.76204 0.38507 0.0
H2111 H 0.41589 0.79838 0.38848 0.0
H2112 H 0.51155 0.72054 0.38397 0.0
H2113 H 0.52287 0.8403 0.38739 0.0
C2114 C 0.57758 0.83551 0.38676 0.0
C2115 C 0.60717 0.81502 0.38609 0.0
C2116 C 0.49097 0.73807 0.38494 0.0
C2117 C 0.5363 0.78788 0.38626 0.0
C2118 C 0.45684 0.72529 0.38484 0.0
C2119 C 0.42732 0.74568 0.38605 0.0
C2120 C 0.49826 0.77271 0.38623 0.0
C2121 C 0.43604 0.78042 0.38741 0.0
C2122 C 0.54349 0.82268 0.38687 0.0
C2123 C 0.59859 0.7801 0.38557 0.0
N2124 N 0.46947 0.79219 0.38742 0.0
N2125 N 0.56516 0.76829 0.38564 0.0
H2126 H 0.04953 0.87303 0.1351 0.0
H2127 H 1.01377 0.66665 0.13963 0.0
H2128 H 0.95035 0.832 0.13859 0.0
H2129 H 0.11162 0.70668 0.13203 0.0
H2130 H 0.99121 0.72478 0.14006 0.0
H2131 H 0.07246 0.81497 0.13478 0.0
C2132 C 0.03204 0.85239 0.13582 0.0
C2133 C 0.99687 0.85994 0.13686 0.0
C2134 C 1.01773 0.72129 0.13827 0.0
C2135 C 1.02468 0.78904 0.13653 0.0
C2136 C 0.03103 0.68709 0.13799 0.0
C2137 C 0.06565 0.67919 0.13567 0.0
C2138 C 0.03834 0.75027 0.13632 0.0
C2139 C 0.085 0.70932 0.1338 0.0
C2140 C 0.04556 0.81824 0.13562 0.0
C2141 C 0.97733 0.82961 0.13774 0.0
N2142 N 0.0716 0.74191 0.13418 0.0
N2143 N 0.99099 0.79714 0.13758 0.0
H2144 H 0.20944 0.23712 0.34214 0.0
H2145 H 0.35423 0.29932 0.29311 0.0
H2146 H 0.31446 0.23895 0.35107 0.0
H2147 H 0.24909 0.29796 0.28431 0.0
H2148 H 0.34067 0.27789 0.31368 0.0
H2149 H 0.22311 0.25825 0.32155 0.0
C2150 C 0.23553 0.24189 0.33995 0.0
C2151 C 0.26038 0.23568 0.34903 0.0
C2152 C 0.32029 0.28214 0.30734 0.0
C2153 C 0.27701 0.26122 0.32426 0.0
C2154 C 0.32813 0.29467 0.29533 0.0
C2155 C 0.3032 0.3012 0.2863 0.0
C2156 C 0.28673 0.27522 0.31103 0.0
C2157 C 0.26989 0.29396 0.29048 0.0
C2158 C 0.24344 0.25421 0.32792 0.0
C2159 C 0.29372 0.24289 0.34488 0.0
N2160 N 0.26299 0.28173 0.30216 0.0
N2161 N 0.30069 0.25492 0.33318 0.0
H2162 H 0.99006 0.09995 0.54173 0.0
H2163 H 0.05522 0.95691 0.591 0.0
H2164 H 0.99121 0.99506 0.53341 0.0
H2165 H 0.05165 0.06137 0.59995 0.0
H2166 H 0.03299 0.97017 0.57053 0.0
H2167 H 1.01191 0.08702 0.56232 0.0
C2168 C 0.99477 0.07404 0.54404 0.0
C2169 C 0.98809 0.04901 0.53509 0.0
C2170 C 0.03694 0.9905 0.57686 0.0
C2171 C 1.01464 0.03323 0.55993 0.0
C2172 C 0.04999 0.98282 0.58884 0.0
C2173 C 0.05623 1.0076 0.59792 0.0
C2174 C 0.0292 1.02379 0.57319 0.0
C2175 C 0.04804 0.04066 0.59377 0.0
C2176 C 1.00755 0.06655 0.55609 0.0
C2177 C 0.9954 1.01597 0.53946 0.0
N2178 N 0.0354 0.04741 0.58211 0.0
N2179 N 1.0079 1.00942 0.55114 0.0
H2180 H 0.2434 0.79953 0.85332 0.0
H2181 H 0.30911 0.75627 0.78357 0.0
H2182 H 0.34567 0.81433 0.84202 0.0
H2183 H 0.20706 0.74056 0.79498 0.0
H2184 H 0.32262 0.77692 0.80426 0.0
H2185 H 0.23002 0.77839 0.83269 0.0
C2186 C 0.26333 0.79868 0.84662 0.0
C2187 C 0.29611 0.80958 0.85006 0.0
C2188 C 0.29716 0.76901 0.80236 0.0
C2189 C 0.28019 0.78421 0.82523 0.0
C2190 C 0.28922 0.75694 0.79029 0.0
C2191 C 0.25642 0.74606 0.78685 0.0
C2192 C 0.27252 0.77083 0.81175 0.0
C2193 C 0.2327 0.74832 0.79663 0.0
C2194 C 0.25548 0.78629 0.83459 0.0
C2195 C 0.31998 0.80679 0.84035 0.0
N2196 N 0.24104 0.76006 0.80822 0.0
N2197 N 0.3117 0.79485 0.82878 0.0
H2198 H 0.49031 0.09998 0.09401 0.0
H2199 H 0.55362 0.95887 1.044 0.0
H2200 H 0.49198 0.99468 0.10178 0.0
H2201 H 0.54877 0.0635 1.03524 0.0
H2202 H 0.53261 0.97156 1.06466 0.0
H2203 H 0.51149 0.088 0.07324 0.0
C2204 C 0.49507 0.07421 0.09154 0.0
C2205 C 0.48869 0.04867 0.10033 0.0
C2206 C 0.53597 0.99202 1.05832 0.0
C2207 C 0.51433 0.03411 0.07539 0.0
C2208 C 0.54826 0.98469 1.04625 0.0
C2209 C 0.55368 1.00975 1.03719 0.0
C2210 C 0.52821 0.02518 1.06207 0.0
C2211 C 0.54563 0.04267 1.04142 0.0
C2212 C 0.5074 0.06727 0.0794 0.0
C2213 C 0.49589 1.01586 0.0958 0.0
N2214 N 0.53366 0.04909 1.05318 0.0
N2215 N 0.508 1.00987 0.08406 0.0
H2216 H 0.25074 0.78212 0.35631 0.0
H2217 H 0.27045 0.76549 0.28239 0.0
H2218 H 0.32674 0.71927 0.34054 0.0
H2219 H 0.23469 0.85679 0.29841 0.0
H2220 H 0.28443 0.74428 0.30294 0.0
H2221 H 0.23817 0.80475 0.33579 0.0
C2222 C 0.26486 0.77262 0.34863 0.0
C2223 C 0.2903 0.74816 0.35077 0.0
C2224 C 0.27354 0.769 0.30209 0.0
C2225 C 0.27474 0.77452 0.32614 0.0
C2226 C 0.26535 0.78141 0.29013 0.0
C2227 C 0.25116 0.81367 0.28805 0.0
C2228 C 0.26691 0.78796 0.31275 0.0
C2229 C 0.24561 0.83204 0.29903 0.0
C2230 C 0.25758 0.78592 0.3367 0.0
C2231 C 0.30708 0.73789 0.33988 0.0
N2232 N 0.25293 0.81905 0.31055 0.0
N2233 N 0.29888 0.75047 0.3284 0.0
H2234 H 0.5546 0.98884 0.60181 0.0
H2235 H 0.50059 0.05343 0.5329 0.0
H2236 H 0.55771 0.09239 0.59143 0.0
H2237 H 0.49673 0.95012 0.54354 0.0
H2238 H 0.52069 0.06789 0.55358 0.0
H2239 H 0.53398 0.97469 0.58118 0.0
C2240 C 0.5512 1.00895 0.59532 0.0
C2241 C 0.55858 0.04233 0.59904 0.0
C2242 C 0.51556 0.04193 0.55152 0.0
C2243 C 0.53385 0.02546 0.57417 0.0
C2244 C 0.50385 0.03343 0.53944 0.0
C2245 C 0.49648 0.99999 0.53578 0.0
C2246 C 0.52061 1.01721 0.56069 0.0
C2247 C 0.50176 0.97622 0.54536 0.0
C2248 C 0.53913 1.00063 0.58328 0.0
C2249 C 0.55283 0.06629 0.58956 0.0
N2250 N 0.51313 0.9851 0.55695 0.0
N2251 N 0.54125 0.05755 0.57797 0.0
H2252 H 0.3422 0.24599 0.79243 0.0
H2253 H 0.20033 0.31339 0.84195 0.0
H2254 H 0.23702 0.25194 0.784 0.0
H2255 H 0.30473 0.30425 0.85125 0.0
H2256 H 0.21327 0.29254 0.82128 0.0
H2257 H 0.32986 0.26703 0.81318 0.0
C2258 C 0.31636 0.25165 0.79474 0.0
C2259 C 0.29103 0.24651 0.78573 0.0
C2260 C 0.23364 0.2949 0.82774 0.0
C2261 C 0.27598 0.27206 0.81074 0.0
C2262 C 0.22615 0.30709 0.83984 0.0
C2263 C 0.25099 0.31117 0.8491 0.0
C2264 C 0.26681 0.28594 0.82411 0.0
C2265 C 0.28395 0.30202 0.84496 0.0
C2266 C 0.30921 0.26392 0.80688 0.0
C2267 C 0.25811 0.25486 0.79011 0.0
N2268 N 0.29053 0.29024 0.83318 0.0
N2269 N 0.25192 0.26686 0.80187 0.0
H2270 H 0.06669 0.092 1.04374 0.0
H2271 H 0.98841 0.95064 0.09092 0.0
H2272 H 0.05048 0.98992 1.03315 0.0
H2273 H 1.00284 0.0531 0.10137 0.0
H2274 H 1.0104 0.96411 0.07042 0.0
H2275 H 0.04455 0.07866 1.06423 0.0
C2276 C 0.05864 0.06662 1.04554 0.0
C2277 C 0.0613 0.04246 1.03603 0.0
C2278 C 1.00894 0.98392 0.07711 0.0
C2279 C 0.03441 0.02626 1.0607 0.0
C2280 C 0.99609 0.97613 0.08909 0.0
C2281 C 0.99299 1.00033 0.09856 0.0
C2282 C 1.01975 1.01669 0.07389 0.0
C2283 C 1.004 0.0329 0.09484 0.0
C2284 C 0.04568 0.05891 1.05752 0.0
C2285 C 0.0497 1.01007 1.03971 0.0
N2286 N 1.01652 0.03974 0.08319 0.0
N2287 N 0.0372 1.00328 1.05136 0.0
H2288 H 0.81269 0.74906 0.85218 0.0
H2289 H 0.74238 0.8048 0.7842 0.0
H2290 H 0.70766 0.7476 0.84324 0.0
H2291 H 0.84708 0.80687 0.79361 0.0
H2292 H 0.72931 0.78462 0.80503 0.0
H2293 H 0.82518 0.7696 0.8314 0.0
C2294 C 0.79191 0.75286 0.84598 0.0
C2295 C 0.75866 0.746 0.85016 0.0
C2296 C 0.75528 0.78937 0.80265 0.0
C2297 C 0.77354 0.7706 0.82509 0.0
C2298 C 0.76297 0.80113 0.7905 0.0
C2299 C 0.79634 0.80808 0.78645 0.0
C2300 C 0.7808 0.78383 0.81152 0.0
C2301 C 0.82094 0.80225 0.79573 0.0
C2302 C 0.79927 0.76487 0.83385 0.0
C2303 C 0.73375 0.75218 0.84101 0.0
N2304 N 0.81284 0.79084 0.8074 0.0
N2305 N 0.74156 0.76369 0.82931 0.0
H2306 H 0.74425 0.29365 0.35266 0.0
H2307 H 0.81403 0.24064 0.28429 0.0
H2308 H 0.84847 0.29962 0.34274 0.0
H2309 H 0.71014 0.23163 0.29437 0.0
H2310 H 0.82658 0.26214 0.30493 0.0
H2311 H 0.7314 0.27221 0.33201 0.0
C2312 C 0.76475 0.29068 0.34628 0.0
C2313 C 0.79793 0.29906 0.35013 0.0
C2314 C 0.80091 0.25552 0.30276 0.0
C2315 C 0.78266 0.27338 0.32525 0.0
C2316 C 0.79352 0.24294 0.29071 0.0
C2317 C 0.76057 0.23354 0.2869 0.0
C2318 C 0.77549 0.25948 0.31178 0.0
C2319 C 0.73601 0.23798 0.29632 0.0
C2320 C 0.75721 0.27813 0.33423 0.0
C2321 C 0.82248 0.29387 0.34077 0.0
N2322 N 0.74382 0.25023 0.3079 0.0
N2323 N 0.8145 0.28182 0.32918 0.0
H2324 H 0.80721 0.30949 0.78511 0.0
H2325 H 0.73918 0.25471 0.85349 0.0
H2326 H 0.70239 0.3081 0.79444 0.0
H2327 H 0.84304 0.24709 0.84316 0.0
H2328 H 0.72579 0.2751 0.83274 0.0
H2329 H 0.82068 0.28868 0.80581 0.0
C2330 C 0.78671 0.30506 0.79138 0.0
C2331 C 0.75317 0.31116 0.78736 0.0
C2332 C 0.75163 0.26903 0.83489 0.0
C2333 C 0.76919 0.28643 0.81229 0.0
C2334 C 0.7595 0.25713 0.84699 0.0
C2335 C 0.79273 0.2485 0.85075 0.0
C2336 C 0.77682 0.27314 0.82579 0.0
C2337 C 0.81702 0.25295 0.84125 0.0
C2338 C 0.79461 0.29289 0.80346 0.0
C2339 C 0.72864 0.30414 0.79656 0.0
N2340 N 0.80875 0.26464 0.82963 0.0
N2341 N 0.73698 0.29268 0.8082 0.0
H2342 H 0.69831 0.82029 0.33985 0.0
H2343 H 0.8396 0.7449 0.29211 0.0
H2344 H 0.8018 0.80751 0.34996 0.0
H2345 H 0.73671 0.76166 0.28198 0.0
H2346 H 0.82676 0.76599 0.31278 0.0
H2347 H 0.71165 0.79881 0.31933 0.0
C2348 C 0.724 0.81311 0.33792 0.0
C2349 C 0.74857 0.8166 0.34727 0.0
C2350 C 0.80676 0.76527 0.30611 0.0
C2351 C 0.76472 0.79043 0.32263 0.0
C2352 C 0.81418 0.753 0.29405 0.0
C2353 C 0.78961 0.75099 0.28464 0.0
C2354 C 0.77404 0.77638 0.30943 0.0
C2355 C 0.75714 0.76222 0.28846 0.0
C2356 C 0.73171 0.80056 0.32594 0.0
C2357 C 0.78137 0.8061 0.34349 0.0
N2358 N 0.75065 0.77407 0.30019 0.0
N2359 N 0.78814 0.79383 0.33183 0.0
H2360 H 0.54888 0.45675 0.0931 0.0
H2361 H 0.49003 0.6013 1.04367 0.0
H2362 H 0.54757 0.56132 0.10199 0.0
H2363 H 0.49194 0.49667 1.03487 0.0
H2364 H 0.51016 0.58767 1.0644 0.0
H2365 H 0.52879 0.47053 0.0724 0.0
C2366 C 0.54438 0.48277 0.09088 0.0
C2367 C 0.55039 0.50746 0.09998 0.0
C2368 C 0.50634 0.56744 1.05802 0.0
C2369 C 0.52619 0.52421 0.07508 0.0
C2370 C 0.49459 0.57532 1.04592 0.0
C2371 C 0.48867 0.55053 1.03684 0.0
C2372 C 0.513 0.53399 1.06176 0.0
C2373 C 0.49561 0.51734 1.04107 0.0
C2374 C 0.5327 0.49074 0.07879 0.0
C2375 C 0.54371 0.54071 0.09578 0.0
N2376 N 0.50707 0.5104 1.05284 0.0
N2377 N 0.53227 0.54775 0.08401 0.0
H2378 H 0.98957 0.59932 0.59369 0.0
H2379 H 0.05154 0.45587 0.54423 0.0
H2380 H 0.98876 0.49427 0.6019 0.0
H2381 H 0.04879 0.56046 0.53532 0.0
H2382 H 0.03011 0.46921 0.56481 0.0
H2383 H 1.01105 0.58627 0.57305 0.0
C2384 C 0.99375 0.57336 0.59133 0.0
C2385 C 0.98655 0.54828 0.60022 0.0
C2386 C 0.03405 0.48952 0.55845 0.0
C2387 C 1.01267 0.5324 0.57541 0.0
C2388 C 0.0466 0.4818 0.54642 0.0
C2389 C 0.05274 0.50663 0.53734 0.0
C2390 C 1.02677 0.52288 0.56214 0.0
C2391 C 0.04511 0.53974 0.54152 0.0
C2392 C 1.00631 0.56581 0.57928 0.0
C2393 C 0.99323 0.51517 0.59585 0.0
N2394 N 0.03293 0.54653 0.55322 0.0
N2395 N 1.00557 0.50857 0.58416 0.0
H2396 H 0.05946 0.48698 0.1019 0.0
H2397 H 0.99774 0.55662 1.03443 0.0
H2398 H 0.0623 0.59098 0.09217 0.0
H2399 H 1.00063 0.45185 1.04301 0.0
H2400 H 1.02002 0.56915 1.05495 0.0
H2401 H 0.03815 0.47386 0.08124 0.0
C2402 C 0.05572 0.50742 0.09558 0.0
C2403 C 0.06328 0.54061 0.09951 0.0
C2404 C 1.01583 0.54328 1.0525 0.0
C2405 C 0.03746 0.52499 0.07459 0.0
C2406 C 1.00275 0.53588 1.0405 0.0
C2407 C 0.99645 0.50269 1.03627 0.0
C2408 C 1.02321 0.51767 1.06112 0.0
C2409 C 1.00447 0.4779 1.04526 0.0
C2410 C 0.04329 0.49969 0.0835 0.0
C2411 C 0.05726 0.56498 0.09017 0.0
N2412 N 1.01688 0.48575 1.05685 0.0
N2413 N 0.04507 0.55685 0.07859 0.0
H2414 H 0.49347 0.4519 0.59267 0.0
H2415 H 0.56189 0.59294 0.5433 0.0
H2416 H 0.50093 0.55615 0.60159 0.0
H2417 H 0.5547 0.48861 0.53448 0.0
H2418 H 0.54044 0.58044 0.56398 0.0
H2419 H 0.51479 0.4645 0.57199 0.0
C2420 C 0.4995 0.4776 0.59047 0.0
C2421 C 0.49478 0.50255 0.5996 0.0
C2422 C 0.54337 0.56001 0.55761 0.0
C2423 C 0.5206 0.51792 0.57467 0.0
C2424 C 0.55591 0.56724 0.54553 0.0
C2425 C 0.56074 0.54222 0.53643 0.0
C2426 C 0.53477 0.52698 0.56134 0.0
C2427 C 0.55194 0.50946 0.54067 0.0
C2428 C 0.51195 0.4849 0.57838 0.0
C2429 C 0.50363 0.53534 0.59539 0.0
N2430 N 0.53976 0.50315 0.55241 0.0
N2431 N 0.51573 0.54171 0.58363 0.0
H2432 H 0.26578 0.09704 0.4191 0.0
H2433 H 0.43017 0.08485 0.46709 0.0
H2434 H 0.34436 0.17028 0.41956 0.0
H2435 H 0.36127 1.00314 0.46343 0.0
H2436 H 0.39898 0.11564 0.4511 0.0
H2437 H 0.29664 0.06481 0.43498 0.0
C2438 C 0.28935 0.1071 0.42235 0.0
C2439 C 0.30089 0.13814 0.41708 0.0
C2440 C 0.39007 0.09104 0.45365 0.0
C2441 C 0.33911 0.0985 0.43692 0.0
C2442 C 0.4085 0.07267 0.46314 0.0
C2443 C 0.4001 0.03963 0.46752 0.0
C2444 C 0.36081 0.0781 0.44766 0.0
C2445 C 0.37058 0.02773 0.46108 0.0
C2446 C 0.30761 0.08794 0.43176 0.0
C2447 C 0.33272 0.1473 0.42261 0.0
N2448 N 0.35299 0.04623 0.45202 0.0
N2449 N 0.3495 0.12858 0.43175 0.0
H2450 H 0.29109 0.12625 0.70805 0.0
H2451 H 0.10581 0.06882 0.67727 0.0
H2452 H 0.19643 0.16211 0.72135 0.0
H2453 H 0.19869 0.03733 0.66116 0.0
H2454 H 0.13769 0.10039 0.69277 0.0
H2455 H 0.26066 0.09425 0.69205 0.0
C2456 C 0.26395 0.12801 0.70788 0.0
C2457 C 0.24803 0.14874 0.71701 0.0
C2458 C 0.15181 0.08685 0.68594 0.0
C2459 C 0.20988 0.10895 0.69705 0.0
C2460 C 0.13295 0.06808 0.67668 0.0
C2461 C 0.14758 0.04882 0.66687 0.0
C2462 C 0.18782 0.08794 0.68647 0.0
C2463 C 0.18404 0.0509 0.66782 0.0
C2464 C 0.24594 0.10899 0.69835 0.0
C2465 C 0.21184 0.14761 0.71518 0.0
N2466 N 0.20168 0.06908 0.67699 0.0
N2467 N 0.19522 0.12908 0.70594 0.0
H2468 H 0.12651 1.01762 0.95156 0.0
H2469 H 0.27101 0.87339 0.93443 0.0
H2470 H 0.19123 0.97795 0.97921 0.0
H2471 H 0.2321 0.93854 0.90681 0.0
H2472 H 0.24028 0.90589 0.95002 0.0
H2473 H 0.15931 0.98721 0.93596 0.0
C2474 C 0.14754 1.00273 0.95468 0.0
C2475 C 0.15438 1.00243 0.9676 0.0
C2476 C 0.238 0.91365 0.94062 0.0
C2477 C 0.19489 0.96345 0.94816 0.0
C2478 C 0.25621 0.89445 0.93132 0.0
C2479 C 0.25623 0.9015 0.91841 0.0
C2480 C 0.21687 0.94166 0.93784 0.0
C2481 C 0.23486 0.93035 0.91614 0.0
C2482 C 0.16692 0.9847 0.94537 0.0
C2483 C 0.1832 0.98095 0.96987 0.0
N2484 N 0.21683 0.94803 0.92532 0.0
N2485 N 0.20104 0.96311 0.96068 0.0
H2486 H 0.27005 0.87958 0.2031 0.0
H2487 H 0.39181 0.04201 0.18272 0.0
H2488 H 0.31912 0.93896 0.23021 0.0
H2489 H 0.38074 0.95763 0.15906 0.0
H2490 H 0.36062 1.01091 0.19878 0.0
H2491 H 0.30208 0.9101 0.18711 0.0
C2492 C 0.2872 0.89896 0.20603 0.0
C2493 C 0.29012 0.90484 0.21897 0.0
C2494 C 0.36459 0.99865 0.19013 0.0
C2495 C 0.3295 0.94372 0.19902 0.0
C2496 C 0.38302 1.01711 0.18055 0.0
C2497 C 0.39065 1.00421 0.16858 0.0
C2498 C 0.35115 0.96549 0.1885 0.0
C2499 C 0.37689 0.97061 0.16758 0.0
C2500 C 0.30623 0.91702 0.1965 0.0
C2501 C 0.3143 0.93162 0.2209 0.0
N2502 N 0.35858 0.95374 0.17686 0.0
N2503 N 0.33162 0.94917 0.21153 0.0
H2504 H 0.78979 0.94607 0.71579 0.0
H2505 H 0.62564 0.95642 0.66753 0.0
H2506 H 0.71129 0.87275 0.71571 0.0
H2507 H 0.69077 0.04066 0.67237 0.0
H2508 H 0.65734 0.92591 0.68348 0.0
H2509 H 0.75838 0.97818 0.70001 0.0
C2510 C 0.76615 0.93592 0.71264 0.0
C2511 C 0.75487 0.90486 0.718 0.0
C2512 C 0.66531 0.95103 0.68121 0.0
C2513 C 0.71589 0.94442 0.69822 0.0
C2514 C 0.64655 0.96925 0.67174 0.0
C2515 C 0.65362 1.00294 0.6677 0.0
C2516 C 0.69377 0.9647 0.6875 0.0
C2517 C 0.68237 1.01557 0.67444 0.0
C2518 C 0.74753 0.95505 0.70328 0.0
C2519 C 0.72284 0.8957 0.71259 0.0
N2520 N 0.70038 0.99717 0.68345 0.0
N2521 N 0.70578 0.91433 0.70347 0.0
H2522 H 0.90186 0.95681 0.47163 0.0
H2523 H 0.78265 0.95931 0.40792 0.0
H2524 H 0.86963 0.04965 0.45597 0.0
H2525 H 0.80555 0.86915 0.42736 0.0
H2526 H 0.8141 0.99151 0.42368 0.0
H2527 H 0.87029 0.92638 0.45567 0.0
C2528 C 0.88835 0.97165 0.465 0.0
C2529 C 0.89014 1.00767 0.46617 0.0
C2530 C 0.81272 0.96461 0.42467 0.0
C2531 C 0.8507 0.96962 0.44602 0.0
C2532 C 0.79412 0.9454 0.41528 0.0
C2533 C 0.78979 0.90944 0.41533 0.0
C2534 C 0.82911 0.94948 0.43504 0.0
C2535 C 0.80673 0.89593 0.42602 0.0
C2536 C 0.86961 0.95344 0.45551 0.0
C2537 C 0.87059 1.02263 0.45636 0.0
N2538 N 0.8246 0.91494 0.43481 0.0
N2539 N 0.85285 1.00437 0.44725 0.0
H2540 H 0.85085 0.02901 0.16076 0.0
H2541 H 0.85328 0.15226 0.22295 0.0
H2542 H 0.94191 0.05949 0.17833 0.0
H2543 H 0.76037 0.11467 0.20879 0.0
H2544 H 0.88395 0.12135 0.20686 0.0
H2545 H 0.8183 0.05956 0.17667 0.0
C2546 C 0.86481 0.04209 0.16772 0.0
C2547 C 0.90106 0.0403 0.16726 0.0
C2548 C 0.85684 0.11937 0.20708 0.0
C2549 C 0.86083 0.07824 0.18705 0.0
C2550 C 0.83853 0.13766 0.21662 0.0
C2551 C 0.80249 0.1377 0.21817 0.0
C2552 C 0.8406 0.09923 0.19801 0.0
C2553 C 0.78745 0.11696 0.20879 0.0
C2554 C 0.84545 0.06008 0.17718 0.0
C2555 C 0.91484 0.05883 0.17746 0.0
N2556 N 0.8058 0.09962 0.19963 0.0
N2557 N 0.89567 0.07609 0.18633 0.0
H2558 H 0.61192 0.08826 0.96372 0.0
H2559 H 0.79126 0.11679 0.92415 0.0
H2560 H 0.69677 1.0241 0.96956 0.0
H2561 H 0.7031 0.17648 0.91847 0.0
H2562 H 0.76024 0.08439 0.93995 0.0
H2563 H 0.64438 0.11928 0.94818 0.0
C2564 C 0.6374 0.08003 0.96198 0.0
C2565 C 0.64971 0.05184 0.96893 0.0
C2566 C 0.74713 0.10454 0.93539 0.0
C2567 C 0.6905 0.09049 0.94938 0.0
C2568 C 0.76549 0.12383 0.926 0.0
C2569 C 0.75148 0.15124 0.91904 0.0
C2570 C 0.71278 0.11119 0.93879 0.0
C2571 C 0.7169 0.15653 0.92288 0.0
C2572 C 0.65657 0.09853 0.95272 0.0
C2573 C 0.68412 0.04484 0.96519 0.0
N2574 N 0.69998 0.13774 0.93199 0.0
N2575 N 0.70211 0.06319 0.95615 0.0
H2576 H 0.84468 0.63219 0.90688 0.0
H2577 H 0.88071 0.58599 0.97943 0.0
H2578 H 0.76816 0.65337 0.93324 0.0
H2579 H 0.91265 0.5169 0.95196 0.0
H2580 H 0.84818 0.61711 0.96379 0.0
H2581 H 0.87556 0.59933 0.92248 0.0
C2582 C 0.83363 0.63041 0.91586 0.0
C2583 C 0.80179 0.64696 0.91781 0.0
C2584 C 0.86209 0.59519 0.96095 0.0
C2585 C 0.84083 0.60722 0.93744 0.0
C2586 C 0.88141 0.57665 0.97019 0.0
C2587 C 0.90084 0.54674 0.96792 0.0
C2588 C 0.8615 0.58621 0.9483 0.0
C2589 C 0.89887 0.53863 0.95506 0.0
C2590 C 0.85204 0.6109 0.92508 0.0
C2591 C 0.79153 0.64196 0.93038 0.0
N2592 N 0.88088 0.55765 0.94625 0.0
N2593 N 0.81038 0.62388 0.93921 0.0
H2594 H 0.69459 0.52355 0.16552 0.0
H2595 H 0.69678 0.67417 0.21907 0.0
H2596 H 0.60792 0.58236 0.17451 0.0
H2597 H 0.78573 0.61785 0.21094 0.0
H2598 H 0.66605 0.64206 0.20336 0.0
H2599 H 0.72731 0.55532 0.18102 0.0
C2600 C 0.68171 0.54301 0.17052 0.0
C2601 C 0.64663 0.54868 0.16782 0.0
C2602 C 0.69227 0.63613 0.20486 0.0
C2603 C 0.68701 0.58808 0.18709 0.0
C2604 C 0.71058 0.6551 0.21418 0.0
C2605 C 0.74552 0.65039 0.21725 0.0
C2606 C 0.70735 0.61019 0.19767 0.0
C2607 C 0.75951 0.6241 0.20966 0.0
C2608 C 0.70113 0.56177 0.17972 0.0
C2609 C 0.63405 0.5754 0.17553 0.0
N2610 N 0.74113 0.60601 0.20074 0.0
N2611 N 0.65329 0.59298 0.18427 0.0
H2612 H 0.73532 0.35489 0.4285 0.0
H2613 H 0.68473 0.54088 0.4595 0.0
H2614 H 0.77147 0.44608 0.41269 0.0
H2615 H 0.64216 0.44831 0.47173 0.0
H2616 H 0.71631 0.50954 0.44357 0.0
H2617 H 0.7039 0.3878 0.44379 0.0
C2618 C 0.73714 0.38186 0.42795 0.0
C2619 C 0.7576 0.39575 0.41831 0.0
C2620 C 0.70019 0.4955 0.44964 0.0
C2621 C 0.71889 0.43713 0.43763 0.0
C2622 C 0.68146 0.51403 0.45912 0.0
C2623 C 0.65905 0.49893 0.46791 0.0
C2624 C 0.69824 0.45977 0.4481 0.0
C2625 C 0.65813 0.46304 0.46583 0.0
C2626 C 0.71848 0.4013 0.43708 0.0
C2627 C 0.75688 0.43205 0.41924 0.0
N2628 N 0.6765 0.4459 0.45667 0.0
N2629 N 0.73886 0.45027 0.4283 0.0
H2630 H 0.8068 0.3638 0.70704 0.0
H2631 H 0.87255 0.54914 0.67919 0.0
H2632 H 0.78414 0.45507 0.72576 0.0
H2633 H 0.90154 0.45537 0.66349 0.0
H2634 H 0.84057 0.51815 0.69511 0.0
H2635 H 0.83867 0.39607 0.69167 0.0
C2636 C 0.80804 0.39065 0.70822 0.0
C2637 C 0.79106 0.40474 0.71867 0.0
C2638 C 0.85374 0.50376 0.68827 0.0
C2639 C 0.83057 0.44543 0.6993 0.0
C2640 C 0.87272 0.5221 0.6788 0.0
C2641 C 0.89152 0.50658 0.66905 0.0
C2642 C 0.85175 0.46779 0.68886 0.0
C2643 C 0.88857 0.47046 0.67018 0.0
C2644 C 0.82699 0.40973 0.69904 0.0
C2645 C 0.79568 0.44085 0.71851 0.0
N2646 N 0.87006 0.45352 0.67937 0.0
N2647 N 0.81395 0.45875 0.70941 0.0
H2648 H 0.29873 0.43812 0.2155 0.0
H2649 H 0.13299 0.4535 0.16807 0.0
H2650 H 0.21793 0.36734 0.2158 0.0
H2651 H 0.20235 0.53476 0.17183 0.0
H2652 H 0.16412 0.4223 0.18398 0.0
H2653 H 0.26797 0.47102 0.19976 0.0
C2654 C 0.2747 0.42867 0.21245 0.0
C2655 C 0.26262 0.39801 0.2179 0.0
C2656 C 0.17317 0.44689 0.18148 0.0
C2657 C 0.22436 0.43863 0.19817 0.0
C2658 C 0.15475 0.46552 0.17202 0.0
C2659 C 0.16322 0.4986 0.16767 0.0
C2660 C 0.20261 0.45947 0.18747 0.0
C2661 C 0.1929 0.51018 0.17413 0.0
C2662 C 0.25647 0.44829 0.20311 0.0
C2663 C 0.23015 0.38986 0.21261 0.0
N2664 N 0.21051 0.4914 0.18314 0.0
N2665 N 0.21343 0.40895 0.20352 0.0
H2666 H 0.35169 0.5452 0.96553 0.0
H2667 H 0.33796 0.37854 0.9188 0.0
H2668 H 0.42234 0.46427 0.96673 0.0
H2669 H 0.25698 0.44893 0.92145 0.0
H2670 H 0.36856 0.40973 0.9348 0.0
H2671 H 0.31953 0.51434 0.94966 0.0
C2672 C 0.36124 0.5211 0.96267 0.0
C2673 C 0.39163 0.50903 0.96843 0.0
C2674 C 0.34416 0.41901 0.93203 0.0
C2675 C 0.35188 0.47061 0.94852 0.0
C2676 C 0.32588 0.40054 0.92252 0.0
C2677 C 0.29305 0.40926 0.91783 0.0
C2678 C 0.33147 0.44876 0.93775 0.0
C2679 C 0.28136 0.43925 0.92402 0.0
C2680 C 0.34206 0.50281 0.95325 0.0
C2681 C 0.39998 0.47649 0.96331 0.0
N2682 N 0.29981 0.45688 0.93309 0.0
N2683 N 0.3813 0.4597 0.95416 0.0
H2684 H 0.35886 0.5079 0.67214 0.0
H2685 H 0.34208 0.67858 0.7169 0.0
H2686 H 0.42599 0.59119 0.669 0.0
H2687 H 0.26395 0.60495 0.71612 0.0
H2688 H 0.37262 0.64699 0.70095 0.0
H2689 H 0.32683 0.53912 0.68797 0.0
C2690 C 0.36768 0.53259 0.67457 0.0
C2691 C 0.39704 0.54514 0.66827 0.0
C2692 C 0.34887 0.63708 0.70412 0.0
C2693 C 0.35743 0.58413 0.68817 0.0
C2694 C 0.3306 0.65579 0.71362 0.0
C2695 C 0.29854 0.64637 0.71882 0.0
C2696 C 0.337 0.6063 0.69892 0.0
C2697 C 0.28767 0.61532 0.71314 0.0
C2698 C 0.34857 0.55112 0.68398 0.0
C2699 C 0.40446 0.57849 0.67285 0.0
N2700 N 0.3061 0.5975 0.70407 0.0
N2701 N 0.38589 0.59551 0.68202 0.0
H2702 H 0.18817 0.51257 0.46622 0.0
H2703 H 0.20178 0.67903 0.41938 0.0
H2704 H 0.11683 0.59293 0.46711 0.0
H2705 H 0.28393 0.61023 0.42281 0.0
H2706 H 0.17085 0.64744 0.43523 0.0
H2707 H 0.22067 0.54377 0.45049 0.0
C2708 C 0.17853 0.53658 0.46329 0.0
C2709 C 0.14787 0.54843 0.46891 0.0
C2710 C 0.19558 0.63863 0.43267 0.0
C2711 C 0.18795 0.58719 0.44921 0.0
C2712 C 0.21405 0.65732 0.42325 0.0
C2713 C 0.2473 0.64916 0.41886 0.0
C2714 C 0.20853 0.60922 0.43855 0.0
C2715 C 0.25922 0.61947 0.42519 0.0
C2716 C 0.1979 0.55507 0.45397 0.0
C2717 C 0.1394 0.58091 0.46378 0.0
N2718 N 0.24059 0.60159 0.43415 0.0
N2719 N 0.15825 0.59788 0.4547 0.0
H2720 H 0.24088 0.16793 0.31096 0.0
H2721 H 0.29852 0.99351 0.29609 0.0
H2722 H 0.32917 0.12144 0.32638 0.0
H2723 H 0.22902 0.04799 0.27329 0.0
H2724 H 0.32147 0.04615 0.30317 0.0
H2725 H 0.24843 0.13423 0.29272 0.0
C2726 C 0.26266 0.15173 0.31029 0.0
C2727 C 0.28327 0.14605 0.32041 0.0
C2728 C 0.30163 0.04677 0.29643 0.0
C2729 C 0.29182 0.10739 0.29985 0.0
C2730 C 0.28838 1.01664 0.29248 0.0
C2731 C 0.26104 1.0166 0.28449 0.0
C2732 C 0.28673 0.07695 0.29263 0.0
C2733 C 0.24908 0.04713 0.27994 0.0
C2734 C 0.26701 0.13245 0.29988 0.0
C2735 C 0.31191 0.12593 0.31895 0.0
N2736 N 0.26151 0.07622 0.28429 0.0
N2737 N 0.31468 0.10634 0.30901 0.0
H2738 H 0.24143 1.008 0.57292 0.0
H2739 H 0.42557 1.00223 0.57376 0.0
H2740 H 0.28911 0.98377 0.60715 0.0
H2741 H 0.37314 0.07928 0.55378 0.0
H2742 H 0.38083 1.00299 0.5889 0.0
H2743 H 0.29146 0.03887 0.56699 0.0
C2744 C 0.26237 1.0093 0.57919 0.0
C2745 C 0.26149 0.99262 0.59038 0.0
C2746 C 0.38001 1.02093 0.58151 0.0
C2747 C 0.3186 0.02799 0.58375 0.0
C2748 C 0.40567 1.02061 0.57289 0.0
C2749 C 0.40167 0.03882 0.56207 0.0
C2750 C 0.35096 0.03974 0.57911 0.0
C2751 C 0.37641 0.06339 0.56167 0.0
C2752 C 0.29073 0.02728 0.5759 0.0
C2753 C 0.28931 0.99516 0.59821 0.0
N2754 N 0.35092 0.06201 0.56978 0.0
N2755 N 0.31712 1.01201 0.59464 0.0
H2756 H 0.28213 0.08786 0.8171 0.0
H2757 H 0.44369 0.97765 0.82889 0.0
H2758 H 0.37975 0.11762 0.80358 0.0
H2759 H 0.34277 0.93865 0.82605 0.0
H2760 H 0.42346 0.03107 0.82083 0.0
H2761 H 0.30739 0.03625 0.82478 0.0
C2762 C 0.30899 0.08415 0.81615 0.0
C2763 C 0.3285 0.10641 0.80929 0.0
C2764 C 0.40606 1.0104 0.82174 0.0
C2765 C 0.35716 0.04787 0.81775 0.0
C2766 C 0.41773 0.97976 0.82602 0.0
C2767 C 0.39468 0.95426 0.82866 0.0
C2768 C 0.37143 1.01482 0.82001 0.0
C2769 C 0.36142 0.95791 0.82454 0.0
C2770 C 0.32322 0.05451 0.82028 0.0
C2771 C 0.36343 0.10097 0.80862 0.0
N2772 N 0.35045 0.9882 0.82084 0.0
N2773 N 0.37657 0.07173 0.81253 0.0
H2774 H 0.23119 0.20466 1.05165 0.0
H2775 H 0.34332 0.04838 1.06723 0.0
H2776 H 0.19306 0.10549 1.05896 0.0
H2777 H 0.36922 0.1453 0.08189 0.0
H2778 H 0.29334 0.07349 1.05806 0.0
H2779 H 0.28562 0.18736 1.06003 0.0
C2780 C 0.23371 0.17989 1.05556 0.0
C2781 C 0.20817 0.15607 1.05406 0.0
C2782 C 0.31058 0.08921 1.06309 0.0
C2783 C 0.26973 0.13611 1.06299 0.0
C2784 C 0.33928 0.07509 0.06811 0.0
C2785 C 0.35945 0.09435 0.07582 0.0
C2786 C 0.30302 0.12281 1.06557 0.0
C2787 C 0.35391 0.12914 0.07629 0.0
C2788 C 0.26489 0.16983 1.05999 0.0
C2789 C 0.21235 0.12451 1.05952 0.0
N2790 N 0.3255 0.1422 0.07153 0.0
N2791 N 0.24314 0.11493 1.06329 0.0
H2792 H 0.80448 0.89449 0.82513 0.0
H2793 H 0.73098 0.07474 0.82876 0.0
H2794 H 0.71981 0.93045 0.80431 0.0
H2795 H 0.81688 0.03862 0.84887 0.0
H2796 H 0.7154 1.01689 0.82437 0.0
H2797 H 0.79496 0.93928 0.83977 0.0
C2798 C 0.78295 0.91079 0.82395 0.0
C2799 C 0.76415 0.91003 0.81319 0.0
C2800 C 0.73758 1.02165 0.8298 0.0
C2801 C 0.75374 0.96134 0.82949 0.0
C2802 C 0.7467 0.05458 0.83209 0.0
C2803 C 0.77589 0.06128 0.83872 0.0
C2804 C 0.75798 0.99545 0.83412 0.0
C2805 C 0.79499 0.03448 0.84322 0.0
C2806 C 0.77768 0.93657 0.83222 0.0
C2807 C 0.73577 0.93078 0.81228 0.0
N2808 N 0.78589 1.0027 0.84072 0.0
N2809 N 0.73222 0.95659 0.82008 0.0
H2810 H 0.70761 0.9755 0.57424 0.0
H2811 H 0.89152 0.04943 0.57223 0.0
H2812 H 0.74045 0.07054 0.58862 0.0
H2813 H 0.85722 0.96904 0.5492 0.0
H2814 H 0.84199 0.0415 0.58499 0.0
H2815 H 0.76641 0.9617 0.56966 0.0
C2816 C 0.72708 0.99372 0.5761 0.0
C2817 C 0.71917 1.02445 0.5815 0.0
C2818 C 0.84602 1.02481 0.57737 0.0
C2819 C 0.78587 1.00829 0.577 0.0
C2820 C 0.87451 0.02903 0.57021 0.0
C2821 C 0.87724 1.01133 0.55927 0.0
C2822 C 0.82083 1.00273 0.57343 0.0
C2823 C 0.85538 0.98428 0.5573 0.0
C2824 C 0.76049 0.98557 0.57379 0.0
C2825 C 0.74524 0.04697 0.58409 0.0
N2826 N 0.82709 0.98171 0.56402 0.0
N2827 N 0.77743 0.03836 0.58184 0.0
H2828 H 0.74773 0.08009 0.36764 0.0
H2829 H 0.8151 0.05478 0.30529 0.0
H2830 H 0.81604 0.99965 0.3589 0.0
H2831 H 0.78352 0.15224 0.31755 0.0
H2832 H 0.82905 0.03976 0.32616 0.0
H2833 H 0.77407 0.11413 0.35193 0.0
C2834 C 0.76925 0.0702 0.36278 0.0
C2835 C 0.77898 0.03681 0.36425 0.0
C2836 C 0.82004 0.06483 0.32432 0.0
C2837 C 0.80857 0.07488 0.34618 0.0
C2838 C 0.81177 0.07311 0.31245 0.0
C2839 C 0.79742 0.10422 0.30999 0.0
C2840 C 0.81265 0.08754 0.33373 0.0
C2841 C 0.79404 0.1277 0.31932 0.0
C2842 C 0.78436 0.08957 0.35381 0.0
C2843 C 0.80734 0.02518 0.35792 0.0
N2844 N 0.80077 0.11854 0.33092 0.0
N2845 N 0.82048 0.04386 0.34884 0.0
H2846 H 0.93414 0.95798 1.06398 0.0
H2847 H 0.7725 0.89034 1.03279 0.0
H2848 H 0.88226 0.86743 0.07399 0.0
H2849 H 0.80508 0.99288 1.03669 0.0
H2850 H 0.82832 0.87164 1.0391 0.0
H2851 H 0.90633 0.95661 1.04421 0.0
C2852 C 0.9184 0.93676 1.06172 0.0
C2853 C 0.90893 0.91374 0.0707 0.0
C2854 C 0.82339 0.89818 1.03817 0.0
C2855 C 0.87689 0.91248 1.04854 0.0
C2856 C 0.79144 0.90892 1.03486 0.0
C2857 C 0.78392 0.94325 1.0346 0.0
C2858 C 0.84786 0.92197 1.04113 0.0
C2859 C 0.80969 0.9662 1.03685 0.0
C2860 C 0.90241 0.93607 1.05049 0.0
C2861 C 0.88923 0.88627 1.06736 0.0
N2862 N 0.84043 0.9551 1.0402 0.0
N2863 N 0.8726 0.88707 1.05664 0.0
H2864 H 0.79425 0.59983 0.81901 0.0
H2865 H 0.64731 0.46494 0.81977 0.0
H2866 H 0.69086 0.62111 0.82835 0.0
H2867 H 0.74972 0.44356 0.80909 0.0
H2868 H 0.66407 0.52224 0.82428 0.0
H2869 H 0.77749 0.54331 0.81331 0.0
C2870 C 0.7679 0.59315 0.81942 0.0
C2871 C 0.7445 0.61446 0.82501 0.0
C2872 C 0.68291 0.50474 0.8211 0.0
C2873 C 0.72532 0.55037 0.81874 0.0
C2874 C 0.6735 0.47187 0.81884 0.0
C2875 C 0.69662 0.44984 0.81353 0.0
C2876 C 0.71574 0.51505 0.81825 0.0
C2877 C 0.73054 0.45978 0.81284 0.0
C2878 C 0.75847 0.56068 0.81644 0.0
C2879 C 0.71038 0.60519 0.82469 0.0
N2880 N 0.73889 0.49203 0.81481 0.0
N2881 N 0.70199 0.57331 0.82209 0.0
H2882 H 0.84375 0.54795 1.06243 0.0
H2883 H 0.67167 0.44722 1.05995 0.0
H2884 H 0.83308 0.44522 1.0509 0.0
H2885 H 0.68266 0.54276 0.07784 0.0
H2886 H 0.72898 0.45258 1.05232 0.0
H2887 H 0.7836 0.54939 1.06694 0.0
C2888 C 0.82907 0.52532 1.06137 0.0
C2889 C 0.84322 0.49678 1.05601 0.0
C2890 C 0.71844 0.47268 1.05771 0.0
C2891 C 0.77488 0.49858 1.06061 0.0
C2892 C 0.6855 0.46998 1.06181 0.0
C2893 C 0.67318 0.49346 0.07014 0.0
C2894 C 0.73828 0.49943 1.06181 0.0
C2895 C 0.69152 0.52318 0.07185 0.0
C2896 C 0.79469 0.52641 1.0636 0.0
C2897 C 0.82328 0.46798 1.05489 0.0
N2898 N 0.72381 0.52475 0.06813 0.0
N2899 N 0.78987 0.46988 1.05688 0.0
H2900 H 0.79525 0.43601 0.32731 0.0
H2901 H 0.85906 0.61194 0.30423 0.0
H2902 H 0.89823 0.45575 0.31703 0.0
H2903 H 0.75793 0.59338 0.317 0.0
H2904 H 0.87443 0.55569 0.30966 0.0
H2905 H 0.78006 0.49187 0.3212 0.0
C2906 C 0.81458 0.45147 0.32324 0.0
C2907 C 0.84855 0.44157 0.32312 0.0
C2908 C 0.84899 0.56402 0.31146 0.0
C2909 C 0.83123 0.50616 0.31663 0.0
C2910 C 0.84024 0.59664 0.30867 0.0
C2911 C 0.80658 0.60715 0.30974 0.0
C2912 C 0.82407 0.54197 0.31545 0.0
C2913 C 0.78383 0.5859 0.31566 0.0
C2914 C 0.80589 0.48386 0.32007 0.0
C2915 C 0.87201 0.46283 0.31761 0.0
N2916 N 0.79273 0.55381 0.31798 0.0
N2917 N 0.86311 0.4947 0.31492 0.0
H2918 H 0.70274 0.46115 0.54829 0.0
H2919 H 0.81541 0.58051 0.58443 0.0
H2920 H 0.66341 0.53241 0.57414 0.0
H2921 H 0.85329 0.4827 0.57479 0.0
H2922 H 0.75963 0.56315 0.57856 0.0
H2923 H 0.75647 0.46304 0.55842 0.0
C2924 C 0.70461 0.4758 0.55655 0.0
C2925 C 0.67917 0.49842 0.55996 0.0
C2926 C 0.78017 0.5455 0.57767 0.0
C2927 C 0.74078 0.50115 0.57125 0.0
C2928 C 0.81233 0.55575 0.5806 0.0
C2929 C 0.83901 0.5328 0.5802 0.0
C2930 C 0.7748 0.51236 0.5741 0.0
C2931 C 0.83322 0.50097 0.57528 0.0
C2932 C 0.73573 0.47725 0.56219 0.0
C2933 C 0.68306 0.51589 0.57089 0.0
N2934 N 0.80144 0.49143 0.57253 0.0
N2935 N 0.71408 0.51829 0.57586 0.0
H2936 H 0.2948 0.65486 0.3122 0.0
H2937 H 0.25329 0.4645 0.31152 0.0
H2938 H 0.21673 0.60862 0.33369 0.0
H2939 H 0.32647 0.51223 0.28823 0.0
H2940 H 0.22964 0.51944 0.31615 0.0
H2941 H 0.29348 0.60705 0.29848 0.0
C2942 C 0.27625 0.63545 0.31368 0.0
C2943 C 0.25709 0.63482 0.32437 0.0
C2944 C 0.25081 0.51785 0.30999 0.0
C2945 C 0.25612 0.58004 0.30914 0.0
C2946 C 0.26457 0.4866 0.30753 0.0
C2947 C 0.29256 0.48405 0.29989 0.0
C2948 C 0.26538 0.54658 0.3048 0.0
C2949 C 0.3058 0.51323 0.29463 0.0
C2950 C 0.27574 0.60795 0.30596 0.0
C2951 C 0.23274 0.6097 0.32573 0.0
N2952 N 0.29228 0.54333 0.29729 0.0
N2953 N 0.23387 0.58252 0.31846 0.0
H2954 H 0.30544 0.49324 1.0544 0.0
H2955 H 0.12349 0.52369 1.06304 0.0
H2956 H 0.24596 0.53593 1.02539 0.0
H2957 H 0.17796 0.44699 0.08248 0.0
H2958 H 0.16054 0.5153 1.04568 0.0
H2959 H 0.25589 0.46525 1.06205 0.0
C2960 C 0.28195 0.4963 1.04953 0.0
C2961 C 0.27949 0.51743 1.03943 0.0
C2962 C 0.16338 0.49916 1.05354 0.0
C2963 C 0.22243 0.48592 1.04821 0.0
C2964 C 0.14213 0.50393 1.06344 0.0
C2965 C 0.14922 0.48769 0.07445 0.0
C2966 C 0.19149 0.47819 1.05489 0.0
C2967 C 0.17247 0.46126 0.07435 0.0
C2968 C 0.25362 0.48008 1.05383 0.0
C2969 C 0.2485 0.52072 1.03349 0.0
N2970 N 0.19383 0.45822 1.06487 0.0
N2971 N 0.22088 0.50566 1.03814 0.0
H2972 H 0.32828 0.55365 0.79979 0.0
H2973 H 0.26724 0.37721 0.81276 0.0
H2974 H 0.26308 0.49857 0.77568 0.0
H2975 H 0.34467 0.42834 0.83298 0.0
H2976 H 0.28111 0.41121 0.79503 0.0
H2977 H 0.34907 0.50127 0.80799 0.0
C2978 C 0.31883 0.5304 0.79607 0.0
C2979 C 0.29331 0.53019 0.78734 0.0
C2980 C 0.29602 0.41402 0.8032 0.0
C2981 C 0.31632 0.47019 0.79681 0.0
C2982 C 0.2881 0.39455 0.8133 0.0
C2983 C 0.30371 0.40115 0.82445 0.0
C2984 C 0.31923 0.44026 0.8045 0.0
C2985 C 0.33132 0.42294 0.82464 0.0
C2986 C 0.33077 0.50042 0.80071 0.0
C2987 C 0.28191 0.49957 0.78278 0.0
N2988 N 0.33747 0.44261 0.8149 0.0
N2989 N 0.29299 0.47065 0.78777 0.0
H2990 H 0.28453 0.48373 0.52985 0.0
H2991 H 0.37823 0.5815 0.58027 0.0
H2992 H 0.24225 0.55232 0.55607 0.0
H2993 H 0.41807 0.49422 0.56216 0.0
H2994 H 0.34024 0.5903 0.56353 0.0
H2995 H 0.34061 0.50372 0.53499 0.0
C2996 C 0.28711 0.50288 0.53675 0.0
C2997 C 0.25898 0.51553 0.54295 0.0
C2998 C 0.35824 0.57 0.56294 0.0
C2999 C 0.32263 0.53941 0.54837 0.0
C3000 C 0.38043 0.56509 0.57248 0.0
C3001 C 0.4 0.53584 0.5729 0.0
C3002 C 0.35542 0.54518 0.55403 0.0
C3003 C 0.40196 0.51606 0.56242 0.0
C3004 C 0.31899 0.51476 0.53944 0.0
C3005 C 0.26342 0.54147 0.5513 0.0
N3006 N 0.37868 0.5202 0.55355 0.0
N3007 N 0.29481 0.55224 0.5539 0.0
loop_
_geom_bond_atom_site_label_1
_geom_bond_atom_site_label_2
_geom_bond_distance
_geom_bond_site_symmetry_2
_ccdc_geom_bond_type
Sm0 C2 2.846 . S
Sm0 O20 2.543 . S
Sm0 O21 2.450 . S
Sm0 O22 2.681 . S
Sm0 O23 2.464 . S
Sm0 O24 2.396 . S
Sm0 O28 2.386 . S
Sm0 O31 2.408 . S
Sm1 C11 2.846 . S
Sm1 O22 2.386 . S
Sm1 O25 2.408 . S
Sm1 O26 2.543 . S
Sm1 O27 2.450 . S
Sm1 O28 2.681 . S
Sm1 O29 2.464 . S
Sm1 O30 2.396 . S
C2 Sm0 2.846 . S
C2 C3 1.506 . S
C2 O20 1.261 . S
C2 O21 1.242 . S
C3 C2 1.506 . S
C3 C4 1.358 . S
C3 C8 1.382 . S
C4 C3 1.358 . S
C4 C5 1.385 . S
C4 H32 0.930 . S
C5 C4 1.385 . S
C5 C6 1.395 . S
C5 H33 0.929 . S
C6 C5 1.395 . S
C6 C7 1.335 . S
C7 C6 1.335 . S
C7 C8 1.398 . S
C7 H34 0.930 . S
C8 C3 1.382 . S
C8 C7 1.398 . S
C8 H35 0.929 . S
C9 O22 1.271 . S
C9 O23 1.251 . S
C10 O24 1.252 . S
C10 O25 1.272 . S
C11 Sm1 2.846 . S
C11 C12 1.506 . S
C11 O26 1.261 . S
C11 O27 1.242 . S
C12 C11 1.506 . S
C12 C13 1.358 . S
C12 C17 1.382 . S
C13 C12 1.358 . S
C13 C14 1.385 . S
C13 H36 0.930 . S
C14 C13 1.385 . S
C14 C15 1.395 . S
C14 H37 0.929 . S
C15 C14 1.395 . S
C15 C16 1.335 . S
C16 C15 1.335 . S
C16 C17 1.398 . S
C16 H38 0.930 . S
C17 C12 1.382 . S
C17 C16 1.398 . S
C17 H39 0.929 . S
C18 O28 1.271 . S
C18 O29 1.251 . S
C19 O30 1.252 . S
C19 O31 1.272 . S
O20 Sm0 2.543 . S
O20 C2 1.261 . S
O21 Sm0 2.450 . S
O21 C2 1.242 . S
O22 Sm0 2.681 . S
O22 Sm1 2.386 . S
O22 C9 1.271 . S
O23 Sm0 2.464 . S
O23 C9 1.251 . S
O24 Sm0 2.396 . S
O24 C10 1.252 . S
O25 Sm1 2.408 . S
O25 C10 1.272 . S
O26 Sm1 2.543 . S
O26 C11 1.261 . S
O27 Sm1 2.450 . S
O27 C11 1.242 . S
O28 Sm0 2.386 . S
O28 Sm1 2.681 . S
O28 C18 1.271 . S
O29 Sm1 2.464 . S
O29 C18 1.251 . S
O30 Sm1 2.396 . S
O30 C19 1.252 . S
O31 Sm0 2.408 . S
O31 C19 1.272 . S
H32 C4 0.930 . S
H33 C5 0.929 . S
H34 C7 0.930 . S
H35 C8 0.929 . S
H36 C13 0.930 . S
H37 C14 0.929 . S
H38 C16 0.930 . S
H39 C17 0.929 . S
Sm40 C42 2.841 1_455 S
Sm40 O60 2.538 1_455 S
Sm40 O61 2.445 1_455 S
Sm40 O62 2.690 . S
Sm40 O63 2.469 1_565 S
Sm40 O64 2.402 . S
Sm40 O68 2.390 . S
Sm40 O71 2.409 . S
Sm41 C51 2.846 . S
Sm41 O62 2.386 . S
Sm41 O65 2.408 . S
Sm41 O66 2.543 . S
Sm41 O67 2.450 . S
Sm41 O68 2.681 . S
Sm41 O69 2.464 . S
Sm41 O70 2.396 . S
C42 Sm40 2.841 1_655 S
C42 C43 1.506 . S
C42 O60 1.261 . S
C42 O61 1.242 . S
C43 C42 1.506 . S
C43 C44 1.358 . S
C43 C48 1.382 . S
C44 C43 1.358 . S
C44 C45 1.385 . S
C44 H72 0.930 . S
C45 C44 1.385 . S
C45 C46 1.395 . S
C45 H73 0.929 . S
C46 C45 1.395 . S
C46 C47 1.335 . S
C47 C46 1.335 . S
C47 C48 1.398 . S
C47 H74 0.930 . S
C48 C43 1.382 . S
C48 C47 1.398 . S
C48 H75 0.929 . S
C49 O62 1.271 1_545 S
C49 O63 1.251 . S
C50 O64 1.252 . S
C50 O65 1.272 . S
C51 Sm41 2.846 . S
C51 C52 1.506 . S
C51 O66 1.261 . S
C51 O67 1.242 . S
C52 C51 1.506 . S
C52 C53 1.358 . S
C52 C57 1.382 . S
C53 C52 1.358 . S
C53 C54 1.385 . S
C53 H76 0.930 1_565 S
C54 C53 1.385 . S
C54 C55 1.395 . S
C54 H77 0.929 1_565 S
C55 C54 1.395 . S
C55 C56 1.335 . S
C56 C55 1.335 . S
C56 C57 1.398 . S
C56 H78 0.930 . S
C57 C52 1.382 . S
C57 C56 1.398 . S
C57 H79 0.929 . S
C58 O68 1.271 . S
C58 O69 1.251 . S
C59 O70 1.252 . S
C59 O71 1.272 . S
O60 Sm40 2.538 1_655 S
O60 C42 1.261 . S
O61 Sm40 2.445 1_655 S
O61 C42 1.242 . S
O62 Sm40 2.690 . S
O62 Sm41 2.386 . S
O62 C49 1.271 1_565 S
O63 Sm40 2.469 1_545 S
O63 C49 1.251 . S
O64 Sm40 2.402 . S
O64 C50 1.252 . S
O65 Sm41 2.408 . S
O65 C50 1.272 . S
O66 Sm41 2.543 . S
O66 C51 1.261 . S
O67 Sm41 2.450 . S
O67 C51 1.242 . S
O68 Sm40 2.390 . S
O68 Sm41 2.681 . S
O68 C58 1.271 . S
O69 Sm41 2.464 . S
O69 C58 1.251 . S
O70 Sm41 2.396 . S
O70 C59 1.252 . S
O71 Sm40 2.409 . S
O71 C59 1.272 . S
H72 C44 0.930 . S
H73 C45 0.929 . S
H74 C47 0.930 . S
H75 C48 0.929 . S
H76 C53 0.930 1_545 S
H77 C54 0.929 1_545 S
H78 C56 0.930 . S
H79 C57 0.929 . S
Sm80 C82 2.846 . S
Sm80 O100 2.543 . S
Sm80 O101 2.450 . S
Sm80 O102 2.681 . S
Sm80 O103 2.464 . S
Sm80 O104 2.396 . S
Sm80 O108 2.386 . S
Sm80 O111 2.408 . S
Sm81 C91 2.846 . S
Sm81 O102 2.386 . S
Sm81 O105 2.408 . S
Sm81 O106 2.543 . S
Sm81 O107 2.450 . S
Sm81 O108 2.681 . S
Sm81 O109 2.464 . S
Sm81 O110 2.396 . S
C82 Sm80 2.846 . S
C82 C83 1.506 . S
C82 O100 1.261 . S
C82 O101 1.242 . S
C83 C82 1.506 . S
C83 C84 1.358 . S
C83 C88 1.382 . S
C84 C83 1.358 . S
C84 C85 1.385 . S
C84 H112 0.930 . S
C85 C84 1.385 . S
C85 C86 1.395 . S
C85 H113 0.929 . S
C86 C85 1.395 . S
C86 C87 1.335 . S
C87 C86 1.335 . S
C87 C88 1.398 . S
C87 H114 0.930 . S
C88 C83 1.382 . S
C88 C87 1.398 . S
C88 H115 0.929 . S
C89 O102 1.271 . S
C89 O103 1.251 . S
C90 O104 1.252 . S
C90 O105 1.272 . S
C91 Sm81 2.846 . S
C91 C92 1.506 . S
C91 O106 1.261 . S
C91 O107 1.242 . S
C92 C91 1.506 . S
C92 C93 1.358 . S
C92 C97 1.382 . S
C93 C92 1.358 . S
C93 C94 1.385 . S
C93 H116 0.930 . S
C94 C93 1.385 . S
C94 C95 1.395 . S
C94 H117 0.929 . S
C95 C94 1.395 . S
C95 C96 1.335 . S
C96 C95 1.335 . S
C96 C97 1.398 . S
C96 H118 0.930 . S
C97 C92 1.382 . S
C97 C96 1.398 . S
C97 H119 0.929 . S
C98 O108 1.271 . S
C98 O109 1.251 . S
C99 O110 1.252 . S
C99 O111 1.272 . S
O100 Sm80 2.543 . S
O100 C82 1.261 . S
O101 Sm80 2.450 . S
O101 C82 1.242 . S
O102 Sm80 2.681 . S
O102 Sm81 2.386 . S
O102 C89 1.271 . S
O103 Sm80 2.464 . S
O103 C89 1.251 . S
O104 Sm80 2.396 . S
O104 C90 1.252 . S
O105 Sm81 2.408 . S
O105 C90 1.272 . S
O106 Sm81 2.543 . S
O106 C91 1.261 . S
O107 Sm81 2.450 . S
O107 C91 1.242 . S
O108 Sm80 2.386 . S
O108 Sm81 2.681 . S
O108 C98 1.271 . S
O109 Sm81 2.464 . S
O109 C98 1.251 . S
O110 Sm81 2.396 . S
O110 C99 1.252 . S
O111 Sm80 2.408 . S
O111 C99 1.272 . S
H112 C84 0.930 . S
H113 C85 0.929 . S
H114 C87 0.930 . S
H115 C88 0.929 . S
H116 C93 0.930 . S
H117 C94 0.929 . S
H118 C96 0.930 . S
H119 C97 0.929 . S
Sm120 C122 2.846 . S
Sm120 O140 2.543 . S
Sm120 O141 2.450 . S
Sm120 O142 2.681 . S
Sm120 O143 2.464 1_545 S
Sm120 O144 2.396 . S
Sm120 O148 2.386 . S
Sm120 O151 2.408 . S
Sm121 C131 2.846 . S
Sm121 O142 2.386 . S
Sm121 O145 2.408 . S
Sm121 O146 2.543 . S
Sm121 O147 2.450 . S
Sm121 O148 2.681 . S
Sm121 O149 2.464 . S
Sm121 O150 2.396 . S
C122 Sm120 2.846 . S
C122 C123 1.506 . S
C122 O140 1.261 . S
C122 O141 1.242 . S
C123 C122 1.506 . S
C123 C124 1.358 . S
C123 C128 1.382 . S
C124 C123 1.358 . S
C124 C125 1.385 . S
C124 H152 0.930 . S
C125 C124 1.385 . S
C125 C126 1.395 . S
C125 H153 0.929 . S
C126 C125 1.395 . S
C126 C127 1.335 . S
C127 C126 1.335 . S
C127 C128 1.398 . S
C127 H154 0.930 . S
C128 C123 1.382 . S
C128 C127 1.398 . S
C128 H155 0.929 . S
C129 O142 1.271 1_565 S
C129 O143 1.251 . S
C130 O144 1.252 . S
C130 O145 1.272 . S
C131 Sm121 2.846 . S
C131 C132 1.506 . S
C131 O146 1.261 . S
C131 O147 1.242 . S
C132 C131 1.506 . S
C132 C133 1.358 . S
C132 C137 1.382 . S
C133 C132 1.358 . S
C133 C134 1.385 . S
C133 H156 0.930 1_545 S
C134 C133 1.385 . S
C134 C135 1.395 . S
C134 H157 0.929 1_545 S
C135 C134 1.395 . S
C135 C136 1.335 . S
C136 C135 1.335 . S
C136 C137 1.398 . S
C136 H158 0.930 . S
C137 C132 1.382 . S
C137 C136 1.398 . S
C137 H159 0.929 . S
C138 O148 1.271 . S
C138 O149 1.251 . S
C139 O150 1.252 . S
C139 O151 1.272 . S
O140 Sm120 2.543 . S
O140 C122 1.261 . S
O141 Sm120 2.450 . S
O141 C122 1.242 . S
O142 Sm120 2.681 . S
O142 Sm121 2.386 . S
O142 C129 1.271 1_545 S
O143 Sm120 2.464 1_565 S
O143 C129 1.251 . S
O144 Sm120 2.396 . S
O144 C130 1.252 . S
O145 Sm121 2.408 . S
O145 C130 1.272 . S
O146 Sm121 2.543 . S
O146 C131 1.261 . S
O147 Sm121 2.450 . S
O147 C131 1.242 . S
O148 Sm120 2.386 . S
O148 Sm121 2.681 . S
O148 C138 1.271 . S
O149 Sm121 2.464 . S
O149 C138 1.251 . S
O150 Sm121 2.396 . S
O150 C139 1.252 . S
O151 Sm120 2.408 . S
O151 C139 1.272 . S
H152 C124 0.930 . S
H153 C125 0.929 . S
H154 C127 0.930 . S
H155 C128 0.929 . S
H156 C133 0.930 1_565 S
H157 C134 0.929 1_565 S
H158 C136 0.930 . S
H159 C137 0.929 . S
Sm160 C162 2.846 . S
Sm160 O180 2.543 . S
Sm160 O181 2.450 . S
Sm160 O182 2.681 . S
Sm160 O183 2.464 . S
Sm160 O184 2.396 . S
Sm160 O188 2.386 . S
Sm160 O191 2.408 . S
Sm161 C171 2.846 . S
Sm161 O182 2.386 . S
Sm161 O185 2.408 . S
Sm161 O186 2.543 . S
Sm161 O187 2.450 . S
Sm161 O188 2.681 . S
Sm161 O189 2.464 . S
Sm161 O190 2.396 . S
C162 Sm160 2.846 . S
C162 C163 1.506 . S
C162 O180 1.261 . S
C162 O181 1.242 . S
C163 C162 1.506 . S
C163 C164 1.358 . S
C163 C168 1.382 . S
C164 C163 1.358 . S
C164 C165 1.385 . S
C164 H192 0.930 . S
C165 C164 1.385 . S
C165 C166 1.395 . S
C165 H193 0.929 . S
C166 C165 1.395 . S
C166 C167 1.335 . S
C167 C166 1.335 . S
C167 C168 1.398 . S
C167 H194 0.930 . S
C168 C163 1.382 . S
C168 C167 1.398 . S
C168 H195 0.929 . S
C169 O182 1.271 . S
C169 O183 1.251 . S
C170 O184 1.252 . S
C170 O185 1.272 . S
C171 Sm161 2.846 . S
C171 C172 1.506 . S
C171 O186 1.261 . S
C171 O187 1.242 . S
C172 C171 1.506 . S
C172 C173 1.358 . S
C172 C177 1.382 . S
C173 C172 1.358 . S
C173 C174 1.385 . S
C173 H196 0.930 . S
C174 C173 1.385 . S
C174 C175 1.395 . S
C174 H197 0.929 . S
C175 C174 1.395 . S
C175 C176 1.335 . S
C176 C175 1.335 . S
C176 C177 1.398 . S
C176 H198 0.930 . S
C177 C172 1.382 . S
C177 C176 1.398 . S
C177 H199 0.929 . S
C178 O188 1.271 . S
C178 O189 1.251 . S
C179 O190 1.252 . S
C179 O191 1.272 . S
O180 Sm160 2.543 . S
O180 C162 1.261 . S
O181 Sm160 2.450 . S
O181 C162 1.242 . S
O182 Sm160 2.681 . S
O182 Sm161 2.386 . S
O182 C169 1.271 . S
O183 Sm160 2.464 . S
O183 C169 1.251 . S
O184 Sm160 2.396 . S
O184 C170 1.252 . S
O185 Sm161 2.408 . S
O185 C170 1.272 . S
O186 Sm161 2.543 . S
O186 C171 1.261 . S
O187 Sm161 2.450 . S
O187 C171 1.242 . S
O188 Sm160 2.386 . S
O188 Sm161 2.681 . S
O188 C178 1.271 . S
O189 Sm161 2.464 . S
O189 C178 1.251 . S
O190 Sm161 2.396 . S
O190 C179 1.252 . S
O191 Sm160 2.408 . S
O191 C179 1.272 . S
H192 C164 0.930 . S
H193 C165 0.929 . S
H194 C167 0.930 . S
H195 C168 0.929 . S
H196 C173 0.930 . S
H197 C174 0.929 . S
H198 C176 0.930 . S
H199 C177 0.929 . S
Sm200 C202 2.846 . S
Sm200 O220 2.543 . S
Sm200 O221 2.450 . S
Sm200 O222 2.681 . S
Sm200 O223 2.464 1_565 S
Sm200 O224 2.396 . S
Sm200 O228 2.386 . S
Sm200 O231 2.408 . S
Sm201 C211 2.846 . S
Sm201 O222 2.386 . S
Sm201 O225 2.408 . S
Sm201 O226 2.543 . S
Sm201 O227 2.450 . S
Sm201 O228 2.681 . S
Sm201 O229 2.464 . S
Sm201 O230 2.396 . S
C202 Sm200 2.846 . S
C202 C203 1.506 . S
C202 O220 1.261 . S
C202 O221 1.242 . S
C203 C202 1.506 . S
C203 C204 1.358 . S
C203 C208 1.382 . S
C204 C203 1.358 . S
C204 C205 1.385 . S
C204 H232 0.930 . S
C205 C204 1.385 . S
C205 C206 1.395 . S
C205 H233 0.929 . S
C206 C205 1.395 . S
C206 C207 1.335 . S
C207 C206 1.335 . S
C207 C208 1.398 . S
C207 H234 0.930 . S
C208 C203 1.382 . S
C208 C207 1.398 . S
C208 H235 0.929 . S
C209 O222 1.271 1_545 S
C209 O223 1.251 . S
C210 O224 1.252 . S
C210 O225 1.272 . S
C211 Sm201 2.846 . S
C211 C212 1.506 . S
C211 O226 1.261 . S
C211 O227 1.242 . S
C212 C211 1.506 . S
C212 C213 1.358 . S
C212 C217 1.382 . S
C213 C212 1.358 . S
C213 C214 1.385 . S
C213 H236 0.930 1_565 S
C214 C213 1.385 . S
C214 C215 1.395 . S
C214 H237 0.929 1_565 S
C215 C214 1.395 . S
C215 C216 1.335 . S
C216 C215 1.335 . S
C216 C217 1.398 . S
C216 H238 0.930 . S
C217 C212 1.382 . S
C217 C216 1.398 . S
C217 H239 0.929 . S
C218 O228 1.271 . S
C218 O229 1.251 . S
C219 O230 1.252 . S
C219 O231 1.272 . S
O220 Sm200 2.543 . S
O220 C202 1.261 . S
O221 Sm200 2.450 . S
O221 C202 1.242 . S
O222 Sm200 2.681 . S
O222 Sm201 2.386 . S
O222 C209 1.271 1_565 S
O223 Sm200 2.464 1_545 S
O223 C209 1.251 . S
O224 Sm200 2.396 . S
O224 C210 1.252 . S
O225 Sm201 2.408 . S
O225 C210 1.272 . S
O226 Sm201 2.543 . S
O226 C211 1.261 . S
O227 Sm201 2.450 . S
O227 C211 1.242 . S
O228 Sm200 2.386 . S
O228 Sm201 2.681 . S
O228 C218 1.271 . S
O229 Sm201 2.464 . S
O229 C218 1.251 . S
O230 Sm201 2.396 . S
O230 C219 1.252 . S
O231 Sm200 2.408 . S
O231 C219 1.272 . S
H232 C204 0.930 . S
H233 C205 0.929 . S
H234 C207 0.930 . S
H235 C208 0.929 . S
H236 C213 0.930 1_545 S
H237 C214 0.929 1_545 S
H238 C216 0.930 . S
H239 C217 0.929 . S
Sm240 C242 2.846 . S
Sm240 O260 2.543 . S
Sm240 O261 2.450 . S
Sm240 O262 2.681 . S
Sm240 O263 2.464 . S
Sm240 O264 2.396 . S
Sm240 O268 2.386 . S
Sm240 O271 2.408 . S
Sm241 C251 2.846 . S
Sm241 O262 2.386 . S
Sm241 O265 2.408 . S
Sm241 O266 2.543 . S
Sm241 O267 2.450 . S
Sm241 O268 2.681 . S
Sm241 O269 2.464 . S
Sm241 O270 2.396 . S
C242 Sm240 2.846 . S
C242 C243 1.506 . S
C242 O260 1.261 . S
C242 O261 1.242 . S
C243 C242 1.506 . S
C243 C244 1.358 . S
C243 C248 1.382 . S
C244 C243 1.358 . S
C244 C245 1.385 . S
C244 H272 0.930 . S
C245 C244 1.385 . S
C245 C246 1.395 . S
C245 H273 0.929 . S
C246 C245 1.395 . S
C246 C247 1.335 . S
C247 C246 1.335 . S
C247 C248 1.398 . S
C247 H274 0.930 . S
C248 C243 1.382 . S
C248 C247 1.398 . S
C248 H275 0.929 . S
C249 O262 1.271 . S
C249 O263 1.251 . S
C250 O264 1.252 . S
C250 O265 1.272 . S
C251 Sm241 2.846 . S
C251 C252 1.506 . S
C251 O266 1.261 . S
C251 O267 1.242 . S
C252 C251 1.506 . S
C252 C253 1.358 . S
C252 C257 1.382 . S
C253 C252 1.358 . S
C253 C254 1.385 . S
C253 H276 0.930 . S
C254 C253 1.385 . S
C254 C255 1.395 . S
C254 H277 0.929 . S
C255 C254 1.395 . S
C255 C256 1.335 . S
C256 C255 1.335 . S
C256 C257 1.398 . S
C256 H278 0.930 . S
C257 C252 1.382 . S
C257 C256 1.398 . S
C257 H279 0.929 . S
C258 O268 1.271 . S
C258 O269 1.251 . S
C259 O270 1.252 . S
C259 O271 1.272 . S
O260 Sm240 2.543 . S
O260 C242 1.261 . S
O261 Sm240 2.450 . S
O261 C242 1.242 . S
O262 Sm240 2.681 . S
O262 Sm241 2.386 . S
O262 C249 1.271 . S
O263 Sm240 2.464 . S
O263 C249 1.251 . S
O264 Sm240 2.396 . S
O264 C250 1.252 . S
O265 Sm241 2.408 . S
O265 C250 1.272 . S
O266 Sm241 2.543 . S
O266 C251 1.261 . S
O267 Sm241 2.450 . S
O267 C251 1.242 . S
O268 Sm240 2.386 . S
O268 Sm241 2.681 . S
O268 C258 1.271 . S
O269 Sm241 2.464 . S
O269 C258 1.251 . S
O270 Sm241 2.396 . S
O270 C259 1.252 . S
O271 Sm240 2.408 . S
O271 C259 1.272 . S
H272 C244 0.930 . S
H273 C245 0.929 . S
H274 C247 0.930 . S
H275 C248 0.929 . S
H276 C253 0.930 . S
H277 C254 0.929 . S
H278 C256 0.930 . S
H279 C257 0.929 . S
Sm280 C282 2.841 1_455 S
Sm280 O300 2.538 1_455 S
Sm280 O301 2.445 1_455 S
Sm280 O302 2.690 . S
Sm280 O303 2.469 1_545 S
Sm280 O304 2.402 . S
Sm280 O308 2.390 . S
Sm280 O311 2.409 . S
Sm281 C291 2.846 . S
Sm281 O302 2.386 . S
Sm281 O305 2.408 . S
Sm281 O306 2.543 . S
Sm281 O307 2.450 . S
Sm281 O308 2.681 . S
Sm281 O309 2.464 . S
Sm281 O310 2.396 . S
C282 Sm280 2.841 1_655 S
C282 C283 1.506 . S
C282 O300 1.261 . S
C282 O301 1.242 . S
C283 C282 1.506 . S
C283 C284 1.358 . S
C283 C288 1.382 . S
C284 C283 1.358 . S
C284 C285 1.385 . S
C284 H312 0.930 . S
C285 C284 1.385 . S
C285 C286 1.395 . S
C285 H313 0.929 . S
C286 C285 1.395 . S
C286 C287 1.335 . S
C287 C286 1.335 . S
C287 C288 1.398 . S
C287 H314 0.930 . S
C288 C283 1.382 . S
C288 C287 1.398 . S
C288 H315 0.929 . S
C289 O302 1.271 1_565 S
C289 O303 1.251 . S
C290 O304 1.252 . S
C290 O305 1.272 . S
C291 Sm281 2.846 . S
C291 C292 1.506 . S
C291 O306 1.261 . S
C291 O307 1.242 . S
C292 C291 1.506 . S
C292 C293 1.358 . S
C292 C297 1.382 . S
C293 C292 1.358 . S
C293 C294 1.385 . S
C293 H316 0.930 1_545 S
C294 C293 1.385 . S
C294 C295 1.395 . S
C294 H317 0.929 1_545 S
C295 C294 1.395 . S
C295 C296 1.335 . S
C296 C295 1.335 . S
C296 C297 1.398 . S
C296 H318 0.930 . S
C297 C292 1.382 . S
C297 C296 1.398 . S
C297 H319 0.929 . S
C298 O308 1.271 . S
C298 O309 1.251 . S
C299 O310 1.252 . S
C299 O311 1.272 . S
O300 Sm280 2.538 1_655 S
O300 C282 1.261 . S
O301 Sm280 2.445 1_655 S
O301 C282 1.242 . S
O302 Sm280 2.690 . S
O302 Sm281 2.386 . S
O302 C289 1.271 1_545 S
O303 Sm280 2.469 1_565 S
O303 C289 1.251 . S
O304 Sm280 2.402 . S
O304 C290 1.252 . S
O305 Sm281 2.408 . S
O305 C290 1.272 . S
O306 Sm281 2.543 . S
O306 C291 1.261 . S
O307 Sm281 2.450 . S
O307 C291 1.242 . S
O308 Sm280 2.390 . S
O308 Sm281 2.681 . S
O308 C298 1.271 . S
O309 Sm281 2.464 . S
O309 C298 1.251 . S
O310 Sm281 2.396 . S
O310 C299 1.252 . S
O311 Sm280 2.409 . S
O311 C299 1.272 . S
H312 C284 0.930 . S
H313 C285 0.929 . S
H314 C287 0.930 . S
H315 C288 0.929 . S
H316 C293 0.930 1_565 S
H317 C294 0.929 1_565 S
H318 C296 0.930 . S
H319 C297 0.929 . S
Sm320 C322 2.846 . S
Sm320 O340 2.543 . S
Sm320 O341 2.450 . S
Sm320 O342 2.681 . S
Sm320 O343 2.464 . S
Sm320 O344 2.396 . S
Sm320 O348 2.386 . S
Sm320 O351 2.408 . S
Sm321 C331 2.846 . S
Sm321 O342 2.386 . S
Sm321 O345 2.408 . S
Sm321 O346 2.543 . S
Sm321 O347 2.450 . S
Sm321 O348 2.681 . S
Sm321 O349 2.464 . S
Sm321 O350 2.396 . S
C322 Sm320 2.846 . S
C322 C323 1.506 . S
C322 O340 1.261 . S
C322 O341 1.242 . S
C323 C322 1.506 . S
C323 C324 1.358 . S
C323 C328 1.382 . S
C324 C323 1.358 . S
C324 C325 1.385 . S
C324 H352 0.930 . S
C325 C324 1.385 . S
C325 C326 1.395 . S
C325 H353 0.929 . S
C326 C325 1.395 . S
C326 C327 1.335 . S
C327 C326 1.335 . S
C327 C328 1.398 . S
C327 H354 0.930 . S
C328 C323 1.382 . S
C328 C327 1.398 . S
C328 H355 0.929 . S
C329 O342 1.271 . S
C329 O343 1.251 . S
C330 O344 1.252 . S
C330 O345 1.272 . S
C331 Sm321 2.846 . S
C331 C332 1.506 . S
C331 O346 1.261 . S
C331 O347 1.242 . S
C332 C331 1.506 . S
C332 C333 1.358 . S
C332 C337 1.382 . S
C333 C332 1.358 . S
C333 C334 1.385 . S
C333 H356 0.930 . S
C334 C333 1.385 . S
C334 C335 1.395 . S
C334 H357 0.929 . S
C335 C334 1.395 . S
C335 C336 1.335 . S
C336 C335 1.335 . S
C336 C337 1.398 . S
C336 H358 0.930 . S
C337 C332 1.382 . S
C337 C336 1.398 . S
C337 H359 0.929 . S
C338 O348 1.271 . S
C338 O349 1.251 . S
C339 O350 1.252 . S
C339 O351 1.272 . S
O340 Sm320 2.543 . S
O340 C322 1.261 . S
O341 Sm320 2.450 . S
O341 C322 1.242 . S
O342 Sm320 2.681 . S
O342 Sm321 2.386 . S
O342 C329 1.271 . S
O343 Sm320 2.464 . S
O343 C329 1.251 . S
O344 Sm320 2.396 . S
O344 C330 1.252 . S
O345 Sm321 2.408 . S
O345 C330 1.272 . S
O346 Sm321 2.543 . S
O346 C331 1.261 . S
O347 Sm321 2.450 . S
O347 C331 1.242 . S
O348 Sm320 2.386 . S
O348 Sm321 2.681 . S
O348 C338 1.271 . S
O349 Sm321 2.464 . S
O349 C338 1.251 . S
O350 Sm321 2.396 . S
O350 C339 1.252 . S
O351 Sm320 2.408 . S
O351 C339 1.272 . S
H352 C324 0.930 . S
H353 C325 0.929 . S
H354 C327 0.930 . S
H355 C328 0.929 . S
H356 C333 0.930 . S
H357 C334 0.929 . S
H358 C336 0.930 . S
H359 C337 0.929 . S
Sm360 C362 2.846 . S
Sm360 O380 2.543 . S
Sm360 O381 2.450 . S
Sm360 O382 2.681 . S
Sm360 O383 2.464 . S
Sm360 O384 2.396 . S
Sm360 O388 2.386 . S
Sm360 O391 2.408 . S
Sm361 C371 2.841 1_655 S
Sm361 O382 2.390 . S
Sm361 O385 2.409 . S
Sm361 O386 2.538 1_655 S
Sm361 O387 2.445 1_655 S
Sm361 O388 2.690 . S
Sm361 O389 2.469 1_545 S
Sm361 O390 2.402 . S
C362 Sm360 2.846 . S
C362 C363 1.506 . S
C362 O380 1.261 . S
C362 O381 1.242 . S
C363 C362 1.506 . S
C363 C364 1.358 . S
C363 C368 1.382 . S
C364 C363 1.358 . S
C364 C365 1.385 . S
C364 H392 0.930 1_545 S
C365 C364 1.385 . S
C365 C366 1.395 . S
C365 H393 0.929 1_545 S
C366 C365 1.395 . S
C366 C367 1.335 . S
C367 C366 1.335 . S
C367 C368 1.398 . S
C367 H394 0.930 . S
C368 C363 1.382 . S
C368 C367 1.398 . S
C368 H395 0.929 . S
C369 O382 1.271 . S
C369 O383 1.251 . S
C370 O384 1.252 . S
C370 O385 1.272 . S
C371 Sm361 2.841 1_455 S
C371 C372 1.506 . S
C371 O386 1.261 . S
C371 O387 1.242 . S
C372 C371 1.506 . S
C372 C373 1.358 . S
C372 C377 1.382 . S
C373 C372 1.358 . S
C373 C374 1.385 . S
C373 H396 0.930 . S
C374 C373 1.385 . S
C374 C375 1.395 . S
C374 H397 0.929 . S
C375 C374 1.395 . S
C375 C376 1.335 . S
C376 C375 1.335 . S
C376 C377 1.398 . S
C376 H398 0.930 . S
C377 C372 1.382 . S
C377 C376 1.398 . S
C377 H399 0.929 . S
C378 O388 1.271 1_565 S
C378 O389 1.251 . S
C379 O390 1.252 . S
C379 O391 1.272 . S
O380 Sm360 2.543 . S
O380 C362 1.261 . S
O381 Sm360 2.450 . S
O381 C362 1.242 . S
O382 Sm360 2.681 . S
O382 Sm361 2.390 . S
O382 C369 1.271 . S
O383 Sm360 2.464 . S
O383 C369 1.251 . S
O384 Sm360 2.396 . S
O384 C370 1.252 . S
O385 Sm361 2.409 . S
O385 C370 1.272 . S
O386 Sm361 2.538 1_455 S
O386 C371 1.261 . S
O387 Sm361 2.445 1_455 S
O387 C371 1.242 . S
O388 Sm360 2.386 . S
O388 Sm361 2.690 . S
O388 C378 1.271 1_545 S
O389 Sm361 2.469 1_565 S
O389 C378 1.251 . S
O390 Sm361 2.402 . S
O390 C379 1.252 . S
O391 Sm360 2.408 . S
O391 C379 1.272 . S
H392 C364 0.930 1_565 S
H393 C365 0.929 1_565 S
H394 C367 0.930 . S
H395 C368 0.929 . S
H396 C373 0.930 . S
H397 C374 0.929 . S
H398 C376 0.930 . S
H399 C377 0.929 . S
Sm400 C402 2.846 . S
Sm400 O420 2.543 . S
Sm400 O421 2.450 . S
Sm400 O422 2.681 . S
Sm400 O423 2.464 . S
Sm400 O424 2.396 . S
Sm400 O428 2.386 . S
Sm400 O431 2.408 . S
Sm401 C411 2.846 . S
Sm401 O422 2.386 . S
Sm401 O425 2.408 . S
Sm401 O426 2.543 . S
Sm401 O427 2.450 . S
Sm401 O428 2.681 . S
Sm401 O429 2.464 . S
Sm401 O430 2.396 . S
C402 Sm400 2.846 . S
C402 C403 1.506 . S
C402 O420 1.261 . S
C402 O421 1.242 . S
C403 C402 1.506 . S
C403 C404 1.358 . S
C403 C408 1.382 . S
C404 C403 1.358 . S
C404 C405 1.385 . S
C404 H432 0.930 . S
C405 C404 1.385 . S
C405 C406 1.395 . S
C405 H433 0.929 . S
C406 C405 1.395 . S
C406 C407 1.335 . S
C407 C406 1.335 . S
C407 C408 1.398 . S
C407 H434 0.930 . S
C408 C403 1.382 . S
C408 C407 1.398 . S
C408 H435 0.929 . S
C409 O422 1.271 . S
C409 O423 1.251 . S
C410 O424 1.252 . S
C410 O425 1.272 . S
C411 Sm401 2.846 . S
C411 C412 1.506 . S
C411 O426 1.261 . S
C411 O427 1.242 . S
C412 C411 1.506 . S
C412 C413 1.358 . S
C412 C417 1.382 . S
C413 C412 1.358 . S
C413 C414 1.385 . S
C413 H436 0.930 . S
C414 C413 1.385 . S
C414 C415 1.395 . S
C414 H437 0.929 . S
C415 C414 1.395 . S
C415 C416 1.335 . S
C416 C415 1.335 . S
C416 C417 1.398 . S
C416 H438 0.930 . S
C417 C412 1.382 . S
C417 C416 1.398 . S
C417 H439 0.929 . S
C418 O428 1.271 . S
C418 O429 1.251 . S
C419 O430 1.252 . S
C419 O431 1.272 . S
O420 Sm400 2.543 . S
O420 C402 1.261 . S
O421 Sm400 2.450 . S
O421 C402 1.242 . S
O422 Sm400 2.681 . S
O422 Sm401 2.386 . S
O422 C409 1.271 . S
O423 Sm400 2.464 . S
O423 C409 1.251 . S
O424 Sm400 2.396 . S
O424 C410 1.252 . S
O425 Sm401 2.408 . S
O425 C410 1.272 . S
O426 Sm401 2.543 . S
O426 C411 1.261 . S
O427 Sm401 2.450 . S
O427 C411 1.242 . S
O428 Sm400 2.386 . S
O428 Sm401 2.681 . S
O428 C418 1.271 . S
O429 Sm401 2.464 . S
O429 C418 1.251 . S
O430 Sm401 2.396 . S
O430 C419 1.252 . S
O431 Sm400 2.408 . S
O431 C419 1.272 . S
H432 C404 0.930 . S
H433 C405 0.929 . S
H434 C407 0.930 . S
H435 C408 0.929 . S
H436 C413 0.930 . S
H437 C414 0.929 . S
H438 C416 0.930 . S
H439 C417 0.929 . S
Sm440 C442 2.846 . S
Sm440 O460 2.543 . S
Sm440 O461 2.450 . S
Sm440 O462 2.681 . S
Sm440 O463 2.464 . S
Sm440 O464 2.396 . S
Sm440 O468 2.386 . S
Sm440 O471 2.408 . S
Sm441 C451 2.846 . S
Sm441 O462 2.386 . S
Sm441 O465 2.408 . S
Sm441 O466 2.543 . S
Sm441 O467 2.450 . S
Sm441 O468 2.681 . S
Sm441 O469 2.464 1_565 S
Sm441 O470 2.396 . S
C442 Sm440 2.846 . S
C442 C443 1.506 . S
C442 O460 1.261 . S
C442 O461 1.242 . S
C443 C442 1.506 . S
C443 C444 1.358 . S
C443 C448 1.382 . S
C444 C443 1.358 . S
C444 C445 1.385 . S
C444 H472 0.930 1_565 S
C445 C444 1.385 . S
C445 C446 1.395 . S
C445 H473 0.929 1_565 S
C446 C445 1.395 . S
C446 C447 1.335 . S
C447 C446 1.335 . S
C447 C448 1.398 . S
C447 H474 0.930 . S
C448 C443 1.382 . S
C448 C447 1.398 . S
C448 H475 0.929 . S
C449 O462 1.271 . S
C449 O463 1.251 . S
C450 O464 1.252 . S
C450 O465 1.272 . S
C451 Sm441 2.846 . S
C451 C452 1.506 . S
C451 O466 1.261 . S
C451 O467 1.242 . S
C452 C451 1.506 . S
C452 C453 1.358 . S
C452 C457 1.382 . S
C453 C452 1.358 . S
C453 C454 1.385 . S
C453 H476 0.930 . S
C454 C453 1.385 . S
C454 C455 1.395 . S
C454 H477 0.929 . S
C455 C454 1.395 . S
C455 C456 1.335 . S
C456 C455 1.335 . S
C456 C457 1.398 . S
C456 H478 0.930 . S
C457 C452 1.382 . S
C457 C456 1.398 . S
C457 H479 0.929 . S
C458 O468 1.271 1_545 S
C458 O469 1.251 . S
C459 O470 1.252 . S
C459 O471 1.272 . S
O460 Sm440 2.543 . S
O460 C442 1.261 . S
O461 Sm440 2.450 . S
O461 C442 1.242 . S
O462 Sm440 2.681 . S
O462 Sm441 2.386 . S
O462 C449 1.271 . S
O463 Sm440 2.464 . S
O463 C449 1.251 . S
O464 Sm440 2.396 . S
O464 C450 1.252 . S
O465 Sm441 2.408 . S
O465 C450 1.272 . S
O466 Sm441 2.543 . S
O466 C451 1.261 . S
O467 Sm441 2.450 . S
O467 C451 1.242 . S
O468 Sm440 2.386 . S
O468 Sm441 2.681 . S
O468 C458 1.271 1_565 S
O469 Sm441 2.464 1_545 S
O469 C458 1.251 . S
O470 Sm441 2.396 . S
O470 C459 1.252 . S
O471 Sm440 2.408 . S
O471 C459 1.272 . S
H472 C444 0.930 1_545 S
H473 C445 0.929 1_545 S
H474 C447 0.930 . S
H475 C448 0.929 . S
H476 C453 0.930 . S
H477 C454 0.929 . S
H478 C456 0.930 . S
H479 C457 0.929 . S
Sm480 C482 2.846 . S
Sm480 O500 2.543 . S
Sm480 O501 2.450 . S
Sm480 O502 2.681 . S
Sm480 O503 2.464 . S
Sm480 O504 2.396 . S
Sm480 O508 2.386 . S
Sm480 O511 2.408 . S
Sm481 C491 2.846 . S
Sm481 O502 2.386 . S
Sm481 O505 2.408 . S
Sm481 O506 2.543 . S
Sm481 O507 2.450 . S
Sm481 O508 2.681 . S
Sm481 O509 2.464 . S
Sm481 O510 2.396 . S
C482 Sm480 2.846 . S
C482 C483 1.506 . S
C482 O500 1.261 . S
C482 O501 1.242 . S
C483 C482 1.506 . S
C483 C484 1.358 . S
C483 C488 1.382 . S
C484 C483 1.358 . S
C484 C485 1.385 . S
C484 H512 0.930 . S
C485 C484 1.385 . S
C485 C486 1.395 . S
C485 H513 0.929 . S
C486 C485 1.395 . S
C486 C487 1.335 . S
C487 C486 1.335 . S
C487 C488 1.398 . S
C487 H514 0.930 . S
C488 C483 1.382 . S
C488 C487 1.398 . S
C488 H515 0.929 . S
C489 O502 1.271 . S
C489 O503 1.251 . S
C490 O504 1.252 . S
C490 O505 1.272 . S
C491 Sm481 2.846 . S
C491 C492 1.506 . S
C491 O506 1.261 . S
C491 O507 1.242 . S
C492 C491 1.506 . S
C492 C493 1.358 . S
C492 C497 1.382 . S
C493 C492 1.358 . S
C493 C494 1.385 . S
C493 H516 0.930 . S
C494 C493 1.385 . S
C494 C495 1.395 . S
C494 H517 0.929 . S
C495 C494 1.395 . S
C495 C496 1.335 . S
C496 C495 1.335 . S
C496 C497 1.398 . S
C496 H518 0.930 . S
C497 C492 1.382 . S
C497 C496 1.398 . S
C497 H519 0.929 . S
C498 O508 1.271 . S
C498 O509 1.251 . S
C499 O510 1.252 . S
C499 O511 1.272 . S
O500 Sm480 2.543 . S
O500 C482 1.261 . S
O501 Sm480 2.450 . S
O501 C482 1.242 . S
O502 Sm480 2.681 . S
O502 Sm481 2.386 . S
O502 C489 1.271 . S
O503 Sm480 2.464 . S
O503 C489 1.251 . S
O504 Sm480 2.396 . S
O504 C490 1.252 . S
O505 Sm481 2.408 . S
O505 C490 1.272 . S
O506 Sm481 2.543 . S
O506 C491 1.261 . S
O507 Sm481 2.450 . S
O507 C491 1.242 . S
O508 Sm480 2.386 . S
O508 Sm481 2.681 . S
O508 C498 1.271 . S
O509 Sm481 2.464 . S
O509 C498 1.251 . S
O510 Sm481 2.396 . S
O510 C499 1.252 . S
O511 Sm480 2.408 . S
O511 C499 1.272 . S
H512 C484 0.930 . S
H513 C485 0.929 . S
H514 C487 0.930 . S
H515 C488 0.929 . S
H516 C493 0.930 . S
H517 C494 0.929 . S
H518 C496 0.930 . S
H519 C497 0.929 . S
Sm520 C522 2.846 . S
Sm520 O540 2.543 . S
Sm520 O541 2.450 . S
Sm520 O542 2.681 . S
Sm520 O543 2.464 . S
Sm520 O544 2.396 . S
Sm520 O548 2.386 . S
Sm520 O551 2.408 . S
Sm521 C531 2.846 . S
Sm521 O542 2.386 . S
Sm521 O545 2.408 . S
Sm521 O546 2.543 . S
Sm521 O547 2.450 . S
Sm521 O548 2.681 . S
Sm521 O549 2.464 1_545 S
Sm521 O550 2.396 . S
C522 Sm520 2.846 . S
C522 C523 1.506 . S
C522 O540 1.261 . S
C522 O541 1.242 . S
C523 C522 1.506 . S
C523 C524 1.358 . S
C523 C528 1.382 . S
C524 C523 1.358 . S
C524 C525 1.385 . S
C524 H552 0.930 1_545 S
C525 C524 1.385 . S
C525 C526 1.395 . S
C525 H553 0.929 1_545 S
C526 C525 1.395 . S
C526 C527 1.335 . S
C527 C526 1.335 . S
C527 C528 1.398 . S
C527 H554 0.930 . S
C528 C523 1.382 . S
C528 C527 1.398 . S
C528 H555 0.929 . S
C529 O542 1.271 . S
C529 O543 1.251 . S
C530 O544 1.252 . S
C530 O545 1.272 . S
C531 Sm521 2.846 . S
C531 C532 1.506 . S
C531 O546 1.261 . S
C531 O547 1.242 . S
C532 C531 1.506 . S
C532 C533 1.358 . S
C532 C537 1.382 . S
C533 C532 1.358 . S
C533 C534 1.385 . S
C533 H556 0.930 . S
C534 C533 1.385 . S
C534 C535 1.395 . S
C534 H557 0.929 . S
C535 C534 1.395 . S
C535 C536 1.335 . S
C536 C535 1.335 . S
C536 C537 1.398 . S
C536 H558 0.930 . S
C537 C532 1.382 . S
C537 C536 1.398 . S
C537 H559 0.929 . S
C538 O548 1.271 1_565 S
C538 O549 1.251 . S
C539 O550 1.252 . S
C539 O551 1.272 . S
O540 Sm520 2.543 . S
O540 C522 1.261 . S
O541 Sm520 2.450 . S
O541 C522 1.242 . S
O542 Sm520 2.681 . S
O542 Sm521 2.386 . S
O542 C529 1.271 . S
O543 Sm520 2.464 . S
O543 C529 1.251 . S
O544 Sm520 2.396 . S
O544 C530 1.252 . S
O545 Sm521 2.408 . S
O545 C530 1.272 . S
O546 Sm521 2.543 . S
O546 C531 1.261 . S
O547 Sm521 2.450 . S
O547 C531 1.242 . S
O548 Sm520 2.386 . S
O548 Sm521 2.681 . S
O548 C538 1.271 1_545 S
O549 Sm521 2.464 1_565 S
O549 C538 1.251 . S
O550 Sm521 2.396 . S
O550 C539 1.252 . S
O551 Sm520 2.408 . S
O551 C539 1.272 . S
H552 C524 0.930 1_565 S
H553 C525 0.929 1_565 S
H554 C527 0.930 . S
H555 C528 0.929 . S
H556 C533 0.930 . S
H557 C534 0.929 . S
H558 C536 0.930 . S
H559 C537 0.929 . S
Sm560 C562 2.846 . S
Sm560 O580 2.543 . S
Sm560 O581 2.450 . S
Sm560 O582 2.681 . S
Sm560 O583 2.464 . S
Sm560 O584 2.396 . S
Sm560 O588 2.386 . S
Sm560 O591 2.408 . S
Sm561 C571 2.846 . S
Sm561 O582 2.386 . S
Sm561 O585 2.408 . S
Sm561 O586 2.543 . S
Sm561 O587 2.450 . S
Sm561 O588 2.681 . S
Sm561 O589 2.464 . S
Sm561 O590 2.396 . S
C562 Sm560 2.846 . S
C562 C563 1.506 . S
C562 O580 1.261 . S
C562 O581 1.242 . S
C563 C562 1.506 . S
C563 C564 1.358 . S
C563 C568 1.382 . S
C564 C563 1.358 . S
C564 C565 1.385 . S
C564 H592 0.930 . S
C565 C564 1.385 . S
C565 C566 1.395 . S
C565 H593 0.929 . S
C566 C565 1.395 . S
C566 C567 1.335 . S
C567 C566 1.335 . S
C567 C568 1.398 . S
C567 H594 0.930 . S
C568 C563 1.382 . S
C568 C567 1.398 . S
C568 H595 0.929 . S
C569 O582 1.271 . S
C569 O583 1.251 . S
C570 O584 1.252 . S
C570 O585 1.272 . S
C571 Sm561 2.846 . S
C571 C572 1.506 . S
C571 O586 1.261 . S
C571 O587 1.242 . S
C572 C571 1.506 . S
C572 C573 1.358 . S
C572 C577 1.382 . S
C573 C572 1.358 . S
C573 C574 1.385 . S
C573 H596 0.930 . S
C574 C573 1.385 . S
C574 C575 1.395 . S
C574 H597 0.929 . S
C575 C574 1.395 . S
C575 C576 1.335 . S
C576 C575 1.335 . S
C576 C577 1.398 . S
C576 H598 0.930 . S
C577 C572 1.382 . S
C577 C576 1.398 . S
C577 H599 0.929 . S
C578 O588 1.271 . S
C578 O589 1.251 . S
C579 O590 1.252 . S
C579 O591 1.272 . S
O580 Sm560 2.543 . S
O580 C562 1.261 . S
O581 Sm560 2.450 . S
O581 C562 1.242 . S
O582 Sm560 2.681 . S
O582 Sm561 2.386 . S
O582 C569 1.271 . S
O583 Sm560 2.464 . S
O583 C569 1.251 . S
O584 Sm560 2.396 . S
O584 C570 1.252 . S
O585 Sm561 2.408 . S
O585 C570 1.272 . S
O586 Sm561 2.543 . S
O586 C571 1.261 . S
O587 Sm561 2.450 . S
O587 C571 1.242 . S
O588 Sm560 2.386 . S
O588 Sm561 2.681 . S
O588 C578 1.271 . S
O589 Sm561 2.464 . S
O589 C578 1.251 . S
O590 Sm561 2.396 . S
O590 C579 1.252 . S
O591 Sm560 2.408 . S
O591 C579 1.272 . S
H592 C564 0.930 . S
H593 C565 0.929 . S
H594 C567 0.930 . S
H595 C568 0.929 . S
H596 C573 0.930 . S
H597 C574 0.929 . S
H598 C576 0.930 . S
H599 C577 0.929 . S
Sm600 C602 2.846 . S
Sm600 O620 2.543 . S
Sm600 O621 2.450 . S
Sm600 O622 2.681 . S
Sm600 O623 2.464 . S
Sm600 O624 2.396 . S
Sm600 O628 2.386 . S
Sm600 O631 2.408 . S
Sm601 C611 2.841 1_655 S
Sm601 O622 2.390 . S
Sm601 O625 2.409 . S
Sm601 O626 2.538 1_655 S
Sm601 O627 2.445 1_655 S
Sm601 O628 2.690 . S
Sm601 O629 2.469 1_565 S
Sm601 O630 2.402 . S
C602 Sm600 2.846 . S
C602 C603 1.506 . S
C602 O620 1.261 . S
C602 O621 1.242 . S
C603 C602 1.506 . S
C603 C604 1.358 . S
C603 C608 1.382 . S
C604 C603 1.358 . S
C604 C605 1.385 . S
C604 H632 0.930 1_565 S
C605 C604 1.385 . S
C605 C606 1.395 . S
C605 H633 0.929 1_565 S
C606 C605 1.395 . S
C606 C607 1.335 . S
C607 C606 1.335 . S
C607 C608 1.398 . S
C607 H634 0.930 . S
C608 C603 1.382 . S
C608 C607 1.398 . S
C608 H635 0.929 . S
C609 O622 1.271 . S
C609 O623 1.251 . S
C610 O624 1.252 . S
C610 O625 1.272 . S
C611 Sm601 2.841 1_455 S
C611 C612 1.506 . S
C611 O626 1.261 . S
C611 O627 1.242 . S
C612 C611 1.506 . S
C612 C613 1.358 . S
C612 C617 1.382 . S
C613 C612 1.358 . S
C613 C614 1.385 . S
C613 H636 0.930 . S
C614 C613 1.385 . S
C614 C615 1.395 . S
C614 H637 0.929 . S
C615 C614 1.395 . S
C615 C616 1.335 . S
C616 C615 1.335 . S
C616 C617 1.398 . S
C616 H638 0.930 . S
C617 C612 1.382 . S
C617 C616 1.398 . S
C617 H639 0.929 . S
C618 O628 1.271 1_545 S
C618 O629 1.251 . S
C619 O630 1.252 . S
C619 O631 1.272 . S
O620 Sm600 2.543 . S
O620 C602 1.261 . S
O621 Sm600 2.450 . S
O621 C602 1.242 . S
O622 Sm600 2.681 . S
O622 Sm601 2.390 . S
O622 C609 1.271 . S
O623 Sm600 2.464 . S
O623 C609 1.251 . S
O624 Sm600 2.396 . S
O624 C610 1.252 . S
O625 Sm601 2.409 . S
O625 C610 1.272 . S
O626 Sm601 2.538 1_455 S
O626 C611 1.261 . S
O627 Sm601 2.445 1_455 S
O627 C611 1.242 . S
O628 Sm600 2.386 . S
O628 Sm601 2.690 . S
O628 C618 1.271 1_565 S
O629 Sm601 2.469 1_545 S
O629 C618 1.251 . S
O630 Sm601 2.402 . S
O630 C619 1.252 . S
O631 Sm600 2.408 . S
O631 C619 1.272 . S
H632 C604 0.930 1_545 S
H633 C605 0.929 1_545 S
H634 C607 0.930 . S
H635 C608 0.929 . S
H636 C613 0.930 . S
H637 C614 0.929 . S
H638 C616 0.930 . S
H639 C617 0.929 . S
Sm640 C642 2.846 . S
Sm640 O660 2.543 . S
Sm640 O661 2.450 . S
Sm640 O662 2.681 . S
Sm640 O663 2.464 . S
Sm640 O664 2.396 . S
Sm640 O668 2.386 . S
Sm640 O671 2.408 . S
Sm641 C651 2.846 . S
Sm641 O662 2.386 . S
Sm641 O665 2.408 . S
Sm641 O666 2.543 . S
Sm641 O667 2.450 . S
Sm641 O668 2.681 . S
Sm641 O669 2.464 . S
Sm641 O670 2.396 . S
C642 Sm640 2.846 . S
C642 C643 1.506 . S
C642 O660 1.261 . S
C642 O661 1.242 . S
C643 C642 1.506 . S
C643 C644 1.358 . S
C643 C648 1.382 . S
C644 C643 1.358 . S
C644 C645 1.385 . S
C644 H672 0.930 . S
C645 C644 1.385 . S
C645 C646 1.395 . S
C645 H673 0.929 . S
C646 C645 1.395 . S
C646 C647 1.335 . S
C647 C646 1.335 . S
C647 C648 1.398 . S
C647 H674 0.930 . S
C648 C643 1.382 . S
C648 C647 1.398 . S
C648 H675 0.929 . S
C649 O662 1.271 . S
C649 O663 1.251 . S
C650 O664 1.252 . S
C650 O665 1.272 . S
C651 Sm641 2.846 . S
C651 C652 1.506 . S
C651 O666 1.261 . S
C651 O667 1.242 . S
C652 C651 1.506 . S
C652 C653 1.358 . S
C652 C657 1.382 . S
C653 C652 1.358 . S
C653 C654 1.385 . S
C653 H676 0.930 . S
C654 C653 1.385 . S
C654 C655 1.395 . S
C654 H677 0.929 . S
C655 C654 1.395 . S
C655 C656 1.335 . S
C656 C655 1.335 . S
C656 C657 1.398 . S
C656 H678 0.930 . S
C657 C652 1.382 . S
C657 C656 1.398 . S
C657 H679 0.929 . S
C658 O668 1.271 . S
C658 O669 1.251 . S
C659 O670 1.252 . S
C659 O671 1.272 . S
O660 Sm640 2.543 . S
O660 C642 1.261 . S
O661 Sm640 2.450 . S
O661 C642 1.242 . S
O662 Sm640 2.681 . S
O662 Sm641 2.386 . S
O662 C649 1.271 . S
O663 Sm640 2.464 . S
O663 C649 1.251 . S
O664 Sm640 2.396 . S
O664 C650 1.252 . S
O665 Sm641 2.408 . S
O665 C650 1.272 . S
O666 Sm641 2.543 . S
O666 C651 1.261 . S
O667 Sm641 2.450 . S
O667 C651 1.242 . S
O668 Sm640 2.386 . S
O668 Sm641 2.681 . S
O668 C658 1.271 . S
O669 Sm641 2.464 . S
O669 C658 1.251 . S
O670 Sm641 2.396 . S
O670 C659 1.252 . S
O671 Sm640 2.408 . S
O671 C659 1.272 . S
H672 C644 0.930 . S
H673 C645 0.929 . S
H674 C647 0.930 . S
H675 C648 0.929 . S
H676 C653 0.930 . S
H677 C654 0.929 . S
H678 C656 0.930 . S
H679 C657 0.929 . S
Sm680 C682 2.846 . S
Sm680 O700 2.543 . S
Sm680 O701 2.450 . S
Sm680 O702 2.681 . S
Sm680 O703 2.464 . S
Sm680 O704 2.396 . S
Sm680 O708 2.386 . S
Sm680 O711 2.408 . S
Sm681 C691 2.846 . S
Sm681 O702 2.386 . S
Sm681 O705 2.408 . S
Sm681 O706 2.543 . S
Sm681 O707 2.450 . S
Sm681 O708 2.681 . S
Sm681 O709 2.464 . S
Sm681 O710 2.396 . S
C682 Sm680 2.846 . S
C682 C683 1.506 . S
C682 O700 1.261 . S
C682 O701 1.242 . S
C683 C682 1.506 . S
C683 C684 1.358 . S
C683 C688 1.382 . S
C684 C683 1.358 . S
C684 C685 1.385 . S
C684 H712 0.930 . S
C685 C684 1.385 . S
C685 C686 1.395 . S
C685 H713 0.929 . S
C686 C685 1.395 . S
C686 C687 1.335 . S
C687 C686 1.335 . S
C687 C688 1.398 . S
C687 H714 0.930 . S
C688 C683 1.382 . S
C688 C687 1.398 . S
C688 H715 0.929 . S
C689 O702 1.271 . S
C689 O703 1.251 . S
C690 O704 1.252 . S
C690 O705 1.272 . S
C691 Sm681 2.846 . S
C691 C692 1.506 . S
C691 O706 1.261 . S
C691 O707 1.242 . S
C692 C691 1.506 . S
C692 C693 1.358 . S
C692 C697 1.382 . S
C693 C692 1.358 . S
C693 C694 1.385 . S
C693 H716 0.930 . S
C694 C693 1.385 . S
C694 C695 1.395 . S
C694 H717 0.929 . S
C695 C694 1.395 . S
C695 C696 1.335 . S
C696 C695 1.335 . S
C696 C697 1.398 . S
C696 H718 0.930 . S
C697 C692 1.382 . S
C697 C696 1.398 . S
C697 H719 0.929 . S
C698 O708 1.271 . S
C698 O709 1.251 . S
C699 O710 1.252 . S
C699 O711 1.272 . S
O700 Sm680 2.543 . S
O700 C682 1.261 . S
O701 Sm680 2.450 . S
O701 C682 1.242 . S
O702 Sm680 2.681 . S
O702 Sm681 2.386 . S
O702 C689 1.271 . S
O703 Sm680 2.464 . S
O703 C689 1.251 . S
O704 Sm680 2.396 . S
O704 C690 1.252 . S
O705 Sm681 2.408 . S
O705 C690 1.272 . S
O706 Sm681 2.543 . S
O706 C691 1.261 . S
O707 Sm681 2.450 . S
O707 C691 1.242 . S
O708 Sm680 2.386 . S
O708 Sm681 2.681 . S
O708 C698 1.271 . S
O709 Sm681 2.464 . S
O709 C698 1.251 . S
O710 Sm681 2.396 . S
O710 C699 1.252 . S
O711 Sm680 2.408 . S
O711 C699 1.272 . S
H712 C684 0.930 . S
H713 C685 0.929 . S
H714 C687 0.930 . S
H715 C688 0.929 . S
H716 C693 0.930 . S
H717 C694 0.929 . S
H718 C696 0.930 . S
H719 C697 0.929 . S
Sm720 C722 2.846 . S
Sm720 O740 2.543 . S
Sm720 O741 2.450 . S
Sm720 O742 2.681 . S
Sm720 O743 2.464 . S
Sm720 O744 2.396 . S
Sm720 O748 2.386 . S
Sm720 O751 2.408 . S
Sm721 C731 2.846 . S
Sm721 O742 2.386 . S
Sm721 O745 2.408 . S
Sm721 O746 2.543 . S
Sm721 O747 2.450 . S
Sm721 O748 2.681 . S
Sm721 O749 2.464 . S
Sm721 O750 2.396 . S
C722 Sm720 2.846 . S
C722 C723 1.506 . S
C722 O740 1.261 . S
C722 O741 1.242 . S
C723 C722 1.506 . S
C723 C724 1.358 . S
C723 C728 1.382 . S
C724 C723 1.358 . S
C724 C725 1.385 . S
C724 H752 0.930 . S
C725 C724 1.385 . S
C725 C726 1.395 . S
C725 H753 0.929 . S
C726 C725 1.395 . S
C726 C727 1.335 . S
C727 C726 1.335 . S
C727 C728 1.398 . S
C727 H754 0.930 . S
C728 C723 1.382 . S
C728 C727 1.398 . S
C728 H755 0.929 . S
C729 O742 1.271 . S
C729 O743 1.251 . S
C730 O744 1.252 . S
C730 O745 1.272 . S
C731 Sm721 2.846 . S
C731 C732 1.506 . S
C731 O746 1.261 . S
C731 O747 1.242 . S
C732 C731 1.506 . S
C732 C733 1.358 . S
C732 C737 1.382 . S
C733 C732 1.358 . S
C733 C734 1.385 . S
C733 H756 0.930 . S
C734 C733 1.385 . S
C734 C735 1.395 . S
C734 H757 0.929 . S
C735 C734 1.395 . S
C735 C736 1.335 . S
C736 C735 1.335 . S
C736 C737 1.398 . S
C736 H758 0.930 . S
C737 C732 1.382 . S
C737 C736 1.398 . S
C737 H759 0.929 . S
C738 O748 1.271 . S
C738 O749 1.251 . S
C739 O750 1.252 . S
C739 O751 1.272 . S
O740 Sm720 2.543 . S
O740 C722 1.261 . S
O741 Sm720 2.450 . S
O741 C722 1.242 . S
O742 Sm720 2.681 . S
O742 Sm721 2.386 . S
O742 C729 1.271 . S
O743 Sm720 2.464 . S
O743 C729 1.251 . S
O744 Sm720 2.396 . S
O744 C730 1.252 . S
O745 Sm721 2.408 . S
O745 C730 1.272 . S
O746 Sm721 2.543 . S
O746 C731 1.261 . S
O747 Sm721 2.450 . S
O747 C731 1.242 . S
O748 Sm720 2.386 . S
O748 Sm721 2.681 . S
O748 C738 1.271 . S
O749 Sm721 2.464 . S
O749 C738 1.251 . S
O750 Sm721 2.396 . S
O750 C739 1.252 . S
O751 Sm720 2.408 . S
O751 C739 1.272 . S
H752 C724 0.930 . S
H753 C725 0.929 . S
H754 C727 0.930 . S
H755 C728 0.929 . S
H756 C733 0.930 . S
H757 C734 0.929 . S
H758 C736 0.930 . S
H759 C737 0.929 . S
Sm760 C762 2.841 1_655 S
Sm760 O780 2.538 1_655 S
Sm760 O781 2.445 1_655 S
Sm760 O782 2.690 . S
Sm760 O783 2.469 . S
Sm760 O784 2.402 . S
Sm760 O788 2.390 . S
Sm760 O791 2.409 . S
Sm761 C771 2.846 . S
Sm761 O782 2.386 . S
Sm761 O785 2.408 . S
Sm761 O786 2.543 . S
Sm761 O787 2.450 . S
Sm761 O788 2.681 . S
Sm761 O789 2.464 . S
Sm761 O790 2.396 . S
C762 Sm760 2.841 1_455 S
C762 C763 1.506 . S
C762 O780 1.261 . S
C762 O781 1.242 . S
C763 C762 1.506 . S
C763 C764 1.358 . S
C763 C768 1.382 . S
C764 C763 1.358 . S
C764 C765 1.385 . S
C764 H792 0.930 . S
C765 C764 1.385 . S
C765 C766 1.395 . S
C765 H793 0.929 . S
C766 C765 1.395 . S
C766 C767 1.335 . S
C767 C766 1.335 . S
C767 C768 1.398 . S
C767 H794 0.930 . S
C768 C763 1.382 . S
C768 C767 1.398 . S
C768 H795 0.929 . S
C769 O782 1.271 . S
C769 O783 1.251 . S
C770 O784 1.252 . S
C770 O785 1.272 . S
C771 Sm761 2.846 . S
C771 C772 1.506 . S
C771 O786 1.261 . S
C771 O787 1.242 . S
C772 C771 1.506 . S
C772 C773 1.358 . S
C772 C777 1.382 . S
C773 C772 1.358 . S
C773 C774 1.385 . S
C773 H796 0.930 . S
C774 C773 1.385 . S
C774 C775 1.395 . S
C774 H797 0.929 . S
C775 C774 1.395 . S
C775 C776 1.335 . S
C776 C775 1.335 . S
C776 C777 1.398 . S
C776 H798 0.930 . S
C777 C772 1.382 . S
C777 C776 1.398 . S
C777 H799 0.929 . S
C778 O788 1.271 . S
C778 O789 1.251 . S
C779 O790 1.252 . S
C779 O791 1.272 . S
O780 Sm760 2.538 1_455 S
O780 C762 1.261 . S
O781 Sm760 2.445 1_455 S
O781 C762 1.242 . S
O782 Sm760 2.690 . S
O782 Sm761 2.386 . S
O782 C769 1.271 . S
O783 Sm760 2.469 . S
O783 C769 1.251 . S
O784 Sm760 2.402 . S
O784 C770 1.252 . S
O785 Sm761 2.408 . S
O785 C770 1.272 . S
O786 Sm761 2.543 . S
O786 C771 1.261 . S
O787 Sm761 2.450 . S
O787 C771 1.242 . S
O788 Sm760 2.390 . S
O788 Sm761 2.681 . S
O788 C778 1.271 . S
O789 Sm761 2.464 . S
O789 C778 1.251 . S
O790 Sm761 2.396 . S
O790 C779 1.252 . S
O791 Sm760 2.409 . S
O791 C779 1.272 . S
H792 C764 0.930 . S
H793 C765 0.929 . S
H794 C767 0.930 . S
H795 C768 0.929 . S
H796 C773 0.930 . S
H797 C774 0.929 . S
H798 C776 0.930 . S
H799 C777 0.929 . S
Sm800 C802 2.846 . S
Sm800 O820 2.543 . S
Sm800 O821 2.450 . S
Sm800 O822 2.681 . S
Sm800 O823 2.464 . S
Sm800 O824 2.396 . S
Sm800 O828 2.386 . S
Sm800 O831 2.408 . S
Sm801 C811 2.846 . S
Sm801 O822 2.386 . S
Sm801 O825 2.408 . S
Sm801 O826 2.543 . S
Sm801 O827 2.450 . S
Sm801 O828 2.681 . S
Sm801 O829 2.464 . S
Sm801 O830 2.396 . S
C802 Sm800 2.846 . S
C802 C803 1.506 . S
C802 O820 1.261 . S
C802 O821 1.242 . S
C803 C802 1.506 . S
C803 C804 1.358 . S
C803 C808 1.382 . S
C804 C803 1.358 . S
C804 C805 1.385 . S
C804 H832 0.930 . S
C805 C804 1.385 . S
C805 C806 1.395 . S
C805 H833 0.929 . S
C806 C805 1.395 . S
C806 C807 1.335 . S
C807 C806 1.335 . S
C807 C808 1.398 . S
C807 H834 0.930 . S
C808 C803 1.382 . S
C808 C807 1.398 . S
C808 H835 0.929 . S
C809 O822 1.271 . S
C809 O823 1.251 . S
C810 O824 1.252 . S
C810 O825 1.272 . S
C811 Sm801 2.846 . S
C811 C812 1.506 . S
C811 O826 1.261 . S
C811 O827 1.242 . S
C812 C811 1.506 . S
C812 C813 1.358 . S
C812 C817 1.382 . S
C813 C812 1.358 . S
C813 C814 1.385 . S
C813 H836 0.930 . S
C814 C813 1.385 . S
C814 C815 1.395 . S
C814 H837 0.929 . S
C815 C814 1.395 . S
C815 C816 1.335 . S
C816 C815 1.335 . S
C816 C817 1.398 . S
C816 H838 0.930 . S
C817 C812 1.382 . S
C817 C816 1.398 . S
C817 H839 0.929 . S
C818 O828 1.271 . S
C818 O829 1.251 . S
C819 O830 1.252 . S
C819 O831 1.272 . S
O820 Sm800 2.543 . S
O820 C802 1.261 . S
O821 Sm800 2.450 . S
O821 C802 1.242 . S
O822 Sm800 2.681 . S
O822 Sm801 2.386 . S
O822 C809 1.271 . S
O823 Sm800 2.464 . S
O823 C809 1.251 . S
O824 Sm800 2.396 . S
O824 C810 1.252 . S
O825 Sm801 2.408 . S
O825 C810 1.272 . S
O826 Sm801 2.543 . S
O826 C811 1.261 . S
O827 Sm801 2.450 . S
O827 C811 1.242 . S
O828 Sm800 2.386 . S
O828 Sm801 2.681 . S
O828 C818 1.271 . S
O829 Sm801 2.464 . S
O829 C818 1.251 . S
O830 Sm801 2.396 . S
O830 C819 1.252 . S
O831 Sm800 2.408 . S
O831 C819 1.272 . S
H832 C804 0.930 . S
H833 C805 0.929 . S
H834 C807 0.930 . S
H835 C808 0.929 . S
H836 C813 0.930 . S
H837 C814 0.929 . S
H838 C816 0.930 . S
H839 C817 0.929 . S
Sm840 C842 2.841 1_655 S
Sm840 O860 2.538 1_655 S
Sm840 O861 2.445 1_655 S
Sm840 O862 2.690 . S
Sm840 O863 2.469 . S
Sm840 O864 2.402 . S
Sm840 O868 2.390 . S
Sm840 O871 2.409 . S
Sm841 C851 2.846 . S
Sm841 O862 2.386 . S
Sm841 O865 2.408 . S
Sm841 O866 2.543 . S
Sm841 O867 2.450 . S
Sm841 O868 2.681 . S
Sm841 O869 2.464 . S
Sm841 O870 2.396 . S
C842 Sm840 2.841 1_455 S
C842 C843 1.506 . S
C842 O860 1.261 . S
C842 O861 1.242 . S
C843 C842 1.506 . S
C843 C844 1.358 . S
C843 C848 1.382 . S
C844 C843 1.358 . S
C844 C845 1.385 . S
C844 H872 0.930 . S
C845 C844 1.385 . S
C845 C846 1.395 . S
C845 H873 0.929 . S
C846 C845 1.395 . S
C846 C847 1.335 . S
C847 C846 1.335 . S
C847 C848 1.398 . S
C847 H874 0.930 . S
C848 C843 1.382 . S
C848 C847 1.398 . S
C848 H875 0.929 . S
C849 O862 1.271 . S
C849 O863 1.251 . S
C850 O864 1.252 . S
C850 O865 1.272 . S
C851 Sm841 2.846 . S
C851 C852 1.506 . S
C851 O866 1.261 . S
C851 O867 1.242 . S
C852 C851 1.506 . S
C852 C853 1.358 . S
C852 C857 1.382 . S
C853 C852 1.358 . S
C853 C854 1.385 . S
C853 H876 0.930 . S
C854 C853 1.385 . S
C854 C855 1.395 . S
C854 H877 0.929 . S
C855 C854 1.395 . S
C855 C856 1.335 . S
C856 C855 1.335 . S
C856 C857 1.398 . S
C856 H878 0.930 . S
C857 C852 1.382 . S
C857 C856 1.398 . S
C857 H879 0.929 . S
C858 O868 1.271 . S
C858 O869 1.251 . S
C859 O870 1.252 . S
C859 O871 1.272 . S
O860 Sm840 2.538 1_455 S
O860 C842 1.261 . S
O861 Sm840 2.445 1_455 S
O861 C842 1.242 . S
O862 Sm840 2.690 . S
O862 Sm841 2.386 . S
O862 C849 1.271 . S
O863 Sm840 2.469 . S
O863 C849 1.251 . S
O864 Sm840 2.402 . S
O864 C850 1.252 . S
O865 Sm841 2.408 . S
O865 C850 1.272 . S
O866 Sm841 2.543 . S
O866 C851 1.261 . S
O867 Sm841 2.450 . S
O867 C851 1.242 . S
O868 Sm840 2.390 . S
O868 Sm841 2.681 . S
O868 C858 1.271 . S
O869 Sm841 2.464 . S
O869 C858 1.251 . S
O870 Sm841 2.396 . S
O870 C859 1.252 . S
O871 Sm840 2.409 . S
O871 C859 1.272 . S
H872 C844 0.930 . S
H873 C845 0.929 . S
H874 C847 0.930 . S
H875 C848 0.929 . S
H876 C853 0.930 . S
H877 C854 0.929 . S
H878 C856 0.930 . S
H879 C857 0.929 . S
Sm880 C882 2.846 . S
Sm880 O900 2.543 . S
Sm880 O901 2.450 . S
Sm880 O902 2.681 . S
Sm880 O903 2.464 . S
Sm880 O904 2.396 . S
Sm880 O908 2.386 . S
Sm880 O911 2.408 . S
Sm881 C891 2.846 . S
Sm881 O902 2.386 . S
Sm881 O905 2.408 . S
Sm881 O906 2.543 . S
Sm881 O907 2.450 . S
Sm881 O908 2.681 . S
Sm881 O909 2.464 . S
Sm881 O910 2.396 . S
C882 Sm880 2.846 . S
C882 C883 1.506 . S
C882 O900 1.261 . S
C882 O901 1.242 . S
C883 C882 1.506 . S
C883 C884 1.358 . S
C883 C888 1.382 . S
C884 C883 1.358 . S
C884 C885 1.385 . S
C884 H912 0.930 . S
C885 C884 1.385 . S
C885 C886 1.395 . S
C885 H913 0.929 . S
C886 C885 1.395 . S
C886 C887 1.335 . S
C887 C886 1.335 . S
C887 C888 1.398 . S
C887 H914 0.930 . S
C888 C883 1.382 . S
C888 C887 1.398 . S
C888 H915 0.929 . S
C889 O902 1.271 . S
C889 O903 1.251 . S
C890 O904 1.252 . S
C890 O905 1.272 . S
C891 Sm881 2.846 . S
C891 C892 1.506 . S
C891 O906 1.261 . S
C891 O907 1.242 . S
C892 C891 1.506 . S
C892 C893 1.358 . S
C892 C897 1.382 . S
C893 C892 1.358 . S
C893 C894 1.385 . S
C893 H916 0.930 . S
C894 C893 1.385 . S
C894 C895 1.395 . S
C894 H917 0.929 . S
C895 C894 1.395 . S
C895 C896 1.335 . S
C896 C895 1.335 . S
C896 C897 1.398 . S
C896 H918 0.930 . S
C897 C892 1.382 . S
C897 C896 1.398 . S
C897 H919 0.929 . S
C898 O908 1.271 . S
C898 O909 1.251 . S
C899 O910 1.252 . S
C899 O911 1.272 . S
O900 Sm880 2.543 . S
O900 C882 1.261 . S
O901 Sm880 2.450 . S
O901 C882 1.242 . S
O902 Sm880 2.681 . S
O902 Sm881 2.386 . S
O902 C889 1.271 . S
O903 Sm880 2.464 . S
O903 C889 1.251 . S
O904 Sm880 2.396 . S
O904 C890 1.252 . S
O905 Sm881 2.408 . S
O905 C890 1.272 . S
O906 Sm881 2.543 . S
O906 C891 1.261 . S
O907 Sm881 2.450 . S
O907 C891 1.242 . S
O908 Sm880 2.386 . S
O908 Sm881 2.681 . S
O908 C898 1.271 . S
O909 Sm881 2.464 . S
O909 C898 1.251 . S
O910 Sm881 2.396 . S
O910 C899 1.252 . S
O911 Sm880 2.408 . S
O911 C899 1.272 . S
H912 C884 0.930 . S
H913 C885 0.929 . S
H914 C887 0.930 . S
H915 C888 0.929 . S
H916 C893 0.930 . S
H917 C894 0.929 . S
H918 C896 0.930 . S
H919 C897 0.929 . S
Sm920 C922 2.846 . S
Sm920 O940 2.543 . S
Sm920 O941 2.450 . S
Sm920 O942 2.681 . S
Sm920 O943 2.464 . S
Sm920 O944 2.396 . S
Sm920 O948 2.386 . S
Sm920 O951 2.408 . S
Sm921 C931 2.846 . S
Sm921 O942 2.386 . S
Sm921 O945 2.408 . S
Sm921 O946 2.543 . S
Sm921 O947 2.450 . S
Sm921 O948 2.681 . S
Sm921 O949 2.464 . S
Sm921 O950 2.396 . S
C922 Sm920 2.846 . S
C922 C923 1.506 . S
C922 O940 1.261 . S
C922 O941 1.242 . S
C923 C922 1.506 . S
C923 C924 1.358 . S
C923 C928 1.382 . S
C924 C923 1.358 . S
C924 C925 1.385 . S
C924 H952 0.930 . S
C925 C924 1.385 . S
C925 C926 1.395 . S
C925 H953 0.929 . S
C926 C925 1.395 . S
C926 C927 1.335 . S
C927 C926 1.335 . S
C927 C928 1.398 . S
C927 H954 0.930 . S
C928 C923 1.382 . S
C928 C927 1.398 . S
C928 H955 0.929 . S
C929 O942 1.271 . S
C929 O943 1.251 . S
C930 O944 1.252 . S
C930 O945 1.272 . S
C931 Sm921 2.846 . S
C931 C932 1.506 . S
C931 O946 1.261 . S
C931 O947 1.242 . S
C932 C931 1.506 . S
C932 C933 1.358 . S
C932 C937 1.382 . S
C933 C932 1.358 . S
C933 C934 1.385 . S
C933 H956 0.930 . S
C934 C933 1.385 . S
C934 C935 1.395 . S
C934 H957 0.929 . S
C935 C934 1.395 . S
C935 C936 1.335 . S
C936 C935 1.335 . S
C936 C937 1.398 . S
C936 H958 0.930 . S
C937 C932 1.382 . S
C937 C936 1.398 . S
C937 H959 0.929 . S
C938 O948 1.271 . S
C938 O949 1.251 . S
C939 O950 1.252 . S
C939 O951 1.272 . S
O940 Sm920 2.543 . S
O940 C922 1.261 . S
O941 Sm920 2.450 . S
O941 C922 1.242 . S
O942 Sm920 2.681 . S
O942 Sm921 2.386 . S
O942 C929 1.271 . S
O943 Sm920 2.464 . S
O943 C929 1.251 . S
O944 Sm920 2.396 . S
O944 C930 1.252 . S
O945 Sm921 2.408 . S
O945 C930 1.272 . S
O946 Sm921 2.543 . S
O946 C931 1.261 . S
O947 Sm921 2.450 . S
O947 C931 1.242 . S
O948 Sm920 2.386 . S
O948 Sm921 2.681 . S
O948 C938 1.271 . S
O949 Sm921 2.464 . S
O949 C938 1.251 . S
O950 Sm921 2.396 . S
O950 C939 1.252 . S
O951 Sm920 2.408 . S
O951 C939 1.272 . S
H952 C924 0.930 . S
H953 C925 0.929 . S
H954 C927 0.930 . S
H955 C928 0.929 . S
H956 C933 0.930 . S
H957 C934 0.929 . S
H958 C936 0.930 . S
H959 C937 0.929 . S
Sm960 C962 2.846 . S
Sm960 O980 2.543 . S
Sm960 O981 2.450 . S
Sm960 O982 2.681 . S
Sm960 O983 2.464 . S
Sm960 O984 2.396 . S
Sm960 O988 2.386 . S
Sm960 O991 2.408 . S
Sm961 C971 2.846 . S
Sm961 O982 2.386 . S
Sm961 O985 2.408 . S
Sm961 O986 2.543 . S
Sm961 O987 2.450 . S
Sm961 O988 2.681 . S
Sm961 O989 2.464 . S
Sm961 O990 2.396 . S
C962 Sm960 2.846 . S
C962 C963 1.506 . S
C962 O980 1.261 . S
C962 O981 1.242 . S
C963 C962 1.506 . S
C963 C964 1.358 . S
C963 C968 1.382 . S
C964 C963 1.358 . S
C964 C965 1.385 . S
C964 H992 0.930 . S
C965 C964 1.385 . S
C965 C966 1.395 . S
C965 H993 0.929 . S
C966 C965 1.395 . S
C966 C967 1.335 . S
C967 C966 1.335 . S
C967 C968 1.398 . S
C967 H994 0.930 . S
C968 C963 1.382 . S
C968 C967 1.398 . S
C968 H995 0.929 . S
C969 O982 1.271 . S
C969 O983 1.251 . S
C970 O984 1.252 . S
C970 O985 1.272 . S
C971 Sm961 2.846 . S
C971 C972 1.506 . S
C971 O986 1.261 . S
C971 O987 1.242 . S
C972 C971 1.506 . S
C972 C973 1.358 . S
C972 C977 1.382 . S
C973 C972 1.358 . S
C973 C974 1.385 . S
C973 H996 0.930 . S
C974 C973 1.385 . S
C974 C975 1.395 . S
C974 H997 0.929 . S
C975 C974 1.395 . S
C975 C976 1.335 . S
C976 C975 1.335 . S
C976 C977 1.398 . S
C976 H998 0.930 . S
C977 C972 1.382 . S
C977 C976 1.398 . S
C977 H999 0.929 . S
C978 O988 1.271 . S
C978 O989 1.251 . S
C979 O990 1.252 . S
C979 O991 1.272 . S
O980 Sm960 2.543 . S
O980 C962 1.261 . S
O981 Sm960 2.450 . S
O981 C962 1.242 . S
O982 Sm960 2.681 . S
O982 Sm961 2.386 . S
O982 C969 1.271 . S
O983 Sm960 2.464 . S
O983 C969 1.251 . S
O984 Sm960 2.396 . S
O984 C970 1.252 . S
O985 Sm961 2.408 . S
O985 C970 1.272 . S
O986 Sm961 2.543 . S
O986 C971 1.261 . S
O987 Sm961 2.450 . S
O987 C971 1.242 . S
O988 Sm960 2.386 . S
O988 Sm961 2.681 . S
O988 C978 1.271 . S
O989 Sm961 2.464 . S
O989 C978 1.251 . S
O990 Sm961 2.396 . S
O990 C979 1.252 . S
O991 Sm960 2.408 . S
O991 C979 1.272 . S
H992 C964 0.930 . S
H993 C965 0.929 . S
H994 C967 0.930 . S
H995 C968 0.929 . S
H996 C973 0.930 . S
H997 C974 0.929 . S
H998 C976 0.930 . S
H999 C977 0.929 . S
Sm1000 C1002 2.846 . S
Sm1000 O1020 2.543 . S
Sm1000 O1021 2.450 . S
Sm1000 O1022 2.681 . S
Sm1000 O1023 2.464 . S
Sm1000 O1024 2.396 . S
Sm1000 O1028 2.386 . S
Sm1000 O1031 2.408 . S
Sm1001 C1011 2.846 . S
Sm1001 O1022 2.386 . S
Sm1001 O1025 2.408 . S
Sm1001 O1026 2.543 . S
Sm1001 O1027 2.450 . S
Sm1001 O1028 2.681 . S
Sm1001 O1029 2.464 . S
Sm1001 O1030 2.396 . S
C1002 Sm1000 2.846 . S
C1002 C1003 1.506 . S
C1002 O1020 1.261 . S
C1002 O1021 1.242 . S
C1003 C1002 1.506 . S
C1003 C1004 1.358 . S
C1003 C1008 1.382 . S
C1004 C1003 1.358 . S
C1004 C1005 1.385 . S
C1004 H1032 0.930 . S
C1005 C1004 1.385 . S
C1005 C1006 1.395 . S
C1005 H1033 0.929 . S
C1006 C1005 1.395 . S
C1006 C1007 1.335 . S
C1007 C1006 1.335 . S
C1007 C1008 1.398 . S
C1007 H1034 0.930 . S
C1008 C1003 1.382 . S
C1008 C1007 1.398 . S
C1008 H1035 0.929 . S
C1009 O1022 1.271 . S
C1009 O1023 1.251 . S
C1010 O1024 1.252 . S
C1010 O1025 1.272 . S
C1011 Sm1001 2.846 . S
C1011 C1012 1.506 . S
C1011 O1026 1.261 . S
C1011 O1027 1.242 . S
C1012 C1011 1.506 . S
C1012 C1013 1.358 . S
C1012 C1017 1.382 . S
C1013 C1012 1.358 . S
C1013 C1014 1.385 . S
C1013 H1036 0.930 . S
C1014 C1013 1.385 . S
C1014 C1015 1.395 . S
C1014 H1037 0.929 . S
C1015 C1014 1.395 . S
C1015 C1016 1.335 . S
C1016 C1015 1.335 . S
C1016 C1017 1.398 . S
C1016 H1038 0.930 . S
C1017 C1012 1.382 . S
C1017 C1016 1.398 . S
C1017 H1039 0.929 . S
C1018 O1028 1.271 . S
C1018 O1029 1.251 . S
C1019 O1030 1.252 . S
C1019 O1031 1.272 . S
O1020 Sm1000 2.543 . S
O1020 C1002 1.261 . S
O1021 Sm1000 2.450 . S
O1021 C1002 1.242 . S
O1022 Sm1000 2.681 . S
O1022 Sm1001 2.386 . S
O1022 C1009 1.271 . S
O1023 Sm1000 2.464 . S
O1023 C1009 1.251 . S
O1024 Sm1000 2.396 . S
O1024 C1010 1.252 . S
O1025 Sm1001 2.408 . S
O1025 C1010 1.272 . S
O1026 Sm1001 2.543 . S
O1026 C1011 1.261 . S
O1027 Sm1001 2.450 . S
O1027 C1011 1.242 . S
O1028 Sm1000 2.386 . S
O1028 Sm1001 2.681 . S
O1028 C1018 1.271 . S
O1029 Sm1001 2.464 . S
O1029 C1018 1.251 . S
O1030 Sm1001 2.396 . S
O1030 C1019 1.252 . S
O1031 Sm1000 2.408 . S
O1031 C1019 1.272 . S
H1032 C1004 0.930 . S
H1033 C1005 0.929 . S
H1034 C1007 0.930 . S
H1035 C1008 0.929 . S
H1036 C1013 0.930 . S
H1037 C1014 0.929 . S
H1038 C1016 0.930 . S
H1039 C1017 0.929 . S
Sm1040 C1042 2.846 . S
Sm1040 O1060 2.543 . S
Sm1040 O1061 2.450 . S
Sm1040 O1062 2.681 . S
Sm1040 O1063 2.464 . S
Sm1040 O1064 2.396 . S
Sm1040 O1068 2.386 . S
Sm1040 O1071 2.408 . S
Sm1041 C1051 2.846 . S
Sm1041 O1062 2.386 . S
Sm1041 O1065 2.408 . S
Sm1041 O1066 2.543 . S
Sm1041 O1067 2.450 . S
Sm1041 O1068 2.681 . S
Sm1041 O1069 2.464 . S
Sm1041 O1070 2.396 . S
C1042 Sm1040 2.846 . S
C1042 C1043 1.506 . S
C1042 O1060 1.261 . S
C1042 O1061 1.242 . S
C1043 C1042 1.506 . S
C1043 C1044 1.358 . S
C1043 C1048 1.382 . S
C1044 C1043 1.358 . S
C1044 C1045 1.385 . S
C1044 H1072 0.930 . S
C1045 C1044 1.385 . S
C1045 C1046 1.395 . S
C1045 H1073 0.929 . S
C1046 C1045 1.395 . S
C1046 C1047 1.335 . S
C1047 C1046 1.335 . S
C1047 C1048 1.398 . S
C1047 H1074 0.930 . S
C1048 C1043 1.382 . S
C1048 C1047 1.398 . S
C1048 H1075 0.929 . S
C1049 O1062 1.271 . S
C1049 O1063 1.251 . S
C1050 O1064 1.252 . S
C1050 O1065 1.272 . S
C1051 Sm1041 2.846 . S
C1051 C1052 1.506 . S
C1051 O1066 1.261 . S
C1051 O1067 1.242 . S
C1052 C1051 1.506 . S
C1052 C1053 1.358 . S
C1052 C1057 1.382 . S
C1053 C1052 1.358 . S
C1053 C1054 1.385 . S
C1053 H1076 0.930 . S
C1054 C1053 1.385 . S
C1054 C1055 1.395 . S
C1054 H1077 0.929 . S
C1055 C1054 1.395 . S
C1055 C1056 1.335 . S
C1056 C1055 1.335 . S
C1056 C1057 1.398 . S
C1056 H1078 0.930 . S
C1057 C1052 1.382 . S
C1057 C1056 1.398 . S
C1057 H1079 0.929 . S
C1058 O1068 1.271 . S
C1058 O1069 1.251 . S
C1059 O1070 1.252 . S
C1059 O1071 1.272 . S
O1060 Sm1040 2.543 . S
O1060 C1042 1.261 . S
O1061 Sm1040 2.450 . S
O1061 C1042 1.242 . S
O1062 Sm1040 2.681 . S
O1062 Sm1041 2.386 . S
O1062 C1049 1.271 . S
O1063 Sm1040 2.464 . S
O1063 C1049 1.251 . S
O1064 Sm1040 2.396 . S
O1064 C1050 1.252 . S
O1065 Sm1041 2.408 . S
O1065 C1050 1.272 . S
O1066 Sm1041 2.543 . S
O1066 C1051 1.261 . S
O1067 Sm1041 2.450 . S
O1067 C1051 1.242 . S
O1068 Sm1040 2.386 . S
O1068 Sm1041 2.681 . S
O1068 C1058 1.271 . S
O1069 Sm1041 2.464 . S
O1069 C1058 1.251 . S
O1070 Sm1041 2.396 . S
O1070 C1059 1.252 . S
O1071 Sm1040 2.408 . S
O1071 C1059 1.272 . S
H1072 C1044 0.930 . S
H1073 C1045 0.929 . S
H1074 C1047 0.930 . S
H1075 C1048 0.929 . S
H1076 C1053 0.930 . S
H1077 C1054 0.929 . S
H1078 C1056 0.930 . S
H1079 C1057 0.929 . S
Sm1080 C1082 2.846 . S
Sm1080 O1100 2.543 . S
Sm1080 O1101 2.450 . S
Sm1080 O1102 2.681 . S
Sm1080 O1103 2.464 . S
Sm1080 O1104 2.396 . S
Sm1080 O1108 2.386 . S
Sm1080 O1111 2.408 . S
Sm1081 C1091 2.841 1_455 S
Sm1081 O1102 2.390 . S
Sm1081 O1105 2.409 . S
Sm1081 O1106 2.538 1_455 S
Sm1081 O1107 2.445 1_455 S
Sm1081 O1108 2.690 . S
Sm1081 O1109 2.469 . S
Sm1081 O1110 2.402 . S
C1082 Sm1080 2.846 . S
C1082 C1083 1.506 . S
C1082 O1100 1.261 . S
C1082 O1101 1.242 . S
C1083 C1082 1.506 . S
C1083 C1084 1.358 . S
C1083 C1088 1.382 . S
C1084 C1083 1.358 . S
C1084 C1085 1.385 . S
C1084 H1112 0.930 . S
C1085 C1084 1.385 . S
C1085 C1086 1.395 . S
C1085 H1113 0.929 . S
C1086 C1085 1.395 . S
C1086 C1087 1.335 . S
C1087 C1086 1.335 . S
C1087 C1088 1.398 . S
C1087 H1114 0.930 . S
C1088 C1083 1.382 . S
C1088 C1087 1.398 . S
C1088 H1115 0.929 . S
C1089 O1102 1.271 . S
C1089 O1103 1.251 . S
C1090 O1104 1.252 . S
C1090 O1105 1.272 . S
C1091 Sm1081 2.841 1_655 S
C1091 C1092 1.506 . S
C1091 O1106 1.261 . S
C1091 O1107 1.242 . S
C1092 C1091 1.506 . S
C1092 C1093 1.358 . S
C1092 C1097 1.382 . S
C1093 C1092 1.358 . S
C1093 C1094 1.385 . S
C1093 H1116 0.930 . S
C1094 C1093 1.385 . S
C1094 C1095 1.395 . S
C1094 H1117 0.929 . S
C1095 C1094 1.395 . S
C1095 C1096 1.335 . S
C1096 C1095 1.335 . S
C1096 C1097 1.398 . S
C1096 H1118 0.930 . S
C1097 C1092 1.382 . S
C1097 C1096 1.398 . S
C1097 H1119 0.929 . S
C1098 O1108 1.271 . S
C1098 O1109 1.251 . S
C1099 O1110 1.252 . S
C1099 O1111 1.272 . S
O1100 Sm1080 2.543 . S
O1100 C1082 1.261 . S
O1101 Sm1080 2.450 . S
O1101 C1082 1.242 . S
O1102 Sm1080 2.681 . S
O1102 Sm1081 2.390 . S
O1102 C1089 1.271 . S
O1103 Sm1080 2.464 . S
O1103 C1089 1.251 . S
O1104 Sm1080 2.396 . S
O1104 C1090 1.252 . S
O1105 Sm1081 2.409 . S
O1105 C1090 1.272 . S
O1106 Sm1081 2.538 1_655 S
O1106 C1091 1.261 . S
O1107 Sm1081 2.445 1_655 S
O1107 C1091 1.242 . S
O1108 Sm1080 2.386 . S
O1108 Sm1081 2.690 . S
O1108 C1098 1.271 . S
O1109 Sm1081 2.469 . S
O1109 C1098 1.251 . S
O1110 Sm1081 2.402 . S
O1110 C1099 1.252 . S
O1111 Sm1080 2.408 . S
O1111 C1099 1.272 . S
H1112 C1084 0.930 . S
H1113 C1085 0.929 . S
H1114 C1087 0.930 . S
H1115 C1088 0.929 . S
H1116 C1093 0.930 . S
H1117 C1094 0.929 . S
H1118 C1096 0.930 . S
H1119 C1097 0.929 . S
Sm1120 C1122 2.846 . S
Sm1120 O1140 2.543 . S
Sm1120 O1141 2.450 . S
Sm1120 O1142 2.681 . S
Sm1120 O1143 2.464 . S
Sm1120 O1144 2.396 . S
Sm1120 O1148 2.386 . S
Sm1120 O1151 2.408 . S
Sm1121 C1131 2.846 . S
Sm1121 O1142 2.386 . S
Sm1121 O1145 2.408 . S
Sm1121 O1146 2.543 . S
Sm1121 O1147 2.450 . S
Sm1121 O1148 2.681 . S
Sm1121 O1149 2.464 . S
Sm1121 O1150 2.396 . S
C1122 Sm1120 2.846 . S
C1122 C1123 1.506 . S
C1122 O1140 1.261 . S
C1122 O1141 1.242 . S
C1123 C1122 1.506 . S
C1123 C1124 1.358 . S
C1123 C1128 1.382 . S
C1124 C1123 1.358 . S
C1124 C1125 1.385 . S
C1124 H1152 0.930 . S
C1125 C1124 1.385 . S
C1125 C1126 1.395 . S
C1125 H1153 0.929 . S
C1126 C1125 1.395 . S
C1126 C1127 1.335 . S
C1127 C1126 1.335 . S
C1127 C1128 1.398 . S
C1127 H1154 0.930 . S
C1128 C1123 1.382 . S
C1128 C1127 1.398 . S
C1128 H1155 0.929 . S
C1129 O1142 1.271 . S
C1129 O1143 1.251 . S
C1130 O1144 1.252 . S
C1130 O1145 1.272 . S
C1131 Sm1121 2.846 . S
C1131 C1132 1.506 . S
C1131 O1146 1.261 . S
C1131 O1147 1.242 . S
C1132 C1131 1.506 . S
C1132 C1133 1.358 . S
C1132 C1137 1.382 . S
C1133 C1132 1.358 . S
C1133 C1134 1.385 . S
C1133 H1156 0.930 . S
C1134 C1133 1.385 . S
C1134 C1135 1.395 . S
C1134 H1157 0.929 . S
C1135 C1134 1.395 . S
C1135 C1136 1.335 . S
C1136 C1135 1.335 . S
C1136 C1137 1.398 . S
C1136 H1158 0.930 . S
C1137 C1132 1.382 . S
C1137 C1136 1.398 . S
C1137 H1159 0.929 . S
C1138 O1148 1.271 . S
C1138 O1149 1.251 . S
C1139 O1150 1.252 . S
C1139 O1151 1.272 . S
O1140 Sm1120 2.543 . S
O1140 C1122 1.261 . S
O1141 Sm1120 2.450 . S
O1141 C1122 1.242 . S
O1142 Sm1120 2.681 . S
O1142 Sm1121 2.386 . S
O1142 C1129 1.271 . S
O1143 Sm1120 2.464 . S
O1143 C1129 1.251 . S
O1144 Sm1120 2.396 . S
O1144 C1130 1.252 . S
O1145 Sm1121 2.408 . S
O1145 C1130 1.272 . S
O1146 Sm1121 2.543 . S
O1146 C1131 1.261 . S
O1147 Sm1121 2.450 . S
O1147 C1131 1.242 . S
O1148 Sm1120 2.386 . S
O1148 Sm1121 2.681 . S
O1148 C1138 1.271 . S
O1149 Sm1121 2.464 . S
O1149 C1138 1.251 . S
O1150 Sm1121 2.396 . S
O1150 C1139 1.252 . S
O1151 Sm1120 2.408 . S
O1151 C1139 1.272 . S
H1152 C1124 0.930 . S
H1153 C1125 0.929 . S
H1154 C1127 0.930 . S
H1155 C1128 0.929 . S
H1156 C1133 0.930 . S
H1157 C1134 0.929 . S
H1158 C1136 0.930 . S
H1159 C1137 0.929 . S
Sm1160 C1162 2.846 . S
Sm1160 O1180 2.543 . S
Sm1160 O1181 2.450 . S
Sm1160 O1182 2.681 . S
Sm1160 O1183 2.464 . S
Sm1160 O1184 2.396 . S
Sm1160 O1188 2.386 . S
Sm1160 O1191 2.408 . S
Sm1161 C1171 2.841 1_455 S
Sm1161 O1182 2.390 . S
Sm1161 O1185 2.409 . S
Sm1161 O1186 2.538 1_455 S
Sm1161 O1187 2.445 1_455 S
Sm1161 O1188 2.690 . S
Sm1161 O1189 2.469 . S
Sm1161 O1190 2.402 . S
C1162 Sm1160 2.846 . S
C1162 C1163 1.506 . S
C1162 O1180 1.261 . S
C1162 O1181 1.242 . S
C1163 C1162 1.506 . S
C1163 C1164 1.358 . S
C1163 C1168 1.382 . S
C1164 C1163 1.358 . S
C1164 C1165 1.385 . S
C1164 H1192 0.930 . S
C1165 C1164 1.385 . S
C1165 C1166 1.395 . S
C1165 H1193 0.929 . S
C1166 C1165 1.395 . S
C1166 C1167 1.335 . S
C1167 C1166 1.335 . S
C1167 C1168 1.398 . S
C1167 H1194 0.930 . S
C1168 C1163 1.382 . S
C1168 C1167 1.398 . S
C1168 H1195 0.929 . S
C1169 O1182 1.271 . S
C1169 O1183 1.251 . S
C1170 O1184 1.252 . S
C1170 O1185 1.272 . S
C1171 Sm1161 2.841 1_655 S
C1171 C1172 1.506 . S
C1171 O1186 1.261 . S
C1171 O1187 1.242 . S
C1172 C1171 1.506 . S
C1172 C1173 1.358 . S
C1172 C1177 1.382 . S
C1173 C1172 1.358 . S
C1173 C1174 1.385 . S
C1173 H1196 0.930 . S
C1174 C1173 1.385 . S
C1174 C1175 1.395 . S
C1174 H1197 0.929 . S
C1175 C1174 1.395 . S
C1175 C1176 1.335 . S
C1176 C1175 1.335 . S
C1176 C1177 1.398 . S
C1176 H1198 0.930 . S
C1177 C1172 1.382 . S
C1177 C1176 1.398 . S
C1177 H1199 0.929 . S
C1178 O1188 1.271 . S
C1178 O1189 1.251 . S
C1179 O1190 1.252 . S
C1179 O1191 1.272 . S
O1180 Sm1160 2.543 . S
O1180 C1162 1.261 . S
O1181 Sm1160 2.450 . S
O1181 C1162 1.242 . S
O1182 Sm1160 2.681 . S
O1182 Sm1161 2.390 . S
O1182 C1169 1.271 . S
O1183 Sm1160 2.464 . S
O1183 C1169 1.251 . S
O1184 Sm1160 2.396 . S
O1184 C1170 1.252 . S
O1185 Sm1161 2.409 . S
O1185 C1170 1.272 . S
O1186 Sm1161 2.538 1_655 S
O1186 C1171 1.261 . S
O1187 Sm1161 2.445 1_655 S
O1187 C1171 1.242 . S
O1188 Sm1160 2.386 . S
O1188 Sm1161 2.690 . S
O1188 C1178 1.271 . S
O1189 Sm1161 2.469 . S
O1189 C1178 1.251 . S
O1190 Sm1161 2.402 . S
O1190 C1179 1.252 . S
O1191 Sm1160 2.408 . S
O1191 C1179 1.272 . S
H1192 C1164 0.930 . S
H1193 C1165 0.929 . S
H1194 C1167 0.930 . S
H1195 C1168 0.929 . S
H1196 C1173 0.930 . S
H1197 C1174 0.929 . S
H1198 C1176 0.930 . S
H1199 C1177 0.929 . S
Sm1200 C1202 2.846 . S
Sm1200 O1220 2.543 . S
Sm1200 O1221 2.450 . S
Sm1200 O1222 2.681 . S
Sm1200 O1223 2.464 . S
Sm1200 O1224 2.396 . S
Sm1200 O1228 2.386 . S
Sm1200 O1231 2.408 . S
Sm1201 C1211 2.846 . S
Sm1201 O1222 2.386 . S
Sm1201 O1225 2.408 . S
Sm1201 O1226 2.543 . S
Sm1201 O1227 2.450 . S
Sm1201 O1228 2.681 . S
Sm1201 O1229 2.464 . S
Sm1201 O1230 2.396 . S
C1202 Sm1200 2.846 . S
C1202 C1203 1.506 . S
C1202 O1220 1.261 . S
C1202 O1221 1.242 . S
C1203 C1202 1.506 . S
C1203 C1204 1.358 . S
C1203 C1208 1.382 . S
C1204 C1203 1.358 . S
C1204 C1205 1.385 . S
C1204 H1232 0.930 . S
C1205 C1204 1.385 . S
C1205 C1206 1.395 . S
C1205 H1233 0.929 . S
C1206 C1205 1.395 . S
C1206 C1207 1.335 . S
C1207 C1206 1.335 . S
C1207 C1208 1.398 . S
C1207 H1234 0.930 . S
C1208 C1203 1.382 . S
C1208 C1207 1.398 . S
C1208 H1235 0.929 . S
C1209 O1222 1.271 . S
C1209 O1223 1.251 . S
C1210 O1224 1.252 . S
C1210 O1225 1.272 . S
C1211 Sm1201 2.846 . S
C1211 C1212 1.506 . S
C1211 O1226 1.261 . S
C1211 O1227 1.242 . S
C1212 C1211 1.506 . S
C1212 C1213 1.358 . S
C1212 C1217 1.382 . S
C1213 C1212 1.358 . S
C1213 C1214 1.385 . S
C1213 H1236 0.930 . S
C1214 C1213 1.385 . S
C1214 C1215 1.395 . S
C1214 H1237 0.929 . S
C1215 C1214 1.395 . S
C1215 C1216 1.335 . S
C1216 C1215 1.335 . S
C1216 C1217 1.398 . S
C1216 H1238 0.930 . S
C1217 C1212 1.382 . S
C1217 C1216 1.398 . S
C1217 H1239 0.929 . S
C1218 O1228 1.271 . S
C1218 O1229 1.251 . S
C1219 O1230 1.252 . S
C1219 O1231 1.272 . S
O1220 Sm1200 2.543 . S
O1220 C1202 1.261 . S
O1221 Sm1200 2.450 . S
O1221 C1202 1.242 . S
O1222 Sm1200 2.681 . S
O1222 Sm1201 2.386 . S
O1222 C1209 1.271 . S
O1223 Sm1200 2.464 . S
O1223 C1209 1.251 . S
O1224 Sm1200 2.396 . S
O1224 C1210 1.252 . S
O1225 Sm1201 2.408 . S
O1225 C1210 1.272 . S
O1226 Sm1201 2.543 . S
O1226 C1211 1.261 . S
O1227 Sm1201 2.450 . S
O1227 C1211 1.242 . S
O1228 Sm1200 2.386 . S
O1228 Sm1201 2.681 . S
O1228 C1218 1.271 . S
O1229 Sm1201 2.464 . S
O1229 C1218 1.251 . S
O1230 Sm1201 2.396 . S
O1230 C1219 1.252 . S
O1231 Sm1200 2.408 . S
O1231 C1219 1.272 . S
H1232 C1204 0.930 . S
H1233 C1205 0.929 . S
H1234 C1207 0.930 . S
H1235 C1208 0.929 . S
H1236 C1213 0.930 . S
H1237 C1214 0.929 . S
H1238 C1216 0.930 . S
H1239 C1217 0.929 . S
Sm1240 C1242 2.846 . S
Sm1240 O1260 2.543 . S
Sm1240 O1261 2.450 . S
Sm1240 O1262 2.681 . S
Sm1240 O1263 2.464 . S
Sm1240 O1264 2.396 . S
Sm1240 O1268 2.386 . S
Sm1240 O1271 2.408 . S
Sm1241 C1251 2.846 . S
Sm1241 O1262 2.386 . S
Sm1241 O1265 2.408 . S
Sm1241 O1266 2.543 . S
Sm1241 O1267 2.450 . S
Sm1241 O1268 2.681 . S
Sm1241 O1269 2.464 . S
Sm1241 O1270 2.396 . S
C1242 Sm1240 2.846 . S
C1242 C1243 1.506 . S
C1242 O1260 1.261 . S
C1242 O1261 1.242 . S
C1243 C1242 1.506 . S
C1243 C1244 1.358 . S
C1243 C1248 1.382 . S
C1244 C1243 1.358 . S
C1244 C1245 1.385 . S
C1244 H1272 0.930 . S
C1245 C1244 1.385 . S
C1245 C1246 1.395 . S
C1245 H1273 0.929 . S
C1246 C1245 1.395 . S
C1246 C1247 1.335 . S
C1247 C1246 1.335 . S
C1247 C1248 1.398 . S
C1247 H1274 0.930 . S
C1248 C1243 1.382 . S
C1248 C1247 1.398 . S
C1248 H1275 0.929 . S
C1249 O1262 1.271 . S
C1249 O1263 1.251 . S
C1250 O1264 1.252 . S
C1250 O1265 1.272 . S
C1251 Sm1241 2.846 . S
C1251 C1252 1.506 . S
C1251 O1266 1.261 . S
C1251 O1267 1.242 . S
C1252 C1251 1.506 . S
C1252 C1253 1.358 . S
C1252 C1257 1.382 . S
C1253 C1252 1.358 . S
C1253 C1254 1.385 . S
C1253 H1276 0.930 . S
C1254 C1253 1.385 . S
C1254 C1255 1.395 . S
C1254 H1277 0.929 . S
C1255 C1254 1.395 . S
C1255 C1256 1.335 . S
C1256 C1255 1.335 . S
C1256 C1257 1.398 . S
C1256 H1278 0.930 . S
C1257 C1252 1.382 . S
C1257 C1256 1.398 . S
C1257 H1279 0.929 . S
C1258 O1268 1.271 . S
C1258 O1269 1.251 . S
C1259 O1270 1.252 . S
C1259 O1271 1.272 . S
O1260 Sm1240 2.543 . S
O1260 C1242 1.261 . S
O1261 Sm1240 2.450 . S
O1261 C1242 1.242 . S
O1262 Sm1240 2.681 . S
O1262 Sm1241 2.386 . S
O1262 C1249 1.271 . S
O1263 Sm1240 2.464 . S
O1263 C1249 1.251 . S
O1264 Sm1240 2.396 . S
O1264 C1250 1.252 . S
O1265 Sm1241 2.408 . S
O1265 C1250 1.272 . S
O1266 Sm1241 2.543 . S
O1266 C1251 1.261 . S
O1267 Sm1241 2.450 . S
O1267 C1251 1.242 . S
O1268 Sm1240 2.386 . S
O1268 Sm1241 2.681 . S
O1268 C1258 1.271 . S
O1269 Sm1241 2.464 . S
O1269 C1258 1.251 . S
O1270 Sm1241 2.396 . S
O1270 C1259 1.252 . S
O1271 Sm1240 2.408 . S
O1271 C1259 1.272 . S
H1272 C1244 0.930 . S
H1273 C1245 0.929 . S
H1274 C1247 0.930 . S
H1275 C1248 0.929 . S
H1276 C1253 0.930 . S
H1277 C1254 0.929 . S
H1278 C1256 0.930 . S
H1279 C1257 0.929 . S
H1280 C1286 0.930 . S
H1281 C1290 0.930 . S
H1282 C1295 0.929 . S
H1283 C1293 0.929 . S
H1284 C1288 0.929 . S
H1285 C1294 0.929 . S
C1286 H1280 0.930 . S
C1286 C1287 1.367 . S
C1286 C1294 1.378 . S
C1287 C1286 1.367 . S
C1287 C1295 1.433 . S
C1288 H1284 0.929 . S
C1288 C1290 1.378 . S
C1288 C1292 1.350 . S
C1289 C1292 1.463 . S
C1289 C1294 1.350 . S
C1289 N1297 1.427 . S
C1290 H1281 0.930 . S
C1290 C1288 1.378 . S
C1290 C1291 1.367 . S
C1291 C1290 1.367 . S
C1291 C1293 1.433 . S
C1292 C1288 1.350 . S
C1292 C1289 1.463 . S
C1292 N1296 1.427 . S
C1293 H1283 0.929 . S
C1293 C1291 1.433 . S
C1293 N1296 1.384 . S
C1294 H1285 0.929 . S
C1294 C1286 1.378 . S
C1294 C1289 1.350 . S
C1295 H1282 0.929 . S
C1295 C1287 1.433 . S
C1295 N1297 1.384 . S
N1296 C1292 1.427 . S
N1296 C1293 1.384 . S
N1297 C1289 1.427 . S
N1297 C1295 1.384 . S
H1298 C1304 0.930 . S
H1299 C1308 0.930 . S
H1300 C1313 0.929 . S
H1301 C1311 0.929 . S
H1302 C1306 0.929 . S
H1303 C1312 0.929 . S
C1304 H1298 0.930 . S
C1304 C1305 1.367 . S
C1304 C1312 1.378 . S
C1305 C1304 1.367 . S
C1305 C1313 1.433 . S
C1306 H1302 0.929 . S
C1306 C1308 1.378 . S
C1306 C1310 1.350 . S
C1307 C1310 1.463 . S
C1307 C1312 1.350 . S
C1307 N1315 1.427 . S
C1308 H1299 0.930 . S
C1308 C1306 1.378 . S
C1308 C1309 1.367 . S
C1309 C1308 1.367 . S
C1309 C1311 1.433 . S
C1310 C1306 1.350 . S
C1310 C1307 1.463 . S
C1310 N1314 1.427 . S
C1311 H1301 0.929 . S
C1311 C1309 1.433 . S
C1311 N1314 1.384 . S
C1312 H1303 0.929 . S
C1312 C1304 1.378 . S
C1312 C1307 1.350 . S
C1313 H1300 0.929 . S
C1313 C1305 1.433 . S
C1313 N1315 1.384 . S
N1314 C1310 1.427 . S
N1314 C1311 1.384 . S
N1315 C1307 1.427 . S
N1315 C1313 1.384 . S
H1316 C1322 0.930 . S
H1317 C1326 0.930 . S
H1318 C1331 0.929 . S
H1319 C1329 0.929 . S
H1320 C1324 0.929 . S
H1321 C1330 0.929 . S
C1322 H1316 0.930 . S
C1322 C1323 1.367 . S
C1322 C1330 1.378 . S
C1323 C1322 1.367 . S
C1323 C1331 1.433 . S
C1324 H1320 0.929 . S
C1324 C1326 1.378 . S
C1324 C1328 1.350 . S
C1325 C1328 1.463 . S
C1325 C1330 1.350 . S
C1325 N1333 1.427 . S
C1326 H1317 0.930 . S
C1326 C1324 1.378 . S
C1326 C1327 1.367 . S
C1327 C1326 1.367 . S
C1327 C1329 1.433 . S
C1328 C1324 1.350 . S
C1328 C1325 1.463 . S
C1328 N1332 1.427 . S
C1329 H1319 0.929 . S
C1329 C1327 1.433 . S
C1329 N1332 1.384 . S
C1330 H1321 0.929 . S
C1330 C1322 1.378 . S
C1330 C1325 1.350 . S
C1331 H1318 0.929 . S
C1331 C1323 1.433 . S
C1331 N1333 1.384 . S
N1332 C1328 1.427 . S
N1332 C1329 1.384 . S
N1333 C1325 1.427 . S
N1333 C1331 1.384 . S
H1334 C1340 0.930 . S
H1335 C1344 0.930 . S
H1336 C1349 0.929 . S
H1337 C1347 0.929 . S
H1338 C1342 0.929 . S
H1339 C1348 0.929 . S
C1340 H1334 0.930 . S
C1340 C1341 1.367 . S
C1340 C1348 1.378 . S
C1341 C1340 1.367 . S
C1341 C1349 1.433 . S
C1342 H1338 0.929 . S
C1342 C1344 1.378 . S
C1342 C1346 1.350 . S
C1343 C1346 1.463 . S
C1343 C1348 1.350 . S
C1343 N1351 1.427 . S
C1344 H1335 0.930 . S
C1344 C1342 1.378 . S
C1344 C1345 1.367 . S
C1345 C1344 1.367 . S
C1345 C1347 1.433 . S
C1346 C1342 1.350 . S
C1346 C1343 1.463 . S
C1346 N1350 1.427 . S
C1347 H1337 0.929 . S
C1347 C1345 1.433 . S
C1347 N1350 1.384 . S
C1348 H1339 0.929 . S
C1348 C1340 1.378 . S
C1348 C1343 1.350 . S
C1349 H1336 0.929 . S
C1349 C1341 1.433 . S
C1349 N1351 1.384 . S
N1350 C1346 1.427 . S
N1350 C1347 1.384 . S
N1351 C1343 1.427 . S
N1351 C1349 1.384 . S
H1352 C1358 0.930 . S
H1353 C1362 0.930 . S
H1354 C1367 0.929 . S
H1355 C1365 0.929 . S
H1356 C1360 0.929 . S
H1357 C1366 0.929 . S
C1358 H1352 0.930 . S
C1358 C1359 1.367 . S
C1358 C1366 1.378 . S
C1359 C1358 1.367 . S
C1359 C1367 1.433 . S
C1360 H1356 0.929 . S
C1360 C1362 1.378 . S
C1360 C1364 1.350 . S
C1361 C1364 1.463 . S
C1361 C1366 1.350 . S
C1361 N1369 1.427 . S
C1362 H1353 0.930 . S
C1362 C1360 1.378 . S
C1362 C1363 1.367 . S
C1363 C1362 1.367 . S
C1363 C1365 1.433 . S
C1364 C1360 1.350 . S
C1364 C1361 1.463 . S
C1364 N1368 1.427 . S
C1365 H1355 0.929 . S
C1365 C1363 1.433 . S
C1365 N1368 1.384 . S
C1366 H1357 0.929 . S
C1366 C1358 1.378 . S
C1366 C1361 1.350 . S
C1367 H1354 0.929 . S
C1367 C1359 1.433 . S
C1367 N1369 1.384 . S
N1368 C1364 1.427 . S
N1368 C1365 1.384 . S
N1369 C1361 1.427 . S
N1369 C1367 1.384 . S
H1370 C1376 0.930 . S
H1371 C1380 0.930 . S
H1372 C1385 0.929 . S
H1373 C1383 0.929 . S
H1374 C1378 0.929 . S
H1375 C1384 0.929 . S
C1376 H1370 0.930 . S
C1376 C1377 1.367 . S
C1376 C1384 1.378 . S
C1377 C1376 1.367 . S
C1377 C1385 1.433 . S
C1378 H1374 0.929 . S
C1378 C1380 1.378 . S
C1378 C1382 1.350 . S
C1379 C1382 1.463 . S
C1379 C1384 1.350 . S
C1379 N1387 1.427 . S
C1380 H1371 0.930 . S
C1380 C1378 1.378 . S
C1380 C1381 1.367 . S
C1381 C1380 1.367 . S
C1381 C1383 1.433 . S
C1382 C1378 1.350 . S
C1382 C1379 1.463 . S
C1382 N1386 1.427 . S
C1383 H1373 0.929 . S
C1383 C1381 1.433 . S
C1383 N1386 1.384 . S
C1384 H1375 0.929 . S
C1384 C1376 1.378 . S
C1384 C1379 1.350 . S
C1385 H1372 0.929 . S
C1385 C1377 1.433 . S
C1385 N1387 1.384 . S
N1386 C1382 1.427 . S
N1386 C1383 1.384 . S
N1387 C1379 1.427 . S
N1387 C1385 1.384 . S
H1388 C1394 0.930 . S
H1389 C1398 0.930 . S
H1390 C1403 0.929 . S
H1391 C1401 0.929 . S
H1392 C1396 0.929 . S
H1393 C1402 0.929 . S
C1394 H1388 0.930 . S
C1394 C1395 1.367 . S
C1394 C1402 1.378 . S
C1395 C1394 1.367 . S
C1395 C1403 1.433 . S
C1396 H1392 0.929 . S
C1396 C1398 1.378 . S
C1396 C1400 1.350 . S
C1397 C1400 1.463 . S
C1397 C1402 1.350 . S
C1397 N1405 1.427 . S
C1398 H1389 0.930 . S
C1398 C1396 1.378 . S
C1398 C1399 1.367 . S
C1399 C1398 1.367 . S
C1399 C1401 1.433 . S
C1400 C1396 1.350 . S
C1400 C1397 1.463 . S
C1400 N1404 1.427 . S
C1401 H1391 0.929 . S
C1401 C1399 1.433 . S
C1401 N1404 1.384 . S
C1402 H1393 0.929 . S
C1402 C1394 1.378 . S
C1402 C1397 1.350 . S
C1403 H1390 0.929 . S
C1403 C1395 1.433 . S
C1403 N1405 1.384 . S
N1404 C1400 1.427 . S
N1404 C1401 1.384 . S
N1405 C1397 1.427 . S
N1405 C1403 1.384 . S
H1406 C1412 0.930 . S
H1407 C1416 0.930 . S
H1408 C1421 0.929 . S
H1409 C1419 0.929 . S
H1410 C1414 0.929 . S
H1411 C1420 0.929 . S
C1412 H1406 0.930 . S
C1412 C1413 1.367 . S
C1412 C1420 1.378 . S
C1413 C1412 1.367 . S
C1413 C1421 1.433 . S
C1414 H1410 0.929 . S
C1414 C1416 1.378 . S
C1414 C1418 1.350 . S
C1415 C1418 1.463 . S
C1415 C1420 1.350 . S
C1415 N1423 1.427 . S
C1416 H1407 0.930 . S
C1416 C1414 1.378 . S
C1416 C1417 1.367 . S
C1417 C1416 1.367 . S
C1417 C1419 1.433 . S
C1418 C1414 1.350 . S
C1418 C1415 1.463 . S
C1418 N1422 1.427 . S
C1419 H1409 0.929 . S
C1419 C1417 1.433 . S
C1419 N1422 1.384 . S
C1420 H1411 0.929 . S
C1420 C1412 1.378 . S
C1420 C1415 1.350 . S
C1421 H1408 0.929 . S
C1421 C1413 1.433 . S
C1421 N1423 1.384 . S
N1422 C1418 1.427 . S
N1422 C1419 1.384 . S
N1423 C1415 1.427 . S
N1423 C1421 1.384 . S
H1424 C1430 0.930 . S
H1425 C1434 0.930 . S
H1426 C1439 0.929 . S
H1427 C1437 0.929 . S
H1428 C1432 0.929 . S
H1429 C1438 0.929 . S
C1430 H1424 0.930 . S
C1430 C1431 1.367 . S
C1430 C1438 1.378 . S
C1431 C1430 1.367 . S
C1431 C1439 1.433 . S
C1432 H1428 0.929 . S
C1432 C1434 1.378 . S
C1432 C1436 1.350 . S
C1433 C1436 1.463 . S
C1433 C1438 1.350 . S
C1433 N1441 1.427 . S
C1434 H1425 0.930 . S
C1434 C1432 1.378 . S
C1434 C1435 1.367 . S
C1435 C1434 1.367 . S
C1435 C1437 1.433 . S
C1436 C1432 1.350 . S
C1436 C1433 1.463 . S
C1436 N1440 1.427 . S
C1437 H1427 0.929 . S
C1437 C1435 1.433 . S
C1437 N1440 1.384 . S
C1438 H1429 0.929 . S
C1438 C1430 1.378 . S
C1438 C1433 1.350 . S
C1439 H1426 0.929 . S
C1439 C1431 1.433 . S
C1439 N1441 1.384 . S
N1440 C1436 1.427 . S
N1440 C1437 1.384 . S
N1441 C1433 1.427 . S
N1441 C1439 1.384 . S
H1442 C1448 0.930 . S
H1443 C1452 0.930 . S
H1444 C1457 0.929 . S
H1445 C1455 0.929 . S
H1446 C1450 0.929 . S
H1447 C1456 0.929 . S
C1448 H1442 0.930 . S
C1448 C1449 1.367 . S
C1448 C1456 1.378 . S
C1449 C1448 1.367 . S
C1449 C1457 1.433 . S
C1450 H1446 0.929 . S
C1450 C1452 1.378 . S
C1450 C1454 1.350 . S
C1451 C1454 1.463 . S
C1451 C1456 1.350 . S
C1451 N1459 1.427 . S
C1452 H1443 0.930 . S
C1452 C1450 1.378 . S
C1452 C1453 1.367 . S
C1453 C1452 1.367 . S
C1453 C1455 1.433 . S
C1454 C1450 1.350 . S
C1454 C1451 1.463 . S
C1454 N1458 1.427 . S
C1455 H1445 0.929 . S
C1455 C1453 1.433 . S
C1455 N1458 1.384 . S
C1456 H1447 0.929 . S
C1456 C1448 1.378 . S
C1456 C1451 1.350 . S
C1457 H1444 0.929 . S
C1457 C1449 1.433 . S
C1457 N1459 1.384 . S
N1458 C1454 1.427 . S
N1458 C1455 1.384 . S
N1459 C1451 1.427 . S
N1459 C1457 1.384 . S
H1460 C1466 0.930 . S
H1461 C1470 0.930 . S
H1462 C1475 0.929 . S
H1463 C1473 0.929 . S
H1464 C1468 0.929 . S
H1465 C1474 0.929 . S
C1466 H1460 0.930 . S
C1466 C1467 1.367 . S
C1466 C1474 1.378 . S
C1467 C1466 1.367 . S
C1467 C1475 1.433 . S
C1468 H1464 0.929 . S
C1468 C1470 1.378 . S
C1468 C1472 1.350 . S
C1469 C1472 1.463 . S
C1469 C1474 1.350 . S
C1469 N1477 1.427 . S
C1470 H1461 0.930 . S
C1470 C1468 1.378 . S
C1470 C1471 1.367 . S
C1471 C1470 1.367 . S
C1471 C1473 1.433 . S
C1472 C1468 1.350 . S
C1472 C1469 1.463 . S
C1472 N1476 1.427 . S
C1473 H1463 0.929 . S
C1473 C1471 1.433 . S
C1473 N1476 1.384 . S
C1474 H1465 0.929 . S
C1474 C1466 1.378 . S
C1474 C1469 1.350 . S
C1475 H1462 0.929 . S
C1475 C1467 1.433 . S
C1475 N1477 1.384 . S
N1476 C1472 1.427 . S
N1476 C1473 1.384 . S
N1477 C1469 1.427 . S
N1477 C1475 1.384 . S
H1478 C1484 0.930 . S
H1479 C1488 0.930 . S
H1480 C1493 0.929 . S
H1481 C1491 0.929 . S
H1482 C1486 0.929 . S
H1483 C1492 0.929 . S
C1484 H1478 0.930 . S
C1484 C1485 1.367 . S
C1484 C1492 1.378 . S
C1485 C1484 1.367 . S
C1485 C1493 1.433 . S
C1486 H1482 0.929 . S
C1486 C1488 1.378 . S
C1486 C1490 1.350 . S
C1487 C1490 1.463 . S
C1487 C1492 1.350 . S
C1487 N1495 1.427 . S
C1488 H1479 0.930 . S
C1488 C1486 1.378 . S
C1488 C1489 1.367 . S
C1489 C1488 1.367 . S
C1489 C1491 1.433 . S
C1490 C1486 1.350 . S
C1490 C1487 1.463 . S
C1490 N1494 1.427 . S
C1491 H1481 0.929 . S
C1491 C1489 1.433 . S
C1491 N1494 1.384 . S
C1492 H1483 0.929 . S
C1492 C1484 1.378 . S
C1492 C1487 1.350 . S
C1493 H1480 0.929 . S
C1493 C1485 1.433 . S
C1493 N1495 1.384 . S
N1494 C1490 1.427 . S
N1494 C1491 1.384 . S
N1495 C1487 1.427 . S
N1495 C1493 1.384 . S
H1496 C1502 0.930 . S
H1497 C1506 0.930 . S
H1498 C1511 0.929 . S
H1499 C1509 0.929 . S
H1500 C1504 0.929 . S
H1501 C1510 0.929 . S
C1502 H1496 0.930 . S
C1502 C1503 1.367 . S
C1502 C1510 1.378 . S
C1503 C1502 1.367 . S
C1503 C1511 1.433 . S
C1504 H1500 0.929 . S
C1504 C1506 1.378 . S
C1504 C1508 1.350 . S
C1505 C1508 1.463 . S
C1505 C1510 1.350 . S
C1505 N1513 1.427 . S
C1506 H1497 0.930 . S
C1506 C1504 1.378 . S
C1506 C1507 1.367 . S
C1507 C1506 1.367 . S
C1507 C1509 1.433 . S
C1508 C1504 1.350 . S
C1508 C1505 1.463 . S
C1508 N1512 1.427 . S
C1509 H1499 0.929 . S
C1509 C1507 1.433 . S
C1509 N1512 1.384 . S
C1510 H1501 0.929 . S
C1510 C1502 1.378 . S
C1510 C1505 1.350 . S
C1511 H1498 0.929 . S
C1511 C1503 1.433 . S
C1511 N1513 1.384 . S
N1512 C1508 1.427 . S
N1512 C1509 1.384 . S
N1513 C1505 1.427 . S
N1513 C1511 1.384 . S
H1514 C1520 0.930 . S
H1515 C1524 0.930 . S
H1516 C1529 0.929 . S
H1517 C1527 0.929 . S
H1518 C1522 0.929 . S
H1519 C1528 0.929 . S
C1520 H1514 0.930 . S
C1520 C1521 1.367 . S
C1520 C1528 1.378 . S
C1521 C1520 1.367 . S
C1521 C1529 1.433 . S
C1522 H1518 0.929 . S
C1522 C1524 1.378 . S
C1522 C1526 1.350 . S
C1523 C1526 1.463 . S
C1523 C1528 1.350 . S
C1523 N1531 1.427 . S
C1524 H1515 0.930 . S
C1524 C1522 1.378 . S
C1524 C1525 1.367 . S
C1525 C1524 1.367 . S
C1525 C1527 1.433 . S
C1526 C1522 1.350 . S
C1526 C1523 1.463 . S
C1526 N1530 1.427 . S
C1527 H1517 0.929 . S
C1527 C1525 1.433 . S
C1527 N1530 1.384 . S
C1528 H1519 0.929 . S
C1528 C1520 1.378 . S
C1528 C1523 1.350 . S
C1529 H1516 0.929 . S
C1529 C1521 1.433 . S
C1529 N1531 1.384 . S
N1530 C1526 1.427 . S
N1530 C1527 1.384 . S
N1531 C1523 1.427 . S
N1531 C1529 1.384 . S
H1532 C1538 0.930 . S
H1533 C1542 0.930 . S
H1534 C1547 0.929 . S
H1535 C1545 0.929 . S
H1536 C1540 0.929 . S
H1537 C1546 0.929 . S
C1538 H1532 0.930 . S
C1538 C1539 1.367 . S
C1538 C1546 1.378 . S
C1539 C1538 1.367 . S
C1539 C1547 1.433 . S
C1540 H1536 0.929 . S
C1540 C1542 1.378 . S
C1540 C1544 1.350 . S
C1541 C1544 1.463 . S
C1541 C1546 1.350 . S
C1541 N1549 1.427 . S
C1542 H1533 0.930 . S
C1542 C1540 1.378 . S
C1542 C1543 1.367 . S
C1543 C1542 1.367 . S
C1543 C1545 1.433 . S
C1544 C1540 1.350 . S
C1544 C1541 1.463 . S
C1544 N1548 1.427 . S
C1545 H1535 0.929 . S
C1545 C1543 1.433 . S
C1545 N1548 1.384 . S
C1546 H1537 0.929 . S
C1546 C1538 1.378 . S
C1546 C1541 1.350 . S
C1547 H1534 0.929 . S
C1547 C1539 1.433 . S
C1547 N1549 1.384 . S
N1548 C1544 1.427 . S
N1548 C1545 1.384 . S
N1549 C1541 1.427 . S
N1549 C1547 1.384 . S
H1550 C1556 0.930 . S
H1551 C1560 0.930 . S
H1552 C1565 0.929 . S
H1553 C1563 0.929 . S
H1554 C1558 0.929 . S
H1555 C1564 0.929 . S
C1556 H1550 0.930 . S
C1556 C1557 1.367 . S
C1556 C1564 1.378 . S
C1557 C1556 1.367 . S
C1557 C1565 1.433 . S
C1558 H1554 0.929 . S
C1558 C1560 1.378 . S
C1558 C1562 1.350 . S
C1559 C1562 1.463 . S
C1559 C1564 1.350 . S
C1559 N1567 1.427 . S
C1560 H1551 0.930 . S
C1560 C1558 1.378 . S
C1560 C1561 1.367 . S
C1561 C1560 1.367 . S
C1561 C1563 1.433 . S
C1562 C1558 1.350 . S
C1562 C1559 1.463 . S
C1562 N1566 1.427 . S
C1563 H1553 0.929 . S
C1563 C1561 1.433 . S
C1563 N1566 1.384 . S
C1564 H1555 0.929 . S
C1564 C1556 1.378 . S
C1564 C1559 1.350 . S
C1565 H1552 0.929 . S
C1565 C1557 1.433 . S
C1565 N1567 1.384 . S
N1566 C1562 1.427 . S
N1566 C1563 1.384 . S
N1567 C1559 1.427 . S
N1567 C1565 1.384 . S
H1568 C1574 0.930 . S
H1569 C1578 0.930 . S
H1570 C1583 0.929 . S
H1571 C1581 0.929 . S
H1572 C1576 0.929 . S
H1573 C1582 0.929 . S
C1574 H1568 0.930 . S
C1574 C1575 1.367 . S
C1574 C1582 1.378 . S
C1575 C1574 1.367 . S
C1575 C1583 1.433 . S
C1576 H1572 0.929 . S
C1576 C1578 1.378 . S
C1576 C1580 1.350 . S
C1577 C1580 1.463 . S
C1577 C1582 1.350 . S
C1577 N1585 1.427 . S
C1578 H1569 0.930 . S
C1578 C1576 1.378 . S
C1578 C1579 1.367 . S
C1579 C1578 1.367 . S
C1579 C1581 1.433 . S
C1580 C1576 1.350 . S
C1580 C1577 1.463 . S
C1580 N1584 1.427 . S
C1581 H1571 0.929 . S
C1581 C1579 1.433 . S
C1581 N1584 1.384 . S
C1582 H1573 0.929 . S
C1582 C1574 1.378 . S
C1582 C1577 1.350 . S
C1583 H1570 0.929 . S
C1583 C1575 1.433 . S
C1583 N1585 1.384 . S
N1584 C1580 1.427 . S
N1584 C1581 1.384 . S
N1585 C1577 1.427 . S
N1585 C1583 1.384 . S
H1586 C1592 0.930 . S
H1587 C1596 0.930 . S
H1588 C1601 0.929 . S
H1589 C1599 0.929 . S
H1590 C1594 0.929 . S
H1591 C1600 0.929 . S
C1592 H1586 0.930 . S
C1592 C1593 1.367 . S
C1592 C1600 1.378 . S
C1593 C1592 1.367 . S
C1593 C1601 1.433 . S
C1594 H1590 0.929 . S
C1594 C1596 1.378 . S
C1594 C1598 1.350 . S
C1595 C1598 1.463 . S
C1595 C1600 1.350 . S
C1595 N1603 1.427 . S
C1596 H1587 0.930 . S
C1596 C1594 1.378 . S
C1596 C1597 1.367 . S
C1597 C1596 1.367 . S
C1597 C1599 1.433 . S
C1598 C1594 1.350 . S
C1598 C1595 1.463 . S
C1598 N1602 1.427 . S
C1599 H1589 0.929 . S
C1599 C1597 1.433 . S
C1599 N1602 1.384 . S
C1600 H1591 0.929 . S
C1600 C1592 1.378 . S
C1600 C1595 1.350 . S
C1601 H1588 0.929 . S
C1601 C1593 1.433 . S
C1601 N1603 1.384 . S
N1602 C1598 1.427 . S
N1602 C1599 1.384 . S
N1603 C1595 1.427 . S
N1603 C1601 1.384 . S
H1604 C1610 0.930 . S
H1605 C1614 0.930 . S
H1606 C1619 0.929 . S
H1607 C1617 0.929 . S
H1608 C1612 0.929 . S
H1609 C1618 0.929 . S
C1610 H1604 0.930 . S
C1610 C1611 1.367 . S
C1610 C1618 1.378 . S
C1611 C1610 1.367 . S
C1611 C1619 1.433 . S
C1612 H1608 0.929 . S
C1612 C1614 1.378 . S
C1612 C1616 1.350 . S
C1613 C1616 1.463 . S
C1613 C1618 1.350 . S
C1613 N1621 1.427 . S
C1614 H1605 0.930 . S
C1614 C1612 1.378 . S
C1614 C1615 1.367 . S
C1615 C1614 1.367 . S
C1615 C1617 1.433 . S
C1616 C1612 1.350 . S
C1616 C1613 1.463 . S
C1616 N1620 1.427 . S
C1617 H1607 0.929 . S
C1617 C1615 1.433 . S
C1617 N1620 1.384 . S
C1618 H1609 0.929 . S
C1618 C1610 1.378 . S
C1618 C1613 1.350 . S
C1619 H1606 0.929 . S
C1619 C1611 1.433 . S
C1619 N1621 1.384 . S
N1620 C1616 1.427 . S
N1620 C1617 1.384 . S
N1621 C1613 1.427 . S
N1621 C1619 1.384 . S
H1622 C1628 0.930 . S
H1623 C1632 0.930 . S
H1624 C1637 0.929 . S
H1625 C1635 0.929 . S
H1626 C1630 0.929 . S
H1627 C1636 0.929 . S
C1628 H1622 0.930 . S
C1628 C1629 1.367 . S
C1628 C1636 1.378 . S
C1629 C1628 1.367 . S
C1629 C1637 1.433 . S
C1630 H1626 0.929 . S
C1630 C1632 1.378 . S
C1630 C1634 1.350 . S
C1631 C1634 1.463 . S
C1631 C1636 1.350 . S
C1631 N1639 1.427 . S
C1632 H1623 0.930 . S
C1632 C1630 1.378 . S
C1632 C1633 1.367 . S
C1633 C1632 1.367 . S
C1633 C1635 1.433 . S
C1634 C1630 1.350 . S
C1634 C1631 1.463 . S
C1634 N1638 1.427 . S
C1635 H1625 0.929 . S
C1635 C1633 1.433 . S
C1635 N1638 1.384 . S
C1636 H1627 0.929 . S
C1636 C1628 1.378 . S
C1636 C1631 1.350 . S
C1637 H1624 0.929 . S
C1637 C1629 1.433 . S
C1637 N1639 1.384 . S
N1638 C1634 1.427 . S
N1638 C1635 1.384 . S
N1639 C1631 1.427 . S
N1639 C1637 1.384 . S
H1640 C1646 0.930 . S
H1641 C1650 0.930 . S
H1642 C1655 0.929 . S
H1643 C1653 0.929 . S
H1644 C1648 0.929 . S
H1645 C1654 0.929 . S
C1646 H1640 0.930 . S
C1646 C1647 1.367 . S
C1646 C1654 1.378 . S
C1647 C1646 1.367 . S
C1647 C1655 1.433 . S
C1648 H1644 0.929 . S
C1648 C1650 1.378 . S
C1648 C1652 1.350 . S
C1649 C1652 1.463 . S
C1649 C1654 1.350 . S
C1649 N1657 1.427 . S
C1650 H1641 0.930 . S
C1650 C1648 1.378 . S
C1650 C1651 1.367 . S
C1651 C1650 1.367 . S
C1651 C1653 1.433 . S
C1652 C1648 1.350 . S
C1652 C1649 1.463 . S
C1652 N1656 1.427 . S
C1653 H1643 0.929 . S
C1653 C1651 1.433 . S
C1653 N1656 1.384 . S
C1654 H1645 0.929 . S
C1654 C1646 1.378 . S
C1654 C1649 1.350 . S
C1655 H1642 0.929 . S
C1655 C1647 1.433 . S
C1655 N1657 1.384 . S
N1656 C1652 1.427 . S
N1656 C1653 1.384 . S
N1657 C1649 1.427 . S
N1657 C1655 1.384 . S
H1658 C1664 0.930 . S
H1659 C1668 0.930 . S
H1660 C1673 0.929 . S
H1661 C1671 0.929 . S
H1662 C1666 0.929 . S
H1663 C1672 0.929 . S
C1664 H1658 0.930 . S
C1664 C1665 1.367 . S
C1664 C1672 1.378 . S
C1665 C1664 1.367 . S
C1665 C1673 1.433 . S
C1666 H1662 0.929 . S
C1666 C1668 1.378 . S
C1666 C1670 1.350 . S
C1667 C1670 1.463 . S
C1667 C1672 1.350 . S
C1667 N1675 1.427 . S
C1668 H1659 0.930 . S
C1668 C1666 1.378 . S
C1668 C1669 1.367 . S
C1669 C1668 1.367 . S
C1669 C1671 1.433 . S
C1670 C1666 1.350 . S
C1670 C1667 1.463 . S
C1670 N1674 1.427 . S
C1671 H1661 0.929 . S
C1671 C1669 1.433 . S
C1671 N1674 1.384 . S
C1672 H1663 0.929 . S
C1672 C1664 1.378 . S
C1672 C1667 1.350 . S
C1673 H1660 0.929 . S
C1673 C1665 1.433 . S
C1673 N1675 1.384 . S
N1674 C1670 1.427 . S
N1674 C1671 1.384 . S
N1675 C1667 1.427 . S
N1675 C1673 1.384 . S
H1676 C1682 0.930 . S
H1677 C1686 0.930 . S
H1678 C1691 0.929 . S
H1679 C1689 0.929 . S
H1680 C1684 0.929 . S
H1681 C1690 0.929 . S
C1682 H1676 0.930 . S
C1682 C1683 1.367 . S
C1682 C1690 1.378 . S
C1683 C1682 1.367 . S
C1683 C1691 1.433 . S
C1684 H1680 0.929 . S
C1684 C1686 1.378 . S
C1684 C1688 1.350 . S
C1685 C1688 1.463 . S
C1685 C1690 1.350 . S
C1685 N1693 1.427 . S
C1686 H1677 0.930 . S
C1686 C1684 1.378 . S
C1686 C1687 1.367 . S
C1687 C1686 1.367 . S
C1687 C1689 1.433 . S
C1688 C1684 1.350 . S
C1688 C1685 1.463 . S
C1688 N1692 1.427 . S
C1689 H1679 0.929 . S
C1689 C1687 1.433 . S
C1689 N1692 1.384 . S
C1690 H1681 0.929 . S
C1690 C1682 1.378 . S
C1690 C1685 1.350 . S
C1691 H1678 0.929 . S
C1691 C1683 1.433 . S
C1691 N1693 1.384 . S
N1692 C1688 1.427 . S
N1692 C1689 1.384 . S
N1693 C1685 1.427 . S
N1693 C1691 1.384 . S
H1694 C1700 0.930 . S
H1695 C1704 0.930 . S
H1696 C1709 0.929 . S
H1697 C1707 0.929 . S
H1698 C1702 0.929 . S
H1699 C1708 0.929 . S
C1700 H1694 0.930 . S
C1700 C1701 1.367 . S
C1700 C1708 1.378 . S
C1701 C1700 1.367 . S
C1701 C1709 1.433 . S
C1702 H1698 0.929 . S
C1702 C1704 1.378 . S
C1702 C1706 1.350 . S
C1703 C1706 1.463 . S
C1703 C1708 1.350 . S
C1703 N1711 1.427 . S
C1704 H1695 0.930 . S
C1704 C1702 1.378 . S
C1704 C1705 1.367 . S
C1705 C1704 1.367 . S
C1705 C1707 1.433 . S
C1706 C1702 1.350 . S
C1706 C1703 1.463 . S
C1706 N1710 1.427 . S
C1707 H1697 0.929 . S
C1707 C1705 1.433 . S
C1707 N1710 1.384 . S
C1708 H1699 0.929 . S
C1708 C1700 1.378 . S
C1708 C1703 1.350 . S
C1709 H1696 0.929 . S
C1709 C1701 1.433 . S
C1709 N1711 1.384 . S
N1710 C1706 1.427 . S
N1710 C1707 1.384 . S
N1711 C1703 1.427 . S
N1711 C1709 1.384 . S
H1712 C1718 0.930 . S
H1713 C1722 0.930 . S
H1714 C1727 0.929 . S
H1715 C1725 0.929 . S
H1716 C1720 0.929 . S
H1717 C1726 0.929 . S
C1718 H1712 0.930 . S
C1718 C1719 1.367 . S
C1718 C1726 1.378 . S
C1719 C1718 1.367 . S
C1719 C1727 1.433 . S
C1720 H1716 0.929 . S
C1720 C1722 1.378 . S
C1720 C1724 1.350 . S
C1721 C1724 1.463 . S
C1721 C1726 1.350 . S
C1721 N1729 1.427 . S
C1722 H1713 0.930 . S
C1722 C1720 1.378 . S
C1722 C1723 1.367 . S
C1723 C1722 1.367 . S
C1723 C1725 1.433 . S
C1724 C1720 1.350 . S
C1724 C1721 1.463 . S
C1724 N1728 1.427 . S
C1725 H1715 0.929 . S
C1725 C1723 1.433 . S
C1725 N1728 1.384 . S
C1726 H1717 0.929 . S
C1726 C1718 1.378 . S
C1726 C1721 1.350 . S
C1727 H1714 0.929 . S
C1727 C1719 1.433 . S
C1727 N1729 1.384 . S
N1728 C1724 1.427 . S
N1728 C1725 1.384 . S
N1729 C1721 1.427 . S
N1729 C1727 1.384 . S
H1730 C1736 0.930 . S
H1731 C1740 0.930 . S
H1732 C1745 0.929 . S
H1733 C1743 0.929 . S
H1734 C1738 0.929 . S
H1735 C1744 0.929 . S
C1736 H1730 0.930 . S
C1736 C1737 1.367 . S
C1736 C1744 1.378 . S
C1737 C1736 1.367 . S
C1737 C1745 1.433 . S
C1738 H1734 0.929 . S
C1738 C1740 1.378 . S
C1738 C1742 1.350 . S
C1739 C1742 1.463 . S
C1739 C1744 1.350 . S
C1739 N1747 1.427 . S
C1740 H1731 0.930 . S
C1740 C1738 1.378 . S
C1740 C1741 1.367 . S
C1741 C1740 1.367 . S
C1741 C1743 1.433 . S
C1742 C1738 1.350 . S
C1742 C1739 1.463 . S
C1742 N1746 1.427 . S
C1743 H1733 0.929 . S
C1743 C1741 1.433 . S
C1743 N1746 1.384 . S
C1744 H1735 0.929 . S
C1744 C1736 1.378 . S
C1744 C1739 1.350 . S
C1745 H1732 0.929 . S
C1745 C1737 1.433 . S
C1745 N1747 1.384 . S
N1746 C1742 1.427 . S
N1746 C1743 1.384 . S
N1747 C1739 1.427 . S
N1747 C1745 1.384 . S
H1748 C1754 0.930 . S
H1749 C1758 0.930 . S
H1750 C1763 0.929 . S
H1751 C1761 0.929 . S
H1752 C1756 0.929 . S
H1753 C1762 0.929 . S
C1754 H1748 0.930 . S
C1754 C1755 1.367 . S
C1754 C1762 1.378 . S
C1755 C1754 1.367 . S
C1755 C1763 1.433 . S
C1756 H1752 0.929 . S
C1756 C1758 1.378 . S
C1756 C1760 1.350 . S
C1757 C1760 1.463 . S
C1757 C1762 1.350 . S
C1757 N1765 1.427 . S
C1758 H1749 0.930 . S
C1758 C1756 1.378 . S
C1758 C1759 1.367 . S
C1759 C1758 1.367 . S
C1759 C1761 1.433 . S
C1760 C1756 1.350 . S
C1760 C1757 1.463 . S
C1760 N1764 1.427 . S
C1761 H1751 0.929 . S
C1761 C1759 1.433 . S
C1761 N1764 1.384 . S
C1762 H1753 0.929 . S
C1762 C1754 1.378 . S
C1762 C1757 1.350 . S
C1763 H1750 0.929 . S
C1763 C1755 1.433 . S
C1763 N1765 1.384 . S
N1764 C1760 1.427 . S
N1764 C1761 1.384 . S
N1765 C1757 1.427 . S
N1765 C1763 1.384 . S
H1766 C1772 0.930 . S
H1767 C1776 0.930 . S
H1768 C1781 0.929 . S
H1769 C1779 0.929 . S
H1770 C1774 0.929 . S
H1771 C1780 0.929 . S
C1772 H1766 0.930 . S
C1772 C1773 1.367 . S
C1772 C1780 1.378 . S
C1773 C1772 1.367 . S
C1773 C1781 1.433 . S
C1774 H1770 0.929 . S
C1774 C1776 1.378 . S
C1774 C1778 1.350 . S
C1775 C1778 1.463 . S
C1775 C1780 1.350 . S
C1775 N1783 1.427 . S
C1776 H1767 0.930 . S
C1776 C1774 1.378 . S
C1776 C1777 1.367 . S
C1777 C1776 1.367 . S
C1777 C1779 1.433 . S
C1778 C1774 1.350 . S
C1778 C1775 1.463 . S
C1778 N1782 1.427 . S
C1779 H1769 0.929 . S
C1779 C1777 1.433 . S
C1779 N1782 1.384 . S
C1780 H1771 0.929 . S
C1780 C1772 1.378 . S
C1780 C1775 1.350 . S
C1781 H1768 0.929 . S
C1781 C1773 1.433 . S
C1781 N1783 1.384 . S
N1782 C1778 1.427 . S
N1782 C1779 1.384 . S
N1783 C1775 1.427 . S
N1783 C1781 1.384 . S
H1784 C1790 0.930 . S
H1785 C1794 0.930 . S
H1786 C1799 0.929 . S
H1787 C1797 0.929 . S
H1788 C1792 0.929 . S
H1789 C1798 0.929 . S
C1790 H1784 0.930 . S
C1790 C1791 1.367 . S
C1790 C1798 1.378 . S
C1791 C1790 1.367 . S
C1791 C1799 1.433 . S
C1792 H1788 0.929 . S
C1792 C1794 1.378 . S
C1792 C1796 1.350 . S
C1793 C1796 1.463 . S
C1793 C1798 1.350 . S
C1793 N1801 1.427 . S
C1794 H1785 0.930 . S
C1794 C1792 1.378 . S
C1794 C1795 1.367 . S
C1795 C1794 1.367 . S
C1795 C1797 1.433 . S
C1796 C1792 1.350 . S
C1796 C1793 1.463 . S
C1796 N1800 1.427 . S
C1797 H1787 0.929 . S
C1797 C1795 1.433 . S
C1797 N1800 1.384 . S
C1798 H1789 0.929 . S
C1798 C1790 1.378 . S
C1798 C1793 1.350 . S
C1799 H1786 0.929 . S
C1799 C1791 1.433 . S
C1799 N1801 1.384 . S
N1800 C1796 1.427 . S
N1800 C1797 1.384 . S
N1801 C1793 1.427 . S
N1801 C1799 1.384 . S
H1802 C1808 0.930 . S
H1803 C1812 0.930 . S
H1804 C1817 0.929 . S
H1805 C1815 0.929 . S
H1806 C1810 0.929 . S
H1807 C1816 0.929 . S
C1808 H1802 0.930 . S
C1808 C1809 1.367 . S
C1808 C1816 1.378 . S
C1809 C1808 1.367 . S
C1809 C1817 1.433 . S
C1810 H1806 0.929 . S
C1810 C1812 1.378 . S
C1810 C1814 1.350 . S
C1811 C1814 1.463 . S
C1811 C1816 1.350 . S
C1811 N1819 1.427 . S
C1812 H1803 0.930 . S
C1812 C1810 1.378 . S
C1812 C1813 1.367 . S
C1813 C1812 1.367 . S
C1813 C1815 1.433 . S
C1814 C1810 1.350 . S
C1814 C1811 1.463 . S
C1814 N1818 1.427 . S
C1815 H1805 0.929 . S
C1815 C1813 1.433 . S
C1815 N1818 1.384 . S
C1816 H1807 0.929 . S
C1816 C1808 1.378 . S
C1816 C1811 1.350 . S
C1817 H1804 0.929 . S
C1817 C1809 1.433 . S
C1817 N1819 1.384 . S
N1818 C1814 1.427 . S
N1818 C1815 1.384 . S
N1819 C1811 1.427 . S
N1819 C1817 1.384 . S
H1820 C1826 0.930 . S
H1821 C1830 0.930 . S
H1822 C1835 0.929 . S
H1823 C1833 0.929 . S
H1824 C1828 0.929 . S
H1825 C1834 0.929 . S
C1826 H1820 0.930 . S
C1826 C1827 1.367 . S
C1826 C1834 1.378 . S
C1827 C1826 1.367 . S
C1827 C1835 1.433 . S
C1828 H1824 0.929 . S
C1828 C1830 1.378 . S
C1828 C1832 1.350 . S
C1829 C1832 1.463 . S
C1829 C1834 1.350 . S
C1829 N1837 1.427 . S
C1830 H1821 0.930 . S
C1830 C1828 1.378 . S
C1830 C1831 1.367 . S
C1831 C1830 1.367 . S
C1831 C1833 1.433 . S
C1832 C1828 1.350 . S
C1832 C1829 1.463 . S
C1832 N1836 1.427 . S
C1833 H1823 0.929 . S
C1833 C1831 1.433 . S
C1833 N1836 1.384 . S
C1834 H1825 0.929 . S
C1834 C1826 1.378 . S
C1834 C1829 1.350 . S
C1835 H1822 0.929 . S
C1835 C1827 1.433 . S
C1835 N1837 1.384 . S
N1836 C1832 1.427 . S
N1836 C1833 1.384 . S
N1837 C1829 1.427 . S
N1837 C1835 1.384 . S
H1838 C1844 0.930 . S
H1839 C1848 0.930 . S
H1840 C1853 0.929 . S
H1841 C1851 0.929 . S
H1842 C1846 0.929 . S
H1843 C1852 0.929 . S
C1844 H1838 0.930 . S
C1844 C1845 1.367 . S
C1844 C1852 1.378 . S
C1845 C1844 1.367 . S
C1845 C1853 1.433 . S
C1846 H1842 0.929 . S
C1846 C1848 1.378 . S
C1846 C1850 1.350 . S
C1847 C1850 1.463 . S
C1847 C1852 1.350 . S
C1847 N1855 1.427 . S
C1848 H1839 0.930 . S
C1848 C1846 1.378 . S
C1848 C1849 1.367 . S
C1849 C1848 1.367 . S
C1849 C1851 1.433 . S
C1850 C1846 1.350 . S
C1850 C1847 1.463 . S
C1850 N1854 1.427 . S
C1851 H1841 0.929 . S
C1851 C1849 1.433 . S
C1851 N1854 1.384 . S
C1852 H1843 0.929 . S
C1852 C1844 1.378 . S
C1852 C1847 1.350 . S
C1853 H1840 0.929 . S
C1853 C1845 1.433 . S
C1853 N1855 1.384 . S
N1854 C1850 1.427 . S
N1854 C1851 1.384 . S
N1855 C1847 1.427 . S
N1855 C1853 1.384 . S
H1856 C1862 0.930 . S
H1857 C1866 0.930 . S
H1858 C1871 0.929 . S
H1859 C1869 0.929 . S
H1860 C1864 0.929 . S
H1861 C1870 0.929 . S
C1862 H1856 0.930 . S
C1862 C1863 1.367 . S
C1862 C1870 1.378 . S
C1863 C1862 1.367 . S
C1863 C1871 1.433 . S
C1864 H1860 0.929 . S
C1864 C1866 1.378 . S
C1864 C1868 1.350 . S
C1865 C1868 1.463 1_455 S
C1865 C1870 1.350 . S
C1865 N1873 1.427 . S
C1866 H1857 0.930 . S
C1866 C1864 1.378 . S
C1866 C1867 1.367 . S
C1867 C1866 1.367 . S
C1867 C1869 1.433 . S
C1868 C1864 1.350 . S
C1868 C1865 1.463 1_655 S
C1868 N1872 1.427 . S
C1869 H1859 0.929 . S
C1869 C1867 1.433 . S
C1869 N1872 1.384 . S
C1870 H1861 0.929 . S
C1870 C1862 1.378 . S
C1870 C1865 1.350 . S
C1871 H1858 0.929 . S
C1871 C1863 1.433 . S
C1871 N1873 1.384 . S
N1872 C1868 1.427 . S
N1872 C1869 1.384 . S
N1873 C1865 1.427 . S
N1873 C1871 1.384 . S
H1874 C1880 0.930 . S
H1875 C1884 0.930 . S
H1876 C1889 0.929 . S
H1877 C1887 0.929 . S
H1878 C1882 0.929 . S
H1879 C1888 0.929 . S
C1880 H1874 0.930 . S
C1880 C1881 1.367 1_455 S
C1880 C1888 1.378 . S
C1881 C1880 1.367 1_655 S
C1881 C1889 1.433 . S
C1882 H1878 0.929 . S
C1882 C1884 1.378 . S
C1882 C1886 1.330 1_655 S
C1883 C1886 1.460 1_655 S
C1883 C1888 1.330 1_655 S
C1883 N1891 1.451 . S
C1884 H1875 0.930 . S
C1884 C1882 1.378 . S
C1884 C1885 1.367 1_655 S
C1885 C1884 1.367 1_455 S
C1885 C1887 1.433 . S
C1886 C1882 1.330 1_455 S
C1886 C1883 1.460 1_455 S
C1886 N1890 1.451 . S
C1887 H1877 0.929 . S
C1887 C1885 1.433 . S
C1887 N1890 1.384 . S
C1888 H1879 0.929 . S
C1888 C1880 1.378 . S
C1888 C1883 1.330 1_455 S
C1889 H1876 0.929 . S
C1889 C1881 1.433 . S
C1889 N1891 1.384 . S
N1890 C1886 1.451 . S
N1890 C1887 1.384 . S
N1891 C1883 1.451 . S
N1891 C1889 1.384 . S
H1892 C1898 0.930 . S
H1893 C1902 0.930 . S
H1894 C1907 0.929 . S
H1895 C1905 0.929 . S
H1896 C1900 0.929 . S
H1897 C1906 0.929 . S
C1898 H1892 0.930 . S
C1898 C1899 1.367 . S
C1898 C1906 1.378 . S
C1899 C1898 1.367 . S
C1899 C1907 1.433 . S
C1900 H1896 0.929 . S
C1900 C1902 1.378 . S
C1900 C1904 1.350 . S
C1901 C1904 1.463 . S
C1901 C1906 1.350 . S
C1901 N1909 1.427 . S
C1902 H1893 0.930 . S
C1902 C1900 1.378 . S
C1902 C1903 1.367 . S
C1903 C1902 1.367 . S
C1903 C1905 1.433 . S
C1904 C1900 1.350 . S
C1904 C1901 1.463 . S
C1904 N1908 1.427 . S
C1905 H1895 0.929 . S
C1905 C1903 1.433 . S
C1905 N1908 1.384 . S
C1906 H1897 0.929 . S
C1906 C1898 1.378 . S
C1906 C1901 1.350 . S
C1907 H1894 0.929 . S
C1907 C1899 1.433 . S
C1907 N1909 1.384 . S
N1908 C1904 1.427 . S
N1908 C1905 1.384 . S
N1909 C1901 1.427 . S
N1909 C1907 1.384 . S
H1910 C1916 0.930 . S
H1911 C1920 0.930 . S
H1912 C1925 0.929 . S
H1913 C1923 0.929 . S
H1914 C1918 0.929 . S
H1915 C1924 0.929 . S
C1916 H1910 0.930 . S
C1916 C1917 1.367 . S
C1916 C1924 1.378 . S
C1917 C1916 1.367 . S
C1917 C1925 1.433 . S
C1918 H1914 0.929 . S
C1918 C1920 1.378 . S
C1918 C1922 1.350 . S
C1919 C1922 1.463 . S
C1919 C1924 1.350 . S
C1919 N1927 1.427 . S
C1920 H1911 0.930 . S
C1920 C1918 1.378 . S
C1920 C1921 1.367 . S
C1921 C1920 1.367 . S
C1921 C1923 1.433 . S
C1922 C1918 1.350 . S
C1922 C1919 1.463 . S
C1922 N1926 1.427 . S
C1923 H1913 0.929 . S
C1923 C1921 1.433 . S
C1923 N1926 1.384 . S
C1924 H1915 0.929 . S
C1924 C1916 1.378 . S
C1924 C1919 1.350 . S
C1925 H1912 0.929 . S
C1925 C1917 1.433 . S
C1925 N1927 1.384 . S
N1926 C1922 1.427 . S
N1926 C1923 1.384 . S
N1927 C1919 1.427 . S
N1927 C1925 1.384 . S
H1928 C1934 0.930 . S
H1929 C1938 0.930 . S
H1930 C1943 0.929 . S
H1931 C1941 0.929 . S
H1932 C1936 0.929 . S
H1933 C1942 0.929 . S
C1934 H1928 0.930 . S
C1934 C1935 1.367 . S
C1934 C1942 1.378 . S
C1935 C1934 1.367 . S
C1935 C1943 1.433 . S
C1936 H1932 0.929 . S
C1936 C1938 1.378 . S
C1936 C1940 1.350 . S
C1937 C1940 1.463 1_655 S
C1937 C1942 1.350 . S
C1937 N1945 1.427 . S
C1938 H1929 0.930 . S
C1938 C1936 1.378 . S
C1938 C1939 1.367 . S
C1939 C1938 1.367 . S
C1939 C1941 1.433 . S
C1940 C1936 1.350 . S
C1940 C1937 1.463 1_455 S
C1940 N1944 1.427 . S
C1941 H1931 0.929 . S
C1941 C1939 1.433 . S
C1941 N1944 1.384 . S
C1942 H1933 0.929 . S
C1942 C1934 1.378 . S
C1942 C1937 1.350 . S
C1943 H1930 0.929 . S
C1943 C1935 1.433 . S
C1943 N1945 1.384 . S
N1944 C1940 1.427 . S
N1944 C1941 1.384 . S
N1945 C1937 1.427 . S
N1945 C1943 1.384 . S
H1946 C1952 0.930 . S
H1947 C1956 0.930 . S
H1948 C1961 0.929 . S
H1949 C1959 0.929 . S
H1950 C1954 0.929 . S
H1951 C1960 0.929 . S
C1952 H1946 0.930 . S
C1952 C1953 1.367 . S
C1952 C1960 1.378 . S
C1953 C1952 1.367 . S
C1953 C1961 1.433 . S
C1954 H1950 0.929 . S
C1954 C1956 1.378 . S
C1954 C1958 1.350 . S
C1955 C1958 1.463 . S
C1955 C1960 1.350 . S
C1955 N1963 1.427 . S
C1956 H1947 0.930 . S
C1956 C1954 1.378 . S
C1956 C1957 1.367 . S
C1957 C1956 1.367 . S
C1957 C1959 1.433 . S
C1958 C1954 1.350 . S
C1958 C1955 1.463 . S
C1958 N1962 1.427 . S
C1959 H1949 0.929 . S
C1959 C1957 1.433 . S
C1959 N1962 1.384 . S
C1960 H1951 0.929 . S
C1960 C1952 1.378 . S
C1960 C1955 1.350 . S
C1961 H1948 0.929 . S
C1961 C1953 1.433 . S
C1961 N1963 1.384 . S
N1962 C1958 1.427 . S
N1962 C1959 1.384 . S
N1963 C1955 1.427 . S
N1963 C1961 1.384 . S
H1964 C1970 0.930 . S
H1965 C1974 0.930 . S
H1966 C1979 0.929 . S
H1967 C1977 0.929 . S
H1968 C1972 0.929 . S
H1969 C1978 0.929 . S
C1970 H1964 0.930 . S
C1970 C1971 1.367 . S
C1970 C1978 1.378 . S
C1971 C1970 1.367 . S
C1971 C1979 1.433 . S
C1972 H1968 0.929 . S
C1972 C1974 1.378 . S
C1972 C1976 1.350 . S
C1973 C1976 1.463 . S
C1973 C1978 1.350 . S
C1973 N1981 1.427 . S
C1974 H1965 0.930 . S
C1974 C1972 1.378 . S
C1974 C1975 1.367 . S
C1975 C1974 1.367 . S
C1975 C1977 1.433 . S
C1976 C1972 1.350 . S
C1976 C1973 1.463 . S
C1976 N1980 1.427 . S
C1977 H1967 0.929 . S
C1977 C1975 1.433 . S
C1977 N1980 1.384 . S
C1978 H1969 0.929 . S
C1978 C1970 1.378 . S
C1978 C1973 1.350 . S
C1979 H1966 0.929 . S
C1979 C1971 1.433 . S
C1979 N1981 1.384 . S
N1980 C1976 1.427 . S
N1980 C1977 1.384 . S
N1981 C1973 1.427 . S
N1981 C1979 1.384 . S
H1982 C1988 0.930 . S
H1983 C1992 0.930 . S
H1984 C1997 0.929 . S
H1985 C1995 0.929 . S
H1986 C1990 0.929 . S
H1987 C1996 0.929 . S
C1988 H1982 0.930 . S
C1988 C1989 1.367 1_655 S
C1988 C1996 1.378 . S
C1989 C1988 1.367 1_455 S
C1989 C1997 1.433 . S
C1990 H1986 0.929 . S
C1990 C1992 1.378 . S
C1990 C1994 1.330 1_455 S
C1991 C1994 1.460 1_455 S
C1991 C1996 1.330 1_455 S
C1991 N1999 1.451 . S
C1992 H1983 0.930 . S
C1992 C1990 1.378 . S
C1992 C1993 1.367 1_455 S
C1993 C1992 1.367 1_655 S
C1993 C1995 1.433 . S
C1994 C1990 1.330 1_655 S
C1994 C1991 1.460 1_655 S
C1994 N1998 1.451 . S
C1995 H1985 0.929 . S
C1995 C1993 1.433 . S
C1995 N1998 1.384 . S
C1996 H1987 0.929 . S
C1996 C1988 1.378 . S
C1996 C1991 1.330 1_655 S
C1997 H1984 0.929 . S
C1997 C1989 1.433 . S
C1997 N1999 1.384 . S
N1998 C1994 1.451 . S
N1998 C1995 1.384 . S
N1999 C1991 1.451 . S
N1999 C1997 1.384 . S
H2000 C2006 0.930 . S
H2001 C2010 0.930 . S
H2002 C2015 0.929 . S
H2003 C2013 0.929 . S
H2004 C2008 0.929 . S
H2005 C2014 0.929 . S
C2006 H2000 0.930 . S
C2006 C2007 1.367 . S
C2006 C2014 1.378 . S
C2007 C2006 1.367 . S
C2007 C2015 1.433 . S
C2008 H2004 0.929 . S
C2008 C2010 1.378 . S
C2008 C2012 1.350 . S
C2009 C2012 1.463 1_455 S
C2009 C2014 1.350 . S
C2009 N2017 1.427 . S
C2010 H2001 0.930 . S
C2010 C2008 1.378 . S
C2010 C2011 1.367 . S
C2011 C2010 1.367 . S
C2011 C2013 1.433 . S
C2012 C2008 1.350 . S
C2012 C2009 1.463 1_655 S
C2012 N2016 1.427 . S
C2013 H2003 0.929 . S
C2013 C2011 1.433 . S
C2013 N2016 1.384 . S
C2014 H2005 0.929 . S
C2014 C2006 1.378 . S
C2014 C2009 1.350 . S
C2015 H2002 0.929 . S
C2015 C2007 1.433 . S
C2015 N2017 1.384 . S
N2016 C2012 1.427 . S
N2016 C2013 1.384 . S
N2017 C2009 1.427 . S
N2017 C2015 1.384 . S
H2018 C2024 0.930 . S
H2019 C2028 0.930 . S
H2020 C2033 0.929 . S
H2021 C2031 0.929 . S
H2022 C2026 0.929 . S
H2023 C2032 0.929 . S
C2024 H2018 0.930 . S
C2024 C2025 1.367 1_455 S
C2024 C2032 1.378 . S
C2025 C2024 1.367 1_655 S
C2025 C2033 1.433 . S
C2026 H2022 0.929 . S
C2026 C2028 1.378 . S
C2026 C2030 1.329 1_655 S
C2027 C2030 1.461 1_655 S
C2027 C2032 1.329 1_655 S
C2027 N2035 1.452 . S
C2028 H2019 0.930 . S
C2028 C2026 1.378 . S
C2028 C2029 1.367 1_655 S
C2029 C2028 1.367 1_455 S
C2029 C2031 1.433 . S
C2030 C2026 1.329 1_455 S
C2030 C2027 1.461 1_455 S
C2030 N2034 1.452 . S
C2031 H2021 0.929 . S
C2031 C2029 1.433 . S
C2031 N2034 1.384 . S
C2032 H2023 0.929 . S
C2032 C2024 1.378 . S
C2032 C2027 1.329 1_455 S
C2033 H2020 0.929 . S
C2033 C2025 1.433 . S
C2033 N2035 1.384 . S
N2034 C2030 1.452 . S
N2034 C2031 1.384 . S
N2035 C2027 1.452 . S
N2035 C2033 1.384 . S
H2036 C2042 0.930 . S
H2037 C2046 0.930 . S
H2038 C2051 0.929 . S
H2039 C2049 0.929 . S
H2040 C2044 0.929 . S
H2041 C2050 0.929 . S
C2042 H2036 0.930 . S
C2042 C2043 1.367 . S
C2042 C2050 1.378 . S
C2043 C2042 1.367 . S
C2043 C2051 1.433 . S
C2044 H2040 0.929 . S
C2044 C2046 1.378 . S
C2044 C2048 1.350 . S
C2045 C2048 1.463 . S
C2045 C2050 1.350 . S
C2045 N2053 1.427 . S
C2046 H2037 0.930 . S
C2046 C2044 1.378 . S
C2046 C2047 1.367 . S
C2047 C2046 1.367 . S
C2047 C2049 1.433 . S
C2048 C2044 1.350 . S
C2048 C2045 1.463 . S
C2048 N2052 1.427 . S
C2049 H2039 0.929 . S
C2049 C2047 1.433 . S
C2049 N2052 1.384 . S
C2050 H2041 0.929 . S
C2050 C2042 1.378 . S
C2050 C2045 1.350 . S
C2051 H2038 0.929 . S
C2051 C2043 1.433 . S
C2051 N2053 1.384 . S
N2052 C2048 1.427 . S
N2052 C2049 1.384 . S
N2053 C2045 1.427 . S
N2053 C2051 1.384 . S
H2054 C2060 0.930 . S
H2055 C2064 0.930 . S
H2056 C2069 0.929 . S
H2057 C2067 0.929 . S
H2058 C2062 0.929 . S
H2059 C2068 0.929 . S
C2060 H2054 0.930 . S
C2060 C2061 1.367 . S
C2060 C2068 1.378 . S
C2061 C2060 1.367 . S
C2061 C2069 1.433 . S
C2062 H2058 0.929 . S
C2062 C2064 1.378 . S
C2062 C2066 1.350 . S
C2063 C2066 1.463 . S
C2063 C2068 1.350 . S
C2063 N2071 1.427 . S
C2064 H2055 0.930 . S
C2064 C2062 1.378 . S
C2064 C2065 1.367 . S
C2065 C2064 1.367 . S
C2065 C2067 1.433 . S
C2066 C2062 1.350 . S
C2066 C2063 1.463 . S
C2066 N2070 1.427 . S
C2067 H2057 0.929 . S
C2067 C2065 1.433 . S
C2067 N2070 1.384 . S
C2068 H2059 0.929 . S
C2068 C2060 1.378 . S
C2068 C2063 1.350 . S
C2069 H2056 0.929 . S
C2069 C2061 1.433 . S
C2069 N2071 1.384 . S
N2070 C2066 1.427 . S
N2070 C2067 1.384 . S
N2071 C2063 1.427 . S
N2071 C2069 1.384 . S
H2072 C2078 0.930 . S
H2073 C2082 0.930 . S
H2074 C2087 0.929 . S
H2075 C2085 0.929 . S
H2076 C2080 0.929 . S
H2077 C2086 0.929 . S
C2078 H2072 0.930 . S
C2078 C2079 1.367 . S
C2078 C2086 1.378 . S
C2079 C2078 1.367 . S
C2079 C2087 1.433 . S
C2080 H2076 0.929 . S
C2080 C2082 1.378 . S
C2080 C2084 1.350 . S
C2081 C2084 1.463 1_455 S
C2081 C2086 1.350 . S
C2081 N2089 1.427 . S
C2082 H2073 0.930 . S
C2082 C2080 1.378 . S
C2082 C2083 1.367 . S
C2083 C2082 1.367 . S
C2083 C2085 1.433 . S
C2084 C2080 1.350 . S
C2084 C2081 1.463 1_655 S
C2084 N2088 1.427 . S
C2085 H2075 0.929 . S
C2085 C2083 1.433 . S
C2085 N2088 1.384 . S
C2086 H2077 0.929 . S
C2086 C2078 1.378 . S
C2086 C2081 1.350 . S
C2087 H2074 0.929 . S
C2087 C2079 1.433 . S
C2087 N2089 1.384 . S
N2088 C2084 1.427 . S
N2088 C2085 1.384 . S
N2089 C2081 1.427 . S
N2089 C2087 1.384 . S
H2090 C2096 0.930 . S
H2091 C2100 0.930 . S
H2092 C2105 0.929 . S
H2093 C2103 0.929 . S
H2094 C2098 0.929 . S
H2095 C2104 0.929 . S
C2096 H2090 0.930 . S
C2096 C2097 1.367 . S
C2096 C2104 1.378 . S
C2097 C2096 1.367 . S
C2097 C2105 1.433 . S
C2098 H2094 0.929 . S
C2098 C2100 1.378 . S
C2098 C2102 1.350 . S
C2099 C2102 1.463 . S
C2099 C2104 1.350 . S
C2099 N2107 1.427 . S
C2100 H2091 0.930 . S
C2100 C2098 1.378 . S
C2100 C2101 1.367 . S
C2101 C2100 1.367 . S
C2101 C2103 1.433 . S
C2102 C2098 1.350 . S
C2102 C2099 1.463 . S
C2102 N2106 1.427 . S
C2103 H2093 0.929 . S
C2103 C2101 1.433 . S
C2103 N2106 1.384 . S
C2104 H2095 0.929 . S
C2104 C2096 1.378 . S
C2104 C2099 1.350 . S
C2105 H2092 0.929 . S
C2105 C2097 1.433 . S
C2105 N2107 1.384 . S
N2106 C2102 1.427 . S
N2106 C2103 1.384 . S
N2107 C2099 1.427 . S
N2107 C2105 1.384 . S
H2108 C2114 0.930 . S
H2109 C2118 0.930 . S
H2110 C2123 0.929 . S
H2111 C2121 0.929 . S
H2112 C2116 0.929 . S
H2113 C2122 0.929 . S
C2114 H2108 0.930 . S
C2114 C2115 1.367 . S
C2114 C2122 1.378 . S
C2115 C2114 1.367 . S
C2115 C2123 1.433 . S
C2116 H2112 0.929 . S
C2116 C2118 1.378 . S
C2116 C2120 1.350 . S
C2117 C2120 1.463 . S
C2117 C2122 1.350 . S
C2117 N2125 1.427 . S
C2118 H2109 0.930 . S
C2118 C2116 1.378 . S
C2118 C2119 1.367 . S
C2119 C2118 1.367 . S
C2119 C2121 1.433 . S
C2120 C2116 1.350 . S
C2120 C2117 1.463 . S
C2120 N2124 1.427 . S
C2121 H2111 0.929 . S
C2121 C2119 1.433 . S
C2121 N2124 1.384 . S
C2122 H2113 0.929 . S
C2122 C2114 1.378 . S
C2122 C2117 1.350 . S
C2123 H2110 0.929 . S
C2123 C2115 1.433 . S
C2123 N2125 1.384 . S
N2124 C2120 1.427 . S
N2124 C2121 1.384 . S
N2125 C2117 1.427 . S
N2125 C2123 1.384 . S
H2126 C2132 0.930 . S
H2127 C2136 0.930 . S
H2128 C2141 0.929 . S
H2129 C2139 0.929 . S
H2130 C2134 0.929 . S
H2131 C2140 0.929 . S
C2132 H2126 0.930 . S
C2132 C2133 1.367 1_455 S
C2132 C2140 1.378 . S
C2133 C2132 1.367 1_655 S
C2133 C2141 1.433 . S
C2134 H2130 0.929 . S
C2134 C2136 1.378 . S
C2134 C2138 1.329 1_655 S
C2135 C2138 1.461 1_655 S
C2135 C2140 1.329 1_655 S
C2135 N2143 1.452 . S
C2136 H2127 0.930 . S
C2136 C2134 1.378 . S
C2136 C2137 1.367 1_655 S
C2137 C2136 1.367 1_455 S
C2137 C2139 1.433 . S
C2138 C2134 1.329 1_455 S
C2138 C2135 1.461 1_455 S
C2138 N2142 1.452 . S
C2139 H2129 0.929 . S
C2139 C2137 1.433 . S
C2139 N2142 1.384 . S
C2140 H2131 0.929 . S
C2140 C2132 1.378 . S
C2140 C2135 1.329 1_455 S
C2141 H2128 0.929 . S
C2141 C2133 1.433 . S
C2141 N2143 1.384 . S
N2142 C2138 1.452 . S
N2142 C2139 1.384 . S
N2143 C2135 1.452 . S
N2143 C2141 1.384 . S
H2144 C2150 0.930 . S
H2145 C2154 0.930 . S
H2146 C2159 0.929 . S
H2147 C2157 0.929 . S
H2148 C2152 0.929 . S
H2149 C2158 0.929 . S
C2150 H2144 0.930 . S
C2150 C2151 1.367 . S
C2150 C2158 1.378 . S
C2151 C2150 1.367 . S
C2151 C2159 1.433 . S
C2152 H2148 0.929 . S
C2152 C2154 1.378 . S
C2152 C2156 1.350 . S
C2153 C2156 1.463 . S
C2153 C2158 1.350 . S
C2153 N2161 1.427 . S
C2154 H2145 0.930 . S
C2154 C2152 1.378 . S
C2154 C2155 1.367 . S
C2155 C2154 1.367 . S
C2155 C2157 1.433 . S
C2156 C2152 1.350 . S
C2156 C2153 1.463 . S
C2156 N2160 1.427 . S
C2157 H2147 0.929 . S
C2157 C2155 1.433 . S
C2157 N2160 1.384 . S
C2158 H2149 0.929 . S
C2158 C2150 1.378 . S
C2158 C2153 1.350 . S
C2159 H2146 0.929 . S
C2159 C2151 1.433 . S
C2159 N2161 1.384 . S
N2160 C2156 1.427 . S
N2160 C2157 1.384 . S
N2161 C2153 1.427 . S
N2161 C2159 1.384 . S
H2162 C2168 0.930 . S
H2163 C2172 0.930 . S
H2164 C2177 0.929 1_455 S
H2165 C2175 0.929 1_655 S
H2166 C2170 0.929 . S
H2167 C2176 0.929 . S
C2168 H2162 0.930 . S
C2168 C2169 1.367 . S
C2168 C2176 1.378 . S
C2169 C2168 1.367 . S
C2169 C2177 1.433 1_545 S
C2170 H2166 0.929 . S
C2170 C2172 1.378 . S
C2170 C2174 1.350 . S
C2171 C2174 1.463 1_645 S
C2171 C2176 1.350 . S
C2171 N2179 1.427 1_645 S
C2172 H2163 0.930 . S
C2172 C2170 1.378 . S
C2172 C2173 1.367 . S
C2173 C2172 1.367 . S
C2173 C2175 1.433 1_565 S
C2174 C2170 1.350 . S
C2174 C2171 1.463 1_465 S
C2174 N2178 1.427 1_465 S
C2175 H2165 0.929 1_455 S
C2175 C2173 1.433 1_545 S
C2175 N2178 1.384 1_455 S
C2176 H2167 0.929 . S
C2176 C2168 1.378 . S
C2176 C2171 1.350 . S
C2177 H2164 0.929 1_655 S
C2177 C2169 1.433 1_565 S
C2177 N2179 1.384 1_655 S
N2178 C2174 1.427 1_645 S
N2178 C2175 1.384 1_655 S
N2179 C2171 1.427 1_465 S
N2179 C2177 1.384 1_455 S
H2180 C2186 0.930 . S
H2181 C2190 0.930 . S
H2182 C2195 0.929 . S
H2183 C2193 0.929 . S
H2184 C2188 0.929 . S
H2185 C2194 0.929 . S
C2186 H2180 0.930 . S
C2186 C2187 1.367 . S
C2186 C2194 1.378 . S
C2187 C2186 1.367 . S
C2187 C2195 1.433 . S
C2188 H2184 0.929 . S
C2188 C2190 1.378 . S
C2188 C2192 1.350 . S
C2189 C2192 1.463 . S
C2189 C2194 1.350 . S
C2189 N2197 1.427 . S
C2190 H2181 0.930 . S
C2190 C2188 1.378 . S
C2190 C2191 1.367 . S
C2191 C2190 1.367 . S
C2191 C2193 1.433 . S
C2192 C2188 1.350 . S
C2192 C2189 1.463 . S
C2192 N2196 1.427 . S
C2193 H2183 0.929 . S
C2193 C2191 1.433 . S
C2193 N2196 1.384 . S
C2194 H2185 0.929 . S
C2194 C2186 1.378 . S
C2194 C2189 1.350 . S
C2195 H2182 0.929 . S
C2195 C2187 1.433 . S
C2195 N2197 1.384 . S
N2196 C2192 1.427 . S
N2196 C2193 1.384 . S
N2197 C2189 1.427 . S
N2197 C2195 1.384 . S
H2198 C2204 0.932 . S
H2199 C2208 0.932 . S
H2200 C2213 0.929 . S
H2201 C2211 0.929 . S
H2202 C2206 0.929 . S
H2203 C2212 0.929 . S
C2204 H2198 0.932 . S
C2204 C2205 1.364 1_565 S
C2204 C2212 1.379 . S
C2205 C2204 1.364 1_545 S
C2205 C2213 1.433 . S
C2206 H2202 0.929 . S
C2206 C2208 1.379 . S
C2206 C2210 1.350 1_545 S
C2207 C2210 1.463 1_544 S
C2207 C2212 1.350 1_545 S
C2207 N2215 1.427 . S
C2208 H2199 0.932 . S
C2208 C2206 1.379 . S
C2208 C2209 1.364 1_545 S
C2209 C2208 1.364 1_565 S
C2209 C2211 1.433 . S
C2210 C2206 1.350 1_565 S
C2210 C2207 1.463 1_566 S
C2210 N2214 1.427 . S
C2211 H2201 0.929 . S
C2211 C2209 1.433 . S
C2211 N2214 1.384 . S
C2212 H2203 0.929 . S
C2212 C2204 1.379 . S
C2212 C2207 1.350 1_565 S
C2213 H2200 0.929 . S
C2213 C2205 1.433 . S
C2213 N2215 1.384 . S
N2214 C2210 1.427 . S
N2214 C2211 1.384 . S
N2215 C2207 1.427 . S
N2215 C2213 1.384 . S
H2216 C2222 0.930 . S
H2217 C2226 0.930 . S
H2218 C2231 0.929 . S
H2219 C2229 0.929 . S
H2220 C2224 0.929 . S
H2221 C2230 0.929 . S
C2222 H2216 0.930 . S
C2222 C2223 1.367 . S
C2222 C2230 1.378 . S
C2223 C2222 1.367 . S
C2223 C2231 1.433 . S
C2224 H2220 0.929 . S
C2224 C2226 1.378 . S
C2224 C2228 1.350 . S
C2225 C2228 1.463 . S
C2225 C2230 1.350 . S
C2225 N2233 1.427 . S
C2226 H2217 0.930 . S
C2226 C2224 1.378 . S
C2226 C2227 1.367 . S
C2227 C2226 1.367 . S
C2227 C2229 1.433 . S
C2228 C2224 1.350 . S
C2228 C2225 1.463 . S
C2228 N2232 1.427 . S
C2229 H2219 0.929 . S
C2229 C2227 1.433 . S
C2229 N2232 1.384 . S
C2230 H2221 0.929 . S
C2230 C2222 1.378 . S
C2230 C2225 1.350 . S
C2231 H2218 0.929 . S
C2231 C2223 1.433 . S
C2231 N2233 1.384 . S
N2232 C2228 1.427 . S
N2232 C2229 1.384 . S
N2233 C2225 1.427 . S
N2233 C2231 1.384 . S
H2234 C2240 0.930 . S
H2235 C2244 0.930 . S
H2236 C2249 0.929 . S
H2237 C2247 0.929 . S
H2238 C2242 0.929 . S
H2239 C2248 0.929 . S
C2240 H2234 0.930 . S
C2240 C2241 1.367 1_565 S
C2240 C2248 1.378 . S
C2241 C2240 1.367 1_545 S
C2241 C2249 1.433 . S
C2242 H2238 0.929 . S
C2242 C2244 1.378 . S
C2242 C2246 1.333 1_545 S
C2243 C2246 1.461 1_545 S
C2243 C2248 1.333 1_545 S
C2243 N2251 1.447 . S
C2244 H2235 0.930 . S
C2244 C2242 1.378 . S
C2244 C2245 1.367 1_545 S
C2245 C2244 1.367 1_565 S
C2245 C2247 1.433 . S
C2246 C2242 1.333 1_565 S
C2246 C2243 1.461 1_565 S
C2246 N2250 1.447 . S
C2247 H2237 0.929 . S
C2247 C2245 1.433 . S
C2247 N2250 1.384 . S
C2248 H2239 0.929 . S
C2248 C2240 1.378 . S
C2248 C2243 1.333 1_565 S
C2249 H2236 0.929 . S
C2249 C2241 1.433 . S
C2249 N2251 1.384 . S
N2250 C2246 1.447 . S
N2250 C2247 1.384 . S
N2251 C2243 1.447 . S
N2251 C2249 1.384 . S
H2252 C2258 0.930 . S
H2253 C2262 0.930 . S
H2254 C2267 0.929 . S
H2255 C2265 0.929 . S
H2256 C2260 0.929 . S
H2257 C2266 0.929 . S
C2258 H2252 0.930 . S
C2258 C2259 1.367 . S
C2258 C2266 1.378 . S
C2259 C2258 1.367 . S
C2259 C2267 1.433 . S
C2260 H2256 0.929 . S
C2260 C2262 1.378 . S
C2260 C2264 1.350 . S
C2261 C2264 1.463 . S
C2261 C2266 1.350 . S
C2261 N2269 1.427 . S
C2262 H2253 0.930 . S
C2262 C2260 1.378 . S
C2262 C2263 1.367 . S
C2263 C2262 1.367 . S
C2263 C2265 1.433 . S
C2264 C2260 1.350 . S
C2264 C2261 1.463 . S
C2264 N2268 1.427 . S
C2265 H2255 0.929 . S
C2265 C2263 1.433 . S
C2265 N2268 1.384 . S
C2266 H2257 0.929 . S
C2266 C2258 1.378 . S
C2266 C2261 1.350 . S
C2267 H2254 0.929 . S
C2267 C2259 1.433 . S
C2267 N2269 1.384 . S
N2268 C2264 1.427 . S
N2268 C2265 1.384 . S
N2269 C2261 1.427 . S
N2269 C2267 1.384 . S
H2270 C2276 0.930 . S
H2271 C2280 0.930 . S
H2272 C2285 0.929 . S
H2273 C2283 0.929 . S
H2274 C2278 0.929 . S
H2275 C2284 0.929 . S
C2276 H2270 0.930 . S
C2276 C2277 1.367 . S
C2276 C2284 1.378 . S
C2277 C2276 1.367 . S
C2277 C2285 1.433 1_545 S
C2278 H2274 0.929 . S
C2278 C2280 1.378 . S
C2278 C2282 1.350 . S
C2279 C2282 1.463 1_446 S
C2279 C2284 1.350 . S
C2279 N2287 1.427 1_545 S
C2280 H2271 0.930 . S
C2280 C2278 1.378 . S
C2280 C2281 1.367 . S
C2281 C2280 1.367 . S
C2281 C2283 1.433 1_565 S
C2282 C2278 1.350 . S
C2282 C2279 1.463 1_664 S
C2282 N2286 1.427 1_565 S
C2283 H2273 0.929 . S
C2283 C2281 1.433 1_545 S
C2283 N2286 1.384 . S
C2284 H2275 0.929 . S
C2284 C2276 1.378 . S
C2284 C2279 1.350 . S
C2285 H2272 0.929 . S
C2285 C2277 1.433 1_565 S
C2285 N2287 1.384 . S
N2286 C2282 1.427 1_545 S
N2286 C2283 1.384 . S
N2287 C2279 1.427 1_565 S
N2287 C2285 1.384 . S
H2288 C2294 0.930 . S
H2289 C2298 0.930 . S
H2290 C2303 0.929 . S
H2291 C2301 0.929 . S
H2292 C2296 0.929 . S
H2293 C2302 0.929 . S
C2294 H2288 0.930 . S
C2294 C2295 1.367 . S
C2294 C2302 1.378 . S
C2295 C2294 1.367 . S
C2295 C2303 1.433 . S
C2296 H2292 0.929 . S
C2296 C2298 1.378 . S
C2296 C2300 1.350 . S
C2297 C2300 1.463 . S
C2297 C2302 1.350 . S
C2297 N2305 1.427 . S
C2298 H2289 0.930 . S
C2298 C2296 1.378 . S
C2298 C2299 1.367 . S
C2299 C2298 1.367 . S
C2299 C2301 1.433 . S
C2300 C2296 1.350 . S
C2300 C2297 1.463 . S
C2300 N2304 1.427 . S
C2301 H2291 0.929 . S
C2301 C2299 1.433 . S
C2301 N2304 1.384 . S
C2302 H2293 0.929 . S
C2302 C2294 1.378 . S
C2302 C2297 1.350 . S
C2303 H2290 0.929 . S
C2303 C2295 1.433 . S
C2303 N2305 1.384 . S
N2304 C2300 1.427 . S
N2304 C2301 1.384 . S
N2305 C2297 1.427 . S
N2305 C2303 1.384 . S
H2306 C2312 0.930 . S
H2307 C2316 0.930 . S
H2308 C2321 0.929 . S
H2309 C2319 0.929 . S
H2310 C2314 0.929 . S
H2311 C2320 0.929 . S
C2312 H2306 0.930 . S
C2312 C2313 1.367 . S
C2312 C2320 1.378 . S
C2313 C2312 1.367 . S
C2313 C2321 1.433 . S
C2314 H2310 0.929 . S
C2314 C2316 1.378 . S
C2314 C2318 1.350 . S
C2315 C2318 1.463 . S
C2315 C2320 1.350 . S
C2315 N2323 1.427 . S
C2316 H2307 0.930 . S
C2316 C2314 1.378 . S
C2316 C2317 1.367 . S
C2317 C2316 1.367 . S
C2317 C2319 1.433 . S
C2318 C2314 1.350 . S
C2318 C2315 1.463 . S
C2318 N2322 1.427 . S
C2319 H2309 0.929 . S
C2319 C2317 1.433 . S
C2319 N2322 1.384 . S
C2320 H2311 0.929 . S
C2320 C2312 1.378 . S
C2320 C2315 1.350 . S
C2321 H2308 0.929 . S
C2321 C2313 1.433 . S
C2321 N2323 1.384 . S
N2322 C2318 1.427 . S
N2322 C2319 1.384 . S
N2323 C2315 1.427 . S
N2323 C2321 1.384 . S
H2324 C2330 0.930 . S
H2325 C2334 0.930 . S
H2326 C2339 0.929 . S
H2327 C2337 0.929 . S
H2328 C2332 0.929 . S
H2329 C2338 0.929 . S
C2330 H2324 0.930 . S
C2330 C2331 1.367 . S
C2330 C2338 1.378 . S
C2331 C2330 1.367 . S
C2331 C2339 1.433 . S
C2332 H2328 0.929 . S
C2332 C2334 1.378 . S
C2332 C2336 1.350 . S
C2333 C2336 1.463 . S
C2333 C2338 1.350 . S
C2333 N2341 1.427 . S
C2334 H2325 0.930 . S
C2334 C2332 1.378 . S
C2334 C2335 1.367 . S
C2335 C2334 1.367 . S
C2335 C2337 1.433 . S
C2336 C2332 1.350 . S
C2336 C2333 1.463 . S
C2336 N2340 1.427 . S
C2337 H2327 0.929 . S
C2337 C2335 1.433 . S
C2337 N2340 1.384 . S
C2338 H2329 0.929 . S
C2338 C2330 1.378 . S
C2338 C2333 1.350 . S
C2339 H2326 0.929 . S
C2339 C2331 1.433 . S
C2339 N2341 1.384 . S
N2340 C2336 1.427 . S
N2340 C2337 1.384 . S
N2341 C2333 1.427 . S
N2341 C2339 1.384 . S
H2342 C2348 0.930 . S
H2343 C2352 0.930 . S
H2344 C2357 0.929 . S
H2345 C2355 0.929 . S
H2346 C2350 0.929 . S
H2347 C2356 0.929 . S
C2348 H2342 0.930 . S
C2348 C2349 1.367 . S
C2348 C2356 1.378 . S
C2349 C2348 1.367 . S
C2349 C2357 1.433 . S
C2350 H2346 0.929 . S
C2350 C2352 1.378 . S
C2350 C2354 1.350 . S
C2351 C2354 1.463 . S
C2351 C2356 1.350 . S
C2351 N2359 1.427 . S
C2352 H2343 0.930 . S
C2352 C2350 1.378 . S
C2352 C2353 1.367 . S
C2353 C2352 1.367 . S
C2353 C2355 1.433 . S
C2354 C2350 1.350 . S
C2354 C2351 1.463 . S
C2354 N2358 1.427 . S
C2355 H2345 0.929 . S
C2355 C2353 1.433 . S
C2355 N2358 1.384 . S
C2356 H2347 0.929 . S
C2356 C2348 1.378 . S
C2356 C2351 1.350 . S
C2357 H2344 0.929 . S
C2357 C2349 1.433 . S
C2357 N2359 1.384 . S
N2358 C2354 1.427 . S
N2358 C2355 1.384 . S
N2359 C2351 1.427 . S
N2359 C2357 1.384 . S
H2360 C2366 0.930 . S
H2361 C2370 0.930 . S
H2362 C2375 0.929 . S
H2363 C2373 0.929 . S
H2364 C2368 0.929 . S
H2365 C2374 0.929 . S
C2366 H2360 0.930 . S
C2366 C2367 1.367 . S
C2366 C2374 1.378 . S
C2367 C2366 1.367 . S
C2367 C2375 1.433 . S
C2368 H2364 0.929 . S
C2368 C2370 1.378 . S
C2368 C2372 1.350 . S
C2369 C2372 1.463 1_554 S
C2369 C2374 1.350 . S
C2369 N2377 1.427 . S
C2370 H2361 0.930 . S
C2370 C2368 1.378 . S
C2370 C2371 1.367 . S
C2371 C2370 1.367 . S
C2371 C2373 1.433 . S
C2372 C2368 1.350 . S
C2372 C2369 1.463 1_556 S
C2372 N2376 1.427 . S
C2373 H2363 0.929 . S
C2373 C2371 1.433 . S
C2373 N2376 1.384 . S
C2374 H2365 0.929 . S
C2374 C2366 1.378 . S
C2374 C2369 1.350 . S
C2375 H2362 0.929 . S
C2375 C2367 1.433 . S
C2375 N2377 1.384 . S
N2376 C2372 1.427 . S
N2376 C2373 1.384 . S
N2377 C2369 1.427 . S
N2377 C2375 1.384 . S
H2378 C2384 0.930 . S
H2379 C2388 0.930 . S
H2380 C2393 0.929 . S
H2381 C2391 0.929 . S
H2382 C2386 0.929 . S
H2383 C2392 0.929 . S
C2384 H2378 0.930 . S
C2384 C2385 1.367 1_455 S
C2384 C2392 1.378 . S
C2385 C2384 1.367 1_655 S
C2385 C2393 1.433 . S
C2386 H2382 0.929 . S
C2386 C2388 1.378 . S
C2386 C2390 1.350 1_655 S
C2387 C2390 1.463 1_655 S
C2387 C2392 1.350 1_655 S
C2387 N2395 1.427 . S
C2388 H2379 0.930 . S
C2388 C2386 1.378 . S
C2388 C2389 1.367 1_655 S
C2389 C2388 1.367 1_455 S
C2389 C2391 1.433 . S
C2390 C2386 1.350 1_455 S
C2390 C2387 1.463 1_455 S
C2390 N2394 1.427 . S
C2391 H2381 0.929 . S
C2391 C2389 1.433 . S
C2391 N2394 1.384 . S
C2392 H2383 0.929 . S
C2392 C2384 1.378 . S
C2392 C2387 1.350 1_455 S
C2393 H2380 0.929 . S
C2393 C2385 1.433 . S
C2393 N2395 1.384 . S
N2394 C2390 1.427 . S
N2394 C2391 1.384 . S
N2395 C2387 1.427 . S
N2395 C2393 1.384 . S
H2396 C2402 0.925 1_655 S
H2397 C2406 0.925 1_455 S
H2398 C2411 0.929 . S
H2399 C2409 0.929 . S
H2400 C2404 0.929 . S
H2401 C2410 0.929 . S
C2402 H2396 0.925 1_455 S
C2402 C2403 1.367 . S
C2402 C2410 1.378 1_455 S
C2403 C2402 1.367 . S
C2403 C2411 1.433 . S
C2404 H2400 0.929 . S
C2404 C2406 1.378 1_455 S
C2404 C2408 1.350 1_455 S
C2405 C2408 1.463 1_454 S
C2405 C2410 1.350 1_455 S
C2405 N2413 1.427 . S
C2406 H2397 0.925 1_655 S
C2406 C2404 1.378 1_655 S
C2406 C2407 1.367 . S
C2407 C2406 1.367 . S
C2407 C2409 1.433 . S
C2408 C2404 1.350 1_655 S
C2408 C2405 1.463 1_656 S
C2408 N2412 1.427 . S
C2409 H2399 0.929 . S
C2409 C2407 1.433 . S
C2409 N2412 1.384 . S
C2410 H2401 0.929 . S
C2410 C2402 1.378 1_655 S
C2410 C2405 1.350 1_655 S
C2411 H2398 0.929 . S
C2411 C2403 1.433 . S
C2411 N2413 1.384 . S
N2412 C2408 1.427 . S
N2412 C2409 1.384 . S
N2413 C2405 1.427 . S
N2413 C2411 1.384 . S
H2414 C2420 0.930 . S
H2415 C2424 0.930 . S
H2416 C2429 0.929 . S
H2417 C2427 0.929 . S
H2418 C2422 0.929 . S
H2419 C2428 0.929 . S
C2420 H2414 0.930 . S
C2420 C2421 1.367 . S
C2420 C2428 1.378 . S
C2421 C2420 1.367 . S
C2421 C2429 1.433 . S
C2422 H2418 0.929 . S
C2422 C2424 1.378 . S
C2422 C2426 1.350 . S
C2423 C2426 1.463 . S
C2423 C2428 1.350 . S
C2423 N2431 1.427 . S
C2424 H2415 0.930 . S
C2424 C2422 1.378 . S
C2424 C2425 1.367 . S
C2425 C2424 1.367 . S
C2425 C2427 1.433 . S
C2426 C2422 1.350 . S
C2426 C2423 1.463 . S
C2426 N2430 1.427 . S
C2427 H2417 0.929 . S
C2427 C2425 1.433 . S
C2427 N2430 1.384 . S
C2428 H2419 0.929 . S
C2428 C2420 1.378 . S
C2428 C2423 1.350 . S
C2429 H2416 0.929 . S
C2429 C2421 1.433 . S
C2429 N2431 1.384 . S
N2430 C2426 1.427 . S
N2430 C2427 1.384 . S
N2431 C2423 1.427 . S
N2431 C2429 1.384 . S
H2432 C2438 0.930 . S
H2433 C2442 0.930 . S
H2434 C2447 0.929 . S
H2435 C2445 0.929 . S
H2436 C2440 0.929 . S
H2437 C2446 0.929 . S
C2438 H2432 0.930 . S
C2438 C2439 1.367 . S
C2438 C2446 1.378 . S
C2439 C2438 1.367 . S
C2439 C2447 1.433 . S
C2440 H2436 0.929 . S
C2440 C2442 1.378 . S
C2440 C2444 1.350 . S
C2441 C2444 1.463 . S
C2441 C2446 1.350 . S
C2441 N2449 1.427 . S
C2442 H2433 0.930 . S
C2442 C2440 1.378 . S
C2442 C2443 1.367 . S
C2443 C2442 1.367 . S
C2443 C2445 1.433 . S
C2444 C2440 1.350 . S
C2444 C2441 1.463 . S
C2444 N2448 1.427 . S
C2445 H2435 0.929 . S
C2445 C2443 1.433 . S
C2445 N2448 1.384 . S
C2446 H2437 0.929 . S
C2446 C2438 1.378 . S
C2446 C2441 1.350 . S
C2447 H2434 0.929 . S
C2447 C2439 1.433 . S
C2447 N2449 1.384 . S
N2448 C2444 1.427 . S
N2448 C2445 1.384 . S
N2449 C2441 1.427 . S
N2449 C2447 1.384 . S
H2450 C2456 0.930 . S
H2451 C2460 0.930 . S
H2452 C2465 0.929 . S
H2453 C2463 0.929 . S
H2454 C2458 0.929 . S
H2455 C2464 0.929 . S
C2456 H2450 0.930 . S
C2456 C2457 1.367 . S
C2456 C2464 1.378 . S
C2457 C2456 1.367 . S
C2457 C2465 1.433 . S
C2458 H2454 0.929 . S
C2458 C2460 1.378 . S
C2458 C2462 1.350 . S
C2459 C2462 1.463 . S
C2459 C2464 1.350 . S
C2459 N2467 1.427 . S
C2460 H2451 0.930 . S
C2460 C2458 1.378 . S
C2460 C2461 1.367 . S
C2461 C2460 1.367 . S
C2461 C2463 1.433 . S
C2462 C2458 1.350 . S
C2462 C2459 1.463 . S
C2462 N2466 1.427 . S
C2463 H2453 0.929 . S
C2463 C2461 1.433 . S
C2463 N2466 1.384 . S
C2464 H2455 0.929 . S
C2464 C2456 1.378 . S
C2464 C2459 1.350 . S
C2465 H2452 0.929 . S
C2465 C2457 1.433 . S
C2465 N2467 1.384 . S
N2466 C2462 1.427 . S
N2466 C2463 1.384 . S
N2467 C2459 1.427 . S
N2467 C2465 1.384 . S
H2468 C2474 0.930 . S
H2469 C2478 0.930 . S
H2470 C2483 0.929 . S
H2471 C2481 0.929 . S
H2472 C2476 0.929 . S
H2473 C2482 0.929 . S
C2474 H2468 0.930 . S
C2474 C2475 1.367 . S
C2474 C2482 1.378 . S
C2475 C2474 1.367 . S
C2475 C2483 1.433 . S
C2476 H2472 0.929 . S
C2476 C2478 1.378 . S
C2476 C2480 1.350 . S
C2477 C2480 1.463 . S
C2477 C2482 1.350 . S
C2477 N2485 1.427 . S
C2478 H2469 0.930 . S
C2478 C2476 1.378 . S
C2478 C2479 1.367 . S
C2479 C2478 1.367 . S
C2479 C2481 1.433 . S
C2480 C2476 1.350 . S
C2480 C2477 1.463 . S
C2480 N2484 1.427 . S
C2481 H2471 0.929 . S
C2481 C2479 1.433 . S
C2481 N2484 1.384 . S
C2482 H2473 0.929 . S
C2482 C2474 1.378 . S
C2482 C2477 1.350 . S
C2483 H2470 0.929 . S
C2483 C2475 1.433 . S
C2483 N2485 1.384 . S
N2484 C2480 1.427 . S
N2484 C2481 1.384 . S
N2485 C2477 1.427 . S
N2485 C2483 1.384 . S
H2486 C2492 0.930 . S
H2487 C2496 0.930 . S
H2488 C2501 0.929 . S
H2489 C2499 0.929 . S
H2490 C2494 0.929 . S
H2491 C2500 0.929 . S
C2492 H2486 0.930 . S
C2492 C2493 1.367 . S
C2492 C2500 1.378 . S
C2493 C2492 1.367 . S
C2493 C2501 1.433 . S
C2494 H2490 0.929 . S
C2494 C2496 1.378 . S
C2494 C2498 1.350 . S
C2495 C2498 1.463 . S
C2495 C2500 1.350 . S
C2495 N2503 1.427 . S
C2496 H2487 0.930 . S
C2496 C2494 1.378 . S
C2496 C2497 1.367 . S
C2497 C2496 1.367 . S
C2497 C2499 1.433 . S
C2498 C2494 1.350 . S
C2498 C2495 1.463 . S
C2498 N2502 1.427 . S
C2499 H2489 0.929 . S
C2499 C2497 1.433 . S
C2499 N2502 1.384 . S
C2500 H2491 0.929 . S
C2500 C2492 1.378 . S
C2500 C2495 1.350 . S
C2501 H2488 0.929 . S
C2501 C2493 1.433 . S
C2501 N2503 1.384 . S
N2502 C2498 1.427 . S
N2502 C2499 1.384 . S
N2503 C2495 1.427 . S
N2503 C2501 1.384 . S
H2504 C2510 0.930 . S
H2505 C2514 0.930 . S
H2506 C2519 0.929 . S
H2507 C2517 0.929 . S
H2508 C2512 0.929 . S
H2509 C2518 0.929 . S
C2510 H2504 0.930 . S
C2510 C2511 1.367 . S
C2510 C2518 1.378 . S
C2511 C2510 1.367 . S
C2511 C2519 1.433 . S
C2512 H2508 0.929 . S
C2512 C2514 1.378 . S
C2512 C2516 1.350 . S
C2513 C2516 1.463 . S
C2513 C2518 1.350 . S
C2513 N2521 1.427 . S
C2514 H2505 0.930 . S
C2514 C2512 1.378 . S
C2514 C2515 1.367 . S
C2515 C2514 1.367 . S
C2515 C2517 1.433 . S
C2516 C2512 1.350 . S
C2516 C2513 1.463 . S
C2516 N2520 1.427 . S
C2517 H2507 0.929 . S
C2517 C2515 1.433 . S
C2517 N2520 1.384 . S
C2518 H2509 0.929 . S
C2518 C2510 1.378 . S
C2518 C2513 1.350 . S
C2519 H2506 0.929 . S
C2519 C2511 1.433 . S
C2519 N2521 1.384 . S
N2520 C2516 1.427 . S
N2520 C2517 1.384 . S
N2521 C2513 1.427 . S
N2521 C2519 1.384 . S
H2522 C2528 0.930 . S
H2523 C2532 0.930 . S
H2524 C2537 0.929 . S
H2525 C2535 0.929 . S
H2526 C2530 0.929 . S
H2527 C2536 0.929 . S
C2528 H2522 0.930 . S
C2528 C2529 1.367 . S
C2528 C2536 1.378 . S
C2529 C2528 1.367 . S
C2529 C2537 1.433 . S
C2530 H2526 0.929 . S
C2530 C2532 1.378 . S
C2530 C2534 1.350 . S
C2531 C2534 1.463 . S
C2531 C2536 1.350 . S
C2531 N2539 1.427 . S
C2532 H2523 0.930 . S
C2532 C2530 1.378 . S
C2532 C2533 1.367 . S
C2533 C2532 1.367 . S
C2533 C2535 1.433 . S
C2534 C2530 1.350 . S
C2534 C2531 1.463 . S
C2534 N2538 1.427 . S
C2535 H2525 0.929 . S
C2535 C2533 1.433 . S
C2535 N2538 1.384 . S
C2536 H2527 0.929 . S
C2536 C2528 1.378 . S
C2536 C2531 1.350 . S
C2537 H2524 0.929 . S
C2537 C2529 1.433 . S
C2537 N2539 1.384 . S
N2538 C2534 1.427 . S
N2538 C2535 1.384 . S
N2539 C2531 1.427 . S
N2539 C2537 1.384 . S
H2540 C2546 0.930 . S
H2541 C2550 0.930 . S
H2542 C2555 0.929 . S
H2543 C2553 0.929 . S
H2544 C2548 0.929 . S
H2545 C2554 0.929 . S
C2546 H2540 0.930 . S
C2546 C2547 1.367 . S
C2546 C2554 1.378 . S
C2547 C2546 1.367 . S
C2547 C2555 1.433 . S
C2548 H2544 0.929 . S
C2548 C2550 1.378 . S
C2548 C2552 1.350 . S
C2549 C2552 1.463 . S
C2549 C2554 1.350 . S
C2549 N2557 1.427 . S
C2550 H2541 0.930 . S
C2550 C2548 1.378 . S
C2550 C2551 1.367 . S
C2551 C2550 1.367 . S
C2551 C2553 1.433 . S
C2552 C2548 1.350 . S
C2552 C2549 1.463 . S
C2552 N2556 1.427 . S
C2553 H2543 0.929 . S
C2553 C2551 1.433 . S
C2553 N2556 1.384 . S
C2554 H2545 0.929 . S
C2554 C2546 1.378 . S
C2554 C2549 1.350 . S
C2555 H2542 0.929 . S
C2555 C2547 1.433 . S
C2555 N2557 1.384 . S
N2556 C2552 1.427 . S
N2556 C2553 1.384 . S
N2557 C2549 1.427 . S
N2557 C2555 1.384 . S
H2558 C2564 0.930 . S
H2559 C2568 0.930 . S
H2560 C2573 0.929 . S
H2561 C2571 0.929 . S
H2562 C2566 0.929 . S
H2563 C2572 0.929 . S
C2564 H2558 0.930 . S
C2564 C2565 1.367 . S
C2564 C2572 1.378 . S
C2565 C2564 1.367 . S
C2565 C2573 1.433 . S
C2566 H2562 0.929 . S
C2566 C2568 1.378 . S
C2566 C2570 1.350 . S
C2567 C2570 1.463 . S
C2567 C2572 1.350 . S
C2567 N2575 1.427 . S
C2568 H2559 0.930 . S
C2568 C2566 1.378 . S
C2568 C2569 1.367 . S
C2569 C2568 1.367 . S
C2569 C2571 1.433 . S
C2570 C2566 1.350 . S
C2570 C2567 1.463 . S
C2570 N2574 1.427 . S
C2571 H2561 0.929 . S
C2571 C2569 1.433 . S
C2571 N2574 1.384 . S
C2572 H2563 0.929 . S
C2572 C2564 1.378 . S
C2572 C2567 1.350 . S
C2573 H2560 0.929 . S
C2573 C2565 1.433 . S
C2573 N2575 1.384 . S
N2574 C2570 1.427 . S
N2574 C2571 1.384 . S
N2575 C2567 1.427 . S
N2575 C2573 1.384 . S
H2576 C2582 0.930 . S
H2577 C2586 0.930 . S
H2578 C2591 0.929 . S
H2579 C2589 0.929 . S
H2580 C2584 0.929 . S
H2581 C2590 0.929 . S
C2582 H2576 0.930 . S
C2582 C2583 1.367 . S
C2582 C2590 1.378 . S
C2583 C2582 1.367 . S
C2583 C2591 1.433 . S
C2584 H2580 0.929 . S
C2584 C2586 1.378 . S
C2584 C2588 1.350 . S
C2585 C2588 1.463 . S
C2585 C2590 1.350 . S
C2585 N2593 1.427 . S
C2586 H2577 0.930 . S
C2586 C2584 1.378 . S
C2586 C2587 1.367 . S
C2587 C2586 1.367 . S
C2587 C2589 1.433 . S
C2588 C2584 1.350 . S
C2588 C2585 1.463 . S
C2588 N2592 1.427 . S
C2589 H2579 0.929 . S
C2589 C2587 1.433 . S
C2589 N2592 1.384 . S
C2590 H2581 0.929 . S
C2590 C2582 1.378 . S
C2590 C2585 1.350 . S
C2591 H2578 0.929 . S
C2591 C2583 1.433 . S
C2591 N2593 1.384 . S
N2592 C2588 1.427 . S
N2592 C2589 1.384 . S
N2593 C2585 1.427 . S
N2593 C2591 1.384 . S
H2594 C2600 0.930 . S
H2595 C2604 0.930 . S
H2596 C2609 0.929 . S
H2597 C2607 0.929 . S
H2598 C2602 0.929 . S
H2599 C2608 0.929 . S
C2600 H2594 0.930 . S
C2600 C2601 1.367 . S
C2600 C2608 1.378 . S
C2601 C2600 1.367 . S
C2601 C2609 1.433 . S
C2602 H2598 0.929 . S
C2602 C2604 1.378 . S
C2602 C2606 1.350 . S
C2603 C2606 1.463 . S
C2603 C2608 1.350 . S
C2603 N2611 1.427 . S
C2604 H2595 0.930 . S
C2604 C2602 1.378 . S
C2604 C2605 1.367 . S
C2605 C2604 1.367 . S
C2605 C2607 1.433 . S
C2606 C2602 1.350 . S
C2606 C2603 1.463 . S
C2606 N2610 1.427 . S
C2607 H2597 0.929 . S
C2607 C2605 1.433 . S
C2607 N2610 1.384 . S
C2608 H2599 0.929 . S
C2608 C2600 1.378 . S
C2608 C2603 1.350 . S
C2609 H2596 0.929 . S
C2609 C2601 1.433 . S
C2609 N2611 1.384 . S
N2610 C2606 1.427 . S
N2610 C2607 1.384 . S
N2611 C2603 1.427 . S
N2611 C2609 1.384 . S
H2612 C2618 0.930 . S
H2613 C2622 0.930 . S
H2614 C2627 0.929 . S
H2615 C2625 0.929 . S
H2616 C2620 0.929 . S
H2617 C2626 0.929 . S
C2618 H2612 0.930 . S
C2618 C2619 1.367 . S
C2618 C2626 1.378 . S
C2619 C2618 1.367 . S
C2619 C2627 1.433 . S
C2620 H2616 0.929 . S
C2620 C2622 1.378 . S
C2620 C2624 1.350 . S
C2621 C2624 1.463 . S
C2621 C2626 1.350 . S
C2621 N2629 1.427 . S
C2622 H2613 0.930 . S
C2622 C2620 1.378 . S
C2622 C2623 1.367 . S
C2623 C2622 1.367 . S
C2623 C2625 1.433 . S
C2624 C2620 1.350 . S
C2624 C2621 1.463 . S
C2624 N2628 1.427 . S
C2625 H2615 0.929 . S
C2625 C2623 1.433 . S
C2625 N2628 1.384 . S
C2626 H2617 0.929 . S
C2626 C2618 1.378 . S
C2626 C2621 1.350 . S
C2627 H2614 0.929 . S
C2627 C2619 1.433 . S
C2627 N2629 1.384 . S
N2628 C2624 1.427 . S
N2628 C2625 1.384 . S
N2629 C2621 1.427 . S
N2629 C2627 1.384 . S
H2630 C2636 0.930 . S
H2631 C2640 0.930 . S
H2632 C2645 0.929 . S
H2633 C2643 0.929 . S
H2634 C2638 0.929 . S
H2635 C2644 0.929 . S
C2636 H2630 0.930 . S
C2636 C2637 1.367 . S
C2636 C2644 1.378 . S
C2637 C2636 1.367 . S
C2637 C2645 1.433 . S
C2638 H2634 0.929 . S
C2638 C2640 1.378 . S
C2638 C2642 1.350 . S
C2639 C2642 1.463 . S
C2639 C2644 1.350 . S
C2639 N2647 1.427 . S
C2640 H2631 0.930 . S
C2640 C2638 1.378 . S
C2640 C2641 1.367 . S
C2641 C2640 1.367 . S
C2641 C2643 1.433 . S
C2642 C2638 1.350 . S
C2642 C2639 1.463 . S
C2642 N2646 1.427 . S
C2643 H2633 0.929 . S
C2643 C2641 1.433 . S
C2643 N2646 1.384 . S
C2644 H2635 0.929 . S
C2644 C2636 1.378 . S
C2644 C2639 1.350 . S
C2645 H2632 0.929 . S
C2645 C2637 1.433 . S
C2645 N2647 1.384 . S
N2646 C2642 1.427 . S
N2646 C2643 1.384 . S
N2647 C2639 1.427 . S
N2647 C2645 1.384 . S
H2648 C2654 0.930 . S
H2649 C2658 0.930 . S
H2650 C2663 0.929 . S
H2651 C2661 0.929 . S
H2652 C2656 0.929 . S
H2653 C2662 0.929 . S
C2654 H2648 0.930 . S
C2654 C2655 1.367 . S
C2654 C2662 1.378 . S
C2655 C2654 1.367 . S
C2655 C2663 1.433 . S
C2656 H2652 0.929 . S
C2656 C2658 1.378 . S
C2656 C2660 1.350 . S
C2657 C2660 1.463 . S
C2657 C2662 1.350 . S
C2657 N2665 1.427 . S
C2658 H2649 0.930 . S
C2658 C2656 1.378 . S
C2658 C2659 1.367 . S
C2659 C2658 1.367 . S
C2659 C2661 1.433 . S
C2660 C2656 1.350 . S
C2660 C2657 1.463 . S
C2660 N2664 1.427 . S
C2661 H2651 0.929 . S
C2661 C2659 1.433 . S
C2661 N2664 1.384 . S
C2662 H2653 0.929 . S
C2662 C2654 1.378 . S
C2662 C2657 1.350 . S
C2663 H2650 0.929 . S
C2663 C2655 1.433 . S
C2663 N2665 1.384 . S
N2664 C2660 1.427 . S
N2664 C2661 1.384 . S
N2665 C2657 1.427 . S
N2665 C2663 1.384 . S
H2666 C2672 0.930 . S
H2667 C2676 0.930 . S
H2668 C2681 0.929 . S
H2669 C2679 0.929 . S
H2670 C2674 0.929 . S
H2671 C2680 0.929 . S
C2672 H2666 0.930 . S
C2672 C2673 1.367 . S
C2672 C2680 1.378 . S
C2673 C2672 1.367 . S
C2673 C2681 1.433 . S
C2674 H2670 0.929 . S
C2674 C2676 1.378 . S
C2674 C2678 1.350 . S
C2675 C2678 1.463 . S
C2675 C2680 1.350 . S
C2675 N2683 1.427 . S
C2676 H2667 0.930 . S
C2676 C2674 1.378 . S
C2676 C2677 1.367 . S
C2677 C2676 1.367 . S
C2677 C2679 1.433 . S
C2678 C2674 1.350 . S
C2678 C2675 1.463 . S
C2678 N2682 1.427 . S
C2679 H2669 0.929 . S
C2679 C2677 1.433 . S
C2679 N2682 1.384 . S
C2680 H2671 0.929 . S
C2680 C2672 1.378 . S
C2680 C2675 1.350 . S
C2681 H2668 0.929 . S
C2681 C2673 1.433 . S
C2681 N2683 1.384 . S
N2682 C2678 1.427 . S
N2682 C2679 1.384 . S
N2683 C2675 1.427 . S
N2683 C2681 1.384 . S
H2684 C2690 0.930 . S
H2685 C2694 0.930 . S
H2686 C2699 0.929 . S
H2687 C2697 0.929 . S
H2688 C2692 0.929 . S
H2689 C2698 0.929 . S
C2690 H2684 0.930 . S
C2690 C2691 1.367 . S
C2690 C2698 1.378 . S
C2691 C2690 1.367 . S
C2691 C2699 1.433 . S
C2692 H2688 0.929 . S
C2692 C2694 1.378 . S
C2692 C2696 1.350 . S
C2693 C2696 1.463 . S
C2693 C2698 1.350 . S
C2693 N2701 1.427 . S
C2694 H2685 0.930 . S
C2694 C2692 1.378 . S
C2694 C2695 1.367 . S
C2695 C2694 1.367 . S
C2695 C2697 1.433 . S
C2696 C2692 1.350 . S
C2696 C2693 1.463 . S
C2696 N2700 1.427 . S
C2697 H2687 0.929 . S
C2697 C2695 1.433 . S
C2697 N2700 1.384 . S
C2698 H2689 0.929 . S
C2698 C2690 1.378 . S
C2698 C2693 1.350 . S
C2699 H2686 0.929 . S
C2699 C2691 1.433 . S
C2699 N2701 1.384 . S
N2700 C2696 1.427 . S
N2700 C2697 1.384 . S
N2701 C2693 1.427 . S
N2701 C2699 1.384 . S
H2702 C2708 0.930 . S
H2703 C2712 0.930 . S
H2704 C2717 0.929 . S
H2705 C2715 0.929 . S
H2706 C2710 0.929 . S
H2707 C2716 0.929 . S
C2708 H2702 0.930 . S
C2708 C2709 1.367 . S
C2708 C2716 1.378 . S
C2709 C2708 1.367 . S
C2709 C2717 1.433 . S
C2710 H2706 0.929 . S
C2710 C2712 1.378 . S
C2710 C2714 1.350 . S
C2711 C2714 1.463 . S
C2711 C2716 1.350 . S
C2711 N2719 1.427 . S
C2712 H2703 0.930 . S
C2712 C2710 1.378 . S
C2712 C2713 1.367 . S
C2713 C2712 1.367 . S
C2713 C2715 1.433 . S
C2714 C2710 1.350 . S
C2714 C2711 1.463 . S
C2714 N2718 1.427 . S
C2715 H2705 0.929 . S
C2715 C2713 1.433 . S
C2715 N2718 1.384 . S
C2716 H2707 0.929 . S
C2716 C2708 1.378 . S
C2716 C2711 1.350 . S
C2717 H2704 0.929 . S
C2717 C2709 1.433 . S
C2717 N2719 1.384 . S
N2718 C2714 1.427 . S
N2718 C2715 1.384 . S
N2719 C2711 1.427 . S
N2719 C2717 1.384 . S
H2720 C2726 0.930 . S
H2721 C2730 0.930 . S
H2722 C2735 0.929 . S
H2723 C2733 0.929 . S
H2724 C2728 0.929 . S
H2725 C2734 0.929 . S
C2726 H2720 0.930 . S
C2726 C2727 1.367 . S
C2726 C2734 1.378 . S
C2727 C2726 1.367 . S
C2727 C2735 1.433 . S
C2728 H2724 0.929 . S
C2728 C2730 1.378 . S
C2728 C2732 1.350 . S
C2729 C2732 1.463 1_545 S
C2729 C2734 1.350 . S
C2729 N2737 1.427 . S
C2730 H2721 0.930 . S
C2730 C2728 1.378 . S
C2730 C2731 1.367 . S
C2731 C2730 1.367 . S
C2731 C2733 1.433 . S
C2732 C2728 1.350 . S
C2732 C2729 1.463 1_565 S
C2732 N2736 1.427 . S
C2733 H2723 0.929 . S
C2733 C2731 1.433 . S
C2733 N2736 1.384 . S
C2734 H2725 0.929 . S
C2734 C2726 1.378 . S
C2734 C2729 1.350 . S
C2735 H2722 0.929 . S
C2735 C2727 1.433 . S
C2735 N2737 1.384 . S
N2736 C2732 1.427 . S
N2736 C2733 1.384 . S
N2737 C2729 1.427 . S
N2737 C2735 1.384 . S
H2738 C2744 0.930 . S
H2739 C2748 0.930 . S
H2740 C2753 0.929 . S
H2741 C2751 0.929 . S
H2742 C2746 0.929 . S
H2743 C2752 0.929 . S
C2744 H2738 0.930 . S
C2744 C2745 1.367 . S
C2744 C2752 1.378 . S
C2745 C2744 1.367 . S
C2745 C2753 1.433 . S
C2746 H2742 0.929 . S
C2746 C2748 1.378 . S
C2746 C2750 1.350 . S
C2747 C2750 1.463 . S
C2747 C2752 1.350 . S
C2747 N2755 1.427 . S
C2748 H2739 0.930 . S
C2748 C2746 1.378 . S
C2748 C2749 1.367 . S
C2749 C2748 1.367 . S
C2749 C2751 1.433 . S
C2750 C2746 1.350 . S
C2750 C2747 1.463 . S
C2750 N2754 1.427 . S
C2751 H2741 0.929 . S
C2751 C2749 1.433 . S
C2751 N2754 1.384 . S
C2752 H2743 0.929 . S
C2752 C2744 1.378 . S
C2752 C2747 1.350 . S
C2753 H2740 0.929 . S
C2753 C2745 1.433 . S
C2753 N2755 1.384 . S
N2754 C2750 1.427 . S
N2754 C2751 1.384 . S
N2755 C2747 1.427 . S
N2755 C2753 1.384 . S
H2756 C2762 0.930 . S
H2757 C2766 0.930 . S
H2758 C2771 0.929 . S
H2759 C2769 0.929 . S
H2760 C2764 0.929 . S
H2761 C2770 0.929 . S
C2762 H2756 0.930 . S
C2762 C2763 1.367 . S
C2762 C2770 1.378 . S
C2763 C2762 1.367 . S
C2763 C2771 1.433 . S
C2764 H2760 0.929 . S
C2764 C2766 1.378 . S
C2764 C2768 1.350 . S
C2765 C2768 1.463 1_545 S
C2765 C2770 1.350 . S
C2765 N2773 1.427 . S
C2766 H2757 0.930 . S
C2766 C2764 1.378 . S
C2766 C2767 1.367 . S
C2767 C2766 1.367 . S
C2767 C2769 1.433 . S
C2768 C2764 1.350 . S
C2768 C2765 1.463 1_565 S
C2768 N2772 1.427 . S
C2769 H2759 0.929 . S
C2769 C2767 1.433 . S
C2769 N2772 1.384 . S
C2770 H2761 0.929 . S
C2770 C2762 1.378 . S
C2770 C2765 1.350 . S
C2771 H2758 0.929 . S
C2771 C2763 1.433 . S
C2771 N2773 1.384 . S
N2772 C2768 1.427 . S
N2772 C2769 1.384 . S
N2773 C2765 1.427 . S
N2773 C2771 1.384 . S
H2774 C2780 0.930 . S
H2775 C2784 0.930 . S
H2776 C2789 0.929 . S
H2777 C2787 0.929 . S
H2778 C2782 0.969 . S
H2779 C2788 0.969 . S
C2780 H2774 0.930 . S
C2780 C2781 1.367 . S
C2780 C2788 1.378 . S
C2781 C2780 1.367 . S
C2781 C2789 1.433 1_545 S
C2782 H2778 0.969 . S
C2782 C2784 1.378 . S
C2782 C2786 1.350 1_565 S
C2783 C2786 1.463 1_556 S
C2783 C2788 1.350 . S
C2783 N2791 1.427 1_545 S
C2784 H2775 0.930 . S
C2784 C2782 1.378 . S
C2784 C2785 1.367 1_565 S
C2785 C2784 1.367 1_545 S
C2785 C2787 1.433 . S
C2786 C2782 1.350 1_545 S
C2786 C2783 1.463 1_554 S
C2786 N2790 1.427 . S
C2787 H2777 0.929 . S
C2787 C2785 1.433 . S
C2787 N2790 1.384 . S
C2788 H2779 0.969 . S
C2788 C2780 1.378 . S
C2788 C2783 1.350 . S
C2789 H2776 0.929 . S
C2789 C2781 1.433 1_565 S
C2789 N2791 1.384 . S
N2790 C2786 1.427 . S
N2790 C2787 1.384 . S
N2791 C2783 1.427 1_565 S
N2791 C2789 1.384 . S
H2792 C2798 0.930 . S
H2793 C2802 0.930 . S
H2794 C2807 0.929 . S
H2795 C2805 0.929 . S
H2796 C2800 0.929 . S
H2797 C2806 0.929 . S
C2798 H2792 0.930 . S
C2798 C2799 1.367 . S
C2798 C2806 1.378 . S
C2799 C2798 1.367 . S
C2799 C2807 1.433 . S
C2800 H2796 0.929 . S
C2800 C2802 1.378 . S
C2800 C2804 1.350 . S
C2801 C2804 1.463 1_565 S
C2801 C2806 1.350 . S
C2801 N2809 1.427 . S
C2802 H2793 0.930 . S
C2802 C2800 1.378 . S
C2802 C2803 1.367 . S
C2803 C2802 1.367 . S
C2803 C2805 1.433 . S
C2804 C2800 1.350 . S
C2804 C2801 1.463 1_545 S
C2804 N2808 1.427 . S
C2805 H2795 0.929 . S
C2805 C2803 1.433 . S
C2805 N2808 1.384 . S
C2806 H2797 0.929 . S
C2806 C2798 1.378 . S
C2806 C2801 1.350 . S
C2807 H2794 0.929 . S
C2807 C2799 1.433 . S
C2807 N2809 1.384 . S
N2808 C2804 1.427 . S
N2808 C2805 1.384 . S
N2809 C2801 1.427 . S
N2809 C2807 1.384 . S
H2810 C2816 0.930 . S
H2811 C2820 0.930 . S
H2812 C2825 0.929 . S
H2813 C2823 0.929 . S
H2814 C2818 0.929 . S
H2815 C2824 0.929 . S
C2816 H2810 0.930 . S
C2816 C2817 1.367 1_565 S
C2816 C2824 1.378 . S
C2817 C2816 1.367 1_545 S
C2817 C2825 1.433 . S
C2818 H2814 0.929 . S
C2818 C2820 1.378 . S
C2818 C2822 1.350 . S
C2819 C2822 1.463 . S
C2819 C2824 1.350 1_545 S
C2819 N2827 1.427 . S
C2820 H2811 0.930 . S
C2820 C2818 1.378 . S
C2820 C2821 1.367 . S
C2821 C2820 1.367 . S
C2821 C2823 1.433 1_545 S
C2822 C2818 1.350 . S
C2822 C2819 1.463 . S
C2822 N2826 1.427 1_545 S
C2823 H2813 0.929 . S
C2823 C2821 1.433 1_565 S
C2823 N2826 1.384 . S
C2824 H2815 0.929 . S
C2824 C2816 1.378 . S
C2824 C2819 1.350 1_565 S
C2825 H2812 0.929 . S
C2825 C2817 1.433 . S
C2825 N2827 1.384 . S
N2826 C2822 1.427 1_565 S
N2826 C2823 1.384 . S
N2827 C2819 1.427 . S
N2827 C2825 1.384 . S
H2828 C2834 0.930 . S
H2829 C2838 0.930 . S
H2830 C2843 0.929 . S
H2831 C2841 0.929 . S
H2832 C2836 0.929 1_565 S
H2833 C2842 0.929 1_545 S
C2834 H2828 0.930 . S
C2834 C2835 1.367 . S
C2834 C2842 1.378 . S
C2835 C2834 1.367 . S
C2835 C2843 1.433 . S
C2836 H2832 0.929 1_545 S
C2836 C2838 1.378 . S
C2836 C2840 1.350 . S
C2837 C2840 1.463 1_565 S
C2837 C2842 1.350 . S
C2837 N2845 1.427 . S
C2838 H2829 0.930 . S
C2838 C2836 1.378 . S
C2838 C2839 1.367 . S
C2839 C2838 1.367 . S
C2839 C2841 1.433 . S
C2840 C2836 1.350 . S
C2840 C2837 1.463 1_545 S
C2840 N2844 1.427 . S
C2841 H2831 0.929 . S
C2841 C2839 1.433 . S
C2841 N2844 1.384 . S
C2842 H2833 0.929 1_565 S
C2842 C2834 1.378 . S
C2842 C2837 1.350 . S
C2843 H2830 0.929 . S
C2843 C2835 1.433 . S
C2843 N2845 1.384 . S
N2844 C2840 1.427 . S
N2844 C2841 1.384 . S
N2845 C2837 1.427 . S
N2845 C2843 1.384 . S
H2846 C2852 0.930 . S
H2847 C2856 0.930 . S
H2848 C2861 0.929 . S
H2849 C2859 0.929 . S
H2850 C2854 0.929 . S
H2851 C2860 0.929 . S
C2852 H2846 0.930 . S
C2852 C2853 1.367 1_545 S
C2852 C2860 1.378 . S
C2853 C2852 1.367 1_565 S
C2853 C2861 1.433 . S
C2854 H2850 0.929 . S
C2854 C2856 1.378 . S
C2854 C2858 1.350 . S
C2855 C2858 1.463 1_554 S
C2855 C2860 1.350 1_565 S
C2855 N2863 1.427 . S
C2856 H2847 0.930 . S
C2856 C2854 1.378 . S
C2856 C2857 1.367 . S
C2857 C2856 1.367 . S
C2857 C2859 1.433 1_565 S
C2858 C2854 1.350 . S
C2858 C2855 1.463 1_556 S
C2858 N2862 1.427 1_565 S
C2859 H2849 0.929 . S
C2859 C2857 1.433 1_545 S
C2859 N2862 1.384 . S
C2860 H2851 0.929 . S
C2860 C2852 1.378 . S
C2860 C2855 1.350 1_545 S
C2861 H2848 0.929 . S
C2861 C2853 1.433 . S
C2861 N2863 1.384 . S
N2862 C2858 1.427 1_545 S
N2862 C2859 1.384 . S
N2863 C2855 1.427 . S
N2863 C2861 1.384 . S
H2864 C2870 0.930 . S
H2865 C2874 0.930 . S
H2866 C2879 0.929 . S
H2867 C2877 0.929 . S
H2868 C2872 0.929 . S
H2869 C2878 0.929 . S
C2870 H2864 0.930 . S
C2870 C2871 1.367 . S
C2870 C2878 1.378 . S
C2871 C2870 1.367 . S
C2871 C2879 1.433 . S
C2872 H2868 0.929 . S
C2872 C2874 1.378 . S
C2872 C2876 1.350 . S
C2873 C2876 1.463 . S
C2873 C2878 1.350 . S
C2873 N2881 1.427 . S
C2874 H2865 0.930 . S
C2874 C2872 1.378 . S
C2874 C2875 1.367 . S
C2875 C2874 1.367 . S
C2875 C2877 1.433 . S
C2876 C2872 1.350 . S
C2876 C2873 1.463 . S
C2876 N2880 1.427 . S
C2877 H2867 0.929 . S
C2877 C2875 1.433 . S
C2877 N2880 1.384 . S
C2878 H2869 0.929 . S
C2878 C2870 1.378 . S
C2878 C2873 1.350 . S
C2879 H2866 0.929 . S
C2879 C2871 1.433 . S
C2879 N2881 1.384 . S
N2880 C2876 1.427 . S
N2880 C2877 1.384 . S
N2881 C2873 1.427 . S
N2881 C2879 1.384 . S
H2882 C2888 0.930 . S
H2883 C2892 0.930 . S
H2884 C2897 0.929 . S
H2885 C2895 0.929 . S
H2886 C2890 0.943 . S
H2887 C2896 0.943 . S
C2888 H2882 0.930 . S
C2888 C2889 1.367 . S
C2888 C2896 1.378 . S
C2889 C2888 1.367 . S
C2889 C2897 1.433 . S
C2890 H2886 0.943 . S
C2890 C2892 1.378 . S
C2890 C2894 1.350 . S
C2891 C2894 1.463 1_556 S
C2891 C2896 1.350 . S
C2891 N2899 1.427 . S
C2892 H2883 0.930 . S
C2892 C2890 1.378 . S
C2892 C2893 1.367 . S
C2893 C2892 1.367 . S
C2893 C2895 1.433 . S
C2894 C2890 1.350 . S
C2894 C2891 1.463 1_554 S
C2894 N2898 1.427 . S
C2895 H2885 0.929 . S
C2895 C2893 1.433 . S
C2895 N2898 1.384 . S
C2896 H2887 0.943 . S
C2896 C2888 1.378 . S
C2896 C2891 1.350 . S
C2897 H2884 0.929 . S
C2897 C2889 1.433 . S
C2897 N2899 1.384 . S
N2898 C2894 1.427 . S
N2898 C2895 1.384 . S
N2899 C2891 1.427 . S
N2899 C2897 1.384 . S
H2900 C2906 0.930 . S
H2901 C2910 0.930 . S
H2902 C2915 0.929 . S
H2903 C2913 0.929 . S
H2904 C2908 0.929 . S
H2905 C2914 0.929 . S
C2906 H2900 0.930 . S
C2906 C2907 1.367 . S
C2906 C2914 1.378 . S
C2907 C2906 1.367 . S
C2907 C2915 1.433 . S
C2908 H2904 0.929 . S
C2908 C2910 1.378 . S
C2908 C2912 1.350 . S
C2909 C2912 1.463 . S
C2909 C2914 1.350 . S
C2909 N2917 1.427 . S
C2910 H2901 0.930 . S
C2910 C2908 1.378 . S
C2910 C2911 1.367 . S
C2911 C2910 1.367 . S
C2911 C2913 1.433 . S
C2912 C2908 1.350 . S
C2912 C2909 1.463 . S
C2912 N2916 1.427 . S
C2913 H2903 0.929 . S
C2913 C2911 1.433 . S
C2913 N2916 1.384 . S
C2914 H2905 0.929 . S
C2914 C2906 1.378 . S
C2914 C2909 1.350 . S
C2915 H2902 0.929 . S
C2915 C2907 1.433 . S
C2915 N2917 1.384 . S
N2916 C2912 1.427 . S
N2916 C2913 1.384 . S
N2917 C2909 1.427 . S
N2917 C2915 1.384 . S
H2918 C2924 0.930 . S
H2919 C2928 0.930 . S
H2920 C2933 0.929 . S
H2921 C2931 0.929 . S
H2922 C2926 0.929 . S
H2923 C2932 0.929 . S
C2924 H2918 0.930 . S
C2924 C2925 1.367 . S
C2924 C2932 1.378 . S
C2925 C2924 1.367 . S
C2925 C2933 1.433 . S
C2926 H2922 0.929 . S
C2926 C2928 1.378 . S
C2926 C2930 1.350 . S
C2927 C2930 1.463 . S
C2927 C2932 1.350 . S
C2927 N2935 1.427 . S
C2928 H2919 0.930 . S
C2928 C2926 1.378 . S
C2928 C2929 1.367 . S
C2929 C2928 1.367 . S
C2929 C2931 1.433 . S
C2930 C2926 1.350 . S
C2930 C2927 1.463 . S
C2930 N2934 1.427 . S
C2931 H2921 0.929 . S
C2931 C2929 1.433 . S
C2931 N2934 1.384 . S
C2932 H2923 0.929 . S
C2932 C2924 1.378 . S
C2932 C2927 1.350 . S
C2933 H2920 0.929 . S
C2933 C2925 1.433 . S
C2933 N2935 1.384 . S
N2934 C2930 1.427 . S
N2934 C2931 1.384 . S
N2935 C2927 1.427 . S
N2935 C2933 1.384 . S
H2936 C2942 0.930 . S
H2937 C2946 0.930 . S
H2938 C2951 0.929 . S
H2939 C2949 0.929 . S
H2940 C2944 0.929 . S
H2941 C2950 0.929 . S
C2942 H2936 0.930 . S
C2942 C2943 1.367 . S
C2942 C2950 1.378 . S
C2943 C2942 1.367 . S
C2943 C2951 1.433 . S
C2944 H2940 0.929 . S
C2944 C2946 1.378 . S
C2944 C2948 1.350 . S
C2945 C2948 1.463 . S
C2945 C2950 1.350 . S
C2945 N2953 1.427 . S
C2946 H2937 0.930 . S
C2946 C2944 1.378 . S
C2946 C2947 1.367 . S
C2947 C2946 1.367 . S
C2947 C2949 1.433 . S
C2948 C2944 1.350 . S
C2948 C2945 1.463 . S
C2948 N2952 1.427 . S
C2949 H2939 0.929 . S
C2949 C2947 1.433 . S
C2949 N2952 1.384 . S
C2950 H2941 0.929 . S
C2950 C2942 1.378 . S
C2950 C2945 1.350 . S
C2951 H2938 0.929 . S
C2951 C2943 1.433 . S
C2951 N2953 1.384 . S
N2952 C2948 1.427 . S
N2952 C2949 1.384 . S
N2953 C2945 1.427 . S
N2953 C2951 1.384 . S
H2954 C2960 0.930 . S
H2955 C2964 0.930 . S
H2956 C2969 0.929 . S
H2957 C2967 0.929 . S
H2958 C2962 0.929 . S
H2959 C2968 0.929 . S
C2960 H2954 0.930 . S
C2960 C2961 1.367 . S
C2960 C2968 1.378 1_556 S
C2961 C2960 1.367 . S
C2961 C2969 1.433 . S
C2962 H2958 0.929 . S
C2962 C2964 1.378 1_556 S
C2962 C2966 1.350 1_556 S
C2963 C2966 1.463 1_556 S
C2963 C2968 1.350 1_556 S
C2963 N2971 1.427 . S
C2964 H2955 0.930 . S
C2964 C2962 1.378 1_554 S
C2964 C2965 1.367 . S
C2965 C2964 1.367 . S
C2965 C2967 1.433 . S
C2966 C2962 1.350 1_554 S
C2966 C2963 1.463 1_554 S
C2966 N2970 1.427 . S
C2967 H2957 0.929 . S
C2967 C2965 1.433 . S
C2967 N2970 1.384 . S
C2968 H2959 0.929 . S
C2968 C2960 1.378 1_554 S
C2968 C2963 1.350 1_554 S
C2969 H2956 0.929 . S
C2969 C2961 1.433 . S
C2969 N2971 1.384 . S
N2970 C2966 1.427 . S
N2970 C2967 1.384 . S
N2971 C2963 1.427 . S
N2971 C2969 1.384 . S
H2972 C2978 0.930 . S
H2973 C2982 0.930 . S
H2974 C2987 0.929 . S
H2975 C2985 0.929 . S
H2976 C2980 0.929 . S
H2977 C2986 0.929 . S
C2978 H2972 0.930 . S
C2978 C2979 1.367 . S
C2978 C2986 1.378 . S
C2979 C2978 1.367 . S
C2979 C2987 1.433 . S
C2980 H2976 0.929 . S
C2980 C2982 1.378 . S
C2980 C2984 1.350 . S
C2981 C2984 1.463 . S
C2981 C2986 1.350 . S
C2981 N2989 1.427 . S
C2982 H2973 0.930 . S
C2982 C2980 1.378 . S
C2982 C2983 1.367 . S
C2983 C2982 1.367 . S
C2983 C2985 1.433 . S
C2984 C2980 1.350 . S
C2984 C2981 1.463 . S
C2984 N2988 1.427 . S
C2985 H2975 0.929 . S
C2985 C2983 1.433 . S
C2985 N2988 1.384 . S
C2986 H2977 0.929 . S
C2986 C2978 1.378 . S
C2986 C2981 1.350 . S
C2987 H2974 0.929 . S
C2987 C2979 1.433 . S
C2987 N2989 1.384 . S
N2988 C2984 1.427 . S
N2988 C2985 1.384 . S
N2989 C2981 1.427 . S
N2989 C2987 1.384 . S
H2990 C2996 0.930 . S
H2991 C3000 0.930 . S
H2992 C3005 0.929 . S
H2993 C3003 0.929 . S
H2994 C2998 0.929 . S
H2995 C3004 0.929 . S
C2996 H2990 0.930 . S
C2996 C2997 1.367 . S
C2996 C3004 1.378 . S
C2997 C2996 1.367 . S
C2997 C3005 1.433 . S
C2998 H2994 0.929 . S
C2998 C3000 1.378 . S
C2998 C3002 1.350 . S
C2999 C3002 1.463 . S
C2999 C3004 1.350 . S
C2999 N3007 1.427 . S
C3000 H2991 0.930 . S
C3000 C2998 1.378 . S
C3000 C3001 1.367 . S
C3001 C3000 1.367 . S
C3001 C3003 1.433 . S
C3002 C2998 1.350 . S
C3002 C2999 1.463 . S
C3002 N3006 1.427 . S
C3003 H2993 0.929 . S
C3003 C3001 1.433 . S
C3003 N3006 1.384 . S
C3004 H2995 0.929 . S
C3004 C2996 1.378 . S
C3004 C2999 1.350 . S
C3005 H2992 0.929 . S
C3005 C2997 1.433 . S
C3005 N3007 1.384 . S
N3006 C3002 1.427 . S
N3006 C3003 1.384 . S
N3007 C2999 1.427 . S
N3007 C3005 1.384 . S
C1287 C6 0.510 . S
C1291 C1099 0.564 . S
C1305 C46 0.481 . S
C1309 C339 0.531 . S
C1323 C86 0.530 . S
C1327 C1019 0.583 . S
C1341 C419 0.536 . S
C1345 C126 0.485 . S
C1359 C166 0.491 . S
C1363 C1179 0.543 . S
C1377 C579 0.586 . S
C1381 C206 0.532 . S
C1395 C1259 0.562 . S
C1399 C246 0.509 . S
C1413 C286 0.508 . S
C1417 C499 0.561 . S
C1431 C335 0.513 . S
C1435 C770 0.566 . S
C1449 C375 0.499 . S
C1453 C10 0.552 . S
C1467 C690 0.564 . S
C1471 C415 0.514 . S
C1485 C90 0.586 . S
C1489 C455 0.533 . S
C1503 C495 0.495 . S
C1507 C850 0.544 . S
C1521 C535 0.493 . S
C1525 C250 0.545 . S
C1539 C575 0.530 . S
C1543 C930 0.581 . S
C1557 C170 0.533 . S
C1561 C615 0.483 . S
C1575 C459 0.585 . S
C1579 C646 0.533 . S
C1593 C979 0.540 . S
C1597 C686 0.488 . S
C1611 C379 0.556 . S
C1615 C726 0.503 . S
C1629 C766 0.504 . S
C1633 C1059 0.553 . S
C1647 C539 0.586 . S
C1651 C806 0.533 . S
C1665 C1219 0.580 . S
C1669 C846 0.528 . S
C1683 C619 0.579 . S
C1687 C886 0.525 . S
C1701 C926 0.519 . S
C1705 C1139 0.570 . S
C1719 C975 0.481 . S
C1723 C130 0.532 . S
C1737 C1015 0.526 . S
C1741 C650 0.577 . S
C1755 C1055 0.531 . S
C1759 C50 0.585 . S
C1773 C1095 0.491 . S
C1777 C730 0.540 . S
C1791 C210 0.550 . S
C1795 C1135 0.497 . S
C1809 C890 0.585 . S
C1813 C1175 0.533 . S
C1827 C1215 0.531 . S
C1831 C290 0.585 . S
C1845 C1255 0.490 . S
C1849 C810 0.542 . S
C1863 C18 2.651 . S
C1867 C738 2.653 . S
C1881 C778 2.657 . S
C1885 C58 2.656 . S
C1899 C98 2.657 . S
C1903 C658 2.656 . S
C1917 C138 2.657 . S
C1921 C698 2.658 . S
C1935 C898 2.654 . S
C1939 C178 2.655 . S
C1953 C218 2.651 . S
C1957 C938 2.650 . S
C1971 C818 2.658 . S
C1975 C258 2.656 . S
C1989 C298 2.656 . S
C1993 C858 2.657 . S
C2007 C1049 2.653 . S
C2011 C329 2.655 . S
C2025 C369 2.657 . S
C2029 C1089 2.658 . S
C2043 C409 2.658 . S
C2047 C969 2.656 . S
C2061 C449 2.658 . S
C2065 C1009 2.657 . S
C2079 C1209 2.652 . S
C2083 C489 2.653 . S
C2097 C1249 2.649 . S
C2101 C529 2.650 . S
C2115 C569 2.651 . S
C2119 C1129 2.653 . S
C2133 C609 2.658 . S
C2137 C1169 2.657 . S
C2151 C19 3.281 . S
C2155 C970 3.281 . S
C2169 C370 3.280 . S
C2173 C59 3.280 . S
C2187 C99 3.284 . S
C2191 C1050 3.284 . S
C2205 C139 3.284 . S
C2209 C450 3.284 . S
C2223 C1130 3.282 . S
C2227 C179 3.282 . S
C2241 C530 3.285 . S
C2245 C219 3.285 . S
C2259 C259 3.283 . S
C2263 C1210 3.283 . S
C2277 C299 3.280 . S
C2281 C610 3.280 . S
C2295 C659 3.285 . S
C2299 C330 3.285 . S
C2313 C739 3.286 . S
C2317 C410 3.286 . S
C2331 C819 3.283 . S
C2335 C490 3.283 . S
C2349 C570 3.285 . S
C2353 C899 3.285 . S
C2367 C699 3.280 . S
C2371 C1010 3.280 . S
C2385 C779 3.280 . S
C2389 C1090 3.280 . S
C2403 C1170 3.286 . S
C2407 C859 3.286 . S
C2421 C1250 3.281 . S
C2425 C939 3.281 . S
C2439 C9 4.572 . S
C2443 C209 4.571 . S
C2457 C249 4.569 . S
C2461 C49 4.568 . S
C2475 C289 4.568 . S
C2479 C89 4.568 . S
C2493 C169 4.568 . S
C2497 C129 4.568 . S
C2511 C338 4.571 . S
C2515 C538 4.571 . S
C2529 C378 4.574 . S
C2533 C578 4.574 . S
C2547 C618 4.574 . S
C2551 C418 4.574 . S
C2565 C458 4.573 . S
C2569 C498 4.574 . S
C2583 C649 4.574 . S
C2587 C849 4.574 . S
C2601 C689 4.574 . S
C2605 C889 4.573 . S
C2619 C729 4.568 . S
C2623 C929 4.568 . S
C2637 C809 4.568 . S
C2641 C769 4.568 . S
C2655 C978 4.571 . S
C2659 C1178 4.570 . S
C2673 C1018 4.570 . S
C2677 C1218 4.570 . S
C2691 C1258 4.568 . S
C2695 C1058 4.568 . S
C2709 C1098 4.571 . S
C2713 C1138 4.570 . S
C2727 C15 0.694 . S
C2731 C175 0.697 . S
C2745 C55 0.696 . S
C2749 C215 0.695 . S
C2763 C255 0.695 . S
C2767 C95 0.686 . S
C2781 C295 0.680 . S
C2785 C135 0.691 . S
C2799 C326 0.688 . S
C2803 C486 0.696 . S
C2817 C526 0.690 . S
C2821 C366 0.679 . S
C2835 C566 0.673 . S
C2839 C406 0.670 . S
C2853 C606 0.690 . S
C2857 C446 0.679 . S
C2871 C655 0.695 . S
C2875 C815 0.685 . S
C2889 C855 0.692 . S
C2893 C695 0.681 . S
C2907 C735 0.676 . S
C2911 C895 0.670 . S
C2925 C935 0.684 . S
C2929 C775 0.673 . S
C2943 C1126 0.687 . S
C2947 C966 0.696 . S
C2961 C1006 0.697 . S
C2965 C1166 0.690 . S
C2979 C1046 0.697 . S
C2983 C1206 0.693 . S
C2997 C1086 0.670 . S
C3001 C1246 0.678 . S
