# Generated by pormake.
# Topology wku, (7)-cn, num edge types: 1
# Building blocks:
#     Node 0, Type 0, BuildingBlock: OLANEW_clean_sbu_3, # of connection points: 7
#     Node 1, Type 0, BuildingBlock: OLANEW_clean_sbu_3, # of connection points: 7
#     Node 2, Type 0, BuildingBlock: OLANEW_clean_sbu_3, # of connection points: 7
#     Node 3, Type 0, BuildingBlock: OLANEW_clean_sbu_3, # of connection points: 7
#     Node 4, Type 0, BuildingBlock: OLANEW_clean_sbu_3, # of connection points: 7
#     Node 5, Type 0, BuildingBlock: OLANEW_clean_sbu_3, # of connection points: 7
#     Node 6, Type 0, BuildingBlock: OLANEW_clean_sbu_3, # of connection points: 7
#     Node 7, Type 0, BuildingBlock: OLANEW_clean_sbu_3, # of connection points: 7
#     Node 8, Type 0, BuildingBlock: OLANEW_clean_sbu_3, # of connection points: 7
#     Node 9, Type 0, BuildingBlock: OLANEW_clean_sbu_3, # of connection points: 7
#     Node 10, Type 0, BuildingBlock: OLANEW_clean_sbu_3, # of connection points: 7
#     Node 11, Type 0, BuildingBlock: OLANEW_clean_sbu_3, # of connection points: 7
#     Edge 12, Type (0, 0), None
#     Edge 13, Type (0, 0), None
#     Edge 14, Type (0, 0), None
#     Edge 15, Type (0, 0), None
#     Edge 16, Type (0, 0), None
#     Edge 17, Type (0, 0), None
#     Edge 18, Type (0, 0), None
#     Edge 19, Type (0, 0), None
#     Edge 20, Type (0, 0), None
#     Edge 21, Type (0, 0), None
#     Edge 22, Type (0, 0), None
#     Edge 23, Type (0, 0), None
#     Edge 24, Type (0, 0), None
#     Edge 25, Type (0, 0), None
#     Edge 26, Type (0, 0), None
#     Edge 27, Type (0, 0), None
#     Edge 28, Type (0, 0), None
#     Edge 29, Type (0, 0), None
#     Edge 30, Type (0, 0), None
#     Edge 31, Type (0, 0), None
#     Edge 32, Type (0, 0), None
#     Edge 33, Type (0, 0), None
#     Edge 34, Type (0, 0), None
#     Edge 35, Type (0, 0), None
#     Edge 36, Type (0, 0), None
#     Edge 37, Type (0, 0), None
#     Edge 38, Type (0, 0), None
#     Edge 39, Type (0, 0), None
#     Edge 40, Type (0, 0), None
#     Edge 41, Type (0, 0), None
#     Edge 42, Type (0, 0), None
#     Edge 43, Type (0, 0), None
#     Edge 44, Type (0, 0), None
#     Edge 45, Type (0, 0), None
#     Edge 46, Type (0, 0), None
#     Edge 47, Type (0, 0), None
#     Edge 48, Type (0, 0), None
#     Edge 49, Type (0, 0), None
#     Edge 50, Type (0, 0), None
#     Edge 51, Type (0, 0), None
#     Edge 52, Type (0, 0), None
#     Edge 53, Type (0, 0), None
# Relax obj value: 0.114
# Max RMSD: 0.204
# Mean RMSD: 0.202
data_MOF--net-wku--node1-OLANEW_clean_sbu_3--edge1-none
_symmetry_space_group_name_H-M    P1
_symmetry_Int_Tables_number       1
_symmetry_cell_setting            triclinic
loop_
_symmetry_equiv_pos_as_xyz
'x, y, z'
_cell_length_a     17.659947
_cell_length_b     17.659958
_cell_length_c     81.584681
_cell_angle_alpha  89.999982
_cell_angle_beta   89.999989
_cell_angle_gamma 119.78218
loop_
_atom_site_label
_atom_site_type_symbol
_atom_site_fract_x
_atom_site_fract_y
_atom_site_fract_z
_atom_type_partial_charge
C0 C 0.26284 0.39121 0.02854 0.0
C1 C 0.19725 0.34989 0.01678 0.0
C2 C 0.19915 0.28492 0.00686 0.0
C3 C 0.26611 0.26342 0.00871 0.0
C4 C 0.33015 0.3083 0.02059 0.0
N5 N 0.32288 0.36675 0.02984 0.0
C6 C 0.4104 0.30438 0.02426 0.0
C7 C 0.53584 0.35909 0.04315 0.0
C8 C 0.52487 0.28897 0.05292 0.0
C9 C 0.5975 0.28883 0.05967 0.0
C10 C 0.68125 0.3584 0.05666 0.0
C11 C 0.69248 0.42805 0.04683 0.0
C12 C 0.61998 0.42843 0.04005 0.0
Cd13 Cd 0.504 0.27283 0.989 0.0
Cd14 Cd 0.3107 0.20784 0.96756 0.0
C15 C 0.34373 0.51273 0.06806 0.0
C16 C 0.37312 0.64469 0.08174 0.0
C17 C 0.33511 0.59709 0.09623 0.0
C18 C 0.29888 0.50644 0.09664 0.0
C19 C 0.30127 0.46409 0.08222 0.0
C20 C 0.38468 0.60268 0.06836 0.0
Co21 Co 0.40525 0.42105 0.0458 0.0
N22 N 0.34479 0.32764 0.06171 0.0
N23 N 0.48866 0.47599 0.06166 0.0
C24 C 0.4766 0.43264 0.07561 0.0
C25 C 0.53752 0.47261 0.08821 0.0
C26 C 0.60914 0.55702 0.08531 0.0
C27 C 0.61802 0.5997 0.07015 0.0
C28 C 0.55415 0.55571 0.05819 0.0
N29 N 0.47729 0.52522 0.03273 0.0
N30 N 0.4614 0.36003 0.03647 0.0
N31 N 0.33682 0.47193 0.05261 0.0
O32 O 0.3927 0.20495 0.94396 0.0
O33 O 0.51178 0.2482 0.95881 0.0
C34 C 0.6958 0.3795 0.99481 0.0
O35 O 0.64542 0.409 -0.00155 0.0
O36 O 0.65779 0.30134 0.98962 0.0
C37 C 0.32793 0.05636 0.9932 0.0
O38 O 0.41102 0.10642 0.99428 0.0
O39 O 0.2807 0.08336 0.98629 0.0
C40 C 0.39533 0.34804 0.07566 0.0
O41 O 0.3671 0.30161 0.08917 0.0
O42 O 0.42975 0.35779 0.98414 0.0
O43 O 0.31674 0.3512 0.97244 0.0
C44 C 0.54723 0.58463 0.04162 0.0
O45 O 0.60397 0.66158 0.03574 0.0
C46 C 0.45499 0.54184 0.01679 0.0
C47 C 0.4566 0.49175 0.00402 0.0
C48 C 0.40236 0.47403 0.99036 0.0
C49 C 0.35732 0.52199 0.98843 0.0
C50 C 0.36849 0.58647 0.00027 0.0
C51 C 0.4157 0.5932 0.01467 0.0
C52 C 0.47236 0.22538 0.94502 0.0
O53 O 0.43151 0.24957 0.01644 0.0
C54 C 0.38586 0.39518 0.98066 0.0
C55 C 0.25594 0.25553 0.06157 0.0
C56 C 0.18291 0.26778 0.06101 0.0
C57 C 0.10141 0.20357 0.06663 0.0
C58 C 0.09178 0.12743 0.07357 0.0
C59 C 0.16423 0.11538 0.07461 0.0
C60 C 0.24239 0.17485 0.06678 0.0
C61 C 0.27367 0.45593 0.04117 0.0
O62 O 0.21705 0.48301 0.04311 0.0
H63 H 0.14601 0.36612 0.0154 0.0
H64 H 0.14921 0.25174 -0.00233 0.0
H65 H 0.26856 0.21523 0.00091 0.0
H66 H 0.46027 0.23498 0.0554 0.0
H67 H 0.73737 0.35824 0.06192 0.0
H68 H 0.62949 0.4824 0.03237 0.0
H69 H 0.32444 0.62849 0.10667 0.0
H70 H 0.26883 0.39405 0.08209 0.0
H71 H 0.41542 0.63852 0.05725 0.0
H72 H 0.53002 0.4404 0.09987 0.0
H73 H 0.65734 0.58949 0.09482 0.0
H74 H 0.67249 0.66437 0.06792 0.0
H75 H 0.49178 0.45691 0.00607 0.0
H76 H 0.31463 0.50941 0.97803 0.0
H77 H 0.41672 0.63371 0.02475 0.0
H78 H 0.18755 0.32848 0.05807 0.0
H79 H 0.02977 0.08159 0.07901 0.0
H80 H 0.29794 0.16464 0.06678 0.0
C81 C 0.87561 0.25309 0.19533 0.0
C82 C 0.85099 0.18629 0.18381 0.0
C83 C 0.91729 0.18675 0.17393 0.0
C84 C 1.00554 0.25347 0.1756 0.0
C85 C 0.02505 0.31875 0.18724 0.0
N86 N 0.95989 0.31288 0.19646 0.0
C87 C 0.10911 0.39892 0.1907 0.0
C88 C 0.18041 0.52588 0.2092 0.0
C89 C 0.2398 0.51475 0.2189 0.0
C90 C 0.31254 0.58731 0.22555 0.0
C91 C 0.32648 0.67115 0.22252 0.0
C92 C 0.26785 0.68255 0.21276 0.0
C93 C 0.195 0.61012 0.20608 0.0
Cd94 Cd 0.23398 0.48969 0.15548 0.0
Cd95 Cd 0.10677 0.29651 0.13412 0.0
C96 C 0.83668 0.33818 0.23454 0.0
C97 C 0.73376 0.36761 0.24814 0.0
C98 C 0.74494 0.33145 0.26276 0.0
C99 C 0.80028 0.29603 0.26327 0.0
C100 C 0.84433 0.2974 0.24883 0.0
C101 C 0.78676 0.37845 0.23472 0.0
Co102 Co 0.98846 0.39692 0.21213 0.0
N103 N 0.022 0.3377 0.22827 0.0
N104 N 1.01739 0.48197 0.22768 0.0
C105 C 0.04943 0.47124 0.24167 0.0
C106 C 0.07103 0.53362 0.25403 0.0
C107 C 0.05803 0.60518 0.25085 0.0
C108 C 0.02345 0.61261 0.23566 0.0
C109 C 1.00296 0.54735 0.22396 0.0
N110 N 0.95589 0.46804 0.19876 0.0
N111 N 0.10492 0.4515 0.20266 0.0
N112 N 0.86979 0.32978 0.2191 0.0
O113 O 0.19174 0.37775 0.11046 0.0
O114 O 0.26694 0.49668 0.12533 0.0
C115 C 0.31974 0.68142 0.16144 0.0
O116 O 0.23965 0.63188 0.16479 0.0
O117 O 0.35958 0.6426 0.15638 0.0
C118 C 0.2747 0.31334 0.15985 0.0
O119 O 0.30729 0.39643 0.16088 0.0
O120 O 0.20074 0.26605 0.15295 0.0
C121 C 0.0529 0.38978 0.24202 0.0
O122 O 0.07188 0.36287 0.25563 0.0
O123 O 0.07506 0.41595 0.15063 0.0
O124 O 0.96942 0.30271 0.13896 0.0
C125 C 0.96657 0.53895 0.20739 0.0
O126 O 0.94616 0.59537 0.20129 0.0
C127 C 0.91661 0.44432 0.18289 0.0
C128 C 0.96798 0.44482 0.17016 0.0
C129 C 0.93156 0.38906 0.1567 0.0
C130 C 0.83873 0.34341 0.15489 0.0
C131 C 0.78554 0.35552 0.16664 0.0
C132 C 0.82613 0.40446 0.18086 0.0
C133 C 0.25086 0.45725 0.11155 0.0
O134 O 0.18462 0.41835 0.18295 0.0
C135 C 0.99408 0.372 0.14713 0.0
C136 C 1.00537 0.24868 0.22847 0.0
C137 C 0.92037 0.17588 0.2281 0.0
C138 C 0.90336 0.09481 0.23403 0.0
C139 C 0.96991 0.08543 0.24106 0.0
C140 C 0.05415 0.15767 0.24189 0.0
C141 C 0.07247 0.23519 0.23377 0.0
C142 C 0.82237 0.26557 0.20789 0.0
O143 O 0.73905 0.20944 0.21 0.0
H144 H 0.78369 0.13523 0.18258 0.0
H145 H 0.90024 0.13586 0.16492 0.0
H146 H 0.05577 0.25477 0.16783 0.0
H147 H 0.22935 0.45009 0.2214 0.0
H148 H 0.38274 0.72721 0.22771 0.0
H149 H 0.1504 0.61979 0.19846 0.0
H150 H 0.70339 0.32138 0.27325 0.0
H151 H 0.88242 0.26528 0.2488 0.0
H152 H 0.78045 0.4078 0.2235 0.0
H153 H 0.09643 0.52729 0.2657 0.0
H154 H 0.07428 0.6545 0.26017 0.0
H155 H 1.01317 0.66709 0.23323 0.0
H156 H 0.03783 0.48041 0.17213 0.0
H157 H 0.80868 0.2995 0.14465 0.0
H158 H 0.78691 0.40635 0.1909 0.0
H159 H 0.8644 0.18059 0.2251 0.0
H160 H 0.95399 0.02386 0.24671 0.0
H161 H 0.13801 0.29049 0.23361 0.0
C162 C 0.63652 0.8773 0.36212 0.0
C163 C 0.67883 0.85273 0.35058 0.0
C164 C 0.7442 0.91907 0.3407 0.0
C165 C 0.76515 1.00731 0.34239 0.0
C166 C 0.71927 0.02677 0.35405 0.0
N167 N 0.66043 0.96156 0.36326 0.0
C168 C 0.72265 0.11081 0.35753 0.0
C169 C 0.66672 0.18209 0.37609 0.0
C170 C 0.73702 0.24143 0.38576 0.0
C171 C 0.73685 0.31415 0.39246 0.0
C172 C 0.66682 0.32812 0.3895 0.0
C173 C 0.59702 0.26955 0.37976 0.0
C174 C 0.59694 0.19672 0.37304 0.0
Cd175 Cd 0.75583 0.23503 0.32223 0.0
Cd176 Cd 0.82218 0.10706 0.30108 0.0
C177 C 0.51322 0.83822 0.40138 0.0
C178 C 0.38145 0.73522 0.41495 0.0
C179 C 0.42876 0.74566 0.42954 0.0
C180 C 0.5192 0.80086 0.43005 0.0
C181 C 0.5616 0.8454 0.41565 0.0
C182 C 0.42336 0.78849 0.40157 0.0
Co183 Co 0.60503 0.99012 0.37898 0.0
N184 N 0.69789 0.02377 0.39506 0.0
N185 N 0.54898 0.01903 0.39459 0.0
C186 C 0.59184 0.0512 0.40855 0.0
C187 C 0.55123 0.07302 0.42094 0.0
C188 C 0.46671 0.06004 0.41782 0.0
C189 C 0.42459 0.0253 0.40267 0.0
C190 C 0.46922 1.00464 0.39093 0.0
N191 N 0.50123 0.95741 0.36569 0.0
N192 N 0.66596 0.10659 0.36951 0.0
N193 N 0.55447 0.87146 0.38596 0.0
O194 O 0.82426 0.19066 0.27732 0.0
O195 O 0.77991 0.26623 0.29204 0.0
C196 C 0.64923 0.3207 0.32795 0.0
O197 O 0.61984 0.24114 0.33167 0.0
O198 O 0.72722 0.36025 0.32267 0.0
C199 C 0.9729 0.27647 0.32654 0.0
O200 O 0.92216 0.30905 0.32753 0.0
O201 O 0.94653 0.20222 0.31975 0.0
C202 C 0.67678 0.05471 0.40884 0.0
O203 O 0.72303 0.07411 0.42239 0.0
O204 O 0.67119 0.07607 0.31745 0.0
O205 O 0.67922 0.96998 0.30593 0.0
C206 C 0.44113 0.96817 0.37438 0.0
O207 O 0.36435 0.94785 0.36833 0.0
C208 C 0.48562 0.91822 0.3498 0.0
C209 C 0.53626 0.9695 0.33708 0.0
C210 C 0.55505 0.93288 0.32355 0.0
C211 C 0.50738 0.84012 0.32165 0.0
C212 C 0.44222 0.78718 0.3334 0.0
C213 C 0.43464 0.82783 0.34771 0.0
C214 C 0.80297 0.24943 0.27829 0.0
O215 O 0.77814 0.1863 0.34976 0.0
C216 C 0.63443 0.99503 0.31399 0.0
C217 C 0.77041 1.00719 0.39519 0.0
C218 C 0.75874 0.9222 0.39481 0.0
C219 C 0.82321 0.90527 0.40058 0.0
C220 C 0.89909 0.97191 0.40748 0.0
C221 C 0.91064 0.0562 0.40833 0.0
C222 C 0.85076 0.07439 0.4004 0.0
C223 C 0.57136 0.82405 0.3747 0.0
O224 O 0.54473 0.74072 0.37679 0.0
H225 H 0.66308 0.78545 0.34934 0.0
H226 H 0.77815 0.90207 0.33168 0.0
H227 H 0.81373 0.05758 0.33462 0.0
H228 H 0.79134 0.23096 0.38821 0.0
H229 H 0.66674 0.38436 0.39471 0.0
H230 H 0.54284 0.15216 0.36543 0.0
H231 H 0.39753 0.70379 0.43999 0.0
H232 H 0.63158 0.88351 0.41562 0.0
H233 H 0.38775 0.78271 0.39037 0.0
H234 H 0.58308 0.09861 0.43259 0.0
H235 H 0.43376 0.07645 0.42717 0.0
H236 H 0.35989 0.01507 0.40028 0.0
H237 H 0.57066 0.03932 0.33909 0.0
H238 H 0.52064 0.80992 0.31133 0.0
H239 H 0.39364 0.78867 0.35775 0.0
H240 H 0.69827 0.8662 0.39189 0.0
H241 H 0.94517 0.95604 0.413 0.0
H242 H 0.86057 0.13994 0.40026 0.0
C243 C 0.77803 0.63704 0.52854 0.0
C244 C 0.84363 0.67836 0.51678 0.0
C245 C 0.84173 0.74333 0.50686 0.0
C246 C 0.77476 0.76483 0.50871 0.0
C247 C 0.71072 0.71995 0.52059 0.0
N248 N 0.71799 0.6615 0.52984 0.0
C249 C 0.63048 0.72387 0.52427 0.0
C250 C 0.50504 0.66915 0.54315 0.0
C251 C 0.516 0.73928 0.55292 0.0
C252 C 0.44337 0.73942 0.55967 0.0
C253 C 0.35962 0.66985 0.55666 0.0
C254 C 0.34839 0.60019 0.54683 0.0
C255 C 0.4209 0.59982 0.54005 0.0
Cd256 Cd 0.53687 0.75542 0.489 0.0
Cd257 Cd 0.73017 0.8204 0.46756 0.0
C258 C 0.69714 0.51552 0.56806 0.0
C259 C 0.66775 0.38356 0.58174 0.0
C260 C 0.70577 0.43116 0.59623 0.0
C261 C 0.74199 0.52181 0.59664 0.0
C262 C 0.7396 0.56416 0.58222 0.0
C263 C 0.65619 0.42556 0.56836 0.0
Co264 Co 0.63562 0.6072 0.5458 0.0
N265 N 0.69608 0.7006 0.56171 0.0
N266 N 0.55221 0.55226 0.56166 0.0
C267 C 0.56427 0.59561 0.57561 0.0
C268 C 0.50335 0.55564 0.58821 0.0
C269 C 0.43174 0.47122 0.58531 0.0
C270 C 0.42285 0.42855 0.57015 0.0
C271 C 0.48673 0.47253 0.55819 0.0
N272 N 0.56358 0.50303 0.53273 0.0
N273 N 0.57948 0.66822 0.53647 0.0
N274 N 0.70405 0.55632 0.55261 0.0
O275 O 0.64817 0.8233 0.44396 0.0
O276 O 0.52909 0.78005 0.45881 0.0
C277 C 0.34508 0.64875 0.49481 0.0
O278 O 0.39545 0.61925 0.49845 0.0
O279 O 0.38309 0.72691 0.48962 0.0
C280 C 0.71295 0.97189 0.4932 0.0
O281 O 0.62986 0.92183 0.49428 0.0
O282 O 0.76017 0.94489 0.48629 0.0
C283 C 0.64554 0.68021 0.57566 0.0
O284 O 0.67377 0.72663 0.58917 0.0
O285 O 0.61112 0.67046 0.48414 0.0
O286 O 0.72414 0.67705 0.47244 0.0
C287 C 0.49364 0.44361 0.54162 0.0
O288 O 0.4369 0.36667 0.53574 0.0
C289 C 0.58589 0.48641 0.51679 0.0
C290 C 0.58427 0.5365 0.50402 0.0
C291 C 0.63852 0.55422 0.49036 0.0
C292 C 0.68355 0.50625 0.48843 0.0
C293 C 0.67239 0.44178 0.50027 0.0
C294 C 0.62518 0.43505 0.51467 0.0
C295 C 0.56851 0.80287 0.44502 0.0
O296 O 0.60936 0.77867 0.51644 0.0
C297 C 0.65501 0.63307 0.48066 0.0
C298 C 0.78494 0.77272 0.56157 0.0
C299 C 0.85796 0.76046 0.56101 0.0
C300 C 0.93946 0.82467 0.56663 0.0
C301 C 0.94909 0.90082 0.57357 0.0
C302 C 0.87664 0.91287 0.57462 0.0
C303 C 0.79848 0.85339 0.56678 0.0
C304 C 0.7672 0.57232 0.54117 0.0
O305 O 0.82382 0.54524 0.54311 0.0
H306 H 0.89486 0.66213 0.5154 0.0
H307 H 0.89167 0.7765 0.49767 0.0
H308 H 0.77231 0.81302 0.50091 0.0
H309 H 0.5806 0.79326 0.5554 0.0
H310 H 0.3035 0.67 0.56192 0.0
H311 H 0.41138 0.54585 0.53237 0.0
H312 H 0.71643 0.39975 0.60667 0.0
H313 H 0.77205 0.6342 0.58209 0.0
H314 H 0.62546 0.38973 0.55725 0.0
H315 H 0.51085 0.58785 0.59987 0.0
H316 H 0.38353 0.43876 0.59482 0.0
H317 H 0.36838 0.36388 0.56792 0.0
H318 H 0.54909 0.57134 0.50607 0.0
H319 H 0.72624 0.51883 0.47803 0.0
H320 H 0.62416 0.39453 0.52475 0.0
H321 H 0.85332 0.69977 0.55807 0.0
H322 H 1.0111 0.94665 0.57901 0.0
H323 H 0.74293 0.86361 0.56678 0.0
C324 C 0.16526 0.77515 0.69533 0.0
C325 C 0.18988 0.84196 0.68381 0.0
C326 C 0.12358 0.84149 0.67393 0.0
C327 C 0.03533 0.77478 0.6756 0.0
C328 C 1.01582 0.70949 0.68724 0.0
N329 N 0.08099 0.71537 0.69646 0.0
C330 C 0.93176 0.62933 0.6907 0.0
C331 C 0.86046 0.50236 0.7092 0.0
C332 C 0.80108 0.51349 0.7189 0.0
C333 C 0.72833 0.44094 0.72555 0.0
C334 C 0.71439 0.3571 0.72252 0.0
C335 C 0.77302 0.3457 0.71276 0.0
C336 C 0.84588 0.41812 0.70608 0.0
Cd337 Cd 0.80689 0.53856 0.65548 0.0
Cd338 Cd 0.9341 0.73173 0.63412 0.0
C339 C 0.2042 0.69007 0.73454 0.0
C340 C 0.30711 0.66064 0.74814 0.0
C341 C 0.29594 0.6968 0.76276 0.0
C342 C 0.24059 0.73222 0.76327 0.0
C343 C 0.19655 0.73085 0.74883 0.0
C344 C 0.25411 0.64979 0.73472 0.0
Co345 Co 0.05241 0.63133 0.71213 0.0
N346 N 1.01887 0.69055 0.72827 0.0
N347 N 0.02349 0.54628 0.72768 0.0
C348 C 0.99145 0.557 0.74167 0.0
C349 C 0.96984 0.49463 0.75403 0.0
C350 C 0.98285 0.42307 0.75085 0.0
C351 C 1.01743 0.41564 0.73566 0.0
C352 C 0.03791 0.4809 0.72396 0.0
N353 N 0.08498 0.56021 0.69876 0.0
N354 N 0.93595 0.57674 0.70266 0.0
N355 N 0.17109 0.69846 0.7191 0.0
O356 O 0.84913 0.6505 0.61047 0.0
O357 O 0.77393 0.53156 0.62533 0.0
C358 C 0.72114 0.34683 0.66144 0.0
O359 O 0.80122 0.39636 0.66479 0.0
O360 O 0.68129 0.38564 0.65638 0.0
C361 C 0.76617 0.71491 0.65985 0.0
O362 O 0.73358 0.63182 0.66088 0.0
O363 O 0.84013 0.76219 0.65295 0.0
C364 C 0.98798 0.63847 0.74202 0.0
O365 O 0.969 0.66537 0.75563 0.0
O366 O 0.96581 0.6123 0.65063 0.0
O367 O 0.07145 0.72554 0.63896 0.0
C368 C 0.0743 0.4893 0.70739 0.0
O369 O 0.09471 0.43287 0.70129 0.0
C370 C 0.12426 0.58393 0.68289 0.0
C371 C 0.07289 0.58343 0.67016 0.0
C372 C 0.10932 0.63918 0.6567 0.0
C373 C 0.20214 0.68483 0.65489 0.0
C374 C 0.25534 0.67273 0.66664 0.0
C375 C 0.21474 0.62378 0.68086 0.0
C376 C 0.79001 0.571 0.61155 0.0
O377 O 0.85625 0.60989 0.68295 0.0
C378 C 0.0468 0.65624 0.64713 0.0
C379 C 0.0355 0.77957 0.72847 0.0
C380 C 0.1205 0.85237 0.7281 0.0
C381 C 0.13751 0.93344 0.73403 0.0
C382 C 0.07096 0.94281 0.74106 0.0
C383 C 0.98672 0.87058 0.74189 0.0
C384 C 0.96841 0.79306 0.73377 0.0
C385 C 0.21851 0.76268 0.70789 0.0
O386 O 0.30183 0.81881 0.71 0.0
H387 H 0.25718 0.89301 0.68258 0.0
H388 H 0.14064 0.89239 0.66492 0.0
H389 H 0.9851 0.77348 0.66783 0.0
H390 H 0.81152 0.57816 0.7214 0.0
H391 H 0.65814 0.30104 0.72771 0.0
H392 H 0.89047 0.40846 0.69846 0.0
H393 H 0.33748 0.70686 0.77325 0.0
H394 H 0.15846 0.76297 0.7488 0.0
H395 H 0.26042 0.62044 0.7235 0.0
H396 H 0.94444 0.50096 0.7657 0.0
H397 H 0.9666 0.37375 0.76017 0.0
H398 H 0.0277 0.36116 0.73323 0.0
H399 H 1.00304 0.54784 0.67213 0.0
H400 H 0.2322 0.72874 0.64465 0.0
H401 H 0.25397 0.62189 0.6909 0.0
H402 H 0.17648 0.84766 0.7251 0.0
H403 H 0.08688 1.00439 0.74671 0.0
H404 H 0.90287 0.73775 0.73361 0.0
C405 C 0.40435 0.15095 0.86212 0.0
C406 C 0.36204 0.17551 0.85058 0.0
C407 C 0.29668 0.10917 0.8407 0.0
C408 C 0.27572 0.02093 0.84239 0.0
C409 C 0.3216 1.00148 0.85405 0.0
N410 N 0.38044 0.06669 0.86326 0.0
C411 C 0.31823 0.91744 0.85753 0.0
C412 C 0.37415 0.84616 0.87609 0.0
C413 C 0.30386 0.78682 0.88576 0.0
C414 C 0.30402 0.7141 0.89246 0.0
C415 C 0.37406 0.70013 0.8895 0.0
C416 C 0.44386 0.7587 0.87976 0.0
C417 C 0.44394 0.83153 0.87304 0.0
Cd418 Cd 0.28504 0.79322 0.82223 0.0
Cd419 Cd 0.21869 0.92119 0.80108 0.0
C420 C 0.52765 0.19003 0.90138 0.0
C421 C 0.65943 0.29303 0.91495 0.0
C422 C 0.61211 0.28259 0.92954 0.0
C423 C 0.52167 0.2274 0.93005 0.0
C424 C 0.47927 0.18285 0.91565 0.0
C425 C 0.61752 0.23976 0.90157 0.0
Co426 Co 0.43584 0.03813 0.87898 0.0
N427 N 0.34299 1.00448 0.89506 0.0
N428 N 0.49189 1.00922 0.89459 0.0
C429 C 0.44904 0.97706 0.90855 0.0
C430 C 0.48964 0.95523 0.92094 0.0
C431 C 0.57416 0.96821 0.91782 0.0
C432 C 0.61628 1.00295 0.90267 0.0
C433 C 0.57165 0.02361 0.89093 0.0
N434 N 0.53964 0.07083 0.86569 0.0
N435 N 0.37492 0.92166 0.86951 0.0
N436 N 0.4864 0.15679 0.88596 0.0
O437 O 0.21661 0.83759 0.77732 0.0
O438 O 0.26097 0.76202 0.79204 0.0
C439 C 0.39164 0.70755 0.82795 0.0
O440 O 0.42103 0.7871 0.83167 0.0
O441 O 0.31366 0.668 0.82267 0.0
C442 C 0.06798 0.75178 0.82654 0.0
O443 O 0.11871 0.7192 0.82753 0.0
O444 O 0.09434 0.82603 0.81975 0.0
C445 C 0.36409 0.97354 0.90884 0.0
O446 O 0.31785 0.95415 0.92239 0.0
O447 O 0.36968 0.95217 0.81745 0.0
O448 O 0.36166 0.05827 0.80593 0.0
C449 C 0.59974 0.06008 0.87438 0.0
O450 O 0.67652 0.0804 0.86833 0.0
C451 C 0.55525 0.11003 0.8498 0.0
C452 C 0.50462 0.05875 0.83708 0.0
C453 C 0.48583 0.09537 0.82355 0.0
C454 C 0.5335 0.18813 0.82165 0.0
C455 C 0.59866 0.24107 0.8334 0.0
C456 C 0.60624 0.20042 0.84771 0.0
C457 C 0.2379 0.77882 0.77829 0.0
O458 O 0.26274 0.84195 0.84976 0.0
C459 C 0.40644 0.03322 0.81399 0.0
C460 C 0.27046 0.02106 0.89519 0.0
C461 C 0.28213 0.10605 0.8948 0.0
C462 C 0.21766 0.12298 0.90058 0.0
C463 C 0.14178 0.05633 0.90747 0.0
C464 C 0.13023 0.97205 0.90833 0.0
C465 C 0.19011 0.95386 0.9004 0.0
C466 C 0.46952 0.2042 0.8747 0.0
O467 O 0.49614 0.28753 0.87679 0.0
H468 H 0.37779 0.24279 0.84934 0.0
H469 H 0.26273 0.12618 0.83168 0.0
H470 H 0.22715 0.97067 0.83462 0.0
H471 H 0.24954 0.79729 0.88821 0.0
H472 H 0.37414 0.6439 0.89471 0.0
H473 H 0.49804 0.87609 0.86543 0.0
H474 H 0.64334 0.32446 0.93999 0.0
H475 H 0.40929 0.14474 0.91562 0.0
H476 H 0.65312 0.24554 0.89037 0.0
H477 H 0.45779 0.92964 0.93259 0.0
H478 H 0.60711 0.9518 0.92717 0.0
H479 H 0.68098 1.01318 0.90028 0.0
H480 H 0.47022 0.98893 0.83909 0.0
H481 H 0.52024 0.21832 0.81133 0.0
H482 H 0.64723 0.23958 0.85775 0.0
H483 H 0.3426 0.16205 0.89189 0.0
H484 H 0.0957 0.0722 0.913 0.0
H485 H 0.18031 0.88831 0.90026 0.0
C486 C 0.64329 0.77171 0.79857 0.0
C487 C 0.68462 0.83729 0.81033 0.0
C488 C 0.74958 0.83538 0.82025 0.0
C489 C 0.77107 0.7684 0.8184 0.0
C490 C 0.72619 0.70438 0.80652 0.0
N491 N 0.66775 0.71166 0.79727 0.0
C492 C 0.7301 0.62413 0.80284 0.0
C493 C 0.67537 0.4987 0.78396 0.0
C494 C 0.7455 0.50966 0.77418 0.0
C495 C 0.74563 0.43702 0.76743 0.0
C496 C 0.67604 0.35328 0.77044 0.0
C497 C 0.6064 0.34205 0.78027 0.0
C498 C 0.60603 0.41456 0.78705 0.0
Cd499 Cd 0.76165 0.5305 0.83811 0.0
Cd500 Cd 0.82664 0.72381 0.85955 0.0
C501 C 0.52178 0.69085 0.75905 0.0
C502 C 0.38984 0.66141 0.74537 0.0
C503 C 0.43743 0.69945 0.73087 0.0
C504 C 0.52808 0.73571 0.73047 0.0
C505 C 0.57043 0.73332 0.74489 0.0
C506 C 0.43183 0.64987 0.75874 0.0
Co507 Co 0.61345 0.6293 0.7813 0.0
N508 N 0.70686 0.68976 0.7654 0.0
N509 N 0.5585 0.5459 0.76545 0.0
C510 C 0.60185 0.55797 0.7515 0.0
C511 C 0.56188 0.49706 0.73889 0.0
C512 C 0.47746 0.42545 0.74179 0.0
C513 C 0.43478 0.41656 0.75696 0.0
C514 C 0.47877 0.48042 0.76891 0.0
N515 N 0.50927 0.55727 0.79438 0.0
N516 N 0.67445 0.57314 0.79064 0.0
N517 N 0.56258 0.69775 0.7745 0.0
O518 O 0.82953 0.64181 0.88315 0.0
O519 O 0.78628 0.52274 0.8683 0.0
C520 C 0.65498 0.33871 0.83231 0.0
O521 O 0.6255 0.38908 0.82865 0.0
O522 O 0.73313 0.37672 0.8375 0.0
C523 C 0.97812 0.70658 0.83391 0.0
O524 O 0.92805 0.62349 0.83282 0.0
O525 O 0.95112 0.7538 0.84082 0.0
C526 C 0.68646 0.63923 0.75145 0.0
O527 O 0.73288 0.66747 0.73794 0.0
O528 O 0.67668 0.60474 0.84297 0.0
O529 O 0.68328 0.71776 0.85467 0.0
C530 C 0.44985 0.48733 0.78549 0.0
O531 O 0.3729 0.4306 0.79136 0.0
C532 C 0.49265 0.57956 0.81031 0.0
C533 C 0.54273 0.57793 0.82309 0.0
C534 C 0.56045 0.63216 0.83675 0.0
C535 C 0.51249 0.67719 0.83868 0.0
C536 C 0.44803 0.66605 0.82684 0.0
C537 C 0.44129 0.61885 0.81244 0.0
C538 C 0.8091 0.56215 0.88208 0.0
O539 O 0.7849 0.603 0.81067 0.0
C540 C 0.6393 0.64864 0.84645 0.0
C541 C 0.77898 0.77861 0.76554 0.0
C542 C 0.76674 0.85165 0.76611 0.0
C543 C 0.83096 0.93315 0.76048 0.0
C544 C 0.9071 0.94277 0.75354 0.0
C545 C 0.91913 0.87031 0.7525 0.0
C546 C 0.85965 0.79215 0.76034 0.0
C547 C 0.57858 0.7609 0.78594 0.0
O548 O 0.55151 0.81752 0.78401 0.0
H549 H 0.66839 0.88853 0.81171 0.0
H550 H 0.78275 0.88531 0.82945 0.0
H551 H 0.81925 0.76594 0.8262 0.0
H552 H 0.79949 0.57425 0.77171 0.0
H553 H 0.67619 0.29716 0.76518 0.0
H554 H 0.55206 0.40505 0.79473 0.0
H555 H 0.40602 0.7101 0.72043 0.0
H556 H 0.64047 0.76578 0.74502 0.0
H557 H 0.39599 0.61912 0.76985 0.0
H558 H 0.59409 0.50456 0.72723 0.0
H559 H 0.44499 0.37726 0.73228 0.0
H560 H 0.3701 0.3621 0.75918 0.0
H561 H 0.57757 0.54275 0.82104 0.0
H562 H 0.52506 0.71986 0.84909 0.0
H563 H 0.40078 0.61785 0.80236 0.0
H564 H 0.70605 0.84701 0.76904 0.0
H565 H 0.95295 1.00478 0.74811 0.0
H566 H 0.86986 0.73659 0.76033 0.0
C567 C 0.88355 0.63014 0.96499 0.0
C568 C 0.85899 0.67245 0.97654 0.0
C569 C 0.92533 0.73781 0.98641 0.0
C570 C 1.01357 0.75875 0.98472 0.0
C571 C 0.03302 0.71288 0.97306 0.0
N572 N 0.96781 0.65404 0.96385 0.0
C573 C 0.11705 0.71624 0.96958 0.0
C574 C 0.18832 0.66031 0.95102 0.0
C575 C 0.24766 0.7306 0.94135 0.0
C576 C 0.32038 0.73043 0.93465 0.0
C577 C 0.33434 0.66039 0.93761 0.0
C578 C 0.27577 0.59059 0.94734 0.0
C579 C 0.20294 0.59052 0.95407 0.0
Cd580 Cd 0.24129 0.74943 0.00488 0.0
Cd581 Cd 0.11332 0.81579 0.02602 0.0
C582 C 0.84445 0.50685 0.92572 0.0
C583 C 0.7415 0.37509 0.91215 0.0
C584 C 0.75191 0.4224 0.89757 0.0
C585 C 0.80708 0.51284 0.89706 0.0
C586 C 0.85163 0.55524 0.91145 0.0
C587 C 0.79474 0.41698 0.92554 0.0
Co588 Co 0.99635 0.59864 0.94812 0.0
N589 N 0.03001 0.6915 0.93204 0.0
N590 N 0.02525 0.54259 0.93251 0.0
C591 C 0.05742 0.58545 0.91855 0.0
C592 C 0.07923 0.54484 0.90617 0.0
C593 C 0.06623 0.46032 0.90928 0.0
C594 C 0.0315 0.41819 0.92444 0.0
C595 C 1.01085 0.46283 0.93617 0.0
N596 N 0.96364 0.49484 0.96141 0.0
N597 N 0.11282 0.65955 0.9576 0.0
N598 N 0.87769 0.5481 0.94115 0.0
O599 O 0.19691 0.81787 0.04979 0.0
O600 O 0.27247 0.77351 0.03507 0.0
C601 C 0.32697 0.64283 -0.00083 0.0
O602 O 0.24744 0.61347 0.99543 0.0
O603 O 0.3665 0.72081 0.00445 0.0
C604 C 0.28273 0.9665 0.00056 0.0
O605 O 0.31531 0.91576 -0.00043 0.0
O606 O 0.20848 0.94013 0.00736 0.0
C607 C 0.06094 0.6704 0.91827 0.0
O608 O 0.08033 0.71665 0.90472 0.0
O609 O 0.08234 0.66478 0.00965 0.0
O610 O 0.97625 0.67282 0.02118 0.0
C611 C 0.97439 0.43473 0.95272 0.0
O612 O 0.95406 0.35795 0.95877 0.0
C613 C 0.92445 0.47923 0.9773 0.0
C614 C 0.97575 0.52985 0.99003 0.0
C615 C 0.93914 0.54864 0.00356 0.0
C616 C 0.84638 0.50097 0.00546 0.0
C617 C 0.79343 0.43583 0.99372 0.0
C618 C 0.83406 0.42825 0.9794 0.0
C619 C 0.25568 0.79657 0.04882 0.0
O620 O 0.19255 0.77173 0.97735 0.0
C621 C 1.00129 0.62802 0.01312 0.0
C622 C 1.01344 0.76403 0.93192 0.0
C623 C 0.92845 0.75237 0.93231 0.0
C624 C 0.91152 0.81686 0.92654 0.0
C625 C 0.97817 0.89273 0.91964 0.0
C626 C 0.06245 0.90427 0.91878 0.0
C627 C 0.08064 0.84439 0.92671 0.0
C628 C 0.83029 0.56498 0.95241 0.0
O629 O 0.74696 0.53836 0.95032 0.0
H630 H 0.79171 0.6567 0.97777 0.0
H631 H 0.90833 0.77176 0.99543 0.0
H632 H 0.06384 0.80733 0.99249 0.0
H633 H 0.2372 0.78493 0.9389 0.0
H634 H 0.39057 0.6603 0.93239 0.0
H635 H 0.15837 0.53642 0.96167 0.0
H636 H 0.71004 0.39116 0.88712 0.0
H637 H 0.88973 0.62522 0.91149 0.0
H638 H 0.78896 0.38137 0.93673 0.0
H639 H 0.10482 0.5767 0.89452 0.0
H640 H 0.08264 0.42737 0.89994 0.0
H641 H 0.02126 0.35349 0.92682 0.0
H642 H 0.04556 0.56425 0.98801 0.0
H643 H 0.8162 0.51423 0.01578 0.0
H644 H 0.7949 0.38725 0.96936 0.0
H645 H 0.87245 0.6919 0.93522 0.0
H646 H 0.96231 0.93882 0.91412 0.0
H647 H 0.14619 0.85418 0.92685 0.0
C648 C 0.25939 0.86924 0.13178 0.0
C649 C 0.1926 0.84463 0.14331 0.0
C650 C 0.19309 0.91094 0.15318 0.0
C651 C 0.2598 0.99919 0.15152 0.0
C652 C 0.32508 0.01869 0.13987 0.0
N653 N 0.31918 0.95352 0.13065 0.0
C654 C 0.40524 0.10274 0.13641 0.0
C655 C 0.5322 0.17402 0.1179 0.0
C656 C 0.52108 0.23341 0.10821 0.0
C657 C 0.59364 0.30614 0.10155 0.0
C658 C 0.67748 0.32007 0.10458 0.0
C659 C 0.68887 0.26144 0.11434 0.0
C660 C 0.61644 0.18859 0.12102 0.0
Cd661 Cd 0.49604 0.22763 0.17163 0.0
Cd662 Cd 0.30287 0.10043 0.19299 0.0
C663 C 0.34444 0.83029 0.09257 0.0
C664 C 0.37391 0.72742 0.07896 0.0
C665 C 0.33773 0.73856 0.06434 0.0
C666 C 0.30227 0.79388 0.06384 0.0
C667 C 0.30364 0.83792 0.07827 0.0
C668 C 0.38474 0.78039 0.09239 0.0
Co669 Co 0.4032 0.98207 0.11498 0.0
N670 N 0.34398 0.01562 0.09884 0.0
N671 N 0.48824 1.01099 0.09943 0.0
C672 C 0.47751 0.04302 0.08544 0.0
C673 C 0.53987 0.0646 0.07308 0.0
C674 C 0.61142 0.05159 0.07625 0.0
C675 C 0.61886 0.01701 0.09144 0.0
C676 C 0.55362 0.99655 0.10315 0.0
N677 N 0.47433 0.94949 0.12834 0.0
N678 N 0.45781 0.09854 0.12444 0.0
N679 N 0.33605 0.8634 0.108 0.0
O680 O 0.38409 0.18539 0.21665 0.0
O681 O 0.50302 0.26057 0.20178 0.0
C682 C 0.68778 0.31339 0.16568 0.0
O683 O 0.63825 0.23334 0.1623 0.0
O684 O 0.64896 0.35322 0.17075 0.0
C685 C 0.31969 0.26835 0.16726 0.0
O686 O 0.40278 0.30094 0.16623 0.0
O687 O 0.27241 0.19439 0.17416 0.0
C688 C 0.39605 0.0465 0.08509 0.0
O689 O 0.36913 0.06548 0.07148 0.0
O690 O 0.42232 0.06871 0.17647 0.0
O691 O 0.30908 0.96308 0.18814 0.0
C692 C 0.54523 0.96016 0.11971 0.0
O693 O 0.60165 0.93974 0.12581 0.0
C694 C 0.45062 0.91023 0.14422 0.0
C695 C 0.45114 0.96161 0.15695 0.0
C696 C 0.39541 0.9252 0.17041 0.0
C697 C 0.34976 0.83238 0.17222 0.0
C698 C 0.36184 0.77917 0.16047 0.0
C699 C 0.41076 0.81974 0.14625 0.0
C700 C 0.4636 0.2445 0.21556 0.0
O701 O 0.4247 0.17826 0.14416 0.0
C702 C 0.37837 0.98773 0.17998 0.0
C703 C 0.25496 0.999 0.09864 0.0
C704 C 0.18216 0.91401 0.09901 0.0
C705 C 0.10108 0.89701 0.09309 0.0
C706 C 0.09172 0.96356 0.08605 0.0
C707 C 0.16396 0.04779 0.08523 0.0
C708 C 0.24149 0.0661 0.09334 0.0
C709 C 0.27185 0.81599 0.11922 0.0
O710 O 0.21571 0.73267 0.11711 0.0
H711 H 0.14154 0.77734 0.14454 0.0
H712 H 0.1422 0.8939 0.1622 0.0
H713 H 0.26112 0.04942 0.15929 0.0
H714 H 0.45641 0.22297 0.10571 0.0
H715 H 0.73354 0.37632 0.0994 0.0
H716 H 0.62609 0.14399 0.12865 0.0
H717 H 0.32767 0.69702 0.05385 0.0
H718 H 0.27151 0.876 0.07831 0.0
H719 H 0.4141 0.77409 0.1036 0.0
H720 H 0.53353 0.09 0.0614 0.0
H721 H 0.66073 0.06782 0.06693 0.0
H722 H 0.67333 1.00673 0.09387 0.0
H723 H 0.48674 0.03146 0.15497 0.0
H724 H 0.30588 0.80234 0.18246 0.0
H725 H 0.41264 0.78051 0.1362 0.0
H726 H 0.18686 0.85803 0.10202 0.0
H727 H 0.03014 0.94765 0.0804 0.0
H728 H 0.2968 0.13164 0.0935 0.0
C729 C 0.39758 0.25654 0.29857 0.0
C730 C 0.35625 0.19095 0.31034 0.0
C731 C 0.29129 0.19287 0.32025 0.0
C732 C 0.2698 0.25984 0.3184 0.0
C733 C 0.31468 0.32387 0.30652 0.0
N734 N 0.37312 0.31659 0.29727 0.0
C735 C 0.31078 0.40412 0.30284 0.0
C736 C 0.3655 0.52955 0.28396 0.0
C737 C 0.29538 0.51859 0.27418 0.0
C738 C 0.29525 0.59123 0.26743 0.0
C739 C 0.36483 0.67497 0.27044 0.0
C740 C 0.43448 0.6862 0.28027 0.0
C741 C 0.43485 0.61369 0.28705 0.0
Cd742 Cd 0.27923 0.49775 0.33811 0.0
Cd743 Cd 0.21424 0.30444 0.35955 0.0
C744 C 0.51909 0.33739 0.25905 0.0
C745 C 0.65103 0.36683 0.24537 0.0
C746 C 0.60344 0.32879 0.23087 0.0
C747 C 0.51279 0.29252 0.23047 0.0
C748 C 0.47044 0.29491 0.24489 0.0
C749 C 0.60904 0.37837 0.25874 0.0
Co750 Co 0.42743 0.39894 0.2813 0.0
N751 N 0.33401 0.33848 0.2654 0.0
N752 N 0.48237 0.48234 0.26545 0.0
C753 C 0.43902 0.47027 0.2515 0.0
C754 C 0.479 0.53118 0.23889 0.0
C755 C 0.56342 0.60279 0.24179 0.0
C756 C 0.6061 0.61168 0.25696 0.0
C757 C 0.5621 0.54782 0.26891 0.0
N758 N 0.5316 0.47098 0.29438 0.0
N759 N 0.36643 0.45511 0.29064 0.0
N760 N 0.47829 0.33049 0.2745 0.0
O761 O 0.21134 0.38644 0.38315 0.0
O762 O 0.2546 0.50551 0.3683 0.0
C763 C 0.3859 0.68954 0.33231 0.0
O764 O 0.41538 0.63917 0.32865 0.0
O765 O 0.30775 0.65153 0.3375 0.0
C766 C 0.06276 0.32167 0.33391 0.0
O767 O 0.11282 0.40476 0.33282 0.0
O768 O 0.08976 0.27444 0.34082 0.0
C769 C 0.35441 0.38901 0.25145 0.0
O770 O 0.30799 0.36077 0.23794 0.0
O771 O 0.3642 0.42351 0.34297 0.0
O772 O 0.3576 0.31049 0.35467 0.0
C773 C 0.59102 0.54091 0.28549 0.0
O774 O 0.66797 0.59764 0.29136 0.0
C775 C 0.54823 0.44868 0.31031 0.0
C776 C 0.49814 0.45032 0.32309 0.0
C777 C 0.48042 0.39609 0.33675 0.0
C778 C 0.52839 0.35106 0.33868 0.0
C779 C 0.59285 0.3622 0.32684 0.0
C780 C 0.59958 0.40939 0.31244 0.0
C781 C 0.23177 0.4661 0.38208 0.0
O782 O 0.25598 0.42525 0.31067 0.0
C783 C 0.40158 0.37961 0.34645 0.0
C784 C 0.26189 0.24963 0.26554 0.0
C785 C 0.27413 0.1766 0.26611 0.0
C786 C 0.20991 0.09509 0.26049 0.0
C787 C 0.13377 0.08548 0.25354 0.0
C788 C 0.12174 0.15793 0.2525 0.0
C789 C 0.18122 0.2361 0.26034 0.0
C790 C 0.46229 0.26735 0.28594 0.0
O791 O 0.48936 0.21072 0.28401 0.0
H792 H 0.37248 0.13972 0.31171 0.0
H793 H 0.25812 0.14294 0.32945 0.0
H794 H 0.22162 0.26231 0.32621 0.0
H795 H 0.24139 0.454 0.27171 0.0
H796 H 0.36469 0.73109 0.26518 0.0
H797 H 0.48882 0.6232 0.29473 0.0
H798 H 0.63486 0.31814 0.22043 0.0
H799 H 0.4004 0.26246 0.24502 0.0
H800 H 0.64488 0.40912 0.26985 0.0
H801 H 0.44679 0.52368 0.22723 0.0
H802 H 0.59588 0.65098 0.23228 0.0
H803 H 0.67077 0.66614 0.25918 0.0
H804 H 0.46331 0.4855 0.32104 0.0
H805 H 0.51582 0.30839 0.34909 0.0
H806 H 0.64009 0.4104 0.30236 0.0
H807 H 0.33482 0.18123 0.26905 0.0
H808 H 0.08792 0.02346 0.24811 0.0
H809 H 0.17101 0.29166 0.26033 0.0
C810 C 0.15733 0.39811 0.46499 0.0
C811 C 0.18189 0.3558 0.47654 0.0
C812 C 0.11554 0.29044 0.48641 0.0
C813 C 0.0273 0.26949 0.48472 0.0
C814 C 1.00786 0.31537 0.47306 0.0
N815 N 0.07307 0.37421 0.46385 0.0
C816 C 0.92382 0.312 0.46958 0.0
C817 C 0.85256 0.36794 0.45102 0.0
C818 C 0.79322 0.29765 0.44135 0.0
C819 C 0.7205 0.29782 0.43465 0.0
C820 C 0.70654 0.36786 0.43761 0.0
C821 C 0.76511 0.43766 0.44734 0.0
C822 C 0.83794 0.43773 0.45407 0.0
Cd823 Cd 0.79958 0.27882 0.50488 0.0
Cd824 Cd 0.92755 0.21246 0.52602 0.0
C825 C 0.19642 0.52139 0.42572 0.0
C826 C 0.29938 0.65316 0.41215 0.0
C827 C 0.28897 0.60585 0.39757 0.0
C828 C 0.23379 0.51541 0.39706 0.0
C829 C 0.18925 0.47301 0.41145 0.0
C830 C 0.24613 0.61126 0.42554 0.0
Co831 Co 0.04452 0.4296 0.44812 0.0
N832 N 1.01087 0.33674 0.43204 0.0
N833 N 1.01563 0.48566 0.43251 0.0
C834 C 0.98346 0.4428 0.41855 0.0
C835 C 0.96165 0.48341 0.40617 0.0
C836 C 0.97464 0.56793 0.40928 0.0
C837 C 1.00938 0.61006 0.42444 0.0
C838 C 0.03002 0.56542 0.43617 0.0
N839 N 0.07724 0.53341 0.46141 0.0
N840 N 0.92805 0.36869 0.4576 0.0
N841 N 0.16318 0.48015 0.44115 0.0
O842 O 0.84397 0.21037 0.54979 0.0
O843 O 0.7684 0.25474 0.53507 0.0
C844 C 0.7139 0.38541 0.49917 0.0
O845 O 0.79343 0.41478 0.49543 0.0
O846 O 0.67437 0.30744 0.50445 0.0
C847 C 0.75814 0.06175 0.50056 0.0
O848 O 0.72557 0.11249 0.49957 0.0
O849 O 0.8324 0.08812 0.50736 0.0
C850 C 0.97993 0.35785 0.41827 0.0
O851 O 0.96054 0.3116 0.40472 0.0
O852 O 0.95854 0.36347 0.50965 0.0
O853 O 0.06462 0.35543 0.52118 0.0
C854 C 0.06649 0.59351 0.45272 0.0
O855 O 0.08682 0.6703 0.45877 0.0
C856 C 0.11642 0.54902 0.4773 0.0
C857 C 0.06513 0.49839 0.49003 0.0
C858 C 0.10173 0.47961 0.50356 0.0
C859 C 0.19449 0.52727 0.50546 0.0
C860 C 0.24744 0.59242 0.49372 0.0
C861 C 0.20681 0.6 0.4794 0.0
C862 C 0.7852 0.23167 0.54882 0.0
O863 O 0.84832 0.25652 0.47735 0.0
C864 C 0.03958 0.40022 0.51312 0.0
C865 C 0.02743 0.26421 0.43192 0.0
C866 C 0.11242 0.27587 0.43231 0.0
C867 C 0.12935 0.21139 0.42654 0.0
C868 C 0.0627 0.13551 0.41964 0.0
C869 C 0.97842 0.12398 0.41878 0.0
C870 C 0.96023 0.18386 0.42671 0.0
C871 C 0.21059 0.46326 0.45241 0.0
O872 O 0.29392 0.48988 0.45032 0.0
H873 H 0.24917 0.37154 0.47777 0.0
H874 H 0.13254 0.25649 0.49543 0.0
H875 H 0.97703 0.22092 0.49249 0.0
H876 H 0.80368 0.24332 0.4389 0.0
H877 H 0.65031 0.36795 0.43239 0.0
H878 H 0.8825 0.49183 0.46167 0.0
H879 H 0.33084 0.63709 0.38712 0.0
H880 H 0.15115 0.40303 0.4115 0.0
H881 H 0.25191 0.64688 0.43673 0.0
H882 H 0.93606 0.45155 0.39452 0.0
H883 H 0.95824 0.60088 0.39994 0.0
H884 H 1.01961 0.67476 0.42682 0.0
H885 H 0.99531 0.464 0.48801 0.0
H886 H 0.22468 0.51402 0.51578 0.0
H887 H 0.24598 0.641 0.46937 0.0
H888 H 0.16843 0.33634 0.43523 0.0
H889 H 0.07857 0.08943 0.41412 0.0
H890 H 0.89468 0.17407 0.42685 0.0
C891 C 0.78148 0.159 0.63178 0.0
C892 C 0.84827 0.18361 0.64331 0.0
C893 C 0.84779 0.11731 0.65318 0.0
C894 C 0.78107 0.02905 0.65152 0.0
C895 C 0.7158 1.00955 0.63987 0.0
N896 N 0.72169 0.07473 0.63065 0.0
C897 C 0.63563 0.9255 0.63641 0.0
C898 C 0.50867 0.85423 0.6179 0.0
C899 C 0.51979 0.79484 0.60821 0.0
C900 C 0.44723 0.7221 0.60155 0.0
C901 C 0.3634 0.70817 0.60458 0.0
C902 C 0.35201 0.76681 0.61434 0.0
C903 C 0.42444 0.83965 0.62102 0.0
Cd904 Cd 0.54483 0.80061 0.67163 0.0
Cd905 Cd 0.738 0.92782 0.69299 0.0
C906 C 0.69644 0.19796 0.59257 0.0
C907 C 0.66696 0.30082 0.57896 0.0
C908 C 0.70315 0.28968 0.56434 0.0
C909 C 0.7386 0.23437 0.56384 0.0
C910 C 0.73723 0.19032 0.57827 0.0
C911 C 0.65614 0.24785 0.59239 0.0
Co912 Co 0.63767 0.04617 0.61498 0.0
N913 N 0.69689 1.01262 0.59884 0.0
N914 N 0.55263 0.01726 0.59943 0.0
C915 C 0.56337 0.98523 0.58544 0.0
C916 C 0.50101 0.96364 0.57308 0.0
C917 C 0.42945 0.97666 0.57625 0.0
C918 C 0.42201 1.01124 0.59144 0.0
C919 C 0.48725 0.0317 0.60315 0.0
N920 N 0.56654 0.07875 0.62834 0.0
N921 N 0.58306 0.92971 0.62444 0.0
N922 N 0.70482 0.16484 0.608 0.0
O923 O 0.65678 0.84285 0.71665 0.0
O924 O 0.53785 0.76766 0.70177 0.0
C925 C 0.3531 0.71485 0.66568 0.0
O926 O 0.40263 0.79491 0.6623 0.0
O927 O 0.39191 0.67502 0.67075 0.0
C928 C 0.72118 0.7599 0.66726 0.0
O929 O 0.63809 0.72731 0.66623 0.0
O930 O 0.76846 0.83385 0.67416 0.0
C931 C 0.64483 0.98175 0.58509 0.0
O932 O 0.67174 0.96277 0.57148 0.0
O933 O 0.61855 0.95954 0.67647 0.0
O934 O 0.73179 0.06516 0.68815 0.0
C935 C 0.49564 0.06809 0.61971 0.0
O936 O 0.43922 0.0885 0.62581 0.0
C937 C 0.59025 0.11802 0.64422 0.0
C938 C 0.58973 0.06663 0.65695 0.0
C939 C 0.64546 0.10304 0.67041 0.0
C940 C 0.69111 0.19587 0.67222 0.0
C941 C 0.67903 0.24907 0.66047 0.0
C942 C 0.63011 0.2085 0.64625 0.0
C943 C 0.57728 0.78374 0.71555 0.0
O944 O 0.61618 0.84999 0.64416 0.0
C945 C 0.6625 0.04051 0.67998 0.0
C946 C 0.78591 0.02925 0.59864 0.0
C947 C 0.85871 0.11423 0.59901 0.0
C948 C 0.93979 0.13124 0.59309 0.0
C949 C 0.94916 0.06469 0.58605 0.0
C950 C 0.87691 0.98046 0.58523 0.0
C951 C 0.79939 0.96214 0.59334 0.0
C952 C 0.76903 0.21225 0.61922 0.0
O953 O 0.82516 0.29558 0.61711 0.0
H954 H 0.89933 0.25091 0.64454 0.0
H955 H 0.89867 0.13435 0.6622 0.0
H956 H 0.77975 0.97882 0.65929 0.0
H957 H 0.58446 0.80528 0.60571 0.0
H958 H 0.30733 0.65192 0.5994 0.0
H959 H 0.41478 0.88425 0.62865 0.0
H960 H 0.7132 0.33122 0.55385 0.0
H961 H 0.76937 0.15225 0.57831 0.0
H962 H 0.62677 0.25416 0.6036 0.0
H963 H 0.50735 0.93825 0.5614 0.0
H964 H 0.38015 0.96043 0.56693 0.0
H965 H 0.36754 0.02152 0.59387 0.0
H966 H 0.55414 0.99679 0.65497 0.0
H967 H 0.73499 0.22591 0.68246 0.0
H968 H 0.62824 0.24774 0.6362 0.0
H969 H 0.85402 0.17022 0.60202 0.0
H970 H 1.01073 0.0806 0.5804 0.0
H971 H 0.74408 0.89661 0.5935 0.0
loop_
_geom_bond_atom_site_label_1
_geom_bond_atom_site_label_2
_geom_bond_distance
_geom_bond_site_symmetry_2
_ccdc_geom_bond_type
C0 C1 1.359 . S
C0 N5 1.330 . S
C0 C61 1.504 . S
C1 C0 1.359 . S
C1 C2 1.366 . S
C1 H63 0.929 . S
C2 C1 1.366 . S
C2 C3 1.415 . S
C2 H64 0.932 . S
C3 C2 1.415 . S
C3 C4 1.366 . S
C3 H65 0.931 . S
C4 C3 1.366 . S
C4 N5 1.325 . S
C4 C6 1.516 . S
N5 C0 1.330 . S
N5 C4 1.325 . S
N5 Co21 1.869 . S
C6 C4 1.516 . S
C6 N30 1.316 . S
C6 O53 1.263 . S
C7 C8 1.421 . S
C7 C12 1.360 . S
C7 N30 1.436 . S
C8 C7 1.421 . S
C8 C9 1.379 . S
C8 H66 0.929 . S
C9 C8 1.379 . S
C9 C10 1.417 . S
C10 C9 1.417 . S
C10 C11 1.352 . S
C10 H67 0.929 . S
C11 C10 1.352 . S
C11 C12 1.393 . S
C12 C7 1.360 . S
C12 C11 1.393 . S
C12 H68 0.931 . S
Cd13 O33 2.329 . S
Cd13 O35 2.350 . S
Cd13 O36 2.277 1_556 S
Cd13 O38 2.173 . S
Cd13 O42 2.263 . S
Cd13 O53 2.366 1_556 S
Cd14 O32 2.352 . S
Cd14 O39 2.250 . S
Cd14 O43 2.308 . S
C15 C19 1.403 . S
C15 C20 1.370 . S
C15 N31 1.423 . S
C16 C17 1.389 . S
C16 C20 1.389 . S
C17 C16 1.389 . S
C17 C18 1.379 . S
C17 H69 0.929 . S
C18 C17 1.379 . S
C18 C19 1.405 . S
C19 C15 1.403 . S
C19 C18 1.405 . S
C19 H70 0.932 . S
C20 C15 1.370 . S
C20 C16 1.389 . S
C20 H71 0.931 . S
Co21 N5 1.869 . S
Co21 N22 1.955 . S
Co21 N23 1.864 . S
Co21 N29 1.958 . S
Co21 N30 1.953 . S
Co21 N31 1.974 . S
N22 Co21 1.955 . S
N22 C40 1.329 . S
N22 C55 1.432 . S
N23 Co21 1.864 . S
N23 C24 1.327 . S
N23 C28 1.342 . S
C24 N23 1.327 . S
C24 C25 1.407 . S
C24 C40 1.481 . S
C25 C24 1.407 . S
C25 C26 1.364 . S
C25 H72 0.930 . S
C26 C25 1.364 . S
C26 C27 1.390 . S
C26 H73 0.931 . S
C27 C26 1.390 . S
C27 C28 1.346 . S
C27 H74 0.930 . S
C28 N23 1.342 . S
C28 C27 1.346 . S
C28 C44 1.516 . S
N29 Co21 1.958 . S
N29 C44 1.324 . S
N29 C46 1.427 . S
N30 C6 1.316 . S
N30 C7 1.436 . S
N30 Co21 1.953 . S
N31 C15 1.423 . S
N31 Co21 1.974 . S
N31 C61 1.309 . S
O32 Cd14 2.352 . S
O32 C52 1.235 . S
O33 Cd13 2.329 . S
O33 C52 1.270 . S
C34 O35 1.270 1_554 S
C34 O36 1.248 . S
O35 Cd13 2.350 . S
O35 C34 1.270 1_556 S
O36 Cd13 2.277 1_554 S
O36 C34 1.248 . S
C37 O38 1.277 . S
C37 O39 1.230 . S
O38 Cd13 2.173 . S
O38 C37 1.277 . S
O39 Cd14 2.250 . S
O39 C37 1.230 . S
C40 N22 1.329 . S
C40 C24 1.481 . S
C40 O41 1.246 . S
O41 C40 1.246 . S
O42 Cd13 2.263 . S
O42 C54 1.258 . S
O43 Cd14 2.308 . S
O43 C54 1.274 . S
C44 C28 1.516 . S
C44 N29 1.324 . S
C44 O45 1.238 . S
O45 C44 1.238 . S
C46 N29 1.427 . S
C46 C47 1.394 . S
C46 C51 1.395 . S
C47 C46 1.394 . S
C47 C48 1.380 1_554 S
C47 H75 0.929 . S
C48 C47 1.380 1_556 S
C48 C49 1.384 . S
C48 C54 1.495 . S
C49 C48 1.384 . S
C49 C50 1.382 1_556 S
C49 H76 0.930 . S
C50 C49 1.382 1_554 S
C50 C51 1.398 . S
C51 C46 1.395 . S
C51 C50 1.398 . S
C51 H77 0.930 . S
C52 O32 1.235 . S
C52 O33 1.270 . S
O53 C6 1.263 . S
O53 Cd13 2.366 1_554 S
C54 O42 1.258 . S
C54 O43 1.274 . S
C54 C48 1.495 . S
C55 N22 1.432 . S
C55 C56 1.381 . S
C55 C60 1.385 . S
C56 C55 1.381 . S
C56 C57 1.371 . S
C56 H78 0.932 . S
C57 C56 1.371 . S
C57 C58 1.400 . S
C58 C57 1.400 . S
C58 C59 1.351 . S
C58 H79 0.930 . S
C59 C58 1.351 . S
C59 C60 1.388 . S
C60 C55 1.385 . S
C60 C59 1.388 . S
C60 H80 0.929 . S
C61 C0 1.504 . S
C61 N31 1.309 . S
C61 O62 1.258 . S
O62 C61 1.258 . S
H63 C1 0.929 . S
H64 C2 0.932 . S
H65 C3 0.931 . S
H66 C8 0.929 . S
H67 C10 0.929 . S
H68 C12 0.931 . S
H69 C17 0.929 . S
H70 C19 0.932 . S
H71 C20 0.931 . S
H72 C25 0.930 . S
H73 C26 0.931 . S
H74 C27 0.930 . S
H75 C47 0.929 . S
H76 C49 0.930 . S
H77 C51 0.930 . S
H78 C56 0.932 . S
H79 C58 0.930 . S
H80 C60 0.929 . S
C81 C82 1.359 . S
C81 N86 1.330 . S
C81 C142 1.504 . S
C82 C81 1.359 . S
C82 C83 1.366 . S
C82 H144 0.929 . S
C83 C82 1.366 . S
C83 C84 1.415 1_655 S
C83 H145 0.932 1_655 S
C84 C83 1.415 1_455 S
C84 C85 1.366 . S
C84 H146 0.931 . S
C85 C84 1.366 . S
C85 N86 1.325 1_455 S
C85 C87 1.516 . S
N86 C81 1.330 . S
N86 C85 1.325 1_655 S
N86 Co102 1.869 . S
C87 C85 1.516 . S
C87 N111 1.316 . S
C87 O134 1.263 . S
C88 C89 1.421 . S
C88 C93 1.360 . S
C88 N111 1.436 . S
C89 C88 1.421 . S
C89 C90 1.379 . S
C89 H147 0.929 . S
C90 C89 1.379 . S
C90 C91 1.417 . S
C91 C90 1.417 . S
C91 C92 1.352 . S
C91 H148 0.929 . S
C92 C91 1.352 . S
C92 C93 1.393 . S
C93 C88 1.360 . S
C93 C92 1.393 . S
C93 H149 0.931 1_455 S
Cd94 O114 2.329 . S
Cd94 O116 2.350 . S
Cd94 O117 2.277 . S
Cd94 O119 2.173 . S
Cd94 O123 2.263 . S
Cd94 O134 2.366 . S
Cd95 O113 2.352 . S
Cd95 O120 2.250 . S
Cd95 O124 2.308 1_455 S
C96 C100 1.403 . S
C96 C101 1.370 . S
C96 N112 1.423 . S
C97 C98 1.389 . S
C97 C101 1.389 . S
C98 C97 1.389 . S
C98 C99 1.379 . S
C98 H150 0.929 . S
C99 C98 1.379 . S
C99 C100 1.405 . S
C100 C96 1.403 . S
C100 C99 1.405 . S
C100 H151 0.932 . S
C101 C96 1.370 . S
C101 C97 1.389 . S
C101 H152 0.931 . S
Co102 N86 1.869 . S
Co102 N103 1.955 1_655 S
Co102 N104 1.864 . S
Co102 N110 1.958 . S
Co102 N111 1.953 1_655 S
Co102 N112 1.974 . S
N103 Co102 1.955 1_455 S
N103 C121 1.329 . S
N103 C136 1.432 . S
N104 Co102 1.864 . S
N104 C105 1.327 . S
N104 C109 1.342 . S
C105 N104 1.327 . S
C105 C106 1.407 . S
C105 C121 1.481 1_655 S
C106 C105 1.407 . S
C106 C107 1.364 . S
C106 H153 0.930 . S
C107 C106 1.364 . S
C107 C108 1.390 . S
C107 H154 0.931 . S
C108 C107 1.390 . S
C108 C109 1.346 . S
C108 H155 0.930 . S
C109 N104 1.342 . S
C109 C108 1.346 . S
C109 C125 1.516 . S
N110 Co102 1.958 . S
N110 C125 1.324 . S
N110 C127 1.427 . S
N111 C87 1.316 . S
N111 C88 1.436 . S
N111 Co102 1.953 1_455 S
N112 C96 1.423 . S
N112 Co102 1.974 . S
N112 C142 1.309 . S
O113 Cd95 2.352 . S
O113 C133 1.235 . S
O114 Cd94 2.329 . S
O114 C133 1.270 . S
C115 O116 1.270 . S
C115 O117 1.248 . S
O116 Cd94 2.350 . S
O116 C115 1.270 . S
O117 Cd94 2.277 . S
O117 C115 1.248 . S
C118 O119 1.277 . S
C118 O120 1.230 . S
O119 Cd94 2.173 . S
O119 C118 1.277 . S
O120 Cd95 2.250 . S
O120 C118 1.230 . S
C121 N103 1.329 . S
C121 C105 1.481 1_455 S
C121 O122 1.246 . S
O122 C121 1.246 . S
O123 Cd94 2.263 . S
O123 C135 1.258 1_455 S
O124 Cd95 2.308 1_655 S
O124 C135 1.274 . S
C125 C109 1.516 . S
C125 N110 1.324 . S
C125 O126 1.238 . S
O126 C125 1.238 . S
C127 N110 1.427 . S
C127 C128 1.394 . S
C127 C132 1.395 . S
C128 C127 1.394 . S
C128 C129 1.380 . S
C128 H156 0.929 . S
C129 C128 1.380 . S
C129 C130 1.384 . S
C129 C135 1.495 . S
C130 C129 1.384 . S
C130 C131 1.382 . S
C130 H157 0.930 . S
C131 C130 1.382 . S
C131 C132 1.398 . S
C132 C127 1.395 . S
C132 C131 1.398 . S
C132 H158 0.930 . S
C133 O113 1.235 . S
C133 O114 1.270 . S
O134 C87 1.263 . S
O134 Cd94 2.366 . S
C135 O123 1.258 1_655 S
C135 O124 1.274 . S
C135 C129 1.495 . S
C136 N103 1.432 . S
C136 C137 1.381 . S
C136 C141 1.385 . S
C137 C136 1.381 . S
C137 C138 1.371 . S
C137 H159 0.932 1_455 S
C138 C137 1.371 . S
C138 C139 1.400 . S
C139 C138 1.400 . S
C139 C140 1.351 . S
C139 H160 0.930 . S
C140 C139 1.351 . S
C140 C141 1.388 . S
C141 C136 1.385 . S
C141 C140 1.388 . S
C141 H161 0.929 . S
C142 C81 1.504 . S
C142 N112 1.309 . S
C142 O143 1.258 . S
O143 C142 1.258 . S
H144 C82 0.929 . S
H145 C83 0.932 1_455 S
H146 C84 0.931 . S
H147 C89 0.929 . S
H148 C91 0.929 . S
H149 C93 0.931 1_655 S
H150 C98 0.929 . S
H151 C100 0.932 . S
H152 C101 0.931 . S
H153 C106 0.930 . S
H154 C107 0.931 . S
H155 C108 0.930 . S
H156 C128 0.929 . S
H157 C130 0.930 . S
H158 C132 0.930 . S
H159 C137 0.932 1_655 S
H160 C139 0.930 . S
H161 C141 0.929 . S
C162 C163 1.359 . S
C162 N167 1.330 . S
C162 C223 1.504 . S
C163 C162 1.359 . S
C163 C164 1.366 . S
C163 H225 0.929 . S
C164 C163 1.366 . S
C164 C165 1.415 1_565 S
C164 H226 0.932 1_565 S
C165 C164 1.415 1_545 S
C165 C166 1.366 . S
C165 H227 0.931 . S
C166 C165 1.366 . S
C166 N167 1.325 1_545 S
C166 C168 1.516 . S
N167 C162 1.330 . S
N167 C166 1.325 1_565 S
N167 Co183 1.869 . S
C168 C166 1.516 . S
C168 N192 1.316 . S
C168 O215 1.263 . S
C169 C170 1.421 . S
C169 C174 1.360 . S
C169 N192 1.436 . S
C170 C169 1.421 . S
C170 C171 1.379 . S
C170 H228 0.929 . S
C171 C170 1.379 . S
C171 C172 1.417 . S
C172 C171 1.417 . S
C172 C173 1.352 . S
C172 H229 0.929 . S
C173 C172 1.352 . S
C173 C174 1.393 . S
C174 C169 1.360 . S
C174 C173 1.393 . S
C174 H230 0.931 1_545 S
Cd175 O195 2.329 . S
Cd175 O197 2.350 . S
Cd175 O198 2.277 . S
Cd175 O200 2.173 . S
Cd175 O204 2.263 . S
Cd175 O215 2.366 . S
Cd176 O194 2.352 . S
Cd176 O201 2.250 . S
Cd176 O205 2.308 1_545 S
C177 C181 1.403 . S
C177 C182 1.370 . S
C177 N193 1.423 . S
C178 C179 1.389 . S
C178 C182 1.389 . S
C179 C178 1.389 . S
C179 C180 1.379 . S
C179 H231 0.929 . S
C180 C179 1.379 . S
C180 C181 1.405 . S
C181 C177 1.403 . S
C181 C180 1.405 . S
C181 H232 0.932 . S
C182 C177 1.370 . S
C182 C178 1.389 . S
C182 H233 0.931 . S
Co183 N167 1.869 . S
Co183 N184 1.955 1_565 S
Co183 N185 1.864 . S
Co183 N191 1.958 . S
Co183 N192 1.953 1_565 S
Co183 N193 1.974 . S
N184 Co183 1.955 1_545 S
N184 C202 1.329 . S
N184 C217 1.432 . S
N185 Co183 1.864 . S
N185 C186 1.327 . S
N185 C190 1.342 . S
C186 N185 1.327 . S
C186 C187 1.407 . S
C186 C202 1.481 1_565 S
C187 C186 1.407 . S
C187 C188 1.364 . S
C187 H234 0.930 . S
C188 C187 1.364 . S
C188 C189 1.390 . S
C188 H235 0.931 . S
C189 C188 1.390 . S
C189 C190 1.346 . S
C189 H236 0.930 . S
C190 N185 1.342 . S
C190 C189 1.346 . S
C190 C206 1.516 . S
N191 Co183 1.958 . S
N191 C206 1.324 . S
N191 C208 1.427 . S
N192 C168 1.316 . S
N192 C169 1.436 . S
N192 Co183 1.953 1_545 S
N193 C177 1.423 . S
N193 Co183 1.974 . S
N193 C223 1.309 . S
O194 Cd176 2.352 . S
O194 C214 1.235 . S
O195 Cd175 2.329 . S
O195 C214 1.270 . S
C196 O197 1.270 . S
C196 O198 1.248 . S
O197 Cd175 2.350 . S
O197 C196 1.270 . S
O198 Cd175 2.277 . S
O198 C196 1.248 . S
C199 O200 1.277 . S
C199 O201 1.230 . S
O200 Cd175 2.173 . S
O200 C199 1.277 . S
O201 Cd176 2.250 . S
O201 C199 1.230 . S
C202 N184 1.329 . S
C202 C186 1.481 1_545 S
C202 O203 1.246 . S
O203 C202 1.246 . S
O204 Cd175 2.263 . S
O204 C216 1.258 1_545 S
O205 Cd176 2.308 1_565 S
O205 C216 1.274 . S
C206 C190 1.516 . S
C206 N191 1.324 . S
C206 O207 1.238 . S
O207 C206 1.238 . S
C208 N191 1.427 . S
C208 C209 1.394 . S
C208 C213 1.395 . S
C209 C208 1.394 . S
C209 C210 1.380 . S
C209 H237 0.929 . S
C210 C209 1.380 . S
C210 C211 1.384 . S
C210 C216 1.495 . S
C211 C210 1.384 . S
C211 C212 1.382 . S
C211 H238 0.930 . S
C212 C211 1.382 . S
C212 C213 1.398 . S
C213 C208 1.395 . S
C213 C212 1.398 . S
C213 H239 0.930 . S
C214 O194 1.235 . S
C214 O195 1.270 . S
O215 C168 1.263 . S
O215 Cd175 2.366 . S
C216 O204 1.258 1_565 S
C216 O205 1.274 . S
C216 C210 1.495 . S
C217 N184 1.432 . S
C217 C218 1.381 . S
C217 C222 1.385 . S
C218 C217 1.381 . S
C218 C219 1.371 . S
C218 H240 0.932 1_545 S
C219 C218 1.371 . S
C219 C220 1.400 . S
C220 C219 1.400 . S
C220 C221 1.351 . S
C220 H241 0.930 . S
C221 C220 1.351 . S
C221 C222 1.388 . S
C222 C217 1.385 . S
C222 C221 1.388 . S
C222 H242 0.929 . S
C223 C162 1.504 . S
C223 N193 1.309 . S
C223 O224 1.258 . S
O224 C223 1.258 . S
H225 C163 0.929 . S
H226 C164 0.932 1_545 S
H227 C165 0.931 . S
H228 C170 0.929 . S
H229 C172 0.929 . S
H230 C174 0.931 1_565 S
H231 C179 0.929 . S
H232 C181 0.932 . S
H233 C182 0.931 . S
H234 C187 0.930 . S
H235 C188 0.931 . S
H236 C189 0.930 . S
H237 C209 0.929 . S
H238 C211 0.930 . S
H239 C213 0.930 . S
H240 C218 0.932 1_565 S
H241 C220 0.930 . S
H242 C222 0.929 . S
C243 C244 1.359 . S
C243 N248 1.330 . S
C243 C304 1.504 . S
C244 C243 1.359 . S
C244 C245 1.366 . S
C244 H306 0.929 . S
C245 C244 1.366 . S
C245 C246 1.415 . S
C245 H307 0.932 . S
C246 C245 1.415 . S
C246 C247 1.366 . S
C246 H308 0.931 . S
C247 C246 1.366 . S
C247 N248 1.325 . S
C247 C249 1.516 . S
N248 C243 1.330 . S
N248 C247 1.325 . S
N248 Co264 1.869 . S
C249 C247 1.516 . S
C249 N273 1.316 . S
C249 O296 1.263 . S
C250 C251 1.421 . S
C250 C255 1.360 . S
C250 N273 1.436 . S
C251 C250 1.421 . S
C251 C252 1.379 . S
C251 H309 0.929 . S
C252 C251 1.379 . S
C252 C253 1.417 . S
C253 C252 1.417 . S
C253 C254 1.352 . S
C253 H310 0.929 . S
C254 C253 1.352 . S
C254 C255 1.393 . S
C255 C250 1.360 . S
C255 C254 1.393 . S
C255 H311 0.931 . S
Cd256 O276 2.329 . S
Cd256 O278 2.350 . S
Cd256 O279 2.277 . S
Cd256 O281 2.173 . S
Cd256 O285 2.263 . S
Cd256 O296 2.366 . S
Cd257 O275 2.352 . S
Cd257 O282 2.250 . S
Cd257 O286 2.308 . S
C258 C262 1.403 . S
C258 C263 1.370 . S
C258 N274 1.423 . S
C259 C260 1.389 . S
C259 C263 1.389 . S
C260 C259 1.389 . S
C260 C261 1.379 . S
C260 H312 0.929 . S
C261 C260 1.379 . S
C261 C262 1.405 . S
C262 C258 1.403 . S
C262 C261 1.405 . S
C262 H313 0.932 . S
C263 C258 1.370 . S
C263 C259 1.389 . S
C263 H314 0.931 . S
Co264 N248 1.869 . S
Co264 N265 1.955 . S
Co264 N266 1.864 . S
Co264 N272 1.958 . S
Co264 N273 1.953 . S
Co264 N274 1.974 . S
N265 Co264 1.955 . S
N265 C283 1.329 . S
N265 C298 1.432 . S
N266 Co264 1.864 . S
N266 C267 1.327 . S
N266 C271 1.342 . S
C267 N266 1.327 . S
C267 C268 1.407 . S
C267 C283 1.481 . S
C268 C267 1.407 . S
C268 C269 1.364 . S
C268 H315 0.930 . S
C269 C268 1.364 . S
C269 C270 1.390 . S
C269 H316 0.931 . S
C270 C269 1.390 . S
C270 C271 1.346 . S
C270 H317 0.930 . S
C271 N266 1.342 . S
C271 C270 1.346 . S
C271 C287 1.516 . S
N272 Co264 1.958 . S
N272 C287 1.324 . S
N272 C289 1.427 . S
N273 C249 1.316 . S
N273 C250 1.436 . S
N273 Co264 1.953 . S
N274 C258 1.423 . S
N274 Co264 1.974 . S
N274 C304 1.309 . S
O275 Cd257 2.352 . S
O275 C295 1.235 . S
O276 Cd256 2.329 . S
O276 C295 1.270 . S
C277 O278 1.270 . S
C277 O279 1.248 . S
O278 Cd256 2.350 . S
O278 C277 1.270 . S
O279 Cd256 2.277 . S
O279 C277 1.248 . S
C280 O281 1.277 . S
C280 O282 1.230 . S
O281 Cd256 2.173 . S
O281 C280 1.277 . S
O282 Cd257 2.250 . S
O282 C280 1.230 . S
C283 N265 1.329 . S
C283 C267 1.481 . S
C283 O284 1.246 . S
O284 C283 1.246 . S
O285 Cd256 2.263 . S
O285 C297 1.258 . S
O286 Cd257 2.308 . S
O286 C297 1.274 . S
C287 C271 1.516 . S
C287 N272 1.324 . S
C287 O288 1.238 . S
O288 C287 1.238 . S
C289 N272 1.427 . S
C289 C290 1.394 . S
C289 C294 1.395 . S
C290 C289 1.394 . S
C290 C291 1.380 . S
C290 H318 0.929 . S
C291 C290 1.380 . S
C291 C292 1.384 . S
C291 C297 1.495 . S
C292 C291 1.384 . S
C292 C293 1.382 . S
C292 H319 0.930 . S
C293 C292 1.382 . S
C293 C294 1.398 . S
C294 C289 1.395 . S
C294 C293 1.398 . S
C294 H320 0.930 . S
C295 O275 1.235 . S
C295 O276 1.270 . S
O296 C249 1.263 . S
O296 Cd256 2.366 . S
C297 O285 1.258 . S
C297 O286 1.274 . S
C297 C291 1.495 . S
C298 N265 1.432 . S
C298 C299 1.381 . S
C298 C303 1.385 . S
C299 C298 1.381 . S
C299 C300 1.371 . S
C299 H321 0.932 . S
C300 C299 1.371 . S
C300 C301 1.400 . S
C301 C300 1.400 . S
C301 C302 1.351 . S
C301 H322 0.930 . S
C302 C301 1.351 . S
C302 C303 1.388 . S
C303 C298 1.385 . S
C303 C302 1.388 . S
C303 H323 0.929 . S
C304 C243 1.504 . S
C304 N274 1.309 . S
C304 O305 1.258 . S
O305 C304 1.258 . S
H306 C244 0.929 . S
H307 C245 0.932 . S
H308 C246 0.931 . S
H309 C251 0.929 . S
H310 C253 0.929 . S
H311 C255 0.931 . S
H312 C260 0.929 . S
H313 C262 0.932 . S
H314 C263 0.931 . S
H315 C268 0.930 . S
H316 C269 0.931 . S
H317 C270 0.930 . S
H318 C290 0.929 . S
H319 C292 0.930 . S
H320 C294 0.930 . S
H321 C299 0.932 . S
H322 C301 0.930 . S
H323 C303 0.929 . S
C324 C325 1.359 . S
C324 N329 1.330 . S
C324 C385 1.504 . S
C325 C324 1.359 . S
C325 C326 1.366 . S
C325 H387 0.929 . S
C326 C325 1.366 . S
C326 C327 1.415 1_455 S
C326 H388 0.932 1_455 S
C327 C326 1.415 1_655 S
C327 C328 1.366 . S
C327 H389 0.931 . S
C328 C327 1.366 . S
C328 N329 1.325 1_655 S
C328 C330 1.516 . S
N329 C324 1.330 . S
N329 C328 1.325 1_455 S
N329 Co345 1.869 . S
C330 C328 1.516 . S
C330 N354 1.316 . S
C330 O377 1.263 . S
C331 C332 1.421 . S
C331 C336 1.360 . S
C331 N354 1.436 . S
C332 C331 1.421 . S
C332 C333 1.379 . S
C332 H390 0.929 . S
C333 C332 1.379 . S
C333 C334 1.417 . S
C334 C333 1.417 . S
C334 C335 1.352 . S
C334 H391 0.929 . S
C335 C334 1.352 . S
C335 C336 1.393 . S
C336 C331 1.360 . S
C336 C335 1.393 . S
C336 H392 0.931 1_655 S
Cd337 O357 2.329 . S
Cd337 O359 2.350 . S
Cd337 O360 2.277 . S
Cd337 O362 2.173 . S
Cd337 O366 2.263 . S
Cd337 O377 2.366 . S
Cd338 O356 2.352 . S
Cd338 O363 2.250 . S
Cd338 O367 2.308 1_655 S
C339 C343 1.403 . S
C339 C344 1.370 . S
C339 N355 1.423 . S
C340 C341 1.389 . S
C340 C344 1.389 . S
C341 C340 1.389 . S
C341 C342 1.379 . S
C341 H393 0.929 . S
C342 C341 1.379 . S
C342 C343 1.405 . S
C343 C339 1.403 . S
C343 C342 1.405 . S
C343 H394 0.932 . S
C344 C339 1.370 . S
C344 C340 1.389 . S
C344 H395 0.931 . S
Co345 N329 1.869 . S
Co345 N346 1.955 1_455 S
Co345 N347 1.864 . S
Co345 N353 1.958 . S
Co345 N354 1.953 1_455 S
Co345 N355 1.974 . S
N346 Co345 1.955 1_655 S
N346 C364 1.329 . S
N346 C379 1.432 . S
N347 Co345 1.864 . S
N347 C348 1.327 . S
N347 C352 1.342 . S
C348 N347 1.327 . S
C348 C349 1.407 . S
C348 C364 1.481 1_455 S
C349 C348 1.407 . S
C349 C350 1.364 . S
C349 H396 0.930 . S
C350 C349 1.364 . S
C350 C351 1.390 . S
C350 H397 0.931 . S
C351 C350 1.390 . S
C351 C352 1.346 . S
C351 H398 0.930 . S
C352 N347 1.342 . S
C352 C351 1.346 . S
C352 C368 1.516 . S
N353 Co345 1.958 . S
N353 C368 1.324 . S
N353 C370 1.427 . S
N354 C330 1.316 . S
N354 C331 1.436 . S
N354 Co345 1.953 1_655 S
N355 C339 1.423 . S
N355 Co345 1.974 . S
N355 C385 1.309 . S
O356 Cd338 2.352 . S
O356 C376 1.235 . S
O357 Cd337 2.329 . S
O357 C376 1.270 . S
C358 O359 1.270 . S
C358 O360 1.248 . S
O359 Cd337 2.350 . S
O359 C358 1.270 . S
O360 Cd337 2.277 . S
O360 C358 1.248 . S
C361 O362 1.277 . S
C361 O363 1.230 . S
O362 Cd337 2.173 . S
O362 C361 1.277 . S
O363 Cd338 2.250 . S
O363 C361 1.230 . S
C364 N346 1.329 . S
C364 C348 1.481 1_655 S
C364 O365 1.246 . S
O365 C364 1.246 . S
O366 Cd337 2.263 . S
O366 C378 1.258 1_655 S
O367 Cd338 2.308 1_455 S
O367 C378 1.274 . S
C368 C352 1.516 . S
C368 N353 1.324 . S
C368 O369 1.238 . S
O369 C368 1.238 . S
C370 N353 1.427 . S
C370 C371 1.394 . S
C370 C375 1.395 . S
C371 C370 1.394 . S
C371 C372 1.380 . S
C371 H399 0.929 . S
C372 C371 1.380 . S
C372 C373 1.384 . S
C372 C378 1.495 . S
C373 C372 1.384 . S
C373 C374 1.382 . S
C373 H400 0.930 . S
C374 C373 1.382 . S
C374 C375 1.398 . S
C375 C370 1.395 . S
C375 C374 1.398 . S
C375 H401 0.930 . S
C376 O356 1.235 . S
C376 O357 1.270 . S
O377 C330 1.263 . S
O377 Cd337 2.366 . S
C378 O366 1.258 1_455 S
C378 O367 1.274 . S
C378 C372 1.495 . S
C379 N346 1.432 . S
C379 C380 1.381 . S
C379 C384 1.385 . S
C380 C379 1.381 . S
C380 C381 1.371 . S
C380 H402 0.932 1_655 S
C381 C380 1.371 . S
C381 C382 1.400 . S
C382 C381 1.400 . S
C382 C383 1.351 . S
C382 H403 0.930 . S
C383 C382 1.351 . S
C383 C384 1.388 . S
C384 C379 1.385 . S
C384 C383 1.388 . S
C384 H404 0.929 . S
C385 C324 1.504 . S
C385 N355 1.309 . S
C385 O386 1.258 . S
O386 C385 1.258 . S
H387 C325 0.929 . S
H388 C326 0.932 1_655 S
H389 C327 0.931 . S
H390 C332 0.929 . S
H391 C334 0.929 . S
H392 C336 0.931 1_455 S
H393 C341 0.929 . S
H394 C343 0.932 . S
H395 C344 0.931 . S
H396 C349 0.930 . S
H397 C350 0.931 . S
H398 C351 0.930 . S
H399 C371 0.929 . S
H400 C373 0.930 . S
H401 C375 0.930 . S
H402 C380 0.932 1_455 S
H403 C382 0.930 . S
H404 C384 0.929 . S
C405 C406 1.359 . S
C405 N410 1.330 . S
C405 C466 1.504 . S
C406 C405 1.359 . S
C406 C407 1.366 . S
C406 H468 0.929 . S
C407 C406 1.366 . S
C407 C408 1.415 1_545 S
C407 H469 0.932 1_545 S
C408 C407 1.415 1_565 S
C408 C409 1.366 . S
C408 H470 0.931 . S
C409 C408 1.366 . S
C409 N410 1.325 1_565 S
C409 C411 1.516 . S
N410 C405 1.330 . S
N410 C409 1.325 1_545 S
N410 Co426 1.869 . S
C411 C409 1.516 . S
C411 N435 1.316 . S
C411 O458 1.263 . S
C412 C413 1.421 . S
C412 C417 1.360 . S
C412 N435 1.436 . S
C413 C412 1.421 . S
C413 C414 1.379 . S
C413 H471 0.929 . S
C414 C413 1.379 . S
C414 C415 1.417 . S
C415 C414 1.417 . S
C415 C416 1.352 . S
C415 H472 0.929 . S
C416 C415 1.352 . S
C416 C417 1.393 . S
C417 C412 1.360 . S
C417 C416 1.393 . S
C417 H473 0.931 1_565 S
Cd418 O438 2.329 . S
Cd418 O440 2.350 . S
Cd418 O441 2.277 . S
Cd418 O443 2.173 . S
Cd418 O447 2.263 . S
Cd418 O458 2.366 . S
Cd419 O437 2.352 . S
Cd419 O444 2.250 . S
Cd419 O448 2.308 1_565 S
C420 C424 1.403 . S
C420 C425 1.370 . S
C420 N436 1.423 . S
C421 C422 1.389 . S
C421 C425 1.389 . S
C422 C421 1.389 . S
C422 C423 1.379 . S
C422 H474 0.929 . S
C423 C422 1.379 . S
C423 C424 1.405 . S
C424 C420 1.403 . S
C424 C423 1.405 . S
C424 H475 0.932 . S
C425 C420 1.370 . S
C425 C421 1.389 . S
C425 H476 0.931 . S
Co426 N410 1.869 . S
Co426 N427 1.955 1_545 S
Co426 N428 1.864 . S
Co426 N434 1.958 . S
Co426 N435 1.953 1_545 S
Co426 N436 1.974 . S
N427 Co426 1.955 1_565 S
N427 C445 1.329 . S
N427 C460 1.432 . S
N428 Co426 1.864 . S
N428 C429 1.327 . S
N428 C433 1.342 . S
C429 N428 1.327 . S
C429 C430 1.407 . S
C429 C445 1.481 1_545 S
C430 C429 1.407 . S
C430 C431 1.364 . S
C430 H477 0.930 . S
C431 C430 1.364 . S
C431 C432 1.390 . S
C431 H478 0.931 . S
C432 C431 1.390 . S
C432 C433 1.346 . S
C432 H479 0.930 . S
C433 N428 1.342 . S
C433 C432 1.346 . S
C433 C449 1.516 . S
N434 Co426 1.958 . S
N434 C449 1.324 . S
N434 C451 1.427 . S
N435 C411 1.316 . S
N435 C412 1.436 . S
N435 Co426 1.953 1_565 S
N436 C420 1.423 . S
N436 Co426 1.974 . S
N436 C466 1.309 . S
O437 Cd419 2.352 . S
O437 C457 1.235 . S
O438 Cd418 2.329 . S
O438 C457 1.270 . S
C439 O440 1.270 . S
C439 O441 1.248 . S
O440 Cd418 2.350 . S
O440 C439 1.270 . S
O441 Cd418 2.277 . S
O441 C439 1.248 . S
C442 O443 1.277 . S
C442 O444 1.230 . S
O443 Cd418 2.173 . S
O443 C442 1.277 . S
O444 Cd419 2.250 . S
O444 C442 1.230 . S
C445 N427 1.329 . S
C445 C429 1.481 1_565 S
C445 O446 1.246 . S
O446 C445 1.246 . S
O447 Cd418 2.263 . S
O447 C459 1.258 1_565 S
O448 Cd419 2.308 1_545 S
O448 C459 1.274 . S
C449 C433 1.516 . S
C449 N434 1.324 . S
C449 O450 1.238 . S
O450 C449 1.238 . S
C451 N434 1.427 . S
C451 C452 1.394 . S
C451 C456 1.395 . S
C452 C451 1.394 . S
C452 C453 1.380 . S
C452 H480 0.929 . S
C453 C452 1.380 . S
C453 C454 1.384 . S
C453 C459 1.495 . S
C454 C453 1.384 . S
C454 C455 1.382 . S
C454 H481 0.930 . S
C455 C454 1.382 . S
C455 C456 1.398 . S
C456 C451 1.395 . S
C456 C455 1.398 . S
C456 H482 0.930 . S
C457 O437 1.235 . S
C457 O438 1.270 . S
O458 C411 1.263 . S
O458 Cd418 2.366 . S
C459 O447 1.258 1_545 S
C459 O448 1.274 . S
C459 C453 1.495 . S
C460 N427 1.432 . S
C460 C461 1.381 . S
C460 C465 1.385 . S
C461 C460 1.381 . S
C461 C462 1.371 . S
C461 H483 0.932 1_565 S
C462 C461 1.371 . S
C462 C463 1.400 . S
C463 C462 1.400 . S
C463 C464 1.351 . S
C463 H484 0.930 . S
C464 C463 1.351 . S
C464 C465 1.388 . S
C465 C460 1.385 . S
C465 C464 1.388 . S
C465 H485 0.929 . S
C466 C405 1.504 . S
C466 N436 1.309 . S
C466 O467 1.258 . S
O467 C466 1.258 . S
H468 C406 0.929 . S
H469 C407 0.932 1_565 S
H470 C408 0.931 . S
H471 C413 0.929 . S
H472 C415 0.929 . S
H473 C417 0.931 1_545 S
H474 C422 0.929 . S
H475 C424 0.932 . S
H476 C425 0.931 . S
H477 C430 0.930 . S
H478 C431 0.931 . S
H479 C432 0.930 . S
H480 C452 0.929 . S
H481 C454 0.930 . S
H482 C456 0.930 . S
H483 C461 0.932 1_545 S
H484 C463 0.930 . S
H485 C465 0.929 . S
C486 C487 1.359 . S
C486 N491 1.330 . S
C486 C547 1.504 . S
C487 C486 1.359 . S
C487 C488 1.366 . S
C487 H549 0.929 . S
C488 C487 1.366 . S
C488 C489 1.415 . S
C488 H550 0.932 . S
C489 C488 1.415 . S
C489 C490 1.366 . S
C489 H551 0.931 . S
C490 C489 1.366 . S
C490 N491 1.325 . S
C490 C492 1.516 . S
N491 C486 1.330 . S
N491 C490 1.325 . S
N491 Co507 1.869 . S
C492 C490 1.516 . S
C492 N516 1.316 . S
C492 O539 1.263 . S
C493 C494 1.421 . S
C493 C498 1.360 . S
C493 N516 1.436 . S
C494 C493 1.421 . S
C494 C495 1.379 . S
C494 H552 0.929 . S
C495 C494 1.379 . S
C495 C496 1.417 . S
C496 C495 1.417 . S
C496 C497 1.352 . S
C496 H553 0.929 . S
C497 C496 1.352 . S
C497 C498 1.393 . S
C498 C493 1.360 . S
C498 C497 1.393 . S
C498 H554 0.931 . S
Cd499 O519 2.329 . S
Cd499 O521 2.350 . S
Cd499 O522 2.277 . S
Cd499 O524 2.173 . S
Cd499 O528 2.263 . S
Cd499 O539 2.366 . S
Cd500 O518 2.352 . S
Cd500 O525 2.250 . S
Cd500 O529 2.308 . S
C501 C505 1.403 . S
C501 C506 1.370 . S
C501 N517 1.423 . S
C502 C503 1.389 . S
C502 C506 1.389 . S
C503 C502 1.389 . S
C503 C504 1.379 . S
C503 H555 0.929 . S
C504 C503 1.379 . S
C504 C505 1.405 . S
C505 C501 1.403 . S
C505 C504 1.405 . S
C505 H556 0.932 . S
C506 C501 1.370 . S
C506 C502 1.389 . S
C506 H557 0.931 . S
Co507 N491 1.869 . S
Co507 N508 1.955 . S
Co507 N509 1.864 . S
Co507 N515 1.958 . S
Co507 N516 1.953 . S
Co507 N517 1.974 . S
N508 Co507 1.955 . S
N508 C526 1.329 . S
N508 C541 1.432 . S
N509 Co507 1.864 . S
N509 C510 1.327 . S
N509 C514 1.342 . S
C510 N509 1.327 . S
C510 C511 1.407 . S
C510 C526 1.481 . S
C511 C510 1.407 . S
C511 C512 1.364 . S
C511 H558 0.930 . S
C512 C511 1.364 . S
C512 C513 1.390 . S
C512 H559 0.931 . S
C513 C512 1.390 . S
C513 C514 1.346 . S
C513 H560 0.930 . S
C514 N509 1.342 . S
C514 C513 1.346 . S
C514 C530 1.516 . S
N515 Co507 1.958 . S
N515 C530 1.324 . S
N515 C532 1.427 . S
N516 C492 1.316 . S
N516 C493 1.436 . S
N516 Co507 1.953 . S
N517 C501 1.423 . S
N517 Co507 1.974 . S
N517 C547 1.309 . S
O518 Cd500 2.352 . S
O518 C538 1.235 . S
O519 Cd499 2.329 . S
O519 C538 1.270 . S
C520 O521 1.270 . S
C520 O522 1.248 . S
O521 Cd499 2.350 . S
O521 C520 1.270 . S
O522 Cd499 2.277 . S
O522 C520 1.248 . S
C523 O524 1.277 . S
C523 O525 1.230 . S
O524 Cd499 2.173 . S
O524 C523 1.277 . S
O525 Cd500 2.250 . S
O525 C523 1.230 . S
C526 N508 1.329 . S
C526 C510 1.481 . S
C526 O527 1.246 . S
O527 C526 1.246 . S
O528 Cd499 2.263 . S
O528 C540 1.258 . S
O529 Cd500 2.308 . S
O529 C540 1.274 . S
C530 C514 1.516 . S
C530 N515 1.324 . S
C530 O531 1.238 . S
O531 C530 1.238 . S
C532 N515 1.427 . S
C532 C533 1.394 . S
C532 C537 1.395 . S
C533 C532 1.394 . S
C533 C534 1.380 . S
C533 H561 0.929 . S
C534 C533 1.380 . S
C534 C535 1.384 . S
C534 C540 1.495 . S
C535 C534 1.384 . S
C535 C536 1.382 . S
C535 H562 0.930 . S
C536 C535 1.382 . S
C536 C537 1.398 . S
C537 C532 1.395 . S
C537 C536 1.398 . S
C537 H563 0.930 . S
C538 O518 1.235 . S
C538 O519 1.270 . S
O539 C492 1.263 . S
O539 Cd499 2.366 . S
C540 O528 1.258 . S
C540 O529 1.274 . S
C540 C534 1.495 . S
C541 N508 1.432 . S
C541 C542 1.381 . S
C541 C546 1.385 . S
C542 C541 1.381 . S
C542 C543 1.371 . S
C542 H564 0.932 . S
C543 C542 1.371 . S
C543 C544 1.400 . S
C544 C543 1.400 . S
C544 C545 1.351 . S
C544 H565 0.930 . S
C545 C544 1.351 . S
C545 C546 1.388 . S
C546 C541 1.385 . S
C546 C545 1.388 . S
C546 H566 0.929 . S
C547 C486 1.504 . S
C547 N517 1.309 . S
C547 O548 1.258 . S
O548 C547 1.258 . S
H549 C487 0.929 . S
H550 C488 0.932 . S
H551 C489 0.931 . S
H552 C494 0.929 . S
H553 C496 0.929 . S
H554 C498 0.931 . S
H555 C503 0.929 . S
H556 C505 0.932 . S
H557 C506 0.931 . S
H558 C511 0.930 . S
H559 C512 0.931 . S
H560 C513 0.930 . S
H561 C533 0.929 . S
H562 C535 0.930 . S
H563 C537 0.930 . S
H564 C542 0.932 . S
H565 C544 0.930 . S
H566 C546 0.929 . S
C567 C568 1.359 . S
C567 N572 1.330 . S
C567 C628 1.504 . S
C568 C567 1.359 . S
C568 C569 1.366 . S
C568 H630 0.929 . S
C569 C568 1.366 . S
C569 C570 1.415 1_655 S
C569 H631 0.932 1_655 S
C570 C569 1.415 1_455 S
C570 C571 1.366 . S
C570 H632 0.931 . S
C571 C570 1.366 . S
C571 N572 1.325 1_455 S
C571 C573 1.516 . S
N572 C567 1.330 . S
N572 C571 1.325 1_655 S
N572 Co588 1.869 . S
C573 C571 1.516 . S
C573 N597 1.316 . S
C573 O620 1.263 . S
C574 C575 1.421 . S
C574 C579 1.360 . S
C574 N597 1.436 . S
C575 C574 1.421 . S
C575 C576 1.379 . S
C575 H633 0.929 . S
C576 C575 1.379 . S
C576 C577 1.417 . S
C577 C576 1.417 . S
C577 C578 1.352 . S
C577 H634 0.929 . S
C578 C577 1.352 . S
C578 C579 1.393 . S
C579 C574 1.360 . S
C579 C578 1.393 . S
C579 H635 0.931 1_455 S
Cd580 O600 2.329 . S
Cd580 O602 2.350 . S
Cd580 O603 2.279 . S
Cd580 O605 2.173 . S
Cd580 O609 2.263 . S
Cd580 O620 2.366 1_554 S
Cd581 O599 2.352 . S
Cd581 O606 2.250 . S
Cd581 O610 2.308 1_455 S
C582 C586 1.403 . S
C582 C587 1.370 . S
C582 N598 1.423 . S
C583 C584 1.389 . S
C583 C587 1.389 . S
C584 C583 1.389 . S
C584 C585 1.379 . S
C584 H636 0.929 . S
C585 C584 1.379 . S
C585 C586 1.405 . S
C586 C582 1.403 . S
C586 C585 1.405 . S
C586 H637 0.932 . S
C587 C582 1.370 . S
C587 C583 1.389 . S
C587 H638 0.931 . S
Co588 N572 1.869 . S
Co588 N589 1.955 1_655 S
Co588 N590 1.864 . S
Co588 N596 1.958 . S
Co588 N597 1.953 1_655 S
Co588 N598 1.974 . S
N589 Co588 1.955 1_455 S
N589 C607 1.329 . S
N589 C622 1.432 . S
N590 Co588 1.864 . S
N590 C591 1.327 . S
N590 C595 1.342 . S
C591 N590 1.327 . S
C591 C592 1.407 . S
C591 C607 1.481 1_655 S
C592 C591 1.407 . S
C592 C593 1.364 . S
C592 H639 0.930 . S
C593 C592 1.364 . S
C593 C594 1.390 . S
C593 H640 0.931 . S
C594 C593 1.390 . S
C594 C595 1.346 . S
C594 H641 0.930 . S
C595 N590 1.342 . S
C595 C594 1.346 . S
C595 C611 1.516 . S
N596 Co588 1.958 . S
N596 C611 1.324 . S
N596 C613 1.427 . S
N597 C573 1.316 . S
N597 C574 1.436 . S
N597 Co588 1.953 1_455 S
N598 C582 1.423 . S
N598 Co588 1.974 . S
N598 C628 1.309 . S
O599 Cd581 2.352 . S
O599 C619 1.235 . S
O600 Cd580 2.329 . S
O600 C619 1.270 . S
C601 O602 1.289 . S
C601 O603 1.247 . S
O602 Cd580 2.350 . S
O602 C601 1.289 . S
O603 Cd580 2.279 . S
O603 C601 1.247 . S
C604 O605 1.277 . S
C604 O606 1.230 . S
O605 Cd580 2.173 . S
O605 C604 1.277 . S
O606 Cd581 2.250 . S
O606 C604 1.230 . S
C607 N589 1.329 . S
C607 C591 1.481 1_455 S
C607 O608 1.246 . S
O608 C607 1.246 . S
O609 Cd580 2.263 . S
O609 C621 1.258 1_455 S
O610 Cd581 2.308 1_655 S
O610 C621 1.274 . S
C611 C595 1.516 . S
C611 N596 1.324 . S
C611 O612 1.238 . S
O612 C611 1.238 . S
C613 N596 1.427 . S
C613 C614 1.394 . S
C613 C618 1.395 . S
C614 C613 1.394 . S
C614 C615 1.380 1_556 S
C614 H642 0.929 . S
C615 C614 1.380 1_554 S
C615 C616 1.384 . S
C615 C621 1.495 . S
C616 C615 1.384 . S
C616 C617 1.382 1_554 S
C616 H643 0.930 . S
C617 C616 1.382 1_556 S
C617 C618 1.398 . S
C618 C613 1.395 . S
C618 C617 1.398 . S
C618 H644 0.930 . S
C619 O599 1.235 . S
C619 O600 1.270 . S
O620 C573 1.263 . S
O620 Cd580 2.366 1_556 S
C621 O609 1.258 1_655 S
C621 O610 1.274 . S
C621 C615 1.495 . S
C622 N589 1.432 . S
C622 C623 1.381 . S
C622 C627 1.385 . S
C623 C622 1.381 . S
C623 C624 1.371 . S
C623 H645 0.932 1_455 S
C624 C623 1.371 . S
C624 C625 1.400 . S
C625 C624 1.400 . S
C625 C626 1.351 . S
C625 H646 0.930 . S
C626 C625 1.351 . S
C626 C627 1.388 . S
C627 C622 1.385 . S
C627 C626 1.388 . S
C627 H647 0.929 . S
C628 C567 1.504 . S
C628 N598 1.309 . S
C628 O629 1.258 . S
O629 C628 1.258 . S
H630 C568 0.929 . S
H631 C569 0.932 1_455 S
H632 C570 0.931 . S
H633 C575 0.929 . S
H634 C577 0.929 . S
H635 C579 0.931 1_655 S
H636 C584 0.929 . S
H637 C586 0.932 . S
H638 C587 0.931 . S
H639 C592 0.930 . S
H640 C593 0.931 . S
H641 C594 0.930 . S
H642 C614 0.929 . S
H643 C616 0.930 . S
H644 C618 0.930 . S
H645 C623 0.932 1_655 S
H646 C625 0.930 . S
H647 C627 0.929 . S
C648 C649 1.359 . S
C648 N653 1.330 . S
C648 C709 1.504 . S
C649 C648 1.359 . S
C649 C650 1.366 . S
C649 H711 0.929 . S
C650 C649 1.366 . S
C650 C651 1.415 1_565 S
C650 H712 0.932 1_565 S
C651 C650 1.415 1_545 S
C651 C652 1.366 . S
C651 H713 0.931 . S
C652 C651 1.366 . S
C652 N653 1.325 1_545 S
C652 C654 1.516 . S
N653 C648 1.330 . S
N653 C652 1.325 1_565 S
N653 Co669 1.869 . S
C654 C652 1.516 . S
C654 N678 1.316 . S
C654 O701 1.263 . S
C655 C656 1.421 . S
C655 C660 1.360 . S
C655 N678 1.436 . S
C656 C655 1.421 . S
C656 C657 1.379 . S
C656 H714 0.929 . S
C657 C656 1.379 . S
C657 C658 1.417 . S
C658 C657 1.417 . S
C658 C659 1.352 . S
C658 H715 0.929 . S
C659 C658 1.352 . S
C659 C660 1.393 . S
C660 C655 1.360 . S
C660 C659 1.393 . S
C660 H716 0.931 1_545 S
Cd661 O681 2.329 . S
Cd661 O683 2.350 . S
Cd661 O684 2.277 . S
Cd661 O686 2.173 . S
Cd661 O690 2.263 . S
Cd661 O701 2.366 . S
Cd662 O680 2.352 . S
Cd662 O687 2.250 . S
Cd662 O691 2.308 1_545 S
C663 C667 1.403 . S
C663 C668 1.370 . S
C663 N679 1.423 . S
C664 C665 1.389 . S
C664 C668 1.389 . S
C665 C664 1.389 . S
C665 C666 1.379 . S
C665 H717 0.929 . S
C666 C665 1.379 . S
C666 C667 1.405 . S
C667 C663 1.403 . S
C667 C666 1.405 . S
C667 H718 0.932 . S
C668 C663 1.370 . S
C668 C664 1.389 . S
C668 H719 0.931 . S
Co669 N653 1.869 . S
Co669 N670 1.955 1_565 S
Co669 N671 1.864 . S
Co669 N677 1.958 . S
Co669 N678 1.953 1_565 S
Co669 N679 1.974 . S
N670 Co669 1.955 1_545 S
N670 C688 1.329 . S
N670 C703 1.432 . S
N671 Co669 1.864 . S
N671 C672 1.327 . S
N671 C676 1.342 . S
C672 N671 1.327 . S
C672 C673 1.407 . S
C672 C688 1.481 1_565 S
C673 C672 1.407 . S
C673 C674 1.364 . S
C673 H720 0.930 . S
C674 C673 1.364 . S
C674 C675 1.390 . S
C674 H721 0.931 . S
C675 C674 1.390 . S
C675 C676 1.346 . S
C675 H722 0.930 . S
C676 N671 1.342 . S
C676 C675 1.346 . S
C676 C692 1.516 . S
N677 Co669 1.958 . S
N677 C692 1.324 . S
N677 C694 1.427 . S
N678 C654 1.316 . S
N678 C655 1.436 . S
N678 Co669 1.953 1_545 S
N679 C663 1.423 . S
N679 Co669 1.974 . S
N679 C709 1.309 . S
O680 Cd662 2.352 . S
O680 C700 1.235 . S
O681 Cd661 2.329 . S
O681 C700 1.270 . S
C682 O683 1.270 . S
C682 O684 1.248 . S
O683 Cd661 2.350 . S
O683 C682 1.270 . S
O684 Cd661 2.277 . S
O684 C682 1.248 . S
C685 O686 1.277 . S
C685 O687 1.230 . S
O686 Cd661 2.173 . S
O686 C685 1.277 . S
O687 Cd662 2.250 . S
O687 C685 1.230 . S
C688 N670 1.329 . S
C688 C672 1.481 1_545 S
C688 O689 1.246 . S
O689 C688 1.246 . S
O690 Cd661 2.263 . S
O690 C702 1.258 1_545 S
O691 Cd662 2.308 1_565 S
O691 C702 1.274 . S
C692 C676 1.516 . S
C692 N677 1.324 . S
C692 O693 1.238 . S
O693 C692 1.238 . S
C694 N677 1.427 . S
C694 C695 1.394 . S
C694 C699 1.395 . S
C695 C694 1.394 . S
C695 C696 1.380 . S
C695 H723 0.929 . S
C696 C695 1.380 . S
C696 C697 1.384 . S
C696 C702 1.495 . S
C697 C696 1.384 . S
C697 C698 1.382 . S
C697 H724 0.930 . S
C698 C697 1.382 . S
C698 C699 1.398 . S
C699 C694 1.395 . S
C699 C698 1.398 . S
C699 H725 0.930 . S
C700 O680 1.235 . S
C700 O681 1.270 . S
O701 C654 1.263 . S
O701 Cd661 2.366 . S
C702 O690 1.258 1_565 S
C702 O691 1.274 . S
C702 C696 1.495 . S
C703 N670 1.432 . S
C703 C704 1.381 . S
C703 C708 1.385 . S
C704 C703 1.381 . S
C704 C705 1.371 . S
C704 H726 0.932 1_545 S
C705 C704 1.371 . S
C705 C706 1.400 . S
C706 C705 1.400 . S
C706 C707 1.351 . S
C706 H727 0.930 . S
C707 C706 1.351 . S
C707 C708 1.388 . S
C708 C703 1.385 . S
C708 C707 1.388 . S
C708 H728 0.929 . S
C709 C648 1.504 . S
C709 N679 1.309 . S
C709 O710 1.258 . S
O710 C709 1.258 . S
H711 C649 0.929 . S
H712 C650 0.932 1_545 S
H713 C651 0.931 . S
H714 C656 0.929 . S
H715 C658 0.929 . S
H716 C660 0.931 1_565 S
H717 C665 0.929 . S
H718 C667 0.932 . S
H719 C668 0.931 . S
H720 C673 0.930 . S
H721 C674 0.931 . S
H722 C675 0.930 . S
H723 C695 0.929 . S
H724 C697 0.930 . S
H725 C699 0.930 . S
H726 C704 0.932 1_565 S
H727 C706 0.930 . S
H728 C708 0.929 . S
C729 C730 1.359 . S
C729 N734 1.330 . S
C729 C790 1.504 . S
C730 C729 1.359 . S
C730 C731 1.366 . S
C730 H792 0.929 . S
C731 C730 1.366 . S
C731 C732 1.415 . S
C731 H793 0.932 . S
C732 C731 1.415 . S
C732 C733 1.366 . S
C732 H794 0.931 . S
C733 C732 1.366 . S
C733 N734 1.325 . S
C733 C735 1.516 . S
N734 C729 1.330 . S
N734 C733 1.325 . S
N734 Co750 1.869 . S
C735 C733 1.516 . S
C735 N759 1.316 . S
C735 O782 1.263 . S
C736 C737 1.421 . S
C736 C741 1.360 . S
C736 N759 1.436 . S
C737 C736 1.421 . S
C737 C738 1.379 . S
C737 H795 0.929 . S
C738 C737 1.379 . S
C738 C739 1.417 . S
C739 C738 1.417 . S
C739 C740 1.352 . S
C739 H796 0.929 . S
C740 C739 1.352 . S
C740 C741 1.393 . S
C741 C736 1.360 . S
C741 C740 1.393 . S
C741 H797 0.931 . S
Cd742 O762 2.329 . S
Cd742 O764 2.350 . S
Cd742 O765 2.277 . S
Cd742 O767 2.173 . S
Cd742 O771 2.263 . S
Cd742 O782 2.366 . S
Cd743 O761 2.352 . S
Cd743 O768 2.250 . S
Cd743 O772 2.308 . S
C744 C748 1.403 . S
C744 C749 1.370 . S
C744 N760 1.423 . S
C745 C746 1.389 . S
C745 C749 1.389 . S
C746 C745 1.389 . S
C746 C747 1.379 . S
C746 H798 0.929 . S
C747 C746 1.379 . S
C747 C748 1.405 . S
C748 C744 1.403 . S
C748 C747 1.405 . S
C748 H799 0.932 . S
C749 C744 1.370 . S
C749 C745 1.389 . S
C749 H800 0.931 . S
Co750 N734 1.869 . S
Co750 N751 1.955 . S
Co750 N752 1.864 . S
Co750 N758 1.958 . S
Co750 N759 1.953 . S
Co750 N760 1.974 . S
N751 Co750 1.955 . S
N751 C769 1.329 . S
N751 C784 1.432 . S
N752 Co750 1.864 . S
N752 C753 1.327 . S
N752 C757 1.342 . S
C753 N752 1.327 . S
C753 C754 1.407 . S
C753 C769 1.481 . S
C754 C753 1.407 . S
C754 C755 1.364 . S
C754 H801 0.930 . S
C755 C754 1.364 . S
C755 C756 1.390 . S
C755 H802 0.931 . S
C756 C755 1.390 . S
C756 C757 1.346 . S
C756 H803 0.930 . S
C757 N752 1.342 . S
C757 C756 1.346 . S
C757 C773 1.516 . S
N758 Co750 1.958 . S
N758 C773 1.324 . S
N758 C775 1.427 . S
N759 C735 1.316 . S
N759 C736 1.436 . S
N759 Co750 1.953 . S
N760 C744 1.423 . S
N760 Co750 1.974 . S
N760 C790 1.309 . S
O761 Cd743 2.352 . S
O761 C781 1.235 . S
O762 Cd742 2.329 . S
O762 C781 1.270 . S
C763 O764 1.270 . S
C763 O765 1.248 . S
O764 Cd742 2.350 . S
O764 C763 1.270 . S
O765 Cd742 2.277 . S
O765 C763 1.248 . S
C766 O767 1.277 . S
C766 O768 1.230 . S
O767 Cd742 2.173 . S
O767 C766 1.277 . S
O768 Cd743 2.250 . S
O768 C766 1.230 . S
C769 N751 1.329 . S
C769 C753 1.481 . S
C769 O770 1.246 . S
O770 C769 1.246 . S
O771 Cd742 2.263 . S
O771 C783 1.258 . S
O772 Cd743 2.308 . S
O772 C783 1.274 . S
C773 C757 1.516 . S
C773 N758 1.324 . S
C773 O774 1.238 . S
O774 C773 1.238 . S
C775 N758 1.427 . S
C775 C776 1.394 . S
C775 C780 1.395 . S
C776 C775 1.394 . S
C776 C777 1.380 . S
C776 H804 0.929 . S
C777 C776 1.380 . S
C777 C778 1.384 . S
C777 C783 1.495 . S
C778 C777 1.384 . S
C778 C779 1.382 . S
C778 H805 0.930 . S
C779 C778 1.382 . S
C779 C780 1.398 . S
C780 C775 1.395 . S
C780 C779 1.398 . S
C780 H806 0.930 . S
C781 O761 1.235 . S
C781 O762 1.270 . S
O782 C735 1.263 . S
O782 Cd742 2.366 . S
C783 O771 1.258 . S
C783 O772 1.274 . S
C783 C777 1.495 . S
C784 N751 1.432 . S
C784 C785 1.381 . S
C784 C789 1.385 . S
C785 C784 1.381 . S
C785 C786 1.371 . S
C785 H807 0.932 . S
C786 C785 1.371 . S
C786 C787 1.400 . S
C787 C786 1.400 . S
C787 C788 1.351 . S
C787 H808 0.930 . S
C788 C787 1.351 . S
C788 C789 1.388 . S
C789 C784 1.385 . S
C789 C788 1.388 . S
C789 H809 0.929 . S
C790 C729 1.504 . S
C790 N760 1.309 . S
C790 O791 1.258 . S
O791 C790 1.258 . S
H792 C730 0.929 . S
H793 C731 0.932 . S
H794 C732 0.931 . S
H795 C737 0.929 . S
H796 C739 0.929 . S
H797 C741 0.931 . S
H798 C746 0.929 . S
H799 C748 0.932 . S
H800 C749 0.931 . S
H801 C754 0.930 . S
H802 C755 0.931 . S
H803 C756 0.930 . S
H804 C776 0.929 . S
H805 C778 0.930 . S
H806 C780 0.930 . S
H807 C785 0.932 . S
H808 C787 0.930 . S
H809 C789 0.929 . S
C810 C811 1.359 . S
C810 N815 1.330 . S
C810 C871 1.504 . S
C811 C810 1.359 . S
C811 C812 1.366 . S
C811 H873 0.929 . S
C812 C811 1.366 . S
C812 C813 1.415 1_455 S
C812 H874 0.932 1_455 S
C813 C812 1.415 1_655 S
C813 C814 1.366 . S
C813 H875 0.931 . S
C814 C813 1.366 . S
C814 N815 1.325 1_655 S
C814 C816 1.516 . S
N815 C810 1.330 . S
N815 C814 1.325 1_455 S
N815 Co831 1.869 . S
C816 C814 1.516 . S
C816 N840 1.316 . S
C816 O863 1.263 . S
C817 C818 1.421 . S
C817 C822 1.360 . S
C817 N840 1.436 . S
C818 C817 1.421 . S
C818 C819 1.379 . S
C818 H876 0.929 . S
C819 C818 1.379 . S
C819 C820 1.417 . S
C820 C819 1.417 . S
C820 C821 1.352 . S
C820 H877 0.929 . S
C821 C820 1.352 . S
C821 C822 1.393 . S
C822 C817 1.360 . S
C822 C821 1.393 . S
C822 H878 0.931 1_655 S
Cd823 O843 2.329 . S
Cd823 O845 2.350 . S
Cd823 O846 2.277 . S
Cd823 O848 2.173 . S
Cd823 O852 2.263 . S
Cd823 O863 2.366 . S
Cd824 O842 2.352 . S
Cd824 O849 2.250 . S
Cd824 O853 2.308 1_655 S
C825 C829 1.403 . S
C825 C830 1.370 . S
C825 N841 1.423 . S
C826 C827 1.389 . S
C826 C830 1.389 . S
C827 C826 1.389 . S
C827 C828 1.379 . S
C827 H879 0.929 . S
C828 C827 1.379 . S
C828 C829 1.405 . S
C829 C825 1.403 . S
C829 C828 1.405 . S
C829 H880 0.932 . S
C830 C825 1.370 . S
C830 C826 1.389 . S
C830 H881 0.931 . S
Co831 N815 1.869 . S
Co831 N832 1.955 1_455 S
Co831 N833 1.864 . S
Co831 N839 1.958 . S
Co831 N840 1.953 1_455 S
Co831 N841 1.974 . S
N832 Co831 1.955 1_655 S
N832 C850 1.329 . S
N832 C865 1.432 . S
N833 Co831 1.864 . S
N833 C834 1.327 . S
N833 C838 1.342 . S
C834 N833 1.327 . S
C834 C835 1.407 . S
C834 C850 1.481 1_455 S
C835 C834 1.407 . S
C835 C836 1.364 . S
C835 H882 0.930 . S
C836 C835 1.364 . S
C836 C837 1.390 . S
C836 H883 0.931 . S
C837 C836 1.390 . S
C837 C838 1.346 . S
C837 H884 0.930 . S
C838 N833 1.342 . S
C838 C837 1.346 . S
C838 C854 1.516 . S
N839 Co831 1.958 . S
N839 C854 1.324 . S
N839 C856 1.427 . S
N840 C816 1.316 . S
N840 C817 1.436 . S
N840 Co831 1.953 1_655 S
N841 C825 1.423 . S
N841 Co831 1.974 . S
N841 C871 1.309 . S
O842 Cd824 2.352 . S
O842 C862 1.235 . S
O843 Cd823 2.329 . S
O843 C862 1.270 . S
C844 O845 1.270 . S
C844 O846 1.248 . S
O845 Cd823 2.350 . S
O845 C844 1.270 . S
O846 Cd823 2.277 . S
O846 C844 1.248 . S
C847 O848 1.277 . S
C847 O849 1.230 . S
O848 Cd823 2.173 . S
O848 C847 1.277 . S
O849 Cd824 2.250 . S
O849 C847 1.230 . S
C850 N832 1.329 . S
C850 C834 1.481 1_655 S
C850 O851 1.246 . S
O851 C850 1.246 . S
O852 Cd823 2.263 . S
O852 C864 1.258 1_655 S
O853 Cd824 2.308 1_455 S
O853 C864 1.274 . S
C854 C838 1.516 . S
C854 N839 1.324 . S
C854 O855 1.238 . S
O855 C854 1.238 . S
C856 N839 1.427 . S
C856 C857 1.394 . S
C856 C861 1.395 . S
C857 C856 1.394 . S
C857 C858 1.380 . S
C857 H885 0.929 . S
C858 C857 1.380 . S
C858 C859 1.384 . S
C858 C864 1.495 . S
C859 C858 1.384 . S
C859 C860 1.382 . S
C859 H886 0.930 . S
C860 C859 1.382 . S
C860 C861 1.398 . S
C861 C856 1.395 . S
C861 C860 1.398 . S
C861 H887 0.930 . S
C862 O842 1.235 . S
C862 O843 1.270 . S
O863 C816 1.263 . S
O863 Cd823 2.366 . S
C864 O852 1.258 1_455 S
C864 O853 1.274 . S
C864 C858 1.495 . S
C865 N832 1.432 . S
C865 C866 1.381 . S
C865 C870 1.385 . S
C866 C865 1.381 . S
C866 C867 1.371 . S
C866 H888 0.932 1_655 S
C867 C866 1.371 . S
C867 C868 1.400 . S
C868 C867 1.400 . S
C868 C869 1.351 . S
C868 H889 0.930 . S
C869 C868 1.351 . S
C869 C870 1.388 . S
C870 C865 1.385 . S
C870 C869 1.388 . S
C870 H890 0.929 . S
C871 C810 1.504 . S
C871 N841 1.309 . S
C871 O872 1.258 . S
O872 C871 1.258 . S
H873 C811 0.929 . S
H874 C812 0.932 1_655 S
H875 C813 0.931 . S
H876 C818 0.929 . S
H877 C820 0.929 . S
H878 C822 0.931 1_455 S
H879 C827 0.929 . S
H880 C829 0.932 . S
H881 C830 0.931 . S
H882 C835 0.930 . S
H883 C836 0.931 . S
H884 C837 0.930 . S
H885 C857 0.929 . S
H886 C859 0.930 . S
H887 C861 0.930 . S
H888 C866 0.932 1_455 S
H889 C868 0.930 . S
H890 C870 0.929 . S
C891 C892 1.359 . S
C891 N896 1.330 . S
C891 C952 1.504 . S
C892 C891 1.359 . S
C892 C893 1.366 . S
C892 H954 0.929 . S
C893 C892 1.366 . S
C893 C894 1.415 1_545 S
C893 H955 0.932 1_545 S
C894 C893 1.415 1_565 S
C894 C895 1.366 . S
C894 H956 0.931 . S
C895 C894 1.366 . S
C895 N896 1.325 1_565 S
C895 C897 1.516 . S
N896 C891 1.330 . S
N896 C895 1.325 1_545 S
N896 Co912 1.869 . S
C897 C895 1.516 . S
C897 N921 1.316 . S
C897 O944 1.263 . S
C898 C899 1.421 . S
C898 C903 1.360 . S
C898 N921 1.436 . S
C899 C898 1.421 . S
C899 C900 1.379 . S
C899 H957 0.929 . S
C900 C899 1.379 . S
C900 C901 1.417 . S
C901 C900 1.417 . S
C901 C902 1.352 . S
C901 H958 0.929 . S
C902 C901 1.352 . S
C902 C903 1.393 . S
C903 C898 1.360 . S
C903 C902 1.393 . S
C903 H959 0.931 1_565 S
Cd904 O924 2.329 . S
Cd904 O926 2.350 . S
Cd904 O927 2.277 . S
Cd904 O929 2.173 . S
Cd904 O933 2.263 . S
Cd904 O944 2.366 . S
Cd905 O923 2.352 . S
Cd905 O930 2.250 . S
Cd905 O934 2.308 1_565 S
C906 C910 1.403 . S
C906 C911 1.370 . S
C906 N922 1.423 . S
C907 C908 1.389 . S
C907 C911 1.389 . S
C908 C907 1.389 . S
C908 C909 1.379 . S
C908 H960 0.929 . S
C909 C908 1.379 . S
C909 C910 1.405 . S
C910 C906 1.403 . S
C910 C909 1.405 . S
C910 H961 0.932 . S
C911 C906 1.370 . S
C911 C907 1.389 . S
C911 H962 0.931 . S
Co912 N896 1.869 . S
Co912 N913 1.955 1_545 S
Co912 N914 1.864 . S
Co912 N920 1.958 . S
Co912 N921 1.953 1_545 S
Co912 N922 1.974 . S
N913 Co912 1.955 1_565 S
N913 C931 1.329 . S
N913 C946 1.432 . S
N914 Co912 1.864 . S
N914 C915 1.327 . S
N914 C919 1.342 . S
C915 N914 1.327 . S
C915 C916 1.407 . S
C915 C931 1.481 1_545 S
C916 C915 1.407 . S
C916 C917 1.364 . S
C916 H963 0.930 . S
C917 C916 1.364 . S
C917 C918 1.390 . S
C917 H964 0.931 . S
C918 C917 1.390 . S
C918 C919 1.346 . S
C918 H965 0.930 . S
C919 N914 1.342 . S
C919 C918 1.346 . S
C919 C935 1.516 . S
N920 Co912 1.958 . S
N920 C935 1.324 . S
N920 C937 1.427 . S
N921 C897 1.316 . S
N921 C898 1.436 . S
N921 Co912 1.953 1_565 S
N922 C906 1.423 . S
N922 Co912 1.974 . S
N922 C952 1.309 . S
O923 Cd905 2.352 . S
O923 C943 1.235 . S
O924 Cd904 2.329 . S
O924 C943 1.270 . S
C925 O926 1.270 . S
C925 O927 1.248 . S
O926 Cd904 2.350 . S
O926 C925 1.270 . S
O927 Cd904 2.277 . S
O927 C925 1.248 . S
C928 O929 1.277 . S
C928 O930 1.230 . S
O929 Cd904 2.173 . S
O929 C928 1.277 . S
O930 Cd905 2.250 . S
O930 C928 1.230 . S
C931 N913 1.329 . S
C931 C915 1.481 1_565 S
C931 O932 1.246 . S
O932 C931 1.246 . S
O933 Cd904 2.263 . S
O933 C945 1.258 1_565 S
O934 Cd905 2.308 1_545 S
O934 C945 1.274 . S
C935 C919 1.516 . S
C935 N920 1.324 . S
C935 O936 1.238 . S
O936 C935 1.238 . S
C937 N920 1.427 . S
C937 C938 1.394 . S
C937 C942 1.395 . S
C938 C937 1.394 . S
C938 C939 1.380 . S
C938 H966 0.929 . S
C939 C938 1.380 . S
C939 C940 1.384 . S
C939 C945 1.495 . S
C940 C939 1.384 . S
C940 C941 1.382 . S
C940 H967 0.930 . S
C941 C940 1.382 . S
C941 C942 1.398 . S
C942 C937 1.395 . S
C942 C941 1.398 . S
C942 H968 0.930 . S
C943 O923 1.235 . S
C943 O924 1.270 . S
O944 C897 1.263 . S
O944 Cd904 2.366 . S
C945 O933 1.258 1_545 S
C945 O934 1.274 . S
C945 C939 1.495 . S
C946 N913 1.432 . S
C946 C947 1.381 . S
C946 C951 1.385 . S
C947 C946 1.381 . S
C947 C948 1.371 . S
C947 H969 0.932 1_565 S
C948 C947 1.371 . S
C948 C949 1.400 . S
C949 C948 1.400 . S
C949 C950 1.351 . S
C949 H970 0.930 . S
C950 C949 1.351 . S
C950 C951 1.388 . S
C951 C946 1.385 . S
C951 C950 1.388 . S
C951 H971 0.929 . S
C952 C891 1.504 . S
C952 N922 1.309 . S
C952 O953 1.258 . S
O953 C952 1.258 . S
H954 C892 0.929 . S
H955 C893 0.932 1_565 S
H956 C894 0.931 . S
H957 C899 0.929 . S
H958 C901 0.929 . S
H959 C903 0.931 1_545 S
H960 C908 0.929 . S
H961 C910 0.932 . S
H962 C911 0.931 . S
H963 C916 0.930 . S
H964 C917 0.931 . S
H965 C918 0.930 . S
H966 C938 0.929 . S
H967 C940 0.930 . S
H968 C942 0.930 . S
H969 C947 0.932 1_545 S
H970 C949 0.930 . S
H971 C951 0.929 . S
C664 C16 1.039 . S
C97 C745 1.039 . S
C826 C178 0.620 . S
C259 C907 1.039 . S
C340 C502 1.039 . S
C583 C421 0.620 . S
C604 C37 5.319 1_564 S
C685 C118 5.206 . S
C766 C199 5.319 1_455 S
C280 C847 5.319 1_565 S
C361 C928 5.206 . S
C523 C442 5.319 1_655 S
C423 C52 1.843 . S
C133 C18 1.780 . S
C99 C214 1.844 . S
C180 C295 1.842 . S
C261 C376 1.780 . S
C457 C342 1.844 . S
C585 C538 1.843 . S
C666 C619 1.844 . S
C747 C700 1.780 . S
C828 C781 1.842 . S
C862 C909 1.844 . S
C504 C943 1.780 . S
C34 C617 1.959 1_554 S
C115 C698 2.013 . S
C779 C196 2.169 . S
C860 C277 1.959 . S
C358 C941 2.013 . S
C536 C439 2.169 . S
C520 C455 1.959 . S
C601 C50 2.182 . S
C131 C682 2.013 . S
C763 C212 1.959 . S
C293 C844 2.169 . S
C374 C925 2.013 . S
C707 C59 0.687 . S
C140 C788 0.687 . S
C869 C221 1.012 . S
C302 C950 0.687 . S
C383 C545 0.687 . S
C626 C464 1.013 . S
