# Generated by pormake.
# Topology unu, (4)-cn, num edge types: 1
# Building blocks:
#     Node 0, Type 0, BuildingBlock: KUFVIS_clean_sbu_0, # of connection points: 4
#     Node 1, Type 0, BuildingBlock: KUFVIS_clean_sbu_0, # of connection points: 4
#     Node 2, Type 0, BuildingBlock: KUFVIS_clean_sbu_0, # of connection points: 4
#     Node 3, Type 0, BuildingBlock: KUFVIS_clean_sbu_0, # of connection points: 4
#     Node 4, Type 0, BuildingBlock: KUFVIS_clean_sbu_0, # of connection points: 4
#     Node 5, Type 0, BuildingBlock: KUFVIS_clean_sbu_0, # of connection points: 4
#     Node 6, Type 0, BuildingBlock: KUFVIS_clean_sbu_0, # of connection points: 4
#     Node 7, Type 0, BuildingBlock: KUFVIS_clean_sbu_0, # of connection points: 4
#     Node 8, Type 0, BuildingBlock: KUFVIS_clean_sbu_0, # of connection points: 4
#     Node 9, Type 0, BuildingBlock: KUFVIS_clean_sbu_0, # of connection points: 4
#     Node 10, Type 0, BuildingBlock: KUFVIS_clean_sbu_0, # of connection points: 4
#     Node 11, Type 0, BuildingBlock: KUFVIS_clean_sbu_0, # of connection points: 4
#     Node 12, Type 0, BuildingBlock: KUFVIS_clean_sbu_0, # of connection points: 4
#     Node 13, Type 0, BuildingBlock: KUFVIS_clean_sbu_0, # of connection points: 4
#     Node 14, Type 0, BuildingBlock: KUFVIS_clean_sbu_0, # of connection points: 4
#     Node 15, Type 0, BuildingBlock: KUFVIS_clean_sbu_0, # of connection points: 4
#     Node 16, Type 0, BuildingBlock: KUFVIS_clean_sbu_0, # of connection points: 4
#     Node 17, Type 0, BuildingBlock: KUFVIS_clean_sbu_0, # of connection points: 4
#     Node 18, Type 0, BuildingBlock: KUFVIS_clean_sbu_0, # of connection points: 4
#     Node 19, Type 0, BuildingBlock: KUFVIS_clean_sbu_0, # of connection points: 4
#     Node 20, Type 0, BuildingBlock: KUFVIS_clean_sbu_0, # of connection points: 4
#     Node 21, Type 0, BuildingBlock: KUFVIS_clean_sbu_0, # of connection points: 4
#     Node 22, Type 0, BuildingBlock: KUFVIS_clean_sbu_0, # of connection points: 4
#     Node 23, Type 0, BuildingBlock: KUFVIS_clean_sbu_0, # of connection points: 4
#     Node 24, Type 0, BuildingBlock: KUFVIS_clean_sbu_0, # of connection points: 4
#     Node 25, Type 0, BuildingBlock: KUFVIS_clean_sbu_0, # of connection points: 4
#     Node 26, Type 0, BuildingBlock: KUFVIS_clean_sbu_0, # of connection points: 4
#     Node 27, Type 0, BuildingBlock: KUFVIS_clean_sbu_0, # of connection points: 4
#     Node 28, Type 0, BuildingBlock: KUFVIS_clean_sbu_0, # of connection points: 4
#     Node 29, Type 0, BuildingBlock: KUFVIS_clean_sbu_0, # of connection points: 4
#     Node 30, Type 0, BuildingBlock: KUFVIS_clean_sbu_0, # of connection points: 4
#     Node 31, Type 0, BuildingBlock: KUFVIS_clean_sbu_0, # of connection points: 4
#     Node 32, Type 0, BuildingBlock: KUFVIS_clean_sbu_0, # of connection points: 4
#     Node 33, Type 0, BuildingBlock: KUFVIS_clean_sbu_0, # of connection points: 4
#     Node 34, Type 0, BuildingBlock: KUFVIS_clean_sbu_0, # of connection points: 4
#     Node 35, Type 0, BuildingBlock: KUFVIS_clean_sbu_0, # of connection points: 4
#     Edge 36, Type (0, 0), BuildingBlock: ZUJKAS_clean_linker_0, # of connection points: 2
#     Edge 37, Type (0, 0), BuildingBlock: ZUJKAS_clean_linker_0, # of connection points: 2
#     Edge 38, Type (0, 0), BuildingBlock: ZUJKAS_clean_linker_0, # of connection points: 2
#     Edge 39, Type (0, 0), BuildingBlock: ZUJKAS_clean_linker_0, # of connection points: 2
#     Edge 40, Type (0, 0), BuildingBlock: ZUJKAS_clean_linker_0, # of connection points: 2
#     Edge 41, Type (0, 0), BuildingBlock: ZUJKAS_clean_linker_0, # of connection points: 2
#     Edge 42, Type (0, 0), BuildingBlock: ZUJKAS_clean_linker_0, # of connection points: 2
#     Edge 43, Type (0, 0), BuildingBlock: ZUJKAS_clean_linker_0, # of connection points: 2
#     Edge 44, Type (0, 0), BuildingBlock: ZUJKAS_clean_linker_0, # of connection points: 2
#     Edge 45, Type (0, 0), BuildingBlock: ZUJKAS_clean_linker_0, # of connection points: 2
#     Edge 46, Type (0, 0), BuildingBlock: ZUJKAS_clean_linker_0, # of connection points: 2
#     Edge 47, Type (0, 0), BuildingBlock: ZUJKAS_clean_linker_0, # of connection points: 2
#     Edge 48, Type (0, 0), BuildingBlock: ZUJKAS_clean_linker_0, # of connection points: 2
#     Edge 49, Type (0, 0), BuildingBlock: ZUJKAS_clean_linker_0, # of connection points: 2
#     Edge 50, Type (0, 0), BuildingBlock: ZUJKAS_clean_linker_0, # of connection points: 2
#     Edge 51, Type (0, 0), BuildingBlock: ZUJKAS_clean_linker_0, # of connection points: 2
#     Edge 52, Type (0, 0), BuildingBlock: ZUJKAS_clean_linker_0, # of connection points: 2
#     Edge 53, Type (0, 0), BuildingBlock: ZUJKAS_clean_linker_0, # of connection points: 2
#     Edge 54, Type (0, 0), BuildingBlock: ZUJKAS_clean_linker_0, # of connection points: 2
#     Edge 55, Type (0, 0), BuildingBlock: ZUJKAS_clean_linker_0, # of connection points: 2
#     Edge 56, Type (0, 0), BuildingBlock: ZUJKAS_clean_linker_0, # of connection points: 2
#     Edge 57, Type (0, 0), BuildingBlock: ZUJKAS_clean_linker_0, # of connection points: 2
#     Edge 58, Type (0, 0), BuildingBlock: ZUJKAS_clean_linker_0, # of connection points: 2
#     Edge 59, Type (0, 0), BuildingBlock: ZUJKAS_clean_linker_0, # of connection points: 2
#     Edge 60, Type (0, 0), BuildingBlock: ZUJKAS_clean_linker_0, # of connection points: 2
#     Edge 61, Type (0, 0), BuildingBlock: ZUJKAS_clean_linker_0, # of connection points: 2
#     Edge 62, Type (0, 0), BuildingBlock: ZUJKAS_clean_linker_0, # of connection points: 2
#     Edge 63, Type (0, 0), BuildingBlock: ZUJKAS_clean_linker_0, # of connection points: 2
#     Edge 64, Type (0, 0), BuildingBlock: ZUJKAS_clean_linker_0, # of connection points: 2
#     Edge 65, Type (0, 0), BuildingBlock: ZUJKAS_clean_linker_0, # of connection points: 2
#     Edge 66, Type (0, 0), BuildingBlock: ZUJKAS_clean_linker_0, # of connection points: 2
#     Edge 67, Type (0, 0), BuildingBlock: ZUJKAS_clean_linker_0, # of connection points: 2
#     Edge 68, Type (0, 0), BuildingBlock: ZUJKAS_clean_linker_0, # of connection points: 2
#     Edge 69, Type (0, 0), BuildingBlock: ZUJKAS_clean_linker_0, # of connection points: 2
#     Edge 70, Type (0, 0), BuildingBlock: ZUJKAS_clean_linker_0, # of connection points: 2
#     Edge 71, Type (0, 0), BuildingBlock: ZUJKAS_clean_linker_0, # of connection points: 2
#     Edge 72, Type (0, 0), BuildingBlock: ZUJKAS_clean_linker_0, # of connection points: 2
#     Edge 73, Type (0, 0), BuildingBlock: ZUJKAS_clean_linker_0, # of connection points: 2
#     Edge 74, Type (0, 0), BuildingBlock: ZUJKAS_clean_linker_0, # of connection points: 2
#     Edge 75, Type (0, 0), BuildingBlock: ZUJKAS_clean_linker_0, # of connection points: 2
#     Edge 76, Type (0, 0), BuildingBlock: ZUJKAS_clean_linker_0, # of connection points: 2
#     Edge 77, Type (0, 0), BuildingBlock: ZUJKAS_clean_linker_0, # of connection points: 2
#     Edge 78, Type (0, 0), BuildingBlock: ZUJKAS_clean_linker_0, # of connection points: 2
#     Edge 79, Type (0, 0), BuildingBlock: ZUJKAS_clean_linker_0, # of connection points: 2
#     Edge 80, Type (0, 0), BuildingBlock: ZUJKAS_clean_linker_0, # of connection points: 2
#     Edge 81, Type (0, 0), BuildingBlock: ZUJKAS_clean_linker_0, # of connection points: 2
#     Edge 82, Type (0, 0), BuildingBlock: ZUJKAS_clean_linker_0, # of connection points: 2
#     Edge 83, Type (0, 0), BuildingBlock: ZUJKAS_clean_linker_0, # of connection points: 2
#     Edge 84, Type (0, 0), BuildingBlock: ZUJKAS_clean_linker_0, # of connection points: 2
#     Edge 85, Type (0, 0), BuildingBlock: ZUJKAS_clean_linker_0, # of connection points: 2
#     Edge 86, Type (0, 0), BuildingBlock: ZUJKAS_clean_linker_0, # of connection points: 2
#     Edge 87, Type (0, 0), BuildingBlock: ZUJKAS_clean_linker_0, # of connection points: 2
#     Edge 88, Type (0, 0), BuildingBlock: ZUJKAS_clean_linker_0, # of connection points: 2
#     Edge 89, Type (0, 0), BuildingBlock: ZUJKAS_clean_linker_0, # of connection points: 2
#     Edge 90, Type (0, 0), BuildingBlock: ZUJKAS_clean_linker_0, # of connection points: 2
#     Edge 91, Type (0, 0), BuildingBlock: ZUJKAS_clean_linker_0, # of connection points: 2
#     Edge 92, Type (0, 0), BuildingBlock: ZUJKAS_clean_linker_0, # of connection points: 2
#     Edge 93, Type (0, 0), BuildingBlock: ZUJKAS_clean_linker_0, # of connection points: 2
#     Edge 94, Type (0, 0), BuildingBlock: ZUJKAS_clean_linker_0, # of connection points: 2
#     Edge 95, Type (0, 0), BuildingBlock: ZUJKAS_clean_linker_0, # of connection points: 2
#     Edge 96, Type (0, 0), BuildingBlock: ZUJKAS_clean_linker_0, # of connection points: 2
#     Edge 97, Type (0, 0), BuildingBlock: ZUJKAS_clean_linker_0, # of connection points: 2
#     Edge 98, Type (0, 0), BuildingBlock: ZUJKAS_clean_linker_0, # of connection points: 2
#     Edge 99, Type (0, 0), BuildingBlock: ZUJKAS_clean_linker_0, # of connection points: 2
#     Edge 100, Type (0, 0), BuildingBlock: ZUJKAS_clean_linker_0, # of connection points: 2
#     Edge 101, Type (0, 0), BuildingBlock: ZUJKAS_clean_linker_0, # of connection points: 2
#     Edge 102, Type (0, 0), BuildingBlock: ZUJKAS_clean_linker_0, # of connection points: 2
#     Edge 103, Type (0, 0), BuildingBlock: ZUJKAS_clean_linker_0, # of connection points: 2
#     Edge 104, Type (0, 0), BuildingBlock: ZUJKAS_clean_linker_0, # of connection points: 2
#     Edge 105, Type (0, 0), BuildingBlock: ZUJKAS_clean_linker_0, # of connection points: 2
#     Edge 106, Type (0, 0), BuildingBlock: ZUJKAS_clean_linker_0, # of connection points: 2
#     Edge 107, Type (0, 0), BuildingBlock: ZUJKAS_clean_linker_0, # of connection points: 2
# Relax obj value: 0.205
# Max RMSD: 0.240
# Mean RMSD: 0.240
data_MOF--net-unu--node1-KUFVIS_clean_sbu_0--edge1-ZUJKAS_clean_linker_0
_symmetry_space_group_name_H-M    P1
_symmetry_Int_Tables_number       1
_symmetry_cell_setting            triclinic
loop_
_symmetry_equiv_pos_as_xyz
'x, y, z'
_cell_length_a     54.708803
_cell_length_b     54.707758
_cell_length_c     142.70625
_cell_angle_alpha  90.012808
_cell_angle_beta   89.997764
_cell_angle_gamma 119.99728
loop_
_atom_site_label
_atom_site_type_symbol
_atom_site_fract_x
_atom_site_fract_y
_atom_site_fract_z
_atom_type_partial_charge
Mn0 Mn 0.2008 0.04392 0.11329 0.0
Mn1 Mn 0.20426 0.99505 0.12672 0.0
C2 C 0.1688 0.99689 0.111 0.0
C3 C 0.1857 0.07648 0.11161 0.0
C4 C 0.24411 0.02519 0.11053 0.0
O5 O 0.2264 0.06663 0.12395 0.0
O6 O 0.224 0.03222 0.13323 0.0
C7 C 0.16867 0.99369 0.14255 0.0
N8 N 0.174 0.98004 0.13556 0.0
C9 C 0.13325 0.93573 0.1397 0.0
C10 C 0.12744 0.94928 0.14698 0.0
C11 C 0.1452 0.97839 0.1484 0.0
C12 C 0.15702 0.95205 0.13412 0.0
H13 H 0.18222 0.01609 0.14364 0.0
C14 C 0.23228 0.0582 0.13149 0.0
O15 O 0.20734 0.07916 0.10695 0.0
O16 O 0.17287 0.05482 0.11711 0.0
N17 N 0.18583 0.95807 0.12131 0.0
C18 C 0.19353 0.94852 0.11368 0.0
C19 C 0.17745 0.91997 0.11113 0.0
C20 C 0.15379 0.90151 0.11648 0.0
C21 C 0.14648 0.91175 0.12437 0.0
C22 C 0.16338 0.94038 0.12661 0.0
H23 H 0.21169 0.9626 0.10953 0.0
O24 O 0.17298 0.01517 0.1045 0.0
O25 O 0.18289 0.0069 0.11875 0.0
O26 O 0.2324 0.03902 0.10774 0.0
O27 O 0.23573 0.00887 0.11766 0.0
C28 C 0.12282 0.89479 0.13002 0.0
C29 C 0.11614 0.90679 0.13765 0.0
H30 H 0.10927 0.93758 0.15148 0.0
H31 H 0.14076 0.98902 0.15398 0.0
H32 H 0.18323 0.91222 0.10503 0.0
H33 H 0.1413 0.87955 0.11445 0.0
H34 H 0.10943 0.87256 0.12849 0.0
H35 H 0.09765 0.89362 0.14185 0.0
Mn36 Mn 0.9591 0.16253 0.11794 0.0
Mn37 Mn 0.0057 0.21488 0.13188 0.0
C38 C 0.00656 0.17881 0.11617 0.0
C39 C 0.92759 0.11467 0.11599 0.0
C40 C 0.97663 0.22425 0.11531 0.0
O41 O 0.93487 0.16454 0.12825 0.0
O42 O 0.96787 0.19648 0.13792 0.0
C43 C 0.00628 0.18062 0.14783 0.0
N44 N 0.02035 0.20001 0.14099 0.0
C45 C 0.06487 0.20566 0.146 0.0
C46 C 0.05089 0.18588 0.15314 0.0
C47 C 0.02145 0.17323 0.15403 0.0
C48 C 0.04863 0.21216 0.14003 0.0
H49 H 0.98365 0.17088 0.14853 0.0
C50 C 0.94221 0.17861 0.13585 0.0
O51 O 0.92487 0.13341 0.11123 0.0
O52 O 0.94864 0.12381 0.12177 0.0
N53 N 0.04324 0.23449 0.12696 0.0
C54 C 0.05324 0.25186 0.11937 0.0
C55 C 0.08219 0.26544 0.11728 0.0
C56 C 0.10057 0.26131 0.12308 0.0
C57 C 0.08981 0.24358 0.13091 0.0
C58 C 0.06078 0.23055 0.13263 0.0
H59 H 0.03922 0.25521 0.11492 0.0
O60 O 0.98896 0.16445 0.10953 0.0
O61 O 0.99562 0.18221 0.12381 0.0
O62 O 0.96381 0.19891 0.11229 0.0
O63 O 0.9921 0.23221 0.12265 0.0
C64 C 0.1067 0.23807 0.13703 0.0
C65 C 0.09422 0.21897 0.14452 0.0
H66 H 0.06251 0.1801 0.15794 0.0
H67 H 0.01049 0.15785 0.1595 0.0
H68 H 0.09033 0.27909 0.11122 0.0
H69 H 0.12287 0.27176 0.12143 0.0
H70 H 0.1293 0.2482 0.13598 0.0
H71 H 0.10738 0.21452 0.14907 0.0
Mn72 Mn 0.84291 0.79418 0.11476 0.0
Mn73 Mn 0.79389 0.79413 0.12903 0.0
C74 C 0.83107 0.82885 0.11318 0.0
C75 C 0.8897 0.80632 0.11265 0.0
C76 C 0.78021 0.75371 0.11269 0.0
O77 O 0.83865 0.76712 0.12515 0.0
O78 O 0.81062 0.77337 0.13526 0.0
C79 C 0.83047 0.82948 0.14451 0.0
N80 N 0.8111 0.82472 0.13772 0.0
C81 C 0.81009 0.86681 0.14191 0.0
C82 C 0.8299 0.87207 0.14899 0.0
C83 C 0.84017 0.85335 0.15028 0.0
C84 C 0.8011 0.84261 0.13641 0.0
H85 H 0.83849 0.81518 0.14549 0.0
C86 C 0.82615 0.76285 0.13302 0.0
O87 O 0.86967 0.78575 0.10791 0.0
O88 O 0.88246 0.81974 0.11848 0.0
N89 N 0.77629 0.81375 0.12382 0.0
C90 C 0.75858 0.80656 0.11633 0.0
C91 C 0.74713 0.82363 0.11389 0.0
C92 C 0.75384 0.8478 0.11921 0.0
C93 C 0.77193 0.85464 0.12694 0.0
C94 C 0.78258 0.83674 0.12907 0.0
H95 H 0.75334 0.78802 0.11221 0.0
O96 O 0.84381 0.82386 0.1064 0.0
O97 O 0.82649 0.81394 0.12074 0.0
O98 O 0.80504 0.76478 0.10929 0.0
O99 O 0.77414 0.76229 0.1202 0.0
C100 C 0.78016 0.87875 0.13253 0.0
C101 C 0.79932 0.8849 0.13998 0.0
H102 H 0.83755 0.89054 0.15343 0.0
H103 H 0.85557 0.85734 0.1557 0.0
H104 H 0.73321 0.81823 0.1079 0.0
H105 H 0.74515 0.86104 0.11726 0.0
H106 H 0.77218 0.89292 0.13107 0.0
H107 H 0.80586 0.90377 0.14413 0.0
Mn108 Mn 0.03984 0.20223 0.38176 0.0
Mn109 Mn 0.99222 0.20787 0.36835 0.0
C110 C 0.99254 0.17035 0.38364 0.0
C111 C 0.07177 0.18621 0.38326 0.0
C112 C 0.02202 0.24594 0.38496 0.0
O113 O 0.06338 0.22902 0.37144 0.0
O114 O 0.02964 0.22765 0.36205 0.0
C115 C 0.99074 0.17375 0.35205 0.0
N116 N 0.97708 0.17868 0.35913 0.0
C117 C 0.93229 0.13999 0.35424 0.0
C118 C 0.94584 0.13458 0.34685 0.0
C119 C 0.97521 0.15147 0.34578 0.0
C120 C 0.94887 0.16247 0.36026 0.0
H121 H 0.01331 0.18673 0.3512 0.0
C122 C 0.05548 0.2357 0.36394 0.0
O123 O 0.07451 0.20743 0.38819 0.0
O124 O 0.05051 0.17442 0.37755 0.0
N125 N 0.95505 0.18951 0.37358 0.0
C126 C 0.94557 0.1963 0.38144 0.0
C127 C 0.9168 0.18065 0.38376 0.0
C128 C 0.89806 0.15846 0.37792 0.0
C129 C 0.9083 0.15203 0.36983 0.0
C130 C 0.93718 0.16827 0.3679 0.0
H131 H 0.95986 0.21342 0.38592 0.0
O132 O 0.01046 0.17365 0.39017 0.0
O133 O 0.00308 0.18522 0.37606 0.0
O134 O 0.03504 0.23342 0.38778 0.0
O135 O 0.00624 0.23854 0.3777 0.0
C136 C 0.89104 0.12994 0.36367 0.0
C137 C 0.90305 0.12378 0.35592 0.0
H138 H 0.93393 0.11739 0.34201 0.0
H139 H 0.98583 0.14736 0.34012 0.0
H140 H 0.90907 0.18572 0.39002 0.0
H141 H 0.8759 0.1464 0.37974 0.0
H142 H 0.86854 0.11732 0.36489 0.0
H143 H 0.88963 0.10638 0.35133 0.0
Mn144 Mn 0.79551 0.83807 0.38076 0.0
Mn145 Mn 0.7887 0.78684 0.36604 0.0
C146 C 0.82654 0.82131 0.3818 0.0
C147 C 0.81248 0.88575 0.38347 0.0
C148 C 0.75104 0.77619 0.38294 0.0
O149 O 0.76926 0.83764 0.37069 0.0
O150 O 0.76934 0.8061 0.36057 0.0
C151 C 0.82286 0.82221 0.35016 0.0
N152 N 0.81774 0.80224 0.35677 0.0
C153 C 0.85588 0.79639 0.35107 0.0
C154 C 0.86148 0.81677 0.34417 0.0
C155 C 0.84496 0.82981 0.34374 0.0
C156 C 0.83361 0.7897 0.35729 0.0
H157 H 0.81017 0.83223 0.3498 0.0
C158 C 0.76214 0.82421 0.36296 0.0
O159 O 0.79088 0.86655 0.38807 0.0
O160 O 0.82409 0.87714 0.37737 0.0
N161 N 0.80664 0.76663 0.37041 0.0
C162 C 0.7997 0.74883 0.37787 0.0
C163 C 0.81496 0.7349 0.37954 0.0
C164 C 0.83693 0.73911 0.37345 0.0
C165 C 0.84351 0.75735 0.36577 0.0
C166 C 0.82765 0.77074 0.36449 0.0
H167 H 0.78274 0.7454 0.38254 0.0
O168 O 0.82349 0.8348 0.38877 0.0
O169 O 0.81189 0.8188 0.37431 0.0
O170 O 0.76373 0.80131 0.38613 0.0
O171 O 0.75821 0.7688 0.3754 0.0
C172 C 0.86537 0.76299 0.3594 0.0
C173 C 0.87171 0.78266 0.3521 0.0
H174 H 0.87853 0.82271 0.33921 0.0
H175 H 0.84923 0.84564 0.33846 0.0
H176 H 0.80977 0.72088 0.38548 0.0
H177 H 0.84869 0.72837 0.37477 0.0
H178 H 0.87768 0.75257 0.36011 0.0
H179 H 0.88893 0.78722 0.34736 0.0
Mn180 Mn 0.1581 0.95441 0.38069 0.0
Mn181 Mn 0.2123 0.00202 0.36755 0.0
C182 C 0.1724 0.00161 0.38204 0.0
C183 C 0.11035 0.92171 0.38208 0.0
C184 C 0.21996 0.97509 0.38504 0.0
O185 O 0.1627 0.93039 0.37088 0.0
O186 O 0.19689 0.96381 0.36191 0.0
C187 C 0.18036 -0.00093 0.35044 0.0
N188 N 0.19802 0.01447 0.35754 0.0
C189 C 0.20231 0.05744 0.35146 0.0
C190 C 0.1843 0.04209 0.34405 0.0
C191 C 0.1732 0.01276 0.34356 0.0
C192 C 0.20864 0.04265 0.35812 0.0
H193 H 0.17182 0.97653 0.35004 0.0
C194 C 0.17885 0.93802 0.36376 0.0
O195 O 0.12894 0.92003 0.38728 0.0
O196 O 0.11958 0.94235 0.37612 0.0
N197 N 0.22922 0.03996 0.37207 0.0
C198 C 0.24506 0.05141 0.37992 0.0
C199 C 0.25701 0.08045 0.38162 0.0
C200 C 0.2529 0.09747 0.37517 0.0
C201 C 0.2368 0.08525 0.36708 0.0
C202 C 0.22532 0.05619 0.36578 0.0
H203 H 0.24843 0.03845 0.38487 0.0
O204 O 0.15751 0.984 0.38861 0.0
O205 O 0.17766 0.99086 0.3747 0.0
O206 O 0.19392 0.96062 0.38722 0.0
O207 O 0.22899 0.99084 0.37778 0.0
C208 C 0.23148 0.10073 0.3603 0.0
C209 C 0.21406 0.08681 0.35254 0.0
H210 H 0.17873 0.05257 0.33873 0.0
H211 H 0.15919 0.00074 0.33789 0.0
H212 H 0.26941 0.08972 0.38788 0.0
H213 H 0.26212 0.11985 0.37652 0.0
H214 H 0.24046 0.12332 0.36103 0.0
H215 H 0.20973 0.09887 0.34746 0.0
Mn216 Mn 0.79691 0.95497 0.88367 0.0
Mn217 Mn 0.79344 0.00399 0.87033 0.0
C218 C 0.82981 0.0019 0.88565 0.0
C219 C 0.81139 0.92185 0.88521 0.0
C220 C 0.75483 0.9751 0.8869 0.0
O221 O 0.7702 0.93217 0.87325 0.0
O222 O 0.77236 0.96657 0.86402 0.0
C223 C 0.82703 0.00373 0.85411 0.0
N224 N 0.82281 0.01801 0.86116 0.0
C225 C 0.86373 0.06163 0.85659 0.0
C226 C 0.86841 0.04744 0.84924 0.0
C227 C 0.85001 0.01835 0.84801 0.0
C228 C 0.84042 0.04597 0.86242 0.0
H229 H 0.813 0.98135 0.85317 0.0
C230 C 0.7638 0.94055 0.86581 0.0
O231 O 0.79032 0.91976 0.89006 0.0
O232 O 0.82398 0.94321 0.87957 0.0
N233 N 0.81308 0.0412 0.87553 0.0
C234 C 0.80644 0.05142 0.88324 0.0
C235 C 0.82326 0.08004 0.88562 0.0
C236 C 0.84656 0.09788 0.88001 0.0
C237 C 0.85276 0.08695 0.87205 0.0
C238 C 0.83516 0.05829 0.87 0.0
H239 H 0.78857 0.03782 0.88758 0.0
O240 O 0.82582 0.98378 0.89219 0.0
O241 O 0.81497 0.99179 0.87805 0.0
O242 O 0.76621 0.96081 0.88954 0.0
O243 O 0.76295 0.99122 0.87971 0.0
C244 C 0.87597 0.10326 0.86615 0.0
C245 C 0.88153 0.09059 0.85845 0.0
H246 H 0.88619 0.05861 0.84455 0.0
H247 H 0.85357 0.00722 0.84239 0.0
H248 H 0.81833 0.08831 0.89177 0.0
H249 H 0.85962 0.11988 0.88191 0.0
H250 H 0.88988 0.12551 0.86754 0.0
H251 H 0.89969 0.10326 0.85406 0.0
Mn252 Mn 0.0387 0.83563 0.8803 0.0
Mn253 Mn 0.9927 0.78336 0.86622 0.0
C254 C 0.99111 0.81905 0.88193 0.0
C255 C 0.06994 0.88348 0.88235 0.0
C256 C 0.02176 0.77406 0.88283 0.0
O257 O 0.06329 0.83412 0.87001 0.0
O258 O 0.03061 0.80234 0.86022 0.0
C259 C 0.99174 0.8175 0.8503 0.0
N260 N 0.9778 0.79801 0.85713 0.0
C261 C 0.93308 0.79176 0.85208 0.0
C262 C 0.94692 0.81164 0.84495 0.0
C263 C 0.9764 0.82464 0.84409 0.0
C264 C 0.94949 0.78551 0.85806 0.0
H265 H 0.01439 0.8275 0.84961 0.0
C266 C 0.05617 0.8204 0.86234 0.0
O267 O 0.07268 0.86475 0.88711 0.0
O268 O 0.04896 0.87434 0.87653 0.0
N269 N 0.95514 0.76336 0.87113 0.0
C270 C 0.94529 0.74605 0.87874 0.0
C271 C 0.91633 0.73222 0.88082 0.0
C272 C 0.89779 0.73604 0.875 0.0
C273 C 0.90841 0.75375 0.86716 0.0
C274 C 0.93747 0.76706 0.86545 0.0
H275 H 0.95943 0.74294 0.88321 0.0
O276 O 0.00847 0.83327 0.88864 0.0
O277 O 0.00235 0.81587 0.87432 0.0
O278 O 0.03424 0.79933 0.8859 0.0
O279 O 0.00651 0.76615 0.87544 0.0
C280 C 0.89136 0.75898 0.86103 0.0
C281 C 0.9037 0.77814 0.85354 0.0
H282 H 0.93516 0.81724 0.84015 0.0
H283 H 0.98725 0.8401 0.83863 0.0
H284 H 0.9083 0.7186 0.88689 0.0
H285 H 0.87548 0.72539 0.87664 0.0
H286 H 0.86875 0.74864 0.86207 0.0
H287 H 0.89042 0.78238 0.84898 0.0
Mn288 Mn 0.1575 0.20423 0.88119 0.0
Mn289 Mn 0.20736 0.20354 0.86755 0.0
C290 C 0.16896 0.16947 0.88325 0.0
C291 C 0.11065 0.19237 0.88291 0.0
C292 C 0.22017 0.24434 0.8837 0.0
O293 O 0.16268 0.23106 0.87063 0.0
O294 O 0.19153 0.22461 0.86096 0.0
C295 C 0.17164 0.16822 0.85191 0.0
N296 N 0.19047 0.17285 0.85888 0.0
C297 C 0.1911 0.13034 0.85503 0.0
C298 C 0.17185 0.1252 0.84777 0.0
C299 C 0.16204 0.1442 0.84621 0.0
C300 C 0.20001 0.1547 0.86045 0.0
H301 H 0.16397 0.18271 0.85073 0.0
C302 C 0.17594 0.23528 0.86291 0.0
O303 O 0.13048 0.21306 0.88766 0.0
O304 O 0.11812 0.17873 0.87726 0.0
N305 N 0.22421 0.18364 0.87309 0.0
C306 C 0.24143 0.19081 0.88072 0.0
C307 C 0.2524 0.17351 0.88341 0.0
C308 C 0.24571 0.14915 0.8782 0.0
C309 C 0.22815 0.14236 0.87033 0.0
C310 C 0.21799 0.16049 0.86795 0.0
H311 H 0.24664 0.2095 0.88475 0.0
O312 O 0.15583 0.17476 0.88982 0.0
O313 O 0.17411 0.18413 0.8756 0.0
O314 O 0.19507 0.23361 0.88685 0.0
O315 O 0.22673 0.23545 0.87637 0.0
C316 C 0.21998 0.11806 0.86484 0.0
C317 C 0.20138 0.112 0.85722 0.0
H318 H 0.16428 0.10662 0.84339 0.0
H319 H 0.14707 0.1403 0.84065 0.0
H320 H 0.26592 0.17889 0.8895 0.0
H321 H 0.25402 0.13573 0.88035 0.0
H322 H 0.22759 0.1037 0.8665 0.0
H323 H 0.19488 0.093 0.85316 0.0
Mn324 Mn 0.95157 0.79361 0.61435 0.0
Mn325 Mn 0.00026 0.78842 0.62734 0.0
C326 C -0.00142 0.8265 0.61258 0.0
C327 C 0.91869 0.8085 0.61315 0.0
C328 C 0.97138 0.75161 0.6104 0.0
O329 O 0.92855 0.76588 0.62451 0.0
O330 O 0.96277 0.76695 0.63358 0.0
C331 C 0.00017 0.82052 0.64403 0.0
N332 N 0.0144 0.81688 0.63683 0.0
C333 C 0.05813 0.85718 0.64169 0.0
C334 C 0.04399 0.86125 0.64919 0.0
C335 C 0.01488 0.84287 0.65035 0.0
C336 C 0.04239 0.83447 0.63564 0.0
H337 H 0.97777 0.8065 0.64492 0.0
C338 C 0.9368 0.75868 0.63182 0.0
O339 O 0.91656 0.78786 0.60804 0.0
O340 O 0.93988 0.8204 0.61888 0.0
N341 N 0.03752 0.80836 0.62218 0.0
C342 C 0.04771 0.80236 0.61433 0.0
C343 C 0.07636 0.81925 0.61201 0.0
C344 C 0.09426 0.84196 0.61782 0.0
C345 C 0.08337 0.8475 0.62592 0.0
C346 C 0.05468 0.82985 0.62791 0.0
H347 H 0.03405 0.78494 0.60983 0.0
O348 O 0.98058 0.82329 0.60609 0.0
O349 O 0.98832 0.81091 0.62002 0.0
O350 O 0.95728 0.76343 0.60801 0.0
O351 O 0.98739 0.75886 0.61761 0.0
C352 C 0.09975 0.87011 0.63204 0.0
C353 C 0.08712 0.87502 0.63989 0.0
H354 H 0.05523 0.87855 0.65405 0.0
H355 H 0.00379 0.84597 0.65609 0.0
H356 H 0.0846 0.81483 0.60574 0.0
H357 H 0.1163 0.85508 0.61596 0.0
H358 H 0.12202 0.88405 0.6307 0.0
H359 H 0.09986 0.89273 0.64445 0.0
Mn360 Mn 0.20398 0.15401 0.6173 0.0
Mn361 Mn 0.20525 0.20598 0.63035 0.0
C362 C 0.16817 0.16423 0.61587 0.0
C363 C 0.19255 0.10715 0.61608 0.0
C364 C 0.24172 0.21651 0.61311 0.0
O365 O 0.23328 0.16142 0.6272 0.0
O366 O 0.22961 0.19296 0.63636 0.0
C367 C 0.17591 0.1728 0.64723 0.0
N368 N 0.17751 0.18989 0.64003 0.0
C369 C 0.13513 0.189 0.64512 0.0
C370 C 0.13314 0.17154 0.65262 0.0
C371 C 0.15359 0.16337 0.65367 0.0
C372 C 0.15792 0.19784 0.63895 0.0
H373 H 0.19151 0.16636 0.64802 0.0
C374 C 0.23986 0.17696 0.63447 0.0
O375 O 0.21204 0.12647 0.61083 0.0
O376 O 0.17996 0.11516 0.622 0.0
N377 N 0.18243 0.22038 0.62538 0.0
C378 C 0.18671 0.23622 0.61754 0.0
C379 C 0.16771 0.24558 0.61535 0.0
C380 C 0.14466 0.23873 0.62127 0.0
C381 C 0.14089 0.2227 0.62936 0.0
C382 C 0.16063 0.21414 0.63123 0.0
H383 H 0.20437 0.24153 0.61295 0.0
O384 O 0.17243 0.15033 0.60932 0.0
O385 O 0.18454 0.171 0.62316 0.0
O386 O 0.23159 0.19073 0.61076 0.0
O387 O 0.23388 0.22435 0.62041 0.0
C388 C 0.1181 0.21451 0.63558 0.0
C389 C 0.11516 0.19759 0.64344 0.0
H390 H 0.11588 0.16411 0.65758 0.0
H391 H 0.15211 0.14978 0.65941 0.0
H392 H 0.17077 0.25795 0.60909 0.0
H393 H 0.1299 0.24576 0.61951 0.0
H394 H 0.10252 0.22084 0.63433 0.0
H395 H 0.09732 0.19109 0.64809 0.0
Mn396 Mn 0.83156 0.03695 0.61813 0.0
Mn397 Mn 0.77438 0.98868 0.63003 0.0
C398 C 0.81515 0.98964 0.61585 0.0
C399 C 0.8799 0.06782 0.61746 0.0
C400 C 0.77079 0.01982 0.61304 0.0
O401 O 0.82771 0.0599 0.62849 0.0
O402 O 0.79 0.02615 0.63626 0.0
C403 C 0.80324 0.98784 0.64747 0.0
N404 N 0.78645 0.97394 0.64002 0.0
C405 C 0.78045 0.92958 0.64539 0.0
C406 C 0.79751 0.94338 0.65316 0.0
C407 C 0.80903 0.97265 0.65418 0.0
C408 C 0.77541 0.94582 0.63893 0.0
H409 H 0.81216 0.01034 0.64828 0.0
C410 C 0.80987 0.0517 0.63515 0.0
O411 O 0.86259 0.0717 0.61229 0.0
O412 O 0.86909 0.04604 0.62297 0.0
N413 N 0.75712 0.95142 0.62489 0.0
C414 C 0.74237 0.9416 0.61674 0.0
C415 C 0.73022 0.91286 0.6145 0.0
C416 C 0.73306 0.89448 0.62069 0.0
C417 C 0.74805 0.90502 0.62909 0.0
C418 C 0.75973 0.93386 0.63094 0.0
H419 H 0.74005 0.95564 0.61197 0.0
O420 O 0.83114 0.00801 0.60963 0.0
O421 O 0.80976 -0.00036 0.62337 0.0
O422 O 0.79724 0.03417 0.61143 0.0
O423 O 0.76005 0.0023 0.6198 0.0
C424 C 0.75212 0.88812 0.63564 0.0
C425 C 0.76848 0.90042 0.64374 0.0
H426 H 0.80206 0.93175 0.65834 0.0
H427 H 0.82233 0.98348 0.66014 0.0
H428 H 0.71869 0.90488 0.60801 0.0
H429 H 0.72375 0.87234 0.61892 0.0
H430 H 0.74301 0.86567 0.63446 0.0
H431 H 0.77185 0.88727 0.64864 0.0
Mn432 Mn 0.86705 0.37513 0.44961 0.0
Mn433 Mn 0.87009 0.32464 0.46225 0.0
C434 C 0.83425 0.32848 0.44708 0.0
C435 C 0.85267 0.40841 0.44847 0.0
C436 C 0.90901 0.35505 0.4459 0.0
O437 O 0.89347 0.39681 0.46022 0.0
O438 O 0.8914 0.36147 0.46891 0.0
C439 C 0.83653 0.3238 0.47864 0.0
N440 N 0.84067 0.31003 0.47141 0.0
C441 C 0.79957 0.26618 0.47568 0.0
C442 C 0.79497 0.27984 0.48322 0.0
C443 C 0.81349 0.30879 0.48469 0.0
C444 C 0.82293 0.28221 0.46991 0.0
H445 H 0.85067 0.34607 0.47977 0.0
C446 C 0.89998 0.38766 0.46746 0.0
O447 O 0.87393 0.41095 0.44362 0.0
O448 O 0.83988 0.38659 0.4539 0.0
N449 N 0.85029 0.28788 0.45672 0.0
C450 C 0.85693 0.27819 0.44888 0.0
C451 C 0.84001 0.24978 0.44627 0.0
C452 C 0.81663 0.23159 0.45178 0.0
C453 C 0.81045 0.24196 0.45989 0.0
C454 C 0.82814 0.27042 0.46217 0.0
H455 H 0.87488 0.29207 0.44461 0.0
O456 O 0.83848 0.34733 0.44079 0.0
O457 O 0.84875 0.33769 0.45479 0.0
O458 O 0.8979 0.36985 0.44358 0.0
O459 O 0.9006 0.33802 0.45286 0.0
C460 C 0.78718 0.22527 0.46572 0.0
C461 C 0.78167 0.23739 0.47359 0.0
H462 H 0.77716 0.26836 0.48787 0.0
H463 H 0.81 0.31951 0.49046 0.0
H464 H 0.84494 0.24194 0.44 0.0
H465 H 0.8035 0.20975 0.4497 0.0
H466 H 0.7732 0.20315 0.46416 0.0
H467 H 0.76346 0.22444 0.47793 0.0
Mn468 Mn 0.62423 0.49653 0.45095 0.0
Mn469 Mn 0.67143 0.55243 0.46356 0.0
C470 C 0.67165 0.51205 0.44942 0.0
C471 C 0.59262 0.44839 0.45005 0.0
C472 C 0.64267 0.55757 0.44611 0.0
O473 O 0.60019 0.50106 0.46075 0.0
O474 O 0.63347 0.53631 0.46946 0.0
C475 C 0.67081 0.52244 0.4809 0.0
N476 N 0.68533 0.5397 0.47361 0.0
C477 C 0.72927 0.5456 0.47939 0.0
C478 C 0.71483 0.52804 0.48699 0.0
C479 C 0.68546 0.51633 0.48773 0.0
C480 C 0.71355 0.55092 0.4728 0.0
H481 H 0.64824 0.51341 0.48149 0.0
C482 C 0.60777 0.5176 0.46778 0.0
O483 O 0.58995 0.46608 0.44467 0.0
O484 O 0.6136 0.45873 0.45589 0.0
N485 N 0.7091 0.56998 0.45876 0.0
C486 C 0.71959 0.5852 0.45073 0.0
C487 C 0.74854 0.59758 0.44877 0.0
C488 C 0.76642 0.5945 0.45513 0.0
C489 C 0.75518 0.57902 0.46339 0.0
C490 C 0.72617 0.5671 0.46496 0.0
H491 H 0.70596 0.58774 0.44584 0.0
O492 O 0.65396 0.49631 0.443 0.0
O493 O 0.66087 0.51747 0.45671 0.0
O494 O 0.62892 0.53134 0.44412 0.0
O495 O 0.65871 0.56755 0.45327 0.0
C496 C 0.77156 0.5747 0.47009 0.0
C497 C 0.75859 0.55783 0.47805 0.0
H498 H 0.72604 0.52325 0.49227 0.0
H499 H 0.67414 0.50266 0.49356 0.0
H500 H 0.75706 0.6095 0.44237 0.0
H501 H 0.78872 0.60401 0.45358 0.0
H502 H 0.79412 0.58403 0.46915 0.0
H503 H 0.77135 0.55426 0.48306 0.0
Mn504 Mn 0.5081 0.1259 0.44974 0.0
Mn505 Mn 0.45864 0.12563 0.46384 0.0
C506 C 0.49742 0.16142 0.44846 0.0
C507 C 0.55475 0.13724 0.44785 0.0
C508 C 0.44528 0.08703 0.447 0.0
O509 O 0.50234 0.09742 0.45978 0.0
O510 O 0.47385 0.10314 0.46984 0.0
C511 C 0.49467 0.1584 0.47981 0.0
N512 N 0.47595 0.15504 0.47295 0.0
C513 C 0.4762 0.19741 0.47765 0.0
C514 C 0.49534 0.20122 0.48481 0.0
C515 C 0.50466 0.18165 0.48588 0.0
C516 C 0.46688 0.17376 0.47184 0.0
H517 H 0.50197 0.14346 0.48062 0.0
C518 C 0.48906 0.09232 0.46752 0.0
O519 O 0.5348 0.11743 0.44286 0.0
O520 O 0.5475 0.15031 0.45383 0.0
N521 N 0.44235 0.14678 0.45889 0.0
C522 C 0.42509 0.14088 0.45132 0.0
C523 C 0.41455 0.15889 0.4491 0.0
C524 C 0.42168 0.18263 0.45472 0.0
C525 C 0.43924 0.18809 0.46252 0.0
C526 C 0.44897 0.1693 0.46443 0.0
H527 H 0.41953 0.12268 0.44698 0.0
O528 O 0.51043 0.15677 0.44169 0.0
O529 O 0.49197 0.1457 0.45587 0.0
O530 O 0.47037 0.09777 0.44385 0.0
O531 O 0.4389 0.0951 0.45457 0.0
C532 C 0.44783 0.21168 0.46841 0.0
C533 C 0.46638 0.21641 0.47594 0.0
H534 H 0.50321 0.21921 0.48947 0.0
H535 H 0.51955 0.18453 0.49136 0.0
H536 H 0.40102 0.15453 0.44306 0.0
H537 H 0.4137 0.1966 0.45294 0.0
H538 H 0.44057 0.22653 0.46712 0.0
H539 H 0.47319 0.23488 0.48032 0.0
Mn540 Mn 0.70428 0.53789 0.71316 0.0
Mn541 Mn 0.65738 0.54428 0.69959 0.0
C542 C 0.65684 0.50694 0.71509 0.0
C543 C 0.73536 0.5209 0.71482 0.0
C544 C 0.6871 0.58222 0.71622 0.0
O545 O 0.72827 0.56419 0.70282 0.0
O546 O 0.69504 0.56366 0.69339 0.0
C547 C 0.65604 0.50968 0.68344 0.0
N548 N 0.64228 0.51488 0.69043 0.0
C549 C 0.59765 0.47561 0.6857 0.0
C550 C 0.6113 0.46993 0.67841 0.0
C551 C 0.64063 0.487 0.6773 0.0
C552 C 0.61409 0.49855 0.69158 0.0
H553 H 0.67859 0.52271 0.68258 0.0
C554 C 0.72073 0.57114 0.69531 0.0
O555 O 0.73859 0.54242 0.71968 0.0
O556 O 0.71417 0.50942 0.70908 0.0
N557 N 0.62003 0.52634 0.70468 0.0
C558 C 0.61038 0.53365 0.71238 0.0
C559 C 0.58159 0.51804 0.71468 0.0
C560 C 0.56302 0.49529 0.709 0.0
C561 C 0.57341 0.48837 0.70106 0.0
C562 C 0.60228 0.5047 0.69911 0.0
H563 H 0.62455 0.55114 0.71676 0.0
O564 O 0.67464 0.50996 0.72163 0.0
O565 O 0.66756 0.52139 0.70745 0.0
O566 O 0.70004 0.5696 0.71903 0.0
O567 O 0.67141 0.57498 0.70893 0.0
C568 C 0.55632 0.46567 0.69507 0.0
C569 C 0.56845 0.45919 0.68743 0.0
H570 H 0.5995 0.4524 0.67368 0.0
H571 H 0.65134 0.48267 0.67172 0.0
H572 H 0.57374 0.52351 0.72083 0.0
H573 H 0.54086 0.4832 0.71083 0.0
H574 H 0.53386 0.45286 0.69634 0.0
H575 H 0.55516 0.44139 0.68297 0.0
Mn576 Mn 0.46478 0.17755 0.71638 0.0
Mn577 Mn 0.46294 0.12769 0.70204 0.0
C578 C 0.49531 0.1608 0.71891 0.0
C579 C 0.48076 0.22502 0.71912 0.0
C580 C 0.41989 0.11552 0.71736 0.0
O581 O 0.44183 0.17773 0.7053 0.0
O582 O 0.44558 0.14744 0.69554 0.0
C583 C 0.50255 0.16466 0.68743 0.0
N584 N 0.4951 0.14403 0.69397 0.0
C585 C 0.53561 0.13949 0.69034 0.0
C586 C 0.54362 0.16057 0.68351 0.0
C587 C 0.52705 0.17326 0.68207 0.0
C588 C 0.51093 0.13174 0.69544 0.0
H589 H 0.4899 0.1745 0.68632 0.0
C590 C 0.43735 0.16508 0.69745 0.0
O591 O 0.45775 0.20556 0.72303 0.0
O592 O 0.49429 0.2168 0.7137 0.0
N593 N 0.47917 0.107 0.70741 0.0
C594 C 0.4694 0.08818 0.71463 0.0
C595 C 0.4841 0.07426 0.71719 0.0
C596 C 0.5085 0.07963 0.71225 0.0
C597 C 0.51797 0.09885 0.70478 0.0
C598 C 0.5024 0.11201 0.70252 0.0
H599 H 0.45063 0.08394 0.71844 0.0
O600 O 0.49017 0.1738 0.72556 0.0
O601 O 0.48306 0.15882 0.71091 0.0
O602 O 0.43151 0.14029 0.72085 0.0
O603 O 0.4294 0.10887 0.71021 0.0
C604 C 0.54247 0.10579 0.69957 0.0
C605 C 0.55137 0.12619 0.69239 0.0
H606 H 0.56256 0.16734 0.67939 0.0
H607 H 0.53318 0.18964 0.67684 0.0
H608 H 0.47666 0.05947 0.72296 0.0
H609 H 0.5199 0.06901 0.71429 0.0
H610 H 0.55482 0.09579 0.7011 0.0
H611 H 0.5705 0.13168 0.68854 0.0
Mn612 Mn 0.81691 0.28 0.7168 0.0
Mn613 Mn 0.86575 0.32976 0.7027 0.0
C614 C 0.82642 0.32591 0.71805 0.0
C615 C 0.77063 0.24381 0.71862 0.0
C616 C 0.87974 0.30501 0.71958 0.0
O617 O 0.82387 0.25778 0.70686 0.0
O618 O 0.85067 0.29222 0.69657 0.0
C619 C 0.82936 0.32649 0.68685 0.0
N620 N 0.84826 0.34186 0.69367 0.0
C621 C 0.84828 0.38409 0.68894 0.0
C622 C 0.82904 0.36878 0.6818 0.0
C623 C 0.81947 0.33984 0.68077 0.0
C624 C 0.85746 0.36967 0.69476 0.0
H625 H 0.82184 0.30421 0.68607 0.0
C626 C 0.83649 0.26623 0.69902 0.0
O627 O 0.79081 0.24461 0.72366 0.0
O628 O 0.77744 0.26397 0.71261 0.0
N629 N 0.8818 0.36708 0.70775 0.0
C630 C 0.89894 0.37838 0.71535 0.0
C631 C 0.90956 0.40694 0.71757 0.0
C632 C 0.90266 0.42364 0.71192 0.0
C633 C 0.88521 0.41162 0.70408 0.0
C634 C 0.87533 0.38306 0.7022 0.0
H635 H 0.90439 0.36569 0.71971 0.0
O636 O 0.81349 0.30809 0.72478 0.0
O637 O 0.83237 0.31593 0.71067 0.0
O638 O 0.85468 0.29055 0.72275 0.0
O639 O 0.88583 0.31912 0.71195 0.0
C640 C 0.87691 0.42675 0.69815 0.0
C641 C 0.85833 0.41296 0.69062 0.0
H642 H 0.82126 0.37897 0.67713 0.0
H643 H 0.80446 0.32783 0.67532 0.0
H644 H 0.923 0.41606 0.72363 0.0
H645 H 0.91073 0.44562 0.71369 0.0
H646 H 0.88438 0.44891 0.6994 0.0
H647 H 0.85168 0.4247 0.68622 0.0
Mn648 Mn 0.45397 0.28177 0.21403 0.0
Mn649 Mn 0.4503 0.33201 0.20146 0.0
C650 C 0.48817 0.32828 0.21589 0.0
C651 C 0.4671 0.24755 0.21485 0.0
C652 C 0.41394 0.30359 0.21852 0.0
O653 O 0.42537 0.25975 0.20397 0.0
O654 O 0.42747 0.29483 0.19512 0.0
C655 C 0.48102 0.33107 0.18452 0.0
N656 N 0.47836 0.34552 0.19184 0.0
C657 C 0.51965 0.38851 0.18705 0.0
C658 C 0.52273 0.37413 0.17941 0.0
C659 C 0.50335 0.34528 0.17815 0.0
C660 C 0.49691 0.37327 0.19313 0.0
H661 H 0.46626 0.30886 0.18356 0.0
C662 C 0.41836 0.26863 0.19678 0.0
O663 O 0.4471 0.24614 0.22014 0.0
O664 O 0.47937 0.2688 0.20916 0.0
N665 N 0.47156 0.36904 0.20672 0.0
C666 C 0.46634 0.37949 0.21467 0.0
C667 C 0.48421 0.40793 0.21707 0.0
C668 C 0.5071 0.42536 0.21125 0.0
C669 C 0.51182 0.41422 0.20305 0.0
C670 C 0.4932 0.38577 0.20098 0.0
H671 H 0.4488 0.36621 0.21917 0.0
O672 O 0.4846 0.30981 0.22224 0.0
O673 O 0.47218 0.31873 0.2085 0.0
O674 O 0.42509 0.28872 0.22069 0.0
O675 O 0.42125 0.31979 0.21136 0.0
C676 C 0.53453 0.4301 0.19692 0.0
C677 C 0.53851 0.41724 0.18894 0.0
H678 H 0.54 0.38498 0.17451 0.0
H679 H 0.50567 0.334 0.17231 0.0
H680 H 0.48041 0.41637 0.22341 0.0
H681 H 0.52098 0.44721 0.21317 0.0
H682 H 0.54925 0.45216 0.19833 0.0
H683 H 0.55629 0.42957 0.18436 0.0
Mn684 Mn 0.70656 0.17291 0.21422 0.0
Mn685 Mn 0.65904 0.12192 0.2001 0.0
C686 C 0.65954 0.15887 0.21574 0.0
C687 C 0.73966 0.22034 0.21615 0.0
C688 C 0.6868 0.11075 0.2167 0.0
O689 O 0.73024 0.16941 0.20401 0.0
O690 O 0.69675 0.13958 0.19399 0.0
C691 C 0.65917 0.15715 0.18436 0.0
N692 N 0.64488 0.13779 0.19118 0.0
C693 C 0.60105 0.13479 0.18671 0.0
C694 C 0.61526 0.15455 0.17959 0.0
C695 C 0.64446 0.16582 0.17842 0.0
C696 C 0.61681 0.12685 0.19238 0.0
H697 H 0.68164 0.16594 0.18347 0.0
C698 C 0.7226 0.15614 0.19625 0.0
O699 O 0.74118 0.20107 0.22102 0.0
O700 O 0.7189 0.21198 0.21028 0.0
N701 N 0.62163 0.10319 0.20516 0.0
C702 C 0.61139 0.08548 0.21267 0.0
C703 C 0.58265 0.07299 0.21496 0.0
C704 C 0.56472 0.07868 0.20949 0.0
C705 C 0.57569 0.09672 0.20174 0.0
C706 C 0.60446 0.1084 0.19975 0.0
H707 H 0.62505 0.08103 0.2169 0.0
O708 O 0.67705 0.17267 0.22247 0.0
O709 O 0.67037 0.15469 0.20822 0.0
O710 O 0.69978 0.13586 0.21993 0.0
O711 O 0.67206 0.10365 0.2092 0.0
C712 C 0.55929 0.10392 0.196 0.0
C713 C 0.57198 0.12302 0.18851 0.0
H714 H 0.60401 0.1614 0.17503 0.0
H715 H 0.6556 0.1812 0.17297 0.0
H716 H 0.57435 0.05909 0.22096 0.0
H717 H 0.54262 0.0692 0.21133 0.0
H718 H 0.53697 0.09515 0.19735 0.0
H719 H 0.55923 0.12874 0.18424 0.0
Mn720 Mn 0.81957 0.53764 0.21574 0.0
Mn721 Mn 0.87427 0.54122 0.2037 0.0
C722 C 0.83204 0.50367 0.21801 0.0
C723 C 0.77194 0.52383 0.21612 0.0
C724 C 0.88109 0.57816 0.22052 0.0
O725 O 0.8266 0.56595 0.2055 0.0
O726 O 0.85996 0.56346 0.19699 0.0
C727 C 0.84373 0.50961 0.18673 0.0
N728 N 0.86049 0.51275 0.19422 0.0
C729 C 0.86294 0.47154 0.18986 0.0
C730 C 0.84587 0.46797 0.18206 0.0
C731 C 0.83618 0.48706 0.1805 0.0
C732 C 0.86988 0.49448 0.1958 0.0
H733 H 0.83613 0.52416 0.18554 0.0
C734 C 0.84278 0.57261 0.19839 0.0
O735 O 0.78999 0.5441 0.22146 0.0
O736 O 0.78164 0.51181 0.21062 0.0
N737 N 0.89002 0.52046 0.20936 0.0
C738 C 0.90519 0.5261 0.21744 0.0
C739 C 0.91583 0.50853 0.22015 0.0
C740 C 0.91095 0.48549 0.2145 0.0
C741 C 0.89559 0.48032 0.20616 0.0
C742 C 0.88567 0.49867 0.20378 0.0
H743 H 0.90899 0.54376 0.22182 0.0
O744 O 0.81669 0.50729 0.22417 0.0
O745 O 0.83883 0.51948 0.21057 0.0
O746 O 0.85496 0.56689 0.22257 0.0
O747 O 0.89033 0.57073 0.21348 0.0
C748 C 0.88935 0.45743 0.20018 0.0
C749 C 0.87295 0.45297 0.19206 0.0
H750 H 0.83988 0.45053 0.17726 0.0
H751 H 0.82288 0.48436 0.17453 0.0
H752 H 0.92767 0.51267 0.2266 0.0
H753 H 0.91897 0.47184 0.21666 0.0
H754 H 0.89679 0.44293 0.20183 0.0
H755 H 0.86794 0.43506 0.18759 0.0
Mn756 Mn 0.61677 0.12817 0.9482 0.0
Mn757 Mn 0.66642 0.12603 0.96153 0.0
C758 C 0.6635 0.16151 0.94604 0.0
C759 C 0.58327 0.14222 0.94685 0.0
C760 C 0.63637 0.08583 0.94538 0.0
O761 O 0.59465 0.10145 0.95875 0.0
O762 O 0.62973 0.10646 0.96827 0.0
C763 C 0.66873 0.16221 0.97731 0.0
N764 N 0.68193 0.15669 0.97022 0.0
C765 C 0.72644 0.19767 0.97401 0.0
C766 C 0.71336 0.20372 0.98139 0.0
C767 C 0.68437 0.18594 0.98303 0.0
C768 C 0.7098 0.17367 0.96857 0.0
H769 H 0.64642 0.14863 0.97856 0.0
C770 C 0.60354 0.0967 0.96641 0.0
O771 O 0.58118 0.12122 0.94195 0.0
O772 O 0.60476 0.15492 0.95243 0.0
N773 N 0.70297 0.14441 0.95582 0.0
C774 C 0.71198 0.13655 0.94808 0.0
C775 C 0.74032 0.15264 0.9453 0.0
C776 C 0.75911 0.1765 0.95052 0.0
C777 C 0.7494 0.18402 0.95849 0.0
C778 C 0.72098 0.1671 0.96096 0.0
H779 H 0.69765 0.11822 0.94405 0.0
O780 O 0.6451 0.15724 0.93957 0.0
O781 O 0.65371 0.14674 0.95366 0.0
O782 O 0.62301 0.09774 0.9423 0.0
O783 O 0.65205 0.09405 0.95267 0.0
C784 C 0.76671 0.20789 0.96401 0.0
C785 C 0.75522 0.21479 0.97174 0.0
H786 H 0.72532 0.22207 0.98579 0.0
H787 H 0.67409 0.19054 0.98868 0.0
H788 H 0.74765 0.14671 0.93913 0.0
H789 H 0.7809 0.18899 0.9483 0.0
H790 H 0.78881 0.2213 0.96229 0.0
H791 H 0.76864 0.23347 0.97582 0.0
Mn792 Mn 0.87125 0.49171 0.94862 0.0
Mn793 Mn 0.87573 0.5454 0.96154 0.0
C794 C 0.83807 0.5054 0.94677 0.0
C795 C 0.85677 0.44408 0.9474 0.0
C796 C 0.91289 0.55358 0.94468 0.0
O797 O 0.89888 0.49665 0.95885 0.0
O798 O 0.89739 0.52971 0.96784 0.0
C799 C 0.84359 0.51309 0.97819 0.0
N800 N 0.84713 0.53085 0.97098 0.0
C801 C 0.80627 0.53352 0.97567 0.0
C802 C 0.8023 0.51541 0.98319 0.0
C803 C 0.82101 0.50511 0.98444 0.0
C804 C 0.82922 0.54084 0.96969 0.0
H805 H 0.85785 0.50502 0.97915 0.0
C806 C 0.90584 0.51211 0.96614 0.0
O807 O 0.87742 0.46272 0.94232 0.0
O808 O 0.84467 0.45318 0.95312 0.0
N809 N 0.85554 0.56236 0.9563 0.0
C810 C 0.86153 0.57854 0.94845 0.0
C811 C 0.84436 0.58992 0.94605 0.0
C812 C 0.82137 0.58473 0.95177 0.0
C813 C 0.81583 0.5683 0.95988 0.0
C814 C 0.83379 0.55768 0.96195 0.0
H815 H 0.87915 0.58258 0.94402 0.0
O816 O 0.84156 0.49075 0.9403 0.0
O817 O 0.8536 0.51088 0.95423 0.0
O818 O 0.90129 0.52767 0.94233 0.0
O819 O 0.90543 0.56231 0.95185 0.0
C820 C 0.79294 0.56168 0.9659 0.0
C821 C 0.7881 0.54422 0.97377 0.0
H822 H 0.78483 0.50909 0.98799 0.0
H823 H 0.818 0.491 0.9902 0.0
H824 H 0.84878 0.60258 0.93978 0.0
H825 H 0.80803 0.59333 0.94985 0.0
H826 H 0.77874 0.56964 0.96449 0.0
H827 H 0.77018 0.53894 0.97827 0.0
Mn828 Mn 0.50768 0.38295 0.94893 0.0
Mn829 Mn 0.45344 0.33221 0.96124 0.0
C830 C 0.49487 0.33642 0.94667 0.0
C831 C 0.55523 0.41674 0.94822 0.0
C832 C 0.446 0.36218 0.94451 0.0
O833 O 0.50136 0.4045 0.95925 0.0
O834 O 0.46828 0.36891 0.96792 0.0
C835 C 0.48471 0.33121 0.97802 0.0
N836 N 0.46755 0.31754 0.97062 0.0
C837 C 0.46494 0.2738 0.97496 0.0
C838 C 0.48243 0.28736 0.98267 0.0
C839 C 0.4924 0.31621 0.98419 0.0
C840 C 0.45789 0.28982 0.96907 0.0
H841 H 0.49251 0.35341 0.97919 0.0
C842 C 0.48553 0.39518 0.96645 0.0
O843 O 0.53682 0.41882 0.94304 0.0
O844 O 0.54594 0.39513 0.95377 0.0
N845 N 0.4372 0.29558 0.95563 0.0
C846 C 0.42161 0.28599 0.94764 0.0
C847 C 0.41063 0.25769 0.94497 0.0
C848 C 0.4156 0.23952 0.95057 0.0
C849 C 0.43141 0.24979 0.95883 0.0
C850 C 0.44166 0.27814 0.96117 0.0
H851 H 0.41771 0.29984 0.9433 0.0
O852 O 0.50994 0.35525 0.94044 0.0
O853 O 0.48855 0.34561 0.95417 0.0
O854 O 0.47203 0.37685 0.94234 0.0
O855 O 0.43699 0.34562 0.95159 0.0
C856 C 0.43775 0.23312 0.96476 0.0
C857 C 0.45459 0.24514 0.9728 0.0
H858 H 0.48852 0.27589 0.98742 0.0
H859 H 0.50602 0.32685 0.9901 0.0
H860 H 0.39844 0.24992 0.93859 0.0
H861 H 0.40731 0.21777 0.94845 0.0
H862 H 0.43004 0.21111 0.96315 0.0
H863 H 0.45967 0.2322 0.97722 0.0
Mn864 Mn 0.53769 0.7119 0.78468 0.0
Mn865 Mn 0.54495 0.66411 0.79747 0.0
C866 C 0.50529 0.66465 0.78309 0.0
C867 C 0.52197 0.74414 0.78354 0.0
C868 C 0.57962 0.69232 0.7801 0.0
O869 O 0.56603 0.73566 0.79458 0.0
O870 O 0.56723 0.70207 0.80333 0.0
C871 C 0.51547 0.66558 0.81467 0.0
N872 N 0.51807 0.65076 0.80744 0.0
C873 C 0.47947 0.60722 0.81323 0.0
C874 C 0.47649 0.62197 0.82077 0.0
C875 C 0.49451 0.6513 0.82147 0.0
C876 C 0.50072 0.62258 0.80667 0.0
H877 H 0.5293 0.68812 0.81523 0.0
C878 C 0.57465 0.72787 0.80164 0.0
O879 O 0.54242 0.74638 0.7783 0.0
O880 O 0.51079 0.72324 0.7894 0.0
N881 N 0.5244 0.6264 0.79271 0.0
C882 C 0.52909 0.61557 0.78476 0.0
C883 C 0.51222 0.58663 0.78284 0.0
C884 C 0.491 0.56908 0.78918 0.0
C885 C 0.4868 0.58065 0.79738 0.0
C886 C 0.50419 0.60965 0.7989 0.0
H887 H 0.54547 0.62895 0.77989 0.0
O888 O 0.50782 0.68248 0.77663 0.0
O889 O 0.5212 0.6752 0.79046 0.0
O890 O 0.56771 0.70657 0.77804 0.0
O891 O 0.57302 0.67621 0.78727 0.0
C892 C 0.46586 0.56462 0.80405 0.0
C893 C 0.46205 0.57791 0.81194 0.0
H894 H 0.46033 0.61104 0.82603 0.0
H895 H 0.49226 0.66286 0.82724 0.0
H896 H 0.51559 0.57786 0.77651 0.0
H897 H 0.47798 0.54678 0.78767 0.0
H898 H 0.45237 0.54207 0.80315 0.0
H899 H 0.44555 0.56542 0.81693 0.0
Mn900 Mn 0.28332 0.82601 0.7808 0.0
Mn901 Mn 0.3332 0.88037 0.79329 0.0
C902 C 0.32991 0.83828 0.77919 0.0
C903 C 0.24943 0.77849 0.7801 0.0
C904 C 0.30463 0.88757 0.77611 0.0
O905 O 0.26108 0.83289 0.79072 0.0
O906 O 0.29604 0.86594 0.79961 0.0
C907 C 0.33278 0.84961 0.81039 0.0
N908 N 0.34703 0.8664 0.80298 0.0
C909 C 0.39018 0.86842 0.80777 0.0
C910 C 0.37602 0.8513 0.81549 0.0
C911 C 0.34718 0.84182 0.8168 0.0
C912 C 0.37477 0.87563 0.80166 0.0
H913 H 0.31058 0.84214 0.81139 0.0
C914 C 0.26987 0.84885 0.79791 0.0
O915 O 0.24788 0.79679 0.77469 0.0
O916 O 0.27055 0.7879 0.78586 0.0
N917 N 0.37015 0.89607 0.78796 0.0
C918 C 0.38032 0.91121 0.77991 0.0
C919 C 0.40868 0.92163 0.77743 0.0
C920 C 0.42629 0.91651 0.78328 0.0
C921 C 0.41541 0.90112 0.79158 0.0
C922 C 0.38705 0.89147 0.79373 0.0
H923 H 0.36687 0.91516 0.77538 0.0
O924 O 0.3117 0.82326 0.77279 0.0
O925 O 0.32006 0.84501 0.78643 0.0
O926 O 0.29019 0.86152 0.77393 0.0
O927 O 0.32062 0.89668 0.78332 0.0
C928 C 0.43147 0.89458 0.79773 0.0
C929 C 0.41885 0.87817 0.8058 0.0
H930 H 0.387 0.8451 0.82041 0.0
H931 H 0.33607 0.82848 0.82271 0.0
H932 H 0.41691 0.93348 0.77101 0.0
H933 H 0.44808 0.92435 0.7813 0.0
H934 H 0.45346 0.90176 0.79625 0.0
H935 H 0.43131 0.87292 0.8104 0.0
Mn936 Mn 0.17231 0.46517 0.78325 0.0
Mn937 Mn 0.11916 0.45741 0.79719 0.0
C938 C 0.15659 0.497 0.7822 0.0
C939 C 0.22025 0.48138 0.78154 0.0
C940 C 0.11065 0.42219 0.77977 0.0
O941 O 0.16923 0.43682 0.79295 0.0
O942 O 0.13688 0.43667 0.80272 0.0
C943 C 0.15247 0.48904 0.81376 0.0
N944 N 0.13356 0.48514 0.8069 0.0
C945 C 0.12752 0.52286 0.81291 0.0
C946 C 0.1468 0.52719 0.82008 0.0
C947 C 0.15942 0.51028 0.82048 0.0
C948 C 0.12149 0.50144 0.8064 0.0
H949 H 0.16215 0.47602 0.8141 0.0
C950 C 0.15466 0.42895 0.80044 0.0
O951 O 0.20173 0.46095 0.77636 0.0
O952 O 0.21084 0.49235 0.7876 0.0
N953 N 0.10008 0.47645 0.79277 0.0
C954 C 0.08314 0.47057 0.78512 0.0
C955 C 0.06962 0.48627 0.78351 0.0
C956 C 0.0733 0.5075 0.78984 0.0
C957 C 0.09057 0.51293 0.79773 0.0
C958 C 0.10361 0.49671 0.79895 0.0
H959 H 0.08006 0.45412 0.78027 0.0
O960 O 0.17141 0.49487 0.77548 0.0
O961 O 0.15247 0.48124 0.78953 0.0
O962 O 0.13621 0.43494 0.77697 0.0
O963 O 0.10234 0.42839 0.78731 0.0
C964 C 0.09555 0.53394 0.80439 0.0
C965 C 0.1142 0.53908 0.81192 0.0
H966 H 0.15221 0.54354 0.82528 0.0
H967 H 0.17441 0.51356 0.82597 0.0
H968 H 0.05632 0.48194 0.77741 0.0
H969 H 0.06286 0.51958 0.78857 0.0
H970 H 0.08537 0.54649 0.80373 0.0
H971 H 0.11825 0.55565 0.8169 0.0
Mn972 Mn 0.38411 0.87185 0.04948 0.0
Mn973 Mn 0.33415 0.87272 0.03596 0.0
C974 C 0.33775 0.83708 0.05126 0.0
C975 C 0.41881 0.85948 0.05094 0.0
C976 C 0.36222 0.91225 0.05242 0.0
O977 O 0.40614 0.89964 0.03916 0.0
O978 O 0.37111 0.89375 0.02945 0.0
C979 C 0.33404 0.83811 0.02001 0.0
N980 N 0.32001 0.84256 0.02708 0.0
C981 C 0.27652 0.80075 0.023 0.0
C982 C 0.29047 0.79581 0.01563 0.0
C983 C 0.31936 0.81454 0.01415 0.0
C984 C 0.29223 0.82466 0.02859 0.0
H985 H 0.35628 0.85243 0.01887 0.0
C986 C 0.39732 0.90434 0.03147 0.0
O987 O 0.41973 0.8798 0.05593 0.0
O988 O 0.39783 0.84653 0.04519 0.0
N989 N 0.29735 0.85291 0.04147 0.0
C990 C 0.28746 0.85981 0.0492 0.0
C991 C 0.25911 0.8427 0.05184 0.0
C992 C 0.2412 0.81882 0.04648 0.0
C993 C 0.2518 0.81229 0.0385 0.0
C994 C 0.28019 0.8302 0.03618 0.0
H995 H 0.30111 0.87814 0.05335 0.0
O996 O 0.35594 0.84163 0.05783 0.0
O997 O 0.34755 0.85247 0.04377 0.0
O998 O 0.37604 0.90087 0.05551 0.0
O999 O 0.34706 0.90412 0.04501 0.0
C1000 C 0.23543 0.78847 0.03285 0.0
C1001 C 0.2478 0.78263 0.02512 0.0
H1002 H 0.27925 0.77757 0.01112 0.0
H1003 H 0.3303 0.81079 0.0085 0.0
H1004 H 0.25109 0.84787 0.05801 0.0
H1005 H 0.2194 0.80555 0.04858 0.0
H1006 H 0.21339 0.77428 0.03445 0.0
H1007 H 0.2351 0.76399 0.02092 0.0
Mn1008 Mn 0.12601 0.50287 0.04834 0.0
Mn1009 Mn 0.11686 0.44708 0.03555 0.0
C1010 C 0.15684 0.48612 0.0501 0.0
C1011 C 0.14347 0.55112 0.04949 0.0
C1012 C 0.08193 0.44195 0.05272 0.0
O1013 O 0.09858 0.49964 0.0383 0.0
O1014 O 0.09623 0.46432 0.02954 0.0
C1015 C 0.14794 0.47751 0.0185 0.0
N1016 N 0.14421 0.45973 0.02573 0.0
C1017 C 0.18185 0.45283 0.02018 0.0
C1018 C 0.186 0.47093 0.01264 0.0
C1019 C 0.16903 0.4834 0.01182 0.0
C1020 C 0.16053 0.44777 0.02663 0.0
H1021 H 0.13493 0.48712 0.01784 0.0
C1022 C 0.08979 0.48344 0.03119 0.0
O1023 O 0.12248 0.53342 0.05466 0.0
O1024 O 0.15423 0.54072 0.04372 0.0
N1025 N 0.13582 0.42846 0.04046 0.0
C1026 C 0.13015 0.41278 0.04842 0.0
C1027 C 0.14593 0.39961 0.05047 0.0
C1028 C 0.16709 0.40238 0.04425 0.0
C1029 C 0.17231 0.41836 0.03605 0.0
C1030 C 0.15598 0.43107 0.0344 0.0
H1031 H 0.11382 0.41047 0.0532 0.0
O1032 O 0.15483 0.50179 0.05653 0.0
O1033 O 0.14135 0.48149 0.04266 0.0
O1034 O 0.09477 0.46808 0.05484 0.0
O1035 O 0.08822 0.432 0.0456 0.0
C1036 C 0.19328 0.42242 0.0295 0.0
C1037 C 0.1982 0.43981 0.02161 0.0
H1038 H 0.20226 0.47555 0.00748 0.0
H1039 H 0.17218 0.49749 0.00604 0.0
H1040 H 0.14178 0.38732 0.05681 0.0
H1041 H 0.17928 0.39226 0.04587 0.0
H1042 H 0.20595 0.4125 0.0305 0.0
H1043 H 0.21471 0.44316 0.01671 0.0
Mn1044 Mn 0.48731 0.61633 0.05058 0.0
Mn1045 Mn 0.5407 0.66515 0.03747 0.0
C1046 C 0.50192 0.66337 0.05264 0.0
C1047 C 0.43953 0.5837 0.05194 0.0
C1048 C 0.54916 0.63553 0.05409 0.0
O1049 O 0.49127 0.59346 0.04017 0.0
O1050 O 0.52394 0.62788 0.03106 0.0
C1051 C 0.50781 0.66607 0.02114 0.0
N1052 N 0.52615 0.6799 0.02827 0.0
C1053 C 0.52998 0.72406 0.02376 0.0
C1054 C 0.51128 0.71033 0.01633 0.0
C1055 C 0.5001 0.68119 0.01503 0.0
C1056 C 0.53697 0.7079 0.0296 0.0
H1057 H 0.4991 0.64365 0.02014 0.0
C1058 C 0.50621 0.60189 0.03276 0.0
O1059 O 0.45816 0.58121 0.05686 0.0
O1060 O 0.44873 0.60511 0.04631 0.0
N1061 N 0.55869 0.70224 0.04278 0.0
C1062 C 0.57534 0.71201 0.05055 0.0
C1063 C 0.58758 0.74062 0.053 0.0
C1064 C 0.58278 0.75892 0.0474 0.0
C1065 C 0.56586 0.74845 0.03937 0.0
C1066 C 0.55435 0.71977 0.03726 0.0
H1067 H 0.57912 0.69806 0.05488 0.0
O1068 O 0.48729 0.64517 0.0591 0.0
O1069 O 0.50675 0.65329 0.04505 0.0
O1070 O 0.52338 0.62161 0.05664 0.0
O1071 O 0.55764 0.65162 0.0469 0.0
C1072 C 0.55964 0.76525 0.03346 0.0
C1073 C 0.54161 0.75305 0.02569 0.0
H1074 H 0.50518 0.7219 0.01163 0.0
H1075 H 0.48555 0.67042 0.00934 0.0
H1076 H 0.60062 0.74854 0.0592 0.0
H1077 H 0.59207 0.78093 0.04935 0.0
H1078 H 0.56835 0.78753 0.0349 0.0
H1079 H 0.53664 0.7661 0.02129 0.0
Mn1080 Mn 0.12741 0.62203 0.54737 0.0
Mn1081 Mn 0.12104 0.66717 0.53291 0.0
C1082 C 0.15853 0.66971 0.54869 0.0
C1083 C 0.14409 0.59092 0.54968 0.0
C1084 C 0.08298 0.63939 0.54968 0.0
O1085 O 0.10104 0.59676 0.53725 0.0
O1086 O 0.10174 0.62882 0.52721 0.0
C1087 C 0.15561 0.66668 0.51704 0.0
N1088 N 0.15034 0.68123 0.52372 0.0
C1089 C 0.18876 0.72545 0.5183 0.0
C1090 C 0.19452 0.71098 0.51132 0.0
C1091 C 0.17793 0.68145 0.51072 0.0
C1092 C 0.16626 0.7096 0.52441 0.0
H1093 H 0.14288 0.64399 0.51655 0.0
C1094 C 0.09418 0.60338 0.52953 0.0
O1095 O 0.12271 0.58847 0.55444 0.0
O1096 O 0.15576 0.61151 0.54372 0.0
N1097 N 0.13887 0.70511 0.53748 0.0
C1098 C 0.13167 0.71564 0.54497 0.0
C1099 C 0.14692 0.74476 0.54679 0.0
C1100 C 0.16913 0.76276 0.54083 0.0
C1101 C 0.17596 0.75145 0.53311 0.0
C1102 C 0.16011 0.72227 0.53167 0.0
H1103 H 0.11452 0.70191 0.54954 0.0
O1104 O 0.15547 0.65275 0.55553 0.0
O1105 O 0.14398 0.65801 0.54114 0.0
O1106 O 0.09569 0.62695 0.55287 0.0
O1107 O 0.09031 0.65421 0.5422 0.0
C1108 C 0.19808 0.76794 0.52685 0.0
C1109 C 0.20462 0.75494 0.5195 0.0
H1110 H 0.21173 0.7223 0.50644 0.0
H1111 H 0.18232 0.67012 0.50538 0.0
H1112 H 0.14153 0.75332 0.55277 0.0
H1113 H 0.18088 0.7852 0.54227 0.0
H1114 H 0.2104 0.79063 0.52769 0.0
H1115 H 0.22202 0.76781 0.51484 0.0
Mn1116 Mn 0.38089 0.50842 0.55061 0.0
Mn1117 Mn 0.33149 0.45821 0.53676 0.0
C1118 C 0.33439 0.4963 0.55239 0.0
C1119 C 0.41537 0.55546 0.55231 0.0
C1120 C 0.35909 0.44591 0.55316 0.0
O1121 O 0.40333 0.50366 0.54022 0.0
O1122 O 0.36875 0.47461 0.53037 0.0
C1123 C 0.33201 0.49366 0.52102 0.0
N1124 N 0.31769 0.47473 0.52795 0.0
C1125 C 0.27436 0.47327 0.52379 0.0
C1126 C 0.28859 0.49262 0.51656 0.0
C1127 C 0.31755 0.50289 0.51518 0.0
C1128 C 0.28984 0.46473 0.52935 0.0
H1129 H 0.35429 0.50169 0.51997 0.0
C1130 C 0.39486 0.4905 0.53247 0.0
O1131 O 0.41635 0.5359 0.55719 0.0
O1132 O 0.39436 0.54762 0.54659 0.0
N1133 N 0.29445 0.44083 0.5421 0.0
C1134 C 0.28425 0.4236 0.54972 0.0
C1135 C 0.2558 0.41221 0.55225 0.0
C1136 C 0.2381 0.4185 0.54689 0.0
C1137 C 0.24902 0.43608 0.53903 0.0
C1138 C 0.2775 0.44668 0.53682 0.0
H1139 H 0.29775 0.4187 0.55386 0.0
O1140 O 0.35243 0.50964 0.55903 0.0
O1141 O 0.34442 0.49134 0.54482 0.0
O1142 O 0.373 0.47102 0.55634 0.0
O1143 O 0.34403 0.43923 0.54573 0.0
C1144 C 0.23287 0.44386 0.5334 0.0
C1145 C 0.24555 0.46254 0.52581 0.0
H1146 H 0.27756 0.49991 0.51208 0.0
H1147 H 0.32872 0.51794 0.50965 0.0
H1148 H 0.24754 0.39868 0.55833 0.0
H1149 H 0.21623 0.40986 0.54891 0.0
H1150 H 0.21076 0.4359 0.53492 0.0
H1151 H 0.23302 0.46873 0.52163 0.0
Mn1152 Mn 0.48842 0.86688 0.54926 0.0
Mn1153 Mn 0.53944 0.86896 0.53549 0.0
C1154 C 0.50318 0.83468 0.5516 0.0
C1155 C 0.44081 0.85207 0.55108 0.0
C1156 C 0.55053 0.9102 0.55137 0.0
O1157 O 0.49116 0.8922 0.5385 0.0
O1158 O 0.52129 0.88775 0.52886 0.0
C1159 C 0.5041 0.83145 0.52018 0.0
N1160 N 0.52367 0.8377 0.52704 0.0
C1161 C 0.52729 0.79673 0.52331 0.0
C1162 C 0.50732 0.78995 0.51617 0.0
C1163 C 0.49563 0.80736 0.51461 0.0
C1164 C 0.535 0.82107 0.52861 0.0
H1165 H 0.49499 0.84474 0.51899 0.0
C1166 C 0.50437 0.89689 0.53076 0.0
O1167 O 0.45996 0.87381 0.55565 0.0
O1168 O 0.44942 0.83903 0.54559 0.0
N1169 N 0.55863 0.85137 0.54103 0.0
C1170 C 0.57645 0.86 0.54853 0.0
C1171 C 0.5893 0.84438 0.55121 0.0
C1172 C 0.58389 0.8202 0.54611 0.0
C1173 C 0.56572 0.81191 0.53836 0.0
C1174 C 0.55364 0.82839 0.53599 0.0
H1175 H 0.5807 0.87857 0.55246 0.0
O1176 O 0.4894 0.83923 0.55812 0.0
O1177 O 0.50696 0.84842 0.5438 0.0
O1178 O 0.52544 0.89844 0.5546 0.0
O1179 O 0.55764 0.90151 0.54411 0.0
C1180 C 0.55878 0.78769 0.53299 0.0
C1181 C 0.53949 0.78003 0.52549 0.0
H1182 H 0.50062 0.77131 0.51189 0.0
H1183 H 0.48009 0.80219 0.50914 0.0
H1184 H 0.60329 0.85092 0.5572 0.0
H1185 H 0.59366 0.80808 0.54825 0.0
H1186 H 0.5679 0.77461 0.53463 0.0
H1187 H 0.53398 0.76111 0.52151 0.0
Mn1188 Mn 0.29252 0.46242 0.28471 0.0
Mn1189 Mn 0.33846 0.45654 0.29895 0.0
C1190 C 0.33998 0.49453 0.28352 0.0
C1191 C 0.26038 0.47786 0.2825 0.0
C1192 C 0.31146 0.41931 0.28196 0.0
O1193 O 0.26762 0.4352 0.29472 0.0
O1194 O 0.3001 0.43597 0.30458 0.0
C1195 C 0.33675 0.48943 0.31514 0.0
N1196 N 0.35174 0.48513 0.30837 0.0
C1197 C 0.39545 0.52365 0.31409 0.0
C1198 C 0.38051 0.52841 0.32117 0.0
C1199 C 0.35102 0.5113 0.32167 0.0
C1200 C 0.38007 0.50159 0.30778 0.0
H1201 H 0.31409 0.47627 0.31556 0.0
C1202 C 0.27453 0.42804 0.30232 0.0
O1203 O 0.25869 0.45693 0.27767 0.0
O1204 O 0.28084 0.48984 0.2885 0.0
N1205 N 0.37647 0.47556 0.29443 0.0
C1206 C 0.38745 0.46934 0.28683 0.0
C1207 C 0.41658 0.48524 0.2851 0.0
C1208 C 0.43415 0.50706 0.29126 0.0
C1209 C 0.42238 0.51287 0.29908 0.0
C1210 C 0.3932 0.49644 0.30042 0.0
H1211 H 0.37406 0.45247 0.28211 0.0
O1212 O 0.32297 0.49139 0.27669 0.0
O1213 O 0.32847 0.47942 0.29098 0.0
O1214 O 0.29843 0.43162 0.27897 0.0
O1215 O 0.32637 0.42652 0.28942 0.0
C1216 C 0.43841 0.53451 0.30555 0.0
C1217 C 0.42494 0.54006 0.31301 0.0
H1218 H 0.39145 0.54525 0.32621 0.0
H1219 H 0.33933 0.51491 0.32708 0.0
H1220 H 0.4255 0.48064 0.27904 0.0
H1221 H 0.4566 0.5193 0.28989 0.0
H1222 H 0.46109 0.54724 0.30481 0.0
H1223 H 0.43744 0.55712 0.31783 0.0
Mn1224 Mn 0.53501 0.82614 0.2831 0.0
Mn1225 Mn 0.53965 0.88079 0.29548 0.0
C1226 C 0.50108 0.8389 0.28125 0.0
C1227 C 0.52129 0.77861 0.28223 0.0
C1228 C 0.57513 0.88782 0.27828 0.0
O1229 O 0.56369 0.83251 0.29312 0.0
O1230 O 0.56305 0.86683 0.30162 0.0
C1231 C 0.51066 0.85021 0.31278 0.0
N1232 N 0.51266 0.86695 0.30542 0.0
C1233 C 0.47317 0.8707 0.31099 0.0
C1234 C 0.47077 0.85364 0.31867 0.0
C1235 C 0.48953 0.84326 0.31955 0.0
C1236 C 0.4946 0.87687 0.30447 0.0
H1237 H 0.52507 0.84224 0.31348 0.0
C1238 C 0.5716 0.84925 0.3001 0.0
O1239 O 0.54143 0.79713 0.27697 0.0
O1240 O 0.50928 0.78779 0.28797 0.0
N1241 N 0.51796 0.89634 0.29044 0.0
C1242 C 0.52208 0.9111 0.28234 0.0
C1243 C 0.50439 0.92211 0.28023 0.0
C1244 C 0.48296 0.91818 0.28652 0.0
C1245 C 0.47934 0.90316 0.29485 0.0
C1246 C 0.49751 0.89258 0.29656 0.0
H1247 H 0.53863 0.91433 0.27752 0.0
O1248 O 0.50454 0.82387 0.27492 0.0
O1249 O 0.51708 0.8453 0.28865 0.0
O1250 O 0.5641 0.86167 0.27634 0.0
O1251 O 0.56783 0.89713 0.28533 0.0
C1252 C 0.45823 0.89804 0.30149 0.0
C1253 C 0.45499 0.88163 0.30951 0.0
H1254 H 0.4545 0.84822 0.3239 0.0
H1255 H 0.48775 0.82998 0.32543 0.0
H1256 H 0.50732 0.93366 0.27378 0.0
H1257 H 0.46934 0.92666 0.28486 0.0
H1258 H 0.44416 0.90636 0.30044 0.0
H1259 H 0.43835 0.8774 0.31447 0.0
Mn1260 Mn 0.16613 0.69991 0.28442 0.0
Mn1261 Mn 0.1148 0.65435 0.29885 0.0
C1262 C 0.14977 0.65228 0.28304 0.0
C1263 C 0.21392 0.73084 0.28191 0.0
C1264 C 0.1042 0.68227 0.2822 0.0
O1265 O 0.16526 0.72495 0.29468 0.0
O1266 O 0.13365 0.69261 0.30461 0.0
C1267 C 0.14992 0.65481 0.3147 0.0
N1268 N 0.13022 0.6403 0.30798 0.0
C1269 C 0.12504 0.59615 0.3132 0.0
C1270 C 0.14515 0.61058 0.32022 0.0
C1271 C 0.15771 0.64005 0.32094 0.0
C1272 C 0.1181 0.61198 0.30719 0.0
H1273 H 0.15961 0.67746 0.31528 0.0
C1274 C 0.15165 0.71811 0.30238 0.0
O1275 O 0.19485 0.73356 0.27734 0.0
O1276 O 0.20512 0.71028 0.28787 0.0
N1277 N 0.09503 0.61651 0.29418 0.0
C1278 C 0.07749 0.60607 0.28664 0.0
C1279 C 0.06405 0.57704 0.28468 0.0
C1280 C 0.06855 0.55905 0.29055 0.0
C1281 C 0.08653 0.57027 0.29831 0.0
C1282 C 0.09939 0.59936 0.29989 0.0
H1283 H 0.07389 0.6198 0.28213 0.0
O1284 O 0.16328 0.66927 0.27617 0.0
O1285 O 0.14697 0.6639 0.29061 0.0
O1286 O 0.12938 0.69505 0.27904 0.0
O1287 O 0.09679 0.66722 0.28963 0.0
C1288 C 0.09248 0.55379 0.30447 0.0
C1289 C 0.11186 0.56673 0.31187 0.0
H1290 H 0.15126 0.59928 0.32503 0.0
H1291 H 0.17334 0.65135 0.32631 0.0
H1292 H 0.05024 0.56856 0.27868 0.0
H1293 H 0.05823 0.53669 0.28901 0.0
H1294 H 0.08252 0.53117 0.30351 0.0
H1295 H 0.11666 0.55389 0.31645 0.0
H1296 H 0.25428 0.11537 0.13044 0.0
H1297 H 0.28528 0.15103 0.14168 0.0
H1298 H 0.2813 0.0859 0.15971 0.0
H1299 H 0.25045 0.04989 0.14847 0.0
H1300 H 0.27583 0.15712 0.16088 0.0
H1301 H 0.3666 0.13962 0.1556 0.0
H1302 H 0.33721 0.1264 0.14757 0.0
H1303 H 0.33382 0.1085 0.15846 0.0
C1304 C 0.25993 0.10851 0.13679 0.0
C1305 C 0.25006 0.07972 0.1385 0.0
C1306 C 0.27762 0.12897 0.14321 0.0
C1307 C 0.28586 0.12105 0.15142 0.0
C1308 C 0.27555 0.09238 0.1533 0.0
H1309 H 0.39382 0.21123 0.19792 0.0
H1310 H 0.36113 0.17613 0.18687 0.0
C1311 C 0.25783 0.07186 0.14688 0.0
C1312 C 0.30535 0.14291 0.15801 0.0
H1313 H 0.37084 0.17096 0.16776 0.0
C1314 C 0.29665 0.16026 0.16237 0.0
C1315 C 0.33247 0.14688 0.15989 0.0
C1316 C 0.34328 0.12956 0.15508 0.0
C1317 C 0.31423 0.18124 0.16875 0.0
C1318 C 0.3413 0.18512 0.17066 0.0
C1319 C 0.35003 0.16783 0.16627 0.0
C1320 C 0.36077 0.20667 0.17733 0.0
C1321 C 0.3035 0.19864 0.17355 0.0
C1322 C 0.37158 0.23548 0.17555 0.0
C1323 C 0.39031 0.25571 0.18186 0.0
C1324 C 0.39863 0.2474 0.19003 0.0
C1325 C 0.38786 0.21844 0.19172 0.0
C1326 C 0.36917 0.19831 0.18541 0.0
H1327 H 0.28021 0.18878 0.17296 0.0
H1328 H 0.30936 0.20158 0.18108 0.0
H1329 H 0.31324 0.21979 0.17023 0.0
H1330 H 0.3657 0.24231 0.16924 0.0
H1331 H 0.39831 0.27781 0.18031 0.0
H1332 H 0.71608 0.12995 0.17931 0.0
H1333 H 0.75328 0.13356 0.16892 0.0
H1334 H 0.81656 0.19292 0.18786 0.0
H1335 H 0.77972 0.1898 0.19826 0.0
H1336 H 0.82614 0.20843 0.1686 0.0
H1337 H 0.80354 0.09871 0.17484 0.0
H1338 H 0.77381 0.10195 0.17123 0.0
H1339 H 0.7902 0.11595 0.18236 0.0
C1340 C 0.7379 0.14387 0.18126 0.0
C1341 C 0.74489 0.1594 0.18966 0.0
C1342 C 0.75909 0.14576 0.17534 0.0
C1343 C 0.78755 0.16311 0.17774 0.0
C1344 C 0.79465 0.17926 0.18595 0.0
H1345 H 0.94823 0.20475 0.15277 0.0
H1346 H 0.91073 0.20066 0.16309 0.0
C1347 C 0.77353 0.1774 0.19188 0.0
C1348 C 0.81005 0.16449 0.1717 0.0
H1349 H 0.83793 0.12522 0.16336 0.0
C1350 C 0.82882 0.1903 0.16746 0.0
C1351 C 0.81336 0.14073 0.17027 0.0
C1352 C 0.79434 0.11279 0.17497 0.0
C1353 C 0.85068 0.19291 0.16167 0.0
C1354 C 0.85403 0.16917 0.16026 0.0
C1355 C 0.83524 0.14334 0.16449 0.0
C1356 C 0.87672 0.17064 0.15429 0.0
C1357 C 0.86963 0.22084 0.15696 0.0
C1358 C 0.86988 0.15432 0.14612 0.0
C1359 C 0.89119 0.15644 0.14023 0.0
C1360 C 0.91975 0.17488 0.14244 0.0
C1361 C 0.92648 0.19052 0.15081 0.0
C1362 C 0.90511 0.18835 0.1567 0.0
H1363 H 0.86019 0.23472 0.15698 0.0
H1364 H 0.89002 0.23193 0.16077 0.0
H1365 H 0.87408 0.21768 0.1496 0.0
H1366 H 0.84803 0.14038 0.1442 0.0
H1367 H 0.8852 0.14396 0.13387 0.0
H1368 H 0.81134 0.59879 0.19918 0.0
H1369 H 0.81005 0.6314 0.18781 0.0
H1370 H 0.87053 0.62367 0.17055 0.0
H1371 H 0.87189 0.59076 0.18184 0.0
H1372 H 0.85689 0.68366 0.18163 0.0
H1373 H 0.80471 0.60732 0.1525 0.0
H1374 H 0.80426 0.59624 0.16445 0.0
H1375 H 0.8354 0.60822 0.15741 0.0
C1376 C 0.82431 0.60386 0.19296 0.0
C1377 C 0.84171 0.59208 0.19143 0.0
C1378 C 0.82355 0.62254 0.18648 0.0
C1379 C 0.83997 0.62965 0.17833 0.0
C1380 C 0.85739 0.61806 0.17675 0.0
H1381 H 0.85842 0.73772 0.13126 0.0
H1382 H 0.86319 0.70663 0.14246 0.0
C1383 C 0.85822 0.59937 0.18324 0.0
C1384 C 0.83926 0.64973 0.1716 0.0
H1385 H 0.82004 0.65524 0.14931 0.0
C1386 C 0.84883 0.67751 0.17456 0.0
C1387 C 0.8288 0.64152 0.1624 0.0
C1388 C 0.81748 0.61166 0.15898 0.0
C1389 C 0.84839 0.69747 0.16852 0.0
C1390 C 0.83761 0.68918 0.15935 0.0
C1391 C 0.82829 0.66146 0.15636 0.0
C1392 C 0.8354 0.70881 0.15278 0.0
C1393 C 0.85983 0.72733 0.17195 0.0
C1394 C 0.81805 0.72017 0.15489 0.0
C1395 C 0.81528 0.738 0.14852 0.0
C1396 C 0.82964 0.74458 0.1399 0.0
C1397 C 0.84703 0.73312 0.13783 0.0
C1398 C 0.8498 0.71534 0.14421 0.0
H1399 H 0.874 0.73204 0.17809 0.0
H1400 H 0.87165 0.74281 0.16632 0.0
H1401 H 0.84199 0.73027 0.17413 0.0
H1402 H 0.80632 0.7149 0.1614 0.0
H1403 H 0.80162 0.74633 0.15033 0.0
H1404 H 0.11265 0.25835 0.36545 0.0
H1405 H 0.14896 0.29096 0.35468 0.0
H1406 H 0.08477 0.28769 0.33633 0.0
H1407 H 0.04814 0.25526 0.3471 0.0
H1408 H 0.15658 0.28336 0.33549 0.0
H1409 H 0.13716 0.37277 0.34128 0.0
H1410 H 0.12364 0.34272 0.34903 0.0
H1411 H 0.10667 0.33996 0.33799 0.0
C1412 C 0.10615 0.26449 0.35913 0.0
C1413 C 0.07743 0.25434 0.35719 0.0
C1414 C 0.12696 0.28312 0.35299 0.0
C1415 C 0.11948 0.29201 0.34482 0.0
C1416 C 0.09091 0.28145 0.34271 0.0
H1417 H 0.21758 0.40577 0.30008 0.0
H1418 H 0.17996 0.37253 0.31037 0.0
C1419 C 0.07003 0.26281 0.34885 0.0
C1420 C 0.1417 0.31228 0.33849 0.0
H1421 H 0.17042 0.37887 0.32958 0.0
C1422 C 0.15969 0.30427 0.3342 0.0
C1423 C 0.14556 0.33947 0.33685 0.0
C1424 C 0.12742 0.34944 0.34158 0.0
C1425 C 0.18137 0.32272 0.32819 0.0
C1426 C 0.18533 0.34997 0.32661 0.0
C1427 C 0.16724 0.35792 0.33085 0.0
C1428 C 0.20822 0.37058 0.32055 0.0
C1429 C 0.19955 0.31278 0.32349 0.0
C1430 C 0.23651 0.38084 0.323 0.0
C1431 C 0.25811 0.39983 0.31715 0.0
C1432 C 0.25174 0.40897 0.30876 0.0
C1433 C 0.22329 0.39911 0.30646 0.0
C1434 C 0.20173 0.38012 0.31233 0.0
H1435 H 0.18955 0.28941 0.32364 0.0
H1436 H 0.20386 0.31997 0.31609 0.0
H1437 H 0.22006 0.3218 0.32721 0.0
H1438 H 0.24187 0.37408 0.32943 0.0
H1439 H 0.27976 0.40714 0.31917 0.0
H1440 H 0.74244 0.86109 0.3652 0.0
H1441 H 0.71154 0.86847 0.35467 0.0
H1442 H 0.71016 0.8068 0.33553 0.0
H1443 H 0.74133 0.79943 0.34592 0.0
H1444 H 0.71894 0.85725 0.32693 0.0
H1445 H 0.62684 0.81184 0.3511 0.0
H1446 H 0.65922 0.83957 0.35594 0.0
H1447 H 0.65664 0.80661 0.35273 0.0
C1448 C 0.73562 0.84908 0.35875 0.0
C1449 C 0.74421 0.82947 0.35645 0.0
C1450 C 0.71786 0.85326 0.35277 0.0
C1451 C 0.70827 0.83783 0.34442 0.0
C1452 C 0.71727 0.81877 0.34199 0.0
H1453 H 0.59688 0.81702 0.29895 0.0
H1454 H 0.63091 0.81617 0.30978 0.0
C1455 C 0.73505 0.81458 0.34795 0.0
C1456 C 0.68876 0.84145 0.3382 0.0
H1457 H 0.62204 0.83131 0.33693 0.0
C1458 C 0.69776 0.85163 0.3291 0.0
C1459 C 0.66122 0.83415 0.34111 0.0
C1460 C 0.65021 0.82221 0.35072 0.0
C1461 C 0.67986 0.8547 0.32279 0.0
C1462 C 0.65217 0.84694 0.32564 0.0
C1463 C 0.64333 0.83724 0.33479 0.0
C1464 C 0.63166 0.84771 0.31911 0.0
C1465 C 0.69075 0.86637 0.31314 0.0
C1466 C 0.62031 0.86521 0.32093 0.0
C1467 C 0.6007 0.86569 0.31477 0.0
C1468 C 0.59199 0.84848 0.30673 0.0
C1469 C 0.60318 0.83066 0.30503 0.0
C1470 C 0.62278 0.83025 0.31118 0.0
H1471 H 0.71419 0.87817 0.31291 0.0
H1472 H 0.68314 0.84866 0.30808 0.0
H1473 H 0.68292 0.88061 0.31083 0.0
H1474 H 0.62679 0.87864 0.32707 0.0
H1475 H 0.59243 0.87956 0.31633 0.0
H1476 H 0.20837 0.94489 0.34751 0.0
H1477 H 0.20521 0.90802 0.33707 0.0
H1478 H 0.14153 0.84428 0.35484 0.0
H1479 H 0.14463 0.88082 0.36541 0.0
H1480 H 0.18586 0.83412 0.34961 0.0
H1481 H 0.13959 0.85946 0.31901 0.0
H1482 H 0.17119 0.88867 0.3237 0.0
H1483 H 0.13961 0.87232 0.33066 0.0
C1484 C 0.19362 0.92305 0.34921 0.0
C1485 C 0.17672 0.91585 0.3573 0.0
C1486 C 0.19177 0.90205 0.3432 0.0
C1487 C 0.17292 0.87354 0.34515 0.0
C1488 C 0.15614 0.86623 0.35322 0.0
H1489 H 0.12632 0.71314 0.31939 0.0
H1490 H 0.1329 0.75113 0.32993 0.0
C1491 C 0.15793 0.88718 0.35923 0.0
C1492 C 0.17103 0.85121 0.33888 0.0
H1493 H 0.15269 0.82471 0.31675 0.0
C1494 C 0.17857 0.83198 0.34243 0.0
C1495 C 0.16157 0.84864 0.32953 0.0
C1496 C 0.15228 0.86819 0.32549 0.0
C1497 C 0.17716 0.81029 0.33681 0.0
C1498 C 0.1675 0.80759 0.32748 0.0
C1499 C 0.16013 0.82694 0.32391 0.0
C1500 C 0.16442 0.78456 0.3213 0.0
C1501 C 0.18641 0.79072 0.34086 0.0
C1502 C 0.1797 0.79088 0.31291 0.0
C1503 C 0.17588 0.76927 0.30683 0.0
C1504 C 0.15655 0.74091 0.30902 0.0
C1505 C 0.14144 0.73469 0.31749 0.0
C1506 C 0.14527 0.75635 0.32356 0.0
H1507 H 0.20002 0.8 0.34713 0.0
H1508 H 0.16751 0.77071 0.34302 0.0
H1509 H 0.19813 0.78564 0.33558 0.0
H1510 H 0.19448 0.81257 0.31105 0.0
H1511 H 0.1879 0.77487 0.30038 0.0
H1512 H 0.59688 0.78503 0.80028 0.0
H1513 H 0.62961 0.8213 0.81104 0.0
H1514 H 0.62995 0.7573 0.82857 0.0
H1515 H 0.59692 0.72065 0.81791 0.0
H1516 H 0.62203 0.79835 0.83825 0.0
H1517 H 0.71418 0.8474 0.81418 0.0
H1518 H 0.68208 0.84376 0.80946 0.0
H1519 H 0.68413 0.81276 0.81217 0.0
C1520 C 0.60391 0.77856 0.80641 0.0
C1521 C 0.59435 0.74987 0.8082 0.0
C1522 C 0.62275 0.79938 0.81251 0.0
C1523 C 0.63248 0.79193 0.82049 0.0
C1524 C 0.62277 0.76339 0.82239 0.0
H1525 H 0.74204 0.88343 0.86681 0.0
H1526 H 0.71023 0.84766 0.85575 0.0
C1527 C 0.60393 0.74251 0.81629 0.0
C1528 C 0.65225 0.81393 0.82698 0.0
H1529 H 0.71846 0.87124 0.8285 0.0
C1530 C 0.64317 0.81423 0.83615 0.0
C1531 C 0.67971 0.83461 0.82417 0.0
C1532 C 0.69079 0.8346 0.81448 0.0
C1533 C 0.66075 0.835 0.84257 0.0
C1534 C 0.68825 0.85562 0.83976 0.0
C1535 C 0.69732 0.85537 0.83059 0.0
C1536 C 0.70806 0.87743 0.84631 0.0
C1537 C 0.64959 0.83503 0.85224 0.0
C1538 C 0.71801 0.90607 0.84448 0.0
C1539 C 0.73637 0.92668 0.85076 0.0
C1540 C 0.74515 0.91894 0.85895 0.0
C1541 C 0.73555 0.89018 0.86062 0.0
C1542 C 0.71725 0.86965 0.85434 0.0
H1543 H 0.62616 0.82255 0.85248 0.0
H1544 H 0.65789 0.82547 0.85726 0.0
H1545 H 0.65654 0.85689 0.8546 0.0
H1546 H 0.71126 0.91242 0.83826 0.0
H1547 H 0.74344 0.94861 0.84923 0.0
H1548 H 0.05064 0.79527 0.84525 0.0
H1549 H 0.08832 0.80239 0.83446 0.0
H1550 H 0.15025 0.86405 0.85321 0.0
H1551 H 0.11292 0.85697 0.86412 0.0
H1552 H 0.12973 0.8533 0.82572 0.0
H1553 H 0.17751 0.80687 0.84896 0.0
H1554 H 0.14259 0.80163 0.85089 0.0
H1555 H 0.17315 0.8344 0.85414 0.0
C1556 C 0.07226 0.81034 0.8471 0.0
C1557 C 0.07874 0.82535 0.8556 0.0
C1558 C 0.09373 0.81439 0.84092 0.0
C1559 C 0.12199 0.83339 0.84313 0.0
C1560 C 0.12855 0.84889 0.85148 0.0
H1561 H 0.27905 0.87791 0.81441 0.0
H1562 H 0.24356 0.87576 0.82533 0.0
C1563 C 0.10714 0.84487 0.85768 0.0
C1564 C 0.14463 0.83702 0.83668 0.0
H1565 H 0.2015 0.82752 0.83482 0.0
C1566 C 0.14543 0.84766 0.82768 0.0
C1567 C 0.16506 0.82971 0.83933 0.0
C1568 C 0.16453 0.81729 0.84883 0.0
C1569 C 0.16632 0.85134 0.82123 0.0
C1570 C 0.18654 0.8437 0.82384 0.0
C1571 C 0.18594 0.83338 0.83288 0.0
C1572 C 0.20792 0.84534 0.81718 0.0
C1573 C 0.16677 0.86362 0.81173 0.0
C1574 C 0.1995 0.82863 0.80908 0.0
C1575 C 0.21963 0.82976 0.80283 0.0
C1576 C 0.24861 0.84756 0.8046 0.0
C1577 C 0.25694 0.86407 0.8128 0.0
C1578 C 0.23673 0.86288 0.81905 0.0
H1579 H 0.1549 0.87521 0.81173 0.0
H1580 H 0.18876 0.87822 0.80941 0.0
H1581 H 0.15674 0.84626 0.80653 0.0
H1582 H 0.17733 0.81451 0.80763 0.0
H1583 H 0.21241 0.81662 0.79663 0.0
H1584 H 0.20189 0.2515 0.84577 0.0
H1585 H 0.1989 0.28364 0.83454 0.0
H1586 H 0.14182 0.29343 0.85292 0.0
H1587 H 0.14435 0.26121 0.86416 0.0
H1588 H 0.12495 0.28329 0.83372 0.0
H1589 H 0.23585 0.37008 0.83829 0.0
H1590 H 0.23131 0.33596 0.83558 0.0
H1591 H 0.21864 0.34141 0.84654 0.0
C1592 C 0.18866 0.26044 0.84744 0.0
C1593 C 0.17352 0.25391 0.85591 0.0
C1594 C 0.18711 0.27889 0.84102 0.0
C1595 C 0.17048 0.29114 0.84299 0.0
C1596 C 0.15488 0.28424 0.85132 0.0
H1597 H 0.12881 0.40808 0.81733 0.0
H1598 H 0.13297 0.37426 0.82739 0.0
C1599 C 0.15642 0.26585 0.85774 0.0
C1600 C 0.16918 0.31116 0.83638 0.0
H1601 H 0.20846 0.37682 0.8269 0.0
C1602 C 0.14318 0.30374 0.83221 0.0
C1603 C 0.19308 0.33772 0.83444 0.0
C1604 C 0.22129 0.34699 0.83899 0.0
C1605 C 0.14042 0.32225 0.8261 0.0
C1606 C 0.16419 0.34901 0.82428 0.0
C1607 C 0.1903 0.35627 0.82834 0.0
C1608 C 0.16226 0.36997 0.8183 0.0
C1609 C 0.11217 0.31292 0.82156 0.0
C1610 C 0.17809 0.37937 0.81003 0.0
C1611 C 0.17593 0.39884 0.80428 0.0
C1612 C 0.15796 0.40932 0.80674 0.0
C1613 C 0.14265 0.40029 0.81517 0.0
C1614 C 0.14487 0.38085 0.82091 0.0
H1615 H 0.09844 0.28959 0.82171 0.0
H1616 H 0.10121 0.32225 0.82543 0.0
H1617 H 0.1148 0.32016 0.81417 0.0
H1618 H 0.1918 0.37132 0.80795 0.0
H1619 H 0.18812 0.40539 0.79786 0.0
H1620 H 0.77764 0.59195 0.69681 0.0
H1621 H 0.81451 0.62377 0.68603 0.0
H1622 H 0.7515 0.62318 0.66774 0.0
H1623 H 0.71433 0.59155 0.6785 0.0
H1624 H 0.82184 0.61608 0.66682 0.0
H1625 H 0.80621 0.70773 0.6728 0.0
H1626 H 0.79184 0.67754 0.68051 0.0
H1627 H 0.77489 0.67563 0.66953 0.0
C1628 C 0.77152 0.59852 0.6905 0.0
C1629 C 0.74298 0.58936 0.68857 0.0
C1630 C 0.79266 0.61669 0.68435 0.0
C1631 C 0.78569 0.62611 0.6762 0.0
C1632 C 0.75727 0.61652 0.67411 0.0
H1633 H 0.87959 0.73601 0.63057 0.0
H1634 H 0.84369 0.70362 0.64149 0.0
C1635 C 0.73607 0.59834 0.68025 0.0
C1636 C 0.80823 0.64597 0.66987 0.0
H1637 H 0.83788 0.71229 0.66069 0.0
C1638 C 0.82548 0.63717 0.66549 0.0
C1639 C 0.81285 0.67343 0.66822 0.0
C1640 C 0.79566 0.68433 0.67307 0.0
C1641 C 0.84694 0.65498 0.6593 0.0
C1642 C 0.85143 0.68238 0.6576 0.0
C1643 C 0.83428 0.69123 0.66202 0.0
C1644 C 0.87345 0.70205 0.65109 0.0
C1645 C 0.86418 0.64414 0.65446 0.0
C1646 C 0.90209 0.71214 0.65297 0.0
C1647 C 0.92276 0.73069 0.64675 0.0
C1648 C 0.91509 0.73952 0.63855 0.0
C1649 C 0.88631 0.72961 0.63679 0.0
C1650 C 0.86572 0.7111 0.64301 0.0
H1651 H 0.85394 0.62078 0.65487 0.0
H1652 H 0.86756 0.65051 0.64697 0.0
H1653 H 0.88516 0.65332 0.65788 0.0
H1654 H 0.90844 0.70576 0.65928 0.0
H1655 H 0.9447 0.73803 0.64836 0.0
H1656 H 0.42125 0.14107 0.68006 0.0
H1657 H 0.38992 0.14602 0.66901 0.0
H1658 H 0.38356 0.20448 0.68773 0.0
H1659 H 0.41505 0.19998 0.69881 0.0
H1660 H 0.33422 0.13236 0.67349 0.0
H1661 H 0.39915 0.24401 0.66208 0.0
H1662 H 0.41422 0.2249 0.66763 0.0
H1663 H 0.39647 0.23875 0.67455 0.0
C1664 C 0.41354 0.1553 0.68179 0.0
C1665 C 0.42059 0.17002 0.69036 0.0
C1666 C 0.39564 0.15808 0.67547 0.0
C1667 C 0.38468 0.17577 0.67754 0.0
C1668 C 0.39222 0.19108 0.68594 0.0
H1669 H 0.2595 0.20604 0.65098 0.0
H1670 H 0.2943 0.20551 0.66162 0.0
C1671 C 0.4101 0.18832 0.69229 0.0
C1672 C 0.36364 0.17651 0.67126 0.0
H1673 H 0.35094 0.21997 0.65752 0.0
C1674 C 0.33789 0.15146 0.66995 0.0
C1675 C 0.36852 0.20155 0.66675 0.0
C1676 C 0.39617 0.22881 0.66774 0.0
C1677 C 0.31667 0.15081 0.66429 0.0
C1678 C 0.32162 0.17578 0.65971 0.0
C1679 C 0.3473 0.2009 0.66107 0.0
C1680 C 0.30059 0.17605 0.65331 0.0
C1681 C 0.28897 0.12354 0.66338 0.0
C1682 C 0.29293 0.15985 0.6451 0.0
C1683 C 0.27307 0.16002 0.63902 0.0
C1684 C 0.26064 0.17659 0.64101 0.0
C1685 C 0.26859 0.193 0.64924 0.0
C1686 C 0.28849 0.19278 0.65532 0.0
H1687 H 0.28586 0.10867 0.66917 0.0
H1688 H 0.27094 0.1275 0.66334 0.0
H1689 H 0.28874 0.11316 0.65667 0.0
H1690 H 0.30246 0.1472 0.64336 0.0
H1691 H 0.26762 0.14725 0.63273 0.0
H1692 H 0.83862 0.21905 0.70324 0.0
H1693 H 0.83595 0.18322 0.6924 0.0
H1694 H 0.82522 0.22802 0.6693 0.0
H1695 H 0.83002 0.26493 0.68008 0.0
H1696 H 0.79665 0.14772 0.68212 0.0
H1697 H 0.88439 0.21607 0.6584 0.0
H1698 H 0.87812 0.22903 0.66922 0.0
H1699 H 0.85859 0.22706 0.65878 0.0
C1700 C 0.83599 0.22132 0.69583 0.0
C1701 C 0.83474 0.24475 0.69245 0.0
C1702 C 0.83442 0.20086 0.68964 0.0
C1703 C 0.83093 0.20314 0.67998 0.0
C1704 C 0.82896 0.22626 0.67665 0.0
H1705 H 0.76762 0.05717 0.64303 0.0
H1706 H 0.77243 0.09391 0.65391 0.0
C1707 C 0.83143 0.24722 0.68281 0.0
C1708 C 0.82834 0.18074 0.67351 0.0
H1709 H 0.85256 0.16951 0.65287 0.0
C1710 C 0.80912 0.1525 0.67577 0.0
C1711 C 0.84491 0.18685 0.6653 0.0
C1712 C 0.86786 0.21638 0.66284 0.0
C1713 C 0.80589 0.13024 0.67006 0.0
C1714 C 0.8212 0.13646 0.66156 0.0
C1715 C 0.84054 0.1647 0.65932 0.0
C1716 C 0.818 0.11413 0.65494 0.0
C1717 C 0.78673 0.10038 0.67338 0.0
C1718 C 0.84203 0.11394 0.65157 0.0
C1719 C 0.83934 0.09368 0.64508 0.0
C1720 C 0.81254 0.07287 0.64202 0.0
C1721 C 0.78847 0.07282 0.64542 0.0
C1722 C 0.79121 0.09364 0.65169 0.0
H1723 H 0.78473 0.09939 0.68114 0.0
H1724 H 0.76531 0.09245 0.67043 0.0
H1725 H 0.7946 0.0861 0.67115 0.0
H1726 H 0.86292 0.12952 0.65394 0.0
H1727 H 0.85819 0.09404 0.64254 0.0
H1728 H 0.07328 0.54664 0.53181 0.0
H1729 H 0.0416 0.50859 0.52134 0.0
H1730 H 0.04162 0.56954 0.50218 0.0
H1731 H 0.07356 0.60785 0.51252 0.0
H1732 H 0.98764 0.49654 0.51568 0.0
H1733 H 0.05903 0.5196 0.48523 0.0
H1734 H 0.07176 0.53431 0.49673 0.0
H1735 H 0.05643 0.54939 0.48919 0.0
C1736 C 0.06678 0.55205 0.52533 0.0
C1737 C 0.076 0.58036 0.52301 0.0
C1738 C 0.04866 0.53024 0.51937 0.0
C1739 C 0.03959 0.53633 0.51096 0.0
C1740 C 0.04884 0.56449 0.50857 0.0
H1741 H 0.92327 0.445 0.46685 0.0
H1742 H 0.95654 0.47971 0.47788 0.0
C1743 C 0.06698 0.58634 0.51452 0.0
C1744 C 0.01939 0.51318 0.50488 0.0
H1745 H 0.01029 0.48675 0.48271 0.0
C1746 C 0.99262 0.49418 0.5085 0.0
C1747 C 0.02609 0.51025 0.49554 0.0
C1748 C 0.05498 0.5293 0.49145 0.0
C1749 C 0.97195 0.47279 0.50289 0.0
C1750 C 0.97848 0.47024 0.49349 0.0
C1751 C 0.00541 0.48892 0.48993 0.0
C1752 C 0.95743 0.44884 0.48712 0.0
C1753 C 0.94305 0.45366 0.50695 0.0
C1754 C 0.94692 0.41999 0.48871 0.0
C1755 C 0.92782 0.39999 0.48242 0.0
C1756 C 0.91907 0.40858 0.47441 0.0
C1757 C 0.92951 0.43757 0.47293 0.0
C1758 C 0.94858 0.45749 0.47921 0.0
H1759 H 0.9397 0.46208 0.51362 0.0
H1760 H 0.92632 0.45067 0.5019 0.0
H1761 H 0.94068 0.43266 0.5084 0.0
H1762 H 0.95387 0.41299 0.49472 0.0
H1763 H 0.92027 0.37786 0.48377 0.0
H1764 H 0.3866 0.46417 0.51545 0.0
H1765 H 0.42269 0.46855 0.50437 0.0
H1766 H 0.48783 0.52861 0.52266 0.0
H1767 H 0.45215 0.52421 0.53383 0.0
H1768 H 0.46466 0.51719 0.49523 0.0
H1769 H 0.51124 0.46906 0.51814 0.0
H1770 H 0.47731 0.46583 0.52047 0.0
H1771 H 0.50923 0.49777 0.52345 0.0
C1772 C 0.4086 0.47829 0.51714 0.0
C1773 C 0.41646 0.49364 0.52558 0.0
C1774 C 0.42915 0.48076 0.51079 0.0
C1775 C 0.45785 0.4985 0.5128 0.0
C1776 C 0.46577 0.51432 0.5211 0.0
H1777 H 0.61474 0.5459 0.4843 0.0
H1778 H 0.57792 0.54152 0.49503 0.0
C1779 C 0.4453 0.51185 0.52745 0.0
C1780 C 0.47959 0.50082 0.50616 0.0
H1781 H 0.53623 0.49099 0.50418 0.0
C1782 C 0.48022 0.51132 0.49715 0.0
C1783 C 0.4998 0.49313 0.50873 0.0
C1784 C 0.4993 0.48057 0.51819 0.0
C1785 C 0.50101 0.51491 0.49066 0.0
C1786 C 0.52133 0.50742 0.49326 0.0
C1787 C 0.52063 0.4968 0.50226 0.0
C1788 C 0.54341 0.5102 0.4867 0.0
C1789 C 0.50143 0.5272 0.48116 0.0
C1790 C 0.53607 0.49375 0.47855 0.0
C1791 C 0.55698 0.49614 0.47241 0.0
C1792 C 0.58565 0.51501 0.47433 0.0
C1793 C 0.59289 0.53129 0.48257 0.0
C1794 C 0.57192 0.52881 0.48872 0.0
H1795 H 0.48864 0.53783 0.48105 0.0
H1796 H 0.52337 0.54264 0.47902 0.0
H1797 H 0.49252 0.50999 0.47588 0.0
H1798 H 0.51415 0.4789 0.47698 0.0
H1799 H 0.55061 0.48318 0.46616 0.0
H1800 H 0.46342 0.07454 0.48464 0.0
H1801 H 0.46591 0.04077 0.49525 0.0
H1802 H 0.52107 0.03111 0.47592 0.0
H1803 H 0.51904 0.06495 0.4653 0.0
H1804 H 0.45033 0.98384 0.49108 0.0
H1805 H 0.56325 0.0484 0.50114 0.0
H1806 H 0.54393 0.06345 0.49574 0.0
H1807 H 0.55677 0.04494 0.48873 0.0
C1808 C 0.47624 0.06539 0.48266 0.0
C1809 C 0.49107 0.07253 0.47412 0.0
C1810 C 0.47758 0.04609 0.48873 0.0
C1811 C 0.49391 0.03377 0.48639 0.0
C1812 C 0.50874 0.0408 0.4779 0.0
H1813 H 0.52894 0.91283 0.51343 0.0
H1814 H 0.52478 0.9445 0.50229 0.0
C1815 C 0.50742 0.06006 0.47183 0.0
C1816 C 0.49482 0.01291 0.49271 0.0
H1817 H 0.53931 0.00058 0.50601 0.0
C1818 C 0.46972 0.98749 0.49439 0.0
C1819 C 0.52022 0.01781 0.49695 0.0
C1820 C 0.54756 0.04521 0.49563 0.0
C1821 C 0.46943 0.96654 0.50012 0.0
C1822 C 0.49483 0.97147 0.50438 0.0
C1823 C 0.51992 0.99688 0.50269 0.0
C1824 C 0.49578 0.95089 0.51083 0.0
C1825 C 0.44209 0.93915 0.50145 0.0
C1826 C 0.48079 0.94405 0.51929 0.0
C1827 C 0.48307 0.92598 0.52567 0.0
C1828 C 0.50059 0.91459 0.52373 0.0
C1829 C 0.51528 0.92122 0.51516 0.0
C1830 C 0.51296 0.93931 0.50879 0.0
H1831 H 0.42663 0.93573 0.49583 0.0
H1832 H 0.44575 0.92093 0.50155 0.0
H1833 H 0.43256 0.93971 0.50825 0.0
H1834 H 0.46784 0.95322 0.52106 0.0
H1835 H 0.47149 0.92141 0.5322 0.0
H1836 H 0.45487 0.93161 0.03306 0.0
H1837 H 0.4897 0.96492 0.02203 0.0
H1838 H 0.42297 0.95376 0.00334 0.0
H1839 H 0.38782 0.92059 0.01433 0.0
H1840 H 0.49798 0.95598 0.00297 0.0
H1841 H 0.47001 0.04006 0.00722 0.0
H1842 H 0.45886 0.01127 0.01541 0.0
H1843 H 0.44098 0.00574 0.00439 0.0
C1844 C 0.44751 0.93618 0.02661 0.0
C1845 C 0.41849 0.92356 0.02462 0.0
C1846 C 0.46747 0.95522 0.02033 0.0
C1847 C 0.4588 0.96206 0.01198 0.0
C1848 C 0.42997 0.9491 0.00985 0.0
H1849 H 0.54597 0.07037 0.96505 0.0
H1850 H 0.51123 0.03786 0.97627 0.0
C1851 C 0.40996 0.93005 0.01613 0.0
C1852 C 0.48001 0.98256 0.00544 0.0
H1853 H 0.5031 0.04692 0.99532 0.0
C1854 C 0.49923 0.97592 0.00131 0.0
C1855 C 0.48143 0.00848 0.00333 0.0
C1856 C 0.4619 0.01703 0.00787 0.0
C1857 C 0.51965 0.99442 0.99497 0.0
C1858 C 0.52108 0.02035 0.99286 0.0
C1859 C 0.50187 0.02699 0.99699 0.0
C1860 C 0.54223 0.04075 0.98629 0.0
C1861 C 0.53911 0.98581 0.99042 0.0
C1862 C 0.57109 0.05353 0.98834 0.0
C1863 C 0.59105 0.0721 0.98195 0.0
C1864 C 0.58243 0.07829 0.97342 0.0
C1865 C 0.55339 0.066 0.97153 0.0
C1866 C 0.53348 0.04743 0.97792 0.0
H1867 H 0.53096 0.96277 0.99107 0.0
H1868 H 0.54213 0.99156 0.98287 0.0
H1869 H 0.56005 0.99705 0.99389 0.0
H1870 H 0.57816 0.04901 0.99486 0.0
H1871 H 0.61321 0.08135 0.98368 0.0
H1872 H 0.9265 0.54123 0.98259 0.0
H1873 H 0.95852 0.53736 0.99366 0.0
H1874 H 0.95959 0.47322 0.97639 0.0
H1875 H 0.92795 0.47705 0.96523 0.0
H1876 H 0.95027 0.4889 0.00352 0.0
H1877 H 0.04367 0.53127 0.98006 0.0
H1878 H 0.0137 0.53571 0.9777 0.0
H1879 H 0.01204 0.50274 0.97513 0.0
C1880 C 0.9336 0.52636 0.98112 0.0
C1881 C 0.9248 0.50961 0.97297 0.0
C1882 C 0.95186 0.52418 0.98746 0.0
C1883 C 0.96171 0.50536 0.98573 0.0
C1884 C 0.95265 0.4883 0.97772 0.0
H1885 H 0.06767 0.45477 0.01477 0.0
H1886 H 0.03616 0.46024 0.00392 0.0
C1887 C 0.93444 0.49044 0.97138 0.0
C1888 C 0.98102 0.50307 0.99242 0.0
H1889 H 0.0465 0.51038 0.99432 0.0
C1890 C 0.97139 0.49376 0.00155 0.0
C1891 C 0.00848 0.50941 0.98977 0.0
C1892 C 0.02025 0.52059 0.98016 0.0
C1893 C 0.98836 0.49001 0.00808 0.0
C1894 C 0.01573 0.49615 0.00541 0.0
C1895 C 0.02542 0.50561 0.9963 0.0
C1896 C 0.03472 0.49296 0.01199 0.0
C1897 C 0.97666 0.4789 0.01771 0.0
C1898 C 0.04455 0.50987 0.02003 0.0
C1899 C 0.06251 0.50684 0.02625 0.0
C1900 C 0.07106 0.48688 0.02451 0.0
C1901 C 0.06141 0.47023 0.01636 0.0
C1902 C 0.04345 0.47333 0.01014 0.0
H1903 H 0.95331 0.46903 0.01791 0.0
H1904 H 0.98248 0.4631 0.02003 0.0
H1905 H 0.9857 0.49662 0.02279 0.0
H1906 H 0.03841 0.5255 0.02146 0.0
H1907 H 0.06963 0.52014 0.03242 0.0
H1908 H 0.51896 0.45265 0.96592 0.0
H1909 H 0.52144 0.48685 0.9774 0.0
H1910 H 0.45834 0.41933 0.99424 0.0
H1911 H 0.45583 0.38476 0.98286 0.0
H1912 H 0.47685 0.49522 0.98338 0.0
H1913 H 0.52323 0.46522 0.01279 0.0
H1914 H 0.52347 0.45447 0.00084 0.0
H1915 H 0.49182 0.43667 0.00774 0.0
C1916 C 0.50566 0.44496 0.97207 0.0
C1917 C 0.48722 0.41589 0.97346 0.0
C1918 C 0.50711 0.46458 0.97862 0.0
C1919 C 0.49032 0.45554 0.98669 0.0
C1920 C 0.47181 0.42663 0.98811 0.0
H1921 H 0.47138 0.54463 0.03375 0.0
H1922 H 0.46658 0.50922 0.02236 0.0
C1923 C 0.47032 0.40695 0.98157 0.0
C1924 C 0.49178 0.47652 0.99351 0.0
H1925 H 0.50949 0.49904 0.01607 0.0
C1926 C 0.48403 0.49614 0.99053 0.0
C1927 C 0.50112 0.47751 0.00281 0.0
C1928 C 0.51063 0.45752 0.00625 0.0
C1929 C 0.4851 0.51666 0.99666 0.0
C1930 C 0.49461 0.51778 0.00594 0.0
C1931 C 0.50219 0.49805 0.00894 0.0
C1932 C 0.4971 0.53943 0.01266 0.0
C1933 C 0.47562 0.53667 0.99321 0.0
C1934 C 0.51601 0.5681 0.01097 0.0
C1935 C 0.51884 0.58846 0.01746 0.0
C1936 C 0.50291 0.58044 0.02578 0.0
C1937 C 0.48398 0.55161 0.02743 0.0
C1938 C 0.48119 0.5313 0.02093 0.0
H1939 H 0.46237 0.52857 0.98681 0.0
H1940 H 0.46346 0.5404 0.9987 0.0
H1941 H 0.49444 0.55725 0.99146 0.0
H1942 H 0.52884 0.57469 0.00469 0.0
H1943 H 0.53367 0.61043 0.01597 0.0
H1944 H 0.277 0.00198 0.11462 0.0
H1945 H 0.30971 0.99745 0.10417 0.0
H1946 H 0.29666 0.04641 0.08316 0.0
H1947 H 0.26369 0.05101 0.09354 0.0
H1948 H 0.28217 0.99161 0.0778 0.0
H1949 H 0.38946 0.04714 0.09322 0.0
H1950 H 0.36227 0.02579 0.10147 0.0
H1951 H 0.36254 0.05578 0.09621 0.0
C1952 C 0.28153 0.01238 0.10787 0.0
C1953 C 0.26736 0.02649 0.10487 0.0
C1954 C 0.30053 0.01004 0.10195 0.0
C1955 C 0.30579 0.02186 0.09295 0.0
C1956 C 0.29303 0.0374 0.09013 0.0
H1957 H 0.35691 0.95597 0.04582 0.0
H1958 H 0.34939 0.98935 0.05502 0.0
C1959 C 0.27409 0.03986 0.09606 0.0
C1960 C 0.32013 0.01341 0.086 0.0
H1961 H 0.37997 0.01016 0.08214 0.0
C1962 C 0.30377 0.99618 0.0786 0.0
C1963 C 0.34814 0.01916 0.08719 0.0
C1964 C 0.36674 0.0382 0.09491 0.0
C1965 C 0.31407 0.9831 0.07264 0.0
C1966 C 0.3419 0.98823 0.07395 0.0
C1967 C 0.35871 0.00642 0.08114 0.0
C1968 C 0.35267 0.97276 0.06844 0.0
C1969 C 0.29434 0.9625 0.0654 0.0
C1970 C 0.35899 0.95381 0.07296 0.0
C1971 C 0.36388 0.93512 0.06772 0.0
C1972 C 0.36214 0.93498 0.0579 0.0
C1973 C 0.35783 0.95533 0.05339 0.0
C1974 C 0.35352 0.97436 0.05863 0.0
H1975 H 0.27195 0.95614 0.0668 0.0
H1976 H 0.29992 0.97253 0.05838 0.0
H1977 H 0.29612 0.94316 0.0652 0.0
H1978 H 0.35853 0.95235 0.08054 0.0
H1979 H 0.36725 0.91967 0.07136 0.0
H1980 H 0.04775 0.38505 0.05038 0.0
H1981 H 0.0169 0.35106 0.06201 0.0
H1982 H 0.03509 0.41878 0.08129 0.0
H1983 H 0.06625 0.45313 0.06971 0.0
H1984 H 0.04945 0.37977 0.08765 0.0
H1985 H 0.93983 0.32491 0.07429 0.0
H1986 H 0.96507 0.32782 0.06567 0.0
H1987 H 0.96642 0.35926 0.07011 0.0
C1988 C 0.04475 0.39286 0.057 0.0
C1989 C 0.05983 0.42182 0.05916 0.0
C1990 C 0.02679 0.37337 0.0636 0.0
C1991 C 0.02348 0.38247 0.07245 0.0
C1992 C 0.03718 0.41143 0.07445 0.0
H1993 H 0.98143 0.27341 0.12165 0.0
H1994 H 0.98631 0.31287 0.11217 0.0
C1995 C 0.0551 0.43099 0.06783 0.0
C1996 C 0.01026 0.36164 0.08006 0.0
H1997 H 0.95149 0.29926 0.08556 0.0
C1998 C 0.0278 0.36252 0.08736 0.0
C1999 C 0.98213 0.33913 0.07955 0.0
C2000 C 0.96218 0.33781 0.07202 0.0
C2001 C 0.01867 0.34042 0.09381 0.0
C2002 C 0.99085 0.31724 0.0931 0.0
C2003 C 0.97276 0.31709 0.08609 0.0
C2004 C 0.98155 0.29176 0.09891 0.0
C2005 C 0.03964 0.34123 0.10088 0.0
C2006 C 0.97527 0.26622 0.09459 0.0
C2007 C 0.97191 0.24347 0.09999 0.0
C2008 C 0.97515 0.24615 0.10976 0.0
C2009 C 0.97939 0.27103 0.1141 0.0
C2010 C 0.98219 0.29355 0.10871 0.0
H2011 H 0.06167 0.35754 0.09914 0.0
H2012 H 0.03462 0.34628 0.1079 0.0
H2013 H 0.03861 0.32046 0.1013 0.0
H2014 H 0.97461 0.26441 0.08702 0.0
H2015 H 0.96855 0.22448 0.09647 0.0
H2016 H 0.60531 0.6576 0.05036 0.0
H2017 H 0.64201 0.66337 0.06129 0.0
H2018 H 0.57906 0.61805 0.08245 0.0
H2019 H 0.54201 0.6122 0.07158 0.0
H2020 H 0.61989 0.67335 0.08719 0.0
H2021 H 0.67052 0.61434 0.0738 0.0
H2022 H 0.66538 0.63476 0.06498 0.0
H2023 H 0.63522 0.60584 0.07049 0.0
C2024 C 0.59912 0.64825 0.05726 0.0
C2025 C 0.57073 0.63478 0.06013 0.0
C2026 C 0.62015 0.6513 0.06347 0.0
C2027 C 0.61318 0.64086 0.07263 0.0
C2028 C 0.58476 0.62598 0.07536 0.0
H2029 H 0.73033 0.71212 0.1197 0.0
H2030 H 0.68889 0.67832 0.1108 0.0
C2031 C 0.56366 0.62278 0.06914 0.0
C2032 C 0.63572 0.64999 0.07971 0.0
H2033 H 0.69828 0.65288 0.08434 0.0
C2034 C 0.63674 0.66839 0.08673 0.0
C2035 C 0.65771 0.64367 0.07896 0.0
C2036 C 0.6571 0.62336 0.0717 0.0
C2037 C 0.66005 0.68208 0.09269 0.0
C2038 C 0.68253 0.67644 0.09179 0.0
C2039 C 0.68096 0.65706 0.08502 0.0
C2040 C 0.70881 0.6925 0.09725 0.0
C2041 C 0.66111 0.70382 0.09947 0.0
C2042 C 0.73421 0.71029 0.09259 0.0
C2043 C 0.75808 0.72924 0.09766 0.0
C2044 C 0.75671 0.73083 0.10745 0.0
C2045 C 0.73178 0.71168 0.11213 0.0
C2046 C 0.70812 0.69241 0.10707 0.0
H2047 H 0.64528 0.71019 0.09775 0.0
H2048 H 0.65654 0.69483 0.10665 0.0
H2049 H 0.68235 0.72303 0.09951 0.0
H2050 H 0.73517 0.71058 0.085 0.0
H2051 H 0.77704 0.7437 0.09387 0.0
H2052 H 0.9324 0.38704 0.43013 0.0
H2053 H 0.96484 0.3836 0.41913 0.0
H2054 H 0.96914 0.32242 0.43704 0.0
H2055 H 0.93706 0.32577 0.44812 0.0
H2056 H 0.02248 0.36327 0.42758 0.0
H2057 H 0.92873 0.30781 0.40415 0.0
H2058 H 0.93803 0.34258 0.40813 0.0
H2059 H 0.92538 0.31403 0.41636 0.0
C2060 C 0.94061 0.37321 0.43182 0.0
C2061 C 0.93166 0.35625 0.43992 0.0
C2062 C 0.95921 0.37138 0.42554 0.0
C2063 C 0.96904 0.35255 0.42726 0.0
C2064 C 0.96175 0.3371 0.43562 0.0
H2065 H 0.03086 0.25416 0.40379 0.0
H2066 H 0.02504 0.28782 0.41339 0.0
C2067 C 0.94323 0.33892 0.44191 0.0
C2068 C 0.98348 0.34574 0.41987 0.0
H2069 H 0.9695 0.3074 0.3998 0.0
C2070 C 0.0112 0.3515 0.4214 0.0
C2071 C 0.96859 0.33045 0.41184 0.0
C2072 C 0.93848 0.32312 0.40999 0.0
C2073 C 0.02415 0.34148 0.41521 0.0
C2074 C 0.00862 0.32476 0.40747 0.0
C2075 C 0.98144 0.3203 0.40572 0.0
C2076 C 0.01837 0.30891 0.40164 0.0
C2077 C 0.05409 0.34853 0.41711 0.0
C2078 C 0.01674 0.30963 0.39184 0.0
C2079 C 0.01926 0.28989 0.38637 0.0
C2080 C 0.0238 0.26932 0.3906 0.0
C2081 C 0.0275 0.26989 0.40035 0.0
C2082 C 0.02447 0.28934 0.40584 0.0
H2083 H 0.0661 0.36919 0.42074 0.0
H2084 H 0.05385 0.33221 0.42179 0.0
H2085 H 0.0653 0.34921 0.41054 0.0
H2086 H 0.01197 0.32448 0.38846 0.0
H2087 H 0.01664 0.2901 0.37885 0.0
H2088 H 0.66548 0.61452 0.44833 0.0
H2089 H 0.66888 0.64843 0.43661 0.0
H2090 H 0.62056 0.58063 0.41722 0.0
H2091 H 0.61708 0.54634 0.42889 0.0
H2092 H 0.674 0.62087 0.41095 0.0
H2093 H 0.61628 0.67274 0.42435 0.0
H2094 H 0.63892 0.67028 0.43295 0.0
H2095 H 0.60936 0.63856 0.42843 0.0
C2096 C 0.65504 0.60668 0.44165 0.0
C2097 C 0.64131 0.57771 0.43951 0.0
C2098 C 0.65673 0.62612 0.43499 0.0
C2099 C 0.64465 0.61697 0.42611 0.0
C2100 C 0.62974 0.58801 0.42409 0.0
H2101 H 0.70768 0.72598 0.37675 0.0
H2102 H 0.67452 0.68602 0.38635 0.0
C2103 C 0.62791 0.5685 0.43076 0.0
C2104 C 0.65184 0.63783 0.41854 0.0
H2105 H 0.65289 0.69898 0.41298 0.0
C2106 C 0.66885 0.6376 0.41124 0.0
C2107 C 0.64522 0.65965 0.41903 0.0
C2108 C 0.62621 0.66024 0.42657 0.0
C2109 C 0.68108 0.65969 0.40475 0.0
C2110 C 0.67535 0.68217 0.40543 0.0
C2111 C 0.65715 0.68167 0.41247 0.0
C2112 C 0.6906 0.70766 0.39955 0.0
C2113 C 0.70158 0.65966 0.39766 0.0
C2114 C 0.70918 0.73358 0.40379 0.0
C2115 C 0.72777 0.75658 0.39833 0.0
C2116 C 0.7282 0.75384 0.38855 0.0
C2117 C 0.70814 0.72849 0.38429 0.0
C2118 C 0.68923 0.70567 0.38975 0.0
H2119 H 0.70817 0.64401 0.39941 0.0
H2120 H 0.69139 0.65414 0.39066 0.0
H2121 H 0.7208 0.68082 0.39717 0.0
H2122 H 0.71047 0.73555 0.41136 0.0
H2123 H 0.74293 0.7759 0.4018 0.0
H2124 H 0.44411 0.07842 0.42813 0.0
H2125 H 0.40292 0.04718 0.41865 0.0
H2126 H 0.35289 0.01453 0.44374 0.0
H2127 H 0.39371 0.04644 0.45325 0.0
H2128 H 0.36464 0.98987 0.41747 0.0
H2129 H 0.31323 0.0496 0.43002 0.0
H2130 H 0.34979 0.06111 0.43233 0.0
H2131 H 0.32247 0.03299 0.4391 0.0
C2132 C 0.42445 0.06428 0.43163 0.0
C2133 C 0.42192 0.06523 0.4414 0.0
C2134 C 0.40097 0.04641 0.42621 0.0
C2135 C 0.37477 0.02906 0.4305 0.0
C2136 C 0.37278 0.02831 0.4403 0.0
H2137 H 0.21105 0.9523 0.40266 0.0
H2138 H 0.24689 0.95811 0.41406 0.0
C2139 C 0.3961 0.0465 0.44571 0.0
C2140 C 0.34916 0.01408 0.42466 0.0
H2141 H 0.28822 0.0135 0.41916 0.0
C2142 C 0.34775 0.99476 0.4179 0.0
C2143 C 0.32724 0.02066 0.42522 0.0
C2144 C 0.32825 0.04239 0.43199 0.0
C2145 C 0.32522 0.9823 0.41153 0.0
C2146 C 0.30381 0.98951 0.41195 0.0
C2147 C 0.30463 0.00789 0.41894 0.0
C2148 C 0.28205 0.98107 0.40463 0.0
C2149 C 0.32473 0.96197 0.40429 0.0
C2150 C 0.29005 0.99176 0.39553 0.0
C2151 C 0.26973 0.98875 0.38902 0.0
C2152 C 0.24101 0.97503 0.39152 0.0
C2153 C 0.23297 0.96304 0.4005 0.0
C2154 C 0.25337 0.96622 0.40703 0.0
H2155 H 0.33764 0.9525 0.40653 0.0
H2156 H 0.3028 0.94478 0.40292 0.0
H2157 H 0.33363 0.97346 0.39763 0.0
H2158 H 0.31215 0.0038 0.39361 0.0
H2159 H 0.27666 0.99812 0.38215 0.0
H2160 H 0.72591 0.00318 0.88391 0.0
H2161 H 0.69355 0.00736 0.89464 0.0
H2162 H 0.69956 0.94968 0.9138 0.0
H2163 H 0.73229 0.94544 0.90315 0.0
H2164 H 0.64065 0.96703 0.90432 0.0
H2165 H 0.73383 0.02721 0.92765 0.0
H2166 H 0.73751 0.01958 0.91561 0.0
H2167 H 0.72547 0.9922 0.92428 0.0
C2168 C 0.72008 0.99099 0.89033 0.0
C2169 C 0.73217 0.9744 0.89275 0.0
C2170 C 0.7014 0.99327 0.89641 0.0
C2171 C 0.69449 0.97905 0.90501 0.0
C2172 C 0.70491 0.96097 0.9072 0.0
H2173 H 0.64288 0.04289 0.95205 0.0
H2174 H 0.64914 0.00871 0.94288 0.0
C2175 C 0.72366 0.95867 0.90111 0.0
C2176 C 0.67958 0.9863 0.91211 0.0
H2177 H 0.69227 0.02653 0.93167 0.0
C2178 C 0.65166 0.97962 0.91041 0.0
C2179 C 0.69412 0.0027 0.92002 0.0
C2180 C 0.72444 0.01108 0.92202 0.0
C2181 C 0.6381 0.9897 0.91631 0.0
C2182 C 0.65319 0.00737 0.92393 0.0
C2183 C 0.68066 0.01287 0.92584 0.0
C2184 C 0.64256 0.02298 0.92947 0.0
C2185 C 0.60796 0.98164 0.91424 0.0
C2186 C 0.63583 0.04173 0.92499 0.0
C2187 C 0.6319 0.06106 0.93022 0.0
C2188 C 0.63531 0.06235 0.93999 0.0
C2189 C 0.64046 0.04254 0.9445 0.0
C2190 C 0.64389 0.02292 0.93929 0.0
H2191 H 0.59652 0.9607 0.91075 0.0
H2192 H 0.59642 0.98101 0.92072 0.0
H2193 H 0.60778 0.99739 0.90939 0.0
H2194 H 0.63544 0.04272 0.91741 0.0
H2195 H 0.6281 0.07621 0.92657 0.0
H2196 H 0.94107 0.61101 0.94667 0.0
H2197 H 0.97201 0.64603 0.93526 0.0
H2198 H 0.96586 0.57983 0.91729 0.0
H2199 H 0.93464 0.54441 0.92861 0.0
H2200 H 0.02458 0.65762 0.92509 0.0
H2201 H 0.92822 0.61945 0.90294 0.0
H2202 H 0.9262 0.61055 0.91519 0.0
H2203 H 0.93749 0.59383 0.90679 0.0
C2204 C 0.94663 0.60381 0.94037 0.0
C2205 C 0.93489 0.57484 0.93847 0.0
C2206 C 0.96448 0.6239 0.9339 0.0
C2207 C 0.9709 0.61539 0.92544 0.0
C2208 C 0.96091 0.58668 0.92378 0.0
H2209 H 0.01449 0.72373 0.87664 0.0
H2210 H 0.00997 0.68464 0.88619 0.0
C2211 C 0.943 0.56652 0.93025 0.0
C2212 C 0.98463 0.63632 0.91791 0.0
H2213 H 0.96876 0.66013 0.8981 0.0
C2214 C 0.01265 0.65801 0.91908 0.0
C2215 C 0.96891 0.63658 0.9101 0.0
C2216 C 0.93849 0.61401 0.90864 0.0
C2217 C 0.02513 0.68063 0.91274 0.0
C2218 C 0.00883 0.68173 0.90523 0.0
C2219 C 0.98129 0.65923 0.90384 0.0
C2220 C 0.01821 0.70714 0.89934 0.0
C2221 C 0.05543 0.70325 0.91424 0.0
C2222 C 0.0252 0.73305 0.90354 0.0
C2223 C 0.0281 0.75553 0.89809 0.0
C2224 C 0.02341 0.7522 0.88838 0.0
C2225 C 0.0179 0.72677 0.88413 0.0
C2226 C 0.01546 0.70448 0.88956 0.0
H2227 H 0.0676 0.69445 0.91766 0.0
H2228 H 0.0659 0.71337 0.90754 0.0
H2229 H 0.05608 0.71969 0.91897 0.0
H2230 H 0.02662 0.73539 0.91109 0.0
H2231 H 0.03222 0.77484 0.90155 0.0
H2232 H 0.45471 0.38597 0.92706 0.0
H2233 H 0.41867 0.38012 0.91574 0.0
H2234 H 0.3537 0.33352 0.93618 0.0
H2235 H 0.38938 0.33923 0.94756 0.0
H2236 H 0.37833 0.32443 0.91069 0.0
H2237 H 0.3264 0.38318 0.92316 0.0
H2238 H 0.36151 0.39185 0.92679 0.0
H2239 H 0.33106 0.3628 0.93212 0.0
C2240 C 0.43281 0.37508 0.92924 0.0
C2241 C 0.42489 0.36273 0.93818 0.0
C2242 C 0.41229 0.37189 0.92276 0.0
C2243 C 0.38363 0.35668 0.92517 0.0
C2244 C 0.37577 0.34583 0.93426 0.0
H2245 H 0.22182 0.25459 0.90246 0.0
H2246 H 0.263 0.28765 0.91162 0.0
C2247 C 0.39621 0.34885 0.94072 0.0
C2248 C 0.36182 0.34771 0.91784 0.0
H2249 H 0.29984 0.34504 0.91239 0.0
C2250 C 0.36147 0.32941 0.9109 0.0
C2251 C 0.33982 0.35407 0.91826 0.0
C2252 C 0.33976 0.37426 0.92544 0.0
C2253 C 0.33876 0.31583 0.9047 0.0
C2254 C 0.31623 0.32151 0.90527 0.0
C2255 C 0.31719 0.34083 0.91195 0.0
C2256 C 0.29043 0.30546 0.89958 0.0
C2257 C 0.3383 0.29413 0.89803 0.0
C2258 C 0.29195 0.30542 0.88978 0.0
C2259 C 0.26867 0.28616 0.88456 0.0
C2260 C 0.24332 0.26718 0.88906 0.0
C2261 C 0.24114 0.26892 0.89882 0.0
C2262 C 0.2646 0.28783 0.90405 0.0
H2263 H 0.35393 0.28771 0.90001 0.0
H2264 H 0.31706 0.27494 0.89782 0.0
H2265 H 0.34358 0.30319 0.89087 0.0
H2266 H 0.3115 0.3194 0.88619 0.0
H2267 H 0.27074 0.2856 0.87702 0.0
H2268 H -0.00045 0.72249 0.61268 0.0
H2269 H 0.00368 0.6913 0.60141 0.0
H2270 H 0.94568 0.69908 0.58289 0.0
H2271 H 0.9415 0.73065 0.59408 0.0
H2272 H 0.96345 0.63944 0.5913 0.0
H2273 H 0.02277 0.73478 0.5688 0.0
H2274 H 0.01531 0.73733 0.58096 0.0
H2275 H 0.98776 0.72585 0.57237 0.0
C2276 C 0.98727 0.71728 0.60629 0.0
C2277 C 0.97062 0.72955 0.60421 0.0
C2278 C 0.98953 0.69928 0.59989 0.0
C2279 C 0.97521 0.69322 0.59131 0.0
C2280 C 0.95706 0.70378 0.58946 0.0
H2281 H 0.04003 0.64642 0.54325 0.0
H2282 H 0.00561 0.65177 0.55259 0.0
C2283 C 0.95479 0.72187 0.59586 0.0
C2284 C 0.98242 0.67907 0.58392 0.0
H2285 H 0.02259 0.69384 0.56425 0.0
C2286 C 0.97595 0.65106 0.58528 0.0
C2287 C -0.00134 0.69439 0.57609 0.0
C2288 C 0.00676 0.7248 0.57444 0.0
C2289 C 0.9862 0.63822 0.57913 0.0
C2290 C 0.00382 0.65413 0.5716 0.0
C2291 C 0.009 0.68163 0.57001 0.0
C2292 C 0.01982 0.64432 0.56589 0.0
C2293 C 0.97841 0.60798 0.58084 0.0
C2294 C 0.03868 0.63751 0.57023 0.0
C2295 C 0.05819 0.63415 0.5649 0.0
C2296 C 0.05954 0.63818 0.55515 0.0
C2297 C 0.03967 0.64352 0.55077 0.0
C2298 C 0.0199 0.64642 0.55609 0.0
H2299 H 0.95741 0.59604 0.58427 0.0
H2300 H 0.97803 0.59713 0.57422 0.0
H2301 H 0.99415 0.60752 0.58563 0.0
H2302 H 0.03957 0.63655 0.5778 0.0
H2303 H 0.07334 0.63018 0.56847 0.0
H2304 H 0.26923 0.27367 0.61576 0.0
H2305 H 0.29969 0.31019 0.60467 0.0
H2306 H 0.29257 0.24648 0.5853 0.0
H2307 H 0.26187 0.20955 0.59631 0.0
H2308 H 0.35233 0.32179 0.59429 0.0
H2309 H 0.25696 0.2905 0.57224 0.0
H2310 H 0.25437 0.27983 0.58433 0.0
H2311 H 0.26472 0.26336 0.57553 0.0
C2312 C 0.27438 0.26731 0.6092 0.0
C2313 C 0.26272 0.23862 0.60687 0.0
C2314 C 0.29195 0.28826 0.60291 0.0
C2315 C 0.29812 0.2809 0.59419 0.0
C2316 C 0.28784 0.25243 0.59201 0.0
H2317 H 0.34861 0.39476 0.54667 0.0
H2318 H 0.34071 0.35398 0.55597 0.0
C2319 C 0.27026 0.23141 0.59831 0.0
C2320 C 0.3125 0.30297 0.58704 0.0
H2321 H 0.29868 0.33073 0.56778 0.0
C2322 C 0.34084 0.32363 0.58839 0.0
C2323 C 0.29733 0.3051 0.57938 0.0
C2324 C 0.26662 0.28368 0.57775 0.0
C2325 C 0.3543 0.34694 0.58236 0.0
C2326 C 0.33867 0.34982 0.57497 0.0
C2327 C 0.31068 0.32846 0.57342 0.0
C2328 C 0.34958 0.3758 0.56928 0.0
C2329 C 0.38495 0.36831 0.58402 0.0
C2330 C 0.35801 0.40183 0.57365 0.0
C2331 C 0.36285 0.42526 0.56834 0.0
C2332 C 0.35871 0.42282 0.5586 0.0
C2333 C 0.35167 0.39715 0.55419 0.0
C2334 C 0.34727 0.37389 0.55948 0.0
H2335 H 0.39616 0.35835 0.58736 0.0
H2336 H 0.39589 0.37853 0.57738 0.0
H2337 H 0.38639 0.38487 0.58885 0.0
H2338 H 0.35917 0.40364 0.58122 0.0
H2339 H 0.36809 0.44473 0.57193 0.0
H2340 H 0.78285 0.04499 0.59575 0.0
H2341 H 0.74902 0.04236 0.58401 0.0
H2342 H 0.68089 0.99699 0.60357 0.0
H2343 H 0.71433 -0.00042 0.61533 0.0
H2344 H 0.70759 0.98921 0.57803 0.0
H2345 H 0.65848 0.05014 0.59078 0.0
H2346 H 0.69235 0.05635 0.59492 0.0
H2347 H 0.66023 0.02777 0.59963 0.0
C2348 C 0.76075 0.03508 0.59764 0.0
C2349 C 0.75124 0.02218 0.60644 0.0
C2350 C 0.7415 0.03371 0.59093 0.0
C2351 C 0.71255 0.01981 0.59297 0.0
C2352 C 0.70321 0.00837 0.60192 0.0
H2353 H 0.55224 0.92088 0.5701 0.0
H2354 H 0.59346 0.95439 0.57914 0.0
C2355 C 0.72236 0.00957 0.6086 0.0
C2356 C 0.69167 0.01266 0.5854 0.0
H2357 H 0.63071 0.01213 0.57994 0.0
C2358 C 0.69116 0.99479 0.57828 0.0
C2359 C 0.67023 0.01983 0.58584 0.0
C2360 C 0.67045 0.03981 0.59316 0.0
C2361 C 0.66862 0.98214 0.57196 0.0
C2362 C 0.64644 0.98833 0.57263 0.0
C2363 C 0.64776 0.00748 0.57944 0.0
C2364 C 0.62042 0.97258 0.56702 0.0
C2365 C 0.66782 0.9607 0.5651 0.0
C2366 C 0.62159 0.9727 0.55721 0.0
C2367 C 0.59828 0.9532 0.55205 0.0
C2368 C 0.57325 0.9338 0.55663 0.0
C2369 C 0.5713 0.93553 0.56639 0.0
C2370 C 0.5948 0.9547 0.57156 0.0
H2371 H 0.68345 0.9541 0.56687 0.0
H2372 H 0.64653 0.94157 0.56491 0.0
H2373 H 0.67282 0.97004 0.55798 0.0
H2374 H 0.64099 0.98685 0.55357 0.0
H2375 H 0.60017 0.95264 0.5445 0.0
H2376 H 0.69566 0.58941 0.73508 0.0
H2377 H 0.68833 0.62162 0.74501 0.0
H2378 H 0.67477 0.65924 0.72044 0.0
H2379 H 0.68097 0.62634 0.71048 0.0
H2380 H 0.70956 0.67919 0.74707 0.0
H2381 H 0.59923 0.62498 0.73363 0.0
H2382 H 0.62331 0.61237 0.73115 0.0
H2383 H 0.62593 0.64204 0.72483 0.0
C2384 C 0.69167 0.60492 0.73179 0.0
C2385 C 0.68828 0.60503 0.72203 0.0
C2386 C 0.68756 0.62334 0.73746 0.0
C2387 C 0.68034 0.64229 0.73345 0.0
C2388 C 0.67961 0.64424 0.72366 0.0
H2389 H 0.59496 0.71797 0.76292 0.0
H2390 H 0.62541 0.71354 0.75134 0.0
C2391 C 0.68319 0.62549 0.718 0.0
C2392 C 0.67025 0.6573 0.73952 0.0
H2393 H 0.61072 0.65931 0.74517 0.0
C2394 C 0.68807 0.67517 0.74659 0.0
C2395 C 0.64212 0.65183 0.7389 0.0
C2396 C 0.62142 0.63159 0.73178 0.0
C2397 C 0.67822 0.68718 0.75322 0.0
C2398 C 0.64991 0.68099 0.75274 0.0
C2399 C 0.63252 0.66417 0.74544 0.0
C2400 C 0.63656 0.68869 0.76028 0.0
C2401 C 0.69794 0.7059 0.76079 0.0
C2402 C 0.63314 0.6765 0.76917 0.0
C2403 C 0.61558 0.67874 0.77577 0.0
C2404 C 0.60103 0.69314 0.77358 0.0
C2405 C 0.60574 0.70664 0.76483 0.0
C2406 C 0.62323 0.70426 0.75822 0.0
H2407 H 0.72037 0.7153 0.75863 0.0
H2408 H 0.69364 0.72314 0.76259 0.0
H2409 H 0.69476 0.69311 0.76718 0.0
H2410 H 0.64276 0.66387 0.77082 0.0
H2411 H 0.61256 0.6682 0.78245 0.0
H2412 H 0.40754 0.11222 0.73597 0.0
H2413 H 0.37341 0.07018 0.7445 0.0
H2414 H 0.34273 0.0252 0.7184 0.0
H2415 H 0.37766 0.06686 0.70983 0.0
H2416 H 0.31606 0.03258 0.74496 0.0
H2417 H 0.37536 0.98197 0.73118 0.0
H2418 H 0.38761 0.01898 0.72962 0.0
H2419 H 0.35955 0.99318 0.72243 0.0
C2420 C 0.39312 0.09357 0.73203 0.0
C2421 C 0.3956 0.09254 0.72227 0.0
C2422 C 0.37358 0.06959 0.73691 0.0
C2423 C 0.35609 0.04442 0.73208 0.0
C2424 C 0.35659 0.04423 0.72226 0.0
H2425 H 0.2811 0.87861 0.7586 0.0
H2426 H 0.28538 0.91437 0.74741 0.0
C2427 C 0.37649 0.06802 0.71739 0.0
C2428 C 0.3403 0.01783 0.7374 0.0
H2429 H 0.33973 0.95641 0.74205 0.0
C2430 C 0.32087 0.0157 0.74424 0.0
C2431 C 0.34678 0.99591 0.73646 0.0
C2432 C 0.36861 0.9976 0.72959 0.0
C2433 C 0.30847 0.99261 0.75039 0.0
C2434 C 0.31583 0.97135 0.74966 0.0
C2435 C 0.33404 0.97273 0.74251 0.0
C2436 C 0.30816 0.94945 0.75689 0.0
C2437 C 0.28823 0.99148 0.75778 0.0
C2438 C 0.31933 0.95742 0.76594 0.0
C2439 C 0.31722 0.93716 0.77232 0.0
C2440 C 0.30395 0.90853 0.76974 0.0
C2441 C 0.29152 0.90047 0.76081 0.0
C2442 C 0.29381 0.92082 0.75441 0.0
H2443 H 0.27829 0.00408 0.7557 0.0
H2444 H 0.2714 0.9694 0.75915 0.0
H2445 H 0.29995 0.00044 0.76441 0.0
H2446 H 0.33104 0.9795 0.76791 0.0
H2447 H 0.32688 0.9441 0.77915 0.0
H2448 H 0.93606 0.33261 0.71529 0.0
H2449 H 0.97503 0.34104 0.72562 0.0
H2450 H 0.91588 0.29062 0.74714 0.0
H2451 H 0.87663 0.28205 0.7369 0.0
H2452 H 0.95495 0.34731 0.75201 0.0
H2453 H 0.00885 0.29381 0.73645 0.0
H2454 H 0.00076 0.31389 0.72833 0.0
H2455 H 0.97253 0.28334 0.73389 0.0
C2456 C 0.93124 0.3228 0.72214 0.0
C2457 C 0.90319 0.30693 0.7253 0.0
C2458 C 0.95358 0.32742 0.728 0.0
C2459 C 0.94825 0.31617 0.73708 0.0
C2460 C 0.92032 0.29922 0.7401 0.0
H2461 H 0.06065 0.3773 0.78519 0.0
H2462 H 0.0212 0.34601 0.77509 0.0
C2463 C 0.89795 0.29449 0.73425 0.0
C2464 C 0.97161 0.32587 0.74386 0.0
H2465 H 0.03464 0.32922 0.74801 0.0
C2466 C 0.97217 0.34298 0.75125 0.0
C2467 C 0.9941 0.32043 0.74271 0.0
C2468 C 0.99404 0.30167 0.73496 0.0
C2469 C 0.99519 0.3558 0.75735 0.0
C2470 C 0.01788 0.35059 0.75619 0.0
C2471 C 0.01709 0.33296 0.7489 0.0
C2472 C 0.04326 0.36489 0.76216 0.0
C2473 C 0.99557 0.37593 0.76469 0.0
C2474 C 0.06927 0.38446 0.75818 0.0
C2475 C 0.09202 0.40202 0.76394 0.0
C2476 C 0.08886 0.40038 0.77373 0.0
C2477 C 0.06345 0.37932 0.77766 0.0
C2478 C 0.04093 0.36148 0.77191 0.0
H2479 H 0.97998 0.38276 0.76314 0.0
H2480 H 0.99015 0.36526 0.77161 0.0
H2481 H 0.01682 0.39501 0.76522 0.0
H2482 H 0.07146 0.38728 0.75066 0.0
H2483 H 0.1114 0.41804 0.76073 0.0
H2484 H 0.38629 0.33345 0.21683 0.0
H2485 H 0.35707 0.33891 0.2286 0.0
H2486 H 0.36415 0.2794 0.24656 0.0
H2487 H 0.39362 0.27379 0.23486 0.0
H2488 H 0.30535 0.29877 0.23954 0.0
H2489 H 0.40466 0.3581 0.26023 0.0
H2490 H 0.40498 0.35035 0.24796 0.0
H2491 H 0.39465 0.3229 0.25652 0.0
C2492 C 0.38128 0.32109 0.2232 0.0
C2493 C 0.39278 0.30359 0.22497 0.0
C2494 C 0.36441 0.32412 0.22988 0.0
C2495 C 0.35877 0.30974 0.23844 0.0
C2496 C 0.3685 0.29077 0.23999 0.0
H2497 H 0.32093 0.37737 0.28786 0.0
H2498 H 0.32524 0.34297 0.27814 0.0
C2499 C 0.3854 0.2877 0.23331 0.0
C2500 C 0.34621 0.31776 0.24612 0.0
H2501 H 0.36495 0.35901 0.26563 0.0
C2502 C 0.31812 0.31154 0.24535 0.0
C2503 C 0.36303 0.33431 0.25367 0.0
C2504 C 0.39356 0.34204 0.25468 0.0
C2505 C 0.30661 0.32227 0.25185 0.0
C2506 C 0.32398 0.3402 0.2591 0.0
C2507 C 0.35163 0.3452 0.26009 0.0
C2508 C 0.3154 0.35658 0.26514 0.0
C2509 C 0.27617 0.31462 0.2508 0.0
C2510 C 0.30779 0.37521 0.26109 0.0
C2511 C 0.30504 0.3947 0.26664 0.0
C2512 C 0.3105 0.3963 0.2763 0.0
C2513 C 0.31691 0.37683 0.28041 0.0
C2514 C 0.31922 0.35706 0.27488 0.0
H2515 H 0.26349 0.29346 0.24754 0.0
H2516 H 0.26662 0.31467 0.25766 0.0
H2517 H 0.27495 0.33018 0.24613 0.0
H2518 H 0.30556 0.37583 0.25356 0.0
H2519 H 0.30021 0.40954 0.26327 0.0
H2520 H 0.59076 0.87797 0.26108 0.0
H2521 H 0.62182 0.91318 0.24968 0.0
H2522 H 0.63867 0.97962 0.26935 0.0
H2523 H 0.60786 0.94479 0.28081 0.0
H2524 H 0.60801 0.95339 0.2435 0.0
H2525 H 0.71681 0.00549 0.25764 0.0
H2526 H 0.68964 0.9708 0.26135 0.0
H2527 H 0.69093 0.00187 0.26611 0.0
C2528 C 0.60154 0.90003 0.26307 0.0
C2529 C 0.59656 0.90859 0.27182 0.0
C2530 C 0.61937 0.92007 0.25655 0.0
C2531 C 0.63278 0.9489 0.25874 0.0
C2532 C 0.62899 0.95742 0.26762 0.0
H2533 H 0.69341 0.10923 0.23559 0.0
H2534 H 0.68526 0.0683 0.24488 0.0
C2535 C 0.61108 0.93746 0.27412 0.0
C2536 C 0.64671 0.97023 0.25132 0.0
H2537 H 0.70671 0.0321 0.24635 0.0
C2538 C 0.6298 0.97028 0.24396 0.0
C2539 C 0.67501 0.99222 0.25205 0.0
C2540 C 0.69425 0.99252 0.25967 0.0
C2541 C 0.6398 0.9928 0.23765 0.0
C2542 C 0.66785 0.01545 0.23857 0.0
C2543 C 0.68526 0.01468 0.24565 0.0
C2544 C 0.67817 0.04131 0.23288 0.0
C2545 C 0.61956 0.99301 0.23048 0.0
C2546 C 0.67813 0.04 0.22307 0.0
C2547 C 0.68217 0.06312 0.21776 0.0
C2548 C 0.68703 0.0881 0.2222 0.0
C2549 C 0.6896 0.09019 0.23199 0.0
C2550 C 0.68504 0.06687 0.2373 0.0
H2551 H 0.59728 0.97707 0.23207 0.0
H2552 H 0.62127 0.0141 0.23013 0.0
H2553 H 0.62471 0.98805 0.22347 0.0
H2554 H 0.67358 0.02065 0.21954 0.0
H2555 H 0.68059 0.06115 0.2102 0.0
H2556 H 0.87196 0.59314 0.23795 0.0
H2557 H 0.90773 0.62308 0.2494 0.0
H2558 H 0.97324 0.64112 0.2292 0.0
H2559 H 0.93784 0.61149 0.2177 0.0
H2560 H 0.94719 0.60775 0.25485 0.0
H2561 H 0.00126 0.71798 0.24199 0.0
H2562 H 0.96637 0.69174 0.23812 0.0
H2563 H 0.99711 0.69284 0.23314 0.0
C2564 C 0.89392 0.60404 0.23585 0.0
C2565 C 0.90205 0.59962 0.22694 0.0
C2566 C 0.9143 0.62121 0.2424 0.0
C2567 C 0.94305 0.63453 0.2401 0.0
C2568 C 0.95113 0.63151 0.23104 0.0
H2569 H 0.10343 0.69052 0.26337 0.0
H2570 H 0.06299 0.68361 0.25402 0.0
C2571 C 0.93083 0.61426 0.22452 0.0
C2572 C 0.96469 0.6473 0.2475 0.0
H2573 H 0.02736 0.70594 0.25288 0.0
C2574 C 0.96441 0.62942 0.25458 0.0
C2575 C 0.98717 0.67544 0.24701 0.0
C2576 C 0.98793 0.69571 0.2397 0.0
C2577 C 0.98693 0.63834 0.26085 0.0
C2578 C 0.00996 0.66627 0.2602 0.0
C2579 C 0.00964 0.6846 0.25337 0.0
C2580 C 0.03558 0.67565 0.26596 0.0
C2581 C 0.98665 0.61713 0.2677 0.0
C2582 C 0.03389 0.6747 0.27577 0.0
C2583 C 0.05673 0.67806 0.2811 0.0
C2584 C 0.08184 0.68312 0.27671 0.0
C2585 C 0.0843 0.68654 0.26693 0.0
C2586 C 0.06125 0.68267 0.26159 0.0
H2587 H 0.97056 0.59513 0.26584 0.0
H2588 H 0.00759 0.61852 0.26799 0.0
H2589 H 0.98158 0.62156 0.27481 0.0
H2590 H 0.01446 0.67001 0.27927 0.0
H2591 H 0.05444 0.67583 0.28864 0.0
H2592 H 0.03349 0.16337 0.1286 0.0
H2593 H 0.0778 0.16368 0.12618 0.0
H2594 H 0.08779 0.2038 0.09932 0.0
H2595 H 0.04334 0.20377 0.10183 0.0
H2596 H 0.08727 0.15373 0.09827 0.0
H2597 H 0.16233 0.2188 0.12597 0.0
H2598 H 0.1271 0.1976 0.13039 0.0
H2599 H 0.13441 0.22452 0.12177 0.0
C2600 C 0.04588 0.17351 0.1224 0.0
C2601 C 0.03566 0.1844 0.11554 0.0
C2602 C 0.07119 0.17368 0.12101 0.0
C2603 C 0.08644 0.18433 0.11265 0.0
C2604 C 0.07661 0.19596 0.10588 0.0
H2605 H 0.20349 0.12078 0.09929 0.0
H2606 H 0.18558 0.15395 0.09802 0.0
C2607 C 0.0513 0.1959 0.10731 0.0
C2608 C 0.10937 0.17838 0.1104 0.0
H2609 H 0.16598 0.17867 0.12052 0.0
C2610 C 0.10513 0.15999 0.10292 0.0
C2611 C 0.13273 0.18672 0.11642 0.0
C2612 C 0.13963 0.20825 0.12404 0.0
C2613 C 0.12193 0.14747 0.10191 0.0
C2614 C 0.14338 0.15359 0.10854 0.0
C2615 C 0.14929 0.17391 0.11549 0.0
C2616 C 0.15589 0.1353 0.10943 0.0
C2617 C 0.11513 0.12589 0.09429 0.0
C2618 C 0.14511 0.11415 0.11628 0.0
C2619 C 0.155 0.09522 0.11697 0.0
C2620 C 0.17601 0.09718 0.11085 0.0
C2621 C 0.18725 0.11877 0.10409 0.0
C2622 C 0.17713 0.13771 0.10336 0.0
H2623 H 0.09829 0.12414 0.08951 0.0
H2624 H 0.13435 0.13164 0.09009 0.0
H2625 H 0.10814 0.10491 0.09748 0.0
H2626 H 0.12861 0.11199 0.12099 0.0
H2627 H 0.14601 0.07893 0.12229 0.0
H2628 H 0.88767 0.08741 0.10232 0.0
H2629 H 0.85703 0.03613 0.10041 0.0
H2630 H 0.8925 0.02226 0.12547 0.0
H2631 H 0.92297 0.07295 0.1274 0.0
H2632 H 0.87801 0.9978 0.09855 0.0
H2633 H 0.80675 0.97031 0.12904 0.0
H2634 H 0.82589 0.00565 0.12429 0.0
H2635 H 0.84301 0.99323 0.13217 0.0
C2636 C 0.88861 0.07336 0.10747 0.0
C2637 C 0.90776 0.08413 0.11499 0.0
C2638 C 0.8711 0.04417 0.10638 0.0
C2639 C 0.87219 0.02551 0.1129 0.0
C2640 C 0.89089 0.03633 0.12049 0.0
H2641 H 0.85435 0.87159 0.12556 0.0
H2642 H 0.85687 0.91738 0.12446 0.0
C2643 C 0.9085 0.06532 0.12152 0.0
C2644 C 0.85617 0.99465 0.11143 0.0
H2645 H 0.81528 0.93348 0.12333 0.0
C2646 C 0.86355 0.98353 0.10379 0.0
C2647 C 0.83731 0.97624 0.11827 0.0
C2648 C 0.82754 0.98696 0.12636 0.0
C2649 C 0.8547 0.95466 0.1033 0.0
C2650 C 0.83763 0.93655 0.11056 0.0
C2651 C 0.82841 0.9474 0.11779 0.0
C2652 C 0.8329 0.9076 0.11157 0.0
C2653 C 0.8656 0.94421 0.09544 0.0
C2654 C 0.81816 0.88677 0.10477 0.0
C2655 C 0.81677 0.86058 0.1054 0.0
C2656 C 0.82941 0.85475 0.11297 0.0
C2657 C 0.84369 0.8754 0.11983 0.0
C2658 C 0.8452 0.90152 0.11918 0.0
H2659 H 0.88186 0.96178 0.09115 0.0
H2660 H 0.87487 0.93173 0.09828 0.0
H2661 H 0.84784 0.93025 0.09077 0.0
H2662 H 0.80833 0.891 0.09888 0.0
H2663 H 0.80608 0.84499 0.09996 0.0
H2664 H 0.91463 0.79399 0.0981 0.0
H2665 H 0.96551 0.81268 0.09576 0.0
H2666 H 0.98259 0.85615 0.12226 0.0
H2667 H 0.93238 0.83786 0.12461 0.0
H2668 H 0.0041 0.87103 0.09492 0.0
H2669 H 0.0346 0.82243 0.12305 0.0
H2670 H -0.00132 0.80714 0.11888 0.0
H2671 H 0.01222 0.83504 0.12746 0.0
C2672 C 0.9293 0.80709 0.10349 0.0
C2673 C 0.91965 0.81465 0.11151 0.0
C2674 C 0.95825 0.81767 0.10215 0.0
C2675 C 0.97772 0.83535 0.10892 0.0
C2676 C 0.9679 0.84198 0.11706 0.0
H2677 H 0.12535 0.97219 0.12309 0.0
H2678 H 0.08171 0.92706 0.12119 0.0
C2679 C 0.93919 0.83176 0.11834 0.0
C2680 C 0.00843 0.85033 0.1071 0.0
H2681 H 0.07037 0.87028 0.11847 0.0
C2682 C 0.01882 0.87028 0.09985 0.0
C2683 C 0.02748 0.84915 0.11352 0.0
C2684 C 0.01765 0.82704 0.1211 0.0
C2685 C 0.04741 0.89118 0.09949 0.0
C2686 C 0.06597 0.89166 0.10648 0.0
C2687 C 0.05605 0.86999 0.11317 0.0
C2688 C 0.09398 0.91689 0.10797 0.0
C2689 C 0.05697 0.91407 0.09216 0.0
C2690 C 0.11548 0.92585 0.10124 0.0
C2691 C 0.14044 0.9517 0.10234 0.0
C2692 C 0.14438 0.96836 0.11029 0.0
C2693 C 0.12307 0.95915 0.11707 0.0
C2694 C 0.09818 0.93348 0.11596 0.0
H2695 H 0.03913 0.91225 0.08791 0.0
H2696 H 0.06783 0.9352 0.09553 0.0
H2697 H 0.07221 0.91273 0.08737 0.0
H2698 H 0.11265 0.91326 0.09505 0.0
H2699 H 0.15654 0.95881 0.09696 0.0
H2700 H 0.07517 0.14842 0.37182 0.0
H2701 H 0.10614 0.12856 0.37336 0.0
H2702 H 0.14444 0.17961 0.39789 0.0
H2703 H 0.11338 0.19993 0.39638 0.0
H2704 H 0.17092 0.16037 0.37513 0.0
H2705 H 0.10982 0.09217 0.40528 0.0
H2706 H 0.09404 0.10592 0.3973 0.0
H2707 H 0.12077 0.12921 0.40533 0.0
C2708 C 0.09026 0.15561 0.37753 0.0
C2709 C 0.09172 0.17558 0.38403 0.0
C2710 C 0.10802 0.14434 0.37836 0.0
C2711 C 0.12743 0.15262 0.38574 0.0
C2712 C 0.12949 0.17299 0.39216 0.0
H2713 H 0.19344 0.03893 0.39641 0.0
H2714 H 0.19161 0.08269 0.39807 0.0
C2715 C 0.11178 0.18453 0.39128 0.0
C2716 C 0.14409 0.13836 0.38684 0.0
H2717 H 0.14126 0.08149 0.39766 0.0
C2718 C 0.16498 0.14354 0.38019 0.0
C2719 C 0.13641 0.11666 0.39351 0.0
C2720 C 0.11402 0.11043 0.40078 0.0
C2721 C 0.17724 0.12637 0.37968 0.0
C2722 C 0.16777 0.1031 0.38582 0.0
C2723 C 0.14841 0.09928 0.39293 0.0
C2724 C 0.1744 0.08029 0.38422 0.0
C2725 C 0.1997 0.1328 0.37245 0.0
C2726 C 0.16564 0.06466 0.37586 0.0
C2727 C 0.1666 0.03977 0.37494 0.0
C2728 C 0.1767 0.03031 0.38231 0.0
C2729 C 0.1862 0.04628 0.39057 0.0
C2730 C 0.18518 0.0712 0.39151 0.0
H2731 H 0.21062 0.15538 0.37036 0.0
H2732 H 0.21558 0.12762 0.37517 0.0
H2733 H 0.18982 0.11993 0.36609 0.0
H2734 H 0.15634 0.07071 0.37027 0.0
H2735 H 0.15801 0.02711 0.36868 0.0
H2736 H 0.96662 0.12949 0.37063 0.0
H2737 H 0.92325 0.0843 0.37259 0.0
H2738 H 0.91254 0.10917 0.40028 0.0
H2739 H 0.95587 0.15496 0.3982 0.0
H2740 H 0.91541 0.0598 0.39973 0.0
H2741 H 0.83786 0.05348 0.37355 0.0
H2742 H 0.87307 0.06919 0.36896 0.0
H2743 H 0.86539 0.08646 0.37831 0.0
C2744 C 0.95421 0.12586 0.37693 0.0
C2745 C 0.96388 0.14595 0.38413 0.0
C2746 C 0.92948 0.10001 0.37807 0.0
C2747 C 0.91434 0.09359 0.38651 0.0
C2748 C 0.92364 0.11393 0.39366 0.0
H2749 H 0.79436 0.91117 0.39612 0.0
H2750 H 0.81397 0.96217 0.39854 0.0
C2751 C 0.94831 0.13996 0.39247 0.0
C2752 C 0.89203 0.06412 0.38833 0.0
H2753 H 0.83476 0.00924 0.37791 0.0
C2754 C 0.89718 0.04886 0.39519 0.0
C2755 C 0.86822 0.04993 0.38243 0.0
C2756 C 0.86058 0.06565 0.37545 0.0
C2757 C 0.88064 0.01937 0.39569 0.0
C2758 C 0.85856 0.00504 0.38918 0.0
C2759 C 0.8519 0.02042 0.38285 0.0
C2760 C 0.84574 0.97439 0.38776 0.0
C2761 C 0.8882 0.00345 0.40264 0.0
C2762 C 0.85721 0.96474 0.38091 0.0
C2763 C 0.84627 0.93592 0.37954 0.0
C2764 C 0.82356 0.91619 0.38499 0.0
C2765 C 0.81189 0.92592 0.39183 0.0
C2766 C 0.82297 0.95493 0.39321 0.0
H2767 H 0.90443 0.01775 0.40774 0.0
H2768 H 0.86909 0.98805 0.40654 0.0
H2769 H 0.89644 0.99137 0.39883 0.0
H2770 H 0.87487 0.97958 0.37667 0.0
H2771 H 0.85573 0.92916 0.37422 0.0
H2772 H 0.06857 0.91706 0.37065 0.0
H2773 H 0.01789 0.88538 0.37232 0.0
H2774 H 0.03214 0.84857 0.39695 0.0
H2775 H 0.08329 0.88038 0.39533 0.0
H2776 H 0.98574 0.82197 0.37392 0.0
H2777 H 0.97846 0.88041 0.40488 0.0
H2778 H 0.00826 0.89654 0.39701 0.0
H2779 H 0.00426 0.86911 0.40481 0.0
C2780 C 0.06102 0.90214 0.3764 0.0
C2781 C 0.07988 0.90134 0.3829 0.0
C2782 C 0.03207 0.88398 0.37731 0.0
C2783 C 0.0214 0.8648 0.38477 0.0
C2784 C 0.04009 0.86337 0.39117 0.0
H2785 H 0.84117 0.79668 0.39553 0.0
H2786 H 0.8864 0.7976 0.39701 0.0
C2787 C 0.06922 0.8815 0.39023 0.0
C2788 C 0.99053 0.8477 0.38597 0.0
H2789 H 0.93632 0.84884 0.39733 0.0
C2790 C 0.97482 0.82728 0.37917 0.0
C2791 C 0.97646 0.85452 0.39289 0.0
C2792 C 0.99255 0.87636 0.40033 0.0
C2793 C 0.94538 0.81485 0.37875 0.0
C2794 C 0.93154 0.82358 0.38514 0.0
C2795 C 0.94703 0.84226 0.39241 0.0
C2796 C 0.90229 0.81748 0.38355 0.0
C2797 C 0.92936 0.79318 0.3713 0.0
C2798 C 0.89622 0.82811 0.37547 0.0
C2799 C 0.87068 0.82782 0.37468 0.0
C2800 C 0.85056 0.81639 0.38185 0.0
C2801 C 0.85619 0.80495 0.38981 0.0
C2802 C 0.8819 0.80544 0.39065 0.0
H2803 H 0.94111 0.7826 0.36891 0.0
H2804 H 0.90835 0.77694 0.37395 0.0
H2805 H 0.92626 0.80372 0.36514 0.0
H2806 H 0.91199 0.83837 0.37006 0.0
H2807 H 0.86734 0.83798 0.36869 0.0
H2808 H 0.79524 0.87905 0.89804 0.0
H2809 H 0.81335 0.84608 0.8994 0.0
H2810 H 0.86659 0.88465 0.87533 0.0
H2811 H 0.84894 0.91749 0.87395 0.0
H2812 H 0.83201 0.8197 0.8765 0.0
H2813 H 0.89978 0.87627 0.90729 0.0
H2814 H 0.86317 0.86696 0.90709 0.0
H2815 H 0.88787 0.89401 0.89943 0.0
C2816 C 0.81067 0.88032 0.89302 0.0
C2817 C 0.82085 0.90097 0.88593 0.0
C2818 C 0.82093 0.86151 0.8938 0.0
C2819 C 0.84125 0.86306 0.88746 0.0
C2820 C 0.85082 0.88313 0.88026 0.0
H2821 H 0.96498 0.83469 0.86924 0.0
H2822 H 0.92078 0.83482 0.87133 0.0
C2823 C 0.84081 0.90197 0.87952 0.0
C2824 C 0.85421 0.84517 0.88846 0.0
H2825 H 0.9102 0.84555 0.89904 0.0
C2826 C 0.84861 0.82472 0.88158 0.0
C2827 C 0.87558 0.85161 0.89516 0.0
C2828 C 0.88216 0.8734 0.90269 0.0
C2829 C 0.86531 0.81199 0.88082 0.0
C2830 C 0.88849 0.82053 0.88694 0.0
C2831 C 0.89248 0.83913 0.89432 0.0
C2832 C 0.91142 0.8144 0.88491 0.0
C2833 C 0.85867 0.79026 0.8733 0.0
C2834 C 0.9208 0.80272 0.89181 0.0
C2835 C 0.94604 0.80248 0.89057 0.0
C2836 C 0.96206 0.81374 0.88239 0.0
C2837 C 0.95229 0.8247 0.8754 0.0
C2838 C 0.92705 0.82481 0.87661 0.0
H2839 H 0.8361 0.77979 0.87121 0.0
H2840 H 0.87161 0.8007 0.867 0.0
H2841 H 0.86362 0.77396 0.87574 0.0
H2842 H 0.90932 0.79505 0.89834 0.0
H2843 H 0.95364 0.79455 0.89614 0.0
H2844 H 0.07495 0.9251 0.87082 0.0
H2845 H 0.10591 0.97578 0.87261 0.0
H2846 H 0.14072 0.96204 0.89785 0.0
H2847 H 0.10964 0.91077 0.89607 0.0
H2848 H 0.12 0.00123 0.89928 0.0
H2849 H 0.19236 0.02627 0.86919 0.0
H2850 H 0.1561 0.00336 0.86603 0.0
H2851 H 0.17285 0.99128 0.8742 0.0
C2852 C 0.08936 0.93276 0.87671 0.0
C2853 C 0.08983 0.914 0.88333 0.0
C2854 C 0.10723 0.96172 0.87767 0.0
C2855 C 0.12591 0.97256 0.88527 0.0
C2856 C 0.12667 0.95396 0.89188 0.0
H2857 H 0.19303 0.15386 0.89694 0.0
H2858 H 0.19047 0.10782 0.89853 0.0
C2859 C 0.10891 0.92478 0.89086 0.0
C2860 C 0.14232 0.00344 0.88661 0.0
H2861 H 0.18443 0.06382 0.87449 0.0
C2862 C 0.13483 0.01513 0.89404 0.0
C2863 C 0.16164 0.02134 0.87977 0.0
C2864 C 0.17144 0.00993 0.87189 0.0
C2865 C 0.14402 0.0441 0.89431 0.0
C2866 C 0.16157 0.0617 0.88704 0.0
C2867 C 0.17093 0.05028 0.88004 0.0
C2868 C 0.16663 0.09067 0.88574 0.0
C2869 C 0.13295 0.05516 0.90193 0.0
C2870 C 0.15487 0.09646 0.8779 0.0
C2871 C 0.15659 0.12261 0.87696 0.0
C2872 C 0.17052 0.14355 0.88376 0.0
C2873 C 0.18263 0.13802 0.89155 0.0
C2874 C 0.18106 0.11181 0.89247 0.0
H2875 H 0.11635 0.03793 0.90623 0.0
H2876 H 0.15054 0.06922 0.90664 0.0
H2877 H 0.12406 0.06769 0.89885 0.0
H2878 H 0.14345 0.08035 0.87266 0.0
H2879 H 0.14633 0.1262 0.87106 0.0
H2880 H 0.06823 0.16017 0.87093 0.0
H2881 H 0.01789 0.14145 0.87319 0.0
H2882 H 0.03434 0.18599 0.89947 0.0
H2883 H 0.0853 0.2051 0.89721 0.0
H2884 H 0.99642 0.12748 0.90053 0.0
H2885 H 0.96504 0.17423 0.87202 0.0
H2886 H 0.98764 0.16165 0.8678 0.0
H2887 H 0.00099 0.19003 0.8762 0.0
C2888 C 0.06124 0.16642 0.87712 0.0
C2889 C 0.08064 0.18395 0.88393 0.0
C2890 C 0.03246 0.15595 0.87835 0.0
C2891 C 0.02244 0.16273 0.88642 0.0
C2892 C 0.04176 0.18087 0.89313 0.0
H2893 H 0.84402 0.04078 0.89955 0.0
H2894 H 0.88852 0.08596 0.90101 0.0
C2895 C 0.07077 0.19169 0.89185 0.0
C2896 C 0.99173 0.1475 0.88823 0.0
H2897 H 0.92944 0.12694 0.87702 0.0
C2898 C 0.98156 0.12792 0.8956 0.0
C2899 C 0.9725 0.14826 0.88179 0.0
C2900 C 0.98211 0.16992 0.87407 0.0
C2901 C 0.95297 0.10706 0.89611 0.0
C2902 C 0.93416 0.10627 0.88915 0.0
C2903 C 0.94393 0.12749 0.8823 0.0
C2904 C 0.90584 0.08123 0.88794 0.0
C2905 C 0.94367 0.0846 0.90357 0.0
C2906 C 0.90064 0.06416 0.88001 0.0
C2907 C 0.87536 0.03871 0.87915 0.0
C2908 C 0.85468 0.0302 0.88613 0.0
C2909 C 0.85963 0.04734 0.89402 0.0
C2910 C 0.88495 0.07297 0.89487 0.0
H2911 H 0.96172 0.0863 0.90767 0.0
H2912 H 0.92911 0.08666 0.9085 0.0
H2913 H 0.93213 0.06326 0.90038 0.0
H2914 H 0.9166 0.07003 0.87463 0.0
H2915 H 0.87228 0.02529 0.87316 0.0
H2916 H 0.79559 0.95423 0.60092 0.0
H2917 H 0.79736 0.91056 0.59883 0.0
H2918 H 0.82902 0.91863 0.62703 0.0
H2919 H 0.82734 0.96205 0.62906 0.0
H2920 H 0.84727 0.91166 0.59957 0.0
H2921 H 0.77578 0.83423 0.62567 0.0
H2922 H 0.77102 0.86244 0.62117 0.0
H2923 H 0.79579 0.86908 0.6305 0.0
C2924 C 0.80197 0.946 0.60675 0.0
C2925 C 0.8105 0.96084 0.61525 0.0
C2926 C 0.80294 0.92113 0.60556 0.0
C2927 C 0.81274 0.91098 0.61284 0.0
C2928 C 0.82043 0.92544 0.62143 0.0
H2929 H 0.9139 0.84492 0.62489 0.0
H2930 H 0.88205 0.86382 0.6235 0.0
C2931 C 0.81949 0.95026 0.6226 0.0
C2932 C 0.81976 0.88852 0.61104 0.0
H2933 H 0.81665 0.83064 0.62125 0.0
C2934 C 0.83989 0.8934 0.6041 0.0
C2935 C 0.81002 0.86465 0.61692 0.0
C2936 C 0.78673 0.85707 0.62393 0.0
C2937 C 0.85238 0.87647 0.60345 0.0
C2938 C 0.84444 0.85417 0.6099 0.0
C2939 C 0.8228 0.84795 0.61637 0.0
C2940 C 0.86144 0.84027 0.61097 0.0
C2941 C 0.87554 0.8838 0.59638 0.0
C2942 C 0.86003 0.82048 0.60442 0.0
C2943 C 0.87823 0.80951 0.60521 0.0
C2944 C 0.89815 0.81844 0.61251 0.0
C2945 C 0.89893 0.83776 0.61915 0.0
C2946 C 0.88066 0.84848 0.6184 0.0
H2947 H 0.87969 0.90228 0.59201 0.0
H2948 H 0.89534 0.88851 0.60004 0.0
H2949 H 0.86963 0.86547 0.5917 0.0
H2950 H 0.84525 0.81396 0.59864 0.0
H2951 H 0.87715 0.7946 0.6 0.0
H2952 H 0.16124 0.06533 0.6284 0.0
H2953 H 0.14148 0.0148 0.62621 0.0
H2954 H 0.18377 0.02989 0.59954 0.0
H2955 H 0.20381 0.08097 0.60171 0.0
H2956 H 0.12569 0.99352 0.59875 0.0
H2957 H 0.17131 0.95976 0.62693 0.0
H2958 H 0.15939 0.9827 0.63135 0.0
H2959 H 0.1877 0.99591 0.62292 0.0
C2960 C 0.16683 0.05799 0.62215 0.0
C2961 C 0.18391 0.07705 0.6152 0.0
C2962 C 0.15576 0.02909 0.62095 0.0
C2963 C 0.16153 0.01863 0.61279 0.0
C2964 C 0.17939 0.03763 0.60595 0.0
H2965 H 0.03758 0.84161 0.59869 0.0
H2966 H 0.08299 0.88598 0.59756 0.0
C2967 C 0.19076 0.06672 0.60719 0.0
C2968 C 0.14543 0.98792 0.61096 0.0
H2969 H 0.12375 0.925 0.6219 0.0
C2970 C 0.12579 0.97833 0.60361 0.0
C2971 C 0.14573 0.96825 0.61731 0.0
C2972 C 0.1674 0.97719 0.62501 0.0
C2973 C 0.10457 0.94991 0.603 0.0
C2974 C 0.10344 0.93064 0.60984 0.0
C2975 C 0.12457 0.93984 0.6167 0.0
C2976 C 0.07828 0.9023 0.61085 0.0
C2977 C 0.08216 0.94129 0.59554 0.0
C2978 C 0.06115 0.89655 0.6188 0.0
C2979 C 0.03558 0.87131 0.61947 0.0
C2980 C 0.02699 0.85124 0.61228 0.0
C2981 C 0.04419 0.85674 0.60437 0.0
C2982 C 0.06995 0.88199 0.60372 0.0
H2983 H 0.08395 0.95971 0.59165 0.0
H2984 H 0.08422 0.92715 0.59043 0.0
H2985 H 0.06078 0.92953 0.5987 0.0
H2986 H 0.06707 0.91206 0.62433 0.0
H2987 H 0.02213 0.86781 0.62548 0.0
H2988 H 0.1274 0.14281 0.62901 0.0
H2989 H 0.08077 0.13857 0.6282 0.0
H2990 H 0.10266 0.18214 0.60163 0.0
H2991 H 0.14927 0.18574 0.60236 0.0
H2992 H 0.06183 0.17666 0.62668 0.0
H2993 H 0.03321 0.10764 0.59514 0.0
H2994 H 0.06458 0.11721 0.60189 0.0
H2995 H 0.06355 0.14223 0.59398 0.0
C2996 C 0.12237 0.15196 0.6231 0.0
C2997 C 0.14188 0.16515 0.61585 0.0
C2998 C 0.09579 0.14948 0.62262 0.0
C2999 C 0.08818 0.15981 0.61481 0.0
C3000 C 0.10799 0.17368 0.60765 0.0
H3001 H 0.91013 0.10862 0.6044 0.0
H3002 H 0.96172 0.13775 0.60327 0.0
C3003 C 0.13455 0.17588 0.60809 0.0
C3004 C 0.05879 0.15399 0.61399 0.0
H3005 H 0.99759 0.11349 0.60195 0.0
C3006 C 0.04789 0.16328 0.62118 0.0
C3007 C 0.04063 0.13651 0.60679 0.0
C3008 C 0.05091 0.12509 0.59904 0.0
C3009 C 0.01905 0.15446 0.62162 0.0
C3010 C 0.00072 0.13574 0.61472 0.0
C3011 C 0.01183 0.12791 0.6072 0.0
C3012 C 0.96975 0.12088 0.61586 0.0
C3013 C 0.00825 0.16442 0.62962 0.0
C3014 C 0.95737 0.10178 0.62328 0.0
C3015 C 0.92812 0.08498 0.62388 0.0
C3016 C 0.9107 0.08701 0.61707 0.0
C3017 C 0.92307 0.10669 0.60976 0.0
C3018 C 0.95246 0.12334 0.60911 0.0
H3019 H 0.02515 0.18471 0.63255 0.0
H3020 H 0.99032 0.16714 0.62736 0.0
H3021 H 0.00072 0.14846 0.63531 0.0
H3022 H 0.97039 0.09916 0.62845 0.0
H3023 H 0.9192 0.07005 0.6296 0.0
H3024 H 0.69768 0.49895 0.46294 0.0
H3025 H 0.74134 0.49743 0.46143 0.0
H3026 H 0.75271 0.53115 0.43342 0.0
H3027 H 0.7088 0.53273 0.43498 0.0
H3028 H 0.75137 0.48108 0.43405 0.0
H3029 H 0.82591 0.55063 0.46118 0.0
H3030 H 0.79041 0.53059 0.46548 0.0
H3031 H 0.79854 0.55601 0.45625 0.0
C3032 C 0.71022 0.50727 0.45665 0.0
C3033 C 0.70051 0.51678 0.44919 0.0
C3034 C 0.73519 0.50642 0.45577 0.0
C3035 C 0.75065 0.51474 0.44738 0.0
C3036 C 0.74135 0.52507 0.44001 0.0
H3037 H 0.86839 0.45124 0.4357 0.0
H3038 H 0.84932 0.48336 0.43425 0.0
C3039 C 0.71635 0.52594 0.4409 0.0
C3040 C 0.77326 0.5078 0.44583 0.0
H3041 H 0.83001 0.51019 0.45666 0.0
C3042 C 0.76913 0.48814 0.4388 0.0
C3043 C 0.79648 0.51713 0.45198 0.0
C3044 C 0.80333 0.53999 0.4591 0.0
C3045 C 0.78612 0.47569 0.43831 0.0
C3046 C 0.8077 0.48318 0.44501 0.0
C3047 C 0.81323 0.50438 0.45159 0.0
C3048 C 0.82148 0.4661 0.44619 0.0
C3049 C 0.77958 0.45303 0.4311 0.0
C3050 C 0.8123 0.4462 0.45344 0.0
C3051 C 0.82285 0.42781 0.45423 0.0
C3052 C 0.84297 0.42913 0.44782 0.0
C3053 C 0.85287 0.44974 0.44073 0.0
C3054 C 0.84206 0.46807 0.43989 0.0
H3055 H 0.76165 0.44926 0.4265 0.0
H3056 H 0.79844 0.45921 0.42666 0.0
H3057 H 0.77437 0.43295 0.43466 0.0
H3058 H 0.79633 0.44438 0.45834 0.0
H3059 H 0.81494 0.4123 0.45981 0.0
H3060 H 0.47331 0.17854 0.43528 0.0
H3061 H 0.47608 0.22478 0.43439 0.0
H3062 H 0.52354 0.24957 0.46021 0.0
H3063 H 0.52038 0.20343 0.46114 0.0
H3064 H 0.4831 0.2668 0.45904 0.0
H3065 H 0.55006 0.29492 0.42698 0.0
H3066 H 0.51581 0.26379 0.42635 0.0
H3067 H 0.54218 0.26442 0.434 0.0
C3068 C 0.48386 0.19382 0.44082 0.0
C3069 C 0.49601 0.18745 0.4484 0.0
C3070 C 0.48556 0.22015 0.44029 0.0
C3071 C 0.5002 0.24062 0.4472 0.0
C3072 C 0.51198 0.234 0.45484 0.0
H3073 H 0.58878 0.4085 0.46223 0.0
H3074 H 0.55923 0.35747 0.4609 0.0
C3075 C 0.51011 0.20769 0.45539 0.0
C3076 C 0.50535 0.26974 0.44626 0.0
H3077 H 0.54514 0.33074 0.43406 0.0
C3078 C 0.49617 0.28065 0.45348 0.0
C3079 C 0.52236 0.28776 0.43897 0.0
C3080 C 0.53339 0.27732 0.43115 0.0
C3081 C 0.5048 0.30945 0.45387 0.0
C3082 C 0.52334 0.32775 0.44694 0.0
C3083 C 0.5309 0.31656 0.43936 0.0
C3084 C 0.53852 0.35872 0.44813 0.0
C3085 C 0.49486 0.32022 0.4619 0.0
C3086 C 0.53687 0.37636 0.44133 0.0
C3087 C 0.55386 0.4057 0.44206 0.0
C3088 C 0.57304 0.41768 0.44953 0.0
C3089 C 0.57424 0.39992 0.45639 0.0
C3090 C 0.55716 0.37074 0.45569 0.0
H3091 H 0.47426 0.30343 0.46467 0.0
H3092 H 0.51049 0.32702 0.46768 0.0
H3093 H 0.49273 0.33856 0.45973 0.0
H3094 H 0.52284 0.3674 0.43538 0.0
H3095 H 0.55256 0.41892 0.43666 0.0
H3096 H 0.82132 0.29182 0.43256 0.0
H3097 H 0.77727 0.24659 0.4304 0.0
H3098 H 0.74722 0.25797 0.4571 0.0
H3099 H 0.79108 0.30281 0.45925 0.0
H3100 H 0.73569 0.2014 0.45357 0.0
H3101 H 0.70366 0.24643 0.42411 0.0
H3102 H 0.73672 0.24701 0.42317 0.0
H3103 H 0.73258 0.26856 0.43178 0.0
C3104 C 0.80539 0.28424 0.43801 0.0
C3105 C 0.80966 0.30012 0.44619 0.0
C3106 C 0.78033 0.25858 0.43677 0.0
C3107 C 0.75904 0.24903 0.44359 0.0
C3108 C 0.76353 0.26485 0.4518 0.0
H3109 H 0.59693 0.16659 0.46022 0.0
H3110 H 0.64724 0.18535 0.45791 0.0
C3111 C 0.78854 0.29034 0.45305 0.0
C3112 C 0.73098 0.22396 0.442 0.0
H3113 H 0.66896 0.20414 0.43066 0.0
C3114 C 0.72125 0.20158 0.44841 0.0
C3115 C 0.71228 0.22413 0.43519 0.0
C3116 C 0.72162 0.24781 0.42817 0.0
C3117 C 0.69275 0.18052 0.44866 0.0
C3118 C 0.67356 0.18219 0.44243 0.0
C3119 C 0.68377 0.203 0.43544 0.0
C3120 C 0.64283 0.1666 0.4442 0.0
C3121 C 0.68315 0.15754 0.45593 0.0
C3122 C 0.62357 0.14984 0.43724 0.0
C3123 C 0.59457 0.139 0.43855 0.0
C3124 C 0.58466 0.14538 0.44676 0.0
C3125 C 0.60396 0.16142 0.45381 0.0
C3126 C 0.63273 0.1719 0.45254 0.0
H3127 H 0.70025 0.15293 0.45764 0.0
H3128 H 0.67763 0.16468 0.46247 0.0
H3129 H 0.66429 0.13781 0.45353 0.0
H3130 H 0.63105 0.14588 0.4307 0.0
H3131 H 0.5801 0.12675 0.433 0.0
H3132 H 0.77454 0.53162 0.72859 0.0
H3133 H 0.80347 0.50906 0.73047 0.0
H3134 H 0.76792 0.46172 0.70506 0.0
H3135 H 0.73918 0.48388 0.70315 0.0
H3136 H 0.78006 0.4494 0.73202 0.0
H3137 H 0.85316 0.49208 0.70193 0.0
H3138 H 0.83494 0.5093 0.70663 0.0
H3139 H 0.81729 0.48015 0.69863 0.0
C3140 C 0.77328 0.51671 0.72334 0.0
C3141 C 0.75456 0.50942 0.71574 0.0
C3142 C 0.78979 0.5039 0.72443 0.0
C3143 C 0.78814 0.48412 0.71782 0.0
C3144 C 0.76996 0.4774 0.71012 0.0
H3145 H 0.80383 0.34535 0.70535 0.0
H3146 H 0.80114 0.38861 0.70628 0.0
C3147 C 0.75335 0.4899 0.70909 0.0
C3148 C 0.80291 0.46803 0.71929 0.0
H3149 H 0.84282 0.44615 0.70759 0.0
C3150 C 0.7945 0.44918 0.72685 0.0
C3151 C 0.8217 0.4679 0.71253 0.0
C3152 C 0.83253 0.48867 0.70452 0.0
C3153 C 0.80239 0.42843 0.72738 0.0
C3154 C 0.81956 0.42701 0.72022 0.0
C3155 C 0.82963 0.44724 0.71304 0.0
C3156 C 0.82407 0.40261 0.71937 0.0
C3157 C 0.79051 0.4069 0.73516 0.0
C3158 C 0.83827 0.39643 0.72635 0.0
C3159 C 0.83974 0.37167 0.72581 0.0
C3160 C 0.82778 0.35333 0.71817 0.0
C3161 C 0.81398 0.35973 0.71115 0.0
C3162 C 0.81236 0.38432 0.7117 0.0
H3163 H 0.77399 0.40836 0.73924 0.0
H3164 H 0.78128 0.3852 0.73229 0.0
H3165 H 0.80774 0.41038 0.74004 0.0
H3166 H 0.84767 0.41043 0.73228 0.0
H3167 H 0.85006 0.36674 0.73138 0.0
H3168 H 0.53234 0.26833 0.71446 0.0
H3169 H 0.5501 0.3187 0.71635 0.0
H3170 H 0.4712 0.30129 0.7288 0.0
H3171 H 0.45309 0.25026 0.72702 0.0
H3172 H 0.49884 0.3452 0.71191 0.0
H3173 H 0.56568 0.36188 0.74319 0.0
H3174 H 0.56657 0.33851 0.7345 0.0
H3175 H 0.53428 0.32857 0.74065 0.0
C3176 C 0.51871 0.27509 0.71764 0.0
C3177 C 0.49133 0.25536 0.7206 0.0
C3178 C 0.52893 0.30387 0.71872 0.0
C3179 C 0.51196 0.31353 0.72274 0.0
C3180 C 0.48455 0.29406 0.72571 0.0
H3181 H 0.62045 0.49508 0.72954 0.0
H3182 H 0.57654 0.45032 0.73225 0.0
C3183 C 0.47433 0.26504 0.72472 0.0
C3184 C 0.52341 0.34421 0.72354 0.0
H3185 H 0.57947 0.40191 0.73318 0.0
C3186 C 0.51592 0.35776 0.71673 0.0
C3187 C 0.54534 0.3604 0.72992 0.0
C3188 C 0.55337 0.34667 0.73755 0.0
C3189 C 0.53168 0.38717 0.7156 0.0
C3190 C 0.55558 0.40306 0.72133 0.0
C3191 C 0.56125 0.38971 0.72873 0.0
C3192 C 0.57759 0.43215 0.71889 0.0
C3193 C 0.52344 0.40091 0.70805 0.0
C3194 C 0.59242 0.43688 0.71043 0.0
C3195 C 0.61746 0.46221 0.70893 0.0
C3196 C 0.62777 0.48339 0.71578 0.0
C3197 C 0.61241 0.47919 0.72408 0.0
C3198 C 0.58739 0.45375 0.72561 0.0
H3199 H 0.50064 0.38805 0.70632 0.0
H3200 H 0.52813 0.42229 0.71026 0.0
H3201 H 0.53564 0.40301 0.70159 0.0
H3202 H 0.58583 0.42019 0.70529 0.0
H3203 H 0.62965 0.46454 0.70267 0.0
H3204 H 0.74606 0.20763 0.73344 0.0
H3205 H 0.69531 0.17506 0.73583 0.0
H3206 H 0.67799 0.19801 0.70873 0.0
H3207 H 0.72809 0.23022 0.70633 0.0
H3208 H 0.6569 0.19406 0.73627 0.0
H3209 H 0.62539 0.11298 0.70883 0.0
H3210 H 0.66153 0.134 0.71276 0.0
H3211 H 0.64757 0.14739 0.70398 0.0
C3212 C 0.73139 0.20515 0.72792 0.0
C3213 C 0.74092 0.22155 0.71973 0.0
C3214 C 0.70249 0.18655 0.72929 0.0
C3215 C 0.68296 0.18375 0.72238 0.0
C3216 C 0.69271 0.19926 0.71405 0.0
H3217 H 0.54082 0.1805 0.70771 0.0
H3218 H 0.58307 0.17675 0.71009 0.0
C3219 C 0.72136 0.21795 0.71274 0.0
C3220 C 0.65226 0.16831 0.72424 0.0
H3221 H 0.59027 0.1269 0.71283 0.0
C3222 C 0.6421 0.17852 0.73138 0.0
C3223 C 0.63302 0.1479 0.7179 0.0
C3224 C 0.64248 0.13474 0.7105 0.0
C3225 C 0.61367 0.17144 0.73163 0.0
C3226 C 0.5951 0.15347 0.72462 0.0
C3227 C 0.60465 0.1409 0.71812 0.0
C3228 C 0.56789 0.15213 0.72282 0.0
C3229 C 0.60431 0.18535 0.7388 0.0
C3230 C 0.54529 0.13923 0.72914 0.0
C3231 C 0.52105 0.14127 0.72774 0.0
C3232 C 0.51904 0.1557 0.71991 0.0
C3233 C 0.54157 0.16838 0.71359 0.0
C3234 C 0.56568 0.16634 0.71497 0.0
H3235 H 0.62188 0.20014 0.74341 0.0
H3236 H 0.59536 0.19718 0.73524 0.0
H3237 H 0.58748 0.16895 0.74326 0.0
H3238 H 0.54671 0.12824 0.73525 0.0
H3239 H 0.50403 0.13187 0.7328 0.0
H3240 H 0.63711 0.17932 0.2034 0.0
H3241 H 0.59213 0.17849 0.2047 0.0
H3242 H 0.57384 0.13058 0.23033 0.0
H3243 H 0.61932 0.13181 0.22906 0.0
H3244 H 0.53523 0.13473 0.20621 0.0
H3245 H 0.5731 0.20213 0.23824 0.0
H3246 H 0.59665 0.19642 0.23092 0.0
H3247 H 0.5723 0.16889 0.23855 0.0
C3248 C 0.62313 0.16806 0.20918 0.0
C3249 C 0.63108 0.15502 0.21601 0.0
C3250 C 0.59754 0.16764 0.20994 0.0
C3251 C 0.57975 0.15457 0.21764 0.0
C3252 C 0.5874 0.14095 0.22439 0.0
H3253 H 0.45466 0.20744 0.22839 0.0
H3254 H 0.47428 0.17583 0.2298 0.0
C3255 C 0.61319 0.14156 0.22365 0.0
C3256 C 0.55468 0.15778 0.21886 0.0
H3257 H 0.53234 0.19658 0.23107 0.0
C3258 C 0.53416 0.14766 0.21177 0.0
C3259 C 0.55325 0.17451 0.22617 0.0
C3260 C 0.57501 0.18631 0.23389 0.0
C3261 C 0.51341 0.15551 0.21143 0.0
C3262 C 0.5135 0.17421 0.21828 0.0
C3263 C 0.53242 0.18228 0.22582 0.0
C3264 C 0.49807 0.18966 0.21688 0.0
C3265 C 0.49244 0.14487 0.20348 0.0
C3266 C 0.50498 0.2078 0.20916 0.0
C3267 C 0.49417 0.22597 0.2084 0.0
C3268 C 0.47621 0.22638 0.21535 0.0
C3269 C 0.46843 0.2075 0.22292 0.0
C3270 C 0.47953 0.18942 0.22373 0.0
H3271 H 0.48841 0.12392 0.20099 0.0
H3272 H 0.4721 0.14314 0.2056 0.0
H3273 H 0.5012 0.1598 0.19751 0.0
H3274 H 0.51981 0.20884 0.20392 0.0
H3275 H 0.50049 0.24022 0.20247 0.0
H3276 H 0.74859 0.26218 0.20407 0.0
H3277 H 0.77933 0.31276 0.20618 0.0
H3278 H 0.80787 0.2981 0.23265 0.0
H3279 H 0.77698 0.24691 0.23055 0.0
H3280 H 0.78604 0.33575 0.23316 0.0
H3281 H 0.86551 0.36576 0.20509 0.0
H3282 H 0.83036 0.34257 0.20093 0.0
H3283 H 0.84555 0.33016 0.20959 0.0
C3284 C 0.7617 0.26962 0.21029 0.0
C3285 C 0.76031 0.25064 0.21718 0.0
C3286 C 0.77949 0.29854 0.21143 0.0
C3287 C 0.7962 0.30911 0.21949 0.0
C3288 C 0.79537 0.29025 0.22632 0.0
H3289 H 0.85364 0.48776 0.23238 0.0
H3290 H 0.85288 0.44259 0.23396 0.0
C3291 C 0.77773 0.26111 0.22512 0.0
C3292 C 0.81149 0.3399 0.22112 0.0
H3293 H 0.85455 0.4018 0.2099 0.0
C3294 C 0.80172 0.3504 0.22828 0.0
C3295 C 0.83192 0.35882 0.21473 0.0
C3296 C 0.84416 0.34876 0.20721 0.0
C3297 C 0.80974 0.37908 0.22865 0.0
C3298 C 0.8285 0.39768 0.22178 0.0
C3299 C 0.84009 0.3875 0.21512 0.0
C3300 C 0.83284 0.42642 0.22053 0.0
C3301 C 0.7962 0.38871 0.23588 0.0
C3302 C 0.82276 0.43257 0.21234 0.0
C3303 C 0.82353 0.4583 0.2114 0.0
C3304 C 0.83481 0.47844 0.21857 0.0
C3305 C 0.84529 0.47256 0.22672 0.0
C3306 C 0.84474 0.44684 0.22763 0.0
H3307 H 0.77883 0.37073 0.23971 0.0
H3308 H 0.81231 0.40246 0.24108 0.0
H3309 H 0.7876 0.40114 0.23253 0.0
H3310 H 0.81329 0.41702 0.20681 0.0
H3311 H 0.81453 0.46213 0.2052 0.0
H3312 H 0.73263 0.49115 0.20326 0.0
H3313 H 0.68159 0.46986 0.20443 0.0
H3314 H 0.69082 0.51193 0.23085 0.0
H3315 H 0.74237 0.5336 0.22971 0.0
H3316 H 0.65538 0.4527 0.23122 0.0
H3317 H 0.62568 0.49898 0.20203 0.0
H3318 H 0.65012 0.48797 0.19843 0.0
H3319 H 0.66089 0.51586 0.20691 0.0
C3320 C 0.72389 0.49632 0.20925 0.0
C3321 C 0.74144 0.5139 0.21642 0.0
C3322 C 0.69471 0.48435 0.20986 0.0
C3323 C 0.68247 0.48967 0.21765 0.0
C3324 C 0.69994 0.50789 0.22472 0.0
H3325 H 0.504 0.36678 0.22993 0.0
H3326 H 0.54905 0.41136 0.23129 0.0
C3327 C 0.72931 0.52019 0.22406 0.0
C3328 C 0.65152 0.47302 0.21886 0.0
H3329 H 0.59016 0.45201 0.20695 0.0
C3330 C 0.6409 0.453 0.22609 0.0
C3331 C 0.63282 0.47353 0.21214 0.0
C3332 C 0.64294 0.49545 0.20449 0.0
C3333 C 0.61241 0.43182 0.2263 0.0
C3334 C 0.59403 0.43117 0.21919 0.0
C3335 C 0.60428 0.45249 0.21237 0.0
C3336 C 0.56535 0.4066 0.21801 0.0
C3337 C 0.6028 0.40908 0.23368 0.0
C3338 C 0.55925 0.38981 0.20995 0.0
C3339 C 0.53354 0.36476 0.20912 0.0
C3340 C 0.51338 0.35635 0.21628 0.0
C3341 C 0.51921 0.37326 0.22428 0.0
C3342 C 0.54488 0.39853 0.22507 0.0
H3343 H 0.62079 0.40998 0.23759 0.0
H3344 H 0.58903 0.41173 0.2388 0.0
H3345 H 0.59042 0.38783 0.23047 0.0
H3346 H 0.57482 0.39556 0.20445 0.0
H3347 H 0.52973 0.35151 0.20303 0.0
H3348 H 0.57524 0.1749 0.95929 0.0
H3349 H 0.54496 0.19541 0.95761 0.0
H3350 H 0.51459 0.15284 0.93112 0.0
H3351 H 0.54503 0.13187 0.93279 0.0
H3352 H 0.53742 0.21235 0.93073 0.0
H3353 H 0.45925 0.16413 0.95923 0.0
H3354 H 0.49446 0.17541 0.96318 0.0
H3355 H 0.4784 0.14787 0.95452 0.0
C3356 C 0.5618 0.16948 0.95317 0.0
C3357 C 0.56259 0.15192 0.94614 0.0
C3358 C 0.54427 0.181 0.95227 0.0
C3359 C 0.52721 0.17527 0.94431 0.0
C3360 C 0.52735 0.15717 0.93736 0.0
H3361 H 0.47224 0.29892 0.93233 0.0
H3362 H 0.47222 0.25416 0.9306 0.0
C3363 C 0.54473 0.14528 0.93832 0.0
C3364 C 0.51242 0.19136 0.94289 0.0
H3365 H 0.471 0.21149 0.95456 0.0
C3366 C 0.52218 0.21168 0.93574 0.0
C3367 C 0.49258 0.19034 0.94944 0.0
C3368 C 0.48034 0.16805 0.95697 0.0
C3369 C 0.51475 0.23279 0.93553 0.0
C3370 C 0.49659 0.23306 0.94255 0.0
C3371 C 0.485 0.21131 0.94922 0.0
C3372 C 0.49281 0.25778 0.94391 0.0
C3373 C 0.52829 0.25591 0.92829 0.0
C3374 C 0.50346 0.27402 0.95208 0.0
C3375 C 0.50313 0.29918 0.9531 0.0
C3376 C 0.49173 0.30826 0.94604 0.0
C3377 C 0.4807 0.29192 0.93791 0.0
C3378 C 0.48081 0.26654 0.93691 0.0
H3379 H 0.5453 0.25495 0.92435 0.0
H3380 H 0.51206 0.25383 0.92319 0.0
H3381 H 0.53736 0.27698 0.93166 0.0
H3382 H 0.51301 0.26774 0.95752 0.0
H3383 H 0.51254 0.31199 0.95928 0.0
H3384 H 0.82222 0.40293 0.95945 0.0
H3385 H 0.80196 0.35218 0.95767 0.0
H3386 H 0.84785 0.36523 0.93184 0.0
H3387 H 0.86848 0.41653 0.9336 0.0
H3388 H 0.78887 0.32809 0.9306 0.0
H3389 H 0.83376 0.2985 0.96022 0.0
H3390 H 0.82142 0.32188 0.96381 0.0
H3391 H 0.8502 0.33402 0.95561 0.0
C3392 C 0.82838 0.3951 0.95346 0.0
C3393 C 0.84682 0.41365 0.94664 0.0
C3394 C 0.81701 0.36608 0.9525 0.0
C3395 C 0.8238 0.35502 0.94471 0.0
C3396 C 0.84269 0.37346 0.93797 0.0
H3397 H 0.70275 0.17577 0.93226 0.0
H3398 H 0.74766 0.22057 0.9308 0.0
C3399 C 0.85437 0.40267 0.93897 0.0
C3400 C 0.80823 0.32417 0.9432 0.0
H3401 H 0.78712 0.26266 0.95498 0.0
C3402 C 0.78901 0.31354 0.93574 0.0
C3403 C 0.80862 0.3054 0.94991 0.0
C3404 C 0.82984 0.31553 0.95779 0.0
C3405 C 0.76823 0.28492 0.93534 0.0
C3406 C 0.76715 0.26653 0.94251 0.0
C3407 C 0.78793 0.27679 0.94951 0.0
C3408 C 0.74224 0.23812 0.94371 0.0
C3409 C 0.74617 0.27514 0.92771 0.0
C3410 C 0.7249 0.23295 0.95157 0.0
C3411 C 0.69965 0.2075 0.95243 0.0
C3412 C 0.69158 0.18663 0.94554 0.0
C3413 C 0.70897 0.19155 0.93772 0.0
C3414 C 0.73443 0.21704 0.93687 0.0
H3415 H 0.74781 0.29299 0.9235 0.0
H3416 H 0.74881 0.26067 0.92291 0.0
H3417 H 0.72465 0.26339 0.93077 0.0
H3418 H 0.73042 0.24903 0.95688 0.0
H3419 H 0.68604 0.2044 0.95837 0.0
H3420 H 0.79649 0.48659 0.95959 0.0
H3421 H 0.75172 0.4862 0.95838 0.0
H3422 H 0.77784 0.52941 0.93181 0.0
H3423 H 0.82264 0.52926 0.93296 0.0
H3424 H 0.73707 0.52799 0.95634 0.0
H3425 H 0.70561 0.45698 0.92521 0.0
H3426 H 0.73594 0.46445 0.93224 0.0
H3427 H 0.73752 0.49046 0.9242 0.0
C3428 C 0.79284 0.49652 0.9536 0.0
C3429 C 0.81303 0.50854 0.94647 0.0
C3430 C 0.76732 0.49625 0.9529 0.0
C3431 C 0.7614 0.50762 0.94498 0.0
C3432 C 0.78188 0.52026 0.93793 0.0
H3433 H 0.5835 0.4565 0.93465 0.0
H3434 H 0.63488 0.48701 0.93316 0.0
C3435 C 0.8074 0.52029 0.9386 0.0
C3436 C 0.73283 0.50383 0.94391 0.0
H3437 H 0.67103 0.46413 0.93211 0.0
C3438 C 0.72277 0.51455 0.95092 0.0
C3439 C 0.71423 0.48637 0.9368 0.0
C3440 C 0.72367 0.47369 0.92921 0.0
C3441 C 0.6942 0.50681 0.95136 0.0
C3442 C 0.67528 0.48771 0.94466 0.0
C3443 C 0.68569 0.47881 0.93722 0.0
C3444 C 0.64441 0.47292 0.9461 0.0
C3445 C 0.68428 0.51814 0.95922 0.0
C3446 C 0.63291 0.45504 0.95387 0.0
C3447 C 0.60383 0.43746 0.95467 0.0
C3448 C 0.58565 0.43746 0.94772 0.0
C3449 C 0.59706 0.45615 0.94012 0.0
C3450 C 0.62632 0.47359 0.93926 0.0
H3451 H 0.7015 0.53896 0.96168 0.0
H3452 H 0.66601 0.52036 0.95702 0.0
H3453 H 0.67765 0.50331 0.96523 0.0
H3454 H 0.64652 0.45372 0.95911 0.0
H3455 H 0.59565 0.42334 0.96062 0.0
H3456 H 0.3701 0.8595 0.76558 0.0
H3457 H 0.41387 0.85721 0.76508 0.0
H3458 H 0.3936 0.8162 0.79209 0.0
H3459 H 0.35046 0.8191 0.79265 0.0
H3460 H 0.45046 0.85532 0.79029 0.0
H3461 H 0.41041 0.78276 0.75957 0.0
H3462 H 0.41383 0.81691 0.75802 0.0
H3463 H 0.38823 0.79227 0.76612 0.0
C3464 C 0.37544 0.8505 0.77145 0.0
C3465 C 0.35753 0.84008 0.77925 0.0
C3466 C 0.40024 0.84905 0.77115 0.0
C3467 C 0.40681 0.83628 0.77851 0.0
C3468 C 0.38903 0.8263 0.78636 0.0
H3469 H 0.48644 0.74955 0.79554 0.0
H3470 H 0.46511 0.77914 0.7937 0.0
C3471 C 0.36448 0.82801 0.7867 0.0
C3472 C 0.43078 0.83102 0.77786 0.0
H3473 H 0.45177 0.78946 0.76668 0.0
C3474 C 0.4511 0.84138 0.78502 0.0
C3475 C 0.43158 0.81282 0.77096 0.0
C3476 C 0.40979 0.80033 0.76326 0.0
C3477 C 0.47129 0.83284 0.78575 0.0
C3478 C 0.47093 0.8133 0.7792 0.0
C3479 C 0.45194 0.80449 0.77167 0.0
C3480 C 0.48694 0.79849 0.78077 0.0
C3481 C 0.49216 0.84395 0.79372 0.0
C3482 C 0.50618 0.79946 0.77407 0.0
C3483 C 0.51846 0.78249 0.77511 0.0
C3484 C 0.51121 0.76397 0.78277 0.0
C3485 C 0.49239 0.76355 0.78955 0.0
C3486 C 0.48039 0.78066 0.78856 0.0
H3487 H 0.49578 0.86477 0.79619 0.0
H3488 H 0.48364 0.82899 0.79969 0.0
H3489 H 0.51269 0.84608 0.79163 0.0
H3490 H 0.51118 0.81286 0.76796 0.0
H3491 H 0.53285 0.78318 0.76977 0.0
H3492 H 0.24378 0.73804 0.79232 0.0
H3493 H 0.21257 0.6872 0.79103 0.0
H3494 H 0.17686 0.69889 0.76565 0.0
H3495 H 0.20827 0.75024 0.76688 0.0
H3496 H 0.15002 0.65303 0.78902 0.0
H3497 H 0.21159 0.64748 0.75872 0.0
H3498 H 0.226 0.67785 0.76635 0.0
H3499 H 0.19838 0.67172 0.75828 0.0
C3500 C 0.22914 0.7299 0.7865 0.0
C3501 C 0.22865 0.74807 0.77965 0.0
C3502 C 0.21122 0.70086 0.7858 0.0
C3503 C 0.19261 0.6894 0.77822 0.0
C3504 C 0.19124 0.70745 0.77152 0.0
H3505 H 0.13225 0.5105 0.76812 0.0
H3506 H 0.13124 0.55467 0.76642 0.0
C3507 C 0.20913 0.73669 0.77224 0.0
C3508 C 0.17652 0.65844 0.77714 0.0
H3509 H 0.18078 0.6052 0.76629 0.0
C3510 C 0.15618 0.64242 0.78392 0.0
C3511 C 0.18447 0.64477 0.77041 0.0
C3512 C 0.20635 0.66117 0.76302 0.0
C3513 C 0.14491 0.61314 0.78451 0.0
C3514 C 0.15475 0.59981 0.77831 0.0
C3515 C 0.17336 0.61552 0.77107 0.0
C3516 C 0.14963 0.57095 0.78003 0.0
C3517 C 0.12323 0.5968 0.79192 0.0
C3518 C 0.16003 0.56539 0.78828 0.0
C3519 C 0.16075 0.54038 0.78921 0.0
C3520 C 0.15068 0.52035 0.78199 0.0
C3521 C 0.13951 0.52546 0.77386 0.0
C3522 C 0.13888 0.55057 0.7729 0.0
H3523 H 0.11175 0.60783 0.7941 0.0
H3524 H 0.10773 0.57542 0.78933 0.0
H3525 H 0.13393 0.59455 0.79819 0.0
H3526 H 0.16933 0.5812 0.79374 0.0
H3527 H 0.1706 0.53739 0.79536 0.0
H3528 H 0.46539 0.63843 0.7964 0.0
H3529 H 0.42019 0.59489 0.79463 0.0
H3530 H 0.44374 0.58421 0.76672 0.0
H3531 H 0.48928 0.62791 0.76855 0.0
H3532 H 0.39476 0.58564 0.76723 0.0
H3533 H 0.38936 0.51018 0.79406 0.0
H3534 H 0.40424 0.54545 0.79853 0.0
H3535 H 0.42223 0.53802 0.78935 0.0
C3536 C 0.46141 0.62605 0.79007 0.0
C3537 C 0.48101 0.63588 0.78272 0.0
C3538 C 0.43559 0.60118 0.78905 0.0
C3539 C 0.4288 0.58595 0.78061 0.0
C3540 C 0.44875 0.59538 0.77334 0.0
H3541 H 0.24794 0.46872 0.76802 0.0
H3542 H 0.29925 0.48867 0.76648 0.0
C3543 C 0.47465 0.62027 0.77438 0.0
C3544 C 0.39934 0.56333 0.77892 0.0
H3545 H 0.34485 0.50585 0.78939 0.0
C3546 C 0.38397 0.56765 0.77188 0.0
C3547 C 0.38534 0.53981 0.78495 0.0
C3548 C 0.40119 0.53287 0.79209 0.0
C3549 C 0.35456 0.55053 0.77126 0.0
C3550 C 0.34034 0.52857 0.77783 0.0
C3551 C 0.35589 0.52289 0.78441 0.0
C3552 C 0.30942 0.51451 0.77893 0.0
C3553 C 0.33861 0.55733 0.76407 0.0
C3554 C 0.2984 0.52226 0.78648 0.0
C3555 C 0.2694 0.51119 0.78734 0.0
C3556 C 0.25081 0.49196 0.78069 0.0
C3557 C 0.26181 0.48356 0.77324 0.0
C3558 C 0.29101 0.49488 0.77234 0.0
H3559 H 0.35281 0.57594 0.75972 0.0
H3560 H 0.32674 0.53892 0.75937 0.0
H3561 H 0.32303 0.56157 0.76761 0.0
H3562 H 0.31236 0.53747 0.79161 0.0
H3563 H 0.2616 0.51794 0.79319 0.0
H3564 H 0.45621 0.87035 0.06532 0.0
H3565 H 0.48706 0.85001 0.06739 0.0
H3566 H 0.4595 0.80803 0.04068 0.0
H3567 H 0.4289 0.82801 0.0386 0.0
H3568 H 0.46511 0.79158 0.068 0.0
H3569 H 0.54448 0.838 0.03985 0.0
H3570 H 0.52494 0.85443 0.04405 0.0
H3571 H 0.50968 0.82656 0.03547 0.0
C3572 C 0.45728 0.85727 0.05982 0.0
C3573 C 0.44006 0.85057 0.05183 0.0
C3574 C 0.4749 0.84575 0.061 0.0
C3575 C 0.4759 0.82792 0.05412 0.0
C3576 C 0.45959 0.82227 0.04598 0.0
H3577 H 0.48427 0.6882 0.04019 0.0
H3578 H 0.486 0.73355 0.04182 0.0
C3579 C 0.44185 0.83346 0.04484 0.0
C3580 C 0.49048 0.81174 0.05583 0.0
H3581 H 0.53105 0.78991 0.04451 0.0
C3582 C 0.4803 0.79175 0.06308 0.0
C3583 C 0.51031 0.81213 0.0494 0.0
C3584 C 0.5232 0.83417 0.04182 0.0
C3585 C 0.48712 0.77023 0.06347 0.0
C3586 C 0.50501 0.76916 0.05651 0.0
C3587 C 0.5172 0.79068 0.04979 0.0
C3588 C 0.50752 0.7437 0.05521 0.0
C3589 C 0.47318 0.74746 0.0708 0.0
C3590 C 0.51947 0.73464 0.06212 0.0
C3591 C 0.5184 0.70867 0.06119 0.0
C3592 C 0.50613 0.69197 0.05321 0.0
C3593 C 0.49465 0.70127 0.04624 0.0
C3594 C 0.49557 0.72706 0.04719 0.0
H3595 H 0.45697 0.74948 0.07487 0.0
H3596 H 0.463 0.72626 0.06749 0.0
H3597 H 0.48939 0.74878 0.07577 0.0
H3598 H 0.52894 0.74729 0.06833 0.0
H3599 H 0.52692 0.70151 0.06671 0.0
H3600 H 0.13282 0.58042 0.06292 0.0
H3601 H 0.15512 0.63194 0.06441 0.0
H3602 H 0.2025 0.64228 0.03912 0.0
H3603 H 0.18057 0.59123 0.03759 0.0
H3604 H 0.21466 0.66826 0.0659 0.0
H3605 H 0.17169 0.69676 0.0354 0.0
H3606 H 0.15461 0.6616 0.04033 0.0
H3607 H 0.18385 0.67277 0.03239 0.0
C3608 C 0.1477 0.59373 0.05762 0.0
C3609 C 0.15505 0.58186 0.05016 0.0
C3610 C 0.16034 0.62307 0.05847 0.0
C3611 C 0.18004 0.64081 0.05178 0.0
C3612 C 0.18686 0.62892 0.04423 0.0
H3613 H 0.31756 0.79492 0.03865 0.0
H3614 H 0.27422 0.74917 0.03974 0.0
C3615 C 0.1745 0.59974 0.04342 0.0
C3616 C 0.19597 0.67173 0.05308 0.0
H3617 H 0.2172 0.73296 0.04111 0.0
C3618 C 0.21474 0.68262 0.06065 0.0
C3619 C 0.19589 0.69025 0.0462 0.0
C3620 C 0.17521 0.67977 0.03817 0.0
C3621 C 0.23523 0.71135 0.06109 0.0
C3622 C 0.23643 0.72958 0.05384 0.0
C3623 C 0.21626 0.71897 0.04664 0.0
C3624 C 0.26073 0.75849 0.05287 0.0
C3625 C 0.25677 0.72144 0.06888 0.0
C3626 C 0.26723 0.77905 0.05981 0.0
C3627 C 0.2921 0.80517 0.0592 0.0
C3628 C 0.31019 0.81123 0.0515 0.0
C3629 C 0.3034 0.7909 0.0445 0.0
C3630 C 0.27875 0.76481 0.04513 0.0
H3631 H 0.25559 0.70367 0.07302 0.0
H3632 H 0.27846 0.73409 0.06602 0.0
H3633 H 0.25301 0.7351 0.07372 0.0
H3634 H 0.25343 0.77468 0.06578 0.0
H3635 H 0.29733 0.82054 0.06474 0.0
H3636 H 0.39809 0.57962 0.04048 0.0
H3637 H 0.34736 0.54808 0.04202 0.0
H3638 H 0.36085 0.51019 0.06651 0.0
H3639 H 0.41212 0.54181 0.065 0.0
H3640 H 0.31469 0.48296 0.04393 0.0
H3641 H 0.30787 0.54479 0.07393 0.0
H3642 H 0.3372 0.56058 0.06586 0.0
H3643 H 0.33414 0.53407 0.07392 0.0
C3644 C 0.39037 0.56447 0.04617 0.0
C3645 C 0.40905 0.56332 0.05267 0.0
C3646 C 0.3614 0.54638 0.047 0.0
C3647 C 0.35051 0.52694 0.05438 0.0
C3648 C 0.369 0.52514 0.06078 0.0
H3649 H 0.17137 0.46416 0.06467 0.0
H3650 H 0.21603 0.4642 0.06658 0.0
C3651 C 0.39818 0.54317 0.0599 0.0
C3652 C 0.31963 0.51017 0.05555 0.0
H3653 H 0.26578 0.51364 0.06624 0.0
C3654 C 0.30385 0.48908 0.04896 0.0
C3655 C 0.30568 0.51807 0.06218 0.0
C3656 C 0.32191 0.54062 0.0694 0.0
C3657 C 0.27444 0.47695 0.04844 0.0
C3658 C 0.26076 0.48678 0.05449 0.0
C3659 C 0.27633 0.50621 0.06157 0.0
C3660 C 0.2316 0.48079 0.05273 0.0
C3661 C 0.25831 0.45431 0.04126 0.0
C3662 C 0.22545 0.48976 0.04428 0.0
C3663 C 0.20015 0.48983 0.04322 0.0
C3664 C 0.18042 0.48057 0.05053 0.0
C3665 C 0.1861 0.47077 0.05887 0.0
C3666 C 0.21149 0.47075 0.05996 0.0
H3667 H 0.26977 0.44307 0.03931 0.0
H3668 H 0.23712 0.43874 0.04398 0.0
H3669 H 0.2556 0.46407 0.03482 0.0
H3670 H 0.24102 0.49854 0.03874 0.0
H3671 H 0.19672 0.49865 0.03689 0.0
H3672 H 0.18052 0.58532 0.53825 0.0
H3673 H 0.20081 0.55498 0.54038 0.0
H3674 H 0.153 0.52174 0.56584 0.0
H3675 H 0.13226 0.55225 0.56373 0.0
H3676 H 0.21258 0.54295 0.56732 0.0
H3677 H 0.16657 0.46883 0.53762 0.0
H3678 H 0.17955 0.50477 0.53415 0.0
H3679 H 0.15066 0.48834 0.54231 0.0
C3680 C 0.17403 0.57137 0.54426 0.0
C3681 C 0.15487 0.57121 0.55085 0.0
C3682 C 0.18544 0.55383 0.54541 0.0
C3683 C 0.178 0.53578 0.55317 0.0
C3684 C 0.15867 0.53529 0.55974 0.0
H3685 H 0.29427 0.47187 0.56593 0.0
H3686 H 0.25029 0.47362 0.56723 0.0
C3687 C 0.14693 0.55272 0.55854 0.0
C3688 C 0.19292 0.51988 0.55472 0.0
H3689 H 0.21249 0.4781 0.54302 0.0
C3690 C 0.21203 0.52803 0.5622 0.0
C3691 C 0.192 0.50042 0.54802 0.0
C3692 C 0.17086 0.48985 0.54012 0.0
C3693 C 0.2322 0.51937 0.56264 0.0
C3694 C 0.23276 0.5017 0.5555 0.0
C3695 C 0.21208 0.49169 0.54846 0.0
C3696 C 0.25705 0.49715 0.55437 0.0
C3697 C 0.25419 0.53108 0.5703 0.0
C3698 C 0.27482 0.50903 0.54659 0.0
C3699 C 0.29956 0.5078 0.54582 0.0
C3700 C 0.30665 0.49422 0.55272 0.0
C3701 C 0.28879 0.482 0.56045 0.0
C3702 C 0.26386 0.4831 0.56122 0.0
H3703 H 0.25305 0.54757 0.5745 0.0
H3704 H 0.251 0.51376 0.57509 0.0
H3705 H 0.27571 0.54031 0.56726 0.0
H3706 H 0.27006 0.52018 0.54127 0.0
H3707 H 0.31358 0.51817 0.53996 0.0
H3708 H 0.42542 0.597 0.53999 0.0
H3709 H 0.45725 0.64743 0.54182 0.0
H3710 H 0.48567 0.63297 0.56835 0.0
H3711 H 0.45355 0.58185 0.56653 0.0
H3712 H 0.46581 0.67146 0.56895 0.0
H3713 H 0.54278 0.69959 0.54025 0.0
H3714 H 0.50749 0.67677 0.53616 0.0
H3715 H 0.52255 0.66405 0.54478 0.0
C3716 C 0.43874 0.60443 0.54615 0.0
C3717 C 0.4369 0.58555 0.55315 0.0
C3718 C 0.45719 0.63326 0.54714 0.0
C3719 C 0.47419 0.64388 0.55514 0.0
C3720 C 0.47299 0.62508 0.56206 0.0
H3721 H 0.53022 0.82364 0.56553 0.0
H3722 H 0.53204 0.77992 0.56771 0.0
C3723 C 0.45464 0.59599 0.56103 0.0
C3724 C 0.48994 0.67475 0.55663 0.0
H3725 H 0.53084 0.73565 0.54459 0.0
C3726 C 0.48086 0.68574 0.56385 0.0
C3727 C 0.50962 0.69324 0.54997 0.0
C3728 C 0.52139 0.68279 0.54241 0.0
C3729 C 0.48848 0.71434 0.56396 0.0
C3730 C 0.506 0.73228 0.55674 0.0
C3731 C 0.51726 0.7218 0.55007 0.0
C3732 C 0.50865 0.76015 0.55505 0.0
C3733 C 0.47567 0.72451 0.57127 0.0
C3734 C 0.49559 0.76367 0.54711 0.0
C3735 C 0.49473 0.78847 0.54586 0.0
C3736 C 0.5074 0.81036 0.55242 0.0
C3737 C 0.5208 0.8071 0.56031 0.0
C3738 C 0.52176 0.78223 0.56156 0.0
H3739 H 0.46 0.70704 0.57573 0.0
H3740 H 0.49259 0.74019 0.57587 0.0
H3741 H 0.46511 0.73504 0.56787 0.0
H3742 H 0.4851 0.74676 0.54206 0.0
H3743 H 0.48345 0.79025 0.53989 0.0
H3744 H 0.41424 0.86871 0.56382 0.0
H3745 H 0.36307 0.85012 0.56533 0.0
H3746 H 0.34819 0.79528 0.5417 0.0
H3747 H 0.39869 0.81339 0.54017 0.0
H3748 H 0.31738 0.82951 0.54257 0.0
H3749 H 0.30753 0.76391 0.57383 0.0
H3750 H 0.33465 0.80057 0.57334 0.0
H3751 H 0.33699 0.77543 0.5659 0.0
C3752 C 0.4 0.85282 0.55893 0.0
C3753 C 0.41041 0.84234 0.55192 0.0
C3754 C 0.37089 0.84228 0.5598 0.0
C3755 C 0.35204 0.82138 0.55362 0.0
C3756 C 0.36249 0.81149 0.5465 0.0
H3757 H 0.20024 0.69538 0.53594 0.0
H3758 H 0.24443 0.73987 0.53784 0.0
C3759 C 0.39136 0.82177 0.54568 0.0
C3760 C 0.32118 0.8082 0.55468 0.0
H3761 H 0.26614 0.75226 0.56551 0.0
C3762 C 0.30603 0.81313 0.54774 0.0
C3763 C 0.30655 0.7871 0.56149 0.0
C3764 C 0.32208 0.78124 0.5691 0.0
C3765 C 0.27664 0.79602 0.54702 0.0
C3766 C 0.26232 0.77309 0.55325 0.0
C3767 C 0.2772 0.76978 0.5607 0.0
C3768 C 0.23335 0.74979 0.55133 0.0
C3769 C 0.26124 0.80192 0.53941 0.0
C3770 C 0.21233 0.74063 0.55824 0.0
C3771 C 0.18693 0.71524 0.55709 0.0
C3772 C 0.1822 0.69883 0.54901 0.0
C3773 C 0.20291 0.70835 0.54202 0.0
C3774 C 0.22818 0.73375 0.54312 0.0
H3775 H 0.273 0.82441 0.53721 0.0
H3776 H 0.25899 0.78878 0.53319 0.0
H3777 H 0.23988 0.7967 0.54181 0.0
H3778 H 0.21611 0.75243 0.56469 0.0
H3779 H 0.17144 0.70785 0.56268 0.0
H3780 H 0.21824 0.46112 0.26939 0.0
H3781 H 0.18501 0.47873 0.26757 0.0
H3782 H 0.22286 0.53378 0.2913 0.0
H3783 H 0.25599 0.5166 0.29315 0.0
H3784 H 0.15785 0.49754 0.29015 0.0
H3785 H 0.2131 0.56437 0.25906 0.0
H3786 H 0.2051 0.52816 0.25954 0.0
H3787 H 0.23156 0.55386 0.26713 0.0
C3788 C 0.21937 0.47691 0.27422 0.0
C3789 C 0.23981 0.48762 0.28138 0.0
C3790 C 0.2004 0.48688 0.27318 0.0
C3791 C 0.20161 0.50749 0.27931 0.0
C3792 C 0.22162 0.51778 0.28653 0.0
H3793 H 0.1673 0.62862 0.29602 0.0
H3794 H 0.16952 0.5854 0.2944 0.0
C3795 C 0.24061 0.50803 0.28754 0.0
C3796 C 0.18304 0.51962 0.27814 0.0
H3797 H 0.18099 0.57358 0.26696 0.0
C3798 C 0.16232 0.51367 0.28494 0.0
C3799 C 0.18876 0.54035 0.27126 0.0
C3800 C 0.21083 0.54726 0.2638 0.0
C3801 C 0.14852 0.52941 0.28544 0.0
C3802 C 0.15622 0.55199 0.27912 0.0
C3803 C 0.1752 0.55631 0.27183 0.0
C3804 C 0.14885 0.57419 0.28086 0.0
C3805 C 0.12655 0.52247 0.2929 0.0
C3806 C 0.13629 0.58217 0.27383 0.0
C3807 C 0.13476 0.60681 0.27482 0.0
C3808 C 0.14566 0.62364 0.28286 0.0
C3809 C 0.15753 0.61524 0.28997 0.0
C3810 C 0.15886 0.59058 0.28903 0.0
H3811 H 0.11691 0.50012 0.29518 0.0
H3812 H 0.13657 0.53607 0.29911 0.0
H3813 H 0.10965 0.52633 0.2903 0.0
H3814 H 0.12892 0.57008 0.26741 0.0
H3815 H 0.12617 0.61337 0.26915 0.0
H3816 H 0.53612 0.75142 0.26922 0.0
H3817 H 0.51731 0.7003 0.26783 0.0
H3818 H 0.46655 0.68653 0.29251 0.0
H3819 H 0.48502 0.7372 0.29395 0.0
H3820 H 0.49827 0.65445 0.29087 0.0
H3821 H 0.43135 0.6464 0.26019 0.0
H3822 H 0.4684 0.67235 0.26014 0.0
H3823 H 0.4451 0.67628 0.26803 0.0
C3824 C 0.52115 0.73747 0.27439 0.0
C3825 C 0.51183 0.74824 0.28165 0.0
C3826 C 0.51046 0.70837 0.27358 0.0
C3827 C 0.49053 0.68981 0.28005 0.0
C3828 C 0.48199 0.70061 0.28747 0.0
H3829 H 0.36454 0.53526 0.29664 0.0
H3830 H 0.40856 0.58011 0.29514 0.0
C3831 C 0.49246 0.72955 0.28825 0.0
C3832 C 0.47681 0.65893 0.27892 0.0
H3833 H 0.42114 0.60444 0.26778 0.0
C3834 C 0.48184 0.6434 0.28569 0.0
C3835 C 0.45567 0.64469 0.27209 0.0
C3836 C 0.44958 0.66061 0.26468 0.0
C3837 C 0.46495 0.61395 0.28617 0.0
C3838 C 0.44214 0.59994 0.27987 0.0
C3839 C 0.4386 0.61527 0.27263 0.0
C3840 C 0.41919 0.57063 0.28151 0.0
C3841 C 0.47105 0.59811 0.29356 0.0
C3842 C 0.41059 0.55031 0.27438 0.0
C3843 C 0.38548 0.52454 0.27528 0.0
C3844 C 0.3688 0.51874 0.28335 0.0
C3845 C 0.37775 0.53877 0.29056 0.0
C3846 C 0.40287 0.5644 0.28969 0.0
H3847 H 0.49345 0.60999 0.29584 0.0
H3848 H 0.45762 0.59497 0.29979 0.0
H3849 H 0.4663 0.57712 0.2909 0.0
H3850 H 0.42262 0.55492 0.26795 0.0
H3851 H 0.37852 0.50957 0.26955 0.0
H3852 H 0.48292 0.8565 0.26642 0.0
H3853 H 0.43625 0.85215 0.26456 0.0
H3854 H 0.41511 0.82096 0.29288 0.0
H3855 H 0.46133 0.82483 0.29465 0.0
H3856 H 0.38795 0.79982 0.266 0.0
H3857 H 0.38217 0.87356 0.29126 0.0
H3858 H 0.41504 0.87878 0.28648 0.0
H3859 H 0.39831 0.85476 0.29611 0.0
C3860 C 0.46853 0.84959 0.27232 0.0
C3861 C 0.47589 0.84187 0.28078 0.0
C3862 C 0.44199 0.84715 0.27126 0.0
C3863 C 0.42244 0.8368 0.27864 0.0
C3864 C 0.43016 0.82987 0.28719 0.0
H3865 H 0.25694 0.72968 0.29096 0.0
H3866 H 0.30746 0.76043 0.28856 0.0
C3867 C 0.45658 0.83214 0.28822 0.0
C3868 C 0.3926 0.82874 0.27704 0.0
H3869 H 0.33792 0.83205 0.28725 0.0
C3870 C 0.37712 0.80751 0.27043 0.0
C3871 C 0.37853 0.83885 0.28279 0.0
C3872 C 0.3944 0.86297 0.2895 0.0
C3873 C 0.34762 0.79448 0.27001 0.0
C3874 C 0.33345 0.80294 0.27633 0.0
C3875 C 0.34899 0.82559 0.28244 0.0
C3876 C 0.30277 0.78548 0.27776 0.0
C3877 C 0.33152 0.77034 0.26329 0.0
C3878 C 0.28355 0.78963 0.27247 0.0
C3879 C 0.25447 0.772 0.27382 0.0
C3880 C 0.24443 0.75008 0.28047 0.0
C3881 C 0.26393 0.74632 0.28578 0.0
C3882 C 0.29281 0.76388 0.28444 0.0
H3883 H 0.34565 0.76821 0.25818 0.0
H3884 H 0.31995 0.75034 0.26731 0.0
H3885 H 0.31567 0.77339 0.25941 0.0
H3886 H 0.29103 0.80626 0.26728 0.0
H3887 H 0.23991 0.77538 0.26964 0.0
loop_
_geom_bond_atom_site_label_1
_geom_bond_atom_site_label_2
_geom_bond_distance
_geom_bond_site_symmetry_2
_ccdc_geom_bond_type
Mn0 O5 2.095 . S
Mn0 O15 2.162 . S
Mn0 O16 2.297 . S
Mn0 O24 2.385 . S
Mn0 O25 2.209 . S
Mn0 O26 2.094 . S
Mn1 O6 2.121 . S
Mn1 N8 2.256 1_545 S
Mn1 N17 2.282 1_545 S
Mn1 O25 2.215 . S
Mn1 O27 2.117 . S
C2 O24 1.234 . S
C2 O25 1.283 . S
C3 O15 1.281 . S
C3 O16 1.236 . S
C4 O26 1.240 . S
C4 O27 1.264 . S
O5 Mn0 2.095 . S
O5 C14 1.250 . S
O6 Mn1 2.121 . S
O6 C14 1.258 . S
C7 N8 1.325 1_545 S
C7 C11 1.460 1_545 S
C7 H13 0.929 . S
N8 Mn1 2.256 1_565 S
N8 C7 1.325 1_565 S
N8 C12 1.365 . S
C9 C10 1.258 . S
C9 C12 1.431 . S
C9 C29 1.449 . S
C10 C9 1.258 . S
C10 C11 1.477 . S
C10 H30 0.931 . S
C11 C7 1.460 1_565 S
C11 C10 1.477 . S
C11 H31 0.930 . S
C12 N8 1.365 . S
C12 C9 1.431 . S
C12 C22 1.476 . S
H13 C7 0.929 . S
C14 O5 1.250 . S
C14 O6 1.258 . S
O15 Mn0 2.162 . S
O15 C3 1.281 . S
O16 Mn0 2.297 . S
O16 C3 1.236 . S
N17 Mn1 2.282 1_565 S
N17 C18 1.328 . S
N17 C22 1.318 . S
C18 N17 1.328 . S
C18 C19 1.457 . S
C18 H23 0.929 . S
C19 C18 1.457 . S
C19 C20 1.291 . S
C19 H32 0.931 . S
C20 C19 1.291 . S
C20 C21 1.373 . S
C20 H33 0.929 . S
C21 C20 1.373 . S
C21 C22 1.396 . S
C21 C28 1.403 . S
C22 C12 1.476 . S
C22 N17 1.318 . S
C22 C21 1.396 . S
H23 C18 0.929 . S
O24 Mn0 2.385 . S
O24 C2 1.234 . S
O25 Mn0 2.209 . S
O25 Mn1 2.215 . S
O25 C2 1.283 . S
O26 Mn0 2.094 . S
O26 C4 1.240 . S
O27 Mn1 2.117 . S
O27 C4 1.264 . S
C28 C21 1.403 . S
C28 C29 1.399 . S
C28 H34 0.929 . S
C29 C9 1.449 . S
C29 C28 1.399 . S
C29 H35 0.930 . S
H30 C10 0.931 . S
H31 C11 0.930 . S
H32 C19 0.931 . S
H33 C20 0.929 . S
H34 C28 0.929 . S
H35 C29 0.930 . S
Mn36 O41 2.095 . S
Mn36 O51 2.162 . S
Mn36 O52 2.297 . S
Mn36 O60 2.385 . S
Mn36 O61 2.209 . S
Mn36 O62 2.094 . S
Mn37 O42 2.121 . S
Mn37 N44 2.256 1_655 S
Mn37 N53 2.282 1_655 S
Mn37 O61 2.215 . S
Mn37 O63 2.117 . S
C38 O60 1.234 . S
C38 O61 1.283 . S
C39 O51 1.281 . S
C39 O52 1.236 . S
C40 O62 1.240 . S
C40 O63 1.264 . S
O41 Mn36 2.095 . S
O41 C50 1.250 . S
O42 Mn37 2.121 . S
O42 C50 1.258 . S
C43 N44 1.326 1_655 S
C43 C47 1.460 1_655 S
C43 H49 0.929 . S
N44 Mn37 2.256 1_455 S
N44 C43 1.326 1_455 S
N44 C48 1.364 . S
C45 C46 1.258 . S
C45 C48 1.431 . S
C45 C65 1.449 . S
C46 C45 1.258 . S
C46 C47 1.477 . S
C46 H66 0.931 . S
C47 C43 1.460 1_455 S
C47 C46 1.477 . S
C47 H67 0.930 . S
C48 N44 1.364 . S
C48 C45 1.431 . S
C48 C58 1.476 . S
H49 C43 0.929 . S
C50 O41 1.250 . S
C50 O42 1.258 . S
O51 Mn36 2.162 . S
O51 C39 1.281 . S
O52 Mn36 2.297 . S
O52 C39 1.236 . S
N53 Mn37 2.282 1_455 S
N53 C54 1.328 . S
N53 C58 1.318 . S
C54 N53 1.328 . S
C54 C55 1.457 . S
C54 H59 0.929 . S
C55 C54 1.457 . S
C55 C56 1.291 . S
C55 H68 0.931 . S
C56 C55 1.291 . S
C56 C57 1.373 . S
C56 H69 0.929 . S
C57 C56 1.373 . S
C57 C58 1.396 . S
C57 C64 1.403 . S
C58 C48 1.476 . S
C58 N53 1.318 . S
C58 C57 1.396 . S
H59 C54 0.929 . S
O60 Mn36 2.385 . S
O60 C38 1.234 . S
O61 Mn36 2.209 . S
O61 Mn37 2.215 . S
O61 C38 1.283 . S
O62 Mn36 2.094 . S
O62 C40 1.240 . S
O63 Mn37 2.117 . S
O63 C40 1.264 . S
C64 C57 1.403 . S
C64 C65 1.399 . S
C64 H70 0.929 . S
C65 C45 1.449 . S
C65 C64 1.399 . S
C65 H71 0.930 . S
H66 C46 0.931 . S
H67 C47 0.930 . S
H68 C55 0.931 . S
H69 C56 0.929 . S
H70 C64 0.929 . S
H71 C65 0.930 . S
Mn72 O77 2.095 . S
Mn72 O87 2.162 . S
Mn72 O88 2.297 . S
Mn72 O96 2.385 . S
Mn72 O97 2.209 . S
Mn72 O98 2.094 . S
Mn73 O78 2.121 . S
Mn73 N80 2.257 . S
Mn73 N89 2.282 . S
Mn73 O97 2.215 . S
Mn73 O99 2.117 . S
C74 O96 1.234 . S
C74 O97 1.283 . S
C75 O87 1.281 . S
C75 O88 1.236 . S
C76 O98 1.240 . S
C76 O99 1.264 . S
O77 Mn72 2.095 . S
O77 C86 1.250 . S
O78 Mn73 2.121 . S
O78 C86 1.258 . S
C79 N80 1.326 . S
C79 C83 1.460 . S
C79 H85 0.929 . S
N80 Mn73 2.257 . S
N80 C79 1.326 . S
N80 C84 1.362 . S
C81 C82 1.258 . S
C81 C84 1.431 . S
C81 C101 1.449 . S
C82 C81 1.258 . S
C82 C83 1.477 . S
C82 H102 0.931 . S
C83 C79 1.460 . S
C83 C82 1.477 . S
C83 H103 0.930 . S
C84 N80 1.362 . S
C84 C81 1.431 . S
C84 C94 1.476 . S
H85 C79 0.929 . S
C86 O77 1.250 . S
C86 O78 1.258 . S
O87 Mn72 2.162 . S
O87 C75 1.281 . S
O88 Mn72 2.297 . S
O88 C75 1.236 . S
N89 Mn73 2.282 . S
N89 C90 1.328 . S
N89 C94 1.318 . S
C90 N89 1.328 . S
C90 C91 1.457 . S
C90 H95 0.929 . S
C91 C90 1.457 . S
C91 C92 1.291 . S
C91 H104 0.931 . S
C92 C91 1.291 . S
C92 C93 1.373 . S
C92 H105 0.929 . S
C93 C92 1.373 . S
C93 C94 1.396 . S
C93 C100 1.403 . S
C94 C84 1.476 . S
C94 N89 1.318 . S
C94 C93 1.396 . S
H95 C90 0.929 . S
O96 Mn72 2.385 . S
O96 C74 1.234 . S
O97 Mn72 2.209 . S
O97 Mn73 2.215 . S
O97 C74 1.283 . S
O98 Mn72 2.094 . S
O98 C76 1.240 . S
O99 Mn73 2.117 . S
O99 C76 1.264 . S
C100 C93 1.403 . S
C100 C101 1.399 . S
C100 H106 0.929 . S
C101 C81 1.449 . S
C101 C100 1.399 . S
C101 H107 0.930 . S
H102 C82 0.931 . S
H103 C83 0.930 . S
H104 C91 0.931 . S
H105 C92 0.929 . S
H106 C100 0.929 . S
H107 C101 0.930 . S
Mn108 O113 2.095 . S
Mn108 O123 2.162 . S
Mn108 O124 2.297 . S
Mn108 O132 2.385 . S
Mn108 O133 2.209 . S
Mn108 O134 2.094 . S
Mn109 O114 2.121 . S
Mn109 N116 2.256 1_455 S
Mn109 N125 2.282 1_455 S
Mn109 O133 2.215 . S
Mn109 O135 2.117 . S
C110 O132 1.234 . S
C110 O133 1.283 . S
C111 O123 1.281 . S
C111 O124 1.236 . S
C112 O134 1.240 . S
C112 O135 1.264 . S
O113 Mn108 2.095 . S
O113 C122 1.250 . S
O114 Mn109 2.121 . S
O114 C122 1.258 . S
C115 N116 1.326 1_455 S
C115 C119 1.460 1_455 S
C115 H121 0.929 . S
N116 Mn109 2.256 1_655 S
N116 C115 1.326 1_655 S
N116 C120 1.364 . S
C117 C118 1.258 . S
C117 C120 1.431 . S
C117 C137 1.449 . S
C118 C117 1.258 . S
C118 C119 1.477 . S
C118 H138 0.931 . S
C119 C115 1.460 1_655 S
C119 C118 1.477 . S
C119 H139 0.930 . S
C120 N116 1.364 . S
C120 C117 1.431 . S
C120 C130 1.476 . S
H121 C115 0.929 . S
C122 O113 1.250 . S
C122 O114 1.258 . S
O123 Mn108 2.162 . S
O123 C111 1.281 . S
O124 Mn108 2.297 . S
O124 C111 1.236 . S
N125 Mn109 2.282 1_655 S
N125 C126 1.328 . S
N125 C130 1.318 . S
C126 N125 1.328 . S
C126 C127 1.457 . S
C126 H131 0.929 . S
C127 C126 1.457 . S
C127 C128 1.291 . S
C127 H140 0.931 . S
C128 C127 1.291 . S
C128 C129 1.373 . S
C128 H141 0.929 . S
C129 C128 1.373 . S
C129 C130 1.396 . S
C129 C136 1.403 . S
C130 C120 1.476 . S
C130 N125 1.318 . S
C130 C129 1.396 . S
H131 C126 0.929 . S
O132 Mn108 2.385 . S
O132 C110 1.234 . S
O133 Mn108 2.209 . S
O133 Mn109 2.215 . S
O133 C110 1.283 . S
O134 Mn108 2.094 . S
O134 C112 1.240 . S
O135 Mn109 2.117 . S
O135 C112 1.264 . S
C136 C129 1.403 . S
C136 C137 1.399 . S
C136 H142 0.929 . S
C137 C117 1.449 . S
C137 C136 1.399 . S
C137 H143 0.930 . S
H138 C118 0.931 . S
H139 C119 0.930 . S
H140 C127 0.931 . S
H141 C128 0.929 . S
H142 C136 0.929 . S
H143 C137 0.930 . S
Mn144 O149 2.095 . S
Mn144 O159 2.162 . S
Mn144 O160 2.297 . S
Mn144 O168 2.385 . S
Mn144 O169 2.209 . S
Mn144 O170 2.094 . S
Mn145 O150 2.121 . S
Mn145 N152 2.257 . S
Mn145 N161 2.282 . S
Mn145 O169 2.215 . S
Mn145 O171 2.117 . S
C146 O168 1.234 . S
C146 O169 1.283 . S
C147 O159 1.281 . S
C147 O160 1.236 . S
C148 O170 1.240 . S
C148 O171 1.264 . S
O149 Mn144 2.095 . S
O149 C158 1.250 . S
O150 Mn145 2.121 . S
O150 C158 1.258 . S
C151 N152 1.326 . S
C151 C155 1.460 . S
C151 H157 0.929 . S
N152 Mn145 2.257 . S
N152 C151 1.326 . S
N152 C156 1.362 . S
C153 C154 1.258 . S
C153 C156 1.431 . S
C153 C173 1.449 . S
C154 C153 1.258 . S
C154 C155 1.477 . S
C154 H174 0.931 . S
C155 C151 1.460 . S
C155 C154 1.477 . S
C155 H175 0.930 . S
C156 N152 1.362 . S
C156 C153 1.431 . S
C156 C166 1.476 . S
H157 C151 0.929 . S
C158 O149 1.250 . S
C158 O150 1.258 . S
O159 Mn144 2.162 . S
O159 C147 1.281 . S
O160 Mn144 2.297 . S
O160 C147 1.236 . S
N161 Mn145 2.282 . S
N161 C162 1.328 . S
N161 C166 1.318 . S
C162 N161 1.328 . S
C162 C163 1.457 . S
C162 H167 0.929 . S
C163 C162 1.457 . S
C163 C164 1.291 . S
C163 H176 0.931 . S
C164 C163 1.291 . S
C164 C165 1.373 . S
C164 H177 0.929 . S
C165 C164 1.373 . S
C165 C166 1.396 . S
C165 C172 1.403 . S
C166 C156 1.476 . S
C166 N161 1.318 . S
C166 C165 1.396 . S
H167 C162 0.929 . S
O168 Mn144 2.385 . S
O168 C146 1.234 . S
O169 Mn144 2.209 . S
O169 Mn145 2.215 . S
O169 C146 1.283 . S
O170 Mn144 2.094 . S
O170 C148 1.240 . S
O171 Mn145 2.117 . S
O171 C148 1.264 . S
C172 C165 1.403 . S
C172 C173 1.399 . S
C172 H178 0.929 . S
C173 C153 1.449 . S
C173 C172 1.399 . S
C173 H179 0.930 . S
H174 C154 0.931 . S
H175 C155 0.930 . S
H176 C163 0.931 . S
H177 C164 0.929 . S
H178 C172 0.929 . S
H179 C173 0.930 . S
Mn180 O185 2.095 . S
Mn180 O195 2.162 . S
Mn180 O196 2.297 . S
Mn180 O204 2.385 . S
Mn180 O205 2.209 . S
Mn180 O206 2.094 . S
Mn181 O186 2.121 . S
Mn181 N188 2.255 1_565 S
Mn181 N197 2.282 1_565 S
Mn181 O205 2.215 . S
Mn181 O207 2.117 . S
C182 O204 1.234 . S
C182 O205 1.283 . S
C183 O195 1.281 . S
C183 O196 1.236 . S
C184 O206 1.240 . S
C184 O207 1.264 . S
O185 Mn180 2.095 . S
O185 C194 1.250 . S
O186 Mn181 2.121 . S
O186 C194 1.258 . S
C187 N188 1.326 1_565 S
C187 C191 1.460 1_565 S
C187 H193 0.929 . S
N188 Mn181 2.255 1_545 S
N188 C187 1.326 1_545 S
N188 C192 1.365 . S
C189 C190 1.258 . S
C189 C192 1.431 . S
C189 C209 1.449 . S
C190 C189 1.258 . S
C190 C191 1.477 . S
C190 H210 0.931 . S
C191 C187 1.460 1_545 S
C191 C190 1.477 . S
C191 H211 0.930 . S
C192 N188 1.365 . S
C192 C189 1.431 . S
C192 C202 1.476 . S
H193 C187 0.929 . S
C194 O185 1.250 . S
C194 O186 1.258 . S
O195 Mn180 2.162 . S
O195 C183 1.281 . S
O196 Mn180 2.297 . S
O196 C183 1.236 . S
N197 Mn181 2.282 1_545 S
N197 C198 1.328 . S
N197 C202 1.318 . S
C198 N197 1.328 . S
C198 C199 1.457 . S
C198 H203 0.929 . S
C199 C198 1.457 . S
C199 C200 1.291 . S
C199 H212 0.931 . S
C200 C199 1.291 . S
C200 C201 1.373 . S
C200 H213 0.929 . S
C201 C200 1.373 . S
C201 C202 1.396 . S
C201 C208 1.403 . S
C202 C192 1.476 . S
C202 N197 1.318 . S
C202 C201 1.396 . S
H203 C198 0.929 . S
O204 Mn180 2.385 . S
O204 C182 1.234 . S
O205 Mn180 2.209 . S
O205 Mn181 2.215 . S
O205 C182 1.283 . S
O206 Mn180 2.094 . S
O206 C184 1.240 . S
O207 Mn181 2.117 . S
O207 C184 1.264 . S
C208 C201 1.403 . S
C208 C209 1.399 . S
C208 H214 0.929 . S
C209 C189 1.449 . S
C209 C208 1.399 . S
C209 H215 0.930 . S
H210 C190 0.931 . S
H211 C191 0.930 . S
H212 C199 0.931 . S
H213 C200 0.929 . S
H214 C208 0.929 . S
H215 C209 0.930 . S
Mn216 O221 2.095 . S
Mn216 O231 2.162 . S
Mn216 O232 2.297 . S
Mn216 O240 2.385 . S
Mn216 O241 2.209 . S
Mn216 O242 2.094 . S
Mn217 O222 2.121 . S
Mn217 N224 2.256 1_565 S
Mn217 N233 2.282 1_565 S
Mn217 O241 2.215 . S
Mn217 O243 2.117 . S
C218 O240 1.234 . S
C218 O241 1.283 . S
C219 O231 1.281 . S
C219 O232 1.236 . S
C220 O242 1.240 . S
C220 O243 1.264 . S
O221 Mn216 2.095 . S
O221 C230 1.250 . S
O222 Mn217 2.121 . S
O222 C230 1.258 . S
C223 N224 1.325 1_565 S
C223 C227 1.460 1_565 S
C223 H229 0.929 . S
N224 Mn217 2.256 1_545 S
N224 C223 1.325 1_545 S
N224 C228 1.365 . S
C225 C226 1.258 . S
C225 C228 1.431 . S
C225 C245 1.449 . S
C226 C225 1.258 . S
C226 C227 1.477 . S
C226 H246 0.931 . S
C227 C223 1.460 1_545 S
C227 C226 1.477 . S
C227 H247 0.930 . S
C228 N224 1.365 . S
C228 C225 1.431 . S
C228 C238 1.476 . S
H229 C223 0.929 . S
C230 O221 1.250 . S
C230 O222 1.258 . S
O231 Mn216 2.162 . S
O231 C219 1.281 . S
O232 Mn216 2.297 . S
O232 C219 1.236 . S
N233 Mn217 2.282 1_545 S
N233 C234 1.328 . S
N233 C238 1.318 . S
C234 N233 1.328 . S
C234 C235 1.457 . S
C234 H239 0.929 . S
C235 C234 1.457 . S
C235 C236 1.291 . S
C235 H248 0.931 . S
C236 C235 1.291 . S
C236 C237 1.373 . S
C236 H249 0.929 . S
C237 C236 1.373 . S
C237 C238 1.396 . S
C237 C244 1.403 . S
C238 C228 1.476 . S
C238 N233 1.318 . S
C238 C237 1.396 . S
H239 C234 0.929 . S
O240 Mn216 2.385 . S
O240 C218 1.234 . S
O241 Mn216 2.209 . S
O241 Mn217 2.215 . S
O241 C218 1.283 . S
O242 Mn216 2.094 . S
O242 C220 1.240 . S
O243 Mn217 2.117 . S
O243 C220 1.264 . S
C244 C237 1.403 . S
C244 C245 1.399 . S
C244 H250 0.929 . S
C245 C225 1.449 . S
C245 C244 1.399 . S
C245 H251 0.930 . S
H246 C226 0.931 . S
H247 C227 0.930 . S
H248 C235 0.931 . S
H249 C236 0.929 . S
H250 C244 0.929 . S
H251 C245 0.930 . S
Mn252 O257 2.095 . S
Mn252 O267 2.162 . S
Mn252 O268 2.297 . S
Mn252 O276 2.385 . S
Mn252 O277 2.209 . S
Mn252 O278 2.094 . S
Mn253 O258 2.121 . S
Mn253 N260 2.256 1_455 S
Mn253 N269 2.282 1_455 S
Mn253 O277 2.215 . S
Mn253 O279 2.117 . S
C254 O276 1.234 . S
C254 O277 1.283 . S
C255 O267 1.281 . S
C255 O268 1.236 . S
C256 O278 1.240 . S
C256 O279 1.264 . S
O257 Mn252 2.095 . S
O257 C266 1.250 . S
O258 Mn253 2.121 . S
O258 C266 1.258 . S
C259 N260 1.326 1_455 S
C259 C263 1.460 1_455 S
C259 H265 0.929 . S
N260 Mn253 2.256 1_655 S
N260 C259 1.326 1_655 S
N260 C264 1.364 . S
C261 C262 1.258 . S
C261 C264 1.431 . S
C261 C281 1.449 . S
C262 C261 1.258 . S
C262 C263 1.477 . S
C262 H282 0.931 . S
C263 C259 1.460 1_655 S
C263 C262 1.477 . S
C263 H283 0.930 . S
C264 N260 1.364 . S
C264 C261 1.431 . S
C264 C274 1.476 . S
H265 C259 0.929 . S
C266 O257 1.250 . S
C266 O258 1.258 . S
O267 Mn252 2.162 . S
O267 C255 1.281 . S
O268 Mn252 2.297 . S
O268 C255 1.236 . S
N269 Mn253 2.282 1_655 S
N269 C270 1.328 . S
N269 C274 1.318 . S
C270 N269 1.328 . S
C270 C271 1.457 . S
C270 H275 0.929 . S
C271 C270 1.457 . S
C271 C272 1.291 . S
C271 H284 0.931 . S
C272 C271 1.291 . S
C272 C273 1.373 . S
C272 H285 0.929 . S
C273 C272 1.373 . S
C273 C274 1.396 . S
C273 C280 1.403 . S
C274 C264 1.476 . S
C274 N269 1.318 . S
C274 C273 1.396 . S
H275 C270 0.929 . S
O276 Mn252 2.385 . S
O276 C254 1.234 . S
O277 Mn252 2.209 . S
O277 Mn253 2.215 . S
O277 C254 1.283 . S
O278 Mn252 2.094 . S
O278 C256 1.240 . S
O279 Mn253 2.117 . S
O279 C256 1.264 . S
C280 C273 1.403 . S
C280 C281 1.399 . S
C280 H286 0.929 . S
C281 C261 1.449 . S
C281 C280 1.399 . S
C281 H287 0.930 . S
H282 C262 0.931 . S
H283 C263 0.930 . S
H284 C271 0.931 . S
H285 C272 0.929 . S
H286 C280 0.929 . S
H287 C281 0.930 . S
Mn288 O293 2.095 . S
Mn288 O303 2.162 . S
Mn288 O304 2.297 . S
Mn288 O312 2.385 . S
Mn288 O313 2.209 . S
Mn288 O314 2.094 . S
Mn289 O294 2.121 . S
Mn289 N296 2.257 . S
Mn289 N305 2.282 . S
Mn289 O313 2.215 . S
Mn289 O315 2.117 . S
C290 O312 1.234 . S
C290 O313 1.283 . S
C291 O303 1.281 . S
C291 O304 1.236 . S
C292 O314 1.240 . S
C292 O315 1.264 . S
O293 Mn288 2.095 . S
O293 C302 1.250 . S
O294 Mn289 2.121 . S
O294 C302 1.258 . S
C295 N296 1.326 . S
C295 C299 1.460 . S
C295 H301 0.929 . S
N296 Mn289 2.257 . S
N296 C295 1.326 . S
N296 C300 1.362 . S
C297 C298 1.258 . S
C297 C300 1.431 . S
C297 C317 1.449 . S
C298 C297 1.258 . S
C298 C299 1.477 . S
C298 H318 0.931 . S
C299 C295 1.460 . S
C299 C298 1.477 . S
C299 H319 0.930 . S
C300 N296 1.362 . S
C300 C297 1.431 . S
C300 C310 1.476 . S
H301 C295 0.929 . S
C302 O293 1.250 . S
C302 O294 1.258 . S
O303 Mn288 2.162 . S
O303 C291 1.281 . S
O304 Mn288 2.297 . S
O304 C291 1.236 . S
N305 Mn289 2.282 . S
N305 C306 1.328 . S
N305 C310 1.318 . S
C306 N305 1.328 . S
C306 C307 1.457 . S
C306 H311 0.929 . S
C307 C306 1.457 . S
C307 C308 1.291 . S
C307 H320 0.931 . S
C308 C307 1.291 . S
C308 C309 1.373 . S
C308 H321 0.929 . S
C309 C308 1.373 . S
C309 C310 1.396 . S
C309 C316 1.403 . S
C310 C300 1.476 . S
C310 N305 1.318 . S
C310 C309 1.396 . S
H311 C306 0.929 . S
O312 Mn288 2.385 . S
O312 C290 1.234 . S
O313 Mn288 2.209 . S
O313 Mn289 2.215 . S
O313 C290 1.283 . S
O314 Mn288 2.094 . S
O314 C292 1.240 . S
O315 Mn289 2.117 . S
O315 C292 1.264 . S
C316 C309 1.403 . S
C316 C317 1.399 . S
C316 H322 0.929 . S
C317 C297 1.449 . S
C317 C316 1.399 . S
C317 H323 0.930 . S
H318 C298 0.931 . S
H319 C299 0.930 . S
H320 C307 0.931 . S
H321 C308 0.929 . S
H322 C316 0.929 . S
H323 C317 0.930 . S
Mn324 O329 2.095 . S
Mn324 O339 2.162 . S
Mn324 O340 2.297 . S
Mn324 O348 2.385 . S
Mn324 O349 2.209 . S
Mn324 O350 2.094 . S
Mn325 O330 2.121 . S
Mn325 N332 2.256 1_655 S
Mn325 N341 2.282 1_655 S
Mn325 O349 2.215 . S
Mn325 O351 2.117 . S
C326 O348 1.234 . S
C326 O349 1.283 . S
C327 O339 1.281 . S
C327 O340 1.236 . S
C328 O350 1.240 . S
C328 O351 1.264 . S
O329 Mn324 2.095 . S
O329 C338 1.250 . S
O330 Mn325 2.121 . S
O330 C338 1.258 . S
C331 N332 1.326 1_655 S
C331 C335 1.460 1_655 S
C331 H337 0.929 . S
N332 Mn325 2.256 1_455 S
N332 C331 1.326 1_455 S
N332 C336 1.364 . S
C333 C334 1.258 . S
C333 C336 1.431 . S
C333 C353 1.449 . S
C334 C333 1.258 . S
C334 C335 1.477 . S
C334 H354 0.931 . S
C335 C331 1.460 1_455 S
C335 C334 1.477 . S
C335 H355 0.930 . S
C336 N332 1.364 . S
C336 C333 1.431 . S
C336 C346 1.476 . S
H337 C331 0.929 . S
C338 O329 1.250 . S
C338 O330 1.258 . S
O339 Mn324 2.162 . S
O339 C327 1.281 . S
O340 Mn324 2.297 . S
O340 C327 1.236 . S
N341 Mn325 2.282 1_455 S
N341 C342 1.328 . S
N341 C346 1.318 . S
C342 N341 1.328 . S
C342 C343 1.457 . S
C342 H347 0.929 . S
C343 C342 1.457 . S
C343 C344 1.291 . S
C343 H356 0.931 . S
C344 C343 1.291 . S
C344 C345 1.373 . S
C344 H357 0.929 . S
C345 C344 1.373 . S
C345 C346 1.396 . S
C345 C352 1.403 . S
C346 C336 1.476 . S
C346 N341 1.318 . S
C346 C345 1.396 . S
H347 C342 0.929 . S
O348 Mn324 2.385 . S
O348 C326 1.234 . S
O349 Mn324 2.209 . S
O349 Mn325 2.215 . S
O349 C326 1.283 . S
O350 Mn324 2.094 . S
O350 C328 1.240 . S
O351 Mn325 2.117 . S
O351 C328 1.264 . S
C352 C345 1.403 . S
C352 C353 1.399 . S
C352 H358 0.929 . S
C353 C333 1.449 . S
C353 C352 1.399 . S
C353 H359 0.930 . S
H354 C334 0.931 . S
H355 C335 0.930 . S
H356 C343 0.931 . S
H357 C344 0.929 . S
H358 C352 0.929 . S
H359 C353 0.930 . S
Mn360 O365 2.095 . S
Mn360 O375 2.162 . S
Mn360 O376 2.297 . S
Mn360 O384 2.385 . S
Mn360 O385 2.209 . S
Mn360 O386 2.094 . S
Mn361 O366 2.121 . S
Mn361 N368 2.257 . S
Mn361 N377 2.282 . S
Mn361 O385 2.215 . S
Mn361 O387 2.117 . S
C362 O384 1.234 . S
C362 O385 1.283 . S
C363 O375 1.281 . S
C363 O376 1.236 . S
C364 O386 1.240 . S
C364 O387 1.264 . S
O365 Mn360 2.095 . S
O365 C374 1.250 . S
O366 Mn361 2.121 . S
O366 C374 1.258 . S
C367 N368 1.326 . S
C367 C371 1.460 . S
C367 H373 0.929 . S
N368 Mn361 2.257 . S
N368 C367 1.326 . S
N368 C372 1.362 . S
C369 C370 1.258 . S
C369 C372 1.431 . S
C369 C389 1.449 . S
C370 C369 1.258 . S
C370 C371 1.477 . S
C370 H390 0.931 . S
C371 C367 1.460 . S
C371 C370 1.477 . S
C371 H391 0.930 . S
C372 N368 1.362 . S
C372 C369 1.431 . S
C372 C382 1.476 . S
H373 C367 0.929 . S
C374 O365 1.250 . S
C374 O366 1.258 . S
O375 Mn360 2.162 . S
O375 C363 1.281 . S
O376 Mn360 2.297 . S
O376 C363 1.236 . S
N377 Mn361 2.282 . S
N377 C378 1.328 . S
N377 C382 1.318 . S
C378 N377 1.328 . S
C378 C379 1.457 . S
C378 H383 0.929 . S
C379 C378 1.457 . S
C379 C380 1.291 . S
C379 H392 0.931 . S
C380 C379 1.291 . S
C380 C381 1.373 . S
C380 H393 0.929 . S
C381 C380 1.373 . S
C381 C382 1.396 . S
C381 C388 1.403 . S
C382 C372 1.476 . S
C382 N377 1.318 . S
C382 C381 1.396 . S
H383 C378 0.929 . S
O384 Mn360 2.385 . S
O384 C362 1.234 . S
O385 Mn360 2.209 . S
O385 Mn361 2.215 . S
O385 C362 1.283 . S
O386 Mn360 2.094 . S
O386 C364 1.240 . S
O387 Mn361 2.117 . S
O387 C364 1.264 . S
C388 C381 1.403 . S
C388 C389 1.399 . S
C388 H394 0.929 . S
C389 C369 1.449 . S
C389 C388 1.399 . S
C389 H395 0.930 . S
H390 C370 0.931 . S
H391 C371 0.930 . S
H392 C379 0.931 . S
H393 C380 0.929 . S
H394 C388 0.929 . S
H395 C389 0.930 . S
Mn396 O401 2.095 . S
Mn396 O411 2.162 . S
Mn396 O412 2.297 . S
Mn396 O420 2.385 . S
Mn396 O421 2.209 . S
Mn396 O422 2.094 . S
Mn397 O402 2.121 . S
Mn397 N404 2.255 1_545 S
Mn397 N413 2.282 1_545 S
Mn397 O421 2.215 . S
Mn397 O423 2.117 . S
C398 O420 1.234 . S
C398 O421 1.283 . S
C399 O411 1.281 . S
C399 O412 1.236 . S
C400 O422 1.240 . S
C400 O423 1.264 . S
O401 Mn396 2.095 . S
O401 C410 1.250 . S
O402 Mn397 2.121 . S
O402 C410 1.258 . S
C403 N404 1.326 1_545 S
C403 C407 1.460 1_545 S
C403 H409 0.929 . S
N404 Mn397 2.255 1_565 S
N404 C403 1.326 1_565 S
N404 C408 1.365 . S
C405 C406 1.258 . S
C405 C408 1.431 . S
C405 C425 1.449 . S
C406 C405 1.258 . S
C406 C407 1.477 . S
C406 H426 0.931 . S
C407 C403 1.460 1_565 S
C407 C406 1.477 . S
C407 H427 0.930 . S
C408 N404 1.365 . S
C408 C405 1.431 . S
C408 C418 1.476 . S
H409 C403 0.929 . S
C410 O401 1.250 . S
C410 O402 1.258 . S
O411 Mn396 2.162 . S
O411 C399 1.281 . S
O412 Mn396 2.297 . S
O412 C399 1.236 . S
N413 Mn397 2.282 1_565 S
N413 C414 1.328 . S
N413 C418 1.318 . S
C414 N413 1.328 . S
C414 C415 1.457 . S
C414 H419 0.929 . S
C415 C414 1.457 . S
C415 C416 1.291 . S
C415 H428 0.931 . S
C416 C415 1.291 . S
C416 C417 1.373 . S
C416 H429 0.929 . S
C417 C416 1.373 . S
C417 C418 1.396 . S
C417 C424 1.403 . S
C418 C408 1.476 . S
C418 N413 1.318 . S
C418 C417 1.396 . S
H419 C414 0.929 . S
O420 Mn396 2.385 . S
O420 C398 1.234 . S
O421 Mn396 2.209 . S
O421 Mn397 2.215 . S
O421 C398 1.283 . S
O422 Mn396 2.094 . S
O422 C400 1.240 . S
O423 Mn397 2.117 . S
O423 C400 1.264 . S
C424 C417 1.403 . S
C424 C425 1.399 . S
C424 H430 0.929 . S
C425 C405 1.449 . S
C425 C424 1.399 . S
C425 H431 0.930 . S
H426 C406 0.931 . S
H427 C407 0.930 . S
H428 C415 0.931 . S
H429 C416 0.929 . S
H430 C424 0.929 . S
H431 C425 0.930 . S
Mn432 O437 2.095 . S
Mn432 O447 2.162 . S
Mn432 O448 2.297 . S
Mn432 O456 2.385 . S
Mn432 O457 2.209 . S
Mn432 O458 2.094 . S
Mn433 O438 2.121 . S
Mn433 N440 2.257 . S
Mn433 N449 2.282 . S
Mn433 O457 2.215 . S
Mn433 O459 2.117 . S
C434 O456 1.234 . S
C434 O457 1.283 . S
C435 O447 1.281 . S
C435 O448 1.236 . S
C436 O458 1.240 . S
C436 O459 1.264 . S
O437 Mn432 2.095 . S
O437 C446 1.250 . S
O438 Mn433 2.121 . S
O438 C446 1.258 . S
C439 N440 1.326 . S
C439 C443 1.460 . S
C439 H445 0.929 . S
N440 Mn433 2.257 . S
N440 C439 1.326 . S
N440 C444 1.362 . S
C441 C442 1.258 . S
C441 C444 1.431 . S
C441 C461 1.449 . S
C442 C441 1.258 . S
C442 C443 1.477 . S
C442 H462 0.931 . S
C443 C439 1.460 . S
C443 C442 1.477 . S
C443 H463 0.930 . S
C444 N440 1.362 . S
C444 C441 1.431 . S
C444 C454 1.476 . S
H445 C439 0.929 . S
C446 O437 1.250 . S
C446 O438 1.258 . S
O447 Mn432 2.162 . S
O447 C435 1.281 . S
O448 Mn432 2.297 . S
O448 C435 1.236 . S
N449 Mn433 2.282 . S
N449 C450 1.328 . S
N449 C454 1.318 . S
C450 N449 1.328 . S
C450 C451 1.457 . S
C450 H455 0.929 . S
C451 C450 1.457 . S
C451 C452 1.291 . S
C451 H464 0.931 . S
C452 C451 1.291 . S
C452 C453 1.373 . S
C452 H465 0.929 . S
C453 C452 1.373 . S
C453 C454 1.396 . S
C453 C460 1.403 . S
C454 C444 1.476 . S
C454 N449 1.318 . S
C454 C453 1.396 . S
H455 C450 0.929 . S
O456 Mn432 2.385 . S
O456 C434 1.234 . S
O457 Mn432 2.209 . S
O457 Mn433 2.215 . S
O457 C434 1.283 . S
O458 Mn432 2.094 . S
O458 C436 1.240 . S
O459 Mn433 2.117 . S
O459 C436 1.264 . S
C460 C453 1.403 . S
C460 C461 1.399 . S
C460 H466 0.929 . S
C461 C441 1.449 . S
C461 C460 1.399 . S
C461 H467 0.930 . S
H462 C442 0.931 . S
H463 C443 0.930 . S
H464 C451 0.931 . S
H465 C452 0.929 . S
H466 C460 0.929 . S
H467 C461 0.930 . S
Mn468 O473 2.095 . S
Mn468 O483 2.162 . S
Mn468 O484 2.297 . S
Mn468 O492 2.385 . S
Mn468 O493 2.209 . S
Mn468 O494 2.094 . S
Mn469 O474 2.121 . S
Mn469 N476 2.257 . S
Mn469 N485 2.282 . S
Mn469 O493 2.215 . S
Mn469 O495 2.117 . S
C470 O492 1.234 . S
C470 O493 1.283 . S
C471 O483 1.281 . S
C471 O484 1.236 . S
C472 O494 1.240 . S
C472 O495 1.264 . S
O473 Mn468 2.095 . S
O473 C482 1.250 . S
O474 Mn469 2.121 . S
O474 C482 1.258 . S
C475 N476 1.326 . S
C475 C479 1.460 . S
C475 H481 0.929 . S
N476 Mn469 2.257 . S
N476 C475 1.326 . S
N476 C480 1.362 . S
C477 C478 1.258 . S
C477 C480 1.431 . S
C477 C497 1.449 . S
C478 C477 1.258 . S
C478 C479 1.477 . S
C478 H498 0.931 . S
C479 C475 1.460 . S
C479 C478 1.477 . S
C479 H499 0.930 . S
C480 N476 1.362 . S
C480 C477 1.431 . S
C480 C490 1.476 . S
H481 C475 0.929 . S
C482 O473 1.250 . S
C482 O474 1.258 . S
O483 Mn468 2.162 . S
O483 C471 1.281 . S
O484 Mn468 2.297 . S
O484 C471 1.236 . S
N485 Mn469 2.282 . S
N485 C486 1.328 . S
N485 C490 1.318 . S
C486 N485 1.328 . S
C486 C487 1.457 . S
C486 H491 0.929 . S
C487 C486 1.457 . S
C487 C488 1.291 . S
C487 H500 0.931 . S
C488 C487 1.291 . S
C488 C489 1.373 . S
C488 H501 0.929 . S
C489 C488 1.373 . S
C489 C490 1.396 . S
C489 C496 1.403 . S
C490 C480 1.476 . S
C490 N485 1.318 . S
C490 C489 1.396 . S
H491 C486 0.929 . S
O492 Mn468 2.385 . S
O492 C470 1.234 . S
O493 Mn468 2.209 . S
O493 Mn469 2.215 . S
O493 C470 1.283 . S
O494 Mn468 2.094 . S
O494 C472 1.240 . S
O495 Mn469 2.117 . S
O495 C472 1.264 . S
C496 C489 1.403 . S
C496 C497 1.399 . S
C496 H502 0.929 . S
C497 C477 1.449 . S
C497 C496 1.399 . S
C497 H503 0.930 . S
H498 C478 0.931 . S
H499 C479 0.930 . S
H500 C487 0.931 . S
H501 C488 0.929 . S
H502 C496 0.929 . S
H503 C497 0.930 . S
Mn504 O509 2.095 . S
Mn504 O519 2.162 . S
Mn504 O520 2.297 . S
Mn504 O528 2.385 . S
Mn504 O529 2.209 . S
Mn504 O530 2.094 . S
Mn505 O510 2.121 . S
Mn505 N512 2.257 . S
Mn505 N521 2.282 . S
Mn505 O529 2.215 . S
Mn505 O531 2.117 . S
C506 O528 1.234 . S
C506 O529 1.283 . S
C507 O519 1.281 . S
C507 O520 1.236 . S
C508 O530 1.240 . S
C508 O531 1.264 . S
O509 Mn504 2.095 . S
O509 C518 1.250 . S
O510 Mn505 2.121 . S
O510 C518 1.258 . S
C511 N512 1.326 . S
C511 C515 1.460 . S
C511 H517 0.929 . S
N512 Mn505 2.257 . S
N512 C511 1.326 . S
N512 C516 1.362 . S
C513 C514 1.258 . S
C513 C516 1.431 . S
C513 C533 1.449 . S
C514 C513 1.258 . S
C514 C515 1.477 . S
C514 H534 0.931 . S
C515 C511 1.460 . S
C515 C514 1.477 . S
C515 H535 0.930 . S
C516 N512 1.362 . S
C516 C513 1.431 . S
C516 C526 1.476 . S
H517 C511 0.929 . S
C518 O509 1.250 . S
C518 O510 1.258 . S
O519 Mn504 2.162 . S
O519 C507 1.281 . S
O520 Mn504 2.297 . S
O520 C507 1.236 . S
N521 Mn505 2.282 . S
N521 C522 1.328 . S
N521 C526 1.318 . S
C522 N521 1.328 . S
C522 C523 1.457 . S
C522 H527 0.929 . S
C523 C522 1.457 . S
C523 C524 1.291 . S
C523 H536 0.931 . S
C524 C523 1.291 . S
C524 C525 1.373 . S
C524 H537 0.929 . S
C525 C524 1.373 . S
C525 C526 1.396 . S
C525 C532 1.403 . S
C526 C516 1.476 . S
C526 N521 1.318 . S
C526 C525 1.396 . S
H527 C522 0.929 . S
O528 Mn504 2.385 . S
O528 C506 1.234 . S
O529 Mn504 2.209 . S
O529 Mn505 2.215 . S
O529 C506 1.283 . S
O530 Mn504 2.094 . S
O530 C508 1.240 . S
O531 Mn505 2.117 . S
O531 C508 1.264 . S
C532 C525 1.403 . S
C532 C533 1.399 . S
C532 H538 0.929 . S
C533 C513 1.449 . S
C533 C532 1.399 . S
C533 H539 0.930 . S
H534 C514 0.931 . S
H535 C515 0.930 . S
H536 C523 0.931 . S
H537 C524 0.929 . S
H538 C532 0.929 . S
H539 C533 0.930 . S
Mn540 O545 2.095 . S
Mn540 O555 2.162 . S
Mn540 O556 2.297 . S
Mn540 O564 2.385 . S
Mn540 O565 2.209 . S
Mn540 O566 2.094 . S
Mn541 O546 2.121 . S
Mn541 N548 2.257 . S
Mn541 N557 2.282 . S
Mn541 O565 2.215 . S
Mn541 O567 2.117 . S
C542 O564 1.234 . S
C542 O565 1.283 . S
C543 O555 1.281 . S
C543 O556 1.236 . S
C544 O566 1.240 . S
C544 O567 1.264 . S
O545 Mn540 2.095 . S
O545 C554 1.250 . S
O546 Mn541 2.121 . S
O546 C554 1.258 . S
C547 N548 1.326 . S
C547 C551 1.460 . S
C547 H553 0.929 . S
N548 Mn541 2.257 . S
N548 C547 1.326 . S
N548 C552 1.362 . S
C549 C550 1.258 . S
C549 C552 1.431 . S
C549 C569 1.449 . S
C550 C549 1.258 . S
C550 C551 1.477 . S
C550 H570 0.931 . S
C551 C547 1.460 . S
C551 C550 1.477 . S
C551 H571 0.930 . S
C552 N548 1.362 . S
C552 C549 1.431 . S
C552 C562 1.476 . S
H553 C547 0.929 . S
C554 O545 1.250 . S
C554 O546 1.258 . S
O555 Mn540 2.162 . S
O555 C543 1.281 . S
O556 Mn540 2.297 . S
O556 C543 1.236 . S
N557 Mn541 2.282 . S
N557 C558 1.328 . S
N557 C562 1.318 . S
C558 N557 1.328 . S
C558 C559 1.457 . S
C558 H563 0.929 . S
C559 C558 1.457 . S
C559 C560 1.291 . S
C559 H572 0.931 . S
C560 C559 1.291 . S
C560 C561 1.373 . S
C560 H573 0.929 . S
C561 C560 1.373 . S
C561 C562 1.396 . S
C561 C568 1.403 . S
C562 C552 1.476 . S
C562 N557 1.318 . S
C562 C561 1.396 . S
H563 C558 0.929 . S
O564 Mn540 2.385 . S
O564 C542 1.234 . S
O565 Mn540 2.209 . S
O565 Mn541 2.215 . S
O565 C542 1.283 . S
O566 Mn540 2.094 . S
O566 C544 1.240 . S
O567 Mn541 2.117 . S
O567 C544 1.264 . S
C568 C561 1.403 . S
C568 C569 1.399 . S
C568 H574 0.929 . S
C569 C549 1.449 . S
C569 C568 1.399 . S
C569 H575 0.930 . S
H570 C550 0.931 . S
H571 C551 0.930 . S
H572 C559 0.931 . S
H573 C560 0.929 . S
H574 C568 0.929 . S
H575 C569 0.930 . S
Mn576 O581 2.095 . S
Mn576 O591 2.162 . S
Mn576 O592 2.297 . S
Mn576 O600 2.385 . S
Mn576 O601 2.209 . S
Mn576 O602 2.094 . S
Mn577 O582 2.121 . S
Mn577 N584 2.257 . S
Mn577 N593 2.282 . S
Mn577 O601 2.215 . S
Mn577 O603 2.117 . S
C578 O600 1.234 . S
C578 O601 1.283 . S
C579 O591 1.281 . S
C579 O592 1.236 . S
C580 O602 1.240 . S
C580 O603 1.264 . S
O581 Mn576 2.095 . S
O581 C590 1.250 . S
O582 Mn577 2.121 . S
O582 C590 1.258 . S
C583 N584 1.326 . S
C583 C587 1.460 . S
C583 H589 0.929 . S
N584 Mn577 2.257 . S
N584 C583 1.326 . S
N584 C588 1.362 . S
C585 C586 1.258 . S
C585 C588 1.431 . S
C585 C605 1.449 . S
C586 C585 1.258 . S
C586 C587 1.477 . S
C586 H606 0.931 . S
C587 C583 1.460 . S
C587 C586 1.477 . S
C587 H607 0.930 . S
C588 N584 1.362 . S
C588 C585 1.431 . S
C588 C598 1.476 . S
H589 C583 0.929 . S
C590 O581 1.250 . S
C590 O582 1.258 . S
O591 Mn576 2.162 . S
O591 C579 1.281 . S
O592 Mn576 2.297 . S
O592 C579 1.236 . S
N593 Mn577 2.282 . S
N593 C594 1.328 . S
N593 C598 1.318 . S
C594 N593 1.328 . S
C594 C595 1.457 . S
C594 H599 0.929 . S
C595 C594 1.457 . S
C595 C596 1.291 . S
C595 H608 0.931 . S
C596 C595 1.291 . S
C596 C597 1.373 . S
C596 H609 0.929 . S
C597 C596 1.373 . S
C597 C598 1.396 . S
C597 C604 1.403 . S
C598 C588 1.476 . S
C598 N593 1.318 . S
C598 C597 1.396 . S
H599 C594 0.929 . S
O600 Mn576 2.385 . S
O600 C578 1.234 . S
O601 Mn576 2.209 . S
O601 Mn577 2.215 . S
O601 C578 1.283 . S
O602 Mn576 2.094 . S
O602 C580 1.240 . S
O603 Mn577 2.117 . S
O603 C580 1.264 . S
C604 C597 1.403 . S
C604 C605 1.399 . S
C604 H610 0.929 . S
C605 C585 1.449 . S
C605 C604 1.399 . S
C605 H611 0.930 . S
H606 C586 0.931 . S
H607 C587 0.930 . S
H608 C595 0.931 . S
H609 C596 0.929 . S
H610 C604 0.929 . S
H611 C605 0.930 . S
Mn612 O617 2.095 . S
Mn612 O627 2.162 . S
Mn612 O628 2.297 . S
Mn612 O636 2.385 . S
Mn612 O637 2.209 . S
Mn612 O638 2.094 . S
Mn613 O618 2.121 . S
Mn613 N620 2.257 . S
Mn613 N629 2.282 . S
Mn613 O637 2.215 . S
Mn613 O639 2.117 . S
C614 O636 1.234 . S
C614 O637 1.283 . S
C615 O627 1.281 . S
C615 O628 1.236 . S
C616 O638 1.240 . S
C616 O639 1.264 . S
O617 Mn612 2.095 . S
O617 C626 1.250 . S
O618 Mn613 2.121 . S
O618 C626 1.258 . S
C619 N620 1.326 . S
C619 C623 1.460 . S
C619 H625 0.929 . S
N620 Mn613 2.257 . S
N620 C619 1.326 . S
N620 C624 1.362 . S
C621 C622 1.258 . S
C621 C624 1.431 . S
C621 C641 1.449 . S
C622 C621 1.258 . S
C622 C623 1.477 . S
C622 H642 0.931 . S
C623 C619 1.460 . S
C623 C622 1.477 . S
C623 H643 0.930 . S
C624 N620 1.362 . S
C624 C621 1.431 . S
C624 C634 1.476 . S
H625 C619 0.929 . S
C626 O617 1.250 . S
C626 O618 1.258 . S
O627 Mn612 2.162 . S
O627 C615 1.281 . S
O628 Mn612 2.297 . S
O628 C615 1.236 . S
N629 Mn613 2.282 . S
N629 C630 1.328 . S
N629 C634 1.318 . S
C630 N629 1.328 . S
C630 C631 1.457 . S
C630 H635 0.929 . S
C631 C630 1.457 . S
C631 C632 1.291 . S
C631 H644 0.931 . S
C632 C631 1.291 . S
C632 C633 1.373 . S
C632 H645 0.929 . S
C633 C632 1.373 . S
C633 C634 1.396 . S
C633 C640 1.403 . S
C634 C624 1.476 . S
C634 N629 1.318 . S
C634 C633 1.396 . S
H635 C630 0.929 . S
O636 Mn612 2.385 . S
O636 C614 1.234 . S
O637 Mn612 2.209 . S
O637 Mn613 2.215 . S
O637 C614 1.283 . S
O638 Mn612 2.094 . S
O638 C616 1.240 . S
O639 Mn613 2.117 . S
O639 C616 1.264 . S
C640 C633 1.403 . S
C640 C641 1.399 . S
C640 H646 0.929 . S
C641 C621 1.449 . S
C641 C640 1.399 . S
C641 H647 0.930 . S
H642 C622 0.931 . S
H643 C623 0.930 . S
H644 C631 0.931 . S
H645 C632 0.929 . S
H646 C640 0.929 . S
H647 C641 0.930 . S
Mn648 O653 2.095 . S
Mn648 O663 2.162 . S
Mn648 O664 2.297 . S
Mn648 O672 2.385 . S
Mn648 O673 2.209 . S
Mn648 O674 2.094 . S
Mn649 O654 2.121 . S
Mn649 N656 2.257 . S
Mn649 N665 2.282 . S
Mn649 O673 2.215 . S
Mn649 O675 2.117 . S
C650 O672 1.234 . S
C650 O673 1.283 . S
C651 O663 1.281 . S
C651 O664 1.236 . S
C652 O674 1.240 . S
C652 O675 1.264 . S
O653 Mn648 2.095 . S
O653 C662 1.250 . S
O654 Mn649 2.121 . S
O654 C662 1.258 . S
C655 N656 1.326 . S
C655 C659 1.460 . S
C655 H661 0.929 . S
N656 Mn649 2.257 . S
N656 C655 1.326 . S
N656 C660 1.362 . S
C657 C658 1.258 . S
C657 C660 1.431 . S
C657 C677 1.449 . S
C658 C657 1.258 . S
C658 C659 1.477 . S
C658 H678 0.931 . S
C659 C655 1.460 . S
C659 C658 1.477 . S
C659 H679 0.930 . S
C660 N656 1.362 . S
C660 C657 1.431 . S
C660 C670 1.476 . S
H661 C655 0.929 . S
C662 O653 1.250 . S
C662 O654 1.258 . S
O663 Mn648 2.162 . S
O663 C651 1.281 . S
O664 Mn648 2.297 . S
O664 C651 1.236 . S
N665 Mn649 2.282 . S
N665 C666 1.328 . S
N665 C670 1.318 . S
C666 N665 1.328 . S
C666 C667 1.457 . S
C666 H671 0.929 . S
C667 C666 1.457 . S
C667 C668 1.291 . S
C667 H680 0.931 . S
C668 C667 1.291 . S
C668 C669 1.373 . S
C668 H681 0.929 . S
C669 C668 1.373 . S
C669 C670 1.396 . S
C669 C676 1.403 . S
C670 C660 1.476 . S
C670 N665 1.318 . S
C670 C669 1.396 . S
H671 C666 0.929 . S
O672 Mn648 2.385 . S
O672 C650 1.234 . S
O673 Mn648 2.209 . S
O673 Mn649 2.215 . S
O673 C650 1.283 . S
O674 Mn648 2.094 . S
O674 C652 1.240 . S
O675 Mn649 2.117 . S
O675 C652 1.264 . S
C676 C669 1.403 . S
C676 C677 1.399 . S
C676 H682 0.929 . S
C677 C657 1.449 . S
C677 C676 1.399 . S
C677 H683 0.930 . S
H678 C658 0.931 . S
H679 C659 0.930 . S
H680 C667 0.931 . S
H681 C668 0.929 . S
H682 C676 0.929 . S
H683 C677 0.930 . S
Mn684 O689 2.095 . S
Mn684 O699 2.162 . S
Mn684 O700 2.297 . S
Mn684 O708 2.385 . S
Mn684 O709 2.209 . S
Mn684 O710 2.094 . S
Mn685 O690 2.121 . S
Mn685 N692 2.257 . S
Mn685 N701 2.282 . S
Mn685 O709 2.215 . S
Mn685 O711 2.117 . S
C686 O708 1.234 . S
C686 O709 1.283 . S
C687 O699 1.281 . S
C687 O700 1.236 . S
C688 O710 1.240 . S
C688 O711 1.264 . S
O689 Mn684 2.095 . S
O689 C698 1.250 . S
O690 Mn685 2.121 . S
O690 C698 1.258 . S
C691 N692 1.326 . S
C691 C695 1.460 . S
C691 H697 0.929 . S
N692 Mn685 2.257 . S
N692 C691 1.326 . S
N692 C696 1.362 . S
C693 C694 1.258 . S
C693 C696 1.431 . S
C693 C713 1.449 . S
C694 C693 1.258 . S
C694 C695 1.477 . S
C694 H714 0.931 . S
C695 C691 1.460 . S
C695 C694 1.477 . S
C695 H715 0.930 . S
C696 N692 1.362 . S
C696 C693 1.431 . S
C696 C706 1.476 . S
H697 C691 0.929 . S
C698 O689 1.250 . S
C698 O690 1.258 . S
O699 Mn684 2.162 . S
O699 C687 1.281 . S
O700 Mn684 2.297 . S
O700 C687 1.236 . S
N701 Mn685 2.282 . S
N701 C702 1.328 . S
N701 C706 1.318 . S
C702 N701 1.328 . S
C702 C703 1.457 . S
C702 H707 0.929 . S
C703 C702 1.457 . S
C703 C704 1.291 . S
C703 H716 0.931 . S
C704 C703 1.291 . S
C704 C705 1.373 . S
C704 H717 0.929 . S
C705 C704 1.373 . S
C705 C706 1.396 . S
C705 C712 1.403 . S
C706 C696 1.476 . S
C706 N701 1.318 . S
C706 C705 1.396 . S
H707 C702 0.929 . S
O708 Mn684 2.385 . S
O708 C686 1.234 . S
O709 Mn684 2.209 . S
O709 Mn685 2.215 . S
O709 C686 1.283 . S
O710 Mn684 2.094 . S
O710 C688 1.240 . S
O711 Mn685 2.117 . S
O711 C688 1.264 . S
C712 C705 1.403 . S
C712 C713 1.399 . S
C712 H718 0.929 . S
C713 C693 1.449 . S
C713 C712 1.399 . S
C713 H719 0.930 . S
H714 C694 0.931 . S
H715 C695 0.930 . S
H716 C703 0.931 . S
H717 C704 0.929 . S
H718 C712 0.929 . S
H719 C713 0.930 . S
Mn720 O725 2.095 . S
Mn720 O735 2.162 . S
Mn720 O736 2.297 . S
Mn720 O744 2.385 . S
Mn720 O745 2.209 . S
Mn720 O746 2.094 . S
Mn721 O726 2.121 . S
Mn721 N728 2.257 . S
Mn721 N737 2.282 . S
Mn721 O745 2.215 . S
Mn721 O747 2.117 . S
C722 O744 1.234 . S
C722 O745 1.283 . S
C723 O735 1.281 . S
C723 O736 1.236 . S
C724 O746 1.240 . S
C724 O747 1.264 . S
O725 Mn720 2.095 . S
O725 C734 1.250 . S
O726 Mn721 2.121 . S
O726 C734 1.258 . S
C727 N728 1.326 . S
C727 C731 1.460 . S
C727 H733 0.929 . S
N728 Mn721 2.257 . S
N728 C727 1.326 . S
N728 C732 1.362 . S
C729 C730 1.258 . S
C729 C732 1.431 . S
C729 C749 1.449 . S
C730 C729 1.258 . S
C730 C731 1.477 . S
C730 H750 0.931 . S
C731 C727 1.460 . S
C731 C730 1.477 . S
C731 H751 0.930 . S
C732 N728 1.362 . S
C732 C729 1.431 . S
C732 C742 1.476 . S
H733 C727 0.929 . S
C734 O725 1.250 . S
C734 O726 1.258 . S
O735 Mn720 2.162 . S
O735 C723 1.281 . S
O736 Mn720 2.297 . S
O736 C723 1.236 . S
N737 Mn721 2.282 . S
N737 C738 1.328 . S
N737 C742 1.318 . S
C738 N737 1.328 . S
C738 C739 1.457 . S
C738 H743 0.929 . S
C739 C738 1.457 . S
C739 C740 1.291 . S
C739 H752 0.931 . S
C740 C739 1.291 . S
C740 C741 1.373 . S
C740 H753 0.929 . S
C741 C740 1.373 . S
C741 C742 1.396 . S
C741 C748 1.403 . S
C742 C732 1.476 . S
C742 N737 1.318 . S
C742 C741 1.396 . S
H743 C738 0.929 . S
O744 Mn720 2.385 . S
O744 C722 1.234 . S
O745 Mn720 2.209 . S
O745 Mn721 2.215 . S
O745 C722 1.283 . S
O746 Mn720 2.094 . S
O746 C724 1.240 . S
O747 Mn721 2.117 . S
O747 C724 1.264 . S
C748 C741 1.403 . S
C748 C749 1.399 . S
C748 H754 0.929 . S
C749 C729 1.449 . S
C749 C748 1.399 . S
C749 H755 0.930 . S
H750 C730 0.931 . S
H751 C731 0.930 . S
H752 C739 0.931 . S
H753 C740 0.929 . S
H754 C748 0.929 . S
H755 C749 0.930 . S
Mn756 O761 2.095 . S
Mn756 O771 2.162 . S
Mn756 O772 2.297 . S
Mn756 O780 2.385 . S
Mn756 O781 2.209 . S
Mn756 O782 2.094 . S
Mn757 O762 2.121 . S
Mn757 N764 2.257 . S
Mn757 N773 2.282 . S
Mn757 O781 2.215 . S
Mn757 O783 2.117 . S
C758 O780 1.234 . S
C758 O781 1.283 . S
C759 O771 1.281 . S
C759 O772 1.236 . S
C760 O782 1.240 . S
C760 O783 1.264 . S
O761 Mn756 2.095 . S
O761 C770 1.250 . S
O762 Mn757 2.121 . S
O762 C770 1.258 . S
C763 N764 1.326 . S
C763 C767 1.460 . S
C763 H769 0.929 . S
N764 Mn757 2.257 . S
N764 C763 1.326 . S
N764 C768 1.362 . S
C765 C766 1.258 . S
C765 C768 1.431 . S
C765 C785 1.449 . S
C766 C765 1.258 . S
C766 C767 1.477 . S
C766 H786 0.931 . S
C767 C763 1.460 . S
C767 C766 1.477 . S
C767 H787 0.930 . S
C768 N764 1.362 . S
C768 C765 1.431 . S
C768 C778 1.476 . S
H769 C763 0.929 . S
C770 O761 1.250 . S
C770 O762 1.258 . S
O771 Mn756 2.162 . S
O771 C759 1.281 . S
O772 Mn756 2.297 . S
O772 C759 1.236 . S
N773 Mn757 2.282 . S
N773 C774 1.328 . S
N773 C778 1.318 . S
C774 N773 1.328 . S
C774 C775 1.457 . S
C774 H779 0.929 . S
C775 C774 1.457 . S
C775 C776 1.291 . S
C775 H788 0.931 . S
C776 C775 1.291 . S
C776 C777 1.373 . S
C776 H789 0.929 . S
C777 C776 1.373 . S
C777 C778 1.396 . S
C777 C784 1.403 . S
C778 C768 1.476 . S
C778 N773 1.318 . S
C778 C777 1.396 . S
H779 C774 0.929 . S
O780 Mn756 2.385 . S
O780 C758 1.234 . S
O781 Mn756 2.209 . S
O781 Mn757 2.215 . S
O781 C758 1.283 . S
O782 Mn756 2.094 . S
O782 C760 1.240 . S
O783 Mn757 2.117 . S
O783 C760 1.264 . S
C784 C777 1.403 . S
C784 C785 1.399 . S
C784 H790 0.929 . S
C785 C765 1.449 . S
C785 C784 1.399 . S
C785 H791 0.930 . S
H786 C766 0.931 . S
H787 C767 0.930 . S
H788 C775 0.931 . S
H789 C776 0.929 . S
H790 C784 0.929 . S
H791 C785 0.930 . S
Mn792 O797 2.095 . S
Mn792 O807 2.162 . S
Mn792 O808 2.297 . S
Mn792 O816 2.385 . S
Mn792 O817 2.209 . S
Mn792 O818 2.094 . S
Mn793 O798 2.121 . S
Mn793 N800 2.257 . S
Mn793 N809 2.282 . S
Mn793 O817 2.215 . S
Mn793 O819 2.117 . S
C794 O816 1.234 . S
C794 O817 1.283 . S
C795 O807 1.281 . S
C795 O808 1.236 . S
C796 O818 1.240 . S
C796 O819 1.264 . S
O797 Mn792 2.095 . S
O797 C806 1.250 . S
O798 Mn793 2.121 . S
O798 C806 1.258 . S
C799 N800 1.326 . S
C799 C803 1.460 . S
C799 H805 0.929 . S
N800 Mn793 2.257 . S
N800 C799 1.326 . S
N800 C804 1.362 . S
C801 C802 1.258 . S
C801 C804 1.431 . S
C801 C821 1.449 . S
C802 C801 1.258 . S
C802 C803 1.477 . S
C802 H822 0.931 . S
C803 C799 1.460 . S
C803 C802 1.477 . S
C803 H823 0.930 . S
C804 N800 1.362 . S
C804 C801 1.431 . S
C804 C814 1.476 . S
H805 C799 0.929 . S
C806 O797 1.250 . S
C806 O798 1.258 . S
O807 Mn792 2.162 . S
O807 C795 1.281 . S
O808 Mn792 2.297 . S
O808 C795 1.236 . S
N809 Mn793 2.282 . S
N809 C810 1.328 . S
N809 C814 1.318 . S
C810 N809 1.328 . S
C810 C811 1.457 . S
C810 H815 0.929 . S
C811 C810 1.457 . S
C811 C812 1.291 . S
C811 H824 0.931 . S
C812 C811 1.291 . S
C812 C813 1.373 . S
C812 H825 0.929 . S
C813 C812 1.373 . S
C813 C814 1.396 . S
C813 C820 1.403 . S
C814 C804 1.476 . S
C814 N809 1.318 . S
C814 C813 1.396 . S
H815 C810 0.929 . S
O816 Mn792 2.385 . S
O816 C794 1.234 . S
O817 Mn792 2.209 . S
O817 Mn793 2.215 . S
O817 C794 1.283 . S
O818 Mn792 2.094 . S
O818 C796 1.240 . S
O819 Mn793 2.117 . S
O819 C796 1.264 . S
C820 C813 1.403 . S
C820 C821 1.399 . S
C820 H826 0.929 . S
C821 C801 1.449 . S
C821 C820 1.399 . S
C821 H827 0.930 . S
H822 C802 0.931 . S
H823 C803 0.930 . S
H824 C811 0.931 . S
H825 C812 0.929 . S
H826 C820 0.929 . S
H827 C821 0.930 . S
Mn828 O833 2.095 . S
Mn828 O843 2.162 . S
Mn828 O844 2.297 . S
Mn828 O852 2.385 . S
Mn828 O853 2.209 . S
Mn828 O854 2.094 . S
Mn829 O834 2.121 . S
Mn829 N836 2.257 . S
Mn829 N845 2.282 . S
Mn829 O853 2.215 . S
Mn829 O855 2.117 . S
C830 O852 1.234 . S
C830 O853 1.283 . S
C831 O843 1.281 . S
C831 O844 1.236 . S
C832 O854 1.240 . S
C832 O855 1.264 . S
O833 Mn828 2.095 . S
O833 C842 1.250 . S
O834 Mn829 2.121 . S
O834 C842 1.258 . S
C835 N836 1.326 . S
C835 C839 1.460 . S
C835 H841 0.929 . S
N836 Mn829 2.257 . S
N836 C835 1.326 . S
N836 C840 1.362 . S
C837 C838 1.258 . S
C837 C840 1.431 . S
C837 C857 1.449 . S
C838 C837 1.258 . S
C838 C839 1.477 . S
C838 H858 0.931 . S
C839 C835 1.460 . S
C839 C838 1.477 . S
C839 H859 0.930 . S
C840 N836 1.362 . S
C840 C837 1.431 . S
C840 C850 1.476 . S
H841 C835 0.929 . S
C842 O833 1.250 . S
C842 O834 1.258 . S
O843 Mn828 2.162 . S
O843 C831 1.281 . S
O844 Mn828 2.297 . S
O844 C831 1.236 . S
N845 Mn829 2.282 . S
N845 C846 1.328 . S
N845 C850 1.318 . S
C846 N845 1.328 . S
C846 C847 1.457 . S
C846 H851 0.929 . S
C847 C846 1.457 . S
C847 C848 1.291 . S
C847 H860 0.931 . S
C848 C847 1.291 . S
C848 C849 1.373 . S
C848 H861 0.929 . S
C849 C848 1.373 . S
C849 C850 1.396 . S
C849 C856 1.403 . S
C850 C840 1.476 . S
C850 N845 1.318 . S
C850 C849 1.396 . S
H851 C846 0.929 . S
O852 Mn828 2.385 . S
O852 C830 1.234 . S
O853 Mn828 2.209 . S
O853 Mn829 2.215 . S
O853 C830 1.283 . S
O854 Mn828 2.094 . S
O854 C832 1.240 . S
O855 Mn829 2.117 . S
O855 C832 1.264 . S
C856 C849 1.403 . S
C856 C857 1.399 . S
C856 H862 0.929 . S
C857 C837 1.449 . S
C857 C856 1.399 . S
C857 H863 0.930 . S
H858 C838 0.931 . S
H859 C839 0.930 . S
H860 C847 0.931 . S
H861 C848 0.929 . S
H862 C856 0.929 . S
H863 C857 0.930 . S
Mn864 O869 2.095 . S
Mn864 O879 2.162 . S
Mn864 O880 2.297 . S
Mn864 O888 2.385 . S
Mn864 O889 2.209 . S
Mn864 O890 2.094 . S
Mn865 O870 2.121 . S
Mn865 N872 2.257 . S
Mn865 N881 2.282 . S
Mn865 O889 2.215 . S
Mn865 O891 2.117 . S
C866 O888 1.234 . S
C866 O889 1.283 . S
C867 O879 1.281 . S
C867 O880 1.236 . S
C868 O890 1.240 . S
C868 O891 1.264 . S
O869 Mn864 2.095 . S
O869 C878 1.250 . S
O870 Mn865 2.121 . S
O870 C878 1.258 . S
C871 N872 1.326 . S
C871 C875 1.460 . S
C871 H877 0.929 . S
N872 Mn865 2.257 . S
N872 C871 1.326 . S
N872 C876 1.362 . S
C873 C874 1.258 . S
C873 C876 1.431 . S
C873 C893 1.449 . S
C874 C873 1.258 . S
C874 C875 1.477 . S
C874 H894 0.931 . S
C875 C871 1.460 . S
C875 C874 1.477 . S
C875 H895 0.930 . S
C876 N872 1.362 . S
C876 C873 1.431 . S
C876 C886 1.476 . S
H877 C871 0.929 . S
C878 O869 1.250 . S
C878 O870 1.258 . S
O879 Mn864 2.162 . S
O879 C867 1.281 . S
O880 Mn864 2.297 . S
O880 C867 1.236 . S
N881 Mn865 2.282 . S
N881 C882 1.328 . S
N881 C886 1.318 . S
C882 N881 1.328 . S
C882 C883 1.457 . S
C882 H887 0.929 . S
C883 C882 1.457 . S
C883 C884 1.291 . S
C883 H896 0.931 . S
C884 C883 1.291 . S
C884 C885 1.373 . S
C884 H897 0.929 . S
C885 C884 1.373 . S
C885 C886 1.396 . S
C885 C892 1.403 . S
C886 C876 1.476 . S
C886 N881 1.318 . S
C886 C885 1.396 . S
H887 C882 0.929 . S
O888 Mn864 2.385 . S
O888 C866 1.234 . S
O889 Mn864 2.209 . S
O889 Mn865 2.215 . S
O889 C866 1.283 . S
O890 Mn864 2.094 . S
O890 C868 1.240 . S
O891 Mn865 2.117 . S
O891 C868 1.264 . S
C892 C885 1.403 . S
C892 C893 1.399 . S
C892 H898 0.929 . S
C893 C873 1.449 . S
C893 C892 1.399 . S
C893 H899 0.930 . S
H894 C874 0.931 . S
H895 C875 0.930 . S
H896 C883 0.931 . S
H897 C884 0.929 . S
H898 C892 0.929 . S
H899 C893 0.930 . S
Mn900 O905 2.095 . S
Mn900 O915 2.162 . S
Mn900 O916 2.297 . S
Mn900 O924 2.385 . S
Mn900 O925 2.209 . S
Mn900 O926 2.094 . S
Mn901 O906 2.121 . S
Mn901 N908 2.257 . S
Mn901 N917 2.282 . S
Mn901 O925 2.215 . S
Mn901 O927 2.117 . S
C902 O924 1.234 . S
C902 O925 1.283 . S
C903 O915 1.281 . S
C903 O916 1.236 . S
C904 O926 1.240 . S
C904 O927 1.264 . S
O905 Mn900 2.095 . S
O905 C914 1.250 . S
O906 Mn901 2.121 . S
O906 C914 1.258 . S
C907 N908 1.326 . S
C907 C911 1.460 . S
C907 H913 0.929 . S
N908 Mn901 2.257 . S
N908 C907 1.326 . S
N908 C912 1.362 . S
C909 C910 1.258 . S
C909 C912 1.431 . S
C909 C929 1.449 . S
C910 C909 1.258 . S
C910 C911 1.477 . S
C910 H930 0.931 . S
C911 C907 1.460 . S
C911 C910 1.477 . S
C911 H931 0.930 . S
C912 N908 1.362 . S
C912 C909 1.431 . S
C912 C922 1.476 . S
H913 C907 0.929 . S
C914 O905 1.250 . S
C914 O906 1.258 . S
O915 Mn900 2.162 . S
O915 C903 1.281 . S
O916 Mn900 2.297 . S
O916 C903 1.236 . S
N917 Mn901 2.282 . S
N917 C918 1.328 . S
N917 C922 1.318 . S
C918 N917 1.328 . S
C918 C919 1.457 . S
C918 H923 0.929 . S
C919 C918 1.457 . S
C919 C920 1.291 . S
C919 H932 0.931 . S
C920 C919 1.291 . S
C920 C921 1.373 . S
C920 H933 0.929 . S
C921 C920 1.373 . S
C921 C922 1.396 . S
C921 C928 1.403 . S
C922 C912 1.476 . S
C922 N917 1.318 . S
C922 C921 1.396 . S
H923 C918 0.929 . S
O924 Mn900 2.385 . S
O924 C902 1.234 . S
O925 Mn900 2.209 . S
O925 Mn901 2.215 . S
O925 C902 1.283 . S
O926 Mn900 2.094 . S
O926 C904 1.240 . S
O927 Mn901 2.117 . S
O927 C904 1.264 . S
C928 C921 1.403 . S
C928 C929 1.399 . S
C928 H934 0.929 . S
C929 C909 1.449 . S
C929 C928 1.399 . S
C929 H935 0.930 . S
H930 C910 0.931 . S
H931 C911 0.930 . S
H932 C919 0.931 . S
H933 C920 0.929 . S
H934 C928 0.929 . S
H935 C929 0.930 . S
Mn936 O941 2.095 . S
Mn936 O951 2.162 . S
Mn936 O952 2.297 . S
Mn936 O960 2.385 . S
Mn936 O961 2.209 . S
Mn936 O962 2.094 . S
Mn937 O942 2.121 . S
Mn937 N944 2.257 . S
Mn937 N953 2.282 . S
Mn937 O961 2.215 . S
Mn937 O963 2.117 . S
C938 O960 1.234 . S
C938 O961 1.283 . S
C939 O951 1.281 . S
C939 O952 1.236 . S
C940 O962 1.240 . S
C940 O963 1.264 . S
O941 Mn936 2.095 . S
O941 C950 1.250 . S
O942 Mn937 2.121 . S
O942 C950 1.258 . S
C943 N944 1.326 . S
C943 C947 1.460 . S
C943 H949 0.929 . S
N944 Mn937 2.257 . S
N944 C943 1.326 . S
N944 C948 1.362 . S
C945 C946 1.258 . S
C945 C948 1.431 . S
C945 C965 1.449 . S
C946 C945 1.258 . S
C946 C947 1.477 . S
C946 H966 0.931 . S
C947 C943 1.460 . S
C947 C946 1.477 . S
C947 H967 0.930 . S
C948 N944 1.362 . S
C948 C945 1.431 . S
C948 C958 1.476 . S
H949 C943 0.929 . S
C950 O941 1.250 . S
C950 O942 1.258 . S
O951 Mn936 2.162 . S
O951 C939 1.281 . S
O952 Mn936 2.297 . S
O952 C939 1.236 . S
N953 Mn937 2.282 . S
N953 C954 1.328 . S
N953 C958 1.318 . S
C954 N953 1.328 . S
C954 C955 1.457 . S
C954 H959 0.929 . S
C955 C954 1.457 . S
C955 C956 1.291 . S
C955 H968 0.931 . S
C956 C955 1.291 . S
C956 C957 1.373 . S
C956 H969 0.929 . S
C957 C956 1.373 . S
C957 C958 1.396 . S
C957 C964 1.403 . S
C958 C948 1.476 . S
C958 N953 1.318 . S
C958 C957 1.396 . S
H959 C954 0.929 . S
O960 Mn936 2.385 . S
O960 C938 1.234 . S
O961 Mn936 2.209 . S
O961 Mn937 2.215 . S
O961 C938 1.283 . S
O962 Mn936 2.094 . S
O962 C940 1.240 . S
O963 Mn937 2.117 . S
O963 C940 1.264 . S
C964 C957 1.403 . S
C964 C965 1.399 . S
C964 H970 0.929 . S
C965 C945 1.449 . S
C965 C964 1.399 . S
C965 H971 0.930 . S
H966 C946 0.931 . S
H967 C947 0.930 . S
H968 C955 0.931 . S
H969 C956 0.929 . S
H970 C964 0.929 . S
H971 C965 0.930 . S
Mn972 O977 2.095 . S
Mn972 O987 2.162 . S
Mn972 O988 2.297 . S
Mn972 O996 2.385 . S
Mn972 O997 2.209 . S
Mn972 O998 2.094 . S
Mn973 O978 2.121 . S
Mn973 N980 2.257 . S
Mn973 N989 2.282 . S
Mn973 O997 2.215 . S
Mn973 O999 2.117 . S
C974 O996 1.234 . S
C974 O997 1.283 . S
C975 O987 1.281 . S
C975 O988 1.236 . S
C976 O998 1.240 . S
C976 O999 1.264 . S
O977 Mn972 2.095 . S
O977 C986 1.250 . S
O978 Mn973 2.121 . S
O978 C986 1.258 . S
C979 N980 1.326 . S
C979 C983 1.460 . S
C979 H985 0.929 . S
N980 Mn973 2.257 . S
N980 C979 1.326 . S
N980 C984 1.362 . S
C981 C982 1.258 . S
C981 C984 1.431 . S
C981 C1001 1.449 . S
C982 C981 1.258 . S
C982 C983 1.477 . S
C982 H1002 0.931 . S
C983 C979 1.460 . S
C983 C982 1.477 . S
C983 H1003 0.930 . S
C984 N980 1.362 . S
C984 C981 1.431 . S
C984 C994 1.476 . S
H985 C979 0.929 . S
C986 O977 1.250 . S
C986 O978 1.258 . S
O987 Mn972 2.162 . S
O987 C975 1.281 . S
O988 Mn972 2.297 . S
O988 C975 1.236 . S
N989 Mn973 2.282 . S
N989 C990 1.328 . S
N989 C994 1.318 . S
C990 N989 1.328 . S
C990 C991 1.457 . S
C990 H995 0.929 . S
C991 C990 1.457 . S
C991 C992 1.291 . S
C991 H1004 0.931 . S
C992 C991 1.291 . S
C992 C993 1.373 . S
C992 H1005 0.929 . S
C993 C992 1.373 . S
C993 C994 1.396 . S
C993 C1000 1.403 . S
C994 C984 1.476 . S
C994 N989 1.318 . S
C994 C993 1.396 . S
H995 C990 0.929 . S
O996 Mn972 2.385 . S
O996 C974 1.234 . S
O997 Mn972 2.209 . S
O997 Mn973 2.215 . S
O997 C974 1.283 . S
O998 Mn972 2.094 . S
O998 C976 1.240 . S
O999 Mn973 2.117 . S
O999 C976 1.264 . S
C1000 C993 1.403 . S
C1000 C1001 1.399 . S
C1000 H1006 0.929 . S
C1001 C981 1.449 . S
C1001 C1000 1.399 . S
C1001 H1007 0.930 . S
H1002 C982 0.931 . S
H1003 C983 0.930 . S
H1004 C991 0.931 . S
H1005 C992 0.929 . S
H1006 C1000 0.929 . S
H1007 C1001 0.930 . S
Mn1008 O1013 2.095 . S
Mn1008 O1023 2.162 . S
Mn1008 O1024 2.297 . S
Mn1008 O1032 2.385 . S
Mn1008 O1033 2.209 . S
Mn1008 O1034 2.094 . S
Mn1009 O1014 2.121 . S
Mn1009 N1016 2.257 . S
Mn1009 N1025 2.282 . S
Mn1009 O1033 2.215 . S
Mn1009 O1035 2.117 . S
C1010 O1032 1.234 . S
C1010 O1033 1.283 . S
C1011 O1023 1.281 . S
C1011 O1024 1.236 . S
C1012 O1034 1.240 . S
C1012 O1035 1.264 . S
O1013 Mn1008 2.095 . S
O1013 C1022 1.250 . S
O1014 Mn1009 2.121 . S
O1014 C1022 1.258 . S
C1015 N1016 1.326 . S
C1015 C1019 1.460 . S
C1015 H1021 0.929 . S
N1016 Mn1009 2.257 . S
N1016 C1015 1.326 . S
N1016 C1020 1.362 . S
C1017 C1018 1.258 . S
C1017 C1020 1.431 . S
C1017 C1037 1.449 . S
C1018 C1017 1.258 . S
C1018 C1019 1.477 . S
C1018 H1038 0.931 . S
C1019 C1015 1.460 . S
C1019 C1018 1.477 . S
C1019 H1039 0.930 . S
C1020 N1016 1.362 . S
C1020 C1017 1.431 . S
C1020 C1030 1.476 . S
H1021 C1015 0.929 . S
C1022 O1013 1.250 . S
C1022 O1014 1.258 . S
O1023 Mn1008 2.162 . S
O1023 C1011 1.281 . S
O1024 Mn1008 2.297 . S
O1024 C1011 1.236 . S
N1025 Mn1009 2.282 . S
N1025 C1026 1.328 . S
N1025 C1030 1.318 . S
C1026 N1025 1.328 . S
C1026 C1027 1.457 . S
C1026 H1031 0.929 . S
C1027 C1026 1.457 . S
C1027 C1028 1.291 . S
C1027 H1040 0.931 . S
C1028 C1027 1.291 . S
C1028 C1029 1.373 . S
C1028 H1041 0.929 . S
C1029 C1028 1.373 . S
C1029 C1030 1.396 . S
C1029 C1036 1.403 . S
C1030 C1020 1.476 . S
C1030 N1025 1.318 . S
C1030 C1029 1.396 . S
H1031 C1026 0.929 . S
O1032 Mn1008 2.385 . S
O1032 C1010 1.234 . S
O1033 Mn1008 2.209 . S
O1033 Mn1009 2.215 . S
O1033 C1010 1.283 . S
O1034 Mn1008 2.094 . S
O1034 C1012 1.240 . S
O1035 Mn1009 2.117 . S
O1035 C1012 1.264 . S
C1036 C1029 1.403 . S
C1036 C1037 1.399 . S
C1036 H1042 0.929 . S
C1037 C1017 1.449 . S
C1037 C1036 1.399 . S
C1037 H1043 0.930 . S
H1038 C1018 0.931 . S
H1039 C1019 0.930 . S
H1040 C1027 0.931 . S
H1041 C1028 0.929 . S
H1042 C1036 0.929 . S
H1043 C1037 0.930 . S
Mn1044 O1049 2.095 . S
Mn1044 O1059 2.162 . S
Mn1044 O1060 2.297 . S
Mn1044 O1068 2.385 . S
Mn1044 O1069 2.209 . S
Mn1044 O1070 2.094 . S
Mn1045 O1050 2.121 . S
Mn1045 N1052 2.257 . S
Mn1045 N1061 2.282 . S
Mn1045 O1069 2.215 . S
Mn1045 O1071 2.117 . S
C1046 O1068 1.234 . S
C1046 O1069 1.283 . S
C1047 O1059 1.281 . S
C1047 O1060 1.236 . S
C1048 O1070 1.240 . S
C1048 O1071 1.264 . S
O1049 Mn1044 2.095 . S
O1049 C1058 1.250 . S
O1050 Mn1045 2.121 . S
O1050 C1058 1.258 . S
C1051 N1052 1.326 . S
C1051 C1055 1.460 . S
C1051 H1057 0.929 . S
N1052 Mn1045 2.257 . S
N1052 C1051 1.326 . S
N1052 C1056 1.362 . S
C1053 C1054 1.258 . S
C1053 C1056 1.431 . S
C1053 C1073 1.449 . S
C1054 C1053 1.258 . S
C1054 C1055 1.477 . S
C1054 H1074 0.931 . S
C1055 C1051 1.460 . S
C1055 C1054 1.477 . S
C1055 H1075 0.930 . S
C1056 N1052 1.362 . S
C1056 C1053 1.431 . S
C1056 C1066 1.476 . S
H1057 C1051 0.929 . S
C1058 O1049 1.250 . S
C1058 O1050 1.258 . S
O1059 Mn1044 2.162 . S
O1059 C1047 1.281 . S
O1060 Mn1044 2.297 . S
O1060 C1047 1.236 . S
N1061 Mn1045 2.282 . S
N1061 C1062 1.328 . S
N1061 C1066 1.318 . S
C1062 N1061 1.328 . S
C1062 C1063 1.457 . S
C1062 H1067 0.929 . S
C1063 C1062 1.457 . S
C1063 C1064 1.291 . S
C1063 H1076 0.931 . S
C1064 C1063 1.291 . S
C1064 C1065 1.373 . S
C1064 H1077 0.929 . S
C1065 C1064 1.373 . S
C1065 C1066 1.396 . S
C1065 C1072 1.403 . S
C1066 C1056 1.476 . S
C1066 N1061 1.318 . S
C1066 C1065 1.396 . S
H1067 C1062 0.929 . S
O1068 Mn1044 2.385 . S
O1068 C1046 1.234 . S
O1069 Mn1044 2.209 . S
O1069 Mn1045 2.215 . S
O1069 C1046 1.283 . S
O1070 Mn1044 2.094 . S
O1070 C1048 1.240 . S
O1071 Mn1045 2.117 . S
O1071 C1048 1.264 . S
C1072 C1065 1.403 . S
C1072 C1073 1.399 . S
C1072 H1078 0.929 . S
C1073 C1053 1.449 . S
C1073 C1072 1.399 . S
C1073 H1079 0.930 . S
H1074 C1054 0.931 . S
H1075 C1055 0.930 . S
H1076 C1063 0.931 . S
H1077 C1064 0.929 . S
H1078 C1072 0.929 . S
H1079 C1073 0.930 . S
Mn1080 O1085 2.095 . S
Mn1080 O1095 2.162 . S
Mn1080 O1096 2.297 . S
Mn1080 O1104 2.385 . S
Mn1080 O1105 2.209 . S
Mn1080 O1106 2.094 . S
Mn1081 O1086 2.121 . S
Mn1081 N1088 2.257 . S
Mn1081 N1097 2.282 . S
Mn1081 O1105 2.215 . S
Mn1081 O1107 2.117 . S
C1082 O1104 1.234 . S
C1082 O1105 1.283 . S
C1083 O1095 1.281 . S
C1083 O1096 1.236 . S
C1084 O1106 1.240 . S
C1084 O1107 1.264 . S
O1085 Mn1080 2.095 . S
O1085 C1094 1.250 . S
O1086 Mn1081 2.121 . S
O1086 C1094 1.258 . S
C1087 N1088 1.326 . S
C1087 C1091 1.460 . S
C1087 H1093 0.929 . S
N1088 Mn1081 2.257 . S
N1088 C1087 1.326 . S
N1088 C1092 1.362 . S
C1089 C1090 1.258 . S
C1089 C1092 1.431 . S
C1089 C1109 1.449 . S
C1090 C1089 1.258 . S
C1090 C1091 1.477 . S
C1090 H1110 0.931 . S
C1091 C1087 1.460 . S
C1091 C1090 1.477 . S
C1091 H1111 0.930 . S
C1092 N1088 1.362 . S
C1092 C1089 1.431 . S
C1092 C1102 1.476 . S
H1093 C1087 0.929 . S
C1094 O1085 1.250 . S
C1094 O1086 1.258 . S
O1095 Mn1080 2.162 . S
O1095 C1083 1.281 . S
O1096 Mn1080 2.297 . S
O1096 C1083 1.236 . S
N1097 Mn1081 2.282 . S
N1097 C1098 1.328 . S
N1097 C1102 1.318 . S
C1098 N1097 1.328 . S
C1098 C1099 1.457 . S
C1098 H1103 0.929 . S
C1099 C1098 1.457 . S
C1099 C1100 1.291 . S
C1099 H1112 0.931 . S
C1100 C1099 1.291 . S
C1100 C1101 1.373 . S
C1100 H1113 0.929 . S
C1101 C1100 1.373 . S
C1101 C1102 1.396 . S
C1101 C1108 1.403 . S
C1102 C1092 1.476 . S
C1102 N1097 1.318 . S
C1102 C1101 1.396 . S
H1103 C1098 0.929 . S
O1104 Mn1080 2.385 . S
O1104 C1082 1.234 . S
O1105 Mn1080 2.209 . S
O1105 Mn1081 2.215 . S
O1105 C1082 1.283 . S
O1106 Mn1080 2.094 . S
O1106 C1084 1.240 . S
O1107 Mn1081 2.117 . S
O1107 C1084 1.264 . S
C1108 C1101 1.403 . S
C1108 C1109 1.399 . S
C1108 H1114 0.929 . S
C1109 C1089 1.449 . S
C1109 C1108 1.399 . S
C1109 H1115 0.930 . S
H1110 C1090 0.931 . S
H1111 C1091 0.930 . S
H1112 C1099 0.931 . S
H1113 C1100 0.929 . S
H1114 C1108 0.929 . S
H1115 C1109 0.930 . S
Mn1116 O1121 2.095 . S
Mn1116 O1131 2.162 . S
Mn1116 O1132 2.297 . S
Mn1116 O1140 2.385 . S
Mn1116 O1141 2.209 . S
Mn1116 O1142 2.094 . S
Mn1117 O1122 2.121 . S
Mn1117 N1124 2.257 . S
Mn1117 N1133 2.282 . S
Mn1117 O1141 2.215 . S
Mn1117 O1143 2.117 . S
C1118 O1140 1.234 . S
C1118 O1141 1.283 . S
C1119 O1131 1.281 . S
C1119 O1132 1.236 . S
C1120 O1142 1.240 . S
C1120 O1143 1.264 . S
O1121 Mn1116 2.095 . S
O1121 C1130 1.250 . S
O1122 Mn1117 2.121 . S
O1122 C1130 1.258 . S
C1123 N1124 1.326 . S
C1123 C1127 1.460 . S
C1123 H1129 0.929 . S
N1124 Mn1117 2.257 . S
N1124 C1123 1.326 . S
N1124 C1128 1.362 . S
C1125 C1126 1.258 . S
C1125 C1128 1.431 . S
C1125 C1145 1.449 . S
C1126 C1125 1.258 . S
C1126 C1127 1.477 . S
C1126 H1146 0.931 . S
C1127 C1123 1.460 . S
C1127 C1126 1.477 . S
C1127 H1147 0.930 . S
C1128 N1124 1.362 . S
C1128 C1125 1.431 . S
C1128 C1138 1.476 . S
H1129 C1123 0.929 . S
C1130 O1121 1.250 . S
C1130 O1122 1.258 . S
O1131 Mn1116 2.162 . S
O1131 C1119 1.281 . S
O1132 Mn1116 2.297 . S
O1132 C1119 1.236 . S
N1133 Mn1117 2.282 . S
N1133 C1134 1.328 . S
N1133 C1138 1.318 . S
C1134 N1133 1.328 . S
C1134 C1135 1.457 . S
C1134 H1139 0.929 . S
C1135 C1134 1.457 . S
C1135 C1136 1.291 . S
C1135 H1148 0.931 . S
C1136 C1135 1.291 . S
C1136 C1137 1.373 . S
C1136 H1149 0.929 . S
C1137 C1136 1.373 . S
C1137 C1138 1.396 . S
C1137 C1144 1.403 . S
C1138 C1128 1.476 . S
C1138 N1133 1.318 . S
C1138 C1137 1.396 . S
H1139 C1134 0.929 . S
O1140 Mn1116 2.385 . S
O1140 C1118 1.234 . S
O1141 Mn1116 2.209 . S
O1141 Mn1117 2.215 . S
O1141 C1118 1.283 . S
O1142 Mn1116 2.094 . S
O1142 C1120 1.240 . S
O1143 Mn1117 2.117 . S
O1143 C1120 1.264 . S
C1144 C1137 1.403 . S
C1144 C1145 1.399 . S
C1144 H1150 0.929 . S
C1145 C1125 1.449 . S
C1145 C1144 1.399 . S
C1145 H1151 0.930 . S
H1146 C1126 0.931 . S
H1147 C1127 0.930 . S
H1148 C1135 0.931 . S
H1149 C1136 0.929 . S
H1150 C1144 0.929 . S
H1151 C1145 0.930 . S
Mn1152 O1157 2.095 . S
Mn1152 O1167 2.162 . S
Mn1152 O1168 2.297 . S
Mn1152 O1176 2.385 . S
Mn1152 O1177 2.209 . S
Mn1152 O1178 2.094 . S
Mn1153 O1158 2.121 . S
Mn1153 N1160 2.257 . S
Mn1153 N1169 2.282 . S
Mn1153 O1177 2.215 . S
Mn1153 O1179 2.117 . S
C1154 O1176 1.234 . S
C1154 O1177 1.283 . S
C1155 O1167 1.281 . S
C1155 O1168 1.236 . S
C1156 O1178 1.240 . S
C1156 O1179 1.264 . S
O1157 Mn1152 2.095 . S
O1157 C1166 1.250 . S
O1158 Mn1153 2.121 . S
O1158 C1166 1.258 . S
C1159 N1160 1.326 . S
C1159 C1163 1.460 . S
C1159 H1165 0.929 . S
N1160 Mn1153 2.257 . S
N1160 C1159 1.326 . S
N1160 C1164 1.362 . S
C1161 C1162 1.258 . S
C1161 C1164 1.431 . S
C1161 C1181 1.449 . S
C1162 C1161 1.258 . S
C1162 C1163 1.477 . S
C1162 H1182 0.931 . S
C1163 C1159 1.460 . S
C1163 C1162 1.477 . S
C1163 H1183 0.930 . S
C1164 N1160 1.362 . S
C1164 C1161 1.431 . S
C1164 C1174 1.476 . S
H1165 C1159 0.929 . S
C1166 O1157 1.250 . S
C1166 O1158 1.258 . S
O1167 Mn1152 2.162 . S
O1167 C1155 1.281 . S
O1168 Mn1152 2.297 . S
O1168 C1155 1.236 . S
N1169 Mn1153 2.282 . S
N1169 C1170 1.328 . S
N1169 C1174 1.318 . S
C1170 N1169 1.328 . S
C1170 C1171 1.457 . S
C1170 H1175 0.929 . S
C1171 C1170 1.457 . S
C1171 C1172 1.291 . S
C1171 H1184 0.931 . S
C1172 C1171 1.291 . S
C1172 C1173 1.373 . S
C1172 H1185 0.929 . S
C1173 C1172 1.373 . S
C1173 C1174 1.396 . S
C1173 C1180 1.403 . S
C1174 C1164 1.476 . S
C1174 N1169 1.318 . S
C1174 C1173 1.396 . S
H1175 C1170 0.929 . S
O1176 Mn1152 2.385 . S
O1176 C1154 1.234 . S
O1177 Mn1152 2.209 . S
O1177 Mn1153 2.215 . S
O1177 C1154 1.283 . S
O1178 Mn1152 2.094 . S
O1178 C1156 1.240 . S
O1179 Mn1153 2.117 . S
O1179 C1156 1.264 . S
C1180 C1173 1.403 . S
C1180 C1181 1.399 . S
C1180 H1186 0.929 . S
C1181 C1161 1.449 . S
C1181 C1180 1.399 . S
C1181 H1187 0.930 . S
H1182 C1162 0.931 . S
H1183 C1163 0.930 . S
H1184 C1171 0.931 . S
H1185 C1172 0.929 . S
H1186 C1180 0.929 . S
H1187 C1181 0.930 . S
Mn1188 O1193 2.095 . S
Mn1188 O1203 2.162 . S
Mn1188 O1204 2.297 . S
Mn1188 O1212 2.385 . S
Mn1188 O1213 2.209 . S
Mn1188 O1214 2.094 . S
Mn1189 O1194 2.121 . S
Mn1189 N1196 2.257 . S
Mn1189 N1205 2.282 . S
Mn1189 O1213 2.215 . S
Mn1189 O1215 2.117 . S
C1190 O1212 1.234 . S
C1190 O1213 1.283 . S
C1191 O1203 1.281 . S
C1191 O1204 1.236 . S
C1192 O1214 1.240 . S
C1192 O1215 1.264 . S
O1193 Mn1188 2.095 . S
O1193 C1202 1.250 . S
O1194 Mn1189 2.121 . S
O1194 C1202 1.258 . S
C1195 N1196 1.326 . S
C1195 C1199 1.460 . S
C1195 H1201 0.929 . S
N1196 Mn1189 2.257 . S
N1196 C1195 1.326 . S
N1196 C1200 1.362 . S
C1197 C1198 1.258 . S
C1197 C1200 1.431 . S
C1197 C1217 1.449 . S
C1198 C1197 1.258 . S
C1198 C1199 1.477 . S
C1198 H1218 0.931 . S
C1199 C1195 1.460 . S
C1199 C1198 1.477 . S
C1199 H1219 0.930 . S
C1200 N1196 1.362 . S
C1200 C1197 1.431 . S
C1200 C1210 1.476 . S
H1201 C1195 0.929 . S
C1202 O1193 1.250 . S
C1202 O1194 1.258 . S
O1203 Mn1188 2.162 . S
O1203 C1191 1.281 . S
O1204 Mn1188 2.297 . S
O1204 C1191 1.236 . S
N1205 Mn1189 2.282 . S
N1205 C1206 1.328 . S
N1205 C1210 1.318 . S
C1206 N1205 1.328 . S
C1206 C1207 1.457 . S
C1206 H1211 0.929 . S
C1207 C1206 1.457 . S
C1207 C1208 1.291 . S
C1207 H1220 0.931 . S
C1208 C1207 1.291 . S
C1208 C1209 1.373 . S
C1208 H1221 0.929 . S
C1209 C1208 1.373 . S
C1209 C1210 1.396 . S
C1209 C1216 1.403 . S
C1210 C1200 1.476 . S
C1210 N1205 1.318 . S
C1210 C1209 1.396 . S
H1211 C1206 0.929 . S
O1212 Mn1188 2.385 . S
O1212 C1190 1.234 . S
O1213 Mn1188 2.209 . S
O1213 Mn1189 2.215 . S
O1213 C1190 1.283 . S
O1214 Mn1188 2.094 . S
O1214 C1192 1.240 . S
O1215 Mn1189 2.117 . S
O1215 C1192 1.264 . S
C1216 C1209 1.403 . S
C1216 C1217 1.399 . S
C1216 H1222 0.929 . S
C1217 C1197 1.449 . S
C1217 C1216 1.399 . S
C1217 H1223 0.930 . S
H1218 C1198 0.931 . S
H1219 C1199 0.930 . S
H1220 C1207 0.931 . S
H1221 C1208 0.929 . S
H1222 C1216 0.929 . S
H1223 C1217 0.930 . S
Mn1224 O1229 2.095 . S
Mn1224 O1239 2.162 . S
Mn1224 O1240 2.297 . S
Mn1224 O1248 2.385 . S
Mn1224 O1249 2.209 . S
Mn1224 O1250 2.094 . S
Mn1225 O1230 2.121 . S
Mn1225 N1232 2.257 . S
Mn1225 N1241 2.282 . S
Mn1225 O1249 2.215 . S
Mn1225 O1251 2.117 . S
C1226 O1248 1.234 . S
C1226 O1249 1.283 . S
C1227 O1239 1.281 . S
C1227 O1240 1.236 . S
C1228 O1250 1.240 . S
C1228 O1251 1.264 . S
O1229 Mn1224 2.095 . S
O1229 C1238 1.250 . S
O1230 Mn1225 2.121 . S
O1230 C1238 1.258 . S
C1231 N1232 1.326 . S
C1231 C1235 1.460 . S
C1231 H1237 0.929 . S
N1232 Mn1225 2.257 . S
N1232 C1231 1.326 . S
N1232 C1236 1.362 . S
C1233 C1234 1.258 . S
C1233 C1236 1.431 . S
C1233 C1253 1.449 . S
C1234 C1233 1.258 . S
C1234 C1235 1.477 . S
C1234 H1254 0.931 . S
C1235 C1231 1.460 . S
C1235 C1234 1.477 . S
C1235 H1255 0.930 . S
C1236 N1232 1.362 . S
C1236 C1233 1.431 . S
C1236 C1246 1.476 . S
H1237 C1231 0.929 . S
C1238 O1229 1.250 . S
C1238 O1230 1.258 . S
O1239 Mn1224 2.162 . S
O1239 C1227 1.281 . S
O1240 Mn1224 2.297 . S
O1240 C1227 1.236 . S
N1241 Mn1225 2.282 . S
N1241 C1242 1.328 . S
N1241 C1246 1.318 . S
C1242 N1241 1.328 . S
C1242 C1243 1.457 . S
C1242 H1247 0.929 . S
C1243 C1242 1.457 . S
C1243 C1244 1.291 . S
C1243 H1256 0.931 . S
C1244 C1243 1.291 . S
C1244 C1245 1.373 . S
C1244 H1257 0.929 . S
C1245 C1244 1.373 . S
C1245 C1246 1.396 . S
C1245 C1252 1.403 . S
C1246 C1236 1.476 . S
C1246 N1241 1.318 . S
C1246 C1245 1.396 . S
H1247 C1242 0.929 . S
O1248 Mn1224 2.385 . S
O1248 C1226 1.234 . S
O1249 Mn1224 2.209 . S
O1249 Mn1225 2.215 . S
O1249 C1226 1.283 . S
O1250 Mn1224 2.094 . S
O1250 C1228 1.240 . S
O1251 Mn1225 2.117 . S
O1251 C1228 1.264 . S
C1252 C1245 1.403 . S
C1252 C1253 1.399 . S
C1252 H1258 0.929 . S
C1253 C1233 1.449 . S
C1253 C1252 1.399 . S
C1253 H1259 0.930 . S
H1254 C1234 0.931 . S
H1255 C1235 0.930 . S
H1256 C1243 0.931 . S
H1257 C1244 0.929 . S
H1258 C1252 0.929 . S
H1259 C1253 0.930 . S
Mn1260 O1265 2.095 . S
Mn1260 O1275 2.162 . S
Mn1260 O1276 2.297 . S
Mn1260 O1284 2.385 . S
Mn1260 O1285 2.209 . S
Mn1260 O1286 2.094 . S
Mn1261 O1266 2.121 . S
Mn1261 N1268 2.257 . S
Mn1261 N1277 2.282 . S
Mn1261 O1285 2.215 . S
Mn1261 O1287 2.117 . S
C1262 O1284 1.234 . S
C1262 O1285 1.283 . S
C1263 O1275 1.281 . S
C1263 O1276 1.236 . S
C1264 O1286 1.240 . S
C1264 O1287 1.264 . S
O1265 Mn1260 2.095 . S
O1265 C1274 1.250 . S
O1266 Mn1261 2.121 . S
O1266 C1274 1.258 . S
C1267 N1268 1.326 . S
C1267 C1271 1.460 . S
C1267 H1273 0.929 . S
N1268 Mn1261 2.257 . S
N1268 C1267 1.326 . S
N1268 C1272 1.362 . S
C1269 C1270 1.258 . S
C1269 C1272 1.431 . S
C1269 C1289 1.449 . S
C1270 C1269 1.258 . S
C1270 C1271 1.477 . S
C1270 H1290 0.931 . S
C1271 C1267 1.460 . S
C1271 C1270 1.477 . S
C1271 H1291 0.930 . S
C1272 N1268 1.362 . S
C1272 C1269 1.431 . S
C1272 C1282 1.476 . S
H1273 C1267 0.929 . S
C1274 O1265 1.250 . S
C1274 O1266 1.258 . S
O1275 Mn1260 2.162 . S
O1275 C1263 1.281 . S
O1276 Mn1260 2.297 . S
O1276 C1263 1.236 . S
N1277 Mn1261 2.282 . S
N1277 C1278 1.328 . S
N1277 C1282 1.318 . S
C1278 N1277 1.328 . S
C1278 C1279 1.457 . S
C1278 H1283 0.929 . S
C1279 C1278 1.457 . S
C1279 C1280 1.291 . S
C1279 H1292 0.931 . S
C1280 C1279 1.291 . S
C1280 C1281 1.373 . S
C1280 H1293 0.929 . S
C1281 C1280 1.373 . S
C1281 C1282 1.396 . S
C1281 C1288 1.403 . S
C1282 C1272 1.476 . S
C1282 N1277 1.318 . S
C1282 C1281 1.396 . S
H1283 C1278 0.929 . S
O1284 Mn1260 2.385 . S
O1284 C1262 1.234 . S
O1285 Mn1260 2.209 . S
O1285 Mn1261 2.215 . S
O1285 C1262 1.283 . S
O1286 Mn1260 2.094 . S
O1286 C1264 1.240 . S
O1287 Mn1261 2.117 . S
O1287 C1264 1.264 . S
C1288 C1281 1.403 . S
C1288 C1289 1.399 . S
C1288 H1294 0.929 . S
C1289 C1269 1.449 . S
C1289 C1288 1.399 . S
C1289 H1295 0.930 . S
H1290 C1270 0.931 . S
H1291 C1271 0.930 . S
H1292 C1279 0.931 . S
H1293 C1280 0.929 . S
H1294 C1288 0.929 . S
H1295 C1289 0.930 . S
H1296 C1304 0.929 . S
H1297 C1306 0.930 . S
H1298 C1308 0.930 . S
H1299 C1311 0.929 . S
H1300 C1314 0.930 . S
H1301 C1316 0.960 . S
H1302 C1316 0.960 . S
H1303 C1316 0.960 . S
C1304 H1296 0.929 . S
C1304 C1305 1.377 . S
C1304 C1306 1.384 . S
C1305 C1304 1.377 . S
C1305 C1311 1.390 . S
C1306 H1297 0.930 . S
C1306 C1304 1.384 . S
C1306 C1307 1.372 . S
C1307 C1306 1.372 . S
C1307 C1308 1.400 . S
C1307 C1312 1.490 . S
C1308 H1298 0.930 . S
C1308 C1307 1.400 . S
C1308 C1311 1.386 . S
H1309 C1325 0.930 . S
H1310 C1326 0.931 . S
C1311 H1299 0.929 . S
C1311 C1305 1.390 . S
C1311 C1308 1.386 . S
C1312 C1307 1.490 . S
C1312 C1314 1.395 . S
C1312 C1315 1.403 . S
H1313 C1319 0.930 . S
C1314 H1300 0.930 . S
C1314 C1312 1.395 . S
C1314 C1317 1.403 . S
C1315 C1312 1.403 . S
C1315 C1316 1.524 . S
C1315 C1319 1.400 . S
C1316 H1301 0.960 . S
C1316 H1302 0.960 . S
C1316 H1303 0.960 . S
C1316 C1315 1.524 . S
C1317 C1314 1.403 . S
C1317 C1318 1.392 . S
C1317 C1321 1.495 . S
C1318 C1317 1.392 . S
C1318 C1319 1.385 . S
C1318 C1320 1.478 . S
C1319 H1313 0.930 . S
C1319 C1315 1.400 . S
C1319 C1318 1.385 . S
C1320 C1318 1.478 . S
C1320 C1322 1.381 . S
C1320 C1326 1.383 . S
C1321 C1317 1.495 . S
C1321 H1327 0.959 . S
C1321 H1328 0.961 . S
C1321 H1329 0.960 . S
C1322 C1320 1.381 . S
C1322 C1323 1.394 . S
C1322 H1330 0.930 . S
C1323 C1322 1.394 . S
C1323 C1324 1.383 . S
C1323 H1331 0.929 . S
C1324 C1323 1.383 . S
C1324 C1325 1.377 . S
C1325 H1309 0.930 . S
C1325 C1324 1.377 . S
C1325 C1326 1.379 . S
C1326 H1310 0.931 . S
C1326 C1320 1.383 . S
C1326 C1325 1.379 . S
H1327 C1321 0.959 . S
H1328 C1321 0.961 . S
H1329 C1321 0.960 . S
H1330 C1322 0.930 . S
H1331 C1323 0.929 . S
H1332 C1340 0.929 . S
H1333 C1342 0.930 . S
H1334 C1344 0.930 . S
H1335 C1347 0.929 . S
H1336 C1350 0.930 . S
H1337 C1352 0.960 . S
H1338 C1352 0.960 . S
H1339 C1352 0.960 . S
C1340 H1332 0.929 . S
C1340 C1341 1.377 . S
C1340 C1342 1.384 . S
C1341 C1340 1.377 . S
C1341 C1347 1.390 . S
C1342 H1333 0.930 . S
C1342 C1340 1.384 . S
C1342 C1343 1.372 . S
C1343 C1342 1.372 . S
C1343 C1344 1.400 . S
C1343 C1348 1.490 . S
C1344 H1334 0.930 . S
C1344 C1343 1.400 . S
C1344 C1347 1.386 . S
H1345 C1361 0.930 . S
H1346 C1362 0.931 . S
C1347 H1335 0.929 . S
C1347 C1341 1.390 . S
C1347 C1344 1.386 . S
C1348 C1343 1.490 . S
C1348 C1350 1.395 . S
C1348 C1351 1.403 . S
H1349 C1355 0.930 . S
C1350 H1336 0.930 . S
C1350 C1348 1.395 . S
C1350 C1353 1.403 . S
C1351 C1348 1.403 . S
C1351 C1352 1.524 . S
C1351 C1355 1.400 . S
C1352 H1337 0.960 . S
C1352 H1338 0.960 . S
C1352 H1339 0.960 . S
C1352 C1351 1.524 . S
C1353 C1350 1.403 . S
C1353 C1354 1.392 . S
C1353 C1357 1.495 . S
C1354 C1353 1.392 . S
C1354 C1355 1.385 . S
C1354 C1356 1.478 . S
C1355 H1349 0.930 . S
C1355 C1351 1.400 . S
C1355 C1354 1.385 . S
C1356 C1354 1.478 . S
C1356 C1358 1.381 . S
C1356 C1362 1.383 . S
C1357 C1353 1.495 . S
C1357 H1363 0.959 . S
C1357 H1364 0.961 . S
C1357 H1365 0.960 . S
C1358 C1356 1.381 . S
C1358 C1359 1.394 . S
C1358 H1366 0.930 . S
C1359 C1358 1.394 . S
C1359 C1360 1.383 . S
C1359 H1367 0.929 . S
C1360 C1359 1.383 . S
C1360 C1361 1.377 . S
C1361 H1345 0.930 . S
C1361 C1360 1.377 . S
C1361 C1362 1.379 . S
C1362 H1346 0.931 . S
C1362 C1356 1.383 . S
C1362 C1361 1.379 . S
H1363 C1357 0.959 . S
H1364 C1357 0.961 . S
H1365 C1357 0.960 . S
H1366 C1358 0.930 . S
H1367 C1359 0.929 . S
H1368 C1376 0.929 . S
H1369 C1378 0.930 . S
H1370 C1380 0.930 . S
H1371 C1383 0.929 . S
H1372 C1386 0.930 . S
H1373 C1388 0.960 . S
H1374 C1388 0.960 . S
H1375 C1388 0.960 . S
C1376 H1368 0.929 . S
C1376 C1377 1.377 . S
C1376 C1378 1.384 . S
C1377 C1376 1.377 . S
C1377 C1383 1.390 . S
C1378 H1369 0.930 . S
C1378 C1376 1.384 . S
C1378 C1379 1.372 . S
C1379 C1378 1.372 . S
C1379 C1380 1.400 . S
C1379 C1384 1.490 . S
C1380 H1370 0.930 . S
C1380 C1379 1.400 . S
C1380 C1383 1.386 . S
H1381 C1397 0.930 . S
H1382 C1398 0.931 . S
C1383 H1371 0.929 . S
C1383 C1377 1.390 . S
C1383 C1380 1.386 . S
C1384 C1379 1.490 . S
C1384 C1386 1.395 . S
C1384 C1387 1.403 . S
H1385 C1391 0.930 . S
C1386 H1372 0.930 . S
C1386 C1384 1.395 . S
C1386 C1389 1.403 . S
C1387 C1384 1.403 . S
C1387 C1388 1.524 . S
C1387 C1391 1.400 . S
C1388 H1373 0.960 . S
C1388 H1374 0.960 . S
C1388 H1375 0.960 . S
C1388 C1387 1.524 . S
C1389 C1386 1.403 . S
C1389 C1390 1.392 . S
C1389 C1393 1.495 . S
C1390 C1389 1.392 . S
C1390 C1391 1.385 . S
C1390 C1392 1.478 . S
C1391 H1385 0.930 . S
C1391 C1387 1.400 . S
C1391 C1390 1.385 . S
C1392 C1390 1.478 . S
C1392 C1394 1.381 . S
C1392 C1398 1.383 . S
C1393 C1389 1.495 . S
C1393 H1399 0.959 . S
C1393 H1400 0.961 . S
C1393 H1401 0.960 . S
C1394 C1392 1.381 . S
C1394 C1395 1.394 . S
C1394 H1402 0.930 . S
C1395 C1394 1.394 . S
C1395 C1396 1.383 . S
C1395 H1403 0.929 . S
C1396 C1395 1.383 . S
C1396 C1397 1.377 . S
C1397 H1381 0.930 . S
C1397 C1396 1.377 . S
C1397 C1398 1.379 . S
C1398 H1382 0.931 . S
C1398 C1392 1.383 . S
C1398 C1397 1.379 . S
H1399 C1393 0.959 . S
H1400 C1393 0.961 . S
H1401 C1393 0.960 . S
H1402 C1394 0.930 . S
H1403 C1395 0.929 . S
H1404 C1412 0.929 . S
H1405 C1414 0.930 . S
H1406 C1416 0.930 . S
H1407 C1419 0.929 . S
H1408 C1422 0.930 . S
H1409 C1424 0.960 . S
H1410 C1424 0.960 . S
H1411 C1424 0.960 . S
C1412 H1404 0.929 . S
C1412 C1413 1.377 . S
C1412 C1414 1.384 . S
C1413 C1412 1.377 . S
C1413 C1419 1.390 . S
C1414 H1405 0.930 . S
C1414 C1412 1.384 . S
C1414 C1415 1.372 . S
C1415 C1414 1.372 . S
C1415 C1416 1.400 . S
C1415 C1420 1.490 . S
C1416 H1406 0.930 . S
C1416 C1415 1.400 . S
C1416 C1419 1.386 . S
H1417 C1433 0.930 . S
H1418 C1434 0.931 . S
C1419 H1407 0.929 . S
C1419 C1413 1.390 . S
C1419 C1416 1.386 . S
C1420 C1415 1.490 . S
C1420 C1422 1.395 . S
C1420 C1423 1.403 . S
H1421 C1427 0.930 . S
C1422 H1408 0.930 . S
C1422 C1420 1.395 . S
C1422 C1425 1.403 . S
C1423 C1420 1.403 . S
C1423 C1424 1.524 . S
C1423 C1427 1.400 . S
C1424 H1409 0.960 . S
C1424 H1410 0.960 . S
C1424 H1411 0.960 . S
C1424 C1423 1.524 . S
C1425 C1422 1.403 . S
C1425 C1426 1.392 . S
C1425 C1429 1.495 . S
C1426 C1425 1.392 . S
C1426 C1427 1.385 . S
C1426 C1428 1.478 . S
C1427 H1421 0.930 . S
C1427 C1423 1.400 . S
C1427 C1426 1.385 . S
C1428 C1426 1.478 . S
C1428 C1430 1.381 . S
C1428 C1434 1.383 . S
C1429 C1425 1.495 . S
C1429 H1435 0.959 . S
C1429 H1436 0.961 . S
C1429 H1437 0.960 . S
C1430 C1428 1.381 . S
C1430 C1431 1.394 . S
C1430 H1438 0.930 . S
C1431 C1430 1.394 . S
C1431 C1432 1.383 . S
C1431 H1439 0.929 . S
C1432 C1431 1.383 . S
C1432 C1433 1.377 . S
C1433 H1417 0.930 . S
C1433 C1432 1.377 . S
C1433 C1434 1.379 . S
C1434 H1418 0.931 . S
C1434 C1428 1.383 . S
C1434 C1433 1.379 . S
H1435 C1429 0.959 . S
H1436 C1429 0.961 . S
H1437 C1429 0.960 . S
H1438 C1430 0.930 . S
H1439 C1431 0.929 . S
H1440 C1448 0.929 . S
H1441 C1450 0.930 . S
H1442 C1452 0.930 . S
H1443 C1455 0.929 . S
H1444 C1458 0.930 . S
H1445 C1460 0.960 . S
H1446 C1460 0.960 . S
H1447 C1460 0.960 . S
C1448 H1440 0.929 . S
C1448 C1449 1.377 . S
C1448 C1450 1.384 . S
C1449 C1448 1.377 . S
C1449 C1455 1.390 . S
C1450 H1441 0.930 . S
C1450 C1448 1.384 . S
C1450 C1451 1.372 . S
C1451 C1450 1.372 . S
C1451 C1452 1.400 . S
C1451 C1456 1.490 . S
C1452 H1442 0.930 . S
C1452 C1451 1.400 . S
C1452 C1455 1.386 . S
H1453 C1469 0.930 . S
H1454 C1470 0.931 . S
C1455 H1443 0.929 . S
C1455 C1449 1.390 . S
C1455 C1452 1.386 . S
C1456 C1451 1.490 . S
C1456 C1458 1.395 . S
C1456 C1459 1.403 . S
H1457 C1463 0.930 . S
C1458 H1444 0.930 . S
C1458 C1456 1.395 . S
C1458 C1461 1.403 . S
C1459 C1456 1.403 . S
C1459 C1460 1.524 . S
C1459 C1463 1.400 . S
C1460 H1445 0.960 . S
C1460 H1446 0.960 . S
C1460 H1447 0.960 . S
C1460 C1459 1.524 . S
C1461 C1458 1.403 . S
C1461 C1462 1.392 . S
C1461 C1465 1.495 . S
C1462 C1461 1.392 . S
C1462 C1463 1.385 . S
C1462 C1464 1.478 . S
C1463 H1457 0.930 . S
C1463 C1459 1.400 . S
C1463 C1462 1.385 . S
C1464 C1462 1.478 . S
C1464 C1466 1.381 . S
C1464 C1470 1.383 . S
C1465 C1461 1.495 . S
C1465 H1471 0.959 . S
C1465 H1472 0.961 . S
C1465 H1473 0.960 . S
C1466 C1464 1.381 . S
C1466 C1467 1.394 . S
C1466 H1474 0.930 . S
C1467 C1466 1.394 . S
C1467 C1468 1.383 . S
C1467 H1475 0.929 . S
C1468 C1467 1.383 . S
C1468 C1469 1.377 . S
C1469 H1453 0.930 . S
C1469 C1468 1.377 . S
C1469 C1470 1.379 . S
C1470 H1454 0.931 . S
C1470 C1464 1.383 . S
C1470 C1469 1.379 . S
H1471 C1465 0.959 . S
H1472 C1465 0.961 . S
H1473 C1465 0.960 . S
H1474 C1466 0.930 . S
H1475 C1467 0.929 . S
H1476 C1484 0.929 . S
H1477 C1486 0.930 . S
H1478 C1488 0.930 . S
H1479 C1491 0.929 . S
H1480 C1494 0.930 . S
H1481 C1496 0.960 . S
H1482 C1496 0.960 . S
H1483 C1496 0.960 . S
C1484 H1476 0.929 . S
C1484 C1485 1.377 . S
C1484 C1486 1.384 . S
C1485 C1484 1.377 . S
C1485 C1491 1.390 . S
C1486 H1477 0.930 . S
C1486 C1484 1.384 . S
C1486 C1487 1.372 . S
C1487 C1486 1.372 . S
C1487 C1488 1.400 . S
C1487 C1492 1.490 . S
C1488 H1478 0.930 . S
C1488 C1487 1.400 . S
C1488 C1491 1.386 . S
H1489 C1505 0.930 . S
H1490 C1506 0.931 . S
C1491 H1479 0.929 . S
C1491 C1485 1.390 . S
C1491 C1488 1.386 . S
C1492 C1487 1.490 . S
C1492 C1494 1.395 . S
C1492 C1495 1.403 . S
H1493 C1499 0.930 . S
C1494 H1480 0.930 . S
C1494 C1492 1.395 . S
C1494 C1497 1.403 . S
C1495 C1492 1.403 . S
C1495 C1496 1.524 . S
C1495 C1499 1.400 . S
C1496 H1481 0.960 . S
C1496 H1482 0.960 . S
C1496 H1483 0.960 . S
C1496 C1495 1.524 . S
C1497 C1494 1.403 . S
C1497 C1498 1.392 . S
C1497 C1501 1.495 . S
C1498 C1497 1.392 . S
C1498 C1499 1.385 . S
C1498 C1500 1.478 . S
C1499 H1493 0.930 . S
C1499 C1495 1.400 . S
C1499 C1498 1.385 . S
C1500 C1498 1.478 . S
C1500 C1502 1.381 . S
C1500 C1506 1.383 . S
C1501 C1497 1.495 . S
C1501 H1507 0.959 . S
C1501 H1508 0.961 . S
C1501 H1509 0.960 . S
C1502 C1500 1.381 . S
C1502 C1503 1.394 . S
C1502 H1510 0.930 . S
C1503 C1502 1.394 . S
C1503 C1504 1.383 . S
C1503 H1511 0.929 . S
C1504 C1503 1.383 . S
C1504 C1505 1.377 . S
C1505 H1489 0.930 . S
C1505 C1504 1.377 . S
C1505 C1506 1.379 . S
C1506 H1490 0.931 . S
C1506 C1500 1.383 . S
C1506 C1505 1.379 . S
H1507 C1501 0.959 . S
H1508 C1501 0.961 . S
H1509 C1501 0.960 . S
H1510 C1502 0.930 . S
H1511 C1503 0.929 . S
H1512 C1520 0.929 . S
H1513 C1522 0.930 . S
H1514 C1524 0.930 . S
H1515 C1527 0.929 . S
H1516 C1530 0.930 . S
H1517 C1532 0.960 . S
H1518 C1532 0.960 . S
H1519 C1532 0.960 . S
C1520 H1512 0.929 . S
C1520 C1521 1.377 . S
C1520 C1522 1.384 . S
C1521 C1520 1.377 . S
C1521 C1527 1.390 . S
C1522 H1513 0.930 . S
C1522 C1520 1.384 . S
C1522 C1523 1.372 . S
C1523 C1522 1.372 . S
C1523 C1524 1.400 . S
C1523 C1528 1.490 . S
C1524 H1514 0.930 . S
C1524 C1523 1.400 . S
C1524 C1527 1.386 . S
H1525 C1541 0.930 . S
H1526 C1542 0.931 . S
C1527 H1515 0.929 . S
C1527 C1521 1.390 . S
C1527 C1524 1.386 . S
C1528 C1523 1.490 . S
C1528 C1530 1.395 . S
C1528 C1531 1.403 . S
H1529 C1535 0.930 . S
C1530 H1516 0.930 . S
C1530 C1528 1.395 . S
C1530 C1533 1.403 . S
C1531 C1528 1.403 . S
C1531 C1532 1.524 . S
C1531 C1535 1.400 . S
C1532 H1517 0.960 . S
C1532 H1518 0.960 . S
C1532 H1519 0.960 . S
C1532 C1531 1.524 . S
C1533 C1530 1.403 . S
C1533 C1534 1.392 . S
C1533 C1537 1.495 . S
C1534 C1533 1.392 . S
C1534 C1535 1.385 . S
C1534 C1536 1.478 . S
C1535 H1529 0.930 . S
C1535 C1531 1.400 . S
C1535 C1534 1.385 . S
C1536 C1534 1.478 . S
C1536 C1538 1.381 . S
C1536 C1542 1.383 . S
C1537 C1533 1.495 . S
C1537 H1543 0.959 . S
C1537 H1544 0.961 . S
C1537 H1545 0.960 . S
C1538 C1536 1.381 . S
C1538 C1539 1.394 . S
C1538 H1546 0.930 . S
C1539 C1538 1.394 . S
C1539 C1540 1.383 . S
C1539 H1547 0.929 . S
C1540 C1539 1.383 . S
C1540 C1541 1.377 . S
C1541 H1525 0.930 . S
C1541 C1540 1.377 . S
C1541 C1542 1.379 . S
C1542 H1526 0.931 . S
C1542 C1536 1.383 . S
C1542 C1541 1.379 . S
H1543 C1537 0.959 . S
H1544 C1537 0.961 . S
H1545 C1537 0.960 . S
H1546 C1538 0.930 . S
H1547 C1539 0.929 . S
H1548 C1556 0.929 . S
H1549 C1558 0.930 . S
H1550 C1560 0.930 . S
H1551 C1563 0.929 . S
H1552 C1566 0.930 . S
H1553 C1568 0.960 . S
H1554 C1568 0.960 . S
H1555 C1568 0.960 . S
C1556 H1548 0.929 . S
C1556 C1557 1.377 . S
C1556 C1558 1.384 . S
C1557 C1556 1.377 . S
C1557 C1563 1.390 . S
C1558 H1549 0.930 . S
C1558 C1556 1.384 . S
C1558 C1559 1.372 . S
C1559 C1558 1.372 . S
C1559 C1560 1.400 . S
C1559 C1564 1.490 . S
C1560 H1550 0.930 . S
C1560 C1559 1.400 . S
C1560 C1563 1.386 . S
H1561 C1577 0.930 . S
H1562 C1578 0.931 . S
C1563 H1551 0.929 . S
C1563 C1557 1.390 . S
C1563 C1560 1.386 . S
C1564 C1559 1.490 . S
C1564 C1566 1.395 . S
C1564 C1567 1.403 . S
H1565 C1571 0.930 . S
C1566 H1552 0.930 . S
C1566 C1564 1.395 . S
C1566 C1569 1.403 . S
C1567 C1564 1.403 . S
C1567 C1568 1.524 . S
C1567 C1571 1.400 . S
C1568 H1553 0.960 . S
C1568 H1554 0.960 . S
C1568 H1555 0.960 . S
C1568 C1567 1.524 . S
C1569 C1566 1.403 . S
C1569 C1570 1.392 . S
C1569 C1573 1.495 . S
C1570 C1569 1.392 . S
C1570 C1571 1.385 . S
C1570 C1572 1.478 . S
C1571 H1565 0.930 . S
C1571 C1567 1.400 . S
C1571 C1570 1.385 . S
C1572 C1570 1.478 . S
C1572 C1574 1.381 . S
C1572 C1578 1.383 . S
C1573 C1569 1.495 . S
C1573 H1579 0.959 . S
C1573 H1580 0.961 . S
C1573 H1581 0.960 . S
C1574 C1572 1.381 . S
C1574 C1575 1.394 . S
C1574 H1582 0.930 . S
C1575 C1574 1.394 . S
C1575 C1576 1.383 . S
C1575 H1583 0.929 . S
C1576 C1575 1.383 . S
C1576 C1577 1.377 . S
C1577 H1561 0.930 . S
C1577 C1576 1.377 . S
C1577 C1578 1.379 . S
C1578 H1562 0.931 . S
C1578 C1572 1.383 . S
C1578 C1577 1.379 . S
H1579 C1573 0.959 . S
H1580 C1573 0.961 . S
H1581 C1573 0.960 . S
H1582 C1574 0.930 . S
H1583 C1575 0.929 . S
H1584 C1592 0.929 . S
H1585 C1594 0.930 . S
H1586 C1596 0.930 . S
H1587 C1599 0.929 . S
H1588 C1602 0.930 . S
H1589 C1604 0.960 . S
H1590 C1604 0.960 . S
H1591 C1604 0.960 . S
C1592 H1584 0.929 . S
C1592 C1593 1.377 . S
C1592 C1594 1.384 . S
C1593 C1592 1.377 . S
C1593 C1599 1.390 . S
C1594 H1585 0.930 . S
C1594 C1592 1.384 . S
C1594 C1595 1.372 . S
C1595 C1594 1.372 . S
C1595 C1596 1.400 . S
C1595 C1600 1.490 . S
C1596 H1586 0.930 . S
C1596 C1595 1.400 . S
C1596 C1599 1.386 . S
H1597 C1613 0.930 . S
H1598 C1614 0.931 . S
C1599 H1587 0.929 . S
C1599 C1593 1.390 . S
C1599 C1596 1.386 . S
C1600 C1595 1.490 . S
C1600 C1602 1.395 . S
C1600 C1603 1.403 . S
H1601 C1607 0.930 . S
C1602 H1588 0.930 . S
C1602 C1600 1.395 . S
C1602 C1605 1.403 . S
C1603 C1600 1.403 . S
C1603 C1604 1.524 . S
C1603 C1607 1.400 . S
C1604 H1589 0.960 . S
C1604 H1590 0.960 . S
C1604 H1591 0.960 . S
C1604 C1603 1.524 . S
C1605 C1602 1.403 . S
C1605 C1606 1.392 . S
C1605 C1609 1.495 . S
C1606 C1605 1.392 . S
C1606 C1607 1.385 . S
C1606 C1608 1.478 . S
C1607 H1601 0.930 . S
C1607 C1603 1.400 . S
C1607 C1606 1.385 . S
C1608 C1606 1.478 . S
C1608 C1610 1.381 . S
C1608 C1614 1.383 . S
C1609 C1605 1.495 . S
C1609 H1615 0.959 . S
C1609 H1616 0.961 . S
C1609 H1617 0.960 . S
C1610 C1608 1.381 . S
C1610 C1611 1.394 . S
C1610 H1618 0.930 . S
C1611 C1610 1.394 . S
C1611 C1612 1.383 . S
C1611 H1619 0.929 . S
C1612 C1611 1.383 . S
C1612 C1613 1.377 . S
C1613 H1597 0.930 . S
C1613 C1612 1.377 . S
C1613 C1614 1.379 . S
C1614 H1598 0.931 . S
C1614 C1608 1.383 . S
C1614 C1613 1.379 . S
H1615 C1609 0.959 . S
H1616 C1609 0.961 . S
H1617 C1609 0.960 . S
H1618 C1610 0.930 . S
H1619 C1611 0.929 . S
H1620 C1628 0.929 . S
H1621 C1630 0.930 . S
H1622 C1632 0.930 . S
H1623 C1635 0.929 . S
H1624 C1638 0.930 . S
H1625 C1640 0.960 . S
H1626 C1640 0.960 . S
H1627 C1640 0.960 . S
C1628 H1620 0.929 . S
C1628 C1629 1.377 . S
C1628 C1630 1.384 . S
C1629 C1628 1.377 . S
C1629 C1635 1.390 . S
C1630 H1621 0.930 . S
C1630 C1628 1.384 . S
C1630 C1631 1.372 . S
C1631 C1630 1.372 . S
C1631 C1632 1.400 . S
C1631 C1636 1.490 . S
C1632 H1622 0.930 . S
C1632 C1631 1.400 . S
C1632 C1635 1.386 . S
H1633 C1649 0.930 . S
H1634 C1650 0.931 . S
C1635 H1623 0.929 . S
C1635 C1629 1.390 . S
C1635 C1632 1.386 . S
C1636 C1631 1.490 . S
C1636 C1638 1.395 . S
C1636 C1639 1.403 . S
H1637 C1643 0.930 . S
C1638 H1624 0.930 . S
C1638 C1636 1.395 . S
C1638 C1641 1.403 . S
C1639 C1636 1.403 . S
C1639 C1640 1.524 . S
C1639 C1643 1.400 . S
C1640 H1625 0.960 . S
C1640 H1626 0.960 . S
C1640 H1627 0.960 . S
C1640 C1639 1.524 . S
C1641 C1638 1.403 . S
C1641 C1642 1.392 . S
C1641 C1645 1.495 . S
C1642 C1641 1.392 . S
C1642 C1643 1.385 . S
C1642 C1644 1.478 . S
C1643 H1637 0.930 . S
C1643 C1639 1.400 . S
C1643 C1642 1.385 . S
C1644 C1642 1.478 . S
C1644 C1646 1.381 . S
C1644 C1650 1.383 . S
C1645 C1641 1.495 . S
C1645 H1651 0.959 . S
C1645 H1652 0.961 . S
C1645 H1653 0.960 . S
C1646 C1644 1.381 . S
C1646 C1647 1.394 . S
C1646 H1654 0.930 . S
C1647 C1646 1.394 . S
C1647 C1648 1.383 . S
C1647 H1655 0.929 . S
C1648 C1647 1.383 . S
C1648 C1649 1.377 . S
C1649 H1633 0.930 . S
C1649 C1648 1.377 . S
C1649 C1650 1.379 . S
C1650 H1634 0.931 . S
C1650 C1644 1.383 . S
C1650 C1649 1.379 . S
H1651 C1645 0.959 . S
H1652 C1645 0.961 . S
H1653 C1645 0.960 . S
H1654 C1646 0.930 . S
H1655 C1647 0.929 . S
H1656 C1664 0.929 . S
H1657 C1666 0.930 . S
H1658 C1668 0.930 . S
H1659 C1671 0.929 . S
H1660 C1674 0.930 . S
H1661 C1676 0.960 . S
H1662 C1676 0.960 . S
H1663 C1676 0.960 . S
C1664 H1656 0.929 . S
C1664 C1665 1.377 . S
C1664 C1666 1.384 . S
C1665 C1664 1.377 . S
C1665 C1671 1.390 . S
C1666 H1657 0.930 . S
C1666 C1664 1.384 . S
C1666 C1667 1.372 . S
C1667 C1666 1.372 . S
C1667 C1668 1.400 . S
C1667 C1672 1.490 . S
C1668 H1658 0.930 . S
C1668 C1667 1.400 . S
C1668 C1671 1.386 . S
H1669 C1685 0.930 . S
H1670 C1686 0.931 . S
C1671 H1659 0.929 . S
C1671 C1665 1.390 . S
C1671 C1668 1.386 . S
C1672 C1667 1.490 . S
C1672 C1674 1.395 . S
C1672 C1675 1.403 . S
H1673 C1679 0.930 . S
C1674 H1660 0.930 . S
C1674 C1672 1.395 . S
C1674 C1677 1.403 . S
C1675 C1672 1.403 . S
C1675 C1676 1.524 . S
C1675 C1679 1.400 . S
C1676 H1661 0.960 . S
C1676 H1662 0.960 . S
C1676 H1663 0.960 . S
C1676 C1675 1.524 . S
C1677 C1674 1.403 . S
C1677 C1678 1.392 . S
C1677 C1681 1.495 . S
C1678 C1677 1.392 . S
C1678 C1679 1.385 . S
C1678 C1680 1.478 . S
C1679 H1673 0.930 . S
C1679 C1675 1.400 . S
C1679 C1678 1.385 . S
C1680 C1678 1.478 . S
C1680 C1682 1.381 . S
C1680 C1686 1.383 . S
C1681 C1677 1.495 . S
C1681 H1687 0.959 . S
C1681 H1688 0.961 . S
C1681 H1689 0.960 . S
C1682 C1680 1.381 . S
C1682 C1683 1.394 . S
C1682 H1690 0.930 . S
C1683 C1682 1.394 . S
C1683 C1684 1.383 . S
C1683 H1691 0.929 . S
C1684 C1683 1.383 . S
C1684 C1685 1.377 . S
C1685 H1669 0.930 . S
C1685 C1684 1.377 . S
C1685 C1686 1.379 . S
C1686 H1670 0.931 . S
C1686 C1680 1.383 . S
C1686 C1685 1.379 . S
H1687 C1681 0.959 . S
H1688 C1681 0.961 . S
H1689 C1681 0.960 . S
H1690 C1682 0.930 . S
H1691 C1683 0.929 . S
H1692 C1700 0.929 . S
H1693 C1702 0.930 . S
H1694 C1704 0.930 . S
H1695 C1707 0.929 . S
H1696 C1710 0.930 . S
H1697 C1712 0.960 . S
H1698 C1712 0.960 . S
H1699 C1712 0.960 . S
C1700 H1692 0.929 . S
C1700 C1701 1.377 . S
C1700 C1702 1.384 . S
C1701 C1700 1.377 . S
C1701 C1707 1.390 . S
C1702 H1693 0.930 . S
C1702 C1700 1.384 . S
C1702 C1703 1.372 . S
C1703 C1702 1.372 . S
C1703 C1704 1.400 . S
C1703 C1708 1.490 . S
C1704 H1694 0.930 . S
C1704 C1703 1.400 . S
C1704 C1707 1.386 . S
H1705 C1721 0.930 . S
H1706 C1722 0.931 . S
C1707 H1695 0.929 . S
C1707 C1701 1.390 . S
C1707 C1704 1.386 . S
C1708 C1703 1.490 . S
C1708 C1710 1.395 . S
C1708 C1711 1.403 . S
H1709 C1715 0.930 . S
C1710 H1696 0.930 . S
C1710 C1708 1.395 . S
C1710 C1713 1.403 . S
C1711 C1708 1.403 . S
C1711 C1712 1.524 . S
C1711 C1715 1.400 . S
C1712 H1697 0.960 . S
C1712 H1698 0.960 . S
C1712 H1699 0.960 . S
C1712 C1711 1.524 . S
C1713 C1710 1.403 . S
C1713 C1714 1.392 . S
C1713 C1717 1.495 . S
C1714 C1713 1.392 . S
C1714 C1715 1.385 . S
C1714 C1716 1.478 . S
C1715 H1709 0.930 . S
C1715 C1711 1.400 . S
C1715 C1714 1.385 . S
C1716 C1714 1.478 . S
C1716 C1718 1.381 . S
C1716 C1722 1.383 . S
C1717 C1713 1.495 . S
C1717 H1723 0.959 . S
C1717 H1724 0.961 . S
C1717 H1725 0.960 . S
C1718 C1716 1.381 . S
C1718 C1719 1.394 . S
C1718 H1726 0.930 . S
C1719 C1718 1.394 . S
C1719 C1720 1.383 . S
C1719 H1727 0.929 . S
C1720 C1719 1.383 . S
C1720 C1721 1.377 . S
C1721 H1705 0.930 . S
C1721 C1720 1.377 . S
C1721 C1722 1.379 . S
C1722 H1706 0.931 . S
C1722 C1716 1.383 . S
C1722 C1721 1.379 . S
H1723 C1717 0.959 . S
H1724 C1717 0.961 . S
H1725 C1717 0.960 . S
H1726 C1718 0.930 . S
H1727 C1719 0.929 . S
H1728 C1736 0.929 . S
H1729 C1738 0.930 . S
H1730 C1740 0.930 . S
H1731 C1743 0.929 . S
H1732 C1746 0.930 . S
H1733 C1748 0.960 . S
H1734 C1748 0.960 . S
H1735 C1748 0.960 . S
C1736 H1728 0.929 . S
C1736 C1737 1.377 . S
C1736 C1738 1.384 . S
C1737 C1736 1.377 . S
C1737 C1743 1.390 . S
C1738 H1729 0.930 . S
C1738 C1736 1.384 . S
C1738 C1739 1.372 . S
C1739 C1738 1.372 . S
C1739 C1740 1.400 . S
C1739 C1744 1.490 . S
C1740 H1730 0.930 . S
C1740 C1739 1.400 . S
C1740 C1743 1.386 . S
H1741 C1757 0.930 . S
H1742 C1758 0.931 . S
C1743 H1731 0.929 . S
C1743 C1737 1.390 . S
C1743 C1740 1.386 . S
C1744 C1739 1.490 . S
C1744 C1746 1.395 1_455 S
C1744 C1747 1.403 . S
H1745 C1751 0.930 . S
C1746 H1732 0.930 . S
C1746 C1744 1.395 1_655 S
C1746 C1749 1.403 . S
C1747 C1744 1.403 . S
C1747 C1748 1.524 . S
C1747 C1751 1.400 . S
C1748 H1733 0.960 . S
C1748 H1734 0.960 . S
C1748 H1735 0.960 . S
C1748 C1747 1.524 . S
C1749 C1746 1.403 . S
C1749 C1750 1.392 . S
C1749 C1753 1.495 . S
C1750 C1749 1.392 . S
C1750 C1751 1.385 1_655 S
C1750 C1752 1.478 . S
C1751 H1745 0.930 . S
C1751 C1747 1.400 . S
C1751 C1750 1.385 1_455 S
C1752 C1750 1.478 . S
C1752 C1754 1.381 . S
C1752 C1758 1.383 . S
C1753 C1749 1.495 . S
C1753 H1759 0.959 . S
C1753 H1760 0.961 . S
C1753 H1761 0.960 . S
C1754 C1752 1.381 . S
C1754 C1755 1.394 . S
C1754 H1762 0.930 . S
C1755 C1754 1.394 . S
C1755 C1756 1.383 . S
C1755 H1763 0.929 . S
C1756 C1755 1.383 . S
C1756 C1757 1.377 . S
C1757 H1741 0.930 . S
C1757 C1756 1.377 . S
C1757 C1758 1.379 . S
C1758 H1742 0.931 . S
C1758 C1752 1.383 . S
C1758 C1757 1.379 . S
H1759 C1753 0.959 . S
H1760 C1753 0.961 . S
H1761 C1753 0.960 . S
H1762 C1754 0.930 . S
H1763 C1755 0.929 . S
H1764 C1772 0.929 . S
H1765 C1774 0.930 . S
H1766 C1776 0.930 . S
H1767 C1779 0.929 . S
H1768 C1782 0.930 . S
H1769 C1784 0.960 . S
H1770 C1784 0.960 . S
H1771 C1784 0.960 . S
C1772 H1764 0.929 . S
C1772 C1773 1.377 . S
C1772 C1774 1.384 . S
C1773 C1772 1.377 . S
C1773 C1779 1.390 . S
C1774 H1765 0.930 . S
C1774 C1772 1.384 . S
C1774 C1775 1.372 . S
C1775 C1774 1.372 . S
C1775 C1776 1.400 . S
C1775 C1780 1.490 . S
C1776 H1766 0.930 . S
C1776 C1775 1.400 . S
C1776 C1779 1.386 . S
H1777 C1793 0.930 . S
H1778 C1794 0.931 . S
C1779 H1767 0.929 . S
C1779 C1773 1.390 . S
C1779 C1776 1.386 . S
C1780 C1775 1.490 . S
C1780 C1782 1.395 . S
C1780 C1783 1.403 . S
H1781 C1787 0.930 . S
C1782 H1768 0.930 . S
C1782 C1780 1.395 . S
C1782 C1785 1.403 . S
C1783 C1780 1.403 . S
C1783 C1784 1.524 . S
C1783 C1787 1.400 . S
C1784 H1769 0.960 . S
C1784 H1770 0.960 . S
C1784 H1771 0.960 . S
C1784 C1783 1.524 . S
C1785 C1782 1.403 . S
C1785 C1786 1.392 . S
C1785 C1789 1.495 . S
C1786 C1785 1.392 . S
C1786 C1787 1.385 . S
C1786 C1788 1.478 . S
C1787 H1781 0.930 . S
C1787 C1783 1.400 . S
C1787 C1786 1.385 . S
C1788 C1786 1.478 . S
C1788 C1790 1.381 . S
C1788 C1794 1.383 . S
C1789 C1785 1.495 . S
C1789 H1795 0.959 . S
C1789 H1796 0.961 . S
C1789 H1797 0.960 . S
C1790 C1788 1.381 . S
C1790 C1791 1.394 . S
C1790 H1798 0.930 . S
C1791 C1790 1.394 . S
C1791 C1792 1.383 . S
C1791 H1799 0.929 . S
C1792 C1791 1.383 . S
C1792 C1793 1.377 . S
C1793 H1777 0.930 . S
C1793 C1792 1.377 . S
C1793 C1794 1.379 . S
C1794 H1778 0.931 . S
C1794 C1788 1.383 . S
C1794 C1793 1.379 . S
H1795 C1789 0.959 . S
H1796 C1789 0.961 . S
H1797 C1789 0.960 . S
H1798 C1790 0.930 . S
H1799 C1791 0.929 . S
H1800 C1808 0.929 . S
H1801 C1810 0.930 . S
H1802 C1812 0.930 . S
H1803 C1815 0.929 . S
H1804 C1818 0.930 . S
H1805 C1820 0.960 . S
H1806 C1820 0.960 . S
H1807 C1820 0.960 . S
C1808 H1800 0.929 . S
C1808 C1809 1.377 . S
C1808 C1810 1.384 . S
C1809 C1808 1.377 . S
C1809 C1815 1.390 . S
C1810 H1801 0.930 . S
C1810 C1808 1.384 . S
C1810 C1811 1.372 . S
C1811 C1810 1.372 . S
C1811 C1812 1.400 . S
C1811 C1816 1.490 . S
C1812 H1802 0.930 . S
C1812 C1811 1.400 . S
C1812 C1815 1.386 . S
H1813 C1829 0.930 . S
H1814 C1830 0.931 . S
C1815 H1803 0.929 . S
C1815 C1809 1.390 . S
C1815 C1812 1.386 . S
C1816 C1811 1.490 . S
C1816 C1818 1.395 . S
C1816 C1819 1.403 . S
H1817 C1823 0.930 . S
C1818 H1804 0.930 . S
C1818 C1816 1.395 . S
C1818 C1821 1.403 1_545 S
C1819 C1816 1.403 . S
C1819 C1820 1.524 . S
C1819 C1823 1.400 1_545 S
C1820 H1805 0.960 . S
C1820 H1806 0.960 . S
C1820 H1807 0.960 . S
C1820 C1819 1.524 . S
C1821 C1818 1.403 1_565 S
C1821 C1822 1.392 . S
C1821 C1825 1.495 . S
C1822 C1821 1.392 . S
C1822 C1823 1.385 . S
C1822 C1824 1.478 . S
C1823 H1817 0.930 . S
C1823 C1819 1.400 1_565 S
C1823 C1822 1.385 . S
C1824 C1822 1.478 . S
C1824 C1826 1.381 . S
C1824 C1830 1.383 . S
C1825 C1821 1.495 . S
C1825 H1831 0.959 . S
C1825 H1832 0.961 . S
C1825 H1833 0.960 . S
C1826 C1824 1.381 . S
C1826 C1827 1.394 . S
C1826 H1834 0.930 . S
C1827 C1826 1.394 . S
C1827 C1828 1.383 . S
C1827 H1835 0.929 . S
C1828 C1827 1.383 . S
C1828 C1829 1.377 . S
C1829 H1813 0.930 . S
C1829 C1828 1.377 . S
C1829 C1830 1.379 . S
C1830 H1814 0.931 . S
C1830 C1824 1.383 . S
C1830 C1829 1.379 . S
H1831 C1825 0.959 . S
H1832 C1825 0.961 . S
H1833 C1825 0.960 . S
H1834 C1826 0.930 . S
H1835 C1827 0.929 . S
H1836 C1844 0.929 . S
H1837 C1846 0.930 . S
H1838 C1848 0.930 . S
H1839 C1851 0.929 . S
H1840 C1854 0.930 . S
H1841 C1856 0.960 . S
H1842 C1856 0.960 . S
H1843 C1856 0.960 . S
C1844 H1836 0.929 . S
C1844 C1845 1.377 . S
C1844 C1846 1.384 . S
C1845 C1844 1.377 . S
C1845 C1851 1.390 . S
C1846 H1837 0.930 . S
C1846 C1844 1.384 . S
C1846 C1847 1.372 . S
C1847 C1846 1.372 . S
C1847 C1848 1.400 . S
C1847 C1852 1.490 . S
C1848 H1838 0.930 . S
C1848 C1847 1.400 . S
C1848 C1851 1.386 . S
H1849 C1865 0.930 . S
H1850 C1866 0.931 . S
C1851 H1839 0.929 . S
C1851 C1845 1.390 . S
C1851 C1848 1.386 . S
C1852 C1847 1.490 . S
C1852 C1854 1.395 . S
C1852 C1855 1.403 1_565 S
H1853 C1859 0.930 . S
C1854 H1840 0.930 . S
C1854 C1852 1.395 . S
C1854 C1857 1.403 1_554 S
C1855 C1852 1.403 1_545 S
C1855 C1856 1.524 . S
C1855 C1859 1.400 1_554 S
C1856 H1841 0.960 . S
C1856 H1842 0.960 . S
C1856 H1843 0.960 . S
C1856 C1855 1.524 . S
C1857 C1854 1.403 1_556 S
C1857 C1858 1.392 1_565 S
C1857 C1861 1.495 . S
C1858 C1857 1.392 1_545 S
C1858 C1859 1.385 . S
C1858 C1860 1.478 . S
C1859 H1853 0.930 . S
C1859 C1855 1.400 1_556 S
C1859 C1858 1.385 . S
C1860 C1858 1.478 . S
C1860 C1862 1.381 . S
C1860 C1866 1.383 . S
C1861 C1857 1.495 . S
C1861 H1867 0.959 . S
C1861 H1868 0.961 . S
C1861 H1869 0.960 . S
C1862 C1860 1.381 . S
C1862 C1863 1.394 . S
C1862 H1870 0.930 . S
C1863 C1862 1.394 . S
C1863 C1864 1.383 . S
C1863 H1871 0.929 . S
C1864 C1863 1.383 . S
C1864 C1865 1.377 . S
C1865 H1849 0.930 . S
C1865 C1864 1.377 . S
C1865 C1866 1.379 . S
C1866 H1850 0.931 . S
C1866 C1860 1.383 . S
C1866 C1865 1.379 . S
H1867 C1861 0.959 . S
H1868 C1861 0.961 . S
H1869 C1861 0.960 . S
H1870 C1862 0.930 . S
H1871 C1863 0.929 . S
H1872 C1880 0.929 . S
H1873 C1882 0.930 . S
H1874 C1884 0.930 . S
H1875 C1887 0.929 . S
H1876 C1890 0.930 . S
H1877 C1892 0.960 1_455 S
H1878 C1892 0.952 1_455 S
H1879 C1892 0.960 . S
C1880 H1872 0.929 . S
C1880 C1881 1.377 . S
C1880 C1882 1.384 . S
C1881 C1880 1.377 . S
C1881 C1887 1.390 . S
C1882 H1873 0.930 . S
C1882 C1880 1.384 . S
C1882 C1883 1.372 . S
C1883 C1882 1.372 . S
C1883 C1884 1.400 . S
C1883 C1888 1.490 . S
C1884 H1874 0.930 . S
C1884 C1883 1.400 . S
C1884 C1887 1.386 . S
H1885 C1901 0.930 . S
H1886 C1902 0.931 . S
C1887 H1875 0.929 . S
C1887 C1881 1.390 . S
C1887 C1884 1.386 . S
C1888 C1883 1.490 . S
C1888 C1890 1.395 . S
C1888 C1891 1.403 . S
H1889 C1895 0.930 . S
C1890 H1876 0.930 . S
C1890 C1888 1.395 . S
C1890 C1893 1.403 1_656 S
C1891 C1888 1.403 . S
C1891 C1892 1.524 . S
C1891 C1895 1.400 1_656 S
C1892 H1877 0.960 1_655 S
C1892 H1878 0.952 1_655 S
C1892 H1879 0.960 . S
C1892 C1891 1.524 . S
C1893 C1890 1.403 1_454 S
C1893 C1894 1.392 . S
C1893 C1897 1.495 . S
C1894 C1893 1.392 . S
C1894 C1895 1.385 . S
C1894 C1896 1.478 . S
C1895 H1889 0.930 . S
C1895 C1891 1.400 1_454 S
C1895 C1894 1.385 . S
C1896 C1894 1.478 . S
C1896 C1898 1.381 . S
C1896 C1902 1.383 . S
C1897 C1893 1.495 . S
C1897 H1903 0.959 . S
C1897 H1904 0.961 . S
C1897 H1905 0.960 . S
C1898 C1896 1.381 . S
C1898 C1899 1.394 . S
C1898 H1906 0.930 . S
C1899 C1898 1.394 . S
C1899 C1900 1.383 . S
C1899 H1907 0.929 . S
C1900 C1899 1.383 . S
C1900 C1901 1.377 . S
C1901 H1885 0.930 . S
C1901 C1900 1.377 . S
C1901 C1902 1.379 . S
C1902 H1886 0.931 . S
C1902 C1896 1.383 . S
C1902 C1901 1.379 . S
H1903 C1897 0.959 . S
H1904 C1897 0.961 . S
H1905 C1897 0.960 . S
H1906 C1898 0.930 . S
H1907 C1899 0.929 . S
H1908 C1916 0.929 . S
H1909 C1918 0.930 . S
H1910 C1920 0.930 . S
H1911 C1923 0.929 . S
H1912 C1926 0.930 . S
H1913 C1928 0.960 1_554 S
H1914 C1928 0.970 . S
H1915 C1928 0.960 . S
C1916 H1908 0.929 . S
C1916 C1917 1.377 . S
C1916 C1918 1.384 . S
C1917 C1916 1.377 . S
C1917 C1923 1.390 . S
C1918 H1909 0.930 . S
C1918 C1916 1.384 . S
C1918 C1919 1.372 . S
C1919 C1918 1.372 . S
C1919 C1920 1.400 . S
C1919 C1924 1.490 . S
C1920 H1910 0.930 . S
C1920 C1919 1.400 . S
C1920 C1923 1.386 . S
H1921 C1937 0.930 . S
H1922 C1938 0.931 . S
C1923 H1911 0.929 . S
C1923 C1917 1.390 . S
C1923 C1920 1.386 . S
C1924 C1919 1.490 . S
C1924 C1926 1.395 . S
C1924 C1927 1.481 . S
H1925 C1931 0.930 . S
C1926 H1912 0.930 . S
C1926 C1924 1.395 . S
C1926 C1929 1.315 1_556 S
C1927 C1924 1.481 . S
C1927 C1928 1.531 . S
C1927 C1931 1.318 1_556 S
C1928 H1913 0.960 1_556 S
C1928 H1914 0.970 . S
C1928 H1915 0.960 . S
C1928 C1927 1.531 . S
C1929 C1926 1.315 1_554 S
C1929 C1930 1.475 . S
C1929 C1933 1.507 . S
C1930 C1929 1.475 . S
C1930 C1931 1.385 . S
C1930 C1932 1.478 . S
C1931 H1925 0.930 . S
C1931 C1927 1.318 1_554 S
C1931 C1930 1.385 . S
C1932 C1930 1.478 . S
C1932 C1934 1.381 . S
C1932 C1938 1.383 . S
C1933 C1929 1.507 . S
C1933 H1939 0.959 1_554 S
C1933 H1940 0.961 . S
C1933 H1941 0.960 . S
C1934 C1932 1.381 . S
C1934 C1935 1.394 . S
C1934 H1942 0.930 . S
C1935 C1934 1.394 . S
C1935 C1936 1.383 . S
C1935 H1943 0.929 . S
C1936 C1935 1.383 . S
C1936 C1937 1.377 . S
C1937 H1921 0.930 . S
C1937 C1936 1.377 . S
C1937 C1938 1.379 . S
C1938 H1922 0.931 . S
C1938 C1932 1.383 . S
C1938 C1937 1.379 . S
H1939 C1933 0.959 1_556 S
H1940 C1933 0.961 . S
H1941 C1933 0.960 . S
H1942 C1934 0.930 . S
H1943 C1935 0.929 . S
H1944 C1952 0.929 . S
H1945 C1954 0.930 1_565 S
H1946 C1956 0.930 . S
H1947 C1959 0.929 . S
H1948 C1962 0.930 . S
H1949 C1964 0.960 . S
H1950 C1964 0.960 . S
H1951 C1964 0.960 . S
C1952 H1944 0.929 . S
C1952 C1953 1.377 . S
C1952 C1954 1.384 . S
C1953 C1952 1.377 . S
C1953 C1959 1.390 . S
C1954 H1945 0.930 1_545 S
C1954 C1952 1.384 . S
C1954 C1955 1.372 . S
C1955 C1954 1.372 . S
C1955 C1956 1.400 . S
C1955 C1960 1.490 1_545 S
C1956 H1946 0.930 . S
C1956 C1955 1.400 . S
C1956 C1959 1.386 . S
H1957 C1973 0.930 . S
H1958 C1974 0.931 . S
C1959 H1947 0.929 . S
C1959 C1953 1.390 . S
C1959 C1956 1.386 . S
C1960 C1955 1.490 1_565 S
C1960 C1962 1.395 . S
C1960 C1963 1.403 1_565 S
H1961 C1967 0.930 1_545 S
C1962 H1948 0.930 . S
C1962 C1960 1.395 . S
C1962 C1965 1.403 . S
C1963 C1960 1.403 1_545 S
C1963 C1964 1.524 . S
C1963 C1967 1.400 1_545 S
C1964 H1949 0.960 . S
C1964 H1950 0.960 . S
C1964 H1951 0.960 . S
C1964 C1963 1.524 . S
C1965 C1962 1.403 . S
C1965 C1966 1.392 . S
C1965 C1969 1.495 . S
C1966 C1965 1.392 . S
C1966 C1967 1.385 . S
C1966 C1968 1.478 . S
C1967 H1961 0.930 1_565 S
C1967 C1963 1.400 1_565 S
C1967 C1966 1.385 . S
C1968 C1966 1.478 . S
C1968 C1970 1.381 . S
C1968 C1974 1.383 . S
C1969 C1965 1.495 . S
C1969 H1975 0.959 . S
C1969 H1976 0.961 . S
C1969 H1977 0.960 . S
C1970 C1968 1.381 . S
C1970 C1971 1.394 . S
C1970 H1978 0.930 . S
C1971 C1970 1.394 . S
C1971 C1972 1.383 . S
C1971 H1979 0.929 . S
C1972 C1971 1.383 . S
C1972 C1973 1.377 . S
C1973 H1957 0.930 . S
C1973 C1972 1.377 . S
C1973 C1974 1.379 . S
C1974 H1958 0.931 . S
C1974 C1968 1.383 . S
C1974 C1973 1.379 . S
H1975 C1969 0.959 . S
H1976 C1969 0.961 . S
H1977 C1969 0.960 . S
H1978 C1970 0.930 . S
H1979 C1971 0.929 . S
H1980 C1988 0.929 . S
H1981 C1990 0.930 . S
H1982 C1992 0.930 . S
H1983 C1995 0.929 . S
H1984 C1998 0.930 . S
H1985 C2000 0.960 . S
H1986 C2000 0.960 . S
H1987 C2000 0.960 . S
C1988 H1980 0.929 . S
C1988 C1989 1.377 . S
C1988 C1990 1.384 . S
C1989 C1988 1.377 . S
C1989 C1995 1.390 . S
C1990 H1981 0.930 . S
C1990 C1988 1.384 . S
C1990 C1991 1.372 . S
C1991 C1990 1.372 . S
C1991 C1992 1.400 . S
C1991 C1996 1.490 . S
C1992 H1982 0.930 . S
C1992 C1991 1.400 . S
C1992 C1995 1.386 . S
H1993 C2009 0.930 . S
H1994 C2010 0.931 . S
C1995 H1983 0.929 . S
C1995 C1989 1.390 . S
C1995 C1992 1.386 . S
C1996 C1991 1.490 . S
C1996 C1998 1.395 . S
C1996 C1999 1.403 . S
H1997 C2003 0.930 . S
C1998 H1984 0.930 . S
C1998 C1996 1.395 . S
C1998 C2001 1.403 . S
C1999 C1996 1.403 . S
C1999 C2000 1.524 1_455 S
C1999 C2003 1.400 1_455 S
C2000 H1985 0.960 . S
C2000 H1986 0.960 . S
C2000 H1987 0.960 . S
C2000 C1999 1.524 1_655 S
C2001 C1998 1.403 . S
C2001 C2002 1.392 . S
C2001 C2005 1.495 . S
C2002 C2001 1.392 . S
C2002 C2003 1.385 1_455 S
C2002 C2004 1.478 1_455 S
C2003 H1997 0.930 . S
C2003 C1999 1.400 1_655 S
C2003 C2002 1.385 1_655 S
C2004 C2002 1.478 1_655 S
C2004 C2006 1.381 . S
C2004 C2010 1.383 . S
C2005 C2001 1.495 . S
C2005 H2011 0.959 . S
C2005 H2012 0.961 . S
C2005 H2013 0.960 . S
C2006 C2004 1.381 . S
C2006 C2007 1.394 . S
C2006 H2014 0.930 1_655 S
C2007 C2006 1.394 . S
C2007 C2008 1.383 . S
C2007 H2015 0.929 . S
C2008 C2007 1.383 . S
C2008 C2009 1.377 . S
C2009 H1993 0.930 . S
C2009 C2008 1.377 . S
C2009 C2010 1.379 . S
C2010 H1994 0.931 . S
C2010 C2004 1.383 . S
C2010 C2009 1.379 . S
H2011 C2005 0.959 . S
H2012 C2005 0.961 . S
H2013 C2005 0.960 . S
H2014 C2006 0.930 1_455 S
H2015 C2007 0.929 . S
H2016 C2024 0.929 . S
H2017 C2026 0.930 . S
H2018 C2028 0.930 . S
H2019 C2031 0.929 . S
H2020 C2034 0.930 . S
H2021 C2036 0.960 . S
H2022 C2036 0.960 . S
H2023 C2036 0.960 . S
C2024 H2016 0.929 . S
C2024 C2025 1.377 . S
C2024 C2026 1.384 . S
C2025 C2024 1.377 . S
C2025 C2031 1.390 . S
C2026 H2017 0.930 . S
C2026 C2024 1.384 . S
C2026 C2027 1.372 . S
C2027 C2026 1.372 . S
C2027 C2028 1.400 . S
C2027 C2032 1.490 . S
C2028 H2018 0.930 . S
C2028 C2027 1.400 . S
C2028 C2031 1.386 . S
H2029 C2045 0.930 . S
H2030 C2046 0.931 . S
C2031 H2019 0.929 . S
C2031 C2025 1.390 . S
C2031 C2028 1.386 . S
C2032 C2027 1.490 . S
C2032 C2034 1.395 . S
C2032 C2035 1.403 . S
H2033 C2039 0.930 . S
C2034 H2020 0.930 . S
C2034 C2032 1.395 . S
C2034 C2037 1.403 . S
C2035 C2032 1.403 . S
C2035 C2036 1.524 . S
C2035 C2039 1.400 . S
C2036 H2021 0.960 . S
C2036 H2022 0.960 . S
C2036 H2023 0.960 . S
C2036 C2035 1.524 . S
C2037 C2034 1.403 . S
C2037 C2038 1.392 . S
C2037 C2041 1.495 . S
C2038 C2037 1.392 . S
C2038 C2039 1.385 . S
C2038 C2040 1.478 . S
C2039 H2033 0.930 . S
C2039 C2035 1.400 . S
C2039 C2038 1.385 . S
C2040 C2038 1.478 . S
C2040 C2042 1.381 . S
C2040 C2046 1.383 . S
C2041 C2037 1.495 . S
C2041 H2047 0.959 . S
C2041 H2048 0.961 . S
C2041 H2049 0.960 . S
C2042 C2040 1.381 . S
C2042 C2043 1.394 . S
C2042 H2050 0.930 . S
C2043 C2042 1.394 . S
C2043 C2044 1.383 . S
C2043 H2051 0.929 . S
C2044 C2043 1.383 . S
C2044 C2045 1.377 . S
C2045 H2029 0.930 . S
C2045 C2044 1.377 . S
C2045 C2046 1.379 . S
C2046 H2030 0.931 . S
C2046 C2040 1.383 . S
C2046 C2045 1.379 . S
H2047 C2041 0.959 . S
H2048 C2041 0.961 . S
H2049 C2041 0.960 . S
H2050 C2042 0.930 . S
H2051 C2043 0.929 . S
H2052 C2060 0.929 . S
H2053 C2062 0.930 . S
H2054 C2064 0.930 . S
H2055 C2067 0.929 . S
H2056 C2070 0.930 . S
H2057 C2072 0.960 . S
H2058 C2072 0.960 . S
H2059 C2072 0.960 . S
C2060 H2052 0.929 . S
C2060 C2061 1.377 . S
C2060 C2062 1.384 . S
C2061 C2060 1.377 . S
C2061 C2067 1.390 . S
C2062 H2053 0.930 . S
C2062 C2060 1.384 . S
C2062 C2063 1.372 . S
C2063 C2062 1.372 . S
C2063 C2064 1.400 . S
C2063 C2068 1.490 . S
C2064 H2054 0.930 . S
C2064 C2063 1.400 . S
C2064 C2067 1.386 . S
H2065 C2081 0.930 . S
H2066 C2082 0.931 1_655 S
C2067 H2055 0.929 . S
C2067 C2061 1.390 . S
C2067 C2064 1.386 . S
C2068 C2063 1.490 . S
C2068 C2070 1.395 . S
C2068 C2071 1.403 . S
H2069 C2075 0.930 . S
C2070 H2056 0.930 . S
C2070 C2068 1.395 . S
C2070 C2073 1.403 1_655 S
C2071 C2068 1.403 . S
C2071 C2072 1.524 . S
C2071 C2075 1.400 . S
C2072 H2057 0.960 . S
C2072 H2058 0.960 . S
C2072 H2059 0.960 . S
C2072 C2071 1.524 . S
C2073 C2070 1.403 1_455 S
C2073 C2074 1.392 . S
C2073 C2077 1.495 . S
C2074 C2073 1.392 . S
C2074 C2075 1.385 1_455 S
C2074 C2076 1.478 . S
C2075 H2069 0.930 . S
C2075 C2071 1.400 . S
C2075 C2074 1.385 1_655 S
C2076 C2074 1.478 . S
C2076 C2078 1.381 . S
C2076 C2082 1.383 . S
C2077 C2073 1.495 . S
C2077 H2083 0.959 . S
C2077 H2084 0.961 . S
C2077 H2085 0.960 . S
C2078 C2076 1.381 . S
C2078 C2079 1.394 . S
C2078 H2086 0.930 . S
C2079 C2078 1.394 . S
C2079 C2080 1.383 . S
C2079 H2087 0.929 . S
C2080 C2079 1.383 . S
C2080 C2081 1.377 . S
C2081 H2065 0.930 . S
C2081 C2080 1.377 . S
C2081 C2082 1.379 . S
C2082 H2066 0.931 1_455 S
C2082 C2076 1.383 . S
C2082 C2081 1.379 . S
H2083 C2077 0.959 . S
H2084 C2077 0.961 . S
H2085 C2077 0.960 . S
H2086 C2078 0.930 . S
H2087 C2079 0.929 . S
H2088 C2096 0.929 . S
H2089 C2098 0.930 . S
H2090 C2100 0.930 . S
H2091 C2103 0.929 . S
H2092 C2106 0.930 . S
H2093 C2108 0.960 . S
H2094 C2108 0.960 . S
H2095 C2108 0.960 . S
C2096 H2088 0.929 . S
C2096 C2097 1.377 . S
C2096 C2098 1.384 . S
C2097 C2096 1.377 . S
C2097 C2103 1.390 . S
C2098 H2089 0.930 . S
C2098 C2096 1.384 . S
C2098 C2099 1.372 . S
C2099 C2098 1.372 . S
C2099 C2100 1.400 . S
C2099 C2104 1.490 . S
C2100 H2090 0.930 . S
C2100 C2099 1.400 . S
C2100 C2103 1.386 . S
H2101 C2117 0.930 . S
H2102 C2118 0.931 . S
C2103 H2091 0.929 . S
C2103 C2097 1.390 . S
C2103 C2100 1.386 . S
C2104 C2099 1.490 . S
C2104 C2106 1.395 . S
C2104 C2107 1.403 . S
H2105 C2111 0.930 . S
C2106 H2092 0.930 . S
C2106 C2104 1.395 . S
C2106 C2109 1.403 . S
C2107 C2104 1.403 . S
C2107 C2108 1.524 . S
C2107 C2111 1.400 . S
C2108 H2093 0.960 . S
C2108 H2094 0.960 . S
C2108 H2095 0.960 . S
C2108 C2107 1.524 . S
C2109 C2106 1.403 . S
C2109 C2110 1.392 . S
C2109 C2113 1.495 . S
C2110 C2109 1.392 . S
C2110 C2111 1.385 . S
C2110 C2112 1.478 . S
C2111 H2105 0.930 . S
C2111 C2107 1.400 . S
C2111 C2110 1.385 . S
C2112 C2110 1.478 . S
C2112 C2114 1.381 . S
C2112 C2118 1.383 . S
C2113 C2109 1.495 . S
C2113 H2119 0.959 . S
C2113 H2120 0.961 . S
C2113 H2121 0.960 . S
C2114 C2112 1.381 . S
C2114 C2115 1.394 . S
C2114 H2122 0.930 . S
C2115 C2114 1.394 . S
C2115 C2116 1.383 . S
C2115 H2123 0.929 . S
C2116 C2115 1.383 . S
C2116 C2117 1.377 . S
C2117 H2101 0.930 . S
C2117 C2116 1.377 . S
C2117 C2118 1.379 . S
C2118 H2102 0.931 . S
C2118 C2112 1.383 . S
C2118 C2117 1.379 . S
H2119 C2113 0.959 . S
H2120 C2113 0.961 . S
H2121 C2113 0.960 . S
H2122 C2114 0.930 . S
H2123 C2115 0.929 . S
H2124 C2132 0.929 . S
H2125 C2134 0.930 . S
H2126 C2136 0.930 . S
H2127 C2139 0.929 . S
H2128 C2142 0.896 1_565 S
H2129 C2144 0.960 . S
H2130 C2144 0.960 . S
H2131 C2144 0.960 . S
C2132 H2124 0.929 . S
C2132 C2133 1.377 . S
C2132 C2134 1.384 . S
C2133 C2132 1.377 . S
C2133 C2139 1.390 . S
C2134 H2125 0.930 . S
C2134 C2132 1.384 . S
C2134 C2135 1.372 . S
C2135 C2134 1.372 . S
C2135 C2136 1.400 . S
C2135 C2140 1.490 . S
C2136 H2126 0.930 . S
C2136 C2135 1.400 . S
C2136 C2139 1.386 . S
H2137 C2153 0.930 . S
H2138 C2154 0.931 . S
C2139 H2127 0.929 . S
C2139 C2133 1.390 . S
C2139 C2136 1.386 . S
C2140 C2135 1.490 . S
C2140 C2142 1.432 . S
C2140 C2143 1.403 . S
H2141 C2147 0.930 . S
C2142 H2128 0.896 1_545 S
C2142 C2140 1.432 . S
C2142 C2145 1.400 1_545 S
C2143 C2140 1.403 . S
C2143 C2144 1.524 . S
C2143 C2147 1.400 . S
C2144 H2129 0.960 . S
C2144 H2130 0.960 . S
C2144 H2131 0.960 . S
C2144 C2143 1.524 . S
C2145 C2142 1.400 1_565 S
C2145 C2146 1.392 . S
C2145 C2149 1.495 . S
C2146 C2145 1.392 . S
C2146 C2147 1.385 1_565 S
C2146 C2148 1.478 . S
C2147 H2141 0.930 . S
C2147 C2143 1.400 . S
C2147 C2146 1.385 1_545 S
C2148 C2146 1.478 . S
C2148 C2150 1.381 . S
C2148 C2154 1.383 . S
C2149 C2145 1.495 . S
C2149 H2155 0.959 . S
C2149 H2156 0.961 . S
C2149 H2157 0.960 . S
C2150 C2148 1.381 . S
C2150 C2151 1.394 . S
C2150 H2158 0.930 . S
C2151 C2150 1.394 . S
C2151 C2152 1.383 . S
C2151 H2159 0.929 . S
C2152 C2151 1.383 . S
C2152 C2153 1.377 . S
C2153 H2137 0.930 . S
C2153 C2152 1.377 . S
C2153 C2154 1.379 . S
C2154 H2138 0.931 . S
C2154 C2148 1.383 . S
C2154 C2153 1.379 . S
H2155 C2149 0.959 . S
H2156 C2149 0.961 . S
H2157 C2149 0.960 . S
H2158 C2150 0.930 . S
H2159 C2151 0.929 . S
H2160 C2168 0.929 . S
H2161 C2170 0.930 1_545 S
H2162 C2172 0.930 . S
H2163 C2175 0.929 . S
H2164 C2178 0.930 1_565 S
H2165 C2180 0.960 . S
H2166 C2180 0.960 . S
H2167 C2180 0.963 1_565 S
C2168 H2160 0.929 . S
C2168 C2169 1.377 . S
C2168 C2170 1.384 . S
C2169 C2168 1.377 . S
C2169 C2175 1.390 . S
C2170 H2161 0.930 1_565 S
C2170 C2168 1.384 . S
C2170 C2171 1.372 . S
C2171 C2170 1.372 . S
C2171 C2172 1.400 . S
C2171 C2176 1.490 1_565 S
C2172 H2162 0.930 . S
C2172 C2171 1.400 . S
C2172 C2175 1.386 . S
H2173 C2189 0.930 . S
H2174 C2190 0.931 . S
C2175 H2163 0.929 . S
C2175 C2169 1.390 . S
C2175 C2172 1.386 . S
C2176 C2171 1.490 1_545 S
C2176 C2178 1.395 . S
C2176 C2179 1.403 . S
H2177 C2183 0.930 . S
C2178 H2164 0.930 1_545 S
C2178 C2176 1.395 . S
C2178 C2181 1.403 . S
C2179 C2176 1.403 . S
C2179 C2180 1.524 . S
C2179 C2183 1.400 . S
C2180 H2165 0.960 . S
C2180 H2166 0.960 . S
C2180 H2167 0.963 1_545 S
C2180 C2179 1.524 . S
C2181 C2178 1.403 . S
C2181 C2182 1.392 . S
C2181 C2185 1.495 . S
C2182 C2181 1.392 . S
C2182 C2183 1.385 . S
C2182 C2184 1.478 . S
C2183 H2177 0.930 . S
C2183 C2179 1.400 . S
C2183 C2182 1.385 . S
C2184 C2182 1.478 . S
C2184 C2186 1.381 . S
C2184 C2190 1.383 . S
C2185 C2181 1.495 . S
C2185 H2191 0.959 . S
C2185 H2192 0.961 . S
C2185 H2193 0.960 . S
C2186 C2184 1.381 . S
C2186 C2187 1.394 . S
C2186 H2194 0.930 . S
C2187 C2186 1.394 . S
C2187 C2188 1.383 . S
C2187 H2195 0.929 . S
C2188 C2187 1.383 . S
C2188 C2189 1.377 . S
C2189 H2173 0.930 . S
C2189 C2188 1.377 . S
C2189 C2190 1.379 . S
C2190 H2174 0.931 . S
C2190 C2184 1.383 . S
C2190 C2189 1.379 . S
H2191 C2185 0.959 . S
H2192 C2185 0.961 . S
H2193 C2185 0.960 . S
H2194 C2186 0.930 . S
H2195 C2187 0.929 . S
H2196 C2204 0.929 . S
H2197 C2206 0.930 . S
H2198 C2208 0.930 . S
H2199 C2211 0.929 . S
H2200 C2214 0.930 . S
H2201 C2216 0.960 . S
H2202 C2216 0.960 . S
H2203 C2216 0.960 . S
C2204 H2196 0.929 . S
C2204 C2205 1.377 . S
C2204 C2206 1.384 . S
C2205 C2204 1.377 . S
C2205 C2211 1.390 . S
C2206 H2197 0.930 . S
C2206 C2204 1.384 . S
C2206 C2207 1.372 . S
C2207 C2206 1.372 . S
C2207 C2208 1.400 . S
C2207 C2212 1.490 . S
C2208 H2198 0.930 . S
C2208 C2207 1.400 . S
C2208 C2211 1.386 . S
H2209 C2225 0.930 . S
H2210 C2226 0.931 . S
C2211 H2199 0.929 . S
C2211 C2205 1.390 . S
C2211 C2208 1.386 . S
C2212 C2207 1.490 . S
C2212 C2214 1.395 . S
C2212 C2215 1.403 . S
H2213 C2219 0.930 . S
C2214 H2200 0.930 . S
C2214 C2212 1.395 . S
C2214 C2217 1.403 1_655 S
C2215 C2212 1.403 . S
C2215 C2216 1.524 . S
C2215 C2219 1.400 . S
C2216 H2201 0.960 . S
C2216 H2202 0.960 . S
C2216 H2203 0.960 . S
C2216 C2215 1.524 . S
C2217 C2214 1.403 1_455 S
C2217 C2218 1.401 . S
C2217 C2221 1.495 . S
C2218 C2217 1.401 . S
C2218 C2219 1.377 1_455 S
C2218 C2220 1.479 . S
C2219 H2213 0.930 . S
C2219 C2215 1.400 . S
C2219 C2218 1.377 1_655 S
C2220 C2218 1.479 . S
C2220 C2222 1.381 . S
C2220 C2226 1.383 . S
C2221 C2217 1.495 . S
C2221 H2227 0.959 . S
C2221 H2228 0.961 . S
C2221 H2229 0.960 . S
C2222 C2220 1.381 . S
C2222 C2223 1.394 . S
C2222 H2230 0.930 1_455 S
C2223 C2222 1.394 . S
C2223 C2224 1.383 . S
C2223 H2231 0.929 . S
C2224 C2223 1.383 . S
C2224 C2225 1.377 . S
C2225 H2209 0.930 . S
C2225 C2224 1.377 . S
C2225 C2226 1.379 . S
C2226 H2210 0.931 . S
C2226 C2220 1.383 . S
C2226 C2225 1.379 . S
H2227 C2221 0.959 . S
H2228 C2221 0.961 . S
H2229 C2221 0.960 . S
H2230 C2222 0.930 1_655 S
H2231 C2223 0.929 . S
H2232 C2240 0.929 . S
H2233 C2242 0.930 . S
H2234 C2244 0.930 . S
H2235 C2247 0.929 . S
H2236 C2250 0.930 . S
H2237 C2252 0.960 . S
H2238 C2252 0.960 . S
H2239 C2252 0.960 . S
C2240 H2232 0.929 . S
C2240 C2241 1.377 . S
C2240 C2242 1.384 . S
C2241 C2240 1.377 . S
C2241 C2247 1.390 . S
C2242 H2233 0.930 . S
C2242 C2240 1.384 . S
C2242 C2243 1.372 . S
C2243 C2242 1.372 . S
C2243 C2244 1.400 . S
C2243 C2248 1.490 . S
C2244 H2234 0.930 . S
C2244 C2243 1.400 . S
C2244 C2247 1.386 . S
H2245 C2261 0.930 . S
H2246 C2262 0.931 . S
C2247 H2235 0.929 . S
C2247 C2241 1.390 . S
C2247 C2244 1.386 . S
C2248 C2243 1.490 . S
C2248 C2250 1.395 . S
C2248 C2251 1.403 . S
H2249 C2255 0.930 . S
C2250 H2236 0.930 . S
C2250 C2248 1.395 . S
C2250 C2253 1.403 . S
C2251 C2248 1.403 . S
C2251 C2252 1.524 . S
C2251 C2255 1.400 . S
C2252 H2237 0.960 . S
C2252 H2238 0.960 . S
C2252 H2239 0.960 . S
C2252 C2251 1.524 . S
C2253 C2250 1.403 . S
C2253 C2254 1.392 . S
C2253 C2257 1.495 . S
C2254 C2253 1.392 . S
C2254 C2255 1.385 . S
C2254 C2256 1.478 . S
C2255 H2249 0.930 . S
C2255 C2251 1.400 . S
C2255 C2254 1.385 . S
C2256 C2254 1.478 . S
C2256 C2258 1.381 . S
C2256 C2262 1.383 . S
C2257 C2253 1.495 . S
C2257 H2263 0.959 . S
C2257 H2264 0.961 . S
C2257 H2265 0.960 . S
C2258 C2256 1.381 . S
C2258 C2259 1.394 . S
C2258 H2266 0.930 . S
C2259 C2258 1.394 . S
C2259 C2260 1.383 . S
C2259 H2267 0.929 . S
C2260 C2259 1.383 . S
C2260 C2261 1.377 . S
C2261 H2245 0.930 . S
C2261 C2260 1.377 . S
C2261 C2262 1.379 . S
C2262 H2246 0.931 . S
C2262 C2256 1.383 . S
C2262 C2261 1.379 . S
H2263 C2257 0.959 . S
H2264 C2257 0.961 . S
H2265 C2257 0.960 . S
H2266 C2258 0.930 . S
H2267 C2259 0.929 . S
H2268 C2276 0.929 . S
H2269 C2278 0.930 . S
H2270 C2280 0.930 . S
H2271 C2283 0.929 . S
H2272 C2286 0.930 . S
H2273 C2288 0.960 . S
H2274 C2288 0.960 . S
H2275 C2288 0.960 . S
C2276 H2268 0.929 . S
C2276 C2277 1.377 . S
C2276 C2278 1.384 1_655 S
C2277 C2276 1.377 . S
C2277 C2283 1.390 . S
C2278 H2269 0.930 . S
C2278 C2276 1.384 1_455 S
C2278 C2279 1.372 1_455 S
C2279 C2278 1.372 1_655 S
C2279 C2280 1.400 . S
C2279 C2284 1.490 1_655 S
C2280 H2270 0.930 . S
C2280 C2279 1.400 . S
C2280 C2283 1.386 . S
H2281 C2297 0.930 . S
H2282 C2298 0.931 . S
C2283 H2271 0.929 . S
C2283 C2277 1.390 . S
C2283 C2280 1.386 . S
C2284 C2279 1.490 1_455 S
C2284 C2286 1.395 . S
C2284 C2287 1.403 1_455 S
H2285 C2291 0.930 . S
C2286 H2272 0.930 . S
C2286 C2284 1.395 . S
C2286 C2289 1.403 . S
C2287 C2284 1.403 1_655 S
C2287 C2288 1.524 . S
C2287 C2291 1.400 1_655 S
C2288 H2273 0.960 . S
C2288 H2274 0.960 . S
C2288 H2275 0.960 . S
C2288 C2287 1.524 . S
C2289 C2286 1.403 . S
C2289 C2290 1.392 . S
C2289 C2293 1.495 . S
C2290 C2289 1.392 . S
C2290 C2291 1.385 . S
C2290 C2292 1.478 . S
C2291 H2285 0.930 . S
C2291 C2287 1.400 1_455 S
C2291 C2290 1.385 . S
C2292 C2290 1.478 . S
C2292 C2294 1.381 . S
C2292 C2298 1.383 . S
C2293 C2289 1.495 . S
C2293 H2299 0.959 . S
C2293 H2300 0.961 . S
C2293 H2301 0.960 . S
C2294 C2292 1.381 . S
C2294 C2295 1.394 . S
C2294 H2302 0.930 . S
C2295 C2294 1.394 . S
C2295 C2296 1.383 . S
C2295 H2303 0.929 . S
C2296 C2295 1.383 . S
C2296 C2297 1.377 . S
C2297 H2281 0.930 . S
C2297 C2296 1.377 . S
C2297 C2298 1.379 . S
C2298 H2282 0.931 . S
C2298 C2292 1.383 . S
C2298 C2297 1.379 . S
H2299 C2293 0.959 . S
H2300 C2293 0.961 . S
H2301 C2293 0.960 . S
H2302 C2294 0.930 . S
H2303 C2295 0.929 . S
H2304 C2312 0.929 . S
H2305 C2314 0.930 . S
H2306 C2316 0.930 . S
H2307 C2319 0.929 . S
H2308 C2322 0.930 . S
H2309 C2324 0.960 . S
H2310 C2324 0.960 . S
H2311 C2324 0.960 . S
C2312 H2304 0.929 . S
C2312 C2313 1.377 . S
C2312 C2314 1.384 . S
C2313 C2312 1.377 . S
C2313 C2319 1.390 . S
C2314 H2305 0.930 . S
C2314 C2312 1.384 . S
C2314 C2315 1.372 . S
C2315 C2314 1.372 . S
C2315 C2316 1.400 . S
C2315 C2320 1.490 . S
C2316 H2306 0.930 . S
C2316 C2315 1.400 . S
C2316 C2319 1.386 . S
H2317 C2333 0.930 . S
H2318 C2334 0.931 . S
C2319 H2307 0.929 . S
C2319 C2313 1.390 . S
C2319 C2316 1.386 . S
C2320 C2315 1.490 . S
C2320 C2322 1.395 . S
C2320 C2323 1.403 . S
H2321 C2327 0.930 . S
C2322 H2308 0.930 . S
C2322 C2320 1.395 . S
C2322 C2325 1.403 . S
C2323 C2320 1.403 . S
C2323 C2324 1.524 . S
C2323 C2327 1.400 . S
C2324 H2309 0.960 . S
C2324 H2310 0.960 . S
C2324 H2311 0.960 . S
C2324 C2323 1.524 . S
C2325 C2322 1.403 . S
C2325 C2326 1.392 . S
C2325 C2329 1.495 . S
C2326 C2325 1.392 . S
C2326 C2327 1.385 . S
C2326 C2328 1.478 . S
C2327 H2321 0.930 . S
C2327 C2323 1.400 . S
C2327 C2326 1.385 . S
C2328 C2326 1.478 . S
C2328 C2330 1.381 . S
C2328 C2334 1.383 . S
C2329 C2325 1.495 . S
C2329 H2335 0.959 . S
C2329 H2336 0.961 . S
C2329 H2337 0.960 . S
C2330 C2328 1.381 . S
C2330 C2331 1.394 . S
C2330 H2338 0.930 . S
C2331 C2330 1.394 . S
C2331 C2332 1.383 . S
C2331 H2339 0.929 . S
C2332 C2331 1.383 . S
C2332 C2333 1.377 . S
C2333 H2317 0.930 . S
C2333 C2332 1.377 . S
C2333 C2334 1.379 . S
C2334 H2318 0.931 . S
C2334 C2328 1.383 . S
C2334 C2333 1.379 . S
H2335 C2329 0.959 . S
H2336 C2329 0.961 . S
H2337 C2329 0.960 . S
H2338 C2330 0.930 . S
H2339 C2331 0.929 . S
H2340 C2348 0.929 . S
H2341 C2350 0.930 . S
H2342 C2352 0.930 . S
H2343 C2355 0.929 . S
H2344 C2358 0.930 . S
H2345 C2360 0.960 . S
H2346 C2360 0.960 . S
H2347 C2360 0.960 . S
C2348 H2340 0.929 . S
C2348 C2349 1.377 . S
C2348 C2350 1.384 . S
C2349 C2348 1.377 . S
C2349 C2355 1.390 . S
C2350 H2341 0.930 . S
C2350 C2348 1.384 . S
C2350 C2351 1.372 . S
C2351 C2350 1.372 . S
C2351 C2352 1.400 . S
C2351 C2356 1.489 1_545 S
C2352 H2342 0.930 . S
C2352 C2351 1.400 . S
C2352 C2355 1.386 . S
H2353 C2369 0.930 . S
H2354 C2370 0.931 . S
C2355 H2343 0.929 . S
C2355 C2349 1.390 . S
C2355 C2352 1.386 . S
C2356 C2351 1.489 1_565 S
C2356 C2358 1.425 . S
C2356 C2359 1.374 1_565 S
H2357 C2363 0.930 . S
C2358 H2344 0.930 . S
C2358 C2356 1.425 . S
C2358 C2361 1.403 . S
C2359 C2356 1.374 1_545 S
C2359 C2360 1.524 . S
C2359 C2363 1.400 1_545 S
C2360 H2345 0.960 . S
C2360 H2346 0.960 . S
C2360 H2347 0.960 . S
C2360 C2359 1.524 . S
C2361 C2358 1.403 . S
C2361 C2362 1.392 . S
C2361 C2365 1.495 . S
C2362 C2361 1.392 . S
C2362 C2363 1.385 . S
C2362 C2364 1.478 . S
C2363 H2357 0.930 . S
C2363 C2359 1.400 1_565 S
C2363 C2362 1.385 . S
C2364 C2362 1.478 . S
C2364 C2366 1.381 . S
C2364 C2370 1.383 . S
C2365 C2361 1.495 . S
C2365 H2371 0.959 . S
C2365 H2372 0.961 . S
C2365 H2373 0.960 . S
C2366 C2364 1.381 . S
C2366 C2367 1.394 . S
C2366 H2374 0.930 . S
C2367 C2366 1.394 . S
C2367 C2368 1.383 . S
C2367 H2375 0.929 . S
C2368 C2367 1.383 . S
C2368 C2369 1.377 . S
C2369 H2353 0.930 . S
C2369 C2368 1.377 . S
C2369 C2370 1.379 . S
C2370 H2354 0.931 . S
C2370 C2364 1.383 . S
C2370 C2369 1.379 . S
H2371 C2365 0.959 . S
H2372 C2365 0.961 . S
H2373 C2365 0.960 . S
H2374 C2366 0.930 . S
H2375 C2367 0.929 . S
H2376 C2384 0.929 . S
H2377 C2386 0.930 . S
H2378 C2388 0.930 . S
H2379 C2391 0.929 . S
H2380 C2394 0.930 . S
H2381 C2396 0.960 . S
H2382 C2396 0.960 . S
H2383 C2396 0.960 . S
C2384 H2376 0.929 . S
C2384 C2385 1.377 . S
C2384 C2386 1.384 . S
C2385 C2384 1.377 . S
C2385 C2391 1.390 . S
C2386 H2377 0.930 . S
C2386 C2384 1.384 . S
C2386 C2387 1.372 . S
C2387 C2386 1.372 . S
C2387 C2388 1.400 . S
C2387 C2392 1.490 . S
C2388 H2378 0.930 . S
C2388 C2387 1.400 . S
C2388 C2391 1.386 . S
H2389 C2405 0.930 . S
H2390 C2406 0.931 . S
C2391 H2379 0.929 . S
C2391 C2385 1.390 . S
C2391 C2388 1.386 . S
C2392 C2387 1.490 . S
C2392 C2394 1.395 . S
C2392 C2395 1.403 . S
H2393 C2399 0.930 . S
C2394 H2380 0.930 . S
C2394 C2392 1.395 . S
C2394 C2397 1.403 . S
C2395 C2392 1.403 . S
C2395 C2396 1.524 . S
C2395 C2399 1.400 . S
C2396 H2381 0.960 . S
C2396 H2382 0.960 . S
C2396 H2383 0.960 . S
C2396 C2395 1.524 . S
C2397 C2394 1.403 . S
C2397 C2398 1.392 . S
C2397 C2401 1.495 . S
C2398 C2397 1.392 . S
C2398 C2399 1.385 . S
C2398 C2400 1.478 . S
C2399 H2393 0.930 . S
C2399 C2395 1.400 . S
C2399 C2398 1.385 . S
C2400 C2398 1.478 . S
C2400 C2402 1.381 . S
C2400 C2406 1.383 . S
C2401 C2397 1.495 . S
C2401 H2407 0.959 . S
C2401 H2408 0.961 . S
C2401 H2409 0.960 . S
C2402 C2400 1.381 . S
C2402 C2403 1.394 . S
C2402 H2410 0.930 . S
C2403 C2402 1.394 . S
C2403 C2404 1.383 . S
C2403 H2411 0.929 . S
C2404 C2403 1.383 . S
C2404 C2405 1.377 . S
C2405 H2389 0.930 . S
C2405 C2404 1.377 . S
C2405 C2406 1.379 . S
C2406 H2390 0.931 . S
C2406 C2400 1.383 . S
C2406 C2405 1.379 . S
H2407 C2401 0.959 . S
H2408 C2401 0.961 . S
H2409 C2401 0.960 . S
H2410 C2402 0.930 . S
H2411 C2403 0.929 . S
H2412 C2420 0.929 . S
H2413 C2422 0.930 . S
H2414 C2424 0.930 . S
H2415 C2427 0.929 . S
H2416 C2430 0.930 . S
H2417 C2432 0.960 . S
H2418 C2432 0.960 . S
H2419 C2432 0.960 . S
C2420 H2412 0.929 . S
C2420 C2421 1.377 . S
C2420 C2422 1.384 . S
C2421 C2420 1.377 . S
C2421 C2427 1.390 . S
C2422 H2413 0.930 . S
C2422 C2420 1.384 . S
C2422 C2423 1.372 . S
C2423 C2422 1.372 . S
C2423 C2424 1.400 . S
C2423 C2428 1.490 . S
C2424 H2414 0.930 . S
C2424 C2423 1.400 . S
C2424 C2427 1.386 . S
H2425 C2441 0.930 . S
H2426 C2442 0.931 . S
C2427 H2415 0.929 . S
C2427 C2421 1.390 . S
C2427 C2424 1.386 . S
C2428 C2423 1.490 . S
C2428 C2430 1.395 . S
C2428 C2431 1.403 . S
H2429 C2435 0.930 . S
C2430 H2416 0.930 . S
C2430 C2428 1.395 . S
C2430 C2433 1.403 1_545 S
C2431 C2428 1.403 . S
C2431 C2432 1.524 . S
C2431 C2435 1.400 1_545 S
C2432 H2417 0.960 . S
C2432 H2418 0.960 . S
C2432 H2419 0.960 . S
C2432 C2431 1.524 . S
C2433 C2430 1.403 1_565 S
C2433 C2434 1.392 . S
C2433 C2437 1.495 . S
C2434 C2433 1.392 . S
C2434 C2435 1.385 . S
C2434 C2436 1.478 . S
C2435 H2429 0.930 . S
C2435 C2431 1.400 1_565 S
C2435 C2434 1.385 . S
C2436 C2434 1.478 . S
C2436 C2438 1.381 . S
C2436 C2442 1.383 . S
C2437 C2433 1.495 . S
C2437 H2443 0.987 . S
C2437 H2444 0.961 . S
C2437 H2445 0.960 . S
C2438 C2436 1.381 . S
C2438 C2439 1.394 . S
C2438 H2446 0.930 . S
C2439 C2438 1.394 . S
C2439 C2440 1.383 . S
C2439 H2447 0.929 . S
C2440 C2439 1.383 . S
C2440 C2441 1.377 . S
C2441 H2425 0.930 . S
C2441 C2440 1.377 . S
C2441 C2442 1.379 . S
C2442 H2426 0.931 . S
C2442 C2436 1.383 . S
C2442 C2441 1.379 . S
H2443 C2437 0.987 . S
H2444 C2437 0.961 . S
H2445 C2437 0.960 . S
H2446 C2438 0.930 . S
H2447 C2439 0.929 . S
H2448 C2456 0.929 . S
H2449 C2458 0.930 . S
H2450 C2460 0.930 . S
H2451 C2463 0.929 . S
H2452 C2466 0.930 . S
H2453 C2468 0.960 1_455 S
H2454 C2468 0.960 . S
H2455 C2468 0.960 . S
C2456 H2448 0.929 . S
C2456 C2457 1.377 . S
C2456 C2458 1.384 . S
C2457 C2456 1.377 . S
C2457 C2463 1.390 . S
C2458 H2449 0.930 . S
C2458 C2456 1.384 . S
C2458 C2459 1.372 . S
C2459 C2458 1.372 . S
C2459 C2460 1.400 . S
C2459 C2464 1.490 . S
C2460 H2450 0.930 . S
C2460 C2459 1.400 . S
C2460 C2463 1.386 . S
H2461 C2477 0.930 . S
H2462 C2478 0.931 . S
C2463 H2451 0.929 . S
C2463 C2457 1.390 . S
C2463 C2460 1.386 . S
C2464 C2459 1.490 . S
C2464 C2466 1.395 . S
C2464 C2467 1.403 . S
H2465 C2471 0.930 . S
C2466 H2452 0.930 . S
C2466 C2464 1.395 . S
C2466 C2469 1.403 1_655 S
C2467 C2464 1.403 . S
C2467 C2468 1.524 . S
C2467 C2471 1.400 1_655 S
C2468 H2453 0.960 1_655 S
C2468 H2454 0.960 . S
C2468 H2455 0.960 . S
C2468 C2467 1.524 . S
C2469 C2466 1.403 1_455 S
C2469 C2470 1.392 . S
C2469 C2473 1.495 . S
C2470 C2469 1.392 . S
C2470 C2471 1.385 . S
C2470 C2472 1.478 . S
C2471 H2465 0.930 . S
C2471 C2467 1.400 1_455 S
C2471 C2470 1.385 . S
C2472 C2470 1.478 . S
C2472 C2474 1.381 . S
C2472 C2478 1.383 . S
C2473 C2469 1.495 . S
C2473 H2479 0.942 1_455 S
C2473 H2480 0.961 . S
C2473 H2481 0.960 . S
C2474 C2472 1.381 . S
C2474 C2475 1.394 . S
C2474 H2482 0.930 . S
C2475 C2474 1.394 . S
C2475 C2476 1.383 . S
C2475 H2483 0.929 . S
C2476 C2475 1.383 . S
C2476 C2477 1.377 . S
C2477 H2461 0.930 . S
C2477 C2476 1.377 . S
C2477 C2478 1.379 . S
C2478 H2462 0.931 . S
C2478 C2472 1.383 . S
C2478 C2477 1.379 . S
H2479 C2473 0.942 1_655 S
H2480 C2473 0.961 . S
H2481 C2473 0.960 . S
H2482 C2474 0.930 . S
H2483 C2475 0.929 . S
H2484 C2492 0.929 . S
H2485 C2494 0.930 . S
H2486 C2496 0.930 . S
H2487 C2499 0.929 . S
H2488 C2502 0.930 . S
H2489 C2504 0.960 . S
H2490 C2504 0.960 . S
H2491 C2504 0.960 . S
C2492 H2484 0.929 . S
C2492 C2493 1.377 . S
C2492 C2494 1.384 . S
C2493 C2492 1.377 . S
C2493 C2499 1.390 . S
C2494 H2485 0.930 . S
C2494 C2492 1.384 . S
C2494 C2495 1.372 . S
C2495 C2494 1.372 . S
C2495 C2496 1.400 . S
C2495 C2500 1.490 . S
C2496 H2486 0.930 . S
C2496 C2495 1.400 . S
C2496 C2499 1.386 . S
H2497 C2513 0.930 . S
H2498 C2514 0.931 . S
C2499 H2487 0.929 . S
C2499 C2493 1.390 . S
C2499 C2496 1.386 . S
C2500 C2495 1.490 . S
C2500 C2502 1.395 . S
C2500 C2503 1.403 . S
H2501 C2507 0.930 . S
C2502 H2488 0.930 . S
C2502 C2500 1.395 . S
C2502 C2505 1.403 . S
C2503 C2500 1.403 . S
C2503 C2504 1.524 . S
C2503 C2507 1.400 . S
C2504 H2489 0.960 . S
C2504 H2490 0.960 . S
C2504 H2491 0.960 . S
C2504 C2503 1.524 . S
C2505 C2502 1.403 . S
C2505 C2506 1.392 . S
C2505 C2509 1.495 . S
C2506 C2505 1.392 . S
C2506 C2507 1.385 . S
C2506 C2508 1.478 . S
C2507 H2501 0.930 . S
C2507 C2503 1.400 . S
C2507 C2506 1.385 . S
C2508 C2506 1.478 . S
C2508 C2510 1.381 . S
C2508 C2514 1.383 . S
C2509 C2505 1.495 . S
C2509 H2515 0.959 . S
C2509 H2516 0.961 . S
C2509 H2517 0.960 . S
C2510 C2508 1.381 . S
C2510 C2511 1.394 . S
C2510 H2518 0.930 . S
C2511 C2510 1.394 . S
C2511 C2512 1.383 . S
C2511 H2519 0.929 . S
C2512 C2511 1.383 . S
C2512 C2513 1.377 . S
C2513 H2497 0.930 . S
C2513 C2512 1.377 . S
C2513 C2514 1.379 . S
C2514 H2498 0.931 . S
C2514 C2508 1.383 . S
C2514 C2513 1.379 . S
H2515 C2509 0.959 . S
H2516 C2509 0.961 . S
H2517 C2509 0.960 . S
H2518 C2510 0.930 . S
H2519 C2511 0.929 . S
H2520 C2528 0.929 . S
H2521 C2530 0.930 . S
H2522 C2532 0.930 . S
H2523 C2535 0.929 . S
H2524 C2538 0.930 . S
H2525 C2540 0.960 1_545 S
H2526 C2540 0.960 . S
H2527 C2540 0.960 . S
C2528 H2520 0.929 . S
C2528 C2529 1.377 . S
C2528 C2530 1.384 . S
C2529 C2528 1.377 . S
C2529 C2535 1.390 . S
C2530 H2521 0.930 . S
C2530 C2528 1.384 . S
C2530 C2531 1.372 . S
C2531 C2530 1.372 . S
C2531 C2532 1.400 . S
C2531 C2536 1.490 . S
C2532 H2522 0.930 . S
C2532 C2531 1.400 . S
C2532 C2535 1.386 . S
H2533 C2549 0.930 . S
H2534 C2550 0.931 . S
C2535 H2523 0.929 . S
C2535 C2529 1.390 . S
C2535 C2532 1.386 . S
C2536 C2531 1.490 . S
C2536 C2538 1.395 . S
C2536 C2539 1.403 . S
H2537 C2543 0.930 . S
C2538 H2524 0.930 . S
C2538 C2536 1.395 . S
C2538 C2541 1.403 1_565 S
C2539 C2536 1.403 . S
C2539 C2540 1.524 . S
C2539 C2543 1.400 1_565 S
C2540 H2525 0.960 1_565 S
C2540 H2526 0.960 . S
C2540 H2527 0.960 . S
C2540 C2539 1.524 . S
C2541 C2538 1.403 1_545 S
C2541 C2542 1.392 . S
C2541 C2545 1.495 . S
C2542 C2541 1.392 . S
C2542 C2543 1.385 . S
C2542 C2544 1.478 . S
C2543 H2537 0.930 . S
C2543 C2539 1.400 1_545 S
C2543 C2542 1.385 . S
C2544 C2542 1.478 . S
C2544 C2546 1.381 . S
C2544 C2550 1.383 . S
C2545 C2541 1.495 . S
C2545 H2551 0.959 1_545 S
C2545 H2552 0.961 . S
C2545 H2553 0.960 . S
C2546 C2544 1.381 . S
C2546 C2547 1.394 . S
C2546 H2554 0.930 . S
C2547 C2546 1.394 . S
C2547 C2548 1.383 . S
C2547 H2555 0.929 . S
C2548 C2547 1.383 . S
C2548 C2549 1.377 . S
C2549 H2533 0.930 . S
C2549 C2548 1.377 . S
C2549 C2550 1.379 . S
C2550 H2534 0.931 . S
C2550 C2544 1.383 . S
C2550 C2549 1.379 . S
H2551 C2545 0.959 1_565 S
H2552 C2545 0.961 . S
H2553 C2545 0.960 . S
H2554 C2546 0.930 . S
H2555 C2547 0.929 . S
H2556 C2564 0.929 . S
H2557 C2566 0.930 . S
H2558 C2568 0.930 . S
H2559 C2571 0.929 . S
H2560 C2574 0.930 . S
H2561 C2576 0.960 1_455 S
H2562 C2576 0.960 . S
H2563 C2576 0.960 . S
C2564 H2556 0.929 . S
C2564 C2565 1.377 . S
C2564 C2566 1.384 . S
C2565 C2564 1.377 . S
C2565 C2571 1.390 . S
C2566 H2557 0.930 . S
C2566 C2564 1.384 . S
C2566 C2567 1.372 . S
C2567 C2566 1.372 . S
C2567 C2568 1.400 . S
C2567 C2572 1.490 . S
C2568 H2558 0.930 . S
C2568 C2567 1.400 . S
C2568 C2571 1.386 . S
H2569 C2585 0.930 . S
H2570 C2586 0.931 . S
C2571 H2559 0.929 . S
C2571 C2565 1.390 . S
C2571 C2568 1.386 . S
C2572 C2567 1.490 . S
C2572 C2574 1.395 . S
C2572 C2575 1.403 . S
H2573 C2579 0.930 . S
C2574 H2560 0.930 . S
C2574 C2572 1.395 . S
C2574 C2577 1.403 1_655 S
C2575 C2572 1.403 . S
C2575 C2576 1.524 . S
C2575 C2579 1.400 1_655 S
C2576 H2561 0.960 1_655 S
C2576 H2562 0.960 . S
C2576 H2563 0.960 . S
C2576 C2575 1.524 . S
C2577 C2574 1.403 1_455 S
C2577 C2578 1.392 . S
C2577 C2581 1.495 . S
C2578 C2577 1.392 . S
C2578 C2579 1.385 . S
C2578 C2580 1.478 . S
C2579 H2573 0.930 . S
C2579 C2575 1.400 1_455 S
C2579 C2578 1.385 . S
C2580 C2578 1.478 . S
C2580 C2582 1.381 . S
C2580 C2586 1.383 . S
C2581 C2577 1.495 . S
C2581 H2587 0.959 1_455 S
C2581 H2588 0.961 . S
C2581 H2589 0.960 . S
C2582 C2580 1.381 . S
C2582 C2583 1.394 . S
C2582 H2590 0.930 . S
C2583 C2582 1.394 . S
C2583 C2584 1.383 . S
C2583 H2591 0.929 . S
C2584 C2583 1.383 . S
C2584 C2585 1.377 . S
C2585 H2569 0.930 . S
C2585 C2584 1.377 . S
C2585 C2586 1.379 . S
C2586 H2570 0.931 . S
C2586 C2580 1.383 . S
C2586 C2585 1.379 . S
H2587 C2581 0.959 1_655 S
H2588 C2581 0.961 . S
H2589 C2581 0.960 . S
H2590 C2582 0.930 . S
H2591 C2583 0.929 . S
H2592 C2600 0.929 . S
H2593 C2602 0.930 . S
H2594 C2604 0.930 . S
H2595 C2607 0.929 . S
H2596 C2610 0.930 . S
H2597 C2612 0.960 . S
H2598 C2612 0.960 . S
H2599 C2612 0.960 . S
C2600 H2592 0.929 . S
C2600 C2601 1.377 . S
C2600 C2602 1.384 1_655 S
C2601 C2600 1.377 . S
C2601 C2607 1.390 1_655 S
C2602 H2593 0.930 . S
C2602 C2600 1.384 1_455 S
C2602 C2603 1.372 . S
C2603 C2602 1.372 . S
C2603 C2604 1.400 . S
C2603 C2608 1.490 . S
C2604 H2594 0.930 . S
C2604 C2603 1.400 . S
C2604 C2607 1.386 . S
H2605 C2621 0.930 . S
H2606 C2622 0.931 . S
C2607 H2595 0.929 . S
C2607 C2601 1.390 1_455 S
C2607 C2604 1.386 . S
C2608 C2603 1.490 . S
C2608 C2610 1.395 . S
C2608 C2611 1.403 . S
H2609 C2615 0.930 . S
C2610 H2596 0.930 . S
C2610 C2608 1.395 . S
C2610 C2613 1.403 . S
C2611 C2608 1.403 . S
C2611 C2612 1.524 . S
C2611 C2615 1.400 . S
C2612 H2597 0.960 . S
C2612 H2598 0.960 . S
C2612 H2599 0.960 . S
C2612 C2611 1.524 . S
C2613 C2610 1.403 . S
C2613 C2614 1.392 . S
C2613 C2617 1.495 . S
C2614 C2613 1.392 . S
C2614 C2615 1.385 . S
C2614 C2616 1.478 . S
C2615 H2609 0.930 . S
C2615 C2611 1.400 . S
C2615 C2614 1.385 . S
C2616 C2614 1.478 . S
C2616 C2618 1.381 . S
C2616 C2622 1.383 . S
C2617 C2613 1.495 . S
C2617 H2623 0.959 . S
C2617 H2624 0.961 . S
C2617 H2625 0.960 . S
C2618 C2616 1.381 . S
C2618 C2619 1.394 . S
C2618 H2626 0.930 . S
C2619 C2618 1.394 . S
C2619 C2620 1.383 . S
C2619 H2627 0.929 . S
C2620 C2619 1.383 . S
C2620 C2621 1.377 . S
C2621 H2605 0.930 . S
C2621 C2620 1.377 . S
C2621 C2622 1.379 . S
C2622 H2606 0.931 . S
C2622 C2616 1.383 . S
C2622 C2621 1.379 . S
H2623 C2617 0.959 . S
H2624 C2617 0.961 . S
H2625 C2617 0.960 . S
H2626 C2618 0.930 . S
H2627 C2619 0.929 . S
H2628 C2636 0.929 . S
H2629 C2638 0.930 . S
H2630 C2640 0.930 . S
H2631 C2643 0.929 . S
H2632 C2646 0.930 . S
H2633 C2648 0.960 . S
H2634 C2648 0.960 . S
H2635 C2648 0.960 . S
C2636 H2628 0.929 . S
C2636 C2637 1.377 . S
C2636 C2638 1.384 . S
C2637 C2636 1.377 . S
C2637 C2643 1.390 . S
C2638 H2629 0.930 . S
C2638 C2636 1.384 . S
C2638 C2639 1.372 . S
C2639 C2638 1.372 . S
C2639 C2640 1.400 . S
C2639 C2644 1.490 1_545 S
C2640 H2630 0.930 . S
C2640 C2639 1.400 . S
C2640 C2643 1.386 . S
H2641 C2657 0.930 . S
H2642 C2658 0.931 . S
C2643 H2631 0.929 . S
C2643 C2637 1.390 . S
C2643 C2640 1.386 . S
C2644 C2639 1.490 1_565 S
C2644 C2646 1.395 . S
C2644 C2647 1.403 . S
H2645 C2651 0.930 . S
C2646 H2632 0.930 . S
C2646 C2644 1.395 . S
C2646 C2649 1.403 . S
C2647 C2644 1.403 . S
C2647 C2648 1.524 . S
C2647 C2651 1.400 . S
C2648 H2633 0.960 . S
C2648 H2634 0.960 . S
C2648 H2635 0.960 . S
C2648 C2647 1.524 . S
C2649 C2646 1.403 . S
C2649 C2650 1.392 . S
C2649 C2653 1.495 . S
C2650 C2649 1.392 . S
C2650 C2651 1.385 . S
C2650 C2652 1.478 . S
C2651 H2645 0.930 . S
C2651 C2647 1.400 . S
C2651 C2650 1.385 . S
C2652 C2650 1.478 . S
C2652 C2654 1.381 . S
C2652 C2658 1.383 . S
C2653 C2649 1.495 . S
C2653 H2659 0.959 . S
C2653 H2660 0.961 . S
C2653 H2661 0.960 . S
C2654 C2652 1.381 . S
C2654 C2655 1.394 . S
C2654 H2662 0.930 . S
C2655 C2654 1.394 . S
C2655 C2656 1.383 . S
C2655 H2663 0.929 . S
C2656 C2655 1.383 . S
C2656 C2657 1.377 . S
C2657 H2641 0.930 . S
C2657 C2656 1.377 . S
C2657 C2658 1.379 . S
C2658 H2642 0.931 . S
C2658 C2652 1.383 . S
C2658 C2657 1.379 . S
H2659 C2653 0.959 . S
H2660 C2653 0.961 . S
H2661 C2653 0.960 . S
H2662 C2654 0.930 . S
H2663 C2655 0.929 . S
H2664 C2672 0.929 . S
H2665 C2674 0.930 . S
H2666 C2676 0.930 . S
H2667 C2679 0.929 . S
H2668 C2682 0.930 . S
H2669 C2684 0.960 . S
H2670 C2684 0.960 . S
H2671 C2684 0.960 . S
C2672 H2664 0.929 . S
C2672 C2673 1.377 . S
C2672 C2674 1.384 . S
C2673 C2672 1.377 . S
C2673 C2679 1.390 . S
C2674 H2665 0.930 . S
C2674 C2672 1.384 . S
C2674 C2675 1.372 . S
C2675 C2674 1.372 . S
C2675 C2676 1.400 . S
C2675 C2680 1.490 1_655 S
C2676 H2666 0.930 . S
C2676 C2675 1.400 . S
C2676 C2679 1.386 . S
H2677 C2693 0.930 . S
H2678 C2694 0.931 . S
C2679 H2667 0.929 . S
C2679 C2673 1.390 . S
C2679 C2676 1.386 . S
C2680 C2675 1.490 1_455 S
C2680 C2682 1.395 . S
C2680 C2683 1.403 . S
H2681 C2687 0.930 . S
C2682 H2668 0.930 . S
C2682 C2680 1.395 . S
C2682 C2685 1.403 . S
C2683 C2680 1.403 . S
C2683 C2684 1.524 . S
C2683 C2687 1.400 . S
C2684 H2669 0.960 . S
C2684 H2670 0.960 . S
C2684 H2671 0.960 . S
C2684 C2683 1.524 . S
C2685 C2682 1.403 . S
C2685 C2686 1.392 . S
C2685 C2689 1.495 . S
C2686 C2685 1.392 . S
C2686 C2687 1.385 . S
C2686 C2688 1.478 . S
C2687 H2681 0.930 . S
C2687 C2683 1.400 . S
C2687 C2686 1.385 . S
C2688 C2686 1.478 . S
C2688 C2690 1.381 . S
C2688 C2694 1.383 . S
C2689 C2685 1.495 . S
C2689 H2695 0.959 . S
C2689 H2696 0.961 . S
C2689 H2697 0.960 . S
C2690 C2688 1.381 . S
C2690 C2691 1.394 1_565 S
C2690 H2698 0.930 . S
C2691 C2690 1.394 1_545 S
C2691 C2692 1.383 . S
C2691 H2699 0.929 . S
C2692 C2691 1.383 . S
C2692 C2693 1.377 1_545 S
C2693 H2677 0.930 . S
C2693 C2692 1.377 1_565 S
C2693 C2694 1.379 . S
C2694 H2678 0.931 . S
C2694 C2688 1.383 . S
C2694 C2693 1.379 . S
H2695 C2689 0.959 . S
H2696 C2689 0.961 . S
H2697 C2689 0.960 . S
H2698 C2690 0.930 . S
H2699 C2691 0.929 . S
H2700 C2708 0.929 . S
H2701 C2710 0.930 . S
H2702 C2712 0.930 . S
H2703 C2715 0.929 . S
H2704 C2718 0.930 . S
H2705 C2720 0.960 . S
H2706 C2720 0.960 . S
H2707 C2720 0.960 . S
C2708 H2700 0.929 . S
C2708 C2709 1.377 . S
C2708 C2710 1.384 . S
C2709 C2708 1.377 . S
C2709 C2715 1.390 . S
C2710 H2701 0.930 . S
C2710 C2708 1.384 . S
C2710 C2711 1.372 . S
C2711 C2710 1.372 . S
C2711 C2712 1.400 . S
C2711 C2716 1.490 . S
C2712 H2702 0.930 . S
C2712 C2711 1.400 . S
C2712 C2715 1.386 . S
H2713 C2729 0.930 1_565 S
H2714 C2730 0.931 . S
C2715 H2703 0.929 . S
C2715 C2709 1.390 . S
C2715 C2712 1.386 . S
C2716 C2711 1.490 . S
C2716 C2718 1.395 . S
C2716 C2719 1.403 . S
H2717 C2723 0.930 . S
C2718 H2704 0.930 . S
C2718 C2716 1.395 . S
C2718 C2721 1.403 . S
C2719 C2716 1.403 . S
C2719 C2720 1.524 . S
C2719 C2723 1.400 . S
C2720 H2705 0.960 . S
C2720 H2706 0.960 . S
C2720 H2707 0.960 . S
C2720 C2719 1.524 . S
C2721 C2718 1.403 . S
C2721 C2722 1.392 . S
C2721 C2725 1.495 . S
C2722 C2721 1.392 . S
C2722 C2723 1.385 . S
C2722 C2724 1.478 . S
C2723 H2717 0.930 . S
C2723 C2719 1.400 . S
C2723 C2722 1.385 . S
C2724 C2722 1.478 . S
C2724 C2726 1.381 . S
C2724 C2730 1.383 . S
C2725 C2721 1.495 . S
C2725 H2731 0.959 . S
C2725 H2732 0.961 . S
C2725 H2733 0.960 . S
C2726 C2724 1.381 . S
C2726 C2727 1.394 . S
C2726 H2734 0.930 . S
C2727 C2726 1.394 . S
C2727 C2728 1.383 1_545 S
C2727 H2735 0.929 . S
C2728 C2727 1.383 1_565 S
C2728 C2729 1.377 1_565 S
C2729 H2713 0.930 1_545 S
C2729 C2728 1.377 1_545 S
C2729 C2730 1.379 . S
C2730 H2714 0.931 . S
C2730 C2724 1.383 . S
C2730 C2729 1.379 . S
H2731 C2725 0.959 . S
H2732 C2725 0.961 . S
H2733 C2725 0.960 . S
H2734 C2726 0.930 . S
H2735 C2727 0.929 . S
H2736 C2744 0.929 1_455 S
H2737 C2746 0.930 . S
H2738 C2748 0.930 . S
H2739 C2751 0.928 1_455 S
H2740 C2754 0.930 . S
H2741 C2756 0.960 . S
H2742 C2756 0.960 . S
H2743 C2756 0.960 . S
C2744 H2736 0.929 1_655 S
C2744 C2745 1.377 1_655 S
C2744 C2746 1.384 . S
C2745 C2744 1.377 1_455 S
C2745 C2751 1.390 1_455 S
C2746 H2737 0.930 . S
C2746 C2744 1.384 . S
C2746 C2747 1.372 . S
C2747 C2746 1.372 . S
C2747 C2748 1.400 . S
C2747 C2752 1.490 . S
C2748 H2738 0.930 . S
C2748 C2747 1.400 . S
C2748 C2751 1.386 . S
H2749 C2765 0.930 . S
H2750 C2766 0.931 . S
C2751 H2739 0.928 1_655 S
C2751 C2745 1.390 1_655 S
C2751 C2748 1.386 . S
C2752 C2747 1.490 . S
C2752 C2754 1.395 . S
C2752 C2755 1.403 . S
H2753 C2759 0.930 . S
C2754 H2740 0.930 . S
C2754 C2752 1.395 . S
C2754 C2757 1.403 . S
C2755 C2752 1.403 . S
C2755 C2756 1.524 . S
C2755 C2759 1.400 . S
C2756 H2741 0.960 . S
C2756 H2742 0.960 . S
C2756 H2743 0.960 . S
C2756 C2755 1.524 . S
C2757 C2754 1.403 . S
C2757 C2758 1.392 . S
C2757 C2761 1.495 1_545 S
C2758 C2757 1.392 . S
C2758 C2759 1.385 . S
C2758 C2760 1.478 1_545 S
C2759 H2753 0.930 . S
C2759 C2755 1.400 . S
C2759 C2758 1.385 . S
C2760 C2758 1.478 1_565 S
C2760 C2762 1.381 . S
C2760 C2766 1.383 . S
C2761 C2757 1.495 1_565 S
C2761 H2767 0.959 1_565 S
C2761 H2768 0.961 . S
C2761 H2769 0.960 . S
C2762 C2760 1.381 . S
C2762 C2763 1.394 . S
C2762 H2770 0.930 . S
C2763 C2762 1.394 . S
C2763 C2764 1.383 . S
C2763 H2771 0.929 . S
C2764 C2763 1.383 . S
C2764 C2765 1.377 . S
C2765 H2749 0.930 . S
C2765 C2764 1.377 . S
C2765 C2766 1.379 . S
C2766 H2750 0.931 . S
C2766 C2760 1.383 . S
C2766 C2765 1.379 . S
H2767 C2761 0.959 1_545 S
H2768 C2761 0.961 . S
H2769 C2761 0.960 . S
H2770 C2762 0.930 . S
H2771 C2763 0.929 . S
H2772 C2780 0.929 . S
H2773 C2782 0.930 . S
H2774 C2784 0.930 . S
H2775 C2787 0.929 . S
H2776 C2790 0.930 . S
H2777 C2792 0.945 1_655 S
H2778 C2792 0.970 . S
H2779 C2792 0.970 . S
C2780 H2772 0.929 . S
C2780 C2781 1.377 . S
C2780 C2782 1.384 . S
C2781 C2780 1.377 . S
C2781 C2787 1.390 . S
C2782 H2773 0.930 . S
C2782 C2780 1.384 . S
C2782 C2783 1.372 . S
C2783 C2782 1.372 . S
C2783 C2784 1.400 . S
C2783 C2788 1.490 1_455 S
C2784 H2774 0.930 . S
C2784 C2783 1.400 . S
C2784 C2787 1.386 . S
H2785 C2801 0.930 . S
H2786 C2802 0.931 . S
C2787 H2775 0.929 . S
C2787 C2781 1.390 . S
C2787 C2784 1.386 . S
C2788 C2783 1.490 1_655 S
C2788 C2790 1.395 . S
C2788 C2791 1.403 . S
H2789 C2795 0.930 . S
C2790 H2776 0.930 . S
C2790 C2788 1.395 . S
C2790 C2793 1.403 . S
C2791 C2788 1.403 . S
C2791 C2792 1.519 1_655 S
C2791 C2795 1.400 . S
C2792 H2777 0.945 1_455 S
C2792 H2778 0.970 . S
C2792 H2779 0.970 . S
C2792 C2791 1.519 1_455 S
C2793 C2790 1.403 . S
C2793 C2794 1.392 . S
C2793 C2797 1.495 . S
C2794 C2793 1.392 . S
C2794 C2795 1.385 . S
C2794 C2796 1.478 . S
C2795 H2789 0.930 . S
C2795 C2791 1.400 . S
C2795 C2794 1.385 . S
C2796 C2794 1.478 . S
C2796 C2798 1.381 . S
C2796 C2802 1.383 . S
C2797 C2793 1.495 . S
C2797 H2803 0.959 . S
C2797 H2804 0.961 . S
C2797 H2805 0.960 . S
C2798 C2796 1.381 . S
C2798 C2799 1.394 . S
C2798 H2806 0.930 . S
C2799 C2798 1.394 . S
C2799 C2800 1.383 . S
C2799 H2807 0.929 . S
C2800 C2799 1.383 . S
C2800 C2801 1.377 . S
C2801 H2785 0.930 . S
C2801 C2800 1.377 . S
C2801 C2802 1.379 . S
C2802 H2786 0.931 . S
C2802 C2796 1.383 . S
C2802 C2801 1.379 . S
H2803 C2797 0.959 . S
H2804 C2797 0.961 . S
H2805 C2797 0.960 . S
H2806 C2798 0.930 . S
H2807 C2799 0.929 . S
H2808 C2816 0.929 . S
H2809 C2818 0.930 . S
H2810 C2820 0.930 . S
H2811 C2823 0.929 . S
H2812 C2826 0.930 . S
H2813 C2828 0.960 . S
H2814 C2828 0.960 . S
H2815 C2828 0.960 . S
C2816 H2808 0.929 . S
C2816 C2817 1.377 . S
C2816 C2818 1.384 . S
C2817 C2816 1.377 . S
C2817 C2823 1.390 . S
C2818 H2809 0.930 . S
C2818 C2816 1.384 . S
C2818 C2819 1.372 . S
C2819 C2818 1.372 . S
C2819 C2820 1.400 . S
C2819 C2824 1.490 . S
C2820 H2810 0.930 . S
C2820 C2819 1.400 . S
C2820 C2823 1.386 . S
H2821 C2837 0.930 . S
H2822 C2838 0.931 . S
C2823 H2811 0.929 . S
C2823 C2817 1.390 . S
C2823 C2820 1.386 . S
C2824 C2819 1.490 . S
C2824 C2826 1.395 . S
C2824 C2827 1.403 . S
H2825 C2831 0.930 . S
C2826 H2812 0.930 . S
C2826 C2824 1.395 . S
C2826 C2829 1.403 . S
C2827 C2824 1.403 . S
C2827 C2828 1.524 . S
C2827 C2831 1.400 . S
C2828 H2813 0.960 . S
C2828 H2814 0.960 . S
C2828 H2815 0.960 . S
C2828 C2827 1.524 . S
C2829 C2826 1.403 . S
C2829 C2830 1.392 . S
C2829 C2833 1.495 . S
C2830 C2829 1.392 . S
C2830 C2831 1.385 . S
C2830 C2832 1.478 . S
C2831 H2825 0.930 . S
C2831 C2827 1.400 . S
C2831 C2830 1.385 . S
C2832 C2830 1.478 . S
C2832 C2834 1.381 . S
C2832 C2838 1.383 . S
C2833 C2829 1.495 . S
C2833 H2839 0.959 . S
C2833 H2840 0.961 . S
C2833 H2841 0.960 . S
C2834 C2832 1.381 . S
C2834 C2835 1.394 . S
C2834 H2842 0.930 . S
C2835 C2834 1.394 . S
C2835 C2836 1.383 1_655 S
C2835 H2843 0.929 . S
C2836 C2835 1.383 1_455 S
C2836 C2837 1.377 . S
C2837 H2821 0.930 . S
C2837 C2836 1.377 . S
C2837 C2838 1.379 1_455 S
C2838 H2822 0.931 . S
C2838 C2832 1.383 . S
C2838 C2837 1.379 1_655 S
H2839 C2833 0.959 . S
H2840 C2833 0.961 . S
H2841 C2833 0.960 . S
H2842 C2834 0.930 . S
H2843 C2835 0.929 . S
H2844 C2852 0.929 . S
H2845 C2854 0.930 . S
H2846 C2856 0.930 . S
H2847 C2859 0.929 . S
H2848 C2862 0.930 . S
H2849 C2864 0.960 . S
H2850 C2864 0.960 . S
H2851 C2864 0.960 . S
C2852 H2844 0.929 . S
C2852 C2853 1.377 . S
C2852 C2854 1.384 . S
C2853 C2852 1.377 . S
C2853 C2859 1.390 . S
C2854 H2845 0.930 . S
C2854 C2852 1.384 . S
C2854 C2855 1.372 . S
C2855 C2854 1.372 . S
C2855 C2856 1.400 . S
C2855 C2860 1.490 1_565 S
C2856 H2846 0.930 . S
C2856 C2855 1.400 . S
C2856 C2859 1.386 . S
H2857 C2873 0.930 . S
H2858 C2874 0.931 . S
C2859 H2847 0.929 . S
C2859 C2853 1.390 . S
C2859 C2856 1.386 . S
C2860 C2855 1.490 1_545 S
C2860 C2862 1.395 . S
C2860 C2863 1.403 . S
H2861 C2867 0.930 . S
C2862 H2848 0.930 . S
C2862 C2860 1.395 . S
C2862 C2865 1.403 . S
C2863 C2860 1.403 . S
C2863 C2864 1.524 . S
C2863 C2867 1.400 . S
C2864 H2849 0.960 . S
C2864 H2850 0.960 . S
C2864 H2851 0.960 . S
C2864 C2863 1.524 . S
C2865 C2862 1.403 . S
C2865 C2866 1.392 . S
C2865 C2869 1.495 . S
C2866 C2865 1.392 . S
C2866 C2867 1.385 . S
C2866 C2868 1.478 . S
C2867 H2861 0.930 . S
C2867 C2863 1.400 . S
C2867 C2866 1.385 . S
C2868 C2866 1.478 . S
C2868 C2870 1.381 . S
C2868 C2874 1.383 . S
C2869 C2865 1.495 . S
C2869 H2875 0.959 . S
C2869 H2876 0.961 . S
C2869 H2877 0.960 . S
C2870 C2868 1.381 . S
C2870 C2871 1.394 . S
C2870 H2878 0.930 . S
C2871 C2870 1.394 . S
C2871 C2872 1.383 . S
C2871 H2879 0.929 . S
C2872 C2871 1.383 . S
C2872 C2873 1.377 . S
C2873 H2857 0.930 . S
C2873 C2872 1.377 . S
C2873 C2874 1.379 . S
C2874 H2858 0.931 . S
C2874 C2868 1.383 . S
C2874 C2873 1.379 . S
H2875 C2869 0.959 . S
H2876 C2869 0.961 . S
H2877 C2869 0.960 . S
H2878 C2870 0.930 . S
H2879 C2871 0.929 . S
H2880 C2888 0.929 . S
H2881 C2890 0.930 . S
H2882 C2892 0.930 . S
H2883 C2895 0.929 . S
H2884 C2898 0.930 . S
H2885 C2900 0.960 . S
H2886 C2900 0.960 . S
H2887 C2900 0.960 . S
C2888 H2880 0.929 . S
C2888 C2889 1.377 . S
C2888 C2890 1.384 . S
C2889 C2888 1.377 . S
C2889 C2895 1.390 . S
C2890 H2881 0.930 . S
C2890 C2888 1.384 . S
C2890 C2891 1.372 . S
C2891 C2890 1.372 . S
C2891 C2892 1.400 . S
C2891 C2896 1.490 1_455 S
C2892 H2882 0.930 . S
C2892 C2891 1.400 . S
C2892 C2895 1.386 . S
H2893 C2909 0.930 . S
H2894 C2910 0.931 . S
C2895 H2883 0.929 . S
C2895 C2889 1.390 . S
C2895 C2892 1.386 . S
C2896 C2891 1.490 1_655 S
C2896 C2898 1.395 . S
C2896 C2899 1.403 . S
H2897 C2903 0.930 . S
C2898 H2884 0.930 . S
C2898 C2896 1.395 . S
C2898 C2901 1.403 . S
C2899 C2896 1.403 . S
C2899 C2900 1.524 . S
C2899 C2903 1.400 . S
C2900 H2885 0.960 . S
C2900 H2886 0.960 . S
C2900 H2887 0.960 . S
C2900 C2899 1.524 . S
C2901 C2898 1.403 . S
C2901 C2902 1.392 . S
C2901 C2905 1.495 . S
C2902 C2901 1.392 . S
C2902 C2903 1.385 . S
C2902 C2904 1.478 . S
C2903 H2897 0.930 . S
C2903 C2899 1.400 . S
C2903 C2902 1.385 . S
C2904 C2902 1.478 . S
C2904 C2906 1.381 . S
C2904 C2910 1.383 . S
C2905 C2901 1.495 . S
C2905 H2911 0.959 . S
C2905 H2912 0.961 . S
C2905 H2913 0.960 . S
C2906 C2904 1.381 . S
C2906 C2907 1.394 1_545 S
C2906 H2914 0.930 . S
C2907 C2906 1.394 1_565 S
C2907 C2908 1.383 . S
C2907 H2915 0.929 . S
C2908 C2907 1.383 . S
C2908 C2909 1.377 1_565 S
C2909 H2893 0.930 . S
C2909 C2908 1.377 1_545 S
C2909 C2910 1.379 . S
C2910 H2894 0.931 . S
C2910 C2904 1.383 . S
C2910 C2909 1.379 . S
H2911 C2905 0.959 . S
H2912 C2905 0.961 . S
H2913 C2905 0.960 . S
H2914 C2906 0.930 . S
H2915 C2907 0.929 . S
H2916 C2924 0.929 . S
H2917 C2926 0.930 . S
H2918 C2928 0.930 . S
H2919 C2931 0.929 . S
H2920 C2934 0.930 . S
H2921 C2936 0.960 . S
H2922 C2936 0.960 . S
H2923 C2936 0.960 . S
C2924 H2916 0.929 . S
C2924 C2925 1.377 . S
C2924 C2926 1.384 1_545 S
C2925 C2924 1.377 . S
C2925 C2931 1.390 1_545 S
C2926 H2917 0.930 . S
C2926 C2924 1.384 1_565 S
C2926 C2927 1.372 . S
C2927 C2926 1.372 . S
C2927 C2928 1.400 . S
C2927 C2932 1.490 . S
C2928 H2918 0.930 . S
C2928 C2927 1.400 . S
C2928 C2931 1.386 . S
H2929 C2945 0.930 . S
H2930 C2946 0.931 . S
C2931 H2919 0.929 . S
C2931 C2925 1.390 1_565 S
C2931 C2928 1.386 . S
C2932 C2927 1.490 . S
C2932 C2934 1.395 . S
C2932 C2935 1.403 . S
H2933 C2939 0.930 . S
C2934 H2920 0.930 . S
C2934 C2932 1.395 . S
C2934 C2937 1.403 . S
C2935 C2932 1.403 . S
C2935 C2936 1.524 . S
C2935 C2939 1.400 . S
C2936 H2921 0.960 . S
C2936 H2922 0.960 . S
C2936 H2923 0.960 . S
C2936 C2935 1.524 . S
C2937 C2934 1.403 . S
C2937 C2938 1.392 . S
C2937 C2941 1.495 . S
C2938 C2937 1.392 . S
C2938 C2939 1.385 . S
C2938 C2940 1.478 . S
C2939 H2933 0.930 . S
C2939 C2935 1.400 . S
C2939 C2938 1.385 . S
C2940 C2938 1.478 . S
C2940 C2942 1.381 . S
C2940 C2946 1.383 . S
C2941 C2937 1.495 . S
C2941 H2947 0.959 . S
C2941 H2948 0.961 . S
C2941 H2949 0.960 . S
C2942 C2940 1.381 . S
C2942 C2943 1.394 . S
C2942 H2950 0.930 . S
C2943 C2942 1.394 . S
C2943 C2944 1.383 . S
C2943 H2951 0.929 . S
C2944 C2943 1.383 . S
C2944 C2945 1.377 . S
C2945 H2929 0.930 . S
C2945 C2944 1.377 . S
C2945 C2946 1.379 . S
C2946 H2930 0.931 . S
C2946 C2940 1.383 . S
C2946 C2945 1.379 . S
H2947 C2941 0.959 . S
H2948 C2941 0.961 . S
H2949 C2941 0.960 . S
H2950 C2942 0.930 . S
H2951 C2943 0.929 . S
H2952 C2960 0.929 . S
H2953 C2962 0.930 . S
H2954 C2964 0.930 . S
H2955 C2967 0.929 . S
H2956 C2970 0.930 . S
H2957 C2972 0.960 . S
H2958 C2972 0.960 . S
H2959 C2972 0.960 . S
C2960 H2952 0.929 . S
C2960 C2961 1.377 . S
C2960 C2962 1.384 . S
C2961 C2960 1.377 . S
C2961 C2967 1.390 . S
C2962 H2953 0.930 . S
C2962 C2960 1.384 . S
C2962 C2963 1.372 . S
C2963 C2962 1.372 . S
C2963 C2964 1.400 . S
C2963 C2968 1.490 1_545 S
C2964 H2954 0.930 . S
C2964 C2963 1.400 . S
C2964 C2967 1.386 . S
H2965 C2981 0.930 . S
H2966 C2982 0.931 . S
C2967 H2955 0.929 . S
C2967 C2961 1.390 . S
C2967 C2964 1.386 . S
C2968 C2963 1.490 1_565 S
C2968 C2970 1.395 . S
C2968 C2971 1.403 . S
H2969 C2975 0.930 . S
C2970 H2956 0.930 . S
C2970 C2968 1.395 . S
C2970 C2973 1.403 . S
C2971 C2968 1.403 . S
C2971 C2972 1.524 . S
C2971 C2975 1.400 . S
C2972 H2957 0.960 . S
C2972 H2958 0.960 . S
C2972 H2959 0.960 . S
C2972 C2971 1.524 . S
C2973 C2970 1.403 . S
C2973 C2974 1.392 . S
C2973 C2977 1.495 . S
C2974 C2973 1.392 . S
C2974 C2975 1.385 . S
C2974 C2976 1.478 . S
C2975 H2969 0.930 . S
C2975 C2971 1.400 . S
C2975 C2974 1.385 . S
C2976 C2974 1.478 . S
C2976 C2978 1.381 . S
C2976 C2982 1.383 . S
C2977 C2973 1.495 . S
C2977 H2983 0.959 . S
C2977 H2984 0.961 . S
C2977 H2985 0.960 . S
C2978 C2976 1.381 . S
C2978 C2979 1.394 . S
C2978 H2986 0.930 . S
C2979 C2978 1.394 . S
C2979 C2980 1.383 1_455 S
C2979 H2987 0.929 . S
C2980 C2979 1.383 1_655 S
C2980 C2981 1.377 . S
C2981 H2965 0.930 . S
C2981 C2980 1.377 . S
C2981 C2982 1.379 1_655 S
C2982 H2966 0.931 . S
C2982 C2976 1.383 . S
C2982 C2981 1.379 1_455 S
H2983 C2977 0.959 . S
H2984 C2977 0.961 . S
H2985 C2977 0.960 . S
H2986 C2978 0.930 . S
H2987 C2979 0.929 . S
H2988 C2996 0.929 . S
H2989 C2998 0.930 . S
H2990 C3000 0.930 . S
H2991 C3003 0.929 . S
H2992 C3006 0.930 . S
H2993 C3008 0.960 . S
H2994 C3008 0.960 . S
H2995 C3008 0.960 . S
C2996 H2988 0.929 . S
C2996 C2997 1.377 . S
C2996 C2998 1.384 . S
C2997 C2996 1.377 . S
C2997 C3003 1.390 . S
C2998 H2989 0.930 . S
C2998 C2996 1.384 . S
C2998 C2999 1.372 . S
C2999 C2998 1.372 . S
C2999 C3000 1.400 . S
C2999 C3004 1.490 . S
C3000 H2990 0.930 . S
C3000 C2999 1.400 . S
C3000 C3003 1.386 . S
H3001 C3017 0.930 . S
H3002 C3018 0.931 . S
C3003 H2991 0.929 . S
C3003 C2997 1.390 . S
C3003 C3000 1.386 . S
C3004 C2999 1.490 . S
C3004 C3006 1.395 . S
C3004 C3007 1.403 . S
H3005 C3011 0.930 . S
C3006 H2992 0.930 . S
C3006 C3004 1.395 . S
C3006 C3009 1.403 . S
C3007 C3004 1.403 . S
C3007 C3008 1.524 . S
C3007 C3011 1.400 . S
C3008 H2993 0.960 . S
C3008 H2994 0.960 . S
C3008 H2995 0.960 . S
C3008 C3007 1.524 . S
C3009 C3006 1.403 . S
C3009 C3010 1.392 . S
C3009 C3013 1.495 . S
C3010 C3009 1.392 . S
C3010 C3011 1.385 . S
C3010 C3012 1.478 1_455 S
C3011 H3005 0.930 . S
C3011 C3007 1.400 . S
C3011 C3010 1.385 . S
C3012 C3010 1.478 1_655 S
C3012 C3014 1.381 . S
C3012 C3018 1.383 . S
C3013 C3009 1.495 . S
C3013 H3019 0.959 . S
C3013 H3020 0.961 . S
C3013 H3021 0.960 . S
C3014 C3012 1.381 . S
C3014 C3015 1.394 . S
C3014 H3022 0.930 . S
C3015 C3014 1.394 . S
C3015 C3016 1.383 . S
C3015 H3023 0.929 . S
C3016 C3015 1.383 . S
C3016 C3017 1.377 . S
C3017 H3001 0.930 . S
C3017 C3016 1.377 . S
C3017 C3018 1.379 . S
C3018 H3002 0.931 . S
C3018 C3012 1.383 . S
C3018 C3017 1.379 . S
H3019 C3013 0.959 . S
H3020 C3013 0.961 . S
H3021 C3013 0.960 . S
H3022 C3014 0.930 . S
H3023 C3015 0.929 . S
H3024 C3032 0.929 . S
H3025 C3034 0.930 . S
H3026 C3036 0.930 . S
H3027 C3039 0.929 . S
H3028 C3042 0.930 . S
H3029 C3044 0.960 . S
H3030 C3044 0.960 . S
H3031 C3044 0.960 . S
C3032 H3024 0.929 . S
C3032 C3033 1.377 . S
C3032 C3034 1.384 . S
C3033 C3032 1.377 . S
C3033 C3039 1.390 . S
C3034 H3025 0.930 . S
C3034 C3032 1.384 . S
C3034 C3035 1.372 . S
C3035 C3034 1.372 . S
C3035 C3036 1.400 . S
C3035 C3040 1.490 . S
C3036 H3026 0.930 . S
C3036 C3035 1.400 . S
C3036 C3039 1.386 . S
H3037 C3053 0.930 . S
H3038 C3054 0.931 . S
C3039 H3027 0.929 . S
C3039 C3033 1.390 . S
C3039 C3036 1.386 . S
C3040 C3035 1.490 . S
C3040 C3042 1.395 . S
C3040 C3043 1.403 . S
H3041 C3047 0.930 . S
C3042 H3028 0.930 . S
C3042 C3040 1.395 . S
C3042 C3045 1.403 . S
C3043 C3040 1.403 . S
C3043 C3044 1.524 . S
C3043 C3047 1.400 . S
C3044 H3029 0.960 . S
C3044 H3030 0.960 . S
C3044 H3031 0.960 . S
C3044 C3043 1.524 . S
C3045 C3042 1.403 . S
C3045 C3046 1.392 . S
C3045 C3049 1.495 . S
C3046 C3045 1.392 . S
C3046 C3047 1.385 . S
C3046 C3048 1.478 . S
C3047 H3041 0.930 . S
C3047 C3043 1.400 . S
C3047 C3046 1.385 . S
C3048 C3046 1.478 . S
C3048 C3050 1.381 . S
C3048 C3054 1.383 . S
C3049 C3045 1.495 . S
C3049 H3055 0.959 . S
C3049 H3056 0.961 . S
C3049 H3057 0.960 . S
C3050 C3048 1.381 . S
C3050 C3051 1.394 . S
C3050 H3058 0.930 . S
C3051 C3050 1.394 . S
C3051 C3052 1.383 . S
C3051 H3059 0.929 . S
C3052 C3051 1.383 . S
C3052 C3053 1.377 . S
C3053 H3037 0.930 . S
C3053 C3052 1.377 . S
C3053 C3054 1.379 . S
C3054 H3038 0.931 . S
C3054 C3048 1.383 . S
C3054 C3053 1.379 . S
H3055 C3049 0.959 . S
H3056 C3049 0.961 . S
H3057 C3049 0.960 . S
H3058 C3050 0.930 . S
H3059 C3051 0.929 . S
H3060 C3068 0.929 . S
H3061 C3070 0.930 . S
H3062 C3072 0.930 . S
H3063 C3075 0.929 . S
H3064 C3078 0.930 . S
H3065 C3080 0.960 . S
H3066 C3080 0.960 . S
H3067 C3080 0.960 . S
C3068 H3060 0.929 . S
C3068 C3069 1.377 . S
C3068 C3070 1.384 . S
C3069 C3068 1.377 . S
C3069 C3075 1.390 . S
C3070 H3061 0.930 . S
C3070 C3068 1.384 . S
C3070 C3071 1.372 . S
C3071 C3070 1.372 . S
C3071 C3072 1.400 . S
C3071 C3076 1.490 . S
C3072 H3062 0.930 . S
C3072 C3071 1.400 . S
C3072 C3075 1.386 . S
H3073 C3089 0.930 . S
H3074 C3090 0.931 . S
C3075 H3063 0.929 . S
C3075 C3069 1.390 . S
C3075 C3072 1.386 . S
C3076 C3071 1.490 . S
C3076 C3078 1.395 . S
C3076 C3079 1.403 . S
H3077 C3083 0.930 . S
C3078 H3064 0.930 . S
C3078 C3076 1.395 . S
C3078 C3081 1.403 . S
C3079 C3076 1.403 . S
C3079 C3080 1.524 . S
C3079 C3083 1.400 . S
C3080 H3065 0.960 . S
C3080 H3066 0.960 . S
C3080 H3067 0.960 . S
C3080 C3079 1.524 . S
C3081 C3078 1.403 . S
C3081 C3082 1.392 . S
C3081 C3085 1.495 . S
C3082 C3081 1.392 . S
C3082 C3083 1.385 . S
C3082 C3084 1.478 . S
C3083 H3077 0.930 . S
C3083 C3079 1.400 . S
C3083 C3082 1.385 . S
C3084 C3082 1.478 . S
C3084 C3086 1.381 . S
C3084 C3090 1.383 . S
C3085 C3081 1.495 . S
C3085 H3091 0.959 . S
C3085 H3092 0.961 . S
C3085 H3093 0.960 . S
C3086 C3084 1.381 . S
C3086 C3087 1.394 . S
C3086 H3094 0.930 . S
C3087 C3086 1.394 . S
C3087 C3088 1.383 . S
C3087 H3095 0.929 . S
C3088 C3087 1.383 . S
C3088 C3089 1.377 . S
C3089 H3073 0.930 . S
C3089 C3088 1.377 . S
C3089 C3090 1.379 . S
C3090 H3074 0.931 . S
C3090 C3084 1.383 . S
C3090 C3089 1.379 . S
H3091 C3085 0.959 . S
H3092 C3085 0.961 . S
H3093 C3085 0.960 . S
H3094 C3086 0.930 . S
H3095 C3087 0.929 . S
H3096 C3104 0.929 . S
H3097 C3106 0.930 . S
H3098 C3108 0.930 . S
H3099 C3111 0.929 . S
H3100 C3114 0.930 . S
H3101 C3116 0.960 . S
H3102 C3116 0.960 . S
H3103 C3116 0.960 . S
C3104 H3096 0.929 . S
C3104 C3105 1.377 . S
C3104 C3106 1.384 . S
C3105 C3104 1.377 . S
C3105 C3111 1.390 . S
C3106 H3097 0.930 . S
C3106 C3104 1.384 . S
C3106 C3107 1.372 . S
C3107 C3106 1.372 . S
C3107 C3108 1.400 . S
C3107 C3112 1.490 . S
C3108 H3098 0.930 . S
C3108 C3107 1.400 . S
C3108 C3111 1.386 . S
H3109 C3125 0.930 . S
H3110 C3126 0.931 . S
C3111 H3099 0.929 . S
C3111 C3105 1.390 . S
C3111 C3108 1.386 . S
C3112 C3107 1.490 . S
C3112 C3114 1.395 . S
C3112 C3115 1.403 . S
H3113 C3119 0.930 . S
C3114 H3100 0.930 . S
C3114 C3112 1.395 . S
C3114 C3117 1.403 . S
C3115 C3112 1.403 . S
C3115 C3116 1.524 . S
C3115 C3119 1.400 . S
C3116 H3101 0.960 . S
C3116 H3102 0.960 . S
C3116 H3103 0.960 . S
C3116 C3115 1.524 . S
C3117 C3114 1.403 . S
C3117 C3118 1.392 . S
C3117 C3121 1.495 . S
C3118 C3117 1.392 . S
C3118 C3119 1.385 . S
C3118 C3120 1.478 . S
C3119 H3113 0.930 . S
C3119 C3115 1.400 . S
C3119 C3118 1.385 . S
C3120 C3118 1.478 . S
C3120 C3122 1.381 . S
C3120 C3126 1.383 . S
C3121 C3117 1.495 . S
C3121 H3127 0.959 . S
C3121 H3128 0.961 . S
C3121 H3129 0.960 . S
C3122 C3120 1.381 . S
C3122 C3123 1.394 . S
C3122 H3130 0.930 . S
C3123 C3122 1.394 . S
C3123 C3124 1.383 . S
C3123 H3131 0.929 . S
C3124 C3123 1.383 . S
C3124 C3125 1.377 . S
C3125 H3109 0.930 . S
C3125 C3124 1.377 . S
C3125 C3126 1.379 . S
C3126 H3110 0.931 . S
C3126 C3120 1.383 . S
C3126 C3125 1.379 . S
H3127 C3121 0.959 . S
H3128 C3121 0.961 . S
H3129 C3121 0.960 . S
H3130 C3122 0.930 . S
H3131 C3123 0.929 . S
H3132 C3140 0.929 . S
H3133 C3142 0.930 . S
H3134 C3144 0.930 . S
H3135 C3147 0.929 . S
H3136 C3150 0.930 . S
H3137 C3152 0.960 . S
H3138 C3152 0.960 . S
H3139 C3152 0.960 . S
C3140 H3132 0.929 . S
C3140 C3141 1.377 . S
C3140 C3142 1.384 . S
C3141 C3140 1.377 . S
C3141 C3147 1.390 . S
C3142 H3133 0.930 . S
C3142 C3140 1.384 . S
C3142 C3143 1.372 . S
C3143 C3142 1.372 . S
C3143 C3144 1.400 . S
C3143 C3148 1.490 . S
C3144 H3134 0.930 . S
C3144 C3143 1.400 . S
C3144 C3147 1.386 . S
H3145 C3161 0.930 . S
H3146 C3162 0.931 . S
C3147 H3135 0.929 . S
C3147 C3141 1.390 . S
C3147 C3144 1.386 . S
C3148 C3143 1.490 . S
C3148 C3150 1.395 . S
C3148 C3151 1.403 . S
H3149 C3155 0.930 . S
C3150 H3136 0.930 . S
C3150 C3148 1.395 . S
C3150 C3153 1.403 . S
C3151 C3148 1.403 . S
C3151 C3152 1.524 . S
C3151 C3155 1.400 . S
C3152 H3137 0.960 . S
C3152 H3138 0.960 . S
C3152 H3139 0.960 . S
C3152 C3151 1.524 . S
C3153 C3150 1.403 . S
C3153 C3154 1.392 . S
C3153 C3157 1.495 . S
C3154 C3153 1.392 . S
C3154 C3155 1.385 . S
C3154 C3156 1.478 . S
C3155 H3149 0.930 . S
C3155 C3151 1.400 . S
C3155 C3154 1.385 . S
C3156 C3154 1.478 . S
C3156 C3158 1.381 . S
C3156 C3162 1.383 . S
C3157 C3153 1.495 . S
C3157 H3163 0.959 . S
C3157 H3164 0.961 . S
C3157 H3165 0.960 . S
C3158 C3156 1.381 . S
C3158 C3159 1.394 . S
C3158 H3166 0.930 . S
C3159 C3158 1.394 . S
C3159 C3160 1.383 . S
C3159 H3167 0.929 . S
C3160 C3159 1.383 . S
C3160 C3161 1.377 . S
C3161 H3145 0.930 . S
C3161 C3160 1.377 . S
C3161 C3162 1.379 . S
C3162 H3146 0.931 . S
C3162 C3156 1.383 . S
C3162 C3161 1.379 . S
H3163 C3157 0.959 . S
H3164 C3157 0.961 . S
H3165 C3157 0.960 . S
H3166 C3158 0.930 . S
H3167 C3159 0.929 . S
H3168 C3176 0.929 . S
H3169 C3178 0.930 . S
H3170 C3180 0.930 . S
H3171 C3183 0.929 . S
H3172 C3186 0.930 . S
H3173 C3188 0.960 . S
H3174 C3188 0.960 . S
H3175 C3188 0.960 . S
C3176 H3168 0.929 . S
C3176 C3177 1.377 . S
C3176 C3178 1.384 . S
C3177 C3176 1.377 . S
C3177 C3183 1.390 . S
C3178 H3169 0.930 . S
C3178 C3176 1.384 . S
C3178 C3179 1.372 . S
C3179 C3178 1.372 . S
C3179 C3180 1.400 . S
C3179 C3184 1.490 . S
C3180 H3170 0.930 . S
C3180 C3179 1.400 . S
C3180 C3183 1.386 . S
H3181 C3197 0.930 . S
H3182 C3198 0.931 . S
C3183 H3171 0.929 . S
C3183 C3177 1.390 . S
C3183 C3180 1.386 . S
C3184 C3179 1.490 . S
C3184 C3186 1.395 . S
C3184 C3187 1.403 . S
H3185 C3191 0.930 . S
C3186 H3172 0.930 . S
C3186 C3184 1.395 . S
C3186 C3189 1.403 . S
C3187 C3184 1.403 . S
C3187 C3188 1.524 . S
C3187 C3191 1.400 . S
C3188 H3173 0.960 . S
C3188 H3174 0.960 . S
C3188 H3175 0.960 . S
C3188 C3187 1.524 . S
C3189 C3186 1.403 . S
C3189 C3190 1.392 . S
C3189 C3193 1.495 . S
C3190 C3189 1.392 . S
C3190 C3191 1.385 . S
C3190 C3192 1.478 . S
C3191 H3185 0.930 . S
C3191 C3187 1.400 . S
C3191 C3190 1.385 . S
C3192 C3190 1.478 . S
C3192 C3194 1.381 . S
C3192 C3198 1.383 . S
C3193 C3189 1.495 . S
C3193 H3199 0.959 . S
C3193 H3200 0.961 . S
C3193 H3201 0.960 . S
C3194 C3192 1.381 . S
C3194 C3195 1.394 . S
C3194 H3202 0.930 . S
C3195 C3194 1.394 . S
C3195 C3196 1.383 . S
C3195 H3203 0.929 . S
C3196 C3195 1.383 . S
C3196 C3197 1.377 . S
C3197 H3181 0.930 . S
C3197 C3196 1.377 . S
C3197 C3198 1.379 . S
C3198 H3182 0.931 . S
C3198 C3192 1.383 . S
C3198 C3197 1.379 . S
H3199 C3193 0.959 . S
H3200 C3193 0.961 . S
H3201 C3193 0.960 . S
H3202 C3194 0.930 . S
H3203 C3195 0.929 . S
H3204 C3212 0.929 . S
H3205 C3214 0.930 . S
H3206 C3216 0.930 . S
H3207 C3219 0.929 . S
H3208 C3222 0.930 . S
H3209 C3224 0.960 . S
H3210 C3224 0.960 . S
H3211 C3224 0.960 . S
C3212 H3204 0.929 . S
C3212 C3213 1.377 . S
C3212 C3214 1.384 . S
C3213 C3212 1.377 . S
C3213 C3219 1.390 . S
C3214 H3205 0.930 . S
C3214 C3212 1.384 . S
C3214 C3215 1.372 . S
C3215 C3214 1.372 . S
C3215 C3216 1.400 . S
C3215 C3220 1.490 . S
C3216 H3206 0.930 . S
C3216 C3215 1.400 . S
C3216 C3219 1.386 . S
H3217 C3233 0.930 . S
H3218 C3234 0.931 . S
C3219 H3207 0.929 . S
C3219 C3213 1.390 . S
C3219 C3216 1.386 . S
C3220 C3215 1.490 . S
C3220 C3222 1.395 . S
C3220 C3223 1.403 . S
H3221 C3227 0.930 . S
C3222 H3208 0.930 . S
C3222 C3220 1.395 . S
C3222 C3225 1.403 . S
C3223 C3220 1.403 . S
C3223 C3224 1.524 . S
C3223 C3227 1.400 . S
C3224 H3209 0.960 . S
C3224 H3210 0.960 . S
C3224 H3211 0.960 . S
C3224 C3223 1.524 . S
C3225 C3222 1.403 . S
C3225 C3226 1.392 . S
C3225 C3229 1.495 . S
C3226 C3225 1.392 . S
C3226 C3227 1.385 . S
C3226 C3228 1.478 . S
C3227 H3221 0.930 . S
C3227 C3223 1.400 . S
C3227 C3226 1.385 . S
C3228 C3226 1.478 . S
C3228 C3230 1.381 . S
C3228 C3234 1.383 . S
C3229 C3225 1.495 . S
C3229 H3235 0.959 . S
C3229 H3236 0.961 . S
C3229 H3237 0.960 . S
C3230 C3228 1.381 . S
C3230 C3231 1.394 . S
C3230 H3238 0.930 . S
C3231 C3230 1.394 . S
C3231 C3232 1.383 . S
C3231 H3239 0.929 . S
C3232 C3231 1.383 . S
C3232 C3233 1.377 . S
C3233 H3217 0.930 . S
C3233 C3232 1.377 . S
C3233 C3234 1.379 . S
C3234 H3218 0.931 . S
C3234 C3228 1.383 . S
C3234 C3233 1.379 . S
H3235 C3229 0.959 . S
H3236 C3229 0.961 . S
H3237 C3229 0.960 . S
H3238 C3230 0.930 . S
H3239 C3231 0.929 . S
H3240 C3248 0.929 . S
H3241 C3250 0.930 . S
H3242 C3252 0.930 . S
H3243 C3255 0.929 . S
H3244 C3258 0.930 . S
H3245 C3260 0.960 . S
H3246 C3260 0.960 . S
H3247 C3260 0.960 . S
C3248 H3240 0.929 . S
C3248 C3249 1.377 . S
C3248 C3250 1.384 . S
C3249 C3248 1.377 . S
C3249 C3255 1.390 . S
C3250 H3241 0.930 . S
C3250 C3248 1.384 . S
C3250 C3251 1.372 . S
C3251 C3250 1.372 . S
C3251 C3252 1.400 . S
C3251 C3256 1.490 . S
C3252 H3242 0.930 . S
C3252 C3251 1.400 . S
C3252 C3255 1.386 . S
H3253 C3269 0.930 . S
H3254 C3270 0.931 . S
C3255 H3243 0.929 . S
C3255 C3249 1.390 . S
C3255 C3252 1.386 . S
C3256 C3251 1.490 . S
C3256 C3258 1.395 . S
C3256 C3259 1.403 . S
H3257 C3263 0.930 . S
C3258 H3244 0.930 . S
C3258 C3256 1.395 . S
C3258 C3261 1.403 . S
C3259 C3256 1.403 . S
C3259 C3260 1.524 . S
C3259 C3263 1.400 . S
C3260 H3245 0.960 . S
C3260 H3246 0.960 . S
C3260 H3247 0.960 . S
C3260 C3259 1.524 . S
C3261 C3258 1.403 . S
C3261 C3262 1.392 . S
C3261 C3265 1.495 . S
C3262 C3261 1.392 . S
C3262 C3263 1.385 . S
C3262 C3264 1.478 . S
C3263 H3257 0.930 . S
C3263 C3259 1.400 . S
C3263 C3262 1.385 . S
C3264 C3262 1.478 . S
C3264 C3266 1.381 . S
C3264 C3270 1.383 . S
C3265 C3261 1.495 . S
C3265 H3271 0.959 . S
C3265 H3272 0.961 . S
C3265 H3273 0.960 . S
C3266 C3264 1.381 . S
C3266 C3267 1.394 . S
C3266 H3274 0.930 . S
C3267 C3266 1.394 . S
C3267 C3268 1.383 . S
C3267 H3275 0.929 . S
C3268 C3267 1.383 . S
C3268 C3269 1.377 . S
C3269 H3253 0.930 . S
C3269 C3268 1.377 . S
C3269 C3270 1.379 . S
C3270 H3254 0.931 . S
C3270 C3264 1.383 . S
C3270 C3269 1.379 . S
H3271 C3265 0.959 . S
H3272 C3265 0.961 . S
H3273 C3265 0.960 . S
H3274 C3266 0.930 . S
H3275 C3267 0.929 . S
H3276 C3284 0.929 . S
H3277 C3286 0.930 . S
H3278 C3288 0.930 . S
H3279 C3291 0.929 . S
H3280 C3294 0.930 . S
H3281 C3296 0.960 . S
H3282 C3296 0.960 . S
H3283 C3296 0.960 . S
C3284 H3276 0.929 . S
C3284 C3285 1.377 . S
C3284 C3286 1.384 . S
C3285 C3284 1.377 . S
C3285 C3291 1.390 . S
C3286 H3277 0.930 . S
C3286 C3284 1.384 . S
C3286 C3287 1.372 . S
C3287 C3286 1.372 . S
C3287 C3288 1.400 . S
C3287 C3292 1.490 . S
C3288 H3278 0.930 . S
C3288 C3287 1.400 . S
C3288 C3291 1.386 . S
H3289 C3305 0.930 . S
H3290 C3306 0.931 . S
C3291 H3279 0.929 . S
C3291 C3285 1.390 . S
C3291 C3288 1.386 . S
C3292 C3287 1.490 . S
C3292 C3294 1.395 . S
C3292 C3295 1.403 . S
H3293 C3299 0.930 . S
C3294 H3280 0.930 . S
C3294 C3292 1.395 . S
C3294 C3297 1.403 . S
C3295 C3292 1.403 . S
C3295 C3296 1.524 . S
C3295 C3299 1.400 . S
C3296 H3281 0.960 . S
C3296 H3282 0.960 . S
C3296 H3283 0.960 . S
C3296 C3295 1.524 . S
C3297 C3294 1.403 . S
C3297 C3298 1.392 . S
C3297 C3301 1.495 . S
C3298 C3297 1.392 . S
C3298 C3299 1.385 . S
C3298 C3300 1.478 . S
C3299 H3293 0.930 . S
C3299 C3295 1.400 . S
C3299 C3298 1.385 . S
C3300 C3298 1.478 . S
C3300 C3302 1.381 . S
C3300 C3306 1.383 . S
C3301 C3297 1.495 . S
C3301 H3307 0.959 . S
C3301 H3308 0.961 . S
C3301 H3309 0.960 . S
C3302 C3300 1.381 . S
C3302 C3303 1.394 . S
C3302 H3310 0.930 . S
C3303 C3302 1.394 . S
C3303 C3304 1.383 . S
C3303 H3311 0.929 . S
C3304 C3303 1.383 . S
C3304 C3305 1.377 . S
C3305 H3289 0.930 . S
C3305 C3304 1.377 . S
C3305 C3306 1.379 . S
C3306 H3290 0.931 . S
C3306 C3300 1.383 . S
C3306 C3305 1.379 . S
H3307 C3301 0.959 . S
H3308 C3301 0.961 . S
H3309 C3301 0.960 . S
H3310 C3302 0.930 . S
H3311 C3303 0.929 . S
H3312 C3320 0.929 . S
H3313 C3322 0.930 . S
H3314 C3324 0.930 . S
H3315 C3327 0.929 . S
H3316 C3330 0.930 . S
H3317 C3332 0.960 . S
H3318 C3332 0.960 . S
H3319 C3332 0.960 . S
C3320 H3312 0.929 . S
C3320 C3321 1.377 . S
C3320 C3322 1.384 . S
C3321 C3320 1.377 . S
C3321 C3327 1.390 . S
C3322 H3313 0.930 . S
C3322 C3320 1.384 . S
C3322 C3323 1.372 . S
C3323 C3322 1.372 . S
C3323 C3324 1.400 . S
C3323 C3328 1.490 . S
C3324 H3314 0.930 . S
C3324 C3323 1.400 . S
C3324 C3327 1.386 . S
H3325 C3341 0.930 . S
H3326 C3342 0.931 . S
C3327 H3315 0.929 . S
C3327 C3321 1.390 . S
C3327 C3324 1.386 . S
C3328 C3323 1.490 . S
C3328 C3330 1.395 . S
C3328 C3331 1.403 . S
H3329 C3335 0.930 . S
C3330 H3316 0.930 . S
C3330 C3328 1.395 . S
C3330 C3333 1.403 . S
C3331 C3328 1.403 . S
C3331 C3332 1.524 . S
C3331 C3335 1.400 . S
C3332 H3317 0.960 . S
C3332 H3318 0.960 . S
C3332 H3319 0.960 . S
C3332 C3331 1.524 . S
C3333 C3330 1.403 . S
C3333 C3334 1.392 . S
C3333 C3337 1.495 . S
C3334 C3333 1.392 . S
C3334 C3335 1.385 . S
C3334 C3336 1.478 . S
C3335 H3329 0.930 . S
C3335 C3331 1.400 . S
C3335 C3334 1.385 . S
C3336 C3334 1.478 . S
C3336 C3338 1.381 . S
C3336 C3342 1.383 . S
C3337 C3333 1.495 . S
C3337 H3343 0.959 . S
C3337 H3344 0.961 . S
C3337 H3345 0.960 . S
C3338 C3336 1.381 . S
C3338 C3339 1.394 . S
C3338 H3346 0.930 . S
C3339 C3338 1.394 . S
C3339 C3340 1.383 . S
C3339 H3347 0.929 . S
C3340 C3339 1.383 . S
C3340 C3341 1.377 . S
C3341 H3325 0.930 . S
C3341 C3340 1.377 . S
C3341 C3342 1.379 . S
C3342 H3326 0.931 . S
C3342 C3336 1.383 . S
C3342 C3341 1.379 . S
H3343 C3337 0.959 . S
H3344 C3337 0.961 . S
H3345 C3337 0.960 . S
H3346 C3338 0.930 . S
H3347 C3339 0.929 . S
H3348 C3356 0.929 . S
H3349 C3358 0.930 . S
H3350 C3360 0.930 . S
H3351 C3363 0.929 . S
H3352 C3366 0.930 . S
H3353 C3368 0.960 . S
H3354 C3368 0.960 . S
H3355 C3368 0.960 . S
C3356 H3348 0.929 . S
C3356 C3357 1.377 . S
C3356 C3358 1.384 . S
C3357 C3356 1.377 . S
C3357 C3363 1.390 . S
C3358 H3349 0.930 . S
C3358 C3356 1.384 . S
C3358 C3359 1.372 . S
C3359 C3358 1.372 . S
C3359 C3360 1.400 . S
C3359 C3364 1.490 . S
C3360 H3350 0.930 . S
C3360 C3359 1.400 . S
C3360 C3363 1.386 . S
H3361 C3377 0.930 . S
H3362 C3378 0.931 . S
C3363 H3351 0.929 . S
C3363 C3357 1.390 . S
C3363 C3360 1.386 . S
C3364 C3359 1.490 . S
C3364 C3366 1.395 . S
C3364 C3367 1.403 . S
H3365 C3371 0.930 . S
C3366 H3352 0.930 . S
C3366 C3364 1.395 . S
C3366 C3369 1.403 . S
C3367 C3364 1.403 . S
C3367 C3368 1.524 . S
C3367 C3371 1.400 . S
C3368 H3353 0.960 . S
C3368 H3354 0.960 . S
C3368 H3355 0.960 . S
C3368 C3367 1.524 . S
C3369 C3366 1.403 . S
C3369 C3370 1.392 . S
C3369 C3373 1.495 . S
C3370 C3369 1.392 . S
C3370 C3371 1.385 . S
C3370 C3372 1.478 . S
C3371 H3365 0.930 . S
C3371 C3367 1.400 . S
C3371 C3370 1.385 . S
C3372 C3370 1.478 . S
C3372 C3374 1.381 . S
C3372 C3378 1.383 . S
C3373 C3369 1.495 . S
C3373 H3379 0.959 . S
C3373 H3380 0.961 . S
C3373 H3381 0.960 . S
C3374 C3372 1.381 . S
C3374 C3375 1.394 . S
C3374 H3382 0.930 . S
C3375 C3374 1.394 . S
C3375 C3376 1.383 . S
C3375 H3383 0.929 . S
C3376 C3375 1.383 . S
C3376 C3377 1.377 . S
C3377 H3361 0.930 . S
C3377 C3376 1.377 . S
C3377 C3378 1.379 . S
C3378 H3362 0.931 . S
C3378 C3372 1.383 . S
C3378 C3377 1.379 . S
H3379 C3373 0.959 . S
H3380 C3373 0.961 . S
H3381 C3373 0.960 . S
H3382 C3374 0.930 . S
H3383 C3375 0.929 . S
H3384 C3392 0.929 . S
H3385 C3394 0.930 . S
H3386 C3396 0.930 . S
H3387 C3399 0.929 . S
H3388 C3402 0.930 . S
H3389 C3404 0.960 . S
H3390 C3404 0.960 . S
H3391 C3404 0.960 . S
C3392 H3384 0.929 . S
C3392 C3393 1.377 . S
C3392 C3394 1.384 . S
C3393 C3392 1.377 . S
C3393 C3399 1.390 . S
C3394 H3385 0.930 . S
C3394 C3392 1.384 . S
C3394 C3395 1.372 . S
C3395 C3394 1.372 . S
C3395 C3396 1.400 . S
C3395 C3400 1.490 . S
C3396 H3386 0.930 . S
C3396 C3395 1.400 . S
C3396 C3399 1.386 . S
H3397 C3413 0.930 . S
H3398 C3414 0.931 . S
C3399 H3387 0.929 . S
C3399 C3393 1.390 . S
C3399 C3396 1.386 . S
C3400 C3395 1.490 . S
C3400 C3402 1.395 . S
C3400 C3403 1.403 . S
H3401 C3407 0.930 . S
C3402 H3388 0.930 . S
C3402 C3400 1.395 . S
C3402 C3405 1.403 . S
C3403 C3400 1.403 . S
C3403 C3404 1.524 . S
C3403 C3407 1.400 . S
C3404 H3389 0.960 . S
C3404 H3390 0.960 . S
C3404 H3391 0.960 . S
C3404 C3403 1.524 . S
C3405 C3402 1.403 . S
C3405 C3406 1.392 . S
C3405 C3409 1.495 . S
C3406 C3405 1.392 . S
C3406 C3407 1.385 . S
C3406 C3408 1.478 . S
C3407 H3401 0.930 . S
C3407 C3403 1.400 . S
C3407 C3406 1.385 . S
C3408 C3406 1.478 . S
C3408 C3410 1.381 . S
C3408 C3414 1.383 . S
C3409 C3405 1.495 . S
C3409 H3415 0.959 . S
C3409 H3416 0.961 . S
C3409 H3417 0.960 . S
C3410 C3408 1.381 . S
C3410 C3411 1.394 . S
C3410 H3418 0.930 . S
C3411 C3410 1.394 . S
C3411 C3412 1.383 . S
C3411 H3419 0.929 . S
C3412 C3411 1.383 . S
C3412 C3413 1.377 . S
C3413 H3397 0.930 . S
C3413 C3412 1.377 . S
C3413 C3414 1.379 . S
C3414 H3398 0.931 . S
C3414 C3408 1.383 . S
C3414 C3413 1.379 . S
H3415 C3409 0.959 . S
H3416 C3409 0.961 . S
H3417 C3409 0.960 . S
H3418 C3410 0.930 . S
H3419 C3411 0.929 . S
H3420 C3428 0.929 . S
H3421 C3430 0.930 . S
H3422 C3432 0.930 . S
H3423 C3435 0.929 . S
H3424 C3438 0.930 . S
H3425 C3440 0.960 . S
H3426 C3440 0.960 . S
H3427 C3440 0.960 . S
C3428 H3420 0.929 . S
C3428 C3429 1.377 . S
C3428 C3430 1.384 . S
C3429 C3428 1.377 . S
C3429 C3435 1.390 . S
C3430 H3421 0.930 . S
C3430 C3428 1.384 . S
C3430 C3431 1.372 . S
C3431 C3430 1.372 . S
C3431 C3432 1.400 . S
C3431 C3436 1.490 . S
C3432 H3422 0.930 . S
C3432 C3431 1.400 . S
C3432 C3435 1.386 . S
H3433 C3449 0.930 . S
H3434 C3450 0.931 . S
C3435 H3423 0.929 . S
C3435 C3429 1.390 . S
C3435 C3432 1.386 . S
C3436 C3431 1.490 . S
C3436 C3438 1.395 . S
C3436 C3439 1.403 . S
H3437 C3443 0.930 . S
C3438 H3424 0.930 . S
C3438 C3436 1.395 . S
C3438 C3441 1.403 . S
C3439 C3436 1.403 . S
C3439 C3440 1.524 . S
C3439 C3443 1.400 . S
C3440 H3425 0.960 . S
C3440 H3426 0.960 . S
C3440 H3427 0.960 . S
C3440 C3439 1.524 . S
C3441 C3438 1.403 . S
C3441 C3442 1.392 . S
C3441 C3445 1.495 . S
C3442 C3441 1.392 . S
C3442 C3443 1.385 . S
C3442 C3444 1.478 . S
C3443 H3437 0.930 . S
C3443 C3439 1.400 . S
C3443 C3442 1.385 . S
C3444 C3442 1.478 . S
C3444 C3446 1.381 . S
C3444 C3450 1.383 . S
C3445 C3441 1.495 . S
C3445 H3451 0.959 . S
C3445 H3452 0.961 . S
C3445 H3453 0.960 . S
C3446 C3444 1.381 . S
C3446 C3447 1.394 . S
C3446 H3454 0.930 . S
C3447 C3446 1.394 . S
C3447 C3448 1.383 . S
C3447 H3455 0.929 . S
C3448 C3447 1.383 . S
C3448 C3449 1.377 . S
C3449 H3433 0.930 . S
C3449 C3448 1.377 . S
C3449 C3450 1.379 . S
C3450 H3434 0.931 . S
C3450 C3444 1.383 . S
C3450 C3449 1.379 . S
H3451 C3445 0.959 . S
H3452 C3445 0.961 . S
H3453 C3445 0.960 . S
H3454 C3446 0.930 . S
H3455 C3447 0.929 . S
H3456 C3464 0.929 . S
H3457 C3466 0.930 . S
H3458 C3468 0.930 . S
H3459 C3471 0.929 . S
H3460 C3474 0.930 . S
H3461 C3476 0.960 . S
H3462 C3476 0.960 . S
H3463 C3476 0.960 . S
C3464 H3456 0.929 . S
C3464 C3465 1.377 . S
C3464 C3466 1.384 . S
C3465 C3464 1.377 . S
C3465 C3471 1.390 . S
C3466 H3457 0.930 . S
C3466 C3464 1.384 . S
C3466 C3467 1.372 . S
C3467 C3466 1.372 . S
C3467 C3468 1.400 . S
C3467 C3472 1.490 . S
C3468 H3458 0.930 . S
C3468 C3467 1.400 . S
C3468 C3471 1.386 . S
H3469 C3485 0.930 . S
H3470 C3486 0.931 . S
C3471 H3459 0.929 . S
C3471 C3465 1.390 . S
C3471 C3468 1.386 . S
C3472 C3467 1.490 . S
C3472 C3474 1.395 . S
C3472 C3475 1.403 . S
H3473 C3479 0.930 . S
C3474 H3460 0.930 . S
C3474 C3472 1.395 . S
C3474 C3477 1.403 . S
C3475 C3472 1.403 . S
C3475 C3476 1.524 . S
C3475 C3479 1.400 . S
C3476 H3461 0.960 . S
C3476 H3462 0.960 . S
C3476 H3463 0.960 . S
C3476 C3475 1.524 . S
C3477 C3474 1.403 . S
C3477 C3478 1.392 . S
C3477 C3481 1.495 . S
C3478 C3477 1.392 . S
C3478 C3479 1.385 . S
C3478 C3480 1.478 . S
C3479 H3473 0.930 . S
C3479 C3475 1.400 . S
C3479 C3478 1.385 . S
C3480 C3478 1.478 . S
C3480 C3482 1.381 . S
C3480 C3486 1.383 . S
C3481 C3477 1.495 . S
C3481 H3487 0.959 . S
C3481 H3488 0.961 . S
C3481 H3489 0.960 . S
C3482 C3480 1.381 . S
C3482 C3483 1.394 . S
C3482 H3490 0.930 . S
C3483 C3482 1.394 . S
C3483 C3484 1.383 . S
C3483 H3491 0.929 . S
C3484 C3483 1.383 . S
C3484 C3485 1.377 . S
C3485 H3469 0.930 . S
C3485 C3484 1.377 . S
C3485 C3486 1.379 . S
C3486 H3470 0.931 . S
C3486 C3480 1.383 . S
C3486 C3485 1.379 . S
H3487 C3481 0.959 . S
H3488 C3481 0.961 . S
H3489 C3481 0.960 . S
H3490 C3482 0.930 . S
H3491 C3483 0.929 . S
H3492 C3500 0.929 . S
H3493 C3502 0.930 . S
H3494 C3504 0.930 . S
H3495 C3507 0.929 . S
H3496 C3510 0.930 . S
H3497 C3512 0.960 . S
H3498 C3512 0.960 . S
H3499 C3512 0.960 . S
C3500 H3492 0.929 . S
C3500 C3501 1.377 . S
C3500 C3502 1.384 . S
C3501 C3500 1.377 . S
C3501 C3507 1.390 . S
C3502 H3493 0.930 . S
C3502 C3500 1.384 . S
C3502 C3503 1.372 . S
C3503 C3502 1.372 . S
C3503 C3504 1.400 . S
C3503 C3508 1.490 . S
C3504 H3494 0.930 . S
C3504 C3503 1.400 . S
C3504 C3507 1.386 . S
H3505 C3521 0.930 . S
H3506 C3522 0.931 . S
C3507 H3495 0.929 . S
C3507 C3501 1.390 . S
C3507 C3504 1.386 . S
C3508 C3503 1.490 . S
C3508 C3510 1.395 . S
C3508 C3511 1.403 . S
H3509 C3515 0.930 . S
C3510 H3496 0.930 . S
C3510 C3508 1.395 . S
C3510 C3513 1.403 . S
C3511 C3508 1.403 . S
C3511 C3512 1.524 . S
C3511 C3515 1.400 . S
C3512 H3497 0.960 . S
C3512 H3498 0.960 . S
C3512 H3499 0.960 . S
C3512 C3511 1.524 . S
C3513 C3510 1.403 . S
C3513 C3514 1.392 . S
C3513 C3517 1.495 . S
C3514 C3513 1.392 . S
C3514 C3515 1.385 . S
C3514 C3516 1.478 . S
C3515 H3509 0.930 . S
C3515 C3511 1.400 . S
C3515 C3514 1.385 . S
C3516 C3514 1.478 . S
C3516 C3518 1.381 . S
C3516 C3522 1.383 . S
C3517 C3513 1.495 . S
C3517 H3523 0.959 . S
C3517 H3524 0.961 . S
C3517 H3525 0.960 . S
C3518 C3516 1.381 . S
C3518 C3519 1.394 . S
C3518 H3526 0.930 . S
C3519 C3518 1.394 . S
C3519 C3520 1.383 . S
C3519 H3527 0.929 . S
C3520 C3519 1.383 . S
C3520 C3521 1.377 . S
C3521 H3505 0.930 . S
C3521 C3520 1.377 . S
C3521 C3522 1.379 . S
C3522 H3506 0.931 . S
C3522 C3516 1.383 . S
C3522 C3521 1.379 . S
H3523 C3517 0.959 . S
H3524 C3517 0.961 . S
H3525 C3517 0.960 . S
H3526 C3518 0.930 . S
H3527 C3519 0.929 . S
H3528 C3536 0.929 . S
H3529 C3538 0.930 . S
H3530 C3540 0.930 . S
H3531 C3543 0.929 . S
H3532 C3546 0.930 . S
H3533 C3548 0.960 . S
H3534 C3548 0.960 . S
H3535 C3548 0.960 . S
C3536 H3528 0.929 . S
C3536 C3537 1.377 . S
C3536 C3538 1.384 . S
C3537 C3536 1.377 . S
C3537 C3543 1.390 . S
C3538 H3529 0.930 . S
C3538 C3536 1.384 . S
C3538 C3539 1.372 . S
C3539 C3538 1.372 . S
C3539 C3540 1.400 . S
C3539 C3544 1.490 . S
C3540 H3530 0.930 . S
C3540 C3539 1.400 . S
C3540 C3543 1.386 . S
H3541 C3557 0.930 . S
H3542 C3558 0.931 . S
C3543 H3531 0.929 . S
C3543 C3537 1.390 . S
C3543 C3540 1.386 . S
C3544 C3539 1.490 . S
C3544 C3546 1.395 . S
C3544 C3547 1.403 . S
H3545 C3551 0.930 . S
C3546 H3532 0.930 . S
C3546 C3544 1.395 . S
C3546 C3549 1.403 . S
C3547 C3544 1.403 . S
C3547 C3548 1.524 . S
C3547 C3551 1.400 . S
C3548 H3533 0.960 . S
C3548 H3534 0.960 . S
C3548 H3535 0.960 . S
C3548 C3547 1.524 . S
C3549 C3546 1.403 . S
C3549 C3550 1.392 . S
C3549 C3553 1.495 . S
C3550 C3549 1.392 . S
C3550 C3551 1.385 . S
C3550 C3552 1.478 . S
C3551 H3545 0.930 . S
C3551 C3547 1.400 . S
C3551 C3550 1.385 . S
C3552 C3550 1.478 . S
C3552 C3554 1.381 . S
C3552 C3558 1.383 . S
C3553 C3549 1.495 . S
C3553 H3559 0.959 . S
C3553 H3560 0.961 . S
C3553 H3561 0.960 . S
C3554 C3552 1.381 . S
C3554 C3555 1.394 . S
C3554 H3562 0.930 . S
C3555 C3554 1.394 . S
C3555 C3556 1.383 . S
C3555 H3563 0.929 . S
C3556 C3555 1.383 . S
C3556 C3557 1.377 . S
C3557 H3541 0.930 . S
C3557 C3556 1.377 . S
C3557 C3558 1.379 . S
C3558 H3542 0.931 . S
C3558 C3552 1.383 . S
C3558 C3557 1.379 . S
H3559 C3553 0.959 . S
H3560 C3553 0.961 . S
H3561 C3553 0.960 . S
H3562 C3554 0.930 . S
H3563 C3555 0.929 . S
H3564 C3572 0.929 . S
H3565 C3574 0.930 . S
H3566 C3576 0.930 . S
H3567 C3579 0.929 . S
H3568 C3582 0.930 . S
H3569 C3584 0.960 . S
H3570 C3584 0.960 . S
H3571 C3584 0.960 . S
C3572 H3564 0.929 . S
C3572 C3573 1.377 . S
C3572 C3574 1.384 . S
C3573 C3572 1.377 . S
C3573 C3579 1.390 . S
C3574 H3565 0.930 . S
C3574 C3572 1.384 . S
C3574 C3575 1.372 . S
C3575 C3574 1.372 . S
C3575 C3576 1.400 . S
C3575 C3580 1.490 . S
C3576 H3566 0.930 . S
C3576 C3575 1.400 . S
C3576 C3579 1.386 . S
H3577 C3593 0.930 . S
H3578 C3594 0.931 . S
C3579 H3567 0.929 . S
C3579 C3573 1.390 . S
C3579 C3576 1.386 . S
C3580 C3575 1.490 . S
C3580 C3582 1.395 . S
C3580 C3583 1.403 . S
H3581 C3587 0.930 . S
C3582 H3568 0.930 . S
C3582 C3580 1.395 . S
C3582 C3585 1.403 . S
C3583 C3580 1.403 . S
C3583 C3584 1.524 . S
C3583 C3587 1.400 . S
C3584 H3569 0.960 . S
C3584 H3570 0.960 . S
C3584 H3571 0.960 . S
C3584 C3583 1.524 . S
C3585 C3582 1.403 . S
C3585 C3586 1.392 . S
C3585 C3589 1.495 . S
C3586 C3585 1.392 . S
C3586 C3587 1.385 . S
C3586 C3588 1.478 . S
C3587 H3581 0.930 . S
C3587 C3583 1.400 . S
C3587 C3586 1.385 . S
C3588 C3586 1.478 . S
C3588 C3590 1.381 . S
C3588 C3594 1.383 . S
C3589 C3585 1.495 . S
C3589 H3595 0.959 . S
C3589 H3596 0.961 . S
C3589 H3597 0.960 . S
C3590 C3588 1.381 . S
C3590 C3591 1.394 . S
C3590 H3598 0.930 . S
C3591 C3590 1.394 . S
C3591 C3592 1.383 . S
C3591 H3599 0.929 . S
C3592 C3591 1.383 . S
C3592 C3593 1.377 . S
C3593 H3577 0.930 . S
C3593 C3592 1.377 . S
C3593 C3594 1.379 . S
C3594 H3578 0.931 . S
C3594 C3588 1.383 . S
C3594 C3593 1.379 . S
H3595 C3589 0.959 . S
H3596 C3589 0.961 . S
H3597 C3589 0.960 . S
H3598 C3590 0.930 . S
H3599 C3591 0.929 . S
H3600 C3608 0.929 . S
H3601 C3610 0.930 . S
H3602 C3612 0.930 . S
H3603 C3615 0.929 . S
H3604 C3618 0.930 . S
H3605 C3620 0.960 . S
H3606 C3620 0.960 . S
H3607 C3620 0.960 . S
C3608 H3600 0.929 . S
C3608 C3609 1.377 . S
C3608 C3610 1.384 . S
C3609 C3608 1.377 . S
C3609 C3615 1.390 . S
C3610 H3601 0.930 . S
C3610 C3608 1.384 . S
C3610 C3611 1.372 . S
C3611 C3610 1.372 . S
C3611 C3612 1.400 . S
C3611 C3616 1.490 . S
C3612 H3602 0.930 . S
C3612 C3611 1.400 . S
C3612 C3615 1.386 . S
H3613 C3629 0.930 . S
H3614 C3630 0.931 . S
C3615 H3603 0.929 . S
C3615 C3609 1.390 . S
C3615 C3612 1.386 . S
C3616 C3611 1.490 . S
C3616 C3618 1.395 . S
C3616 C3619 1.403 . S
H3617 C3623 0.930 . S
C3618 H3604 0.930 . S
C3618 C3616 1.395 . S
C3618 C3621 1.403 . S
C3619 C3616 1.403 . S
C3619 C3620 1.524 . S
C3619 C3623 1.400 . S
C3620 H3605 0.960 . S
C3620 H3606 0.960 . S
C3620 H3607 0.960 . S
C3620 C3619 1.524 . S
C3621 C3618 1.403 . S
C3621 C3622 1.392 . S
C3621 C3625 1.495 . S
C3622 C3621 1.392 . S
C3622 C3623 1.385 . S
C3622 C3624 1.478 . S
C3623 H3617 0.930 . S
C3623 C3619 1.400 . S
C3623 C3622 1.385 . S
C3624 C3622 1.478 . S
C3624 C3626 1.381 . S
C3624 C3630 1.383 . S
C3625 C3621 1.495 . S
C3625 H3631 0.959 . S
C3625 H3632 0.961 . S
C3625 H3633 0.960 . S
C3626 C3624 1.381 . S
C3626 C3627 1.394 . S
C3626 H3634 0.930 . S
C3627 C3626 1.394 . S
C3627 C3628 1.383 . S
C3627 H3635 0.929 . S
C3628 C3627 1.383 . S
C3628 C3629 1.377 . S
C3629 H3613 0.930 . S
C3629 C3628 1.377 . S
C3629 C3630 1.379 . S
C3630 H3614 0.931 . S
C3630 C3624 1.383 . S
C3630 C3629 1.379 . S
H3631 C3625 0.959 . S
H3632 C3625 0.961 . S
H3633 C3625 0.960 . S
H3634 C3626 0.930 . S
H3635 C3627 0.929 . S
H3636 C3644 0.929 . S
H3637 C3646 0.930 . S
H3638 C3648 0.930 . S
H3639 C3651 0.929 . S
H3640 C3654 0.930 . S
H3641 C3656 0.960 . S
H3642 C3656 0.960 . S
H3643 C3656 0.960 . S
C3644 H3636 0.929 . S
C3644 C3645 1.377 . S
C3644 C3646 1.384 . S
C3645 C3644 1.377 . S
C3645 C3651 1.390 . S
C3646 H3637 0.930 . S
C3646 C3644 1.384 . S
C3646 C3647 1.372 . S
C3647 C3646 1.372 . S
C3647 C3648 1.400 . S
C3647 C3652 1.490 . S
C3648 H3638 0.930 . S
C3648 C3647 1.400 . S
C3648 C3651 1.386 . S
H3649 C3665 0.930 . S
H3650 C3666 0.931 . S
C3651 H3639 0.929 . S
C3651 C3645 1.390 . S
C3651 C3648 1.386 . S
C3652 C3647 1.490 . S
C3652 C3654 1.395 . S
C3652 C3655 1.403 . S
H3653 C3659 0.930 . S
C3654 H3640 0.930 . S
C3654 C3652 1.395 . S
C3654 C3657 1.403 . S
C3655 C3652 1.403 . S
C3655 C3656 1.524 . S
C3655 C3659 1.400 . S
C3656 H3641 0.960 . S
C3656 H3642 0.960 . S
C3656 H3643 0.960 . S
C3656 C3655 1.524 . S
C3657 C3654 1.403 . S
C3657 C3658 1.392 . S
C3657 C3661 1.495 . S
C3658 C3657 1.392 . S
C3658 C3659 1.385 . S
C3658 C3660 1.478 . S
C3659 H3653 0.930 . S
C3659 C3655 1.400 . S
C3659 C3658 1.385 . S
C3660 C3658 1.478 . S
C3660 C3662 1.381 . S
C3660 C3666 1.383 . S
C3661 C3657 1.495 . S
C3661 H3667 0.959 . S
C3661 H3668 0.961 . S
C3661 H3669 0.960 . S
C3662 C3660 1.381 . S
C3662 C3663 1.394 . S
C3662 H3670 0.930 . S
C3663 C3662 1.394 . S
C3663 C3664 1.383 . S
C3663 H3671 0.929 . S
C3664 C3663 1.383 . S
C3664 C3665 1.377 . S
C3665 H3649 0.930 . S
C3665 C3664 1.377 . S
C3665 C3666 1.379 . S
C3666 H3650 0.931 . S
C3666 C3660 1.383 . S
C3666 C3665 1.379 . S
H3667 C3661 0.959 . S
H3668 C3661 0.961 . S
H3669 C3661 0.960 . S
H3670 C3662 0.930 . S
H3671 C3663 0.929 . S
H3672 C3680 0.929 . S
H3673 C3682 0.930 . S
H3674 C3684 0.930 . S
H3675 C3687 0.929 . S
H3676 C3690 0.930 . S
H3677 C3692 0.960 . S
H3678 C3692 0.960 . S
H3679 C3692 0.960 . S
C3680 H3672 0.929 . S
C3680 C3681 1.377 . S
C3680 C3682 1.384 . S
C3681 C3680 1.377 . S
C3681 C3687 1.390 . S
C3682 H3673 0.930 . S
C3682 C3680 1.384 . S
C3682 C3683 1.372 . S
C3683 C3682 1.372 . S
C3683 C3684 1.400 . S
C3683 C3688 1.490 . S
C3684 H3674 0.930 . S
C3684 C3683 1.400 . S
C3684 C3687 1.386 . S
H3685 C3701 0.930 . S
H3686 C3702 0.931 . S
C3687 H3675 0.929 . S
C3687 C3681 1.390 . S
C3687 C3684 1.386 . S
C3688 C3683 1.490 . S
C3688 C3690 1.395 . S
C3688 C3691 1.403 . S
H3689 C3695 0.930 . S
C3690 H3676 0.930 . S
C3690 C3688 1.395 . S
C3690 C3693 1.403 . S
C3691 C3688 1.403 . S
C3691 C3692 1.524 . S
C3691 C3695 1.400 . S
C3692 H3677 0.960 . S
C3692 H3678 0.960 . S
C3692 H3679 0.960 . S
C3692 C3691 1.524 . S
C3693 C3690 1.403 . S
C3693 C3694 1.392 . S
C3693 C3697 1.495 . S
C3694 C3693 1.392 . S
C3694 C3695 1.385 . S
C3694 C3696 1.478 . S
C3695 H3689 0.930 . S
C3695 C3691 1.400 . S
C3695 C3694 1.385 . S
C3696 C3694 1.478 . S
C3696 C3698 1.381 . S
C3696 C3702 1.383 . S
C3697 C3693 1.495 . S
C3697 H3703 0.959 . S
C3697 H3704 0.961 . S
C3697 H3705 0.960 . S
C3698 C3696 1.381 . S
C3698 C3699 1.394 . S
C3698 H3706 0.930 . S
C3699 C3698 1.394 . S
C3699 C3700 1.383 . S
C3699 H3707 0.929 . S
C3700 C3699 1.383 . S
C3700 C3701 1.377 . S
C3701 H3685 0.930 . S
C3701 C3700 1.377 . S
C3701 C3702 1.379 . S
C3702 H3686 0.931 . S
C3702 C3696 1.383 . S
C3702 C3701 1.379 . S
H3703 C3697 0.959 . S
H3704 C3697 0.961 . S
H3705 C3697 0.960 . S
H3706 C3698 0.930 . S
H3707 C3699 0.929 . S
H3708 C3716 0.929 . S
H3709 C3718 0.930 . S
H3710 C3720 0.930 . S
H3711 C3723 0.929 . S
H3712 C3726 0.930 . S
H3713 C3728 0.960 . S
H3714 C3728 0.960 . S
H3715 C3728 0.960 . S
C3716 H3708 0.929 . S
C3716 C3717 1.377 . S
C3716 C3718 1.384 . S
C3717 C3716 1.377 . S
C3717 C3723 1.390 . S
C3718 H3709 0.930 . S
C3718 C3716 1.384 . S
C3718 C3719 1.372 . S
C3719 C3718 1.372 . S
C3719 C3720 1.400 . S
C3719 C3724 1.490 . S
C3720 H3710 0.930 . S
C3720 C3719 1.400 . S
C3720 C3723 1.386 . S
H3721 C3737 0.930 . S
H3722 C3738 0.931 . S
C3723 H3711 0.929 . S
C3723 C3717 1.390 . S
C3723 C3720 1.386 . S
C3724 C3719 1.490 . S
C3724 C3726 1.395 . S
C3724 C3727 1.403 . S
H3725 C3731 0.930 . S
C3726 H3712 0.930 . S
C3726 C3724 1.395 . S
C3726 C3729 1.403 . S
C3727 C3724 1.403 . S
C3727 C3728 1.524 . S
C3727 C3731 1.400 . S
C3728 H3713 0.960 . S
C3728 H3714 0.960 . S
C3728 H3715 0.960 . S
C3728 C3727 1.524 . S
C3729 C3726 1.403 . S
C3729 C3730 1.392 . S
C3729 C3733 1.495 . S
C3730 C3729 1.392 . S
C3730 C3731 1.385 . S
C3730 C3732 1.478 . S
C3731 H3725 0.930 . S
C3731 C3727 1.400 . S
C3731 C3730 1.385 . S
C3732 C3730 1.478 . S
C3732 C3734 1.381 . S
C3732 C3738 1.383 . S
C3733 C3729 1.495 . S
C3733 H3739 0.959 . S
C3733 H3740 0.961 . S
C3733 H3741 0.960 . S
C3734 C3732 1.381 . S
C3734 C3735 1.394 . S
C3734 H3742 0.930 . S
C3735 C3734 1.394 . S
C3735 C3736 1.383 . S
C3735 H3743 0.929 . S
C3736 C3735 1.383 . S
C3736 C3737 1.377 . S
C3737 H3721 0.930 . S
C3737 C3736 1.377 . S
C3737 C3738 1.379 . S
C3738 H3722 0.931 . S
C3738 C3732 1.383 . S
C3738 C3737 1.379 . S
H3739 C3733 0.959 . S
H3740 C3733 0.961 . S
H3741 C3733 0.960 . S
H3742 C3734 0.930 . S
H3743 C3735 0.929 . S
H3744 C3752 0.929 . S
H3745 C3754 0.930 . S
H3746 C3756 0.930 . S
H3747 C3759 0.929 . S
H3748 C3762 0.930 . S
H3749 C3764 0.960 . S
H3750 C3764 0.960 . S
H3751 C3764 0.960 . S
C3752 H3744 0.929 . S
C3752 C3753 1.377 . S
C3752 C3754 1.384 . S
C3753 C3752 1.377 . S
C3753 C3759 1.390 . S
C3754 H3745 0.930 . S
C3754 C3752 1.384 . S
C3754 C3755 1.372 . S
C3755 C3754 1.372 . S
C3755 C3756 1.400 . S
C3755 C3760 1.490 . S
C3756 H3746 0.930 . S
C3756 C3755 1.400 . S
C3756 C3759 1.386 . S
H3757 C3773 0.930 . S
H3758 C3774 0.931 . S
C3759 H3747 0.929 . S
C3759 C3753 1.390 . S
C3759 C3756 1.386 . S
C3760 C3755 1.490 . S
C3760 C3762 1.395 . S
C3760 C3763 1.403 . S
H3761 C3767 0.930 . S
C3762 H3748 0.930 . S
C3762 C3760 1.395 . S
C3762 C3765 1.403 . S
C3763 C3760 1.403 . S
C3763 C3764 1.524 . S
C3763 C3767 1.400 . S
C3764 H3749 0.960 . S
C3764 H3750 0.960 . S
C3764 H3751 0.960 . S
C3764 C3763 1.524 . S
C3765 C3762 1.403 . S
C3765 C3766 1.392 . S
C3765 C3769 1.495 . S
C3766 C3765 1.392 . S
C3766 C3767 1.385 . S
C3766 C3768 1.478 . S
C3767 H3761 0.930 . S
C3767 C3763 1.400 . S
C3767 C3766 1.385 . S
C3768 C3766 1.478 . S
C3768 C3770 1.381 . S
C3768 C3774 1.383 . S
C3769 C3765 1.495 . S
C3769 H3775 0.959 . S
C3769 H3776 0.961 . S
C3769 H3777 0.960 . S
C3770 C3768 1.381 . S
C3770 C3771 1.394 . S
C3770 H3778 0.930 . S
C3771 C3770 1.394 . S
C3771 C3772 1.383 . S
C3771 H3779 0.929 . S
C3772 C3771 1.383 . S
C3772 C3773 1.377 . S
C3773 H3757 0.930 . S
C3773 C3772 1.377 . S
C3773 C3774 1.379 . S
C3774 H3758 0.931 . S
C3774 C3768 1.383 . S
C3774 C3773 1.379 . S
H3775 C3769 0.959 . S
H3776 C3769 0.961 . S
H3777 C3769 0.960 . S
H3778 C3770 0.930 . S
H3779 C3771 0.929 . S
H3780 C3788 0.929 . S
H3781 C3790 0.930 . S
H3782 C3792 0.930 . S
H3783 C3795 0.929 . S
H3784 C3798 0.930 . S
H3785 C3800 0.960 . S
H3786 C3800 0.960 . S
H3787 C3800 0.960 . S
C3788 H3780 0.929 . S
C3788 C3789 1.377 . S
C3788 C3790 1.384 . S
C3789 C3788 1.377 . S
C3789 C3795 1.390 . S
C3790 H3781 0.930 . S
C3790 C3788 1.384 . S
C3790 C3791 1.372 . S
C3791 C3790 1.372 . S
C3791 C3792 1.400 . S
C3791 C3796 1.490 . S
C3792 H3782 0.930 . S
C3792 C3791 1.400 . S
C3792 C3795 1.386 . S
H3793 C3809 0.930 . S
H3794 C3810 0.931 . S
C3795 H3783 0.929 . S
C3795 C3789 1.390 . S
C3795 C3792 1.386 . S
C3796 C3791 1.490 . S
C3796 C3798 1.395 . S
C3796 C3799 1.403 . S
H3797 C3803 0.930 . S
C3798 H3784 0.930 . S
C3798 C3796 1.395 . S
C3798 C3801 1.403 . S
C3799 C3796 1.403 . S
C3799 C3800 1.524 . S
C3799 C3803 1.400 . S
C3800 H3785 0.960 . S
C3800 H3786 0.960 . S
C3800 H3787 0.960 . S
C3800 C3799 1.524 . S
C3801 C3798 1.403 . S
C3801 C3802 1.392 . S
C3801 C3805 1.495 . S
C3802 C3801 1.392 . S
C3802 C3803 1.385 . S
C3802 C3804 1.478 . S
C3803 H3797 0.930 . S
C3803 C3799 1.400 . S
C3803 C3802 1.385 . S
C3804 C3802 1.478 . S
C3804 C3806 1.381 . S
C3804 C3810 1.383 . S
C3805 C3801 1.495 . S
C3805 H3811 0.959 . S
C3805 H3812 0.961 . S
C3805 H3813 0.960 . S
C3806 C3804 1.381 . S
C3806 C3807 1.394 . S
C3806 H3814 0.930 . S
C3807 C3806 1.394 . S
C3807 C3808 1.383 . S
C3807 H3815 0.929 . S
C3808 C3807 1.383 . S
C3808 C3809 1.377 . S
C3809 H3793 0.930 . S
C3809 C3808 1.377 . S
C3809 C3810 1.379 . S
C3810 H3794 0.931 . S
C3810 C3804 1.383 . S
C3810 C3809 1.379 . S
H3811 C3805 0.959 . S
H3812 C3805 0.961 . S
H3813 C3805 0.960 . S
H3814 C3806 0.930 . S
H3815 C3807 0.929 . S
H3816 C3824 0.929 . S
H3817 C3826 0.930 . S
H3818 C3828 0.930 . S
H3819 C3831 0.929 . S
H3820 C3834 0.930 . S
H3821 C3836 0.960 . S
H3822 C3836 0.960 . S
H3823 C3836 0.960 . S
C3824 H3816 0.929 . S
C3824 C3825 1.377 . S
C3824 C3826 1.384 . S
C3825 C3824 1.377 . S
C3825 C3831 1.390 . S
C3826 H3817 0.930 . S
C3826 C3824 1.384 . S
C3826 C3827 1.372 . S
C3827 C3826 1.372 . S
C3827 C3828 1.400 . S
C3827 C3832 1.490 . S
C3828 H3818 0.930 . S
C3828 C3827 1.400 . S
C3828 C3831 1.386 . S
H3829 C3845 0.930 . S
H3830 C3846 0.931 . S
C3831 H3819 0.929 . S
C3831 C3825 1.390 . S
C3831 C3828 1.386 . S
C3832 C3827 1.490 . S
C3832 C3834 1.395 . S
C3832 C3835 1.403 . S
H3833 C3839 0.930 . S
C3834 H3820 0.930 . S
C3834 C3832 1.395 . S
C3834 C3837 1.403 . S
C3835 C3832 1.403 . S
C3835 C3836 1.524 . S
C3835 C3839 1.400 . S
C3836 H3821 0.960 . S
C3836 H3822 0.960 . S
C3836 H3823 0.960 . S
C3836 C3835 1.524 . S
C3837 C3834 1.403 . S
C3837 C3838 1.392 . S
C3837 C3841 1.495 . S
C3838 C3837 1.392 . S
C3838 C3839 1.385 . S
C3838 C3840 1.478 . S
C3839 H3833 0.930 . S
C3839 C3835 1.400 . S
C3839 C3838 1.385 . S
C3840 C3838 1.478 . S
C3840 C3842 1.381 . S
C3840 C3846 1.383 . S
C3841 C3837 1.495 . S
C3841 H3847 0.959 . S
C3841 H3848 0.961 . S
C3841 H3849 0.960 . S
C3842 C3840 1.381 . S
C3842 C3843 1.394 . S
C3842 H3850 0.930 . S
C3843 C3842 1.394 . S
C3843 C3844 1.383 . S
C3843 H3851 0.929 . S
C3844 C3843 1.383 . S
C3844 C3845 1.377 . S
C3845 H3829 0.930 . S
C3845 C3844 1.377 . S
C3845 C3846 1.379 . S
C3846 H3830 0.931 . S
C3846 C3840 1.383 . S
C3846 C3845 1.379 . S
H3847 C3841 0.959 . S
H3848 C3841 0.961 . S
H3849 C3841 0.960 . S
H3850 C3842 0.930 . S
H3851 C3843 0.929 . S
H3852 C3860 0.929 . S
H3853 C3862 0.930 . S
H3854 C3864 0.930 . S
H3855 C3867 0.929 . S
H3856 C3870 0.930 . S
H3857 C3872 0.960 . S
H3858 C3872 0.960 . S
H3859 C3872 0.960 . S
C3860 H3852 0.929 . S
C3860 C3861 1.377 . S
C3860 C3862 1.384 . S
C3861 C3860 1.377 . S
C3861 C3867 1.390 . S
C3862 H3853 0.930 . S
C3862 C3860 1.384 . S
C3862 C3863 1.372 . S
C3863 C3862 1.372 . S
C3863 C3864 1.400 . S
C3863 C3868 1.490 . S
C3864 H3854 0.930 . S
C3864 C3863 1.400 . S
C3864 C3867 1.386 . S
H3865 C3881 0.930 . S
H3866 C3882 0.931 . S
C3867 H3855 0.929 . S
C3867 C3861 1.390 . S
C3867 C3864 1.386 . S
C3868 C3863 1.490 . S
C3868 C3870 1.395 . S
C3868 C3871 1.403 . S
H3869 C3875 0.930 . S
C3870 H3856 0.930 . S
C3870 C3868 1.395 . S
C3870 C3873 1.403 . S
C3871 C3868 1.403 . S
C3871 C3872 1.524 . S
C3871 C3875 1.400 . S
C3872 H3857 0.960 . S
C3872 H3858 0.960 . S
C3872 H3859 0.960 . S
C3872 C3871 1.524 . S
C3873 C3870 1.403 . S
C3873 C3874 1.392 . S
C3873 C3877 1.495 . S
C3874 C3873 1.392 . S
C3874 C3875 1.385 . S
C3874 C3876 1.478 . S
C3875 H3869 0.930 . S
C3875 C3871 1.400 . S
C3875 C3874 1.385 . S
C3876 C3874 1.478 . S
C3876 C3878 1.381 . S
C3876 C3882 1.383 . S
C3877 C3873 1.495 . S
C3877 H3883 0.959 . S
C3877 H3884 0.961 . S
C3877 H3885 0.960 . S
C3878 C3876 1.381 . S
C3878 C3879 1.394 . S
C3878 H3886 0.930 . S
C3879 C3878 1.394 . S
C3879 C3880 1.383 . S
C3879 H3887 0.929 . S
C3880 C3879 1.383 . S
C3880 C3881 1.377 . S
C3881 H3865 0.930 . S
C3881 C3880 1.377 . S
C3881 C3882 1.379 . S
C3882 H3866 0.931 . S
C3882 C3876 1.383 . S
C3882 C3881 1.379 . S
H3883 C3877 0.959 . S
H3884 C3877 0.961 . S
H3885 C3877 0.960 . S
H3886 C3878 0.930 . S
H3887 C3879 0.929 . S
C1305 C14 1.395 . S
C1324 C662 1.371 . S
C1341 C698 1.395 . S
C1360 C50 1.371 . S
C1377 C734 1.403 . S
C1396 C86 1.405 . S
C1413 C122 1.398 . S
C1432 C1202 1.375 . S
C1449 C158 1.403 . S
C1468 C1238 1.411 . S
C1485 C194 1.393 . S
C1504 C1274 1.377 . S
C1521 C878 1.403 . S
C1540 C230 1.404 . S
C1557 C266 1.394 . S
C1576 C914 1.398 . S
C1593 C302 1.394 . S
C1612 C950 1.374 . S
C1629 C554 1.401 . S
C1648 C338 1.387 . S
C1665 C590 1.402 . S
C1684 C374 1.416 . S
C1701 C626 1.393 . S
C1720 C410 1.377 . S
C1737 C1094 1.403 . S
C1756 C446 1.400 . S
C1773 C1130 1.396 . S
C1792 C482 1.411 . S
C1809 C518 1.401 . S
C1828 C1166 1.419 . S
C1845 C986 1.400 . S
C1864 C770 1.382 . S
C1881 C806 1.399 . S
C1900 C1022 1.417 . S
C1917 C842 1.396 . S
C1936 C1058 1.372 . S
C1953 C4 1.367 . S
C1972 C976 1.347 . S
C1989 C1012 1.365 . S
C2008 C40 1.341 . S
C2025 C1048 1.366 . S
C2044 C76 1.343 . S
C2061 C436 1.375 . S
C2080 C112 1.391 . S
C2097 C472 1.365 . S
C2116 C148 1.342 . S
C2133 C508 1.371 . S
C2152 C184 1.379 . S
C2169 C220 1.366 . S
C2188 C760 1.393 . S
C2205 C796 1.368 . S
C2224 C256 1.392 . S
C2241 C832 1.376 . S
C2260 C292 1.347 . S
C2277 C328 1.370 . S
C2296 C1084 1.383 . S
C2313 C364 1.368 . S
C2332 C1120 1.391 . S
C2349 C400 1.376 . S
C2368 C1156 1.344 . S
C2385 C544 1.365 . S
C2404 C868 1.349 . S
C2421 C580 1.371 . S
C2440 C904 1.377 . S
C2457 C616 1.366 . S
C2476 C940 1.342 . S
C2493 C652 1.364 . S
C2512 C1192 1.390 . S
C2529 C1228 1.373 . S
C2548 C688 1.342 . S
C2565 C724 1.371 . S
C2584 C1264 1.348 . S
C2601 C38 0.871 . S
C2620 C3 0.882 . S
C2637 C39 0.876 . S
C2656 C74 0.839 . S
C2673 C75 0.875 . S
C2692 C2 0.851 . S
C2709 C111 0.858 . S
C2728 C182 0.889 . S
C2745 C110 0.877 . S
C2764 C147 0.825 . S
C2781 C183 0.859 . S
C2800 C146 0.888 . S
C2817 C219 0.871 . S
C2836 C254 0.899 . S
C2853 C255 0.859 . S
C2872 C290 0.829 . S
C2889 C291 0.861 . S
C2908 C218 0.835 . S
C2925 C398 0.862 . S
C2944 C327 0.824 . S
C2961 C363 0.872 . S
C2980 C326 0.877 . S
C2997 C362 0.866 . S
C3016 C399 0.862 . S
C3033 C470 0.874 . S
C3052 C435 0.864 . S
C3069 C506 0.861 . S
C3088 C471 0.902 . S
C3105 C434 0.864 . S
C3124 C507 0.907 . S
C3141 C543 0.873 . S
C3160 C614 0.865 . S
C3177 C579 0.866 . S
C3196 C542 0.897 . S
C3213 C615 0.869 . S
C3232 C578 0.883 . S
C3249 C686 0.868 . S
C3268 C651 0.877 . S
C3285 C687 0.864 . S
C3304 C722 0.844 . S
C3321 C723 0.862 . S
C3340 C650 0.838 . S
C3357 C759 0.874 . S
C3376 C830 0.890 . S
C3393 C795 0.865 . S
C3412 C758 0.849 . S
C3429 C794 0.866 . S
C3448 C831 0.861 . S
C3465 C902 0.866 . S
C3484 C867 0.902 . S
C3501 C903 0.866 . S
C3520 C938 0.850 . S
C3537 C866 0.874 . S
C3556 C939 0.867 . S
C3573 C975 0.875 . S
C3592 C1046 0.850 . S
C3609 C1011 0.870 . S
C3628 C974 0.883 . S
C3645 C1047 0.859 . S
C3664 C1010 0.889 . S
C3681 C1083 0.866 . S
C3700 C1118 0.854 . S
C3717 C1119 0.876 . S
C3736 C1154 0.902 . S
C3753 C1155 0.873 . S
C3772 C1082 0.904 . S
C3789 C1191 0.873 . S
C3808 C1262 0.903 . S
C3825 C1227 0.871 . S
C3844 C1190 0.897 . S
C3861 C1226 0.862 . S
C3880 C1263 0.823 . S
