# Generated by pormake.
# Topology uks, (4)-cn, num edge types: 1
# Building blocks:
#     Node 0, Type 0, BuildingBlock: KOZSID_clean_sbu_0, # of connection points: 4
#     Node 1, Type 0, BuildingBlock: KOZSID_clean_sbu_0, # of connection points: 4
#     Node 2, Type 0, BuildingBlock: KOZSID_clean_sbu_0, # of connection points: 4
#     Node 3, Type 0, BuildingBlock: KOZSID_clean_sbu_0, # of connection points: 4
#     Node 4, Type 0, BuildingBlock: KOZSID_clean_sbu_0, # of connection points: 4
#     Node 5, Type 0, BuildingBlock: KOZSID_clean_sbu_0, # of connection points: 4
#     Node 6, Type 0, BuildingBlock: KOZSID_clean_sbu_0, # of connection points: 4
#     Node 7, Type 0, BuildingBlock: KOZSID_clean_sbu_0, # of connection points: 4
#     Node 8, Type 0, BuildingBlock: KOZSID_clean_sbu_0, # of connection points: 4
#     Node 9, Type 0, BuildingBlock: KOZSID_clean_sbu_0, # of connection points: 4
#     Node 10, Type 0, BuildingBlock: KOZSID_clean_sbu_0, # of connection points: 4
#     Node 11, Type 0, BuildingBlock: KOZSID_clean_sbu_0, # of connection points: 4
#     Node 12, Type 0, BuildingBlock: KOZSID_clean_sbu_0, # of connection points: 4
#     Node 13, Type 0, BuildingBlock: KOZSID_clean_sbu_0, # of connection points: 4
#     Node 14, Type 0, BuildingBlock: KOZSID_clean_sbu_0, # of connection points: 4
#     Node 15, Type 0, BuildingBlock: KOZSID_clean_sbu_0, # of connection points: 4
#     Node 16, Type 0, BuildingBlock: KOZSID_clean_sbu_0, # of connection points: 4
#     Node 17, Type 0, BuildingBlock: KOZSID_clean_sbu_0, # of connection points: 4
#     Node 18, Type 0, BuildingBlock: KOZSID_clean_sbu_0, # of connection points: 4
#     Node 19, Type 0, BuildingBlock: KOZSID_clean_sbu_0, # of connection points: 4
#     Node 20, Type 0, BuildingBlock: KOZSID_clean_sbu_0, # of connection points: 4
#     Node 21, Type 0, BuildingBlock: KOZSID_clean_sbu_0, # of connection points: 4
#     Node 22, Type 0, BuildingBlock: KOZSID_clean_sbu_0, # of connection points: 4
#     Node 23, Type 0, BuildingBlock: KOZSID_clean_sbu_0, # of connection points: 4
#     Edge 24, Type (0, 0), BuildingBlock: TEMPAE_clean_linker_10, # of connection points: 2
#     Edge 25, Type (0, 0), BuildingBlock: TEMPAE_clean_linker_10, # of connection points: 2
#     Edge 26, Type (0, 0), BuildingBlock: TEMPAE_clean_linker_10, # of connection points: 2
#     Edge 27, Type (0, 0), BuildingBlock: TEMPAE_clean_linker_10, # of connection points: 2
#     Edge 28, Type (0, 0), BuildingBlock: TEMPAE_clean_linker_10, # of connection points: 2
#     Edge 29, Type (0, 0), BuildingBlock: TEMPAE_clean_linker_10, # of connection points: 2
#     Edge 30, Type (0, 0), BuildingBlock: TEMPAE_clean_linker_10, # of connection points: 2
#     Edge 31, Type (0, 0), BuildingBlock: TEMPAE_clean_linker_10, # of connection points: 2
#     Edge 32, Type (0, 0), BuildingBlock: TEMPAE_clean_linker_10, # of connection points: 2
#     Edge 33, Type (0, 0), BuildingBlock: TEMPAE_clean_linker_10, # of connection points: 2
#     Edge 34, Type (0, 0), BuildingBlock: TEMPAE_clean_linker_10, # of connection points: 2
#     Edge 35, Type (0, 0), BuildingBlock: TEMPAE_clean_linker_10, # of connection points: 2
#     Edge 36, Type (0, 0), BuildingBlock: TEMPAE_clean_linker_10, # of connection points: 2
#     Edge 37, Type (0, 0), BuildingBlock: TEMPAE_clean_linker_10, # of connection points: 2
#     Edge 38, Type (0, 0), BuildingBlock: TEMPAE_clean_linker_10, # of connection points: 2
#     Edge 39, Type (0, 0), BuildingBlock: TEMPAE_clean_linker_10, # of connection points: 2
#     Edge 40, Type (0, 0), BuildingBlock: TEMPAE_clean_linker_10, # of connection points: 2
#     Edge 41, Type (0, 0), BuildingBlock: TEMPAE_clean_linker_10, # of connection points: 2
#     Edge 42, Type (0, 0), BuildingBlock: TEMPAE_clean_linker_10, # of connection points: 2
#     Edge 43, Type (0, 0), BuildingBlock: TEMPAE_clean_linker_10, # of connection points: 2
#     Edge 44, Type (0, 0), BuildingBlock: TEMPAE_clean_linker_10, # of connection points: 2
#     Edge 45, Type (0, 0), BuildingBlock: TEMPAE_clean_linker_10, # of connection points: 2
#     Edge 46, Type (0, 0), BuildingBlock: TEMPAE_clean_linker_10, # of connection points: 2
#     Edge 47, Type (0, 0), BuildingBlock: TEMPAE_clean_linker_10, # of connection points: 2
#     Edge 48, Type (0, 0), BuildingBlock: TEMPAE_clean_linker_10, # of connection points: 2
#     Edge 49, Type (0, 0), BuildingBlock: TEMPAE_clean_linker_10, # of connection points: 2
#     Edge 50, Type (0, 0), BuildingBlock: TEMPAE_clean_linker_10, # of connection points: 2
#     Edge 51, Type (0, 0), BuildingBlock: TEMPAE_clean_linker_10, # of connection points: 2
#     Edge 52, Type (0, 0), BuildingBlock: TEMPAE_clean_linker_10, # of connection points: 2
#     Edge 53, Type (0, 0), BuildingBlock: TEMPAE_clean_linker_10, # of connection points: 2
#     Edge 54, Type (0, 0), BuildingBlock: TEMPAE_clean_linker_10, # of connection points: 2
#     Edge 55, Type (0, 0), BuildingBlock: TEMPAE_clean_linker_10, # of connection points: 2
#     Edge 56, Type (0, 0), BuildingBlock: TEMPAE_clean_linker_10, # of connection points: 2
#     Edge 57, Type (0, 0), BuildingBlock: TEMPAE_clean_linker_10, # of connection points: 2
#     Edge 58, Type (0, 0), BuildingBlock: TEMPAE_clean_linker_10, # of connection points: 2
#     Edge 59, Type (0, 0), BuildingBlock: TEMPAE_clean_linker_10, # of connection points: 2
#     Edge 60, Type (0, 0), BuildingBlock: TEMPAE_clean_linker_10, # of connection points: 2
#     Edge 61, Type (0, 0), BuildingBlock: TEMPAE_clean_linker_10, # of connection points: 2
#     Edge 62, Type (0, 0), BuildingBlock: TEMPAE_clean_linker_10, # of connection points: 2
#     Edge 63, Type (0, 0), BuildingBlock: TEMPAE_clean_linker_10, # of connection points: 2
#     Edge 64, Type (0, 0), BuildingBlock: TEMPAE_clean_linker_10, # of connection points: 2
#     Edge 65, Type (0, 0), BuildingBlock: TEMPAE_clean_linker_10, # of connection points: 2
#     Edge 66, Type (0, 0), BuildingBlock: TEMPAE_clean_linker_10, # of connection points: 2
#     Edge 67, Type (0, 0), BuildingBlock: TEMPAE_clean_linker_10, # of connection points: 2
#     Edge 68, Type (0, 0), BuildingBlock: TEMPAE_clean_linker_10, # of connection points: 2
#     Edge 69, Type (0, 0), BuildingBlock: TEMPAE_clean_linker_10, # of connection points: 2
#     Edge 70, Type (0, 0), BuildingBlock: TEMPAE_clean_linker_10, # of connection points: 2
#     Edge 71, Type (0, 0), BuildingBlock: TEMPAE_clean_linker_10, # of connection points: 2
# Relax obj value: 0.062
# Max RMSD: 0.070
# Mean RMSD: 0.058
data_MOF--net-uks--node1-KOZSID_clean_sbu_0--edge1-TEMPAE_clean_linker_10
_symmetry_space_group_name_H-M    P1
_symmetry_Int_Tables_number       1
_symmetry_cell_setting            triclinic
loop_
_symmetry_equiv_pos_as_xyz
'x, y, z'
_cell_length_a     62.372532
_cell_length_b     73.563709
_cell_length_c     65.019216
_cell_angle_alpha  89.249195
_cell_angle_beta   90.937233
_cell_angle_gamma 90.077414
loop_
_atom_site_label
_atom_site_type_symbol
_atom_site_fract_x
_atom_site_fract_y
_atom_site_fract_z
_atom_type_partial_charge
C0 C 0.08255 0.38142 0.69231 0.0
C1 C 0.0649 0.38943 0.70129 0.0
C2 C 0.07259 0.39983 0.71714 0.0
C3 C 0.09446 0.39786 0.71681 0.0
N4 N 0.10098 0.3869 0.70176 0.0
Co5 Co 0.13129 0.38206 0.6949 0.0
N6 N 0.14186 0.38951 0.72257 0.0
C7 C 0.13036 0.39857 0.73646 0.0
C8 C 0.14066 0.39979 0.75518 0.0
C9 C 0.15998 0.39127 0.7528 0.0
C10 C 0.16078 0.38576 0.73245 0.0
N11 N 0.16167 0.37778 0.68768 0.0
C12 C 0.17969 0.37727 0.6997 0.0
C13 C 0.19785 0.37661 0.68756 0.0
C14 C 0.19089 0.37626 0.6675 0.0
C15 C 0.16898 0.37706 0.66835 0.0
N16 N 0.12054 0.37409 0.66749 0.0
C17 C 0.13255 0.37211 0.65067 0.0
C18 C 0.12161 0.36395 0.63484 0.0
C19 C 0.10141 0.36077 0.64206 0.0
C20 C 0.10084 0.3677 0.66185 0.0
N21 N 0.13406 0.4072 0.68475 0.0
C22 C 0.13843 0.44336 0.67105 0.0
C23 C 0.12099 0.43272 0.66451 0.0
C24 C 0.11902 0.41472 0.67165 0.0
C25 C 0.15367 0.43543 0.68439 0.0
C26 C 0.15126 0.41743 0.69094 0.0
N27 N 0.12871 0.3571 0.70518 0.0
C28 C 0.13771 0.3254 0.70301 0.0
C29 C 0.12686 0.32159 0.72133 0.0
C30 C 0.11655 0.336 0.73104 0.0
C31 C 0.11786 0.35359 0.72288 0.0
C32 C 0.13824 0.34316 0.69511 0.0
H33 H 0.11023 0.36437 0.73105 0.0
H34 H 0.14666 0.34564 0.68101 0.0
H35 H 0.10528 0.40691 0.66665 0.0
H36 H 0.16345 0.41185 0.70108 0.0
C37 C 0.10882 0.40295 0.73248 0.0
C38 C 0.0813 0.36931 0.67441 0.0
C39 C 0.18028 0.37884 0.72235 0.0
C40 C 0.15477 0.37459 0.65177 0.0
H41 H 0.04818 0.3879 0.69694 0.0
H42 H 0.06327 0.40727 0.72811 0.0
H43 H 0.13449 0.40542 0.76919 0.0
H44 H 0.17196 0.38939 0.76482 0.0
H45 H 0.21448 0.37675 0.69249 0.0
H46 H 0.20065 0.37522 0.65395 0.0
H47 H 0.12792 0.35972 0.62025 0.0
H48 H 0.08892 0.35374 0.63366 0.0
H49 H 0.10878 0.43835 0.65426 0.0
H50 H 0.16758 0.44303 0.68959 0.0
H51 H 0.14616 0.31487 0.69498 0.0
H52 H 0.10749 0.3338 0.74492 0.0
C53 C 0.59842 0.61938 0.17605 0.0
C54 C 0.60095 0.62789 0.15703 0.0
C55 C 0.62131 0.63487 0.15687 0.0
C56 C 0.63014 0.6301 0.17563 0.0
N57 N 0.61673 0.62031 0.18747 0.0
Co58 Co 0.62323 0.61061 0.21549 0.0
N59 N 0.65435 0.6142 0.21183 0.0
C60 C 0.66361 0.62535 0.198 0.0
C61 C 0.68558 0.62504 0.19927 0.0
C62 C 0.69037 0.61295 0.21487 0.0
C63 C 0.67095 0.6065 0.22226 0.0
N64 N 0.62985 0.60072 0.24338 0.0
C65 C 0.64848 0.59383 0.251 0.0
C66 C 0.64612 0.58768 0.27112 0.0
C67 C 0.6253 0.5911 0.27626 0.0
C68 C 0.61612 0.59901 0.25903 0.0
N69 N 0.59198 0.60734 0.21941 0.0
C70 C 0.58223 0.60507 0.23762 0.0
C71 C 0.56036 0.60384 0.23578 0.0
C72 C 0.55601 0.6057 0.21517 0.0
C73 C 0.5756 0.60796 0.20551 0.0
N74 N 0.62554 0.58593 0.20441 0.0
C75 C 0.63338 0.54997 0.19163 0.0
C76 C 0.61869 0.55369 0.20726 0.0
C77 C 0.61524 0.57162 0.21355 0.0
C78 C 0.64331 0.56498 0.1821 0.0
C79 C 0.63888 0.5827 0.1884 0.0
N80 N 0.62134 0.63535 0.22667 0.0
C81 C 0.63567 0.65873 0.24875 0.0
C82 C 0.62054 0.67127 0.24113 0.0
C83 C 0.60557 0.66534 0.22635 0.0
C84 C 0.60607 0.64733 0.21954 0.0
C85 C 0.63594 0.64098 0.24122 0.0
H86 H 0.59421 0.6432 0.20832 0.0
H87 H 0.64825 0.63189 0.24698 0.0
H88 H 0.60458 0.57383 0.22615 0.0
H89 H 0.64691 0.59377 0.1807 0.0
C90 C 0.65153 0.63272 0.18165 0.0
C91 C 0.57766 0.61298 0.18369 0.0
C92 C 0.66882 0.59413 0.24003 0.0
C93 C 0.59419 0.60177 0.25566 0.0
H94 H 0.58907 0.62942 0.14481 0.0
H95 H 0.62885 0.64227 0.14444 0.0
H96 H 0.6968 0.63202 0.18938 0.0
H97 H 0.70632 0.60931 0.22014 0.0
H98 H 0.65817 0.58139 0.28103 0.0
H99 H 0.61755 0.58746 0.29051 0.0
H100 H 0.54895 0.60154 0.24791 0.0
H101 H 0.54015 0.60585 0.20819 0.0
H102 H 0.60994 0.5429 0.21485 0.0
H103 H 0.655 0.56324 0.1702 0.0
H104 H 0.64763 0.66276 0.26009 0.0
H105 H 0.59346 0.67453 0.22018 0.0
C106 C 0.428 0.13586 0.70089 0.0
C107 C 0.44528 0.12864 0.71196 0.0
C108 C 0.43692 0.11782 0.7272 0.0
C109 C 0.41507 0.11912 0.72475 0.0
N110 N 0.40916 0.13015 0.70899 0.0
Co111 Co 0.37912 0.13612 0.70066 0.0
N112 N 0.36769 0.12785 0.72762 0.0
C113 C 0.37818 0.11718 0.74142 0.0
C114 C 0.36624 0.11315 0.75843 0.0
C115 C 0.34693 0.12164 0.75504 0.0
C116 C 0.34816 0.13047 0.73608 0.0
N117 N 0.34909 0.14186 0.69207 0.0
C118 C 0.3311 0.1434 0.70341 0.0
C119 C 0.31356 0.14792 0.69092 0.0
C120 C 0.32072 0.14862 0.67111 0.0
C121 C 0.34219 0.14472 0.67255 0.0
N122 N 0.39066 0.14455 0.67385 0.0
C123 C 0.37923 0.14683 0.65629 0.0
C124 C 0.39149 0.15272 0.64015 0.0
C125 C 0.41194 0.15417 0.64805 0.0
C126 C 0.41099 0.14913 0.66866 0.0
N127 N 0.3754 0.11147 0.68992 0.0
C128 C 0.36945 0.07587 0.67545 0.0
C129 C 0.3543 0.08411 0.68801 0.0
C130 C 0.3574 0.10182 0.69475 0.0
C131 C 0.38779 0.086 0.67035 0.0
C132 C 0.39054 0.10368 0.67786 0.0
N133 N 0.38257 0.16059 0.71151 0.0
C134 C 0.37487 0.19259 0.70927 0.0
C135 C 0.38449 0.1952 0.72858 0.0
C136 C 0.39366 0.18031 0.73896 0.0
C137 C 0.39234 0.16308 0.73025 0.0
C138 C 0.37434 0.17521 0.70087 0.0
H139 H 0.39887 0.15173 0.73889 0.0
H140 H 0.36693 0.17357 0.68594 0.0
H141 H 0.34513 0.1076 0.70407 0.0
H142 H 0.4049 0.11103 0.6739 0.0
C143 C 0.39992 0.11313 0.73899 0.0
C144 C 0.42994 0.14738 0.6823 0.0
C145 C 0.32965 0.13918 0.72558 0.0
C146 C 0.35681 0.14632 0.65651 0.0
H147 H 0.46216 0.13099 0.70946 0.0
H148 H 0.44573 0.11061 0.73923 0.0
H149 H 0.37109 0.10523 0.77186 0.0
H150 H 0.33333 0.12099 0.76514 0.0
H151 H 0.29723 0.15029 0.69554 0.0
H152 H 0.31148 0.15214 0.6574 0.0
H153 H 0.3861 0.15619 0.62469 0.0
H154 H 0.42596 0.15833 0.63958 0.0
H155 H 0.34013 0.0769 0.69301 0.0
H156 H 0.39993 0.08046 0.66052 0.0
H157 H 0.3678 0.20389 0.70074 0.0
H158 H 0.4012 0.18188 0.75396 0.0
C159 C 0.89505 0.88429 0.1713 0.0
C160 C 0.89883 0.87894 0.15126 0.0
C161 C 0.87978 0.87252 0.14352 0.0
C162 C 0.86548 0.87431 0.15916 0.0
N163 N 0.87426 0.88169 0.1762 0.0
Co164 Co 0.85932 0.88596 0.2024 0.0
N165 N 0.83069 0.8837 0.18887 0.0
C166 C 0.82653 0.87696 0.17007 0.0
C167 C 0.80568 0.87963 0.16372 0.0
C168 C 0.79612 0.88848 0.17955 0.0
C169 C 0.81159 0.89032 0.19501 0.0
N170 N 0.8445 0.88953 0.22867 0.0
C171 C 0.82372 0.89337 0.2321 0.0
C172 C 0.81954 0.89242 0.25308 0.0
C173 C 0.83852 0.88837 0.26294 0.0
C174 C 0.85311 0.88676 0.24756 0.0
N175 N 0.88785 0.88877 0.21599 0.0
C176 C 0.89199 0.88758 0.23636 0.0
C177 C 0.91326 0.8899 0.24133 0.0
C178 C 0.92322 0.89241 0.22291 0.0
C179 C 0.9074 0.89136 0.20767 0.0
N180 N 0.85839 0.91226 0.19662 0.0
C181 C 0.85078 0.94941 0.18925 0.0
C182 C 0.85649 0.94302 0.20896 0.0
C183 C 0.86061 0.92445 0.21225 0.0
C184 C 0.84982 0.93699 0.17316 0.0
C185 C 0.85348 0.91851 0.17718 0.0
N186 N 0.85984 0.85962 0.20835 0.0
C187 C 0.87947 0.83166 0.21398 0.0
C188 C 0.86085 0.82256 0.22049 0.0
C189 C 0.8416 0.83251 0.21999 0.0
C190 C 0.8415 0.8509 0.21421 0.0
C191 C 0.87854 0.84996 0.20769 0.0
H192 H 0.82651 0.85813 0.21485 0.0
H193 H 0.89314 0.85637 0.20275 0.0
H194 H 0.8649 0.91987 0.2276 0.0
H195 H 0.85153 0.90924 0.16462 0.0
C196 C 0.84329 0.87207 0.15729 0.0
C197 C 0.91208 0.88986 0.18572 0.0
C198 C 0.80751 0.89704 0.21586 0.0
C199 C 0.87533 0.88574 0.25033 0.0
H200 H 0.91387 0.87936 0.14319 0.0
H201 H 0.87662 0.86764 0.12813 0.0
H202 H 0.79861 0.87661 0.14884 0.0
H203 H 0.7797 0.89318 0.17949 0.0
H204 H 0.80443 0.89432 0.26062 0.0
H205 H 0.84142 0.88732 0.27937 0.0
H206 H 0.92064 0.88981 0.25651 0.0
H207 H 0.94031 0.89406 0.22086 0.0
H208 H 0.85754 0.95228 0.22176 0.0
H209 H 0.8454 0.94143 0.15772 0.0
H210 H 0.89489 0.82496 0.21415 0.0
H211 H 0.82653 0.82626 0.22412 0.0
C212 C 0.08018 0.13276 0.80667 0.0
C213 C 0.06383 0.12769 0.79314 0.0
C214 C 0.07335 0.12006 0.77661 0.0
C215 C 0.09491 0.12103 0.78072 0.0
N216 N 0.09979 0.12874 0.79898 0.0
Co217 Co 0.12945 0.13389 0.81001 0.0
N218 N 0.1432 0.12672 0.78357 0.0
C219 C 0.13293 0.12069 0.76651 0.0
C220 C 0.14629 0.11733 0.75047 0.0
C221 C 0.1663 0.12174 0.7576 0.0
C222 C 0.164 0.12762 0.77765 0.0
N223 N 0.15912 0.13842 0.82134 0.0
C224 C 0.17856 0.13778 0.81216 0.0
C225 C 0.19502 0.14223 0.82584 0.0
C226 C 0.18574 0.14561 0.84425 0.0
C227 C 0.1642 0.14317 0.84084 0.0
N228 N 0.11563 0.14213 0.83599 0.0
C229 C 0.1259 0.14767 0.85328 0.0
C230 C 0.11242 0.15299 0.86847 0.0
C231 C 0.09228 0.15117 0.86026 0.0
C232 C 0.09462 0.14492 0.84035 0.0
N233 N 0.13136 0.10824 0.82074 0.0
C234 C 0.13752 0.07204 0.83539 0.0
C235 C 0.13781 0.08673 0.84882 0.0
C236 C 0.13476 0.10448 0.84128 0.0
C237 C 0.13338 0.07581 0.81457 0.0
C238 C 0.1302 0.09373 0.80771 0.0
N239 N 0.12777 0.15917 0.79934 0.0
C240 C 0.13679 0.191 0.80226 0.0
C241 C 0.12664 0.19486 0.78342 0.0
C242 C 0.11683 0.18067 0.7728 0.0
C243 C 0.11776 0.16301 0.78087 0.0
C244 C 0.13692 0.1732 0.81004 0.0
H245 H 0.11045 0.15263 0.77183 0.0
H246 H 0.14459 0.17104 0.82467 0.0
H247 H 0.13541 0.11485 0.85247 0.0
H248 H 0.12712 0.09539 0.79169 0.0
C249 C 0.11078 0.11792 0.76627 0.0
C250 C 0.0764 0.14204 0.82617 0.0
C251 C 0.18213 0.13366 0.79048 0.0
C252 C 0.14826 0.14752 0.85476 0.0
H253 H 0.04679 0.12986 0.79453 0.0
H254 H 0.0655 0.11542 0.76266 0.0
H255 H 0.14199 0.11226 0.73541 0.0
H256 H 0.18094 0.12069 0.74899 0.0
H257 H 0.21196 0.14339 0.82278 0.0
H258 H 0.19367 0.15008 0.85823 0.0
H259 H 0.11672 0.15777 0.88367 0.0
H260 H 0.07754 0.15421 0.86804 0.0
H261 H 0.14038 0.08463 0.86519 0.0
H262 H 0.13308 0.06504 0.80338 0.0
H263 H 0.1444 0.20172 0.81104 0.0
H264 H 0.1089 0.18312 0.75807 0.0
C265 C 0.88433 0.64151 0.34272 0.0
C266 C 0.8818 0.65086 0.36095 0.0
C267 C 0.86131 0.65757 0.36063 0.0
C268 C 0.85244 0.65188 0.34237 0.0
N269 N 0.86598 0.64175 0.33134 0.0
Co270 Co 0.85976 0.63138 0.30394 0.0
N271 N 0.82861 0.63447 0.30746 0.0
C272 C 0.81894 0.64573 0.32051 0.0
C273 C 0.79697 0.64435 0.31954 0.0
C274 C 0.79272 0.63137 0.30502 0.0
C275 C 0.81244 0.62554 0.29802 0.0
N276 N 0.85332 0.62121 0.27653 0.0
C277 C 0.83503 0.61335 0.26972 0.0
C278 C 0.83726 0.60706 0.24985 0.0
C279 C 0.85778 0.61131 0.24412 0.0
C280 C 0.8669 0.61983 0.26079 0.0
N281 N 0.89096 0.62818 0.30025 0.0
C282 C 0.90079 0.62574 0.28218 0.0
C283 C 0.92264 0.62439 0.28425 0.0
C284 C 0.92685 0.6264 0.30484 0.0
C285 C 0.90721 0.6289 0.31425 0.0
N286 N 0.8577 0.60686 0.31616 0.0
C287 C 0.84906 0.57108 0.32975 0.0
C288 C 0.86304 0.57452 0.3134 0.0
C289 C 0.86707 0.5924 0.30685 0.0
C290 C 0.84041 0.58615 0.33973 0.0
C291 C 0.84509 0.60383 0.33287 0.0
N292 N 0.86145 0.65591 0.29156 0.0
C293 C 0.84584 0.67963 0.27014 0.0
C294 C 0.86286 0.69155 0.27478 0.0
C295 C 0.8793 0.68489 0.28789 0.0
C296 C 0.87814 0.66728 0.29627 0.0
C297 C 0.84563 0.66193 0.27835 0.0
H298 H 0.89081 0.66292 0.30664 0.0
H299 H 0.83241 0.65316 0.27419 0.0
H300 H 0.87725 0.59449 0.29378 0.0
H301 H 0.83773 0.61504 0.34059 0.0
C302 C 0.8309 0.65392 0.33627 0.0
C303 C 0.90503 0.63469 0.33568 0.0
C304 C 0.81547 0.61217 0.28182 0.0
C305 C 0.88888 0.62258 0.26411 0.0
H306 H 0.89372 0.65306 0.37294 0.0
H307 H 0.85372 0.66541 0.37244 0.0
H308 H 0.78547 0.65112 0.32908 0.0
H309 H 0.77698 0.62662 0.30031 0.0
H310 H 0.82551 0.59986 0.24062 0.0
H311 H 0.86553 0.60751 0.23003 0.0
H312 H 0.93414 0.62201 0.2723 0.0
H313 H 0.94265 0.62662 0.31197 0.0
H314 H 0.87067 0.56348 0.30547 0.0
H315 H 0.82942 0.58441 0.35231 0.0
H316 H 0.83243 0.68389 0.2605 0.0
H317 H 0.89316 0.6931 0.29171 0.0
C318 C 0.43117 0.38119 0.80875 0.0
C319 C 0.44835 0.38655 0.79676 0.0
C320 C 0.44001 0.39652 0.78058 0.0
C321 C 0.41825 0.39658 0.78337 0.0
N322 N 0.41238 0.38719 0.80027 0.0
Co323 Co 0.38241 0.38308 0.80923 0.0
N324 N 0.37025 0.3894 0.78158 0.0
C325 C 0.38102 0.39749 0.76617 0.0
C326 C 0.36958 0.3979 0.74799 0.0
C327 C 0.35032 0.38986 0.7523 0.0
C328 C 0.35069 0.38546 0.77317 0.0
N329 N 0.35252 0.37946 0.81855 0.0
C330 C 0.33379 0.37854 0.80764 0.0
C331 C 0.31643 0.37857 0.82084 0.0
C332 C 0.32462 0.3792 0.84048 0.0
C333 C 0.34642 0.3798 0.83833 0.0
N334 N 0.39458 0.37631 0.83668 0.0
C335 C 0.3839 0.37629 0.85447 0.0
C336 C 0.39646 0.37111 0.87107 0.0
C337 C 0.41633 0.36775 0.8632 0.0
C338 C 0.41475 0.37104 0.84216 0.0
N339 N 0.38061 0.40865 0.81736 0.0
C340 C 0.3767 0.44483 0.82985 0.0
C341 C 0.3945 0.43438 0.83601 0.0
C342 C 0.3963 0.41639 0.82935 0.0
C343 C 0.36107 0.43688 0.8172 0.0
C344 C 0.36321 0.41882 0.8113 0.0
N345 N 0.38404 0.35768 0.80099 0.0
C346 C 0.37496 0.32615 0.80619 0.0
C347 C 0.38451 0.3216 0.78752 0.0
C348 C 0.39434 0.33554 0.77617 0.0
C349 C 0.39368 0.35339 0.78299 0.0
C350 C 0.3751 0.34421 0.81274 0.0
H351 H 0.40084 0.36372 0.77348 0.0
H352 H 0.36767 0.34734 0.82713 0.0
H353 H 0.41032 0.40872 0.83404 0.0
H354 H 0.35057 0.41308 0.80198 0.0
C355 C 0.40294 0.40124 0.76826 0.0
C356 C 0.43313 0.37084 0.82827 0.0
C357 C 0.33177 0.3793 0.78495 0.0
C358 C 0.36164 0.37867 0.85439 0.0
H359 H 0.46512 0.38332 0.79907 0.0
H360 H 0.44867 0.40199 0.7676 0.0
H361 H 0.37501 0.40255 0.73309 0.0
H362 H 0.33761 0.3875 0.74116 0.0
H363 H 0.29954 0.37865 0.81685 0.0
H364 H 0.31572 0.37906 0.85463 0.0
H365 H 0.39164 0.36949 0.8869 0.0
H366 H 0.43045 0.36365 0.87197 0.0
H367 H 0.40699 0.44012 0.8457 0.0
H368 H 0.34699 0.44447 0.81225 0.0
H369 H 0.367 0.31597 0.81552 0.0
H370 H 0.40251 0.33279 0.76199 0.0
C371 C 0.59766 0.86124 0.34445 0.0
C372 C 0.59621 0.85497 0.36464 0.0
C373 C 0.61573 0.84756 0.36987 0.0
C374 C 0.62808 0.84986 0.35275 0.0
N375 N 0.6176 0.85848 0.33721 0.0
Co376 Co 0.62964 0.8649 0.31008 0.0
N377 N 0.65945 0.86174 0.32047 0.0
C378 C 0.6656 0.85298 0.33788 0.0
C379 C 0.68694 0.85553 0.34249 0.0
C380 C 0.69458 0.86651 0.32704 0.0
C381 C 0.67755 0.86971 0.31343 0.0
N382 N 0.64156 0.87112 0.28301 0.0
C383 C 0.66154 0.8766 0.27834 0.0
C384 C 0.66385 0.87798 0.25713 0.0
C385 C 0.64437 0.8736 0.24844 0.0
C386 C 0.6314 0.86956 0.26472 0.0
N387 N 0.59998 0.8681 0.29939 0.0
C388 C 0.59388 0.86761 0.27942 0.0
C389 C 0.57216 0.86929 0.27653 0.0
C390 C 0.56406 0.87068 0.29588 0.0
C391 C 0.5814 0.86977 0.30961 0.0
N392 N 0.63094 0.89064 0.31789 0.0
C393 C 0.63751 0.92746 0.32809 0.0
C394 C 0.62802 0.92258 0.30915 0.0
C395 C 0.62489 0.90416 0.30437 0.0
C396 C 0.64303 0.91335 0.3419 0.0
C397 C 0.63947 0.89522 0.33663 0.0
N398 N 0.62864 0.83909 0.30231 0.0
C399 C 0.61002 0.81031 0.30088 0.0
C400 C 0.62675 0.80242 0.28983 0.0
C401 C 0.6446 0.81346 0.28549 0.0
C402 C 0.64533 0.83153 0.29204 0.0
C403 C 0.61118 0.82855 0.30676 0.0
H404 H 0.65938 0.83949 0.28854 0.0
H405 H 0.59785 0.83413 0.31491 0.0
H406 H 0.61797 0.90082 0.28956 0.0
H407 H 0.64431 0.88487 0.34759 0.0
C408 C 0.65026 0.84712 0.35198 0.0
C409 C 0.57931 0.86795 0.33204 0.0
C410 C 0.67872 0.87969 0.29364 0.0
C411 C 0.60912 0.86751 0.26383 0.0
H412 H 0.58241 0.85546 0.37449 0.0
H413 H 0.62056 0.84181 0.38464 0.0
H414 H 0.69549 0.85129 0.35636 0.0
H415 H 0.71065 0.87196 0.3265 0.0
H416 H 0.67808 0.88172 0.24875 0.0
H417 H 0.64 0.874 0.23226 0.0
H418 H 0.56327 0.86964 0.26209 0.0
H419 H 0.54721 0.87159 0.29942 0.0
H420 H 0.62307 0.93287 0.29801 0.0
H421 H 0.65072 0.91614 0.35657 0.0
H422 H 0.59606 0.80247 0.30516 0.0
H423 H 0.65789 0.80837 0.27677 0.0
C424 C 0.65772 0.13025 0.39434 0.0
C425 C 0.63649 0.1328 0.38836 0.0
C426 C 0.63504 0.128 0.36798 0.0
C427 C 0.65542 0.12283 0.36278 0.0
N428 N 0.66942 0.12416 0.37861 0.0
Co429 Co 0.70031 0.11845 0.37828 0.0
N430 N 0.70086 0.12134 0.34827 0.0
C431 C 0.68391 0.11978 0.33531 0.0
C432 C 0.68957 0.12155 0.31508 0.0
C433 C 0.71134 0.12433 0.31554 0.0
C434 C 0.71781 0.12424 0.3361 0.0
N435 N 0.73128 0.11285 0.37795 0.0
C436 C 0.74585 0.11765 0.36371 0.0
C437 C 0.76637 0.11281 0.37032 0.0
C438 C 0.76426 0.10412 0.38901 0.0
C439 C 0.74271 0.10441 0.393 0.0
N440 N 0.69952 0.1152 0.40836 0.0
C441 C 0.71373 0.10599 0.42023 0.0
C442 C 0.70883 0.10657 0.44075 0.0
C443 C 0.69042 0.11677 0.44167 0.0
C444 C 0.68513 0.12179 0.42156 0.0
N445 N 0.69348 0.09248 0.37479 0.0
C446 C 0.68129 0.05639 0.36643 0.0
C447 C 0.69898 0.06438 0.35682 0.0
C448 C 0.70472 0.08237 0.3611 0.0
C449 C 0.67024 0.06673 0.38083 0.0
C450 C 0.67672 0.08462 0.38495 0.0
N451 N 0.70716 0.14444 0.38142 0.0
C452 C 0.72872 0.16827 0.39651 0.0
C453 C 0.71915 0.18142 0.38346 0.0
C454 C 0.70298 0.17557 0.36978 0.0
C455 C 0.69722 0.15715 0.36904 0.0
C456 C 0.72254 0.14995 0.39524 0.0
H457 H 0.68489 0.15314 0.35819 0.0
H458 H 0.73054 0.14017 0.40518 0.0
H459 H 0.71797 0.08825 0.35288 0.0
H460 H 0.66787 0.09223 0.39606 0.0
C461 C 0.66289 0.12002 0.34281 0.0
C462 C 0.6663 0.13243 0.41516 0.0
C463 C 0.74017 0.12587 0.34359 0.0
C464 C 0.73351 0.10081 0.41219 0.0
H465 H 0.62351 0.13752 0.39775 0.0
H466 H 0.62103 0.12894 0.35799 0.0
H467 H 0.67908 0.12156 0.30166 0.0
H468 H 0.72125 0.12619 0.30227 0.0
H469 H 0.78137 0.11546 0.36274 0.0
H470 H 0.77708 0.09927 0.39907 0.0
H471 H 0.71818 0.10122 0.45362 0.0
H472 H 0.68208 0.1203 0.45552 0.0
H473 H 0.70795 0.05698 0.34553 0.0
H474 H 0.65667 0.06104 0.38886 0.0
H475 H 0.74137 0.17198 0.40726 0.0
H476 H 0.69476 0.18516 0.35964 0.0
C477 C 0.92482 0.1946 0.88907 0.0
C478 C 0.94115 0.20057 0.90213 0.0
C479 C 0.93157 0.20982 0.91767 0.0
C480 C 0.91002 0.20932 0.91317 0.0
N481 N 0.90545 0.20041 0.89568 0.0
Co482 Co 0.87649 0.19816 0.88264 0.0
N483 N 0.86463 0.21838 0.89903 0.0
C484 C 0.8737 0.22525 0.91618 0.0
C485 C 0.86199 0.23908 0.92439 0.0
C486 C 0.84427 0.2409 0.91178 0.0
C487 C 0.84609 0.22795 0.89656 0.0
N488 N 0.84753 0.19571 0.86962 0.0
C489 C 0.83038 0.2071 0.86958 0.0
C490 C 0.81302 0.19944 0.8592 0.0
C491 C 0.81948 0.18267 0.85278 0.0
C492 C 0.84034 0.18096 0.85955 0.0
N493 N 0.88832 0.17803 0.86623 0.0
C494 C 0.87669 0.1651 0.85673 0.0
C495 C 0.88915 0.1526 0.847 0.0
C496 C 0.90993 0.15796 0.85068 0.0
C497 C 0.90899 0.17358 0.8624 0.0
N498 N 0.86829 0.18079 0.90397 0.0
C499 C 0.85629 0.15623 0.93456 0.0
C500 C 0.84256 0.17032 0.92845 0.0
C501 C 0.84878 0.18237 0.91304 0.0
C502 C 0.87604 0.1544 0.92502 0.0
C503 C 0.88184 0.16697 0.90982 0.0
N504 N 0.88474 0.21539 0.86141 0.0
C505 C 0.88673 0.22316 0.82567 0.0
C506 C 0.89879 0.23857 0.83051 0.0
C507 C 0.90353 0.24242 0.85101 0.0
C508 C 0.89609 0.2307 0.86634 0.0
C509 C 0.87995 0.21168 0.84135 0.0
H510 H 0.89976 0.23389 0.88211 0.0
H511 H 0.87112 0.19964 0.83724 0.0
H512 H 0.83779 0.19303 0.9086 0.0
H513 H 0.89734 0.16558 0.90291 0.0
C514 C 0.89449 0.22017 0.92229 0.0
C515 C 0.92798 0.18284 0.87109 0.0
C516 C 0.82908 0.2241 0.8812 0.0
C517 C 0.85441 0.16691 0.85457 0.0
H518 H 0.95823 0.19882 0.90055 0.0
H519 H 0.93953 0.21702 0.93004 0.0
H520 H 0.8661 0.24723 0.93762 0.0
H521 H 0.83138 0.25052 0.91373 0.0
H522 H 0.79716 0.20516 0.85696 0.0
H523 H 0.81017 0.17302 0.84391 0.0
H524 H 0.8838 0.14127 0.83778 0.0
H525 H 0.92411 0.15102 0.84553 0.0
H526 H 0.82715 0.17204 0.93563 0.0
H527 H 0.88706 0.14367 0.92964 0.0
H528 H 0.8829 0.21987 0.80983 0.0
H529 H 0.91275 0.25437 0.85511 0.0
C530 C 0.82965 0.36886 0.40253 0.0
C531 C 0.85064 0.363 0.40048 0.0
C532 C 0.85382 0.36098 0.37993 0.0
C533 C 0.83465 0.36563 0.3707 0.0
N534 N 0.81945 0.37067 0.38408 0.0
Co535 Co 0.78892 0.3774 0.37745 0.0
N536 N 0.79363 0.37444 0.34736 0.0
C537 C 0.81248 0.37121 0.33809 0.0
C538 C 0.81129 0.37228 0.31707 0.0
C539 C 0.79036 0.37625 0.31264 0.0
C540 C 0.77983 0.37691 0.33131 0.0
N541 N 0.75811 0.38323 0.37092 0.0
C542 C 0.74695 0.38179 0.35295 0.0
C543 C 0.72508 0.38413 0.35582 0.0
C544 C 0.72245 0.38782 0.37608 0.0
C545 C 0.74265 0.38709 0.38454 0.0
N546 N 0.7845 0.38128 0.40752 0.0
C547 C 0.7665 0.38724 0.41656 0.0
C548 C 0.76856 0.38926 0.43741 0.0
C549 C 0.78915 0.38433 0.442 0.0
C550 C 0.79843 0.37951 0.42357 0.0
N551 N 0.79703 0.40364 0.37436 0.0
C552 C 0.80792 0.44079 0.36765 0.0
C553 C 0.7886 0.43577 0.3769 0.0
C554 C 0.78351 0.41733 0.38005 0.0
C555 C 0.82174 0.42675 0.36219 0.0
C556 C 0.81616 0.40858 0.36581 0.0
N557 N 0.78079 0.3512 0.38029 0.0
C558 C 0.75819 0.32745 0.39463 0.0
C559 C 0.76798 0.31412 0.38278 0.0
C560 C 0.78457 0.31979 0.3699 0.0
C561 C 0.79067 0.33815 0.36892 0.0
C562 C 0.76479 0.34569 0.39321 0.0
H563 H 0.8033 0.34154 0.35866 0.0
H564 H 0.75663 0.35514 0.40263 0.0
H565 H 0.7685 0.4145 0.38705 0.0
H566 H 0.82763 0.39881 0.36131 0.0
C567 C 0.83083 0.36652 0.34952 0.0
C568 C 0.82017 0.37259 0.42228 0.0
C569 C 0.75652 0.37833 0.333 0.0
C570 C 0.74746 0.38929 0.40535 0.0
H571 H 0.86243 0.36057 0.4126 0.0
H572 H 0.86844 0.35682 0.37258 0.0
H573 H 0.82404 0.37023 0.30625 0.0
H574 H 0.78356 0.37799 0.29733 0.0
H575 H 0.71213 0.38302 0.34467 0.0
H576 H 0.70752 0.39026 0.38383 0.0
H577 H 0.75639 0.3934 0.44806 0.0
H578 H 0.79641 0.384 0.45724 0.0
H579 H 0.7774 0.446 0.38185 0.0
H580 H 0.83677 0.42965 0.35471 0.0
H581 H 0.74554 0.32386 0.40514 0.0
H582 H 0.79262 0.31018 0.3602 0.0
C583 C 0.58452 0.31036 0.89011 0.0
C584 C 0.56839 0.30068 0.89988 0.0
C585 C 0.57821 0.28753 0.91166 0.0
C586 C 0.59968 0.28967 0.90823 0.0
N587 N 0.60425 0.30362 0.89526 0.0
Co588 Co 0.63326 0.30955 0.88384 0.0
N589 N 0.64732 0.28875 0.89911 0.0
C590 C 0.63812 0.27812 0.91361 0.0
C591 C 0.65172 0.2653 0.92199 0.0
C592 C 0.67075 0.26788 0.91226 0.0
C593 C 0.66764 0.2821 0.8983 0.0
N594 N 0.66186 0.31466 0.87114 0.0
C595 C 0.68052 0.30508 0.87202 0.0
C596 C 0.6959 0.31285 0.85943 0.0
C597 C 0.68676 0.3279 0.85046 0.0
C598 C 0.66632 0.32838 0.85783 0.0
N599 N 0.61951 0.33089 0.86941 0.0
C600 C 0.62977 0.34404 0.8587 0.0
C601 C 0.6164 0.35738 0.85111 0.0
C602 C 0.59636 0.35235 0.85717 0.0
C603 C 0.59862 0.33603 0.86795 0.0
N604 N 0.6403 0.32551 0.90749 0.0
C605 C 0.65116 0.34699 0.94167 0.0
C606 C 0.65994 0.35065 0.92247 0.0
C607 C 0.65425 0.33988 0.90569 0.0
C608 C 0.63663 0.33265 0.9434 0.0
C609 C 0.63147 0.32224 0.92634 0.0
N610 N 0.62615 0.29378 0.86058 0.0
C611 C 0.61967 0.28998 0.82435 0.0
C612 C 0.61388 0.27187 0.82772 0.0
C613 C 0.61451 0.26478 0.84766 0.0
C614 C 0.62053 0.27597 0.86384 0.0
C615 C 0.62595 0.3006 0.84091 0.0
H616 H 0.62048 0.26995 0.87885 0.0
H617 H 0.63062 0.31428 0.83751 0.0
H618 H 0.6616 0.34343 0.89155 0.0
H619 H 0.62052 0.31147 0.92907 0.0
C620 C 0.61602 0.27882 0.9168 0.0
C621 C 0.58038 0.32561 0.87579 0.0
C622 C 0.68445 0.28866 0.88454 0.0
C623 C 0.65119 0.3419 0.85329 0.0
H624 H 0.55126 0.30267 0.89846 0.0
H625 H 0.57057 0.27736 0.92123 0.0
H626 H 0.64803 0.25487 0.93329 0.0
H627 H 0.68519 0.25999 0.91491 0.0
H628 H 0.71207 0.30817 0.85696 0.0
H629 H 0.69416 0.33737 0.83984 0.0
H630 H 0.62056 0.36893 0.84149 0.0
H631 H 0.58169 0.35964 0.85356 0.0
H632 H 0.67123 0.3617 0.92041 0.0
H633 H 0.62972 0.32902 0.95808 0.0
H634 H 0.61987 0.29576 0.80893 0.0
H635 H 0.61033 0.25071 0.85072 0.0
C636 C 0.67003 0.35961 0.09844 0.0
C637 C 0.65018 0.35582 0.08946 0.0
C638 C 0.63763 0.34896 0.10468 0.0
C639 C 0.65041 0.34903 0.12201 0.0
N640 N 0.67033 0.35563 0.11883 0.0
Co641 Co 0.69404 0.35798 0.13969 0.0
N642 N 0.67459 0.3504 0.16263 0.0
C643 C 0.65369 0.34565 0.16092 0.0
C644 C 0.64358 0.34404 0.17937 0.0
C645 C 0.65883 0.34829 0.19377 0.0
C646 C 0.67763 0.35185 0.18323 0.0
N647 N 0.71787 0.35965 0.16031 0.0
C648 C 0.71748 0.35726 0.18092 0.0
C649 C 0.73804 0.3575 0.18949 0.0
C650 C 0.75173 0.36107 0.17378 0.0
C651 C 0.73886 0.36244 0.15655 0.0
N652 N 0.71321 0.36662 0.11705 0.0
C653 C 0.73421 0.37113 0.11876 0.0
C654 C 0.74293 0.3772 0.10073 0.0
C655 C 0.7265 0.37665 0.08665 0.0
C656 C 0.70866 0.3702 0.09698 0.0
N657 N 0.68597 0.38371 0.14467 0.0
C658 C 0.6745 0.42011 0.15373 0.0
C659 C 0.69597 0.41503 0.15093 0.0
C660 C 0.7013 0.39693 0.14679 0.0
C661 C 0.65898 0.40638 0.1516 0.0
C662 C 0.66495 0.3886 0.14678 0.0
N663 N 0.70234 0.33196 0.13498 0.0
C664 C 0.72946 0.30955 0.12698 0.0
C665 C 0.71608 0.29517 0.13271 0.0
C666 C 0.69526 0.29955 0.13865 0.0
C667 C 0.68876 0.3178 0.13956 0.0
C668 C 0.72235 0.32755 0.1281 0.0
H669 H 0.67273 0.32001 0.14427 0.0
H670 H 0.73359 0.33757 0.12343 0.0
H671 H 0.71798 0.39385 0.14544 0.0
H672 H 0.6523 0.37891 0.14508 0.0
C673 C 0.64348 0.34474 0.14174 0.0
C674 C 0.6881 0.36675 0.08685 0.0
C675 C 0.69797 0.35687 0.19307 0.0
C676 C 0.74557 0.36833 0.13722 0.0
H677 H 0.64523 0.35791 0.07357 0.0
H678 H 0.62099 0.34486 0.10337 0.0
H679 H 0.62683 0.34111 0.18197 0.0
H680 H 0.65594 0.34923 0.21004 0.0
H681 H 0.74257 0.35606 0.20557 0.0
H682 H 0.76889 0.36316 0.17492 0.0
H683 H 0.75936 0.38123 0.09806 0.0
H684 H 0.72764 0.38027 0.07052 0.0
H685 H 0.7088 0.4249 0.15183 0.0
H686 H 0.64216 0.40907 0.15396 0.0
H687 H 0.7455 0.30698 0.12157 0.0
H688 H 0.6841 0.28898 0.14313 0.0
C689 C 0.57867 0.20687 0.61953 0.0
C690 C 0.56212 0.21902 0.6153 0.0
C691 C 0.57131 0.23451 0.60773 0.0
C692 C 0.59289 0.23107 0.60787 0.0
N693 N 0.59808 0.21418 0.61474 0.0
Co694 Co 0.62786 0.20435 0.61944 0.0
N695 N 0.6415 0.22817 0.61151 0.0
C696 C 0.63118 0.24318 0.60429 0.0
C697 C 0.64459 0.25742 0.59986 0.0
C698 C 0.6647 0.25122 0.60462 0.0
C699 C 0.66243 0.23349 0.61186 0.0
N700 N 0.65763 0.19465 0.62475 0.0
C701 C 0.67704 0.20316 0.6243 0.0
C702 C 0.69352 0.19142 0.63016 0.0
C703 C 0.6843 0.17497 0.63432 0.0
C704 C 0.66277 0.17755 0.63095 0.0
N705 N 0.61424 0.18049 0.62723 0.0
C706 C 0.62457 0.16478 0.63197 0.0
C707 C 0.61109 0.15081 0.63728 0.0
C708 C 0.59097 0.15809 0.63623 0.0
C709 C 0.59333 0.1762 0.63044 0.0
N710 N 0.62905 0.19654 0.5903 0.0
C711 C 0.63199 0.18569 0.54902 0.0
C712 C 0.63879 0.17427 0.56513 0.0
C713 C 0.63731 0.17995 0.58539 0.0
C714 C 0.62323 0.20249 0.55392 0.0
C715 C 0.62183 0.20756 0.57448 0.0
N716 N 0.62652 0.21201 0.64824 0.0
C717 C 0.62713 0.20435 0.68437 0.0
C718 C 0.62024 0.22178 0.689 0.0
C719 C 0.61722 0.23447 0.67314 0.0
C720 C 0.62035 0.22929 0.65293 0.0
C721 C 0.63046 0.19985 0.66397 0.0
H722 H 0.61735 0.23938 0.64133 0.0
H723 H 0.63594 0.1864 0.66127 0.0
H724 H 0.64308 0.17062 0.59671 0.0
H725 H 0.61499 0.2205 0.57704 0.0
C726 C 0.60877 0.24385 0.60319 0.0
C727 C 0.57529 0.1889 0.62898 0.0
C728 C 0.68068 0.22233 0.61883 0.0
C729 C 0.64695 0.16427 0.63384 0.0
H730 H 0.54518 0.21712 0.61795 0.0
H731 H 0.56327 0.24705 0.6034 0.0
H732 H 0.64023 0.27083 0.5942 0.0
H733 H 0.67938 0.25894 0.60305 0.0
H734 H 0.71045 0.19444 0.63154 0.0
H735 H 0.69232 0.16265 0.63947 0.0
H736 H 0.61545 0.13719 0.64223 0.0
H737 H 0.57627 0.15101 0.63989 0.0
H738 H 0.64526 0.16091 0.56219 0.0
H739 H 0.61782 0.21189 0.54197 0.0
H740 H 0.63006 0.19431 0.69644 0.0
H741 H 0.61202 0.24819 0.6763 0.0
C742 C 0.77888 0.08031 0.14412 0.0
C743 C 0.76256 0.06749 0.14534 0.0
C744 C 0.74471 0.07517 0.13627 0.0
C745 C 0.75092 0.09231 0.13029 0.0
N746 N 0.7715 0.09598 0.13529 0.0
Co747 Co 0.78638 0.11948 0.13032 0.0
N748 N 0.75886 0.13257 0.12548 0.0
C749 C 0.73992 0.12485 0.12061 0.0
C750 C 0.72371 0.13733 0.118 0.0
C751 C 0.73309 0.15393 0.12137 0.0
C752 C 0.75456 0.15062 0.12595 0.0
N753 N 0.80115 0.14306 0.12553 0.0
C754 C 0.79335 0.16027 0.12622 0.0
C755 C 0.80942 0.17288 0.12238 0.0
C756 C 0.82774 0.16316 0.11884 0.0
C757 C 0.82192 0.14522 0.12084 0.0
N758 N 0.81396 0.10639 0.13474 0.0
C759 C 0.83328 0.11238 0.12861 0.0
C760 C 0.84945 0.10019 0.13276 0.0
C761 C 0.83968 0.08554 0.1419 0.0
C762 C 0.81798 0.08965 0.14293 0.0
N763 N 0.78761 0.11419 0.10108 0.0
C764 C 0.79459 0.10808 0.05953 0.0
C765 C 0.79774 0.09411 0.07403 0.0
C766 C 0.79392 0.09739 0.09472 0.0
C767 C 0.78666 0.1248 0.06605 0.0
C768 C 0.78334 0.1276 0.08688 0.0
N769 N 0.78526 0.12472 0.15948 0.0
C770 C 0.80312 0.13156 0.19148 0.0
C771 C 0.78358 0.13051 0.20181 0.0
C772 C 0.76484 0.12737 0.19012 0.0
C773 C 0.76611 0.12395 0.16925 0.0
C774 C 0.80352 0.12901 0.17027 0.0
H775 H 0.75155 0.12055 0.16107 0.0
H776 H 0.8187 0.13015 0.16269 0.0
H777 H 0.79694 0.08652 0.10563 0.0
H778 H 0.77817 0.14087 0.09156 0.0
C779 C 0.73724 0.10603 0.12276 0.0
C780 C 0.80151 0.07664 0.14974 0.0
C781 C 0.77066 0.16492 0.1292 0.0
C782 C 0.83597 0.13039 0.12183 0.0
H783 H 0.76341 0.05392 0.1519 0.0
H784 H 0.72891 0.06916 0.13484 0.0
H785 H 0.7069 0.13465 0.11495 0.0
H786 H 0.72507 0.16696 0.12053 0.0
H787 H 0.80811 0.18754 0.12214 0.0
H788 H 0.84357 0.16857 0.11599 0.0
H789 H 0.86639 0.10189 0.12993 0.0
H790 H 0.84762 0.07313 0.14683 0.0
H791 H 0.80378 0.08098 0.06951 0.0
H792 H 0.7843 0.13604 0.05532 0.0
H793 H 0.81811 0.13387 0.19965 0.0
H794 H 0.74915 0.12722 0.19697 0.0
C795 C 0.92827 0.30754 0.62066 0.0
C796 C 0.94486 0.29987 0.6097 0.0
C797 C 0.93681 0.28459 0.60071 0.0
C798 C 0.91572 0.28394 0.60623 0.0
N799 N 0.90971 0.29807 0.61791 0.0
Co800 Co 0.8799 0.30311 0.62745 0.0
N801 N 0.86872 0.27923 0.61691 0.0
C802 C 0.88039 0.26624 0.60775 0.0
C803 C 0.86871 0.25117 0.60244 0.0
C804 C 0.84834 0.25467 0.60866 0.0
C805 C 0.84872 0.27176 0.61746 0.0
N806 N 0.84979 0.30854 0.63616 0.0
C807 C 0.83133 0.29876 0.6341 0.0
C808 C 0.81393 0.30805 0.64187 0.0
C809 C 0.82152 0.32429 0.64877 0.0
C810 C 0.84304 0.32404 0.64492 0.0
N811 N 0.89136 0.32648 0.63913 0.0
C812 C 0.87984 0.33897 0.64931 0.0
C813 C 0.89208 0.3518 0.65899 0.0
C814 C 0.91273 0.34719 0.65503 0.0
C815 C 0.912 0.33197 0.64254 0.0
N816 N 0.87354 0.31522 0.60062 0.0
C817 C 0.86731 0.33289 0.56244 0.0
C818 C 0.86395 0.34208 0.58072 0.0
C819 C 0.86718 0.33305 0.59953 0.0
C820 C 0.87328 0.31466 0.56351 0.0
C821 C 0.87614 0.30614 0.58257 0.0
N822 N 0.88672 0.29132 0.65408 0.0
C823 C 0.88887 0.29393 0.69086 0.0
C824 C 0.90472 0.28059 0.69191 0.0
C825 C 0.91007 0.27152 0.67402 0.0
C826 C 0.9008 0.27704 0.6553 0.0
C827 C 0.87989 0.29886 0.67192 0.0
H828 H 0.90579 0.27002 0.64194 0.0
H829 H 0.86799 0.30923 0.67201 0.0
H830 H 0.86453 0.34083 0.61292 0.0
H831 H 0.88046 0.29221 0.58217 0.0
C832 C 0.90181 0.26935 0.60265 0.0
C833 C 0.93126 0.32307 0.63447 0.0
C834 C 0.82946 0.28058 0.62526 0.0
C835 C 0.85763 0.33739 0.65099 0.0
H836 H 0.96128 0.30451 0.60874 0.0
H837 H 0.9455 0.27479 0.5918 0.0
H838 H 0.87422 0.23926 0.59448 0.0
H839 H 0.83467 0.24579 0.60654 0.0
H840 H 0.79746 0.30349 0.6427 0.0
H841 H 0.8125 0.33487 0.65613 0.0
H842 H 0.88668 0.36269 0.66866 0.0
H843 H 0.92659 0.35405 0.66137 0.0
H844 H 0.85913 0.35623 0.58053 0.0
H845 H 0.87546 0.30688 0.54966 0.0
H846 H 0.88349 0.30061 0.70461 0.0
H847 H 0.92176 0.26064 0.67438 0.0
C848 C 0.38667 0.70472 0.06949 0.0
C849 C 0.39688 0.71397 0.05367 0.0
C850 C 0.40921 0.72716 0.06257 0.0
C851 C 0.40572 0.72549 0.08325 0.0
N852 N 0.3922 0.71181 0.08823 0.0
Co853 Co 0.38051 0.7069 0.11651 0.0
N854 N 0.39675 0.72771 0.12932 0.0
C855 C 0.41147 0.7381 0.11966 0.0
C856 C 0.42129 0.75053 0.1322 0.0
C857 C 0.41235 0.74796 0.15105 0.0
C858 C 0.39721 0.73422 0.14898 0.0
N859 N 0.36772 0.70265 0.14447 0.0
C860 C 0.36944 0.71221 0.16237 0.0
C861 C 0.35583 0.70514 0.17718 0.0
C862 C 0.34577 0.69047 0.16873 0.0
C863 C 0.35337 0.6895 0.14914 0.0
N864 N 0.36493 0.68564 0.10399 0.0
C865 C 0.35326 0.6732 0.11443 0.0
C866 C 0.34467 0.65991 0.10221 0.0
C867 C 0.35101 0.66421 0.08274 0.0
C868 C 0.36293 0.68011 0.08408 0.0
N869 N 0.40499 0.69055 0.12357 0.0
C870 C 0.43978 0.66719 0.13273 0.0
C871 C 0.41947 0.66367 0.14059 0.0
C872 C 0.40245 0.67543 0.13588 0.0
C873 C 0.44238 0.68262 0.12031 0.0
C874 C 0.42498 0.69396 0.11597 0.0
N875 N 0.35638 0.723 0.10908 0.0
C876 C 0.31911 0.72607 0.09973 0.0
C877 C 0.32292 0.74331 0.09142 0.0
C878 C 0.34338 0.75076 0.09316 0.0
C879 C 0.35987 0.74037 0.10199 0.0
C880 C 0.33591 0.71632 0.10875 0.0
H881 H 0.37535 0.74653 0.10258 0.0
H882 H 0.33207 0.70327 0.11502 0.0
H883 H 0.38747 0.67197 0.14245 0.0
H884 H 0.42825 0.70544 0.10648 0.0
C885 C 0.41444 0.73679 0.09843 0.0
C886 C 0.37142 0.68966 0.06588 0.0
C887 C 0.38378 0.72787 0.16621 0.0
C888 C 0.34793 0.67604 0.13495 0.0
H889 H 0.39527 0.71176 0.03731 0.0
H890 H 0.41911 0.73712 0.0548 0.0
H891 H 0.43334 0.76046 0.12806 0.0
H892 H 0.41656 0.75543 0.16475 0.0
H893 H 0.35331 0.71003 0.19256 0.0
H894 H 0.33426 0.68157 0.17602 0.0
H895 H 0.33422 0.64887 0.10677 0.0
H896 H 0.34682 0.65672 0.06903 0.0
H897 H 0.41663 0.65183 0.15026 0.0
H898 H 0.45791 0.6862 0.11424 0.0
H899 H 0.30314 0.72023 0.09955 0.0
H900 H 0.34666 0.76438 0.0875 0.0
C901 C 0.40932 0.84459 0.36602 0.0
C902 C 0.40761 0.86299 0.36132 0.0
C903 C 0.38629 0.86732 0.36262 0.0
C904 C 0.37625 0.85137 0.36803 0.0
N905 N 0.38991 0.83728 0.37006 0.0
Co906 Co 0.38239 0.81208 0.37828 0.0
N907 N 0.3519 0.81621 0.37111 0.0
C908 C 0.34206 0.83242 0.36902 0.0
C909 C 0.32071 0.83085 0.3639 0.0
C910 C 0.31694 0.81252 0.36286 0.0
C911 C 0.33631 0.80392 0.36745 0.0
N912 N 0.37503 0.78693 0.38651 0.0
C913 C 0.35754 0.77707 0.3815 0.0
C914 C 0.35863 0.75978 0.39033 0.0
C915 C 0.37749 0.75899 0.40142 0.0
C916 C 0.38681 0.77574 0.39871 0.0
N917 N 0.41295 0.80814 0.38577 0.0
C918 C 0.42087 0.79479 0.39805 0.0
C919 C 0.44278 0.79542 0.40015 0.0
C920 C 0.449 0.81016 0.38862 0.0
C921 C 0.4304 0.81784 0.38027 0.0
N922 N 0.37664 0.82027 0.40689 0.0
C923 C 0.36667 0.83218 0.44735 0.0
C924 C 0.35356 0.81978 0.43668 0.0
C925 C 0.35874 0.81408 0.41678 0.0
C926 C 0.38521 0.83825 0.43712 0.0
C927 C 0.38985 0.83221 0.41706 0.0
N928 N 0.38735 0.80353 0.34962 0.0
C929 C 0.40046 0.78058 0.32626 0.0
C930 C 0.38878 0.78812 0.30953 0.0
C931 C 0.37704 0.80399 0.31332 0.0
C932 C 0.37687 0.81161 0.33318 0.0
C933 C 0.39934 0.78829 0.34606 0.0
H934 H 0.36763 0.8238 0.3353 0.0
H935 H 0.40771 0.78154 0.35864 0.0
H936 H 0.34803 0.80461 0.40937 0.0
H937 H 0.40409 0.83733 0.40972 0.0
C938 C 0.35408 0.8485 0.36831 0.0
C939 C 0.42967 0.83486 0.36827 0.0
C940 C 0.33891 0.78423 0.3701 0.0
C941 C 0.40788 0.78028 0.40421 0.0
H942 H 0.42044 0.87234 0.35763 0.0
H943 H 0.37895 0.8804 0.35942 0.0
H944 H 0.30943 0.8417 0.36053 0.0
H945 H 0.30166 0.80621 0.3593 0.0
H946 H 0.34696 0.74894 0.38903 0.0
H947 H 0.38398 0.74737 0.40978 0.0
H948 H 0.4531 0.78585 0.40832 0.0
H949 H 0.46536 0.81466 0.38664 0.0
H950 H 0.33932 0.81423 0.4437 0.0
H951 H 0.39595 0.8479 0.44436 0.0
H952 H 0.40981 0.76836 0.32424 0.0
H953 H 0.36796 0.81053 0.30097 0.0
C954 C 0.20113 0.88006 0.93635 0.0
C955 C 0.21517 0.88467 0.95223 0.0
C956 C 0.23282 0.89225 0.94337 0.0
C957 C 0.22881 0.89178 0.92259 0.0
N958 N 0.20957 0.88446 0.91763 0.0
Co959 Co 0.19835 0.88061 0.88882 0.0
N960 N 0.22661 0.88689 0.87595 0.0
C961 C 0.24459 0.89188 0.88629 0.0
C962 C 0.26185 0.8948 0.87388 0.0
C963 C 0.25456 0.89119 0.85442 0.0
C964 C 0.23316 0.88624 0.85601 0.0
N965 N 0.18678 0.87758 0.86001 0.0
C966 C 0.19658 0.8785 0.84136 0.0
C967 C 0.18199 0.87549 0.82541 0.0
C968 C 0.16244 0.87285 0.83416 0.0
C969 C 0.16607 0.87426 0.85493 0.0
N970 N 0.17066 0.87281 0.9018 0.0
C971 C 0.15245 0.86837 0.89151 0.0
C972 C 0.13631 0.8625 0.90403 0.0
C973 C 0.14486 0.8628 0.92351 0.0
C974 C 0.16587 0.86882 0.92181 0.0
N975 N 0.189 0.9067 0.88736 0.0
C976 C 0.17627 0.94315 0.87952 0.0
C977 C 0.16108 0.92937 0.88203 0.0
C978 C 0.16771 0.91143 0.88594 0.0
C979 C 0.19784 0.93856 0.88219 0.0
C980 C 0.20377 0.92054 0.88629 0.0
N981 N 0.2076 0.85504 0.88994 0.0
C982 C 0.20296 0.82395 0.87948 0.0
C983 C 0.22223 0.81897 0.88933 0.0
C984 C 0.23365 0.83233 0.90002 0.0
C985 C 0.22622 0.85017 0.89996 0.0
C986 C 0.19586 0.84189 0.8802 0.0
H987 H 0.2359 0.85986 0.90793 0.0
H988 H 0.18099 0.84493 0.8725 0.0
H989 H 0.15518 0.9017 0.88737 0.0
H990 H 0.2205 0.91828 0.88822 0.0
C991 C 0.24431 0.89455 0.90755 0.0
C992 C 0.18044 0.87078 0.93975 0.0
C993 C 0.21962 0.88169 0.83801 0.0
C994 C 0.15117 0.86991 0.87006 0.0
H995 H 0.21335 0.8822 0.96854 0.0
H996 H 0.24746 0.89646 0.95112 0.0
H997 H 0.27778 0.89919 0.87841 0.0
H998 H 0.26392 0.89232 0.8406 0.0
H999 H 0.18514 0.87484 0.80913 0.0
H1000 H 0.14753 0.8695 0.82634 0.0
H1001 H 0.12029 0.85832 0.89952 0.0
H1002 H 0.13656 0.85897 0.93739 0.0
H1003 H 0.14411 0.93228 0.88032 0.0
H1004 H 0.21021 0.94886 0.88102 0.0
H1005 H 0.19356 0.8142 0.87083 0.0
H1006 H 0.24836 0.82912 0.90836 0.0
C1007 C 0.12562 0.70326 0.42125 0.0
C1008 C 0.12064 0.71464 0.43735 0.0
C1009 C 0.11178 0.72997 0.42878 0.0
C1010 C 0.1119 0.72723 0.40798 0.0
N1011 N 0.12019 0.711 0.40267 0.0
Co1012 Co 0.124 0.70221 0.37372 0.0
N1013 N 0.11346 0.72578 0.36108 0.0
C1014 C 0.10591 0.74017 0.37147 0.0
C1015 C 0.10047 0.75472 0.35907 0.0
C1016 C 0.10508 0.74945 0.33958 0.0
C1017 C 0.11322 0.73193 0.34115 0.0
N1018 N 0.12792 0.6935 0.34471 0.0
C1019 C 0.12621 0.70252 0.32621 0.0
C1020 C 0.13149 0.6913 0.31008 0.0
C1021 C 0.13677 0.67477 0.31855 0.0
C1022 C 0.13453 0.67673 0.33934 0.0
N1023 N 0.13502 0.67878 0.38636 0.0
C1024 C 0.14102 0.66387 0.37594 0.0
C1025 C 0.14847 0.65002 0.38841 0.0
C1026 C 0.14738 0.65647 0.40798 0.0
C1027 C 0.13937 0.67402 0.4064 0.0
N1028 N 0.09424 0.69236 0.37355 0.0
C1029 C 0.05211 0.6785 0.37175 0.0
C1030 C 0.06941 0.66807 0.36559 0.0
C1031 C 0.09008 0.67516 0.36667 0.0
C1032 C 0.0562 0.69582 0.37938 0.0
C1033 C 0.07722 0.70245 0.3801 0.0
N1034 N 0.15338 0.71182 0.37379 0.0
C1035 C 0.19048 0.70832 0.36512 0.0
C1036 C 0.195 0.72576 0.37204 0.0
C1037 C 0.17845 0.73608 0.38016 0.0
C1038 C 0.15783 0.72887 0.38087 0.0
C1039 C 0.16974 0.70164 0.36624 0.0
H1040 H 0.14572 0.73731 0.38707 0.0
H1041 H 0.16731 0.68827 0.3607 0.0
H1042 H 0.10231 0.6664 0.36168 0.0
H1043 H 0.07918 0.71581 0.3858 0.0
C1044 C 0.10566 0.74008 0.39299 0.0
C1045 C 0.13607 0.68549 0.42449 0.0
C1046 C 0.12054 0.72184 0.32318 0.0
C1047 C 0.14046 0.6637 0.35434 0.0
H1048 H 0.12347 0.71228 0.45363 0.0
H1049 H 0.10641 0.74191 0.43676 0.0
H1050 H 0.09441 0.76779 0.36371 0.0
H1051 H 0.10295 0.75768 0.32578 0.0
H1052 H 0.13203 0.6948 0.29389 0.0
H1053 H 0.14236 0.66292 0.31054 0.0
H1054 H 0.15436 0.63687 0.3838 0.0
H1055 H 0.15211 0.64913 0.42185 0.0
H1056 H 0.06702 0.65443 0.35987 0.0
H1057 H 0.0432 0.70443 0.38426 0.0
H1058 H 0.2028 0.69994 0.35852 0.0
H1059 H 0.1814 0.74959 0.38599 0.0
C1060 C 0.30582 0.63325 0.91849 0.0
C1061 C 0.2931 0.62663 0.93426 0.0
C1062 C 0.2777 0.61585 0.92533 0.0
C1063 C 0.28154 0.61658 0.90461 0.0
N1064 N 0.29836 0.62726 0.89991 0.0
Co1065 Co 0.30816 0.63273 0.87142 0.0
N1066 N 0.28062 0.62451 0.85847 0.0
C1067 C 0.26583 0.61418 0.86791 0.0
C1068 C 0.24863 0.61007 0.85536 0.0
C1069 C 0.25295 0.61815 0.83675 0.0
C1070 C 0.27261 0.62683 0.83894 0.0
N1071 N 0.3182 0.63805 0.84297 0.0
C1072 C 0.30725 0.63912 0.82464 0.0
C1073 C 0.32113 0.64302 0.80869 0.0
C1074 C 0.34136 0.64394 0.8172 0.0
C1075 C 0.33881 0.64071 0.83785 0.0
N1076 N 0.33549 0.64119 0.88445 0.0
C1077 C 0.35417 0.64331 0.87464 0.0
C1078 C 0.37047 0.64924 0.88734 0.0
C1079 C 0.36151 0.65092 0.90636 0.0
C1080 C 0.34011 0.646 0.90424 0.0
N1081 N 0.31965 0.60797 0.8695 0.0
C1082 C 0.3351 0.57235 0.8664 0.0
C1083 C 0.32282 0.58023 0.85051 0.0
C1084 C 0.3155 0.59803 0.85224 0.0
C1085 C 0.33976 0.58268 0.88386 0.0
C1086 C 0.33167 0.60041 0.88522 0.0
N1087 N 0.29668 0.65721 0.87322 0.0
C1088 C 0.30039 0.68939 0.86771 0.0
C1089 C 0.28043 0.69221 0.87656 0.0
C1090 C 0.26866 0.6773 0.88358 0.0
C1091 C 0.27697 0.65987 0.88155 0.0
C1092 C 0.30834 0.67175 0.86637 0.0
H1093 H 0.26745 0.64857 0.88679 0.0
H1094 H 0.32396 0.66989 0.85991 0.0
H1095 H 0.30638 0.60368 0.83951 0.0
H1096 H 0.33505 0.60796 0.89901 0.0
C1097 C 0.26746 0.61058 0.8891 0.0
C1098 C 0.32529 0.64454 0.92172 0.0
C1099 C 0.28418 0.63515 0.82151 0.0
C1100 C 0.35476 0.64249 0.85314 0.0
H1101 H 0.29449 0.62943 0.9505 0.0
H1102 H 0.26453 0.60911 0.93296 0.0
H1103 H 0.23445 0.60238 0.85934 0.0
H1104 H 0.24301 0.61736 0.82299 0.0
H1105 H 0.31714 0.64482 0.79254 0.0
H1106 H 0.35608 0.64708 0.80931 0.0
H1107 H 0.38675 0.65255 0.88315 0.0
H1108 H 0.36984 0.65512 0.92024 0.0
H1109 H 0.31908 0.57272 0.83667 0.0
H1110 H 0.34921 0.57698 0.89649 0.0
H1111 H 0.30989 0.70074 0.86221 0.0
H1112 H 0.25308 0.67909 0.89039 0.0
C1113 C 0.11569 0.81344 0.08708 0.0
C1114 C 0.10391 0.80543 0.07132 0.0
C1115 C 0.08937 0.79399 0.08042 0.0
C1116 C 0.0931 0.79541 0.1012 0.0
N1117 N 0.10915 0.80698 0.10576 0.0
Co1118 Co 0.12042 0.81185 0.13407 0.0
N1119 N 0.10677 0.78964 0.14608 0.0
C1120 C 0.0909 0.78013 0.13695 0.0
C1121 C 0.08386 0.7658 0.14879 0.0
C1122 C 0.09584 0.76643 0.16664 0.0
C1123 C 0.10964 0.78115 0.16474 0.0
N1124 N 0.13181 0.81681 0.16235 0.0
C1125 C 0.13259 0.80617 0.17972 0.0
C1126 C 0.14139 0.8157 0.1961 0.0
C1127 C 0.14576 0.8329 0.18891 0.0
C1128 C 0.13954 0.83297 0.16856 0.0
N1129 N 0.13403 0.83402 0.12201 0.0
C1130 C 0.14114 0.84833 0.13282 0.0
C1131 C 0.14989 0.8617 0.1206 0.0
C1132 C 0.14813 0.85541 0.10086 0.0
C1133 C 0.13847 0.83843 0.10208 0.0
N1134 N 0.09472 0.82592 0.1399 0.0
C1135 C 0.05803 0.84619 0.1482 0.0
C1136 C 0.06825 0.84805 0.12928 0.0
C1137 C 0.08658 0.83784 0.12546 0.0
C1138 C 0.06659 0.83401 0.16288 0.0
C1139 C 0.08486 0.82401 0.15842 0.0
N1140 N 0.1459 0.79807 0.12797 0.0
C1141 C 0.18355 0.79895 0.12172 0.0
C1142 C 0.1815 0.78356 0.10956 0.0
C1143 C 0.16187 0.77454 0.10819 0.0
C1144 C 0.14413 0.78208 0.11761 0.0
C1145 C 0.16553 0.80586 0.13111 0.0
H1146 H 0.12881 0.77556 0.11546 0.0
H1147 H 0.16725 0.81815 0.13978 0.0
H1148 H 0.09414 0.83959 0.11078 0.0
H1149 H 0.09088 0.81466 0.16999 0.0
C1150 C 0.08496 0.78374 0.11641 0.0
C1151 C 0.13226 0.82764 0.0839 0.0
C1152 C 0.12339 0.7877 0.18184 0.0
C1153 C 0.14286 0.84717 0.15433 0.0
H1154 H 0.10571 0.80739 0.05493 0.0
H1155 H 0.07819 0.78498 0.07272 0.0
H1156 H 0.0717 0.75588 0.1448 0.0
H1157 H 0.09427 0.75734 0.17976 0.0
H1158 H 0.14398 0.81086 0.21173 0.0
H1159 H 0.15295 0.84394 0.19745 0.0
H1160 H 0.15744 0.8742 0.12551 0.0
H1161 H 0.15328 0.86253 0.08713 0.0
H1162 H 0.06221 0.85739 0.11755 0.0
H1163 H 0.05897 0.83191 0.17757 0.0
H1164 H 0.19882 0.80585 0.12347 0.0
H1165 H 0.16009 0.76231 0.09922 0.0
C1166 C 0.20153 0.63618 0.57616 0.0
C1167 C 0.21618 0.63215 0.56104 0.0
C1168 C 0.2336 0.62451 0.5708 0.0
C1169 C 0.22882 0.62447 0.5913 0.0
N1170 N 0.20926 0.63134 0.59526 0.0
Co1171 Co 0.19741 0.63545 0.62345 0.0
N1172 N 0.22424 0.6266 0.63786 0.0
C1173 C 0.24077 0.61826 0.62873 0.0
C1174 C 0.25678 0.61301 0.64223 0.0
C1175 C 0.25008 0.61831 0.66114 0.0
C1176 C 0.23034 0.62669 0.65813 0.0
N1177 N 0.1862 0.641 0.65156 0.0
C1178 C 0.19601 0.64065 0.67051 0.0
C1179 C 0.18243 0.64701 0.6855 0.0
C1180 C 0.16346 0.65134 0.67583 0.0
C1181 C 0.16651 0.64763 0.65548 0.0
N1182 N 0.17024 0.64352 0.60906 0.0
C1183 C 0.15165 0.64745 0.61837 0.0
C1184 C 0.13552 0.65245 0.60487 0.0
C1185 C 0.14437 0.65177 0.58579 0.0
C1186 C 0.16557 0.64652 0.5887 0.0
N1187 N 0.1858 0.61002 0.62499 0.0
C1188 C 0.172 0.57347 0.63019 0.0
C1189 C 0.1625 0.58761 0.6409 0.0
C1190 C 0.16943 0.60554 0.63801 0.0
C1191 C 0.18796 0.57808 0.6162 0.0
C1192 C 0.1945 0.5962 0.61382 0.0
N1193 N 0.2089 0.66037 0.62213 0.0
C1194 C 0.20358 0.69274 0.62431 0.0
C1195 C 0.22552 0.69575 0.62214 0.0
C1196 C 0.23898 0.68085 0.61955 0.0
C1197 C 0.23035 0.66335 0.61937 0.0
C1198 C 0.19566 0.67502 0.62442 0.0
H1199 H 0.24127 0.65239 0.61715 0.0
H1200 H 0.17882 0.67342 0.62663 0.0
H1201 H 0.16135 0.61538 0.64684 0.0
H1202 H 0.20677 0.59849 0.60291 0.0
C1203 C 0.24214 0.61801 0.60729 0.0
C1204 C 0.1806 0.64473 0.57162 0.0
C1205 C 0.21803 0.63438 0.67507 0.0
C1206 C 0.15108 0.64952 0.63972 0.0
H1207 H 0.21458 0.6346 0.54465 0.0
H1208 H 0.24816 0.61977 0.56379 0.0
H1209 H 0.2719 0.60667 0.63867 0.0
H1210 H 0.25887 0.61641 0.6755 0.0
H1211 H 0.18584 0.6484 0.70177 0.0
H1212 H 0.14914 0.65659 0.68282 0.0
H1213 H 0.11952 0.65694 0.60851 0.0
H1214 H 0.13628 0.65515 0.5714 0.0
H1215 H 0.15011 0.58487 0.652 0.0
H1216 H 0.1955 0.56774 0.60707 0.0
H1217 H 0.19268 0.70398 0.62648 0.0
H1218 H 0.25607 0.6827 0.61762 0.0
C1219 C 0.30398 0.88334 0.596 0.0
C1220 C 0.29098 0.89012 0.58016 0.0
C1221 C 0.27539 0.90034 0.5891 0.0
C1222 C 0.27951 0.89916 0.60988 0.0
N1223 N 0.29665 0.88875 0.61462 0.0
Co1224 Co 0.30736 0.88327 0.64313 0.0
N1225 N 0.28006 0.89115 0.65599 0.0
C1226 C 0.26491 0.9014 0.64651 0.0
C1227 C 0.2481 0.90545 0.659 0.0
C1228 C 0.25303 0.89742 0.67762 0.0
C1229 C 0.27264 0.8888 0.6755 0.0
N1230 N 0.31818 0.8778 0.67162 0.0
C1231 C 0.30771 0.87646 0.68987 0.0
C1232 C 0.322 0.87216 0.7058 0.0
C1233 C 0.34199 0.87139 0.69742 0.0
C1234 C 0.33891 0.87503 0.67684 0.0
N1235 N 0.33457 0.87536 0.63019 0.0
C1236 C 0.3535 0.87333 0.64015 0.0
C1237 C 0.36961 0.8678 0.62751 0.0
C1238 C 0.36026 0.86633 0.60835 0.0
C1239 C 0.33886 0.87099 0.61035 0.0
N1240 N 0.31858 0.90814 0.6453 0.0
C1241 C 0.33444 0.94386 0.64889 0.0
C1242 C 0.33828 0.93356 0.63127 0.0
C1243 C 0.33004 0.91588 0.62969 0.0
C1244 C 0.32235 0.93574 0.66455 0.0
C1245 C 0.31493 0.91795 0.6626 0.0
N1246 N 0.29625 0.85862 0.64101 0.0
C1247 C 0.30183 0.82637 0.64361 0.0
C1248 C 0.28087 0.82332 0.6366 0.0
C1249 C 0.26762 0.83818 0.63204 0.0
C1250 C 0.27571 0.85575 0.63415 0.0
C1251 C 0.30913 0.84415 0.64595 0.0
H1252 H 0.26538 0.86698 0.63006 0.0
H1253 H 0.32526 0.84615 0.65161 0.0
H1254 H 0.33304 0.90845 0.61584 0.0
H1255 H 0.30609 0.91221 0.67519 0.0
C1256 C 0.26584 0.905 0.62533 0.0
C1257 C 0.32367 0.87261 0.59275 0.0
C1258 C 0.28474 0.88053 0.693 0.0
C1259 C 0.35453 0.87368 0.66167 0.0
H1260 H 0.29248 0.88789 0.56384 0.0
H1261 H 0.2621 0.90716 0.58139 0.0
H1262 H 0.23377 0.91308 0.65497 0.0
H1263 H 0.2435 0.89825 0.69134 0.0
H1264 H 0.31845 0.86996 0.72187 0.0
H1265 H 0.35691 0.86808 0.70533 0.0
H1266 H 0.38602 0.86458 0.63183 0.0
H1267 H 0.36832 0.86243 0.59447 0.0
H1268 H 0.34772 0.93896 0.61878 0.0
H1269 H 0.31829 0.94307 0.67827 0.0
H1270 H 0.3124 0.81511 0.64742 0.0
H1271 H 0.25132 0.83622 0.62651 0.0
C1272 C 0.10714 0.22193 0.76908 0.0
C1273 C 0.12653 0.21351 0.77468 0.0
C1274 C 0.10683 0.23957 0.76058 0.0
C1275 C 0.12644 0.24878 0.75715 0.0
C1276 C 0.14609 0.24022 0.76262 0.0
C1277 C 0.14588 0.22275 0.77157 0.0
C1278 C 0.08554 0.2484 0.75542 0.0
C1279 C 0.16734 0.24942 0.75879 0.0
C1280 C 0.12617 0.2875 0.71783 0.0
C1281 C 0.12658 0.30285 0.73046 0.0
C1282 C 0.12635 0.26984 0.7263 0.0
C1283 C 0.1264 0.2674 0.74793 0.0
C1284 C 0.12651 0.28277 0.76078 0.0
C1285 C 0.1269 0.30026 0.75192 0.0
C1286 C 0.12659 0.25377 0.71208 0.0
C1287 C 0.12622 0.28074 0.78392 0.0
H1288 H 0.09219 0.21476 0.77162 0.0
H1289 H 0.16087 0.21611 0.77574 0.0
H1290 H 0.08413 0.2614 0.76376 0.0
H1291 H 0.08451 0.25168 0.73873 0.0
H1292 H 0.07175 0.23957 0.75948 0.0
H1293 H 0.18117 0.24074 0.76351 0.0
H1294 H 0.16873 0.2529 0.74221 0.0
H1295 H 0.16831 0.26233 0.76738 0.0
H1296 H 0.12554 0.28923 0.70126 0.0
H1297 H 0.12771 0.31192 0.76191 0.0
H1298 H 0.11204 0.24535 0.71436 0.0
H1299 H 0.14066 0.24502 0.71576 0.0
H1300 H 0.12724 0.25796 0.69563 0.0
H1301 H 0.11224 0.27241 0.78859 0.0
H1302 H 0.1254 0.29406 0.79173 0.0
H1303 H 0.14085 0.27352 0.78946 0.0
C1304 C 0.69664 0.59908 0.26686 0.0
C1305 C 0.68882 0.58845 0.25073 0.0
C1306 C 0.71812 0.59795 0.27318 0.0
C1307 C 0.73201 0.58597 0.26293 0.0
C1308 C 0.7236 0.57385 0.2481 0.0
C1309 C 0.70198 0.57535 0.24201 0.0
C1310 C 0.7264 0.61111 0.2891 0.0
C1311 C 0.73781 0.56062 0.23721 0.0
C1312 C 0.78529 0.6091 0.25701 0.0
C1313 C 0.79655 0.60223 0.27411 0.0
C1314 C 0.76482 0.60262 0.25208 0.0
C1315 C 0.75542 0.58907 0.26476 0.0
C1316 C 0.76749 0.58108 0.28113 0.0
C1317 C 0.78798 0.58794 0.28578 0.0
C1318 C 0.75256 0.61151 0.23443 0.0
C1319 C 0.75821 0.56638 0.29471 0.0
H1320 H 0.68643 0.60941 0.2733 0.0
H1321 H 0.69581 0.56728 0.22938 0.0
H1322 H 0.73706 0.6041 0.30047 0.0
H1323 H 0.73597 0.62189 0.28142 0.0
H1324 H 0.71317 0.61771 0.29746 0.0
H1325 H 0.72833 0.54941 0.23025 0.0
H1326 H 0.74636 0.56787 0.22471 0.0
H1327 H 0.75006 0.55474 0.24792 0.0
H1328 H 0.79194 0.62039 0.24831 0.0
H1329 H 0.79682 0.58283 0.29914 0.0
H1330 H 0.73929 0.61979 0.24056 0.0
H1331 H 0.74539 0.60105 0.2243 0.0
H1332 H 0.76289 0.62054 0.22499 0.0
H1333 H 0.74763 0.57264 0.30618 0.0
H1334 H 0.77099 0.55869 0.30315 0.0
H1335 H 0.74837 0.55673 0.28557 0.0
C1336 C 0.38521 0.28757 0.7931 0.0
C1337 C 0.38402 0.30263 0.77961 0.0
C1338 C 0.38495 0.26972 0.78564 0.0
C1339 C 0.384 0.26682 0.76416 0.0
C1340 C 0.38286 0.28189 0.75046 0.0
C1341 C 0.38252 0.29954 0.75834 0.0
C1342 C 0.3857 0.25395 0.80073 0.0
C1343 C 0.38213 0.2794 0.72743 0.0
C1344 C 0.40378 0.22195 0.7432 0.0
C1345 C 0.38444 0.21332 0.7381 0.0
C1346 C 0.40389 0.23937 0.75181 0.0
C1347 C 0.38417 0.24805 0.75588 0.0
C1348 C 0.36459 0.23911 0.75121 0.0
C1349 C 0.36498 0.22192 0.74211 0.0
C1350 C 0.42508 0.24864 0.75607 0.0
C1351 C 0.34326 0.24772 0.75576 0.0
H1352 H 0.38664 0.28969 0.80952 0.0
H1353 H 0.38097 0.31094 0.74771 0.0
H1354 H 0.37185 0.24478 0.79797 0.0
H1355 H 0.40046 0.24587 0.79848 0.0
H1356 H 0.38544 0.25848 0.81696 0.0
H1357 H 0.38214 0.29257 0.71886 0.0
H1358 H 0.39616 0.27133 0.72261 0.0
H1359 H 0.36752 0.27172 0.72292 0.0
H1360 H 0.4188 0.21523 0.74 0.0
H1361 H 0.35005 0.21508 0.73831 0.0
H1362 H 0.42641 0.25231 0.77253 0.0
H1363 H 0.42601 0.26146 0.74694 0.0
H1364 H 0.43897 0.23996 0.75221 0.0
H1365 H 0.34273 0.25161 0.77217 0.0
H1366 H 0.32957 0.23849 0.75239 0.0
H1367 H 0.34117 0.26034 0.74642 0.0
C1368 C 0.69687 0.90562 0.27593 0.0
C1369 C 0.69855 0.88888 0.28647 0.0
C1370 C 0.71354 0.91189 0.26342 0.0
C1371 C 0.73287 0.90192 0.26291 0.0
C1372 C 0.73568 0.88654 0.27601 0.0
C1373 C 0.71809 0.87956 0.28655 0.0
C1374 C 0.70984 0.92828 0.24964 0.0
C1375 C 0.75678 0.87652 0.27764 0.0
C1376 C 0.76845 0.89012 0.21959 0.0
C1377 C 0.78562 0.90215 0.2225 0.0
C1378 C 0.74946 0.89217 0.23039 0.0
C1379 C 0.74865 0.90503 0.24638 0.0
C1380 C 0.76523 0.91809 0.24838 0.0
C1381 C 0.78309 0.917 0.23557 0.0
C1382 C 0.73112 0.87926 0.22608 0.0
C1383 C 0.76532 0.93239 0.26482 0.0
H1384 H 0.68171 0.91283 0.27586 0.0
H1385 H 0.71943 0.86622 0.29367 0.0
H1386 H 0.72114 0.93926 0.25402 0.0
H1387 H 0.71297 0.92478 0.2334 0.0
H1388 H 0.69322 0.93358 0.25064 0.0
H1389 H 0.7579 0.86819 0.292 0.0
H1390 H 0.75839 0.86726 0.26443 0.0
H1391 H 0.77041 0.88622 0.27741 0.0
H1392 H 0.77023 0.87829 0.21003 0.0
H1393 H 0.79629 0.92645 0.23765 0.0
H1394 H 0.71543 0.88594 0.22853 0.0
H1395 H 0.73231 0.86729 0.23659 0.0
H1396 H 0.73154 0.87425 0.21005 0.0
H1397 H 0.76082 0.94565 0.25765 0.0
H1398 H 0.78169 0.93398 0.27156 0.0
H1399 H 0.75407 0.92938 0.27744 0.0
C1400 C 0.79738 0.14219 0.23603 0.0
C1401 C 0.78259 0.13177 0.22463 0.0
C1402 C 0.79619 0.14315 0.25756 0.0
C1403 C 0.77911 0.13434 0.26773 0.0
C1404 C 0.76418 0.12385 0.25628 0.0
C1405 C 0.76656 0.12226 0.23513 0.0
C1406 C 0.81307 0.1538 0.26916 0.0
C1407 C 0.74484 0.11499 0.26595 0.0
C1408 C 0.77126 0.11813 0.32156 0.0
C1409 C 0.75663 0.13108 0.3284 0.0
C1410 C 0.78194 0.12075 0.30299 0.0
C1411 C 0.7763 0.13578 0.29025 0.0
C1412 C 0.76333 0.14978 0.29805 0.0
C1413 C 0.75411 0.14746 0.31742 0.0
C1414 C 0.79674 0.10607 0.29565 0.0
C1415 C 0.75684 0.16599 0.28495 0.0
H1416 H 0.80983 0.14974 0.22825 0.0
H1417 H 0.75555 0.11351 0.22683 0.0
H1418 H 0.80781 0.16814 0.27033 0.0
H1419 H 0.81584 0.1483 0.28495 0.0
H1420 H 0.82853 0.15379 0.26091 0.0
H1421 H 0.73709 0.10489 0.25567 0.0
H1422 H 0.74894 0.10804 0.28069 0.0
H1423 H 0.7329 0.12574 0.26899 0.0
H1424 H 0.77291 0.10521 0.3296 0.0
H1425 H 0.7428 0.15745 0.3228 0.0
H1426 H 0.81009 0.11204 0.2867 0.0
H1427 H 0.78765 0.09672 0.28545 0.0
H1428 H 0.80352 0.09797 0.30875 0.0
H1429 H 0.77098 0.17203 0.27734 0.0
H1430 H 0.74892 0.17665 0.29408 0.0
H1431 H 0.74548 0.16153 0.27269 0.0
C1432 C 0.92163 0.28931 0.72522 0.0
C1433 C 0.91444 0.27565 0.71195 0.0
C1434 C 0.92583 0.28542 0.74602 0.0
C1435 C 0.9223 0.26758 0.75352 0.0
C1436 C 0.91767 0.25336 0.73963 0.0
C1437 C 0.91381 0.2576 0.71887 0.0
C1438 C 0.93167 0.30075 0.76024 0.0
C1439 C 0.91413 0.23407 0.74704 0.0
C1440 C 0.92774 0.25004 0.8081 0.0
C1441 C 0.9062 0.2503 0.81376 0.0
C1442 C 0.93389 0.25721 0.789 0.0
C1443 C 0.91798 0.26454 0.77555 0.0
C1444 C 0.89657 0.26637 0.78222 0.0
C1445 C 0.89094 0.25912 0.80131 0.0
C1446 C 0.95693 0.25545 0.78263 0.0
C1447 C 0.87913 0.27435 0.76845 0.0
H1448 H 0.92264 0.30323 0.71962 0.0
H1449 H 0.90843 0.24704 0.7085 0.0
H1450 H 0.91693 0.30586 0.76755 0.0
H1451 H 0.94281 0.29605 0.77268 0.0
H1452 H 0.93918 0.31225 0.75176 0.0
H1453 H 0.91372 0.22431 0.73413 0.0
H1454 H 0.92693 0.22987 0.75813 0.0
H1455 H 0.8986 0.23319 0.75511 0.0
H1456 H 0.93943 0.24309 0.8179 0.0
H1457 H 0.87431 0.25925 0.80595 0.0
H1458 H 0.96178 0.26688 0.77242 0.0
H1459 H 0.95889 0.24264 0.77406 0.0
H1460 H 0.96791 0.25493 0.79626 0.0
H1461 H 0.88415 0.28775 0.76218 0.0
H1462 H 0.86382 0.27613 0.77668 0.0
H1463 H 0.87612 0.26524 0.75523 0.0
C1464 C 0.74614 0.35984 0.30263 0.0
C1465 C 0.74285 0.37531 0.31442 0.0
C1466 C 0.73617 0.35801 0.28339 0.0
C1467 C 0.7204 0.37086 0.27694 0.0
C1468 C 0.71554 0.38567 0.28979 0.0
C1469 C 0.72776 0.38828 0.30778 0.0
C1470 C 0.74344 0.34266 0.26992 0.0
C1471 C 0.69792 0.39913 0.28476 0.0
C1472 C 0.71009 0.37832 0.22003 0.0
C1473 C 0.69946 0.36218 0.21498 0.0
C1474 C 0.71682 0.3816 0.24025 0.0
C1475 C 0.71052 0.36941 0.25614 0.0
C1476 C 0.69717 0.35439 0.25134 0.0
C1477 C 0.69297 0.35033 0.2307 0.0
C1478 C 0.73166 0.39753 0.24401 0.0
C1479 C 0.68803 0.34194 0.26763 0.0
H1480 H 0.75767 0.34969 0.30789 0.0
H1481 H 0.72542 0.40048 0.31664 0.0
H1482 H 0.73352 0.33045 0.27302 0.0
H1483 H 0.74214 0.34616 0.25329 0.0
H1484 H 0.76037 0.33891 0.27344 0.0
H1485 H 0.70512 0.41248 0.28072 0.0
H1486 H 0.68716 0.39474 0.27201 0.0
H1487 H 0.68807 0.40129 0.2986 0.0
H1488 H 0.71485 0.38761 0.20783 0.0
H1489 H 0.68523 0.33757 0.22696 0.0
H1490 H 0.7434 0.39476 0.25666 0.0
H1491 H 0.72199 0.40956 0.24805 0.0
H1492 H 0.74074 0.40116 0.22997 0.0
H1493 H 0.69612 0.32853 0.26717 0.0
H1494 H 0.67077 0.33945 0.26423 0.0
H1495 H 0.68956 0.3475 0.28337 0.0
C1496 C 0.60228 0.21688 0.72246 0.0
C1497 C 0.61659 0.22686 0.71036 0.0
C1498 C 0.59848 0.22188 0.74279 0.0
C1499 C 0.60964 0.23692 0.75104 0.0
C1500 C 0.62427 0.2469 0.73885 0.0
C1501 C 0.62742 0.2418 0.71852 0.0
C1502 C 0.58249 0.21125 0.75532 0.0
C1503 C 0.63668 0.2629 0.74726 0.0
C1504 C 0.5938 0.2658 0.7953 0.0
C1505 C 0.60895 0.26022 0.81015 0.0
C1506 C 0.59216 0.25692 0.77647 0.0
C1507 C 0.60638 0.24248 0.77246 0.0
C1508 C 0.62037 0.23579 0.78814 0.0
C1509 C 0.62139 0.24474 0.80697 0.0
C1510 C 0.57669 0.26412 0.76023 0.0
C1511 C 0.63589 0.2205 0.78435 0.0
H1512 H 0.59384 0.20538 0.71588 0.0
H1513 H 0.63857 0.24935 0.70904 0.0
H1514 H 0.59044 0.20546 0.76931 0.0
H1515 H 0.56962 0.22042 0.76053 0.0
H1516 H 0.57505 0.19999 0.74649 0.0
H1517 H 0.64784 0.26884 0.73583 0.0
H1518 H 0.62544 0.27368 0.752 0.0
H1519 H 0.64612 0.25865 0.76111 0.0
H1520 H 0.58402 0.27769 0.79803 0.0
H1521 H 0.63312 0.24051 0.81856 0.0
H1522 H 0.56887 0.2528 0.75183 0.0
H1523 H 0.58559 0.27244 0.74885 0.0
H1524 H 0.56409 0.27277 0.76696 0.0
H1525 H 0.6279 0.20927 0.77596 0.0
H1526 H 0.64297 0.21498 0.79892 0.0
H1527 H 0.64911 0.22564 0.77463 0.0
C1528 C 0.29092 0.74621 0.06848 0.0
C1529 C 0.30478 0.75391 0.08313 0.0
C1530 C 0.27016 0.75303 0.06553 0.0
C1531 C 0.26326 0.76737 0.07804 0.0
C1532 C 0.27825 0.7768 0.09057 0.0
C1533 C 0.29904 0.76994 0.09289 0.0
C1534 C 0.25492 0.74347 0.05103 0.0
C1535 C 0.27157 0.79245 0.10381 0.0
C1536 C 0.20781 0.78721 0.08177 0.0
C1537 C 0.20009 0.77711 0.09847 0.0
C1538 C 0.22776 0.78315 0.0734 0.0
C1539 C 0.24026 0.76913 0.08258 0.0
C1540 C 0.23171 0.75815 0.09859 0.0
C1541 C 0.21152 0.76223 0.10624 0.0
C1542 C 0.23582 0.79468 0.05579 0.0
C1543 C 0.24453 0.74302 0.10884 0.0
H1544 H 0.2957 0.73398 0.06061 0.0
H1545 H 0.30996 0.77593 0.10406 0.0
H1546 H 0.24546 0.73328 0.05976 0.0
H1547 H 0.24352 0.75324 0.04368 0.0
H1548 H 0.2637 0.73624 0.03886 0.0
H1549 H 0.28561 0.79973 0.1105 0.0
H1550 H 0.26171 0.8023 0.09475 0.0
H1551 H 0.26163 0.78723 0.11661 0.0
H1552 H 0.19864 0.79869 0.0758 0.0
H1553 H 0.20527 0.75457 0.1192 0.0
H1554 H 0.24744 0.78723 0.04631 0.0
H1555 H 0.2439 0.80693 0.06199 0.0
H1556 H 0.22229 0.79939 0.04575 0.0
H1557 H 0.24998 0.73323 0.09721 0.0
H1558 H 0.23515 0.73546 0.12055 0.0
H1559 H 0.25903 0.74874 0.1165 0.0
C1560 C 0.3126 0.76465 0.35177 0.0
C1561 C 0.31937 0.77319 0.36977 0.0
C1562 C 0.29294 0.75548 0.35112 0.0
C1563 C 0.28004 0.75522 0.36884 0.0
C1564 C 0.28723 0.76352 0.3872 0.0
C1565 C 0.30694 0.77242 0.38743 0.0
C1566 C 0.28569 0.74656 0.33142 0.0
C1567 C 0.27377 0.7636 0.40632 0.0
C1568 C 0.22005 0.75106 0.36381 0.0
C1569 C 0.21686 0.73313 0.37057 0.0
C1570 C 0.24071 0.75828 0.36256 0.0
C1571 C 0.25846 0.74719 0.36806 0.0
C1572 C 0.2554 0.72895 0.3744 0.0
C1573 C 0.23455 0.72214 0.37571 0.0
C1574 C 0.24352 0.77789 0.35592 0.0
C1575 C 0.27408 0.71682 0.38034 0.0
H1576 H 0.32247 0.76548 0.33821 0.0
H1577 H 0.31247 0.77927 0.40122 0.0
H1578 H 0.28107 0.73222 0.33448 0.0
H1579 H 0.27128 0.75364 0.3251 0.0
H1580 H 0.29833 0.74686 0.31958 0.0
H1581 H 0.28223 0.77002 0.41953 0.0
H1582 H 0.25866 0.77116 0.40316 0.0
H1583 H 0.26933 0.74952 0.4108 0.0
H1584 H 0.20638 0.75943 0.35949 0.0
H1585 H 0.23206 0.70832 0.38115 0.0
H1586 H 0.25464 0.77882 0.3428 0.0
H1587 H 0.25078 0.78574 0.36872 0.0
H1588 H 0.22808 0.78439 0.3513 0.0
H1589 H 0.28619 0.71699 0.36803 0.0
H1590 H 0.26904 0.70254 0.38324 0.0
H1591 H 0.28204 0.722 0.39448 0.0
C1592 C 0.21664 0.78519 0.88781 0.0
C1593 C 0.23066 0.80014 0.88801 0.0
C1594 C 0.22442 0.76744 0.88585 0.0
C1595 C 0.24677 0.76454 0.88461 0.0
C1596 C 0.26104 0.77947 0.8852 0.0
C1597 C 0.2528 0.7971 0.8866 0.0
C1598 C 0.20872 0.75181 0.88493 0.0
C1599 C 0.28503 0.77684 0.88426 0.0
C1600 C 0.26793 0.71758 0.89812 0.0
C1601 C 0.2719 0.71069 0.8786 0.0
C1602 C 0.25989 0.7352 0.90033 0.0
C1603 C 0.25527 0.74588 0.88254 0.0
C1604 C 0.25901 0.73882 0.86276 0.0
C1605 C 0.26758 0.72132 0.86104 0.0
C1606 C 0.25658 0.74246 0.92166 0.0
C1607 C 0.25384 0.74969 0.84345 0.0
H1608 H 0.19955 0.78732 0.88924 0.0
H1609 H 0.26377 0.80853 0.88629 0.0
H1610 H 0.21089 0.74415 0.87052 0.0
H1611 H 0.21182 0.74221 0.89794 0.0
H1612 H 0.19179 0.75643 0.88556 0.0
H1613 H 0.29397 0.78983 0.88589 0.0
H1614 H 0.29046 0.76732 0.89665 0.0
H1615 H 0.28927 0.77069 0.86939 0.0
H1616 H 0.27145 0.70924 0.91163 0.0
H1617 H 0.27058 0.71579 0.84598 0.0
H1618 H 0.2395 0.7461 0.92366 0.0
H1619 H 0.26614 0.75505 0.9238 0.0
H1620 H 0.26129 0.73248 0.93388 0.0
H1621 H 0.2367 0.75373 0.84329 0.0
H1622 H 0.25707 0.74197 0.82927 0.0
H1623 H 0.26348 0.76237 0.84316 0.0
C1624 C 0.25106 0.71817 0.63714 0.0
C1625 C 0.23435 0.71432 0.62323 0.0
C1626 C 0.25891 0.73593 0.63916 0.0
C1627 C 0.25004 0.75002 0.62668 0.0
C1628 C 0.23346 0.7461 0.61228 0.0
C1629 C 0.22564 0.72828 0.61087 0.0
C1630 C 0.27633 0.73968 0.65495 0.0
C1631 C 0.22392 0.76074 0.59845 0.0
C1632 C 0.25502 0.79862 0.64482 0.0
C1633 C 0.27288 0.80466 0.63393 0.0
C1634 C 0.24749 0.78077 0.64271 0.0
C1635 C 0.25782 0.76894 0.62902 0.0
C1636 C 0.27568 0.77514 0.61773 0.0
C1637 C 0.28318 0.79292 0.62052 0.0
C1638 C 0.22868 0.77451 0.65532 0.0
C1639 C 0.28679 0.76302 0.60266 0.0
H1640 H 0.2576 0.70735 0.64683 0.0
H1641 H 0.21279 0.7252 0.60003 0.0
H1642 H 0.29048 0.74579 0.64738 0.0
H1643 H 0.27053 0.74965 0.66624 0.0
H1644 H 0.28153 0.72717 0.66339 0.0
H1645 H 0.21179 0.75526 0.58745 0.0
H1646 H 0.21618 0.77126 0.60786 0.0
H1647 H 0.23676 0.76757 0.5896 0.0
H1648 H 0.24721 0.80778 0.65525 0.0
H1649 H 0.29692 0.79777 0.61203 0.0
H1650 H 0.23337 0.76256 0.66497 0.0
H1651 H 0.21534 0.77014 0.64502 0.0
H1652 H 0.2227 0.78532 0.66551 0.0
H1653 H 0.29347 0.75091 0.6108 0.0
H1654 H 0.30001 0.77014 0.59461 0.0
H1655 H 0.27506 0.75807 0.59099 0.0
C1656 C 0.8467 0.79669 0.24263 0.0
C1657 C 0.86149 0.80309 0.22807 0.0
C1658 C 0.84686 0.77852 0.2497 0.0
C1659 C 0.86273 0.7664 0.24279 0.0
C1660 C 0.87799 0.77274 0.22846 0.0
C1661 C 0.87695 0.79081 0.22102 0.0
C1662 C 0.82994 0.77229 0.26459 0.0
C1663 C 0.89557 0.76046 0.22109 0.0
C1664 C 0.87374 0.72476 0.27705 0.0
C1665 C 0.86331 0.71072 0.26625 0.0
C1666 C 0.87424 0.74272 0.2693 0.0
C1667 C 0.86335 0.74714 0.25062 0.0
C1668 C 0.85262 0.7332 0.2397 0.0
C1669 C 0.85309 0.71521 0.24739 0.0
C1670 C 0.88638 0.75703 0.28122 0.0
C1671 C 0.84033 0.73733 0.21999 0.0
H1672 H 0.835 0.80589 0.24881 0.0
H1673 H 0.88828 0.79518 0.20953 0.0
H1674 H 0.82147 0.76018 0.25848 0.0
H1675 H 0.83756 0.76821 0.27946 0.0
H1676 H 0.81792 0.78304 0.26752 0.0
H1677 H 0.90687 0.76767 0.21077 0.0
H1678 H 0.90475 0.75479 0.23446 0.0
H1679 H 0.88851 0.74881 0.21269 0.0
H1680 H 0.88134 0.72189 0.29182 0.0
H1681 H 0.8454 0.70467 0.23844 0.0
H1682 H 0.87506 0.76731 0.28699 0.0
H1683 H 0.89777 0.76424 0.27101 0.0
H1684 H 0.89549 0.75116 0.29454 0.0
H1685 H 0.828 0.74785 0.22277 0.0
H1686 H 0.83226 0.72511 0.21364 0.0
H1687 H 0.85129 0.74292 0.20824 0.0
C1688 C 0.20951 0.39132 0.74601 0.0
C1689 C 0.20163 0.37727 0.73358 0.0
C1690 C 0.22977 0.3902 0.7558 0.0
C1691 C 0.24402 0.37587 0.75093 0.0
C1692 C 0.23643 0.36194 0.73768 0.0
C1693 C 0.21507 0.36234 0.73021 0.0
C1694 C 0.23553 0.40472 0.77114 0.0
C1695 C 0.25063 0.34672 0.7306 0.0
C1696 C 0.30167 0.39144 0.76179 0.0
C1697 C 0.30976 0.37776 0.77501 0.0
C1698 C 0.28117 0.39012 0.75257 0.0
C1699 C 0.26691 0.37607 0.75882 0.0
C1700 C 0.27462 0.36269 0.77311 0.0
C1701 C 0.29616 0.36319 0.78005 0.0
C1702 C 0.27523 0.40406 0.7362 0.0
C1703 C 0.26041 0.34791 0.78171 0.0
H1704 H 0.19999 0.40344 0.74806 0.0
H1705 H 0.20929 0.35139 0.72057 0.0
H1706 H 0.24928 0.40092 0.78134 0.0
H1707 H 0.2393 0.41755 0.76281 0.0
H1708 H 0.22155 0.4076 0.78096 0.0
H1709 H 0.24694 0.34343 0.71429 0.0
H1710 H 0.26796 0.34998 0.73197 0.0
H1711 H 0.24726 0.3343 0.73986 0.0
H1712 H 0.31133 0.40333 0.7585 0.0
H1713 H 0.30206 0.35257 0.79039 0.0
H1714 H 0.27129 0.4171 0.74361 0.0
H1715 H 0.26152 0.39978 0.72632 0.0
H1716 H 0.28915 0.40677 0.72616 0.0
H1717 H 0.24308 0.35105 0.78001 0.0
H1718 H 0.26412 0.34559 0.79831 0.0
H1719 H 0.26381 0.33499 0.77379 0.0
C1720 C 0.60573 0.77483 0.27783 0.0
C1721 C 0.62556 0.78298 0.2828 0.0
C1722 C 0.60437 0.75665 0.27137 0.0
C1723 C 0.62332 0.7463 0.26918 0.0
C1724 C 0.64339 0.75441 0.27389 0.0
C1725 C 0.64425 0.77246 0.28088 0.0
C1726 C 0.58259 0.74849 0.26688 0.0
C1727 C 0.66405 0.74403 0.27147 0.0
C1728 C 0.6209 0.69433 0.26939 0.0
C1729 C 0.62068 0.69047 0.24831 0.0
C1730 C 0.62134 0.71238 0.27637 0.0
C1731 C 0.62217 0.727 0.26196 0.0
C1732 C 0.62209 0.72314 0.24064 0.0
C1733 C 0.62108 0.70497 0.23409 0.0
C1734 C 0.62084 0.71582 0.29919 0.0
C1735 C 0.62348 0.73821 0.22473 0.0
H1736 H 0.59113 0.7827 0.27874 0.0
H1737 H 0.65968 0.77822 0.285 0.0
H1738 H 0.58137 0.74461 0.25048 0.0
H1739 H 0.58042 0.73591 0.27623 0.0
H1740 H 0.56933 0.75802 0.2702 0.0
H1741 H 0.6784 0.75247 0.27495 0.0
H1742 H 0.66426 0.73196 0.28187 0.0
H1743 H 0.6652 0.73902 0.2555 0.0
H1744 H 0.62044 0.68318 0.28044 0.0
H1745 H 0.62114 0.70206 0.21778 0.0
H1746 H 0.60714 0.7248 0.30274 0.0
H1747 H 0.63568 0.72295 0.30416 0.0
H1748 H 0.61937 0.70304 0.30836 0.0
H1749 H 0.60974 0.74763 0.2262 0.0
H1750 H 0.62351 0.73297 0.20878 0.0
H1751 H 0.63833 0.74624 0.22735 0.0
C1752 C 0.29222 0.12662 0.72862 0.0
C1753 C 0.30813 0.13866 0.7356 0.0
C1754 C 0.27186 0.12602 0.73764 0.0
C1755 C 0.26735 0.13742 0.75444 0.0
C1756 C 0.28359 0.14931 0.76186 0.0
C1757 C 0.30374 0.14982 0.75231 0.0
C1758 C 0.2551 0.11323 0.72907 0.0
C1759 C 0.27967 0.16147 0.77992 0.0
C1760 C 0.20857 0.14753 0.76589 0.0
C1761 C 0.20419 0.13492 0.78162 0.0
C1762 C 0.22901 0.14857 0.75701 0.0
C1763 C 0.24565 0.13685 0.76418 0.0
C1764 C 0.24131 0.1242 0.78025 0.0
C1765 C 0.22062 0.12327 0.78861 0.0
C1766 C 0.23273 0.16206 0.73975 0.0
C1767 C 0.25851 0.11156 0.78855 0.0
H1768 H 0.29572 0.11772 0.71595 0.0
H1769 H 0.31612 0.15896 0.75788 0.0
H1770 H 0.25014 0.10339 0.74116 0.0
H1771 H 0.24061 0.121 0.72418 0.0
H1772 H 0.26098 0.10553 0.7157 0.0
H1773 H 0.29403 0.16965 0.78412 0.0
H1774 H 0.26619 0.17085 0.77627 0.0
H1775 H 0.27497 0.15315 0.79348 0.0
H1776 H 0.19587 0.15651 0.76042 0.0
H1777 H 0.21722 0.11339 0.80064 0.0
H1778 H 0.23758 0.15478 0.72573 0.0
H1779 H 0.24603 0.17139 0.74396 0.0
H1780 H 0.21822 0.17028 0.736 0.0
H1781 H 0.26382 0.10239 0.77623 0.0
H1782 H 0.25289 0.10313 0.8017 0.0
H1783 H 0.27273 0.11951 0.79364 0.0
C1784 C 0.28363 0.8915 0.73005 0.0
C1785 C 0.27524 0.88036 0.71443 0.0
C1786 C 0.27483 0.89162 0.75001 0.0
C1787 C 0.25677 0.8806 0.75471 0.0
C1788 C 0.24802 0.86954 0.73886 0.0
C1789 C 0.25732 0.86954 0.71907 0.0
C1790 C 0.28492 0.90361 0.76615 0.0
C1791 C 0.2287 0.85772 0.74277 0.0
C1792 C 0.24496 0.8687 0.81155 0.0
C1793 C 0.22899 0.88131 0.81652 0.0
C1794 C 0.25406 0.86832 0.7917 0.0
C1795 C 0.24704 0.88075 0.77607 0.0
C1796 C 0.23084 0.89348 0.78104 0.0
C1797 C 0.22221 0.89369 0.80109 0.0
C1798 C 0.27134 0.85461 0.78748 0.0
C1799 C 0.22259 0.90696 0.76513 0.0
H1800 H 0.29715 0.90022 0.7266 0.0
H1801 H 0.25052 0.86105 0.70712 0.0
H1802 H 0.27304 0.91368 0.77141 0.0
H1803 H 0.28987 0.89529 0.77976 0.0
H1804 H 0.29917 0.91104 0.76035 0.0
H1805 H 0.22362 0.85004 0.72893 0.0
H1806 H 0.23231 0.84791 0.75545 0.0
H1807 H 0.2151 0.86624 0.74773 0.0
H1808 H 0.25039 0.8591 0.82329 0.0
H1809 H 0.21008 0.90362 0.80474 0.0
H1810 H 0.28616 0.86172 0.78262 0.0
H1811 H 0.26621 0.84573 0.77465 0.0
H1812 H 0.2752 0.84594 0.80116 0.0
H1813 H 0.23588 0.91586 0.75995 0.0
H1814 H 0.2096 0.91564 0.77111 0.0
H1815 H 0.2164 0.89967 0.75142 0.0
C1816 C 0.10716 0.72621 0.28608 0.0
C1817 C 0.12141 0.73105 0.30207 0.0
C1818 C 0.10744 0.7351 0.26656 0.0
C1819 C 0.12236 0.74932 0.26261 0.0
C1820 C 0.13683 0.7542 0.27876 0.0
C1821 C 0.13613 0.74513 0.29815 0.0
C1822 C 0.09155 0.72934 0.25015 0.0
C1823 C 0.15311 0.76912 0.27559 0.0
C1824 C 0.13554 0.76211 0.20618 0.0
C1825 C 0.12332 0.77791 0.20261 0.0
C1826 C 0.13547 0.7528 0.22547 0.0
C1827 C 0.12267 0.75919 0.24179 0.0
C1828 C 0.11014 0.77508 0.23811 0.0
C1829 C 0.11064 0.78418 0.21873 0.0
C1830 C 0.1492 0.73608 0.22839 0.0
C1831 C 0.09608 0.7825 0.25467 0.0
H1832 H 0.09557 0.71551 0.28893 0.0
H1833 H 0.14716 0.74907 0.31036 0.0
H1834 H 0.08128 0.74105 0.24551 0.0
H1835 H 0.10016 0.72498 0.23627 0.0
H1836 H 0.0811 0.71802 0.25542 0.0
H1837 H 0.16349 0.77116 0.28941 0.0
H1838 H 0.16341 0.76585 0.26239 0.0
H1839 H 0.14481 0.78209 0.27178 0.0
H1840 H 0.14528 0.75707 0.19385 0.0
H1841 H 0.10097 0.79625 0.21611 0.0
H1842 H 0.13901 0.72423 0.2324 0.0
H1843 H 0.16068 0.73807 0.24139 0.0
H1844 H 0.15837 0.73285 0.2144 0.0
H1845 H 0.08432 0.77201 0.2595 0.0
H1846 H 0.0872 0.79486 0.2495 0.0
H1847 H 0.10598 0.7859 0.26843 0.0
C1848 C 0.28108 0.62284 0.78516 0.0
C1849 C 0.27422 0.63517 0.80002 0.0
C1850 C 0.27198 0.62268 0.76504 0.0
C1851 C 0.25537 0.63507 0.75937 0.0
C1852 C 0.24823 0.64741 0.77446 0.0
C1853 C 0.25763 0.64727 0.79449 0.0
C1854 C 0.28021 0.60918 0.74979 0.0
C1855 C 0.23064 0.66087 0.76942 0.0
C1856 C 0.24525 0.64566 0.70161 0.0
C1857 C 0.22738 0.63475 0.69682 0.0
C1858 C 0.25434 0.64599 0.72174 0.0
C1859 C 0.24555 0.63509 0.73775 0.0
C1860 C 0.22749 0.62402 0.73292 0.0
C1861 C 0.21872 0.62397 0.71265 0.0
C1862 C 0.27349 0.65802 0.72587 0.0
C1863 C 0.21747 0.61209 0.74918 0.0
H1864 H 0.29365 0.61326 0.78932 0.0
H1865 H 0.25208 0.65673 0.80587 0.0
H1866 H 0.26689 0.60034 0.7444 0.0
H1867 H 0.28648 0.61646 0.7361 0.0
H1868 H 0.29315 0.60045 0.75645 0.0
H1869 H 0.22678 0.66954 0.78272 0.0
H1870 H 0.23547 0.66977 0.75638 0.0
H1871 H 0.21589 0.65356 0.76449 0.0
H1872 H 0.25212 0.654 0.68953 0.0
H1873 H 0.20506 0.61537 0.70912 0.0
H1874 H 0.28727 0.64965 0.73136 0.0
H1875 H 0.2698 0.66774 0.73823 0.0
H1876 H 0.27836 0.66584 0.71197 0.0
H1877 H 0.22947 0.60221 0.75531 0.0
H1878 H 0.20338 0.60445 0.74317 0.0
H1879 H 0.21231 0.62048 0.76225 0.0
C1880 C 0.3689 0.77394 0.27914 0.0
C1881 C 0.38837 0.77933 0.28849 0.0
C1882 C 0.36819 0.76542 0.25965 0.0
C1883 C 0.38733 0.76264 0.24849 0.0
C1884 C 0.40701 0.76836 0.25776 0.0
C1885 C 0.40733 0.77625 0.27762 0.0
C1886 C 0.34685 0.75913 0.2511 0.0
C1887 C 0.42783 0.76639 0.24653 0.0
C1888 C 0.38951 0.7267 0.20542 0.0
C1889 C 0.38503 0.73689 0.18736 0.0
C1890 C 0.38997 0.73474 0.22518 0.0
C1891 C 0.38674 0.75376 0.22731 0.0
C1892 C 0.38279 0.76421 0.20906 0.0
C1893 C 0.38161 0.75568 0.18957 0.0
C1894 C 0.3936 0.72273 0.24389 0.0
C1895 C 0.3799 0.78452 0.21008 0.0
H1896 H 0.35414 0.77606 0.28734 0.0
H1897 H 0.42247 0.78041 0.28451 0.0
H1898 H 0.34308 0.76648 0.23649 0.0
H1899 H 0.3476 0.74443 0.24755 0.0
H1900 H 0.33357 0.76139 0.26195 0.0
H1901 H 0.44163 0.77226 0.25519 0.0
H1902 H 0.43113 0.75182 0.24381 0.0
H1903 H 0.42659 0.77324 0.23124 0.0
H1904 H 0.39246 0.71225 0.20412 0.0
H1905 H 0.37804 0.76382 0.17592 0.0
H1906 H 0.38029 0.72446 0.25481 0.0
H1907 H 0.40861 0.72677 0.252 0.0
H1908 H 0.39474 0.70813 0.23991 0.0
H1909 H 0.3653 0.78771 0.21883 0.0
H1910 H 0.37842 0.79095 0.19457 0.0
H1911 H 0.39372 0.79072 0.21838 0.0
C1912 C 0.72431 0.28763 0.89193 0.0
C1913 C 0.70579 0.27921 0.88405 0.0
C1914 C 0.74447 0.27899 0.89142 0.0
C1915 C 0.74625 0.2614 0.88288 0.0
C1916 C 0.7275 0.25283 0.87499 0.0
C1917 C 0.70754 0.26181 0.87569 0.0
C1918 C 0.76389 0.28868 0.90005 0.0
C1919 C 0.72851 0.23412 0.8658 0.0
C1920 C 0.80132 0.24511 0.86519 0.0
C1921 C 0.80809 0.23407 0.88178 0.0
C1922 C 0.78133 0.2541 0.86534 0.0
C1923 C 0.76764 0.25192 0.88245 0.0
C1924 C 0.77444 0.24064 0.89917 0.0
C1925 C 0.79448 0.23183 0.89859 0.0
C1926 C 0.77482 0.2659 0.84715 0.0
C1927 C 0.76049 0.23781 0.91769 0.0
H1928 H 0.72297 0.30104 0.89851 0.0
H1929 H 0.69325 0.25527 0.86961 0.0
H1930 H 0.77124 0.28045 0.91273 0.0
H1931 H 0.77614 0.29028 0.88797 0.0
H1932 H 0.75991 0.30233 0.90601 0.0
H1933 H 0.71257 0.22934 0.86023 0.0
H1934 H 0.73973 0.23418 0.85274 0.0
H1935 H 0.7348 0.22424 0.87743 0.0
H1936 H 0.81171 0.24668 0.85208 0.0
H1937 H 0.79954 0.22305 0.91129 0.0
H1938 H 0.77179 0.27998 0.85226 0.0
H1939 H 0.75964 0.26077 0.84023 0.0
H1940 H 0.78724 0.26629 0.8351 0.0
H1941 H 0.75706 0.25108 0.92486 0.0
H1942 H 0.76808 0.22871 0.92946 0.0
H1943 H 0.74488 0.23185 0.91288 0.0
C1944 C 0.79175 0.27839 0.61069 0.0
C1945 C 0.80791 0.27138 0.62378 0.0
C1946 C 0.77121 0.27035 0.60967 0.0
C1947 C 0.7666 0.25479 0.62198 0.0
C1948 C 0.78301 0.24755 0.63507 0.0
C1949 C 0.80339 0.25594 0.63584 0.0
C1950 C 0.75434 0.27862 0.59554 0.0
C1951 C 0.77899 0.231 0.64841 0.0
C1952 C 0.70785 0.24407 0.634 0.0
C1953 C 0.70287 0.23041 0.61984 0.0
C1954 C 0.72844 0.25205 0.6349 0.0
C1955 C 0.7446 0.24625 0.62133 0.0
C1956 C 0.73959 0.2324 0.60702 0.0
C1957 C 0.71883 0.22472 0.60641 0.0
C1958 C 0.73287 0.26679 0.65033 0.0
C1959 C 0.75618 0.22571 0.59228 0.0
H1960 H 0.79519 0.29032 0.60134 0.0
H1961 H 0.81581 0.25052 0.64603 0.0
H1962 H 0.74855 0.26836 0.58439 0.0
H1963 H 0.74033 0.2829 0.60459 0.0
H1964 H 0.76045 0.29061 0.58686 0.0
H1965 H 0.79348 0.22678 0.6574 0.0
H1966 H 0.76591 0.23384 0.65927 0.0
H1967 H 0.77366 0.21948 0.63874 0.0
H1968 H 0.69554 0.24854 0.64437 0.0
H1969 H 0.715 0.21427 0.59534 0.0
H1970 H 0.73778 0.27946 0.64224 0.0
H1971 H 0.74636 0.26269 0.66071 0.0
H1972 H 0.71868 0.26977 0.65981 0.0
H1973 H 0.7616 0.23712 0.58231 0.0
H1974 H 0.74994 0.21467 0.58235 0.0
H1975 H 0.77045 0.22061 0.60096 0.0
C1976 C 0.71057 0.26161 0.12617 0.0
C1977 C 0.72395 0.27589 0.13265 0.0
C1978 C 0.71799 0.24352 0.12588 0.0
C1979 C 0.73933 0.23948 0.13222 0.0
C1980 C 0.75286 0.25378 0.13893 0.0
C1981 C 0.74503 0.27173 0.13909 0.0
C1982 C 0.70301 0.22872 0.11858 0.0
C1983 C 0.77568 0.25014 0.1459 0.0
C1984 C 0.75365 0.19063 0.14798 0.0
C1985 C 0.76352 0.18427 0.13027 0.0
C1986 C 0.74576 0.20854 0.14887 0.0
C1987 C 0.74764 0.22036 0.13156 0.0
C1988 C 0.75754 0.21388 0.11359 0.0
C1989 C 0.76522 0.1959 0.11313 0.0
C1990 C 0.73529 0.2148 0.1683 0.0
C1991 C 0.75989 0.22591 0.09478 0.0
H1992 H 0.69435 0.26461 0.12095 0.0
H1993 H 0.75544 0.28252 0.14449 0.0
H1994 H 0.70969 0.22214 0.10483 0.0
H1995 H 0.7015 0.21805 0.13068 0.0
H1996 H 0.68676 0.23398 0.11458 0.0
H1997 H 0.78413 0.26271 0.15079 0.0
H1998 H 0.77588 0.24028 0.15895 0.0
H1999 H 0.78474 0.24394 0.13324 0.0
H2000 H 0.75204 0.18152 0.16111 0.0
H2001 H 0.77242 0.19083 0.09927 0.0
H2002 H 0.71851 0.219 0.16489 0.0
H2003 H 0.74386 0.22685 0.17441 0.0
H2004 H 0.73517 0.20403 0.18044 0.0
H2005 H 0.74386 0.23043 0.08913 0.0
H2006 H 0.76813 0.2189 0.08211 0.0
H2007 H 0.76915 0.23829 0.09879 0.0
C2008 C 0.77577 0.28032 0.38251 0.0
C2009 C 0.76084 0.29457 0.38363 0.0
C2010 C 0.76923 0.26195 0.38284 0.0
C2011 C 0.74718 0.25752 0.38436 0.0
C2012 C 0.73203 0.27181 0.38567 0.0
C2013 C 0.73901 0.29006 0.38528 0.0
C2014 C 0.78599 0.24724 0.38149 0.0
C2015 C 0.70837 0.26781 0.38724 0.0
C2016 C 0.72801 0.21108 0.3654 0.0
C2017 C 0.72621 0.20097 0.3838 0.0
C2018 C 0.73477 0.22938 0.36538 0.0
C2019 C 0.73992 0.23799 0.38421 0.0
C2020 C 0.73814 0.2279 0.40284 0.0
C2021 C 0.73136 0.20959 0.40242 0.0
C2022 C 0.7365 0.2395 0.34512 0.0
C2023 C 0.74336 0.23647 0.42329 0.0
H2024 H 0.79269 0.2835 0.38155 0.0
H2025 H 0.72723 0.30084 0.38586 0.0
H2026 H 0.78515 0.23807 0.39513 0.0
H2027 H 0.78281 0.23885 0.36771 0.0
H2028 H 0.80249 0.25286 0.38056 0.0
H2029 H 0.69866 0.28037 0.38867 0.0
H2030 H 0.70274 0.26041 0.37341 0.0
H2031 H 0.70539 0.25888 0.40078 0.0
H2032 H 0.72446 0.20458 0.35087 0.0
H2033 H 0.72982 0.20207 0.41676 0.0
H2034 H 0.75322 0.24424 0.34298 0.0
H2035 H 0.72612 0.25173 0.34511 0.0
H2036 H 0.73178 0.23096 0.33182 0.0
H2037 H 0.76017 0.24141 0.42349 0.0
H2038 H 0.74126 0.22683 0.4364 0.0
H2039 H 0.7329 0.24843 0.42557 0.0
C2040 C 0.14437 0.54936 0.63801 0.0
C2041 C 0.16578 0.5541 0.63412 0.0
C2042 C 0.1386 0.53138 0.64308 0.0
C2043 C 0.15455 0.5177 0.64416 0.0
C2044 C 0.17606 0.52227 0.63967 0.0
C2045 C 0.18141 0.54037 0.63481 0.0
C2046 C 0.1155 0.52711 0.64778 0.0
C2047 C 0.19356 0.50811 0.64058 0.0
C2048 C 0.1467 0.476 0.67845 0.0
C2049 C 0.141 0.46263 0.66417 0.0
C2050 C 0.15064 0.49402 0.67218 0.0
C2051 C 0.14903 0.49883 0.65105 0.0
C2052 C 0.14285 0.48548 0.63658 0.0
C2053 C 0.13879 0.46755 0.64333 0.0
C2054 C 0.1569 0.50785 0.68817 0.0
C2055 C 0.14112 0.49001 0.61391 0.0
H2056 H 0.13208 0.55975 0.63719 0.0
H2057 H 0.19803 0.54385 0.63214 0.0
H2058 H 0.10958 0.51593 0.6379 0.0
H2059 H 0.11423 0.52236 0.66399 0.0
H2060 H 0.10486 0.53908 0.64543 0.0
H2061 H 0.2092 0.51358 0.63537 0.0
H2062 H 0.19559 0.50292 0.65659 0.0
H2063 H 0.1891 0.49637 0.63085 0.0
H2064 H 0.14816 0.47233 0.69461 0.0
H2065 H 0.13455 0.45725 0.6322 0.0
H2066 H 0.1459 0.51969 0.68719 0.0
H2067 H 0.17331 0.51297 0.68521 0.0
H2068 H 0.15653 0.50212 0.70405 0.0
H2069 H 0.13011 0.50167 0.61128 0.0
H2070 H 0.13522 0.47833 0.60474 0.0
H2071 H 0.15706 0.49416 0.60813 0.0
C2072 C 0.47395 0.65168 0.12336 0.0
C2073 C 0.45847 0.65548 0.13813 0.0
C2074 C 0.49304 0.64267 0.12884 0.0
C2075 C 0.49665 0.63724 0.14955 0.0
C2076 C 0.48053 0.64001 0.16426 0.0
C2077 C 0.46165 0.64916 0.15839 0.0
C2078 C 0.50984 0.63992 0.11272 0.0
C2079 C 0.48377 0.63432 0.1865 0.0
C2080 C 0.54308 0.60628 0.1651 0.0
C2081 C 0.5579 0.61896 0.17259 0.0
C2082 C 0.52315 0.612 0.15698 0.0
C2083 C 0.51818 0.6308 0.15641 0.0
C2084 C 0.53348 0.64363 0.16341 0.0
C2085 C 0.55309 0.63753 0.17158 0.0
C2086 C 0.50715 0.59796 0.14979 0.0
C2087 C 0.52887 0.66379 0.16295 0.0
H2088 H 0.47138 0.65619 0.10757 0.0
H2089 H 0.44985 0.65214 0.16992 0.0
H2090 H 0.5237 0.649 0.11587 0.0
H2091 H 0.51587 0.62574 0.11329 0.0
H2092 H 0.5036 0.64295 0.09694 0.0
H2093 H 0.46879 0.63544 0.19541 0.0
H2094 H 0.4896 0.6201 0.18761 0.0
H2095 H 0.49617 0.64309 0.19376 0.0
H2096 H 0.54684 0.59192 0.16622 0.0
H2097 H 0.56452 0.64724 0.17774 0.0
H2098 H 0.50108 0.60145 0.1341 0.0
H2099 H 0.49317 0.59785 0.16012 0.0
H2100 H 0.51414 0.58408 0.14966 0.0
H2101 H 0.52393 0.66823 0.1472 0.0
H2102 H 0.54299 0.67198 0.16787 0.0
H2103 H 0.5154 0.66679 0.1733 0.0
C2104 C 0.34455 0.97454 0.63373 0.0
C2105 C 0.34256 0.96297 0.651 0.0
C2106 C 0.35095 0.9928 0.63582 0.0
C2107 C 0.35479 0.99991 0.65567 0.0
C2108 C 0.3533 0.98827 0.6731 0.0
C2109 C 0.34767 0.96995 0.67052 0.0
C2110 C 0.35306 0.00459 0.61678 0.0
C2111 C 0.35684 0.99533 0.69461 0.0
C2112 C 0.38337 0.04485 0.66577 0.0
C2113 C 0.36603 0.05678 0.66825 0.0
C2114 C 0.38003 0.02651 0.66061 0.0
C2115 C 0.35885 0.01974 0.6585 0.0
C2116 C 0.34133 0.03177 0.6604 0.0
C2117 C 0.34514 0.05013 0.66479 0.0
C2118 C 0.39918 0.01428 0.65799 0.0
C2119 C 0.31846 0.0251 0.65864 0.0
H2120 H 0.34054 0.96956 0.61855 0.0
H2121 H 0.34702 0.96116 0.68398 0.0
H2122 H 0.33985 0.01466 0.61606 0.0
H2123 H 0.36837 0.01228 0.61731 0.0
H2124 H 0.35245 0.9965 0.60247 0.0
H2125 H 0.35521 0.9845 0.70655 0.0
H2126 H 0.37305 1.00143 0.69612 0.0
H2127 H 0.34504 0.00621 0.69769 0.0
H2128 H 0.3996 0.04962 0.66846 0.0
H2129 H 0.33157 0.05921 0.66585 0.0
H2130 H 0.39735 0.00627 0.64372 0.0
H2131 H 0.4003 1.00448 0.67107 0.0
H2132 H 0.41442 0.02207 0.65732 0.0
H2133 H 0.31562 0.01868 0.64351 0.0
H2134 H 0.30661 0.03622 0.6604 0.0
H2135 H 0.31551 0.01457 0.67065 0.0
C2136 C 0.02146 0.85714 0.13763 0.0
C2137 C 0.03804 0.85626 0.15245 0.0
C2138 C 0.00156 0.86479 0.14226 0.0
C2139 C 0.99821 0.87175 0.16215 0.0
C2140 C 0.01526 0.87181 0.17678 0.0
C2141 C 0.03497 0.86403 0.17176 0.0
C2142 C 0.98373 0.86443 0.12627 0.0
C2143 C 0.01234 0.87921 0.1981 0.0
C2144 C 0.94772 0.89917 0.17172 0.0
C2145 C 0.93443 0.88576 0.18005 0.0
C2146 C 0.96871 0.89491 0.16588 0.0
C2147 C 0.97627 0.87684 0.16844 0.0
C2148 C 0.96274 0.86333 0.17697 0.0
C2149 C 0.94197 0.86798 0.18268 0.0
C2150 C 0.98273 0.90962 0.1569 0.0
C2151 C 0.97014 0.8439 0.17992 0.0
H2152 H 0.0237 0.85105 0.12273 0.0
H2153 H 0.04788 0.86366 0.18313 0.0
H2154 H 0.97129 0.85453 0.13108 0.0
H2155 H 0.97592 0.87794 0.12489 0.0
H2156 H 0.98958 0.86049 0.11091 0.0
H2157 H 0.02776 0.88016 0.20682 0.0
H2158 H 0.00488 0.89289 0.19726 0.0
H2159 H 0.00135 0.8702 0.20682 0.0
H2160 H 0.94165 0.91289 0.16971 0.0
H2161 H 0.93146 0.85769 0.18909 0.0
H2162 H 0.9874 0.90596 0.14109 0.0
H2163 H 0.99773 0.91088 0.16619 0.0
H2164 H 0.97458 0.92304 0.15628 0.0
H2165 H 0.97462 0.83815 0.1649 0.0
H2166 H 0.95761 0.8351 0.18683 0.0
H2167 H 0.98463 0.84344 0.19004 0.0
C2168 C 0.15278 0.97072 0.88328 0.0
C2169 C 0.16985 0.96206 0.87361 0.0
C2170 C 0.14678 0.9886 0.87779 0.0
C2171 C 0.15792 0.99798 0.86204 0.0
C2172 C 0.17502 0.98921 0.8521 0.0
C2173 C 0.18083 0.97144 0.85807 0.0
C2174 C 0.12865 0.99753 0.88895 0.0
C2175 C 0.18715 0.99858 0.83506 0.0
C2176 C 0.13141 0.03811 0.83402 0.0
C2177 C 0.14198 0.05305 0.8429 0.0
C2178 C 0.13625 0.02017 0.84025 0.0
C2179 C 0.15184 0.01698 0.85596 0.0
C2180 C 0.16219 0.03196 0.86534 0.0
C2181 C 0.15727 0.04975 0.85863 0.0
C2182 C 0.12493 0.0046 0.82975 0.0
C2183 C 0.17881 0.02919 0.88224 0.0
H2184 H 0.14433 0.9636 0.8954 0.0
H2185 H 0.19383 0.96474 0.85032 0.0
H2186 H 0.1345 0.01009 0.89647 0.0
H2187 H 0.1158 1.0016 0.87784 0.0
H2188 H 0.12163 0.98844 0.90085 0.0
H2189 H 0.19984 0.98981 0.82869 0.0
H2190 H 0.1759 1.00258 0.8224 0.0
H2191 H 0.19471 0.01121 0.84086 0.0
H2192 H 0.1193 0.04041 0.82215 0.0
H2193 H 0.16582 0.06106 0.86542 0.0
H2194 H 0.11664 0.99599 0.84128 0.0
H2195 H 0.13683 0.99588 0.82211 0.0
H2196 H 0.11296 0.00935 0.81803 0.0
H2197 H 0.17212 0.02067 0.8948 0.0
H2198 H 0.18447 0.04225 0.88881 0.0
H2199 H 0.19282 0.02185 0.87615 0.0
C2200 C 0.93055 0.65945 0.34407 0.0
C2201 C 0.92472 0.64117 0.34627 0.0
C2202 C 0.95064 0.66556 0.35091 0.0
C2203 C 0.96519 0.65301 0.3601 0.0
C2204 C 0.95887 0.63469 0.36335 0.0
C2205 C 0.93863 0.62893 0.35624 0.0
C2206 C 0.9568 0.68515 0.347 0.0
C2207 C 0.97393 0.62098 0.37321 0.0
C2208 C 0.02364 0.66336 0.35081 0.0
C2209 C 0.02995 0.67154 0.3693 0.0
C2210 C 0.00272 0.65692 0.34786 0.0
C2211 C 0.98775 0.65861 0.36385 0.0
C2212 C 0.99408 0.66658 0.3827 0.0
C2213 C 0.01514 0.67308 0.38516 0.0
C2214 C 0.9965 0.64871 0.32742 0.0
C2215 C 0.97854 0.66845 0.4001 0.0
H2216 H 0.91972 0.66878 0.33611 0.0
H2217 H 0.93401 0.61476 0.35769 0.0
H2218 H 0.96364 0.69125 0.36117 0.0
H2219 H 0.96935 0.68581 0.3351 0.0
H2220 H 0.94293 0.6935 0.34161 0.0
H2221 H 0.96563 0.60806 0.37717 0.0
H2222 H 0.98703 0.61791 0.36245 0.0
H2223 H 0.98143 0.62656 0.38737 0.0
H2224 H 0.035 0.66237 0.33843 0.0
H2225 H 0.02008 0.67925 0.39953 0.0
H2226 H 0.98371 0.65701 0.31985 0.0
H2227 H 0.98993 0.63484 0.32979 0.0
H2228 H 0.01026 0.64789 0.31684 0.0
H2229 H 0.9652 0.67759 0.39529 0.0
H2230 H 0.98632 0.674 0.41417 0.0
H2231 H 0.9714 0.65503 0.40392 0.0
C2232 C 0.36475 0.54951 0.86432 0.0
C2233 C 0.34277 0.55339 0.86445 0.0
C2234 C 0.3721 0.5319 0.85996 0.0
C2235 C 0.35707 0.51782 0.85609 0.0
C2236 C 0.33484 0.52158 0.85718 0.0
C2237 C 0.32797 0.53935 0.86109 0.0
C2238 C 0.39589 0.52858 0.85856 0.0
C2239 C 0.31826 0.50693 0.85359 0.0
C2240 C 0.37012 0.47775 0.82215 0.0
C2241 C 0.374 0.46386 0.83669 0.0
C2242 C 0.36558 0.49555 0.8283 0.0
C2243 C 0.36436 0.49948 0.84953 0.0
C2244 C 0.36875 0.48556 0.86429 0.0
C2245 C 0.37374 0.46794 0.85768 0.0
C2246 C 0.36145 0.51002 0.81204 0.0
C2247 C 0.36722 0.48908 0.88703 0.0
H2248 H 0.37616 0.56043 0.86674 0.0
H2249 H 0.31097 0.54238 0.86126 0.0
H2250 H 0.40067 0.51676 0.86837 0.0
H2251 H 0.39993 0.52523 0.84249 0.0
H2252 H 0.40549 0.54059 0.86331 0.0
H2253 H 0.30176 0.51167 0.8568 0.0
H2254 H 0.31876 0.50247 0.83737 0.0
H2255 H 0.32183 0.49487 0.86349 0.0
H2256 H 0.37044 0.47461 0.80591 0.0
H2257 H 0.37654 0.45715 0.86892 0.0
H2258 H 0.37149 0.52218 0.81515 0.0
H2259 H 0.34444 0.51436 0.81245 0.0
H2260 H 0.36487 0.50517 0.79632 0.0
H2261 H 0.37714 0.501 0.89132 0.0
H2262 H 0.37247 0.47719 0.89654 0.0
H2263 H 0.35038 0.49232 0.89083 0.0
C2264 C 0.46294 0.85127 0.37892 0.0
C2265 C 0.44993 0.84423 0.36319 0.0
C2266 C 0.4836 0.85769 0.37477 0.0
C2267 C 0.49105 0.85743 0.35433 0.0
C2268 C 0.47717 0.85174 0.33817 0.0
C2269 C 0.45672 0.84506 0.34284 0.0
C2270 C 0.49795 0.86346 0.39244 0.0
C2271 C 0.48439 0.85164 0.31612 0.0
C2272 C 0.54343 0.88077 0.34065 0.0
C2273 C 0.55735 0.86588 0.34017 0.0
C2274 C 0.52174 0.87836 0.34552 0.0
C2275 C 0.51408 0.86068 0.35024 0.0
C2276 C 0.52833 0.84572 0.35038 0.0
C2277 C 0.54972 0.84847 0.34501 0.0
C2278 C 0.50689 0.89454 0.34482 0.0
C2279 C 0.52087 0.82668 0.35561 0.0
H2280 H 0.45734 0.85081 0.39462 0.0
H2281 H 0.44637 0.83981 0.33074 0.0
H2282 H 0.5107 0.85313 0.39501 0.0
H2283 H 0.50598 0.87654 0.38881 0.0
H2284 H 0.48897 0.86492 0.40694 0.0
H2285 H 0.47081 0.84935 0.30518 0.0
H2286 H 0.49232 0.86468 0.31207 0.0
H2287 H 0.49631 0.84065 0.31415 0.0
H2288 H 0.54937 0.89415 0.33646 0.0
H2289 H 0.56043 0.83692 0.34408 0.0
H2290 H 0.49793 0.89544 0.35936 0.0
H2291 H 0.49489 0.89285 0.3322 0.0
H2292 H 0.51564 0.90751 0.34225 0.0
H2293 H 0.51262 0.82652 0.37061 0.0
H2294 H 0.53434 0.81682 0.35645 0.0
H2295 H 0.50914 0.82204 0.34379 0.0
C2296 C 0.65293 0.17077 0.52158 0.0
C2297 C 0.63445 0.18012 0.52735 0.0
C2298 C 0.65524 0.16454 0.50153 0.0
C2299 C 0.63884 0.16804 0.48671 0.0
C2300 C 0.62044 0.17797 0.49216 0.0
C2301 C 0.61838 0.18382 0.51251 0.0
C2302 C 0.67513 0.15392 0.49631 0.0
C2303 C 0.60281 0.18213 0.47663 0.0
C2304 C 0.66007 0.16112 0.43349 0.0
C2305 C 0.65472 0.1429 0.43052 0.0
C2306 C 0.65314 0.17022 0.45097 0.0
C2307 C 0.64099 0.16061 0.46578 0.0
C2308 C 0.63412 0.14261 0.46186 0.0
C2309 C 0.64105 0.13395 0.44412 0.0
C2310 C 0.66046 0.18952 0.45443 0.0
C2311 C 0.62132 0.13186 0.47734 0.0
H2312 H 0.66565 0.16826 0.53282 0.0
H2313 H 0.60398 0.19093 0.51689 0.0
H2314 H 0.67056 0.14015 0.491 0.0
H2315 H 0.6837 0.16077 0.48356 0.0
H2316 H 0.68637 0.15242 0.50965 0.0
H2317 H 0.59035 0.19119 0.48292 0.0
H2318 H 0.60959 0.18867 0.4627 0.0
H2319 H 0.59503 0.1693 0.4717 0.0
H2320 H 0.67072 0.16789 0.4228 0.0
H2321 H 0.63711 0.11977 0.44162 0.0
H2322 H 0.6738 0.18955 0.46593 0.0
H2323 H 0.64728 0.19783 0.46063 0.0
H2324 H 0.66623 0.19604 0.44004 0.0
H2325 H 0.63186 0.12809 0.49064 0.0
H2326 H 0.61462 0.11918 0.47068 0.0
H2327 H 0.60797 0.14011 0.48326 0.0
C2328 C 0.82363 0.10115 0.03514 0.0
C2329 C 0.80236 0.10641 0.03833 0.0
C2330 C 0.83343 0.10467 0.01627 0.0
C2331 C 0.82157 0.11357 1.00039 0.0
C2332 C 0.79935 0.1167 1.00271 0.0
C2333 C 0.79 0.11317 0.02178 0.0
C2334 C 0.85708 0.10091 0.01429 0.0
C2335 C 0.78603 0.12579 0.98595 0.0
C2336 C 0.84774 0.15192 0.97114 0.0
C2337 C 0.85021 0.14432 0.95177 0.0
C2338 C 0.83935 0.14166 0.98734 0.0
C2339 C 0.83303 0.12343 0.98389 0.0
C2340 C 0.83635 0.11543 0.96451 0.0
C2341 C 0.84503 0.12605 0.94857 0.0
C2342 C 0.83639 0.15065 0.00788 0.0
C2343 C 0.82975 0.09609 0.96029 0.0
H2344 H 0.83321 0.0959 0.04794 0.0
H2345 H 0.77343 0.11693 0.0242 0.0
H2346 H 0.86084 0.09621 0.99862 0.0
H2347 H 0.86619 0.11365 0.01698 0.0
H2348 H 0.86272 0.09054 0.02571 0.0
H2349 H 0.76858 0.12415 0.98859 0.0
H2350 H 0.78977 0.14055 0.98551 0.0
H2351 H 0.78985 0.12019 0.97069 0.0
H2352 H 0.85187 0.16609 0.97342 0.0
H2353 H 0.8469 0.12034 0.93341 0.0
H2354 H 0.84396 0.14234 0.02037 0.0
H2355 H 0.81904 0.15168 0.0112 0.0
H2356 H 0.84343 0.16452 0.0083 0.0
H2357 H 0.83439 0.08695 0.97332 0.0
H2358 H 0.83698 0.09094 0.946 0.0
H2359 H 0.81205 0.09541 0.95852 0.0
C2360 C 0.84495 0.35163 0.53818 0.0
C2361 C 0.86382 0.34185 0.54222 0.0
C2362 C 0.84011 0.35811 0.51829 0.0
C2363 C 0.85458 0.35477 0.50223 0.0
C2364 C 0.87426 0.34587 0.5065 0.0
C2365 C 0.87862 0.33944 0.5265 0.0
C2366 C 0.81893 0.36755 0.51425 0.0
C2367 C 0.89016 0.34228 0.48978 0.0
C2368 C 0.82828 0.35009 0.44987 0.0
C2369 C 0.83159 0.36739 0.44145 0.0
C2370 C 0.8364 0.34561 0.46945 0.0
C2371 C 0.84802 0.35883 0.4807 0.0
C2372 C 0.85214 0.37613 0.4718 0.0
C2373 C 0.84374 0.38025 0.45217 0.0
C2374 C 0.8317 0.32701 0.47844 0.0
C2375 C 0.86456 0.39048 0.48334 0.0
H2376 H 0.83346 0.35341 0.55032 0.0
H2377 H 0.89338 0.33211 0.52974 0.0
H2378 H 0.82141 0.38047 0.50562 0.0
H2379 H 0.80846 0.35879 0.50459 0.0
H2380 H 0.81042 0.37056 0.52869 0.0
H2381 H 0.90573 0.33719 0.49608 0.0
H2382 H 0.88349 0.33198 0.47912 0.0
H2383 H 0.8931 0.35484 0.48062 0.0
H2384 H 0.81868 0.34033 0.44139 0.0
H2385 H 0.84601 0.39367 0.44545 0.0
H2386 H 0.82141 0.32838 0.49209 0.0
H2387 H 0.8468 0.32034 0.48368 0.0
H2388 H 0.82342 0.31803 0.46723 0.0
H2389 H 0.85512 0.39508 0.49661 0.0
H2390 H 0.86822 0.40249 0.47346 0.0
H2391 H 0.87983 0.38479 0.48958 0.0
C2392 C 0.64308 0.36116 0.97528 0.0
C2393 C 0.6581 0.35688 0.9603 0.0
C2394 C 0.6497 0.36631 0.99501 0.0
C2395 C 0.67188 0.36748 0.9997 0.0
C2396 C 0.68705 0.36519 0.984 0.0
C2397 C 0.67997 0.35978 0.96443 0.0
C2398 C 0.633 0.36869 0.01132 0.0
C2399 C 0.71081 0.36681 0.98834 0.0
C2400 C 0.68497 0.38389 0.05349 0.0
C2401 C 0.68653 0.3673 0.06416 0.0
C2402 C 0.6814 0.38429 0.03212 0.0
C2403 C 0.67899 0.3677 0.02154 0.0
C2404 C 0.68144 0.35093 0.0323 0.0
C2405 C 0.68535 0.35097 0.05351 0.0
C2406 C 0.67935 0.40238 0.02107 0.0
C2407 C 0.67884 0.33292 0.02161 0.0
H2408 H 0.62612 0.35938 0.97193 0.0
H2409 H 0.69167 0.35655 0.95289 0.0
H2410 H 0.63368 0.35694 0.02221 0.0
H2411 H 0.63622 0.38113 0.02031 0.0
H2412 H 0.61652 0.36955 0.00464 0.0
H2413 H 0.72001 0.36847 0.97394 0.0
H2414 H 0.71432 0.37848 0.99848 0.0
H2415 H 0.71655 0.35431 0.99642 0.0
H2416 H 0.68601 0.39648 0.06195 0.0
H2417 H 0.68671 0.33821 0.06199 0.0
H2418 H 0.66227 0.40492 0.01697 0.0
H2419 H 0.68843 0.40235 0.00654 0.0
H2420 H 0.68521 0.41377 0.03072 0.0
H2421 H 0.66222 0.33164 0.01542 0.0
H2422 H 0.68212 0.32117 0.0321 0.0
H2423 H 0.68984 0.33217 0.00842 0.0
C2424 C 0.83899 0.54738 0.35655 0.0
C2425 C 0.84306 0.55199 0.33591 0.0
C2426 C 0.83279 0.52965 0.36238 0.0
C2427 C 0.83094 0.51595 0.34734 0.0
C2428 C 0.83517 0.52042 0.32653 0.0
C2429 C 0.84096 0.53833 0.32107 0.0
C2430 C 0.82821 0.52556 0.3847 0.0
C2431 C 0.83362 0.50625 0.30998 0.0
C2432 C 0.83509 0.46619 0.36442 0.0
C2433 C 0.81362 0.46033 0.36339 0.0
C2434 C 0.8409 0.48417 0.35929 0.0
C2435 C 0.82487 0.49689 0.35334 0.0
C2436 C 0.80312 0.49127 0.35279 0.0
C2437 C 0.79778 0.4731 0.35765 0.0
C2438 C 0.8643 0.48947 0.35995 0.0
C2439 C 0.78546 0.50442 0.34679 0.0
H2440 H 0.84082 0.5576 0.36829 0.0
H2441 H 0.84355 0.54165 0.30502 0.0
H2442 H 0.81178 0.51994 0.38617 0.0
H2443 H 0.83951 0.51509 0.39076 0.0
H2444 H 0.82965 0.53782 0.39443 0.0
H2445 H 0.83783 0.51178 0.29459 0.0
H2446 H 0.84452 0.49474 0.31382 0.0
H2447 H 0.81709 0.50069 0.30914 0.0
H2448 H 0.84751 0.45671 0.36926 0.0
H2449 H 0.78119 0.46884 0.35649 0.0
H2450 H 0.86685 0.50087 0.37071 0.0
H2451 H 0.86928 0.49429 0.3445 0.0
H2452 H 0.87484 0.478 0.36485 0.0
H2453 H 0.78628 0.51657 0.3567 0.0
H2454 H 0.76928 0.49822 0.34809 0.0
H2455 H 0.78759 0.50918 0.33069 0.0
C2456 C 0.47175 0.37555 0.83927 0.0
C2457 C 0.45442 0.36373 0.83587 0.0
C2458 C 0.49194 0.36897 0.84591 0.0
C2459 C 0.49479 0.35014 0.85 0.0
C2460 C 0.47706 0.33823 0.84735 0.0
C2461 C 0.45715 0.34515 0.84023 0.0
C2462 C 0.51032 0.38219 0.84827 0.0
C2463 C 0.47913 0.31816 0.852 0.0
C2464 C 0.55171 0.33087 0.84861 0.0
C2465 C 0.55793 0.33093 0.86945 0.0
C2466 C 0.53125 0.33695 0.84211 0.0
C2467 C 0.51636 0.34296 0.85682 0.0
C2468 C 0.52244 0.34268 0.87795 0.0
C2469 C 0.54321 0.33694 0.88396 0.0
C2470 C 0.52573 0.33732 0.81942 0.0
C2471 C 0.50707 0.34864 0.89422 0.0
H2472 H 0.46953 0.39 0.83654 0.0
H2473 H 0.44367 0.33603 0.83798 0.0
H2474 H 0.51637 0.382 0.86441 0.0
H2475 H 0.52379 0.37805 0.83843 0.0
H2476 H 0.50563 0.39633 0.84403 0.0
H2477 H 0.46368 0.31082 0.84997 0.0
H2478 H 0.49112 0.31205 0.84174 0.0
H2479 H 0.48501 0.31602 0.86805 0.0
H2480 H 0.56309 0.32635 0.83734 0.0
H2481 H 0.54805 0.3373 0.90004 0.0
H2482 H 0.52204 0.35146 0.81437 0.0
H2483 H 0.51118 0.32903 0.81639 0.0
H2484 H 0.53898 0.33209 0.80995 0.0
H2485 H 0.50341 0.36331 0.89215 0.0
H2486 H 0.51364 0.34639 0.91003 0.0
H2487 H 0.4917 0.34113 0.89266 0.0
C2488 C 0.68917 0.0234 0.35974 0.0
C2489 C 0.6742 0.03756 0.36108 0.0
C2490 C 0.68277 0.00569 0.35433 0.0
C2491 C 0.6609 1.00201 0.34974 0.0
C2492 C 0.64574 0.01629 0.35094 0.0
C2493 C 0.65253 0.03381 0.35675 0.0
C2494 C 0.69945 0.99086 0.35367 0.0
C2495 C 0.62235 0.01312 0.34584 0.0
C2496 C 0.64865 0.95954 0.31818 0.0
C2497 C 0.64226 0.94694 0.33336 0.0
C2498 C 0.65429 0.97754 0.3232 0.0
C2499 C 0.6539 0.98318 0.34396 0.0
C2500 C 0.64722 0.97065 0.35931 0.0
C2501 C 0.64129 0.95286 0.35382 0.0
C2502 C 0.66099 0.99048 0.30627 0.0
C2503 C 0.6467 0.97594 0.38166 0.0
H2504 H 0.70591 0.02614 0.36321 0.0
H2505 H 0.6409 0.04471 0.35748 0.0
H2506 H 0.69511 0.97963 0.36438 0.0
H2507 H 0.69995 0.9851 0.338 0.0
H2508 H 0.71573 0.99585 0.3579 0.0
H2509 H 0.61262 0.02568 0.34716 0.0
H2510 H 0.6206 0.00798 0.32993 0.0
H2511 H 0.61572 1.00258 0.35631 0.0
H2512 H 0.6498 0.95523 0.30237 0.0
H2513 H 0.63594 0.94354 0.36571 0.0
H2514 H 0.67799 0.99449 0.30868 0.0
H2515 H 0.65124 1.00307 0.30666 0.0
H2516 H 0.65923 0.9844 0.29078 0.0
H2517 H 0.66296 0.98017 0.38691 0.0
H2518 H 0.64117 0.96465 0.39177 0.0
H2519 H 0.63591 0.98775 0.38358 0.0
C2520 C 0.03729 0.13575 0.83371 0.0
C2521 C 0.05427 0.14819 0.83196 0.0
C2522 C 0.01656 0.14142 0.83913 0.0
C2523 C 0.01284 0.15987 0.84407 0.0
C2524 C 0.03009 0.17242 0.84284 0.0
C2525 C 0.0504 0.16651 0.83644 0.0
C2526 C 0.99863 0.12764 0.83952 0.0
C2527 C 0.02723 0.19203 0.84873 0.0
C2528 C 0.9558 0.17933 0.84366 0.0
C2529 C 0.95001 0.17734 0.86434 0.0
C2530 C 0.97598 0.17348 0.83679 0.0
C2531 C 0.99111 0.16593 0.85103 0.0
C2532 C 0.98534 0.164 0.87195 0.0
C2533 C 0.96472 0.16919 0.87818 0.0
C2534 C 0.98096 0.17511 0.81421 0.0
C2535 C 0.001 0.15652 0.88785 0.0
H2536 H 0.04022 0.12151 0.83073 0.0
H2537 H 0.06347 0.17618 0.83528 0.0
H2538 H 0.99321 0.12549 0.85553 0.0
H2539 H 0.98466 0.13273 0.83037 0.0
H2540 H 0.00359 0.11431 0.83333 0.0
H2541 H 0.04236 0.19994 0.84758 0.0
H2542 H 0.0149 0.19857 0.83863 0.0
H2543 H 0.02144 0.19276 0.86475 0.0
H2544 H 0.94436 0.18525 0.83279 0.0
H2545 H 0.96009 0.16684 0.89399 0.0
H2546 H 0.98532 0.16158 0.80819 0.0
H2547 H 0.99496 0.18418 0.81197 0.0
H2548 H 0.96721 0.18056 0.80498 0.0
H2549 H 0.00449 0.14207 0.88464 0.0
H2550 H 0.99478 0.15741 0.90372 0.0
H2551 H 0.0164 0.16406 0.88711 0.0
C2552 C 0.8043 0.04285 0.14463 0.0
C2553 C 0.80836 0.05805 0.1569 0.0
C2554 C 0.81114 0.02538 0.15082 0.0
C2555 C 0.82318 0.02309 0.16936 0.0
C2556 C 0.82778 0.03849 0.18157 0.0
C2557 C 0.82014 0.05575 0.17529 0.0
C2558 C 0.8055 0.00937 0.13747 0.0
C2559 C 0.84109 0.03679 0.20109 0.0
C2560 C 0.82573 0.97555 0.19364 0.0
C2561 C 0.84469 0.9687 0.18549 0.0
C2562 C 0.81864 0.99327 0.18871 0.0
C2563 C 0.83111 0.00458 0.17572 0.0
C2564 C 0.85068 0.99786 0.16803 0.0
C2565 C 0.85706 0.9799 0.17275 0.0
C2566 C 0.79743 0.99964 0.19681 0.0
C2567 C 0.86475 0.00955 0.15457 0.0
H2568 H 0.79576 0.04465 0.13009 0.0
H2569 H 0.82365 0.06755 0.18459 0.0
H2570 H 0.82033 1.00318 0.13153 0.0
H2571 H 0.79721 0.99878 0.1467 0.0
H2572 H 0.79499 0.01329 0.12418 0.0
H2573 H 0.84352 0.05008 0.2087 0.0
H2574 H 0.83323 0.02733 0.21205 0.0
H2575 H 0.85701 0.03096 0.19761 0.0
H2576 H 0.81606 0.96678 0.20331 0.0
H2577 H 0.87172 0.97457 0.16643 0.0
H2578 H 0.78627 1.00268 0.18374 0.0
H2579 H 0.79964 0.01241 0.20548 0.0
H2580 H 0.78986 0.98936 0.20704 0.0
H2581 H 0.85636 0.01252 0.13974 0.0
H2582 H 0.88028 1.00289 0.15131 0.0
H2583 H 0.86801 0.02276 0.16205 0.0
C2584 C 0.05144 0.36408 0.64788 0.0
C2585 C 0.0598 0.36157 0.6679 0.0
C2586 C 0.03151 0.35666 0.64184 0.0
C2587 C 0.01801 0.34847 0.65677 0.0
C2588 C 0.02581 0.34703 0.67742 0.0
C2589 C 0.04682 0.35277 0.68241 0.0
C2590 C 0.02531 0.35788 0.61931 0.0
C2591 C 0.01218 0.33979 0.69468 0.0
C2592 C 0.95927 0.34804 0.63806 0.0
C2593 C 0.9536 0.32964 0.64003 0.0
C2594 C 0.97954 0.35445 0.64458 0.0
C2595 C 0.99578 0.34192 0.65092 0.0
C2596 C 0.99055 0.32308 0.65151 0.0
C2597 C 0.96939 0.31737 0.64709 0.0
C2598 C 0.98295 0.37478 0.64474 0.0
C2599 C 0.007 0.30861 0.65663 0.0
H2600 H 0.06037 0.37197 0.63675 0.0
H2601 H 0.05283 0.351 0.69806 0.0
H2602 H 0.01248 0.34816 0.61493 0.0
H2603 H 0.01991 0.37191 0.61556 0.0
H2604 H 0.03949 0.35522 0.60968 0.0
H2605 H 0.01526 0.3476 0.70894 0.0
H2606 H 0.99476 0.34038 0.69105 0.0
H2607 H 0.01675 0.32549 0.69811 0.0
H2608 H 0.9476 0.35765 0.63189 0.0
H2609 H 0.96536 0.30308 0.6487 0.0
H2610 H 0.98562 0.37972 0.62879 0.0
H2611 H 0.99667 0.37895 0.65467 0.0
H2612 H 0.96833 0.3817 0.6502 0.0
H2613 H 0.02371 0.31338 0.65462 0.0
H2614 H 0.00438 0.29656 0.64677 0.0
H2615 H 0.00495 0.30397 0.67278 0.0
C2616 C 0.6479 0.44631 0.15373 0.0
C2617 C 0.66836 0.43936 0.15895 0.0
C2618 C 0.64169 0.464 0.15918 0.0
C2619 C 0.65649 0.47555 0.16935 0.0
C2620 C 0.6773 0.46892 0.17422 0.0
C2621 C 0.6828 0.45091 0.16939 0.0
C2622 C 0.61912 0.47026 0.15418 0.0
C2623 C 0.69385 0.48089 0.18452 0.0
C2624 C 0.64607 0.52673 0.16587 0.0
C2625 C 0.63872 0.53072 0.18569 0.0
C2626 C 0.65223 0.50901 0.16051 0.0
C2627 C 0.6502 0.49454 0.17493 0.0
C2628 C 0.64223 0.49825 0.19471 0.0
C2629 C 0.63703 0.51622 0.19996 0.0
C2630 C 0.66121 0.50583 0.13943 0.0
C2631 C 0.63917 0.48319 0.2104 0.0
H2632 H 0.63658 0.43803 0.14523 0.0
H2633 H 0.69846 0.44592 0.17407 0.0
H2634 H 0.61131 0.47502 0.16835 0.0
H2635 H 0.61948 0.48192 0.14322 0.0
H2636 H 0.60912 0.45931 0.14734 0.0
H2637 H 0.70975 0.47417 0.18602 0.0
H2638 H 0.69574 0.49374 0.17558 0.0
H2639 H 0.68847 0.48458 0.20008 0.0
H2640 H 0.64703 0.53742 0.15434 0.0
H2641 H 0.63193 0.51883 0.21547 0.0
H2642 H 0.65065 0.49643 0.13072 0.0
H2643 H 0.6772 0.4993 0.14089 0.0
H2644 H 0.66285 0.51864 0.13035 0.0
H2645 H 0.62922 0.47217 0.20369 0.0
H2646 H 0.63136 0.48805 0.22454 0.0
H2647 H 0.65491 0.47718 0.2148 0.0
C2648 C 0.46694 0.1411 0.66883 0.0
C2649 C 0.45146 0.15367 0.67493 0.0
C2650 C 0.48704 0.14686 0.66152 0.0
C2651 C 0.49177 0.16569 0.65989 0.0
C2652 C 0.476 0.17844 0.66575 0.0
C2653 C 0.45607 0.17227 0.67315 0.0
C2654 C 0.50324 0.13275 0.65549 0.0
C2655 C 0.48015 0.19861 0.66415 0.0
C2656 C 0.55072 0.18044 0.65799 0.0
C2657 C 0.55368 0.18336 0.63687 0.0
C2658 C 0.53071 0.17482 0.66569 0.0
C2659 C 0.51313 0.17201 0.65195 0.0
C2660 C 0.5161 0.17499 0.63057 0.0
C2661 C 0.53632 0.18052 0.6233 0.0
C2662 C 0.52844 0.17174 0.68854 0.0
C2663 C 0.49792 0.17224 0.61532 0.0
H2664 H 0.46325 0.12671 0.66973 0.0
H2665 H 0.44401 0.18202 0.67757 0.0
H2666 H 0.50724 0.13452 0.63903 0.0
H2667 H 0.51831 0.13453 0.66454 0.0
H2668 H 0.49729 0.11866 0.65799 0.0
H2669 H 0.46629 0.20677 0.66926 0.0
H2670 H 0.49442 0.20223 0.67365 0.0
H2671 H 0.48371 0.20244 0.648 0.0
H2672 H 0.56415 0.18253 0.6685 0.0
H2673 H 0.53863 0.18257 0.60694 0.0
H2674 H 0.52377 0.15743 0.69166 0.0
H2675 H 0.51552 0.1805 0.69445 0.0
H2676 H 0.54352 0.1747 0.69721 0.0
H2677 H 0.49239 0.1579 0.61599 0.0
H2678 H 0.50264 0.17554 0.59929 0.0
H2679 H 0.4841 0.18089 0.61934 0.0
C2680 C 0.37662 0.8422 0.48397 0.0
C2681 C 0.36083 0.83861 0.46878 0.0
C2682 C 0.37119 0.84772 0.50409 0.0
C2683 C 0.34936 0.84988 0.50956 0.0
C2684 C 0.33338 0.84644 0.49428 0.0
C2685 C 0.33923 0.84093 0.47432 0.0
C2686 C 0.38892 0.85113 0.51963 0.0
C2687 C 0.30992 0.84861 0.49902 0.0
C2688 C 0.33295 0.84835 0.56675 0.0
C2689 C 0.3303 0.86682 0.57138 0.0
C2690 C 0.33923 0.8427 0.54694 0.0
C2691 C 0.34318 0.85575 0.5311 0.0
C2692 C 0.34083 0.87445 0.53586 0.0
C2693 C 0.3346 0.87971 0.55581 0.0
C2694 C 0.34154 0.82265 0.54293 0.0
C2695 C 0.34481 0.88899 0.5198 0.0
H2696 H 0.39334 0.84036 0.48028 0.0
H2697 H 0.32671 0.83863 0.46292 0.0
H2698 H 0.38788 0.86524 0.52534 0.0
H2699 H 0.38707 0.84187 0.53309 0.0
H2700 H 0.40508 0.84906 0.51312 0.0
H2701 H 0.30558 0.83951 0.51205 0.0
H2702 H 0.30672 0.86275 0.50382 0.0
H2703 H 0.29935 0.84544 0.48562 0.0
H2704 H 0.32995 0.83827 0.57867 0.0
H2705 H 0.33308 0.89402 0.55927 0.0
H2706 H 0.35799 0.81971 0.53769 0.0
H2707 H 0.33027 0.81858 0.53043 0.0
H2708 H 0.33829 0.81419 0.55681 0.0
H2709 H 0.36143 0.88788 0.51411 0.0
H2710 H 0.34245 0.90289 0.52581 0.0
H2711 H 0.33382 0.88704 0.50642 0.0
C2712 C 0.1612 0.83315 0.05728 0.0
C2713 C 0.13941 0.8335 0.06251 0.0
C2714 C 0.16828 0.83901 0.03762 0.0
C2715 C 0.15331 0.84547 0.02247 0.0
C2716 C 0.13128 0.8459 0.02777 0.0
C2717 C 0.1247 0.84019 0.04762 0.0
C2718 C 0.19191 0.83841 0.03313 0.0
C2719 C 0.11453 0.85244 0.0124 0.0
C2720 C 0.17166 0.87647 0.97748 0.0
C2721 C 0.17373 0.86429 0.96112 0.0
C2722 C 0.16549 0.87054 0.99739 0.0
C2723 C 0.1606 0.85193 1.00128 0.0
C2724 C 0.16234 0.83962 0.9847 0.0
C2725 C 0.16895 0.84588 0.96504 0.0
C2726 C 0.16419 0.88429 0.01434 0.0
C2727 C 0.15702 0.81977 0.98768 0.0
H2728 H 0.17278 0.82827 0.06867 0.0
H2729 H 0.10793 0.84106 0.05156 0.0
H2730 H 0.19476 0.82948 0.01983 0.0
H2731 H 0.19767 0.85221 0.02885 0.0
H2732 H 0.20159 0.8333 0.04648 0.0
H2733 H 0.09803 0.8513 0.01844 0.0
H2734 H 0.11761 0.86686 0.00817 0.0
H2735 H 0.11547 0.84444 0.99809 0.0
H2736 H 0.17489 0.89076 0.97468 0.0
H2737 H 0.17032 0.83631 0.95259 0.0
H2738 H 0.17445 0.87993 0.02761 0.0
H2739 H 0.1475 0.88512 0.01987 0.0
H2740 H 0.16934 0.89806 0.00922 0.0
H2741 H 0.16756 0.81373 0.99986 0.0
H2742 H 0.15892 0.8119 0.97335 0.0
H2743 H 0.14025 0.81829 0.99289 0.0
C2744 C 0.17111 0.6377 0.53422 0.0
C2745 C 0.17413 0.65054 0.54984 0.0
C2746 C 0.16498 0.64297 0.51389 0.0
C2747 C 0.16167 0.66162 0.50874 0.0
C2748 C 0.16461 0.67462 0.52455 0.0
C2749 C 0.17069 0.66895 0.54477 0.0
C2750 C 0.16199 0.6285 0.49787 0.0
C2751 C 0.16139 0.69461 0.52011 0.0
C2752 C 0.16437 0.67729 0.45177 0.0
C2753 C 0.14264 0.67897 0.44599 0.0
C2754 C 0.17074 0.67169 0.47193 0.0
C2755 C 0.15508 0.66751 0.48695 0.0
C2756 C 0.13309 0.66903 0.48105 0.0
C2757 C 0.12719 0.67471 0.46081 0.0
C2758 C 0.19432 0.6704 0.47722 0.0
C2759 C 0.1157 0.66469 0.49621 0.0
H2760 H 0.17349 0.62344 0.53796 0.0
H2761 H 0.17287 0.67899 0.55668 0.0
H2762 H 0.14536 0.62897 0.49157 0.0
H2763 H 0.17291 0.6311 0.48485 0.0
H2764 H 0.16516 0.61464 0.50416 0.0
H2765 H 0.16435 0.70306 0.5339 0.0
H2766 H 0.17234 0.69916 0.50778 0.0
H2767 H 0.14476 0.69707 0.51443 0.0
H2768 H 0.17644 0.68055 0.4405 0.0
H2769 H 0.11038 0.67588 0.45653 0.0
H2770 H 0.19833 0.65639 0.48248 0.0
H2771 H 0.1983 0.67964 0.49008 0.0
H2772 H 0.20455 0.674 0.46394 0.0
H2773 H 0.11749 0.65051 0.50198 0.0
H2774 H 0.09938 0.66633 0.48932 0.0
H2775 H 0.11721 0.67373 0.50968 0.0
C2776 C 0.38013 0.67765 0.03015 0.0
C2777 C 0.3649 0.68372 0.04424 0.0
C2778 C 0.37409 0.67176 0.01017 0.0
C2779 C 0.35213 0.67136 0.00394 0.0
C2780 C 0.33667 0.67732 0.01821 0.0
C2781 C 0.3432 0.68351 0.03793 0.0
C2782 C 0.39133 0.66587 0.99568 0.0
C2783 C 0.31308 0.67695 0.01273 0.0
C2784 C 0.33612 0.66995 0.94614 0.0
C2785 C 0.33203 0.65138 0.94291 0.0
C2786 C 0.34276 0.67657 0.96566 0.0
C2787 C 0.34531 0.66446 0.98276 0.0
C2788 C 0.34135 0.64566 0.97951 0.0
C2789 C 0.33517 0.63938 0.95974 0.0
C2790 C 0.34715 0.69661 0.96794 0.0
C2791 C 0.34356 0.6321 0.99702 0.0
H2792 H 0.39688 0.67743 0.03483 0.0
H2793 H 0.33123 0.68806 0.0486 0.0
H2794 H 0.38922 0.6513 0.99198 0.0
H2795 H 0.38997 0.67368 0.981 0.0
H2796 H 0.4077 0.66785 1.00228 0.0
H2797 H 0.303 0.68186 0.02544 0.0
H2798 H 0.3099 0.68554 0.99887 0.0
H2799 H 0.30813 0.66288 0.00893 0.0
H2800 H 0.33412 0.67935 0.93327 0.0
H2801 H 0.33281 0.62495 0.95743 0.0
H2802 H 0.3638 0.6987 0.97372 0.0
H2803 H 0.33625 0.70242 0.97945 0.0
H2804 H 0.345 0.70424 0.9532 0.0
H2805 H 0.36032 0.63199 1.00298 0.0
H2806 H 0.33917 0.6181 0.99231 0.0
H2807 H 0.33317 0.63612 0.00988 0.0
loop_
_geom_bond_atom_site_label_1
_geom_bond_atom_site_label_2
_geom_bond_distance
_geom_bond_site_symmetry_2
_ccdc_geom_bond_type
C0 C1 1.443 . S
C0 N4 1.376 . S
C0 C38 1.389 . S
C1 C0 1.443 . S
C1 C2 1.340 . S
C1 H41 0.951 . S
C2 C1 1.340 . S
C2 C3 1.439 . S
C2 H42 0.950 . S
C3 C2 1.439 . S
C3 N4 1.374 . S
C3 C37 1.395 . S
N4 C0 1.376 . S
N4 C3 1.374 . S
N4 Co5 2.008 . S
Co5 N4 2.008 . S
Co5 N6 1.995 . S
Co5 N11 2.008 . S
Co5 N16 1.995 . S
Co5 N21 2.282 . S
Co5 N27 2.282 . S
N6 Co5 1.995 . S
N6 C7 1.376 . S
N6 C10 1.383 . S
C7 N6 1.376 . S
C7 C8 1.446 . S
C7 C37 1.391 . S
C8 C7 1.446 . S
C8 C9 1.339 . S
C8 H43 0.949 . S
C9 C8 1.339 . S
C9 C10 1.439 . S
C9 H44 0.950 . S
C10 N6 1.383 . S
C10 C9 1.439 . S
C10 C39 1.392 . S
N11 Co5 2.008 . S
N11 C12 1.376 . S
N11 C15 1.374 . S
C12 N11 1.376 . S
C12 C13 1.443 . S
C12 C39 1.389 . S
C13 C12 1.443 . S
C13 C14 1.340 . S
C13 H45 0.951 . S
C14 C13 1.340 . S
C14 C15 1.439 . S
C14 H46 0.950 . S
C15 N11 1.374 . S
C15 C14 1.439 . S
C15 C40 1.395 . S
N16 Co5 1.995 . S
N16 C17 1.376 . S
N16 C20 1.383 . S
C17 N16 1.376 . S
C17 C18 1.446 . S
C17 C40 1.391 . S
C18 C17 1.446 . S
C18 C19 1.339 . S
C18 H47 0.949 . S
C19 C18 1.339 . S
C19 C20 1.439 . S
C19 H48 0.950 . S
C20 N16 1.383 . S
C20 C19 1.439 . S
C20 C38 1.392 . S
N21 Co5 2.282 . S
N21 C24 1.332 . S
N21 C26 1.332 . S
C22 C23 1.386 . S
C22 C25 1.388 . S
C23 C22 1.386 . S
C23 C24 1.382 . S
C23 H49 0.950 . S
C24 N21 1.332 . S
C24 C23 1.382 . S
C24 H35 0.952 . S
C25 C22 1.388 . S
C25 C26 1.382 . S
C25 H50 0.950 . S
C26 N21 1.332 . S
C26 C25 1.382 . S
C26 H36 0.948 . S
N27 Co5 2.282 . S
N27 C31 1.332 . S
N27 C32 1.332 . S
C28 C29 1.388 . S
C28 C32 1.382 . S
C28 H51 0.950 . S
C29 C28 1.388 . S
C29 C30 1.386 . S
C30 C29 1.386 . S
C30 C31 1.382 . S
C30 H52 0.950 . S
C31 N27 1.332 . S
C31 C30 1.382 . S
C31 H33 0.952 . S
C32 N27 1.332 . S
C32 C28 1.382 . S
C32 H34 0.948 . S
H33 C31 0.952 . S
H34 C32 0.948 . S
H35 C24 0.952 . S
H36 C26 0.948 . S
C37 C3 1.395 . S
C37 C7 1.391 . S
C38 C0 1.389 . S
C38 C20 1.392 . S
C39 C10 1.392 . S
C39 C12 1.389 . S
C40 C15 1.395 . S
C40 C17 1.391 . S
H41 C1 0.951 . S
H42 C2 0.950 . S
H43 C8 0.949 . S
H44 C9 0.950 . S
H45 C13 0.951 . S
H46 C14 0.950 . S
H47 C18 0.949 . S
H48 C19 0.950 . S
H49 C23 0.950 . S
H50 C25 0.950 . S
H51 C28 0.950 . S
H52 C30 0.950 . S
C53 C54 1.443 . S
C53 N57 1.376 . S
C53 C91 1.389 . S
C54 C53 1.443 . S
C54 C55 1.340 . S
C54 H94 0.951 . S
C55 C54 1.340 . S
C55 C56 1.439 . S
C55 H95 0.950 . S
C56 C55 1.439 . S
C56 N57 1.374 . S
C56 C90 1.395 . S
N57 C53 1.376 . S
N57 C56 1.374 . S
N57 Co58 2.008 . S
Co58 N57 2.008 . S
Co58 N59 1.995 . S
Co58 N64 2.008 . S
Co58 N69 1.995 . S
Co58 N74 2.282 . S
Co58 N80 2.282 . S
N59 Co58 1.995 . S
N59 C60 1.376 . S
N59 C63 1.383 . S
C60 N59 1.376 . S
C60 C61 1.446 . S
C60 C90 1.391 . S
C61 C60 1.446 . S
C61 C62 1.339 . S
C61 H96 0.949 . S
C62 C61 1.339 . S
C62 C63 1.439 . S
C62 H97 0.950 . S
C63 N59 1.383 . S
C63 C62 1.439 . S
C63 C92 1.392 . S
N64 Co58 2.008 . S
N64 C65 1.376 . S
N64 C68 1.374 . S
C65 N64 1.376 . S
C65 C66 1.443 . S
C65 C92 1.389 . S
C66 C65 1.443 . S
C66 C67 1.340 . S
C66 H98 0.951 . S
C67 C66 1.340 . S
C67 C68 1.439 . S
C67 H99 0.950 . S
C68 N64 1.374 . S
C68 C67 1.439 . S
C68 C93 1.395 . S
N69 Co58 1.995 . S
N69 C70 1.376 . S
N69 C73 1.383 . S
C70 N69 1.376 . S
C70 C71 1.446 . S
C70 C93 1.391 . S
C71 C70 1.446 . S
C71 C72 1.339 . S
C71 H100 0.949 . S
C72 C71 1.339 . S
C72 C73 1.439 . S
C72 H101 0.950 . S
C73 N69 1.383 . S
C73 C72 1.439 . S
C73 C91 1.392 . S
N74 Co58 2.282 . S
N74 C77 1.332 . S
N74 C79 1.332 . S
C75 C76 1.386 . S
C75 C78 1.388 . S
C76 C75 1.386 . S
C76 C77 1.382 . S
C76 H102 0.950 . S
C77 N74 1.332 . S
C77 C76 1.382 . S
C77 H88 0.952 . S
C78 C75 1.388 . S
C78 C79 1.382 . S
C78 H103 0.950 . S
C79 N74 1.332 . S
C79 C78 1.382 . S
C79 H89 0.948 . S
N80 Co58 2.282 . S
N80 C84 1.332 . S
N80 C85 1.332 . S
C81 C82 1.388 . S
C81 C85 1.382 . S
C81 H104 0.950 . S
C82 C81 1.388 . S
C82 C83 1.386 . S
C83 C82 1.386 . S
C83 C84 1.382 . S
C83 H105 0.950 . S
C84 N80 1.332 . S
C84 C83 1.382 . S
C84 H86 0.952 . S
C85 N80 1.332 . S
C85 C81 1.382 . S
C85 H87 0.948 . S
H86 C84 0.952 . S
H87 C85 0.948 . S
H88 C77 0.952 . S
H89 C79 0.948 . S
C90 C56 1.395 . S
C90 C60 1.391 . S
C91 C53 1.389 . S
C91 C73 1.392 . S
C92 C63 1.392 . S
C92 C65 1.389 . S
C93 C68 1.395 . S
C93 C70 1.391 . S
H94 C54 0.951 . S
H95 C55 0.950 . S
H96 C61 0.949 . S
H97 C62 0.950 . S
H98 C66 0.951 . S
H99 C67 0.950 . S
H100 C71 0.949 . S
H101 C72 0.950 . S
H102 C76 0.950 . S
H103 C78 0.950 . S
H104 C81 0.950 . S
H105 C83 0.950 . S
C106 C107 1.443 . S
C106 N110 1.376 . S
C106 C144 1.389 . S
C107 C106 1.443 . S
C107 C108 1.340 . S
C107 H147 0.951 . S
C108 C107 1.340 . S
C108 C109 1.439 . S
C108 H148 0.950 . S
C109 C108 1.439 . S
C109 N110 1.374 . S
C109 C143 1.395 . S
N110 C106 1.376 . S
N110 C109 1.374 . S
N110 Co111 2.008 . S
Co111 N110 2.008 . S
Co111 N112 1.995 . S
Co111 N117 2.008 . S
Co111 N122 1.995 . S
Co111 N127 2.282 . S
Co111 N133 2.282 . S
N112 Co111 1.995 . S
N112 C113 1.376 . S
N112 C116 1.383 . S
C113 N112 1.376 . S
C113 C114 1.446 . S
C113 C143 1.391 . S
C114 C113 1.446 . S
C114 C115 1.339 . S
C114 H149 0.949 . S
C115 C114 1.339 . S
C115 C116 1.439 . S
C115 H150 0.950 . S
C116 N112 1.383 . S
C116 C115 1.439 . S
C116 C145 1.392 . S
N117 Co111 2.008 . S
N117 C118 1.376 . S
N117 C121 1.374 . S
C118 N117 1.376 . S
C118 C119 1.443 . S
C118 C145 1.389 . S
C119 C118 1.443 . S
C119 C120 1.340 . S
C119 H151 0.951 . S
C120 C119 1.340 . S
C120 C121 1.439 . S
C120 H152 0.950 . S
C121 N117 1.374 . S
C121 C120 1.439 . S
C121 C146 1.395 . S
N122 Co111 1.995 . S
N122 C123 1.376 . S
N122 C126 1.383 . S
C123 N122 1.376 . S
C123 C124 1.446 . S
C123 C146 1.391 . S
C124 C123 1.446 . S
C124 C125 1.339 . S
C124 H153 0.949 . S
C125 C124 1.339 . S
C125 C126 1.439 . S
C125 H154 0.950 . S
C126 N122 1.383 . S
C126 C125 1.439 . S
C126 C144 1.392 . S
N127 Co111 2.282 . S
N127 C130 1.332 . S
N127 C132 1.332 . S
C128 C129 1.386 . S
C128 C131 1.388 . S
C129 C128 1.386 . S
C129 C130 1.382 . S
C129 H155 0.950 . S
C130 N127 1.332 . S
C130 C129 1.382 . S
C130 H141 0.952 . S
C131 C128 1.388 . S
C131 C132 1.382 . S
C131 H156 0.950 . S
C132 N127 1.332 . S
C132 C131 1.382 . S
C132 H142 0.948 . S
N133 Co111 2.282 . S
N133 C137 1.332 . S
N133 C138 1.332 . S
C134 C135 1.388 . S
C134 C138 1.382 . S
C134 H157 0.950 . S
C135 C134 1.388 . S
C135 C136 1.386 . S
C136 C135 1.386 . S
C136 C137 1.382 . S
C136 H158 0.950 . S
C137 N133 1.332 . S
C137 C136 1.382 . S
C137 H139 0.952 . S
C138 N133 1.332 . S
C138 C134 1.382 . S
C138 H140 0.948 . S
H139 C137 0.952 . S
H140 C138 0.948 . S
H141 C130 0.952 . S
H142 C132 0.948 . S
C143 C109 1.395 . S
C143 C113 1.391 . S
C144 C106 1.389 . S
C144 C126 1.392 . S
C145 C116 1.392 . S
C145 C118 1.389 . S
C146 C121 1.395 . S
C146 C123 1.391 . S
H147 C107 0.951 . S
H148 C108 0.950 . S
H149 C114 0.949 . S
H150 C115 0.950 . S
H151 C119 0.951 . S
H152 C120 0.950 . S
H153 C124 0.949 . S
H154 C125 0.950 . S
H155 C129 0.950 . S
H156 C131 0.950 . S
H157 C134 0.950 . S
H158 C136 0.950 . S
C159 C160 1.443 . S
C159 N163 1.376 . S
C159 C197 1.389 . S
C160 C159 1.443 . S
C160 C161 1.340 . S
C160 H200 0.951 . S
C161 C160 1.340 . S
C161 C162 1.439 . S
C161 H201 0.950 . S
C162 C161 1.439 . S
C162 N163 1.374 . S
C162 C196 1.395 . S
N163 C159 1.376 . S
N163 C162 1.374 . S
N163 Co164 2.008 . S
Co164 N163 2.008 . S
Co164 N165 1.995 . S
Co164 N170 2.008 . S
Co164 N175 1.995 . S
Co164 N180 2.282 . S
Co164 N186 2.282 . S
N165 Co164 1.995 . S
N165 C166 1.376 . S
N165 C169 1.383 . S
C166 N165 1.376 . S
C166 C167 1.446 . S
C166 C196 1.391 . S
C167 C166 1.446 . S
C167 C168 1.339 . S
C167 H202 0.949 . S
C168 C167 1.339 . S
C168 C169 1.439 . S
C168 H203 0.950 . S
C169 N165 1.383 . S
C169 C168 1.439 . S
C169 C198 1.392 . S
N170 Co164 2.008 . S
N170 C171 1.376 . S
N170 C174 1.374 . S
C171 N170 1.376 . S
C171 C172 1.443 . S
C171 C198 1.389 . S
C172 C171 1.443 . S
C172 C173 1.340 . S
C172 H204 0.951 . S
C173 C172 1.340 . S
C173 C174 1.439 . S
C173 H205 0.950 . S
C174 N170 1.374 . S
C174 C173 1.439 . S
C174 C199 1.395 . S
N175 Co164 1.995 . S
N175 C176 1.376 . S
N175 C179 1.383 . S
C176 N175 1.376 . S
C176 C177 1.446 . S
C176 C199 1.391 . S
C177 C176 1.446 . S
C177 C178 1.339 . S
C177 H206 0.949 . S
C178 C177 1.339 . S
C178 C179 1.439 . S
C178 H207 0.950 . S
C179 N175 1.383 . S
C179 C178 1.439 . S
C179 C197 1.392 . S
N180 Co164 2.282 . S
N180 C183 1.332 . S
N180 C185 1.332 . S
C181 C182 1.386 . S
C181 C184 1.388 . S
C182 C181 1.386 . S
C182 C183 1.382 . S
C182 H208 0.950 . S
C183 N180 1.332 . S
C183 C182 1.382 . S
C183 H194 0.952 . S
C184 C181 1.388 . S
C184 C185 1.382 . S
C184 H209 0.950 . S
C185 N180 1.332 . S
C185 C184 1.382 . S
C185 H195 0.948 . S
N186 Co164 2.282 . S
N186 C190 1.332 . S
N186 C191 1.332 . S
C187 C188 1.388 . S
C187 C191 1.382 . S
C187 H210 0.950 . S
C188 C187 1.388 . S
C188 C189 1.386 . S
C189 C188 1.386 . S
C189 C190 1.382 . S
C189 H211 0.950 . S
C190 N186 1.332 . S
C190 C189 1.382 . S
C190 H192 0.952 . S
C191 N186 1.332 . S
C191 C187 1.382 . S
C191 H193 0.948 . S
H192 C190 0.952 . S
H193 C191 0.948 . S
H194 C183 0.952 . S
H195 C185 0.948 . S
C196 C162 1.395 . S
C196 C166 1.391 . S
C197 C159 1.389 . S
C197 C179 1.392 . S
C198 C169 1.392 . S
C198 C171 1.389 . S
C199 C174 1.395 . S
C199 C176 1.391 . S
H200 C160 0.951 . S
H201 C161 0.950 . S
H202 C167 0.949 . S
H203 C168 0.950 . S
H204 C172 0.951 . S
H205 C173 0.950 . S
H206 C177 0.949 . S
H207 C178 0.950 . S
H208 C182 0.950 . S
H209 C184 0.950 . S
H210 C187 0.950 . S
H211 C189 0.950 . S
C212 C213 1.443 . S
C212 N216 1.376 . S
C212 C250 1.389 . S
C213 C212 1.443 . S
C213 C214 1.340 . S
C213 H253 0.951 . S
C214 C213 1.340 . S
C214 C215 1.439 . S
C214 H254 0.950 . S
C215 C214 1.439 . S
C215 N216 1.374 . S
C215 C249 1.395 . S
N216 C212 1.376 . S
N216 C215 1.374 . S
N216 Co217 2.008 . S
Co217 N216 2.008 . S
Co217 N218 1.995 . S
Co217 N223 2.008 . S
Co217 N228 1.995 . S
Co217 N233 2.282 . S
Co217 N239 2.282 . S
N218 Co217 1.995 . S
N218 C219 1.376 . S
N218 C222 1.383 . S
C219 N218 1.376 . S
C219 C220 1.446 . S
C219 C249 1.391 . S
C220 C219 1.446 . S
C220 C221 1.339 . S
C220 H255 0.949 . S
C221 C220 1.339 . S
C221 C222 1.439 . S
C221 H256 0.950 . S
C222 N218 1.383 . S
C222 C221 1.439 . S
C222 C251 1.392 . S
N223 Co217 2.008 . S
N223 C224 1.376 . S
N223 C227 1.374 . S
C224 N223 1.376 . S
C224 C225 1.443 . S
C224 C251 1.389 . S
C225 C224 1.443 . S
C225 C226 1.340 . S
C225 H257 0.951 . S
C226 C225 1.340 . S
C226 C227 1.439 . S
C226 H258 0.950 . S
C227 N223 1.374 . S
C227 C226 1.439 . S
C227 C252 1.395 . S
N228 Co217 1.995 . S
N228 C229 1.376 . S
N228 C232 1.383 . S
C229 N228 1.376 . S
C229 C230 1.446 . S
C229 C252 1.391 . S
C230 C229 1.446 . S
C230 C231 1.339 . S
C230 H259 0.949 . S
C231 C230 1.339 . S
C231 C232 1.439 . S
C231 H260 0.950 . S
C232 N228 1.383 . S
C232 C231 1.439 . S
C232 C250 1.392 . S
N233 Co217 2.282 . S
N233 C236 1.332 . S
N233 C238 1.332 . S
C234 C235 1.386 . S
C234 C237 1.388 . S
C235 C234 1.386 . S
C235 C236 1.382 . S
C235 H261 0.950 . S
C236 N233 1.332 . S
C236 C235 1.382 . S
C236 H247 0.952 . S
C237 C234 1.388 . S
C237 C238 1.382 . S
C237 H262 0.950 . S
C238 N233 1.332 . S
C238 C237 1.382 . S
C238 H248 0.948 . S
N239 Co217 2.282 . S
N239 C243 1.332 . S
N239 C244 1.332 . S
C240 C241 1.388 . S
C240 C244 1.382 . S
C240 H263 0.950 . S
C241 C240 1.388 . S
C241 C242 1.386 . S
C242 C241 1.386 . S
C242 C243 1.382 . S
C242 H264 0.950 . S
C243 N239 1.332 . S
C243 C242 1.382 . S
C243 H245 0.952 . S
C244 N239 1.332 . S
C244 C240 1.382 . S
C244 H246 0.948 . S
H245 C243 0.952 . S
H246 C244 0.948 . S
H247 C236 0.952 . S
H248 C238 0.948 . S
C249 C215 1.395 . S
C249 C219 1.391 . S
C250 C212 1.389 . S
C250 C232 1.392 . S
C251 C222 1.392 . S
C251 C224 1.389 . S
C252 C227 1.395 . S
C252 C229 1.391 . S
H253 C213 0.951 . S
H254 C214 0.950 . S
H255 C220 0.949 . S
H256 C221 0.950 . S
H257 C225 0.951 . S
H258 C226 0.950 . S
H259 C230 0.949 . S
H260 C231 0.950 . S
H261 C235 0.950 . S
H262 C237 0.950 . S
H263 C240 0.950 . S
H264 C242 0.950 . S
C265 C266 1.443 . S
C265 N269 1.376 . S
C265 C303 1.389 . S
C266 C265 1.443 . S
C266 C267 1.340 . S
C266 H306 0.951 . S
C267 C266 1.340 . S
C267 C268 1.439 . S
C267 H307 0.950 . S
C268 C267 1.439 . S
C268 N269 1.374 . S
C268 C302 1.395 . S
N269 C265 1.376 . S
N269 C268 1.374 . S
N269 Co270 2.008 . S
Co270 N269 2.008 . S
Co270 N271 1.995 . S
Co270 N276 2.008 . S
Co270 N281 1.995 . S
Co270 N286 2.282 . S
Co270 N292 2.282 . S
N271 Co270 1.995 . S
N271 C272 1.376 . S
N271 C275 1.383 . S
C272 N271 1.376 . S
C272 C273 1.446 . S
C272 C302 1.391 . S
C273 C272 1.446 . S
C273 C274 1.339 . S
C273 H308 0.949 . S
C274 C273 1.339 . S
C274 C275 1.439 . S
C274 H309 0.950 . S
C275 N271 1.383 . S
C275 C274 1.439 . S
C275 C304 1.392 . S
N276 Co270 2.008 . S
N276 C277 1.376 . S
N276 C280 1.374 . S
C277 N276 1.376 . S
C277 C278 1.443 . S
C277 C304 1.389 . S
C278 C277 1.443 . S
C278 C279 1.340 . S
C278 H310 0.951 . S
C279 C278 1.340 . S
C279 C280 1.439 . S
C279 H311 0.950 . S
C280 N276 1.374 . S
C280 C279 1.439 . S
C280 C305 1.395 . S
N281 Co270 1.995 . S
N281 C282 1.376 . S
N281 C285 1.383 . S
C282 N281 1.376 . S
C282 C283 1.446 . S
C282 C305 1.391 . S
C283 C282 1.446 . S
C283 C284 1.339 . S
C283 H312 0.949 . S
C284 C283 1.339 . S
C284 C285 1.439 . S
C284 H313 0.950 . S
C285 N281 1.383 . S
C285 C284 1.439 . S
C285 C303 1.392 . S
N286 Co270 2.282 . S
N286 C289 1.332 . S
N286 C291 1.332 . S
C287 C288 1.386 . S
C287 C290 1.388 . S
C288 C287 1.386 . S
C288 C289 1.382 . S
C288 H314 0.950 . S
C289 N286 1.332 . S
C289 C288 1.382 . S
C289 H300 0.952 . S
C290 C287 1.388 . S
C290 C291 1.382 . S
C290 H315 0.950 . S
C291 N286 1.332 . S
C291 C290 1.382 . S
C291 H301 0.948 . S
N292 Co270 2.282 . S
N292 C296 1.332 . S
N292 C297 1.332 . S
C293 C294 1.388 . S
C293 C297 1.382 . S
C293 H316 0.950 . S
C294 C293 1.388 . S
C294 C295 1.386 . S
C295 C294 1.386 . S
C295 C296 1.382 . S
C295 H317 0.950 . S
C296 N292 1.332 . S
C296 C295 1.382 . S
C296 H298 0.952 . S
C297 N292 1.332 . S
C297 C293 1.382 . S
C297 H299 0.948 . S
H298 C296 0.952 . S
H299 C297 0.948 . S
H300 C289 0.952 . S
H301 C291 0.948 . S
C302 C268 1.395 . S
C302 C272 1.391 . S
C303 C265 1.389 . S
C303 C285 1.392 . S
C304 C275 1.392 . S
C304 C277 1.389 . S
C305 C280 1.395 . S
C305 C282 1.391 . S
H306 C266 0.951 . S
H307 C267 0.950 . S
H308 C273 0.949 . S
H309 C274 0.950 . S
H310 C278 0.951 . S
H311 C279 0.950 . S
H312 C283 0.949 . S
H313 C284 0.950 . S
H314 C288 0.950 . S
H315 C290 0.950 . S
H316 C293 0.950 . S
H317 C295 0.950 . S
C318 C319 1.443 . S
C318 N322 1.376 . S
C318 C356 1.389 . S
C319 C318 1.443 . S
C319 C320 1.340 . S
C319 H359 0.951 . S
C320 C319 1.340 . S
C320 C321 1.439 . S
C320 H360 0.950 . S
C321 C320 1.439 . S
C321 N322 1.374 . S
C321 C355 1.395 . S
N322 C318 1.376 . S
N322 C321 1.374 . S
N322 Co323 2.008 . S
Co323 N322 2.008 . S
Co323 N324 1.995 . S
Co323 N329 2.008 . S
Co323 N334 1.995 . S
Co323 N339 2.282 . S
Co323 N345 2.282 . S
N324 Co323 1.995 . S
N324 C325 1.376 . S
N324 C328 1.383 . S
C325 N324 1.376 . S
C325 C326 1.446 . S
C325 C355 1.391 . S
C326 C325 1.446 . S
C326 C327 1.339 . S
C326 H361 0.949 . S
C327 C326 1.339 . S
C327 C328 1.439 . S
C327 H362 0.950 . S
C328 N324 1.383 . S
C328 C327 1.439 . S
C328 C357 1.392 . S
N329 Co323 2.008 . S
N329 C330 1.376 . S
N329 C333 1.374 . S
C330 N329 1.376 . S
C330 C331 1.443 . S
C330 C357 1.389 . S
C331 C330 1.443 . S
C331 C332 1.340 . S
C331 H363 0.951 . S
C332 C331 1.340 . S
C332 C333 1.439 . S
C332 H364 0.950 . S
C333 N329 1.374 . S
C333 C332 1.439 . S
C333 C358 1.395 . S
N334 Co323 1.995 . S
N334 C335 1.376 . S
N334 C338 1.383 . S
C335 N334 1.376 . S
C335 C336 1.446 . S
C335 C358 1.391 . S
C336 C335 1.446 . S
C336 C337 1.339 . S
C336 H365 0.949 . S
C337 C336 1.339 . S
C337 C338 1.439 . S
C337 H366 0.950 . S
C338 N334 1.383 . S
C338 C337 1.439 . S
C338 C356 1.392 . S
N339 Co323 2.282 . S
N339 C342 1.332 . S
N339 C344 1.332 . S
C340 C341 1.386 . S
C340 C343 1.388 . S
C341 C340 1.386 . S
C341 C342 1.382 . S
C341 H367 0.950 . S
C342 N339 1.332 . S
C342 C341 1.382 . S
C342 H353 0.952 . S
C343 C340 1.388 . S
C343 C344 1.382 . S
C343 H368 0.950 . S
C344 N339 1.332 . S
C344 C343 1.382 . S
C344 H354 0.948 . S
N345 Co323 2.282 . S
N345 C349 1.332 . S
N345 C350 1.332 . S
C346 C347 1.388 . S
C346 C350 1.382 . S
C346 H369 0.950 . S
C347 C346 1.388 . S
C347 C348 1.386 . S
C348 C347 1.386 . S
C348 C349 1.382 . S
C348 H370 0.950 . S
C349 N345 1.332 . S
C349 C348 1.382 . S
C349 H351 0.952 . S
C350 N345 1.332 . S
C350 C346 1.382 . S
C350 H352 0.948 . S
H351 C349 0.952 . S
H352 C350 0.948 . S
H353 C342 0.952 . S
H354 C344 0.948 . S
C355 C321 1.395 . S
C355 C325 1.391 . S
C356 C318 1.389 . S
C356 C338 1.392 . S
C357 C328 1.392 . S
C357 C330 1.389 . S
C358 C333 1.395 . S
C358 C335 1.391 . S
H359 C319 0.951 . S
H360 C320 0.950 . S
H361 C326 0.949 . S
H362 C327 0.950 . S
H363 C331 0.951 . S
H364 C332 0.950 . S
H365 C336 0.949 . S
H366 C337 0.950 . S
H367 C341 0.950 . S
H368 C343 0.950 . S
H369 C346 0.950 . S
H370 C348 0.950 . S
C371 C372 1.443 . S
C371 N375 1.376 . S
C371 C409 1.389 . S
C372 C371 1.443 . S
C372 C373 1.340 . S
C372 H412 0.951 . S
C373 C372 1.340 . S
C373 C374 1.439 . S
C373 H413 0.950 . S
C374 C373 1.439 . S
C374 N375 1.374 . S
C374 C408 1.395 . S
N375 C371 1.376 . S
N375 C374 1.374 . S
N375 Co376 2.008 . S
Co376 N375 2.008 . S
Co376 N377 1.995 . S
Co376 N382 2.008 . S
Co376 N387 1.995 . S
Co376 N392 2.282 . S
Co376 N398 2.282 . S
N377 Co376 1.995 . S
N377 C378 1.376 . S
N377 C381 1.383 . S
C378 N377 1.376 . S
C378 C379 1.446 . S
C378 C408 1.391 . S
C379 C378 1.446 . S
C379 C380 1.339 . S
C379 H414 0.949 . S
C380 C379 1.339 . S
C380 C381 1.439 . S
C380 H415 0.950 . S
C381 N377 1.383 . S
C381 C380 1.439 . S
C381 C410 1.392 . S
N382 Co376 2.008 . S
N382 C383 1.376 . S
N382 C386 1.374 . S
C383 N382 1.376 . S
C383 C384 1.443 . S
C383 C410 1.389 . S
C384 C383 1.443 . S
C384 C385 1.340 . S
C384 H416 0.951 . S
C385 C384 1.340 . S
C385 C386 1.439 . S
C385 H417 0.950 . S
C386 N382 1.374 . S
C386 C385 1.439 . S
C386 C411 1.395 . S
N387 Co376 1.995 . S
N387 C388 1.376 . S
N387 C391 1.383 . S
C388 N387 1.376 . S
C388 C389 1.446 . S
C388 C411 1.391 . S
C389 C388 1.446 . S
C389 C390 1.339 . S
C389 H418 0.949 . S
C390 C389 1.339 . S
C390 C391 1.439 . S
C390 H419 0.950 . S
C391 N387 1.383 . S
C391 C390 1.439 . S
C391 C409 1.392 . S
N392 Co376 2.282 . S
N392 C395 1.332 . S
N392 C397 1.332 . S
C393 C394 1.386 . S
C393 C396 1.388 . S
C394 C393 1.386 . S
C394 C395 1.382 . S
C394 H420 0.950 . S
C395 N392 1.332 . S
C395 C394 1.382 . S
C395 H406 0.952 . S
C396 C393 1.388 . S
C396 C397 1.382 . S
C396 H421 0.950 . S
C397 N392 1.332 . S
C397 C396 1.382 . S
C397 H407 0.948 . S
N398 Co376 2.282 . S
N398 C402 1.332 . S
N398 C403 1.332 . S
C399 C400 1.388 . S
C399 C403 1.382 . S
C399 H422 0.950 . S
C400 C399 1.388 . S
C400 C401 1.386 . S
C401 C400 1.386 . S
C401 C402 1.382 . S
C401 H423 0.950 . S
C402 N398 1.332 . S
C402 C401 1.382 . S
C402 H404 0.952 . S
C403 N398 1.332 . S
C403 C399 1.382 . S
C403 H405 0.948 . S
H404 C402 0.952 . S
H405 C403 0.948 . S
H406 C395 0.952 . S
H407 C397 0.948 . S
C408 C374 1.395 . S
C408 C378 1.391 . S
C409 C371 1.389 . S
C409 C391 1.392 . S
C410 C381 1.392 . S
C410 C383 1.389 . S
C411 C386 1.395 . S
C411 C388 1.391 . S
H412 C372 0.951 . S
H413 C373 0.950 . S
H414 C379 0.949 . S
H415 C380 0.950 . S
H416 C384 0.951 . S
H417 C385 0.950 . S
H418 C389 0.949 . S
H419 C390 0.950 . S
H420 C394 0.950 . S
H421 C396 0.950 . S
H422 C399 0.950 . S
H423 C401 0.950 . S
C424 C425 1.443 . S
C424 N428 1.376 . S
C424 C462 1.389 . S
C425 C424 1.443 . S
C425 C426 1.340 . S
C425 H465 0.951 . S
C426 C425 1.340 . S
C426 C427 1.439 . S
C426 H466 0.950 . S
C427 C426 1.439 . S
C427 N428 1.374 . S
C427 C461 1.395 . S
N428 C424 1.376 . S
N428 C427 1.374 . S
N428 Co429 2.008 . S
Co429 N428 2.008 . S
Co429 N430 1.995 . S
Co429 N435 2.008 . S
Co429 N440 1.995 . S
Co429 N445 2.282 . S
Co429 N451 2.282 . S
N430 Co429 1.995 . S
N430 C431 1.376 . S
N430 C434 1.383 . S
C431 N430 1.376 . S
C431 C432 1.446 . S
C431 C461 1.391 . S
C432 C431 1.446 . S
C432 C433 1.339 . S
C432 H467 0.949 . S
C433 C432 1.339 . S
C433 C434 1.439 . S
C433 H468 0.950 . S
C434 N430 1.383 . S
C434 C433 1.439 . S
C434 C463 1.392 . S
N435 Co429 2.008 . S
N435 C436 1.376 . S
N435 C439 1.374 . S
C436 N435 1.376 . S
C436 C437 1.443 . S
C436 C463 1.389 . S
C437 C436 1.443 . S
C437 C438 1.340 . S
C437 H469 0.951 . S
C438 C437 1.340 . S
C438 C439 1.439 . S
C438 H470 0.950 . S
C439 N435 1.374 . S
C439 C438 1.439 . S
C439 C464 1.395 . S
N440 Co429 1.995 . S
N440 C441 1.376 . S
N440 C444 1.383 . S
C441 N440 1.376 . S
C441 C442 1.446 . S
C441 C464 1.391 . S
C442 C441 1.446 . S
C442 C443 1.339 . S
C442 H471 0.949 . S
C443 C442 1.339 . S
C443 C444 1.439 . S
C443 H472 0.950 . S
C444 N440 1.383 . S
C444 C443 1.439 . S
C444 C462 1.392 . S
N445 Co429 2.282 . S
N445 C448 1.332 . S
N445 C450 1.332 . S
C446 C447 1.386 . S
C446 C449 1.388 . S
C447 C446 1.386 . S
C447 C448 1.382 . S
C447 H473 0.950 . S
C448 N445 1.332 . S
C448 C447 1.382 . S
C448 H459 0.952 . S
C449 C446 1.388 . S
C449 C450 1.382 . S
C449 H474 0.950 . S
C450 N445 1.332 . S
C450 C449 1.382 . S
C450 H460 0.948 . S
N451 Co429 2.282 . S
N451 C455 1.332 . S
N451 C456 1.332 . S
C452 C453 1.388 . S
C452 C456 1.382 . S
C452 H475 0.950 . S
C453 C452 1.388 . S
C453 C454 1.386 . S
C454 C453 1.386 . S
C454 C455 1.382 . S
C454 H476 0.950 . S
C455 N451 1.332 . S
C455 C454 1.382 . S
C455 H457 0.952 . S
C456 N451 1.332 . S
C456 C452 1.382 . S
C456 H458 0.948 . S
H457 C455 0.952 . S
H458 C456 0.948 . S
H459 C448 0.952 . S
H460 C450 0.948 . S
C461 C427 1.395 . S
C461 C431 1.391 . S
C462 C424 1.389 . S
C462 C444 1.392 . S
C463 C434 1.392 . S
C463 C436 1.389 . S
C464 C439 1.395 . S
C464 C441 1.391 . S
H465 C425 0.951 . S
H466 C426 0.950 . S
H467 C432 0.949 . S
H468 C433 0.950 . S
H469 C437 0.951 . S
H470 C438 0.950 . S
H471 C442 0.949 . S
H472 C443 0.950 . S
H473 C447 0.950 . S
H474 C449 0.950 . S
H475 C452 0.950 . S
H476 C454 0.950 . S
C477 C478 1.443 . S
C477 N481 1.376 . S
C477 C515 1.389 . S
C478 C477 1.443 . S
C478 C479 1.340 . S
C478 H518 0.951 . S
C479 C478 1.340 . S
C479 C480 1.439 . S
C479 H519 0.950 . S
C480 C479 1.439 . S
C480 N481 1.374 . S
C480 C514 1.395 . S
N481 C477 1.376 . S
N481 C480 1.374 . S
N481 Co482 2.008 . S
Co482 N481 2.008 . S
Co482 N483 1.995 . S
Co482 N488 2.008 . S
Co482 N493 1.995 . S
Co482 N498 2.282 . S
Co482 N504 2.282 . S
N483 Co482 1.995 . S
N483 C484 1.376 . S
N483 C487 1.383 . S
C484 N483 1.376 . S
C484 C485 1.446 . S
C484 C514 1.391 . S
C485 C484 1.446 . S
C485 C486 1.339 . S
C485 H520 0.949 . S
C486 C485 1.339 . S
C486 C487 1.439 . S
C486 H521 0.950 . S
C487 N483 1.383 . S
C487 C486 1.439 . S
C487 C516 1.392 . S
N488 Co482 2.008 . S
N488 C489 1.376 . S
N488 C492 1.374 . S
C489 N488 1.376 . S
C489 C490 1.443 . S
C489 C516 1.389 . S
C490 C489 1.443 . S
C490 C491 1.340 . S
C490 H522 0.951 . S
C491 C490 1.340 . S
C491 C492 1.439 . S
C491 H523 0.950 . S
C492 N488 1.374 . S
C492 C491 1.439 . S
C492 C517 1.395 . S
N493 Co482 1.995 . S
N493 C494 1.376 . S
N493 C497 1.383 . S
C494 N493 1.376 . S
C494 C495 1.446 . S
C494 C517 1.391 . S
C495 C494 1.446 . S
C495 C496 1.339 . S
C495 H524 0.949 . S
C496 C495 1.339 . S
C496 C497 1.439 . S
C496 H525 0.950 . S
C497 N493 1.383 . S
C497 C496 1.439 . S
C497 C515 1.392 . S
N498 Co482 2.282 . S
N498 C501 1.332 . S
N498 C503 1.332 . S
C499 C500 1.386 . S
C499 C502 1.388 . S
C500 C499 1.386 . S
C500 C501 1.382 . S
C500 H526 0.950 . S
C501 N498 1.332 . S
C501 C500 1.382 . S
C501 H512 0.952 . S
C502 C499 1.388 . S
C502 C503 1.382 . S
C502 H527 0.950 . S
C503 N498 1.332 . S
C503 C502 1.382 . S
C503 H513 0.948 . S
N504 Co482 2.282 . S
N504 C508 1.332 . S
N504 C509 1.332 . S
C505 C506 1.388 . S
C505 C509 1.382 . S
C505 H528 0.950 . S
C506 C505 1.388 . S
C506 C507 1.386 . S
C507 C506 1.386 . S
C507 C508 1.382 . S
C507 H529 0.950 . S
C508 N504 1.332 . S
C508 C507 1.382 . S
C508 H510 0.952 . S
C509 N504 1.332 . S
C509 C505 1.382 . S
C509 H511 0.948 . S
H510 C508 0.952 . S
H511 C509 0.948 . S
H512 C501 0.952 . S
H513 C503 0.948 . S
C514 C480 1.395 . S
C514 C484 1.391 . S
C515 C477 1.389 . S
C515 C497 1.392 . S
C516 C487 1.392 . S
C516 C489 1.389 . S
C517 C492 1.395 . S
C517 C494 1.391 . S
H518 C478 0.951 . S
H519 C479 0.950 . S
H520 C485 0.949 . S
H521 C486 0.950 . S
H522 C490 0.951 . S
H523 C491 0.950 . S
H524 C495 0.949 . S
H525 C496 0.950 . S
H526 C500 0.950 . S
H527 C502 0.950 . S
H528 C505 0.950 . S
H529 C507 0.950 . S
C530 C531 1.443 . S
C530 N534 1.376 . S
C530 C568 1.389 . S
C531 C530 1.443 . S
C531 C532 1.340 . S
C531 H571 0.951 . S
C532 C531 1.340 . S
C532 C533 1.439 . S
C532 H572 0.950 . S
C533 C532 1.439 . S
C533 N534 1.374 . S
C533 C567 1.395 . S
N534 C530 1.376 . S
N534 C533 1.374 . S
N534 Co535 2.008 . S
Co535 N534 2.008 . S
Co535 N536 1.995 . S
Co535 N541 2.008 . S
Co535 N546 1.995 . S
Co535 N551 2.282 . S
Co535 N557 2.282 . S
N536 Co535 1.995 . S
N536 C537 1.376 . S
N536 C540 1.383 . S
C537 N536 1.376 . S
C537 C538 1.446 . S
C537 C567 1.391 . S
C538 C537 1.446 . S
C538 C539 1.339 . S
C538 H573 0.949 . S
C539 C538 1.339 . S
C539 C540 1.439 . S
C539 H574 0.950 . S
C540 N536 1.383 . S
C540 C539 1.439 . S
C540 C569 1.392 . S
N541 Co535 2.008 . S
N541 C542 1.376 . S
N541 C545 1.374 . S
C542 N541 1.376 . S
C542 C543 1.443 . S
C542 C569 1.389 . S
C543 C542 1.443 . S
C543 C544 1.340 . S
C543 H575 0.951 . S
C544 C543 1.340 . S
C544 C545 1.439 . S
C544 H576 0.950 . S
C545 N541 1.374 . S
C545 C544 1.439 . S
C545 C570 1.395 . S
N546 Co535 1.995 . S
N546 C547 1.376 . S
N546 C550 1.383 . S
C547 N546 1.376 . S
C547 C548 1.446 . S
C547 C570 1.391 . S
C548 C547 1.446 . S
C548 C549 1.339 . S
C548 H577 0.949 . S
C549 C548 1.339 . S
C549 C550 1.439 . S
C549 H578 0.950 . S
C550 N546 1.383 . S
C550 C549 1.439 . S
C550 C568 1.392 . S
N551 Co535 2.282 . S
N551 C554 1.332 . S
N551 C556 1.332 . S
C552 C553 1.386 . S
C552 C555 1.388 . S
C553 C552 1.386 . S
C553 C554 1.382 . S
C553 H579 0.950 . S
C554 N551 1.332 . S
C554 C553 1.382 . S
C554 H565 0.952 . S
C555 C552 1.388 . S
C555 C556 1.382 . S
C555 H580 0.950 . S
C556 N551 1.332 . S
C556 C555 1.382 . S
C556 H566 0.948 . S
N557 Co535 2.282 . S
N557 C561 1.332 . S
N557 C562 1.332 . S
C558 C559 1.388 . S
C558 C562 1.382 . S
C558 H581 0.950 . S
C559 C558 1.388 . S
C559 C560 1.386 . S
C560 C559 1.386 . S
C560 C561 1.382 . S
C560 H582 0.950 . S
C561 N557 1.332 . S
C561 C560 1.382 . S
C561 H563 0.952 . S
C562 N557 1.332 . S
C562 C558 1.382 . S
C562 H564 0.948 . S
H563 C561 0.952 . S
H564 C562 0.948 . S
H565 C554 0.952 . S
H566 C556 0.948 . S
C567 C533 1.395 . S
C567 C537 1.391 . S
C568 C530 1.389 . S
C568 C550 1.392 . S
C569 C540 1.392 . S
C569 C542 1.389 . S
C570 C545 1.395 . S
C570 C547 1.391 . S
H571 C531 0.951 . S
H572 C532 0.950 . S
H573 C538 0.949 . S
H574 C539 0.950 . S
H575 C543 0.951 . S
H576 C544 0.950 . S
H577 C548 0.949 . S
H578 C549 0.950 . S
H579 C553 0.950 . S
H580 C555 0.950 . S
H581 C558 0.950 . S
H582 C560 0.950 . S
C583 C584 1.443 . S
C583 N587 1.376 . S
C583 C621 1.389 . S
C584 C583 1.443 . S
C584 C585 1.340 . S
C584 H624 0.951 . S
C585 C584 1.340 . S
C585 C586 1.439 . S
C585 H625 0.950 . S
C586 C585 1.439 . S
C586 N587 1.374 . S
C586 C620 1.395 . S
N587 C583 1.376 . S
N587 C586 1.374 . S
N587 Co588 2.008 . S
Co588 N587 2.008 . S
Co588 N589 1.995 . S
Co588 N594 2.008 . S
Co588 N599 1.995 . S
Co588 N604 2.282 . S
Co588 N610 2.282 . S
N589 Co588 1.995 . S
N589 C590 1.376 . S
N589 C593 1.383 . S
C590 N589 1.376 . S
C590 C591 1.446 . S
C590 C620 1.391 . S
C591 C590 1.446 . S
C591 C592 1.339 . S
C591 H626 0.949 . S
C592 C591 1.339 . S
C592 C593 1.439 . S
C592 H627 0.950 . S
C593 N589 1.383 . S
C593 C592 1.439 . S
C593 C622 1.392 . S
N594 Co588 2.008 . S
N594 C595 1.376 . S
N594 C598 1.374 . S
C595 N594 1.376 . S
C595 C596 1.443 . S
C595 C622 1.389 . S
C596 C595 1.443 . S
C596 C597 1.340 . S
C596 H628 0.951 . S
C597 C596 1.340 . S
C597 C598 1.439 . S
C597 H629 0.950 . S
C598 N594 1.374 . S
C598 C597 1.439 . S
C598 C623 1.395 . S
N599 Co588 1.995 . S
N599 C600 1.376 . S
N599 C603 1.383 . S
C600 N599 1.376 . S
C600 C601 1.446 . S
C600 C623 1.391 . S
C601 C600 1.446 . S
C601 C602 1.339 . S
C601 H630 0.949 . S
C602 C601 1.339 . S
C602 C603 1.439 . S
C602 H631 0.950 . S
C603 N599 1.383 . S
C603 C602 1.439 . S
C603 C621 1.392 . S
N604 Co588 2.282 . S
N604 C607 1.332 . S
N604 C609 1.332 . S
C605 C606 1.386 . S
C605 C608 1.388 . S
C606 C605 1.386 . S
C606 C607 1.382 . S
C606 H632 0.950 . S
C607 N604 1.332 . S
C607 C606 1.382 . S
C607 H618 0.952 . S
C608 C605 1.388 . S
C608 C609 1.382 . S
C608 H633 0.950 . S
C609 N604 1.332 . S
C609 C608 1.382 . S
C609 H619 0.948 . S
N610 Co588 2.282 . S
N610 C614 1.332 . S
N610 C615 1.332 . S
C611 C612 1.388 . S
C611 C615 1.382 . S
C611 H634 0.950 . S
C612 C611 1.388 . S
C612 C613 1.386 . S
C613 C612 1.386 . S
C613 C614 1.382 . S
C613 H635 0.950 . S
C614 N610 1.332 . S
C614 C613 1.382 . S
C614 H616 0.952 . S
C615 N610 1.332 . S
C615 C611 1.382 . S
C615 H617 0.948 . S
H616 C614 0.952 . S
H617 C615 0.948 . S
H618 C607 0.952 . S
H619 C609 0.948 . S
C620 C586 1.395 . S
C620 C590 1.391 . S
C621 C583 1.389 . S
C621 C603 1.392 . S
C622 C593 1.392 . S
C622 C595 1.389 . S
C623 C598 1.395 . S
C623 C600 1.391 . S
H624 C584 0.951 . S
H625 C585 0.950 . S
H626 C591 0.949 . S
H627 C592 0.950 . S
H628 C596 0.951 . S
H629 C597 0.950 . S
H630 C601 0.949 . S
H631 C602 0.950 . S
H632 C606 0.950 . S
H633 C608 0.950 . S
H634 C611 0.950 . S
H635 C613 0.950 . S
C636 C637 1.443 . S
C636 N640 1.376 . S
C636 C674 1.389 . S
C637 C636 1.443 . S
C637 C638 1.340 . S
C637 H677 0.951 . S
C638 C637 1.340 . S
C638 C639 1.439 . S
C638 H678 0.950 . S
C639 C638 1.439 . S
C639 N640 1.374 . S
C639 C673 1.395 . S
N640 C636 1.376 . S
N640 C639 1.374 . S
N640 Co641 2.008 . S
Co641 N640 2.008 . S
Co641 N642 1.995 . S
Co641 N647 2.008 . S
Co641 N652 1.995 . S
Co641 N657 2.282 . S
Co641 N663 2.282 . S
N642 Co641 1.995 . S
N642 C643 1.376 . S
N642 C646 1.383 . S
C643 N642 1.376 . S
C643 C644 1.446 . S
C643 C673 1.391 . S
C644 C643 1.446 . S
C644 C645 1.339 . S
C644 H679 0.949 . S
C645 C644 1.339 . S
C645 C646 1.439 . S
C645 H680 0.950 . S
C646 N642 1.383 . S
C646 C645 1.439 . S
C646 C675 1.392 . S
N647 Co641 2.008 . S
N647 C648 1.376 . S
N647 C651 1.374 . S
C648 N647 1.376 . S
C648 C649 1.443 . S
C648 C675 1.389 . S
C649 C648 1.443 . S
C649 C650 1.340 . S
C649 H681 0.951 . S
C650 C649 1.340 . S
C650 C651 1.439 . S
C650 H682 0.950 . S
C651 N647 1.374 . S
C651 C650 1.439 . S
C651 C676 1.395 . S
N652 Co641 1.995 . S
N652 C653 1.376 . S
N652 C656 1.383 . S
C653 N652 1.376 . S
C653 C654 1.446 . S
C653 C676 1.391 . S
C654 C653 1.446 . S
C654 C655 1.339 . S
C654 H683 0.949 . S
C655 C654 1.339 . S
C655 C656 1.439 . S
C655 H684 0.950 . S
C656 N652 1.383 . S
C656 C655 1.439 . S
C656 C674 1.392 . S
N657 Co641 2.282 . S
N657 C660 1.332 . S
N657 C662 1.332 . S
C658 C659 1.386 . S
C658 C661 1.388 . S
C659 C658 1.386 . S
C659 C660 1.382 . S
C659 H685 0.950 . S
C660 N657 1.332 . S
C660 C659 1.382 . S
C660 H671 0.952 . S
C661 C658 1.388 . S
C661 C662 1.382 . S
C661 H686 0.950 . S
C662 N657 1.332 . S
C662 C661 1.382 . S
C662 H672 0.948 . S
N663 Co641 2.282 . S
N663 C667 1.332 . S
N663 C668 1.332 . S
C664 C665 1.388 . S
C664 C668 1.382 . S
C664 H687 0.950 . S
C665 C664 1.388 . S
C665 C666 1.386 . S
C666 C665 1.386 . S
C666 C667 1.382 . S
C666 H688 0.950 . S
C667 N663 1.332 . S
C667 C666 1.382 . S
C667 H669 0.952 . S
C668 N663 1.332 . S
C668 C664 1.382 . S
C668 H670 0.948 . S
H669 C667 0.952 . S
H670 C668 0.948 . S
H671 C660 0.952 . S
H672 C662 0.948 . S
C673 C639 1.395 . S
C673 C643 1.391 . S
C674 C636 1.389 . S
C674 C656 1.392 . S
C675 C646 1.392 . S
C675 C648 1.389 . S
C676 C651 1.395 . S
C676 C653 1.391 . S
H677 C637 0.951 . S
H678 C638 0.950 . S
H679 C644 0.949 . S
H680 C645 0.950 . S
H681 C649 0.951 . S
H682 C650 0.950 . S
H683 C654 0.949 . S
H684 C655 0.950 . S
H685 C659 0.950 . S
H686 C661 0.950 . S
H687 C664 0.950 . S
H688 C666 0.950 . S
C689 C690 1.443 . S
C689 N693 1.376 . S
C689 C727 1.389 . S
C690 C689 1.443 . S
C690 C691 1.340 . S
C690 H730 0.951 . S
C691 C690 1.340 . S
C691 C692 1.439 . S
C691 H731 0.950 . S
C692 C691 1.439 . S
C692 N693 1.374 . S
C692 C726 1.395 . S
N693 C689 1.376 . S
N693 C692 1.374 . S
N693 Co694 2.008 . S
Co694 N693 2.008 . S
Co694 N695 1.995 . S
Co694 N700 2.008 . S
Co694 N705 1.995 . S
Co694 N710 2.282 . S
Co694 N716 2.282 . S
N695 Co694 1.995 . S
N695 C696 1.376 . S
N695 C699 1.383 . S
C696 N695 1.376 . S
C696 C697 1.446 . S
C696 C726 1.391 . S
C697 C696 1.446 . S
C697 C698 1.339 . S
C697 H732 0.949 . S
C698 C697 1.339 . S
C698 C699 1.439 . S
C698 H733 0.950 . S
C699 N695 1.383 . S
C699 C698 1.439 . S
C699 C728 1.392 . S
N700 Co694 2.008 . S
N700 C701 1.376 . S
N700 C704 1.374 . S
C701 N700 1.376 . S
C701 C702 1.443 . S
C701 C728 1.389 . S
C702 C701 1.443 . S
C702 C703 1.340 . S
C702 H734 0.951 . S
C703 C702 1.340 . S
C703 C704 1.439 . S
C703 H735 0.950 . S
C704 N700 1.374 . S
C704 C703 1.439 . S
C704 C729 1.395 . S
N705 Co694 1.995 . S
N705 C706 1.376 . S
N705 C709 1.383 . S
C706 N705 1.376 . S
C706 C707 1.446 . S
C706 C729 1.391 . S
C707 C706 1.446 . S
C707 C708 1.339 . S
C707 H736 0.949 . S
C708 C707 1.339 . S
C708 C709 1.439 . S
C708 H737 0.950 . S
C709 N705 1.383 . S
C709 C708 1.439 . S
C709 C727 1.392 . S
N710 Co694 2.282 . S
N710 C713 1.332 . S
N710 C715 1.332 . S
C711 C712 1.386 . S
C711 C714 1.388 . S
C712 C711 1.386 . S
C712 C713 1.382 . S
C712 H738 0.950 . S
C713 N710 1.332 . S
C713 C712 1.382 . S
C713 H724 0.952 . S
C714 C711 1.388 . S
C714 C715 1.382 . S
C714 H739 0.950 . S
C715 N710 1.332 . S
C715 C714 1.382 . S
C715 H725 0.948 . S
N716 Co694 2.282 . S
N716 C720 1.332 . S
N716 C721 1.332 . S
C717 C718 1.388 . S
C717 C721 1.382 . S
C717 H740 0.950 . S
C718 C717 1.388 . S
C718 C719 1.386 . S
C719 C718 1.386 . S
C719 C720 1.382 . S
C719 H741 0.950 . S
C720 N716 1.332 . S
C720 C719 1.382 . S
C720 H722 0.952 . S
C721 N716 1.332 . S
C721 C717 1.382 . S
C721 H723 0.948 . S
H722 C720 0.952 . S
H723 C721 0.948 . S
H724 C713 0.952 . S
H725 C715 0.948 . S
C726 C692 1.395 . S
C726 C696 1.391 . S
C727 C689 1.389 . S
C727 C709 1.392 . S
C728 C699 1.392 . S
C728 C701 1.389 . S
C729 C704 1.395 . S
C729 C706 1.391 . S
H730 C690 0.951 . S
H731 C691 0.950 . S
H732 C697 0.949 . S
H733 C698 0.950 . S
H734 C702 0.951 . S
H735 C703 0.950 . S
H736 C707 0.949 . S
H737 C708 0.950 . S
H738 C712 0.950 . S
H739 C714 0.950 . S
H740 C717 0.950 . S
H741 C719 0.950 . S
C742 C743 1.443 . S
C742 N746 1.376 . S
C742 C780 1.389 . S
C743 C742 1.443 . S
C743 C744 1.340 . S
C743 H783 0.951 . S
C744 C743 1.340 . S
C744 C745 1.439 . S
C744 H784 0.950 . S
C745 C744 1.439 . S
C745 N746 1.374 . S
C745 C779 1.395 . S
N746 C742 1.376 . S
N746 C745 1.374 . S
N746 Co747 2.008 . S
Co747 N746 2.008 . S
Co747 N748 1.995 . S
Co747 N753 2.008 . S
Co747 N758 1.995 . S
Co747 N763 2.282 . S
Co747 N769 2.282 . S
N748 Co747 1.995 . S
N748 C749 1.376 . S
N748 C752 1.383 . S
C749 N748 1.376 . S
C749 C750 1.446 . S
C749 C779 1.391 . S
C750 C749 1.446 . S
C750 C751 1.339 . S
C750 H785 0.949 . S
C751 C750 1.339 . S
C751 C752 1.439 . S
C751 H786 0.950 . S
C752 N748 1.383 . S
C752 C751 1.439 . S
C752 C781 1.392 . S
N753 Co747 2.008 . S
N753 C754 1.376 . S
N753 C757 1.374 . S
C754 N753 1.376 . S
C754 C755 1.443 . S
C754 C781 1.389 . S
C755 C754 1.443 . S
C755 C756 1.340 . S
C755 H787 0.951 . S
C756 C755 1.340 . S
C756 C757 1.439 . S
C756 H788 0.950 . S
C757 N753 1.374 . S
C757 C756 1.439 . S
C757 C782 1.395 . S
N758 Co747 1.995 . S
N758 C759 1.376 . S
N758 C762 1.383 . S
C759 N758 1.376 . S
C759 C760 1.446 . S
C759 C782 1.391 . S
C760 C759 1.446 . S
C760 C761 1.339 . S
C760 H789 0.949 . S
C761 C760 1.339 . S
C761 C762 1.439 . S
C761 H790 0.950 . S
C762 N758 1.383 . S
C762 C761 1.439 . S
C762 C780 1.392 . S
N763 Co747 2.282 . S
N763 C766 1.332 . S
N763 C768 1.332 . S
C764 C765 1.386 . S
C764 C767 1.388 . S
C765 C764 1.386 . S
C765 C766 1.382 . S
C765 H791 0.950 . S
C766 N763 1.332 . S
C766 C765 1.382 . S
C766 H777 0.952 . S
C767 C764 1.388 . S
C767 C768 1.382 . S
C767 H792 0.950 . S
C768 N763 1.332 . S
C768 C767 1.382 . S
C768 H778 0.948 . S
N769 Co747 2.282 . S
N769 C773 1.332 . S
N769 C774 1.332 . S
C770 C771 1.388 . S
C770 C774 1.382 . S
C770 H793 0.950 . S
C771 C770 1.388 . S
C771 C772 1.386 . S
C772 C771 1.386 . S
C772 C773 1.382 . S
C772 H794 0.950 . S
C773 N769 1.332 . S
C773 C772 1.382 . S
C773 H775 0.952 . S
C774 N769 1.332 . S
C774 C770 1.382 . S
C774 H776 0.948 . S
H775 C773 0.952 . S
H776 C774 0.948 . S
H777 C766 0.952 . S
H778 C768 0.948 . S
C779 C745 1.395 . S
C779 C749 1.391 . S
C780 C742 1.389 . S
C780 C762 1.392 . S
C781 C752 1.392 . S
C781 C754 1.389 . S
C782 C757 1.395 . S
C782 C759 1.391 . S
H783 C743 0.951 . S
H784 C744 0.950 . S
H785 C750 0.949 . S
H786 C751 0.950 . S
H787 C755 0.951 . S
H788 C756 0.950 . S
H789 C760 0.949 . S
H790 C761 0.950 . S
H791 C765 0.950 . S
H792 C767 0.950 . S
H793 C770 0.950 . S
H794 C772 0.950 . S
C795 C796 1.443 . S
C795 N799 1.376 . S
C795 C833 1.389 . S
C796 C795 1.443 . S
C796 C797 1.340 . S
C796 H836 0.951 . S
C797 C796 1.340 . S
C797 C798 1.439 . S
C797 H837 0.950 . S
C798 C797 1.439 . S
C798 N799 1.374 . S
C798 C832 1.395 . S
N799 C795 1.376 . S
N799 C798 1.374 . S
N799 Co800 2.008 . S
Co800 N799 2.008 . S
Co800 N801 1.995 . S
Co800 N806 2.008 . S
Co800 N811 1.995 . S
Co800 N816 2.282 . S
Co800 N822 2.282 . S
N801 Co800 1.995 . S
N801 C802 1.376 . S
N801 C805 1.383 . S
C802 N801 1.376 . S
C802 C803 1.446 . S
C802 C832 1.391 . S
C803 C802 1.446 . S
C803 C804 1.339 . S
C803 H838 0.949 . S
C804 C803 1.339 . S
C804 C805 1.439 . S
C804 H839 0.950 . S
C805 N801 1.383 . S
C805 C804 1.439 . S
C805 C834 1.392 . S
N806 Co800 2.008 . S
N806 C807 1.376 . S
N806 C810 1.374 . S
C807 N806 1.376 . S
C807 C808 1.443 . S
C807 C834 1.389 . S
C808 C807 1.443 . S
C808 C809 1.340 . S
C808 H840 0.951 . S
C809 C808 1.340 . S
C809 C810 1.439 . S
C809 H841 0.950 . S
C810 N806 1.374 . S
C810 C809 1.439 . S
C810 C835 1.395 . S
N811 Co800 1.995 . S
N811 C812 1.376 . S
N811 C815 1.383 . S
C812 N811 1.376 . S
C812 C813 1.446 . S
C812 C835 1.391 . S
C813 C812 1.446 . S
C813 C814 1.339 . S
C813 H842 0.949 . S
C814 C813 1.339 . S
C814 C815 1.439 . S
C814 H843 0.950 . S
C815 N811 1.383 . S
C815 C814 1.439 . S
C815 C833 1.392 . S
N816 Co800 2.282 . S
N816 C819 1.332 . S
N816 C821 1.332 . S
C817 C818 1.386 . S
C817 C820 1.388 . S
C818 C817 1.386 . S
C818 C819 1.382 . S
C818 H844 0.950 . S
C819 N816 1.332 . S
C819 C818 1.382 . S
C819 H830 0.952 . S
C820 C817 1.388 . S
C820 C821 1.382 . S
C820 H845 0.950 . S
C821 N816 1.332 . S
C821 C820 1.382 . S
C821 H831 0.948 . S
N822 Co800 2.282 . S
N822 C826 1.332 . S
N822 C827 1.332 . S
C823 C824 1.388 . S
C823 C827 1.382 . S
C823 H846 0.950 . S
C824 C823 1.388 . S
C824 C825 1.386 . S
C825 C824 1.386 . S
C825 C826 1.382 . S
C825 H847 0.950 . S
C826 N822 1.332 . S
C826 C825 1.382 . S
C826 H828 0.952 . S
C827 N822 1.332 . S
C827 C823 1.382 . S
C827 H829 0.948 . S
H828 C826 0.952 . S
H829 C827 0.948 . S
H830 C819 0.952 . S
H831 C821 0.948 . S
C832 C798 1.395 . S
C832 C802 1.391 . S
C833 C795 1.389 . S
C833 C815 1.392 . S
C834 C805 1.392 . S
C834 C807 1.389 . S
C835 C810 1.395 . S
C835 C812 1.391 . S
H836 C796 0.951 . S
H837 C797 0.950 . S
H838 C803 0.949 . S
H839 C804 0.950 . S
H840 C808 0.951 . S
H841 C809 0.950 . S
H842 C813 0.949 . S
H843 C814 0.950 . S
H844 C818 0.950 . S
H845 C820 0.950 . S
H846 C823 0.950 . S
H847 C825 0.950 . S
C848 C849 1.443 . S
C848 N852 1.376 . S
C848 C886 1.389 . S
C849 C848 1.443 . S
C849 C850 1.340 . S
C849 H889 0.951 . S
C850 C849 1.340 . S
C850 C851 1.439 . S
C850 H890 0.950 . S
C851 C850 1.439 . S
C851 N852 1.374 . S
C851 C885 1.395 . S
N852 C848 1.376 . S
N852 C851 1.374 . S
N852 Co853 2.008 . S
Co853 N852 2.008 . S
Co853 N854 1.995 . S
Co853 N859 2.008 . S
Co853 N864 1.995 . S
Co853 N869 2.282 . S
Co853 N875 2.282 . S
N854 Co853 1.995 . S
N854 C855 1.376 . S
N854 C858 1.383 . S
C855 N854 1.376 . S
C855 C856 1.446 . S
C855 C885 1.391 . S
C856 C855 1.446 . S
C856 C857 1.339 . S
C856 H891 0.949 . S
C857 C856 1.339 . S
C857 C858 1.439 . S
C857 H892 0.950 . S
C858 N854 1.383 . S
C858 C857 1.439 . S
C858 C887 1.392 . S
N859 Co853 2.008 . S
N859 C860 1.376 . S
N859 C863 1.374 . S
C860 N859 1.376 . S
C860 C861 1.443 . S
C860 C887 1.389 . S
C861 C860 1.443 . S
C861 C862 1.340 . S
C861 H893 0.951 . S
C862 C861 1.340 . S
C862 C863 1.439 . S
C862 H894 0.950 . S
C863 N859 1.374 . S
C863 C862 1.439 . S
C863 C888 1.395 . S
N864 Co853 1.995 . S
N864 C865 1.376 . S
N864 C868 1.383 . S
C865 N864 1.376 . S
C865 C866 1.446 . S
C865 C888 1.391 . S
C866 C865 1.446 . S
C866 C867 1.339 . S
C866 H895 0.949 . S
C867 C866 1.339 . S
C867 C868 1.439 . S
C867 H896 0.950 . S
C868 N864 1.383 . S
C868 C867 1.439 . S
C868 C886 1.392 . S
N869 Co853 2.282 . S
N869 C872 1.332 . S
N869 C874 1.332 . S
C870 C871 1.386 . S
C870 C873 1.388 . S
C871 C870 1.386 . S
C871 C872 1.382 . S
C871 H897 0.950 . S
C872 N869 1.332 . S
C872 C871 1.382 . S
C872 H883 0.952 . S
C873 C870 1.388 . S
C873 C874 1.382 . S
C873 H898 0.950 . S
C874 N869 1.332 . S
C874 C873 1.382 . S
C874 H884 0.948 . S
N875 Co853 2.282 . S
N875 C879 1.332 . S
N875 C880 1.332 . S
C876 C877 1.388 . S
C876 C880 1.382 . S
C876 H899 0.950 . S
C877 C876 1.388 . S
C877 C878 1.386 . S
C878 C877 1.386 . S
C878 C879 1.382 . S
C878 H900 0.950 . S
C879 N875 1.332 . S
C879 C878 1.382 . S
C879 H881 0.952 . S
C880 N875 1.332 . S
C880 C876 1.382 . S
C880 H882 0.948 . S
H881 C879 0.952 . S
H882 C880 0.948 . S
H883 C872 0.952 . S
H884 C874 0.948 . S
C885 C851 1.395 . S
C885 C855 1.391 . S
C886 C848 1.389 . S
C886 C868 1.392 . S
C887 C858 1.392 . S
C887 C860 1.389 . S
C888 C863 1.395 . S
C888 C865 1.391 . S
H889 C849 0.951 . S
H890 C850 0.950 . S
H891 C856 0.949 . S
H892 C857 0.950 . S
H893 C861 0.951 . S
H894 C862 0.950 . S
H895 C866 0.949 . S
H896 C867 0.950 . S
H897 C871 0.950 . S
H898 C873 0.950 . S
H899 C876 0.950 . S
H900 C878 0.950 . S
C901 C902 1.443 . S
C901 N905 1.376 . S
C901 C939 1.389 . S
C902 C901 1.443 . S
C902 C903 1.340 . S
C902 H942 0.951 . S
C903 C902 1.340 . S
C903 C904 1.439 . S
C903 H943 0.950 . S
C904 C903 1.439 . S
C904 N905 1.374 . S
C904 C938 1.395 . S
N905 C901 1.376 . S
N905 C904 1.374 . S
N905 Co906 2.008 . S
Co906 N905 2.008 . S
Co906 N907 1.995 . S
Co906 N912 2.008 . S
Co906 N917 1.995 . S
Co906 N922 2.282 . S
Co906 N928 2.282 . S
N907 Co906 1.995 . S
N907 C908 1.376 . S
N907 C911 1.383 . S
C908 N907 1.376 . S
C908 C909 1.446 . S
C908 C938 1.391 . S
C909 C908 1.446 . S
C909 C910 1.339 . S
C909 H944 0.949 . S
C910 C909 1.339 . S
C910 C911 1.439 . S
C910 H945 0.950 . S
C911 N907 1.383 . S
C911 C910 1.439 . S
C911 C940 1.392 . S
N912 Co906 2.008 . S
N912 C913 1.376 . S
N912 C916 1.374 . S
C913 N912 1.376 . S
C913 C914 1.443 . S
C913 C940 1.389 . S
C914 C913 1.443 . S
C914 C915 1.340 . S
C914 H946 0.951 . S
C915 C914 1.340 . S
C915 C916 1.439 . S
C915 H947 0.950 . S
C916 N912 1.374 . S
C916 C915 1.439 . S
C916 C941 1.395 . S
N917 Co906 1.995 . S
N917 C918 1.376 . S
N917 C921 1.383 . S
C918 N917 1.376 . S
C918 C919 1.446 . S
C918 C941 1.391 . S
C919 C918 1.446 . S
C919 C920 1.339 . S
C919 H948 0.949 . S
C920 C919 1.339 . S
C920 C921 1.439 . S
C920 H949 0.950 . S
C921 N917 1.383 . S
C921 C920 1.439 . S
C921 C939 1.392 . S
N922 Co906 2.282 . S
N922 C925 1.332 . S
N922 C927 1.332 . S
C923 C924 1.386 . S
C923 C926 1.388 . S
C924 C923 1.386 . S
C924 C925 1.382 . S
C924 H950 0.950 . S
C925 N922 1.332 . S
C925 C924 1.382 . S
C925 H936 0.952 . S
C926 C923 1.388 . S
C926 C927 1.382 . S
C926 H951 0.950 . S
C927 N922 1.332 . S
C927 C926 1.382 . S
C927 H937 0.948 . S
N928 Co906 2.282 . S
N928 C932 1.332 . S
N928 C933 1.332 . S
C929 C930 1.388 . S
C929 C933 1.382 . S
C929 H952 0.950 . S
C930 C929 1.388 . S
C930 C931 1.386 . S
C931 C930 1.386 . S
C931 C932 1.382 . S
C931 H953 0.950 . S
C932 N928 1.332 . S
C932 C931 1.382 . S
C932 H934 0.952 . S
C933 N928 1.332 . S
C933 C929 1.382 . S
C933 H935 0.948 . S
H934 C932 0.952 . S
H935 C933 0.948 . S
H936 C925 0.952 . S
H937 C927 0.948 . S
C938 C904 1.395 . S
C938 C908 1.391 . S
C939 C901 1.389 . S
C939 C921 1.392 . S
C940 C911 1.392 . S
C940 C913 1.389 . S
C941 C916 1.395 . S
C941 C918 1.391 . S
H942 C902 0.951 . S
H943 C903 0.950 . S
H944 C909 0.949 . S
H945 C910 0.950 . S
H946 C914 0.951 . S
H947 C915 0.950 . S
H948 C919 0.949 . S
H949 C920 0.950 . S
H950 C924 0.950 . S
H951 C926 0.950 . S
H952 C929 0.950 . S
H953 C931 0.950 . S
C954 C955 1.443 . S
C954 N958 1.376 . S
C954 C992 1.389 . S
C955 C954 1.443 . S
C955 C956 1.340 . S
C955 H995 0.951 . S
C956 C955 1.340 . S
C956 C957 1.439 . S
C956 H996 0.950 . S
C957 C956 1.439 . S
C957 N958 1.374 . S
C957 C991 1.395 . S
N958 C954 1.376 . S
N958 C957 1.374 . S
N958 Co959 2.008 . S
Co959 N958 2.008 . S
Co959 N960 1.995 . S
Co959 N965 2.008 . S
Co959 N970 1.995 . S
Co959 N975 2.282 . S
Co959 N981 2.282 . S
N960 Co959 1.995 . S
N960 C961 1.376 . S
N960 C964 1.383 . S
C961 N960 1.376 . S
C961 C962 1.446 . S
C961 C991 1.391 . S
C962 C961 1.446 . S
C962 C963 1.339 . S
C962 H997 0.949 . S
C963 C962 1.339 . S
C963 C964 1.439 . S
C963 H998 0.950 . S
C964 N960 1.383 . S
C964 C963 1.439 . S
C964 C993 1.392 . S
N965 Co959 2.008 . S
N965 C966 1.376 . S
N965 C969 1.374 . S
C966 N965 1.376 . S
C966 C967 1.443 . S
C966 C993 1.389 . S
C967 C966 1.443 . S
C967 C968 1.340 . S
C967 H999 0.951 . S
C968 C967 1.340 . S
C968 C969 1.439 . S
C968 H1000 0.950 . S
C969 N965 1.374 . S
C969 C968 1.439 . S
C969 C994 1.395 . S
N970 Co959 1.995 . S
N970 C971 1.376 . S
N970 C974 1.383 . S
C971 N970 1.376 . S
C971 C972 1.446 . S
C971 C994 1.391 . S
C972 C971 1.446 . S
C972 C973 1.339 . S
C972 H1001 0.949 . S
C973 C972 1.339 . S
C973 C974 1.439 . S
C973 H1002 0.950 . S
C974 N970 1.383 . S
C974 C973 1.439 . S
C974 C992 1.392 . S
N975 Co959 2.282 . S
N975 C978 1.332 . S
N975 C980 1.332 . S
C976 C977 1.386 . S
C976 C979 1.388 . S
C977 C976 1.386 . S
C977 C978 1.382 . S
C977 H1003 0.950 . S
C978 N975 1.332 . S
C978 C977 1.382 . S
C978 H989 0.952 . S
C979 C976 1.388 . S
C979 C980 1.382 . S
C979 H1004 0.950 . S
C980 N975 1.332 . S
C980 C979 1.382 . S
C980 H990 0.948 . S
N981 Co959 2.282 . S
N981 C985 1.332 . S
N981 C986 1.332 . S
C982 C983 1.388 . S
C982 C986 1.382 . S
C982 H1005 0.950 . S
C983 C982 1.388 . S
C983 C984 1.386 . S
C984 C983 1.386 . S
C984 C985 1.382 . S
C984 H1006 0.950 . S
C985 N981 1.332 . S
C985 C984 1.382 . S
C985 H987 0.952 . S
C986 N981 1.332 . S
C986 C982 1.382 . S
C986 H988 0.948 . S
H987 C985 0.952 . S
H988 C986 0.948 . S
H989 C978 0.952 . S
H990 C980 0.948 . S
C991 C957 1.395 . S
C991 C961 1.391 . S
C992 C954 1.389 . S
C992 C974 1.392 . S
C993 C964 1.392 . S
C993 C966 1.389 . S
C994 C969 1.395 . S
C994 C971 1.391 . S
H995 C955 0.951 . S
H996 C956 0.950 . S
H997 C962 0.949 . S
H998 C963 0.950 . S
H999 C967 0.951 . S
H1000 C968 0.950 . S
H1001 C972 0.949 . S
H1002 C973 0.950 . S
H1003 C977 0.950 . S
H1004 C979 0.950 . S
H1005 C982 0.950 . S
H1006 C984 0.950 . S
C1007 C1008 1.443 . S
C1007 N1011 1.376 . S
C1007 C1045 1.389 . S
C1008 C1007 1.443 . S
C1008 C1009 1.340 . S
C1008 H1048 0.951 . S
C1009 C1008 1.340 . S
C1009 C1010 1.439 . S
C1009 H1049 0.950 . S
C1010 C1009 1.439 . S
C1010 N1011 1.374 . S
C1010 C1044 1.395 . S
N1011 C1007 1.376 . S
N1011 C1010 1.374 . S
N1011 Co1012 2.008 . S
Co1012 N1011 2.008 . S
Co1012 N1013 1.995 . S
Co1012 N1018 2.008 . S
Co1012 N1023 1.995 . S
Co1012 N1028 2.282 . S
Co1012 N1034 2.282 . S
N1013 Co1012 1.995 . S
N1013 C1014 1.376 . S
N1013 C1017 1.383 . S
C1014 N1013 1.376 . S
C1014 C1015 1.446 . S
C1014 C1044 1.391 . S
C1015 C1014 1.446 . S
C1015 C1016 1.339 . S
C1015 H1050 0.949 . S
C1016 C1015 1.339 . S
C1016 C1017 1.439 . S
C1016 H1051 0.950 . S
C1017 N1013 1.383 . S
C1017 C1016 1.439 . S
C1017 C1046 1.392 . S
N1018 Co1012 2.008 . S
N1018 C1019 1.376 . S
N1018 C1022 1.374 . S
C1019 N1018 1.376 . S
C1019 C1020 1.443 . S
C1019 C1046 1.389 . S
C1020 C1019 1.443 . S
C1020 C1021 1.340 . S
C1020 H1052 0.951 . S
C1021 C1020 1.340 . S
C1021 C1022 1.439 . S
C1021 H1053 0.950 . S
C1022 N1018 1.374 . S
C1022 C1021 1.439 . S
C1022 C1047 1.395 . S
N1023 Co1012 1.995 . S
N1023 C1024 1.376 . S
N1023 C1027 1.383 . S
C1024 N1023 1.376 . S
C1024 C1025 1.446 . S
C1024 C1047 1.391 . S
C1025 C1024 1.446 . S
C1025 C1026 1.339 . S
C1025 H1054 0.949 . S
C1026 C1025 1.339 . S
C1026 C1027 1.439 . S
C1026 H1055 0.950 . S
C1027 N1023 1.383 . S
C1027 C1026 1.439 . S
C1027 C1045 1.392 . S
N1028 Co1012 2.282 . S
N1028 C1031 1.332 . S
N1028 C1033 1.332 . S
C1029 C1030 1.386 . S
C1029 C1032 1.388 . S
C1030 C1029 1.386 . S
C1030 C1031 1.382 . S
C1030 H1056 0.950 . S
C1031 N1028 1.332 . S
C1031 C1030 1.382 . S
C1031 H1042 0.952 . S
C1032 C1029 1.388 . S
C1032 C1033 1.382 . S
C1032 H1057 0.950 . S
C1033 N1028 1.332 . S
C1033 C1032 1.382 . S
C1033 H1043 0.948 . S
N1034 Co1012 2.282 . S
N1034 C1038 1.332 . S
N1034 C1039 1.332 . S
C1035 C1036 1.388 . S
C1035 C1039 1.382 . S
C1035 H1058 0.950 . S
C1036 C1035 1.388 . S
C1036 C1037 1.386 . S
C1037 C1036 1.386 . S
C1037 C1038 1.382 . S
C1037 H1059 0.950 . S
C1038 N1034 1.332 . S
C1038 C1037 1.382 . S
C1038 H1040 0.952 . S
C1039 N1034 1.332 . S
C1039 C1035 1.382 . S
C1039 H1041 0.948 . S
H1040 C1038 0.952 . S
H1041 C1039 0.948 . S
H1042 C1031 0.952 . S
H1043 C1033 0.948 . S
C1044 C1010 1.395 . S
C1044 C1014 1.391 . S
C1045 C1007 1.389 . S
C1045 C1027 1.392 . S
C1046 C1017 1.392 . S
C1046 C1019 1.389 . S
C1047 C1022 1.395 . S
C1047 C1024 1.391 . S
H1048 C1008 0.951 . S
H1049 C1009 0.950 . S
H1050 C1015 0.949 . S
H1051 C1016 0.950 . S
H1052 C1020 0.951 . S
H1053 C1021 0.950 . S
H1054 C1025 0.949 . S
H1055 C1026 0.950 . S
H1056 C1030 0.950 . S
H1057 C1032 0.950 . S
H1058 C1035 0.950 . S
H1059 C1037 0.950 . S
C1060 C1061 1.443 . S
C1060 N1064 1.376 . S
C1060 C1098 1.389 . S
C1061 C1060 1.443 . S
C1061 C1062 1.340 . S
C1061 H1101 0.951 . S
C1062 C1061 1.340 . S
C1062 C1063 1.439 . S
C1062 H1102 0.950 . S
C1063 C1062 1.439 . S
C1063 N1064 1.374 . S
C1063 C1097 1.395 . S
N1064 C1060 1.376 . S
N1064 C1063 1.374 . S
N1064 Co1065 2.008 . S
Co1065 N1064 2.008 . S
Co1065 N1066 1.995 . S
Co1065 N1071 2.008 . S
Co1065 N1076 1.995 . S
Co1065 N1081 2.282 . S
Co1065 N1087 2.282 . S
N1066 Co1065 1.995 . S
N1066 C1067 1.376 . S
N1066 C1070 1.383 . S
C1067 N1066 1.376 . S
C1067 C1068 1.446 . S
C1067 C1097 1.391 . S
C1068 C1067 1.446 . S
C1068 C1069 1.339 . S
C1068 H1103 0.949 . S
C1069 C1068 1.339 . S
C1069 C1070 1.439 . S
C1069 H1104 0.950 . S
C1070 N1066 1.383 . S
C1070 C1069 1.439 . S
C1070 C1099 1.392 . S
N1071 Co1065 2.008 . S
N1071 C1072 1.376 . S
N1071 C1075 1.374 . S
C1072 N1071 1.376 . S
C1072 C1073 1.443 . S
C1072 C1099 1.389 . S
C1073 C1072 1.443 . S
C1073 C1074 1.340 . S
C1073 H1105 0.951 . S
C1074 C1073 1.340 . S
C1074 C1075 1.439 . S
C1074 H1106 0.950 . S
C1075 N1071 1.374 . S
C1075 C1074 1.439 . S
C1075 C1100 1.395 . S
N1076 Co1065 1.995 . S
N1076 C1077 1.376 . S
N1076 C1080 1.383 . S
C1077 N1076 1.376 . S
C1077 C1078 1.446 . S
C1077 C1100 1.391 . S
C1078 C1077 1.446 . S
C1078 C1079 1.339 . S
C1078 H1107 0.949 . S
C1079 C1078 1.339 . S
C1079 C1080 1.439 . S
C1079 H1108 0.950 . S
C1080 N1076 1.383 . S
C1080 C1079 1.439 . S
C1080 C1098 1.392 . S
N1081 Co1065 2.282 . S
N1081 C1084 1.332 . S
N1081 C1086 1.332 . S
C1082 C1083 1.386 . S
C1082 C1085 1.388 . S
C1083 C1082 1.386 . S
C1083 C1084 1.382 . S
C1083 H1109 0.950 . S
C1084 N1081 1.332 . S
C1084 C1083 1.382 . S
C1084 H1095 0.952 . S
C1085 C1082 1.388 . S
C1085 C1086 1.382 . S
C1085 H1110 0.950 . S
C1086 N1081 1.332 . S
C1086 C1085 1.382 . S
C1086 H1096 0.948 . S
N1087 Co1065 2.282 . S
N1087 C1091 1.332 . S
N1087 C1092 1.332 . S
C1088 C1089 1.388 . S
C1088 C1092 1.382 . S
C1088 H1111 0.950 . S
C1089 C1088 1.388 . S
C1089 C1090 1.386 . S
C1090 C1089 1.386 . S
C1090 C1091 1.382 . S
C1090 H1112 0.950 . S
C1091 N1087 1.332 . S
C1091 C1090 1.382 . S
C1091 H1093 0.952 . S
C1092 N1087 1.332 . S
C1092 C1088 1.382 . S
C1092 H1094 0.948 . S
H1093 C1091 0.952 . S
H1094 C1092 0.948 . S
H1095 C1084 0.952 . S
H1096 C1086 0.948 . S
C1097 C1063 1.395 . S
C1097 C1067 1.391 . S
C1098 C1060 1.389 . S
C1098 C1080 1.392 . S
C1099 C1070 1.392 . S
C1099 C1072 1.389 . S
C1100 C1075 1.395 . S
C1100 C1077 1.391 . S
H1101 C1061 0.951 . S
H1102 C1062 0.950 . S
H1103 C1068 0.949 . S
H1104 C1069 0.950 . S
H1105 C1073 0.951 . S
H1106 C1074 0.950 . S
H1107 C1078 0.949 . S
H1108 C1079 0.950 . S
H1109 C1083 0.950 . S
H1110 C1085 0.950 . S
H1111 C1088 0.950 . S
H1112 C1090 0.950 . S
C1113 C1114 1.443 . S
C1113 N1117 1.376 . S
C1113 C1151 1.389 . S
C1114 C1113 1.443 . S
C1114 C1115 1.340 . S
C1114 H1154 0.951 . S
C1115 C1114 1.340 . S
C1115 C1116 1.439 . S
C1115 H1155 0.950 . S
C1116 C1115 1.439 . S
C1116 N1117 1.374 . S
C1116 C1150 1.395 . S
N1117 C1113 1.376 . S
N1117 C1116 1.374 . S
N1117 Co1118 2.008 . S
Co1118 N1117 2.008 . S
Co1118 N1119 1.995 . S
Co1118 N1124 2.008 . S
Co1118 N1129 1.995 . S
Co1118 N1134 2.282 . S
Co1118 N1140 2.282 . S
N1119 Co1118 1.995 . S
N1119 C1120 1.376 . S
N1119 C1123 1.383 . S
C1120 N1119 1.376 . S
C1120 C1121 1.446 . S
C1120 C1150 1.391 . S
C1121 C1120 1.446 . S
C1121 C1122 1.339 . S
C1121 H1156 0.949 . S
C1122 C1121 1.339 . S
C1122 C1123 1.439 . S
C1122 H1157 0.950 . S
C1123 N1119 1.383 . S
C1123 C1122 1.439 . S
C1123 C1152 1.392 . S
N1124 Co1118 2.008 . S
N1124 C1125 1.376 . S
N1124 C1128 1.374 . S
C1125 N1124 1.376 . S
C1125 C1126 1.443 . S
C1125 C1152 1.389 . S
C1126 C1125 1.443 . S
C1126 C1127 1.340 . S
C1126 H1158 0.951 . S
C1127 C1126 1.340 . S
C1127 C1128 1.439 . S
C1127 H1159 0.950 . S
C1128 N1124 1.374 . S
C1128 C1127 1.439 . S
C1128 C1153 1.395 . S
N1129 Co1118 1.995 . S
N1129 C1130 1.376 . S
N1129 C1133 1.383 . S
C1130 N1129 1.376 . S
C1130 C1131 1.446 . S
C1130 C1153 1.391 . S
C1131 C1130 1.446 . S
C1131 C1132 1.339 . S
C1131 H1160 0.949 . S
C1132 C1131 1.339 . S
C1132 C1133 1.439 . S
C1132 H1161 0.950 . S
C1133 N1129 1.383 . S
C1133 C1132 1.439 . S
C1133 C1151 1.392 . S
N1134 Co1118 2.282 . S
N1134 C1137 1.332 . S
N1134 C1139 1.332 . S
C1135 C1136 1.386 . S
C1135 C1138 1.388 . S
C1136 C1135 1.386 . S
C1136 C1137 1.382 . S
C1136 H1162 0.950 . S
C1137 N1134 1.332 . S
C1137 C1136 1.382 . S
C1137 H1148 0.952 . S
C1138 C1135 1.388 . S
C1138 C1139 1.382 . S
C1138 H1163 0.950 . S
C1139 N1134 1.332 . S
C1139 C1138 1.382 . S
C1139 H1149 0.948 . S
N1140 Co1118 2.282 . S
N1140 C1144 1.332 . S
N1140 C1145 1.332 . S
C1141 C1142 1.388 . S
C1141 C1145 1.382 . S
C1141 H1164 0.950 . S
C1142 C1141 1.388 . S
C1142 C1143 1.386 . S
C1143 C1142 1.386 . S
C1143 C1144 1.382 . S
C1143 H1165 0.950 . S
C1144 N1140 1.332 . S
C1144 C1143 1.382 . S
C1144 H1146 0.952 . S
C1145 N1140 1.332 . S
C1145 C1141 1.382 . S
C1145 H1147 0.948 . S
H1146 C1144 0.952 . S
H1147 C1145 0.948 . S
H1148 C1137 0.952 . S
H1149 C1139 0.948 . S
C1150 C1116 1.395 . S
C1150 C1120 1.391 . S
C1151 C1113 1.389 . S
C1151 C1133 1.392 . S
C1152 C1123 1.392 . S
C1152 C1125 1.389 . S
C1153 C1128 1.395 . S
C1153 C1130 1.391 . S
H1154 C1114 0.951 . S
H1155 C1115 0.950 . S
H1156 C1121 0.949 . S
H1157 C1122 0.950 . S
H1158 C1126 0.951 . S
H1159 C1127 0.950 . S
H1160 C1131 0.949 . S
H1161 C1132 0.950 . S
H1162 C1136 0.950 . S
H1163 C1138 0.950 . S
H1164 C1141 0.950 . S
H1165 C1143 0.950 . S
C1166 C1167 1.443 . S
C1166 N1170 1.376 . S
C1166 C1204 1.389 . S
C1167 C1166 1.443 . S
C1167 C1168 1.340 . S
C1167 H1207 0.951 . S
C1168 C1167 1.340 . S
C1168 C1169 1.439 . S
C1168 H1208 0.950 . S
C1169 C1168 1.439 . S
C1169 N1170 1.374 . S
C1169 C1203 1.395 . S
N1170 C1166 1.376 . S
N1170 C1169 1.374 . S
N1170 Co1171 2.008 . S
Co1171 N1170 2.008 . S
Co1171 N1172 1.995 . S
Co1171 N1177 2.008 . S
Co1171 N1182 1.995 . S
Co1171 N1187 2.282 . S
Co1171 N1193 2.282 . S
N1172 Co1171 1.995 . S
N1172 C1173 1.376 . S
N1172 C1176 1.383 . S
C1173 N1172 1.376 . S
C1173 C1174 1.446 . S
C1173 C1203 1.391 . S
C1174 C1173 1.446 . S
C1174 C1175 1.339 . S
C1174 H1209 0.949 . S
C1175 C1174 1.339 . S
C1175 C1176 1.439 . S
C1175 H1210 0.950 . S
C1176 N1172 1.383 . S
C1176 C1175 1.439 . S
C1176 C1205 1.392 . S
N1177 Co1171 2.008 . S
N1177 C1178 1.376 . S
N1177 C1181 1.374 . S
C1178 N1177 1.376 . S
C1178 C1179 1.443 . S
C1178 C1205 1.389 . S
C1179 C1178 1.443 . S
C1179 C1180 1.340 . S
C1179 H1211 0.951 . S
C1180 C1179 1.340 . S
C1180 C1181 1.439 . S
C1180 H1212 0.950 . S
C1181 N1177 1.374 . S
C1181 C1180 1.439 . S
C1181 C1206 1.395 . S
N1182 Co1171 1.995 . S
N1182 C1183 1.376 . S
N1182 C1186 1.383 . S
C1183 N1182 1.376 . S
C1183 C1184 1.446 . S
C1183 C1206 1.391 . S
C1184 C1183 1.446 . S
C1184 C1185 1.339 . S
C1184 H1213 0.949 . S
C1185 C1184 1.339 . S
C1185 C1186 1.439 . S
C1185 H1214 0.950 . S
C1186 N1182 1.383 . S
C1186 C1185 1.439 . S
C1186 C1204 1.392 . S
N1187 Co1171 2.282 . S
N1187 C1190 1.332 . S
N1187 C1192 1.332 . S
C1188 C1189 1.386 . S
C1188 C1191 1.388 . S
C1189 C1188 1.386 . S
C1189 C1190 1.382 . S
C1189 H1215 0.950 . S
C1190 N1187 1.332 . S
C1190 C1189 1.382 . S
C1190 H1201 0.952 . S
C1191 C1188 1.388 . S
C1191 C1192 1.382 . S
C1191 H1216 0.950 . S
C1192 N1187 1.332 . S
C1192 C1191 1.382 . S
C1192 H1202 0.948 . S
N1193 Co1171 2.282 . S
N1193 C1197 1.332 . S
N1193 C1198 1.332 . S
C1194 C1195 1.388 . S
C1194 C1198 1.382 . S
C1194 H1217 0.950 . S
C1195 C1194 1.388 . S
C1195 C1196 1.386 . S
C1196 C1195 1.386 . S
C1196 C1197 1.382 . S
C1196 H1218 0.950 . S
C1197 N1193 1.332 . S
C1197 C1196 1.382 . S
C1197 H1199 0.952 . S
C1198 N1193 1.332 . S
C1198 C1194 1.382 . S
C1198 H1200 0.948 . S
H1199 C1197 0.952 . S
H1200 C1198 0.948 . S
H1201 C1190 0.952 . S
H1202 C1192 0.948 . S
C1203 C1169 1.395 . S
C1203 C1173 1.391 . S
C1204 C1166 1.389 . S
C1204 C1186 1.392 . S
C1205 C1176 1.392 . S
C1205 C1178 1.389 . S
C1206 C1181 1.395 . S
C1206 C1183 1.391 . S
H1207 C1167 0.951 . S
H1208 C1168 0.950 . S
H1209 C1174 0.949 . S
H1210 C1175 0.950 . S
H1211 C1179 0.951 . S
H1212 C1180 0.950 . S
H1213 C1184 0.949 . S
H1214 C1185 0.950 . S
H1215 C1189 0.950 . S
H1216 C1191 0.950 . S
H1217 C1194 0.950 . S
H1218 C1196 0.950 . S
C1219 C1220 1.443 . S
C1219 N1223 1.376 . S
C1219 C1257 1.389 . S
C1220 C1219 1.443 . S
C1220 C1221 1.340 . S
C1220 H1260 0.951 . S
C1221 C1220 1.340 . S
C1221 C1222 1.439 . S
C1221 H1261 0.950 . S
C1222 C1221 1.439 . S
C1222 N1223 1.374 . S
C1222 C1256 1.395 . S
N1223 C1219 1.376 . S
N1223 C1222 1.374 . S
N1223 Co1224 2.008 . S
Co1224 N1223 2.008 . S
Co1224 N1225 1.995 . S
Co1224 N1230 2.008 . S
Co1224 N1235 1.995 . S
Co1224 N1240 2.282 . S
Co1224 N1246 2.282 . S
N1225 Co1224 1.995 . S
N1225 C1226 1.376 . S
N1225 C1229 1.383 . S
C1226 N1225 1.376 . S
C1226 C1227 1.446 . S
C1226 C1256 1.391 . S
C1227 C1226 1.446 . S
C1227 C1228 1.339 . S
C1227 H1262 0.949 . S
C1228 C1227 1.339 . S
C1228 C1229 1.439 . S
C1228 H1263 0.950 . S
C1229 N1225 1.383 . S
C1229 C1228 1.439 . S
C1229 C1258 1.392 . S
N1230 Co1224 2.008 . S
N1230 C1231 1.376 . S
N1230 C1234 1.374 . S
C1231 N1230 1.376 . S
C1231 C1232 1.443 . S
C1231 C1258 1.389 . S
C1232 C1231 1.443 . S
C1232 C1233 1.340 . S
C1232 H1264 0.951 . S
C1233 C1232 1.340 . S
C1233 C1234 1.439 . S
C1233 H1265 0.950 . S
C1234 N1230 1.374 . S
C1234 C1233 1.439 . S
C1234 C1259 1.395 . S
N1235 Co1224 1.995 . S
N1235 C1236 1.376 . S
N1235 C1239 1.383 . S
C1236 N1235 1.376 . S
C1236 C1237 1.446 . S
C1236 C1259 1.391 . S
C1237 C1236 1.446 . S
C1237 C1238 1.339 . S
C1237 H1266 0.949 . S
C1238 C1237 1.339 . S
C1238 C1239 1.439 . S
C1238 H1267 0.950 . S
C1239 N1235 1.383 . S
C1239 C1238 1.439 . S
C1239 C1257 1.392 . S
N1240 Co1224 2.282 . S
N1240 C1243 1.332 . S
N1240 C1245 1.332 . S
C1241 C1242 1.386 . S
C1241 C1244 1.388 . S
C1242 C1241 1.386 . S
C1242 C1243 1.382 . S
C1242 H1268 0.950 . S
C1243 N1240 1.332 . S
C1243 C1242 1.382 . S
C1243 H1254 0.952 . S
C1244 C1241 1.388 . S
C1244 C1245 1.382 . S
C1244 H1269 0.950 . S
C1245 N1240 1.332 . S
C1245 C1244 1.382 . S
C1245 H1255 0.948 . S
N1246 Co1224 2.282 . S
N1246 C1250 1.332 . S
N1246 C1251 1.332 . S
C1247 C1248 1.388 . S
C1247 C1251 1.382 . S
C1247 H1270 0.950 . S
C1248 C1247 1.388 . S
C1248 C1249 1.386 . S
C1249 C1248 1.386 . S
C1249 C1250 1.382 . S
C1249 H1271 0.950 . S
C1250 N1246 1.332 . S
C1250 C1249 1.382 . S
C1250 H1252 0.952 . S
C1251 N1246 1.332 . S
C1251 C1247 1.382 . S
C1251 H1253 0.948 . S
H1252 C1250 0.952 . S
H1253 C1251 0.948 . S
H1254 C1243 0.952 . S
H1255 C1245 0.948 . S
C1256 C1222 1.395 . S
C1256 C1226 1.391 . S
C1257 C1219 1.389 . S
C1257 C1239 1.392 . S
C1258 C1229 1.392 . S
C1258 C1231 1.389 . S
C1259 C1234 1.395 . S
C1259 C1236 1.391 . S
H1260 C1220 0.951 . S
H1261 C1221 0.950 . S
H1262 C1227 0.949 . S
H1263 C1228 0.950 . S
H1264 C1232 0.951 . S
H1265 C1233 0.950 . S
H1266 C1237 0.949 . S
H1267 C1238 0.950 . S
H1268 C1242 0.950 . S
H1269 C1244 0.950 . S
H1270 C1247 0.950 . S
H1271 C1249 0.950 . S
C1272 C1273 1.391 . S
C1272 C1274 1.394 . S
C1272 H1288 0.931 . S
C1273 C1272 1.391 . S
C1273 C1277 1.376 . S
C1274 C1272 1.394 . S
C1274 C1275 1.369 . S
C1274 C1278 1.531 . S
C1275 C1274 1.369 . S
C1275 C1276 1.410 . S
C1275 C1283 1.503 . S
C1276 C1275 1.410 . S
C1276 C1277 1.392 . S
C1276 C1279 1.511 . S
C1277 C1273 1.376 . S
C1277 C1276 1.392 . S
C1277 H1289 0.929 . S
C1278 C1274 1.531 . S
C1278 H1290 0.960 . S
C1278 H1291 0.962 . S
C1278 H1292 0.960 . S
C1279 C1276 1.511 . S
C1279 H1293 0.961 . S
C1279 H1294 0.961 . S
C1279 H1295 0.961 . S
C1280 C1281 1.370 . S
C1280 C1282 1.363 . S
C1280 H1296 0.931 . S
C1281 C1280 1.370 . S
C1281 C1285 1.408 . S
C1282 C1280 1.363 . S
C1282 C1283 1.370 . S
C1282 C1286 1.524 . S
C1283 C1275 1.503 . S
C1283 C1282 1.370 . S
C1283 C1284 1.403 . S
C1284 C1283 1.403 . S
C1284 C1285 1.404 . S
C1284 C1287 1.539 . S
C1285 C1281 1.408 . S
C1285 C1284 1.404 . S
C1285 H1297 0.930 . S
C1286 C1282 1.524 . S
C1286 H1298 0.956 . S
C1286 H1299 0.961 . S
C1286 H1300 0.961 . S
C1287 C1284 1.539 . S
C1287 H1301 0.958 . S
C1287 H1302 0.961 . S
C1287 H1303 0.960 . S
H1288 C1272 0.931 . S
H1289 C1277 0.929 . S
H1290 C1278 0.960 . S
H1291 C1278 0.962 . S
H1292 C1278 0.960 . S
H1293 C1279 0.961 . S
H1294 C1279 0.961 . S
H1295 C1279 0.961 . S
H1296 C1280 0.931 . S
H1297 C1285 0.930 . S
H1298 C1286 0.956 . S
H1299 C1286 0.961 . S
H1300 C1286 0.961 . S
H1301 C1287 0.958 . S
H1302 C1287 0.961 . S
H1303 C1287 0.960 . S
C1304 C1305 1.391 . S
C1304 C1306 1.394 . S
C1304 H1320 0.931 . S
C1305 C1304 1.391 . S
C1305 C1309 1.376 . S
C1306 C1304 1.394 . S
C1306 C1307 1.369 . S
C1306 C1310 1.531 . S
C1307 C1306 1.369 . S
C1307 C1308 1.410 . S
C1307 C1315 1.503 . S
C1308 C1307 1.410 . S
C1308 C1309 1.392 . S
C1308 C1311 1.511 . S
C1309 C1305 1.376 . S
C1309 C1308 1.392 . S
C1309 H1321 0.929 . S
C1310 C1306 1.531 . S
C1310 H1322 0.960 . S
C1310 H1323 0.962 . S
C1310 H1324 0.960 . S
C1311 C1308 1.511 . S
C1311 H1325 0.961 . S
C1311 H1326 0.961 . S
C1311 H1327 0.961 . S
C1312 C1313 1.370 . S
C1312 C1314 1.363 . S
C1312 H1328 0.931 . S
C1313 C1312 1.370 . S
C1313 C1317 1.408 . S
C1314 C1312 1.363 . S
C1314 C1315 1.370 . S
C1314 C1318 1.524 . S
C1315 C1307 1.503 . S
C1315 C1314 1.370 . S
C1315 C1316 1.403 . S
C1316 C1315 1.403 . S
C1316 C1317 1.404 . S
C1316 C1319 1.539 . S
C1317 C1313 1.408 . S
C1317 C1316 1.404 . S
C1317 H1329 0.930 . S
C1318 C1314 1.524 . S
C1318 H1330 0.956 . S
C1318 H1331 0.961 . S
C1318 H1332 0.961 . S
C1319 C1316 1.539 . S
C1319 H1333 0.958 . S
C1319 H1334 0.961 . S
C1319 H1335 0.960 . S
H1320 C1304 0.931 . S
H1321 C1309 0.929 . S
H1322 C1310 0.960 . S
H1323 C1310 0.962 . S
H1324 C1310 0.960 . S
H1325 C1311 0.961 . S
H1326 C1311 0.961 . S
H1327 C1311 0.961 . S
H1328 C1312 0.931 . S
H1329 C1317 0.930 . S
H1330 C1318 0.956 . S
H1331 C1318 0.961 . S
H1332 C1318 0.961 . S
H1333 C1319 0.958 . S
H1334 C1319 0.961 . S
H1335 C1319 0.960 . S
C1336 C1337 1.391 . S
C1336 C1338 1.394 . S
C1336 H1352 0.931 . S
C1337 C1336 1.391 . S
C1337 C1341 1.376 . S
C1338 C1336 1.394 . S
C1338 C1339 1.369 . S
C1338 C1342 1.531 . S
C1339 C1338 1.369 . S
C1339 C1340 1.410 . S
C1339 C1347 1.503 . S
C1340 C1339 1.410 . S
C1340 C1341 1.392 . S
C1340 C1343 1.511 . S
C1341 C1337 1.376 . S
C1341 C1340 1.392 . S
C1341 H1353 0.929 . S
C1342 C1338 1.531 . S
C1342 H1354 0.960 . S
C1342 H1355 0.962 . S
C1342 H1356 0.960 . S
C1343 C1340 1.511 . S
C1343 H1357 0.961 . S
C1343 H1358 0.961 . S
C1343 H1359 0.961 . S
C1344 C1345 1.370 . S
C1344 C1346 1.363 . S
C1344 H1360 0.931 . S
C1345 C1344 1.370 . S
C1345 C1349 1.408 . S
C1346 C1344 1.363 . S
C1346 C1347 1.370 . S
C1346 C1350 1.524 . S
C1347 C1339 1.503 . S
C1347 C1346 1.370 . S
C1347 C1348 1.403 . S
C1348 C1347 1.403 . S
C1348 C1349 1.404 . S
C1348 C1351 1.539 . S
C1349 C1345 1.408 . S
C1349 C1348 1.404 . S
C1349 H1361 0.930 . S
C1350 C1346 1.524 . S
C1350 H1362 0.956 . S
C1350 H1363 0.961 . S
C1350 H1364 0.961 . S
C1351 C1348 1.539 . S
C1351 H1365 0.958 . S
C1351 H1366 0.961 . S
C1351 H1367 0.960 . S
H1352 C1336 0.931 . S
H1353 C1341 0.929 . S
H1354 C1342 0.960 . S
H1355 C1342 0.962 . S
H1356 C1342 0.960 . S
H1357 C1343 0.961 . S
H1358 C1343 0.961 . S
H1359 C1343 0.961 . S
H1360 C1344 0.931 . S
H1361 C1349 0.930 . S
H1362 C1350 0.956 . S
H1363 C1350 0.961 . S
H1364 C1350 0.961 . S
H1365 C1351 0.958 . S
H1366 C1351 0.961 . S
H1367 C1351 0.960 . S
C1368 C1369 1.391 . S
C1368 C1370 1.394 . S
C1368 H1384 0.931 . S
C1369 C1368 1.391 . S
C1369 C1373 1.376 . S
C1370 C1368 1.394 . S
C1370 C1371 1.369 . S
C1370 C1374 1.531 . S
C1371 C1370 1.369 . S
C1371 C1372 1.410 . S
C1371 C1379 1.503 . S
C1372 C1371 1.410 . S
C1372 C1373 1.392 . S
C1372 C1375 1.511 . S
C1373 C1369 1.376 . S
C1373 C1372 1.392 . S
C1373 H1385 0.929 . S
C1374 C1370 1.531 . S
C1374 H1386 0.960 . S
C1374 H1387 0.962 . S
C1374 H1388 0.960 . S
C1375 C1372 1.511 . S
C1375 H1389 0.961 . S
C1375 H1390 0.961 . S
C1375 H1391 0.961 . S
C1376 C1377 1.370 . S
C1376 C1378 1.363 . S
C1376 H1392 0.931 . S
C1377 C1376 1.370 . S
C1377 C1381 1.408 . S
C1378 C1376 1.363 . S
C1378 C1379 1.370 . S
C1378 C1382 1.524 . S
C1379 C1371 1.503 . S
C1379 C1378 1.370 . S
C1379 C1380 1.403 . S
C1380 C1379 1.403 . S
C1380 C1381 1.404 . S
C1380 C1383 1.539 . S
C1381 C1377 1.408 . S
C1381 C1380 1.404 . S
C1381 H1393 0.930 . S
C1382 C1378 1.524 . S
C1382 H1394 0.956 . S
C1382 H1395 0.961 . S
C1382 H1396 0.961 . S
C1383 C1380 1.539 . S
C1383 H1397 0.958 . S
C1383 H1398 0.961 . S
C1383 H1399 0.960 . S
H1384 C1368 0.931 . S
H1385 C1373 0.929 . S
H1386 C1374 0.960 . S
H1387 C1374 0.962 . S
H1388 C1374 0.960 . S
H1389 C1375 0.961 . S
H1390 C1375 0.961 . S
H1391 C1375 0.961 . S
H1392 C1376 0.931 . S
H1393 C1381 0.930 . S
H1394 C1382 0.956 . S
H1395 C1382 0.961 . S
H1396 C1382 0.961 . S
H1397 C1383 0.958 . S
H1398 C1383 0.961 . S
H1399 C1383 0.960 . S
C1400 C1401 1.391 . S
C1400 C1402 1.394 . S
C1400 H1416 0.931 . S
C1401 C1400 1.391 . S
C1401 C1405 1.376 . S
C1402 C1400 1.394 . S
C1402 C1403 1.369 . S
C1402 C1406 1.531 . S
C1403 C1402 1.369 . S
C1403 C1404 1.410 . S
C1403 C1411 1.503 . S
C1404 C1403 1.410 . S
C1404 C1405 1.392 . S
C1404 C1407 1.511 . S
C1405 C1401 1.376 . S
C1405 C1404 1.392 . S
C1405 H1417 0.929 . S
C1406 C1402 1.531 . S
C1406 H1418 0.960 . S
C1406 H1419 0.962 . S
C1406 H1420 0.960 . S
C1407 C1404 1.511 . S
C1407 H1421 0.961 . S
C1407 H1422 0.961 . S
C1407 H1423 0.961 . S
C1408 C1409 1.370 . S
C1408 C1410 1.363 . S
C1408 H1424 0.931 . S
C1409 C1408 1.370 . S
C1409 C1413 1.408 . S
C1410 C1408 1.363 . S
C1410 C1411 1.370 . S
C1410 C1414 1.524 . S
C1411 C1403 1.503 . S
C1411 C1410 1.370 . S
C1411 C1412 1.403 . S
C1412 C1411 1.403 . S
C1412 C1413 1.404 . S
C1412 C1415 1.539 . S
C1413 C1409 1.408 . S
C1413 C1412 1.404 . S
C1413 H1425 0.930 . S
C1414 C1410 1.524 . S
C1414 H1426 0.956 . S
C1414 H1427 0.961 . S
C1414 H1428 0.961 . S
C1415 C1412 1.539 . S
C1415 H1429 0.958 . S
C1415 H1430 0.961 . S
C1415 H1431 0.960 . S
H1416 C1400 0.931 . S
H1417 C1405 0.929 . S
H1418 C1406 0.960 . S
H1419 C1406 0.962 . S
H1420 C1406 0.960 . S
H1421 C1407 0.961 . S
H1422 C1407 0.961 . S
H1423 C1407 0.961 . S
H1424 C1408 0.931 . S
H1425 C1413 0.930 . S
H1426 C1414 0.956 . S
H1427 C1414 0.961 . S
H1428 C1414 0.961 . S
H1429 C1415 0.958 . S
H1430 C1415 0.961 . S
H1431 C1415 0.960 . S
C1432 C1433 1.391 . S
C1432 C1434 1.394 . S
C1432 H1448 0.931 . S
C1433 C1432 1.391 . S
C1433 C1437 1.376 . S
C1434 C1432 1.394 . S
C1434 C1435 1.369 . S
C1434 C1438 1.531 . S
C1435 C1434 1.369 . S
C1435 C1436 1.410 . S
C1435 C1443 1.503 . S
C1436 C1435 1.410 . S
C1436 C1437 1.392 . S
C1436 C1439 1.511 . S
C1437 C1433 1.376 . S
C1437 C1436 1.392 . S
C1437 H1449 0.929 . S
C1438 C1434 1.531 . S
C1438 H1450 0.960 . S
C1438 H1451 0.962 . S
C1438 H1452 0.960 . S
C1439 C1436 1.511 . S
C1439 H1453 0.961 . S
C1439 H1454 0.961 . S
C1439 H1455 0.961 . S
C1440 C1441 1.370 . S
C1440 C1442 1.363 . S
C1440 H1456 0.931 . S
C1441 C1440 1.370 . S
C1441 C1445 1.408 . S
C1442 C1440 1.363 . S
C1442 C1443 1.370 . S
C1442 C1446 1.524 . S
C1443 C1435 1.503 . S
C1443 C1442 1.370 . S
C1443 C1444 1.403 . S
C1444 C1443 1.403 . S
C1444 C1445 1.404 . S
C1444 C1447 1.539 . S
C1445 C1441 1.408 . S
C1445 C1444 1.404 . S
C1445 H1457 0.930 . S
C1446 C1442 1.524 . S
C1446 H1458 0.956 . S
C1446 H1459 0.961 . S
C1446 H1460 0.961 . S
C1447 C1444 1.539 . S
C1447 H1461 0.958 . S
C1447 H1462 0.961 . S
C1447 H1463 0.960 . S
H1448 C1432 0.931 . S
H1449 C1437 0.929 . S
H1450 C1438 0.960 . S
H1451 C1438 0.962 . S
H1452 C1438 0.960 . S
H1453 C1439 0.961 . S
H1454 C1439 0.961 . S
H1455 C1439 0.961 . S
H1456 C1440 0.931 . S
H1457 C1445 0.930 . S
H1458 C1446 0.956 . S
H1459 C1446 0.961 . S
H1460 C1446 0.961 . S
H1461 C1447 0.958 . S
H1462 C1447 0.961 . S
H1463 C1447 0.960 . S
C1464 C1465 1.391 . S
C1464 C1466 1.394 . S
C1464 H1480 0.931 . S
C1465 C1464 1.391 . S
C1465 C1469 1.376 . S
C1466 C1464 1.394 . S
C1466 C1467 1.369 . S
C1466 C1470 1.531 . S
C1467 C1466 1.369 . S
C1467 C1468 1.410 . S
C1467 C1475 1.503 . S
C1468 C1467 1.410 . S
C1468 C1469 1.392 . S
C1468 C1471 1.511 . S
C1469 C1465 1.376 . S
C1469 C1468 1.392 . S
C1469 H1481 0.929 . S
C1470 C1466 1.531 . S
C1470 H1482 0.960 . S
C1470 H1483 0.962 . S
C1470 H1484 0.960 . S
C1471 C1468 1.511 . S
C1471 H1485 0.961 . S
C1471 H1486 0.961 . S
C1471 H1487 0.961 . S
C1472 C1473 1.370 . S
C1472 C1474 1.363 . S
C1472 H1488 0.931 . S
C1473 C1472 1.370 . S
C1473 C1477 1.408 . S
C1474 C1472 1.363 . S
C1474 C1475 1.370 . S
C1474 C1478 1.524 . S
C1475 C1467 1.503 . S
C1475 C1474 1.370 . S
C1475 C1476 1.403 . S
C1476 C1475 1.403 . S
C1476 C1477 1.404 . S
C1476 C1479 1.539 . S
C1477 C1473 1.408 . S
C1477 C1476 1.404 . S
C1477 H1489 0.930 . S
C1478 C1474 1.524 . S
C1478 H1490 0.956 . S
C1478 H1491 0.961 . S
C1478 H1492 0.961 . S
C1479 C1476 1.539 . S
C1479 H1493 0.958 . S
C1479 H1494 0.961 . S
C1479 H1495 0.960 . S
H1480 C1464 0.931 . S
H1481 C1469 0.929 . S
H1482 C1470 0.960 . S
H1483 C1470 0.962 . S
H1484 C1470 0.960 . S
H1485 C1471 0.961 . S
H1486 C1471 0.961 . S
H1487 C1471 0.961 . S
H1488 C1472 0.931 . S
H1489 C1477 0.930 . S
H1490 C1478 0.956 . S
H1491 C1478 0.961 . S
H1492 C1478 0.961 . S
H1493 C1479 0.958 . S
H1494 C1479 0.961 . S
H1495 C1479 0.960 . S
C1496 C1497 1.391 . S
C1496 C1498 1.394 . S
C1496 H1512 0.931 . S
C1497 C1496 1.391 . S
C1497 C1501 1.376 . S
C1498 C1496 1.394 . S
C1498 C1499 1.369 . S
C1498 C1502 1.531 . S
C1499 C1498 1.369 . S
C1499 C1500 1.410 . S
C1499 C1507 1.503 . S
C1500 C1499 1.410 . S
C1500 C1501 1.392 . S
C1500 C1503 1.511 . S
C1501 C1497 1.376 . S
C1501 C1500 1.392 . S
C1501 H1513 0.929 . S
C1502 C1498 1.531 . S
C1502 H1514 0.960 . S
C1502 H1515 0.962 . S
C1502 H1516 0.960 . S
C1503 C1500 1.511 . S
C1503 H1517 0.961 . S
C1503 H1518 0.961 . S
C1503 H1519 0.961 . S
C1504 C1505 1.370 . S
C1504 C1506 1.363 . S
C1504 H1520 0.931 . S
C1505 C1504 1.370 . S
C1505 C1509 1.408 . S
C1506 C1504 1.363 . S
C1506 C1507 1.370 . S
C1506 C1510 1.524 . S
C1507 C1499 1.503 . S
C1507 C1506 1.370 . S
C1507 C1508 1.403 . S
C1508 C1507 1.403 . S
C1508 C1509 1.404 . S
C1508 C1511 1.539 . S
C1509 C1505 1.408 . S
C1509 C1508 1.404 . S
C1509 H1521 0.930 . S
C1510 C1506 1.524 . S
C1510 H1522 0.956 . S
C1510 H1523 0.961 . S
C1510 H1524 0.961 . S
C1511 C1508 1.539 . S
C1511 H1525 0.958 . S
C1511 H1526 0.961 . S
C1511 H1527 0.960 . S
H1512 C1496 0.931 . S
H1513 C1501 0.929 . S
H1514 C1502 0.960 . S
H1515 C1502 0.962 . S
H1516 C1502 0.960 . S
H1517 C1503 0.961 . S
H1518 C1503 0.961 . S
H1519 C1503 0.961 . S
H1520 C1504 0.931 . S
H1521 C1509 0.930 . S
H1522 C1510 0.956 . S
H1523 C1510 0.961 . S
H1524 C1510 0.961 . S
H1525 C1511 0.958 . S
H1526 C1511 0.961 . S
H1527 C1511 0.960 . S
C1528 C1529 1.391 . S
C1528 C1530 1.394 . S
C1528 H1544 0.931 . S
C1529 C1528 1.391 . S
C1529 C1533 1.376 . S
C1530 C1528 1.394 . S
C1530 C1531 1.369 . S
C1530 C1534 1.531 . S
C1531 C1530 1.369 . S
C1531 C1532 1.410 . S
C1531 C1539 1.503 . S
C1532 C1531 1.410 . S
C1532 C1533 1.392 . S
C1532 C1535 1.511 . S
C1533 C1529 1.376 . S
C1533 C1532 1.392 . S
C1533 H1545 0.929 . S
C1534 C1530 1.531 . S
C1534 H1546 0.960 . S
C1534 H1547 0.962 . S
C1534 H1548 0.960 . S
C1535 C1532 1.511 . S
C1535 H1549 0.961 . S
C1535 H1550 0.961 . S
C1535 H1551 0.961 . S
C1536 C1537 1.370 . S
C1536 C1538 1.363 . S
C1536 H1552 0.931 . S
C1537 C1536 1.370 . S
C1537 C1541 1.408 . S
C1538 C1536 1.363 . S
C1538 C1539 1.370 . S
C1538 C1542 1.524 . S
C1539 C1531 1.503 . S
C1539 C1538 1.370 . S
C1539 C1540 1.403 . S
C1540 C1539 1.403 . S
C1540 C1541 1.404 . S
C1540 C1543 1.539 . S
C1541 C1537 1.408 . S
C1541 C1540 1.404 . S
C1541 H1553 0.930 . S
C1542 C1538 1.524 . S
C1542 H1554 0.956 . S
C1542 H1555 0.961 . S
C1542 H1556 0.961 . S
C1543 C1540 1.539 . S
C1543 H1557 0.958 . S
C1543 H1558 0.961 . S
C1543 H1559 0.960 . S
H1544 C1528 0.931 . S
H1545 C1533 0.929 . S
H1546 C1534 0.960 . S
H1547 C1534 0.962 . S
H1548 C1534 0.960 . S
H1549 C1535 0.961 . S
H1550 C1535 0.961 . S
H1551 C1535 0.961 . S
H1552 C1536 0.931 . S
H1553 C1541 0.930 . S
H1554 C1542 0.956 . S
H1555 C1542 0.961 . S
H1556 C1542 0.961 . S
H1557 C1543 0.958 . S
H1558 C1543 0.961 . S
H1559 C1543 0.960 . S
C1560 C1561 1.391 . S
C1560 C1562 1.394 . S
C1560 H1576 0.931 . S
C1561 C1560 1.391 . S
C1561 C1565 1.376 . S
C1562 C1560 1.394 . S
C1562 C1563 1.369 . S
C1562 C1566 1.531 . S
C1563 C1562 1.369 . S
C1563 C1564 1.410 . S
C1563 C1571 1.503 . S
C1564 C1563 1.410 . S
C1564 C1565 1.392 . S
C1564 C1567 1.511 . S
C1565 C1561 1.376 . S
C1565 C1564 1.392 . S
C1565 H1577 0.929 . S
C1566 C1562 1.531 . S
C1566 H1578 0.960 . S
C1566 H1579 0.962 . S
C1566 H1580 0.960 . S
C1567 C1564 1.511 . S
C1567 H1581 0.961 . S
C1567 H1582 0.961 . S
C1567 H1583 0.961 . S
C1568 C1569 1.370 . S
C1568 C1570 1.363 . S
C1568 H1584 0.931 . S
C1569 C1568 1.370 . S
C1569 C1573 1.408 . S
C1570 C1568 1.363 . S
C1570 C1571 1.370 . S
C1570 C1574 1.524 . S
C1571 C1563 1.503 . S
C1571 C1570 1.370 . S
C1571 C1572 1.403 . S
C1572 C1571 1.403 . S
C1572 C1573 1.404 . S
C1572 C1575 1.539 . S
C1573 C1569 1.408 . S
C1573 C1572 1.404 . S
C1573 H1585 0.930 . S
C1574 C1570 1.524 . S
C1574 H1586 0.956 . S
C1574 H1587 0.961 . S
C1574 H1588 0.961 . S
C1575 C1572 1.539 . S
C1575 H1589 0.958 . S
C1575 H1590 0.961 . S
C1575 H1591 0.960 . S
H1576 C1560 0.931 . S
H1577 C1565 0.929 . S
H1578 C1566 0.960 . S
H1579 C1566 0.962 . S
H1580 C1566 0.960 . S
H1581 C1567 0.961 . S
H1582 C1567 0.961 . S
H1583 C1567 0.961 . S
H1584 C1568 0.931 . S
H1585 C1573 0.930 . S
H1586 C1574 0.956 . S
H1587 C1574 0.961 . S
H1588 C1574 0.961 . S
H1589 C1575 0.958 . S
H1590 C1575 0.961 . S
H1591 C1575 0.960 . S
C1592 C1593 1.391 . S
C1592 C1594 1.394 . S
C1592 H1608 0.931 . S
C1593 C1592 1.391 . S
C1593 C1597 1.376 . S
C1594 C1592 1.394 . S
C1594 C1595 1.369 . S
C1594 C1598 1.531 . S
C1595 C1594 1.369 . S
C1595 C1596 1.410 . S
C1595 C1603 1.503 . S
C1596 C1595 1.410 . S
C1596 C1597 1.392 . S
C1596 C1599 1.511 . S
C1597 C1593 1.376 . S
C1597 C1596 1.392 . S
C1597 H1609 0.929 . S
C1598 C1594 1.531 . S
C1598 H1610 0.960 . S
C1598 H1611 0.962 . S
C1598 H1612 0.960 . S
C1599 C1596 1.511 . S
C1599 H1613 0.961 . S
C1599 H1614 0.961 . S
C1599 H1615 0.961 . S
C1600 C1601 1.370 . S
C1600 C1602 1.363 . S
C1600 H1616 0.931 . S
C1601 C1600 1.370 . S
C1601 C1605 1.408 . S
C1602 C1600 1.363 . S
C1602 C1603 1.370 . S
C1602 C1606 1.524 . S
C1603 C1595 1.503 . S
C1603 C1602 1.370 . S
C1603 C1604 1.403 . S
C1604 C1603 1.403 . S
C1604 C1605 1.404 . S
C1604 C1607 1.539 . S
C1605 C1601 1.408 . S
C1605 C1604 1.404 . S
C1605 H1617 0.930 . S
C1606 C1602 1.524 . S
C1606 H1618 0.956 . S
C1606 H1619 0.961 . S
C1606 H1620 0.961 . S
C1607 C1604 1.539 . S
C1607 H1621 0.958 . S
C1607 H1622 0.961 . S
C1607 H1623 0.960 . S
H1608 C1592 0.931 . S
H1609 C1597 0.929 . S
H1610 C1598 0.960 . S
H1611 C1598 0.962 . S
H1612 C1598 0.960 . S
H1613 C1599 0.961 . S
H1614 C1599 0.961 . S
H1615 C1599 0.961 . S
H1616 C1600 0.931 . S
H1617 C1605 0.930 . S
H1618 C1606 0.956 . S
H1619 C1606 0.961 . S
H1620 C1606 0.961 . S
H1621 C1607 0.958 . S
H1622 C1607 0.961 . S
H1623 C1607 0.960 . S
C1624 C1625 1.391 . S
C1624 C1626 1.394 . S
C1624 H1640 0.931 . S
C1625 C1624 1.391 . S
C1625 C1629 1.376 . S
C1626 C1624 1.394 . S
C1626 C1627 1.369 . S
C1626 C1630 1.531 . S
C1627 C1626 1.369 . S
C1627 C1628 1.410 . S
C1627 C1635 1.503 . S
C1628 C1627 1.410 . S
C1628 C1629 1.392 . S
C1628 C1631 1.511 . S
C1629 C1625 1.376 . S
C1629 C1628 1.392 . S
C1629 H1641 0.929 . S
C1630 C1626 1.531 . S
C1630 H1642 0.960 . S
C1630 H1643 0.962 . S
C1630 H1644 0.960 . S
C1631 C1628 1.511 . S
C1631 H1645 0.961 . S
C1631 H1646 0.961 . S
C1631 H1647 0.961 . S
C1632 C1633 1.370 . S
C1632 C1634 1.363 . S
C1632 H1648 0.931 . S
C1633 C1632 1.370 . S
C1633 C1637 1.408 . S
C1634 C1632 1.363 . S
C1634 C1635 1.370 . S
C1634 C1638 1.524 . S
C1635 C1627 1.503 . S
C1635 C1634 1.370 . S
C1635 C1636 1.403 . S
C1636 C1635 1.403 . S
C1636 C1637 1.404 . S
C1636 C1639 1.539 . S
C1637 C1633 1.408 . S
C1637 C1636 1.404 . S
C1637 H1649 0.930 . S
C1638 C1634 1.524 . S
C1638 H1650 0.956 . S
C1638 H1651 0.961 . S
C1638 H1652 0.961 . S
C1639 C1636 1.539 . S
C1639 H1653 0.958 . S
C1639 H1654 0.961 . S
C1639 H1655 0.960 . S
H1640 C1624 0.931 . S
H1641 C1629 0.929 . S
H1642 C1630 0.960 . S
H1643 C1630 0.962 . S
H1644 C1630 0.960 . S
H1645 C1631 0.961 . S
H1646 C1631 0.961 . S
H1647 C1631 0.961 . S
H1648 C1632 0.931 . S
H1649 C1637 0.930 . S
H1650 C1638 0.956 . S
H1651 C1638 0.961 . S
H1652 C1638 0.961 . S
H1653 C1639 0.958 . S
H1654 C1639 0.961 . S
H1655 C1639 0.960 . S
C1656 C1657 1.391 . S
C1656 C1658 1.394 . S
C1656 H1672 0.931 . S
C1657 C1656 1.391 . S
C1657 C1661 1.376 . S
C1658 C1656 1.394 . S
C1658 C1659 1.369 . S
C1658 C1662 1.531 . S
C1659 C1658 1.369 . S
C1659 C1660 1.410 . S
C1659 C1667 1.503 . S
C1660 C1659 1.410 . S
C1660 C1661 1.392 . S
C1660 C1663 1.511 . S
C1661 C1657 1.376 . S
C1661 C1660 1.392 . S
C1661 H1673 0.929 . S
C1662 C1658 1.531 . S
C1662 H1674 0.960 . S
C1662 H1675 0.962 . S
C1662 H1676 0.960 . S
C1663 C1660 1.511 . S
C1663 H1677 0.961 . S
C1663 H1678 0.961 . S
C1663 H1679 0.961 . S
C1664 C1665 1.370 . S
C1664 C1666 1.363 . S
C1664 H1680 0.931 . S
C1665 C1664 1.370 . S
C1665 C1669 1.408 . S
C1666 C1664 1.363 . S
C1666 C1667 1.370 . S
C1666 C1670 1.524 . S
C1667 C1659 1.503 . S
C1667 C1666 1.370 . S
C1667 C1668 1.403 . S
C1668 C1667 1.403 . S
C1668 C1669 1.404 . S
C1668 C1671 1.539 . S
C1669 C1665 1.408 . S
C1669 C1668 1.404 . S
C1669 H1681 0.930 . S
C1670 C1666 1.524 . S
C1670 H1682 0.956 . S
C1670 H1683 0.961 . S
C1670 H1684 0.961 . S
C1671 C1668 1.539 . S
C1671 H1685 0.958 . S
C1671 H1686 0.961 . S
C1671 H1687 0.960 . S
H1672 C1656 0.931 . S
H1673 C1661 0.929 . S
H1674 C1662 0.960 . S
H1675 C1662 0.962 . S
H1676 C1662 0.960 . S
H1677 C1663 0.961 . S
H1678 C1663 0.961 . S
H1679 C1663 0.961 . S
H1680 C1664 0.931 . S
H1681 C1669 0.930 . S
H1682 C1670 0.956 . S
H1683 C1670 0.961 . S
H1684 C1670 0.961 . S
H1685 C1671 0.958 . S
H1686 C1671 0.961 . S
H1687 C1671 0.960 . S
C1688 C1689 1.391 . S
C1688 C1690 1.394 . S
C1688 H1704 0.931 . S
C1689 C1688 1.391 . S
C1689 C1693 1.376 . S
C1690 C1688 1.394 . S
C1690 C1691 1.369 . S
C1690 C1694 1.531 . S
C1691 C1690 1.369 . S
C1691 C1692 1.410 . S
C1691 C1699 1.503 . S
C1692 C1691 1.410 . S
C1692 C1693 1.392 . S
C1692 C1695 1.511 . S
C1693 C1689 1.376 . S
C1693 C1692 1.392 . S
C1693 H1705 0.929 . S
C1694 C1690 1.531 . S
C1694 H1706 0.960 . S
C1694 H1707 0.962 . S
C1694 H1708 0.960 . S
C1695 C1692 1.511 . S
C1695 H1709 0.961 . S
C1695 H1710 0.961 . S
C1695 H1711 0.961 . S
C1696 C1697 1.370 . S
C1696 C1698 1.363 . S
C1696 H1712 0.931 . S
C1697 C1696 1.370 . S
C1697 C1701 1.408 . S
C1698 C1696 1.363 . S
C1698 C1699 1.370 . S
C1698 C1702 1.524 . S
C1699 C1691 1.503 . S
C1699 C1698 1.370 . S
C1699 C1700 1.403 . S
C1700 C1699 1.403 . S
C1700 C1701 1.404 . S
C1700 C1703 1.539 . S
C1701 C1697 1.408 . S
C1701 C1700 1.404 . S
C1701 H1713 0.930 . S
C1702 C1698 1.524 . S
C1702 H1714 0.956 . S
C1702 H1715 0.961 . S
C1702 H1716 0.961 . S
C1703 C1700 1.539 . S
C1703 H1717 0.958 . S
C1703 H1718 0.961 . S
C1703 H1719 0.960 . S
H1704 C1688 0.931 . S
H1705 C1693 0.929 . S
H1706 C1694 0.960 . S
H1707 C1694 0.962 . S
H1708 C1694 0.960 . S
H1709 C1695 0.961 . S
H1710 C1695 0.961 . S
H1711 C1695 0.961 . S
H1712 C1696 0.931 . S
H1713 C1701 0.930 . S
H1714 C1702 0.956 . S
H1715 C1702 0.961 . S
H1716 C1702 0.961 . S
H1717 C1703 0.958 . S
H1718 C1703 0.961 . S
H1719 C1703 0.960 . S
C1720 C1721 1.391 . S
C1720 C1722 1.394 . S
C1720 H1736 0.931 . S
C1721 C1720 1.391 . S
C1721 C1725 1.376 . S
C1722 C1720 1.394 . S
C1722 C1723 1.369 . S
C1722 C1726 1.531 . S
C1723 C1722 1.369 . S
C1723 C1724 1.410 . S
C1723 C1731 1.503 . S
C1724 C1723 1.410 . S
C1724 C1725 1.392 . S
C1724 C1727 1.511 . S
C1725 C1721 1.376 . S
C1725 C1724 1.392 . S
C1725 H1737 0.929 . S
C1726 C1722 1.531 . S
C1726 H1738 0.960 . S
C1726 H1739 0.962 . S
C1726 H1740 0.960 . S
C1727 C1724 1.511 . S
C1727 H1741 0.961 . S
C1727 H1742 0.961 . S
C1727 H1743 0.961 . S
C1728 C1729 1.370 . S
C1728 C1730 1.363 . S
C1728 H1744 0.931 . S
C1729 C1728 1.370 . S
C1729 C1733 1.408 . S
C1730 C1728 1.363 . S
C1730 C1731 1.370 . S
C1730 C1734 1.524 . S
C1731 C1723 1.503 . S
C1731 C1730 1.370 . S
C1731 C1732 1.403 . S
C1732 C1731 1.403 . S
C1732 C1733 1.404 . S
C1732 C1735 1.539 . S
C1733 C1729 1.408 . S
C1733 C1732 1.404 . S
C1733 H1745 0.930 . S
C1734 C1730 1.524 . S
C1734 H1746 0.956 . S
C1734 H1747 0.961 . S
C1734 H1748 0.961 . S
C1735 C1732 1.539 . S
C1735 H1749 0.958 . S
C1735 H1750 0.961 . S
C1735 H1751 0.960 . S
H1736 C1720 0.931 . S
H1737 C1725 0.929 . S
H1738 C1726 0.960 . S
H1739 C1726 0.962 . S
H1740 C1726 0.960 . S
H1741 C1727 0.961 . S
H1742 C1727 0.961 . S
H1743 C1727 0.961 . S
H1744 C1728 0.931 . S
H1745 C1733 0.930 . S
H1746 C1734 0.956 . S
H1747 C1734 0.961 . S
H1748 C1734 0.961 . S
H1749 C1735 0.958 . S
H1750 C1735 0.961 . S
H1751 C1735 0.960 . S
C1752 C1753 1.391 . S
C1752 C1754 1.394 . S
C1752 H1768 0.931 . S
C1753 C1752 1.391 . S
C1753 C1757 1.376 . S
C1754 C1752 1.394 . S
C1754 C1755 1.369 . S
C1754 C1758 1.531 . S
C1755 C1754 1.369 . S
C1755 C1756 1.410 . S
C1755 C1763 1.503 . S
C1756 C1755 1.410 . S
C1756 C1757 1.392 . S
C1756 C1759 1.511 . S
C1757 C1753 1.376 . S
C1757 C1756 1.392 . S
C1757 H1769 0.929 . S
C1758 C1754 1.531 . S
C1758 H1770 0.960 . S
C1758 H1771 0.962 . S
C1758 H1772 0.960 . S
C1759 C1756 1.511 . S
C1759 H1773 0.961 . S
C1759 H1774 0.961 . S
C1759 H1775 0.961 . S
C1760 C1761 1.370 . S
C1760 C1762 1.363 . S
C1760 H1776 0.931 . S
C1761 C1760 1.370 . S
C1761 C1765 1.408 . S
C1762 C1760 1.363 . S
C1762 C1763 1.370 . S
C1762 C1766 1.524 . S
C1763 C1755 1.503 . S
C1763 C1762 1.370 . S
C1763 C1764 1.403 . S
C1764 C1763 1.403 . S
C1764 C1765 1.404 . S
C1764 C1767 1.539 . S
C1765 C1761 1.408 . S
C1765 C1764 1.404 . S
C1765 H1777 0.930 . S
C1766 C1762 1.524 . S
C1766 H1778 0.956 . S
C1766 H1779 0.961 . S
C1766 H1780 0.961 . S
C1767 C1764 1.539 . S
C1767 H1781 0.958 . S
C1767 H1782 0.961 . S
C1767 H1783 0.960 . S
H1768 C1752 0.931 . S
H1769 C1757 0.929 . S
H1770 C1758 0.960 . S
H1771 C1758 0.962 . S
H1772 C1758 0.960 . S
H1773 C1759 0.961 . S
H1774 C1759 0.961 . S
H1775 C1759 0.961 . S
H1776 C1760 0.931 . S
H1777 C1765 0.930 . S
H1778 C1766 0.956 . S
H1779 C1766 0.961 . S
H1780 C1766 0.961 . S
H1781 C1767 0.958 . S
H1782 C1767 0.961 . S
H1783 C1767 0.960 . S
C1784 C1785 1.391 . S
C1784 C1786 1.394 . S
C1784 H1800 0.931 . S
C1785 C1784 1.391 . S
C1785 C1789 1.376 . S
C1786 C1784 1.394 . S
C1786 C1787 1.369 . S
C1786 C1790 1.531 . S
C1787 C1786 1.369 . S
C1787 C1788 1.410 . S
C1787 C1795 1.503 . S
C1788 C1787 1.410 . S
C1788 C1789 1.392 . S
C1788 C1791 1.511 . S
C1789 C1785 1.376 . S
C1789 C1788 1.392 . S
C1789 H1801 0.929 . S
C1790 C1786 1.531 . S
C1790 H1802 0.960 . S
C1790 H1803 0.962 . S
C1790 H1804 0.960 . S
C1791 C1788 1.511 . S
C1791 H1805 0.961 . S
C1791 H1806 0.961 . S
C1791 H1807 0.961 . S
C1792 C1793 1.370 . S
C1792 C1794 1.363 . S
C1792 H1808 0.931 . S
C1793 C1792 1.370 . S
C1793 C1797 1.408 . S
C1794 C1792 1.363 . S
C1794 C1795 1.370 . S
C1794 C1798 1.524 . S
C1795 C1787 1.503 . S
C1795 C1794 1.370 . S
C1795 C1796 1.403 . S
C1796 C1795 1.403 . S
C1796 C1797 1.404 . S
C1796 C1799 1.539 . S
C1797 C1793 1.408 . S
C1797 C1796 1.404 . S
C1797 H1809 0.930 . S
C1798 C1794 1.524 . S
C1798 H1810 0.956 . S
C1798 H1811 0.961 . S
C1798 H1812 0.961 . S
C1799 C1796 1.539 . S
C1799 H1813 0.958 . S
C1799 H1814 0.961 . S
C1799 H1815 0.960 . S
H1800 C1784 0.931 . S
H1801 C1789 0.929 . S
H1802 C1790 0.960 . S
H1803 C1790 0.962 . S
H1804 C1790 0.960 . S
H1805 C1791 0.961 . S
H1806 C1791 0.961 . S
H1807 C1791 0.961 . S
H1808 C1792 0.931 . S
H1809 C1797 0.930 . S
H1810 C1798 0.956 . S
H1811 C1798 0.961 . S
H1812 C1798 0.961 . S
H1813 C1799 0.958 . S
H1814 C1799 0.961 . S
H1815 C1799 0.960 . S
C1816 C1817 1.391 . S
C1816 C1818 1.394 . S
C1816 H1832 0.931 . S
C1817 C1816 1.391 . S
C1817 C1821 1.376 . S
C1818 C1816 1.394 . S
C1818 C1819 1.369 . S
C1818 C1822 1.531 . S
C1819 C1818 1.369 . S
C1819 C1820 1.410 . S
C1819 C1827 1.503 . S
C1820 C1819 1.410 . S
C1820 C1821 1.392 . S
C1820 C1823 1.511 . S
C1821 C1817 1.376 . S
C1821 C1820 1.392 . S
C1821 H1833 0.929 . S
C1822 C1818 1.531 . S
C1822 H1834 0.960 . S
C1822 H1835 0.962 . S
C1822 H1836 0.960 . S
C1823 C1820 1.511 . S
C1823 H1837 0.961 . S
C1823 H1838 0.961 . S
C1823 H1839 0.961 . S
C1824 C1825 1.370 . S
C1824 C1826 1.363 . S
C1824 H1840 0.931 . S
C1825 C1824 1.370 . S
C1825 C1829 1.408 . S
C1826 C1824 1.363 . S
C1826 C1827 1.370 . S
C1826 C1830 1.524 . S
C1827 C1819 1.503 . S
C1827 C1826 1.370 . S
C1827 C1828 1.403 . S
C1828 C1827 1.403 . S
C1828 C1829 1.404 . S
C1828 C1831 1.539 . S
C1829 C1825 1.408 . S
C1829 C1828 1.404 . S
C1829 H1841 0.930 . S
C1830 C1826 1.524 . S
C1830 H1842 0.956 . S
C1830 H1843 0.961 . S
C1830 H1844 0.961 . S
C1831 C1828 1.539 . S
C1831 H1845 0.958 . S
C1831 H1846 0.961 . S
C1831 H1847 0.960 . S
H1832 C1816 0.931 . S
H1833 C1821 0.929 . S
H1834 C1822 0.960 . S
H1835 C1822 0.962 . S
H1836 C1822 0.960 . S
H1837 C1823 0.961 . S
H1838 C1823 0.961 . S
H1839 C1823 0.961 . S
H1840 C1824 0.931 . S
H1841 C1829 0.930 . S
H1842 C1830 0.956 . S
H1843 C1830 0.961 . S
H1844 C1830 0.961 . S
H1845 C1831 0.958 . S
H1846 C1831 0.961 . S
H1847 C1831 0.960 . S
C1848 C1849 1.391 . S
C1848 C1850 1.394 . S
C1848 H1864 0.931 . S
C1849 C1848 1.391 . S
C1849 C1853 1.376 . S
C1850 C1848 1.394 . S
C1850 C1851 1.369 . S
C1850 C1854 1.531 . S
C1851 C1850 1.369 . S
C1851 C1852 1.410 . S
C1851 C1859 1.503 . S
C1852 C1851 1.410 . S
C1852 C1853 1.392 . S
C1852 C1855 1.511 . S
C1853 C1849 1.376 . S
C1853 C1852 1.392 . S
C1853 H1865 0.929 . S
C1854 C1850 1.531 . S
C1854 H1866 0.960 . S
C1854 H1867 0.962 . S
C1854 H1868 0.960 . S
C1855 C1852 1.511 . S
C1855 H1869 0.961 . S
C1855 H1870 0.961 . S
C1855 H1871 0.961 . S
C1856 C1857 1.370 . S
C1856 C1858 1.363 . S
C1856 H1872 0.931 . S
C1857 C1856 1.370 . S
C1857 C1861 1.408 . S
C1858 C1856 1.363 . S
C1858 C1859 1.370 . S
C1858 C1862 1.524 . S
C1859 C1851 1.503 . S
C1859 C1858 1.370 . S
C1859 C1860 1.403 . S
C1860 C1859 1.403 . S
C1860 C1861 1.404 . S
C1860 C1863 1.539 . S
C1861 C1857 1.408 . S
C1861 C1860 1.404 . S
C1861 H1873 0.930 . S
C1862 C1858 1.524 . S
C1862 H1874 0.956 . S
C1862 H1875 0.961 . S
C1862 H1876 0.961 . S
C1863 C1860 1.539 . S
C1863 H1877 0.958 . S
C1863 H1878 0.961 . S
C1863 H1879 0.960 . S
H1864 C1848 0.931 . S
H1865 C1853 0.929 . S
H1866 C1854 0.960 . S
H1867 C1854 0.962 . S
H1868 C1854 0.960 . S
H1869 C1855 0.961 . S
H1870 C1855 0.961 . S
H1871 C1855 0.961 . S
H1872 C1856 0.931 . S
H1873 C1861 0.930 . S
H1874 C1862 0.956 . S
H1875 C1862 0.961 . S
H1876 C1862 0.961 . S
H1877 C1863 0.958 . S
H1878 C1863 0.961 . S
H1879 C1863 0.960 . S
C1880 C1881 1.391 . S
C1880 C1882 1.394 . S
C1880 H1896 0.931 . S
C1881 C1880 1.391 . S
C1881 C1885 1.376 . S
C1882 C1880 1.394 . S
C1882 C1883 1.369 . S
C1882 C1886 1.531 . S
C1883 C1882 1.369 . S
C1883 C1884 1.410 . S
C1883 C1891 1.503 . S
C1884 C1883 1.410 . S
C1884 C1885 1.392 . S
C1884 C1887 1.511 . S
C1885 C1881 1.376 . S
C1885 C1884 1.392 . S
C1885 H1897 0.929 . S
C1886 C1882 1.531 . S
C1886 H1898 0.960 . S
C1886 H1899 0.962 . S
C1886 H1900 0.960 . S
C1887 C1884 1.511 . S
C1887 H1901 0.961 . S
C1887 H1902 0.961 . S
C1887 H1903 0.961 . S
C1888 C1889 1.370 . S
C1888 C1890 1.363 . S
C1888 H1904 0.931 . S
C1889 C1888 1.370 . S
C1889 C1893 1.408 . S
C1890 C1888 1.363 . S
C1890 C1891 1.370 . S
C1890 C1894 1.524 . S
C1891 C1883 1.503 . S
C1891 C1890 1.370 . S
C1891 C1892 1.403 . S
C1892 C1891 1.403 . S
C1892 C1893 1.404 . S
C1892 C1895 1.539 . S
C1893 C1889 1.408 . S
C1893 C1892 1.404 . S
C1893 H1905 0.930 . S
C1894 C1890 1.524 . S
C1894 H1906 0.956 . S
C1894 H1907 0.961 . S
C1894 H1908 0.961 . S
C1895 C1892 1.539 . S
C1895 H1909 0.958 . S
C1895 H1910 0.961 . S
C1895 H1911 0.960 . S
H1896 C1880 0.931 . S
H1897 C1885 0.929 . S
H1898 C1886 0.960 . S
H1899 C1886 0.962 . S
H1900 C1886 0.960 . S
H1901 C1887 0.961 . S
H1902 C1887 0.961 . S
H1903 C1887 0.961 . S
H1904 C1888 0.931 . S
H1905 C1893 0.930 . S
H1906 C1894 0.956 . S
H1907 C1894 0.961 . S
H1908 C1894 0.961 . S
H1909 C1895 0.958 . S
H1910 C1895 0.961 . S
H1911 C1895 0.960 . S
C1912 C1913 1.391 . S
C1912 C1914 1.394 . S
C1912 H1928 0.931 . S
C1913 C1912 1.391 . S
C1913 C1917 1.376 . S
C1914 C1912 1.394 . S
C1914 C1915 1.369 . S
C1914 C1918 1.531 . S
C1915 C1914 1.369 . S
C1915 C1916 1.410 . S
C1915 C1923 1.503 . S
C1916 C1915 1.410 . S
C1916 C1917 1.392 . S
C1916 C1919 1.511 . S
C1917 C1913 1.376 . S
C1917 C1916 1.392 . S
C1917 H1929 0.929 . S
C1918 C1914 1.531 . S
C1918 H1930 0.960 . S
C1918 H1931 0.962 . S
C1918 H1932 0.960 . S
C1919 C1916 1.511 . S
C1919 H1933 0.961 . S
C1919 H1934 0.961 . S
C1919 H1935 0.961 . S
C1920 C1921 1.370 . S
C1920 C1922 1.363 . S
C1920 H1936 0.931 . S
C1921 C1920 1.370 . S
C1921 C1925 1.408 . S
C1922 C1920 1.363 . S
C1922 C1923 1.370 . S
C1922 C1926 1.524 . S
C1923 C1915 1.503 . S
C1923 C1922 1.370 . S
C1923 C1924 1.403 . S
C1924 C1923 1.403 . S
C1924 C1925 1.404 . S
C1924 C1927 1.539 . S
C1925 C1921 1.408 . S
C1925 C1924 1.404 . S
C1925 H1937 0.930 . S
C1926 C1922 1.524 . S
C1926 H1938 0.956 . S
C1926 H1939 0.961 . S
C1926 H1940 0.961 . S
C1927 C1924 1.539 . S
C1927 H1941 0.958 . S
C1927 H1942 0.961 . S
C1927 H1943 0.960 . S
H1928 C1912 0.931 . S
H1929 C1917 0.929 . S
H1930 C1918 0.960 . S
H1931 C1918 0.962 . S
H1932 C1918 0.960 . S
H1933 C1919 0.961 . S
H1934 C1919 0.961 . S
H1935 C1919 0.961 . S
H1936 C1920 0.931 . S
H1937 C1925 0.930 . S
H1938 C1926 0.956 . S
H1939 C1926 0.961 . S
H1940 C1926 0.961 . S
H1941 C1927 0.958 . S
H1942 C1927 0.961 . S
H1943 C1927 0.960 . S
C1944 C1945 1.391 . S
C1944 C1946 1.394 . S
C1944 H1960 0.931 . S
C1945 C1944 1.391 . S
C1945 C1949 1.376 . S
C1946 C1944 1.394 . S
C1946 C1947 1.369 . S
C1946 C1950 1.531 . S
C1947 C1946 1.369 . S
C1947 C1948 1.410 . S
C1947 C1955 1.503 . S
C1948 C1947 1.410 . S
C1948 C1949 1.392 . S
C1948 C1951 1.511 . S
C1949 C1945 1.376 . S
C1949 C1948 1.392 . S
C1949 H1961 0.929 . S
C1950 C1946 1.531 . S
C1950 H1962 0.960 . S
C1950 H1963 0.962 . S
C1950 H1964 0.960 . S
C1951 C1948 1.511 . S
C1951 H1965 0.961 . S
C1951 H1966 0.961 . S
C1951 H1967 0.961 . S
C1952 C1953 1.370 . S
C1952 C1954 1.363 . S
C1952 H1968 0.931 . S
C1953 C1952 1.370 . S
C1953 C1957 1.408 . S
C1954 C1952 1.363 . S
C1954 C1955 1.370 . S
C1954 C1958 1.524 . S
C1955 C1947 1.503 . S
C1955 C1954 1.370 . S
C1955 C1956 1.403 . S
C1956 C1955 1.403 . S
C1956 C1957 1.404 . S
C1956 C1959 1.539 . S
C1957 C1953 1.408 . S
C1957 C1956 1.404 . S
C1957 H1969 0.930 . S
C1958 C1954 1.524 . S
C1958 H1970 0.956 . S
C1958 H1971 0.961 . S
C1958 H1972 0.961 . S
C1959 C1956 1.539 . S
C1959 H1973 0.958 . S
C1959 H1974 0.961 . S
C1959 H1975 0.960 . S
H1960 C1944 0.931 . S
H1961 C1949 0.929 . S
H1962 C1950 0.960 . S
H1963 C1950 0.962 . S
H1964 C1950 0.960 . S
H1965 C1951 0.961 . S
H1966 C1951 0.961 . S
H1967 C1951 0.961 . S
H1968 C1952 0.931 . S
H1969 C1957 0.930 . S
H1970 C1958 0.956 . S
H1971 C1958 0.961 . S
H1972 C1958 0.961 . S
H1973 C1959 0.958 . S
H1974 C1959 0.961 . S
H1975 C1959 0.960 . S
C1976 C1977 1.391 . S
C1976 C1978 1.394 . S
C1976 H1992 0.931 . S
C1977 C1976 1.391 . S
C1977 C1981 1.376 . S
C1978 C1976 1.394 . S
C1978 C1979 1.369 . S
C1978 C1982 1.531 . S
C1979 C1978 1.369 . S
C1979 C1980 1.410 . S
C1979 C1987 1.503 . S
C1980 C1979 1.410 . S
C1980 C1981 1.392 . S
C1980 C1983 1.511 . S
C1981 C1977 1.376 . S
C1981 C1980 1.392 . S
C1981 H1993 0.929 . S
C1982 C1978 1.531 . S
C1982 H1994 0.960 . S
C1982 H1995 0.962 . S
C1982 H1996 0.960 . S
C1983 C1980 1.511 . S
C1983 H1997 0.961 . S
C1983 H1998 0.961 . S
C1983 H1999 0.961 . S
C1984 C1985 1.370 . S
C1984 C1986 1.363 . S
C1984 H2000 0.931 . S
C1985 C1984 1.370 . S
C1985 C1989 1.408 . S
C1986 C1984 1.363 . S
C1986 C1987 1.370 . S
C1986 C1990 1.524 . S
C1987 C1979 1.503 . S
C1987 C1986 1.370 . S
C1987 C1988 1.403 . S
C1988 C1987 1.403 . S
C1988 C1989 1.404 . S
C1988 C1991 1.539 . S
C1989 C1985 1.408 . S
C1989 C1988 1.404 . S
C1989 H2001 0.930 . S
C1990 C1986 1.524 . S
C1990 H2002 0.956 . S
C1990 H2003 0.961 . S
C1990 H2004 0.961 . S
C1991 C1988 1.539 . S
C1991 H2005 0.958 . S
C1991 H2006 0.961 . S
C1991 H2007 0.960 . S
H1992 C1976 0.931 . S
H1993 C1981 0.929 . S
H1994 C1982 0.960 . S
H1995 C1982 0.962 . S
H1996 C1982 0.960 . S
H1997 C1983 0.961 . S
H1998 C1983 0.961 . S
H1999 C1983 0.961 . S
H2000 C1984 0.931 . S
H2001 C1989 0.930 . S
H2002 C1990 0.956 . S
H2003 C1990 0.961 . S
H2004 C1990 0.961 . S
H2005 C1991 0.958 . S
H2006 C1991 0.961 . S
H2007 C1991 0.960 . S
C2008 C2009 1.391 . S
C2008 C2010 1.394 . S
C2008 H2024 0.931 . S
C2009 C2008 1.391 . S
C2009 C2013 1.376 . S
C2010 C2008 1.394 . S
C2010 C2011 1.369 . S
C2010 C2014 1.531 . S
C2011 C2010 1.369 . S
C2011 C2012 1.410 . S
C2011 C2019 1.503 . S
C2012 C2011 1.410 . S
C2012 C2013 1.392 . S
C2012 C2015 1.511 . S
C2013 C2009 1.376 . S
C2013 C2012 1.392 . S
C2013 H2025 0.929 . S
C2014 C2010 1.531 . S
C2014 H2026 0.960 . S
C2014 H2027 0.962 . S
C2014 H2028 0.960 . S
C2015 C2012 1.511 . S
C2015 H2029 0.961 . S
C2015 H2030 0.961 . S
C2015 H2031 0.961 . S
C2016 C2017 1.370 . S
C2016 C2018 1.363 . S
C2016 H2032 0.931 . S
C2017 C2016 1.370 . S
C2017 C2021 1.408 . S
C2018 C2016 1.363 . S
C2018 C2019 1.370 . S
C2018 C2022 1.524 . S
C2019 C2011 1.503 . S
C2019 C2018 1.370 . S
C2019 C2020 1.403 . S
C2020 C2019 1.403 . S
C2020 C2021 1.404 . S
C2020 C2023 1.539 . S
C2021 C2017 1.408 . S
C2021 C2020 1.404 . S
C2021 H2033 0.930 . S
C2022 C2018 1.524 . S
C2022 H2034 0.956 . S
C2022 H2035 0.961 . S
C2022 H2036 0.961 . S
C2023 C2020 1.539 . S
C2023 H2037 0.958 . S
C2023 H2038 0.961 . S
C2023 H2039 0.960 . S
H2024 C2008 0.931 . S
H2025 C2013 0.929 . S
H2026 C2014 0.960 . S
H2027 C2014 0.962 . S
H2028 C2014 0.960 . S
H2029 C2015 0.961 . S
H2030 C2015 0.961 . S
H2031 C2015 0.961 . S
H2032 C2016 0.931 . S
H2033 C2021 0.930 . S
H2034 C2022 0.956 . S
H2035 C2022 0.961 . S
H2036 C2022 0.961 . S
H2037 C2023 0.958 . S
H2038 C2023 0.961 . S
H2039 C2023 0.960 . S
C2040 C2041 1.391 . S
C2040 C2042 1.394 . S
C2040 H2056 0.931 . S
C2041 C2040 1.391 . S
C2041 C2045 1.376 . S
C2042 C2040 1.394 . S
C2042 C2043 1.369 . S
C2042 C2046 1.531 . S
C2043 C2042 1.369 . S
C2043 C2044 1.410 . S
C2043 C2051 1.503 . S
C2044 C2043 1.410 . S
C2044 C2045 1.392 . S
C2044 C2047 1.511 . S
C2045 C2041 1.376 . S
C2045 C2044 1.392 . S
C2045 H2057 0.929 . S
C2046 C2042 1.531 . S
C2046 H2058 0.960 . S
C2046 H2059 0.962 . S
C2046 H2060 0.960 . S
C2047 C2044 1.511 . S
C2047 H2061 0.961 . S
C2047 H2062 0.961 . S
C2047 H2063 0.961 . S
C2048 C2049 1.370 . S
C2048 C2050 1.363 . S
C2048 H2064 0.931 . S
C2049 C2048 1.370 . S
C2049 C2053 1.408 . S
C2050 C2048 1.363 . S
C2050 C2051 1.370 . S
C2050 C2054 1.524 . S
C2051 C2043 1.503 . S
C2051 C2050 1.370 . S
C2051 C2052 1.403 . S
C2052 C2051 1.403 . S
C2052 C2053 1.404 . S
C2052 C2055 1.539 . S
C2053 C2049 1.408 . S
C2053 C2052 1.404 . S
C2053 H2065 0.930 . S
C2054 C2050 1.524 . S
C2054 H2066 0.956 . S
C2054 H2067 0.961 . S
C2054 H2068 0.961 . S
C2055 C2052 1.539 . S
C2055 H2069 0.958 . S
C2055 H2070 0.961 . S
C2055 H2071 0.960 . S
H2056 C2040 0.931 . S
H2057 C2045 0.929 . S
H2058 C2046 0.960 . S
H2059 C2046 0.962 . S
H2060 C2046 0.960 . S
H2061 C2047 0.961 . S
H2062 C2047 0.961 . S
H2063 C2047 0.961 . S
H2064 C2048 0.931 . S
H2065 C2053 0.930 . S
H2066 C2054 0.956 . S
H2067 C2054 0.961 . S
H2068 C2054 0.961 . S
H2069 C2055 0.958 . S
H2070 C2055 0.961 . S
H2071 C2055 0.960 . S
C2072 C2073 1.391 . S
C2072 C2074 1.394 . S
C2072 H2088 0.931 . S
C2073 C2072 1.391 . S
C2073 C2077 1.376 . S
C2074 C2072 1.394 . S
C2074 C2075 1.369 . S
C2074 C2078 1.531 . S
C2075 C2074 1.369 . S
C2075 C2076 1.410 . S
C2075 C2083 1.503 . S
C2076 C2075 1.410 . S
C2076 C2077 1.392 . S
C2076 C2079 1.511 . S
C2077 C2073 1.376 . S
C2077 C2076 1.392 . S
C2077 H2089 0.929 . S
C2078 C2074 1.531 . S
C2078 H2090 0.960 . S
C2078 H2091 0.962 . S
C2078 H2092 0.960 . S
C2079 C2076 1.511 . S
C2079 H2093 0.961 . S
C2079 H2094 0.961 . S
C2079 H2095 0.961 . S
C2080 C2081 1.370 . S
C2080 C2082 1.363 . S
C2080 H2096 0.931 . S
C2081 C2080 1.370 . S
C2081 C2085 1.408 . S
C2082 C2080 1.363 . S
C2082 C2083 1.370 . S
C2082 C2086 1.524 . S
C2083 C2075 1.503 . S
C2083 C2082 1.370 . S
C2083 C2084 1.403 . S
C2084 C2083 1.403 . S
C2084 C2085 1.404 . S
C2084 C2087 1.539 . S
C2085 C2081 1.408 . S
C2085 C2084 1.404 . S
C2085 H2097 0.930 . S
C2086 C2082 1.524 . S
C2086 H2098 0.956 . S
C2086 H2099 0.961 . S
C2086 H2100 0.961 . S
C2087 C2084 1.539 . S
C2087 H2101 0.958 . S
C2087 H2102 0.961 . S
C2087 H2103 0.960 . S
H2088 C2072 0.931 . S
H2089 C2077 0.929 . S
H2090 C2078 0.960 . S
H2091 C2078 0.962 . S
H2092 C2078 0.960 . S
H2093 C2079 0.961 . S
H2094 C2079 0.961 . S
H2095 C2079 0.961 . S
H2096 C2080 0.931 . S
H2097 C2085 0.930 . S
H2098 C2086 0.956 . S
H2099 C2086 0.961 . S
H2100 C2086 0.961 . S
H2101 C2087 0.958 . S
H2102 C2087 0.961 . S
H2103 C2087 0.960 . S
C2104 C2105 1.391 . S
C2104 C2106 1.394 . S
C2104 H2120 0.931 . S
C2105 C2104 1.391 . S
C2105 C2109 1.376 . S
C2106 C2104 1.394 . S
C2106 C2107 1.369 . S
C2106 C2110 1.531 1_565 S
C2107 C2106 1.369 . S
C2107 C2108 1.410 . S
C2107 C2115 1.503 1_565 S
C2108 C2107 1.410 . S
C2108 C2109 1.392 . S
C2108 C2111 1.511 . S
C2109 C2105 1.376 . S
C2109 C2108 1.392 . S
C2109 H2121 0.929 . S
C2110 C2106 1.531 1_545 S
C2110 H2122 0.960 . S
C2110 H2123 0.962 1_545 S
C2110 H2124 0.960 . S
C2111 C2108 1.511 . S
C2111 H2125 0.961 . S
C2111 H2126 0.961 . S
C2111 H2127 0.961 1_565 S
C2112 C2113 1.370 . S
C2112 C2114 1.363 . S
C2112 H2128 0.931 . S
C2113 C2112 1.370 . S
C2113 C2117 1.408 . S
C2114 C2112 1.363 . S
C2114 C2115 1.370 . S
C2114 C2118 1.524 1_545 S
C2115 C2107 1.503 1_545 S
C2115 C2114 1.370 . S
C2115 C2116 1.403 . S
C2116 C2115 1.403 . S
C2116 C2117 1.404 . S
C2116 C2119 1.539 . S
C2117 C2113 1.408 . S
C2117 C2116 1.404 . S
C2117 H2129 0.930 . S
C2118 C2114 1.524 1_565 S
C2118 H2130 0.956 . S
C2118 H2131 0.961 . S
C2118 H2132 0.961 . S
C2119 C2116 1.539 . S
C2119 H2133 0.958 . S
C2119 H2134 0.961 . S
C2119 H2135 0.960 . S
H2120 C2104 0.931 . S
H2121 C2109 0.929 . S
H2122 C2110 0.960 . S
H2123 C2110 0.962 1_565 S
H2124 C2110 0.960 . S
H2125 C2111 0.961 . S
H2126 C2111 0.961 . S
H2127 C2111 0.961 1_545 S
H2128 C2112 0.931 . S
H2129 C2117 0.930 . S
H2130 C2118 0.956 . S
H2131 C2118 0.961 . S
H2132 C2118 0.961 . S
H2133 C2119 0.958 . S
H2134 C2119 0.961 . S
H2135 C2119 0.960 . S
C2136 C2137 1.391 1_655 S
C2136 C2138 1.394 . S
C2136 H2152 0.931 . S
C2137 C2136 1.391 1_455 S
C2137 C2141 1.376 . S
C2138 C2136 1.394 . S
C2138 C2139 1.369 . S
C2138 C2142 1.531 . S
C2139 C2138 1.369 . S
C2139 C2140 1.410 1_655 S
C2139 C2147 1.503 . S
C2140 C2139 1.410 1_455 S
C2140 C2141 1.392 . S
C2140 C2143 1.511 . S
C2141 C2137 1.376 . S
C2141 C2140 1.392 . S
C2141 H2153 0.929 . S
C2142 C2138 1.531 . S
C2142 H2154 0.960 . S
C2142 H2155 0.962 . S
C2142 H2156 0.960 . S
C2143 C2140 1.511 . S
C2143 H2157 0.961 . S
C2143 H2158 0.961 1_455 S
C2143 H2159 0.961 . S
C2144 C2145 1.370 . S
C2144 C2146 1.363 . S
C2144 H2160 0.931 . S
C2145 C2144 1.370 . S
C2145 C2149 1.408 . S
C2146 C2144 1.363 . S
C2146 C2147 1.370 . S
C2146 C2150 1.524 . S
C2147 C2139 1.503 . S
C2147 C2146 1.370 . S
C2147 C2148 1.403 . S
C2148 C2147 1.403 . S
C2148 C2149 1.404 . S
C2148 C2151 1.539 . S
C2149 C2145 1.408 . S
C2149 C2148 1.404 . S
C2149 H2161 0.930 . S
C2150 C2146 1.524 . S
C2150 H2162 0.956 . S
C2150 H2163 0.961 . S
C2150 H2164 0.961 . S
C2151 C2148 1.539 . S
C2151 H2165 0.958 . S
C2151 H2166 0.961 . S
C2151 H2167 0.960 . S
H2152 C2136 0.931 . S
H2153 C2141 0.929 . S
H2154 C2142 0.960 . S
H2155 C2142 0.962 . S
H2156 C2142 0.960 . S
H2157 C2143 0.961 . S
H2158 C2143 0.961 1_655 S
H2159 C2143 0.961 . S
H2160 C2144 0.931 . S
H2161 C2149 0.930 . S
H2162 C2150 0.956 . S
H2163 C2150 0.961 . S
H2164 C2150 0.961 . S
H2165 C2151 0.958 . S
H2166 C2151 0.961 . S
H2167 C2151 0.960 . S
C2168 C2169 1.391 . S
C2168 C2170 1.394 . S
C2168 H2184 0.931 . S
C2169 C2168 1.391 . S
C2169 C2173 1.376 . S
C2170 C2168 1.394 . S
C2170 C2171 1.369 . S
C2170 C2174 1.531 . S
C2171 C2170 1.369 . S
C2171 C2172 1.410 . S
C2171 C2179 1.503 1_565 S
C2172 C2171 1.410 . S
C2172 C2173 1.392 . S
C2172 C2175 1.511 . S
C2173 C2169 1.376 . S
C2173 C2172 1.392 . S
C2173 H2185 0.929 . S
C2174 C2170 1.531 . S
C2174 H2186 0.960 1_565 S
C2174 H2187 0.962 . S
C2174 H2188 0.960 . S
C2175 C2172 1.511 . S
C2175 H2189 0.961 . S
C2175 H2190 0.961 1_565 S
C2175 H2191 0.961 1_565 S
C2176 C2177 1.370 . S
C2176 C2178 1.363 . S
C2176 H2192 0.931 . S
C2177 C2176 1.370 . S
C2177 C2181 1.408 . S
C2178 C2176 1.363 . S
C2178 C2179 1.370 . S
C2178 C2182 1.524 1_545 S
C2179 C2171 1.503 1_545 S
C2179 C2178 1.370 . S
C2179 C2180 1.403 . S
C2180 C2179 1.403 . S
C2180 C2181 1.404 . S
C2180 C2183 1.539 . S
C2181 C2177 1.408 . S
C2181 C2180 1.404 . S
C2181 H2193 0.930 . S
C2182 C2178 1.524 1_565 S
C2182 H2194 0.956 . S
C2182 H2195 0.961 . S
C2182 H2196 0.961 . S
C2183 C2180 1.539 . S
C2183 H2197 0.958 . S
C2183 H2198 0.961 . S
C2183 H2199 0.960 . S
H2184 C2168 0.931 . S
H2185 C2173 0.929 . S
H2186 C2174 0.960 1_545 S
H2187 C2174 0.962 . S
H2188 C2174 0.960 . S
H2189 C2175 0.961 . S
H2190 C2175 0.961 1_545 S
H2191 C2175 0.961 1_545 S
H2192 C2176 0.931 . S
H2193 C2181 0.930 . S
H2194 C2182 0.956 . S
H2195 C2182 0.961 . S
H2196 C2182 0.961 . S
H2197 C2183 0.958 . S
H2198 C2183 0.961 . S
H2199 C2183 0.960 . S
C2200 C2201 1.391 . S
C2200 C2202 1.394 . S
C2200 H2216 0.931 . S
C2201 C2200 1.391 . S
C2201 C2205 1.376 . S
C2202 C2200 1.394 . S
C2202 C2203 1.369 . S
C2202 C2206 1.531 . S
C2203 C2202 1.369 . S
C2203 C2204 1.410 . S
C2203 C2211 1.503 . S
C2204 C2203 1.410 . S
C2204 C2205 1.392 . S
C2204 C2207 1.511 1_655 S
C2205 C2201 1.376 . S
C2205 C2204 1.392 . S
C2205 H2217 0.929 . S
C2206 C2202 1.531 . S
C2206 H2218 0.960 . S
C2206 H2219 0.962 . S
C2206 H2220 0.960 . S
C2207 C2204 1.511 1_455 S
C2207 H2221 0.961 . S
C2207 H2222 0.961 . S
C2207 H2223 0.961 . S
C2208 C2209 1.370 . S
C2208 C2210 1.363 1_455 S
C2208 H2224 0.931 . S
C2209 C2208 1.370 . S
C2209 C2213 1.408 . S
C2210 C2208 1.363 1_655 S
C2210 C2211 1.370 . S
C2210 C2214 1.524 . S
C2211 C2203 1.503 . S
C2211 C2210 1.370 . S
C2211 C2212 1.403 1_655 S
C2212 C2211 1.403 1_455 S
C2212 C2213 1.404 . S
C2212 C2215 1.539 . S
C2213 C2209 1.408 . S
C2213 C2212 1.404 . S
C2213 H2225 0.930 . S
C2214 C2210 1.524 . S
C2214 H2226 0.956 . S
C2214 H2227 0.961 . S
C2214 H2228 0.961 . S
C2215 C2212 1.539 . S
C2215 H2229 0.958 1_455 S
C2215 H2230 0.961 . S
C2215 H2231 0.960 . S
H2216 C2200 0.931 . S
H2217 C2205 0.929 . S
H2218 C2206 0.960 . S
H2219 C2206 0.962 . S
H2220 C2206 0.960 . S
H2221 C2207 0.961 . S
H2222 C2207 0.961 . S
H2223 C2207 0.961 . S
H2224 C2208 0.931 . S
H2225 C2213 0.930 . S
H2226 C2214 0.956 . S
H2227 C2214 0.961 . S
H2228 C2214 0.961 . S
H2229 C2215 0.958 1_655 S
H2230 C2215 0.961 . S
H2231 C2215 0.960 . S
C2232 C2233 1.391 . S
C2232 C2234 1.394 . S
C2232 H2248 0.931 . S
C2233 C2232 1.391 . S
C2233 C2237 1.376 . S
C2234 C2232 1.394 . S
C2234 C2235 1.369 . S
C2234 C2238 1.531 . S
C2235 C2234 1.369 . S
C2235 C2236 1.410 . S
C2235 C2243 1.503 . S
C2236 C2235 1.410 . S
C2236 C2237 1.392 . S
C2236 C2239 1.511 . S
C2237 C2233 1.376 . S
C2237 C2236 1.392 . S
C2237 H2249 0.929 . S
C2238 C2234 1.531 . S
C2238 H2250 0.960 . S
C2238 H2251 0.962 . S
C2238 H2252 0.960 . S
C2239 C2236 1.511 . S
C2239 H2253 0.961 . S
C2239 H2254 0.961 . S
C2239 H2255 0.961 . S
C2240 C2241 1.370 . S
C2240 C2242 1.363 . S
C2240 H2256 0.931 . S
C2241 C2240 1.370 . S
C2241 C2245 1.408 . S
C2242 C2240 1.363 . S
C2242 C2243 1.370 . S
C2242 C2246 1.524 . S
C2243 C2235 1.503 . S
C2243 C2242 1.370 . S
C2243 C2244 1.403 . S
C2244 C2243 1.403 . S
C2244 C2245 1.404 . S
C2244 C2247 1.539 . S
C2245 C2241 1.408 . S
C2245 C2244 1.404 . S
C2245 H2257 0.930 . S
C2246 C2242 1.524 . S
C2246 H2258 0.956 . S
C2246 H2259 0.961 . S
C2246 H2260 0.961 . S
C2247 C2244 1.539 . S
C2247 H2261 0.958 . S
C2247 H2262 0.961 . S
C2247 H2263 0.960 . S
H2248 C2232 0.931 . S
H2249 C2237 0.929 . S
H2250 C2238 0.960 . S
H2251 C2238 0.962 . S
H2252 C2238 0.960 . S
H2253 C2239 0.961 . S
H2254 C2239 0.961 . S
H2255 C2239 0.961 . S
H2256 C2240 0.931 . S
H2257 C2245 0.930 . S
H2258 C2246 0.956 . S
H2259 C2246 0.961 . S
H2260 C2246 0.961 . S
H2261 C2247 0.958 . S
H2262 C2247 0.961 . S
H2263 C2247 0.960 . S
C2264 C2265 1.391 . S
C2264 C2266 1.394 . S
C2264 H2280 0.931 . S
C2265 C2264 1.391 . S
C2265 C2269 1.376 . S
C2266 C2264 1.394 . S
C2266 C2267 1.369 . S
C2266 C2270 1.531 . S
C2267 C2266 1.369 . S
C2267 C2268 1.410 . S
C2267 C2275 1.503 . S
C2268 C2267 1.410 . S
C2268 C2269 1.392 . S
C2268 C2271 1.511 . S
C2269 C2265 1.376 . S
C2269 C2268 1.392 . S
C2269 H2281 0.929 . S
C2270 C2266 1.531 . S
C2270 H2282 0.960 . S
C2270 H2283 0.962 . S
C2270 H2284 0.960 . S
C2271 C2268 1.511 . S
C2271 H2285 0.961 . S
C2271 H2286 0.961 . S
C2271 H2287 0.961 . S
C2272 C2273 1.370 . S
C2272 C2274 1.363 . S
C2272 H2288 0.931 . S
C2273 C2272 1.370 . S
C2273 C2277 1.408 . S
C2274 C2272 1.363 . S
C2274 C2275 1.370 . S
C2274 C2278 1.524 . S
C2275 C2267 1.503 . S
C2275 C2274 1.370 . S
C2275 C2276 1.403 . S
C2276 C2275 1.403 . S
C2276 C2277 1.404 . S
C2276 C2279 1.539 . S
C2277 C2273 1.408 . S
C2277 C2276 1.404 . S
C2277 H2289 0.930 . S
C2278 C2274 1.524 . S
C2278 H2290 0.956 . S
C2278 H2291 0.961 . S
C2278 H2292 0.961 . S
C2279 C2276 1.539 . S
C2279 H2293 0.958 . S
C2279 H2294 0.961 . S
C2279 H2295 0.960 . S
H2280 C2264 0.931 . S
H2281 C2269 0.929 . S
H2282 C2270 0.960 . S
H2283 C2270 0.962 . S
H2284 C2270 0.960 . S
H2285 C2271 0.961 . S
H2286 C2271 0.961 . S
H2287 C2271 0.961 . S
H2288 C2272 0.931 . S
H2289 C2277 0.930 . S
H2290 C2278 0.956 . S
H2291 C2278 0.961 . S
H2292 C2278 0.961 . S
H2293 C2279 0.958 . S
H2294 C2279 0.961 . S
H2295 C2279 0.960 . S
C2296 C2297 1.391 . S
C2296 C2298 1.394 . S
C2296 H2312 0.931 . S
C2297 C2296 1.391 . S
C2297 C2301 1.376 . S
C2298 C2296 1.394 . S
C2298 C2299 1.369 . S
C2298 C2302 1.531 . S
C2299 C2298 1.369 . S
C2299 C2300 1.410 . S
C2299 C2307 1.503 . S
C2300 C2299 1.410 . S
C2300 C2301 1.392 . S
C2300 C2303 1.511 . S
C2301 C2297 1.376 . S
C2301 C2300 1.392 . S
C2301 H2313 0.929 . S
C2302 C2298 1.531 . S
C2302 H2314 0.960 . S
C2302 H2315 0.962 . S
C2302 H2316 0.960 . S
C2303 C2300 1.511 . S
C2303 H2317 0.961 . S
C2303 H2318 0.961 . S
C2303 H2319 0.961 . S
C2304 C2305 1.370 . S
C2304 C2306 1.363 . S
C2304 H2320 0.931 . S
C2305 C2304 1.370 . S
C2305 C2309 1.408 . S
C2306 C2304 1.363 . S
C2306 C2307 1.370 . S
C2306 C2310 1.524 . S
C2307 C2299 1.503 . S
C2307 C2306 1.370 . S
C2307 C2308 1.403 . S
C2308 C2307 1.403 . S
C2308 C2309 1.404 . S
C2308 C2311 1.539 . S
C2309 C2305 1.408 . S
C2309 C2308 1.404 . S
C2309 H2321 0.930 . S
C2310 C2306 1.524 . S
C2310 H2322 0.956 . S
C2310 H2323 0.961 . S
C2310 H2324 0.961 . S
C2311 C2308 1.539 . S
C2311 H2325 0.958 . S
C2311 H2326 0.961 . S
C2311 H2327 0.960 . S
H2312 C2296 0.931 . S
H2313 C2301 0.929 . S
H2314 C2302 0.960 . S
H2315 C2302 0.962 . S
H2316 C2302 0.960 . S
H2317 C2303 0.961 . S
H2318 C2303 0.961 . S
H2319 C2303 0.961 . S
H2320 C2304 0.931 . S
H2321 C2309 0.930 . S
H2322 C2310 0.956 . S
H2323 C2310 0.961 . S
H2324 C2310 0.961 . S
H2325 C2311 0.958 . S
H2326 C2311 0.961 . S
H2327 C2311 0.960 . S
C2328 C2329 1.391 . S
C2328 C2330 1.394 . S
C2328 H2344 0.931 . S
C2329 C2328 1.391 . S
C2329 C2333 1.376 . S
C2330 C2328 1.394 . S
C2330 C2331 1.369 . S
C2330 C2334 1.531 . S
C2331 C2330 1.369 . S
C2331 C2332 1.410 . S
C2331 C2339 1.503 . S
C2332 C2331 1.410 . S
C2332 C2333 1.392 . S
C2332 C2335 1.511 1_554 S
C2333 C2329 1.376 . S
C2333 C2332 1.392 . S
C2333 H2345 0.929 . S
C2334 C2330 1.531 . S
C2334 H2346 0.960 . S
C2334 H2347 0.962 . S
C2334 H2348 0.960 . S
C2335 C2332 1.511 1_556 S
C2335 H2349 0.961 . S
C2335 H2350 0.961 . S
C2335 H2351 0.961 . S
C2336 C2337 1.370 . S
C2336 C2338 1.363 . S
C2336 H2352 0.931 . S
C2337 C2336 1.370 . S
C2337 C2341 1.408 . S
C2338 C2336 1.363 . S
C2338 C2339 1.370 1_556 S
C2338 C2342 1.524 1_556 S
C2339 C2331 1.503 . S
C2339 C2338 1.370 1_554 S
C2339 C2340 1.403 1_554 S
C2340 C2339 1.403 1_556 S
C2340 C2341 1.404 . S
C2340 C2343 1.532 1_556 S
C2341 C2337 1.408 . S
C2341 C2340 1.404 . S
C2341 H2353 0.930 . S
C2342 C2338 1.524 1_554 S
C2342 H2354 0.956 . S
C2342 H2355 0.961 . S
C2342 H2356 0.942 1_554 S
C2343 C2340 1.532 1_554 S
C2343 H2357 0.998 . S
C2343 H2358 0.923 1_554 S
C2343 H2359 0.968 . S
H2344 C2328 0.931 . S
H2345 C2333 0.929 . S
H2346 C2334 0.960 . S
H2347 C2334 0.962 . S
H2348 C2334 0.960 . S
H2349 C2335 0.961 . S
H2350 C2335 0.961 . S
H2351 C2335 0.961 . S
H2352 C2336 0.931 . S
H2353 C2341 0.930 . S
H2354 C2342 0.956 . S
H2355 C2342 0.961 . S
H2356 C2342 0.942 1_556 S
H2357 C2343 0.998 . S
H2358 C2343 0.923 1_556 S
H2359 C2343 0.968 . S
C2360 C2361 1.391 . S
C2360 C2362 1.394 . S
C2360 H2376 0.931 . S
C2361 C2360 1.391 . S
C2361 C2365 1.376 . S
C2362 C2360 1.394 . S
C2362 C2363 1.369 . S
C2362 C2366 1.531 . S
C2363 C2362 1.369 . S
C2363 C2364 1.410 . S
C2363 C2371 1.503 . S
C2364 C2363 1.410 . S
C2364 C2365 1.392 . S
C2364 C2367 1.511 . S
C2365 C2361 1.376 . S
C2365 C2364 1.392 . S
C2365 H2377 0.929 . S
C2366 C2362 1.531 . S
C2366 H2378 0.960 . S
C2366 H2379 0.962 . S
C2366 H2380 0.960 . S
C2367 C2364 1.511 . S
C2367 H2381 0.961 . S
C2367 H2382 0.961 . S
C2367 H2383 0.961 . S
C2368 C2369 1.370 . S
C2368 C2370 1.363 . S
C2368 H2384 0.931 . S
C2369 C2368 1.370 . S
C2369 C2373 1.408 . S
C2370 C2368 1.363 . S
C2370 C2371 1.370 . S
C2370 C2374 1.524 . S
C2371 C2363 1.503 . S
C2371 C2370 1.370 . S
C2371 C2372 1.403 . S
C2372 C2371 1.403 . S
C2372 C2373 1.404 . S
C2372 C2375 1.539 . S
C2373 C2369 1.408 . S
C2373 C2372 1.404 . S
C2373 H2385 0.930 . S
C2374 C2370 1.524 . S
C2374 H2386 0.956 . S
C2374 H2387 0.961 . S
C2374 H2388 0.961 . S
C2375 C2372 1.539 . S
C2375 H2389 0.958 . S
C2375 H2390 0.961 . S
C2375 H2391 0.960 . S
H2376 C2360 0.931 . S
H2377 C2365 0.929 . S
H2378 C2366 0.960 . S
H2379 C2366 0.962 . S
H2380 C2366 0.960 . S
H2381 C2367 0.961 . S
H2382 C2367 0.961 . S
H2383 C2367 0.961 . S
H2384 C2368 0.931 . S
H2385 C2373 0.930 . S
H2386 C2374 0.956 . S
H2387 C2374 0.961 . S
H2388 C2374 0.961 . S
H2389 C2375 0.958 . S
H2390 C2375 0.961 . S
H2391 C2375 0.960 . S
C2392 C2393 1.391 1_554 S
C2392 C2394 1.394 . S
C2392 H2408 0.931 . S
C2393 C2392 1.391 1_556 S
C2393 C2397 1.376 . S
C2394 C2392 1.394 . S
C2394 C2395 1.369 . S
C2394 C2398 1.531 . S
C2395 C2394 1.369 . S
C2395 C2396 1.410 1_554 S
C2395 C2403 1.503 . S
C2396 C2395 1.410 1_556 S
C2396 C2397 1.392 . S
C2396 C2399 1.511 . S
C2397 C2393 1.376 . S
C2397 C2396 1.392 . S
C2397 H2409 0.929 . S
C2398 C2394 1.531 . S
C2398 H2410 0.960 . S
C2398 H2411 0.962 . S
C2398 H2412 0.960 . S
C2399 C2396 1.511 . S
C2399 H2413 0.961 . S
C2399 H2414 0.961 1_556 S
C2399 H2415 0.961 1_556 S
C2400 C2401 1.370 . S
C2400 C2402 1.363 . S
C2400 H2416 0.931 . S
C2401 C2400 1.370 . S
C2401 C2405 1.408 . S
C2402 C2400 1.363 . S
C2402 C2403 1.370 . S
C2402 C2406 1.524 . S
C2403 C2395 1.503 . S
C2403 C2402 1.370 . S
C2403 C2404 1.403 . S
C2404 C2403 1.403 . S
C2404 C2405 1.404 . S
C2404 C2407 1.539 . S
C2405 C2401 1.408 . S
C2405 C2404 1.404 . S
C2405 H2417 0.930 . S
C2406 C2402 1.524 . S
C2406 H2418 0.956 . S
C2406 H2419 0.947 1_554 S
C2406 H2420 0.961 . S
C2407 C2404 1.539 . S
C2407 H2421 0.958 . S
C2407 H2422 0.961 . S
C2407 H2423 0.960 . S
H2408 C2392 0.931 . S
H2409 C2397 0.929 . S
H2410 C2398 0.960 . S
H2411 C2398 0.962 . S
H2412 C2398 0.960 . S
H2413 C2399 0.961 . S
H2414 C2399 0.961 1_554 S
H2415 C2399 0.961 1_554 S
H2416 C2400 0.931 . S
H2417 C2405 0.930 . S
H2418 C2406 0.956 . S
H2419 C2406 0.947 1_556 S
H2420 C2406 0.961 . S
H2421 C2407 0.958 . S
H2422 C2407 0.961 . S
H2423 C2407 0.960 . S
C2424 C2425 1.391 . S
C2424 C2426 1.394 . S
C2424 H2440 0.931 . S
C2425 C2424 1.391 . S
C2425 C2429 1.376 . S
C2426 C2424 1.394 . S
C2426 C2427 1.369 . S
C2426 C2430 1.531 . S
C2427 C2426 1.369 . S
C2427 C2428 1.410 . S
C2427 C2435 1.503 . S
C2428 C2427 1.410 . S
C2428 C2429 1.392 . S
C2428 C2431 1.511 . S
C2429 C2425 1.376 . S
C2429 C2428 1.392 . S
C2429 H2441 0.929 . S
C2430 C2426 1.531 . S
C2430 H2442 0.960 . S
C2430 H2443 0.962 . S
C2430 H2444 0.960 . S
C2431 C2428 1.511 . S
C2431 H2445 0.961 . S
C2431 H2446 0.961 . S
C2431 H2447 0.961 . S
C2432 C2433 1.370 . S
C2432 C2434 1.363 . S
C2432 H2448 0.931 . S
C2433 C2432 1.370 . S
C2433 C2437 1.408 . S
C2434 C2432 1.363 . S
C2434 C2435 1.370 . S
C2434 C2438 1.524 . S
C2435 C2427 1.503 . S
C2435 C2434 1.370 . S
C2435 C2436 1.403 . S
C2436 C2435 1.403 . S
C2436 C2437 1.404 . S
C2436 C2439 1.539 . S
C2437 C2433 1.408 . S
C2437 C2436 1.404 . S
C2437 H2449 0.930 . S
C2438 C2434 1.524 . S
C2438 H2450 0.956 . S
C2438 H2451 0.961 . S
C2438 H2452 0.961 . S
C2439 C2436 1.539 . S
C2439 H2453 0.958 . S
C2439 H2454 0.961 . S
C2439 H2455 0.960 . S
H2440 C2424 0.931 . S
H2441 C2429 0.929 . S
H2442 C2430 0.960 . S
H2443 C2430 0.962 . S
H2444 C2430 0.960 . S
H2445 C2431 0.961 . S
H2446 C2431 0.961 . S
H2447 C2431 0.961 . S
H2448 C2432 0.931 . S
H2449 C2437 0.930 . S
H2450 C2438 0.956 . S
H2451 C2438 0.961 . S
H2452 C2438 0.961 . S
H2453 C2439 0.958 . S
H2454 C2439 0.961 . S
H2455 C2439 0.960 . S
C2456 C2457 1.391 . S
C2456 C2458 1.394 . S
C2456 H2472 0.931 . S
C2457 C2456 1.391 . S
C2457 C2461 1.376 . S
C2458 C2456 1.394 . S
C2458 C2459 1.369 . S
C2458 C2462 1.531 . S
C2459 C2458 1.369 . S
C2459 C2460 1.410 . S
C2459 C2467 1.503 . S
C2460 C2459 1.410 . S
C2460 C2461 1.392 . S
C2460 C2463 1.511 . S
C2461 C2457 1.376 . S
C2461 C2460 1.392 . S
C2461 H2473 0.929 . S
C2462 C2458 1.531 . S
C2462 H2474 0.960 . S
C2462 H2475 0.962 . S
C2462 H2476 0.960 . S
C2463 C2460 1.511 . S
C2463 H2477 0.961 . S
C2463 H2478 0.961 . S
C2463 H2479 0.961 . S
C2464 C2465 1.370 . S
C2464 C2466 1.363 . S
C2464 H2480 0.931 . S
C2465 C2464 1.370 . S
C2465 C2469 1.408 . S
C2466 C2464 1.363 . S
C2466 C2467 1.370 . S
C2466 C2470 1.524 . S
C2467 C2459 1.503 . S
C2467 C2466 1.370 . S
C2467 C2468 1.403 . S
C2468 C2467 1.403 . S
C2468 C2469 1.404 . S
C2468 C2471 1.539 . S
C2469 C2465 1.408 . S
C2469 C2468 1.404 . S
C2469 H2481 0.930 . S
C2470 C2466 1.524 . S
C2470 H2482 0.956 . S
C2470 H2483 0.961 . S
C2470 H2484 0.961 . S
C2471 C2468 1.539 . S
C2471 H2485 0.958 . S
C2471 H2486 0.961 . S
C2471 H2487 0.960 . S
H2472 C2456 0.931 . S
H2473 C2461 0.929 . S
H2474 C2462 0.960 . S
H2475 C2462 0.962 . S
H2476 C2462 0.960 . S
H2477 C2463 0.961 . S
H2478 C2463 0.961 . S
H2479 C2463 0.961 . S
H2480 C2464 0.931 . S
H2481 C2469 0.930 . S
H2482 C2470 0.956 . S
H2483 C2470 0.961 . S
H2484 C2470 0.961 . S
H2485 C2471 0.958 . S
H2486 C2471 0.961 . S
H2487 C2471 0.960 . S
C2488 C2489 1.391 . S
C2488 C2490 1.394 1_545 S
C2488 H2504 0.931 . S
C2489 C2488 1.391 . S
C2489 C2493 1.376 . S
C2490 C2488 1.394 1_565 S
C2490 C2491 1.369 . S
C2490 C2494 1.531 . S
C2491 C2490 1.369 . S
C2491 C2492 1.410 1_565 S
C2491 C2499 1.503 . S
C2492 C2491 1.410 1_545 S
C2492 C2493 1.392 . S
C2492 C2495 1.511 . S
C2493 C2489 1.376 . S
C2493 C2492 1.392 . S
C2493 H2505 0.929 . S
C2494 C2490 1.531 . S
C2494 H2506 0.960 . S
C2494 H2507 0.962 . S
C2494 H2508 0.960 . S
C2495 C2492 1.511 . S
C2495 H2509 0.961 . S
C2495 H2510 0.961 . S
C2495 H2511 0.961 . S
C2496 C2497 1.370 . S
C2496 C2498 1.363 . S
C2496 H2512 0.931 . S
C2497 C2496 1.370 . S
C2497 C2501 1.408 . S
C2498 C2496 1.363 . S
C2498 C2499 1.370 . S
C2498 C2502 1.524 1_565 S
C2499 C2491 1.503 . S
C2499 C2498 1.370 . S
C2499 C2500 1.403 . S
C2500 C2499 1.403 . S
C2500 C2501 1.404 . S
C2500 C2503 1.539 . S
C2501 C2497 1.408 . S
C2501 C2500 1.404 . S
C2501 H2513 0.930 . S
C2502 C2498 1.524 1_545 S
C2502 H2514 0.953 1_545 S
C2502 H2515 0.961 . S
C2502 H2516 0.963 . S
C2503 C2500 1.539 . S
C2503 H2517 0.958 . S
C2503 H2518 0.961 . S
C2503 H2519 0.960 . S
H2504 C2488 0.931 . S
H2505 C2493 0.929 . S
H2506 C2494 0.960 . S
H2507 C2494 0.962 . S
H2508 C2494 0.960 . S
H2509 C2495 0.961 . S
H2510 C2495 0.961 . S
H2511 C2495 0.961 . S
H2512 C2496 0.931 . S
H2513 C2501 0.930 . S
H2514 C2502 0.953 1_565 S
H2515 C2502 0.961 . S
H2516 C2502 0.963 . S
H2517 C2503 0.958 . S
H2518 C2503 0.961 . S
H2519 C2503 0.960 . S
C2520 C2521 1.391 . S
C2520 C2522 1.394 . S
C2520 H2536 0.931 . S
C2521 C2520 1.391 . S
C2521 C2525 1.376 . S
C2522 C2520 1.394 . S
C2522 C2523 1.369 . S
C2522 C2526 1.531 1_455 S
C2523 C2522 1.369 . S
C2523 C2524 1.410 . S
C2523 C2531 1.503 1_455 S
C2524 C2523 1.410 . S
C2524 C2525 1.392 . S
C2524 C2527 1.511 . S
C2525 C2521 1.376 . S
C2525 C2524 1.392 . S
C2525 H2537 0.929 . S
C2526 C2522 1.531 1_655 S
C2526 H2538 0.960 . S
C2526 H2539 0.962 . S
C2526 H2540 0.960 1_655 S
C2527 C2524 1.511 . S
C2527 H2541 0.961 . S
C2527 H2542 0.961 . S
C2527 H2543 0.961 . S
C2528 C2529 1.370 . S
C2528 C2530 1.363 . S
C2528 H2544 0.931 . S
C2529 C2528 1.370 . S
C2529 C2533 1.408 . S
C2530 C2528 1.363 . S
C2530 C2531 1.370 . S
C2530 C2534 1.524 . S
C2531 C2523 1.503 1_655 S
C2531 C2530 1.370 . S
C2531 C2532 1.403 1_655 S
C2532 C2531 1.403 1_455 S
C2532 C2533 1.404 1_455 S
C2532 C2535 1.539 . S
C2533 C2529 1.408 . S
C2533 C2532 1.404 1_655 S
C2533 H2545 0.930 . S
C2534 C2530 1.524 . S
C2534 H2546 0.956 . S
C2534 H2547 0.961 . S
C2534 H2548 0.961 . S
C2535 C2532 1.539 . S
C2535 H2549 0.958 . S
C2535 H2550 0.961 . S
C2535 H2551 0.960 . S
H2536 C2520 0.931 . S
H2537 C2525 0.929 . S
H2538 C2526 0.960 . S
H2539 C2526 0.962 . S
H2540 C2526 0.960 1_455 S
H2541 C2527 0.961 . S
H2542 C2527 0.961 . S
H2543 C2527 0.961 . S
H2544 C2528 0.931 . S
H2545 C2533 0.930 . S
H2546 C2534 0.956 . S
H2547 C2534 0.961 . S
H2548 C2534 0.961 . S
H2549 C2535 0.958 . S
H2550 C2535 0.961 . S
H2551 C2535 0.960 . S
C2552 C2553 1.391 . S
C2552 C2554 1.394 . S
C2552 H2568 0.931 . S
C2553 C2552 1.391 . S
C2553 C2557 1.376 . S
C2554 C2552 1.394 . S
C2554 C2555 1.369 . S
C2554 C2558 1.531 1_545 S
C2555 C2554 1.369 . S
C2555 C2556 1.410 . S
C2555 C2563 1.503 . S
C2556 C2555 1.410 . S
C2556 C2557 1.392 . S
C2556 C2559 1.511 . S
C2557 C2553 1.376 . S
C2557 C2556 1.392 . S
C2557 H2569 0.929 . S
C2558 C2554 1.531 1_565 S
C2558 H2570 0.960 . S
C2558 H2571 0.962 . S
C2558 H2572 0.960 . S
C2559 C2556 1.511 . S
C2559 H2573 0.961 . S
C2559 H2574 0.961 . S
C2559 H2575 0.961 . S
C2560 C2561 1.370 . S
C2560 C2562 1.412 . S
C2560 H2576 0.931 . S
C2561 C2560 1.370 . S
C2561 C2565 1.408 . S
C2562 C2560 1.412 . S
C2562 C2563 1.363 1_565 S
C2562 C2566 1.486 1_565 S
C2563 C2555 1.503 . S
C2563 C2562 1.363 1_545 S
C2563 C2564 1.403 1_545 S
C2564 C2563 1.403 1_565 S
C2564 C2565 1.404 . S
C2564 C2567 1.539 . S
C2565 C2561 1.408 . S
C2565 C2564 1.404 . S
C2565 H2577 0.930 . S
C2566 C2562 1.486 1_545 S
C2566 H2578 0.956 . S
C2566 H2579 0.961 . S
C2566 H2580 0.961 . S
C2567 C2564 1.539 . S
C2567 H2581 0.958 . S
C2567 H2582 0.961 . S
C2567 H2583 0.960 1_565 S
H2568 C2552 0.931 . S
H2569 C2557 0.929 . S
H2570 C2558 0.960 . S
H2571 C2558 0.962 . S
H2572 C2558 0.960 . S
H2573 C2559 0.961 . S
H2574 C2559 0.961 . S
H2575 C2559 0.961 . S
H2576 C2560 0.931 . S
H2577 C2565 0.930 . S
H2578 C2566 0.956 . S
H2579 C2566 0.961 . S
H2580 C2566 0.961 . S
H2581 C2567 0.958 . S
H2582 C2567 0.961 . S
H2583 C2567 0.960 1_545 S
C2584 C2585 1.391 . S
C2584 C2586 1.394 . S
C2584 H2600 0.931 . S
C2585 C2584 1.391 . S
C2585 C2589 1.376 . S
C2586 C2584 1.394 . S
C2586 C2587 1.369 . S
C2586 C2590 1.531 . S
C2587 C2586 1.369 . S
C2587 C2588 1.410 . S
C2587 C2595 1.503 1_455 S
C2588 C2587 1.410 . S
C2588 C2589 1.392 . S
C2588 C2591 1.489 1_455 S
C2589 C2585 1.376 . S
C2589 C2588 1.392 . S
C2589 H2601 0.929 . S
C2590 C2586 1.531 . S
C2590 H2602 0.960 . S
C2590 H2603 0.962 . S
C2590 H2604 0.960 . S
C2591 C2588 1.489 1_655 S
C2591 H2605 0.968 . S
C2591 H2606 0.993 . S
C2591 H2607 0.946 1_655 S
C2592 C2593 1.370 . S
C2592 C2594 1.363 . S
C2592 H2608 0.931 . S
C2593 C2592 1.370 . S
C2593 C2597 1.408 . S
C2594 C2592 1.363 . S
C2594 C2595 1.370 . S
C2594 C2598 1.524 . S
C2595 C2587 1.503 1_655 S
C2595 C2594 1.370 . S
C2595 C2596 1.409 . S
C2596 C2595 1.409 . S
C2596 C2597 1.433 . S
C2596 C2599 1.506 1_655 S
C2597 C2593 1.408 . S
C2597 C2596 1.433 . S
C2597 H2609 0.930 . S
C2598 C2594 1.524 . S
C2598 H2610 0.956 . S
C2598 H2611 0.961 . S
C2598 H2612 0.961 . S
C2599 C2596 1.506 1_455 S
C2599 H2613 0.958 . S
C2599 H2614 0.961 . S
C2599 H2615 0.960 . S
H2600 C2584 0.931 . S
H2601 C2589 0.929 . S
H2602 C2590 0.960 . S
H2603 C2590 0.962 . S
H2604 C2590 0.960 . S
H2605 C2591 0.968 . S
H2606 C2591 0.993 . S
H2607 C2591 0.946 1_455 S
H2608 C2592 0.931 . S
H2609 C2597 0.930 . S
H2610 C2598 0.956 . S
H2611 C2598 0.961 . S
H2612 C2598 0.961 . S
H2613 C2599 0.958 . S
H2614 C2599 0.961 . S
H2615 C2599 0.960 . S
C2616 C2617 1.391 . S
C2616 C2618 1.394 . S
C2616 H2632 0.931 . S
C2617 C2616 1.391 . S
C2617 C2621 1.376 . S
C2618 C2616 1.394 . S
C2618 C2619 1.369 . S
C2618 C2622 1.531 . S
C2619 C2618 1.369 . S
C2619 C2620 1.410 . S
C2619 C2627 1.503 . S
C2620 C2619 1.410 . S
C2620 C2621 1.392 . S
C2620 C2623 1.511 . S
C2621 C2617 1.376 . S
C2621 C2620 1.392 . S
C2621 H2633 0.929 . S
C2622 C2618 1.531 . S
C2622 H2634 0.960 . S
C2622 H2635 0.962 . S
C2622 H2636 0.960 . S
C2623 C2620 1.511 . S
C2623 H2637 0.961 . S
C2623 H2638 0.961 . S
C2623 H2639 0.961 . S
C2624 C2625 1.370 . S
C2624 C2626 1.363 . S
C2624 H2640 0.931 . S
C2625 C2624 1.370 . S
C2625 C2629 1.408 . S
C2626 C2624 1.363 . S
C2626 C2627 1.370 . S
C2626 C2630 1.524 . S
C2627 C2619 1.503 . S
C2627 C2626 1.370 . S
C2627 C2628 1.403 . S
C2628 C2627 1.403 . S
C2628 C2629 1.404 . S
C2628 C2631 1.539 . S
C2629 C2625 1.408 . S
C2629 C2628 1.404 . S
C2629 H2641 0.930 . S
C2630 C2626 1.524 . S
C2630 H2642 0.956 . S
C2630 H2643 0.961 . S
C2630 H2644 0.961 . S
C2631 C2628 1.539 . S
C2631 H2645 0.958 . S
C2631 H2646 0.961 . S
C2631 H2647 0.960 . S
H2632 C2616 0.931 . S
H2633 C2621 0.929 . S
H2634 C2622 0.960 . S
H2635 C2622 0.962 . S
H2636 C2622 0.960 . S
H2637 C2623 0.961 . S
H2638 C2623 0.961 . S
H2639 C2623 0.961 . S
H2640 C2624 0.931 . S
H2641 C2629 0.930 . S
H2642 C2630 0.956 . S
H2643 C2630 0.961 . S
H2644 C2630 0.961 . S
H2645 C2631 0.958 . S
H2646 C2631 0.961 . S
H2647 C2631 0.960 . S
C2648 C2649 1.391 . S
C2648 C2650 1.394 . S
C2648 H2664 0.931 . S
C2649 C2648 1.391 . S
C2649 C2653 1.376 . S
C2650 C2648 1.394 . S
C2650 C2651 1.369 . S
C2650 C2654 1.531 . S
C2651 C2650 1.369 . S
C2651 C2652 1.410 . S
C2651 C2659 1.503 . S
C2652 C2651 1.410 . S
C2652 C2653 1.392 . S
C2652 C2655 1.511 . S
C2653 C2649 1.376 . S
C2653 C2652 1.392 . S
C2653 H2665 0.929 . S
C2654 C2650 1.531 . S
C2654 H2666 0.960 . S
C2654 H2667 0.962 . S
C2654 H2668 0.960 . S
C2655 C2652 1.511 . S
C2655 H2669 0.961 . S
C2655 H2670 0.961 . S
C2655 H2671 0.961 . S
C2656 C2657 1.370 . S
C2656 C2658 1.363 . S
C2656 H2672 0.931 . S
C2657 C2656 1.370 . S
C2657 C2661 1.408 . S
C2658 C2656 1.363 . S
C2658 C2659 1.370 . S
C2658 C2662 1.524 . S
C2659 C2651 1.503 . S
C2659 C2658 1.370 . S
C2659 C2660 1.403 . S
C2660 C2659 1.403 . S
C2660 C2661 1.404 . S
C2660 C2663 1.539 . S
C2661 C2657 1.408 . S
C2661 C2660 1.404 . S
C2661 H2673 0.930 . S
C2662 C2658 1.524 . S
C2662 H2674 0.956 . S
C2662 H2675 0.961 . S
C2662 H2676 0.961 . S
C2663 C2660 1.539 . S
C2663 H2677 0.958 . S
C2663 H2678 0.961 . S
C2663 H2679 0.960 . S
H2664 C2648 0.931 . S
H2665 C2653 0.929 . S
H2666 C2654 0.960 . S
H2667 C2654 0.962 . S
H2668 C2654 0.960 . S
H2669 C2655 0.961 . S
H2670 C2655 0.961 . S
H2671 C2655 0.961 . S
H2672 C2656 0.931 . S
H2673 C2661 0.930 . S
H2674 C2662 0.956 . S
H2675 C2662 0.961 . S
H2676 C2662 0.961 . S
H2677 C2663 0.958 . S
H2678 C2663 0.961 . S
H2679 C2663 0.960 . S
C2680 C2681 1.391 . S
C2680 C2682 1.394 . S
C2680 H2696 0.931 . S
C2681 C2680 1.391 . S
C2681 C2685 1.376 . S
C2682 C2680 1.394 . S
C2682 C2683 1.369 . S
C2682 C2686 1.531 . S
C2683 C2682 1.369 . S
C2683 C2684 1.410 . S
C2683 C2691 1.503 . S
C2684 C2683 1.410 . S
C2684 C2685 1.392 . S
C2684 C2687 1.511 . S
C2685 C2681 1.376 . S
C2685 C2684 1.392 . S
C2685 H2697 0.929 . S
C2686 C2682 1.531 . S
C2686 H2698 0.960 . S
C2686 H2699 0.962 . S
C2686 H2700 0.960 . S
C2687 C2684 1.511 . S
C2687 H2701 0.961 . S
C2687 H2702 0.961 . S
C2687 H2703 0.961 . S
C2688 C2689 1.370 . S
C2688 C2690 1.363 . S
C2688 H2704 0.931 . S
C2689 C2688 1.370 . S
C2689 C2693 1.408 . S
C2690 C2688 1.363 . S
C2690 C2691 1.370 . S
C2690 C2694 1.524 . S
C2691 C2683 1.503 . S
C2691 C2690 1.370 . S
C2691 C2692 1.403 . S
C2692 C2691 1.403 . S
C2692 C2693 1.404 . S
C2692 C2695 1.539 . S
C2693 C2689 1.408 . S
C2693 C2692 1.404 . S
C2693 H2705 0.930 . S
C2694 C2690 1.524 . S
C2694 H2706 0.956 . S
C2694 H2707 0.961 . S
C2694 H2708 0.961 . S
C2695 C2692 1.539 . S
C2695 H2709 0.958 . S
C2695 H2710 0.961 . S
C2695 H2711 0.960 . S
H2696 C2680 0.931 . S
H2697 C2685 0.929 . S
H2698 C2686 0.960 . S
H2699 C2686 0.962 . S
H2700 C2686 0.960 . S
H2701 C2687 0.961 . S
H2702 C2687 0.961 . S
H2703 C2687 0.961 . S
H2704 C2688 0.931 . S
H2705 C2693 0.930 . S
H2706 C2694 0.956 . S
H2707 C2694 0.961 . S
H2708 C2694 0.961 . S
H2709 C2695 0.958 . S
H2710 C2695 0.961 . S
H2711 C2695 0.960 . S
C2712 C2713 1.391 . S
C2712 C2714 1.394 . S
C2712 H2728 0.931 . S
C2713 C2712 1.391 . S
C2713 C2717 1.376 . S
C2714 C2712 1.394 . S
C2714 C2715 1.369 . S
C2714 C2718 1.556 . S
C2715 C2714 1.369 . S
C2715 C2716 1.410 . S
C2715 C2723 1.503 1_554 S
C2716 C2715 1.410 . S
C2716 C2717 1.392 . S
C2716 C2719 1.511 . S
C2717 C2713 1.376 . S
C2717 C2716 1.392 . S
C2717 H2729 0.929 . S
C2718 C2714 1.556 . S
C2718 H2730 0.908 1_554 S
C2718 H2731 0.987 . S
C2718 H2732 0.965 . S
C2719 C2716 1.511 . S
C2719 H2733 0.961 . S
C2719 H2734 0.973 . S
C2719 H2735 0.961 1_554 S
C2720 C2721 1.370 . S
C2720 C2722 1.363 . S
C2720 H2736 0.931 . S
C2721 C2720 1.370 . S
C2721 C2725 1.408 . S
C2722 C2720 1.363 . S
C2722 C2723 1.370 . S
C2722 C2726 1.524 1_556 S
C2723 C2715 1.503 1_556 S
C2723 C2722 1.370 . S
C2723 C2724 1.403 . S
C2724 C2723 1.403 . S
C2724 C2725 1.404 . S
C2724 C2727 1.539 . S
C2725 C2721 1.408 . S
C2725 C2724 1.404 . S
C2725 H2737 0.930 . S
C2726 C2722 1.524 1_554 S
C2726 H2738 0.956 . S
C2726 H2739 0.961 . S
C2726 H2740 0.961 . S
C2727 C2724 1.539 . S
C2727 H2741 0.958 . S
C2727 H2742 0.961 . S
C2727 H2743 0.960 . S
H2728 C2712 0.931 . S
H2729 C2717 0.929 . S
H2730 C2718 0.908 1_556 S
H2731 C2718 0.987 . S
H2732 C2718 0.965 . S
H2733 C2719 0.961 . S
H2734 C2719 0.973 . S
H2735 C2719 0.961 1_556 S
H2736 C2720 0.931 . S
H2737 C2725 0.930 . S
H2738 C2726 0.956 . S
H2739 C2726 0.961 . S
H2740 C2726 0.961 . S
H2741 C2727 0.958 . S
H2742 C2727 0.961 . S
H2743 C2727 0.960 . S
C2744 C2745 1.391 . S
C2744 C2746 1.394 . S
C2744 H2760 0.931 . S
C2745 C2744 1.391 . S
C2745 C2749 1.376 . S
C2746 C2744 1.394 . S
C2746 C2747 1.369 . S
C2746 C2750 1.531 . S
C2747 C2746 1.369 . S
C2747 C2748 1.410 . S
C2747 C2755 1.503 . S
C2748 C2747 1.410 . S
C2748 C2749 1.392 . S
C2748 C2751 1.511 . S
C2749 C2745 1.376 . S
C2749 C2748 1.392 . S
C2749 H2761 0.929 . S
C2750 C2746 1.531 . S
C2750 H2762 0.960 . S
C2750 H2763 0.962 . S
C2750 H2764 0.960 . S
C2751 C2748 1.511 . S
C2751 H2765 0.961 . S
C2751 H2766 0.961 . S
C2751 H2767 0.961 . S
C2752 C2753 1.370 . S
C2752 C2754 1.363 . S
C2752 H2768 0.931 . S
C2753 C2752 1.370 . S
C2753 C2757 1.408 . S
C2754 C2752 1.363 . S
C2754 C2755 1.370 . S
C2754 C2758 1.524 . S
C2755 C2747 1.503 . S
C2755 C2754 1.370 . S
C2755 C2756 1.403 . S
C2756 C2755 1.403 . S
C2756 C2757 1.404 . S
C2756 C2759 1.539 . S
C2757 C2753 1.408 . S
C2757 C2756 1.404 . S
C2757 H2769 0.930 . S
C2758 C2754 1.524 . S
C2758 H2770 0.956 . S
C2758 H2771 0.961 . S
C2758 H2772 0.961 . S
C2759 C2756 1.539 . S
C2759 H2773 0.958 . S
C2759 H2774 0.961 . S
C2759 H2775 0.960 . S
H2760 C2744 0.931 . S
H2761 C2749 0.929 . S
H2762 C2750 0.960 . S
H2763 C2750 0.962 . S
H2764 C2750 0.960 . S
H2765 C2751 0.961 . S
H2766 C2751 0.961 . S
H2767 C2751 0.961 . S
H2768 C2752 0.931 . S
H2769 C2757 0.930 . S
H2770 C2758 0.956 . S
H2771 C2758 0.961 . S
H2772 C2758 0.961 . S
H2773 C2759 0.958 . S
H2774 C2759 0.961 . S
H2775 C2759 0.960 . S
C2776 C2777 1.391 . S
C2776 C2778 1.394 . S
C2776 H2792 0.931 . S
C2777 C2776 1.391 . S
C2777 C2781 1.376 . S
C2778 C2776 1.394 . S
C2778 C2779 1.369 . S
C2778 C2782 1.531 . S
C2779 C2778 1.369 . S
C2779 C2780 1.410 . S
C2779 C2787 1.503 1_554 S
C2780 C2779 1.410 . S
C2780 C2781 1.392 . S
C2780 C2783 1.511 . S
C2781 C2777 1.376 . S
C2781 C2780 1.392 . S
C2781 H2793 0.929 . S
C2782 C2778 1.531 . S
C2782 H2794 0.960 . S
C2782 H2795 0.962 1_554 S
C2782 H2796 0.960 . S
C2783 C2780 1.511 . S
C2783 H2797 0.961 . S
C2783 H2798 0.961 1_554 S
C2783 H2799 0.961 . S
C2784 C2785 1.370 . S
C2784 C2786 1.363 . S
C2784 H2800 0.931 . S
C2785 C2784 1.370 . S
C2785 C2789 1.408 . S
C2786 C2784 1.363 . S
C2786 C2787 1.370 . S
C2786 C2790 1.524 . S
C2787 C2779 1.503 1_556 S
C2787 C2786 1.370 . S
C2787 C2788 1.403 . S
C2788 C2787 1.403 . S
C2788 C2789 1.404 . S
C2788 C2791 1.539 1_556 S
C2789 C2785 1.408 . S
C2789 C2788 1.404 . S
C2789 H2801 0.930 . S
C2790 C2786 1.524 . S
C2790 H2802 0.956 . S
C2790 H2803 0.961 . S
C2790 H2804 0.961 . S
C2791 C2788 1.539 1_554 S
C2791 H2805 0.958 . S
C2791 H2806 0.961 . S
C2791 H2807 0.960 . S
H2792 C2776 0.931 . S
H2793 C2781 0.929 . S
H2794 C2782 0.960 . S
H2795 C2782 0.962 1_556 S
H2796 C2782 0.960 . S
H2797 C2783 0.961 . S
H2798 C2783 0.961 1_556 S
H2799 C2783 0.961 . S
H2800 C2784 0.931 . S
H2801 C2789 0.930 . S
H2802 C2790 0.956 . S
H2803 C2790 0.961 . S
H2804 C2790 0.961 . S
H2805 C2791 0.958 . S
H2806 C2791 0.961 . S
H2807 C2791 0.960 . S
C1273 C241 1.422 . S
C1281 C29 1.436 . S
C1305 C92 1.485 . S
C1313 C304 1.475 . S
C1337 C347 1.510 . S
C1345 C135 1.517 . S
C1369 C410 1.581 . S
C1377 C198 1.577 . S
C1401 C771 1.283 . S
C1409 C463 1.288 . S
C1433 C824 1.290 . S
C1441 C506 1.290 . S
C1465 C569 1.478 . S
C1473 C675 1.491 . S
C1497 C718 1.302 . S
C1505 C612 1.327 . S
C1529 C877 1.231 . S
C1537 C1142 1.260 . S
C1561 C940 1.598 . S
C1569 C1036 1.574 . S
C1593 C983 1.473 . S
C1601 C1089 1.489 . S
C1625 C1195 1.415 . S
C1633 C1248 1.414 . S
C1657 C188 1.715 . S
C1665 C294 1.727 . S
C1689 C39 2.043 . S
C1697 C357 2.044 . S
C1721 C400 1.719 . S
C1729 C82 1.749 . S
C1753 C145 2.096 . S
C1761 C251 2.091 . S
C1785 C1258 2.151 . S
C1793 C993 2.148 . S
C1817 C1046 2.364 . S
C1825 C1152 2.352 . S
C1849 C1099 2.174 . S
C1857 C1205 2.173 . S
C1881 C930 2.012 . S
C1889 C887 2.033 . S
C1913 C622 2.140 . S
C1921 C516 2.141 . S
C1945 C834 2.211 . S
C1953 C728 2.209 . S
C1977 C665 1.997 . S
C1985 C781 1.988 . S
C2009 C559 1.648 . S
C2017 C453 1.633 . S
C2041 C1188 1.656 . S
C2049 C22 1.638 . S
C2073 C870 1.477 . S
C2081 C91 1.442 . S
C2105 C1241 1.714 . S
C2113 C128 1.689 . S
C2137 C1135 1.492 . S
C2145 C197 1.505 . S
C2169 C976 1.644 . S
C2177 C234 1.624 . S
C2201 C303 1.526 . S
C2209 C1029 1.526 . S
C2233 C1082 1.743 . S
C2241 C340 1.724 . S
C2265 C939 1.493 . S
C2273 C409 1.488 . S
C2297 C711 1.415 . S
C2305 C462 1.451 . S
C2329 C764 1.475 . S
C2337 C499 1.476 . S
C2361 C817 1.280 . S
C2369 C568 1.316 . S
C2393 C605 1.390 . S
C2401 C674 1.374 . S
C2425 C287 1.713 . S
C2433 C552 1.750 . S
C2457 C356 1.997 . S
C2465 C621 2.011 . S
C2489 C446 1.775 . S
C2497 C393 1.763 . S
C2521 C250 1.937 . S
C2529 C515 1.966 . S
C2553 C780 1.794 . S
C2561 C181 1.787 . S
C2585 C38 1.930 . S
C2593 C833 1.954 . S
C2617 C658 1.709 . S
C2625 C75 1.742 . S
C2649 C144 1.991 . S
C2657 C727 2.019 . S
C2681 C923 2.030 . S
C2689 C1257 2.063 . S
C2713 C1151 2.107 . S
C2721 C992 2.095 . S
C2745 C1204 2.133 . S
C2753 C1045 2.144 . S
C2777 C886 2.073 . S
C2785 C1098 2.094 . S
