# Generated by pormake.
# Topology lcy-e, (6)-cn, num edge types: 1
# Building blocks:
#     Node 0, Type 0, BuildingBlock: LEVNOQ01_clean_sbu_1, # of connection points: 6
#     Node 1, Type 0, BuildingBlock: LEVNOQ01_clean_sbu_1, # of connection points: 6
#     Node 2, Type 0, BuildingBlock: LEVNOQ01_clean_sbu_1, # of connection points: 6
#     Node 3, Type 0, BuildingBlock: LEVNOQ01_clean_sbu_1, # of connection points: 6
#     Node 4, Type 0, BuildingBlock: LEVNOQ01_clean_sbu_1, # of connection points: 6
#     Node 5, Type 0, BuildingBlock: LEVNOQ01_clean_sbu_1, # of connection points: 6
#     Node 6, Type 0, BuildingBlock: LEVNOQ01_clean_sbu_1, # of connection points: 6
#     Node 7, Type 0, BuildingBlock: LEVNOQ01_clean_sbu_1, # of connection points: 6
#     Node 8, Type 0, BuildingBlock: LEVNOQ01_clean_sbu_1, # of connection points: 6
#     Node 9, Type 0, BuildingBlock: LEVNOQ01_clean_sbu_1, # of connection points: 6
#     Node 10, Type 0, BuildingBlock: LEVNOQ01_clean_sbu_1, # of connection points: 6
#     Node 11, Type 0, BuildingBlock: LEVNOQ01_clean_sbu_1, # of connection points: 6
#     Edge 12, Type (0, 0), BuildingBlock: KIFKEQ_clean_linker_1, # of connection points: 2
#     Edge 13, Type (0, 0), BuildingBlock: KIFKEQ_clean_linker_1, # of connection points: 2
#     Edge 14, Type (0, 0), BuildingBlock: KIFKEQ_clean_linker_1, # of connection points: 2
#     Edge 15, Type (0, 0), BuildingBlock: KIFKEQ_clean_linker_1, # of connection points: 2
#     Edge 16, Type (0, 0), BuildingBlock: KIFKEQ_clean_linker_1, # of connection points: 2
#     Edge 17, Type (0, 0), BuildingBlock: KIFKEQ_clean_linker_1, # of connection points: 2
#     Edge 18, Type (0, 0), BuildingBlock: KIFKEQ_clean_linker_1, # of connection points: 2
#     Edge 19, Type (0, 0), BuildingBlock: KIFKEQ_clean_linker_1, # of connection points: 2
#     Edge 20, Type (0, 0), BuildingBlock: KIFKEQ_clean_linker_1, # of connection points: 2
#     Edge 21, Type (0, 0), BuildingBlock: KIFKEQ_clean_linker_1, # of connection points: 2
#     Edge 22, Type (0, 0), BuildingBlock: KIFKEQ_clean_linker_1, # of connection points: 2
#     Edge 23, Type (0, 0), BuildingBlock: KIFKEQ_clean_linker_1, # of connection points: 2
#     Edge 24, Type (0, 0), BuildingBlock: KIFKEQ_clean_linker_1, # of connection points: 2
#     Edge 25, Type (0, 0), BuildingBlock: KIFKEQ_clean_linker_1, # of connection points: 2
#     Edge 26, Type (0, 0), BuildingBlock: KIFKEQ_clean_linker_1, # of connection points: 2
#     Edge 27, Type (0, 0), BuildingBlock: KIFKEQ_clean_linker_1, # of connection points: 2
#     Edge 28, Type (0, 0), BuildingBlock: KIFKEQ_clean_linker_1, # of connection points: 2
#     Edge 29, Type (0, 0), BuildingBlock: KIFKEQ_clean_linker_1, # of connection points: 2
#     Edge 30, Type (0, 0), BuildingBlock: KIFKEQ_clean_linker_1, # of connection points: 2
#     Edge 31, Type (0, 0), BuildingBlock: KIFKEQ_clean_linker_1, # of connection points: 2
#     Edge 32, Type (0, 0), BuildingBlock: KIFKEQ_clean_linker_1, # of connection points: 2
#     Edge 33, Type (0, 0), BuildingBlock: KIFKEQ_clean_linker_1, # of connection points: 2
#     Edge 34, Type (0, 0), BuildingBlock: KIFKEQ_clean_linker_1, # of connection points: 2
#     Edge 35, Type (0, 0), BuildingBlock: KIFKEQ_clean_linker_1, # of connection points: 2
#     Edge 36, Type (0, 0), BuildingBlock: KIFKEQ_clean_linker_1, # of connection points: 2
#     Edge 37, Type (0, 0), BuildingBlock: KIFKEQ_clean_linker_1, # of connection points: 2
#     Edge 38, Type (0, 0), BuildingBlock: KIFKEQ_clean_linker_1, # of connection points: 2
#     Edge 39, Type (0, 0), BuildingBlock: KIFKEQ_clean_linker_1, # of connection points: 2
#     Edge 40, Type (0, 0), BuildingBlock: KIFKEQ_clean_linker_1, # of connection points: 2
#     Edge 41, Type (0, 0), BuildingBlock: KIFKEQ_clean_linker_1, # of connection points: 2
#     Edge 42, Type (0, 0), BuildingBlock: KIFKEQ_clean_linker_1, # of connection points: 2
#     Edge 43, Type (0, 0), BuildingBlock: KIFKEQ_clean_linker_1, # of connection points: 2
#     Edge 44, Type (0, 0), BuildingBlock: KIFKEQ_clean_linker_1, # of connection points: 2
#     Edge 45, Type (0, 0), BuildingBlock: KIFKEQ_clean_linker_1, # of connection points: 2
#     Edge 46, Type (0, 0), BuildingBlock: KIFKEQ_clean_linker_1, # of connection points: 2
#     Edge 47, Type (0, 0), BuildingBlock: KIFKEQ_clean_linker_1, # of connection points: 2
# Relax obj value: 0.258
# Max RMSD: 0.279
# Mean RMSD: 0.271
data_MOF--net-lcy-e--node1-LEVNOQ01_clean_sbu_1--edge1-KIFKEQ_clean_linker_1
_symmetry_space_group_name_H-M    P1
_symmetry_Int_Tables_number       1
_symmetry_cell_setting            triclinic
loop_
_symmetry_equiv_pos_as_xyz
'x, y, z'
_cell_length_a     36.577438
_cell_length_b     36.608672
_cell_length_c     36.579678
_cell_angle_alpha  88.895776
_cell_angle_beta   90.859943
_cell_angle_gamma 91.018684
loop_
_atom_site_label
_atom_site_type_symbol
_atom_site_fract_x
_atom_site_fract_y
_atom_site_fract_z
_atom_type_partial_charge
O0 O 0.08072 0.25173 0.36602 0.0
Mg1 Mg 0.09552 0.19705 0.35865 0.0
O2 O 0.12459 0.25855 0.40722 0.0
Mg3 Mg 0.12194 0.20556 0.44464 0.0
O4 O 0.0824 0.17616 0.40793 0.0
O5 O 0.05386 0.157 0.35828 0.0
O6 O 0.1177 0.15162 0.47948 0.0
O7 O 0.07364 0.22589 0.47728 0.0
Mg8 Mg 0.15188 0.20209 0.52374 0.0
O9 O 0.1655 0.23463 0.48054 0.0
O10 O 0.16524 0.14737 0.51631 0.0
O11 O 0.09497 0.20947 0.53256 0.0
O12 O 0.19282 0.23992 0.53496 0.0
C13 C 0.17671 0.1796 0.37954 0.0
C14 C 0.10565 0.27132 0.38039 0.0
C15 C 0.05779 0.15554 0.3933 0.0
C16 C 0.13676 0.13304 0.5023 0.0
C17 C 0.06895 0.21929 0.51125 0.0
C18 C 0.18983 0.25055 0.50122 0.0
O19 O 0.1531 0.18448 0.35389 0.0
O20 O 0.169 0.18412 0.41294 0.0
O21 O 0.13741 0.89536 0.73903 0.0
Mg22 Mg 0.13236 0.8882 0.68174 0.0
O23 O 0.08474 0.86673 0.75166 0.0
Mg24 Mg 0.04505 0.86798 0.70202 0.0
O25 O 0.08126 0.90496 0.67 0.0
O26 O 0.128 0.93256 0.64401 0.0
O27 O 0.00538 0.87001 0.65365 0.0
O28 O 0.01711 0.92091 0.72151 0.0
Mg29 Mg 0.96867 0.8628 0.7369 0.0
O30 O 0.00909 0.82621 0.73394 0.0
O31 O 0.95433 0.88274 0.68276 0.0
O32 O -0.003 0.89885 0.77243 0.0
O33 O 0.9546 0.81086 0.75581 0.0
C34 C 0.10423 0.80918 0.6678 0.0
C35 C 0.11591 0.87957 0.76155 0.0
C36 C 0.09317 0.93005 0.64823 0.0
C37 C 0.97253 0.88106 0.65345 0.0
C38 C 0.00013 0.92594 0.75095 0.0
C39 C 0.98851 0.80307 0.75166 0.0
O40 O 0.13103 0.8319 0.66642 0.0
O41 O 0.07281 0.81788 0.6791 0.0
O42 O 0.35985 0.88022 0.00952 0.0
Mg43 Mg 0.36117 0.87542 0.95179 0.0
O44 O 0.38272 0.82503 0.01753 0.0
Mg45 Mg 0.37567 0.78794 0.96744 0.0
O46 O 0.3376 0.82666 0.9385 0.0
O47 O 0.31441 0.87904 0.91899 0.0
O48 O 0.37266 0.74844 0.91712 0.0
O49 O 0.32437 0.75842 0.99158 0.0
Mg50 Mg 0.39645 0.7 0.99132 0.0
O51 O 0.41267 0.75154 -0.00243 0.0
O52 O 0.39863 0.69567 0.934 0.0
O53 O 0.34066 0.70198 0.00907 0.0
O54 O 0.44275 0.70919 0.02685 0.0
C55 C 0.43574 0.84747 0.92856 0.0
C56 C 0.37488 0.85617 0.02983 0.0
C57 C 0.31282 0.84384 0.92017 0.0
C58 C 0.38425 0.7165 0.90971 0.0
C59 C 0.3169 0.72699 0.00565 0.0
C60 C 0.43768 0.74347 0.0209 0.0
O61 O 0.41424 0.87445 0.92861 0.0
O62 O 0.42635 0.8162 0.94177 0.0
O63 O 0.38224 0.08091 0.26061 0.0
Mg64 Mg 0.37672 0.08779 0.20308 0.0
O65 O 0.42908 0.12001 0.26346 0.0
Mg66 Mg 0.46192 0.12053 0.21013 0.0
O67 O 0.42693 0.07709 0.18486 0.0
O68 O 0.37978 0.04288 0.16833 0.0
O69 O 0.4939 0.12228 0.15558 0.0
O70 O 0.49838 0.07392 0.23211 0.0
Mg71 Mg 0.54621 0.15187 0.21609 0.0
O72 O 0.49738 0.16417 0.23719 0.0
O73 O 0.54149 0.16053 0.15937 0.0
O74 O 0.55546 0.09645 0.23426 0.0
O75 O 0.5471 0.19631 0.25116 0.0
C76 C 0.38975 0.16892 0.18019 0.0
C77 C 0.40257 0.10279 0.27858 0.0
C78 C 0.41454 0.049 0.16794 0.0
C79 C 0.52012 0.14036 0.14072 0.0
C80 C 0.53247 0.07018 0.23843 0.0
C81 C 0.51266 0.19011 0.25568 0.0
O82 O 0.36711 0.14246 0.18457 0.0
O83 O 0.42399 0.16605 0.18707 0.0
O84 O 0.65814 0.3509 0.46646 0.0
Mg85 Mg 0.65861 0.36405 0.52247 0.0
O86 O 0.61337 0.31022 0.4744 0.0
Mg87 Mg 0.6179 0.28292 0.53217 0.0
O88 O 0.66745 0.31579 0.54821 0.0
O89 O 0.70737 0.36095 0.55376 0.0
O90 O 0.62411 0.2574 0.59011 0.0
O91 O 0.65504 0.23797 0.51204 0.0
Mg92 Mg 0.57455 0.2084 0.55185 0.0
O93 O 0.56703 0.24987 0.51538 0.0
O94 O 0.57392 0.2276 0.60601 0.0
O95 O 0.62716 0.18852 0.53661 0.0
O96 O 0.52728 0.20392 0.51874 0.0
C97 C 0.58106 0.36172 0.55706 0.0
C98 C 0.63144 0.33228 0.45377 0.0
C99 C 0.6973 0.32812 0.5626 0.0
C100 C 0.60499 0.24107 0.61441 0.0
C101 C 0.65421 0.20396 0.52053 0.0
C102 C 0.53791 0.23379 0.50264 0.0
O103 O 0.60753 0.3818 0.54548 0.0
O104 O 0.58117 0.32698 0.55456 0.0
O105 O 0.02066 0.33461 0.85254 0.0
Mg106 Mg 0.96429 0.33455 0.86467 0.0
O107 O 0.01508 0.37734 0.80912 0.0
Mg108 Mg 0.95826 0.37071 0.78022 0.0
O109 O 0.94148 0.32408 0.81598 0.0
O110 O 0.93212 0.28628 0.86222 0.0
O111 O 0.90122 0.3616 0.75324 0.0
O112 O 0.97999 0.33004 0.73951 0.0
Mg113 Mg 0.94317 0.40777 0.69984 0.0
O114 O 0.97474 0.41941 0.74414 0.0
O115 O 0.88676 0.4052 0.71341 0.0
O116 O 0.9632 0.35518 0.68562 0.0
O117 O 0.97489 0.45639 0.69594 0.0
C118 C 0.93086 0.41233 0.85521 0.0
C119 C 0.03447 0.36003 0.83282 0.0
C120 C 0.92545 0.29528 0.82863 0.0
C121 C 0.87793 0.37693 0.73208 0.0
C122 C 0.97664 0.32908 0.7048 0.0
C123 C 0.98821 0.44806 0.72777 0.0
O124 O 0.9401 0.38637 0.87708 0.0
O125 O 0.9353 0.41076 0.82074 0.0
O126 O 0.90764 0.75042 0.11468 0.0
Mg127 Mg 0.89932 0.69307 0.11246 0.0
O128 O 0.87521 0.76041 0.06386 0.0
Mg129 Mg 0.86903 0.70802 0.02905 0.0
O130 O 0.9123 0.67744 0.06159 0.0
O131 O 0.9427 0.65791 0.11088 0.0
O132 O 0.86205 0.65638 0.99262 0.0
O133 O 0.91747 0.72686 0.9922 0.0
Mg134 Mg 0.8441 0.73129 0.94548 0.0
O135 O 0.82573 0.7393 -0.00353 0.0
O136 O 0.84315 0.67449 0.93709 0.0
O137 O 0.89726 0.756 0.94239 0.0
O138 O 0.79628 0.76119 0.94778 0.0
C139 C 0.81883 0.67396 0.09993 0.0
C140 C 0.8913 0.77206 0.09269 0.0
C141 C 0.93868 0.65877 0.07579 0.0
C142 C 0.85254 0.64937 0.95958 0.0
C143 C 0.92343 0.74538 0.96297 0.0
C144 C 0.79954 0.75882 0.98288 0.0
O145 O 0.84597 0.67277 0.12195 0.0
O146 O 0.82185 0.68643 0.06711 0.0
O147 O 0.4942 0.65828 0.3768 0.0
Mg148 Mg 0.54841 0.64035 0.37386 0.0
O149 O 0.47739 0.62077 0.33293 0.0
Mg150 Mg 0.52526 0.61898 0.29005 0.0
O151 O 0.56224 0.6563 0.3226 0.0
O152 O 0.58976 0.67981 0.37126 0.0
O153 O 0.57323 0.61552 0.24853 0.0
O154 O 0.5057 0.6698 0.25653 0.0
Mg155 Mg 0.4961 0.59647 0.20612 0.0
O156 O 0.491 0.57889 0.25797 0.0
O157 O 0.55238 0.59537 0.19485 0.0
O158 O 0.47597 0.65073 0.20658 0.0
O159 O 0.46377 0.54896 0.21333 0.0
C160 C 0.5559 0.55981 0.35357 0.0
C161 C 0.47033 0.63737 0.36247 0.0
C162 C 0.58461 0.68004 0.33631 0.0
C163 C 0.57847 0.60632 0.21542 0.0
C164 C 0.48771 0.67634 0.22699 0.0
C165 C 0.46938 0.55271 0.24792 0.0
O166 O 0.55765 0.5827 0.37934 0.0
O167 O 0.54646 0.56918 0.32114 0.0
O168 O 0.11441 0.50163 0.14219 0.0
Mg169 Mg 0.11816 0.4437 0.14091 0.0
O170 O 0.16868 0.51379 0.11749 0.0
Mg171 Mg 0.20499 0.46278 0.11715 0.0
O172 O 0.17017 0.43414 0.15771 0.0
O173 O 0.12425 0.41188 0.18939 0.0
O174 O 0.24144 0.41087 0.11379 0.0
O175 O 0.24089 0.4831 0.16468 0.0
Mg176 Mg 0.29048 0.48025 0.08514 0.0
O177 O 0.2384 0.49319 0.07738 0.0
O178 O 0.28913 0.42283 0.07782 0.0
O179 O 0.2968 0.49416 0.14218 0.0
O180 O 0.27905 0.5218 0.04441 0.0
C181 C 0.13905 0.42702 0.06217 0.0
C182 C 0.13737 0.52398 0.12791 0.0
C183 C 0.15903 0.41626 0.1859 0.0
C184 C 0.26949 0.40042 0.09638 0.0
C185 C 0.2743 0.493 0.1686 0.0
C186 C 0.24564 0.51916 0.05468 0.0
O187 O 0.11452 0.42302 0.08638 0.0
O188 O 0.17041 0.44097 0.0696 0.0
O189 O 0.63167 0.98666 0.8619 0.0
Mg190 Mg 0.63836 0.04296 0.85394 0.0
O191 O 0.68978 0.97115 0.87037 0.0
Mg192 Mg 0.72033 0.02794 0.87141 0.0
O193 O 0.68412 0.05452 0.82692 0.0
O194 O 0.6286 0.06563 0.80357 0.0
O195 O 0.74898 0.08363 0.87007 0.0
O196 O 0.75713 0.01158 0.82393 0.0
Mg197 Mg 0.80431 0.03479 0.90275 0.0
O198 O 0.7584 0.00484 0.91482 0.0
O199 O 0.79453 0.09141 0.90947 0.0
O200 O 0.81331 0.02373 0.84603 0.0
O201 O 0.80899 -0.00272 0.94719 0.0
C202 C 0.65989 0.06791 0.92528 0.0
C203 C 0.65587 0.96271 0.86698 0.0
C204 C 0.66367 0.06948 0.80183 0.0
C205 C 0.77268 0.10419 0.8854 0.0
C206 C 0.79158 0.01538 0.81974 0.0
C207 C 0.77526 0.9882 0.94126 0.0
O208 O 0.6399 0.07751 0.89849 0.0
O209 O 0.68611 0.04601 0.92115 0.0
O210 O 0.74095 0.8532 0.39041 0.0
Mg211 Mg 0.79892 0.85038 0.38772 0.0
O212 O 0.73624 0.90858 0.36455 0.0
Mg213 Mg 0.79087 0.94061 0.36848 0.0
O214 O 0.81473 0.89973 0.40629 0.0
O215 O 0.83377 0.85054 0.43497 0.0
O216 O 0.84572 0.97103 0.3734 0.0
O217 O 0.77224 0.97538 0.41634 0.0
Mg218 Mg 0.79711 0.0258 0.3365 0.0
O219 O 0.76736 0.98016 0.32886 0.0
O220 O 0.85264 0.01172 0.32858 0.0
O221 O 0.78659 0.03142 0.39393 0.0
O222 O 0.75479 0.02818 0.2952 0.0
C223 C 0.82018 0.87791 0.31026 0.0
C224 C 0.72198 0.87827 0.37531 0.0
C225 C 0.83346 0.88563 0.43253 0.0
C226 C 0.86574 0.99341 0.35538 0.0
C227 C 0.77688 0.00989 0.42011 0.0
C228 C 0.74649 0.99511 0.30477 0.0
O229 O 0.81833 0.85052 0.3323 0.0
O230 O 0.81146 0.90982 0.31971 0.0
O231 O 0.24214 0.61618 0.58197 0.0
Mg232 Mg 0.30006 0.61422 0.58751 0.0
O233 O 0.23022 0.56589 0.61527 0.0
Mg234 Mg 0.28179 0.53023 0.62224 0.0
O235 O 0.31131 0.56162 0.57936 0.0
O236 O 0.33379 0.60434 0.54289 0.0
O237 O 0.33408 0.4944 0.62901 0.0
O238 O 0.26212 0.49443 0.57409 0.0
Mg239 Mg 0.2612 0.44748 0.64735 0.0
O240 O 0.24936 0.49797 0.66584 0.0
O241 O 0.3181 0.439 0.64965 0.0
O242 O 0.2373 0.4423 0.59411 0.0
O243 O 0.23003 0.44726 0.69422 0.0
C244 C 0.31839 0.60151 0.66931 0.0
C245 C 0.21974 0.59492 0.59853 0.0
C246 C 0.33008 0.57012 0.5511 0.0
C247 C 0.34239 0.46191 0.63919 0.0
C248 C 0.24515 0.46447 0.56814 0.0
C249 C 0.22985 0.48242 0.69122 0.0
O250 O 0.32083 0.62233 0.64115 0.0
O251 O 0.30427 0.56919 0.66788 0.0
H252 H 0.25071 0.28036 0.53342 0.0
H253 H 0.17936 0.29197 0.43948 0.0
H254 H 0.27487 0.34168 0.52285 0.0
H255 H 0.20284 0.35486 0.42938 0.0
H256 H 0.18414 0.44605 0.52874 0.0
H257 H 0.18252 0.3971 0.48466 0.0
H258 H 0.30049 0.39841 0.48281 0.0
H259 H 0.30188 0.44909 0.52534 0.0
C260 C 0.24096 0.29569 0.5097 0.0
C261 C 0.21182 0.2823 0.48811 0.0
C262 C 0.25524 0.33073 0.50326 0.0
C263 C 0.24002 0.35328 0.47568 0.0
C264 C 0.21462 0.338 0.45097 0.0
C265 C 0.2009 0.30244 0.45698 0.0
C266 C 0.20954 0.43762 0.51688 0.0
C267 C 0.24308 0.45046 0.53086 0.0
C268 C 0.20874 0.40966 0.49146 0.0
C269 C 0.24147 0.39318 0.48139 0.0
C270 C 0.27491 0.41045 0.49043 0.0
C271 C 0.27566 0.43934 0.5149 0.0
H272 H 0.83539 0.06477 0.78574 0.0
H273 H 0.78392 0.95894 0.77186 0.0
H274 H 0.88215 0.04942 0.74236 0.0
H275 H 0.83125 0.94348 0.72849 0.0
H276 H 0.94514 0.92871 0.79938 0.0
H277 H 0.8852 0.95296 0.78876 0.0
H278 H 0.92018 0.00315 0.68719 0.0
H279 H 0.9812 0.97647 0.69655 0.0
C280 C 0.83305 0.03893 0.77184 0.0
C281 C 0.80754 0.01214 0.78337 0.0
C282 C 0.8594 0.03045 0.74637 0.0
C283 C 0.86127 0.99463 0.73393 0.0
C284 C 0.83072 0.97107 0.73865 0.0
C285 C 0.80399 0.97962 0.76397 0.0
C286 C 0.94056 0.94488 0.77466 0.0
C287 C 0.96803 0.95002 0.74855 0.0
C288 C 0.90584 0.95814 0.76824 0.0
C289 C 0.8977 0.97825 0.73626 0.0
C290 C 0.92561 0.98638 0.7113 0.0
C291 C 0.96058 0.97186 0.71716 0.0
H292 H 0.27564 0.72823 0.06767 0.0
H293 H 0.27237 0.69882 0.9544 0.0
H294 H 0.2247 0.68661 0.07992 0.0
H295 H 0.22407 0.65537 0.96607 0.0
H296 H 0.20991 0.54357 0.9928 0.0
H297 H 0.19441 0.60688 0.98089 0.0
H298 H 0.21762 0.63031 0.0948 0.0
H299 H 0.22934 0.56689 0.10631 0.0
C300 C 0.26326 0.71334 0.04523 0.0
C301 C 0.27859 0.71548 0.01046 0.0
C302 C 0.23442 0.68856 0.05223 0.0
C303 C 0.22245 0.66368 0.02515 0.0
C304 C 0.23335 0.67151 0.98885 0.0
C305 C 0.26131 0.69697 0.98173 0.0
C306 C 0.21011 0.56235 0.01533 0.0
C307 C 0.22207 0.55095 0.05012 0.0
C308 C 0.2021 0.59915 0.00854 0.0
C309 C 0.20919 0.62555 0.03568 0.0
C310 C 0.21417 0.6123 0.07197 0.0
C311 C 0.22075 0.57537 0.07899 0.0
H312 H 0.55068 0.04933 0.30714 0.0
H313 H 0.54737 0.01211 0.19615 0.0
H314 H 0.59563 0.00386 0.32321 0.0
H315 H 0.59259 0.96561 0.21201 0.0
H316 H 0.71865 0.99393 0.23572 0.0
H317 H 0.65455 0.98629 0.21931 0.0
H318 H 0.6312 0.95076 0.33007 0.0
H319 H 0.69526 0.96071 0.34666 0.0
C320 C 0.55834 0.02999 0.28666 0.0
C321 C 0.54654 0.03458 0.25039 0.0
C322 C 0.58407 0.00356 0.2958 0.0
C323 C 0.59904 0.98193 0.26848 0.0
C324 C 0.58248 0.9826 0.23344 0.0
C325 C 0.55655 0.00911 0.22434 0.0
C326 C 0.7 0.98309 0.25612 0.0
C327 C 0.71178 0.97812 0.29243 0.0
C328 C 0.66312 0.97823 0.2467 0.0
C329 C 0.63727 0.9691 0.27373 0.0
C330 C 0.65019 0.9587 0.30879 0.0
C331 C 0.68709 0.96388 0.31825 0.0
H332 H 0.69694 0.1709 0.57122 0.0
H333 H 0.68094 0.18538 0.45476 0.0
H334 H 0.73676 0.11883 0.56083 0.0
H335 H 0.72064 0.13337 0.44442 0.0
H336 H 0.71226 0.00907 0.45522 0.0
H337 H 0.69187 0.06043 0.49104 0.0
H338 H 0.80222 0.10365 0.4958 0.0
H339 H 0.82272 0.05217 0.46025 0.0
C340 C 0.70309 0.1636 0.54342 0.0
C341 C 0.68584 0.18144 0.51368 0.0
C342 C 0.72571 0.13401 0.5376 0.0
C343 C 0.73093 0.12217 0.50199 0.0
C344 C 0.71665 0.14233 0.47213 0.0
C345 C 0.6942 0.17201 0.47794 0.0
C346 C 0.73248 0.02817 0.46599 0.0
C347 C 0.7688 0.02727 0.45465 0.0
C348 C 0.72084 0.05763 0.48619 0.0
C349 C 0.74556 0.08594 0.49527 0.0
C350 C 0.78285 0.08205 0.48886 0.0
C351 C 0.79448 0.0526 0.46867 0.0
H352 H 0.00681 0.52013 0.71793 0.0
H353 H 0.04568 0.41914 0.76517 0.0
H354 H 0.06812 0.54723 0.72435 0.0
H355 H 0.1063 0.44543 0.77169 0.0
H356 H 0.21545 0.47762 0.76397 0.0
H357 H 0.1548 0.48523 0.78945 0.0
H358 H 0.11875 0.53462 0.68712 0.0
H359 H 0.17929 0.52761 0.66257 0.0
C360 C 0.02815 0.50416 0.73099 0.0
C361 C 0.02141 0.46748 0.74128 0.0
C362 C 0.06332 0.51963 0.73459 0.0
C363 C 0.09257 0.49846 0.74792 0.0
C364 C 0.08469 0.463 0.76171 0.0
C365 C 0.04958 0.4477 0.75824 0.0
C366 C 0.19502 0.49203 0.74783 0.0
C367 C 0.20186 0.50196 0.71127 0.0
C368 C 0.16012 0.49605 0.76224 0.0
C369 C 0.13132 0.50912 0.7399 0.0
C370 C 0.13994 0.52423 0.70528 0.0
C371 C 0.17495 0.52056 0.69109 0.0
H372 H 0.78289 0.97564 0.01446 0.0
H373 H 0.72944 0.93406 0.9177 0.0
H374 H 0.76868 0.91862 0.04734 0.0
H375 H 0.71675 0.87669 0.9493 0.0
H376 H 0.72598 0.77007 0.98152 0.0
H377 H 0.6998 0.83003 0.99068 0.0
H378 H 0.80247 0.86651 0.03894 0.0
H379 H 0.82761 0.80716 0.02989 0.0
C380 C 0.76721 0.95456 0.00055 0.0
C381 C 0.75792 0.95876 0.96334 0.0
C382 C 0.75905 0.92187 0.01934 0.0
C383 C 0.7429 0.89223 0.00075 0.0
C384 C 0.72937 0.8985 0.96485 0.0
C385 C 0.7368 0.93152 0.94637 0.0
C386 C 0.74197 0.79042 -0.00385 0.0
C387 C 0.77892 0.7843 0.00481 0.0
C388 C 0.72715 0.82493 0.00109 0.0
C389 C 0.74959 0.8539 0.01361 0.0
C390 C 0.78422 0.8454 0.02863 0.0
C391 C 0.79884 0.8109 0.02388 0.0
H392 H 0.42812 0.58213 0.29767 0.0
H393 H 0.45423 0.47947 0.25099 0.0
H394 H 0.36627 0.5601 0.30966 0.0
H395 H 0.39199 0.45777 0.26047 0.0
H396 H 0.28229 0.44371 0.22425 0.0
H397 H 0.32532 0.45008 0.27597 0.0
H398 H 0.34201 0.56397 0.24596 0.0
H399 H 0.30047 0.55693 0.19435 0.0
C400 C 0.42162 0.55364 0.29346 0.0
C401 C 0.44545 0.53274 0.2734 0.0
C402 C 0.38591 0.54107 0.29956 0.0
C403 C 0.37373 0.50825 0.28381 0.0
C404 C 0.40014 0.48379 0.27191 0.0
C405 C 0.43598 0.49626 0.26626 0.0
C406 C 0.29411 0.47039 0.22999 0.0
C407 C 0.28884 0.49981 0.20538 0.0
C408 C 0.31855 0.47405 0.25959 0.0
C409 C 0.33749 0.50733 0.26496 0.0
C410 C 0.32788 0.53792 0.24303 0.0
C411 C 0.30428 0.53399 0.21311 0.0
H412 H 0.51576 0.26218 0.27129 0.0
H413 H 0.471 0.15859 0.30863 0.0
H414 H 0.5073 0.28729 0.33192 0.0
H415 H 0.46318 0.18307 0.36924 0.0
H416 H 0.57111 0.26593 0.44419 0.0
H417 H 0.54843 0.26841 0.38179 0.0
H418 H 0.44401 0.22472 0.41713 0.0
H419 H 0.46704 0.22297 0.48033 0.0
C420 C 0.50254 0.24533 0.29207 0.0
C421 C 0.49424 0.20843 0.28553 0.0
C422 C 0.49789 0.2596 0.32682 0.0
C423 C 0.48558 0.23691 0.35571 0.0
C424 C 0.47268 0.20142 0.34769 0.0
C425 C 0.47698 0.18729 0.31279 0.0
C426 C 0.54271 0.25899 0.43911 0.0
C427 C 0.52088 0.24461 0.46724 0.0
C428 C 0.52959 0.26012 0.40307 0.0
C429 C 0.4944 0.24639 0.39429 0.0
C430 C 0.47135 0.23512 0.42294 0.0
C431 C 0.48453 0.23416 0.45909 0.0
H432 H 0.02541 0.27873 0.51144 0.0
H433 H 0.03346 0.16698 0.54984 0.0
H434 H 0.98823 0.29234 0.5642 0.0
H435 H -0.00256 0.18097 0.60327 0.0
H436 H 0.92714 0.27732 0.68644 0.0
H437 H 0.93227 0.23798 0.63319 0.0
H438 H 0.0467 0.26749 0.62603 0.0
H439 H 0.04128 0.30758 0.67833 0.0
C440 C 0.01714 0.2566 0.52977 0.0
C441 C 0.03305 0.22228 0.5277 0.0
C442 C -0.00402 0.26431 0.55997 0.0
C443 C 0.9913 0.23783 0.58796 0.0
C444 C 0.0011 0.20173 0.58207 0.0
C445 C 0.02176 0.19388 0.55162 0.0
C446 C 0.9537 0.27392 0.67438 0.0
C447 C 0.98382 0.29543 0.68581 0.0
C448 C 0.95648 0.25167 0.644 0.0
C449 C 0.98957 0.25078 0.62547 0.0
C450 C 0.02084 0.26836 0.64006 0.0
C451 C 0.01793 0.29092 0.67003 0.0
H452 H 0.05255 0.80728 0.78908 0.0
H453 H 0.95801 0.73759 0.77215 0.0
H454 H 0.06143 0.78058 0.85007 0.0
H455 H 0.96677 0.71064 0.83276 0.0
H456 H 0.96047 0.68586 0.94418 0.0
H457 H 0.00053 0.68447 0.89135 0.0
H458 H 0.00755 0.80233 0.89054 0.0
H459 H 0.96602 0.80356 0.94184 0.0
C460 C 0.0354 0.7843 0.79725 0.0
C461 C 0.00431 0.77493 0.77625 0.0
C462 C 0.04027 0.76921 0.8324 0.0
C463 C 0.0142 0.74432 0.84659 0.0
C464 C 0.98728 0.72991 0.82275 0.0
C465 C 0.98214 0.74541 0.78789 0.0
C466 C 0.97236 0.71134 0.93398 0.0
C467 C 0.95982 0.7449 0.94648 0.0
C468 C 0.99527 0.71049 0.9037 0.0
C469 C 0.00657 0.74326 0.88635 0.0
C470 C -0.00073 0.77657 0.90323 0.0
C471 C 0.9754 0.77742 0.93266 0.0
H472 H 0.5381 0.68835 0.17711 0.0
H473 H 0.45243 0.74243 0.23338 0.0
H474 H 0.53755 0.73433 0.1298 0.0
H475 H 0.45323 0.79147 0.18669 0.0
H476 H 0.40022 0.77769 0.072 0.0
H477 H 0.425 0.78961 0.1318 0.0
H478 H 0.53455 0.78124 0.09 0.0
H479 H 0.50872 0.76636 0.03017 0.0
C480 C 0.52019 0.7114 0.18002 0.0
C481 C 0.49439 0.71136 0.20789 0.0
C482 C 0.52001 0.7384 0.15283 0.0
C483 C 0.4938 0.76621 0.15283 0.0
C484 C 0.4724 0.76948 0.1845 0.0
C485 C 0.47202 0.74165 0.21152 0.0
C486 C 0.42965 0.78033 0.07514 0.0
C487 C 0.45257 0.76986 0.04705 0.0
C488 C 0.4442 0.78711 0.10986 0.0
C489 C 0.48192 0.78284 0.11684 0.0
C490 C 0.50513 0.78168 0.08636 0.0
C491 C 0.49048 0.77368 0.05181 0.0
H492 H 0.15208 0.32878 0.39833 0.0
H493 H 0.09633 0.27834 0.30708 0.0
H494 H 0.19099 0.36406 0.35537 0.0
H495 H 0.133 0.31375 0.2652 0.0
H496 H 0.19459 0.35221 0.18828 0.0
H497 H 0.19924 0.31677 0.24511 0.0
H498 H 0.17812 0.41363 0.30626 0.0
H499 H 0.17517 0.44915 0.24944 0.0
C500 C 0.1486 0.32488 0.36937 0.0
C501 C 0.12238 0.29966 0.35635 0.0
C502 C 0.17065 0.34497 0.34485 0.0
C503 C 0.16649 0.33998 0.307 0.0
C504 C 0.13841 0.3167 0.29421 0.0
C505 C 0.11659 0.29704 0.31843 0.0
C506 C 0.19399 0.3664 0.21398 0.0
C507 C 0.18352 0.40294 0.21484 0.0
C508 C 0.19636 0.34612 0.24658 0.0
C509 C 0.18687 0.36224 0.27971 0.0
C510 C 0.18466 0.40038 0.28101 0.0
C511 C 0.18292 0.42076 0.24841 0.0
H512 H 0.98896 0.86103 0.58444 0.0
H513 H 0.91987 0.9322 0.64462 0.0
H514 H 0.95873 0.87978 0.52778 0.0
H515 H 0.89067 0.95264 0.58763 0.0
H516 H 0.80921 0.9105 0.49616 0.0
H517 H 0.84764 0.92385 0.54908 0.0
H518 H 0.94344 0.9226 0.48112 0.0
H519 H 0.90439 0.90761 0.42842 0.0
C520 C 0.9677 0.88121 0.58538 0.0
C521 C 0.95596 0.89431 0.61889 0.0
C522 C 0.9507 0.89251 0.55282 0.0
C523 C 0.922 0.91769 0.55302 0.0
C524 C 0.91212 0.93269 0.58649 0.0
C525 C 0.92867 0.92083 0.61914 0.0
C526 C 0.83834 0.91466 0.49242 0.0
C527 C 0.85415 0.90756 0.45881 0.0
C528 C 0.86051 0.92242 0.52271 0.0
C529 C 0.89886 0.92302 0.51965 0.0
C530 C 0.9141 0.92109 0.48462 0.0
C531 C 0.89184 0.91293 0.45439 0.0
H532 H 0.36728 0.65736 0.67965 0.0
H533 H 0.29806 0.58016 0.73835 0.0
H534 H 0.38467 0.68629 0.73699 0.0
H535 H 0.31539 0.60942 0.7958 0.0
H536 H 0.387 0.64498 0.89205 0.0
H537 H 0.37286 0.6172 0.83391 0.0
H538 H 0.35266 0.72361 0.78565 0.0
H539 H 0.36679 0.75204 0.84464 0.0
C540 C 0.3558 0.64653 0.70484 0.0
C541 C 0.33121 0.6165 0.70454 0.0
C542 C 0.36563 0.66328 0.73757 0.0
C543 C 0.35113 0.65032 0.77069 0.0
C544 C 0.32715 0.61981 0.77057 0.0
C545 C 0.31732 0.60298 0.73778 0.0
C546 C 0.37988 0.66275 0.86911 0.0
C547 C 0.37796 0.70087 0.87307 0.0
C548 C 0.37148 0.64664 0.83584 0.0
C549 C 0.36132 0.66816 0.80546 0.0
C550 C 0.36046 0.70641 0.8088 0.0
C551 C 0.36842 0.72265 0.84248 0.0
H552 H 0.51188 0.07519 0.10748 0.0
H553 H 0.55681 0.18425 0.09239 0.0
H554 H 0.54897 0.05399 0.05809 0.0
H555 H 0.59259 0.1636 0.04127 0.0
H556 H 0.68375 0.11109 0.9818 0.0
H557 H 0.64608 0.12842 0.03358 0.0
H558 H 0.56046 0.05413 -0.00354 0.0
H559 H 0.5989 0.03553 0.94723 0.0
C560 C 0.52857 0.09495 0.09253 0.0
C561 C 0.53195 0.1312 0.10396 0.0
C562 C 0.55011 0.08278 0.06432 0.0
C563 C 0.57469 0.10688 0.04645 0.0
C564 C 0.57511 0.14402 0.0555 0.0
C565 C 0.55409 0.15603 0.08421 0.0
C566 C 0.65744 0.09771 0.98592 0.0
C567 C 0.64388 0.07208 0.96105 0.0
C568 C 0.63555 0.10805 0.01491 0.0
C569 C 0.59983 0.09327 0.01864 0.0
C570 C 0.58774 0.06593 0.99476 0.0
C571 C 0.60972 0.05522 0.96654 0.0
H572 H 0.6779 0.23073 0.62504 0.0
H573 H 0.57356 0.21873 0.67838 0.0
H574 H 0.70658 0.1943 0.67384 0.0
H575 H 0.60271 0.183 0.72755 0.0
H576 H 0.67027 0.13905 0.82053 0.0
H577 H 0.66486 0.19082 0.77773 0.0
H578 H 0.67946 0.1186 0.68749 0.0
H579 H 0.68312 0.06638 0.73044 0.0
C580 C 0.66137 0.22166 0.64792 0.0
C581 C 0.62342 0.22768 0.64803 0.0
C582 C 0.67784 0.20064 0.6756 0.0
C583 C 0.65677 0.18616 0.70419 0.0
C584 C 0.61947 0.19438 0.70581 0.0
C585 C 0.60282 0.21475 0.67777 0.0
C586 C 0.67436 0.13465 0.79166 0.0
C587 C 0.67749 0.09911 0.77849 0.0
C588 C 0.671 0.16415 0.7673 0.0
C589 C 0.67169 0.15842 0.72959 0.0
C590 C 0.67924 0.1235 0.7166 0.0
C591 C 0.68158 0.09375 0.74102 0.0
H592 H 0.18728 0.41699 0.00719 0.0
H593 H 0.07166 0.41745 0.0303 0.0
H594 H 0.1731 0.40716 0.94242 0.0
H595 H 0.05784 0.40834 0.96551 0.0
H596 H 0.04338 0.43139 0.84773 0.0
H597 H 0.07627 0.45167 0.90233 0.0
H598 H 0.13126 0.34852 0.91001 0.0
H599 H 0.0972 0.32754 0.85612 0.0
C600 C 0.1589 0.41497 -0.00153 0.0
C601 C 0.13054 0.41801 0.02381 0.0
C602 C 0.15093 0.40956 0.96148 0.0
C603 C 0.11454 0.40788 0.9492 0.0
C604 C 0.08617 0.41037 0.97446 0.0
C605 C 0.09408 0.41511 0.01151 0.0
C606 C 0.06415 0.41387 0.85964 0.0
C607 C 0.06737 0.37766 0.84825 0.0
C608 C 0.08255 0.42534 0.89119 0.0
C609 C 0.10541 0.40119 0.91056 0.0
C610 C 0.1135 0.36741 0.89549 0.0
C611 C 0.09438 0.35558 0.86445 0.0
H612 H 0.85318 0.92716 0.26373 0.0
H613 H 0.8086 0.81715 0.27021 0.0
H614 H 0.86857 0.91811 0.19932 0.0
H615 H 0.82291 0.8087 0.20613 0.0
H616 H 0.82421 0.80039 0.0946 0.0
H617 H 0.80388 0.84218 0.1403 0.0
H618 H 0.91584 0.8628 0.17347 0.0
H619 H 0.93645 0.82148 0.12653 0.0
C620 C 0.84648 0.90122 0.25129 0.0
C621 C 0.83018 0.87259 0.27194 0.0
C622 C 0.85501 0.89627 0.21455 0.0
C623 C 0.84624 0.86305 0.19785 0.0
C624 C 0.82925 0.83485 0.21834 0.0
C625 C 0.82161 0.83943 0.2551 0.0
C626 C 0.84471 0.81623 0.10921 0.0
C627 C 0.88191 0.80794 0.1068 0.0
C628 C 0.83298 0.83981 0.13589 0.0
C629 C 0.85832 0.85494 0.1607 0.0
C630 C 0.89586 0.85135 0.15455 0.0
C631 C 0.90764 0.82764 0.12781 0.0
H632 H 0.29724 0.54713 0.48944 0.0
H633 H 0.39532 0.5353 0.55462 0.0
H634 H 0.33301 0.5526 0.43469 0.0
H635 H 0.43164 0.53693 0.49937 0.0
H636 H 0.47516 0.63513 0.4365 0.0
H637 H 0.44206 0.59583 0.47775 0.0
H638 H 0.37361 0.5579 0.38814 0.0
H639 H 0.40447 0.60199 0.34754 0.0
C640 C 0.32642 0.54268 0.49167 0.0
C641 C 0.34394 0.54336 0.52597 0.0
C642 C 0.34719 0.54616 0.46009 0.0
C643 C 0.38552 0.54865 0.46306 0.0
C644 C 0.40215 0.53803 0.49658 0.0
C645 C 0.38134 0.53607 0.52828 0.0
C646 C 0.45265 0.61899 0.42541 0.0
C647 C 0.44369 0.62024 0.38793 0.0
C648 C 0.43428 0.59523 0.4491 0.0
C649 C 0.40639 0.57161 0.4362 0.0
C650 C 0.39574 0.5746 0.39908 0.0
C651 C 0.41376 0.59931 0.37546 0.0
H652 H 0.20728 0.17369 0.31199 0.0
H653 H 0.23245 0.16508 0.42783 0.0
H654 H 0.27099 0.16053 0.29868 0.0
H655 H 0.29581 0.15145 0.41407 0.0
H656 H 0.37226 0.06705 0.33704 0.0
H657 H 0.32013 0.09073 0.36989 0.0
H658 H 0.33912 0.19716 0.32049 0.0
H659 H 0.39214 0.17419 0.28923 0.0
C660 C 0.22625 0.16902 0.33454 0.0
C661 C 0.21472 0.17036 0.37092 0.0
C662 C 0.26268 0.16184 0.32693 0.0
C663 C 0.28801 0.15557 0.35552 0.0
C664 C 0.27663 0.15653 0.39177 0.0
C665 C 0.24035 0.16414 0.39945 0.0
C666 C 0.36671 0.09601 0.33521 0.0
C667 C 0.38589 0.11875 0.31056 0.0
C668 C 0.33677 0.10944 0.35363 0.0
C669 C 0.32551 0.1454 0.34683 0.0
C670 C 0.34743 0.16928 0.32588 0.0
C671 C 0.378 0.15617 0.30841 0.0
H672 H 0.07357 0.09652 0.4833 0.0
H673 H 0.15925 0.0997 0.56578 0.0
H674 H 0.04108 0.04906 0.51894 0.0
H675 H 0.12632 0.05387 0.60167 0.0
H676 H 0.0662 0.99242 0.67391 0.0
H677 H 0.06118 0.0472 0.63513 0.0
H678 H 0.06475 0.98081 0.53911 0.0
H679 H 0.07015 0.92623 0.57797 0.0
C680 C 0.08563 0.08684 0.5087 0.0
C681 C 0.11938 0.10133 0.5212 0.0
C682 C 0.06668 0.06031 0.52937 0.0
C683 C 0.08072 0.04872 0.56344 0.0
C684 C 0.11438 0.06316 0.57592 0.0
C685 C 0.13363 0.08889 0.55496 0.0
C686 C 0.06336 0.9894 0.64458 0.0
C687 C 0.06937 0.95559 0.62864 0.0
C688 C 0.06065 0.02071 0.6224 0.0
C689 C 0.06392 0.01807 0.5843 0.0
C690 C 0.06253 0.98348 0.56844 0.0
C691 C 0.06557 0.95223 0.59066 0.0
H692 H 0.11586 0.81057 0.78828 0.0
H693 H 0.15538 0.9199 0.81007 0.0
H694 H 0.15988 0.78579 0.83265 0.0
H695 H 0.19941 0.89499 0.85455 0.0
H696 H 0.3066 0.8359 0.84778 0.0
H697 H 0.24796 0.83452 0.81512 0.0
H698 H 0.19233 0.81349 0.91669 0.0
H699 H 0.25145 0.81417 0.94947 0.0
C700 C 0.13221 0.82943 0.80436 0.0
C701 C 0.13193 0.86717 0.79638 0.0
C702 C 0.15766 0.81514 0.82931 0.0
C703 C 0.18269 0.83862 0.84659 0.0
C704 C 0.17995 0.87659 0.84144 0.0
C705 C 0.15483 0.89082 0.81623 0.0
C706 C 0.28208 0.82856 0.86271 0.0
C707 C 0.28308 0.82523 0.90088 0.0
C708 C 0.24863 0.82801 0.84416 0.0
C709 C 0.21607 0.82448 0.86378 0.0
C710 C 0.21733 0.81618 0.9013 0.0
C711 C 0.251 0.81636 0.91989 0.0
H712 H 0.44546 0.99346 0.20502 0.0
H713 H 0.43251 0.041 0.09702 0.0
H714 H 0.45215 0.93314 0.17852 0.0
H715 H 0.44108 0.98112 0.07044 0.0
H716 H 0.4475 0.8635 0.03601 0.0
H717 H 0.47988 0.90693 0.0756 0.0
H718 H 0.38042 0.92288 0.13467 0.0
H719 H 0.34747 0.88142 0.09345 0.0
C720 C 0.44683 0.99138 0.17555 0.0
C721 C 0.43816 0.02145 0.15291 0.0
C722 C 0.45059 0.9569 0.16047 0.0
C723 C 0.44669 0.95269 0.12262 0.0
C724 C 0.44443 0.98389 0.09975 0.0
C725 C 0.43961 0.01817 0.11489 0.0
C726 C 0.43306 0.87503 0.05862 0.0
C727 C 0.39511 0.86938 0.06192 0.0
C728 C 0.45162 0.89975 0.08116 0.0
C729 C 0.43257 0.91792 0.10807 0.0
C730 C 0.39566 0.90867 0.11429 0.0
C731 C 0.37678 0.88506 0.09083 0.0
H732 H 0.87395 0.305 0.71664 0.0
H733 H 0.80886 0.40194 0.72037 0.0
H734 H 0.82501 0.2738 0.68231 0.0
H735 H 0.75918 0.37018 0.68791 0.0
H736 H 0.67329 0.31465 0.63098 0.0
H737 H 0.71372 0.31172 0.68489 0.0
H738 H 0.8063 0.29837 0.6149 0.0
H739 H 0.76602 0.3024 0.56125 0.0
C740 C 0.8485 0.31903 0.71154 0.0
C741 C 0.84505 0.35592 0.72093 0.0
C742 C 0.82057 0.30113 0.69199 0.0
C743 C 0.78828 0.31948 0.68271 0.0
C744 C 0.7836 0.3552 0.6952 0.0
C745 C 0.81201 0.37351 0.71358 0.0
C746 C 0.70198 0.30899 0.62737 0.0
C747 C 0.71683 0.309 0.59225 0.0
C748 C 0.72509 0.30749 0.65815 0.0
C749 C 0.76312 0.30555 0.65392 0.0
C750 C 0.77708 0.29983 0.61894 0.0
C751 C 0.75408 0.30209 0.5882 0.0
H752 H 0.93957 0.48181 0.82909 0.0
H753 H 0.88732 0.418 0.91463 0.0
H754 H 0.916 0.53758 0.8546 0.0
H755 H 0.86249 0.4738 0.93957 0.0
H756 H 0.87072 0.58655 -0.00261 0.0
H757 H 0.88603 0.52785 0.97151 0.0
H758 H 0.85914 0.5696 0.86334 0.0
H759 H 0.84425 0.62806 0.88886 0.0
C760 C 0.92258 0.47974 0.85309 0.0
C761 C 0.91538 0.44572 0.87007 0.0
C762 C 0.90891 0.51163 0.8676 0.0
C763 C 0.88731 0.51009 0.89912 0.0
C764 C 0.87951 0.4759 0.91562 0.0
C765 C 0.89363 0.44401 0.90136 0.0
C766 C 0.86755 0.583 0.96818 0.0
C767 C 0.85653 0.61212 0.94527 0.0
C768 C 0.87621 0.54934 0.95334 0.0
C769 C 0.87422 0.54425 0.91532 0.0
C770 C 0.86158 0.57285 0.89266 0.0
C771 C 0.85275 0.60631 0.90744 0.0
H772 H 0.80657 0.62008 0.15024 0.0
H773 H 0.75101 0.69959 0.0818 0.0
H774 H 0.74875 0.60224 0.17831 0.0
H775 H 0.69302 0.68234 0.11059 0.0
H776 H 0.59227 0.61493 0.14311 0.0
H777 H 0.65 0.63006 0.11429 0.0
H778 H 0.7041 0.62912 0.22009 0.0
H779 H 0.6458 0.61372 0.2493 0.0
C780 C 0.78188 0.63369 0.14118 0.0
C781 C 0.78314 0.66116 0.11383 0.0
C782 C 0.74887 0.62366 0.15746 0.0
C783 C 0.71644 0.6411 0.14692 0.0
C784 C 0.71757 0.66816 0.11902 0.0
C785 C 0.75064 0.67798 0.10246 0.0
C786 C 0.6165 0.61744 0.16034 0.0
C787 C 0.61452 0.6128 0.19855 0.0
C788 C 0.64952 0.62657 0.14376 0.0
C789 C 0.68153 0.63095 0.16488 0.0
C790 C 0.67984 0.62567 0.20308 0.0
C791 C 0.64654 0.61695 0.21982 0.0
H792 H 0.66438 0.36135 0.39333 0.0
H793 H 0.55876 0.3404 0.4414 0.0
H794 H 0.63978 0.41397 0.36006 0.0
H795 H 0.53444 0.39326 0.40858 0.0
H796 H 0.54911 0.52245 0.41844 0.0
H797 H 0.56007 0.45757 0.43014 0.0
H798 H 0.59041 0.44491 0.31753 0.0
H799 H 0.57899 0.50971 0.30559 0.0
C800 C 0.63541 0.36667 0.39507 0.0
C801 C 0.61374 0.34748 0.42064 0.0
C802 C 0.62139 0.39698 0.37627 0.0
C803 C 0.58564 0.40819 0.38293 0.0
C804 C 0.56234 0.38541 0.40369 0.0
C805 C 0.5762 0.35478 0.42202 0.0
C806 C 0.55806 0.50579 0.39621 0.0
C807 C 0.56343 0.52105 0.36119 0.0
C808 C 0.56377 0.46863 0.40272 0.0
C809 C 0.57546 0.44627 0.37446 0.0
C810 C 0.58099 0.46156 0.33954 0.0
C811 C 0.57463 0.49857 0.33286 0.0
H812 H 0.33073 0.37103 0.06787 0.0
H813 H 0.23974 0.34469 0.13827 0.0
H814 H 0.36035 0.31519 0.08719 0.0
H815 H 0.26882 0.28763 0.15652 0.0
H816 H 0.35006 0.21614 0.21826 0.0
H817 H 0.31882 0.27025 0.1945 0.0
H818 H 0.36244 0.25128 0.08731 0.0
H819 H 0.39512 0.19835 0.11204 0.0
C820 C 0.31656 0.35292 0.08689 0.0
C821 C 0.28311 0.3628 0.10211 0.0
C822 C 0.3336 0.32065 0.09789 0.0
C823 C 0.31743 0.29713 0.12404 0.0
C824 C 0.28264 0.30565 0.13718 0.0
C825 C 0.2657 0.33818 0.12639 0.0
C826 C 0.35336 0.22418 0.18981 0.0
C827 C 0.37517 0.20377 0.16693 0.0
C828 C 0.33504 0.25473 0.17599 0.0
C829 C 0.33758 0.26493 0.13879 0.0
C830 C 0.36008 0.24455 0.11613 0.0
C831 C 0.37888 0.21433 0.13018 0.0
H832 H 0.92914 0.23041 0.79522 0.0
H833 H 0.85563 0.31621 0.82218 0.0
H834 H 0.87834 0.1864 0.79585 0.0
H835 H 0.80478 0.27201 0.82399 0.0
H836 H 0.78793 0.17145 0.91384 0.0
H837 H 0.81438 0.22422 0.88072 0.0
H838 H 0.80978 0.16396 0.78038 0.0
H839 H 0.78205 0.11195 0.81309 0.0
C840 C 0.90166 0.24018 0.79888 0.0
C841 C 0.89604 0.27628 0.80906 0.0
C842 C 0.87258 0.21503 0.79944 0.0
C843 C 0.83801 0.22585 0.811 0.0
C844 C 0.83135 0.26312 0.81538 0.0
C845 C 0.86034 0.28838 0.81406 0.0
C846 C 0.79146 0.17013 0.88455 0.0
C847 C 0.78283 0.13807 0.8659 0.0
C848 C 0.80622 0.20024 0.86551 0.0
C849 C 0.81359 0.19813 0.82791 0.0
C850 C 0.80371 0.16642 0.80912 0.0
C851 C 0.78797 0.13679 0.8279 0.0
H852 H 0.14297 0.54814 0.05827 0.0
H853 H 0.09487 0.57306 0.16165 0.0
H854 H 0.09769 0.58572 0.02629 0.0
H855 H 0.04998 0.6112 0.1296 0.0
H856 H 0.9476 0.58671 0.06699 0.0
H857 H 0.00858 0.56094 0.06902 0.0
H858 H 0.05559 0.66709 0.04378 0.0
H859 H 0.99418 0.69272 0.04055 0.0
C860 C 0.12438 0.56371 0.07434 0.0
C861 C 0.12247 0.55796 0.11244 0.0
C862 C 0.09822 0.58479 0.05591 0.0
C863 C 0.07043 0.60074 0.07562 0.0
C864 C 0.07139 0.59892 0.11403 0.0
C865 C 0.09712 0.57741 0.13237 0.0
C866 C 0.97067 0.6039 0.05897 0.0
C867 C 0.96656 0.64165 0.05413 0.0
C868 C 0.00557 0.58928 0.06055 0.0
C869 C 0.03641 0.61243 0.05743 0.0
C870 C 0.03203 0.64893 0.04636 0.0
C871 C -0.00308 0.66344 0.04417 0.0
H872 H 0.66643 0.84345 0.41083 0.0
H873 H 0.70012 0.88433 0.30491 0.0
H874 H 0.6248 0.79997 0.38119 0.0
H875 H 0.65965 0.83962 0.27535 0.0
H876 H 0.54906 0.73335 0.29934 0.0
H877 H 0.57313 0.79629 0.29701 0.0
H878 H 0.68071 0.75701 0.32456 0.0
H879 H 0.65643 0.69468 0.32862 0.0
C880 C 0.66324 0.84463 0.38132 0.0
C881 C 0.68643 0.86693 0.3601 0.0
C882 C 0.63962 0.81974 0.36435 0.0
C883 C 0.63964 0.81648 0.32614 0.0
C884 C 0.65912 0.84202 0.3048 0.0
C885 C 0.68206 0.86766 0.32181 0.0
C886 C 0.57826 0.73806 0.30249 0.0
C887 C 0.60101 0.70966 0.31461 0.0
C888 C 0.59189 0.77401 0.30136 0.0
C889 C 0.62845 0.78108 0.31114 0.0
C890 C 0.65237 0.75189 0.31684 0.0
C891 C 0.63861 0.71626 0.31893 0.0
H892 H 0.55454 0.43053 0.54501 0.0
H893 H 0.53566 0.33093 0.60752 0.0
H894 H 0.49892 0.45593 0.56955 0.0
H895 H 0.48141 0.35678 0.63361 0.0
H896 H 0.3628 0.39165 0.6315 0.0
H897 H 0.42197 0.36934 0.61513 0.0
H898 H 0.46708 0.47922 0.61959 0.0
H899 H 0.40655 0.50196 0.63412 0.0
C900 C 0.53884 0.41436 0.56452 0.0
C901 C 0.54919 0.37862 0.57401 0.0
C902 C 0.50706 0.42898 0.57884 0.0
C903 C 0.48531 0.40838 0.60344 0.0
C904 C 0.49679 0.37319 0.61407 0.0
C905 C 0.52806 0.35838 0.59923 0.0
C906 C 0.3854 0.41111 0.62957 0.0
C907 C 0.37995 0.44865 0.63414 0.0
C908 C 0.41958 0.39821 0.6203 0.0
C909 C 0.44961 0.42236 0.61601 0.0
C910 C 0.44449 0.45985 0.62201 0.0
C911 C 0.40992 0.4729 0.63065 0.0
H912 H 0.1853 0.59317 0.66323 0.0
H913 H 0.17484 0.63247 0.55168 0.0
H914 H 0.14205 0.63834 0.68238 0.0
H915 H 0.13162 0.67817 0.57105 0.0
H916 H 0.05925 0.76346 0.6289 0.0
H917 H 0.07151 0.69991 0.61237 0.0
H918 H 0.17434 0.70581 0.67168 0.0
H919 H 0.16286 0.7691 0.68681 0.0
C920 C 0.17176 0.6096 0.64238 0.0
C921 C 0.18347 0.60947 0.60601 0.0
C922 C 0.14726 0.63579 0.65346 0.0
C923 C 0.1342 0.662 0.62824 0.0
C924 C 0.14138 0.65817 0.59094 0.0
C925 C 0.16619 0.63214 0.57988 0.0
C926 C 0.0843 0.75086 0.63845 0.0
C927 C 0.11043 0.77099 0.65862 0.0
C928 C 0.09111 0.71467 0.62926 0.0
C929 C 0.12347 0.698 0.64136 0.0
C930 C 0.14884 0.7179 0.66264 0.0
C931 C 0.14258 0.75418 0.67083 0.0
H932 H 0.45977 0.9037 0.88499 0.0
H933 H 0.49541 0.80383 0.93841 0.0
H934 H 0.52167 0.91573 0.86411 0.0
H935 H 0.55797 0.81645 0.91765 0.0
H936 H 0.65348 0.91719 0.92654 0.0
H937 H 0.60174 0.87512 0.93654 0.0
H938 H 0.57166 0.88509 0.82234 0.0
H939 H 0.62371 0.92626 0.81233 0.0
C940 C 0.48072 0.88408 0.89192 0.0
C941 C 0.47273 0.85292 0.91353 0.0
C942 C 0.5161 0.89078 0.87964 0.0
C943 C 0.5444 0.86673 0.889 0.0
C944 C 0.53646 0.83516 0.90992 0.0
C945 C 0.50076 0.82807 0.92176 0.0
C946 C 0.63751 0.90811 0.90314 0.0
C947 C 0.64233 0.92489 0.86872 0.0
C948 C 0.60762 0.88436 0.9089 0.0
C949 C 0.5824 0.87769 0.88032 0.0
C950 C 0.59064 0.89004 0.84481 0.0
C951 C 0.62067 0.91325 0.83902 0.0
H952 H 0.93602 -0.00263 0.33169 0.0
H953 H 0.86668 0.02378 0.42134 0.0
H954 H 0.98698 0.0301 0.36105 0.0
H955 H 0.91721 0.0574 0.45058 0.0
H956 H 0.99168 0.16518 0.42286 0.0
H957 H 0.94597 0.11628 0.429 0.0
H958 H 0.02975 0.03632 0.41441 0.0
H959 H 0.07506 0.08559 0.40697 0.0
C960 C 0.93209 0.0096 0.35805 0.0
C961 C 0.89787 0.00832 0.3744 0.0
C962 C 0.96118 0.02797 0.37515 0.0
C963 C 0.95609 0.04608 0.40834 0.0
C964 C 0.92199 0.04348 0.42527 0.0
C965 C 0.8932 0.0244 0.40854 0.0
C966 C 0.0005 0.13706 0.42308 0.0
C967 C 0.03646 0.12877 0.4142 0.0
C968 C 0.9744 0.109 0.4266 0.0
C969 C 0.98428 0.07258 0.42094 0.0
C970 C 0.02142 0.06425 0.41799 0.0
C971 C 0.04734 0.09232 0.41399 0.0
loop_
_geom_bond_atom_site_label_1
_geom_bond_atom_site_label_2
_geom_bond_distance
_geom_bond_site_symmetry_2
_ccdc_geom_bond_type
O0 Mg1 1.990 . S
O0 C14 1.253 . S
Mg1 O0 1.990 . S
Mg1 O4 2.180 . S
Mg1 O5 2.117 . S
Mg1 O19 2.030 . S
O2 Mg3 2.072 . S
O2 C14 1.260 . S
Mg3 O2 2.072 . S
Mg3 O4 2.099 . S
Mg3 O6 2.079 . S
Mg3 O7 2.072 . S
Mg3 O9 2.099 . S
Mg3 O20 2.079 . S
O4 Mg1 2.180 . S
O4 Mg3 2.099 . S
O4 C15 1.279 . S
O5 Mg1 2.117 . S
O5 C15 1.250 . S
O6 Mg3 2.079 . S
O6 C16 1.264 . S
O7 Mg3 2.072 . S
O7 C17 1.260 . S
Mg8 O9 2.180 . S
Mg8 O10 2.030 . S
Mg8 O11 1.990 . S
Mg8 O12 2.117 . S
O9 Mg3 2.099 . S
O9 Mg8 2.180 . S
O9 C18 1.279 . S
O10 Mg8 2.030 . S
O10 C16 1.248 . S
O11 Mg8 1.990 . S
O11 C17 1.253 . S
O12 Mg8 2.117 . S
O12 C18 1.250 . S
C13 O19 1.248 . S
C13 O20 1.264 . S
C14 O0 1.253 . S
C14 O2 1.260 . S
C15 O4 1.279 . S
C15 O5 1.250 . S
C16 O6 1.264 . S
C16 O10 1.248 . S
C17 O7 1.260 . S
C17 O11 1.253 . S
C18 O9 1.279 . S
C18 O12 1.250 . S
O19 Mg1 2.030 . S
O19 C13 1.248 . S
O20 Mg3 2.079 . S
O20 C13 1.264 . S
O21 Mg22 1.990 . S
O21 C35 1.253 . S
Mg22 O21 1.990 . S
Mg22 O25 2.180 . S
Mg22 O26 2.117 . S
Mg22 O40 2.030 . S
O23 Mg24 2.072 . S
O23 C35 1.260 . S
Mg24 O23 2.072 . S
Mg24 O25 2.099 . S
Mg24 O27 2.079 . S
Mg24 O28 2.072 . S
Mg24 O30 2.099 . S
Mg24 O41 2.079 . S
O25 Mg22 2.180 . S
O25 Mg24 2.099 . S
O25 C36 1.279 . S
O26 Mg22 2.117 . S
O26 C36 1.250 . S
O27 Mg24 2.079 . S
O27 C37 1.264 1_455 S
O28 Mg24 2.072 . S
O28 C38 1.260 1_455 S
Mg29 O30 2.180 1_655 S
Mg29 O31 2.030 . S
Mg29 O32 1.990 . S
Mg29 O33 2.117 . S
O30 Mg24 2.099 . S
O30 Mg29 2.180 1_455 S
O30 C39 1.279 . S
O31 Mg29 2.030 . S
O31 C37 1.248 . S
O32 Mg29 1.990 . S
O32 C38 1.253 . S
O33 Mg29 2.117 . S
O33 C39 1.250 1_655 S
C34 O40 1.248 . S
C34 O41 1.264 . S
C35 O21 1.253 . S
C35 O23 1.260 . S
C36 O25 1.279 . S
C36 O26 1.250 . S
C37 O27 1.264 1_655 S
C37 O31 1.248 . S
C38 O28 1.260 1_655 S
C38 O32 1.253 . S
C39 O30 1.279 . S
C39 O33 1.250 1_455 S
O40 Mg22 2.030 . S
O40 C34 1.248 . S
O41 Mg24 2.079 . S
O41 C34 1.264 . S
O42 Mg43 1.990 . S
O42 C56 1.253 1_556 S
Mg43 O42 1.990 . S
Mg43 O46 2.180 . S
Mg43 O47 2.117 . S
Mg43 O61 2.030 . S
O44 Mg45 2.072 1_554 S
O44 C56 1.260 . S
Mg45 O44 2.072 1_556 S
Mg45 O46 2.099 . S
Mg45 O48 2.079 . S
Mg45 O49 2.072 . S
Mg45 O51 2.099 . S
Mg45 O62 2.079 . S
O46 Mg43 2.180 . S
O46 Mg45 2.099 . S
O46 C57 1.279 . S
O47 Mg43 2.117 . S
O47 C57 1.250 . S
O48 Mg45 2.079 . S
O48 C58 1.264 . S
O49 Mg45 2.072 . S
O49 C59 1.260 . S
Mg50 O51 2.180 . S
Mg50 O52 2.030 . S
Mg50 O53 1.986 1_556 S
Mg50 O54 2.117 1_556 S
O51 Mg45 2.099 . S
O51 Mg50 2.180 . S
O51 C60 1.279 1_556 S
O52 Mg50 2.030 . S
O52 C58 1.248 . S
O53 Mg50 1.986 1_554 S
O53 C59 1.248 1_554 S
O54 Mg50 2.117 1_554 S
O54 C60 1.250 . S
C55 O61 1.248 . S
C55 O62 1.264 . S
C56 O42 1.253 1_554 S
C56 O44 1.260 . S
C57 O46 1.279 . S
C57 O47 1.250 . S
C58 O48 1.264 . S
C58 O52 1.248 . S
C59 O49 1.260 . S
C59 O53 1.248 1_556 S
C60 O51 1.279 1_554 S
C60 O54 1.250 . S
O61 Mg43 2.030 . S
O61 C55 1.248 . S
O62 Mg45 2.079 . S
O62 C55 1.264 . S
O63 Mg64 1.990 . S
O63 C77 1.253 . S
Mg64 O63 1.990 . S
Mg64 O67 2.180 . S
Mg64 O68 2.117 . S
Mg64 O82 2.030 . S
O65 Mg66 2.072 . S
O65 C77 1.260 . S
Mg66 O65 2.072 . S
Mg66 O67 2.099 . S
Mg66 O69 2.079 . S
Mg66 O70 2.072 . S
Mg66 O72 2.099 . S
Mg66 O83 2.079 . S
O67 Mg64 2.180 . S
O67 Mg66 2.099 . S
O67 C78 1.279 . S
O68 Mg64 2.117 . S
O68 C78 1.250 . S
O69 Mg66 2.079 . S
O69 C79 1.264 . S
O70 Mg66 2.072 . S
O70 C80 1.260 . S
Mg71 O72 2.180 . S
Mg71 O73 2.030 . S
Mg71 O74 1.990 . S
Mg71 O75 2.117 . S
O72 Mg66 2.099 . S
O72 Mg71 2.180 . S
O72 C81 1.279 . S
O73 Mg71 2.030 . S
O73 C79 1.248 . S
O74 Mg71 1.990 . S
O74 C80 1.253 . S
O75 Mg71 2.117 . S
O75 C81 1.250 . S
C76 O82 1.248 . S
C76 O83 1.264 . S
C77 O63 1.253 . S
C77 O65 1.260 . S
C78 O67 1.279 . S
C78 O68 1.250 . S
C79 O69 1.264 . S
C79 O73 1.248 . S
C80 O70 1.260 . S
C80 O74 1.253 . S
C81 O72 1.279 . S
C81 O75 1.250 . S
O82 Mg64 2.030 . S
O82 C76 1.248 . S
O83 Mg66 2.079 . S
O83 C76 1.264 . S
O84 Mg85 1.990 . S
O84 C98 1.253 . S
Mg85 O84 1.990 . S
Mg85 O88 2.180 . S
Mg85 O89 2.117 . S
Mg85 O103 2.030 . S
O86 Mg87 2.072 . S
O86 C98 1.260 . S
Mg87 O86 2.072 . S
Mg87 O88 2.099 . S
Mg87 O90 2.079 . S
Mg87 O91 2.072 . S
Mg87 O93 2.099 . S
Mg87 O104 2.079 . S
O88 Mg85 2.180 . S
O88 Mg87 2.099 . S
O88 C99 1.279 . S
O89 Mg85 2.117 . S
O89 C99 1.250 . S
O90 Mg87 2.079 . S
O90 C100 1.264 . S
O91 Mg87 2.072 . S
O91 C101 1.260 . S
Mg92 O93 2.180 . S
Mg92 O94 2.030 . S
Mg92 O95 1.990 . S
Mg92 O96 2.117 . S
O93 Mg87 2.099 . S
O93 Mg92 2.180 . S
O93 C102 1.279 . S
O94 Mg92 2.030 . S
O94 C100 1.248 . S
O95 Mg92 1.990 . S
O95 C101 1.253 . S
O96 Mg92 2.117 . S
O96 C102 1.250 . S
C97 O103 1.248 . S
C97 O104 1.264 . S
C98 O84 1.253 . S
C98 O86 1.260 . S
C99 O88 1.279 . S
C99 O89 1.250 . S
C100 O90 1.264 . S
C100 O94 1.248 . S
C101 O91 1.260 . S
C101 O95 1.253 . S
C102 O93 1.279 . S
C102 O96 1.250 . S
O103 Mg85 2.030 . S
O103 C97 1.248 . S
O104 Mg87 2.079 . S
O104 C97 1.264 . S
O105 Mg106 1.990 . S
O105 C119 1.253 1_655 S
Mg106 O105 1.990 . S
Mg106 O109 2.180 . S
Mg106 O110 2.117 . S
Mg106 O124 2.030 . S
O107 Mg108 2.072 . S
O107 C119 1.260 1_655 S
Mg108 O107 2.072 . S
Mg108 O109 2.099 . S
Mg108 O111 2.079 . S
Mg108 O112 2.072 . S
Mg108 O114 2.099 . S
Mg108 O125 2.079 . S
O109 Mg106 2.180 . S
O109 Mg108 2.099 . S
O109 C120 1.279 . S
O110 Mg106 2.117 . S
O110 C120 1.250 . S
O111 Mg108 2.079 . S
O111 C121 1.264 . S
O112 Mg108 2.072 . S
O112 C122 1.260 . S
Mg113 O114 2.180 . S
Mg113 O115 2.030 . S
Mg113 O116 1.990 . S
Mg113 O117 2.117 1_655 S
O114 Mg108 2.099 . S
O114 Mg113 2.180 . S
O114 C123 1.279 1_655 S
O115 Mg113 2.030 . S
O115 C121 1.248 . S
O116 Mg113 1.990 . S
O116 C122 1.253 . S
O117 Mg113 2.117 1_455 S
O117 C123 1.250 . S
C118 O124 1.248 . S
C118 O125 1.264 . S
C119 O105 1.253 1_455 S
C119 O107 1.260 1_455 S
C120 O109 1.279 . S
C120 O110 1.250 . S
C121 O111 1.264 . S
C121 O115 1.248 . S
C122 O112 1.260 . S
C122 O116 1.253 . S
C123 O114 1.279 1_455 S
C123 O117 1.250 . S
O124 Mg106 2.030 . S
O124 C118 1.248 . S
O125 Mg108 2.079 . S
O125 C118 1.264 . S
O126 Mg127 1.990 . S
O126 C140 1.253 . S
Mg127 O126 1.990 . S
Mg127 O130 2.180 . S
Mg127 O131 2.117 . S
Mg127 O145 2.030 . S
O128 Mg129 2.072 . S
O128 C140 1.260 . S
Mg129 O128 2.072 . S
Mg129 O130 2.099 . S
Mg129 O132 2.079 . S
Mg129 O133 2.072 . S
Mg129 O135 2.099 . S
Mg129 O146 2.079 . S
O130 Mg127 2.180 . S
O130 Mg129 2.099 . S
O130 C141 1.279 . S
O131 Mg127 2.117 . S
O131 C141 1.250 . S
O132 Mg129 2.079 . S
O132 C142 1.264 1_554 S
O133 Mg129 2.072 . S
O133 C143 1.260 1_554 S
Mg134 O135 2.180 1_556 S
Mg134 O136 2.030 . S
Mg134 O137 1.990 . S
Mg134 O138 2.117 . S
O135 Mg129 2.099 . S
O135 Mg134 2.180 1_554 S
O135 C144 1.279 1_554 S
O136 Mg134 2.030 . S
O136 C142 1.248 . S
O137 Mg134 1.990 . S
O137 C143 1.253 . S
O138 Mg134 2.117 . S
O138 C144 1.250 . S
C139 O145 1.248 . S
C139 O146 1.264 . S
C140 O126 1.253 . S
C140 O128 1.260 . S
C141 O130 1.279 . S
C141 O131 1.250 . S
C142 O132 1.264 1_556 S
C142 O136 1.248 . S
C143 O133 1.260 1_556 S
C143 O137 1.253 . S
C144 O135 1.279 1_556 S
C144 O138 1.250 . S
O145 Mg127 2.030 . S
O145 C139 1.248 . S
O146 Mg129 2.079 . S
O146 C139 1.264 . S
O147 Mg148 1.990 . S
O147 C161 1.253 . S
Mg148 O147 1.990 . S
Mg148 O151 2.180 . S
Mg148 O152 2.117 . S
Mg148 O166 2.030 . S
O149 Mg150 2.072 . S
O149 C161 1.260 . S
Mg150 O149 2.072 . S
Mg150 O151 2.099 . S
Mg150 O153 2.079 . S
Mg150 O154 2.072 . S
Mg150 O156 2.099 . S
Mg150 O167 2.079 . S
O151 Mg148 2.180 . S
O151 Mg150 2.099 . S
O151 C162 1.279 . S
O152 Mg148 2.117 . S
O152 C162 1.250 . S
O153 Mg150 2.079 . S
O153 C163 1.264 . S
O154 Mg150 2.072 . S
O154 C164 1.260 . S
Mg155 O156 2.180 . S
Mg155 O157 2.030 . S
Mg155 O158 1.990 . S
Mg155 O159 2.117 . S
O156 Mg150 2.099 . S
O156 Mg155 2.180 . S
O156 C165 1.279 . S
O157 Mg155 2.030 . S
O157 C163 1.248 . S
O158 Mg155 1.990 . S
O158 C164 1.253 . S
O159 Mg155 2.117 . S
O159 C165 1.250 . S
C160 O166 1.248 . S
C160 O167 1.264 . S
C161 O147 1.253 . S
C161 O149 1.260 . S
C162 O151 1.279 . S
C162 O152 1.250 . S
C163 O153 1.264 . S
C163 O157 1.248 . S
C164 O154 1.260 . S
C164 O158 1.253 . S
C165 O156 1.279 . S
C165 O159 1.250 . S
O166 Mg148 2.030 . S
O166 C160 1.248 . S
O167 Mg150 2.079 . S
O167 C160 1.264 . S
O168 Mg169 1.990 . S
O168 C182 1.253 . S
Mg169 O168 1.990 . S
Mg169 O172 2.180 . S
Mg169 O173 2.117 . S
Mg169 O187 2.030 . S
O170 Mg171 2.072 . S
O170 C182 1.260 . S
Mg171 O170 2.072 . S
Mg171 O172 2.099 . S
Mg171 O174 2.079 . S
Mg171 O175 2.072 . S
Mg171 O177 2.099 . S
Mg171 O188 2.079 . S
O172 Mg169 2.180 . S
O172 Mg171 2.099 . S
O172 C183 1.279 . S
O173 Mg169 2.117 . S
O173 C183 1.250 . S
O174 Mg171 2.079 . S
O174 C184 1.264 . S
O175 Mg171 2.072 . S
O175 C185 1.260 . S
Mg176 O177 2.180 . S
Mg176 O178 2.030 . S
Mg176 O179 1.990 . S
Mg176 O180 2.117 . S
O177 Mg171 2.099 . S
O177 Mg176 2.180 . S
O177 C186 1.279 . S
O178 Mg176 2.030 . S
O178 C184 1.248 . S
O179 Mg176 1.990 . S
O179 C185 1.253 . S
O180 Mg176 2.117 . S
O180 C186 1.250 . S
C181 O187 1.248 . S
C181 O188 1.264 . S
C182 O168 1.253 . S
C182 O170 1.260 . S
C183 O172 1.279 . S
C183 O173 1.250 . S
C184 O174 1.264 . S
C184 O178 1.248 . S
C185 O175 1.260 . S
C185 O179 1.253 . S
C186 O177 1.279 . S
C186 O180 1.250 . S
O187 Mg169 2.030 . S
O187 C181 1.248 . S
O188 Mg171 2.079 . S
O188 C181 1.264 . S
O189 Mg190 1.990 . S
O189 C203 1.253 1_545 S
Mg190 O189 1.990 . S
Mg190 O193 2.180 . S
Mg190 O194 2.117 . S
Mg190 O208 2.030 . S
O191 Mg192 2.072 . S
O191 C203 1.260 1_545 S
Mg192 O191 2.072 . S
Mg192 O193 2.099 . S
Mg192 O195 2.079 . S
Mg192 O196 2.072 . S
Mg192 O198 2.099 . S
Mg192 O209 2.079 . S
O193 Mg190 2.180 . S
O193 Mg192 2.099 . S
O193 C204 1.279 . S
O194 Mg190 2.117 . S
O194 C204 1.250 . S
O195 Mg192 2.079 . S
O195 C205 1.264 . S
O196 Mg192 2.072 . S
O196 C206 1.260 . S
Mg197 O198 2.180 . S
Mg197 O199 2.030 . S
Mg197 O200 1.990 . S
Mg197 O201 2.117 1_545 S
O198 Mg192 2.099 . S
O198 Mg197 2.180 . S
O198 C207 1.279 1_545 S
O199 Mg197 2.030 . S
O199 C205 1.248 . S
O200 Mg197 1.990 . S
O200 C206 1.253 . S
O201 Mg197 2.117 1_565 S
O201 C207 1.250 . S
C202 O208 1.248 . S
C202 O209 1.264 . S
C203 O189 1.253 1_565 S
C203 O191 1.260 1_565 S
C204 O193 1.279 . S
C204 O194 1.250 . S
C205 O195 1.264 . S
C205 O199 1.248 . S
C206 O196 1.260 . S
C206 O200 1.253 . S
C207 O198 1.279 1_565 S
C207 O201 1.250 . S
O208 Mg190 2.030 . S
O208 C202 1.248 . S
O209 Mg192 2.079 . S
O209 C202 1.264 . S
O210 Mg211 1.990 . S
O210 C224 1.253 . S
Mg211 O210 1.990 . S
Mg211 O214 2.180 . S
Mg211 O215 2.117 . S
Mg211 O229 2.030 . S
O212 Mg213 2.072 . S
O212 C224 1.260 . S
Mg213 O212 2.072 . S
Mg213 O214 2.099 . S
Mg213 O216 2.079 . S
Mg213 O217 2.072 . S
Mg213 O219 2.099 . S
Mg213 O230 2.079 . S
O214 Mg211 2.180 . S
O214 Mg213 2.099 . S
O214 C225 1.279 . S
O215 Mg211 2.117 . S
O215 C225 1.250 . S
O216 Mg213 2.079 . S
O216 C226 1.264 1_565 S
O217 Mg213 2.072 . S
O217 C227 1.260 1_565 S
Mg218 O219 2.180 1_545 S
Mg218 O220 2.030 . S
Mg218 O221 1.990 . S
Mg218 O222 2.117 . S
O219 Mg213 2.099 . S
O219 Mg218 2.180 1_565 S
O219 C228 1.279 . S
O220 Mg218 2.030 . S
O220 C226 1.248 . S
O221 Mg218 1.990 . S
O221 C227 1.253 . S
O222 Mg218 2.117 . S
O222 C228 1.250 1_545 S
C223 O229 1.248 . S
C223 O230 1.264 . S
C224 O210 1.253 . S
C224 O212 1.260 . S
C225 O214 1.279 . S
C225 O215 1.250 . S
C226 O216 1.264 1_545 S
C226 O220 1.248 . S
C227 O217 1.260 1_545 S
C227 O221 1.253 . S
C228 O219 1.279 . S
C228 O222 1.250 1_565 S
O229 Mg211 2.030 . S
O229 C223 1.248 . S
O230 Mg213 2.079 . S
O230 C223 1.264 . S
O231 Mg232 1.990 . S
O231 C245 1.253 . S
Mg232 O231 1.990 . S
Mg232 O235 2.180 . S
Mg232 O236 2.117 . S
Mg232 O250 2.030 . S
O233 Mg234 2.072 . S
O233 C245 1.260 . S
Mg234 O233 2.072 . S
Mg234 O235 2.099 . S
Mg234 O237 2.079 . S
Mg234 O238 2.072 . S
Mg234 O240 2.099 . S
Mg234 O251 2.079 . S
O235 Mg232 2.180 . S
O235 Mg234 2.099 . S
O235 C246 1.279 . S
O236 Mg232 2.117 . S
O236 C246 1.250 . S
O237 Mg234 2.079 . S
O237 C247 1.264 . S
O238 Mg234 2.072 . S
O238 C248 1.260 . S
Mg239 O240 2.180 . S
Mg239 O241 2.030 . S
Mg239 O242 1.990 . S
Mg239 O243 2.117 . S
O240 Mg234 2.099 . S
O240 Mg239 2.180 . S
O240 C249 1.279 . S
O241 Mg239 2.030 . S
O241 C247 1.248 . S
O242 Mg239 1.990 . S
O242 C248 1.253 . S
O243 Mg239 2.117 . S
O243 C249 1.250 . S
C244 O250 1.248 . S
C244 O251 1.264 . S
C245 O231 1.253 . S
C245 O233 1.260 . S
C246 O235 1.279 . S
C246 O236 1.250 . S
C247 O237 1.264 . S
C247 O241 1.248 . S
C248 O238 1.260 . S
C248 O242 1.253 . S
C249 O240 1.279 . S
C249 O243 1.250 . S
O250 Mg232 2.030 . S
O250 C244 1.248 . S
O251 Mg234 2.079 . S
O251 C244 1.264 . S
H252 C260 0.950 . S
H253 C265 0.950 . S
H254 C262 0.950 . S
H255 C264 0.950 . S
H256 C266 0.950 . S
H257 C268 0.950 . S
H258 C270 0.950 . S
H259 C271 0.950 . S
C260 H252 0.950 . S
C260 C261 1.386 . S
C260 C262 1.391 . S
C261 C260 1.386 . S
C261 C265 1.393 . S
C262 H254 0.950 . S
C262 C260 1.391 . S
C262 C263 1.400 . S
C263 C262 1.400 . S
C263 C264 1.398 . S
C263 C269 1.491 . S
C264 H255 0.950 . S
C264 C263 1.398 . S
C264 C265 1.391 . S
C265 H253 0.950 . S
C265 C261 1.393 . S
C265 C264 1.391 . S
C266 H256 0.950 . S
C266 C267 1.386 . S
C266 C268 1.391 . S
C267 C266 1.386 . S
C267 C271 1.393 . S
C268 H257 0.950 . S
C268 C266 1.391 . S
C268 C269 1.400 . S
C269 C263 1.491 . S
C269 C268 1.400 . S
C269 C270 1.398 . S
C270 H258 0.950 . S
C270 C269 1.398 . S
C270 C271 1.391 . S
C271 H259 0.950 . S
C271 C267 1.393 . S
C271 C270 1.391 . S
H272 C280 0.950 . S
H273 C285 0.950 . S
H274 C282 0.950 . S
H275 C284 0.950 . S
H276 C286 0.950 . S
H277 C288 0.950 . S
H278 C290 0.950 . S
H279 C291 0.950 1_545 S
C280 H272 0.950 . S
C280 C281 1.386 . S
C280 C282 1.391 . S
C281 C280 1.386 . S
C281 C285 1.393 1_545 S
C282 H274 0.950 . S
C282 C280 1.391 . S
C282 C283 1.400 1_545 S
C283 C282 1.400 1_565 S
C283 C284 1.398 . S
C283 C289 1.491 . S
C284 H275 0.950 . S
C284 C283 1.398 . S
C284 C285 1.391 . S
C285 H273 0.950 . S
C285 C281 1.393 1_565 S
C285 C284 1.391 . S
C286 H276 0.950 . S
C286 C287 1.386 . S
C286 C288 1.391 . S
C287 C286 1.386 . S
C287 C291 1.393 . S
C288 H277 0.950 . S
C288 C286 1.391 . S
C288 C289 1.400 . S
C289 C283 1.491 . S
C289 C288 1.400 . S
C289 C290 1.398 1_565 S
C290 H278 0.950 . S
C290 C289 1.398 1_545 S
C290 C291 1.391 1_545 S
C291 H279 0.950 1_565 S
C291 C287 1.393 . S
C291 C290 1.391 1_565 S
H292 C300 0.950 . S
H293 C305 0.950 . S
H294 C302 0.950 . S
H295 C304 0.950 . S
H296 C306 0.950 . S
H297 C308 0.950 1_556 S
H298 C310 0.950 . S
H299 C311 0.950 . S
C300 H292 0.950 . S
C300 C301 1.386 1_554 S
C300 C302 1.391 . S
C301 C300 1.386 1_556 S
C301 C305 1.393 . S
C302 H294 0.950 . S
C302 C300 1.391 . S
C302 C303 1.400 . S
C303 C302 1.400 . S
C303 C304 1.398 1_554 S
C303 C309 1.491 . S
C304 H295 0.950 . S
C304 C303 1.398 1_556 S
C304 C305 1.391 . S
C305 H293 0.950 . S
C305 C301 1.393 . S
C305 C304 1.391 . S
C306 H296 0.950 . S
C306 C307 1.386 . S
C306 C308 1.391 . S
C307 C306 1.386 . S
C307 C311 1.393 . S
C308 H297 0.950 1_554 S
C308 C306 1.391 . S
C308 C309 1.400 . S
C309 C303 1.491 . S
C309 C308 1.400 . S
C309 C310 1.398 . S
C310 H298 0.950 . S
C310 C309 1.398 . S
C310 C311 1.391 . S
C311 H299 0.950 . S
C311 C307 1.393 . S
C311 C310 1.391 . S
H312 C320 0.950 . S
H313 C325 0.950 . S
H314 C322 0.950 . S
H315 C324 0.950 . S
H316 C326 0.950 . S
H317 C328 0.950 . S
H318 C330 0.950 . S
H319 C331 0.950 . S
C320 H312 0.950 . S
C320 C321 1.386 . S
C320 C322 1.391 . S
C321 C320 1.386 . S
C321 C325 1.393 . S
C322 H314 0.950 . S
C322 C320 1.391 . S
C322 C323 1.400 . S
C323 C322 1.400 . S
C323 C324 1.398 . S
C323 C329 1.491 . S
C324 H315 0.950 . S
C324 C323 1.398 . S
C324 C325 1.391 . S
C325 H313 0.950 . S
C325 C321 1.393 . S
C325 C324 1.391 . S
C326 H316 0.950 . S
C326 C327 1.386 . S
C326 C328 1.391 . S
C327 C326 1.386 . S
C327 C331 1.393 1_565 S
C328 H317 0.950 . S
C328 C326 1.391 . S
C328 C329 1.400 1_565 S
C329 C323 1.491 . S
C329 C328 1.400 1_545 S
C329 C330 1.398 . S
C330 H318 0.950 . S
C330 C329 1.398 . S
C330 C331 1.391 . S
C331 H319 0.950 . S
C331 C327 1.393 1_545 S
C331 C330 1.391 . S
H332 C340 0.950 . S
H333 C345 0.950 . S
H334 C342 0.950 . S
H335 C344 0.950 . S
H336 C346 0.950 . S
H337 C348 0.950 . S
H338 C350 0.950 . S
H339 C351 0.950 . S
C340 H332 0.950 . S
C340 C341 1.386 . S
C340 C342 1.391 . S
C341 C340 1.386 . S
C341 C345 1.393 . S
C342 H334 0.950 . S
C342 C340 1.391 . S
C342 C343 1.400 . S
C343 C342 1.400 . S
C343 C344 1.398 . S
C343 C349 1.491 . S
C344 H335 0.950 . S
C344 C343 1.398 . S
C344 C345 1.391 . S
C345 H333 0.950 . S
C345 C341 1.393 . S
C345 C344 1.391 . S
C346 H336 0.950 . S
C346 C347 1.386 . S
C346 C348 1.391 . S
C347 C346 1.386 . S
C347 C351 1.393 . S
C348 H337 0.950 . S
C348 C346 1.391 . S
C348 C349 1.400 . S
C349 C343 1.491 . S
C349 C348 1.400 . S
C349 C350 1.398 . S
C350 H338 0.950 . S
C350 C349 1.398 . S
C350 C351 1.391 . S
C351 H339 0.950 . S
C351 C347 1.393 . S
C351 C350 1.391 . S
H352 C360 0.950 . S
H353 C365 0.950 . S
H354 C362 0.950 . S
H355 C364 0.950 . S
H356 C366 0.950 . S
H357 C368 0.950 . S
H358 C370 0.950 . S
H359 C371 0.950 . S
C360 H352 0.950 . S
C360 C361 1.386 . S
C360 C362 1.391 . S
C361 C360 1.386 . S
C361 C365 1.393 . S
C362 H354 0.950 . S
C362 C360 1.391 . S
C362 C363 1.400 . S
C363 C362 1.400 . S
C363 C364 1.398 . S
C363 C369 1.491 . S
C364 H355 0.950 . S
C364 C363 1.398 . S
C364 C365 1.391 . S
C365 H353 0.950 . S
C365 C361 1.393 . S
C365 C364 1.391 . S
C366 H356 0.950 . S
C366 C367 1.386 . S
C366 C368 1.391 . S
C367 C366 1.386 . S
C367 C371 1.393 . S
C368 H357 0.950 . S
C368 C366 1.391 . S
C368 C369 1.400 . S
C369 C363 1.491 . S
C369 C368 1.400 . S
C369 C370 1.398 . S
C370 H358 0.950 . S
C370 C369 1.398 . S
C370 C371 1.391 . S
C371 H359 0.950 . S
C371 C367 1.393 . S
C371 C370 1.391 . S
H372 C380 0.950 . S
H373 C385 0.950 . S
H374 C382 0.950 . S
H375 C384 0.950 . S
H376 C386 0.950 . S
H377 C388 0.950 . S
H378 C390 0.953 . S
H379 C391 0.950 . S
C380 H372 0.950 . S
C380 C381 1.386 . S
C380 C382 1.391 . S
C381 C380 1.386 . S
C381 C385 1.393 . S
C382 H374 0.950 . S
C382 C380 1.391 . S
C382 C383 1.400 . S
C383 C382 1.400 . S
C383 C384 1.398 . S
C383 C389 1.491 . S
C384 H375 0.950 . S
C384 C383 1.398 . S
C384 C385 1.391 . S
C385 H373 0.950 . S
C385 C381 1.393 . S
C385 C384 1.391 . S
C386 H376 0.950 . S
C386 C387 1.386 1_556 S
C386 C388 1.391 . S
C387 C386 1.386 1_554 S
C387 C391 1.393 . S
C388 H377 0.950 . S
C388 C386 1.391 . S
C388 C389 1.400 . S
C389 C383 1.491 . S
C389 C388 1.400 . S
C389 C390 1.398 . S
C390 H378 0.953 . S
C390 C389 1.398 . S
C390 C391 1.391 1_556 S
C391 H379 0.950 . S
C391 C387 1.393 . S
C391 C390 1.391 1_554 S
H392 C400 0.950 . S
H393 C405 0.950 . S
H394 C402 0.950 . S
H395 C404 0.950 . S
H396 C406 0.950 . S
H397 C408 0.950 . S
H398 C410 0.950 . S
H399 C411 0.950 . S
C400 H392 0.950 . S
C400 C401 1.386 . S
C400 C402 1.391 . S
C401 C400 1.386 . S
C401 C405 1.393 . S
C402 H394 0.950 . S
C402 C400 1.391 . S
C402 C403 1.400 . S
C403 C402 1.400 . S
C403 C404 1.398 . S
C403 C409 1.491 . S
C404 H395 0.950 . S
C404 C403 1.398 . S
C404 C405 1.391 . S
C405 H393 0.950 . S
C405 C401 1.393 . S
C405 C404 1.391 . S
C406 H396 0.950 . S
C406 C407 1.386 . S
C406 C408 1.391 . S
C407 C406 1.386 . S
C407 C411 1.393 . S
C408 H397 0.950 . S
C408 C406 1.391 . S
C408 C409 1.400 . S
C409 C403 1.491 . S
C409 C408 1.400 . S
C409 C410 1.398 . S
C410 H398 0.950 . S
C410 C409 1.398 . S
C410 C411 1.391 . S
C411 H399 0.950 . S
C411 C407 1.393 . S
C411 C410 1.391 . S
H412 C420 0.950 . S
H413 C425 0.950 . S
H414 C422 0.950 . S
H415 C424 0.950 . S
H416 C426 0.950 . S
H417 C428 0.950 . S
H418 C430 0.950 . S
H419 C431 0.950 . S
C420 H412 0.950 . S
C420 C421 1.386 . S
C420 C422 1.391 . S
C421 C420 1.386 . S
C421 C425 1.393 . S
C422 H414 0.950 . S
C422 C420 1.391 . S
C422 C423 1.400 . S
C423 C422 1.400 . S
C423 C424 1.398 . S
C423 C429 1.491 . S
C424 H415 0.950 . S
C424 C423 1.398 . S
C424 C425 1.391 . S
C425 H413 0.950 . S
C425 C421 1.393 . S
C425 C424 1.391 . S
C426 H416 0.950 . S
C426 C427 1.386 . S
C426 C428 1.391 . S
C427 C426 1.386 . S
C427 C431 1.393 . S
C428 H417 0.950 . S
C428 C426 1.391 . S
C428 C429 1.400 . S
C429 C423 1.491 . S
C429 C428 1.400 . S
C429 C430 1.398 . S
C430 H418 0.950 . S
C430 C429 1.398 . S
C430 C431 1.391 . S
C431 H419 0.950 . S
C431 C427 1.393 . S
C431 C430 1.391 . S
H432 C440 0.950 . S
H433 C445 0.950 . S
H434 C442 0.950 . S
H435 C444 0.950 . S
H436 C446 0.950 . S
H437 C448 0.950 . S
H438 C450 0.950 . S
H439 C451 0.950 . S
C440 H432 0.950 . S
C440 C441 1.386 . S
C440 C442 1.391 . S
C441 C440 1.386 . S
C441 C445 1.393 . S
C442 H434 0.950 . S
C442 C440 1.391 . S
C442 C443 1.400 . S
C443 C442 1.400 . S
C443 C444 1.398 . S
C443 C449 1.491 . S
C444 H435 0.950 . S
C444 C443 1.398 . S
C444 C445 1.391 . S
C445 H433 0.950 . S
C445 C441 1.393 . S
C445 C444 1.391 . S
C446 H436 0.950 . S
C446 C447 1.386 . S
C446 C448 1.391 . S
C447 C446 1.386 . S
C447 C451 1.393 1_655 S
C448 H437 0.950 . S
C448 C446 1.391 . S
C448 C449 1.400 1_655 S
C449 C443 1.491 . S
C449 C448 1.400 1_455 S
C449 C450 1.398 . S
C450 H438 0.950 . S
C450 C449 1.398 . S
C450 C451 1.391 . S
C451 H439 0.950 . S
C451 C447 1.393 1_455 S
C451 C450 1.391 . S
H452 C460 0.950 . S
H453 C465 0.950 . S
H454 C462 0.950 . S
H455 C464 0.950 . S
H456 C466 0.950 . S
H457 C468 0.950 . S
H458 C470 0.933 1_455 S
H459 C471 0.950 1_455 S
C460 H452 0.950 . S
C460 C461 1.386 . S
C460 C462 1.391 . S
C461 C460 1.386 . S
C461 C465 1.393 1_455 S
C462 H454 0.950 . S
C462 C460 1.391 . S
C462 C463 1.400 1_455 S
C463 C462 1.400 1_655 S
C463 C464 1.398 . S
C463 C469 1.491 . S
C464 H455 0.950 . S
C464 C463 1.398 . S
C464 C465 1.391 . S
C465 H453 0.950 . S
C465 C461 1.393 1_655 S
C465 C464 1.391 . S
C466 H456 0.950 . S
C466 C467 1.386 . S
C466 C468 1.391 . S
C467 C466 1.386 . S
C467 C471 1.393 . S
C468 H457 0.950 . S
C468 C466 1.391 . S
C468 C469 1.400 . S
C469 C463 1.491 . S
C469 C468 1.400 . S
C469 C470 1.409 . S
C470 H458 0.933 1_655 S
C470 C469 1.409 . S
C470 C471 1.397 . S
C471 H459 0.950 1_655 S
C471 C467 1.393 . S
C471 C470 1.397 . S
H472 C480 0.950 . S
H473 C485 0.950 . S
H474 C482 0.950 . S
H475 C484 0.950 . S
H476 C486 0.950 . S
H477 C488 0.950 . S
H478 C490 0.950 . S
H479 C491 0.950 . S
C480 H472 0.950 . S
C480 C481 1.386 . S
C480 C482 1.391 . S
C481 C480 1.386 . S
C481 C485 1.393 . S
C482 H474 0.950 . S
C482 C480 1.391 . S
C482 C483 1.400 . S
C483 C482 1.400 . S
C483 C484 1.398 . S
C483 C489 1.491 . S
C484 H475 0.950 . S
C484 C483 1.398 . S
C484 C485 1.391 . S
C485 H473 0.950 . S
C485 C481 1.393 . S
C485 C484 1.391 . S
C486 H476 0.950 . S
C486 C487 1.386 . S
C486 C488 1.391 . S
C487 C486 1.386 . S
C487 C491 1.393 . S
C488 H477 0.950 . S
C488 C486 1.391 . S
C488 C489 1.400 . S
C489 C483 1.491 . S
C489 C488 1.400 . S
C489 C490 1.398 . S
C490 H478 0.950 . S
C490 C489 1.398 . S
C490 C491 1.391 . S
C491 H479 0.950 . S
C491 C487 1.393 . S
C491 C490 1.391 . S
H492 C500 0.950 . S
H493 C505 0.950 . S
H494 C502 0.950 . S
H495 C504 0.950 . S
H496 C506 0.950 . S
H497 C508 0.950 . S
H498 C510 0.950 . S
H499 C511 0.950 . S
C500 H492 0.950 . S
C500 C501 1.386 . S
C500 C502 1.391 . S
C501 C500 1.386 . S
C501 C505 1.393 . S
C502 H494 0.950 . S
C502 C500 1.391 . S
C502 C503 1.400 . S
C503 C502 1.400 . S
C503 C504 1.398 . S
C503 C509 1.491 . S
C504 H495 0.950 . S
C504 C503 1.398 . S
C504 C505 1.391 . S
C505 H493 0.950 . S
C505 C501 1.393 . S
C505 C504 1.391 . S
C506 H496 0.950 . S
C506 C507 1.386 . S
C506 C508 1.391 . S
C507 C506 1.386 . S
C507 C511 1.393 . S
C508 H497 0.950 . S
C508 C506 1.391 . S
C508 C509 1.400 . S
C509 C503 1.491 . S
C509 C508 1.400 . S
C509 C510 1.398 . S
C510 H498 0.950 . S
C510 C509 1.398 . S
C510 C511 1.391 . S
C511 H499 0.950 . S
C511 C507 1.393 . S
C511 C510 1.391 . S
H512 C520 0.950 . S
H513 C525 0.950 . S
H514 C522 0.950 . S
H515 C524 0.950 . S
H516 C526 0.950 . S
H517 C528 0.950 . S
H518 C530 0.950 . S
H519 C531 0.950 . S
C520 H512 0.950 . S
C520 C521 1.386 . S
C520 C522 1.391 . S
C521 C520 1.386 . S
C521 C525 1.393 . S
C522 H514 0.950 . S
C522 C520 1.391 . S
C522 C523 1.400 . S
C523 C522 1.400 . S
C523 C524 1.398 . S
C523 C529 1.491 . S
C524 H515 0.950 . S
C524 C523 1.398 . S
C524 C525 1.391 . S
C525 H513 0.950 . S
C525 C521 1.393 . S
C525 C524 1.391 . S
C526 H516 0.950 . S
C526 C527 1.386 . S
C526 C528 1.391 . S
C527 C526 1.386 . S
C527 C531 1.393 . S
C528 H517 0.950 . S
C528 C526 1.391 . S
C528 C529 1.400 . S
C529 C523 1.491 . S
C529 C528 1.400 . S
C529 C530 1.398 . S
C530 H518 0.950 . S
C530 C529 1.398 . S
C530 C531 1.391 . S
C531 H519 0.950 . S
C531 C527 1.393 . S
C531 C530 1.391 . S
H532 C540 0.950 . S
H533 C545 0.950 . S
H534 C542 0.950 . S
H535 C544 0.950 . S
H536 C546 0.950 . S
H537 C548 0.950 . S
H538 C550 0.950 . S
H539 C551 0.950 . S
C540 H532 0.950 . S
C540 C541 1.386 . S
C540 C542 1.391 . S
C541 C540 1.386 . S
C541 C545 1.393 . S
C542 H534 0.950 . S
C542 C540 1.391 . S
C542 C543 1.400 . S
C543 C542 1.400 . S
C543 C544 1.398 . S
C543 C549 1.491 . S
C544 H535 0.950 . S
C544 C543 1.398 . S
C544 C545 1.391 . S
C545 H533 0.950 . S
C545 C541 1.393 . S
C545 C544 1.391 . S
C546 H536 0.950 . S
C546 C547 1.386 . S
C546 C548 1.391 . S
C547 C546 1.386 . S
C547 C551 1.393 . S
C548 H537 0.950 . S
C548 C546 1.391 . S
C548 C549 1.400 . S
C549 C543 1.491 . S
C549 C548 1.400 . S
C549 C550 1.398 . S
C550 H538 0.950 . S
C550 C549 1.398 . S
C550 C551 1.391 . S
C551 H539 0.950 . S
C551 C547 1.393 . S
C551 C550 1.391 . S
H552 C560 0.950 . S
H553 C565 0.950 . S
H554 C562 0.950 . S
H555 C564 0.950 . S
H556 C566 0.950 . S
H557 C568 0.950 . S
H558 C570 0.950 . S
H559 C571 0.950 . S
C560 H552 0.950 . S
C560 C561 1.386 . S
C560 C562 1.391 . S
C561 C560 1.386 . S
C561 C565 1.393 . S
C562 H554 0.950 . S
C562 C560 1.391 . S
C562 C563 1.400 . S
C563 C562 1.400 . S
C563 C564 1.398 . S
C563 C569 1.491 . S
C564 H555 0.950 . S
C564 C563 1.398 . S
C564 C565 1.391 . S
C565 H553 0.950 . S
C565 C561 1.393 . S
C565 C564 1.391 . S
C566 H556 0.950 . S
C566 C567 1.386 . S
C566 C568 1.391 1_556 S
C567 C566 1.386 . S
C567 C571 1.393 . S
C568 H557 0.950 . S
C568 C566 1.391 1_554 S
C568 C569 1.400 . S
C569 C563 1.491 . S
C569 C568 1.400 . S
C569 C570 1.398 . S
C570 H558 0.950 . S
C570 C569 1.398 . S
C570 C571 1.391 1_554 S
C571 H559 0.950 . S
C571 C567 1.393 . S
C571 C570 1.391 1_556 S
H572 C580 0.950 . S
H573 C585 0.950 . S
H574 C582 0.950 . S
H575 C584 0.950 . S
H576 C586 0.950 . S
H577 C588 0.950 . S
H578 C590 0.950 . S
H579 C591 0.950 . S
C580 H572 0.950 . S
C580 C581 1.386 . S
C580 C582 1.391 . S
C581 C580 1.386 . S
C581 C585 1.393 . S
C582 H574 0.950 . S
C582 C580 1.391 . S
C582 C583 1.400 . S
C583 C582 1.400 . S
C583 C584 1.398 . S
C583 C589 1.491 . S
C584 H575 0.950 . S
C584 C583 1.398 . S
C584 C585 1.391 . S
C585 H573 0.950 . S
C585 C581 1.393 . S
C585 C584 1.391 . S
C586 H576 0.950 . S
C586 C587 1.386 . S
C586 C588 1.391 . S
C587 C586 1.386 . S
C587 C591 1.393 . S
C588 H577 0.950 . S
C588 C586 1.391 . S
C588 C589 1.400 . S
C589 C583 1.491 . S
C589 C588 1.400 . S
C589 C590 1.398 . S
C590 H578 0.950 . S
C590 C589 1.398 . S
C590 C591 1.391 . S
C591 H579 0.950 . S
C591 C587 1.393 . S
C591 C590 1.391 . S
H592 C600 0.950 . S
H593 C605 0.950 . S
H594 C602 0.950 . S
H595 C604 0.950 . S
H596 C606 0.950 1_655 S
H597 C608 0.950 . S
H598 C610 0.950 . S
H599 C611 0.950 . S
C600 H592 0.950 . S
C600 C601 1.386 . S
C600 C602 1.391 1_554 S
C601 C600 1.386 . S
C601 C605 1.393 . S
C602 H594 0.950 . S
C602 C600 1.391 1_556 S
C602 C603 1.400 . S
C603 C602 1.400 . S
C603 C604 1.389 1_556 S
C603 C609 1.491 . S
C604 H595 0.950 . S
C604 C603 1.389 1_554 S
C604 C605 1.400 . S
C605 H593 0.950 . S
C605 C601 1.393 . S
C605 C604 1.400 . S
C606 H596 0.950 1_455 S
C606 C607 1.386 . S
C606 C608 1.391 . S
C607 C606 1.386 . S
C607 C611 1.393 . S
C608 H597 0.950 . S
C608 C606 1.391 . S
C608 C609 1.400 . S
C609 C603 1.491 . S
C609 C608 1.400 . S
C609 C610 1.398 . S
C610 H598 0.950 . S
C610 C609 1.398 . S
C610 C611 1.391 . S
C611 H599 0.950 . S
C611 C607 1.393 . S
C611 C610 1.391 . S
H612 C620 0.950 . S
H613 C625 0.950 . S
H614 C622 0.950 . S
H615 C624 0.950 . S
H616 C626 0.950 . S
H617 C628 0.950 . S
H618 C630 0.950 . S
H619 C631 0.950 . S
C620 H612 0.950 . S
C620 C621 1.386 . S
C620 C622 1.391 . S
C621 C620 1.386 . S
C621 C625 1.393 . S
C622 H614 0.950 . S
C622 C620 1.391 . S
C622 C623 1.400 . S
C623 C622 1.400 . S
C623 C624 1.398 . S
C623 C629 1.491 . S
C624 H615 0.950 . S
C624 C623 1.398 . S
C624 C625 1.391 . S
C625 H613 0.950 . S
C625 C621 1.393 . S
C625 C624 1.391 . S
C626 H616 0.950 . S
C626 C627 1.386 . S
C626 C628 1.391 . S
C627 C626 1.386 . S
C627 C631 1.393 . S
C628 H617 0.950 . S
C628 C626 1.391 . S
C628 C629 1.400 . S
C629 C623 1.491 . S
C629 C628 1.400 . S
C629 C630 1.398 . S
C630 H618 0.950 . S
C630 C629 1.398 . S
C630 C631 1.391 . S
C631 H619 0.950 . S
C631 C627 1.393 . S
C631 C630 1.391 . S
H632 C640 0.950 . S
H633 C645 0.950 . S
H634 C642 0.950 . S
H635 C644 0.950 . S
H636 C646 0.950 . S
H637 C648 0.950 . S
H638 C650 0.950 . S
H639 C651 0.950 . S
C640 H632 0.950 . S
C640 C641 1.386 . S
C640 C642 1.391 . S
C641 C640 1.386 . S
C641 C645 1.393 . S
C642 H634 0.950 . S
C642 C640 1.391 . S
C642 C643 1.400 . S
C643 C642 1.400 . S
C643 C644 1.398 . S
C643 C649 1.491 . S
C644 H635 0.950 . S
C644 C643 1.398 . S
C644 C645 1.391 . S
C645 H633 0.950 . S
C645 C641 1.393 . S
C645 C644 1.391 . S
C646 H636 0.950 . S
C646 C647 1.386 . S
C646 C648 1.391 . S
C647 C646 1.386 . S
C647 C651 1.393 . S
C648 H637 0.950 . S
C648 C646 1.391 . S
C648 C649 1.400 . S
C649 C643 1.491 . S
C649 C648 1.400 . S
C649 C650 1.398 . S
C650 H638 0.950 . S
C650 C649 1.398 . S
C650 C651 1.391 . S
C651 H639 0.950 . S
C651 C647 1.393 . S
C651 C650 1.391 . S
H652 C660 0.950 . S
H653 C665 0.950 . S
H654 C662 0.950 . S
H655 C664 0.950 . S
H656 C666 0.950 . S
H657 C668 0.950 . S
H658 C670 0.950 . S
H659 C671 0.950 . S
C660 H652 0.950 . S
C660 C661 1.386 . S
C660 C662 1.391 . S
C661 C660 1.386 . S
C661 C665 1.393 . S
C662 H654 0.950 . S
C662 C660 1.391 . S
C662 C663 1.400 . S
C663 C662 1.400 . S
C663 C664 1.398 . S
C663 C669 1.491 . S
C664 H655 0.950 . S
C664 C663 1.398 . S
C664 C665 1.391 . S
C665 H653 0.950 . S
C665 C661 1.393 . S
C665 C664 1.391 . S
C666 H656 0.950 . S
C666 C667 1.386 . S
C666 C668 1.391 . S
C667 C666 1.386 . S
C667 C671 1.393 . S
C668 H657 0.950 . S
C668 C666 1.391 . S
C668 C669 1.400 . S
C669 C663 1.491 . S
C669 C668 1.400 . S
C669 C670 1.398 . S
C670 H658 0.950 . S
C670 C669 1.398 . S
C670 C671 1.391 . S
C671 H659 0.950 . S
C671 C667 1.393 . S
C671 C670 1.391 . S
H672 C680 0.950 . S
H673 C685 0.950 . S
H674 C682 0.950 . S
H675 C684 0.950 . S
H676 C686 0.950 . S
H677 C688 0.950 . S
H678 C690 0.950 . S
H679 C691 0.950 . S
C680 H672 0.950 . S
C680 C681 1.386 . S
C680 C682 1.391 . S
C681 C680 1.386 . S
C681 C685 1.393 . S
C682 H674 0.950 . S
C682 C680 1.391 . S
C682 C683 1.400 . S
C683 C682 1.400 . S
C683 C684 1.398 . S
C683 C689 1.491 . S
C684 H675 0.950 . S
C684 C683 1.398 . S
C684 C685 1.391 . S
C685 H673 0.950 . S
C685 C681 1.393 . S
C685 C684 1.391 . S
C686 H676 0.950 . S
C686 C687 1.386 . S
C686 C688 1.391 1_565 S
C687 C686 1.386 . S
C687 C691 1.393 . S
C688 H677 0.950 . S
C688 C686 1.391 1_545 S
C688 C689 1.400 . S
C689 C683 1.491 . S
C689 C688 1.400 . S
C689 C690 1.398 1_545 S
C690 H678 0.950 . S
C690 C689 1.398 1_565 S
C690 C691 1.391 . S
C691 H679 0.950 . S
C691 C687 1.393 . S
C691 C690 1.391 . S
H692 C700 0.950 . S
H693 C705 0.950 . S
H694 C702 0.950 . S
H695 C704 0.950 . S
H696 C706 0.950 . S
H697 C708 0.950 . S
H698 C710 0.950 . S
H699 C711 0.950 . S
C700 H692 0.950 . S
C700 C701 1.386 . S
C700 C702 1.391 . S
C701 C700 1.386 . S
C701 C705 1.393 . S
C702 H694 0.950 . S
C702 C700 1.391 . S
C702 C703 1.400 . S
C703 C702 1.400 . S
C703 C704 1.398 . S
C703 C709 1.491 . S
C704 H695 0.950 . S
C704 C703 1.398 . S
C704 C705 1.391 . S
C705 H693 0.950 . S
C705 C701 1.393 . S
C705 C704 1.391 . S
C706 H696 0.950 . S
C706 C707 1.386 . S
C706 C708 1.391 . S
C707 C706 1.386 . S
C707 C711 1.393 . S
C708 H697 0.950 . S
C708 C706 1.391 . S
C708 C709 1.400 . S
C709 C703 1.491 . S
C709 C708 1.400 . S
C709 C710 1.398 . S
C710 H698 0.950 . S
C710 C709 1.398 . S
C710 C711 1.391 . S
C711 H699 0.950 . S
C711 C707 1.393 . S
C711 C710 1.391 . S
H712 C720 0.950 . S
H713 C725 0.950 . S
H714 C722 0.950 . S
H715 C724 0.950 . S
H716 C726 0.950 1_556 S
H717 C728 0.950 . S
H718 C730 0.950 . S
H719 C731 0.950 . S
C720 H712 0.950 . S
C720 C721 1.386 . S
C720 C722 1.391 1_545 S
C721 C720 1.386 . S
C721 C725 1.393 . S
C722 H714 0.950 . S
C722 C720 1.391 1_565 S
C722 C723 1.400 . S
C723 C722 1.400 . S
C723 C724 1.398 1_565 S
C723 C729 1.491 . S
C724 H715 0.950 . S
C724 C723 1.398 1_545 S
C724 C725 1.391 . S
C725 H713 0.950 . S
C725 C721 1.393 . S
C725 C724 1.391 . S
C726 H716 0.950 1_554 S
C726 C727 1.386 . S
C726 C728 1.391 . S
C727 C726 1.386 . S
C727 C731 1.393 . S
C728 H717 0.950 . S
C728 C726 1.391 . S
C728 C729 1.400 . S
C729 C723 1.491 . S
C729 C728 1.400 . S
C729 C730 1.398 . S
C730 H718 0.950 . S
C730 C729 1.398 . S
C730 C731 1.391 . S
C731 H719 0.950 . S
C731 C727 1.393 . S
C731 C730 1.391 . S
H732 C740 0.950 . S
H733 C745 0.950 . S
H734 C742 0.950 . S
H735 C744 0.950 . S
H736 C746 0.950 . S
H737 C748 0.950 . S
H738 C750 0.950 . S
H739 C751 0.950 . S
C740 H732 0.950 . S
C740 C741 1.386 . S
C740 C742 1.391 . S
C741 C740 1.386 . S
C741 C745 1.393 . S
C742 H734 0.950 . S
C742 C740 1.391 . S
C742 C743 1.400 . S
C743 C742 1.400 . S
C743 C744 1.398 . S
C743 C749 1.491 . S
C744 H735 0.950 . S
C744 C743 1.398 . S
C744 C745 1.391 . S
C745 H733 0.950 . S
C745 C741 1.393 . S
C745 C744 1.391 . S
C746 H736 0.950 . S
C746 C747 1.386 . S
C746 C748 1.391 . S
C747 C746 1.386 . S
C747 C751 1.393 . S
C748 H737 0.950 . S
C748 C746 1.391 . S
C748 C749 1.400 . S
C749 C743 1.491 . S
C749 C748 1.400 . S
C749 C750 1.398 . S
C750 H738 0.950 . S
C750 C749 1.398 . S
C750 C751 1.391 . S
C751 H739 0.950 . S
C751 C747 1.393 . S
C751 C750 1.391 . S
H752 C760 0.950 . S
H753 C765 0.950 . S
H754 C762 0.950 . S
H755 C764 0.950 . S
H756 C766 0.950 . S
H757 C768 0.950 . S
H758 C770 0.950 . S
H759 C771 0.950 . S
C760 H752 0.950 . S
C760 C761 1.386 . S
C760 C762 1.391 . S
C761 C760 1.386 . S
C761 C765 1.393 . S
C762 H754 0.950 . S
C762 C760 1.391 . S
C762 C763 1.400 . S
C763 C762 1.400 . S
C763 C764 1.398 . S
C763 C769 1.491 . S
C764 H755 0.950 . S
C764 C763 1.398 . S
C764 C765 1.391 . S
C765 H753 0.950 . S
C765 C761 1.393 . S
C765 C764 1.391 . S
C766 H756 0.950 . S
C766 C767 1.386 . S
C766 C768 1.391 . S
C767 C766 1.386 . S
C767 C771 1.393 . S
C768 H757 0.950 . S
C768 C766 1.391 . S
C768 C769 1.400 . S
C769 C763 1.491 . S
C769 C768 1.400 . S
C769 C770 1.398 . S
C770 H758 0.950 . S
C770 C769 1.398 . S
C770 C771 1.391 . S
C771 H759 0.950 . S
C771 C767 1.393 . S
C771 C770 1.391 . S
H772 C780 0.950 . S
H773 C785 0.950 . S
H774 C782 0.950 . S
H775 C784 0.950 . S
H776 C786 0.950 . S
H777 C788 0.950 . S
H778 C790 0.950 . S
H779 C791 0.950 . S
C780 H772 0.950 . S
C780 C781 1.386 . S
C780 C782 1.391 . S
C781 C780 1.386 . S
C781 C785 1.393 . S
C782 H774 0.950 . S
C782 C780 1.391 . S
C782 C783 1.400 . S
C783 C782 1.400 . S
C783 C784 1.398 . S
C783 C789 1.491 . S
C784 H775 0.950 . S
C784 C783 1.398 . S
C784 C785 1.391 . S
C785 H773 0.950 . S
C785 C781 1.393 . S
C785 C784 1.391 . S
C786 H776 0.950 . S
C786 C787 1.386 . S
C786 C788 1.391 . S
C787 C786 1.386 . S
C787 C791 1.393 . S
C788 H777 0.950 . S
C788 C786 1.391 . S
C788 C789 1.400 . S
C789 C783 1.491 . S
C789 C788 1.400 . S
C789 C790 1.398 . S
C790 H778 0.950 . S
C790 C789 1.398 . S
C790 C791 1.391 . S
C791 H779 0.950 . S
C791 C787 1.393 . S
C791 C790 1.391 . S
H792 C800 0.950 . S
H793 C805 0.950 . S
H794 C802 0.950 . S
H795 C804 0.950 . S
H796 C806 0.950 . S
H797 C808 0.950 . S
H798 C810 0.950 . S
H799 C811 0.950 . S
C800 H792 0.950 . S
C800 C801 1.386 . S
C800 C802 1.391 . S
C801 C800 1.386 . S
C801 C805 1.393 . S
C802 H794 0.950 . S
C802 C800 1.391 . S
C802 C803 1.400 . S
C803 C802 1.400 . S
C803 C804 1.398 . S
C803 C809 1.491 . S
C804 H795 0.950 . S
C804 C803 1.398 . S
C804 C805 1.391 . S
C805 H793 0.950 . S
C805 C801 1.393 . S
C805 C804 1.391 . S
C806 H796 0.950 . S
C806 C807 1.386 . S
C806 C808 1.391 . S
C807 C806 1.386 . S
C807 C811 1.393 . S
C808 H797 0.950 . S
C808 C806 1.391 . S
C808 C809 1.400 . S
C809 C803 1.491 . S
C809 C808 1.400 . S
C809 C810 1.398 . S
C810 H798 0.950 . S
C810 C809 1.398 . S
C810 C811 1.391 . S
C811 H799 0.950 . S
C811 C807 1.393 . S
C811 C810 1.391 . S
H812 C820 0.950 . S
H813 C825 0.950 . S
H814 C822 0.950 . S
H815 C824 0.950 . S
H816 C826 0.950 . S
H817 C828 0.950 . S
H818 C830 0.950 . S
H819 C831 0.950 . S
C820 H812 0.950 . S
C820 C821 1.386 . S
C820 C822 1.391 . S
C821 C820 1.386 . S
C821 C825 1.393 . S
C822 H814 0.950 . S
C822 C820 1.391 . S
C822 C823 1.400 . S
C823 C822 1.400 . S
C823 C824 1.398 . S
C823 C829 1.491 . S
C824 H815 0.950 . S
C824 C823 1.398 . S
C824 C825 1.391 . S
C825 H813 0.950 . S
C825 C821 1.393 . S
C825 C824 1.391 . S
C826 H816 0.950 . S
C826 C827 1.386 . S
C826 C828 1.391 . S
C827 C826 1.386 . S
C827 C831 1.393 . S
C828 H817 0.950 . S
C828 C826 1.391 . S
C828 C829 1.400 . S
C829 C823 1.491 . S
C829 C828 1.400 . S
C829 C830 1.398 . S
C830 H818 0.950 . S
C830 C829 1.398 . S
C830 C831 1.391 . S
C831 H819 0.950 . S
C831 C827 1.393 . S
C831 C830 1.391 . S
H832 C840 0.950 . S
H833 C845 0.950 . S
H834 C842 0.950 . S
H835 C844 0.950 . S
H836 C846 0.950 . S
H837 C848 0.950 . S
H838 C850 0.950 . S
H839 C851 0.950 . S
C840 H832 0.950 . S
C840 C841 1.386 . S
C840 C842 1.391 . S
C841 C840 1.386 . S
C841 C845 1.393 . S
C842 H834 0.950 . S
C842 C840 1.391 . S
C842 C843 1.400 . S
C843 C842 1.400 . S
C843 C844 1.398 . S
C843 C849 1.491 . S
C844 H835 0.950 . S
C844 C843 1.398 . S
C844 C845 1.391 . S
C845 H833 0.950 . S
C845 C841 1.393 . S
C845 C844 1.391 . S
C846 H836 0.950 . S
C846 C847 1.386 . S
C846 C848 1.391 . S
C847 C846 1.386 . S
C847 C851 1.393 . S
C848 H837 0.950 . S
C848 C846 1.391 . S
C848 C849 1.400 . S
C849 C843 1.491 . S
C849 C848 1.400 . S
C849 C850 1.398 . S
C850 H838 0.950 . S
C850 C849 1.398 . S
C850 C851 1.391 . S
C851 H839 0.950 . S
C851 C847 1.393 . S
C851 C850 1.391 . S
H852 C860 0.950 . S
H853 C865 0.950 . S
H854 C862 0.950 . S
H855 C864 0.950 . S
H856 C866 0.950 . S
H857 C868 0.950 1_455 S
H858 C870 0.950 . S
H859 C871 0.950 . S
C860 H852 0.950 . S
C860 C861 1.386 . S
C860 C862 1.391 . S
C861 C860 1.386 . S
C861 C865 1.393 . S
C862 H854 0.950 . S
C862 C860 1.391 . S
C862 C863 1.400 . S
C863 C862 1.400 . S
C863 C864 1.398 . S
C863 C869 1.491 . S
C864 H855 0.950 . S
C864 C863 1.398 . S
C864 C865 1.391 . S
C865 H853 0.950 . S
C865 C861 1.393 . S
C865 C864 1.391 . S
C866 H856 0.950 . S
C866 C867 1.386 . S
C866 C868 1.391 . S
C867 C866 1.386 . S
C867 C871 1.393 . S
C868 H857 0.950 1_655 S
C868 C866 1.391 . S
C868 C869 1.400 1_655 S
C869 C863 1.491 . S
C869 C868 1.400 1_455 S
C869 C870 1.398 . S
C870 H858 0.950 . S
C870 C869 1.398 . S
C870 C871 1.391 1_455 S
C871 H859 0.950 . S
C871 C867 1.393 . S
C871 C870 1.391 1_655 S
H872 C880 0.950 . S
H873 C885 0.950 . S
H874 C882 0.950 . S
H875 C884 0.950 . S
H876 C886 0.950 . S
H877 C888 0.950 . S
H878 C890 0.950 . S
H879 C891 0.950 . S
C880 H872 0.950 . S
C880 C881 1.386 . S
C880 C882 1.391 . S
C881 C880 1.386 . S
C881 C885 1.393 . S
C882 H874 0.950 . S
C882 C880 1.391 . S
C882 C883 1.400 . S
C883 C882 1.400 . S
C883 C884 1.398 . S
C883 C889 1.491 . S
C884 H875 0.950 . S
C884 C883 1.398 . S
C884 C885 1.391 . S
C885 H873 0.950 . S
C885 C881 1.393 . S
C885 C884 1.391 . S
C886 H876 0.950 . S
C886 C887 1.386 . S
C886 C888 1.391 . S
C887 C886 1.386 . S
C887 C891 1.393 . S
C888 H877 0.950 . S
C888 C886 1.391 . S
C888 C889 1.400 . S
C889 C883 1.491 . S
C889 C888 1.400 . S
C889 C890 1.398 . S
C890 H878 0.950 . S
C890 C889 1.398 . S
C890 C891 1.391 . S
C891 H879 0.950 . S
C891 C887 1.393 . S
C891 C890 1.391 . S
H892 C900 0.950 . S
H893 C905 0.950 . S
H894 C902 0.950 . S
H895 C904 0.950 . S
H896 C906 0.950 . S
H897 C908 0.950 . S
H898 C910 0.950 . S
H899 C911 0.950 . S
C900 H892 0.950 . S
C900 C901 1.386 . S
C900 C902 1.391 . S
C901 C900 1.386 . S
C901 C905 1.393 . S
C902 H894 0.950 . S
C902 C900 1.391 . S
C902 C903 1.400 . S
C903 C902 1.400 . S
C903 C904 1.398 . S
C903 C909 1.491 . S
C904 H895 0.950 . S
C904 C903 1.398 . S
C904 C905 1.391 . S
C905 H893 0.950 . S
C905 C901 1.393 . S
C905 C904 1.391 . S
C906 H896 0.950 . S
C906 C907 1.386 . S
C906 C908 1.391 . S
C907 C906 1.386 . S
C907 C911 1.393 . S
C908 H897 0.950 . S
C908 C906 1.391 . S
C908 C909 1.400 . S
C909 C903 1.491 . S
C909 C908 1.400 . S
C909 C910 1.398 . S
C910 H898 0.950 . S
C910 C909 1.398 . S
C910 C911 1.391 . S
C911 H899 0.950 . S
C911 C907 1.393 . S
C911 C910 1.391 . S
H912 C920 0.950 . S
H913 C925 0.950 . S
H914 C922 0.950 . S
H915 C924 0.950 . S
H916 C926 0.950 . S
H917 C928 0.950 . S
H918 C930 0.950 . S
H919 C931 0.950 . S
C920 H912 0.950 . S
C920 C921 1.386 . S
C920 C922 1.391 . S
C921 C920 1.386 . S
C921 C925 1.393 . S
C922 H914 0.950 . S
C922 C920 1.391 . S
C922 C923 1.400 . S
C923 C922 1.400 . S
C923 C924 1.398 . S
C923 C929 1.491 . S
C924 H915 0.950 . S
C924 C923 1.398 . S
C924 C925 1.391 . S
C925 H913 0.950 . S
C925 C921 1.393 . S
C925 C924 1.391 . S
C926 H916 0.950 . S
C926 C927 1.386 . S
C926 C928 1.391 . S
C927 C926 1.386 . S
C927 C931 1.393 . S
C928 H917 0.950 . S
C928 C926 1.391 . S
C928 C929 1.400 . S
C929 C923 1.491 . S
C929 C928 1.400 . S
C929 C930 1.398 . S
C930 H918 0.950 . S
C930 C929 1.398 . S
C930 C931 1.391 . S
C931 H919 0.950 . S
C931 C927 1.393 . S
C931 C930 1.391 . S
H932 C940 0.950 . S
H933 C945 0.950 . S
H934 C942 0.950 . S
H935 C944 0.950 . S
H936 C946 0.950 . S
H937 C948 0.950 . S
H938 C950 0.950 . S
H939 C951 0.965 . S
C940 H932 0.950 . S
C940 C941 1.386 . S
C940 C942 1.391 . S
C941 C940 1.386 . S
C941 C945 1.393 . S
C942 H934 0.950 . S
C942 C940 1.391 . S
C942 C943 1.400 . S
C943 C942 1.400 . S
C943 C944 1.398 . S
C943 C949 1.491 . S
C944 H935 0.950 . S
C944 C943 1.398 . S
C944 C945 1.391 . S
C945 H933 0.950 . S
C945 C941 1.393 . S
C945 C944 1.391 . S
C946 H936 0.950 . S
C946 C947 1.386 . S
C946 C948 1.391 . S
C947 C946 1.386 . S
C947 C951 1.393 . S
C948 H937 0.950 . S
C948 C946 1.391 . S
C948 C949 1.400 . S
C949 C943 1.491 . S
C949 C948 1.400 . S
C949 C950 1.398 . S
C950 H938 0.950 . S
C950 C949 1.398 . S
C950 C951 1.391 . S
C951 H939 0.965 . S
C951 C947 1.393 . S
C951 C950 1.391 . S
H952 C960 0.946 1_565 S
H953 C965 0.950 . S
H954 C962 0.950 . S
H955 C964 0.950 . S
H956 C966 0.949 . S
H957 C968 0.950 . S
H958 C970 0.950 . S
H959 C971 0.950 . S
C960 H952 0.946 1_545 S
C960 C961 1.386 . S
C960 C962 1.391 . S
C961 C960 1.386 . S
C961 C965 1.393 . S
C962 H954 0.950 . S
C962 C960 1.391 . S
C962 C963 1.400 . S
C963 C962 1.400 . S
C963 C964 1.398 . S
C963 C969 1.491 . S
C964 H955 0.950 . S
C964 C963 1.398 . S
C964 C965 1.391 . S
C965 H953 0.950 . S
C965 C961 1.393 . S
C965 C964 1.391 . S
C966 H956 0.949 . S
C966 C967 1.386 . S
C966 C968 1.391 1_455 S
C967 C966 1.386 . S
C967 C971 1.393 . S
C968 H957 0.950 . S
C968 C966 1.391 1_655 S
C968 C969 1.400 . S
C969 C963 1.491 . S
C969 C968 1.400 . S
C969 C970 1.398 1_655 S
C970 H958 0.950 . S
C970 C969 1.398 1_455 S
C970 C971 1.391 . S
C971 H959 0.950 . S
C971 C967 1.393 . S
C971 C970 1.391 . S
C261 C18 1.211 . S
C267 C248 1.212 . S
C281 C206 1.234 . S
C287 C38 1.262 . S
C301 C59 1.238 . S
C307 C186 1.174 . S
C321 C80 1.251 . S
C327 C228 1.164 . S
C341 C101 1.243 . S
C347 C227 1.242 . S
C361 C123 1.193 . S
C367 C249 1.132 . S
C381 C207 1.193 . S
C387 C144 1.132 1_554 S
C401 C165 1.166 . S
C407 C185 1.243 . S
C421 C81 1.157 . S
C427 C102 1.180 . S
C441 C17 1.286 . S
C447 C122 1.262 . S
C461 C39 1.159 . S
C467 C143 1.242 . S
C481 C164 1.217 . S
C487 C60 1.199 . S
C501 C14 1.232 . S
C507 C183 1.160 . S
C521 C37 1.223 . S
C527 C225 1.144 . S
C541 C244 1.175 . S
C547 C58 1.194 . S
C561 C79 1.180 . S
C567 C202 1.169 . S
C581 C100 1.124 . S
C587 C204 1.014 . S
C601 C181 1.208 . S
C607 C119 1.172 . S
C621 C223 1.259 . S
C627 C140 1.243 . S
C641 C246 1.125 . S
C647 C161 1.212 . S
C661 C13 1.269 . S
C667 C77 1.219 . S
C681 C16 1.233 . S
C687 C36 1.151 . S
C701 C35 1.223 . S
C707 C57 1.181 . S
C721 C78 1.130 . S
C727 C56 1.225 . S
C741 C121 1.115 . S
C747 C99 0.992 . S
C761 C118 1.168 . S
C767 C142 1.167 . S
C781 C139 1.173 . S
C787 C163 1.191 . S
C801 C98 1.176 . S
C807 C160 1.206 . S
C821 C184 1.183 . S
C827 C76 1.174 . S
C841 C120 0.992 . S
C847 C205 1.114 . S
C861 C182 1.194 . S
C867 C141 1.148 . S
C881 C224 1.255 . S
C887 C162 1.186 . S
C901 C97 1.164 . S
C907 C247 1.178 . S
C921 C245 1.210 . S
C927 C34 1.276 . S
C941 C55 1.204 . S
C947 C203 1.170 . S
C961 C226 1.226 . S
C967 C15 1.149 . S
