# Generated by pormake.
# Topology noz, (5)-cn, num edge types: 1
# Building blocks:
#     Node 0, Type 0, BuildingBlock: XOMCOT_clean_sbu_0, # of connection points: 5
#     Node 1, Type 0, BuildingBlock: XOMCOT_clean_sbu_0, # of connection points: 5
#     Node 2, Type 0, BuildingBlock: XOMCOT_clean_sbu_0, # of connection points: 5
#     Node 3, Type 0, BuildingBlock: XOMCOT_clean_sbu_0, # of connection points: 5
#     Node 4, Type 0, BuildingBlock: XOMCOT_clean_sbu_0, # of connection points: 5
#     Node 5, Type 0, BuildingBlock: XOMCOT_clean_sbu_0, # of connection points: 5
#     Node 6, Type 0, BuildingBlock: XOMCOT_clean_sbu_0, # of connection points: 5
#     Node 7, Type 0, BuildingBlock: XOMCOT_clean_sbu_0, # of connection points: 5
#     Edge 8, Type (0, 0), BuildingBlock: TEMPAE_clean_linker_10, # of connection points: 2
#     Edge 9, Type (0, 0), BuildingBlock: TEMPAE_clean_linker_10, # of connection points: 2
#     Edge 10, Type (0, 0), BuildingBlock: TEMPAE_clean_linker_10, # of connection points: 2
#     Edge 11, Type (0, 0), BuildingBlock: TEMPAE_clean_linker_10, # of connection points: 2
#     Edge 12, Type (0, 0), BuildingBlock: TEMPAE_clean_linker_10, # of connection points: 2
#     Edge 13, Type (0, 0), BuildingBlock: TEMPAE_clean_linker_10, # of connection points: 2
#     Edge 14, Type (0, 0), BuildingBlock: TEMPAE_clean_linker_10, # of connection points: 2
#     Edge 15, Type (0, 0), BuildingBlock: TEMPAE_clean_linker_10, # of connection points: 2
#     Edge 16, Type (0, 0), BuildingBlock: TEMPAE_clean_linker_10, # of connection points: 2
#     Edge 17, Type (0, 0), BuildingBlock: TEMPAE_clean_linker_10, # of connection points: 2
#     Edge 18, Type (0, 0), BuildingBlock: TEMPAE_clean_linker_10, # of connection points: 2
#     Edge 19, Type (0, 0), BuildingBlock: TEMPAE_clean_linker_10, # of connection points: 2
#     Edge 20, Type (0, 0), BuildingBlock: TEMPAE_clean_linker_10, # of connection points: 2
#     Edge 21, Type (0, 0), BuildingBlock: TEMPAE_clean_linker_10, # of connection points: 2
#     Edge 22, Type (0, 0), BuildingBlock: TEMPAE_clean_linker_10, # of connection points: 2
#     Edge 23, Type (0, 0), BuildingBlock: TEMPAE_clean_linker_10, # of connection points: 2
#     Edge 24, Type (0, 0), BuildingBlock: TEMPAE_clean_linker_10, # of connection points: 2
#     Edge 25, Type (0, 0), BuildingBlock: TEMPAE_clean_linker_10, # of connection points: 2
#     Edge 26, Type (0, 0), BuildingBlock: TEMPAE_clean_linker_10, # of connection points: 2
#     Edge 27, Type (0, 0), BuildingBlock: TEMPAE_clean_linker_10, # of connection points: 2
# Relax obj value: 0.105
# Max RMSD: 0.192
# Mean RMSD: 0.192
data_MOF--net-noz--node1-XOMCOT_clean_sbu_0--edge1-TEMPAE_clean_linker_10
_symmetry_space_group_name_H-M    P1
_symmetry_Int_Tables_number       1
_symmetry_cell_setting            triclinic
loop_
_symmetry_equiv_pos_as_xyz
'x, y, z'
_cell_length_a     24.589758
_cell_length_b     51.451911
_cell_length_c     36.412616
_cell_angle_alpha  89.042613
_cell_angle_beta   90.155219
_cell_angle_gamma 89.908551
loop_
_atom_site_label
_atom_site_type_symbol
_atom_site_fract_x
_atom_site_fract_y
_atom_site_fract_z
_atom_type_partial_charge
Co0 Co 0.17014 0.33038 0.3942 0.0
C1 C 0.2625 0.30451 0.43545 0.0
C2 C 0.1975 0.31716 0.47013 0.0
C3 C 0.23737 0.30633 0.49193 0.0
N4 N 0.2132 0.3163 0.43472 0.0
N5 N 0.27819 0.29841 0.47018 0.0
H6 H 0.28682 0.30065 0.41146 0.0
H7 H 0.15949 0.32526 0.47954 0.0
C8 C 0.05366 0.3124 0.41405 0.0
O9 O 0.03038 0.32877 0.39091 0.0
N10 N 0.12708 0.34452 0.35379 0.0
C11 C 0.12422 0.36967 0.34315 0.0
C12 C 0.08624 0.37214 0.31551 0.0
C13 C 0.09326 0.33182 0.33095 0.0
N14 N 0.06593 0.3484 0.30826 0.0
C15 C 0.20452 0.37515 0.43202 0.0
C16 C 0.10376 0.39599 0.44749 0.0
C17 C 0.15048 0.41024 0.45605 0.0
C18 C 0.20137 0.39928 0.44872 0.0
C19 C 0.10875 0.37186 0.43068 0.0
N20 N 0.15869 0.36184 0.42254 0.0
H21 H 0.2442 0.36723 0.42611 0.0
H22 H 0.07225 0.36215 0.42308 0.0
H23 H 0.14646 0.38535 0.35566 0.0
H24 H 0.08594 0.3111 0.33286 0.0
O25 O 0.23432 0.34184 0.36875 0.0
O26 O 0.19653 0.30323 0.36175 0.0
O27 O 0.10554 0.31155 0.41748 0.0
C28 C 0.23492 0.31959 0.35254 0.0
H29 H 0.23601 0.30398 0.52152 0.0
H30 H 0.07197 0.39032 0.30355 0.0
H31 H 0.0636 0.40385 0.45243 0.0
H32 H 0.23859 0.40937 0.45552 0.0
Co33 Co 0.59981 0.68473 0.91628 0.0
C34 C 0.69989 0.67708 0.87138 0.0
C35 C 0.62715 0.67322 0.83933 0.0
C36 C 0.67111 0.6694 0.81687 0.0
N37 N 0.64497 0.67813 0.87361 0.0
N38 N 0.71684 0.67186 0.83698 0.0
H39 H 0.7271 0.6797 0.89438 0.0
H40 H 0.58513 0.67228 0.8308 0.0
C41 C 0.48484 0.68166 0.88639 0.0
O42 O 0.46934 0.66889 0.91611 0.0
N43 N 0.55452 0.69175 0.95869 0.0
C44 C 0.55773 0.68122 0.99278 0.0
C45 C 0.51925 0.69261 0.0146 0.0
C46 C 0.51524 0.71009 0.96074 0.0
N47 N 0.49213 0.71066 0.9944 0.0
C48 C 0.62133 0.63552 0.95039 0.0
C49 C 0.55651 0.60483 0.90703 0.0
C50 C 0.58395 0.59334 0.93706 0.0
C51 C 0.61793 0.60904 0.95801 0.0
C52 C 0.56143 0.6317 0.90012 0.0
N53 N 0.59112 0.64705 0.9231 0.0
H54 H 0.64863 0.64663 0.96706 0.0
H55 H 0.5418 0.63981 0.87606 0.0
H56 H 0.58674 0.66683 1.00202 0.0
H57 H 0.50344 0.72249 0.93779 0.0
O58 O 0.66358 0.68898 0.94627 0.0
O59 O 0.62273 0.72108 0.91593 0.0
O60 O 0.53445 0.68859 0.88267 0.0
C61 C 0.662 0.71349 0.93772 0.0
H62 H 0.66945 0.6655 0.78777 0.0
H63 H 0.51287 0.68834 0.04346 0.0
H64 H 0.53112 0.59328 0.88928 0.0
H65 H 0.64225 0.60093 0.98027 0.0
Co66 Co 0.17216 0.67 0.62363 0.0
C67 C 0.26523 0.69485 0.58227 0.0
C68 C 0.19898 0.68303 0.54785 0.0
C69 C 0.23906 0.6932 0.52587 0.0
N70 N 0.21529 0.68378 0.5832 0.0
N71 N 0.28068 0.70058 0.54741 0.0
H72 H 0.29012 0.69836 0.6062 0.0
H73 H 0.16048 0.67534 0.5386 0.0
C74 C 0.05586 0.6884 0.60442 0.0
O75 O 0.03361 0.67271 0.62881 0.0
N76 N 0.1292 0.65615 0.66398 0.0
C77 C 0.12564 0.63108 0.67497 0.0
C78 C 0.09125 0.62944 0.70467 0.0
C79 C 0.09938 0.66955 0.68836 0.0
N80 N 0.07415 0.65361 0.71278 0.0
C81 C 0.20582 0.62499 0.58621 0.0
C82 C 0.10462 0.60468 0.57054 0.0
C83 C 0.1511 0.59014 0.56221 0.0
C84 C 0.2022 0.60085 0.56961 0.0
C85 C 0.11007 0.62883 0.58724 0.0
N86 N 0.16024 0.63855 0.59547 0.0
H87 H 0.24563 0.6327 0.59223 0.0
H88 H 0.07376 0.63884 0.59473 0.0
H89 H 0.14577 0.615 0.66191 0.0
H90 H 0.09414 0.69044 0.68701 0.0
O91 O 0.23601 0.65831 0.64962 0.0
O92 O 0.19844 0.69708 0.65614 0.0
O93 O 0.10756 0.68892 0.60005 0.0
C94 C 0.23586 0.68038 0.66634 0.0
H95 H 0.23741 0.6954 0.49626 0.0
H96 H 0.07766 0.61165 0.71801 0.0
H97 H 0.06432 0.59703 0.56551 0.0
H98 H 0.23924 0.59053 0.56296 0.0
Co99 Co 0.58355 0.33575 0.11622 0.0
C100 C 0.48686 0.3233 0.07006 0.0
C101 C 0.56105 0.30929 0.04666 0.0
C102 C 0.51908 0.30347 0.02338 0.0
N103 N 0.54112 0.32171 0.07608 0.0
N104 N 0.47247 0.31228 0.03803 0.0
H105 H 0.4584 0.33246 0.08838 0.0
H106 H 0.60321 0.30481 0.04181 0.0
C107 C 0.69995 0.32686 0.0936 0.0
O108 O 0.71184 0.35065 0.10346 0.0
N109 N 0.62681 0.34918 0.15656 0.0
C110 C 0.62679 0.37299 0.17154 0.0
C111 C 0.66909 0.37439 0.19633 0.0
C112 C 0.6676 0.33618 0.1738 0.0
N113 N 0.69534 0.35135 0.19725 0.0
C114 C 0.56254 0.38862 0.09558 0.0
C115 C 0.62084 0.38998 0.03088 0.0
C116 C 0.59032 0.41181 0.04057 0.0
C117 C 0.56099 0.41091 0.07337 0.0
C118 C 0.62053 0.36776 0.05372 0.0
N119 N 0.59306 0.36748 0.08642 0.0
H120 H 0.53746 0.3883 0.11978 0.0
H121 H 0.64068 0.35061 0.04402 0.0
H122 H 0.59957 0.38871 0.16453 0.0
H123 H 0.67855 0.31633 0.16777 0.0
O124 O 0.51779 0.34547 0.14122 0.0
O125 O 0.55917 0.30759 0.14884 0.0
O126 O 0.65109 0.31848 0.09607 0.0
C127 C 0.51874 0.32278 0.15721 0.0
H128 H 0.52251 0.29294 0.998 0.0
H129 H 0.6815 0.3916 0.21084 0.0
H130 H 0.64297 0.38973 1.0052 0.0
H131 H 0.53652 0.42731 0.08172 0.0
Co132 Co 0.66948 0.82724 0.39344 0.0
C133 C 0.76177 0.80073 0.43467 0.0
C134 C 0.69392 0.8109 0.46857 0.0
C135 C 0.73362 0.80024 0.49063 0.0
N136 N 0.71137 0.81149 0.43347 0.0
N137 N 0.77624 0.79389 0.46943 0.0
H138 H 0.78792 0.79845 0.41113 0.0
H139 H 0.65508 0.81826 0.47768 0.0
C140 C 0.5518 0.80996 0.41343 0.0
O141 O 0.52795 0.82718 0.39186 0.0
N142 N 0.62743 0.8432 0.35363 0.0
C143 C 0.62764 0.86872 0.34473 0.0
C144 C 0.58673 0.87364 0.31979 0.0
C145 C 0.58899 0.83263 0.33179 0.0
N146 N 0.56167 0.85106 0.31219 0.0
C147 C 0.70545 0.87008 0.43494 0.0
C148 C 0.60575 0.89287 0.44791 0.0
C149 C 0.65309 0.90605 0.4581 0.0
C150 C 0.70338 0.89405 0.45218 0.0
C151 C 0.60966 0.86887 0.43067 0.0
N152 N 0.65912 0.85791 0.42366 0.0
H153 H 0.74476 0.86152 0.42968 0.0
H154 H 0.57293 0.86022 0.42133 0.0
H155 H 0.65335 0.8831 0.35736 0.0
H156 H 0.57717 0.81237 0.33333 0.0
O157 O 0.73455 0.83887 0.36924 0.0
O158 O 0.69539 0.80092 0.3594 0.0
O159 O 0.60379 0.80841 0.41542 0.0
C160 C 0.73475 0.81715 0.35171 0.0
H161 H 0.73126 0.79721 0.52008 0.0
H162 H 0.5738 0.89266 0.30998 0.0
H163 H 0.56603 0.90157 0.45159 0.0
H164 H 0.741 0.90333 0.46019 0.0
Co165 Co 0.09982 0.19141 0.91104 0.0
C166 C 0.19948 0.18253 0.8648 0.0
C167 C 0.1364 0.20299 0.83583 0.0
C168 C 0.18021 0.20081 0.81283 0.0
N169 N 0.1471 0.19043 0.86798 0.0
N170 N 0.21976 0.18801 0.83114 0.0
H171 H 0.22367 0.1742 0.88675 0.0
H172 H 0.09996 0.21404 0.82982 0.0
C173 C 0.0252 0.17867 0.85011 0.0
O174 O 0.05993 0.16006 0.84258 0.0
N175 N 0.05327 0.1941 0.95335 0.0
C176 C 0.06069 0.18294 0.98664 0.0
C177 C 0.02289 0.19301 0.01039 0.0
C178 C 1.01149 0.21079 0.95716 0.0
N179 N 0.99193 0.21066 0.99191 0.0
C180 C 0.14199 0.13995 0.9226 0.0
C181 C 0.04312 0.11483 0.92824 0.0
C182 C 0.09095 0.10073 0.93563 0.0
C183 C 0.1408 0.1136 0.93188 0.0
C184 C 0.04619 0.14129 0.91862 0.0
N185 N 0.09538 0.15355 0.91543 0.0
H186 H 0.18047 0.14964 0.92384 0.0
H187 H 1.00883 0.15221 0.91561 0.0
H188 H 0.09274 0.16926 0.9935 0.0
H189 H 0.99705 0.22323 0.93499 0.0
O190 O 0.16198 0.19601 0.94191 0.0
O191 O 0.11649 0.22825 0.9147 0.0
O192 O 0.03359 0.19323 0.87772 0.0
C193 C 0.1568 0.22079 0.9358 0.0
H194 H 0.18378 0.20905 0.78539 0.0
H195 H 0.02035 0.18842 0.03942 0.0
H196 H 1.00358 0.1059 0.93173 0.0
H197 H 0.17884 0.10363 0.93747 0.0
Co198 Co 0.67104 0.16872 0.61698 0.0
C199 C 0.76494 0.19434 0.57747 0.0
C200 C 0.70205 0.18073 0.54159 0.0
C201 C 0.74259 0.1914 0.52047 0.0
N202 N 0.71601 0.18226 0.57732 0.0
N203 N 0.78212 0.19991 0.54292 0.0
H204 H 0.78781 0.19879 0.60197 0.0
H205 H 0.66468 0.17234 0.53151 0.0
C206 C 0.55576 0.18677 0.59651 0.0
O207 O 0.53364 0.17081 0.6206 0.0
N208 N 0.62635 0.15499 0.65662 0.0
C209 C 0.61982 0.12982 0.66628 0.0
C210 C 0.5846 0.12829 0.69547 0.0
C211 C 0.59757 0.16848 0.68147 0.0
N212 N 0.56992 0.15262 0.70488 0.0
C213 C 0.7068 0.123 0.58229 0.0
C214 C 0.60677 0.10326 0.5624 0.0
C215 C 0.65346 0.08814 0.55703 0.0
C216 C 0.70406 0.09859 0.56641 0.0
C217 C 0.61134 0.12768 0.57844 0.0
N218 N 0.66085 0.13703 0.58906 0.0
H219 H 0.7462 0.13053 0.58979 0.0
H220 H 0.5747 0.13823 0.58346 0.0
H221 H 0.63854 0.11356 0.65274 0.0
H222 H 0.59513 0.18946 0.68107 0.0
O223 O 0.73331 0.15739 0.64485 0.0
O224 O 0.69523 0.19635 0.64915 0.0
O225 O 0.60741 0.18733 0.59205 0.0
C226 C 0.73177 0.17973 0.66083 0.0
H227 H 0.74252 0.19326 0.49081 0.0
H228 H 0.56926 0.11043 0.70755 0.0
H229 H 0.56682 0.09589 0.55561 0.0
H230 H 0.74132 0.08786 0.56191 0.0
Co231 Co 0.08538 0.84006 0.11625 0.0
C232 C 0.99159 0.8183 0.07341 0.0
C233 C 0.06607 0.81982 0.04295 0.0
C234 C 0.02584 0.81084 0.02036 0.0
N235 N 0.04503 0.82433 0.07638 0.0
N236 N 0.97881 0.81001 0.03932 0.0
H237 H 0.96228 0.82071 0.09515 0.0
H238 H 0.10766 0.82353 0.03494 0.0
C239 C 0.20532 0.82734 0.09958 0.0
O240 O 0.22336 0.84688 0.11882 0.0
N241 N 0.12604 0.85577 0.15595 0.0
C242 C 0.13171 0.88135 0.16224 0.0
C243 C 0.17289 0.88457 0.18745 0.0
C244 C 0.16136 0.84371 0.17922 0.0
N245 N 0.1921 0.86095 0.19765 0.0
C246 C 0.0425 0.88386 0.07803 0.0
C247 C 0.13767 0.90562 0.05216 0.0
C248 C 0.08858 0.91895 0.04602 0.0
C249 C 0.04049 0.9074 0.0586 0.0
C250 C 0.13784 0.88191 0.07168 0.0
N251 N 0.09076 0.87161 0.08547 0.0
H252 H 1.00462 0.87548 0.08721 0.0
H253 H 0.17608 0.87252 0.07571 0.0
H254 H 0.11047 0.89673 0.14754 0.0
H255 H 0.16966 0.82304 0.17873 0.0
O256 O 0.01909 0.849 0.14114 0.0
O257 O 0.06335 0.81203 0.15006 0.0
O258 O 0.15412 0.82344 0.09557 0.0
C259 C 0.02187 0.82669 0.15813 0.0
H260 H 0.03114 0.80531 0.99206 0.0
H261 H 0.19048 0.90293 0.19536 0.0
H262 H 0.17592 0.91373 0.0428 0.0
H263 H 1.00136 0.9165 0.05355 0.0
C264 C 0.32425 0.32987 0.32398 0.0
C265 C 0.27825 0.3138 0.32557 0.0
C266 C 0.36395 0.32687 0.29685 0.0
C267 C 0.35764 0.30735 0.27024 0.0
C268 C 0.31254 0.29023 0.27261 0.0
C269 C 0.27333 0.29361 0.30038 0.0
C270 C 0.4114 0.3455 0.29568 0.0
C271 C 0.30439 0.26917 0.24483 0.0
C272 C 0.42462 0.32774 0.18084 0.0
C273 C 0.47528 0.31528 0.18341 0.0
C274 C 0.38444 0.32371 0.20757 0.0
C275 C 0.39532 0.3071 0.23811 0.0
C276 C 0.44532 0.29331 0.23982 0.0
C277 C 0.48469 0.29744 0.21224 0.0
C278 C 0.33157 0.33856 0.20421 0.0
C279 C 0.4586 0.27548 0.27192 0.0
H280 H 0.32882 0.34532 0.34364 0.0
H281 H 0.23796 0.28108 0.30152 0.0
H282 H 0.4503 0.33464 0.29402 0.0
H283 H 0.40833 0.35813 0.27075 0.0
H284 H 0.41285 0.35811 0.32012 0.0
H285 H 0.27162 0.25544 0.25308 0.0
H286 H 0.29342 0.27811 0.21787 0.0
H287 H 0.34261 0.25807 0.24096 0.0
H288 H 0.4168 0.34126 0.15827 0.0
H289 H 0.52378 0.28774 0.21428 0.0
H290 H 0.33011 0.35376 0.22546 0.0
H291 H 0.2965 0.32541 0.20896 0.0
H292 H 0.32677 0.34814 0.17682 0.0
H293 H 0.46666 0.28726 0.29658 0.0
H294 H 0.495 0.2633 0.26659 0.0
H295 H 0.42368 0.26258 0.27838 0.0
C296 C 0.46277 0.69935 0.82339 0.0
C297 C 0.44618 0.68592 0.85535 0.0
C298 C 0.42827 0.70179 0.79268 0.0
C299 C 0.37584 0.69048 0.79377 0.0
C300 C 0.35801 0.67783 0.82644 0.0
C301 C 0.39331 0.67573 0.85682 0.0
C302 C 0.44886 0.71551 0.7585 0.0
C303 C 0.30247 0.66545 0.82878 0.0
C304 C 0.2694 0.70636 0.71997 0.0
C305 C 0.27443 0.68487 0.69702 0.0
C306 C 0.30288 0.70885 0.75122 0.0
C307 C 0.34204 0.68936 0.75968 0.0
C308 C 0.34817 0.66806 0.73594 0.0
C309 C 0.3145 0.66614 0.70499 0.0
C310 C 0.29546 0.73196 0.7757 0.0
C311 C 0.38937 0.64684 0.74376 0.0
H312 H 0.50333 0.70751 0.82199 0.0
H313 H 0.37989 0.66545 0.88137 0.0
H314 H 0.45478 0.70119 0.73642 0.0
H315 H 0.41857 0.72996 0.74839 0.0
H316 H 0.48811 0.72559 0.76328 0.0
H317 H 0.29287 0.65837 0.85701 0.0
H318 H 0.27065 0.67953 0.81989 0.0
H319 H 0.30051 0.64875 0.80993 0.0
H320 H 0.23845 0.72087 0.71405 0.0
H321 H 0.3189 0.64948 0.68739 0.0
H322 H 0.33496 0.74187 0.77996 0.0
H323 H 0.28085 0.72531 0.80307 0.0
H324 H 0.26585 0.74624 0.76413 0.0
H325 H 0.43067 0.6553 0.74618 0.0
H326 H 0.39006 0.63195 0.72202 0.0
H327 H 0.37992 0.63706 0.77036 0.0
C328 C 0.99369 0.68015 0.72782 0.0
C329 C 0.02993 0.65996 0.73704 0.0
C330 C 0.94557 0.68382 0.74776 0.0
C331 C 0.93341 0.66695 0.77775 0.0
C332 C 0.97149 0.64763 0.78865 0.0
C333 C 0.01921 0.64434 0.76812 0.0
C334 C 0.90606 0.70464 0.73515 0.0
C335 C 0.96036 0.62941 0.82067 0.0
C336 C 0.81408 0.68421 0.83947 0.0
C337 C 0.77193 0.6697 0.82381 0.0
C338 C 0.86717 0.68332 0.8252 0.0
C339 C 0.87829 0.66748 0.79466 0.0
C340 C 0.83614 0.65235 0.77934 0.0
C341 C 0.78364 0.65365 0.7941 0.0
C342 C 0.911 0.69974 0.84225 0.0
C343 C 0.84625 0.63504 0.74694 0.0
H344 H 1.00126 0.69217 0.70369 0.0
H345 H 0.04745 0.62897 0.7757 0.0
H346 H 0.8696 0.69541 0.723 0.0
H347 H 0.89219 0.71624 0.75877 0.0
H348 H 0.92415 0.71799 0.71424 0.0
H349 H 0.99671 0.61767 0.82843 0.0
H350 H 0.94686 0.64045 0.84492 0.0
H351 H 0.92699 0.61595 0.81335 0.0
H352 H 0.80523 0.69682 0.86223 0.0
H353 H 0.75156 0.64203 0.78231 0.0
H354 H 0.92513 0.71458 0.822 0.0
H355 H 0.94666 0.68751 0.84976 0.0
H356 H 0.89657 0.70981 0.86717 0.0
H357 H 0.86016 0.64691 0.72306 0.0
H358 H 0.80931 0.62414 0.73874 0.0
H359 H 0.879 0.62086 0.75363 0.0
C360 C 0.78524 0.32955 0.19701 0.0
C361 C 0.74767 0.34608 0.21397 0.0
C362 C 0.83845 0.32658 0.21074 0.0
C363 C 0.85459 0.34045 0.24222 0.0
C364 C 0.81626 0.35641 0.26019 0.0
C365 C 0.76341 0.35902 0.24585 0.0
C366 C 0.87791 0.30939 0.19068 0.0
C367 C 0.83161 0.37146 0.29392 0.0
C368 C 0.98055 0.32379 0.29897 0.0
C369 C 0.01678 0.34342 0.28764 0.0
C370 C 0.9285 0.32171 0.28317 0.0
C371 C 0.91217 0.33967 0.25536 0.0
C372 C 0.94969 0.35851 0.2423 0.0
C373 C 1.00145 0.3601 0.25852 0.0
C374 C 0.88996 0.3012 0.29768 0.0
C375 C 0.93418 0.37794 0.21253 0.0
H376 H 0.77384 0.31973 0.17209 0.0
H377 H 0.73448 0.37156 0.2593 0.0
H378 H 0.90986 0.32154 0.17755 0.0
H379 H 0.89852 0.29583 0.21024 0.0
H380 H 0.85761 0.29789 0.16904 0.0
H381 H 0.79643 0.38201 0.30567 0.0
H382 H 0.84854 0.35814 0.31534 0.0
H383 H 0.86373 0.3858 0.28685 0.0
H384 H 0.99161 0.31088 0.32156 0.0
H385 H 0.02945 0.37502 0.24919 0.0
H386 H 0.87105 0.29058 0.27466 0.0
H387 H 0.85666 0.31061 0.31311 0.0
H388 H 0.91063 0.28695 0.31628 0.0
H389 H 0.9172 0.36783 0.18841 0.0
H390 H 0.9693 0.38994 0.20338 0.0
H391 H 0.90206 0.39109 0.22287 0.0
C392 C 0.773 0.79366 0.29707 0.0
C393 C 0.7789 0.81181 0.32511 0.0
C394 C 0.81302 0.7913 0.26956 0.0
C395 C 0.85997 0.80731 0.27038 0.0
C396 C 0.8673 0.8245 0.29993 0.0
C397 C 0.82676 0.82657 0.32671 0.0
C398 C 0.8037 0.77268 0.23862 0.0
C399 C 0.91666 0.84186 0.30223 0.0
C400 C 0.98658 0.79915 0.21097 0.0
C401 C 0.97862 0.81892 0.1845 0.0
C402 C 0.94693 0.79399 0.2381 0.0
C403 C 0.89823 0.80883 0.23852 0.0
C404 C 0.88897 0.82776 0.21052 0.0
C405 C 0.9292 0.83259 0.18407 0.0
C406 C 0.95836 0.77361 0.26737 0.0
C407 C 0.83769 0.84398 0.20957 0.0
H408 H 0.7362 0.78215 0.29573 0.0
H409 H 0.8321 0.84037 0.3486 0.0
H410 H 0.79392 0.78382 0.21309 0.0
H411 H 0.84106 0.76125 0.23329 0.0
H412 H 0.76968 0.75908 0.24455 0.0
H413 H 0.91881 0.85227 0.32869 0.0
H414 H 0.95444 0.83032 0.29904 0.0
H415 H 0.91545 0.85652 0.27953 0.0
H416 H 0.02457 0.78843 0.21136 0.0
H417 H 0.92227 0.84763 0.16337 0.0
H418 H 0.92237 0.76094 0.27156 0.0
H419 H 0.96679 0.78323 0.29383 0.0
H420 H 0.99392 0.76131 0.2604 0.0
H421 H 0.80129 0.83135 0.21171 0.0
H422 H 0.83432 0.85603 0.18407 0.0
H423 H 0.83725 0.85711 0.23345 0.0
C424 C 0.79375 0.20846 0.69701 0.0
C425 C 0.76772 0.18456 0.6924 0.0
C426 C 0.83316 0.21144 0.72481 0.0
C427 C 0.84542 0.1902 0.7488 0.0
C428 C 0.81622 0.16666 0.74557 0.0
C429 C 0.77835 0.16404 0.71712 0.0
C430 C 0.86394 0.2367 0.72702 0.0
C431 C 0.82702 0.14367 0.77093 0.0
C432 C 0.98621 0.17754 0.78717 0.0
C433 C 0.98014 0.18411 0.82412 0.0
C434 C 0.94366 0.18111 0.76194 0.0
C435 C 0.89314 0.19096 0.77408 0.0
C436 C 0.88726 0.19851 0.81114 0.0
C437 C 0.93118 0.19524 0.83573 0.0
C438 C 0.95215 0.17323 0.72257 0.0
C439 C 0.83386 0.20874 0.82524 0.0
H440 H 0.78545 0.2243 0.67778 0.0
H441 H 0.75749 0.14566 0.71382 0.0
H442 H 0.86665 0.2432 0.75586 0.0
H443 H 0.90611 0.23375 0.71713 0.0
H444 H 0.84472 0.25235 0.71005 0.0
H445 H 0.7963 0.12806 0.76769 0.0
H446 H 0.86774 0.13545 0.76501 0.0
H447 H 0.82712 0.14983 0.79998 0.0
H448 H 0.02439 0.1694 0.7779 0.0
H449 H 0.9265 0.20042 0.86429 0.0
H450 H 0.93846 0.18896 0.70347 0.0
H451 H 0.92743 0.15575 0.71675 0.0
H452 H 0.99541 0.1687 0.71666 0.0
H453 H 0.81768 0.22417 0.80656 0.0
H454 H 0.83773 0.21669 0.85331 0.0
H455 H 0.80356 0.19278 0.82598 0.0
C456 C 0.27894 0.1726 0.78203 0.0
C457 C 0.27314 0.18248 0.81737 0.0
C458 C 0.33049 0.16798 0.76718 0.0
C459 C 0.37752 0.17407 0.78787 0.0
C460 C 0.37189 0.18407 0.8237 0.0
C461 C 0.31957 0.18784 0.83826 0.0
C462 C 0.33457 0.15673 0.72923 0.0
C463 C 0.42098 0.19143 0.84619 0.0
C464 C 0.50659 0.1412 0.75549 0.0
C465 C 0.52687 0.15958 0.73001 0.0
C466 C 0.45931 0.14607 0.7758 0.0
C467 C 0.43223 0.1702 0.77136 0.0
C468 C 0.45463 0.18959 0.74793 0.0
C469 C 0.50128 0.18399 0.72732 0.0
C470 C 0.43651 0.12476 0.80023 0.0
C471 C 0.4276 0.2158 0.74302 0.0
H472 H 0.2428 0.16833 0.76614 0.0
H473 H 0.3148 0.19578 0.86544 0.0
H474 H 0.35487 0.17081 0.7104 0.0
H475 H 0.35979 0.13882 0.7301 0.0
H476 H 0.2941 0.1519 0.71757 0.0
H477 H 0.40969 0.19841 0.87386 0.0
H478 H 0.44874 0.17454 0.84949 0.0
H479 H 0.44399 0.207 0.83164 0.0
H480 H 0.52653 0.12256 0.75881 0.0
H481 H 0.51597 0.19849 0.70796 0.0
H482 H 0.39781 0.11763 0.78833 0.0
H483 H 0.42713 0.13229 0.82786 0.0
H484 H 0.4649 0.10805 0.80335 0.0
H485 H 0.38935 0.2136 0.72715 0.0
H486 H 0.45403 0.22993 0.72814 0.0
H487 H 0.41674 0.22394 0.77006 0.0
C488 C 0.29055 0.86911 0.19945 0.0
C489 C 0.24502 0.85597 0.21343 0.0
C490 C 0.34252 0.86514 0.21458 0.0
C491 C 0.34919 0.84795 0.24506 0.0
C492 C 0.30347 0.83404 0.25869 0.0
C493 C 0.25193 0.83799 0.24236 0.0
C494 C 0.39004 0.87999 0.19858 0.0
C495 C 0.30858 0.8158 0.29139 0.0
C496 C 0.49546 0.82965 0.27108 0.0
C497 C 0.50789 0.84886 0.29658 0.0
C498 C 0.44347 0.82856 0.2546 0.0
C499 C 0.40283 0.84676 0.26458 0.0
C500 C 0.4148 0.86541 0.29158 0.0
C501 C 0.46711 0.86634 0.30695 0.0
C502 C 0.43264 0.8086 0.22561 0.0
C503 C 0.37274 0.8849 0.3036 0.0
H504 H 0.28533 0.88255 0.17647 0.0
H505 H 0.21669 0.8277 0.25288 0.0
H506 H 0.40497 0.89425 0.21877 0.0
H507 H 0.42413 0.86654 0.19274 0.0
H508 H 0.37905 0.89064 0.17282 0.0
H509 H 0.27044 0.80484 0.29672 0.0
H510 H 0.34215 0.80175 0.28715 0.0
H511 H 0.31881 0.82707 0.31618 0.0
H512 H 0.52692 0.81607 0.26325 0.0
H513 H 0.47631 0.88082 0.3273 0.0
H514 H 0.426 0.81854 0.19868 0.0
H515 H 0.39505 0.79759 0.23215 0.0
H516 H 0.46687 0.79466 0.22289 0.0
H517 H 0.36246 0.89822 0.28032 0.0
H518 H 0.38714 0.89674 0.32693 0.0
H519 H 0.33476 0.8748 0.3119 0.0
C520 C 0.17984 0.54353 0.56122 0.0
C521 C 0.1467 0.56357 0.54716 0.0
C522 C 0.17756 0.51844 0.54688 0.0
C523 C 0.14128 0.51323 0.51769 0.0
C524 C 0.10693 0.53324 0.50379 0.0
C525 C 0.10996 0.55819 0.51877 0.0
C526 C 0.21463 0.4976 0.56261 0.0
C527 C 0.06788 0.52842 0.47259 0.0
C528 C 0.17979 0.45674 0.45738 0.0
C529 C 0.14647 0.43678 0.47125 0.0
C530 C 0.1776 0.48183 0.47174 0.0
C531 C 0.14126 0.48712 0.50075 0.0
C532 C 0.10682 0.4672 0.51449 0.0
C533 C 0.10974 0.44225 0.4995 0.0
C534 C 0.21477 0.50258 0.45619 0.0
C535 C 0.06774 0.47211 0.54553 0.0
H536 H 0.20758 0.54745 0.58364 0.0
H537 H 0.08447 0.57366 0.50769 0.0
H538 H 0.19041 0.48053 0.5718 0.0
H539 H 0.24295 0.49087 0.54108 0.0
H540 H 0.23896 0.50456 0.58623 0.0
H541 H 0.04223 0.54569 0.46606 0.0
H542 H 0.09092 0.52319 0.44761 0.0
H543 H 0.04094 0.51179 0.47952 0.0
H544 H 0.20753 0.45275 0.43508 0.0
H545 H 0.08412 0.42686 0.51043 0.0
H546 H 0.24302 0.50928 0.47786 0.0
H547 H 0.19061 0.51969 0.44683 0.0
H548 H 0.23918 0.49555 0.43271 0.0
H549 H 0.09074 0.47735 0.57059 0.0
H550 H 0.04209 0.45488 0.552 0.0
H551 H 0.04079 0.48877 0.53845 0.0
C552 C 0.57584 0.55786 0.98441 0.0
C553 C 0.57843 0.56528 0.94718 0.0
C554 C 0.57668 0.53166 0.99542 0.0
C555 C 0.579 0.51215 0.96853 0.0
C556 C 0.57913 0.51936 0.93079 0.0
C557 C 0.57908 0.5459 0.92052 0.0
C558 C 0.57636 0.52491 0.03598 0.0
C559 C 0.58059 0.49908 0.90136 0.0
C560 C 0.63548 0.44823 1.00596 0.0
C561 C 0.58776 0.43544 0.01675 0.0
C562 C 0.63326 0.47269 0.98819 0.0
C563 C 0.58207 0.48435 0.98058 0.0
C564 C 0.5338 0.4706 0.98915 0.0
C565 C 0.53723 0.44642 1.00743 0.0
C566 C 0.68568 0.4868 0.97989 0.0
C567 C 0.47844 0.48207 0.98097 0.0
H568 H 0.57397 0.57268 1.00519 0.0
H569 H 0.58125 0.55144 0.89171 0.0
H570 H 0.54086 0.51245 0.04266 0.0
H571 H 0.61351 0.51369 0.04335 0.0
H572 H 0.57468 0.54243 0.05336 0.0
H573 H 0.5764 0.50776 0.87335 0.0
H574 H 0.61959 0.48826 0.90295 0.0
H575 H 0.54745 0.48476 0.90575 0.0
H576 H 0.67454 0.43978 0.01326 0.0
H577 H 0.50027 0.43635 0.01536 0.0
H578 H 0.68968 0.50364 0.99837 0.0
H579 H 0.68548 0.49452 0.95127 0.0
H580 H 0.72183 0.47406 0.98377 0.0
H581 H 0.47042 0.4983 0.99989 0.0
H582 H 0.44548 0.46748 0.98434 0.0
H583 H 0.4769 0.49015 0.95254 0.0
C584 C 0.68056 0.0413 0.55956 0.0
C585 C 0.64966 0.06126 0.54305 0.0
C586 C 0.67876 0.01587 0.54638 0.0
C587 C 0.64524 0.01023 0.5159 0.0
C588 C 0.61315 0.03017 0.49948 0.0
C589 C 0.61565 0.05547 0.51332 0.0
C590 C 0.71337 0.99513 0.56477 0.0
C591 C 0.57707 0.02488 0.46685 0.0
C592 C 0.68625 0.95193 0.45986 0.0
C593 C 0.65036 0.93275 0.47289 0.0
C594 C 0.68438 0.97731 0.47323 0.0
C595 C 0.64572 0.98369 0.50036 0.0
C596 C 0.60898 0.96451 0.51341 0.0
C597 C 0.61166 0.93925 0.49945 0.0
C598 C 0.72408 0.99726 0.45848 0.0
C599 C 0.56738 0.97058 0.54247 0.0
H600 H 0.70612 0.04555 0.583 0.0
H601 H 0.59192 0.07086 0.50036 0.0
H602 H 0.6876 0.97854 0.57373 0.0
H603 H 0.7434 0.98756 0.54491 0.0
H604 H 0.73569 1.0025 0.58902 0.0
H605 H 0.55293 0.04222 0.45825 0.0
H606 H 0.60228 0.01872 0.44331 0.0
H607 H 0.54872 0.00872 0.4734 0.0
H608 H 0.71554 0.94717 0.43881 0.0
H609 H 0.58403 0.92445 0.50974 0.0
H610 H 0.7502 1.00432 0.4811 0.0
H611 H 0.70174 0.01431 0.44702 0.0
H612 H 0.75066 0.98933 0.43671 0.0
H613 H 0.58826 0.97645 0.56807 0.0
H614 H 0.54068 0.95372 0.54887 0.0
H615 H 0.54161 0.98719 0.5333 0.0
C616 C 0.053 0.96457 0.04097 0.0
C617 C 0.08722 0.94502 0.02761 0.0
C618 C 0.05156 0.98942 0.02454 0.0
C619 C 0.08538 0.99501 0.99404 0.0
C620 C 0.11961 0.97533 0.98011 0.0
C621 C 0.12015 0.95058 0.99707 0.0
C622 C 0.0147 0.00987 0.04037 0.0
C623 C 0.15631 0.98057 0.94766 0.0
C624 C 0.05286 0.05527 0.93567 0.0
C625 C 0.0893 0.07346 0.95003 0.0
C626 C 0.0514 0.02955 0.94942 0.0
C627 C 0.08719 0.02189 0.97821 0.0
C628 C 0.12398 0.04017 0.99278 0.0
C629 C 0.12439 0.06568 0.97867 0.0
C630 C 1.01145 0.01061 0.93331 0.0
C631 C 0.16261 0.03286 0.02362 0.0
H632 H 0.02805 0.96062 0.06491 0.0
H633 H 0.1462 0.93552 0.98629 0.0
H634 H 0.03948 0.02604 0.05125 0.0
H635 H 0.98793 0.0182 0.01859 0.0
H636 H 0.98884 1.00202 0.06292 0.0
H637 H 0.17878 0.96292 0.93919 0.0
H638 H 0.13211 0.98798 0.92395 0.0
H639 H 0.18625 0.99584 0.95462 0.0
H640 H 0.02584 0.06107 0.91343 0.0
H641 H 0.15182 0.07971 0.99057 0.0
H642 H 0.98345 1.00339 0.95501 0.0
H643 H 0.03343 0.99351 0.92257 0.0
H644 H 0.98692 0.01949 0.91071 0.0
H645 H 0.13925 0.02672 0.04829 0.0
H646 H 0.18971 0.04919 0.03119 0.0
H647 H 0.18819 0.01613 0.01555 0.0
C648 C 0.3506 0.29161 0.51606 0.0
C649 C 0.3268 0.28517 0.4824 0.0
C650 C 0.39321 0.27676 0.53116 0.0
C651 C 0.41225 0.25471 0.5123 0.0
C652 C 0.39053 0.24898 0.47725 0.0
C653 C 0.34815 0.2644 0.4626 0.0
C654 C 0.41568 0.28383 0.56832 0.0
C655 C 0.40963 0.22563 0.45629 0.0
C656 C 0.54136 0.22253 0.54943 0.0
C657 C 0.51981 0.20343 0.57322 0.0
C658 C 0.507 0.23898 0.52853 0.0
C659 C 0.44986 0.23615 0.53138 0.0
C660 C 0.42805 0.21644 0.55456 0.0
C661 C 0.46318 0.20043 0.57522 0.0
C662 C 0.53176 0.25983 0.50424 0.0
C663 C 0.36737 0.21264 0.55828 0.0
H664 H 0.33478 0.30797 0.53106 0.0
H665 H 0.3297 0.25935 0.43663 0.0
H666 H 0.40333 0.26893 0.58903 0.0
H667 H 0.46077 0.28414 0.56772 0.0
H668 H 0.40085 0.30308 0.57742 0.0
H669 H 0.39415 0.22582 0.42759 0.0
H670 H 0.4547 0.22477 0.45575 0.0
H671 H 0.39513 0.20764 0.47031 0.0
H672 H 0.58505 0.22496 0.54761 0.0
H673 H 0.44601 0.18564 0.59327 0.0
H674 H 0.52123 0.27925 0.51495 0.0
H675 H 0.51486 0.2588 0.47602 0.0
H676 H 0.57675 0.25818 0.50279 0.0
H677 H 0.34882 0.23014 0.57054 0.0
H678 H 0.35703 0.19548 0.5758 0.0
H679 H 0.34859 0.21015 0.53083 0.0
C680 C 0.43617 0.7507 0.98887 0.0
C681 C 0.44784 0.72688 1.00659 0.0
C682 C 0.3944 0.76695 1.00149 0.0
C683 C 0.3638 0.75933 0.03274 0.0
C684 C 0.37447 0.73508 0.05021 0.0
C685 C 0.41604 0.71915 0.03683 0.0
C686 C 0.38396 0.79259 0.98195 0.0
C687 C 0.34285 0.72623 0.08365 0.0
C688 C 0.30054 0.81153 0.09151 0.0
C689 C 0.24541 0.81014 0.08166 0.0
C690 C 0.33939 0.7953 0.07552 0.0
C691 C 0.32295 0.77732 0.04868 0.0
C692 C 0.26749 0.77599 0.03823 0.0
C693 C 0.22927 0.7923 0.05503 0.0
C694 C 0.39797 0.79712 0.08783 0.0
C695 C 0.24849 0.75721 0.0095 0.0
H696 H 0.46049 0.757 0.96566 0.0
H697 H 0.42364 0.70056 0.05024 0.0
H698 H 0.34021 0.79452 0.97485 0.0
H699 H 0.39428 0.80881 1.00041 0.0
H700 H 0.40826 0.79476 0.95641 0.0
H701 H 0.3547 0.70639 0.09318 0.0
H702 H 0.34977 0.73991 0.10643 0.0
H703 H 0.29863 0.72636 0.07756 0.0
H704 H 0.31345 0.82511 0.11223 0.0
H705 H 0.18682 0.79112 0.04719 0.0
H706 H 0.42448 0.80153 0.06393 0.0
H707 H 0.41146 0.77818 0.0997 0.0
H708 H 0.40418 0.81234 0.10872 0.0
H709 H 0.27174 0.76029 0.98372 0.0
H710 H 0.20442 0.75933 1.00332 0.0
H711 H 0.25634 0.73695 0.01903 0.0
C712 C 0.35183 0.73415 0.55317 0.0
C713 C 0.32978 0.71295 0.53464 0.0
C714 C 0.39382 0.74909 0.53728 0.0
C715 C 0.41432 0.74244 0.50229 0.0
C716 C 0.39485 0.71988 0.4849 0.0
C717 C 0.35273 0.70551 0.50122 0.0
C718 C 0.41353 0.77297 0.55675 0.0
C719 C 0.41593 0.71184 0.44785 0.0
C720 C 0.46063 0.79555 0.43605 0.0
C721 C 0.51743 0.79293 0.43714 0.0
C722 C 0.42699 0.77974 0.45793 0.0
C723 C 0.4505 0.76066 0.48155 0.0
C724 C 0.50783 0.75813 0.48333 0.0
C725 C 0.54066 0.77431 0.4611 0.0
C726 C 0.36605 0.78314 0.45517 0.0
C727 C 0.53438 0.738 0.50812 0.0
H728 H 0.33402 0.73996 0.57895 0.0
H729 H 0.3363 0.68883 0.48721 0.0
H730 H 0.45858 0.77401 0.55628 0.0
H731 H 0.39781 0.79059 0.54228 0.0
H732 H 0.39961 0.77335 0.58574 0.0
H733 H 0.40132 0.69225 0.44014 0.0
H734 H 0.40215 0.72606 0.42653 0.0
H735 H 0.46103 0.7118 0.44768 0.0
H736 H 0.44211 0.80993 0.41785 0.0
H737 H 0.5845 0.77221 0.46233 0.0
H738 H 0.34862 0.78642 0.48279 0.0
H739 H 0.34736 0.76518 0.44442 0.0
H740 H 0.35433 0.7997 0.43683 0.0
H741 H 0.51921 0.73983 0.53663 0.0
H742 H 0.57941 0.73975 0.50836 0.0
H743 H 0.52347 0.71825 0.49882 0.0
C744 C 0.24492 0.22881 0.96663 0.0
C745 C 0.19673 0.23894 0.95151 0.0
C746 C 0.28457 0.24504 0.98136 0.0
C747 C 0.27578 0.27223 0.9814 0.0
C748 C 0.22678 0.28268 0.96677 0.0
C749 C 0.18781 0.26586 0.95166 0.0
C750 C 0.3365 0.23302 0.99621 0.0
C751 C 0.21588 0.31153 0.96681 0.0
C752 C 0.37488 0.30301 0.04707 0.0
C753 C 0.41872 0.3081 0.02351 0.0
C754 C 0.32534 0.29366 0.03326 0.0
C755 C 0.31989 0.28927 0.99511 0.0
C756 C 0.36225 0.29678 0.97096 0.0
C757 C 0.41107 0.30616 0.98548 0.0
C758 C 0.28088 0.2862 0.05988 0.0
C759 C 0.35823 0.2925 0.93011 0.0
H760 H 0.25227 0.20803 0.96645 0.0
H761 H 0.15044 0.27373 0.94017 0.0
H762 H 0.37184 0.24053 0.98042 0.0
H763 H 0.34253 0.23846 0.02529 0.0
H764 H 0.33645 0.21148 0.99468 0.0
H765 H 0.17441 0.31641 0.95663 0.0
H766 H 0.22064 0.3191 0.99499 0.0
H767 H 0.24603 0.32175 0.94918 0.0
H768 H 0.38047 0.30456 0.07647 0.0
H769 H 0.44444 0.31075 0.96713 0.0
H770 H 0.28106 0.2648 0.06419 0.0
H771 H 0.24037 0.29175 0.04877 0.0
H772 H 0.28663 0.29546 0.08696 0.0
H773 H 0.36236 0.27144 0.92463 0.0
H774 H 0.39056 0.30305 0.9147 0.0
H775 H 0.31805 0.29888 0.91938 0.0
C776 C 0.04139 0.72328 0.55588 0.0
C777 C 0.0199 0.70456 0.58031 0.0
C778 C 1.00703 0.73893 0.53371 0.0
C779 C 0.94991 0.73565 0.53582 0.0
C780 C 0.92819 0.71637 0.55976 0.0
C781 C 0.9633 0.7012 0.58175 0.0
C782 C 0.03176 0.75939 0.50875 0.0
C783 C 0.86758 0.71207 0.56278 0.0
C784 C 0.84821 0.78952 0.51608 0.0
C785 C 0.82587 0.78196 0.48247 0.0
C786 C 0.89123 0.77564 0.5325 0.0
C787 C 0.91209 0.75334 0.51512 0.0
C788 C 0.89186 0.74649 0.48006 0.0
C789 C 0.84911 0.76103 0.464 0.0
C790 C 0.91206 0.78396 0.56954 0.0
C791 C 0.9128 0.72283 0.46064 0.0
H792 H 0.08504 0.726 0.55445 0.0
H793 H 0.94613 0.6867 0.60025 0.0
H794 H 0.01613 0.75737 0.48033 0.0
H795 H 0.01976 0.77899 0.51813 0.0
H796 H 0.07687 0.75825 0.50824 0.0
H797 H 0.85737 0.69528 0.58105 0.0
H798 H 0.84785 0.7297 0.57377 0.0
H799 H 0.84988 0.70865 0.53522 0.0
H800 H 0.83074 0.80596 0.53009 0.0
H801 H 0.8317 0.75512 0.43808 0.0
H802 H 0.95715 0.78463 0.56967 0.0
H803 H 0.89945 0.76956 0.59087 0.0
H804 H 0.89621 0.80335 0.57726 0.0
H805 H 0.9579 0.72243 0.4609 0.0
H806 H 0.8984 0.72215 0.43172 0.0
H807 H 0.89857 0.70505 0.47532 0.0
C808 C 0.79814 0.31503 0.08631 0.0
C809 C 0.74319 0.30966 0.07938 0.0
C810 C 0.83947 0.29877 0.07316 0.0
C811 C 0.82555 0.27692 0.05193 0.0
C812 C 0.77014 0.27142 0.04485 0.0
C813 C 0.72967 0.28767 0.05903 0.0
C814 C 0.89799 0.30492 0.0821 0.0
C815 C 0.75359 0.24853 0.02195 0.0
C816 C 0.93195 0.24951 0.98751 0.0
C817 C 0.94985 0.22718 1.00684 0.0
C818 C 0.89159 0.26579 1.00183 0.0
C819 C 0.86886 0.25995 0.03665 0.0
C820 C 0.88677 0.23765 0.05651 0.0
C821 C 0.92655 0.22146 0.04127 0.0
C822 C 0.87314 0.28925 0.97961 0.0
C823 C 0.86381 0.23087 0.09388 0.0
H824 H 0.80889 0.33178 0.10246 0.0
H825 H 0.68737 0.28328 0.05369 0.0
H826 H 0.91703 0.28816 0.09682 0.0
H827 H 0.92125 0.30821 0.05638 0.0
H828 H 0.90195 0.32239 0.09942 0.0
H829 H 0.70876 0.24705 0.01875 0.0
H830 H 0.77211 0.25024 0.99426 0.0
H831 H 0.76889 0.23021 0.03474 0.0
H832 H 0.94969 0.25459 0.96124 0.0
H833 H 0.93902 0.2042 0.05642 0.0
H834 H 0.8808 0.30722 0.99521 0.0
H835 H 0.82869 0.28817 0.97453 0.0
H836 H 0.89424 0.29091 0.95274 0.0
H837 H 0.8691 0.24745 0.11265 0.0
H838 H 0.88356 0.21343 0.10645 0.0
H839 H 0.81953 0.22715 0.09161 0.0
C840 C 0.96192 0.29728 0.43469 0.0
C841 C 0.01874 0.29547 0.43753 0.0
C842 C 0.92783 0.28127 0.45597 0.0
C843 C 0.95089 0.2628 0.48073 0.0
C844 C 1.00818 0.26113 0.48432 0.0
C845 C 0.04146 0.27751 0.4627 0.0
C846 C 0.86695 0.28376 0.45128 0.0
C847 C 0.0343 0.24164 0.51032 0.0
C848 C 0.84974 0.23501 0.5499 0.0
C849 C 0.83071 0.21324 0.53118 0.0
C850 C 0.89134 0.25066 0.5349 0.0
C851 C 0.91456 0.24416 0.50062 0.0
C852 C 0.89804 0.22112 0.48309 0.0
C853 C 0.85625 0.20605 0.49851 0.0
C854 C 0.90785 0.27503 0.5545 0.0
C855 C 0.92209 0.21321 0.44681 0.0
H856 H 0.94378 0.31112 0.41551 0.0
H857 H 0.08529 0.27602 0.46525 0.0
H858 H 0.85024 0.26546 0.44019 0.0
H859 H 0.8474 0.28692 0.47826 0.0
H860 H 0.85545 0.30003 0.43236 0.0
H861 H 0.0791 0.24413 0.51202 0.0
H862 H 0.01691 0.24343 0.53825 0.0
H863 H 0.02554 0.22165 0.50101 0.0
H864 H 0.82995 0.24064 0.5751 0.0
H865 H 0.84218 0.18895 0.48437 0.0
H866 H 0.89184 0.29226 0.53923 0.0
H867 H 0.95277 0.27683 0.5554 0.0
H868 H 0.89191 0.27541 0.58301 0.0
H869 H 0.90884 0.22712 0.42493 0.0
H870 H 0.90933 0.19337 0.4389 0.0
H871 H 0.96714 0.21384 0.44801 0.0
C872 C 0.7552 0.72052 0.96154 0.0
C873 C 0.70457 0.73105 0.95157 0.0
C874 C 0.79635 0.73605 0.97612 0.0
C875 C 0.78641 0.7628 0.98166 0.0
C876 C 0.73527 0.77363 0.9717 0.0
C877 C 0.69499 0.75763 0.95631 0.0
C878 C 0.85064 0.72377 0.98545 0.0
C879 C 0.72297 0.80197 0.97774 0.0
C880 C 0.88696 0.79136 0.04926 0.0
C881 C 0.92667 0.80156 0.02548 0.0
C882 C 0.83892 0.78031 0.03545 0.0
C883 C 0.83068 0.77918 0.99697 0.0
C884 C 0.86905 0.7908 0.97297 0.0
C885 C 0.91619 0.80202 0.98751 0.0
C886 C 0.79855 0.76848 0.06199 0.0
C887 C 0.86217 0.78989 0.93177 0.0
H888 H 0.76292 0.7 0.95764 0.0
H889 H 0.65568 0.76574 0.94888 0.0
H890 H 0.8835 0.73379 0.96995 0.0
H891 H 0.85954 0.72597 0.01512 0.0
H892 H 0.85194 0.70276 0.97896 0.0
H893 H 0.68114 0.80736 0.96883 0.0
H894 H 0.72761 0.80645 1.00728 0.0
H895 H 0.75241 0.81432 0.96243 0.0
H896 H 0.89439 0.79092 0.07858 0.0
H897 H 0.9456 0.81057 0.96888 0.0
H898 H 0.80097 0.74697 0.06083 0.0
H899 H 0.75646 0.77421 0.05432 0.0
H900 H 0.80648 0.77439 0.09072 0.0
H901 H 0.86683 0.76955 0.9226 0.0
H902 H 0.89254 0.80214 0.91706 0.0
H903 H 0.82084 0.79646 0.92361 0.0
loop_
_geom_bond_atom_site_label_1
_geom_bond_atom_site_label_2
_geom_bond_distance
_geom_bond_site_symmetry_2
_ccdc_geom_bond_type
Co0 N4 2.148 . S
Co0 N10 2.128 . S
Co0 N20 2.194 . S
Co0 O25 2.351 . S
Co0 O26 2.155 . S
Co0 O27 2.096 . S
C1 N4 1.301 . S
C1 N5 1.328 . S
C1 H6 0.930 . S
C2 C3 1.333 . S
C2 N4 1.317 . S
C2 H7 0.930 . S
C3 C2 1.333 . S
C3 N5 1.350 . S
C3 H29 0.931 . S
N4 Co0 2.148 . S
N4 C1 1.301 . S
N4 C2 1.317 . S
N5 C1 1.328 . S
N5 C3 1.350 . S
H6 C1 0.930 . S
H7 C2 0.930 . S
C8 O9 1.224 . S
C8 O27 1.247 . S
O9 C8 1.224 . S
N10 Co0 2.128 . S
N10 C11 1.355 . S
N10 C13 1.311 . S
C11 N10 1.355 . S
C11 C12 1.363 . S
C11 H23 0.929 . S
C12 C11 1.363 . S
C12 N14 1.375 . S
C12 H30 0.931 . S
C13 N10 1.311 . S
C13 N14 1.347 . S
C13 H24 0.929 . S
N14 C12 1.375 . S
N14 C13 1.347 . S
C15 C18 1.365 . S
C15 N20 1.328 . S
C15 H21 0.929 . S
C16 C17 1.362 . S
C16 C19 1.378 . S
C16 H31 0.929 . S
C17 C16 1.362 . S
C17 C18 1.366 . S
C18 C15 1.365 . S
C18 C17 1.366 . S
C18 H32 0.930 . S
C19 C16 1.378 . S
C19 N20 1.315 . S
C19 H22 0.930 . S
N20 Co0 2.194 . S
N20 C15 1.328 . S
N20 C19 1.315 . S
H21 C15 0.929 . S
H22 C19 0.930 . S
H23 C11 0.929 . S
H24 C13 0.929 . S
O25 Co0 2.351 . S
O25 C28 1.244 . S
O26 Co0 2.155 . S
O26 C28 1.240 . S
O27 Co0 2.096 . S
O27 C8 1.247 . S
C28 O25 1.244 . S
C28 O26 1.240 . S
H29 C3 0.931 . S
H30 C12 0.931 . S
H31 C16 0.929 . S
H32 C18 0.930 . S
Co33 N37 2.148 . S
Co33 N43 2.128 . S
Co33 N53 2.194 . S
Co33 O58 2.351 . S
Co33 O59 2.155 . S
Co33 O60 2.096 . S
C34 N37 1.301 . S
C34 N38 1.328 . S
C34 H39 0.930 . S
C35 C36 1.333 . S
C35 N37 1.317 . S
C35 H40 0.930 . S
C36 C35 1.333 . S
C36 N38 1.350 . S
C36 H62 0.931 . S
N37 Co33 2.148 . S
N37 C34 1.301 . S
N37 C35 1.317 . S
N38 C34 1.328 . S
N38 C36 1.350 . S
H39 C34 0.930 . S
H40 C35 0.930 . S
C41 O42 1.224 . S
C41 O60 1.247 . S
O42 C41 1.224 . S
N43 Co33 2.128 . S
N43 C44 1.355 . S
N43 C46 1.311 . S
C44 N43 1.355 . S
C44 C45 1.363 . S
C44 H56 0.929 . S
C45 C44 1.363 . S
C45 N47 1.375 . S
C45 H63 0.931 1_556 S
C46 N43 1.311 . S
C46 N47 1.347 . S
C46 H57 0.929 . S
N47 C45 1.375 . S
N47 C46 1.347 . S
C48 C51 1.365 . S
C48 N53 1.328 . S
C48 H54 0.929 . S
C49 C50 1.362 . S
C49 C52 1.378 . S
C49 H64 0.929 . S
C50 C49 1.362 . S
C50 C51 1.366 . S
C51 C48 1.365 . S
C51 C50 1.366 . S
C51 H65 0.930 . S
C52 C49 1.378 . S
C52 N53 1.315 . S
C52 H55 0.930 . S
N53 Co33 2.194 . S
N53 C48 1.328 . S
N53 C52 1.315 . S
H54 C48 0.929 . S
H55 C52 0.930 . S
H56 C44 0.929 . S
H57 C46 0.929 . S
O58 Co33 2.351 . S
O58 C61 1.244 . S
O59 Co33 2.155 . S
O59 C61 1.240 . S
O60 Co33 2.096 . S
O60 C41 1.247 . S
C61 O58 1.244 . S
C61 O59 1.240 . S
H62 C36 0.931 . S
H63 C45 0.931 1_554 S
H64 C49 0.929 . S
H65 C51 0.930 . S
Co66 N70 2.148 . S
Co66 N76 2.128 . S
Co66 N86 2.194 . S
Co66 O91 2.351 . S
Co66 O92 2.155 . S
Co66 O93 2.096 . S
C67 N70 1.301 . S
C67 N71 1.328 . S
C67 H72 0.930 . S
C68 C69 1.333 . S
C68 N70 1.317 . S
C68 H73 0.930 . S
C69 C68 1.333 . S
C69 N71 1.350 . S
C69 H95 0.931 . S
N70 Co66 2.148 . S
N70 C67 1.301 . S
N70 C68 1.317 . S
N71 C67 1.328 . S
N71 C69 1.350 . S
H72 C67 0.930 . S
H73 C68 0.930 . S
C74 O75 1.224 . S
C74 O93 1.247 . S
O75 C74 1.224 . S
N76 Co66 2.128 . S
N76 C77 1.355 . S
N76 C79 1.311 . S
C77 N76 1.355 . S
C77 C78 1.363 . S
C77 H89 0.929 . S
C78 C77 1.363 . S
C78 N80 1.375 . S
C78 H96 0.931 . S
C79 N76 1.311 . S
C79 N80 1.347 . S
C79 H90 0.929 . S
N80 C78 1.375 . S
N80 C79 1.347 . S
C81 C84 1.365 . S
C81 N86 1.328 . S
C81 H87 0.929 . S
C82 C83 1.362 . S
C82 C85 1.378 . S
C82 H97 0.929 . S
C83 C82 1.362 . S
C83 C84 1.366 . S
C84 C81 1.365 . S
C84 C83 1.366 . S
C84 H98 0.930 . S
C85 C82 1.378 . S
C85 N86 1.315 . S
C85 H88 0.930 . S
N86 Co66 2.194 . S
N86 C81 1.328 . S
N86 C85 1.315 . S
H87 C81 0.929 . S
H88 C85 0.930 . S
H89 C77 0.929 . S
H90 C79 0.929 . S
O91 Co66 2.351 . S
O91 C94 1.244 . S
O92 Co66 2.155 . S
O92 C94 1.240 . S
O93 Co66 2.096 . S
O93 C74 1.247 . S
C94 O91 1.244 . S
C94 O92 1.240 . S
H95 C69 0.931 . S
H96 C78 0.931 . S
H97 C82 0.929 . S
H98 C84 0.930 . S
Co99 N103 2.148 . S
Co99 N109 2.128 . S
Co99 N119 2.194 . S
Co99 O124 2.351 . S
Co99 O125 2.155 . S
Co99 O126 2.096 . S
C100 N103 1.301 . S
C100 N104 1.328 . S
C100 H105 0.930 . S
C101 C102 1.333 . S
C101 N103 1.317 . S
C101 H106 0.930 . S
C102 C101 1.333 . S
C102 N104 1.350 . S
C102 H128 0.931 . S
N103 Co99 2.148 . S
N103 C100 1.301 . S
N103 C101 1.317 . S
N104 C100 1.328 . S
N104 C102 1.350 . S
H105 C100 0.930 . S
H106 C101 0.930 . S
C107 O108 1.224 . S
C107 O126 1.247 . S
O108 C107 1.224 . S
N109 Co99 2.128 . S
N109 C110 1.355 . S
N109 C112 1.311 . S
C110 N109 1.355 . S
C110 C111 1.363 . S
C110 H122 0.929 . S
C111 C110 1.363 . S
C111 N113 1.375 . S
C111 H129 0.931 . S
C112 N109 1.311 . S
C112 N113 1.347 . S
C112 H123 0.929 . S
N113 C111 1.375 . S
N113 C112 1.347 . S
C114 C117 1.365 . S
C114 N119 1.328 . S
C114 H120 0.929 . S
C115 C116 1.362 . S
C115 C118 1.378 . S
C115 H130 0.929 . S
C116 C115 1.362 . S
C116 C117 1.366 . S
C117 C114 1.365 . S
C117 C116 1.366 . S
C117 H131 0.930 . S
C118 C115 1.378 . S
C118 N119 1.315 . S
C118 H121 0.930 . S
N119 Co99 2.194 . S
N119 C114 1.328 . S
N119 C118 1.315 . S
H120 C114 0.929 . S
H121 C118 0.930 . S
H122 C110 0.929 . S
H123 C112 0.929 . S
O124 Co99 2.351 . S
O124 C127 1.244 . S
O125 Co99 2.155 . S
O125 C127 1.240 . S
O126 Co99 2.096 . S
O126 C107 1.247 . S
C127 O124 1.244 . S
C127 O125 1.240 . S
H128 C102 0.931 . S
H129 C111 0.931 . S
H130 C115 0.929 . S
H131 C117 0.930 . S
Co132 N136 2.148 . S
Co132 N142 2.128 . S
Co132 N152 2.194 . S
Co132 O157 2.351 . S
Co132 O158 2.155 . S
Co132 O159 2.096 . S
C133 N136 1.301 . S
C133 N137 1.328 . S
C133 H138 0.930 . S
C134 C135 1.333 . S
C134 N136 1.317 . S
C134 H139 0.930 . S
C135 C134 1.333 . S
C135 N137 1.350 . S
C135 H161 0.931 . S
N136 Co132 2.148 . S
N136 C133 1.301 . S
N136 C134 1.317 . S
N137 C133 1.328 . S
N137 C135 1.350 . S
H138 C133 0.930 . S
H139 C134 0.930 . S
C140 O141 1.224 . S
C140 O159 1.247 . S
O141 C140 1.224 . S
N142 Co132 2.128 . S
N142 C143 1.355 . S
N142 C145 1.311 . S
C143 N142 1.355 . S
C143 C144 1.363 . S
C143 H155 0.929 . S
C144 C143 1.363 . S
C144 N146 1.375 . S
C144 H162 0.931 . S
C145 N142 1.311 . S
C145 N146 1.347 . S
C145 H156 0.929 . S
N146 C144 1.375 . S
N146 C145 1.347 . S
C147 C150 1.365 . S
C147 N152 1.328 . S
C147 H153 0.929 . S
C148 C149 1.362 . S
C148 C151 1.378 . S
C148 H163 0.929 . S
C149 C148 1.362 . S
C149 C150 1.366 . S
C150 C147 1.365 . S
C150 C149 1.366 . S
C150 H164 0.930 . S
C151 C148 1.378 . S
C151 N152 1.315 . S
C151 H154 0.930 . S
N152 Co132 2.194 . S
N152 C147 1.328 . S
N152 C151 1.315 . S
H153 C147 0.929 . S
H154 C151 0.930 . S
H155 C143 0.929 . S
H156 C145 0.929 . S
O157 Co132 2.351 . S
O157 C160 1.244 . S
O158 Co132 2.155 . S
O158 C160 1.240 . S
O159 Co132 2.096 . S
O159 C140 1.247 . S
C160 O157 1.244 . S
C160 O158 1.240 . S
H161 C135 0.931 . S
H162 C144 0.931 . S
H163 C148 0.929 . S
H164 C150 0.930 . S
Co165 N169 2.148 . S
Co165 N175 2.128 . S
Co165 N185 2.194 . S
Co165 O190 2.351 . S
Co165 O191 2.155 . S
Co165 O192 2.096 . S
C166 N169 1.301 . S
C166 N170 1.328 . S
C166 H171 0.930 . S
C167 C168 1.333 . S
C167 N169 1.317 . S
C167 H172 0.930 . S
C168 C167 1.333 . S
C168 N170 1.350 . S
C168 H194 0.931 . S
N169 Co165 2.148 . S
N169 C166 1.301 . S
N169 C167 1.317 . S
N170 C166 1.328 . S
N170 C168 1.350 . S
H171 C166 0.930 . S
H172 C167 0.930 . S
C173 O174 1.224 . S
C173 O192 1.247 1_655 S
O174 C173 1.224 . S
N175 Co165 2.128 . S
N175 C176 1.355 . S
N175 C178 1.311 1_455 S
C176 N175 1.355 . S
C176 C177 1.363 1_455 S
C176 H188 0.929 . S
C177 C176 1.363 1_655 S
C177 N179 1.375 . S
C177 H195 0.931 1_556 S
C178 N175 1.311 1_655 S
C178 N179 1.347 . S
C178 H189 0.929 . S
N179 C177 1.375 . S
N179 C178 1.347 . S
C180 C183 1.365 . S
C180 N185 1.328 . S
C180 H186 0.929 . S
C181 C182 1.362 . S
C181 C184 1.378 . S
C181 H196 0.929 . S
C182 C181 1.362 . S
C182 C183 1.366 . S
C183 C180 1.365 . S
C183 C182 1.366 . S
C183 H197 0.930 . S
C184 C181 1.378 . S
C184 N185 1.315 . S
C184 H187 0.930 . S
N185 Co165 2.194 . S
N185 C180 1.328 . S
N185 C184 1.315 . S
H186 C180 0.929 . S
H187 C184 0.930 . S
H188 C176 0.929 . S
H189 C178 0.929 . S
O190 Co165 2.351 . S
O190 C193 1.244 . S
O191 Co165 2.155 . S
O191 C193 1.240 . S
O192 Co165 2.096 . S
O192 C173 1.247 1_455 S
C193 O190 1.244 . S
C193 O191 1.240 . S
H194 C168 0.931 . S
H195 C177 0.931 1_554 S
H196 C181 0.929 . S
H197 C183 0.930 . S
Co198 N202 2.148 . S
Co198 N208 2.128 . S
Co198 N218 2.194 . S
Co198 O223 2.351 . S
Co198 O224 2.155 . S
Co198 O225 2.096 . S
C199 N202 1.301 . S
C199 N203 1.328 . S
C199 H204 0.930 . S
C200 C201 1.333 . S
C200 N202 1.317 . S
C200 H205 0.930 . S
C201 C200 1.333 . S
C201 N203 1.350 . S
C201 H227 0.931 . S
N202 Co198 2.148 . S
N202 C199 1.301 . S
N202 C200 1.317 . S
N203 C199 1.328 . S
N203 C201 1.350 . S
H204 C199 0.930 . S
H205 C200 0.930 . S
C206 O207 1.224 . S
C206 O225 1.247 . S
O207 C206 1.224 . S
N208 Co198 2.128 . S
N208 C209 1.355 . S
N208 C211 1.311 . S
C209 N208 1.355 . S
C209 C210 1.363 . S
C209 H221 0.929 . S
C210 C209 1.363 . S
C210 N212 1.375 . S
C210 H228 0.931 . S
C211 N208 1.311 . S
C211 N212 1.347 . S
C211 H222 0.929 . S
N212 C210 1.375 . S
N212 C211 1.347 . S
C213 C216 1.365 . S
C213 N218 1.328 . S
C213 H219 0.929 . S
C214 C215 1.362 . S
C214 C217 1.378 . S
C214 H229 0.929 . S
C215 C214 1.362 . S
C215 C216 1.366 . S
C216 C213 1.365 . S
C216 C215 1.366 . S
C216 H230 0.930 . S
C217 C214 1.378 . S
C217 N218 1.315 . S
C217 H220 0.930 . S
N218 Co198 2.194 . S
N218 C213 1.328 . S
N218 C217 1.315 . S
H219 C213 0.929 . S
H220 C217 0.930 . S
H221 C209 0.929 . S
H222 C211 0.929 . S
O223 Co198 2.351 . S
O223 C226 1.244 . S
O224 Co198 2.155 . S
O224 C226 1.240 . S
O225 Co198 2.096 . S
O225 C206 1.247 . S
C226 O223 1.244 . S
C226 O224 1.240 . S
H227 C201 0.931 . S
H228 C210 0.931 . S
H229 C214 0.929 . S
H230 C216 0.930 . S
Co231 N235 2.148 . S
Co231 N241 2.128 . S
Co231 N251 2.194 . S
Co231 O256 2.351 1_455 S
Co231 O257 2.155 . S
Co231 O258 2.096 . S
C232 N235 1.301 1_655 S
C232 N236 1.328 . S
C232 H237 0.930 . S
C233 C234 1.333 1_455 S
C233 N235 1.317 . S
C233 H238 0.930 . S
C234 C233 1.333 1_655 S
C234 N236 1.350 . S
C234 H260 0.931 . S
N235 Co231 2.148 . S
N235 C232 1.301 1_455 S
N235 C233 1.317 . S
N236 C232 1.328 . S
N236 C234 1.350 . S
H237 C232 0.930 . S
H238 C233 0.930 . S
C239 O240 1.224 . S
C239 O258 1.247 . S
O240 C239 1.224 . S
N241 Co231 2.128 . S
N241 C242 1.355 . S
N241 C244 1.311 . S
C242 N241 1.355 . S
C242 C243 1.363 . S
C242 H254 0.929 . S
C243 C242 1.363 . S
C243 N245 1.375 . S
C243 H261 0.931 . S
C244 N241 1.311 . S
C244 N245 1.347 . S
C244 H255 0.929 . S
N245 C243 1.375 . S
N245 C244 1.347 . S
C246 C249 1.365 . S
C246 N251 1.328 . S
C246 H252 0.929 1_455 S
C247 C248 1.362 . S
C247 C250 1.378 . S
C247 H262 0.929 . S
C248 C247 1.362 . S
C248 C249 1.366 . S
C249 C246 1.365 . S
C249 C248 1.366 . S
C249 H263 0.930 1_455 S
C250 C247 1.378 . S
C250 N251 1.315 . S
C250 H253 0.930 . S
N251 Co231 2.194 . S
N251 C246 1.328 . S
N251 C250 1.315 . S
H252 C246 0.929 1_655 S
H253 C250 0.930 . S
H254 C242 0.929 . S
H255 C244 0.929 . S
O256 Co231 2.351 1_655 S
O256 C259 1.244 . S
O257 Co231 2.155 . S
O257 C259 1.240 1_455 S
O258 Co231 2.096 . S
O258 C239 1.247 . S
C259 O256 1.244 . S
C259 O257 1.240 1_655 S
H260 C234 0.931 . S
H261 C243 0.931 . S
H262 C247 0.929 . S
H263 C249 0.930 1_655 S
C264 C265 1.391 . S
C264 C266 1.394 . S
C264 H280 0.931 . S
C265 C264 1.391 . S
C265 C269 1.376 . S
C266 C264 1.394 . S
C266 C267 1.369 . S
C266 C270 1.531 . S
C267 C266 1.369 . S
C267 C268 1.410 . S
C267 C275 1.503 . S
C268 C267 1.410 . S
C268 C269 1.392 . S
C268 C271 1.511 . S
C269 C265 1.376 . S
C269 C268 1.392 . S
C269 H281 0.929 . S
C270 C266 1.531 . S
C270 H282 0.960 . S
C270 H283 0.962 . S
C270 H284 0.960 . S
C271 C268 1.511 . S
C271 H285 0.961 . S
C271 H286 0.961 . S
C271 H287 0.961 . S
C272 C273 1.370 . S
C272 C274 1.363 . S
C272 H288 0.931 . S
C273 C272 1.370 . S
C273 C277 1.408 . S
C274 C272 1.363 . S
C274 C275 1.370 . S
C274 C278 1.524 . S
C275 C267 1.503 . S
C275 C274 1.370 . S
C275 C276 1.403 . S
C276 C275 1.403 . S
C276 C277 1.404 . S
C276 C279 1.539 . S
C277 C273 1.408 . S
C277 C276 1.404 . S
C277 H289 0.930 . S
C278 C274 1.524 . S
C278 H290 0.956 . S
C278 H291 0.961 . S
C278 H292 0.961 . S
C279 C276 1.539 . S
C279 H293 0.958 . S
C279 H294 0.961 . S
C279 H295 0.960 . S
H280 C264 0.931 . S
H281 C269 0.929 . S
H282 C270 0.960 . S
H283 C270 0.962 . S
H284 C270 0.960 . S
H285 C271 0.961 . S
H286 C271 0.961 . S
H287 C271 0.961 . S
H288 C272 0.931 . S
H289 C277 0.930 . S
H290 C278 0.956 . S
H291 C278 0.961 . S
H292 C278 0.961 . S
H293 C279 0.958 . S
H294 C279 0.961 . S
H295 C279 0.960 . S
C296 C297 1.391 . S
C296 C298 1.394 . S
C296 H312 0.931 . S
C297 C296 1.391 . S
C297 C301 1.376 . S
C298 C296 1.394 . S
C298 C299 1.369 . S
C298 C302 1.531 . S
C299 C298 1.369 . S
C299 C300 1.410 . S
C299 C307 1.503 . S
C300 C299 1.410 . S
C300 C301 1.392 . S
C300 C303 1.511 . S
C301 C297 1.376 . S
C301 C300 1.392 . S
C301 H313 0.929 . S
C302 C298 1.531 . S
C302 H314 0.960 . S
C302 H315 0.962 . S
C302 H316 0.960 . S
C303 C300 1.511 . S
C303 H317 0.961 . S
C303 H318 0.961 . S
C303 H319 0.961 . S
C304 C305 1.370 . S
C304 C306 1.363 . S
C304 H320 0.931 . S
C305 C304 1.370 . S
C305 C309 1.408 . S
C306 C304 1.363 . S
C306 C307 1.370 . S
C306 C310 1.524 . S
C307 C299 1.503 . S
C307 C306 1.370 . S
C307 C308 1.403 . S
C308 C307 1.403 . S
C308 C309 1.404 . S
C308 C311 1.539 . S
C309 C305 1.408 . S
C309 C308 1.404 . S
C309 H321 0.930 . S
C310 C306 1.524 . S
C310 H322 0.956 . S
C310 H323 0.961 . S
C310 H324 0.961 . S
C311 C308 1.539 . S
C311 H325 0.958 . S
C311 H326 0.961 . S
C311 H327 0.960 . S
H312 C296 0.931 . S
H313 C301 0.929 . S
H314 C302 0.960 . S
H315 C302 0.962 . S
H316 C302 0.960 . S
H317 C303 0.961 . S
H318 C303 0.961 . S
H319 C303 0.961 . S
H320 C304 0.931 . S
H321 C309 0.930 . S
H322 C310 0.956 . S
H323 C310 0.961 . S
H324 C310 0.961 . S
H325 C311 0.958 . S
H326 C311 0.961 . S
H327 C311 0.960 . S
C328 C329 1.391 . S
C328 C330 1.394 . S
C328 H344 0.931 . S
C329 C328 1.391 . S
C329 C333 1.376 . S
C330 C328 1.394 . S
C330 C331 1.369 . S
C330 C334 1.531 . S
C331 C330 1.369 . S
C331 C332 1.410 . S
C331 C339 1.503 . S
C332 C331 1.410 . S
C332 C333 1.392 . S
C332 C335 1.511 . S
C333 C329 1.376 . S
C333 C332 1.392 . S
C333 H345 0.929 . S
C334 C330 1.531 . S
C334 H346 0.960 . S
C334 H347 0.962 . S
C334 H348 0.960 . S
C335 C332 1.511 . S
C335 H349 0.961 . S
C335 H350 0.961 . S
C335 H351 0.961 . S
C336 C337 1.370 . S
C336 C338 1.363 . S
C336 H352 0.931 . S
C337 C336 1.370 . S
C337 C341 1.408 . S
C338 C336 1.363 . S
C338 C339 1.370 . S
C338 C342 1.524 . S
C339 C331 1.503 . S
C339 C338 1.370 . S
C339 C340 1.403 . S
C340 C339 1.403 . S
C340 C341 1.404 . S
C340 C343 1.539 . S
C341 C337 1.408 . S
C341 C340 1.404 . S
C341 H353 0.930 . S
C342 C338 1.524 . S
C342 H354 0.956 . S
C342 H355 0.961 . S
C342 H356 0.961 . S
C343 C340 1.539 . S
C343 H357 0.958 . S
C343 H358 0.961 . S
C343 H359 0.960 . S
H344 C328 0.931 . S
H345 C333 0.929 . S
H346 C334 0.960 . S
H347 C334 0.962 . S
H348 C334 0.960 . S
H349 C335 0.961 . S
H350 C335 0.961 . S
H351 C335 0.961 . S
H352 C336 0.931 . S
H353 C341 0.930 . S
H354 C342 0.956 . S
H355 C342 0.961 . S
H356 C342 0.961 . S
H357 C343 0.958 . S
H358 C343 0.961 . S
H359 C343 0.960 . S
C360 C361 1.391 . S
C360 C362 1.394 . S
C360 H376 0.931 . S
C361 C360 1.391 . S
C361 C365 1.376 . S
C362 C360 1.394 . S
C362 C363 1.369 . S
C362 C366 1.531 . S
C363 C362 1.369 . S
C363 C364 1.410 . S
C363 C371 1.503 . S
C364 C363 1.410 . S
C364 C365 1.392 . S
C364 C367 1.511 . S
C365 C361 1.376 . S
C365 C364 1.392 . S
C365 H377 0.929 . S
C366 C362 1.531 . S
C366 H378 0.960 . S
C366 H379 0.962 . S
C366 H380 0.960 . S
C367 C364 1.511 . S
C367 H381 0.961 . S
C367 H382 0.961 . S
C367 H383 0.961 . S
C368 C369 1.370 . S
C368 C370 1.363 . S
C368 H384 0.931 . S
C369 C368 1.370 . S
C369 C373 1.408 . S
C370 C368 1.363 . S
C370 C371 1.370 . S
C370 C374 1.524 . S
C371 C363 1.503 . S
C371 C370 1.370 . S
C371 C372 1.403 . S
C372 C371 1.403 . S
C372 C373 1.404 . S
C372 C375 1.539 . S
C373 C369 1.408 . S
C373 C372 1.404 . S
C373 H385 0.930 . S
C374 C370 1.524 . S
C374 H386 0.956 . S
C374 H387 0.961 . S
C374 H388 0.961 . S
C375 C372 1.539 . S
C375 H389 0.958 . S
C375 H390 0.961 . S
C375 H391 0.960 . S
H376 C360 0.931 . S
H377 C365 0.929 . S
H378 C366 0.960 . S
H379 C366 0.962 . S
H380 C366 0.960 . S
H381 C367 0.961 . S
H382 C367 0.961 . S
H383 C367 0.961 . S
H384 C368 0.931 . S
H385 C373 0.930 . S
H386 C374 0.956 . S
H387 C374 0.961 . S
H388 C374 0.961 . S
H389 C375 0.958 . S
H390 C375 0.961 . S
H391 C375 0.960 . S
C392 C393 1.391 . S
C392 C394 1.394 . S
C392 H408 0.931 . S
C393 C392 1.391 . S
C393 C397 1.376 . S
C394 C392 1.394 . S
C394 C395 1.369 . S
C394 C398 1.531 . S
C395 C394 1.369 . S
C395 C396 1.410 . S
C395 C403 1.503 . S
C396 C395 1.410 . S
C396 C397 1.392 . S
C396 C399 1.511 . S
C397 C393 1.376 . S
C397 C396 1.392 . S
C397 H409 0.929 . S
C398 C394 1.531 . S
C398 H410 0.960 . S
C398 H411 0.962 . S
C398 H412 0.960 . S
C399 C396 1.511 . S
C399 H413 0.961 . S
C399 H414 0.961 . S
C399 H415 0.961 . S
C400 C401 1.370 . S
C400 C402 1.363 . S
C400 H416 0.931 . S
C401 C400 1.370 . S
C401 C405 1.408 . S
C402 C400 1.363 . S
C402 C403 1.370 . S
C402 C406 1.524 . S
C403 C395 1.503 . S
C403 C402 1.370 . S
C403 C404 1.403 . S
C404 C403 1.403 . S
C404 C405 1.404 . S
C404 C407 1.539 . S
C405 C401 1.408 . S
C405 C404 1.404 . S
C405 H417 0.930 . S
C406 C402 1.524 . S
C406 H418 0.956 . S
C406 H419 0.961 . S
C406 H420 0.961 . S
C407 C404 1.539 . S
C407 H421 0.958 . S
C407 H422 0.961 . S
C407 H423 0.960 . S
H408 C392 0.931 . S
H409 C397 0.929 . S
H410 C398 0.960 . S
H411 C398 0.962 . S
H412 C398 0.960 . S
H413 C399 0.961 . S
H414 C399 0.961 . S
H415 C399 0.961 . S
H416 C400 0.931 . S
H417 C405 0.930 . S
H418 C406 0.956 . S
H419 C406 0.961 . S
H420 C406 0.961 . S
H421 C407 0.958 . S
H422 C407 0.961 . S
H423 C407 0.960 . S
C424 C425 1.391 . S
C424 C426 1.394 . S
C424 H440 0.931 . S
C425 C424 1.391 . S
C425 C429 1.376 . S
C426 C424 1.394 . S
C426 C427 1.369 . S
C426 C430 1.531 . S
C427 C426 1.369 . S
C427 C428 1.410 . S
C427 C435 1.503 . S
C428 C427 1.410 . S
C428 C429 1.392 . S
C428 C431 1.511 . S
C429 C425 1.376 . S
C429 C428 1.392 . S
C429 H441 0.929 . S
C430 C426 1.531 . S
C430 H442 0.960 . S
C430 H443 0.962 . S
C430 H444 0.960 . S
C431 C428 1.511 . S
C431 H445 0.961 . S
C431 H446 0.961 . S
C431 H447 0.961 . S
C432 C433 1.370 . S
C432 C434 1.363 . S
C432 H448 0.931 1_655 S
C433 C432 1.370 . S
C433 C437 1.408 . S
C434 C432 1.363 . S
C434 C435 1.370 . S
C434 C438 1.524 . S
C435 C427 1.503 . S
C435 C434 1.370 . S
C435 C436 1.403 . S
C436 C435 1.403 . S
C436 C437 1.404 . S
C436 C439 1.539 . S
C437 C433 1.408 . S
C437 C436 1.404 . S
C437 H449 0.930 . S
C438 C434 1.524 . S
C438 H450 0.956 . S
C438 H451 0.961 . S
C438 H452 0.961 . S
C439 C436 1.539 . S
C439 H453 0.958 . S
C439 H454 0.961 . S
C439 H455 0.960 . S
H440 C424 0.931 . S
H441 C429 0.929 . S
H442 C430 0.960 . S
H443 C430 0.962 . S
H444 C430 0.960 . S
H445 C431 0.961 . S
H446 C431 0.961 . S
H447 C431 0.961 . S
H448 C432 0.931 1_455 S
H449 C437 0.930 . S
H450 C438 0.956 . S
H451 C438 0.961 . S
H452 C438 0.961 . S
H453 C439 0.958 . S
H454 C439 0.961 . S
H455 C439 0.960 . S
C456 C457 1.391 . S
C456 C458 1.394 . S
C456 H472 0.931 . S
C457 C456 1.391 . S
C457 C461 1.376 . S
C458 C456 1.394 . S
C458 C459 1.369 . S
C458 C462 1.531 . S
C459 C458 1.369 . S
C459 C460 1.410 . S
C459 C467 1.503 . S
C460 C459 1.410 . S
C460 C461 1.392 . S
C460 C463 1.511 . S
C461 C457 1.376 . S
C461 C460 1.392 . S
C461 H473 0.929 . S
C462 C458 1.531 . S
C462 H474 0.960 . S
C462 H475 0.962 . S
C462 H476 0.960 . S
C463 C460 1.511 . S
C463 H477 0.961 . S
C463 H478 0.961 . S
C463 H479 0.961 . S
C464 C465 1.370 . S
C464 C466 1.363 . S
C464 H480 0.931 . S
C465 C464 1.370 . S
C465 C469 1.408 . S
C466 C464 1.363 . S
C466 C467 1.370 . S
C466 C470 1.524 . S
C467 C459 1.503 . S
C467 C466 1.370 . S
C467 C468 1.403 . S
C468 C467 1.403 . S
C468 C469 1.404 . S
C468 C471 1.539 . S
C469 C465 1.408 . S
C469 C468 1.404 . S
C469 H481 0.930 . S
C470 C466 1.524 . S
C470 H482 0.956 . S
C470 H483 0.961 . S
C470 H484 0.961 . S
C471 C468 1.539 . S
C471 H485 0.958 . S
C471 H486 0.961 . S
C471 H487 0.960 . S
H472 C456 0.931 . S
H473 C461 0.929 . S
H474 C462 0.960 . S
H475 C462 0.962 . S
H476 C462 0.960 . S
H477 C463 0.961 . S
H478 C463 0.961 . S
H479 C463 0.961 . S
H480 C464 0.931 . S
H481 C469 0.930 . S
H482 C470 0.956 . S
H483 C470 0.961 . S
H484 C470 0.961 . S
H485 C471 0.958 . S
H486 C471 0.961 . S
H487 C471 0.960 . S
C488 C489 1.391 . S
C488 C490 1.394 . S
C488 H504 0.931 . S
C489 C488 1.391 . S
C489 C493 1.376 . S
C490 C488 1.394 . S
C490 C491 1.369 . S
C490 C494 1.531 . S
C491 C490 1.369 . S
C491 C492 1.410 . S
C491 C499 1.503 . S
C492 C491 1.410 . S
C492 C493 1.392 . S
C492 C495 1.511 . S
C493 C489 1.376 . S
C493 C492 1.392 . S
C493 H505 0.929 . S
C494 C490 1.531 . S
C494 H506 0.960 . S
C494 H507 0.962 . S
C494 H508 0.960 . S
C495 C492 1.511 . S
C495 H509 0.961 . S
C495 H510 0.961 . S
C495 H511 0.961 . S
C496 C497 1.370 . S
C496 C498 1.363 . S
C496 H512 0.931 . S
C497 C496 1.370 . S
C497 C501 1.408 . S
C498 C496 1.363 . S
C498 C499 1.370 . S
C498 C502 1.524 . S
C499 C491 1.503 . S
C499 C498 1.370 . S
C499 C500 1.403 . S
C500 C499 1.403 . S
C500 C501 1.404 . S
C500 C503 1.539 . S
C501 C497 1.408 . S
C501 C500 1.404 . S
C501 H513 0.930 . S
C502 C498 1.524 . S
C502 H514 0.956 . S
C502 H515 0.961 . S
C502 H516 0.961 . S
C503 C500 1.539 . S
C503 H517 0.958 . S
C503 H518 0.961 . S
C503 H519 0.960 . S
H504 C488 0.931 . S
H505 C493 0.929 . S
H506 C494 0.960 . S
H507 C494 0.962 . S
H508 C494 0.960 . S
H509 C495 0.961 . S
H510 C495 0.961 . S
H511 C495 0.961 . S
H512 C496 0.931 . S
H513 C501 0.930 . S
H514 C502 0.956 . S
H515 C502 0.961 . S
H516 C502 0.961 . S
H517 C503 0.958 . S
H518 C503 0.961 . S
H519 C503 0.960 . S
C520 C521 1.391 . S
C520 C522 1.394 . S
C520 H536 0.931 . S
C521 C520 1.391 . S
C521 C525 1.376 . S
C522 C520 1.394 . S
C522 C523 1.369 . S
C522 C526 1.531 . S
C523 C522 1.369 . S
C523 C524 1.410 . S
C523 C531 1.503 . S
C524 C523 1.410 . S
C524 C525 1.392 . S
C524 C527 1.511 . S
C525 C521 1.376 . S
C525 C524 1.392 . S
C525 H537 0.929 . S
C526 C522 1.531 . S
C526 H538 0.960 . S
C526 H539 0.962 . S
C526 H540 0.960 . S
C527 C524 1.511 . S
C527 H541 0.961 . S
C527 H542 0.961 . S
C527 H543 0.961 . S
C528 C529 1.370 . S
C528 C530 1.363 . S
C528 H544 0.931 . S
C529 C528 1.370 . S
C529 C533 1.408 . S
C530 C528 1.363 . S
C530 C531 1.370 . S
C530 C534 1.524 . S
C531 C523 1.503 . S
C531 C530 1.370 . S
C531 C532 1.403 . S
C532 C531 1.403 . S
C532 C533 1.404 . S
C532 C535 1.539 . S
C533 C529 1.408 . S
C533 C532 1.404 . S
C533 H545 0.930 . S
C534 C530 1.524 . S
C534 H546 0.956 . S
C534 H547 0.961 . S
C534 H548 0.961 . S
C535 C532 1.539 . S
C535 H549 0.958 . S
C535 H550 0.961 . S
C535 H551 0.960 . S
H536 C520 0.931 . S
H537 C525 0.929 . S
H538 C526 0.960 . S
H539 C526 0.962 . S
H540 C526 0.960 . S
H541 C527 0.961 . S
H542 C527 0.961 . S
H543 C527 0.961 . S
H544 C528 0.931 . S
H545 C533 0.930 . S
H546 C534 0.956 . S
H547 C534 0.961 . S
H548 C534 0.961 . S
H549 C535 0.958 . S
H550 C535 0.961 . S
H551 C535 0.960 . S
C552 C553 1.391 1_554 S
C552 C554 1.394 . S
C552 H568 0.931 . S
C553 C552 1.391 1_556 S
C553 C557 1.376 . S
C554 C552 1.394 . S
C554 C555 1.369 1_554 S
C554 C558 1.531 . S
C555 C554 1.369 1_556 S
C555 C556 1.410 . S
C555 C563 1.503 1_556 S
C556 C555 1.410 . S
C556 C557 1.392 . S
C556 C559 1.511 . S
C557 C553 1.376 . S
C557 C556 1.392 . S
C557 H569 0.929 . S
C558 C554 1.531 . S
C558 H570 0.960 . S
C558 H571 0.962 . S
C558 H572 0.960 . S
C559 C556 1.511 . S
C559 H573 0.961 . S
C559 H574 0.961 . S
C559 H575 0.961 . S
C560 C561 1.370 . S
C560 C562 1.363 . S
C560 H576 0.931 . S
C561 C560 1.370 . S
C561 C565 1.408 . S
C562 C560 1.363 . S
C562 C563 1.370 . S
C562 C566 1.524 1_554 S
C563 C555 1.503 1_554 S
C563 C562 1.370 . S
C563 C564 1.403 . S
C564 C563 1.403 . S
C564 C565 1.404 . S
C564 C567 1.539 . S
C565 C561 1.408 . S
C565 C564 1.404 . S
C565 H577 0.930 . S
C566 C562 1.524 1_556 S
C566 H578 0.956 1_556 S
C566 H579 0.961 . S
C566 H580 0.961 . S
C567 C564 1.539 . S
C567 H581 0.958 . S
C567 H582 0.961 . S
C567 H583 0.960 1_554 S
H568 C552 0.931 . S
H569 C557 0.929 . S
H570 C558 0.960 . S
H571 C558 0.962 . S
H572 C558 0.960 . S
H573 C559 0.961 . S
H574 C559 0.961 . S
H575 C559 0.961 . S
H576 C560 0.931 . S
H577 C565 0.930 . S
H578 C566 0.956 1_554 S
H579 C566 0.961 . S
H580 C566 0.961 . S
H581 C567 0.958 . S
H582 C567 0.961 . S
H583 C567 0.960 1_556 S
C584 C585 1.391 . S
C584 C586 1.394 . S
C584 H600 0.931 . S
C585 C584 1.391 . S
C585 C589 1.376 . S
C586 C584 1.394 . S
C586 C587 1.369 . S
C586 C590 1.531 . S
C587 C586 1.369 . S
C587 C588 1.410 . S
C587 C595 1.503 1_545 S
C588 C587 1.410 . S
C588 C589 1.392 . S
C588 C591 1.511 . S
C589 C585 1.376 . S
C589 C588 1.392 . S
C589 H601 0.929 . S
C590 C586 1.531 . S
C590 H602 0.960 1_545 S
C590 H603 0.962 . S
C590 H604 0.960 . S
C591 C588 1.511 . S
C591 H605 0.961 . S
C591 H606 0.961 . S
C591 H607 0.961 . S
C592 C593 1.370 . S
C592 C594 1.363 . S
C592 H608 0.931 . S
C593 C592 1.370 . S
C593 C597 1.408 . S
C594 C592 1.363 . S
C594 C595 1.370 . S
C594 C598 1.524 1_565 S
C595 C587 1.503 1_565 S
C595 C594 1.370 . S
C595 C596 1.403 . S
C596 C595 1.403 . S
C596 C597 1.404 . S
C596 C599 1.539 . S
C597 C593 1.408 . S
C597 C596 1.404 . S
C597 H609 0.930 . S
C598 C594 1.524 1_545 S
C598 H610 0.956 . S
C598 H611 0.961 . S
C598 H612 0.961 1_545 S
C599 C596 1.539 . S
C599 H613 0.958 . S
C599 H614 0.961 . S
C599 H615 0.960 . S
H600 C584 0.931 . S
H601 C589 0.929 . S
H602 C590 0.960 1_565 S
H603 C590 0.962 . S
H604 C590 0.960 . S
H605 C591 0.961 . S
H606 C591 0.961 . S
H607 C591 0.961 . S
H608 C592 0.931 . S
H609 C597 0.930 . S
H610 C598 0.956 . S
H611 C598 0.961 . S
H612 C598 0.961 1_565 S
H613 C599 0.958 . S
H614 C599 0.961 . S
H615 C599 0.960 . S
C616 C617 1.391 . S
C616 C618 1.394 . S
C616 H632 0.931 . S
C617 C616 1.391 . S
C617 C621 1.376 . S
C618 C616 1.394 . S
C618 C619 1.369 . S
C618 C622 1.531 1_565 S
C619 C618 1.369 . S
C619 C620 1.410 1_554 S
C619 C627 1.503 1_564 S
C620 C619 1.410 1_556 S
C620 C621 1.392 1_556 S
C620 C623 1.511 . S
C621 C617 1.376 . S
C621 C620 1.392 1_554 S
C621 H633 0.929 1_554 S
C622 C618 1.531 1_545 S
C622 H634 0.960 . S
C622 H635 0.962 1_455 S
C622 H636 0.960 1_545 S
C623 C620 1.511 . S
C623 H637 0.961 . S
C623 H638 0.961 . S
C623 H639 0.961 . S
C624 C625 1.370 . S
C624 C626 1.363 . S
C624 H640 0.929 1_455 S
C625 C624 1.370 . S
C625 C629 1.408 . S
C626 C624 1.363 . S
C626 C627 1.370 . S
C626 C630 1.524 1_455 S
C627 C619 1.503 1_546 S
C627 C626 1.370 . S
C627 C628 1.403 1_556 S
C628 C627 1.403 1_554 S
C628 C629 1.404 1_554 S
C628 C631 1.539 . S
C629 C625 1.408 . S
C629 C628 1.404 1_556 S
C629 H641 0.930 . S
C630 C626 1.524 1_655 S
C630 H642 0.956 1_545 S
C630 H643 0.961 1_645 S
C630 H644 0.961 . S
C631 C628 1.539 . S
C631 H645 0.958 . S
C631 H646 0.961 . S
C631 H647 0.960 . S
H632 C616 0.931 . S
H633 C621 0.929 1_556 S
H634 C622 0.960 . S
H635 C622 0.962 1_655 S
H636 C622 0.960 1_565 S
H637 C623 0.961 . S
H638 C623 0.961 . S
H639 C623 0.961 . S
H640 C624 0.929 1_655 S
H641 C629 0.930 . S
H642 C630 0.956 1_565 S
H643 C630 0.961 1_465 S
H644 C630 0.961 . S
H645 C631 0.958 . S
H646 C631 0.961 . S
H647 C631 0.960 . S
C648 C649 1.391 . S
C648 C650 1.394 . S
C648 H664 0.931 . S
C649 C648 1.391 . S
C649 C653 1.376 . S
C650 C648 1.394 . S
C650 C651 1.369 . S
C650 C654 1.531 . S
C651 C650 1.369 . S
C651 C652 1.410 . S
C651 C659 1.503 . S
C652 C651 1.410 . S
C652 C653 1.392 . S
C652 C655 1.511 . S
C653 C649 1.376 . S
C653 C652 1.392 . S
C653 H665 0.929 . S
C654 C650 1.531 . S
C654 H666 0.960 . S
C654 H667 0.962 . S
C654 H668 0.960 . S
C655 C652 1.511 . S
C655 H669 0.961 . S
C655 H670 0.961 . S
C655 H671 0.961 . S
C656 C657 1.370 . S
C656 C658 1.363 . S
C656 H672 0.931 . S
C657 C656 1.370 . S
C657 C661 1.408 . S
C658 C656 1.363 . S
C658 C659 1.370 . S
C658 C662 1.524 . S
C659 C651 1.503 . S
C659 C658 1.370 . S
C659 C660 1.403 . S
C660 C659 1.403 . S
C660 C661 1.404 . S
C660 C663 1.539 . S
C661 C657 1.408 . S
C661 C660 1.404 . S
C661 H673 0.930 . S
C662 C658 1.524 . S
C662 H674 0.956 . S
C662 H675 0.961 . S
C662 H676 0.961 . S
C663 C660 1.539 . S
C663 H677 0.958 . S
C663 H678 0.961 . S
C663 H679 0.960 . S
H664 C648 0.931 . S
H665 C653 0.929 . S
H666 C654 0.960 . S
H667 C654 0.962 . S
H668 C654 0.960 . S
H669 C655 0.961 . S
H670 C655 0.961 . S
H671 C655 0.961 . S
H672 C656 0.931 . S
H673 C661 0.930 . S
H674 C662 0.956 . S
H675 C662 0.961 . S
H676 C662 0.961 . S
H677 C663 0.958 . S
H678 C663 0.961 . S
H679 C663 0.960 . S
C680 C681 1.391 . S
C680 C682 1.394 . S
C680 H696 0.931 . S
C681 C680 1.391 . S
C681 C685 1.376 . S
C682 C680 1.394 . S
C682 C683 1.370 . S
C682 C686 1.531 . S
C683 C682 1.370 . S
C683 C684 1.409 1_556 S
C683 C691 1.502 1_556 S
C684 C683 1.409 1_554 S
C684 C685 1.392 1_554 S
C684 C687 1.511 . S
C685 C681 1.376 . S
C685 C684 1.392 1_556 S
C685 H697 0.929 . S
C686 C682 1.531 . S
C686 H698 0.960 . S
C686 H699 0.962 . S
C686 H700 0.960 . S
C687 C684 1.511 . S
C687 H701 0.961 . S
C687 H702 0.961 . S
C687 H703 0.961 . S
C688 C689 1.370 . S
C688 C690 1.363 . S
C688 H704 0.931 . S
C689 C688 1.370 . S
C689 C693 1.408 . S
C690 C688 1.363 . S
C690 C691 1.370 . S
C690 C694 1.524 . S
C691 C683 1.502 1_554 S
C691 C690 1.370 . S
C691 C692 1.403 . S
C692 C691 1.403 . S
C692 C693 1.404 . S
C692 C695 1.539 1_554 S
C693 C689 1.408 . S
C693 C692 1.404 . S
C693 H705 0.930 . S
C694 C690 1.524 . S
C694 H706 0.956 . S
C694 H707 0.961 . S
C694 H708 0.961 . S
C695 C692 1.539 1_556 S
C695 H709 0.958 . S
C695 H710 0.961 . S
C695 H711 0.960 . S
H696 C680 0.931 . S
H697 C685 0.929 . S
H698 C686 0.960 . S
H699 C686 0.962 . S
H700 C686 0.960 . S
H701 C687 0.961 . S
H702 C687 0.961 . S
H703 C687 0.961 . S
H704 C688 0.931 . S
H705 C693 0.930 . S
H706 C694 0.956 . S
H707 C694 0.961 . S
H708 C694 0.961 . S
H709 C695 0.958 . S
H710 C695 0.961 . S
H711 C695 0.960 . S
C712 C713 1.391 . S
C712 C714 1.394 . S
C712 H728 0.931 . S
C713 C712 1.391 . S
C713 C717 1.376 . S
C714 C712 1.394 . S
C714 C715 1.369 . S
C714 C718 1.531 . S
C715 C714 1.369 . S
C715 C716 1.410 . S
C715 C723 1.503 . S
C716 C715 1.410 . S
C716 C717 1.392 . S
C716 C719 1.511 . S
C717 C713 1.376 . S
C717 C716 1.392 . S
C717 H729 0.929 . S
C718 C714 1.531 . S
C718 H730 0.960 . S
C718 H731 0.962 . S
C718 H732 0.960 . S
C719 C716 1.511 . S
C719 H733 0.961 . S
C719 H734 0.961 . S
C719 H735 0.961 . S
C720 C721 1.370 . S
C720 C722 1.363 . S
C720 H736 0.931 . S
C721 C720 1.370 . S
C721 C725 1.408 . S
C722 C720 1.363 . S
C722 C723 1.370 . S
C722 C726 1.524 . S
C723 C715 1.503 . S
C723 C722 1.370 . S
C723 C724 1.403 . S
C724 C723 1.403 . S
C724 C725 1.404 . S
C724 C727 1.539 . S
C725 C721 1.408 . S
C725 C724 1.404 . S
C725 H737 0.930 . S
C726 C722 1.524 . S
C726 H738 0.956 . S
C726 H739 0.961 . S
C726 H740 0.961 . S
C727 C724 1.539 . S
C727 H741 0.958 . S
C727 H742 0.961 . S
C727 H743 0.960 . S
H728 C712 0.931 . S
H729 C717 0.929 . S
H730 C718 0.960 . S
H731 C718 0.962 . S
H732 C718 0.960 . S
H733 C719 0.961 . S
H734 C719 0.961 . S
H735 C719 0.961 . S
H736 C720 0.931 . S
H737 C725 0.930 . S
H738 C726 0.956 . S
H739 C726 0.961 . S
H740 C726 0.961 . S
H741 C727 0.958 . S
H742 C727 0.961 . S
H743 C727 0.960 . S
C744 C745 1.391 . S
C744 C746 1.394 . S
C744 H760 0.931 . S
C745 C744 1.391 . S
C745 C749 1.376 . S
C746 C744 1.394 . S
C746 C747 1.369 . S
C746 C750 1.531 . S
C747 C746 1.369 . S
C747 C748 1.410 . S
C747 C755 1.503 . S
C748 C747 1.410 . S
C748 C749 1.392 . S
C748 C751 1.511 . S
C749 C745 1.376 . S
C749 C748 1.392 . S
C749 H761 0.929 . S
C750 C746 1.531 . S
C750 H762 0.960 . S
C750 H763 0.962 . S
C750 H764 0.960 . S
C751 C748 1.511 . S
C751 H765 0.961 . S
C751 H766 0.961 . S
C751 H767 0.961 . S
C752 C753 1.370 . S
C752 C754 1.363 . S
C752 H768 0.931 . S
C753 C752 1.370 . S
C753 C757 1.408 1_554 S
C754 C752 1.363 . S
C754 C755 1.370 1_554 S
C754 C758 1.524 . S
C755 C747 1.503 . S
C755 C754 1.370 1_556 S
C755 C756 1.403 . S
C756 C755 1.403 . S
C756 C757 1.404 . S
C756 C759 1.539 . S
C757 C753 1.408 1_556 S
C757 C756 1.404 . S
C757 H769 0.930 . S
C758 C754 1.524 . S
C758 H770 0.956 . S
C758 H771 0.961 . S
C758 H772 0.961 . S
C759 C756 1.539 . S
C759 H773 0.958 . S
C759 H774 0.961 . S
C759 H775 0.960 . S
H760 C744 0.931 . S
H761 C749 0.929 . S
H762 C750 0.960 . S
H763 C750 0.962 . S
H764 C750 0.960 . S
H765 C751 0.961 . S
H766 C751 0.961 . S
H767 C751 0.961 . S
H768 C752 0.931 . S
H769 C757 0.930 . S
H770 C758 0.956 . S
H771 C758 0.961 . S
H772 C758 0.961 . S
H773 C759 0.958 . S
H774 C759 0.961 . S
H775 C759 0.960 . S
C776 C777 1.391 . S
C776 C778 1.394 1_455 S
C776 H792 0.931 . S
C777 C776 1.391 . S
C777 C781 1.376 . S
C778 C776 1.394 1_655 S
C778 C779 1.369 . S
C778 C782 1.531 . S
C779 C778 1.369 . S
C779 C780 1.410 . S
C779 C787 1.503 . S
C780 C779 1.410 . S
C780 C781 1.392 1_655 S
C780 C783 1.511 . S
C781 C777 1.376 . S
C781 C780 1.392 1_455 S
C781 H793 0.929 . S
C782 C778 1.531 . S
C782 H794 0.960 . S
C782 H795 0.962 . S
C782 H796 0.960 1_655 S
C783 C780 1.511 . S
C783 H797 0.961 . S
C783 H798 0.961 . S
C783 H799 0.961 . S
C784 C785 1.370 . S
C784 C786 1.363 . S
C784 H800 0.931 . S
C785 C784 1.370 . S
C785 C789 1.408 . S
C786 C784 1.363 . S
C786 C787 1.370 . S
C786 C790 1.524 . S
C787 C779 1.503 . S
C787 C786 1.370 . S
C787 C788 1.403 . S
C788 C787 1.403 . S
C788 C789 1.404 . S
C788 C791 1.539 . S
C789 C785 1.408 . S
C789 C788 1.404 . S
C789 H801 0.930 . S
C790 C786 1.524 . S
C790 H802 0.956 . S
C790 H803 0.961 . S
C790 H804 0.961 . S
C791 C788 1.539 . S
C791 H805 0.958 1_655 S
C791 H806 0.961 . S
C791 H807 0.960 1_655 S
H792 C776 0.931 . S
H793 C781 0.929 . S
H794 C782 0.960 . S
H795 C782 0.962 . S
H796 C782 0.960 1_455 S
H797 C783 0.961 . S
H798 C783 0.961 . S
H799 C783 0.961 . S
H800 C784 0.931 . S
H801 C789 0.930 . S
H802 C790 0.956 . S
H803 C790 0.961 . S
H804 C790 0.961 . S
H805 C791 0.958 1_455 S
H806 C791 0.961 . S
H807 C791 0.960 1_455 S
C808 C809 1.391 . S
C808 C810 1.394 . S
C808 H824 0.931 . S
C809 C808 1.391 . S
C809 C813 1.376 . S
C810 C808 1.394 . S
C810 C811 1.369 . S
C810 C814 1.531 . S
C811 C810 1.369 . S
C811 C812 1.410 . S
C811 C819 1.503 . S
C812 C811 1.410 . S
C812 C813 1.392 . S
C812 C815 1.511 1_554 S
C813 C809 1.376 . S
C813 C812 1.392 . S
C813 H825 0.929 . S
C814 C810 1.531 . S
C814 H826 0.960 . S
C814 H827 0.962 . S
C814 H828 0.960 . S
C815 C812 1.511 1_556 S
C815 H829 0.961 . S
C815 H830 0.961 . S
C815 H831 0.961 . S
C816 C817 1.370 . S
C816 C818 1.363 . S
C816 H832 0.931 . S
C817 C816 1.370 . S
C817 C821 1.408 . S
C818 C816 1.363 . S
C818 C819 1.370 1_556 S
C818 C822 1.524 . S
C819 C811 1.503 . S
C819 C818 1.370 1_554 S
C819 C820 1.403 . S
C820 C819 1.403 . S
C820 C821 1.404 1_554 S
C820 C823 1.539 . S
C821 C817 1.408 . S
C821 C820 1.404 1_556 S
C821 H833 0.930 . S
C822 C818 1.524 . S
C822 H834 0.956 1_556 S
C822 H835 0.961 . S
C822 H836 0.961 . S
C823 C820 1.539 . S
C823 H837 0.958 . S
C823 H838 0.961 . S
C823 H839 0.960 . S
H824 C808 0.931 . S
H825 C813 0.929 . S
H826 C814 0.960 . S
H827 C814 0.962 . S
H828 C814 0.960 . S
H829 C815 0.961 . S
H830 C815 0.961 . S
H831 C815 0.961 . S
H832 C816 0.931 . S
H833 C821 0.930 . S
H834 C822 0.956 1_554 S
H835 C822 0.961 . S
H836 C822 0.961 . S
H837 C823 0.958 . S
H838 C823 0.961 . S
H839 C823 0.960 . S
C840 C841 1.391 . S
C840 C842 1.394 1_455 S
C840 H856 0.931 . S
C841 C840 1.391 . S
C841 C845 1.376 . S
C842 C840 1.394 1_655 S
C842 C843 1.369 . S
C842 C846 1.531 . S
C843 C842 1.369 . S
C843 C844 1.410 1_655 S
C843 C851 1.503 . S
C844 C843 1.410 1_455 S
C844 C845 1.392 . S
C844 C847 1.511 . S
C845 C841 1.376 . S
C845 C844 1.392 . S
C845 H857 0.929 . S
C846 C842 1.531 . S
C846 H858 0.960 . S
C846 H859 0.962 . S
C846 H860 0.960 . S
C847 C844 1.511 . S
C847 H861 0.961 . S
C847 H862 0.961 1_455 S
C847 H863 0.961 . S
C848 C849 1.370 . S
C848 C850 1.363 . S
C848 H864 0.931 . S
C849 C848 1.370 . S
C849 C853 1.408 . S
C850 C848 1.363 . S
C850 C851 1.370 . S
C850 C854 1.524 . S
C851 C843 1.503 . S
C851 C850 1.370 . S
C851 C852 1.403 . S
C852 C851 1.403 . S
C852 C853 1.404 . S
C852 C855 1.539 . S
C853 C849 1.408 . S
C853 C852 1.404 . S
C853 H865 0.930 . S
C854 C850 1.524 . S
C854 H866 0.956 . S
C854 H867 0.961 . S
C854 H868 0.961 . S
C855 C852 1.539 . S
C855 H869 0.958 . S
C855 H870 0.961 . S
C855 H871 0.960 1_655 S
H856 C840 0.931 . S
H857 C845 0.929 . S
H858 C846 0.960 . S
H859 C846 0.962 . S
H860 C846 0.960 . S
H861 C847 0.961 . S
H862 C847 0.961 1_655 S
H863 C847 0.961 . S
H864 C848 0.931 . S
H865 C853 0.930 . S
H866 C854 0.956 . S
H867 C854 0.961 . S
H868 C854 0.961 . S
H869 C855 0.958 . S
H870 C855 0.961 . S
H871 C855 0.960 1_455 S
C872 C873 1.391 . S
C872 C874 1.394 . S
C872 H888 0.931 . S
C873 C872 1.391 . S
C873 C877 1.376 . S
C874 C872 1.394 . S
C874 C875 1.369 . S
C874 C878 1.531 . S
C875 C874 1.369 . S
C875 C876 1.410 . S
C875 C883 1.503 . S
C876 C875 1.410 . S
C876 C877 1.392 . S
C876 C879 1.511 . S
C877 C873 1.376 . S
C877 C876 1.392 . S
C877 H889 0.929 . S
C878 C874 1.531 . S
C878 H890 0.960 . S
C878 H891 0.962 1_556 S
C878 H892 0.960 . S
C879 C876 1.511 . S
C879 H893 0.961 . S
C879 H894 0.961 . S
C879 H895 0.961 . S
C880 C881 1.370 . S
C880 C882 1.363 . S
C880 H896 0.931 . S
C881 C880 1.370 . S
C881 C885 1.408 1_554 S
C882 C880 1.363 . S
C882 C883 1.370 1_554 S
C882 C886 1.524 . S
C883 C875 1.503 . S
C883 C882 1.370 1_556 S
C883 C884 1.403 . S
C884 C883 1.403 . S
C884 C885 1.404 . S
C884 C887 1.539 . S
C885 C881 1.408 1_556 S
C885 C884 1.404 . S
C885 H897 0.930 . S
C886 C882 1.524 . S
C886 H898 0.956 . S
C886 H899 0.961 . S
C886 H900 0.961 . S
C887 C884 1.539 . S
C887 H901 0.958 . S
C887 H902 0.961 . S
C887 H903 0.960 . S
H888 C872 0.931 . S
H889 C877 0.929 . S
H890 C878 0.960 . S
H891 C878 0.962 1_554 S
H892 C878 0.960 . S
H893 C879 0.961 . S
H894 C879 0.961 . S
H895 C879 0.961 . S
H896 C880 0.931 . S
H897 C885 0.930 . S
H898 C886 0.956 . S
H899 C886 0.961 . S
H900 C886 0.961 . S
H901 C887 0.958 . S
H902 C887 0.961 . S
H903 C887 0.960 . S
C265 C28 1.197 . S
C273 C127 1.206 . S
C297 C41 1.173 . S
C305 C94 1.199 . S
C329 N80 1.699 1_655 S
C337 N38 1.639 . S
C361 N113 1.747 . S
C369 N14 1.754 1_655 S
C393 C160 1.195 . S
C401 C259 1.205 . S
C425 C226 1.197 . S
C433 C173 1.191 . S
C457 N170 1.618 . S
C465 N212 1.690 . S
C489 N245 1.743 . S
C497 N146 1.756 . S
C521 C83 1.538 . S
C529 C17 1.542 . S
C553 C50 1.467 . S
C561 C116 1.465 . S
C585 C215 1.536 . S
C593 C149 1.542 . S
C617 C248 1.465 . S
C625 C182 1.462 . S
C649 N5 1.394 . S
C657 C206 1.479 . S
C681 N47 1.485 . S
C689 C239 1.489 . S
C713 N71 1.387 . S
C721 C140 1.459 . S
C745 C193 1.464 . S
C753 N104 1.396 . S
C777 C74 1.479 . S
C785 N137 1.425 . S
C809 C107 1.499 . S
C817 N179 1.471 . S
C841 C8 1.472 . S
C849 N203 1.416 . S
C873 C61 1.460 . S
C881 N236 1.389 . S
