# Generated by pormake.
# Topology vmg, (6)-cn, num edge types: 1
# Building blocks:
#     Node 0, Type 0, BuildingBlock: MIDCAF_clean_sbu_0, # of connection points: 6
#     Node 1, Type 0, BuildingBlock: MIDCAF_clean_sbu_0, # of connection points: 6
#     Node 2, Type 0, BuildingBlock: MIDCAF_clean_sbu_0, # of connection points: 6
#     Node 3, Type 0, BuildingBlock: MIDCAF_clean_sbu_0, # of connection points: 6
#     Node 4, Type 0, BuildingBlock: MIDCAF_clean_sbu_0, # of connection points: 6
#     Node 5, Type 0, BuildingBlock: MIDCAF_clean_sbu_0, # of connection points: 6
#     Node 6, Type 0, BuildingBlock: MIDCAF_clean_sbu_0, # of connection points: 6
#     Node 7, Type 0, BuildingBlock: MIDCAF_clean_sbu_0, # of connection points: 6
#     Edge 8, Type (0, 0), BuildingBlock: EYOCIG_clean_linker_4, # of connection points: 2
#     Edge 9, Type (0, 0), BuildingBlock: EYOCIG_clean_linker_4, # of connection points: 2
#     Edge 10, Type (0, 0), BuildingBlock: EYOCIG_clean_linker_4, # of connection points: 2
#     Edge 11, Type (0, 0), BuildingBlock: EYOCIG_clean_linker_4, # of connection points: 2
#     Edge 12, Type (0, 0), BuildingBlock: EYOCIG_clean_linker_4, # of connection points: 2
#     Edge 13, Type (0, 0), BuildingBlock: EYOCIG_clean_linker_4, # of connection points: 2
#     Edge 14, Type (0, 0), BuildingBlock: EYOCIG_clean_linker_4, # of connection points: 2
#     Edge 15, Type (0, 0), BuildingBlock: EYOCIG_clean_linker_4, # of connection points: 2
#     Edge 16, Type (0, 0), BuildingBlock: EYOCIG_clean_linker_4, # of connection points: 2
#     Edge 17, Type (0, 0), BuildingBlock: EYOCIG_clean_linker_4, # of connection points: 2
#     Edge 18, Type (0, 0), BuildingBlock: EYOCIG_clean_linker_4, # of connection points: 2
#     Edge 19, Type (0, 0), BuildingBlock: EYOCIG_clean_linker_4, # of connection points: 2
#     Edge 20, Type (0, 0), BuildingBlock: EYOCIG_clean_linker_4, # of connection points: 2
#     Edge 21, Type (0, 0), BuildingBlock: EYOCIG_clean_linker_4, # of connection points: 2
#     Edge 22, Type (0, 0), BuildingBlock: EYOCIG_clean_linker_4, # of connection points: 2
#     Edge 23, Type (0, 0), BuildingBlock: EYOCIG_clean_linker_4, # of connection points: 2
#     Edge 24, Type (0, 0), BuildingBlock: EYOCIG_clean_linker_4, # of connection points: 2
#     Edge 25, Type (0, 0), BuildingBlock: EYOCIG_clean_linker_4, # of connection points: 2
#     Edge 26, Type (0, 0), BuildingBlock: EYOCIG_clean_linker_4, # of connection points: 2
#     Edge 27, Type (0, 0), BuildingBlock: EYOCIG_clean_linker_4, # of connection points: 2
#     Edge 28, Type (0, 0), BuildingBlock: EYOCIG_clean_linker_4, # of connection points: 2
#     Edge 29, Type (0, 0), BuildingBlock: EYOCIG_clean_linker_4, # of connection points: 2
#     Edge 30, Type (0, 0), BuildingBlock: EYOCIG_clean_linker_4, # of connection points: 2
#     Edge 31, Type (0, 0), BuildingBlock: EYOCIG_clean_linker_4, # of connection points: 2
# Relax obj value: 0.369
# Max RMSD: 0.252
# Mean RMSD: 0.252
data_MOF--net-vmg--node1-MIDCAF_clean_sbu_0--edge1-EYOCIG_clean_linker_4
_symmetry_space_group_name_H-M    P1
_symmetry_Int_Tables_number       1
_symmetry_cell_setting            triclinic
loop_
_symmetry_equiv_pos_as_xyz
'x, y, z'
_cell_length_a     19.668454
_cell_length_b     37.465837
_cell_length_c     20.886657
_cell_angle_alpha  89.96303
_cell_angle_beta   83.638304
_cell_angle_gamma 89.961983
loop_
_atom_site_label
_atom_site_type_symbol
_atom_site_fract_x
_atom_site_fract_y
_atom_site_fract_z
_atom_type_partial_charge
Zn0 Zn 0.1038 0.38916 0.20311 0.0
Zn1 Zn 0.32604 0.36736 0.054 0.0
Zn2 Zn 0.21467 0.3755 0.13175 0.0
C3 C 0.36864 0.38668 0.16881 0.0
C4 C 0.25765 0.30311 0.05796 0.0
O5 O 0.14899 0.4122 0.08173 0.0
O6 O 0.05114 0.41601 0.14512 0.0
C7 C 0.20566 0.41352 0.27014 0.0
O8 O 0.30356 0.39003 0.18368 0.0
O9 O 0.39277 0.37449 0.11494 0.0
O10 O 0.30741 0.31888 0.02709 0.0
O11 O 0.21812 0.31916 0.10212 0.0
O12 O 0.14164 0.41525 0.27163 0.0
O13 O 0.2424 0.39832 0.22299 0.0
O14 O 0.16167 0.32249 0.15039 0.0
O15 O 0.07639 0.34 0.22143 0.0
C16 C 0.10857 0.31536 0.19036 0.0
O17 O 0.21446 0.41207 0.04798 0.0
O18 O 0.31722 0.40629 0.99341 0.0
C19 C 0.08691 0.42352 0.09318 0.0
C20 C 0.25991 0.42148 0.00177 0.0
Zn21 Zn 0.8984 0.38929 0.29123 0.0
Zn22 Zn 0.67641 0.36774 0.44105 0.0
Zn23 Zn 0.78767 0.37576 0.36304 0.0
C24 C 0.63347 0.38663 0.32614 0.0
C25 C 0.74536 0.30363 0.43812 0.0
O26 O 0.85324 0.4128 0.4123 0.0
O27 O 0.95091 0.41658 0.34863 0.0
C28 C 0.79611 0.41304 0.22395 0.0
O29 O 0.69852 0.39 0.31115 0.0
O30 O 0.60948 0.37456 0.38016 0.0
O31 O 0.69543 0.31942 0.46872 0.0
O32 O 0.7847 0.31957 0.39366 0.0
O33 O 0.86014 0.41488 0.22229 0.0
O34 O 0.75958 0.39806 0.27149 0.0
O35 O 0.84097 0.32276 0.34518 0.0
O36 O 0.92615 0.34007 0.27385 0.0
C37 C 0.89411 0.31553 0.30533 0.0
O38 O 0.78783 0.4127 0.44618 0.0
O39 O 0.68518 0.40696 0.50097 0.0
C40 C 0.9152 0.42422 0.40053 0.0
C41 C 0.74237 0.42222 0.49229 0.0
Zn42 Zn 0.89802 0.55606 0.79006 0.0
Zn43 Zn 0.67656 0.577 0.94086 0.0
Zn44 Zn 0.78771 0.56931 0.86264 0.0
C45 C 0.63324 0.55855 0.82608 0.0
C46 C 0.74528 0.64115 0.9384 0.0
O47 O 0.85384 0.53221 0.91128 0.0
O48 O 0.9512 0.5288 0.84707 0.0
C49 C 0.79548 0.53217 0.7235 0.0
O50 O 0.6983 0.55523 0.81098 0.0
O51 O 0.6093 0.57043 0.88024 0.0
O52 O 0.69552 0.62522 0.96896 0.0
O53 O 0.78457 0.62541 0.89367 0.0
O54 O 0.85956 0.53042 0.7214 0.0
O55 O 0.75918 0.5471 0.77124 0.0
O56 O 0.84067 0.62239 0.84492 0.0
O57 O 0.92524 0.60534 0.77269 0.0
C58 C 0.89342 0.62977 0.80469 0.0
O59 O 0.7886 0.5322 0.94554 0.0
O60 O 0.68588 0.53757 0.00034 0.0
C61 C 0.91588 0.52094 0.89907 0.0
C62 C 0.74327 0.52248 0.99161 0.0
Zn63 Zn 0.32495 0.57751 0.55346 0.0
Zn64 Zn 0.10364 0.55607 0.70431 0.0
Zn65 Zn 0.214 0.56958 0.63191 0.0
C66 C 0.10825 0.62984 0.69082 0.0
C67 C 0.2063 0.53166 0.7704 0.0
O68 O 0.21305 0.53289 0.54845 0.0
O69 O 0.31553 0.53849 0.49329 0.0
C70 C 0.25652 0.64183 0.55747 0.0
O71 O 0.16099 0.62261 0.65047 0.0
O72 O 0.07642 0.60528 0.72246 0.0
O73 O 0.14222 0.52999 0.77251 0.0
O74 O 0.24259 0.54681 0.7229 0.0
O75 O 0.30607 0.62597 0.5264 0.0
O76 O 0.21724 0.62587 0.60194 0.0
O77 O 0.30344 0.55518 0.68329 0.0
O78 O 0.39228 0.57047 0.61391 0.0
C79 C 0.36847 0.55847 0.66804 0.0
O80 O 0.14783 0.53284 0.58273 0.0
O81 O 0.05046 0.52919 0.64687 0.0
C82 C 0.2582 0.52338 0.50206 0.0
C83 C 0.08578 0.52158 0.59475 0.0
Zn84 Zn 0.60492 0.88943 0.20255 0.0
Zn85 Zn 0.82753 0.86679 0.05453 0.0
Zn86 Zn 0.71604 0.87542 0.1319 0.0
C87 C 0.86984 0.88653 0.16926 0.0
C88 C 0.75852 0.80275 0.05872 0.0
O89 O 0.65086 0.91204 0.08116 0.0
O90 O 0.5527 0.91613 0.144 0.0
C91 C 0.70657 0.91383 0.26992 0.0
O92 O 0.80477 0.89008 0.18391 0.0
O93 O 0.894 0.87397 0.11568 0.0
O94 O 0.80853 0.81832 0.02787 0.0
O95 O 0.71908 0.81899 0.10272 0.0
O96 O 0.64259 0.9157 0.27099 0.0
O97 O 0.74348 0.89843 0.2231 0.0
O98 O 0.66278 0.82251 0.15103 0.0
O99 O 0.57718 0.84036 0.22141 0.0
C100 C 0.60947 0.81557 0.19087 0.0
O101 O 0.71648 0.91175 0.04775 0.0
O102 O 0.81935 0.90562 0.99355 0.0
C103 C 0.5888 0.92345 0.09216 0.0
C104 C 0.76216 0.92095 0.0016 0.0
Zn105 Zn 0.39972 0.88957 0.29267 0.0
Zn106 Zn 0.17695 0.86809 0.44116 0.0
Zn107 Zn 0.28852 0.87606 0.36366 0.0
C108 C 0.13476 0.88705 0.32593 0.0
C109 C 0.24551 0.80393 0.43854 0.0
O110 O 0.35374 0.91311 0.41338 0.0
O111 O 0.45177 0.91696 0.35029 0.0
C112 C 0.29813 0.91319 0.22441 0.0
O113 O 0.19985 0.89037 0.31119 0.0
O114 O 0.1105 0.87499 0.37987 0.0
O115 O 0.19552 0.81975 0.46895 0.0
O116 O 0.28516 0.81985 0.39429 0.0
O117 O 0.36211 0.91503 0.22325 0.0
O118 O 0.26119 0.89829 0.27178 0.0
O119 O 0.34178 0.82302 0.34618 0.0
O120 O 0.42766 0.84036 0.27564 0.0
C121 C 0.39528 0.8158 0.30678 0.0
O122 O 0.28811 0.91302 0.4468 0.0
O123 O 0.18527 0.90728 0.50123 0.0
C124 C 0.4157 0.92458 0.40199 0.0
C125 C 0.24246 0.92256 0.49273 0.0
Zn126 Zn 0.39967 0.05636 0.78918 0.0
Zn127 Zn 0.17872 0.07688 0.94137 0.0
Zn128 Zn 0.28964 0.06945 0.86259 0.0
C129 C 0.13483 0.05854 0.82679 0.0
C130 C 0.24701 0.1412 0.93856 0.0
O131 O 0.35623 0.03227 0.91051 0.0
O132 O 0.45312 0.02882 0.8456 0.0
C133 C 0.29653 0.03268 0.72319 0.0
O134 O 0.19988 0.05544 0.81134 0.0
O135 O 0.11104 0.07015 0.88119 0.0
O136 O 0.19745 0.12517 0.96925 0.0
O137 O 0.28634 0.12551 0.89379 0.0
O138 O 0.36065 0.03101 0.72052 0.0
O139 O 0.26056 0.04742 0.77133 0.0
O140 O 0.34255 0.12255 0.8451 0.0
O141 O 0.42684 0.10569 0.77239 0.0
C142 C 0.39517 0.13003 0.80478 0.0
O143 O 0.2912 0.03221 0.94522 0.0
O144 O 0.18883 0.03749 0.00072 0.0
C145 C 0.41817 0.02093 0.89779 0.0
C146 C 0.24622 0.02243 0.99154 0.0
Zn147 Zn 0.82631 0.07739 0.55379 0.0
Zn148 Zn 0.60544 0.05628 0.70546 0.0
Zn149 Zn 0.71544 0.0696 0.63245 0.0
C150 C 0.61031 0.13002 0.69193 0.0
C151 C 0.70834 0.03152 0.77079 0.0
O152 O 0.71391 0.03293 0.54902 0.0
O153 O 0.81641 0.03832 0.49381 0.0
C154 C 0.75788 0.14175 0.55778 0.0
O155 O 0.66268 0.12268 0.65119 0.0
O156 O 0.57867 0.10553 0.72392 0.0
O157 O 0.64422 0.02997 0.77327 0.0
O158 O 0.74443 0.04671 0.7232 0.0
O159 O 0.80732 0.12584 0.52666 0.0
O160 O 0.7187 0.12586 0.60242 0.0
O161 O 0.80512 0.05519 0.68356 0.0
O162 O 0.89389 0.0704 0.61403 0.0
C163 C 0.87015 0.05846 0.66822 0.0
O164 O 0.64884 0.03294 0.58362 0.0
O165 O 0.5517 0.02961 0.64818 0.0
C166 C 0.75894 0.02334 0.50259 0.0
C167 C 0.5867 0.02187 0.59594 0.0
C168 C 0.53338 0.40145 0.25879 0.0
C169 C 0.58528 0.39637 0.28289 0.0
C170 C 0.4686 0.4015 0.23621 0.0
C171 C 0.41672 0.39645 0.21211 0.0
C172 C 0.53328 0.54401 0.75841 0.0
C173 C 0.58505 0.54902 0.78274 0.0
C174 C 0.46866 0.54395 0.73551 0.0
C175 C 0.4168 0.54892 0.71128 0.0
C176 C 0.03482 0.90188 0.2585 0.0
C177 C 0.08677 0.89683 0.28251 0.0
C178 C 0.9699 0.90181 0.2362 0.0
C179 C 0.91791 0.89661 0.21235 0.0
C180 C 0.03479 0.04417 0.75904 0.0
C181 C 0.0865 0.04916 0.78347 0.0
C182 C 0.97029 0.04409 0.73589 0.0
C183 C 0.91852 0.04901 0.7115 0.0
C184 C 0.24831 0.23826 0.01554 0.0
C185 C 0.24592 0.26719 0.04022 0.0
C186 C 0.25619 0.20584 0.98205 0.0
C187 C 0.25855 0.17703 0.95696 0.0
C188 C 0.75558 0.23899 0.48148 0.0
C189 C 0.7575 0.26783 0.45645 0.0
C190 C 0.74819 0.20655 0.51503 0.0
C191 C 0.74608 0.17765 0.53985 0.0
C192 C 0.74807 0.73801 0.01615 0.0
C193 C 0.74616 0.7669 0.04092 0.0
C194 C 0.75535 0.70564 0.98241 0.0
C195 C 0.75728 0.67689 0.95711 0.0
C196 C 0.2472 0.70672 0.51507 0.0
C197 C 0.24485 0.67778 0.53975 0.0
C198 C 0.25501 0.7392 0.4817 0.0
C199 C 0.25729 0.76807 0.4568 0.0
C200 C 0.98054 0.48213 0.97753 0.0
C201 C 0.94706 0.49983 0.9447 0.0
C202 C 0.02293 0.46194 0.01368 0.0
C203 C 0.05625 0.4444 0.04691 0.0
C204 C 0.02126 0.48313 0.5158 0.0
C205 C 0.05467 0.50069 0.54886 0.0
C206 C 0.97902 0.46295 0.47958 0.0
C207 C 0.94584 0.44527 0.44651 0.0
C208 C 0.52548 0.96177 0.01201 0.0
C209 C 0.55857 0.94426 0.04551 0.0
C210 C 0.48322 -0.01802 0.97578 0.0
C211 C 0.44969 -0.00025 0.94309 0.0
C212 C 0.47904 0.96338 0.48129 0.0
C213 C 0.44596 0.94567 0.44817 0.0
C214 C 0.52142 -0.01647 0.5174 0.0
C215 C 0.55513 0.00103 0.55029 0.0
C216 C 0.03334 0.26313 0.22867 0.0
C217 C 0.07993 0.28021 0.20104 0.0
C218 C 0.9696 0.2632 0.26788 0.0
C219 C 0.92295 0.28037 0.29521 0.0
C220 C 0.03279 0.68211 0.72859 0.0
C221 C 0.07941 0.66499 0.70111 0.0
C222 C 0.96898 0.68209 0.76768 0.0
C223 C 0.92229 0.66492 0.79493 0.0
C224 C 0.47066 0.76347 0.26925 0.0
C225 C 0.42399 0.78062 0.29659 0.0
C226 C 0.53434 0.76341 0.22994 0.0
C227 C 0.58085 0.78045 0.2021 0.0
C228 C 0.53489 0.18234 0.72948 0.0
C229 C 0.58148 0.16518 0.70205 0.0
C230 C 0.47099 0.18235 0.76843 0.0
C231 C 0.4242 0.16518 0.79546 0.0
C232 C 0.24643 0.47267 0.91871 0.0
C233 C 0.24747 0.44984 0.95898 0.0
C234 C 0.24617 0.49658 0.86694 0.0
C235 C 0.23687 0.51387 0.8203 0.0
C236 C 0.7556 0.47366 0.57478 0.0
C237 C 0.75472 0.45073 0.53473 0.0
C238 C 0.7557 0.49753 0.62657 0.0
C239 C 0.76493 0.51464 0.6734 0.0
C240 C 0.75692 0.4474 0.12633 0.0
C241 C 0.76588 0.43042 0.17342 0.0
C242 C 0.75697 0.47114 0.07426 0.0
C243 C 0.75602 0.49402 0.03407 0.0
C244 C 0.24447 0.4484 0.3673 0.0
C245 C 0.23564 0.4312 0.32046 0.0
C246 C 0.24439 0.47221 0.41921 0.0
C247 C 0.24542 0.49501 0.45948 0.0
C248 C 0.74916 0.97211 0.91833 0.0
C249 C 0.75014 0.94928 0.9586 0.0
C250 C 0.74874 -0.00389 0.86671 0.0
C251 C 0.73918 0.01354 0.82031 0.0
C252 C 0.2559 -0.00196 0.62667 0.0
C253 C 0.26552 0.01514 0.67338 0.0
C254 C 0.25552 -0.0259 0.57504 0.0
C255 C 0.25461 0.9511 0.53513 0.0
C256 C 0.25988 0.94736 0.12615 0.0
C257 C 0.26841 0.93047 0.17347 0.0
C258 C 0.26025 0.97104 0.07396 0.0
C259 C 0.25931 -0.00608 0.03377 0.0
C260 C 0.74477 0.97236 0.41946 0.0
C261 C 0.74587 -0.00492 0.45989 0.0
C262 C 0.74492 0.94864 0.36739 0.0
C263 C 0.73628 0.93147 0.32046 0.0
loop_
_geom_bond_atom_site_label_1
_geom_bond_atom_site_label_2
_geom_bond_distance
_geom_bond_site_symmetry_2
_ccdc_geom_bond_type
Zn0 O6 1.920 . S
Zn0 O12 1.898 . S
Zn0 O15 1.905 . S
Zn1 O9 1.905 . S
Zn1 O10 1.898 . S
Zn1 O18 1.920 1_554 S
Zn2 O5 2.080 . S
Zn2 O8 2.114 . S
Zn2 O11 2.120 . S
Zn2 O13 2.120 . S
Zn2 O14 2.114 . S
Zn2 O17 2.080 . S
C3 O8 1.166 . S
C3 O9 1.182 . S
C4 O10 1.167 . S
C4 O11 1.299 . S
O5 Zn2 2.080 . S
O5 C19 1.305 . S
O6 Zn0 1.920 . S
O6 C19 1.234 . S
C7 O12 1.167 . S
C7 O13 1.299 . S
O8 Zn2 2.114 . S
O8 C3 1.166 . S
O9 Zn1 1.905 . S
O9 C3 1.182 . S
O10 Zn1 1.898 . S
O10 C4 1.167 . S
O11 Zn2 2.120 . S
O11 C4 1.299 . S
O12 Zn0 1.898 . S
O12 C7 1.167 . S
O13 Zn2 2.120 . S
O13 C7 1.299 . S
O14 Zn2 2.114 . S
O14 C16 1.166 . S
O15 Zn0 1.905 . S
O15 C16 1.182 . S
C16 O14 1.166 . S
C16 O15 1.182 . S
O17 Zn2 2.080 . S
O17 C20 1.305 1_554 S
O18 Zn1 1.920 1_556 S
O18 C20 1.234 . S
C19 O5 1.305 . S
C19 O6 1.234 . S
C20 O17 1.305 1_556 S
C20 O18 1.234 . S
Zn21 O27 1.920 . S
Zn21 O33 1.898 . S
Zn21 O36 1.905 . S
Zn22 O30 1.905 . S
Zn22 O31 1.898 . S
Zn22 O39 1.920 . S
Zn23 O26 2.080 . S
Zn23 O29 2.114 . S
Zn23 O32 2.120 . S
Zn23 O34 2.120 . S
Zn23 O35 2.114 . S
Zn23 O38 2.080 . S
C24 O29 1.166 . S
C24 O30 1.182 . S
C25 O31 1.167 . S
C25 O32 1.299 . S
O26 Zn23 2.080 . S
O26 C40 1.305 . S
O27 Zn21 1.920 . S
O27 C40 1.234 . S
C28 O33 1.167 . S
C28 O34 1.299 . S
O29 Zn23 2.114 . S
O29 C24 1.166 . S
O30 Zn22 1.905 . S
O30 C24 1.182 . S
O31 Zn22 1.898 . S
O31 C25 1.167 . S
O32 Zn23 2.120 . S
O32 C25 1.299 . S
O33 Zn21 1.898 . S
O33 C28 1.167 . S
O34 Zn23 2.120 . S
O34 C28 1.299 . S
O35 Zn23 2.114 . S
O35 C37 1.166 . S
O36 Zn21 1.905 . S
O36 C37 1.182 . S
C37 O35 1.166 . S
C37 O36 1.182 . S
O38 Zn23 2.080 . S
O38 C41 1.305 . S
O39 Zn22 1.920 . S
O39 C41 1.234 . S
C40 O26 1.305 . S
C40 O27 1.234 . S
C41 O38 1.305 . S
C41 O39 1.234 . S
Zn42 O48 1.920 . S
Zn42 O54 1.898 . S
Zn42 O57 1.905 . S
Zn43 O51 1.905 . S
Zn43 O52 1.898 . S
Zn43 O60 1.920 1_556 S
Zn44 O47 2.080 . S
Zn44 O50 2.114 . S
Zn44 O53 2.120 . S
Zn44 O55 2.120 . S
Zn44 O56 2.114 . S
Zn44 O59 2.080 . S
C45 O50 1.166 . S
C45 O51 1.182 . S
C46 O52 1.167 . S
C46 O53 1.299 . S
O47 Zn44 2.080 . S
O47 C61 1.305 . S
O48 Zn42 1.920 . S
O48 C61 1.234 . S
C49 O54 1.167 . S
C49 O55 1.299 . S
O50 Zn44 2.114 . S
O50 C45 1.166 . S
O51 Zn43 1.905 . S
O51 C45 1.182 . S
O52 Zn43 1.898 . S
O52 C46 1.167 . S
O53 Zn44 2.120 . S
O53 C46 1.299 . S
O54 Zn42 1.898 . S
O54 C49 1.167 . S
O55 Zn44 2.120 . S
O55 C49 1.299 . S
O56 Zn44 2.114 . S
O56 C58 1.166 . S
O57 Zn42 1.905 . S
O57 C58 1.182 . S
C58 O56 1.166 . S
C58 O57 1.182 . S
O59 Zn44 2.080 . S
O59 C62 1.305 1_556 S
O60 Zn43 1.920 1_554 S
O60 C62 1.234 . S
C61 O47 1.305 . S
C61 O48 1.234 . S
C62 O59 1.305 1_554 S
C62 O60 1.234 . S
Zn63 O69 1.920 . S
Zn63 O75 1.898 . S
Zn63 O78 1.905 . S
Zn64 O72 1.905 . S
Zn64 O73 1.898 . S
Zn64 O81 1.920 . S
Zn65 O68 2.080 . S
Zn65 O71 2.114 . S
Zn65 O74 2.120 . S
Zn65 O76 2.120 . S
Zn65 O77 2.114 . S
Zn65 O80 2.080 . S
C66 O71 1.166 . S
C66 O72 1.182 . S
C67 O73 1.167 . S
C67 O74 1.299 . S
O68 Zn65 2.080 . S
O68 C82 1.305 . S
O69 Zn63 1.920 . S
O69 C82 1.234 . S
C70 O75 1.167 . S
C70 O76 1.299 . S
O71 Zn65 2.114 . S
O71 C66 1.166 . S
O72 Zn64 1.905 . S
O72 C66 1.182 . S
O73 Zn64 1.898 . S
O73 C67 1.167 . S
O74 Zn65 2.120 . S
O74 C67 1.299 . S
O75 Zn63 1.898 . S
O75 C70 1.167 . S
O76 Zn65 2.120 . S
O76 C70 1.299 . S
O77 Zn65 2.114 . S
O77 C79 1.166 . S
O78 Zn63 1.905 . S
O78 C79 1.182 . S
C79 O77 1.166 . S
C79 O78 1.182 . S
O80 Zn65 2.080 . S
O80 C83 1.305 . S
O81 Zn64 1.920 . S
O81 C83 1.234 . S
C82 O68 1.305 . S
C82 O69 1.234 . S
C83 O80 1.305 . S
C83 O81 1.234 . S
Zn84 O90 1.920 . S
Zn84 O96 1.898 . S
Zn84 O99 1.905 . S
Zn85 O93 1.905 . S
Zn85 O94 1.898 . S
Zn85 O102 1.920 1_554 S
Zn86 O89 2.080 . S
Zn86 O92 2.114 . S
Zn86 O95 2.120 . S
Zn86 O97 2.120 . S
Zn86 O98 2.114 . S
Zn86 O101 2.080 . S
C87 O92 1.166 . S
C87 O93 1.182 . S
C88 O94 1.167 . S
C88 O95 1.299 . S
O89 Zn86 2.080 . S
O89 C103 1.305 . S
O90 Zn84 1.920 . S
O90 C103 1.234 . S
C91 O96 1.167 . S
C91 O97 1.299 . S
O92 Zn86 2.114 . S
O92 C87 1.166 . S
O93 Zn85 1.905 . S
O93 C87 1.182 . S
O94 Zn85 1.898 . S
O94 C88 1.167 . S
O95 Zn86 2.120 . S
O95 C88 1.299 . S
O96 Zn84 1.898 . S
O96 C91 1.167 . S
O97 Zn86 2.120 . S
O97 C91 1.299 . S
O98 Zn86 2.114 . S
O98 C100 1.166 . S
O99 Zn84 1.905 . S
O99 C100 1.182 . S
C100 O98 1.166 . S
C100 O99 1.182 . S
O101 Zn86 2.080 . S
O101 C104 1.305 1_554 S
O102 Zn85 1.920 1_556 S
O102 C104 1.234 . S
C103 O89 1.305 . S
C103 O90 1.234 . S
C104 O101 1.305 1_556 S
C104 O102 1.234 . S
Zn105 O111 1.920 . S
Zn105 O117 1.898 . S
Zn105 O120 1.905 . S
Zn106 O114 1.905 . S
Zn106 O115 1.898 . S
Zn106 O123 1.920 . S
Zn107 O110 2.080 . S
Zn107 O113 2.114 . S
Zn107 O116 2.120 . S
Zn107 O118 2.120 . S
Zn107 O119 2.114 . S
Zn107 O122 2.080 . S
C108 O113 1.166 . S
C108 O114 1.182 . S
C109 O115 1.167 . S
C109 O116 1.299 . S
O110 Zn107 2.080 . S
O110 C124 1.305 . S
O111 Zn105 1.920 . S
O111 C124 1.234 . S
C112 O117 1.167 . S
C112 O118 1.299 . S
O113 Zn107 2.114 . S
O113 C108 1.166 . S
O114 Zn106 1.905 . S
O114 C108 1.182 . S
O115 Zn106 1.898 . S
O115 C109 1.167 . S
O116 Zn107 2.120 . S
O116 C109 1.299 . S
O117 Zn105 1.898 . S
O117 C112 1.167 . S
O118 Zn107 2.120 . S
O118 C112 1.299 . S
O119 Zn107 2.114 . S
O119 C121 1.166 . S
O120 Zn105 1.905 . S
O120 C121 1.182 . S
C121 O119 1.166 . S
C121 O120 1.182 . S
O122 Zn107 2.080 . S
O122 C125 1.305 . S
O123 Zn106 1.920 . S
O123 C125 1.234 . S
C124 O110 1.305 . S
C124 O111 1.234 . S
C125 O122 1.305 . S
C125 O123 1.234 . S
Zn126 O132 1.920 . S
Zn126 O138 1.898 . S
Zn126 O141 1.905 . S
Zn127 O135 1.905 . S
Zn127 O136 1.898 . S
Zn127 O144 1.920 1_556 S
Zn128 O131 2.080 . S
Zn128 O134 2.114 . S
Zn128 O137 2.120 . S
Zn128 O139 2.120 . S
Zn128 O140 2.114 . S
Zn128 O143 2.080 . S
C129 O134 1.166 . S
C129 O135 1.182 . S
C130 O136 1.167 . S
C130 O137 1.299 . S
O131 Zn128 2.080 . S
O131 C145 1.305 . S
O132 Zn126 1.920 . S
O132 C145 1.234 . S
C133 O138 1.167 . S
C133 O139 1.299 . S
O134 Zn128 2.114 . S
O134 C129 1.166 . S
O135 Zn127 1.905 . S
O135 C129 1.182 . S
O136 Zn127 1.898 . S
O136 C130 1.167 . S
O137 Zn128 2.120 . S
O137 C130 1.299 . S
O138 Zn126 1.898 . S
O138 C133 1.167 . S
O139 Zn128 2.120 . S
O139 C133 1.299 . S
O140 Zn128 2.114 . S
O140 C142 1.166 . S
O141 Zn126 1.905 . S
O141 C142 1.182 . S
C142 O140 1.166 . S
C142 O141 1.182 . S
O143 Zn128 2.080 . S
O143 C146 1.305 1_556 S
O144 Zn127 1.920 1_554 S
O144 C146 1.234 . S
C145 O131 1.305 . S
C145 O132 1.234 . S
C146 O143 1.305 1_554 S
C146 O144 1.234 . S
Zn147 O153 1.920 . S
Zn147 O159 1.898 . S
Zn147 O162 1.905 . S
Zn148 O156 1.905 . S
Zn148 O157 1.898 . S
Zn148 O165 1.920 . S
Zn149 O152 2.080 . S
Zn149 O155 2.114 . S
Zn149 O158 2.120 . S
Zn149 O160 2.120 . S
Zn149 O161 2.114 . S
Zn149 O164 2.080 . S
C150 O155 1.166 . S
C150 O156 1.182 . S
C151 O157 1.167 . S
C151 O158 1.299 . S
O152 Zn149 2.080 . S
O152 C166 1.305 . S
O153 Zn147 1.920 . S
O153 C166 1.234 . S
C154 O159 1.167 . S
C154 O160 1.299 . S
O155 Zn149 2.114 . S
O155 C150 1.166 . S
O156 Zn148 1.905 . S
O156 C150 1.182 . S
O157 Zn148 1.898 . S
O157 C151 1.167 . S
O158 Zn149 2.120 . S
O158 C151 1.299 . S
O159 Zn147 1.898 . S
O159 C154 1.167 . S
O160 Zn149 2.120 . S
O160 C154 1.299 . S
O161 Zn149 2.114 . S
O161 C163 1.166 . S
O162 Zn147 1.905 . S
O162 C163 1.182 . S
C163 O161 1.166 . S
C163 O162 1.182 . S
O164 Zn149 2.080 . S
O164 C167 1.305 . S
O165 Zn148 1.920 . S
O165 C167 1.234 . S
C166 O152 1.305 . S
C166 O153 1.234 . S
C167 O164 1.305 . S
C167 O165 1.234 . S
C168 C169 1.170 . S
C168 C170 1.380 . S
C169 C168 1.170 . S
C170 C168 1.380 . S
C170 C171 1.170 . S
C171 C170 1.170 . S
C172 C173 1.170 . S
C172 C174 1.380 . S
C173 C172 1.170 . S
C174 C172 1.380 . S
C174 C175 1.170 . S
C175 C174 1.170 . S
C176 C177 1.170 . S
C176 C178 1.380 1_455 S
C177 C176 1.170 . S
C178 C176 1.380 1_655 S
C178 C179 1.170 . S
C179 C178 1.170 . S
C180 C181 1.170 . S
C180 C182 1.380 1_455 S
C181 C180 1.170 . S
C182 C180 1.380 1_655 S
C182 C183 1.170 . S
C183 C182 1.170 . S
C184 C185 1.170 . S
C184 C186 1.380 1_554 S
C185 C184 1.170 . S
C186 C184 1.380 1_556 S
C186 C187 1.170 . S
C187 C186 1.170 . S
C188 C189 1.170 . S
C188 C190 1.380 . S
C189 C188 1.170 . S
C190 C188 1.380 . S
C190 C191 1.170 . S
C191 C190 1.170 . S
C192 C193 1.170 . S
C192 C194 1.380 1_554 S
C193 C192 1.170 . S
C194 C192 1.380 1_556 S
C194 C195 1.170 . S
C195 C194 1.170 . S
C196 C197 1.170 . S
C196 C198 1.380 . S
C197 C196 1.170 . S
C198 C196 1.380 . S
C198 C199 1.170 . S
C199 C198 1.170 . S
C200 C201 1.170 . S
C200 C202 1.380 1_656 S
C201 C200 1.170 . S
C202 C200 1.380 1_454 S
C202 C203 1.170 . S
C203 C202 1.170 . S
C204 C205 1.170 . S
C204 C206 1.380 1_455 S
C205 C204 1.170 . S
C206 C204 1.380 1_655 S
C206 C207 1.170 . S
C207 C206 1.170 . S
C208 C209 1.170 . S
C208 C210 1.380 1_564 S
C209 C208 1.170 . S
C210 C208 1.380 1_546 S
C210 C211 1.170 . S
C211 C210 1.170 . S
C212 C213 1.170 . S
C212 C214 1.380 1_565 S
C213 C212 1.170 . S
C214 C212 1.380 1_545 S
C214 C215 1.170 . S
C215 C214 1.170 . S
C216 C217 1.170 . S
C216 C218 1.380 1_455 S
C217 C216 1.170 . S
C218 C216 1.380 1_655 S
C218 C219 1.170 . S
C219 C218 1.170 . S
C220 C221 1.170 . S
C220 C222 1.380 1_455 S
C221 C220 1.170 . S
C222 C220 1.380 1_655 S
C222 C223 1.170 . S
C223 C222 1.170 . S
C224 C225 1.170 . S
C224 C226 1.380 . S
C225 C224 1.170 . S
C226 C224 1.380 . S
C226 C227 1.170 . S
C227 C226 1.170 . S
C228 C229 1.170 . S
C228 C230 1.380 . S
C229 C228 1.170 . S
C230 C228 1.380 . S
C230 C231 1.170 . S
C231 C230 1.170 . S
C232 C233 1.170 . S
C232 C234 1.380 . S
C233 C232 1.170 . S
C234 C232 1.380 . S
C234 C235 1.170 . S
C235 C234 1.170 . S
C236 C237 1.170 . S
C236 C238 1.380 . S
C237 C236 1.170 . S
C238 C236 1.380 . S
C238 C239 1.170 . S
C239 C238 1.170 . S
C240 C241 1.170 . S
C240 C242 1.380 . S
C241 C240 1.170 . S
C242 C240 1.380 . S
C242 C243 1.170 . S
C243 C242 1.170 . S
C244 C245 1.170 . S
C244 C246 1.380 . S
C245 C244 1.170 . S
C246 C244 1.380 . S
C246 C247 1.170 . S
C247 C246 1.170 . S
C248 C249 1.170 . S
C248 C250 1.380 . S
C249 C248 1.170 . S
C250 C248 1.380 . S
C250 C251 1.170 1_565 S
C251 C250 1.170 1_545 S
C252 C253 1.170 1_565 S
C252 C254 1.380 . S
C253 C252 1.170 1_545 S
C254 C252 1.380 . S
C254 C255 1.170 . S
C255 C254 1.170 . S
C256 C257 1.170 1_545 S
C256 C258 1.380 . S
C257 C256 1.170 1_565 S
C258 C256 1.380 . S
C258 C259 1.170 . S
C259 C258 1.170 . S
C260 C261 1.170 . S
C260 C262 1.380 . S
C261 C260 1.170 . S
C262 C260 1.380 . S
C262 C263 1.170 1_545 S
C263 C262 1.170 1_565 S
C169 C24 1.160 . S
C171 C3 1.121 . S
C173 C45 1.159 . S
C175 C79 1.103 . S
C177 C108 1.148 . S
C179 C87 1.102 . S
C181 C129 1.105 . S
C183 C163 1.154 . S
C185 C4 1.235 . S
C187 C130 1.303 . S
C189 C25 1.263 . S
C191 C154 1.304 . S
C193 C88 1.248 . S
C195 C46 1.279 . S
C197 C70 1.235 . S
C199 C109 1.303 . S
C201 C61 1.050 . S
C203 C19 1.044 . S
C205 C83 1.005 . S
C207 C40 1.037 . S
C209 C103 1.049 . S
C211 C145 0.995 . S
C213 C124 1.076 . S
C215 C167 1.008 . S
C217 C16 1.103 . S
C219 C37 1.105 . S
C221 C66 1.134 . S
C223 C58 1.173 . S
C225 C121 1.195 . S
C227 C100 1.185 . S
C229 C150 1.191 . S
C231 C142 1.198 . S
C233 C20 1.511 . S
C235 C67 1.411 . S
C237 C41 1.489 . S
C239 C49 1.432 . S
C241 C28 1.429 . S
C243 C62 1.498 . S
C245 C7 1.380 . S
C247 C82 1.520 . S
C249 C104 1.504 . S
C251 C151 1.397 . S
C253 C133 1.415 . S
C255 C125 1.508 . S
C257 C112 1.403 . S
C259 C146 1.526 . S
C261 C166 1.525 . S
C263 C91 1.394 . S
