# Generated by pormake.
# Topology vmx, (8)-cn, num edge types: 1
# Building blocks:
#     Node 0, Type 0, BuildingBlock: TAGTUT_clean_sbu_3, # of connection points: 8
#     Node 1, Type 0, BuildingBlock: TAGTUT_clean_sbu_3, # of connection points: 8
#     Node 2, Type 0, BuildingBlock: TAGTUT_clean_sbu_3, # of connection points: 8
#     Node 3, Type 0, BuildingBlock: TAGTUT_clean_sbu_3, # of connection points: 8
#     Node 4, Type 0, BuildingBlock: TAGTUT_clean_sbu_3, # of connection points: 8
#     Node 5, Type 0, BuildingBlock: TAGTUT_clean_sbu_3, # of connection points: 8
#     Node 6, Type 0, BuildingBlock: TAGTUT_clean_sbu_3, # of connection points: 8
#     Node 7, Type 0, BuildingBlock: TAGTUT_clean_sbu_3, # of connection points: 8
#     Edge 8, Type (0, 0), BuildingBlock: AJUNOK_clean_linker_0, # of connection points: 2
#     Edge 9, Type (0, 0), BuildingBlock: AJUNOK_clean_linker_0, # of connection points: 2
#     Edge 10, Type (0, 0), BuildingBlock: AJUNOK_clean_linker_0, # of connection points: 2
#     Edge 11, Type (0, 0), BuildingBlock: AJUNOK_clean_linker_0, # of connection points: 2
#     Edge 12, Type (0, 0), BuildingBlock: AJUNOK_clean_linker_0, # of connection points: 2
#     Edge 13, Type (0, 0), BuildingBlock: AJUNOK_clean_linker_0, # of connection points: 2
#     Edge 14, Type (0, 0), BuildingBlock: AJUNOK_clean_linker_0, # of connection points: 2
#     Edge 15, Type (0, 0), BuildingBlock: AJUNOK_clean_linker_0, # of connection points: 2
#     Edge 16, Type (0, 0), BuildingBlock: AJUNOK_clean_linker_0, # of connection points: 2
#     Edge 17, Type (0, 0), BuildingBlock: AJUNOK_clean_linker_0, # of connection points: 2
#     Edge 18, Type (0, 0), BuildingBlock: AJUNOK_clean_linker_0, # of connection points: 2
#     Edge 19, Type (0, 0), BuildingBlock: AJUNOK_clean_linker_0, # of connection points: 2
#     Edge 20, Type (0, 0), BuildingBlock: AJUNOK_clean_linker_0, # of connection points: 2
#     Edge 21, Type (0, 0), BuildingBlock: AJUNOK_clean_linker_0, # of connection points: 2
#     Edge 22, Type (0, 0), BuildingBlock: AJUNOK_clean_linker_0, # of connection points: 2
#     Edge 23, Type (0, 0), BuildingBlock: AJUNOK_clean_linker_0, # of connection points: 2
#     Edge 24, Type (0, 0), BuildingBlock: AJUNOK_clean_linker_0, # of connection points: 2
#     Edge 25, Type (0, 0), BuildingBlock: AJUNOK_clean_linker_0, # of connection points: 2
#     Edge 26, Type (0, 0), BuildingBlock: AJUNOK_clean_linker_0, # of connection points: 2
#     Edge 27, Type (0, 0), BuildingBlock: AJUNOK_clean_linker_0, # of connection points: 2
#     Edge 28, Type (0, 0), BuildingBlock: AJUNOK_clean_linker_0, # of connection points: 2
#     Edge 29, Type (0, 0), BuildingBlock: AJUNOK_clean_linker_0, # of connection points: 2
#     Edge 30, Type (0, 0), BuildingBlock: AJUNOK_clean_linker_0, # of connection points: 2
#     Edge 31, Type (0, 0), BuildingBlock: AJUNOK_clean_linker_0, # of connection points: 2
#     Edge 32, Type (0, 0), BuildingBlock: AJUNOK_clean_linker_0, # of connection points: 2
#     Edge 33, Type (0, 0), BuildingBlock: AJUNOK_clean_linker_0, # of connection points: 2
#     Edge 34, Type (0, 0), BuildingBlock: AJUNOK_clean_linker_0, # of connection points: 2
#     Edge 35, Type (0, 0), BuildingBlock: AJUNOK_clean_linker_0, # of connection points: 2
#     Edge 36, Type (0, 0), BuildingBlock: AJUNOK_clean_linker_0, # of connection points: 2
#     Edge 37, Type (0, 0), BuildingBlock: AJUNOK_clean_linker_0, # of connection points: 2
#     Edge 38, Type (0, 0), BuildingBlock: AJUNOK_clean_linker_0, # of connection points: 2
#     Edge 39, Type (0, 0), BuildingBlock: AJUNOK_clean_linker_0, # of connection points: 2
# Relax obj value: 0.262
# Max RMSD: 0.280
# Mean RMSD: 0.280
data_MOF--net-vmx--node1-TAGTUT_clean_sbu_3--edge1-AJUNOK_clean_linker_0
_symmetry_space_group_name_H-M    P1
_symmetry_Int_Tables_number       1
_symmetry_cell_setting            triclinic
loop_
_symmetry_equiv_pos_as_xyz
'x, y, z'
_cell_length_a     23.563534
_cell_length_b     43.866239
_cell_length_c     14.542606
_cell_angle_alpha  89.814981
_cell_angle_beta   109.19508
_cell_angle_gamma 90.088729
loop_
_atom_site_label
_atom_site_type_symbol
_atom_site_fract_x
_atom_site_fract_y
_atom_site_fract_z
_atom_type_partial_charge
C0 C 0.31326 0.37461 0.57396 0.0
C1 C 0.2662 0.31716 0.26533 0.0
C2 C 0.12578 0.3657 0.15503 0.0
Mg3 Mg 0.2455 0.40875 0.68593 0.0
Mg4 Mg 0.10455 0.40433 0.6731 0.0
O5 O 0.15979 0.40003 0.60969 0.0
Mg6 Mg 0.16871 0.37318 0.5021 0.0
O7 O 0.18932 0.35044 0.39495 0.0
Mg8 Mg 0.23089 0.38433 0.34891 0.0
Mg9 Mg 0.14516 0.31979 0.30507 0.0
C10 C 0.02174 0.38023 0.46599 0.0
O11 O 0.15864 0.32386 0.56023 0.0
O12 O 0.22115 0.44779 0.76846 0.0
O13 O 0.10477 0.30868 0.41423 0.0
O14 O 0.2389 0.37561 0.80792 0.0
O15 O 0.12159 0.45063 0.7327 0.0
O16 O 0.14005 0.3723 0.78518 0.0
O17 O 0.18641 0.41803 0.43068 0.0
O18 O 0.24069 0.44279 0.56478 0.0
C19 C 0.21261 0.44228 0.4731 0.0
C20 C 0.1745 0.46145 0.77346 0.0
O21 O 0.06534 0.37482 0.43291 0.0
O22 O 0.27107 0.34606 0.27999 0.0
O23 O 0.02924 0.39035 0.55181 0.0
O24 O 0.14613 0.38725 0.21546 0.0
O25 O 0.22399 0.30106 0.27846 0.0
O26 O 0.09548 0.34474 0.1778 0.0
O27 O 0.26377 0.37229 0.58897 0.0
O28 O 0.31508 0.37984 0.48853 0.0
C29 C 0.19446 0.36504 0.8309 0.0
C30 C 0.14448 0.30254 0.49567 0.0
C31 C 0.5037 0.38485 0.94215 0.0
C32 C 0.48126 0.31257 0.19396 0.0
C33 C 0.64029 0.3519 0.3871 0.0
Mg34 Mg 0.60369 0.42126 0.91031 0.0
Mg35 Mg 0.74838 0.40935 0.97369 0.0
O36 O 0.67985 0.40786 0.01107 0.0
Mg37 Mg 0.64313 0.3755 0.07545 0.0
O38 O 0.59431 0.34797 0.13249 0.0
Mg39 Mg 0.54638 0.37945 0.17501 0.0
Mg40 Mg 0.61538 0.31284 0.20893 0.0
C41 C 0.78925 0.37628 0.18401 0.0
O42 O 0.67236 0.33124 0.01498 0.0
O43 O 0.64915 0.4612 0.87371 0.0
O44 O 0.66807 0.29512 0.12574 0.0
O45 O 0.62818 0.39281 0.79635 0.0
O46 O 0.74921 0.45744 0.9255 0.0
O47 O 0.72593 0.38131 0.84845 0.0
O48 O 0.61545 0.41442 0.15385 0.0
O49 O 0.59117 0.44907 0.03543 0.0
C50 C 0.60442 0.44196 0.12551 0.0
C51 C 0.70053 0.47231 0.88422 0.0
O52 O 0.73669 0.37184 0.19122 0.0
O53 O 0.48289 0.34165 0.18831 0.0
O54 O 0.79927 0.38847 0.11017 0.0
O55 O 0.60242 0.37053 0.33237 0.0
O56 O 0.52662 0.29563 0.19993 0.0
O57 O 0.658 0.32815 0.35441 0.0
O58 O 0.55817 0.38124 0.94877 0.0
O59 O 0.48801 0.38533 0.01784 0.0
C60 C 0.67384 0.37957 0.78497 0.0
C61 C 0.68306 0.30422 0.05287 0.0
C62 C 0.49072 0.63012 0.44609 0.0
C63 C 0.47172 0.70289 0.6957 0.0
C64 C 0.62453 0.65937 0.89313 0.0
Mg65 Mg 0.5889 0.59059 0.41956 0.0
Mg66 Mg 0.73312 0.6036 0.4805 0.0
O67 O 0.66616 0.60314 0.52159 0.0
Mg68 Mg 0.63094 0.63623 0.58481 0.0
O69 O 0.58286 0.66467 0.63946 0.0
Mg70 Mg 0.53094 0.63431 0.67828 0.0
Mg71 Mg 0.60628 0.6991 0.71731 0.0
C72 C 0.77768 0.63625 0.69047 0.0
O73 O 0.66311 0.67955 0.52456 0.0
O74 O 0.63432 0.55021 0.38359 0.0
O75 O 0.66114 0.71548 0.63623 0.0
O76 O 0.61255 0.61835 0.30411 0.0
O77 O 0.73407 0.5563 0.42891 0.0
O78 O 0.70897 0.6322 0.35639 0.0
O79 O 0.60008 0.59795 0.66247 0.0
O80 O 0.57437 0.5634 0.54452 0.0
C81 C 0.5916 0.57024 0.63506 0.0
C82 C 0.68633 0.54034 0.3914 0.0
O83 O 0.72571 0.63965 0.70133 0.0
O84 O 0.4703 0.67377 0.68944 0.0
O85 O 0.78612 0.62454 0.615 0.0
O86 O 0.5855 0.64168 0.83663 0.0
O87 O 0.51914 0.71854 0.70462 0.0
O88 O 0.64525 0.68264 0.86232 0.0
O89 O 0.54611 0.63154 0.45686 0.0
O90 O 0.47289 0.63034 0.51949 0.0
C91 C 0.65707 0.63258 0.29223 0.0
C92 C 0.67588 0.70625 0.56351 0.0
C93 C 0.30821 0.64613 0.07347 0.0
C94 C 0.25676 0.70274 0.75998 0.0
C95 C 0.11952 0.6518 0.65366 0.0
Mg96 Mg 0.23952 0.61062 0.1851 0.0
Mg97 Mg 0.098 0.61705 0.17093 0.0
O98 O 0.15372 0.61967 0.10764 0.0
Mg99 Mg 0.16298 0.64682 0.0007 0.0
O100 O 0.18333 0.66957 0.89272 0.0
Mg101 Mg 0.22492 0.63554 0.84854 0.0
Mg102 Mg 0.13584 0.69861 0.79851 0.0
C103 C 0.01502 0.63963 0.96163 0.0
O104 O 0.15152 0.69625 0.05564 0.0
O105 O 0.21282 0.57054 0.26394 0.0
O106 O 0.09548 0.70878 0.90809 0.0
O107 O 0.23252 0.6433 0.30716 0.0
O108 O 0.11317 0.57115 0.23374 0.0
O109 O 0.13387 0.64934 0.28105 0.0
O110 O 0.18193 0.60223 0.93181 0.0
O111 O 0.23757 0.57726 0.06439 0.0
C112 C 0.21043 0.57836 0.97257 0.0
C113 C 0.16473 0.55843 0.2695 0.0
O114 O 0.0589 0.64468 0.92871 0.0
O115 O 0.26321 0.67401 0.77746 0.0
O116 O 0.02237 0.63027 0.04846 0.0
O117 O 0.13961 0.63125 0.71781 0.0
O118 O 0.21344 0.71839 0.77065 0.0
O119 O 0.08785 0.6729 0.67184 0.0
O120 O 0.25907 0.64812 0.09028 0.0
O121 O 0.30921 0.64077 -0.01233 0.0
C122 C 0.1887 0.65493 0.32927 0.0
C123 C 0.13509 0.71657 -0.01236 0.0
C124 C 0.9682 0.87131 0.506 0.0
C125 C -0.0156 0.80383 0.24973 0.0
C126 C 0.82787 0.84688 0.06075 0.0
Mg127 Mg 0.87996 0.91163 0.54713 0.0
Mg128 Mg 0.73296 0.91082 0.48161 0.0
O129 O 0.80024 0.90297 0.44612 0.0
Mg130 Mg 0.82754 0.86969 0.3719 0.0
O131 O 0.87152 0.8415 0.30918 0.0
Mg132 Mg 0.92519 0.87161 0.27339 0.0
Mg133 Mg 0.85096 0.80604 0.23595 0.0
C134 C 0.68021 0.87966 0.26855 0.0
O135 O 0.79412 0.82582 0.42804 0.0
O136 O 0.84601 0.95373 0.59645 0.0
O137 O 0.79898 0.78888 0.32087 0.0
O138 O 0.85013 0.88424 0.65746 0.0
O139 O 0.74621 0.95838 0.5368 0.0
O140 O 0.74946 0.88209 0.60488 0.0
O141 O 0.86113 0.90817 0.29939 0.0
O142 O 0.89587 0.9399 0.4242 0.0
C143 C 0.8781 0.93467 0.3324 0.0
C144 C 0.79829 0.96868 0.58637 0.0
O145 O 0.73065 0.87154 0.25845 0.0
O146 O -0.01588 0.83284 0.25589 0.0
O147 O 0.67522 0.89314 0.34405 0.0
O148 O 0.86724 0.86503 0.11489 0.0
O149 O 0.93852 0.78739 0.24464 0.0
O150 O 0.80993 0.82294 0.09268 0.0
O151 O 0.9131 0.86971 0.49598 0.0
O152 O -0.01443 0.87476 0.43261 0.0
C153 C 0.80035 0.87556 0.66708 0.0
C154 C 0.78424 0.79847 0.39325 0.0
C155 C 0.14683 0.87784 0.8794 0.0
C156 C 0.19736 0.81302 0.17768 0.0
C157 C 0.33758 0.86104 0.29407 0.0
Mg158 Mg 0.21937 0.91115 0.7679 0.0
Mg159 Mg 0.36138 0.90609 0.7838 0.0
O160 O 0.3043 0.90134 0.84431 0.0
Mg161 Mg 0.29272 0.87303 0.94646 0.0
O162 O 0.27139 0.84857 0.04996 0.0
Mg163 Mg 0.23376 0.8818 0.10368 0.0
Mg164 Mg 0.31656 0.81714 0.13668 0.0
C165 C 0.44215 0.88017 -0.00908 0.0
O166 O 0.30203 0.82462 0.88257 0.0
O167 O 0.24654 0.95022 0.68882 0.0
O168 O 0.35721 0.80811 0.02661 0.0
O169 O 0.22586 0.8785 0.64543 0.0
O170 O 0.34596 0.95266 0.72347 0.0
O171 O 0.32503 0.87478 0.66992 0.0
O172 O 0.27711 0.91647 0.02323 0.0
O173 O 0.22523 0.94387 0.89328 0.0
C174 C 0.25143 0.94135 -0.01475 0.0
C175 C 0.29317 0.96364 0.68272 0.0
O176 O 0.39692 0.8737 0.01917 0.0
O177 O 0.19385 0.84223 0.17003 0.0
O178 O 0.43652 0.89159 0.90688 0.0
O179 O 0.3211 0.88196 0.23036 0.0
O180 O 0.23774 0.79731 0.15812 0.0
O181 O 0.36351 0.83771 0.27459 0.0
O182 O 0.19472 0.87444 0.85849 0.0
O183 O 0.14797 0.88018 0.96748 0.0
C184 C 0.27049 0.86793 0.62305 0.0
C185 C 0.31728 0.80256 0.94488 0.0
C186 C 0.25225 0.0802 0.47787 0.0
C187 C 0.29328 0.05845 0.18275 0.0
C188 C 0.27404 0.15519 0.11793 0.0
Mg189 Mg 0.23831 0.13773 0.60109 0.0
Mg190 Mg 0.32483 0.20177 0.64325 0.0
O191 O 0.27929 0.17146 0.55344 0.0
Mg192 Mg 0.29909 0.14836 0.44573 0.0
O193 O 0.30737 0.12122 0.33939 0.0
Mg194 Mg 0.22139 0.11254 0.26335 0.0
Mg195 Mg 0.3637 0.11616 0.27833 0.0
C196 C 0.32717 0.21765 0.45238 0.0
O197 O 0.40318 0.14551 0.51724 0.0
O198 O 0.19884 0.17602 0.67013 0.0
O199 O 0.4402 0.12916 0.40048 0.0
O200 O 0.3236 0.13476 0.73305 0.0
O201 O 0.24518 0.22095 0.66724 0.0
O202 O 0.37358 0.17736 0.77231 0.0
O203 O 0.2025 0.15017 0.35736 0.0
O204 O 0.15413 0.14231 0.46279 0.0
C205 C 0.15412 0.14812 0.37667 0.0
C206 C 0.20324 0.20502 0.6821 0.0
O207 O 0.31071 0.19704 0.38594 0.0
O208 O 0.24607 0.07251 0.18382 0.0
O209 O 0.36601 0.20998 0.53294 0.0
O210 O 0.2292 0.14503 0.14069 0.0
O211 O 0.346 0.06952 0.22303 0.0
O212 O 0.32834 0.14771 0.16409 0.0
O213 O 0.28081 0.10413 0.51779 0.0
O214 O 0.2243 0.07918 0.38616 0.0
C215 C 0.34354 0.15613 0.79424 0.0
C216 C 0.44738 0.13931 0.48619 0.0
C217 C 0.97455 0.13813 0.00246 0.0
C218 C -0.01574 0.20614 0.737 0.0
C219 C 0.82727 0.15761 0.55731 0.0
Mg220 Mg 0.88489 0.09766 0.04446 0.0
Mg221 Mg 0.73798 0.0981 0.97735 0.0
O222 O 0.80556 0.10578 0.94227 0.0
Mg223 Mg 0.83308 0.13899 0.86852 0.0
O224 O 0.87615 0.16775 0.8054 0.0
Mg225 Mg 0.92978 0.13759 0.77092 0.0
Mg226 Mg 0.85058 0.20159 0.72364 0.0
C227 C 0.68522 0.12955 0.76526 0.0
O228 O 0.79893 0.18299 0.92298 0.0
O229 O 0.85026 0.05616 0.09437 0.0
O230 O 0.79861 0.21886 0.80877 0.0
O231 O 0.85343 0.12462 0.15134 0.0
O232 O 0.75077 0.0506 0.03337 0.0
O233 O 0.75261 0.12684 0.09957 0.0
O234 O 0.86734 0.0998 0.7985 0.0
O235 O 0.90397 0.06932 0.92652 0.0
C236 C 0.88463 0.07346 0.83431 0.0
C237 C 0.80293 0.04097 0.0852 0.0
O238 O 0.73576 0.13761 0.75502 0.0
O239 O -0.01363 0.17719 0.7478 0.0
O240 O 0.68066 0.11577 0.84073 0.0
O241 O 0.86868 0.14167 0.61647 0.0
O242 O 0.93675 0.22166 0.72841 0.0
O243 O 0.80833 0.18224 0.58327 0.0
O244 O 0.91939 0.13891 -0.00664 0.0
O245 O -0.00823 0.13682 0.92855 0.0
C246 C 0.80374 0.13297 0.1614 0.0
C247 C 0.78641 0.20984 0.88435 0.0
C248 C 0.17907 0.50203 0.27122 0.0
C249 C 0.17054 0.52866 0.31881 0.0
C250 C 0.1923 0.47397 0.32097 0.0
C251 C 0.19941 0.47193 0.42073 0.0
H252 H 0.17622 0.503 0.19537 0.0
H253 H 0.19829 0.45394 0.28174 0.0
S254 S 0.18001 0.53542 0.57692 0.0
N255 N 0.16844 0.55133 0.46923 0.0
N256 N 0.19445 0.49916 0.56396 0.0
C257 C 0.19051 0.49859 0.46857 0.0
C258 C 0.17589 0.52684 0.41733 0.0
C259 C 0.68219 0.51507 0.23985 0.0
C260 C 0.68596 0.51211 0.3378 0.0
C261 C 0.65444 0.49259 0.17158 0.0
C262 C 0.62967 0.46615 0.19871 0.0
H263 H 0.6964 0.53603 0.21419 0.0
H264 H 0.65185 0.4962 0.09667 0.0
S265 S 0.6325 0.44664 0.44873 0.0
N266 N 0.66568 0.48028 0.46007 0.0
N267 N 0.61481 0.43753 0.33253 0.0
C268 C 0.63625 0.4622 0.29774 0.0
C269 C 0.66414 0.48525 0.36702 0.0
C270 C 0.68723 0.49995 0.73316 0.0
C271 C 0.69828 0.50154 0.83398 0.0
C272 C 0.65223 0.52203 0.66976 0.0
C273 C 0.6272 0.54684 0.70458 0.0
H274 H 0.70066 0.47991 0.70203 0.0
H275 H 0.64371 0.51918 0.5925 0.0
S276 S 0.64986 0.56347 0.96436 0.0
N277 N 0.68632 0.53116 0.96688 0.0
N278 N 0.62185 0.57326 0.84836 0.0
C279 C 0.64209 0.54997 0.8061 0.0
C280 C 0.67748 0.52729 0.87051 0.0
C281 C 0.15097 0.54336 0.83956 0.0
C282 C 0.20442 0.54972 0.91636 0.0
C283 C 0.14058 0.51451 0.79514 0.0
C284 C 0.18374 0.49119 0.82477 0.0
H285 H 0.116 0.56045 0.81568 0.0
H286 H 0.09884 0.51059 0.73648 0.0
S287 S 0.33214 0.4967 0.02015 0.0
N288 N 0.30146 0.53058 0.01829 0.0
N289 N 0.28258 0.4767 0.93479 0.0
C290 C 0.23789 0.49755 0.90018 0.0
C291 C 0.24809 0.5267 0.94585 0.0
C292 C 0.85141 0.01621 0.24331 0.0
C293 C 0.8124 0.01349 0.14674 0.0
C294 C 0.87402 0.99065 0.30099 0.0
C295 C 0.8587 0.96105 0.26479 0.0
H296 H 0.86604 0.03852 0.27397 0.0
H297 H 0.90378 0.99426 0.37476 0.0
S298 S 0.75651 0.94157 0.01594 0.0
N299 N 0.7585 0.97923 0.01695 0.0
N300 N 0.80016 0.93058 0.125 0.0
C301 C 0.81878 0.95795 0.16801 0.0
C302 C 0.79556 0.98429 0.10929 0.0
C303 C 0.23181 0.02254 0.0567 0.0
C304 C 0.28466 0.02814 0.13527 0.0
C305 C 0.22037 0.994 0.01157 0.0
C306 C 0.26073 0.96961 0.04412 0.0
H307 H 0.19923 0.04055 0.0286 0.0
H308 H 0.17982 0.99116 0.94961 0.0
S309 S 0.40409 0.97176 0.25118 0.0
N310 N 0.37677 1.00661 0.24639 0.0
N311 N 0.35504 0.95268 0.16233 0.0
C312 C 0.31302 0.97457 0.1246 0.0
C313 C 0.32516 1.00392 0.16968 0.0
C314 C 0.32501 0.01713 0.65879 0.0
C315 C 0.28356 0.99307 0.62899 0.0
C316 C 0.3132 0.04583 0.6128 0.0
C317 C 0.25994 0.05134 0.53438 0.0
H318 H 0.36636 0.01393 0.71895 0.0
H319 H 0.34685 0.06355 0.63718 0.0
S320 S 0.13694 0.99582 0.42846 0.0
N321 N 0.18697 0.97675 0.51614 0.0
N322 N 0.1653 0.03031 0.43001 0.0
C323 C 0.21819 0.02745 0.50425 0.0
C324 C 0.22989 0.99845 0.55134 0.0
C325 C 0.80848 0.02518 0.60835 0.0
C326 C 0.80694 0.99606 0.64777 0.0
C327 C 0.8349 0.04997 0.6688 0.0
C328 C 0.86197 0.04636 0.77064 0.0
H329 H 0.79164 0.02853 0.53018 0.0
H330 H 0.83478 0.07204 0.6351 0.0
S331 S 0.87022 0.97375 0.90767 0.0
N332 N 0.8342 0.9647 0.79326 0.0
N333 N 0.88471 0.01053 0.90674 0.0
C334 C 0.86017 0.01709 0.81026 0.0
C335 C 0.83241 0.99222 0.74895 0.0
C336 C 0.89195 0.35648 0.2475 0.0
C337 C 0.84264 0.36961 0.26631 0.0
C338 C 0.94957 0.35885 0.31464 0.0
C339 C 0.95962 0.37461 0.40251 0.0
H340 H 0.88643 0.34608 0.17755 0.0
H341 H -0.01337 0.34946 0.29534 0.0
S342 S 0.84269 0.40956 0.48968 0.0
N343 N 0.80522 0.39593 0.38097 0.0
N344 N 0.91373 0.40063 0.50911 0.0
C345 C 0.90949 0.38558 0.42549 0.0
C346 C 0.85073 0.38293 0.35681 0.0
C347 C 0.90512 0.63052 0.92335 0.0
C348 C 0.95239 0.64383 0.89731 0.0
C349 C 0.84597 0.63098 0.85959 0.0
C350 C 0.83245 0.6448 0.76819 0.0
H351 H 0.91408 0.61817 -0.00874 0.0
H352 H 0.81179 0.61841 0.87872 0.0
S353 S 0.9361 0.68842 0.67291 0.0
N354 N 0.97916 0.67536 0.77963 0.0
N355 N 0.86764 0.67606 0.65967 0.0
C356 C 0.87777 0.66063 0.74484 0.0
C357 C 0.93798 0.66012 0.80937 0.0
C358 C 0.61233 0.88454 0.09761 0.0
C359 C 0.62331 0.87315 0.1918 0.0
C360 C 0.55363 0.88558 0.03174 0.0
C361 C 0.50416 0.87525 0.05815 0.0
H362 H 0.6485 0.8945 0.07692 0.0
H363 H 0.54698 0.89585 0.96114 0.0
S364 S 0.51278 0.8382 0.29228 0.0
N365 N 0.58277 0.84771 0.30518 0.0
N366 N 0.4724 0.84937 0.18162 0.0
C367 C 0.51582 0.86153 0.15002 0.0
C368 C 0.57548 0.86055 0.21677 0.0
C369 C 0.57731 0.14201 0.72091 0.0
C370 C 0.62762 0.13727 0.69063 0.0
C371 C 0.51957 0.14434 0.65398 0.0
C372 C 0.50968 0.14196 0.55381 0.0
H373 H 0.58222 0.14286 0.79762 0.0
H374 H 0.48232 0.14657 0.68162 0.0
S375 S 0.62776 0.1352 0.43638 0.0
N376 N 0.66521 0.1343 0.55433 0.0
N377 N 0.55626 0.13898 0.42662 0.0
C378 C 0.56023 0.13978 0.52198 0.0
C379 C 0.61937 0.13745 0.59087 0.0
C380 C 0.37164 0.30496 0.12683 0.0
C381 C 0.42584 0.29961 0.20275 0.0
C382 C 0.31689 0.3062 0.14515 0.0
C383 C 0.31501 0.30256 0.23997 0.0
H384 H 0.37233 0.31128 0.05509 0.0
H385 H 0.27699 0.31314 0.08697 0.0
S386 S 0.44349 0.28498 0.46129 0.0
N387 N 0.47346 0.28734 0.37355 0.0
N388 N 0.37069 0.2907 0.4085 0.0
C389 C 0.36791 0.29426 0.31433 0.0
C390 C 0.42349 0.2925 0.29546 0.0
C391 C 0.36325 0.71299 0.62438 0.0
C392 C 0.41718 0.71753 0.70147 0.0
C393 C 0.30792 0.7133 0.64076 0.0
C394 C 0.30527 0.71766 0.73474 0.0
H395 H 0.36434 0.70589 0.55365 0.0
H396 H 0.26803 0.70666 0.58221 0.0
S397 S 0.43293 0.73461 0.95755 0.0
N398 N 0.46399 0.73059 0.87165 0.0
N399 N 0.35997 0.73004 0.90303 0.0
C400 C 0.35808 0.72562 0.8097 0.0
C401 C 0.4143 0.72583 0.79279 0.0
C402 C 0.09329 0.79567 0.31598 0.0
C403 C 0.03907 0.7906 0.23976 0.0
C404 C 0.1475 0.7992 0.29701 0.0
C405 C 0.14883 0.79757 0.20145 0.0
H406 H 0.09263 0.80058 0.38862 0.0
H407 H 0.18715 0.80628 0.35569 0.0
S408 S 0.02052 0.78142 -0.02127 0.0
N409 N -0.00883 0.78089 0.06746 0.0
N410 N 0.09305 0.78793 0.03154 0.0
C411 C 0.09627 0.78936 0.12641 0.0
C412 C 0.0412 0.78557 0.14582 0.0
C413 C 0.14872 0.21615 0.79671 0.0
C414 C 0.15313 0.21981 0.70342 0.0
C415 C 0.09257 0.21649 0.81051 0.0
C416 C 0.03931 0.22064 0.73144 0.0
H417 H 0.18792 0.20965 0.85716 0.0
H418 H 0.0903 0.21013 0.8813 0.0
S419 S 0.02792 0.23518 0.47534 0.0
N420 N 0.1006 0.2308 0.53304 0.0
N421 N -0.00487 0.23214 0.55943 0.0
C422 C 0.04388 0.2279 0.64023 0.0
C423 C 0.10099 0.22726 0.62604 0.0
C424 C 0.36113 0.3631 0.7479 0.0
C425 C 0.36628 0.37611 0.66225 0.0
C426 C 0.40545 0.36674 0.83744 0.0
C427 C 0.4571 0.38372 0.84587 0.0
H428 H 0.32167 0.35023 0.74654 0.0
H429 H 0.39928 0.35583 0.90051 0.0
S430 S 0.49037 0.42519 0.64602 0.0
N431 N 0.42572 0.40793 0.59184 0.0
N432 N 0.5096 0.41556 0.76212 0.0
C433 C 0.46314 0.39722 0.76132 0.0
C434 C 0.41761 0.39322 0.66894 0.0
C435 C 0.40381 0.65693 0.3331 0.0
C436 C 0.44691 0.63384 0.34794 0.0
C437 C 0.3625 0.66235 0.24095 0.0
C438 C 0.36211 0.64461 0.16022 0.0
H439 H 0.40196 0.67096 0.39329 0.0
H440 H 0.32883 0.67985 0.23355 0.0
S441 S 0.46549 0.58113 0.16067 0.0
N442 N 0.4875 0.59321 0.27449 0.0
N443 N 0.40864 0.60324 0.10043 0.0
C444 C 0.406 0.622 0.17308 0.0
C445 C 0.44863 0.61657 0.26742 0.0
C446 C 0.01217 0.85274 0.67585 0.0
C447 C 0.0099 0.87507 0.60505 0.0
C448 C 0.05246 0.85548 0.77093 0.0
C449 C 0.09061 0.88082 0.7976 0.0
H450 H -0.01551 0.83247 0.65645 0.0
H451 H 0.05649 0.83688 0.82184 0.0
S452 S 0.08707 0.94971 0.64726 0.0
N453 N 0.03981 0.9258 0.57258 0.0
N454 N 0.11277 0.93182 0.75303 0.0
C455 C 0.08313 0.90488 0.73061 0.0
C456 C 0.04351 0.90175 0.63342 0.0
C457 C 0.0899 0.17078 0.2238 0.0
C458 C 0.09943 0.14702 0.2923 0.0
C459 C 0.04978 0.16739 0.12938 0.0
C460 C 0.01834 0.14004 0.10045 0.0
H461 H 0.11569 0.19169 0.24226 0.0
H462 H 0.04372 0.18616 0.07837 0.0
S463 S 0.02871 0.07067 0.25138 0.0
N464 N 0.07484 0.09525 0.3251 0.0
N465 N -0.00064 0.08866 0.14642 0.0
C466 C 0.02645 0.11627 0.16853 0.0
C467 C 0.0671 0.11983 0.26512 0.0
C468 C 0.20555 0.37704 0.08087 0.0
C469 C 0.1582 0.35819 0.08614 0.0
C470 C 0.22901 0.37422 0.00459 0.0
C471 C 0.20406 0.35335 0.92906 0.0
H472 H 0.22196 0.39551 0.13203 0.0
H473 H 0.26013 0.39154 -0.00274 0.0
S474 S 0.09291 0.29306 0.9227 0.0
N475 N 0.09789 0.31305 0.02113 0.0
N476 N 0.14059 0.30898 0.87536 0.0
C477 C 0.16383 0.3314 0.94138 0.0
C478 C 0.14045 0.33383 0.01979 0.0
C479 C 0.60189 0.3601 0.52206 0.0
C480 C 0.65146 0.35458 0.49135 0.0
C481 C 0.60941 0.36537 0.61937 0.0
C482 C 0.66703 0.36604 0.68939 0.0
H483 H 0.55677 0.36096 0.46995 0.0
H484 H 0.56979 0.37044 0.63862 0.0
S485 S 0.81036 0.34757 0.64676 0.0
N486 N 0.75873 0.34561 0.53785 0.0
N487 N 0.77414 0.35652 0.72282 0.0
C488 C 0.71676 0.35804 0.6606 0.0
C489 C 0.70867 0.35214 0.56077 0.0
C490 C 0.5857 0.64854 0.02656 0.0
C491 C 0.63506 0.65601 -0.00288 0.0
C492 C 0.59271 0.64363 0.1239 0.0
C493 C 0.64967 0.64543 0.19547 0.0
H494 H 0.54113 0.64606 0.97364 0.0
H495 H 0.55339 0.63696 0.1421 0.0
S496 S 0.79175 0.66868 0.15594 0.0
N497 N 0.74108 0.66864 0.04594 0.0
N498 N 0.75548 0.65872 0.23121 0.0
C499 C 0.6989 0.65507 0.16768 0.0
C500 C 0.69132 0.66047 0.0677 0.0
C501 C 0.15576 0.68632 0.44109 0.0
C502 C 0.19822 0.66568 0.42854 0.0
C503 C 0.1333 0.68289 0.51838 0.0
C504 C 0.15316 0.65897 0.58616 0.0
H505 H 0.13374 0.70238 0.38369 0.0
H506 H 0.09663 0.69752 0.51997 0.0
S507 S 0.27935 0.60606 0.6029 0.0
N508 N 0.27105 0.62626 0.5034 0.0
N509 N 0.22838 0.6191 0.64805 0.0
C510 C 0.20247 0.64138 0.58259 0.0
C511 C 0.22597 0.64538 0.50473 0.0
C512 C 0.86481 0.84697 0.92278 0.0
C513 C 0.81593 0.84957 0.9569 0.0
C514 C 0.85801 0.85289 0.82588 0.0
C515 C 0.80213 0.86194 0.76038 0.0
H516 H 0.90914 0.8413 0.97227 0.0
H517 H 0.89757 0.85183 0.80361 0.0
S518 S 0.6588 0.86814 0.81449 0.0
N519 N 0.70929 0.85836 0.91931 0.0
N520 N 0.69535 0.87005 0.73519 0.0
C521 C 0.75172 0.86232 0.79267 0.0
C522 C 0.75895 0.85606 0.8919 0.0
C523 C 0.3022 0.83379 0.51623 0.0
C524 C 0.26134 0.85592 0.52545 0.0
C525 C 0.32409 0.83454 0.43774 0.0
C526 C 0.30567 0.8574 0.36593 0.0
H527 H 0.3231 0.81835 0.57612 0.0
H528 H 0.35915 0.81859 0.43776 0.0
S529 S 0.18637 0.91505 0.34428 0.0
N530 N 0.19319 0.89673 0.44664 0.0
N531 N 0.23472 0.8988 0.29954 0.0
C532 C 0.25855 0.87695 0.36779 0.0
C533 C 0.23553 0.87567 0.44686 0.0
C534 C 0.2637 0.14412 0.86761 0.0
C535 C 0.31095 0.16319 0.86321 0.0
C536 C 0.24012 0.14651 0.94387 0.0
C537 C 0.26485 0.16714 0.02016 0.0
H538 H 0.24748 0.12582 0.81574 0.0
H539 H 0.2091 0.12903 0.95051 0.0
S540 S 0.37554 0.22789 0.029 0.0
N541 N 0.3708 0.20833 0.92987 0.0
N542 N 0.32794 0.21154 0.07564 0.0
C543 C 0.30493 0.18932 0.00879 0.0
C544 C 0.32841 0.18734 0.93038 0.0
C545 C 0.84204 0.12214 0.33432 0.0
C546 C 0.8055 0.14047 0.25933 0.0
C547 C 0.84394 0.12628 0.42924 0.0
C548 C 0.81104 0.14975 0.45394 0.0
H549 H 0.86917 0.10405 0.31958 0.0
H550 H 0.87397 0.11163 0.48392 0.0
S551 S 0.70056 0.20061 0.28046 0.0
N552 N 0.72834 0.17959 0.21124 0.0
N553 N 0.7351 0.18934 0.39371 0.0
C554 C 0.77132 0.16721 0.37869 0.0
C555 C 0.76788 0.16213 0.28028 0.0
C556 C 0.22179 0.23967 0.39826 0.0
C557 C 0.28173 0.24049 0.4605 0.0
C558 C 0.1781 0.25916 0.41268 0.0
C559 C 0.19199 0.28052 0.48982 0.0
H560 H 0.20812 0.22359 0.33866 0.0
H561 H 0.13272 0.25751 0.36202 0.0
S562 S 0.34196 0.29043 0.67698 0.0
N563 N 0.35255 0.26418 0.60366 0.0
N564 N 0.2703 0.29986 0.63206 0.0
C565 C 0.25162 0.28125 0.55333 0.0
C566 C 0.29633 0.26168 0.53798 0.0
C567 C 0.69563 0.27801 0.90981 0.0
C568 C 0.71275 0.28148 0.01093 0.0
C569 C 0.71838 0.25395 0.86972 0.0
C570 C 0.75893 0.23273 0.92956 0.0
H571 H 0.66339 0.29344 0.86162 0.0
H572 H 0.70405 0.2519 0.79114 0.0
S573 S 0.82401 0.23476 0.19839 0.0
N574 N 0.77644 0.26364 0.17011 0.0
N575 N 0.81929 0.21837 0.09406 0.0
C576 C 0.77751 0.23645 0.03069 0.0
C577 C 0.7545 0.26095 0.07155 0.0
C578 C 0.69651 0.72933 0.42174 0.0
C579 C 0.70714 0.72855 0.52226 0.0
C580 C 0.72059 0.75267 0.38058 0.0
C581 C 0.75609 0.77587 0.43868 0.0
H582 H 0.6682 0.71234 0.37437 0.0
H583 H 0.71101 0.75263 0.30241 0.0
S584 S 0.80291 0.78179 0.70715 0.0
N585 N 0.75947 0.75131 0.68031 0.0
N586 N 0.80439 0.79537 0.60197 0.0
C587 C 0.76825 0.77493 0.5395 0.0
C588 C 0.74404 0.7511 0.58159 0.0
C589 C 0.28425 0.7582 0.02599 0.0
C590 C 0.2704 0.77979 0.94911 0.0
C591 C 0.24061 0.73848 0.03997 0.0
C592 C 0.18075 0.73913 0.97725 0.0
H593 H 0.32945 0.75675 0.07738 0.0
H594 H 0.25424 0.72248 0.10012 0.0
S595 S 0.12196 0.78834 0.757 0.0
N596 N 0.19307 0.79845 0.80437 0.0
N597 N 0.11084 0.76209 0.83071 0.0
C598 C 0.16651 0.76009 0.89846 0.0
C599 C 0.2112 0.78003 0.88401 0.0
loop_
_geom_bond_atom_site_label_1
_geom_bond_atom_site_label_2
_geom_bond_distance
_geom_bond_site_symmetry_2
_ccdc_geom_bond_type
C0 O27 1.312 . S
C0 O28 1.208 . S
C1 O22 1.331 . S
C1 O25 1.244 . S
C2 O24 1.264 . S
C2 O26 1.273 . S
Mg3 O5 1.936 . S
Mg3 O12 2.081 . S
Mg3 O14 2.023 . S
Mg3 O18 2.031 . S
Mg3 O27 2.291 . S
Mg4 O5 1.963 . S
Mg4 O15 1.942 . S
Mg4 O16 1.955 . S
Mg4 O23 1.986 . S
O5 Mg3 1.936 . S
O5 Mg4 1.963 . S
O5 Mg6 1.915 . S
Mg6 O5 1.915 . S
Mg6 O7 1.915 . S
Mg6 O11 2.013 . S
Mg6 O17 2.114 . S
Mg6 O21 2.013 . S
Mg6 O27 2.114 . S
O7 Mg6 1.915 . S
O7 Mg8 1.936 . S
O7 Mg9 1.963 . S
Mg8 O7 1.936 . S
Mg8 O17 2.291 . S
Mg8 O22 2.081 . S
Mg8 O24 2.023 . S
Mg8 O28 2.031 . S
Mg9 O7 1.963 . S
Mg9 O13 1.986 . S
Mg9 O25 1.942 . S
Mg9 O26 1.955 . S
C10 O21 1.191 . S
C10 O23 1.307 . S
O11 Mg6 2.013 . S
O11 C30 1.191 . S
O12 Mg3 2.081 . S
O12 C20 1.331 . S
O13 Mg9 1.986 . S
O13 C30 1.307 . S
O14 Mg3 2.023 . S
O14 C29 1.264 . S
O15 Mg4 1.942 . S
O15 C20 1.244 . S
O16 Mg4 1.955 . S
O16 C29 1.273 . S
O17 Mg6 2.114 . S
O17 Mg8 2.291 . S
O17 C19 1.312 . S
O18 Mg3 2.031 . S
O18 C19 1.208 . S
C19 O17 1.312 . S
C19 O18 1.208 . S
C20 O12 1.331 . S
C20 O15 1.244 . S
O21 Mg6 2.013 . S
O21 C10 1.191 . S
O22 C1 1.331 . S
O22 Mg8 2.081 . S
O23 Mg4 1.986 . S
O23 C10 1.307 . S
O24 C2 1.264 . S
O24 Mg8 2.023 . S
O25 C1 1.244 . S
O25 Mg9 1.942 . S
O26 C2 1.273 . S
O26 Mg9 1.955 . S
O27 C0 1.312 . S
O27 Mg3 2.291 . S
O27 Mg6 2.114 . S
O28 C0 1.208 . S
O28 Mg8 2.031 . S
C29 O14 1.264 . S
C29 O16 1.273 . S
C30 O11 1.191 . S
C30 O13 1.307 . S
C31 O58 1.312 . S
C31 O59 1.208 1_556 S
C32 O53 1.331 . S
C32 O56 1.244 . S
C33 O55 1.264 . S
C33 O57 1.273 . S
Mg34 O36 1.936 . S
Mg34 O43 2.081 . S
Mg34 O45 2.023 . S
Mg34 O49 2.031 . S
Mg34 O58 2.291 . S
Mg35 O36 1.963 . S
Mg35 O46 1.942 . S
Mg35 O47 1.955 . S
Mg35 O54 1.986 1_556 S
O36 Mg34 1.936 . S
O36 Mg35 1.963 . S
O36 Mg37 1.915 1_556 S
Mg37 O36 1.915 1_554 S
Mg37 O38 1.915 . S
Mg37 O42 2.013 1_554 S
Mg37 O48 2.114 . S
Mg37 O52 2.013 . S
Mg37 O58 2.114 1_554 S
O38 Mg37 1.915 . S
O38 Mg39 1.936 . S
O38 Mg40 1.963 . S
Mg39 O38 1.936 . S
Mg39 O48 2.291 . S
Mg39 O53 2.081 . S
Mg39 O55 2.023 . S
Mg39 O59 2.031 . S
Mg40 O38 1.963 . S
Mg40 O44 1.986 . S
Mg40 O56 1.942 . S
Mg40 O57 1.955 . S
C41 O52 1.191 . S
C41 O54 1.307 . S
O42 Mg37 2.013 1_556 S
O42 C61 1.191 1_556 S
O43 Mg34 2.081 . S
O43 C51 1.331 . S
O44 Mg40 1.986 . S
O44 C61 1.307 . S
O45 Mg34 2.023 . S
O45 C60 1.264 . S
O46 Mg35 1.942 . S
O46 C51 1.244 . S
O47 Mg35 1.955 . S
O47 C60 1.273 . S
O48 Mg37 2.114 . S
O48 Mg39 2.291 . S
O48 C50 1.312 . S
O49 Mg34 2.031 . S
O49 C50 1.208 1_556 S
C50 O48 1.312 . S
C50 O49 1.208 1_554 S
C51 O43 1.331 . S
C51 O46 1.244 . S
O52 Mg37 2.013 . S
O52 C41 1.191 . S
O53 C32 1.331 . S
O53 Mg39 2.081 . S
O54 Mg35 1.986 1_554 S
O54 C41 1.307 . S
O55 C33 1.264 . S
O55 Mg39 2.023 . S
O56 C32 1.244 . S
O56 Mg40 1.942 . S
O57 C33 1.273 . S
O57 Mg40 1.955 . S
O58 C31 1.312 . S
O58 Mg34 2.291 . S
O58 Mg37 2.114 1_556 S
O59 C31 1.208 1_554 S
O59 Mg39 2.031 . S
C60 O45 1.264 . S
C60 O47 1.273 . S
C61 O42 1.191 1_554 S
C61 O44 1.307 . S
C62 O89 1.312 . S
C62 O90 1.208 . S
C63 O84 1.331 . S
C63 O87 1.244 . S
C64 O86 1.264 . S
C64 O88 1.273 . S
Mg65 O67 1.936 . S
Mg65 O74 2.081 . S
Mg65 O76 2.023 . S
Mg65 O80 2.031 . S
Mg65 O89 2.291 . S
Mg66 O67 1.963 . S
Mg66 O77 1.942 . S
Mg66 O78 1.955 . S
Mg66 O85 1.986 . S
O67 Mg65 1.936 . S
O67 Mg66 1.963 . S
O67 Mg68 1.915 . S
Mg68 O67 1.915 . S
Mg68 O69 1.915 . S
Mg68 O73 2.013 . S
Mg68 O79 2.114 . S
Mg68 O83 2.013 . S
Mg68 O89 2.114 . S
O69 Mg68 1.915 . S
O69 Mg70 1.936 . S
O69 Mg71 1.963 . S
Mg70 O69 1.936 . S
Mg70 O79 2.291 . S
Mg70 O84 2.081 . S
Mg70 O86 2.023 . S
Mg70 O90 2.031 . S
Mg71 O69 1.963 . S
Mg71 O75 1.986 . S
Mg71 O87 1.942 . S
Mg71 O88 1.955 . S
C72 O83 1.191 . S
C72 O85 1.307 . S
O73 Mg68 2.013 . S
O73 C92 1.191 . S
O74 Mg65 2.081 . S
O74 C82 1.331 . S
O75 Mg71 1.986 . S
O75 C92 1.307 . S
O76 Mg65 2.023 . S
O76 C91 1.264 . S
O77 Mg66 1.942 . S
O77 C82 1.244 . S
O78 Mg66 1.955 . S
O78 C91 1.273 . S
O79 Mg68 2.114 . S
O79 Mg70 2.291 . S
O79 C81 1.312 . S
O80 Mg65 2.031 . S
O80 C81 1.208 . S
C81 O79 1.312 . S
C81 O80 1.208 . S
C82 O74 1.331 . S
C82 O77 1.244 . S
O83 Mg68 2.013 . S
O83 C72 1.191 . S
O84 C63 1.331 . S
O84 Mg70 2.081 . S
O85 Mg66 1.986 . S
O85 C72 1.307 . S
O86 C64 1.264 . S
O86 Mg70 2.023 . S
O87 C63 1.244 . S
O87 Mg71 1.942 . S
O88 C64 1.273 . S
O88 Mg71 1.955 . S
O89 C62 1.312 . S
O89 Mg65 2.291 . S
O89 Mg68 2.114 . S
O90 C62 1.208 . S
O90 Mg70 2.031 . S
C91 O76 1.264 . S
C91 O78 1.273 . S
C92 O73 1.191 . S
C92 O75 1.307 . S
C93 O120 1.312 . S
C93 O121 1.208 1_554 S
C94 O115 1.331 . S
C94 O118 1.244 . S
C95 O117 1.264 . S
C95 O119 1.273 . S
Mg96 O98 1.936 . S
Mg96 O105 2.081 . S
Mg96 O107 2.023 . S
Mg96 O111 2.031 . S
Mg96 O120 2.291 . S
Mg97 O98 1.963 . S
Mg97 O108 1.942 . S
Mg97 O109 1.955 . S
Mg97 O116 1.986 1_554 S
O98 Mg96 1.936 . S
O98 Mg97 1.963 . S
O98 Mg99 1.915 1_554 S
Mg99 O98 1.915 1_556 S
Mg99 O100 1.915 . S
Mg99 O104 2.013 1_556 S
Mg99 O110 2.114 . S
Mg99 O114 2.013 . S
Mg99 O120 2.114 1_556 S
O100 Mg99 1.915 . S
O100 Mg101 1.936 . S
O100 Mg102 1.963 . S
Mg101 O100 1.936 . S
Mg101 O110 2.291 . S
Mg101 O115 2.081 . S
Mg101 O117 2.023 . S
Mg101 O121 2.031 . S
Mg102 O100 1.963 . S
Mg102 O106 1.986 . S
Mg102 O118 1.942 . S
Mg102 O119 1.955 . S
C103 O114 1.191 . S
C103 O116 1.307 . S
O104 Mg99 2.013 1_554 S
O104 C123 1.191 1_554 S
O105 Mg96 2.081 . S
O105 C113 1.331 . S
O106 Mg102 1.986 . S
O106 C123 1.307 . S
O107 Mg96 2.023 . S
O107 C122 1.264 . S
O108 Mg97 1.942 . S
O108 C113 1.244 . S
O109 Mg97 1.955 . S
O109 C122 1.273 . S
O110 Mg99 2.114 . S
O110 Mg101 2.291 . S
O110 C112 1.312 . S
O111 Mg96 2.031 . S
O111 C112 1.208 1_554 S
C112 O110 1.312 . S
C112 O111 1.208 1_556 S
C113 O105 1.331 . S
C113 O108 1.244 . S
O114 Mg99 2.013 . S
O114 C103 1.191 . S
O115 C94 1.331 . S
O115 Mg101 2.081 . S
O116 Mg97 1.986 1_556 S
O116 C103 1.307 . S
O117 C95 1.264 . S
O117 Mg101 2.023 . S
O118 C94 1.244 . S
O118 Mg102 1.942 . S
O119 C95 1.273 . S
O119 Mg102 1.955 . S
O120 C93 1.312 . S
O120 Mg96 2.291 . S
O120 Mg99 2.114 1_554 S
O121 C93 1.208 1_556 S
O121 Mg101 2.031 . S
C122 O107 1.264 . S
C122 O109 1.273 . S
C123 O104 1.191 1_556 S
C123 O106 1.307 . S
C124 O151 1.312 . S
C124 O152 1.208 . S
C125 O146 1.331 . S
C125 O149 1.244 . S
C126 O148 1.264 . S
C126 O150 1.273 . S
Mg127 O129 1.936 . S
Mg127 O136 2.081 . S
Mg127 O138 2.023 . S
Mg127 O142 2.031 . S
Mg127 O151 2.291 . S
Mg128 O129 1.963 . S
Mg128 O139 1.942 . S
Mg128 O140 1.955 . S
Mg128 O147 1.986 . S
O129 Mg127 1.936 . S
O129 Mg128 1.963 . S
O129 Mg130 1.915 . S
Mg130 O129 1.915 . S
Mg130 O131 1.915 . S
Mg130 O135 2.013 . S
Mg130 O141 2.114 . S
Mg130 O145 2.013 . S
Mg130 O151 2.114 . S
O131 Mg130 1.915 . S
O131 Mg132 1.936 . S
O131 Mg133 1.963 . S
Mg132 O131 1.936 . S
Mg132 O141 2.291 . S
Mg132 O146 2.081 . S
Mg132 O148 2.023 . S
Mg132 O152 2.031 . S
Mg133 O131 1.963 . S
Mg133 O137 1.986 . S
Mg133 O149 1.942 . S
Mg133 O150 1.955 . S
C134 O145 1.191 . S
C134 O147 1.307 . S
O135 Mg130 2.013 . S
O135 C154 1.191 . S
O136 Mg127 2.081 . S
O136 C144 1.331 . S
O137 Mg133 1.986 . S
O137 C154 1.307 . S
O138 Mg127 2.023 . S
O138 C153 1.264 . S
O139 Mg128 1.942 . S
O139 C144 1.244 . S
O140 Mg128 1.955 . S
O140 C153 1.273 . S
O141 Mg130 2.114 . S
O141 Mg132 2.291 . S
O141 C143 1.312 . S
O142 Mg127 2.031 . S
O142 C143 1.208 . S
C143 O141 1.312 . S
C143 O142 1.208 . S
C144 O136 1.331 . S
C144 O139 1.244 . S
O145 Mg130 2.013 . S
O145 C134 1.191 . S
O146 C125 1.331 . S
O146 Mg132 2.081 . S
O147 Mg128 1.986 . S
O147 C134 1.307 . S
O148 C126 1.264 . S
O148 Mg132 2.023 . S
O149 C125 1.244 . S
O149 Mg133 1.942 . S
O150 C126 1.273 . S
O150 Mg133 1.955 . S
O151 C124 1.312 . S
O151 Mg127 2.291 . S
O151 Mg130 2.114 . S
O152 C124 1.208 . S
O152 Mg132 2.031 . S
C153 O138 1.264 . S
C153 O140 1.273 . S
C154 O135 1.191 . S
C154 O137 1.307 . S
C155 O182 1.312 . S
C155 O183 1.208 1_556 S
C156 O177 1.331 . S
C156 O180 1.244 . S
C157 O179 1.264 . S
C157 O181 1.273 . S
Mg158 O160 1.936 . S
Mg158 O167 2.081 . S
Mg158 O169 2.023 . S
Mg158 O173 2.031 . S
Mg158 O182 2.291 . S
Mg159 O160 1.963 . S
Mg159 O170 1.942 . S
Mg159 O171 1.955 . S
Mg159 O178 1.986 1_556 S
O160 Mg158 1.936 . S
O160 Mg159 1.963 . S
O160 Mg161 1.915 1_556 S
Mg161 O160 1.915 1_554 S
Mg161 O162 1.915 . S
Mg161 O166 2.013 1_554 S
Mg161 O172 2.114 . S
Mg161 O176 2.013 . S
Mg161 O182 2.114 1_554 S
O162 Mg161 1.915 . S
O162 Mg163 1.936 . S
O162 Mg164 1.963 . S
Mg163 O162 1.936 . S
Mg163 O172 2.291 . S
Mg163 O177 2.081 . S
Mg163 O179 2.023 . S
Mg163 O183 2.031 . S
Mg164 O162 1.963 . S
Mg164 O168 1.986 . S
Mg164 O180 1.942 . S
Mg164 O181 1.955 . S
C165 O176 1.191 . S
C165 O178 1.307 . S
O166 Mg161 2.013 1_556 S
O166 C185 1.191 1_556 S
O167 Mg158 2.081 . S
O167 C175 1.331 . S
O168 Mg164 1.986 . S
O168 C185 1.307 . S
O169 Mg158 2.023 . S
O169 C184 1.264 . S
O170 Mg159 1.942 . S
O170 C175 1.244 . S
O171 Mg159 1.955 . S
O171 C184 1.273 . S
O172 Mg161 2.114 . S
O172 Mg163 2.291 . S
O172 C174 1.312 . S
O173 Mg158 2.031 . S
O173 C174 1.208 1_556 S
C174 O172 1.312 . S
C174 O173 1.208 1_554 S
C175 O167 1.331 . S
C175 O170 1.244 . S
O176 Mg161 2.013 . S
O176 C165 1.191 . S
O177 C156 1.331 . S
O177 Mg163 2.081 . S
O178 Mg159 1.986 1_554 S
O178 C165 1.307 . S
O179 C157 1.264 . S
O179 Mg163 2.023 . S
O180 C156 1.244 . S
O180 Mg164 1.942 . S
O181 C157 1.273 . S
O181 Mg164 1.955 . S
O182 C155 1.312 . S
O182 Mg158 2.291 . S
O182 Mg161 2.114 1_556 S
O183 C155 1.208 1_554 S
O183 Mg163 2.031 . S
C184 O169 1.264 . S
C184 O171 1.273 . S
C185 O166 1.191 1_554 S
C185 O168 1.307 . S
C186 O213 1.312 . S
C186 O214 1.208 . S
C187 O208 1.331 . S
C187 O211 1.244 . S
C188 O210 1.264 . S
C188 O212 1.273 . S
Mg189 O191 1.936 . S
Mg189 O198 2.081 . S
Mg189 O200 2.023 . S
Mg189 O204 2.031 . S
Mg189 O213 2.291 . S
Mg190 O191 1.963 . S
Mg190 O201 1.942 . S
Mg190 O202 1.955 . S
Mg190 O209 1.986 . S
O191 Mg189 1.936 . S
O191 Mg190 1.963 . S
O191 Mg192 1.915 . S
Mg192 O191 1.915 . S
Mg192 O193 1.915 . S
Mg192 O197 2.013 . S
Mg192 O203 2.114 . S
Mg192 O207 2.013 . S
Mg192 O213 2.114 . S
O193 Mg192 1.915 . S
O193 Mg194 1.936 . S
O193 Mg195 1.963 . S
Mg194 O193 1.936 . S
Mg194 O203 2.291 . S
Mg194 O208 2.081 . S
Mg194 O210 2.023 . S
Mg194 O214 2.031 . S
Mg195 O193 1.963 . S
Mg195 O199 1.986 . S
Mg195 O211 1.942 . S
Mg195 O212 1.955 . S
C196 O207 1.191 . S
C196 O209 1.307 . S
O197 Mg192 2.013 . S
O197 C216 1.191 . S
O198 Mg189 2.081 . S
O198 C206 1.331 . S
O199 Mg195 1.986 . S
O199 C216 1.307 . S
O200 Mg189 2.023 . S
O200 C215 1.264 . S
O201 Mg190 1.942 . S
O201 C206 1.244 . S
O202 Mg190 1.955 . S
O202 C215 1.273 . S
O203 Mg192 2.114 . S
O203 Mg194 2.291 . S
O203 C205 1.312 . S
O204 Mg189 2.031 . S
O204 C205 1.208 . S
C205 O203 1.312 . S
C205 O204 1.208 . S
C206 O198 1.331 . S
C206 O201 1.244 . S
O207 Mg192 2.013 . S
O207 C196 1.191 . S
O208 C187 1.331 . S
O208 Mg194 2.081 . S
O209 Mg190 1.986 . S
O209 C196 1.307 . S
O210 C188 1.264 . S
O210 Mg194 2.023 . S
O211 C187 1.244 . S
O211 Mg195 1.942 . S
O212 C188 1.273 . S
O212 Mg195 1.955 . S
O213 C186 1.312 . S
O213 Mg189 2.291 . S
O213 Mg192 2.114 . S
O214 C186 1.208 . S
O214 Mg194 2.031 . S
C215 O200 1.264 . S
C215 O202 1.273 . S
C216 O197 1.191 . S
C216 O199 1.307 . S
C217 O244 1.312 . S
C217 O245 1.208 1_554 S
C218 O239 1.331 . S
C218 O242 1.244 . S
C219 O241 1.264 . S
C219 O243 1.273 . S
Mg220 O222 1.936 . S
Mg220 O229 2.081 . S
Mg220 O231 2.023 . S
Mg220 O235 2.031 . S
Mg220 O244 2.291 . S
Mg221 O222 1.963 . S
Mg221 O232 1.942 . S
Mg221 O233 1.955 . S
Mg221 O240 1.986 1_554 S
O222 Mg220 1.936 . S
O222 Mg221 1.963 . S
O222 Mg223 1.915 1_554 S
Mg223 O222 1.915 1_556 S
Mg223 O224 1.915 . S
Mg223 O228 2.013 1_556 S
Mg223 O234 2.114 . S
Mg223 O238 2.013 . S
Mg223 O244 2.114 1_556 S
O224 Mg223 1.915 . S
O224 Mg225 1.936 . S
O224 Mg226 1.963 . S
Mg225 O224 1.936 . S
Mg225 O234 2.291 . S
Mg225 O239 2.081 . S
Mg225 O241 2.023 . S
Mg225 O245 2.031 . S
Mg226 O224 1.963 . S
Mg226 O230 1.986 . S
Mg226 O242 1.942 . S
Mg226 O243 1.955 . S
C227 O238 1.191 . S
C227 O240 1.307 . S
O228 Mg223 2.013 1_554 S
O228 C247 1.191 1_554 S
O229 Mg220 2.081 . S
O229 C237 1.331 . S
O230 Mg226 1.986 . S
O230 C247 1.307 . S
O231 Mg220 2.023 . S
O231 C246 1.264 . S
O232 Mg221 1.942 . S
O232 C237 1.244 . S
O233 Mg221 1.955 . S
O233 C246 1.273 . S
O234 Mg223 2.114 . S
O234 Mg225 2.291 . S
O234 C236 1.312 . S
O235 Mg220 2.031 . S
O235 C236 1.208 1_554 S
C236 O234 1.312 . S
C236 O235 1.208 1_556 S
C237 O229 1.331 . S
C237 O232 1.244 . S
O238 Mg223 2.013 . S
O238 C227 1.191 . S
O239 C218 1.331 . S
O239 Mg225 2.081 . S
O240 Mg221 1.986 1_556 S
O240 C227 1.307 . S
O241 C219 1.264 . S
O241 Mg225 2.023 . S
O242 C218 1.244 . S
O242 Mg226 1.942 . S
O243 C219 1.273 . S
O243 Mg226 1.955 . S
O244 C217 1.312 . S
O244 Mg220 2.291 . S
O244 Mg223 2.114 1_554 S
O245 C217 1.208 1_556 S
O245 Mg225 2.031 . S
C246 O231 1.264 . S
C246 O233 1.273 . S
C247 O228 1.191 1_556 S
C247 O230 1.307 . S
C248 C249 1.369 . S
C248 C250 1.419 . S
C248 H252 0.930 . S
C249 C248 1.369 . S
C249 C258 1.429 . S
C250 C248 1.419 . S
C250 C251 1.363 . S
C250 H253 0.929 . S
C251 C250 1.363 . S
C251 C257 1.428 . S
H252 C248 0.930 . S
H253 C250 0.929 . S
S254 N255 1.613 . S
S254 N256 1.610 . S
N255 S254 1.613 . S
N255 C258 1.350 . S
N256 S254 1.610 . S
N256 C257 1.351 . S
C257 C251 1.428 . S
C257 N256 1.351 . S
C257 C258 1.434 . S
C258 C249 1.429 . S
C258 N255 1.350 . S
C258 C257 1.434 . S
C259 C260 1.369 . S
C259 C261 1.419 . S
C259 H263 0.930 . S
C260 C259 1.369 . S
C260 C269 1.429 . S
C261 C259 1.419 . S
C261 C262 1.363 . S
C261 H264 0.929 . S
C262 C261 1.363 . S
C262 C268 1.428 . S
H263 C259 0.930 . S
H264 C261 0.929 . S
S265 N266 1.613 . S
S265 N267 1.610 . S
N266 S265 1.613 . S
N266 C269 1.350 . S
N267 S265 1.610 . S
N267 C268 1.351 . S
C268 C262 1.428 . S
C268 N267 1.351 . S
C268 C269 1.434 . S
C269 C260 1.429 . S
C269 N266 1.350 . S
C269 C268 1.434 . S
C270 C271 1.369 . S
C270 C272 1.419 . S
C270 H274 0.930 . S
C271 C270 1.369 . S
C271 C280 1.429 . S
C272 C270 1.419 . S
C272 C273 1.363 . S
C272 H275 0.929 . S
C273 C272 1.363 . S
C273 C279 1.428 . S
H274 C270 0.930 . S
H275 C272 0.929 . S
S276 N277 1.613 . S
S276 N278 1.610 . S
N277 S276 1.613 . S
N277 C280 1.350 . S
N278 S276 1.610 . S
N278 C279 1.351 . S
C279 C273 1.428 . S
C279 N278 1.351 . S
C279 C280 1.434 . S
C280 C271 1.429 . S
C280 N277 1.350 . S
C280 C279 1.434 . S
C281 C282 1.369 . S
C281 C283 1.419 . S
C281 H285 0.930 . S
C282 C281 1.369 . S
C282 C291 1.429 . S
C283 C281 1.419 . S
C283 C284 1.363 . S
C283 H286 0.929 . S
C284 C283 1.363 . S
C284 C290 1.428 . S
H285 C281 0.930 . S
H286 C283 0.929 . S
S287 N288 1.613 . S
S287 N289 1.610 . S
N288 S287 1.613 . S
N288 C291 1.350 . S
N289 S287 1.610 . S
N289 C290 1.351 . S
C290 C284 1.428 . S
C290 N289 1.351 . S
C290 C291 1.434 . S
C291 C282 1.429 . S
C291 N288 1.350 . S
C291 C290 1.434 . S
C292 C293 1.369 . S
C292 C294 1.419 1_545 S
C292 H296 0.930 . S
C293 C292 1.369 . S
C293 C302 1.429 . S
C294 C292 1.419 1_565 S
C294 C295 1.363 . S
C294 H297 0.929 . S
C295 C294 1.363 . S
C295 C301 1.428 . S
H296 C292 0.930 . S
H297 C294 0.929 . S
S298 N299 1.613 . S
S298 N300 1.610 1_545 S
N299 S298 1.613 . S
N299 C302 1.350 . S
N300 S298 1.610 1_565 S
N300 C301 1.351 . S
C301 C295 1.428 . S
C301 N300 1.351 . S
C301 C302 1.434 1_565 S
C302 C293 1.429 . S
C302 N299 1.350 . S
C302 C301 1.434 1_545 S
C303 C304 1.369 . S
C303 C305 1.419 . S
C303 H307 0.930 . S
C304 C303 1.369 . S
C304 C313 1.429 1_545 S
C305 C303 1.419 . S
C305 C306 1.363 1_545 S
C305 H308 0.929 . S
C306 C305 1.363 1_565 S
C306 C312 1.428 . S
H307 C303 0.930 . S
H308 C305 0.929 . S
S309 N310 1.613 . S
S309 N311 1.610 . S
N310 S309 1.613 . S
N310 C313 1.350 . S
N311 S309 1.610 . S
N311 C312 1.351 . S
C312 C306 1.428 . S
C312 N311 1.351 . S
C312 C313 1.434 . S
C313 C304 1.429 1_565 S
C313 N310 1.350 . S
C313 C312 1.434 . S
C314 C315 1.369 1_545 S
C314 C316 1.419 . S
C314 H318 0.930 . S
C315 C314 1.369 1_565 S
C315 C324 1.429 . S
C316 C314 1.419 . S
C316 C317 1.363 . S
C316 H319 0.929 . S
C317 C316 1.363 . S
C317 C323 1.428 1_545 S
H318 C314 0.930 . S
H319 C316 0.929 . S
S320 N321 1.613 . S
S320 N322 1.610 . S
N321 S320 1.613 . S
N321 C324 1.350 . S
N322 S320 1.610 . S
N322 C323 1.351 . S
C323 C317 1.428 1_565 S
C323 N322 1.351 . S
C323 C324 1.434 . S
C324 C315 1.429 . S
C324 N321 1.350 . S
C324 C323 1.434 . S
C325 C326 1.369 1_545 S
C325 C327 1.419 . S
C325 H329 0.930 . S
C326 C325 1.369 1_565 S
C326 C335 1.429 . S
C327 C325 1.419 . S
C327 C328 1.363 . S
C327 H330 0.929 . S
C328 C327 1.363 . S
C328 C334 1.428 1_545 S
H329 C325 0.930 . S
H330 C327 0.929 . S
S331 N332 1.613 . S
S331 N333 1.610 . S
N332 S331 1.613 . S
N332 C335 1.350 . S
N333 S331 1.610 . S
N333 C334 1.351 . S
C334 C328 1.428 1_565 S
C334 N333 1.351 . S
C334 C335 1.434 . S
C335 C326 1.429 . S
C335 N332 1.350 . S
C335 C334 1.434 . S
C336 C337 1.369 . S
C336 C338 1.419 1_655 S
C336 H340 0.930 . S
C337 C336 1.369 . S
C337 C346 1.429 . S
C338 C336 1.419 1_455 S
C338 C339 1.363 . S
C338 H341 0.929 . S
C339 C338 1.363 . S
C339 C345 1.428 . S
H340 C336 0.930 . S
H341 C338 0.929 . S
S342 N343 1.613 . S
S342 N344 1.610 1_655 S
N343 S342 1.613 . S
N343 C346 1.350 . S
N344 S342 1.610 1_455 S
N344 C345 1.351 . S
C345 C339 1.428 . S
C345 N344 1.351 . S
C345 C346 1.434 1_455 S
C346 C337 1.429 . S
C346 N343 1.350 . S
C346 C345 1.434 1_655 S
C347 C348 1.369 . S
C347 C349 1.419 1_455 S
C347 H351 0.930 . S
C348 C347 1.369 . S
C348 C357 1.429 . S
C349 C347 1.419 1_655 S
C349 C350 1.363 . S
C349 H352 0.929 . S
C350 C349 1.363 . S
C350 C356 1.428 . S
H351 C347 0.930 . S
H352 C349 0.929 . S
S353 N354 1.613 . S
S353 N355 1.610 1_455 S
N354 S353 1.613 . S
N354 C357 1.350 . S
N355 S353 1.610 1_655 S
N355 C356 1.351 . S
C356 C350 1.428 . S
C356 N355 1.351 . S
C356 C357 1.434 1_655 S
C357 C348 1.429 . S
C357 N354 1.350 . S
C357 C356 1.434 1_455 S
C358 C359 1.369 . S
C358 C360 1.419 . S
C358 H362 0.930 . S
C359 C358 1.369 . S
C359 C368 1.429 . S
C360 C358 1.419 . S
C360 C361 1.363 . S
C360 H363 0.929 . S
C361 C360 1.363 . S
C361 C367 1.428 . S
H362 C358 0.930 . S
H363 C360 0.929 . S
S364 N365 1.613 . S
S364 N366 1.610 . S
N365 S364 1.613 . S
N365 C368 1.350 . S
N366 S364 1.610 . S
N366 C367 1.351 . S
C367 C361 1.428 . S
C367 N366 1.351 . S
C367 C368 1.434 . S
C368 C359 1.429 . S
C368 N365 1.350 . S
C368 C367 1.434 . S
C369 C370 1.369 . S
C369 C371 1.419 . S
C369 H373 0.930 . S
C370 C369 1.369 . S
C370 C379 1.429 . S
C371 C369 1.419 . S
C371 C372 1.363 . S
C371 H374 0.929 . S
C372 C371 1.363 . S
C372 C378 1.428 . S
H373 C369 0.930 . S
H374 C371 0.929 . S
S375 N376 1.613 . S
S375 N377 1.610 . S
N376 S375 1.613 . S
N376 C379 1.350 . S
N377 S375 1.610 . S
N377 C378 1.351 . S
C378 C372 1.428 . S
C378 N377 1.351 . S
C378 C379 1.434 . S
C379 C370 1.429 . S
C379 N376 1.350 . S
C379 C378 1.434 . S
C380 C381 1.369 . S
C380 C382 1.419 . S
C380 H384 0.930 . S
C381 C380 1.369 . S
C381 C390 1.429 . S
C382 C380 1.419 . S
C382 C383 1.363 . S
C382 H385 0.929 . S
C383 C382 1.363 . S
C383 C389 1.428 . S
H384 C380 0.930 . S
H385 C382 0.929 . S
S386 N387 1.613 . S
S386 N388 1.610 . S
N387 S386 1.613 . S
N387 C390 1.350 . S
N388 S386 1.610 . S
N388 C389 1.351 . S
C389 C383 1.428 . S
C389 N388 1.351 . S
C389 C390 1.434 . S
C390 C381 1.429 . S
C390 N387 1.350 . S
C390 C389 1.434 . S
C391 C392 1.369 . S
C391 C393 1.419 . S
C391 H395 0.930 . S
C392 C391 1.369 . S
C392 C401 1.429 . S
C393 C391 1.419 . S
C393 C394 1.363 . S
C393 H396 0.929 . S
C394 C393 1.363 . S
C394 C400 1.428 . S
H395 C391 0.930 . S
H396 C393 0.929 . S
S397 N398 1.613 . S
S397 N399 1.610 . S
N398 S397 1.613 . S
N398 C401 1.350 . S
N399 S397 1.610 . S
N399 C400 1.351 . S
C400 C394 1.428 . S
C400 N399 1.351 . S
C400 C401 1.434 . S
C401 C392 1.429 . S
C401 N398 1.350 . S
C401 C400 1.434 . S
C402 C403 1.374 . S
C402 C404 1.411 1_655 S
C402 H406 0.932 1_655 S
C403 C402 1.374 . S
C403 C412 1.429 . S
C404 C402 1.411 1_455 S
C404 C405 1.363 . S
C404 H407 0.929 . S
C405 C404 1.363 . S
C405 C411 1.428 1_455 S
H406 C402 0.932 1_455 S
H407 C404 0.929 . S
S408 N409 1.613 . S
S408 N410 1.610 . S
N409 S408 1.613 . S
N409 C412 1.350 . S
N410 S408 1.610 . S
N410 C411 1.351 . S
C411 C405 1.428 1_655 S
C411 N410 1.351 . S
C411 C412 1.434 . S
C412 C403 1.429 . S
C412 N409 1.350 . S
C412 C411 1.434 . S
C413 C414 1.369 . S
C413 C415 1.419 1_455 S
C413 H417 0.930 . S
C414 C413 1.369 . S
C414 C423 1.429 . S
C415 C413 1.419 1_655 S
C415 C416 1.363 . S
C415 H418 0.929 . S
C416 C415 1.363 . S
C416 C422 1.428 . S
H417 C413 0.930 . S
H418 C415 0.929 . S
S419 N420 1.609 1_655 S
S419 N421 1.610 . S
N420 S419 1.609 1_455 S
N420 C423 1.349 . S
N421 S419 1.610 . S
N421 C422 1.351 . S
C422 C416 1.428 . S
C422 N421 1.351 . S
C422 C423 1.434 1_655 S
C423 C414 1.429 . S
C423 N420 1.349 . S
C423 C422 1.434 1_455 S
C424 C425 1.369 . S
C424 C426 1.419 . S
C424 H428 0.930 . S
C425 C424 1.369 . S
C425 C434 1.429 . S
C426 C424 1.419 . S
C426 C427 1.363 . S
C426 H429 0.929 . S
C427 C426 1.363 . S
C427 C433 1.428 . S
H428 C424 0.930 . S
H429 C426 0.929 . S
S430 N431 1.613 . S
S430 N432 1.610 . S
N431 S430 1.613 . S
N431 C434 1.350 . S
N432 S430 1.610 . S
N432 C433 1.351 . S
C433 C427 1.428 . S
C433 N432 1.351 . S
C433 C434 1.434 . S
C434 C425 1.429 . S
C434 N431 1.350 . S
C434 C433 1.434 . S
C435 C436 1.369 . S
C435 C437 1.419 . S
C435 H439 0.930 . S
C436 C435 1.369 . S
C436 C445 1.429 . S
C437 C435 1.419 . S
C437 C438 1.363 . S
C437 H440 0.929 . S
C438 C437 1.363 . S
C438 C444 1.428 . S
H439 C435 0.930 . S
H440 C437 0.929 . S
S441 N442 1.613 . S
S441 N443 1.610 . S
N442 S441 1.613 . S
N442 C445 1.350 . S
N443 S441 1.610 . S
N443 C444 1.351 . S
C444 C438 1.428 . S
C444 N443 1.351 . S
C444 C445 1.434 . S
C445 C436 1.429 . S
C445 N442 1.350 . S
C445 C444 1.434 . S
C446 C447 1.369 . S
C446 C448 1.419 1_655 S
C446 H450 0.930 . S
C447 C446 1.369 . S
C447 C456 1.429 . S
C448 C446 1.419 1_455 S
C448 C449 1.363 . S
C448 H451 0.929 . S
C449 C448 1.363 . S
C449 C455 1.428 . S
H450 C446 0.930 . S
H451 C448 0.929 . S
S452 N453 1.613 1_455 S
S452 N454 1.610 . S
N453 S452 1.613 1_655 S
N453 C456 1.350 . S
N454 S452 1.610 . S
N454 C455 1.351 . S
C455 C449 1.428 . S
C455 N454 1.351 . S
C455 C456 1.434 1_455 S
C456 C447 1.429 . S
C456 N453 1.350 . S
C456 C455 1.434 1_655 S
C457 C458 1.369 . S
C457 C459 1.419 1_455 S
C457 H461 0.930 . S
C458 C457 1.369 . S
C458 C467 1.429 . S
C459 C457 1.419 1_655 S
C459 C460 1.363 . S
C459 H462 0.929 . S
C460 C459 1.363 . S
C460 C466 1.428 . S
H461 C457 0.930 . S
H462 C459 0.929 . S
S463 N464 1.613 1_655 S
S463 N465 1.610 . S
N464 S463 1.613 1_455 S
N464 C467 1.350 . S
N465 S463 1.610 . S
N465 C466 1.351 . S
C466 C460 1.428 . S
C466 N465 1.351 . S
C466 C467 1.434 1_655 S
C467 C458 1.429 . S
C467 N464 1.350 . S
C467 C466 1.434 1_455 S
C468 C469 1.369 . S
C468 C470 1.419 1_554 S
C468 H472 0.930 . S
C469 C468 1.369 . S
C469 C478 1.429 1_554 S
C470 C468 1.419 1_556 S
C470 C471 1.363 . S
C470 H473 0.929 . S
C471 C470 1.363 . S
C471 C477 1.428 . S
H472 C468 0.930 . S
H473 C470 0.929 . S
S474 N475 1.613 . S
S474 N476 1.610 . S
N475 S474 1.613 . S
N475 C478 1.350 . S
N476 S474 1.610 . S
N476 C477 1.351 . S
C477 C471 1.428 . S
C477 N476 1.351 . S
C477 C478 1.434 . S
C478 C469 1.429 1_556 S
C478 N475 1.350 . S
C478 C477 1.434 . S
C479 C480 1.369 . S
C479 C481 1.419 . S
C479 H483 0.930 . S
C480 C479 1.369 . S
C480 C489 1.429 . S
C481 C479 1.419 . S
C481 C482 1.363 . S
C481 H484 0.929 . S
C482 C481 1.363 . S
C482 C488 1.428 . S
H483 C479 0.930 . S
H484 C481 0.929 . S
S485 N486 1.613 . S
S485 N487 1.610 . S
N486 S485 1.613 . S
N486 C489 1.350 . S
N487 S485 1.610 . S
N487 C488 1.351 . S
C488 C482 1.428 . S
C488 N487 1.351 . S
C488 C489 1.434 . S
C489 C480 1.429 . S
C489 N486 1.350 . S
C489 C488 1.434 . S
C490 C491 1.369 1_554 S
C490 C492 1.419 . S
C490 H494 0.930 . S
C491 C490 1.369 1_556 S
C491 C500 1.429 . S
C492 C490 1.419 . S
C492 C493 1.363 . S
C492 H495 0.929 . S
C493 C492 1.363 . S
C493 C499 1.428 . S
H494 C490 0.930 . S
H495 C492 0.929 . S
S496 N497 1.613 . S
S496 N498 1.610 1_556 S
N497 S496 1.613 . S
N497 C500 1.350 . S
N498 S496 1.610 1_554 S
N498 C499 1.351 . S
C499 C493 1.428 . S
C499 N498 1.351 . S
C499 C500 1.434 1_554 S
C500 C491 1.429 . S
C500 N497 1.350 . S
C500 C499 1.434 1_556 S
C501 C502 1.369 . S
C501 C503 1.419 . S
C501 H505 0.930 . S
C502 C501 1.369 . S
C502 C511 1.429 . S
C503 C501 1.419 . S
C503 C504 1.363 . S
C503 H506 0.929 . S
C504 C503 1.363 . S
C504 C510 1.428 . S
H505 C501 0.930 . S
H506 C503 0.929 . S
S507 N508 1.613 . S
S507 N509 1.610 . S
N508 S507 1.613 . S
N508 C511 1.350 . S
N509 S507 1.610 . S
N509 C510 1.351 . S
C510 C504 1.428 . S
C510 N509 1.351 . S
C510 C511 1.434 . S
C511 C502 1.429 . S
C511 N508 1.350 . S
C511 C510 1.434 . S
C512 C513 1.369 . S
C512 C514 1.419 1_554 S
C512 H516 0.930 . S
C513 C512 1.369 . S
C513 C522 1.429 1_554 S
C514 C512 1.419 1_556 S
C514 C515 1.363 . S
C514 H517 0.929 . S
C515 C514 1.363 . S
C515 C521 1.428 . S
H516 C512 0.930 . S
H517 C514 0.929 . S
S518 N519 1.613 . S
S518 N520 1.610 . S
N519 S518 1.613 . S
N519 C522 1.350 . S
N520 S518 1.610 . S
N520 C521 1.351 . S
C521 C515 1.428 . S
C521 N520 1.351 . S
C521 C522 1.434 . S
C522 C513 1.429 1_556 S
C522 N519 1.350 . S
C522 C521 1.434 . S
C523 C524 1.369 . S
C523 C525 1.419 . S
C523 H527 0.930 . S
C524 C523 1.369 . S
C524 C533 1.429 . S
C525 C523 1.419 . S
C525 C526 1.363 . S
C525 H528 0.929 . S
C526 C525 1.363 . S
C526 C532 1.428 . S
H527 C523 0.930 . S
H528 C525 0.929 . S
S529 N530 1.613 . S
S529 N531 1.610 . S
N530 S529 1.613 . S
N530 C533 1.350 . S
N531 S529 1.610 . S
N531 C532 1.351 . S
C532 C526 1.428 . S
C532 N531 1.351 . S
C532 C533 1.434 . S
C533 C524 1.429 . S
C533 N530 1.350 . S
C533 C532 1.434 . S
C534 C535 1.369 . S
C534 C536 1.419 1_556 S
C534 H538 0.930 . S
C535 C534 1.369 . S
C535 C544 1.429 1_556 S
C536 C534 1.419 1_554 S
C536 C537 1.363 . S
C536 H539 0.929 . S
C537 C536 1.363 . S
C537 C543 1.428 . S
H538 C534 0.930 . S
H539 C536 0.929 . S
S540 N541 1.613 1_554 S
S540 N542 1.610 . S
N541 S540 1.613 1_556 S
N541 C544 1.350 1_556 S
N542 S540 1.610 . S
N542 C543 1.351 . S
C543 C537 1.428 . S
C543 N542 1.351 . S
C543 C544 1.434 . S
C544 C535 1.429 1_554 S
C544 N541 1.350 1_554 S
C544 C543 1.434 . S
C545 C546 1.369 . S
C545 C547 1.419 . S
C545 H549 0.930 . S
C546 C545 1.369 . S
C546 C555 1.429 . S
C547 C545 1.419 . S
C547 C548 1.363 . S
C547 H550 0.929 . S
C548 C547 1.363 . S
C548 C554 1.428 . S
H549 C545 0.930 . S
H550 C547 0.929 . S
S551 N552 1.613 . S
S551 N553 1.610 . S
N552 S551 1.613 . S
N552 C555 1.350 . S
N553 S551 1.610 . S
N553 C554 1.351 . S
C554 C548 1.428 . S
C554 N553 1.351 . S
C554 C555 1.434 . S
C555 C546 1.429 . S
C555 N552 1.350 . S
C555 C554 1.434 . S
C556 C557 1.369 . S
C556 C558 1.419 . S
C556 H560 0.930 . S
C557 C556 1.369 . S
C557 C566 1.429 . S
C558 C556 1.419 . S
C558 C559 1.363 . S
C558 H561 0.929 . S
C559 C558 1.363 . S
C559 C565 1.428 . S
H560 C556 0.930 . S
H561 C558 0.929 . S
S562 N563 1.613 . S
S562 N564 1.610 . S
N563 S562 1.613 . S
N563 C566 1.350 . S
N564 S562 1.610 . S
N564 C565 1.351 . S
C565 C559 1.428 . S
C565 N564 1.351 . S
C565 C566 1.434 . S
C566 C557 1.429 . S
C566 N563 1.350 . S
C566 C565 1.434 . S
C567 C568 1.369 . S
C567 C569 1.419 . S
C567 H571 0.930 . S
C568 C567 1.369 . S
C568 C577 1.429 1_556 S
C569 C567 1.419 . S
C569 C570 1.363 1_556 S
C569 H572 0.929 . S
C570 C569 1.363 1_554 S
C570 C576 1.428 . S
H571 C567 0.930 . S
H572 C569 0.929 . S
S573 N574 1.613 . S
S573 N575 1.610 . S
N574 S573 1.613 . S
N574 C577 1.350 . S
N575 S573 1.610 . S
N575 C576 1.351 . S
C576 C570 1.428 . S
C576 N575 1.351 . S
C576 C577 1.434 . S
C577 C568 1.429 1_554 S
C577 N574 1.350 . S
C577 C576 1.434 . S
C578 C579 1.369 . S
C578 C580 1.419 . S
C578 H582 0.930 . S
C579 C578 1.369 . S
C579 C588 1.429 . S
C580 C578 1.419 . S
C580 C581 1.363 . S
C580 H583 0.929 . S
C581 C580 1.363 . S
C581 C587 1.428 . S
H582 C578 0.930 . S
H583 C580 0.929 . S
S584 N585 1.613 . S
S584 N586 1.610 . S
N585 S584 1.613 . S
N585 C588 1.350 . S
N586 S584 1.610 . S
N586 C587 1.351 . S
C587 C581 1.428 . S
C587 N586 1.351 . S
C587 C588 1.434 . S
C588 C579 1.429 . S
C588 N585 1.350 . S
C588 C587 1.434 . S
C589 C590 1.369 . S
C589 C591 1.419 . S
C589 H593 0.930 . S
C590 C589 1.369 . S
C590 C599 1.429 1_556 S
C591 C589 1.419 . S
C591 C592 1.363 1_556 S
C591 H594 0.929 . S
C592 C591 1.363 1_554 S
C592 C598 1.428 . S
H593 C589 0.930 . S
H594 C591 0.929 . S
S595 N596 1.613 . S
S595 N597 1.610 . S
N596 S595 1.613 . S
N596 C599 1.350 . S
N597 S595 1.610 . S
N597 C598 1.351 . S
C598 C592 1.428 . S
C598 N597 1.351 . S
C598 C599 1.434 . S
C599 C590 1.429 1_554 S
C599 N596 1.350 . S
C599 C598 1.434 . S
C249 C113 1.868 . S
C251 C19 2.185 . S
C260 C82 1.873 . S
C262 C50 2.186 . S
C271 C51 1.868 . S
C273 C81 2.187 . S
C282 C112 2.188 . S
C284 C20 1.863 . S
C293 C237 1.865 . S
C295 C143 2.188 . S
C304 C187 1.874 . S
C306 C174 2.185 . S
C315 C175 1.862 . S
C317 C186 2.186 . S
C326 C144 1.862 . S
C328 C236 2.187 . S
C337 C41 1.007 . S
C339 C10 0.997 . S
C348 C103 1.002 . S
C350 C72 0.998 . S
C359 C134 0.997 . S
C361 C165 1.003 . S
C370 C227 1.007 . S
C372 C216 0.997 . S
C381 C32 1.888 . S
C383 C1 1.891 . S
C392 C63 1.893 . S
C394 C94 1.894 . S
C403 C125 1.889 . S
C405 C156 1.892 . S
C414 C206 1.895 . S
C416 C218 1.892 . S
C425 C0 1.761 . S
C427 C31 1.763 . S
C436 C62 1.763 . S
C438 C93 1.760 . S
C447 C124 1.760 . S
C449 C155 1.762 . S
C458 C205 1.760 . S
C460 C217 1.761 . S
C469 C2 1.252 . S
C471 C29 1.258 . S
C480 C33 1.246 . S
C482 C60 1.262 . S
C491 C64 1.249 . S
C493 C91 1.261 . S
C502 C122 1.250 . S
C504 C95 1.257 . S
C513 C126 1.259 . S
C515 C153 1.252 . S
C524 C184 1.261 . S
C526 C157 1.249 . S
C535 C215 1.254 . S
C537 C188 1.257 . S
C546 C246 1.255 . S
C548 C219 1.256 . S
C557 C196 1.278 . S
C559 C30 1.283 . S
C568 C61 1.281 1_556 S
C570 C247 1.282 1_554 S
C579 C92 1.282 . S
C581 C154 1.280 . S
C590 C185 1.273 1_556 S
C592 C123 1.287 1_554 S
