# Generated by pormake.
# Topology bcu, (8)-cn, num edge types: 1
# Building blocks:
#     Node 0, Type 0, BuildingBlock: TAGTUT_clean_sbu_3, # of connection points: 8
#     Node 1, Type 0, BuildingBlock: TAGTUT_clean_sbu_3, # of connection points: 8
#     Edge 2, Type (0, 0), BuildingBlock: XUDNAN_clean_linker_2, # of connection points: 2
#     Edge 3, Type (0, 0), BuildingBlock: XUDNAN_clean_linker_2, # of connection points: 2
#     Edge 4, Type (0, 0), BuildingBlock: XUDNAN_clean_linker_2, # of connection points: 2
#     Edge 5, Type (0, 0), BuildingBlock: XUDNAN_clean_linker_2, # of connection points: 2
#     Edge 6, Type (0, 0), BuildingBlock: XUDNAN_clean_linker_2, # of connection points: 2
#     Edge 7, Type (0, 0), BuildingBlock: XUDNAN_clean_linker_2, # of connection points: 2
#     Edge 8, Type (0, 0), BuildingBlock: XUDNAN_clean_linker_2, # of connection points: 2
#     Edge 9, Type (0, 0), BuildingBlock: XUDNAN_clean_linker_2, # of connection points: 2
# Relax obj value: 0.012
# Max RMSD: 0.062
# Mean RMSD: 0.062
data_MOF--net-bcu--node1-TAGTUT_clean_sbu_3--edge1-XUDNAN_clean_linker_2
_symmetry_space_group_name_H-M    P1
_symmetry_Int_Tables_number       1
_symmetry_cell_setting            triclinic
loop_
_symmetry_equiv_pos_as_xyz
'x, y, z'
_cell_length_a     19.36105
_cell_length_b     19.32409
_cell_length_c     21.454678
_cell_angle_alpha  91.216575
_cell_angle_beta   89.264056
_cell_angle_gamma 106.64602
loop_
_atom_site_label
_atom_site_type_symbol
_atom_site_fract_x
_atom_site_fract_y
_atom_site_fract_z
_atom_type_partial_charge
C0 C 0.10519 0.12047 0.06193 0.0
C1 C 0.18182 0.89197 0.10859 0.0
C2 C 0.1465 0.83735 0.91461 0.0
Mg3 Mg 0.99449 0.15092 0.9641 0.0
Mg4 Mg 0.85437 0.02301 0.91461 0.0
O5 O 0.95338 0.05124 0.92705 0.0
Mg6 Mg 1.00566 0.99373 0.97448 0.0
O7 O 0.06663 0.94547 0.02187 0.0
Mg8 Mg 0.16567 -0.0018 -0.00877 0.0
Mg9 Mg 0.04703 0.84501 0.02233 0.0
C10 C 0.89178 0.87461 0.88778 0.0
O11 O 0.9089 0.93223 0.03718 0.0
O12 O 0.94506 0.19346 0.87912 0.0
O13 O 0.93347 0.82439 0.04231 0.0
O14 O 0.89202 0.14628 0.02216 0.0
O15 O 0.85619 0.09916 0.84291 0.0
O16 O 0.80077 0.05134 -0.00512 0.0
O17 O 0.10686 0.04382 0.91463 0.0
O18 O 0.09425 0.15468 0.90726 0.0
C19 C 0.12885 0.10875 0.89512 0.0
C20 C 0.8962 0.16446 0.8387 0.0
O21 O 0.95758 0.89709 0.90656 0.0
O22 O 0.20837 0.94788 0.07499 0.0
O23 O 0.84672 0.91201 0.89233 0.0
O24 O 0.17761 0.90309 0.92972 0.0
O25 O 0.12072 0.84613 0.09675 0.0
O26 O 0.0867 0.80303 0.93941 0.0
O27 O 0.04229 0.09373 0.0393 0.0
O28 O 0.15604 0.09181 0.05158 0.0
C29 C 0.82674 0.10759 0.02867 0.0
C30 C 0.89143 0.8646 0.05091 0.0
C31 C 0.64341 0.58365 0.5538 0.0
C32 C 0.71497 0.36011 0.48569 0.0
C33 C 0.59167 0.36146 0.31759 0.0
Mg34 Mg 0.50929 0.64299 0.51778 0.0
Mg35 Mg 0.34736 0.53058 0.49033 0.0
O36 O 0.44604 0.557 0.47236 0.0
Mg37 Mg 0.50702 0.48957 0.47355 0.0
O38 O 0.57772 0.43168 0.47427 0.0
Mg39 Mg 0.66084 0.49462 0.42573 0.0
Mg40 Mg 0.55309 0.33456 0.45254 0.0
C41 C 0.36067 0.40771 0.39443 0.0
O42 O 0.43762 0.40759 0.54497 0.0
O43 O 0.43639 0.70849 0.47821 0.0
O44 O 0.45878 0.30411 0.50995 0.0
O45 O 0.43693 0.61839 0.60587 0.0
O46 O 0.33069 0.62738 0.4543 0.0
O47 O 0.33222 0.5341 0.58984 0.0
O48 O 0.57979 0.55731 0.39951 0.0
O49 O 0.57773 0.66778 0.4282 0.0
C50 C 0.59736 0.62509 0.39027 0.0
C51 C 0.37285 0.69208 0.45472 0.0
O52 O 0.42962 0.42304 0.40005 0.0
O53 O 0.72979 0.4244 0.46427 0.0
O54 O 0.32048 0.43479 0.42981 0.0
O55 O 0.63621 0.42067 0.33651 0.0
O56 O 0.65102 0.31664 0.48459 0.0
O57 O 0.54528 0.32232 0.35431 0.0
O58 O 0.57502 0.56443 0.54705 0.0
O59 O 0.68488 0.56448 0.51447 0.0
C60 C 0.37594 0.57903 0.62572 0.0
C61 C 0.42514 0.33816 0.54532 0.0
H62 H 0.0642 0.14649 0.17918 0.0
H63 H 0.19776 0.24324 0.02271 0.0
H64 H 0.27414 0.33547 0.09284 0.0
H65 H 0.09087 0.32709 0.27469 0.0
H66 H 0.09099 0.27958 0.34607 0.0
H67 H 0.03564 0.23501 0.28178 0.0
H68 H 0.09612 0.13199 0.28652 0.0
H69 H 0.15436 0.17751 0.3484 0.0
H70 H 0.19259 0.15271 0.27728 0.0
H71 H 0.35433 0.38895 0.17941 0.0
H72 H 0.41736 0.42984 0.27853 0.0
H73 H 0.22931 0.30657 0.38114 0.0
C74 C 0.10629 0.19044 0.15951 0.0
C75 C 0.12484 0.18928 0.0959 0.0
C76 C 0.1823 0.24491 0.07135 0.0
C77 C 0.2263 0.2969 0.1109 0.0
C78 C 0.21086 0.29291 0.17445 0.0
C79 C 0.15045 0.24333 0.1986 0.0
C80 C 0.15069 0.24635 0.26931 0.0
C81 C 0.08836 0.27367 0.29445 0.0
C82 C 0.14832 0.17276 0.29692 0.0
C83 C 0.22287 0.3014 0.28073 0.0
C84 C 0.2567 0.32716 0.2253 0.0
C85 C 0.32742 0.37148 0.22327 0.0
C86 C 0.36327 0.39316 0.27963 0.0
C87 C 0.32787 0.37124 0.33703 0.0
C88 C 0.25709 0.32431 0.33762 0.0
H89 H 0.85944 0.23433 0.09651 0.0
H90 H 0.68288 0.04363 0.05253 0.0
H91 H 0.59889 0.09704 0.11031 0.0
H92 H 0.80226 0.2618 0.25117 0.0
H93 H 0.832 0.35889 0.24648 0.0
H94 H 0.87628 0.30516 0.20046 0.0
H95 H 0.85096 0.36766 0.10093 0.0
H96 H 0.80467 0.42007 0.14669 0.0
H97 H 0.75952 0.36448 0.08242 0.0
H98 H 0.53486 0.17038 0.17488 0.0
H99 H 0.49939 0.24979 0.25291 0.0
H100 H 0.71753 0.39355 0.25114 0.0
C101 C 0.80323 0.20335 0.09924 0.0
C102 C 0.77786 0.13471 0.06983 0.0
C103 C 0.70374 0.09626 0.0747 0.0
C104 C 0.65546 0.12645 0.1069 0.0
C105 C 0.68205 0.19523 0.13359 0.0
C106 C 0.75436 0.23275 0.13072 0.0
C107 C 0.76999 0.30432 0.16564 0.0
C108 C 0.82323 0.30769 0.21911 0.0
C109 C 0.79794 0.36787 0.12125 0.0
C110 C 0.69534 0.30061 0.1899 0.0
C111 C 0.64512 0.23776 0.17016 0.0
C112 C 0.57355 0.22005 0.19018 0.0
C113 C 0.55379 0.26574 0.23422 0.0
C114 C 0.60558 0.32808 0.25792 0.0
C115 C 0.67627 0.34726 0.23304 0.0
H116 H 0.83193 0.91296 0.15345 0.0
H117 H 0.8029 0.73346 0.0224 0.0
H118 H 0.7121 0.65661 0.0913 0.0
H119 H 0.83567 0.81914 0.28082 0.0
H120 H 0.78655 0.86155 0.33383 0.0
H121 H 0.83344 0.91046 0.26823 0.0
H122 H 0.7159 0.93299 0.22925 0.0
H123 H 0.66873 0.88616 0.29602 0.0
H124 H 0.63644 0.85769 0.21853 0.0
H125 H 0.65017 0.59216 0.18161 0.0
H126 H 0.60217 0.54682 0.28419 0.0
H127 H 0.66856 0.76574 0.36057 0.0
C128 C 0.80297 0.85886 0.13789 0.0
C129 C 0.82256 0.82957 0.08186 0.0
C130 C 0.78672 0.7574 0.06414 0.0
C131 C 0.73553 0.71309 0.10332 0.0
C132 C 0.72078 0.74176 0.1602 0.0
C133 C 0.75186 0.81339 0.17715 0.0
C134 C 0.73306 0.82746 0.24427 0.0
C135 C 0.80126 0.85633 0.28408 0.0
C136 C 0.6857 0.87914 0.24718 0.0
C137 C 0.69068 0.75182 0.26306 0.0
C138 C 0.68384 0.70358 0.21354 0.0
C139 C 0.65322 0.62961 0.2204 0.0
C140 C 0.62705 0.60427 0.27915 0.0
C141 C 0.63144 0.65276 0.33036 0.0
C142 C 0.66378 0.72753 0.32207 0.0
H143 H 0.13454 0.78864 0.19646 0.0
H144 H 0.31725 0.97036 0.14823 0.0
H145 H 0.38082 0.94975 0.24232 0.0
H146 H 0.14637 0.81658 0.36612 0.0
H147 H 0.12061 0.7209 0.38014 0.0
H148 H 0.08737 0.75468 0.31253 0.0
H149 H 0.13873 0.67127 0.24072 0.0
H150 H 0.17116 0.63676 0.308 0.0
H151 H 0.23278 0.67569 0.24594 0.0
H152 H 0.42803 0.90142 0.3371 0.0
H153 H 0.45712 0.82587 0.4185 0.0
H154 H 0.241 0.679 0.40432 0.0
C155 C 0.18769 0.82472 0.20566 0.0
C156 C 0.22092 0.88105 0.16474 0.0
C157 C 0.29064 0.92677 0.17884 0.0
C158 C 0.32696 0.91578 0.23239 0.0
C159 C 0.29243 0.85947 0.27162 0.0
C160 C 0.22426 0.81484 0.25875 0.0
C161 C 0.20046 0.75511 0.30545 0.0
C162 C 0.13482 0.76229 0.3433 0.0
C163 C 0.18494 0.68034 0.27309 0.0
C164 C 0.26695 0.7713 0.34551 0.0
C165 C 0.31911 0.83231 0.32609 0.0
C166 C 0.38716 0.85423 0.35327 0.0
C167 C 0.40309 0.81107 0.39974 0.0
C168 C 0.35132 0.74643 0.41796 0.0
C169 C 0.28166 0.72828 0.39196 0.0
H170 H 0.10006 0.72314 0.82948 0.0
H171 H 0.2902 0.8606 0.92129 0.0
H172 H 0.36471 0.79171 0.87082 0.0
H173 H 0.15358 0.55375 0.82847 0.0
H174 H 0.12 0.52709 0.75103 0.0
H175 H 0.07801 0.58058 0.80012 0.0
H176 H 0.09866 0.67793 0.7152 0.0
H177 H 0.13917 0.624 0.66558 0.0
H178 H 0.18824 0.71624 0.68429 0.0
H179 H 0.42048 0.71354 0.80913 0.0
H180 H 0.45872 0.64626 0.72318 0.0
H181 H 0.23608 0.56164 0.66455 0.0
C182 C 0.15728 0.73814 0.83905 0.0
C183 C 0.18931 0.7972 0.87935 0.0
C184 C 0.26453 0.81603 0.89015 0.0
C185 C 0.30728 0.77654 0.86243 0.0
C186 C 0.27441 0.71851 0.82332 0.0
C187 C 0.20152 0.70008 0.81034 0.0
C188 C 0.18217 0.64076 0.76053 0.0
C189 C 0.13036 0.57143 0.78662 0.0
C190 C 0.15022 0.66629 0.70299 0.0
C191 C 0.25596 0.63069 0.74652 0.0
C192 C 0.30775 0.67458 0.7849 0.0
C193 C 0.38049 0.67851 0.77894 0.0
C194 C 0.40169 0.63983 0.73009 0.0
C195 C 0.35051 0.59862 0.68717 0.0
C196 C 0.27631 0.59144 0.69732 0.0
H197 H 0.36816 0.38226 0.65322 0.0
H198 H 0.37118 0.19204 0.54238 0.0
H199 H 0.30875 0.11397 0.62619 0.0
H200 H 0.39487 0.31427 0.80188 0.0
H201 H 0.33234 0.35228 0.84329 0.0
H202 H 0.3783 0.39574 0.7748 0.0
H203 H 0.25625 0.38882 0.72315 0.0
H204 H 0.21002 0.34729 0.79212 0.0
H205 H 0.18809 0.30295 0.7172 0.0
H206 H 0.25162 0.05532 0.72231 0.0
H207 H 0.17837 0.01906 0.81757 0.0
H208 H 0.20754 0.24511 0.86552 0.0
C209 C 0.3547 0.32425 0.64629 0.0
C210 C 0.37582 0.29358 0.5916 0.0
C211 C 0.35678 0.21719 0.58424 0.0
C212 C 0.32161 0.17206 0.63172 0.0
C213 C 0.30475 0.20381 0.68614 0.0
C214 C 0.31865 0.27789 0.69323 0.0
C215 C 0.29085 0.2972 0.7555 0.0
C216 C 0.35281 0.34255 0.79626 0.0
C217 C 0.23284 0.33634 0.74643 0.0
C218 C 0.25905 0.22235 0.78161 0.0
C219 C 0.26903 0.16942 0.74133 0.0
C220 C 0.24311 0.09608 0.75443 0.0
C221 C 0.20223 0.07598 0.80887 0.0
C222 C 0.18713 0.12922 0.84855 0.0
C223 C 0.21834 0.20325 0.8359 0.0
H224 H 0.80372 0.11687 0.74171 0.0
H225 H 0.96967 0.30505 0.80945 0.0
H226 H 0.95471 0.3713 0.71542 0.0
H227 H 0.84919 0.13955 0.57544 0.0
H228 H 0.75586 0.10902 0.55276 0.0
H229 H 0.78489 0.07481 0.62221 0.0
H230 H 0.68984 0.11605 0.6879 0.0
H231 H 0.65994 0.14915 0.61865 0.0
H232 H 0.68854 0.20886 0.68502 0.0
H233 H 0.91318 0.41967 0.61772 0.0
H234 H 0.84257 0.44836 0.53199 0.0
H235 H 0.70723 0.22629 0.52862 0.0
C236 C 0.83756 0.17184 0.73687 0.0
C237 C 0.88781 0.20571 0.78321 0.0
C238 C 0.93065 0.27788 0.7747 0.0
C239 C 0.92295 0.31575 0.72119 0.0
C240 C 0.87282 0.28039 0.6764 0.0
C241 C 0.83088 0.21 0.68395 0.0
C242 C 0.77715 0.18543 0.63183 0.0
C243 C 0.79275 0.12354 0.59328 0.0
C244 C 0.69931 0.16366 0.65739 0.0
C245 C 0.79335 0.25388 0.59475 0.0
C246 C 0.84952 0.3078 0.62035 0.0
C247 C 0.86989 0.37751 0.59676 0.0
C248 C 0.82967 0.3932 0.54771 0.0
C249 C 0.7693 0.33954 0.52342 0.0
C250 C 0.75336 0.2684 0.54566 0.0
H251 H 0.78259 0.66321 0.57668 0.0
H252 H 0.57391 0.57593 0.66576 0.0
H253 H 0.6279 0.61831 0.76793 0.0
H254 H 0.89561 0.63089 0.70571 0.0
H255 H 0.96367 0.71567 0.69466 0.0
H256 H 0.91223 0.66896 0.62909 0.0
H257 H 0.87205 0.7824 0.60399 0.0
H258 H 0.92508 0.82963 0.6681 0.0
H259 H 0.83047 0.8233 0.66449 0.0
H260 H 0.69885 0.67705 0.85713 0.0
H261 H 0.77495 0.77189 0.92456 0.0
H262 H 0.93947 0.82455 0.78082 0.0
C263 C 0.74856 0.65259 0.61789 0.0
C264 C 0.67427 0.61597 0.61354 0.0
C265 C 0.63092 0.60415 0.66806 0.0
C266 C 0.66137 0.62683 0.7264 0.0
C267 C 0.73507 0.66143 0.72933 0.0
C268 C 0.77791 0.6758 0.67648 0.0
C269 C 0.85308 0.72311 0.69166 0.0
C270 C 0.90947 0.68219 0.67955 0.0
C271 C 0.87117 0.79379 0.65493 0.0
C272 C 0.84454 0.73624 0.76085 0.0
C273 C 0.77681 0.69749 0.78183 0.0
C274 C 0.75261 0.70627 0.84192 0.0
C275 C 0.79657 0.7596 0.88027 0.0
C276 C 0.8637 0.80336 0.85837 0.0
C277 C 0.8897 0.78936 0.79923 0.0
loop_
_geom_bond_atom_site_label_1
_geom_bond_atom_site_label_2
_geom_bond_distance
_geom_bond_site_symmetry_2
_ccdc_geom_bond_type
C0 O27 1.312 . S
C0 O28 1.208 . S
C1 O22 1.331 . S
C1 O25 1.244 . S
C2 O24 1.264 . S
C2 O26 1.273 . S
Mg3 O5 1.936 . S
Mg3 O12 2.081 . S
Mg3 O14 2.023 1_556 S
Mg3 O18 2.031 1_655 S
Mg3 O27 2.291 1_656 S
Mg4 O5 1.963 . S
Mg4 O15 1.942 . S
Mg4 O16 1.955 1_556 S
Mg4 O23 1.986 1_545 S
O5 Mg3 1.936 . S
O5 Mg4 1.963 . S
O5 Mg6 1.915 1_546 S
Mg6 O5 1.915 1_564 S
Mg6 O7 1.915 1_655 S
Mg6 O11 2.013 . S
Mg6 O17 2.114 1_664 S
Mg6 O21 2.013 1_554 S
Mg6 O27 2.114 1_665 S
O7 Mg6 1.915 1_455 S
O7 Mg8 1.936 . S
O7 Mg9 1.963 . S
Mg8 O7 1.936 . S
Mg8 O17 2.291 1_564 S
Mg8 O22 2.081 . S
Mg8 O24 2.023 1_554 S
Mg8 O28 2.031 1_565 S
Mg9 O7 1.963 . S
Mg9 O13 1.986 1_455 S
Mg9 O25 1.942 . S
Mg9 O26 1.955 1_554 S
C10 O21 1.191 . S
C10 O23 1.307 . S
O11 Mg6 2.013 . S
O11 C30 1.191 . S
O12 Mg3 2.081 . S
O12 C20 1.331 . S
O13 Mg9 1.986 1_655 S
O13 C30 1.307 . S
O14 Mg3 2.023 1_554 S
O14 C29 1.264 . S
O15 Mg4 1.942 . S
O15 C20 1.244 . S
O16 Mg4 1.955 1_554 S
O16 C29 1.273 . S
O17 Mg6 2.114 1_446 S
O17 Mg8 2.291 1_546 S
O17 C19 1.312 . S
O18 Mg3 2.031 1_455 S
O18 C19 1.208 . S
C19 O17 1.312 . S
C19 O18 1.208 . S
C20 O12 1.331 . S
C20 O15 1.244 . S
O21 Mg6 2.013 1_556 S
O21 C10 1.191 . S
O22 C1 1.331 . S
O22 Mg8 2.081 . S
O23 Mg4 1.986 1_565 S
O23 C10 1.307 . S
O24 C2 1.264 . S
O24 Mg8 2.023 1_556 S
O25 C1 1.244 . S
O25 Mg9 1.942 . S
O26 C2 1.273 . S
O26 Mg9 1.955 1_556 S
O27 C0 1.312 . S
O27 Mg3 2.291 1_454 S
O27 Mg6 2.114 1_445 S
O28 C0 1.208 . S
O28 Mg8 2.031 1_545 S
C29 O14 1.264 . S
C29 O16 1.273 . S
C30 O11 1.191 . S
C30 O13 1.307 . S
C31 O58 1.312 . S
C31 O59 1.208 . S
C32 O53 1.331 . S
C32 O56 1.244 . S
C33 O55 1.264 . S
C33 O57 1.273 . S
Mg34 O36 1.936 . S
Mg34 O43 2.081 . S
Mg34 O45 2.023 . S
Mg34 O49 2.031 . S
Mg34 O58 2.291 . S
Mg35 O36 1.963 . S
Mg35 O46 1.942 . S
Mg35 O47 1.955 . S
Mg35 O54 1.986 . S
O36 Mg34 1.936 . S
O36 Mg35 1.963 . S
O36 Mg37 1.915 . S
Mg37 O36 1.915 . S
Mg37 O38 1.915 . S
Mg37 O42 2.013 . S
Mg37 O48 2.114 . S
Mg37 O52 2.013 . S
Mg37 O58 2.114 . S
O38 Mg37 1.915 . S
O38 Mg39 1.936 . S
O38 Mg40 1.963 . S
Mg39 O38 1.936 . S
Mg39 O48 2.291 . S
Mg39 O53 2.081 . S
Mg39 O55 2.023 . S
Mg39 O59 2.031 . S
Mg40 O38 1.963 . S
Mg40 O44 1.986 . S
Mg40 O56 1.942 . S
Mg40 O57 1.955 . S
C41 O52 1.191 . S
C41 O54 1.307 . S
O42 Mg37 2.013 . S
O42 C61 1.191 . S
O43 Mg34 2.081 . S
O43 C51 1.331 . S
O44 Mg40 1.986 . S
O44 C61 1.307 . S
O45 Mg34 2.023 . S
O45 C60 1.264 . S
O46 Mg35 1.942 . S
O46 C51 1.244 . S
O47 Mg35 1.955 . S
O47 C60 1.273 . S
O48 Mg37 2.114 . S
O48 Mg39 2.291 . S
O48 C50 1.312 . S
O49 Mg34 2.031 . S
O49 C50 1.208 . S
C50 O48 1.312 . S
C50 O49 1.208 . S
C51 O43 1.331 . S
C51 O46 1.244 . S
O52 Mg37 2.013 . S
O52 C41 1.191 . S
O53 C32 1.331 . S
O53 Mg39 2.081 . S
O54 Mg35 1.986 . S
O54 C41 1.307 . S
O55 C33 1.264 . S
O55 Mg39 2.023 . S
O56 C32 1.244 . S
O56 Mg40 1.942 . S
O57 C33 1.273 . S
O57 Mg40 1.955 . S
O58 C31 1.312 . S
O58 Mg34 2.291 . S
O58 Mg37 2.114 . S
O59 C31 1.208 . S
O59 Mg39 2.031 . S
C60 O45 1.264 . S
C60 O47 1.273 . S
C61 O42 1.191 . S
C61 O44 1.307 . S
H62 C74 0.930 . S
H63 C76 0.930 . S
H64 C77 0.930 . S
H65 C81 0.959 . S
H66 C81 0.959 . S
H67 C81 0.961 . S
H68 C82 0.960 . S
H69 C82 0.961 . S
H70 C82 0.959 . S
H71 C85 0.929 . S
H72 C86 0.931 . S
H73 C88 0.930 . S
C74 H62 0.930 . S
C74 C75 1.399 . S
C74 C79 1.399 . S
C75 C74 1.399 . S
C75 C76 1.376 . S
C76 H63 0.930 . S
C76 C75 1.376 . S
C76 C77 1.388 . S
C77 H64 0.930 . S
C77 C76 1.388 . S
C77 C78 1.390 . S
C78 C77 1.390 . S
C78 C79 1.394 . S
C78 C84 1.465 . S
C79 C74 1.399 . S
C79 C78 1.394 . S
C79 C80 1.516 . S
C80 C79 1.516 . S
C80 C81 1.502 . S
C80 C82 1.561 . S
C80 C83 1.526 . S
C81 H65 0.959 . S
C81 H66 0.959 . S
C81 H67 0.961 . S
C81 C80 1.502 . S
C82 H68 0.960 . S
C82 H69 0.961 . S
C82 H70 0.959 . S
C82 C80 1.561 . S
C83 C80 1.526 . S
C83 C84 1.396 . S
C83 C88 1.390 . S
C84 C78 1.465 . S
C84 C83 1.396 . S
C84 C85 1.399 . S
C85 H71 0.929 . S
C85 C84 1.399 . S
C85 C86 1.385 . S
C86 H72 0.931 . S
C86 C85 1.385 . S
C86 C87 1.389 . S
C87 C86 1.389 . S
C87 C88 1.387 . S
C88 H73 0.930 . S
C88 C83 1.390 . S
C88 C87 1.387 . S
H89 C101 0.930 . S
H90 C103 0.930 . S
H91 C104 0.930 . S
H92 C108 0.959 . S
H93 C108 0.959 . S
H94 C108 0.961 . S
H95 C109 0.960 . S
H96 C109 0.961 . S
H97 C109 0.959 . S
H98 C112 0.929 . S
H99 C113 0.931 . S
H100 C115 0.930 . S
C101 H89 0.930 . S
C101 C102 1.399 . S
C101 C106 1.399 . S
C102 C101 1.399 . S
C102 C103 1.376 . S
C103 H90 0.930 . S
C103 C102 1.376 . S
C103 C104 1.388 . S
C104 H91 0.930 . S
C104 C103 1.388 . S
C104 C105 1.390 . S
C105 C104 1.390 . S
C105 C106 1.394 . S
C105 C111 1.465 . S
C106 C101 1.399 . S
C106 C105 1.394 . S
C106 C107 1.516 . S
C107 C106 1.516 . S
C107 C108 1.502 . S
C107 C109 1.561 . S
C107 C110 1.526 . S
C108 H92 0.959 . S
C108 H93 0.959 . S
C108 H94 0.961 . S
C108 C107 1.502 . S
C109 H95 0.960 . S
C109 H96 0.961 . S
C109 H97 0.959 . S
C109 C107 1.561 . S
C110 C107 1.526 . S
C110 C111 1.396 . S
C110 C115 1.390 . S
C111 C105 1.465 . S
C111 C110 1.396 . S
C111 C112 1.399 . S
C112 H98 0.929 . S
C112 C111 1.399 . S
C112 C113 1.385 . S
C113 H99 0.931 . S
C113 C112 1.385 . S
C113 C114 1.389 . S
C114 C113 1.389 . S
C114 C115 1.387 . S
C115 H100 0.930 . S
C115 C110 1.390 . S
C115 C114 1.387 . S
H116 C128 0.930 . S
H117 C130 0.930 . S
H118 C131 0.930 . S
H119 C135 0.959 . S
H120 C135 0.959 . S
H121 C135 0.961 . S
H122 C136 0.960 . S
H123 C136 0.961 . S
H124 C136 0.959 . S
H125 C139 0.929 . S
H126 C140 0.931 . S
H127 C142 0.930 . S
C128 H116 0.930 . S
C128 C129 1.399 . S
C128 C133 1.399 . S
C129 C128 1.399 . S
C129 C130 1.376 . S
C130 H117 0.930 . S
C130 C129 1.376 . S
C130 C131 1.388 . S
C131 H118 0.930 . S
C131 C130 1.388 . S
C131 C132 1.390 . S
C132 C131 1.390 . S
C132 C133 1.394 . S
C132 C138 1.465 . S
C133 C128 1.399 . S
C133 C132 1.394 . S
C133 C134 1.516 . S
C134 C133 1.516 . S
C134 C135 1.502 . S
C134 C136 1.561 . S
C134 C137 1.526 . S
C135 H119 0.959 . S
C135 H120 0.959 . S
C135 H121 0.961 . S
C135 C134 1.502 . S
C136 H122 0.960 . S
C136 H123 0.961 . S
C136 H124 0.959 . S
C136 C134 1.561 . S
C137 C134 1.526 . S
C137 C138 1.396 . S
C137 C142 1.390 . S
C138 C132 1.465 . S
C138 C137 1.396 . S
C138 C139 1.399 . S
C139 H125 0.929 . S
C139 C138 1.399 . S
C139 C140 1.385 . S
C140 H126 0.931 . S
C140 C139 1.385 . S
C140 C141 1.389 . S
C141 C140 1.389 . S
C141 C142 1.387 . S
C142 H127 0.930 . S
C142 C137 1.390 . S
C142 C141 1.387 . S
H143 C155 0.930 . S
H144 C157 0.930 . S
H145 C158 0.930 . S
H146 C162 0.959 . S
H147 C162 0.959 . S
H148 C162 0.961 . S
H149 C163 0.960 . S
H150 C163 0.961 . S
H151 C163 0.959 . S
H152 C166 0.929 . S
H153 C167 0.931 . S
H154 C169 0.930 . S
C155 H143 0.930 . S
C155 C156 1.399 . S
C155 C160 1.399 . S
C156 C155 1.399 . S
C156 C157 1.376 . S
C157 H144 0.930 . S
C157 C156 1.376 . S
C157 C158 1.388 . S
C158 H145 0.930 . S
C158 C157 1.388 . S
C158 C159 1.390 . S
C159 C158 1.390 . S
C159 C160 1.394 . S
C159 C165 1.465 . S
C160 C155 1.399 . S
C160 C159 1.394 . S
C160 C161 1.516 . S
C161 C160 1.516 . S
C161 C162 1.502 . S
C161 C163 1.561 . S
C161 C164 1.526 . S
C162 H146 0.959 . S
C162 H147 0.959 . S
C162 H148 0.961 . S
C162 C161 1.502 . S
C163 H149 0.960 . S
C163 H150 0.961 . S
C163 H151 0.959 . S
C163 C161 1.561 . S
C164 C161 1.526 . S
C164 C165 1.396 . S
C164 C169 1.390 . S
C165 C159 1.465 . S
C165 C164 1.396 . S
C165 C166 1.399 . S
C166 H152 0.929 . S
C166 C165 1.399 . S
C166 C167 1.385 . S
C167 H153 0.931 . S
C167 C166 1.385 . S
C167 C168 1.389 . S
C168 C167 1.389 . S
C168 C169 1.387 . S
C169 H154 0.930 . S
C169 C164 1.390 . S
C169 C168 1.387 . S
H170 C182 0.930 . S
H171 C184 0.930 . S
H172 C185 0.930 . S
H173 C189 0.959 . S
H174 C189 0.959 . S
H175 C189 0.961 . S
H176 C190 0.960 . S
H177 C190 0.961 . S
H178 C190 0.959 . S
H179 C193 0.929 . S
H180 C194 0.931 . S
H181 C196 0.930 . S
C182 H170 0.930 . S
C182 C183 1.399 . S
C182 C187 1.399 . S
C183 C182 1.399 . S
C183 C184 1.376 . S
C184 H171 0.930 . S
C184 C183 1.376 . S
C184 C185 1.388 . S
C185 H172 0.930 . S
C185 C184 1.388 . S
C185 C186 1.390 . S
C186 C185 1.390 . S
C186 C187 1.394 . S
C186 C192 1.465 . S
C187 C182 1.399 . S
C187 C186 1.394 . S
C187 C188 1.516 . S
C188 C187 1.516 . S
C188 C189 1.502 . S
C188 C190 1.561 . S
C188 C191 1.526 . S
C189 H173 0.959 . S
C189 H174 0.959 . S
C189 H175 0.961 . S
C189 C188 1.502 . S
C190 H176 0.960 . S
C190 H177 0.961 . S
C190 H178 0.959 . S
C190 C188 1.561 . S
C191 C188 1.526 . S
C191 C192 1.396 . S
C191 C196 1.390 . S
C192 C186 1.465 . S
C192 C191 1.396 . S
C192 C193 1.399 . S
C193 H179 0.929 . S
C193 C192 1.399 . S
C193 C194 1.385 . S
C194 H180 0.931 . S
C194 C193 1.385 . S
C194 C195 1.389 . S
C195 C194 1.389 . S
C195 C196 1.387 . S
C196 H181 0.930 . S
C196 C191 1.390 . S
C196 C195 1.387 . S
H197 C209 0.930 . S
H198 C211 0.930 . S
H199 C212 0.930 . S
H200 C216 0.959 . S
H201 C216 0.959 . S
H202 C216 0.961 . S
H203 C217 0.960 . S
H204 C217 0.961 . S
H205 C217 0.959 . S
H206 C220 0.929 . S
H207 C221 0.931 . S
H208 C223 0.930 . S
C209 H197 0.930 . S
C209 C210 1.399 . S
C209 C214 1.399 . S
C210 C209 1.399 . S
C210 C211 1.376 . S
C211 H198 0.930 . S
C211 C210 1.376 . S
C211 C212 1.388 . S
C212 H199 0.930 . S
C212 C211 1.388 . S
C212 C213 1.390 . S
C213 C212 1.390 . S
C213 C214 1.394 . S
C213 C219 1.465 . S
C214 C209 1.399 . S
C214 C213 1.394 . S
C214 C215 1.516 . S
C215 C214 1.516 . S
C215 C216 1.502 . S
C215 C217 1.561 . S
C215 C218 1.526 . S
C216 H200 0.959 . S
C216 H201 0.959 . S
C216 H202 0.961 . S
C216 C215 1.502 . S
C217 H203 0.960 . S
C217 H204 0.961 . S
C217 H205 0.959 . S
C217 C215 1.561 . S
C218 C215 1.526 . S
C218 C219 1.396 . S
C218 C223 1.390 . S
C219 C213 1.465 . S
C219 C218 1.396 . S
C219 C220 1.399 . S
C220 H206 0.929 . S
C220 C219 1.399 . S
C220 C221 1.385 . S
C221 H207 0.931 . S
C221 C220 1.385 . S
C221 C222 1.389 . S
C222 C221 1.389 . S
C222 C223 1.387 . S
C223 H208 0.930 . S
C223 C218 1.390 . S
C223 C222 1.387 . S
H224 C236 0.930 . S
H225 C238 0.930 . S
H226 C239 0.930 . S
H227 C243 0.959 . S
H228 C243 0.959 . S
H229 C243 0.961 . S
H230 C244 0.960 . S
H231 C244 0.961 . S
H232 C244 0.959 . S
H233 C247 0.929 . S
H234 C248 0.931 . S
H235 C250 0.930 . S
C236 H224 0.930 . S
C236 C237 1.399 . S
C236 C241 1.399 . S
C237 C236 1.399 . S
C237 C238 1.376 . S
C238 H225 0.930 . S
C238 C237 1.376 . S
C238 C239 1.388 . S
C239 H226 0.930 . S
C239 C238 1.388 . S
C239 C240 1.390 . S
C240 C239 1.390 . S
C240 C241 1.394 . S
C240 C246 1.465 . S
C241 C236 1.399 . S
C241 C240 1.394 . S
C241 C242 1.516 . S
C242 C241 1.516 . S
C242 C243 1.502 . S
C242 C244 1.561 . S
C242 C245 1.526 . S
C243 H227 0.959 . S
C243 H228 0.959 . S
C243 H229 0.961 . S
C243 C242 1.502 . S
C244 H230 0.960 . S
C244 H231 0.961 . S
C244 H232 0.959 . S
C244 C242 1.561 . S
C245 C242 1.526 . S
C245 C246 1.396 . S
C245 C250 1.390 . S
C246 C240 1.465 . S
C246 C245 1.396 . S
C246 C247 1.399 . S
C247 H233 0.929 . S
C247 C246 1.399 . S
C247 C248 1.385 . S
C248 H234 0.931 . S
C248 C247 1.385 . S
C248 C249 1.389 . S
C249 C248 1.389 . S
C249 C250 1.387 . S
C250 H235 0.930 . S
C250 C245 1.390 . S
C250 C249 1.387 . S
H251 C263 0.930 . S
H252 C265 0.930 . S
H253 C266 0.930 . S
H254 C270 0.959 . S
H255 C270 0.959 . S
H256 C270 0.961 . S
H257 C271 0.960 . S
H258 C271 0.961 . S
H259 C271 0.959 . S
H260 C274 0.929 . S
H261 C275 0.931 . S
H262 C277 0.930 . S
C263 H251 0.930 . S
C263 C264 1.399 . S
C263 C268 1.399 . S
C264 C263 1.399 . S
C264 C265 1.376 . S
C265 H252 0.930 . S
C265 C264 1.376 . S
C265 C266 1.388 . S
C266 H253 0.930 . S
C266 C265 1.388 . S
C266 C267 1.390 . S
C267 C266 1.390 . S
C267 C268 1.394 . S
C267 C273 1.465 . S
C268 C263 1.399 . S
C268 C267 1.394 . S
C268 C269 1.516 . S
C269 C268 1.516 . S
C269 C270 1.502 . S
C269 C271 1.561 . S
C269 C272 1.526 . S
C270 H254 0.959 . S
C270 H255 0.959 . S
C270 H256 0.961 . S
C270 C269 1.502 . S
C271 H257 0.960 . S
C271 H258 0.961 . S
C271 H259 0.959 . S
C271 C269 1.561 . S
C272 C269 1.526 . S
C272 C273 1.396 . S
C272 C277 1.390 . S
C273 C267 1.465 . S
C273 C272 1.396 . S
C273 C274 1.399 . S
C274 H260 0.929 . S
C274 C273 1.399 . S
C274 C275 1.385 . S
C275 H261 0.931 . S
C275 C274 1.385 . S
C275 C276 1.389 . S
C276 C275 1.389 . S
C276 C277 1.387 . S
C277 H262 0.930 . S
C277 C272 1.390 . S
C277 C276 1.387 . S
C75 C0 1.191 . S
C87 C41 1.260 . S
C102 C29 1.712 . S
C114 C33 1.677 . S
C129 C30 1.218 . S
C141 C50 1.276 . S
C156 C1 1.568 . S
C168 C51 1.557 . S
C183 C2 1.687 . S
C195 C60 1.706 . S
C210 C61 1.265 . S
C222 C19 1.235 . S
C237 C20 1.534 . S
C249 C32 1.586 . S
C264 C31 1.268 . S
C276 C10 1.236 . S
