# Generated by pormake.
# Topology svo, (7)-cn, num edge types: 1
# Building blocks:
#     Node 0, Type 0, BuildingBlock: HICVOG_clean_sbu_0, # of connection points: 7
#     Node 1, Type 0, BuildingBlock: HICVOG_clean_sbu_0, # of connection points: 7
#     Node 2, Type 0, BuildingBlock: HICVOG_clean_sbu_0, # of connection points: 7
#     Node 3, Type 0, BuildingBlock: HICVOG_clean_sbu_0, # of connection points: 7
#     Node 4, Type 0, BuildingBlock: HICVOG_clean_sbu_0, # of connection points: 7
#     Node 5, Type 0, BuildingBlock: HICVOG_clean_sbu_0, # of connection points: 7
#     Node 6, Type 0, BuildingBlock: HICVOG_clean_sbu_0, # of connection points: 7
#     Node 7, Type 0, BuildingBlock: HICVOG_clean_sbu_0, # of connection points: 7
#     Node 8, Type 0, BuildingBlock: HICVOG_clean_sbu_0, # of connection points: 7
#     Node 9, Type 0, BuildingBlock: HICVOG_clean_sbu_0, # of connection points: 7
#     Node 10, Type 0, BuildingBlock: HICVOG_clean_sbu_0, # of connection points: 7
#     Node 11, Type 0, BuildingBlock: HICVOG_clean_sbu_0, # of connection points: 7
#     Node 12, Type 0, BuildingBlock: HICVOG_clean_sbu_0, # of connection points: 7
#     Node 13, Type 0, BuildingBlock: HICVOG_clean_sbu_0, # of connection points: 7
#     Node 14, Type 0, BuildingBlock: HICVOG_clean_sbu_0, # of connection points: 7
#     Node 15, Type 0, BuildingBlock: HICVOG_clean_sbu_0, # of connection points: 7
#     Edge 16, Type (0, 0), BuildingBlock: XIVTED_clean_linker_0, # of connection points: 2
#     Edge 17, Type (0, 0), BuildingBlock: XIVTED_clean_linker_0, # of connection points: 2
#     Edge 18, Type (0, 0), BuildingBlock: XIVTED_clean_linker_0, # of connection points: 2
#     Edge 19, Type (0, 0), BuildingBlock: XIVTED_clean_linker_0, # of connection points: 2
#     Edge 20, Type (0, 0), BuildingBlock: XIVTED_clean_linker_0, # of connection points: 2
#     Edge 21, Type (0, 0), BuildingBlock: XIVTED_clean_linker_0, # of connection points: 2
#     Edge 22, Type (0, 0), BuildingBlock: XIVTED_clean_linker_0, # of connection points: 2
#     Edge 23, Type (0, 0), BuildingBlock: XIVTED_clean_linker_0, # of connection points: 2
#     Edge 24, Type (0, 0), BuildingBlock: XIVTED_clean_linker_0, # of connection points: 2
#     Edge 25, Type (0, 0), BuildingBlock: XIVTED_clean_linker_0, # of connection points: 2
#     Edge 26, Type (0, 0), BuildingBlock: XIVTED_clean_linker_0, # of connection points: 2
#     Edge 27, Type (0, 0), BuildingBlock: XIVTED_clean_linker_0, # of connection points: 2
#     Edge 28, Type (0, 0), BuildingBlock: XIVTED_clean_linker_0, # of connection points: 2
#     Edge 29, Type (0, 0), BuildingBlock: XIVTED_clean_linker_0, # of connection points: 2
#     Edge 30, Type (0, 0), BuildingBlock: XIVTED_clean_linker_0, # of connection points: 2
#     Edge 31, Type (0, 0), BuildingBlock: XIVTED_clean_linker_0, # of connection points: 2
#     Edge 32, Type (0, 0), BuildingBlock: XIVTED_clean_linker_0, # of connection points: 2
#     Edge 33, Type (0, 0), BuildingBlock: XIVTED_clean_linker_0, # of connection points: 2
#     Edge 34, Type (0, 0), BuildingBlock: XIVTED_clean_linker_0, # of connection points: 2
#     Edge 35, Type (0, 0), BuildingBlock: XIVTED_clean_linker_0, # of connection points: 2
#     Edge 36, Type (0, 0), BuildingBlock: XIVTED_clean_linker_0, # of connection points: 2
#     Edge 37, Type (0, 0), BuildingBlock: XIVTED_clean_linker_0, # of connection points: 2
#     Edge 38, Type (0, 0), BuildingBlock: XIVTED_clean_linker_0, # of connection points: 2
#     Edge 39, Type (0, 0), BuildingBlock: XIVTED_clean_linker_0, # of connection points: 2
#     Edge 40, Type (0, 0), BuildingBlock: XIVTED_clean_linker_0, # of connection points: 2
#     Edge 41, Type (0, 0), BuildingBlock: XIVTED_clean_linker_0, # of connection points: 2
#     Edge 42, Type (0, 0), BuildingBlock: XIVTED_clean_linker_0, # of connection points: 2
#     Edge 43, Type (0, 0), BuildingBlock: XIVTED_clean_linker_0, # of connection points: 2
#     Edge 44, Type (0, 0), BuildingBlock: XIVTED_clean_linker_0, # of connection points: 2
#     Edge 45, Type (0, 0), BuildingBlock: XIVTED_clean_linker_0, # of connection points: 2
#     Edge 46, Type (0, 0), BuildingBlock: XIVTED_clean_linker_0, # of connection points: 2
#     Edge 47, Type (0, 0), BuildingBlock: XIVTED_clean_linker_0, # of connection points: 2
#     Edge 48, Type (0, 0), BuildingBlock: XIVTED_clean_linker_0, # of connection points: 2
#     Edge 49, Type (0, 0), BuildingBlock: XIVTED_clean_linker_0, # of connection points: 2
#     Edge 50, Type (0, 0), BuildingBlock: XIVTED_clean_linker_0, # of connection points: 2
#     Edge 51, Type (0, 0), BuildingBlock: XIVTED_clean_linker_0, # of connection points: 2
#     Edge 52, Type (0, 0), BuildingBlock: XIVTED_clean_linker_0, # of connection points: 2
#     Edge 53, Type (0, 0), BuildingBlock: XIVTED_clean_linker_0, # of connection points: 2
#     Edge 54, Type (0, 0), BuildingBlock: XIVTED_clean_linker_0, # of connection points: 2
#     Edge 55, Type (0, 0), BuildingBlock: XIVTED_clean_linker_0, # of connection points: 2
#     Edge 56, Type (0, 0), BuildingBlock: XIVTED_clean_linker_0, # of connection points: 2
#     Edge 57, Type (0, 0), BuildingBlock: XIVTED_clean_linker_0, # of connection points: 2
#     Edge 58, Type (0, 0), BuildingBlock: XIVTED_clean_linker_0, # of connection points: 2
#     Edge 59, Type (0, 0), BuildingBlock: XIVTED_clean_linker_0, # of connection points: 2
#     Edge 60, Type (0, 0), BuildingBlock: XIVTED_clean_linker_0, # of connection points: 2
#     Edge 61, Type (0, 0), BuildingBlock: XIVTED_clean_linker_0, # of connection points: 2
#     Edge 62, Type (0, 0), BuildingBlock: XIVTED_clean_linker_0, # of connection points: 2
#     Edge 63, Type (0, 0), BuildingBlock: XIVTED_clean_linker_0, # of connection points: 2
#     Edge 64, Type (0, 0), BuildingBlock: XIVTED_clean_linker_0, # of connection points: 2
#     Edge 65, Type (0, 0), BuildingBlock: XIVTED_clean_linker_0, # of connection points: 2
#     Edge 66, Type (0, 0), BuildingBlock: XIVTED_clean_linker_0, # of connection points: 2
#     Edge 67, Type (0, 0), BuildingBlock: XIVTED_clean_linker_0, # of connection points: 2
#     Edge 68, Type (0, 0), BuildingBlock: XIVTED_clean_linker_0, # of connection points: 2
#     Edge 69, Type (0, 0), BuildingBlock: XIVTED_clean_linker_0, # of connection points: 2
#     Edge 70, Type (0, 0), BuildingBlock: XIVTED_clean_linker_0, # of connection points: 2
#     Edge 71, Type (0, 0), BuildingBlock: XIVTED_clean_linker_0, # of connection points: 2
# Relax obj value: 0.207
# Max RMSD: 0.233
# Mean RMSD: 0.233
data_MOF--net-svo--node1-HICVOG_clean_sbu_0--edge1-XIVTED_clean_linker_0
_symmetry_space_group_name_H-M    P1
_symmetry_Int_Tables_number       1
_symmetry_cell_setting            triclinic
loop_
_symmetry_equiv_pos_as_xyz
'x, y, z'
_cell_length_a     30.351338
_cell_length_b     30.384262
_cell_length_c     80.180498
_cell_angle_alpha  89.983378
_cell_angle_beta   90.043007
_cell_angle_gamma 90.019751
loop_
_atom_site_label
_atom_site_type_symbol
_atom_site_fract_x
_atom_site_fract_y
_atom_site_fract_z
_atom_type_partial_charge
Zn0 Zn 0.17847 0.29059 0.15549 0.0
C1 C 0.0895 0.37203 0.13455 0.0
N2 N 0.0614 0.34701 0.14334 0.0
C3 C 0.08753 0.31576 0.14972 0.0
N4 N 0.12981 0.32111 0.14499 0.0
N5 N 0.13138 0.35654 0.1353 0.0
C6 C 0.21375 0.44907 0.12742 0.0
O7 O 0.22316 0.42445 0.14042 0.0
O8 O 0.16494 0.22681 0.1601 0.0
Zn9 Zn 0.17618 0.36712 0.11812 0.0
N10 N 0.18965 0.31914 0.17663 0.0
C11 C 0.19076 0.38493 0.19265 0.0
C12 C 0.18386 0.36339 0.17755 0.0
C13 C 0.20242 0.29539 0.19021 0.0
N14 N 0.20338 0.36134 0.20622 0.0
C15 C 0.20972 0.31698 0.20552 0.0
O16 O 0.23525 0.33549 0.12098 0.0
C17 C 0.2545 0.30714 0.13016 0.0
O18 O 0.23522 0.28996 0.14263 0.0
H19 H 0.17371 0.38171 0.16664 0.0
H20 H 0.206 0.26012 0.18905 0.0
C21 C 0.1494 0.36189 0.08283 0.0
C22 C 0.12909 0.33969 0.06937 0.0
C23 C 0.11074 0.28078 0.08763 0.0
C24 C 0.13154 0.30233 0.1007 0.0
N25 N 0.15015 0.34245 0.09815 0.0
N26 N 0.11018 0.29978 0.07235 0.0
H27 H 0.1642 0.39399 0.08133 0.0
C28 C 0.16416 0.19976 0.14803 0.0
O29 O 0.16766 0.2149 0.13273 0.0
O30 O 0.19162 0.43215 0.11553 0.0
H31 H 0.13282 0.28722 0.11289 0.0
H32 H 0.18609 0.42013 0.19361 0.0
H33 H 0.09553 0.24897 0.08953 0.0
Zn34 Zn 0.7294 0.16888 0.15742 0.0
C35 C 0.65015 0.08205 0.13442 0.0
N36 N 0.67595 0.05312 0.14248 0.0
C37 C 0.70698 0.0788 0.14928 0.0
N38 N 0.70079 0.12156 0.1455 0.0
N39 N 0.66503 0.12398 0.13598 0.0
C40 C 0.57036 0.21719 0.11131 0.0
O41 O 0.59709 0.24511 0.10396 0.0
O42 O 0.79409 0.15757 0.16167 0.0
Zn43 Zn 0.65266 0.17128 0.11988 0.0
N44 N 0.70052 0.17464 0.17882 0.0
C45 C 0.63579 0.16622 0.19518 0.0
C46 C 0.65731 0.16332 0.1799 0.0
C47 C 0.72314 0.18925 0.19241 0.0
N48 N 0.65828 0.18065 0.20876 0.0
C49 C 0.70149 0.19259 0.20791 0.0
O50 O 0.68283 0.23107 0.12401 0.0
C51 C 0.71006 0.24892 0.13407 0.0
O52 O 0.72691 0.22746 0.14609 0.0
H53 H 0.63978 0.15194 0.16897 0.0
H54 H 0.75765 0.19737 0.19111 0.0
C55 C 0.65798 0.1482 0.08402 0.0
C56 C 0.68079 0.12945 0.0704 0.0
C57 C 0.74104 0.11324 0.08832 0.0
C58 C 0.71881 0.13234 0.1016 0.0
N59 N 0.67771 0.14902 0.09931 0.0
N60 N 0.72164 0.11234 0.07312 0.0
H61 H 0.62513 0.16147 0.08262 0.0
C62 C 0.82135 0.15884 0.14967 0.0
O63 O 0.8063 0.16316 0.13438 0.0
O64 O 0.58648 0.18303 0.11822 0.0
H65 H 0.73413 0.13365 0.11375 0.0
H66 H 0.60146 0.1571 0.19627 0.0
H67 H 0.7736 0.09949 0.09004 0.0
Zn68 Zn 0.84545 0.64559 0.11357 0.0
C69 C 0.94046 0.69858 0.14211 0.0
N70 N 0.96547 0.66739 0.13511 0.0
C71 C 0.93572 0.64196 0.12729 0.0
N72 N 0.89402 0.65715 0.12922 0.0
N73 N 0.8974 0.69283 0.1387 0.0
C74 C 0.86181 0.81363 0.14446 0.0
O75 O 0.85605 0.80026 0.12903 0.0
O76 O 0.83116 0.5799 0.11187 0.0
Zn77 Zn 0.85137 0.72105 0.1513 0.0
N78 N 0.86616 0.6714 0.09284 0.0
C79 C 0.89863 0.73668 0.08203 0.0
C80 C 0.8811 0.71307 0.09527 0.0
C81 C 0.86734 0.65233 0.07743 0.0
N82 N 0.89983 0.718 0.06672 0.0
C83 C 0.88455 0.67653 0.06382 0.0
O84 O 0.79198 0.71977 0.14062 0.0
C85 C 0.76958 0.70352 0.12874 0.0
O86 O 0.78648 0.67646 0.11841 0.0
H87 H 0.87954 0.7278 0.10752 0.0
H88 H 0.85548 0.61901 0.07593 0.0
C89 C 0.83179 0.71372 0.18603 0.0
C90 C 0.82888 0.69234 0.20157 0.0
C91 C 0.85683 0.62714 0.18907 0.0
C92 C 0.85925 0.64843 0.17371 0.0
N93 N 0.84687 0.69128 0.17252 0.0
N94 N 0.84183 0.64948 0.20258 0.0
H95 H 0.82293 0.74798 0.18461 0.0
C96 C 0.81406 0.56332 0.12495 0.0
O97 O 0.80926 0.58862 0.13812 0.0
O98 O 0.86373 0.78519 0.15605 0.0
H99 H 0.87109 0.63104 0.16284 0.0
H100 H 0.91094 0.76975 0.08386 0.0
H101 H 0.86676 0.59309 0.19026 0.0
Zn102 Zn 0.37193 0.83972 0.11311 0.0
C103 C 0.3186 0.93561 0.14088 0.0
N104 N 0.34944 0.96083 0.13376 0.0
C105 C 0.37544 0.93121 0.12615 0.0
N106 N 0.3608 0.88934 0.12837 0.0
N107 N 0.32505 0.8926 0.13782 0.0
C108 C 0.20596 0.85561 0.14403 0.0
O109 O 0.22032 0.85032 0.12871 0.0
O110 O 0.43745 0.82587 0.11061 0.0
Zn111 Zn 0.29844 0.8475 0.15136 0.0
N112 N 0.34381 0.85772 0.09247 0.0
C113 C 0.27515 0.88298 0.08188 0.0
C114 C 0.30084 0.86814 0.09505 0.0
C115 C 0.3624 0.86127 0.07704 0.0
N116 N 0.29332 0.8864 0.06653 0.0
C117 C 0.33622 0.87592 0.0635 0.0
O118 O 0.30137 0.78702 0.14185 0.0
C119 C 0.31723 0.76398 0.1301 0.0
O120 O 0.34267 0.78061 0.11913 0.0
H121 H 0.2868 0.8651 0.10737 0.0
H122 H 0.39686 0.8533 0.07549 0.0
C123 C 0.30723 0.8317 0.18633 0.0
C124 C 0.32889 0.83167 0.20186 0.0
C125 C 0.39209 0.86268 0.18889 0.0
C126 C 0.37059 0.86218 0.17353 0.0
N127 N 0.32858 0.84693 0.17258 0.0
N128 N 0.37084 0.84752 0.20263 0.0
H129 H 0.27358 0.82047 0.18509 0.0
C130 C 0.45472 0.80768 0.12335 0.0
O131 O 0.43018 0.80193 0.13668 0.0
O132 O 0.23377 0.85818 0.15584 0.0
H133 H 0.38716 0.87404 0.16248 0.0
H134 H 0.24094 0.89158 0.08381 0.0
H135 H 0.42545 0.87494 0.18989 0.0
Zn136 Zn 0.17446 0.7258 0.35629 0.0
C137 C 0.08595 0.64088 0.37209 0.0
N138 N 0.0599 0.66654 0.36262 0.0
C139 C 0.08518 0.70158 0.35952 0.0
N140 N 0.12505 0.69761 0.36667 0.0
N141 N 0.12577 0.65983 0.37496 0.0
C142 C 0.19601 0.5635 0.38216 0.0
O143 O 0.2003 0.58659 0.36841 0.0
O144 O 0.1621 0.78948 0.35185 0.0
Zn145 Zn 0.16833 0.64788 0.39289 0.0
N146 N 0.18437 0.69666 0.33517 0.0
C147 C 0.18015 0.6312 0.31901 0.0
C148 C 0.17498 0.65303 0.33413 0.0
C149 C 0.19891 0.71952 0.32165 0.0
N150 N 0.19446 0.65393 0.3055 0.0
C151 C 0.20423 0.69764 0.30629 0.0
O152 O 0.22898 0.67808 0.39084 0.0
C153 C 0.24886 0.70664 0.38191 0.0
O154 O 0.23019 0.72454 0.36947 0.0
H155 H 0.16307 0.63545 0.34492 0.0
H156 H 0.20518 0.75442 0.32285 0.0
C157 C 0.14238 0.65413 0.42832 0.0
C158 C 0.12163 0.67614 0.44173 0.0
C159 C 0.10012 0.73322 0.42315 0.0
C160 C 0.12125 0.71186 0.41012 0.0
N161 N 0.14154 0.67264 0.41283 0.0
N162 N 0.10093 0.71502 0.43856 0.0
H163 H 0.15868 0.62283 0.43003 0.0
C164 C 0.15945 0.81474 0.3644 0.0
O165 O 0.16207 0.79759 0.37942 0.0
O166 O 0.18087 0.5824 0.3951 0.0
H167 H 0.12159 0.72656 0.39788 0.0
H168 H 0.17263 0.59651 0.31797 0.0
H169 H 0.0836 0.7643 0.4211 0.0
Zn170 Zn 0.36465 0.18049 0.3993 0.0
C171 C 0.30569 0.08039 0.37755 0.0
N172 N 0.33585 0.05667 0.38582 0.0
C173 C 0.36482 0.08752 0.39078 0.0
N174 N 0.3525 0.12838 0.38581 0.0
N175 N 0.31558 0.12343 0.3772 0.0
C176 C 0.19855 0.15236 0.36996 0.0
O177 O 0.214 0.15591 0.3852 0.0
O178 O 0.43015 0.19272 0.40143 0.0
Zn179 Zn 0.28973 0.16505 0.3619 0.0
N180 N 0.33614 0.16797 0.42038 0.0
C181 C 0.26507 0.15492 0.4318 0.0
C182 C 0.29177 0.16587 0.41839 0.0
C183 C 0.35529 0.15986 0.43547 0.0
N184 N 0.28382 0.1469 0.44682 0.0
C185 C 0.3282 0.14911 0.44924 0.0
O186 O 0.29214 0.22736 0.36965 0.0
C187 C 0.30931 0.25251 0.38051 0.0
O188 O 0.33597 0.23799 0.3915 0.0
H189 H 0.27743 0.17232 0.4063 0.0
H190 H 0.39078 0.16107 0.43658 0.0
C191 C 0.29996 0.17953 0.327 0.0
C192 C 0.32088 0.17691 0.31135 0.0
C193 C 0.37975 0.1375 0.32402 0.0
C194 C 0.35899 0.14055 0.33947 0.0
N195 N 0.3195 0.16135 0.34064 0.0
N196 N 0.3603 0.1556 0.31039 0.0
H197 H 0.26817 0.19511 0.32842 0.0
C198 C 0.44832 0.20643 0.38811 0.0
O199 O 0.42438 0.20915 0.37447 0.0
O200 O 0.22534 0.15297 0.35782 0.0
H201 H 0.37412 0.12631 0.35043 0.0
H202 H 0.2297 0.15286 0.43033 0.0
H203 H 0.41111 0.12089 0.32285 0.0
Zn204 Zn 0.84806 0.29055 0.36307 0.0
C205 C 0.92853 0.36737 0.38998 0.0
N206 N 0.95919 0.33893 0.38449 0.0
C207 C 0.93485 0.30823 0.37679 0.0
N208 N 0.89156 0.31734 0.37735 0.0
N209 N 0.8872 0.35449 0.38585 0.0
C210 C 0.80563 0.45038 0.38907 0.0
O211 O 0.80001 0.42553 0.37582 0.0
O212 O 0.86093 0.22661 0.35843 0.0
Zn213 Zn 0.83653 0.36744 0.40007 0.0
N214 N 0.84819 0.3207 0.34182 0.0
C215 C 0.86478 0.38361 0.32536 0.0
C216 C 0.86398 0.36244 0.34077 0.0
C217 C 0.8328 0.29927 0.3281 0.0
N218 N 0.84946 0.36228 0.31165 0.0
C219 C 0.83312 0.32056 0.31249 0.0
O220 O 0.77865 0.33755 0.39357 0.0
C221 C 0.76291 0.30981 0.38324 0.0
O222 O 0.78671 0.29203 0.3721 0.0
H223 H 0.87604 0.37906 0.35179 0.0
H224 H 0.8212 0.26581 0.32943 0.0
C225 C 0.85804 0.35994 0.43618 0.0
C226 C 0.87181 0.33418 0.44993 0.0
C227 C 0.87361 0.27107 0.43241 0.0
C228 C 0.85962 0.29639 0.41902 0.0
N229 N 0.85234 0.34017 0.42106 0.0
N230 N 0.87927 0.29045 0.44746 0.0
H231 H 0.85258 0.39498 0.43734 0.0
C232 C 0.85867 0.19792 0.36992 0.0
O233 O 0.85186 0.21089 0.38533 0.0
O234 O 0.82325 0.43328 0.40196 0.0
H235 H 0.85496 0.28143 0.40692 0.0
H236 H 0.87745 0.41677 0.32428 0.0
H237 H 0.87984 0.23625 0.4309 0.0
Zn238 Zn 0.72602 0.8447 0.35663 0.0
C239 C 0.64084 0.92994 0.37433 0.0
N240 N 0.66726 0.95793 0.36604 0.0
C241 C 0.70255 0.93327 0.36259 0.0
N242 N 0.69799 0.89199 0.36837 0.0
N243 N 0.65947 0.88959 0.37613 0.0
C244 C 0.56306 0.80096 0.40153 0.0
O245 O 0.58995 0.77376 0.40919 0.0
O246 O 0.79049 0.85595 0.35248 0.0
Zn247 Zn 0.64565 0.84365 0.39261 0.0
N248 N 0.6975 0.83945 0.33514 0.0
C249 C 0.63371 0.84847 0.31825 0.0
C250 C 0.65446 0.85116 0.33371 0.0
C251 C 0.72062 0.82457 0.32174 0.0
N252 N 0.65673 0.83374 0.30487 0.0
C253 C 0.69974 0.82134 0.3061 0.0
O254 O 0.6741 0.78248 0.38877 0.0
C255 C 0.70276 0.76473 0.37925 0.0
O256 O 0.72182 0.78645 0.36781 0.0
H257 H 0.63643 0.86264 0.34448 0.0
H258 H 0.75497 0.8161 0.32332 0.0
C259 C 0.65245 0.86755 0.42846 0.0
C260 C 0.67642 0.88539 0.442 0.0
C261 C 0.73727 0.89781 0.42397 0.0
C262 C 0.71387 0.87962 0.41079 0.0
N263 N 0.67187 0.8654 0.41314 0.0
N264 N 0.71812 0.90019 0.43917 0.0
H265 H 0.61897 0.85603 0.42996 0.0
C266 C 0.81811 0.85495 0.36437 0.0
O267 O 0.80371 0.84989 0.3797 0.0
O268 O 0.5791 0.83448 0.39415 0.0
H269 H 0.72911 0.87689 0.39868 0.0
H270 H 0.59955 0.85793 0.31689 0.0
H271 H 0.77056 0.90962 0.42218 0.0
Zn272 Zn 0.86879 0.67746 0.89269 0.0
C273 C 0.81143 0.58847 0.86241 0.0
N274 N 0.84701 0.56397 0.86562 0.0
C275 C 0.87334 0.59181 0.87403 0.0
N276 N 0.85439 0.63185 0.87614 0.0
N277 N 0.81571 0.62951 0.86846 0.0
C278 C 0.69548 0.66458 0.86425 0.0
O279 O 0.7095 0.66836 0.87969 0.0
O280 O 0.93549 0.68654 0.89427 0.0
Zn281 Zn 0.78767 0.67698 0.85678 0.0
N282 N 0.84266 0.65589 0.91328 0.0
C283 C 0.77663 0.62526 0.92425 0.0
C284 C 0.80031 0.64265 0.911 0.0
C285 C 0.86226 0.65335 0.92857 0.0
N286 N 0.7959 0.62262 0.93944 0.0
C287 C 0.83802 0.63633 0.9422 0.0
O288 O 0.79167 0.73495 0.8682 0.0
C289 C 0.81123 0.75639 0.87961 0.0
O290 O 0.84033 0.73848 0.8889 0.0
H291 H 0.78499 0.64563 0.8989 0.0
H292 H 0.89604 0.66404 0.92997 0.0
C293 C 0.79321 0.69625 0.82173 0.0
C294 C 0.81457 0.69994 0.80619 0.0
C295 C 0.88127 0.67626 0.81892 0.0
C296 C 0.86004 0.67313 0.83426 0.0
N297 N 0.81645 0.68288 0.83536 0.0
N298 N 0.85816 0.68949 0.80532 0.0
H299 H 0.75846 0.70321 0.82305 0.0
C300 C 0.95157 0.72017 0.90159 0.0
O301 O 0.92465 0.74766 0.90906 0.0
O302 O 0.72333 0.66535 0.85245 0.0
H303 H 0.87813 0.66286 0.84519 0.0
H304 H 0.74302 0.6143 0.92254 0.0
H305 H 0.91589 0.66835 0.81781 0.0
Zn306 Zn 0.33904 0.79244 0.85633 0.0
C307 C 0.42972 0.87712 0.87113 0.0
N308 N 0.45487 0.85085 0.86157 0.0
C309 C 0.42881 0.81632 0.85859 0.0
N310 N 0.38928 0.82112 0.86591 0.0
N311 N 0.38957 0.85895 0.87419 0.0
C312 C 0.30328 0.95373 0.90112 0.0
O313 O 0.27881 0.92662 0.90991 0.0
O314 O 0.3514 0.72891 0.8514 0.0
Zn315 Zn 0.34756 0.8724 0.89221 0.0
N316 N 0.32595 0.82196 0.83554 0.0
C317 C 0.3221 0.88886 0.82023 0.0
C318 C 0.32976 0.86648 0.83512 0.0
C319 C 0.31423 0.79874 0.82171 0.0
N320 N 0.31059 0.8658 0.80641 0.0
C321 C 0.30611 0.82119 0.80664 0.0
O322 O 0.28669 0.84161 0.89103 0.0
C323 C 0.26678 0.81185 0.88268 0.0
O324 O 0.28495 0.79323 0.8703 0.0
H325 H 0.33897 0.8844 0.84623 0.0
H326 H 0.31212 0.76327 0.82245 0.0
C327 C 0.37213 0.86768 0.92805 0.0
C328 C 0.39392 0.84703 0.94157 0.0
C329 C 0.42157 0.79285 0.92294 0.0
C330 C 0.39942 0.81272 0.90981 0.0
N331 N 0.37557 0.84994 0.91246 0.0
N332 N 0.4182 0.81028 0.93841 0.0
H333 H 0.35296 0.89729 0.92977 0.0
C334 C 0.35435 0.70244 0.86359 0.0
O335 O 0.35215 0.71808 0.87885 0.0
O336 O 0.33579 0.93835 0.89297 0.0
H337 H 0.40109 0.7983 0.89754 0.0
H338 H 0.32527 0.92429 0.81966 0.0
H339 H 0.44089 0.76341 0.92092 0.0
Zn340 Zn 0.22432 0.34916 0.86121 0.0
C341 C 0.14851 0.43394 0.88657 0.0
N342 N 0.17632 0.46365 0.88 0.0
C343 C 0.2065 0.43816 0.87256 0.0
N344 N 0.19774 0.39506 0.87436 0.0
N345 N 0.16126 0.39208 0.88334 0.0
C346 C 0.0664 0.31421 0.8874 0.0
O347 O 0.0911 0.30911 0.87409 0.0
O348 O 0.288 0.36203 0.85635 0.0
Zn349 Zn 0.14902 0.34381 0.89863 0.0
N350 N 0.19326 0.34564 0.84022 0.0
C351 C 0.12861 0.35852 0.82419 0.0
C352 C 0.15081 0.35966 0.83939 0.0
C353 C 0.21442 0.33011 0.82647 0.0
N354 N 0.1497 0.34319 0.81044 0.0
C355 C 0.19211 0.32861 0.81108 0.0
O356 O 0.17931 0.28525 0.89362 0.0
C357 C 0.20712 0.26779 0.88374 0.0
O358 O 0.22439 0.28953 0.87189 0.0
H359 H 0.13445 0.3719 0.85042 0.0
H360 H 0.24843 0.31992 0.82757 0.0
C361 C 0.15495 0.36616 0.93454 0.0
C362 C 0.17901 0.38257 0.94831 0.0
C363 C 0.24106 0.39323 0.93068 0.0
C364 C 0.2175 0.37647 0.91728 0.0
N365 N 0.175 0.36357 0.91937 0.0
N366 N 0.2214 0.39576 0.9458 0.0
H367 H 0.12093 0.35605 0.93573 0.0
C368 C 0.31473 0.36229 0.86853 0.0
O369 O 0.29921 0.35764 0.88372 0.0
O370 O 0.08363 0.33083 0.90044 0.0
H371 H 0.23284 0.37398 0.90518 0.0
H372 H 0.09489 0.36978 0.82329 0.0
H373 H 0.27482 0.40392 0.92914 0.0
Zn374 Zn 0.66654 0.23006 0.86317 0.0
C375 C 0.58637 0.15235 0.88974 0.0
N376 N 0.55561 0.18066 0.8842 0.0
C377 C 0.5799 0.2118 0.87673 0.0
N378 N 0.62323 0.2031 0.87746 0.0
N379 N 0.62771 0.16577 0.88584 0.0
C380 C 0.70892 0.07079 0.88881 0.0
O381 O 0.71392 0.09613 0.87565 0.0
O382 O 0.65397 0.29424 0.85872 0.0
Zn383 Zn 0.67838 0.15304 0.9001 0.0
N384 N 0.66586 0.20006 0.84192 0.0
C385 C 0.6478 0.1377 0.82538 0.0
C386 C 0.64891 0.15878 0.8408 0.0
C387 C 0.6821 0.2211 0.82826 0.0
N388 N 0.66399 0.15863 0.81173 0.0
C389 C 0.68149 0.19986 0.81265 0.0
O390 O 0.73623 0.18293 0.89359 0.0
C391 C 0.75194 0.21047 0.88318 0.0
O392 O 0.72806 0.22821 0.87204 0.0
H393 H 0.6362 0.14245 0.85177 0.0
H394 H 0.69462 0.25422 0.82964 0.0
C395 C 0.65702 0.16023 0.9362 0.0
C396 C 0.64313 0.18581 0.94995 0.0
C397 C 0.64093 0.24903 0.9325 0.0
C398 C 0.65503 0.22389 0.91909 0.0
N399 N 0.66254 0.18013 0.92109 0.0
N400 N 0.63539 0.22951 0.94753 0.0
H401 H 0.66269 0.12522 0.93733 0.0
C402 C 0.65563 0.32249 0.87038 0.0
O403 O 0.6616 0.30891 0.88577 0.0
O404 O 0.69178 0.08733 0.90188 0.0
H405 H 0.65958 0.23895 0.907 0.0
H406 H 0.63423 0.10491 0.82425 0.0
H407 H 0.63451 0.28384 0.93102 0.0
Zn408 Zn 0.87033 0.34168 0.6205 0.0
C409 C 0.81402 0.43031 0.65115 0.0
N410 N 0.84975 0.45465 0.64799 0.0
C411 C 0.87586 0.42684 0.63949 0.0
N412 N 0.85664 0.38694 0.63726 0.0
N413 N 0.81806 0.38935 0.64499 0.0
C414 C 0.69769 0.3539 0.6486 0.0
O415 O 0.71215 0.34909 0.63327 0.0
O416 O 0.93691 0.33213 0.61875 0.0
Zn417 Zn 0.78945 0.34173 0.65637 0.0
N418 N 0.84446 0.36437 0.60004 0.0
C419 C 0.78006 0.39852 0.58914 0.0
C420 C 0.80292 0.37988 0.60236 0.0
C421 C 0.8639 0.3657 0.58471 0.0
N422 N 0.79921 0.4 0.57391 0.0
C423 C 0.84044 0.38392 0.57111 0.0
O424 O 0.79306 0.28399 0.64475 0.0
C425 C 0.81232 0.26271 0.63324 0.0
O426 O 0.84143 0.28069 0.62399 0.0
H427 H 0.78759 0.37775 0.61447 0.0
H428 H 0.897 0.35316 0.58325 0.0
C429 C 0.79423 0.32199 0.69138 0.0
C430 C 0.8154 0.31759 0.70694 0.0
C431 C 0.88273 0.33988 0.69437 0.0
C432 C 0.86167 0.34371 0.679 0.0
N433 N 0.81788 0.33498 0.67782 0.0
N434 N 0.85922 0.327 0.70791 0.0
H435 H 0.75933 0.31587 0.69 0.0
C436 C 0.95266 0.29859 0.6113 0.0
O437 O 0.92545 0.27126 0.60386 0.0
O438 O 0.72519 0.35379 0.66054 0.0
H439 H 0.88006 0.35371 0.66811 0.0
H440 H 0.74714 0.41134 0.5909 0.0
H441 H 0.91752 0.34697 0.69553 0.0
Zn442 Zn 0.66873 0.7894 0.64954 0.0
C443 C 0.58757 0.86715 0.62344 0.0
N444 N 0.55691 0.83931 0.62937 0.0
C445 C 0.58136 0.80812 0.63673 0.0
N446 N 0.62474 0.81636 0.63554 0.0
N447 N 0.62902 0.85346 0.627 0.0
C448 C 0.71015 0.94814 0.62363 0.0
O449 O 0.71548 0.92272 0.63674 0.0
O450 O 0.65607 0.7254 0.6543 0.0
Zn451 Zn 0.67902 0.86595 0.61238 0.0
N452 N 0.6695 0.81979 0.67072 0.0
C453 C 0.65422 0.88325 0.68705 0.0
C454 C 0.65438 0.86179 0.67169 0.0
C455 C 0.68484 0.7984 0.68446 0.0
N456 N 0.6695 0.86195 0.70077 0.0
C457 C 0.68518 0.81999 0.7 0.0
O458 O 0.73707 0.83571 0.61846 0.0
C459 C 0.75311 0.80821 0.62882 0.0
O460 O 0.7297 0.79083 0.64018 0.0
H461 H 0.64238 0.87839 0.66067 0.0
H462 H 0.69591 0.76474 0.6832 0.0
C463 C 0.65614 0.85891 0.57637 0.0
C464 C 0.64104 0.83353 0.56273 0.0
C465 C 0.63786 0.77059 0.5803 0.0
C466 C 0.65316 0.79552 0.5936 0.0
N467 N 0.66172 0.83905 0.59148 0.0
N468 N 0.63224 0.79008 0.56527 0.0
H469 H 0.6627 0.89374 0.57513 0.0
C470 C 0.65887 0.69663 0.64286 0.0
O471 O 0.66585 0.70958 0.62746 0.0
O472 O 0.69265 0.93168 0.6106 0.0
H473 H 0.65779 0.78045 0.60568 0.0
H474 H 0.6421 0.91662 0.68806 0.0
H475 H 0.63058 0.73599 0.58188 0.0
Zn476 Zn 0.22564 0.67041 0.64959 0.0
C477 C 0.15035 0.58502 0.62417 0.0
N478 N 0.17879 0.55558 0.63053 0.0
C479 C 0.2088 0.58133 0.63797 0.0
N480 N 0.19934 0.62433 0.63639 0.0
N481 N 0.16263 0.62697 0.62751 0.0
C482 C 0.06745 0.70456 0.62344 0.0
O483 O 0.09248 0.71007 0.63665 0.0
O484 O 0.28927 0.65773 0.65469 0.0
Zn485 Zn 0.14991 0.67502 0.61216 0.0
N486 N 0.19436 0.67397 0.67055 0.0
C487 C 0.12956 0.66095 0.68645 0.0
C488 C 0.15192 0.65986 0.67129 0.0
C489 C 0.21535 0.68953 0.68435 0.0
N490 N 0.15049 0.6763 0.70024 0.0
C491 C 0.19289 0.69096 0.6997 0.0
O492 O 0.1799 0.73365 0.61722 0.0
C493 C 0.20781 0.75144 0.627 0.0
O494 O 0.22555 0.72999 0.63883 0.0
H495 H 0.13569 0.64757 0.66022 0.0
H496 H 0.24937 0.69979 0.68332 0.0
C497 C 0.15611 0.65203 0.57622 0.0
C498 C 0.18063 0.63593 0.56252 0.0
C499 C 0.24297 0.62758 0.58022 0.0
C500 C 0.21894 0.64398 0.59355 0.0
N501 N 0.17608 0.65557 0.5914 0.0
N502 N 0.22338 0.62405 0.56511 0.0
H503 H 0.12183 0.66113 0.57497 0.0
C504 C 0.31664 0.6558 0.64276 0.0
O505 O 0.30199 0.65857 0.62737 0.0
O506 O 0.0844 0.68767 0.61041 0.0
H507 H 0.23422 0.64726 0.60565 0.0
H508 H 0.09584 0.64962 0.68727 0.0
H509 H 0.27702 0.61793 0.58181 0.0
Zn510 Zn 0.34947 0.14725 0.6193 0.0
C511 C 0.43037 0.20376 0.653 0.0
N512 N 0.45631 0.16903 0.65025 0.0
C513 C 0.43129 0.14273 0.64064 0.0
N514 N 0.39137 0.16108 0.63733 0.0
N515 N 0.39107 0.1991 0.64548 0.0
C516 C 0.35695 0.31729 0.64754 0.0
O517 O 0.35575 0.30111 0.63235 0.0
O518 O 0.33784 0.08132 0.6188 0.0
Zn519 Zn 0.34079 0.22764 0.65498 0.0
N520 N 0.37795 0.16879 0.59901 0.0
C521 C 0.42611 0.22386 0.58835 0.0
C522 C 0.40315 0.20521 0.60154 0.0
C523 C 0.37389 0.15077 0.58349 0.0
N524 N 0.42219 0.20608 0.57295 0.0
C525 C 0.39654 0.17017 0.56993 0.0
O526 O 0.28691 0.22656 0.64094 0.0
C527 C 0.2687 0.20792 0.62857 0.0
O528 O 0.28854 0.17807 0.62024 0.0
H529 H 0.4054 0.21988 0.61374 0.0
H530 H 0.35363 0.12182 0.58184 0.0
C531 C 0.31567 0.22115 0.68951 0.0
C532 C 0.30738 0.19865 0.70455 0.0
C533 C 0.32376 0.13106 0.69098 0.0
C534 C 0.33155 0.1535 0.67613 0.0
N535 N 0.32764 0.19802 0.67571 0.0
N536 N 0.31199 0.15405 0.70479 0.0
H537 H 0.31347 0.25662 0.68877 0.0
C538 C 0.30508 0.06555 0.61087 0.0
O539 O 0.27998 0.09232 0.60219 0.0
O540 O 0.35291 0.29129 0.65983 0.0
H541 H 0.34092 0.13563 0.66503 0.0
H542 H 0.44652 0.25262 0.59027 0.0
H543 H 0.32701 0.09564 0.69156 0.0
H544 H 0.18531 0.40041 0.05439 0.0
H545 H 0.11282 0.33243 0.96292 0.0
H546 H 0.0734 0.31655 0.04415 0.0
H547 H 0.20559 0.43677 0.97339 0.0
H548 H 0.09359 0.33036 0.99245 0.0
H549 H 0.18919 0.4185 0.02487 0.0
C550 C 0.16089 0.38645 0.04611 0.0
C551 C 0.12902 0.35662 0.05194 0.0
C552 C 0.11767 0.35418 0.98822 0.0
C553 C 0.13422 0.37649 0.01784 0.0
C554 C 0.12849 0.35562 0.97127 0.0
C555 C 0.16118 0.38467 0.96556 0.0
C556 C 0.13999 0.3816 0.99955 0.0
C557 C 0.1807 0.41331 0.9772 0.0
C558 C 0.16337 0.39663 0.02914 0.0
C559 C 0.09897 0.33921 0.04029 0.0
N560 N 0.17022 0.41069 0.99362 0.0
N561 N 0.10264 0.34896 0.02383 0.0
H562 H 0.70078 0.07135 0.0457 0.0
H563 H 0.58896 0.21638 0.97436 0.0
H564 H 0.62249 0.18734 0.05521 0.0
H565 H 0.68609 0.11555 0.96497 0.0
H566 H 0.58875 0.19605 1.00375 0.0
H567 H 0.68326 0.07738 0.01613 0.0
C568 C 0.67937 0.09778 0.04164 0.0
C569 C 0.66345 0.12909 0.05305 0.0
C570 C 0.60967 0.17797 0.99523 0.0
C571 C 0.64339 0.13619 0.01904 0.0
C572 C 0.60986 0.18953 0.97841 0.0
C573 C 0.63788 0.16796 0.9671 0.0
C574 C 0.63783 0.14463 1.00091 0.0
C575 C 0.66373 0.13304 0.97311 0.0
C576 C 0.66941 0.10115 0.02471 0.0
C577 C 0.63539 0.16222 0.047 0.0
N578 N 0.66343 0.12282 0.98964 0.0
N579 N 0.62669 0.16516 0.03038 0.0
H580 H 0.90337 0.68673 0.95733 0.0
H581 H 0.83118 0.61373 0.04863 0.0
H582 H 0.81085 0.58173 0.96711 0.0
H583 H 0.93918 0.70268 0.03878 0.0
H584 H 0.82771 0.59673 0.01892 0.0
H585 H 0.92162 0.6884 0.98697 0.0
C586 C 0.88753 0.66334 0.96555 0.0
C587 C 0.85524 0.63417 0.95959 0.0
C588 C 0.85259 0.61951 0.02331 0.0
C589 C 0.87533 0.63676 0.99375 0.0
C590 C 0.85483 0.62902 0.04037 0.0
C591 C 0.8854 0.65997 0.04634 0.0
C592 C 0.88079 0.64134 0.0121 0.0
C593 C 0.91459 0.6791 0.03479 0.0
C594 C 0.89777 0.66456 0.98257 0.0
C595 C 0.83548 0.60527 0.97109 0.0
N596 N 0.91124 0.66989 0.01827 0.0
N597 N 0.84544 0.60764 0.98758 0.0
H598 H 0.32835 0.89716 0.95676 0.0
H599 H 0.40728 0.83382 0.04829 0.0
H600 H 0.45075 0.8297 0.96706 0.0
H601 H 0.30146 0.92537 0.03836 0.0
H602 H 0.42595 0.83491 0.01872 0.0
H603 H 0.32003 0.91119 0.98654 0.0
C604 C 0.354 0.88604 0.96513 0.0
C605 C 0.39031 0.86197 0.95922 0.0
C606 C 0.39898 0.85518 0.02308 0.0
C607 C 0.38021 0.87705 0.99356 0.0
C608 C 0.38842 0.85483 0.04007 0.0
C609 C 0.3525 0.87945 0.04601 0.0
C610 C 0.37326 0.87991 0.01188 0.0
C611 C 0.32905 0.90533 0.03444 0.0
C612 C 0.349 0.89382 0.98223 0.0
C613 C 0.42187 0.84788 0.97095 0.0
N614 N 0.33951 0.90452 0.01798 0.0
N615 N 0.41585 0.85518 0.9875 0.0
H616 H 0.06486 0.69706 0.46684 0.0
H617 H 0.20841 0.58122 0.5378 0.0
H618 H 0.18159 0.61981 0.45709 0.0
H619 H 0.11332 0.68382 0.54754 0.0
H620 H 0.18829 0.58313 0.50841 0.0
H621 H 0.07216 0.68041 0.49643 0.0
C622 C 0.09178 0.67614 0.47083 0.0
C623 C 0.12279 0.66014 0.45929 0.0
C624 C 0.17146 0.60485 0.51701 0.0
C625 C 0.13115 0.64091 0.49335 0.0
C626 C 0.18288 0.60384 0.53384 0.0
C627 C 0.16286 0.63265 0.54527 0.0
C628 C 0.13969 0.63491 0.51144 0.0
C629 C 0.12957 0.66073 0.53933 0.0
C630 C 0.09583 0.66669 0.48778 0.0
C631 C 0.15655 0.63273 0.46532 0.0
N632 N 0.11935 0.66142 0.5228 0.0
N633 N 0.16 0.62433 0.48194 0.0
H634 H 0.45561 0.18151 0.54474 0.0
H635 H 0.29009 0.10011 0.47374 0.0
H636 H 0.32755 0.12525 0.55469 0.0
H637 H 0.40451 0.18088 0.46422 0.0
H638 H 0.31101 0.0959 0.50303 0.0
H639 H 0.44457 0.16805 0.51508 0.0
C640 C 0.42535 0.16577 0.54076 0.0
C641 C 0.39236 0.15486 0.55236 0.0
C642 C 0.33183 0.1141 0.4945 0.0
C643 C 0.37957 0.13942 0.51821 0.0
C644 C 0.31995 0.11659 0.47773 0.0
C645 C 0.34531 0.14121 0.46639 0.0
C646 C 0.36941 0.13644 0.50011 0.0
C647 C 0.38396 0.16126 0.47235 0.0
C648 C 0.41914 0.15813 0.52377 0.0
C649 C 0.35415 0.13403 0.54637 0.0
N650 N 0.39455 0.15878 0.48883 0.0
N651 N 0.34867 0.12741 0.5297 0.0
H652 H 0.90068 0.32805 0.55591 0.0
H653 H 0.83009 0.40527 0.46491 0.0
H654 H 0.81764 0.4407 0.54629 0.0
H655 H 0.92501 0.30238 0.47446 0.0
H656 H 0.83213 0.42465 0.49444 0.0
H657 H 0.91723 0.32397 0.52618 0.0
C658 C 0.8867 0.3526 0.54769 0.0
C659 C 0.8574 0.38463 0.55371 0.0
C660 C 0.85302 0.39825 0.49002 0.0
C661 C 0.87543 0.37936 0.51947 0.0
C662 C 0.85213 0.38735 0.47306 0.0
C663 C 0.87719 0.35184 0.46711 0.0
C664 C 0.87885 0.3733 0.50112 0.0
C665 C 0.90456 0.32955 0.47848 0.0
C666 C 0.89591 0.35001 0.53062 0.0
C667 C 0.83987 0.415 0.54224 0.0
N668 N 0.90426 0.34028 0.49492 0.0
N669 N 0.8487 0.41129 0.5257 0.0
H670 H 0.69937 0.94341 0.46635 0.0
H671 H 0.58482 0.80432 0.53871 0.0
H672 H 0.61598 0.83056 0.45758 0.0
H673 H 0.6856 0.90212 0.54729 0.0
H674 H 0.58412 0.82403 0.50925 0.0
H675 H 0.68255 0.93889 0.49601 0.0
C676 C 0.67697 0.91802 0.4706 0.0
C677 C 0.65942 0.88709 0.45937 0.0
C678 C 0.60595 0.8416 0.51761 0.0
C679 C 0.64019 0.88168 0.49349 0.0
C680 C 0.60643 0.83041 0.53447 0.0
C681 C 0.63561 0.85127 0.54557 0.0
C682 C 0.635 0.87387 0.51168 0.0
C683 C 0.66235 0.88521 0.53932 0.0
C684 C 0.66743 0.9155 0.48758 0.0
C685 C 0.63016 0.85533 0.46565 0.0
N686 N 0.66175 0.89507 0.52275 0.0
N687 N 0.62191 0.85314 0.48232 0.0
H688 H 0.23787 0.93832 0.12697 0.0
H689 H 0.1887 0.15833 0.17695 0.0
H690 H 0.31181 0.98197 0.16969 0.0
H691 H 0.14921 0.13241 0.12618 0.0
H692 H 0.21123 0.08129 0.17975 0.0
H693 H 0.18255 0.99491 0.13262 0.0
C694 C 0.24107 0.95823 0.13811 0.0
C695 C 0.27883 0.95516 0.14809 0.0
C696 C 0.19663 0.09228 0.16814 0.0
C697 C 0.21727 0.02139 0.15409 0.0
C698 C 0.18365 0.13619 0.16653 0.0
C699 C 0.168 0.15197 0.15117 0.0
C700 C 0.19355 0.064 0.15435 0.0
C701 C 0.16197 0.12179 0.13814 0.0
C702 C 0.20995 0.99105 0.14116 0.0
C703 C 0.2827 0.98312 0.16188 0.0
N704 N 0.17533 0.07938 0.13994 0.0
N705 N 0.25266 0.01565 0.16434 0.0
H706 H 0.04259 0.30258 0.17858 0.0
H707 H 0.88937 0.14639 0.12789 0.0
H708 H 0.08248 0.239 0.13311 0.0
H709 H 0.86204 0.18278 0.17884 0.0
H710 H 0.96597 0.16862 0.13182 0.0
H711 H 0.98392 0.24793 0.18186 0.0
C712 C 0.04047 0.27558 0.16979 0.0
C713 C 0.06796 0.27457 0.15578 0.0
C714 C 0.94354 0.17095 0.14228 0.0
C715 C 0.99945 0.21359 0.1588 0.0
C716 C 0.89971 0.15834 0.14001 0.0
C717 C 0.86912 0.1635 0.15295 0.0
C718 C 0.95671 0.18984 0.1575 0.0
C719 C 0.88445 0.17865 0.16846 0.0
C720 C 1.00662 0.24469 0.17152 0.0
C721 C 0.06287 0.24 0.14438 0.0
N722 N 0.92694 0.19224 0.17019 0.0
N723 N 0.02863 0.21148 0.14592 0.0
H724 H 0.87345 0.88379 0.1236 0.0
H725 H 0.72026 0.03061 0.17735 0.0
H726 H 0.84077 0.85128 0.17448 0.0
H727 H 0.78427 0.0772 0.13287 0.0
H728 H 0.77514 0.97191 0.17956 0.0
H729 H 0.85237 0.96003 0.12895 0.0
C730 C 0.86259 0.8929 0.13599 0.0
C731 C 0.85806 0.861 0.14851 0.0
C732 C 0.77845 0.99603 0.16969 0.0
C733 C 0.83307 0.94814 0.15469 0.0
C734 C 0.74741 0.02989 0.16858 0.0
C735 C 0.74838 0.05918 0.1551 0.0
C736 C 0.80961 0.99072 0.15687 0.0
C737 C 0.78321 0.056 0.14371 0.0
C738 C 0.85066 0.93652 0.13908 0.0
C739 C 0.84435 0.87474 0.16441 0.0
N740 N 0.81181 0.02168 0.1446 0.0
N741 N 0.83134 0.91706 0.16694 0.0
H742 H 0.16705 0.83254 0.17363 0.0
H743 H 0.94221 0.77785 0.12711 0.0
H744 H 0.13675 0.86633 0.12262 0.0
H745 H 0.98955 0.70794 0.17022 0.0
H746 H 0.99987 0.83305 0.13115 0.0
H747 H 0.0905 0.80902 0.17753 0.0
C748 C 0.14405 0.8361 0.16337 0.0
C749 C 0.15845 0.85058 0.14766 0.0
C750 C 0.99664 0.80662 0.14013 0.0
C751 C 0.071 0.82396 0.1521 0.0
C752 C 0.96314 0.77562 0.13803 0.0
C753 C 0.96066 0.73897 0.14858 0.0
C754 C 0.02826 0.80034 0.15271 0.0
C755 C 0.9901 0.73622 0.162 0.0
C756 C 0.10043 0.82255 0.16562 0.0
C757 C 0.12721 0.8546 0.13485 0.0
N758 N 0.02322 0.76612 0.16354 0.0
N759 N 0.08509 0.84085 0.13729 0.0
H760 H 0.22849 0.06883 0.3933 0.0
H761 H 0.18293 0.86149 0.33656 0.0
H762 H 0.29556 0.04254 0.34709 0.0
H763 H 0.13965 0.8776 0.38744 0.0
H764 H 0.20183 0.93977 0.33563 0.0
H765 H 0.1733 0.01341 0.38616 0.0
C766 C 0.23033 0.05262 0.38128 0.0
C767 C 0.26601 0.06023 0.37065 0.0
C768 C 0.1872 0.92636 0.34686 0.0
C769 C 0.20492 0.99514 0.36285 0.0
C770 C 0.17633 0.88172 0.3474 0.0
C771 C 0.16091 0.8629 0.36228 0.0
C772 C 0.18239 0.95214 0.36128 0.0
C773 C 0.15256 0.89064 0.37587 0.0
C774 C 0.1992 0.02066 0.37729 0.0
C775 C 0.26806 0.0376 0.35549 0.0
N776 N 0.16409 0.93373 0.37513 0.0
N777 N 0.23835 1.00527 0.35215 0.0
H778 H 0.15632 0.17584 0.34108 0.0
H779 H 0.93936 0.22961 0.39216 0.0
H780 H 0.13181 0.13781 0.39209 0.0
H781 H 0.97964 0.29825 0.34776 0.0
H782 H 0.99532 0.17346 0.38675 0.0
H783 H 0.07916 0.19831 0.33849 0.0
C784 C 0.13446 0.17112 0.3516 0.0
C785 C 0.15068 0.15599 0.36697 0.0
C786 C 0.99093 0.1999 0.37784 0.0
C787 C 0.06261 0.18153 0.36406 0.0
C788 C 0.95859 0.23154 0.3808 0.0
C789 C 0.95474 0.26797 0.37022 0.0
C790 C 0.02016 0.20554 0.36443 0.0
C791 C 0.98148 0.27016 0.35604 0.0
C792 C 0.09047 0.18406 0.35011 0.0
C793 C 0.12084 0.15026 0.38014 0.0
N794 N 0.0137 0.23972 0.35369 0.0
N795 N 0.07839 0.16367 0.37846 0.0
H796 H 0.77709 0.93392 0.38098 0.0
H797 H 0.84448 0.16102 0.33919 0.0
H798 H 0.72036 0.98451 0.33566 0.0
H799 H 0.86476 0.12717 0.39091 0.0
H800 H 0.82299 0.08481 0.33357 0.0
H801 H 0.83364 0.99111 0.37979 0.0
C802 C 0.77815 0.95549 0.37024 0.0
C803 C 0.74462 0.95415 0.35823 0.0
C804 C 0.83313 0.09389 0.34606 0.0
C805 C 0.80752 0.02109 0.35727 0.0
C806 C 0.84549 0.13735 0.34929 0.0
C807 C 0.85541 0.15067 0.36564 0.0
C808 C 0.83102 0.06354 0.35924 0.0
C809 C 0.85645 0.11851 0.37819 0.0
C810 C 0.80989 0.98871 0.36974 0.0
C811 C 0.74606 0.98432 0.34503 0.0
N812 N 0.84376 0.07656 0.37478 0.0
N813 N 0.77656 0.0171 0.34504 0.0
H814 H 0.03986 0.72051 0.33116 0.0
H815 H 0.88665 0.86609 0.38608 0.0
H816 H 0.07857 0.77431 0.37859 0.0
H817 H 0.85812 0.8364 0.33457 0.0
H818 H 0.96351 0.84618 0.38134 0.0
H819 H 0.98134 0.77574 0.32932 0.0
C820 C 0.03745 0.7455 0.34076 0.0
C821 C 0.06454 0.74353 0.35488 0.0
C822 C 0.94072 0.84482 0.37095 0.0
C823 C 0.99641 0.80513 0.3534 0.0
C824 C 0.89675 0.85609 0.37369 0.0
C825 C 0.86579 0.85192 0.36081 0.0
C826 C 0.95362 0.82832 0.35532 0.0
C827 C 0.88082 0.8395 0.34493 0.0
C828 C 1.00376 0.77675 0.33982 0.0
C829 C 0.0593 0.77564 0.36726 0.0
N830 N 0.92347 0.82714 0.34272 0.0
N831 N 0.02525 0.80451 0.36641 0.0
H832 H 0.82138 0.81 0.90733 0.0
H833 H 0.72441 0.02206 0.861 0.0
H834 H 0.77227 0.81003 0.8568 0.0
H835 H 0.72634 0.01314 0.9147 0.0
H836 H 0.75079 0.94654 0.85931 0.0
H837 H 0.79593 0.88671 0.91036 0.0
C838 C 0.80561 0.82614 0.89687 0.0
C839 C 0.79891 0.80343 0.8818 0.0
C840 C 0.74538 0.96092 0.87149 0.0
C841 C 0.76999 0.89085 0.88516 0.0
C842 C 0.73034 1.00418 0.87248 0.0
C843 C 0.72306 0.02404 0.88802 0.0
C844 C 0.75392 0.93711 0.88615 0.0
C845 C 0.73128 0.99901 0.90245 0.0
C846 C 0.79084 0.86973 0.89864 0.0
C847 C 0.778 0.82595 0.86869 0.0
N848 N 0.74658 0.95687 0.90119 0.0
N849 N 0.76454 0.86821 0.87066 0.0
H850 H 0.01655 0.67412 0.88528 0.0
H851 H 0.20811 0.84981 0.90492 0.0
H852 H 0.9959 0.79022 0.91527 0.0
H853 H 0.2213 0.74102 0.87066 0.0
H854 H 0.13236 0.82579 0.9109 0.0
H855 H 0.09385 0.69507 0.88195 0.0
C856 C 0.02827 0.70388 0.89126 0.0
C857 C 0.99944 0.73054 0.90049 0.0
C858 C 0.15198 0.80719 0.90211 0.0
C859 C 0.08826 0.75495 0.89667 0.0
C860 C 0.19528 0.82086 0.89871 0.0
C861 C 0.22125 0.79769 0.88718 0.0
C862 C 0.13461 0.7699 0.894 0.0
C863 C 0.20265 0.76031 0.87954 0.0
C864 C 0.07248 0.71593 0.88932 0.0
C865 C 0.01677 0.7687 0.90798 0.0
N866 N 0.16072 0.74773 0.88306 0.0
N867 N 0.0599 0.77983 0.90586 0.0
H868 H 0.27135 0.22234 0.867 0.0
H869 H 0.23665 0.99717 0.91727 0.0
H870 H 0.17605 0.20738 0.90657 0.0
H871 H 0.34101 0.01777 0.88156 0.0
H872 H 0.21347 0.07354 0.91342 0.0
H873 H 0.296 0.14705 0.87182 0.0
C874 C 0.25542 0.20324 0.87669 0.0
C875 C 0.2214 0.22144 0.88637 0.0
C876 C 0.24154 0.06144 0.90647 0.0
C877 C 0.24982 0.1347 0.89199 0.0
C878 C 0.25488 0.01778 0.90867 0.0
C879 C 0.29081 1.00086 0.89969 0.0
C880 C 0.2641 0.08851 0.89512 0.0
C881 C 0.31311 0.02927 0.88875 0.0
C882 C 0.26971 0.16017 0.87946 0.0
C883 C 0.20232 0.19487 0.89878 0.0
N884 N 0.29927 0.07155 0.88672 0.0
N885 N 0.21673 0.15289 0.9012 0.0
H886 H 0.01556 0.29885 0.86001 0.0
H887 H 0.80919 0.20208 0.90969 0.0
H888 H 0.01082 0.29741 0.91379 0.0
H889 H 0.80172 0.24973 0.85904 0.0
H890 H 0.88576 0.2282 0.91118 0.0
H891 H 0.93954 0.27277 0.8592 0.0
C892 C 0.99849 0.2931 0.87167 0.0
C893 C 0.0196 0.30034 0.887 0.0
C894 C 0.86724 0.23286 0.89977 0.0
C895 C 0.93247 0.26991 0.88614 0.0
C896 C 0.82369 0.2177 0.89886 0.0
C897 C 0.79894 0.22372 0.88422 0.0
C898 C 0.88633 0.2535 0.88585 0.0
C899 C 0.81938 0.24449 0.87061 0.0
C900 C 0.95502 0.27827 0.87119 0.0
C901 C 0.99571 0.29244 0.90171 0.0
N902 N 0.86182 0.25841 0.87174 0.0
N903 N 0.95347 0.27731 0.90092 0.0
H904 H 0.82231 0.20939 0.60542 0.0
H905 H 0.72582 0.99672 0.65146 0.0
H906 H 0.77301 0.20889 0.6559 0.0
H907 H 0.72715 1.00609 0.59777 0.0
H908 H 0.75198 0.07233 0.65322 0.0
H909 H 0.79678 0.1327 0.60226 0.0
C910 C 0.80646 0.19317 0.61584 0.0
C911 C 0.79976 0.21574 0.63094 0.0
C912 C 0.74649 0.05803 0.64103 0.0
C913 C 0.77078 0.12832 0.62743 0.0
C914 C 0.73158 0.01472 0.64 0.0
C915 C 0.7242 0.99495 0.62444 0.0
C916 C 0.7548 0.08201 0.62639 0.0
C917 C 0.73218 0.02014 0.61003 0.0
C918 C 0.79165 0.14958 0.61399 0.0
C919 C 0.77876 0.1931 0.64399 0.0
N920 N 0.74737 0.06234 0.61134 0.0
N921 N 0.76529 0.15084 0.64195 0.0
H922 H 0.01732 0.71999 0.65096 0.0
H923 H 0.80936 0.8161 0.60199 0.0
H924 H 0.01106 0.72086 0.5972 0.0
H925 H 0.80368 0.76893 0.65273 0.0
H926 H 0.88582 0.78984 0.60017 0.0
H927 H 0.94129 0.74587 0.65201 0.0
C928 C 0.99991 0.72557 0.63935 0.0
C929 C 0.0206 0.71823 0.62396 0.0
C930 C 0.86771 0.78531 0.61168 0.0
C931 C 0.93343 0.74844 0.62509 0.0
C932 C 0.82422 0.80054 0.61277 0.0
C933 C 0.8 0.79472 0.62754 0.0
C934 C 0.88728 0.76479 0.62554 0.0
C935 C 0.8209 0.77402 0.64107 0.0
C936 C 0.95643 0.74029 0.63997 0.0
C937 C 0.99628 0.72591 0.60933 0.0
N938 N 0.86326 0.76004 0.63976 0.0
N939 N 0.95402 0.74094 0.61024 0.0
H940 H 0.34531 1.00189 0.62987 0.0
H941 H 0.17484 0.8113 0.60439 0.0
H942 H 0.23746 0.02146 0.59553 0.0
H943 H 0.27264 0.79762 0.64319 0.0
H944 H 0.19968 0.88702 0.5998 0.0
H945 H 0.32208 0.92538 0.6335 0.0
C946 C 0.31688 0.99009 0.62302 0.0
C947 C 0.29321 0.01831 0.61243 0.0
C948 C 0.21565 0.86743 0.60933 0.0
C949 C 0.26632 0.93058 0.61657 0.0
C950 C 0.20145 0.82415 0.61197 0.0
C951 C 0.22153 0.79789 0.62423 0.0
C952 C 0.25037 0.88463 0.61895 0.0
C953 C 0.25596 0.8165 0.63363 0.0
C954 C 0.30354 0.94638 0.62514 0.0
C955 C 0.25666 1.00102 0.60387 0.0
N956 N 0.26928 0.85857 0.63077 0.0
N957 N 0.24432 0.95838 0.60615 0.0
H958 H 0.01838 0.34501 0.62704 0.0
H959 H 0.20914 0.16914 0.6068 0.0
H960 H 0.99635 0.22831 0.59751 0.0
H961 H 0.224 0.27945 0.64027 0.0
H962 H 0.13307 0.19287 0.60116 0.0
H963 H 0.09588 0.32437 0.62985 0.0
C964 C 0.02984 0.31517 0.62106 0.0
C965 C 1.00057 0.28827 0.61211 0.0
C966 C 0.15315 0.21188 0.6097 0.0
C967 C 0.08964 0.26421 0.61532 0.0
C968 C 0.19662 0.19838 0.61289 0.0
C969 C 0.22312 0.22204 0.62412 0.0
C970 C 0.13616 0.24947 0.61771 0.0
C971 C 0.20492 0.25976 0.63163 0.0
C972 C 0.07417 0.3033 0.62269 0.0
C973 C 0.01757 0.25002 0.60459 0.0
N974 N 0.16282 0.27214 0.62832 0.0
N975 N 0.06083 0.23906 0.60642 0.0
H976 H 0.67329 0.65997 0.67364 0.0
H977 H 0.74033 0.43216 0.63226 0.0
H978 H 0.65337 0.62574 0.62194 0.0
H979 H 0.79574 0.4819 0.67795 0.0
H980 H 0.68455 0.49005 0.63311 0.0
H981 H 0.69487 0.58382 0.67936 0.0
C982 C 0.67239 0.63623 0.66356 0.0
C983 C 0.66246 0.64942 0.64719 0.0
C984 C 0.70783 0.48735 0.6433 0.0
C985 C 0.68696 0.56234 0.65371 0.0
C986 C 0.73911 0.45369 0.64301 0.0
C987 C 0.77206 0.45183 0.65524 0.0
C988 C 0.71008 0.51969 0.65579 0.0
C989 C 0.77047 0.48206 0.66841 0.0
C990 C 0.68482 0.5928 0.66685 0.0
C991 C 0.66163 0.61718 0.63468 0.0
N992 N 0.74045 0.51527 0.66821 0.0
N993 N 0.67434 0.57527 0.63815 0.0
H994 H 0.35788 0.67912 0.67186 0.0
H995 H 0.57784 0.72848 0.62206 0.0
H996 H 0.38421 0.6395 0.62116 0.0
H997 H 0.53536 0.79979 0.66553 0.0
H998 H 0.52139 0.67279 0.62751 0.0
H999 H 0.43527 0.70029 0.67492 0.0
C1000 C 0.38016 0.67378 0.66151 0.0
C1001 C 0.36442 0.65863 0.64607 0.0
C1002 C 0.52543 0.69971 0.63623 0.0
C1003 C 0.45277 0.68266 0.64953 0.0
C1004 C 0.55806 0.73108 0.63326 0.0
C1005 C 0.56136 0.76817 0.64353 0.0
C1006 C 0.49547 0.70623 0.64935 0.0
C1007 C 0.53391 0.77121 0.65748 0.0
C1008 C 0.42429 0.68596 0.66327 0.0
C1009 C 0.3948 0.65204 0.63315 0.0
N1010 N 0.50149 0.74099 0.65985 0.0
N1011 N 0.4374 0.66475 0.63508 0.0
H1012 H 0.22099 0.54604 0.66874 0.0
H1013 H 0.38102 0.38147 0.62558 0.0
H1014 H 0.2856 0.5705 0.6219 0.0
H1015 H 0.32976 0.36247 0.67523 0.0
H1016 H 0.36307 0.45951 0.62749 0.0
H1017 H 0.27622 0.48972 0.67516 0.0
C1018 C 0.24819 0.54096 0.66021 0.0
C1019 C 0.24934 0.56294 0.6449 0.0
C1020 C 0.3565 0.43857 0.63814 0.0
C1021 C 0.31102 0.49744 0.65162 0.0
C1022 C 0.36668 0.39394 0.63701 0.0
C1023 C 0.3557 0.36535 0.65007 0.0
C1024 C 0.33419 0.45447 0.65227 0.0
C1025 C 0.33805 0.38333 0.66474 0.0
C1026 C 0.27947 0.50855 0.66376 0.0
C1027 C 0.28425 0.55456 0.63397 0.0
N1028 N 0.32677 0.42659 0.66528 0.0
N1029 N 0.31326 0.52182 0.63739 0.0
H1030 H 0.47321 0.22456 0.68172 0.0
H1031 H 0.62973 0.3668 0.62677 0.0
H1032 H 0.43797 0.27542 0.63344 0.0
H1033 H 0.65684 0.33636 0.67833 0.0
H1034 H 0.55239 0.34858 0.63135 0.0
H1035 H 0.53165 0.27986 0.68366 0.0
C1036 C 0.4763 0.24898 0.67194 0.0
C1037 C 0.45027 0.24611 0.65756 0.0
C1038 C 0.57499 0.34668 0.64178 0.0
C1039 C 0.51837 0.30773 0.65917 0.0
C1040 C 0.61924 0.35698 0.63914 0.0
C1041 C 0.64992 0.35202 0.65207 0.0
C1042 C 0.56151 0.33037 0.65739 0.0
C1043 C 0.63438 0.33997 0.66793 0.0
C1044 C 0.50997 0.28025 0.67293 0.0
C1045 C 0.45639 0.27747 0.64496 0.0
N1046 N 0.59144 0.32854 0.67004 0.0
N1047 N 0.49043 0.30636 0.64588 0.0
H1048 H 0.64673 0.39225 0.89163 0.0
H1049 H 0.79297 0.53961 0.83494 0.0
H1050 H 0.67291 0.36076 0.84012 0.0
H1051 H 0.73802 0.58469 0.88134 0.0
H1052 H 0.73742 0.4813 0.83393 0.0
H1053 H 0.66775 0.46847 0.88615 0.0
C1054 C 0.65614 0.40157 0.87909 0.0
C1055 C 0.659 0.36993 0.86641 0.0
C1056 C 0.73627 0.50494 0.84402 0.0
C1057 C 0.68382 0.45703 0.86007 0.0
C1058 C 0.76772 0.5385 0.84448 0.0
C1059 C 0.76947 0.56729 0.85809 0.0
C1060 C 0.70748 0.49938 0.8576 0.0
C1061 C 0.73695 0.56382 0.87042 0.0
C1062 C 0.66804 0.44518 0.87594 0.0
C1063 C 0.67077 0.38397 0.85033 0.0
N1064 N 0.70792 0.52977 0.87009 0.0
N1065 N 0.68374 0.42626 0.84771 0.0
H1066 H 0.47288 0.796 0.83013 0.0
H1067 H 0.62664 0.65231 0.88573 0.0
H1068 H 0.43497 0.74403 0.87794 0.0
H1069 H 0.6557 0.68289 0.83435 0.0
H1070 H 0.54962 0.67125 0.88077 0.0
H1071 H 0.53132 0.74069 0.82849 0.0
C1072 C 0.47541 0.77135 0.83986 0.0
C1073 C 0.44864 0.77394 0.85404 0.0
C1074 C 0.57258 0.67302 0.87046 0.0
C1075 C 0.51675 0.7123 0.85278 0.0
C1076 C 0.61665 0.66231 0.87332 0.0
C1077 C 0.64781 0.66706 0.86055 0.0
C1078 C 0.55974 0.68951 0.8548 0.0
C1079 C 0.63288 0.67941 0.84464 0.0
C1080 C 0.50909 0.74008 0.83904 0.0
C1081 C 0.45404 0.74226 0.86657 0.0
N1082 N 0.59011 0.69119 0.84231 0.0
N1083 N 0.48811 0.71338 0.86584 0.0
H1084 H 0.28479 0.4449 0.888 0.0
H1085 H 0.33199 0.65865 0.83493 0.0
H1086 H 0.21686 0.47864 0.84264 0.0
H1087 H 0.37284 0.63701 0.88584 0.0
H1088 H 0.3131 0.58057 0.83268 0.0
H1089 H 0.34063 0.5004 0.88176 0.0
C1090 C 0.28305 0.46247 0.87625 0.0
C1091 C 0.24687 0.45693 0.86564 0.0
C1092 C 0.32721 0.59274 0.8442 0.0
C1093 C 0.30866 0.52231 0.85896 0.0
C1094 C 0.33804 0.63728 0.8455 0.0
C1095 C 0.35279 0.65448 0.86077 0.0
C1096 C 0.33136 0.5654 0.85823 0.0
C1097 C 0.36048 0.62526 0.87398 0.0
C1098 C 0.31448 0.49463 0.87282 0.0
C1099 C 0.24478 0.48178 0.85097 0.0
N1100 N 0.34898 0.58227 0.8725 0.0
N1101 N 0.27484 0.51413 0.8482 0.0
H1102 H 0.57407 0.29062 0.89187 0.0
H1103 H 0.35784 0.33979 0.83976 0.0
H1104 H 0.53618 0.22085 0.84741 0.0
H1105 H 0.38069 0.37903 0.89075 0.0
H1106 H 0.4356 0.31926 0.83741 0.0
H1107 H 0.51788 0.34619 0.88595 0.0
C1108 C 0.55531 0.28833 0.8804 0.0
C1109 C 0.55985 0.25173 0.86996 0.0
C1110 C 0.42378 0.33339 0.84897 0.0
C1111 C 0.49416 0.31344 0.86358 0.0
C1112 C 0.37946 0.34521 0.85032 0.0
C1113 C 0.36267 0.36002 0.86563 0.0
C1114 C 0.45134 0.33672 0.86299 0.0
C1115 C 0.39214 0.36672 0.87885 0.0
C1116 C 0.52285 0.31963 0.87714 0.0
C1117 C 0.53374 0.24906 0.85561 0.0
N1118 N 0.43493 0.35437 0.87731 0.0
N1119 N 0.50134 0.27914 0.85297 0.0
H1120 H 0.27325 0.29959 0.35496 0.0
H1121 H 0.21292 0.51116 0.40951 0.0
H1122 H 0.31287 0.31198 0.40646 0.0
H1123 H 0.21449 0.51038 0.3557 0.0
H1124 H 0.24246 0.43581 0.40941 0.0
H1125 H 0.24527 0.37474 0.3557 0.0
C1126 C 0.27629 0.31821 0.36643 0.0
C1127 C 0.29556 0.29938 0.38067 0.0
C1128 C 0.23629 0.45224 0.39765 0.0
C1129 C 0.26287 0.38566 0.38165 0.0
C1130 C 0.21917 0.49508 0.39769 0.0
C1131 C 0.21126 0.51714 0.38258 0.0
C1132 C 0.24494 0.43118 0.38239 0.0
C1133 C 0.22019 0.49478 0.36764 0.0
C1134 C 0.26028 0.3612 0.36683 0.0
C1135 C 0.29856 0.32526 0.39516 0.0
N1136 N 0.23637 0.45311 0.36793 0.0
N1137 N 0.28205 0.367 0.39532 0.0
H1138 H 0.50049 0.21666 0.36077 0.0
H1139 H 0.70538 0.32029 0.40954 0.0
H1140 H 0.50291 0.22733 0.41442 0.0
H1141 H 0.71349 0.26797 0.35958 0.0
H1142 H 0.62892 0.29403 0.41124 0.0
H1143 H 0.57657 0.2424 0.35981 0.0
C1144 C 0.51707 0.22435 0.37238 0.0
C1145 C 0.49526 0.21985 0.3877 0.0
C1146 C 0.64756 0.28837 0.39993 0.0
C1147 C 0.58253 0.24988 0.38668 0.0
C1148 C 0.69106 0.30359 0.3989 0.0
C1149 C 0.71597 0.29635 0.38439 0.0
C1150 C 0.62867 0.26634 0.38627 0.0
C1151 C 0.69573 0.27422 0.37104 0.0
C1152 C 0.56059 0.23899 0.37182 0.0
C1153 C 0.51855 0.23017 0.40234 0.0
N1154 N 0.65335 0.26021 0.37229 0.0
N1155 N 0.56088 0.24504 0.40147 0.0
H1156 H 0.73827 0.71131 0.35566 0.0
H1157 H 0.79157 0.50766 0.41537 0.0
H1158 H 0.6965 0.71075 0.4071 0.0
H1159 H 0.78644 0.49969 0.36168 0.0
H1160 H 0.76436 0.58402 0.41366 0.0
H1161 H 0.76333 0.63577 0.35867 0.0
C1162 C 0.73422 0.69524 0.36763 0.0
C1163 C 0.71515 0.7176 0.38115 0.0
C1164 C 0.7692 0.56538 0.4023 0.0
C1165 C 0.74449 0.6304 0.38473 0.0
C1166 C 0.78499 0.52197 0.40325 0.0
C1167 C 0.79128 0.49716 0.38864 0.0
C1168 C 0.76039 0.58423 0.38662 0.0
C1169 C 0.78198 0.51733 0.37329 0.0
C1170 C 0.74853 0.65192 0.36933 0.0
C1171 C 0.71075 0.69473 0.39632 0.0
N1172 N 0.76728 0.55952 0.3727 0.0
N1173 N 0.72565 0.65243 0.39776 0.0
H1174 H 0.49874 0.84527 0.38417 0.0
H1175 H 0.30674 0.67137 0.40504 0.0
H1176 H 0.51848 0.73174 0.41566 0.0
H1177 H 0.29558 0.77471 0.3683 0.0
H1178 H 0.38223 0.69599 0.41103 0.0
H1179 H 0.42182 0.82341 0.38037 0.0
C1180 C 0.48688 0.81591 0.39039 0.0
C1181 C 0.51534 0.79021 0.40018 0.0
C1182 C 0.36314 0.71324 0.40168 0.0
C1183 C 0.42702 0.76478 0.39582 0.0
C1184 C 0.32001 0.6992 0.39825 0.0
C1185 C 0.29463 0.72073 0.38607 0.0
C1186 C 0.38096 0.7493 0.39295 0.0
C1187 C 0.31376 0.75674 0.37772 0.0
C1188 C 0.44291 0.80333 0.38817 0.0
C1189 C 0.49789 0.75251 0.40794 0.0
N1190 N 0.35554 0.76978 0.38131 0.0
N1191 N 0.45499 0.74088 0.40556 0.0
H1192 H 0.28896 0.71237 0.15569 0.0
H1193 H 0.21835 0.50564 0.10049 0.0
H1194 H 0.31566 0.70807 0.10287 0.0
H1195 H 0.24323 0.49872 0.15342 0.0
H1196 H 0.2455 0.58207 0.10053 0.0
H1197 H 0.26393 0.63626 0.15454 0.0
C1198 C 0.28969 0.69537 0.14382 0.0
C1199 C 0.30457 0.71675 0.12935 0.0
C1200 C 0.24503 0.56364 0.11209 0.0
C1201 C 0.27522 0.6292 0.12793 0.0
C1202 C 0.22932 0.52018 0.11211 0.0
C1203 C 0.22855 0.49567 0.12698 0.0
C1204 C 0.25928 0.58288 0.1271 0.0
C1205 C 0.24333 0.51616 0.14164 0.0
C1206 C 0.27543 0.65179 0.14319 0.0
C1207 C 0.30477 0.6928 0.11434 0.0
N1208 N 0.25779 0.55848 0.14134 0.0
N1209 N 0.28994 0.65036 0.11398 0.0
H1210 H 0.50659 0.17188 0.12863 0.0
H1211 H 0.31238 0.34243 0.10724 0.0
H1212 H 0.52487 0.28627 0.09747 0.0
H1213 H 0.30172 0.23974 0.14424 0.0
H1214 H 0.38821 0.31895 0.10161 0.0
H1215 H 0.42937 0.19245 0.1324 0.0
C1216 C 0.49438 0.20116 0.12248 0.0
C1217 C 0.52253 0.22744 0.11277 0.0
C1218 C 0.36922 0.30155 0.11095 0.0
C1219 C 0.43378 0.25138 0.1171 0.0
C1220 C 0.32585 0.31492 0.11416 0.0
C1221 C 0.30047 0.29323 0.1263 0.0
C1222 C 0.3874 0.266 0.11984 0.0
C1223 C 0.31991 0.25773 0.13484 0.0
C1224 C 0.45022 0.213 0.12469 0.0
C1225 C 0.50457 0.26505 0.10512 0.0
N1226 N 0.36202 0.24529 0.13145 0.0
N1227 N 0.46148 0.27591 0.10748 0.0
H1228 H 0.7977 0.51475 0.15278 0.0
H1229 H 0.70256 0.30228 0.10619 0.0
H1230 H 0.79748 0.50526 0.0991 0.0
H1231 H 0.7489 0.30243 0.15709 0.0
H1232 H 0.72868 0.37871 0.10324 0.0
H1233 H 0.77162 0.43906 0.15449 0.0
C1234 C 0.7922 0.49672 0.14131 0.0
C1235 C 0.79988 0.51651 0.12576 0.0
C1236 C 0.73306 0.36184 0.11502 0.0
C1237 C 0.76936 0.42934 0.12765 0.0
C1238 C 0.71793 0.31835 0.11675 0.0
C1239 C 0.72352 0.29574 0.13191 0.0
C1240 C 0.75322 0.38303 0.12863 0.0
C1241 C 0.74395 0.31826 0.14514 0.0
C1242 C 0.77735 0.45336 0.14231 0.0
C1243 C 0.79221 0.49125 0.11135 0.0
N1244 N 0.75777 0.36048 0.1432 0.0
N1245 N 0.77707 0.44903 0.11262 0.0
H1246 H 0.50496 0.78952 0.1506 0.0
H1247 H 0.71446 0.6979 0.10129 0.0
H1248 H 0.51122 0.79327 0.09687 0.0
H1249 H 0.71779 0.74114 0.15255 0.0
H1250 H 0.63785 0.72423 0.09927 0.0
H1251 H 0.58084 0.76357 0.15141 0.0
C1252 C 0.52232 0.78492 0.13893 0.0
C1253 C 0.5016 0.79364 0.12364 0.0
C1254 C 0.65553 0.72789 0.11092 0.0
C1255 C 0.58893 0.76332 0.12448 0.0
C1256 C 0.6991 0.71264 0.11212 0.0
C1257 C 0.72272 0.71729 0.12711 0.0
C1258 C 0.63528 0.74721 0.12489 0.0
C1259 C 0.70114 0.73694 0.14071 0.0
C1260 C 0.56579 0.77015 0.13941 0.0
C1261 C 0.52599 0.78715 0.10894 0.0
N1262 N 0.6588 0.75089 0.13929 0.0
N1263 N 0.56833 0.77206 0.1097 0.0
H1264 H 0.26451 0.2483 0.30829 0.0
H1265 H 0.25793 0.23969 0.20846 0.0
H1266 H 0.33378 0.15098 0.27909 0.0
H1267 H 0.19475 0.34071 0.23783 0.0
H1268 H 0.28225 0.20414 0.23415 0.0
H1269 H 0.23516 0.27978 0.28266 0.0
C1270 C 0.27312 0.233 0.29656 0.0
C1271 C 0.30138 0.19637 0.29597 0.0
C1272 C 0.26284 0.23396 0.23497 0.0
C1273 C 0.26836 0.23322 0.26637 0.0
C1274 C 0.24852 0.25416 0.22025 0.0
C1275 C 0.22375 0.29323 0.22089 0.0
C1276 C 0.25245 0.25286 0.25047 0.0
C1277 C 0.21385 0.31079 0.23667 0.0
C1278 C 0.25658 0.25137 0.28186 0.0
C1279 C 0.31221 0.17918 0.28021 0.0
N1280 N 0.22818 0.29053 0.25078 0.0
N1281 N 0.29569 0.19769 0.26608 0.0
H1282 H 0.8578 0.33705 0.28033 0.0
H1283 H 0.68148 0.17212 0.24013 0.0
H1284 H 0.76912 0.25599 0.30917 0.0
H1285 H 0.77193 0.25038 0.21097 0.0
H1286 H 0.71505 0.20085 0.26552 0.0
H1287 H 0.82844 0.3042 0.25483 0.0
C1288 C 0.83233 0.31221 0.28135 0.0
C1289 C 0.81638 0.2991 0.29703 0.0
C1290 C 0.72779 0.21152 0.25357 0.0
C1291 C 0.78243 0.26134 0.26776 0.0
C1292 C 0.70855 0.19518 0.23902 0.0
C1293 C 0.72395 0.20847 0.22329 0.0
C1294 C 0.76259 0.24182 0.25248 0.0
C1295 C 0.75931 0.23838 0.22274 0.0
C1296 C 0.81567 0.29337 0.26675 0.0
C1297 C 0.78334 0.26665 0.29749 0.0
N1298 N 0.77725 0.25414 0.23711 0.0
N1299 N 0.76744 0.24907 0.28309 0.0
H1300 H 0.76893 0.76206 0.30387 0.0
H1301 H 0.76915 0.76099 0.20401 0.0
H1302 H 0.68235 0.842 0.27366 0.0
H1303 H 0.84952 0.67432 0.23401 0.0
H1304 H 0.74124 0.79491 0.2294 0.0
H1305 H 0.80292 0.73372 0.2785 0.0
C1306 C 0.75744 0.77428 0.29196 0.0
C1307 C 0.72282 0.8049 0.29098 0.0
C1308 C 0.76521 0.76866 0.23043 0.0
C1309 C 0.76124 0.77168 0.26178 0.0
C1310 C 0.78157 0.74944 0.21588 0.0
C1311 C 0.81227 0.71489 0.21679 0.0
C1312 C 0.77944 0.75327 0.24606 0.0
C1313 C 0.82585 0.70073 0.23267 0.0
C1314 C 0.77668 0.75769 0.27743 0.0
C1315 C 0.70877 0.81836 0.27507 0.0
N1316 N 0.80938 0.71993 0.24665 0.0
N1317 N 0.72797 0.80168 0.26114 0.0
H1318 H 0.18474 0.67666 0.27411 0.0
H1319 H 0.34532 0.85661 0.23399 0.0
H1320 H 0.25945 0.76996 0.30332 0.0
H1321 H 0.26491 0.7673 0.20515 0.0
H1322 H 0.31301 0.82678 0.2595 0.0
H1323 H 0.21243 0.71107 0.24874 0.0
C1324 C 0.20682 0.70452 0.27522 0.0
C1325 C 0.21947 0.72048 0.29095 0.0
C1326 C 0.30219 0.81399 0.24757 0.0
C1327 C 0.25159 0.76008 0.26181 0.0
C1328 C 0.32071 0.83092 0.23298 0.0
C1329 C 0.30763 0.81488 0.21731 0.0
C1330 C 0.27057 0.78037 0.24655 0.0
C1331 C 0.27551 0.78155 0.21684 0.0
C1332 C 0.22255 0.72425 0.26069 0.0
C1333 C 0.24806 0.75687 0.29154 0.0
N1334 N 0.25828 0.76535 0.23123 0.0
N1335 N 0.2633 0.77527 0.27718 0.0
H1336 H 0.74851 0.75481 0.70328 0.0
H1337 H 0.74247 0.75551 0.80314 0.0
H1338 H 0.66136 0.83728 0.73219 0.0
H1339 H 0.83472 0.67945 0.77398 0.0
H1340 H 0.70858 0.78158 0.77736 0.0
H1341 H 0.77653 0.72291 0.72904 0.0
C1342 C 0.73464 0.76583 0.71498 0.0
C1343 C 0.70199 0.79862 0.71546 0.0
C1344 C 0.73606 0.75895 0.77662 0.0
C1345 C 0.73495 0.76259 0.74519 0.0
C1346 C 0.75526 0.74365 0.79138 0.0
C1347 C 0.79145 0.71481 0.79082 0.0
C1348 C 0.7531 0.74545 0.76115 0.0
C1349 C 0.80706 0.70175 0.77508 0.0
C1350 C 0.75107 0.74779 0.72975 0.0
C1351 C 0.68656 0.81222 0.73116 0.0
N1352 N 0.78787 0.71715 0.76092 0.0
N1353 N 0.70314 0.79419 0.74536 0.0
H1354 H 0.25803 0.74427 0.80306 0.0
H1355 H 0.2574 0.75473 0.70321 0.0
H1356 H 0.32303 0.84599 0.7746 0.0
H1357 H 0.17528 0.66639 0.73175 0.0
H1358 H 0.28819 0.78318 0.72918 0.0
H1359 H 0.23404 0.71011 0.77703 0.0
C1360 C 0.2679 0.75913 0.79138 0.0
C1361 C 0.29295 0.79804 0.79108 0.0
C1362 C 0.26362 0.75737 0.72975 0.0
C1363 C 0.26483 0.75928 0.76116 0.0
C1364 C 0.24625 0.74076 0.71489 0.0
C1365 C 0.21383 0.70773 0.71523 0.0
C1366 C 0.24862 0.7409 0.74511 0.0
C1367 C 0.20005 0.69193 0.73085 0.0
C1368 C 0.2538 0.73976 0.77649 0.0
C1369 C 0.30365 0.81616 0.77547 0.0
N1370 N 0.21749 0.70861 0.74514 0.0
N1371 N 0.28957 0.79667 0.76117 0.0
H1372 H 0.25661 0.26486 0.80777 0.0
H1373 H 0.25888 0.27526 0.70795 0.0
H1374 H 0.17497 0.35313 0.77898 0.0
H1375 H 0.32393 0.17396 0.73663 0.0
H1376 H 0.23434 0.30937 0.7339 0.0
H1377 H 0.28789 0.23648 0.78191 0.0
C1378 C 0.24567 0.27884 0.79606 0.0
C1379 C 0.21326 0.31184 0.79562 0.0
C1380 C 0.25423 0.27983 0.73451 0.0
C1381 C 0.24859 0.27873 0.76586 0.0
C1382 C 0.26865 0.26049 0.71967 0.0
C1383 C 0.29387 0.22173 0.72006 0.0
C1384 C 0.26512 0.26039 0.74987 0.0
C1385 C 0.30442 0.20369 0.7357 0.0
C1386 C 0.26332 0.26226 0.78126 0.0
C1387 C 0.19973 0.32762 0.77996 0.0
N1388 N 0.29003 0.22313 0.74995 0.0
N1389 N 0.21744 0.31097 0.76573 0.0
H1390 H 0.74752 0.26243 0.80962 0.0
H1391 H 0.74174 0.26395 0.70978 0.0
H1392 H 0.65702 0.18426 0.7804 0.0
H1393 H 0.83601 0.33688 0.73923 0.0
H1394 H 0.70695 0.23847 0.73544 0.0
H1395 H 0.77682 0.29378 0.78398 0.0
C1396 C 0.7332 0.25226 0.79788 0.0
C1397 C 0.69921 0.22085 0.79727 0.0
C1398 C 0.73507 0.26029 0.73627 0.0
C1399 C 0.73362 0.25622 0.76769 0.0
C1400 C 0.75481 0.27527 0.72158 0.0
C1401 C 0.79182 0.30306 0.72226 0.0
C1402 C 0.75241 0.27304 0.75179 0.0
C1403 C 0.80772 0.31539 0.73804 0.0
C1404 C 0.75034 0.26998 0.78318 0.0
C1405 C 0.68323 0.20825 0.78152 0.0
N1406 N 0.788 0.30031 0.75214 0.0
N1407 N 0.70054 0.22593 0.76739 0.0
H1408 H 0.12399 0.45506 0.13262 0.0
H1409 H 1.00431 0.63397 0.1061 0.0
H1410 H 0.01421 0.37599 0.11659 0.0
H1411 H 0.90356 0.55845 0.13075 0.0
H1412 H 0.04624 0.56618 0.1014 0.0
H1413 H 0.08517 0.52098 0.12302 0.0
C1414 C 0.09306 0.4513 0.12611 0.0
C1415 C 0.07315 0.40992 0.1248 0.0
C1416 C 0.01419 0.56433 0.10729 0.0
C1417 C 0.02686 0.48523 0.115 0.0
C1418 C 0.98995 0.60279 0.10978 0.0
C1419 C 0.94998 0.60166 0.11859 0.0
C1420 C 0.9982 0.52445 0.11364 0.0
C1421 C 0.93326 0.5606 0.12339 0.0
C1422 C 0.07037 0.48901 0.12093 0.0
C1423 C 0.03094 0.40736 0.11762 0.0
N1424 N 0.95776 0.52355 0.12103 0.0
N1425 N 1.00869 0.44456 0.1134 0.0
H1426 H 0.45755 0.89524 0.12937 0.0
H1427 H 0.56653 0.11577 0.13442 0.0
H1428 H 0.3878 1.00412 0.10744 0.0
H1429 H 0.64491 0.00934 0.11511 0.0
H1430 H 0.49979 0.0773 0.1251 0.0
H1431 H 0.52717 0.93397 0.12454 0.0
C1432 C 0.45707 0.92588 0.12255 0.0
C1433 C 0.41697 0.94565 0.11826 0.0
C1434 C 0.53174 0.06319 0.12235 0.0
C1435 C 0.49586 0.99209 0.11418 0.0
C1436 C 0.56983 0.0857 0.12733 0.0
C1437 C 0.61132 0.06661 0.12495 0.0
C1438 C 0.53531 0.02052 0.11569 0.0
C1439 C 0.61347 0.02544 0.11698 0.0
C1440 C 0.49672 0.9486 0.12018 0.0
C1441 C 0.41813 0.98749 0.11075 0.0
N1442 N 0.57602 1.00324 0.11301 0.0
N1443 N 0.45675 0.00987 0.10938 0.0
H1444 H 0.09593 0.59903 0.40306 0.0
H1445 H 0.89368 0.4447 0.37969 0.0
H1446 H 0.03479 0.58672 0.35471 0.0
H1447 H 0.99655 0.39035 0.41045 0.0
H1448 H 0.93273 0.51481 0.37927 0.0
H1449 H 0.05209 0.53497 0.4127 0.0
C1450 C 0.07425 0.58242 0.39441 0.0
C1451 C 0.0691 0.59806 0.37805 0.0
C1452 C 0.94601 0.48798 0.38663 0.0
C1453 C 0.01746 0.52766 0.38917 0.0
C1454 C 0.92307 0.44827 0.38721 0.0
C1455 C 0.94154 0.41194 0.3953 0.0
C1456 C 0.98791 0.49116 0.39402 0.0
C1457 C 0.98126 0.41786 0.4041 0.0
C1458 C 0.04877 0.54652 0.39998 0.0
C1459 C 0.03961 0.57602 0.36747 0.0
N1460 N 1.00374 0.45656 0.40298 0.0
N1461 N 0.01464 0.54253 0.37325 0.0
H1462 H 0.5982 0.92179 0.4051 0.0
H1463 H 0.44143 0.11897 0.37828 0.0
H1464 H 0.58481 0.97505 0.35551 0.0
H1465 H 0.38939 0.02197 0.41212 0.0
H1466 H 0.51086 0.07875 0.37747 0.0
H1467 H 0.53293 0.96543 0.41373 0.0
C1468 C 0.5809 0.94154 0.39597 0.0
C1469 C 0.5966 0.94466 0.37954 0.0
C1470 C 0.48473 0.067 0.38553 0.0
C1471 C 0.52481 0.99613 0.38947 0.0
C1472 C 0.44547 0.09071 0.38634 0.0
C1473 C 0.40991 0.0743 0.39551 0.0
C1474 C 0.48835 0.0264 0.39383 0.0
C1475 C 0.41633 0.03579 0.40498 0.0
C1476 C 0.54432 0.96692 0.40095 0.0
C1477 C 0.57382 0.97173 0.36831 0.0
N1478 N 0.45461 0.01258 0.40371 0.0
N1479 N 0.53968 0.99676 0.37351 0.0
H1480 H 0.06945 0.40127 0.87724 0.0
H1481 H 0.91643 0.59931 0.90472 0.0
H1482 H 0.12928 0.50184 0.90755 0.0
H1483 H 0.92931 0.54794 0.85484 0.0
H1484 H 0.98223 0.55584 0.913 0.0
H1485 H 1.00012 0.44184 0.87799 0.0
C1486 C 0.06726 0.43042 0.88494 0.0
C1487 C 0.10482 0.44778 0.89259 0.0
C1488 C 0.97058 0.55476 0.90024 0.0
C1489 C 0.02647 0.49577 0.89269 0.0
C1490 C 0.93372 0.58003 0.89547 0.0
C1491 C 0.91776 0.57732 0.87906 0.0
C1492 C 0.98997 0.52607 0.88858 0.0
C1493 C 0.94051 0.55087 0.86763 0.0
C1494 C 0.02801 0.45421 0.88502 0.0
C1495 C 0.10074 0.48735 0.90159 0.0
N1496 N 0.97487 0.52587 0.87265 0.0
N1497 N 0.06237 0.51061 0.90117 0.0
H1498 H 0.62186 0.07578 0.87898 0.0
H1499 H 0.41775 0.92182 0.90153 0.0
H1500 H 0.51812 0.12781 0.9098 0.0
H1501 H 0.48605 0.92771 0.85442 0.0
H1502 H 0.46132 0.98604 0.91107 0.0
H1503 H 0.58393 1.00512 0.87828 0.0
C1504 C 0.5925 0.07158 0.88644 0.0
C1505 C 0.57358 0.1074 0.89469 0.0
C1506 C 0.46635 0.97298 0.89865 0.0
C1507 C 0.52823 0.02754 0.89301 0.0
C1508 C 0.44101 0.93693 0.89312 0.0
C1509 C 0.44801 0.91948 0.87712 0.0
C1510 C 0.4994 0.99031 0.88822 0.0
C1511 C 0.47965 0.9397 0.8669 0.0
C1512 C 0.57013 0.03156 0.88567 0.0
C1513 C 0.53381 0.10071 0.90336 0.0
N1514 N 0.5043 0.97347 0.87266 0.0
N1515 N 0.51188 0.06171 0.90206 0.0
H1516 H 0.07176 0.61789 0.63393 0.0
H1517 H 0.91803 0.41801 0.60867 0.0
H1518 H 0.12996 0.51609 0.60379 0.0
H1519 H 0.93201 0.47265 0.65801 0.0
H1520 H 0.98335 0.46125 0.59977 0.0
H1521 H 1.00243 0.57729 0.63392 0.0
C1522 C 0.06918 0.58841 0.62643 0.0
C1523 C 0.10633 0.57077 0.61861 0.0
C1524 C 0.97203 0.46312 0.61255 0.0
C1525 C 0.02798 0.52273 0.61937 0.0
C1526 C 0.93545 0.43797 0.61768 0.0
C1527 C 0.91992 0.44161 0.63412 0.0
C1528 C 0.99163 0.49264 0.62388 0.0
C1529 C 0.94283 0.46897 0.64521 0.0
C1530 C 0.02994 0.56461 0.62678 0.0
C1531 C 0.10176 0.53081 0.60989 0.0
N1532 N 0.97693 0.49381 0.63985 0.0
N1533 N 0.06342 0.50756 0.61073 0.0
H1534 H 0.62333 0.94409 0.63366 0.0
H1535 H 0.41969 0.0976 0.61031 0.0
H1536 H 0.51926 0.89079 0.60324 0.0
H1537 H 0.48714 0.09222 0.65765 0.0
H1538 H 0.46318 0.03313 0.60104 0.0
H1539 H 0.58548 0.01481 0.63395 0.0
C1540 C 0.59392 0.948 0.62618 0.0
C1541 C 0.57488 0.91185 0.61817 0.0
C1542 C 0.46805 0.04636 0.61344 0.0
C1543 C 0.52966 0.99178 0.61938 0.0
C1544 C 0.44274 0.08256 0.61883 0.0
C1545 C 0.44953 0.10023 0.63481 0.0
C1546 C 0.50086 0.02912 0.62401 0.0
C1547 C 0.48092 0.08007 0.64516 0.0
C1548 C 0.57161 0.98806 0.62671 0.0
C1549 C 0.53504 0.91818 0.60949 0.0
N1550 N 0.50556 0.04616 0.63955 0.0
N1551 N 0.51317 0.95723 0.61056 0.0
loop_
_geom_bond_atom_site_label_1
_geom_bond_atom_site_label_2
_geom_bond_distance
_geom_bond_site_symmetry_2
_ccdc_geom_bond_type
Zn0 N4 2.020 . S
Zn0 O8 2.019 . S
Zn0 N10 2.119 . S
Zn0 O18 1.975 . S
C1 N2 1.334 . S
C1 N5 1.336 . S
N2 C1 1.334 . S
N2 C3 1.334 . S
C3 N2 1.334 . S
C3 N4 1.336 . S
N4 Zn0 2.020 . S
N4 C3 1.336 . S
N4 N5 1.354 . S
N5 C1 1.336 . S
N5 N4 1.354 . S
N5 Zn9 2.020 . S
C6 O7 1.244 . S
C6 O30 1.257 . S
O7 C6 1.244 . S
O8 Zn0 2.019 . S
O8 C28 1.257 . S
Zn9 N5 2.020 . S
Zn9 O16 1.975 . S
Zn9 N25 2.119 . S
Zn9 O30 2.019 . S
N10 Zn0 2.119 . S
N10 C12 1.334 . S
N10 C13 1.328 . S
C11 C12 1.391 . S
C11 N14 1.329 . S
C11 H32 0.930 . S
C12 N10 1.334 . S
C12 C11 1.391 . S
C12 H19 0.930 . S
C13 N10 1.328 . S
C13 C15 1.392 . S
C13 H20 0.930 . S
N14 C11 1.329 . S
N14 C15 1.331 . S
C15 C13 1.392 . S
C15 N14 1.331 . S
O16 Zn9 1.975 . S
O16 C17 1.252 . S
C17 O16 1.252 . S
C17 O18 1.252 . S
O18 Zn0 1.975 . S
O18 C17 1.252 . S
H19 C12 0.930 . S
H20 C13 0.930 . S
C21 C22 1.392 . S
C21 N25 1.328 . S
C21 H27 0.930 . S
C22 C21 1.392 . S
C22 N26 1.331 . S
C23 C24 1.391 . S
C23 N26 1.329 . S
C23 H33 0.930 . S
C24 C23 1.391 . S
C24 N25 1.334 . S
C24 H31 0.930 . S
N25 Zn9 2.119 . S
N25 C21 1.328 . S
N25 C24 1.334 . S
N26 C22 1.331 . S
N26 C23 1.329 . S
H27 C21 0.930 . S
C28 O8 1.257 . S
C28 O29 1.244 . S
O29 C28 1.244 . S
O30 C6 1.257 . S
O30 Zn9 2.019 . S
H31 C24 0.930 . S
H32 C11 0.930 . S
H33 C23 0.930 . S
Zn34 N38 2.020 . S
Zn34 O42 2.019 . S
Zn34 N44 2.119 . S
Zn34 O52 1.975 . S
C35 N36 1.334 . S
C35 N39 1.336 . S
N36 C35 1.334 . S
N36 C37 1.334 . S
C37 N36 1.334 . S
C37 N38 1.336 . S
N38 Zn34 2.020 . S
N38 C37 1.336 . S
N38 N39 1.354 . S
N39 C35 1.336 . S
N39 N38 1.354 . S
N39 Zn43 2.020 . S
C40 O41 1.244 . S
C40 O64 1.257 . S
O41 C40 1.244 . S
O42 Zn34 2.019 . S
O42 C62 1.257 . S
Zn43 N39 2.020 . S
Zn43 O50 1.975 . S
Zn43 N59 2.119 . S
Zn43 O64 2.019 . S
N44 Zn34 2.119 . S
N44 C46 1.334 . S
N44 C47 1.328 . S
C45 C46 1.391 . S
C45 N48 1.329 . S
C45 H66 0.930 . S
C46 N44 1.334 . S
C46 C45 1.391 . S
C46 H53 0.930 . S
C47 N44 1.328 . S
C47 C49 1.392 . S
C47 H54 0.930 . S
N48 C45 1.329 . S
N48 C49 1.331 . S
C49 C47 1.392 . S
C49 N48 1.331 . S
O50 Zn43 1.975 . S
O50 C51 1.252 . S
C51 O50 1.252 . S
C51 O52 1.252 . S
O52 Zn34 1.975 . S
O52 C51 1.252 . S
H53 C46 0.930 . S
H54 C47 0.930 . S
C55 C56 1.392 . S
C55 N59 1.328 . S
C55 H61 0.930 . S
C56 C55 1.392 . S
C56 N60 1.331 . S
C57 C58 1.391 . S
C57 N60 1.329 . S
C57 H67 0.930 . S
C58 C57 1.391 . S
C58 N59 1.334 . S
C58 H65 0.930 . S
N59 Zn43 2.119 . S
N59 C55 1.328 . S
N59 C58 1.334 . S
N60 C56 1.331 . S
N60 C57 1.329 . S
H61 C55 0.930 . S
C62 O42 1.257 . S
C62 O63 1.244 . S
O63 C62 1.244 . S
O64 C40 1.257 . S
O64 Zn43 2.019 . S
H65 C58 0.930 . S
H66 C45 0.930 . S
H67 C57 0.930 . S
Zn68 N72 2.020 . S
Zn68 O76 2.019 . S
Zn68 N78 2.119 . S
Zn68 O86 1.975 . S
C69 N70 1.334 . S
C69 N73 1.336 . S
N70 C69 1.334 . S
N70 C71 1.334 . S
C71 N70 1.334 . S
C71 N72 1.336 . S
N72 Zn68 2.020 . S
N72 C71 1.336 . S
N72 N73 1.354 . S
N73 C69 1.336 . S
N73 N72 1.354 . S
N73 Zn77 2.020 . S
C74 O75 1.244 . S
C74 O98 1.257 . S
O75 C74 1.244 . S
O76 Zn68 2.019 . S
O76 C96 1.257 . S
Zn77 N73 2.020 . S
Zn77 O84 1.975 . S
Zn77 N93 2.119 . S
Zn77 O98 2.019 . S
N78 Zn68 2.119 . S
N78 C80 1.334 . S
N78 C81 1.328 . S
C79 C80 1.391 . S
C79 N82 1.329 . S
C79 H100 0.930 . S
C80 N78 1.334 . S
C80 C79 1.391 . S
C80 H87 0.930 . S
C81 N78 1.328 . S
C81 C83 1.392 . S
C81 H88 0.930 . S
N82 C79 1.329 . S
N82 C83 1.331 . S
C83 C81 1.392 . S
C83 N82 1.331 . S
O84 Zn77 1.975 . S
O84 C85 1.252 . S
C85 O84 1.252 . S
C85 O86 1.252 . S
O86 Zn68 1.975 . S
O86 C85 1.252 . S
H87 C80 0.930 . S
H88 C81 0.930 . S
C89 C90 1.392 . S
C89 N93 1.328 . S
C89 H95 0.930 . S
C90 C89 1.392 . S
C90 N94 1.331 . S
C91 C92 1.391 . S
C91 N94 1.329 . S
C91 H101 0.930 . S
C92 C91 1.391 . S
C92 N93 1.334 . S
C92 H99 0.930 . S
N93 Zn77 2.119 . S
N93 C89 1.328 . S
N93 C92 1.334 . S
N94 C90 1.331 . S
N94 C91 1.329 . S
H95 C89 0.930 . S
C96 O76 1.257 . S
C96 O97 1.244 . S
O97 C96 1.244 . S
O98 C74 1.257 . S
O98 Zn77 2.019 . S
H99 C92 0.930 . S
H100 C79 0.930 . S
H101 C91 0.930 . S
Zn102 N106 2.020 . S
Zn102 O110 2.019 . S
Zn102 N112 2.119 . S
Zn102 O120 1.975 . S
C103 N104 1.334 . S
C103 N107 1.336 . S
N104 C103 1.334 . S
N104 C105 1.334 . S
C105 N104 1.334 . S
C105 N106 1.336 . S
N106 Zn102 2.020 . S
N106 C105 1.336 . S
N106 N107 1.354 . S
N107 C103 1.336 . S
N107 N106 1.354 . S
N107 Zn111 2.020 . S
C108 O109 1.244 . S
C108 O132 1.257 . S
O109 C108 1.244 . S
O110 Zn102 2.019 . S
O110 C130 1.257 . S
Zn111 N107 2.020 . S
Zn111 O118 1.975 . S
Zn111 N127 2.119 . S
Zn111 O132 2.019 . S
N112 Zn102 2.119 . S
N112 C114 1.334 . S
N112 C115 1.328 . S
C113 C114 1.391 . S
C113 N116 1.329 . S
C113 H134 0.930 . S
C114 N112 1.334 . S
C114 C113 1.391 . S
C114 H121 0.930 . S
C115 N112 1.328 . S
C115 C117 1.392 . S
C115 H122 0.930 . S
N116 C113 1.329 . S
N116 C117 1.331 . S
C117 C115 1.392 . S
C117 N116 1.331 . S
O118 Zn111 1.975 . S
O118 C119 1.252 . S
C119 O118 1.252 . S
C119 O120 1.252 . S
O120 Zn102 1.975 . S
O120 C119 1.252 . S
H121 C114 0.930 . S
H122 C115 0.930 . S
C123 C124 1.392 . S
C123 N127 1.328 . S
C123 H129 0.930 . S
C124 C123 1.392 . S
C124 N128 1.331 . S
C125 C126 1.391 . S
C125 N128 1.329 . S
C125 H135 0.930 . S
C126 C125 1.391 . S
C126 N127 1.334 . S
C126 H133 0.930 . S
N127 Zn111 2.119 . S
N127 C123 1.328 . S
N127 C126 1.334 . S
N128 C124 1.331 . S
N128 C125 1.329 . S
H129 C123 0.930 . S
C130 O110 1.257 . S
C130 O131 1.244 . S
O131 C130 1.244 . S
O132 C108 1.257 . S
O132 Zn111 2.019 . S
H133 C126 0.930 . S
H134 C113 0.930 . S
H135 C125 0.930 . S
Zn136 N140 2.020 . S
Zn136 O144 2.019 . S
Zn136 N146 2.119 . S
Zn136 O154 1.975 . S
C137 N138 1.334 . S
C137 N141 1.336 . S
N138 C137 1.334 . S
N138 C139 1.334 . S
C139 N138 1.334 . S
C139 N140 1.336 . S
N140 Zn136 2.020 . S
N140 C139 1.336 . S
N140 N141 1.354 . S
N141 C137 1.336 . S
N141 N140 1.354 . S
N141 Zn145 2.020 . S
C142 O143 1.244 . S
C142 O166 1.257 . S
O143 C142 1.244 . S
O144 Zn136 2.019 . S
O144 C164 1.257 . S
Zn145 N141 2.020 . S
Zn145 O152 1.975 . S
Zn145 N161 2.119 . S
Zn145 O166 2.019 . S
N146 Zn136 2.119 . S
N146 C148 1.334 . S
N146 C149 1.328 . S
C147 C148 1.391 . S
C147 N150 1.329 . S
C147 H168 0.930 . S
C148 N146 1.334 . S
C148 C147 1.391 . S
C148 H155 0.930 . S
C149 N146 1.328 . S
C149 C151 1.392 . S
C149 H156 0.930 . S
N150 C147 1.329 . S
N150 C151 1.331 . S
C151 C149 1.392 . S
C151 N150 1.331 . S
O152 Zn145 1.975 . S
O152 C153 1.252 . S
C153 O152 1.252 . S
C153 O154 1.252 . S
O154 Zn136 1.975 . S
O154 C153 1.252 . S
H155 C148 0.930 . S
H156 C149 0.930 . S
C157 C158 1.392 . S
C157 N161 1.328 . S
C157 H163 0.930 . S
C158 C157 1.392 . S
C158 N162 1.331 . S
C159 C160 1.391 . S
C159 N162 1.329 . S
C159 H169 0.930 . S
C160 C159 1.391 . S
C160 N161 1.334 . S
C160 H167 0.930 . S
N161 Zn145 2.119 . S
N161 C157 1.328 . S
N161 C160 1.334 . S
N162 C158 1.331 . S
N162 C159 1.329 . S
H163 C157 0.930 . S
C164 O144 1.257 . S
C164 O165 1.244 . S
O165 C164 1.244 . S
O166 C142 1.257 . S
O166 Zn145 2.019 . S
H167 C160 0.930 . S
H168 C147 0.930 . S
H169 C159 0.930 . S
Zn170 N174 2.020 . S
Zn170 O178 2.019 . S
Zn170 N180 2.119 . S
Zn170 O188 1.975 . S
C171 N172 1.334 . S
C171 N175 1.336 . S
N172 C171 1.334 . S
N172 C173 1.334 . S
C173 N172 1.334 . S
C173 N174 1.336 . S
N174 Zn170 2.020 . S
N174 C173 1.336 . S
N174 N175 1.354 . S
N175 C171 1.336 . S
N175 N174 1.354 . S
N175 Zn179 2.020 . S
C176 O177 1.244 . S
C176 O200 1.257 . S
O177 C176 1.244 . S
O178 Zn170 2.019 . S
O178 C198 1.257 . S
Zn179 N175 2.020 . S
Zn179 O186 1.975 . S
Zn179 N195 2.119 . S
Zn179 O200 2.019 . S
N180 Zn170 2.119 . S
N180 C182 1.334 . S
N180 C183 1.328 . S
C181 C182 1.391 . S
C181 N184 1.329 . S
C181 H202 0.930 . S
C182 N180 1.334 . S
C182 C181 1.391 . S
C182 H189 0.930 . S
C183 N180 1.328 . S
C183 C185 1.392 . S
C183 H190 0.930 . S
N184 C181 1.329 . S
N184 C185 1.331 . S
C185 C183 1.392 . S
C185 N184 1.331 . S
O186 Zn179 1.975 . S
O186 C187 1.252 . S
C187 O186 1.252 . S
C187 O188 1.252 . S
O188 Zn170 1.975 . S
O188 C187 1.252 . S
H189 C182 0.930 . S
H190 C183 0.930 . S
C191 C192 1.392 . S
C191 N195 1.328 . S
C191 H197 0.930 . S
C192 C191 1.392 . S
C192 N196 1.331 . S
C193 C194 1.391 . S
C193 N196 1.329 . S
C193 H203 0.930 . S
C194 C193 1.391 . S
C194 N195 1.334 . S
C194 H201 0.930 . S
N195 Zn179 2.119 . S
N195 C191 1.328 . S
N195 C194 1.334 . S
N196 C192 1.331 . S
N196 C193 1.329 . S
H197 C191 0.930 . S
C198 O178 1.257 . S
C198 O199 1.244 . S
O199 C198 1.244 . S
O200 C176 1.257 . S
O200 Zn179 2.019 . S
H201 C194 0.930 . S
H202 C181 0.930 . S
H203 C193 0.930 . S
Zn204 N208 2.020 . S
Zn204 O212 2.019 . S
Zn204 N214 2.119 . S
Zn204 O222 1.975 . S
C205 N206 1.334 . S
C205 N209 1.336 . S
N206 C205 1.334 . S
N206 C207 1.334 . S
C207 N206 1.334 . S
C207 N208 1.336 . S
N208 Zn204 2.020 . S
N208 C207 1.336 . S
N208 N209 1.354 . S
N209 C205 1.336 . S
N209 N208 1.354 . S
N209 Zn213 2.020 . S
C210 O211 1.244 . S
C210 O234 1.257 . S
O211 C210 1.244 . S
O212 Zn204 2.019 . S
O212 C232 1.257 . S
Zn213 N209 2.020 . S
Zn213 O220 1.975 . S
Zn213 N229 2.119 . S
Zn213 O234 2.019 . S
N214 Zn204 2.119 . S
N214 C216 1.334 . S
N214 C217 1.328 . S
C215 C216 1.391 . S
C215 N218 1.329 . S
C215 H236 0.930 . S
C216 N214 1.334 . S
C216 C215 1.391 . S
C216 H223 0.930 . S
C217 N214 1.328 . S
C217 C219 1.392 . S
C217 H224 0.930 . S
N218 C215 1.329 . S
N218 C219 1.331 . S
C219 C217 1.392 . S
C219 N218 1.331 . S
O220 Zn213 1.975 . S
O220 C221 1.252 . S
C221 O220 1.252 . S
C221 O222 1.252 . S
O222 Zn204 1.975 . S
O222 C221 1.252 . S
H223 C216 0.930 . S
H224 C217 0.930 . S
C225 C226 1.392 . S
C225 N229 1.328 . S
C225 H231 0.930 . S
C226 C225 1.392 . S
C226 N230 1.331 . S
C227 C228 1.391 . S
C227 N230 1.329 . S
C227 H237 0.930 . S
C228 C227 1.391 . S
C228 N229 1.334 . S
C228 H235 0.930 . S
N229 Zn213 2.119 . S
N229 C225 1.328 . S
N229 C228 1.334 . S
N230 C226 1.331 . S
N230 C227 1.329 . S
H231 C225 0.930 . S
C232 O212 1.257 . S
C232 O233 1.244 . S
O233 C232 1.244 . S
O234 C210 1.257 . S
O234 Zn213 2.019 . S
H235 C228 0.930 . S
H236 C215 0.930 . S
H237 C227 0.930 . S
Zn238 N242 2.020 . S
Zn238 O246 2.019 . S
Zn238 N248 2.119 . S
Zn238 O256 1.975 . S
C239 N240 1.334 . S
C239 N243 1.336 . S
N240 C239 1.334 . S
N240 C241 1.334 . S
C241 N240 1.334 . S
C241 N242 1.336 . S
N242 Zn238 2.020 . S
N242 C241 1.336 . S
N242 N243 1.354 . S
N243 C239 1.336 . S
N243 N242 1.354 . S
N243 Zn247 2.020 . S
C244 O245 1.244 . S
C244 O268 1.257 . S
O245 C244 1.244 . S
O246 Zn238 2.019 . S
O246 C266 1.257 . S
Zn247 N243 2.020 . S
Zn247 O254 1.975 . S
Zn247 N263 2.119 . S
Zn247 O268 2.019 . S
N248 Zn238 2.119 . S
N248 C250 1.334 . S
N248 C251 1.328 . S
C249 C250 1.391 . S
C249 N252 1.329 . S
C249 H270 0.930 . S
C250 N248 1.334 . S
C250 C249 1.391 . S
C250 H257 0.930 . S
C251 N248 1.328 . S
C251 C253 1.392 . S
C251 H258 0.930 . S
N252 C249 1.329 . S
N252 C253 1.331 . S
C253 C251 1.392 . S
C253 N252 1.331 . S
O254 Zn247 1.975 . S
O254 C255 1.252 . S
C255 O254 1.252 . S
C255 O256 1.252 . S
O256 Zn238 1.975 . S
O256 C255 1.252 . S
H257 C250 0.930 . S
H258 C251 0.930 . S
C259 C260 1.392 . S
C259 N263 1.328 . S
C259 H265 0.930 . S
C260 C259 1.392 . S
C260 N264 1.331 . S
C261 C262 1.391 . S
C261 N264 1.329 . S
C261 H271 0.930 . S
C262 C261 1.391 . S
C262 N263 1.334 . S
C262 H269 0.930 . S
N263 Zn247 2.119 . S
N263 C259 1.328 . S
N263 C262 1.334 . S
N264 C260 1.331 . S
N264 C261 1.329 . S
H265 C259 0.930 . S
C266 O246 1.257 . S
C266 O267 1.244 . S
O267 C266 1.244 . S
O268 C244 1.257 . S
O268 Zn247 2.019 . S
H269 C262 0.930 . S
H270 C249 0.930 . S
H271 C261 0.930 . S
Zn272 N276 2.020 . S
Zn272 O280 2.019 . S
Zn272 N282 2.119 . S
Zn272 O290 1.975 . S
C273 N274 1.334 . S
C273 N277 1.336 . S
N274 C273 1.334 . S
N274 C275 1.334 . S
C275 N274 1.334 . S
C275 N276 1.336 . S
N276 Zn272 2.020 . S
N276 C275 1.336 . S
N276 N277 1.354 . S
N277 C273 1.336 . S
N277 N276 1.354 . S
N277 Zn281 2.020 . S
C278 O279 1.244 . S
C278 O302 1.257 . S
O279 C278 1.244 . S
O280 Zn272 2.019 . S
O280 C300 1.257 . S
Zn281 N277 2.020 . S
Zn281 O288 1.975 . S
Zn281 N297 2.119 . S
Zn281 O302 2.019 . S
N282 Zn272 2.119 . S
N282 C284 1.334 . S
N282 C285 1.328 . S
C283 C284 1.391 . S
C283 N286 1.329 . S
C283 H304 0.930 . S
C284 N282 1.334 . S
C284 C283 1.391 . S
C284 H291 0.930 . S
C285 N282 1.328 . S
C285 C287 1.392 . S
C285 H292 0.930 . S
N286 C283 1.329 . S
N286 C287 1.331 . S
C287 C285 1.392 . S
C287 N286 1.331 . S
O288 Zn281 1.975 . S
O288 C289 1.252 . S
C289 O288 1.252 . S
C289 O290 1.252 . S
O290 Zn272 1.975 . S
O290 C289 1.252 . S
H291 C284 0.930 . S
H292 C285 0.930 . S
C293 C294 1.392 . S
C293 N297 1.328 . S
C293 H299 0.930 . S
C294 C293 1.392 . S
C294 N298 1.331 . S
C295 C296 1.391 . S
C295 N298 1.329 . S
C295 H305 0.930 . S
C296 C295 1.391 . S
C296 N297 1.334 . S
C296 H303 0.930 . S
N297 Zn281 2.119 . S
N297 C293 1.328 . S
N297 C296 1.334 . S
N298 C294 1.331 . S
N298 C295 1.329 . S
H299 C293 0.930 . S
C300 O280 1.257 . S
C300 O301 1.244 . S
O301 C300 1.244 . S
O302 C278 1.257 . S
O302 Zn281 2.019 . S
H303 C296 0.930 . S
H304 C283 0.930 . S
H305 C295 0.930 . S
Zn306 N310 2.020 . S
Zn306 O314 2.019 . S
Zn306 N316 2.119 . S
Zn306 O324 1.975 . S
C307 N308 1.334 . S
C307 N311 1.336 . S
N308 C307 1.334 . S
N308 C309 1.334 . S
C309 N308 1.334 . S
C309 N310 1.336 . S
N310 Zn306 2.020 . S
N310 C309 1.336 . S
N310 N311 1.354 . S
N311 C307 1.336 . S
N311 N310 1.354 . S
N311 Zn315 2.020 . S
C312 O313 1.244 . S
C312 O336 1.257 . S
O313 C312 1.244 . S
O314 Zn306 2.019 . S
O314 C334 1.257 . S
Zn315 N311 2.020 . S
Zn315 O322 1.975 . S
Zn315 N331 2.119 . S
Zn315 O336 2.019 . S
N316 Zn306 2.119 . S
N316 C318 1.334 . S
N316 C319 1.328 . S
C317 C318 1.391 . S
C317 N320 1.329 . S
C317 H338 0.930 . S
C318 N316 1.334 . S
C318 C317 1.391 . S
C318 H325 0.930 . S
C319 N316 1.328 . S
C319 C321 1.392 . S
C319 H326 0.930 . S
N320 C317 1.329 . S
N320 C321 1.331 . S
C321 C319 1.392 . S
C321 N320 1.331 . S
O322 Zn315 1.975 . S
O322 C323 1.252 . S
C323 O322 1.252 . S
C323 O324 1.252 . S
O324 Zn306 1.975 . S
O324 C323 1.252 . S
H325 C318 0.930 . S
H326 C319 0.930 . S
C327 C328 1.392 . S
C327 N331 1.328 . S
C327 H333 0.930 . S
C328 C327 1.392 . S
C328 N332 1.331 . S
C329 C330 1.391 . S
C329 N332 1.329 . S
C329 H339 0.930 . S
C330 C329 1.391 . S
C330 N331 1.334 . S
C330 H337 0.930 . S
N331 Zn315 2.119 . S
N331 C327 1.328 . S
N331 C330 1.334 . S
N332 C328 1.331 . S
N332 C329 1.329 . S
H333 C327 0.930 . S
C334 O314 1.257 . S
C334 O335 1.244 . S
O335 C334 1.244 . S
O336 C312 1.257 . S
O336 Zn315 2.019 . S
H337 C330 0.930 . S
H338 C317 0.930 . S
H339 C329 0.930 . S
Zn340 N344 2.020 . S
Zn340 O348 2.019 . S
Zn340 N350 2.119 . S
Zn340 O358 1.975 . S
C341 N342 1.334 . S
C341 N345 1.336 . S
N342 C341 1.334 . S
N342 C343 1.334 . S
C343 N342 1.334 . S
C343 N344 1.336 . S
N344 Zn340 2.020 . S
N344 C343 1.336 . S
N344 N345 1.354 . S
N345 C341 1.336 . S
N345 N344 1.354 . S
N345 Zn349 2.020 . S
C346 O347 1.244 . S
C346 O370 1.257 . S
O347 C346 1.244 . S
O348 Zn340 2.019 . S
O348 C368 1.257 . S
Zn349 N345 2.020 . S
Zn349 O356 1.975 . S
Zn349 N365 2.119 . S
Zn349 O370 2.019 . S
N350 Zn340 2.119 . S
N350 C352 1.334 . S
N350 C353 1.328 . S
C351 C352 1.391 . S
C351 N354 1.329 . S
C351 H372 0.930 . S
C352 N350 1.334 . S
C352 C351 1.391 . S
C352 H359 0.930 . S
C353 N350 1.328 . S
C353 C355 1.392 . S
C353 H360 0.930 . S
N354 C351 1.329 . S
N354 C355 1.331 . S
C355 C353 1.392 . S
C355 N354 1.331 . S
O356 Zn349 1.975 . S
O356 C357 1.252 . S
C357 O356 1.252 . S
C357 O358 1.252 . S
O358 Zn340 1.975 . S
O358 C357 1.252 . S
H359 C352 0.930 . S
H360 C353 0.930 . S
C361 C362 1.392 . S
C361 N365 1.328 . S
C361 H367 0.930 . S
C362 C361 1.392 . S
C362 N366 1.331 . S
C363 C364 1.391 . S
C363 N366 1.329 . S
C363 H373 0.930 . S
C364 C363 1.391 . S
C364 N365 1.334 . S
C364 H371 0.930 . S
N365 Zn349 2.119 . S
N365 C361 1.328 . S
N365 C364 1.334 . S
N366 C362 1.331 . S
N366 C363 1.329 . S
H367 C361 0.930 . S
C368 O348 1.257 . S
C368 O369 1.244 . S
O369 C368 1.244 . S
O370 C346 1.257 . S
O370 Zn349 2.019 . S
H371 C364 0.930 . S
H372 C351 0.930 . S
H373 C363 0.930 . S
Zn374 N378 2.020 . S
Zn374 O382 2.019 . S
Zn374 N384 2.119 . S
Zn374 O392 1.975 . S
C375 N376 1.334 . S
C375 N379 1.336 . S
N376 C375 1.334 . S
N376 C377 1.334 . S
C377 N376 1.334 . S
C377 N378 1.336 . S
N378 Zn374 2.020 . S
N378 C377 1.336 . S
N378 N379 1.354 . S
N379 C375 1.336 . S
N379 N378 1.354 . S
N379 Zn383 2.020 . S
C380 O381 1.244 . S
C380 O404 1.257 . S
O381 C380 1.244 . S
O382 Zn374 2.019 . S
O382 C402 1.257 . S
Zn383 N379 2.020 . S
Zn383 O390 1.975 . S
Zn383 N399 2.119 . S
Zn383 O404 2.019 . S
N384 Zn374 2.119 . S
N384 C386 1.334 . S
N384 C387 1.328 . S
C385 C386 1.391 . S
C385 N388 1.329 . S
C385 H406 0.930 . S
C386 N384 1.334 . S
C386 C385 1.391 . S
C386 H393 0.930 . S
C387 N384 1.328 . S
C387 C389 1.392 . S
C387 H394 0.930 . S
N388 C385 1.329 . S
N388 C389 1.331 . S
C389 C387 1.392 . S
C389 N388 1.331 . S
O390 Zn383 1.975 . S
O390 C391 1.252 . S
C391 O390 1.252 . S
C391 O392 1.252 . S
O392 Zn374 1.975 . S
O392 C391 1.252 . S
H393 C386 0.930 . S
H394 C387 0.930 . S
C395 C396 1.392 . S
C395 N399 1.328 . S
C395 H401 0.930 . S
C396 C395 1.392 . S
C396 N400 1.331 . S
C397 C398 1.391 . S
C397 N400 1.329 . S
C397 H407 0.930 . S
C398 C397 1.391 . S
C398 N399 1.334 . S
C398 H405 0.930 . S
N399 Zn383 2.119 . S
N399 C395 1.328 . S
N399 C398 1.334 . S
N400 C396 1.331 . S
N400 C397 1.329 . S
H401 C395 0.930 . S
C402 O382 1.257 . S
C402 O403 1.244 . S
O403 C402 1.244 . S
O404 C380 1.257 . S
O404 Zn383 2.019 . S
H405 C398 0.930 . S
H406 C385 0.930 . S
H407 C397 0.930 . S
Zn408 N412 2.020 . S
Zn408 O416 2.019 . S
Zn408 N418 2.119 . S
Zn408 O426 1.975 . S
C409 N410 1.334 . S
C409 N413 1.336 . S
N410 C409 1.334 . S
N410 C411 1.334 . S
C411 N410 1.334 . S
C411 N412 1.336 . S
N412 Zn408 2.020 . S
N412 C411 1.336 . S
N412 N413 1.354 . S
N413 C409 1.336 . S
N413 N412 1.354 . S
N413 Zn417 2.020 . S
C414 O415 1.244 . S
C414 O438 1.257 . S
O415 C414 1.244 . S
O416 Zn408 2.019 . S
O416 C436 1.257 . S
Zn417 N413 2.020 . S
Zn417 O424 1.975 . S
Zn417 N433 2.119 . S
Zn417 O438 2.019 . S
N418 Zn408 2.119 . S
N418 C420 1.334 . S
N418 C421 1.328 . S
C419 C420 1.391 . S
C419 N422 1.329 . S
C419 H440 0.930 . S
C420 N418 1.334 . S
C420 C419 1.391 . S
C420 H427 0.930 . S
C421 N418 1.328 . S
C421 C423 1.392 . S
C421 H428 0.930 . S
N422 C419 1.329 . S
N422 C423 1.331 . S
C423 C421 1.392 . S
C423 N422 1.331 . S
O424 Zn417 1.975 . S
O424 C425 1.252 . S
C425 O424 1.252 . S
C425 O426 1.252 . S
O426 Zn408 1.975 . S
O426 C425 1.252 . S
H427 C420 0.930 . S
H428 C421 0.930 . S
C429 C430 1.392 . S
C429 N433 1.328 . S
C429 H435 0.930 . S
C430 C429 1.392 . S
C430 N434 1.331 . S
C431 C432 1.391 . S
C431 N434 1.329 . S
C431 H441 0.930 . S
C432 C431 1.391 . S
C432 N433 1.334 . S
C432 H439 0.930 . S
N433 Zn417 2.119 . S
N433 C429 1.328 . S
N433 C432 1.334 . S
N434 C430 1.331 . S
N434 C431 1.329 . S
H435 C429 0.930 . S
C436 O416 1.257 . S
C436 O437 1.244 . S
O437 C436 1.244 . S
O438 C414 1.257 . S
O438 Zn417 2.019 . S
H439 C432 0.930 . S
H440 C419 0.930 . S
H441 C431 0.930 . S
Zn442 N446 2.020 . S
Zn442 O450 2.019 . S
Zn442 N452 2.119 . S
Zn442 O460 1.975 . S
C443 N444 1.334 . S
C443 N447 1.336 . S
N444 C443 1.334 . S
N444 C445 1.334 . S
C445 N444 1.334 . S
C445 N446 1.336 . S
N446 Zn442 2.020 . S
N446 C445 1.336 . S
N446 N447 1.354 . S
N447 C443 1.336 . S
N447 N446 1.354 . S
N447 Zn451 2.020 . S
C448 O449 1.244 . S
C448 O472 1.257 . S
O449 C448 1.244 . S
O450 Zn442 2.019 . S
O450 C470 1.257 . S
Zn451 N447 2.020 . S
Zn451 O458 1.975 . S
Zn451 N467 2.119 . S
Zn451 O472 2.019 . S
N452 Zn442 2.119 . S
N452 C454 1.334 . S
N452 C455 1.328 . S
C453 C454 1.391 . S
C453 N456 1.329 . S
C453 H474 0.930 . S
C454 N452 1.334 . S
C454 C453 1.391 . S
C454 H461 0.930 . S
C455 N452 1.328 . S
C455 C457 1.392 . S
C455 H462 0.930 . S
N456 C453 1.329 . S
N456 C457 1.331 . S
C457 C455 1.392 . S
C457 N456 1.331 . S
O458 Zn451 1.975 . S
O458 C459 1.252 . S
C459 O458 1.252 . S
C459 O460 1.252 . S
O460 Zn442 1.975 . S
O460 C459 1.252 . S
H461 C454 0.930 . S
H462 C455 0.930 . S
C463 C464 1.392 . S
C463 N467 1.328 . S
C463 H469 0.930 . S
C464 C463 1.392 . S
C464 N468 1.331 . S
C465 C466 1.391 . S
C465 N468 1.329 . S
C465 H475 0.930 . S
C466 C465 1.391 . S
C466 N467 1.334 . S
C466 H473 0.930 . S
N467 Zn451 2.119 . S
N467 C463 1.328 . S
N467 C466 1.334 . S
N468 C464 1.331 . S
N468 C465 1.329 . S
H469 C463 0.930 . S
C470 O450 1.257 . S
C470 O471 1.244 . S
O471 C470 1.244 . S
O472 C448 1.257 . S
O472 Zn451 2.019 . S
H473 C466 0.930 . S
H474 C453 0.930 . S
H475 C465 0.930 . S
Zn476 N480 2.020 . S
Zn476 O484 2.019 . S
Zn476 N486 2.119 . S
Zn476 O494 1.975 . S
C477 N478 1.334 . S
C477 N481 1.336 . S
N478 C477 1.334 . S
N478 C479 1.334 . S
C479 N478 1.334 . S
C479 N480 1.336 . S
N480 Zn476 2.020 . S
N480 C479 1.336 . S
N480 N481 1.354 . S
N481 C477 1.336 . S
N481 N480 1.354 . S
N481 Zn485 2.020 . S
C482 O483 1.244 . S
C482 O506 1.257 . S
O483 C482 1.244 . S
O484 Zn476 2.019 . S
O484 C504 1.257 . S
Zn485 N481 2.020 . S
Zn485 O492 1.975 . S
Zn485 N501 2.119 . S
Zn485 O506 2.019 . S
N486 Zn476 2.119 . S
N486 C488 1.334 . S
N486 C489 1.328 . S
C487 C488 1.391 . S
C487 N490 1.329 . S
C487 H508 0.930 . S
C488 N486 1.334 . S
C488 C487 1.391 . S
C488 H495 0.930 . S
C489 N486 1.328 . S
C489 C491 1.392 . S
C489 H496 0.930 . S
N490 C487 1.329 . S
N490 C491 1.331 . S
C491 C489 1.392 . S
C491 N490 1.331 . S
O492 Zn485 1.975 . S
O492 C493 1.252 . S
C493 O492 1.252 . S
C493 O494 1.252 . S
O494 Zn476 1.975 . S
O494 C493 1.252 . S
H495 C488 0.930 . S
H496 C489 0.930 . S
C497 C498 1.392 . S
C497 N501 1.328 . S
C497 H503 0.930 . S
C498 C497 1.392 . S
C498 N502 1.331 . S
C499 C500 1.391 . S
C499 N502 1.329 . S
C499 H509 0.930 . S
C500 C499 1.391 . S
C500 N501 1.334 . S
C500 H507 0.930 . S
N501 Zn485 2.119 . S
N501 C497 1.328 . S
N501 C500 1.334 . S
N502 C498 1.331 . S
N502 C499 1.329 . S
H503 C497 0.930 . S
C504 O484 1.257 . S
C504 O505 1.244 . S
O505 C504 1.244 . S
O506 C482 1.257 . S
O506 Zn485 2.019 . S
H507 C500 0.930 . S
H508 C487 0.930 . S
H509 C499 0.930 . S
Zn510 N514 2.020 . S
Zn510 O518 2.019 . S
Zn510 N520 2.119 . S
Zn510 O528 1.975 . S
C511 N512 1.334 . S
C511 N515 1.336 . S
N512 C511 1.334 . S
N512 C513 1.334 . S
C513 N512 1.334 . S
C513 N514 1.336 . S
N514 Zn510 2.020 . S
N514 C513 1.336 . S
N514 N515 1.354 . S
N515 C511 1.336 . S
N515 N514 1.354 . S
N515 Zn519 2.020 . S
C516 O517 1.244 . S
C516 O540 1.257 . S
O517 C516 1.244 . S
O518 Zn510 2.019 . S
O518 C538 1.257 . S
Zn519 N515 2.020 . S
Zn519 O526 1.975 . S
Zn519 N535 2.119 . S
Zn519 O540 2.019 . S
N520 Zn510 2.119 . S
N520 C522 1.334 . S
N520 C523 1.328 . S
C521 C522 1.391 . S
C521 N524 1.329 . S
C521 H542 0.930 . S
C522 N520 1.334 . S
C522 C521 1.391 . S
C522 H529 0.930 . S
C523 N520 1.328 . S
C523 C525 1.392 . S
C523 H530 0.930 . S
N524 C521 1.329 . S
N524 C525 1.331 . S
C525 C523 1.392 . S
C525 N524 1.331 . S
O526 Zn519 1.975 . S
O526 C527 1.252 . S
C527 O526 1.252 . S
C527 O528 1.252 . S
O528 Zn510 1.975 . S
O528 C527 1.252 . S
H529 C522 0.930 . S
H530 C523 0.930 . S
C531 C532 1.392 . S
C531 N535 1.328 . S
C531 H537 0.930 . S
C532 C531 1.392 . S
C532 N536 1.331 . S
C533 C534 1.391 . S
C533 N536 1.329 . S
C533 H543 0.930 . S
C534 C533 1.391 . S
C534 N535 1.334 . S
C534 H541 0.930 . S
N535 Zn519 2.119 . S
N535 C531 1.328 . S
N535 C534 1.334 . S
N536 C532 1.331 . S
N536 C533 1.329 . S
H537 C531 0.930 . S
C538 O518 1.257 . S
C538 O539 1.244 . S
O539 C538 1.244 . S
O540 C516 1.257 . S
O540 Zn519 2.019 . S
H541 C534 0.930 . S
H542 C521 0.930 . S
H543 C533 0.930 . S
H544 C550 0.930 . S
H545 C554 0.930 . S
H546 C559 0.929 . S
H547 C557 0.929 . S
H548 C552 0.929 . S
H549 C558 0.929 . S
C550 H544 0.930 . S
C550 C551 1.367 . S
C550 C558 1.378 . S
C551 C550 1.367 . S
C551 C559 1.433 . S
C552 H548 0.929 . S
C552 C554 1.378 . S
C552 C556 1.350 . S
C553 C556 1.463 1_554 S
C553 C558 1.350 . S
C553 N561 1.427 . S
C554 H545 0.930 . S
C554 C552 1.378 . S
C554 C555 1.367 . S
C555 C554 1.367 . S
C555 C557 1.433 . S
C556 C552 1.350 . S
C556 C553 1.463 1_556 S
C556 N560 1.427 . S
C557 H547 0.929 . S
C557 C555 1.433 . S
C557 N560 1.384 . S
C558 H549 0.929 . S
C558 C550 1.378 . S
C558 C553 1.350 . S
C559 H546 0.929 . S
C559 C551 1.433 . S
C559 N561 1.384 . S
N560 C556 1.427 . S
N560 C557 1.384 . S
N561 C553 1.427 . S
N561 C559 1.384 . S
H562 C568 0.930 . S
H563 C572 0.930 . S
H564 C577 0.929 . S
H565 C575 0.929 . S
H566 C570 0.929 . S
H567 C576 0.929 . S
C568 H562 0.930 . S
C568 C569 1.367 . S
C568 C576 1.378 . S
C569 C568 1.367 . S
C569 C577 1.433 . S
C570 H566 0.929 . S
C570 C572 1.378 . S
C570 C574 1.350 . S
C571 C574 1.463 1_554 S
C571 C576 1.350 . S
C571 N579 1.427 . S
C572 H563 0.930 . S
C572 C570 1.378 . S
C572 C573 1.367 . S
C573 C572 1.367 . S
C573 C575 1.433 . S
C574 C570 1.350 . S
C574 C571 1.463 1_556 S
C574 N578 1.427 . S
C575 H565 0.929 . S
C575 C573 1.433 . S
C575 N578 1.384 . S
C576 H567 0.929 . S
C576 C568 1.378 . S
C576 C571 1.350 . S
C577 H564 0.929 . S
C577 C569 1.433 . S
C577 N579 1.384 . S
N578 C574 1.427 . S
N578 C575 1.384 . S
N579 C571 1.427 . S
N579 C577 1.384 . S
H580 C586 0.930 . S
H581 C590 0.930 . S
H582 C595 0.929 . S
H583 C593 0.929 . S
H584 C588 0.929 . S
H585 C594 0.929 . S
C586 H580 0.930 . S
C586 C587 1.367 . S
C586 C594 1.378 . S
C587 C586 1.367 . S
C587 C595 1.433 . S
C588 H584 0.929 . S
C588 C590 1.378 . S
C588 C592 1.350 . S
C589 C592 1.463 1_556 S
C589 C594 1.350 . S
C589 N597 1.427 . S
C590 H581 0.930 . S
C590 C588 1.378 . S
C590 C591 1.367 . S
C591 C590 1.367 . S
C591 C593 1.433 . S
C592 C588 1.350 . S
C592 C589 1.463 1_554 S
C592 N596 1.427 . S
C593 H583 0.929 . S
C593 C591 1.433 . S
C593 N596 1.384 . S
C594 H585 0.929 . S
C594 C586 1.378 . S
C594 C589 1.350 . S
C595 H582 0.929 . S
C595 C587 1.433 . S
C595 N597 1.384 . S
N596 C592 1.427 . S
N596 C593 1.384 . S
N597 C589 1.427 . S
N597 C595 1.384 . S
H598 C604 0.930 . S
H599 C608 0.930 . S
H600 C613 0.929 . S
H601 C611 0.929 . S
H602 C606 0.929 . S
H603 C612 0.929 . S
C604 H598 0.930 . S
C604 C605 1.367 . S
C604 C612 1.378 . S
C605 C604 1.367 . S
C605 C613 1.433 . S
C606 H602 0.929 . S
C606 C608 1.378 . S
C606 C610 1.350 . S
C607 C610 1.463 1_556 S
C607 C612 1.350 . S
C607 N615 1.427 . S
C608 H599 0.930 . S
C608 C606 1.378 . S
C608 C609 1.367 . S
C609 C608 1.367 . S
C609 C611 1.433 . S
C610 C606 1.350 . S
C610 C607 1.463 1_554 S
C610 N614 1.427 . S
C611 H601 0.929 . S
C611 C609 1.433 . S
C611 N614 1.384 . S
C612 H603 0.929 . S
C612 C604 1.378 . S
C612 C607 1.350 . S
C613 H600 0.929 . S
C613 C605 1.433 . S
C613 N615 1.384 . S
N614 C610 1.427 . S
N614 C611 1.384 . S
N615 C607 1.427 . S
N615 C613 1.384 . S
H616 C622 0.930 . S
H617 C626 0.930 . S
H618 C631 0.929 . S
H619 C629 0.929 . S
H620 C624 0.929 . S
H621 C630 0.929 . S
C622 H616 0.930 . S
C622 C623 1.367 . S
C622 C630 1.378 . S
C623 C622 1.367 . S
C623 C631 1.433 . S
C624 H620 0.929 . S
C624 C626 1.378 . S
C624 C628 1.350 . S
C625 C628 1.463 . S
C625 C630 1.350 . S
C625 N633 1.427 . S
C626 H617 0.930 . S
C626 C624 1.378 . S
C626 C627 1.367 . S
C627 C626 1.367 . S
C627 C629 1.433 . S
C628 C624 1.350 . S
C628 C625 1.463 . S
C628 N632 1.427 . S
C629 H619 0.929 . S
C629 C627 1.433 . S
C629 N632 1.384 . S
C630 H621 0.929 . S
C630 C622 1.378 . S
C630 C625 1.350 . S
C631 H618 0.929 . S
C631 C623 1.433 . S
C631 N633 1.384 . S
N632 C628 1.427 . S
N632 C629 1.384 . S
N633 C625 1.427 . S
N633 C631 1.384 . S
H634 C640 0.930 . S
H635 C644 0.930 . S
H636 C649 0.929 . S
H637 C647 0.929 . S
H638 C642 0.929 . S
H639 C648 0.929 . S
C640 H634 0.930 . S
C640 C641 1.367 . S
C640 C648 1.378 . S
C641 C640 1.367 . S
C641 C649 1.433 . S
C642 H638 0.929 . S
C642 C644 1.378 . S
C642 C646 1.350 . S
C643 C646 1.463 . S
C643 C648 1.350 . S
C643 N651 1.427 . S
C644 H635 0.930 . S
C644 C642 1.378 . S
C644 C645 1.367 . S
C645 C644 1.367 . S
C645 C647 1.433 . S
C646 C642 1.350 . S
C646 C643 1.463 . S
C646 N650 1.427 . S
C647 H637 0.929 . S
C647 C645 1.433 . S
C647 N650 1.384 . S
C648 H639 0.929 . S
C648 C640 1.378 . S
C648 C643 1.350 . S
C649 H636 0.929 . S
C649 C641 1.433 . S
C649 N651 1.384 . S
N650 C646 1.427 . S
N650 C647 1.384 . S
N651 C643 1.427 . S
N651 C649 1.384 . S
H652 C658 0.930 . S
H653 C662 0.930 . S
H654 C667 0.929 . S
H655 C665 0.929 . S
H656 C660 0.929 . S
H657 C666 0.929 . S
C658 H652 0.930 . S
C658 C659 1.367 . S
C658 C666 1.378 . S
C659 C658 1.367 . S
C659 C667 1.433 . S
C660 H656 0.929 . S
C660 C662 1.378 . S
C660 C664 1.350 . S
C661 C664 1.463 . S
C661 C666 1.350 . S
C661 N669 1.427 . S
C662 H653 0.930 . S
C662 C660 1.378 . S
C662 C663 1.367 . S
C663 C662 1.367 . S
C663 C665 1.433 . S
C664 C660 1.350 . S
C664 C661 1.463 . S
C664 N668 1.427 . S
C665 H655 0.929 . S
C665 C663 1.433 . S
C665 N668 1.384 . S
C666 H657 0.929 . S
C666 C658 1.378 . S
C666 C661 1.350 . S
C667 H654 0.929 . S
C667 C659 1.433 . S
C667 N669 1.384 . S
N668 C664 1.427 . S
N668 C665 1.384 . S
N669 C661 1.427 . S
N669 C667 1.384 . S
H670 C676 0.930 . S
H671 C680 0.930 . S
H672 C685 0.929 . S
H673 C683 0.929 . S
H674 C678 0.929 . S
H675 C684 0.929 . S
C676 H670 0.930 . S
C676 C677 1.367 . S
C676 C684 1.378 . S
C677 C676 1.367 . S
C677 C685 1.433 . S
C678 H674 0.929 . S
C678 C680 1.378 . S
C678 C682 1.350 . S
C679 C682 1.463 . S
C679 C684 1.350 . S
C679 N687 1.427 . S
C680 H671 0.930 . S
C680 C678 1.378 . S
C680 C681 1.367 . S
C681 C680 1.367 . S
C681 C683 1.433 . S
C682 C678 1.350 . S
C682 C679 1.463 . S
C682 N686 1.427 . S
C683 H673 0.929 . S
C683 C681 1.433 . S
C683 N686 1.384 . S
C684 H675 0.929 . S
C684 C676 1.378 . S
C684 C679 1.350 . S
C685 H672 0.929 . S
C685 C677 1.433 . S
C685 N687 1.384 . S
N686 C682 1.427 . S
N686 C683 1.384 . S
N687 C679 1.427 . S
N687 C685 1.384 . S
H688 C694 0.930 . S
H689 C698 0.930 . S
H690 C703 0.929 . S
H691 C701 0.929 . S
H692 C696 0.929 . S
H693 C702 0.929 . S
C694 H688 0.930 . S
C694 C695 1.367 . S
C694 C702 1.378 . S
C695 C694 1.367 . S
C695 C703 1.433 . S
C696 H692 0.929 . S
C696 C698 1.378 . S
C696 C700 1.350 . S
C697 C700 1.463 . S
C697 C702 1.350 1_545 S
C697 N705 1.427 . S
C698 H689 0.930 . S
C698 C696 1.378 . S
C698 C699 1.367 . S
C699 C698 1.367 . S
C699 C701 1.433 . S
C700 C696 1.350 . S
C700 C697 1.463 . S
C700 N704 1.427 . S
C701 H691 0.929 . S
C701 C699 1.433 . S
C701 N704 1.384 . S
C702 H693 0.929 . S
C702 C694 1.378 . S
C702 C697 1.350 1_565 S
C703 H690 0.929 . S
C703 C695 1.433 . S
C703 N705 1.384 1_565 S
N704 C700 1.427 . S
N704 C701 1.384 . S
N705 C697 1.427 . S
N705 C703 1.384 1_545 S
H706 C712 0.930 . S
H707 C716 0.930 . S
H708 C721 0.929 . S
H709 C719 0.929 . S
H710 C714 0.929 . S
H711 C720 0.929 . S
C712 H706 0.930 . S
C712 C713 1.367 . S
C712 C720 1.378 1_455 S
C713 C712 1.367 . S
C713 C721 1.433 . S
C714 H710 0.929 . S
C714 C716 1.378 . S
C714 C718 1.350 . S
C715 C718 1.463 . S
C715 C720 1.350 . S
C715 N723 1.427 1_655 S
C716 H707 0.930 . S
C716 C714 1.378 . S
C716 C717 1.367 . S
C717 C716 1.367 . S
C717 C719 1.433 . S
C718 C714 1.350 . S
C718 C715 1.463 . S
C718 N722 1.427 . S
C719 H709 0.929 . S
C719 C717 1.433 . S
C719 N722 1.384 . S
C720 H711 0.929 . S
C720 C712 1.378 1_655 S
C720 C715 1.350 . S
C721 H708 0.929 . S
C721 C713 1.433 . S
C721 N723 1.384 . S
N722 C718 1.427 . S
N722 C719 1.384 . S
N723 C715 1.427 1_455 S
N723 C721 1.384 . S
H724 C730 0.930 . S
H725 C734 0.930 . S
H726 C739 0.929 . S
H727 C737 0.929 . S
H728 C732 0.929 1_565 S
H729 C738 0.929 . S
C730 H724 0.930 . S
C730 C731 1.367 . S
C730 C738 1.378 . S
C731 C730 1.367 . S
C731 C739 1.433 . S
C732 H728 0.929 1_545 S
C732 C734 1.378 . S
C732 C736 1.350 1_545 S
C733 C736 1.463 . S
C733 C738 1.350 . S
C733 N741 1.427 . S
C734 H725 0.930 . S
C734 C732 1.378 . S
C734 C735 1.367 . S
C735 C734 1.367 . S
C735 C737 1.433 . S
C736 C732 1.350 1_565 S
C736 C733 1.463 . S
C736 N740 1.427 . S
C737 H727 0.929 . S
C737 C735 1.433 . S
C737 N740 1.384 1_545 S
C738 H729 0.929 . S
C738 C730 1.378 . S
C738 C733 1.350 . S
C739 H726 0.929 . S
C739 C731 1.433 . S
C739 N741 1.384 . S
N740 C736 1.427 . S
N740 C737 1.384 1_565 S
N741 C733 1.427 . S
N741 C739 1.384 . S
H742 C748 0.930 . S
H743 C752 0.930 . S
H744 C757 0.929 . S
H745 C755 0.929 . S
H746 C750 0.929 . S
H747 C756 0.929 . S
C748 H742 0.930 . S
C748 C749 1.367 . S
C748 C756 1.378 . S
C749 C748 1.367 . S
C749 C757 1.433 . S
C750 H746 0.929 . S
C750 C752 1.378 1_455 S
C750 C754 1.350 . S
C751 C754 1.463 . S
C751 C756 1.350 . S
C751 N759 1.427 . S
C752 H743 0.930 . S
C752 C750 1.378 1_655 S
C752 C753 1.367 . S
C753 C752 1.367 . S
C753 C755 1.433 . S
C754 C750 1.350 . S
C754 C751 1.463 . S
C754 N758 1.427 1_455 S
C755 H745 0.929 . S
C755 C753 1.433 . S
C755 N758 1.384 . S
C756 H747 0.929 . S
C756 C748 1.378 . S
C756 C751 1.350 . S
C757 H744 0.929 . S
C757 C749 1.433 . S
C757 N759 1.384 . S
N758 C754 1.427 1_655 S
N758 C755 1.384 . S
N759 C751 1.427 . S
N759 C757 1.384 . S
H760 C766 0.930 . S
H761 C770 0.930 . S
H762 C775 0.929 . S
H763 C773 0.929 . S
H764 C768 0.929 . S
H765 C774 0.929 . S
C766 H760 0.930 . S
C766 C767 1.367 . S
C766 C774 1.378 1_545 S
C767 C766 1.367 . S
C767 C775 1.433 . S
C768 H764 0.929 . S
C768 C770 1.378 . S
C768 C772 1.350 . S
C769 C772 1.463 . S
C769 C774 1.350 . S
C769 N777 1.427 1_565 S
C770 H761 0.930 . S
C770 C768 1.378 . S
C770 C771 1.367 . S
C771 C770 1.367 . S
C771 C773 1.433 . S
C772 C768 1.350 . S
C772 C769 1.463 . S
C772 N776 1.427 . S
C773 H763 0.929 . S
C773 C771 1.433 . S
C773 N776 1.384 . S
C774 H765 0.929 . S
C774 C766 1.378 1_565 S
C774 C769 1.350 . S
C775 H762 0.929 . S
C775 C767 1.433 . S
C775 N777 1.384 . S
N776 C772 1.427 . S
N776 C773 1.384 . S
N777 C769 1.427 1_545 S
N777 C775 1.384 . S
H778 C784 0.930 . S
H779 C788 0.930 . S
H780 C793 0.929 . S
H781 C791 0.929 . S
H782 C786 0.929 . S
H783 C792 0.929 . S
C784 H778 0.930 . S
C784 C785 1.367 . S
C784 C792 1.378 . S
C785 C784 1.367 . S
C785 C793 1.433 . S
C786 H782 0.929 . S
C786 C788 1.378 . S
C786 C790 1.350 1_655 S
C787 C790 1.463 . S
C787 C792 1.350 . S
C787 N795 1.427 . S
C788 H779 0.930 . S
C788 C786 1.378 . S
C788 C789 1.367 . S
C789 C788 1.367 . S
C789 C791 1.433 . S
C790 C786 1.350 1_455 S
C790 C787 1.463 . S
C790 N794 1.427 . S
C791 H781 0.929 . S
C791 C789 1.433 . S
C791 N794 1.384 1_655 S
C792 H783 0.929 . S
C792 C784 1.378 . S
C792 C787 1.350 . S
C793 H780 0.929 . S
C793 C785 1.433 . S
C793 N795 1.384 . S
N794 C790 1.427 . S
N794 C791 1.384 1_455 S
N795 C787 1.427 . S
N795 C793 1.384 . S
H796 C802 0.930 . S
H797 C806 0.930 . S
H798 C811 0.929 . S
H799 C809 0.929 . S
H800 C804 0.929 . S
H801 C810 0.929 . S
C802 H796 0.930 . S
C802 C803 1.367 . S
C802 C810 1.378 1_565 S
C803 C802 1.367 . S
C803 C811 1.433 . S
C804 H800 0.929 . S
C804 C806 1.378 . S
C804 C808 1.350 . S
C805 C808 1.463 . S
C805 C810 1.350 . S
C805 N813 1.427 . S
C806 H797 0.930 . S
C806 C804 1.378 . S
C806 C807 1.367 . S
C807 C806 1.367 . S
C807 C809 1.433 . S
C808 C804 1.350 . S
C808 C805 1.463 . S
C808 N812 1.427 . S
C809 H799 0.929 . S
C809 C807 1.433 . S
C809 N812 1.384 . S
C810 H801 0.929 . S
C810 C802 1.378 1_545 S
C810 C805 1.350 . S
C811 H798 0.929 . S
C811 C803 1.433 . S
C811 N813 1.384 1_565 S
N812 C808 1.427 . S
N812 C809 1.384 . S
N813 C805 1.427 . S
N813 C811 1.384 1_545 S
H814 C820 0.930 . S
H815 C824 0.930 . S
H816 C829 0.929 . S
H817 C827 0.929 . S
H818 C822 0.929 . S
H819 C828 0.929 . S
C820 H814 0.930 . S
C820 C821 1.367 . S
C820 C828 1.378 1_455 S
C821 C820 1.367 . S
C821 C829 1.433 . S
C822 H818 0.929 . S
C822 C824 1.378 . S
C822 C826 1.350 . S
C823 C826 1.463 . S
C823 C828 1.350 . S
C823 N831 1.427 1_655 S
C824 H815 0.930 . S
C824 C822 1.378 . S
C824 C825 1.367 . S
C825 C824 1.367 . S
C825 C827 1.433 . S
C826 C822 1.350 . S
C826 C823 1.463 . S
C826 N830 1.427 . S
C827 H817 0.929 . S
C827 C825 1.433 . S
C827 N830 1.384 . S
C828 H819 0.929 . S
C828 C820 1.378 1_655 S
C828 C823 1.350 . S
C829 H816 0.929 . S
C829 C821 1.433 . S
C829 N831 1.384 . S
N830 C826 1.427 . S
N830 C827 1.384 . S
N831 C823 1.427 1_455 S
N831 C829 1.384 . S
H832 C838 0.930 . S
H833 C842 0.930 . S
H834 C847 0.929 . S
H835 C845 0.929 1_545 S
H836 C840 0.929 . S
H837 C846 0.929 . S
C838 H832 0.930 . S
C838 C839 1.367 . S
C838 C846 1.378 . S
C839 C838 1.367 . S
C839 C847 1.433 . S
C840 H836 0.929 . S
C840 C842 1.378 . S
C840 C844 1.350 . S
C841 C844 1.463 . S
C841 C846 1.350 . S
C841 N849 1.427 . S
C842 H833 0.930 . S
C842 C840 1.378 . S
C842 C843 1.367 1_565 S
C843 C842 1.367 1_545 S
C843 C845 1.433 1_545 S
C844 C840 1.350 . S
C844 C841 1.463 . S
C844 N848 1.427 . S
C845 H835 0.929 1_565 S
C845 C843 1.433 1_565 S
C845 N848 1.384 . S
C846 H837 0.929 . S
C846 C838 1.378 . S
C846 C841 1.350 . S
C847 H834 0.929 . S
C847 C839 1.433 . S
C847 N849 1.384 . S
N848 C844 1.427 . S
N848 C845 1.384 . S
N849 C841 1.427 . S
N849 C847 1.384 . S
H850 C856 0.930 . S
H851 C860 0.930 . S
H852 C865 0.929 1_655 S
H853 C863 0.929 . S
H854 C858 0.929 . S
H855 C864 0.929 . S
C856 H850 0.930 . S
C856 C857 1.367 1_455 S
C856 C864 1.378 . S
C857 C856 1.367 1_655 S
C857 C865 1.433 1_655 S
C858 H854 0.929 . S
C858 C860 1.378 . S
C858 C862 1.350 . S
C859 C862 1.463 . S
C859 C864 1.350 . S
C859 N867 1.427 . S
C860 H851 0.930 . S
C860 C858 1.378 . S
C860 C861 1.367 . S
C861 C860 1.367 . S
C861 C863 1.433 . S
C862 C858 1.350 . S
C862 C859 1.463 . S
C862 N866 1.427 . S
C863 H853 0.929 . S
C863 C861 1.433 . S
C863 N866 1.384 . S
C864 H855 0.929 . S
C864 C856 1.378 . S
C864 C859 1.350 . S
C865 H852 0.929 1_455 S
C865 C857 1.433 1_455 S
C865 N867 1.384 . S
N866 C862 1.427 . S
N866 C863 1.384 . S
N867 C859 1.427 . S
N867 C865 1.384 . S
H868 C874 0.930 . S
H869 C878 0.930 1_565 S
H870 C883 0.929 . S
H871 C881 0.929 . S
H872 C876 0.929 . S
H873 C882 0.929 . S
C874 H868 0.930 . S
C874 C875 1.367 . S
C874 C882 1.378 . S
C875 C874 1.367 . S
C875 C883 1.433 . S
C876 H872 0.929 . S
C876 C878 1.378 . S
C876 C880 1.350 . S
C877 C880 1.463 . S
C877 C882 1.350 . S
C877 N885 1.427 . S
C878 H869 0.930 1_545 S
C878 C876 1.378 . S
C878 C879 1.367 1_545 S
C879 C878 1.367 1_565 S
C879 C881 1.433 1_565 S
C880 C876 1.350 . S
C880 C877 1.463 . S
C880 N884 1.427 . S
C881 H871 0.929 . S
C881 C879 1.433 1_545 S
C881 N884 1.384 . S
C882 H873 0.929 . S
C882 C874 1.378 . S
C882 C877 1.350 . S
C883 H870 0.929 . S
C883 C875 1.433 . S
C883 N885 1.384 . S
N884 C880 1.427 . S
N884 C881 1.384 . S
N885 C877 1.427 . S
N885 C883 1.384 . S
H886 C892 0.930 . S
H887 C896 0.930 . S
H888 C901 0.929 1_455 S
H889 C899 0.929 . S
H890 C894 0.929 . S
H891 C900 0.929 . S
C892 H886 0.930 . S
C892 C893 1.367 1_655 S
C892 C900 1.378 . S
C893 C892 1.367 1_455 S
C893 C901 1.433 1_455 S
C894 H890 0.929 . S
C894 C896 1.378 . S
C894 C898 1.350 . S
C895 C898 1.463 . S
C895 C900 1.350 . S
C895 N903 1.427 . S
C896 H887 0.930 . S
C896 C894 1.378 . S
C896 C897 1.367 . S
C897 C896 1.367 . S
C897 C899 1.433 . S
C898 C894 1.350 . S
C898 C895 1.463 . S
C898 N902 1.427 . S
C899 H889 0.929 . S
C899 C897 1.433 . S
C899 N902 1.384 . S
C900 H891 0.929 . S
C900 C892 1.378 . S
C900 C895 1.350 . S
C901 H888 0.929 1_655 S
C901 C893 1.433 1_655 S
C901 N903 1.384 . S
N902 C898 1.427 . S
N902 C899 1.384 . S
N903 C895 1.427 . S
N903 C901 1.384 . S
H904 C910 0.930 . S
H905 C914 0.930 . S
H906 C919 0.929 . S
H907 C917 0.929 1_565 S
H908 C912 0.929 . S
H909 C918 0.929 . S
C910 H904 0.930 . S
C910 C911 1.367 . S
C910 C918 1.378 . S
C911 C910 1.367 . S
C911 C919 1.433 . S
C912 H908 0.929 . S
C912 C914 1.378 . S
C912 C916 1.350 . S
C913 C916 1.463 . S
C913 C918 1.350 . S
C913 N921 1.427 . S
C914 H905 0.930 . S
C914 C912 1.378 . S
C914 C915 1.367 1_545 S
C915 C914 1.367 1_565 S
C915 C917 1.433 1_565 S
C916 C912 1.350 . S
C916 C913 1.463 . S
C916 N920 1.427 . S
C917 H907 0.929 1_545 S
C917 C915 1.433 1_545 S
C917 N920 1.384 . S
C918 H909 0.929 . S
C918 C910 1.378 . S
C918 C913 1.350 . S
C919 H906 0.929 . S
C919 C911 1.433 . S
C919 N921 1.384 . S
N920 C916 1.427 . S
N920 C917 1.384 . S
N921 C913 1.427 . S
N921 C919 1.384 . S
H922 C928 0.930 1_455 S
H923 C932 0.930 . S
H924 C937 0.929 . S
H925 C935 0.929 . S
H926 C930 0.929 . S
H927 C936 0.929 . S
C928 H922 0.930 1_655 S
C928 C929 1.367 1_655 S
C928 C936 1.378 . S
C929 C928 1.367 1_455 S
C929 C937 1.433 1_455 S
C930 H926 0.929 . S
C930 C932 1.378 . S
C930 C934 1.350 . S
C931 C934 1.463 . S
C931 C936 1.350 . S
C931 N939 1.427 . S
C932 H923 0.930 . S
C932 C930 1.378 . S
C932 C933 1.367 . S
C933 C932 1.367 . S
C933 C935 1.433 . S
C934 C930 1.350 . S
C934 C931 1.463 . S
C934 N938 1.427 . S
C935 H925 0.929 . S
C935 C933 1.433 . S
C935 N938 1.384 . S
C936 H927 0.929 . S
C936 C928 1.378 . S
C936 C931 1.350 . S
C937 H924 0.929 . S
C937 C929 1.433 1_655 S
C937 N939 1.384 . S
N938 C934 1.427 . S
N938 C935 1.384 . S
N939 C931 1.427 . S
N939 C937 1.384 . S
H940 C946 0.930 . S
H941 C950 0.930 . S
H942 C955 0.929 1_545 S
H943 C953 0.929 . S
H944 C948 0.929 . S
H945 C954 0.929 . S
C946 H940 0.930 . S
C946 C947 1.367 1_565 S
C946 C954 1.378 . S
C947 C946 1.367 1_545 S
C947 C955 1.433 1_545 S
C948 H944 0.929 . S
C948 C950 1.378 . S
C948 C952 1.350 . S
C949 C952 1.463 . S
C949 C954 1.350 . S
C949 N957 1.427 . S
C950 H941 0.930 . S
C950 C948 1.378 . S
C950 C951 1.367 . S
C951 C950 1.367 . S
C951 C953 1.433 . S
C952 C948 1.350 . S
C952 C949 1.463 . S
C952 N956 1.427 . S
C953 H943 0.929 . S
C953 C951 1.433 . S
C953 N956 1.384 . S
C954 H945 0.929 . S
C954 C946 1.378 . S
C954 C949 1.350 . S
C955 H942 0.929 1_565 S
C955 C947 1.433 1_565 S
C955 N957 1.384 . S
N956 C952 1.427 . S
N956 C953 1.384 . S
N957 C949 1.427 . S
N957 C955 1.384 . S
H958 C964 0.930 . S
H959 C968 0.930 . S
H960 C973 0.929 1_655 S
H961 C971 0.929 . S
H962 C966 0.929 . S
H963 C972 0.929 . S
C964 H958 0.930 . S
C964 C965 1.367 1_455 S
C964 C972 1.378 . S
C965 C964 1.367 1_655 S
C965 C973 1.433 1_655 S
C966 H962 0.929 . S
C966 C968 1.378 . S
C966 C970 1.350 . S
C967 C970 1.463 . S
C967 C972 1.350 . S
C967 N975 1.427 . S
C968 H959 0.930 . S
C968 C966 1.378 . S
C968 C969 1.367 . S
C969 C968 1.367 . S
C969 C971 1.433 . S
C970 C966 1.350 . S
C970 C967 1.463 . S
C970 N974 1.427 . S
C971 H961 0.929 . S
C971 C969 1.433 . S
C971 N974 1.384 . S
C972 H963 0.929 . S
C972 C964 1.378 . S
C972 C967 1.350 . S
C973 H960 0.929 1_455 S
C973 C965 1.433 1_455 S
C973 N975 1.384 . S
N974 C970 1.427 . S
N974 C971 1.384 . S
N975 C967 1.427 . S
N975 C973 1.384 . S
H976 C982 0.930 . S
H977 C986 0.930 . S
H978 C991 0.929 . S
H979 C989 0.929 . S
H980 C984 0.929 . S
H981 C990 0.929 . S
C982 H976 0.930 . S
C982 C983 1.367 . S
C982 C990 1.378 . S
C983 C982 1.367 . S
C983 C991 1.433 . S
C984 H980 0.929 . S
C984 C986 1.378 . S
C984 C988 1.350 . S
C985 C988 1.463 . S
C985 C990 1.350 . S
C985 N993 1.427 . S
C986 H977 0.930 . S
C986 C984 1.378 . S
C986 C987 1.367 . S
C987 C986 1.367 . S
C987 C989 1.433 . S
C988 C984 1.350 . S
C988 C985 1.463 . S
C988 N992 1.427 . S
C989 H979 0.929 . S
C989 C987 1.433 . S
C989 N992 1.384 . S
C990 H981 0.929 . S
C990 C982 1.378 . S
C990 C985 1.350 . S
C991 H978 0.929 . S
C991 C983 1.433 . S
C991 N993 1.384 . S
N992 C988 1.427 . S
N992 C989 1.384 . S
N993 C985 1.427 . S
N993 C991 1.384 . S
H994 C1000 0.930 . S
H995 C1004 0.930 . S
H996 C1009 0.929 . S
H997 C1007 0.929 . S
H998 C1002 0.929 . S
H999 C1008 0.929 . S
C1000 H994 0.930 . S
C1000 C1001 1.367 . S
C1000 C1008 1.378 . S
C1001 C1000 1.367 . S
C1001 C1009 1.433 . S
C1002 H998 0.929 . S
C1002 C1004 1.378 . S
C1002 C1006 1.350 . S
C1003 C1006 1.463 . S
C1003 C1008 1.350 . S
C1003 N1011 1.427 . S
C1004 H995 0.930 . S
C1004 C1002 1.378 . S
C1004 C1005 1.367 . S
C1005 C1004 1.367 . S
C1005 C1007 1.433 . S
C1006 C1002 1.350 . S
C1006 C1003 1.463 . S
C1006 N1010 1.427 . S
C1007 H997 0.929 . S
C1007 C1005 1.433 . S
C1007 N1010 1.384 . S
C1008 H999 0.929 . S
C1008 C1000 1.378 . S
C1008 C1003 1.350 . S
C1009 H996 0.929 . S
C1009 C1001 1.433 . S
C1009 N1011 1.384 . S
N1010 C1006 1.427 . S
N1010 C1007 1.384 . S
N1011 C1003 1.427 . S
N1011 C1009 1.384 . S
H1012 C1018 0.930 . S
H1013 C1022 0.930 . S
H1014 C1027 0.929 . S
H1015 C1025 0.929 . S
H1016 C1020 0.929 . S
H1017 C1026 0.929 . S
C1018 H1012 0.930 . S
C1018 C1019 1.367 . S
C1018 C1026 1.378 . S
C1019 C1018 1.367 . S
C1019 C1027 1.433 . S
C1020 H1016 0.929 . S
C1020 C1022 1.378 . S
C1020 C1024 1.350 . S
C1021 C1024 1.463 . S
C1021 C1026 1.350 . S
C1021 N1029 1.427 . S
C1022 H1013 0.930 . S
C1022 C1020 1.378 . S
C1022 C1023 1.367 . S
C1023 C1022 1.367 . S
C1023 C1025 1.433 . S
C1024 C1020 1.350 . S
C1024 C1021 1.463 . S
C1024 N1028 1.427 . S
C1025 H1015 0.929 . S
C1025 C1023 1.433 . S
C1025 N1028 1.384 . S
C1026 H1017 0.929 . S
C1026 C1018 1.378 . S
C1026 C1021 1.350 . S
C1027 H1014 0.929 . S
C1027 C1019 1.433 . S
C1027 N1029 1.384 . S
N1028 C1024 1.427 . S
N1028 C1025 1.384 . S
N1029 C1021 1.427 . S
N1029 C1027 1.384 . S
H1030 C1036 0.930 . S
H1031 C1040 0.930 . S
H1032 C1045 0.929 . S
H1033 C1043 0.929 . S
H1034 C1038 0.929 . S
H1035 C1044 0.929 . S
C1036 H1030 0.930 . S
C1036 C1037 1.367 . S
C1036 C1044 1.378 . S
C1037 C1036 1.367 . S
C1037 C1045 1.433 . S
C1038 H1034 0.929 . S
C1038 C1040 1.378 . S
C1038 C1042 1.350 . S
C1039 C1042 1.463 . S
C1039 C1044 1.350 . S
C1039 N1047 1.427 . S
C1040 H1031 0.930 . S
C1040 C1038 1.378 . S
C1040 C1041 1.367 . S
C1041 C1040 1.367 . S
C1041 C1043 1.433 . S
C1042 C1038 1.350 . S
C1042 C1039 1.463 . S
C1042 N1046 1.427 . S
C1043 H1033 0.929 . S
C1043 C1041 1.433 . S
C1043 N1046 1.384 . S
C1044 H1035 0.929 . S
C1044 C1036 1.378 . S
C1044 C1039 1.350 . S
C1045 H1032 0.929 . S
C1045 C1037 1.433 . S
C1045 N1047 1.384 . S
N1046 C1042 1.427 . S
N1046 C1043 1.384 . S
N1047 C1039 1.427 . S
N1047 C1045 1.384 . S
H1048 C1054 0.930 . S
H1049 C1058 0.930 . S
H1050 C1063 0.929 . S
H1051 C1061 0.929 . S
H1052 C1056 0.929 . S
H1053 C1062 0.929 . S
C1054 H1048 0.930 . S
C1054 C1055 1.367 . S
C1054 C1062 1.378 . S
C1055 C1054 1.367 . S
C1055 C1063 1.433 . S
C1056 H1052 0.929 . S
C1056 C1058 1.378 . S
C1056 C1060 1.350 . S
C1057 C1060 1.463 . S
C1057 C1062 1.350 . S
C1057 N1065 1.427 . S
C1058 H1049 0.930 . S
C1058 C1056 1.378 . S
C1058 C1059 1.367 . S
C1059 C1058 1.367 . S
C1059 C1061 1.433 . S
C1060 C1056 1.350 . S
C1060 C1057 1.463 . S
C1060 N1064 1.427 . S
C1061 H1051 0.929 . S
C1061 C1059 1.433 . S
C1061 N1064 1.384 . S
C1062 H1053 0.929 . S
C1062 C1054 1.378 . S
C1062 C1057 1.350 . S
C1063 H1050 0.929 . S
C1063 C1055 1.433 . S
C1063 N1065 1.384 . S
N1064 C1060 1.427 . S
N1064 C1061 1.384 . S
N1065 C1057 1.427 . S
N1065 C1063 1.384 . S
H1066 C1072 0.930 . S
H1067 C1076 0.930 . S
H1068 C1081 0.929 . S
H1069 C1079 0.929 . S
H1070 C1074 0.929 . S
H1071 C1080 0.929 . S
C1072 H1066 0.930 . S
C1072 C1073 1.367 . S
C1072 C1080 1.378 . S
C1073 C1072 1.367 . S
C1073 C1081 1.433 . S
C1074 H1070 0.929 . S
C1074 C1076 1.378 . S
C1074 C1078 1.350 . S
C1075 C1078 1.463 . S
C1075 C1080 1.350 . S
C1075 N1083 1.427 . S
C1076 H1067 0.930 . S
C1076 C1074 1.378 . S
C1076 C1077 1.367 . S
C1077 C1076 1.367 . S
C1077 C1079 1.433 . S
C1078 C1074 1.350 . S
C1078 C1075 1.463 . S
C1078 N1082 1.427 . S
C1079 H1069 0.929 . S
C1079 C1077 1.433 . S
C1079 N1082 1.384 . S
C1080 H1071 0.929 . S
C1080 C1072 1.378 . S
C1080 C1075 1.350 . S
C1081 H1068 0.929 . S
C1081 C1073 1.433 . S
C1081 N1083 1.384 . S
N1082 C1078 1.427 . S
N1082 C1079 1.384 . S
N1083 C1075 1.427 . S
N1083 C1081 1.384 . S
H1084 C1090 0.930 . S
H1085 C1094 0.930 . S
H1086 C1099 0.929 . S
H1087 C1097 0.929 . S
H1088 C1092 0.929 . S
H1089 C1098 0.929 . S
C1090 H1084 0.930 . S
C1090 C1091 1.367 . S
C1090 C1098 1.378 . S
C1091 C1090 1.367 . S
C1091 C1099 1.433 . S
C1092 H1088 0.929 . S
C1092 C1094 1.378 . S
C1092 C1096 1.350 . S
C1093 C1096 1.463 . S
C1093 C1098 1.350 . S
C1093 N1101 1.427 . S
C1094 H1085 0.930 . S
C1094 C1092 1.378 . S
C1094 C1095 1.367 . S
C1095 C1094 1.367 . S
C1095 C1097 1.433 . S
C1096 C1092 1.350 . S
C1096 C1093 1.463 . S
C1096 N1100 1.427 . S
C1097 H1087 0.929 . S
C1097 C1095 1.433 . S
C1097 N1100 1.384 . S
C1098 H1089 0.929 . S
C1098 C1090 1.378 . S
C1098 C1093 1.350 . S
C1099 H1086 0.929 . S
C1099 C1091 1.433 . S
C1099 N1101 1.384 . S
N1100 C1096 1.427 . S
N1100 C1097 1.384 . S
N1101 C1093 1.427 . S
N1101 C1099 1.384 . S
H1102 C1108 0.930 . S
H1103 C1112 0.930 . S
H1104 C1117 0.929 . S
H1105 C1115 0.929 . S
H1106 C1110 0.929 . S
H1107 C1116 0.929 . S
C1108 H1102 0.930 . S
C1108 C1109 1.367 . S
C1108 C1116 1.378 . S
C1109 C1108 1.367 . S
C1109 C1117 1.433 . S
C1110 H1106 0.929 . S
C1110 C1112 1.378 . S
C1110 C1114 1.350 . S
C1111 C1114 1.463 . S
C1111 C1116 1.350 . S
C1111 N1119 1.427 . S
C1112 H1103 0.930 . S
C1112 C1110 1.378 . S
C1112 C1113 1.367 . S
C1113 C1112 1.367 . S
C1113 C1115 1.433 . S
C1114 C1110 1.350 . S
C1114 C1111 1.463 . S
C1114 N1118 1.427 . S
C1115 H1105 0.929 . S
C1115 C1113 1.433 . S
C1115 N1118 1.384 . S
C1116 H1107 0.929 . S
C1116 C1108 1.378 . S
C1116 C1111 1.350 . S
C1117 H1104 0.929 . S
C1117 C1109 1.433 . S
C1117 N1119 1.384 . S
N1118 C1114 1.427 . S
N1118 C1115 1.384 . S
N1119 C1111 1.427 . S
N1119 C1117 1.384 . S
H1120 C1126 0.930 . S
H1121 C1130 0.930 . S
H1122 C1135 0.929 . S
H1123 C1133 0.929 . S
H1124 C1128 0.929 . S
H1125 C1134 0.929 . S
C1126 H1120 0.930 . S
C1126 C1127 1.367 . S
C1126 C1134 1.378 . S
C1127 C1126 1.367 . S
C1127 C1135 1.433 . S
C1128 H1124 0.929 . S
C1128 C1130 1.378 . S
C1128 C1132 1.350 . S
C1129 C1132 1.463 . S
C1129 C1134 1.350 . S
C1129 N1137 1.427 . S
C1130 H1121 0.930 . S
C1130 C1128 1.378 . S
C1130 C1131 1.367 . S
C1131 C1130 1.367 . S
C1131 C1133 1.433 . S
C1132 C1128 1.350 . S
C1132 C1129 1.463 . S
C1132 N1136 1.427 . S
C1133 H1123 0.929 . S
C1133 C1131 1.433 . S
C1133 N1136 1.384 . S
C1134 H1125 0.929 . S
C1134 C1126 1.378 . S
C1134 C1129 1.350 . S
C1135 H1122 0.929 . S
C1135 C1127 1.433 . S
C1135 N1137 1.384 . S
N1136 C1132 1.427 . S
N1136 C1133 1.384 . S
N1137 C1129 1.427 . S
N1137 C1135 1.384 . S
H1138 C1144 0.930 . S
H1139 C1148 0.930 . S
H1140 C1153 0.929 . S
H1141 C1151 0.929 . S
H1142 C1146 0.929 . S
H1143 C1152 0.929 . S
C1144 H1138 0.930 . S
C1144 C1145 1.367 . S
C1144 C1152 1.378 . S
C1145 C1144 1.367 . S
C1145 C1153 1.433 . S
C1146 H1142 0.929 . S
C1146 C1148 1.378 . S
C1146 C1150 1.350 . S
C1147 C1150 1.463 . S
C1147 C1152 1.350 . S
C1147 N1155 1.427 . S
C1148 H1139 0.930 . S
C1148 C1146 1.378 . S
C1148 C1149 1.367 . S
C1149 C1148 1.367 . S
C1149 C1151 1.433 . S
C1150 C1146 1.350 . S
C1150 C1147 1.463 . S
C1150 N1154 1.427 . S
C1151 H1141 0.929 . S
C1151 C1149 1.433 . S
C1151 N1154 1.384 . S
C1152 H1143 0.929 . S
C1152 C1144 1.378 . S
C1152 C1147 1.350 . S
C1153 H1140 0.929 . S
C1153 C1145 1.433 . S
C1153 N1155 1.384 . S
N1154 C1150 1.427 . S
N1154 C1151 1.384 . S
N1155 C1147 1.427 . S
N1155 C1153 1.384 . S
H1156 C1162 0.930 . S
H1157 C1166 0.930 . S
H1158 C1171 0.929 . S
H1159 C1169 0.929 . S
H1160 C1164 0.929 . S
H1161 C1170 0.929 . S
C1162 H1156 0.930 . S
C1162 C1163 1.367 . S
C1162 C1170 1.378 . S
C1163 C1162 1.367 . S
C1163 C1171 1.433 . S
C1164 H1160 0.929 . S
C1164 C1166 1.378 . S
C1164 C1168 1.350 . S
C1165 C1168 1.463 . S
C1165 C1170 1.350 . S
C1165 N1173 1.427 . S
C1166 H1157 0.930 . S
C1166 C1164 1.378 . S
C1166 C1167 1.367 . S
C1167 C1166 1.367 . S
C1167 C1169 1.433 . S
C1168 C1164 1.350 . S
C1168 C1165 1.463 . S
C1168 N1172 1.427 . S
C1169 H1159 0.929 . S
C1169 C1167 1.433 . S
C1169 N1172 1.384 . S
C1170 H1161 0.929 . S
C1170 C1162 1.378 . S
C1170 C1165 1.350 . S
C1171 H1158 0.929 . S
C1171 C1163 1.433 . S
C1171 N1173 1.384 . S
N1172 C1168 1.427 . S
N1172 C1169 1.384 . S
N1173 C1165 1.427 . S
N1173 C1171 1.384 . S
H1174 C1180 0.930 . S
H1175 C1184 0.930 . S
H1176 C1189 0.929 . S
H1177 C1187 0.929 . S
H1178 C1182 0.929 . S
H1179 C1188 0.929 . S
C1180 H1174 0.930 . S
C1180 C1181 1.367 . S
C1180 C1188 1.378 . S
C1181 C1180 1.367 . S
C1181 C1189 1.433 . S
C1182 H1178 0.929 . S
C1182 C1184 1.378 . S
C1182 C1186 1.350 . S
C1183 C1186 1.463 . S
C1183 C1188 1.350 . S
C1183 N1191 1.427 . S
C1184 H1175 0.930 . S
C1184 C1182 1.378 . S
C1184 C1185 1.367 . S
C1185 C1184 1.367 . S
C1185 C1187 1.433 . S
C1186 C1182 1.350 . S
C1186 C1183 1.463 . S
C1186 N1190 1.427 . S
C1187 H1177 0.929 . S
C1187 C1185 1.433 . S
C1187 N1190 1.384 . S
C1188 H1179 0.929 . S
C1188 C1180 1.378 . S
C1188 C1183 1.350 . S
C1189 H1176 0.929 . S
C1189 C1181 1.433 . S
C1189 N1191 1.384 . S
N1190 C1186 1.427 . S
N1190 C1187 1.384 . S
N1191 C1183 1.427 . S
N1191 C1189 1.384 . S
H1192 C1198 0.930 . S
H1193 C1202 0.930 . S
H1194 C1207 0.929 . S
H1195 C1205 0.929 . S
H1196 C1200 0.929 . S
H1197 C1206 0.929 . S
C1198 H1192 0.930 . S
C1198 C1199 1.367 . S
C1198 C1206 1.378 . S
C1199 C1198 1.367 . S
C1199 C1207 1.433 . S
C1200 H1196 0.929 . S
C1200 C1202 1.378 . S
C1200 C1204 1.350 . S
C1201 C1204 1.463 . S
C1201 C1206 1.350 . S
C1201 N1209 1.427 . S
C1202 H1193 0.930 . S
C1202 C1200 1.378 . S
C1202 C1203 1.367 . S
C1203 C1202 1.367 . S
C1203 C1205 1.433 . S
C1204 C1200 1.350 . S
C1204 C1201 1.463 . S
C1204 N1208 1.427 . S
C1205 H1195 0.929 . S
C1205 C1203 1.433 . S
C1205 N1208 1.384 . S
C1206 H1197 0.929 . S
C1206 C1198 1.378 . S
C1206 C1201 1.350 . S
C1207 H1194 0.929 . S
C1207 C1199 1.433 . S
C1207 N1209 1.384 . S
N1208 C1204 1.427 . S
N1208 C1205 1.384 . S
N1209 C1201 1.427 . S
N1209 C1207 1.384 . S
H1210 C1216 0.930 . S
H1211 C1220 0.930 . S
H1212 C1225 0.929 . S
H1213 C1223 0.929 . S
H1214 C1218 0.929 . S
H1215 C1224 0.929 . S
C1216 H1210 0.930 . S
C1216 C1217 1.367 . S
C1216 C1224 1.378 . S
C1217 C1216 1.367 . S
C1217 C1225 1.433 . S
C1218 H1214 0.929 . S
C1218 C1220 1.378 . S
C1218 C1222 1.350 . S
C1219 C1222 1.463 . S
C1219 C1224 1.350 . S
C1219 N1227 1.427 . S
C1220 H1211 0.930 . S
C1220 C1218 1.378 . S
C1220 C1221 1.367 . S
C1221 C1220 1.367 . S
C1221 C1223 1.433 . S
C1222 C1218 1.350 . S
C1222 C1219 1.463 . S
C1222 N1226 1.427 . S
C1223 H1213 0.929 . S
C1223 C1221 1.433 . S
C1223 N1226 1.384 . S
C1224 H1215 0.929 . S
C1224 C1216 1.378 . S
C1224 C1219 1.350 . S
C1225 H1212 0.929 . S
C1225 C1217 1.433 . S
C1225 N1227 1.384 . S
N1226 C1222 1.427 . S
N1226 C1223 1.384 . S
N1227 C1219 1.427 . S
N1227 C1225 1.384 . S
H1228 C1234 0.930 . S
H1229 C1238 0.930 . S
H1230 C1243 0.929 . S
H1231 C1241 0.929 . S
H1232 C1236 0.929 . S
H1233 C1242 0.929 . S
C1234 H1228 0.930 . S
C1234 C1235 1.367 . S
C1234 C1242 1.378 . S
C1235 C1234 1.367 . S
C1235 C1243 1.433 . S
C1236 H1232 0.929 . S
C1236 C1238 1.378 . S
C1236 C1240 1.350 . S
C1237 C1240 1.463 . S
C1237 C1242 1.350 . S
C1237 N1245 1.427 . S
C1238 H1229 0.930 . S
C1238 C1236 1.378 . S
C1238 C1239 1.367 . S
C1239 C1238 1.367 . S
C1239 C1241 1.433 . S
C1240 C1236 1.350 . S
C1240 C1237 1.463 . S
C1240 N1244 1.427 . S
C1241 H1231 0.929 . S
C1241 C1239 1.433 . S
C1241 N1244 1.384 . S
C1242 H1233 0.929 . S
C1242 C1234 1.378 . S
C1242 C1237 1.350 . S
C1243 H1230 0.929 . S
C1243 C1235 1.433 . S
C1243 N1245 1.384 . S
N1244 C1240 1.427 . S
N1244 C1241 1.384 . S
N1245 C1237 1.427 . S
N1245 C1243 1.384 . S
H1246 C1252 0.930 . S
H1247 C1256 0.930 . S
H1248 C1261 0.929 . S
H1249 C1259 0.929 . S
H1250 C1254 0.929 . S
H1251 C1260 0.929 . S
C1252 H1246 0.930 . S
C1252 C1253 1.367 . S
C1252 C1260 1.378 . S
C1253 C1252 1.367 . S
C1253 C1261 1.433 . S
C1254 H1250 0.929 . S
C1254 C1256 1.378 . S
C1254 C1258 1.350 . S
C1255 C1258 1.463 . S
C1255 C1260 1.350 . S
C1255 N1263 1.427 . S
C1256 H1247 0.930 . S
C1256 C1254 1.378 . S
C1256 C1257 1.367 . S
C1257 C1256 1.367 . S
C1257 C1259 1.433 . S
C1258 C1254 1.350 . S
C1258 C1255 1.463 . S
C1258 N1262 1.427 . S
C1259 H1249 0.929 . S
C1259 C1257 1.433 . S
C1259 N1262 1.384 . S
C1260 H1251 0.929 . S
C1260 C1252 1.378 . S
C1260 C1255 1.350 . S
C1261 H1248 0.929 . S
C1261 C1253 1.433 . S
C1261 N1263 1.384 . S
N1262 C1258 1.427 . S
N1262 C1259 1.384 . S
N1263 C1255 1.427 . S
N1263 C1261 1.384 . S
H1264 C1270 0.930 . S
H1265 C1274 0.930 . S
H1266 C1279 0.929 . S
H1267 C1277 0.929 . S
H1268 C1272 0.929 . S
H1269 C1278 0.929 . S
C1270 H1264 0.930 . S
C1270 C1271 1.367 . S
C1270 C1278 1.378 . S
C1271 C1270 1.367 . S
C1271 C1279 1.433 . S
C1272 H1268 0.929 . S
C1272 C1274 1.378 . S
C1272 C1276 1.350 . S
C1273 C1276 1.463 . S
C1273 C1278 1.350 . S
C1273 N1281 1.427 . S
C1274 H1265 0.930 . S
C1274 C1272 1.378 . S
C1274 C1275 1.367 . S
C1275 C1274 1.367 . S
C1275 C1277 1.433 . S
C1276 C1272 1.350 . S
C1276 C1273 1.463 . S
C1276 N1280 1.427 . S
C1277 H1267 0.929 . S
C1277 C1275 1.433 . S
C1277 N1280 1.384 . S
C1278 H1269 0.929 . S
C1278 C1270 1.378 . S
C1278 C1273 1.350 . S
C1279 H1266 0.929 . S
C1279 C1271 1.433 . S
C1279 N1281 1.384 . S
N1280 C1276 1.427 . S
N1280 C1277 1.384 . S
N1281 C1273 1.427 . S
N1281 C1279 1.384 . S
H1282 C1288 0.930 . S
H1283 C1292 0.930 . S
H1284 C1297 0.929 . S
H1285 C1295 0.929 . S
H1286 C1290 0.929 . S
H1287 C1296 0.929 . S
C1288 H1282 0.930 . S
C1288 C1289 1.367 . S
C1288 C1296 1.378 . S
C1289 C1288 1.367 . S
C1289 C1297 1.433 . S
C1290 H1286 0.929 . S
C1290 C1292 1.378 . S
C1290 C1294 1.350 . S
C1291 C1294 1.463 . S
C1291 C1296 1.350 . S
C1291 N1299 1.427 . S
C1292 H1283 0.930 . S
C1292 C1290 1.378 . S
C1292 C1293 1.367 . S
C1293 C1292 1.367 . S
C1293 C1295 1.433 . S
C1294 C1290 1.350 . S
C1294 C1291 1.463 . S
C1294 N1298 1.427 . S
C1295 H1285 0.929 . S
C1295 C1293 1.433 . S
C1295 N1298 1.384 . S
C1296 H1287 0.929 . S
C1296 C1288 1.378 . S
C1296 C1291 1.350 . S
C1297 H1284 0.929 . S
C1297 C1289 1.433 . S
C1297 N1299 1.384 . S
N1298 C1294 1.427 . S
N1298 C1295 1.384 . S
N1299 C1291 1.427 . S
N1299 C1297 1.384 . S
H1300 C1306 0.930 . S
H1301 C1310 0.930 . S
H1302 C1315 0.929 . S
H1303 C1313 0.929 . S
H1304 C1308 0.929 . S
H1305 C1314 0.929 . S
C1306 H1300 0.930 . S
C1306 C1307 1.367 . S
C1306 C1314 1.378 . S
C1307 C1306 1.367 . S
C1307 C1315 1.433 . S
C1308 H1304 0.929 . S
C1308 C1310 1.378 . S
C1308 C1312 1.350 . S
C1309 C1312 1.463 . S
C1309 C1314 1.350 . S
C1309 N1317 1.427 . S
C1310 H1301 0.930 . S
C1310 C1308 1.378 . S
C1310 C1311 1.367 . S
C1311 C1310 1.367 . S
C1311 C1313 1.433 . S
C1312 C1308 1.350 . S
C1312 C1309 1.463 . S
C1312 N1316 1.427 . S
C1313 H1303 0.929 . S
C1313 C1311 1.433 . S
C1313 N1316 1.384 . S
C1314 H1305 0.929 . S
C1314 C1306 1.378 . S
C1314 C1309 1.350 . S
C1315 H1302 0.929 . S
C1315 C1307 1.433 . S
C1315 N1317 1.384 . S
N1316 C1312 1.427 . S
N1316 C1313 1.384 . S
N1317 C1309 1.427 . S
N1317 C1315 1.384 . S
H1318 C1324 0.930 . S
H1319 C1328 0.930 . S
H1320 C1333 0.929 . S
H1321 C1331 0.929 . S
H1322 C1326 0.929 . S
H1323 C1332 0.929 . S
C1324 H1318 0.930 . S
C1324 C1325 1.367 . S
C1324 C1332 1.378 . S
C1325 C1324 1.367 . S
C1325 C1333 1.433 . S
C1326 H1322 0.929 . S
C1326 C1328 1.378 . S
C1326 C1330 1.350 . S
C1327 C1330 1.463 . S
C1327 C1332 1.350 . S
C1327 N1335 1.427 . S
C1328 H1319 0.930 . S
C1328 C1326 1.378 . S
C1328 C1329 1.367 . S
C1329 C1328 1.367 . S
C1329 C1331 1.433 . S
C1330 C1326 1.350 . S
C1330 C1327 1.463 . S
C1330 N1334 1.427 . S
C1331 H1321 0.929 . S
C1331 C1329 1.433 . S
C1331 N1334 1.384 . S
C1332 H1323 0.929 . S
C1332 C1324 1.378 . S
C1332 C1327 1.350 . S
C1333 H1320 0.929 . S
C1333 C1325 1.433 . S
C1333 N1335 1.384 . S
N1334 C1330 1.427 . S
N1334 C1331 1.384 . S
N1335 C1327 1.427 . S
N1335 C1333 1.384 . S
H1336 C1342 0.930 . S
H1337 C1346 0.930 . S
H1338 C1351 0.929 . S
H1339 C1349 0.929 . S
H1340 C1344 0.929 . S
H1341 C1350 0.929 . S
C1342 H1336 0.930 . S
C1342 C1343 1.367 . S
C1342 C1350 1.378 . S
C1343 C1342 1.367 . S
C1343 C1351 1.433 . S
C1344 H1340 0.929 . S
C1344 C1346 1.378 . S
C1344 C1348 1.350 . S
C1345 C1348 1.463 . S
C1345 C1350 1.350 . S
C1345 N1353 1.427 . S
C1346 H1337 0.930 . S
C1346 C1344 1.378 . S
C1346 C1347 1.367 . S
C1347 C1346 1.367 . S
C1347 C1349 1.433 . S
C1348 C1344 1.350 . S
C1348 C1345 1.463 . S
C1348 N1352 1.427 . S
C1349 H1339 0.929 . S
C1349 C1347 1.433 . S
C1349 N1352 1.384 . S
C1350 H1341 0.929 . S
C1350 C1342 1.378 . S
C1350 C1345 1.350 . S
C1351 H1338 0.929 . S
C1351 C1343 1.433 . S
C1351 N1353 1.384 . S
N1352 C1348 1.427 . S
N1352 C1349 1.384 . S
N1353 C1345 1.427 . S
N1353 C1351 1.384 . S
H1354 C1360 0.930 . S
H1355 C1364 0.930 . S
H1356 C1369 0.929 . S
H1357 C1367 0.929 . S
H1358 C1362 0.929 . S
H1359 C1368 0.929 . S
C1360 H1354 0.930 . S
C1360 C1361 1.367 . S
C1360 C1368 1.378 . S
C1361 C1360 1.367 . S
C1361 C1369 1.433 . S
C1362 H1358 0.929 . S
C1362 C1364 1.378 . S
C1362 C1366 1.350 . S
C1363 C1366 1.463 . S
C1363 C1368 1.350 . S
C1363 N1371 1.427 . S
C1364 H1355 0.930 . S
C1364 C1362 1.378 . S
C1364 C1365 1.367 . S
C1365 C1364 1.367 . S
C1365 C1367 1.433 . S
C1366 C1362 1.350 . S
C1366 C1363 1.463 . S
C1366 N1370 1.427 . S
C1367 H1357 0.929 . S
C1367 C1365 1.433 . S
C1367 N1370 1.384 . S
C1368 H1359 0.929 . S
C1368 C1360 1.378 . S
C1368 C1363 1.350 . S
C1369 H1356 0.929 . S
C1369 C1361 1.433 . S
C1369 N1371 1.384 . S
N1370 C1366 1.427 . S
N1370 C1367 1.384 . S
N1371 C1363 1.427 . S
N1371 C1369 1.384 . S
H1372 C1378 0.930 . S
H1373 C1382 0.930 . S
H1374 C1387 0.929 . S
H1375 C1385 0.929 . S
H1376 C1380 0.929 . S
H1377 C1386 0.929 . S
C1378 H1372 0.930 . S
C1378 C1379 1.367 . S
C1378 C1386 1.378 . S
C1379 C1378 1.367 . S
C1379 C1387 1.433 . S
C1380 H1376 0.929 . S
C1380 C1382 1.378 . S
C1380 C1384 1.350 . S
C1381 C1384 1.463 . S
C1381 C1386 1.350 . S
C1381 N1389 1.427 . S
C1382 H1373 0.930 . S
C1382 C1380 1.378 . S
C1382 C1383 1.367 . S
C1383 C1382 1.367 . S
C1383 C1385 1.433 . S
C1384 C1380 1.350 . S
C1384 C1381 1.463 . S
C1384 N1388 1.427 . S
C1385 H1375 0.929 . S
C1385 C1383 1.433 . S
C1385 N1388 1.384 . S
C1386 H1377 0.929 . S
C1386 C1378 1.378 . S
C1386 C1381 1.350 . S
C1387 H1374 0.929 . S
C1387 C1379 1.433 . S
C1387 N1389 1.384 . S
N1388 C1384 1.427 . S
N1388 C1385 1.384 . S
N1389 C1381 1.427 . S
N1389 C1387 1.384 . S
H1390 C1396 0.930 . S
H1391 C1400 0.930 . S
H1392 C1405 0.929 . S
H1393 C1403 0.929 . S
H1394 C1398 0.929 . S
H1395 C1404 0.929 . S
C1396 H1390 0.930 . S
C1396 C1397 1.367 . S
C1396 C1404 1.378 . S
C1397 C1396 1.367 . S
C1397 C1405 1.433 . S
C1398 H1394 0.929 . S
C1398 C1400 1.378 . S
C1398 C1402 1.350 . S
C1399 C1402 1.463 . S
C1399 C1404 1.350 . S
C1399 N1407 1.427 . S
C1400 H1391 0.930 . S
C1400 C1398 1.378 . S
C1400 C1401 1.367 . S
C1401 C1400 1.367 . S
C1401 C1403 1.433 . S
C1402 C1398 1.350 . S
C1402 C1399 1.463 . S
C1402 N1406 1.427 . S
C1403 H1393 0.929 . S
C1403 C1401 1.433 . S
C1403 N1406 1.384 . S
C1404 H1395 0.929 . S
C1404 C1396 1.378 . S
C1404 C1399 1.350 . S
C1405 H1392 0.929 . S
C1405 C1397 1.433 . S
C1405 N1407 1.384 . S
N1406 C1402 1.427 . S
N1406 C1403 1.384 . S
N1407 C1399 1.427 . S
N1407 C1405 1.384 . S
H1408 C1414 0.930 . S
H1409 C1418 0.930 . S
H1410 C1423 0.929 . S
H1411 C1421 0.929 . S
H1412 C1416 0.929 . S
H1413 C1422 0.929 . S
C1414 H1408 0.930 . S
C1414 C1415 1.367 . S
C1414 C1422 1.378 . S
C1415 C1414 1.367 . S
C1415 C1423 1.433 . S
C1416 H1412 0.929 . S
C1416 C1418 1.378 . S
C1416 C1420 1.350 . S
C1417 C1420 1.463 1_455 S
C1417 C1422 1.350 . S
C1417 N1425 1.427 1_455 S
C1418 H1409 0.930 . S
C1418 C1416 1.378 . S
C1418 C1419 1.367 . S
C1419 C1418 1.367 . S
C1419 C1421 1.433 . S
C1420 C1416 1.350 . S
C1420 C1417 1.463 1_655 S
C1420 N1424 1.427 1_655 S
C1421 H1411 0.929 . S
C1421 C1419 1.433 . S
C1421 N1424 1.384 1_655 S
C1422 H1413 0.929 . S
C1422 C1414 1.378 . S
C1422 C1417 1.350 . S
C1423 H1410 0.929 . S
C1423 C1415 1.433 . S
C1423 N1425 1.384 1_455 S
N1424 C1420 1.427 1_455 S
N1424 C1421 1.384 1_455 S
N1425 C1417 1.427 1_655 S
N1425 C1423 1.384 1_655 S
H1426 C1432 0.930 . S
H1427 C1436 0.930 . S
H1428 C1441 0.929 1_545 S
H1429 C1439 0.929 1_565 S
H1430 C1434 0.929 . S
H1431 C1440 0.929 . S
C1432 H1426 0.930 . S
C1432 C1433 1.367 . S
C1432 C1440 1.378 . S
C1433 C1432 1.367 . S
C1433 C1441 1.433 . S
C1434 H1430 0.929 . S
C1434 C1436 1.378 . S
C1434 C1438 1.350 . S
C1435 C1438 1.463 1_565 S
C1435 C1440 1.350 . S
C1435 N1443 1.427 1_565 S
C1436 H1427 0.930 . S
C1436 C1434 1.378 . S
C1436 C1437 1.367 . S
C1437 C1436 1.367 . S
C1437 C1439 1.433 . S
C1438 C1434 1.350 . S
C1438 C1435 1.463 1_545 S
C1438 N1442 1.427 1_545 S
C1439 H1429 0.929 1_545 S
C1439 C1437 1.433 . S
C1439 N1442 1.384 1_545 S
C1440 H1431 0.929 . S
C1440 C1432 1.378 . S
C1440 C1435 1.350 . S
C1441 H1428 0.929 1_565 S
C1441 C1433 1.433 . S
C1441 N1443 1.384 1_565 S
N1442 C1438 1.427 1_565 S
N1442 C1439 1.384 1_565 S
N1443 C1435 1.427 1_545 S
N1443 C1441 1.384 1_545 S
H1444 C1450 0.930 . S
H1445 C1454 0.930 . S
H1446 C1459 0.929 . S
H1447 C1457 0.929 . S
H1448 C1452 0.929 . S
H1449 C1458 0.929 . S
C1450 H1444 0.930 . S
C1450 C1451 1.367 . S
C1450 C1458 1.378 . S
C1451 C1450 1.367 . S
C1451 C1459 1.433 . S
C1452 H1448 0.929 . S
C1452 C1454 1.378 . S
C1452 C1456 1.350 . S
C1453 C1456 1.463 1_455 S
C1453 C1458 1.350 . S
C1453 N1461 1.427 . S
C1454 H1445 0.930 . S
C1454 C1452 1.378 . S
C1454 C1455 1.367 . S
C1455 C1454 1.367 . S
C1455 C1457 1.433 . S
C1456 C1452 1.350 . S
C1456 C1453 1.463 1_655 S
C1456 N1460 1.427 . S
C1457 H1447 0.929 . S
C1457 C1455 1.433 . S
C1457 N1460 1.384 . S
C1458 H1449 0.929 . S
C1458 C1450 1.378 . S
C1458 C1453 1.350 . S
C1459 H1446 0.929 . S
C1459 C1451 1.433 . S
C1459 N1461 1.384 . S
N1460 C1456 1.427 . S
N1460 C1457 1.384 . S
N1461 C1453 1.427 . S
N1461 C1459 1.384 . S
H1462 C1468 0.930 . S
H1463 C1472 0.930 . S
H1464 C1477 0.929 . S
H1465 C1475 0.929 . S
H1466 C1470 0.929 . S
H1467 C1476 0.929 . S
C1468 H1462 0.930 . S
C1468 C1469 1.367 . S
C1468 C1476 1.378 . S
C1469 C1468 1.367 . S
C1469 C1477 1.433 . S
C1470 H1466 0.929 . S
C1470 C1472 1.378 . S
C1470 C1474 1.350 . S
C1471 C1474 1.463 1_565 S
C1471 C1476 1.350 . S
C1471 N1479 1.427 1_565 S
C1472 H1463 0.930 . S
C1472 C1470 1.378 . S
C1472 C1473 1.367 . S
C1473 C1472 1.367 . S
C1473 C1475 1.433 . S
C1474 C1470 1.350 . S
C1474 C1471 1.463 1_545 S
C1474 N1478 1.427 1_545 S
C1475 H1465 0.929 . S
C1475 C1473 1.433 . S
C1475 N1478 1.384 1_545 S
C1476 H1467 0.929 . S
C1476 C1468 1.378 . S
C1476 C1471 1.350 . S
C1477 H1464 0.929 . S
C1477 C1469 1.433 . S
C1477 N1479 1.384 1_565 S
N1478 C1474 1.427 1_565 S
N1478 C1475 1.384 1_565 S
N1479 C1471 1.427 1_545 S
N1479 C1477 1.384 1_545 S
H1480 C1486 0.930 . S
H1481 C1490 0.930 . S
H1482 C1495 0.929 . S
H1483 C1493 0.929 . S
H1484 C1488 0.929 . S
H1485 C1494 0.929 . S
C1486 H1480 0.930 . S
C1486 C1487 1.367 . S
C1486 C1494 1.378 . S
C1487 C1486 1.367 . S
C1487 C1495 1.433 . S
C1488 H1484 0.929 . S
C1488 C1490 1.378 . S
C1488 C1492 1.350 . S
C1489 C1492 1.463 1_455 S
C1489 C1494 1.350 . S
C1489 N1497 1.427 . S
C1490 H1481 0.930 . S
C1490 C1488 1.378 . S
C1490 C1491 1.367 . S
C1491 C1490 1.367 . S
C1491 C1493 1.433 . S
C1492 C1488 1.350 . S
C1492 C1489 1.463 1_655 S
C1492 N1496 1.427 . S
C1493 H1483 0.929 . S
C1493 C1491 1.433 . S
C1493 N1496 1.384 . S
C1494 H1485 0.929 . S
C1494 C1486 1.378 . S
C1494 C1489 1.350 . S
C1495 H1482 0.929 . S
C1495 C1487 1.433 . S
C1495 N1497 1.384 . S
N1496 C1492 1.427 . S
N1496 C1493 1.384 . S
N1497 C1489 1.427 . S
N1497 C1495 1.384 . S
H1498 C1504 0.930 . S
H1499 C1508 0.930 . S
H1500 C1513 0.929 . S
H1501 C1511 0.929 . S
H1502 C1506 0.929 . S
H1503 C1512 0.929 . S
C1504 H1498 0.930 . S
C1504 C1505 1.367 . S
C1504 C1512 1.378 . S
C1505 C1504 1.367 . S
C1505 C1513 1.433 . S
C1506 H1502 0.929 . S
C1506 C1508 1.378 . S
C1506 C1510 1.350 . S
C1507 C1510 1.463 1_545 S
C1507 C1512 1.350 . S
C1507 N1515 1.427 . S
C1508 H1499 0.930 . S
C1508 C1506 1.378 . S
C1508 C1509 1.367 . S
C1509 C1508 1.367 . S
C1509 C1511 1.433 . S
C1510 C1506 1.350 . S
C1510 C1507 1.463 1_565 S
C1510 N1514 1.427 . S
C1511 H1501 0.929 . S
C1511 C1509 1.433 . S
C1511 N1514 1.384 . S
C1512 H1503 0.929 . S
C1512 C1504 1.378 . S
C1512 C1507 1.350 . S
C1513 H1500 0.929 . S
C1513 C1505 1.433 . S
C1513 N1515 1.384 . S
N1514 C1510 1.427 . S
N1514 C1511 1.384 . S
N1515 C1507 1.427 . S
N1515 C1513 1.384 . S
H1516 C1522 0.930 . S
H1517 C1526 0.930 . S
H1518 C1531 0.929 . S
H1519 C1529 0.929 . S
H1520 C1524 0.929 . S
H1521 C1530 0.929 . S
C1522 H1516 0.930 . S
C1522 C1523 1.367 . S
C1522 C1530 1.378 . S
C1523 C1522 1.367 . S
C1523 C1531 1.433 . S
C1524 H1520 0.929 . S
C1524 C1526 1.378 . S
C1524 C1528 1.350 . S
C1525 C1528 1.463 1_455 S
C1525 C1530 1.350 . S
C1525 N1533 1.427 . S
C1526 H1517 0.930 . S
C1526 C1524 1.378 . S
C1526 C1527 1.367 . S
C1527 C1526 1.367 . S
C1527 C1529 1.433 . S
C1528 C1524 1.350 . S
C1528 C1525 1.463 1_655 S
C1528 N1532 1.427 . S
C1529 H1519 0.929 . S
C1529 C1527 1.433 . S
C1529 N1532 1.384 . S
C1530 H1521 0.929 . S
C1530 C1522 1.378 . S
C1530 C1525 1.350 . S
C1531 H1518 0.929 . S
C1531 C1523 1.433 . S
C1531 N1533 1.384 . S
N1532 C1528 1.427 . S
N1532 C1529 1.384 . S
N1533 C1525 1.427 . S
N1533 C1531 1.384 . S
H1534 C1540 0.930 . S
H1535 C1544 0.930 . S
H1536 C1549 0.929 . S
H1537 C1547 0.929 . S
H1538 C1542 0.929 . S
H1539 C1548 0.929 . S
C1540 H1534 0.930 . S
C1540 C1541 1.367 . S
C1540 C1548 1.378 . S
C1541 C1540 1.367 . S
C1541 C1549 1.433 . S
C1542 H1538 0.929 . S
C1542 C1544 1.378 . S
C1542 C1546 1.350 . S
C1543 C1546 1.463 1_565 S
C1543 C1548 1.350 . S
C1543 N1551 1.427 . S
C1544 H1535 0.930 . S
C1544 C1542 1.378 . S
C1544 C1545 1.367 . S
C1545 C1544 1.367 . S
C1545 C1547 1.433 . S
C1546 C1542 1.350 . S
C1546 C1543 1.463 1_545 S
C1546 N1550 1.427 . S
C1547 H1537 0.929 . S
C1547 C1545 1.433 . S
C1547 N1550 1.384 . S
C1548 H1539 0.929 . S
C1548 C1540 1.378 . S
C1548 C1543 1.350 . S
C1549 H1536 0.929 . S
C1549 C1541 1.433 . S
C1549 N1551 1.384 . S
N1550 C1546 1.427 . S
N1550 C1547 1.384 . S
N1551 C1543 1.427 . S
N1551 C1549 1.384 . S
C551 C22 1.797 . S
C555 C362 1.794 . S
C569 C56 1.789 . S
C573 C396 1.780 . S
C587 C287 1.793 . S
C591 C83 1.783 . S
C605 C328 1.796 . S
C609 C117 1.796 . S
C623 C158 1.778 . S
C627 C498 1.784 . S
C641 C525 1.778 . S
C645 C185 1.781 . S
C659 C423 1.786 . S
C663 C226 1.795 . S
C677 C260 1.779 . S
C681 C464 1.788 . S
C695 C103 0.891 . S
C699 C28 0.902 . S
C713 C3 0.899 . S
C717 C62 0.918 . S
C731 C74 0.909 . S
C735 C37 0.906 . S
C749 C108 0.919 . S
C753 C69 0.874 . S
C767 C171 0.874 . S
C771 C164 0.922 . S
C785 C176 0.901 . S
C789 C207 0.893 . S
C803 C241 0.877 . S
C807 C232 0.912 . S
C821 C139 0.881 . S
C825 C266 0.925 . S
C839 C289 1.843 . S
C843 C380 1.846 . S
C857 C300 1.847 . S
C861 C323 1.843 . S
C875 C357 1.841 . S
C879 C312 1.846 . S
C893 C346 1.846 . S
C897 C391 1.843 . S
C911 C425 1.843 . S
C915 C448 1.846 . S
C929 C482 1.846 . S
C933 C459 1.841 . S
C947 C538 1.847 . S
C951 C493 1.844 . S
C965 C436 1.847 . S
C969 C527 1.843 . S
C983 C470 0.911 . S
C987 C409 0.878 . S
C1001 C504 0.916 . S
C1005 C445 0.874 . S
C1019 C479 0.887 . S
C1023 C516 0.924 . S
C1037 C511 0.907 . S
C1041 C414 0.904 . S
C1055 C402 0.925 . S
C1059 C273 0.879 . S
C1073 C309 0.906 . S
C1077 C278 0.909 . S
C1091 C343 0.874 . S
C1095 C334 0.921 . S
C1109 C377 0.892 . S
C1113 C368 0.902 . S
C1127 C187 1.841 . S
C1131 C142 1.846 . S
C1145 C198 1.846 . S
C1149 C221 1.843 . S
C1163 C255 1.843 . S
C1167 C210 1.847 . S
C1181 C244 1.847 . S
C1185 C153 1.844 . S
C1199 C119 1.841 . S
C1203 C6 1.846 . S
C1217 C40 1.847 . S
C1221 C17 1.844 . S
C1235 C96 1.846 . S
C1239 C51 1.842 . S
C1253 C130 1.846 . S
C1257 C85 1.842 . S
C1271 C192 1.558 . S
C1275 C15 1.567 . S
C1289 C219 1.562 . S
C1293 C49 1.553 . S
C1307 C253 1.555 . S
C1311 C90 1.568 . S
C1325 C151 1.553 . S
C1329 C124 1.562 . S
C1343 C457 1.558 . S
C1347 C294 1.567 . S
C1361 C321 1.564 . S
C1365 C491 1.563 . S
C1379 C355 1.555 . S
C1383 C532 1.568 . S
C1397 C389 1.554 . S
C1401 C430 1.568 . S
C1415 C1 1.905 . S
C1419 C71 1.912 . S
C1433 C105 1.908 . S
C1437 C35 1.911 . S
C1451 C137 1.912 . S
C1455 C205 1.902 . S
C1469 C239 1.912 . S
C1473 C173 1.906 . S
C1487 C341 1.904 . S
C1491 C275 1.912 . S
C1505 C375 1.903 . S
C1509 C307 1.912 . S
C1523 C477 1.903 . S
C1527 C411 1.912 . S
C1541 C443 1.904 . S
C1545 C513 1.912 . S
