# Generated by pormake.
# Topology sni, (6)-cn, num edge types: 1
# Building blocks:
#     Node 0, Type 0, BuildingBlock: MIDCAF_clean_sbu_0, # of connection points: 6
#     Node 1, Type 0, BuildingBlock: MIDCAF_clean_sbu_0, # of connection points: 6
#     Node 2, Type 0, BuildingBlock: MIDCAF_clean_sbu_0, # of connection points: 6
#     Node 3, Type 0, BuildingBlock: MIDCAF_clean_sbu_0, # of connection points: 6
#     Node 4, Type 0, BuildingBlock: MIDCAF_clean_sbu_0, # of connection points: 6
#     Node 5, Type 0, BuildingBlock: MIDCAF_clean_sbu_0, # of connection points: 6
#     Node 6, Type 0, BuildingBlock: MIDCAF_clean_sbu_0, # of connection points: 6
#     Node 7, Type 0, BuildingBlock: MIDCAF_clean_sbu_0, # of connection points: 6
#     Edge 8, Type (0, 0), BuildingBlock: XUDNAN_clean_linker_2, # of connection points: 2
#     Edge 9, Type (0, 0), BuildingBlock: XUDNAN_clean_linker_2, # of connection points: 2
#     Edge 10, Type (0, 0), BuildingBlock: XUDNAN_clean_linker_2, # of connection points: 2
#     Edge 11, Type (0, 0), BuildingBlock: XUDNAN_clean_linker_2, # of connection points: 2
#     Edge 12, Type (0, 0), BuildingBlock: XUDNAN_clean_linker_2, # of connection points: 2
#     Edge 13, Type (0, 0), BuildingBlock: XUDNAN_clean_linker_2, # of connection points: 2
#     Edge 14, Type (0, 0), BuildingBlock: XUDNAN_clean_linker_2, # of connection points: 2
#     Edge 15, Type (0, 0), BuildingBlock: XUDNAN_clean_linker_2, # of connection points: 2
#     Edge 16, Type (0, 0), BuildingBlock: XUDNAN_clean_linker_2, # of connection points: 2
#     Edge 17, Type (0, 0), BuildingBlock: XUDNAN_clean_linker_2, # of connection points: 2
#     Edge 18, Type (0, 0), BuildingBlock: XUDNAN_clean_linker_2, # of connection points: 2
#     Edge 19, Type (0, 0), BuildingBlock: XUDNAN_clean_linker_2, # of connection points: 2
#     Edge 20, Type (0, 0), BuildingBlock: XUDNAN_clean_linker_2, # of connection points: 2
#     Edge 21, Type (0, 0), BuildingBlock: XUDNAN_clean_linker_2, # of connection points: 2
#     Edge 22, Type (0, 0), BuildingBlock: XUDNAN_clean_linker_2, # of connection points: 2
#     Edge 23, Type (0, 0), BuildingBlock: XUDNAN_clean_linker_2, # of connection points: 2
#     Edge 24, Type (0, 0), BuildingBlock: XUDNAN_clean_linker_2, # of connection points: 2
#     Edge 25, Type (0, 0), BuildingBlock: XUDNAN_clean_linker_2, # of connection points: 2
#     Edge 26, Type (0, 0), BuildingBlock: XUDNAN_clean_linker_2, # of connection points: 2
#     Edge 27, Type (0, 0), BuildingBlock: XUDNAN_clean_linker_2, # of connection points: 2
#     Edge 28, Type (0, 0), BuildingBlock: XUDNAN_clean_linker_2, # of connection points: 2
#     Edge 29, Type (0, 0), BuildingBlock: XUDNAN_clean_linker_2, # of connection points: 2
#     Edge 30, Type (0, 0), BuildingBlock: XUDNAN_clean_linker_2, # of connection points: 2
#     Edge 31, Type (0, 0), BuildingBlock: XUDNAN_clean_linker_2, # of connection points: 2
# Relax obj value: 0.344
# Max RMSD: 0.256
# Mean RMSD: 0.256
data_MOF--net-sni--node1-MIDCAF_clean_sbu_0--edge1-XUDNAN_clean_linker_2
_symmetry_space_group_name_H-M    P1
_symmetry_Int_Tables_number       1
_symmetry_cell_setting            triclinic
loop_
_symmetry_equiv_pos_as_xyz
'x, y, z'
_cell_length_a     42.225243
_cell_length_b     41.731765
_cell_length_c     17.376392
_cell_angle_alpha  90.021329
_cell_angle_beta   90405.0
_cell_angle_gamma 90.20681
loop_
_atom_site_label
_atom_site_type_symbol
_atom_site_fract_x
_atom_site_fract_y
_atom_site_fract_z
_atom_type_partial_charge
Zn0 Zn 0.28047 0.14548 1.22981 0.0
Zn1 Zn 0.57335 0.19073 0.29141 0.0
Zn2 Zn 0.23285 0.15627 1.40644 0.0
C3 C 0.59829 0.12642 0.23979 0.0
C4 C 0.54606 0.18072 0.15907 0.0
O5 O 0.2816 0.19689 1.30517 0.0
O6 O 0.28965 0.18816 1.1677 0.0
C7 C 0.30484 0.10537 1.28575 0.0
O8 O 0.61703 0.13816 0.14751 0.0
O9 O 0.58139 0.14528 0.31836 0.0
O10 O 0.54366 0.18823 0.23435 0.0
O11 O 0.58152 0.16914 0.06634 0.0
O12 O 0.32699 0.12925 1.22472 0.0
O13 O 0.26231 0.10827 1.36261 0.0
O14 O 0.19659 0.15788 1.35993 0.0
O15 O 0.23548 0.11656 1.25483 0.0
C16 C 0.20413 0.13611 1.29625 0.0
O17 O 0.26956 0.19356 1.40339 0.0
O18 O 0.61706 0.20409 0.13728 0.0
C19 C 0.29415 0.20668 1.21677 0.0
C20 C 0.6577 0.20651 0.08528 0.0
Zn21 Zn 0.45875 0.597 1.23581 0.0
Zn22 Zn 0.76869 0.61328 0.19377 0.0
Zn23 Zn 0.82197 0.60789 0.00715 0.0
C24 C 0.84599 0.61872 0.13816 0.0
C25 C 0.74585 0.55573 0.18868 0.0
O26 O 0.38715 0.63513 1.35127 0.0
O27 O 0.42361 0.6065 1.20316 0.0
C28 C 0.50909 0.63128 1.24626 0.0
O29 O 0.85863 0.62513 0.04731 0.0
O30 O 0.80755 0.60729 0.21605 0.0
O31 O 0.7245 0.57844 0.2556 0.0
O32 O 0.78527 0.56105 0.09247 0.0
O33 O 0.50903 0.62566 1.17509 0.0
O34 O 0.47395 0.62426 1.34685 0.0
O35 O 0.40841 0.55334 1.39871 0.0
O36 O 0.47379 0.55246 1.22813 0.0
C37 C 0.44208 0.53756 1.31425 0.0
O38 O 0.77194 0.64392 0.05247 0.0
O39 O 0.74939 0.6576 0.20711 0.0
C40 C 0.39675 0.62887 1.26405 0.0
C41 C 0.74968 0.66274 0.13523 0.0
Zn42 Zn 0.27792 0.87572 0.18705 0.0
Zn43 Zn 0.01631 0.8063 1.15138 0.0
Zn44 Zn 0.33939 0.85563 0.00811 0.0
C45 C 0.00192 0.81282 1.33416 0.0
C46 C -0.00545 0.88175 1.17672 0.0
O47 O 0.27744 0.8314 0.07195 0.0
O48 O 0.22716 0.85033 0.23876 0.0
C49 C 0.33213 0.84943 0.20383 0.0
O50 O -0.02342 0.83437 1.40624 0.0
O51 O -0.01449 0.79696 1.30695 0.0
O52 O 0.01312 0.85479 1.13023 0.0
O53 O -0.03683 0.88524 1.28128 0.0
O54 O 0.2976 0.86662 0.25911 0.0
O55 O 0.35335 0.84213 0.1054 0.0
O56 O -0.0714 0.90672 1.39454 0.0
O57 O 0.28069 0.91997 0.14725 0.0
C58 C 0.31485 0.92891 0.05164 0.0
O59 O -0.10101 0.8229 1.37096 0.0
O60 O -0.04474 0.79196 1.29743 0.0
C61 C 0.23696 0.83213 0.16671 0.0
C62 C -0.07567 0.80011 1.30488 0.0
Zn63 Zn 0.03752 0.32555 0.36161 0.0
Zn64 Zn -0.24891 0.35771 1.2691 0.0
Zn65 Zn 0.12945 0.34814 0.03332 0.0
C66 C -0.24022 0.41231 1.3392 0.0
C67 C -0.33072 0.34018 1.35931 0.0
O68 O 0.15114 0.30194 0.03858 0.0
O69 O 0.09466 0.31578 0.20395 0.0
C70 C 0.10722 0.37918 0.21126 0.0
O71 O -0.25351 0.39279 1.41432 0.0
O72 O -0.24083 0.40408 1.2704 0.0
O73 O -0.29155 0.34223 1.26584 0.0
O74 O 0.0779 0.34624 0.02947 0.0
O75 O 0.09232 0.35072 0.23463 0.0
O76 O 0.13505 0.38609 0.11037 0.0
O77 O 0.05405 0.34928 0.14734 0.0
O78 O 0.00136 0.3399 0.3311 0.0
C79 C 0.01288 0.34773 0.24265 0.0
O80 O -0.23355 0.30879 1.34538 0.0
O81 O -0.19537 0.33154 1.18556 0.0
C82 C 0.12213 0.29402 0.13859 0.0
C83 C -0.19924 0.30956 1.24139 0.0
Zn84 Zn 0.37386 0.8665 0.9194 0.0
Zn85 Zn 0.47722 0.84947 0.55098 0.0
Zn86 Zn 0.42445 0.85781 0.72773 0.0
C87 C 0.47151 0.91209 0.5511 0.0
C88 C 0.40849 0.82025 0.60513 0.0
O89 O 0.43809 0.81916 0.78912 0.0
O90 O 0.3824 0.82771 0.96555 0.0
C91 C 0.42163 0.92095 0.83947 0.0
O92 O 0.45771 0.90534 0.64342 0.0
O93 O 0.47509 0.88959 0.49708 0.0
O94 O 0.44853 0.81201 0.54803 0.0
O95 O 0.39107 0.84175 0.67899 0.0
O96 O 0.39708 0.90526 0.92692 0.0
O97 O 0.43395 0.90845 0.75381 0.0
O98 O 0.35684 0.85001 0.79382 0.0
O99 O 0.31708 0.86986 0.95743 0.0
C100 C 0.31875 0.85826 0.88753 0.0
O101 O 0.47405 0.81887 0.6727 0.0
O102 O 0.53212 0.84208 0.51904 0.0
C103 C 0.41524 0.811 0.88823 0.0
C104 C 0.51656 0.81944 0.58566 0.0
Zn105 Zn -0.04158 0.62606 0.55194 0.0
Zn106 Zn -0.12685 0.65832 0.88894 0.0
Zn107 Zn -0.08392 0.64185 0.71995 0.0
C108 C -0.12337 0.59463 0.90276 0.0
C109 C -0.18104 0.67422 0.87315 0.0
O110 O -0.03096 0.67846 0.61572 0.0
O111 O -0.02193 0.66787 0.47736 0.0
C112 C -0.01611 0.58158 0.59757 0.0
O113 O -0.0879 0.5997 0.80167 0.0
O114 O -0.15209 0.61647 0.95843 0.0
O115 O -0.17011 0.6882 0.91602 0.0
O116 O -0.15376 0.65348 0.79763 0.0
O117 O 0.00595 0.59982 0.51595 0.0
O118 O -0.05477 0.59132 0.68808 0.0
O119 O -0.12329 0.64369 0.68074 0.0
O120 O -0.08799 0.60251 0.57196 0.0
C121 C -0.11883 0.62288 0.61912 0.0
O122 O -0.05097 0.684 0.72345 0.0
O123 O -0.08411 0.67512 0.89113 0.0
C124 C -0.01376 0.68566 0.52031 0.0
C125 C -0.05481 0.68991 0.80263 0.0
Zn126 Zn 0.19277 0.18298 0.53174 0.0
Zn127 Zn 0.102 0.14217 0.85299 0.0
Zn128 Zn 0.15383 0.14124 0.6632 0.0
C129 C 0.18159 0.12929 0.78808 0.0
C130 C 0.0858 0.08828 0.81308 0.0
O131 O 0.14523 0.13915 0.55115 0.0
O132 O 0.1451 0.19126 0.53434 0.0
C133 C 0.22957 0.19245 0.59101 0.0
O134 O 0.19541 0.13941 0.69823 0.0
O135 O 0.14033 0.12451 0.86938 0.0
O136 O 0.05992 0.11059 0.87768 0.0
O137 O 0.1271 0.09454 0.73105 0.0
O138 O 0.21042 0.21359 0.58353 0.0
O139 O 0.21387 0.16345 0.61775 0.0
O140 O 0.18665 0.11809 0.51009 0.0
O141 O 0.24367 0.15124 0.41195 0.0
C142 C 0.22771 0.12398 0.42233 0.0
O143 O 0.10204 0.17745 0.73893 0.0
O144 O 0.08308 0.1877 0.89049 0.0
C145 C 0.1354 0.16352 0.52655 0.0
C146 C 0.08024 0.19439 0.82475 0.0
Zn147 Zn 0.56471 0.27055 0.89881 0.0
Zn148 Zn 0.74222 0.28512 0.42783 0.0
Zn149 Zn 0.6282 0.3111 0.73811 0.0
C150 C 0.71983 0.32312 0.60743 0.0
C151 C 0.68273 0.34095 0.48598 0.0
O152 O 0.57196 0.3331 0.78789 0.0
O153 O 0.55521 0.28293 0.79618 0.0
C154 C 0.6325 0.30085 0.89446 0.0
O155 O 0.68454 0.33457 0.69785 0.0
O156 O 0.71492 0.29703 0.57943 0.0
O157 O 0.71526 0.32252 0.41175 0.0
O158 O 0.65722 0.3357 0.58828 0.0
O159 O 0.61235 0.27512 0.90897 0.0
O160 O 0.64237 0.32174 0.8267 0.0
O161 O 0.57111 0.33379 0.89424 0.0
O162 O 0.52037 0.29942 1.02531 0.0
C163 C 0.53482 0.32789 0.99398 0.0
O164 O 0.62856 0.25998 0.71127 0.0
O165 O 0.69934 0.26677 0.58383 0.0
C166 C 0.54964 0.3123 0.78862 0.0
C167 C 0.66556 0.25027 0.62179 0.0
H168 H 0.2887 0.1487 0.54792 0.0
H169 H 0.2763 0.24917 0.50794 0.0
H170 H 0.35835 0.25535 0.3753 0.0
H171 H 0.38282 0.15874 0.52127 0.0
H172 H 0.40746 0.12131 0.44967 0.0
H173 H 0.34767 0.12639 0.54804 0.0
H174 H 0.34996 0.11033 0.39999 0.0
H175 H 0.41001 0.10665 0.29999 0.0
H176 H 0.38429 0.13306 0.27522 0.0
H177 H 0.44202 0.24967 0.23714 0.0
H178 H 0.5205 0.23508 0.13151 0.0
H179 H 0.47811 0.13846 0.25933 0.0
C180 C 0.30294 0.17227 0.51399 0.0
C181 C 0.27591 0.19842 0.53824 0.0
C182 C 0.29621 0.22876 0.49092 0.0
C183 C 0.34287 0.23244 0.41447 0.0
C184 C 0.36867 0.20561 0.38689 0.0
C185 C 0.34939 0.17635 0.43748 0.0
C186 C 0.38461 0.15126 0.39319 0.0
C187 C 0.38039 0.13871 0.4834 0.0
C188 C 0.38205 0.12371 0.33887 0.0
C189 C 0.42678 0.17104 0.30985 0.0
C190 C 0.41686 0.20223 0.30642 0.0
C191 C 0.45024 0.2253 0.23864 0.0
C192 C 0.49471 0.21674 0.17769 0.0
C193 C 0.50507 0.18548 0.18517 0.0
C194 C 0.47097 0.16214 0.2493 0.0
H195 H 0.73819 0.52474 0.33712 0.0
H196 H 0.71214 0.51406 0.13824 0.0
H197 H 0.68653 0.45799 0.20446 0.0
H198 H 0.7788 0.44803 0.3061 0.0
H199 H 0.75146 0.44402 0.44508 0.0
H200 H 0.76584 0.48315 0.38446 0.0
H201 H 0.68321 0.50084 0.54046 0.0
H202 H 0.66843 0.46166 0.60169 0.0
H203 H 0.63959 0.4779 0.56901 0.0
H204 H 0.67378 0.40086 0.2754 0.0
H205 H 0.66796 0.34972 0.35759 0.0
H206 H 0.69339 0.40032 0.52697 0.0
C207 C 0.72684 0.51054 0.30814 0.0
C208 C 0.72863 0.52293 0.22966 0.0
C209 C 0.71222 0.50436 0.19592 0.0
C210 C 0.69745 0.47267 0.23356 0.0
C211 C 0.6975 0.46067 0.30856 0.0
C212 C 0.71091 0.47935 0.34716 0.0
C213 C 0.70766 0.46111 0.42785 0.0
C214 C 0.75367 0.45895 0.38845 0.0
C215 C 0.67263 0.47628 0.5415 0.0
C216 C 0.69208 0.42873 0.42558 0.0
C217 C 0.68645 0.42885 0.35617 0.0
C218 C 0.6768 0.40075 0.33226 0.0
C219 C 0.67348 0.37185 0.37923 0.0
C220 C 0.67883 0.37147 0.45089 0.0
C221 C 0.68742 0.40033 0.47569 0.0
H222 H 0.34233 0.85141 0.64078 0.0
H223 H 0.43061 0.76937 0.47666 0.0
H224 H 0.41581 0.76469 0.36307 0.0
H225 H 0.2615 0.82289 0.62106 0.0
H226 H 0.25459 0.8636 0.60065 0.0
H227 H 0.26369 0.85536 0.68568 0.0
H228 H 0.33131 0.89466 0.56758 0.0
H229 H 0.32356 0.90201 0.47993 0.0
H230 H 0.37672 0.88768 0.42325 0.0
H231 H 0.40539 0.77684 0.24004 0.0
H232 H 0.38848 0.79898 0.13999 0.0
H233 H 0.30606 0.87207 0.3879 0.0
C234 C 0.35658 0.83141 0.58521 0.0
C235 C 0.3876 0.81079 0.56745 0.0
C236 C 0.40665 0.78543 0.49162 0.0
C237 C 0.39855 0.78262 0.42641 0.0
C238 C 0.37058 0.80494 0.43977 0.0
C239 C 0.34863 0.82819 0.51989 0.0
C240 C 0.32369 0.85108 0.51087 0.0
C241 C 0.27285 0.84804 0.61049 0.0
C242 C 0.33982 0.88589 0.49441 0.0
C243 C 0.33724 0.83826 0.40971 0.0
C244 C 0.36397 0.8115 0.37004 0.0
C245 C 0.38343 0.79726 0.27205 0.0
C246 C 0.37415 0.81021 0.21504 0.0
C247 C 0.34571 0.83708 0.25658 0.0
C248 C 0.32743 0.85122 0.35473 0.0
H249 H 0.13444 0.44174 0.1815 0.0
H250 H 0.03197 0.37453 0.43169 0.0
H251 H -0.00692 0.41796 0.56711 0.0
H252 H 0.13515 0.49033 0.35962 0.0
H253 H 0.14396 0.52716 0.29244 0.0
H254 H 0.16589 0.4901 0.21748 0.0
H255 H 0.12366 0.49931 0.16141 0.0
H256 H 0.10199 0.53639 0.23543 0.0
H257 H 0.06405 0.50599 0.2657 0.0
H258 H -0.04019 0.47116 0.67075 0.0
H259 H -0.06246 0.52779 0.72867 0.0
H260 H 0.06526 0.55862 0.41535 0.0
C261 C 0.10429 0.43598 0.2652 0.0
C262 C 0.08635 0.40456 0.29542 0.0
C263 C 0.04659 0.39824 0.40587 0.0
C264 C 0.0242 0.42286 0.48385 0.0
C265 C 0.04235 0.45369 0.45103 0.0
C266 C 0.0819 0.46017 0.34438 0.0
C267 C 0.09341 0.4955 0.32829 0.0
C268 C 0.13721 0.50109 0.29765 0.0
C269 C 0.0959 0.51014 0.24269 0.0
C270 C 0.05349 0.50807 0.44134 0.0
C271 C 0.02433 0.48373 0.5116 0.0
C272 C -0.01701 0.49032 0.6171 0.0
C273 C -0.02932 0.52261 0.64996 0.0
C274 C -0.00024 0.54786 0.57771 0.0
C275 C 0.04232 0.54007 0.47379 0.0
H276 H 0.23887 0.88819 1.04646 0.0
H277 H 0.30116 0.81114 0.81135 0.0
H278 H 0.22647 0.79288 0.89592 0.0
H279 H 0.15079 0.84455 1.26897 0.0
H280 H 0.10923 0.87563 1.33355 0.0
H281 H 0.16744 0.8861 1.2442 0.0
H282 H 0.16469 0.92036 1.12485 0.0
H283 H 0.10608 0.91075 1.21518 0.0
H284 H 0.14439 0.90269 1.07163 0.0
H285 H 0.14514 0.77826 1.02321 0.0
H286 H 0.06314 0.7723 1.16758 0.0
H287 H 0.05291 0.85933 1.32098 0.0
C288 C 0.23689 0.86801 1.01075 0.0
C289 C 0.2759 0.85125 0.92146 0.0
C290 C 0.27192 0.82477 0.87788 0.0
C291 C 0.22954 0.81405 0.92627 0.0
C292 C 0.19164 0.83026 1.01749 0.0
C293 C 0.19497 0.85711 1.05782 0.0
C294 C 0.14911 0.86915 1.16034 0.0
C295 C 0.14385 0.86882 1.25749 0.0
C296 C 0.14056 0.90273 1.14187 0.0
C297 C 0.11931 0.84421 1.17378 0.0
C298 C 0.14461 0.82207 1.09025 0.0
C299 C 0.125 0.79585 1.08755 0.0
C300 C 0.07832 0.79262 1.17045 0.0
C301 C 0.0514 0.81559 1.25493 0.0
C302 C 0.07241 0.8415 1.2572 0.0
H303 H -0.2773 0.46862 1.37149 0.0
H304 H -0.15826 0.4241 1.2578 0.0
H305 H -0.11279 0.47037 1.13686 0.0
H306 H -0.23534 0.48723 1.13624 0.0
H307 H -0.26163 0.52539 1.1647 0.0
H308 H -0.28814 0.49657 1.27199 0.0
H309 H -0.28985 0.5366 1.38881 0.0
H310 H -0.26604 0.56651 1.28502 0.0
H311 H -0.23928 0.55744 1.32937 0.0
H312 H -0.07862 0.51314 0.99259 0.0
H313 H -0.06123 0.5558 0.86706 0.0
H314 H -0.20333 0.56857 1.07121 0.0
C315 C -0.24229 0.47001 1.32751 0.0
C316 C -0.22108 0.44349 1.32432 0.0
C317 C -0.17496 0.44487 1.26275 0.0
C318 C -0.14885 0.47082 1.19262 0.0
C319 C -0.16994 0.49506 1.18744 0.0
C320 C -0.21602 0.49544 1.25646 0.0
C321 C -0.23002 0.52093 1.22398 0.0
C322 C -0.25523 0.50664 1.19768 0.0
C323 C -0.25793 0.54692 1.31202 0.0
C324 C -0.18471 0.53355 1.12291 0.0
C325 C -0.1503 0.51879 1.10299 0.0
C326 C -0.1054 0.52546 1.00909 0.0
C327 C -0.09576 0.54914 0.93723 0.0
C328 C -0.13104 0.56527 0.96017 0.0
C329 C -0.17575 0.55669 1.05243 0.0
H330 H 0.19426 0.08395 0.87564 0.0
H331 H 0.22169 0.1831 0.77197 0.0
H332 H 0.22743 0.19606 0.90006 0.0
H333 H 0.12488 0.09595 1.13924 0.0
H334 H 0.14294 0.06486 1.17301 0.0
H335 H 0.15187 0.06059 1.05584 0.0
H336 H 0.23728 0.05347 0.92849 0.0
H337 H 0.22824 0.0556 1.04639 0.0
H338 H 0.2679 0.08225 0.93298 0.0
H339 H 0.211 0.20049 1.06981 0.0
H340 H 0.2003 0.19312 1.22804 0.0
H341 H 0.18721 0.09057 1.21637 0.0
C342 C 0.20467 0.10785 0.87452 0.0
C343 C 0.20834 0.13243 0.81264 0.0
C344 C 0.22017 0.16376 0.81601 0.0
C345 C 0.22249 0.17147 0.89051 0.0
C346 C 0.21416 0.14731 0.95839 0.0
C347 C 0.20788 0.11576 0.94714 0.0
C348 C 0.19748 0.09465 1.03389 0.0
C349 C 0.15157 0.07806 1.10461 0.0
C350 C 0.23497 0.07005 0.98234 0.0
C351 C 0.19683 0.11951 1.09846 0.0
C352 C 0.20595 0.14977 1.05446 0.0
C353 C 0.20489 0.1768 1.10343 0.0
C354 C 0.19773 0.17247 1.19488 0.0
C355 C 0.19256 0.14131 1.23482 0.0
C356 C 0.1905 0.11469 1.18825 0.0
H357 H 0.51769 0.50297 1.18631 0.0
H358 H 0.78976 0.49492 0.00788 0.0
H359 H 0.38128 0.43507 1.38807 0.0
H360 H 0.53259 0.45928 0.99944 0.0
H361 H 0.58546 0.44204 0.93608 0.0
H362 H 0.56891 0.48004 1.00347 0.0
H363 H 0.57654 0.45857 1.13067 0.0
H364 H 0.59598 0.42148 1.05666 0.0
H365 H 0.54939 0.42138 1.20295 0.0
H366 H 0.40623 0.37892 1.30605 0.0
H367 H 0.44501 0.33233 1.18107 0.0
H368 H 0.5713 0.38357 0.97957 0.0
C369 C 0.48765 0.48839 1.23402 0.0
C370 C 0.44486 0.50233 1.31129 0.0
C371 C 0.40656 0.48275 1.36883 0.0
C372 C 0.4107 0.4497 1.34795 0.0
C373 C 0.45366 0.43697 1.26731 0.0
C374 C 0.49144 0.45595 1.21095 0.0
C375 C 0.5334 0.43877 1.11448 0.0
C376 C 0.55639 0.45605 1.00712 0.0
C377 C 0.56569 0.43478 1.12715 0.0
C378 C 0.51349 0.40716 1.12412 0.0
C379 C 0.46764 0.4061 1.2139 0.0
C380 C 0.44217 0.3794 1.23629 0.0
C381 C 0.46432 0.35317 1.16504 0.0
C382 C 0.51104 0.3545 1.07147 0.0
C383 C 0.53563 0.38183 1.05116 0.0
H384 H 0.59315 0.61489 1.05925 0.0
H385 H 0.52085 0.67352 1.34728 0.0
H386 H 0.59331 0.69509 1.27154 0.0
H387 H -0.31794 0.59367 1.03525 0.0
H388 H 0.72402 0.59339 0.88854 0.0
H389 H 0.66655 0.58446 0.96407 0.0
H390 H 0.66756 0.62961 0.85997 0.0
H391 H 0.72486 0.63912 0.78536 0.0
H392 H 0.68262 0.6698 0.86228 0.0
H393 H -0.32604 0.71147 1.15903 0.0
H394 H -0.24478 0.71408 1.04052 0.0
H395 H -0.22484 0.64106 0.83153 0.0
C396 C 0.59251 0.63241 1.10636 0.0
C397 C 0.5514 0.64298 1.20849 0.0
C398 C 0.55194 0.66526 1.26885 0.0
C399 C 0.59291 0.67776 1.2259 0.0
C400 C 0.63283 0.66726 1.12359 0.0
C401 C 0.63288 0.6445 1.06594 0.0
C402 C 0.68021 0.63538 0.96168 0.0
C403 C 0.68871 0.59961 0.96248 0.0
C404 C 0.68935 0.64399 0.86138 0.0
C405 C -0.29282 0.65649 0.96926 0.0
C406 C -0.32086 0.67521 1.06208 0.0
C407 C -0.30393 0.69671 1.08688 0.0
C408 C -0.25747 0.69808 1.01825 0.0
C409 C -0.22808 0.67757 0.92659 0.0
C410 C -0.24613 0.65717 0.90031 0.0
H411 H 0.02519 0.06561 1.01849 0.0
H412 H 0.11401 0.03617 0.68191 0.0
H413 H 0.0943 0.97931 0.74126 0.0
H414 H 0.06239 0.00773 1.07605 0.0
H415 H 0.01078 0.00016 1.21434 0.0
H416 H 0.0212 0.03899 1.1554 0.0
H417 H -0.04986 0.03707 1.19399 0.0
H418 H -0.06446 -0.00078 1.26209 0.0
H419 H -0.06073 0.00268 1.15256 0.0
H420 H 0.06983 0.92608 0.83712 0.0
H421 H 0.04498 0.88041 0.95874 0.0
H422 H -0.02237 0.94577 1.22988 0.0
C423 C 0.03916 0.04727 0.95754 0.0
C424 C 0.07023 0.05503 0.84602 0.0
C425 C 0.08962 0.03045 0.76794 0.0
C426 C 0.07855 -0.00175 0.80096 0.0
C427 C 0.04872 -0.00866 0.91185 0.0
C428 C 0.02948 0.01521 0.98874 0.0
C429 C 0.00415 0.00172 1.10019 0.0
C430 C 0.02586 0.01283 1.13881 0.0
C431 C -0.04568 0.0107 1.18203 0.0
C432 C 0.01114 0.96634 1.07502 0.0
C433 C 0.03679 0.96083 0.9661 0.0
C434 C 0.04941 0.9301 0.92271 0.0
C435 C 0.03531 0.90434 0.99262 0.0
C436 C 0.00903 0.90944 1.10475 0.0
C437 C -0.00311 0.94093 1.14577 0.0
H438 H 0.63554 0.26265 1.0202 0.0
H439 H 0.62915 0.36159 0.95548 0.0
H440 H 0.61473 0.37883 1.11314 0.0
H441 H 0.55564 0.26712 1.31994 0.0
H442 H 0.58986 0.24317 1.32405 0.0
H443 H 0.5918 0.23684 1.21809 0.0
H444 H -0.32214 0.24607 1.06973 0.0
H445 H -0.32408 0.25099 1.17569 0.0
H446 H -0.29962 0.28194 1.07448 0.0
H447 H 0.60086 0.38645 1.27542 0.0
H448 H -0.37998 0.38697 1.38037 0.0
H449 H -0.35453 0.28513 1.32808 0.0
C450 C 0.63086 0.28792 1.03978 0.0
C451 C 0.63222 0.31064 0.97705 0.0
C452 C 0.62733 0.34359 1.00327 0.0
C453 C 0.61833 0.35365 1.09393 0.0
C454 C 0.61532 0.33068 1.15681 0.0
C455 C 0.62357 0.29867 1.12806 0.0
C456 C 0.62694 0.28001 1.19702 0.0
C457 C 0.58878 0.25532 1.26905 0.0
C458 C -0.32699 0.26383 1.12494 0.0
C459 C -0.37883 0.30685 1.2654 0.0
C460 C 0.61186 0.33551 1.2451 0.0
C461 C -0.39207 0.36417 1.29258 0.0
C462 C -0.38188 0.3642 1.35381 0.0
C463 C -0.36635 0.33606 1.36317 0.0
C464 C -0.36778 0.3067 1.32493 0.0
H465 H 0.2788 0.06185 1.22491 0.0
H466 H 0.38134 0.08197 1.21835 0.0
H467 H 0.42993 0.04063 1.07595 0.0
H468 H 0.29834 0.97585 1.16733 0.0
H469 H 0.28813 0.97802 1.08279 0.0
H470 H 0.26095 0.00569 1.19338 0.0
H471 H 0.29348 0.05247 1.05618 0.0
H472 H 0.32265 0.02476 0.94462 0.0
H473 H 0.35327 0.05595 0.94122 0.0
H474 H 0.46711 -0.00277 0.93226 0.0
H475 H 0.48464 0.95042 0.82011 0.0
H476 H 0.36249 0.96545 0.90181 0.0
C477 C 0.31063 0.0565 1.19707 0.0
C478 C 0.32579 0.07417 1.23519 0.0
C479 C 0.36864 0.06777 1.19269 0.0
C480 C 0.39671 0.04484 1.11039 0.0
C481 C 0.38183 0.02931 1.06955 0.0
C482 C 0.33954 0.03461 1.1125 0.0
C483 C 0.33212 0.01603 1.05154 0.0
C484 C 0.29258 -0.00751 1.1283 0.0
C485 C 0.32497 0.03867 0.99507 0.0
C486 C 0.37644 -0.00128 0.96917 0.0
C487 C 0.40484 0.0068 0.98027 0.0
C488 C 0.4456 -0.00882 0.92122 0.0
C489 C 0.45582 0.96501 0.8559 0.0
C490 C 0.42565 0.95518 0.8496 0.0
C491 C 0.38707 0.97355 0.90126 0.0
H492 H -0.02388 0.3177 0.18312 0.0
H493 H -0.03244 0.40264 0.33887 0.0
H494 H -0.10659 0.4148 0.41161 0.0
H495 H 0.89702 0.35057 0.15033 0.0
H496 H 0.87426 0.31075 0.17865 0.0
H497 H 0.93275 0.31626 0.10108 0.0
H498 H -0.07719 0.2796 0.23729 0.0
H499 H 0.86482 0.27431 0.31505 0.0
H500 H -0.11891 0.28955 0.38019 0.0
H501 H 0.81413 0.40774 0.51517 0.0
H502 H 0.73898 0.38313 0.63217 0.0
H503 H 0.79789 0.30214 0.41304 0.0
C504 C -0.04044 0.33987 0.22654 0.0
C505 C -0.02289 0.35956 0.25454 0.0
C506 C -0.0456 0.38767 0.3157 0.0
C507 C -0.08756 0.39482 0.35671 0.0
C508 C -0.10605 0.37364 0.33503 0.0
C509 C -0.08261 0.34708 0.26857 0.0
C510 C 0.8871 0.32464 0.27603 0.0
C511 C 0.89847 0.32563 0.17024 0.0
C512 C 0.88906 0.29005 0.30399 0.0
C513 C 0.84231 0.34017 0.36822 0.0
C514 C 0.84698 0.36929 0.39731 0.0
C515 C 0.81002 0.38554 0.49077 0.0
C516 C 0.7675 0.37126 0.55751 0.0
C517 C 0.76263 0.34084 0.53108 0.0
C518 C 0.80031 0.32581 0.43366 0.0
H519 H 0.48881 0.96713 0.60958 0.0
H520 H 0.48969 0.93017 0.37398 0.0
H521 H 0.52635 0.97908 0.26612 0.0
H522 H 0.46503 0.05066 0.59048 0.0
H523 H 0.49922 0.06801 0.60653 0.0
H524 H 0.47203 0.0299 0.66862 0.0
H525 H 0.54883 0.0048 0.56944 0.0
H526 H 0.57637 0.04267 0.5053 0.0
H527 H 0.59397 0.0075 0.42318 0.0
H528 H 0.5678 0.02896 0.17423 0.0
H529 H 0.59942 0.08339 0.12025 0.0
H530 H 0.56943 0.09188 0.41563 0.0
C531 C 0.49609 0.96961 0.53635 0.0
C532 C 0.48692 0.94437 0.49983 0.0
C533 C 0.4969 0.94874 0.40343 0.0
C534 C 0.51793 0.9765 0.34086 0.0
C535 C 0.52829 0.00024 0.37603 0.0
C536 C 0.51674 -0.00227 0.47274 0.0
C537 C 0.53058 0.0279 0.49211 0.0
C538 C 0.48925 0.04514 0.59558 0.0
C539 C 0.56446 0.02024 0.49782 0.0
C540 C 0.5523 0.04711 0.39016 0.0
C541 C 0.55096 0.03033 0.32412 0.0
C542 C 0.56896 0.04254 0.22527 0.0
C543 C 0.58746 0.07338 0.19449 0.0
C544 C 0.58743 0.09185 0.26283 0.0
C545 C 0.57027 0.07823 0.36117 0.0
H546 H 0.87748 0.57767 0.18845 0.0
H547 H 0.86491 0.67851 0.15787 0.0
H548 H 0.86778 0.69123 0.29207 0.0
H549 H 0.80467 0.57628 0.45767 0.0
H550 H 0.83292 0.54826 0.4711 0.0
H551 H 0.84219 0.54697 0.35298 0.0
H552 H -0.07211 0.55421 0.22335 0.0
H553 H -0.08075 0.5532 0.34072 0.0
H554 H -0.0513 0.58644 0.24701 0.0
H555 H -0.14232 0.69126 0.45519 0.0
H556 H -0.14375 0.68 0.59752 0.0
H557 H -0.13011 0.57851 0.52664 0.0
C558 C 0.87853 0.60254 0.20451 0.0
C559 C 0.87192 0.6272 0.16188 0.0
C560 C 0.87135 0.65946 0.18765 0.0
C561 C 0.87195 0.66678 0.26555 0.0
C562 C 0.87361 0.64147 0.31509 0.0
C563 C 0.87861 0.61007 0.28251 0.0
C564 C 0.87594 0.58692 0.3538 0.0
C565 C 0.83659 0.56323 0.41228 0.0
C566 C -0.0794 0.56917 0.28726 0.0
C567 C -0.13236 0.61004 0.4332 0.0
C568 C -0.13375 0.6414 0.41023 0.0
C569 C -0.14069 0.66681 0.47291 0.0
C570 C -0.14244 0.66014 0.55516 0.0
C571 C -0.13694 0.62838 0.57267 0.0
C572 C -0.13465 0.603 0.51534 0.0
H573 H 0.25251 0.97149 0.11741 0.0
H574 H -0.02755 0.96272 1.38307 0.0
H575 H 0.38454 0.02017 0.02143 0.0
H576 H 0.24791 0.06265 0.08991 0.0
H577 H 0.19191 0.06357 0.22478 0.0
H578 H 0.21085 0.02892 0.13966 0.0
H579 H 0.18935 -0.00684 0.29249 0.0
H580 H 0.17165 0.02746 0.37687 0.0
H581 H 0.21375 0.00125 0.34355 0.0
H582 H 0.36031 0.07238 0.12486 0.0
H583 H 0.31828 0.11399 0.26859 0.0
H584 H 0.19526 0.08218 0.3713 0.0
C585 C 0.28244 0.98252 0.0895 0.0
C586 C 0.32118 0.96395 0.03557 0.0
C587 C -0.05683 0.97692 1.42019 0.0
C588 C 0.3568 0.01012 0.0369 0.0
C589 C 0.31661 0.02688 0.09836 0.0
C590 C 0.28012 0.01354 0.12353 0.0
C591 C 0.23799 0.03287 0.20965 0.0
C592 C 0.22119 0.0479 0.16317 0.0
C593 C 0.20108 0.01247 0.31158 0.0
C594 C 0.25582 0.05822 0.23317 0.0
C595 C 0.30149 0.05521 0.16568 0.0
C596 C 0.32471 0.0752 0.17665 0.0
C597 C 0.30062 0.09868 0.25861 0.0
C598 C 0.25363 0.10119 0.33065 0.0
C599 C 0.23122 0.08082 0.31697 0.0
H600 H 0.61038 0.26154 0.59444 0.0
H601 H 0.7272 0.20792 0.46488 0.0
H602 H 0.73988 0.19121 0.30799 0.0
H603 H 0.57188 0.20784 0.50643 0.0
H604 H 0.55579 0.24098 0.47372 0.0
H605 H 0.55409 0.24502 0.57972 0.0
H606 H 0.60517 0.29541 0.48179 0.0
H607 H 0.60789 0.2907 0.3742 0.0
H608 H 0.65875 0.29196 0.34257 0.0
H609 H 0.74188 0.18322 0.15988 0.0
H610 H 0.72929 0.18112 0.04053 0.0
H611 H 0.61344 0.24245 0.26558 0.0
C612 C 0.63752 0.24524 0.53548 0.0
C613 C 0.66714 0.23515 0.54282 0.0
C614 C 0.70368 0.2152 0.4612 0.0
C615 C 0.71129 0.20585 0.37171 0.0
C616 C 0.68231 0.21709 0.36488 0.0
C617 C 0.64595 0.23615 0.44509 0.0
C618 C 0.62148 0.24673 0.41545 0.0
C619 C 0.57292 0.23437 0.49875 0.0
C620 C 0.62343 0.28338 0.40283 0.0
C621 C 0.64925 0.23028 0.30705 0.0
C622 C 0.68438 0.21344 0.27856 0.0
C623 C 0.7144 0.19626 0.18153 0.0
C624 C 0.70727 0.19543 0.11386 0.0
C625 C 0.67032 0.21157 0.14449 0.0
C626 C 0.64183 0.2298 0.24071 0.0
H627 H 0.74728 0.72648 0.16863 0.0
H628 H 0.67508 0.64915 0.1815 0.0
H629 H 0.60497 0.68034 0.31073 0.0
H630 H 0.67042 0.74593 0.43352 0.0
H631 H 0.67646 0.7889 0.41988 0.0
H632 H 0.72268 0.76376 0.31359 0.0
H633 H 0.72805 0.79066 0.17046 0.0
H634 H 0.68345 0.81717 0.27496 0.0
H635 H 0.67856 0.79373 0.19661 0.0
H636 H 0.54107 0.7154 0.46523 0.0
H637 H 0.49064 0.75919 0.59154 0.0
H638 H 0.60512 0.81496 0.47097 0.0
C639 C 0.7172 0.71704 0.19361 0.0
C640 C 0.71653 0.68575 0.16386 0.0
C641 C 0.67638 0.67347 0.20103 0.0
C642 C 0.63629 0.69078 0.27612 0.0
C643 C 0.63739 0.72056 0.31074 0.0
C644 C 0.67717 0.73428 0.26677 0.0
C645 C 0.66914 0.7663 0.31934 0.0
C646 C 0.68566 0.76618 0.37485 0.0
C647 C 0.69108 0.79358 0.23536 0.0
C648 C 0.61852 0.76791 0.40246 0.0
C649 C 0.60078 0.74108 0.39736 0.0
C650 C 0.55466 0.73672 0.46877 0.0
C651 C 0.52615 0.7614 0.54217 0.0
C652 C 0.54393 0.79017 0.54246 0.0
C653 C 0.59062 0.79296 0.47384 0.0
H654 H 0.16028 0.815 0.37049 0.0
H655 H 0.23375 0.80149 0.03115 0.0
H656 H 0.17227 0.76673 0.08828 0.0
H657 H 0.12246 0.73591 0.45347 0.0
H658 H 0.069 0.74663 0.5859 0.0
H659 H 0.11665 0.77254 0.51749 0.0
H660 H 0.07219 0.81979 0.5347 0.0
H661 H 0.02445 0.79385 0.60256 0.0
H662 H 0.04796 0.81549 0.48185 0.0
H663 H 0.10352 0.73287 0.18369 0.0
H664 H 0.0383 0.697 0.30499 0.0
H665 H 0.01238 0.73118 0.58134 0.0
C666 C 0.16334 0.80514 0.30782 0.0
C667 C 0.2015 0.8112 0.19636 0.0
C668 C 0.20469 0.7972 0.11696 0.0
C669 C 0.16984 0.77768 0.14876 0.0
C670 C 0.13252 0.77243 0.25982 0.0
C671 C 0.1294 0.78549 0.3379 0.0
C672 C 0.08771 0.7743 0.45127 0.0
C673 C 0.09969 0.75626 0.50514 0.0
C674 C 0.05621 0.80254 0.52175 0.0
C675 C 0.06817 0.7521 0.42493 0.0
C676 C 0.09394 0.75197 0.31442 0.0
C677 C 0.08311 0.73284 0.27023 0.0
C678 C 0.04583 0.71259 0.34023 0.0
C679 C 0.02028 0.71114 0.45301 0.0
C680 C 0.0311 0.73174 0.49594 0.0
H681 H 0.06168 0.18718 0.58561 0.0
H682 H 0.18474 0.1369 0.32818 0.0
H683 H 0.18254 0.15501 0.19724 0.0
H684 H 0.01432 0.1845 0.45181 0.0
H685 H -0.00718 0.22435 0.50292 0.0
H686 H -0.00778 0.19599 0.58227 0.0
H687 H 0.0353 0.23705 0.59232 0.0
H688 H 0.03737 0.26499 0.51095 0.0
H689 H 0.08868 0.2522 0.4677 0.0
H690 H 0.18344 0.19407 0.08916 0.0
H691 H 0.1821 0.24484 0.01844 0.0
H692 H 0.05825 0.27074 0.3447 0.0
C693 C 0.08624 0.17825 0.50325 0.0
C694 C 0.12297 0.16045 0.46671 0.0
C695 C 0.15563 0.14976 0.35797 0.0
C696 C 0.15472 0.16022 0.28287 0.0
C697 C 0.12048 0.18083 0.31885 0.0
C698 C 0.08568 0.18878 0.42789 0.0
C699 C 0.0583 0.21625 0.44326 0.0
C700 C 0.01165 0.20456 0.4983 0.0
C701 C 0.05481 0.24423 0.50715 0.0
C702 C 0.0864 0.2252 0.32594 0.0
C703 C 0.12111 0.20384 0.25511 0.0
C704 C 0.15542 0.21022 0.1436 0.0
C705 C 0.15465 0.23927 0.10418 0.0
C706 C 0.12012 0.26173 0.17648 0.0
C707 C 0.08491 0.25394 0.28763 0.0
H708 H -0.0016 0.6888 0.83579 0.0
H709 H -0.06988 0.75252 0.79696 0.0
H710 H -0.07602 0.79299 0.91075 0.0
H711 H -0.06743 0.69724 1.09236 0.0
H712 H -0.02812 0.69686 1.10354 0.0
H713 H -0.01389 0.67785 0.98991 0.0
H714 H 0.05779 0.7125 0.85344 0.0
H715 H 0.04511 0.73069 0.96676 0.0
H716 H 0.05409 0.75549 0.86782 0.0
H717 H -0.09476 0.8186 1.07244 0.0
H718 H -0.10961 0.83177 1.23511 0.0
H719 H -0.02927 0.7505 1.16644 0.0
C720 C -0.01449 0.71232 0.84405 0.0
C721 C -0.03458 0.71782 0.80638 0.0
C722 C -0.0532 0.74823 0.82268 0.0
C723 C -0.05748 0.77117 0.88892 0.0
C724 C -0.0418 0.76354 0.93542 0.0
C725 C -0.01888 0.7353 0.9098 0.0
C726 C -0.01072 0.73048 0.98103 0.0
C727 C -0.0313 0.69875 1.04546 0.0
C728 C 0.03956 0.73242 0.91318 0.0
C729 C -0.03526 0.75903 1.05549 0.0
C730 C -0.05257 0.77819 1.02781 0.0
C731 C -0.08009 0.80427 1.09251 0.0
C732 C -0.08887 0.81136 1.18556 0.0
C733 C -0.07032 0.79228 1.21295 0.0
C734 C -0.04346 0.76581 1.14687 0.0
H735 H 0.02558 0.23169 1.00806 0.0
H736 H 0.05083 0.20358 0.72838 0.0
H737 H -0.02144 0.22688 0.81358 0.0
H738 H -0.08783 0.21337 1.20721 0.0
H739 H -0.10468 0.24725 1.29352 0.0
H740 H -0.04885 0.23154 1.20658 0.0
H741 H -0.01442 0.28702 1.11567 0.0
H742 H -0.07003 0.30336 1.20498 0.0
H743 H -0.03179 0.30773 1.05963 0.0
H744 H -0.09866 0.24783 0.93549 0.0
H745 H -0.17066 0.27605 1.0708 0.0
H746 H -0.14682 0.29101 1.27334 0.0
C747 C 0.01649 0.23116 0.96334 0.0
C748 C 0.04371 0.21554 0.86159 0.0
C749 C 0.03056 0.21539 0.806 0.0
C750 C -0.01064 0.22828 0.85437 0.0
C751 C -0.03793 0.24155 0.95781 0.0
C752 C -0.02445 0.244 1.01037 0.0
C753 C -0.06025 0.25945 1.1212 0.0
C754 C -0.07635 0.23653 1.21251 0.0
C755 C -0.04312 0.29129 1.12562 0.0
C756 C -0.09641 0.26482 1.12353 0.0
C757 C -0.08275 0.25399 1.02854 0.0
C758 C -0.10968 0.25655 1.0099 0.0
C759 C -0.15063 0.27225 1.08756 0.0
C760 C -0.16418 0.28517 1.18236 0.0
C761 C -0.13754 0.28055 1.20263 0.0
H762 H 0.51202 0.28583 0.72726 0.0
H763 H 0.48912 0.35574 0.94531 0.0
H764 H 0.40836 0.34456 1.07895 0.0
H765 H 0.38947 0.29752 0.83917 0.0
H766 H 0.38998 0.25538 0.81563 0.0
H767 H 0.44098 0.27859 0.72182 0.0
H768 H 0.47886 0.23779 0.74724 0.0
H769 H 0.42835 0.21529 0.84368 0.0
H770 H 0.45573 0.23078 0.88146 0.0
H771 H 0.3435 0.30815 1.21003 0.0
H772 H 0.2935 0.2609 1.3092 0.0
H773 H 0.35236 0.2197 1.00318 0.0
C774 C 0.48938 0.30056 0.79933 0.0
C775 C 0.50639 0.32071 0.82814 0.0
C776 C 0.47658 0.33966 0.92293 0.0
C777 C 0.43047 0.33344 0.99954 0.0
C778 C 0.41491 0.30979 0.97609 0.0
C779 C 0.44313 0.29516 0.87481 0.0
C780 C 0.42 0.26722 0.87539 0.0
C781 C 0.40948 0.27517 0.80908 0.0
C782 C 0.44735 0.23599 0.83479 0.0
C783 C 0.37753 0.26549 0.99528 0.0
C784 C 0.37454 0.29047 1.05243 0.0
C785 C 0.34388 0.28952 1.16604 0.0
C786 C 0.31601 0.26245 1.22177 0.0
C787 C 0.31878 0.237 1.16361 0.0
C788 C 0.34867 0.23931 1.04983 0.0
H789 H 0.40731 0.80054 1.05505 0.0
H790 H 0.43491 0.75271 0.79149 0.0
H791 H 0.42475 0.70007 0.87278 0.0
H792 H 0.46325 0.74152 1.0835 0.0
H793 H 0.4222 0.7464 1.22916 0.0
H794 H 0.43523 0.77936 1.1437 0.0
H795 H 0.35086 0.7837 1.25502 0.0
H796 H 0.33785 0.74984 1.3378 0.0
H797 H 0.32201 0.74945 1.26489 0.0
H798 H 0.40393 0.6534 0.99326 0.0
H799 H 0.39343 0.61487 1.11723 0.0
H800 H 0.38047 0.69344 1.30144 0.0
C801 C 0.41251 0.77892 1.01283 0.0
C802 C 0.42225 0.78048 0.91663 0.0
C803 C 0.42842 0.75188 0.86389 0.0
C804 C 0.42188 0.72198 0.91065 0.0
C805 C 0.40968 0.72136 1.0092 0.0
C806 C 0.40651 0.74904 1.05776 0.0
C807 C 0.39366 0.7419 1.16246 0.0
C808 C 0.4308 0.75293 1.15416 0.0
C809 C 0.3484 0.75713 1.26085 0.0
C810 C 0.39 0.70575 1.16563 0.0
C811 C 0.39853 0.69448 1.07751 0.0
C812 C 0.39768 0.66194 1.06182 0.0
C813 C 0.3912 0.64026 1.13342 0.0
C814 C 0.38633 0.65119 1.21863 0.0
C815 C 0.38347 0.68439 1.2381 0.0
loop_
_geom_bond_atom_site_label_1
_geom_bond_atom_site_label_2
_geom_bond_distance
_geom_bond_site_symmetry_2
_ccdc_geom_bond_type
Zn0 O6 1.920 . S
Zn0 O12 1.898 . S
Zn0 O15 1.905 . S
Zn1 O9 1.905 . S
Zn1 O10 1.898 . S
Zn1 O18 1.920 . S
Zn2 O5 2.080 1_554 S
Zn2 O8 2.114 . S
Zn2 O11 2.120 . S
Zn2 O13 2.120 1_554 S
Zn2 O14 2.114 1_554 S
Zn2 O17 2.080 . S
C3 O8 1.166 . S
C3 O9 1.182 . S
C4 O10 1.167 . S
C4 O11 1.299 . S
O5 Zn2 2.080 1_556 S
O5 C19 1.305 . S
O6 Zn0 1.920 . S
O6 C19 1.234 . S
C7 O12 1.167 . S
C7 O13 1.299 . S
O8 Zn2 2.114 . S
O8 C3 1.166 . S
O9 Zn1 1.905 . S
O9 C3 1.182 . S
O10 Zn1 1.898 . S
O10 C4 1.167 . S
O11 Zn2 2.120 . S
O11 C4 1.299 . S
O12 Zn0 1.898 . S
O12 C7 1.167 . S
O13 Zn2 2.120 1_556 S
O13 C7 1.299 . S
O14 Zn2 2.114 1_556 S
O14 C16 1.166 . S
O15 Zn0 1.905 . S
O15 C16 1.182 . S
C16 O14 1.166 . S
C16 O15 1.182 . S
O17 Zn2 2.080 . S
O17 C20 1.305 . S
O18 Zn1 1.920 . S
O18 C20 1.234 . S
C19 O5 1.305 . S
C19 O6 1.234 . S
C20 O17 1.305 . S
C20 O18 1.234 . S
Zn21 O27 1.920 . S
Zn21 O33 1.898 . S
Zn21 O36 1.905 . S
Zn22 O30 1.905 . S
Zn22 O31 1.898 . S
Zn22 O39 1.920 . S
Zn23 O26 2.080 1_554 S
Zn23 O29 2.114 . S
Zn23 O32 2.120 . S
Zn23 O34 2.120 1_554 S
Zn23 O35 2.114 1_554 S
Zn23 O38 2.080 . S
C24 O29 1.166 . S
C24 O30 1.182 . S
C25 O31 1.167 . S
C25 O32 1.299 . S
O26 Zn23 2.080 1_556 S
O26 C40 1.305 . S
O27 Zn21 1.920 . S
O27 C40 1.234 . S
C28 O33 1.167 . S
C28 O34 1.299 . S
O29 Zn23 2.114 . S
O29 C24 1.166 . S
O30 Zn22 1.905 . S
O30 C24 1.182 . S
O31 Zn22 1.898 . S
O31 C25 1.167 . S
O32 Zn23 2.120 . S
O32 C25 1.299 . S
O33 Zn21 1.898 . S
O33 C28 1.167 . S
O34 Zn23 2.120 1_556 S
O34 C28 1.299 . S
O35 Zn23 2.114 1_556 S
O35 C37 1.166 . S
O36 Zn21 1.905 . S
O36 C37 1.182 . S
C37 O35 1.166 . S
C37 O36 1.182 . S
O38 Zn23 2.080 . S
O38 C41 1.305 . S
O39 Zn22 1.920 . S
O39 C41 1.234 . S
C40 O26 1.305 . S
C40 O27 1.234 . S
C41 O38 1.305 . S
C41 O39 1.234 . S
Zn42 O48 1.920 . S
Zn42 O54 1.898 . S
Zn42 O57 1.905 . S
Zn43 O51 1.905 . S
Zn43 O52 1.898 . S
Zn43 O60 1.920 . S
Zn44 O47 2.080 . S
Zn44 O50 2.114 1_554 S
Zn44 O53 2.120 1_554 S
Zn44 O55 2.120 . S
Zn44 O56 2.114 . S
Zn44 O59 2.080 1_554 S
C45 O50 1.166 . S
C45 O51 1.182 . S
C46 O52 1.167 . S
C46 O53 1.299 . S
O47 Zn44 2.080 . S
O47 C61 1.305 . S
O48 Zn42 1.920 . S
O48 C61 1.234 . S
C49 O54 1.167 . S
C49 O55 1.299 . S
O50 Zn44 2.114 1_556 S
O50 C45 1.166 . S
O51 Zn43 1.905 . S
O51 C45 1.182 . S
O52 Zn43 1.898 . S
O52 C46 1.167 . S
O53 Zn44 2.120 1_556 S
O53 C46 1.299 . S
O54 Zn42 1.898 . S
O54 C49 1.167 . S
O55 Zn44 2.120 . S
O55 C49 1.299 . S
O56 Zn44 2.114 . S
O56 C58 1.166 . S
O57 Zn42 1.905 . S
O57 C58 1.182 . S
C58 O56 1.166 . S
C58 O57 1.182 . S
O59 Zn44 2.080 1_556 S
O59 C62 1.305 . S
O60 Zn43 1.920 . S
O60 C62 1.234 . S
C61 O47 1.305 . S
C61 O48 1.234 . S
C62 O59 1.305 . S
C62 O60 1.234 . S
Zn63 O69 1.920 . S
Zn63 O75 1.898 . S
Zn63 O78 1.905 . S
Zn64 O72 1.905 . S
Zn64 O73 1.898 . S
Zn64 O81 1.920 . S
Zn65 O68 2.080 . S
Zn65 O71 2.114 1_554 S
Zn65 O74 2.120 1_554 S
Zn65 O76 2.120 . S
Zn65 O77 2.114 . S
Zn65 O80 2.080 1_554 S
C66 O71 1.166 . S
C66 O72 1.182 . S
C67 O73 1.167 . S
C67 O74 1.299 . S
O68 Zn65 2.080 . S
O68 C82 1.305 . S
O69 Zn63 1.920 . S
O69 C82 1.234 . S
C70 O75 1.167 . S
C70 O76 1.299 . S
O71 Zn65 2.114 1_556 S
O71 C66 1.166 . S
O72 Zn64 1.905 . S
O72 C66 1.182 . S
O73 Zn64 1.898 . S
O73 C67 1.167 . S
O74 Zn65 2.120 1_556 S
O74 C67 1.299 . S
O75 Zn63 1.898 . S
O75 C70 1.167 . S
O76 Zn65 2.120 . S
O76 C70 1.299 . S
O77 Zn65 2.114 . S
O77 C79 1.166 . S
O78 Zn63 1.905 . S
O78 C79 1.182 . S
C79 O77 1.166 . S
C79 O78 1.182 . S
O80 Zn65 2.080 1_556 S
O80 C83 1.305 . S
O81 Zn64 1.920 . S
O81 C83 1.234 . S
C82 O68 1.305 . S
C82 O69 1.234 . S
C83 O80 1.305 . S
C83 O81 1.234 . S
Zn84 O90 1.920 . S
Zn84 O96 1.898 . S
Zn84 O99 1.905 . S
Zn85 O93 1.905 . S
Zn85 O94 1.898 . S
Zn85 O102 1.920 . S
Zn86 O89 2.080 . S
Zn86 O92 2.114 . S
Zn86 O95 2.120 . S
Zn86 O97 2.120 . S
Zn86 O98 2.114 . S
Zn86 O101 2.080 . S
C87 O92 1.166 . S
C87 O93 1.182 . S
C88 O94 1.167 . S
C88 O95 1.299 . S
O89 Zn86 2.080 . S
O89 C103 1.305 . S
O90 Zn84 1.920 . S
O90 C103 1.234 . S
C91 O96 1.167 . S
C91 O97 1.299 . S
O92 Zn86 2.114 . S
O92 C87 1.166 . S
O93 Zn85 1.905 . S
O93 C87 1.182 . S
O94 Zn85 1.898 . S
O94 C88 1.167 . S
O95 Zn86 2.120 . S
O95 C88 1.299 . S
O96 Zn84 1.898 . S
O96 C91 1.167 . S
O97 Zn86 2.120 . S
O97 C91 1.299 . S
O98 Zn86 2.114 . S
O98 C100 1.166 . S
O99 Zn84 1.905 . S
O99 C100 1.182 . S
C100 O98 1.166 . S
C100 O99 1.182 . S
O101 Zn86 2.080 . S
O101 C104 1.305 . S
O102 Zn85 1.920 . S
O102 C104 1.234 . S
C103 O89 1.305 . S
C103 O90 1.234 . S
C104 O101 1.305 . S
C104 O102 1.234 . S
Zn105 O111 1.920 . S
Zn105 O117 1.898 . S
Zn105 O120 1.905 . S
Zn106 O114 1.905 . S
Zn106 O115 1.898 . S
Zn106 O123 1.920 . S
Zn107 O110 2.080 . S
Zn107 O113 2.114 . S
Zn107 O116 2.120 . S
Zn107 O118 2.120 . S
Zn107 O119 2.114 . S
Zn107 O122 2.080 . S
C108 O113 1.166 . S
C108 O114 1.182 . S
C109 O115 1.167 . S
C109 O116 1.299 . S
O110 Zn107 2.080 . S
O110 C124 1.305 . S
O111 Zn105 1.920 . S
O111 C124 1.234 . S
C112 O117 1.167 . S
C112 O118 1.299 . S
O113 Zn107 2.114 . S
O113 C108 1.166 . S
O114 Zn106 1.905 . S
O114 C108 1.182 . S
O115 Zn106 1.898 . S
O115 C109 1.167 . S
O116 Zn107 2.120 . S
O116 C109 1.299 . S
O117 Zn105 1.898 . S
O117 C112 1.167 . S
O118 Zn107 2.120 . S
O118 C112 1.299 . S
O119 Zn107 2.114 . S
O119 C121 1.166 . S
O120 Zn105 1.905 . S
O120 C121 1.182 . S
C121 O119 1.166 . S
C121 O120 1.182 . S
O122 Zn107 2.080 . S
O122 C125 1.305 . S
O123 Zn106 1.920 . S
O123 C125 1.234 . S
C124 O110 1.305 . S
C124 O111 1.234 . S
C125 O122 1.305 . S
C125 O123 1.234 . S
Zn126 O132 1.920 . S
Zn126 O138 1.898 . S
Zn126 O141 1.905 . S
Zn127 O135 1.905 . S
Zn127 O136 1.898 . S
Zn127 O144 1.920 . S
Zn128 O131 2.080 . S
Zn128 O134 2.114 . S
Zn128 O137 2.120 . S
Zn128 O139 2.120 . S
Zn128 O140 2.114 . S
Zn128 O143 2.080 . S
C129 O134 1.166 . S
C129 O135 1.182 . S
C130 O136 1.167 . S
C130 O137 1.299 . S
O131 Zn128 2.080 . S
O131 C145 1.305 . S
O132 Zn126 1.920 . S
O132 C145 1.234 . S
C133 O138 1.167 . S
C133 O139 1.299 . S
O134 Zn128 2.114 . S
O134 C129 1.166 . S
O135 Zn127 1.905 . S
O135 C129 1.182 . S
O136 Zn127 1.898 . S
O136 C130 1.167 . S
O137 Zn128 2.120 . S
O137 C130 1.299 . S
O138 Zn126 1.898 . S
O138 C133 1.167 . S
O139 Zn128 2.120 . S
O139 C133 1.299 . S
O140 Zn128 2.114 . S
O140 C142 1.166 . S
O141 Zn126 1.905 . S
O141 C142 1.182 . S
C142 O140 1.166 . S
C142 O141 1.182 . S
O143 Zn128 2.080 . S
O143 C146 1.305 . S
O144 Zn127 1.920 . S
O144 C146 1.234 . S
C145 O131 1.305 . S
C145 O132 1.234 . S
C146 O143 1.305 . S
C146 O144 1.234 . S
Zn147 O153 1.920 . S
Zn147 O159 1.898 . S
Zn147 O162 1.905 . S
Zn148 O156 1.905 . S
Zn148 O157 1.898 . S
Zn148 O165 1.920 . S
Zn149 O152 2.080 . S
Zn149 O155 2.114 . S
Zn149 O158 2.120 . S
Zn149 O160 2.120 . S
Zn149 O161 2.114 . S
Zn149 O164 2.080 . S
C150 O155 1.166 . S
C150 O156 1.182 . S
C151 O157 1.167 . S
C151 O158 1.299 . S
O152 Zn149 2.080 . S
O152 C166 1.305 . S
O153 Zn147 1.920 . S
O153 C166 1.234 . S
C154 O159 1.167 . S
C154 O160 1.299 . S
O155 Zn149 2.114 . S
O155 C150 1.166 . S
O156 Zn148 1.905 . S
O156 C150 1.182 . S
O157 Zn148 1.898 . S
O157 C151 1.167 . S
O158 Zn149 2.120 . S
O158 C151 1.299 . S
O159 Zn147 1.898 . S
O159 C154 1.167 . S
O160 Zn149 2.120 . S
O160 C154 1.299 . S
O161 Zn149 2.114 . S
O161 C163 1.166 . S
O162 Zn147 1.905 . S
O162 C163 1.182 . S
C163 O161 1.166 . S
C163 O162 1.182 . S
O164 Zn149 2.080 . S
O164 C167 1.305 . S
O165 Zn148 1.920 . S
O165 C167 1.234 . S
C166 O152 1.305 . S
C166 O153 1.234 . S
C167 O164 1.305 . S
C167 O165 1.234 . S
H168 C180 0.930 . S
H169 C182 0.930 . S
H170 C183 0.930 . S
H171 C187 0.959 . S
H172 C187 0.959 . S
H173 C187 0.961 . S
H174 C188 0.960 . S
H175 C188 0.961 . S
H176 C188 0.959 . S
H177 C191 0.929 . S
H178 C192 0.931 . S
H179 C194 0.930 . S
C180 H168 0.930 . S
C180 C181 1.399 . S
C180 C185 1.399 . S
C181 C180 1.399 . S
C181 C182 1.376 . S
C182 H169 0.930 . S
C182 C181 1.376 . S
C182 C183 1.388 . S
C183 H170 0.930 . S
C183 C182 1.388 . S
C183 C184 1.390 . S
C184 C183 1.390 . S
C184 C185 1.394 . S
C184 C190 1.465 . S
C185 C180 1.399 . S
C185 C184 1.394 . S
C185 C186 1.516 . S
C186 C185 1.516 . S
C186 C187 1.502 . S
C186 C188 1.561 . S
C186 C189 1.526 . S
C187 H171 0.959 . S
C187 H172 0.959 . S
C187 H173 0.961 . S
C187 C186 1.502 . S
C188 H174 0.960 . S
C188 H175 0.961 . S
C188 H176 0.959 . S
C188 C186 1.561 . S
C189 C186 1.526 . S
C189 C190 1.396 . S
C189 C194 1.390 . S
C190 C184 1.465 . S
C190 C189 1.396 . S
C190 C191 1.399 . S
C191 H177 0.929 . S
C191 C190 1.399 . S
C191 C192 1.385 . S
C192 H178 0.931 . S
C192 C191 1.385 . S
C192 C193 1.389 . S
C193 C192 1.389 . S
C193 C194 1.387 . S
C194 H179 0.930 . S
C194 C189 1.390 . S
C194 C193 1.387 . S
H195 C207 0.930 . S
H196 C209 0.930 . S
H197 C210 0.930 . S
H198 C214 0.959 . S
H199 C214 0.959 . S
H200 C214 0.961 . S
H201 C215 0.960 . S
H202 C215 0.961 . S
H203 C215 0.959 . S
H204 C218 0.929 . S
H205 C219 0.931 . S
H206 C221 0.930 . S
C207 H195 0.930 . S
C207 C208 1.399 . S
C207 C212 1.399 . S
C208 C207 1.399 . S
C208 C209 1.376 . S
C209 H196 0.930 . S
C209 C208 1.376 . S
C209 C210 1.388 . S
C210 H197 0.930 . S
C210 C209 1.388 . S
C210 C211 1.390 . S
C211 C210 1.390 . S
C211 C212 1.394 . S
C211 C217 1.465 . S
C212 C207 1.399 . S
C212 C211 1.394 . S
C212 C213 1.516 . S
C213 C212 1.516 . S
C213 C214 1.502 . S
C213 C215 1.561 . S
C213 C216 1.526 . S
C214 H198 0.959 . S
C214 H199 0.959 . S
C214 H200 0.961 . S
C214 C213 1.502 . S
C215 H201 0.960 . S
C215 H202 0.961 . S
C215 H203 0.959 . S
C215 C213 1.561 . S
C216 C213 1.526 . S
C216 C217 1.396 . S
C216 C221 1.390 . S
C217 C211 1.465 . S
C217 C216 1.396 . S
C217 C218 1.399 . S
C218 H204 0.929 . S
C218 C217 1.399 . S
C218 C219 1.385 . S
C219 H205 0.931 . S
C219 C218 1.385 . S
C219 C220 1.389 . S
C220 C219 1.389 . S
C220 C221 1.387 . S
C221 H206 0.930 . S
C221 C216 1.390 . S
C221 C220 1.387 . S
H222 C234 0.930 . S
H223 C236 0.930 . S
H224 C237 0.930 . S
H225 C241 0.959 . S
H226 C241 0.959 . S
H227 C241 0.961 . S
H228 C242 0.960 . S
H229 C242 0.961 . S
H230 C242 0.959 . S
H231 C245 0.929 . S
H232 C246 0.931 . S
H233 C248 0.930 . S
C234 H222 0.930 . S
C234 C235 1.399 . S
C234 C239 1.399 . S
C235 C234 1.399 . S
C235 C236 1.376 . S
C236 H223 0.930 . S
C236 C235 1.376 . S
C236 C237 1.388 . S
C237 H224 0.930 . S
C237 C236 1.388 . S
C237 C238 1.390 . S
C238 C237 1.390 . S
C238 C239 1.394 . S
C238 C244 1.465 . S
C239 C234 1.399 . S
C239 C238 1.394 . S
C239 C240 1.516 . S
C240 C239 1.516 . S
C240 C241 1.502 . S
C240 C242 1.561 . S
C240 C243 1.526 . S
C241 H225 0.959 . S
C241 H226 0.959 . S
C241 H227 0.961 . S
C241 C240 1.502 . S
C242 H228 0.960 . S
C242 H229 0.961 . S
C242 H230 0.959 . S
C242 C240 1.561 . S
C243 C240 1.526 . S
C243 C244 1.396 . S
C243 C248 1.390 . S
C244 C238 1.465 . S
C244 C243 1.396 . S
C244 C245 1.399 . S
C245 H231 0.929 . S
C245 C244 1.399 . S
C245 C246 1.385 . S
C246 H232 0.931 . S
C246 C245 1.385 . S
C246 C247 1.389 . S
C247 C246 1.389 . S
C247 C248 1.387 . S
C248 H233 0.930 . S
C248 C243 1.390 . S
C248 C247 1.387 . S
H249 C261 0.930 . S
H250 C263 0.930 . S
H251 C264 0.930 . S
H252 C268 0.959 . S
H253 C268 0.959 . S
H254 C268 0.961 . S
H255 C269 0.960 . S
H256 C269 0.961 . S
H257 C269 0.959 . S
H258 C272 0.929 . S
H259 C273 0.931 . S
H260 C275 0.930 . S
C261 H249 0.930 . S
C261 C262 1.399 . S
C261 C266 1.399 . S
C262 C261 1.399 . S
C262 C263 1.376 . S
C263 H250 0.930 . S
C263 C262 1.376 . S
C263 C264 1.388 . S
C264 H251 0.930 . S
C264 C263 1.388 . S
C264 C265 1.390 . S
C265 C264 1.390 . S
C265 C266 1.394 . S
C265 C271 1.465 . S
C266 C261 1.399 . S
C266 C265 1.394 . S
C266 C267 1.516 . S
C267 C266 1.516 . S
C267 C268 1.502 . S
C267 C269 1.561 . S
C267 C270 1.526 . S
C268 H252 0.959 . S
C268 H253 0.959 . S
C268 H254 0.961 . S
C268 C267 1.502 . S
C269 H255 0.960 . S
C269 H256 0.961 . S
C269 H257 0.959 . S
C269 C267 1.561 . S
C270 C267 1.526 . S
C270 C271 1.396 . S
C270 C275 1.390 . S
C271 C265 1.465 . S
C271 C270 1.396 . S
C271 C272 1.399 . S
C272 H258 0.929 . S
C272 C271 1.399 . S
C272 C273 1.385 . S
C273 H259 0.931 . S
C273 C272 1.385 . S
C273 C274 1.389 . S
C274 C273 1.389 . S
C274 C275 1.387 . S
C275 H260 0.930 . S
C275 C270 1.390 . S
C275 C274 1.387 . S
H276 C288 0.930 . S
H277 C290 0.930 . S
H278 C291 0.930 . S
H279 C295 0.959 . S
H280 C295 0.959 . S
H281 C295 0.961 . S
H282 C296 0.960 . S
H283 C296 0.961 . S
H284 C296 0.959 . S
H285 C299 0.929 . S
H286 C300 0.931 . S
H287 C302 0.930 . S
C288 H276 0.930 . S
C288 C289 1.399 . S
C288 C293 1.399 . S
C289 C288 1.399 . S
C289 C290 1.376 . S
C290 H277 0.930 . S
C290 C289 1.376 . S
C290 C291 1.388 . S
C291 H278 0.930 . S
C291 C290 1.388 . S
C291 C292 1.390 . S
C292 C291 1.390 . S
C292 C293 1.394 . S
C292 C298 1.465 . S
C293 C288 1.399 . S
C293 C292 1.394 . S
C293 C294 1.516 . S
C294 C293 1.516 . S
C294 C295 1.502 . S
C294 C296 1.561 . S
C294 C297 1.526 . S
C295 H279 0.959 . S
C295 H280 0.959 . S
C295 H281 0.961 . S
C295 C294 1.502 . S
C296 H282 0.960 . S
C296 H283 0.961 . S
C296 H284 0.959 . S
C296 C294 1.561 . S
C297 C294 1.526 . S
C297 C298 1.396 . S
C297 C302 1.390 . S
C298 C292 1.465 . S
C298 C297 1.396 . S
C298 C299 1.399 . S
C299 H285 0.929 . S
C299 C298 1.399 . S
C299 C300 1.385 . S
C300 H286 0.931 . S
C300 C299 1.385 . S
C300 C301 1.389 . S
C301 C300 1.389 . S
C301 C302 1.387 . S
C302 H287 0.930 . S
C302 C297 1.390 . S
C302 C301 1.387 . S
H303 C315 0.930 . S
H304 C317 0.930 . S
H305 C318 0.930 . S
H306 C322 0.959 . S
H307 C322 0.959 . S
H308 C322 0.961 . S
H309 C323 0.960 . S
H310 C323 0.961 . S
H311 C323 0.959 . S
H312 C326 0.929 . S
H313 C327 0.931 . S
H314 C329 0.930 . S
C315 H303 0.930 . S
C315 C316 1.399 . S
C315 C320 1.399 . S
C316 C315 1.399 . S
C316 C317 1.376 . S
C317 H304 0.930 . S
C317 C316 1.376 . S
C317 C318 1.388 . S
C318 H305 0.930 . S
C318 C317 1.388 . S
C318 C319 1.390 . S
C319 C318 1.390 . S
C319 C320 1.394 . S
C319 C325 1.465 . S
C320 C315 1.399 . S
C320 C319 1.394 . S
C320 C321 1.516 . S
C321 C320 1.516 . S
C321 C322 1.502 . S
C321 C323 1.561 . S
C321 C324 1.526 . S
C322 H306 0.959 . S
C322 H307 0.959 . S
C322 H308 0.961 . S
C322 C321 1.502 . S
C323 H309 0.960 . S
C323 H310 0.961 . S
C323 H311 0.959 . S
C323 C321 1.561 . S
C324 C321 1.526 . S
C324 C325 1.396 . S
C324 C329 1.390 . S
C325 C319 1.465 . S
C325 C324 1.396 . S
C325 C326 1.399 . S
C326 H312 0.929 . S
C326 C325 1.399 . S
C326 C327 1.385 . S
C327 H313 0.931 . S
C327 C326 1.385 . S
C327 C328 1.389 . S
C328 C327 1.389 . S
C328 C329 1.387 . S
C329 H314 0.930 . S
C329 C324 1.390 . S
C329 C328 1.387 . S
H330 C342 0.930 . S
H331 C344 0.930 . S
H332 C345 0.930 . S
H333 C349 0.959 . S
H334 C349 0.959 . S
H335 C349 0.961 . S
H336 C350 0.960 . S
H337 C350 0.961 . S
H338 C350 0.959 . S
H339 C353 0.929 . S
H340 C354 0.931 . S
H341 C356 0.930 . S
C342 H330 0.930 . S
C342 C343 1.399 . S
C342 C347 1.399 . S
C343 C342 1.399 . S
C343 C344 1.376 . S
C344 H331 0.930 . S
C344 C343 1.376 . S
C344 C345 1.388 . S
C345 H332 0.930 . S
C345 C344 1.388 . S
C345 C346 1.390 . S
C346 C345 1.390 . S
C346 C347 1.394 . S
C346 C352 1.465 . S
C347 C342 1.399 . S
C347 C346 1.394 . S
C347 C348 1.516 . S
C348 C347 1.516 . S
C348 C349 1.502 . S
C348 C350 1.561 . S
C348 C351 1.526 . S
C349 H333 0.959 . S
C349 H334 0.959 . S
C349 H335 0.961 . S
C349 C348 1.502 . S
C350 H336 0.960 . S
C350 H337 0.961 . S
C350 H338 0.959 . S
C350 C348 1.561 . S
C351 C348 1.526 . S
C351 C352 1.396 . S
C351 C356 1.390 . S
C352 C346 1.465 . S
C352 C351 1.396 . S
C352 C353 1.399 . S
C353 H339 0.929 . S
C353 C352 1.399 . S
C353 C354 1.385 . S
C354 H340 0.931 . S
C354 C353 1.385 . S
C354 C355 1.389 . S
C355 C354 1.389 . S
C355 C356 1.387 . S
C356 H341 0.930 . S
C356 C351 1.390 . S
C356 C355 1.387 . S
H357 C369 0.930 . S
H358 C371 0.930 . S
H359 C372 0.930 . S
H360 C376 0.959 . S
H361 C376 0.959 . S
H362 C376 0.961 . S
H363 C377 0.960 . S
H364 C377 0.961 . S
H365 C377 0.959 . S
H366 C380 0.929 . S
H367 C381 0.931 . S
H368 C383 0.930 . S
C369 H357 0.930 . S
C369 C370 1.399 . S
C369 C374 1.399 . S
C370 C369 1.399 . S
C370 C371 1.376 . S
C371 H358 0.930 . S
C371 C370 1.376 . S
C371 C372 1.388 . S
C372 H359 0.930 . S
C372 C371 1.388 . S
C372 C373 1.390 . S
C373 C372 1.390 . S
C373 C374 1.394 . S
C373 C379 1.465 . S
C374 C369 1.399 . S
C374 C373 1.394 . S
C374 C375 1.516 . S
C375 C374 1.516 . S
C375 C376 1.502 . S
C375 C377 1.561 . S
C375 C378 1.526 . S
C376 H360 0.959 . S
C376 H361 0.959 . S
C376 H362 0.961 . S
C376 C375 1.502 . S
C377 H363 0.960 . S
C377 H364 0.961 . S
C377 H365 0.959 . S
C377 C375 1.561 . S
C378 C375 1.526 . S
C378 C379 1.396 . S
C378 C383 1.390 . S
C379 C373 1.465 . S
C379 C378 1.396 . S
C379 C380 1.399 . S
C380 H366 0.929 . S
C380 C379 1.399 . S
C380 C381 1.385 . S
C381 H367 0.931 . S
C381 C380 1.385 . S
C381 C382 1.389 . S
C382 C381 1.389 . S
C382 C383 1.387 . S
C383 H368 0.930 . S
C383 C378 1.390 . S
C383 C382 1.387 . S
H384 C396 0.930 . S
H385 C398 0.930 . S
H386 C399 0.930 . S
H387 C403 0.959 . S
H388 C403 0.959 . S
H389 C403 0.961 1_655 S
H390 C404 0.960 . S
H391 C404 0.961 . S
H392 C404 0.959 . S
H393 C407 0.929 . S
H394 C408 0.931 . S
H395 C410 0.930 . S
C396 H384 0.930 . S
C396 C397 1.399 . S
C396 C401 1.399 . S
C397 C396 1.399 . S
C397 C398 1.376 . S
C398 H385 0.930 . S
C398 C397 1.376 . S
C398 C399 1.388 . S
C399 H386 0.930 . S
C399 C398 1.388 . S
C399 C400 1.390 . S
C400 C399 1.390 . S
C400 C401 1.394 . S
C400 C406 1.465 1_655 S
C401 C396 1.399 . S
C401 C400 1.394 . S
C401 C402 1.516 . S
C402 C401 1.516 . S
C402 C403 1.502 1_655 S
C402 C404 1.561 . S
C402 C405 1.526 1_655 S
C403 H387 0.959 . S
C403 H388 0.959 . S
C403 H389 0.961 1_455 S
C403 C402 1.502 1_455 S
C404 H390 0.960 . S
C404 H391 0.961 . S
C404 H392 0.959 . S
C404 C402 1.561 . S
C405 C402 1.526 1_455 S
C405 C406 1.396 . S
C405 C410 1.390 . S
C406 C400 1.465 1_455 S
C406 C405 1.396 . S
C406 C407 1.399 . S
C407 H393 0.929 . S
C407 C406 1.399 . S
C407 C408 1.385 . S
C408 H394 0.931 . S
C408 C407 1.385 . S
C408 C409 1.389 . S
C409 C408 1.389 . S
C409 C410 1.387 . S
C410 H395 0.930 . S
C410 C405 1.390 . S
C410 C409 1.387 . S
H411 C423 0.930 . S
H412 C425 0.930 . S
H413 C426 0.908 1_565 S
H414 C430 0.959 . S
H415 C430 0.959 . S
H416 C430 0.961 . S
H417 C431 0.960 . S
H418 C431 0.961 . S
H419 C431 0.959 . S
H420 C434 0.929 . S
H421 C435 0.931 . S
H422 C437 0.930 . S
C423 H411 0.930 . S
C423 C424 1.399 . S
C423 C428 1.399 . S
C424 C423 1.399 . S
C424 C425 1.376 . S
C425 H412 0.930 . S
C425 C424 1.376 . S
C425 C426 1.388 . S
C426 H413 0.908 1_545 S
C426 C425 1.388 . S
C426 C427 1.390 . S
C427 C426 1.390 . S
C427 C428 1.394 . S
C427 C433 1.465 1_545 S
C428 C423 1.399 . S
C428 C427 1.394 . S
C428 C429 1.516 . S
C429 C428 1.516 . S
C429 C430 1.502 . S
C429 C431 1.561 . S
C429 C432 1.526 1_545 S
C430 H414 0.959 . S
C430 H415 0.959 . S
C430 H416 0.961 . S
C430 C429 1.502 . S
C431 H417 0.960 . S
C431 H418 0.961 . S
C431 H419 0.959 . S
C431 C429 1.561 . S
C432 C429 1.526 1_565 S
C432 C433 1.396 . S
C432 C437 1.390 . S
C433 C427 1.465 1_565 S
C433 C432 1.396 . S
C433 C434 1.399 . S
C434 H420 0.929 . S
C434 C433 1.399 . S
C434 C435 1.385 . S
C435 H421 0.931 . S
C435 C434 1.385 . S
C435 C436 1.389 . S
C436 C435 1.389 . S
C436 C437 1.387 . S
C437 H422 0.930 . S
C437 C432 1.390 . S
C437 C436 1.387 . S
H438 C450 0.930 . S
H439 C452 0.930 . S
H440 C453 0.930 . S
H441 C457 0.959 . S
H442 C457 0.959 . S
H443 C457 0.961 . S
H444 C458 0.960 1_655 S
H445 C458 0.961 . S
H446 C458 0.959 . S
H447 C461 0.929 . S
H448 C462 0.931 . S
H449 C464 0.930 . S
C450 H438 0.930 . S
C450 C451 1.399 . S
C450 C455 1.399 . S
C451 C450 1.399 . S
C451 C452 1.376 . S
C452 H439 0.930 . S
C452 C451 1.376 . S
C452 C453 1.388 . S
C453 H440 0.930 . S
C453 C452 1.388 . S
C453 C454 1.390 . S
C454 C453 1.390 . S
C454 C455 1.394 . S
C454 C460 1.465 1_655 S
C455 C450 1.399 . S
C455 C454 1.394 . S
C455 C456 1.516 . S
C456 C455 1.516 . S
C456 C457 1.502 . S
C456 C458 1.561 1_655 S
C456 C459 1.526 1_655 S
C457 H441 0.959 . S
C457 H442 0.959 . S
C457 H443 0.961 . S
C457 C456 1.502 . S
C458 H444 0.960 1_455 S
C458 H445 0.961 . S
C458 H446 0.959 . S
C458 C456 1.561 1_455 S
C459 C456 1.526 1_455 S
C459 C460 1.396 . S
C459 C464 1.390 . S
C460 C454 1.465 1_455 S
C460 C459 1.396 . S
C460 C461 1.399 . S
C461 H447 0.929 . S
C461 C460 1.399 . S
C461 C462 1.385 . S
C462 H448 0.931 . S
C462 C461 1.385 . S
C462 C463 1.389 . S
C463 C462 1.389 . S
C463 C464 1.387 . S
C464 H449 0.930 . S
C464 C459 1.390 . S
C464 C463 1.387 . S
H465 C477 0.930 . S
H466 C479 0.930 . S
H467 C480 0.930 . S
H468 C484 0.959 . S
H469 C484 0.959 . S
H470 C484 0.961 . S
H471 C485 0.960 . S
H472 C485 0.961 1_565 S
H473 C485 0.959 . S
H474 C488 0.929 . S
H475 C489 0.931 . S
H476 C491 0.930 . S
C477 H465 0.930 . S
C477 C478 1.399 . S
C477 C482 1.399 . S
C478 C477 1.399 . S
C478 C479 1.376 . S
C479 H466 0.930 . S
C479 C478 1.376 . S
C479 C480 1.388 . S
C480 H467 0.930 . S
C480 C479 1.388 . S
C480 C481 1.390 . S
C481 C480 1.390 . S
C481 C482 1.394 . S
C481 C487 1.465 1_545 S
C482 C477 1.399 . S
C482 C481 1.394 . S
C482 C483 1.516 1_545 S
C483 C482 1.516 1_565 S
C483 C484 1.502 . S
C483 C485 1.561 1_565 S
C483 C486 1.526 . S
C484 H468 0.959 . S
C484 H469 0.959 . S
C484 H470 0.961 . S
C484 C483 1.502 . S
C485 H471 0.960 . S
C485 H472 0.961 1_545 S
C485 H473 0.959 . S
C485 C483 1.561 1_545 S
C486 C483 1.526 . S
C486 C487 1.396 . S
C486 C491 1.390 . S
C487 C481 1.465 1_565 S
C487 C486 1.396 . S
C487 C488 1.399 . S
C488 H474 0.929 . S
C488 C487 1.399 . S
C488 C489 1.385 . S
C489 H475 0.931 . S
C489 C488 1.385 . S
C489 C490 1.389 . S
C490 C489 1.389 . S
C490 C491 1.387 . S
C491 H476 0.930 . S
C491 C486 1.390 . S
C491 C490 1.387 . S
H492 C504 0.930 . S
H493 C506 0.930 . S
H494 C507 0.930 . S
H495 C511 0.959 . S
H496 C511 0.959 . S
H497 C511 0.961 . S
H498 C512 0.960 . S
H499 C512 0.961 1_655 S
H500 C512 0.959 . S
H501 C515 0.929 . S
H502 C516 0.931 . S
H503 C518 0.930 . S
C504 H492 0.930 . S
C504 C505 1.399 . S
C504 C509 1.399 . S
C505 C504 1.399 . S
C505 C506 1.376 . S
C506 H493 0.930 . S
C506 C505 1.376 . S
C506 C507 1.388 . S
C507 H494 0.930 . S
C507 C506 1.388 . S
C507 C508 1.390 . S
C508 C507 1.390 . S
C508 C509 1.394 . S
C508 C514 1.465 1_455 S
C509 C504 1.399 . S
C509 C508 1.394 . S
C509 C510 1.516 1_455 S
C510 C509 1.516 1_655 S
C510 C511 1.502 . S
C510 C512 1.561 1_655 S
C510 C513 1.526 . S
C511 H495 0.959 . S
C511 H496 0.959 . S
C511 H497 0.961 . S
C511 C510 1.502 . S
C512 H498 0.960 . S
C512 H499 0.961 1_455 S
C512 H500 0.959 . S
C512 C510 1.561 1_455 S
C513 C510 1.526 . S
C513 C514 1.396 . S
C513 C518 1.390 . S
C514 C508 1.465 1_655 S
C514 C513 1.396 . S
C514 C515 1.399 . S
C515 H501 0.929 . S
C515 C514 1.399 . S
C515 C516 1.385 . S
C516 H502 0.931 . S
C516 C515 1.385 . S
C516 C517 1.389 . S
C517 C516 1.389 . S
C517 C518 1.387 . S
C518 H503 0.930 . S
C518 C513 1.390 . S
C518 C517 1.387 . S
H519 C531 0.930 . S
H520 C533 0.930 . S
H521 C534 0.930 . S
H522 C538 0.959 . S
H523 C538 0.959 . S
H524 C538 0.961 . S
H525 C539 0.960 . S
H526 C539 0.961 . S
H527 C539 0.959 . S
H528 C542 0.929 . S
H529 C543 0.931 . S
H530 C545 0.930 . S
C531 H519 0.930 . S
C531 C532 1.399 . S
C531 C536 1.399 . S
C532 C531 1.399 . S
C532 C533 1.376 . S
C533 H520 0.930 . S
C533 C532 1.376 . S
C533 C534 1.388 . S
C534 H521 0.930 . S
C534 C533 1.388 . S
C534 C535 1.390 . S
C535 C534 1.390 . S
C535 C536 1.394 . S
C535 C541 1.465 1_565 S
C536 C531 1.399 . S
C536 C535 1.394 . S
C536 C537 1.514 . S
C537 C536 1.514 . S
C537 C538 1.503 1_565 S
C537 C539 1.560 . S
C537 C540 1.528 1_565 S
C538 H522 0.959 . S
C538 H523 0.959 . S
C538 H524 0.961 . S
C538 C537 1.503 1_545 S
C539 H525 0.960 . S
C539 H526 0.961 . S
C539 H527 0.959 . S
C539 C537 1.560 . S
C540 C537 1.528 1_545 S
C540 C541 1.396 . S
C540 C545 1.390 . S
C541 C535 1.465 1_545 S
C541 C540 1.396 . S
C541 C542 1.399 . S
C542 H528 0.929 . S
C542 C541 1.399 . S
C542 C543 1.385 . S
C543 H529 0.931 . S
C543 C542 1.385 . S
C543 C544 1.389 . S
C544 C543 1.389 . S
C544 C545 1.387 . S
C545 H530 0.930 . S
C545 C540 1.390 . S
C545 C544 1.387 . S
H546 C558 0.930 . S
H547 C560 0.930 . S
H548 C561 0.930 1_455 S
H549 C565 0.959 . S
H550 C565 0.959 . S
H551 C565 0.961 . S
H552 C566 0.960 . S
H553 C566 0.961 1_455 S
H554 C566 0.959 1_455 S
H555 C569 0.929 . S
H556 C570 0.931 . S
H557 C572 0.930 . S
C558 H546 0.930 . S
C558 C559 1.399 . S
C558 C563 1.399 . S
C559 C558 1.399 . S
C559 C560 1.376 . S
C560 H547 0.930 . S
C560 C559 1.376 . S
C560 C561 1.388 . S
C561 H548 0.930 1_655 S
C561 C560 1.388 . S
C561 C562 1.390 . S
C562 C561 1.390 . S
C562 C563 1.394 . S
C562 C568 1.465 1_655 S
C563 C558 1.399 . S
C563 C562 1.394 . S
C563 C564 1.516 . S
C564 C563 1.516 . S
C564 C565 1.502 . S
C564 C566 1.561 . S
C564 C567 1.526 1_655 S
C565 H549 0.959 . S
C565 H550 0.959 . S
C565 H551 0.961 . S
C565 C564 1.502 . S
C566 H552 0.960 . S
C566 H553 0.961 1_655 S
C566 H554 0.959 1_655 S
C566 C564 1.561 . S
C567 C564 1.526 1_455 S
C567 C568 1.396 . S
C567 C572 1.390 . S
C568 C562 1.465 1_455 S
C568 C567 1.396 . S
C568 C569 1.399 . S
C569 H555 0.929 . S
C569 C568 1.399 . S
C569 C570 1.385 . S
C570 H556 0.931 . S
C570 C569 1.385 . S
C570 C571 1.389 . S
C571 C570 1.389 . S
C571 C572 1.387 . S
C572 H557 0.930 . S
C572 C567 1.390 . S
C572 C571 1.387 . S
H573 C585 0.930 . S
H574 C587 0.930 . S
H575 C588 0.930 1_545 S
H576 C592 0.959 . S
H577 C592 0.959 . S
H578 C592 0.961 . S
H579 C593 0.960 . S
H580 C593 0.961 . S
H581 C593 0.959 . S
H582 C596 0.929 . S
H583 C597 0.931 . S
H584 C599 0.930 . S
C585 H573 0.930 . S
C585 C586 1.399 . S
C585 C590 1.399 . S
C586 C585 1.399 . S
C586 C587 1.376 . S
C587 H574 0.930 . S
C587 C586 1.376 . S
C587 C588 1.388 . S
C588 H575 0.930 1_565 S
C588 C587 1.388 . S
C588 C589 1.390 . S
C589 C588 1.390 . S
C589 C590 1.394 . S
C589 C595 1.465 1_565 S
C590 C585 1.399 . S
C590 C589 1.394 . S
C590 C591 1.516 . S
C591 C590 1.516 . S
C591 C592 1.502 . S
C591 C593 1.561 . S
C591 C594 1.526 1_565 S
C592 H576 0.959 . S
C592 H577 0.959 . S
C592 H578 0.961 . S
C592 C591 1.502 . S
C593 H579 0.960 . S
C593 H580 0.961 . S
C593 H581 0.959 . S
C593 C591 1.561 . S
C594 C591 1.526 1_545 S
C594 C595 1.396 . S
C594 C599 1.390 . S
C595 C589 1.465 1_545 S
C595 C594 1.396 . S
C595 C596 1.399 . S
C596 H582 0.929 . S
C596 C595 1.399 . S
C596 C597 1.385 . S
C597 H583 0.931 . S
C597 C596 1.385 . S
C597 C598 1.389 . S
C598 C597 1.389 . S
C598 C599 1.387 . S
C599 H584 0.930 . S
C599 C594 1.390 . S
C599 C598 1.387 . S
H600 C612 0.930 . S
H601 C614 0.930 . S
H602 C615 0.930 . S
H603 C619 0.959 . S
H604 C619 0.959 . S
H605 C619 0.961 . S
H606 C620 0.960 . S
H607 C620 0.961 . S
H608 C620 0.959 . S
H609 C623 0.929 . S
H610 C624 0.931 . S
H611 C626 0.930 . S
C612 H600 0.930 . S
C612 C613 1.399 . S
C612 C617 1.399 . S
C613 C612 1.399 . S
C613 C614 1.376 . S
C614 H601 0.930 . S
C614 C613 1.376 . S
C614 C615 1.388 . S
C615 H602 0.930 . S
C615 C614 1.388 . S
C615 C616 1.390 . S
C616 C615 1.390 . S
C616 C617 1.394 . S
C616 C622 1.465 . S
C617 C612 1.399 . S
C617 C616 1.394 . S
C617 C618 1.516 . S
C618 C617 1.516 . S
C618 C619 1.502 . S
C618 C620 1.561 . S
C618 C621 1.526 . S
C619 H603 0.959 . S
C619 H604 0.959 . S
C619 H605 0.961 . S
C619 C618 1.502 . S
C620 H606 0.960 . S
C620 H607 0.961 . S
C620 H608 0.959 . S
C620 C618 1.561 . S
C621 C618 1.526 . S
C621 C622 1.396 . S
C621 C626 1.390 . S
C622 C616 1.465 . S
C622 C621 1.396 . S
C622 C623 1.399 . S
C623 H609 0.929 . S
C623 C622 1.399 . S
C623 C624 1.385 . S
C624 H610 0.931 . S
C624 C623 1.385 . S
C624 C625 1.389 . S
C625 C624 1.389 . S
C625 C626 1.387 . S
C626 H611 0.930 . S
C626 C621 1.390 . S
C626 C625 1.387 . S
H627 C639 0.930 . S
H628 C641 0.930 . S
H629 C642 0.930 . S
H630 C646 0.959 . S
H631 C646 0.959 . S
H632 C646 0.961 . S
H633 C647 0.960 . S
H634 C647 0.961 . S
H635 C647 0.959 . S
H636 C650 0.929 . S
H637 C651 0.931 . S
H638 C653 0.930 . S
C639 H627 0.930 . S
C639 C640 1.399 . S
C639 C644 1.399 . S
C640 C639 1.399 . S
C640 C641 1.376 . S
C641 H628 0.930 . S
C641 C640 1.376 . S
C641 C642 1.388 . S
C642 H629 0.930 . S
C642 C641 1.388 . S
C642 C643 1.390 . S
C643 C642 1.390 . S
C643 C644 1.394 . S
C643 C649 1.465 . S
C644 C639 1.399 . S
C644 C643 1.394 . S
C644 C645 1.516 . S
C645 C644 1.516 . S
C645 C646 1.502 . S
C645 C647 1.561 . S
C645 C648 1.526 . S
C646 H630 0.959 . S
C646 H631 0.959 . S
C646 H632 0.961 . S
C646 C645 1.502 . S
C647 H633 0.960 . S
C647 H634 0.961 . S
C647 H635 0.959 . S
C647 C645 1.561 . S
C648 C645 1.526 . S
C648 C649 1.396 . S
C648 C653 1.390 . S
C649 C643 1.465 . S
C649 C648 1.396 . S
C649 C650 1.399 . S
C650 H636 0.929 . S
C650 C649 1.399 . S
C650 C651 1.385 . S
C651 H637 0.931 . S
C651 C650 1.385 . S
C651 C652 1.389 . S
C652 C651 1.389 . S
C652 C653 1.387 . S
C653 H638 0.930 . S
C653 C648 1.390 . S
C653 C652 1.387 . S
H654 C666 0.930 . S
H655 C668 0.930 . S
H656 C669 0.930 . S
H657 C673 0.959 . S
H658 C673 0.959 . S
H659 C673 0.961 . S
H660 C674 0.960 . S
H661 C674 0.961 . S
H662 C674 0.959 . S
H663 C677 0.929 . S
H664 C678 0.931 . S
H665 C680 0.930 . S
C666 H654 0.930 . S
C666 C667 1.399 . S
C666 C671 1.399 . S
C667 C666 1.399 . S
C667 C668 1.376 . S
C668 H655 0.930 . S
C668 C667 1.376 . S
C668 C669 1.388 . S
C669 H656 0.930 . S
C669 C668 1.388 . S
C669 C670 1.390 . S
C670 C669 1.390 . S
C670 C671 1.394 . S
C670 C676 1.465 . S
C671 C666 1.399 . S
C671 C670 1.394 . S
C671 C672 1.516 . S
C672 C671 1.516 . S
C672 C673 1.502 . S
C672 C674 1.561 . S
C672 C675 1.526 . S
C673 H657 0.959 . S
C673 H658 0.959 . S
C673 H659 0.961 . S
C673 C672 1.502 . S
C674 H660 0.960 . S
C674 H661 0.961 . S
C674 H662 0.959 . S
C674 C672 1.561 . S
C675 C672 1.526 . S
C675 C676 1.396 . S
C675 C680 1.390 . S
C676 C670 1.465 . S
C676 C675 1.396 . S
C676 C677 1.399 . S
C677 H663 0.929 . S
C677 C676 1.399 . S
C677 C678 1.385 . S
C678 H664 0.931 . S
C678 C677 1.385 . S
C678 C679 1.389 . S
C679 C678 1.389 . S
C679 C680 1.387 . S
C680 H665 0.930 . S
C680 C675 1.390 . S
C680 C679 1.387 . S
H681 C693 0.930 . S
H682 C695 0.930 . S
H683 C696 0.930 . S
H684 C700 0.959 . S
H685 C700 0.959 . S
H686 C700 0.961 . S
H687 C701 0.960 . S
H688 C701 0.961 . S
H689 C701 0.959 . S
H690 C704 0.929 . S
H691 C705 0.931 . S
H692 C707 0.930 . S
C693 H681 0.930 . S
C693 C694 1.399 . S
C693 C698 1.399 . S
C694 C693 1.399 . S
C694 C695 1.376 . S
C695 H682 0.930 . S
C695 C694 1.376 . S
C695 C696 1.388 . S
C696 H683 0.930 . S
C696 C695 1.388 . S
C696 C697 1.390 . S
C697 C696 1.390 . S
C697 C698 1.394 . S
C697 C703 1.465 . S
C698 C693 1.399 . S
C698 C697 1.394 . S
C698 C699 1.516 . S
C699 C698 1.516 . S
C699 C700 1.502 . S
C699 C701 1.561 . S
C699 C702 1.526 . S
C700 H684 0.959 . S
C700 H685 0.959 . S
C700 H686 0.961 . S
C700 C699 1.502 . S
C701 H687 0.960 . S
C701 H688 0.961 . S
C701 H689 0.959 . S
C701 C699 1.561 . S
C702 C699 1.526 . S
C702 C703 1.396 . S
C702 C707 1.390 . S
C703 C697 1.465 . S
C703 C702 1.396 . S
C703 C704 1.399 . S
C704 H690 0.929 . S
C704 C703 1.399 . S
C704 C705 1.385 . S
C705 H691 0.931 . S
C705 C704 1.385 . S
C705 C706 1.389 . S
C706 C705 1.389 . S
C706 C707 1.387 . S
C707 H692 0.930 . S
C707 C702 1.390 . S
C707 C706 1.387 . S
H708 C720 0.930 . S
H709 C722 0.930 . S
H710 C723 0.930 . S
H711 C727 0.959 . S
H712 C727 0.959 . S
H713 C727 0.961 . S
H714 C728 0.960 . S
H715 C728 0.961 . S
H716 C728 0.959 . S
H717 C731 0.929 . S
H718 C732 0.931 . S
H719 C734 0.930 . S
C720 H708 0.930 . S
C720 C721 1.399 . S
C720 C725 1.399 . S
C721 C720 1.399 . S
C721 C722 1.376 . S
C722 H709 0.930 . S
C722 C721 1.376 . S
C722 C723 1.388 . S
C723 H710 0.930 . S
C723 C722 1.388 . S
C723 C724 1.390 . S
C724 C723 1.390 . S
C724 C725 1.394 . S
C724 C730 1.465 . S
C725 C720 1.399 . S
C725 C724 1.394 . S
C725 C726 1.516 . S
C726 C725 1.516 . S
C726 C727 1.502 . S
C726 C728 1.561 . S
C726 C729 1.526 . S
C727 H711 0.959 . S
C727 H712 0.959 . S
C727 H713 0.961 . S
C727 C726 1.502 . S
C728 H714 0.960 . S
C728 H715 0.961 . S
C728 H716 0.959 . S
C728 C726 1.561 . S
C729 C726 1.526 . S
C729 C730 1.396 . S
C729 C734 1.390 . S
C730 C724 1.465 . S
C730 C729 1.396 . S
C730 C731 1.399 . S
C731 H717 0.929 . S
C731 C730 1.399 . S
C731 C732 1.385 . S
C732 H718 0.931 . S
C732 C731 1.385 . S
C732 C733 1.389 . S
C733 C732 1.389 . S
C733 C734 1.387 . S
C734 H719 0.930 . S
C734 C729 1.390 . S
C734 C733 1.387 . S
H735 C747 0.930 . S
H736 C749 0.930 . S
H737 C750 0.930 . S
H738 C754 0.959 . S
H739 C754 0.959 . S
H740 C754 0.961 . S
H741 C755 0.960 . S
H742 C755 0.961 . S
H743 C755 0.959 . S
H744 C758 0.929 . S
H745 C759 0.931 . S
H746 C761 0.930 . S
C747 H735 0.930 . S
C747 C748 1.399 . S
C747 C752 1.399 . S
C748 C747 1.399 . S
C748 C749 1.376 . S
C749 H736 0.930 . S
C749 C748 1.376 . S
C749 C750 1.388 . S
C750 H737 0.930 . S
C750 C749 1.388 . S
C750 C751 1.390 . S
C751 C750 1.390 . S
C751 C752 1.394 . S
C751 C757 1.465 . S
C752 C747 1.399 . S
C752 C751 1.394 . S
C752 C753 1.516 . S
C753 C752 1.516 . S
C753 C754 1.502 . S
C753 C755 1.561 . S
C753 C756 1.526 . S
C754 H738 0.959 . S
C754 H739 0.959 . S
C754 H740 0.961 . S
C754 C753 1.502 . S
C755 H741 0.960 . S
C755 H742 0.961 . S
C755 H743 0.959 . S
C755 C753 1.561 . S
C756 C753 1.526 . S
C756 C757 1.396 . S
C756 C761 1.390 . S
C757 C751 1.465 . S
C757 C756 1.396 . S
C757 C758 1.399 . S
C758 H744 0.929 . S
C758 C757 1.399 . S
C758 C759 1.385 . S
C759 H745 0.931 . S
C759 C758 1.385 . S
C759 C760 1.389 . S
C760 C759 1.389 . S
C760 C761 1.387 . S
C761 H746 0.930 . S
C761 C756 1.390 . S
C761 C760 1.387 . S
H762 C774 0.930 . S
H763 C776 0.930 . S
H764 C777 0.930 . S
H765 C781 0.959 . S
H766 C781 0.959 . S
H767 C781 0.961 . S
H768 C782 0.960 . S
H769 C782 0.961 . S
H770 C782 0.959 . S
H771 C785 0.929 . S
H772 C786 0.931 . S
H773 C788 0.930 . S
C774 H762 0.930 . S
C774 C775 1.399 . S
C774 C779 1.399 . S
C775 C774 1.399 . S
C775 C776 1.376 . S
C776 H763 0.930 . S
C776 C775 1.376 . S
C776 C777 1.388 . S
C777 H764 0.930 . S
C777 C776 1.388 . S
C777 C778 1.390 . S
C778 C777 1.390 . S
C778 C779 1.394 . S
C778 C784 1.465 . S
C779 C774 1.399 . S
C779 C778 1.394 . S
C779 C780 1.516 . S
C780 C779 1.516 . S
C780 C781 1.502 . S
C780 C782 1.561 . S
C780 C783 1.526 . S
C781 H765 0.959 . S
C781 H766 0.959 . S
C781 H767 0.961 . S
C781 C780 1.502 . S
C782 H768 0.960 . S
C782 H769 0.961 . S
C782 H770 0.959 . S
C782 C780 1.561 . S
C783 C780 1.526 . S
C783 C784 1.396 . S
C783 C788 1.390 . S
C784 C778 1.465 . S
C784 C783 1.396 . S
C784 C785 1.399 . S
C785 H771 0.929 . S
C785 C784 1.399 . S
C785 C786 1.385 . S
C786 H772 0.931 . S
C786 C785 1.385 . S
C786 C787 1.389 . S
C787 C786 1.389 . S
C787 C788 1.387 . S
C788 H773 0.930 . S
C788 C783 1.390 . S
C788 C787 1.387 . S
H789 C801 0.930 . S
H790 C803 0.930 . S
H791 C804 0.930 . S
H792 C808 0.959 . S
H793 C808 0.959 . S
H794 C808 0.961 . S
H795 C809 0.960 . S
H796 C809 0.961 . S
H797 C809 0.959 . S
H798 C812 0.929 . S
H799 C813 0.931 . S
H800 C815 0.930 . S
C801 H789 0.930 . S
C801 C802 1.399 . S
C801 C806 1.399 . S
C802 C801 1.399 . S
C802 C803 1.376 . S
C803 H790 0.930 . S
C803 C802 1.376 . S
C803 C804 1.388 . S
C804 H791 0.930 . S
C804 C803 1.388 . S
C804 C805 1.390 . S
C805 C804 1.390 . S
C805 C806 1.394 . S
C805 C811 1.465 . S
C806 C801 1.399 . S
C806 C805 1.394 . S
C806 C807 1.516 . S
C807 C806 1.516 . S
C807 C808 1.502 . S
C807 C809 1.561 . S
C807 C810 1.526 . S
C808 H792 0.959 . S
C808 H793 0.959 . S
C808 H794 0.961 . S
C808 C807 1.502 . S
C809 H795 0.960 . S
C809 H796 0.961 . S
C809 H797 0.959 . S
C809 C807 1.561 . S
C810 C807 1.526 . S
C810 C811 1.396 . S
C810 C815 1.390 . S
C811 C805 1.465 . S
C811 C810 1.396 . S
C811 C812 1.399 . S
C812 H798 0.929 . S
C812 C811 1.399 . S
C812 C813 1.385 . S
C813 H799 0.931 . S
C813 C812 1.385 . S
C813 C814 1.389 . S
C814 C813 1.389 . S
C814 C815 1.387 . S
C815 H800 0.930 . S
C815 C810 1.390 . S
C815 C814 1.387 . S
C181 C133 1.330 . S
C193 C4 1.404 . S
C208 C25 1.407 . S
C220 C151 1.325 . S
C235 C88 1.339 . S
C247 C49 1.399 . S
C262 C70 1.290 . S
C274 C112 1.355 . S
C289 C100 1.209 . S
C301 C45 1.110 . S
C316 C66 1.133 . S
C328 C108 1.191 . S
C343 C129 1.220 . S
C355 C16 1.089 . S
C370 C37 1.163 . S
C382 C163 1.164 . S
C397 C28 1.370 . S
C409 C109 1.377 . S
C424 C130 1.406 . S
C436 C46 1.329 . S
C451 C154 1.350 . S
C463 C67 1.294 . S
C478 C7 1.343 . S
C490 C91 1.398 . S
C505 C79 1.090 . S
C517 C150 1.184 . S
C532 C87 1.107 . S
C544 C3 1.164 . S
C559 C24 1.218 . S
C571 C121 1.093 . S
C586 C58 1.200 . S
C598 C142 1.080 . S
C613 C167 1.100 . S
C625 C20 0.981 . S
C640 C41 0.970 . S
C652 C104 1.076 . S
C667 C61 1.107 . S
C679 C124 0.947 . S
C694 C145 0.949 . S
C706 C82 1.115 . S
C721 C125 1.106 . S
C733 C62 0.948 . S
C748 C146 1.048 . S
C760 C83 0.998 . S
C775 C166 0.947 . S
C787 C19 1.116 . S
C802 C103 1.061 . S
C814 C40 1.029 . S
