# Generated by pormake.
# Topology ure, (4)-cn, num edge types: 1
# Building blocks:
#     Node 0, Type 0, BuildingBlock: AZAVOO_clean_sbu_0, # of connection points: 4
#     Node 1, Type 0, BuildingBlock: AZAVOO_clean_sbu_0, # of connection points: 4
#     Node 2, Type 0, BuildingBlock: AZAVOO_clean_sbu_0, # of connection points: 4
#     Node 3, Type 0, BuildingBlock: AZAVOO_clean_sbu_0, # of connection points: 4
#     Node 4, Type 0, BuildingBlock: AZAVOO_clean_sbu_0, # of connection points: 4
#     Node 5, Type 0, BuildingBlock: AZAVOO_clean_sbu_0, # of connection points: 4
#     Node 6, Type 0, BuildingBlock: AZAVOO_clean_sbu_0, # of connection points: 4
#     Node 7, Type 0, BuildingBlock: AZAVOO_clean_sbu_0, # of connection points: 4
#     Node 8, Type 0, BuildingBlock: AZAVOO_clean_sbu_0, # of connection points: 4
#     Node 9, Type 0, BuildingBlock: AZAVOO_clean_sbu_0, # of connection points: 4
#     Node 10, Type 0, BuildingBlock: AZAVOO_clean_sbu_0, # of connection points: 4
#     Node 11, Type 0, BuildingBlock: AZAVOO_clean_sbu_0, # of connection points: 4
#     Node 12, Type 0, BuildingBlock: AZAVOO_clean_sbu_0, # of connection points: 4
#     Node 13, Type 0, BuildingBlock: AZAVOO_clean_sbu_0, # of connection points: 4
#     Node 14, Type 0, BuildingBlock: AZAVOO_clean_sbu_0, # of connection points: 4
#     Node 15, Type 0, BuildingBlock: AZAVOO_clean_sbu_0, # of connection points: 4
#     Edge 16, Type (0, 0), BuildingBlock: AJUNOK_clean_linker_0, # of connection points: 2
#     Edge 17, Type (0, 0), BuildingBlock: AJUNOK_clean_linker_0, # of connection points: 2
#     Edge 18, Type (0, 0), BuildingBlock: AJUNOK_clean_linker_0, # of connection points: 2
#     Edge 19, Type (0, 0), BuildingBlock: AJUNOK_clean_linker_0, # of connection points: 2
#     Edge 20, Type (0, 0), BuildingBlock: AJUNOK_clean_linker_0, # of connection points: 2
#     Edge 21, Type (0, 0), BuildingBlock: AJUNOK_clean_linker_0, # of connection points: 2
#     Edge 22, Type (0, 0), BuildingBlock: AJUNOK_clean_linker_0, # of connection points: 2
#     Edge 23, Type (0, 0), BuildingBlock: AJUNOK_clean_linker_0, # of connection points: 2
#     Edge 24, Type (0, 0), BuildingBlock: AJUNOK_clean_linker_0, # of connection points: 2
#     Edge 25, Type (0, 0), BuildingBlock: AJUNOK_clean_linker_0, # of connection points: 2
#     Edge 26, Type (0, 0), BuildingBlock: AJUNOK_clean_linker_0, # of connection points: 2
#     Edge 27, Type (0, 0), BuildingBlock: AJUNOK_clean_linker_0, # of connection points: 2
#     Edge 28, Type (0, 0), BuildingBlock: AJUNOK_clean_linker_0, # of connection points: 2
#     Edge 29, Type (0, 0), BuildingBlock: AJUNOK_clean_linker_0, # of connection points: 2
#     Edge 30, Type (0, 0), BuildingBlock: AJUNOK_clean_linker_0, # of connection points: 2
#     Edge 31, Type (0, 0), BuildingBlock: AJUNOK_clean_linker_0, # of connection points: 2
#     Edge 32, Type (0, 0), BuildingBlock: AJUNOK_clean_linker_0, # of connection points: 2
#     Edge 33, Type (0, 0), BuildingBlock: AJUNOK_clean_linker_0, # of connection points: 2
#     Edge 34, Type (0, 0), BuildingBlock: AJUNOK_clean_linker_0, # of connection points: 2
#     Edge 35, Type (0, 0), BuildingBlock: AJUNOK_clean_linker_0, # of connection points: 2
#     Edge 36, Type (0, 0), BuildingBlock: AJUNOK_clean_linker_0, # of connection points: 2
#     Edge 37, Type (0, 0), BuildingBlock: AJUNOK_clean_linker_0, # of connection points: 2
#     Edge 38, Type (0, 0), BuildingBlock: AJUNOK_clean_linker_0, # of connection points: 2
#     Edge 39, Type (0, 0), BuildingBlock: AJUNOK_clean_linker_0, # of connection points: 2
#     Edge 40, Type (0, 0), BuildingBlock: AJUNOK_clean_linker_0, # of connection points: 2
#     Edge 41, Type (0, 0), BuildingBlock: AJUNOK_clean_linker_0, # of connection points: 2
#     Edge 42, Type (0, 0), BuildingBlock: AJUNOK_clean_linker_0, # of connection points: 2
#     Edge 43, Type (0, 0), BuildingBlock: AJUNOK_clean_linker_0, # of connection points: 2
#     Edge 44, Type (0, 0), BuildingBlock: AJUNOK_clean_linker_0, # of connection points: 2
#     Edge 45, Type (0, 0), BuildingBlock: AJUNOK_clean_linker_0, # of connection points: 2
#     Edge 46, Type (0, 0), BuildingBlock: AJUNOK_clean_linker_0, # of connection points: 2
#     Edge 47, Type (0, 0), BuildingBlock: AJUNOK_clean_linker_0, # of connection points: 2
# Relax obj value: 0.097
# Max RMSD: 0.075
# Mean RMSD: 0.072
data_MOF--net-ure--node1-AZAVOO_clean_sbu_0--edge1-AJUNOK_clean_linker_0
_symmetry_space_group_name_H-M    P1
_symmetry_Int_Tables_number       1
_symmetry_cell_setting            triclinic
loop_
_symmetry_equiv_pos_as_xyz
'x, y, z'
_cell_length_a     23.73216
_cell_length_b     23.508114
_cell_length_c     24.245297
_cell_angle_alpha  90.497959
_cell_angle_beta   90.339921
_cell_angle_gamma 91.797379
loop_
_atom_site_label
_atom_site_type_symbol
_atom_site_fract_x
_atom_site_fract_y
_atom_site_fract_z
_atom_type_partial_charge
Mg0 Mg 0.27147 0.22468 0.2571 0.0
O1 O 0.23523 0.31497 0.25577 0.0
O2 O 0.2581 0.35988 0.33416 0.0
Mg3 Mg 0.34256 0.31983 0.34988 0.0
C4 C 0.23093 0.35733 0.28864 0.0
C5 C 0.1703 0.20449 0.18266 0.0
O6 O 0.14482 0.2156 0.2293 0.0
O7 O 0.34819 0.25305 0.20726 0.0
O8 O 0.34926 0.33081 0.25584 0.0
O9 O 0.21414 0.20007 0.32515 0.0
O10 O 0.30104 0.23466 0.33857 0.0
C11 C 0.37448 0.29826 0.22288 0.0
C12 C 0.25392 0.21664 0.35891 0.0
O13 O 0.22357 0.20562 0.18085 0.0
Mg14 Mg 0.95042 0.9632 0.49538 0.0
O15 O 0.94597 0.06084 0.47623 0.0
O16 O 0.87305 0.09516 0.52249 0.0
Mg17 Mg 0.83577 0.02446 0.57393 0.0
C18 C 0.9144 0.10189 0.48989 0.0
C19 C 0.02911 0.91354 0.41288 0.0
O20 O 0.03714 0.95639 0.44727 0.0
O21 O -0.00633 0.9889 0.57524 0.0
O22 O 0.92053 0.02494 0.62051 0.0
O23 O 0.88592 0.93675 0.43305 0.0
O24 O 0.86631 0.95776 0.51951 0.0
C25 C 0.97261 0.01281 0.61746 0.0
C26 C 0.84865 0.94275 0.47126 0.0
O27 O 0.03462 0.95486 0.44708 0.0
Mg28 Mg 0.23782 0.7729 0.80393 0.0
O29 O 0.25619 0.677 0.79599 0.0
O30 O 0.20245 0.63534 0.86005 0.0
Mg31 Mg 0.16116 0.69927 0.91606 0.0
C32 C 0.23604 0.63251 0.81947 0.0
C33 C 0.31408 0.83018 0.71654 0.0
O34 O 0.32063 0.86406 0.75965 0.0
O35 O 0.14876 0.7553 0.76699 0.0
O36 O 0.10706 0.71948 0.84257 0.0
O37 O 0.30666 0.78843 0.86829 0.0
O38 O 0.21844 0.76647 0.88778 0.0
C39 C 0.10514 0.73636 0.79275 0.0
C40 C 0.26852 0.77775 0.90495 0.0
O41 O 0.28027 0.78731 0.72013 0.0
Mg42 Mg 0.52187 0.95023 0.95959 0.0
O43 O 0.50206 0.96188 0.0535 0.0
O44 O 0.54966 0.89453 0.0975 0.0
Mg45 Mg 0.59897 0.84165 0.03704 0.0
C46 C 0.51714 0.93667 0.09766 0.0
C47 C 0.44087 0.02459 0.89444 0.0
O48 O 0.43486 0.9733 0.87288 0.0
O49 O 0.61036 0.99477 0.97362 0.0
O50 O 0.64957 0.9222 0.01659 0.0
O51 O 0.45352 0.88099 0.94802 0.0
O52 O 0.54046 0.86454 0.97309 0.0
C53 C 0.65296 0.9723 -0.00327 0.0
C54 C 0.49063 0.84493 0.96258 0.0
O55 O 0.47627 0.0321 0.93398 0.0
Mg56 Mg 0.29063 0.70868 0.26746 0.0
O57 O 0.28826 0.73481 0.17425 0.0
O58 O 0.34721 0.6754 0.13358 0.0
Mg59 Mg 0.39077 0.61998 0.19472 0.0
C60 C 0.31192 0.71501 0.1311 0.0
C61 C 0.21564 0.80942 0.30097 0.0
O62 O 0.26579 0.83465 0.30202 0.0
O63 O 0.23921 0.62681 0.2492 0.0
O64 O 0.30555 0.57497 0.21011 0.0
O65 O 0.36089 0.76964 0.28833 0.0
O66 O 0.37503 0.68212 0.26073 0.0
C67 C 0.25551 0.58042 0.22782 0.0
C68 C 0.39624 0.73095 0.27586 0.0
O69 O 0.21116 0.75757 0.28563 0.0
Mg70 Mg 0.47821 0.9899 0.43413 0.0
O71 O 0.57583 0.97504 0.43967 0.0
O72 O 0.61291 0.04306 0.38636 0.0
Mg73 Mg 0.54742 0.09608 0.34502 0.0
C74 C 0.61872 0.00133 0.41874 0.0
C75 C 0.42747 0.89282 0.51211 0.0
O76 O 0.40946 0.87026 0.46523 0.0
O77 O 0.48737 0.06906 0.48953 0.0
O78 O 0.52737 0.13063 0.43102 0.0
O79 O 0.46563 0.93314 0.35876 0.0
O80 O 0.48709 0.02439 0.35446 0.0
C81 C 0.50769 0.11841 0.47843 0.0
C82 C 0.47647 0.97728 0.32865 0.0
O83 O 0.45909 0.93753 0.51135 0.0
Mg84 Mg 0.2687 0.29815 0.7154 0.0
O85 O 0.17167 0.2894 0.73447 0.0
O86 O 0.13314 0.35813 0.68509 0.0
Mg87 Mg 0.19855 0.41124 0.63872 0.0
C88 C 0.12843 0.31599 0.71771 0.0
C89 C 0.32473 0.21718 0.79815 0.0
O90 O 0.34218 0.26827 0.81421 0.0
O91 O 0.25225 0.25842 0.62855 0.0
O92 O 0.21266 0.33173 0.58612 0.0
O93 O 0.28291 0.3632 0.78313 0.0
O94 O 0.26219 0.38473 0.69732 0.0
C95 C 0.23021 0.2809 0.5858 0.0
C96 C 0.27283 0.40151 0.74684 0.0
O97 O 0.29003 0.21301 0.75766 0.0
Mg98 Mg 0.01511 0.98062 0.94416 0.0
O99 O 0.92396 0.00885 0.95434 0.0
O100 O 0.87097 0.9651 0.88996 0.0
Mg101 Mg 0.92766 0.90472 0.84382 0.0
C102 C 0.87667 -0.00011 0.93028 0.0
C103 C 0.07972 0.05937 0.0124 0.0
O104 O 0.1074 0.05303 0.96613 0.0
O105 O -0.00654 0.89954 -0.00997 0.0
O106 O 0.94114 0.85511 0.92462 0.0
O107 O 0.0335 0.0437 0.87759 0.0
O108 O 0.0045 0.95438 0.86375 0.0
C109 C 0.96397 0.85675 0.97264 0.0
C110 C 0.02122 0.00231 0.8437 0.0
O111 O 0.03593 0.02864 0.02061 0.0
Mg112 Mg 0.79328 0.21288 0.77117 0.0
O113 O 0.7851 0.22995 0.67677 0.0
O114 O 0.85285 0.18046 0.63604 0.0
Mg115 Mg 0.90006 0.1313 0.70036 0.0
C116 C 0.81221 0.21446 0.63392 0.0
C117 C 0.70808 0.3045 0.81216 0.0
O118 O 0.75545 0.33488 0.81446 0.0
O119 O 0.75032 0.12334 0.75999 0.0
O120 O 0.81963 0.07811 0.71791 0.0
O121 O 0.85893 0.284 0.77844 0.0
O122 O 0.87902 0.19454 0.76261 0.0
C123 C 0.76996 0.07848 0.73789 0.0
C124 C 0.89636 0.24654 0.76843 0.0
O125 O 0.70879 0.25422 0.79201 0.0
Mg126 Mg 0.96148 0.5045 0.93158 0.0
O127 O 0.058 0.49539 0.93422 0.0
O128 O 0.09333 0.56525 0.88162 0.0
Mg129 Mg 0.0227 0.61089 0.83807 0.0
C130 C 0.0997 0.52352 0.91403 0.0
C131 C 0.90159 0.43304 0.01288 0.0
O132 O 0.86488 0.44567 0.97444 0.0
O133 O 0.96736 0.58455 0.98512 0.0
O134 O 0.00081 0.64602 0.92212 0.0
O135 O 0.95481 0.44634 0.85867 0.0
O136 O 0.96335 0.54017 0.8539 0.0
C137 C 0.98347 0.63443 0.97058 0.0
C138 C 0.95883 0.49196 0.82914 0.0
O139 O 0.95261 0.44907 0.00658 0.0
Mg140 Mg 0.76241 0.81446 0.22544 0.0
O141 O 0.67061 0.79507 0.25235 0.0
O142 O 0.61577 0.85519 0.20696 0.0
Mg143 Mg 0.66794 0.91013 0.1491 0.0
C144 C 0.62241 0.81486 0.24093 0.0
C145 C 0.83377 0.7384 0.30578 0.0
O146 O 0.8557 0.78916 0.31721 0.0
O147 O 0.74264 0.76518 0.14547 0.0
O148 O 0.68972 0.82927 0.10327 0.0
O149 O 0.77332 0.89012 0.28433 0.0
O150 O 0.74209 0.89633 0.19918 0.0
C151 C 0.71329 0.78128 0.10437 0.0
C152 C 0.75476 0.92113 0.24473 0.0
O153 O 0.79367 0.73429 0.27052 0.0
Mg154 Mg 0.00665 0.44998 0.46648 0.0
O155 O 0.98266 0.48183 0.55551 0.0
O156 O 0.03382 0.41818 0.59701 0.0
Mg157 Mg 0.07829 0.34933 0.55971 0.0
C158 C 0.00322 0.46088 0.59932 0.0
C159 C 0.92805 0.53228 0.39984 0.0
O160 O 0.90231 0.48307 0.38922 0.0
O161 O 0.10094 0.48553 0.47274 0.0
O162 O 0.13511 0.4144 0.52181 0.0
O163 O 0.93535 0.38077 0.4619 0.0
O164 O 0.01938 0.36415 0.49287 0.0
C165 C 0.14254 0.45956 0.49405 0.0
C166 C 0.96985 0.34451 0.4816 0.0
O167 O 0.97233 0.53312 0.42999 0.0
Mg168 Mg 0.43369 0.46697 -0.00626 0.0
O169 O 0.45088 0.56403 0.97899 0.0
O170 O 0.38668 0.60633 0.03128 0.0
Mg171 Mg 0.32375 0.54362 0.06909 0.0
C172 C 0.42893 0.60861 -0.00068 0.0
C173 C 0.51399 0.39388 0.92901 0.0
O174 O 0.46564 0.36515 0.93029 0.0
O175 O 0.47088 0.47649 0.08259 0.0
O176 O 0.39622 0.51618 0.12112 0.0
O177 O 0.36967 0.45978 0.9234 0.0
O178 O 0.34913 0.4814 0.00917 0.0
C179 C 0.44487 0.49511 0.12499 0.0
C180 C 0.33249 0.47379 0.9594 0.0
O181 O 0.51734 0.44209 0.95352 0.0
Mg182 Mg 0.75851 0.71049 0.77554 0.0
O183 O 0.73518 0.80644 0.76791 0.0
O184 O 0.76466 0.85406 0.84336 0.0
Mg185 Mg 0.84299 0.80408 0.85932 0.0
C186 C 0.73659 0.8514 0.79833 0.0
C187 C 0.65504 0.68825 0.69995 0.0
O188 O 0.6282 0.69818 0.74609 0.0
O189 O 0.84132 0.72009 0.72592 0.0
O190 O 0.84663 0.80266 0.76552 0.0
O191 O 0.69878 0.70009 0.8459 0.0
O192 O 0.78922 0.72482 0.85572 0.0
C193 C 0.87087 0.76423 0.7386 0.0
C194 C 0.74055 0.71547 0.87781 0.0
O195 O 0.70847 0.69075 0.69945 0.0
Mg196 Mg 0.73348 0.29478 0.30607 0.0
O197 O 0.73119 0.19909 0.27832 0.0
O198 O 0.67015 0.1539 0.33436 0.0
Mg199 Mg 0.63668 0.21262 0.40129 0.0
C200 C 0.7034 0.15411 0.29295 0.0
C201 C 0.82979 0.33575 0.22129 0.0
O202 O 0.86551 0.33212 0.26261 0.0
O203 O 0.64948 0.30903 0.25855 0.0
O204 O 0.61887 0.25925 0.3269 0.0
O205 O 0.80003 0.2814 0.37267 0.0
O206 O 0.70991 0.26949 0.38874 0.0
C207 C 0.60829 0.28615 0.28391 0.0
C208 C 0.76042 0.26813 0.40697 0.0
O209 O 0.77829 0.32142 0.22792 0.0
Mg210 Mg 0.51153 0.46691 0.45174 0.0
O211 O 0.41528 0.48191 0.44968 0.0
O212 O 0.38257 0.42386 0.38292 0.0
Mg213 Mg 0.45194 0.37235 0.34526 0.0
C214 C 0.37467 0.46098 0.4205 0.0
C215 C 0.5633 0.55221 0.52193 0.0
O216 O 0.59454 0.54394 0.47823 0.0
O217 O 0.49588 0.38471 0.49959 0.0
O218 O 0.4611 0.33101 0.42977 0.0
O219 O 0.52615 0.52913 0.38382 0.0
O220 O 0.51421 0.43643 0.37132 0.0
C221 C 0.47542 0.33764 0.48039 0.0
C222 C 0.52184 0.48594 0.35054 0.0
O223 O 0.5191 0.52123 0.52782 0.0
C224 C 0.09555 0.13797 0.14791 0.0
C225 C 0.1396 0.17727 0.13686 0.0
C226 C 0.0753 0.10072 0.10678 0.0
C227 C 0.09844 0.10203 0.0535 0.0
H228 H 0.0792 0.13333 0.18932 0.0
H229 H 0.04296 0.06926 0.11752 0.0
S230 S 0.20747 0.2048 0.00206 0.0
N231 N 0.20086 0.22078 0.06809 0.0
N232 N 0.1624 0.15113 -0.00987 0.0
C233 C 0.13958 0.1442 0.04104 0.0
C234 C 0.16021 0.18191 0.08297 0.0
C235 C 0.13119 0.91474 0.38354 0.0
C236 C 0.0761 0.89102 0.38059 0.0
C237 C 0.17559 0.88919 0.3557 0.0
C238 C 0.16667 0.83878 0.32445 0.0
H239 H 0.14042 0.95249 0.4083 0.0
H240 H 0.21753 0.90822 0.36031 0.0
S241 S 0.02886 0.76301 0.30071 0.0
N242 N 0.01412 0.81708 0.34152 0.0
N243 N 0.09743 0.76843 0.28974 0.0
C244 C 0.11128 0.81599 0.31977 0.0
C245 C 0.06612 0.84233 0.34772 0.0
C246 C 0.39776 0.91275 0.60888 0.0
C247 C 0.40266 0.87351 0.56513 0.0
C248 C 0.3695 0.89797 0.65751 0.0
C249 C 0.34494 0.84327 0.6647 0.0
H250 H 0.41437 0.95598 0.60503 0.0
H251 H 0.36606 0.93027 0.68932 0.0
S252 S 0.35208 0.72259 0.56538 0.0
N253 N 0.38458 0.77614 0.5338 0.0
N254 N 0.33171 0.74808 0.6255 0.0
C255 C 0.35125 0.80288 0.62207 0.0
C256 C 0.38002 0.81806 0.57229 0.0
C257 C 0.41654 0.12819 0.89176 0.0
C258 C 0.40792 0.07236 0.87146 0.0
C259 C 0.38825 0.17407 0.86875 0.0
C260 C 0.3498 0.16638 0.8244 0.0
H261 H 0.44616 0.13687 0.92517 0.0
H262 H 0.39754 0.21621 0.88552 0.0
S263 S 0.3084 0.02811 0.75854 0.0
N264 N 0.35521 0.01162 0.80594 0.0
N265 N 0.30235 0.09772 0.76319 0.0
C266 C 0.33922 0.11054 0.80491 0.0
C267 C 0.36815 0.0637 0.82824 0.0
C268 C 0.65476 0.38455 0.85453 0.0
C269 C 0.65653 0.3267 0.83879 0.0
C270 C 0.60887 0.40595 0.88376 0.0
C271 C 0.56263 0.37045 0.89847 0.0
H272 H 0.6894 0.4137 0.8446 0.0
H273 H 0.60966 0.45073 0.89473 0.0
S274 S 0.54689 0.21525 0.86884 0.0
N275 N 0.60793 0.23414 0.84116 0.0
N276 N 0.52203 0.27401 0.89579 0.0
C277 C 0.56368 0.31253 0.88278 0.0
C278 C 0.6104 0.29079 0.85302 0.0
C279 C 0.92107 0.3796 0.09961 0.0
C280 C 0.88264 0.40688 0.06503 0.0
C281 C 0.90391 0.35664 0.15032 0.0
C282 C 0.84778 0.36017 0.16799 0.0
H283 H 0.96464 0.37585 0.0874 0.0
H284 H 0.93466 0.33564 0.17557 0.0
S285 S 0.73234 0.4324 0.09505 0.0
N286 N 0.78696 0.43921 0.05367 0.0
N287 N 0.75482 0.39641 0.14854 0.0
C288 C 0.80928 0.38818 0.1341 0.0
C289 C 0.82667 0.4114 0.08269 0.0
C290 C 0.86399 0.58259 0.33454 0.0
C291 C 0.90497 0.58567 0.37693 0.0
C292 C 0.8409 0.63185 0.31231 0.0
C293 C 0.8575 0.68659 0.33156 0.0
H294 H 0.84976 0.54168 0.31788 0.0
H295 H 0.81008 0.62683 0.27936 0.0
S296 S 0.96087 0.71825 0.44454 0.0
N297 N 0.95978 0.64823 0.43857 0.0
N298 N 0.91596 0.74047 0.39778 0.0
C299 C 0.89784 0.69026 0.37463 0.0
C300 C 0.92167 0.64004 0.39695 0.0
C301 C 0.5547 0.5951 0.61598 0.0
C302 C 0.58148 0.5942 0.56436 0.0
C303 C 0.57621 0.62943 0.6591 0.0
C304 C 0.62521 0.66356 0.65183 0.0
H305 H 0.51852 0.56722 0.62403 0.0
H306 H 0.55643 0.62638 0.69917 0.0
S307 S 0.70432 0.68505 0.52184 0.0
N308 N 0.65456 0.63689 0.50624 0.0
N309 N 0.69497 0.70097 0.5875 0.0
C310 C 0.64947 0.66666 0.59925 0.0
C311 C 0.62761 0.63198 0.55541 0.0
C312 C 0.28529 0.21072 0.45723 0.0
C313 C 0.24331 0.22275 0.41826 0.0
C314 C 0.27833 0.22389 0.51347 0.0
C315 C 0.22987 0.25096 0.53176 0.0
H316 H 0.32433 0.19265 0.44376 0.0
H317 H 0.31255 0.21658 0.54199 0.0
S318 S 0.10474 0.28287 0.4464 0.0
N319 N 0.14958 0.25664 0.40219 0.0
N320 N 0.13631 0.28121 0.50719 0.0
C321 C 0.18605 0.25862 0.49346 0.0
C322 C 0.19285 0.24471 0.43674 0.0
C323 C 0.01126 0.06154 0.75954 0.0
C324 C 0.02376 0.00935 0.7837 0.0
C325 C 0.00254 0.06491 0.7025 0.0
C326 C 0.00519 0.01621 0.66884 0.0
H327 H 0.00447 0.09875 0.78496 0.0
H328 H 0.99066 0.10485 0.68485 0.0
S329 S 0.05539 0.87546 0.70973 0.0
N330 N 0.05283 0.91211 0.76806 0.0
N331 N 0.03453 0.91866 0.66098 0.0
C332 C 0.02568 0.96635 0.69137 0.0
C333 C 0.0349 0.96274 0.74913 0.0
C334 C 0.2887 0.70853 0.97714 0.0
C335 C 0.28265 0.76539 0.96251 0.0
C336 C 0.29439 0.69322 0.03233 0.0
C337 C 0.29657 0.73413 0.07503 0.0
H338 H 0.28749 0.67544 0.9457 0.0
H339 H 0.29604 0.6486 0.04202 0.0
S340 S 0.27235 0.888 0.05868 0.0
N341 N 0.27045 0.86229 -0.00505 0.0
N342 N 0.28476 0.83357 0.09927 0.0
C343 C 0.28757 0.79106 0.06125 0.0
C344 C 0.28025 0.80667 0.0047 0.0
C345 C 0.51962 0.00655 0.23838 0.0
C346 C 0.48004 0.97281 0.26748 0.0
C347 C 0.52904 -0.00236 0.1818 0.0
C348 C 0.49761 0.95595 0.15204 0.0
H349 H 0.54506 0.0384 0.25985 0.0
H350 H 0.56277 0.02165 0.16185 0.0
S351 S 0.37893 0.86717 0.2047 0.0
N352 N 0.40194 0.90371 0.25933 0.0
N353 N 0.42013 0.88665 0.15318 0.0
C354 C 0.45467 0.9255 0.1793 0.0
C355 C 0.44546 0.93419 0.23692 0.0
C356 C 0.47607 0.32063 0.20288 0.0
C357 C 0.43436 0.29171 0.23356 0.0
C358 C 0.5332 0.31756 0.21791 0.0
C359 C 0.54925 0.28703 0.26488 0.0
H360 H 0.46445 0.34606 0.16778 0.0
H361 H 0.5646 0.33976 0.19335 0.0
S362 S 0.45339 0.20379 0.3574 0.0
N363 N 0.41198 0.23015 0.31013 0.0
N364 N 0.51741 0.2265 0.34102 0.0
C365 C 0.50706 0.25741 0.29502 0.0
C366 C 0.45 0.25937 0.27871 0.0
C367 C 0.92014 0.25619 0.4446 0.0
C368 C 0.95569 0.28215 0.48488 0.0
C369 C 0.90835 0.19703 0.44409 0.0
C370 C 0.93431 0.16129 0.48206 0.0
H371 H 0.9011 0.28199 0.4133 0.0
H372 H 0.87836 0.17936 0.4143 0.0
S373 S 0.02979 0.20601 0.5967 0.0
N374 N 0.01365 0.26586 0.56613 0.0
N375 N -0.00337 0.15504 0.561 0.0
C376 C 0.97093 0.18608 0.52156 0.0
C377 C 0.98065 0.24632 0.52387 0.0
C378 C 0.9573 0.78435 0.79347 0.0
C379 C 0.93231 0.75898 0.7464 0.0
C380 C 0.01369 0.77792 0.80606 0.0
C381 C 0.04841 0.74641 0.77168 0.0
H382 H 0.93284 0.80773 0.82249 0.0
H383 H 0.03014 0.79726 0.84389 0.0
S384 S 0.00545 0.67233 0.64198 0.0
N385 N 0.94711 0.70159 0.66401 0.0
N386 N 0.05524 0.69004 0.6876 0.0
C387 C 0.02525 0.72169 0.72337 0.0
C388 C 0.96664 0.72772 0.7108 0.0
C389 C 0.47586 0.69984 0.02873 0.0
C390 C 0.45166 0.66585 0.98627 0.0
C391 C 0.48888 0.75778 0.02054 0.0
C392 C 0.47627 0.78401 0.97025 0.0
H393 H 0.48372 0.68172 0.0689 0.0
H394 H 0.50731 0.78254 0.05433 0.0
S395 S 0.41422 0.71317 0.84593 0.0
N396 N 0.41705 0.66189 0.89196 0.0
N397 N 0.4401 0.77134 0.87688 0.0
C398 C 0.45245 0.75041 0.92742 0.0
C399 C 0.44047 0.69111 0.93536 0.0
C400 C 0.53163 0.81916 0.29001 0.0
C401 C 0.57093 0.78671 0.26193 0.0
C402 C 0.47649 0.79825 0.29794 0.0
C403 C 0.45777 0.74531 0.27579 0.0
H404 H 0.54301 0.86195 0.30391 0.0
H405 H 0.4476 0.82499 0.31967 0.0
S406 S 0.54822 0.64039 0.20657 0.0
N407 N 0.59062 0.69635 0.21812 0.0
N408 N 0.48654 0.65712 0.23225 0.0
C409 C 0.49833 0.71042 0.25179 0.0
C410 C 0.555 0.73137 0.24468 0.0
C411 C 0.43983 0.1876 0.50838 0.0
C412 C 0.49454 0.16721 0.51378 0.0
C413 C 0.43121 0.24624 0.50712 0.0
C414 C 0.47661 0.2855 0.51326 0.0
H415 H 0.40548 0.15889 0.49566 0.0
H416 H 0.39088 0.26096 0.49326 0.0
S417 S 0.62289 0.25257 0.5512 0.0
N418 N 0.59121 0.18971 0.54093 0.0
N419 N 0.57419 0.30019 0.54153 0.0
C420 C 0.52865 0.26538 0.53064 0.0
C421 C 0.53788 0.20575 0.53019 0.0
C422 C 0.02415 0.31528 0.70115 0.0
C423 C 0.06997 0.29678 0.73304 0.0
C424 C 0.96825 0.29959 0.71338 0.0
C425 C 0.95563 0.26355 0.75752 0.0
H426 H 0.03141 0.3415 0.66555 0.0
H427 H 0.93476 0.31483 0.68732 0.0
S428 S 0.05805 0.20373 0.85557 0.0
N429 N 0.09766 0.24118 0.81235 0.0
N430 N -0.00774 0.21015 0.83433 0.0
C431 C 0.00036 0.24406 0.78983 0.0
C432 C 0.05758 0.26091 0.77785 0.0
C433 C 0.91692 0.76658 0.0008 0.0
C434 C 0.96503 0.80279 0.00287 0.0
C435 C 0.92156 0.70749 0.0032 0.0
C436 C 0.97487 0.68352 0.00636 0.0
H437 H 0.87676 0.78369 -0.00982 0.0
H438 H 0.88465 0.68095 -0.00679 0.0
S439 S 0.11165 0.76 0.02893 0.0
N440 N 0.06572 0.8109 0.02193 0.0
N441 N 0.07462 0.69942 0.02453 0.0
C442 C 0.02178 0.71924 0.01836 0.0
C443 C 0.01692 0.77942 0.0168 0.0
C444 C 0.19887 0.45598 0.3046 0.0
C445 C 0.20994 0.41165 0.26712 0.0
C446 C 0.20458 0.5131 0.28887 0.0
C447 C 0.22187 0.52737 0.23528 0.0
H448 H 0.19197 0.44675 0.34772 0.0
H449 H 0.20278 0.54568 0.32067 0.0
S450 S 0.23843 0.42814 0.11748 0.0
N451 N 0.22495 0.38646 0.17061 0.0
N452 N 0.23667 0.4939 0.14176 0.0
C453 C 0.22379 0.48387 0.19543 0.0
C454 C 0.21736 0.42575 0.21116 0.0
C455 C 0.7115 0.00815 0.79195 0.0
C456 C 0.73966 0.02238 0.7429 0.0
C457 C 0.7043 0.95112 0.80807 0.0
C458 C 0.72209 0.90649 0.77391 0.0
H459 H 0.69983 0.04095 0.82043 0.0
H460 H 0.68893 0.94218 0.84919 0.0
S461 S 0.78023 0.92104 0.63308 0.0
N462 N 0.77305 0.9871 0.65503 0.0
N463 N 0.75689 0.88014 0.68348 0.0
C464 C 0.74107 0.92005 0.72074 0.0
C465 C 0.75027 0.97802 0.70547 0.0
C466 C 0.25273 0.53922 0.95699 0.0
C467 C 0.27385 0.48553 0.94463 0.0
C468 C 0.19571 0.55046 0.94879 0.0
C469 C 0.15778 0.50822 0.92826 0.0
H470 H 0.28062 0.57276 0.97302 0.0
H471 H 0.18115 0.5926 0.95844 0.0
S472 S 0.19123 0.35908 0.8943 0.0
N473 N 0.25226 0.38865 0.91411 0.0
N474 N 0.14455 0.40963 0.89881 0.0
C475 C 0.17796 0.45371 0.91752 0.0
C476 C 0.23631 0.44249 0.9253 0.0
C477 C 0.67347 0.05345 0.27301 0.0
C478 C 0.71408 0.09786 0.26674 0.0
C479 C 0.68704 -0.00376 0.26645 0.0
C480 C 0.74174 0.98144 0.25211 0.0
H481 H 0.63177 0.06313 0.28668 0.0
H482 H 0.65492 0.96345 0.27386 0.0
S483 S 0.85959 0.08075 0.21547 0.0
N484 N 0.80872 0.12278 0.23502 0.0
N485 N 0.83382 0.01491 0.22091 0.0
C486 C 0.78108 0.02512 0.23922 0.0
C487 C 0.76726 0.08357 0.24635 0.0
C488 C 0.81058 0.97696 0.00422 0.0
C489 C 0.82502 0.01286 0.96041 0.0
C490 C 0.75469 0.97025 0.02103 0.0
C491 C 0.71091 -0.00153 -0.00613 0.0
H492 H 0.84164 0.94944 0.02188 0.0
H493 H 0.74539 0.9383 0.0519 0.0
S494 S 0.7329 0.11905 0.89771 0.0
N495 N 0.7959 0.09149 0.90385 0.0
N496 N 0.68973 0.07938 0.93585 0.0
C497 C 0.72656 0.04225 0.95714 0.0
C498 C 0.784 0.04893 0.93984 0.0
C499 C 0.20361 0.53325 0.79808 0.0
C500 C 0.24724 0.57518 0.7971 0.0
C501 C 0.21244 0.47709 0.78193 0.0
C502 C 0.26516 0.46096 0.76312 0.0
H503 H 0.16187 0.54407 0.81079 0.0
H504 H 0.17771 0.44612 0.78401 0.0
S505 S 0.39148 0.55528 0.74407 0.0
N506 N 0.34398 0.59751 0.77048 0.0
N507 N 0.36046 0.49148 0.73868 0.0
C508 C 0.3086 0.50266 0.75869 0.0
C509 C 0.29963 0.56007 0.77573 0.0
C510 C 0.22685 0.41675 0.45677 0.0
C511 C 0.20066 0.46706 0.47284 0.0
C512 C 0.28287 0.41654 0.44133 0.0
C513 C 0.31577 0.46687 0.43886 0.0
H514 H 0.20388 0.37623 0.45666 0.0
H515 H 0.30081 0.37579 0.4319 0.0
S516 S 0.26962 0.61054 0.47953 0.0
N517 N 0.21285 0.56901 0.48846 0.0
N518 N 0.31959 0.56904 0.45653 0.0
C519 C 0.29109 0.5181 0.45528 0.0
C520 C 0.23302 0.5182 0.47226 0.0
C521 C 0.76537 0.77191 0.96119 0.0
C522 C 0.7324 0.72799 0.93681 0.0
C523 C 0.76086 0.78536 0.01672 0.0
C524 C 0.72258 0.75588 0.05035 0.0
H525 H 0.79398 0.79778 0.9373 0.0
H526 H 0.78611 0.82098 0.03308 0.0
S527 S 0.62399 0.63835 0.00749 0.0
N528 N 0.65903 0.65476 0.95072 0.0
N529 N 0.64914 0.68186 0.05635 0.0
C530 C 0.68842 0.71199 0.02726 0.0
C531 C 0.69351 0.69773 0.97004 0.0
C532 C 0.4524 0.50733 0.28018 0.0
C533 C 0.50763 0.49363 0.2927 0.0
C534 C 0.43323 0.50593 0.226 0.0
C535 C 0.46897 0.49307 0.18153 0.0
H536 H 0.42297 0.51688 0.31277 0.0
H537 H 0.38924 0.51409 0.21943 0.0
S538 S 0.61868 0.45405 0.19436 0.0
N539 N 0.59832 0.46461 0.2586 0.0
N540 N 0.56331 0.46597 0.15484 0.0
C541 C 0.525 0.47956 0.19376 0.0
C542 C 0.5441 0.47914 0.24984 0.0
C543 C 0.80508 0.29228 0.49813 0.0
C544 C 0.77191 0.25439 0.46535 0.0
C545 C 0.81611 0.28077 0.55394 0.0
C546 C 0.79359 0.23136 0.57871 0.0
H547 H 0.82295 0.33088 0.48037 0.0
H548 H 0.84346 0.30987 0.5774 0.0
S549 S 0.703 0.1196 0.5123 0.0
N550 N 0.71513 0.16655 0.46308 0.0
N551 N 0.73691 0.14468 0.56732 0.0
C552 C 0.75977 0.19379 0.54689 0.0
C553 C 0.74829 0.20556 0.49039 0.0
C554 C 0.03139 0.46384 0.69664 0.0
C555 C -0.0071 0.48148 0.65596 0.0
C556 C 0.01874 0.46547 0.75229 0.0
C557 C 0.96895 0.48904 0.77006 0.0
H558 H 0.07104 0.44565 0.68534 0.0
H559 H 0.04851 0.44868 0.78161 0.0
S560 S 0.86022 0.5554 0.68361 0.0
N561 N 0.90563 0.53042 0.63859 0.0
N562 N 0.88488 0.53978 0.74541 0.0
C563 C 0.93265 0.5131 0.73119 0.0
C564 C 0.94408 0.50843 0.67347 0.0
C565 C 0.74426 0.92053 0.47539 0.0
C566 C 0.79037 0.9533 0.45577 0.0
C567 C 0.68851 0.9355 0.4629 0.0
C568 C 0.6776 0.98449 0.43181 0.0
H569 H 0.75132 0.88346 0.50042 0.0
H570 H 0.65398 0.90899 0.47817 0.0
S571 S 0.78722 0.08862 0.38149 0.0
N572 N 0.82319 0.03756 0.409 0.0
N573 N 0.7204 0.06846 0.38836 0.0
C574 C 0.72467 0.01799 0.41418 0.0
C575 C 0.78053 0.00177 0.42557 0.0
loop_
_geom_bond_atom_site_label_1
_geom_bond_atom_site_label_2
_geom_bond_distance
_geom_bond_site_symmetry_2
_ccdc_geom_bond_type
Mg0 O1 2.028 . S
Mg0 O7 1.986 . S
Mg0 O9 2.114 . S
Mg0 O10 2.251 . S
Mg0 O13 2.010 . S
O1 Mg0 2.028 . S
O1 C4 1.250 . S
O2 Mg3 2.028 . S
O2 C4 1.248 . S
Mg3 O2 2.028 . S
Mg3 O8 2.032 . S
Mg3 O10 2.079 . S
C4 O1 1.250 . S
C4 O2 1.248 . S
C5 O6 1.264 . S
C5 O13 1.249 . S
O6 C5 1.264 . S
O7 Mg0 1.986 . S
O7 C11 1.246 . S
O8 Mg3 2.032 . S
O8 C11 1.259 . S
O9 Mg0 2.114 . S
O9 C12 1.252 . S
O10 Mg0 2.251 . S
O10 Mg3 2.079 . S
O10 C12 1.273 . S
C11 O7 1.246 . S
C11 O8 1.259 . S
C12 O9 1.252 . S
C12 O10 1.273 . S
O13 Mg0 2.010 . S
O13 C5 1.249 . S
Mg14 O15 2.028 1_565 S
Mg14 O21 1.986 . S
Mg14 O23 2.114 . S
Mg14 O24 2.251 1_565 S
Mg14 O27 2.010 1_655 S
O15 Mg14 2.028 1_545 S
O15 C18 1.250 . S
O16 Mg17 2.028 . S
O16 C18 1.248 . S
Mg17 O16 2.028 . S
Mg17 O22 2.032 . S
Mg17 O24 2.079 . S
C18 O15 1.250 . S
C18 O16 1.248 . S
C19 O20 1.264 . S
C19 O27 1.249 . S
O20 C19 1.264 . S
O21 Mg14 1.986 . S
O21 C25 1.246 1_565 S
O22 Mg17 2.032 . S
O22 C25 1.259 . S
O23 Mg14 2.114 . S
O23 C26 1.252 1_565 S
O24 Mg14 2.251 1_545 S
O24 Mg17 2.079 . S
O24 C26 1.273 . S
C25 O21 1.246 1_545 S
C25 O22 1.259 . S
C26 O23 1.252 1_545 S
C26 O24 1.273 . S
O27 Mg14 2.010 1_455 S
O27 C19 1.249 . S
Mg28 O29 2.028 . S
Mg28 O35 1.986 . S
Mg28 O37 2.114 . S
Mg28 O38 2.251 . S
Mg28 O41 2.010 . S
O29 Mg28 2.028 . S
O29 C32 1.250 . S
O30 Mg31 2.028 . S
O30 C32 1.248 . S
Mg31 O30 2.028 . S
Mg31 O36 2.032 . S
Mg31 O38 2.079 . S
C32 O29 1.250 . S
C32 O30 1.248 . S
C33 O34 1.264 . S
C33 O41 1.249 . S
O34 C33 1.264 . S
O35 Mg28 1.986 . S
O35 C39 1.246 . S
O36 Mg31 2.032 . S
O36 C39 1.259 . S
O37 Mg28 2.114 . S
O37 C40 1.252 . S
O38 Mg28 2.251 . S
O38 Mg31 2.079 . S
O38 C40 1.273 . S
C39 O35 1.246 . S
C39 O36 1.259 . S
C40 O37 1.252 . S
C40 O38 1.273 . S
O41 Mg28 2.010 . S
O41 C33 1.249 . S
Mg42 O43 2.028 1_556 S
Mg42 O49 1.986 . S
Mg42 O51 2.114 . S
Mg42 O52 2.251 1_556 S
Mg42 O55 2.010 1_565 S
O43 Mg42 2.028 1_554 S
O43 C46 1.250 . S
O44 Mg45 2.028 . S
O44 C46 1.248 . S
Mg45 O44 2.028 . S
Mg45 O50 2.032 . S
Mg45 O52 2.079 . S
C46 O43 1.250 . S
C46 O44 1.248 . S
C47 O48 1.264 . S
C47 O55 1.249 . S
O48 C47 1.264 . S
O49 Mg42 1.986 . S
O49 C53 1.246 1_556 S
O50 Mg45 2.032 . S
O50 C53 1.259 . S
O51 Mg42 2.114 . S
O51 C54 1.252 1_556 S
O52 Mg42 2.251 1_554 S
O52 Mg45 2.079 . S
O52 C54 1.273 . S
C53 O49 1.246 1_554 S
C53 O50 1.259 . S
C54 O51 1.252 1_554 S
C54 O52 1.273 . S
O55 Mg42 2.010 1_545 S
O55 C47 1.249 . S
Mg56 O57 2.028 . S
Mg56 O63 1.986 . S
Mg56 O65 2.114 . S
Mg56 O66 2.251 . S
Mg56 O69 2.010 . S
O57 Mg56 2.028 . S
O57 C60 1.250 . S
O58 Mg59 2.028 . S
O58 C60 1.248 . S
Mg59 O58 2.028 . S
Mg59 O64 2.032 . S
Mg59 O66 2.079 . S
C60 O57 1.250 . S
C60 O58 1.248 . S
C61 O62 1.264 . S
C61 O69 1.249 . S
O62 C61 1.264 . S
O63 Mg56 1.986 . S
O63 C67 1.246 . S
O64 Mg59 2.032 . S
O64 C67 1.259 . S
O65 Mg56 2.114 . S
O65 C68 1.252 . S
O66 Mg56 2.251 . S
O66 Mg59 2.079 . S
O66 C68 1.273 . S
C67 O63 1.246 . S
C67 O64 1.259 . S
C68 O65 1.252 . S
C68 O66 1.273 . S
O69 Mg56 2.010 . S
O69 C61 1.249 . S
Mg70 O71 2.028 1_545 S
Mg70 O77 1.986 . S
Mg70 O79 2.114 1_545 S
Mg70 O80 2.251 . S
Mg70 O83 2.010 1_545 S
O71 Mg70 2.028 1_565 S
O71 C74 1.250 1_565 S
O72 Mg73 2.028 . S
O72 C74 1.248 . S
Mg73 O72 2.028 . S
Mg73 O78 2.032 . S
Mg73 O80 2.079 . S
C74 O71 1.250 1_545 S
C74 O72 1.248 . S
C75 O76 1.264 . S
C75 O83 1.249 . S
O76 C75 1.264 . S
O77 Mg70 1.986 . S
O77 C81 1.246 . S
O78 Mg73 2.032 . S
O78 C81 1.259 . S
O79 Mg70 2.114 1_565 S
O79 C82 1.252 . S
O80 Mg70 2.251 . S
O80 Mg73 2.079 . S
O80 C82 1.273 1_545 S
C81 O77 1.246 . S
C81 O78 1.259 . S
C82 O79 1.252 . S
C82 O80 1.273 1_565 S
O83 Mg70 2.010 1_565 S
O83 C75 1.249 . S
Mg84 O85 2.028 . S
Mg84 O91 1.986 . S
Mg84 O93 2.114 . S
Mg84 O94 2.251 . S
Mg84 O97 2.010 . S
O85 Mg84 2.028 . S
O85 C88 1.250 . S
O86 Mg87 2.028 . S
O86 C88 1.248 . S
Mg87 O86 2.028 . S
Mg87 O92 2.032 . S
Mg87 O94 2.079 . S
C88 O85 1.250 . S
C88 O86 1.248 . S
C89 O90 1.264 . S
C89 O97 1.249 . S
O90 C89 1.264 . S
O91 Mg84 1.986 . S
O91 C95 1.246 . S
O92 Mg87 2.032 . S
O92 C95 1.259 . S
O93 Mg84 2.114 . S
O93 C96 1.252 . S
O94 Mg84 2.251 . S
O94 Mg87 2.079 . S
O94 C96 1.273 . S
C95 O91 1.246 . S
C95 O92 1.259 . S
C96 O93 1.252 . S
C96 O94 1.273 . S
O97 Mg84 2.010 . S
O97 C89 1.249 . S
Mg98 O99 2.025 1_455 S
Mg98 O105 1.986 . S
Mg98 O107 2.113 1_465 S
Mg98 O108 2.250 1_455 S
Mg98 O111 2.012 1_566 S
O99 Mg98 2.025 1_655 S
O99 C102 1.250 . S
O100 Mg101 2.028 . S
O100 C102 1.248 . S
Mg101 O100 2.028 . S
Mg101 O106 2.032 . S
Mg101 O108 2.079 . S
C102 O99 1.250 . S
C102 O100 1.248 . S
C103 O104 1.264 . S
C103 O111 1.249 . S
O104 C103 1.264 . S
O105 Mg98 1.986 . S
O105 C109 1.246 1_455 S
O106 Mg101 2.032 . S
O106 C109 1.259 . S
O107 Mg98 2.113 1_645 S
O107 C110 1.252 . S
O108 Mg98 2.250 1_655 S
O108 Mg101 2.079 . S
O108 C110 1.273 1_565 S
C109 O105 1.246 1_655 S
C109 O106 1.259 . S
C110 O107 1.252 . S
C110 O108 1.273 1_545 S
O111 Mg98 2.012 1_544 S
O111 C103 1.249 . S
Mg112 O113 2.028 . S
Mg112 O119 1.986 . S
Mg112 O121 2.114 . S
Mg112 O122 2.251 . S
Mg112 O125 2.010 . S
O113 Mg112 2.028 . S
O113 C116 1.250 . S
O114 Mg115 2.028 . S
O114 C116 1.248 . S
Mg115 O114 2.028 . S
Mg115 O120 2.032 . S
Mg115 O122 2.079 . S
C116 O113 1.250 . S
C116 O114 1.248 . S
C117 O118 1.264 . S
C117 O125 1.249 . S
O118 C117 1.264 . S
O119 Mg112 1.986 . S
O119 C123 1.246 . S
O120 Mg115 2.032 . S
O120 C123 1.259 . S
O121 Mg112 2.114 . S
O121 C124 1.252 . S
O122 Mg112 2.251 . S
O122 Mg115 2.079 . S
O122 C124 1.273 . S
C123 O119 1.246 . S
C123 O120 1.259 . S
C124 O121 1.252 . S
C124 O122 1.273 . S
O125 Mg112 2.010 . S
O125 C117 1.249 . S
Mg126 O127 2.028 1_655 S
Mg126 O133 1.986 . S
Mg126 O135 2.114 . S
Mg126 O136 2.251 1_655 S
Mg126 O139 2.010 1_556 S
O127 Mg126 2.028 1_455 S
O127 C130 1.250 . S
O128 Mg129 2.028 . S
O128 C130 1.248 . S
Mg129 O128 2.028 . S
Mg129 O134 2.032 . S
Mg129 O136 2.079 . S
C130 O127 1.250 . S
C130 O128 1.248 . S
C131 O132 1.264 . S
C131 O139 1.249 . S
O132 C131 1.264 . S
O133 Mg126 1.986 . S
O133 C137 1.246 1_655 S
O134 Mg129 2.032 . S
O134 C137 1.259 . S
O135 Mg126 2.114 . S
O135 C138 1.252 1_655 S
O136 Mg126 2.251 1_455 S
O136 Mg129 2.079 . S
O136 C138 1.273 . S
C137 O133 1.246 1_455 S
C137 O134 1.259 . S
C138 O135 1.252 1_455 S
C138 O136 1.273 . S
O139 Mg126 2.010 1_554 S
O139 C131 1.249 . S
Mg140 O141 2.028 . S
Mg140 O147 1.986 . S
Mg140 O149 2.114 . S
Mg140 O150 2.251 . S
Mg140 O153 2.010 . S
O141 Mg140 2.028 . S
O141 C144 1.250 . S
O142 Mg143 2.028 . S
O142 C144 1.248 . S
Mg143 O142 2.028 . S
Mg143 O148 2.032 . S
Mg143 O150 2.079 . S
C144 O141 1.250 . S
C144 O142 1.248 . S
C145 O146 1.264 . S
C145 O153 1.249 . S
O146 C145 1.264 . S
O147 Mg140 1.986 . S
O147 C151 1.246 . S
O148 Mg143 2.032 . S
O148 C151 1.259 . S
O149 Mg140 2.114 . S
O149 C152 1.252 . S
O150 Mg140 2.251 . S
O150 Mg143 2.079 . S
O150 C152 1.273 . S
C151 O147 1.246 . S
C151 O148 1.259 . S
C152 O149 1.252 . S
C152 O150 1.273 . S
O153 Mg140 2.010 . S
O153 C145 1.249 . S
Mg154 O155 2.028 . S
Mg154 O161 1.986 . S
Mg154 O163 2.114 1_455 S
Mg154 O164 2.251 . S
Mg154 O167 2.010 1_455 S
O155 Mg154 2.028 . S
O155 C158 1.250 . S
O156 Mg157 2.028 . S
O156 C158 1.248 . S
Mg157 O156 2.028 . S
Mg157 O162 2.032 . S
Mg157 O164 2.079 . S
C158 O155 1.250 . S
C158 O156 1.248 . S
C159 O160 1.264 . S
C159 O167 1.249 . S
O160 C159 1.264 . S
O161 Mg154 1.986 . S
O161 C165 1.246 . S
O162 Mg157 2.032 . S
O162 C165 1.259 . S
O163 Mg154 2.114 1_655 S
O163 C166 1.252 . S
O164 Mg154 2.251 . S
O164 Mg157 2.079 . S
O164 C166 1.273 1_455 S
C165 O161 1.246 . S
C165 O162 1.259 . S
C166 O163 1.252 . S
C166 O164 1.273 1_655 S
O167 Mg154 2.010 1_655 S
O167 C159 1.249 . S
Mg168 O169 2.028 1_554 S
Mg168 O175 1.986 . S
Mg168 O177 2.114 1_554 S
Mg168 O178 2.251 . S
Mg168 O181 2.010 1_554 S
O169 Mg168 2.028 1_556 S
O169 C172 1.250 1_556 S
O170 Mg171 2.028 . S
O170 C172 1.248 . S
Mg171 O170 2.028 . S
Mg171 O176 2.032 . S
Mg171 O178 2.079 . S
C172 O169 1.250 1_554 S
C172 O170 1.248 . S
C173 O174 1.264 . S
C173 O181 1.249 . S
O174 C173 1.264 . S
O175 Mg168 1.986 . S
O175 C179 1.246 . S
O176 Mg171 2.032 . S
O176 C179 1.259 . S
O177 Mg168 2.114 1_556 S
O177 C180 1.252 . S
O178 Mg168 2.251 . S
O178 Mg171 2.079 . S
O178 C180 1.273 1_554 S
C179 O175 1.246 . S
C179 O176 1.259 . S
C180 O177 1.252 . S
C180 O178 1.273 1_556 S
O181 Mg168 2.010 1_556 S
O181 C173 1.249 . S
Mg182 O183 2.028 . S
Mg182 O189 1.986 . S
Mg182 O191 2.114 . S
Mg182 O192 2.251 . S
Mg182 O195 2.010 . S
O183 Mg182 2.028 . S
O183 C186 1.250 . S
O184 Mg185 2.028 . S
O184 C186 1.248 . S
Mg185 O184 2.028 . S
Mg185 O190 2.032 . S
Mg185 O192 2.079 . S
C186 O183 1.250 . S
C186 O184 1.248 . S
C187 O188 1.264 . S
C187 O195 1.249 . S
O188 C187 1.264 . S
O189 Mg182 1.986 . S
O189 C193 1.246 . S
O190 Mg185 2.032 . S
O190 C193 1.259 . S
O191 Mg182 2.114 . S
O191 C194 1.252 . S
O192 Mg182 2.251 . S
O192 Mg185 2.079 . S
O192 C194 1.273 . S
C193 O189 1.246 . S
C193 O190 1.259 . S
C194 O191 1.252 . S
C194 O192 1.273 . S
O195 Mg182 2.010 . S
O195 C187 1.249 . S
Mg196 O197 2.028 . S
Mg196 O203 1.986 . S
Mg196 O205 2.114 . S
Mg196 O206 2.251 . S
Mg196 O209 2.010 . S
O197 Mg196 2.028 . S
O197 C200 1.250 . S
O198 Mg199 2.028 . S
O198 C200 1.248 . S
Mg199 O198 2.028 . S
Mg199 O204 2.032 . S
Mg199 O206 2.079 . S
C200 O197 1.250 . S
C200 O198 1.248 . S
C201 O202 1.264 . S
C201 O209 1.249 . S
O202 C201 1.264 . S
O203 Mg196 1.986 . S
O203 C207 1.246 . S
O204 Mg199 2.032 . S
O204 C207 1.259 . S
O205 Mg196 2.114 . S
O205 C208 1.252 . S
O206 Mg196 2.251 . S
O206 Mg199 2.079 . S
O206 C208 1.273 . S
C207 O203 1.246 . S
C207 O204 1.259 . S
C208 O205 1.252 . S
C208 O206 1.273 . S
O209 Mg196 2.010 . S
O209 C201 1.249 . S
Mg210 O211 2.028 . S
Mg210 O217 1.986 . S
Mg210 O219 2.114 . S
Mg210 O220 2.251 . S
Mg210 O223 2.010 . S
O211 Mg210 2.028 . S
O211 C214 1.250 . S
O212 Mg213 2.028 . S
O212 C214 1.248 . S
Mg213 O212 2.028 . S
Mg213 O218 2.032 . S
Mg213 O220 2.079 . S
C214 O211 1.250 . S
C214 O212 1.248 . S
C215 O216 1.264 . S
C215 O223 1.249 . S
O216 C215 1.264 . S
O217 Mg210 1.986 . S
O217 C221 1.246 . S
O218 Mg213 2.032 . S
O218 C221 1.259 . S
O219 Mg210 2.114 . S
O219 C222 1.252 . S
O220 Mg210 2.251 . S
O220 Mg213 2.079 . S
O220 C222 1.273 . S
C221 O217 1.246 . S
C221 O218 1.259 . S
C222 O219 1.252 . S
C222 O220 1.273 . S
O223 Mg210 2.010 . S
O223 C215 1.249 . S
C224 C225 1.369 . S
C224 C226 1.419 . S
C224 H228 0.930 . S
C225 C224 1.369 . S
C225 C234 1.429 . S
C226 C224 1.419 . S
C226 C227 1.363 . S
C226 H229 0.929 . S
C227 C226 1.363 . S
C227 C233 1.428 . S
H228 C224 0.930 . S
H229 C226 0.929 . S
S230 N231 1.613 . S
S230 N232 1.610 . S
N231 S230 1.613 . S
N231 C234 1.350 . S
N232 S230 1.610 . S
N232 C233 1.351 . S
C233 C227 1.428 . S
C233 N232 1.351 . S
C233 C234 1.434 . S
C234 C225 1.429 . S
C234 N231 1.350 . S
C234 C233 1.434 . S
C235 C236 1.369 . S
C235 C237 1.419 . S
C235 H239 0.930 . S
C236 C235 1.369 . S
C236 C245 1.429 . S
C237 C235 1.419 . S
C237 C238 1.363 . S
C237 H240 0.929 . S
C238 C237 1.363 . S
C238 C244 1.428 . S
H239 C235 0.930 . S
H240 C237 0.929 . S
S241 N242 1.613 . S
S241 N243 1.610 . S
N242 S241 1.613 . S
N242 C245 1.350 . S
N243 S241 1.610 . S
N243 C244 1.351 . S
C244 C238 1.428 . S
C244 N243 1.351 . S
C244 C245 1.434 . S
C245 C236 1.429 . S
C245 N242 1.350 . S
C245 C244 1.434 . S
C246 C247 1.369 . S
C246 C248 1.419 . S
C246 H250 0.930 . S
C247 C246 1.369 . S
C247 C256 1.429 . S
C248 C246 1.419 . S
C248 C249 1.363 . S
C248 H251 0.929 . S
C249 C248 1.363 . S
C249 C255 1.428 . S
H250 C246 0.930 . S
H251 C248 0.929 . S
S252 N253 1.613 . S
S252 N254 1.610 . S
N253 S252 1.613 . S
N253 C256 1.350 . S
N254 S252 1.610 . S
N254 C255 1.351 . S
C255 C249 1.428 . S
C255 N254 1.351 . S
C255 C256 1.434 . S
C256 C247 1.429 . S
C256 N253 1.350 . S
C256 C255 1.434 . S
C257 C258 1.369 . S
C257 C259 1.419 . S
C257 H261 0.930 . S
C258 C257 1.369 . S
C258 C267 1.429 . S
C259 C257 1.419 . S
C259 C260 1.363 . S
C259 H262 0.929 . S
C260 C259 1.363 . S
C260 C266 1.428 . S
H261 C257 0.930 . S
H262 C259 0.929 . S
S263 N264 1.613 . S
S263 N265 1.610 . S
N264 S263 1.613 . S
N264 C267 1.350 . S
N265 S263 1.610 . S
N265 C266 1.351 . S
C266 C260 1.428 . S
C266 N265 1.351 . S
C266 C267 1.434 . S
C267 C258 1.429 . S
C267 N264 1.350 . S
C267 C266 1.434 . S
C268 C269 1.369 . S
C268 C270 1.419 . S
C268 H272 0.930 . S
C269 C268 1.369 . S
C269 C278 1.429 . S
C270 C268 1.419 . S
C270 C271 1.363 . S
C270 H273 0.929 . S
C271 C270 1.363 . S
C271 C277 1.428 . S
H272 C268 0.930 . S
H273 C270 0.929 . S
S274 N275 1.613 . S
S274 N276 1.610 . S
N275 S274 1.613 . S
N275 C278 1.350 . S
N276 S274 1.610 . S
N276 C277 1.351 . S
C277 C271 1.428 . S
C277 N276 1.351 . S
C277 C278 1.434 . S
C278 C269 1.429 . S
C278 N275 1.350 . S
C278 C277 1.434 . S
C279 C280 1.369 . S
C279 C281 1.419 . S
C279 H283 0.930 . S
C280 C279 1.369 . S
C280 C289 1.429 . S
C281 C279 1.419 . S
C281 C282 1.363 . S
C281 H284 0.929 . S
C282 C281 1.363 . S
C282 C288 1.428 . S
H283 C279 0.930 . S
H284 C281 0.929 . S
S285 N286 1.613 . S
S285 N287 1.610 . S
N286 S285 1.613 . S
N286 C289 1.350 . S
N287 S285 1.610 . S
N287 C288 1.351 . S
C288 C282 1.428 . S
C288 N287 1.351 . S
C288 C289 1.434 . S
C289 C280 1.429 . S
C289 N286 1.350 . S
C289 C288 1.434 . S
C290 C291 1.369 . S
C290 C292 1.419 . S
C290 H294 0.930 . S
C291 C290 1.369 . S
C291 C300 1.429 . S
C292 C290 1.419 . S
C292 C293 1.363 . S
C292 H295 0.929 . S
C293 C292 1.363 . S
C293 C299 1.428 . S
H294 C290 0.930 . S
H295 C292 0.929 . S
S296 N297 1.613 . S
S296 N298 1.610 . S
N297 S296 1.613 . S
N297 C300 1.350 . S
N298 S296 1.610 . S
N298 C299 1.351 . S
C299 C293 1.428 . S
C299 N298 1.351 . S
C299 C300 1.434 . S
C300 C291 1.429 . S
C300 N297 1.350 . S
C300 C299 1.434 . S
C301 C302 1.369 . S
C301 C303 1.419 . S
C301 H305 0.930 . S
C302 C301 1.369 . S
C302 C311 1.429 . S
C303 C301 1.419 . S
C303 C304 1.363 . S
C303 H306 0.929 . S
C304 C303 1.363 . S
C304 C310 1.428 . S
H305 C301 0.930 . S
H306 C303 0.929 . S
S307 N308 1.613 . S
S307 N309 1.610 . S
N308 S307 1.613 . S
N308 C311 1.350 . S
N309 S307 1.610 . S
N309 C310 1.351 . S
C310 C304 1.428 . S
C310 N309 1.351 . S
C310 C311 1.434 . S
C311 C302 1.429 . S
C311 N308 1.350 . S
C311 C310 1.434 . S
C312 C313 1.369 . S
C312 C314 1.419 . S
C312 H316 0.930 . S
C313 C312 1.369 . S
C313 C322 1.429 . S
C314 C312 1.419 . S
C314 C315 1.363 . S
C314 H317 0.929 . S
C315 C314 1.363 . S
C315 C321 1.428 . S
H316 C312 0.930 . S
H317 C314 0.929 . S
S318 N319 1.613 . S
S318 N320 1.610 . S
N319 S318 1.613 . S
N319 C322 1.350 . S
N320 S318 1.610 . S
N320 C321 1.351 . S
C321 C315 1.428 . S
C321 N320 1.351 . S
C321 C322 1.434 . S
C322 C313 1.429 . S
C322 N319 1.350 . S
C322 C321 1.434 . S
C323 C324 1.369 . S
C323 C325 1.419 . S
C323 H327 0.930 . S
C324 C323 1.369 . S
C324 C333 1.429 1_545 S
C325 C323 1.419 . S
C325 C326 1.363 1_545 S
C325 H328 0.929 . S
C326 C325 1.363 1_565 S
C326 C332 1.428 . S
H327 C323 0.930 . S
H328 C325 0.929 . S
S329 N330 1.613 . S
S329 N331 1.610 . S
N330 S329 1.613 . S
N330 C333 1.350 1_455 S
N331 S329 1.610 . S
N331 C332 1.351 1_455 S
C332 C326 1.428 . S
C332 N331 1.351 1_655 S
C332 C333 1.434 . S
C333 C324 1.429 1_565 S
C333 N330 1.350 1_655 S
C333 C332 1.434 . S
C334 C335 1.370 1_554 S
C334 C336 1.417 . S
C334 H338 0.931 1_554 S
C335 C334 1.370 1_556 S
C335 C344 1.429 . S
C336 C334 1.417 . S
C336 C337 1.363 . S
C336 H339 0.929 . S
C337 C336 1.363 . S
C337 C343 1.428 . S
H338 C334 0.931 1_556 S
H339 C336 0.929 . S
S340 N341 1.613 1_554 S
S340 N342 1.610 . S
N341 S340 1.613 1_556 S
N341 C344 1.350 . S
N342 S340 1.610 . S
N342 C343 1.351 . S
C343 C337 1.428 . S
C343 N342 1.351 . S
C343 C344 1.434 1_554 S
C344 C335 1.429 . S
C344 N341 1.350 . S
C344 C343 1.434 1_556 S
C345 C346 1.369 1_545 S
C345 C347 1.419 . S
C345 H349 0.930 . S
C346 C345 1.369 1_565 S
C346 C355 1.429 . S
C347 C345 1.419 . S
C347 C348 1.363 1_545 S
C347 H350 0.929 . S
C348 C347 1.363 1_565 S
C348 C354 1.428 . S
H349 C345 0.930 . S
H350 C347 0.929 . S
S351 N352 1.613 . S
S351 N353 1.610 . S
N352 S351 1.613 . S
N352 C355 1.350 . S
N353 S351 1.610 . S
N353 C354 1.351 . S
C354 C348 1.428 . S
C354 N353 1.351 . S
C354 C355 1.434 . S
C355 C346 1.429 . S
C355 N352 1.350 . S
C355 C354 1.434 . S
C356 C357 1.369 . S
C356 C358 1.419 . S
C356 H360 0.930 . S
C357 C356 1.369 . S
C357 C366 1.429 . S
C358 C356 1.419 . S
C358 C359 1.363 . S
C358 H361 0.929 . S
C359 C358 1.363 . S
C359 C365 1.428 . S
H360 C356 0.930 . S
H361 C358 0.929 . S
S362 N363 1.613 . S
S362 N364 1.610 . S
N363 S362 1.613 . S
N363 C366 1.350 . S
N364 S362 1.610 . S
N364 C365 1.351 . S
C365 C359 1.428 . S
C365 N364 1.351 . S
C365 C366 1.434 . S
C366 C357 1.429 . S
C366 N363 1.350 . S
C366 C365 1.434 . S
C367 C368 1.369 . S
C367 C369 1.419 . S
C367 H371 0.930 . S
C368 C367 1.369 . S
C368 C377 1.429 1_655 S
C369 C367 1.419 . S
C369 C370 1.363 . S
C369 H372 0.929 . S
C370 C369 1.363 . S
C370 C376 1.428 1_655 S
H371 C367 0.930 . S
H372 C369 0.929 . S
S373 N374 1.613 . S
S373 N375 1.610 . S
N374 S373 1.613 . S
N374 C377 1.350 . S
N375 S373 1.610 . S
N375 C376 1.351 . S
C376 C370 1.428 1_455 S
C376 N375 1.351 . S
C376 C377 1.434 . S
C377 C368 1.429 1_455 S
C377 N374 1.350 . S
C377 C376 1.434 . S
C378 C379 1.369 . S
C378 C380 1.419 1_655 S
C378 H382 0.930 . S
C379 C378 1.369 . S
C379 C388 1.429 . S
C380 C378 1.419 1_455 S
C380 C381 1.363 . S
C380 H383 0.929 . S
C381 C380 1.363 . S
C381 C387 1.428 . S
H382 C378 0.930 . S
H383 C380 0.929 . S
S384 N385 1.613 1_455 S
S384 N386 1.610 . S
N385 S384 1.613 1_655 S
N385 C388 1.350 . S
N386 S384 1.610 . S
N386 C387 1.351 . S
C387 C381 1.428 . S
C387 N386 1.351 . S
C387 C388 1.434 1_455 S
C388 C379 1.429 . S
C388 N385 1.350 . S
C388 C387 1.434 1_655 S
C389 C390 1.369 . S
C389 C391 1.419 1_556 S
C389 H393 0.930 . S
C390 C389 1.369 . S
C390 C399 1.429 . S
C391 C389 1.419 1_554 S
C391 C392 1.363 . S
C391 H394 0.929 . S
C392 C391 1.363 . S
C392 C398 1.428 1_554 S
H393 C389 0.930 . S
H394 C391 0.929 . S
S395 N396 1.613 . S
S395 N397 1.610 . S
N396 S395 1.613 . S
N396 C399 1.350 . S
N397 S395 1.610 . S
N397 C398 1.351 . S
C398 C392 1.428 1_556 S
C398 N397 1.351 . S
C398 C399 1.434 . S
C399 C390 1.429 . S
C399 N396 1.350 . S
C399 C398 1.434 . S
C400 C401 1.369 . S
C400 C402 1.419 . S
C400 H404 0.930 . S
C401 C400 1.369 . S
C401 C410 1.429 . S
C402 C400 1.419 . S
C402 C403 1.363 . S
C402 H405 0.929 . S
C403 C402 1.363 . S
C403 C409 1.428 . S
H404 C400 0.930 . S
H405 C402 0.929 . S
S406 N407 1.613 . S
S406 N408 1.610 . S
N407 S406 1.613 . S
N407 C410 1.350 . S
N408 S406 1.610 . S
N408 C409 1.351 . S
C409 C403 1.428 . S
C409 N408 1.351 . S
C409 C410 1.434 . S
C410 C401 1.429 . S
C410 N407 1.350 . S
C410 C409 1.434 . S
C411 C412 1.369 . S
C411 C413 1.419 . S
C411 H415 0.930 . S
C412 C411 1.369 . S
C412 C421 1.429 . S
C413 C411 1.419 . S
C413 C414 1.363 . S
C413 H416 0.929 . S
C414 C413 1.363 . S
C414 C420 1.428 . S
H415 C411 0.930 . S
H416 C413 0.929 . S
S417 N418 1.613 . S
S417 N419 1.610 . S
N418 S417 1.613 . S
N418 C421 1.350 . S
N419 S417 1.610 . S
N419 C420 1.351 . S
C420 C414 1.428 . S
C420 N419 1.351 . S
C420 C421 1.434 . S
C421 C412 1.429 . S
C421 N418 1.350 . S
C421 C420 1.434 . S
C422 C423 1.369 . S
C422 C424 1.419 1_455 S
C422 H426 0.930 . S
C423 C422 1.369 . S
C423 C432 1.429 . S
C424 C422 1.419 1_655 S
C424 C425 1.363 . S
C424 H427 0.929 . S
C425 C424 1.363 . S
C425 C431 1.428 . S
H426 C422 0.930 . S
H427 C424 0.929 . S
S428 N429 1.613 . S
S428 N430 1.610 1_455 S
N429 S428 1.613 . S
N429 C432 1.350 . S
N430 S428 1.610 1_655 S
N430 C431 1.351 . S
C431 C425 1.428 . S
C431 N430 1.351 . S
C431 C432 1.434 1_655 S
C432 C423 1.429 . S
C432 N429 1.350 . S
C432 C431 1.434 1_455 S
C433 C434 1.371 . S
C433 C435 1.419 . S
C433 H437 0.930 . S
C434 C433 1.371 . S
C434 C443 1.426 1_655 S
C435 C433 1.419 . S
C435 C436 1.363 . S
C435 H438 0.929 . S
C436 C435 1.363 . S
C436 C442 1.428 1_655 S
H437 C433 0.930 . S
H438 C435 0.929 . S
S439 N440 1.613 . S
S439 N441 1.610 . S
N440 S439 1.613 . S
N440 C443 1.350 . S
N441 S439 1.610 . S
N441 C442 1.351 . S
C442 C436 1.428 1_455 S
C442 N441 1.351 . S
C442 C443 1.434 . S
C443 C434 1.426 1_455 S
C443 N440 1.350 . S
C443 C442 1.434 . S
C444 C445 1.369 . S
C444 C446 1.419 . S
C444 H448 0.930 . S
C445 C444 1.369 . S
C445 C454 1.429 . S
C446 C444 1.419 . S
C446 C447 1.363 . S
C446 H449 0.929 . S
C447 C446 1.363 . S
C447 C453 1.428 . S
H448 C444 0.930 . S
H449 C446 0.929 . S
S450 N451 1.613 . S
S450 N452 1.610 . S
N451 S450 1.613 . S
N451 C454 1.350 . S
N452 S450 1.610 . S
N452 C453 1.351 . S
C453 C447 1.428 . S
C453 N452 1.351 . S
C453 C454 1.434 . S
C454 C445 1.429 . S
C454 N451 1.350 . S
C454 C453 1.434 . S
C455 C456 1.369 . S
C455 C457 1.419 1_545 S
C455 H459 0.930 . S
C456 C455 1.369 . S
C456 C465 1.429 . S
C457 C455 1.419 1_565 S
C457 C458 1.363 . S
C457 H460 0.929 . S
C458 C457 1.363 . S
C458 C464 1.428 . S
H459 C455 0.930 . S
H460 C457 0.929 . S
S461 N462 1.613 1_565 S
S461 N463 1.610 . S
N462 S461 1.613 1_545 S
N462 C465 1.350 . S
N463 S461 1.610 . S
N463 C464 1.351 . S
C464 C458 1.428 . S
C464 N463 1.351 . S
C464 C465 1.434 1_565 S
C465 C456 1.429 . S
C465 N462 1.350 . S
C465 C464 1.434 1_545 S
C466 C467 1.369 . S
C466 C468 1.419 . S
C466 H470 0.930 . S
C467 C466 1.369 . S
C467 C476 1.429 . S
C468 C466 1.419 . S
C468 C469 1.363 . S
C468 H471 0.929 . S
C469 C468 1.363 . S
C469 C475 1.428 . S
H470 C466 0.930 . S
H471 C468 0.929 . S
S472 N473 1.613 . S
S472 N474 1.610 . S
N473 S472 1.613 . S
N473 C476 1.350 . S
N474 S472 1.610 . S
N474 C475 1.351 . S
C475 C469 1.428 . S
C475 N474 1.351 . S
C475 C476 1.434 . S
C476 C467 1.429 . S
C476 N473 1.350 . S
C476 C475 1.434 . S
C477 C478 1.369 . S
C477 C479 1.419 1_545 S
C477 H481 0.930 . S
C478 C477 1.369 . S
C478 C487 1.429 . S
C479 C477 1.419 1_565 S
C479 C480 1.363 . S
C479 H482 0.929 . S
C480 C479 1.363 . S
C480 C486 1.428 . S
H481 C477 0.930 . S
H482 C479 0.929 . S
S483 N484 1.613 . S
S483 N485 1.610 1_545 S
N484 S483 1.613 . S
N484 C487 1.350 . S
N485 S483 1.610 1_565 S
N485 C486 1.351 . S
C486 C480 1.428 . S
C486 N485 1.351 . S
C486 C487 1.434 1_565 S
C487 C478 1.429 . S
C487 N484 1.350 . S
C487 C486 1.434 1_545 S
C488 C489 1.369 1_554 S
C488 C490 1.419 . S
C488 H492 0.930 . S
C489 C488 1.369 1_556 S
C489 C498 1.429 1_565 S
C490 C488 1.419 . S
C490 C491 1.363 1_554 S
C490 H493 0.929 . S
C491 C490 1.363 1_556 S
C491 C497 1.428 1_565 S
H492 C488 0.930 . S
H493 C490 0.929 . S
S494 N495 1.613 . S
S494 N496 1.610 . S
N495 S494 1.613 . S
N495 C498 1.350 . S
N496 S494 1.610 . S
N496 C497 1.351 . S
C497 C491 1.428 1_545 S
C497 N496 1.351 . S
C497 C498 1.434 . S
C498 C489 1.429 1_545 S
C498 N495 1.350 . S
C498 C497 1.434 . S
C499 C500 1.369 . S
C499 C501 1.419 . S
C499 H503 0.930 . S
C500 C499 1.369 . S
C500 C509 1.429 . S
C501 C499 1.419 . S
C501 C502 1.363 . S
C501 H504 0.929 . S
C502 C501 1.363 . S
C502 C508 1.428 . S
H503 C499 0.930 . S
H504 C501 0.929 . S
S505 N506 1.613 . S
S505 N507 1.610 . S
N506 S505 1.613 . S
N506 C509 1.350 . S
N507 S505 1.610 . S
N507 C508 1.351 . S
C508 C502 1.428 . S
C508 N507 1.351 . S
C508 C509 1.434 . S
C509 C500 1.429 . S
C509 N506 1.350 . S
C509 C508 1.434 . S
C510 C511 1.369 . S
C510 C512 1.419 . S
C510 H514 0.930 . S
C511 C510 1.369 . S
C511 C520 1.429 . S
C512 C510 1.419 . S
C512 C513 1.363 . S
C512 H515 0.929 . S
C513 C512 1.363 . S
C513 C519 1.428 . S
H514 C510 0.930 . S
H515 C512 0.929 . S
S516 N517 1.613 . S
S516 N518 1.610 . S
N517 S516 1.613 . S
N517 C520 1.350 . S
N518 S516 1.610 . S
N518 C519 1.351 . S
C519 C513 1.428 . S
C519 N518 1.351 . S
C519 C520 1.434 . S
C520 C511 1.429 . S
C520 N517 1.350 . S
C520 C519 1.434 . S
C521 C522 1.369 . S
C521 C523 1.419 1_556 S
C521 H525 0.930 . S
C522 C521 1.369 . S
C522 C531 1.429 . S
C523 C521 1.419 1_554 S
C523 C524 1.363 . S
C523 H526 0.929 . S
C524 C523 1.363 . S
C524 C530 1.428 . S
H525 C521 0.930 . S
H526 C523 0.929 . S
S527 N528 1.613 1_554 S
S527 N529 1.610 . S
N528 S527 1.613 1_556 S
N528 C531 1.350 . S
N529 S527 1.610 . S
N529 C530 1.351 . S
C530 C524 1.428 . S
C530 N529 1.351 . S
C530 C531 1.434 1_554 S
C531 C522 1.429 . S
C531 N528 1.350 . S
C531 C530 1.434 1_556 S
C532 C533 1.369 . S
C532 C534 1.419 . S
C532 H536 0.930 . S
C533 C532 1.369 . S
C533 C542 1.429 . S
C534 C532 1.419 . S
C534 C535 1.363 . S
C534 H537 0.929 . S
C535 C534 1.363 . S
C535 C541 1.428 . S
H536 C532 0.930 . S
H537 C534 0.929 . S
S538 N539 1.613 . S
S538 N540 1.610 . S
N539 S538 1.613 . S
N539 C542 1.350 . S
N540 S538 1.610 . S
N540 C541 1.351 . S
C541 C535 1.428 . S
C541 N540 1.351 . S
C541 C542 1.434 . S
C542 C533 1.429 . S
C542 N539 1.350 . S
C542 C541 1.434 . S
C543 C544 1.369 . S
C543 C545 1.419 . S
C543 H547 0.930 . S
C544 C543 1.369 . S
C544 C553 1.429 . S
C545 C543 1.419 . S
C545 C546 1.363 . S
C545 H548 0.929 . S
C546 C545 1.363 . S
C546 C552 1.428 . S
H547 C543 0.930 . S
H548 C545 0.929 . S
S549 N550 1.613 . S
S549 N551 1.610 . S
N550 S549 1.613 . S
N550 C553 1.350 . S
N551 S549 1.610 . S
N551 C552 1.351 . S
C552 C546 1.428 . S
C552 N551 1.351 . S
C552 C553 1.434 . S
C553 C544 1.429 . S
C553 N550 1.350 . S
C553 C552 1.434 . S
C554 C555 1.369 . S
C554 C556 1.419 . S
C554 H558 0.930 . S
C555 C554 1.369 . S
C555 C564 1.429 1_455 S
C556 C554 1.419 . S
C556 C557 1.363 . S
C556 H559 0.929 . S
C557 C556 1.363 . S
C557 C563 1.428 1_455 S
H558 C554 0.930 . S
H559 C556 0.929 . S
S560 N561 1.613 . S
S560 N562 1.610 . S
N561 S560 1.613 . S
N561 C564 1.350 . S
N562 S560 1.610 . S
N562 C563 1.351 . S
C563 C557 1.428 1_655 S
C563 N562 1.351 . S
C563 C564 1.434 . S
C564 C555 1.429 1_655 S
C564 N561 1.350 . S
C564 C563 1.434 . S
C565 C566 1.369 1_565 S
C565 C567 1.419 . S
C565 H569 0.930 . S
C566 C565 1.369 1_545 S
C566 C575 1.429 . S
C567 C565 1.419 . S
C567 C568 1.363 . S
C567 H570 0.929 . S
C568 C567 1.363 . S
C568 C574 1.428 1_565 S
H569 C565 0.930 . S
H570 C567 0.929 . S
S571 N572 1.613 . S
S571 N573 1.610 . S
N572 S571 1.613 . S
N572 C575 1.350 . S
N573 S571 1.610 . S
N573 C574 1.351 . S
C574 C568 1.428 1_545 S
C574 N573 1.351 . S
C574 C575 1.434 . S
C575 C566 1.429 . S
C575 N572 1.350 . S
C575 C574 1.434 . S
C225 C5 1.295 . S
C227 C103 1.284 . S
C236 C19 1.404 . S
C238 C61 1.433 . S
C247 C75 1.409 . S
C249 C33 1.416 . S
C258 C47 1.426 . S
C260 C89 1.412 . S
C269 C117 1.434 . S
C271 C173 1.406 . S
C280 C131 1.404 . S
C282 C201 1.404 . S
C291 C159 1.441 . S
C293 C145 1.409 . S
C302 C215 1.279 . S
C304 C187 1.288 . S
C313 C12 1.264 . S
C315 C95 1.210 . S
C324 C110 1.259 . S
C326 C25 1.220 1_565 S
C335 C40 1.379 . S
C337 C60 1.303 . S
C346 C82 1.383 . S
C348 C46 1.292 . S
C357 C11 1.198 . S
C359 C207 1.211 . S
C368 C166 1.355 . S
C370 C18 1.268 . S
C379 C193 1.209 . S
C381 C39 1.213 . S
C390 C172 1.262 1_556 S
C392 C54 1.360 . S
C401 C144 1.269 . S
C403 C68 1.356 . S
C412 C81 1.218 . S
C414 C221 1.204 . S
C423 C88 1.273 . S
C425 C124 1.357 . S
C434 C109 1.207 . S
C436 C137 1.209 1_655 S
C445 C4 1.245 . S
C447 C67 1.279 . S
C456 C123 1.279 . S
C458 C186 1.245 . S
C467 C180 1.327 . S
C469 C130 1.241 . S
C478 C200 1.246 . S
C480 C152 1.324 . S
C489 C102 1.240 . S
C491 C53 1.288 1_556 S
C500 C32 1.246 . S
C502 C96 1.324 . S
C511 C165 1.287 . S
C513 C214 1.244 . S
C522 C194 1.265 . S
C524 C151 1.212 . S
C533 C222 1.262 . S
C535 C179 1.218 . S
C544 C208 1.381 . S
C546 C116 1.293 . S
C555 C158 1.304 . S
C557 C138 1.379 . S
C566 C26 1.328 . S
C568 C74 1.233 1_565 S
