# Generated by pormake.
# Topology vbm, (6)-cn, num edge types: 1
# Building blocks:
#     Node 0, Type 0, BuildingBlock: PAMTOO_clean_sbu_0, # of connection points: 6
#     Node 1, Type 0, BuildingBlock: PAMTOO_clean_sbu_0, # of connection points: 6
#     Node 2, Type 0, BuildingBlock: PAMTOO_clean_sbu_0, # of connection points: 6
#     Node 3, Type 0, BuildingBlock: PAMTOO_clean_sbu_0, # of connection points: 6
#     Node 4, Type 0, BuildingBlock: PAMTOO_clean_sbu_0, # of connection points: 6
#     Node 5, Type 0, BuildingBlock: PAMTOO_clean_sbu_0, # of connection points: 6
#     Node 6, Type 0, BuildingBlock: PAMTOO_clean_sbu_0, # of connection points: 6
#     Node 7, Type 0, BuildingBlock: PAMTOO_clean_sbu_0, # of connection points: 6
#     Node 8, Type 0, BuildingBlock: PAMTOO_clean_sbu_0, # of connection points: 6
#     Node 9, Type 0, BuildingBlock: PAMTOO_clean_sbu_0, # of connection points: 6
#     Node 10, Type 0, BuildingBlock: PAMTOO_clean_sbu_0, # of connection points: 6
#     Node 11, Type 0, BuildingBlock: PAMTOO_clean_sbu_0, # of connection points: 6
#     Node 12, Type 0, BuildingBlock: PAMTOO_clean_sbu_0, # of connection points: 6
#     Node 13, Type 0, BuildingBlock: PAMTOO_clean_sbu_0, # of connection points: 6
#     Node 14, Type 0, BuildingBlock: PAMTOO_clean_sbu_0, # of connection points: 6
#     Node 15, Type 0, BuildingBlock: PAMTOO_clean_sbu_0, # of connection points: 6
#     Edge 16, Type (0, 0), BuildingBlock: UVAHIK_clean_linker_0, # of connection points: 2
#     Edge 17, Type (0, 0), BuildingBlock: UVAHIK_clean_linker_0, # of connection points: 2
#     Edge 18, Type (0, 0), BuildingBlock: UVAHIK_clean_linker_0, # of connection points: 2
#     Edge 19, Type (0, 0), BuildingBlock: UVAHIK_clean_linker_0, # of connection points: 2
#     Edge 20, Type (0, 0), BuildingBlock: UVAHIK_clean_linker_0, # of connection points: 2
#     Edge 21, Type (0, 0), BuildingBlock: UVAHIK_clean_linker_0, # of connection points: 2
#     Edge 22, Type (0, 0), BuildingBlock: UVAHIK_clean_linker_0, # of connection points: 2
#     Edge 23, Type (0, 0), BuildingBlock: UVAHIK_clean_linker_0, # of connection points: 2
#     Edge 24, Type (0, 0), BuildingBlock: UVAHIK_clean_linker_0, # of connection points: 2
#     Edge 25, Type (0, 0), BuildingBlock: UVAHIK_clean_linker_0, # of connection points: 2
#     Edge 26, Type (0, 0), BuildingBlock: UVAHIK_clean_linker_0, # of connection points: 2
#     Edge 27, Type (0, 0), BuildingBlock: UVAHIK_clean_linker_0, # of connection points: 2
#     Edge 28, Type (0, 0), BuildingBlock: UVAHIK_clean_linker_0, # of connection points: 2
#     Edge 29, Type (0, 0), BuildingBlock: UVAHIK_clean_linker_0, # of connection points: 2
#     Edge 30, Type (0, 0), BuildingBlock: UVAHIK_clean_linker_0, # of connection points: 2
#     Edge 31, Type (0, 0), BuildingBlock: UVAHIK_clean_linker_0, # of connection points: 2
#     Edge 32, Type (0, 0), BuildingBlock: UVAHIK_clean_linker_0, # of connection points: 2
#     Edge 33, Type (0, 0), BuildingBlock: UVAHIK_clean_linker_0, # of connection points: 2
#     Edge 34, Type (0, 0), BuildingBlock: UVAHIK_clean_linker_0, # of connection points: 2
#     Edge 35, Type (0, 0), BuildingBlock: UVAHIK_clean_linker_0, # of connection points: 2
#     Edge 36, Type (0, 0), BuildingBlock: UVAHIK_clean_linker_0, # of connection points: 2
#     Edge 37, Type (0, 0), BuildingBlock: UVAHIK_clean_linker_0, # of connection points: 2
#     Edge 38, Type (0, 0), BuildingBlock: UVAHIK_clean_linker_0, # of connection points: 2
#     Edge 39, Type (0, 0), BuildingBlock: UVAHIK_clean_linker_0, # of connection points: 2
#     Edge 40, Type (0, 0), BuildingBlock: UVAHIK_clean_linker_0, # of connection points: 2
#     Edge 41, Type (0, 0), BuildingBlock: UVAHIK_clean_linker_0, # of connection points: 2
#     Edge 42, Type (0, 0), BuildingBlock: UVAHIK_clean_linker_0, # of connection points: 2
#     Edge 43, Type (0, 0), BuildingBlock: UVAHIK_clean_linker_0, # of connection points: 2
#     Edge 44, Type (0, 0), BuildingBlock: UVAHIK_clean_linker_0, # of connection points: 2
#     Edge 45, Type (0, 0), BuildingBlock: UVAHIK_clean_linker_0, # of connection points: 2
#     Edge 46, Type (0, 0), BuildingBlock: UVAHIK_clean_linker_0, # of connection points: 2
#     Edge 47, Type (0, 0), BuildingBlock: UVAHIK_clean_linker_0, # of connection points: 2
#     Edge 48, Type (0, 0), BuildingBlock: UVAHIK_clean_linker_0, # of connection points: 2
#     Edge 49, Type (0, 0), BuildingBlock: UVAHIK_clean_linker_0, # of connection points: 2
#     Edge 50, Type (0, 0), BuildingBlock: UVAHIK_clean_linker_0, # of connection points: 2
#     Edge 51, Type (0, 0), BuildingBlock: UVAHIK_clean_linker_0, # of connection points: 2
#     Edge 52, Type (0, 0), BuildingBlock: UVAHIK_clean_linker_0, # of connection points: 2
#     Edge 53, Type (0, 0), BuildingBlock: UVAHIK_clean_linker_0, # of connection points: 2
#     Edge 54, Type (0, 0), BuildingBlock: UVAHIK_clean_linker_0, # of connection points: 2
#     Edge 55, Type (0, 0), BuildingBlock: UVAHIK_clean_linker_0, # of connection points: 2
#     Edge 56, Type (0, 0), BuildingBlock: UVAHIK_clean_linker_0, # of connection points: 2
#     Edge 57, Type (0, 0), BuildingBlock: UVAHIK_clean_linker_0, # of connection points: 2
#     Edge 58, Type (0, 0), BuildingBlock: UVAHIK_clean_linker_0, # of connection points: 2
#     Edge 59, Type (0, 0), BuildingBlock: UVAHIK_clean_linker_0, # of connection points: 2
#     Edge 60, Type (0, 0), BuildingBlock: UVAHIK_clean_linker_0, # of connection points: 2
#     Edge 61, Type (0, 0), BuildingBlock: UVAHIK_clean_linker_0, # of connection points: 2
#     Edge 62, Type (0, 0), BuildingBlock: UVAHIK_clean_linker_0, # of connection points: 2
#     Edge 63, Type (0, 0), BuildingBlock: UVAHIK_clean_linker_0, # of connection points: 2
# Relax obj value: 0.042
# Max RMSD: 0.112
# Mean RMSD: 0.112
data_MOF--net-vbm--node1-PAMTOO_clean_sbu_0--edge1-UVAHIK_clean_linker_0
_symmetry_space_group_name_H-M    P1
_symmetry_Int_Tables_number       1
_symmetry_cell_setting            triclinic
loop_
_symmetry_equiv_pos_as_xyz
'x, y, z'
_cell_length_a     73.076698
_cell_length_b     30.557788
_cell_length_c     76.366364
_cell_angle_alpha  89.940746
_cell_angle_beta   90.28572
_cell_angle_gamma 90.085213
loop_
_atom_site_label
_atom_site_type_symbol
_atom_site_fract_x
_atom_site_fract_y
_atom_site_fract_z
_atom_type_partial_charge
Dy0 Dy 0.10625 0.17378 0.1256 0.0
Dy1 Dy 0.12441 0.07453 0.12012 0.0
C2 C 0.11336 0.13458 0.08764 0.0
O3 O 0.08306 0.13078 0.11789 0.0
O4 O 0.09462 0.06316 0.12537 0.0
O5 O 0.08886 0.22724 0.11738 0.0
O6 O 0.10295 0.23017 0.14239 0.0
O7 O 0.12998 0.09921 0.14704 0.0
O8 O 0.1029 0.13394 0.15015 0.0
O9 O 0.14754 0.12075 0.11498 0.0
O10 O 0.13635 0.18358 0.12785 0.0
O11 O 0.13234 1.01403 0.13244 0.0
O12 O 0.13707 0.02314 0.10467 0.0
C13 C 0.08085 0.08892 0.12114 0.0
O14 O 0.11507 0.16956 0.09758 0.0
O15 O 0.11248 0.09507 0.09444 0.0
C16 C 0.09605 0.29766 0.12855 0.0
C17 C 0.10176 0.38848 0.12361 0.0
C18 C 0.11354 0.3576 0.11586 0.0
C19 C 0.1107 0.31254 0.1183 0.0
C20 C 0.08444 0.32823 0.1364 0.0
C21 C 0.08725 0.37309 0.13399 0.0
C22 C 0.09241 0.25067 0.13126 0.0
C23 C 0.1165 0.11175 0.15702 0.0
C24 C 0.14971 0.161 0.1208 0.0
C25 C 0.1326 0.94991 0.11489 0.0
C26 C 0.12592 0.85868 0.11249 0.0
C27 C 0.11381 0.88617 0.12164 0.0
C28 C 0.11711 0.93129 0.12283 0.0
C29 C 0.1443 0.92291 0.10523 0.0
C30 C 0.141 0.87788 0.10399 0.0
C31 C 0.13784 0.99612 0.1179 0.0
H32 H 0.12478 0.36821 0.10769 0.0
H33 H 0.11983 0.28936 0.11214 0.0
H34 H 0.07312 0.31738 0.14445 0.0
H35 H 0.07811 0.39574 0.14044 0.0
H36 H 0.10214 0.87264 0.12846 0.0
H37 H 0.10785 0.95135 0.1304 0.0
H38 H 0.15634 0.93651 0.09901 0.0
H39 H 0.15042 0.85801 0.09654 0.0
Dy40 Dy 0.86539 0.86487 0.12536 0.0
Dy41 Dy 0.8507 0.96405 0.11385 0.0
C42 C 0.86062 0.89288 0.08486 0.0
O43 O 0.88925 0.90882 0.12931 0.0
O44 O 0.88122 0.96541 0.11087 0.0
O45 O 0.88457 0.81106 0.12474 0.0
O46 O 0.86094 0.80823 0.14179 0.0
O47 O 0.8614 0.97075 0.14094 0.0
O48 O 0.85568 0.90042 0.14951 0.0
O49 O 0.82627 0.92272 0.12098 0.0
O50 O 0.8379 0.8558 0.11367 0.0
O51 O 0.83363 0.01996 0.11937 0.0
O52 O 0.8495 0.01794 0.09545 0.0
C53 C 0.89352 0.94341 0.11996 0.0
O54 O 0.87013 0.86976 0.0963 0.0
O55 O 0.84923 0.92372 0.0897 0.0
C56 C 0.87304 0.74053 0.1323 0.0
C57 C 0.86968 0.64937 0.12664 0.0
C58 C 0.86783 0.67911 0.11261 0.0
C59 C 0.8695 0.72435 0.11541 0.0
C60 C 0.87465 0.71108 0.14629 0.0
C61 C 0.87297 0.66608 0.14352 0.0
C62 C 0.87526 0.78765 0.1359 0.0
C63 C 0.85881 0.94179 0.15331 0.0
C64 C 0.82394 0.8814 0.11662 0.0
C65 C 0.84328 0.0882 0.10726 0.0
C66 C 0.84932 0.17953 0.11015 0.0
C67 C 0.85091 0.1521 0.12493 0.0
C68 C 0.84793 0.10688 0.1235 0.0
C69 C 0.84206 0.11532 0.09248 0.0
C70 C 0.84507 0.16038 0.09387 0.0
C71 C 0.83881 0.0412 0.1054 0.0
H72 H 0.8654 0.66739 0.09942 0.0
H73 H 0.86815 0.74659 0.10443 0.0
H74 H 0.87725 0.72295 0.15944 0.0
H75 H 0.87411 0.64437 0.15469 0.0
H76 H 0.854 0.16567 0.1377 0.0
H77 H 0.84898 0.08671 0.13514 0.0
H78 H 0.83854 0.10165 0.07981 0.0
H79 H 0.84407 0.18023 0.08215 0.0
Dy80 Dy 0.10556 0.85221 0.36012 0.0
Dy81 Dy 0.12345 0.95209 0.36533 0.0
C82 C 0.1124 0.89317 0.39795 0.0
O83 O 0.08212 0.895 0.36663 0.0
O84 O 0.09368 0.96294 0.35956 0.0
O85 O 0.08827 0.79876 0.36849 0.0
O86 O 0.10242 0.79513 0.34365 0.0
O87 O 0.1292 0.9271 0.33855 0.0
O88 O 0.10236 0.89091 0.33525 0.0
O89 O 0.14661 0.90631 0.37097 0.0
O90 O 0.13561 0.84308 0.3581 0.0
O91 O 0.13102 1.01293 0.3531 0.0
O92 O 0.13642 1.00331 0.38078 0.0
C93 C 0.07988 0.93667 0.36307 0.0
O94 O 0.11422 0.85782 0.38826 0.0
O95 O 0.11121 0.93228 0.39084 0.0
C96 C 0.09549 0.72809 0.35776 0.0
C97 C 0.10124 0.63751 0.36313 0.0
C98 C 0.11325 0.66865 0.37053 0.0
C99 C 0.11039 0.71361 0.36788 0.0
C100 C 0.08364 0.69725 0.35025 0.0
C101 C 0.08646 0.65251 0.35288 0.0
C102 C 0.09186 0.77492 0.35477 0.0
C103 C 0.11587 0.91347 0.32846 0.0
C104 C 0.14887 0.86599 0.36531 0.0
C105 C 0.13174 0.07666 0.37087 0.0
C106 C 0.12518 0.16773 0.37374 0.0
C107 C 0.11282 0.14046 0.36464 0.0
C108 C 0.11606 0.09539 0.36322 0.0
C109 C 0.14369 0.10343 0.3805 0.0
C110 C 0.14045 0.1484 0.38196 0.0
C111 C 0.13688 0.03058 0.36763 0.0
H112 H 0.12469 0.65832 0.37859 0.0
H113 H 0.11971 0.73702 0.37377 0.0
H114 H 0.07213 0.70781 0.34231 0.0
H115 H 0.07714 0.62961 0.34669 0.0
H116 H 0.10099 0.15412 0.35803 0.0
H117 H 0.1066 0.07548 0.35569 0.0
H118 H 0.15587 0.08972 0.38651 0.0
H119 H 0.15006 0.16813 0.38937 0.0
Dy120 Dy 0.86773 0.17492 0.36065 0.0
Dy121 Dy 0.85098 0.07467 0.36818 0.0
C122 C 0.86365 0.13684 0.39923 0.0
O123 O 0.8919 0.13298 0.36596 0.0
O124 O 0.88022 0.06397 0.36079 0.0
O125 O 0.88514 0.22933 0.36786 0.0
O126 O 0.86953 0.23137 0.34365 0.0
O127 O 0.84395 0.09529 0.34102 0.0
O128 O 0.86943 0.13584 0.33582 0.0
O129 O 0.82798 0.12036 0.37428 0.0
O130 O 0.83754 0.18222 0.35953 0.0
O131 O 0.84138 1.01372 0.35741 0.0
O132 O 0.84079 0.02364 0.38548 0.0
C133 C 0.89409 0.09101 0.36297 0.0
O134 O 0.86066 0.17112 0.38917 0.0
O135 O 0.86494 0.09733 0.39258 0.0
C136 C 0.8768 0.2992 0.35694 0.0
C137 C 0.87029 0.3897 0.36137 0.0
C138 C 0.85917 0.35844 0.3698 0.0
C139 C 0.86237 0.3135 0.36756 0.0
C140 C 0.88794 0.33016 0.34864 0.0
C141 C 0.88475 0.37488 0.35083 0.0
C142 C 0.88059 0.25242 0.35414 0.0
C143 C 0.85625 0.11021 0.33014 0.0
C144 C 0.82497 0.15969 0.36784 0.0
C145 C 0.8438 0.95033 0.37512 0.0
C146 C 0.8513 0.85955 0.37644 0.0
C147 C 0.86289 0.88825 0.36722 0.0
C148 C 0.8592 0.93322 0.36659 0.0
C149 C 0.83263 0.92211 0.38486 0.0
C150 C 0.83635 0.87722 0.38556 0.0
C151 C 0.83805 0.99625 0.37264 0.0
H152 H 0.84784 0.36869 0.3779 0.0
H153 H 0.85359 0.28998 0.37404 0.0
H154 H 0.89917 0.31972 0.34044 0.0
H155 H 0.89378 0.39789 0.34439 0.0
H156 H 0.87468 0.87585 0.36027 0.0
H157 H 0.86808 0.95439 0.35903 0.0
H158 H 0.82062 0.93457 0.39144 0.0
H159 H 0.82703 0.85613 0.39264 0.0
Dy160 Dy 0.85372 0.95208 0.8656 0.0
Dy161 Dy 0.87078 0.85209 0.85886 0.0
C162 C 0.85993 0.91587 0.82816 0.0
O163 O 0.83067 0.90667 0.87155 0.0
O164 O 0.84056 0.84416 0.85753 0.0
O165 O 0.84489 1.01275 0.85401 0.0
O166 O 0.84256 1.0035 0.88205 0.0
O167 O 0.86358 0.85569 0.88732 0.0
O168 O 0.8665 0.93008 0.8907 0.0
O169 O 0.89468 0.89405 0.86517 0.0
O170 O 0.88321 0.96269 0.85908 0.0
O171 O 0.88809 0.79766 0.86615 0.0
O172 O 0.87294 0.79619 0.84167 0.0
C173 C 0.82781 0.86708 0.86537 0.0
O174 O 0.84698 0.92899 0.83866 0.0
O175 O 0.87349 0.89243 0.8344 0.0
C176 C 0.84623 0.07658 0.87156 0.0
C177 C 0.85355 0.16747 0.87311 0.0
C178 C 0.86549 0.139 0.86426 0.0
C179 C 0.86189 0.09398 0.86352 0.0
C180 C 0.83468 0.10459 0.88093 0.0
C181 C 0.83831 0.14953 0.88175 0.0
C182 C 0.84064 0.03056 0.86895 0.0
C183 C 0.86572 0.89038 0.89734 0.0
C184 C 0.89699 0.9359 0.86198 0.0
C185 C 0.87987 0.72807 0.85489 0.0
C186 C 0.87314 0.63751 0.85902 0.0
C187 C 0.8618 0.66864 0.86716 0.0
C188 C 0.86511 0.71361 0.86508 0.0
C189 C 0.89124 0.69725 0.84687 0.0
C190 C 0.88794 0.65249 0.84891 0.0
C191 C 0.88379 0.7749 0.85228 0.0
H192 H 0.8775 0.15162 0.85769 0.0
H193 H 0.87106 0.07299 0.85625 0.0
H194 H 0.82247 0.09191 0.88714 0.0
H195 H 0.82872 0.17044 0.88853 0.0
H196 H 0.8502 0.65827 0.87492 0.0
H197 H 0.85615 0.73703 0.87133 0.0
H198 H 0.90273 0.70782 0.83901 0.0
H199 H 0.89714 0.62958 0.84269 0.0
Dy200 Dy 0.12612 0.07161 0.86804 0.0
Dy201 Dy 0.10937 0.17193 0.86066 0.0
C202 C 0.12009 0.10703 0.83016 0.0
O203 O 0.14924 0.11719 0.87411 0.0
O204 O 0.13954 0.17927 0.85954 0.0
O205 O 0.13504 1.01041 0.85712 0.0
O206 O 0.13698 0.02081 0.88513 0.0
O207 O 0.11674 0.16803 0.88917 0.0
O208 O 0.11254 0.09411 0.89252 0.0
O209 O 0.08534 0.13001 0.86633 0.0
O210 O 0.09672 0.06101 0.86089 0.0
O211 O 0.09172 0.2257 0.86767 0.0
O212 O 0.10771 0.22885 0.84385 0.0
C213 C 0.15219 0.15663 0.86777 0.0
O214 O 0.13273 0.09281 0.84093 0.0
O215 O 0.10701 0.13253 0.83595 0.0
C216 C 0.13339 0.94723 0.87514 0.0
C217 C 0.12646 0.85622 0.8775 0.0
C218 C 0.11537 0.88328 0.86693 0.0
C219 C 0.11879 0.92833 0.86577 0.0
C220 C 0.14399 0.9207 0.8862 0.0
C221 C 0.14055 0.87575 0.88742 0.0
C222 C 0.13901 0.99317 0.87229 0.0
C223 C 0.11388 0.13362 0.89919 0.0
C224 C 0.08298 0.08813 0.86326 0.0
C225 C 0.09987 0.29612 0.85726 0.0
C226 C 0.10492 0.38669 0.86315 0.0
C227 C 0.11571 0.35563 0.87213 0.0
C228 C 0.11319 0.31066 0.86922 0.0
C229 C 0.0893 0.32689 0.84814 0.0
C230 C 0.09179 0.37164 0.85103 0.0
C231 C 0.09639 0.24929 0.85416 0.0
H232 H 0.10449 0.86945 0.859 0.0
H233 H 0.1104 0.94806 0.85711 0.0
H234 H 0.15532 0.93456 0.89355 0.0
H235 H 0.14914 0.85617 0.89596 0.0
H236 H 0.12587 0.36604 0.88163 0.0
H237 H 0.12149 0.2873 0.87639 0.0
H238 H 0.07902 0.31627 0.83879 0.0
H239 H 0.08348 0.39451 0.84362 0.0
Dy240 Dy 0.85278 0.07904 0.61984 0.0
Dy241 Dy 0.87 0.1791 0.62587 0.0
C242 C 0.85976 0.11642 0.65706 0.0
O243 O 0.8295 0.12436 0.61416 0.0
O244 O 0.83987 0.18707 0.62785 0.0
O245 O 0.84471 0.01811 0.63166 0.0
O246 O 0.84073 0.02771 0.60377 0.0
O247 O 0.86177 0.17427 0.5976 0.0
O248 O 0.86537 0.10009 0.59464 0.0
O249 O 0.89376 0.13721 0.61949 0.0
O250 O 0.88247 0.06867 0.62605 0.0
O251 O 0.88693 0.23355 0.61784 0.0
O252 O 0.87289 0.23541 0.64277 0.0
C253 C 0.82685 0.16407 0.6203 0.0
O254 O 0.84664 0.1026 0.64676 0.0
O255 O 0.8732 0.13967 0.65054 0.0
C256 C 0.84508 0.95454 0.61393 0.0
C257 C 0.85235 0.86375 0.61196 0.0
C258 C 0.86479 0.8923 0.62028 0.0
C259 C 0.86122 0.93728 0.62123 0.0
C260 C 0.83301 0.92646 0.60507 0.0
C261 C 0.8366 0.88158 0.60404 0.0
C262 C 0.83961 1.00045 0.61689 0.0
C263 C 0.86414 0.13942 0.58774 0.0
C264 C 0.89618 0.09551 0.62288 0.0
C265 C 0.8793 0.30332 0.62919 0.0
C266 C 0.87247 0.39384 0.62522 0.0
C267 C 0.86059 0.36264 0.61766 0.0
C268 C 0.86396 0.31769 0.61967 0.0
C269 C 0.8912 0.33421 0.63659 0.0
C270 C 0.88785 0.37895 0.63464 0.0
C271 C 0.88327 0.25653 0.63177 0.0
H272 H 0.87718 0.87978 0.62629 0.0
H273 H 0.87079 0.95832 0.6281 0.0
H274 H 0.82043 0.93905 0.59944 0.0
H275 H 0.82664 0.8606 0.59769 0.0
H276 H 0.84855 0.37296 0.61045 0.0
H277 H 0.85459 0.29421 0.6139 0.0
H278 H 0.90315 0.32371 0.64393 0.0
H279 H 0.89745 0.40191 0.64037 0.0
Dy280 Dy 0.12558 0.95973 0.61834 0.0
Dy281 Dy 0.1083 0.85973 0.62527 0.0
C282 C 0.11923 0.92397 0.65605 0.0
O283 O 0.14861 0.9138 0.61262 0.0
O284 O 0.13842 0.85198 0.62703 0.0
O285 O 0.13514 0.02018 0.62959 0.0
O286 O 0.13618 1.0112 0.60148 0.0
O287 O 0.11608 0.86361 0.59691 0.0
O288 O 0.11228 0.9376 0.59356 0.0
O289 O 0.08446 0.90206 0.61927 0.0
O290 O 0.09618 0.97061 0.62521 0.0
O291 O 0.09115 0.80526 0.61758 0.0
O292 O 0.10577 0.80357 0.64234 0.0
C293 C 0.15127 0.87426 0.619 0.0
O294 O 0.13199 0.93794 0.64547 0.0
O295 O 0.10601 0.89896 0.65004 0.0
C296 C 0.13303 0.08419 0.61217 0.0
C297 C 0.1257 0.17509 0.61094 0.0
C298 C 0.11438 0.14665 0.62058 0.0
C299 C 0.11798 0.10163 0.62116 0.0
C300 C 0.14392 0.11219 0.60203 0.0
C301 C 0.14028 0.15712 0.60138 0.0
C302 C 0.13872 0.03815 0.61451 0.0
C303 C 0.11363 0.89815 0.58685 0.0
C304 C 0.08229 0.9439 0.62251 0.0
C305 C 0.09917 0.73554 0.62893 0.0
C306 C 0.10602 0.64506 0.62485 0.0
C307 C 0.11658 0.67631 0.61578 0.0
C308 C 0.11321 0.72124 0.61785 0.0
C309 C 0.08861 0.70458 0.63789 0.0
C310 C 0.09197 0.65988 0.63588 0.0
C311 C 0.09517 0.78232 0.63149 0.0
H312 H 0.10288 0.15928 0.62789 0.0
H313 H 0.10931 0.08069 0.62904 0.0
H314 H 0.15565 0.09949 0.59508 0.0
H315 H 0.14938 0.17802 0.59395 0.0
H316 H 0.1276 0.66608 0.6073 0.0
H317 H 0.12157 0.74474 0.61086 0.0
H318 H 0.07768 0.71502 0.64646 0.0
H319 H 0.08336 0.63687 0.64284 0.0
Dy320 Dy 0.60909 0.67168 0.12817 0.0
Dy321 Dy 0.62472 0.57256 0.11763 0.0
C322 C 0.61615 0.64449 0.08857 0.0
O323 O 0.58492 0.63211 0.12013 0.0
O324 O 0.59547 0.5623 0.12525 0.0
O325 O 0.59266 0.72851 0.12215 0.0
O326 O 0.60796 0.72571 0.14649 0.0
O327 O 0.62664 0.57716 0.14664 0.0
O328 O 0.60463 0.6291 0.15186 0.0
O329 O 0.64784 0.61999 0.1134 0.0
O330 O 0.63895 0.67166 0.13329 0.0
O331 O 0.64379 0.51913 0.12129 0.0
O332 O 0.62378 0.51661 0.10032 0.0
C333 C 0.58199 0.59019 0.12272 0.0
O334 O 0.61841 0.67599 0.10013 0.0
O335 O 0.61366 0.6039 0.09357 0.0
C336 C 0.60255 0.79621 0.13446 0.0
C337 C 0.60963 0.88705 0.13138 0.0
C338 C 0.61318 0.85847 0.11732 0.0
C339 C 0.60971 0.81346 0.11886 0.0
C340 C 0.59927 0.82448 0.14854 0.0
C341 C 0.60277 0.86933 0.14705 0.0
C342 C 0.59765 0.74946 0.13626 0.0
C343 C 0.6151 0.59658 0.1572 0.0
C344 C 0.65145 0.6543 0.12324 0.0
C345 C 0.63381 0.44875 0.11171 0.0
C346 C 0.62847 0.35772 0.11642 0.0
C347 C 0.62465 0.38735 0.13007 0.0
C348 C 0.62724 0.43252 0.12771 0.0
C349 C 0.63766 0.41935 0.09816 0.0
C350 C 0.63504 0.37441 0.10046 0.0
C351 C 0.63676 0.4959 0.1086 0.0
H352 H 0.61866 0.87089 0.10514 0.0
H353 H 0.61246 0.79228 0.10781 0.0
H354 H 0.59367 0.81192 0.16067 0.0
H355 H 0.59964 0.8903 0.15806 0.0
H356 H 0.61942 0.37568 0.14247 0.0
H357 H 0.62408 0.4547 0.13833 0.0
H358 H 0.64278 0.4312 0.08573 0.0
H359 H 0.6384 0.35265 0.08977 0.0
Dy360 Dy 0.36851 0.3596 0.12658 0.0
Dy361 Dy 0.35129 0.45948 0.1194 0.0
C362 C 0.36327 0.39769 0.08805 0.0
O363 O 0.39242 0.40179 0.12066 0.0
O364 O 0.38085 0.47063 0.12606 0.0
O365 O 0.386 0.30575 0.11928 0.0
O366 O 0.37067 0.30295 0.14349 0.0
O367 O 0.34514 0.43815 0.14659 0.0
O368 O 0.37108 0.39909 0.15129 0.0
O369 O 0.32802 0.41356 0.11391 0.0
O370 O 0.33837 0.35161 0.12817 0.0
O371 O 0.34241 0.52045 0.13054 0.0
O372 O 0.34012 0.51039 0.10253 0.0
C373 C 0.39468 0.44378 0.12359 0.0
O374 O 0.36073 0.36325 0.09813 0.0
O375 O 0.36446 0.43727 0.09468 0.0
C376 C 0.37807 0.23544 0.13004 0.0
C377 C 0.37281 0.14475 0.12452 0.0
C378 C 0.36236 0.17573 0.11514 0.0
C379 C 0.36499 0.22075 0.11786 0.0
C380 C 0.38828 0.20474 0.13957 0.0
C381 C 0.38569 0.15994 0.13687 0.0
C382 C 0.38167 0.28233 0.13294 0.0
C383 C 0.35797 0.42431 0.15722 0.0
C384 C 0.3254 0.37398 0.12027 0.0
C385 C 0.34388 0.5839 0.11265 0.0
C386 C 0.35079 0.67499 0.1104 0.0
C387 C 0.36175 0.64794 0.12109 0.0
C388 C 0.35834 0.60288 0.1222 0.0
C389 C 0.3334 0.61043 0.10147 0.0
C390 C 0.33683 0.65542 0.10031 0.0
C391 C 0.33826 0.53789 0.11546 0.0
H392 H 0.35242 0.16523 0.10546 0.0
H393 H 0.35696 0.24404 0.11038 0.0
H394 H 0.39837 0.21546 0.1491 0.0
H395 H 0.39372 0.13715 0.14459 0.0
H396 H 0.37252 0.66177 0.12916 0.0
H397 H 0.36665 0.58318 0.13095 0.0
H398 H 0.32217 0.59654 0.094 0.0
H399 H 0.32835 0.67496 0.09167 0.0
Dy400 Dy 0.60661 0.35678 0.36395 0.0
Dy401 Dy 0.62425 0.45675 0.3697 0.0
C402 C 0.61339 0.39667 0.40196 0.0
O403 O 0.58309 0.39922 0.37059 0.0
O404 O 0.5945 0.46758 0.36388 0.0
O405 O 0.58995 0.30233 0.3725 0.0
O406 O 0.60311 0.30049 0.34714 0.0
O407 O 0.62945 0.43392 0.34254 0.0
O408 O 0.60311 0.39557 0.33914 0.0
O409 O 0.64745 0.41078 0.37507 0.0
O410 O 0.63661 0.34861 0.36133 0.0
O411 O 0.6328 0.51724 0.3578 0.0
O412 O 0.63626 0.50816 0.38577 0.0
C413 C 0.58075 0.44096 0.36721 0.0
O414 O 0.61543 0.3617 0.3921 0.0
O415 O 0.61194 0.43589 0.39502 0.0
C416 C 0.5973 0.23256 0.36093 0.0
C417 C 0.6045 0.14212 0.36468 0.0
C418 C 0.61583 0.17343 0.37289 0.0
C419 C 0.61229 0.21834 0.37099 0.0
C420 C 0.58596 0.20154 0.35284 0.0
C421 C 0.58949 0.15686 0.35469 0.0
C422 C 0.59315 0.27932 0.35847 0.0
C423 C 0.61614 0.41996 0.33248 0.0
C424 C 0.6498 0.37099 0.36889 0.0
C425 C 0.63226 0.5812 0.37532 0.0
C426 C 0.62518 0.67213 0.37709 0.0
C427 C 0.61305 0.64386 0.36822 0.0
C428 C 0.61653 0.59883 0.36737 0.0
C429 C 0.64401 0.60903 0.3847 0.0
C430 C 0.6405 0.65398 0.38563 0.0
C431 C 0.63768 0.53514 0.37259 0.0
H432 H 0.62759 0.16325 0.38056 0.0
H433 H 0.62125 0.2419 0.37728 0.0
H434 H 0.5743 0.21192 0.34507 0.0
H435 H 0.58029 0.13379 0.34843 0.0
H436 H 0.60097 0.65664 0.36173 0.0
H437 H 0.60719 0.57802 0.3601 0.0
H438 H 0.65628 0.59618 0.39084 0.0
H439 H 0.65023 0.67474 0.39243 0.0
Dy440 Dy 0.36786 0.67424 0.36172 0.0
Dy441 Dy 0.35117 0.57398 0.36913 0.0
C442 C 0.36326 0.6365 0.40031 0.0
O443 O 0.39198 0.63274 0.36766 0.0
O444 O 0.38062 0.56347 0.36241 0.0
O445 O 0.38502 0.72894 0.36909 0.0
O446 O 0.36986 0.73047 0.34462 0.0
O447 O 0.34486 0.59432 0.34178 0.0
O448 O 0.37051 0.63454 0.33712 0.0
O449 O 0.32798 0.61947 0.37475 0.0
O450 O 0.33767 0.68102 0.35989 0.0
O451 O 0.34173 0.51307 0.35821 0.0
O452 O 0.34081 0.52284 0.38628 0.0
C453 C 0.39436 0.59077 0.3648 0.0
O454 O 0.36038 0.6707 0.39016 0.0
O455 O 0.36462 0.59692 0.39374 0.0
C456 C 0.37678 0.79856 0.35786 0.0
C457 C 0.37019 0.88906 0.36214 0.0
C458 C 0.35916 0.85784 0.3707 0.0
C459 C 0.36241 0.8129 0.36854 0.0
C460 C 0.38781 0.82948 0.34941 0.0
C461 C 0.38458 0.8742 0.35152 0.0
C462 C 0.38069 0.75178 0.35524 0.0
C463 C 0.35755 0.60863 0.33118 0.0
C464 C 0.32498 0.65853 0.36806 0.0
C465 C 0.344 0.44962 0.37589 0.0
C466 C 0.35149 0.35886 0.37721 0.0
C467 C 0.3631 0.38755 0.36801 0.0
C468 C 0.35941 0.43251 0.36737 0.0
C469 C 0.33282 0.4214 0.38562 0.0
C470 C 0.33654 0.37652 0.38633 0.0
C471 C 0.33824 0.49551 0.37338 0.0
H472 H 0.34788 0.86812 0.37885 0.0
H473 H 0.35371 0.7894 0.37514 0.0
H474 H 0.39901 0.819 0.34118 0.0
H475 H 0.39354 0.89718 0.34497 0.0
H476 H 0.37488 0.37514 0.36106 0.0
H477 H 0.36829 0.45367 0.35981 0.0
H478 H 0.3208 0.43387 0.3922 0.0
H479 H 0.32722 0.35543 0.3934 0.0
Dy480 Dy 0.35194 0.45668 0.86733 0.0
Dy481 Dy 0.36986 0.35723 0.86129 0.0
C482 C 0.3593 0.41992 0.8301 0.0
O483 O 0.3291 0.41016 0.87312 0.0
O484 O 0.3398 0.34847 0.85908 0.0
O485 O 0.34301 0.51684 0.85538 0.0
O486 O 0.34017 0.50813 0.88339 0.0
O487 O 0.36171 0.36152 0.88952 0.0
O488 O 0.36466 0.43589 0.89264 0.0
O489 O 0.39335 0.40008 0.8679 0.0
O490 O 0.38157 0.46826 0.86147 0.0
O491 O 0.38691 0.30301 0.86939 0.0
O492 O 0.37298 0.30126 0.84427 0.0
C493 C 0.32675 0.37035 0.86694 0.0
O494 O 0.34607 0.43308 0.84028 0.0
O495 O 0.37285 0.39705 0.83672 0.0
C496 C 0.34396 0.58105 0.87273 0.0
C497 C 0.35149 0.67191 0.87425 0.0
C498 C 0.36367 0.64305 0.8659 0.0
C499 C 0.35996 0.59806 0.86517 0.0
C500 C 0.33213 0.60947 0.88156 0.0
C501 C 0.33585 0.65438 0.88236 0.0
C502 C 0.33844 0.53492 0.87017 0.0
C503 C 0.36376 0.39641 0.89946 0.0
C504 C 0.39545 0.44199 0.8647 0.0
C505 C 0.37949 0.23318 0.85775 0.0
C506 C 0.37289 0.14236 0.86141 0.0
C507 C 0.36123 0.17317 0.86936 0.0
C508 C 0.36448 0.21826 0.86751 0.0
C509 C 0.39114 0.20267 0.84993 0.0
C510 C 0.38791 0.15781 0.85173 0.0
C511 C 0.38335 0.28015 0.85536 0.0
H512 H 0.37597 0.65531 0.85975 0.0
H513 H 0.36936 0.57677 0.85832 0.0
H514 H 0.31965 0.5971 0.88738 0.0
H515 H 0.32608 0.67558 0.88875 0.0
H516 H 0.34946 0.16247 0.87679 0.0
H517 H 0.35529 0.2414 0.87361 0.0
H518 H 0.40282 0.21357 0.84239 0.0
H519 H 0.39736 0.13519 0.84568 0.0
Dy520 Dy 0.62421 0.58239 0.86963 0.0
Dy521 Dy 0.60691 0.68194 0.8622 0.0
C522 C 0.61686 0.61656 0.83185 0.0
O523 O 0.64757 0.62797 0.87447 0.0
O524 O 0.63706 0.68941 0.85992 0.0
O525 O 0.63437 0.52242 0.85856 0.0
O526 O 0.63399 0.53031 0.88671 0.0
O527 O 0.616 0.68113 0.89027 0.0
O528 O 0.6131 0.60722 0.89494 0.0
O529 O 0.58346 0.64017 0.86995 0.0
O530 O 0.59461 0.5717 0.86337 0.0
O531 O 0.5897 0.73649 0.86931 0.0
O532 O 0.6042 0.73711 0.84461 0.0
C533 C 0.65014 0.66714 0.86773 0.0
O534 O 0.63001 0.6035 0.84229 0.0
O535 O 0.60351 0.64052 0.83808 0.0
C536 C 0.63147 0.4577 0.87546 0.0
C537 C 0.62398 0.36677 0.87595 0.0
C538 C 0.613 0.39555 0.86604 0.0
C539 C 0.61668 0.44059 0.86582 0.0
C540 C 0.64204 0.42934 0.88581 0.0
C541 C 0.63833 0.3844 0.88609 0.0
C542 C 0.63722 0.50389 0.87369 0.0
C543 C 0.61458 0.64743 0.90093 0.0
C544 C 0.58096 0.5984 0.86674 0.0
C545 C 0.59767 0.80573 0.85751 0.0
C546 C 0.60432 0.89646 0.86134 0.0
C547 C 0.61478 0.86562 0.8708 0.0
C548 C 0.61151 0.82059 0.86887 0.0
C549 C 0.58725 0.83627 0.84811 0.0
C550 C 0.59051 0.88109 0.84999 0.0
C551 C 0.59365 0.7588 0.85524 0.0
H552 H 0.60168 0.3832 0.85828 0.0
H553 H 0.60827 0.46182 0.85776 0.0
H554 H 0.65358 0.44179 0.89325 0.0
H555 H 0.64718 0.36326 0.89374 0.0
H556 H 0.62563 0.87625 0.87952 0.0
H557 H 0.61974 0.79743 0.8762 0.0
H558 H 0.57647 0.82541 0.83933 0.0
H559 H 0.582 0.90377 0.84272 0.0
Dy560 Dy 0.35247 0.57903 0.62075 0.0
Dy561 Dy 0.36979 0.67902 0.6271 0.0
C562 C 0.35904 0.61612 0.65808 0.0
O563 O 0.32939 0.6246 0.61469 0.0
O564 O 0.33965 0.68727 0.62848 0.0
O565 O 0.34437 0.51795 0.63245 0.0
O566 O 0.34037 0.52795 0.60458 0.0
O567 O 0.36199 0.67439 0.59871 0.0
O568 O 0.36539 0.60013 0.59569 0.0
O569 O 0.39359 0.63694 0.62101 0.0
O570 O 0.38208 0.56835 0.62716 0.0
O571 O 0.38732 0.73279 0.61958 0.0
O572 O 0.37208 0.73585 0.64384 0.0
C573 C 0.32673 0.66445 0.62068 0.0
O574 O 0.34601 0.60264 0.6476 0.0
O575 O 0.37258 0.63942 0.65177 0.0
C576 C 0.34459 0.45448 0.61455 0.0
C577 C 0.35125 0.36341 0.61197 0.0
C578 C 0.36319 0.39067 0.62157 0.0
C579 C 0.3599 0.43574 0.62285 0.0
C580 C 0.33308 0.42773 0.60443 0.0
C581 C 0.33638 0.38276 0.6031 0.0
C582 C 0.33926 0.5005 0.61764 0.0
C583 C 0.36432 0.63954 0.58883 0.0
C584 C 0.39588 0.59512 0.62426 0.0
C585 C 0.37953 0.80318 0.63018 0.0
C586 C 0.37408 0.89375 0.62456 0.0
C587 C 0.36245 0.86264 0.61659 0.0
C588 C 0.36518 0.81767 0.61936 0.0
C589 C 0.39097 0.834 0.63827 0.0
C590 C 0.38829 0.87874 0.63552 0.0
C591 C 0.38309 0.75634 0.6332 0.0
H592 H 0.3747 0.37699 0.62868 0.0
H593 H 0.369 0.45564 0.63077 0.0
H594 H 0.32119 0.44145 0.59792 0.0
H595 H 0.3271 0.36304 0.59531 0.0
H596 H 0.35146 0.87299 0.60799 0.0
H597 H 0.35619 0.79428 0.61301 0.0
H598 H 0.40206 0.82341 0.64674 0.0
H599 H 0.39728 0.90163 0.64214 0.0
Dy600 Dy 0.62513 0.45629 0.62349 0.0
Dy601 Dy 0.60733 0.35646 0.62887 0.0
C602 C 0.61743 0.41832 0.66045 0.0
O603 O 0.64822 0.41042 0.61804 0.0
O604 O 0.63739 0.34782 0.63143 0.0
O605 O 0.63334 0.51676 0.63566 0.0
O606 O 0.63749 0.50782 0.60782 0.0
O607 O 0.61596 0.36171 0.60078 0.0
O608 O 0.61285 0.43608 0.59794 0.0
O609 O 0.58382 0.3991 0.62214 0.0
O610 O 0.59542 0.46717 0.62908 0.0
O611 O 0.59045 0.30231 0.62029 0.0
O612 O 0.60395 0.29998 0.64561 0.0
C613 C 0.65057 0.37043 0.62406 0.0
O614 O 0.63077 0.43196 0.65048 0.0
O615 O 0.60399 0.39547 0.65358 0.0
C616 C 0.63318 0.5808 0.61812 0.0
C617 C 0.62594 0.67166 0.61607 0.0
C618 C 0.61349 0.64308 0.62428 0.0
C619 C 0.61705 0.59809 0.62526 0.0
C620 C 0.64527 0.60892 0.60938 0.0
C621 C 0.64169 0.65384 0.60833 0.0
C622 C 0.63857 0.53475 0.62103 0.0
C623 C 0.61406 0.39687 0.59096 0.0
C624 C 0.5816 0.44082 0.62558 0.0
C625 C 0.59776 0.23227 0.63177 0.0
C626 C 0.60467 0.14172 0.62801 0.0
C627 C 0.61655 0.17294 0.62056 0.0
C628 C 0.61314 0.2179 0.62247 0.0
C629 C 0.58586 0.20134 0.63905 0.0
C630 C 0.58924 0.1566 0.6372 0.0
C631 C 0.59379 0.27908 0.63429 0.0
H632 H 0.60109 0.65559 0.63015 0.0
H633 H 0.60745 0.57703 0.63202 0.0
H634 H 0.65784 0.59634 0.60387 0.0
H635 H 0.65166 0.67482 0.60206 0.0
H636 H 0.62862 0.16265 0.61352 0.0
H637 H 0.62252 0.24139 0.61679 0.0
H638 H 0.57388 0.21182 0.64623 0.0
H639 H 0.57964 0.13363 0.64285 0.0
C640 C 0.16926 0.22817 0.12048 0.0
C641 C 0.16781 0.18235 0.1193 0.0
C642 C 0.18628 0.24873 0.11926 0.0
C643 C 0.23476 0.23021 0.12708 0.0
H644 H 0.24202 0.33212 0.09757 0.0
C645 C 0.30592 0.30704 0.11939 0.0
C646 C 0.30728 0.35285 0.1185 0.0
C647 C 0.28892 0.2864 0.11838 0.0
C648 C 0.24018 0.30408 0.10607 0.0
H649 H 0.18308 0.12222 0.11582 0.0
H650 H 0.21295 0.15828 0.11401 0.0
H651 H 0.2123 0.29546 0.09786 0.0
H652 H 0.29191 0.413 0.11556 0.0
H653 H 0.26202 0.37702 0.11438 0.0
H654 H 0.26229 0.23929 0.13579 0.0
C655 C 0.20083 0.17813 0.11582 0.0
C656 C 0.22318 0.28298 0.10614 0.0
C657 C 0.18375 0.15755 0.11678 0.0
C658 C 0.29127 0.37763 0.11626 0.0
C659 C 0.27416 0.35693 0.11549 0.0
C660 C 0.25166 0.25157 0.12718 0.0
C661 C 0.20224 0.22392 0.11707 0.0
C662 C 0.22034 0.24578 0.11662 0.0
C663 C 0.27278 0.31102 0.11671 0.0
C664 C 0.25464 0.28869 0.11662 0.0
H665 H 0.15722 0.24829 0.12229 0.0
H666 H 0.18699 0.28403 0.12041 0.0
H667 H 0.23284 0.20204 0.1355 0.0
H668 H 0.31803 0.28692 0.12081 0.0
H669 H 0.28849 0.251 0.11888 0.0
C670 C 0.80293 0.82167 0.10695 0.0
C671 C 0.80541 0.86203 0.1155 0.0
C672 C 0.78591 0.80098 0.10689 0.0
C673 C 0.74409 0.79248 0.1325 0.0
H674 H 0.7245 0.73495 0.09119 0.0
C675 C 0.67233 0.71552 0.1317 0.0
C676 C 0.66953 0.67625 0.12245 0.0
C677 C 0.68887 0.73804 0.13054 0.0
C678 C 0.72991 0.75029 0.1029 0.0
H679 H 0.79183 0.9129 0.13028 0.0
H680 H 0.76193 0.87638 0.13028 0.0
H681 H 0.75288 0.77692 0.08916 0.0
H682 H 0.6821 0.62965 0.10485 0.0
H683 H 0.71132 0.66868 0.10311 0.0
H684 H 0.72142 0.76531 0.14636 0.0
C685 C 0.77328 0.86083 0.12368 0.0
C686 C 0.7461 0.77456 0.1017 0.0
C687 C 0.79033 0.88186 0.12359 0.0
C688 C 0.68382 0.65978 0.11214 0.0
C689 C 0.7005 0.68233 0.11105 0.0
C690 C 0.72799 0.76799 0.13373 0.0
C691 C 0.77097 0.81995 0.11548 0.0
C692 C 0.75334 0.79594 0.11649 0.0
C693 C 0.70318 0.72185 0.1202 0.0
C694 C 0.72066 0.74668 0.11894 0.0
H695 H 0.81424 0.80559 0.10049 0.0
H696 H 0.78462 0.76937 0.10059 0.0
H697 H 0.74953 0.80787 0.1442 0.0
H698 H 0.66162 0.72953 0.13967 0.0
H699 H 0.69028 0.76872 0.1375 0.0
C700 C 0.29115 0.65292 0.37303 0.0
C701 C 0.30672 0.67865 0.36982 0.0
C702 C 0.27386 0.67235 0.37399 0.0
C703 C 0.2505 0.77633 0.38226 0.0
H704 H 0.212 0.72913 0.35269 0.0
C705 C 0.18294 0.86949 0.36935 0.0
C706 C 0.16689 0.8447 0.3673 0.0
C707 C 0.19994 0.84872 0.37071 0.0
C708 C 0.22246 0.74236 0.36128 0.0
H709 H 0.31651 0.74499 0.3657 0.0
H710 H 0.28641 0.77873 0.3676 0.0
H711 H 0.24159 0.69275 0.35392 0.0
H712 H 0.15593 0.77874 0.36579 0.0
H713 H 0.18533 0.74269 0.36874 0.0
H714 H 0.23138 0.82564 0.38984 0.0
C715 C 0.28755 0.74362 0.36927 0.0
C716 C 0.23942 0.7215 0.36193 0.0
C717 C 0.30475 0.72421 0.36804 0.0
C718 C 0.1681 0.79883 0.36707 0.0
C719 C 0.185 0.77811 0.36868 0.0
C720 C 0.23344 0.79692 0.3818 0.0
C721 C 0.27193 0.71786 0.37207 0.0
C722 C 0.25364 0.73849 0.3723 0.0
C723 C 0.20118 0.80273 0.3703 0.0
C724 C 0.21924 0.78039 0.37119 0.0
H725 H 0.29226 0.61775 0.37445 0.0
H726 H 0.262 0.65184 0.37625 0.0
H727 H 0.26123 0.78986 0.39047 0.0
H728 H 0.18242 0.90491 0.36952 0.0
H729 H 0.21212 0.86879 0.37171 0.0
C730 C 0.79124 0.15474 0.37346 0.0
C731 C 0.80686 0.18019 0.37012 0.0
C732 C 0.77408 0.17459 0.3749 0.0
C733 C 0.75134 0.27882 0.38425 0.0
H734 H 0.71222 0.23392 0.35487 0.0
C735 C 0.68391 0.37396 0.3728 0.0
C736 C 0.66778 0.34949 0.37072 0.0
C737 C 0.70087 0.35286 0.37389 0.0
C738 C 0.72285 0.24649 0.36342 0.0
H739 H 0.81689 0.24645 0.3663 0.0
H740 H 0.78701 0.2809 0.36903 0.0
H741 H 0.74164 0.19673 0.35544 0.0
H742 H 0.65662 0.28375 0.36897 0.0
H743 H 0.68593 0.24714 0.37146 0.0
H744 H 0.73256 0.32829 0.39243 0.0
C745 C 0.78802 0.2457 0.37043 0.0
C746 C 0.73972 0.22517 0.36369 0.0
C747 C 0.80508 0.22587 0.36873 0.0
C748 C 0.66885 0.3036 0.37025 0.0
C749 C 0.6857 0.28257 0.3716 0.0
C750 C 0.73438 0.29987 0.38416 0.0
C751 C 0.77234 0.22024 0.37334 0.0
C752 C 0.75415 0.24132 0.37399 0.0
C753 C 0.70197 0.30687 0.37317 0.0
C754 C 0.71995 0.28414 0.37365 0.0
H755 H 0.79221 0.11948 0.3746 0.0
H756 H 0.76217 0.15431 0.37723 0.0
H757 H 0.76226 0.29172 0.3924 0.0
H758 H 0.68348 0.40938 0.37317 0.0
H759 H 0.71312 0.37268 0.37488 0.0
C760 C 0.68414 0.66211 0.87141 0.0
C761 C 0.66836 0.68762 0.86904 0.0
C762 C 0.70138 0.68191 0.87208 0.0
C763 C 0.72495 0.7852 0.85997 0.0
H764 H 0.76354 0.73959 0.88984 0.0
C765 C 0.79406 0.87344 0.87013 0.0
C766 C 0.80952 0.84721 0.86725 0.0
C767 C 0.77672 0.85444 0.87135 0.0
C768 C 0.75286 0.75252 0.88143 0.0
H769 H 0.65812 0.75389 0.86624 0.0
H770 H 0.688 0.78845 0.86802 0.0
H771 H 0.7333 0.70548 0.89032 0.0
H772 H 0.81907 0.78049 0.86391 0.0
H773 H 0.78878 0.7474 0.86629 0.0
H774 H 0.7445 0.8327 0.85136 0.0
C775 C 0.68724 0.7531 0.86873 0.0
C776 C 0.73559 0.73291 0.88161 0.0
C777 C 0.67008 0.73329 0.8678 0.0
C778 C 0.80738 0.80159 0.866 0.0
C779 C 0.7901 0.78259 0.86749 0.0
C780 C 0.74212 0.80513 0.85999 0.0
C781 C 0.70314 0.72767 0.87065 0.0
C782 C 0.72144 0.74887 0.8708 0.0
C783 C 0.77461 0.80887 0.87 0.0
C784 C 0.75624 0.78881 0.87063 0.0
H785 H 0.68321 0.6268 0.87235 0.0
H786 H 0.71334 0.66125 0.87333 0.0
H787 H 0.71453 0.79784 0.8512 0.0
H788 H 0.79531 0.90868 0.87114 0.0
H789 H 0.76495 0.87531 0.87339 0.0
C790 C 0.30807 0.30238 0.86865 0.0
C791 C 0.30895 0.34828 0.8691 0.0
C792 C 0.29136 0.28083 0.87036 0.0
C793 C 0.24308 0.29671 0.88394 0.0
H794 H 0.23514 0.1941 0.85497 0.0
C795 C 0.17212 0.2228 0.86886 0.0
C796 C 0.17033 0.17708 0.87007 0.0
C797 C 0.18923 0.2426 0.87057 0.0
C798 C 0.23727 0.22237 0.86329 0.0
H799 H 0.29311 0.40771 0.87191 0.0
H800 H 0.26369 0.37011 0.87425 0.0
H801 H 0.26449 0.23173 0.85404 0.0
H802 H 0.18498 0.11628 0.87427 0.0
H803 H 0.21509 0.15109 0.87691 0.0
H804 H 0.21545 0.28799 0.89258 0.0
C805 C 0.27599 0.35068 0.87299 0.0
C806 C 0.25409 0.24394 0.86281 0.0
C807 C 0.29281 0.37228 0.87154 0.0
C808 C 0.18597 0.15157 0.87327 0.0
C809 C 0.20316 0.1714 0.87472 0.0
C810 C 0.22616 0.27541 0.88423 0.0
C811 C 0.27507 0.30466 0.87229 0.0
C812 C 0.25721 0.28145 0.8731 0.0
C813 C 0.20491 0.21707 0.87331 0.0
C814 C 0.22311 0.23815 0.87387 0.0
H815 H 0.32033 0.28291 0.8671 0.0
H816 H 0.29127 0.2454 0.87022 0.0
H817 H 0.2451 0.32501 0.89225 0.0
H818 H 0.1603 0.2434 0.86656 0.0
H819 H 0.19025 0.27784 0.8693 0.0
C820 C 0.68454 0.37405 0.6197 0.0
C821 C 0.6686 0.34921 0.62227 0.0
C822 C 0.70155 0.35342 0.61836 0.0
C823 C 0.72463 0.24814 0.62865 0.0
H824 H 0.76223 0.29379 0.59796 0.0
C825 C 0.79287 0.15821 0.61624 0.0
C826 C 0.80856 0.18414 0.61874 0.0
C827 C 0.77556 0.17756 0.6155 0.0
C828 C 0.75183 0.28079 0.6066 0.0
H829 H 0.65785 0.28326 0.62479 0.0
H830 H 0.68727 0.24739 0.62191 0.0
H831 H 0.73234 0.32932 0.59884 0.0
H832 H 0.81849 0.25072 0.62182 0.0
H833 H 0.78831 0.28434 0.6203 0.0
H834 H 0.74411 0.19927 0.63618 0.0
C835 C 0.68684 0.2828 0.62152 0.0
C836 C 0.73476 0.30125 0.6072 0.0
C837 C 0.66993 0.3034 0.6231 0.0
C838 C 0.80665 0.2298 0.62002 0.0
C839 C 0.7894 0.24913 0.61902 0.0
C840 C 0.7416 0.2274 0.62787 0.0
C841 C 0.70291 0.30751 0.61932 0.0
C842 C 0.72098 0.28535 0.61833 0.0
C843 C 0.77369 0.22318 0.61694 0.0
C844 C 0.75539 0.24374 0.61695 0.0
H845 H 0.68393 0.40943 0.61905 0.0
H846 H 0.71365 0.37355 0.61692 0.0
H847 H 0.7145 0.23546 0.63764 0.0
H848 H 0.79393 0.12296 0.61522 0.0
H849 H 0.76362 0.15691 0.6138 0.0
C850 C 0.17046 0.80719 0.61758 0.0
C851 C 0.16925 0.85303 0.617 0.0
C852 C 0.18735 0.78643 0.6163 0.0
C853 C 0.23592 0.80423 0.60392 0.0
H854 H 0.24356 0.70211 0.63329 0.0
C855 C 0.30688 0.73077 0.61969 0.0
C856 C 0.3086 0.68504 0.61852 0.0
C857 C 0.2898 0.75064 0.61797 0.0
C858 C 0.24154 0.73027 0.62487 0.0
H859 H 0.18472 0.91317 0.61432 0.0
H860 H 0.21447 0.87696 0.61271 0.0
H861 H 0.21407 0.73892 0.6335 0.0
H862 H 0.29381 0.62429 0.61445 0.0
H863 H 0.26378 0.65917 0.61179 0.0
H864 H 0.26377 0.79615 0.59585 0.0
C865 C 0.20228 0.85695 0.61377 0.0
C866 C 0.22463 0.75137 0.62493 0.0
C867 C 0.18527 0.87776 0.61478 0.0
C868 C 0.2929 0.65958 0.61542 0.0
C869 C 0.27574 0.67947 0.61396 0.0
C870 C 0.25293 0.7834 0.60404 0.0
C871 C 0.20353 0.811 0.61469 0.0
C872 C 0.22158 0.7886 0.61445 0.0
C873 C 0.27406 0.72516 0.61527 0.0
C874 C 0.25588 0.74625 0.61452 0.0
H875 H 0.1583 0.78716 0.61896 0.0
H876 H 0.18769 0.75101 0.61658 0.0
H877 H 0.23399 0.83235 0.59548 0.0
H878 H 0.31875 0.75135 0.62192 0.0
H879 H 0.28885 0.78588 0.61917 0.0
C880 C 0.09852 0.93166 0.30089 0.0
C881 C 0.11524 0.9284 0.30999 0.0
C882 C 0.09783 0.95036 0.28412 0.0
C883 C 0.12582 0.97492 0.24548 0.0
H884 H 0.09149 0.06921 0.23679 0.0
C885 C 0.13188 0.08121 0.18366 0.0
C886 C 0.1158 0.0956 0.17532 0.0
C887 C 0.13121 0.06156 0.20017 0.0
C888 C 0.10098 0.04251 0.23884 0.0
H889 H 0.1444 0.94085 0.30841 0.0
H890 H 0.14326 0.9723 0.27904 0.0
H891 H 0.09102 0.03061 0.26482 0.0
H892 H 0.0864 0.10135 0.17793 0.0
H893 H 0.0851 0.0659 0.20658 0.0
H894 H 0.1356 0.98576 0.21954 0.0
C895 C 0.13067 0.96078 0.2849 0.0
C896 C 0.10071 0.02045 0.25495 0.0
C897 C 0.13131 0.94286 0.30174 0.0
C898 C 0.09905 0.09094 0.18409 0.0
C899 C 0.09834 0.07062 0.20055 0.0
C900 C 0.12593 0.99649 0.22933 0.0
C901 C 0.1139 0.96536 0.276 0.0
C902 C 0.11329 0.98679 0.25851 0.0
C903 C 0.1144 0.05499 0.20872 0.0
C904 C 0.11371 0.03108 0.22583 0.0
H905 H 0.08588 0.92113 0.30695 0.0
H906 H 0.08474 0.95324 0.27752 0.0
H907 H 0.13552 0.94873 0.24777 0.0
H908 H 0.14503 0.08467 0.17731 0.0
H909 H 0.14395 0.05126 0.20618 0.0
C910 C 0.84495 0.05886 0.30693 0.0
C911 C 0.85596 0.09473 0.31171 0.0
C912 C 0.84535 0.04213 0.28991 0.0
C913 C 0.87363 0.0422 0.24936 0.0
H914 H 0.82967 0.99263 0.22867 0.0
C915 C 0.86715 0.99753 0.17598 0.0
C916 C 0.85918 0.9569 0.17178 0.0
C917 C 0.86715 1.01301 0.19319 0.0
C918 C 0.8421 1.00596 0.23435 0.0
H919 H 0.87578 0.14172 0.30216 0.0
H920 H 0.87601 0.11364 0.27224 0.0
H921 H 0.82846 0.02439 0.25791 0.0
H922 H 0.845 0.9006 0.18245 0.0
H923 H 0.84472 0.92817 0.21261 0.0
H924 H 0.88705 0.02481 0.22545 0.0
C925 C 0.8674 0.09755 0.28179 0.0
C926 C 0.84145 0.02415 0.25115 0.0
C927 C 0.86717 0.11398 0.29893 0.0
C928 C 0.85128 0.93196 0.18526 0.0
C929 C 0.85103 0.94784 0.20249 0.0
C930 C 0.8742 0.02454 0.23246 0.0
C931 C 0.8566 0.0611 0.27706 0.0
C932 C 0.85722 0.04246 0.25895 0.0
C933 C 0.85896 0.98857 0.20662 0.0
C934 C 0.85845 1.00617 0.22478 0.0
H935 H 0.83629 0.04285 0.31647 0.0
H936 H 0.8371 1.01358 0.28698 0.0
H937 H 0.88615 0.05508 0.25496 0.0
H938 H 0.87342 0.01755 0.16594 0.0
H939 H 0.87323 0.04464 0.19592 0.0
C940 C 0.84412 0.08658 0.6836 0.0
C941 C 0.86025 0.10113 0.67548 0.0
C942 C 0.84465 0.0684 0.70041 0.0
C943 C 0.87426 1.00759 0.73014 0.0
H944 H 0.84007 0.04343 0.76599 0.0
C945 C 0.87674 0.93632 0.80072 0.0
C946 C 0.86021 0.93256 0.80993 0.0
C947 C 0.8772 0.95681 0.78429 0.0
C948 C 0.84953 0.03234 0.75608 0.0
H949 H 0.88959 0.10828 0.6787 0.0
H950 H 0.89055 0.07561 0.70804 0.0
H951 H 0.84005 0.08059 0.73777 0.0
H952 H 0.83109 0.94547 0.80879 0.0
H953 H 0.83168 0.97909 0.77993 0.0
H954 H 0.88335 0.95828 0.74809 0.0
C955 C 0.87749 0.07868 0.70138 0.0
C956 C 0.84959 0.054 0.73993 0.0
C957 C 0.87692 0.09768 0.68466 0.0
C958 C 0.84407 0.94818 0.80208 0.0
C959 C 0.84447 0.96795 0.78557 0.0
C960 C 0.87402 0.98539 0.74621 0.0
C961 C 0.86137 0.0636 0.70937 0.0
C962 C 0.86191 0.0418 0.72678 0.0
C963 C 0.86109 0.97347 0.77656 0.0
C964 C 0.86158 0.99729 0.75941 0.0
H965 H 0.83107 0.08874 0.67686 0.0
H966 H 0.83203 0.05685 0.70619 0.0
H967 H 0.88378 0.99716 0.72015 0.0
H968 H 0.88945 0.925 0.8065 0.0
H969 H 0.89031 0.96077 0.77795 0.0
C970 C 0.10744 0.10734 0.79939 0.0
C971 C 0.11973 0.0904 0.81189 0.0
C972 C 0.10656 0.08952 0.78249 0.0
C973 C 0.11635 0.98846 0.75798 0.0
H974 H 0.11661 0.06338 0.71698 0.0
C975 C 0.10654 0.92389 0.6867 0.0
C976 C 0.11898 0.94039 0.67435 0.0
C977 C 0.10583 0.94156 0.70364 0.0
C978 C 0.11652 0.04204 0.72831 0.0
H979 H 0.14078 0.04146 0.81634 0.0
H980 H 0.13912 1.01047 0.78703 0.0
H981 H 0.11686 0.0961 0.7462 0.0
H982 H 0.14049 0.98838 0.6702 0.0
H983 H 0.13912 0.01911 0.69954 0.0
H984 H 0.11615 0.93439 0.74008 0.0
C985 C 0.13014 0.0374 0.79029 0.0
C986 C 0.11652 0.06079 0.74503 0.0
C987 C 0.13118 0.05549 0.80706 0.0
C988 C 0.13076 0.97469 0.67936 0.0
C989 C 0.12989 0.99264 0.69615 0.0
C990 C 0.11611 0.96971 0.74125 0.0
C991 C 0.11776 0.05401 0.77783 0.0
C992 C 0.11668 0.03421 0.76005 0.0
C993 C 0.11736 0.97651 0.70846 0.0
C994 C 0.11646 0.99628 0.72624 0.0
H995 H 0.09841 0.13411 0.80269 0.0
H996 H 0.09685 0.10292 0.77317 0.0
H997 H 0.11629 0.96712 0.76931 0.0
H998 H 0.09725 0.89758 0.68326 0.0
H999 H 0.09599 0.92853 0.71284 0.0
C1000 C 0.62767 0.46703 0.30801 0.0
C1001 C 0.61506 0.43575 0.31409 0.0
C1002 C 0.62611 0.48453 0.29116 0.0
C1003 C 0.60692 0.46356 0.24736 0.0
H1004 H 0.61483 0.5881 0.24079 0.0
C1005 C 0.62191 0.53946 0.17984 0.0
C1006 C 0.6135 0.57938 0.17535 0.0
C1007 C 0.62042 0.5223 0.19673 0.0
C1008 C 0.6124 0.55336 0.24241 0.0
H1009 H 0.59102 0.3979 0.30701 0.0
H1010 H 0.58842 0.42821 0.2774 0.0
H1011 H 0.61532 0.55714 0.2703 0.0
H1012 H 0.59687 0.63248 0.18526 0.0
H1013 H 0.59444 0.60257 0.21497 0.0
H1014 H 0.60417 0.45972 0.21945 0.0
C1015 C 0.59952 0.43914 0.28577 0.0
C1016 C 0.61287 0.53553 0.25931 0.0
C1017 C 0.601 0.42181 0.30274 0.0
C1018 C 0.60354 0.60173 0.18826 0.0
C1019 C 0.6022 0.58467 0.20529 0.0
C1020 C 0.6066 0.48134 0.23046 0.0
C1021 C 0.61195 0.47108 0.27986 0.0
C1022 C 0.61035 0.49033 0.26197 0.0
C1023 C 0.61059 0.54464 0.20968 0.0
C1024 C 0.60955 0.52638 0.22776 0.0
H1025 H 0.63868 0.47863 0.31636 0.0
H1026 H 0.63609 0.5085 0.28693 0.0
H1027 H 0.605 0.42863 0.24894 0.0
H1028 H 0.62964 0.52111 0.17027 0.0
H1029 H 0.62726 0.49175 0.19971 0.0
C1030 C 0.34665 0.55668 0.30801 0.0
C1031 C 0.35803 0.59181 0.31294 0.0
C1032 C 0.34775 0.53851 0.29126 0.0
C1033 C 0.36135 0.56192 0.24611 0.0
H1034 H 0.36166 0.4355 0.24123 0.0
C1035 C 0.34676 0.47546 0.1804 0.0
C1036 C 0.35841 0.441 0.17549 0.0
C1037 C 0.34777 0.49358 0.19716 0.0
C1038 C 0.36171 0.47083 0.24238 0.0
H1039 H 0.3793 0.63581 0.30394 0.0
H1040 H 0.38096 0.60447 0.27445 0.0
H1041 H 0.36161 0.46834 0.27044 0.0
H1042 H 0.38009 0.39813 0.18457 0.0
H1043 H 0.3816 0.42938 0.21411 0.0
H1044 H 0.36118 0.56441 0.21805 0.0
C1045 C 0.37125 0.59096 0.28367 0.0
C1046 C 0.36153 0.48964 0.25909 0.0
C1047 C 0.37032 0.60886 0.30056 0.0
C1048 C 0.37089 0.42456 0.18792 0.0
C1049 C 0.37174 0.4424 0.20484 0.0
C1050 C 0.3613 0.5431 0.2294 0.0
C1051 C 0.36011 0.55525 0.27892 0.0
C1052 C 0.36121 0.5354 0.26115 0.0
C1053 C 0.36032 0.47747 0.20956 0.0
C1054 C 0.36133 0.49734 0.22734 0.0
H1055 H 0.33706 0.54255 0.31719 0.0
H1056 H 0.33881 0.51144 0.28793 0.0
H1057 H 0.36102 0.59724 0.24726 0.0
H1058 H 0.337 0.48912 0.17118 0.0
H1059 H 0.33862 0.52014 0.20047 0.0
C1060 C 0.34357 0.44969 0.80345 0.0
C1061 C 0.35972 0.43527 0.81168 0.0
C1062 C 0.34403 0.46767 0.78661 0.0
C1063 C 0.3736 0.52779 0.75673 0.0
H1064 H 0.33914 0.49105 0.7209 0.0
C1065 C 0.37593 0.59664 0.68575 0.0
C1066 C 0.35938 0.60013 0.67642 0.0
C1067 C 0.37641 0.57675 0.70231 0.0
C1068 C 0.34867 0.5024 0.7308 0.0
H1069 H 0.38905 0.42823 0.80863 0.0
H1070 H 0.38989 0.46052 0.77923 0.0
H1071 H 0.33916 0.45481 0.7493 0.0
H1072 H 0.33023 0.58743 0.67748 0.0
H1073 H 0.33086 0.55489 0.70653 0.0
H1074 H 0.38273 0.57642 0.73857 0.0
C1075 C 0.37686 0.45753 0.78584 0.0
C1076 C 0.34875 0.48126 0.74706 0.0
C1077 C 0.37635 0.43873 0.80259 0.0
C1078 C 0.34324 0.5849 0.68427 0.0
C1079 C 0.34366 0.56574 0.70091 0.0
C1080 C 0.37334 0.54947 0.74055 0.0
C1081 C 0.36071 0.4724 0.77772 0.0
C1082 C 0.36117 0.49377 0.76021 0.0
C1083 C 0.3603 0.56046 0.71005 0.0
C1084 C 0.3608 0.53723 0.72734 0.0
H1085 H 0.33055 0.44752 0.81012 0.0
H1086 H 0.33139 0.47907 0.78073 0.0
H1087 H 0.3832 0.53844 0.76671 0.0
H1088 H 0.38864 0.60767 0.67998 0.0
H1089 H 0.38954 0.57296 0.70875 0.0
C1090 C 0.63245 0.58445 0.80579 0.0
C1091 C 0.61637 0.59996 0.81361 0.0
C1092 C 0.63194 0.56478 0.78928 0.0
C1093 C 0.60227 0.5476 0.74975 0.0
H1094 H 0.63633 0.45265 0.74153 0.0
C1095 C 0.59994 0.43684 0.68772 0.0
C1096 C 0.61671 0.43338 0.67889 0.0
C1097 C 0.59917 0.45554 0.70446 0.0
C1098 C 0.62676 0.47917 0.74362 0.0
H1099 H 0.58711 0.60751 0.81012 0.0
H1100 H 0.58605 0.57193 0.78151 0.0
H1101 H 0.63619 0.48928 0.76982 0.0
H1102 H 0.64588 0.44551 0.68091 0.0
H1103 H 0.6446 0.47688 0.71028 0.0
H1104 H 0.59263 0.53633 0.72353 0.0
C1105 C 0.5992 0.57585 0.78791 0.0
C1106 C 0.62675 0.50053 0.75982 0.0
C1107 C 0.59977 0.59623 0.80436 0.0
C1108 C 0.63275 0.44767 0.68737 0.0
C1109 C 0.63203 0.46555 0.7042 0.0
C1110 C 0.60211 0.52572 0.73362 0.0
C1111 C 0.61526 0.55925 0.78022 0.0
C1112 C 0.6147 0.53554 0.76307 0.0
C1113 C 0.61521 0.4703 0.71283 0.0
C1114 C 0.61451 0.49164 0.73032 0.0
H1115 H 0.64549 0.58717 0.81252 0.0
H1116 H 0.6447 0.55373 0.78367 0.0
H1117 H 0.59293 0.57465 0.75158 0.0
H1118 H 0.58732 0.42645 0.68146 0.0
H1119 H 0.58604 0.45856 0.71086 0.0
C1120 C 0.11501 0.17971 0.92657 0.0
C1121 C 0.11232 0.13885 0.91846 0.0
C1122 C 0.11395 0.18375 0.94483 0.0
C1123 C 0.09588 0.12717 0.9842 0.0
H1124 H 0.13278 0.19353 0.00942 0.0
C1125 C 0.10878 0.10251 0.05776 0.0
C1126 C 0.11224 0.13934 0.0683 0.0
C1127 C 0.10777 0.10638 0.03956 0.0
C1128 C 0.12222 0.17538 0.00257 0.0
H1129 H 0.10632 0.07028 0.9233 0.0
H1130 H 0.10462 0.07731 0.95489 0.0
H1131 H 0.13272 0.19351 0.9774 0.0
H1132 H 0.11739 0.20928 0.06785 0.0
H1133 H 0.11562 0.21598 0.03594 0.0
H1134 H 0.08556 0.10839 0.00927 0.0
C1135 C 0.10731 0.10639 0.9472 0.0
C1136 C 0.12217 0.17539 0.98421 0.0
C1137 C 0.10842 0.10232 0.92903 0.0
C1138 C 0.11469 0.18023 0.06014 0.0
C1139 C 0.11377 0.18405 0.04185 0.0
C1140 C 0.09594 0.12712 0.00249 0.0
C1141 C 0.11007 0.14709 0.95536 0.0
C1142 C 0.10921 0.15057 0.97481 0.0
C1143 C 0.11023 0.14715 0.03136 0.0
C1144 C 0.10931 0.15053 0.01191 0.0
H1145 H 0.11804 0.20852 0.91884 0.0
H1146 H 0.11602 0.21565 0.9507 0.0
H1147 H 0.08545 0.10849 0.97739 0.0
H1148 H 0.10686 0.07046 0.06354 0.0
H1149 H 0.10533 0.07715 0.03188 0.0
C1150 C 0.86678 0.92221 0.92751 0.0
C1151 C 0.8672 0.88515 0.91664 0.0
C1152 C 0.86805 0.91798 0.94568 0.0
C1153 C 0.86237 0.83881 0.98214 0.0
H1154 H 0.88688 0.93089 0.00817 0.0
C1155 C 0.86998 0.84656 0.05898 0.0
C1156 C 0.86305 0.88592 0.06579 0.0
C1157 C 0.87218 0.84139 0.04081 0.0
C1158 C 0.88007 0.90481 0.00107 0.0
H1159 H 0.86934 0.81437 0.91645 0.0
H1160 H 0.87193 0.80701 0.94828 0.0
H1161 H 0.88801 0.93104 0.97631 0.0
H1162 H 0.85327 0.95082 0.0589 0.0
H1163 H 0.85749 0.94205 0.02758 0.0
H1164 H 0.8545 0.81284 0.00718 0.0
C1165 C 0.87034 0.83938 0.9427 0.0
C1166 C 0.88058 0.90503 0.9828 0.0
C1167 C 0.86894 0.84361 0.92444 0.0
C1168 C 0.85853 0.91993 0.05413 0.0
C1169 C 0.86105 0.91509 0.03617 0.0
C1170 C 0.86207 0.83833 0.00051 0.0
C1171 C 0.86997 0.87659 0.95356 0.0
C1172 C 0.87125 0.87286 0.97304 0.0
C1173 C 0.86791 0.8759 0.0293 0.0
C1174 C 0.87049 0.87206 0.0101 0.0
H1175 H 0.86526 0.95471 0.92203 0.0
H1176 H 0.86723 0.94735 0.95355 0.0
H1177 H 0.85496 0.81361 0.9751 0.0
H1178 H 0.87354 0.81976 0.06763 0.0
H1179 H 0.87749 0.81083 0.0358 0.0
C1180 C 0.11416 0.84894 0.42584 0.0
C1181 C 0.11205 0.88954 0.41735 0.0
C1182 C 0.11449 0.84643 0.44419 0.0
C1183 C 0.12334 0.91528 0.4832 0.0
H1184 H 0.09738 0.82495 0.50875 0.0
C1185 C 0.11046 0.93051 0.55687 0.0
C1186 C 0.11289 0.89335 0.5675 0.0
C1187 C 0.11059 0.92702 0.53865 0.0
C1188 C 0.10488 0.85006 0.5018 0.0
H1189 H 0.1082 0.95917 0.42162 0.0
H1190 H 0.10861 0.95468 0.45333 0.0
H1191 H 0.09721 0.82421 0.47668 0.0
H1192 H 0.11697 0.82305 0.56718 0.0
H1193 H 0.11722 0.81701 0.5352 0.0
H1194 H 0.13092 0.94141 0.50816 0.0
C1195 C 0.11034 0.92483 0.44589 0.0
C1196 C 0.10479 0.84964 0.48342 0.0
C1197 C 0.10999 0.92734 0.42764 0.0
C1198 C 0.11507 0.85235 0.5594 0.0
C1199 C 0.11515 0.84885 0.54107 0.0
C1200 C 0.12342 0.91572 0.50148 0.0
C1201 C 0.11279 0.88447 0.45442 0.0
C1202 C 0.11377 0.88272 0.47391 0.0
C1203 C 0.11314 0.88629 0.53049 0.0
C1204 C 0.11395 0.88359 0.51103 0.0
H1205 H 0.11579 0.81916 0.41833 0.0
H1206 H 0.11649 0.81484 0.45035 0.0
H1207 H 0.13078 0.94065 0.47632 0.0
H1208 H 0.10862 0.96261 0.56258 0.0
H1209 H 0.10863 0.9564 0.53092 0.0
C1210 C 0.86267 0.18469 0.56013 0.0
C1211 C 0.86544 0.14407 0.56841 0.0
C1212 C 0.86363 0.18832 0.54184 0.0
C1213 C 0.88189 0.13161 0.50273 0.0
H1214 H 0.84472 0.19628 0.47721 0.0
C1215 C 0.86947 0.10587 0.42912 0.0
C1216 C 0.86533 0.1422 0.41851 0.0
C1217 C 0.87061 0.11005 0.4473 0.0
C1218 C 0.85537 0.17864 0.48414 0.0
H1219 H 0.87149 0.07547 0.56387 0.0
H1220 H 0.87308 0.0818 0.53223 0.0
H1221 H 0.84468 0.19663 0.50923 0.0
H1222 H 0.85922 0.21164 0.41881 0.0
H1223 H 0.86129 0.21896 0.45067 0.0
H1224 H 0.89246 0.1131 0.47774 0.0
C1225 C 0.87035 0.111 0.5398 0.0
C1226 C 0.85535 0.17883 0.5025 0.0
C1227 C 0.86931 0.10733 0.558 0.0
C1228 C 0.86245 0.18298 0.42657 0.0
C1229 C 0.86353 0.18713 0.44484 0.0
C1230 C 0.88192 0.13145 0.48443 0.0
C1231 C 0.86753 0.15148 0.53147 0.0
C1232 C 0.86841 0.15462 0.51201 0.0
C1233 C 0.86763 0.15066 0.45543 0.0
C1234 C 0.86847 0.15426 0.47489 0.0
H1235 H 0.85965 0.21366 0.56774 0.0
H1236 H 0.86151 0.22004 0.53584 0.0
H1237 H 0.89239 0.11339 0.50963 0.0
H1238 H 0.87172 0.07389 0.42343 0.0
H1239 H 0.87348 0.0811 0.45503 0.0
C1240 C 0.6179 0.69579 0.06244 0.0
C1241 C 0.61682 0.65319 0.06941 0.0
C1242 C 0.61883 0.70227 0.04421 0.0
C1243 C 0.63206 0.64376 0.0039 0.0
H1244 H 0.59932 0.72191 0.97891 0.0
C1245 C 0.61554 0.61793 0.93152 0.0
C1246 C 0.61514 0.65424 0.92021 0.0
C1247 C 0.61683 0.62357 0.94962 0.0
C1248 C 0.60874 0.70044 0.98572 0.0
H1249 H 0.61572 0.58418 0.06253 0.0
H1250 H 0.61737 0.59552 0.0313 0.0
H1251 H 0.59999 0.7225 0.01107 0.0
H1252 H 0.61542 0.72521 0.91922 0.0
H1253 H 0.61756 0.735 0.95104 0.0
H1254 H 0.64052 0.62079 0.97879 0.0
C1255 C 0.61767 0.62395 0.03977 0.0
C1256 C 0.60915 0.70084 0.00412 0.0
C1257 C 0.61659 0.61752 0.05777 0.0
C1258 C 0.61573 0.6965 0.92754 0.0
C1259 C 0.61689 0.70215 0.94576 0.0
C1260 C 0.63165 0.64333 0.98563 0.0
C1261 C 0.61896 0.66624 0.03272 0.0
C1262 C 0.62042 0.67149 0.01338 0.0
C1263 C 0.6177 0.66567 0.95698 0.0
C1264 C 0.6196 0.67065 0.97631 0.0
H1265 H 0.61806 0.72397 0.07103 0.0
H1266 H 0.61979 0.73529 0.03912 0.0
H1267 H 0.64118 0.62141 0.01064 0.0
H1268 H 0.61506 0.58488 0.92643 0.0
H1269 H 0.61707 0.59476 0.95789 0.0
C1270 C 0.36858 0.42845 0.92932 0.0
C1271 C 0.36502 0.39165 0.9188 0.0
C1272 C 0.36957 0.42466 0.94753 0.0
C1273 C 0.35494 0.35574 0.98457 0.0
H1274 H 0.3915 0.42306 0.00984 0.0
C1275 C 0.36209 0.35157 0.06065 0.0
C1276 C 0.36471 0.39246 0.06875 0.0
C1277 C 0.36312 0.34753 0.04238 0.0
C1278 C 0.38112 0.40426 0.00301 0.0
H1279 H 0.3597 0.32179 0.9193 0.0
H1280 H 0.36146 0.31519 0.95122 0.0
H1281 H 0.39152 0.42304 0.97796 0.0
H1282 H 0.37052 0.46111 0.06388 0.0
H1283 H 0.37218 0.45408 0.03229 0.0
H1284 H 0.34439 0.33755 0.00972 0.0
C1285 C 0.3634 0.34706 0.94529 0.0
C1286 C 0.38113 0.40425 0.98471 0.0
C1287 C 0.36249 0.35083 0.92699 0.0
C1288 C 0.36848 0.42903 0.05817 0.0
C1289 C 0.36956 0.42497 0.03999 0.0
C1290 C 0.35493 0.35577 0.00294 0.0
C1291 C 0.36699 0.38397 0.95577 0.0
C1292 C 0.36784 0.38068 0.97524 0.0
C1293 C 0.3669 0.38422 0.03183 0.0
C1294 C 0.36781 0.38074 0.01238 0.0
H1295 H 0.37057 0.46047 0.92352 0.0
H1296 H 0.37207 0.4539 0.95518 0.0
H1297 H 0.34443 0.33747 0.9777 0.0
H1298 H 0.35916 0.32271 0.0684 0.0
H1299 H 0.36111 0.3156 0.03652 0.0
C1300 C 0.61517 0.35176 0.4297 0.0
C1301 C 0.61311 0.39256 0.42136 0.0
C1302 C 0.61552 0.34885 0.44805 0.0
C1303 C 0.62456 0.41668 0.4873 0.0
H1304 H 0.59811 0.32658 0.51253 0.0
C1305 C 0.61173 0.43052 0.56111 0.0
C1306 C 0.61365 0.39289 0.57157 0.0
C1307 C 0.61198 0.42759 0.54287 0.0
C1308 C 0.60576 0.35162 0.50567 0.0
H1309 H 0.60941 0.46214 0.42588 0.0
H1310 H 0.60988 0.45696 0.45758 0.0
H1311 H 0.59802 0.32643 0.48046 0.0
H1312 H 0.61705 0.32239 0.5709 0.0
H1313 H 0.61756 0.31735 0.53891 0.0
H1314 H 0.63223 0.44212 0.51235 0.0
C1315 C 0.61153 0.42726 0.45002 0.0
C1316 C 0.60571 0.35153 0.48729 0.0
C1317 C 0.61114 0.43016 0.43178 0.0
C1318 C 0.61554 0.35205 0.56326 0.0
C1319 C 0.61575 0.34912 0.54492 0.0
C1320 C 0.62461 0.41676 0.50559 0.0
C1321 C 0.6139 0.38669 0.45841 0.0
C1322 C 0.61486 0.38453 0.4779 0.0
C1323 C 0.61417 0.38697 0.53451 0.0
C1324 C 0.61497 0.38471 0.51503 0.0
H1325 H 0.61672 0.32213 0.42208 0.0
H1326 H 0.61745 0.31711 0.4541 0.0
H1327 H 0.63212 0.44198 0.48051 0.0
H1328 H 0.61013 0.46252 0.56698 0.0
H1329 H 0.61035 0.45732 0.53528 0.0
C1330 C 0.36285 0.6849 0.56124 0.0
C1331 C 0.36566 0.64426 0.56951 0.0
C1332 C 0.36376 0.68857 0.54295 0.0
C1333 C 0.38183 0.63193 0.50373 0.0
H1334 H 0.34451 0.69654 0.4784 0.0
C1335 C 0.36899 0.60576 0.43025 0.0
C1336 C 0.36486 0.64202 0.41959 0.0
C1337 C 0.37018 0.61008 0.44842 0.0
C1338 C 0.3552 0.67892 0.48527 0.0
H1339 H 0.37172 0.5757 0.56493 0.0
H1340 H 0.37321 0.5821 0.53327 0.0
H1341 H 0.34466 0.69694 0.51041 0.0
H1342 H 0.35879 0.71148 0.41981 0.0
H1343 H 0.36094 0.71904 0.45168 0.0
H1344 H 0.39224 0.61337 0.4787 0.0
C1345 C 0.3705 0.61128 0.54087 0.0
C1346 C 0.35528 0.67914 0.50363 0.0
C1347 C 0.36952 0.60757 0.55907 0.0
C1348 C 0.36201 0.68287 0.42761 0.0
C1349 C 0.36314 0.68716 0.44588 0.0
C1350 C 0.38175 0.63173 0.48544 0.0
C1351 C 0.36762 0.65177 0.53255 0.0
C1352 C 0.36839 0.65493 0.51308 0.0
C1353 C 0.36726 0.65077 0.4565 0.0
C1354 C 0.36823 0.6545 0.47595 0.0
H1355 H 0.35984 0.71385 0.56887 0.0
H1356 H 0.36159 0.72031 0.53697 0.0
H1357 H 0.39237 0.61371 0.51058 0.0
H1358 H 0.37122 0.57373 0.42459 0.0
H1359 H 0.37306 0.58118 0.45617 0.0
C1360 C 0.92643 0.93153 0.12769 0.0
C1361 C 0.91289 0.95766 0.11977 0.0
C1362 C 0.94477 0.94421 0.12739 0.0
C1363 C 0.97721 1.0161 0.10401 0.0
H1364 H 0.00738 0.99828 0.14535 0.0
C1365 C 0.04789 0.09629 0.11294 0.0
C1366 C 0.06209 0.07084 0.12011 0.0
C1367 C 0.03002 0.08031 0.11229 0.0
C1368 C -0.00081 1.00292 0.13364 0.0
H1369 H 0.90802 0.01787 0.10542 0.0
H1370 H 0.94007 0.04046 0.10519 0.0
H1371 H 0.97533 0.97602 0.14568 0.0
H1372 H 0.06867 1.00834 0.13207 0.0
H1373 H 0.03726 0.98043 0.131 0.0
H1374 H 0.00105 0.04373 0.09211 0.0
C1375 C 0.9365 1.00972 0.11137 0.0
C1376 C 0.98082 0.99021 0.13381 0.0
C1377 C 0.91811 0.99691 0.11159 0.0
C1378 C 0.05803 0.02877 0.12648 0.0
C1379 C 0.04006 1.01288 0.12594 0.0
C1380 C -0.00445 0.029 0.10387 0.0
C1381 C 0.95004 0.98346 0.11925 0.0
C1382 C 0.9696 0.99681 0.11902 0.0
C1383 C 0.02588 0.03859 0.11887 0.0
C1384 C 0.0067 0.02274 0.11871 0.0
H1385 H 0.92294 0.90091 0.134 0.0
H1386 H 0.95485 0.92286 0.13334 0.0
H1387 H 0.96905 0.0209 0.09229 0.0
H1388 H 0.0505 0.12879 0.10786 0.0
H1389 H 0.01936 0.10109 0.10696 0.0
C1390 C 0.92778 0.10383 0.36143 0.0
C1391 C 0.91302 0.07425 0.36204 0.0
C1392 C 0.94574 0.08871 0.36088 0.0
C1393 C 0.97409 0.99491 0.37267 0.0
H1394 H 0.00941 0.04795 0.34133 0.0
C1395 C 0.04616 0.9244 0.36418 0.0
C1396 C 0.06095 0.95368 0.36275 0.0
C1397 C 0.02821 0.93957 0.36383 0.0
C1398 C -0.00023 0.03323 0.35032 0.0
H1399 H 0.90558 1.0055 0.36241 0.0
H1400 H 0.93715 0.97901 0.36153 0.0
H1401 H 0.97764 0.07248 0.34072 0.0
H1402 H 0.06843 0.022 0.35981 0.0
H1403 H 0.0369 0.04871 0.3595 0.0
H1404 H -0.00382 0.95609 0.38246 0.0
C1405 C 0.93469 1.01395 0.36154 0.0
C1406 C 0.98158 0.04712 0.34991 0.0
C1407 C 0.91664 0.02911 0.36196 0.0
C1408 C 0.05734 0.99861 0.36092 0.0
C1409 C 0.03929 1.01386 0.36065 0.0
C1410 C -0.00772 0.98118 0.37314 0.0
C1411 C 0.9494 0.04367 0.36103 0.0
C1412 C 0.96856 0.02804 0.36107 0.0
C1413 C 0.02454 0.98444 0.36215 0.0
C1414 C 0.00533 1.00008 0.36194 0.0
H1415 H 0.92551 0.13885 0.36141 0.0
H1416 H 0.95679 0.11236 0.36069 0.0
H1417 H 0.96442 0.98018 0.38163 0.0
H1418 H 0.04838 0.8895 0.36544 0.0
H1419 H 0.01719 0.91594 0.36466 0.0
C1420 C 0.04937 0.10157 0.8623 0.0
C1421 C 0.06399 0.0717 0.86239 0.0
C1422 C 0.03136 0.08687 0.8617 0.0
C1423 C 0.0028 0.99181 0.8502 0.0
H1424 H 0.967 0.05024 0.87934 0.0
C1425 C 0.93068 0.92318 0.86202 0.0
C1426 C 0.91593 0.95267 0.8614 0.0
C1427 C 0.94864 0.93832 0.86149 0.0
C1428 C 0.9768 0.034 0.87098 0.0
H1429 H 0.07113 1.00284 0.86177 0.0
H1430 H 0.03946 0.97699 0.86099 0.0
H1431 H -0.00119 0.07424 0.88005 0.0
H1432 H 0.90849 0.02127 0.85966 0.0
H1433 H 0.94008 0.0478 0.85879 0.0
H1434 H 0.98076 0.95116 0.84133 0.0
C1435 C 0.04205 1.01189 0.86117 0.0
C1436 C -0.00499 0.04766 0.87139 0.0
C1437 C 0.06017 0.02666 0.8617 0.0
C1438 C 0.91956 0.99774 0.86018 0.0
C1439 C 0.93761 1.01293 0.85976 0.0
C1440 C 0.98459 0.97801 0.84986 0.0
C1441 C 0.02747 0.04192 0.86126 0.0
C1442 C 0.00821 0.02675 0.86099 0.0
C1443 C 0.95229 0.98329 0.86039 0.0
C1444 C 0.97144 0.99896 0.86026 0.0
H1445 H 0.05179 0.13655 0.86262 0.0
H1446 H 0.02045 0.11085 0.86142 0.0
H1447 H 0.01259 0.9755 0.84185 0.0
H1448 H 0.92841 0.88822 0.86292 0.0
H1449 H 0.9597 0.91479 0.86222 0.0
C1450 C 0.92983 0.10898 0.62264 0.0
C1451 C 0.91519 0.07911 0.62337 0.0
C1452 C 0.94785 0.09438 0.62304 0.0
C1453 C 0.97662 1.00026 0.63537 0.0
H1454 H 0.01201 0.05698 0.60512 0.0
C1455 C 0.04858 0.93121 0.62329 0.0
C1456 C 0.06337 0.96074 0.62333 0.0
C1457 C 0.03064 0.94633 0.62397 0.0
C1458 C 0.00232 0.04123 0.61379 0.0
H1459 H 0.90805 1.01034 0.62518 0.0
H1460 H 0.93972 0.98463 0.62559 0.0
H1461 H 0.98018 0.08067 0.60452 0.0
H1462 H 0.07087 0.02942 0.62421 0.0
H1463 H 0.03931 0.05596 0.6253 0.0
H1464 H -0.0012 0.96038 0.64441 0.0
C1465 C 0.93715 0.01949 0.62494 0.0
C1466 C 0.98409 0.05472 0.61345 0.0
C1467 C 0.91902 0.03417 0.62462 0.0
C1468 C 0.05979 1.00586 0.62414 0.0
C1469 C 0.04174 0.02104 0.62469 0.0
C1470 C -0.00515 0.98662 0.63564 0.0
C1471 C 0.95175 0.0495 0.62409 0.0
C1472 C 0.97104 0.03443 0.62425 0.0
C1473 C 0.02702 0.99135 0.62461 0.0
C1474 C 0.00786 1.00696 0.62484 0.0
H1475 H 0.92743 0.1439 0.62186 0.0
H1476 H 0.95876 0.11841 0.62273 0.0
H1477 H 0.96697 0.98446 0.64405 0.0
H1478 H 0.05081 0.8962 0.62274 0.0
H1479 H 0.01956 0.92273 0.62367 0.0
C1480 C 0.4174 0.50572 0.12481 0.0
C1481 C 0.41368 0.4606 0.12424 0.0
C1482 C 0.43551 0.52079 0.12518 0.0
C1483 C 0.48253 0.48583 0.13602 0.0
H1484 H 0.49717 0.57943 0.10478 0.0
C1485 C 0.55849 0.53012 0.12438 0.0
C1486 C 0.56278 0.57483 0.1231 0.0
C1487 C 0.54021 0.51637 0.12478 0.0
C1488 C 0.49328 0.55361 0.11374 0.0
H1489 H 0.42609 0.39599 0.12383 0.0
H1490 H 0.4574 0.42228 0.12446 0.0
H1491 H 0.4652 0.55661 0.10564 0.0
H1492 H 0.55118 0.64019 0.12146 0.0
H1493 H 0.51958 0.6163 0.12245 0.0
H1494 H 0.51055 0.48285 0.14418 0.0
C1495 C 0.4464 0.446 0.12473 0.0
C1496 C 0.47496 0.54061 0.11424 0.0
C1497 C 0.4284 0.43099 0.12423 0.0
C1498 C 0.54843 0.60542 0.12231 0.0
C1499 C 0.53024 0.59173 0.12278 0.0
C1500 C 0.50084 0.49895 0.13559 0.0
C1501 C 0.45017 0.491 0.12517 0.0
C1502 C 0.46942 0.50641 0.1253 0.0
C1503 C 0.52589 0.54708 0.12397 0.0
C1504 C 0.50644 0.53288 0.12439 0.0
H1505 H 0.40638 0.52936 0.12484 0.0
H1506 H 0.43804 0.55571 0.12564 0.0
H1507 H 0.47861 0.4597 0.14484 0.0
H1508 H 0.56921 0.50572 0.12498 0.0
H1509 H 0.53731 0.48165 0.12551 0.0
C1510 C 0.42801 0.60433 0.3638 0.0
C1511 C 0.41337 0.57441 0.36423 0.0
C1512 C 0.44603 0.58965 0.36355 0.0
C1513 C 0.47463 0.49677 0.37585 0.0
H1514 H 0.51012 0.55043 0.34486 0.0
C1515 C 0.54708 0.42802 0.36819 0.0
C1516 C 0.56177 0.45761 0.36684 0.0
C1517 C 0.52908 0.44278 0.36771 0.0
C1518 C 0.50043 0.53555 0.35375 0.0
H1519 H 0.4062 0.50549 0.36458 0.0
H1520 H 0.4379 0.47975 0.36421 0.0
H1521 H 0.47824 0.57403 0.34379 0.0
H1522 H 0.56902 0.52609 0.36394 0.0
H1523 H 0.53738 0.5521 0.36337 0.0
H1524 H 0.49677 0.4587 0.386 0.0
C1525 C 0.43529 0.51464 0.36414 0.0
C1526 C 0.48218 0.5489 0.35308 0.0
C1527 C 0.41717 0.52935 0.36427 0.0
C1528 C 0.55801 0.50246 0.36498 0.0
C1529 C 0.5399 0.51731 0.36457 0.0
C1530 C 0.49288 0.48358 0.37659 0.0
C1531 C 0.44987 0.54471 0.3638 0.0
C1532 C 0.4691 0.52959 0.36411 0.0
C1533 C 0.52525 0.48755 0.36596 0.0
C1534 C 0.50598 0.50271 0.36551 0.0
H1535 H 0.4256 0.6393 0.3637 0.0
H1536 H 0.45699 0.61357 0.36349 0.0
H1537 H 0.4649 0.48188 0.38471 0.0
H1538 H 0.54942 0.39317 0.36948 0.0
H1539 H 0.51815 0.4189 0.36846 0.0
C1540 C 0.42917 0.43022 0.8649 0.0
C1541 C 0.41431 0.45938 0.86455 0.0
C1542 C 0.44707 0.44579 0.86497 0.0
C1543 C 0.47512 0.54256 0.85472 0.0
H1544 H 0.51088 0.48378 0.88418 0.0
C1545 C 0.54727 0.61124 0.86746 0.0
C1546 C 0.56199 0.58172 0.86649 0.0
C1547 C 0.52929 0.5962 0.86698 0.0
C1548 C 0.50108 0.50018 0.87576 0.0
H1549 H 0.40661 0.52788 0.86387 0.0
H1550 H 0.43807 0.55527 0.86429 0.0
H1551 H 0.47916 0.45906 0.88419 0.0
H1552 H 0.56932 0.51317 0.86432 0.0
H1553 H 0.5377 0.4868 0.86359 0.0
H1554 H 0.49709 0.58405 0.84649 0.0
C1555 C 0.43577 0.52025 0.86428 0.0
C1556 C 0.48292 0.48608 0.87575 0.0
C1557 C 0.41777 0.5046 0.86412 0.0
C1558 C 0.5583 0.53672 0.8651 0.0
C1559 C 0.54023 0.52162 0.86476 0.0
C1560 C 0.49327 0.55683 0.85481 0.0
C1561 C 0.4506 0.49093 0.8648 0.0
C1562 C 0.46975 0.50698 0.86517 0.0
C1563 C 0.52557 0.5513 0.86563 0.0
C1564 C 0.50642 0.53569 0.8653 0.0
H1565 H 0.42704 0.39513 0.86503 0.0
H1566 H 0.45817 0.42232 0.86498 0.0
H1567 H 0.46537 0.55891 0.84623 0.0
H1568 H 0.54959 0.64616 0.86851 0.0
H1569 H 0.51826 0.61973 0.8679 0.0
C1570 C 0.41852 0.53337 0.62562 0.0
C1571 C 0.41483 0.57844 0.62487 0.0
C1572 C 0.4366 0.51838 0.62598 0.0
C1573 C 0.48381 0.55373 0.61555 0.0
H1574 H 0.49776 0.45658 0.64541 0.0
C1575 C 0.55917 0.50293 0.62715 0.0
C1576 C 0.56269 0.45786 0.62586 0.0
C1577 C 0.54115 0.5183 0.62739 0.0
C1578 C 0.49402 0.48361 0.63694 0.0
H1579 H 0.42725 0.64311 0.6243 0.0
H1580 H 0.45851 0.61707 0.62526 0.0
H1581 H 0.46602 0.48125 0.64494 0.0
H1582 H 0.55003 0.39358 0.62396 0.0
H1583 H 0.51881 0.42045 0.62438 0.0
H1584 H 0.51187 0.55623 0.60766 0.0
C1585 C 0.44754 0.5932 0.62514 0.0
C1586 C 0.47584 0.4976 0.63661 0.0
C1587 C 0.42955 0.60812 0.62468 0.0
C1588 C 0.54786 0.42855 0.62493 0.0
C1589 C 0.52993 0.44385 0.6253 0.0
C1590 C 0.502 0.53991 0.61596 0.0
C1591 C 0.4513 0.5482 0.62567 0.0
C1592 C 0.47053 0.53279 0.62589 0.0
C1593 C 0.52638 0.48882 0.62652 0.0
C1594 C 0.50726 0.50463 0.62661 0.0
H1595 H 0.40748 0.50969 0.62575 0.0
H1596 H 0.43907 0.48344 0.62623 0.0
H1597 H 0.48012 0.58049 0.60692 0.0
H1598 H 0.5703 0.52633 0.6279 0.0
H1599 H 0.53876 0.55317 0.62844 0.0
C1600 C 0.10571 0.79148 0.11131 0.0
C1601 C 0.12331 0.81012 0.1124 0.0
C1602 C 0.10335 0.74595 0.11175 0.0
C1603 C 0.12819 0.64091 0.10557 0.0
H1604 H 0.08828 0.59249 0.13268 0.0
C1605 C 0.12207 0.45523 0.1211 0.0
C1606 C 0.10445 0.43655 0.12099 0.0
C1607 C 0.1244 0.5006 0.1194 0.0
C1608 C 0.09937 0.6054 0.12485 0.0
H1609 H 0.15219 0.79493 0.11507 0.0
H1610 H 0.14807 0.71591 0.11574 0.0
H1611 H 0.0921 0.67157 0.13083 0.0
H1612 H 0.07554 0.45119 0.11825 0.0
H1613 H 0.0796 0.52991 0.1153 0.0
H1614 H 0.13548 0.57467 0.09965 0.0
C1615 C 0.13609 0.73643 0.11425 0.0
C1616 C 0.10156 0.65086 0.12379 0.0
C1617 C 0.13846 0.7819 0.11384 0.0
C1618 C 0.08929 0.4644 0.11877 0.0
C1619 C 0.09162 0.50967 0.11708 0.0
C1620 C 0.12599 0.59541 0.10662 0.0
C1621 C 0.11851 0.7178 0.11329 0.0
C1622 C 0.11601 0.66928 0.11415 0.0
C1623 C 0.10919 0.52849 0.11753 0.0
C1624 C 0.11155 0.57701 0.11629 0.0
H1625 H 0.09374 0.81205 0.10995 0.0
H1626 H 0.08962 0.7328 0.11072 0.0
H1627 H 0.13932 0.65388 0.09781 0.0
H1628 H 0.13405 0.43493 0.12297 0.0
H1629 H 0.13813 0.51392 0.12 0.0
C1630 C 0.86527 0.24599 0.12264 0.0
C1631 C 0.8517 0.22794 0.11168 0.0
C1632 C 0.86745 0.29143 0.12397 0.0
C1633 C 0.85678 0.39545 0.10088 0.0
H1634 H 0.86658 0.44773 0.14619 0.0
C1635 C 0.85501 0.58328 0.11249 0.0
C1636 C 0.86826 0.60111 0.12386 0.0
C1637 C 0.85324 0.53783 0.11059 0.0
C1638 C 0.86407 0.43367 0.13339 0.0
H1639 H 0.82951 0.24401 0.09381 0.0
H1640 H 0.83336 0.32295 0.09608 0.0
H1641 H 0.86309 0.36865 0.14382 0.0
H1642 H 0.89053 0.58484 0.14159 0.0
H1643 H 0.88744 0.50597 0.13831 0.0
H1644 H 0.85773 0.46055 0.09046 0.0
C1645 C 0.84254 0.30198 0.10343 0.0
C1646 C 0.86207 0.38824 0.13204 0.0
C1647 C 0.84034 0.2566 0.10213 0.0
C1648 C 0.87991 0.57233 0.133 0.0
C1649 C 0.87814 0.52701 0.13112 0.0
C1650 C 0.85879 0.44092 0.10223 0.0
C1651 C 0.85613 0.32004 0.11435 0.0
C1652 C 0.8584 0.36849 0.11576 0.0
C1653 C 0.86467 0.50909 0.12002 0.0
C1654 C 0.86248 0.46065 0.11851 0.0
H1655 H 0.87442 0.225 0.13001 0.0
H1656 H 0.87822 0.30414 0.13233 0.0
H1657 H 0.85423 0.38135 0.08809 0.0
H1658 H 0.84568 0.60439 0.10539 0.0
H1659 H 0.8426 0.52521 0.10206 0.0
C1660 C 0.10508 0.23483 0.37549 0.0
C1661 C 0.12262 0.21626 0.37404 0.0
C1662 C 0.10275 0.28034 0.37521 0.0
C1663 C 0.12785 0.38534 0.38116 0.0
H1664 H 0.08728 0.43385 0.35468 0.0
C1665 C 0.12155 0.5709 0.36554 0.0
C1666 C 0.10396 0.58956 0.36594 0.0
C1667 C 0.12388 0.52556 0.36731 0.0
C1668 C 0.09856 0.42091 0.36233 0.0
H1669 H 0.15144 0.23152 0.37093 0.0
H1670 H 0.14738 0.31054 0.37053 0.0
H1671 H 0.09106 0.35479 0.35641 0.0
H1672 H 0.07512 0.57501 0.36928 0.0
H1673 H 0.07918 0.49633 0.37235 0.0
H1674 H 0.13539 0.45156 0.38701 0.0
C1675 C 0.13543 0.28996 0.37217 0.0
C1676 C 0.10073 0.37546 0.36333 0.0
C1677 C 0.13776 0.24451 0.37243 0.0
C1678 C 0.08884 0.56178 0.36854 0.0
C1679 C 0.09116 0.51655 0.37029 0.0
C1680 C 0.12569 0.43083 0.38017 0.0
C1681 C 0.11789 0.30853 0.37348 0.0
C1682 C 0.11541 0.35702 0.37273 0.0
C1683 C 0.10869 0.49773 0.36952 0.0
C1684 C 0.11101 0.44925 0.37073 0.0
H1685 H 0.09313 0.2142 0.37699 0.0
H1686 H 0.08907 0.29345 0.37651 0.0
H1687 H 0.13918 0.37233 0.38873 0.0
H1688 H 0.13349 0.59118 0.36338 0.0
H1689 H 0.13757 0.51223 0.36647 0.0
C1690 C 0.86258 0.45565 0.37981 0.0
C1691 C 0.86697 0.4376 0.36343 0.0
C1692 C 0.86034 0.50095 0.38176 0.0
C1693 C 0.8518 0.60281 0.35626 0.0
H1694 H 0.87249 0.6607 0.39696 0.0
C1695 C 0.85868 0.79072 0.35987 0.0
C1696 C 0.85409 0.81121 0.37574 0.0
C1697 C 0.86015 0.74514 0.35885 0.0
C1698 C 0.86646 0.645 0.38561 0.0
H1699 H 0.87185 0.45318 0.33612 0.0
H1700 H 0.86828 0.5318 0.33955 0.0
H1701 H 0.87459 0.58123 0.39434 0.0
H1702 H 0.84797 0.79962 0.40311 0.0
H1703 H 0.85041 0.72002 0.4013 0.0
H1704 H 0.84379 0.66651 0.34745 0.0
C1705 C 0.86645 0.51108 0.35092 0.0
C1706 C 0.86763 0.59938 0.38411 0.0
C1707 C 0.86871 0.46592 0.34899 0.0
C1708 C 0.85137 0.78492 0.39065 0.0
C1709 C 0.85292 0.73929 0.38964 0.0
C1710 C 0.85066 0.64835 0.35773 0.0
C1711 C 0.86233 0.5293 0.36734 0.0
C1712 C 0.86043 0.57769 0.36935 0.0
C1713 C 0.85713 0.71878 0.37368 0.0
C1714 C 0.85809 0.67011 0.37236 0.0
H1715 H 0.86126 0.43487 0.39124 0.0
H1716 H 0.85697 0.51375 0.39456 0.0
H1717 H 0.84578 0.58724 0.34487 0.0
H1718 H 0.86067 0.80982 0.34808 0.0
H1719 H 0.86366 0.73053 0.3464 0.0
C1720 C 0.85308 0.24195 0.88736 0.0
C1721 C 0.85631 0.21584 0.87252 0.0
C1722 C 0.85465 0.2876 0.88643 0.0
C1723 C 0.85343 0.37887 0.85457 0.0
H1724 H 0.87623 0.44569 0.89191 0.0
C1725 C 0.87188 0.56144 0.84652 0.0
C1726 C 0.86972 0.58959 0.86092 0.0
C1727 C 0.86951 0.51626 0.84834 0.0
C1728 C 0.86959 0.42762 0.88147 0.0
H1729 H 0.8638 0.21756 0.84508 0.0
H1730 H 0.8668 0.2969 0.84355 0.0
H1731 H 0.874 0.36619 0.8944 0.0
H1732 H 0.86313 0.592 0.88855 0.0
H1733 H 0.85866 0.51309 0.89167 0.0
H1734 H 0.84898 0.4401 0.84163 0.0
C1735 C 0.86289 0.28213 0.85588 0.0
C1736 C 0.86834 0.38198 0.88288 0.0
C1737 C 0.86141 0.23653 0.85682 0.0
C1738 C 0.86479 0.57135 0.87716 0.0
C1739 C 0.86244 0.52603 0.87899 0.0
C1740 C 0.85463 0.42443 0.85317 0.0
C1741 C 0.85938 0.30831 0.87062 0.0
C1742 C 0.86039 0.35699 0.86938 0.0
C1743 C 0.86487 0.49785 0.86461 0.0
C1744 C 0.86286 0.44943 0.86652 0.0
H1745 H 0.84928 0.22709 0.8997 0.0
H1746 H 0.85174 0.30673 0.89802 0.0
H1747 H 0.84688 0.36078 0.84408 0.0
H1748 H 0.87544 0.57433 0.83376 0.0
H1749 H 0.87169 0.49566 0.83701 0.0
C1750 C 0.12461 0.45349 0.86823 0.0
C1751 C 0.10715 0.43459 0.86633 0.0
C1752 C 0.1266 0.49881 0.87039 0.0
C1753 C 0.10197 0.60314 0.86254 0.0
H1754 H 0.13851 0.65165 0.89398 0.0
C1755 C 0.10635 0.7889 0.87688 0.0
C1756 C 0.12393 0.80769 0.87753 0.0
C1757 C 0.10413 0.74338 0.87628 0.0
C1758 C 0.12835 0.63866 0.88502 0.0
H1759 H 0.07805 0.44859 0.86598 0.0
H1760 H 0.0815 0.52725 0.86975 0.0
H1761 H 0.13512 0.57241 0.89158 0.0
H1762 H 0.15297 0.79286 0.87787 0.0
H1763 H 0.14908 0.7138 0.87692 0.0
H1764 H 0.09524 0.6693 0.85591 0.0
C1765 C 0.09371 0.50726 0.86919 0.0
C1766 C 0.12642 0.59318 0.88363 0.0
C1767 C 0.09173 0.46206 0.86703 0.0
C1768 C 0.13921 0.77967 0.87772 0.0
C1769 C 0.13699 0.73421 0.87715 0.0
C1770 C 0.1039 0.64858 0.86393 0.0
C1771 C 0.11117 0.52634 0.87072 0.0
C1772 C 0.11321 0.5748 0.87235 0.0
C1773 C 0.11943 0.71543 0.87632 0.0
C1774 C 0.11713 0.66697 0.87516 0.0
H1775 H 0.13679 0.43342 0.86758 0.0
H1776 H 0.14026 0.51238 0.87135 0.0
H1777 H 0.09188 0.59023 0.85348 0.0
H1778 H 0.09427 0.80936 0.87696 0.0
H1779 H 0.09039 0.73006 0.87591 0.0
C1780 C 0.86117 0.79473 0.62786 0.0
C1781 C 0.85516 0.81541 0.61241 0.0
C1782 C 0.86269 0.74915 0.62873 0.0
C1783 C 0.86646 0.6493 0.60151 0.0
H1784 H 0.84951 0.59117 0.64359 0.0
C1785 C 0.86309 0.45992 0.60745 0.0
C1786 C 0.86897 0.44175 0.62345 0.0
C1787 C 0.86067 0.50523 0.60571 0.0
C1788 C 0.85449 0.60685 0.63181 0.0
H1789 H 0.84651 0.80415 0.58558 0.0
H1790 H 0.84905 0.72452 0.58714 0.0
H1791 H 0.84733 0.67048 0.64122 0.0
H1792 H 0.87633 0.45709 0.6503 0.0
H1793 H 0.87246 0.53574 0.64719 0.0
H1794 H 0.87376 0.5856 0.59216 0.0
C1795 C 0.85265 0.74366 0.59858 0.0
C1796 C 0.85324 0.6524 0.63046 0.0
C1797 C 0.85104 0.7893 0.59773 0.0
C1798 C 0.87203 0.46994 0.63772 0.0
C1799 C 0.86959 0.5151 0.63599 0.0
C1800 C 0.86775 0.60367 0.60288 0.0
C1801 C 0.8583 0.72296 0.61415 0.0
C1802 C 0.85933 0.67429 0.61535 0.0
C1803 C 0.86398 0.53345 0.61994 0.0
C1804 C 0.8619 0.58185 0.61811 0.0
H1805 H 0.86426 0.81371 0.63948 0.0
H1806 H 0.86732 0.73439 0.64086 0.0
H1807 H 0.87145 0.6651 0.58976 0.0
H1808 H 0.86073 0.43923 0.59616 0.0
H1809 H 0.85614 0.51813 0.5932 0.0
C1810 C 0.1251 0.24944 0.59652 0.0
C1811 C 0.12299 0.22346 0.6116 0.0
C1812 C 0.12352 0.29508 0.59743 0.0
C1813 C 0.12679 0.38687 0.62888 0.0
H1814 H 0.1011 0.45257 0.59295 0.0
C1815 C 0.10849 0.56926 0.63754 0.0
C1816 C 0.10947 0.59718 0.62291 0.0
C1817 C 0.11086 0.5241 0.63573 0.0
C1818 C 0.10856 0.43483 0.60298 0.0
H1819 H 0.11752 0.22539 0.63948 0.0
H1820 H 0.11452 0.30471 0.64101 0.0
H1821 H 0.10339 0.3731 0.59056 0.0
H1822 H 0.11393 0.59917 0.59487 0.0
H1823 H 0.1184 0.52032 0.59175 0.0
H1824 H 0.13199 0.44841 0.6413 0.0
C1825 C 0.11754 0.28985 0.62848 0.0
C1826 C 0.10984 0.3892 0.60162 0.0
C1827 C 0.11903 0.24426 0.62756 0.0
C1828 C 0.11321 0.57872 0.60644 0.0
C1829 C 0.11556 0.53342 0.60462 0.0
C1830 C 0.12556 0.43243 0.63021 0.0
C1831 C 0.11991 0.31591 0.61346 0.0
C1832 C 0.11884 0.36459 0.61463 0.0
C1833 C 0.11431 0.50546 0.61924 0.0
C1834 C 0.1163 0.45704 0.61736 0.0
H1835 H 0.12802 0.23449 0.58399 0.0
H1836 H 0.12553 0.31412 0.58562 0.0
H1837 H 0.13415 0.3691 0.63896 0.0
H1838 H 0.10587 0.58233 0.65046 0.0
H1839 H 0.10961 0.50368 0.64726 0.0
C1840 C 0.60749 0.95742 0.11422 0.0
C1841 C 0.61254 0.93525 0.12965 0.0
C1842 C 0.60933 1.00295 0.11295 0.0
C1843 C 0.63296 0.09852 0.13295 0.0
H1844 H 0.59403 0.16449 0.11062 0.0
C1845 C 0.63088 0.28835 0.13428 0.0
C1846 C 0.62573 0.3096 0.11867 0.0
C1847 C 0.62906 0.24286 0.13598 0.0
C1848 C 0.60513 0.14659 0.11674 0.0
H1849 H 0.62401 0.94378 0.15568 0.0
H1850 H 0.62697 0.02309 0.15355 0.0
H1851 H 0.59176 0.08507 0.11254 0.0
H1852 H 0.61408 0.29953 0.09281 0.0
H1853 H 0.61117 0.22048 0.09565 0.0
H1854 H 0.64634 0.1601 0.13713 0.0
C1855 C 0.62167 1.00527 0.14237 0.0
C1856 C 0.60384 0.10095 0.11782 0.0
C1857 C 0.61979 0.95977 0.14366 0.0
C1858 C 0.61841 0.28427 0.10494 0.0
C1859 C 0.61654 0.23889 0.10665 0.0
C1860 C 0.63426 0.1442 0.13187 0.0
C1861 C 0.61631 0.02756 0.12706 0.0
C1862 C 0.61775 0.07625 0.1259 0.0
C1863 C 0.62195 0.21748 0.12214 0.0
C1864 C 0.62038 0.16887 0.1237 0.0
H1865 H 0.60172 0.93971 0.10322 0.0
H1866 H 0.60528 0.01889 0.10086 0.0
H1867 H 0.64406 0.08059 0.13906 0.0
H1868 H 0.63669 0.30675 0.14508 0.0
H1869 H 0.63317 0.22759 0.14818 0.0
C1870 C 0.3709 0.74232 0.11139 0.0
C1871 C 0.35332 0.72355 0.11039 0.0
C1872 C 0.37312 0.78784 0.11205 0.0
C1873 C 0.34922 0.89269 0.10281 0.0
H1874 H 0.38501 0.94092 0.13509 0.0
C1875 C 0.35305 0.07813 0.11922 0.0
C1876 C 0.37051 0.09677 0.12151 0.0
C1877 C 0.35098 0.03279 0.11716 0.0
C1878 C 0.37511 0.92807 0.12583 0.0
H1879 H 0.3243 0.73849 0.10947 0.0
H1880 H 0.32821 0.81755 0.11049 0.0
H1881 H 0.38157 0.86187 0.13265 0.0
H1882 H 0.39954 0.08223 0.12268 0.0
H1883 H 0.39595 1.00357 0.11908 0.0
H1884 H 0.34273 0.95897 0.09602 0.0
C1885 C 0.3403 0.7971 0.11051 0.0
C1886 C 0.37314 0.88264 0.12443 0.0
C1887 C 0.33807 0.75163 0.10989 0.0
C1888 C 0.38585 0.06899 0.12132 0.0
C1889 C 0.38379 0.02378 0.11926 0.0
C1890 C 0.3512 0.93817 0.10419 0.0
C1891 C 0.35785 0.81584 0.1117 0.0
C1892 C 0.36015 0.86431 0.11292 0.0
C1893 C 0.36632 1.00496 0.11732 0.0
C1894 C 0.36418 0.95649 0.11573 0.0
H1895 H 0.38298 0.72185 0.11154 0.0
H1896 H 0.38686 0.80113 0.1127 0.0
H1897 H 0.33925 0.87975 0.09363 0.0
H1898 H 0.34092 0.09843 0.11947 0.0
H1899 H 0.3373 0.01946 0.11588 0.0
C1900 C 0.61335 0.0758 0.38255 0.0
C1901 C 0.60815 0.09426 0.36639 0.0
C1902 C 0.61589 0.0305 0.38421 0.0
C1903 C 0.62367 0.92962 0.35803 0.0
H1904 H 0.60494 0.87008 0.39908 0.0
C1905 C 0.6172 0.7415 0.36102 0.0
C1906 C 0.62248 0.72052 0.37665 0.0
C1907 C 0.6157 0.78711 0.36024 0.0
C1908 C 0.61042 0.88624 0.38761 0.0
H1909 H 0.60215 0.07947 0.33919 0.0
H1910 H 0.60623 1.00083 0.34214 0.0
H1911 H 0.60249 0.94958 0.39687 0.0
H1912 H 0.62986 0.73126 0.40385 0.0
H1913 H 0.62735 0.81091 0.40244 0.0
H1914 H 0.63146 0.86633 0.3487 0.0
C1915 C 0.60847 0.02123 0.35354 0.0
C1916 C 0.60905 0.93188 0.38636 0.0
C1917 C 0.60592 0.06638 0.35189 0.0
C1918 C 0.62591 0.74634 0.39156 0.0
C1919 C 0.62432 0.792 0.3908 0.0
C1920 C 0.62499 0.88405 0.35926 0.0
C1921 C 0.61338 1.00258 0.36974 0.0
C1922 C 0.61554 0.95416 0.37148 0.0
C1923 C 0.61937 0.81301 0.37507 0.0
C1924 C 0.61827 0.8617 0.37401 0.0
H1925 H 0.61508 0.09624 0.39402 0.0
H1926 H 0.61987 0.01738 0.39685 0.0
H1927 H 0.62914 0.94566 0.34653 0.0
H1928 H 0.61466 0.72275 0.34923 0.0
H1929 H 0.61163 0.8021 0.34797 0.0
C1930 C 0.36851 0.96521 0.34971 0.0
C1931 C 0.36687 0.93696 0.36417 0.0
C1932 C 0.36629 1.01038 0.35163 0.0
C1933 C 0.36778 0.09873 0.38479 0.0
H1934 H 0.34374 0.16593 0.34826 0.0
C1935 C 0.35159 0.28425 0.39141 0.0
C1936 C 0.35428 0.31053 0.3765 0.0
C1937 C 0.35312 0.23862 0.3904 0.0
C1938 C 0.35067 0.14774 0.3585 0.0
H1939 H 0.36137 0.93434 0.39203 0.0
H1940 H 0.35713 1.01322 0.39533 0.0
H1941 H 0.34565 0.08664 0.34568 0.0
H1942 H 0.36077 0.30918 0.34883 0.0
H1943 H 0.36371 0.22988 0.34712 0.0
H1944 H 0.37275 0.16003 0.39761 0.0
C1945 C 0.3604 1.00038 0.38251 0.0
C1946 C 0.35176 0.1022 0.35703 0.0
C1947 C 0.36261 0.95507 0.38058 0.0
C1948 C 0.35881 0.29006 0.36062 0.0
C1949 C 0.36026 0.24449 0.35958 0.0
C1950 C 0.36664 0.14435 0.38628 0.0
C1951 C 0.36231 0.02866 0.36807 0.0
C1952 C 0.36046 0.07706 0.37007 0.0
C1953 C 0.35728 0.21813 0.37441 0.0
C1954 C 0.3582 0.16947 0.37309 0.0
H1955 H 0.37155 0.95241 0.33683 0.0
H1956 H 0.36805 0.03106 0.34024 0.0
H1957 H 0.3748 0.08056 0.39498 0.0
H1958 H 0.34823 0.29894 0.40389 0.0
H1959 H 0.35064 0.21934 0.40205 0.0
C1960 C 0.35087 0.74643 0.88849 0.0
C1961 C 0.35456 0.72023 0.87379 0.0
C1962 C 0.35298 0.79199 0.88773 0.0
C1963 C 0.3751 0.88049 0.86175 0.0
H1964 H 0.33934 0.95487 0.88432 0.0
C1965 C 0.37243 0.06632 0.84876 0.0
C1966 C 0.36959 0.09428 0.86312 0.0
C1967 C 0.37036 0.02101 0.85046 0.0
C1968 C 0.34956 0.9346 0.8781 0.0
H1969 H 0.36322 0.72179 0.84668 0.0
H1970 H 0.36682 0.80092 0.84531 0.0
H1971 H 0.33658 0.87547 0.88666 0.0
H1972 H 0.36202 0.09613 0.89052 0.0
H1973 H 0.35834 0.01695 0.89349 0.0
H1974 H 0.388 0.93954 0.85309 0.0
C1975 C 0.36263 0.78629 0.85757 0.0
C1976 C 0.348 0.88899 0.87946 0.0
C1977 C 0.36057 0.74078 0.85835 0.0
C1978 C 0.36416 0.07569 0.87914 0.0
C1979 C 0.36206 0.03024 0.88085 0.0
C1980 C 0.37663 0.92602 0.86036 0.0
C1981 C 0.3588 0.8126 0.87223 0.0
C1982 C 0.3607 0.86128 0.87122 0.0
C1983 C 0.36535 1.00226 0.86657 0.0
C1984 C 0.36383 0.95372 0.86842 0.0
H1985 H 0.34643 0.73169 0.90066 0.0
H1986 H 0.35019 0.81102 0.89937 0.0
H1987 H 0.38535 0.86035 0.85551 0.0
H1988 H 0.37623 0.07947 0.83611 0.0
H1989 H 0.3726 1.00064 0.83908 0.0
C1990 C 0.62285 0.29216 0.89013 0.0
C1991 C 0.62113 0.31842 0.87506 0.0
C1992 C 0.62115 0.24656 0.88906 0.0
C1993 C 0.62468 0.15512 0.85747 0.0
H1994 H 0.59854 0.0892 0.89283 0.0
C1995 C 0.60674 0.97223 0.84856 0.0
C1996 C 0.6076 0.94447 0.86326 0.0
C1997 C 0.60897 0.01748 0.85035 0.0
C1998 C 0.60611 0.107 0.88296 0.0
H1999 H 0.61621 0.31699 0.84704 0.0
H2000 H 0.61298 0.23772 0.84522 0.0
H2001 H 0.60083 0.16864 0.89531 0.0
H2002 H 0.61169 0.9429 0.89139 0.0
H2003 H 0.61592 0.02184 0.89448 0.0
H2004 H 0.62999 0.09362 0.84512 0.0
C2005 C 0.61581 0.25234 0.85786 0.0
C2006 C 0.60739 0.15262 0.88437 0.0
C2007 C 0.61743 0.29791 0.85894 0.0
C2008 C 0.61107 0.96319 0.87977 0.0
C2009 C 0.61328 1.00856 0.88157 0.0
C2010 C 0.62343 0.10955 0.85608 0.0
C2011 C 0.61779 0.226 0.87288 0.0
C2012 C 0.6166 0.17732 0.87158 0.0
C2013 C 0.61216 0.03636 0.86688 0.0
C2014 C 0.61403 0.08484 0.86874 0.0
H2015 H 0.62555 0.30686 0.90278 0.0
H2016 H 0.62288 0.22733 0.90087 0.0
H2017 H 0.63218 0.17294 0.84755 0.0
H2018 H 0.60433 0.95898 0.83561 0.0
H2019 H 0.60783 0.03776 0.83876 0.0
C2020 C 0.35399 0.96045 0.62113 0.0
C2021 C 0.37156 0.94168 0.62157 0.0
C2022 C 0.3518 1.00577 0.61917 0.0
C2023 C 0.377 0.11031 0.62504 0.0
H2024 H 0.33776 0.15875 0.59674 0.0
C2025 C 0.37134 0.29621 0.61116 0.0
C2026 C 0.35377 0.31488 0.61184 0.0
C2027 C 0.3736 0.25069 0.61163 0.0
C2028 C 0.3487 0.14579 0.60483 0.0
H2029 H 0.40055 0.95597 0.61952 0.0
H2030 H 0.39675 0.03463 0.6161 0.0
H2031 H 0.34137 0.07953 0.59882 0.0
H2032 H 0.32481 0.29983 0.61377 0.0
H2033 H 0.32876 0.2208 0.61449 0.0
H2034 H 0.38429 0.17647 0.63112 0.0
C2035 C 0.38466 1.01452 0.61766 0.0
C2036 C 0.35076 0.1003 0.60603 0.0
C2037 C 0.38683 0.96931 0.61961 0.0
C2038 C 0.33853 0.28674 0.61287 0.0
C2039 C 0.3408 0.24129 0.61331 0.0
C2040 C 0.37494 0.15575 0.62383 0.0
C2041 C 0.36713 0.03346 0.61759 0.0
C2042 C 0.36493 0.08193 0.61616 0.0
C2043 C 0.35836 0.22261 0.61278 0.0
C2044 C 0.36075 0.17413 0.61374 0.0
H2045 H 0.34193 0.94027 0.62279 0.0
H2046 H 0.33811 0.01922 0.61936 0.0
H2047 H 0.38788 0.09741 0.63321 0.0
H2048 H 0.38337 0.31675 0.61013 0.0
H2049 H 0.38732 0.23747 0.61093 0.0
C2050 C 0.61697 0.74076 0.63173 0.0
C2051 C 0.62309 0.72003 0.61641 0.0
C2052 C 0.61534 0.78635 0.63248 0.0
C2053 C 0.61143 0.88594 0.60497 0.0
H2054 H 0.62785 0.94476 0.64718 0.0
C2055 C 0.61424 0.07552 0.61051 0.0
C2056 C 0.60823 0.09379 0.62638 0.0
C2057 C 0.61676 0.03021 0.60891 0.0
C2058 C 0.62302 0.92889 0.63536 0.0
H2059 H 0.63181 0.73122 0.58967 0.0
H2060 H 0.62909 0.81082 0.59102 0.0
H2061 H 0.6303 0.86547 0.64504 0.0
H2062 H 0.60074 0.07857 0.65315 0.0
H2063 H 0.60479 0.99994 0.65028 0.0
H2064 H 0.60402 0.94943 0.59534 0.0
C2065 C 0.62549 0.79173 0.60246 0.0
C2066 C 0.62442 0.88334 0.63414 0.0
C2067 C 0.62721 0.74609 0.60174 0.0
C2068 C 0.60514 0.06567 0.64066 0.0
C2069 C 0.60768 0.02051 0.63907 0.0
C2070 C 0.60999 0.93157 0.6062 0.0
C2071 C 0.61972 0.81249 0.61791 0.0
C2072 C 0.61852 0.86119 0.61898 0.0
C2073 C 0.61342 1.00206 0.62316 0.0
C2074 C 0.61565 0.95365 0.62147 0.0
H2075 H 0.61386 0.72184 0.64334 0.0
H2076 H 0.61062 0.80113 0.64452 0.0
H2077 H 0.60659 0.86995 0.59317 0.0
H2078 H 0.61664 0.09614 0.59921 0.0
H2079 H 0.62139 0.01725 0.5965 0.0
loop_
_geom_bond_atom_site_label_1
_geom_bond_atom_site_label_2
_geom_bond_distance
_geom_bond_site_symmetry_2
_ccdc_geom_bond_type
Dy0 O3 2.307 . S
Dy0 O5 2.395 . S
Dy0 O6 2.379 . S
Dy0 O8 2.339 . S
Dy0 O10 2.298 . S
Dy0 O14 2.275 . S
Dy0 C22 2.738 . S
Dy1 O4 2.298 . S
Dy1 O7 2.275 . S
Dy1 O9 2.307 . S
Dy1 O11 2.395 1_545 S
Dy1 O12 2.379 1_545 S
Dy1 O15 2.339 . S
Dy1 C31 2.738 1_545 S
C2 O14 1.254 . S
C2 O15 1.257 . S
O3 Dy0 2.307 . S
O3 C13 1.266 . S
O4 Dy1 2.298 . S
O4 C13 1.236 . S
O5 Dy0 2.395 . S
O5 C22 1.255 . S
O6 Dy0 2.379 . S
O6 C22 1.249 . S
O7 Dy1 2.275 . S
O7 C23 1.254 . S
O8 Dy0 2.339 . S
O8 C23 1.257 . S
O9 Dy1 2.307 . S
O9 C24 1.266 . S
O10 Dy0 2.298 . S
O10 C24 1.236 . S
O11 Dy1 2.395 1_565 S
O11 C31 1.255 . S
O12 Dy1 2.379 1_565 S
O12 C31 1.249 . S
C13 O3 1.266 . S
C13 O4 1.236 . S
O14 Dy0 2.275 . S
O14 C2 1.254 . S
O15 Dy1 2.339 . S
O15 C2 1.257 . S
C16 C19 1.344 . S
C16 C20 1.328 . S
C16 C22 1.516 . S
C17 C18 1.304 . S
C17 C21 1.323 . S
C18 C17 1.304 . S
C18 C19 1.371 . S
C18 H32 0.930 . S
C19 C16 1.344 . S
C19 C18 1.371 . S
C19 H33 0.931 . S
C20 C16 1.328 . S
C20 C21 1.433 . S
C20 H34 0.931 . S
C21 C17 1.323 . S
C21 C20 1.433 . S
C21 H35 0.933 . S
C22 Dy0 2.738 . S
C22 O5 1.255 . S
C22 O6 1.249 . S
C22 C16 1.516 . S
C23 O7 1.254 . S
C23 O8 1.257 . S
C24 O9 1.266 . S
C24 O10 1.236 . S
C25 C28 1.344 . S
C25 C29 1.328 . S
C25 C31 1.516 . S
C26 C27 1.304 . S
C26 C30 1.323 . S
C27 C26 1.304 . S
C27 C28 1.371 . S
C27 H36 0.930 . S
C28 C25 1.344 . S
C28 C27 1.371 . S
C28 H37 0.931 . S
C29 C25 1.328 . S
C29 C30 1.433 . S
C29 H38 0.931 . S
C30 C26 1.323 . S
C30 C29 1.433 . S
C30 H39 0.933 . S
C31 Dy1 2.738 1_565 S
C31 O11 1.255 . S
C31 O12 1.249 . S
C31 C25 1.516 . S
H32 C18 0.930 . S
H33 C19 0.931 . S
H34 C20 0.931 . S
H35 C21 0.933 . S
H36 C27 0.930 . S
H37 C28 0.931 . S
H38 C29 0.931 . S
H39 C30 0.933 . S
Dy40 O43 2.307 . S
Dy40 O45 2.395 . S
Dy40 O46 2.379 . S
Dy40 O48 2.339 . S
Dy40 O50 2.298 . S
Dy40 O54 2.275 . S
Dy40 C62 2.738 . S
Dy41 O44 2.298 . S
Dy41 O47 2.275 . S
Dy41 O49 2.307 . S
Dy41 O51 2.395 1_565 S
Dy41 O52 2.379 1_565 S
Dy41 O55 2.339 . S
Dy41 C71 2.738 1_565 S
C42 O54 1.254 . S
C42 O55 1.257 . S
O43 Dy40 2.307 . S
O43 C53 1.266 . S
O44 Dy41 2.298 . S
O44 C53 1.236 . S
O45 Dy40 2.395 . S
O45 C62 1.255 . S
O46 Dy40 2.379 . S
O46 C62 1.249 . S
O47 Dy41 2.275 . S
O47 C63 1.254 . S
O48 Dy40 2.339 . S
O48 C63 1.257 . S
O49 Dy41 2.307 . S
O49 C64 1.266 . S
O50 Dy40 2.298 . S
O50 C64 1.236 . S
O51 Dy41 2.395 1_545 S
O51 C71 1.255 . S
O52 Dy41 2.379 1_545 S
O52 C71 1.249 . S
C53 O43 1.266 . S
C53 O44 1.236 . S
O54 Dy40 2.275 . S
O54 C42 1.254 . S
O55 Dy41 2.339 . S
O55 C42 1.257 . S
C56 C59 1.344 . S
C56 C60 1.328 . S
C56 C62 1.516 . S
C57 C58 1.304 . S
C57 C61 1.323 . S
C58 C57 1.304 . S
C58 C59 1.371 . S
C58 H72 0.930 . S
C59 C56 1.344 . S
C59 C58 1.371 . S
C59 H73 0.931 . S
C60 C56 1.328 . S
C60 C61 1.433 . S
C60 H74 0.931 . S
C61 C57 1.323 . S
C61 C60 1.433 . S
C61 H75 0.933 . S
C62 Dy40 2.738 . S
C62 O45 1.255 . S
C62 O46 1.249 . S
C62 C56 1.516 . S
C63 O47 1.254 . S
C63 O48 1.257 . S
C64 O49 1.266 . S
C64 O50 1.236 . S
C65 C68 1.344 . S
C65 C69 1.328 . S
C65 C71 1.516 . S
C66 C67 1.304 . S
C66 C70 1.323 . S
C67 C66 1.304 . S
C67 C68 1.371 . S
C67 H76 0.930 . S
C68 C65 1.344 . S
C68 C67 1.371 . S
C68 H77 0.931 . S
C69 C65 1.328 . S
C69 C70 1.433 . S
C69 H78 0.931 . S
C70 C66 1.323 . S
C70 C69 1.433 . S
C70 H79 0.933 . S
C71 Dy41 2.738 1_545 S
C71 O51 1.255 . S
C71 O52 1.249 . S
C71 C65 1.516 . S
H72 C58 0.930 . S
H73 C59 0.931 . S
H74 C60 0.931 . S
H75 C61 0.933 . S
H76 C67 0.930 . S
H77 C68 0.931 . S
H78 C69 0.931 . S
H79 C70 0.933 . S
Dy80 O83 2.307 . S
Dy80 O85 2.395 . S
Dy80 O86 2.379 . S
Dy80 O88 2.339 . S
Dy80 O90 2.298 . S
Dy80 O94 2.275 . S
Dy80 C102 2.738 . S
Dy81 O84 2.298 . S
Dy81 O87 2.275 . S
Dy81 O89 2.307 . S
Dy81 O91 2.395 1_565 S
Dy81 O92 2.379 1_565 S
Dy81 O95 2.339 . S
Dy81 C111 2.738 1_565 S
C82 O94 1.254 . S
C82 O95 1.257 . S
O83 Dy80 2.307 . S
O83 C93 1.266 . S
O84 Dy81 2.298 . S
O84 C93 1.236 . S
O85 Dy80 2.395 . S
O85 C102 1.255 . S
O86 Dy80 2.379 . S
O86 C102 1.249 . S
O87 Dy81 2.275 . S
O87 C103 1.254 . S
O88 Dy80 2.339 . S
O88 C103 1.257 . S
O89 Dy81 2.307 . S
O89 C104 1.266 . S
O90 Dy80 2.298 . S
O90 C104 1.236 . S
O91 Dy81 2.395 1_545 S
O91 C111 1.255 . S
O92 Dy81 2.379 1_545 S
O92 C111 1.249 . S
C93 O83 1.266 . S
C93 O84 1.236 . S
O94 Dy80 2.275 . S
O94 C82 1.254 . S
O95 Dy81 2.339 . S
O95 C82 1.257 . S
C96 C99 1.344 . S
C96 C100 1.328 . S
C96 C102 1.516 . S
C97 C98 1.304 . S
C97 C101 1.323 . S
C98 C97 1.304 . S
C98 C99 1.371 . S
C98 H112 0.930 . S
C99 C96 1.344 . S
C99 C98 1.371 . S
C99 H113 0.931 . S
C100 C96 1.328 . S
C100 C101 1.433 . S
C100 H114 0.931 . S
C101 C97 1.323 . S
C101 C100 1.433 . S
C101 H115 0.933 . S
C102 Dy80 2.738 . S
C102 O85 1.255 . S
C102 O86 1.249 . S
C102 C96 1.516 . S
C103 O87 1.254 . S
C103 O88 1.257 . S
C104 O89 1.266 . S
C104 O90 1.236 . S
C105 C108 1.344 . S
C105 C109 1.328 . S
C105 C111 1.516 . S
C106 C107 1.304 . S
C106 C110 1.323 . S
C107 C106 1.304 . S
C107 C108 1.371 . S
C107 H116 0.930 . S
C108 C105 1.344 . S
C108 C107 1.371 . S
C108 H117 0.931 . S
C109 C105 1.328 . S
C109 C110 1.433 . S
C109 H118 0.931 . S
C110 C106 1.323 . S
C110 C109 1.433 . S
C110 H119 0.933 . S
C111 Dy81 2.738 1_545 S
C111 O91 1.255 . S
C111 O92 1.249 . S
C111 C105 1.516 . S
H112 C98 0.930 . S
H113 C99 0.931 . S
H114 C100 0.931 . S
H115 C101 0.933 . S
H116 C107 0.930 . S
H117 C108 0.931 . S
H118 C109 0.931 . S
H119 C110 0.933 . S
Dy120 O123 2.307 . S
Dy120 O125 2.395 . S
Dy120 O126 2.379 . S
Dy120 O128 2.339 . S
Dy120 O130 2.298 . S
Dy120 O134 2.275 . S
Dy120 C142 2.738 . S
Dy121 O124 2.298 . S
Dy121 O127 2.275 . S
Dy121 O129 2.307 . S
Dy121 O131 2.395 1_545 S
Dy121 O132 2.379 1_545 S
Dy121 O135 2.339 . S
Dy121 C151 2.738 1_545 S
C122 O134 1.254 . S
C122 O135 1.257 . S
O123 Dy120 2.307 . S
O123 C133 1.266 . S
O124 Dy121 2.298 . S
O124 C133 1.236 . S
O125 Dy120 2.395 . S
O125 C142 1.255 . S
O126 Dy120 2.379 . S
O126 C142 1.249 . S
O127 Dy121 2.275 . S
O127 C143 1.254 . S
O128 Dy120 2.339 . S
O128 C143 1.257 . S
O129 Dy121 2.307 . S
O129 C144 1.266 . S
O130 Dy120 2.298 . S
O130 C144 1.236 . S
O131 Dy121 2.395 1_565 S
O131 C151 1.255 . S
O132 Dy121 2.379 1_565 S
O132 C151 1.249 . S
C133 O123 1.266 . S
C133 O124 1.236 . S
O134 Dy120 2.275 . S
O134 C122 1.254 . S
O135 Dy121 2.339 . S
O135 C122 1.257 . S
C136 C139 1.344 . S
C136 C140 1.328 . S
C136 C142 1.516 . S
C137 C138 1.304 . S
C137 C141 1.323 . S
C138 C137 1.304 . S
C138 C139 1.371 . S
C138 H152 0.930 . S
C139 C136 1.344 . S
C139 C138 1.371 . S
C139 H153 0.931 . S
C140 C136 1.328 . S
C140 C141 1.433 . S
C140 H154 0.931 . S
C141 C137 1.323 . S
C141 C140 1.433 . S
C141 H155 0.933 . S
C142 Dy120 2.738 . S
C142 O125 1.255 . S
C142 O126 1.249 . S
C142 C136 1.516 . S
C143 O127 1.254 . S
C143 O128 1.257 . S
C144 O129 1.266 . S
C144 O130 1.236 . S
C145 C148 1.344 . S
C145 C149 1.328 . S
C145 C151 1.516 . S
C146 C147 1.304 . S
C146 C150 1.323 . S
C147 C146 1.304 . S
C147 C148 1.371 . S
C147 H156 0.930 . S
C148 C145 1.344 . S
C148 C147 1.371 . S
C148 H157 0.931 . S
C149 C145 1.328 . S
C149 C150 1.433 . S
C149 H158 0.931 . S
C150 C146 1.323 . S
C150 C149 1.433 . S
C150 H159 0.933 . S
C151 Dy121 2.738 1_565 S
C151 O131 1.255 . S
C151 O132 1.249 . S
C151 C145 1.516 . S
H152 C138 0.930 . S
H153 C139 0.931 . S
H154 C140 0.931 . S
H155 C141 0.933 . S
H156 C147 0.930 . S
H157 C148 0.931 . S
H158 C149 0.931 . S
H159 C150 0.933 . S
Dy160 O163 2.307 . S
Dy160 O165 2.395 1_565 S
Dy160 O166 2.379 1_565 S
Dy160 O168 2.339 . S
Dy160 O170 2.298 . S
Dy160 O174 2.275 . S
Dy160 C182 2.738 1_565 S
Dy161 O164 2.298 . S
Dy161 O167 2.275 . S
Dy161 O169 2.307 . S
Dy161 O171 2.395 . S
Dy161 O172 2.379 . S
Dy161 O175 2.339 . S
Dy161 C191 2.738 . S
C162 O174 1.254 . S
C162 O175 1.257 . S
O163 Dy160 2.307 . S
O163 C173 1.266 . S
O164 Dy161 2.298 . S
O164 C173 1.236 . S
O165 Dy160 2.395 1_545 S
O165 C182 1.255 . S
O166 Dy160 2.379 1_545 S
O166 C182 1.249 . S
O167 Dy161 2.275 . S
O167 C183 1.254 . S
O168 Dy160 2.339 . S
O168 C183 1.257 . S
O169 Dy161 2.307 . S
O169 C184 1.266 . S
O170 Dy160 2.298 . S
O170 C184 1.236 . S
O171 Dy161 2.395 . S
O171 C191 1.255 . S
O172 Dy161 2.379 . S
O172 C191 1.249 . S
C173 O163 1.266 . S
C173 O164 1.236 . S
O174 Dy160 2.275 . S
O174 C162 1.254 . S
O175 Dy161 2.339 . S
O175 C162 1.257 . S
C176 C179 1.344 . S
C176 C180 1.328 . S
C176 C182 1.516 . S
C177 C178 1.304 . S
C177 C181 1.323 . S
C178 C177 1.304 . S
C178 C179 1.371 . S
C178 H192 0.930 . S
C179 C176 1.344 . S
C179 C178 1.371 . S
C179 H193 0.931 . S
C180 C176 1.328 . S
C180 C181 1.433 . S
C180 H194 0.931 . S
C181 C177 1.323 . S
C181 C180 1.433 . S
C181 H195 0.933 . S
C182 Dy160 2.738 1_545 S
C182 O165 1.255 . S
C182 O166 1.249 . S
C182 C176 1.516 . S
C183 O167 1.254 . S
C183 O168 1.257 . S
C184 O169 1.266 . S
C184 O170 1.236 . S
C185 C188 1.344 . S
C185 C189 1.328 . S
C185 C191 1.516 . S
C186 C187 1.304 . S
C186 C190 1.323 . S
C187 C186 1.304 . S
C187 C188 1.371 . S
C187 H196 0.930 . S
C188 C185 1.344 . S
C188 C187 1.371 . S
C188 H197 0.931 . S
C189 C185 1.328 . S
C189 C190 1.433 . S
C189 H198 0.931 . S
C190 C186 1.323 . S
C190 C189 1.433 . S
C190 H199 0.933 . S
C191 Dy161 2.738 . S
C191 O171 1.255 . S
C191 O172 1.249 . S
C191 C185 1.516 . S
H192 C178 0.930 . S
H193 C179 0.931 . S
H194 C180 0.931 . S
H195 C181 0.933 . S
H196 C187 0.930 . S
H197 C188 0.931 . S
H198 C189 0.931 . S
H199 C190 0.933 . S
Dy200 O203 2.307 . S
Dy200 O205 2.395 1_545 S
Dy200 O206 2.379 1_545 S
Dy200 O208 2.339 . S
Dy200 O210 2.298 . S
Dy200 O214 2.275 . S
Dy200 C222 2.738 1_545 S
Dy201 O204 2.298 . S
Dy201 O207 2.275 . S
Dy201 O209 2.307 . S
Dy201 O211 2.395 . S
Dy201 O212 2.379 . S
Dy201 O215 2.339 . S
Dy201 C231 2.738 . S
C202 O214 1.254 . S
C202 O215 1.257 . S
O203 Dy200 2.307 . S
O203 C213 1.266 . S
O204 Dy201 2.298 . S
O204 C213 1.236 . S
O205 Dy200 2.395 1_565 S
O205 C222 1.255 . S
O206 Dy200 2.379 1_565 S
O206 C222 1.249 . S
O207 Dy201 2.275 . S
O207 C223 1.254 . S
O208 Dy200 2.339 . S
O208 C223 1.257 . S
O209 Dy201 2.307 . S
O209 C224 1.266 . S
O210 Dy200 2.298 . S
O210 C224 1.236 . S
O211 Dy201 2.395 . S
O211 C231 1.255 . S
O212 Dy201 2.379 . S
O212 C231 1.249 . S
C213 O203 1.266 . S
C213 O204 1.236 . S
O214 Dy200 2.275 . S
O214 C202 1.254 . S
O215 Dy201 2.339 . S
O215 C202 1.257 . S
C216 C219 1.344 . S
C216 C220 1.328 . S
C216 C222 1.516 . S
C217 C218 1.304 . S
C217 C221 1.323 . S
C218 C217 1.304 . S
C218 C219 1.371 . S
C218 H232 0.930 . S
C219 C216 1.344 . S
C219 C218 1.371 . S
C219 H233 0.931 . S
C220 C216 1.328 . S
C220 C221 1.433 . S
C220 H234 0.931 . S
C221 C217 1.323 . S
C221 C220 1.433 . S
C221 H235 0.933 . S
C222 Dy200 2.738 1_565 S
C222 O205 1.255 . S
C222 O206 1.249 . S
C222 C216 1.516 . S
C223 O207 1.254 . S
C223 O208 1.257 . S
C224 O209 1.266 . S
C224 O210 1.236 . S
C225 C228 1.344 . S
C225 C229 1.328 . S
C225 C231 1.516 . S
C226 C227 1.304 . S
C226 C230 1.323 . S
C227 C226 1.304 . S
C227 C228 1.371 . S
C227 H236 0.930 . S
C228 C225 1.344 . S
C228 C227 1.371 . S
C228 H237 0.931 . S
C229 C225 1.328 . S
C229 C230 1.433 . S
C229 H238 0.931 . S
C230 C226 1.323 . S
C230 C229 1.433 . S
C230 H239 0.933 . S
C231 Dy201 2.738 . S
C231 O211 1.255 . S
C231 O212 1.249 . S
C231 C225 1.516 . S
H232 C218 0.930 . S
H233 C219 0.931 . S
H234 C220 0.931 . S
H235 C221 0.933 . S
H236 C227 0.930 . S
H237 C228 0.931 . S
H238 C229 0.931 . S
H239 C230 0.933 . S
Dy240 O243 2.307 . S
Dy240 O245 2.395 1_545 S
Dy240 O246 2.379 1_545 S
Dy240 O248 2.339 . S
Dy240 O250 2.298 . S
Dy240 O254 2.275 . S
Dy240 C262 2.738 1_545 S
Dy241 O244 2.298 . S
Dy241 O247 2.275 . S
Dy241 O249 2.307 . S
Dy241 O251 2.395 . S
Dy241 O252 2.379 . S
Dy241 O255 2.339 . S
Dy241 C271 2.738 . S
C242 O254 1.254 . S
C242 O255 1.257 . S
O243 Dy240 2.307 . S
O243 C253 1.266 . S
O244 Dy241 2.298 . S
O244 C253 1.236 . S
O245 Dy240 2.395 1_565 S
O245 C262 1.255 . S
O246 Dy240 2.379 1_565 S
O246 C262 1.249 . S
O247 Dy241 2.275 . S
O247 C263 1.254 . S
O248 Dy240 2.339 . S
O248 C263 1.257 . S
O249 Dy241 2.307 . S
O249 C264 1.266 . S
O250 Dy240 2.298 . S
O250 C264 1.236 . S
O251 Dy241 2.395 . S
O251 C271 1.255 . S
O252 Dy241 2.379 . S
O252 C271 1.249 . S
C253 O243 1.266 . S
C253 O244 1.236 . S
O254 Dy240 2.275 . S
O254 C242 1.254 . S
O255 Dy241 2.339 . S
O255 C242 1.257 . S
C256 C259 1.344 . S
C256 C260 1.328 . S
C256 C262 1.516 . S
C257 C258 1.304 . S
C257 C261 1.323 . S
C258 C257 1.304 . S
C258 C259 1.371 . S
C258 H272 0.930 . S
C259 C256 1.344 . S
C259 C258 1.371 . S
C259 H273 0.931 . S
C260 C256 1.328 . S
C260 C261 1.433 . S
C260 H274 0.931 . S
C261 C257 1.323 . S
C261 C260 1.433 . S
C261 H275 0.933 . S
C262 Dy240 2.738 1_565 S
C262 O245 1.255 . S
C262 O246 1.249 . S
C262 C256 1.516 . S
C263 O247 1.254 . S
C263 O248 1.257 . S
C264 O249 1.266 . S
C264 O250 1.236 . S
C265 C268 1.344 . S
C265 C269 1.328 . S
C265 C271 1.516 . S
C266 C267 1.304 . S
C266 C270 1.323 . S
C267 C266 1.304 . S
C267 C268 1.371 . S
C267 H276 0.930 . S
C268 C265 1.344 . S
C268 C267 1.371 . S
C268 H277 0.931 . S
C269 C265 1.328 . S
C269 C270 1.433 . S
C269 H278 0.931 . S
C270 C266 1.323 . S
C270 C269 1.433 . S
C270 H279 0.933 . S
C271 Dy241 2.738 . S
C271 O251 1.255 . S
C271 O252 1.249 . S
C271 C265 1.516 . S
H272 C258 0.930 . S
H273 C259 0.931 . S
H274 C260 0.931 . S
H275 C261 0.933 . S
H276 C267 0.930 . S
H277 C268 0.931 . S
H278 C269 0.931 . S
H279 C270 0.933 . S
Dy280 O283 2.307 . S
Dy280 O285 2.395 1_565 S
Dy280 O286 2.379 1_565 S
Dy280 O288 2.339 . S
Dy280 O290 2.298 . S
Dy280 O294 2.275 . S
Dy280 C302 2.738 1_565 S
Dy281 O284 2.298 . S
Dy281 O287 2.275 . S
Dy281 O289 2.307 . S
Dy281 O291 2.395 . S
Dy281 O292 2.379 . S
Dy281 O295 2.339 . S
Dy281 C311 2.738 . S
C282 O294 1.254 . S
C282 O295 1.257 . S
O283 Dy280 2.307 . S
O283 C293 1.266 . S
O284 Dy281 2.298 . S
O284 C293 1.236 . S
O285 Dy280 2.395 1_545 S
O285 C302 1.255 . S
O286 Dy280 2.379 1_545 S
O286 C302 1.249 . S
O287 Dy281 2.275 . S
O287 C303 1.254 . S
O288 Dy280 2.339 . S
O288 C303 1.257 . S
O289 Dy281 2.307 . S
O289 C304 1.266 . S
O290 Dy280 2.298 . S
O290 C304 1.236 . S
O291 Dy281 2.395 . S
O291 C311 1.255 . S
O292 Dy281 2.379 . S
O292 C311 1.249 . S
C293 O283 1.266 . S
C293 O284 1.236 . S
O294 Dy280 2.275 . S
O294 C282 1.254 . S
O295 Dy281 2.339 . S
O295 C282 1.257 . S
C296 C299 1.344 . S
C296 C300 1.328 . S
C296 C302 1.516 . S
C297 C298 1.304 . S
C297 C301 1.323 . S
C298 C297 1.304 . S
C298 C299 1.371 . S
C298 H312 0.930 . S
C299 C296 1.344 . S
C299 C298 1.371 . S
C299 H313 0.931 . S
C300 C296 1.328 . S
C300 C301 1.433 . S
C300 H314 0.931 . S
C301 C297 1.323 . S
C301 C300 1.433 . S
C301 H315 0.933 . S
C302 Dy280 2.738 1_545 S
C302 O285 1.255 . S
C302 O286 1.249 . S
C302 C296 1.516 . S
C303 O287 1.254 . S
C303 O288 1.257 . S
C304 O289 1.266 . S
C304 O290 1.236 . S
C305 C308 1.344 . S
C305 C309 1.328 . S
C305 C311 1.516 . S
C306 C307 1.304 . S
C306 C310 1.323 . S
C307 C306 1.304 . S
C307 C308 1.371 . S
C307 H316 0.930 . S
C308 C305 1.344 . S
C308 C307 1.371 . S
C308 H317 0.931 . S
C309 C305 1.328 . S
C309 C310 1.433 . S
C309 H318 0.931 . S
C310 C306 1.323 . S
C310 C309 1.433 . S
C310 H319 0.933 . S
C311 Dy281 2.738 . S
C311 O291 1.255 . S
C311 O292 1.249 . S
C311 C305 1.516 . S
H312 C298 0.930 . S
H313 C299 0.931 . S
H314 C300 0.931 . S
H315 C301 0.933 . S
H316 C307 0.930 . S
H317 C308 0.931 . S
H318 C309 0.931 . S
H319 C310 0.933 . S
Dy320 O323 2.307 . S
Dy320 O325 2.395 . S
Dy320 O326 2.379 . S
Dy320 O328 2.339 . S
Dy320 O330 2.298 . S
Dy320 O334 2.275 . S
Dy320 C342 2.738 . S
Dy321 O324 2.298 . S
Dy321 O327 2.275 . S
Dy321 O329 2.307 . S
Dy321 O331 2.395 . S
Dy321 O332 2.379 . S
Dy321 O335 2.339 . S
Dy321 C351 2.738 . S
C322 O334 1.254 . S
C322 O335 1.257 . S
O323 Dy320 2.307 . S
O323 C333 1.266 . S
O324 Dy321 2.298 . S
O324 C333 1.236 . S
O325 Dy320 2.395 . S
O325 C342 1.255 . S
O326 Dy320 2.379 . S
O326 C342 1.249 . S
O327 Dy321 2.275 . S
O327 C343 1.254 . S
O328 Dy320 2.339 . S
O328 C343 1.257 . S
O329 Dy321 2.307 . S
O329 C344 1.266 . S
O330 Dy320 2.298 . S
O330 C344 1.236 . S
O331 Dy321 2.395 . S
O331 C351 1.255 . S
O332 Dy321 2.379 . S
O332 C351 1.249 . S
C333 O323 1.266 . S
C333 O324 1.236 . S
O334 Dy320 2.275 . S
O334 C322 1.254 . S
O335 Dy321 2.339 . S
O335 C322 1.257 . S
C336 C339 1.344 . S
C336 C340 1.328 . S
C336 C342 1.516 . S
C337 C338 1.304 . S
C337 C341 1.323 . S
C338 C337 1.304 . S
C338 C339 1.371 . S
C338 H352 0.930 . S
C339 C336 1.344 . S
C339 C338 1.371 . S
C339 H353 0.931 . S
C340 C336 1.328 . S
C340 C341 1.433 . S
C340 H354 0.931 . S
C341 C337 1.323 . S
C341 C340 1.433 . S
C341 H355 0.933 . S
C342 Dy320 2.738 . S
C342 O325 1.255 . S
C342 O326 1.249 . S
C342 C336 1.516 . S
C343 O327 1.254 . S
C343 O328 1.257 . S
C344 O329 1.266 . S
C344 O330 1.236 . S
C345 C348 1.344 . S
C345 C349 1.328 . S
C345 C351 1.516 . S
C346 C347 1.304 . S
C346 C350 1.323 . S
C347 C346 1.304 . S
C347 C348 1.371 . S
C347 H356 0.930 . S
C348 C345 1.344 . S
C348 C347 1.371 . S
C348 H357 0.931 . S
C349 C345 1.328 . S
C349 C350 1.433 . S
C349 H358 0.931 . S
C350 C346 1.323 . S
C350 C349 1.433 . S
C350 H359 0.933 . S
C351 Dy321 2.738 . S
C351 O331 1.255 . S
C351 O332 1.249 . S
C351 C345 1.516 . S
H352 C338 0.930 . S
H353 C339 0.931 . S
H354 C340 0.931 . S
H355 C341 0.933 . S
H356 C347 0.930 . S
H357 C348 0.931 . S
H358 C349 0.931 . S
H359 C350 0.933 . S
Dy360 O363 2.307 . S
Dy360 O365 2.395 . S
Dy360 O366 2.379 . S
Dy360 O368 2.339 . S
Dy360 O370 2.298 . S
Dy360 O374 2.275 . S
Dy360 C382 2.738 . S
Dy361 O364 2.298 . S
Dy361 O367 2.275 . S
Dy361 O369 2.307 . S
Dy361 O371 2.395 . S
Dy361 O372 2.379 . S
Dy361 O375 2.339 . S
Dy361 C391 2.738 . S
C362 O374 1.254 . S
C362 O375 1.257 . S
O363 Dy360 2.307 . S
O363 C373 1.266 . S
O364 Dy361 2.298 . S
O364 C373 1.236 . S
O365 Dy360 2.395 . S
O365 C382 1.255 . S
O366 Dy360 2.379 . S
O366 C382 1.249 . S
O367 Dy361 2.275 . S
O367 C383 1.254 . S
O368 Dy360 2.339 . S
O368 C383 1.257 . S
O369 Dy361 2.307 . S
O369 C384 1.266 . S
O370 Dy360 2.298 . S
O370 C384 1.236 . S
O371 Dy361 2.395 . S
O371 C391 1.255 . S
O372 Dy361 2.379 . S
O372 C391 1.249 . S
C373 O363 1.266 . S
C373 O364 1.236 . S
O374 Dy360 2.275 . S
O374 C362 1.254 . S
O375 Dy361 2.339 . S
O375 C362 1.257 . S
C376 C379 1.344 . S
C376 C380 1.328 . S
C376 C382 1.516 . S
C377 C378 1.304 . S
C377 C381 1.323 . S
C378 C377 1.304 . S
C378 C379 1.371 . S
C378 H392 0.930 . S
C379 C376 1.344 . S
C379 C378 1.371 . S
C379 H393 0.931 . S
C380 C376 1.328 . S
C380 C381 1.433 . S
C380 H394 0.931 . S
C381 C377 1.323 . S
C381 C380 1.433 . S
C381 H395 0.933 . S
C382 Dy360 2.738 . S
C382 O365 1.255 . S
C382 O366 1.249 . S
C382 C376 1.516 . S
C383 O367 1.254 . S
C383 O368 1.257 . S
C384 O369 1.266 . S
C384 O370 1.236 . S
C385 C388 1.344 . S
C385 C389 1.328 . S
C385 C391 1.516 . S
C386 C387 1.304 . S
C386 C390 1.323 . S
C387 C386 1.304 . S
C387 C388 1.371 . S
C387 H396 0.930 . S
C388 C385 1.344 . S
C388 C387 1.371 . S
C388 H397 0.931 . S
C389 C385 1.328 . S
C389 C390 1.433 . S
C389 H398 0.931 . S
C390 C386 1.323 . S
C390 C389 1.433 . S
C390 H399 0.933 . S
C391 Dy361 2.738 . S
C391 O371 1.255 . S
C391 O372 1.249 . S
C391 C385 1.516 . S
H392 C378 0.930 . S
H393 C379 0.931 . S
H394 C380 0.931 . S
H395 C381 0.933 . S
H396 C387 0.930 . S
H397 C388 0.931 . S
H398 C389 0.931 . S
H399 C390 0.933 . S
Dy400 O403 2.307 . S
Dy400 O405 2.395 . S
Dy400 O406 2.379 . S
Dy400 O408 2.339 . S
Dy400 O410 2.298 . S
Dy400 O414 2.275 . S
Dy400 C422 2.738 . S
Dy401 O404 2.298 . S
Dy401 O407 2.275 . S
Dy401 O409 2.307 . S
Dy401 O411 2.395 . S
Dy401 O412 2.379 . S
Dy401 O415 2.339 . S
Dy401 C431 2.738 . S
C402 O414 1.254 . S
C402 O415 1.257 . S
O403 Dy400 2.307 . S
O403 C413 1.266 . S
O404 Dy401 2.298 . S
O404 C413 1.236 . S
O405 Dy400 2.395 . S
O405 C422 1.255 . S
O406 Dy400 2.379 . S
O406 C422 1.249 . S
O407 Dy401 2.275 . S
O407 C423 1.254 . S
O408 Dy400 2.339 . S
O408 C423 1.257 . S
O409 Dy401 2.307 . S
O409 C424 1.266 . S
O410 Dy400 2.298 . S
O410 C424 1.236 . S
O411 Dy401 2.395 . S
O411 C431 1.255 . S
O412 Dy401 2.379 . S
O412 C431 1.249 . S
C413 O403 1.266 . S
C413 O404 1.236 . S
O414 Dy400 2.275 . S
O414 C402 1.254 . S
O415 Dy401 2.339 . S
O415 C402 1.257 . S
C416 C419 1.344 . S
C416 C420 1.328 . S
C416 C422 1.516 . S
C417 C418 1.304 . S
C417 C421 1.323 . S
C418 C417 1.304 . S
C418 C419 1.371 . S
C418 H432 0.930 . S
C419 C416 1.344 . S
C419 C418 1.371 . S
C419 H433 0.931 . S
C420 C416 1.328 . S
C420 C421 1.433 . S
C420 H434 0.931 . S
C421 C417 1.323 . S
C421 C420 1.433 . S
C421 H435 0.933 . S
C422 Dy400 2.738 . S
C422 O405 1.255 . S
C422 O406 1.249 . S
C422 C416 1.516 . S
C423 O407 1.254 . S
C423 O408 1.257 . S
C424 O409 1.266 . S
C424 O410 1.236 . S
C425 C428 1.344 . S
C425 C429 1.328 . S
C425 C431 1.516 . S
C426 C427 1.304 . S
C426 C430 1.323 . S
C427 C426 1.304 . S
C427 C428 1.371 . S
C427 H436 0.930 . S
C428 C425 1.344 . S
C428 C427 1.371 . S
C428 H437 0.931 . S
C429 C425 1.328 . S
C429 C430 1.433 . S
C429 H438 0.931 . S
C430 C426 1.323 . S
C430 C429 1.433 . S
C430 H439 0.933 . S
C431 Dy401 2.738 . S
C431 O411 1.255 . S
C431 O412 1.249 . S
C431 C425 1.516 . S
H432 C418 0.930 . S
H433 C419 0.931 . S
H434 C420 0.931 . S
H435 C421 0.933 . S
H436 C427 0.930 . S
H437 C428 0.931 . S
H438 C429 0.931 . S
H439 C430 0.933 . S
Dy440 O443 2.307 . S
Dy440 O445 2.395 . S
Dy440 O446 2.379 . S
Dy440 O448 2.339 . S
Dy440 O450 2.298 . S
Dy440 O454 2.275 . S
Dy440 C462 2.738 . S
Dy441 O444 2.298 . S
Dy441 O447 2.275 . S
Dy441 O449 2.307 . S
Dy441 O451 2.395 . S
Dy441 O452 2.379 . S
Dy441 O455 2.339 . S
Dy441 C471 2.738 . S
C442 O454 1.254 . S
C442 O455 1.257 . S
O443 Dy440 2.307 . S
O443 C453 1.266 . S
O444 Dy441 2.298 . S
O444 C453 1.236 . S
O445 Dy440 2.395 . S
O445 C462 1.255 . S
O446 Dy440 2.379 . S
O446 C462 1.249 . S
O447 Dy441 2.275 . S
O447 C463 1.254 . S
O448 Dy440 2.339 . S
O448 C463 1.257 . S
O449 Dy441 2.307 . S
O449 C464 1.266 . S
O450 Dy440 2.298 . S
O450 C464 1.236 . S
O451 Dy441 2.395 . S
O451 C471 1.255 . S
O452 Dy441 2.379 . S
O452 C471 1.249 . S
C453 O443 1.266 . S
C453 O444 1.236 . S
O454 Dy440 2.275 . S
O454 C442 1.254 . S
O455 Dy441 2.339 . S
O455 C442 1.257 . S
C456 C459 1.344 . S
C456 C460 1.328 . S
C456 C462 1.516 . S
C457 C458 1.304 . S
C457 C461 1.323 . S
C458 C457 1.304 . S
C458 C459 1.371 . S
C458 H472 0.930 . S
C459 C456 1.344 . S
C459 C458 1.371 . S
C459 H473 0.931 . S
C460 C456 1.328 . S
C460 C461 1.433 . S
C460 H474 0.931 . S
C461 C457 1.323 . S
C461 C460 1.433 . S
C461 H475 0.933 . S
C462 Dy440 2.738 . S
C462 O445 1.255 . S
C462 O446 1.249 . S
C462 C456 1.516 . S
C463 O447 1.254 . S
C463 O448 1.257 . S
C464 O449 1.266 . S
C464 O450 1.236 . S
C465 C468 1.344 . S
C465 C469 1.328 . S
C465 C471 1.516 . S
C466 C467 1.304 . S
C466 C470 1.323 . S
C467 C466 1.304 . S
C467 C468 1.371 . S
C467 H476 0.930 . S
C468 C465 1.344 . S
C468 C467 1.371 . S
C468 H477 0.931 . S
C469 C465 1.328 . S
C469 C470 1.433 . S
C469 H478 0.931 . S
C470 C466 1.323 . S
C470 C469 1.433 . S
C470 H479 0.933 . S
C471 Dy441 2.738 . S
C471 O451 1.255 . S
C471 O452 1.249 . S
C471 C465 1.516 . S
H472 C458 0.930 . S
H473 C459 0.931 . S
H474 C460 0.931 . S
H475 C461 0.933 . S
H476 C467 0.930 . S
H477 C468 0.931 . S
H478 C469 0.931 . S
H479 C470 0.933 . S
Dy480 O483 2.307 . S
Dy480 O485 2.395 . S
Dy480 O486 2.379 . S
Dy480 O488 2.339 . S
Dy480 O490 2.298 . S
Dy480 O494 2.275 . S
Dy480 C502 2.738 . S
Dy481 O484 2.298 . S
Dy481 O487 2.275 . S
Dy481 O489 2.307 . S
Dy481 O491 2.395 . S
Dy481 O492 2.379 . S
Dy481 O495 2.339 . S
Dy481 C511 2.738 . S
C482 O494 1.254 . S
C482 O495 1.257 . S
O483 Dy480 2.307 . S
O483 C493 1.266 . S
O484 Dy481 2.298 . S
O484 C493 1.236 . S
O485 Dy480 2.395 . S
O485 C502 1.255 . S
O486 Dy480 2.379 . S
O486 C502 1.249 . S
O487 Dy481 2.275 . S
O487 C503 1.254 . S
O488 Dy480 2.339 . S
O488 C503 1.257 . S
O489 Dy481 2.307 . S
O489 C504 1.266 . S
O490 Dy480 2.298 . S
O490 C504 1.236 . S
O491 Dy481 2.395 . S
O491 C511 1.255 . S
O492 Dy481 2.379 . S
O492 C511 1.249 . S
C493 O483 1.266 . S
C493 O484 1.236 . S
O494 Dy480 2.275 . S
O494 C482 1.254 . S
O495 Dy481 2.339 . S
O495 C482 1.257 . S
C496 C499 1.344 . S
C496 C500 1.328 . S
C496 C502 1.516 . S
C497 C498 1.304 . S
C497 C501 1.323 . S
C498 C497 1.304 . S
C498 C499 1.371 . S
C498 H512 0.930 . S
C499 C496 1.344 . S
C499 C498 1.371 . S
C499 H513 0.931 . S
C500 C496 1.328 . S
C500 C501 1.433 . S
C500 H514 0.931 . S
C501 C497 1.323 . S
C501 C500 1.433 . S
C501 H515 0.933 . S
C502 Dy480 2.738 . S
C502 O485 1.255 . S
C502 O486 1.249 . S
C502 C496 1.516 . S
C503 O487 1.254 . S
C503 O488 1.257 . S
C504 O489 1.266 . S
C504 O490 1.236 . S
C505 C508 1.344 . S
C505 C509 1.328 . S
C505 C511 1.516 . S
C506 C507 1.304 . S
C506 C510 1.323 . S
C507 C506 1.304 . S
C507 C508 1.371 . S
C507 H516 0.930 . S
C508 C505 1.344 . S
C508 C507 1.371 . S
C508 H517 0.931 . S
C509 C505 1.328 . S
C509 C510 1.433 . S
C509 H518 0.931 . S
C510 C506 1.323 . S
C510 C509 1.433 . S
C510 H519 0.933 . S
C511 Dy481 2.738 . S
C511 O491 1.255 . S
C511 O492 1.249 . S
C511 C505 1.516 . S
H512 C498 0.930 . S
H513 C499 0.931 . S
H514 C500 0.931 . S
H515 C501 0.933 . S
H516 C507 0.930 . S
H517 C508 0.931 . S
H518 C509 0.931 . S
H519 C510 0.933 . S
Dy520 O523 2.307 . S
Dy520 O525 2.395 . S
Dy520 O526 2.379 . S
Dy520 O528 2.339 . S
Dy520 O530 2.298 . S
Dy520 O534 2.275 . S
Dy520 C542 2.738 . S
Dy521 O524 2.298 . S
Dy521 O527 2.275 . S
Dy521 O529 2.307 . S
Dy521 O531 2.395 . S
Dy521 O532 2.379 . S
Dy521 O535 2.339 . S
Dy521 C551 2.738 . S
C522 O534 1.254 . S
C522 O535 1.257 . S
O523 Dy520 2.307 . S
O523 C533 1.266 . S
O524 Dy521 2.298 . S
O524 C533 1.236 . S
O525 Dy520 2.395 . S
O525 C542 1.255 . S
O526 Dy520 2.379 . S
O526 C542 1.249 . S
O527 Dy521 2.275 . S
O527 C543 1.254 . S
O528 Dy520 2.339 . S
O528 C543 1.257 . S
O529 Dy521 2.307 . S
O529 C544 1.266 . S
O530 Dy520 2.298 . S
O530 C544 1.236 . S
O531 Dy521 2.395 . S
O531 C551 1.255 . S
O532 Dy521 2.379 . S
O532 C551 1.249 . S
C533 O523 1.266 . S
C533 O524 1.236 . S
O534 Dy520 2.275 . S
O534 C522 1.254 . S
O535 Dy521 2.339 . S
O535 C522 1.257 . S
C536 C539 1.344 . S
C536 C540 1.328 . S
C536 C542 1.516 . S
C537 C538 1.304 . S
C537 C541 1.323 . S
C538 C537 1.304 . S
C538 C539 1.371 . S
C538 H552 0.930 . S
C539 C536 1.344 . S
C539 C538 1.371 . S
C539 H553 0.931 . S
C540 C536 1.328 . S
C540 C541 1.433 . S
C540 H554 0.931 . S
C541 C537 1.323 . S
C541 C540 1.433 . S
C541 H555 0.933 . S
C542 Dy520 2.738 . S
C542 O525 1.255 . S
C542 O526 1.249 . S
C542 C536 1.516 . S
C543 O527 1.254 . S
C543 O528 1.257 . S
C544 O529 1.266 . S
C544 O530 1.236 . S
C545 C548 1.344 . S
C545 C549 1.328 . S
C545 C551 1.516 . S
C546 C547 1.304 . S
C546 C550 1.323 . S
C547 C546 1.304 . S
C547 C548 1.371 . S
C547 H556 0.930 . S
C548 C545 1.344 . S
C548 C547 1.371 . S
C548 H557 0.931 . S
C549 C545 1.328 . S
C549 C550 1.433 . S
C549 H558 0.931 . S
C550 C546 1.323 . S
C550 C549 1.433 . S
C550 H559 0.933 . S
C551 Dy521 2.738 . S
C551 O531 1.255 . S
C551 O532 1.249 . S
C551 C545 1.516 . S
H552 C538 0.930 . S
H553 C539 0.931 . S
H554 C540 0.931 . S
H555 C541 0.933 . S
H556 C547 0.930 . S
H557 C548 0.931 . S
H558 C549 0.931 . S
H559 C550 0.933 . S
Dy560 O563 2.307 . S
Dy560 O565 2.395 . S
Dy560 O566 2.379 . S
Dy560 O568 2.339 . S
Dy560 O570 2.298 . S
Dy560 O574 2.275 . S
Dy560 C582 2.738 . S
Dy561 O564 2.298 . S
Dy561 O567 2.275 . S
Dy561 O569 2.307 . S
Dy561 O571 2.395 . S
Dy561 O572 2.379 . S
Dy561 O575 2.339 . S
Dy561 C591 2.738 . S
C562 O574 1.254 . S
C562 O575 1.257 . S
O563 Dy560 2.307 . S
O563 C573 1.266 . S
O564 Dy561 2.298 . S
O564 C573 1.236 . S
O565 Dy560 2.395 . S
O565 C582 1.255 . S
O566 Dy560 2.379 . S
O566 C582 1.249 . S
O567 Dy561 2.275 . S
O567 C583 1.254 . S
O568 Dy560 2.339 . S
O568 C583 1.257 . S
O569 Dy561 2.307 . S
O569 C584 1.266 . S
O570 Dy560 2.298 . S
O570 C584 1.236 . S
O571 Dy561 2.395 . S
O571 C591 1.255 . S
O572 Dy561 2.379 . S
O572 C591 1.249 . S
C573 O563 1.266 . S
C573 O564 1.236 . S
O574 Dy560 2.275 . S
O574 C562 1.254 . S
O575 Dy561 2.339 . S
O575 C562 1.257 . S
C576 C579 1.344 . S
C576 C580 1.328 . S
C576 C582 1.516 . S
C577 C578 1.304 . S
C577 C581 1.323 . S
C578 C577 1.304 . S
C578 C579 1.371 . S
C578 H592 0.930 . S
C579 C576 1.344 . S
C579 C578 1.371 . S
C579 H593 0.931 . S
C580 C576 1.328 . S
C580 C581 1.433 . S
C580 H594 0.931 . S
C581 C577 1.323 . S
C581 C580 1.433 . S
C581 H595 0.933 . S
C582 Dy560 2.738 . S
C582 O565 1.255 . S
C582 O566 1.249 . S
C582 C576 1.516 . S
C583 O567 1.254 . S
C583 O568 1.257 . S
C584 O569 1.266 . S
C584 O570 1.236 . S
C585 C588 1.344 . S
C585 C589 1.328 . S
C585 C591 1.516 . S
C586 C587 1.304 . S
C586 C590 1.323 . S
C587 C586 1.304 . S
C587 C588 1.371 . S
C587 H596 0.930 . S
C588 C585 1.344 . S
C588 C587 1.371 . S
C588 H597 0.931 . S
C589 C585 1.328 . S
C589 C590 1.433 . S
C589 H598 0.931 . S
C590 C586 1.323 . S
C590 C589 1.433 . S
C590 H599 0.933 . S
C591 Dy561 2.738 . S
C591 O571 1.255 . S
C591 O572 1.249 . S
C591 C585 1.516 . S
H592 C578 0.930 . S
H593 C579 0.931 . S
H594 C580 0.931 . S
H595 C581 0.933 . S
H596 C587 0.930 . S
H597 C588 0.931 . S
H598 C589 0.931 . S
H599 C590 0.933 . S
Dy600 O603 2.307 . S
Dy600 O605 2.395 . S
Dy600 O606 2.379 . S
Dy600 O608 2.339 . S
Dy600 O610 2.298 . S
Dy600 O614 2.275 . S
Dy600 C622 2.738 . S
Dy601 O604 2.298 . S
Dy601 O607 2.275 . S
Dy601 O609 2.307 . S
Dy601 O611 2.395 . S
Dy601 O612 2.379 . S
Dy601 O615 2.339 . S
Dy601 C631 2.738 . S
C602 O614 1.254 . S
C602 O615 1.257 . S
O603 Dy600 2.307 . S
O603 C613 1.266 . S
O604 Dy601 2.298 . S
O604 C613 1.236 . S
O605 Dy600 2.395 . S
O605 C622 1.255 . S
O606 Dy600 2.379 . S
O606 C622 1.249 . S
O607 Dy601 2.275 . S
O607 C623 1.254 . S
O608 Dy600 2.339 . S
O608 C623 1.257 . S
O609 Dy601 2.307 . S
O609 C624 1.266 . S
O610 Dy600 2.298 . S
O610 C624 1.236 . S
O611 Dy601 2.395 . S
O611 C631 1.255 . S
O612 Dy601 2.379 . S
O612 C631 1.249 . S
C613 O603 1.266 . S
C613 O604 1.236 . S
O614 Dy600 2.275 . S
O614 C602 1.254 . S
O615 Dy601 2.339 . S
O615 C602 1.257 . S
C616 C619 1.344 . S
C616 C620 1.328 . S
C616 C622 1.516 . S
C617 C618 1.304 . S
C617 C621 1.323 . S
C618 C617 1.304 . S
C618 C619 1.371 . S
C618 H632 0.930 . S
C619 C616 1.344 . S
C619 C618 1.371 . S
C619 H633 0.931 . S
C620 C616 1.328 . S
C620 C621 1.433 . S
C620 H634 0.931 . S
C621 C617 1.323 . S
C621 C620 1.433 . S
C621 H635 0.933 . S
C622 Dy600 2.738 . S
C622 O605 1.255 . S
C622 O606 1.249 . S
C622 C616 1.516 . S
C623 O607 1.254 . S
C623 O608 1.257 . S
C624 O609 1.266 . S
C624 O610 1.236 . S
C625 C628 1.344 . S
C625 C629 1.328 . S
C625 C631 1.516 . S
C626 C627 1.304 . S
C626 C630 1.323 . S
C627 C626 1.304 . S
C627 C628 1.371 . S
C627 H636 0.930 . S
C628 C625 1.344 . S
C628 C627 1.371 . S
C628 H637 0.931 . S
C629 C625 1.328 . S
C629 C630 1.433 . S
C629 H638 0.931 . S
C630 C626 1.323 . S
C630 C629 1.433 . S
C630 H639 0.933 . S
C631 Dy601 2.738 . S
C631 O611 1.255 . S
C631 O612 1.249 . S
C631 C625 1.516 . S
H632 C618 0.930 . S
H633 C619 0.931 . S
H634 C620 0.931 . S
H635 C621 0.933 . S
H636 C627 0.930 . S
H637 C628 0.931 . S
H638 C629 0.931 . S
H639 C630 0.933 . S
C640 C641 1.349 . S
C640 C642 1.327 . S
C640 H665 0.950 . S
C641 C640 1.349 . S
C641 C657 1.349 . S
C642 C640 1.327 . S
C642 C661 1.429 . S
C642 H666 0.950 . S
C643 C660 1.574 . S
C643 C662 1.368 . S
C643 H667 0.949 . S
H644 C648 0.949 . S
C645 C646 1.349 . S
C645 C647 1.327 . S
C645 H668 0.950 . S
C646 C645 1.349 . S
C646 C658 1.349 . S
C647 C645 1.327 . S
C647 C663 1.429 . S
C647 H669 0.950 . S
C648 H644 0.949 . S
C648 C656 1.574 . S
C648 C664 1.368 . S
H649 C657 0.950 . S
H650 C655 0.950 . S
H651 C656 0.949 . S
H652 C658 0.950 . S
H653 C659 0.950 . S
H654 C660 0.949 . S
C655 H650 0.950 . S
C655 C657 1.327 . S
C655 C661 1.429 . S
C656 C648 1.574 . S
C656 H651 0.949 . S
C656 C662 1.368 . S
C657 C641 1.349 . S
C657 H649 0.950 . S
C657 C655 1.327 . S
C658 C646 1.349 . S
C658 H652 0.950 . S
C658 C659 1.327 . S
C659 H653 0.950 . S
C659 C658 1.327 . S
C659 C663 1.429 . S
C660 C643 1.574 . S
C660 H654 0.949 . S
C660 C664 1.368 . S
C661 C642 1.429 . S
C661 C655 1.429 . S
C661 C662 1.523 . S
C662 C643 1.368 . S
C662 C656 1.368 . S
C662 C661 1.523 . S
C663 C647 1.429 . S
C663 C659 1.429 . S
C663 C664 1.523 . S
C664 C648 1.368 . S
C664 C660 1.368 . S
C664 C663 1.523 . S
H665 C640 0.950 . S
H666 C642 0.950 . S
H667 C643 0.949 . S
H668 C645 0.950 . S
H669 C647 0.950 . S
C670 C671 1.349 . S
C670 C672 1.327 . S
C670 H695 0.950 . S
C671 C670 1.349 . S
C671 C687 1.349 . S
C672 C670 1.327 . S
C672 C691 1.429 . S
C672 H696 0.950 . S
C673 C690 1.574 . S
C673 C692 1.368 . S
C673 H697 0.949 . S
H674 C678 0.949 . S
C675 C676 1.349 . S
C675 C677 1.327 . S
C675 H698 0.950 . S
C676 C675 1.349 . S
C676 C688 1.349 . S
C677 C675 1.327 . S
C677 C693 1.429 . S
C677 H699 0.950 . S
C678 H674 0.949 . S
C678 C686 1.574 . S
C678 C694 1.368 . S
H679 C687 0.950 . S
H680 C685 0.950 . S
H681 C686 0.949 . S
H682 C688 0.950 . S
H683 C689 0.950 . S
H684 C690 0.949 . S
C685 H680 0.950 . S
C685 C687 1.327 . S
C685 C691 1.429 . S
C686 C678 1.574 . S
C686 H681 0.949 . S
C686 C692 1.368 . S
C687 C671 1.349 . S
C687 H679 0.950 . S
C687 C685 1.327 . S
C688 C676 1.349 . S
C688 H682 0.950 . S
C688 C689 1.327 . S
C689 H683 0.950 . S
C689 C688 1.327 . S
C689 C693 1.429 . S
C690 C673 1.574 . S
C690 H684 0.949 . S
C690 C694 1.368 . S
C691 C672 1.429 . S
C691 C685 1.429 . S
C691 C692 1.523 . S
C692 C673 1.368 . S
C692 C686 1.368 . S
C692 C691 1.523 . S
C693 C677 1.429 . S
C693 C689 1.429 . S
C693 C694 1.523 . S
C694 C678 1.368 . S
C694 C690 1.368 . S
C694 C693 1.523 . S
H695 C670 0.950 . S
H696 C672 0.950 . S
H697 C673 0.949 . S
H698 C675 0.950 . S
H699 C677 0.950 . S
C700 C701 1.349 . S
C700 C702 1.327 . S
C700 H725 0.950 . S
C701 C700 1.349 . S
C701 C717 1.349 . S
C702 C700 1.327 . S
C702 C721 1.429 . S
C702 H726 0.950 . S
C703 C720 1.574 . S
C703 C722 1.368 . S
C703 H727 0.949 . S
H704 C708 0.949 . S
C705 C706 1.349 . S
C705 C707 1.327 . S
C705 H728 0.950 . S
C706 C705 1.349 . S
C706 C718 1.349 . S
C707 C705 1.327 . S
C707 C723 1.429 . S
C707 H729 0.950 . S
C708 H704 0.949 . S
C708 C716 1.574 . S
C708 C724 1.368 . S
H709 C717 0.950 . S
H710 C715 0.950 . S
H711 C716 0.949 . S
H712 C718 0.950 . S
H713 C719 0.950 . S
H714 C720 0.949 . S
C715 H710 0.950 . S
C715 C717 1.327 . S
C715 C721 1.429 . S
C716 C708 1.574 . S
C716 H711 0.949 . S
C716 C722 1.368 . S
C717 C701 1.349 . S
C717 H709 0.950 . S
C717 C715 1.327 . S
C718 C706 1.349 . S
C718 H712 0.950 . S
C718 C719 1.327 . S
C719 H713 0.950 . S
C719 C718 1.327 . S
C719 C723 1.429 . S
C720 C703 1.574 . S
C720 H714 0.949 . S
C720 C724 1.368 . S
C721 C702 1.429 . S
C721 C715 1.429 . S
C721 C722 1.523 . S
C722 C703 1.368 . S
C722 C716 1.368 . S
C722 C721 1.523 . S
C723 C707 1.429 . S
C723 C719 1.429 . S
C723 C724 1.523 . S
C724 C708 1.368 . S
C724 C720 1.368 . S
C724 C723 1.523 . S
H725 C700 0.950 . S
H726 C702 0.950 . S
H727 C703 0.949 . S
H728 C705 0.950 . S
H729 C707 0.950 . S
C730 C731 1.349 . S
C730 C732 1.327 . S
C730 H755 0.950 . S
C731 C730 1.349 . S
C731 C747 1.349 . S
C732 C730 1.327 . S
C732 C751 1.429 . S
C732 H756 0.950 . S
C733 C750 1.574 . S
C733 C752 1.368 . S
C733 H757 0.949 . S
H734 C738 0.949 . S
C735 C736 1.349 . S
C735 C737 1.327 . S
C735 H758 0.950 . S
C736 C735 1.349 . S
C736 C748 1.349 . S
C737 C735 1.327 . S
C737 C753 1.429 . S
C737 H759 0.950 . S
C738 H734 0.949 . S
C738 C746 1.574 . S
C738 C754 1.368 . S
H739 C747 0.950 . S
H740 C745 0.950 . S
H741 C746 0.949 . S
H742 C748 0.950 . S
H743 C749 0.950 . S
H744 C750 0.949 . S
C745 H740 0.950 . S
C745 C747 1.327 . S
C745 C751 1.429 . S
C746 C738 1.574 . S
C746 H741 0.949 . S
C746 C752 1.368 . S
C747 C731 1.349 . S
C747 H739 0.950 . S
C747 C745 1.327 . S
C748 C736 1.349 . S
C748 H742 0.950 . S
C748 C749 1.327 . S
C749 H743 0.950 . S
C749 C748 1.327 . S
C749 C753 1.429 . S
C750 C733 1.574 . S
C750 H744 0.949 . S
C750 C754 1.368 . S
C751 C732 1.429 . S
C751 C745 1.429 . S
C751 C752 1.523 . S
C752 C733 1.368 . S
C752 C746 1.368 . S
C752 C751 1.523 . S
C753 C737 1.429 . S
C753 C749 1.429 . S
C753 C754 1.523 . S
C754 C738 1.368 . S
C754 C750 1.368 . S
C754 C753 1.523 . S
H755 C730 0.950 . S
H756 C732 0.950 . S
H757 C733 0.949 . S
H758 C735 0.950 . S
H759 C737 0.950 . S
C760 C761 1.349 . S
C760 C762 1.327 . S
C760 H785 0.950 . S
C761 C760 1.349 . S
C761 C777 1.349 . S
C762 C760 1.327 . S
C762 C781 1.429 . S
C762 H786 0.950 . S
C763 C780 1.574 . S
C763 C782 1.368 . S
C763 H787 0.949 . S
H764 C768 0.949 . S
C765 C766 1.349 . S
C765 C767 1.327 . S
C765 H788 0.950 . S
C766 C765 1.349 . S
C766 C778 1.349 . S
C767 C765 1.327 . S
C767 C783 1.429 . S
C767 H789 0.950 . S
C768 H764 0.949 . S
C768 C776 1.574 . S
C768 C784 1.368 . S
H769 C777 0.950 . S
H770 C775 0.950 . S
H771 C776 0.949 . S
H772 C778 0.950 . S
H773 C779 0.950 . S
H774 C780 0.949 . S
C775 H770 0.950 . S
C775 C777 1.327 . S
C775 C781 1.429 . S
C776 C768 1.574 . S
C776 H771 0.949 . S
C776 C782 1.368 . S
C777 C761 1.349 . S
C777 H769 0.950 . S
C777 C775 1.327 . S
C778 C766 1.349 . S
C778 H772 0.950 . S
C778 C779 1.327 . S
C779 H773 0.950 . S
C779 C778 1.327 . S
C779 C783 1.429 . S
C780 C763 1.574 . S
C780 H774 0.949 . S
C780 C784 1.368 . S
C781 C762 1.429 . S
C781 C775 1.429 . S
C781 C782 1.523 . S
C782 C763 1.368 . S
C782 C776 1.368 . S
C782 C781 1.523 . S
C783 C767 1.429 . S
C783 C779 1.429 . S
C783 C784 1.523 . S
C784 C768 1.368 . S
C784 C780 1.368 . S
C784 C783 1.523 . S
H785 C760 0.950 . S
H786 C762 0.950 . S
H787 C763 0.949 . S
H788 C765 0.950 . S
H789 C767 0.950 . S
C790 C791 1.349 . S
C790 C792 1.327 . S
C790 H815 0.950 . S
C791 C790 1.349 . S
C791 C807 1.349 . S
C792 C790 1.327 . S
C792 C811 1.429 . S
C792 H816 0.950 . S
C793 C810 1.574 . S
C793 C812 1.368 . S
C793 H817 0.949 . S
H794 C798 0.949 . S
C795 C796 1.349 . S
C795 C797 1.327 . S
C795 H818 0.950 . S
C796 C795 1.349 . S
C796 C808 1.349 . S
C797 C795 1.327 . S
C797 C813 1.429 . S
C797 H819 0.950 . S
C798 H794 0.949 . S
C798 C806 1.574 . S
C798 C814 1.368 . S
H799 C807 0.950 . S
H800 C805 0.950 . S
H801 C806 0.949 . S
H802 C808 0.950 . S
H803 C809 0.950 . S
H804 C810 0.949 . S
C805 H800 0.950 . S
C805 C807 1.327 . S
C805 C811 1.429 . S
C806 C798 1.574 . S
C806 H801 0.949 . S
C806 C812 1.368 . S
C807 C791 1.349 . S
C807 H799 0.950 . S
C807 C805 1.327 . S
C808 C796 1.349 . S
C808 H802 0.950 . S
C808 C809 1.327 . S
C809 H803 0.950 . S
C809 C808 1.327 . S
C809 C813 1.429 . S
C810 C793 1.574 . S
C810 H804 0.949 . S
C810 C814 1.368 . S
C811 C792 1.429 . S
C811 C805 1.429 . S
C811 C812 1.523 . S
C812 C793 1.368 . S
C812 C806 1.368 . S
C812 C811 1.523 . S
C813 C797 1.429 . S
C813 C809 1.429 . S
C813 C814 1.523 . S
C814 C798 1.368 . S
C814 C810 1.368 . S
C814 C813 1.523 . S
H815 C790 0.950 . S
H816 C792 0.950 . S
H817 C793 0.949 . S
H818 C795 0.950 . S
H819 C797 0.950 . S
C820 C821 1.349 . S
C820 C822 1.327 . S
C820 H845 0.950 . S
C821 C820 1.349 . S
C821 C837 1.349 . S
C822 C820 1.327 . S
C822 C841 1.429 . S
C822 H846 0.950 . S
C823 C840 1.574 . S
C823 C842 1.368 . S
C823 H847 0.949 . S
H824 C828 0.949 . S
C825 C826 1.349 . S
C825 C827 1.327 . S
C825 H848 0.950 . S
C826 C825 1.349 . S
C826 C838 1.349 . S
C827 C825 1.327 . S
C827 C843 1.429 . S
C827 H849 0.950 . S
C828 H824 0.949 . S
C828 C836 1.574 . S
C828 C844 1.368 . S
H829 C837 0.950 . S
H830 C835 0.950 . S
H831 C836 0.949 . S
H832 C838 0.950 . S
H833 C839 0.950 . S
H834 C840 0.949 . S
C835 H830 0.950 . S
C835 C837 1.327 . S
C835 C841 1.429 . S
C836 C828 1.574 . S
C836 H831 0.949 . S
C836 C842 1.368 . S
C837 C821 1.349 . S
C837 H829 0.950 . S
C837 C835 1.327 . S
C838 C826 1.349 . S
C838 H832 0.950 . S
C838 C839 1.327 . S
C839 H833 0.950 . S
C839 C838 1.327 . S
C839 C843 1.429 . S
C840 C823 1.574 . S
C840 H834 0.949 . S
C840 C844 1.368 . S
C841 C822 1.429 . S
C841 C835 1.429 . S
C841 C842 1.523 . S
C842 C823 1.368 . S
C842 C836 1.368 . S
C842 C841 1.523 . S
C843 C827 1.429 . S
C843 C839 1.429 . S
C843 C844 1.523 . S
C844 C828 1.368 . S
C844 C840 1.368 . S
C844 C843 1.523 . S
H845 C820 0.950 . S
H846 C822 0.950 . S
H847 C823 0.949 . S
H848 C825 0.950 . S
H849 C827 0.950 . S
C850 C851 1.349 . S
C850 C852 1.327 . S
C850 H875 0.950 . S
C851 C850 1.349 . S
C851 C867 1.349 . S
C852 C850 1.327 . S
C852 C871 1.429 . S
C852 H876 0.950 . S
C853 C870 1.574 . S
C853 C872 1.368 . S
C853 H877 0.949 . S
H854 C858 0.949 . S
C855 C856 1.349 . S
C855 C857 1.327 . S
C855 H878 0.950 . S
C856 C855 1.349 . S
C856 C868 1.349 . S
C857 C855 1.327 . S
C857 C873 1.429 . S
C857 H879 0.950 . S
C858 H854 0.949 . S
C858 C866 1.574 . S
C858 C874 1.368 . S
H859 C867 0.950 . S
H860 C865 0.950 . S
H861 C866 0.949 . S
H862 C868 0.950 . S
H863 C869 0.950 . S
H864 C870 0.949 . S
C865 H860 0.950 . S
C865 C867 1.327 . S
C865 C871 1.429 . S
C866 C858 1.574 . S
C866 H861 0.949 . S
C866 C872 1.368 . S
C867 C851 1.349 . S
C867 H859 0.950 . S
C867 C865 1.327 . S
C868 C856 1.349 . S
C868 H862 0.950 . S
C868 C869 1.327 . S
C869 H863 0.950 . S
C869 C868 1.327 . S
C869 C873 1.429 . S
C870 C853 1.574 . S
C870 H864 0.949 . S
C870 C874 1.368 . S
C871 C852 1.429 . S
C871 C865 1.429 . S
C871 C872 1.523 . S
C872 C853 1.368 . S
C872 C866 1.368 . S
C872 C871 1.523 . S
C873 C857 1.429 . S
C873 C869 1.429 . S
C873 C874 1.523 . S
C874 C858 1.368 . S
C874 C870 1.368 . S
C874 C873 1.523 . S
H875 C850 0.950 . S
H876 C852 0.950 . S
H877 C853 0.949 . S
H878 C855 0.950 . S
H879 C857 0.950 . S
C880 C881 1.349 . S
C880 C882 1.327 . S
C880 H905 0.950 . S
C881 C880 1.349 . S
C881 C897 1.349 . S
C882 C880 1.327 . S
C882 C901 1.429 . S
C882 H906 0.950 . S
C883 C900 1.574 1_565 S
C883 C902 1.368 . S
C883 H907 0.949 . S
H884 C888 0.949 . S
C885 C886 1.349 . S
C885 C887 1.327 . S
C885 H908 0.950 . S
C886 C885 1.349 . S
C886 C898 1.349 . S
C887 C885 1.327 . S
C887 C903 1.429 . S
C887 H909 0.950 . S
C888 H884 0.949 . S
C888 C896 1.574 1_545 S
C888 C904 1.368 . S
H889 C897 0.950 . S
H890 C895 0.950 . S
H891 C896 0.949 . S
H892 C898 0.950 . S
H893 C899 0.950 . S
H894 C900 0.949 . S
C895 H890 0.950 . S
C895 C897 1.327 . S
C895 C901 1.429 . S
C896 C888 1.574 1_565 S
C896 H891 0.949 . S
C896 C902 1.368 . S
C897 C881 1.349 . S
C897 H889 0.950 . S
C897 C895 1.327 . S
C898 C886 1.349 . S
C898 H892 0.950 . S
C898 C899 1.327 . S
C899 H893 0.950 . S
C899 C898 1.327 . S
C899 C903 1.429 . S
C900 C883 1.574 1_545 S
C900 H894 0.949 . S
C900 C904 1.368 . S
C901 C882 1.429 . S
C901 C895 1.429 . S
C901 C902 1.523 . S
C902 C883 1.368 . S
C902 C896 1.368 . S
C902 C901 1.523 . S
C903 C887 1.429 . S
C903 C899 1.429 . S
C903 C904 1.523 . S
C904 C888 1.368 . S
C904 C900 1.368 . S
C904 C903 1.523 . S
H905 C880 0.950 . S
H906 C882 0.950 . S
H907 C883 0.949 . S
H908 C885 0.950 . S
H909 C887 0.950 . S
C910 C911 1.349 . S
C910 C912 1.327 . S
C910 H935 0.950 . S
C911 C910 1.349 . S
C911 C927 1.349 . S
C912 C910 1.327 . S
C912 C931 1.429 . S
C912 H936 0.950 . S
C913 C930 1.574 . S
C913 C932 1.368 . S
C913 H937 0.949 . S
H914 C918 0.949 . S
C915 C916 1.349 . S
C915 C917 1.327 . S
C915 H938 0.950 . S
C916 C915 1.349 . S
C916 C928 1.349 . S
C917 C915 1.327 . S
C917 C933 1.429 . S
C917 H939 0.950 . S
C918 H914 0.949 . S
C918 C926 1.574 . S
C918 C934 1.368 . S
H919 C927 0.950 . S
H920 C925 0.950 . S
H921 C926 0.949 . S
H922 C928 0.950 . S
H923 C929 0.950 . S
H924 C930 0.949 . S
C925 H920 0.950 . S
C925 C927 1.327 . S
C925 C931 1.429 . S
C926 C918 1.574 . S
C926 H921 0.949 . S
C926 C932 1.368 1_565 S
C927 C911 1.349 . S
C927 H919 0.950 . S
C927 C925 1.327 . S
C928 C916 1.349 . S
C928 H922 0.950 . S
C928 C929 1.327 . S
C929 H923 0.950 . S
C929 C928 1.327 . S
C929 C933 1.429 . S
C930 C913 1.574 . S
C930 H924 0.949 . S
C930 C934 1.368 1_545 S
C931 C912 1.429 . S
C931 C925 1.429 . S
C931 C932 1.523 . S
C932 C913 1.368 . S
C932 C926 1.368 1_545 S
C932 C931 1.523 . S
C933 C917 1.429 . S
C933 C929 1.429 . S
C933 C934 1.523 . S
C934 C918 1.368 . S
C934 C930 1.368 1_565 S
C934 C933 1.523 . S
H935 C910 0.950 . S
H936 C912 0.950 . S
H937 C913 0.949 . S
H938 C915 0.950 . S
H939 C917 0.950 . S
C940 C941 1.349 . S
C940 C942 1.327 . S
C940 H965 0.950 . S
C941 C940 1.349 . S
C941 C957 1.349 . S
C942 C940 1.327 . S
C942 C961 1.429 . S
C942 H966 0.950 . S
C943 C960 1.574 . S
C943 C962 1.368 1_565 S
C943 H967 0.949 . S
H944 C948 0.949 . S
C945 C946 1.349 . S
C945 C947 1.327 . S
C945 H968 0.950 . S
C946 C945 1.349 . S
C946 C958 1.349 . S
C947 C945 1.327 . S
C947 C963 1.429 . S
C947 H969 0.950 . S
C948 H944 0.949 . S
C948 C956 1.574 . S
C948 C964 1.368 1_545 S
H949 C957 0.950 . S
H950 C955 0.950 . S
H951 C956 0.949 . S
H952 C958 0.950 . S
H953 C959 0.950 . S
H954 C960 0.949 . S
C955 H950 0.950 . S
C955 C957 1.327 . S
C955 C961 1.429 . S
C956 C948 1.574 . S
C956 H951 0.949 . S
C956 C962 1.368 . S
C957 C941 1.349 . S
C957 H949 0.950 . S
C957 C955 1.327 . S
C958 C946 1.349 . S
C958 H952 0.950 . S
C958 C959 1.327 . S
C959 H953 0.950 . S
C959 C958 1.327 . S
C959 C963 1.429 . S
C960 C943 1.574 . S
C960 H954 0.949 . S
C960 C964 1.368 . S
C961 C942 1.429 . S
C961 C955 1.429 . S
C961 C962 1.523 . S
C962 C943 1.368 1_545 S
C962 C956 1.368 . S
C962 C961 1.523 . S
C963 C947 1.429 . S
C963 C959 1.429 . S
C963 C964 1.523 . S
C964 C948 1.368 1_565 S
C964 C960 1.368 . S
C964 C963 1.523 . S
H965 C940 0.950 . S
H966 C942 0.950 . S
H967 C943 0.949 . S
H968 C945 0.950 . S
H969 C947 0.950 . S
C970 C971 1.349 . S
C970 C972 1.327 . S
C970 H995 0.950 . S
C971 C970 1.349 . S
C971 C987 1.349 . S
C972 C970 1.327 . S
C972 C991 1.429 . S
C972 H996 0.950 . S
C973 C990 1.574 . S
C973 C992 1.368 1_565 S
C973 H997 0.949 . S
H974 C978 0.949 . S
C975 C976 1.349 . S
C975 C977 1.327 . S
C975 H998 0.950 . S
C976 C975 1.349 . S
C976 C988 1.349 . S
C977 C975 1.327 . S
C977 C993 1.429 . S
C977 H999 0.950 . S
C978 H974 0.949 . S
C978 C986 1.574 . S
C978 C994 1.368 1_545 S
H979 C987 0.950 . S
H980 C985 0.950 1_565 S
H981 C986 0.949 . S
H982 C988 0.950 . S
H983 C989 0.950 1_545 S
H984 C990 0.949 . S
C985 H980 0.950 1_545 S
C985 C987 1.327 . S
C985 C991 1.429 . S
C986 C978 1.574 . S
C986 H981 0.949 . S
C986 C992 1.368 . S
C987 C971 1.349 . S
C987 H979 0.950 . S
C987 C985 1.327 . S
C988 C976 1.349 . S
C988 H982 0.950 . S
C988 C989 1.327 . S
C989 H983 0.950 1_565 S
C989 C988 1.327 . S
C989 C993 1.429 . S
C990 C973 1.574 . S
C990 H984 0.949 . S
C990 C994 1.368 . S
C991 C972 1.429 . S
C991 C985 1.429 . S
C991 C992 1.523 . S
C992 C973 1.368 1_545 S
C992 C986 1.368 . S
C992 C991 1.523 . S
C993 C977 1.429 . S
C993 C989 1.429 . S
C993 C994 1.523 . S
C994 C978 1.368 1_565 S
C994 C990 1.368 . S
C994 C993 1.523 . S
H995 C970 0.950 . S
H996 C972 0.950 . S
H997 C973 0.949 . S
H998 C975 0.950 . S
H999 C977 0.950 . S
C1000 C1001 1.349 . S
C1000 C1002 1.327 . S
C1000 H1025 0.950 . S
C1001 C1000 1.349 . S
C1001 C1017 1.349 . S
C1002 C1000 1.327 . S
C1002 C1021 1.429 . S
C1002 H1026 0.950 . S
C1003 C1020 1.574 . S
C1003 C1022 1.368 . S
C1003 H1027 0.949 . S
H1004 C1008 0.949 . S
C1005 C1006 1.349 . S
C1005 C1007 1.327 . S
C1005 H1028 0.950 . S
C1006 C1005 1.349 . S
C1006 C1018 1.349 . S
C1007 C1005 1.327 . S
C1007 C1023 1.429 . S
C1007 H1029 0.950 . S
C1008 H1004 0.949 . S
C1008 C1016 1.574 . S
C1008 C1024 1.368 . S
H1009 C1017 0.950 . S
H1010 C1015 0.950 . S
H1011 C1016 0.949 . S
H1012 C1018 0.950 . S
H1013 C1019 0.950 . S
H1014 C1020 0.949 . S
C1015 H1010 0.950 . S
C1015 C1017 1.327 . S
C1015 C1021 1.429 . S
C1016 C1008 1.574 . S
C1016 H1011 0.949 . S
C1016 C1022 1.368 . S
C1017 C1001 1.349 . S
C1017 H1009 0.950 . S
C1017 C1015 1.327 . S
C1018 C1006 1.349 . S
C1018 H1012 0.950 . S
C1018 C1019 1.327 . S
C1019 H1013 0.950 . S
C1019 C1018 1.327 . S
C1019 C1023 1.429 . S
C1020 C1003 1.574 . S
C1020 H1014 0.949 . S
C1020 C1024 1.368 . S
C1021 C1002 1.429 . S
C1021 C1015 1.429 . S
C1021 C1022 1.523 . S
C1022 C1003 1.368 . S
C1022 C1016 1.368 . S
C1022 C1021 1.523 . S
C1023 C1007 1.429 . S
C1023 C1019 1.429 . S
C1023 C1024 1.523 . S
C1024 C1008 1.368 . S
C1024 C1020 1.368 . S
C1024 C1023 1.523 . S
H1025 C1000 0.950 . S
H1026 C1002 0.950 . S
H1027 C1003 0.949 . S
H1028 C1005 0.950 . S
H1029 C1007 0.950 . S
C1030 C1031 1.349 . S
C1030 C1032 1.327 . S
C1030 H1055 0.950 . S
C1031 C1030 1.349 . S
C1031 C1047 1.349 . S
C1032 C1030 1.327 . S
C1032 C1051 1.429 . S
C1032 H1056 0.950 . S
C1033 C1050 1.574 . S
C1033 C1052 1.368 . S
C1033 H1057 0.949 . S
H1034 C1038 0.949 . S
C1035 C1036 1.349 . S
C1035 C1037 1.327 . S
C1035 H1058 0.950 . S
C1036 C1035 1.349 . S
C1036 C1048 1.349 . S
C1037 C1035 1.327 . S
C1037 C1053 1.429 . S
C1037 H1059 0.950 . S
C1038 H1034 0.949 . S
C1038 C1046 1.574 . S
C1038 C1054 1.368 . S
H1039 C1047 0.950 . S
H1040 C1045 0.950 . S
H1041 C1046 0.949 . S
H1042 C1048 0.950 . S
H1043 C1049 0.950 . S
H1044 C1050 0.949 . S
C1045 H1040 0.950 . S
C1045 C1047 1.327 . S
C1045 C1051 1.429 . S
C1046 C1038 1.574 . S
C1046 H1041 0.949 . S
C1046 C1052 1.368 . S
C1047 C1031 1.349 . S
C1047 H1039 0.950 . S
C1047 C1045 1.327 . S
C1048 C1036 1.349 . S
C1048 H1042 0.950 . S
C1048 C1049 1.327 . S
C1049 H1043 0.950 . S
C1049 C1048 1.327 . S
C1049 C1053 1.429 . S
C1050 C1033 1.574 . S
C1050 H1044 0.949 . S
C1050 C1054 1.368 . S
C1051 C1032 1.429 . S
C1051 C1045 1.429 . S
C1051 C1052 1.523 . S
C1052 C1033 1.368 . S
C1052 C1046 1.368 . S
C1052 C1051 1.523 . S
C1053 C1037 1.429 . S
C1053 C1049 1.429 . S
C1053 C1054 1.523 . S
C1054 C1038 1.368 . S
C1054 C1050 1.368 . S
C1054 C1053 1.523 . S
H1055 C1030 0.950 . S
H1056 C1032 0.950 . S
H1057 C1033 0.949 . S
H1058 C1035 0.950 . S
H1059 C1037 0.950 . S
C1060 C1061 1.349 . S
C1060 C1062 1.327 . S
C1060 H1085 0.950 . S
C1061 C1060 1.349 . S
C1061 C1077 1.349 . S
C1062 C1060 1.327 . S
C1062 C1081 1.429 . S
C1062 H1086 0.950 . S
C1063 C1080 1.574 . S
C1063 C1082 1.368 . S
C1063 H1087 0.949 . S
H1064 C1068 0.949 . S
C1065 C1066 1.349 . S
C1065 C1067 1.327 . S
C1065 H1088 0.950 . S
C1066 C1065 1.349 . S
C1066 C1078 1.349 . S
C1067 C1065 1.327 . S
C1067 C1083 1.429 . S
C1067 H1089 0.950 . S
C1068 H1064 0.949 . S
C1068 C1076 1.574 . S
C1068 C1084 1.368 . S
H1069 C1077 0.950 . S
H1070 C1075 0.950 . S
H1071 C1076 0.949 . S
H1072 C1078 0.950 . S
H1073 C1079 0.950 . S
H1074 C1080 0.949 . S
C1075 H1070 0.950 . S
C1075 C1077 1.327 . S
C1075 C1081 1.429 . S
C1076 C1068 1.574 . S
C1076 H1071 0.949 . S
C1076 C1082 1.368 . S
C1077 C1061 1.349 . S
C1077 H1069 0.950 . S
C1077 C1075 1.327 . S
C1078 C1066 1.349 . S
C1078 H1072 0.950 . S
C1078 C1079 1.327 . S
C1079 H1073 0.950 . S
C1079 C1078 1.327 . S
C1079 C1083 1.429 . S
C1080 C1063 1.574 . S
C1080 H1074 0.949 . S
C1080 C1084 1.368 . S
C1081 C1062 1.429 . S
C1081 C1075 1.429 . S
C1081 C1082 1.523 . S
C1082 C1063 1.368 . S
C1082 C1076 1.368 . S
C1082 C1081 1.523 . S
C1083 C1067 1.429 . S
C1083 C1079 1.429 . S
C1083 C1084 1.523 . S
C1084 C1068 1.368 . S
C1084 C1080 1.368 . S
C1084 C1083 1.523 . S
H1085 C1060 0.950 . S
H1086 C1062 0.950 . S
H1087 C1063 0.949 . S
H1088 C1065 0.950 . S
H1089 C1067 0.950 . S
C1090 C1091 1.349 . S
C1090 C1092 1.327 . S
C1090 H1115 0.950 . S
C1091 C1090 1.349 . S
C1091 C1107 1.349 . S
C1092 C1090 1.327 . S
C1092 C1111 1.429 . S
C1092 H1116 0.950 . S
C1093 C1110 1.574 . S
C1093 C1112 1.368 . S
C1093 H1117 0.949 . S
H1094 C1098 0.949 . S
C1095 C1096 1.349 . S
C1095 C1097 1.327 . S
C1095 H1118 0.950 . S
C1096 C1095 1.349 . S
C1096 C1108 1.349 . S
C1097 C1095 1.327 . S
C1097 C1113 1.429 . S
C1097 H1119 0.950 . S
C1098 H1094 0.949 . S
C1098 C1106 1.574 . S
C1098 C1114 1.368 . S
H1099 C1107 0.950 . S
H1100 C1105 0.950 . S
H1101 C1106 0.949 . S
H1102 C1108 0.950 . S
H1103 C1109 0.950 . S
H1104 C1110 0.949 . S
C1105 H1100 0.950 . S
C1105 C1107 1.327 . S
C1105 C1111 1.429 . S
C1106 C1098 1.574 . S
C1106 H1101 0.949 . S
C1106 C1112 1.368 . S
C1107 C1091 1.349 . S
C1107 H1099 0.950 . S
C1107 C1105 1.327 . S
C1108 C1096 1.349 . S
C1108 H1102 0.950 . S
C1108 C1109 1.327 . S
C1109 H1103 0.950 . S
C1109 C1108 1.327 . S
C1109 C1113 1.429 . S
C1110 C1093 1.574 . S
C1110 H1104 0.949 . S
C1110 C1114 1.368 . S
C1111 C1092 1.429 . S
C1111 C1105 1.429 . S
C1111 C1112 1.523 . S
C1112 C1093 1.368 . S
C1112 C1106 1.368 . S
C1112 C1111 1.523 . S
C1113 C1097 1.429 . S
C1113 C1109 1.429 . S
C1113 C1114 1.523 . S
C1114 C1098 1.368 . S
C1114 C1110 1.368 . S
C1114 C1113 1.523 . S
H1115 C1090 0.950 . S
H1116 C1092 0.950 . S
H1117 C1093 0.949 . S
H1118 C1095 0.950 . S
H1119 C1097 0.950 . S
C1120 C1121 1.349 . S
C1120 C1122 1.327 . S
C1120 H1145 0.950 . S
C1121 C1120 1.349 . S
C1121 C1137 1.349 . S
C1122 C1120 1.327 . S
C1122 C1141 1.429 . S
C1122 H1146 0.950 . S
C1123 C1140 1.574 1_556 S
C1123 C1142 1.368 . S
C1123 H1147 0.949 . S
H1124 C1128 0.949 . S
C1125 C1126 1.349 . S
C1125 C1127 1.327 . S
C1125 H1148 0.950 . S
C1126 C1125 1.349 . S
C1126 C1138 1.349 . S
C1127 C1125 1.327 . S
C1127 C1143 1.429 . S
C1127 H1149 0.950 . S
C1128 H1124 0.949 . S
C1128 C1136 1.574 1_554 S
C1128 C1144 1.368 . S
H1129 C1137 0.950 . S
H1130 C1135 0.950 . S
H1131 C1136 0.949 . S
H1132 C1138 0.950 . S
H1133 C1139 0.950 . S
H1134 C1140 0.949 . S
C1135 H1130 0.950 . S
C1135 C1137 1.327 . S
C1135 C1141 1.429 . S
C1136 C1128 1.574 1_556 S
C1136 H1131 0.949 . S
C1136 C1142 1.368 . S
C1137 C1121 1.349 . S
C1137 H1129 0.950 . S
C1137 C1135 1.327 . S
C1138 C1126 1.349 . S
C1138 H1132 0.950 . S
C1138 C1139 1.327 . S
C1139 H1133 0.950 . S
C1139 C1138 1.327 . S
C1139 C1143 1.429 . S
C1140 C1123 1.574 1_554 S
C1140 H1134 0.949 . S
C1140 C1144 1.368 . S
C1141 C1122 1.429 . S
C1141 C1135 1.429 . S
C1141 C1142 1.523 . S
C1142 C1123 1.368 . S
C1142 C1136 1.368 . S
C1142 C1141 1.523 . S
C1143 C1127 1.429 . S
C1143 C1139 1.429 . S
C1143 C1144 1.523 . S
C1144 C1128 1.368 . S
C1144 C1140 1.368 . S
C1144 C1143 1.523 . S
H1145 C1120 0.950 . S
H1146 C1122 0.950 . S
H1147 C1123 0.949 . S
H1148 C1125 0.950 . S
H1149 C1127 0.950 . S
C1150 C1151 1.349 . S
C1150 C1152 1.327 . S
C1150 H1175 0.950 . S
C1151 C1150 1.349 . S
C1151 C1167 1.349 . S
C1152 C1150 1.327 . S
C1152 C1171 1.429 . S
C1152 H1176 0.950 . S
C1153 C1170 1.574 1_556 S
C1153 C1172 1.368 . S
C1153 H1177 0.949 . S
H1154 C1158 0.949 . S
C1155 C1156 1.349 . S
C1155 C1157 1.327 . S
C1155 H1178 0.950 . S
C1156 C1155 1.349 . S
C1156 C1168 1.349 . S
C1157 C1155 1.327 . S
C1157 C1173 1.429 . S
C1157 H1179 0.950 . S
C1158 H1154 0.949 . S
C1158 C1166 1.574 1_554 S
C1158 C1174 1.368 . S
H1159 C1167 0.950 . S
H1160 C1165 0.950 . S
H1161 C1166 0.949 . S
H1162 C1168 0.950 . S
H1163 C1169 0.950 . S
H1164 C1170 0.949 . S
C1165 H1160 0.950 . S
C1165 C1167 1.327 . S
C1165 C1171 1.429 . S
C1166 C1158 1.574 1_556 S
C1166 H1161 0.949 . S
C1166 C1172 1.368 . S
C1167 C1151 1.349 . S
C1167 H1159 0.950 . S
C1167 C1165 1.327 . S
C1168 C1156 1.349 . S
C1168 H1162 0.950 . S
C1168 C1169 1.327 . S
C1169 H1163 0.950 . S
C1169 C1168 1.327 . S
C1169 C1173 1.429 . S
C1170 C1153 1.574 1_554 S
C1170 H1164 0.949 . S
C1170 C1174 1.368 . S
C1171 C1152 1.429 . S
C1171 C1165 1.429 . S
C1171 C1172 1.523 . S
C1172 C1153 1.368 . S
C1172 C1166 1.368 . S
C1172 C1171 1.523 . S
C1173 C1157 1.429 . S
C1173 C1169 1.429 . S
C1173 C1174 1.523 . S
C1174 C1158 1.368 . S
C1174 C1170 1.368 . S
C1174 C1173 1.523 . S
H1175 C1150 0.950 . S
H1176 C1152 0.950 . S
H1177 C1153 0.949 . S
H1178 C1155 0.950 . S
H1179 C1157 0.950 . S
C1180 C1181 1.349 . S
C1180 C1182 1.327 . S
C1180 H1205 0.950 . S
C1181 C1180 1.349 . S
C1181 C1197 1.349 . S
C1182 C1180 1.327 . S
C1182 C1201 1.429 . S
C1182 H1206 0.950 . S
C1183 C1200 1.574 . S
C1183 C1202 1.368 . S
C1183 H1207 0.949 . S
H1184 C1188 0.949 . S
C1185 C1186 1.349 . S
C1185 C1187 1.327 . S
C1185 H1208 0.950 . S
C1186 C1185 1.349 . S
C1186 C1198 1.349 . S
C1187 C1185 1.327 . S
C1187 C1203 1.429 . S
C1187 H1209 0.950 . S
C1188 H1184 0.949 . S
C1188 C1196 1.574 . S
C1188 C1204 1.368 . S
H1189 C1197 0.950 . S
H1190 C1195 0.950 . S
H1191 C1196 0.949 . S
H1192 C1198 0.950 . S
H1193 C1199 0.950 . S
H1194 C1200 0.949 . S
C1195 H1190 0.950 . S
C1195 C1197 1.327 . S
C1195 C1201 1.429 . S
C1196 C1188 1.574 . S
C1196 H1191 0.949 . S
C1196 C1202 1.368 . S
C1197 C1181 1.349 . S
C1197 H1189 0.950 . S
C1197 C1195 1.327 . S
C1198 C1186 1.349 . S
C1198 H1192 0.950 . S
C1198 C1199 1.327 . S
C1199 H1193 0.950 . S
C1199 C1198 1.327 . S
C1199 C1203 1.429 . S
C1200 C1183 1.574 . S
C1200 H1194 0.949 . S
C1200 C1204 1.368 . S
C1201 C1182 1.429 . S
C1201 C1195 1.429 . S
C1201 C1202 1.523 . S
C1202 C1183 1.368 . S
C1202 C1196 1.368 . S
C1202 C1201 1.523 . S
C1203 C1187 1.429 . S
C1203 C1199 1.429 . S
C1203 C1204 1.523 . S
C1204 C1188 1.368 . S
C1204 C1200 1.368 . S
C1204 C1203 1.523 . S
H1205 C1180 0.950 . S
H1206 C1182 0.950 . S
H1207 C1183 0.949 . S
H1208 C1185 0.950 . S
H1209 C1187 0.950 . S
C1210 C1211 1.349 . S
C1210 C1212 1.327 . S
C1210 H1235 0.950 . S
C1211 C1210 1.349 . S
C1211 C1227 1.349 . S
C1212 C1210 1.327 . S
C1212 C1231 1.429 . S
C1212 H1236 0.950 . S
C1213 C1230 1.574 . S
C1213 C1232 1.368 . S
C1213 H1237 0.949 . S
H1214 C1218 0.949 . S
C1215 C1216 1.349 . S
C1215 C1217 1.327 . S
C1215 H1238 0.950 . S
C1216 C1215 1.349 . S
C1216 C1228 1.349 . S
C1217 C1215 1.327 . S
C1217 C1233 1.429 . S
C1217 H1239 0.950 . S
C1218 H1214 0.949 . S
C1218 C1226 1.574 . S
C1218 C1234 1.368 . S
H1219 C1227 0.950 . S
H1220 C1225 0.950 . S
H1221 C1226 0.949 . S
H1222 C1228 0.950 . S
H1223 C1229 0.950 . S
H1224 C1230 0.949 . S
C1225 H1220 0.950 . S
C1225 C1227 1.327 . S
C1225 C1231 1.429 . S
C1226 C1218 1.574 . S
C1226 H1221 0.949 . S
C1226 C1232 1.368 . S
C1227 C1211 1.349 . S
C1227 H1219 0.950 . S
C1227 C1225 1.327 . S
C1228 C1216 1.349 . S
C1228 H1222 0.950 . S
C1228 C1229 1.327 . S
C1229 H1223 0.950 . S
C1229 C1228 1.327 . S
C1229 C1233 1.429 . S
C1230 C1213 1.574 . S
C1230 H1224 0.949 . S
C1230 C1234 1.368 . S
C1231 C1212 1.429 . S
C1231 C1225 1.429 . S
C1231 C1232 1.523 . S
C1232 C1213 1.368 . S
C1232 C1226 1.368 . S
C1232 C1231 1.523 . S
C1233 C1217 1.429 . S
C1233 C1229 1.429 . S
C1233 C1234 1.523 . S
C1234 C1218 1.368 . S
C1234 C1230 1.368 . S
C1234 C1233 1.523 . S
H1235 C1210 0.950 . S
H1236 C1212 0.950 . S
H1237 C1213 0.949 . S
H1238 C1215 0.950 . S
H1239 C1217 0.950 . S
C1240 C1241 1.349 . S
C1240 C1242 1.327 . S
C1240 H1265 0.950 . S
C1241 C1240 1.349 . S
C1241 C1257 1.349 . S
C1242 C1240 1.327 . S
C1242 C1261 1.429 . S
C1242 H1266 0.950 . S
C1243 C1260 1.574 1_554 S
C1243 C1262 1.368 . S
C1243 H1267 0.949 . S
H1244 C1248 0.949 . S
C1245 C1246 1.349 . S
C1245 C1247 1.327 . S
C1245 H1268 0.950 . S
C1246 C1245 1.349 . S
C1246 C1258 1.349 . S
C1247 C1245 1.327 . S
C1247 C1263 1.429 . S
C1247 H1269 0.950 . S
C1248 H1244 0.949 . S
C1248 C1256 1.574 1_556 S
C1248 C1264 1.368 . S
H1249 C1257 0.950 . S
H1250 C1255 0.950 . S
H1251 C1256 0.949 . S
H1252 C1258 0.950 . S
H1253 C1259 0.950 . S
H1254 C1260 0.949 . S
C1255 H1250 0.950 . S
C1255 C1257 1.327 . S
C1255 C1261 1.429 . S
C1256 C1248 1.574 1_554 S
C1256 H1251 0.949 . S
C1256 C1262 1.368 . S
C1257 C1241 1.349 . S
C1257 H1249 0.950 . S
C1257 C1255 1.327 . S
C1258 C1246 1.349 . S
C1258 H1252 0.950 . S
C1258 C1259 1.327 . S
C1259 H1253 0.950 . S
C1259 C1258 1.327 . S
C1259 C1263 1.429 . S
C1260 C1243 1.574 1_556 S
C1260 H1254 0.949 . S
C1260 C1264 1.368 . S
C1261 C1242 1.429 . S
C1261 C1255 1.429 . S
C1261 C1262 1.523 . S
C1262 C1243 1.368 . S
C1262 C1256 1.368 . S
C1262 C1261 1.523 . S
C1263 C1247 1.429 . S
C1263 C1259 1.429 . S
C1263 C1264 1.523 . S
C1264 C1248 1.368 . S
C1264 C1260 1.368 . S
C1264 C1263 1.523 . S
H1265 C1240 0.950 . S
H1266 C1242 0.950 . S
H1267 C1243 0.949 . S
H1268 C1245 0.950 . S
H1269 C1247 0.950 . S
C1270 C1271 1.349 . S
C1270 C1272 1.327 . S
C1270 H1295 0.950 . S
C1271 C1270 1.349 . S
C1271 C1287 1.349 . S
C1272 C1270 1.327 . S
C1272 C1291 1.429 . S
C1272 H1296 0.950 . S
C1273 C1290 1.574 1_556 S
C1273 C1292 1.368 . S
C1273 H1297 0.949 . S
H1274 C1278 0.949 . S
C1275 C1276 1.349 . S
C1275 C1277 1.327 . S
C1275 H1298 0.950 . S
C1276 C1275 1.349 . S
C1276 C1288 1.349 . S
C1277 C1275 1.327 . S
C1277 C1293 1.429 . S
C1277 H1299 0.950 . S
C1278 H1274 0.949 . S
C1278 C1286 1.574 1_554 S
C1278 C1294 1.368 . S
H1279 C1287 0.950 . S
H1280 C1285 0.950 . S
H1281 C1286 0.949 . S
H1282 C1288 0.950 . S
H1283 C1289 0.950 . S
H1284 C1290 0.949 . S
C1285 H1280 0.950 . S
C1285 C1287 1.327 . S
C1285 C1291 1.429 . S
C1286 C1278 1.574 1_556 S
C1286 H1281 0.949 . S
C1286 C1292 1.368 . S
C1287 C1271 1.349 . S
C1287 H1279 0.950 . S
C1287 C1285 1.327 . S
C1288 C1276 1.349 . S
C1288 H1282 0.950 . S
C1288 C1289 1.327 . S
C1289 H1283 0.950 . S
C1289 C1288 1.327 . S
C1289 C1293 1.429 . S
C1290 C1273 1.574 1_554 S
C1290 H1284 0.949 . S
C1290 C1294 1.368 . S
C1291 C1272 1.429 . S
C1291 C1285 1.429 . S
C1291 C1292 1.523 . S
C1292 C1273 1.368 . S
C1292 C1286 1.368 . S
C1292 C1291 1.523 . S
C1293 C1277 1.429 . S
C1293 C1289 1.429 . S
C1293 C1294 1.523 . S
C1294 C1278 1.368 . S
C1294 C1290 1.368 . S
C1294 C1293 1.523 . S
H1295 C1270 0.950 . S
H1296 C1272 0.950 . S
H1297 C1273 0.949 . S
H1298 C1275 0.950 . S
H1299 C1277 0.950 . S
C1300 C1301 1.349 . S
C1300 C1302 1.327 . S
C1300 H1325 0.950 . S
C1301 C1300 1.349 . S
C1301 C1317 1.349 . S
C1302 C1300 1.327 . S
C1302 C1321 1.429 . S
C1302 H1326 0.950 . S
C1303 C1320 1.574 . S
C1303 C1322 1.368 . S
C1303 H1327 0.949 . S
H1304 C1308 0.949 . S
C1305 C1306 1.349 . S
C1305 C1307 1.327 . S
C1305 H1328 0.950 . S
C1306 C1305 1.349 . S
C1306 C1318 1.349 . S
C1307 C1305 1.327 . S
C1307 C1323 1.429 . S
C1307 H1329 0.950 . S
C1308 H1304 0.949 . S
C1308 C1316 1.574 . S
C1308 C1324 1.368 . S
H1309 C1317 0.950 . S
H1310 C1315 0.950 . S
H1311 C1316 0.949 . S
H1312 C1318 0.950 . S
H1313 C1319 0.950 . S
H1314 C1320 0.949 . S
C1315 H1310 0.950 . S
C1315 C1317 1.327 . S
C1315 C1321 1.429 . S
C1316 C1308 1.574 . S
C1316 H1311 0.949 . S
C1316 C1322 1.368 . S
C1317 C1301 1.349 . S
C1317 H1309 0.950 . S
C1317 C1315 1.327 . S
C1318 C1306 1.349 . S
C1318 H1312 0.950 . S
C1318 C1319 1.327 . S
C1319 H1313 0.950 . S
C1319 C1318 1.327 . S
C1319 C1323 1.429 . S
C1320 C1303 1.574 . S
C1320 H1314 0.949 . S
C1320 C1324 1.368 . S
C1321 C1302 1.429 . S
C1321 C1315 1.429 . S
C1321 C1322 1.523 . S
C1322 C1303 1.368 . S
C1322 C1316 1.368 . S
C1322 C1321 1.523 . S
C1323 C1307 1.429 . S
C1323 C1319 1.429 . S
C1323 C1324 1.523 . S
C1324 C1308 1.368 . S
C1324 C1320 1.368 . S
C1324 C1323 1.523 . S
H1325 C1300 0.950 . S
H1326 C1302 0.950 . S
H1327 C1303 0.949 . S
H1328 C1305 0.950 . S
H1329 C1307 0.950 . S
C1330 C1331 1.349 . S
C1330 C1332 1.327 . S
C1330 H1355 0.950 . S
C1331 C1330 1.349 . S
C1331 C1347 1.349 . S
C1332 C1330 1.327 . S
C1332 C1351 1.429 . S
C1332 H1356 0.950 . S
C1333 C1350 1.574 . S
C1333 C1352 1.368 . S
C1333 H1357 0.949 . S
H1334 C1338 0.949 . S
C1335 C1336 1.349 . S
C1335 C1337 1.327 . S
C1335 H1358 0.950 . S
C1336 C1335 1.349 . S
C1336 C1348 1.349 . S
C1337 C1335 1.327 . S
C1337 C1353 1.429 . S
C1337 H1359 0.950 . S
C1338 H1334 0.949 . S
C1338 C1346 1.574 . S
C1338 C1354 1.368 . S
H1339 C1347 0.950 . S
H1340 C1345 0.950 . S
H1341 C1346 0.949 . S
H1342 C1348 0.950 . S
H1343 C1349 0.950 . S
H1344 C1350 0.949 . S
C1345 H1340 0.950 . S
C1345 C1347 1.327 . S
C1345 C1351 1.429 . S
C1346 C1338 1.574 . S
C1346 H1341 0.949 . S
C1346 C1352 1.368 . S
C1347 C1331 1.349 . S
C1347 H1339 0.950 . S
C1347 C1345 1.327 . S
C1348 C1336 1.349 . S
C1348 H1342 0.950 . S
C1348 C1349 1.327 . S
C1349 H1343 0.950 . S
C1349 C1348 1.327 . S
C1349 C1353 1.429 . S
C1350 C1333 1.574 . S
C1350 H1344 0.949 . S
C1350 C1354 1.368 . S
C1351 C1332 1.429 . S
C1351 C1345 1.429 . S
C1351 C1352 1.523 . S
C1352 C1333 1.368 . S
C1352 C1346 1.368 . S
C1352 C1351 1.523 . S
C1353 C1337 1.429 . S
C1353 C1349 1.429 . S
C1353 C1354 1.523 . S
C1354 C1338 1.368 . S
C1354 C1350 1.368 . S
C1354 C1353 1.523 . S
H1355 C1330 0.950 . S
H1356 C1332 0.950 . S
H1357 C1333 0.949 . S
H1358 C1335 0.950 . S
H1359 C1337 0.950 . S
C1360 C1361 1.349 . S
C1360 C1362 1.327 . S
C1360 H1385 0.950 . S
C1361 C1360 1.349 . S
C1361 C1377 1.349 . S
C1362 C1360 1.327 . S
C1362 C1381 1.429 . S
C1362 H1386 0.950 . S
C1363 C1380 1.574 1_655 S
C1363 C1382 1.368 1_545 S
C1363 H1387 0.949 . S
H1364 C1368 0.949 . S
C1365 C1366 1.349 . S
C1365 C1367 1.327 . S
C1365 H1388 0.950 . S
C1366 C1365 1.349 . S
C1366 C1378 1.349 . S
C1367 C1365 1.327 . S
C1367 C1383 1.429 . S
C1367 H1389 0.950 . S
C1368 H1364 0.949 . S
C1368 C1376 1.574 1_455 S
C1368 C1384 1.368 1_565 S
H1369 C1377 0.950 . S
H1370 C1375 0.950 1_545 S
H1371 C1376 0.949 . S
H1372 C1378 0.950 . S
H1373 C1379 0.950 1_565 S
H1374 C1380 0.949 . S
C1375 H1370 0.950 1_565 S
C1375 C1377 1.327 . S
C1375 C1381 1.429 . S
C1376 C1368 1.574 1_655 S
C1376 H1371 0.949 . S
C1376 C1382 1.368 . S
C1377 C1361 1.349 . S
C1377 H1369 0.950 . S
C1377 C1375 1.327 . S
C1378 C1366 1.349 . S
C1378 H1372 0.950 . S
C1378 C1379 1.327 . S
C1379 H1373 0.950 1_545 S
C1379 C1378 1.327 . S
C1379 C1383 1.429 . S
C1380 C1363 1.574 1_455 S
C1380 H1374 0.949 . S
C1380 C1384 1.368 . S
C1381 C1362 1.429 . S
C1381 C1375 1.429 . S
C1381 C1382 1.523 . S
C1382 C1363 1.368 1_565 S
C1382 C1376 1.368 . S
C1382 C1381 1.523 . S
C1383 C1367 1.429 . S
C1383 C1379 1.429 . S
C1383 C1384 1.523 . S
C1384 C1368 1.368 1_545 S
C1384 C1380 1.368 . S
C1384 C1383 1.523 . S
H1385 C1360 0.950 . S
H1386 C1362 0.950 . S
H1387 C1363 0.949 . S
H1388 C1365 0.950 . S
H1389 C1367 0.950 . S
C1390 C1391 1.349 . S
C1390 C1392 1.327 . S
C1390 H1415 0.950 . S
C1391 C1390 1.349 . S
C1391 C1407 1.349 . S
C1392 C1390 1.327 . S
C1392 C1411 1.429 . S
C1392 H1416 0.950 . S
C1393 C1410 1.574 1_655 S
C1393 C1412 1.368 1_565 S
C1393 H1417 0.949 . S
H1394 C1398 0.949 . S
C1395 C1396 1.349 . S
C1395 C1397 1.327 . S
C1395 H1418 0.950 . S
C1396 C1395 1.349 . S
C1396 C1408 1.349 . S
C1397 C1395 1.327 . S
C1397 C1413 1.429 . S
C1397 H1419 0.950 . S
C1398 H1394 0.949 . S
C1398 C1406 1.574 1_455 S
C1398 C1414 1.368 1_545 S
H1399 C1407 0.950 . S
H1400 C1405 0.950 1_565 S
H1401 C1406 0.949 . S
H1402 C1408 0.950 . S
H1403 C1409 0.950 1_545 S
H1404 C1410 0.949 . S
C1405 H1400 0.950 1_545 S
C1405 C1407 1.327 . S
C1405 C1411 1.429 . S
C1406 C1398 1.574 1_655 S
C1406 H1401 0.949 . S
C1406 C1412 1.368 . S
C1407 C1391 1.349 . S
C1407 H1399 0.950 . S
C1407 C1405 1.327 . S
C1408 C1396 1.349 . S
C1408 H1402 0.950 . S
C1408 C1409 1.327 . S
C1409 H1403 0.950 1_565 S
C1409 C1408 1.327 . S
C1409 C1413 1.429 . S
C1410 C1393 1.574 1_455 S
C1410 H1404 0.949 . S
C1410 C1414 1.368 . S
C1411 C1392 1.429 . S
C1411 C1405 1.429 . S
C1411 C1412 1.523 . S
C1412 C1393 1.368 1_545 S
C1412 C1406 1.368 . S
C1412 C1411 1.523 . S
C1413 C1397 1.429 . S
C1413 C1409 1.429 . S
C1413 C1414 1.523 . S
C1414 C1398 1.368 1_565 S
C1414 C1410 1.368 . S
C1414 C1413 1.523 . S
H1415 C1390 0.950 . S
H1416 C1392 0.950 . S
H1417 C1393 0.949 . S
H1418 C1395 0.950 . S
H1419 C1397 0.950 . S
C1420 C1421 1.349 . S
C1420 C1422 1.327 . S
C1420 H1445 0.950 . S
C1421 C1420 1.349 . S
C1421 C1437 1.349 . S
C1422 C1420 1.327 . S
C1422 C1441 1.429 . S
C1422 H1446 0.950 . S
C1423 C1440 1.574 1_455 S
C1423 C1442 1.368 1_565 S
C1423 H1447 0.949 . S
H1424 C1428 0.949 . S
C1425 C1426 1.349 . S
C1425 C1427 1.327 . S
C1425 H1448 0.950 . S
C1426 C1425 1.349 . S
C1426 C1438 1.349 . S
C1427 C1425 1.327 . S
C1427 C1443 1.429 . S
C1427 H1449 0.950 . S
C1428 H1424 0.949 . S
C1428 C1436 1.574 1_655 S
C1428 C1444 1.368 1_545 S
H1429 C1437 0.950 . S
H1430 C1435 0.950 1_565 S
H1431 C1436 0.949 . S
H1432 C1438 0.950 . S
H1433 C1439 0.950 1_545 S
H1434 C1440 0.949 . S
C1435 H1430 0.950 1_545 S
C1435 C1437 1.327 . S
C1435 C1441 1.429 . S
C1436 C1428 1.574 1_455 S
C1436 H1431 0.949 . S
C1436 C1442 1.368 . S
C1437 C1421 1.349 . S
C1437 H1429 0.950 . S
C1437 C1435 1.327 . S
C1438 C1426 1.349 . S
C1438 H1432 0.950 . S
C1438 C1439 1.327 . S
C1439 H1433 0.950 1_565 S
C1439 C1438 1.327 . S
C1439 C1443 1.429 . S
C1440 C1423 1.574 1_655 S
C1440 H1434 0.949 . S
C1440 C1444 1.368 . S
C1441 C1422 1.429 . S
C1441 C1435 1.429 . S
C1441 C1442 1.523 . S
C1442 C1423 1.368 1_545 S
C1442 C1436 1.368 . S
C1442 C1441 1.523 . S
C1443 C1427 1.429 . S
C1443 C1439 1.429 . S
C1443 C1444 1.523 . S
C1444 C1428 1.368 1_565 S
C1444 C1440 1.368 . S
C1444 C1443 1.523 . S
H1445 C1420 0.950 . S
H1446 C1422 0.950 . S
H1447 C1423 0.949 . S
H1448 C1425 0.950 . S
H1449 C1427 0.950 . S
C1450 C1451 1.349 . S
C1450 C1452 1.327 . S
C1450 H1475 0.950 . S
C1451 C1450 1.349 . S
C1451 C1467 1.349 . S
C1452 C1450 1.327 . S
C1452 C1471 1.429 . S
C1452 H1476 0.950 . S
C1453 C1470 1.574 1_655 S
C1453 C1472 1.368 1_565 S
C1453 H1477 0.949 . S
H1454 C1458 0.949 . S
C1455 C1456 1.349 . S
C1455 C1457 1.327 . S
C1455 H1478 0.950 . S
C1456 C1455 1.349 . S
C1456 C1468 1.349 . S
C1457 C1455 1.327 . S
C1457 C1473 1.429 . S
C1457 H1479 0.950 . S
C1458 H1454 0.949 . S
C1458 C1466 1.574 1_455 S
C1458 C1474 1.368 1_545 S
H1459 C1467 0.950 . S
H1460 C1465 0.950 1_565 S
H1461 C1466 0.949 . S
H1462 C1468 0.950 . S
H1463 C1469 0.950 1_545 S
H1464 C1470 0.949 . S
C1465 H1460 0.950 1_545 S
C1465 C1467 1.327 . S
C1465 C1471 1.429 . S
C1466 C1458 1.574 1_655 S
C1466 H1461 0.949 . S
C1466 C1472 1.368 . S
C1467 C1451 1.349 . S
C1467 H1459 0.950 . S
C1467 C1465 1.327 . S
C1468 C1456 1.349 . S
C1468 H1462 0.950 . S
C1468 C1469 1.327 . S
C1469 H1463 0.950 1_565 S
C1469 C1468 1.327 . S
C1469 C1473 1.429 . S
C1470 C1453 1.574 1_455 S
C1470 H1464 0.949 . S
C1470 C1474 1.368 . S
C1471 C1452 1.429 . S
C1471 C1465 1.429 . S
C1471 C1472 1.523 . S
C1472 C1453 1.368 1_545 S
C1472 C1466 1.368 . S
C1472 C1471 1.523 . S
C1473 C1457 1.429 . S
C1473 C1469 1.429 . S
C1473 C1474 1.523 . S
C1474 C1458 1.368 1_565 S
C1474 C1470 1.368 . S
C1474 C1473 1.523 . S
H1475 C1450 0.950 . S
H1476 C1452 0.950 . S
H1477 C1453 0.949 . S
H1478 C1455 0.950 . S
H1479 C1457 0.950 . S
C1480 C1481 1.349 . S
C1480 C1482 1.327 . S
C1480 H1505 0.950 . S
C1481 C1480 1.349 . S
C1481 C1497 1.349 . S
C1482 C1480 1.327 . S
C1482 C1501 1.429 . S
C1482 H1506 0.950 . S
C1483 C1500 1.574 . S
C1483 C1502 1.368 . S
C1483 H1507 0.949 . S
H1484 C1488 0.949 . S
C1485 C1486 1.349 . S
C1485 C1487 1.327 . S
C1485 H1508 0.950 . S
C1486 C1485 1.349 . S
C1486 C1498 1.349 . S
C1487 C1485 1.327 . S
C1487 C1503 1.429 . S
C1487 H1509 0.950 . S
C1488 H1484 0.949 . S
C1488 C1496 1.574 . S
C1488 C1504 1.368 . S
H1489 C1497 0.950 . S
H1490 C1495 0.950 . S
H1491 C1496 0.949 . S
H1492 C1498 0.950 . S
H1493 C1499 0.950 . S
H1494 C1500 0.949 . S
C1495 H1490 0.950 . S
C1495 C1497 1.327 . S
C1495 C1501 1.429 . S
C1496 C1488 1.574 . S
C1496 H1491 0.949 . S
C1496 C1502 1.368 . S
C1497 C1481 1.349 . S
C1497 H1489 0.950 . S
C1497 C1495 1.327 . S
C1498 C1486 1.349 . S
C1498 H1492 0.950 . S
C1498 C1499 1.327 . S
C1499 H1493 0.950 . S
C1499 C1498 1.327 . S
C1499 C1503 1.429 . S
C1500 C1483 1.574 . S
C1500 H1494 0.949 . S
C1500 C1504 1.368 . S
C1501 C1482 1.429 . S
C1501 C1495 1.429 . S
C1501 C1502 1.523 . S
C1502 C1483 1.368 . S
C1502 C1496 1.368 . S
C1502 C1501 1.523 . S
C1503 C1487 1.429 . S
C1503 C1499 1.429 . S
C1503 C1504 1.523 . S
C1504 C1488 1.368 . S
C1504 C1500 1.368 . S
C1504 C1503 1.523 . S
H1505 C1480 0.950 . S
H1506 C1482 0.950 . S
H1507 C1483 0.949 . S
H1508 C1485 0.950 . S
H1509 C1487 0.950 . S
C1510 C1511 1.349 . S
C1510 C1512 1.327 . S
C1510 H1535 0.950 . S
C1511 C1510 1.349 . S
C1511 C1527 1.349 . S
C1512 C1510 1.327 . S
C1512 C1531 1.429 . S
C1512 H1536 0.950 . S
C1513 C1530 1.574 . S
C1513 C1532 1.368 . S
C1513 H1537 0.949 . S
H1514 C1518 0.949 . S
C1515 C1516 1.349 . S
C1515 C1517 1.327 . S
C1515 H1538 0.950 . S
C1516 C1515 1.349 . S
C1516 C1528 1.349 . S
C1517 C1515 1.327 . S
C1517 C1533 1.429 . S
C1517 H1539 0.950 . S
C1518 H1514 0.949 . S
C1518 C1526 1.574 . S
C1518 C1534 1.368 . S
H1519 C1527 0.950 . S
H1520 C1525 0.950 . S
H1521 C1526 0.949 . S
H1522 C1528 0.950 . S
H1523 C1529 0.950 . S
H1524 C1530 0.949 . S
C1525 H1520 0.950 . S
C1525 C1527 1.327 . S
C1525 C1531 1.429 . S
C1526 C1518 1.574 . S
C1526 H1521 0.949 . S
C1526 C1532 1.368 . S
C1527 C1511 1.349 . S
C1527 H1519 0.950 . S
C1527 C1525 1.327 . S
C1528 C1516 1.349 . S
C1528 H1522 0.950 . S
C1528 C1529 1.327 . S
C1529 H1523 0.950 . S
C1529 C1528 1.327 . S
C1529 C1533 1.429 . S
C1530 C1513 1.574 . S
C1530 H1524 0.949 . S
C1530 C1534 1.368 . S
C1531 C1512 1.429 . S
C1531 C1525 1.429 . S
C1531 C1532 1.523 . S
C1532 C1513 1.368 . S
C1532 C1526 1.368 . S
C1532 C1531 1.523 . S
C1533 C1517 1.429 . S
C1533 C1529 1.429 . S
C1533 C1534 1.523 . S
C1534 C1518 1.368 . S
C1534 C1530 1.368 . S
C1534 C1533 1.523 . S
H1535 C1510 0.950 . S
H1536 C1512 0.950 . S
H1537 C1513 0.949 . S
H1538 C1515 0.950 . S
H1539 C1517 0.950 . S
C1540 C1541 1.349 . S
C1540 C1542 1.327 . S
C1540 H1565 0.950 . S
C1541 C1540 1.349 . S
C1541 C1557 1.349 . S
C1542 C1540 1.327 . S
C1542 C1561 1.429 . S
C1542 H1566 0.950 . S
C1543 C1560 1.574 . S
C1543 C1562 1.368 . S
C1543 H1567 0.949 . S
H1544 C1548 0.949 . S
C1545 C1546 1.349 . S
C1545 C1547 1.327 . S
C1545 H1568 0.950 . S
C1546 C1545 1.349 . S
C1546 C1558 1.349 . S
C1547 C1545 1.327 . S
C1547 C1563 1.429 . S
C1547 H1569 0.950 . S
C1548 H1544 0.949 . S
C1548 C1556 1.574 . S
C1548 C1564 1.368 . S
H1549 C1557 0.950 . S
H1550 C1555 0.950 . S
H1551 C1556 0.949 . S
H1552 C1558 0.950 . S
H1553 C1559 0.950 . S
H1554 C1560 0.949 . S
C1555 H1550 0.950 . S
C1555 C1557 1.327 . S
C1555 C1561 1.429 . S
C1556 C1548 1.574 . S
C1556 H1551 0.949 . S
C1556 C1562 1.368 . S
C1557 C1541 1.349 . S
C1557 H1549 0.950 . S
C1557 C1555 1.327 . S
C1558 C1546 1.349 . S
C1558 H1552 0.950 . S
C1558 C1559 1.327 . S
C1559 H1553 0.950 . S
C1559 C1558 1.327 . S
C1559 C1563 1.429 . S
C1560 C1543 1.574 . S
C1560 H1554 0.949 . S
C1560 C1564 1.368 . S
C1561 C1542 1.429 . S
C1561 C1555 1.429 . S
C1561 C1562 1.523 . S
C1562 C1543 1.368 . S
C1562 C1556 1.368 . S
C1562 C1561 1.523 . S
C1563 C1547 1.429 . S
C1563 C1559 1.429 . S
C1563 C1564 1.523 . S
C1564 C1548 1.368 . S
C1564 C1560 1.368 . S
C1564 C1563 1.523 . S
H1565 C1540 0.950 . S
H1566 C1542 0.950 . S
H1567 C1543 0.949 . S
H1568 C1545 0.950 . S
H1569 C1547 0.950 . S
C1570 C1571 1.349 . S
C1570 C1572 1.327 . S
C1570 H1595 0.950 . S
C1571 C1570 1.349 . S
C1571 C1587 1.349 . S
C1572 C1570 1.327 . S
C1572 C1591 1.429 . S
C1572 H1596 0.950 . S
C1573 C1590 1.574 . S
C1573 C1592 1.368 . S
C1573 H1597 0.949 . S
H1574 C1578 0.949 . S
C1575 C1576 1.349 . S
C1575 C1577 1.327 . S
C1575 H1598 0.950 . S
C1576 C1575 1.349 . S
C1576 C1588 1.349 . S
C1577 C1575 1.327 . S
C1577 C1593 1.429 . S
C1577 H1599 0.950 . S
C1578 H1574 0.949 . S
C1578 C1586 1.574 . S
C1578 C1594 1.368 . S
H1579 C1587 0.950 . S
H1580 C1585 0.950 . S
H1581 C1586 0.949 . S
H1582 C1588 0.950 . S
H1583 C1589 0.950 . S
H1584 C1590 0.949 . S
C1585 H1580 0.950 . S
C1585 C1587 1.327 . S
C1585 C1591 1.429 . S
C1586 C1578 1.574 . S
C1586 H1581 0.949 . S
C1586 C1592 1.368 . S
C1587 C1571 1.349 . S
C1587 H1579 0.950 . S
C1587 C1585 1.327 . S
C1588 C1576 1.349 . S
C1588 H1582 0.950 . S
C1588 C1589 1.327 . S
C1589 H1583 0.950 . S
C1589 C1588 1.327 . S
C1589 C1593 1.429 . S
C1590 C1573 1.574 . S
C1590 H1584 0.949 . S
C1590 C1594 1.368 . S
C1591 C1572 1.429 . S
C1591 C1585 1.429 . S
C1591 C1592 1.523 . S
C1592 C1573 1.368 . S
C1592 C1586 1.368 . S
C1592 C1591 1.523 . S
C1593 C1577 1.429 . S
C1593 C1589 1.429 . S
C1593 C1594 1.523 . S
C1594 C1578 1.368 . S
C1594 C1590 1.368 . S
C1594 C1593 1.523 . S
H1595 C1570 0.950 . S
H1596 C1572 0.950 . S
H1597 C1573 0.949 . S
H1598 C1575 0.950 . S
H1599 C1577 0.950 . S
C1600 C1601 1.349 . S
C1600 C1602 1.327 . S
C1600 H1625 0.950 . S
C1601 C1600 1.349 . S
C1601 C1617 1.349 . S
C1602 C1600 1.327 . S
C1602 C1621 1.429 . S
C1602 H1626 0.950 . S
C1603 C1620 1.574 . S
C1603 C1622 1.368 . S
C1603 H1627 0.949 . S
H1604 C1608 0.949 . S
C1605 C1606 1.349 . S
C1605 C1607 1.327 . S
C1605 H1628 0.950 . S
C1606 C1605 1.349 . S
C1606 C1618 1.349 . S
C1607 C1605 1.327 . S
C1607 C1623 1.429 . S
C1607 H1629 0.950 . S
C1608 H1604 0.949 . S
C1608 C1616 1.574 . S
C1608 C1624 1.368 . S
H1609 C1617 0.950 . S
H1610 C1615 0.950 . S
H1611 C1616 0.949 . S
H1612 C1618 0.950 . S
H1613 C1619 0.950 . S
H1614 C1620 0.949 . S
C1615 H1610 0.950 . S
C1615 C1617 1.327 . S
C1615 C1621 1.429 . S
C1616 C1608 1.574 . S
C1616 H1611 0.949 . S
C1616 C1622 1.368 . S
C1617 C1601 1.349 . S
C1617 H1609 0.950 . S
C1617 C1615 1.327 . S
C1618 C1606 1.349 . S
C1618 H1612 0.950 . S
C1618 C1619 1.327 . S
C1619 H1613 0.950 . S
C1619 C1618 1.327 . S
C1619 C1623 1.429 . S
C1620 C1603 1.574 . S
C1620 H1614 0.949 . S
C1620 C1624 1.368 . S
C1621 C1602 1.429 . S
C1621 C1615 1.429 . S
C1621 C1622 1.523 . S
C1622 C1603 1.368 . S
C1622 C1616 1.368 . S
C1622 C1621 1.523 . S
C1623 C1607 1.429 . S
C1623 C1619 1.429 . S
C1623 C1624 1.523 . S
C1624 C1608 1.368 . S
C1624 C1620 1.368 . S
C1624 C1623 1.523 . S
H1625 C1600 0.950 . S
H1626 C1602 0.950 . S
H1627 C1603 0.949 . S
H1628 C1605 0.950 . S
H1629 C1607 0.950 . S
C1630 C1631 1.349 . S
C1630 C1632 1.327 . S
C1630 H1655 0.950 . S
C1631 C1630 1.349 . S
C1631 C1647 1.349 . S
C1632 C1630 1.327 . S
C1632 C1651 1.429 . S
C1632 H1656 0.950 . S
C1633 C1650 1.574 . S
C1633 C1652 1.368 . S
C1633 H1657 0.949 . S
H1634 C1638 0.949 . S
C1635 C1636 1.349 . S
C1635 C1637 1.327 . S
C1635 H1658 0.950 . S
C1636 C1635 1.349 . S
C1636 C1648 1.349 . S
C1637 C1635 1.327 . S
C1637 C1653 1.429 . S
C1637 H1659 0.950 . S
C1638 H1634 0.949 . S
C1638 C1646 1.574 . S
C1638 C1654 1.368 . S
H1639 C1647 0.950 . S
H1640 C1645 0.950 . S
H1641 C1646 0.949 . S
H1642 C1648 0.950 . S
H1643 C1649 0.950 . S
H1644 C1650 0.949 . S
C1645 H1640 0.950 . S
C1645 C1647 1.327 . S
C1645 C1651 1.429 . S
C1646 C1638 1.574 . S
C1646 H1641 0.949 . S
C1646 C1652 1.368 . S
C1647 C1631 1.349 . S
C1647 H1639 0.950 . S
C1647 C1645 1.327 . S
C1648 C1636 1.349 . S
C1648 H1642 0.950 . S
C1648 C1649 1.327 . S
C1649 H1643 0.950 . S
C1649 C1648 1.327 . S
C1649 C1653 1.429 . S
C1650 C1633 1.574 . S
C1650 H1644 0.949 . S
C1650 C1654 1.368 . S
C1651 C1632 1.429 . S
C1651 C1645 1.429 . S
C1651 C1652 1.523 . S
C1652 C1633 1.368 . S
C1652 C1646 1.368 . S
C1652 C1651 1.523 . S
C1653 C1637 1.429 . S
C1653 C1649 1.429 . S
C1653 C1654 1.523 . S
C1654 C1638 1.368 . S
C1654 C1650 1.368 . S
C1654 C1653 1.523 . S
H1655 C1630 0.950 . S
H1656 C1632 0.950 . S
H1657 C1633 0.949 . S
H1658 C1635 0.950 . S
H1659 C1637 0.950 . S
C1660 C1661 1.349 . S
C1660 C1662 1.327 . S
C1660 H1685 0.950 . S
C1661 C1660 1.349 . S
C1661 C1677 1.349 . S
C1662 C1660 1.327 . S
C1662 C1681 1.429 . S
C1662 H1686 0.950 . S
C1663 C1680 1.574 . S
C1663 C1682 1.368 . S
C1663 H1687 0.949 . S
H1664 C1668 0.949 . S
C1665 C1666 1.349 . S
C1665 C1667 1.327 . S
C1665 H1688 0.950 . S
C1666 C1665 1.349 . S
C1666 C1678 1.349 . S
C1667 C1665 1.327 . S
C1667 C1683 1.429 . S
C1667 H1689 0.950 . S
C1668 H1664 0.949 . S
C1668 C1676 1.574 . S
C1668 C1684 1.368 . S
H1669 C1677 0.950 . S
H1670 C1675 0.950 . S
H1671 C1676 0.949 . S
H1672 C1678 0.950 . S
H1673 C1679 0.950 . S
H1674 C1680 0.949 . S
C1675 H1670 0.950 . S
C1675 C1677 1.327 . S
C1675 C1681 1.429 . S
C1676 C1668 1.574 . S
C1676 H1671 0.949 . S
C1676 C1682 1.368 . S
C1677 C1661 1.349 . S
C1677 H1669 0.950 . S
C1677 C1675 1.327 . S
C1678 C1666 1.349 . S
C1678 H1672 0.950 . S
C1678 C1679 1.327 . S
C1679 H1673 0.950 . S
C1679 C1678 1.327 . S
C1679 C1683 1.429 . S
C1680 C1663 1.574 . S
C1680 H1674 0.949 . S
C1680 C1684 1.368 . S
C1681 C1662 1.429 . S
C1681 C1675 1.429 . S
C1681 C1682 1.523 . S
C1682 C1663 1.368 . S
C1682 C1676 1.368 . S
C1682 C1681 1.523 . S
C1683 C1667 1.429 . S
C1683 C1679 1.429 . S
C1683 C1684 1.523 . S
C1684 C1668 1.368 . S
C1684 C1680 1.368 . S
C1684 C1683 1.523 . S
H1685 C1660 0.950 . S
H1686 C1662 0.950 . S
H1687 C1663 0.949 . S
H1688 C1665 0.950 . S
H1689 C1667 0.950 . S
C1690 C1691 1.349 . S
C1690 C1692 1.327 . S
C1690 H1715 0.950 . S
C1691 C1690 1.349 . S
C1691 C1707 1.349 . S
C1692 C1690 1.327 . S
C1692 C1711 1.429 . S
C1692 H1716 0.950 . S
C1693 C1710 1.574 . S
C1693 C1712 1.368 . S
C1693 H1717 0.949 . S
H1694 C1698 0.949 . S
C1695 C1696 1.349 . S
C1695 C1697 1.327 . S
C1695 H1718 0.950 . S
C1696 C1695 1.349 . S
C1696 C1708 1.349 . S
C1697 C1695 1.327 . S
C1697 C1713 1.429 . S
C1697 H1719 0.950 . S
C1698 H1694 0.949 . S
C1698 C1706 1.574 . S
C1698 C1714 1.368 . S
H1699 C1707 0.950 . S
H1700 C1705 0.950 . S
H1701 C1706 0.949 . S
H1702 C1708 0.950 . S
H1703 C1709 0.950 . S
H1704 C1710 0.949 . S
C1705 H1700 0.950 . S
C1705 C1707 1.327 . S
C1705 C1711 1.429 . S
C1706 C1698 1.574 . S
C1706 H1701 0.949 . S
C1706 C1712 1.368 . S
C1707 C1691 1.349 . S
C1707 H1699 0.950 . S
C1707 C1705 1.327 . S
C1708 C1696 1.349 . S
C1708 H1702 0.950 . S
C1708 C1709 1.327 . S
C1709 H1703 0.950 . S
C1709 C1708 1.327 . S
C1709 C1713 1.429 . S
C1710 C1693 1.574 . S
C1710 H1704 0.949 . S
C1710 C1714 1.368 . S
C1711 C1692 1.429 . S
C1711 C1705 1.429 . S
C1711 C1712 1.523 . S
C1712 C1693 1.368 . S
C1712 C1706 1.368 . S
C1712 C1711 1.523 . S
C1713 C1697 1.429 . S
C1713 C1709 1.429 . S
C1713 C1714 1.523 . S
C1714 C1698 1.368 . S
C1714 C1710 1.368 . S
C1714 C1713 1.523 . S
H1715 C1690 0.950 . S
H1716 C1692 0.950 . S
H1717 C1693 0.949 . S
H1718 C1695 0.950 . S
H1719 C1697 0.950 . S
C1720 C1721 1.349 . S
C1720 C1722 1.327 . S
C1720 H1745 0.950 . S
C1721 C1720 1.349 . S
C1721 C1737 1.349 . S
C1722 C1720 1.327 . S
C1722 C1741 1.429 . S
C1722 H1746 0.950 . S
C1723 C1740 1.574 . S
C1723 C1742 1.368 . S
C1723 H1747 0.949 . S
H1724 C1728 0.949 . S
C1725 C1726 1.349 . S
C1725 C1727 1.327 . S
C1725 H1748 0.950 . S
C1726 C1725 1.349 . S
C1726 C1738 1.349 . S
C1727 C1725 1.327 . S
C1727 C1743 1.429 . S
C1727 H1749 0.950 . S
C1728 H1724 0.949 . S
C1728 C1736 1.574 . S
C1728 C1744 1.368 . S
H1729 C1737 0.950 . S
H1730 C1735 0.950 . S
H1731 C1736 0.949 . S
H1732 C1738 0.950 . S
H1733 C1739 0.950 . S
H1734 C1740 0.949 . S
C1735 H1730 0.950 . S
C1735 C1737 1.327 . S
C1735 C1741 1.429 . S
C1736 C1728 1.574 . S
C1736 H1731 0.949 . S
C1736 C1742 1.368 . S
C1737 C1721 1.349 . S
C1737 H1729 0.950 . S
C1737 C1735 1.327 . S
C1738 C1726 1.349 . S
C1738 H1732 0.950 . S
C1738 C1739 1.327 . S
C1739 H1733 0.950 . S
C1739 C1738 1.327 . S
C1739 C1743 1.429 . S
C1740 C1723 1.574 . S
C1740 H1734 0.949 . S
C1740 C1744 1.368 . S
C1741 C1722 1.429 . S
C1741 C1735 1.429 . S
C1741 C1742 1.523 . S
C1742 C1723 1.368 . S
C1742 C1736 1.368 . S
C1742 C1741 1.523 . S
C1743 C1727 1.429 . S
C1743 C1739 1.429 . S
C1743 C1744 1.523 . S
C1744 C1728 1.368 . S
C1744 C1740 1.368 . S
C1744 C1743 1.523 . S
H1745 C1720 0.950 . S
H1746 C1722 0.950 . S
H1747 C1723 0.949 . S
H1748 C1725 0.950 . S
H1749 C1727 0.950 . S
C1750 C1751 1.349 . S
C1750 C1752 1.327 . S
C1750 H1775 0.950 . S
C1751 C1750 1.349 . S
C1751 C1767 1.349 . S
C1752 C1750 1.327 . S
C1752 C1771 1.429 . S
C1752 H1776 0.950 . S
C1753 C1770 1.574 . S
C1753 C1772 1.368 . S
C1753 H1777 0.949 . S
H1754 C1758 0.949 . S
C1755 C1756 1.349 . S
C1755 C1757 1.327 . S
C1755 H1778 0.950 . S
C1756 C1755 1.349 . S
C1756 C1768 1.349 . S
C1757 C1755 1.327 . S
C1757 C1773 1.429 . S
C1757 H1779 0.950 . S
C1758 H1754 0.949 . S
C1758 C1766 1.574 . S
C1758 C1774 1.368 . S
H1759 C1767 0.950 . S
H1760 C1765 0.950 . S
H1761 C1766 0.949 . S
H1762 C1768 0.950 . S
H1763 C1769 0.950 . S
H1764 C1770 0.949 . S
C1765 H1760 0.950 . S
C1765 C1767 1.327 . S
C1765 C1771 1.429 . S
C1766 C1758 1.574 . S
C1766 H1761 0.949 . S
C1766 C1772 1.368 . S
C1767 C1751 1.349 . S
C1767 H1759 0.950 . S
C1767 C1765 1.327 . S
C1768 C1756 1.349 . S
C1768 H1762 0.950 . S
C1768 C1769 1.327 . S
C1769 H1763 0.950 . S
C1769 C1768 1.327 . S
C1769 C1773 1.429 . S
C1770 C1753 1.574 . S
C1770 H1764 0.949 . S
C1770 C1774 1.368 . S
C1771 C1752 1.429 . S
C1771 C1765 1.429 . S
C1771 C1772 1.523 . S
C1772 C1753 1.368 . S
C1772 C1766 1.368 . S
C1772 C1771 1.523 . S
C1773 C1757 1.429 . S
C1773 C1769 1.429 . S
C1773 C1774 1.523 . S
C1774 C1758 1.368 . S
C1774 C1770 1.368 . S
C1774 C1773 1.523 . S
H1775 C1750 0.950 . S
H1776 C1752 0.950 . S
H1777 C1753 0.949 . S
H1778 C1755 0.950 . S
H1779 C1757 0.950 . S
C1780 C1781 1.349 . S
C1780 C1782 1.327 . S
C1780 H1805 0.950 . S
C1781 C1780 1.349 . S
C1781 C1797 1.349 . S
C1782 C1780 1.327 . S
C1782 C1801 1.429 . S
C1782 H1806 0.950 . S
C1783 C1800 1.574 . S
C1783 C1802 1.368 . S
C1783 H1807 0.949 . S
H1784 C1788 0.949 . S
C1785 C1786 1.349 . S
C1785 C1787 1.327 . S
C1785 H1808 0.950 . S
C1786 C1785 1.349 . S
C1786 C1798 1.349 . S
C1787 C1785 1.327 . S
C1787 C1803 1.429 . S
C1787 H1809 0.950 . S
C1788 H1784 0.949 . S
C1788 C1796 1.574 . S
C1788 C1804 1.368 . S
H1789 C1797 0.950 . S
H1790 C1795 0.950 . S
H1791 C1796 0.949 . S
H1792 C1798 0.950 . S
H1793 C1799 0.950 . S
H1794 C1800 0.949 . S
C1795 H1790 0.950 . S
C1795 C1797 1.327 . S
C1795 C1801 1.429 . S
C1796 C1788 1.574 . S
C1796 H1791 0.949 . S
C1796 C1802 1.368 . S
C1797 C1781 1.349 . S
C1797 H1789 0.950 . S
C1797 C1795 1.327 . S
C1798 C1786 1.349 . S
C1798 H1792 0.950 . S
C1798 C1799 1.327 . S
C1799 H1793 0.950 . S
C1799 C1798 1.327 . S
C1799 C1803 1.429 . S
C1800 C1783 1.574 . S
C1800 H1794 0.949 . S
C1800 C1804 1.368 . S
C1801 C1782 1.429 . S
C1801 C1795 1.429 . S
C1801 C1802 1.523 . S
C1802 C1783 1.368 . S
C1802 C1796 1.368 . S
C1802 C1801 1.523 . S
C1803 C1787 1.429 . S
C1803 C1799 1.429 . S
C1803 C1804 1.523 . S
C1804 C1788 1.368 . S
C1804 C1800 1.368 . S
C1804 C1803 1.523 . S
H1805 C1780 0.950 . S
H1806 C1782 0.950 . S
H1807 C1783 0.949 . S
H1808 C1785 0.950 . S
H1809 C1787 0.950 . S
C1810 C1811 1.349 . S
C1810 C1812 1.327 . S
C1810 H1835 0.950 . S
C1811 C1810 1.349 . S
C1811 C1827 1.349 . S
C1812 C1810 1.327 . S
C1812 C1831 1.429 . S
C1812 H1836 0.950 . S
C1813 C1830 1.574 . S
C1813 C1832 1.368 . S
C1813 H1837 0.949 . S
H1814 C1818 0.949 . S
C1815 C1816 1.349 . S
C1815 C1817 1.327 . S
C1815 H1838 0.950 . S
C1816 C1815 1.349 . S
C1816 C1828 1.349 . S
C1817 C1815 1.327 . S
C1817 C1833 1.429 . S
C1817 H1839 0.950 . S
C1818 H1814 0.949 . S
C1818 C1826 1.574 . S
C1818 C1834 1.368 . S
H1819 C1827 0.950 . S
H1820 C1825 0.950 . S
H1821 C1826 0.949 . S
H1822 C1828 0.950 . S
H1823 C1829 0.950 . S
H1824 C1830 0.949 . S
C1825 H1820 0.950 . S
C1825 C1827 1.327 . S
C1825 C1831 1.429 . S
C1826 C1818 1.574 . S
C1826 H1821 0.949 . S
C1826 C1832 1.368 . S
C1827 C1811 1.349 . S
C1827 H1819 0.950 . S
C1827 C1825 1.327 . S
C1828 C1816 1.349 . S
C1828 H1822 0.950 . S
C1828 C1829 1.327 . S
C1829 H1823 0.950 . S
C1829 C1828 1.327 . S
C1829 C1833 1.429 . S
C1830 C1813 1.574 . S
C1830 H1824 0.949 . S
C1830 C1834 1.368 . S
C1831 C1812 1.429 . S
C1831 C1825 1.429 . S
C1831 C1832 1.523 . S
C1832 C1813 1.368 . S
C1832 C1826 1.368 . S
C1832 C1831 1.523 . S
C1833 C1817 1.429 . S
C1833 C1829 1.429 . S
C1833 C1834 1.523 . S
C1834 C1818 1.368 . S
C1834 C1830 1.368 . S
C1834 C1833 1.523 . S
H1835 C1810 0.950 . S
H1836 C1812 0.950 . S
H1837 C1813 0.949 . S
H1838 C1815 0.950 . S
H1839 C1817 0.950 . S
C1840 C1841 1.349 . S
C1840 C1842 1.327 . S
C1840 H1865 0.950 . S
C1841 C1840 1.349 . S
C1841 C1857 1.349 . S
C1842 C1840 1.327 . S
C1842 C1861 1.429 1_565 S
C1842 H1866 0.950 . S
C1843 C1860 1.574 . S
C1843 C1862 1.368 . S
C1843 H1867 0.949 . S
H1844 C1848 0.949 . S
C1845 C1846 1.349 . S
C1845 C1847 1.327 . S
C1845 H1868 0.950 . S
C1846 C1845 1.349 . S
C1846 C1858 1.349 . S
C1847 C1845 1.327 . S
C1847 C1863 1.429 . S
C1847 H1869 0.950 . S
C1848 H1844 0.949 . S
C1848 C1856 1.574 . S
C1848 C1864 1.368 . S
H1849 C1857 0.950 . S
H1850 C1855 0.950 1_545 S
H1851 C1856 0.949 . S
H1852 C1858 0.950 . S
H1853 C1859 0.950 . S
H1854 C1860 0.949 . S
C1855 H1850 0.950 1_565 S
C1855 C1857 1.327 . S
C1855 C1861 1.429 1_565 S
C1856 C1848 1.574 . S
C1856 H1851 0.949 . S
C1856 C1862 1.368 . S
C1857 C1841 1.349 . S
C1857 H1849 0.950 . S
C1857 C1855 1.327 . S
C1858 C1846 1.349 . S
C1858 H1852 0.950 . S
C1858 C1859 1.327 . S
C1859 H1853 0.950 . S
C1859 C1858 1.327 . S
C1859 C1863 1.429 . S
C1860 C1843 1.574 . S
C1860 H1854 0.949 . S
C1860 C1864 1.368 . S
C1861 C1842 1.429 1_545 S
C1861 C1855 1.429 1_545 S
C1861 C1862 1.523 . S
C1862 C1843 1.368 . S
C1862 C1856 1.368 . S
C1862 C1861 1.523 . S
C1863 C1847 1.429 . S
C1863 C1859 1.429 . S
C1863 C1864 1.523 . S
C1864 C1848 1.368 . S
C1864 C1860 1.368 . S
C1864 C1863 1.523 . S
H1865 C1840 0.950 . S
H1866 C1842 0.950 . S
H1867 C1843 0.949 . S
H1868 C1845 0.950 . S
H1869 C1847 0.950 . S
C1870 C1871 1.349 . S
C1870 C1872 1.327 . S
C1870 H1895 0.950 . S
C1871 C1870 1.349 . S
C1871 C1887 1.349 . S
C1872 C1870 1.327 . S
C1872 C1891 1.429 . S
C1872 H1896 0.950 . S
C1873 C1890 1.574 . S
C1873 C1892 1.368 . S
C1873 H1897 0.949 . S
H1874 C1878 0.949 . S
C1875 C1876 1.349 . S
C1875 C1877 1.327 . S
C1875 H1898 0.950 . S
C1876 C1875 1.349 . S
C1876 C1888 1.349 . S
C1877 C1875 1.327 . S
C1877 C1893 1.429 1_545 S
C1877 H1899 0.950 1_545 S
C1878 H1874 0.949 . S
C1878 C1886 1.574 . S
C1878 C1894 1.368 . S
H1879 C1887 0.950 . S
H1880 C1885 0.950 . S
H1881 C1886 0.949 . S
H1882 C1888 0.950 . S
H1883 C1889 0.950 . S
H1884 C1890 0.949 . S
C1885 H1880 0.950 . S
C1885 C1887 1.327 . S
C1885 C1891 1.429 . S
C1886 C1878 1.574 . S
C1886 H1881 0.949 . S
C1886 C1892 1.368 . S
C1887 C1871 1.349 . S
C1887 H1879 0.950 . S
C1887 C1885 1.327 . S
C1888 C1876 1.349 . S
C1888 H1882 0.950 . S
C1888 C1889 1.327 . S
C1889 H1883 0.950 . S
C1889 C1888 1.327 . S
C1889 C1893 1.429 1_545 S
C1890 C1873 1.574 . S
C1890 H1884 0.949 . S
C1890 C1894 1.368 . S
C1891 C1872 1.429 . S
C1891 C1885 1.429 . S
C1891 C1892 1.523 . S
C1892 C1873 1.368 . S
C1892 C1886 1.368 . S
C1892 C1891 1.523 . S
C1893 C1877 1.429 1_565 S
C1893 C1889 1.429 1_565 S
C1893 C1894 1.523 . S
C1894 C1878 1.368 . S
C1894 C1890 1.368 . S
C1894 C1893 1.523 . S
H1895 C1870 0.950 . S
H1896 C1872 0.950 . S
H1897 C1873 0.949 . S
H1898 C1875 0.950 . S
H1899 C1877 0.950 1_565 S
C1900 C1901 1.349 . S
C1900 C1902 1.327 . S
C1900 H1925 0.950 . S
C1901 C1900 1.349 . S
C1901 C1917 1.349 . S
C1902 C1900 1.327 . S
C1902 C1921 1.429 1_545 S
C1902 H1926 0.950 . S
C1903 C1920 1.574 . S
C1903 C1922 1.368 . S
C1903 H1927 0.949 . S
H1904 C1908 0.949 . S
C1905 C1906 1.349 . S
C1905 C1907 1.327 . S
C1905 H1928 0.950 . S
C1906 C1905 1.349 . S
C1906 C1918 1.349 . S
C1907 C1905 1.327 . S
C1907 C1923 1.429 . S
C1907 H1929 0.950 . S
C1908 H1904 0.949 . S
C1908 C1916 1.574 . S
C1908 C1924 1.368 . S
H1909 C1917 0.950 . S
H1910 C1915 0.950 1_565 S
H1911 C1916 0.949 . S
H1912 C1918 0.950 . S
H1913 C1919 0.950 . S
H1914 C1920 0.949 . S
C1915 H1910 0.950 1_545 S
C1915 C1917 1.327 . S
C1915 C1921 1.429 1_545 S
C1916 C1908 1.574 . S
C1916 H1911 0.949 . S
C1916 C1922 1.368 . S
C1917 C1901 1.349 . S
C1917 H1909 0.950 . S
C1917 C1915 1.327 . S
C1918 C1906 1.349 . S
C1918 H1912 0.950 . S
C1918 C1919 1.327 . S
C1919 H1913 0.950 . S
C1919 C1918 1.327 . S
C1919 C1923 1.429 . S
C1920 C1903 1.574 . S
C1920 H1914 0.949 . S
C1920 C1924 1.368 . S
C1921 C1902 1.429 1_565 S
C1921 C1915 1.429 1_565 S
C1921 C1922 1.523 . S
C1922 C1903 1.368 . S
C1922 C1916 1.368 . S
C1922 C1921 1.523 . S
C1923 C1907 1.429 . S
C1923 C1919 1.429 . S
C1923 C1924 1.523 . S
C1924 C1908 1.368 . S
C1924 C1920 1.368 . S
C1924 C1923 1.523 . S
H1925 C1900 0.950 . S
H1926 C1902 0.950 . S
H1927 C1903 0.949 . S
H1928 C1905 0.950 . S
H1929 C1907 0.950 . S
C1930 C1931 1.349 . S
C1930 C1932 1.327 . S
C1930 H1955 0.950 . S
C1931 C1930 1.349 . S
C1931 C1947 1.349 . S
C1932 C1930 1.327 . S
C1932 C1951 1.429 1_565 S
C1932 H1956 0.950 1_565 S
C1933 C1950 1.574 . S
C1933 C1952 1.368 . S
C1933 H1957 0.949 . S
H1934 C1938 0.949 . S
C1935 C1936 1.349 . S
C1935 C1937 1.327 . S
C1935 H1958 0.950 . S
C1936 C1935 1.349 . S
C1936 C1948 1.349 . S
C1937 C1935 1.327 . S
C1937 C1953 1.429 . S
C1937 H1959 0.950 . S
C1938 H1934 0.949 . S
C1938 C1946 1.574 . S
C1938 C1954 1.368 . S
H1939 C1947 0.950 . S
H1940 C1945 0.950 . S
H1941 C1946 0.949 . S
H1942 C1948 0.950 . S
H1943 C1949 0.950 . S
H1944 C1950 0.949 . S
C1945 H1940 0.950 . S
C1945 C1947 1.327 . S
C1945 C1951 1.429 1_565 S
C1946 C1938 1.574 . S
C1946 H1941 0.949 . S
C1946 C1952 1.368 . S
C1947 C1931 1.349 . S
C1947 H1939 0.950 . S
C1947 C1945 1.327 . S
C1948 C1936 1.349 . S
C1948 H1942 0.950 . S
C1948 C1949 1.327 . S
C1949 H1943 0.950 . S
C1949 C1948 1.327 . S
C1949 C1953 1.429 . S
C1950 C1933 1.574 . S
C1950 H1944 0.949 . S
C1950 C1954 1.368 . S
C1951 C1932 1.429 1_545 S
C1951 C1945 1.429 1_545 S
C1951 C1952 1.523 . S
C1952 C1933 1.368 . S
C1952 C1946 1.368 . S
C1952 C1951 1.523 . S
C1953 C1937 1.429 . S
C1953 C1949 1.429 . S
C1953 C1954 1.523 . S
C1954 C1938 1.368 . S
C1954 C1950 1.368 . S
C1954 C1953 1.523 . S
H1955 C1930 0.950 . S
H1956 C1932 0.950 1_545 S
H1957 C1933 0.949 . S
H1958 C1935 0.950 . S
H1959 C1937 0.950 . S
C1960 C1961 1.349 . S
C1960 C1962 1.327 . S
C1960 H1985 0.950 . S
C1961 C1960 1.349 . S
C1961 C1977 1.349 . S
C1962 C1960 1.327 . S
C1962 C1981 1.429 . S
C1962 H1986 0.950 . S
C1963 C1980 1.574 . S
C1963 C1982 1.368 . S
C1963 H1987 0.949 . S
H1964 C1968 0.949 . S
C1965 C1966 1.349 . S
C1965 C1967 1.327 . S
C1965 H1988 0.950 . S
C1966 C1965 1.349 . S
C1966 C1978 1.349 . S
C1967 C1965 1.327 . S
C1967 C1983 1.429 1_545 S
C1967 H1989 0.950 1_545 S
C1968 H1964 0.949 . S
C1968 C1976 1.574 . S
C1968 C1984 1.368 . S
H1969 C1977 0.950 . S
H1970 C1975 0.950 . S
H1971 C1976 0.949 . S
H1972 C1978 0.950 . S
H1973 C1979 0.950 . S
H1974 C1980 0.949 . S
C1975 H1970 0.950 . S
C1975 C1977 1.327 . S
C1975 C1981 1.429 . S
C1976 C1968 1.574 . S
C1976 H1971 0.949 . S
C1976 C1982 1.368 . S
C1977 C1961 1.349 . S
C1977 H1969 0.950 . S
C1977 C1975 1.327 . S
C1978 C1966 1.349 . S
C1978 H1972 0.950 . S
C1978 C1979 1.327 . S
C1979 H1973 0.950 . S
C1979 C1978 1.327 . S
C1979 C1983 1.429 1_545 S
C1980 C1963 1.574 . S
C1980 H1974 0.949 . S
C1980 C1984 1.368 . S
C1981 C1962 1.429 . S
C1981 C1975 1.429 . S
C1981 C1982 1.523 . S
C1982 C1963 1.368 . S
C1982 C1976 1.368 . S
C1982 C1981 1.523 . S
C1983 C1967 1.429 1_565 S
C1983 C1979 1.429 1_565 S
C1983 C1984 1.523 . S
C1984 C1968 1.368 . S
C1984 C1980 1.368 . S
C1984 C1983 1.523 . S
H1985 C1960 0.950 . S
H1986 C1962 0.950 . S
H1987 C1963 0.949 . S
H1988 C1965 0.950 . S
H1989 C1967 0.950 1_565 S
C1990 C1991 1.349 . S
C1990 C1992 1.327 . S
C1990 H2015 0.950 . S
C1991 C1990 1.349 . S
C1991 C2007 1.349 . S
C1992 C1990 1.327 . S
C1992 C2011 1.429 . S
C1992 H2016 0.950 . S
C1993 C2010 1.574 . S
C1993 C2012 1.368 . S
C1993 H2017 0.949 . S
H1994 C1998 0.949 . S
C1995 C1996 1.349 . S
C1995 C1997 1.327 . S
C1995 H2018 0.950 . S
C1996 C1995 1.349 . S
C1996 C2008 1.349 . S
C1997 C1995 1.327 . S
C1997 C2013 1.429 1_565 S
C1997 H2019 0.950 1_565 S
C1998 H1994 0.949 . S
C1998 C2006 1.574 . S
C1998 C2014 1.368 . S
H1999 C2007 0.950 . S
H2000 C2005 0.950 . S
H2001 C2006 0.949 . S
H2002 C2008 0.950 . S
H2003 C2009 0.950 . S
H2004 C2010 0.949 . S
C2005 H2000 0.950 . S
C2005 C2007 1.327 . S
C2005 C2011 1.429 . S
C2006 C1998 1.574 . S
C2006 H2001 0.949 . S
C2006 C2012 1.368 . S
C2007 C1991 1.349 . S
C2007 H1999 0.950 . S
C2007 C2005 1.327 . S
C2008 C1996 1.349 . S
C2008 H2002 0.950 . S
C2008 C2009 1.327 . S
C2009 H2003 0.950 . S
C2009 C2008 1.327 . S
C2009 C2013 1.429 1_565 S
C2010 C1993 1.574 . S
C2010 H2004 0.949 . S
C2010 C2014 1.368 . S
C2011 C1992 1.429 . S
C2011 C2005 1.429 . S
C2011 C2012 1.523 . S
C2012 C1993 1.368 . S
C2012 C2006 1.368 . S
C2012 C2011 1.523 . S
C2013 C1997 1.429 1_545 S
C2013 C2009 1.429 1_545 S
C2013 C2014 1.523 . S
C2014 C1998 1.368 . S
C2014 C2010 1.368 . S
C2014 C2013 1.523 . S
H2015 C1990 0.950 . S
H2016 C1992 0.950 . S
H2017 C1993 0.949 . S
H2018 C1995 0.950 . S
H2019 C1997 0.950 1_545 S
C2020 C2021 1.349 . S
C2020 C2022 1.327 . S
C2020 H2045 0.950 . S
C2021 C2020 1.349 . S
C2021 C2037 1.349 . S
C2022 C2020 1.327 . S
C2022 C2041 1.429 1_565 S
C2022 H2046 0.950 1_565 S
C2023 C2040 1.574 . S
C2023 C2042 1.368 . S
C2023 H2047 0.949 . S
H2024 C2028 0.949 . S
C2025 C2026 1.349 . S
C2025 C2027 1.327 . S
C2025 H2048 0.950 . S
C2026 C2025 1.349 . S
C2026 C2038 1.349 . S
C2027 C2025 1.327 . S
C2027 C2043 1.429 . S
C2027 H2049 0.950 . S
C2028 H2024 0.949 . S
C2028 C2036 1.574 . S
C2028 C2044 1.368 . S
H2029 C2037 0.950 . S
H2030 C2035 0.950 . S
H2031 C2036 0.949 . S
H2032 C2038 0.950 . S
H2033 C2039 0.950 . S
H2034 C2040 0.949 . S
C2035 H2030 0.950 . S
C2035 C2037 1.327 . S
C2035 C2041 1.429 1_565 S
C2036 C2028 1.574 . S
C2036 H2031 0.949 . S
C2036 C2042 1.368 . S
C2037 C2021 1.349 . S
C2037 H2029 0.950 . S
C2037 C2035 1.327 . S
C2038 C2026 1.349 . S
C2038 H2032 0.950 . S
C2038 C2039 1.327 . S
C2039 H2033 0.950 . S
C2039 C2038 1.327 . S
C2039 C2043 1.429 . S
C2040 C2023 1.574 . S
C2040 H2034 0.949 . S
C2040 C2044 1.368 . S
C2041 C2022 1.429 1_545 S
C2041 C2035 1.429 1_545 S
C2041 C2042 1.523 . S
C2042 C2023 1.368 . S
C2042 C2036 1.368 . S
C2042 C2041 1.523 . S
C2043 C2027 1.429 . S
C2043 C2039 1.429 . S
C2043 C2044 1.523 . S
C2044 C2028 1.368 . S
C2044 C2040 1.368 . S
C2044 C2043 1.523 . S
H2045 C2020 0.950 . S
H2046 C2022 0.950 1_545 S
H2047 C2023 0.949 . S
H2048 C2025 0.950 . S
H2049 C2027 0.950 . S
C2050 C2051 1.349 . S
C2050 C2052 1.327 . S
C2050 H2075 0.950 . S
C2051 C2050 1.349 . S
C2051 C2067 1.349 . S
C2052 C2050 1.327 . S
C2052 C2071 1.429 . S
C2052 H2076 0.950 . S
C2053 C2070 1.574 . S
C2053 C2072 1.368 . S
C2053 H2077 0.949 . S
H2054 C2058 0.949 . S
C2055 C2056 1.349 . S
C2055 C2057 1.327 . S
C2055 H2078 0.950 . S
C2056 C2055 1.349 . S
C2056 C2068 1.349 . S
C2057 C2055 1.327 . S
C2057 C2073 1.429 1_545 S
C2057 H2079 0.950 . S
C2058 H2054 0.949 . S
C2058 C2066 1.574 . S
C2058 C2074 1.368 . S
H2059 C2067 0.950 . S
H2060 C2065 0.950 . S
H2061 C2066 0.949 . S
H2062 C2068 0.950 . S
H2063 C2069 0.950 1_565 S
H2064 C2070 0.949 . S
C2065 H2060 0.950 . S
C2065 C2067 1.327 . S
C2065 C2071 1.429 . S
C2066 C2058 1.574 . S
C2066 H2061 0.949 . S
C2066 C2072 1.368 . S
C2067 C2051 1.349 . S
C2067 H2059 0.950 . S
C2067 C2065 1.327 . S
C2068 C2056 1.349 . S
C2068 H2062 0.950 . S
C2068 C2069 1.327 . S
C2069 H2063 0.950 1_545 S
C2069 C2068 1.327 . S
C2069 C2073 1.429 1_545 S
C2070 C2053 1.574 . S
C2070 H2064 0.949 . S
C2070 C2074 1.368 . S
C2071 C2052 1.429 . S
C2071 C2065 1.429 . S
C2071 C2072 1.523 . S
C2072 C2053 1.368 . S
C2072 C2066 1.368 . S
C2072 C2071 1.523 . S
C2073 C2057 1.429 1_565 S
C2073 C2069 1.429 1_565 S
C2073 C2074 1.523 . S
C2074 C2058 1.368 . S
C2074 C2070 1.368 . S
C2074 C2073 1.523 . S
H2075 C2050 0.950 . S
H2076 C2052 0.950 . S
H2077 C2053 0.949 . S
H2078 C2055 0.950 . S
H2079 C2057 0.950 . S
C641 C24 1.530 . S
C646 C384 1.530 . S
C671 C64 1.530 . S
C676 C344 1.530 . S
C701 C464 1.530 . S
C706 C104 1.530 . S
C731 C144 1.530 . S
C736 C424 1.530 . S
C761 C533 1.530 . S
C766 C173 1.530 . S
C791 C493 1.530 . S
C796 C213 1.530 . S
C821 C613 1.530 . S
C826 C253 1.530 . S
C851 C293 1.530 . S
C856 C573 1.530 . S
C881 C103 1.651 . S
C886 C23 1.651 . S
C911 C143 1.651 . S
C916 C63 1.651 . S
C941 C242 1.651 . S
C946 C162 1.651 . S
C971 C202 1.651 . S
C976 C282 1.651 . S
C1001 C423 1.651 . S
C1006 C343 1.651 . S
C1031 C463 1.651 . S
C1036 C383 1.651 . S
C1061 C482 1.651 . S
C1066 C562 1.651 . S
C1091 C522 1.651 . S
C1096 C602 1.651 . S
C1121 C223 1.563 . S
C1126 C2 1.563 . S
C1151 C183 1.563 . S
C1156 C42 1.563 . S
C1181 C82 1.563 . S
C1186 C303 1.563 . S
C1211 C263 1.563 . S
C1216 C122 1.563 . S
C1241 C322 1.563 . S
C1246 C543 1.563 . S
C1271 C503 1.563 . S
C1276 C362 1.563 . S
C1301 C402 1.563 . S
C1306 C623 1.563 . S
C1331 C583 1.563 . S
C1336 C442 1.563 . S
C1361 C53 1.560 . S
C1366 C13 1.560 . S
C1391 C133 1.560 . S
C1396 C93 1.560 . S
C1421 C224 1.560 . S
C1426 C184 1.560 . S
C1451 C264 1.560 . S
C1456 C304 1.560 . S
C1481 C373 1.560 . S
C1486 C333 1.560 . S
C1511 C453 1.560 . S
C1516 C413 1.560 . S
C1541 C504 1.560 . S
C1546 C544 1.560 . S
C1571 C584 1.560 . S
C1576 C624 1.560 . S
C1601 C26 1.523 . S
C1606 C17 1.523 . S
C1631 C66 1.523 . S
C1636 C57 1.523 . S
C1661 C106 1.523 . S
C1666 C97 1.523 . S
C1691 C137 1.523 . S
C1696 C146 1.523 . S
C1721 C177 1.523 . S
C1726 C186 1.523 . S
C1751 C226 1.523 . S
C1756 C217 1.523 . S
C1781 C257 1.523 . S
C1786 C266 1.523 . S
C1811 C297 1.523 . S
C1816 C306 1.523 . S
C1841 C337 1.523 . S
C1846 C346 1.523 . S
C1871 C386 1.523 . S
C1876 C377 1.523 . S
C1901 C417 1.523 . S
C1906 C426 1.523 . S
C1931 C457 1.523 . S
C1936 C466 1.523 . S
C1961 C497 1.523 . S
C1966 C506 1.523 . S
C1991 C537 1.523 . S
C1996 C546 1.523 . S
C2021 C586 1.523 . S
C2026 C577 1.523 . S
C2051 C617 1.523 . S
C2056 C626 1.523 . S
