# Generated by pormake.
# Topology snk, (6)-cn, num edge types: 1
# Building blocks:
#     Node 0, Type 0, BuildingBlock: HISSIN_clean_sbu_0, # of connection points: 6
#     Node 1, Type 0, BuildingBlock: HISSIN_clean_sbu_0, # of connection points: 6
#     Node 2, Type 0, BuildingBlock: HISSIN_clean_sbu_0, # of connection points: 6
#     Node 3, Type 0, BuildingBlock: HISSIN_clean_sbu_0, # of connection points: 6
#     Node 4, Type 0, BuildingBlock: HISSIN_clean_sbu_0, # of connection points: 6
#     Node 5, Type 0, BuildingBlock: HISSIN_clean_sbu_0, # of connection points: 6
#     Node 6, Type 0, BuildingBlock: HISSIN_clean_sbu_0, # of connection points: 6
#     Node 7, Type 0, BuildingBlock: HISSIN_clean_sbu_0, # of connection points: 6
#     Edge 8, Type (0, 0), BuildingBlock: XUDNAN_clean_linker_2, # of connection points: 2
#     Edge 9, Type (0, 0), BuildingBlock: XUDNAN_clean_linker_2, # of connection points: 2
#     Edge 10, Type (0, 0), BuildingBlock: XUDNAN_clean_linker_2, # of connection points: 2
#     Edge 11, Type (0, 0), BuildingBlock: XUDNAN_clean_linker_2, # of connection points: 2
#     Edge 12, Type (0, 0), BuildingBlock: XUDNAN_clean_linker_2, # of connection points: 2
#     Edge 13, Type (0, 0), BuildingBlock: XUDNAN_clean_linker_2, # of connection points: 2
#     Edge 14, Type (0, 0), BuildingBlock: XUDNAN_clean_linker_2, # of connection points: 2
#     Edge 15, Type (0, 0), BuildingBlock: XUDNAN_clean_linker_2, # of connection points: 2
#     Edge 16, Type (0, 0), BuildingBlock: XUDNAN_clean_linker_2, # of connection points: 2
#     Edge 17, Type (0, 0), BuildingBlock: XUDNAN_clean_linker_2, # of connection points: 2
#     Edge 18, Type (0, 0), BuildingBlock: XUDNAN_clean_linker_2, # of connection points: 2
#     Edge 19, Type (0, 0), BuildingBlock: XUDNAN_clean_linker_2, # of connection points: 2
#     Edge 20, Type (0, 0), BuildingBlock: XUDNAN_clean_linker_2, # of connection points: 2
#     Edge 21, Type (0, 0), BuildingBlock: XUDNAN_clean_linker_2, # of connection points: 2
#     Edge 22, Type (0, 0), BuildingBlock: XUDNAN_clean_linker_2, # of connection points: 2
#     Edge 23, Type (0, 0), BuildingBlock: XUDNAN_clean_linker_2, # of connection points: 2
#     Edge 24, Type (0, 0), BuildingBlock: XUDNAN_clean_linker_2, # of connection points: 2
#     Edge 25, Type (0, 0), BuildingBlock: XUDNAN_clean_linker_2, # of connection points: 2
#     Edge 26, Type (0, 0), BuildingBlock: XUDNAN_clean_linker_2, # of connection points: 2
#     Edge 27, Type (0, 0), BuildingBlock: XUDNAN_clean_linker_2, # of connection points: 2
#     Edge 28, Type (0, 0), BuildingBlock: XUDNAN_clean_linker_2, # of connection points: 2
#     Edge 29, Type (0, 0), BuildingBlock: XUDNAN_clean_linker_2, # of connection points: 2
#     Edge 30, Type (0, 0), BuildingBlock: XUDNAN_clean_linker_2, # of connection points: 2
#     Edge 31, Type (0, 0), BuildingBlock: XUDNAN_clean_linker_2, # of connection points: 2
# Relax obj value: 0.079
# Max RMSD: 0.152
# Mean RMSD: 0.126
data_MOF--net-snk--node1-HISSIN_clean_sbu_0--edge1-XUDNAN_clean_linker_2
_symmetry_space_group_name_H-M    P1
_symmetry_Int_Tables_number       1
_symmetry_cell_setting            triclinic
loop_
_symmetry_equiv_pos_as_xyz
'x, y, z'
_cell_length_a     38.1807
_cell_length_b     37.998909
_cell_length_c     25.299357
_cell_angle_alpha  94.221738
_cell_angle_beta   94.216046
_cell_angle_gamma 91.684611
loop_
_atom_site_label
_atom_site_type_symbol
_atom_site_fract_x
_atom_site_fract_y
_atom_site_fract_z
_atom_type_partial_charge
Eu0 Eu 0.99312 0.99556 0.46515 0.0
Eu1 Eu 0.01808 0.04012 0.58176 0.0
C2 C 0.97176 0.07567 0.49017 0.0
C3 C 0.97882 0.97024 0.31404 0.0
C4 C 0.98771 1.00374 0.29776 0.0
C5 C 0.97334 0.94718 0.2214 0.0
C6 C 0.98902 0.00896 0.24344 0.0
C7 C 0.97205 0.94203 0.27544 0.0
C8 C 0.98137 0.98079 0.20443 0.0
C9 C 0.97607 0.96398 0.37068 0.0
O10 O 0.98153 0.996 0.59924 0.0
O11 O 0.94956 0.98369 0.51913 0.0
C12 C 0.95362 0.98217 0.57115 0.0
O13 O 0.01787 0.95621 0.51708 0.0
O14 O 1.00319 0.07323 0.65019 0.0
O15 O 0.0558 0.05404 0.65023 0.0
O16 O 0.05482 0.99485 0.57026 0.0
C17 C 0.0459 0.96269 0.54995 0.0
O18 O 0.04717 0.0204 0.45899 0.0
O19 O 0.0494 0.06707 0.52286 0.0
O20 O 0.97537 0.07139 0.54134 0.0
O21 O 1.00534 0.95899 0.39871 0.0
O22 O 0.95492 0.98383 0.39704 0.0
O23 O 0.98306 0.0526 0.45496 0.0
C24 C 0.02866 0.05702 0.73196 0.0
C25 C 0.01864 0.02175 0.73769 0.0
C26 C 0.02549 0.06982 0.82739 0.0
C27 C 0.01169 0.0107 0.78761 0.0
C28 C 0.0324 0.08087 0.77727 0.0
C29 C 0.01444 0.03468 0.83312 0.0
C30 C 0.03254 0.06943 0.6785 0.0
C31 C 0.06039 0.05139 0.4792 0.0
H32 H 0.99321 0.02589 0.32697 0.0
H33 H 0.96802 0.92468 0.19281 0.0
H34 H 0.99513 0.03521 0.23197 0.0
H35 H 0.96546 0.91592 0.2871 0.0
H36 H 0.01552 1.00287 0.70331 0.0
H37 H 0.0276 0.0891 0.86127 0.0
H38 H 1.00382 0.98333 0.79043 0.0
H39 H 0.03983 0.10828 0.7737 0.0
Eu40 Eu 0.29358 0.7565 0.65817 0.0
Eu41 Eu 0.25671 0.76461 0.77319 0.0
C42 C 0.24124 0.69844 0.69202 0.0
C43 C 0.30702 0.74095 0.50955 0.0
C44 C 0.27561 0.75493 0.48923 0.0
C45 C 0.31486 0.71225 0.42258 0.0
C46 C 0.26411 0.74785 0.43558 0.0
C47 C 0.32645 0.71953 0.47598 0.0
C48 C 0.28363 0.72639 0.40176 0.0
C49 C 0.31959 0.74732 0.56581 0.0
O50 O 0.30698 0.73849 0.79638 0.0
O51 O 0.32589 0.72332 0.71312 0.0
C52 C 0.32849 0.7222 0.76532 0.0
O53 O 0.32936 0.79124 0.71334 0.0
O54 O 0.21348 0.7538 0.82229 0.0
O55 O 0.25521 0.7917 0.85176 0.0
O56 O 0.28537 0.81526 0.75819 0.0
C57 C 0.31817 0.81584 0.74599 0.0
O58 O 0.25294 0.79848 0.65025 0.0
O59 O 0.21611 0.77844 0.70991 0.0
O60 O 0.25047 0.70765 0.74215 0.0
O61 O 0.31452 0.7784 0.58918 0.0
O62 O 0.31327 0.72167 0.5957 0.0
O63 O 0.2466 0.71999 0.65515 0.0
C64 C 0.2282 0.76002 0.91482 0.0
C65 C 0.25318 0.73532 0.92877 0.0
C66 C 0.20773 0.76094 1.00335 0.0
C67 C 0.25569 0.72379 0.9801 0.0
C68 C 0.20526 0.77242 0.95208 0.0
C69 C 0.2333 0.73687 0.01819 0.0
C70 C 0.22689 0.77448 0.86262 0.0
C71 C 0.22195 0.79695 0.66955 0.0
H72 H 0.25999 0.77118 0.51476 0.0
H73 H 0.3307 0.69603 0.39736 0.0
H74 H 0.2398 0.75887 0.42067 0.0
H75 H 0.35065 0.7084 0.49112 0.0
H76 H 0.27118 0.72559 0.90035 0.0
H77 H 0.18981 0.77113 0.03154 0.0
H78 H 0.27591 0.70554 0.99044 0.0
H79 H 0.1858 0.79147 0.94181 0.0
Eu80 Eu 0.51065 0.97482 0.12372 0.0
Eu81 Eu 0.48944 0.01532 1.01173 0.0
C82 C 0.55875 0.0347 0.08526 0.0
C83 C 0.52917 0.95858 0.2709 0.0
C84 C 0.50806 0.98505 0.29186 0.0
C85 C 0.55611 0.95252 0.35968 0.0
C86 C 0.51075 0.99494 0.34652 0.0
C87 C 0.55325 0.94253 0.30517 0.0
C88 C 0.53483 0.97877 0.38109 0.0
C89 C 0.52642 0.94722 0.21368 0.0
O90 O 0.51501 0.96579 0.98478 0.0
O91 O 0.54508 0.95016 0.06174 0.0
C92 C 0.53883 0.94738 1.00943 0.0
O93 O 0.47587 0.93812 0.06913 0.0
O94 O 0.49322 0.05786 0.95851 0.0
O95 O 0.45683 0.0134 0.93709 0.0
O96 O 0.44487 0.98288 0.03848 0.0
C97 C 0.4487 0.94897 0.04123 0.0
O98 O 0.46827 0.01329 0.14277 0.0
O99 O 0.4731 0.05241 0.07775 0.0
O100 O 0.54673 0.02718 0.0357 0.0
O101 O 0.49492 0.9455 0.18942 0.0
O102 O 0.54988 0.9608 0.18528 0.0
O103 O 0.54063 0.02605 0.1246 0.0
C104 C 0.48419 0.03805 0.86755 0.0
C105 C 0.51244 0.01655 0.85674 0.0
C106 C 0.4779 0.05051 0.7745 0.0
C107 C 0.52335 0.01204 0.80513 0.0
C108 C 0.46704 0.05503 0.82619 0.0
C109 C 0.50617 0.02891 0.76328 0.0
C110 C 0.4717 0.04174 0.92132 0.0
C111 C 0.46189 0.0439 0.1232 0.0
H112 H 0.48947 0.99801 0.26602 0.0
H113 H 0.57462 0.93924 0.38521 0.0
H114 H 0.49427 0.01551 0.36162 0.0
H115 H 0.56976 0.92206 0.28978 0.0
H116 H 0.52583 1.00297 0.88813 0.0
H117 H 0.46433 0.06419 0.74342 0.0
H118 H 0.54485 0.9948 0.79786 0.0
H119 H 0.4451 0.07164 0.83381 0.0
Eu120 Eu 0.26069 0.28198 0.30814 0.0
Eu121 Eu 0.22656 0.25039 0.18957 0.0
C122 C 0.18532 0.30107 0.26489 0.0
C123 C 0.28407 0.29627 0.45885 0.0
C124 C 0.25761 0.27359 0.47445 0.0
C125 C 0.3106 0.30119 0.54953 0.0
C126 C 0.25749 0.26508 0.52743 0.0
C127 C 0.3106 0.30981 0.49672 0.0
C128 C 0.28396 0.27886 0.56568 0.0
C129 C 0.28373 0.30717 0.404 0.0
O130 O 0.25035 0.30418 0.17978 0.0
O131 O 0.29248 0.30943 0.24939 0.0
C132 C 0.28025 0.31796 0.20213 0.0
O133 O 0.28719 0.23121 0.2876 0.0
O134 O 0.1932 0.25828 0.11786 0.0
O135 O 0.22189 0.21019 0.12289 0.0
O136 O 0.28329 0.23543 0.19787 0.0
C137 C 0.29781 0.22232 0.24046 0.0
O138 O 0.22096 0.23946 0.32523 0.0
O139 O 0.2137 0.20785 0.24342 0.0
O140 O 0.18241 0.27069 0.23663 0.0
O141 O 0.30319 0.2898 0.37151 0.0
O142 O 0.2531 0.31377 0.3813 0.0
O143 O 0.21652 0.31537 0.27926 0.0
C144 C 0.21536 0.23386 0.03926 0.0
C145 C 0.24706 0.25248 0.03407 0.0
C146 C 0.20752 0.22328 0.94305 0.0
C147 C 0.25899 0.25634 0.98375 0.0
C148 C 0.19563 0.21941 0.99348 0.0
C149 C 0.23947 0.24164 0.93753 0.0
C150 C 0.20285 0.22955 0.09221 0.0
C151 C 0.20967 0.21113 0.29481 0.0
H152 H 0.2369 0.26271 0.4458 0.0
H153 H 0.33114 0.31263 0.578 0.0
H154 H 0.23682 0.2475 0.53835 0.0
H155 H 0.33113 0.32748 0.48556 0.0
H156 H 0.26258 0.26401 0.069 0.0
H157 H 0.192 0.21133 0.90845 0.0
H158 H 0.28341 0.2711 0.98104 0.0
H159 H 0.17109 0.20495 0.99673 0.0
Eu160 Eu 0.77398 0.27564 0.2371 0.0
Eu161 Eu 0.72924 0.25872 0.34232 0.0
C162 C 0.73285 0.20169 0.24261 0.0
C163 C 0.79577 0.28041 0.09361 0.0
C164 C 0.7678 0.2566 0.07623 0.0
C165 C 0.80743 0.28682 1.00143 0.0
C166 C 0.75986 0.24775 0.02189 0.0
C167 C 0.81543 0.29557 0.05589 0.0
C168 C 0.77965 0.26262 0.98372 0.0
C169 C 0.80403 0.2899 0.15085 0.0
O170 O 0.78141 0.23329 0.35424 0.0
O171 O 0.81542 0.26567 0.3024 0.0
C172 C 0.81222 0.24343 0.33953 0.0
O173 O 0.76538 0.32682 0.28415 0.0
O174 O 0.70865 0.22221 0.39631 0.0
O175 O 0.69929 0.27806 0.40813 0.0
O176 O 0.76528 0.30523 0.3659 0.0
C177 C 0.76776 0.33174 0.33612 0.0
O178 O 0.71658 0.27177 0.20996 0.0
O179 O 0.69492 0.29114 0.28857 0.0
O180 O 0.71322 0.21598 0.27846 0.0
O181 O 0.78198 0.31045 0.17374 0.0
O182 O 0.81303 0.26412 0.17978 0.0
O183 O 0.76107 0.21764 0.22806 0.0
C184 C 0.70589 0.24584 0.48495 0.0
C185 C 0.73569 0.26413 0.51059 0.0
C186 C 0.69316 0.22282 0.56886 0.0
C187 C 0.7441 0.26179 0.56515 0.0
C188 C 0.68471 0.22531 0.51456 0.0
C189 C 0.72305 0.24085 0.59488 0.0
C190 C 0.69671 0.24725 0.42742 0.0
C191 C 0.69219 0.28712 0.2363 0.0
H192 H 0.75205 0.24491 0.10474 0.0
H193 H 0.8234 0.29854 0.97324 0.0
H194 H 0.73794 0.22948 1.00978 0.0
H195 H 0.83705 0.31411 0.06856 0.0
H196 H 0.75257 0.27999 0.48837 0.0
H197 H 0.67609 0.20687 0.5906 0.0
H198 H 0.76746 0.27576 0.58379 0.0
H199 H 0.6616 0.21104 0.49558 0.0
Eu200 Eu 0.78306 0.77228 0.84414 0.0
Eu201 Eu 0.74078 0.75915 0.72343 0.0
C202 C 0.70739 0.8029 0.8217 0.0
C203 C 0.80107 0.78396 0.99277 0.0
C204 C 0.76595 0.77402 0.99838 0.0
C205 C 0.811 0.79336 0.08872 0.0
C206 C 0.75335 0.77397 0.0488 0.0
C207 C 0.82358 0.79345 0.03813 0.0
C208 C 0.77565 0.78389 0.09458 0.0
C209 C 0.81375 0.78536 0.93957 0.0
O210 O 0.78735 0.79454 0.71171 0.0
O211 O 0.79598 0.81923 0.79724 0.0
C212 C 0.80104 0.81947 0.74626 0.0
O213 O 0.82163 0.74417 0.79456 0.0
O214 O 0.71053 0.7824 0.65945 0.0
O215 O 0.71904 0.72617 0.65347 0.0
O216 O 0.78698 0.72377 0.7192 0.0
C217 C 0.81664 0.72472 0.74932 0.0
O218 O 0.74986 0.72249 0.84979 0.0
O219 O 0.71395 0.72036 0.77178 0.0
O220 O 0.71255 0.80095 0.7708 0.0
O221 O 0.81499 0.75506 0.912 0.0
O222 O 0.80009 0.80959 0.9113 0.0
O223 O 0.728 0.78764 0.85591 0.0
C224 C 0.71229 0.75475 0.57346 0.0
C225 C 0.74433 0.76785 0.55759 0.0
C226 C 0.68853 0.74976 0.48158 0.0
C227 C 0.74826 0.77229 0.50383 0.0
C228 C 0.68467 0.74529 0.53512 0.0
C229 C 0.72013 0.76387 0.46538 0.0
C230 C 0.70622 0.75284 0.6298 0.0
C231 C 0.7232 0.70872 0.8183 0.0
H232 H 0.74821 0.76653 0.96368 0.0
H233 H 0.82874 0.80146 0.12313 0.0
H234 H 0.72614 0.76603 0.05192 0.0
H235 H 0.85074 0.80132 0.03439 0.0
H236 H 0.76591 0.7754 0.58685 0.0
H237 H 0.6666 0.74246 0.45285 0.0
H238 H 0.77285 0.78339 0.49261 0.0
H239 H 0.6598 0.73509 0.54675 0.0
Eu240 Eu 0.50293 0.47807 0.94007 0.0
Eu241 Eu 0.51256 0.52545 0.0568 0.0
C242 C 0.47672 0.55721 0.95236 0.0
C243 C 0.49973 0.45891 0.79089 0.0
C244 C 0.51453 0.49263 0.78591 0.0
C245 C 0.49037 0.45042 0.69447 0.0
C246 C 0.51684 0.50533 0.7357 0.0
C247 C 0.48804 0.43774 0.74485 0.0
C248 C 0.50426 0.48464 0.68929 0.0
C249 C 0.49452 0.44685 0.84398 0.0
O250 O 0.47434 0.48065 0.06792 0.0
O251 O 0.45291 0.46927 0.98116 0.0
C252 C 0.45042 0.46629 0.0323 0.0
O253 O 0.52194 0.43929 0.99751 0.0
O254 O 0.48903 0.55479 0.12167 0.0
O255 O 0.54555 0.54968 0.12504 0.0
O256 O 0.54702 0.47824 0.06483 0.0
C257 C 0.54232 0.4461 0.04147 0.0
O258 O 0.55721 0.5039 0.94597 0.0
O259 O 0.55011 0.55164 1.00476 0.0
O260 O 0.47408 0.55446 1.00351 0.0
O261 O 0.52278 0.4445 0.8757 0.0
O262 O 0.4693 0.46183 0.86843 0.0
O263 O 0.4935 0.53408 0.92391 0.0
C264 C 0.51882 0.55379 0.207 0.0
C265 C 0.50484 0.52211 0.22347 0.0
C266 C 0.53027 0.57564 0.29954 0.0
C267 C 0.50314 0.51747 0.27781 0.0
C268 C 0.53195 0.58021 0.24544 0.0
C269 C 0.51528 0.54449 0.31653 0.0
C270 C 0.51879 0.56054 0.15027 0.0
C271 C 0.56662 0.53599 0.9661 0.0
H272 H 0.5237 0.50943 0.82098 0.0
H273 H 0.48016 0.43389 0.65973 0.0
H274 H 0.5282 0.53156 0.73329 0.0
H275 H 0.47636 0.4117 0.74791 0.0
H276 H 0.49463 0.50131 0.19433 0.0
H277 H 0.54053 0.59671 0.32815 0.0
H278 H 0.4913 0.49324 0.2894 0.0
H279 H 0.54304 0.60474 0.23359 0.0
Eu280 Eu 0.99845 0.48028 0.57207 0.0
Eu281 Eu 0.99915 0.52806 0.46486 0.0
C282 C 0.06436 0.52759 0.54886 0.0
C283 C 0.98938 0.45256 0.71412 0.0
C284 C 0.98786 0.48685 0.7386 0.0
C285 C 0.97725 0.42862 0.79769 0.0
C286 C 0.98155 0.49195 0.79249 0.0
C287 C 0.98372 0.42356 0.74395 0.0
C288 C 0.97644 0.46287 0.82286 0.0
C289 C 0.99926 0.44654 0.65889 0.0
O290 O 0.02942 0.47948 0.44733 0.0
O291 O 0.00675 0.4407 0.5029 0.0
C292 C 0.02461 0.44736 0.46191 0.0
O293 O 0.94258 0.48892 0.5432 0.0
O294 O 0.02703 0.5502 0.40185 0.0
O295 O 0.97089 0.55567 0.40302 0.0
O296 O 0.95354 0.48969 0.45581 0.0
C297 C 0.93156 0.48757 0.49283 0.0
O298 O 0.9912 0.53671 0.60229 0.0
O299 O 0.97145 0.56142 0.52525 0.0
O300 O 0.04372 0.54824 0.52234 0.0
O301 O 0.97395 0.44253 0.62111 0.0
O302 O 0.02532 0.46624 0.64596 0.0
O303 O 0.05404 0.4958 0.55906 0.0
C304 C 0.99367 0.54644 0.31921 0.0
C305 C 0.98888 0.5102 0.30444 0.0
C306 C 0.9883 0.55821 0.22574 0.0
C307 C 0.98363 0.49805 0.25076 0.0
C308 C 0.99351 0.57034 0.27954 0.0
C309 C 0.98303 0.5219 0.21064 0.0
C310 C 0.99834 0.55928 0.37583 0.0
C311 C 0.97537 0.56177 0.57744 0.0
H312 H 0.99213 0.50966 0.71629 0.0
H313 H 0.97386 0.40561 0.81989 0.0
H314 H 0.98065 0.51867 0.81037 0.0
H315 H 0.98504 0.39691 0.72595 0.0
H316 H 0.98906 0.4913 0.33452 0.0
H317 H 0.98766 0.57735 0.19605 0.0
H318 H 0.98023 0.4699 0.24069 0.0
H319 H 0.99711 0.59842 0.29018 0.0
H320 H 0.08766 0.12021 0.49559 0.0
H321 H 0.09349 0.02323 0.39475 0.0
H322 H 0.13402 0.05305 0.3401 0.0
H323 H 0.08753 0.17825 0.39216 0.0
H324 H 0.11445 0.21267 0.42931 0.0
H325 H 0.08759 0.18343 0.46357 0.0
H326 H 0.14248 0.16649 0.52133 0.0
H327 H 0.16953 0.1958 0.48738 0.0
H328 H 0.18005 0.14997 0.48947 0.0
H329 H 0.17022 0.0936 0.29213 0.0
H330 H 0.20219 0.1424 0.25559 0.0
H331 H 0.17515 0.2137 0.38733 0.0
C332 C 0.09794 0.10509 0.46259 0.0
C333 C 0.08732 0.06921 0.44978 0.0
C334 C 0.10108 0.05063 0.40566 0.0
C335 C 0.12423 0.06735 0.37424 0.0
C336 C 0.13368 0.10273 0.38735 0.0
C337 C 0.12127 0.12143 0.43062 0.0
C338 C 0.13484 0.15964 0.43449 0.0
C339 C 0.10428 0.18499 0.42958 0.0
C340 C 0.15811 0.16849 0.48625 0.0
C341 C 0.15637 0.15944 0.38627 0.0
C342 C 0.15524 0.12627 0.35976 0.0
C343 C 0.17162 0.11962 0.31282 0.0
C344 C 0.18962 0.14758 0.29225 0.0
C345 C 0.19137 0.18186 0.31865 0.0
C346 C 0.1747 0.1877 0.3666 0.0
H347 H 0.11673 0.96389 0.57954 0.0
H348 H 0.02411 0.89407 0.55289 0.0
H349 H 0.05977 0.84375 0.57734 0.0
H350 H 0.17698 0.90086 0.52478 0.0
H351 H 0.21306 0.9151 0.57224 0.0
H352 H 0.18031 0.94589 0.55308 0.0
H353 H 0.16837 0.95953 0.65186 0.0
H354 H 0.20115 0.92891 0.67133 0.0
H355 H 0.15702 0.92378 0.69118 0.0
H356 H 0.10422 0.80202 0.61019 0.0
H357 H 0.15585 0.77044 0.64433 0.0
H358 H 0.22108 0.8656 0.64262 0.0
C359 C 0.10402 0.938 0.57899 0.0
C360 C 0.06764 0.93284 0.56459 0.0
C361 C 0.05196 0.89855 0.56365 0.0
C362 C 0.07198 0.86983 0.57753 0.0
C363 C 0.10777 0.87573 0.59134 0.0
C364 C 0.1238 0.90884 0.59165 0.0
C365 C 0.16287 0.90773 0.6073 0.0
C366 C 0.18458 0.918 0.56162 0.0
C367 C 0.17293 0.93139 0.65846 0.0
C368 C 0.16614 0.86895 0.61662 0.0
C369 C 0.13393 0.85108 0.6075 0.0
C370 C 0.12968 0.81556 0.61665 0.0
C371 C 0.15906 0.79788 0.63604 0.0
C372 C 0.19233 0.81553 0.64513 0.0
C373 C 0.19602 0.85138 0.63468 0.0
H374 H 0.30644 0.87415 0.81219 0.0
H375 H 0.38876 0.80827 0.75411 0.0
H376 H 0.43094 0.83683 0.82279 0.0
H377 H 0.36671 0.95473 0.84919 0.0
H378 H 0.343 0.96698 0.90639 0.0
H379 H 0.32018 0.94474 0.84785 0.0
H380 H 0.29754 0.89664 0.90572 0.0
H381 H 0.32114 0.91802 0.9641 0.0
H382 H 0.32874 0.87247 0.94452 0.0
H383 H 0.46015 0.86202 0.90662 0.0
H384 H 0.48076 0.8949 0.99068 0.0
H385 H 0.38275 0.95015 0.99112 0.0
C386 C 0.3336 0.86663 0.81292 0.0
C387 C 0.34427 0.83887 0.77822 0.0
C388 C 0.37997 0.82953 0.78026 0.0
C389 C 0.40416 0.84545 0.81929 0.0
C390 C 0.39239 0.87126 0.85482 0.0
C391 C 0.35841 0.88287 0.85098 0.0
C392 C 0.35269 0.9105 0.8955 0.0
C393 C 0.34521 0.94637 0.87341 0.0
C394 C 0.32329 0.89867 0.92945 0.0
C395 C 0.38827 0.91113 0.92616 0.0
C396 C 0.4105 0.88795 0.90209 0.0
C397 C 0.44349 0.88111 0.92514 0.0
C398 C 0.45474 0.89961 0.97324 0.0
C399 C 0.43337 0.92527 0.99687 0.0
C400 C 0.39958 0.93085 0.97339 0.0
H401 H 0.42791 0.1 0.08409 0.0
H402 H 0.44615 0.04491 0.22744 0.0
H403 H 0.40856 0.0867 0.27464 0.0
H404 H 0.42616 0.1887 0.1479 0.0
H405 H 0.39147 0.20181 0.102 0.0
H406 H 0.42153 0.16893 0.08065 0.0
H407 H 0.3691 0.12523 0.05138 0.0
H408 H 0.33891 0.15794 0.07261 0.0
H409 H 0.33791 0.11508 0.0987 0.0
H410 H 0.36788 0.13391 0.30545 0.0
H411 H 0.32499 0.18077 0.31636 0.0
H412 H 0.3322 0.2035 0.15171 0.0
C413 C 0.42438 0.09691 0.1256 0.0
C414 C 0.44016 0.0693 0.1522 0.0
C415 C 0.43434 0.06586 0.20626 0.0
C416 C 0.41314 0.08955 0.23344 0.0
C417 C 0.39783 0.11635 0.20588 0.0
C418 C 0.40307 0.12002 0.15308 0.0
C419 C 0.38226 0.14991 0.13175 0.0
C420 C 0.40683 0.17906 0.11458 0.0
C421 C 0.35546 0.13621 0.08591 0.0
C422 C 0.36421 0.16233 0.18068 0.0
C423 C 0.37382 0.14291 0.22319 0.0
C424 C 0.36024 0.14933 0.27247 0.0
C425 C 0.33593 0.17607 0.27828 0.0
C426 C 0.32519 0.19582 0.23489 0.0
C427 C 0.33983 0.1889 0.18565 0.0
H428 H 0.90987 0.92287 0.54012 0.0
H429 H 0.93839 1.00072 0.67168 0.0
H430 H 0.90077 0.96909 0.72853 0.0
H431 H 0.81765 0.90636 0.57268 0.0
H432 H 0.81844 0.85961 0.55467 0.0
H433 H 0.84511 0.88999 0.52197 0.0
H434 H 0.90042 0.8556 0.5486 0.0
H435 H 0.87395 0.82533 0.58169 0.0
H436 H 0.91106 0.84883 0.61765 0.0
H437 H 0.86387 0.92766 0.77376 0.0
H438 H 0.82814 0.87911 0.80411 0.0
H439 H 0.82251 0.82656 0.64511 0.0
C440 C 0.90741 0.93363 0.58045 0.0
C441 C 0.92695 0.9645 0.60124 0.0
C442 C 0.92372 0.97722 0.65473 0.0
C443 C 0.90234 0.95944 0.68747 0.0
C444 C 0.88414 0.92873 0.66646 0.0
C445 C 0.88617 0.91588 0.6142 0.0
C446 C 0.86516 0.88111 0.60307 0.0
C447 C 0.83478 0.88448 0.56057 0.0
C448 C 0.88908 0.85094 0.5868 0.0
C449 C 0.8515 0.87647 0.65729 0.0
C450 C 0.86274 0.90439 0.69307 0.0
C451 C 0.8546 0.90576 0.746 0.0
C452 C 0.83432 0.87793 0.76294 0.0
C453 C 0.82228 0.84892 0.72719 0.0
C454 C 0.83102 0.84839 0.67352 0.0
H455 H 0.91114 0.10722 0.51792 0.0
H456 H 0.997 0.11527 0.41607 0.0
H457 H 0.96881 0.16504 0.37427 0.0
H458 H 0.84536 0.11895 0.41933 0.0
H459 H 0.81721 0.14397 0.46099 0.0
H460 H 0.84685 0.11343 0.48964 0.0
H461 H 0.87435 0.16356 0.55616 0.0
H462 H 0.84466 0.1943 0.52767 0.0
H463 H 0.89141 0.20343 0.53146 0.0
H464 H 0.92897 0.2099 0.33756 0.0
H465 H 0.8787 0.24382 0.30482 0.0
H466 H 0.8171 0.20492 0.42727 0.0
C467 C 0.92439 0.12029 0.48799 0.0
C468 C 0.95641 0.10791 0.47063 0.0
C469 C 0.97253 0.12466 0.43005 0.0
C470 C 0.95681 0.15302 0.40628 0.0
C471 C 0.92477 0.16416 0.42319 0.0
C472 C 0.90863 0.14829 0.46302 0.0
C473 C 0.87238 0.1626 0.46935 0.0
C474 C 0.84378 0.13297 0.4592 0.0
C475 C 0.87061 0.18214 0.52444 0.0
C476 C 0.87032 0.18808 0.42587 0.0
C477 C 0.9011 0.18917 0.40052 0.0
C478 C 0.90485 0.20956 0.35748 0.0
C479 C 0.87614 0.2288 0.33917 0.0
C480 C 0.8439 0.22708 0.36335 0.0
C481 C 0.84137 0.20692 0.40792 0.0
H482 H 0.69289 0.14968 0.27752 0.0
H483 H 0.74226 0.18166 0.13896 0.0
H484 H 0.70897 0.13408 0.08332 0.0
H485 H 0.68388 0.05095 0.23292 0.0
H486 H 0.64217 0.04807 0.26168 0.0
H487 H 0.67637 0.07835 0.29198 0.0
H488 H 0.63329 0.12964 0.28592 0.0
H489 H 0.59931 0.09988 0.25482 0.0
H490 H 0.61238 0.1382 0.22211 0.0
H491 H 0.6606 0.09329 0.0407 0.0
H492 H 0.605 0.05879 1.01626 0.0
H493 H 0.58932 0.05299 0.18371 0.0
C494 C 0.69764 0.14569 0.23585 0.0
C495 C 0.71987 0.16906 0.21232 0.0
C496 C 0.72545 0.1636 0.15768 0.0
C497 C 0.7067 0.13668 0.12581 0.0
C498 C 0.68335 0.11512 0.14972 0.0
C499 C 0.6795 0.11878 0.20385 0.0
C500 C 0.64985 0.09543 0.21904 0.0
C501 C 0.66392 0.06647 0.25342 0.0
C502 C 0.62209 0.1171 0.24706 0.0
C503 C 0.63591 0.08017 0.16465 0.0
C504 C 0.65583 0.09117 0.12512 0.0
C505 C 0.64537 0.0836 0.07136 0.0
C506 C 0.61366 0.06432 0.05785 0.0
C507 C 0.5929 0.05333 0.0981 0.0
C508 C 0.60469 0.06082 0.15194 0.0
H509 H 0.69757 0.82662 0.92482 0.0
H510 H 0.65049 0.82525 0.763 0.0
H511 H 0.60108 0.85896 0.79531 0.0
H512 H 0.61638 0.81874 0.99027 0.0
H513 H 0.63145 0.84872 0.04641 0.0
H514 H 0.66255 0.82297 1.01139 0.0
H515 H 0.69765 0.88004 0.99561 0.0
H516 H 0.66681 0.90603 0.0307 0.0
H517 H 0.67552 0.91503 0.96385 0.0
H518 H 0.55764 0.89282 0.84368 0.0
H519 H 0.52363 0.92872 0.90421 0.0
H520 H 0.59898 0.91079 0.03613 0.0
C521 C 0.67673 0.83318 0.89621 0.0
C522 C 0.67781 0.82315 0.84129 0.0
C523 C 0.65027 0.83266 0.80514 0.0
C524 C 0.62201 0.85166 0.82316 0.0
C525 C 0.62178 0.86112 0.8774 0.0
C526 C 0.64845 0.8525 0.91346 0.0
C527 C 0.64243 0.86745 0.96932 0.0
C528 C 0.63793 0.83769 1.00653 0.0
C529 C 0.67238 0.8937 0.99113 0.0
C530 C 0.60825 0.88608 0.95885 0.0
C531 C 0.5968 0.88165 0.90555 0.0
C532 C 0.56632 0.89653 0.88547 0.0
C533 C 0.54722 0.91704 0.92045 0.0
C534 C 0.55866 0.92292 0.9752 0.0
C535 C 0.58943 0.90674 0.9947 0.0
H536 H 0.60218 0.59952 1.00085 0.0
H537 H 0.59178 0.51825 0.87002 0.0
H538 H 0.63197 0.55264 0.82067 0.0
H539 H 0.6052 0.67334 0.92263 0.0
H540 H 0.638 0.69857 0.96569 0.0
H541 H 0.60938 0.66714 0.99275 0.0
H542 H 0.66339 0.63556 0.03212 0.0
H543 H 0.69219 0.66704 1.00535 0.0
H544 H 0.69633 0.62043 0.98905 0.0
H545 H 0.66836 0.59768 0.7812 0.0
H546 H 0.70385 0.64879 0.7575 0.0
H547 H 0.69586 0.69992 0.91489 0.0
C548 C 0.60877 0.58876 0.96216 0.0
C549 C 0.59374 0.55595 0.93964 0.0
C550 C 0.603 0.54301 0.88866 0.0
C551 C 0.62579 0.56247 0.86003 0.0
C552 C 0.63977 0.59474 0.88294 0.0
C553 C 0.63214 0.60767 0.93314 0.0
C554 C 0.65086 0.64335 0.948 0.0
C555 C 0.62427 0.67231 0.95784 0.0
C556 C 0.67727 0.64147 0.99651 0.0
C557 C 0.6696 0.64858 0.89796 0.0
C558 C 0.66249 0.62024 0.86087 0.0
C559 C 0.67466 0.61974 0.81022 0.0
C560 C 0.69469 0.6489 0.79704 0.0
C561 C 0.70299 0.67795 0.83455 0.0
C562 C 0.6905 0.67765 0.88588 0.0
H563 H 0.66154 0.35037 0.2581 0.0
H564 H 0.65928 0.25987 0.14293 0.0
H565 H 0.61702 0.28927 0.0836 0.0
H566 H 0.5684 0.37538 0.23211 0.0
H567 H 0.57986 0.42193 0.23902 0.0
H568 H 0.6056 0.3917 0.27601 0.0
H569 H 0.66176 0.41471 0.23626 0.0
H570 H 0.63619 0.44468 0.19873 0.0
H571 H 0.66322 0.41346 0.16507 0.0
H572 H 0.5791 0.3298 0.03393 0.0
H573 H 0.54843 0.37928 0.9959 0.0
H574 H 0.57737 0.44544 0.14087 0.0
C575 C 0.65115 0.33636 0.22119 0.0
C576 C 0.66302 0.3026 0.20538 0.0
C577 C 0.65008 0.28556 0.15589 0.0
C578 C 0.6261 0.30204 0.122 0.0
C579 C 0.6156 0.33575 0.13795 0.0
C580 C 0.62763 0.35279 0.18635 0.0
C581 C 0.6148 0.39024 0.19146 0.0
C582 C 0.59073 0.39508 0.23738 0.0
C583 C 0.64585 0.41736 0.19827 0.0
C584 C 0.5943 0.39174 0.13803 0.0
C585 C 0.59472 0.35983 0.10819 0.0
C586 C 0.57834 0.35485 0.05706 0.0
C587 C 0.56102 0.38321 0.03576 0.0
C588 C 0.56049 0.41637 0.06525 0.0
C589 C 0.57734 0.42051 0.11719 0.0
H590 H 0.88541 0.44603 0.5381 0.0
H591 H 0.89532 0.51384 0.40964 0.0
H592 H 0.83752 0.49223 0.36913 0.0
H593 H 0.8645 0.3767 0.46811 0.0
H594 H 0.83235 0.35651 0.50624 0.0
H595 H 0.86404 0.38793 0.53862 0.0
H596 H 0.81438 0.4261 0.5735 0.0
H597 H 0.78219 0.39429 0.54132 0.0
H598 H 0.78012 0.44009 0.52764 0.0
H599 H 0.79387 0.45087 0.32727 0.0
H600 H 0.76878 0.39381 0.28806 0.0
H601 H 0.7856 0.34964 0.44072 0.0
C602 C 0.8742 0.45755 0.50308 0.0
C603 C 0.89427 0.48133 0.4767 0.0
C604 C 0.87999 0.49542 0.4301 0.0
C605 C 0.847 0.4836 0.40725 0.0
C606 C 0.82881 0.45762 0.43146 0.0
C607 C 0.8416 0.44511 0.47909 0.0
C608 C 0.82201 0.41151 0.48997 0.0
C609 C 0.84724 0.38144 0.50126 0.0
C610 C 0.79825 0.41843 0.53582 0.0
C611 C 0.80029 0.40437 0.43764 0.0
C612 C 0.80295 0.43229 0.40579 0.0
C613 C 0.79054 0.42934 0.35235 0.0
C614 C 0.77673 0.39665 0.33018 0.0
C615 C 0.7758 0.36736 0.36139 0.0
C616 C 0.78587 0.37182 0.41623 0.0
H617 H 0.82409 0.69287 0.6497 0.0
H618 H 0.87537 0.70745 0.80919 0.0
H619 H 0.92351 0.67031 0.78096 0.0
H620 H 0.8447 0.60312 0.62397 0.0
H621 H 0.85225 0.60706 0.55513 0.0
H622 H 0.82247 0.63594 0.58735 0.0
H623 H 0.858 0.69034 0.56127 0.0
H624 H 0.888 0.66159 0.52909 0.0
H625 H 0.90447 0.69478 0.58016 0.0
H626 H 0.9638 0.62815 0.73745 0.0
H627 H 0.99443 0.58533 0.6805 0.0
H628 H 0.91871 0.60041 0.54828 0.0
C629 C 0.84549 0.68837 0.67867 0.0
C630 C 0.84587 0.70305 0.73172 0.0
C631 C 0.8745 0.69663 0.76828 0.0
C632 C 0.90201 0.67556 0.75265 0.0
C633 C 0.90077 0.66142 0.70016 0.0
C634 C 0.8734 0.66772 0.66359 0.0
C635 C 0.87817 0.6489 0.60983 0.0
C636 C 0.84759 0.62217 0.59311 0.0
C637 C 0.88242 0.6755 0.5676 0.0
C638 C 0.91214 0.63049 0.62219 0.0
C639 C 0.92472 0.63805 0.67454 0.0
C640 C 0.95452 0.62243 0.69617 0.0
C641 C 0.97171 0.59813 0.66357 0.0
C642 C 0.95923 0.58996 0.60983 0.0
C643 C 0.92934 0.60678 0.58884 0.0
H644 H 0.34461 0.35366 0.23052 0.0
H645 H 0.26238 0.33702 0.10209 0.0
H646 H 0.29617 0.37367 0.04677 0.0
H647 H 0.36639 0.44562 0.20703 0.0
H648 H 0.41289 0.4415 0.22218 0.0
H649 H 0.38189 0.41462 0.2533 0.0
H650 H 0.41208 0.35828 0.21843 0.0
H651 H 0.44307 0.38499 0.18709 0.0
H652 H 0.41704 0.35064 0.14823 0.0
H653 H 0.33952 0.40958 1.0027 0.0
H654 H 0.38917 0.44475 0.97436 0.0
H655 H 0.44354 0.44051 0.13057 0.0
C656 C 0.33356 0.35804 0.191 0.0
C657 C 0.30059 0.34235 0.1711 0.0
C658 C 0.28736 0.34868 0.11882 0.0
C659 C 0.30642 0.36952 0.08677 0.0
C660 C 0.33879 0.38428 0.10728 0.0
C661 C 0.35227 0.37912 0.15825 0.0
C662 C 0.38806 0.3979 0.16988 0.0
C663 C 0.38725 0.42662 0.21582 0.0
C664 C 0.41675 0.37136 0.18159 0.0
C665 C 0.39252 0.41404 0.11739 0.0
C666 C 0.36377 0.40571 0.08188 0.0
C667 C 0.36208 0.41654 0.0303 0.0
C668 C 0.3905 0.43647 1.01449 0.0
C669 C 0.42026 0.44567 0.05015 0.0
C670 C 0.42106 0.43431 0.10243 0.0
H671 H 0.41904 0.59742 0.97495 0.0
H672 H 0.50081 0.5838 0.86531 0.0
H673 H 0.4738 0.62741 0.8098 0.0
H674 H 0.34942 0.60378 0.87815 0.0
H675 H 0.32642 0.63739 0.91429 0.0
H676 H 0.35397 0.608 0.94981 0.0
H677 H 0.38946 0.66152 0.9984 0.0
H678 H 0.36175 0.69106 0.9632 0.0
H679 H 0.40874 0.69416 0.96006 0.0
H680 H 0.43564 0.66675 0.76063 0.0
H681 H 0.38919 0.70305 0.72256 0.0
H682 H 0.33155 0.69379 0.86293 0.0
C683 C 0.43165 0.60439 0.94002 0.0
C684 C 0.46204 0.58713 0.92453 0.0
C685 C 0.47743 0.59645 0.87793 0.0
C686 C 0.46237 0.62134 0.84609 0.0
C687 C 0.43191 0.63705 0.8613 0.0
C688 C 0.41678 0.62939 0.90735 0.0
C689 C 0.38284 0.64894 0.91231 0.0
C690 C 0.3513 0.62297 0.9137 0.0
C691 C 0.38589 0.6755 0.96141 0.0
C692 C 0.38098 0.66777 0.86121 0.0
C693 C 0.40974 0.66059 0.8327 0.0
C694 C 0.41321 0.67307 0.78288 0.0
C695 C 0.38656 0.69351 0.76142 0.0
C696 C 0.35681 0.70144 0.78976 0.0
C697 C 0.35422 0.68861 0.84061 0.0
H698 H 0.20824 0.67846 0.59582 0.0
H699 H 0.23136 0.64257 0.75319 0.0
H700 H 0.19594 0.58767 0.72651 0.0
H701 H 0.12208 0.65441 0.58588 0.0
H702 H 0.11894 0.6417 0.51558 0.0
H703 H 0.15186 0.67388 0.54326 0.0
H704 H 0.20045 0.63583 0.50406 0.0
H705 H 0.16753 0.60336 0.47616 0.0
H706 H 0.20374 0.59042 0.51946 0.0
H707 H 0.15232 0.54092 0.68623 0.0
H708 H 0.10018 0.50932 0.63949 0.0
H709 H 0.10464 0.57823 0.51077 0.0
C710 C 0.2067 0.65871 0.62439 0.0
C711 C 0.2226 0.66456 0.67643 0.0
C712 C 0.21934 0.63844 0.713 0.0
C713 C 0.1996 0.60712 0.69805 0.0
C714 C 0.18363 0.60254 0.64651 0.0
C715 C 0.18696 0.62776 0.61036 0.0
C716 C 0.16338 0.61935 0.56028 0.0
C717 C 0.13754 0.64908 0.55077 0.0
C718 C 0.18508 0.61178 0.51215 0.0
C719 C 0.14484 0.5863 0.57484 0.0
C720 C 0.15759 0.57631 0.62395 0.0
C721 C 0.14254 0.54808 0.64738 0.0
C722 C 0.11302 0.53033 0.62059 0.0
C723 C 0.09866 0.54161 0.57176 0.0
C724 C 0.11535 0.56916 0.54802 0.0
H725 H 0.17658 0.37046 0.29426 0.0
H726 H 0.12491 0.26698 0.28872 0.0
H727 H 0.07679 0.29264 0.338 0.0
H728 H 0.15769 0.39991 0.42303 0.0
H729 H 0.15014 0.44482 0.40798 0.0
H730 H 0.17918 0.41854 0.36987 0.0
H731 H 0.14253 0.42996 0.28274 0.0
H732 H 0.11359 0.45666 0.32056 0.0
H733 H 0.09591 0.41981 0.2768 0.0
H734 H 0.03707 0.32983 0.39632 0.0
H735 H 0.00654 0.37605 0.44843 0.0
H736 H 0.08364 0.45442 0.40997 0.0
C737 C 0.15484 0.35331 0.30266 0.0
C738 C 0.15432 0.31684 0.28759 0.0
C739 C 0.12552 0.29515 0.29937 0.0
C740 C 0.09822 0.30943 0.32765 0.0
C741 C 0.0999 0.34551 0.34296 0.0
C742 C 0.1272 0.3672 0.32988 0.0
C743 C 0.1232 0.405 0.35087 0.0
C744 C 0.1544 0.4178 0.39027 0.0
C745 C 0.11852 0.42928 0.30501 0.0
C746 C 0.08976 0.40121 0.37868 0.0
C747 C 0.07668 0.36676 0.37423 0.0
C748 C 0.04683 0.35699 0.39932 0.0
C749 C 0.02977 0.38328 0.42904 0.0
C750 C 0.04245 0.41882 0.43265 0.0
C751 C 0.07287 0.42759 0.40717 0.0
H752 H 0.0461 0.05282 0.93442 0.0
H753 H 0.95874 0.99116 0.85081 0.0
H754 H 0.94102 0.9717 0.93592 0.0
H755 H 0.06706 0.99127 0.03265 0.0
H756 H 0.07747 0.02478 0.08617 0.0
H757 H 0.08347 0.03431 0.01865 0.0
H758 H 0.04355 0.08794 0.02876 0.0
H759 H 0.03739 0.07854 0.09631 0.0
H760 H 0.99981 0.08159 0.04962 0.0
H761 H 0.93231 0.95871 0.02953 0.0
H762 H 0.93364 0.95226 0.12573 0.0
H763 H 0.02657 0.02188 0.15087 0.0
C764 C 0.0231 0.03541 0.93402 0.0
C765 C 1.00404 0.02334 0.88545 0.0
C766 C 0.97427 1.00031 0.88701 0.0
C767 C 0.96378 0.98928 0.93534 0.0
C768 C 0.98318 1.00149 0.98223 0.0
C769 C 0.01222 0.02403 0.98213 0.0
C770 C 0.02856 0.03282 0.03843 0.0
C771 C 0.06638 0.02002 0.0443 0.0
C772 C 0.02724 0.07259 0.0542 0.0
C773 C 1.00419 0.01162 0.07002 0.0
C774 C 0.97818 0.99385 0.03663 0.0
C775 C 0.95265 0.97238 0.05603 0.0
C776 C 0.9538 0.9687 0.11089 0.0
C777 C 0.9804 0.98622 0.14625 0.0
C778 C 0.00575 0.00826 0.12521 0.0
H779 H 0.26003 0.77409 0.3326 0.0
H780 H 0.28242 0.66333 0.3416 0.0
H781 H 0.2683 0.65294 0.24467 0.0
H782 H 0.18712 0.76154 0.22837 0.0
H783 H 0.19998 0.80055 0.19715 0.0
H784 H 0.20882 0.79843 0.26778 0.0
H785 H 0.27487 0.81241 0.25867 0.0
H786 H 0.26629 0.81441 0.18809 0.0
H787 H 0.29841 0.78481 0.21336 0.0
H788 H 0.2559 0.65564 0.14592 0.0
H789 H 0.24551 0.67119 0.05296 0.0
H790 H 0.23177 0.78023 0.10924 0.0
C791 C 0.26116 0.74749 0.31436 0.0
C792 C 0.27223 0.71949 0.34455 0.0
C793 C 0.27422 0.6852 0.31906 0.0
C794 C 0.26607 0.67901 0.26414 0.0
C795 C 0.25588 0.70736 0.23536 0.0
C796 C 0.25324 0.74089 0.25963 0.0
C797 C 0.24367 0.76722 0.21935 0.0
C798 C 0.20776 0.78285 0.22873 0.0
C799 C 0.27254 0.79642 0.21991 0.0
C800 C 0.24198 0.7434 0.16854 0.0
C801 C 0.24884 0.70893 0.17857 0.0
C802 C 0.25019 0.6825 0.13759 0.0
C803 C 0.2445 0.69161 0.08497 0.0
C804 C 0.23765 0.72686 0.07385 0.0
C805 C 0.2362 0.75291 0.11641 0.0
H806 H 0.46467 0.01941 0.66909 0.0
H807 H 0.57361 0.02661 0.73267 0.0
H808 H 0.59273 0.0163 0.64187 0.0
H809 H 0.47438 0.95062 0.56873 0.0
H810 H 0.44406 0.96814 0.52017 0.0
H811 H 0.43892 0.97722 0.58997 0.0
H812 H 0.44113 0.0444 0.5782 0.0
H813 H 0.44626 0.03551 0.5083 0.0
H814 H 0.47803 0.06371 0.54881 0.0
H815 H 0.60003 1.00364 0.54435 0.0
H816 H 0.59496 0.98942 0.4472 0.0
H817 H 0.48132 0.99085 0.44681 0.0
C818 C 0.49257 0.01932 0.66392 0.0
C819 C 0.51763 0.02379 0.70822 0.0
C820 C 0.55388 0.02282 0.69958 0.0
C821 C 0.56501 0.01721 0.64807 0.0
C822 C 0.53963 0.0127 0.60544 0.0
C823 C 0.50416 0.01375 0.61275 0.0
C824 C 0.48225 1.00729 0.56026 0.0
C825 C 0.45851 0.97382 0.55978 0.0
C826 C 0.46065 0.03966 0.54819 0.0
C827 C 0.51093 1.00215 0.52232 0.0
C828 C 0.54384 1.00547 0.5492 0.0
C829 C 0.57439 1.00104 0.52288 0.0
C830 C 0.57124 0.99277 0.46772 0.0
C831 C 0.53777 0.98896 0.43929 0.0
C832 C 0.50729 0.99403 0.46719 0.0
H833 H 0.20176 0.25499 0.84412 0.0
H834 H 0.30721 0.23582 0.90954 0.0
H835 H 0.32964 0.2421 0.82161 0.0
H836 H 0.20864 0.20717 0.71588 0.0
H837 H 0.18329 0.23808 0.67971 0.0
H838 H 0.17531 0.23174 0.74774 0.0
H839 H 0.18579 0.29881 0.77233 0.0
H840 H 0.19376 0.30536 0.70441 0.0
H841 H 0.22629 0.32011 0.75725 0.0
H842 H 0.3409 0.25112 0.72686 0.0
H843 H 0.34024 0.26276 0.6321 0.0
H844 H 0.22753 0.27583 0.62758 0.0
C845 C 0.22952 0.25174 0.83988 0.0
C846 C 0.25272 0.24501 0.88401 0.0
C847 C 0.28895 0.24149 0.87671 0.0
C848 C 0.30193 0.24476 0.82676 0.0
C849 C 0.2784 0.25151 0.78427 0.0
C850 C 0.24295 0.25496 0.79023 0.0
C851 C 0.2234 0.26279 0.73822 0.0
C852 C 0.19604 0.23318 0.71928 0.0
C853 C 0.20631 0.29892 0.74338 0.0
C854 C 0.25341 0.26329 0.70215 0.0
C855 C 0.28489 0.25667 0.72954 0.0
C856 C 0.3164 0.25633 0.70502 0.0
C857 C 0.31578 0.26317 0.65121 0.0
C858 C 0.28388 0.2703 0.62227 0.0
C859 C 0.25228 0.27006 0.64829 0.0
H860 H 0.77866 0.30543 0.89979 0.0
H861 H 0.76243 0.19658 0.93645 0.0
H862 H 0.74769 0.17932 0.84137 0.0
H863 H 0.70845 0.30577 0.79833 0.0
H864 H 0.73193 0.33318 0.7566 0.0
H865 H 0.74213 0.33704 0.82747 0.0
H866 H 0.8074 0.3252 0.81354 0.0
H867 H 0.7974 0.3213 0.74258 0.0
H868 H 0.81838 0.28587 0.77483 0.0
H869 H 0.73366 0.17378 0.74278 0.0
H870 H 0.72086 0.18038 0.64712 0.0
H871 H 0.74622 0.29272 0.67319 0.0
C872 C 0.7724 0.2779 0.88777 0.0
C873 C 0.77159 0.2524 0.92587 0.0
C874 C 0.76274 0.21673 0.90834 0.0
C875 C 0.75456 0.2066 0.85429 0.0
C876 C 0.75537 0.23238 0.81795 0.0
C877 C 0.76409 0.26729 0.83384 0.0
C878 C 0.76225 0.28982 0.78661 0.0
C879 C 0.73454 0.31812 0.79263 0.0
C880 C 0.79852 0.30653 0.77895 0.0
C881 C 0.75097 0.26212 0.74179 0.0
C882 C 0.74725 0.22917 0.76085 0.0
C883 C 0.73647 0.19946 0.7274 0.0
C884 C 0.72906 0.20353 0.67311 0.0
C885 C 0.73233 0.23708 0.65249 0.0
C886 C 0.74377 0.26667 0.6875 0.0
H887 H 0.77537 0.75038 0.40343 0.0
H888 H 0.67127 0.7935 0.39967 0.0
H889 H 0.67465 0.80409 0.30515 0.0
H890 H 0.81251 0.81117 0.31633 0.0
H891 H 0.83821 0.77812 0.284 0.0
H892 H 0.82801 0.77453 0.35185 0.0
H893 H 0.80037 0.71192 0.3264 0.0
H894 H 0.81045 0.71532 0.2585 0.0
H895 H 0.7659 0.70578 0.27356 0.0
H896 H 0.68867 0.80922 0.21112 0.0
H897 H 0.71253 0.80852 0.12307 0.0
H898 H 0.80745 0.7617 0.18706 0.0
C899 C 0.75346 0.76237 0.38282 0.0
C900 C 0.72297 0.77094 0.40886 0.0
C901 C 0.69467 0.78623 0.38034 0.0
C902 C 0.69643 0.79256 0.32674 0.0
C903 C 0.72668 0.78352 0.30214 0.0
C904 C 0.75472 0.76879 0.32914 0.0
C905 C 0.78386 0.76091 0.29288 0.0
C906 C 0.81765 0.78247 0.31244 0.0
C907 C 0.79052 0.72112 0.28752 0.0
C908 C 0.76771 0.77338 0.2413 0.0
C909 C 0.73475 0.7864 0.24763 0.0
C910 C 0.71444 0.79906 0.20561 0.0
C911 C 0.72813 0.79833 0.15567 0.0
C912 C 0.7618 0.78492 0.14804 0.0
C913 C 0.7818 0.77246 0.19169 0.0
H914 H 0.51981 0.45158 0.59277 0.0
H915 H 0.4875 0.55141 0.66529 0.0
H916 H 0.48667 0.57681 0.57844 0.0
H917 H 0.57639 0.48857 0.50156 0.0
H918 H 0.56447 0.45544 0.44805 0.0
H919 H 0.56261 0.44474 0.516 0.0
H920 H 0.4973 0.42439 0.49649 0.0
H921 H 0.49896 0.43508 0.42849 0.0
H922 H 0.4664 0.45432 0.46878 0.0
H923 H 0.48887 0.59167 0.48437 0.0
H924 H 0.49473 0.5954 0.38867 0.0
H925 H 0.52577 0.48627 0.37521 0.0
C926 C 0.51236 0.47872 0.59032 0.0
C927 C 0.50398 0.49953 0.63623 0.0
C928 C 0.49468 0.53505 0.63116 0.0
C929 C 0.49386 0.54969 0.58183 0.0
C930 C 0.50237 0.52856 0.53759 0.0
C931 C 0.51147 0.49386 0.5412 0.0
C932 C 0.51971 0.47713 0.48727 0.0
C933 C 0.55808 0.46581 0.4883 0.0
C934 C 0.49406 0.44588 0.4692 0.0
C935 C 0.51373 0.50787 0.4529 0.0
C936 C 0.50373 0.53722 0.48291 0.0
C937 C 0.49685 0.56891 0.4605 0.0
C938 C 0.50049 0.57082 0.40606 0.0
C939 C 0.51105 0.54128 0.37424 0.0
C940 C 0.51747 0.50928 0.39821 0.0
H941 H 0.01043 0.51068 0.89837 0.0
H942 H 0.93013 0.42651 0.87859 0.0
H943 H 0.9227 0.43293 0.9749 0.0
H944 H 0.04977 0.48743 0.02266 0.0
H945 H 0.05829 0.53235 0.04963 0.0
H946 H 0.05666 0.52192 0.97887 0.0
H947 H 0.00873 0.5679 0.96483 0.0
H948 H 0.01028 0.57856 0.03556 0.0
H949 H 0.96915 0.56497 0.99921 0.0
H950 H 0.92476 0.44764 0.07375 0.0
H951 H 0.93573 0.46992 0.16777 0.0
H952 H 0.01486 0.54451 0.12383 0.0
C953 C 0.99092 0.49392 0.91412 0.0
C954 C 0.97089 0.46802 0.8807 0.0
C955 C 0.94609 0.44624 0.9033 0.0
C956 C 0.94154 0.44982 0.95797 0.0
C957 C 0.96194 0.47534 0.98977 0.0
C958 C 0.98608 0.49709 0.9687 0.0
C959 C 1.00516 0.52194 1.01185 0.0
C960 C 0.04482 0.51551 1.01598 0.0
C961 C 0.99788 0.56063 1.00228 0.0
C962 C 0.98804 0.51068 0.06046 0.0
C963 C 0.96317 0.48378 0.0468 0.0
C964 C 0.9442 0.4687 0.08489 0.0
C965 C 0.95081 0.48139 0.13833 0.0
C966 C 0.97626 0.50892 0.1535 0.0
C967 C 0.99497 0.52373 0.11368 0.0
loop_
_geom_bond_atom_site_label_1
_geom_bond_atom_site_label_2
_geom_bond_distance
_geom_bond_site_symmetry_2
_ccdc_geom_bond_type
Eu0 C9 2.828 1_655 S
Eu0 O11 2.392 . S
Eu0 O13 2.418 1_655 S
Eu0 O18 2.373 1_665 S
Eu0 O21 2.488 1_655 S
Eu0 O22 2.471 . S
Eu0 O23 2.349 1_565 S
Eu1 O10 2.373 1_445 S
Eu1 O14 2.488 1_455 S
Eu1 O15 2.471 . S
Eu1 O16 2.349 1_545 S
Eu1 O19 2.392 . S
Eu1 O20 2.418 1_455 S
Eu1 C30 2.828 1_455 S
C2 O20 1.244 . S
C2 O23 1.265 . S
C3 C4 1.372 1_465 S
C3 C7 1.373 . S
C3 C9 1.505 . S
C4 C3 1.372 1_645 S
C4 C6 1.359 1_655 S
C4 H32 0.948 . S
C5 C7 1.383 . S
C5 C8 1.382 . S
C5 H33 0.930 . S
C6 C4 1.359 1_455 S
C6 C8 1.392 1_545 S
C6 H34 0.930 1_455 S
C7 C3 1.373 . S
C7 C5 1.383 . S
C7 H35 0.931 . S
C8 C5 1.382 . S
C8 C6 1.392 1_565 S
C9 Eu0 2.828 1_455 S
C9 C3 1.505 . S
C9 O21 1.249 . S
C9 O22 1.244 1_455 S
O10 Eu1 2.373 1_665 S
O10 C12 1.258 . S
O11 Eu0 2.392 . S
O11 C12 1.242 . S
C12 O10 1.258 . S
C12 O11 1.242 . S
O13 Eu0 2.418 1_455 S
O13 C17 1.244 . S
O14 Eu1 2.488 1_655 S
O14 C30 1.249 . S
O15 Eu1 2.471 . S
O15 C30 1.244 1_455 S
O16 Eu1 2.349 1_565 S
O16 C17 1.265 . S
C17 O13 1.244 . S
C17 O16 1.265 . S
O18 Eu0 2.373 1_445 S
O18 C31 1.258 . S
O19 Eu1 2.392 . S
O19 C31 1.242 . S
O20 Eu1 2.418 1_655 S
O20 C2 1.244 . S
O21 Eu0 2.488 1_455 S
O21 C9 1.249 . S
O22 Eu0 2.471 . S
O22 C9 1.244 1_655 S
O23 Eu0 2.349 1_545 S
O23 C2 1.265 . S
C24 C25 1.379 1_645 S
C24 C28 1.373 . S
C24 C30 1.505 . S
C25 C24 1.379 1_465 S
C25 C27 1.369 1_455 S
C25 H36 0.930 . S
C26 C28 1.383 . S
C26 C29 1.382 . S
C26 H37 0.930 . S
C27 C25 1.369 1_655 S
C27 C29 1.392 1_565 S
C27 H38 0.930 1_655 S
C28 C24 1.373 . S
C28 C26 1.383 . S
C28 H39 0.931 . S
C29 C26 1.382 . S
C29 C27 1.392 1_545 S
C30 Eu1 2.828 1_655 S
C30 O14 1.249 . S
C30 O15 1.244 1_655 S
C30 C24 1.505 . S
C31 O18 1.258 . S
C31 O19 1.242 . S
H32 C4 0.948 . S
H33 C5 0.930 . S
H34 C6 0.930 1_655 S
H35 C7 0.931 . S
H36 C25 0.930 . S
H37 C26 0.930 . S
H38 C27 0.930 1_455 S
H39 C28 0.931 . S
Eu40 C49 2.828 . S
Eu40 O51 2.392 . S
Eu40 O53 2.418 . S
Eu40 O58 2.373 . S
Eu40 O61 2.488 . S
Eu40 O62 2.471 . S
Eu40 O63 2.349 . S
Eu41 O50 2.373 . S
Eu41 O54 2.488 . S
Eu41 O55 2.471 . S
Eu41 O56 2.349 . S
Eu41 O59 2.392 . S
Eu41 O60 2.418 . S
Eu41 C70 2.828 . S
C42 O60 1.244 . S
C42 O63 1.265 . S
C43 C44 1.379 . S
C43 C47 1.373 . S
C43 C49 1.505 . S
C44 C43 1.379 . S
C44 C46 1.369 . S
C44 H72 0.930 . S
C45 C47 1.383 . S
C45 C48 1.382 . S
C45 H73 0.930 . S
C46 C44 1.369 . S
C46 C48 1.392 . S
C46 H74 0.930 . S
C47 C43 1.373 . S
C47 C45 1.383 . S
C47 H75 0.931 . S
C48 C45 1.382 . S
C48 C46 1.392 . S
C49 Eu40 2.828 . S
C49 C43 1.505 . S
C49 O61 1.249 . S
C49 O62 1.244 . S
O50 Eu41 2.373 . S
O50 C52 1.258 . S
O51 Eu40 2.392 . S
O51 C52 1.242 . S
C52 O50 1.258 . S
C52 O51 1.242 . S
O53 Eu40 2.418 . S
O53 C57 1.244 . S
O54 Eu41 2.488 . S
O54 C70 1.249 . S
O55 Eu41 2.471 . S
O55 C70 1.244 . S
O56 Eu41 2.349 . S
O56 C57 1.265 . S
C57 O53 1.244 . S
C57 O56 1.265 . S
O58 Eu40 2.373 . S
O58 C71 1.258 . S
O59 Eu41 2.392 . S
O59 C71 1.242 . S
O60 Eu41 2.418 . S
O60 C42 1.244 . S
O61 Eu40 2.488 . S
O61 C49 1.249 . S
O62 Eu40 2.471 . S
O62 C49 1.244 . S
O63 Eu40 2.349 . S
O63 C42 1.265 . S
C64 C65 1.379 . S
C64 C68 1.373 . S
C64 C70 1.505 . S
C65 C64 1.379 . S
C65 C67 1.369 1_556 S
C65 H76 0.930 . S
C66 C68 1.383 1_554 S
C66 C69 1.382 . S
C66 H77 0.930 . S
C67 C65 1.369 1_554 S
C67 C69 1.392 . S
C67 H78 0.930 . S
C68 C64 1.373 . S
C68 C66 1.383 1_556 S
C68 H79 0.931 . S
C69 C66 1.382 . S
C69 C67 1.392 . S
C70 Eu41 2.828 . S
C70 O54 1.249 . S
C70 O55 1.244 . S
C70 C64 1.505 . S
C71 O58 1.258 . S
C71 O59 1.242 . S
H72 C44 0.930 . S
H73 C45 0.930 . S
H74 C46 0.930 . S
H75 C47 0.931 . S
H76 C65 0.930 . S
H77 C66 0.930 . S
H78 C67 0.930 . S
H79 C68 0.931 . S
Eu80 C89 2.828 . S
Eu80 O91 2.392 1_554 S
Eu80 O93 2.418 . S
Eu80 O98 2.373 1_565 S
Eu80 O101 2.488 . S
Eu80 O102 2.461 1_565 S
Eu80 O103 2.349 1_565 S
Eu81 O90 2.373 1_545 S
Eu81 O94 2.488 . S
Eu81 O95 2.463 1_545 S
Eu81 O96 2.349 1_545 S
Eu81 O99 2.392 1_556 S
Eu81 O100 2.418 . S
Eu81 C110 2.828 . S
C82 O100 1.244 1_554 S
C82 O103 1.265 . S
C83 C84 1.379 1_565 S
C83 C87 1.373 . S
C83 C89 1.505 . S
C84 C83 1.379 1_545 S
C84 C86 1.369 . S
C84 H112 0.930 . S
C85 C87 1.383 . S
C85 C88 1.382 1_565 S
C85 H113 0.930 . S
C86 C84 1.369 . S
C86 C88 1.392 . S
C86 H114 0.930 . S
C87 C83 1.373 . S
C87 C85 1.383 . S
C87 H115 0.931 . S
C88 C85 1.382 1_545 S
C88 C86 1.392 . S
C89 Eu80 2.828 . S
C89 C83 1.505 . S
C89 O101 1.249 . S
C89 O102 1.224 1_565 S
O90 Eu81 2.373 1_565 S
O90 C92 1.258 . S
O91 Eu80 2.392 1_556 S
O91 C92 1.242 . S
C92 O90 1.258 . S
C92 O91 1.242 . S
O93 Eu80 2.418 . S
O93 C97 1.244 1_554 S
O94 Eu81 2.488 . S
O94 C110 1.249 . S
O95 Eu81 2.463 1_565 S
O95 C110 1.229 1_565 S
O96 Eu81 2.349 1_565 S
O96 C97 1.265 . S
C97 O93 1.244 1_556 S
C97 O96 1.265 . S
O98 Eu80 2.373 1_545 S
O98 C111 1.258 . S
O99 Eu81 2.392 1_554 S
O99 C111 1.242 . S
O100 Eu81 2.418 . S
O100 C82 1.244 1_556 S
O101 Eu80 2.488 . S
O101 C89 1.249 . S
O102 Eu80 2.461 1_545 S
O102 C89 1.224 1_545 S
O103 Eu80 2.349 1_545 S
O103 C82 1.265 . S
C104 C105 1.379 1_545 S
C104 C108 1.373 . S
C104 C110 1.505 . S
C105 C104 1.379 1_565 S
C105 C107 1.369 . S
C105 H116 0.930 . S
C106 C108 1.383 . S
C106 C109 1.382 1_545 S
C106 H117 0.930 . S
C107 C105 1.369 . S
C107 C109 1.392 . S
C107 H118 0.930 . S
C108 C104 1.373 . S
C108 C106 1.383 . S
C108 H119 0.931 . S
C109 C106 1.382 1_565 S
C109 C107 1.392 . S
C110 Eu81 2.828 . S
C110 O94 1.249 . S
C110 O95 1.229 1_545 S
C110 C104 1.505 . S
C111 O98 1.258 . S
C111 O99 1.242 . S
H112 C84 0.930 . S
H113 C85 0.930 . S
H114 C86 0.930 . S
H115 C87 0.931 . S
H116 C105 0.930 . S
H117 C106 0.930 . S
H118 C107 0.930 . S
H119 C108 0.931 . S
Eu120 C129 2.828 . S
Eu120 O131 2.392 . S
Eu120 O133 2.418 . S
Eu120 O138 2.373 . S
Eu120 O141 2.488 . S
Eu120 O142 2.471 . S
Eu120 O143 2.349 . S
Eu121 O130 2.373 . S
Eu121 O134 2.488 . S
Eu121 O135 2.471 . S
Eu121 O136 2.349 . S
Eu121 O139 2.392 . S
Eu121 O140 2.418 . S
Eu121 C150 2.828 . S
C122 O140 1.244 . S
C122 O143 1.265 . S
C123 C124 1.379 . S
C123 C127 1.373 . S
C123 C129 1.505 . S
C124 C123 1.379 . S
C124 C126 1.369 . S
C124 H152 0.930 . S
C125 C127 1.383 . S
C125 C128 1.382 . S
C125 H153 0.930 . S
C126 C124 1.369 . S
C126 C128 1.392 . S
C126 H154 0.930 . S
C127 C123 1.373 . S
C127 C125 1.383 . S
C127 H155 0.931 . S
C128 C125 1.382 . S
C128 C126 1.392 . S
C129 Eu120 2.828 . S
C129 C123 1.505 . S
C129 O141 1.249 . S
C129 O142 1.244 . S
O130 Eu121 2.373 . S
O130 C132 1.258 . S
O131 Eu120 2.392 . S
O131 C132 1.242 . S
C132 O130 1.258 . S
C132 O131 1.242 . S
O133 Eu120 2.418 . S
O133 C137 1.244 . S
O134 Eu121 2.488 . S
O134 C150 1.249 . S
O135 Eu121 2.471 . S
O135 C150 1.244 . S
O136 Eu121 2.349 . S
O136 C137 1.265 . S
C137 O133 1.244 . S
C137 O136 1.265 . S
O138 Eu120 2.373 . S
O138 C151 1.258 . S
O139 Eu121 2.392 . S
O139 C151 1.242 . S
O140 Eu121 2.418 . S
O140 C122 1.244 . S
O141 Eu120 2.488 . S
O141 C129 1.249 . S
O142 Eu120 2.471 . S
O142 C129 1.244 . S
O143 Eu120 2.349 . S
O143 C122 1.265 . S
C144 C145 1.379 . S
C144 C148 1.373 . S
C144 C150 1.505 . S
C145 C144 1.379 . S
C145 C147 1.369 1_554 S
C145 H156 0.930 . S
C146 C148 1.383 1_556 S
C146 C149 1.382 . S
C146 H157 0.930 . S
C147 C145 1.369 1_556 S
C147 C149 1.392 . S
C147 H158 0.930 . S
C148 C144 1.373 . S
C148 C146 1.383 1_554 S
C148 H159 0.930 . S
C149 C146 1.382 . S
C149 C147 1.392 . S
C150 Eu121 2.828 . S
C150 O134 1.249 . S
C150 O135 1.244 . S
C150 C144 1.505 . S
C151 O138 1.258 . S
C151 O139 1.242 . S
H152 C124 0.930 . S
H153 C125 0.930 . S
H154 C126 0.930 . S
H155 C127 0.931 . S
H156 C145 0.930 . S
H157 C146 0.930 . S
H158 C147 0.930 . S
H159 C148 0.930 . S
Eu160 C169 2.828 . S
Eu160 O171 2.392 . S
Eu160 O173 2.418 . S
Eu160 O178 2.373 . S
Eu160 O181 2.488 . S
Eu160 O182 2.471 . S
Eu160 O183 2.349 . S
Eu161 O170 2.373 . S
Eu161 O174 2.488 . S
Eu161 O175 2.471 . S
Eu161 O176 2.349 . S
Eu161 O179 2.392 . S
Eu161 O180 2.418 . S
Eu161 C190 2.828 . S
C162 O180 1.244 . S
C162 O183 1.265 . S
C163 C164 1.379 . S
C163 C167 1.373 . S
C163 C169 1.505 . S
C164 C163 1.379 . S
C164 C166 1.369 1_554 S
C164 H192 0.930 . S
C165 C167 1.383 1_556 S
C165 C168 1.382 . S
C165 H193 0.930 . S
C166 C164 1.369 1_556 S
C166 C168 1.392 . S
C166 H194 0.930 . S
C167 C163 1.373 . S
C167 C165 1.383 1_554 S
C167 H195 0.931 . S
C168 C165 1.382 . S
C168 C166 1.392 . S
C169 Eu160 2.828 . S
C169 C163 1.505 . S
C169 O181 1.249 . S
C169 O182 1.244 . S
O170 Eu161 2.373 . S
O170 C172 1.258 . S
O171 Eu160 2.392 . S
O171 C172 1.242 . S
C172 O170 1.258 . S
C172 O171 1.242 . S
O173 Eu160 2.418 . S
O173 C177 1.244 . S
O174 Eu161 2.488 . S
O174 C190 1.249 . S
O175 Eu161 2.471 . S
O175 C190 1.244 . S
O176 Eu161 2.349 . S
O176 C177 1.265 . S
C177 O173 1.244 . S
C177 O176 1.265 . S
O178 Eu160 2.373 . S
O178 C191 1.258 . S
O179 Eu161 2.392 . S
O179 C191 1.242 . S
O180 Eu161 2.418 . S
O180 C162 1.244 . S
O181 Eu160 2.488 . S
O181 C169 1.249 . S
O182 Eu160 2.471 . S
O182 C169 1.244 . S
O183 Eu160 2.349 . S
O183 C162 1.265 . S
C184 C185 1.379 . S
C184 C188 1.373 . S
C184 C190 1.505 . S
C185 C184 1.379 . S
C185 C187 1.369 . S
C185 H196 0.930 . S
C186 C188 1.383 . S
C186 C189 1.382 . S
C186 H197 0.930 . S
C187 C185 1.369 . S
C187 C189 1.392 . S
C187 H198 0.930 . S
C188 C184 1.373 . S
C188 C186 1.383 . S
C188 H199 0.931 . S
C189 C186 1.382 . S
C189 C187 1.392 . S
C190 Eu161 2.828 . S
C190 O174 1.249 . S
C190 O175 1.244 . S
C190 C184 1.505 . S
C191 O178 1.258 . S
C191 O179 1.242 . S
H192 C164 0.930 . S
H193 C165 0.930 . S
H194 C166 0.930 . S
H195 C167 0.931 . S
H196 C185 0.930 . S
H197 C186 0.930 . S
H198 C187 0.930 . S
H199 C188 0.931 . S
Eu200 C209 2.828 . S
Eu200 O211 2.392 . S
Eu200 O213 2.418 . S
Eu200 O218 2.373 . S
Eu200 O221 2.488 . S
Eu200 O222 2.471 . S
Eu200 O223 2.349 . S
Eu201 O210 2.373 . S
Eu201 O214 2.488 . S
Eu201 O215 2.471 . S
Eu201 O216 2.349 . S
Eu201 O219 2.392 . S
Eu201 O220 2.418 . S
Eu201 C230 2.828 . S
C202 O220 1.244 . S
C202 O223 1.265 . S
C203 C204 1.379 . S
C203 C207 1.372 . S
C203 C209 1.505 . S
C204 C203 1.379 . S
C204 C206 1.369 1_556 S
C204 H232 0.930 . S
C205 C207 1.385 1_554 S
C205 C208 1.382 . S
C205 H233 0.930 . S
C206 C204 1.369 1_554 S
C206 C208 1.392 . S
C206 H234 0.930 . S
C207 C203 1.372 . S
C207 C205 1.385 1_556 S
C207 H235 0.930 . S
C208 C205 1.382 . S
C208 C206 1.392 . S
C209 Eu200 2.828 . S
C209 C203 1.505 . S
C209 O221 1.249 . S
C209 O222 1.244 . S
O210 Eu201 2.373 . S
O210 C212 1.258 . S
O211 Eu200 2.392 . S
O211 C212 1.242 . S
C212 O210 1.258 . S
C212 O211 1.242 . S
O213 Eu200 2.418 . S
O213 C217 1.244 . S
O214 Eu201 2.488 . S
O214 C230 1.249 . S
O215 Eu201 2.471 . S
O215 C230 1.244 . S
O216 Eu201 2.349 . S
O216 C217 1.265 . S
C217 O213 1.244 . S
C217 O216 1.265 . S
O218 Eu200 2.373 . S
O218 C231 1.258 . S
O219 Eu201 2.392 . S
O219 C231 1.242 . S
O220 Eu201 2.418 . S
O220 C202 1.244 . S
O221 Eu200 2.488 . S
O221 C209 1.249 . S
O222 Eu200 2.471 . S
O222 C209 1.244 . S
O223 Eu200 2.349 . S
O223 C202 1.265 . S
C224 C225 1.379 . S
C224 C228 1.373 . S
C224 C230 1.505 . S
C225 C224 1.379 . S
C225 C227 1.369 . S
C225 H236 0.930 . S
C226 C228 1.383 . S
C226 C229 1.382 . S
C226 H237 0.930 . S
C227 C225 1.369 . S
C227 C229 1.392 . S
C227 H238 0.930 . S
C228 C224 1.373 . S
C228 C226 1.383 . S
C228 H239 0.931 . S
C229 C226 1.382 . S
C229 C227 1.392 . S
C230 Eu201 2.828 . S
C230 O214 1.249 . S
C230 O215 1.244 . S
C230 C224 1.505 . S
C231 O218 1.258 . S
C231 O219 1.242 . S
H232 C204 0.930 . S
H233 C205 0.930 . S
H234 C206 0.930 . S
H235 C207 0.930 . S
H236 C225 0.930 . S
H237 C226 0.930 . S
H238 C227 0.930 . S
H239 C228 0.931 . S
Eu240 C249 2.828 . S
Eu240 O251 2.392 . S
Eu240 O253 2.418 . S
Eu240 O258 2.373 . S
Eu240 O261 2.488 . S
Eu240 O262 2.471 . S
Eu240 O263 2.349 . S
Eu241 O250 2.373 . S
Eu241 O254 2.488 . S
Eu241 O255 2.471 . S
Eu241 O256 2.349 . S
Eu241 O259 2.392 . S
Eu241 O260 2.418 . S
Eu241 C270 2.828 . S
C242 O260 1.244 1_556 S
C242 O263 1.265 . S
C243 C244 1.379 . S
C243 C247 1.373 . S
C243 C249 1.505 . S
C244 C243 1.379 . S
C244 C246 1.369 . S
C244 H272 0.930 . S
C245 C247 1.383 . S
C245 C248 1.382 . S
C245 H273 0.930 . S
C246 C244 1.369 . S
C246 C248 1.392 . S
C246 H274 0.930 . S
C247 C243 1.373 . S
C247 C245 1.383 . S
C247 H275 0.931 . S
C248 C245 1.382 . S
C248 C246 1.392 . S
C249 Eu240 2.828 . S
C249 C243 1.505 . S
C249 O261 1.249 . S
C249 O262 1.244 . S
O250 Eu241 2.373 . S
O250 C252 1.258 . S
O251 Eu240 2.392 . S
O251 C252 1.242 1_556 S
C252 O250 1.258 . S
C252 O251 1.242 1_554 S
O253 Eu240 2.418 . S
O253 C257 1.244 1_556 S
O254 Eu241 2.488 . S
O254 C270 1.249 . S
O255 Eu241 2.471 . S
O255 C270 1.244 . S
O256 Eu241 2.349 . S
O256 C257 1.265 . S
C257 O253 1.244 1_554 S
C257 O256 1.265 . S
O258 Eu240 2.373 . S
O258 C271 1.258 . S
O259 Eu241 2.392 . S
O259 C271 1.242 1_554 S
O260 Eu241 2.418 . S
O260 C242 1.244 1_554 S
O261 Eu240 2.488 . S
O261 C249 1.249 . S
O262 Eu240 2.471 . S
O262 C249 1.244 . S
O263 Eu240 2.349 . S
O263 C242 1.265 . S
C264 C265 1.379 . S
C264 C268 1.373 . S
C264 C270 1.505 . S
C265 C264 1.379 . S
C265 C267 1.369 . S
C265 H276 0.930 . S
C266 C268 1.383 . S
C266 C269 1.382 . S
C266 H277 0.930 . S
C267 C265 1.369 . S
C267 C269 1.392 . S
C267 H278 0.930 . S
C268 C264 1.373 . S
C268 C266 1.383 . S
C268 H279 0.931 . S
C269 C266 1.382 . S
C269 C267 1.392 . S
C270 Eu241 2.828 . S
C270 O254 1.249 . S
C270 O255 1.244 . S
C270 C264 1.505 . S
C271 O258 1.258 . S
C271 O259 1.242 1_556 S
H272 C244 0.930 . S
H273 C245 0.930 . S
H274 C246 0.930 . S
H275 C247 0.931 . S
H276 C265 0.930 . S
H277 C266 0.930 . S
H278 C267 0.930 . S
H279 C268 0.931 . S
Eu280 C289 2.828 1_455 S
Eu280 O291 2.392 . S
Eu280 O293 2.418 1_455 S
Eu280 O298 2.373 1_455 S
Eu280 O301 2.488 1_455 S
Eu280 O302 2.471 . S
Eu280 O303 2.349 . S
Eu281 O290 2.373 1_655 S
Eu281 O294 2.488 1_655 S
Eu281 O295 2.471 . S
Eu281 O296 2.349 . S
Eu281 O299 2.392 . S
Eu281 O300 2.418 1_655 S
Eu281 C310 2.828 1_655 S
C282 O300 1.244 . S
C282 O303 1.265 . S
C283 C284 1.379 1_655 S
C283 C287 1.373 . S
C283 C289 1.505 . S
C284 C283 1.379 1_455 S
C284 C286 1.369 1_455 S
C284 H312 0.930 . S
C285 C287 1.383 . S
C285 C288 1.382 . S
C285 H313 0.930 . S
C286 C284 1.369 1_655 S
C286 C288 1.392 . S
C286 H314 0.930 1_655 S
C287 C283 1.373 . S
C287 C285 1.383 . S
C287 H315 0.931 . S
C288 C285 1.382 . S
C288 C286 1.392 . S
C289 Eu280 2.828 1_655 S
C289 C283 1.505 . S
C289 O301 1.249 . S
C289 O302 1.244 1_655 S
O290 Eu281 2.373 1_455 S
O290 C292 1.258 . S
O291 Eu280 2.392 . S
O291 C292 1.242 . S
C292 O290 1.258 . S
C292 O291 1.242 . S
O293 Eu280 2.418 1_655 S
O293 C297 1.244 . S
O294 Eu281 2.488 1_455 S
O294 C310 1.249 . S
O295 Eu281 2.471 . S
O295 C310 1.244 1_655 S
O296 Eu281 2.349 . S
O296 C297 1.265 . S
C297 O293 1.244 . S
C297 O296 1.265 . S
O298 Eu280 2.373 1_655 S
O298 C311 1.258 . S
O299 Eu281 2.392 . S
O299 C311 1.242 . S
O300 Eu281 2.418 1_455 S
O300 C282 1.244 . S
O301 Eu280 2.488 1_655 S
O301 C289 1.249 . S
O302 Eu280 2.471 . S
O302 C289 1.244 1_455 S
O303 Eu280 2.349 . S
O303 C282 1.265 . S
C304 C305 1.379 1_455 S
C304 C308 1.373 . S
C304 C310 1.505 . S
C305 C304 1.379 1_655 S
C305 C307 1.369 1_655 S
C305 H316 0.930 . S
C306 C308 1.383 . S
C306 C309 1.382 . S
C306 H317 0.930 . S
C307 C305 1.369 1_455 S
C307 C309 1.392 . S
C307 H318 0.930 1_455 S
C308 C304 1.373 . S
C308 C306 1.383 . S
C308 H319 0.931 . S
C309 C306 1.382 . S
C309 C307 1.392 . S
C310 Eu281 2.828 1_455 S
C310 O294 1.249 . S
C310 O295 1.244 1_455 S
C310 C304 1.505 . S
C311 O298 1.258 . S
C311 O299 1.242 . S
H312 C284 0.930 . S
H313 C285 0.930 . S
H314 C286 0.930 1_455 S
H315 C287 0.931 . S
H316 C305 0.930 . S
H317 C306 0.930 . S
H318 C307 0.930 1_655 S
H319 C308 0.931 . S
H320 C332 0.930 . S
H321 C334 0.930 . S
H322 C335 0.930 . S
H323 C339 0.959 . S
H324 C339 0.959 . S
H325 C339 0.961 . S
H326 C340 0.960 . S
H327 C340 0.961 . S
H328 C340 0.959 . S
H329 C343 0.929 . S
H330 C344 0.931 . S
H331 C346 0.930 . S
C332 H320 0.930 . S
C332 C333 1.399 . S
C332 C337 1.399 . S
C333 C332 1.399 . S
C333 C334 1.376 . S
C334 H321 0.930 . S
C334 C333 1.376 . S
C334 C335 1.388 . S
C335 H322 0.930 . S
C335 C334 1.388 . S
C335 C336 1.390 . S
C336 C335 1.390 . S
C336 C337 1.394 . S
C336 C342 1.465 . S
C337 C332 1.399 . S
C337 C336 1.394 . S
C337 C338 1.516 . S
C338 C337 1.516 . S
C338 C339 1.502 . S
C338 C340 1.561 . S
C338 C341 1.526 . S
C339 H323 0.959 . S
C339 H324 0.959 . S
C339 H325 0.961 . S
C339 C338 1.502 . S
C340 H326 0.960 . S
C340 H327 0.961 . S
C340 H328 0.959 . S
C340 C338 1.561 . S
C341 C338 1.526 . S
C341 C342 1.396 . S
C341 C346 1.390 . S
C342 C336 1.465 . S
C342 C341 1.396 . S
C342 C343 1.399 . S
C343 H329 0.929 . S
C343 C342 1.399 . S
C343 C344 1.385 . S
C344 H330 0.931 . S
C344 C343 1.385 . S
C344 C345 1.389 . S
C345 C344 1.389 . S
C345 C346 1.387 . S
C346 H331 0.930 . S
C346 C341 1.390 . S
C346 C345 1.387 . S
H347 C359 0.930 . S
H348 C361 0.930 . S
H349 C362 0.930 . S
H350 C366 0.959 . S
H351 C366 0.959 . S
H352 C366 0.961 . S
H353 C367 0.960 . S
H354 C367 0.961 . S
H355 C367 0.959 . S
H356 C370 0.929 . S
H357 C371 0.931 . S
H358 C373 0.930 . S
C359 H347 0.930 . S
C359 C360 1.399 . S
C359 C364 1.399 . S
C360 C359 1.399 . S
C360 C361 1.376 . S
C361 H348 0.930 . S
C361 C360 1.376 . S
C361 C362 1.388 . S
C362 H349 0.930 . S
C362 C361 1.388 . S
C362 C363 1.390 . S
C363 C362 1.390 . S
C363 C364 1.394 . S
C363 C369 1.465 . S
C364 C359 1.399 . S
C364 C363 1.394 . S
C364 C365 1.516 . S
C365 C364 1.516 . S
C365 C366 1.502 . S
C365 C367 1.561 . S
C365 C368 1.526 . S
C366 H350 0.959 . S
C366 H351 0.959 . S
C366 H352 0.961 . S
C366 C365 1.502 . S
C367 H353 0.960 . S
C367 H354 0.961 . S
C367 H355 0.959 . S
C367 C365 1.561 . S
C368 C365 1.526 . S
C368 C369 1.396 . S
C368 C373 1.390 . S
C369 C363 1.465 . S
C369 C368 1.396 . S
C369 C370 1.399 . S
C370 H356 0.929 . S
C370 C369 1.399 . S
C370 C371 1.385 . S
C371 H357 0.931 . S
C371 C370 1.385 . S
C371 C372 1.389 . S
C372 C371 1.389 . S
C372 C373 1.387 . S
C373 H358 0.930 . S
C373 C368 1.390 . S
C373 C372 1.387 . S
H374 C386 0.930 . S
H375 C388 0.930 . S
H376 C389 0.930 . S
H377 C393 0.959 . S
H378 C393 0.978 . S
H379 C393 0.961 . S
H380 C394 0.960 . S
H381 C394 0.961 . S
H382 C394 0.959 . S
H383 C397 0.929 . S
H384 C398 0.931 . S
H385 C400 0.930 . S
C386 H374 0.930 . S
C386 C387 1.399 . S
C386 C391 1.399 . S
C387 C386 1.399 . S
C387 C388 1.376 . S
C388 H375 0.930 . S
C388 C387 1.376 . S
C388 C389 1.388 . S
C389 H376 0.930 . S
C389 C388 1.388 . S
C389 C390 1.390 . S
C390 C389 1.390 . S
C390 C391 1.394 . S
C390 C396 1.465 . S
C391 C386 1.399 . S
C391 C390 1.394 . S
C391 C392 1.516 . S
C392 C391 1.516 . S
C392 C393 1.502 . S
C392 C394 1.561 . S
C392 C395 1.526 . S
C393 H377 0.959 . S
C393 H378 0.978 . S
C393 H379 0.961 . S
C393 C392 1.502 . S
C394 H380 0.960 . S
C394 H381 0.961 . S
C394 H382 0.959 . S
C394 C392 1.561 . S
C395 C392 1.526 . S
C395 C396 1.396 . S
C395 C400 1.390 . S
C396 C390 1.465 . S
C396 C395 1.396 . S
C396 C397 1.399 . S
C397 H383 0.929 . S
C397 C396 1.399 . S
C397 C398 1.385 . S
C398 H384 0.931 . S
C398 C397 1.385 . S
C398 C399 1.389 . S
C399 C398 1.389 . S
C399 C400 1.387 . S
C400 H385 0.930 . S
C400 C395 1.390 . S
C400 C399 1.387 . S
H401 C413 0.930 . S
H402 C415 0.930 . S
H403 C416 0.930 . S
H404 C420 0.959 . S
H405 C420 0.959 . S
H406 C420 0.961 . S
H407 C421 0.960 . S
H408 C421 0.961 . S
H409 C421 0.959 . S
H410 C424 0.929 . S
H411 C425 0.931 . S
H412 C427 0.930 . S
C413 H401 0.930 . S
C413 C414 1.399 . S
C413 C418 1.399 . S
C414 C413 1.399 . S
C414 C415 1.376 . S
C415 H402 0.930 . S
C415 C414 1.376 . S
C415 C416 1.388 . S
C416 H403 0.930 . S
C416 C415 1.388 . S
C416 C417 1.390 . S
C417 C416 1.390 . S
C417 C418 1.394 . S
C417 C423 1.465 . S
C418 C413 1.399 . S
C418 C417 1.394 . S
C418 C419 1.516 . S
C419 C418 1.516 . S
C419 C420 1.502 . S
C419 C421 1.561 . S
C419 C422 1.526 . S
C420 H404 0.959 . S
C420 H405 0.959 . S
C420 H406 0.961 . S
C420 C419 1.502 . S
C421 H407 0.960 . S
C421 H408 0.961 . S
C421 H409 0.959 . S
C421 C419 1.561 . S
C422 C419 1.526 . S
C422 C423 1.396 . S
C422 C427 1.390 . S
C423 C417 1.465 . S
C423 C422 1.396 . S
C423 C424 1.399 . S
C424 H410 0.929 . S
C424 C423 1.399 . S
C424 C425 1.385 . S
C425 H411 0.931 . S
C425 C424 1.385 . S
C425 C426 1.389 . S
C426 C425 1.389 . S
C426 C427 1.387 . S
C427 H412 0.930 . S
C427 C422 1.390 . S
C427 C426 1.387 . S
H428 C440 0.930 . S
H429 C442 0.930 . S
H430 C443 0.930 . S
H431 C447 0.959 . S
H432 C447 0.959 . S
H433 C447 0.961 . S
H434 C448 0.960 . S
H435 C448 0.961 . S
H436 C448 0.959 . S
H437 C451 0.929 . S
H438 C452 0.931 . S
H439 C454 0.930 . S
C440 H428 0.930 . S
C440 C441 1.399 . S
C440 C445 1.399 . S
C441 C440 1.399 . S
C441 C442 1.376 . S
C442 H429 0.930 . S
C442 C441 1.376 . S
C442 C443 1.388 . S
C443 H430 0.930 . S
C443 C442 1.388 . S
C443 C444 1.390 . S
C444 C443 1.390 . S
C444 C445 1.394 . S
C444 C450 1.465 . S
C445 C440 1.399 . S
C445 C444 1.394 . S
C445 C446 1.516 . S
C446 C445 1.516 . S
C446 C447 1.502 . S
C446 C448 1.561 . S
C446 C449 1.526 . S
C447 H431 0.959 . S
C447 H432 0.959 . S
C447 H433 0.961 . S
C447 C446 1.502 . S
C448 H434 0.960 . S
C448 H435 0.961 . S
C448 H436 0.959 . S
C448 C446 1.561 . S
C449 C446 1.526 . S
C449 C450 1.396 . S
C449 C454 1.390 . S
C450 C444 1.465 . S
C450 C449 1.396 . S
C450 C451 1.399 . S
C451 H437 0.929 . S
C451 C450 1.399 . S
C451 C452 1.385 . S
C452 H438 0.931 . S
C452 C451 1.385 . S
C452 C453 1.389 . S
C453 C452 1.389 . S
C453 C454 1.387 . S
C454 H439 0.930 . S
C454 C449 1.390 . S
C454 C453 1.387 . S
H455 C467 0.930 . S
H456 C469 0.930 . S
H457 C470 0.930 . S
H458 C474 0.959 . S
H459 C474 0.959 . S
H460 C474 0.961 . S
H461 C475 0.960 . S
H462 C475 0.961 . S
H463 C475 0.959 . S
H464 C478 0.929 . S
H465 C479 0.931 . S
H466 C481 0.930 . S
C467 H455 0.930 . S
C467 C468 1.399 . S
C467 C472 1.399 . S
C468 C467 1.399 . S
C468 C469 1.376 . S
C469 H456 0.930 . S
C469 C468 1.376 . S
C469 C470 1.388 . S
C470 H457 0.930 . S
C470 C469 1.388 . S
C470 C471 1.390 . S
C471 C470 1.390 . S
C471 C472 1.394 . S
C471 C477 1.465 . S
C472 C467 1.399 . S
C472 C471 1.394 . S
C472 C473 1.516 . S
C473 C472 1.516 . S
C473 C474 1.502 . S
C473 C475 1.561 . S
C473 C476 1.526 . S
C474 H458 0.959 . S
C474 H459 0.959 . S
C474 H460 0.961 . S
C474 C473 1.502 . S
C475 H461 0.960 . S
C475 H462 0.961 . S
C475 H463 0.959 . S
C475 C473 1.561 . S
C476 C473 1.526 . S
C476 C477 1.396 . S
C476 C481 1.390 . S
C477 C471 1.465 . S
C477 C476 1.396 . S
C477 C478 1.399 . S
C478 H464 0.929 . S
C478 C477 1.399 . S
C478 C479 1.385 . S
C479 H465 0.931 . S
C479 C478 1.385 . S
C479 C480 1.389 . S
C480 C479 1.389 . S
C480 C481 1.387 . S
C481 H466 0.930 . S
C481 C476 1.390 . S
C481 C480 1.387 . S
H482 C494 0.930 . S
H483 C496 0.930 . S
H484 C497 0.930 . S
H485 C501 0.959 . S
H486 C501 0.959 . S
H487 C501 0.961 . S
H488 C502 0.960 . S
H489 C502 0.961 . S
H490 C502 0.959 . S
H491 C505 0.929 . S
H492 C506 0.931 1_556 S
H493 C508 0.930 . S
C494 H482 0.930 . S
C494 C495 1.399 . S
C494 C499 1.399 . S
C495 C494 1.399 . S
C495 C496 1.376 . S
C496 H483 0.930 . S
C496 C495 1.376 . S
C496 C497 1.388 . S
C497 H484 0.930 . S
C497 C496 1.388 . S
C497 C498 1.390 . S
C498 C497 1.390 . S
C498 C499 1.394 . S
C498 C504 1.465 . S
C499 C494 1.399 . S
C499 C498 1.394 . S
C499 C500 1.516 . S
C500 C499 1.516 . S
C500 C501 1.502 . S
C500 C502 1.561 . S
C500 C503 1.526 . S
C501 H485 0.959 . S
C501 H486 0.959 . S
C501 H487 0.961 . S
C501 C500 1.502 . S
C502 H488 0.960 . S
C502 H489 0.961 . S
C502 H490 0.959 . S
C502 C500 1.561 . S
C503 C500 1.526 . S
C503 C504 1.396 . S
C503 C508 1.390 . S
C504 C498 1.465 . S
C504 C503 1.396 . S
C504 C505 1.399 . S
C505 H491 0.929 . S
C505 C504 1.399 . S
C505 C506 1.385 . S
C506 H492 0.931 1_554 S
C506 C505 1.385 . S
C506 C507 1.389 . S
C507 C506 1.389 . S
C507 C508 1.387 . S
C508 H493 0.930 . S
C508 C503 1.390 . S
C508 C507 1.387 . S
H509 C521 0.930 . S
H510 C523 0.930 . S
H511 C524 0.930 . S
H512 C528 0.959 . S
H513 C528 0.959 . S
H514 C528 0.961 . S
H515 C529 0.960 . S
H516 C529 0.961 . S
H517 C529 0.959 . S
H518 C532 0.929 . S
H519 C533 0.931 . S
H520 C535 0.930 . S
C521 H509 0.930 . S
C521 C522 1.399 . S
C521 C526 1.399 . S
C522 C521 1.399 . S
C522 C523 1.376 . S
C523 H510 0.930 . S
C523 C522 1.376 . S
C523 C524 1.388 . S
C524 H511 0.930 . S
C524 C523 1.388 . S
C524 C525 1.390 . S
C525 C524 1.390 . S
C525 C526 1.394 . S
C525 C531 1.465 . S
C526 C521 1.399 . S
C526 C525 1.394 . S
C526 C527 1.516 . S
C527 C526 1.516 . S
C527 C528 1.502 . S
C527 C529 1.561 . S
C527 C530 1.526 . S
C528 H512 0.959 . S
C528 H513 0.959 . S
C528 H514 0.961 . S
C528 C527 1.502 . S
C529 H515 0.960 . S
C529 H516 0.961 . S
C529 H517 0.959 . S
C529 C527 1.561 . S
C530 C527 1.526 . S
C530 C531 1.396 . S
C530 C535 1.390 . S
C531 C525 1.465 . S
C531 C530 1.396 . S
C531 C532 1.399 . S
C532 H518 0.929 . S
C532 C531 1.399 . S
C532 C533 1.385 . S
C533 H519 0.931 . S
C533 C532 1.385 . S
C533 C534 1.389 . S
C534 C533 1.389 . S
C534 C535 1.387 . S
C535 H520 0.930 . S
C535 C530 1.390 . S
C535 C534 1.387 . S
H536 C548 0.930 . S
H537 C550 0.930 . S
H538 C551 0.930 . S
H539 C555 0.959 . S
H540 C555 0.959 . S
H541 C555 0.961 . S
H542 C556 0.960 . S
H543 C556 0.961 . S
H544 C556 0.959 . S
H545 C559 0.929 . S
H546 C560 0.931 . S
H547 C562 0.930 . S
C548 H536 0.930 . S
C548 C549 1.399 . S
C548 C553 1.399 . S
C549 C548 1.399 . S
C549 C550 1.376 . S
C550 H537 0.930 . S
C550 C549 1.376 . S
C550 C551 1.388 . S
C551 H538 0.930 . S
C551 C550 1.388 . S
C551 C552 1.390 . S
C552 C551 1.390 . S
C552 C553 1.394 . S
C552 C558 1.465 . S
C553 C548 1.399 . S
C553 C552 1.394 . S
C553 C554 1.516 . S
C554 C553 1.516 . S
C554 C555 1.502 . S
C554 C556 1.561 . S
C554 C557 1.526 . S
C555 H539 0.959 . S
C555 H540 0.959 . S
C555 H541 0.961 . S
C555 C554 1.502 . S
C556 H542 0.960 . S
C556 H543 0.961 . S
C556 H544 0.959 . S
C556 C554 1.561 . S
C557 C554 1.526 . S
C557 C558 1.396 . S
C557 C562 1.390 . S
C558 C552 1.465 . S
C558 C557 1.396 . S
C558 C559 1.399 . S
C559 H545 0.929 . S
C559 C558 1.399 . S
C559 C560 1.385 . S
C560 H546 0.931 . S
C560 C559 1.385 . S
C560 C561 1.389 . S
C561 C560 1.389 . S
C561 C562 1.387 . S
C562 H547 0.930 . S
C562 C557 1.390 . S
C562 C561 1.387 . S
H563 C575 0.930 . S
H564 C577 0.930 . S
H565 C578 0.930 . S
H566 C582 0.959 . S
H567 C582 0.959 . S
H568 C582 0.961 . S
H569 C583 0.960 . S
H570 C583 0.961 . S
H571 C583 0.959 . S
H572 C586 0.929 . S
H573 C587 0.931 1_556 S
H574 C589 0.930 . S
C575 H563 0.930 . S
C575 C576 1.399 . S
C575 C580 1.399 . S
C576 C575 1.399 . S
C576 C577 1.376 . S
C577 H564 0.930 . S
C577 C576 1.376 . S
C577 C578 1.388 . S
C578 H565 0.930 . S
C578 C577 1.388 . S
C578 C579 1.390 . S
C579 C578 1.390 . S
C579 C580 1.394 . S
C579 C585 1.465 . S
C580 C575 1.399 . S
C580 C579 1.394 . S
C580 C581 1.516 . S
C581 C580 1.516 . S
C581 C582 1.502 . S
C581 C583 1.561 . S
C581 C584 1.526 . S
C582 H566 0.959 . S
C582 H567 0.959 . S
C582 H568 0.961 . S
C582 C581 1.502 . S
C583 H569 0.960 . S
C583 H570 0.961 . S
C583 H571 0.959 . S
C583 C581 1.561 . S
C584 C581 1.526 . S
C584 C585 1.396 . S
C584 C589 1.390 . S
C585 C579 1.465 . S
C585 C584 1.396 . S
C585 C586 1.399 . S
C586 H572 0.929 . S
C586 C585 1.399 . S
C586 C587 1.385 . S
C587 H573 0.931 1_554 S
C587 C586 1.385 . S
C587 C588 1.389 . S
C588 C587 1.389 . S
C588 C589 1.387 . S
C589 H574 0.930 . S
C589 C584 1.390 . S
C589 C588 1.387 . S
H590 C602 0.930 . S
H591 C604 0.930 . S
H592 C605 0.930 . S
H593 C609 0.959 . S
H594 C609 0.959 . S
H595 C609 0.961 . S
H596 C610 0.960 . S
H597 C610 0.961 . S
H598 C610 0.959 . S
H599 C613 0.929 . S
H600 C614 0.931 . S
H601 C616 0.930 . S
C602 H590 0.930 . S
C602 C603 1.399 . S
C602 C607 1.399 . S
C603 C602 1.399 . S
C603 C604 1.376 . S
C604 H591 0.930 . S
C604 C603 1.376 . S
C604 C605 1.388 . S
C605 H592 0.930 . S
C605 C604 1.388 . S
C605 C606 1.390 . S
C606 C605 1.390 . S
C606 C607 1.394 . S
C606 C612 1.465 . S
C607 C602 1.399 . S
C607 C606 1.394 . S
C607 C608 1.516 . S
C608 C607 1.516 . S
C608 C609 1.502 . S
C608 C610 1.561 . S
C608 C611 1.526 . S
C609 H593 0.959 . S
C609 H594 0.959 . S
C609 H595 0.961 . S
C609 C608 1.502 . S
C610 H596 0.960 . S
C610 H597 0.961 . S
C610 H598 0.959 . S
C610 C608 1.561 . S
C611 C608 1.526 . S
C611 C612 1.396 . S
C611 C616 1.390 . S
C612 C606 1.465 . S
C612 C611 1.396 . S
C612 C613 1.399 . S
C613 H599 0.929 . S
C613 C612 1.399 . S
C613 C614 1.385 . S
C614 H600 0.931 . S
C614 C613 1.385 . S
C614 C615 1.389 . S
C615 C614 1.389 . S
C615 C616 1.387 . S
C616 H601 0.930 . S
C616 C611 1.390 . S
C616 C615 1.387 . S
H617 C629 0.930 . S
H618 C631 0.930 . S
H619 C632 0.930 . S
H620 C636 0.959 . S
H621 C636 0.959 . S
H622 C636 0.961 . S
H623 C637 0.960 . S
H624 C637 0.961 . S
H625 C637 0.959 . S
H626 C640 0.929 . S
H627 C641 0.931 . S
H628 C643 0.930 . S
C629 H617 0.930 . S
C629 C630 1.399 . S
C629 C634 1.399 . S
C630 C629 1.399 . S
C630 C631 1.376 . S
C631 H618 0.930 . S
C631 C630 1.376 . S
C631 C632 1.388 . S
C632 H619 0.930 . S
C632 C631 1.388 . S
C632 C633 1.390 . S
C633 C632 1.390 . S
C633 C634 1.394 . S
C633 C639 1.465 . S
C634 C629 1.399 . S
C634 C633 1.394 . S
C634 C635 1.516 . S
C635 C634 1.516 . S
C635 C636 1.502 . S
C635 C637 1.561 . S
C635 C638 1.526 . S
C636 H620 0.959 . S
C636 H621 0.959 . S
C636 H622 0.961 . S
C636 C635 1.502 . S
C637 H623 0.960 . S
C637 H624 0.961 . S
C637 H625 0.959 . S
C637 C635 1.561 . S
C638 C635 1.526 . S
C638 C639 1.396 . S
C638 C643 1.390 . S
C639 C633 1.465 . S
C639 C638 1.396 . S
C639 C640 1.399 . S
C640 H626 0.929 . S
C640 C639 1.399 . S
C640 C641 1.385 . S
C641 H627 0.931 . S
C641 C640 1.385 . S
C641 C642 1.389 . S
C642 C641 1.389 . S
C642 C643 1.387 . S
C643 H628 0.930 . S
C643 C638 1.390 . S
C643 C642 1.387 . S
H644 C656 0.930 . S
H645 C658 0.930 . S
H646 C659 0.930 . S
H647 C663 0.959 . S
H648 C663 0.959 . S
H649 C663 0.961 . S
H650 C664 0.960 . S
H651 C664 0.961 . S
H652 C664 0.959 . S
H653 C667 0.929 . S
H654 C668 0.931 1_556 S
H655 C670 0.930 . S
C656 H644 0.930 . S
C656 C657 1.399 . S
C656 C661 1.399 . S
C657 C656 1.399 . S
C657 C658 1.376 . S
C658 H645 0.930 . S
C658 C657 1.376 . S
C658 C659 1.388 . S
C659 H646 0.930 . S
C659 C658 1.388 . S
C659 C660 1.390 . S
C660 C659 1.390 . S
C660 C661 1.394 . S
C660 C666 1.465 . S
C661 C656 1.399 . S
C661 C660 1.394 . S
C661 C662 1.516 . S
C662 C661 1.516 . S
C662 C663 1.502 . S
C662 C664 1.561 . S
C662 C665 1.526 . S
C663 H647 0.959 . S
C663 H648 0.959 . S
C663 H649 0.961 . S
C663 C662 1.502 . S
C664 H650 0.960 . S
C664 H651 0.961 . S
C664 H652 0.959 . S
C664 C662 1.561 . S
C665 C662 1.526 . S
C665 C666 1.396 . S
C665 C670 1.390 . S
C666 C660 1.465 . S
C666 C665 1.396 . S
C666 C667 1.399 . S
C667 H653 0.929 . S
C667 C666 1.399 . S
C667 C668 1.385 . S
C668 H654 0.931 1_554 S
C668 C667 1.385 . S
C668 C669 1.389 . S
C669 C668 1.389 . S
C669 C670 1.387 . S
C670 H655 0.930 . S
C670 C665 1.390 . S
C670 C669 1.387 . S
H671 C683 0.916 1_554 S
H672 C685 0.930 . S
H673 C686 0.930 . S
H674 C690 0.959 . S
H675 C690 0.959 . S
H676 C690 0.961 1_554 S
H677 C691 0.960 1_554 S
H678 C691 0.961 . S
H679 C691 0.959 . S
H680 C694 0.929 . S
H681 C695 0.931 . S
H682 C697 0.930 . S
C683 H671 0.916 1_556 S
C683 C684 1.399 . S
C683 C688 1.399 . S
C684 C683 1.399 . S
C684 C685 1.376 . S
C685 H672 0.930 . S
C685 C684 1.376 . S
C685 C686 1.388 . S
C686 H673 0.930 . S
C686 C685 1.388 . S
C686 C687 1.390 . S
C687 C686 1.390 . S
C687 C688 1.394 . S
C687 C693 1.465 . S
C688 C683 1.399 . S
C688 C687 1.394 . S
C688 C689 1.516 . S
C689 C688 1.516 . S
C689 C690 1.502 . S
C689 C691 1.561 . S
C689 C692 1.526 . S
C690 H674 0.959 . S
C690 H675 0.959 . S
C690 H676 0.961 1_556 S
C690 C689 1.502 . S
C691 H677 0.960 1_556 S
C691 H678 0.961 . S
C691 H679 0.959 . S
C691 C689 1.561 . S
C692 C689 1.526 . S
C692 C693 1.396 . S
C692 C697 1.390 . S
C693 C687 1.465 . S
C693 C692 1.396 . S
C693 C694 1.399 . S
C694 H680 0.929 . S
C694 C693 1.399 . S
C694 C695 1.385 . S
C695 H681 0.931 . S
C695 C694 1.385 . S
C695 C696 1.389 . S
C696 C695 1.389 . S
C696 C697 1.387 . S
C697 H682 0.930 . S
C697 C692 1.390 . S
C697 C696 1.387 . S
H698 C710 0.930 . S
H699 C712 0.930 . S
H700 C713 0.930 . S
H701 C717 0.959 . S
H702 C717 0.959 . S
H703 C717 0.961 . S
H704 C718 0.960 . S
H705 C718 0.961 . S
H706 C718 0.959 . S
H707 C721 0.929 . S
H708 C722 0.931 . S
H709 C724 0.930 . S
C710 H698 0.930 . S
C710 C711 1.399 . S
C710 C715 1.399 . S
C711 C710 1.399 . S
C711 C712 1.376 . S
C712 H699 0.930 . S
C712 C711 1.376 . S
C712 C713 1.388 . S
C713 H700 0.930 . S
C713 C712 1.388 . S
C713 C714 1.390 . S
C714 C713 1.390 . S
C714 C715 1.394 . S
C714 C720 1.465 . S
C715 C710 1.399 . S
C715 C714 1.394 . S
C715 C716 1.516 . S
C716 C715 1.516 . S
C716 C717 1.502 . S
C716 C718 1.561 . S
C716 C719 1.526 . S
C717 H701 0.959 . S
C717 H702 0.959 . S
C717 H703 0.961 . S
C717 C716 1.502 . S
C718 H704 0.960 . S
C718 H705 0.961 . S
C718 H706 0.959 . S
C718 C716 1.561 . S
C719 C716 1.526 . S
C719 C720 1.396 . S
C719 C724 1.390 . S
C720 C714 1.465 . S
C720 C719 1.396 . S
C720 C721 1.399 . S
C721 H707 0.929 . S
C721 C720 1.399 . S
C721 C722 1.385 . S
C722 H708 0.931 . S
C722 C721 1.385 . S
C722 C723 1.389 . S
C723 C722 1.389 . S
C723 C724 1.387 . S
C724 H709 0.930 . S
C724 C719 1.390 . S
C724 C723 1.387 . S
H725 C737 0.930 . S
H726 C739 0.930 . S
H727 C740 0.930 . S
H728 C744 0.959 . S
H729 C744 0.959 . S
H730 C744 0.961 . S
H731 C745 0.960 . S
H732 C745 0.961 . S
H733 C745 0.959 . S
H734 C748 0.929 . S
H735 C749 0.931 . S
H736 C751 0.930 . S
C737 H725 0.930 . S
C737 C738 1.399 . S
C737 C742 1.399 . S
C738 C737 1.399 . S
C738 C739 1.376 . S
C739 H726 0.930 . S
C739 C738 1.376 . S
C739 C740 1.388 . S
C740 H727 0.930 . S
C740 C739 1.388 . S
C740 C741 1.390 . S
C741 C740 1.390 . S
C741 C742 1.394 . S
C741 C747 1.465 . S
C742 C737 1.399 . S
C742 C741 1.394 . S
C742 C743 1.516 . S
C743 C742 1.516 . S
C743 C744 1.502 . S
C743 C745 1.561 . S
C743 C746 1.526 . S
C744 H728 0.959 . S
C744 H729 0.959 . S
C744 H730 0.961 . S
C744 C743 1.502 . S
C745 H731 0.960 . S
C745 H732 0.961 . S
C745 H733 0.959 . S
C745 C743 1.561 . S
C746 C743 1.526 . S
C746 C747 1.396 . S
C746 C751 1.390 . S
C747 C741 1.465 . S
C747 C746 1.396 . S
C747 C748 1.399 . S
C748 H734 0.929 . S
C748 C747 1.399 . S
C748 C749 1.385 . S
C749 H735 0.931 . S
C749 C748 1.385 . S
C749 C750 1.389 . S
C750 C749 1.389 . S
C750 C751 1.387 . S
C751 H736 0.930 . S
C751 C746 1.390 . S
C751 C750 1.387 . S
H752 C764 0.930 1_455 S
H753 C766 0.930 . S
H754 C767 0.930 . S
H755 C771 0.959 . S
H756 C771 0.959 . S
H757 C771 0.961 1_556 S
H758 C772 0.960 . S
H759 C772 0.961 . S
H760 C772 0.959 . S
H761 C775 0.929 . S
H762 C776 0.927 1_655 S
H763 C778 0.930 . S
C764 H752 0.930 1_655 S
C764 C765 1.399 . S
C764 C769 1.399 . S
C765 C764 1.399 . S
C765 C766 1.376 1_545 S
C766 H753 0.930 . S
C766 C765 1.376 1_565 S
C766 C767 1.388 . S
C767 H754 0.930 . S
C767 C766 1.388 . S
C767 C768 1.390 . S
C768 C767 1.390 . S
C768 C769 1.394 1_565 S
C768 C774 1.465 1_556 S
C769 C764 1.399 . S
C769 C768 1.394 1_545 S
C769 C770 1.516 1_656 S
C770 C769 1.516 1_454 S
C770 C771 1.502 . S
C770 C772 1.561 1_455 S
C770 C773 1.526 . S
C771 H755 0.959 . S
C771 H756 0.959 . S
C771 H757 0.961 1_554 S
C771 C770 1.502 . S
C772 H758 0.960 . S
C772 H759 0.961 . S
C772 H760 0.959 . S
C772 C770 1.561 1_655 S
C773 C770 1.526 . S
C773 C774 1.396 1_445 S
C773 C778 1.390 . S
C774 C768 1.465 1_554 S
C774 C773 1.396 1_665 S
C774 C775 1.399 . S
C775 H761 0.929 . S
C775 C774 1.399 . S
C775 C776 1.381 1_655 S
C776 H762 0.927 1_455 S
C776 C775 1.381 1_455 S
C776 C777 1.397 . S
C777 C776 1.397 . S
C777 C778 1.387 1_565 S
C778 H763 0.930 . S
C778 C773 1.390 . S
C778 C777 1.387 1_545 S
H779 C791 0.930 . S
H780 C793 0.930 . S
H781 C794 0.930 . S
H782 C798 0.959 . S
H783 C798 0.959 . S
H784 C798 0.961 . S
H785 C799 0.960 . S
H786 C799 0.961 . S
H787 C799 0.959 . S
H788 C802 0.929 . S
H789 C803 0.931 . S
H790 C805 0.930 . S
C791 H779 0.930 . S
C791 C792 1.399 . S
C791 C796 1.399 . S
C792 C791 1.399 . S
C792 C793 1.376 . S
C793 H780 0.930 . S
C793 C792 1.376 . S
C793 C794 1.388 . S
C794 H781 0.930 . S
C794 C793 1.388 . S
C794 C795 1.390 . S
C795 C794 1.390 . S
C795 C796 1.394 . S
C795 C801 1.465 . S
C796 C791 1.399 . S
C796 C795 1.394 . S
C796 C797 1.516 . S
C797 C796 1.516 . S
C797 C798 1.502 . S
C797 C799 1.561 . S
C797 C800 1.526 . S
C798 H782 0.959 . S
C798 H783 0.959 . S
C798 H784 0.961 . S
C798 C797 1.502 . S
C799 H785 0.960 . S
C799 H786 0.961 . S
C799 H787 0.959 . S
C799 C797 1.561 . S
C800 C797 1.526 . S
C800 C801 1.396 . S
C800 C805 1.390 . S
C801 C795 1.465 . S
C801 C800 1.396 . S
C801 C802 1.399 . S
C802 H788 0.929 . S
C802 C801 1.399 . S
C802 C803 1.385 . S
C803 H789 0.931 . S
C803 C802 1.385 . S
C803 C804 1.389 . S
C804 C803 1.389 . S
C804 C805 1.387 . S
C805 H790 0.930 . S
C805 C800 1.390 . S
C805 C804 1.387 . S
H806 C818 0.930 . S
H807 C820 0.930 . S
H808 C821 0.930 . S
H809 C825 0.959 . S
H810 C825 0.959 . S
H811 C825 0.961 . S
H812 C826 0.960 . S
H813 C826 0.961 . S
H814 C826 0.959 . S
H815 C829 0.929 . S
H816 C830 0.931 . S
H817 C832 0.930 . S
C818 H806 0.930 . S
C818 C819 1.399 1_545 S
C818 C823 1.399 . S
C819 C818 1.399 1_565 S
C819 C820 1.376 . S
C820 H807 0.930 . S
C820 C819 1.376 . S
C820 C821 1.388 . S
C821 H808 0.930 . S
C821 C820 1.388 . S
C821 C822 1.390 . S
C822 C821 1.390 . S
C822 C823 1.394 1_565 S
C822 C828 1.465 . S
C823 C818 1.399 . S
C823 C822 1.394 1_545 S
C823 C824 1.516 . S
C824 C823 1.516 . S
C824 C825 1.502 . S
C824 C826 1.561 . S
C824 C827 1.526 . S
C825 H809 0.959 . S
C825 H810 0.959 . S
C825 H811 0.961 . S
C825 C824 1.502 . S
C826 H812 0.960 . S
C826 H813 0.961 . S
C826 H814 0.959 . S
C826 C824 1.561 . S
C827 C824 1.526 . S
C827 C828 1.396 1_545 S
C827 C832 1.390 . S
C828 C822 1.465 . S
C828 C827 1.396 1_565 S
C828 C829 1.399 . S
C829 H815 0.929 . S
C829 C828 1.399 . S
C829 C830 1.385 . S
C830 H816 0.931 . S
C830 C829 1.385 . S
C830 C831 1.389 1_565 S
C831 C830 1.389 1_545 S
C831 C832 1.387 . S
C832 H817 0.930 . S
C832 C827 1.390 . S
C832 C831 1.387 . S
H833 C845 0.930 . S
H834 C847 0.930 . S
H835 C848 0.930 . S
H836 C852 0.959 . S
H837 C852 0.959 . S
H838 C852 0.961 . S
H839 C853 0.960 . S
H840 C853 0.961 . S
H841 C853 0.959 . S
H842 C856 0.929 . S
H843 C857 0.931 . S
H844 C859 0.930 . S
C845 H833 0.930 . S
C845 C846 1.399 . S
C845 C850 1.399 . S
C846 C845 1.399 . S
C846 C847 1.376 . S
C847 H834 0.930 . S
C847 C846 1.376 . S
C847 C848 1.388 . S
C848 H835 0.930 . S
C848 C847 1.388 . S
C848 C849 1.390 . S
C849 C848 1.390 . S
C849 C850 1.394 . S
C849 C855 1.465 . S
C850 C845 1.399 . S
C850 C849 1.394 . S
C850 C851 1.516 . S
C851 C850 1.516 . S
C851 C852 1.502 . S
C851 C853 1.561 . S
C851 C854 1.526 . S
C852 H836 0.959 . S
C852 H837 0.959 . S
C852 H838 0.961 . S
C852 C851 1.502 . S
C853 H839 0.960 . S
C853 H840 0.961 . S
C853 H841 0.959 . S
C853 C851 1.561 . S
C854 C851 1.526 . S
C854 C855 1.396 . S
C854 C859 1.390 . S
C855 C849 1.465 . S
C855 C854 1.396 . S
C855 C856 1.399 . S
C856 H842 0.929 . S
C856 C855 1.399 . S
C856 C857 1.385 . S
C857 H843 0.931 . S
C857 C856 1.385 . S
C857 C858 1.389 . S
C858 C857 1.389 . S
C858 C859 1.387 . S
C859 H844 0.930 . S
C859 C854 1.390 . S
C859 C858 1.387 . S
H860 C872 0.930 . S
H861 C874 0.930 . S
H862 C875 0.930 . S
H863 C879 0.959 . S
H864 C879 0.959 . S
H865 C879 0.961 . S
H866 C880 0.960 . S
H867 C880 0.961 . S
H868 C880 0.959 . S
H869 C883 0.929 . S
H870 C884 0.931 . S
H871 C886 0.930 . S
C872 H860 0.930 . S
C872 C873 1.399 . S
C872 C877 1.399 . S
C873 C872 1.399 . S
C873 C874 1.376 . S
C874 H861 0.930 . S
C874 C873 1.376 . S
C874 C875 1.388 . S
C875 H862 0.930 . S
C875 C874 1.388 . S
C875 C876 1.390 . S
C876 C875 1.390 . S
C876 C877 1.394 . S
C876 C882 1.465 . S
C877 C872 1.399 . S
C877 C876 1.394 . S
C877 C878 1.516 . S
C878 C877 1.516 . S
C878 C879 1.502 . S
C878 C880 1.561 . S
C878 C881 1.526 . S
C879 H863 0.959 . S
C879 H864 0.959 . S
C879 H865 0.961 . S
C879 C878 1.502 . S
C880 H866 0.960 . S
C880 H867 0.961 . S
C880 H868 0.959 . S
C880 C878 1.561 . S
C881 C878 1.526 . S
C881 C882 1.396 . S
C881 C886 1.390 . S
C882 C876 1.465 . S
C882 C881 1.396 . S
C882 C883 1.399 . S
C883 H869 0.929 . S
C883 C882 1.399 . S
C883 C884 1.385 . S
C884 H870 0.931 . S
C884 C883 1.385 . S
C884 C885 1.389 . S
C885 C884 1.389 . S
C885 C886 1.387 . S
C886 H871 0.930 . S
C886 C881 1.390 . S
C886 C885 1.387 . S
H887 C899 0.930 . S
H888 C901 0.930 . S
H889 C902 0.930 . S
H890 C906 0.959 . S
H891 C906 0.959 . S
H892 C906 0.961 . S
H893 C907 0.960 . S
H894 C907 0.961 . S
H895 C907 0.959 . S
H896 C910 0.929 . S
H897 C911 0.931 . S
H898 C913 0.930 . S
C899 H887 0.930 . S
C899 C900 1.399 . S
C899 C904 1.399 . S
C900 C899 1.399 . S
C900 C901 1.376 . S
C901 H888 0.930 . S
C901 C900 1.376 . S
C901 C902 1.388 . S
C902 H889 0.930 . S
C902 C901 1.388 . S
C902 C903 1.390 . S
C903 C902 1.390 . S
C903 C904 1.394 . S
C903 C909 1.465 . S
C904 C899 1.399 . S
C904 C903 1.394 . S
C904 C905 1.516 . S
C905 C904 1.516 . S
C905 C906 1.502 . S
C905 C907 1.561 . S
C905 C908 1.526 . S
C906 H890 0.959 . S
C906 H891 0.959 . S
C906 H892 0.961 . S
C906 C905 1.502 . S
C907 H893 0.960 . S
C907 H894 0.961 . S
C907 H895 0.959 . S
C907 C905 1.561 . S
C908 C905 1.526 . S
C908 C909 1.396 . S
C908 C913 1.390 . S
C909 C903 1.465 . S
C909 C908 1.396 . S
C909 C910 1.399 . S
C910 H896 0.929 . S
C910 C909 1.399 . S
C910 C911 1.385 . S
C911 H897 0.931 . S
C911 C910 1.385 . S
C911 C912 1.389 . S
C912 C911 1.389 . S
C912 C913 1.387 . S
C913 H898 0.930 . S
C913 C908 1.390 . S
C913 C912 1.387 . S
H914 C926 0.930 . S
H915 C928 0.930 . S
H916 C929 0.930 . S
H917 C933 0.959 . S
H918 C933 0.959 . S
H919 C933 0.961 . S
H920 C934 0.960 . S
H921 C934 0.961 . S
H922 C934 0.959 . S
H923 C937 0.929 . S
H924 C938 0.931 . S
H925 C940 0.930 . S
C926 H914 0.930 . S
C926 C927 1.399 . S
C926 C931 1.399 . S
C927 C926 1.399 . S
C927 C928 1.376 . S
C928 H915 0.930 . S
C928 C927 1.376 . S
C928 C929 1.388 . S
C929 H916 0.930 . S
C929 C928 1.388 . S
C929 C930 1.390 . S
C930 C929 1.390 . S
C930 C931 1.394 . S
C930 C936 1.465 . S
C931 C926 1.399 . S
C931 C930 1.394 . S
C931 C932 1.516 . S
C932 C931 1.516 . S
C932 C933 1.502 . S
C932 C934 1.561 . S
C932 C935 1.526 . S
C933 H917 0.959 . S
C933 H918 0.959 . S
C933 H919 0.961 . S
C933 C932 1.502 . S
C934 H920 0.960 . S
C934 H921 0.961 . S
C934 H922 0.959 . S
C934 C932 1.561 . S
C935 C932 1.526 . S
C935 C936 1.396 . S
C935 C940 1.390 . S
C936 C930 1.465 . S
C936 C935 1.396 . S
C936 C937 1.399 . S
C937 H923 0.929 . S
C937 C936 1.399 . S
C937 C938 1.385 . S
C938 H924 0.931 . S
C938 C937 1.385 . S
C938 C939 1.389 . S
C939 C938 1.389 . S
C939 C940 1.387 . S
C940 H925 0.930 . S
C940 C935 1.390 . S
C940 C939 1.387 . S
H941 C953 0.930 1_455 S
H942 C955 0.930 . S
H943 C956 0.930 . S
H944 C960 0.959 . S
H945 C960 0.959 . S
H946 C960 0.961 1_556 S
H947 C961 0.961 1_556 S
H948 C961 0.963 . S
H949 C961 0.954 1_655 S
H950 C964 0.929 . S
H951 C965 0.931 . S
H952 C967 0.930 . S
C953 H941 0.930 1_655 S
C953 C954 1.399 . S
C953 C958 1.399 1_655 S
C954 C953 1.399 . S
C954 C955 1.376 . S
C955 H942 0.930 . S
C955 C954 1.376 . S
C955 C956 1.388 . S
C956 H943 0.930 . S
C956 C955 1.388 . S
C956 C957 1.390 . S
C957 C956 1.390 . S
C957 C958 1.394 1_655 S
C957 C963 1.465 1_556 S
C958 C953 1.399 1_455 S
C958 C957 1.394 1_455 S
C958 C959 1.516 1_556 S
C959 C958 1.516 1_554 S
C959 C960 1.502 . S
C959 C961 1.564 . S
C959 C962 1.526 . S
C960 H944 0.959 . S
C960 H945 0.959 . S
C960 H946 0.961 1_554 S
C960 C959 1.502 . S
C961 H947 0.961 1_554 S
C961 H948 0.963 . S
C961 H949 0.954 1_455 S
C961 C959 1.564 . S
C962 C959 1.526 . S
C962 C963 1.396 1_455 S
C962 C967 1.390 . S
C963 C957 1.465 1_554 S
C963 C962 1.396 1_655 S
C963 C964 1.399 . S
C964 H950 0.929 . S
C964 C963 1.399 . S
C964 C965 1.385 . S
C965 H951 0.931 . S
C965 C964 1.385 . S
C965 C966 1.389 1_655 S
C966 C965 1.389 1_455 S
C966 C967 1.387 . S
C967 H952 0.930 . S
C967 C962 1.390 . S
C967 C966 1.387 . S
C333 C31 1.988 . S
C345 C151 1.983 . S
C360 C17 1.498 . S
C372 C71 1.535 . S
C387 C57 0.950 . S
C399 C97 1.011 . S
C414 C111 1.537 . S
C426 C137 1.492 . S
C441 C12 1.987 . S
C453 C212 1.993 . S
C468 C2 1.532 . S
C480 C172 1.535 . S
C495 C162 1.003 . S
C507 C82 0.958 . S
C522 C202 1.537 . S
C534 C92 1.546 . S
C549 C271 1.998 . S
C561 C231 1.998 . S
C576 C191 1.544 . S
C588 C257 1.518 . S
C603 C297 1.016 . S
C615 C177 0.971 . S
C630 C217 1.496 . S
C642 C311 1.538 . S
C657 C132 1.989 . S
C669 C252 1.990 . S
C684 C242 1.520 . S
C696 C52 1.534 . S
C711 C42 0.970 . S
C723 C282 1.007 . S
C738 C122 1.538 . S
C750 C292 1.535 . S
C765 C29 1.504 . S
C777 C8 1.478 . S
C792 C48 1.349 . S
C804 C69 1.415 . S
C819 C109 1.416 . S
C831 C88 1.349 . S
C846 C149 1.462 . S
C858 C128 1.514 . S
C873 C168 1.344 . S
C885 C189 1.415 . S
C900 C229 1.512 . S
C912 C208 1.458 . S
C927 C248 1.458 . S
C939 C269 1.515 . S
C954 C288 1.396 . S
C966 C309 1.376 . S
