# Generated by pormake.
# Topology vcc, (6)-cn, num edge types: 1
# Building blocks:
#     Node 0, Type 0, BuildingBlock: CIFDUS_clean_sbu_1, # of connection points: 6
#     Node 1, Type 0, BuildingBlock: CIFDUS_clean_sbu_1, # of connection points: 6
#     Node 2, Type 0, BuildingBlock: CIFDUS_clean_sbu_1, # of connection points: 6
#     Node 3, Type 0, BuildingBlock: CIFDUS_clean_sbu_1, # of connection points: 6
#     Node 4, Type 0, BuildingBlock: CIFDUS_clean_sbu_1, # of connection points: 6
#     Node 5, Type 0, BuildingBlock: CIFDUS_clean_sbu_1, # of connection points: 6
#     Node 6, Type 0, BuildingBlock: CIFDUS_clean_sbu_1, # of connection points: 6
#     Node 7, Type 0, BuildingBlock: CIFDUS_clean_sbu_1, # of connection points: 6
#     Node 8, Type 0, BuildingBlock: CIFDUS_clean_sbu_1, # of connection points: 6
#     Node 9, Type 0, BuildingBlock: CIFDUS_clean_sbu_1, # of connection points: 6
#     Node 10, Type 0, BuildingBlock: CIFDUS_clean_sbu_1, # of connection points: 6
#     Node 11, Type 0, BuildingBlock: CIFDUS_clean_sbu_1, # of connection points: 6
#     Node 12, Type 0, BuildingBlock: CIFDUS_clean_sbu_1, # of connection points: 6
#     Node 13, Type 0, BuildingBlock: CIFDUS_clean_sbu_1, # of connection points: 6
#     Node 14, Type 0, BuildingBlock: CIFDUS_clean_sbu_1, # of connection points: 6
#     Node 15, Type 0, BuildingBlock: CIFDUS_clean_sbu_1, # of connection points: 6
#     Node 16, Type 0, BuildingBlock: CIFDUS_clean_sbu_1, # of connection points: 6
#     Node 17, Type 0, BuildingBlock: CIFDUS_clean_sbu_1, # of connection points: 6
#     Node 18, Type 0, BuildingBlock: CIFDUS_clean_sbu_1, # of connection points: 6
#     Node 19, Type 0, BuildingBlock: CIFDUS_clean_sbu_1, # of connection points: 6
#     Node 20, Type 0, BuildingBlock: CIFDUS_clean_sbu_1, # of connection points: 6
#     Node 21, Type 0, BuildingBlock: CIFDUS_clean_sbu_1, # of connection points: 6
#     Node 22, Type 0, BuildingBlock: CIFDUS_clean_sbu_1, # of connection points: 6
#     Node 23, Type 0, BuildingBlock: CIFDUS_clean_sbu_1, # of connection points: 6
#     Node 24, Type 0, BuildingBlock: CIFDUS_clean_sbu_1, # of connection points: 6
#     Node 25, Type 0, BuildingBlock: CIFDUS_clean_sbu_1, # of connection points: 6
#     Node 26, Type 0, BuildingBlock: CIFDUS_clean_sbu_1, # of connection points: 6
#     Node 27, Type 0, BuildingBlock: CIFDUS_clean_sbu_1, # of connection points: 6
#     Node 28, Type 0, BuildingBlock: CIFDUS_clean_sbu_1, # of connection points: 6
#     Node 29, Type 0, BuildingBlock: CIFDUS_clean_sbu_1, # of connection points: 6
#     Node 30, Type 0, BuildingBlock: CIFDUS_clean_sbu_1, # of connection points: 6
#     Node 31, Type 0, BuildingBlock: CIFDUS_clean_sbu_1, # of connection points: 6
#     Edge 32, Type (0, 0), BuildingBlock: XUDNAN_clean_linker_2, # of connection points: 2
#     Edge 33, Type (0, 0), BuildingBlock: XUDNAN_clean_linker_2, # of connection points: 2
#     Edge 34, Type (0, 0), BuildingBlock: XUDNAN_clean_linker_2, # of connection points: 2
#     Edge 35, Type (0, 0), BuildingBlock: XUDNAN_clean_linker_2, # of connection points: 2
#     Edge 36, Type (0, 0), BuildingBlock: XUDNAN_clean_linker_2, # of connection points: 2
#     Edge 37, Type (0, 0), BuildingBlock: XUDNAN_clean_linker_2, # of connection points: 2
#     Edge 38, Type (0, 0), BuildingBlock: XUDNAN_clean_linker_2, # of connection points: 2
#     Edge 39, Type (0, 0), BuildingBlock: XUDNAN_clean_linker_2, # of connection points: 2
#     Edge 40, Type (0, 0), BuildingBlock: XUDNAN_clean_linker_2, # of connection points: 2
#     Edge 41, Type (0, 0), BuildingBlock: XUDNAN_clean_linker_2, # of connection points: 2
#     Edge 42, Type (0, 0), BuildingBlock: XUDNAN_clean_linker_2, # of connection points: 2
#     Edge 43, Type (0, 0), BuildingBlock: XUDNAN_clean_linker_2, # of connection points: 2
#     Edge 44, Type (0, 0), BuildingBlock: XUDNAN_clean_linker_2, # of connection points: 2
#     Edge 45, Type (0, 0), BuildingBlock: XUDNAN_clean_linker_2, # of connection points: 2
#     Edge 46, Type (0, 0), BuildingBlock: XUDNAN_clean_linker_2, # of connection points: 2
#     Edge 47, Type (0, 0), BuildingBlock: XUDNAN_clean_linker_2, # of connection points: 2
#     Edge 48, Type (0, 0), BuildingBlock: XUDNAN_clean_linker_2, # of connection points: 2
#     Edge 49, Type (0, 0), BuildingBlock: XUDNAN_clean_linker_2, # of connection points: 2
#     Edge 50, Type (0, 0), BuildingBlock: XUDNAN_clean_linker_2, # of connection points: 2
#     Edge 51, Type (0, 0), BuildingBlock: XUDNAN_clean_linker_2, # of connection points: 2
#     Edge 52, Type (0, 0), BuildingBlock: XUDNAN_clean_linker_2, # of connection points: 2
#     Edge 53, Type (0, 0), BuildingBlock: XUDNAN_clean_linker_2, # of connection points: 2
#     Edge 54, Type (0, 0), BuildingBlock: XUDNAN_clean_linker_2, # of connection points: 2
#     Edge 55, Type (0, 0), BuildingBlock: XUDNAN_clean_linker_2, # of connection points: 2
#     Edge 56, Type (0, 0), BuildingBlock: XUDNAN_clean_linker_2, # of connection points: 2
#     Edge 57, Type (0, 0), BuildingBlock: XUDNAN_clean_linker_2, # of connection points: 2
#     Edge 58, Type (0, 0), BuildingBlock: XUDNAN_clean_linker_2, # of connection points: 2
#     Edge 59, Type (0, 0), BuildingBlock: XUDNAN_clean_linker_2, # of connection points: 2
#     Edge 60, Type (0, 0), BuildingBlock: XUDNAN_clean_linker_2, # of connection points: 2
#     Edge 61, Type (0, 0), BuildingBlock: XUDNAN_clean_linker_2, # of connection points: 2
#     Edge 62, Type (0, 0), BuildingBlock: XUDNAN_clean_linker_2, # of connection points: 2
#     Edge 63, Type (0, 0), BuildingBlock: XUDNAN_clean_linker_2, # of connection points: 2
#     Edge 64, Type (0, 0), BuildingBlock: XUDNAN_clean_linker_2, # of connection points: 2
#     Edge 65, Type (0, 0), BuildingBlock: XUDNAN_clean_linker_2, # of connection points: 2
#     Edge 66, Type (0, 0), BuildingBlock: XUDNAN_clean_linker_2, # of connection points: 2
#     Edge 67, Type (0, 0), BuildingBlock: XUDNAN_clean_linker_2, # of connection points: 2
#     Edge 68, Type (0, 0), BuildingBlock: XUDNAN_clean_linker_2, # of connection points: 2
#     Edge 69, Type (0, 0), BuildingBlock: XUDNAN_clean_linker_2, # of connection points: 2
#     Edge 70, Type (0, 0), BuildingBlock: XUDNAN_clean_linker_2, # of connection points: 2
#     Edge 71, Type (0, 0), BuildingBlock: XUDNAN_clean_linker_2, # of connection points: 2
#     Edge 72, Type (0, 0), BuildingBlock: XUDNAN_clean_linker_2, # of connection points: 2
#     Edge 73, Type (0, 0), BuildingBlock: XUDNAN_clean_linker_2, # of connection points: 2
#     Edge 74, Type (0, 0), BuildingBlock: XUDNAN_clean_linker_2, # of connection points: 2
#     Edge 75, Type (0, 0), BuildingBlock: XUDNAN_clean_linker_2, # of connection points: 2
#     Edge 76, Type (0, 0), BuildingBlock: XUDNAN_clean_linker_2, # of connection points: 2
#     Edge 77, Type (0, 0), BuildingBlock: XUDNAN_clean_linker_2, # of connection points: 2
#     Edge 78, Type (0, 0), BuildingBlock: XUDNAN_clean_linker_2, # of connection points: 2
#     Edge 79, Type (0, 0), BuildingBlock: XUDNAN_clean_linker_2, # of connection points: 2
#     Edge 80, Type (0, 0), BuildingBlock: XUDNAN_clean_linker_2, # of connection points: 2
#     Edge 81, Type (0, 0), BuildingBlock: XUDNAN_clean_linker_2, # of connection points: 2
#     Edge 82, Type (0, 0), BuildingBlock: XUDNAN_clean_linker_2, # of connection points: 2
#     Edge 83, Type (0, 0), BuildingBlock: XUDNAN_clean_linker_2, # of connection points: 2
#     Edge 84, Type (0, 0), BuildingBlock: XUDNAN_clean_linker_2, # of connection points: 2
#     Edge 85, Type (0, 0), BuildingBlock: XUDNAN_clean_linker_2, # of connection points: 2
#     Edge 86, Type (0, 0), BuildingBlock: XUDNAN_clean_linker_2, # of connection points: 2
#     Edge 87, Type (0, 0), BuildingBlock: XUDNAN_clean_linker_2, # of connection points: 2
#     Edge 88, Type (0, 0), BuildingBlock: XUDNAN_clean_linker_2, # of connection points: 2
#     Edge 89, Type (0, 0), BuildingBlock: XUDNAN_clean_linker_2, # of connection points: 2
#     Edge 90, Type (0, 0), BuildingBlock: XUDNAN_clean_linker_2, # of connection points: 2
#     Edge 91, Type (0, 0), BuildingBlock: XUDNAN_clean_linker_2, # of connection points: 2
#     Edge 92, Type (0, 0), BuildingBlock: XUDNAN_clean_linker_2, # of connection points: 2
#     Edge 93, Type (0, 0), BuildingBlock: XUDNAN_clean_linker_2, # of connection points: 2
#     Edge 94, Type (0, 0), BuildingBlock: XUDNAN_clean_linker_2, # of connection points: 2
#     Edge 95, Type (0, 0), BuildingBlock: XUDNAN_clean_linker_2, # of connection points: 2
#     Edge 96, Type (0, 0), BuildingBlock: XUDNAN_clean_linker_2, # of connection points: 2
#     Edge 97, Type (0, 0), BuildingBlock: XUDNAN_clean_linker_2, # of connection points: 2
#     Edge 98, Type (0, 0), BuildingBlock: XUDNAN_clean_linker_2, # of connection points: 2
#     Edge 99, Type (0, 0), BuildingBlock: XUDNAN_clean_linker_2, # of connection points: 2
#     Edge 100, Type (0, 0), BuildingBlock: XUDNAN_clean_linker_2, # of connection points: 2
#     Edge 101, Type (0, 0), BuildingBlock: XUDNAN_clean_linker_2, # of connection points: 2
#     Edge 102, Type (0, 0), BuildingBlock: XUDNAN_clean_linker_2, # of connection points: 2
#     Edge 103, Type (0, 0), BuildingBlock: XUDNAN_clean_linker_2, # of connection points: 2
#     Edge 104, Type (0, 0), BuildingBlock: XUDNAN_clean_linker_2, # of connection points: 2
#     Edge 105, Type (0, 0), BuildingBlock: XUDNAN_clean_linker_2, # of connection points: 2
#     Edge 106, Type (0, 0), BuildingBlock: XUDNAN_clean_linker_2, # of connection points: 2
#     Edge 107, Type (0, 0), BuildingBlock: XUDNAN_clean_linker_2, # of connection points: 2
#     Edge 108, Type (0, 0), BuildingBlock: XUDNAN_clean_linker_2, # of connection points: 2
#     Edge 109, Type (0, 0), BuildingBlock: XUDNAN_clean_linker_2, # of connection points: 2
#     Edge 110, Type (0, 0), BuildingBlock: XUDNAN_clean_linker_2, # of connection points: 2
#     Edge 111, Type (0, 0), BuildingBlock: XUDNAN_clean_linker_2, # of connection points: 2
#     Edge 112, Type (0, 0), BuildingBlock: XUDNAN_clean_linker_2, # of connection points: 2
#     Edge 113, Type (0, 0), BuildingBlock: XUDNAN_clean_linker_2, # of connection points: 2
#     Edge 114, Type (0, 0), BuildingBlock: XUDNAN_clean_linker_2, # of connection points: 2
#     Edge 115, Type (0, 0), BuildingBlock: XUDNAN_clean_linker_2, # of connection points: 2
#     Edge 116, Type (0, 0), BuildingBlock: XUDNAN_clean_linker_2, # of connection points: 2
#     Edge 117, Type (0, 0), BuildingBlock: XUDNAN_clean_linker_2, # of connection points: 2
#     Edge 118, Type (0, 0), BuildingBlock: XUDNAN_clean_linker_2, # of connection points: 2
#     Edge 119, Type (0, 0), BuildingBlock: XUDNAN_clean_linker_2, # of connection points: 2
#     Edge 120, Type (0, 0), BuildingBlock: XUDNAN_clean_linker_2, # of connection points: 2
#     Edge 121, Type (0, 0), BuildingBlock: XUDNAN_clean_linker_2, # of connection points: 2
#     Edge 122, Type (0, 0), BuildingBlock: XUDNAN_clean_linker_2, # of connection points: 2
#     Edge 123, Type (0, 0), BuildingBlock: XUDNAN_clean_linker_2, # of connection points: 2
#     Edge 124, Type (0, 0), BuildingBlock: XUDNAN_clean_linker_2, # of connection points: 2
#     Edge 125, Type (0, 0), BuildingBlock: XUDNAN_clean_linker_2, # of connection points: 2
#     Edge 126, Type (0, 0), BuildingBlock: XUDNAN_clean_linker_2, # of connection points: 2
#     Edge 127, Type (0, 0), BuildingBlock: XUDNAN_clean_linker_2, # of connection points: 2
# Relax obj value: 0.096
# Max RMSD: 0.144
# Mean RMSD: 0.138
data_MOF--net-vcc--node1-CIFDUS_clean_sbu_1--edge1-XUDNAN_clean_linker_2
_symmetry_space_group_name_H-M    P1
_symmetry_Int_Tables_number       1
_symmetry_cell_setting            triclinic
loop_
_symmetry_equiv_pos_as_xyz
'x, y, z'
_cell_length_a     50.127058
_cell_length_b     61.415552
_cell_length_c     37.308773
_cell_angle_alpha  89.884333
_cell_angle_beta   90.245391
_cell_angle_gamma 89.78457
loop_
_atom_site_label
_atom_site_type_symbol
_atom_site_fract_x
_atom_site_fract_y
_atom_site_fract_z
_atom_type_partial_charge
O0 O 0.36366 0.0105 0.10838 0.0
Mn1 Mn 0.32878 1.00716 0.07786 0.0
O2 O 0.36898 0.98049 0.14036 0.0
Mn3 Mn 0.33673 0.97043 0.12443 0.0
O4 O 0.29555 1.00663 0.04372 0.0
O5 O 0.32686 0.04193 0.08186 0.0
Mn6 Mn 0.33713 0.04333 0.03629 0.0
O7 O 0.35299 1.00359 0.03106 0.0
O8 O 0.31088 0.03233 0.00664 0.0
O9 O 0.30216 1.00841 0.12285 0.0
O10 O 0.30731 0.97673 0.15089 0.0
O11 O 0.33382 0.07124 0.0456 0.0
O12 O 0.37144 0.03507 0.02647 0.0
C13 C 0.33328 0.95106 0.08083 0.0
C14 C 0.3773 0.9988 0.13007 0.0
C15 C 0.29381 0.01781 0.01456 0.0
C16 C 0.32733 0.0634 0.07663 0.0
C17 C 0.37055 0.01567 0.01637 0.0
C18 C 0.29494 0.99445 0.1468 0.0
O19 O 0.33116 0.97255 0.07667 0.0
O20 O 0.33778 0.9429 0.11233 0.0
O21 O 0.91573 0.22779 0.08805 0.0
Mn22 Mn 0.90714 0.26058 0.0742 0.0
O23 O 0.88079 0.20823 0.06794 0.0
Mn24 Mn 0.8618 0.23142 0.04862 0.0
O25 O 0.89604 0.29302 0.05901 0.0
O26 O 0.9297 0.26916 0.12032 0.0
Mn27 Mn 0.94441 0.29203 0.09928 0.0
O28 O 0.94002 0.26048 0.03858 0.0
O29 O 0.92141 0.31438 0.09213 0.0
O30 O 0.87417 0.26138 0.10841 0.0
O31 O 0.8398 0.24653 0.07878 0.0
O32 O 0.96085 0.29323 0.14057 0.0
O33 O 0.96625 0.28577 0.06228 0.0
C34 C 0.87334 0.24672 1.00068 0.0
C35 C 0.90327 0.20961 0.08376 0.0
C36 C 0.90216 0.31203 0.07078 0.0
C37 C 0.94542 0.27668 0.14631 0.0
C38 C 0.9611 0.27228 0.03781 0.0
C39 C 0.84916 0.25782 0.1042 0.0
O40 O 0.88472 0.25065 0.03143 0.0
O41 O 0.85452 0.23233 1.00096 0.0
O42 O 0.329 0.22636 0.16664 0.0
Mn43 Mn 0.33529 0.2598 0.17854 0.0
O44 O 0.36628 0.20907 0.18587 0.0
Mn45 Mn 0.38538 0.23334 0.2008 0.0
O46 O 0.3457 0.29267 0.1906 0.0
O47 O 0.3072 0.26801 0.13821 0.0
Mn48 Mn 0.29298 0.29071 0.16222 0.0
O49 O 0.30585 0.25734 0.21727 0.0
O50 O 0.31496 0.31403 0.16606 0.0
O51 O 0.36524 0.26185 0.13993 0.0
O52 O 0.40268 0.24862 0.16556 0.0
O53 O 0.27376 0.29106 0.12255 0.0
O54 O 0.2755 0.28252 0.20297 0.0
C55 C 0.37331 0.24927 0.24899 0.0
C56 C 0.34303 0.20881 0.17165 0.0
C57 C 0.33716 0.31163 0.18134 0.0
C58 C 0.28889 0.27459 0.11469 0.0
C59 C 0.28404 0.26744 0.22315 0.0
C60 C 0.39057 0.25882 0.14065 0.0
O61 O 0.36147 0.25141 0.21812 0.0
O62 O 0.39436 0.23704 0.24833 0.0
O63 O 0.91369 0.04361 0.16764 0.0
Mn64 Mn 0.90784 0.01047 0.17945 0.0
O65 O 0.8779 0.06121 0.19025 0.0
Mn66 Mn 0.85948 0.0369 0.20735 0.0
O67 O 0.89847 0.97723 0.18978 0.0
O68 O 0.93424 1.0027 0.13667 0.0
Mn69 Mn 0.95222 0.98309 0.16406 0.0
O70 O 0.93717 0.01341 0.21815 0.0
O71 O 0.93328 0.95824 0.17036 0.0
O72 O 0.87623 0.01011 0.14267 0.0
O73 O 0.84039 0.02146 0.17378 0.0
O74 O 0.97157 0.98259 0.12529 0.0
O75 O 0.97113 0.99272 0.20241 0.0
C76 C 0.87497 0.0203 0.25365 0.0
C77 C 0.90016 0.06116 0.17353 0.0
C78 C 0.90972 0.95902 0.18194 0.0
C79 C 0.95322 0.99597 0.1143 0.0
C80 C 0.96051 1.00612 0.22328 0.0
C81 C 0.85097 0.01311 0.14604 0.0
O82 O 0.88409 0.01842 0.2213 0.0
O83 O 0.85426 0.03282 0.25591 0.0
O84 O 0.6697 0.97622 0.92159 0.0
Mn85 Mn 0.65768 1.00886 0.92831 0.0
O86 O 0.63138 0.95848 0.9257 0.0
Mn87 Mn 0.61344 0.98253 0.94285 0.0
O88 O 0.6455 0.04179 0.93349 0.0
O89 O 0.68478 0.01576 0.88573 0.0
Mn90 Mn 0.70201 0.03619 0.91074 0.0
O91 O 0.68522 0.01126 0.97072 0.0
O92 O 0.68223 0.06049 0.92077 0.0
O93 O 0.62977 1.00754 0.88608 0.0
O94 O 0.59234 0.99713 0.9113 0.0
O95 O 0.71897 0.0378 0.86971 0.0
O96 O 0.72188 0.02492 0.94699 0.0
C97 C 0.6128 0.99353 0.99406 0.0
C98 C 0.6561 0.95867 0.9194 0.0
C99 C 0.65785 0.05989 0.92912 0.0
C100 C 0.70281 0.02209 0.8617 0.0
C101 C 0.70985 0.01631 0.97286 0.0
C102 C 0.60433 1.00614 0.88585 0.0
O103 O 0.63101 1.00136 0.97143 0.0
O104 O 0.59741 0.97783 0.98359 0.0
O105 O 0.07403 0.79439 0.91802 0.0
Mn106 Mn 0.08353 0.76112 0.92915 0.0
O107 O 0.10891 0.81346 0.93846 0.0
Mn108 Mn 0.12842 0.78916 0.95007 0.0
O109 O 0.09492 0.72855 0.94344 0.0
O110 O 0.05719 0.75423 0.88553 0.0
Mn111 Mn 0.05079 0.72792 0.90398 0.0
O112 O 0.05203 0.76038 0.96529 0.0
O113 O 0.07866 0.70912 0.89974 0.0
O114 O 0.11467 0.76011 0.89108 0.0
O115 O 0.14918 0.77761 0.91493 0.0
O116 O 0.02969 0.72717 0.86635 0.0
O117 O 0.03371 0.7291 0.9478 0.0
C118 C 0.1236 0.77479 0.99985 0.0
C119 C 0.08585 0.81262 0.92454 0.0
C120 C 0.09476 0.71087 0.92525 0.0
C121 C 0.03994 0.7463 0.86167 0.0
C122 C 0.03523 0.74495 0.96956 0.0
C123 C 0.13915 0.7661 0.89041 0.0
O124 O 0.10811 0.76952 0.97247 0.0
O125 O 0.1425 0.78868 0.99379 0.0
O126 O 0.6658 0.79161 0.84333 0.0
Mn127 Mn 0.65797 0.75924 0.82657 0.0
O128 O 0.63068 0.81118 0.82467 0.0
Mn129 Mn 0.61198 0.78747 0.80842 0.0
O130 O 0.64822 0.72721 0.80919 0.0
O131 O 0.68436 0.75004 0.86901 0.0
Mn132 Mn 0.69753 0.72769 0.84383 0.0
O133 O 0.68796 0.76256 0.7892 0.0
O134 O 0.67392 0.70535 0.84145 0.0
O135 O 0.62736 0.7555 0.86383 0.0
O136 O 0.59187 0.77263 0.84088 0.0
O137 O 0.71856 0.72654 0.88131 0.0
O138 O 0.71443 0.73448 0.80201 0.0
C139 C 0.61783 0.77524 0.75719 0.0
C140 C 0.65342 0.8099 0.83958 0.0
C141 C 0.65401 0.70822 0.82139 0.0
C142 C 0.70282 0.74216 0.89143 0.0
C143 C 0.70794 0.75047 0.78252 0.0
C144 C 0.60245 0.76002 0.86366 0.0
O145 O 0.6331 0.76928 0.78446 0.0
O146 O 0.59883 0.78898 0.76408 0.0
O147 O 0.06941 0.97926 0.84939 0.0
Mn148 Mn 0.07943 0.01056 0.82818 0.0
O149 O 0.09637 0.95523 0.82283 0.0
Mn150 Mn 0.11976 0.97655 0.80978 0.0
O151 O 0.09071 0.04195 0.80774 0.0
O152 O 0.05618 0.02385 0.86919 0.0
Mn153 Mn 0.04421 0.04631 0.84225 0.0
O154 O 0.04726 1.00777 0.79392 0.0
O155 O 0.0705 0.06632 0.84241 0.0
O156 O 0.1123 0.01316 0.8628 0.0
O157 O 0.14135 0.98749 0.84542 0.0
O158 O 0.01899 0.04361 0.87526 0.0
O159 O 0.03004 0.04087 0.79705 0.0
C160 C 0.11642 0.99118 0.75919 0.0
C161 C 0.07661 0.95948 0.84259 0.0
C162 C 0.08861 0.06146 0.82043 0.0
C163 C 0.03262 0.02645 0.88428 0.0
C164 C 0.03136 0.0224 0.78238 0.0
C165 C 0.13462 1.00303 0.86585 0.0
O166 O 0.10261 0.99799 0.78697 0.0
O167 O 0.13279 0.97516 0.76519 0.0
O168 O 0.3711 0.51419 0.59331 0.0
Mn169 Mn 0.33196 0.50857 0.57732 0.0
O170 O 0.37281 0.49386 0.64093 0.0
Mn171 Mn 0.34634 0.47707 0.62121 0.0
O172 O 0.29348 0.50502 0.55808 0.0
O173 O 0.32723 0.54338 0.58471 0.0
Mn174 Mn 0.32748 0.54184 0.53704 0.0
O175 O 0.34822 0.50673 0.52264 0.0
O176 O 0.29871 0.52893 0.51447 0.0
O177 O 0.31273 0.50852 0.6303 0.0
O178 O 0.31703 0.47474 0.64845 0.0
O179 O 0.31993 0.56917 0.54168 0.0
O180 O 0.36087 0.53975 0.51904 0.0
C181 C 0.34975 0.45533 0.58137 0.0
C182 C 0.38294 0.5082 0.6216 0.0
C183 C 0.28474 0.51485 0.53032 0.0
C184 C 0.32287 0.56404 0.57511 0.0
C185 C 0.36259 0.52107 0.50671 0.0
C186 C 0.30528 0.49269 0.65111 0.0
O187 O 0.33741 0.47408 0.57387 0.0
O188 O 0.36156 0.45235 0.61189 0.0
O189 O 0.91167 0.72771 0.58381 0.0
Mn190 Mn 0.90337 0.76093 0.57448 0.0
O191 O 0.87375 0.71126 0.5646 0.0
Mn192 Mn 0.85537 0.7354 0.54644 0.0
O193 O 0.89008 0.79302 0.56451 0.0
O194 O 0.92816 0.76985 0.61817 0.0
Mn195 Mn 0.94216 0.79336 0.59546 0.0
O196 O 0.93487 0.7615 0.53786 0.0
O197 O 0.91883 0.81618 0.58819 0.0
O198 O 0.87209 0.75869 0.61139 0.0
O199 O 0.83631 0.75217 0.57759 0.0
O200 O 0.95903 0.7941 0.63706 0.0
O201 O 0.96373 0.78597 0.55793 0.0
C202 C 0.86976 0.7503 0.4995 0.0
C203 C 0.8971 0.71062 0.57864 0.0
C204 C 0.89686 0.81242 0.57287 0.0
C205 C 0.94466 0.77706 0.64343 0.0
C206 C 0.95717 0.77145 0.53568 0.0
C207 C 0.84677 0.75733 0.60726 0.0
O208 O 0.88028 0.75284 0.5312 0.0
O209 O 0.8488 0.7381 0.49841 0.0
O210 O 0.33363 0.72509 0.67011 0.0
Mn211 Mn 0.33811 0.75879 0.67896 0.0
O212 O 0.37065 0.70975 0.69431 0.0
Mn213 Mn 0.38827 0.73521 0.70647 0.0
O214 O 0.34568 0.79201 0.68983 0.0
O215 O 0.31151 0.76484 0.63547 0.0
Mn216 Mn 0.29436 0.78656 0.65843 0.0
O217 O 0.30749 0.75625 0.71678 0.0
O218 O 0.31421 0.81123 0.66243 0.0
O219 O 0.36935 0.75933 0.64109 0.0
O220 O 0.40637 0.74958 0.67102 0.0
O221 O 0.27565 0.78539 0.61874 0.0
O222 O 0.27536 0.77852 0.69795 0.0
C223 C 0.37524 0.75235 0.75205 0.0
C224 C 0.3479 0.70836 0.67901 0.0
C225 C 0.33591 0.81028 0.67949 0.0
C226 C 0.29313 0.77048 0.61128 0.0
C227 C 0.28436 0.76477 0.72008 0.0
C228 C 0.39481 0.75665 0.64298 0.0
O229 O 0.36333 0.75314 0.72101 0.0
O230 O 0.39655 0.74041 0.75332 0.0
O231 O 0.91192 0.54493 0.66456 0.0
Mn232 Mn 0.90689 0.51207 0.67868 0.0
O233 O 0.87795 0.56367 0.6894 0.0
Mn234 Mn 0.85927 0.53953 0.70645 0.0
O235 O 0.89819 0.47891 0.69118 0.0
O236 O 0.93304 0.50467 0.63582 0.0
Mn237 Mn 0.95072 0.48357 0.6597 0.0
O238 O 0.93755 0.51537 0.71538 0.0
O239 O 0.93101 0.45942 0.66746 0.0
O240 O 0.87455 0.50978 0.64363 0.0
O241 O 0.83949 0.52457 0.67274 0.0
O242 O 0.9672 0.48296 0.61814 0.0
O243 O 0.97025 0.4935 0.69752 0.0
C244 C 0.874 0.52264 0.75316 0.0
C245 C 0.89932 0.56284 0.6709 0.0
C246 C 0.90838 0.46055 0.68181 0.0
C247 C 0.9504 0.49848 0.61094 0.0
C248 C 0.96078 0.50734 0.71901 0.0
C249 C 0.8495 0.51365 0.64708 0.0
O250 O 0.88344 0.52051 0.72093 0.0
O251 O 0.85365 0.53557 0.75495 0.0
O252 O 0.66537 0.47615 0.4134 0.0
Mn253 Mn 0.65605 0.50888 0.42735 0.0
O254 O 0.63664 0.455 0.44346 0.0
Mn255 Mn 0.61397 0.47747 0.45564 0.0
O256 O 0.64363 0.5411 0.44166 0.0
O257 O 0.68137 0.5181 0.3836 0.0
Mn258 Mn 0.69398 0.54047 0.41012 0.0
O259 O 0.68691 0.5076 0.46478 0.0
O260 O 0.67118 0.56319 0.41368 0.0
O261 O 0.62378 0.50793 0.39105 0.0
O262 O 0.59297 0.48756 0.41945 0.0
O263 O 0.71376 0.54311 0.37235 0.0
O264 O 0.71397 0.53427 0.44987 0.0
C265 C 0.62114 0.49692 0.50063 0.0
C266 C 0.65648 0.45723 0.42265 0.0
C267 C 0.65024 0.56025 0.43122 0.0
C268 C 0.69931 0.52693 0.36152 0.0
C269 C 0.70778 0.51883 0.4704 0.0
C270 C 0.60071 0.49883 0.3929 0.0
O271 O 0.63293 0.49971 0.46983 0.0
O272 O 0.60375 0.48138 0.50173 0.0
O273 O 0.07132 0.29296 0.41553 0.0
Mn274 Mn 0.08301 0.26016 0.42708 0.0
O275 O 0.10414 0.31428 0.4373 0.0
Mn276 Mn 0.12681 0.29184 0.45012 0.0
O277 O 0.09773 0.22821 0.43907 0.0
O278 O 0.0572 0.25076 0.38504 0.0
Mn279 Mn 0.04738 0.22566 0.40506 0.0
O280 O 0.05258 0.25805 0.46556 0.0
O281 O 0.07314 0.2051 0.40781 0.0
O282 O 0.11376 0.26144 0.38917 0.0
O283 O 0.14711 0.28066 0.41394 0.0
O284 O 0.02887 0.22476 0.36499 0.0
O285 O 0.02864 0.22982 0.44605 0.0
C286 C 0.12032 0.27389 0.49756 0.0
C287 C 0.08173 0.31187 0.42175 0.0
C288 C 0.093 0.20894 0.4273 0.0
C289 C 0.04062 0.24331 0.3601 0.0
C290 C 0.03351 0.24435 0.46917 0.0
C291 C 0.13773 0.26875 0.38918 0.0
O292 O 0.10754 0.27028 0.46766 0.0
O293 O 0.13803 0.28918 0.49633 0.0
O294 O 0.66786 0.29264 0.33344 0.0
Mn295 Mn 0.65873 0.25951 0.32596 0.0
O296 O 0.63043 0.31044 0.31627 0.0
Mn297 Mn 0.61106 0.28623 0.30131 0.0
O298 O 0.64632 0.22677 0.31929 0.0
O299 O 0.68557 0.25212 0.36832 0.0
Mn300 Mn 0.70114 0.22978 0.3452 0.0
O301 O 0.68809 0.2584 0.28619 0.0
O302 O 0.68012 0.20623 0.33808 0.0
O303 O 0.62878 0.26211 0.36533 0.0
O304 O 0.59195 0.2717 0.33536 0.0
O305 O 0.71827 0.22884 0.38631 0.0
O306 O 0.72136 0.23832 0.30756 0.0
C307 C 0.62096 0.26991 0.2536 0.0
C308 C 0.65414 0.31026 0.32891 0.0
C309 C 0.65659 0.20813 0.32664 0.0
C310 C 0.70324 0.24558 0.3928 0.0
C311 C 0.71165 0.25053 0.28363 0.0
C312 C 0.60339 0.26486 0.36353 0.0
O313 O 0.63379 0.26713 0.28386 0.0
O314 O 0.60115 0.28348 0.25467 0.0
O315 O 0.07339 0.47898 0.34244 0.0
Mn316 Mn 0.08143 0.51171 0.32717 0.0
O317 O 0.10698 0.45879 0.3194 0.0
Mn318 Mn 0.12895 0.48167 0.30602 0.0
O319 O 0.09187 0.54439 0.3135 0.0
O320 O 0.0552 0.52358 0.36555 0.0
Mn321 Mn 0.03818 0.54407 0.33868 0.0
O322 O 0.05205 0.50875 0.28787 0.0
O323 O 0.06169 0.56662 0.3389 0.0
O324 O 0.11197 0.51301 0.36606 0.0
O325 O 0.147 0.49449 0.34343 0.0
O326 O 0.01447 0.53586 0.37226 0.0
O327 O 0.02558 0.53736 0.29349 0.0
C328 C 0.11858 0.49922 0.258 0.0
C329 C 0.08492 0.46043 0.33628 0.0
C330 C 0.0839 0.56351 0.32344 0.0
C331 C 0.03232 0.52182 0.38222 0.0
C332 C 0.03272 0.52054 0.27678 0.0
C333 C 0.13622 0.50597 0.36786 0.0
O334 O 0.10726 0.50166 0.28894 0.0
O335 O 0.13843 0.48571 0.25859 0.0
O336 O 0.8635 0.01914 0.60807 0.0
Mn337 Mn 0.82987 0.01095 0.57539 0.0
O338 O 0.88525 0.99045 0.59788 0.0
Mn339 Mn 0.8526 0.98068 0.61308 0.0
O340 O 0.79473 1.00455 0.54558 0.0
O341 O 0.82735 0.04556 0.57357 0.0
Mn342 Mn 0.81693 0.0457 0.52739 0.0
O343 O 0.85442 1.00903 0.52887 0.0
O344 O 0.78314 0.03599 0.5211 0.0
O345 O 0.80617 0.01102 0.62141 0.0
O346 O 0.834 0.99071 0.6535 0.0
O347 O 0.81762 0.07363 0.53608 0.0
O348 O 0.84183 0.03685 0.49451 0.0
C349 C 0.83823 0.95555 0.58667 0.0
C350 C 0.88583 1.00934 0.60937 0.0
C351 C 0.77773 0.01661 0.52905 0.0
C352 C 0.82484 0.06687 0.56763 0.0
C353 C 0.85624 0.02026 0.49982 0.0
C354 C 0.81245 1.00167 0.65102 0.0
O355 O 0.83146 0.97554 0.57563 0.0
O356 O 0.85353 0.95245 0.61425 0.0
O357 O 0.41956 0.22605 0.58488 0.0
Mn358 Mn 0.40778 0.25797 0.56965 0.0
O359 O 0.38311 0.20612 0.57659 0.0
Mn360 Mn 0.36432 0.22903 0.55741 0.0
O361 O 0.39469 0.28936 0.55259 0.0
O362 O 0.43433 0.26767 0.61104 0.0
Mn363 Mn 0.44093 0.29328 0.59048 0.0
O364 O 0.43818 0.25811 0.53188 0.0
O365 O 0.41244 0.31182 0.59159 0.0
O366 O 0.37832 0.26036 0.60934 0.0
O367 O 0.34262 0.24385 0.58776 0.0
O368 O 0.46179 0.29479 0.62871 0.0
O369 O 0.45742 0.2897 0.5468 0.0
C370 C 0.36467 0.23847 0.50498 0.0
C371 C 0.40708 0.20785 0.58651 0.0
C372 C 0.39517 0.30795 0.56804 0.0
C373 C 0.4514 0.27584 0.63476 0.0
C374 C 0.45496 0.27339 0.5261 0.0
C375 C 0.35338 0.25632 0.61022 0.0
O376 O 0.382 0.24716 0.52796 0.0
O377 O 0.34912 0.22309 0.51621 0.0
O378 O 0.82911 0.22922 0.66626 0.0
Mn379 Mn 0.83645 0.26227 0.67737 0.0
O380 O 0.86979 0.21376 0.67361 0.0
Mn381 Mn 0.88764 0.23799 0.69147 0.0
O382 O 0.84695 0.29474 0.68849 0.0
O383 O 0.80795 0.27189 0.63884 0.0
Mn384 Mn 0.79113 0.29176 0.66619 0.0
O385 O 0.80912 0.25972 0.71932 0.0
O386 O 0.81177 0.31564 0.67604 0.0
O387 O 0.86392 0.2635 0.63519 0.0
O388 O 0.90334 0.25698 0.66011 0.0
O389 O 0.77233 0.29306 0.62594 0.0
O390 O 0.77379 0.27973 0.70393 0.0
C391 C 0.87874 0.24882 0.74336 0.0
C392 C 0.84497 0.21258 0.66602 0.0
C393 C 0.83575 0.31348 0.686 0.0
C394 C 0.78948 0.27852 0.61574 0.0
C395 C 0.7854 0.26653 0.72475 0.0
C396 C 0.88944 0.2641 0.6343 0.0
O397 O 0.86388 0.25323 0.71545 0.0
O398 O 0.89992 0.23731 0.73712 0.0
O399 O 0.41724 0.04094 0.66342 0.0
Mn400 Mn 0.41064 1.00826 0.67993 0.0
O401 O 0.3846 0.06048 0.68896 0.0
Mn402 Mn 0.36691 0.03683 0.70744 0.0
O403 O 0.40118 0.97649 0.69889 0.0
O404 O 0.43344 0.99991 0.63338 0.0
Mn405 Mn 0.443 0.97475 0.6542 0.0
O406 O 0.44504 1.0097 0.7102 0.0
O407 O 0.41618 0.95512 0.6568 0.0
O408 O 0.37621 1.0058 0.64821 0.0
O409 O 0.34357 0.02306 0.6774 0.0
O410 O 0.45984 0.97221 0.61357 0.0
O411 O 0.46535 0.9791 0.69295 0.0
C412 C 0.37879 0.02321 0.75624 0.0
C413 C 0.40559 0.05927 0.67008 0.0
C414 C 0.40056 0.95834 0.68223 0.0
C415 C 0.44884 0.99106 0.60815 0.0
C416 C 0.46432 0.99611 0.71214 0.0
C417 C 0.35162 0.01094 0.65229 0.0
O418 O 0.39032 0.01798 0.72576 0.0
O419 O 0.35919 0.03701 0.75432 0.0
O420 O 0.164 0.97593 0.42298 0.0
Mn421 Mn 0.15717 1.0096 0.43251 0.0
O422 O 0.12999 0.958 0.44878 0.0
Mn423 Mn 0.10934 0.9824 0.45698 0.0
O424 O 0.14815 0.04314 0.44046 0.0
O425 O 0.18465 0.01631 0.39072 0.0
Mn426 Mn 0.20314 0.03551 0.41754 0.0
O427 O 0.18539 1.00749 0.47389 0.0
O428 O 0.18506 0.06079 0.42541 0.0
O429 O 0.12742 0.01052 0.39339 0.0
O430 O 0.09209 0.99355 0.41782 0.0
O431 O 0.22159 0.03585 0.37773 0.0
O432 O 0.2216 0.02447 0.45533 0.0
C433 C 0.11702 1.00194 0.50238 0.0
C434 C 0.15208 0.95817 0.43213 0.0
C435 C 0.1609 0.06091 0.43473 0.0
C436 C 0.20342 0.02219 0.36754 0.0
C437 C 0.20959 0.01319 0.47824 0.0
C438 C 0.10305 1.00423 0.39269 0.0
O439 O 0.13056 1.00312 0.47263 0.0
O440 O 0.09742 0.98829 0.50205 0.0
O441 O 0.57538 0.79351 0.40979 0.0
Mn442 Mn 0.58385 0.76111 0.4256 0.0
O443 O 0.60703 0.8147 0.43443 0.0
Mn444 Mn 0.62765 0.79199 0.45195 0.0
O445 O 0.59559 0.72898 0.44382 0.0
O446 O 0.55885 0.75261 0.3796 0.0
Mn447 Mn 0.5552 0.72898 0.40785 0.0
O448 O 0.55156 0.7633 0.46031 0.0
O449 O 0.58151 0.70959 0.39937 0.0
O450 O 0.61774 0.75929 0.39202 0.0
O451 O 0.64991 0.77832 0.42025 0.0
O452 O 0.52838 0.72494 0.37944 0.0
O453 O 0.54157 0.72907 0.45377 0.0
C454 C 0.61785 0.77472 0.49919 0.0
C455 C 0.58572 0.81229 0.41628 0.0
C456 C 0.59714 0.71145 0.42523 0.0
C457 C 0.53871 0.74179 0.36403 0.0
C458 C 0.53921 0.74654 0.47097 0.0
C459 C 0.64225 0.76523 0.39601 0.0
O460 O 0.60642 0.77132 0.46824 0.0
O461 O 0.63557 0.79 0.49959 0.0
O462 O 0.16329 0.7937 0.34289 0.0
Mn463 Mn 0.1566 0.76108 0.32782 0.0
O464 O 0.13056 0.81423 0.31884 0.0
Mn465 Mn 0.10939 0.79074 0.3057 0.0
O466 O 0.14742 0.72807 0.31526 0.0
O467 O 0.18441 0.75253 0.36775 0.0
Mn468 Mn 0.20252 0.73272 0.34218 0.0
O469 O 0.18584 0.76485 0.28862 0.0
O470 O 0.1832 0.70871 0.33111 0.0
O471 O 0.12602 0.75846 0.36534 0.0
O472 O 0.09108 0.77729 0.34228 0.0
O473 O 0.21903 0.73114 0.38417 0.0
O474 O 0.22113 0.74529 0.3059 0.0
C475 C 0.11775 0.77253 0.25833 0.0
C476 C 0.15219 0.8123 0.33665 0.0
C477 C 0.15929 0.70972 0.3206 0.0
C478 C 0.20226 0.74649 0.3921 0.0
C479 C 0.21 0.75868 0.28487 0.0
C480 C 0.10146 0.76456 0.3655 0.0
O481 O 0.13049 0.77022 0.28853 0.0
O482 O 0.09888 0.78695 0.25891 0.0
O483 O 0.57094 0.97743 0.32896 0.0
Mn484 Mn 0.58134 0.01054 0.32118 0.0
O485 O 0.60621 0.95867 0.30715 0.0
Mn486 Mn 0.62829 0.98173 0.29588 0.0
O487 O 0.59525 0.04267 0.31425 0.0
O488 O 0.55436 0.01966 0.36243 0.0
Mn489 Mn 0.54041 0.04234 0.33746 0.0
O490 O 0.5532 0.01298 0.27967 0.0
O491 O 0.56364 0.06497 0.33428 0.0
O492 O 0.61069 1.00671 0.36139 0.0
O493 O 0.64683 0.99239 0.33451 0.0
O494 O 0.52028 0.04271 0.37579 0.0
O495 O 0.52239 0.03686 0.29606 0.0
C496 C 0.61832 1.00062 0.24975 0.0
C497 C 0.58336 0.95936 0.32222 0.0
C498 C 0.58664 0.06178 0.32181 0.0
C499 C 0.53612 0.02698 0.38539 0.0
C500 C 0.53203 0.02397 0.27339 0.0
C501 C 0.63518 1.00026 0.36179 0.0
O502 O 0.60673 1.0023 0.28083 0.0
O503 O 0.63817 0.98709 0.24927 0.0
O504 O 0.8655 0.50863 0.10951 0.0
Mn505 Mn 0.83169 0.50927 0.0754 0.0
O506 O 0.85647 0.48017 0.14474 0.0
Mn507 Mn 0.82749 0.47102 0.11812 0.0
O508 O 0.79826 0.50865 0.04041 0.0
O509 O 0.83276 0.5437 0.07991 0.0
Mn510 Mn 0.82931 0.54925 0.03346 0.0
O511 O 0.85723 0.50728 0.02942 0.0
O512 O 0.79562 0.54259 0.01947 0.0
O513 O 0.80404 0.51174 0.11992 0.0
O514 O 0.79432 0.47779 0.13262 0.0
O515 O 0.83332 0.57587 0.0498 0.0
O516 O 0.85571 0.53987 0.00342 0.0
C517 C 0.83296 0.45339 0.07313 0.0
C518 C 0.87167 0.49572 0.13551 0.0
C519 C 0.78671 0.5234 0.02138 0.0
C520 C 0.83356 0.56536 0.08 0.0
C521 C 0.86407 0.52049 0.00415 0.0
C522 C 0.78885 0.49757 0.13517 0.0
O523 O 0.83313 0.47496 0.07151 0.0
O524 O 0.8284 0.44388 0.10354 0.0
O525 O 0.41865 0.72936 0.09286 0.0
Mn526 Mn 0.40666 0.76109 0.07479 0.0
O527 O 0.38615 0.70656 0.07517 0.0
Mn528 Mn 0.36374 0.72806 0.05873 0.0
O529 O 0.39208 0.79195 0.05644 0.0
O530 O 0.43298 0.77391 0.11367 0.0
Mn531 Mn 0.44408 0.79663 0.08739 0.0
O532 O 0.43668 0.75941 0.0366 0.0
O533 O 0.41891 0.81738 0.07798 0.0
O534 O 0.37629 0.76281 0.1131 0.0
O535 O 0.34341 0.74153 0.09247 0.0
O536 O 0.46187 0.80044 0.12804 0.0
O537 O 0.46352 0.78733 0.04883 0.0
C538 C 0.3684 0.74188 0.00774 0.0
C539 C 0.40852 0.71005 0.09003 0.0
C540 C 0.39785 0.81209 0.06174 0.0
C541 C 0.44971 0.78269 0.13717 0.0
C542 C 0.4574 0.77082 0.0302 0.0
C543 C 0.35254 0.75519 0.11477 0.0
O544 O 0.38219 0.74817 0.03578 0.0
O545 O 0.35122 0.72654 0.01351 0.0
O546 O 0.82646 0.72744 0.16946 0.0
Mn547 Mn 0.83572 0.76033 0.1787 0.0
O548 O 0.86848 0.71621 0.16544 0.0
Mn549 Mn 0.88273 0.7406 0.18793 0.0
O550 O 0.84828 0.79265 0.18748 0.0
O551 O 0.80814 0.76966 0.13866 0.0
Mn552 Mn 0.79283 0.7914 0.16384 0.0
O553 O 0.80704 0.76033 0.21992 0.0
O554 O 0.81434 0.81459 0.17435 0.0
O555 O 0.86256 0.75951 0.13474 0.0
O556 O 0.90016 0.76149 0.16204 0.0
O557 O 0.77585 0.79345 0.12229 0.0
O558 O 0.77291 0.78043 0.20033 0.0
C559 C 0.88197 0.74368 0.24167 0.0
C560 C 0.84364 0.71236 0.16296 0.0
C561 C 0.8381 0.81174 0.18451 0.0
C562 C 0.79039 0.77659 0.11472 0.0
C563 C 0.78298 0.76734 0.2228 0.0
C564 C 0.88735 0.7641 0.13368 0.0
O565 O 0.86199 0.75186 0.22218 0.0
O566 O 0.90112 0.73327 0.22588 0.0
O567 O 0.41552 0.54301 0.16787 0.0
Mn568 Mn 0.408 0.50975 0.17901 0.0
O569 O 0.37787 0.56069 0.1839 0.0
Mn570 Mn 0.3579 0.53664 0.19812 0.0
O571 O 0.39806 0.47686 0.18846 0.0
O572 O 0.43666 0.501 0.1397 0.0
Mn573 Mn 0.45467 0.4832 0.16972 0.0
O574 O 0.43359 0.51142 0.22263 0.0
O575 O 0.4356 0.45827 0.17926 0.0
O576 O 0.37991 0.50862 0.13781 0.0
O577 O 0.34183 0.5214 0.16191 0.0
O578 O 0.47453 0.48145 0.13112 0.0
O579 O 0.47173 0.49654 0.20678 0.0
C580 C 0.36921 0.52126 0.24766 0.0
C581 C 0.40159 0.56066 0.17135 0.0
C582 C 0.41089 0.4588 0.18615 0.0
C583 C 0.45619 0.49424 0.11834 0.0
C584 C 0.45798 0.50731 0.22857 0.0
C585 C 0.35465 0.51195 0.13701 0.0
O586 O 0.3808 0.5182 0.21693 0.0
O587 O 0.34821 0.5335 0.24545 0.0
O588 O 0.16357 0.47667 0.91135 0.0
Mn589 Mn 0.15599 0.50895 0.93148 0.0
O590 O 0.13647 0.4555 0.94134 0.0
Mn591 Mn 0.11704 0.48003 0.94801 0.0
O592 O 0.14776 0.54129 0.95024 0.0
O593 O 0.18144 0.51755 0.88776 0.0
Mn594 Mn 0.19572 0.53997 0.91156 0.0
O595 O 0.18793 0.50412 0.96557 0.0
O596 O 0.17274 0.5625 0.91648 0.0
O597 O 0.12464 0.51491 0.89634 0.0
O598 O 0.09644 0.48892 0.91051 0.0
O599 O 0.21354 0.54142 0.87113 0.0
O600 O 0.21489 0.53158 0.9513 0.0
C601 C 0.11285 0.49115 0.99847 0.0
C602 C 0.15577 0.45751 0.92044 0.0
C603 C 0.15345 0.56016 0.93741 0.0
C604 C 0.19848 0.52498 0.86324 0.0
C605 C 0.2091 0.51515 0.9703 0.0
C606 C 0.10274 0.50504 0.89163 0.0
O607 O 0.13166 0.50004 0.97757 0.0
O608 O 0.09679 0.47693 0.98486 0.0
O609 O 0.57398 0.29084 0.90454 0.0
Mn610 Mn 0.58293 0.25884 0.92356 0.0
O611 O 0.60227 0.31325 0.93218 0.0
Mn612 Mn 0.62418 0.29066 0.94524 0.0
O613 O 0.59303 0.22637 0.94017 0.0
O614 O 0.55954 0.24695 0.88122 0.0
Mn615 Mn 0.54247 0.22657 0.90762 0.0
O616 O 0.55146 0.26289 0.95858 0.0
O617 O 0.56581 0.20407 0.90981 0.0
O618 O 0.61561 0.25596 0.88911 0.0
O619 O 0.64567 0.27957 0.91032 0.0
O620 O 0.51929 0.23317 0.87268 0.0
O621 O 0.52766 0.23321 0.95112 0.0
C622 C 0.62003 0.27594 0.99488 0.0
C623 C 0.5822 0.31016 0.91221 0.0
C624 C 0.58659 0.20723 0.92851 0.0
C625 C 0.53678 0.24755 0.86343 0.0
C626 C 0.53247 0.25055 0.9678 0.0
C627 C 0.63861 0.26499 0.88829 0.0
O628 O 0.60596 0.26962 0.96679 0.0
O629 O 0.63736 0.29125 0.98965 0.0
O630 O 0.1649 0.29181 0.83754 0.0
Mn631 Mn 0.15821 0.25892 0.82489 0.0
O632 O 0.12566 0.30831 0.82567 0.0
Mn633 Mn 0.10849 0.28382 0.80761 0.0
O634 O 0.14919 0.2262 0.81131 0.0
O635 O 0.18526 0.25052 0.86646 0.0
Mn636 Mn 0.20231 0.23 0.84126 0.0
O637 O 0.18762 0.26211 0.78556 0.0
O638 O 0.18183 0.20596 0.83423 0.0
O639 O 0.12869 0.25672 0.86454 0.0
O640 O 0.09042 0.26608 0.83865 0.0
O641 O 0.22103 0.22959 0.88125 0.0
O642 O 0.22049 0.23999 0.80257 0.0
C643 C 0.11745 0.2725 0.75617 0.0
C644 C 0.14986 0.30884 0.8363 0.0
C645 C 0.15932 0.20755 0.81918 0.0
C646 C 0.20343 0.24407 0.8903 0.0
C647 C 0.21077 0.25383 0.78112 0.0
C648 C 0.10312 0.25742 0.86427 0.0
O649 O 0.13225 0.26782 0.78423 0.0
O650 O 0.09666 0.28457 0.76205 0.0
O651 O 0.56951 0.47632 0.83584 0.0
Mn652 Mn 0.57986 0.50918 0.82393 0.0
O653 O 0.60431 0.45584 0.8181 0.0
Mn654 Mn 0.62582 0.47907 0.80777 0.0
O655 O 0.59248 0.54138 0.81032 0.0
O656 O 0.55161 0.518 0.86375 0.0
Mn657 Mn 0.54218 0.54241 0.84066 0.0
O658 O 0.55141 0.50917 0.78315 0.0
O659 O 0.56769 0.56319 0.84321 0.0
O660 O 0.60892 0.51018 0.86469 0.0
O661 O 0.644 0.49091 0.84537 0.0
O662 O 0.52012 0.54335 0.87702 0.0
O663 O 0.52669 0.53815 0.79652 0.0
C664 C 0.62173 0.49454 0.75778 0.0
C665 C 0.58098 0.45769 0.83074 0.0
C666 C 0.58782 0.56018 0.82397 0.0
C667 C 0.53304 0.52576 0.88575 0.0
C668 C 0.53268 0.52265 0.77568 0.0
C669 C 0.63292 0.50315 0.86815 0.0
O670 O 0.60653 0.49931 0.78521 0.0
O671 O 0.64049 0.48039 0.76393 0.0
H672 H 0.41403 0.85117 0.03637 0.0
H673 H 0.34278 0.81462 0.06134 0.0
H674 H 0.31553 0.84806 0.05215 0.0
H675 H 0.40004 0.89596 0.08336 0.0
H676 H 0.41375 0.91542 0.05229 0.0
H677 H 0.42591 0.88795 0.05258 0.0
H678 H 0.4147 0.88457 0.98497 0.0
H679 H 0.40222 0.91216 0.98462 0.0
H680 H 0.38129 0.8902 0.96944 0.0
H681 H 0.29755 0.8868 0.05029 0.0
H682 H 0.29157 0.92581 0.06338 0.0
H683 H 0.37474 0.93719 0.04056 0.0
C684 C 0.39254 0.85002 0.03863 0.0
C685 C 0.38045 0.83021 0.04902 0.0
C686 C 0.35238 0.82945 0.05247 0.0
C687 C 0.3368 0.84842 0.04734 0.0
C688 C 0.34953 0.8679 0.03802 0.0
C689 C 0.37684 0.86869 0.03342 0.0
C690 C 0.38634 0.89188 0.02779 0.0
C691 C 0.40773 0.89816 0.05569 0.0
C692 C 0.39676 0.89488 0.98943 0.0
C693 C 0.36047 0.90439 0.03302 0.0
C694 C 0.33926 0.89023 0.03735 0.0
C695 C 0.31388 0.89795 0.04594 0.0
C696 C 0.31049 0.92034 0.05263 0.0
C697 C 0.33245 0.93478 0.05187 0.0
C698 C 0.35732 0.92682 0.03965 0.0
H699 H 0.88211 0.43909 0.07752 0.0
H700 H 0.80944 0.43229 0.01625 0.0
H701 H 0.82172 0.39413 0.00189 0.0
H702 H 0.92763 0.39826 0.03883 0.0
H703 H 0.93686 0.38896 0.08307 0.0
H704 H 0.92748 0.41696 0.07607 0.0
H705 H 0.89181 0.4129 0.12578 0.0
H706 H 0.90028 0.38467 0.1318 0.0
H707 H 0.86644 0.39237 0.12124 0.0
H708 H 0.83939 0.35359 0.00418 0.0
H709 H 0.85958 0.31803 0.02249 0.0
H710 H 0.91391 0.35277 0.09275 0.0
C711 C 0.86994 0.43015 0.0585 0.0
C712 C 0.84546 0.43899 0.04659 0.0
C713 C 0.82887 0.42619 0.02426 0.0
C714 C 0.83546 0.40428 0.01675 0.0
C715 C 0.85828 0.39529 0.03276 0.0
C716 C 0.87507 0.40802 0.05351 0.0
C717 C 0.89399 0.39422 0.07557 0.0
C718 C 0.92322 0.39994 0.06787 0.0
C719 C 0.88775 0.39617 0.11594 0.0
C720 C 0.88683 0.37191 0.062 0.0
C721 C 0.86615 0.37246 0.03752 0.0
C722 C 0.85579 0.35315 0.02313 0.0
C723 C 0.86725 0.333 0.03374 0.0
C724 C 0.88854 0.33242 0.05885 0.0
C725 C 0.89796 0.35229 0.0731 0.0
H726 H 0.38767 0.43105 0.23658 0.0
H727 H 0.40286 0.43975 0.12313 0.0
H728 H 0.38867 0.40206 0.11152 0.0
H729 H 0.40991 0.37689 0.24393 0.0
H730 H 0.38412 0.36731 0.27349 0.0
H731 H 0.39349 0.39561 0.27383 0.0
H732 H 0.34472 0.40733 0.26078 0.0
H733 H 0.33504 0.37911 0.26174 0.0
H734 H 0.32731 0.39566 0.22309 0.0
H735 H 0.37928 0.3628 0.11266 0.0
H736 H 0.36259 0.3257 0.12346 0.0
H737 H 0.34872 0.34157 0.23501 0.0
C738 C 0.38721 0.4251 0.20929 0.0
C739 C 0.39636 0.43821 0.18064 0.0
C740 C 0.39587 0.4299 0.14531 0.0
C741 C 0.38806 0.40848 0.13849 0.0
C742 C 0.38045 0.39555 0.16731 0.0
C743 C 0.37892 0.40363 0.20182 0.0
C744 C 0.36935 0.38599 0.22745 0.0
C745 C 0.39048 0.38117 0.2564 0.0
C746 C 0.3425 0.39241 0.24425 0.0
C747 C 0.36628 0.36679 0.20197 0.0
C748 C 0.37344 0.37274 0.1676 0.0
C749 C 0.3733 0.35798 0.13935 0.0
C750 C 0.36419 0.33686 0.14585 0.0
C751 C 0.3549 0.33069 0.18012 0.0
C752 C 0.35639 0.34572 0.2088 0.0
H753 H 0.84486 0.84388 0.23561 0.0
H754 H 0.86754 0.82372 0.12866 0.0
H755 H 0.88411 0.86068 0.11601 0.0
H756 H 0.82366 0.89666 0.21647 0.0
H757 H 0.8384 0.91001 0.25468 0.0
H758 H 0.82946 0.88167 0.25738 0.0
H759 H 0.87777 0.87115 0.2754 0.0
H760 H 0.88658 0.89956 0.27421 0.0
H761 H 0.90514 0.88015 0.24798 0.0
H762 H 0.89097 0.90007 0.11132 0.0
H763 H 0.90347 0.93829 0.1202 0.0
H764 H 0.88279 0.93363 0.23279 0.0
C765 C 0.85435 0.84714 0.21014 0.0
C766 C 0.85532 0.831 0.18312 0.0
C767 C 0.86718 0.83581 0.14979 0.0
C768 C 0.87624 0.85681 0.14222 0.0
C769 C 0.87388 0.87266 0.16866 0.0
C770 C 0.86451 0.86797 0.20254 0.0
C771 C 0.86556 0.88811 0.22629 0.0
C772 C 0.8376 0.89448 0.23948 0.0
C773 C 0.88492 0.88453 0.25784 0.0
C774 C 0.87631 0.9049 0.20005 0.0
C775 C 0.88015 0.89553 0.16677 0.0
C776 C 0.88875 0.90748 0.13743 0.0
C777 C 0.89553 0.92923 0.14271 0.0
C778 C 0.89432 0.9388 0.17718 0.0
C779 C 0.88372 0.92674 0.20613 0.0
H780 H 0.62994 0.08531 0.97909 0.0
H781 H 0.65536 0.08192 0.86818 0.0
H782 H 0.64493 0.12069 0.86011 0.0
H783 H 0.57307 0.12345 0.95959 0.0
H784 H 0.57703 0.13786 1.00131 0.0
H785 H 0.58599 0.10948 0.99855 0.0
H786 H 0.6332 0.11892 0.02212 0.0
H787 H 0.62465 0.14744 0.02372 0.0
H788 H 0.65311 0.13851 0.99822 0.0
H789 H 0.63789 0.15978 0.86506 0.0
H790 H 0.61948 0.19629 0.87615 0.0
H791 H 0.59287 0.1757 0.98121 0.0
C792 C 0.63236 0.09265 0.9529 0.0
C793 C 0.6435 0.08068 0.92417 0.0
C794 C 0.6468 0.09085 0.89041 0.0
C795 C 0.64128 0.11292 0.88567 0.0
C796 C 0.63186 0.12463 0.91478 0.0
C797 C 0.62617 0.11485 0.94727 0.0
C798 C 0.61447 0.13152 0.97308 0.0
C799 C 0.58594 0.1252 0.98375 0.0
C800 C 0.63243 0.13425 0.00625 0.0
C801 C 0.61473 0.15198 0.94986 0.0
C802 C 0.6258 0.14755 0.91683 0.0
C803 C 0.62897 0.1635 0.8907 0.0
C804 C 0.61894 0.18431 0.89748 0.0
C805 C 0.60549 0.18893 0.92979 0.0
C806 C 0.60386 0.17273 0.95677 0.0
H807 H 0.11389 0.67925 0.88284 0.0
H808 H 0.1027 0.69572 0.99457 0.0
H809 H 0.11363 0.65747 0.01165 0.0
H810 H 0.08288 0.62877 0.88531 0.0
H811 H 0.1054 0.61594 0.85423 0.0
H812 H 0.0996 0.64483 0.85177 0.0
H813 H 0.15027 0.65235 0.85835 0.0
H814 H 0.15632 0.62346 0.85953 0.0
H815 H 0.16845 0.64046 0.89534 0.0
H816 H 0.12391 0.61525 0.01468 0.0
H817 H 0.13745 0.57671 0.00348 0.0
H818 H 0.13786 0.58979 0.88942 0.0
C819 C 0.11443 0.67498 0.91104 0.0
C820 C 0.10779 0.69046 0.93741 0.0
C821 C 0.10834 0.6842 0.97399 0.0
C822 C 0.11412 0.66243 0.98382 0.0
C823 C 0.11928 0.64726 0.95672 0.0
C824 C 0.11986 0.65355 0.9211 0.0
C825 C 0.12528 0.6346 0.89654 0.0
C826 C 0.10189 0.63083 0.87044 0.0
C827 C 0.15165 0.63791 0.87627 0.0
C828 C 0.12747 0.61642 0.92363 0.0
C829 C 0.12407 0.62374 0.95833 0.0
C830 C 0.12647 0.60945 0.98754 0.0
C831 C 0.13375 0.58751 0.98101 0.0
C832 C 0.13834 0.58027 0.94558 0.0
C833 C 0.13414 0.59482 0.91679 0.0
H834 H 0.63219 0.68004 0.86734 0.0
H835 H 0.64445 0.6915 0.75415 0.0
H836 H 0.6309 0.65332 0.74121 0.0
H837 H 0.65924 0.62855 0.87108 0.0
H838 H 0.63583 0.61773 0.90298 0.0
H839 H 0.64303 0.6464 0.90259 0.0
H840 H 0.59291 0.65576 0.89409 0.0
H841 H 0.58539 0.62714 0.89599 0.0
H842 H 0.57444 0.64319 0.85815 0.0
H843 H 0.6198 0.61179 0.74277 0.0
H844 H 0.6055 0.57404 0.75763 0.0
H845 H 0.6025 0.59142 0.86996 0.0
C846 C 0.63108 0.67471 0.83969 0.0
C847 C 0.63886 0.68863 0.81164 0.0
C848 C 0.63787 0.68111 0.77585 0.0
C849 C 0.63058 0.6594 0.76841 0.0
C850 C 0.6243 0.64566 0.79711 0.0
C851 C 0.62391 0.65332 0.83196 0.0
C852 C 0.61727 0.63558 0.85844 0.0
C853 C 0.64022 0.63186 0.88534 0.0
C854 C 0.59093 0.64072 0.87779 0.0
C855 C 0.61437 0.6165 0.83334 0.0
C856 C 0.61851 0.62239 0.79802 0.0
C857 C 0.61649 0.6071 0.77037 0.0
C858 C 0.60881 0.58562 0.77902 0.0
C859 C 0.60329 0.57983 0.81497 0.0
C860 C 0.60694 0.59536 0.8423 0.0
H861 H 0.16761 0.16886 0.85205 0.0
H862 H 0.11935 0.19938 0.7691 0.0
H863 H 0.09968 0.16326 0.75464 0.0
H864 H 0.18212 0.11925 0.80656 0.0
H865 H 0.17985 0.10287 0.84658 0.0
H866 H 0.19003 0.13091 0.8496 0.0
H867 H 0.15194 0.13898 0.89458 0.0
H868 H 0.14218 0.11087 0.89249 0.0
H869 H 0.11813 0.13199 0.88277 0.0
H870 H 0.08576 0.12298 0.75002 0.0
H871 H 0.07384 0.08448 0.76172 0.0
H872 H 0.13171 0.08173 0.8479 0.0
C873 C 0.15301 0.16806 0.8306 0.0
C874 C 0.14532 0.18689 0.81126 0.0
C875 C 0.12563 0.18514 0.78411 0.0
C876 C 0.11457 0.16468 0.77558 0.0
C877 C 0.1234 0.14631 0.79459 0.0
C878 C 0.14186 0.14803 0.82197 0.0
C879 C 0.14726 0.12637 0.83994 0.0
C880 C 0.17655 0.11945 0.83538 0.0
C881 C 0.13939 0.1271 0.87978 0.0
C882 C 0.12886 0.11192 0.81854 0.0
C883 C 0.11548 0.12358 0.79214 0.0
C884 C 0.09644 0.11372 0.77024 0.0
C885 C 0.0901 0.09177 0.77664 0.0
C886 C 0.10268 0.08003 0.80473 0.0
C887 C 0.12274 0.0901 0.82523 0.0
H888 H 0.36213 0.3325 0.60749 0.0
H889 H 0.3957 0.32676 0.5014 0.0
H890 H 0.38001 0.36422 0.4869 0.0
H891 H 0.30276 0.3664 0.5849 0.0
H892 H 0.30654 0.38192 0.62559 0.0
H893 H 0.31681 0.35378 0.62442 0.0
H894 H 0.36405 0.36482 0.64611 0.0
H895 H 0.35404 0.3929 0.64715 0.0
H896 H 0.38252 0.38478 0.62102 0.0
H897 H 0.36999 0.4058 0.49096 0.0
H898 H 0.36293 0.44401 0.51131 0.0
H899 H 0.32958 0.41976 0.61032 0.0
C900 C 0.36486 0.33872 0.58057 0.0
C901 C 0.3793 0.32664 0.55517 0.0
C902 C 0.38381 0.3356 0.52075 0.0
C903 C 0.3752 0.35693 0.51248 0.0
C904 C 0.36169 0.36882 0.53874 0.0
C905 C 0.35607 0.35969 0.57184 0.0
C906 C 0.34386 0.3761 0.59694 0.0
C907 C 0.31581 0.36913 0.60862 0.0
C908 C 0.3622 0.37986 0.62969 0.0
C909 C 0.34297 0.39591 0.57286 0.0
C910 C 0.35403 0.39183 0.53967 0.0
C911 C 0.36017 0.40897 0.5162 0.0
C912 C 0.35578 0.43067 0.52763 0.0
C913 C 0.3448 0.43481 0.5618 0.0
C914 C 0.33695 0.41706 0.58339 0.0
H915 H 0.86157 0.93486 0.53078 0.0
H916 H 0.79938 0.92929 0.61001 0.0
H917 H 0.80349 0.88935 0.60843 0.0
H918 H 0.84388 0.87902 0.48309 0.0
H919 H 0.87875 0.8745 0.47414 0.0
H920 H 0.86521 0.90177 0.47308 0.0
H921 H 0.90095 0.91365 0.51923 0.0
H922 H 0.91415 0.8865 0.52124 0.0
H923 H 0.90321 0.89969 0.56177 0.0
H924 H 0.82211 0.8513 0.60974 0.0
H925 H 0.85054 0.81822 0.6088 0.0
H926 H 0.90134 0.84819 0.5294 0.0
C927 C 0.84726 0.92512 0.54535 0.0
C928 C 0.8294 0.93523 0.56947 0.0
C929 C 0.81225 0.92194 0.59009 0.0
C930 C 0.81482 0.89915 0.58984 0.0
C931 C 0.83412 0.88973 0.56789 0.0
C932 C 0.84944 0.90225 0.54499 0.0
C933 C 0.87069 0.88836 0.52704 0.0
C934 C 0.86426 0.88576 0.48696 0.0
C935 C 0.8989 0.89761 0.53273 0.0
C936 C 0.86701 0.86688 0.54653 0.0
C937 C 0.84513 0.86773 0.56896 0.0
C938 C 0.83871 0.85027 0.59136 0.0
C939 C 0.85493 0.83154 0.59068 0.0
C940 C 0.8777 0.83059 0.56846 0.0
C941 C 0.88368 0.84842 0.546 0.0
H942 H 0.36935 0.9336 0.6411 0.0
H943 H 0.40034 0.93939 0.74908 0.0
H944 H 0.38743 0.90102 0.76132 0.0
H945 H 0.31315 0.89638 0.66033 0.0
H946 H 0.31837 0.88205 0.61881 0.0
H947 H 0.32633 0.91055 0.62195 0.0
H948 H 0.37422 0.90172 0.60021 0.0
H949 H 0.36679 0.8731 0.59854 0.0
H950 H 0.39444 0.88262 0.62518 0.0
H951 H 0.37656 0.85982 0.75762 0.0
H952 H 0.36167 0.82239 0.74188 0.0
H953 H 0.33895 0.8452 0.63607 0.0
C954 C 0.37229 0.92706 0.66785 0.0
C955 C 0.38529 0.93939 0.69443 0.0
C956 C 0.3897 0.93027 0.72877 0.0
C957 C 0.38281 0.90842 0.73568 0.0
C958 C 0.37148 0.89621 0.70794 0.0
C959 C 0.3657 0.90549 0.67497 0.0
C960 C 0.35508 0.88896 0.6487 0.0
C961 C 0.32653 0.89484 0.63677 0.0
C962 C 0.37375 0.88647 0.61626 0.0
C963 C 0.35563 0.86884 0.6719 0.0
C964 C 0.36542 0.87308 0.70586 0.0
C965 C 0.36852 0.85646 0.73125 0.0
C966 C 0.36035 0.83524 0.72202 0.0
C967 C 0.34905 0.83108 0.6879 0.0
C968 C 0.34729 0.84803 0.66249 0.0
H969 H 0.84227 0.34585 0.73703 0.0
H970 H 0.86415 0.32588 0.62964 0.0
H971 H 0.88085 0.36277 0.61704 0.0
H972 H 0.82159 0.3992 0.71808 0.0
H973 H 0.83665 0.4122 0.75639 0.0
H974 H 0.82716 0.38396 0.75881 0.0
H975 H 0.8753 0.37288 0.77668 0.0
H976 H 0.8847 0.40116 0.77556 0.0
H977 H 0.9028 0.38153 0.74918 0.0
H978 H 0.88733 0.40192 0.61223 0.0
H979 H 0.90003 0.44003 0.62058 0.0
H980 H 0.88179 0.43546 0.73404 0.0
C981 C 0.8515 0.34918 0.71142 0.0
C982 C 0.85223 0.33312 0.68425 0.0
C983 C 0.86388 0.33795 0.6508 0.0
C984 C 0.87304 0.3589 0.64328 0.0
C985 C 0.87098 0.37467 0.66988 0.0
C986 C 0.8618 0.36997 0.70384 0.0
C987 C 0.86334 0.39008 0.72768 0.0
C988 C 0.83552 0.39675 0.74103 0.0
C989 C 0.88269 0.38618 0.75914 0.0
C990 C 0.87429 0.4068 0.70142 0.0
C991 C 0.87755 0.39743 0.66802 0.0
C992 C 0.88566 0.40933 0.63843 0.0
C993 C 0.89255 0.43103 0.64345 0.0
C994 C 0.89227 0.44059 0.67799 0.0
C995 C 0.88212 0.42859 0.70734 0.0
H996 H 0.63694 0.59097 0.38391 0.0
H997 H 0.63136 0.575 0.49664 0.0
H998 H 0.61886 0.6135 0.50976 0.0
H999 H 0.66959 0.63951 0.39498 0.0
H1000 H 0.65345 0.65331 0.35808 0.0
H1001 H 0.65727 0.62418 0.35726 0.0
H1002 H 0.60625 0.61916 0.34901 0.0
H1003 H 0.60239 0.6483 0.34825 0.0
H1004 H 0.58366 0.63222 0.37975 0.0
H1005 H 0.61039 0.65592 0.50928 0.0
H1006 H 0.60183 0.6949 0.49427 0.0
H1007 H 0.61851 0.6812 0.38278 0.0
C1008 C 0.63211 0.59538 0.41125 0.0
C1009 C 0.63462 0.58005 0.4392 0.0
C1010 C 0.62882 0.58644 0.47475 0.0
C1011 C 0.62215 0.60834 0.48241 0.0
C1012 C 0.62159 0.62343 0.4542 0.0
C1013 C 0.62604 0.61694 0.41924 0.0
C1014 C 0.62604 0.63592 0.39356 0.0
C1015 C 0.6532 0.63835 0.37489 0.0
C1016 C 0.60322 0.63378 0.36604 0.0
C1017 C 0.62111 0.65434 0.41931 0.0
C1018 C 0.61839 0.6471 0.45422 0.0
C1019 C 0.61265 0.66166 0.48202 0.0
C1020 C 0.6083 0.68383 0.47345 0.0
C1021 C 0.60998 0.69107 0.43747 0.0
C1022 C 0.61754 0.67619 0.41063 0.0
H1023 H 0.1314 0.08689 0.48275 0.0
H1024 H 0.16039 0.08264 0.37346 0.0
H1025 H 0.15085 0.1214 0.36424 0.0
H1026 H 0.07576 0.12617 0.45768 0.0
H1027 H 0.07812 0.14054 0.49965 0.0
H1028 H 0.0862 0.11195 0.49769 0.0
H1029 H 0.13241 0.12033 0.52554 0.0
H1030 H 0.12482 0.14904 0.52632 0.0
H1031 H 0.15419 0.1394 0.5035 0.0
H1032 H 0.14541 0.16052 0.36857 0.0
H1033 H 0.12813 0.19744 0.37802 0.0
H1034 H 0.09678 0.17814 0.48126 0.0
C1035 C 0.13484 0.09406 0.45665 0.0
C1036 C 0.14703 0.08188 0.42891 0.0
C1037 C 0.15133 0.09178 0.39511 0.0
C1038 C 0.14624 0.11383 0.38968 0.0
C1039 C 0.13609 0.1258 0.41801 0.0
C1040 C 0.12903 0.11628 0.45021 0.0
C1041 C 0.11669 0.13328 0.47491 0.0
C1042 C 0.08745 0.12766 0.48294 0.0
C1043 C 0.13301 0.13564 0.50963 0.0
C1044 C 0.1188 0.1537 0.45171 0.0
C1045 C 0.13083 0.14884 0.41949 0.0
C1046 C 0.13579 0.1646 0.39359 0.0
C1047 C 0.12653 0.18572 0.39957 0.0
C1048 C 0.11212 0.19091 0.43085 0.0
C1049 C 0.10871 0.17482 0.45776 0.0
H1050 H 0.63047 0.18328 0.27461 0.0
H1051 H 0.64809 0.1881 0.3883 0.0
H1052 H 0.6369 0.14956 0.39643 0.0
H1053 H 0.5718 0.1452 0.28965 0.0
H1054 H 0.57812 0.13066 0.24862 0.0
H1055 H 0.58619 0.15915 0.25187 0.0
H1056 H 0.63459 0.15002 0.23292 0.0
H1057 H 0.62696 0.1214 0.23116 0.0
H1058 H 0.6539 0.13089 0.25913 0.0
H1059 H 0.63212 0.11017 0.3912 0.0
H1060 H 0.61616 0.0731 0.37817 0.0
H1061 H 0.59471 0.09313 0.27032 0.0
C1062 C 0.63077 0.17637 0.30134 0.0
C1063 C 0.64025 0.18852 0.33089 0.0
C1064 C 0.64081 0.17896 0.36544 0.0
C1065 C 0.63489 0.15704 0.37027 0.0
C1066 C 0.62752 0.14502 0.34042 0.0
C1067 C 0.62388 0.15442 0.30702 0.0
C1068 C 0.61398 0.13755 0.28034 0.0
C1069 C 0.58585 0.14349 0.26683 0.0
C1070 C 0.63354 0.13482 0.24904 0.0
C1071 C 0.61357 0.11731 0.30393 0.0
C1072 C 0.62231 0.12205 0.33815 0.0
C1073 C 0.62475 0.10622 0.36471 0.0
C1074 C 0.61611 0.08517 0.35692 0.0
C1075 C 0.60471 0.08036 0.3232 0.0
C1076 C 0.60403 0.0964 0.29599 0.0
H1077 H 0.12796 0.68526 0.27205 0.0
H1078 H 0.15812 0.6875 0.38128 0.0
H1079 H 0.14655 0.64918 0.38993 0.0
H1080 H 0.07027 0.64902 0.29729 0.0
H1081 H 0.07099 0.63464 0.25523 0.0
H1082 H 0.08123 0.66271 0.25721 0.0
H1083 H 0.12637 0.65182 0.22881 0.0
H1084 H 0.11666 0.6236 0.22794 0.0
H1085 H 0.14696 0.63154 0.25051 0.0
H1086 H 0.13832 0.61019 0.3852 0.0
H1087 H 0.11876 0.57396 0.37477 0.0
H1088 H 0.08745 0.59601 0.27242 0.0
C1089 C 0.13129 0.67778 0.298 0.0
C1090 C 0.14439 0.68924 0.32585 0.0
C1091 C 0.14843 0.67892 0.35948 0.0
C1092 C 0.14218 0.65708 0.36461 0.0
C1093 C 0.13099 0.64576 0.33624 0.0
C1094 C 0.12422 0.65582 0.30421 0.0
C1095 C 0.11033 0.63965 0.27953 0.0
C1096 C 0.08149 0.64694 0.27187 0.0
C1097 C 0.12603 0.63647 0.24463 0.0
C1098 C 0.1111 0.61911 0.30256 0.0
C1099 C 0.12388 0.62307 0.33471 0.0
C1100 C 0.12791 0.60686 0.36035 0.0
C1101 C 0.11711 0.58626 0.35401 0.0
C1102 C 0.1021 0.58219 0.32265 0.0
C1103 C 0.09945 0.59865 0.29621 0.0
H1104 H 0.27915 0.03132 0.18443 0.0
H1105 H 0.25913 0.96378 0.16517 0.0
H1106 H 0.2271 0.96458 0.21499 0.0
H1107 H 0.28031 0.02784 0.27556 0.0
H1108 H 0.2659 0.05419 0.28458 0.0
H1109 H 0.28335 0.0496 0.24333 0.0
H1110 H 0.24165 0.06191 0.20722 0.0
H1111 H 0.22403 0.06665 0.24852 0.0
H1112 H 0.21006 0.04883 0.21507 0.0
H1113 H 0.20326 0.97069 0.27449 0.0
H1114 H 0.18952 0.98267 0.33548 0.0
H1115 H 0.22262 0.04642 0.31349 0.0
C1116 C 0.26711 0.01707 0.1897 0.0
C1117 C 0.27149 0.99759 0.17062 0.0
C1118 C 0.25601 0.97897 0.17928 0.0
C1119 C 0.23769 0.97923 0.2076 0.0
C1120 C 0.23462 0.99835 0.22708 0.0
C1121 C 0.24858 0.01706 0.21807 0.0
C1122 C 0.24357 0.0348 0.24534 0.0
C1123 C 0.26983 0.04201 0.26325 0.0
C1124 C 0.22895 0.0542 0.22799 0.0
C1125 C 0.22566 0.02291 0.27157 0.0
C1126 C 0.22042 1.00193 0.26067 0.0
C1127 C 0.20664 0.98732 0.28287 0.0
C1128 C 0.19871 0.99422 0.31741 0.0
C1129 C 0.20477 0.01548 0.32927 0.0
C1130 C 0.21746 0.03006 0.30524 0.0
H1131 H 0.03807 0.22736 0.29329 0.0
H1132 H 0.02003 0.28473 0.35609 0.0
H1133 H 0.98734 0.29647 0.30965 0.0
H1134 H 0.03037 0.25112 0.20313 0.0
H1135 H 0.01527 0.22659 0.18615 0.0
H1136 H 0.03909 0.22505 0.22227 0.0
H1137 H 0.00399 0.20412 0.2597 0.0
H1138 H 0.97957 0.20676 0.22436 0.0
H1139 H 0.97217 0.2167 0.26863 0.0
H1140 H 0.95165 0.29844 0.26083 0.0
H1141 H 0.92701 0.29792 0.20356 0.0
H1142 H 0.96948 0.23964 0.17191 0.0
C1143 C 0.02824 0.243 0.29634 0.0
C1144 C 0.0319 0.2554 0.32793 0.0
C1145 C 0.01805 0.27533 0.33169 0.0
C1146 C -0.00103 0.28178 0.30585 0.0
C1147 C 0.99414 0.26807 0.27662 0.0
C1148 C 0.00909 0.24948 0.27112 0.0
C1149 C -0.00024 0.23722 0.2381 0.0
C1150 C 0.02247 0.23488 0.21078 0.0
C1151 C 0.98821 0.21488 0.24832 0.0
C1152 C 0.97786 0.25227 0.22479 0.0
C1153 C 0.97419 0.26946 0.24826 0.0
C1154 C 0.95462 0.28518 0.2422 0.0
C1155 C 0.94019 0.2844 0.20993 0.0
C1156 C 0.94609 0.26859 0.18341 0.0
C1157 C 0.96401 0.25157 0.19195 0.0
H1158 H 0.22365 0.28106 0.92161 0.0
H1159 H 0.18854 0.21828 0.94422 0.0
H1160 H 0.21149 0.21722 0.00275 0.0
H1161 H 0.28489 0.27345 0.95637 0.0
H1162 H 0.2891 0.29926 0.97858 0.0
H1163 H 0.26699 0.29716 0.94063 0.0
H1164 H 0.22738 0.31211 0.97758 0.0
H1165 H 0.2497 0.31541 0.01515 0.0
H1166 H 0.21959 0.29979 0.02013 0.0
H1167 H 0.24474 0.22006 0.05423 0.0
H1168 H 0.27392 0.23224 0.10418 0.0
H1169 H 0.28554 0.29381 0.04985 0.0
C1170 C 0.21939 0.26782 0.93991 0.0
C1171 C 0.20382 0.24995 0.92859 0.0
C1172 C 0.19969 0.23245 0.95278 0.0
C1173 C 0.21318 0.23146 0.9858 0.0
C1174 C 0.23013 0.24848 0.99493 0.0
C1175 C 0.23214 0.26689 0.97363 0.0
C1176 C 0.25127 0.28312 0.99027 0.0
C1177 C 0.27443 0.28855 0.96493 0.0
C1178 C 0.23609 0.30383 1.00146 0.0
C1179 C 0.26091 0.27036 0.02282 0.0
C1180 C 0.2486 0.25035 0.02501 0.0
C1181 C 0.25429 0.23581 0.05298 0.0
C1182 C 0.27142 0.24259 0.08086 0.0
C1183 C 0.28251 0.26371 0.08048 0.0
C1184 C 0.27797 0.27731 0.0503 0.0
H1185 H 0.96618 0.03358 0.07737 0.0
H1186 H 0.94509 0.96573 0.06457 0.0
H1187 H 0.96743 0.96491 0.00595 0.0
H1188 H 0.95615 0.04612 0.97744 0.0
H1189 H 0.98237 0.06611 0.97835 0.0
H1190 H 0.96226 0.06162 0.01759 0.0
H1191 H 0.00537 0.05457 0.05428 0.0
H1192 H 0.02555 0.05811 0.01494 0.0
H1193 H 0.02798 0.03326 0.04057 0.0
H1194 H -0.00147 0.9698 0.95306 0.0
H1195 H 0.02408 0.98333 0.90062 0.0
H1196 H 0.02231 0.04834 0.94551 0.0
C1197 C 0.96482 0.01901 0.0612 0.0
C1198 C 0.95341 0.99983 0.07528 0.0
C1199 C 0.95303 0.98078 0.05382 0.0
C1200 C 0.9662 0.98 0.02079 0.0
C1201 C 0.97892 0.99868 0.00873 0.0
C1202 C 0.97717 0.01814 0.02733 0.0
C1203 C 0.99184 0.03602 0.00752 0.0
C1204 C 0.97198 0.0535 0.99444 0.0
C1205 C 0.014 0.04606 0.03074 0.0
C1206 C 0.00332 0.02324 0.97628 0.0
C1207 C -0.00418 1.00168 0.97751 0.0
C1208 C 0.00419 0.98676 0.95149 0.0
C1209 C 0.01911 0.99443 0.92212 0.0
C1210 C 0.02538 0.01676 0.91921 0.0
C1211 C 0.01808 0.03108 0.94731 0.0
H1212 H 0.70966 0.04383 0.79966 0.0
H1213 H 0.71023 0.97879 0.84452 0.0
H1214 H 0.73605 0.96582 0.79199 0.0
H1215 H 0.70843 0.02893 0.70178 0.0
H1216 H 0.73071 0.05094 0.69094 0.0
H1217 H 0.70777 0.05366 0.72775 0.0
H1218 H 0.74741 0.06265 0.76979 0.0
H1219 H 0.77055 0.05937 0.73347 0.0
H1220 H 0.77467 0.04357 0.77388 0.0
H1221 H 0.76968 0.96206 0.74099 0.0
H1222 H 0.80198 0.9661 0.69167 0.0
H1223 H 0.77904 0.0338 0.67894 0.0
C1224 C 0.7139 0.02657 0.79743 0.0
C1225 C 0.70725 0.01218 0.82584 0.0
C1226 C 0.71421 0.98994 0.82267 0.0
C1227 C 0.72931 0.98256 0.79311 0.0
C1228 C 0.73712 0.99761 0.76686 0.0
C1229 C 0.72905 0.01909 0.76837 0.0
C1230 C 0.74208 0.03255 0.73896 0.0
C1231 C 0.72098 0.04208 0.71333 0.0
C1232 C 0.75971 0.0506 0.755 0.0
C1233 C 0.75898 0.01539 0.72056 0.0
C1234 C 0.75606 0.99539 0.73732 0.0
C1235 C 0.77155 0.97754 0.72731 0.0
C1236 C 0.79007 0.98007 0.6994 0.0
C1237 C 0.79297 1.00023 0.68117 0.0
C1238 C 0.77699 0.01809 0.69187 0.0
H1239 H 0.04342 0.73424 0.79221 0.0
H1240 H 0.00924 0.78314 0.86182 0.0
H1241 H 0.97625 0.79258 0.81446 0.0
H1242 H 0.0339 0.76442 0.70634 0.0
H1243 H 0.02664 0.73965 0.68242 0.0
H1244 H 0.04865 0.73901 0.72066 0.0
H1245 H 0.01867 0.70938 0.74891 0.0
H1246 H -0.0042 0.71078 0.71159 0.0
H1247 H 0.98386 0.71514 0.75651 0.0
H1248 H 0.9432 0.7929 0.76221 0.0
H1249 H 0.92132 0.79256 0.7028 0.0
H1250 H 0.97815 0.74445 0.66604 0.0
C1251 C 0.02988 0.74775 0.79672 0.0
C1252 C 0.02938 0.75842 0.83037 0.0
C1253 C 0.01062 0.77532 0.83589 0.0
C1254 C 0.99141 0.78039 0.80938 0.0
C1255 C 0.99135 0.76848 0.77745 0.0
C1256 C 0.01076 0.75307 0.7705 0.0
C1257 C 0.00636 0.74252 0.73412 0.0
C1258 C 0.0303 0.74667 0.70941 0.0
C1259 C 0.00086 0.718 0.73804 0.0
C1260 C 0.98155 0.75455 0.72135 0.0
C1261 C 0.97276 0.76897 0.74723 0.0
C1262 C 0.95006 0.78175 0.74177 0.0
C1263 C 0.93731 0.78106 0.70814 0.0
C1264 C 0.94745 0.76802 0.67998 0.0
C1265 C 0.96924 0.75393 0.68733 0.0
H1266 H 0.72285 0.77993 0.92189 0.0
H1267 H 0.69246 0.71568 0.94614 0.0
H1268 H 0.71663 0.71573 0.00372 0.0
H1269 H 0.78556 0.77523 0.9563 0.0
H1270 H 0.78782 0.80135 0.97805 0.0
H1271 H 0.76587 0.79789 0.94019 0.0
H1272 H 0.72537 0.81115 0.97711 0.0
H1273 H 0.74743 0.81568 0.01459 0.0
H1274 H 0.71851 0.79865 0.01982 0.0
H1275 H 0.75016 0.72007 0.054 0.0
H1276 H 0.77848 0.73365 0.10381 0.0
H1277 H 0.78453 0.79599 0.04999 0.0
C1278 C 0.72001 0.76649 0.94029 0.0
C1279 C 0.70537 0.74792 0.92971 0.0
C1280 C 0.703 0.73029 0.95409 0.0
C1281 C 0.71714 0.72995 0.98657 0.0
C1282 C 0.73301 0.74774 0.99508 0.0
C1283 C 0.7334 0.76619 0.97366 0.0
C1284 C 0.75131 0.78341 0.99012 0.0
C1285 C 0.77398 0.78983 0.96462 0.0
C1286 C 0.73467 0.8034 1.00107 0.0
C1287 C 0.76194 0.77126 0.02281 0.0
C1288 C 0.75137 0.7506 0.02499 0.0
C1289 C 0.75831 0.73634 0.05286 0.0
C1290 C 0.77491 0.74397 0.08068 0.0
C1291 C 0.78406 0.76569 0.08047 0.0
C1292 C 0.7783 0.77912 0.05041 0.0
H1293 H 0.21033 0.54619 0.80155 0.0
H1294 H 0.20266 0.48153 0.84639 0.0
H1295 H 0.22517 0.46625 0.79286 0.0
H1296 H 0.20527 0.53067 0.70355 0.0
H1297 H 0.22993 0.55058 0.6912 0.0
H1298 H 0.20817 0.5556 0.72868 0.0
H1299 H 0.24945 0.56167 0.76923 0.0
H1300 H 0.27136 0.55623 0.73224 0.0
H1301 H 0.27438 0.54054 0.77295 0.0
H1302 H 0.2542 0.45903 0.73948 0.0
H1303 H 0.28551 0.45901 0.68971 0.0
H1304 H 0.27769 0.52929 0.67957 0.0
C1305 C 0.21229 0.52867 0.79931 0.0
C1306 C 0.20377 0.51486 0.82769 0.0
C1307 C 0.20767 0.49219 0.82437 0.0
C1308 C 0.22093 0.48351 0.79425 0.0
C1309 C 0.23018 0.49777 0.76767 0.0
C1310 C 0.22571 0.51988 0.76968 0.0
C1311 C 0.23996 0.53191 0.73947 0.0
C1312 C 0.21962 0.54284 0.71422 0.0
C1313 C 0.25997 0.54856 0.75438 0.0
C1314 C 0.25419 0.51323 0.72081 0.0
C1315 C 0.2478 0.4937 0.73735 0.0
C1316 C 0.25901 0.4742 0.72622 0.0
C1317 C 0.27708 0.4745 0.69772 0.0
C1318 C 0.28452 0.49422 0.68017 0.0
C1319 C 0.27253 0.51391 0.69191 0.0
H1320 H 0.19737 0.73059 0.45945 0.0
H1321 H 0.22452 0.78631 0.39878 0.0
H1322 H 0.25686 0.7949 0.44694 0.0
H1323 H 0.20553 0.75629 0.55092 0.0
H1324 H 0.21546 0.73051 0.57006 0.0
H1325 H 0.19247 0.73127 0.53287 0.0
H1326 H 0.22403 0.70516 0.49863 0.0
H1327 H 0.24795 0.70545 0.53479 0.0
H1328 H 0.25797 0.71328 0.49027 0.0
H1329 H 0.2919 0.79297 0.49647 0.0
H1330 H 0.31554 0.78979 0.55441 0.0
H1331 H 0.2638 0.73674 0.58496 0.0
C1332 C 0.20887 0.74544 0.45745 0.0
C1333 C 0.20801 0.75809 0.4257 0.0
C1334 C 0.22423 0.77683 0.42331 0.0
C1335 C 0.24319 0.78146 0.45015 0.0
C1336 C 0.24523 0.76742 0.47956 0.0
C1337 C 0.2276 0.75043 0.48425 0.0
C1338 C 0.23396 0.73779 0.5183 0.0
C1339 C 0.21047 0.73906 0.54461 0.0
C1340 C 0.24141 0.71401 0.50997 0.0
C1341 C 0.25803 0.75022 0.532 0.0
C1342 C 0.26469 0.76682 0.50864 0.0
C1343 C 0.28658 0.7802 0.51512 0.0
C1344 C 0.30044 0.77785 0.54775 0.0
C1345 C 0.29195 0.76272 0.57402 0.0
C1346 C 0.27138 0.74796 0.56505 0.0
H1347 H 0.00506 0.4884 0.41408 0.0
H1348 H 0.05184 0.5459 0.43648 0.0
H1349 H 0.03068 0.54901 0.49596 0.0
H1350 H 0.94648 0.50297 0.45192 0.0
H1351 H 0.93845 0.47748 0.47326 0.0
H1352 H 0.95945 0.47777 0.43426 0.0
H1353 H -0.00278 0.45755 0.46847 0.0
H1354 H 0.97573 0.45607 0.50697 0.0
H1355 H 0.00845 0.4679 0.51109 0.0
H1356 H -0.00144 0.54915 0.54913 0.0
H1357 H 0.96964 0.53934 0.60036 0.0
H1358 H 0.94596 0.48057 0.54514 0.0
C1359 C 0.01196 0.50087 0.43236 0.0
C1360 C 0.03053 0.51666 0.42086 0.0
C1361 C 0.03832 0.53323 0.44513 0.0
C1362 C 0.02591 0.53541 0.47869 0.0
C1363 C 0.00623 0.5205 0.48815 0.0
C1364 C 0.00035 0.50288 0.46651 0.0
C1365 C 0.97912 0.48873 0.48358 0.0
C1366 C 0.95442 0.48663 0.45928 0.0
C1367 C 0.99082 0.46623 0.4931 0.0
C1368 C 0.97287 0.5018 0.51707 0.0
C1369 C 0.98854 0.5202 0.51913 0.0
C1370 C 0.98637 0.53467 0.54788 0.0
C1371 C 0.96932 0.5293 0.57652 0.0
C1372 C 0.9549 0.50955 0.57636 0.0
C1373 C 0.95592 0.4962 0.54545 0.0
H1374 H 0.78184 0.53363 0.18017 0.0
H1375 H 0.7469 0.47175 0.14993 0.0
H1376 H 0.71799 0.47276 0.20272 0.0
H1377 H 0.78399 0.52579 0.27123 0.0
H1378 H 0.77367 0.5528 0.28414 0.0
H1379 H 0.78982 0.5486 0.24178 0.0
H1380 H 0.74983 0.56658 0.20875 0.0
H1381 H 0.73363 0.57105 0.25118 0.0
H1382 H 0.71662 0.5564 0.21613 0.0
H1383 H 0.69742 0.47755 0.26462 0.0
H1384 H 0.6834 0.489 0.32581 0.0
H1385 H 0.72826 0.5488 0.31201 0.0
C1386 C 0.76734 0.5208 0.18384 0.0
C1387 C 0.7669 0.50261 0.16078 0.0
C1388 C 0.74783 0.4859 0.16718 0.0
C1389 C 0.73125 0.48622 0.19726 0.0
C1390 C 0.73306 0.50374 0.22052 0.0
C1391 C 0.74999 0.52108 0.21359 0.0
C1392 C 0.74819 0.53775 0.24329 0.0
C1393 C 0.77554 0.54142 0.26115 0.0
C1394 C 0.73637 0.55922 0.22898 0.0
C1395 C 0.72889 0.52648 0.26852 0.0
C1396 C 0.7202 0.50691 0.25508 0.0
C1397 C 0.70361 0.49316 0.27512 0.0
C1398 C 0.69569 0.4997 0.30984 0.0
C1399 C 0.70453 0.51975 0.32401 0.0
C1400 C 0.72096 0.53329 0.30242 0.0
H1401 H 0.7072 0.22696 0.45792 0.0
H1402 H 0.71656 0.28843 0.40245 0.0
H1403 H 0.74561 0.30152 0.45193 0.0
H1404 H 0.70792 0.24762 0.5507 0.0
H1405 H 0.72663 0.22433 0.56645 0.0
H1406 H 0.70443 0.22165 0.52871 0.0
H1407 H 0.74385 0.20627 0.49174 0.0
H1408 H 0.76648 0.21 0.52884 0.0
H1409 H 0.77347 0.22243 0.48613 0.0
H1410 H 0.77888 0.30542 0.50327 0.0
H1411 H 0.80221 0.30502 0.56158 0.0
H1412 H 0.77005 0.24123 0.58454 0.0
C1413 C 0.71425 0.24361 0.45711 0.0
C1414 C 0.70917 0.25691 0.42673 0.0
C1415 C 0.71952 0.27827 0.42592 0.0
C1416 C 0.73658 0.28557 0.45351 0.0
C1417 C 0.74293 0.27129 0.48161 0.0
C1418 C 0.73132 0.25102 0.4842 0.0
C1419 C 0.74172 0.23856 0.51663 0.0
C1420 C 0.71881 0.23272 0.54215 0.0
C1421 C 0.75729 0.21811 0.50513 0.0
C1422 C 0.76037 0.25527 0.53282 0.0
C1423 C 0.76155 0.27368 0.5114 0.0
C1424 C 0.77786 0.29116 0.52029 0.0
C1425 C 0.79156 0.29056 0.55317 0.0
C1426 C 0.78841 0.27291 0.57734 0.0
C1427 C 0.77355 0.25461 0.56624 0.0
H1428 H 0.51065 0.28188 0.832 0.0
H1429 H 0.55526 0.22318 0.80885 0.0
H1430 H 0.5348 0.22168 0.74848 0.0
H1431 H 0.45195 0.26904 0.79176 0.0
H1432 H 0.44476 0.29518 0.77183 0.0
H1433 H 0.4653 0.29351 0.81142 0.0
H1434 H 0.50383 0.31372 0.77963 0.0
H1435 H 0.48292 0.31646 0.74047 0.0
H1436 H 0.51543 0.30405 0.73685 0.0
H1437 H 0.50369 0.22386 0.69322 0.0
H1438 H 0.47449 0.23519 0.64234 0.0
H1439 H 0.45203 0.2931 0.70107 0.0
C1440 C 0.51727 0.26946 0.81344 0.0
C1441 C 0.53514 0.25299 0.82483 0.0
C1442 C 0.54239 0.23642 0.80024 0.0
C1443 C 0.53038 0.23518 0.76611 0.0
C1444 C 0.51153 0.25092 0.7565 0.0
C1445 C 0.50595 0.2683 0.77889 0.0
C1446 C 0.48529 0.28327 0.76205 0.0
C1447 C 0.46036 0.28535 0.78569 0.0
C1448 C 0.49759 0.3057 0.75428 0.0
C1449 C 0.47917 0.27111 0.72761 0.0
C1450 C 0.49434 0.25239 0.72481 0.0
C1451 C 0.49192 0.23862 0.69506 0.0
C1452 C 0.47488 0.2449 0.66653 0.0
C1453 C 0.46057 0.26477 0.66801 0.0
C1454 C 0.46224 0.27755 0.69952 0.0
H1455 H 0.45802 0.97214 0.54419 0.0
H1456 H 0.46278 0.03419 0.59881 0.0
H1457 H 0.49127 0.04835 0.54964 0.0
H1458 H 0.52624 0.97161 0.51726 0.0
H1459 H 0.52 0.95793 0.47541 0.0
H1460 H 0.4984 0.9533 0.51316 0.0
H1461 H 0.45712 0.96498 0.47561 0.0
H1462 H 0.47846 0.96882 0.4375 0.0
H1463 H 0.45736 0.99081 0.45252 0.0
H1464 H 0.5236 0.05378 0.49759 0.0
H1465 H 0.54627 0.05429 0.43918 0.0
H1466 H 0.51915 0.98873 0.41766 0.0
C1467 C 0.46428 0.989 0.54524 0.0
C1468 C 0.45767 1.00228 0.57503 0.0
C1469 C 0.46682 0.02401 0.57581 0.0
C1470 C 0.48356 0.03194 0.54839 0.0
C1471 C 0.49107 0.01782 0.52068 0.0
C1472 C 0.48115 0.99697 0.51854 0.0
C1473 C 0.49242 0.98482 0.4865 0.0
C1474 C 0.51031 0.96579 0.49883 0.0
C1475 C 0.47 0.97692 0.46154 0.0
C1476 C 0.50906 1.00252 0.46935 0.0
C1477 C 0.50898 0.02108 0.49046 0.0
C1478 C 0.52355 0.03939 0.48089 0.0
C1479 C 0.53683 0.03934 0.44787 0.0
C1480 C 0.53484 0.02143 0.42397 0.0
C1481 C 0.52167 1.00242 0.4356 0.0
H1482 H 0.47491 0.80289 0.19263 0.0
H1483 H 0.44564 0.73962 0.15915 0.0
H1484 H 0.46824 0.72288 0.21183 0.0
H1485 H 0.53938 0.78433 0.222 0.0
H1486 H 0.54147 0.80305 0.25902 0.0
H1487 H 0.52242 0.81022 0.21962 0.0
H1488 H 0.48054 0.81679 0.25856 0.0
H1489 H 0.49957 0.80997 0.29808 0.0
H1490 H 0.46916 0.79555 0.28817 0.0
H1491 H 0.49744 0.71295 0.2639 0.0
H1492 H 0.52321 0.71011 0.31928 0.0
H1493 H 0.53193 0.78047 0.32279 0.0
C1494 C 0.47282 0.7855 0.19655 0.0
C1495 C 0.45833 0.77252 0.17162 0.0
C1496 C 0.45627 0.7499 0.17789 0.0
C1497 C 0.46935 0.74028 0.20751 0.0
C1498 C 0.48431 0.75353 0.23056 0.0
C1499 C 0.48571 0.77571 0.22582 0.0
C1500 C 0.50309 0.7863 0.25454 0.0
C1501 C 0.52806 0.79659 0.23779 0.0
C1502 C 0.48712 0.80314 0.27613 0.0
C1503 C 0.5106 0.76664 0.27723 0.0
C1504 C 0.50015 0.74792 0.26196 0.0
C1505 C 0.50515 0.72753 0.27641 0.0
C1506 C 0.51995 0.7262 0.3081 0.0
C1507 C 0.52916 0.74513 0.32634 0.0
C1508 C 0.52515 0.7657 0.30991 0.0
H1509 H 0.46496 0.53161 0.07816 0.0
H1510 H 0.45281 0.46199 0.07083 0.0
H1511 H 0.47414 0.46152 0.0115 0.0
H1512 H 0.4524 0.54059 0.97751 0.0
H1513 H 0.47598 0.56265 0.97646 0.0
H1514 H 0.45686 0.55758 0.0164 0.0
H1515 H 0.50086 0.55509 0.05272 0.0
H1516 H 0.52017 0.55929 0.01279 0.0
H1517 H 0.52592 0.53543 0.04003 0.0
H1518 H 0.50378 0.46771 0.95695 0.0
H1519 H 0.52813 0.48204 0.90388 0.0
H1520 H 0.51866 0.54751 0.94534 0.0
C1521 C 0.46538 0.51655 0.06312 0.0
C1522 C 0.45678 0.49689 0.07893 0.0
C1523 C 0.45868 0.47733 0.05886 0.0
C1524 C 0.47122 0.47681 0.02534 0.0
C1525 C 0.48113 0.49616 0.01145 0.0
C1526 C 0.47722 0.51583 0.02888 0.0
C1527 C 0.48939 0.5343 0.00755 0.0
C1528 C 0.46736 0.54969 0.99365 0.0
C1529 C 0.51033 0.54674 0.02962 0.0
C1530 C 0.50215 0.52174 0.97698 0.0
C1531 C 0.49722 0.49974 0.97954 0.0
C1532 C 0.50738 0.485 0.95432 0.0
C1533 C 0.52158 0.49316 0.92457 0.0
C1534 C 0.52532 0.51582 0.92046 0.0
C1535 C 0.51616 0.53005 0.94773 0.0
H1536 H 0.37524 0.04511 0.96269 0.0
H1537 H 0.38272 0.97595 0.98375 0.0
H1538 H 0.3915 0.96969 0.91879 0.0
H1539 H 0.33768 0.03741 0.88393 0.0
H1540 H 0.35037 0.06159 0.86266 0.0
H1541 H 0.34842 0.06014 0.91072 0.0
H1542 H 0.39894 0.06879 0.91561 0.0
H1543 H 0.40104 0.07027 0.86752 0.0
H1544 H 0.42268 0.05201 0.89207 0.0
H1545 H 0.39689 0.97201 0.84752 0.0
H1546 H 0.39381 0.98214 0.7827 0.0
H1547 H 0.38107 0.04935 0.81303 0.0
C1548 C 0.37963 0.02863 0.95417 0.0
C1549 C 0.37922 0.0111 0.9788 0.0
C1550 C 0.38358 0.98973 0.96564 0.0
C1551 C 0.38852 0.98606 0.92872 0.0
C1552 C 0.38846 1.00388 0.90514 0.0
C1553 C 0.38375 0.0247 0.91777 0.0
C1554 C 0.38123 0.04101 0.88764 0.0
C1555 C 0.35276 0.05059 0.88615 0.0
C1556 C 0.40224 0.05908 0.89092 0.0
C1557 C 0.38654 0.02652 0.85584 0.0
C1558 C 0.39052 1.00507 0.86583 0.0
C1559 C 0.39407 0.98885 0.83975 0.0
C1560 C 0.39264 0.99472 0.80294 0.0
C1561 C 0.38765 0.01659 0.79278 0.0
C1562 C 0.38536 0.03253 0.81983 0.0
H1563 H 0.89605 0.22423 0.9485 0.0
H1564 H 0.8641 0.28774 0.97398 0.0
H1565 H 0.86051 0.29633 0.90891 0.0
H1566 H 0.93234 0.23805 0.86581 0.0
H1567 H 0.92261 0.21269 0.84542 0.0
H1568 H 0.92697 0.2143 0.89325 0.0
H1569 H 0.87892 0.19952 0.90124 0.0
H1570 H 0.87391 0.19879 0.8535 0.0
H1571 H 0.85128 0.21406 0.88128 0.0
H1572 H 0.85596 0.29535 0.83844 0.0
H1573 H 0.85649 0.28643 0.77311 0.0
H1574 H 0.88768 0.22235 0.79864 0.0
C1575 C 0.88977 0.24042 0.94035 0.0
C1576 C 0.88143 0.25568 0.96598 0.0
C1577 C 0.87173 0.27624 0.95456 0.0
C1578 C 0.86915 0.28103 0.91767 0.0
C1579 C 0.87607 0.26494 0.89288 0.0
C1580 C 0.88655 0.24515 0.90407 0.0
C1581 C 0.89022 0.2296 0.87332 0.0
C1582 C 0.91979 0.22331 0.86919 0.0
C1583 C 0.87253 0.20931 0.87762 0.0
C1584 C 0.88057 0.24368 0.84277 0.0
C1585 C 0.87229 0.264 0.85404 0.0
C1586 C 0.86257 0.27948 0.8295 0.0
C1587 C 0.86256 0.27424 0.79255 0.0
C1588 C 0.87217 0.25374 0.78101 0.0
C1589 C 0.88035 0.23823 0.80669 0.0
H1590 H 0.40072 0.26921 0.30281 0.0
H1591 H 0.32389 0.24181 0.27552 0.0
H1592 H 0.3112 0.24238 0.33909 0.0
H1593 H 0.41479 0.24014 0.37446 0.0
H1594 H 0.42873 0.2607 0.40339 0.0
H1595 H 0.42951 0.26434 0.35562 0.0
H1596 H 0.40472 0.30119 0.36124 0.0
H1597 H 0.40437 0.29792 0.40933 0.0
H1598 H 0.37363 0.30247 0.38521 0.0
H1599 H 0.3104 0.23857 0.40421 0.0
H1600 H 0.31943 0.23224 0.46742 0.0
H1601 H 0.39803 0.2612 0.45661 0.0
C1602 C 0.38066 0.26457 0.31021 0.0
C1603 C 0.36272 0.25645 0.28396 0.0
C1604 C 0.33719 0.24939 0.29462 0.0
C1605 C 0.33004 0.24932 0.33093 0.0
C1606 C 0.34854 0.25663 0.35627 0.0
C1607 C 0.37313 0.26466 0.34648 0.0
C1608 C 0.39014 0.26952 0.37957 0.0
C1609 C 0.41739 0.25796 0.37815 0.0
C1610 C 0.39343 0.29424 0.3841 0.0
C1611 C 0.3726 0.26041 0.40913 0.0
C1612 C 0.34832 0.25394 0.39488 0.0
C1613 C 0.32909 0.24398 0.41571 0.0
C1614 C 0.33469 0.2403 0.45184 0.0
C1615 C 0.35967 0.24605 0.46743 0.0
C1616 C 0.37873 0.25678 0.4458 0.0
H1617 H 0.85699 0.98937 0.29935 0.0
H1618 H 0.91919 0.03708 0.28534 0.0
H1619 H 0.92834 0.03628 0.35053 0.0
H1620 H 0.82888 1.00887 0.37057 0.0
H1621 H 0.82206 0.98398 0.3945 0.0
H1622 H 0.82576 0.98346 0.34676 0.0
H1623 H 0.8633 0.95458 0.35242 0.0
H1624 H 0.85953 0.95478 0.4005 0.0
H1625 H 0.89169 0.95985 0.38085 0.0
H1626 H 0.92154 0.03794 0.41764 0.0
H1627 H 0.90223 0.03955 0.47849 0.0
H1628 H 0.84623 0.98908 0.45009 0.0
C1629 C 0.87377 0.99846 0.3098 0.0
C1630 C 0.88803 0.01268 0.28711 0.0
C1631 C 0.90881 0.02538 0.30194 0.0
C1632 C 0.91392 0.02518 0.33913 0.0
C1633 C 0.89846 0.01181 0.36116 0.0
C1634 C 0.87936 0.9981 0.34681 0.0
C1635 C 0.86346 0.9871 0.37632 0.0
C1636 C 0.83328 0.99113 0.37175 0.0
C1637 C 0.86987 0.96262 0.3776 0.0
C1638 C 0.8745 0.99846 0.40928 0.0
C1639 C 0.89524 0.01221 0.40015 0.0
C1640 C 0.90616 0.02654 0.42526 0.0
C1641 C 0.8952 0.02725 0.45996 0.0
C1642 C 0.8736 0.01369 0.46957 0.0
C1643 C 0.86371 0.99872 0.44409 0.0
H1644 H 0.64641 0.01489 0.04419 0.0
H1645 H 0.56599 0.99038 0.02861 0.0
H1646 H 0.55616 0.99626 0.09171 0.0
H1647 H 0.66024 0.99253 0.12493 0.0
H1648 H 0.67615 0.01557 0.14581 0.0
H1649 H 0.67582 0.01323 0.09784 0.0
H1650 H 0.65372 0.05133 0.09295 0.0
H1651 H 0.65375 0.05366 0.14118 0.0
H1652 H 0.62304 0.05665 0.11638 0.0
H1653 H 0.55655 0.99823 0.15765 0.0
H1654 H 0.56862 0.99569 0.22152 0.0
H1655 H 0.647 0.02107 0.19793 0.0
C1656 C 0.62651 0.01153 0.05385 0.0
C1657 C 0.6072 1.00197 0.03099 0.0
C1658 C 0.58145 0.99751 0.04518 0.0
C1659 C 0.57541 1.00095 0.08123 0.0
C1660 C 0.59494 1.00958 0.10336 0.0
C1661 C 0.61984 0.01524 0.0903 0.0
C1662 C 0.63747 0.02299 0.121 0.0
C1663 C 0.66397 0.0103 0.12248 0.0
C1664 C 0.6423 0.04761 0.11767 0.0
C1665 C 0.61976 0.01816 0.15322 0.0
C1666 C 0.59482 0.01142 0.14222 0.0
C1667 C 0.57566 1.00431 0.16671 0.0
C1668 C 0.58246 1.00332 0.20327 0.0
C1669 C 0.60819 1.00932 0.21515 0.0
C1670 C 0.62678 0.01732 0.18976 0.0
H1671 H 0.14301 0.79543 0.05758 0.0
H1672 H 0.09614 0.73882 0.02878 0.0
H1673 H 0.09458 0.72835 0.09358 0.0
H1674 H 0.18305 0.77145 0.12616 0.0
H1675 H 0.18258 0.7957 0.15328 0.0
H1676 H 0.17996 0.79783 0.10524 0.0
H1677 H 0.13561 0.81948 0.11102 0.0
H1678 H 0.13846 0.81791 0.15899 0.0
H1679 H 0.10876 0.80816 0.13697 0.0
H1680 H 0.09728 0.72615 0.16452 0.0
H1681 H 0.10001 0.73412 0.22974 0.0
H1682 H 0.14738 0.79111 0.20746 0.0
C1683 C 0.13256 0.78059 0.0644 0.0
C1684 C 0.11999 0.76777 0.03781 0.0
C1685 C 0.10599 0.74889 0.04858 0.0
C1686 C 0.10524 0.74279 0.08531 0.0
C1687 C 0.11861 0.75574 0.11065 0.0
C1688 C 0.13179 0.77437 0.10022 0.0
C1689 C 0.14354 0.78655 0.13163 0.0
C1690 C 0.17409 0.78795 0.12889 0.0
C1691 C 0.13083 0.80935 0.13484 0.0
C1692 C 0.13525 0.77192 0.16206 0.0
C1693 C 0.12083 0.75418 0.14983 0.0
C1694 C 0.10905 0.73972 0.17401 0.0
C1695 C 0.11105 0.74414 0.2111 0.0
C1696 C 0.125 0.76266 0.22366 0.0
C1697 C 0.13785 0.77621 0.19873 0.0
H1698 H 0.59504 0.79493 0.70039 0.0
H1699 H 0.64772 0.74093 0.72658 0.0
H1700 H 0.64848 0.73081 0.66168 0.0
H1701 H 0.55544 0.76925 0.63369 0.0
H1702 H 0.55311 0.79351 0.60658 0.0
H1703 H 0.55682 0.79571 0.65447 0.0
H1704 H 0.59912 0.81953 0.64667 0.0
H1705 H 0.595 0.81796 0.59888 0.0
H1706 H 0.62608 0.80966 0.61926 0.0
H1707 H 0.64391 0.72863 0.59078 0.0
H1708 H 0.63875 0.73676 0.52582 0.0
H1709 H 0.5871 0.79099 0.55089 0.0
C1710 C 0.60666 0.78074 0.69302 0.0
C1711 C 0.62107 0.76856 0.71896 0.0
C1712 C 0.63643 0.75051 0.70736 0.0
C1713 C 0.63676 0.7446 0.67056 0.0
C1714 C 0.62157 0.75686 0.64594 0.0
C1715 C 0.60704 0.7747 0.65713 0.0
C1716 C 0.59339 0.78633 0.62636 0.0
C1717 C 0.56288 0.78618 0.63055 0.0
C1718 C 0.60404 0.80973 0.62257 0.0
C1719 C 0.60205 0.77224 0.59548 0.0
C1720 C 0.61837 0.75528 0.60687 0.0
C1721 C 0.63068 0.74156 0.582 0.0
C1722 C 0.62726 0.74602 0.54506 0.0
C1723 C 0.61146 0.76388 0.53335 0.0
C1724 C 0.59805 0.77654 0.55901 0.0
H1725 H 0.13787 0.97249 0.70083 0.0
H1726 H 0.0917 0.02918 0.7321 0.0
H1727 H 0.09258 0.04208 0.66853 0.0
H1728 H 0.18067 0.99723 0.63679 0.0
H1729 H 0.1797 0.97408 0.60721 0.0
H1730 H 0.17579 0.97027 0.65477 0.0
H1731 H 0.13059 0.95069 0.64444 0.0
H1732 H 0.13478 0.95391 0.59691 0.0
H1733 H 0.10502 0.96401 0.61821 0.0
H1734 H 0.09658 0.0464 0.59813 0.0
H1735 H 0.10011 0.04026 0.53249 0.0
H1736 H 0.14652 0.98204 0.55201 0.0
C1737 C 0.12809 0.98783 0.69485 0.0
C1738 C 0.11492 0.99992 0.72182 0.0
C1739 C 0.10197 0.01962 0.71205 0.0
C1740 C 0.10257 0.02709 0.67602 0.0
C1741 C 0.11627 0.01471 0.65029 0.0
C1742 C 0.12862 0.99539 0.65967 0.0
C1743 C 0.14065 0.98397 0.62772 0.0
C1744 C 0.17101 0.98124 0.6319 0.0
C1745 C 0.12694 0.96186 0.62145 0.0
C1746 C 0.13382 0.99998 0.59838 0.0
C1747 C 0.11951 0.01759 0.61147 0.0
C1748 C 0.1084 0.03298 0.58803 0.0
C1749 C 0.1109 0.02962 0.55071 0.0
C1750 C 0.12483 0.01129 0.53721 0.0
C1751 C 0.1372 0.99688 0.56154 0.0
H1752 H 0.35957 0.48737 0.45359 0.0
H1753 H 0.38904 0.55297 0.47261 0.0
H1754 H 0.39895 0.5571 0.40956 0.0
H1755 H 0.41404 0.47803 0.38051 0.0
H1756 H 0.3926 0.46081 0.3542 0.0
H1757 H 0.3899 0.46098 0.40245 0.0
H1758 H 0.33967 0.47054 0.39729 0.0
H1759 H 0.34224 0.47012 0.34924 0.0
H1760 H 0.32947 0.49403 0.37144 0.0
H1761 H 0.40289 0.55676 0.34491 0.0
H1762 H 0.39718 0.55212 0.27996 0.0
H1763 H 0.36611 0.48723 0.29728 0.0
C1764 C 0.36889 0.50228 0.44464 0.0
C1765 C 0.37325 0.51979 0.46897 0.0
C1766 C 0.38528 0.53911 0.45542 0.0
C1767 C 0.39124 0.54174 0.41924 0.0
C1768 C 0.38641 0.52461 0.39609 0.0
C1769 C 0.37597 0.50507 0.40793 0.0
C1770 C 0.37274 0.48971 0.37595 0.0
C1771 C 0.39352 0.47127 0.37844 0.0
C1772 C 0.34431 0.48059 0.37333 0.0
C1773 C 0.37944 0.5048 0.34454 0.0
C1774 C 0.38878 0.52441 0.35735 0.0
C1775 C 0.39617 0.54129 0.33447 0.0
C1776 C 0.39317 0.53841 0.29747 0.0
C1777 C 0.38209 0.51909 0.28334 0.0
C1778 C 0.37559 0.50184 0.30721 0.0
H1779 H 0.84773 0.77499 0.44611 0.0
H1780 H 0.91625 0.7358 0.47476 0.0
H1781 H 0.92877 0.73316 0.41116 0.0
H1782 H 0.82742 0.74733 0.37444 0.0
H1783 H 0.81829 0.76966 0.34536 0.0
H1784 H 0.81814 0.77334 0.39312 0.0
H1785 H 0.85049 0.80593 0.38709 0.0
H1786 H 0.85024 0.8025 0.33907 0.0
H1787 H 0.88142 0.80244 0.3633 0.0
H1788 H 0.92744 0.72719 0.34694 0.0
H1789 H 0.91887 0.7236 0.28321 0.0
H1790 H 0.85117 0.7679 0.29126 0.0
C1791 C 0.86633 0.76715 0.43892 0.0
C1792 C 0.88211 0.75659 0.46542 0.0
C1793 C 0.90531 0.74527 0.45516 0.0
C1794 C 0.91206 0.74328 0.41894 0.0
C1795 C 0.89545 0.75296 0.39332 0.0
C1796 C 0.87352 0.76532 0.40265 0.0
C1797 C 0.85806 0.77253 0.3693 0.0
C1798 C 0.82875 0.76525 0.37067 0.0
C1799 C 0.86017 0.79732 0.3644 0.0
C1800 C 0.87337 0.76064 0.34011 0.0
C1801 C 0.89501 0.74976 0.35496 0.0
C1802 C 0.91119 0.73626 0.33479 0.0
C1803 C 0.90589 0.73429 0.29828 0.0
C1804 C 0.88454 0.74583 0.28146 0.0
C1805 C 0.86782 0.75909 0.30295 0.0
H1806 H 0.34622 0.73032 0.79914 0.0
H1807 H 0.38626 0.79163 0.7827 0.0
H1808 H 0.38748 0.79769 0.84845 0.0
H1809 H 0.3084 0.74345 0.88247 0.0
H1810 H 0.31536 0.71673 0.90037 0.0
H1811 H 0.31209 0.72057 0.85269 0.0
H1812 H 0.35868 0.70288 0.84434 0.0
H1813 H 0.36262 0.69975 0.89197 0.0
H1814 H 0.38719 0.71454 0.86669 0.0
H1815 H 0.39075 0.79331 0.91831 0.0
H1816 H 0.39111 0.78061 0.98196 0.0
H1817 H 0.35199 0.72109 0.94853 0.0
C1818 C 0.35351 0.74572 0.80932 0.0
C1819 C 0.36492 0.76102 0.78592 0.0
C1820 C 0.37621 0.78025 0.80022 0.0
C1821 C 0.37742 0.78358 0.8376 0.0
C1822 C 0.36757 0.76736 0.86022 0.0
C1823 C 0.35548 0.74893 0.84632 0.0
C1824 C 0.34971 0.73243 0.87524 0.0
C1825 C 0.3196 0.72805 0.87786 0.0
C1826 C 0.36549 0.71117 0.86917 0.0
C1827 C 0.36004 0.74443 0.90769 0.0
C1828 C 0.37044 0.76451 0.899 0.0
C1829 C 0.38224 0.77771 0.9253 0.0
C1830 C 0.38262 0.77034 0.96133 0.0
C1831 C 0.37131 0.74999 0.97041 0.0
C1832 C 0.3604 0.73695 0.94286 0.0
H1833 H 0.85367 0.49326 0.80046 0.0
H1834 H 0.91959 0.53731 0.78428 0.0
H1835 H 0.93002 0.53576 0.84912 0.0
H1836 H 0.82917 0.51344 0.87506 0.0
H1837 H 0.82134 0.4885 0.89826 0.0
H1838 H 0.82322 0.48873 0.85025 0.0
H1839 H 0.85855 0.45791 0.85191 0.0
H1840 H 0.85656 0.45735 0.9002 0.0
H1841 H 0.8883 0.46116 0.87862 0.0
H1842 H 0.92604 0.53643 0.91664 0.0
H1843 H 0.91028 0.53732 0.97924 0.0
H1844 H 0.84844 0.49106 0.95302 0.0
C1845 C 0.87133 0.50144 0.81032 0.0
C1846 C 0.88646 0.51476 0.78702 0.0
C1847 C 0.9085 0.52625 0.80122 0.0
C1848 C 0.91435 0.52563 0.83822 0.0
C1849 C 0.89834 0.51302 0.86078 0.0
C1850 C 0.87774 0.50057 0.84716 0.0
C1851 C 0.86214 0.48987 0.87736 0.0
C1852 C 0.83222 0.4955 0.87509 0.0
C1853 C 0.86664 0.4651 0.877 0.0
C1854 C 0.87532 0.5 0.91013 0.0
C1855 C 0.89667 0.51283 0.89999 0.0
C1856 C 0.91009 0.52574 0.92494 0.0
C1857 C 0.90115 0.52601 0.96067 0.0
C1858 C 0.87897 0.51344 0.97165 0.0
C1859 C 0.86639 0.49984 0.94604 0.0
H1860 H 0.63366 0.47074 0.70057 0.0
H1861 H 0.60069 0.53365 0.72908 0.0
H1862 H 0.60127 0.54429 0.66423 0.0
H1863 H 0.67947 0.48793 0.63706 0.0
H1864 H 0.67452 0.46476 0.60824 0.0
H1865 H 0.66916 0.46219 0.65571 0.0
H1866 H 0.62071 0.4487 0.64487 0.0
H1867 H 0.62634 0.45037 0.59738 0.0
H1868 H 0.59856 0.46463 0.61702 0.0
H1869 H 0.60522 0.54605 0.5923 0.0
H1870 H 0.60923 0.53791 0.52709 0.0
H1871 H 0.64572 0.47597 0.55264 0.0
C1872 C 0.62651 0.48686 0.69353 0.0
C1873 C 0.61744 0.50146 0.71998 0.0
C1874 C 0.60769 0.52215 0.70922 0.0
C1875 C 0.60821 0.52833 0.67249 0.0
C1876 C 0.61861 0.51362 0.64729 0.0
C1877 C 0.62731 0.49323 0.65786 0.0
C1878 C 0.6375 0.47985 0.62702 0.0
C1879 C 0.66691 0.47331 0.63236 0.0
C1880 C 0.61973 0.45971 0.62122 0.0
C1881 C 0.63429 0.49599 0.59697 0.0
C1882 C 0.62275 0.51528 0.60841 0.0
C1883 C 0.61492 0.53123 0.58355 0.0
C1884 C 0.61776 0.52672 0.54652 0.0
C1885 C 0.62901 0.50674 0.53499 0.0
C1886 C 0.63842 0.49185 0.56074 0.0
H1887 H 0.10799 0.29848 0.70029 0.0
H1888 H 0.13955 0.23463 0.72644 0.0
H1889 H 0.14011 0.22551 0.66114 0.0
H1890 H 0.06331 0.28241 0.63366 0.0
H1891 H 0.06843 0.30618 0.60618 0.0
H1892 H 0.07303 0.30781 0.65396 0.0
H1893 H 0.12142 0.32187 0.64559 0.0
H1894 H 0.11657 0.32107 0.59783 0.0
H1895 H 0.14422 0.30665 0.61796 0.0
H1896 H 0.13586 0.22451 0.58993 0.0
H1897 H 0.13156 0.23298 0.52477 0.0
H1898 H 0.09859 0.29608 0.55071 0.0
C1899 C 0.11537 0.28259 0.69245 0.0
C1900 C 0.12373 0.26725 0.71837 0.0
C1901 C 0.13338 0.24673 0.70692 0.0
C1902 C 0.13341 0.24138 0.66994 0.0
C1903 C 0.12366 0.25674 0.64517 0.0
C1904 C 0.11515 0.27703 0.65636 0.0
C1905 C 0.10534 0.29097 0.62569 0.0
C1906 C 0.07578 0.29719 0.63017 0.0
C1907 C 0.12294 0.31133 0.62151 0.0
C1908 C 0.1091 0.2754 0.59501 0.0
C1909 C 0.11991 0.25574 0.6062 0.0
C1910 C 0.12695 0.23972 0.58126 0.0
C1911 C 0.12399 0.24445 0.5443 0.0
C1912 C 0.11366 0.26482 0.53292 0.0
C1913 C 0.10537 0.28001 0.55875 0.0
H1914 H 0.6274 0.30053 0.05288 0.0
H1915 H 0.60595 0.23479 0.02258 0.0
H1916 H 0.60863 0.22374 0.08712 0.0
H1917 H 0.67606 0.28719 0.11725 0.0
H1918 H 0.66751 0.30953 0.14633 0.0
H1919 H 0.662 0.31186 0.09877 0.0
H1920 H 0.6119 0.32066 0.10898 0.0
H1921 H 0.6175 0.31912 0.15655 0.0
H1922 H 0.59214 0.30253 0.13598 0.0
H1923 H 0.61372 0.2214 0.1586 0.0
H1924 H 0.61669 0.22875 0.22418 0.0
H1925 H 0.6396 0.29511 0.20177 0.0
C1926 C 0.62309 0.28372 0.05953 0.0
C1927 C 0.61652 0.26851 0.03258 0.0
C1928 C 0.61074 0.24681 0.04278 0.0
C1929 C 0.61256 0.2404 0.07935 0.0
C1930 C 0.62032 0.25587 0.10505 0.0
C1931 C 0.62522 0.27715 0.09512 0.0
C1932 C 0.63312 0.29116 0.12655 0.0
C1933 C 0.66135 0.30047 0.12192 0.0
C1934 C 0.61244 0.30943 0.13237 0.0
C1935 C 0.63235 0.27457 0.15631 0.0
C1936 C 0.62469 0.25426 0.14398 0.0
C1937 C 0.62027 0.23714 0.16809 0.0
C1938 C 0.62249 0.24129 0.20534 0.0
C1939 C 0.62954 0.26226 0.21795 0.0
C1940 C 0.63544 0.27867 0.19287 0.0
H1941 H 0.13861 0.51999 0.04889 0.0
H1942 H 0.07828 0.46924 0.04031 0.0
H1943 H 0.06866 0.47236 0.103 0.0
H1944 H 0.16475 0.503 0.13244 0.0
H1945 H 0.16893 0.52971 0.15167 0.0
H1946 H 0.16947 0.52637 0.10379 0.0
H1947 H 0.13163 0.55502 0.09794 0.0
H1948 H 0.13067 0.55799 0.14605 0.0
H1949 H 0.10084 0.55094 0.12171 0.0
H1950 H 0.06379 0.47929 0.16614 0.0
H1951 H 0.0736 0.4831 0.23043 0.0
H1952 H 0.13943 0.52598 0.20543 0.0
C1953 C 0.12315 0.50984 0.06013 0.0
C1954 C 0.10892 0.49484 0.03818 0.0
C1955 C 0.08931 0.48147 0.05498 0.0
C1956 C 0.08331 0.48307 0.09119 0.0
C1957 C 0.09688 0.49813 0.11164 0.0
C1958 C 0.11681 0.51102 0.09734 0.0
C1959 C 0.12968 0.5242 0.12749 0.0
C1960 C 0.16001 0.52057 0.12893 0.0
C1961 C 0.12282 0.54848 0.12302 0.0
C1962 C 0.1156 0.51487 0.16049 0.0
C1963 C 0.09551 0.50099 0.15008 0.0
C1964 C 0.07935 0.49028 0.17482 0.0
C1965 C 0.08477 0.49279 0.21141 0.0
C1966 C 0.10676 0.50524 0.22301 0.0
C1967 C 0.12197 0.5169 0.19726 0.0
H1968 H 0.36796 0.16912 0.17935 0.0
H1969 H 0.29516 0.19849 0.13792 0.0
H1970 H 0.27983 0.162 0.11843 0.0
H1971 H 0.37837 0.13253 0.10955 0.0
H1972 H 0.39122 0.11102 0.13779 0.0
H1973 H 0.39457 0.13892 0.15145 0.0
H1974 H 0.37075 0.12986 0.21111 0.0
H1975 H 0.36693 0.10193 0.19727 0.0
H1976 H 0.33811 0.11768 0.21007 0.0
H1977 H 0.27386 0.12212 0.10042 0.0
H1978 H 0.28037 0.08465 0.07811 0.0
H1979 H 0.35771 0.08179 0.12968 0.0
C1980 C 0.34857 0.16803 0.16659 0.0
C1981 C 0.33269 0.18692 0.16052 0.0
C1982 C 0.30765 0.18442 0.14325 0.0
C1983 C 0.29874 0.16368 0.13223 0.0
C1984 C 0.31496 0.14547 0.13884 0.0
C1985 C 0.33946 0.14756 0.15543 0.0
C1986 C 0.35412 0.12586 0.15713 0.0
C1987 C 0.38115 0.12717 0.1378 0.0
C1988 C 0.35769 0.1184 0.19622 0.0
C1989 C 0.33462 0.11125 0.13743 0.0
C1990 C 0.31177 0.12273 0.12808 0.0
C1991 C 0.29146 0.11298 0.10822 0.0
C1992 C 0.29512 0.09148 0.09614 0.0
C1993 C 0.31904 0.07986 0.1034 0.0
C1994 C 0.33867 0.08976 0.12525 0.0
H1995 H 0.88854 0.10217 0.19808 0.0
H1996 H 0.93204 0.06825 0.11476 0.0
H1997 H 0.94272 0.10363 0.08632 0.0
H1998 H 0.85862 0.14157 0.14503 0.0
H1999 H 0.86176 0.16342 0.17694 0.0
H2000 H 0.86025 0.13572 0.19237 0.0
H2001 H 0.90499 0.14083 0.22635 0.0
H2002 H 0.9067 0.16861 0.21076 0.0
H2003 H 0.93393 0.1501 0.20229 0.0
H2004 H 0.94414 0.14283 0.06337 0.0
H2005 H 0.93589 0.18163 0.04826 0.0
H2006 H 0.89255 0.18983 0.14733 0.0
C2007 C 0.90076 0.10217 0.17422 0.0
C2008 C 0.90958 0.08236 0.15881 0.0
C2009 C 0.92538 0.08316 0.12742 0.0
C2010 C 0.93149 0.10322 0.11102 0.0
C2011 C 0.92214 0.12242 0.1267 0.0
C2012 C 0.90734 0.12202 0.15786 0.0
C2013 C 0.8986 0.14477 0.16858 0.0
C2014 C 0.868 0.14646 0.17083 0.0
C2015 C 0.91184 0.15147 0.20411 0.0
C2016 C 0.9095 0.15799 0.1376 0.0
C2017 C 0.92347 0.1449 0.11401 0.0
C2018 C 0.93384 0.15328 0.08216 0.0
C2019 C 0.9293 0.17538 0.07389 0.0
C2020 C 0.91455 0.18887 0.09732 0.0
C2021 C 0.90488 0.18008 0.12975 0.0
H2022 H 0.64526 0.84999 0.81142 0.0
H2023 H 0.68585 0.81697 0.89886 0.0
H2024 H 0.69724 0.8529 0.92543 0.0
H2025 H 0.69021 0.89797 0.806 0.0
H2026 H 0.66264 0.9159 0.79581 0.0
H2027 H 0.66175 0.88788 0.78156 0.0
H2028 H 0.61671 0.8827 0.81435 0.0
H2029 H 0.61748 0.91059 0.82861 0.0
H2030 H 0.61447 0.88914 0.86138 0.0
H2031 H 0.69867 0.89309 0.94597 0.0
H2032 H 0.68919 0.93209 0.9585 0.0
H2033 H 0.64725 0.93755 0.85735 0.0
C2034 C 0.65714 0.85025 0.83574 0.0
C2035 C 0.6648 0.83067 0.85299 0.0
C2036 C 0.68014 0.83176 0.88489 0.0
C2037 C 0.68659 0.85211 0.90017 0.0
C2038 C 0.67794 0.87115 0.88286 0.0
C2039 C 0.66374 0.87025 0.85107 0.0
C2040 C 0.65466 0.89261 0.83891 0.0
C2041 C 0.66812 0.89896 0.80347 0.0
C2042 C 0.62403 0.89382 0.83566 0.0
C2043 C 0.6649 0.90633 0.86956 0.0
C2044 C 0.67876 0.89386 0.89442 0.0
C2045 C 0.68841 0.90301 0.92621 0.0
C2046 C 0.68317 0.9252 0.93303 0.0
C2047 C 0.66826 0.93786 0.90833 0.0
C2048 C 0.6595 0.92834 0.87603 0.0
H2049 H 0.06946 0.83212 0.86124 0.0
H2050 H 0.07607 0.84213 0.97572 0.0
H2051 H 0.06623 0.88119 0.9677 0.0
H2052 H 0.10257 0.87752 0.83567 0.0
H2053 H 0.0822 0.88447 0.79735 0.0
H2054 H 0.08398 0.85673 0.8125 0.0
H2055 H 0.03253 0.85578 0.81848 0.0
H2056 H 0.03059 0.88366 0.8033 0.0
H2057 H 0.0159 0.87597 0.84545 0.0
H2058 H 0.06244 0.91999 0.94687 0.0
H2059 H 0.06712 0.95498 0.91436 0.0
H2060 H 0.06362 0.92044 0.8134 0.0
C2061 C 0.06735 0.84238 0.88463 0.0
C2062 C 0.07254 0.83397 0.91925 0.0
C2063 C 0.07125 0.84814 0.94913 0.0
C2064 C 0.06577 0.8704 0.94482 0.0
C2065 C 0.06143 0.87842 0.91035 0.0
C2066 C 0.06193 0.86483 0.88073 0.0
C2067 C 0.05956 0.87802 0.8464 0.0
C2068 C 0.08351 0.87394 0.82156 0.0
C2069 C 0.03307 0.87306 0.82726 0.0
C2070 C 0.05949 0.90106 0.86125 0.0
C2071 C 0.05974 0.90096 0.89825 0.0
C2072 C 0.06153 0.92029 0.91789 0.0
C2073 C 0.0639 0.94016 0.89926 0.0
C2074 C 0.06501 0.94049 0.86141 0.0
C2075 C 0.06202 0.9207 0.84234 0.0
H2076 H 0.33205 0.69071 0.61501 0.0
H2077 H 0.34453 0.6755 0.72719 0.0
H2078 H 0.33661 0.63645 0.71491 0.0
H2079 H 0.2811 0.64942 0.59494 0.0
H2080 H 0.29522 0.6435 0.55167 0.0
H2081 H 0.29849 0.67034 0.57049 0.0
H2082 H 0.34984 0.66774 0.56341 0.0
H2083 H 0.34673 0.64081 0.54503 0.0
H2084 H 0.36763 0.64529 0.58371 0.0
H2085 H 0.33163 0.59785 0.68836 0.0
H2086 H 0.32846 0.56469 0.65005 0.0
H2087 H 0.31973 0.60661 0.55671 0.0
C2088 C 0.33211 0.67923 0.63709 0.0
C2089 C 0.33823 0.68607 0.67214 0.0
C2090 C 0.33939 0.6705 0.70021 0.0
C2091 C 0.33502 0.6483 0.69348 0.0
C2092 C 0.32978 0.64186 0.6584 0.0
C2093 C 0.32821 0.65695 0.63072 0.0
C2094 C 0.32465 0.6458 0.59503 0.0
C2095 C 0.29829 0.65267 0.57699 0.0
C2096 C 0.34863 0.65017 0.57037 0.0
C2097 C 0.32401 0.62224 0.60699 0.0
C2098 C 0.32718 0.62004 0.64349 0.0
C2099 C 0.32872 0.59943 0.65971 0.0
C2100 C 0.32691 0.58067 0.63786 0.0
C2101 C 0.32347 0.5828 0.60035 0.0
C2102 C 0.3219 0.60401 0.58528 0.0
H2103 H 0.90587 0.6918 0.6448 0.0
H2104 H 0.90781 0.67915 0.53075 0.0
H2105 H 0.91439 0.63991 0.54264 0.0
H2106 H 0.95477 0.64678 0.67112 0.0
H2107 H 0.93645 0.64062 0.71131 0.0
H2108 H 0.93707 0.66811 0.6942 0.0
H2109 H 0.8854 0.66875 0.69274 0.0
H2110 H 0.88463 0.64132 0.70963 0.0
H2111 H 0.86777 0.64796 0.66821 0.0
H2112 H 0.91667 0.60172 0.56647 0.0
H2113 H 0.91117 0.56738 0.60037 0.0
H2114 H 0.90427 0.60404 0.69903 0.0
C2115 C 0.90898 0.68083 0.62251 0.0
C2116 C 0.90743 0.68856 0.58682 0.0
C2117 C 0.90995 0.6736 0.55821 0.0
C2118 C 0.91357 0.65128 0.56473 0.0
C2119 C 0.91454 0.64402 0.60014 0.0
C2120 C 0.91238 0.65833 0.62862 0.0
C2121 C 0.91134 0.64596 0.66393 0.0
C2122 C 0.93639 0.65065 0.68649 0.0
C2123 C 0.88575 0.65132 0.68483 0.0
C2124 C 0.91148 0.62257 0.65067 0.0
C2125 C 0.91435 0.62183 0.61387 0.0
C2126 C 0.91475 0.60211 0.59534 0.0
C2127 C 0.91175 0.58266 0.61481 0.0
C2128 C 0.90759 0.58306 0.65229 0.0
C2129 C 0.9077 0.6033 0.67042 0.0
H2130 H 0.65155 0.32935 0.39449 0.0
H2131 H 0.67833 0.33995 0.28583 0.0
H2132 H 0.6876 0.37865 0.30007 0.0
H2133 H 0.61656 0.3774 0.40219 0.0
H2134 H 0.62445 0.38234 0.44864 0.0
H2135 H 0.62437 0.35496 0.4317 0.0
H2136 H 0.67306 0.34947 0.45359 0.0
H2137 H 0.67323 0.37686 0.47089 0.0
H2138 H 0.69846 0.36833 0.43959 0.0
H2139 H 0.68906 0.41748 0.32495 0.0
H2140 H 0.68123 0.4522 0.35715 0.0
H2141 H 0.65295 0.41588 0.44915 0.0
C2142 C 0.66048 0.33965 0.37425 0.0
C2143 C 0.66524 0.33158 0.33946 0.0
C2144 C 0.6755 0.34573 0.31297 0.0
C2145 C 0.68067 0.36774 0.32082 0.0
C2146 C 0.67537 0.37538 0.35531 0.0
C2147 C 0.66562 0.36167 0.38166 0.0
C2148 C 0.65911 0.37422 0.41548 0.0
C2149 C 0.62937 0.3721 0.42503 0.0
C2150 C 0.67704 0.36677 0.44673 0.0
C2151 C 0.66594 0.39719 0.4038 0.0
C2152 C 0.67566 0.39759 0.36923 0.0
C2153 C 0.6819 0.41726 0.35227 0.0
C2154 C 0.67759 0.43695 0.37085 0.0
C2155 C 0.66679 0.43686 0.40588 0.0
C2156 C 0.66154 0.41658 0.42258 0.0
H2157 H 0.08676 0.3316 0.35681 0.0
H2158 H 0.05221 0.33978 0.4619 0.0
H2159 H 0.04401 0.37882 0.44888 0.0
H2160 H 0.12244 0.37864 0.3566 0.0
H2161 H 0.118 0.38525 0.30985 0.0
H2162 H 0.11614 0.35739 0.3244 0.0
H2163 H 0.06906 0.35392 0.29617 0.0
H2164 H 0.07088 0.3818 0.28113 0.0
H2165 H 0.04331 0.37305 0.30838 0.0
H2166 H 0.04505 0.41849 0.42672 0.0
H2167 H 0.05577 0.45395 0.39816 0.0
H2168 H 0.09077 0.41962 0.3084 0.0
C2169 C 0.07603 0.34136 0.37618 0.0
C2170 C 0.06882 0.33239 0.40968 0.0
C2171 C 0.05663 0.34606 0.43543 0.0
C2172 C 0.05219 0.36834 0.42836 0.0
C2173 C 0.06016 0.37686 0.39536 0.0
C2174 C 0.07161 0.36367 0.36953 0.0
C2175 C 0.08094 0.37708 0.33778 0.0
C2176 C 0.11116 0.37443 0.33185 0.0
C2177 C 0.0651 0.3711 0.30385 0.0
C2178 C 0.07396 0.3999 0.35028 0.0
C2179 C 0.06153 0.39952 0.38324 0.0
C2180 C 0.05438 0.41887 0.40062 0.0
C2181 C 0.06039 0.43899 0.38412 0.0
C2182 C 0.07388 0.43966 0.35085 0.0
C2183 C 0.08024 0.41974 0.33369 0.0
H2184 H 0.84622 0.10532 0.55109 0.0
H2185 H 0.81569 0.06907 0.64176 0.0
H2186 H 0.8158 0.10331 0.67784 0.0
H2187 H 0.88703 0.14469 0.59665 0.0
H2188 H 0.87727 0.16612 0.56614 0.0
H2189 H 0.87798 0.13832 0.55104 0.0
H2190 H 0.82859 0.14213 0.53084 0.0
H2191 H 0.82747 0.16972 0.54697 0.0
H2192 H 0.80373 0.15008 0.56307 0.0
H2193 H 0.81683 0.14371 0.70171 0.0
H2194 H 0.82243 0.18344 0.71199 0.0
H2195 H 0.84839 0.19166 0.60245 0.0
C2196 C 0.84009 0.10432 0.57886 0.0
C2197 C 0.8311 0.08443 0.59369 0.0
C2198 C 0.82312 0.08399 0.63001 0.0
C2199 C 0.82276 0.10346 0.65042 0.0
C2200 C 0.83015 0.12309 0.63384 0.0
C2201 C 0.83887 0.1234 0.59882 0.0
C2202 C 0.84405 0.14628 0.58553 0.0
C2203 C 0.87333 0.14901 0.5742 0.0
C2204 C 0.82482 0.1524 0.55479 0.0
C2205 C 0.83777 0.15912 0.61883 0.0
C2206 C 0.82951 0.14566 0.64649 0.0
C2207 C 0.82304 0.15424 0.68002 0.0
C2208 C 0.82592 0.17684 0.68551 0.0
C2209 C 0.83496 0.19061 0.65759 0.0
C2210 C 0.8406 0.18159 0.62383 0.0
H2211 H 0.39928 0.18756 0.64995 0.0
H2212 H 0.43986 0.1813 0.54847 0.0
H2213 H 0.44846 0.14223 0.56116 0.0
H2214 H 0.44208 0.14713 0.70122 0.0
H2215 H 0.41365 0.13758 0.72606 0.0
H2216 H 0.41511 0.16556 0.71151 0.0
H2217 H 0.36951 0.16109 0.67955 0.0
H2218 H 0.36805 0.13311 0.69351 0.0
H2219 H 0.36546 0.1399 0.6466 0.0
H2220 H 0.44632 0.10229 0.58155 0.0
H2221 H 0.4354 0.06649 0.60879 0.0
H2222 H 0.39702 0.09976 0.69715 0.0
C2223 C 0.41129 0.1782 0.63142 0.0
C2224 C 0.41999 0.18758 0.59897 0.0
C2225 C 0.43418 0.1746 0.5742 0.0
C2226 C 0.43884 0.15233 0.58105 0.0
C2227 C 0.42932 0.14336 0.61294 0.0
C2228 C 0.41623 0.15606 0.63801 0.0
C2229 C 0.40599 0.14235 0.66876 0.0
C2230 C 0.42005 0.14852 0.70397 0.0
C2231 C 0.37545 0.14423 0.67226 0.0
C2232 C 0.41436 0.11986 0.65645 0.0
C2233 C 0.42804 0.12065 0.62443 0.0
C2234 C 0.43616 0.10157 0.60706 0.0
C2235 C 0.43002 0.08127 0.62277 0.0
C2236 C 0.41565 0.08022 0.6553 0.0
C2237 C 0.4082 0.0999 0.67237 0.0
H2238 H 0.15816 0.85358 0.309 0.0
H2239 H 0.16658 0.81577 0.4066 0.0
H2240 H 0.17365 0.84964 0.441 0.0
H2241 H 0.21007 0.89606 0.33692 0.0
H2242 H 0.19191 0.91753 0.3145 0.0
H2243 H 0.19116 0.89018 0.29693 0.0
H2244 H 0.13954 0.89075 0.29923 0.0
H2245 H 0.14015 0.91793 0.31695 0.0
H2246 H 0.12312 0.89667 0.34104 0.0
H2247 H 0.17184 0.88737 0.46582 0.0
H2248 H 0.16458 0.92631 0.47903 0.0
H2249 H 0.16103 0.94056 0.36541 0.0
C2250 C 0.16244 0.85246 0.33742 0.0
C2251 C 0.16218 0.83204 0.35513 0.0
C2252 C 0.16732 0.83117 0.39242 0.0
C2253 C 0.17123 0.85036 0.41219 0.0
C2254 C 0.17083 0.87028 0.39411 0.0
C2255 C 0.16726 0.87147 0.35741 0.0
C2256 C 0.16676 0.89506 0.34483 0.0
C2257 C 0.19143 0.9 0.32193 0.0
C2258 C 0.14084 0.9004 0.32434 0.0
C2259 C 0.16828 0.90695 0.38048 0.0
C2260 C 0.17114 0.89228 0.40847 0.0
C2261 C 0.17056 0.89904 0.4441 0.0
C2262 C 0.16655 0.9212 0.45137 0.0
C2263 C 0.16331 0.93652 0.42328 0.0
C2264 C 0.1647 0.92933 0.38733 0.0
H2265 H 0.60403 0.8337 0.3584 0.0
H2266 H 0.54405 0.83689 0.44116 0.0
H2267 H 0.53263 0.8747 0.4224 0.0
H2268 H 0.62793 0.88577 0.37039 0.0
H2269 H 0.63467 0.89093 0.32375 0.0
H2270 H 0.63507 0.86348 0.34053 0.0
H2271 H 0.5998 0.85229 0.29306 0.0
H2272 H 0.59947 0.87972 0.27583 0.0
H2273 H 0.5688 0.86717 0.28997 0.0
H2274 H 0.53261 0.91461 0.39852 0.0
H2275 H 0.54299 0.95059 0.37135 0.0
H2276 H 0.60169 0.91927 0.30332 0.0
C2277 C 0.58771 0.84207 0.3715 0.0
C2278 C 0.57424 0.83225 0.40033 0.0
C2279 C 0.5539 0.84397 0.41816 0.0
C2280 C 0.54748 0.86549 0.40784 0.0
C2281 C 0.56158 0.87496 0.37959 0.0
C2282 C 0.58107 0.86339 0.36146 0.0
C2283 C 0.59493 0.87745 0.33404 0.0
C2284 C 0.6249 0.87953 0.34272 0.0
C2285 C 0.59047 0.86863 0.29597 0.0
C2286 C 0.58044 0.89881 0.33954 0.0
C2287 C 0.56132 0.89731 0.36594 0.0
C2288 C 0.54716 0.91576 0.37727 0.0
C2289 C 0.55305 0.93616 0.36155 0.0
C2290 C 0.57294 0.93792 0.3348 0.0
C2291 C 0.58614 0.91873 0.32335 0.0
H2292 H 0.87277 0.58883 0.11098 0.0
H2293 H 0.788 0.5766 0.11376 0.0
H2294 H 0.78024 0.61365 0.1375 0.0
H2295 H 0.87487 0.62601 0.19315 0.0
H2296 H 0.90012 0.64255 0.1724 0.0
H2297 H 0.8988 0.61375 0.16335 0.0
H2298 H 0.89647 0.62232 0.0954 0.0
H2299 H 0.89679 0.65107 0.10418 0.0
H2300 H 0.86994 0.63941 0.0784 0.0
H2301 H 0.78158 0.65521 0.14967 0.0
H2302 H 0.79282 0.69418 0.15927 0.0
H2303 H 0.87677 0.67816 0.14807 0.0
C2304 C 0.85281 0.59335 0.11925 0.0
C2305 C 0.83111 0.57941 0.11185 0.0
C2306 C 0.80505 0.58654 0.1208 0.0
C2307 C 0.80041 0.60783 0.13351 0.0
C2308 C 0.82214 0.62176 0.13787 0.0
C2309 C 0.84795 0.61449 0.1321 0.0
C2310 C 0.86778 0.63289 0.13619 0.0
C2311 C 0.8865 0.62855 0.16818 0.0
C2312 C 0.88365 0.63662 0.10147 0.0
C2313 C 0.84914 0.6518 0.14368 0.0
C2314 C 0.82286 0.64523 0.14472 0.0
C2315 C 0.80221 0.66036 0.14967 0.0
C2316 C 0.80873 0.68253 0.15483 0.0
C2317 C 0.83568 0.68942 0.15475 0.0
C2318 C 0.85591 0.67366 0.14864 0.0
H2319 H 0.38516 0.60094 0.19311 0.0
H2320 H 0.44159 0.56949 0.12209 0.0
H2321 H 0.45487 0.60576 0.09863 0.0
H2322 H 0.36237 0.6401 0.13279 0.0
H2323 H 0.35853 0.66118 0.16594 0.0
H2324 H 0.35608 0.63307 0.17892 0.0
H2325 H 0.39335 0.63883 0.22635 0.0
H2326 H 0.39606 0.66699 0.2132 0.0
H2327 H 0.42512 0.64961 0.21262 0.0
H2328 H 0.4579 0.64634 0.07841 0.0
H2329 H 0.44944 0.6852 0.06339 0.0
H2330 H 0.39205 0.68912 0.14926 0.0
C2331 C 0.40067 0.60157 0.17303 0.0
C2332 C 0.41241 0.58222 0.15965 0.0
C2333 C 0.43252 0.584 0.1332 0.0
C2334 C 0.44013 0.60459 0.11965 0.0
C2335 C 0.42778 0.62333 0.1332 0.0
C2336 C 0.40857 0.62186 0.15955 0.0
C2337 C 0.39697 0.644 0.16848 0.0
C2338 C 0.36672 0.64462 0.16106 0.0
C2339 C 0.40326 0.65022 0.20748 0.0
C2340 C 0.41209 0.6583 0.14249 0.0
C2341 C 0.42999 0.64625 0.12246 0.0
C2342 C 0.44448 0.65593 0.0947 0.0
C2343 C 0.43988 0.67814 0.08663 0.0
C2344 C 0.42107 0.69048 0.1063 0.0
C2345 C 0.40756 0.68041 0.13502 0.0
H2346 H 0.15533 0.41718 0.94988 0.0
H2347 H 0.17561 0.45133 0.85211 0.0
H2348 H 0.18269 0.41593 0.82172 0.0
H2349 H 0.19962 0.3691 0.9387 0.0
H2350 H 0.17483 0.35093 0.95656 0.0
H2351 H 0.17637 0.37872 0.97188 0.0
H2352 H 0.12669 0.38427 0.95454 0.0
H2353 H 0.12497 0.3566 0.93915 0.0
H2354 H 0.11601 0.37859 0.90932 0.0
H2355 H 0.18147 0.37644 0.80025 0.0
H2356 H 0.17164 0.33744 0.78959 0.0
H2357 H 0.14996 0.32962 0.90097 0.0
C2358 C 0.1622 0.41727 0.92238 0.0
C2359 C 0.1658 0.43713 0.90368 0.0
C2360 C 0.17394 0.43646 0.86744 0.0
C2361 C 0.17763 0.41635 0.84988 0.0
C2362 C 0.17307 0.39708 0.86896 0.0
C2363 C 0.16561 0.39746 0.90454 0.0
C2364 C 0.15911 0.37484 0.91828 0.0
C2365 C 0.17865 0.36799 0.94812 0.0
C2366 C 0.12998 0.37351 0.93105 0.0
C2367 C 0.16343 0.36155 0.88468 0.0
C2368 C 0.17184 0.37458 0.85659 0.0
C2369 C 0.17546 0.36609 0.82227 0.0
C2370 C 0.16997 0.34392 0.81647 0.0
C2371 C 0.16088 0.3305 0.84474 0.0
C2372 C 0.15781 0.3394 0.87928 0.0
H2373 H 0.57621 0.34989 0.94297 0.0
H2374 H 0.56408 0.31548 0.84299 0.0
H2375 H 0.55508 0.35068 0.81237 0.0
H2376 H 0.52529 0.39419 0.92572 0.0
H2377 H 0.54585 0.41421 0.94762 0.0
H2378 H 0.54679 0.38622 0.96235 0.0
H2379 H 0.59798 0.38537 0.95316 0.0
H2380 H 0.59721 0.41322 0.93839 0.0
H2381 H 0.61149 0.39254 0.91001 0.0
H2382 H 0.55481 0.38997 0.79137 0.0
H2383 H 0.56253 0.42927 0.78186 0.0
H2384 H 0.57396 0.43813 0.89585 0.0
C2385 C 0.57067 0.3497 0.91487 0.0
C2386 C 0.57039 0.32992 0.89543 0.0
C2387 C 0.56371 0.33035 0.85857 0.0
C2388 C 0.55875 0.35031 0.84097 0.0
C2389 C 0.56 0.36961 0.86081 0.0
C2390 C 0.56541 0.36938 0.89713 0.0
C2391 C 0.56771 0.39231 0.91195 0.0
C2392 C 0.54507 0.39701 0.93849 0.0
C2393 C 0.59523 0.39607 0.92936 0.0
C2394 C 0.56421 0.40561 0.87798 0.0
C2395 C 0.55929 0.39222 0.84885 0.0
C2396 C 0.55772 0.40059 0.81415 0.0
C2397 C 0.56185 0.42299 0.80901 0.0
C2398 C 0.56748 0.43688 0.83831 0.0
C2399 C 0.56819 0.4281 0.87328 0.0
H2400 H 0.24322 0.99899 0.02356 0.0
H2401 H 0.29428 0.03115 0.94576 0.0
H2402 H 0.25684 0.03467 0.90444 0.0
H2403 H 0.20712 0.96764 0.95493 0.0
H2404 H 0.17557 0.96911 0.97783 0.0
H2405 H 0.20624 0.96968 0.00311 0.0
H2406 H 0.19122 1.00586 0.03242 0.0
H2407 H 0.16078 1.00569 0.00651 0.0
H2408 H 0.18275 0.02882 0.00434 0.0
H2409 H 0.21488 0.03788 0.87297 0.0
H2410 H 0.17148 0.031 0.84411 0.0
H2411 H 0.14671 0.99311 0.93626 0.0
C2412 C 0.24649 1.00648 0.99766 0.0
C2413 C 0.2716 0.01539 0.98856 0.0
C2414 C 0.27515 0.02477 0.95407 0.0
C2415 C 0.25394 0.02698 0.93025 0.0
C2416 C 0.22925 0.01924 0.94062 0.0
C2417 C 0.22541 1.00841 0.9727 0.0
C2418 C 0.19689 1.00013 0.97501 0.0
C2419 C 0.19643 0.97516 0.97787 0.0
C2420 C 0.18204 0.01076 0.00645 0.0
C2421 C 0.18574 1.008 0.93918 0.0
C2422 C 0.20474 0.01961 0.92058 0.0
C2423 C 0.19975 0.02875 0.88706 0.0
C2424 C 0.17502 0.02499 0.87107 0.0
C2425 C 0.15585 0.01194 0.88834 0.0
C2426 C 0.16094 1.00364 0.92311 0.0
H2427 H 0.06361 0.22918 0.88685 0.0
H2428 H 0.10846 0.28707 0.91486 0.0
H2429 H 0.07377 0.29743 0.95785 0.0
H2430 H -0.00069 0.24948 0.8936 0.0
H2431 H 0.98417 0.22694 0.91678 0.0
H2432 H 0.01286 0.22241 0.88879 0.0
H2433 H 0.03862 0.20486 0.94182 0.0
H2434 H 0.00964 0.20861 0.96962 0.0
H2435 H 0.04141 0.21941 0.98358 0.0
H2436 H 0.03125 0.30618 0.98337 0.0
H2437 H 0.99052 0.30638 0.0182 0.0
H2438 H 0.97517 0.23901 0.98857 0.0
C2439 C 0.06663 0.24337 0.90354 0.0
C2440 C 0.08875 0.25729 0.89813 0.0
C2441 C 0.09197 0.27604 0.91944 0.0
C2442 C 0.07214 0.28226 0.94332 0.0
C2443 C 0.04988 0.26899 0.94657 0.0
C2444 C 0.04757 0.24928 0.92929 0.0
C2445 C 0.0219 0.23782 0.94037 0.0
C2446 C 0.00348 0.23394 0.90794 0.0
C2447 C 0.02827 0.2164 0.96003 0.0
C2448 C 0.01004 0.25467 0.96566 0.0
C2449 C 0.0263 0.27279 0.96702 0.0
C2450 C 0.01905 0.2917 0.98444 0.0
C2451 C -0.00428 0.29155 0.0041 0.0
C2452 C 0.98046 0.27226 0.00802 0.0
C2453 C 0.98687 0.25376 0.98703 0.0
H2454 H 0.26125 0.29505 0.26887 0.0
H2455 H 0.2678 0.22659 0.24279 0.0
H2456 H 0.22929 0.21864 0.28249 0.0
H2457 H 0.23981 0.28836 0.36291 0.0
H2458 H 0.2181 0.31174 0.35939 0.0
H2459 H 0.24821 0.31051 0.33332 0.0
H2460 H 0.22 0.31701 0.27579 0.0
H2461 H 0.18966 0.3173 0.30133 0.0
H2462 H 0.19348 0.29839 0.26481 0.0
H2463 H 0.1858 0.21981 0.31921 0.0
H2464 H 0.14703 0.22907 0.35782 0.0
H2465 H 0.17059 0.29676 0.35686 0.0
C2466 C 0.25511 0.27829 0.27256 0.0
C2467 C 0.2672 0.26138 0.25327 0.0
C2468 C 0.25876 0.23964 0.25805 0.0
C2469 C 0.2368 0.23507 0.28012 0.0
C2470 C 0.22411 0.25247 0.29712 0.0
C2471 C 0.23351 0.27355 0.29421 0.0
C2472 C 0.21604 0.28967 0.31338 0.0
C2473 C 0.23145 0.30071 0.34409 0.0
C2474 C 0.2041 0.30658 0.28726 0.0
C2475 C 0.19497 0.27453 0.32724 0.0
C2476 C 0.19965 0.25313 0.3176 0.0
C2477 C 0.18215 0.23649 0.32718 0.0
C2478 C 0.16005 0.24185 0.34858 0.0
C2479 C 0.15606 0.26353 0.36003 0.0
C2480 C 0.1733 0.28004 0.34834 0.0
H2481 H 0.97676 0.98065 0.27657 0.0
H2482 H 0.98053 0.04642 0.23526 0.0
H2483 H 0.01941 0.05396 0.27474 0.0
H2484 H 0.0002 0.99293 0.37005 0.0
H2485 H 0.01814 0.96745 0.37167 0.0
H2486 H 0.98781 0.96966 0.34586 0.0
H2487 H 0.0136 0.95559 0.29039 0.0
H2488 H 0.04435 0.9545 0.31527 0.0
H2489 H 0.04228 0.97039 0.27468 0.0
H2490 H 0.06185 0.05191 0.31265 0.0
H2491 H 0.09934 0.04232 0.35382 0.0
H2492 H 0.06753 0.97708 0.36445 0.0
C2493 C 0.98505 0.99693 0.2773 0.0
C2494 C 0.97594 0.01312 0.25383 0.0
C2495 C 0.9873 0.03411 0.25409 0.0
C2496 C 0.00944 0.03839 0.27598 0.0
C2497 C 0.01937 0.02145 0.29715 0.0
C2498 C 0.00702 1.00132 0.29862 0.0
C2499 C 0.0224 0.98523 0.32102 0.0
C2500 C 0.00618 0.97843 0.35412 0.0
C2501 C 0.03117 0.96527 0.299 0.0
C2502 C 0.0458 0.99918 0.33107 0.0
C2503 C 0.04386 0.02005 0.31742 0.0
C2504 C 0.06348 0.03567 0.32379 0.0
C2505 C 0.08483 0.03005 0.34657 0.0
C2506 C 0.08599 1.00904 0.36202 0.0
C2507 C 0.06691 0.9933 0.3529 0.0
H2508 H 0.81914 0.98131 0.11598 0.0
H2509 H 0.84359 0.04882 0.10787 0.0
H2510 H 0.80417 0.05703 0.07075 0.0
H2511 H 0.79596 0.97859 0.02107 0.0
H2512 H 0.76902 0.96031 0.03149 0.0
H2513 H 0.7991 0.95977 0.05802 0.0
H2514 H 0.77051 0.96576 0.11499 0.0
H2515 H 0.7405 0.96723 0.08828 0.0
H2516 H 0.74911 0.98936 0.11774 0.0
H2517 H 0.76015 0.05942 0.04398 0.0
H2518 H 0.72235 0.05383 0.00306 0.0
H2519 H 0.72892 0.98393 0.01769 0.0
C2520 C 0.81662 0.99753 0.10501 0.0
C2521 C 0.83424 0.0145 0.11426 0.0
C2522 C 0.83034 0.03567 0.10033 0.0
C2523 C 0.80778 0.04056 0.07999 0.0
C2524 C 0.78984 0.0239 0.07313 0.0
C2525 C 0.7946 1.00258 0.08322 0.0
C2526 C 0.77302 0.98767 0.06871 0.0
C2527 C 0.78499 0.97058 0.04329 0.0
C2528 C 0.75738 0.97686 0.09927 0.0
C2529 C 0.75572 1.00407 0.04879 0.0
C2530 C 0.76525 0.02495 0.05364 0.0
C2531 C 0.75268 0.04316 0.03929 0.0
C2532 C 0.73107 0.03984 0.01655 0.0
C2533 C 0.72311 0.0185 0.00739 0.0
C2534 C 0.73458 1.00036 0.02487 0.0
H2535 H 0.00961 0.78038 1.00015 0.0
H2536 H 0.01613 0.70989 0.00406 0.0
H2537 H 0.97608 0.7081 0.04159 0.0
H2538 H 0.98602 0.78689 0.09363 0.0
H2539 H 0.96357 0.80886 0.08214 0.0
H2540 H 0.99362 0.80478 0.0567 0.0
H2541 H 0.96523 0.80284 0.99867 0.0
H2542 H 0.93498 0.80618 0.02406 0.0
H2543 H 0.93904 0.78292 0.9952 0.0
H2544 H 0.93253 0.71294 0.06963 0.0
H2545 H 0.89429 0.72463 0.10583 0.0
H2546 H 0.91737 0.79212 0.09222 0.0
C2547 C 0.00299 0.76469 0.00988 0.0
C2548 C 0.01568 0.74522 0.99888 0.0
C2549 C 0.0064 0.72494 0.0118 0.0
C2550 C 0.98359 0.72373 0.0329 0.0
C2551 C 0.97044 0.74299 0.04126 0.0
C2552 C 0.98019 0.76316 0.03153 0.0
C2553 C 0.96208 0.7812 0.04525 0.0
C2554 C 0.97722 0.79632 0.07099 0.0
C2555 C 0.94961 0.79405 0.01393 0.0
C2556 C 0.94104 0.76789 0.06458 0.0
C2557 C 0.94586 0.74588 0.06043 0.0
C2558 C 0.92868 0.73011 0.07363 0.0
C2559 C 0.90675 0.73693 0.09364 0.0
C2560 C 0.90277 0.75924 0.1014 0.0
C2561 C 0.91975 0.77501 0.08602 0.0
H2562 H 0.83017 0.78545 0.66102 0.0
H2563 H 0.82454 0.71933 0.6207 0.0
H2564 H 0.78428 0.71331 0.65624 0.0
H2565 H 0.80796 0.76846 0.75407 0.0
H2566 H 0.79107 0.79399 0.76158 0.0
H2567 H 0.82024 0.79304 0.73357 0.0
H2568 H 0.79285 0.81128 0.68254 0.0
H2569 H 0.76332 0.81139 0.70992 0.0
H2570 H 0.76278 0.7984 0.66664 0.0
H2571 H 0.74194 0.71609 0.68549 0.0
H2572 H 0.70699 0.72117 0.73068 0.0
H2573 H 0.74165 0.78308 0.76126 0.0
C2574 C 0.82092 0.76955 0.66095 0.0
C2575 C 0.82982 0.75294 0.63785 0.0
C2576 C 0.81755 0.73223 0.63815 0.0
C2577 C 0.79456 0.72875 0.65777 0.0
C2578 C 0.78487 0.74588 0.67801 0.0
C2579 C 0.7983 0.76537 0.68179 0.0
C2580 C 0.78413 0.78004 0.70834 0.0
C2581 C 0.8019 0.78411 0.74136 0.0
C2582 C 0.77525 0.80155 0.69078 0.0
C2583 C 0.76036 0.76588 0.71753 0.0
C2584 C 0.761 0.74661 0.69853 0.0
C2585 C 0.74133 0.73086 0.70122 0.0
C2586 C 0.72146 0.734 0.72647 0.0
C2587 C 0.72198 0.75243 0.74894 0.0
C2588 C 0.74084 0.76908 0.74368 0.0
H2589 H 0.92303 0.04185 0.62626 0.0
H2590 H 0.88759 0.98167 0.66438 0.0
H2591 H 0.92221 0.97825 0.71028 0.0
H2592 H 0.99007 0.02869 0.63881 0.0
H2593 H 0.00087 0.05419 0.65768 0.0
H2594 H 0.97243 0.05352 0.62803 0.0
H2595 H 0.943 0.07186 0.67632 0.0
H2596 H 0.97155 0.0731 0.70577 0.0
H2597 H 0.94138 0.06007 0.72055 0.0
H2598 H 0.96369 0.97717 0.74406 0.0
H2599 H 0.00429 0.9846 0.77933 0.0
H2600 H 0.01112 0.04781 0.72795 0.0
C2601 C 0.92223 0.02839 0.64501 0.0
C2602 C 0.90295 0.0118 0.64132 0.0
C2603 C 0.90241 0.99442 0.66643 0.0
C2604 C 0.92206 0.9922 0.69253 0.0
C2605 C 0.9417 1.00794 0.69423 0.0
C2606 C 0.94144 0.02625 0.67253 0.0
C2607 C 0.96469 0.04102 0.68202 0.0
C2608 C 0.9831 0.04455 0.64969 0.0
C2609 C 0.95455 0.0628 0.69706 0.0
C2610 C 0.97838 0.02749 0.71097 0.0
C2611 C 0.96489 1.0083 0.7169 0.0
C2612 C 0.97421 0.99236 0.74046 0.0
C2613 C -0.00257 0.99657 0.75997 0.0
C2614 C 0.01059 0.01674 0.75632 0.0
C2615 C 0.00121 0.03229 0.73118 0.0
H2616 H 0.26104 0.4826 0.49216 0.0
H2617 H 0.2475 0.54557 0.54066 0.0
H2618 H 0.20409 0.54868 0.50932 0.0
H2619 H 0.23959 0.4966 0.40943 0.0
H2620 H 0.22378 0.47118 0.39821 0.0
H2621 H 0.25057 0.47161 0.43031 0.0
H2622 H 0.22056 0.45317 0.47781 0.0
H2623 H 0.19366 0.45224 0.44561 0.0
H2624 H 0.18865 0.46505 0.4885 0.0
H2625 H 0.16533 0.54711 0.4661 0.0
H2626 H 0.13463 0.5407 0.41476 0.0
H2627 H 0.17485 0.47937 0.39385 0.0
C2628 C 0.24817 0.49642 0.49748 0.0
C2629 C 0.25682 0.51348 0.51953 0.0
C2630 C 0.24048 0.53204 0.52459 0.0
C2631 C 0.21593 0.53399 0.50683 0.0
C2632 C 0.20815 0.51718 0.48415 0.0
C2633 C 0.22368 0.49865 0.47973 0.0
C2634 C 0.21249 0.48418 0.45075 0.0
C2635 C 0.23281 0.48071 0.42039 0.0
C2636 C 0.20329 0.46237 0.46662 0.0
C2637 C 0.18902 0.49788 0.43851 0.0
C2638 C 0.18642 0.51665 0.45846 0.0
C2639 C 0.16687 0.53227 0.45063 0.0
C2640 C 0.14957 0.52857 0.42149 0.0
C2641 C 0.15248 0.50965 0.40032 0.0
C2642 C 0.17223 0.49408 0.40944 0.0
H2643 H 0.08986 0.78712 0.42466 0.0
H2644 H 0.0714 0.72797 0.36712 0.0
H2645 H 0.03237 0.72183 0.40658 0.0
H2646 H 0.06693 0.76881 0.51501 0.0
H2647 H 0.05388 0.7955 0.52496 0.0
H2648 H 0.08253 0.79264 0.49633 0.0
H2649 H 0.05786 0.81482 0.44697 0.0
H2650 H 0.02893 0.81728 0.47498 0.0
H2651 H 0.02588 0.80558 0.4309 0.0
H2652 H 0.99321 0.72431 0.44977 0.0
H2653 H 0.95859 0.73449 0.49378 0.0
H2654 H 0.00167 0.7939 0.51753 0.0
C2655 C 0.07829 0.77236 0.42168 0.0
C2656 C 0.08389 0.75753 0.39416 0.0
C2657 C 0.06774 0.73896 0.38926 0.0
C2658 C 0.04549 0.7355 0.41124 0.0
C2659 C 0.03989 0.75089 0.43763 0.0
C2660 C 0.05604 0.76883 0.4431 0.0
C2661 C 0.04461 0.78402 0.47079 0.0
C2662 C 0.06308 0.78531 0.50373 0.0
C2663 C 0.03899 0.80676 0.45493 0.0
C2664 C 0.01911 0.77222 0.47939 0.0
C2665 C 0.01678 0.75301 0.46049 0.0
C2666 C 0.99477 0.73941 0.46452 0.0
C2667 C 0.97489 0.74553 0.48898 0.0
C2668 C 0.97686 0.76535 0.50815 0.0
C2669 C -0.00069 0.77876 0.50304 0.0
H2670 H 0.26184 0.79205 0.76693 0.0
H2671 H 0.26544 0.72419 0.73633 0.0
H2672 H 0.2263 0.71642 0.7751 0.0
H2673 H 0.24159 0.78297 0.86025 0.0
H2674 H 0.22091 0.80705 0.85999 0.0
H2675 H 0.25025 0.80587 0.8324 0.0
H2676 H 0.2211 0.81505 0.77675 0.0
H2677 H 0.19151 0.81556 0.80385 0.0
H2678 H 0.1933 0.79777 0.76555 0.0
H2679 H 0.18336 0.71767 0.81405 0.0
H2680 H 0.1463 0.72666 0.85592 0.0
H2681 H 0.17276 0.79371 0.85854 0.0
C2682 C 0.2549 0.77542 0.7694 0.0
C2683 C 0.26667 0.75862 0.74944 0.0
C2684 C 0.25689 0.73712 0.75238 0.0
C2685 C 0.23452 0.73267 0.77387 0.0
C2686 C 0.22255 0.74993 0.79219 0.0
C2687 C 0.23292 0.77077 0.79067 0.0
C2688 C 0.21665 0.78671 0.8121 0.0
C2689 C 0.23333 0.7962 0.84303 0.0
C2690 C 0.20495 0.80483 0.78811 0.0
C2691 C 0.19514 0.77178 0.82567 0.0
C2692 C 0.19854 0.75062 0.81393 0.0
C2693 C 0.18067 0.73417 0.8235 0.0
C2694 C 0.15952 0.73943 0.84683 0.0
C2695 C 0.15678 0.76086 0.86017 0.0
C2696 C 0.17443 0.77719 0.84862 0.0
H2697 H 0.07453 0.47803 0.85142 0.0
H2698 H 0.08784 0.54664 0.87131 0.0
H2699 H 0.04882 0.55578 0.8323 0.0
H2700 H 0.05453 0.48212 0.76032 0.0
H2701 H 0.03054 0.46052 0.76495 0.0
H2702 H 0.0598 0.46082 0.79293 0.0
H2703 H 0.02933 0.45913 0.84915 0.0
H2704 H -3e-05 0.45961 0.82122 0.0
H2705 H 0.00427 0.47986 0.85564 0.0
H2706 H 0.00693 0.55615 0.7912 0.0
H2707 H 0.97124 0.54794 0.74658 0.0
H2708 H 0.98678 0.47898 0.75971 0.0
C2709 C 0.06946 0.49503 0.84724 0.0
C2710 C 0.08387 0.51167 0.86396 0.0
C2711 C 0.07696 0.53374 0.85802 0.0
C2712 C 0.05472 0.53899 0.83649 0.0
C2713 C 0.04006 0.52189 0.82168 0.0
C2714 C 0.04754 0.5004 0.8266 0.0
C2715 C 0.02927 0.48474 0.80811 0.0
C2716 C 0.04443 0.47128 0.7799 0.0
C2717 C 0.01486 0.46998 0.83516 0.0
C2718 C 0.01038 0.50069 0.79115 0.0
C2719 C 0.01644 0.52208 0.79937 0.0
C2720 C 0.00201 0.53947 0.78475 0.0
C2721 C 0.98178 0.53472 0.75979 0.0
C2722 C 0.97686 0.51288 0.75002 0.0
C2723 C 0.99048 0.4958 0.76692 0.0
H2724 H 0.74929 0.54313 0.49347 0.0
H2725 H 0.70782 0.48244 0.51405 0.0
H2726 H 0.74213 0.47272 0.55956 0.0
H2727 H 0.81495 0.52283 0.49947 0.0
H2728 H 0.82787 0.54675 0.52133 0.0
H2729 H 0.79965 0.54902 0.49152 0.0
H2730 H 0.77158 0.56705 0.54169 0.0
H2731 H 0.79987 0.56535 0.57141 0.0
H2732 H 0.7685 0.55353 0.58439 0.0
H2733 H 0.78182 0.47007 0.60262 0.0
H2734 H 0.82069 0.47631 0.64288 0.0
H2735 H 0.83538 0.5381 0.5908 0.0
C2736 C 0.74726 0.52776 0.50747 0.0
C2737 C 0.72612 0.5134 0.49998 0.0
C2738 C 0.72401 0.49363 0.51935 0.0
C2739 C 0.74344 0.48794 0.54502 0.0
C2740 C 0.76459 0.50226 0.55076 0.0
C2741 C 0.7663 0.52188 0.53277 0.0
C2742 C 0.79043 0.53478 0.54393 0.0
C2743 C 0.80934 0.53855 0.51216 0.0
C2744 C 0.78209 0.55645 0.56141 0.0
C2745 C 0.8024 0.5193 0.57091 0.0
C2746 C 0.78732 0.50059 0.57463 0.0
C2747 C 0.79394 0.4845 0.59959 0.0
C2748 C 0.81607 0.48803 0.62199 0.0
C2749 C 0.83114 0.50732 0.61874 0.0
C2750 C 0.82454 0.5229 0.59264 0.0
H2751 H 0.01718 0.27942 0.51185 0.0
H2752 H 0.0083 0.20966 0.496 0.0
H2753 H 0.9668 0.21014 0.52985 0.0
H2754 H 0.9911 0.27529 0.60777 0.0
H2755 H 0.97587 0.30189 0.60538 0.0
H2756 H 0.0058 0.29626 0.58043 0.0
H2757 H 0.98145 0.30891 0.52265 0.0
H2758 H 0.95105 0.31359 0.54711 0.0
H2759 H 0.95108 0.29554 0.50908 0.0
H2760 H 0.92242 0.21899 0.55075 0.0
H2761 H 0.88565 0.23122 0.58911 0.0
H2762 H 0.92579 0.29287 0.60594 0.0
C2763 C 0.00692 0.26421 0.51662 0.0
C2764 C 0.01515 0.24471 0.49977 0.0
C2765 C 0.00166 0.22498 0.50734 0.0
C2766 C 0.97797 0.22503 0.52633 0.0
C2767 C 0.96878 0.24475 0.53927 0.0
C2768 C 0.98356 0.26367 0.53735 0.0
C2769 C 0.96961 0.2819 0.55752 0.0
C2770 C 0.9866 0.28926 0.5897 0.0
C2771 C 0.96291 0.30112 0.53258 0.0
C2772 C 0.94442 0.27023 0.56944 0.0
C2773 C 0.94412 0.24911 0.55695 0.0
C2774 C 0.92254 0.2353 0.56169 0.0
C2775 C 0.90148 0.24257 0.58272 0.0
C2776 C 0.90295 0.26296 0.59999 0.0
C2777 C 0.92412 0.27737 0.59232 0.0
H2778 H 0.76034 0.23352 0.26989 0.0
H2779 H 0.70217 0.28 0.22877 0.0
H2780 H 0.73383 0.2902 0.18062 0.0
H2781 H 0.8187 0.26495 0.2551 0.0
H2782 H 0.83849 0.24169 0.24223 0.0
H2783 H 0.8113 0.2384 0.27316 0.0
H2784 H 0.79005 0.20912 0.23206 0.0
H2785 H 0.81742 0.21196 0.20142 0.0
H2786 H 0.78364 0.21548 0.18562 0.0
H2787 H 0.77151 0.29353 0.13563 0.0
H2788 H 0.81056 0.2883 0.09591 0.0
H2789 H 0.84379 0.24127 0.17035 0.0
C2790 C 0.75409 0.24594 0.25097 0.0
C2791 C 0.72888 0.25611 0.2532 0.0
C2792 C 0.72147 0.27205 0.22752 0.0
C2793 C 0.73935 0.27802 0.20032 0.0
C2794 C 0.76437 0.26793 0.19962 0.0
C2795 C 0.77154 0.25213 0.2242 0.0
C2796 C 0.79893 0.24292 0.21722 0.0
C2797 C 0.81797 0.24727 0.24881 0.0
C2798 C 0.79741 0.21843 0.20855 0.0
C2799 C 0.80639 0.2561 0.18477 0.0
C2800 C 0.78622 0.27042 0.17484 0.0
C2801 C 0.78764 0.28277 0.14358 0.0
C2802 C 0.80985 0.27985 0.12141 0.0
C2803 C 0.83026 0.265 0.13113 0.0
C2804 C 0.82887 0.25341 0.16346 0.0
H2805 H 0.90678 0.53084 0.14595 0.0
H2806 H 0.89734 0.46142 0.16495 0.0
H2807 H 0.94063 0.46011 0.19512 0.0
H2808 H 0.98146 0.52859 0.13425 0.0
H2809 H 0.98679 0.55389 0.15751 0.0
H2810 H 0.95635 0.54966 0.13254 0.0
H2811 H 0.92865 0.5582 0.18933 0.0
H2812 H 0.959 0.56262 0.21412 0.0
H2813 H 0.93504 0.54305 0.22998 0.0
H2814 H 0.98358 0.46533 0.22483 0.0
H2815 H 0.02105 0.47852 0.26165 0.0
H2816 H 0.00311 0.54485 0.22896 0.0
C2817 C 0.91407 0.51537 0.15605 0.0
C2818 C 0.89846 0.49625 0.15295 0.0
C2819 C 0.90863 0.47638 0.16705 0.0
C2820 C 0.93345 0.47533 0.18397 0.0
C2821 C 0.94826 0.49428 0.18682 0.0
C2822 C 0.93902 0.51404 0.17374 0.0
C2823 C 0.95833 0.53214 0.18369 0.0
C2824 C 0.9715 0.54163 0.14999 0.0
C2825 C 0.94442 0.55005 0.2056 0.0
C2826 C 0.97864 0.51953 0.20609 0.0
C2827 C 0.97296 0.49757 0.20606 0.0
C2828 C 0.98844 0.48248 0.22493 0.0
C2829 C 0.00981 0.49009 0.24558 0.0
C2830 C 0.01498 0.51263 0.24802 0.0
C2831 C -0.00039 0.52748 0.2273 0.0
H2832 H 0.73485 0.04061 0.50918 0.0
H2833 H 0.76317 0.9739 0.51686 0.0
H2834 H 0.72338 0.96174 0.48275 0.0
H2835 H 0.66126 0.02961 0.50934 0.0
H2836 H 0.65551 0.05079 0.47665 0.0
H2837 H 0.68238 0.0533 0.50865 0.0
H2838 H 0.7157 0.05864 0.45649 0.0
H2839 H 0.68916 0.05588 0.42439 0.0
H2840 H 0.7179 0.03823 0.42196 0.0
H2841 H 0.68591 0.9581 0.43887 0.0
H2842 H 0.65389 0.96279 0.38905 0.0
H2843 H 0.65072 0.0322 0.40875 0.0
C2844 C 0.73234 0.02331 0.5047 0.0
C2845 C 0.75205 1.00814 0.51567 0.0
C2846 C 0.74814 0.98573 0.50905 0.0
C2847 C 0.72562 0.97874 0.48969 0.0
C2848 C 0.70725 0.99437 0.47771 0.0
C2849 C 0.7103 0.0162 0.48529 0.0
C2850 C 0.69013 0.03017 0.46536 0.0
C2851 C 0.67119 0.04164 0.49157 0.0
C2852 C 0.70406 0.04668 0.44059 0.0
C2853 C 0.67573 0.0129 0.4441 0.0
C2854 C 0.68562 0.99232 0.45211 0.0
C2855 C 0.67754 0.974 0.43316 0.0
C2856 C 0.65942 0.97684 0.40493 0.0
C2857 C 0.64961 0.9978 0.39583 0.0
C2858 C 0.65731 0.01598 0.41614 0.0
H2859 H 0.48454 0.23903 0.49842 0.0
H2860 H 0.466 0.3077 0.48494 0.0
H2861 H 0.50561 0.31224 0.44741 0.0
H2862 H 0.55377 0.24325 0.50311 0.0
H2863 H 0.56205 0.21998 0.47594 0.0
H2864 H 0.53104 0.22064 0.50018 0.0
H2865 H 0.50424 0.21454 0.44163 0.0
H2866 H 0.53519 0.21293 0.41741 0.0
H2867 H 0.50984 0.23216 0.40369 0.0
H2868 H 0.55052 0.31163 0.42415 0.0
H2869 H 0.59093 0.30338 0.38981 0.0
H2870 H 0.57865 0.23424 0.40701 0.0
C2871 C 0.48834 0.25474 0.48627 0.0
C2872 C 0.47266 0.27317 0.49497 0.0
C2873 C 0.47814 0.29353 0.47893 0.0
C2874 C 0.50068 0.29633 0.45792 0.0
C2875 C 0.51709 0.27843 0.4524 0.0
C2876 C 0.51064 0.25777 0.46413 0.0
C2877 C 0.53171 0.2414 0.45233 0.0
C2878 C 0.54544 0.23069 0.48484 0.0
C2879 C 0.51952 0.22425 0.42725 0.0
C2880 C 0.55086 0.25633 0.43259 0.0
C2881 C 0.54235 0.2777 0.43468 0.0
C2882 C 0.55715 0.29493 0.42133 0.0
C2883 C 0.5803 0.29011 0.40251 0.0
C2884 C 0.58773 0.26825 0.39593 0.0
C2885 C 0.57349 0.25107 0.41218 0.0
H2886 H 0.7624 0.29342 0.7707 0.0
H2887 H 0.77269 0.2251 0.74612 0.0
H2888 H 0.73494 0.21603 0.78655 0.0
H2889 H 0.73993 0.28817 0.86424 0.0
H2890 H 0.71657 0.31029 0.8583 0.0
H2891 H 0.74716 0.30989 0.83322 0.0
H2892 H 0.71962 0.31335 0.77443 0.0
H2893 H 0.6889 0.31286 0.79909 0.0
H2894 H 0.69471 0.29318 0.7642 0.0
H2895 H 0.69173 0.21589 0.82463 0.0
H2896 H 0.65189 0.22436 0.8619 0.0
H2897 H 0.67035 0.29307 0.85478 0.0
C2898 C 0.75744 0.27646 0.77517 0.0
C2899 C 0.77044 0.25987 0.75623 0.0
C2900 C 0.76318 0.23789 0.76147 0.0
C2901 C 0.74159 0.23269 0.78388 0.0
C2902 C 0.72789 0.24976 0.80041 0.0
C2903 C 0.73596 0.27117 0.79664 0.0
C2904 C 0.71702 0.28691 0.814 0.0
C2905 C 0.731 0.29954 0.84425 0.0
C2906 C 0.70433 0.30247 0.78626 0.0
C2907 C 0.69686 0.27114 0.82831 0.0
C2908 C 0.70315 0.24975 0.8204 0.0
C2909 C 0.68676 0.23258 0.8311 0.0
C2910 C 0.66403 0.23749 0.8517 0.0
C2911 C 0.65824 0.25932 0.86092 0.0
C2912 C 0.67445 0.27622 0.84813 0.0
H2913 H 0.46787 1.00859 0.78225 0.0
H2914 H 0.51421 0.99602 0.68663 0.0
H2915 H 0.55564 1.00464 0.71939 0.0
H2916 H 0.51118 0.05184 0.82174 0.0
H2917 H 0.50725 0.04131 0.86653 0.0
H2918 H 0.4807 0.03834 0.83418 0.0
H2919 H 0.48072 0.99665 0.84436 0.0
H2920 H 0.50699 0.99945 0.8769 0.0
H2921 H 0.51137 0.98153 0.83916 0.0
H2922 H 0.59186 0.01055 0.76276 0.0
H2923 H 0.62107 1.00864 0.81623 0.0
H2924 H 0.55167 0.01591 0.88441 0.0
C2925 C 0.48677 1.00821 0.76827 0.0
C2926 C 0.48821 1.0019 0.73217 0.0
C2927 C 0.51306 1.00087 0.7145 0.0
C2928 C 0.53656 1.00598 0.73268 0.0
C2929 C 0.53475 0.01191 0.76851 0.0
C2930 C 0.51056 0.01279 0.78632 0.0
C2931 C 0.51456 0.01631 0.82602 0.0
C2932 C 0.50273 0.03826 0.83779 0.0
C2933 C 0.50273 0.99735 0.84787 0.0
C2934 C 0.54475 0.01647 0.82773 0.0
C2935 C 0.55599 0.01455 0.79416 0.0
C2936 C 0.58345 0.01244 0.78923 0.0
C2937 C 0.59988 0.01141 0.81963 0.0
C2938 C 0.58852 0.01205 0.85417 0.0
C2939 C 0.56081 0.01546 0.85815 0.0
H2940 H 0.23788 0.04137 0.51659 0.0
H2941 H 0.21523 0.97348 0.51169 0.0
H2942 H 0.2501 0.96453 0.5572 0.0
H2943 H 0.30507 0.033 0.5181 0.0
H2944 H 0.31284 0.05511 0.54802 0.0
H2945 H 0.28354 0.05654 0.52013 0.0
H2946 H 0.25342 0.06221 0.57567 0.0
H2947 H 0.2827 0.06169 0.60378 0.0
H2948 H 0.25554 0.04332 0.61262 0.0
H2949 H 0.29215 0.96322 0.59745 0.0
H2950 H 0.33222 0.97048 0.63533 0.0
H2951 H 0.32583 0.03919 0.61048 0.0
C2952 C 0.23972 0.02471 0.52601 0.0
C2953 C 0.22416 1.00805 0.5111 0.0
C2954 C 0.22698 0.98641 0.52347 0.0
C2955 C 0.24684 0.98123 0.5489 0.0
C2956 C 0.26316 0.998 0.56146 0.0
C2957 C 0.25924 0.01938 0.55092 0.0
C2958 C 0.27998 0.03442 0.56618 0.0
C2959 C 0.29631 0.0454 0.53632 0.0
C2960 C 0.26715 0.0514 0.59106 0.0
C2961 C 0.2966 0.01821 0.58674 0.0
C2962 C 0.28687 0.99723 0.58377 0.0
C2963 C 0.29977 0.9796 0.60013 0.0
C2964 C 0.32261 0.98376 0.62107 0.0
C2965 C 0.33193 1.00531 0.62507 0.0
C2966 C 0.31904 0.02256 0.60732 0.0
H2967 H 0.4194 0.78709 0.59813 0.0
H2968 H 0.4071 0.71811 0.61713 0.0
H2969 H 0.4456 0.70937 0.57945 0.0
H2970 H 0.43917 0.77744 0.50038 0.0
H2971 H 0.46241 0.79976 0.50067 0.0
H2972 H 0.43288 0.80092 0.52803 0.0
H2973 H 0.46276 0.80779 0.5837 0.0
H2974 H 0.49235 0.80589 0.55664 0.0
H2975 H 0.48856 0.7884 0.59511 0.0
H2976 H 0.48871 0.70802 0.5514 0.0
H2977 H 0.52688 0.71195 0.51138 0.0
H2978 H 0.50965 0.78103 0.49945 0.0
C2979 C 0.4242 0.7702 0.59286 0.0
C2980 C 0.41039 0.75319 0.61037 0.0
C2981 C 0.41736 0.73126 0.60355 0.0
C2982 C 0.43941 0.72614 0.5827 0.0
C2983 C 0.45366 0.74314 0.56762 0.0
C2984 C 0.44569 0.76463 0.57042 0.0
C2985 C 0.46414 0.77922 0.54869 0.0
C2986 C 0.44874 0.78997 0.51759 0.0
C2987 C 0.47775 0.79633 0.57249 0.0
C2988 C 0.48416 0.76253 0.53496 0.0
C2989 C 0.4778 0.74199 0.54729 0.0
C2990 C 0.49346 0.72384 0.54037 0.0
C2991 C 0.51519 0.7263 0.51775 0.0
C2992 C 0.52073 0.74663 0.50153 0.0
C2993 C 0.50572 0.76527 0.51134 0.0
H2994 H 0.31827 0.72858 0.14686 0.0
H2995 H 0.34539 0.79551 0.14645 0.0
H2996 H 0.30784 0.80555 0.18693 0.0
H2997 H 0.24974 0.73999 0.14122 0.0
H2998 H 0.24032 0.71754 0.16962 0.0
H2999 H 0.2702 0.7158 0.14317 0.0
H3000 H 0.29866 0.70798 0.20019 0.0
H3001 H 0.26872 0.70884 0.22651 0.0
H3002 H 0.29638 0.72621 0.23787 0.0
H3003 H 0.26583 0.80726 0.22735 0.0
H3004 H 0.22794 0.79957 0.26838 0.0
H3005 H 0.22873 0.73213 0.2352 0.0
C3006 C 0.31654 0.74536 0.15556 0.0
C3007 C 0.33446 0.76134 0.14372 0.0
C3008 C 0.33184 0.78305 0.15577 0.0
C3009 C 0.31044 0.78889 0.17823 0.0
C3010 C 0.2922 0.77274 0.18784 0.0
C3011 C 0.29544 0.75138 0.1771 0.0
C3012 C 0.27363 0.7368 0.19043 0.0
C3013 C 0.25753 0.72697 0.15924 0.0
C3014 C 0.28502 0.71892 0.21523 0.0
C3015 C 0.25738 0.75316 0.21074 0.0
C3016 C 0.26811 0.77388 0.2091 0.0
C3017 C 0.2571 0.79119 0.22835 0.0
C3018 C 0.23546 0.7868 0.25112 0.0
C3019 C 0.22543 0.7654 0.25392 0.0
C3020 C 0.2358 0.74872 0.23253 0.0
H3021 H 0.50861 0.98801 0.24614 0.0
H3022 H 0.52158 0.05662 0.22704 0.0
H3023 H 0.48664 0.05661 0.18013 0.0
H3024 H 0.48704 0.97272 0.15086 0.0
H3025 H 0.46222 0.95444 0.16841 0.0
H3026 H 0.49308 0.95852 0.19246 0.0
H3027 H 0.46615 0.96906 0.24898 0.0
H3028 H 0.43527 0.96568 0.22515 0.0
H3029 H 0.4426 0.99128 0.2465 0.0
H3030 H 0.44448 0.0509 0.1451 0.0
H3031 H 0.40035 0.03926 0.12215 0.0
H3032 H 0.41415 0.97478 0.16662 0.0
C3033 C 0.50503 1.00262 0.23051 0.0
C3034 C 0.5179 0.02216 0.23925 0.0
C3035 C 0.51206 0.04142 0.21987 0.0
C3036 C 0.49226 0.04156 0.1933 0.0
C3037 C 0.47856 0.02229 0.1867 0.0
C3038 C 0.48497 1.00307 0.20438 0.0
C3039 C 0.46472 0.98555 0.19668 0.0
C3040 C 0.47753 0.96669 0.17585 0.0
C3041 C 0.45141 0.97744 0.23138 0.0
C3042 C 0.44529 0.99816 0.17348 0.0
C3043 C 0.45377 0.01919 0.16738 0.0
C3044 C 0.43792 0.0343 0.14897 0.0
C3045 C 0.41283 0.0276 0.13627 0.0
C3046 C 0.40379 1.00612 0.14262 0.0
C3047 C 0.42045 0.9913 0.16121 0.0
H3048 H 0.64551 0.48808 0.93567 0.0
H3049 H 0.66285 0.53788 0.85663 0.0
H3050 H 0.70582 0.54508 0.88622 0.0
H3051 H 0.67702 0.51883 0.01316 0.0
H3052 H 0.68895 0.49404 0.03378 0.0
H3053 H 0.65859 0.49389 0.00774 0.0
H3054 H 0.67837 0.46292 0.96889 0.0
H3055 H 0.70918 0.46365 0.99391 0.0
H3056 H 0.70948 0.4672 0.94595 0.0
H3057 H 0.74906 0.54069 0.91339 0.0
H3058 H 0.78666 0.53835 0.95471 0.0
H3059 H 0.74084 0.49675 0.0259 0.0
C3060 C 0.65779 0.5013 0.92601 0.0
C3061 C 0.65092 0.51277 0.89436 0.0
C3062 C 0.66766 0.5294 0.88137 0.0
C3063 C 0.69226 0.53328 0.89755 0.0
C3064 C 0.69928 0.5208 0.92727 0.0
C3065 C 0.68218 0.50604 0.94282 0.0
C3066 C 0.69502 0.49561 0.97577 0.0
C3067 C 0.67895 0.50092 0.00964 0.0
C3068 C 0.69819 0.47087 0.97082 0.0
C3069 C 0.72203 0.50687 0.9759 0.0
C3070 C 0.72405 0.52045 0.94641 0.0
C3071 C 0.74739 0.53106 0.9376 0.0
C3072 C 0.76863 0.52953 0.96129 0.0
C3073 C 0.76614 0.51836 0.99439 0.0
C3074 C 0.74301 0.50586 1.00122 0.0
H3075 H 0.58763 0.78593 0.91647 0.0
H3076 H 0.57708 0.72121 0.87335 0.0
H3077 H 0.53746 0.71595 0.91233 0.0
H3078 H 0.564 0.7761 0.00834 0.0
H3079 H 0.54771 0.80231 0.00954 0.0
H3080 H 0.5773 0.79859 0.98304 0.0
H3081 H 0.55138 0.81294 0.92735 0.0
H3082 H 0.52146 0.81591 0.95332 0.0
H3083 H 0.52122 0.79941 0.91344 0.0
H3084 H 0.49606 0.72008 0.9524 0.0
H3085 H 0.45983 0.73182 0.99335 0.0
H3086 H 0.49784 0.79491 0.00406 0.0
C3087 C 0.57772 0.77027 0.91669 0.0
C3088 C 0.5856 0.75364 0.89335 0.0
C3089 C 0.57161 0.73373 0.89241 0.0
C3090 C 0.54899 0.73078 0.91399 0.0
C3091 C 0.54086 0.74805 0.93566 0.0
C3092 C 0.55508 0.76731 0.93731 0.0
C3093 C 0.54128 0.78424 0.95968 0.0
C3094 C 0.55859 0.79067 0.99208 0.0
C3095 C 0.53337 0.80429 0.93708 0.0
C3096 C 0.51713 0.77153 0.97083 0.0
C3097 C 0.51695 0.75073 0.95684 0.0
C3098 C 0.49615 0.73628 0.96374 0.0
C3099 C 0.47559 0.74312 0.98671 0.0
C3100 C 0.47622 0.76418 0.00212 0.0
C3101 C 0.49689 0.77861 0.9931 0.0
H3102 H 0.64454 0.76327 0.32242 0.0
H3103 H 0.68895 0.74891 0.41952 0.0
H3104 H 0.7296 0.74249 0.38418 0.0
H3105 H 0.68382 0.7244 0.2617 0.0
H3106 H 0.682 0.74351 0.22504 0.0
H3107 H 0.65511 0.74194 0.25688 0.0
H3108 H 0.65977 0.78329 0.26917 0.0
H3109 H 0.68679 0.78491 0.23785 0.0
H3110 H 0.69159 0.79391 0.28337 0.0
H3111 H 0.76698 0.7439 0.34014 0.0
H3112 H 0.79751 0.75228 0.28981 0.0
H3113 H 0.72901 0.76617 0.22192 0.0
C3114 C 0.66252 0.75771 0.33585 0.0
C3115 C 0.66363 0.75624 0.37347 0.0
C3116 C 0.68774 0.74984 0.39054 0.0
C3117 C 0.71093 0.74613 0.37074 0.0
C3118 C 0.70966 0.74871 0.33377 0.0
C3119 C 0.686 0.75405 0.31635 0.0
C3120 C 0.69081 0.75839 0.277 0.0
C3121 C 0.67712 0.74102 0.25379 0.0
C3122 C 0.68172 0.78149 0.26626 0.0
C3123 C 0.72087 0.75604 0.27569 0.0
C3124 C 0.7314 0.74992 0.30842 0.0
C3125 C 0.75894 0.74824 0.31412 0.0
C3126 C 0.77614 0.75309 0.28555 0.0
C3127 C 0.76561 0.75999 0.25221 0.0
C3128 C 0.73766 0.76101 0.24722 0.0
H3129 H 0.48796 0.5396 0.25827 0.0
H3130 H 0.45317 0.47614 0.27707 0.0
H3131 H 0.48858 0.46771 0.32068 0.0
H3132 H 0.55067 0.52762 0.259 0.0
H3133 H 0.56468 0.54921 0.28569 0.0
H3134 H 0.53363 0.55345 0.2623 0.0
H3135 H 0.50917 0.56338 0.321 0.0
H3136 H 0.54054 0.56074 0.34448 0.0
H3137 H 0.51191 0.54552 0.35925 0.0
H3138 H 0.53436 0.4614 0.33909 0.0
H3139 H 0.57852 0.46298 0.36713 0.0
H3140 H 0.5807 0.53303 0.35107 0.0
C3141 C 0.48682 0.52469 0.27372 0.0
C3142 C 0.46828 0.5084 0.26472 0.0
C3143 C 0.4673 0.48875 0.28428 0.0
C3144 C 0.48748 0.48372 0.30859 0.0
C3145 C 0.50729 0.49913 0.31407 0.0
C3146 C 0.50613 0.51985 0.29969 0.0
C3147 C 0.53054 0.53297 0.31034 0.0
C3148 C 0.54576 0.54129 0.27735 0.0
C3149 C 0.52257 0.55177 0.33527 0.0
C3150 C 0.54643 0.51569 0.3302 0.0
C3151 C 0.53278 0.49617 0.33055 0.0
C3152 C 0.54456 0.47683 0.34146 0.0
C3153 C 0.56983 0.47788 0.35656 0.0
C3154 C 0.58225 0.49825 0.36258 0.0
C3155 C 0.57128 0.51735 0.34742 0.0
H3156 H 0.32626 0.54108 0.1012 0.0
H3157 H 0.34719 0.47263 0.10341 0.0
H3158 H 0.31031 0.46492 0.06033 0.0
H3159 H 0.25853 0.53288 0.10574 0.0
H3160 H 0.2496 0.55584 0.07798 0.0
H3161 H 0.28003 0.55631 0.10369 0.0
H3162 H 0.30781 0.56331 0.04619 0.0
H3163 H 0.27732 0.56383 0.02057 0.0
H3164 H 0.30388 0.54549 0.0082 0.0
H3165 H 0.26751 0.46515 0.02192 0.0
H3166 H 0.22725 0.47399 0.98536 0.0
H3167 H 0.23504 0.54197 0.01421 0.0
C3168 C 0.32367 0.52458 0.09149 0.0
C3169 C 0.3394 0.50744 0.10476 0.0
C3170 C 0.33541 0.48594 0.09256 0.0
C3171 C 0.3144 0.48145 0.06863 0.0
C3172 C 0.29799 0.49872 0.05783 0.0
C3173 C 0.30281 0.51989 0.06854 0.0
C3174 C 0.28158 0.53548 0.05596 0.0
C3175 C 0.26657 0.54572 0.08774 0.0
C3176 C 0.29335 0.55305 0.03123 0.0
C3177 C 0.26409 0.51993 0.03584 0.0
C3178 C 0.27349 0.49873 0.03732 0.0
C3179 C 0.26007 0.48169 0.02049 0.0
C3180 C 0.23716 0.48676 1.00029 0.0
C3181 C 0.22844 0.50861 0.99737 0.0
C3182 C 0.24153 0.52515 0.01621 0.0
H3183 H 0.40908 0.23063 0.09299 0.0
H3184 H 0.41035 0.29871 0.12245 0.0
H3185 H 0.44801 0.30491 0.08045 0.0
H3186 H 0.47704 0.22357 0.09291 0.0
H3187 H 0.47787 0.20474 0.05593 0.0
H3188 H 0.44864 0.20654 0.08355 0.0
H3189 H 0.41908 0.21483 0.02781 0.0
H3190 H 0.44811 0.2123 0.99986 0.0
H3191 H 0.42815 0.23675 0.9981 0.0
H3192 H 0.48884 0.30201 0.03916 0.0
H3193 H 0.52541 0.29117 0.99809 0.0
H3194 H 0.49686 0.22454 1.00063 0.0
C3195 C 0.41658 0.24701 0.0893 0.0
C3196 C 0.40664 0.26436 0.10967 0.0
C3197 C 0.41742 0.28546 0.10583 0.0
C3198 C 0.43891 0.28901 0.08248 0.0
C3199 C 0.44913 0.2712 0.06373 0.0
C3200 C 0.43796 0.25069 0.06663 0.0
C3201 C 0.45342 0.23384 0.04608 0.0
C3202 C 0.46491 0.21615 0.07113 0.0
C3203 C 0.43617 0.22386 0.01618 0.0
C3204 C 0.47515 0.24796 0.0311 0.0
C3205 C 0.47258 0.26945 0.04141 0.0
C3206 C 0.49086 0.28525 0.03069 0.0
C3207 C 0.51166 0.27893 0.00772 0.0
C3208 C 0.51376 0.25706 0.99604 0.0
C3209 C 0.49565 0.24143 0.00878 0.0
H3210 H 0.33144 0.22912 0.65634 0.0
H3211 H 0.33665 0.29745 0.62905 0.0
H3212 H 0.29839 0.30542 0.6695 0.0
H3213 H 0.26322 0.22634 0.65173 0.0
H3214 H 0.2597 0.20692 0.68765 0.0
H3215 H 0.28987 0.20746 0.66175 0.0
H3216 H 0.31843 0.21297 0.71926 0.0
H3217 H 0.28846 0.21144 0.74551 0.0
H3218 H 0.31008 0.23469 0.74969 0.0
H3219 H 0.25618 0.30424 0.7104 0.0
H3220 H 0.21893 0.2946 0.75152 0.0
H3221 H 0.24158 0.22661 0.74428 0.0
C3222 C 0.32515 0.24588 0.66004 0.0
C3223 C 0.33703 0.26276 0.64062 0.0
C3224 C 0.32801 0.28445 0.64482 0.0
C3225 C 0.30616 0.28901 0.66726 0.0
C3226 C 0.29381 0.2716 0.68467 0.0
C3227 C 0.3034 0.25052 0.6815 0.0
C3228 C 0.2861 0.23424 0.7003 0.0
C3229 C 0.27402 0.21778 0.67376 0.0
C3230 C 0.30169 0.22267 0.73049 0.0
C3231 C 0.26511 0.24928 0.71481 0.0
C3232 C 0.26958 0.27081 0.70582 0.0
C3233 C 0.25257 0.28742 0.71753 0.0
C3234 C 0.23131 0.28183 0.74036 0.0
C3235 C 0.22758 0.25989 0.75076 0.0
C3236 C 0.24406 0.24352 0.73664 0.0
H3237 H 0.48973 0.54699 0.75646 0.0
H3238 H 0.53897 0.493 0.72061 0.0
H3239 H 0.50923 0.48851 0.6679 0.0
H3240 H 0.43023 0.52336 0.73954 0.0
H3241 H 0.4133 0.54799 0.72593 0.0
H3242 H 0.44122 0.54941 0.75604 0.0
H3243 H 0.46491 0.57607 0.71264 0.0
H3244 H 0.437 0.57457 0.68211 0.0
H3245 H 0.47015 0.56826 0.66664 0.0
H3246 H 0.47078 0.48689 0.6245 0.0
H3247 H 0.42554 0.48596 0.59786 0.0
H3248 H 0.4017 0.54043 0.66376 0.0
C3249 C 0.49478 0.53449 0.73721 0.0
C3250 C 0.51671 0.52035 0.74261 0.0
C3251 C 0.52225 0.50403 0.71695 0.0
C3252 C 0.50562 0.5015 0.68683 0.0
C3253 C 0.48383 0.51557 0.68279 0.0
C3254 C 0.47845 0.53172 0.70743 0.0
C3255 C 0.4521 0.5429 0.70007 0.0
C3256 C 0.43311 0.54076 0.73228 0.0
C3257 C 0.4563 0.56688 0.68974 0.0
C3258 C 0.44264 0.52981 0.66837 0.0
C3259 C 0.46155 0.51454 0.65805 0.0
C3260 C 0.45619 0.49914 0.63167 0.0
C3261 C 0.43057 0.49881 0.61654 0.0
C3262 C 0.41078 0.51362 0.62818 0.0
C3263 C 0.41702 0.52964 0.65356 0.0
loop_
_geom_bond_atom_site_label_1
_geom_bond_atom_site_label_2
_geom_bond_distance
_geom_bond_site_symmetry_2
_ccdc_geom_bond_type
O0 Mn1 2.163 . S
O0 C14 1.252 . S
Mn1 O0 2.163 . S
Mn1 O4 2.160 1_545 S
Mn1 O5 2.221 . S
Mn1 O7 2.163 1_545 S
Mn1 O9 2.160 . S
Mn1 O19 2.221 1_545 S
O2 Mn3 2.087 . S
O2 C14 1.238 1_565 S
Mn3 O2 2.087 . S
Mn3 O10 2.089 . S
Mn3 O19 2.290 . S
Mn3 O20 2.251 . S
O4 Mn1 2.160 1_565 S
O4 C15 1.239 1_565 S
O5 Mn1 2.221 . S
O5 Mn6 2.290 . S
O5 C16 1.278 . S
Mn6 O5 2.290 . S
Mn6 O8 2.089 1_554 S
Mn6 O11 2.251 . S
Mn6 O12 2.087 1_554 S
O7 Mn1 2.163 1_565 S
O7 C17 1.244 1_564 S
O8 Mn6 2.089 1_556 S
O8 C15 1.256 1_556 S
O9 Mn1 2.160 . S
O9 C18 1.239 1_545 S
O10 Mn3 2.089 . S
O10 C18 1.256 . S
O11 Mn6 2.251 . S
O11 C16 1.241 . S
O12 Mn6 2.087 1_556 S
O12 C17 1.256 . S
C13 O19 1.278 . S
C13 O20 1.241 . S
C14 O0 1.252 . S
C14 O2 1.238 1_545 S
C15 O4 1.239 1_545 S
C15 O8 1.256 1_554 S
C16 O5 1.278 . S
C16 O11 1.241 . S
C17 O7 1.244 1_546 S
C17 O12 1.256 . S
C18 O9 1.239 1_565 S
C18 O10 1.256 . S
O19 Mn1 2.221 1_565 S
O19 Mn3 2.290 . S
O19 C13 1.278 . S
O20 Mn3 2.251 . S
O20 C13 1.241 . S
O21 Mn22 2.163 . S
O21 C35 1.244 . S
Mn22 O21 2.163 . S
Mn22 O25 2.160 . S
Mn22 O26 2.221 . S
Mn22 O28 2.163 . S
Mn22 O30 2.160 . S
Mn22 O40 2.221 . S
O23 Mn24 2.087 . S
O23 C35 1.256 . S
Mn24 O23 2.087 . S
Mn24 O31 2.089 . S
Mn24 O40 2.290 . S
Mn24 O41 2.251 1_554 S
O25 Mn22 2.160 . S
O25 C36 1.239 . S
O26 Mn22 2.221 . S
O26 Mn27 2.290 . S
O26 C37 1.278 . S
Mn27 O26 2.290 . S
Mn27 O29 2.089 . S
Mn27 O32 2.251 . S
Mn27 O33 2.087 . S
O28 Mn22 2.163 . S
O28 C38 1.244 . S
O29 Mn27 2.089 . S
O29 C36 1.256 . S
O30 Mn22 2.160 . S
O30 C39 1.239 . S
O31 Mn24 2.089 . S
O31 C39 1.256 . S
O32 Mn27 2.251 . S
O32 C37 1.241 . S
O33 Mn27 2.087 . S
O33 C38 1.256 . S
C34 O40 1.278 1_556 S
C34 O41 1.241 . S
C35 O21 1.244 . S
C35 O23 1.256 . S
C36 O25 1.239 . S
C36 O29 1.256 . S
C37 O26 1.278 . S
C37 O32 1.241 . S
C38 O28 1.244 . S
C38 O33 1.256 . S
C39 O30 1.239 . S
C39 O31 1.256 . S
O40 Mn22 2.221 . S
O40 Mn24 2.290 . S
O40 C34 1.278 1_554 S
O41 Mn24 2.251 1_556 S
O41 C34 1.241 . S
O42 Mn43 2.163 . S
O42 C56 1.244 . S
Mn43 O42 2.163 . S
Mn43 O46 2.160 . S
Mn43 O47 2.221 . S
Mn43 O49 2.163 . S
Mn43 O51 2.160 . S
Mn43 O61 2.221 . S
O44 Mn45 2.087 . S
O44 C56 1.256 . S
Mn45 O44 2.087 . S
Mn45 O52 2.089 . S
Mn45 O61 2.290 . S
Mn45 O62 2.251 . S
O46 Mn43 2.160 . S
O46 C57 1.239 . S
O47 Mn43 2.221 . S
O47 Mn48 2.290 . S
O47 C58 1.278 . S
Mn48 O47 2.290 . S
Mn48 O50 2.089 . S
Mn48 O53 2.251 . S
Mn48 O54 2.087 . S
O49 Mn43 2.163 . S
O49 C59 1.244 . S
O50 Mn48 2.089 . S
O50 C57 1.256 . S
O51 Mn43 2.160 . S
O51 C60 1.239 . S
O52 Mn45 2.089 . S
O52 C60 1.256 . S
O53 Mn48 2.251 . S
O53 C58 1.241 . S
O54 Mn48 2.087 . S
O54 C59 1.256 . S
C55 O61 1.278 . S
C55 O62 1.241 . S
C56 O42 1.244 . S
C56 O44 1.256 . S
C57 O46 1.239 . S
C57 O50 1.256 . S
C58 O47 1.278 . S
C58 O53 1.241 . S
C59 O49 1.244 . S
C59 O54 1.256 . S
C60 O51 1.239 . S
C60 O52 1.256 . S
O61 Mn43 2.221 . S
O61 Mn45 2.290 . S
O61 C55 1.278 . S
O62 Mn45 2.251 . S
O62 C55 1.241 . S
O63 Mn64 2.163 1_545 S
O63 C77 1.244 . S
Mn64 O63 2.163 1_565 S
Mn64 O67 2.160 . S
Mn64 O68 2.221 . S
Mn64 O70 2.163 . S
Mn64 O72 2.160 . S
Mn64 O82 2.221 1_565 S
O65 Mn66 2.087 . S
O65 C77 1.256 . S
Mn66 O65 2.087 . S
Mn66 O73 2.089 . S
Mn66 O82 2.290 . S
Mn66 O83 2.251 . S
O67 Mn64 2.160 . S
O67 C78 1.239 . S
O68 Mn64 2.221 . S
O68 Mn69 2.290 . S
O68 C79 1.278 . S
Mn69 O68 2.290 . S
Mn69 O71 2.089 . S
Mn69 O74 2.251 . S
Mn69 O75 2.087 . S
O70 Mn64 2.163 . S
O70 C80 1.244 . S
O71 Mn69 2.089 . S
O71 C78 1.256 . S
O72 Mn64 2.160 . S
O72 C81 1.239 1_565 S
O73 Mn66 2.089 . S
O73 C81 1.256 . S
O74 Mn69 2.251 . S
O74 C79 1.241 . S
O75 Mn69 2.087 . S
O75 C80 1.256 . S
C76 O82 1.278 . S
C76 O83 1.241 . S
C77 O63 1.244 . S
C77 O65 1.256 . S
C78 O67 1.239 . S
C78 O71 1.256 . S
C79 O68 1.278 . S
C79 O74 1.241 . S
C80 O70 1.244 . S
C80 O75 1.256 . S
C81 O72 1.239 1_545 S
C81 O73 1.256 . S
O82 Mn64 2.221 1_545 S
O82 Mn66 2.290 . S
O82 C76 1.278 . S
O83 Mn66 2.251 . S
O83 C76 1.241 . S
O84 Mn85 2.168 1_565 S
O84 C98 1.244 . S
Mn85 O84 2.168 1_545 S
Mn85 O88 2.155 . S
Mn85 O89 2.220 . S
Mn85 O91 2.163 1_545 S
Mn85 O93 2.159 . S
Mn85 O103 2.222 1_545 S
O86 Mn87 2.087 . S
O86 C98 1.256 . S
Mn87 O86 2.087 . S
Mn87 O94 2.089 . S
Mn87 O103 2.290 . S
Mn87 O104 2.251 1_556 S
O88 Mn85 2.155 . S
O88 C99 1.239 . S
O89 Mn85 2.220 . S
O89 Mn90 2.290 . S
O89 C100 1.278 . S
Mn90 O89 2.290 . S
Mn90 O92 2.089 . S
Mn90 O95 2.251 . S
Mn90 O96 2.087 . S
O91 Mn85 2.163 1_565 S
O91 C101 1.241 1_565 S
O92 Mn90 2.089 . S
O92 C99 1.256 . S
O93 Mn85 2.159 . S
O93 C102 1.208 1_545 S
O94 Mn87 2.089 . S
O94 C102 1.256 . S
O95 Mn90 2.251 . S
O95 C100 1.241 . S
O96 Mn90 2.087 . S
O96 C101 1.256 . S
C97 O103 1.278 1_554 S
C97 O104 1.241 . S
C98 O84 1.244 . S
C98 O86 1.256 . S
C99 O88 1.239 . S
C99 O92 1.256 . S
C100 O89 1.278 . S
C100 O95 1.241 . S
C101 O91 1.241 1_545 S
C101 O96 1.256 . S
C102 O93 1.208 1_565 S
C102 O94 1.256 . S
O103 Mn85 2.222 1_565 S
O103 Mn87 2.290 . S
O103 C97 1.278 1_556 S
O104 Mn87 2.251 1_554 S
O104 C97 1.241 . S
O105 Mn106 2.163 . S
O105 C119 1.244 . S
Mn106 O105 2.163 . S
Mn106 O109 2.160 . S
Mn106 O110 2.221 . S
Mn106 O112 2.163 . S
Mn106 O114 2.160 . S
Mn106 O124 2.221 . S
O107 Mn108 2.087 . S
O107 C119 1.256 . S
Mn108 O107 2.087 . S
Mn108 O115 2.089 . S
Mn108 O124 2.290 . S
Mn108 O125 2.251 1_556 S
O109 Mn106 2.160 . S
O109 C120 1.239 . S
O110 Mn106 2.221 . S
O110 Mn111 2.290 . S
O110 C121 1.278 . S
Mn111 O110 2.290 . S
Mn111 O113 2.089 . S
Mn111 O116 2.251 . S
Mn111 O117 2.087 . S
O112 Mn106 2.163 . S
O112 C122 1.244 . S
O113 Mn111 2.089 . S
O113 C120 1.256 . S
O114 Mn106 2.160 . S
O114 C123 1.239 . S
O115 Mn108 2.089 . S
O115 C123 1.256 . S
O116 Mn111 2.251 . S
O116 C121 1.241 . S
O117 Mn111 2.087 . S
O117 C122 1.256 . S
C118 O124 1.278 1_554 S
C118 O125 1.241 . S
C119 O105 1.244 . S
C119 O107 1.256 . S
C120 O109 1.239 . S
C120 O113 1.256 . S
C121 O110 1.278 . S
C121 O116 1.241 . S
C122 O112 1.244 . S
C122 O117 1.256 . S
C123 O114 1.239 . S
C123 O115 1.256 . S
O124 Mn106 2.221 . S
O124 Mn108 2.290 . S
O124 C118 1.278 1_556 S
O125 Mn108 2.251 1_554 S
O125 C118 1.241 . S
O126 Mn127 2.163 . S
O126 C140 1.244 . S
Mn127 O126 2.163 . S
Mn127 O130 2.160 . S
Mn127 O131 2.221 . S
Mn127 O133 2.163 . S
Mn127 O135 2.160 . S
Mn127 O145 2.221 . S
O128 Mn129 2.087 . S
O128 C140 1.256 . S
Mn129 O128 2.087 . S
Mn129 O136 2.089 . S
Mn129 O145 2.290 . S
Mn129 O146 2.251 . S
O130 Mn127 2.160 . S
O130 C141 1.239 . S
O131 Mn127 2.221 . S
O131 Mn132 2.290 . S
O131 C142 1.278 . S
Mn132 O131 2.290 . S
Mn132 O134 2.089 . S
Mn132 O137 2.251 . S
Mn132 O138 2.087 . S
O133 Mn127 2.163 . S
O133 C143 1.244 . S
O134 Mn132 2.089 . S
O134 C141 1.256 . S
O135 Mn127 2.160 . S
O135 C144 1.239 . S
O136 Mn129 2.089 . S
O136 C144 1.256 . S
O137 Mn132 2.251 . S
O137 C142 1.241 . S
O138 Mn132 2.087 . S
O138 C143 1.256 . S
C139 O145 1.278 . S
C139 O146 1.241 . S
C140 O126 1.244 . S
C140 O128 1.256 . S
C141 O130 1.239 . S
C141 O134 1.256 . S
C142 O131 1.278 . S
C142 O137 1.241 . S
C143 O133 1.244 . S
C143 O138 1.256 . S
C144 O135 1.239 . S
C144 O136 1.256 . S
O145 Mn127 2.221 . S
O145 Mn129 2.290 . S
O145 C139 1.278 . S
O146 Mn129 2.251 . S
O146 C139 1.241 . S
O147 Mn148 2.163 1_565 S
O147 C161 1.244 . S
Mn148 O147 2.163 1_545 S
Mn148 O151 2.160 . S
Mn148 O152 2.221 . S
Mn148 O154 2.163 . S
Mn148 O156 2.160 . S
Mn148 O166 2.221 1_545 S
O149 Mn150 2.087 . S
O149 C161 1.256 . S
Mn150 O149 2.087 . S
Mn150 O157 2.089 . S
Mn150 O166 2.290 . S
Mn150 O167 2.251 . S
O151 Mn148 2.160 . S
O151 C162 1.239 . S
O152 Mn148 2.221 . S
O152 Mn153 2.290 . S
O152 C163 1.278 . S
Mn153 O152 2.290 . S
Mn153 O155 2.089 . S
Mn153 O158 2.251 . S
Mn153 O159 2.087 . S
O154 Mn148 2.163 . S
O154 C164 1.244 . S
O155 Mn153 2.089 . S
O155 C162 1.256 . S
O156 Mn148 2.160 . S
O156 C165 1.239 1_545 S
O157 Mn150 2.089 . S
O157 C165 1.256 . S
O158 Mn153 2.251 . S
O158 C163 1.241 . S
O159 Mn153 2.087 . S
O159 C164 1.256 . S
C160 O166 1.278 . S
C160 O167 1.241 . S
C161 O147 1.244 . S
C161 O149 1.256 . S
C162 O151 1.239 . S
C162 O155 1.256 . S
C163 O152 1.278 . S
C163 O158 1.241 . S
C164 O154 1.244 . S
C164 O159 1.256 . S
C165 O156 1.239 1_565 S
C165 O157 1.256 . S
O166 Mn148 2.221 1_565 S
O166 Mn150 2.290 . S
O166 C160 1.278 . S
O167 Mn150 2.251 . S
O167 C160 1.241 . S
O168 Mn169 2.163 . S
O168 C182 1.244 . S
Mn169 O168 2.163 . S
Mn169 O172 2.160 . S
Mn169 O173 2.221 . S
Mn169 O175 2.163 . S
Mn169 O177 2.160 . S
Mn169 O187 2.221 . S
O170 Mn171 2.087 . S
O170 C182 1.256 . S
Mn171 O170 2.087 . S
Mn171 O178 2.089 . S
Mn171 O187 2.290 . S
Mn171 O188 2.251 . S
O172 Mn169 2.160 . S
O172 C183 1.239 . S
O173 Mn169 2.221 . S
O173 Mn174 2.290 . S
O173 C184 1.278 . S
Mn174 O173 2.290 . S
Mn174 O176 2.089 . S
Mn174 O179 2.251 . S
Mn174 O180 2.087 . S
O175 Mn169 2.163 . S
O175 C185 1.244 . S
O176 Mn174 2.089 . S
O176 C183 1.256 . S
O177 Mn169 2.160 . S
O177 C186 1.239 . S
O178 Mn171 2.089 . S
O178 C186 1.256 . S
O179 Mn174 2.251 . S
O179 C184 1.241 . S
O180 Mn174 2.087 . S
O180 C185 1.256 . S
C181 O187 1.278 . S
C181 O188 1.241 . S
C182 O168 1.244 . S
C182 O170 1.256 . S
C183 O172 1.239 . S
C183 O176 1.256 . S
C184 O173 1.278 . S
C184 O179 1.241 . S
C185 O175 1.244 . S
C185 O180 1.256 . S
C186 O177 1.239 . S
C186 O178 1.256 . S
O187 Mn169 2.221 . S
O187 Mn171 2.290 . S
O187 C181 1.278 . S
O188 Mn171 2.251 . S
O188 C181 1.241 . S
O189 Mn190 2.163 . S
O189 C203 1.244 . S
Mn190 O189 2.163 . S
Mn190 O193 2.160 . S
Mn190 O194 2.221 . S
Mn190 O196 2.163 . S
Mn190 O198 2.160 . S
Mn190 O208 2.221 . S
O191 Mn192 2.087 . S
O191 C203 1.256 . S
Mn192 O191 2.087 . S
Mn192 O199 2.089 . S
Mn192 O208 2.290 . S
Mn192 O209 2.251 . S
O193 Mn190 2.160 . S
O193 C204 1.239 . S
O194 Mn190 2.221 . S
O194 Mn195 2.290 . S
O194 C205 1.278 . S
Mn195 O194 2.290 . S
Mn195 O197 2.089 . S
Mn195 O200 2.251 . S
Mn195 O201 2.087 . S
O196 Mn190 2.163 . S
O196 C206 1.244 . S
O197 Mn195 2.089 . S
O197 C204 1.256 . S
O198 Mn190 2.160 . S
O198 C207 1.239 . S
O199 Mn192 2.089 . S
O199 C207 1.256 . S
O200 Mn195 2.251 . S
O200 C205 1.241 . S
O201 Mn195 2.087 . S
O201 C206 1.256 . S
C202 O208 1.278 . S
C202 O209 1.241 . S
C203 O189 1.244 . S
C203 O191 1.256 . S
C204 O193 1.239 . S
C204 O197 1.256 . S
C205 O194 1.278 . S
C205 O200 1.241 . S
C206 O196 1.244 . S
C206 O201 1.256 . S
C207 O198 1.239 . S
C207 O199 1.256 . S
O208 Mn190 2.221 . S
O208 Mn192 2.290 . S
O208 C202 1.278 . S
O209 Mn192 2.251 . S
O209 C202 1.241 . S
O210 Mn211 2.163 . S
O210 C224 1.244 . S
Mn211 O210 2.163 . S
Mn211 O214 2.160 . S
Mn211 O215 2.221 . S
Mn211 O217 2.163 . S
Mn211 O219 2.160 . S
Mn211 O229 2.221 . S
O212 Mn213 2.087 . S
O212 C224 1.256 . S
Mn213 O212 2.087 . S
Mn213 O220 2.089 . S
Mn213 O229 2.290 . S
Mn213 O230 2.251 . S
O214 Mn211 2.160 . S
O214 C225 1.239 . S
O215 Mn211 2.221 . S
O215 Mn216 2.290 . S
O215 C226 1.278 . S
Mn216 O215 2.290 . S
Mn216 O218 2.089 . S
Mn216 O221 2.251 . S
Mn216 O222 2.087 . S
O217 Mn211 2.163 . S
O217 C227 1.244 . S
O218 Mn216 2.089 . S
O218 C225 1.256 . S
O219 Mn211 2.160 . S
O219 C228 1.239 . S
O220 Mn213 2.089 . S
O220 C228 1.256 . S
O221 Mn216 2.251 . S
O221 C226 1.241 . S
O222 Mn216 2.087 . S
O222 C227 1.256 . S
C223 O229 1.278 . S
C223 O230 1.241 . S
C224 O210 1.244 . S
C224 O212 1.256 . S
C225 O214 1.239 . S
C225 O218 1.256 . S
C226 O215 1.278 . S
C226 O221 1.241 . S
C227 O217 1.244 . S
C227 O222 1.256 . S
C228 O219 1.239 . S
C228 O220 1.256 . S
O229 Mn211 2.221 . S
O229 Mn213 2.290 . S
O229 C223 1.278 . S
O230 Mn213 2.251 . S
O230 C223 1.241 . S
O231 Mn232 2.163 . S
O231 C245 1.244 . S
Mn232 O231 2.163 . S
Mn232 O235 2.160 . S
Mn232 O236 2.221 . S
Mn232 O238 2.163 . S
Mn232 O240 2.160 . S
Mn232 O250 2.221 . S
O233 Mn234 2.087 . S
O233 C245 1.256 . S
Mn234 O233 2.087 . S
Mn234 O241 2.089 . S
Mn234 O250 2.290 . S
Mn234 O251 2.251 . S
O235 Mn232 2.160 . S
O235 C246 1.239 . S
O236 Mn232 2.221 . S
O236 Mn237 2.290 . S
O236 C247 1.278 . S
Mn237 O236 2.290 . S
Mn237 O239 2.089 . S
Mn237 O242 2.251 . S
Mn237 O243 2.087 . S
O238 Mn232 2.163 . S
O238 C248 1.244 . S
O239 Mn237 2.089 . S
O239 C246 1.256 . S
O240 Mn232 2.160 . S
O240 C249 1.239 . S
O241 Mn234 2.089 . S
O241 C249 1.256 . S
O242 Mn237 2.251 . S
O242 C247 1.241 . S
O243 Mn237 2.087 . S
O243 C248 1.256 . S
C244 O250 1.278 . S
C244 O251 1.241 . S
C245 O231 1.244 . S
C245 O233 1.256 . S
C246 O235 1.239 . S
C246 O239 1.256 . S
C247 O236 1.278 . S
C247 O242 1.241 . S
C248 O238 1.244 . S
C248 O243 1.256 . S
C249 O240 1.239 . S
C249 O241 1.256 . S
O250 Mn232 2.221 . S
O250 Mn234 2.290 . S
O250 C244 1.278 . S
O251 Mn234 2.251 . S
O251 C244 1.241 . S
O252 Mn253 2.163 . S
O252 C266 1.244 . S
Mn253 O252 2.163 . S
Mn253 O256 2.160 . S
Mn253 O257 2.221 . S
Mn253 O259 2.163 . S
Mn253 O261 2.160 . S
Mn253 O271 2.221 . S
O254 Mn255 2.087 . S
O254 C266 1.256 . S
Mn255 O254 2.087 . S
Mn255 O262 2.089 . S
Mn255 O271 2.290 . S
Mn255 O272 2.251 . S
O256 Mn253 2.160 . S
O256 C267 1.239 . S
O257 Mn253 2.221 . S
O257 Mn258 2.290 . S
O257 C268 1.278 . S
Mn258 O257 2.290 . S
Mn258 O260 2.089 . S
Mn258 O263 2.251 . S
Mn258 O264 2.087 . S
O259 Mn253 2.163 . S
O259 C269 1.244 . S
O260 Mn258 2.089 . S
O260 C267 1.256 . S
O261 Mn253 2.160 . S
O261 C270 1.239 . S
O262 Mn255 2.089 . S
O262 C270 1.256 . S
O263 Mn258 2.251 . S
O263 C268 1.241 . S
O264 Mn258 2.087 . S
O264 C269 1.256 . S
C265 O271 1.278 . S
C265 O272 1.241 . S
C266 O252 1.244 . S
C266 O254 1.256 . S
C267 O256 1.239 . S
C267 O260 1.256 . S
C268 O257 1.278 . S
C268 O263 1.241 . S
C269 O259 1.244 . S
C269 O264 1.256 . S
C270 O261 1.239 . S
C270 O262 1.256 . S
O271 Mn253 2.221 . S
O271 Mn255 2.290 . S
O271 C265 1.278 . S
O272 Mn255 2.251 . S
O272 C265 1.241 . S
O273 Mn274 2.163 . S
O273 C287 1.244 . S
Mn274 O273 2.163 . S
Mn274 O277 2.160 . S
Mn274 O278 2.221 . S
Mn274 O280 2.163 . S
Mn274 O282 2.160 . S
Mn274 O292 2.221 . S
O275 Mn276 2.087 . S
O275 C287 1.256 . S
Mn276 O275 2.087 . S
Mn276 O283 2.089 . S
Mn276 O292 2.290 . S
Mn276 O293 2.251 . S
O277 Mn274 2.160 . S
O277 C288 1.239 . S
O278 Mn274 2.221 . S
O278 Mn279 2.290 . S
O278 C289 1.278 . S
Mn279 O278 2.290 . S
Mn279 O281 2.089 . S
Mn279 O284 2.251 . S
Mn279 O285 2.087 . S
O280 Mn274 2.163 . S
O280 C290 1.244 . S
O281 Mn279 2.089 . S
O281 C288 1.256 . S
O282 Mn274 2.160 . S
O282 C291 1.239 . S
O283 Mn276 2.089 . S
O283 C291 1.256 . S
O284 Mn279 2.251 . S
O284 C289 1.241 . S
O285 Mn279 2.087 . S
O285 C290 1.256 . S
C286 O292 1.278 . S
C286 O293 1.241 . S
C287 O273 1.244 . S
C287 O275 1.256 . S
C288 O277 1.239 . S
C288 O281 1.256 . S
C289 O278 1.278 . S
C289 O284 1.241 . S
C290 O280 1.244 . S
C290 O285 1.256 . S
C291 O282 1.239 . S
C291 O283 1.256 . S
O292 Mn274 2.221 . S
O292 Mn276 2.290 . S
O292 C286 1.278 . S
O293 Mn276 2.251 . S
O293 C286 1.241 . S
O294 Mn295 2.163 . S
O294 C308 1.244 . S
Mn295 O294 2.163 . S
Mn295 O298 2.160 . S
Mn295 O299 2.221 . S
Mn295 O301 2.163 . S
Mn295 O303 2.160 . S
Mn295 O313 2.221 . S
O296 Mn297 2.087 . S
O296 C308 1.256 . S
Mn297 O296 2.087 . S
Mn297 O304 2.089 . S
Mn297 O313 2.290 . S
Mn297 O314 2.251 . S
O298 Mn295 2.160 . S
O298 C309 1.239 . S
O299 Mn295 2.221 . S
O299 Mn300 2.290 . S
O299 C310 1.278 . S
Mn300 O299 2.290 . S
Mn300 O302 2.089 . S
Mn300 O305 2.251 . S
Mn300 O306 2.087 . S
O301 Mn295 2.163 . S
O301 C311 1.244 . S
O302 Mn300 2.089 . S
O302 C309 1.256 . S
O303 Mn295 2.160 . S
O303 C312 1.239 . S
O304 Mn297 2.089 . S
O304 C312 1.256 . S
O305 Mn300 2.251 . S
O305 C310 1.241 . S
O306 Mn300 2.087 . S
O306 C311 1.256 . S
C307 O313 1.278 . S
C307 O314 1.241 . S
C308 O294 1.244 . S
C308 O296 1.256 . S
C309 O298 1.239 . S
C309 O302 1.256 . S
C310 O299 1.278 . S
C310 O305 1.241 . S
C311 O301 1.244 . S
C311 O306 1.256 . S
C312 O303 1.239 . S
C312 O304 1.256 . S
O313 Mn295 2.221 . S
O313 Mn297 2.290 . S
O313 C307 1.278 . S
O314 Mn297 2.251 . S
O314 C307 1.241 . S
O315 Mn316 2.163 . S
O315 C329 1.244 . S
Mn316 O315 2.163 . S
Mn316 O319 2.160 . S
Mn316 O320 2.221 . S
Mn316 O322 2.163 . S
Mn316 O324 2.160 . S
Mn316 O334 2.221 . S
O317 Mn318 2.087 . S
O317 C329 1.256 . S
Mn318 O317 2.087 . S
Mn318 O325 2.089 . S
Mn318 O334 2.290 . S
Mn318 O335 2.251 . S
O319 Mn316 2.160 . S
O319 C330 1.239 . S
O320 Mn316 2.221 . S
O320 Mn321 2.290 . S
O320 C331 1.278 . S
Mn321 O320 2.290 . S
Mn321 O323 2.089 . S
Mn321 O326 2.251 . S
Mn321 O327 2.087 . S
O322 Mn316 2.163 . S
O322 C332 1.244 . S
O323 Mn321 2.089 . S
O323 C330 1.256 . S
O324 Mn316 2.160 . S
O324 C333 1.239 . S
O325 Mn318 2.089 . S
O325 C333 1.256 . S
O326 Mn321 2.251 . S
O326 C331 1.241 . S
O327 Mn321 2.087 . S
O327 C332 1.256 . S
C328 O334 1.278 . S
C328 O335 1.241 . S
C329 O315 1.244 . S
C329 O317 1.256 . S
C330 O319 1.239 . S
C330 O323 1.256 . S
C331 O320 1.278 . S
C331 O326 1.241 . S
C332 O322 1.244 . S
C332 O327 1.256 . S
C333 O324 1.239 . S
C333 O325 1.256 . S
O334 Mn316 2.221 . S
O334 Mn318 2.290 . S
O334 C328 1.278 . S
O335 Mn318 2.251 . S
O335 C328 1.241 . S
O336 Mn337 2.163 . S
O336 C350 1.252 . S
Mn337 O336 2.163 . S
Mn337 O340 2.160 1_545 S
Mn337 O341 2.221 . S
Mn337 O343 2.163 1_545 S
Mn337 O345 2.160 . S
Mn337 O355 2.221 1_545 S
O338 Mn339 2.087 . S
O338 C350 1.238 1_565 S
Mn339 O338 2.087 . S
Mn339 O346 2.089 . S
Mn339 O355 2.290 . S
Mn339 O356 2.251 . S
O340 Mn337 2.160 1_565 S
O340 C351 1.239 1_565 S
O341 Mn337 2.221 . S
O341 Mn342 2.290 . S
O341 C352 1.278 . S
Mn342 O341 2.290 . S
Mn342 O344 2.089 . S
Mn342 O347 2.251 . S
Mn342 O348 2.087 . S
O343 Mn337 2.163 1_565 S
O343 C353 1.244 1_565 S
O344 Mn342 2.089 . S
O344 C351 1.256 . S
O345 Mn337 2.160 . S
O345 C354 1.239 1_545 S
O346 Mn339 2.089 . S
O346 C354 1.256 . S
O347 Mn342 2.251 . S
O347 C352 1.241 . S
O348 Mn342 2.087 . S
O348 C353 1.256 . S
C349 O355 1.278 . S
C349 O356 1.241 . S
C350 O336 1.252 . S
C350 O338 1.238 1_545 S
C351 O340 1.239 1_545 S
C351 O344 1.256 . S
C352 O341 1.278 . S
C352 O347 1.241 . S
C353 O343 1.244 1_545 S
C353 O348 1.256 . S
C354 O345 1.239 1_565 S
C354 O346 1.256 . S
O355 Mn337 2.221 1_565 S
O355 Mn339 2.290 . S
O355 C349 1.278 . S
O356 Mn339 2.251 . S
O356 C349 1.241 . S
O357 Mn358 2.163 . S
O357 C371 1.244 . S
Mn358 O357 2.163 . S
Mn358 O361 2.160 . S
Mn358 O362 2.221 . S
Mn358 O364 2.163 . S
Mn358 O366 2.160 . S
Mn358 O376 2.221 . S
O359 Mn360 2.087 . S
O359 C371 1.256 . S
Mn360 O359 2.087 . S
Mn360 O367 2.089 . S
Mn360 O376 2.290 . S
Mn360 O377 2.251 . S
O361 Mn358 2.160 . S
O361 C372 1.239 . S
O362 Mn358 2.221 . S
O362 Mn363 2.290 . S
O362 C373 1.278 . S
Mn363 O362 2.290 . S
Mn363 O365 2.089 . S
Mn363 O368 2.251 . S
Mn363 O369 2.087 . S
O364 Mn358 2.163 . S
O364 C374 1.244 . S
O365 Mn363 2.089 . S
O365 C372 1.256 . S
O366 Mn358 2.160 . S
O366 C375 1.239 . S
O367 Mn360 2.089 . S
O367 C375 1.256 . S
O368 Mn363 2.251 . S
O368 C373 1.241 . S
O369 Mn363 2.087 . S
O369 C374 1.256 . S
C370 O376 1.278 . S
C370 O377 1.241 . S
C371 O357 1.244 . S
C371 O359 1.256 . S
C372 O361 1.239 . S
C372 O365 1.256 . S
C373 O362 1.278 . S
C373 O368 1.241 . S
C374 O364 1.244 . S
C374 O369 1.256 . S
C375 O366 1.239 . S
C375 O367 1.256 . S
O376 Mn358 2.221 . S
O376 Mn360 2.290 . S
O376 C370 1.278 . S
O377 Mn360 2.251 . S
O377 C370 1.241 . S
O378 Mn379 2.163 . S
O378 C392 1.244 . S
Mn379 O378 2.163 . S
Mn379 O382 2.160 . S
Mn379 O383 2.221 . S
Mn379 O385 2.163 . S
Mn379 O387 2.160 . S
Mn379 O397 2.221 . S
O380 Mn381 2.087 . S
O380 C392 1.256 . S
Mn381 O380 2.087 . S
Mn381 O388 2.089 . S
Mn381 O397 2.290 . S
Mn381 O398 2.251 . S
O382 Mn379 2.160 . S
O382 C393 1.239 . S
O383 Mn379 2.221 . S
O383 Mn384 2.290 . S
O383 C394 1.278 . S
Mn384 O383 2.290 . S
Mn384 O386 2.089 . S
Mn384 O389 2.251 . S
Mn384 O390 2.087 . S
O385 Mn379 2.163 . S
O385 C395 1.244 . S
O386 Mn384 2.089 . S
O386 C393 1.256 . S
O387 Mn379 2.160 . S
O387 C396 1.239 . S
O388 Mn381 2.089 . S
O388 C396 1.256 . S
O389 Mn384 2.251 . S
O389 C394 1.241 . S
O390 Mn384 2.087 . S
O390 C395 1.256 . S
C391 O397 1.278 . S
C391 O398 1.241 . S
C392 O378 1.244 . S
C392 O380 1.256 . S
C393 O382 1.239 . S
C393 O386 1.256 . S
C394 O383 1.278 . S
C394 O389 1.241 . S
C395 O385 1.244 . S
C395 O390 1.256 . S
C396 O387 1.239 . S
C396 O388 1.256 . S
O397 Mn379 2.221 . S
O397 Mn381 2.290 . S
O397 C391 1.278 . S
O398 Mn381 2.251 . S
O398 C391 1.241 . S
O399 Mn400 2.163 1_545 S
O399 C413 1.244 . S
Mn400 O399 2.163 1_565 S
Mn400 O403 2.160 . S
Mn400 O404 2.221 . S
Mn400 O406 2.163 . S
Mn400 O408 2.160 . S
Mn400 O418 2.221 1_565 S
O401 Mn402 2.087 . S
O401 C413 1.256 . S
Mn402 O401 2.087 . S
Mn402 O409 2.089 . S
Mn402 O418 2.290 . S
Mn402 O419 2.251 . S
O403 Mn400 2.160 . S
O403 C414 1.239 . S
O404 Mn400 2.221 . S
O404 Mn405 2.290 . S
O404 C415 1.278 . S
Mn405 O404 2.290 . S
Mn405 O407 2.089 . S
Mn405 O410 2.251 . S
Mn405 O411 2.087 . S
O406 Mn400 2.163 . S
O406 C416 1.244 . S
O407 Mn405 2.089 . S
O407 C414 1.256 . S
O408 Mn400 2.160 . S
O408 C417 1.239 1_565 S
O409 Mn402 2.089 . S
O409 C417 1.256 . S
O410 Mn405 2.251 . S
O410 C415 1.241 . S
O411 Mn405 2.087 . S
O411 C416 1.256 . S
C412 O418 1.278 . S
C412 O419 1.241 . S
C413 O399 1.244 . S
C413 O401 1.256 . S
C414 O403 1.239 . S
C414 O407 1.256 . S
C415 O404 1.278 . S
C415 O410 1.241 . S
C416 O406 1.244 . S
C416 O411 1.256 . S
C417 O408 1.239 1_545 S
C417 O409 1.256 . S
O418 Mn400 2.221 1_545 S
O418 Mn402 2.290 . S
O418 C412 1.278 . S
O419 Mn402 2.251 . S
O419 C412 1.241 . S
O420 Mn421 2.168 1_565 S
O420 C434 1.244 . S
Mn421 O420 2.168 1_545 S
Mn421 O424 2.155 . S
Mn421 O425 2.220 . S
Mn421 O427 2.163 1_545 S
Mn421 O429 2.159 . S
Mn421 O439 2.222 1_545 S
O422 Mn423 2.087 . S
O422 C434 1.256 . S
Mn423 O422 2.087 . S
Mn423 O430 2.089 . S
Mn423 O439 2.290 . S
Mn423 O440 2.251 . S
O424 Mn421 2.155 . S
O424 C435 1.239 . S
O425 Mn421 2.220 . S
O425 Mn426 2.290 . S
O425 C436 1.278 . S
Mn426 O425 2.290 . S
Mn426 O428 2.089 . S
Mn426 O431 2.251 . S
Mn426 O432 2.087 . S
O427 Mn421 2.163 1_565 S
O427 C437 1.241 1_565 S
O428 Mn426 2.089 . S
O428 C435 1.256 . S
O429 Mn421 2.159 . S
O429 C438 1.208 1_545 S
O430 Mn423 2.089 . S
O430 C438 1.256 . S
O431 Mn426 2.251 . S
O431 C436 1.241 . S
O432 Mn426 2.087 . S
O432 C437 1.256 . S
C433 O439 1.278 . S
C433 O440 1.241 . S
C434 O420 1.244 . S
C434 O422 1.256 . S
C435 O424 1.239 . S
C435 O428 1.256 . S
C436 O425 1.278 . S
C436 O431 1.241 . S
C437 O427 1.241 1_545 S
C437 O432 1.256 . S
C438 O429 1.208 1_565 S
C438 O430 1.256 . S
O439 Mn421 2.222 1_565 S
O439 Mn423 2.290 . S
O439 C433 1.278 . S
O440 Mn423 2.251 . S
O440 C433 1.241 . S
O441 Mn442 2.163 . S
O441 C455 1.244 . S
Mn442 O441 2.163 . S
Mn442 O445 2.160 . S
Mn442 O446 2.221 . S
Mn442 O448 2.163 . S
Mn442 O450 2.160 . S
Mn442 O460 2.221 . S
O443 Mn444 2.087 . S
O443 C455 1.256 . S
Mn444 O443 2.087 . S
Mn444 O451 2.089 . S
Mn444 O460 2.290 . S
Mn444 O461 2.251 . S
O445 Mn442 2.160 . S
O445 C456 1.239 . S
O446 Mn442 2.221 . S
O446 Mn447 2.290 . S
O446 C457 1.278 . S
Mn447 O446 2.290 . S
Mn447 O449 2.089 . S
Mn447 O452 2.251 . S
Mn447 O453 2.087 . S
O448 Mn442 2.163 . S
O448 C458 1.244 . S
O449 Mn447 2.089 . S
O449 C456 1.256 . S
O450 Mn442 2.160 . S
O450 C459 1.239 . S
O451 Mn444 2.089 . S
O451 C459 1.256 . S
O452 Mn447 2.251 . S
O452 C457 1.241 . S
O453 Mn447 2.087 . S
O453 C458 1.256 . S
C454 O460 1.278 . S
C454 O461 1.241 . S
C455 O441 1.244 . S
C455 O443 1.256 . S
C456 O445 1.239 . S
C456 O449 1.256 . S
C457 O446 1.278 . S
C457 O452 1.241 . S
C458 O448 1.244 . S
C458 O453 1.256 . S
C459 O450 1.239 . S
C459 O451 1.256 . S
O460 Mn442 2.221 . S
O460 Mn444 2.290 . S
O460 C454 1.278 . S
O461 Mn444 2.251 . S
O461 C454 1.241 . S
O462 Mn463 2.163 . S
O462 C476 1.244 . S
Mn463 O462 2.163 . S
Mn463 O466 2.160 . S
Mn463 O467 2.221 . S
Mn463 O469 2.163 . S
Mn463 O471 2.160 . S
Mn463 O481 2.221 . S
O464 Mn465 2.087 . S
O464 C476 1.256 . S
Mn465 O464 2.087 . S
Mn465 O472 2.089 . S
Mn465 O481 2.290 . S
Mn465 O482 2.251 . S
O466 Mn463 2.160 . S
O466 C477 1.239 . S
O467 Mn463 2.221 . S
O467 Mn468 2.290 . S
O467 C478 1.278 . S
Mn468 O467 2.290 . S
Mn468 O470 2.089 . S
Mn468 O473 2.251 . S
Mn468 O474 2.087 . S
O469 Mn463 2.163 . S
O469 C479 1.244 . S
O470 Mn468 2.089 . S
O470 C477 1.256 . S
O471 Mn463 2.160 . S
O471 C480 1.239 . S
O472 Mn465 2.089 . S
O472 C480 1.256 . S
O473 Mn468 2.251 . S
O473 C478 1.241 . S
O474 Mn468 2.087 . S
O474 C479 1.256 . S
C475 O481 1.278 . S
C475 O482 1.241 . S
C476 O462 1.244 . S
C476 O464 1.256 . S
C477 O466 1.239 . S
C477 O470 1.256 . S
C478 O467 1.278 . S
C478 O473 1.241 . S
C479 O469 1.244 . S
C479 O474 1.256 . S
C480 O471 1.239 . S
C480 O472 1.256 . S
O481 Mn463 2.221 . S
O481 Mn465 2.290 . S
O481 C475 1.278 . S
O482 Mn465 2.251 . S
O482 C475 1.241 . S
O483 Mn484 2.163 1_565 S
O483 C497 1.244 . S
Mn484 O483 2.163 1_545 S
Mn484 O487 2.160 . S
Mn484 O488 2.221 . S
Mn484 O490 2.163 . S
Mn484 O492 2.160 . S
Mn484 O502 2.221 1_545 S
O485 Mn486 2.087 . S
O485 C497 1.256 . S
Mn486 O485 2.087 . S
Mn486 O493 2.089 . S
Mn486 O502 2.290 . S
Mn486 O503 2.251 . S
O487 Mn484 2.160 . S
O487 C498 1.239 . S
O488 Mn484 2.221 . S
O488 Mn489 2.290 . S
O488 C499 1.278 . S
Mn489 O488 2.290 . S
Mn489 O491 2.089 . S
Mn489 O494 2.251 . S
Mn489 O495 2.087 . S
O490 Mn484 2.163 . S
O490 C500 1.244 . S
O491 Mn489 2.089 . S
O491 C498 1.256 . S
O492 Mn484 2.160 . S
O492 C501 1.239 1_545 S
O493 Mn486 2.089 . S
O493 C501 1.256 . S
O494 Mn489 2.251 . S
O494 C499 1.241 . S
O495 Mn489 2.087 . S
O495 C500 1.256 . S
C496 O502 1.278 . S
C496 O503 1.241 . S
C497 O483 1.244 . S
C497 O485 1.256 . S
C498 O487 1.239 . S
C498 O491 1.256 . S
C499 O488 1.278 . S
C499 O494 1.241 . S
C500 O490 1.244 . S
C500 O495 1.256 . S
C501 O492 1.239 1_565 S
C501 O493 1.256 . S
O502 Mn484 2.221 1_565 S
O502 Mn486 2.290 . S
O502 C496 1.278 . S
O503 Mn486 2.251 . S
O503 C496 1.241 . S
O504 Mn505 2.163 . S
O504 C518 1.244 . S
Mn505 O504 2.163 . S
Mn505 O508 2.160 . S
Mn505 O509 2.221 . S
Mn505 O511 2.163 . S
Mn505 O513 2.160 . S
Mn505 O523 2.221 . S
O506 Mn507 2.087 . S
O506 C518 1.256 . S
Mn507 O506 2.087 . S
Mn507 O514 2.089 . S
Mn507 O523 2.290 . S
Mn507 O524 2.251 . S
O508 Mn505 2.160 . S
O508 C519 1.239 . S
O509 Mn505 2.221 . S
O509 Mn510 2.290 . S
O509 C520 1.278 . S
Mn510 O509 2.290 . S
Mn510 O512 2.089 1_554 S
Mn510 O515 2.251 . S
Mn510 O516 2.087 1_554 S
O511 Mn505 2.163 . S
O511 C521 1.244 1_554 S
O512 Mn510 2.089 1_556 S
O512 C519 1.256 1_556 S
O513 Mn505 2.160 . S
O513 C522 1.239 . S
O514 Mn507 2.089 . S
O514 C522 1.256 . S
O515 Mn510 2.251 . S
O515 C520 1.241 . S
O516 Mn510 2.087 1_556 S
O516 C521 1.256 . S
C517 O523 1.278 . S
C517 O524 1.241 . S
C518 O504 1.244 . S
C518 O506 1.256 . S
C519 O508 1.239 . S
C519 O512 1.256 1_554 S
C520 O509 1.278 . S
C520 O515 1.241 . S
C521 O511 1.244 1_556 S
C521 O516 1.256 . S
C522 O513 1.239 . S
C522 O514 1.256 . S
O523 Mn505 2.221 . S
O523 Mn507 2.290 . S
O523 C517 1.278 . S
O524 Mn507 2.251 . S
O524 C517 1.241 . S
O525 Mn526 2.163 . S
O525 C539 1.244 . S
Mn526 O525 2.163 . S
Mn526 O529 2.160 . S
Mn526 O530 2.221 . S
Mn526 O532 2.163 . S
Mn526 O534 2.160 . S
Mn526 O544 2.221 . S
O527 Mn528 2.087 . S
O527 C539 1.256 . S
Mn528 O527 2.087 . S
Mn528 O535 2.089 . S
Mn528 O544 2.290 . S
Mn528 O545 2.251 1_554 S
O529 Mn526 2.160 . S
O529 C540 1.239 . S
O530 Mn526 2.221 . S
O530 Mn531 2.290 . S
O530 C541 1.278 . S
Mn531 O530 2.290 . S
Mn531 O533 2.089 . S
Mn531 O536 2.251 . S
Mn531 O537 2.087 . S
O532 Mn526 2.163 . S
O532 C542 1.244 . S
O533 Mn531 2.089 . S
O533 C540 1.256 . S
O534 Mn526 2.160 . S
O534 C543 1.239 . S
O535 Mn528 2.089 . S
O535 C543 1.256 . S
O536 Mn531 2.251 . S
O536 C541 1.241 . S
O537 Mn531 2.087 . S
O537 C542 1.256 . S
C538 O544 1.278 1_556 S
C538 O545 1.241 . S
C539 O525 1.244 . S
C539 O527 1.256 . S
C540 O529 1.239 . S
C540 O533 1.256 . S
C541 O530 1.278 . S
C541 O536 1.241 . S
C542 O532 1.244 . S
C542 O537 1.256 . S
C543 O534 1.239 . S
C543 O535 1.256 . S
O544 Mn526 2.221 . S
O544 Mn528 2.290 . S
O544 C538 1.278 1_554 S
O545 Mn528 2.251 1_556 S
O545 C538 1.241 . S
O546 Mn547 2.163 . S
O546 C560 1.244 . S
Mn547 O546 2.163 . S
Mn547 O550 2.160 . S
Mn547 O551 2.221 . S
Mn547 O553 2.163 . S
Mn547 O555 2.160 . S
Mn547 O565 2.221 . S
O548 Mn549 2.087 . S
O548 C560 1.256 . S
Mn549 O548 2.087 . S
Mn549 O556 2.089 . S
Mn549 O565 2.290 . S
Mn549 O566 2.251 . S
O550 Mn547 2.160 . S
O550 C561 1.239 . S
O551 Mn547 2.221 . S
O551 Mn552 2.290 . S
O551 C562 1.278 . S
Mn552 O551 2.290 . S
Mn552 O554 2.089 . S
Mn552 O557 2.251 . S
Mn552 O558 2.087 . S
O553 Mn547 2.163 . S
O553 C563 1.244 . S
O554 Mn552 2.089 . S
O554 C561 1.256 . S
O555 Mn547 2.160 . S
O555 C564 1.239 . S
O556 Mn549 2.089 . S
O556 C564 1.256 . S
O557 Mn552 2.251 . S
O557 C562 1.241 . S
O558 Mn552 2.087 . S
O558 C563 1.256 . S
C559 O565 1.278 . S
C559 O566 1.241 . S
C560 O546 1.244 . S
C560 O548 1.256 . S
C561 O550 1.239 . S
C561 O554 1.256 . S
C562 O551 1.278 . S
C562 O557 1.241 . S
C563 O553 1.244 . S
C563 O558 1.256 . S
C564 O555 1.239 . S
C564 O556 1.256 . S
O565 Mn547 2.221 . S
O565 Mn549 2.290 . S
O565 C559 1.278 . S
O566 Mn549 2.251 . S
O566 C559 1.241 . S
O567 Mn568 2.163 . S
O567 C581 1.244 . S
Mn568 O567 2.163 . S
Mn568 O571 2.160 . S
Mn568 O572 2.221 . S
Mn568 O574 2.163 . S
Mn568 O576 2.160 . S
Mn568 O586 2.221 . S
O569 Mn570 2.087 . S
O569 C581 1.256 . S
Mn570 O569 2.087 . S
Mn570 O577 2.089 . S
Mn570 O586 2.290 . S
Mn570 O587 2.251 . S
O571 Mn568 2.160 . S
O571 C582 1.239 . S
O572 Mn568 2.221 . S
O572 Mn573 2.290 . S
O572 C583 1.278 . S
Mn573 O572 2.290 . S
Mn573 O575 2.089 . S
Mn573 O578 2.251 . S
Mn573 O579 2.087 . S
O574 Mn568 2.163 . S
O574 C584 1.244 . S
O575 Mn573 2.089 . S
O575 C582 1.256 . S
O576 Mn568 2.160 . S
O576 C585 1.239 . S
O577 Mn570 2.089 . S
O577 C585 1.256 . S
O578 Mn573 2.251 . S
O578 C583 1.241 . S
O579 Mn573 2.087 . S
O579 C584 1.256 . S
C580 O586 1.278 . S
C580 O587 1.241 . S
C581 O567 1.244 . S
C581 O569 1.256 . S
C582 O571 1.239 . S
C582 O575 1.256 . S
C583 O572 1.278 . S
C583 O578 1.241 . S
C584 O574 1.244 . S
C584 O579 1.256 . S
C585 O576 1.239 . S
C585 O577 1.256 . S
O586 Mn568 2.221 . S
O586 Mn570 2.290 . S
O586 C580 1.278 . S
O587 Mn570 2.251 . S
O587 C580 1.241 . S
O588 Mn589 2.163 . S
O588 C602 1.244 . S
Mn589 O588 2.163 . S
Mn589 O592 2.160 . S
Mn589 O593 2.221 . S
Mn589 O595 2.163 . S
Mn589 O597 2.160 . S
Mn589 O607 2.221 . S
O590 Mn591 2.087 . S
O590 C602 1.256 . S
Mn591 O590 2.087 . S
Mn591 O598 2.089 . S
Mn591 O607 2.290 . S
Mn591 O608 2.251 1_556 S
O592 Mn589 2.160 . S
O592 C603 1.239 . S
O593 Mn589 2.221 . S
O593 Mn594 2.290 . S
O593 C604 1.278 . S
Mn594 O593 2.290 . S
Mn594 O596 2.089 . S
Mn594 O599 2.251 . S
Mn594 O600 2.087 . S
O595 Mn589 2.163 . S
O595 C605 1.244 . S
O596 Mn594 2.089 . S
O596 C603 1.256 . S
O597 Mn589 2.160 . S
O597 C606 1.239 . S
O598 Mn591 2.089 . S
O598 C606 1.256 . S
O599 Mn594 2.251 . S
O599 C604 1.241 . S
O600 Mn594 2.087 . S
O600 C605 1.256 . S
C601 O607 1.278 1_554 S
C601 O608 1.241 . S
C602 O588 1.244 . S
C602 O590 1.256 . S
C603 O592 1.239 . S
C603 O596 1.256 . S
C604 O593 1.278 . S
C604 O599 1.241 . S
C605 O595 1.244 . S
C605 O600 1.256 . S
C606 O597 1.239 . S
C606 O598 1.256 . S
O607 Mn589 2.221 . S
O607 Mn591 2.290 . S
O607 C601 1.278 1_556 S
O608 Mn591 2.251 1_554 S
O608 C601 1.241 . S
O609 Mn610 2.163 . S
O609 C623 1.244 . S
Mn610 O609 2.163 . S
Mn610 O613 2.160 . S
Mn610 O614 2.221 . S
Mn610 O616 2.163 . S
Mn610 O618 2.160 . S
Mn610 O628 2.221 . S
O611 Mn612 2.087 . S
O611 C623 1.256 . S
Mn612 O611 2.087 . S
Mn612 O619 2.089 . S
Mn612 O628 2.290 . S
Mn612 O629 2.251 1_556 S
O613 Mn610 2.160 . S
O613 C624 1.239 . S
O614 Mn610 2.221 . S
O614 Mn615 2.290 . S
O614 C625 1.278 . S
Mn615 O614 2.290 . S
Mn615 O617 2.089 . S
Mn615 O620 2.251 . S
Mn615 O621 2.087 . S
O616 Mn610 2.163 . S
O616 C626 1.244 . S
O617 Mn615 2.089 . S
O617 C624 1.256 . S
O618 Mn610 2.160 . S
O618 C627 1.239 . S
O619 Mn612 2.089 . S
O619 C627 1.256 . S
O620 Mn615 2.251 . S
O620 C625 1.241 . S
O621 Mn615 2.087 . S
O621 C626 1.256 . S
C622 O628 1.278 1_554 S
C622 O629 1.241 . S
C623 O609 1.244 . S
C623 O611 1.256 . S
C624 O613 1.239 . S
C624 O617 1.256 . S
C625 O614 1.278 . S
C625 O620 1.241 . S
C626 O616 1.244 . S
C626 O621 1.256 . S
C627 O618 1.239 . S
C627 O619 1.256 . S
O628 Mn610 2.221 . S
O628 Mn612 2.290 . S
O628 C622 1.278 1_556 S
O629 Mn612 2.251 1_554 S
O629 C622 1.241 . S
O630 Mn631 2.163 . S
O630 C644 1.244 . S
Mn631 O630 2.163 . S
Mn631 O634 2.160 . S
Mn631 O635 2.221 . S
Mn631 O637 2.163 . S
Mn631 O639 2.160 . S
Mn631 O649 2.221 . S
O632 Mn633 2.087 . S
O632 C644 1.256 . S
Mn633 O632 2.087 . S
Mn633 O640 2.089 . S
Mn633 O649 2.290 . S
Mn633 O650 2.251 . S
O634 Mn631 2.160 . S
O634 C645 1.239 . S
O635 Mn631 2.221 . S
O635 Mn636 2.290 . S
O635 C646 1.278 . S
Mn636 O635 2.290 . S
Mn636 O638 2.089 . S
Mn636 O641 2.251 . S
Mn636 O642 2.087 . S
O637 Mn631 2.163 . S
O637 C647 1.244 . S
O638 Mn636 2.089 . S
O638 C645 1.256 . S
O639 Mn631 2.160 . S
O639 C648 1.239 . S
O640 Mn633 2.089 . S
O640 C648 1.256 . S
O641 Mn636 2.251 . S
O641 C646 1.241 . S
O642 Mn636 2.087 . S
O642 C647 1.256 . S
C643 O649 1.278 . S
C643 O650 1.241 . S
C644 O630 1.244 . S
C644 O632 1.256 . S
C645 O634 1.239 . S
C645 O638 1.256 . S
C646 O635 1.278 . S
C646 O641 1.241 . S
C647 O637 1.244 . S
C647 O642 1.256 . S
C648 O639 1.239 . S
C648 O640 1.256 . S
O649 Mn631 2.221 . S
O649 Mn633 2.290 . S
O649 C643 1.278 . S
O650 Mn633 2.251 . S
O650 C643 1.241 . S
O651 Mn652 2.163 . S
O651 C665 1.244 . S
Mn652 O651 2.163 . S
Mn652 O655 2.160 . S
Mn652 O656 2.221 . S
Mn652 O658 2.163 . S
Mn652 O660 2.160 . S
Mn652 O670 2.221 . S
O653 Mn654 2.087 . S
O653 C665 1.256 . S
Mn654 O653 2.087 . S
Mn654 O661 2.089 . S
Mn654 O670 2.290 . S
Mn654 O671 2.251 . S
O655 Mn652 2.160 . S
O655 C666 1.239 . S
O656 Mn652 2.221 . S
O656 Mn657 2.290 . S
O656 C667 1.278 . S
Mn657 O656 2.290 . S
Mn657 O659 2.089 . S
Mn657 O662 2.251 . S
Mn657 O663 2.087 . S
O658 Mn652 2.163 . S
O658 C668 1.244 . S
O659 Mn657 2.089 . S
O659 C666 1.256 . S
O660 Mn652 2.160 . S
O660 C669 1.239 . S
O661 Mn654 2.089 . S
O661 C669 1.256 . S
O662 Mn657 2.251 . S
O662 C667 1.241 . S
O663 Mn657 2.087 . S
O663 C668 1.256 . S
C664 O670 1.278 . S
C664 O671 1.241 . S
C665 O651 1.244 . S
C665 O653 1.256 . S
C666 O655 1.239 . S
C666 O659 1.256 . S
C667 O656 1.278 . S
C667 O662 1.241 . S
C668 O658 1.244 . S
C668 O663 1.256 . S
C669 O660 1.239 . S
C669 O661 1.256 . S
O670 Mn652 2.221 . S
O670 Mn654 2.290 . S
O670 C664 1.278 . S
O671 Mn654 2.251 . S
O671 C664 1.241 . S
H672 C684 0.930 . S
H673 C686 0.930 . S
H674 C687 0.930 . S
H675 C691 0.959 . S
H676 C691 0.959 . S
H677 C691 0.961 . S
H678 C692 0.960 . S
H679 C692 0.961 . S
H680 C692 0.959 . S
H681 C695 0.929 . S
H682 C696 0.931 . S
H683 C698 0.930 . S
C684 H672 0.930 . S
C684 C685 1.399 . S
C684 C689 1.399 . S
C685 C684 1.399 . S
C685 C686 1.376 . S
C686 H673 0.930 . S
C686 C685 1.376 . S
C686 C687 1.388 . S
C687 H674 0.930 . S
C687 C686 1.388 . S
C687 C688 1.390 . S
C688 C687 1.390 . S
C688 C689 1.394 . S
C688 C694 1.465 . S
C689 C684 1.399 . S
C689 C688 1.394 . S
C689 C690 1.516 . S
C690 C689 1.516 . S
C690 C691 1.502 . S
C690 C692 1.561 1_554 S
C690 C693 1.526 . S
C691 H675 0.959 . S
C691 H676 0.959 . S
C691 H677 0.961 . S
C691 C690 1.502 . S
C692 H678 0.960 . S
C692 H679 0.961 . S
C692 H680 0.959 . S
C692 C690 1.561 1_556 S
C693 C690 1.526 . S
C693 C694 1.396 . S
C693 C698 1.390 . S
C694 C688 1.465 . S
C694 C693 1.396 . S
C694 C695 1.399 . S
C695 H681 0.929 . S
C695 C694 1.399 . S
C695 C696 1.385 . S
C696 H682 0.931 . S
C696 C695 1.385 . S
C696 C697 1.389 . S
C697 C696 1.389 . S
C697 C698 1.387 . S
C698 H683 0.930 . S
C698 C693 1.390 . S
C698 C697 1.387 . S
H699 C711 0.930 . S
H700 C713 0.930 . S
H701 C714 0.930 1_556 S
H702 C718 0.959 . S
H703 C718 0.959 . S
H704 C718 0.961 . S
H705 C719 0.960 . S
H706 C719 0.961 . S
H707 C719 0.959 . S
H708 C722 0.929 1_556 S
H709 C723 0.931 . S
H710 C725 0.930 . S
C711 H699 0.930 . S
C711 C712 1.399 . S
C711 C716 1.399 . S
C712 C711 1.399 . S
C712 C713 1.376 . S
C713 H700 0.930 . S
C713 C712 1.376 . S
C713 C714 1.388 . S
C714 H701 0.930 1_554 S
C714 C713 1.388 . S
C714 C715 1.390 . S
C715 C714 1.390 . S
C715 C716 1.394 . S
C715 C721 1.465 . S
C716 C711 1.399 . S
C716 C715 1.394 . S
C716 C717 1.516 . S
C717 C716 1.516 . S
C717 C718 1.502 . S
C717 C719 1.561 . S
C717 C720 1.526 . S
C718 H702 0.959 . S
C718 H703 0.959 . S
C718 H704 0.961 . S
C718 C717 1.502 . S
C719 H705 0.960 . S
C719 H706 0.961 . S
C719 H707 0.959 . S
C719 C717 1.561 . S
C720 C717 1.526 . S
C720 C721 1.396 . S
C720 C725 1.390 . S
C721 C715 1.465 . S
C721 C720 1.396 . S
C721 C722 1.399 . S
C722 H708 0.929 1_554 S
C722 C721 1.399 . S
C722 C723 1.385 . S
C723 H709 0.931 . S
C723 C722 1.385 . S
C723 C724 1.389 . S
C724 C723 1.389 . S
C724 C725 1.387 . S
C725 H710 0.930 . S
C725 C720 1.390 . S
C725 C724 1.387 . S
H726 C738 0.930 . S
H727 C740 0.930 . S
H728 C741 0.930 . S
H729 C745 0.959 . S
H730 C745 0.959 . S
H731 C745 0.961 . S
H732 C746 0.960 . S
H733 C746 0.961 . S
H734 C746 0.959 . S
H735 C749 0.929 . S
H736 C750 0.931 . S
H737 C752 0.930 . S
C738 H726 0.930 . S
C738 C739 1.399 . S
C738 C743 1.399 . S
C739 C738 1.399 . S
C739 C740 1.376 . S
C740 H727 0.930 . S
C740 C739 1.376 . S
C740 C741 1.388 . S
C741 H728 0.930 . S
C741 C740 1.388 . S
C741 C742 1.390 . S
C742 C741 1.390 . S
C742 C743 1.394 . S
C742 C748 1.465 . S
C743 C738 1.399 . S
C743 C742 1.394 . S
C743 C744 1.516 . S
C744 C743 1.516 . S
C744 C745 1.502 . S
C744 C746 1.561 . S
C744 C747 1.526 . S
C745 H729 0.959 . S
C745 H730 0.959 . S
C745 H731 0.961 . S
C745 C744 1.502 . S
C746 H732 0.960 . S
C746 H733 0.961 . S
C746 H734 0.959 . S
C746 C744 1.561 . S
C747 C744 1.526 . S
C747 C748 1.396 . S
C747 C752 1.390 . S
C748 C742 1.465 . S
C748 C747 1.396 . S
C748 C749 1.399 . S
C749 H735 0.929 . S
C749 C748 1.399 . S
C749 C750 1.385 . S
C750 H736 0.931 . S
C750 C749 1.385 . S
C750 C751 1.389 . S
C751 C750 1.389 . S
C751 C752 1.387 . S
C752 H737 0.930 . S
C752 C747 1.390 . S
C752 C751 1.387 . S
H753 C765 0.930 . S
H754 C767 0.930 . S
H755 C768 0.930 . S
H756 C772 0.959 . S
H757 C772 0.959 . S
H758 C772 0.961 . S
H759 C773 0.960 . S
H760 C773 0.961 . S
H761 C773 0.959 . S
H762 C776 0.929 . S
H763 C777 0.931 . S
H764 C779 0.930 . S
C765 H753 0.930 . S
C765 C766 1.399 . S
C765 C770 1.399 . S
C766 C765 1.399 . S
C766 C767 1.376 . S
C767 H754 0.930 . S
C767 C766 1.376 . S
C767 C768 1.388 . S
C768 H755 0.930 . S
C768 C767 1.388 . S
C768 C769 1.390 . S
C769 C768 1.390 . S
C769 C770 1.394 . S
C769 C775 1.465 . S
C770 C765 1.399 . S
C770 C769 1.394 . S
C770 C771 1.516 . S
C771 C770 1.516 . S
C771 C772 1.502 . S
C771 C773 1.561 . S
C771 C774 1.526 . S
C772 H756 0.959 . S
C772 H757 0.959 . S
C772 H758 0.961 . S
C772 C771 1.502 . S
C773 H759 0.960 . S
C773 H760 0.961 . S
C773 H761 0.959 . S
C773 C771 1.561 . S
C774 C771 1.526 . S
C774 C775 1.396 . S
C774 C779 1.390 . S
C775 C769 1.465 . S
C775 C774 1.396 . S
C775 C776 1.399 . S
C776 H762 0.929 . S
C776 C775 1.399 . S
C776 C777 1.385 . S
C777 H763 0.931 . S
C777 C776 1.385 . S
C777 C778 1.389 . S
C778 C777 1.389 . S
C778 C779 1.387 . S
C779 H764 0.930 . S
C779 C774 1.390 . S
C779 C778 1.387 . S
H780 C792 0.930 . S
H781 C794 0.930 . S
H782 C795 0.930 . S
H783 C799 0.959 1_556 S
H784 C799 0.959 . S
H785 C799 0.961 . S
H786 C800 0.960 . S
H787 C800 0.961 . S
H788 C800 0.959 . S
H789 C803 0.929 . S
H790 C804 0.931 . S
H791 C806 0.930 . S
C792 H780 0.930 . S
C792 C793 1.399 . S
C792 C797 1.399 . S
C793 C792 1.399 . S
C793 C794 1.376 . S
C794 H781 0.930 . S
C794 C793 1.376 . S
C794 C795 1.388 . S
C795 H782 0.930 . S
C795 C794 1.388 . S
C795 C796 1.390 . S
C796 C795 1.390 . S
C796 C797 1.394 . S
C796 C802 1.465 . S
C797 C792 1.399 . S
C797 C796 1.394 . S
C797 C798 1.516 . S
C798 C797 1.516 . S
C798 C799 1.502 1_556 S
C798 C800 1.561 1_556 S
C798 C801 1.526 . S
C799 H783 0.959 1_554 S
C799 H784 0.959 . S
C799 H785 0.961 . S
C799 C798 1.502 1_554 S
C800 H786 0.960 . S
C800 H787 0.961 . S
C800 H788 0.959 . S
C800 C798 1.561 1_554 S
C801 C798 1.526 . S
C801 C802 1.396 . S
C801 C806 1.390 . S
C802 C796 1.465 . S
C802 C801 1.396 . S
C802 C803 1.399 . S
C803 H789 0.929 . S
C803 C802 1.399 . S
C803 C804 1.385 . S
C804 H790 0.931 . S
C804 C803 1.385 . S
C804 C805 1.389 . S
C805 C804 1.389 . S
C805 C806 1.387 . S
C806 H791 0.930 . S
C806 C801 1.390 . S
C806 C805 1.387 . S
H807 C819 0.930 . S
H808 C821 0.930 1_554 S
H809 C822 0.930 1_554 S
H810 C826 0.959 . S
H811 C826 0.959 . S
H812 C826 0.961 . S
H813 C827 0.960 . S
H814 C827 0.961 . S
H815 C827 0.959 . S
H816 C830 0.929 1_554 S
H817 C831 0.931 1_554 S
H818 C833 0.930 . S
C819 H807 0.930 . S
C819 C820 1.399 . S
C819 C824 1.399 . S
C820 C819 1.399 . S
C820 C821 1.376 . S
C821 H808 0.930 1_556 S
C821 C820 1.376 . S
C821 C822 1.388 . S
C822 H809 0.930 1_556 S
C822 C821 1.388 . S
C822 C823 1.390 . S
C823 C822 1.390 . S
C823 C824 1.394 . S
C823 C829 1.465 . S
C824 C819 1.399 . S
C824 C823 1.394 . S
C824 C825 1.516 . S
C825 C824 1.516 . S
C825 C826 1.502 . S
C825 C827 1.561 . S
C825 C828 1.526 . S
C826 H810 0.959 . S
C826 H811 0.959 . S
C826 H812 0.961 . S
C826 C825 1.502 . S
C827 H813 0.960 . S
C827 H814 0.961 . S
C827 H815 0.959 . S
C827 C825 1.561 . S
C828 C825 1.526 . S
C828 C829 1.396 . S
C828 C833 1.390 . S
C829 C823 1.465 . S
C829 C828 1.396 . S
C829 C830 1.399 . S
C830 H816 0.929 1_556 S
C830 C829 1.399 . S
C830 C831 1.385 . S
C831 H817 0.931 1_556 S
C831 C830 1.385 . S
C831 C832 1.389 . S
C832 C831 1.389 . S
C832 C833 1.387 . S
C833 H818 0.930 . S
C833 C828 1.390 . S
C833 C832 1.387 . S
H834 C846 0.930 . S
H835 C848 0.930 . S
H836 C849 0.930 . S
H837 C853 0.959 . S
H838 C853 0.959 . S
H839 C853 0.961 . S
H840 C854 0.960 . S
H841 C854 0.961 . S
H842 C854 0.959 . S
H843 C857 0.929 . S
H844 C858 0.931 . S
H845 C860 0.930 . S
C846 H834 0.930 . S
C846 C847 1.399 . S
C846 C851 1.399 . S
C847 C846 1.399 . S
C847 C848 1.376 . S
C848 H835 0.930 . S
C848 C847 1.376 . S
C848 C849 1.388 . S
C849 H836 0.930 . S
C849 C848 1.388 . S
C849 C850 1.390 . S
C850 C849 1.390 . S
C850 C851 1.394 . S
C850 C856 1.465 . S
C851 C846 1.399 . S
C851 C850 1.394 . S
C851 C852 1.516 . S
C852 C851 1.516 . S
C852 C853 1.502 . S
C852 C854 1.561 . S
C852 C855 1.526 . S
C853 H837 0.959 . S
C853 H838 0.959 . S
C853 H839 0.961 . S
C853 C852 1.502 . S
C854 H840 0.960 . S
C854 H841 0.961 . S
C854 H842 0.959 . S
C854 C852 1.561 . S
C855 C852 1.526 . S
C855 C856 1.396 . S
C855 C860 1.390 . S
C856 C850 1.465 . S
C856 C855 1.396 . S
C856 C857 1.399 . S
C857 H843 0.929 . S
C857 C856 1.399 . S
C857 C858 1.385 . S
C858 H844 0.931 . S
C858 C857 1.385 . S
C858 C859 1.389 . S
C859 C858 1.389 . S
C859 C860 1.387 . S
C860 H845 0.930 . S
C860 C855 1.390 . S
C860 C859 1.387 . S
H861 C873 0.930 . S
H862 C875 0.930 . S
H863 C876 0.930 . S
H864 C880 0.959 . S
H865 C880 0.959 . S
H866 C880 0.961 . S
H867 C881 0.960 . S
H868 C881 0.961 . S
H869 C881 0.959 . S
H870 C884 0.929 . S
H871 C885 0.931 . S
H872 C887 0.930 . S
C873 H861 0.930 . S
C873 C874 1.399 . S
C873 C878 1.399 . S
C874 C873 1.399 . S
C874 C875 1.376 . S
C875 H862 0.930 . S
C875 C874 1.376 . S
C875 C876 1.388 . S
C876 H863 0.930 . S
C876 C875 1.388 . S
C876 C877 1.390 . S
C877 C876 1.390 . S
C877 C878 1.394 . S
C877 C883 1.465 . S
C878 C873 1.399 . S
C878 C877 1.394 . S
C878 C879 1.516 . S
C879 C878 1.516 . S
C879 C880 1.502 . S
C879 C881 1.561 . S
C879 C882 1.526 . S
C880 H864 0.959 . S
C880 H865 0.959 . S
C880 H866 0.961 . S
C880 C879 1.502 . S
C881 H867 0.960 . S
C881 H868 0.961 . S
C881 H869 0.959 . S
C881 C879 1.561 . S
C882 C879 1.526 . S
C882 C883 1.396 . S
C882 C887 1.390 . S
C883 C877 1.465 . S
C883 C882 1.396 . S
C883 C884 1.399 . S
C884 H870 0.929 . S
C884 C883 1.399 . S
C884 C885 1.385 . S
C885 H871 0.931 . S
C885 C884 1.385 . S
C885 C886 1.389 . S
C886 C885 1.389 . S
C886 C887 1.387 . S
C887 H872 0.930 . S
C887 C882 1.390 . S
C887 C886 1.387 . S
H888 C900 0.930 . S
H889 C902 0.930 . S
H890 C903 0.930 . S
H891 C907 0.959 . S
H892 C907 0.959 . S
H893 C907 0.961 . S
H894 C908 0.960 . S
H895 C908 0.961 . S
H896 C908 0.959 . S
H897 C911 0.929 . S
H898 C912 0.931 . S
H899 C914 0.930 . S
C900 H888 0.930 . S
C900 C901 1.399 . S
C900 C905 1.399 . S
C901 C900 1.399 . S
C901 C902 1.376 . S
C902 H889 0.930 . S
C902 C901 1.376 . S
C902 C903 1.388 . S
C903 H890 0.930 . S
C903 C902 1.388 . S
C903 C904 1.390 . S
C904 C903 1.390 . S
C904 C905 1.394 . S
C904 C910 1.465 . S
C905 C900 1.399 . S
C905 C904 1.394 . S
C905 C906 1.516 . S
C906 C905 1.516 . S
C906 C907 1.502 . S
C906 C908 1.561 . S
C906 C909 1.526 . S
C907 H891 0.959 . S
C907 H892 0.959 . S
C907 H893 0.961 . S
C907 C906 1.502 . S
C908 H894 0.960 . S
C908 H895 0.961 . S
C908 H896 0.959 . S
C908 C906 1.561 . S
C909 C906 1.526 . S
C909 C910 1.396 . S
C909 C914 1.390 . S
C910 C904 1.465 . S
C910 C909 1.396 . S
C910 C911 1.399 . S
C911 H897 0.929 . S
C911 C910 1.399 . S
C911 C912 1.385 . S
C912 H898 0.931 . S
C912 C911 1.385 . S
C912 C913 1.389 . S
C913 C912 1.389 . S
C913 C914 1.387 . S
C914 H899 0.930 . S
C914 C909 1.390 . S
C914 C913 1.387 . S
H915 C927 0.930 . S
H916 C929 0.930 . S
H917 C930 0.930 . S
H918 C934 0.959 . S
H919 C934 0.959 . S
H920 C934 0.961 . S
H921 C935 0.960 . S
H922 C935 0.961 . S
H923 C935 0.959 . S
H924 C938 0.929 . S
H925 C939 0.931 . S
H926 C941 0.930 . S
C927 H915 0.930 . S
C927 C928 1.399 . S
C927 C932 1.399 . S
C928 C927 1.399 . S
C928 C929 1.376 . S
C929 H916 0.930 . S
C929 C928 1.376 . S
C929 C930 1.388 . S
C930 H917 0.930 . S
C930 C929 1.388 . S
C930 C931 1.390 . S
C931 C930 1.390 . S
C931 C932 1.394 . S
C931 C937 1.465 . S
C932 C927 1.399 . S
C932 C931 1.394 . S
C932 C933 1.516 . S
C933 C932 1.516 . S
C933 C934 1.502 . S
C933 C935 1.561 . S
C933 C936 1.526 . S
C934 H918 0.959 . S
C934 H919 0.959 . S
C934 H920 0.961 . S
C934 C933 1.502 . S
C935 H921 0.960 . S
C935 H922 0.961 . S
C935 H923 0.959 . S
C935 C933 1.561 . S
C936 C933 1.526 . S
C936 C937 1.396 . S
C936 C941 1.390 . S
C937 C931 1.465 . S
C937 C936 1.396 . S
C937 C938 1.399 . S
C938 H924 0.929 . S
C938 C937 1.399 . S
C938 C939 1.385 . S
C939 H925 0.931 . S
C939 C938 1.385 . S
C939 C940 1.389 . S
C940 C939 1.389 . S
C940 C941 1.387 . S
C941 H926 0.930 . S
C941 C936 1.390 . S
C941 C940 1.387 . S
H942 C954 0.930 . S
H943 C956 0.930 . S
H944 C957 0.930 . S
H945 C961 0.959 . S
H946 C961 0.959 . S
H947 C961 0.961 . S
H948 C962 0.960 . S
H949 C962 0.961 . S
H950 C962 0.959 . S
H951 C965 0.929 . S
H952 C966 0.931 . S
H953 C968 0.930 . S
C954 H942 0.930 . S
C954 C955 1.399 . S
C954 C959 1.399 . S
C955 C954 1.399 . S
C955 C956 1.376 . S
C956 H943 0.930 . S
C956 C955 1.376 . S
C956 C957 1.388 . S
C957 H944 0.930 . S
C957 C956 1.388 . S
C957 C958 1.390 . S
C958 C957 1.390 . S
C958 C959 1.394 . S
C958 C964 1.465 . S
C959 C954 1.399 . S
C959 C958 1.394 . S
C959 C960 1.516 . S
C960 C959 1.516 . S
C960 C961 1.502 . S
C960 C962 1.561 . S
C960 C963 1.526 . S
C961 H945 0.959 . S
C961 H946 0.959 . S
C961 H947 0.961 . S
C961 C960 1.502 . S
C962 H948 0.960 . S
C962 H949 0.961 . S
C962 H950 0.959 . S
C962 C960 1.561 . S
C963 C960 1.526 . S
C963 C964 1.396 . S
C963 C968 1.390 . S
C964 C958 1.465 . S
C964 C963 1.396 . S
C964 C965 1.399 . S
C965 H951 0.929 . S
C965 C964 1.399 . S
C965 C966 1.385 . S
C966 H952 0.931 . S
C966 C965 1.385 . S
C966 C967 1.389 . S
C967 C966 1.389 . S
C967 C968 1.387 . S
C968 H953 0.930 . S
C968 C963 1.390 . S
C968 C967 1.387 . S
H969 C981 0.930 . S
H970 C983 0.930 . S
H971 C984 0.930 . S
H972 C988 0.959 . S
H973 C988 0.959 . S
H974 C988 0.961 . S
H975 C989 0.960 . S
H976 C989 0.961 . S
H977 C989 0.959 . S
H978 C992 0.929 . S
H979 C993 0.931 . S
H980 C995 0.930 . S
C981 H969 0.930 . S
C981 C982 1.399 . S
C981 C986 1.399 . S
C982 C981 1.399 . S
C982 C983 1.376 . S
C983 H970 0.930 . S
C983 C982 1.376 . S
C983 C984 1.388 . S
C984 H971 0.930 . S
C984 C983 1.388 . S
C984 C985 1.390 . S
C985 C984 1.390 . S
C985 C986 1.394 . S
C985 C991 1.465 . S
C986 C981 1.399 . S
C986 C985 1.394 . S
C986 C987 1.516 . S
C987 C986 1.516 . S
C987 C988 1.502 . S
C987 C989 1.561 . S
C987 C990 1.526 . S
C988 H972 0.959 . S
C988 H973 0.959 . S
C988 H974 0.961 . S
C988 C987 1.502 . S
C989 H975 0.960 . S
C989 H976 0.961 . S
C989 H977 0.959 . S
C989 C987 1.561 . S
C990 C987 1.526 . S
C990 C991 1.396 . S
C990 C995 1.390 . S
C991 C985 1.465 . S
C991 C990 1.396 . S
C991 C992 1.399 . S
C992 H978 0.929 . S
C992 C991 1.399 . S
C992 C993 1.385 . S
C993 H979 0.931 . S
C993 C992 1.385 . S
C993 C994 1.389 . S
C994 C993 1.389 . S
C994 C995 1.387 . S
C995 H980 0.930 . S
C995 C990 1.390 . S
C995 C994 1.387 . S
H996 C1008 0.930 . S
H997 C1010 0.930 . S
H998 C1011 0.930 . S
H999 C1015 0.959 . S
H1000 C1015 0.959 . S
H1001 C1015 0.961 . S
H1002 C1016 0.960 . S
H1003 C1016 0.961 . S
H1004 C1016 0.959 . S
H1005 C1019 0.929 . S
H1006 C1020 0.931 . S
H1007 C1022 0.930 . S
C1008 H996 0.930 . S
C1008 C1009 1.399 . S
C1008 C1013 1.399 . S
C1009 C1008 1.399 . S
C1009 C1010 1.376 . S
C1010 H997 0.930 . S
C1010 C1009 1.376 . S
C1010 C1011 1.388 . S
C1011 H998 0.930 . S
C1011 C1010 1.388 . S
C1011 C1012 1.390 . S
C1012 C1011 1.390 . S
C1012 C1013 1.394 . S
C1012 C1018 1.465 . S
C1013 C1008 1.399 . S
C1013 C1012 1.394 . S
C1013 C1014 1.516 . S
C1014 C1013 1.516 . S
C1014 C1015 1.502 . S
C1014 C1016 1.561 . S
C1014 C1017 1.526 . S
C1015 H999 0.959 . S
C1015 H1000 0.959 . S
C1015 H1001 0.961 . S
C1015 C1014 1.502 . S
C1016 H1002 0.960 . S
C1016 H1003 0.961 . S
C1016 H1004 0.959 . S
C1016 C1014 1.561 . S
C1017 C1014 1.526 . S
C1017 C1018 1.396 . S
C1017 C1022 1.390 . S
C1018 C1012 1.465 . S
C1018 C1017 1.396 . S
C1018 C1019 1.399 . S
C1019 H1005 0.929 . S
C1019 C1018 1.399 . S
C1019 C1020 1.385 . S
C1020 H1006 0.931 . S
C1020 C1019 1.385 . S
C1020 C1021 1.389 . S
C1021 C1020 1.389 . S
C1021 C1022 1.387 . S
C1022 H1007 0.930 . S
C1022 C1017 1.390 . S
C1022 C1021 1.387 . S
H1023 C1035 0.930 . S
H1024 C1037 0.930 . S
H1025 C1038 0.930 . S
H1026 C1042 0.959 . S
H1027 C1042 0.959 . S
H1028 C1042 0.961 . S
H1029 C1043 0.960 . S
H1030 C1043 0.961 . S
H1031 C1043 0.959 . S
H1032 C1046 0.929 . S
H1033 C1047 0.931 . S
H1034 C1049 0.930 . S
C1035 H1023 0.930 . S
C1035 C1036 1.399 . S
C1035 C1040 1.399 . S
C1036 C1035 1.399 . S
C1036 C1037 1.376 . S
C1037 H1024 0.930 . S
C1037 C1036 1.376 . S
C1037 C1038 1.388 . S
C1038 H1025 0.930 . S
C1038 C1037 1.388 . S
C1038 C1039 1.390 . S
C1039 C1038 1.390 . S
C1039 C1040 1.394 . S
C1039 C1045 1.465 . S
C1040 C1035 1.399 . S
C1040 C1039 1.394 . S
C1040 C1041 1.516 . S
C1041 C1040 1.516 . S
C1041 C1042 1.502 . S
C1041 C1043 1.561 . S
C1041 C1044 1.526 . S
C1042 H1026 0.959 . S
C1042 H1027 0.959 . S
C1042 H1028 0.961 . S
C1042 C1041 1.502 . S
C1043 H1029 0.960 . S
C1043 H1030 0.961 . S
C1043 H1031 0.959 . S
C1043 C1041 1.561 . S
C1044 C1041 1.526 . S
C1044 C1045 1.396 . S
C1044 C1049 1.390 . S
C1045 C1039 1.465 . S
C1045 C1044 1.396 . S
C1045 C1046 1.399 . S
C1046 H1032 0.929 . S
C1046 C1045 1.399 . S
C1046 C1047 1.385 . S
C1047 H1033 0.931 . S
C1047 C1046 1.385 . S
C1047 C1048 1.389 . S
C1048 C1047 1.389 . S
C1048 C1049 1.387 . S
C1049 H1034 0.930 . S
C1049 C1044 1.390 . S
C1049 C1048 1.387 . S
H1050 C1062 0.930 . S
H1051 C1064 0.930 . S
H1052 C1065 0.930 . S
H1053 C1069 0.959 . S
H1054 C1069 0.959 . S
H1055 C1069 0.961 . S
H1056 C1070 0.960 . S
H1057 C1070 0.961 . S
H1058 C1070 0.959 . S
H1059 C1073 0.929 . S
H1060 C1074 0.931 . S
H1061 C1076 0.930 . S
C1062 H1050 0.930 . S
C1062 C1063 1.399 . S
C1062 C1067 1.399 . S
C1063 C1062 1.399 . S
C1063 C1064 1.376 . S
C1064 H1051 0.930 . S
C1064 C1063 1.376 . S
C1064 C1065 1.388 . S
C1065 H1052 0.930 . S
C1065 C1064 1.388 . S
C1065 C1066 1.390 . S
C1066 C1065 1.390 . S
C1066 C1067 1.394 . S
C1066 C1072 1.465 . S
C1067 C1062 1.399 . S
C1067 C1066 1.394 . S
C1067 C1068 1.516 . S
C1068 C1067 1.516 . S
C1068 C1069 1.502 . S
C1068 C1070 1.561 . S
C1068 C1071 1.526 . S
C1069 H1053 0.959 . S
C1069 H1054 0.959 . S
C1069 H1055 0.961 . S
C1069 C1068 1.502 . S
C1070 H1056 0.960 . S
C1070 H1057 0.961 . S
C1070 H1058 0.959 . S
C1070 C1068 1.561 . S
C1071 C1068 1.526 . S
C1071 C1072 1.396 . S
C1071 C1076 1.390 . S
C1072 C1066 1.465 . S
C1072 C1071 1.396 . S
C1072 C1073 1.399 . S
C1073 H1059 0.929 . S
C1073 C1072 1.399 . S
C1073 C1074 1.385 . S
C1074 H1060 0.931 . S
C1074 C1073 1.385 . S
C1074 C1075 1.389 . S
C1075 C1074 1.389 . S
C1075 C1076 1.387 . S
C1076 H1061 0.930 . S
C1076 C1071 1.390 . S
C1076 C1075 1.387 . S
H1077 C1089 0.930 . S
H1078 C1091 0.930 . S
H1079 C1092 0.930 . S
H1080 C1096 0.959 . S
H1081 C1096 0.959 . S
H1082 C1096 0.961 . S
H1083 C1097 0.960 . S
H1084 C1097 0.961 . S
H1085 C1097 0.959 . S
H1086 C1100 0.929 . S
H1087 C1101 0.931 . S
H1088 C1103 0.930 . S
C1089 H1077 0.930 . S
C1089 C1090 1.399 . S
C1089 C1094 1.399 . S
C1090 C1089 1.399 . S
C1090 C1091 1.376 . S
C1091 H1078 0.930 . S
C1091 C1090 1.376 . S
C1091 C1092 1.388 . S
C1092 H1079 0.930 . S
C1092 C1091 1.388 . S
C1092 C1093 1.390 . S
C1093 C1092 1.390 . S
C1093 C1094 1.394 . S
C1093 C1099 1.465 . S
C1094 C1089 1.399 . S
C1094 C1093 1.394 . S
C1094 C1095 1.516 . S
C1095 C1094 1.516 . S
C1095 C1096 1.502 . S
C1095 C1097 1.561 . S
C1095 C1098 1.526 . S
C1096 H1080 0.959 . S
C1096 H1081 0.959 . S
C1096 H1082 0.961 . S
C1096 C1095 1.502 . S
C1097 H1083 0.960 . S
C1097 H1084 0.961 . S
C1097 H1085 0.959 . S
C1097 C1095 1.561 . S
C1098 C1095 1.526 . S
C1098 C1099 1.396 . S
C1098 C1103 1.390 . S
C1099 C1093 1.465 . S
C1099 C1098 1.396 . S
C1099 C1100 1.399 . S
C1100 H1086 0.929 . S
C1100 C1099 1.399 . S
C1100 C1101 1.385 . S
C1101 H1087 0.931 . S
C1101 C1100 1.385 . S
C1101 C1102 1.389 . S
C1102 C1101 1.389 . S
C1102 C1103 1.387 . S
C1103 H1088 0.930 . S
C1103 C1098 1.390 . S
C1103 C1102 1.387 . S
H1104 C1116 0.930 . S
H1105 C1118 0.930 . S
H1106 C1119 0.930 . S
H1107 C1123 0.959 . S
H1108 C1123 0.959 . S
H1109 C1123 0.961 . S
H1110 C1124 0.960 . S
H1111 C1124 0.961 . S
H1112 C1124 0.959 . S
H1113 C1127 0.929 . S
H1114 C1128 0.931 . S
H1115 C1130 0.930 . S
C1116 H1104 0.930 . S
C1116 C1117 1.399 1_545 S
C1116 C1121 1.399 . S
C1117 C1116 1.399 1_565 S
C1117 C1118 1.376 . S
C1118 H1105 0.930 . S
C1118 C1117 1.376 . S
C1118 C1119 1.388 . S
C1119 H1106 0.930 . S
C1119 C1118 1.388 . S
C1119 C1120 1.390 . S
C1120 C1119 1.390 . S
C1120 C1121 1.394 1_565 S
C1120 C1126 1.465 . S
C1121 C1116 1.399 . S
C1121 C1120 1.394 1_545 S
C1121 C1122 1.516 . S
C1122 C1121 1.516 . S
C1122 C1123 1.502 . S
C1122 C1124 1.561 . S
C1122 C1125 1.526 . S
C1123 H1107 0.959 . S
C1123 H1108 0.959 . S
C1123 H1109 0.961 . S
C1123 C1122 1.502 . S
C1124 H1110 0.960 . S
C1124 H1111 0.961 . S
C1124 H1112 0.959 . S
C1124 C1122 1.561 . S
C1125 C1122 1.526 . S
C1125 C1126 1.396 1_545 S
C1125 C1130 1.390 . S
C1126 C1120 1.465 . S
C1126 C1125 1.396 1_565 S
C1126 C1127 1.399 . S
C1127 H1113 0.929 . S
C1127 C1126 1.399 . S
C1127 C1128 1.385 . S
C1128 H1114 0.931 . S
C1128 C1127 1.385 . S
C1128 C1129 1.389 . S
C1129 C1128 1.389 . S
C1129 C1130 1.387 1_565 S
C1130 H1115 0.930 . S
C1130 C1125 1.390 . S
C1130 C1129 1.387 1_545 S
H1131 C1143 0.930 . S
H1132 C1145 0.930 . S
H1133 C1146 0.930 . S
H1134 C1150 0.959 . S
H1135 C1150 0.959 . S
H1136 C1150 0.961 . S
H1137 C1151 0.960 . S
H1138 C1151 0.961 . S
H1139 C1151 0.959 . S
H1140 C1154 0.929 . S
H1141 C1155 0.931 . S
H1142 C1157 0.930 . S
C1143 H1131 0.930 . S
C1143 C1144 1.399 . S
C1143 C1148 1.399 . S
C1144 C1143 1.399 . S
C1144 C1145 1.376 . S
C1145 H1132 0.930 . S
C1145 C1144 1.376 . S
C1145 C1146 1.388 . S
C1146 H1133 0.930 . S
C1146 C1145 1.388 . S
C1146 C1147 1.390 . S
C1147 C1146 1.390 . S
C1147 C1148 1.394 . S
C1147 C1153 1.465 1_455 S
C1148 C1143 1.399 . S
C1148 C1147 1.394 . S
C1148 C1149 1.516 . S
C1149 C1148 1.516 . S
C1149 C1150 1.502 . S
C1149 C1151 1.561 1_455 S
C1149 C1152 1.526 1_455 S
C1150 H1134 0.959 . S
C1150 H1135 0.959 . S
C1150 H1136 0.961 . S
C1150 C1149 1.502 . S
C1151 H1137 0.960 . S
C1151 H1138 0.961 . S
C1151 H1139 0.959 . S
C1151 C1149 1.561 1_655 S
C1152 C1149 1.526 1_655 S
C1152 C1153 1.396 . S
C1152 C1157 1.390 . S
C1153 C1147 1.465 1_655 S
C1153 C1152 1.396 . S
C1153 C1154 1.399 . S
C1154 H1140 0.929 . S
C1154 C1153 1.399 . S
C1154 C1155 1.385 . S
C1155 H1141 0.931 . S
C1155 C1154 1.385 . S
C1155 C1156 1.389 . S
C1156 C1155 1.389 . S
C1156 C1157 1.387 . S
C1157 H1142 0.930 . S
C1157 C1152 1.390 . S
C1157 C1156 1.387 . S
H1158 C1170 0.930 . S
H1159 C1172 0.930 . S
H1160 C1173 0.930 . S
H1161 C1177 0.959 . S
H1162 C1177 0.959 1_554 S
H1163 C1177 0.961 . S
H1164 C1178 0.960 . S
H1165 C1178 0.961 . S
H1166 C1178 0.959 . S
H1167 C1181 0.929 . S
H1168 C1182 0.931 . S
H1169 C1184 0.930 . S
C1170 H1158 0.930 . S
C1170 C1171 1.399 . S
C1170 C1175 1.399 . S
C1171 C1170 1.399 . S
C1171 C1172 1.376 . S
C1172 H1159 0.930 . S
C1172 C1171 1.376 . S
C1172 C1173 1.388 . S
C1173 H1160 0.930 . S
C1173 C1172 1.388 . S
C1173 C1174 1.390 . S
C1174 C1173 1.390 . S
C1174 C1175 1.394 . S
C1174 C1180 1.465 1_556 S
C1175 C1170 1.399 . S
C1175 C1174 1.394 . S
C1175 C1176 1.516 1_556 S
C1176 C1175 1.516 1_554 S
C1176 C1177 1.502 1_554 S
C1176 C1178 1.561 . S
C1176 C1179 1.526 . S
C1177 H1161 0.959 . S
C1177 H1162 0.959 1_556 S
C1177 H1163 0.961 . S
C1177 C1176 1.502 1_556 S
C1178 H1164 0.960 . S
C1178 H1165 0.961 . S
C1178 H1166 0.959 . S
C1178 C1176 1.561 . S
C1179 C1176 1.526 . S
C1179 C1180 1.396 . S
C1179 C1184 1.390 . S
C1180 C1174 1.465 1_554 S
C1180 C1179 1.396 . S
C1180 C1181 1.399 . S
C1181 H1167 0.929 . S
C1181 C1180 1.399 . S
C1181 C1182 1.385 . S
C1182 H1168 0.931 . S
C1182 C1181 1.385 . S
C1182 C1183 1.389 . S
C1183 C1182 1.389 . S
C1183 C1184 1.387 . S
C1184 H1169 0.930 . S
C1184 C1179 1.390 . S
C1184 C1183 1.387 . S
H1185 C1197 0.930 . S
H1186 C1199 0.930 . S
H1187 C1200 0.930 . S
H1188 C1204 0.959 . S
H1189 C1204 0.959 . S
H1190 C1204 0.961 . S
H1191 C1205 0.960 . S
H1192 C1205 0.961 1_556 S
H1193 C1205 0.959 . S
H1194 C1208 0.929 . S
H1195 C1209 0.931 . S
H1196 C1211 0.930 . S
C1197 H1185 0.930 . S
C1197 C1198 1.399 . S
C1197 C1202 1.399 . S
C1198 C1197 1.399 . S
C1198 C1199 1.376 1_545 S
C1199 H1186 0.930 . S
C1199 C1198 1.376 1_565 S
C1199 C1200 1.388 . S
C1200 H1187 0.930 . S
C1200 C1199 1.388 . S
C1200 C1201 1.390 . S
C1201 C1200 1.390 . S
C1201 C1202 1.394 1_565 S
C1201 C1207 1.465 1_654 S
C1202 C1197 1.399 . S
C1202 C1201 1.394 1_545 S
C1202 C1203 1.516 1_554 S
C1203 C1202 1.516 1_556 S
C1203 C1204 1.502 . S
C1203 C1205 1.561 1_656 S
C1203 C1206 1.526 1_655 S
C1204 H1188 0.959 . S
C1204 H1189 0.959 . S
C1204 H1190 0.961 . S
C1204 C1203 1.502 . S
C1205 H1191 0.960 . S
C1205 H1192 0.961 1_554 S
C1205 H1193 0.959 . S
C1205 C1203 1.561 1_454 S
C1206 C1203 1.526 1_455 S
C1206 C1207 1.396 1_545 S
C1206 C1211 1.390 . S
C1207 C1201 1.465 1_456 S
C1207 C1206 1.396 1_565 S
C1207 C1208 1.399 . S
C1208 H1194 0.929 . S
C1208 C1207 1.399 . S
C1208 C1209 1.385 . S
C1209 H1195 0.931 . S
C1209 C1208 1.385 . S
C1209 C1210 1.389 . S
C1210 C1209 1.389 . S
C1210 C1211 1.387 1_565 S
C1211 H1196 0.930 . S
C1211 C1206 1.390 . S
C1211 C1210 1.387 1_545 S
H1212 C1224 0.930 . S
H1213 C1226 0.930 . S
H1214 C1227 0.930 . S
H1215 C1231 0.959 . S
H1216 C1231 0.959 . S
H1217 C1231 0.961 . S
H1218 C1232 0.960 . S
H1219 C1232 0.961 . S
H1220 C1232 0.959 . S
H1221 C1235 0.929 . S
H1222 C1236 0.931 . S
H1223 C1238 0.930 . S
C1224 H1212 0.930 . S
C1224 C1225 1.399 1_545 S
C1224 C1229 1.399 . S
C1225 C1224 1.399 1_565 S
C1225 C1226 1.376 . S
C1226 H1213 0.930 . S
C1226 C1225 1.376 . S
C1226 C1227 1.388 . S
C1227 H1214 0.930 . S
C1227 C1226 1.388 . S
C1227 C1228 1.390 . S
C1228 C1227 1.390 . S
C1228 C1229 1.394 1_565 S
C1228 C1234 1.465 . S
C1229 C1224 1.399 . S
C1229 C1228 1.394 1_545 S
C1229 C1230 1.516 . S
C1230 C1229 1.516 . S
C1230 C1231 1.502 . S
C1230 C1232 1.561 . S
C1230 C1233 1.526 . S
C1231 H1215 0.959 . S
C1231 H1216 0.959 . S
C1231 H1217 0.961 . S
C1231 C1230 1.502 . S
C1232 H1218 0.960 . S
C1232 H1219 0.961 . S
C1232 H1220 0.959 . S
C1232 C1230 1.561 . S
C1233 C1230 1.526 . S
C1233 C1234 1.396 1_545 S
C1233 C1238 1.390 . S
C1234 C1228 1.465 . S
C1234 C1233 1.396 1_565 S
C1234 C1235 1.399 . S
C1235 H1221 0.929 . S
C1235 C1234 1.399 . S
C1235 C1236 1.385 . S
C1236 H1222 0.931 . S
C1236 C1235 1.385 . S
C1236 C1237 1.389 . S
C1237 C1236 1.389 . S
C1237 C1238 1.387 1_565 S
C1238 H1223 0.930 . S
C1238 C1233 1.390 . S
C1238 C1237 1.387 1_545 S
H1239 C1251 0.930 . S
H1240 C1253 0.930 . S
H1241 C1254 0.930 1_655 S
H1242 C1258 0.959 . S
H1243 C1258 0.959 . S
H1244 C1258 0.961 . S
H1245 C1259 0.960 . S
H1246 C1259 0.961 . S
H1247 C1259 0.959 1_655 S
H1248 C1262 0.929 . S
H1249 C1263 0.931 . S
H1250 C1265 0.930 . S
C1251 H1239 0.930 . S
C1251 C1252 1.399 . S
C1251 C1256 1.399 . S
C1252 C1251 1.399 . S
C1252 C1253 1.376 . S
C1253 H1240 0.930 . S
C1253 C1252 1.376 . S
C1253 C1254 1.388 . S
C1254 H1241 0.930 1_455 S
C1254 C1253 1.388 . S
C1254 C1255 1.390 . S
C1255 C1254 1.390 . S
C1255 C1256 1.394 . S
C1255 C1261 1.465 1_455 S
C1256 C1251 1.399 . S
C1256 C1255 1.394 . S
C1256 C1257 1.516 . S
C1257 C1256 1.516 . S
C1257 C1258 1.502 . S
C1257 C1259 1.561 . S
C1257 C1260 1.526 1_455 S
C1258 H1242 0.959 . S
C1258 H1243 0.959 . S
C1258 H1244 0.961 . S
C1258 C1257 1.502 . S
C1259 H1245 0.960 . S
C1259 H1246 0.961 . S
C1259 H1247 0.959 1_455 S
C1259 C1257 1.561 . S
C1260 C1257 1.526 1_655 S
C1260 C1261 1.396 . S
C1260 C1265 1.390 . S
C1261 C1255 1.465 1_655 S
C1261 C1260 1.396 . S
C1261 C1262 1.399 . S
C1262 H1248 0.929 . S
C1262 C1261 1.399 . S
C1262 C1263 1.385 . S
C1263 H1249 0.931 . S
C1263 C1262 1.385 . S
C1263 C1264 1.389 . S
C1264 C1263 1.389 . S
C1264 C1265 1.387 . S
C1265 H1250 0.930 . S
C1265 C1260 1.390 . S
C1265 C1264 1.387 . S
H1266 C1278 0.930 . S
H1267 C1280 0.930 . S
H1268 C1281 0.930 . S
H1269 C1285 0.959 . S
H1270 C1285 0.959 1_554 S
H1271 C1285 0.961 . S
H1272 C1286 0.960 . S
H1273 C1286 0.961 . S
H1274 C1286 0.959 . S
H1275 C1289 0.929 . S
H1276 C1290 0.931 . S
H1277 C1292 0.930 . S
C1278 H1266 0.930 . S
C1278 C1279 1.399 . S
C1278 C1283 1.399 . S
C1279 C1278 1.399 . S
C1279 C1280 1.376 . S
C1280 H1267 0.930 . S
C1280 C1279 1.376 . S
C1280 C1281 1.388 . S
C1281 H1268 0.930 . S
C1281 C1280 1.388 . S
C1281 C1282 1.390 . S
C1282 C1281 1.390 . S
C1282 C1283 1.394 . S
C1282 C1288 1.465 1_556 S
C1283 C1278 1.399 . S
C1283 C1282 1.394 . S
C1283 C1284 1.516 1_556 S
C1284 C1283 1.516 1_554 S
C1284 C1285 1.502 1_554 S
C1284 C1286 1.561 . S
C1284 C1287 1.526 . S
C1285 H1269 0.959 . S
C1285 H1270 0.959 1_556 S
C1285 H1271 0.961 . S
C1285 C1284 1.502 1_556 S
C1286 H1272 0.960 . S
C1286 H1273 0.961 . S
C1286 H1274 0.959 . S
C1286 C1284 1.561 . S
C1287 C1284 1.526 . S
C1287 C1288 1.396 . S
C1287 C1292 1.390 . S
C1288 C1282 1.465 1_554 S
C1288 C1287 1.396 . S
C1288 C1289 1.399 . S
C1289 H1275 0.929 . S
C1289 C1288 1.399 . S
C1289 C1290 1.385 . S
C1290 H1276 0.931 . S
C1290 C1289 1.385 . S
C1290 C1291 1.389 . S
C1291 C1290 1.389 . S
C1291 C1292 1.387 . S
C1292 H1277 0.930 . S
C1292 C1287 1.390 . S
C1292 C1291 1.387 . S
H1293 C1305 0.930 . S
H1294 C1307 0.930 . S
H1295 C1308 0.930 . S
H1296 C1312 0.959 . S
H1297 C1312 0.959 . S
H1298 C1312 0.961 . S
H1299 C1313 0.960 . S
H1300 C1313 0.961 . S
H1301 C1313 0.959 . S
H1302 C1316 0.929 . S
H1303 C1317 0.931 . S
H1304 C1319 0.930 . S
C1305 H1293 0.930 . S
C1305 C1306 1.399 . S
C1305 C1310 1.399 . S
C1306 C1305 1.399 . S
C1306 C1307 1.376 . S
C1307 H1294 0.930 . S
C1307 C1306 1.376 . S
C1307 C1308 1.388 . S
C1308 H1295 0.930 . S
C1308 C1307 1.388 . S
C1308 C1309 1.390 . S
C1309 C1308 1.390 . S
C1309 C1310 1.394 . S
C1309 C1315 1.465 . S
C1310 C1305 1.399 . S
C1310 C1309 1.394 . S
C1310 C1311 1.516 . S
C1311 C1310 1.516 . S
C1311 C1312 1.502 . S
C1311 C1313 1.561 . S
C1311 C1314 1.526 . S
C1312 H1296 0.959 . S
C1312 H1297 0.959 . S
C1312 H1298 0.961 . S
C1312 C1311 1.502 . S
C1313 H1299 0.960 . S
C1313 H1300 0.961 . S
C1313 H1301 0.959 . S
C1313 C1311 1.561 . S
C1314 C1311 1.526 . S
C1314 C1315 1.396 . S
C1314 C1319 1.390 . S
C1315 C1309 1.465 . S
C1315 C1314 1.396 . S
C1315 C1316 1.399 . S
C1316 H1302 0.929 . S
C1316 C1315 1.399 . S
C1316 C1317 1.385 . S
C1317 H1303 0.931 . S
C1317 C1316 1.385 . S
C1317 C1318 1.389 . S
C1318 C1317 1.389 . S
C1318 C1319 1.387 . S
C1319 H1304 0.930 . S
C1319 C1314 1.390 . S
C1319 C1318 1.387 . S
H1320 C1332 0.930 . S
H1321 C1334 0.930 . S
H1322 C1335 0.930 . S
H1323 C1339 0.959 . S
H1324 C1339 0.959 . S
H1325 C1339 0.961 . S
H1326 C1340 0.960 . S
H1327 C1340 0.961 . S
H1328 C1340 0.959 . S
H1329 C1343 0.929 . S
H1330 C1344 0.931 . S
H1331 C1346 0.930 . S
C1332 H1320 0.930 . S
C1332 C1333 1.399 . S
C1332 C1337 1.399 . S
C1333 C1332 1.399 . S
C1333 C1334 1.376 . S
C1334 H1321 0.930 . S
C1334 C1333 1.376 . S
C1334 C1335 1.388 . S
C1335 H1322 0.930 . S
C1335 C1334 1.388 . S
C1335 C1336 1.390 . S
C1336 C1335 1.390 . S
C1336 C1337 1.394 . S
C1336 C1342 1.465 . S
C1337 C1332 1.399 . S
C1337 C1336 1.394 . S
C1337 C1338 1.516 . S
C1338 C1337 1.516 . S
C1338 C1339 1.502 . S
C1338 C1340 1.561 . S
C1338 C1341 1.526 . S
C1339 H1323 0.959 . S
C1339 H1324 0.959 . S
C1339 H1325 0.961 . S
C1339 C1338 1.502 . S
C1340 H1326 0.960 . S
C1340 H1327 0.961 . S
C1340 H1328 0.959 . S
C1340 C1338 1.561 . S
C1341 C1338 1.526 . S
C1341 C1342 1.396 . S
C1341 C1346 1.390 . S
C1342 C1336 1.465 . S
C1342 C1341 1.396 . S
C1342 C1343 1.399 . S
C1343 H1329 0.929 . S
C1343 C1342 1.399 . S
C1343 C1344 1.385 . S
C1344 H1330 0.931 . S
C1344 C1343 1.385 . S
C1344 C1345 1.389 . S
C1345 C1344 1.389 . S
C1345 C1346 1.387 . S
C1346 H1331 0.930 . S
C1346 C1341 1.390 . S
C1346 C1345 1.387 . S
H1347 C1359 0.930 . S
H1348 C1361 0.930 . S
H1349 C1362 0.930 . S
H1350 C1366 0.959 . S
H1351 C1366 0.959 . S
H1352 C1366 0.961 . S
H1353 C1367 0.960 . S
H1354 C1367 0.961 1_655 S
H1355 C1367 0.959 . S
H1356 C1370 0.929 1_455 S
H1357 C1371 0.931 . S
H1358 C1373 0.930 . S
C1359 H1347 0.930 . S
C1359 C1360 1.399 . S
C1359 C1364 1.399 . S
C1360 C1359 1.399 . S
C1360 C1361 1.376 . S
C1361 H1348 0.930 . S
C1361 C1360 1.376 . S
C1361 C1362 1.388 . S
C1362 H1349 0.930 . S
C1362 C1361 1.388 . S
C1362 C1363 1.390 . S
C1363 C1362 1.390 . S
C1363 C1364 1.394 . S
C1363 C1369 1.465 1_455 S
C1364 C1359 1.399 . S
C1364 C1363 1.394 . S
C1364 C1365 1.516 1_455 S
C1365 C1364 1.516 1_655 S
C1365 C1366 1.502 . S
C1365 C1367 1.561 1_655 S
C1365 C1368 1.526 . S
C1366 H1350 0.959 . S
C1366 H1351 0.959 . S
C1366 H1352 0.961 . S
C1366 C1365 1.502 . S
C1367 H1353 0.960 . S
C1367 H1354 0.961 1_455 S
C1367 H1355 0.959 . S
C1367 C1365 1.561 1_455 S
C1368 C1365 1.526 . S
C1368 C1369 1.396 . S
C1368 C1373 1.390 . S
C1369 C1363 1.465 1_655 S
C1369 C1368 1.396 . S
C1369 C1370 1.399 . S
C1370 H1356 0.929 1_655 S
C1370 C1369 1.399 . S
C1370 C1371 1.385 . S
C1371 H1357 0.931 . S
C1371 C1370 1.385 . S
C1371 C1372 1.389 . S
C1372 C1371 1.389 . S
C1372 C1373 1.387 . S
C1373 H1358 0.930 . S
C1373 C1368 1.390 . S
C1373 C1372 1.387 . S
H1374 C1386 0.930 . S
H1375 C1388 0.930 . S
H1376 C1389 0.930 . S
H1377 C1393 0.959 . S
H1378 C1393 0.959 . S
H1379 C1393 0.961 . S
H1380 C1394 0.960 . S
H1381 C1394 0.961 . S
H1382 C1394 0.959 . S
H1383 C1397 0.929 . S
H1384 C1398 0.931 . S
H1385 C1400 0.930 . S
C1386 H1374 0.930 . S
C1386 C1387 1.399 . S
C1386 C1391 1.399 . S
C1387 C1386 1.399 . S
C1387 C1388 1.376 . S
C1388 H1375 0.930 . S
C1388 C1387 1.376 . S
C1388 C1389 1.388 . S
C1389 H1376 0.930 . S
C1389 C1388 1.388 . S
C1389 C1390 1.390 . S
C1390 C1389 1.390 . S
C1390 C1391 1.394 . S
C1390 C1396 1.465 . S
C1391 C1386 1.399 . S
C1391 C1390 1.394 . S
C1391 C1392 1.516 . S
C1392 C1391 1.516 . S
C1392 C1393 1.502 . S
C1392 C1394 1.561 . S
C1392 C1395 1.526 . S
C1393 H1377 0.959 . S
C1393 H1378 0.959 . S
C1393 H1379 0.961 . S
C1393 C1392 1.502 . S
C1394 H1380 0.960 . S
C1394 H1381 0.961 . S
C1394 H1382 0.959 . S
C1394 C1392 1.561 . S
C1395 C1392 1.526 . S
C1395 C1396 1.396 . S
C1395 C1400 1.390 . S
C1396 C1390 1.465 . S
C1396 C1395 1.396 . S
C1396 C1397 1.399 . S
C1397 H1383 0.929 . S
C1397 C1396 1.399 . S
C1397 C1398 1.385 . S
C1398 H1384 0.931 . S
C1398 C1397 1.385 . S
C1398 C1399 1.389 . S
C1399 C1398 1.389 . S
C1399 C1400 1.387 . S
C1400 H1385 0.930 . S
C1400 C1395 1.390 . S
C1400 C1399 1.387 . S
H1401 C1413 0.930 . S
H1402 C1415 0.930 . S
H1403 C1416 0.930 . S
H1404 C1420 0.959 . S
H1405 C1420 0.959 . S
H1406 C1420 0.961 . S
H1407 C1421 0.960 . S
H1408 C1421 0.961 . S
H1409 C1421 0.959 . S
H1410 C1424 0.929 . S
H1411 C1425 0.931 . S
H1412 C1427 0.930 . S
C1413 H1401 0.930 . S
C1413 C1414 1.399 . S
C1413 C1418 1.399 . S
C1414 C1413 1.399 . S
C1414 C1415 1.376 . S
C1415 H1402 0.930 . S
C1415 C1414 1.376 . S
C1415 C1416 1.388 . S
C1416 H1403 0.930 . S
C1416 C1415 1.388 . S
C1416 C1417 1.390 . S
C1417 C1416 1.390 . S
C1417 C1418 1.394 . S
C1417 C1423 1.465 . S
C1418 C1413 1.399 . S
C1418 C1417 1.394 . S
C1418 C1419 1.516 . S
C1419 C1418 1.516 . S
C1419 C1420 1.502 . S
C1419 C1421 1.561 . S
C1419 C1422 1.526 . S
C1420 H1404 0.959 . S
C1420 H1405 0.959 . S
C1420 H1406 0.961 . S
C1420 C1419 1.502 . S
C1421 H1407 0.960 . S
C1421 H1408 0.961 . S
C1421 H1409 0.959 . S
C1421 C1419 1.561 . S
C1422 C1419 1.526 . S
C1422 C1423 1.396 . S
C1422 C1427 1.390 . S
C1423 C1417 1.465 . S
C1423 C1422 1.396 . S
C1423 C1424 1.399 . S
C1424 H1410 0.929 . S
C1424 C1423 1.399 . S
C1424 C1425 1.385 . S
C1425 H1411 0.931 . S
C1425 C1424 1.385 . S
C1425 C1426 1.389 . S
C1426 C1425 1.389 . S
C1426 C1427 1.387 . S
C1427 H1412 0.930 . S
C1427 C1422 1.390 . S
C1427 C1426 1.387 . S
H1428 C1440 0.930 . S
H1429 C1442 0.930 . S
H1430 C1443 0.930 . S
H1431 C1447 0.959 . S
H1432 C1447 0.959 . S
H1433 C1447 0.961 . S
H1434 C1448 0.960 . S
H1435 C1448 0.961 . S
H1436 C1448 0.959 . S
H1437 C1451 0.929 . S
H1438 C1452 0.931 . S
H1439 C1454 0.930 . S
C1440 H1428 0.930 . S
C1440 C1441 1.399 . S
C1440 C1445 1.399 . S
C1441 C1440 1.399 . S
C1441 C1442 1.376 . S
C1442 H1429 0.930 . S
C1442 C1441 1.376 . S
C1442 C1443 1.388 . S
C1443 H1430 0.930 . S
C1443 C1442 1.388 . S
C1443 C1444 1.390 . S
C1444 C1443 1.390 . S
C1444 C1445 1.394 . S
C1444 C1450 1.465 . S
C1445 C1440 1.399 . S
C1445 C1444 1.394 . S
C1445 C1446 1.516 . S
C1446 C1445 1.516 . S
C1446 C1447 1.502 . S
C1446 C1448 1.561 . S
C1446 C1449 1.526 . S
C1447 H1431 0.959 . S
C1447 H1432 0.959 . S
C1447 H1433 0.961 . S
C1447 C1446 1.502 . S
C1448 H1434 0.960 . S
C1448 H1435 0.961 . S
C1448 H1436 0.959 . S
C1448 C1446 1.561 . S
C1449 C1446 1.526 . S
C1449 C1450 1.396 . S
C1449 C1454 1.390 . S
C1450 C1444 1.465 . S
C1450 C1449 1.396 . S
C1450 C1451 1.399 . S
C1451 H1437 0.929 . S
C1451 C1450 1.399 . S
C1451 C1452 1.385 . S
C1452 H1438 0.931 . S
C1452 C1451 1.385 . S
C1452 C1453 1.389 . S
C1453 C1452 1.389 . S
C1453 C1454 1.387 . S
C1454 H1439 0.930 . S
C1454 C1449 1.390 . S
C1454 C1453 1.387 . S
H1455 C1467 0.930 . S
H1456 C1469 0.930 . S
H1457 C1470 0.930 . S
H1458 C1474 0.959 . S
H1459 C1474 0.959 . S
H1460 C1474 0.961 . S
H1461 C1475 0.960 . S
H1462 C1475 0.961 . S
H1463 C1475 0.959 . S
H1464 C1478 0.929 . S
H1465 C1479 0.931 . S
H1466 C1481 0.930 . S
C1467 H1455 0.930 . S
C1467 C1468 1.399 1_565 S
C1467 C1472 1.399 . S
C1468 C1467 1.399 1_545 S
C1468 C1469 1.376 . S
C1469 H1456 0.930 . S
C1469 C1468 1.376 . S
C1469 C1470 1.388 . S
C1470 H1457 0.930 . S
C1470 C1469 1.388 . S
C1470 C1471 1.390 . S
C1471 C1470 1.390 . S
C1471 C1472 1.394 1_545 S
C1471 C1477 1.465 . S
C1472 C1467 1.399 . S
C1472 C1471 1.394 1_565 S
C1472 C1473 1.516 . S
C1473 C1472 1.516 . S
C1473 C1474 1.502 . S
C1473 C1475 1.561 . S
C1473 C1476 1.526 . S
C1474 H1458 0.959 . S
C1474 H1459 0.959 . S
C1474 H1460 0.961 . S
C1474 C1473 1.502 . S
C1475 H1461 0.960 . S
C1475 H1462 0.961 . S
C1475 H1463 0.959 . S
C1475 C1473 1.561 . S
C1476 C1473 1.526 . S
C1476 C1477 1.396 1_565 S
C1476 C1481 1.390 . S
C1477 C1471 1.465 . S
C1477 C1476 1.396 1_545 S
C1477 C1478 1.399 . S
C1478 H1464 0.929 . S
C1478 C1477 1.399 . S
C1478 C1479 1.385 . S
C1479 H1465 0.931 . S
C1479 C1478 1.385 . S
C1479 C1480 1.379 1_545 S
C1480 C1479 1.379 1_565 S
C1480 C1481 1.395 . S
C1481 H1466 0.930 . S
C1481 C1476 1.390 . S
C1481 C1480 1.395 . S
H1482 C1494 0.930 . S
H1483 C1496 0.930 . S
H1484 C1497 0.930 . S
H1485 C1501 0.959 . S
H1486 C1501 0.959 . S
H1487 C1501 0.961 . S
H1488 C1502 0.960 . S
H1489 C1502 0.961 . S
H1490 C1502 0.959 . S
H1491 C1505 0.929 . S
H1492 C1506 0.931 . S
H1493 C1508 0.930 . S
C1494 H1482 0.930 . S
C1494 C1495 1.399 . S
C1494 C1499 1.399 . S
C1495 C1494 1.399 . S
C1495 C1496 1.376 . S
C1496 H1483 0.930 . S
C1496 C1495 1.376 . S
C1496 C1497 1.388 . S
C1497 H1484 0.930 . S
C1497 C1496 1.388 . S
C1497 C1498 1.390 . S
C1498 C1497 1.390 . S
C1498 C1499 1.394 . S
C1498 C1504 1.465 . S
C1499 C1494 1.399 . S
C1499 C1498 1.394 . S
C1499 C1500 1.516 . S
C1500 C1499 1.516 . S
C1500 C1501 1.502 . S
C1500 C1502 1.561 . S
C1500 C1503 1.526 . S
C1501 H1485 0.959 . S
C1501 H1486 0.959 . S
C1501 H1487 0.961 . S
C1501 C1500 1.502 . S
C1502 H1488 0.960 . S
C1502 H1489 0.961 . S
C1502 H1490 0.959 . S
C1502 C1500 1.561 . S
C1503 C1500 1.526 . S
C1503 C1504 1.396 . S
C1503 C1508 1.390 . S
C1504 C1498 1.465 . S
C1504 C1503 1.396 . S
C1504 C1505 1.399 . S
C1505 H1491 0.929 . S
C1505 C1504 1.399 . S
C1505 C1506 1.385 . S
C1506 H1492 0.931 . S
C1506 C1505 1.385 . S
C1506 C1507 1.389 . S
C1507 C1506 1.389 . S
C1507 C1508 1.387 . S
C1508 H1493 0.930 . S
C1508 C1503 1.390 . S
C1508 C1507 1.387 . S
H1509 C1521 0.930 . S
H1510 C1523 0.930 . S
H1511 C1524 0.930 . S
H1512 C1528 0.959 . S
H1513 C1528 0.959 . S
H1514 C1528 0.961 . S
H1515 C1529 0.960 . S
H1516 C1529 0.961 1_556 S
H1517 C1529 0.959 . S
H1518 C1532 0.929 . S
H1519 C1533 0.931 . S
H1520 C1535 0.930 . S
C1521 H1509 0.930 . S
C1521 C1522 1.399 . S
C1521 C1526 1.399 . S
C1522 C1521 1.399 . S
C1522 C1523 1.376 . S
C1523 H1510 0.930 . S
C1523 C1522 1.376 . S
C1523 C1524 1.388 . S
C1524 H1511 0.930 . S
C1524 C1523 1.388 . S
C1524 C1525 1.390 . S
C1525 C1524 1.390 . S
C1525 C1526 1.394 . S
C1525 C1531 1.465 1_554 S
C1526 C1521 1.399 . S
C1526 C1525 1.394 . S
C1526 C1527 1.516 1_554 S
C1527 C1526 1.516 1_556 S
C1527 C1528 1.502 . S
C1527 C1529 1.561 1_556 S
C1527 C1530 1.526 . S
C1528 H1512 0.959 . S
C1528 H1513 0.959 . S
C1528 H1514 0.961 . S
C1528 C1527 1.502 . S
C1529 H1515 0.960 . S
C1529 H1516 0.961 1_554 S
C1529 H1517 0.959 . S
C1529 C1527 1.561 1_554 S
C1530 C1527 1.526 . S
C1530 C1531 1.396 . S
C1530 C1535 1.390 . S
C1531 C1525 1.465 1_556 S
C1531 C1530 1.396 . S
C1531 C1532 1.399 . S
C1532 H1518 0.929 . S
C1532 C1531 1.399 . S
C1532 C1533 1.385 . S
C1533 H1519 0.931 . S
C1533 C1532 1.385 . S
C1533 C1534 1.389 . S
C1534 C1533 1.389 . S
C1534 C1535 1.387 . S
C1535 H1520 0.930 . S
C1535 C1530 1.390 . S
C1535 C1534 1.387 . S
H1536 C1548 0.930 . S
H1537 C1550 0.930 . S
H1538 C1551 0.930 . S
H1539 C1555 0.959 . S
H1540 C1555 0.959 . S
H1541 C1555 0.961 . S
H1542 C1556 0.960 . S
H1543 C1556 0.961 . S
H1544 C1556 0.959 . S
H1545 C1559 0.929 . S
H1546 C1560 0.931 . S
H1547 C1562 0.930 . S
C1548 H1536 0.930 . S
C1548 C1549 1.398 1_545 S
C1548 C1553 1.399 . S
C1549 C1548 1.398 1_565 S
C1549 C1550 1.377 . S
C1550 H1537 0.930 . S
C1550 C1549 1.377 . S
C1550 C1551 1.388 . S
C1551 H1538 0.930 . S
C1551 C1550 1.388 . S
C1551 C1552 1.390 . S
C1552 C1551 1.390 . S
C1552 C1553 1.394 1_565 S
C1552 C1558 1.465 . S
C1553 C1548 1.399 . S
C1553 C1552 1.394 1_545 S
C1553 C1554 1.516 . S
C1554 C1553 1.516 . S
C1554 C1555 1.502 . S
C1554 C1556 1.561 . S
C1554 C1557 1.526 . S
C1555 H1539 0.959 . S
C1555 H1540 0.959 . S
C1555 H1541 0.961 . S
C1555 C1554 1.502 . S
C1556 H1542 0.960 . S
C1556 H1543 0.961 . S
C1556 H1544 0.959 . S
C1556 C1554 1.561 . S
C1557 C1554 1.526 . S
C1557 C1558 1.396 1_545 S
C1557 C1562 1.390 . S
C1558 C1552 1.465 . S
C1558 C1557 1.396 1_565 S
C1558 C1559 1.399 . S
C1559 H1545 0.929 . S
C1559 C1558 1.399 . S
C1559 C1560 1.385 . S
C1560 H1546 0.931 . S
C1560 C1559 1.385 . S
C1560 C1561 1.389 1_565 S
C1561 C1560 1.389 1_545 S
C1561 C1562 1.387 . S
C1562 H1547 0.930 . S
C1562 C1557 1.390 . S
C1562 C1561 1.387 . S
H1563 C1575 0.930 . S
H1564 C1577 0.930 . S
H1565 C1578 0.930 . S
H1566 C1582 0.959 . S
H1567 C1582 0.959 . S
H1568 C1582 0.961 . S
H1569 C1583 0.960 . S
H1570 C1583 0.961 . S
H1571 C1583 0.959 . S
H1572 C1586 0.929 . S
H1573 C1587 0.931 . S
H1574 C1589 0.930 . S
C1575 H1563 0.930 . S
C1575 C1576 1.399 . S
C1575 C1580 1.399 . S
C1576 C1575 1.399 . S
C1576 C1577 1.376 . S
C1577 H1564 0.930 . S
C1577 C1576 1.376 . S
C1577 C1578 1.388 . S
C1578 H1565 0.930 . S
C1578 C1577 1.388 . S
C1578 C1579 1.390 . S
C1579 C1578 1.390 . S
C1579 C1580 1.394 . S
C1579 C1585 1.465 . S
C1580 C1575 1.399 . S
C1580 C1579 1.394 . S
C1580 C1581 1.516 . S
C1581 C1580 1.516 . S
C1581 C1582 1.502 . S
C1581 C1583 1.561 . S
C1581 C1584 1.526 . S
C1582 H1566 0.959 . S
C1582 H1567 0.959 . S
C1582 H1568 0.961 . S
C1582 C1581 1.502 . S
C1583 H1569 0.960 . S
C1583 H1570 0.961 . S
C1583 H1571 0.959 . S
C1583 C1581 1.561 . S
C1584 C1581 1.526 . S
C1584 C1585 1.396 . S
C1584 C1589 1.390 . S
C1585 C1579 1.465 . S
C1585 C1584 1.396 . S
C1585 C1586 1.399 . S
C1586 H1572 0.929 . S
C1586 C1585 1.399 . S
C1586 C1587 1.385 . S
C1587 H1573 0.931 . S
C1587 C1586 1.385 . S
C1587 C1588 1.389 . S
C1588 C1587 1.389 . S
C1588 C1589 1.387 . S
C1589 H1574 0.930 . S
C1589 C1584 1.390 . S
C1589 C1588 1.387 . S
H1590 C1602 0.930 . S
H1591 C1604 0.930 . S
H1592 C1605 0.930 . S
H1593 C1609 0.959 . S
H1594 C1609 0.959 . S
H1595 C1609 0.961 . S
H1596 C1610 0.960 . S
H1597 C1610 0.961 . S
H1598 C1610 0.959 . S
H1599 C1613 0.929 . S
H1600 C1614 0.931 . S
H1601 C1616 0.930 . S
C1602 H1590 0.930 . S
C1602 C1603 1.399 . S
C1602 C1607 1.399 . S
C1603 C1602 1.399 . S
C1603 C1604 1.376 . S
C1604 H1591 0.930 . S
C1604 C1603 1.376 . S
C1604 C1605 1.388 . S
C1605 H1592 0.930 . S
C1605 C1604 1.388 . S
C1605 C1606 1.390 . S
C1606 C1605 1.390 . S
C1606 C1607 1.394 . S
C1606 C1612 1.465 . S
C1607 C1602 1.399 . S
C1607 C1606 1.394 . S
C1607 C1608 1.516 . S
C1608 C1607 1.516 . S
C1608 C1609 1.502 . S
C1608 C1610 1.561 . S
C1608 C1611 1.526 . S
C1609 H1593 0.959 . S
C1609 H1594 0.959 . S
C1609 H1595 0.961 . S
C1609 C1608 1.502 . S
C1610 H1596 0.960 . S
C1610 H1597 0.961 . S
C1610 H1598 0.959 . S
C1610 C1608 1.561 . S
C1611 C1608 1.526 . S
C1611 C1612 1.396 . S
C1611 C1616 1.390 . S
C1612 C1606 1.465 . S
C1612 C1611 1.396 . S
C1612 C1613 1.399 . S
C1613 H1599 0.929 . S
C1613 C1612 1.399 . S
C1613 C1614 1.385 . S
C1614 H1600 0.931 . S
C1614 C1613 1.385 . S
C1614 C1615 1.389 . S
C1615 C1614 1.389 . S
C1615 C1616 1.387 . S
C1616 H1601 0.930 . S
C1616 C1611 1.390 . S
C1616 C1615 1.387 . S
H1617 C1629 0.930 . S
H1618 C1631 0.930 . S
H1619 C1632 0.930 . S
H1620 C1636 0.959 . S
H1621 C1636 0.959 . S
H1622 C1636 0.961 . S
H1623 C1637 0.960 . S
H1624 C1637 0.961 . S
H1625 C1637 0.959 . S
H1626 C1640 0.929 . S
H1627 C1641 0.931 . S
H1628 C1643 0.930 . S
C1629 H1617 0.930 . S
C1629 C1630 1.399 1_565 S
C1629 C1634 1.399 . S
C1630 C1629 1.399 1_545 S
C1630 C1631 1.376 . S
C1631 H1618 0.930 . S
C1631 C1630 1.376 . S
C1631 C1632 1.388 . S
C1632 H1619 0.930 . S
C1632 C1631 1.388 . S
C1632 C1633 1.390 . S
C1633 C1632 1.390 . S
C1633 C1634 1.394 1_545 S
C1633 C1639 1.465 . S
C1634 C1629 1.399 . S
C1634 C1633 1.394 1_565 S
C1634 C1635 1.516 . S
C1635 C1634 1.516 . S
C1635 C1636 1.502 . S
C1635 C1637 1.561 . S
C1635 C1638 1.526 . S
C1636 H1620 0.959 . S
C1636 H1621 0.959 . S
C1636 H1622 0.961 . S
C1636 C1635 1.502 . S
C1637 H1623 0.960 . S
C1637 H1624 0.961 . S
C1637 H1625 0.959 . S
C1637 C1635 1.561 . S
C1638 C1635 1.526 . S
C1638 C1639 1.396 1_565 S
C1638 C1643 1.390 . S
C1639 C1633 1.465 . S
C1639 C1638 1.396 1_545 S
C1639 C1640 1.399 . S
C1640 H1626 0.929 . S
C1640 C1639 1.399 . S
C1640 C1641 1.385 . S
C1641 H1627 0.931 . S
C1641 C1640 1.385 . S
C1641 C1642 1.389 . S
C1642 C1641 1.389 . S
C1642 C1643 1.387 1_545 S
C1643 H1628 0.930 . S
C1643 C1638 1.390 . S
C1643 C1642 1.387 1_565 S
H1644 C1656 0.930 . S
H1645 C1658 0.930 . S
H1646 C1659 0.930 . S
H1647 C1663 0.959 . S
H1648 C1663 0.959 . S
H1649 C1663 0.961 . S
H1650 C1664 0.960 . S
H1651 C1664 0.961 . S
H1652 C1664 0.959 . S
H1653 C1667 0.929 . S
H1654 C1668 0.931 . S
H1655 C1670 0.930 . S
C1656 H1644 0.930 . S
C1656 C1657 1.399 1_545 S
C1656 C1661 1.399 . S
C1657 C1656 1.399 1_565 S
C1657 C1658 1.376 . S
C1658 H1645 0.930 . S
C1658 C1657 1.376 . S
C1658 C1659 1.388 . S
C1659 H1646 0.930 . S
C1659 C1658 1.388 . S
C1659 C1660 1.390 . S
C1660 C1659 1.390 . S
C1660 C1661 1.394 1_565 S
C1660 C1666 1.465 . S
C1661 C1656 1.399 . S
C1661 C1660 1.394 1_545 S
C1661 C1662 1.516 . S
C1662 C1661 1.516 . S
C1662 C1663 1.502 . S
C1662 C1664 1.561 . S
C1662 C1665 1.526 . S
C1663 H1647 0.959 . S
C1663 H1648 0.959 . S
C1663 H1649 0.961 . S
C1663 C1662 1.502 . S
C1664 H1650 0.960 . S
C1664 H1651 0.961 . S
C1664 H1652 0.959 . S
C1664 C1662 1.561 . S
C1665 C1662 1.526 . S
C1665 C1666 1.396 1_545 S
C1665 C1670 1.390 . S
C1666 C1660 1.465 . S
C1666 C1665 1.396 1_565 S
C1666 C1667 1.399 . S
C1667 H1653 0.929 . S
C1667 C1666 1.399 . S
C1667 C1668 1.385 . S
C1668 H1654 0.931 . S
C1668 C1667 1.385 . S
C1668 C1669 1.389 . S
C1669 C1668 1.389 . S
C1669 C1670 1.387 1_565 S
C1670 H1655 0.930 . S
C1670 C1665 1.390 . S
C1670 C1669 1.387 1_545 S
H1671 C1683 0.930 . S
H1672 C1685 0.930 . S
H1673 C1686 0.930 . S
H1674 C1690 0.959 . S
H1675 C1690 0.959 . S
H1676 C1690 0.961 . S
H1677 C1691 0.960 . S
H1678 C1691 0.961 . S
H1679 C1691 0.959 . S
H1680 C1694 0.929 . S
H1681 C1695 0.931 . S
H1682 C1697 0.930 . S
C1683 H1671 0.930 . S
C1683 C1684 1.399 . S
C1683 C1688 1.399 . S
C1684 C1683 1.399 . S
C1684 C1685 1.376 . S
C1685 H1672 0.930 . S
C1685 C1684 1.376 . S
C1685 C1686 1.388 . S
C1686 H1673 0.930 . S
C1686 C1685 1.388 . S
C1686 C1687 1.390 . S
C1687 C1686 1.390 . S
C1687 C1688 1.394 . S
C1687 C1693 1.465 . S
C1688 C1683 1.399 . S
C1688 C1687 1.394 . S
C1688 C1689 1.516 . S
C1689 C1688 1.516 . S
C1689 C1690 1.502 . S
C1689 C1691 1.561 . S
C1689 C1692 1.526 . S
C1690 H1674 0.959 . S
C1690 H1675 0.959 . S
C1690 H1676 0.961 . S
C1690 C1689 1.502 . S
C1691 H1677 0.960 . S
C1691 H1678 0.961 . S
C1691 H1679 0.959 . S
C1691 C1689 1.561 . S
C1692 C1689 1.526 . S
C1692 C1693 1.396 . S
C1692 C1697 1.390 . S
C1693 C1687 1.465 . S
C1693 C1692 1.396 . S
C1693 C1694 1.399 . S
C1694 H1680 0.929 . S
C1694 C1693 1.399 . S
C1694 C1695 1.385 . S
C1695 H1681 0.931 . S
C1695 C1694 1.385 . S
C1695 C1696 1.389 . S
C1696 C1695 1.389 . S
C1696 C1697 1.387 . S
C1697 H1682 0.930 . S
C1697 C1692 1.390 . S
C1697 C1696 1.387 . S
H1698 C1710 0.930 . S
H1699 C1712 0.930 . S
H1700 C1713 0.930 . S
H1701 C1717 0.959 . S
H1702 C1717 0.959 . S
H1703 C1717 0.961 . S
H1704 C1718 0.960 . S
H1705 C1718 0.961 . S
H1706 C1718 0.959 . S
H1707 C1721 0.929 . S
H1708 C1722 0.931 . S
H1709 C1724 0.930 . S
C1710 H1698 0.930 . S
C1710 C1711 1.399 . S
C1710 C1715 1.399 . S
C1711 C1710 1.399 . S
C1711 C1712 1.376 . S
C1712 H1699 0.930 . S
C1712 C1711 1.376 . S
C1712 C1713 1.388 . S
C1713 H1700 0.930 . S
C1713 C1712 1.388 . S
C1713 C1714 1.390 . S
C1714 C1713 1.390 . S
C1714 C1715 1.394 . S
C1714 C1720 1.465 . S
C1715 C1710 1.399 . S
C1715 C1714 1.394 . S
C1715 C1716 1.516 . S
C1716 C1715 1.516 . S
C1716 C1717 1.502 . S
C1716 C1718 1.561 . S
C1716 C1719 1.526 . S
C1717 H1701 0.959 . S
C1717 H1702 0.959 . S
C1717 H1703 0.961 . S
C1717 C1716 1.502 . S
C1718 H1704 0.960 . S
C1718 H1705 0.961 . S
C1718 H1706 0.959 . S
C1718 C1716 1.561 . S
C1719 C1716 1.526 . S
C1719 C1720 1.396 . S
C1719 C1724 1.390 . S
C1720 C1714 1.465 . S
C1720 C1719 1.396 . S
C1720 C1721 1.399 . S
C1721 H1707 0.929 . S
C1721 C1720 1.399 . S
C1721 C1722 1.385 . S
C1722 H1708 0.931 . S
C1722 C1721 1.385 . S
C1722 C1723 1.389 . S
C1723 C1722 1.389 . S
C1723 C1724 1.387 . S
C1724 H1709 0.930 . S
C1724 C1719 1.390 . S
C1724 C1723 1.387 . S
H1725 C1737 0.930 . S
H1726 C1739 0.930 . S
H1727 C1740 0.930 . S
H1728 C1744 0.959 . S
H1729 C1744 0.959 . S
H1730 C1744 0.961 . S
H1731 C1745 0.960 . S
H1732 C1745 0.961 . S
H1733 C1745 0.959 . S
H1734 C1748 0.929 . S
H1735 C1749 0.931 . S
H1736 C1751 0.930 . S
C1737 H1725 0.930 . S
C1737 C1738 1.399 . S
C1737 C1742 1.399 . S
C1738 C1737 1.399 . S
C1738 C1739 1.376 1_565 S
C1739 H1726 0.930 . S
C1739 C1738 1.376 1_545 S
C1739 C1740 1.388 . S
C1740 H1727 0.930 . S
C1740 C1739 1.388 . S
C1740 C1741 1.390 . S
C1741 C1740 1.390 . S
C1741 C1742 1.394 1_545 S
C1741 C1747 1.465 . S
C1742 C1737 1.399 . S
C1742 C1741 1.394 1_565 S
C1742 C1743 1.516 . S
C1743 C1742 1.516 . S
C1743 C1744 1.502 . S
C1743 C1745 1.561 . S
C1743 C1746 1.526 . S
C1744 H1728 0.959 . S
C1744 H1729 0.959 . S
C1744 H1730 0.961 . S
C1744 C1743 1.502 . S
C1745 H1731 0.960 . S
C1745 H1732 0.961 . S
C1745 H1733 0.959 . S
C1745 C1743 1.561 . S
C1746 C1743 1.526 . S
C1746 C1747 1.396 1_565 S
C1746 C1751 1.390 . S
C1747 C1741 1.465 . S
C1747 C1746 1.396 1_545 S
C1747 C1748 1.399 . S
C1748 H1734 0.929 . S
C1748 C1747 1.399 . S
C1748 C1749 1.385 . S
C1749 H1735 0.931 . S
C1749 C1748 1.385 . S
C1749 C1750 1.389 1_545 S
C1750 C1749 1.389 1_565 S
C1750 C1751 1.387 . S
C1751 H1736 0.930 . S
C1751 C1746 1.390 . S
C1751 C1750 1.387 . S
H1752 C1764 0.930 . S
H1753 C1766 0.930 . S
H1754 C1767 0.930 . S
H1755 C1771 0.959 . S
H1756 C1771 0.959 . S
H1757 C1771 0.961 . S
H1758 C1772 0.960 . S
H1759 C1772 0.961 . S
H1760 C1772 0.959 . S
H1761 C1775 0.929 . S
H1762 C1776 0.931 . S
H1763 C1778 0.930 . S
C1764 H1752 0.930 . S
C1764 C1765 1.399 . S
C1764 C1769 1.399 . S
C1765 C1764 1.399 . S
C1765 C1766 1.376 . S
C1766 H1753 0.930 . S
C1766 C1765 1.376 . S
C1766 C1767 1.388 . S
C1767 H1754 0.930 . S
C1767 C1766 1.388 . S
C1767 C1768 1.390 . S
C1768 C1767 1.390 . S
C1768 C1769 1.394 . S
C1768 C1774 1.465 . S
C1769 C1764 1.399 . S
C1769 C1768 1.394 . S
C1769 C1770 1.516 . S
C1770 C1769 1.516 . S
C1770 C1771 1.502 . S
C1770 C1772 1.561 . S
C1770 C1773 1.526 . S
C1771 H1755 0.959 . S
C1771 H1756 0.959 . S
C1771 H1757 0.961 . S
C1771 C1770 1.502 . S
C1772 H1758 0.960 . S
C1772 H1759 0.961 . S
C1772 H1760 0.959 . S
C1772 C1770 1.561 . S
C1773 C1770 1.526 . S
C1773 C1774 1.396 . S
C1773 C1778 1.390 . S
C1774 C1768 1.465 . S
C1774 C1773 1.396 . S
C1774 C1775 1.399 . S
C1775 H1761 0.929 . S
C1775 C1774 1.399 . S
C1775 C1776 1.385 . S
C1776 H1762 0.931 . S
C1776 C1775 1.385 . S
C1776 C1777 1.389 . S
C1777 C1776 1.389 . S
C1777 C1778 1.387 . S
C1778 H1763 0.930 . S
C1778 C1773 1.390 . S
C1778 C1777 1.387 . S
H1779 C1791 0.930 . S
H1780 C1793 0.930 . S
H1781 C1794 0.930 . S
H1782 C1798 0.959 . S
H1783 C1798 0.959 . S
H1784 C1798 0.961 . S
H1785 C1799 0.960 . S
H1786 C1799 0.961 . S
H1787 C1799 0.959 . S
H1788 C1802 0.929 . S
H1789 C1803 0.931 . S
H1790 C1805 0.930 . S
C1791 H1779 0.930 . S
C1791 C1792 1.399 . S
C1791 C1796 1.399 . S
C1792 C1791 1.399 . S
C1792 C1793 1.376 . S
C1793 H1780 0.930 . S
C1793 C1792 1.376 . S
C1793 C1794 1.388 . S
C1794 H1781 0.930 . S
C1794 C1793 1.388 . S
C1794 C1795 1.390 . S
C1795 C1794 1.390 . S
C1795 C1796 1.394 . S
C1795 C1801 1.465 . S
C1796 C1791 1.399 . S
C1796 C1795 1.394 . S
C1796 C1797 1.516 . S
C1797 C1796 1.516 . S
C1797 C1798 1.502 . S
C1797 C1799 1.561 . S
C1797 C1800 1.526 . S
C1798 H1782 0.959 . S
C1798 H1783 0.959 . S
C1798 H1784 0.961 . S
C1798 C1797 1.502 . S
C1799 H1785 0.960 . S
C1799 H1786 0.961 . S
C1799 H1787 0.959 . S
C1799 C1797 1.561 . S
C1800 C1797 1.526 . S
C1800 C1801 1.396 . S
C1800 C1805 1.390 . S
C1801 C1795 1.465 . S
C1801 C1800 1.396 . S
C1801 C1802 1.399 . S
C1802 H1788 0.929 . S
C1802 C1801 1.399 . S
C1802 C1803 1.385 . S
C1803 H1789 0.931 . S
C1803 C1802 1.385 . S
C1803 C1804 1.389 . S
C1804 C1803 1.389 . S
C1804 C1805 1.387 . S
C1805 H1790 0.930 . S
C1805 C1800 1.390 . S
C1805 C1804 1.387 . S
H1806 C1818 0.930 . S
H1807 C1820 0.930 . S
H1808 C1821 0.930 . S
H1809 C1825 0.959 . S
H1810 C1825 0.959 . S
H1811 C1825 0.961 . S
H1812 C1826 0.960 . S
H1813 C1826 0.961 . S
H1814 C1826 0.959 . S
H1815 C1829 0.929 . S
H1816 C1830 0.931 . S
H1817 C1832 0.930 . S
C1818 H1806 0.930 . S
C1818 C1819 1.399 . S
C1818 C1823 1.399 . S
C1819 C1818 1.399 . S
C1819 C1820 1.376 . S
C1820 H1807 0.930 . S
C1820 C1819 1.376 . S
C1820 C1821 1.388 . S
C1821 H1808 0.930 . S
C1821 C1820 1.388 . S
C1821 C1822 1.390 . S
C1822 C1821 1.390 . S
C1822 C1823 1.394 . S
C1822 C1828 1.465 . S
C1823 C1818 1.399 . S
C1823 C1822 1.394 . S
C1823 C1824 1.516 . S
C1824 C1823 1.516 . S
C1824 C1825 1.502 . S
C1824 C1826 1.561 . S
C1824 C1827 1.526 . S
C1825 H1809 0.959 . S
C1825 H1810 0.959 . S
C1825 H1811 0.961 . S
C1825 C1824 1.502 . S
C1826 H1812 0.960 . S
C1826 H1813 0.961 . S
C1826 H1814 0.959 . S
C1826 C1824 1.561 . S
C1827 C1824 1.526 . S
C1827 C1828 1.396 . S
C1827 C1832 1.390 . S
C1828 C1822 1.465 . S
C1828 C1827 1.396 . S
C1828 C1829 1.399 . S
C1829 H1815 0.929 . S
C1829 C1828 1.399 . S
C1829 C1830 1.385 . S
C1830 H1816 0.931 . S
C1830 C1829 1.385 . S
C1830 C1831 1.389 . S
C1831 C1830 1.389 . S
C1831 C1832 1.387 . S
C1832 H1817 0.930 . S
C1832 C1827 1.390 . S
C1832 C1831 1.387 . S
H1833 C1845 0.930 . S
H1834 C1847 0.930 . S
H1835 C1848 0.930 . S
H1836 C1852 0.959 . S
H1837 C1852 0.959 . S
H1838 C1852 0.961 . S
H1839 C1853 0.960 . S
H1840 C1853 0.961 . S
H1841 C1853 0.959 . S
H1842 C1856 0.929 . S
H1843 C1857 0.931 . S
H1844 C1859 0.930 . S
C1845 H1833 0.930 . S
C1845 C1846 1.399 . S
C1845 C1850 1.399 . S
C1846 C1845 1.399 . S
C1846 C1847 1.376 . S
C1847 H1834 0.930 . S
C1847 C1846 1.376 . S
C1847 C1848 1.388 . S
C1848 H1835 0.930 . S
C1848 C1847 1.388 . S
C1848 C1849 1.390 . S
C1849 C1848 1.390 . S
C1849 C1850 1.394 . S
C1849 C1855 1.465 . S
C1850 C1845 1.399 . S
C1850 C1849 1.394 . S
C1850 C1851 1.516 . S
C1851 C1850 1.516 . S
C1851 C1852 1.502 . S
C1851 C1853 1.561 . S
C1851 C1854 1.526 . S
C1852 H1836 0.959 . S
C1852 H1837 0.959 . S
C1852 H1838 0.961 . S
C1852 C1851 1.502 . S
C1853 H1839 0.960 . S
C1853 H1840 0.961 . S
C1853 H1841 0.959 . S
C1853 C1851 1.561 . S
C1854 C1851 1.526 . S
C1854 C1855 1.396 . S
C1854 C1859 1.390 . S
C1855 C1849 1.465 . S
C1855 C1854 1.396 . S
C1855 C1856 1.399 . S
C1856 H1842 0.929 . S
C1856 C1855 1.399 . S
C1856 C1857 1.385 . S
C1857 H1843 0.931 . S
C1857 C1856 1.385 . S
C1857 C1858 1.389 . S
C1858 C1857 1.389 . S
C1858 C1859 1.387 . S
C1859 H1844 0.930 . S
C1859 C1854 1.390 . S
C1859 C1858 1.387 . S
H1860 C1872 0.930 . S
H1861 C1874 0.930 . S
H1862 C1875 0.930 . S
H1863 C1879 0.959 . S
H1864 C1879 0.959 . S
H1865 C1879 0.961 . S
H1866 C1880 0.960 . S
H1867 C1880 0.961 . S
H1868 C1880 0.959 . S
H1869 C1883 0.929 . S
H1870 C1884 0.931 . S
H1871 C1886 0.930 . S
C1872 H1860 0.930 . S
C1872 C1873 1.399 . S
C1872 C1877 1.399 . S
C1873 C1872 1.399 . S
C1873 C1874 1.376 . S
C1874 H1861 0.930 . S
C1874 C1873 1.376 . S
C1874 C1875 1.388 . S
C1875 H1862 0.930 . S
C1875 C1874 1.388 . S
C1875 C1876 1.390 . S
C1876 C1875 1.390 . S
C1876 C1877 1.394 . S
C1876 C1882 1.465 . S
C1877 C1872 1.399 . S
C1877 C1876 1.394 . S
C1877 C1878 1.516 . S
C1878 C1877 1.516 . S
C1878 C1879 1.502 . S
C1878 C1880 1.561 . S
C1878 C1881 1.526 . S
C1879 H1863 0.959 . S
C1879 H1864 0.959 . S
C1879 H1865 0.961 . S
C1879 C1878 1.502 . S
C1880 H1866 0.960 . S
C1880 H1867 0.961 . S
C1880 H1868 0.959 . S
C1880 C1878 1.561 . S
C1881 C1878 1.526 . S
C1881 C1882 1.396 . S
C1881 C1886 1.390 . S
C1882 C1876 1.465 . S
C1882 C1881 1.396 . S
C1882 C1883 1.399 . S
C1883 H1869 0.929 . S
C1883 C1882 1.399 . S
C1883 C1884 1.385 . S
C1884 H1870 0.931 . S
C1884 C1883 1.385 . S
C1884 C1885 1.389 . S
C1885 C1884 1.389 . S
C1885 C1886 1.387 . S
C1886 H1871 0.930 . S
C1886 C1881 1.390 . S
C1886 C1885 1.387 . S
H1887 C1899 0.930 . S
H1888 C1901 0.930 . S
H1889 C1902 0.930 . S
H1890 C1906 0.959 . S
H1891 C1906 0.959 . S
H1892 C1906 0.961 . S
H1893 C1907 0.960 . S
H1894 C1907 0.961 . S
H1895 C1907 0.959 . S
H1896 C1910 0.929 . S
H1897 C1911 0.931 . S
H1898 C1913 0.930 . S
C1899 H1887 0.930 . S
C1899 C1900 1.399 . S
C1899 C1904 1.399 . S
C1900 C1899 1.399 . S
C1900 C1901 1.376 . S
C1901 H1888 0.930 . S
C1901 C1900 1.376 . S
C1901 C1902 1.388 . S
C1902 H1889 0.930 . S
C1902 C1901 1.388 . S
C1902 C1903 1.390 . S
C1903 C1902 1.390 . S
C1903 C1904 1.394 . S
C1903 C1909 1.465 . S
C1904 C1899 1.399 . S
C1904 C1903 1.394 . S
C1904 C1905 1.516 . S
C1905 C1904 1.516 . S
C1905 C1906 1.502 . S
C1905 C1907 1.561 . S
C1905 C1908 1.526 . S
C1906 H1890 0.959 . S
C1906 H1891 0.959 . S
C1906 H1892 0.961 . S
C1906 C1905 1.502 . S
C1907 H1893 0.960 . S
C1907 H1894 0.961 . S
C1907 H1895 0.959 . S
C1907 C1905 1.561 . S
C1908 C1905 1.526 . S
C1908 C1909 1.396 . S
C1908 C1913 1.390 . S
C1909 C1903 1.465 . S
C1909 C1908 1.396 . S
C1909 C1910 1.399 . S
C1910 H1896 0.929 . S
C1910 C1909 1.399 . S
C1910 C1911 1.385 . S
C1911 H1897 0.931 . S
C1911 C1910 1.385 . S
C1911 C1912 1.389 . S
C1912 C1911 1.389 . S
C1912 C1913 1.387 . S
C1913 H1898 0.930 . S
C1913 C1908 1.390 . S
C1913 C1912 1.387 . S
H1914 C1926 0.930 . S
H1915 C1928 0.930 . S
H1916 C1929 0.930 . S
H1917 C1933 0.959 . S
H1918 C1933 0.959 . S
H1919 C1933 0.961 . S
H1920 C1934 0.960 . S
H1921 C1934 0.961 . S
H1922 C1934 0.959 . S
H1923 C1937 0.929 . S
H1924 C1938 0.931 . S
H1925 C1940 0.930 . S
C1926 H1914 0.930 . S
C1926 C1927 1.399 . S
C1926 C1931 1.399 . S
C1927 C1926 1.399 . S
C1927 C1928 1.376 . S
C1928 H1915 0.930 . S
C1928 C1927 1.376 . S
C1928 C1929 1.388 . S
C1929 H1916 0.930 . S
C1929 C1928 1.388 . S
C1929 C1930 1.390 . S
C1930 C1929 1.390 . S
C1930 C1931 1.394 . S
C1930 C1936 1.465 . S
C1931 C1926 1.399 . S
C1931 C1930 1.394 . S
C1931 C1932 1.516 . S
C1932 C1931 1.516 . S
C1932 C1933 1.502 . S
C1932 C1934 1.561 . S
C1932 C1935 1.526 . S
C1933 H1917 0.959 . S
C1933 H1918 0.959 . S
C1933 H1919 0.961 . S
C1933 C1932 1.502 . S
C1934 H1920 0.960 . S
C1934 H1921 0.961 . S
C1934 H1922 0.959 . S
C1934 C1932 1.561 . S
C1935 C1932 1.526 . S
C1935 C1936 1.396 . S
C1935 C1940 1.390 . S
C1936 C1930 1.465 . S
C1936 C1935 1.396 . S
C1936 C1937 1.399 . S
C1937 H1923 0.929 . S
C1937 C1936 1.399 . S
C1937 C1938 1.385 . S
C1938 H1924 0.931 . S
C1938 C1937 1.385 . S
C1938 C1939 1.389 . S
C1939 C1938 1.389 . S
C1939 C1940 1.387 . S
C1940 H1925 0.930 . S
C1940 C1935 1.390 . S
C1940 C1939 1.387 . S
H1941 C1953 0.930 . S
H1942 C1955 0.930 . S
H1943 C1956 0.930 . S
H1944 C1960 0.959 . S
H1945 C1960 0.959 . S
H1946 C1960 0.961 . S
H1947 C1961 0.960 . S
H1948 C1961 0.961 . S
H1949 C1961 0.959 . S
H1950 C1964 0.929 . S
H1951 C1965 0.931 . S
H1952 C1967 0.930 . S
C1953 H1941 0.930 . S
C1953 C1954 1.399 . S
C1953 C1958 1.399 . S
C1954 C1953 1.399 . S
C1954 C1955 1.376 . S
C1955 H1942 0.930 . S
C1955 C1954 1.376 . S
C1955 C1956 1.388 . S
C1956 H1943 0.930 . S
C1956 C1955 1.388 . S
C1956 C1957 1.390 . S
C1957 C1956 1.390 . S
C1957 C1958 1.394 . S
C1957 C1963 1.465 . S
C1958 C1953 1.399 . S
C1958 C1957 1.394 . S
C1958 C1959 1.516 . S
C1959 C1958 1.516 . S
C1959 C1960 1.502 . S
C1959 C1961 1.561 . S
C1959 C1962 1.526 . S
C1960 H1944 0.959 . S
C1960 H1945 0.959 . S
C1960 H1946 0.961 . S
C1960 C1959 1.502 . S
C1961 H1947 0.960 . S
C1961 H1948 0.961 . S
C1961 H1949 0.959 . S
C1961 C1959 1.561 . S
C1962 C1959 1.526 . S
C1962 C1963 1.396 . S
C1962 C1967 1.390 . S
C1963 C1957 1.465 . S
C1963 C1962 1.396 . S
C1963 C1964 1.399 . S
C1964 H1950 0.929 . S
C1964 C1963 1.399 . S
C1964 C1965 1.385 . S
C1965 H1951 0.931 . S
C1965 C1964 1.385 . S
C1965 C1966 1.389 . S
C1966 C1965 1.389 . S
C1966 C1967 1.387 . S
C1967 H1952 0.930 . S
C1967 C1962 1.390 . S
C1967 C1966 1.387 . S
H1968 C1980 0.930 . S
H1969 C1982 0.930 . S
H1970 C1983 0.930 . S
H1971 C1987 0.959 . S
H1972 C1987 0.959 . S
H1973 C1987 0.961 . S
H1974 C1988 0.960 . S
H1975 C1988 0.961 . S
H1976 C1988 0.959 . S
H1977 C1991 0.929 . S
H1978 C1992 0.931 . S
H1979 C1994 0.930 . S
C1980 H1968 0.930 . S
C1980 C1981 1.399 . S
C1980 C1985 1.399 . S
C1981 C1980 1.399 . S
C1981 C1982 1.376 . S
C1982 H1969 0.930 . S
C1982 C1981 1.376 . S
C1982 C1983 1.388 . S
C1983 H1970 0.930 . S
C1983 C1982 1.388 . S
C1983 C1984 1.390 . S
C1984 C1983 1.390 . S
C1984 C1985 1.394 . S
C1984 C1990 1.465 . S
C1985 C1980 1.399 . S
C1985 C1984 1.394 . S
C1985 C1986 1.516 . S
C1986 C1985 1.516 . S
C1986 C1987 1.502 . S
C1986 C1988 1.561 . S
C1986 C1989 1.526 . S
C1987 H1971 0.959 . S
C1987 H1972 0.959 . S
C1987 H1973 0.961 . S
C1987 C1986 1.502 . S
C1988 H1974 0.960 . S
C1988 H1975 0.961 . S
C1988 H1976 0.959 . S
C1988 C1986 1.561 . S
C1989 C1986 1.526 . S
C1989 C1990 1.396 . S
C1989 C1994 1.390 . S
C1990 C1984 1.465 . S
C1990 C1989 1.396 . S
C1990 C1991 1.399 . S
C1991 H1977 0.929 . S
C1991 C1990 1.399 . S
C1991 C1992 1.385 . S
C1992 H1978 0.931 . S
C1992 C1991 1.385 . S
C1992 C1993 1.389 . S
C1993 C1992 1.389 . S
C1993 C1994 1.387 . S
C1994 H1979 0.930 . S
C1994 C1989 1.390 . S
C1994 C1993 1.387 . S
H1995 C2007 0.930 . S
H1996 C2009 0.930 . S
H1997 C2010 0.930 . S
H1998 C2014 0.959 . S
H1999 C2014 0.959 . S
H2000 C2014 0.961 . S
H2001 C2015 0.960 . S
H2002 C2015 0.961 . S
H2003 C2015 0.959 . S
H2004 C2018 0.929 . S
H2005 C2019 0.931 . S
H2006 C2021 0.930 . S
C2007 H1995 0.930 . S
C2007 C2008 1.399 . S
C2007 C2012 1.399 . S
C2008 C2007 1.399 . S
C2008 C2009 1.376 . S
C2009 H1996 0.930 . S
C2009 C2008 1.376 . S
C2009 C2010 1.388 . S
C2010 H1997 0.930 . S
C2010 C2009 1.388 . S
C2010 C2011 1.390 . S
C2011 C2010 1.390 . S
C2011 C2012 1.394 . S
C2011 C2017 1.465 . S
C2012 C2007 1.399 . S
C2012 C2011 1.394 . S
C2012 C2013 1.516 . S
C2013 C2012 1.516 . S
C2013 C2014 1.502 . S
C2013 C2015 1.561 . S
C2013 C2016 1.526 . S
C2014 H1998 0.959 . S
C2014 H1999 0.959 . S
C2014 H2000 0.961 . S
C2014 C2013 1.502 . S
C2015 H2001 0.960 . S
C2015 H2002 0.961 . S
C2015 H2003 0.959 . S
C2015 C2013 1.561 . S
C2016 C2013 1.526 . S
C2016 C2017 1.396 . S
C2016 C2021 1.390 . S
C2017 C2011 1.465 . S
C2017 C2016 1.396 . S
C2017 C2018 1.399 . S
C2018 H2004 0.929 . S
C2018 C2017 1.399 . S
C2018 C2019 1.385 . S
C2019 H2005 0.931 . S
C2019 C2018 1.385 . S
C2019 C2020 1.389 . S
C2020 C2019 1.389 . S
C2020 C2021 1.387 . S
C2021 H2006 0.930 . S
C2021 C2016 1.390 . S
C2021 C2020 1.387 . S
H2022 C2034 0.930 . S
H2023 C2036 0.930 . S
H2024 C2037 0.930 . S
H2025 C2041 0.959 . S
H2026 C2041 0.959 . S
H2027 C2041 0.961 . S
H2028 C2042 0.960 . S
H2029 C2042 0.961 . S
H2030 C2042 0.959 . S
H2031 C2045 0.929 . S
H2032 C2046 0.931 . S
H2033 C2048 0.930 . S
C2034 H2022 0.930 . S
C2034 C2035 1.399 . S
C2034 C2039 1.399 . S
C2035 C2034 1.399 . S
C2035 C2036 1.376 . S
C2036 H2023 0.930 . S
C2036 C2035 1.376 . S
C2036 C2037 1.388 . S
C2037 H2024 0.930 . S
C2037 C2036 1.388 . S
C2037 C2038 1.390 . S
C2038 C2037 1.390 . S
C2038 C2039 1.394 . S
C2038 C2044 1.465 . S
C2039 C2034 1.399 . S
C2039 C2038 1.394 . S
C2039 C2040 1.516 . S
C2040 C2039 1.516 . S
C2040 C2041 1.502 . S
C2040 C2042 1.561 . S
C2040 C2043 1.526 . S
C2041 H2025 0.959 . S
C2041 H2026 0.959 . S
C2041 H2027 0.961 . S
C2041 C2040 1.502 . S
C2042 H2028 0.960 . S
C2042 H2029 0.961 . S
C2042 H2030 0.959 . S
C2042 C2040 1.561 . S
C2043 C2040 1.526 . S
C2043 C2044 1.396 . S
C2043 C2048 1.390 . S
C2044 C2038 1.465 . S
C2044 C2043 1.396 . S
C2044 C2045 1.399 . S
C2045 H2031 0.929 . S
C2045 C2044 1.399 . S
C2045 C2046 1.385 . S
C2046 H2032 0.931 . S
C2046 C2045 1.385 . S
C2046 C2047 1.389 . S
C2047 C2046 1.389 . S
C2047 C2048 1.387 . S
C2048 H2033 0.930 . S
C2048 C2043 1.390 . S
C2048 C2047 1.387 . S
H2049 C2061 0.930 . S
H2050 C2063 0.930 . S
H2051 C2064 0.930 . S
H2052 C2068 0.959 . S
H2053 C2068 0.959 . S
H2054 C2068 0.961 . S
H2055 C2069 0.960 . S
H2056 C2069 0.961 . S
H2057 C2069 0.959 . S
H2058 C2072 0.929 . S
H2059 C2073 0.931 . S
H2060 C2075 0.930 . S
C2061 H2049 0.930 . S
C2061 C2062 1.399 . S
C2061 C2066 1.399 . S
C2062 C2061 1.399 . S
C2062 C2063 1.376 . S
C2063 H2050 0.930 . S
C2063 C2062 1.376 . S
C2063 C2064 1.388 . S
C2064 H2051 0.930 . S
C2064 C2063 1.388 . S
C2064 C2065 1.390 . S
C2065 C2064 1.390 . S
C2065 C2066 1.394 . S
C2065 C2071 1.465 . S
C2066 C2061 1.399 . S
C2066 C2065 1.394 . S
C2066 C2067 1.516 . S
C2067 C2066 1.516 . S
C2067 C2068 1.502 . S
C2067 C2069 1.561 . S
C2067 C2070 1.526 . S
C2068 H2052 0.959 . S
C2068 H2053 0.959 . S
C2068 H2054 0.961 . S
C2068 C2067 1.502 . S
C2069 H2055 0.960 . S
C2069 H2056 0.961 . S
C2069 H2057 0.959 . S
C2069 C2067 1.561 . S
C2070 C2067 1.526 . S
C2070 C2071 1.396 . S
C2070 C2075 1.390 . S
C2071 C2065 1.465 . S
C2071 C2070 1.396 . S
C2071 C2072 1.399 . S
C2072 H2058 0.929 . S
C2072 C2071 1.399 . S
C2072 C2073 1.385 . S
C2073 H2059 0.931 . S
C2073 C2072 1.385 . S
C2073 C2074 1.389 . S
C2074 C2073 1.389 . S
C2074 C2075 1.387 . S
C2075 H2060 0.930 . S
C2075 C2070 1.390 . S
C2075 C2074 1.387 . S
H2076 C2088 0.930 . S
H2077 C2090 0.930 . S
H2078 C2091 0.930 . S
H2079 C2095 0.959 . S
H2080 C2095 0.959 . S
H2081 C2095 0.961 . S
H2082 C2096 0.960 . S
H2083 C2096 0.961 . S
H2084 C2096 0.959 . S
H2085 C2099 0.929 . S
H2086 C2100 0.931 . S
H2087 C2102 0.930 . S
C2088 H2076 0.930 . S
C2088 C2089 1.399 . S
C2088 C2093 1.399 . S
C2089 C2088 1.399 . S
C2089 C2090 1.376 . S
C2090 H2077 0.930 . S
C2090 C2089 1.376 . S
C2090 C2091 1.388 . S
C2091 H2078 0.930 . S
C2091 C2090 1.388 . S
C2091 C2092 1.390 . S
C2092 C2091 1.390 . S
C2092 C2093 1.394 . S
C2092 C2098 1.465 . S
C2093 C2088 1.399 . S
C2093 C2092 1.394 . S
C2093 C2094 1.516 . S
C2094 C2093 1.516 . S
C2094 C2095 1.502 . S
C2094 C2096 1.561 . S
C2094 C2097 1.526 . S
C2095 H2079 0.959 . S
C2095 H2080 0.959 . S
C2095 H2081 0.961 . S
C2095 C2094 1.502 . S
C2096 H2082 0.960 . S
C2096 H2083 0.961 . S
C2096 H2084 0.959 . S
C2096 C2094 1.561 . S
C2097 C2094 1.526 . S
C2097 C2098 1.396 . S
C2097 C2102 1.390 . S
C2098 C2092 1.465 . S
C2098 C2097 1.396 . S
C2098 C2099 1.399 . S
C2099 H2085 0.929 . S
C2099 C2098 1.399 . S
C2099 C2100 1.385 . S
C2100 H2086 0.931 . S
C2100 C2099 1.385 . S
C2100 C2101 1.389 . S
C2101 C2100 1.389 . S
C2101 C2102 1.387 . S
C2102 H2087 0.930 . S
C2102 C2097 1.390 . S
C2102 C2101 1.387 . S
H2103 C2115 0.930 . S
H2104 C2117 0.930 . S
H2105 C2118 0.930 . S
H2106 C2122 0.959 . S
H2107 C2122 0.959 . S
H2108 C2122 0.961 . S
H2109 C2123 0.960 . S
H2110 C2123 0.961 . S
H2111 C2123 0.959 . S
H2112 C2126 0.929 . S
H2113 C2127 0.931 . S
H2114 C2129 0.930 . S
C2115 H2103 0.930 . S
C2115 C2116 1.399 . S
C2115 C2120 1.399 . S
C2116 C2115 1.399 . S
C2116 C2117 1.376 . S
C2117 H2104 0.930 . S
C2117 C2116 1.376 . S
C2117 C2118 1.388 . S
C2118 H2105 0.930 . S
C2118 C2117 1.388 . S
C2118 C2119 1.390 . S
C2119 C2118 1.390 . S
C2119 C2120 1.394 . S
C2119 C2125 1.465 . S
C2120 C2115 1.399 . S
C2120 C2119 1.394 . S
C2120 C2121 1.516 . S
C2121 C2120 1.516 . S
C2121 C2122 1.502 . S
C2121 C2123 1.561 . S
C2121 C2124 1.526 . S
C2122 H2106 0.959 . S
C2122 H2107 0.959 . S
C2122 H2108 0.961 . S
C2122 C2121 1.502 . S
C2123 H2109 0.960 . S
C2123 H2110 0.961 . S
C2123 H2111 0.959 . S
C2123 C2121 1.561 . S
C2124 C2121 1.526 . S
C2124 C2125 1.396 . S
C2124 C2129 1.390 . S
C2125 C2119 1.465 . S
C2125 C2124 1.396 . S
C2125 C2126 1.399 . S
C2126 H2112 0.929 . S
C2126 C2125 1.399 . S
C2126 C2127 1.385 . S
C2127 H2113 0.931 . S
C2127 C2126 1.385 . S
C2127 C2128 1.389 . S
C2128 C2127 1.389 . S
C2128 C2129 1.387 . S
C2129 H2114 0.930 . S
C2129 C2124 1.390 . S
C2129 C2128 1.387 . S
H2130 C2142 0.930 . S
H2131 C2144 0.930 . S
H2132 C2145 0.930 . S
H2133 C2149 0.959 . S
H2134 C2149 0.959 . S
H2135 C2149 0.961 . S
H2136 C2150 0.960 . S
H2137 C2150 0.961 . S
H2138 C2150 0.959 . S
H2139 C2153 0.929 . S
H2140 C2154 0.931 . S
H2141 C2156 0.930 . S
C2142 H2130 0.930 . S
C2142 C2143 1.399 . S
C2142 C2147 1.399 . S
C2143 C2142 1.399 . S
C2143 C2144 1.376 . S
C2144 H2131 0.930 . S
C2144 C2143 1.376 . S
C2144 C2145 1.388 . S
C2145 H2132 0.930 . S
C2145 C2144 1.388 . S
C2145 C2146 1.390 . S
C2146 C2145 1.390 . S
C2146 C2147 1.394 . S
C2146 C2152 1.465 . S
C2147 C2142 1.399 . S
C2147 C2146 1.394 . S
C2147 C2148 1.516 . S
C2148 C2147 1.516 . S
C2148 C2149 1.502 . S
C2148 C2150 1.561 . S
C2148 C2151 1.526 . S
C2149 H2133 0.959 . S
C2149 H2134 0.959 . S
C2149 H2135 0.961 . S
C2149 C2148 1.502 . S
C2150 H2136 0.960 . S
C2150 H2137 0.961 . S
C2150 H2138 0.959 . S
C2150 C2148 1.561 . S
C2151 C2148 1.526 . S
C2151 C2152 1.396 . S
C2151 C2156 1.390 . S
C2152 C2146 1.465 . S
C2152 C2151 1.396 . S
C2152 C2153 1.399 . S
C2153 H2139 0.929 . S
C2153 C2152 1.399 . S
C2153 C2154 1.385 . S
C2154 H2140 0.931 . S
C2154 C2153 1.385 . S
C2154 C2155 1.389 . S
C2155 C2154 1.389 . S
C2155 C2156 1.387 . S
C2156 H2141 0.930 . S
C2156 C2151 1.390 . S
C2156 C2155 1.387 . S
H2157 C2169 0.930 . S
H2158 C2171 0.930 . S
H2159 C2172 0.930 . S
H2160 C2176 0.959 . S
H2161 C2176 0.959 . S
H2162 C2176 0.961 . S
H2163 C2177 0.960 . S
H2164 C2177 0.961 . S
H2165 C2177 0.959 . S
H2166 C2180 0.929 . S
H2167 C2181 0.931 . S
H2168 C2183 0.930 . S
C2169 H2157 0.930 . S
C2169 C2170 1.399 . S
C2169 C2174 1.399 . S
C2170 C2169 1.399 . S
C2170 C2171 1.376 . S
C2171 H2158 0.930 . S
C2171 C2170 1.376 . S
C2171 C2172 1.388 . S
C2172 H2159 0.930 . S
C2172 C2171 1.388 . S
C2172 C2173 1.390 . S
C2173 C2172 1.390 . S
C2173 C2174 1.394 . S
C2173 C2179 1.465 . S
C2174 C2169 1.399 . S
C2174 C2173 1.394 . S
C2174 C2175 1.516 . S
C2175 C2174 1.516 . S
C2175 C2176 1.502 . S
C2175 C2177 1.561 . S
C2175 C2178 1.526 . S
C2176 H2160 0.959 . S
C2176 H2161 0.959 . S
C2176 H2162 0.961 . S
C2176 C2175 1.502 . S
C2177 H2163 0.960 . S
C2177 H2164 0.961 . S
C2177 H2165 0.959 . S
C2177 C2175 1.561 . S
C2178 C2175 1.526 . S
C2178 C2179 1.396 . S
C2178 C2183 1.390 . S
C2179 C2173 1.465 . S
C2179 C2178 1.396 . S
C2179 C2180 1.399 . S
C2180 H2166 0.929 . S
C2180 C2179 1.399 . S
C2180 C2181 1.385 . S
C2181 H2167 0.931 . S
C2181 C2180 1.385 . S
C2181 C2182 1.389 . S
C2182 C2181 1.389 . S
C2182 C2183 1.387 . S
C2183 H2168 0.930 . S
C2183 C2178 1.390 . S
C2183 C2182 1.387 . S
H2184 C2196 0.930 . S
H2185 C2198 0.930 . S
H2186 C2199 0.930 . S
H2187 C2203 0.959 . S
H2188 C2203 0.959 . S
H2189 C2203 0.961 . S
H2190 C2204 0.960 . S
H2191 C2204 0.961 . S
H2192 C2204 0.959 . S
H2193 C2207 0.929 . S
H2194 C2208 0.931 . S
H2195 C2210 0.930 . S
C2196 H2184 0.930 . S
C2196 C2197 1.399 . S
C2196 C2201 1.399 . S
C2197 C2196 1.399 . S
C2197 C2198 1.376 . S
C2198 H2185 0.930 . S
C2198 C2197 1.376 . S
C2198 C2199 1.388 . S
C2199 H2186 0.930 . S
C2199 C2198 1.388 . S
C2199 C2200 1.390 . S
C2200 C2199 1.390 . S
C2200 C2201 1.394 . S
C2200 C2206 1.465 . S
C2201 C2196 1.399 . S
C2201 C2200 1.394 . S
C2201 C2202 1.516 . S
C2202 C2201 1.516 . S
C2202 C2203 1.502 . S
C2202 C2204 1.561 . S
C2202 C2205 1.526 . S
C2203 H2187 0.959 . S
C2203 H2188 0.959 . S
C2203 H2189 0.961 . S
C2203 C2202 1.502 . S
C2204 H2190 0.960 . S
C2204 H2191 0.961 . S
C2204 H2192 0.959 . S
C2204 C2202 1.561 . S
C2205 C2202 1.526 . S
C2205 C2206 1.396 . S
C2205 C2210 1.390 . S
C2206 C2200 1.465 . S
C2206 C2205 1.396 . S
C2206 C2207 1.399 . S
C2207 H2193 0.929 . S
C2207 C2206 1.399 . S
C2207 C2208 1.385 . S
C2208 H2194 0.931 . S
C2208 C2207 1.385 . S
C2208 C2209 1.389 . S
C2209 C2208 1.389 . S
C2209 C2210 1.387 . S
C2210 H2195 0.930 . S
C2210 C2205 1.390 . S
C2210 C2209 1.387 . S
H2211 C2223 0.930 . S
H2212 C2225 0.930 . S
H2213 C2226 0.930 . S
H2214 C2230 0.959 . S
H2215 C2230 0.959 . S
H2216 C2230 0.961 . S
H2217 C2231 0.960 . S
H2218 C2231 0.961 . S
H2219 C2231 0.959 . S
H2220 C2234 0.929 . S
H2221 C2235 0.931 . S
H2222 C2237 0.930 . S
C2223 H2211 0.930 . S
C2223 C2224 1.399 . S
C2223 C2228 1.399 . S
C2224 C2223 1.399 . S
C2224 C2225 1.376 . S
C2225 H2212 0.930 . S
C2225 C2224 1.376 . S
C2225 C2226 1.388 . S
C2226 H2213 0.930 . S
C2226 C2225 1.388 . S
C2226 C2227 1.390 . S
C2227 C2226 1.390 . S
C2227 C2228 1.394 . S
C2227 C2233 1.465 . S
C2228 C2223 1.399 . S
C2228 C2227 1.394 . S
C2228 C2229 1.516 . S
C2229 C2228 1.516 . S
C2229 C2230 1.502 . S
C2229 C2231 1.561 . S
C2229 C2232 1.526 . S
C2230 H2214 0.959 . S
C2230 H2215 0.959 . S
C2230 H2216 0.961 . S
C2230 C2229 1.502 . S
C2231 H2217 0.960 . S
C2231 H2218 0.961 . S
C2231 H2219 0.959 . S
C2231 C2229 1.561 . S
C2232 C2229 1.526 . S
C2232 C2233 1.396 . S
C2232 C2237 1.390 . S
C2233 C2227 1.465 . S
C2233 C2232 1.396 . S
C2233 C2234 1.399 . S
C2234 H2220 0.929 . S
C2234 C2233 1.399 . S
C2234 C2235 1.385 . S
C2235 H2221 0.931 . S
C2235 C2234 1.385 . S
C2235 C2236 1.389 . S
C2236 C2235 1.389 . S
C2236 C2237 1.387 . S
C2237 H2222 0.930 . S
C2237 C2232 1.390 . S
C2237 C2236 1.387 . S
H2238 C2250 0.930 . S
H2239 C2252 0.930 . S
H2240 C2253 0.930 . S
H2241 C2257 0.959 . S
H2242 C2257 0.959 . S
H2243 C2257 0.961 . S
H2244 C2258 0.960 . S
H2245 C2258 0.961 . S
H2246 C2258 0.959 . S
H2247 C2261 0.929 . S
H2248 C2262 0.931 . S
H2249 C2264 0.930 . S
C2250 H2238 0.930 . S
C2250 C2251 1.399 . S
C2250 C2255 1.399 . S
C2251 C2250 1.399 . S
C2251 C2252 1.376 . S
C2252 H2239 0.930 . S
C2252 C2251 1.376 . S
C2252 C2253 1.388 . S
C2253 H2240 0.930 . S
C2253 C2252 1.388 . S
C2253 C2254 1.390 . S
C2254 C2253 1.390 . S
C2254 C2255 1.394 . S
C2254 C2260 1.465 . S
C2255 C2250 1.399 . S
C2255 C2254 1.394 . S
C2255 C2256 1.516 . S
C2256 C2255 1.516 . S
C2256 C2257 1.502 . S
C2256 C2258 1.561 . S
C2256 C2259 1.526 . S
C2257 H2241 0.959 . S
C2257 H2242 0.959 . S
C2257 H2243 0.961 . S
C2257 C2256 1.502 . S
C2258 H2244 0.960 . S
C2258 H2245 0.961 . S
C2258 H2246 0.959 . S
C2258 C2256 1.561 . S
C2259 C2256 1.526 . S
C2259 C2260 1.396 . S
C2259 C2264 1.390 . S
C2260 C2254 1.465 . S
C2260 C2259 1.396 . S
C2260 C2261 1.399 . S
C2261 H2247 0.929 . S
C2261 C2260 1.399 . S
C2261 C2262 1.385 . S
C2262 H2248 0.931 . S
C2262 C2261 1.385 . S
C2262 C2263 1.389 . S
C2263 C2262 1.389 . S
C2263 C2264 1.387 . S
C2264 H2249 0.930 . S
C2264 C2259 1.390 . S
C2264 C2263 1.387 . S
H2265 C2277 0.930 . S
H2266 C2279 0.930 . S
H2267 C2280 0.930 . S
H2268 C2284 0.959 . S
H2269 C2284 0.959 . S
H2270 C2284 0.961 . S
H2271 C2285 0.960 . S
H2272 C2285 0.961 . S
H2273 C2285 0.959 . S
H2274 C2288 0.929 . S
H2275 C2289 0.931 . S
H2276 C2291 0.930 . S
C2277 H2265 0.930 . S
C2277 C2278 1.399 . S
C2277 C2282 1.399 . S
C2278 C2277 1.399 . S
C2278 C2279 1.376 . S
C2279 H2266 0.930 . S
C2279 C2278 1.376 . S
C2279 C2280 1.388 . S
C2280 H2267 0.930 . S
C2280 C2279 1.388 . S
C2280 C2281 1.390 . S
C2281 C2280 1.390 . S
C2281 C2282 1.394 . S
C2281 C2287 1.465 . S
C2282 C2277 1.399 . S
C2282 C2281 1.394 . S
C2282 C2283 1.516 . S
C2283 C2282 1.516 . S
C2283 C2284 1.502 . S
C2283 C2285 1.561 . S
C2283 C2286 1.526 . S
C2284 H2268 0.959 . S
C2284 H2269 0.959 . S
C2284 H2270 0.961 . S
C2284 C2283 1.502 . S
C2285 H2271 0.960 . S
C2285 H2272 0.961 . S
C2285 H2273 0.959 . S
C2285 C2283 1.561 . S
C2286 C2283 1.526 . S
C2286 C2287 1.396 . S
C2286 C2291 1.390 . S
C2287 C2281 1.465 . S
C2287 C2286 1.396 . S
C2287 C2288 1.399 . S
C2288 H2274 0.929 . S
C2288 C2287 1.399 . S
C2288 C2289 1.385 . S
C2289 H2275 0.931 . S
C2289 C2288 1.385 . S
C2289 C2290 1.389 . S
C2290 C2289 1.389 . S
C2290 C2291 1.387 . S
C2291 H2276 0.930 . S
C2291 C2286 1.390 . S
C2291 C2290 1.387 . S
H2292 C2304 0.930 . S
H2293 C2306 0.930 . S
H2294 C2307 0.930 . S
H2295 C2311 0.959 . S
H2296 C2311 0.959 . S
H2297 C2311 0.961 . S
H2298 C2312 0.960 . S
H2299 C2312 0.961 . S
H2300 C2312 0.959 . S
H2301 C2315 0.929 . S
H2302 C2316 0.931 . S
H2303 C2318 0.930 . S
C2304 H2292 0.930 . S
C2304 C2305 1.399 . S
C2304 C2309 1.399 . S
C2305 C2304 1.399 . S
C2305 C2306 1.376 . S
C2306 H2293 0.930 . S
C2306 C2305 1.376 . S
C2306 C2307 1.388 . S
C2307 H2294 0.930 . S
C2307 C2306 1.388 . S
C2307 C2308 1.390 . S
C2308 C2307 1.390 . S
C2308 C2309 1.394 . S
C2308 C2314 1.465 . S
C2309 C2304 1.399 . S
C2309 C2308 1.394 . S
C2309 C2310 1.516 . S
C2310 C2309 1.516 . S
C2310 C2311 1.502 . S
C2310 C2312 1.561 . S
C2310 C2313 1.526 . S
C2311 H2295 0.959 . S
C2311 H2296 0.959 . S
C2311 H2297 0.961 . S
C2311 C2310 1.502 . S
C2312 H2298 0.960 . S
C2312 H2299 0.961 . S
C2312 H2300 0.959 . S
C2312 C2310 1.561 . S
C2313 C2310 1.526 . S
C2313 C2314 1.396 . S
C2313 C2318 1.390 . S
C2314 C2308 1.465 . S
C2314 C2313 1.396 . S
C2314 C2315 1.399 . S
C2315 H2301 0.929 . S
C2315 C2314 1.399 . S
C2315 C2316 1.385 . S
C2316 H2302 0.931 . S
C2316 C2315 1.385 . S
C2316 C2317 1.389 . S
C2317 C2316 1.389 . S
C2317 C2318 1.387 . S
C2318 H2303 0.930 . S
C2318 C2313 1.390 . S
C2318 C2317 1.387 . S
H2319 C2331 0.930 . S
H2320 C2333 0.930 . S
H2321 C2334 0.930 . S
H2322 C2338 0.959 . S
H2323 C2338 0.959 . S
H2324 C2338 0.961 . S
H2325 C2339 0.960 . S
H2326 C2339 0.961 . S
H2327 C2339 0.959 . S
H2328 C2342 0.929 . S
H2329 C2343 0.931 . S
H2330 C2345 0.930 . S
C2331 H2319 0.930 . S
C2331 C2332 1.399 . S
C2331 C2336 1.399 . S
C2332 C2331 1.399 . S
C2332 C2333 1.376 . S
C2333 H2320 0.930 . S
C2333 C2332 1.376 . S
C2333 C2334 1.388 . S
C2334 H2321 0.930 . S
C2334 C2333 1.388 . S
C2334 C2335 1.390 . S
C2335 C2334 1.390 . S
C2335 C2336 1.394 . S
C2335 C2341 1.465 . S
C2336 C2331 1.399 . S
C2336 C2335 1.394 . S
C2336 C2337 1.516 . S
C2337 C2336 1.516 . S
C2337 C2338 1.502 . S
C2337 C2339 1.561 . S
C2337 C2340 1.526 . S
C2338 H2322 0.959 . S
C2338 H2323 0.959 . S
C2338 H2324 0.961 . S
C2338 C2337 1.502 . S
C2339 H2325 0.960 . S
C2339 H2326 0.961 . S
C2339 H2327 0.959 . S
C2339 C2337 1.561 . S
C2340 C2337 1.526 . S
C2340 C2341 1.396 . S
C2340 C2345 1.390 . S
C2341 C2335 1.465 . S
C2341 C2340 1.396 . S
C2341 C2342 1.399 . S
C2342 H2328 0.929 . S
C2342 C2341 1.399 . S
C2342 C2343 1.385 . S
C2343 H2329 0.931 . S
C2343 C2342 1.385 . S
C2343 C2344 1.389 . S
C2344 C2343 1.389 . S
C2344 C2345 1.387 . S
C2345 H2330 0.930 . S
C2345 C2340 1.390 . S
C2345 C2344 1.387 . S
H2346 C2358 0.930 . S
H2347 C2360 0.930 . S
H2348 C2361 0.930 . S
H2349 C2365 0.959 . S
H2350 C2365 0.959 . S
H2351 C2365 0.961 . S
H2352 C2366 0.960 . S
H2353 C2366 0.961 . S
H2354 C2366 0.959 . S
H2355 C2369 0.929 . S
H2356 C2370 0.931 . S
H2357 C2372 0.930 . S
C2358 H2346 0.930 . S
C2358 C2359 1.399 . S
C2358 C2363 1.399 . S
C2359 C2358 1.399 . S
C2359 C2360 1.376 . S
C2360 H2347 0.930 . S
C2360 C2359 1.376 . S
C2360 C2361 1.388 . S
C2361 H2348 0.930 . S
C2361 C2360 1.388 . S
C2361 C2362 1.390 . S
C2362 C2361 1.390 . S
C2362 C2363 1.394 . S
C2362 C2368 1.465 . S
C2363 C2358 1.399 . S
C2363 C2362 1.394 . S
C2363 C2364 1.516 . S
C2364 C2363 1.516 . S
C2364 C2365 1.502 . S
C2364 C2366 1.561 . S
C2364 C2367 1.526 . S
C2365 H2349 0.959 . S
C2365 H2350 0.959 . S
C2365 H2351 0.961 . S
C2365 C2364 1.502 . S
C2366 H2352 0.960 . S
C2366 H2353 0.961 . S
C2366 H2354 0.959 . S
C2366 C2364 1.561 . S
C2367 C2364 1.526 . S
C2367 C2368 1.396 . S
C2367 C2372 1.390 . S
C2368 C2362 1.465 . S
C2368 C2367 1.396 . S
C2368 C2369 1.399 . S
C2369 H2355 0.929 . S
C2369 C2368 1.399 . S
C2369 C2370 1.385 . S
C2370 H2356 0.931 . S
C2370 C2369 1.385 . S
C2370 C2371 1.389 . S
C2371 C2370 1.389 . S
C2371 C2372 1.387 . S
C2372 H2357 0.930 . S
C2372 C2367 1.390 . S
C2372 C2371 1.387 . S
H2373 C2385 0.930 . S
H2374 C2387 0.930 . S
H2375 C2388 0.930 . S
H2376 C2392 0.959 . S
H2377 C2392 0.959 . S
H2378 C2392 0.961 . S
H2379 C2393 0.960 . S
H2380 C2393 0.961 . S
H2381 C2393 0.959 . S
H2382 C2396 0.929 . S
H2383 C2397 0.931 . S
H2384 C2399 0.930 . S
C2385 H2373 0.930 . S
C2385 C2386 1.399 . S
C2385 C2390 1.399 . S
C2386 C2385 1.399 . S
C2386 C2387 1.376 . S
C2387 H2374 0.930 . S
C2387 C2386 1.376 . S
C2387 C2388 1.388 . S
C2388 H2375 0.930 . S
C2388 C2387 1.388 . S
C2388 C2389 1.390 . S
C2389 C2388 1.390 . S
C2389 C2390 1.394 . S
C2389 C2395 1.465 . S
C2390 C2385 1.399 . S
C2390 C2389 1.394 . S
C2390 C2391 1.516 . S
C2391 C2390 1.516 . S
C2391 C2392 1.502 . S
C2391 C2393 1.561 . S
C2391 C2394 1.526 . S
C2392 H2376 0.959 . S
C2392 H2377 0.959 . S
C2392 H2378 0.961 . S
C2392 C2391 1.502 . S
C2393 H2379 0.960 . S
C2393 H2380 0.961 . S
C2393 H2381 0.959 . S
C2393 C2391 1.561 . S
C2394 C2391 1.526 . S
C2394 C2395 1.396 . S
C2394 C2399 1.390 . S
C2395 C2389 1.465 . S
C2395 C2394 1.396 . S
C2395 C2396 1.399 . S
C2396 H2382 0.929 . S
C2396 C2395 1.399 . S
C2396 C2397 1.385 . S
C2397 H2383 0.931 . S
C2397 C2396 1.385 . S
C2397 C2398 1.389 . S
C2398 C2397 1.389 . S
C2398 C2399 1.387 . S
C2399 H2384 0.930 . S
C2399 C2394 1.390 . S
C2399 C2398 1.387 . S
H2400 C2412 0.930 . S
H2401 C2414 0.930 . S
H2402 C2415 0.930 . S
H2403 C2419 0.959 . S
H2404 C2419 0.959 . S
H2405 C2419 0.961 1_554 S
H2406 C2420 0.960 . S
H2407 C2420 0.961 . S
H2408 C2420 0.959 1_546 S
H2409 C2423 0.929 . S
H2410 C2424 0.931 . S
H2411 C2426 0.930 . S
C2412 H2400 0.930 . S
C2412 C2413 1.403 . S
C2412 C2417 1.399 1_554 S
C2413 C2412 1.403 . S
C2413 C2414 1.351 1_564 S
C2414 H2401 0.930 . S
C2414 C2413 1.351 1_546 S
C2414 C2415 1.388 . S
C2415 H2402 0.930 . S
C2415 C2414 1.388 . S
C2415 C2416 1.390 . S
C2416 C2415 1.390 . S
C2416 C2417 1.394 1_545 S
C2416 C2422 1.465 . S
C2417 C2412 1.399 1_556 S
C2417 C2416 1.394 1_565 S
C2417 C2418 1.516 . S
C2418 C2417 1.516 . S
C2418 C2419 1.502 . S
C2418 C2420 1.561 1_556 S
C2418 C2421 1.526 . S
C2419 H2403 0.959 . S
C2419 H2404 0.959 . S
C2419 H2405 0.961 1_556 S
C2419 C2418 1.502 . S
C2420 H2406 0.960 . S
C2420 H2407 0.961 . S
C2420 H2408 0.959 1_564 S
C2420 C2418 1.561 1_554 S
C2421 C2418 1.526 . S
C2421 C2422 1.396 1_565 S
C2421 C2426 1.390 . S
C2422 C2416 1.465 . S
C2422 C2421 1.396 1_545 S
C2422 C2423 1.399 . S
C2423 H2409 0.929 . S
C2423 C2422 1.399 . S
C2423 C2424 1.385 . S
C2424 H2410 0.931 . S
C2424 C2423 1.385 . S
C2424 C2425 1.389 1_545 S
C2425 C2424 1.389 1_565 S
C2425 C2426 1.387 . S
C2426 H2411 0.930 . S
C2426 C2421 1.390 . S
C2426 C2425 1.387 . S
H2427 C2439 0.930 . S
H2428 C2441 0.930 . S
H2429 C2442 0.930 . S
H2430 C2446 0.959 1_655 S
H2431 C2446 0.959 1_655 S
H2432 C2446 0.961 . S
H2433 C2447 0.960 . S
H2434 C2447 0.961 . S
H2435 C2447 0.959 . S
H2436 C2450 0.929 . S
H2437 C2451 0.931 . S
H2438 C2453 0.930 . S
C2439 H2427 0.930 . S
C2439 C2440 1.399 . S
C2439 C2444 1.399 . S
C2440 C2439 1.399 . S
C2440 C2441 1.376 . S
C2441 H2428 0.930 . S
C2441 C2440 1.376 . S
C2441 C2442 1.388 . S
C2442 H2429 0.930 . S
C2442 C2441 1.388 . S
C2442 C2443 1.390 . S
C2443 C2442 1.390 . S
C2443 C2444 1.394 . S
C2443 C2449 1.465 . S
C2444 C2439 1.399 . S
C2444 C2443 1.394 . S
C2444 C2445 1.516 . S
C2445 C2444 1.516 . S
C2445 C2446 1.502 . S
C2445 C2447 1.561 . S
C2445 C2448 1.526 . S
C2446 H2430 0.959 1_455 S
C2446 H2431 0.959 1_455 S
C2446 H2432 0.961 . S
C2446 C2445 1.502 . S
C2447 H2433 0.960 . S
C2447 H2434 0.961 . S
C2447 H2435 0.959 . S
C2447 C2445 1.561 . S
C2448 C2445 1.526 . S
C2448 C2449 1.396 . S
C2448 C2453 1.390 1_455 S
C2449 C2443 1.465 . S
C2449 C2448 1.396 . S
C2449 C2450 1.399 . S
C2450 H2436 0.929 . S
C2450 C2449 1.399 . S
C2450 C2451 1.385 1_456 S
C2451 H2437 0.931 . S
C2451 C2450 1.385 1_654 S
C2451 C2452 1.389 . S
C2452 C2451 1.389 . S
C2452 C2453 1.387 1_554 S
C2453 H2438 0.930 . S
C2453 C2448 1.390 1_655 S
C2453 C2452 1.387 1_556 S
H2454 C2466 0.930 . S
H2455 C2468 0.930 . S
H2456 C2469 0.930 . S
H2457 C2473 0.959 . S
H2458 C2473 0.959 . S
H2459 C2473 0.961 . S
H2460 C2474 0.960 . S
H2461 C2474 0.961 . S
H2462 C2474 0.959 . S
H2463 C2477 0.929 . S
H2464 C2478 0.931 . S
H2465 C2480 0.930 . S
C2466 H2454 0.930 . S
C2466 C2467 1.399 . S
C2466 C2471 1.399 . S
C2467 C2466 1.399 . S
C2467 C2468 1.376 . S
C2468 H2455 0.930 . S
C2468 C2467 1.376 . S
C2468 C2469 1.388 . S
C2469 H2456 0.930 . S
C2469 C2468 1.388 . S
C2469 C2470 1.390 . S
C2470 C2469 1.390 . S
C2470 C2471 1.394 . S
C2470 C2476 1.465 . S
C2471 C2466 1.399 . S
C2471 C2470 1.394 . S
C2471 C2472 1.516 . S
C2472 C2471 1.516 . S
C2472 C2473 1.502 . S
C2472 C2474 1.561 . S
C2472 C2475 1.526 . S
C2473 H2457 0.959 . S
C2473 H2458 0.959 . S
C2473 H2459 0.961 . S
C2473 C2472 1.502 . S
C2474 H2460 0.960 . S
C2474 H2461 0.961 . S
C2474 H2462 0.959 . S
C2474 C2472 1.561 . S
C2475 C2472 1.526 . S
C2475 C2476 1.396 . S
C2475 C2480 1.390 . S
C2476 C2470 1.465 . S
C2476 C2475 1.396 . S
C2476 C2477 1.399 . S
C2477 H2463 0.929 . S
C2477 C2476 1.399 . S
C2477 C2478 1.385 . S
C2478 H2464 0.931 . S
C2478 C2477 1.385 . S
C2478 C2479 1.389 . S
C2479 C2478 1.389 . S
C2479 C2480 1.387 . S
C2480 H2465 0.930 . S
C2480 C2475 1.390 . S
C2480 C2479 1.387 . S
H2481 C2493 0.930 . S
H2482 C2495 0.930 . S
H2483 C2496 0.930 . S
H2484 C2500 0.953 1_655 S
H2485 C2500 0.959 . S
H2486 C2500 0.961 1_655 S
H2487 C2501 0.960 . S
H2488 C2501 0.961 . S
H2489 C2501 0.959 . S
H2490 C2504 0.929 . S
H2491 C2505 0.931 . S
H2492 C2507 0.930 . S
C2493 H2481 0.930 . S
C2493 C2494 1.399 . S
C2493 C2498 1.399 1_655 S
C2494 C2493 1.399 . S
C2494 C2495 1.376 1_565 S
C2495 H2482 0.930 . S
C2495 C2494 1.376 1_545 S
C2495 C2496 1.388 1_655 S
C2496 H2483 0.930 . S
C2496 C2495 1.388 1_455 S
C2496 C2497 1.424 . S
C2497 C2496 1.424 . S
C2497 C2498 1.352 1_545 S
C2497 C2503 1.466 . S
C2498 C2493 1.399 1_455 S
C2498 C2497 1.352 1_565 S
C2498 C2499 1.516 . S
C2499 C2498 1.516 . S
C2499 C2500 1.502 . S
C2499 C2501 1.561 . S
C2499 C2502 1.526 . S
C2500 H2484 0.953 1_455 S
C2500 H2485 0.959 . S
C2500 H2486 0.961 1_455 S
C2500 C2499 1.502 . S
C2501 H2487 0.960 . S
C2501 H2488 0.961 . S
C2501 H2489 0.959 . S
C2501 C2499 1.561 . S
C2502 C2499 1.526 . S
C2502 C2503 1.396 1_565 S
C2502 C2507 1.390 . S
C2503 C2497 1.466 . S
C2503 C2502 1.396 1_545 S
C2503 C2504 1.399 . S
C2504 H2490 0.929 . S
C2504 C2503 1.399 . S
C2504 C2505 1.385 . S
C2505 H2491 0.931 . S
C2505 C2504 1.385 . S
C2505 C2506 1.389 1_545 S
C2506 C2505 1.389 1_565 S
C2506 C2507 1.387 . S
C2507 H2492 0.930 . S
C2507 C2502 1.390 . S
C2507 C2506 1.387 . S
H2508 C2520 0.930 . S
H2509 C2522 0.930 . S
H2510 C2523 0.930 . S
H2511 C2527 0.959 . S
H2512 C2527 0.959 . S
H2513 C2527 0.961 . S
H2514 C2528 0.960 . S
H2515 C2528 0.961 . S
H2516 C2528 0.959 . S
H2517 C2531 0.929 . S
H2518 C2532 0.931 1_556 S
H2519 C2534 0.930 . S
C2520 H2508 0.930 . S
C2520 C2521 1.399 1_565 S
C2520 C2525 1.399 . S
C2521 C2520 1.399 1_545 S
C2521 C2522 1.376 . S
C2522 H2509 0.930 . S
C2522 C2521 1.376 . S
C2522 C2523 1.388 . S
C2523 H2510 0.930 . S
C2523 C2522 1.388 . S
C2523 C2524 1.390 . S
C2524 C2523 1.390 . S
C2524 C2525 1.394 1_545 S
C2524 C2530 1.465 . S
C2525 C2520 1.399 . S
C2525 C2524 1.394 1_565 S
C2525 C2526 1.516 . S
C2526 C2525 1.516 . S
C2526 C2527 1.502 . S
C2526 C2528 1.561 . S
C2526 C2529 1.526 . S
C2527 H2511 0.959 . S
C2527 H2512 0.959 . S
C2527 H2513 0.961 . S
C2527 C2526 1.502 . S
C2528 H2514 0.960 . S
C2528 H2515 0.961 . S
C2528 H2516 0.959 . S
C2528 C2526 1.561 . S
C2529 C2526 1.526 . S
C2529 C2530 1.396 1_565 S
C2529 C2534 1.390 . S
C2530 C2524 1.465 . S
C2530 C2529 1.396 1_545 S
C2530 C2531 1.399 . S
C2531 H2517 0.929 . S
C2531 C2530 1.399 . S
C2531 C2532 1.385 . S
C2532 H2518 0.931 1_554 S
C2532 C2531 1.385 . S
C2532 C2533 1.389 1_554 S
C2533 C2532 1.389 1_556 S
C2533 C2534 1.387 1_546 S
C2534 H2519 0.930 . S
C2534 C2529 1.390 . S
C2534 C2533 1.387 1_564 S
H2535 C2547 0.925 1_556 S
H2536 C2549 0.930 1_556 S
H2537 C2550 0.930 . S
H2538 C2554 0.959 . S
H2539 C2554 0.959 . S
H2540 C2554 0.961 . S
H2541 C2555 0.960 1_556 S
H2542 C2555 0.961 . S
H2543 C2555 0.959 . S
H2544 C2558 0.929 . S
H2545 C2559 0.931 . S
H2546 C2561 0.930 . S
C2547 H2535 0.925 1_554 S
C2547 C2548 1.399 1_554 S
C2547 C2552 1.399 1_455 S
C2548 C2547 1.399 1_556 S
C2548 C2549 1.376 1_556 S
C2549 H2536 0.930 1_554 S
C2549 C2548 1.376 1_554 S
C2549 C2550 1.388 1_455 S
C2550 H2537 0.930 . S
C2550 C2549 1.388 1_655 S
C2550 C2551 1.390 . S
C2551 C2550 1.390 . S
C2551 C2552 1.394 . S
C2551 C2557 1.465 . S
C2552 C2547 1.399 1_655 S
C2552 C2551 1.394 . S
C2552 C2553 1.516 . S
C2553 C2552 1.516 . S
C2553 C2554 1.502 . S
C2553 C2555 1.561 . S
C2553 C2556 1.526 . S
C2554 H2538 0.959 . S
C2554 H2539 0.959 . S
C2554 H2540 0.961 . S
C2554 C2553 1.502 . S
C2555 H2541 0.960 1_554 S
C2555 H2542 0.961 . S
C2555 H2543 0.959 . S
C2555 C2553 1.561 . S
C2556 C2553 1.526 . S
C2556 C2557 1.396 . S
C2556 C2561 1.390 . S
C2557 C2551 1.465 . S
C2557 C2556 1.396 . S
C2557 C2558 1.399 . S
C2558 H2544 0.929 . S
C2558 C2557 1.399 . S
C2558 C2559 1.385 . S
C2559 H2545 0.931 . S
C2559 C2558 1.385 . S
C2559 C2560 1.389 . S
C2560 C2559 1.389 . S
C2560 C2561 1.387 . S
C2561 H2546 0.930 . S
C2561 C2556 1.390 . S
C2561 C2560 1.387 . S
H2562 C2574 0.930 . S
H2563 C2576 0.930 . S
H2564 C2577 0.930 . S
H2565 C2581 0.959 . S
H2566 C2581 0.959 . S
H2567 C2581 0.961 . S
H2568 C2582 0.960 . S
H2569 C2582 0.961 . S
H2570 C2582 0.959 . S
H2571 C2585 0.929 . S
H2572 C2586 0.931 . S
H2573 C2588 0.930 . S
C2574 H2562 0.930 . S
C2574 C2575 1.399 . S
C2574 C2579 1.399 . S
C2575 C2574 1.399 . S
C2575 C2576 1.376 . S
C2576 H2563 0.930 . S
C2576 C2575 1.376 . S
C2576 C2577 1.388 . S
C2577 H2564 0.930 . S
C2577 C2576 1.388 . S
C2577 C2578 1.390 . S
C2578 C2577 1.390 . S
C2578 C2579 1.394 . S
C2578 C2584 1.465 . S
C2579 C2574 1.399 . S
C2579 C2578 1.394 . S
C2579 C2580 1.516 . S
C2580 C2579 1.516 . S
C2580 C2581 1.502 . S
C2580 C2582 1.561 . S
C2580 C2583 1.526 . S
C2581 H2565 0.959 . S
C2581 H2566 0.959 . S
C2581 H2567 0.961 . S
C2581 C2580 1.502 . S
C2582 H2568 0.960 . S
C2582 H2569 0.961 . S
C2582 H2570 0.959 . S
C2582 C2580 1.561 . S
C2583 C2580 1.526 . S
C2583 C2584 1.396 . S
C2583 C2588 1.390 . S
C2584 C2578 1.465 . S
C2584 C2583 1.396 . S
C2584 C2585 1.399 . S
C2585 H2571 0.929 . S
C2585 C2584 1.399 . S
C2585 C2586 1.385 . S
C2586 H2572 0.931 . S
C2586 C2585 1.385 . S
C2586 C2587 1.389 . S
C2587 C2586 1.389 . S
C2587 C2588 1.387 . S
C2588 H2573 0.930 . S
C2588 C2583 1.390 . S
C2588 C2587 1.387 . S
H2589 C2601 0.930 . S
H2590 C2603 0.930 . S
H2591 C2604 0.930 . S
H2592 C2608 0.959 . S
H2593 C2608 0.953 1_455 S
H2594 C2608 0.961 . S
H2595 C2609 0.960 . S
H2596 C2609 0.961 . S
H2597 C2609 0.959 . S
H2598 C2612 0.929 . S
H2599 C2613 0.931 . S
H2600 C2615 0.930 . S
C2601 H2589 0.930 . S
C2601 C2602 1.399 . S
C2601 C2606 1.399 . S
C2602 C2601 1.399 . S
C2602 C2603 1.376 1_545 S
C2603 H2590 0.930 . S
C2603 C2602 1.376 1_565 S
C2603 C2604 1.388 . S
C2604 H2591 0.930 . S
C2604 C2603 1.388 . S
C2604 C2605 1.390 . S
C2605 C2604 1.390 . S
C2605 C2606 1.394 1_565 S
C2605 C2611 1.465 . S
C2606 C2601 1.399 . S
C2606 C2605 1.394 1_545 S
C2606 C2607 1.516 . S
C2607 C2606 1.516 . S
C2607 C2608 1.502 . S
C2607 C2609 1.561 . S
C2607 C2610 1.526 . S
C2608 H2592 0.959 . S
C2608 H2593 0.953 1_655 S
C2608 H2594 0.961 . S
C2608 C2607 1.502 . S
C2609 H2595 0.960 . S
C2609 H2596 0.961 . S
C2609 H2597 0.959 . S
C2609 C2607 1.561 . S
C2610 C2607 1.526 . S
C2610 C2611 1.396 1_545 S
C2610 C2615 1.390 1_655 S
C2611 C2605 1.465 . S
C2611 C2610 1.396 1_565 S
C2611 C2612 1.399 . S
C2612 H2598 0.929 . S
C2612 C2611 1.399 . S
C2612 C2613 1.385 1_655 S
C2613 H2599 0.931 . S
C2613 C2612 1.385 1_455 S
C2613 C2614 1.389 1_565 S
C2614 C2613 1.389 1_545 S
C2614 C2615 1.387 . S
C2615 H2600 0.930 . S
C2615 C2610 1.390 1_455 S
C2615 C2614 1.387 . S
H2616 C2628 0.930 . S
H2617 C2630 0.930 . S
H2618 C2631 0.930 . S
H2619 C2635 0.959 . S
H2620 C2635 0.959 . S
H2621 C2635 0.961 . S
H2622 C2636 0.960 . S
H2623 C2636 0.961 . S
H2624 C2636 0.959 . S
H2625 C2639 0.929 . S
H2626 C2640 0.931 . S
H2627 C2642 0.930 . S
C2628 H2616 0.930 . S
C2628 C2629 1.399 . S
C2628 C2633 1.399 . S
C2629 C2628 1.399 . S
C2629 C2630 1.376 . S
C2630 H2617 0.930 . S
C2630 C2629 1.376 . S
C2630 C2631 1.388 . S
C2631 H2618 0.930 . S
C2631 C2630 1.388 . S
C2631 C2632 1.390 . S
C2632 C2631 1.390 . S
C2632 C2633 1.394 . S
C2632 C2638 1.465 . S
C2633 C2628 1.399 . S
C2633 C2632 1.394 . S
C2633 C2634 1.516 . S
C2634 C2633 1.516 . S
C2634 C2635 1.502 . S
C2634 C2636 1.561 . S
C2634 C2637 1.526 . S
C2635 H2619 0.959 . S
C2635 H2620 0.959 . S
C2635 H2621 0.961 . S
C2635 C2634 1.502 . S
C2636 H2622 0.960 . S
C2636 H2623 0.961 . S
C2636 H2624 0.959 . S
C2636 C2634 1.561 . S
C2637 C2634 1.526 . S
C2637 C2638 1.396 . S
C2637 C2642 1.390 . S
C2638 C2632 1.465 . S
C2638 C2637 1.396 . S
C2638 C2639 1.399 . S
C2639 H2625 0.929 . S
C2639 C2638 1.399 . S
C2639 C2640 1.385 . S
C2640 H2626 0.931 . S
C2640 C2639 1.385 . S
C2640 C2641 1.389 . S
C2641 C2640 1.389 . S
C2641 C2642 1.387 . S
C2642 H2627 0.930 . S
C2642 C2637 1.390 . S
C2642 C2641 1.387 . S
H2643 C2655 0.930 . S
H2644 C2657 0.930 . S
H2645 C2658 0.930 . S
H2646 C2662 0.959 . S
H2647 C2662 0.959 . S
H2648 C2662 0.961 . S
H2649 C2663 0.960 . S
H2650 C2663 0.961 . S
H2651 C2663 0.959 . S
H2652 C2666 0.929 . S
H2653 C2667 0.931 . S
H2654 C2669 0.929 1_455 S
C2655 H2643 0.930 . S
C2655 C2656 1.399 . S
C2655 C2660 1.399 . S
C2656 C2655 1.399 . S
C2656 C2657 1.376 . S
C2657 H2644 0.930 . S
C2657 C2656 1.376 . S
C2657 C2658 1.388 . S
C2658 H2645 0.930 . S
C2658 C2657 1.388 . S
C2658 C2659 1.390 . S
C2659 C2658 1.390 . S
C2659 C2660 1.394 . S
C2659 C2665 1.465 . S
C2660 C2655 1.399 . S
C2660 C2659 1.394 . S
C2660 C2661 1.516 . S
C2661 C2660 1.516 . S
C2661 C2662 1.502 . S
C2661 C2663 1.561 . S
C2661 C2664 1.526 . S
C2662 H2646 0.959 . S
C2662 H2647 0.959 . S
C2662 H2648 0.961 . S
C2662 C2661 1.502 . S
C2663 H2649 0.960 . S
C2663 H2650 0.961 . S
C2663 H2651 0.959 . S
C2663 C2661 1.561 . S
C2664 C2661 1.526 . S
C2664 C2665 1.396 . S
C2664 C2669 1.385 1_455 S
C2665 C2659 1.465 . S
C2665 C2664 1.396 . S
C2665 C2666 1.399 1_455 S
C2666 H2652 0.929 . S
C2666 C2665 1.399 1_655 S
C2666 C2667 1.385 . S
C2667 H2653 0.931 . S
C2667 C2666 1.385 . S
C2667 C2668 1.389 . S
C2668 C2667 1.389 . S
C2668 C2669 1.393 . S
C2669 H2654 0.929 1_655 S
C2669 C2664 1.385 1_655 S
C2669 C2668 1.393 . S
H2670 C2682 0.930 . S
H2671 C2684 0.930 . S
H2672 C2685 0.930 . S
H2673 C2689 0.959 . S
H2674 C2689 0.959 . S
H2675 C2689 0.961 . S
H2676 C2690 0.960 . S
H2677 C2690 0.961 . S
H2678 C2690 0.959 . S
H2679 C2693 0.929 . S
H2680 C2694 0.931 . S
H2681 C2696 0.930 . S
C2682 H2670 0.930 . S
C2682 C2683 1.399 . S
C2682 C2687 1.399 . S
C2683 C2682 1.399 . S
C2683 C2684 1.376 . S
C2684 H2671 0.930 . S
C2684 C2683 1.376 . S
C2684 C2685 1.388 . S
C2685 H2672 0.930 . S
C2685 C2684 1.388 . S
C2685 C2686 1.390 . S
C2686 C2685 1.390 . S
C2686 C2687 1.394 . S
C2686 C2692 1.465 . S
C2687 C2682 1.399 . S
C2687 C2686 1.394 . S
C2687 C2688 1.516 . S
C2688 C2687 1.516 . S
C2688 C2689 1.502 . S
C2688 C2690 1.561 . S
C2688 C2691 1.526 . S
C2689 H2673 0.959 . S
C2689 H2674 0.959 . S
C2689 H2675 0.961 . S
C2689 C2688 1.502 . S
C2690 H2676 0.960 . S
C2690 H2677 0.961 . S
C2690 H2678 0.959 . S
C2690 C2688 1.561 . S
C2691 C2688 1.526 . S
C2691 C2692 1.396 . S
C2691 C2696 1.390 . S
C2692 C2686 1.465 . S
C2692 C2691 1.396 . S
C2692 C2693 1.399 . S
C2693 H2679 0.929 . S
C2693 C2692 1.399 . S
C2693 C2694 1.385 . S
C2694 H2680 0.931 . S
C2694 C2693 1.385 . S
C2694 C2695 1.389 . S
C2695 C2694 1.389 . S
C2695 C2696 1.387 . S
C2696 H2681 0.930 . S
C2696 C2691 1.390 . S
C2696 C2695 1.387 . S
H2697 C2709 0.930 . S
H2698 C2711 0.930 . S
H2699 C2712 0.930 . S
H2700 C2716 0.959 . S
H2701 C2716 0.959 . S
H2702 C2716 0.961 . S
H2703 C2717 0.960 . S
H2704 C2717 0.961 . S
H2705 C2717 0.959 . S
H2706 C2720 0.935 . S
H2707 C2721 0.931 . S
H2708 C2723 0.930 . S
C2709 H2697 0.930 . S
C2709 C2710 1.399 . S
C2709 C2714 1.399 . S
C2710 C2709 1.399 . S
C2710 C2711 1.376 . S
C2711 H2698 0.930 . S
C2711 C2710 1.376 . S
C2711 C2712 1.388 . S
C2712 H2699 0.930 . S
C2712 C2711 1.388 . S
C2712 C2713 1.390 . S
C2713 C2712 1.390 . S
C2713 C2714 1.394 . S
C2713 C2719 1.465 . S
C2714 C2709 1.399 . S
C2714 C2713 1.394 . S
C2714 C2715 1.516 . S
C2715 C2714 1.516 . S
C2715 C2716 1.502 . S
C2715 C2717 1.561 . S
C2715 C2718 1.526 . S
C2716 H2700 0.959 . S
C2716 H2701 0.959 . S
C2716 H2702 0.961 . S
C2716 C2715 1.502 . S
C2717 H2703 0.960 . S
C2717 H2704 0.961 . S
C2717 H2705 0.959 . S
C2717 C2715 1.561 . S
C2718 C2715 1.526 . S
C2718 C2719 1.396 . S
C2718 C2723 1.390 1_455 S
C2719 C2713 1.465 . S
C2719 C2718 1.396 . S
C2719 C2720 1.418 . S
C2720 H2706 0.935 . S
C2720 C2719 1.418 . S
C2720 C2721 1.361 1_455 S
C2721 H2707 0.931 . S
C2721 C2720 1.361 1_655 S
C2721 C2722 1.389 . S
C2722 C2721 1.389 . S
C2722 C2723 1.387 . S
C2723 H2708 0.930 . S
C2723 C2718 1.390 1_655 S
C2723 C2722 1.387 . S
H2724 C2736 0.930 . S
H2725 C2738 0.930 . S
H2726 C2739 0.930 . S
H2727 C2743 0.959 . S
H2728 C2743 0.959 . S
H2729 C2743 0.961 . S
H2730 C2744 0.960 . S
H2731 C2744 0.961 . S
H2732 C2744 0.959 . S
H2733 C2747 0.929 . S
H2734 C2748 0.931 . S
H2735 C2750 0.930 . S
C2736 H2724 0.930 . S
C2736 C2737 1.399 . S
C2736 C2741 1.399 . S
C2737 C2736 1.399 . S
C2737 C2738 1.376 . S
C2738 H2725 0.930 . S
C2738 C2737 1.376 . S
C2738 C2739 1.388 . S
C2739 H2726 0.930 . S
C2739 C2738 1.388 . S
C2739 C2740 1.390 . S
C2740 C2739 1.390 . S
C2740 C2741 1.394 . S
C2740 C2746 1.465 . S
C2741 C2736 1.399 . S
C2741 C2740 1.394 . S
C2741 C2742 1.516 . S
C2742 C2741 1.516 . S
C2742 C2743 1.502 . S
C2742 C2744 1.561 . S
C2742 C2745 1.526 . S
C2743 H2727 0.959 . S
C2743 H2728 0.959 . S
C2743 H2729 0.961 . S
C2743 C2742 1.502 . S
C2744 H2730 0.960 . S
C2744 H2731 0.961 . S
C2744 H2732 0.959 . S
C2744 C2742 1.561 . S
C2745 C2742 1.526 . S
C2745 C2746 1.396 . S
C2745 C2750 1.390 . S
C2746 C2740 1.465 . S
C2746 C2745 1.396 . S
C2746 C2747 1.399 . S
C2747 H2733 0.929 . S
C2747 C2746 1.399 . S
C2747 C2748 1.385 . S
C2748 H2734 0.931 . S
C2748 C2747 1.385 . S
C2748 C2749 1.389 . S
C2749 C2748 1.389 . S
C2749 C2750 1.387 . S
C2750 H2735 0.930 . S
C2750 C2745 1.390 . S
C2750 C2749 1.387 . S
H2751 C2763 0.930 . S
H2752 C2765 0.930 . S
H2753 C2766 0.930 . S
H2754 C2770 0.959 . S
H2755 C2770 0.959 . S
H2756 C2770 0.961 1_455 S
H2757 C2771 0.960 . S
H2758 C2771 0.961 . S
H2759 C2771 0.959 . S
H2760 C2774 0.929 . S
H2761 C2775 0.931 . S
H2762 C2777 0.930 . S
C2763 H2751 0.930 . S
C2763 C2764 1.399 . S
C2763 C2768 1.399 1_455 S
C2764 C2763 1.399 . S
C2764 C2765 1.376 . S
C2765 H2752 0.930 . S
C2765 C2764 1.376 . S
C2765 C2766 1.388 1_455 S
C2766 H2753 0.930 . S
C2766 C2765 1.388 1_655 S
C2766 C2767 1.390 . S
C2767 C2766 1.390 . S
C2767 C2768 1.394 . S
C2767 C2773 1.465 . S
C2768 C2763 1.399 1_655 S
C2768 C2767 1.394 . S
C2768 C2769 1.516 . S
C2769 C2768 1.516 . S
C2769 C2770 1.502 . S
C2769 C2771 1.561 . S
C2769 C2772 1.526 . S
C2770 H2754 0.959 . S
C2770 H2755 0.959 . S
C2770 H2756 0.961 1_655 S
C2770 C2769 1.502 . S
C2771 H2757 0.960 . S
C2771 H2758 0.961 . S
C2771 H2759 0.959 . S
C2771 C2769 1.561 . S
C2772 C2769 1.526 . S
C2772 C2773 1.396 . S
C2772 C2777 1.390 . S
C2773 C2767 1.465 . S
C2773 C2772 1.396 . S
C2773 C2774 1.399 . S
C2774 H2760 0.929 . S
C2774 C2773 1.399 . S
C2774 C2775 1.385 . S
C2775 H2761 0.931 . S
C2775 C2774 1.385 . S
C2775 C2776 1.389 . S
C2776 C2775 1.389 . S
C2776 C2777 1.387 . S
C2777 H2762 0.930 . S
C2777 C2772 1.390 . S
C2777 C2776 1.387 . S
H2778 C2790 0.930 . S
H2779 C2792 0.930 . S
H2780 C2793 0.930 . S
H2781 C2797 0.959 . S
H2782 C2797 0.959 . S
H2783 C2797 0.961 . S
H2784 C2798 0.960 . S
H2785 C2798 0.961 . S
H2786 C2798 0.959 . S
H2787 C2801 0.929 . S
H2788 C2802 0.931 . S
H2789 C2804 0.930 . S
C2790 H2778 0.930 . S
C2790 C2791 1.399 . S
C2790 C2795 1.399 . S
C2791 C2790 1.399 . S
C2791 C2792 1.376 . S
C2792 H2779 0.930 . S
C2792 C2791 1.376 . S
C2792 C2793 1.388 . S
C2793 H2780 0.930 . S
C2793 C2792 1.388 . S
C2793 C2794 1.390 . S
C2794 C2793 1.390 . S
C2794 C2795 1.394 . S
C2794 C2800 1.465 . S
C2795 C2790 1.399 . S
C2795 C2794 1.394 . S
C2795 C2796 1.516 . S
C2796 C2795 1.516 . S
C2796 C2797 1.502 . S
C2796 C2798 1.561 . S
C2796 C2799 1.526 . S
C2797 H2781 0.959 . S
C2797 H2782 0.959 . S
C2797 H2783 0.961 . S
C2797 C2796 1.502 . S
C2798 H2784 0.960 . S
C2798 H2785 0.961 . S
C2798 H2786 0.959 . S
C2798 C2796 1.561 . S
C2799 C2796 1.526 . S
C2799 C2800 1.396 . S
C2799 C2804 1.390 . S
C2800 C2794 1.465 . S
C2800 C2799 1.396 . S
C2800 C2801 1.399 . S
C2801 H2787 0.929 . S
C2801 C2800 1.399 . S
C2801 C2802 1.385 . S
C2802 H2788 0.931 . S
C2802 C2801 1.385 . S
C2802 C2803 1.389 . S
C2803 C2802 1.389 . S
C2803 C2804 1.387 . S
C2804 H2789 0.930 . S
C2804 C2799 1.390 . S
C2804 C2803 1.387 . S
H2805 C2817 0.930 . S
H2806 C2819 0.930 . S
H2807 C2820 0.930 . S
H2808 C2824 0.959 . S
H2809 C2824 0.959 . S
H2810 C2824 0.961 . S
H2811 C2825 0.960 . S
H2812 C2825 0.961 . S
H2813 C2825 0.959 . S
H2814 C2828 0.929 . S
H2815 C2829 0.931 . S
H2816 C2831 0.930 . S
C2817 H2805 0.930 . S
C2817 C2818 1.399 . S
C2817 C2822 1.399 . S
C2818 C2817 1.399 . S
C2818 C2819 1.376 . S
C2819 H2806 0.930 . S
C2819 C2818 1.376 . S
C2819 C2820 1.388 . S
C2820 H2807 0.930 . S
C2820 C2819 1.388 . S
C2820 C2821 1.390 . S
C2821 C2820 1.390 . S
C2821 C2822 1.394 . S
C2821 C2827 1.465 . S
C2822 C2817 1.399 . S
C2822 C2821 1.394 . S
C2822 C2823 1.516 . S
C2823 C2822 1.516 . S
C2823 C2824 1.502 . S
C2823 C2825 1.561 . S
C2823 C2826 1.526 . S
C2824 H2808 0.959 . S
C2824 H2809 0.959 . S
C2824 H2810 0.961 . S
C2824 C2823 1.502 . S
C2825 H2811 0.960 . S
C2825 H2812 0.961 . S
C2825 H2813 0.959 . S
C2825 C2823 1.561 . S
C2826 C2823 1.526 . S
C2826 C2827 1.396 . S
C2826 C2831 1.390 1_655 S
C2827 C2821 1.465 . S
C2827 C2826 1.396 . S
C2827 C2828 1.399 . S
C2828 H2814 0.929 . S
C2828 C2827 1.399 . S
C2828 C2829 1.385 1_655 S
C2829 H2815 0.931 . S
C2829 C2828 1.385 1_455 S
C2829 C2830 1.389 . S
C2830 C2829 1.389 . S
C2830 C2831 1.387 . S
C2831 H2816 0.930 . S
C2831 C2826 1.390 1_455 S
C2831 C2830 1.387 . S
H2832 C2844 0.930 . S
H2833 C2846 0.930 . S
H2834 C2847 0.930 . S
H2835 C2851 0.959 . S
H2836 C2851 0.959 . S
H2837 C2851 0.961 . S
H2838 C2852 0.960 . S
H2839 C2852 0.961 . S
H2840 C2852 0.959 . S
H2841 C2855 0.929 . S
H2842 C2856 0.931 . S
H2843 C2858 0.930 . S
C2844 H2832 0.930 . S
C2844 C2845 1.399 1_545 S
C2844 C2849 1.399 . S
C2845 C2844 1.399 1_565 S
C2845 C2846 1.376 . S
C2846 H2833 0.930 . S
C2846 C2845 1.376 . S
C2846 C2847 1.388 . S
C2847 H2834 0.930 . S
C2847 C2846 1.388 . S
C2847 C2848 1.390 . S
C2848 C2847 1.390 . S
C2848 C2849 1.394 1_565 S
C2848 C2854 1.465 . S
C2849 C2844 1.399 . S
C2849 C2848 1.394 1_545 S
C2849 C2850 1.516 . S
C2850 C2849 1.516 . S
C2850 C2851 1.502 . S
C2850 C2852 1.561 . S
C2850 C2853 1.526 . S
C2851 H2835 0.959 . S
C2851 H2836 0.959 . S
C2851 H2837 0.961 . S
C2851 C2850 1.502 . S
C2852 H2838 0.960 . S
C2852 H2839 0.961 . S
C2852 H2840 0.959 . S
C2852 C2850 1.561 . S
C2853 C2850 1.526 . S
C2853 C2854 1.396 1_545 S
C2853 C2858 1.390 . S
C2854 C2848 1.465 . S
C2854 C2853 1.396 1_565 S
C2854 C2855 1.399 . S
C2855 H2841 0.929 . S
C2855 C2854 1.399 . S
C2855 C2856 1.385 . S
C2856 H2842 0.931 . S
C2856 C2855 1.385 . S
C2856 C2857 1.389 . S
C2857 C2856 1.389 . S
C2857 C2858 1.387 1_565 S
C2858 H2843 0.930 . S
C2858 C2853 1.390 . S
C2858 C2857 1.387 1_545 S
H2859 C2871 0.930 . S
H2860 C2873 0.930 . S
H2861 C2874 0.930 . S
H2862 C2878 0.959 . S
H2863 C2878 0.959 . S
H2864 C2878 0.961 . S
H2865 C2879 0.960 . S
H2866 C2879 0.961 . S
H2867 C2879 0.959 . S
H2868 C2882 0.929 . S
H2869 C2883 0.931 . S
H2870 C2885 0.930 . S
C2871 H2859 0.930 . S
C2871 C2872 1.399 . S
C2871 C2876 1.399 . S
C2872 C2871 1.399 . S
C2872 C2873 1.376 . S
C2873 H2860 0.930 . S
C2873 C2872 1.376 . S
C2873 C2874 1.388 . S
C2874 H2861 0.930 . S
C2874 C2873 1.388 . S
C2874 C2875 1.390 . S
C2875 C2874 1.390 . S
C2875 C2876 1.394 . S
C2875 C2881 1.465 . S
C2876 C2871 1.399 . S
C2876 C2875 1.394 . S
C2876 C2877 1.516 . S
C2877 C2876 1.516 . S
C2877 C2878 1.502 . S
C2877 C2879 1.561 . S
C2877 C2880 1.526 . S
C2878 H2862 0.959 . S
C2878 H2863 0.959 . S
C2878 H2864 0.961 . S
C2878 C2877 1.502 . S
C2879 H2865 0.960 . S
C2879 H2866 0.961 . S
C2879 H2867 0.959 . S
C2879 C2877 1.561 . S
C2880 C2877 1.526 . S
C2880 C2881 1.396 . S
C2880 C2885 1.390 . S
C2881 C2875 1.465 . S
C2881 C2880 1.396 . S
C2881 C2882 1.399 . S
C2882 H2868 0.929 . S
C2882 C2881 1.399 . S
C2882 C2883 1.385 . S
C2883 H2869 0.931 . S
C2883 C2882 1.385 . S
C2883 C2884 1.389 . S
C2884 C2883 1.389 . S
C2884 C2885 1.387 . S
C2885 H2870 0.930 . S
C2885 C2880 1.390 . S
C2885 C2884 1.387 . S
H2886 C2898 0.930 . S
H2887 C2900 0.930 . S
H2888 C2901 0.930 . S
H2889 C2905 0.959 . S
H2890 C2905 0.959 . S
H2891 C2905 0.961 . S
H2892 C2906 0.960 . S
H2893 C2906 0.961 . S
H2894 C2906 0.959 . S
H2895 C2909 0.929 . S
H2896 C2910 0.931 . S
H2897 C2912 0.930 . S
C2898 H2886 0.930 . S
C2898 C2899 1.399 . S
C2898 C2903 1.399 . S
C2899 C2898 1.399 . S
C2899 C2900 1.376 . S
C2900 H2887 0.930 . S
C2900 C2899 1.376 . S
C2900 C2901 1.388 . S
C2901 H2888 0.930 . S
C2901 C2900 1.388 . S
C2901 C2902 1.390 . S
C2902 C2901 1.390 . S
C2902 C2903 1.394 . S
C2902 C2908 1.465 . S
C2903 C2898 1.399 . S
C2903 C2902 1.394 . S
C2903 C2904 1.516 . S
C2904 C2903 1.516 . S
C2904 C2905 1.502 . S
C2904 C2906 1.561 . S
C2904 C2907 1.526 . S
C2905 H2889 0.959 . S
C2905 H2890 0.959 . S
C2905 H2891 0.961 . S
C2905 C2904 1.502 . S
C2906 H2892 0.960 . S
C2906 H2893 0.961 . S
C2906 H2894 0.959 . S
C2906 C2904 1.561 . S
C2907 C2904 1.526 . S
C2907 C2908 1.396 . S
C2907 C2912 1.390 . S
C2908 C2902 1.465 . S
C2908 C2907 1.396 . S
C2908 C2909 1.399 . S
C2909 H2895 0.929 . S
C2909 C2908 1.399 . S
C2909 C2910 1.385 . S
C2910 H2896 0.931 . S
C2910 C2909 1.385 . S
C2910 C2911 1.389 . S
C2911 C2910 1.389 . S
C2911 C2912 1.387 . S
C2912 H2897 0.930 . S
C2912 C2907 1.390 . S
C2912 C2911 1.387 . S
H2913 C2925 0.930 1_545 S
H2914 C2927 0.930 . S
H2915 C2928 0.930 . S
H2916 C2932 0.959 . S
H2917 C2932 0.959 . S
H2918 C2932 0.961 . S
H2919 C2933 0.960 . S
H2920 C2933 0.961 . S
H2921 C2933 0.959 . S
H2922 C2936 0.929 . S
H2923 C2937 0.931 . S
H2924 C2939 0.921 1_545 S
C2925 H2913 0.930 1_565 S
C2925 C2926 1.399 . S
C2925 C2930 1.399 . S
C2926 C2925 1.399 . S
C2926 C2927 1.376 . S
C2927 H2914 0.930 . S
C2927 C2926 1.376 . S
C2927 C2928 1.388 . S
C2928 H2915 0.930 . S
C2928 C2927 1.388 . S
C2928 C2929 1.390 . S
C2929 C2928 1.390 . S
C2929 C2930 1.394 . S
C2929 C2935 1.465 . S
C2930 C2925 1.399 . S
C2930 C2929 1.394 . S
C2930 C2931 1.516 . S
C2931 C2930 1.516 . S
C2931 C2932 1.502 1_565 S
C2931 C2933 1.561 . S
C2931 C2934 1.526 . S
C2932 H2916 0.959 . S
C2932 H2917 0.959 . S
C2932 H2918 0.961 . S
C2932 C2931 1.502 1_545 S
C2933 H2919 0.960 . S
C2933 H2920 0.961 . S
C2933 H2921 0.959 . S
C2933 C2931 1.561 . S
C2934 C2931 1.526 . S
C2934 C2935 1.396 . S
C2934 C2939 1.390 . S
C2935 C2929 1.465 . S
C2935 C2934 1.396 . S
C2935 C2936 1.399 . S
C2936 H2922 0.929 . S
C2936 C2935 1.399 . S
C2936 C2937 1.385 . S
C2937 H2923 0.931 . S
C2937 C2936 1.385 . S
C2937 C2938 1.389 . S
C2938 C2937 1.389 . S
C2938 C2939 1.387 . S
C2939 H2924 0.921 1_565 S
C2939 C2934 1.390 . S
C2939 C2938 1.387 . S
H2940 C2952 0.930 . S
H2941 C2954 0.930 . S
H2942 C2955 0.930 . S
H2943 C2959 0.959 . S
H2944 C2959 0.959 . S
H2945 C2959 0.961 . S
H2946 C2960 0.960 . S
H2947 C2960 0.961 . S
H2948 C2960 0.959 . S
H2949 C2963 0.929 . S
H2950 C2964 0.931 . S
H2951 C2966 0.930 . S
C2952 H2940 0.930 . S
C2952 C2953 1.399 . S
C2952 C2957 1.399 . S
C2953 C2952 1.399 . S
C2953 C2954 1.376 1_545 S
C2954 H2941 0.930 . S
C2954 C2953 1.376 1_565 S
C2954 C2955 1.388 . S
C2955 H2942 0.930 . S
C2955 C2954 1.388 . S
C2955 C2956 1.390 . S
C2956 C2955 1.390 . S
C2956 C2957 1.394 1_565 S
C2956 C2962 1.465 . S
C2957 C2952 1.399 . S
C2957 C2956 1.394 1_545 S
C2957 C2958 1.516 . S
C2958 C2957 1.516 . S
C2958 C2959 1.502 . S
C2958 C2960 1.561 . S
C2958 C2961 1.526 . S
C2959 H2943 0.959 . S
C2959 H2944 0.959 . S
C2959 H2945 0.961 . S
C2959 C2958 1.502 . S
C2960 H2946 0.960 . S
C2960 H2947 0.961 . S
C2960 H2948 0.959 . S
C2960 C2958 1.561 . S
C2961 C2958 1.526 . S
C2961 C2962 1.396 1_545 S
C2961 C2966 1.390 . S
C2962 C2956 1.465 . S
C2962 C2961 1.396 1_565 S
C2962 C2963 1.399 . S
C2963 H2949 0.929 . S
C2963 C2962 1.399 . S
C2963 C2964 1.385 . S
C2964 H2950 0.931 . S
C2964 C2963 1.385 . S
C2964 C2965 1.389 1_565 S
C2965 C2964 1.389 1_545 S
C2965 C2966 1.387 . S
C2966 H2951 0.930 . S
C2966 C2961 1.390 . S
C2966 C2965 1.387 . S
H2967 C2979 0.930 . S
H2968 C2981 0.930 . S
H2969 C2982 0.930 . S
H2970 C2986 0.959 . S
H2971 C2986 0.959 . S
H2972 C2986 0.961 . S
H2973 C2987 0.960 . S
H2974 C2987 0.961 . S
H2975 C2987 0.959 . S
H2976 C2990 0.929 . S
H2977 C2991 0.931 . S
H2978 C2993 0.930 . S
C2979 H2967 0.930 . S
C2979 C2980 1.399 . S
C2979 C2984 1.399 . S
C2980 C2979 1.399 . S
C2980 C2981 1.376 . S
C2981 H2968 0.930 . S
C2981 C2980 1.376 . S
C2981 C2982 1.388 . S
C2982 H2969 0.930 . S
C2982 C2981 1.388 . S
C2982 C2983 1.390 . S
C2983 C2982 1.390 . S
C2983 C2984 1.394 . S
C2983 C2989 1.465 . S
C2984 C2979 1.399 . S
C2984 C2983 1.394 . S
C2984 C2985 1.516 . S
C2985 C2984 1.516 . S
C2985 C2986 1.502 . S
C2985 C2987 1.561 . S
C2985 C2988 1.526 . S
C2986 H2970 0.959 . S
C2986 H2971 0.959 . S
C2986 H2972 0.961 . S
C2986 C2985 1.502 . S
C2987 H2973 0.960 . S
C2987 H2974 0.961 . S
C2987 H2975 0.959 . S
C2987 C2985 1.561 . S
C2988 C2985 1.526 . S
C2988 C2989 1.396 . S
C2988 C2993 1.390 . S
C2989 C2983 1.465 . S
C2989 C2988 1.396 . S
C2989 C2990 1.399 . S
C2990 H2976 0.929 . S
C2990 C2989 1.399 . S
C2990 C2991 1.385 . S
C2991 H2977 0.931 . S
C2991 C2990 1.385 . S
C2991 C2992 1.389 . S
C2992 C2991 1.389 . S
C2992 C2993 1.387 . S
C2993 H2978 0.930 . S
C2993 C2988 1.390 . S
C2993 C2992 1.387 . S
H2994 C3006 0.930 . S
H2995 C3008 0.930 . S
H2996 C3009 0.930 . S
H2997 C3013 0.959 . S
H2998 C3013 0.959 . S
H2999 C3013 0.961 . S
H3000 C3014 0.960 . S
H3001 C3014 0.961 . S
H3002 C3014 0.959 . S
H3003 C3017 0.929 . S
H3004 C3018 0.931 . S
H3005 C3020 0.930 . S
C3006 H2994 0.930 . S
C3006 C3007 1.399 . S
C3006 C3011 1.399 . S
C3007 C3006 1.399 . S
C3007 C3008 1.376 . S
C3008 H2995 0.930 . S
C3008 C3007 1.376 . S
C3008 C3009 1.388 . S
C3009 H2996 0.930 . S
C3009 C3008 1.388 . S
C3009 C3010 1.390 . S
C3010 C3009 1.390 . S
C3010 C3011 1.394 . S
C3010 C3016 1.465 . S
C3011 C3006 1.399 . S
C3011 C3010 1.394 . S
C3011 C3012 1.516 . S
C3012 C3011 1.516 . S
C3012 C3013 1.502 . S
C3012 C3014 1.561 . S
C3012 C3015 1.526 . S
C3013 H2997 0.959 . S
C3013 H2998 0.959 . S
C3013 H2999 0.961 . S
C3013 C3012 1.502 . S
C3014 H3000 0.960 . S
C3014 H3001 0.961 . S
C3014 H3002 0.959 . S
C3014 C3012 1.561 . S
C3015 C3012 1.526 . S
C3015 C3016 1.396 . S
C3015 C3020 1.390 . S
C3016 C3010 1.465 . S
C3016 C3015 1.396 . S
C3016 C3017 1.399 . S
C3017 H3003 0.929 . S
C3017 C3016 1.399 . S
C3017 C3018 1.385 . S
C3018 H3004 0.931 . S
C3018 C3017 1.385 . S
C3018 C3019 1.389 . S
C3019 C3018 1.389 . S
C3019 C3020 1.387 . S
C3020 H3005 0.930 . S
C3020 C3015 1.390 . S
C3020 C3019 1.387 . S
H3021 C3033 0.930 . S
H3022 C3035 0.930 . S
H3023 C3036 0.930 . S
H3024 C3040 0.959 . S
H3025 C3040 0.959 . S
H3026 C3040 0.961 . S
H3027 C3041 0.960 . S
H3028 C3041 0.961 . S
H3029 C3041 0.959 . S
H3030 C3044 0.929 . S
H3031 C3045 0.931 . S
H3032 C3047 0.930 . S
C3033 H3021 0.930 . S
C3033 C3034 1.399 1_565 S
C3033 C3038 1.399 . S
C3034 C3033 1.399 1_545 S
C3034 C3035 1.376 . S
C3035 H3022 0.930 . S
C3035 C3034 1.376 . S
C3035 C3036 1.388 . S
C3036 H3023 0.930 . S
C3036 C3035 1.388 . S
C3036 C3037 1.390 . S
C3037 C3036 1.390 . S
C3037 C3038 1.394 1_545 S
C3037 C3043 1.465 . S
C3038 C3033 1.399 . S
C3038 C3037 1.394 1_565 S
C3038 C3039 1.516 . S
C3039 C3038 1.516 . S
C3039 C3040 1.502 . S
C3039 C3041 1.561 . S
C3039 C3042 1.526 . S
C3040 H3024 0.959 . S
C3040 H3025 0.959 . S
C3040 H3026 0.961 . S
C3040 C3039 1.502 . S
C3041 H3027 0.960 . S
C3041 H3028 0.961 . S
C3041 H3029 0.959 . S
C3041 C3039 1.561 . S
C3042 C3039 1.526 . S
C3042 C3043 1.396 1_565 S
C3042 C3047 1.390 . S
C3043 C3037 1.465 . S
C3043 C3042 1.396 1_545 S
C3043 C3044 1.399 . S
C3044 H3030 0.929 . S
C3044 C3043 1.399 . S
C3044 C3045 1.385 . S
C3045 H3031 0.931 . S
C3045 C3044 1.385 . S
C3045 C3046 1.389 . S
C3046 C3045 1.389 . S
C3046 C3047 1.387 1_545 S
C3047 H3032 0.930 . S
C3047 C3042 1.390 . S
C3047 C3046 1.387 1_565 S
H3048 C3060 0.930 . S
H3049 C3062 0.930 . S
H3050 C3063 0.930 . S
H3051 C3067 0.954 1_554 S
H3052 C3067 0.940 1_554 S
H3053 C3067 0.967 . S
H3054 C3068 0.960 . S
H3055 C3068 0.961 . S
H3056 C3068 0.959 . S
H3057 C3071 0.929 . S
H3058 C3072 0.931 . S
H3059 C3074 0.942 . S
C3060 H3048 0.930 . S
C3060 C3061 1.399 . S
C3060 C3065 1.399 . S
C3061 C3060 1.399 . S
C3061 C3062 1.376 . S
C3062 H3049 0.930 . S
C3062 C3061 1.376 . S
C3062 C3063 1.388 . S
C3063 H3050 0.930 . S
C3063 C3062 1.388 . S
C3063 C3064 1.390 . S
C3064 C3063 1.390 . S
C3064 C3065 1.394 . S
C3064 C3070 1.465 . S
C3065 C3060 1.399 . S
C3065 C3064 1.394 . S
C3065 C3066 1.516 . S
C3066 C3065 1.516 . S
C3066 C3067 1.522 . S
C3066 C3068 1.561 . S
C3066 C3069 1.526 . S
C3067 H3051 0.954 1_556 S
C3067 H3052 0.940 1_556 S
C3067 H3053 0.967 . S
C3067 C3066 1.522 . S
C3068 H3054 0.960 . S
C3068 H3055 0.961 . S
C3068 H3056 0.959 . S
C3068 C3066 1.561 . S
C3069 C3066 1.526 . S
C3069 C3070 1.396 . S
C3069 C3074 1.378 1_556 S
C3070 C3064 1.465 . S
C3070 C3069 1.396 . S
C3070 C3071 1.399 . S
C3071 H3057 0.929 . S
C3071 C3070 1.399 . S
C3071 C3072 1.385 . S
C3072 H3058 0.931 . S
C3072 C3071 1.385 . S
C3072 C3073 1.387 1_556 S
C3073 C3072 1.387 1_554 S
C3073 C3074 1.387 . S
C3074 H3059 0.942 . S
C3074 C3069 1.378 1_554 S
C3074 C3073 1.387 . S
H3075 C3087 0.930 . S
H3076 C3089 0.930 . S
H3077 C3090 0.930 . S
H3078 C3094 0.959 1_554 S
H3079 C3094 0.959 1_554 S
H3080 C3094 0.961 . S
H3081 C3095 0.960 . S
H3082 C3095 0.961 . S
H3083 C3095 0.959 . S
H3084 C3098 0.929 . S
H3085 C3099 0.931 . S
H3086 C3101 0.930 1_554 S
C3087 H3075 0.930 . S
C3087 C3088 1.399 . S
C3087 C3092 1.399 . S
C3088 C3087 1.399 . S
C3088 C3089 1.376 . S
C3089 H3076 0.930 . S
C3089 C3088 1.376 . S
C3089 C3090 1.388 . S
C3090 H3077 0.930 . S
C3090 C3089 1.388 . S
C3090 C3091 1.390 . S
C3091 C3090 1.390 . S
C3091 C3092 1.394 . S
C3091 C3097 1.465 . S
C3092 C3087 1.399 . S
C3092 C3091 1.394 . S
C3092 C3093 1.516 . S
C3093 C3092 1.516 . S
C3093 C3094 1.502 . S
C3093 C3095 1.561 . S
C3093 C3096 1.526 . S
C3094 H3078 0.959 1_556 S
C3094 H3079 0.959 1_556 S
C3094 H3080 0.961 . S
C3094 C3093 1.502 . S
C3095 H3081 0.960 . S
C3095 H3082 0.961 . S
C3095 H3083 0.959 . S
C3095 C3093 1.561 . S
C3096 C3093 1.526 . S
C3096 C3097 1.396 . S
C3096 C3101 1.390 . S
C3097 C3091 1.465 . S
C3097 C3096 1.396 . S
C3097 C3098 1.399 . S
C3098 H3084 0.929 . S
C3098 C3097 1.399 . S
C3098 C3099 1.385 . S
C3099 H3085 0.931 . S
C3099 C3098 1.385 . S
C3099 C3100 1.389 1_556 S
C3100 C3099 1.389 1_554 S
C3100 C3101 1.387 1_554 S
C3101 H3086 0.930 1_556 S
C3101 C3096 1.390 . S
C3101 C3100 1.387 1_556 S
H3102 C3114 0.930 . S
H3103 C3116 0.930 . S
H3104 C3117 0.930 . S
H3105 C3121 0.959 . S
H3106 C3121 0.959 . S
H3107 C3121 0.961 . S
H3108 C3122 0.960 . S
H3109 C3122 0.961 . S
H3110 C3122 0.959 . S
H3111 C3125 0.929 . S
H3112 C3126 0.931 . S
H3113 C3128 0.930 . S
C3114 H3102 0.930 . S
C3114 C3115 1.399 . S
C3114 C3119 1.399 . S
C3115 C3114 1.399 . S
C3115 C3116 1.376 . S
C3116 H3103 0.930 . S
C3116 C3115 1.376 . S
C3116 C3117 1.388 . S
C3117 H3104 0.930 . S
C3117 C3116 1.388 . S
C3117 C3118 1.390 . S
C3118 C3117 1.390 . S
C3118 C3119 1.394 . S
C3118 C3124 1.465 . S
C3119 C3114 1.399 . S
C3119 C3118 1.394 . S
C3119 C3120 1.516 . S
C3120 C3119 1.516 . S
C3120 C3121 1.502 . S
C3120 C3122 1.561 . S
C3120 C3123 1.526 . S
C3121 H3105 0.959 . S
C3121 H3106 0.959 . S
C3121 H3107 0.961 . S
C3121 C3120 1.502 . S
C3122 H3108 0.960 . S
C3122 H3109 0.961 . S
C3122 H3110 0.959 . S
C3122 C3120 1.561 . S
C3123 C3120 1.526 . S
C3123 C3124 1.396 . S
C3123 C3128 1.390 . S
C3124 C3118 1.465 . S
C3124 C3123 1.396 . S
C3124 C3125 1.399 . S
C3125 H3111 0.929 . S
C3125 C3124 1.399 . S
C3125 C3126 1.385 . S
C3126 H3112 0.931 . S
C3126 C3125 1.385 . S
C3126 C3127 1.389 . S
C3127 C3126 1.389 . S
C3127 C3128 1.387 . S
C3128 H3113 0.930 . S
C3128 C3123 1.390 . S
C3128 C3127 1.387 . S
H3129 C3141 0.930 . S
H3130 C3143 0.930 . S
H3131 C3144 0.930 . S
H3132 C3148 0.959 . S
H3133 C3148 0.959 . S
H3134 C3148 0.961 . S
H3135 C3149 0.960 . S
H3136 C3149 0.961 . S
H3137 C3149 0.959 . S
H3138 C3152 0.929 . S
H3139 C3153 0.931 . S
H3140 C3155 0.930 . S
C3141 H3129 0.930 . S
C3141 C3142 1.399 . S
C3141 C3146 1.399 . S
C3142 C3141 1.399 . S
C3142 C3143 1.376 . S
C3143 H3130 0.930 . S
C3143 C3142 1.376 . S
C3143 C3144 1.388 . S
C3144 H3131 0.930 . S
C3144 C3143 1.388 . S
C3144 C3145 1.390 . S
C3145 C3144 1.390 . S
C3145 C3146 1.394 . S
C3145 C3151 1.465 . S
C3146 C3141 1.399 . S
C3146 C3145 1.394 . S
C3146 C3147 1.516 . S
C3147 C3146 1.516 . S
C3147 C3148 1.502 . S
C3147 C3149 1.561 . S
C3147 C3150 1.526 . S
C3148 H3132 0.959 . S
C3148 H3133 0.959 . S
C3148 H3134 0.961 . S
C3148 C3147 1.502 . S
C3149 H3135 0.960 . S
C3149 H3136 0.961 . S
C3149 H3137 0.959 . S
C3149 C3147 1.561 . S
C3150 C3147 1.526 . S
C3150 C3151 1.396 . S
C3150 C3155 1.390 . S
C3151 C3145 1.465 . S
C3151 C3150 1.396 . S
C3151 C3152 1.399 . S
C3152 H3138 0.929 . S
C3152 C3151 1.399 . S
C3152 C3153 1.385 . S
C3153 H3139 0.931 . S
C3153 C3152 1.385 . S
C3153 C3154 1.389 . S
C3154 C3153 1.389 . S
C3154 C3155 1.387 . S
C3155 H3140 0.930 . S
C3155 C3150 1.390 . S
C3155 C3154 1.387 . S
H3156 C3168 0.930 . S
H3157 C3170 0.930 . S
H3158 C3171 0.930 . S
H3159 C3175 0.959 . S
H3160 C3175 0.959 . S
H3161 C3175 0.961 . S
H3162 C3176 0.960 . S
H3163 C3176 0.961 . S
H3164 C3176 0.959 . S
H3165 C3179 0.929 . S
H3166 C3180 0.931 . S
H3167 C3182 0.930 . S
C3168 H3156 0.930 . S
C3168 C3169 1.399 . S
C3168 C3173 1.399 . S
C3169 C3168 1.399 . S
C3169 C3170 1.376 . S
C3170 H3157 0.930 . S
C3170 C3169 1.376 . S
C3170 C3171 1.388 . S
C3171 H3158 0.930 . S
C3171 C3170 1.388 . S
C3171 C3172 1.390 . S
C3172 C3171 1.390 . S
C3172 C3173 1.394 . S
C3172 C3178 1.465 . S
C3173 C3168 1.399 . S
C3173 C3172 1.394 . S
C3173 C3174 1.516 . S
C3174 C3173 1.516 . S
C3174 C3175 1.502 . S
C3174 C3176 1.561 . S
C3174 C3177 1.526 . S
C3175 H3159 0.959 . S
C3175 H3160 0.959 . S
C3175 H3161 0.961 . S
C3175 C3174 1.502 . S
C3176 H3162 0.960 . S
C3176 H3163 0.961 . S
C3176 H3164 0.959 . S
C3176 C3174 1.561 . S
C3177 C3174 1.526 . S
C3177 C3178 1.396 . S
C3177 C3182 1.390 . S
C3178 C3172 1.465 . S
C3178 C3177 1.396 . S
C3178 C3179 1.399 . S
C3179 H3165 0.929 . S
C3179 C3178 1.399 . S
C3179 C3180 1.385 1_554 S
C3180 H3166 0.931 . S
C3180 C3179 1.385 1_556 S
C3180 C3181 1.389 . S
C3181 C3180 1.389 . S
C3181 C3182 1.387 1_556 S
C3182 H3167 0.930 . S
C3182 C3177 1.390 . S
C3182 C3181 1.387 1_554 S
H3183 C3195 0.930 . S
H3184 C3197 0.930 . S
H3185 C3198 0.930 . S
H3186 C3202 0.959 . S
H3187 C3202 0.959 . S
H3188 C3202 0.961 . S
H3189 C3203 0.960 . S
H3190 C3203 0.961 1_556 S
H3191 C3203 0.959 1_556 S
H3192 C3206 0.929 . S
H3193 C3207 0.931 . S
H3194 C3209 0.930 1_556 S
C3195 H3183 0.930 . S
C3195 C3196 1.399 . S
C3195 C3200 1.399 . S
C3196 C3195 1.399 . S
C3196 C3197 1.376 . S
C3197 H3184 0.930 . S
C3197 C3196 1.376 . S
C3197 C3198 1.388 . S
C3198 H3185 0.930 . S
C3198 C3197 1.388 . S
C3198 C3199 1.390 . S
C3199 C3198 1.390 . S
C3199 C3200 1.394 . S
C3199 C3205 1.465 . S
C3200 C3195 1.399 . S
C3200 C3199 1.394 . S
C3200 C3201 1.516 . S
C3201 C3200 1.516 . S
C3201 C3202 1.502 . S
C3201 C3203 1.561 . S
C3201 C3204 1.526 . S
C3202 H3186 0.959 . S
C3202 H3187 0.959 . S
C3202 H3188 0.961 . S
C3202 C3201 1.502 . S
C3203 H3189 0.960 . S
C3203 H3190 0.961 1_554 S
C3203 H3191 0.959 1_554 S
C3203 C3201 1.561 . S
C3204 C3201 1.526 . S
C3204 C3205 1.396 . S
C3204 C3209 1.390 . S
C3205 C3199 1.465 . S
C3205 C3204 1.396 . S
C3205 C3206 1.399 . S
C3206 H3192 0.929 . S
C3206 C3205 1.399 . S
C3206 C3207 1.385 . S
C3207 H3193 0.931 . S
C3207 C3206 1.385 . S
C3207 C3208 1.389 1_554 S
C3208 C3207 1.389 1_556 S
C3208 C3209 1.387 1_556 S
C3209 H3194 0.930 1_554 S
C3209 C3204 1.390 . S
C3209 C3208 1.387 1_554 S
H3210 C3222 0.930 . S
H3211 C3224 0.930 . S
H3212 C3225 0.930 . S
H3213 C3229 0.959 . S
H3214 C3229 0.959 . S
H3215 C3229 0.961 . S
H3216 C3230 0.960 . S
H3217 C3230 0.961 . S
H3218 C3230 0.959 . S
H3219 C3233 0.929 . S
H3220 C3234 0.931 . S
H3221 C3236 0.930 . S
C3222 H3210 0.930 . S
C3222 C3223 1.399 . S
C3222 C3227 1.399 . S
C3223 C3222 1.399 . S
C3223 C3224 1.376 . S
C3224 H3211 0.930 . S
C3224 C3223 1.376 . S
C3224 C3225 1.388 . S
C3225 H3212 0.930 . S
C3225 C3224 1.388 . S
C3225 C3226 1.390 . S
C3226 C3225 1.390 . S
C3226 C3227 1.394 . S
C3226 C3232 1.465 . S
C3227 C3222 1.399 . S
C3227 C3226 1.394 . S
C3227 C3228 1.516 . S
C3228 C3227 1.516 . S
C3228 C3229 1.502 . S
C3228 C3230 1.561 . S
C3228 C3231 1.526 . S
C3229 H3213 0.959 . S
C3229 H3214 0.959 . S
C3229 H3215 0.961 . S
C3229 C3228 1.502 . S
C3230 H3216 0.960 . S
C3230 H3217 0.961 . S
C3230 H3218 0.959 . S
C3230 C3228 1.561 . S
C3231 C3228 1.526 . S
C3231 C3232 1.396 . S
C3231 C3236 1.390 . S
C3232 C3226 1.465 . S
C3232 C3231 1.396 . S
C3232 C3233 1.399 . S
C3233 H3219 0.929 . S
C3233 C3232 1.399 . S
C3233 C3234 1.385 . S
C3234 H3220 0.931 . S
C3234 C3233 1.385 . S
C3234 C3235 1.389 . S
C3235 C3234 1.389 . S
C3235 C3236 1.387 . S
C3236 H3221 0.930 . S
C3236 C3231 1.390 . S
C3236 C3235 1.387 . S
H3237 C3249 0.930 . S
H3238 C3251 0.930 . S
H3239 C3252 0.930 . S
H3240 C3256 0.959 . S
H3241 C3256 0.959 . S
H3242 C3256 0.961 . S
H3243 C3257 0.960 . S
H3244 C3257 0.961 . S
H3245 C3257 0.959 . S
H3246 C3260 0.929 . S
H3247 C3261 0.931 . S
H3248 C3263 0.930 . S
C3249 H3237 0.930 . S
C3249 C3250 1.399 . S
C3249 C3254 1.399 . S
C3250 C3249 1.399 . S
C3250 C3251 1.376 . S
C3251 H3238 0.930 . S
C3251 C3250 1.376 . S
C3251 C3252 1.388 . S
C3252 H3239 0.930 . S
C3252 C3251 1.388 . S
C3252 C3253 1.390 . S
C3253 C3252 1.390 . S
C3253 C3254 1.394 . S
C3253 C3259 1.465 . S
C3254 C3249 1.399 . S
C3254 C3253 1.394 . S
C3254 C3255 1.516 . S
C3255 C3254 1.516 . S
C3255 C3256 1.502 . S
C3255 C3257 1.561 . S
C3255 C3258 1.526 . S
C3256 H3240 0.959 . S
C3256 H3241 0.959 . S
C3256 H3242 0.961 . S
C3256 C3255 1.502 . S
C3257 H3243 0.960 . S
C3257 H3244 0.961 . S
C3257 H3245 0.959 . S
C3257 C3255 1.561 . S
C3258 C3255 1.526 . S
C3258 C3259 1.396 . S
C3258 C3263 1.390 . S
C3259 C3253 1.465 . S
C3259 C3258 1.396 . S
C3259 C3260 1.399 . S
C3260 H3246 0.929 . S
C3260 C3259 1.399 . S
C3260 C3261 1.385 . S
C3261 H3247 0.931 . S
C3261 C3260 1.385 . S
C3261 C3262 1.389 . S
C3262 C3261 1.389 . S
C3262 C3263 1.387 . S
C3263 H3248 0.930 . S
C3263 C3258 1.390 . S
C3263 C3262 1.387 . S
C685 C540 1.686 . S
C697 C13 1.360 . S
C712 C517 1.443 . S
C724 C36 1.707 . S
C739 C582 1.539 . S
C751 C57 1.535 . S
C766 C561 1.549 . S
C778 C78 1.532 . S
C793 C99 1.577 . S
C805 C624 1.590 . S
C820 C120 1.631 . S
C832 C603 1.626 . S
C847 C141 1.619 . S
C859 C666 1.617 . S
C874 C645 1.607 . S
C886 C162 1.601 . S
C901 C372 1.692 . S
C913 C181 1.438 . S
C928 C349 1.309 . S
C940 C204 1.658 . S
C955 C414 1.568 . S
C967 C225 1.586 . S
C982 C393 1.551 . S
C994 C246 1.532 . S
C1009 C267 1.628 . S
C1021 C456 1.624 . S
C1036 C435 1.578 . S
C1048 C288 1.591 . S
C1063 C309 1.569 . S
C1075 C498 1.579 . S
C1090 C477 1.571 . S
C1102 C330 1.581 . S
C1117 C18 1.642 . S
C1129 C436 1.473 1_565 S
C1144 C289 1.520 . S
C1156 C37 1.471 . S
C1171 C646 1.493 . S
C1183 C58 1.544 . S
C1198 C79 1.397 1_545 S
C1210 C163 1.530 1_565 S
C1225 C100 1.424 1_565 S
C1237 C354 1.633 . S
C1252 C121 1.483 . S
C1264 C205 1.506 . S
C1279 C142 1.492 . S
C1291 C562 1.544 . S
C1306 C604 1.408 . S
C1318 C186 1.634 . S
C1333 C478 1.493 . S
C1345 C226 1.505 . S
C1360 C331 1.474 . S
C1372 C247 1.484 . S
C1387 C522 1.645 . S
C1399 C268 1.477 . S
C1414 C310 1.526 . S
C1426 C394 1.473 . S
C1441 C625 1.504 . S
C1453 C373 1.526 . S
C1468 C415 1.535 1_545 S
C1480 C499 1.403 1_565 S
C1495 C541 1.570 . S
C1507 C457 1.438 . S
C1522 C583 1.397 . S
C1534 C667 1.534 . S
C1549 C17 1.277 1_565 S
C1561 C412 1.271 . S
C1576 C34 1.230 . S
C1588 C391 1.281 . S
C1603 C55 1.217 . S
C1615 C370 1.151 . S
C1630 C76 1.196 . S
C1642 C353 1.199 . S
C1657 C97 1.117 . S
C1669 C496 1.149 . S
C1684 C118 1.259 . S
C1696 C475 1.226 . S
C1711 C139 1.259 . S
C1723 C454 1.222 . S
C1738 C160 1.234 . S
C1750 C433 1.203 . S
C1765 C185 1.159 . S
C1777 C580 1.149 . S
C1792 C202 1.212 . S
C1804 C559 1.159 . S
C1819 C223 1.228 . S
C1831 C538 1.277 . S
C1846 C244 1.197 . S
C1858 C521 1.200 . S
C1873 C664 1.236 . S
C1885 C265 1.210 . S
C1900 C643 1.264 . S
C1912 C286 1.234 . S
C1927 C622 1.265 . S
C1939 C307 1.242 . S
C1954 C601 1.113 . S
C1966 C328 1.138 . S
C1981 C56 1.635 . S
C1993 C16 1.443 . S
C2008 C77 1.682 . S
C2020 C35 1.649 . S
C2035 C140 1.567 . S
C2047 C98 1.548 . S
C2062 C119 1.588 . S
C2074 C161 1.604 . S
C2089 C224 1.577 . S
C2101 C184 1.545 . S
C2116 C203 1.621 . S
C2128 C245 1.655 . S
C2143 C308 1.560 . S
C2155 C266 1.583 . S
C2170 C287 1.608 . S
C2182 C329 1.625 . S
C2197 C352 1.524 . S
C2209 C392 1.600 . S
C2224 C371 1.628 . S
C2236 C413 1.671 . S
C2251 C476 1.545 . S
C2263 C434 1.534 . S
C2278 C455 1.625 . S
C2290 C497 1.632 . S
C2305 C520 1.438 . S
C2317 C560 1.635 . S
C2332 C581 1.683 . S
C2344 C539 1.657 . S
C2359 C602 1.564 . S
C2371 C644 1.539 . S
C2386 C623 1.600 . S
C2398 C665 1.573 . S
C2413 C15 1.108 1_565 S
C2425 C165 1.158 . S
C2440 C648 1.256 . S
C2452 C38 1.216 . S
C2467 C59 1.283 . S
C2479 C291 1.328 . S
C2494 C80 1.243 . S
C2506 C438 1.302 . S
C2521 C81 1.215 . S
C2533 C101 1.227 . S
C2548 C122 1.221 . S
C2560 C564 1.225 . S
C2575 C207 1.266 . S
C2587 C143 1.312 . S
C2602 C350 1.272 . S
C2614 C164 1.316 . S
C2629 C183 1.129 . S
C2641 C333 1.197 . S
C2656 C480 1.225 . S
C2668 C206 1.274 . S
C2683 C227 1.278 . S
C2695 C123 1.331 . S
C2710 C606 1.273 . S
C2722 C248 1.283 . S
C2737 C269 1.271 . S
C2749 C249 1.238 . S
C2764 C290 1.206 . S
C2776 C396 1.242 . S
C2791 C311 1.330 . S
C2803 C39 1.287 . S
C2818 C518 1.263 . S
C2830 C332 1.321 . S
C2845 C351 1.161 1_565 S
C2857 C501 1.138 . S
C2872 C374 1.262 . S
C2884 C312 1.216 . S
C2899 C395 1.285 . S
C2911 C627 1.327 . S
C2926 C416 1.237 . S
C2938 C102 1.287 . S
C2953 C437 1.265 . S
C2965 C417 1.248 . S
C2980 C228 1.211 . S
C2992 C458 1.249 . S
C3007 C543 1.331 . S
C3019 C479 1.286 . S
C3034 C500 1.308 . S
C3046 C14 1.355 . S
C3061 C669 1.146 . S
C3073 C519 1.099 . S
C3088 C144 1.236 . S
C3100 C542 1.268 . S
C3115 C459 1.272 . S
C3127 C563 1.328 . S
C3142 C584 1.284 . S
C3154 C270 1.245 . S
C3169 C585 1.275 . S
C3181 C605 1.227 . S
C3196 C60 1.268 . S
C3208 C626 1.249 . S
C3223 C375 1.327 . S
C3235 C647 1.298 . S
C3250 C668 1.360 . S
C3262 C182 1.273 . S
