# Generated by pormake.
# Topology wmi, (6)-cn, num edge types: 1
# Building blocks:
#     Node 0, Type 0, BuildingBlock: CUKXOW_clean_sbu_0, # of connection points: 6
#     Node 1, Type 0, BuildingBlock: CUKXOW_clean_sbu_0, # of connection points: 6
#     Node 2, Type 0, BuildingBlock: CUKXOW_clean_sbu_0, # of connection points: 6
#     Node 3, Type 0, BuildingBlock: CUKXOW_clean_sbu_0, # of connection points: 6
#     Node 4, Type 0, BuildingBlock: CUKXOW_clean_sbu_0, # of connection points: 6
#     Node 5, Type 0, BuildingBlock: CUKXOW_clean_sbu_0, # of connection points: 6
#     Node 6, Type 0, BuildingBlock: CUKXOW_clean_sbu_0, # of connection points: 6
#     Node 7, Type 0, BuildingBlock: CUKXOW_clean_sbu_0, # of connection points: 6
#     Node 8, Type 0, BuildingBlock: CUKXOW_clean_sbu_0, # of connection points: 6
#     Node 9, Type 0, BuildingBlock: CUKXOW_clean_sbu_0, # of connection points: 6
#     Node 10, Type 0, BuildingBlock: CUKXOW_clean_sbu_0, # of connection points: 6
#     Node 11, Type 0, BuildingBlock: CUKXOW_clean_sbu_0, # of connection points: 6
#     Node 12, Type 0, BuildingBlock: CUKXOW_clean_sbu_0, # of connection points: 6
#     Node 13, Type 0, BuildingBlock: CUKXOW_clean_sbu_0, # of connection points: 6
#     Node 14, Type 0, BuildingBlock: CUKXOW_clean_sbu_0, # of connection points: 6
#     Node 15, Type 0, BuildingBlock: CUKXOW_clean_sbu_0, # of connection points: 6
#     Node 16, Type 0, BuildingBlock: CUKXOW_clean_sbu_0, # of connection points: 6
#     Node 17, Type 0, BuildingBlock: CUKXOW_clean_sbu_0, # of connection points: 6
#     Edge 18, Type (0, 0), BuildingBlock: CIFDUS_clean_linker_0, # of connection points: 2
#     Edge 19, Type (0, 0), BuildingBlock: CIFDUS_clean_linker_0, # of connection points: 2
#     Edge 20, Type (0, 0), BuildingBlock: CIFDUS_clean_linker_0, # of connection points: 2
#     Edge 21, Type (0, 0), BuildingBlock: CIFDUS_clean_linker_0, # of connection points: 2
#     Edge 22, Type (0, 0), BuildingBlock: CIFDUS_clean_linker_0, # of connection points: 2
#     Edge 23, Type (0, 0), BuildingBlock: CIFDUS_clean_linker_0, # of connection points: 2
#     Edge 24, Type (0, 0), BuildingBlock: CIFDUS_clean_linker_0, # of connection points: 2
#     Edge 25, Type (0, 0), BuildingBlock: CIFDUS_clean_linker_0, # of connection points: 2
#     Edge 26, Type (0, 0), BuildingBlock: CIFDUS_clean_linker_0, # of connection points: 2
#     Edge 27, Type (0, 0), BuildingBlock: CIFDUS_clean_linker_0, # of connection points: 2
#     Edge 28, Type (0, 0), BuildingBlock: CIFDUS_clean_linker_0, # of connection points: 2
#     Edge 29, Type (0, 0), BuildingBlock: CIFDUS_clean_linker_0, # of connection points: 2
#     Edge 30, Type (0, 0), BuildingBlock: CIFDUS_clean_linker_0, # of connection points: 2
#     Edge 31, Type (0, 0), BuildingBlock: CIFDUS_clean_linker_0, # of connection points: 2
#     Edge 32, Type (0, 0), BuildingBlock: CIFDUS_clean_linker_0, # of connection points: 2
#     Edge 33, Type (0, 0), BuildingBlock: CIFDUS_clean_linker_0, # of connection points: 2
#     Edge 34, Type (0, 0), BuildingBlock: CIFDUS_clean_linker_0, # of connection points: 2
#     Edge 35, Type (0, 0), BuildingBlock: CIFDUS_clean_linker_0, # of connection points: 2
#     Edge 36, Type (0, 0), BuildingBlock: CIFDUS_clean_linker_0, # of connection points: 2
#     Edge 37, Type (0, 0), BuildingBlock: CIFDUS_clean_linker_0, # of connection points: 2
#     Edge 38, Type (0, 0), BuildingBlock: CIFDUS_clean_linker_0, # of connection points: 2
#     Edge 39, Type (0, 0), BuildingBlock: CIFDUS_clean_linker_0, # of connection points: 2
#     Edge 40, Type (0, 0), BuildingBlock: CIFDUS_clean_linker_0, # of connection points: 2
#     Edge 41, Type (0, 0), BuildingBlock: CIFDUS_clean_linker_0, # of connection points: 2
#     Edge 42, Type (0, 0), BuildingBlock: CIFDUS_clean_linker_0, # of connection points: 2
#     Edge 43, Type (0, 0), BuildingBlock: CIFDUS_clean_linker_0, # of connection points: 2
#     Edge 44, Type (0, 0), BuildingBlock: CIFDUS_clean_linker_0, # of connection points: 2
#     Edge 45, Type (0, 0), BuildingBlock: CIFDUS_clean_linker_0, # of connection points: 2
#     Edge 46, Type (0, 0), BuildingBlock: CIFDUS_clean_linker_0, # of connection points: 2
#     Edge 47, Type (0, 0), BuildingBlock: CIFDUS_clean_linker_0, # of connection points: 2
#     Edge 48, Type (0, 0), BuildingBlock: CIFDUS_clean_linker_0, # of connection points: 2
#     Edge 49, Type (0, 0), BuildingBlock: CIFDUS_clean_linker_0, # of connection points: 2
#     Edge 50, Type (0, 0), BuildingBlock: CIFDUS_clean_linker_0, # of connection points: 2
#     Edge 51, Type (0, 0), BuildingBlock: CIFDUS_clean_linker_0, # of connection points: 2
#     Edge 52, Type (0, 0), BuildingBlock: CIFDUS_clean_linker_0, # of connection points: 2
#     Edge 53, Type (0, 0), BuildingBlock: CIFDUS_clean_linker_0, # of connection points: 2
#     Edge 54, Type (0, 0), BuildingBlock: CIFDUS_clean_linker_0, # of connection points: 2
#     Edge 55, Type (0, 0), BuildingBlock: CIFDUS_clean_linker_0, # of connection points: 2
#     Edge 56, Type (0, 0), BuildingBlock: CIFDUS_clean_linker_0, # of connection points: 2
#     Edge 57, Type (0, 0), BuildingBlock: CIFDUS_clean_linker_0, # of connection points: 2
#     Edge 58, Type (0, 0), BuildingBlock: CIFDUS_clean_linker_0, # of connection points: 2
#     Edge 59, Type (0, 0), BuildingBlock: CIFDUS_clean_linker_0, # of connection points: 2
#     Edge 60, Type (0, 0), BuildingBlock: CIFDUS_clean_linker_0, # of connection points: 2
#     Edge 61, Type (0, 0), BuildingBlock: CIFDUS_clean_linker_0, # of connection points: 2
#     Edge 62, Type (0, 0), BuildingBlock: CIFDUS_clean_linker_0, # of connection points: 2
#     Edge 63, Type (0, 0), BuildingBlock: CIFDUS_clean_linker_0, # of connection points: 2
#     Edge 64, Type (0, 0), BuildingBlock: CIFDUS_clean_linker_0, # of connection points: 2
#     Edge 65, Type (0, 0), BuildingBlock: CIFDUS_clean_linker_0, # of connection points: 2
#     Edge 66, Type (0, 0), BuildingBlock: CIFDUS_clean_linker_0, # of connection points: 2
#     Edge 67, Type (0, 0), BuildingBlock: CIFDUS_clean_linker_0, # of connection points: 2
#     Edge 68, Type (0, 0), BuildingBlock: CIFDUS_clean_linker_0, # of connection points: 2
#     Edge 69, Type (0, 0), BuildingBlock: CIFDUS_clean_linker_0, # of connection points: 2
#     Edge 70, Type (0, 0), BuildingBlock: CIFDUS_clean_linker_0, # of connection points: 2
#     Edge 71, Type (0, 0), BuildingBlock: CIFDUS_clean_linker_0, # of connection points: 2
# Relax obj value: 0.053
# Max RMSD: 0.153
# Mean RMSD: 0.153
data_MOF--net-wmi--node1-CUKXOW_clean_sbu_0--edge1-CIFDUS_clean_linker_0
_symmetry_space_group_name_H-M    P1
_symmetry_Int_Tables_number       1
_symmetry_cell_setting            triclinic
loop_
_symmetry_equiv_pos_as_xyz
'x, y, z'
_cell_length_a     28.119791
_cell_length_b     28.116372
_cell_length_c     74.347481
_cell_angle_alpha  89.916476
_cell_angle_beta   89.760627
_cell_angle_gamma 119.90896
loop_
_atom_site_label
_atom_site_type_symbol
_atom_site_fract_x
_atom_site_fract_y
_atom_site_fract_z
_atom_type_partial_charge
Tb0 Tb 0.51469 0.09162 0.09727 0.0
C1 C 0.4959 0.03098 0.13488 0.0
Tb2 Tb 0.53747 0.99665 0.09994 0.0
O3 O 0.43968 0.04056 0.08144 0.0
O4 O 0.4681 1.006 0.10009 0.0
O5 O 0.50442 0.076 0.12624 0.0
C6 C 0.53929 0.90334 0.10318 0.0
O7 O 0.50464 0.99324 0.12714 0.0
C8 C 0.62532 0.09429 0.0964 0.0
C9 C 0.54074 0.04823 0.06213 0.0
O10 O 0.57284 0.94915 0.11107 0.0
O11 O 0.50447 0.90984 0.09358 0.0
O12 O 0.62093 0.04912 0.09044 0.0
O13 O 0.58282 0.08328 0.10544 0.0
O14 O 0.52717 1.00195 0.07094 0.0
O15 O 0.54703 0.09273 0.07048 0.0
C16 C 0.51098 0.18389 0.10144 0.0
O17 O 0.47253 0.13506 0.10584 0.0
O18 O 0.55193 0.1811 0.09439 0.0
C19 C 0.43294 0.99491 0.08814 0.0
Tb20 Tb 1.00608 0.46912 0.10103 0.0
C21 C 0.08302 0.51999 0.13435 0.0
Tb22 Tb 0.1011 0.58944 0.0991 0.0
O23 O 0.06549 0.44002 0.10496 0.0
O24 O 0.08686 0.5119 0.091 0.0
O25 O 0.03204 0.48562 0.12908 0.0
C26 C 0.19343 0.684 0.09348 0.0
O27 O 0.11899 0.56081 0.12406 0.0
C28 C 1.00783 0.57462 0.11306 0.0
C29 C 0.03674 0.53157 0.06336 0.0
O30 O 0.18992 0.64085 0.10117 0.0
O31 O 0.14476 0.67384 0.0888 0.0
O32 O 0.05601 0.61461 0.11723 0.0
O33 O 1.01411 0.54823 0.10054 0.0
O34 O 0.08121 0.57345 0.07055 0.0
O35 O 0.99999 0.48867 0.07292 0.0
C36 C 0.90526 0.38129 0.10281 0.0
O37 O 0.94477 0.38645 0.0923 0.0
O38 O 0.92288 0.4254 0.11246 0.0
C39 C 0.10545 0.48303 0.09719 0.0
Tb40 Tb 0.63734 0.58819 0.1039 0.0
C41 C 0.59584 0.60532 0.14191 0.0
Tb42 Tb 0.51256 0.56091 0.109 0.0
O43 O 0.66122 0.66736 0.09102 0.0
O44 O 0.59317 0.62994 0.10805 0.0
O45 O 0.62979 0.59301 0.13315 0.0
C46 C 0.41512 0.55487 0.11261 0.0
O47 O 0.55067 0.60088 0.13444 0.0
C48 C 0.52419 0.4725 0.10894 0.0
C49 C 0.56151 0.56418 0.07 0.0
O50 O 0.43829 0.53935 0.12455 0.0
O51 O 0.44784 0.57565 0.09879 0.0
O52 O 0.47736 0.47029 0.11072 0.0
O53 O 0.55893 0.52223 0.10814 0.0
O54 O 0.52486 0.56983 0.07985 0.0
O55 O 0.60452 0.56286 0.07689 0.0
C56 C 0.72559 0.57566 0.10508 0.0
O57 O 0.72438 0.61923 0.11026 0.0
O58 O 0.67764 0.54007 0.09912 0.0
C59 C 0.61829 0.66886 0.09707 0.0
Tb60 Tb 0.08184 0.48498 0.92148 0.0
C61 C 1.0088 0.45376 0.88693 0.0
Tb62 Tb 0.98658 0.50852 0.92079 0.0
O63 O 0.0239 0.39535 0.92105 0.0
O64 O 1.00119 0.44859 0.93201 0.0
O65 O 0.05766 0.46777 0.89357 0.0
C66 C 0.89272 0.51048 0.9225 0.0
O67 O 0.97237 0.46224 0.8957 0.0
C68 C 0.08343 0.59533 0.91495 0.0
C69 C 0.05152 0.52575 0.95635 0.0
O70 O 0.90277 0.48099 0.91136 0.0
O71 O 0.93515 0.53826 0.93252 0.0
O72 O 0.04067 0.5973 0.92026 0.0
O73 O 0.0683 0.54679 0.91032 0.0
O74 O 1.00169 0.50537 0.94939 0.0
O75 O 0.09332 0.53078 0.94648 0.0
C76 C 0.17934 0.49067 0.91896 0.0
O77 O 0.14857 0.47582 0.9333 0.0
O78 O 0.15553 0.50261 0.90634 0.0
C79 C 0.98323 0.3998 0.92746 0.0
Tb80 Tb 0.57779 0.60707 0.9272 0.0
C81 C 0.58463 0.55664 0.88895 0.0
Tb82 Tb 0.55165 0.48636 0.92459 0.0
O83 O 0.65911 0.63378 0.93881 0.0
O84 O 0.62044 0.5654 0.92195 0.0
O85 O 0.58012 0.59559 0.8978 0.0
C86 C 0.54844 0.38995 0.92694 0.0
O87 O 0.57744 0.51117 0.89692 0.0
C88 C 0.46902 0.50413 0.92043 0.0
C89 C 0.56775 0.54386 0.96291 0.0
O90 O 0.51171 0.40041 0.93341 0.0
O91 O 0.58675 0.43365 0.91914 0.0
O92 O 0.47172 0.46418 0.91266 0.0
O93 O 0.50917 0.52818 0.93075 0.0
O94 O 0.57036 0.50529 0.95326 0.0
O95 O 0.56406 0.58498 0.95552 0.0
C96 C 0.55956 0.69147 0.92479 0.0
O97 O 0.60666 0.6943 0.92212 0.0
O98 O 0.52317 0.64146 0.92893 0.0
C99 C 0.66083 0.59172 0.93209 0.0
Tb100 Tb 0.45384 0.9802 0.92168 0.0
C101 C 0.49306 0.04848 0.88481 0.0
Tb102 Tb 0.57327 0.06547 0.91693 0.0
O103 O 0.43868 0.03509 0.93866 0.0
O104 O 0.49919 0.06649 0.91882 0.0
O105 O 0.45529 1.00314 0.89315 0.0
C106 C 0.67887 0.14564 0.9174 0.0
O107 O 0.54103 0.08236 0.89247 0.0
C108 C 0.54653 0.96464 0.90751 0.0
C109 C 0.52832 1.01094 0.95547 0.0
O110 O 0.66022 0.09677 0.91107 0.0
O111 O 0.63784 0.14989 0.92356 0.0
O112 O 0.58197 1.00874 0.89918 0.0
O113 O 0.52851 0.97861 0.92084 0.0
O114 O 0.56654 0.05395 0.94635 0.0
O115 O 0.48402 0.97133 0.94759 0.0
C116 C 0.35644 0.88785 0.91977 0.0
O117 O 0.36589 0.93316 0.92742 0.0
O118 O 0.40202 0.89447 0.91301 0.0
C119 C 0.47944 0.07941 0.93187 0.0
Tb120 Tb 0.16223 0.40632 0.4295 0.0
C121 C 0.136 0.33371 0.46401 0.0
Tb122 Tb 0.19113 0.31371 0.42917 0.0
O123 O 0.07379 0.34784 0.43239 0.0
O124 O 0.12596 0.32443 0.4205 0.0
O125 O 0.14685 0.3824 0.45768 0.0
C126 C 0.1983 0.2224 0.42921 0.0
O127 O 0.14634 0.29936 0.45471 0.0
C128 C 0.27482 0.41346 0.43138 0.0
C129 C 0.20138 0.37659 0.39325 0.0
O130 O 0.21782 0.26003 0.44152 0.0
O131 O 0.17467 0.23604 0.41694 0.0
O132 O 0.27729 0.37257 0.42443 0.0
O133 O 0.22829 0.39618 0.43852 0.0
O134 O 0.19169 0.32939 0.4005 0.0
O135 O 0.19935 0.41549 0.40278 0.0
C136 C 0.1648 0.50264 0.42825 0.0
O137 O 0.13299 0.45955 0.41884 0.0
O138 O 0.1954 0.49158 0.43849 0.0
C139 C 0.07787 0.30668 0.42633 0.0
Tb140 Tb 0.65993 0.77953 0.43633 0.0
C141 C 0.7235 0.81723 0.47249 0.0
Tb142 Tb 0.74446 0.90065 0.44139 0.0
O143 O 0.72449 0.75711 0.43916 0.0
O144 O 0.74221 0.83282 0.42873 0.0
O145 O 0.6748 0.78521 0.46517 0.0
C146 C 0.82083 1.00627 0.43907 0.0
O147 O 0.76154 0.86276 0.46441 0.0
C148 C 0.6445 0.86892 0.45367 0.0
C149 C 0.69109 0.85819 0.40286 0.0
O150 O 0.83038 0.96656 0.44281 0.0
O151 O 0.7687 0.98637 0.43671 0.0
O152 O 0.68931 0.90605 0.46111 0.0
O153 O 0.65771 0.85308 0.43971 0.0
O154 O 0.73239 0.89734 0.41215 0.0
O155 O 0.65472 0.81036 0.41002 0.0
C156 C 0.56693 0.68497 0.43227 0.0
O157 O 0.61172 0.70046 0.42305 0.0
O158 O 0.57469 0.72252 0.44393 0.0
C159 C 0.76318 0.80474 0.4336 0.0
Tb160 Tb 0.28987 0.90274 0.43521 0.0
C161 C 0.24385 0.93039 0.46916 0.0
Tb162 Tb 0.17253 0.88173 0.43417 0.0
O163 O 0.32704 0.99193 0.43749 0.0
O164 O 0.25047 0.94487 0.42564 0.0
O165 O 0.27527 0.91031 0.46363 0.0
C166 C 0.07228 0.86779 0.43946 0.0
O167 O 0.20433 0.92843 0.45896 0.0
C168 C 0.18401 0.79477 0.43599 0.0
C169 C 0.22711 0.8805 0.39731 0.0
O170 O 0.09413 0.844 0.44836 0.0
O171 O 0.10744 0.90073 0.42754 0.0
O172 O 0.14524 0.7968 0.42735 0.0
O173 O 0.21266 0.83946 0.44414 0.0
O174 O 0.18686 0.88511 0.40514 0.0
O175 O 0.26903 0.88314 0.40656 0.0
C176 C 0.37344 0.88287 0.43624 0.0
O177 O 0.32565 0.85055 0.42939 0.0
O178 O 0.3746 0.92686 0.44206 0.0
C179 C 0.28358 0.99185 0.43156 0.0
Tb180 Tb 0.75811 0.83382 0.26048 0.0
C181 C 0.68905 0.8106 0.22531 0.0
Tb182 Tb 0.66428 0.86173 0.26012 0.0
O183 O 0.69973 0.74519 0.25692 0.0
O184 O 0.67507 0.79647 0.2684 0.0
O185 O 0.73661 0.81992 0.23211 0.0
C186 C 0.57212 0.86704 0.25959 0.0
O187 O 0.65436 0.82148 0.23413 0.0
C188 C 0.76314 0.9463 0.26072 0.0
C189 C 0.72149 0.86673 0.29664 0.0
O190 O 0.61169 0.8897 0.24786 0.0
O191 O 0.58429 0.84126 0.27154 0.0
O192 O 0.72007 0.94646 0.26681 0.0
O193 O 0.74903 0.90188 0.25251 0.0
O194 O 0.67523 0.85724 0.28882 0.0
O195 O 0.76229 0.86644 0.2876 0.0
C196 C 0.85497 0.83683 0.26192 0.0
O197 O 0.81148 0.80481 0.27132 0.0
O198 O 0.84408 0.86771 0.25168 0.0
C199 C 0.65779 0.74888 0.26245 0.0
Tb200 Tb 0.25194 0.95685 0.25262 0.0
C201 C 0.28962 0.91474 0.21919 0.0
Tb202 Tb 0.23293 0.83918 0.25375 0.0
O203 O 0.34122 0.99448 0.25068 0.0
O204 O 0.29365 0.91763 0.26257 0.0
O205 O 0.27604 0.95116 0.22503 0.0
C206 C 0.23105 0.74291 0.25262 0.0
O207 O 0.27893 0.87007 0.22852 0.0
C208 C 0.14421 0.84831 0.2514 0.0
C209 C 0.2197 0.88933 0.28962 0.0
O210 O 0.26298 0.78428 0.26271 0.0
O211 O 0.20076 0.75611 0.24309 0.0
O212 O 0.14585 0.80806 0.2593 0.0
O213 O 0.18993 0.87879 0.24389 0.0
O214 O 0.23262 0.85392 0.28247 0.0
O215 O 0.21681 0.92749 0.27975 0.0
C216 C 0.23767 0.04393 0.25188 0.0
O217 O 0.26046 0.03154 0.26482 0.0
O218 O 0.22268 1.00724 0.23935 0.0
C219 C 0.34115 0.95131 0.257 0.0
Tb220 Tb 0.13002 0.32626 0.25092 0.0
C221 C 0.17377 0.39534 0.21521 0.0
Tb222 Tb 0.25014 0.4172 0.24806 0.0
O223 O 0.09844 0.38256 0.24682 0.0
O224 O 0.17608 0.41048 0.25787 0.0
O225 O 0.14208 0.34562 0.22216 0.0
C226 C 0.35506 0.49401 0.25215 0.0
O227 O 0.21711 0.43376 0.22389 0.0
C228 C 0.22545 0.31803 0.23697 0.0
C229 C 0.19995 0.36278 0.28629 0.0
O230 O 0.31626 0.5034 0.247 0.0
O231 O 0.33451 0.44201 0.25504 0.0
O232 O 0.26217 0.36299 0.22935 0.0
O233 O 0.20672 0.33089 0.25019 0.0
O234 O 0.23968 0.40555 0.27744 0.0
O235 O 0.15494 0.32434 0.27836 0.0
C236 C 0.04465 0.22492 0.25062 0.0
O237 O 0.0504 0.26367 0.26154 0.0
O238 O 0.08648 0.24361 0.23976 0.0
C239 C 0.14395 0.42562 0.25171 0.0
Tb240 Tb 0.81474 0.73145 0.76671 0.0
C241 C 0.78583 0.67203 0.80398 0.0
Tb242 Tb 0.84705 0.64302 0.77327 0.0
O243 O 0.72704 0.66988 0.77025 0.0
O244 O 0.78323 0.64822 0.76064 0.0
O245 O 0.79792 0.71811 0.79536 0.0
C246 C 0.8597 0.55632 0.77948 0.0
O247 O 0.79714 0.63482 0.79725 0.0
C248 C 0.92795 0.74471 0.77221 0.0
C249 C 0.85501 0.68731 0.73386 0.0
O250 O 0.88471 0.60264 0.78802 0.0
O251 O 0.82663 0.55849 0.76781 0.0
O252 O 0.93246 0.7029 0.76738 0.0
O253 O 0.88098 0.7281 0.77888 0.0
O254 O 0.84844 0.64542 0.74399 0.0
O255 O 0.85089 0.72913 0.74055 0.0
C256 C 0.81763 0.82698 0.76169 0.0
O257 O 0.7838 0.78099 0.75394 0.0
O258 O 0.84995 0.81915 0.77213 0.0
C259 C 0.73455 0.62943 0.76566 0.0
Tb260 Tb 0.30871 0.11173 0.76684 0.0
C261 C 0.36624 0.14006 0.80451 0.0
Tb262 Tb 0.40449 0.22711 0.77259 0.0
O263 O 0.3586 0.07349 0.77288 0.0
O264 O 0.39393 0.1527 0.76235 0.0
O265 O 0.31952 0.10833 0.7959 0.0
C266 C 0.49232 0.32356 0.78034 0.0
O267 O 0.40585 0.18653 0.79748 0.0
C268 C 0.30903 0.22048 0.76746 0.0
C269 C 0.36978 0.18903 0.73302 0.0
O270 O 0.44477 0.30308 0.78816 0.0
O271 O 0.49074 0.28902 0.76845 0.0
O272 O 0.35572 0.26155 0.76264 0.0
O273 O 0.31711 0.1868 0.77636 0.0
O274 O 0.41111 0.22161 0.74367 0.0
O275 O 0.32276 0.14805 0.73954 0.0
C276 C 0.21019 0.02402 0.76092 0.0
O277 O 0.25587 0.03398 0.75331 0.0
O278 O 0.21981 0.06397 0.77176 0.0
C279 C 0.40434 0.11765 0.76884 0.0
Tb280 Tb 0.93292 0.22445 0.76788 0.0
C281 C 0.8889 0.25055 0.80329 0.0
Tb282 Tb 0.81276 0.19921 0.7689 0.0
O283 O 0.96362 0.31287 0.77204 0.0
O284 O 0.8888 0.26235 0.75957 0.0
O285 O 0.92703 0.24138 0.79614 0.0
C286 C 0.71757 0.19778 0.77139 0.0
O287 O 0.84303 0.2395 0.79482 0.0
C288 C 0.82695 0.11411 0.76931 0.0
C289 C 0.86378 0.19802 0.73137 0.0
O290 O 0.72852 0.16278 0.77899 0.0
O291 O 0.76027 0.23364 0.76248 0.0
O292 O 0.78468 0.11381 0.76228 0.0
O293 O 0.8565 0.15937 0.77706 0.0
O294 O 0.8252 0.20314 0.74006 0.0
O295 O 0.90603 0.19871 0.73981 0.0
C296 C 1.01907 0.20829 0.76785 0.0
O297 O 1.01718 0.24826 0.75966 0.0
O298 O 0.97262 0.1778 0.77594 0.0
C299 C 0.91897 0.30963 0.76566 0.0
Tb300 Tb 0.42525 0.15284 0.59273 0.0
C301 C 0.36639 0.1292 0.55427 0.0
Tb302 Tb 0.33247 0.18324 0.58569 0.0
O303 O 0.36721 0.07795 0.60756 0.0
O304 O 0.34009 0.11278 0.58848 0.0
O305 O 0.41087 0.13862 0.56357 0.0
C306 C 0.23808 0.18333 0.58606 0.0
O307 O 0.32829 0.1396 0.56087 0.0
C308 C 0.43222 0.27072 0.58303 0.0
C309 C 0.37428 0.18178 0.62541 0.0
O310 O 0.26364 0.18207 0.57159 0.0
O311 O 0.26525 0.18381 0.60016 0.0
O312 O 0.3872 0.27205 0.58079 0.0
O313 O 0.41804 0.22153 0.58606 0.0
O314 O 0.33336 0.17497 0.61485 0.0
O315 O 0.41962 0.18358 0.61918 0.0
C316 C 0.51891 0.15054 0.59221 0.0
O317 O 0.47015 0.10834 0.59052 0.0
O318 O 0.5151 0.19437 0.59437 0.0
C319 C 0.32422 0.0765 0.60045 0.0
Tb320 Tb 0.93221 0.29118 0.59207 0.0
C321 C 0.95007 0.25497 0.55296 0.0
Tb322 Tb 0.90273 0.16843 0.58481 0.0
O323 O 1.00635 0.30544 0.6069 0.0
O324 O 0.97246 0.2468 0.58684 0.0
O325 O 0.94 0.28913 0.56259 0.0
C326 C 0.90645 0.07597 0.58447 0.0
O327 O 0.94311 0.2078 0.55957 0.0
C328 C 0.81467 0.17965 0.58317 0.0
C329 C 0.9001 0.21009 0.62448 0.0
O330 O 0.89942 0.09912 0.57035 0.0
O331 O 0.91218 0.10528 0.5986 0.0
O332 O 0.81364 0.13342 0.58084 0.0
O333 O 0.86379 0.21506 0.58581 0.0
O334 O 0.90825 0.17626 0.61413 0.0
O335 O 0.89906 0.2538 0.61813 0.0
C336 C 0.93623 0.38795 0.59183 0.0
O337 O 0.97601 0.37956 0.58721 0.0
O338 O 0.89415 0.34181 0.59684 0.0
C339 C 1.00838 0.26552 0.59874 0.0
Tb340 Tb 0.79459 0.66172 0.59285 0.0
C341 C 0.83917 0.71959 0.5539 0.0
Tb342 Tb 0.91951 0.75524 0.58761 0.0
O343 O 0.77826 0.72229 0.60624 0.0
O344 O 0.8405 0.7458 0.58716 0.0
O345 O 0.79856 0.67983 0.56368 0.0
C346 C 1.01208 0.8512 0.58753 0.0
O347 O 0.88873 0.75384 0.56055 0.0
C348 C 0.90797 0.65584 0.5887 0.0
C349 C 0.87054 0.70836 0.62658 0.0
O350 O 1.00382 0.80818 0.57856 0.0
O351 O 0.96803 0.84056 0.59646 0.0
O352 O 0.95457 0.70047 0.58627 0.0
O353 O 0.87236 0.67006 0.59003 0.0
O354 O 0.90721 0.75051 0.61676 0.0
O355 O 0.82778 0.66421 0.61956 0.0
C356 C 0.69915 0.5671 0.59135 0.0
O357 O 0.70549 0.61411 0.59639 0.0
O358 O 0.74677 0.57328 0.58708 0.0
C359 C 0.81961 0.76354 0.59824 0.0
H360 H 0.63138 0.89924 0.09709 0.0
H361 H 0.45864 0.7977 0.1081 0.0
H362 H 0.46779 0.71529 0.10741 0.0
H363 H 0.526 0.67304 0.10402 0.0
H364 H 0.69601 0.77376 0.08905 0.0
H365 H 0.6873 0.85598 0.09082 0.0
C366 C 0.59596 0.85897 0.09942 0.0
C367 C 0.54469 0.85407 0.10301 0.0
C368 C 0.60114 0.81196 0.09815 0.0
C369 C 0.49855 0.80199 0.10552 0.0
C370 C 0.50379 0.75509 0.10508 0.0
C371 C 0.56075 0.71288 0.10088 0.0
C372 C 0.61143 0.71745 0.09639 0.0
C373 C 0.55493 0.75963 0.1014 0.0
C374 C 0.65647 0.76929 0.09243 0.0
C375 C 0.65159 0.81628 0.09354 0.0
H376 H 0.4156 0.90244 0.10439 0.0
H377 H 0.34314 0.96368 0.06655 0.0
H378 H 0.2621 0.87161 0.06434 0.0
H379 H 0.21083 0.77422 0.07436 0.0
H380 H 0.28881 0.71418 0.11056 0.0
H381 H 0.36986 0.80526 0.11183 0.0
C382 C 0.38287 0.89548 0.09526 0.0
C383 C 0.38551 0.93951 0.0855 0.0
C384 C 0.33751 0.8427 0.0938 0.0
C385 C 0.34197 0.93021 0.07415 0.0
C386 C 0.29574 0.87767 0.0729 0.0
C387 C 0.24589 0.78117 0.08235 0.0
C388 C 0.24385 0.73787 0.09249 0.0
C389 C 0.29286 0.83367 0.08283 0.0
C390 C 0.28949 0.74698 0.10268 0.0
C391 C 0.33575 0.79903 0.10346 0.0
H392 H 0.15946 0.4568 0.1222 0.0
H393 H 0.18369 0.55104 0.07381 0.0
H394 H 0.28219 0.58402 0.07463 0.0
H395 H 0.36146 0.58439 0.08871 0.0
H396 H 0.3384 0.49395 0.13793 0.0
H397 H 0.24003 0.46205 0.13741 0.0
C398 C 0.18641 0.48418 0.11179 0.0
C399 C 0.16446 0.50075 0.09778 0.0
C400 C 0.24334 0.50413 0.11261 0.0
C401 C 0.19977 0.53732 0.08461 0.0
C402 C 0.25608 0.55635 0.08511 0.0
C403 C 0.33492 0.55812 0.0994 0.0
C404 C 0.35708 0.54136 0.11328 0.0
C405 C 0.27836 0.53991 0.099 0.0
C406 C 0.3223 0.50749 0.12709 0.0
C407 C 0.26597 0.48892 0.12674 0.0
H408 H 0.873 0.5744 0.94473 0.0
H409 H 0.80233 0.45888 0.90121 0.0
H410 H 0.72331 0.47331 0.90074 0.0
H411 H 0.67763 0.52263 0.9116 0.0
H412 H 0.74733 0.63758 0.95525 0.0
H413 H 0.82464 0.6204 0.95661 0.0
C414 C 0.84008 0.55213 0.93523 0.0
C415 C 0.84331 0.51582 0.92295 0.0
C416 C 0.79526 0.56101 0.93497 0.0
C417 C 0.80057 0.4871 0.91073 0.0
C418 C 0.7556 0.49546 0.91044 0.0
C419 C 0.70915 0.54309 0.92165 0.0
C420 C 0.70673 0.58087 0.93344 0.0
C421 C 0.75294 0.5328 0.92235 0.0
C422 C 0.74855 0.60835 0.94605 0.0
C423 C 0.79255 0.59844 0.94684 0.0
H424 H 0.55785 0.1729 0.91637 0.0
H425 H 0.42141 0.11095 0.95346 0.0
H426 H 0.43161 0.20249 0.95566 0.0
H427 H 0.47646 0.29914 0.94567 0.0
H428 H 0.61472 0.36094 0.9093 0.0
H429 H 0.60711 0.2705 0.9083 0.0
C430 C 0.53088 0.17962 0.92514 0.0
C431 C 0.48885 0.13535 0.93469 0.0
C432 C 0.53714 0.23221 0.92637 0.0
C433 C 0.45404 0.14449 0.94596 0.0
C434 C 0.45975 0.19673 0.94718 0.0
C435 C 0.50503 0.29273 0.93762 0.0
C436 C 0.5457 0.33626 0.92742 0.0
C437 C 0.50064 0.24071 0.93722 0.0
C438 C 0.5829 0.32783 0.91718 0.0
C439 C 0.57855 0.27619 0.9166 0.0
H440 H 0.72526 0.24866 0.93157 0.0
H441 H 0.76417 0.13761 0.90387 0.0
H442 H 0.8617 0.20584 0.90454 0.0
H443 H 0.9366 0.29722 0.91319 0.0
H444 H 0.89801 0.40823 0.94104 0.0
H445 H 0.80033 0.3404 0.94013 0.0
C446 C 0.75518 0.23957 0.92568 0.0
C447 C 0.73758 0.18821 0.91771 0.0
C448 C 0.81144 0.27903 0.92619 0.0
C449 C 0.77672 0.17688 0.91011 0.0
C450 C 0.83256 0.21586 0.9105 0.0
C451 C 0.90674 0.30631 0.91913 0.0
C452 C 0.92446 0.35748 0.92723 0.0
C453 C 0.85049 0.26702 0.91856 0.0
C454 C 0.88536 0.36901 0.93475 0.0
C455 C 0.82944 0.33025 0.93423 0.0
H456 H 0.20536 1.005 0.41478 0.0
H457 H 0.33721 0.08061 0.45301 0.0
H458 H 0.32009 0.15716 0.45663 0.0
H459 H 0.26956 0.20417 0.44817 0.0
H460 H 0.1413 0.13164 0.40863 0.0
H461 H 0.15458 0.05216 0.40633 0.0
C462 C 0.23017 0.03829 0.42389 0.0
C463 C 0.27265 0.0376 0.43352 0.0
C464 C 0.22068 0.08262 0.42567 0.0
C465 C 0.30467 0.08076 0.44531 0.0
C466 C 0.29478 0.12439 0.44743 0.0
C467 C 0.24434 0.17072 0.43916 0.0
C468 C 0.20454 0.17346 0.4286 0.0
C469 C 0.25319 0.12598 0.43758 0.0
C470 C 0.17232 0.13027 0.41685 0.0
C471 C 0.17992 0.08492 0.41552 0.0
H472 H 0.96729 0.26236 0.42789 0.0
H473 H 0.09462 0.22097 0.43187 0.0
H474 H 0.02736 0.12467 0.43616 0.0
H475 H 0.93131 0.05149 0.43883 0.0
H476 H 0.80249 0.09172 0.4348 0.0
H477 H 0.87052 0.18875 0.43074 0.0
C478 C 0.98006 0.23205 0.42963 0.0
C479 C 0.03606 0.24842 0.42895 0.0
C480 C 0.94055 0.17647 0.43225 0.0
C481 C 0.05206 0.20901 0.43143 0.0
C482 C 1.01341 0.15396 0.43421 0.0
C483 C 0.91827 0.08161 0.43713 0.0
C484 C 0.86223 0.06474 0.43714 0.0
C485 C 0.95748 0.13712 0.43456 0.0
C486 C 0.84562 0.10394 0.43483 0.0
C487 C 0.88444 0.15938 0.43249 0.0
H488 H 1.01905 0.91309 0.42206 0.0
H489 H 0.99564 0.78982 0.46123 0.0
H490 H 0.89787 0.7591 0.46297 0.0
H491 H 0.81784 0.76438 0.4524 0.0
H492 H 0.84124 0.89 0.41428 0.0
H493 H 0.93969 0.92253 0.41303 0.0
C494 C 0.9925 0.8798 0.43104 0.0
C495 C 1.01436 0.8535 0.44138 0.0
C496 C 0.93613 0.86235 0.43204 0.0
C497 C 0.97969 0.81064 0.45308 0.0
C498 C 0.92371 0.79285 0.45405 0.0
C499 C 0.84461 0.79873 0.4438 0.0
C500 C 0.8225 0.82427 0.43325 0.0
C501 C 0.90129 0.81782 0.4434 0.0
C502 C 0.85752 0.86949 0.42243 0.0
C503 C 0.91378 0.88812 0.42171 0.0
H504 H 0.35496 0.87425 0.27438 0.0
H505 H 0.42952 1.00434 0.23507 0.0
H506 H 0.50616 0.98735 0.23146 0.0
H507 H 0.55352 0.9375 0.24023 0.0
H508 H 0.48101 0.80955 0.28032 0.0
H509 H 0.40155 0.82284 0.2827 0.0
C510 C 0.38786 0.89844 0.26495 0.0
C511 C 0.3869 0.94044 0.25503 0.0
C512 C 0.43202 0.88876 0.26308 0.0
C513 C 0.42985 0.97211 0.24298 0.0
C514 C 0.47351 0.96228 0.24085 0.0
C515 C 0.52007 0.91232 0.24937 0.0
C516 C 0.52289 0.87274 0.2601 0.0
C517 C 0.47525 0.92102 0.25093 0.0
C518 C 0.47961 0.84045 0.27197 0.0
C519 C 0.4343 0.84809 0.27336 0.0
H520 H 0.15532 0.6514 0.2357 0.0
H521 H 0.29496 0.7111 0.27081 0.0
H522 H 0.28231 0.61843 0.27308 0.0
H523 H 0.22839 0.51906 0.26608 0.0
H524 H 0.08689 0.46038 0.2318 0.0
H525 H 0.10343 0.55368 0.22813 0.0
C526 C 0.18322 0.64418 0.24374 0.0
C527 C 0.22592 0.6879 0.2531 0.0
C528 C 0.17509 0.59078 0.24521 0.0
C529 C 0.26169 0.67798 0.26351 0.0
C530 C 0.25439 0.625 0.26483 0.0
C531 C 0.2014 0.52692 0.25779 0.0
C532 C 0.15617 0.4829 0.24936 0.0
C533 C 0.21076 0.58087 0.25592 0.0
C534 C 0.12156 0.49352 0.2386 0.0
C535 C 0.13107 0.54689 0.23645 0.0
H536 H 0.61119 0.6378 0.26349 0.0
H537 H 0.57418 0.76661 0.25408 0.0
H538 H 0.47773 0.70036 0.25026 0.0
H539 H 0.4028 0.60473 0.24965 0.0
H540 H 0.43835 0.47443 0.25925 0.0
H541 H 0.53573 0.54134 0.26276 0.0
C542 C 0.58183 0.65111 0.26061 0.0
C543 C 0.59958 0.70738 0.25961 0.0
C544 C 0.52594 0.61213 0.25837 0.0
C545 C 0.56131 0.72403 0.25574 0.0
C546 C 0.50606 0.68588 0.25327 0.0
C547 C 0.43195 0.59112 0.25249 0.0
C548 C 0.41362 0.53496 0.25419 0.0
C549 C 0.48776 0.62978 0.25468 0.0
C550 C 0.45164 0.51766 0.25792 0.0
C551 C 0.50734 0.55585 0.25991 0.0
H552 H 0.81977 0.46592 0.75879 0.0
H553 H 0.9314 0.54858 0.80236 0.0
H554 H 0.9606 0.47969 0.80198 0.0
H555 H 0.95633 0.39709 0.78839 0.0
H556 H 0.84561 0.31694 0.74436 0.0
H557 H 0.81429 0.38361 0.7457 0.0
C558 C 0.85012 0.46854 0.76831 0.0
C559 C 0.87338 0.51208 0.78059 0.0
C560 C 0.86727 0.42949 0.76779 0.0
C561 C 0.91282 0.51522 0.79281 0.0
C562 C 0.92973 0.47605 0.79253 0.0
C563 C 0.92569 0.39471 0.77905 0.0
C564 C 0.90317 0.3523 0.76631 0.0
C565 C 0.90778 0.43337 0.7799 0.0
C566 C 0.86309 0.34904 0.75438 0.0
C567 C 0.84522 0.38716 0.75512 0.0
H568 H 0.64438 0.57954 0.78737 0.0
H569 H 0.73703 0.54763 0.74764 0.0
H570 H 0.67302 0.44924 0.74993 0.0
H571 H 0.58822 0.37266 0.76205 0.0
H572 H 0.49487 0.40317 0.80189 0.0
H573 H 0.56209 0.50141 0.8011 0.0
C574 C 0.65017 0.55087 0.7792 0.0
C575 C 0.69477 0.57049 0.76722 0.0
C576 C 0.61341 0.49416 0.78073 0.0
C577 C 0.70278 0.53321 0.75693 0.0
C578 C 0.66627 0.47701 0.75824 0.0
C579 C 0.58301 0.40077 0.77071 0.0
C580 C 0.53669 0.38099 0.78191 0.0
C581 C 0.62121 0.45706 0.76997 0.0
C582 C 0.53034 0.41765 0.79313 0.0
C583 C 0.5685 0.47381 0.79259 0.0
H584 H 0.50008 0.20284 0.75728 0.0
H585 H 0.43197 0.05204 0.78766 0.0
H586 H 0.52406 0.06558 0.79231 0.0
H587 H 0.62342 0.11821 0.78636 0.0
H588 H 0.69101 0.26864 0.75572 0.0
H589 H 0.59962 0.25803 0.75279 0.0
C590 C 0.50556 0.17329 0.76506 0.0
C591 C 0.45966 0.12642 0.77203 0.0
C592 C 0.55839 0.18134 0.76761 0.0
C593 C 0.46693 0.08813 0.782 0.0
C594 C 0.51947 0.09596 0.78471 0.0
C595 C 0.61807 0.14886 0.7792 0.0
C596 C 0.6635 0.19392 0.77118 0.0
C597 C 0.56542 0.14207 0.77738 0.0
C598 C 0.65638 0.23349 0.76194 0.0
C599 C 0.60422 0.22737 0.76022 0.0
H600 H 0.03075 0.20828 0.57472 0.0
H601 H 0.08222 0.28954 0.62596 0.0
H602 H 0.15581 0.2666 0.6272 0.0
H603 H 0.20773 0.22736 0.6128 0.0
H604 H 0.16045 0.15423 0.56025 0.0
H605 H 0.08212 0.16976 0.56039 0.0
C606 C 0.05784 0.22074 0.58623 0.0
C607 C 0.05138 0.25056 0.60025 0.0
C608 C 0.10056 0.20889 0.58653 0.0
C609 C 0.08683 0.26674 0.61501 0.0
C610 C 0.1287 0.2536 0.6157 0.0
C611 C 0.17987 0.21443 0.60148 0.0
C612 C 0.18932 0.18958 0.58654 0.0
C613 C 0.13629 0.22526 0.60142 0.0
C614 C 0.1537 0.17352 0.57183 0.0
C615 C 0.10911 0.1824 0.57192 0.0
H616 H 0.87196 0.83996 0.57281 0.0
H617 H 0.80139 0.81652 0.62593 0.0
H618 H 0.82741 0.91389 0.62697 0.0
H619 H 0.8669 1.00427 0.61206 0.0
H620 H 0.92853 0.02401 0.55775 0.0
H621 H 0.91004 0.9291 0.55787 0.0
C622 C 0.86255 0.85626 0.58467 0.0
C623 C 0.83501 0.8216 0.59932 0.0
C624 C 0.87621 0.91136 0.5849 0.0
C625 C 0.8224 0.84274 0.61451 0.0
C626 C 0.83739 0.89823 0.61509 0.0
C627 C 0.87681 0.98779 0.60036 0.0
C628 C 0.89939 0.02068 0.58495 0.0
C629 C 0.86391 0.93276 0.60029 0.0
C630 C 0.91124 0.99909 0.56972 0.0
C631 C 0.90057 0.94501 0.56979 0.0
H632 H 0.23162 0.07743 0.59196 0.0
H633 H 0.29109 0.97172 0.61086 0.0
H634 H 0.19893 0.89198 0.60816 0.0
H635 H 0.10275 0.85207 0.59869 0.0
H636 H 0.04082 0.95823 0.58269 0.0
H637 H 0.13287 0.0388 0.58596 0.0
C638 C 0.22403 0.03705 0.59578 0.0
C639 C 0.26776 0.03015 0.60152 0.0
C640 C 0.17089 0.99178 0.59449 0.0
C641 C 0.25782 0.97783 0.60648 0.0
C642 C 0.20531 0.93229 0.60482 0.0
C643 C 0.10968 0.89299 0.59597 0.0
C644 C 0.06608 0.89979 0.59013 0.0
C645 C 0.16185 0.93872 0.59852 0.0
C646 C 0.07443 0.95258 0.58703 0.0
C647 C 0.12681 0.99837 0.58892 0.0
H648 H 0.50298 0.96203 0.03893 0.0
H649 H 0.59433 0.13895 0.0407 0.0
H650 H 0.60306 0.14288 1.00796 0.0
H651 H 0.58047 0.09632 0.97862 0.0
H652 H 0.48424 0.91972 0.97679 0.0
H653 H 0.48227 0.91541 1.00964 0.0
C654 C 0.52522 1.00144 0.03217 0.0
C655 C 0.54783 0.0501 0.04229 0.0
C656 C 0.52925 1.00347 0.01327 0.0
C657 C 0.57612 0.10083 0.03326 0.0
C658 C 0.58129 0.10314 0.01452 0.0
C659 C 0.55989 0.05687 0.98543 0.0
C660 C 0.53281 1.0084 0.97527 0.0
C661 C 0.55749 0.05477 1.00435 0.0
C662 C 0.50542 0.95764 0.98429 0.0
C663 C 0.50416 0.95514 1.00309 0.0
H664 H 0.97131 0.48907 0.98165 0.0
H665 H 0.14705 0.58556 0.97503 0.0
H666 H 0.15764 0.59931 1.00761 0.0
H667 H 0.11697 0.5803 0.03804 0.0
H668 H 0.94166 0.4786 0.04444 0.0
H669 H 0.93084 0.47077 1.0118 0.0
C670 C 1.01198 0.51355 0.98728 0.0
C671 C 0.05836 0.53637 0.97592 0.0
C672 C 1.01777 0.52022 1.00599 0.0
C673 C 0.11072 0.56742 0.98349 0.0
C674 C 0.11677 0.57532 1.00211 0.0
C675 C 0.07635 0.55701 0.03227 0.0
C676 C 0.03011 0.53026 0.04362 0.0
C677 C 0.0706 0.55147 0.0135 0.0
C678 C 0.97785 0.49947 0.03598 0.0
C679 C 0.97165 0.49497 0.01733 0.0
H680 H 0.52517 0.58446 0.98723 0.0
H681 H 0.6148 0.4973 0.98307 0.0
H682 H 0.62064 0.49553 0.01586 0.0
H683 H 0.6017 0.52038 0.04574 0.0
H684 H 0.50817 0.60369 0.04977 0.0
H685 H 0.50221 0.60506 0.01705 0.0
C686 C 0.54606 0.56516 0.99351 0.0
C687 C 0.56987 0.54142 0.98275 0.0
C688 C 0.54847 0.56351 0.01236 0.0
C689 C 0.59604 0.51578 0.99107 0.0
C690 C 0.59952 0.51488 1.00981 0.0
C691 C 0.57997 0.53877 0.03945 0.0
C692 C 0.55566 0.56213 0.05019 0.0
C693 C 0.57609 0.53884 0.0206 0.0
C694 C 0.52705 0.58519 0.04184 0.0
C695 C 0.52381 0.58622 0.02311 0.0
H696 H 0.17685 0.29811 0.36812 0.0
H697 H 0.24738 0.47305 0.37421 0.0
H698 H 0.25822 0.48509 0.34155 0.0
H699 H 0.2423 0.44494 0.31105 0.0
H700 H 0.16524 0.26931 0.30543 0.0
H701 H 0.16288 0.25853 0.33806 0.0
C702 C 0.19517 0.33899 0.36234 0.0
C703 C 0.21126 0.38459 0.3736 0.0
C704 C 0.20002 0.34544 0.34359 0.0
C705 C 0.23438 0.43719 0.36585 0.0
C706 C 0.24066 0.44412 0.34717 0.0
C707 C 0.2258 0.40449 0.31703 0.0
C708 C 0.20408 0.35798 0.30591 0.0
C709 C 0.22292 0.39844 0.33587 0.0
C710 C 0.18199 0.30566 0.31376 0.0
C711 C 0.18059 0.29947 0.3324 0.0
H712 H 0.77632 0.90517 0.37944 0.0
H713 H 0.5998 0.82355 0.38267 0.0
H714 H 0.5941 0.82284 0.34985 0.0
H715 H 0.6387 0.83878 0.32047 0.0
H716 H 0.81484 0.91336 0.31695 0.0
H717 H 0.82145 0.92338 0.34969 0.0
C718 C 0.73678 0.8883 0.3729 0.0
C719 C 0.68853 0.86486 0.38333 0.0
C720 C 0.73377 0.88605 0.35404 0.0
C721 C 0.63739 0.84194 0.37482 0.0
C722 C 0.63414 0.84134 0.3561 0.0
C723 C 0.67864 0.85773 0.32682 0.0
C724 C 0.72621 0.87517 0.3163 0.0
C725 C 0.68198 0.86221 0.34559 0.0
C726 C 0.77757 0.8992 0.32477 0.0
C727 C 0.78138 0.90509 0.34347 0.0
H728 H 0.25819 0.84735 0.31489 0.0
H729 H 0.16586 0.93123 0.309 0.0
H730 H 0.15749 0.93353 0.34176 0.0
H731 H 0.179 0.91411 0.37222 0.0
H732 H 0.27653 0.83551 0.37769 0.0
H733 H 0.28011 0.82866 0.34504 0.0
C734 C 0.23576 0.8657 0.32074 0.0
C735 C 0.21239 0.88879 0.30945 0.0
C736 C 0.23225 0.86803 0.33957 0.0
C737 C 0.18426 0.91317 0.31734 0.0
C738 C 0.17946 0.91448 0.33608 0.0
C739 C 0.20068 0.89512 0.36625 0.0
C740 C 0.22736 0.87523 0.37742 0.0
C741 C 0.20364 0.89239 0.34736 0.0
C742 C 0.25586 0.85139 0.36944 0.0
C743 C 0.25785 0.84735 0.35075 0.0
H744 H 0.89631 0.77014 0.70901 0.0
H745 H 0.82271 0.59449 0.71433 0.0
H746 H 0.8213 0.58513 0.68173 0.0
H747 H 0.83709 0.6263 0.65146 0.0
H748 H 0.91517 0.80224 0.64611 0.0
H749 H 0.9188 0.81192 0.67877 0.0
C750 C 0.88035 0.7299 0.70302 0.0
C751 C 0.85947 0.68317 0.71412 0.0
C752 C 0.88022 0.72474 0.68418 0.0
C753 C 0.83936 0.6313 0.70614 0.0
C754 C 0.83822 0.62578 0.68745 0.0
C755 C 0.8551 0.66671 0.65748 0.0
C756 C 0.87559 0.71339 0.64639 0.0
C757 C 0.85791 0.67212 0.67632 0.0
C758 C 0.89938 0.76559 0.65435 0.0
C759 C 0.90128 0.77121 0.67305 0.0
H760 H 0.45118 0.22403 0.65207 0.0
H761 H 0.27646 0.13793 0.64297 0.0
H762 H 0.25931 0.1329 0.67523 0.0
H763 H 0.29349 0.15085 0.70627 0.0
H764 H 0.46812 0.24068 0.71546 0.0
H765 H 0.48544 0.2465 0.68316 0.0
C766 C 0.40943 0.20432 0.65717 0.0
C767 C 0.36532 0.18139 0.64509 0.0
C768 C 0.39964 0.20218 0.67584 0.0
C769 C 0.31135 0.15633 0.65193 0.0
C770 C 0.30136 0.15319 0.67042 0.0
C771 C 0.33529 0.17187 0.70119 0.0
C772 C 0.37929 0.19509 0.71331 0.0
C773 C 0.34514 0.17571 0.68253 0.0
C774 C 0.4333 0.22261 0.70647 0.0
C775 C 0.44338 0.22581 0.68797 0.0
H776 H 0.84659 0.2385 0.64878 0.0
H777 H 0.94469 0.16037 0.64423 0.0
H778 H 0.94226 0.14892 0.6769 0.0
H779 H 0.91422 0.16376 0.70707 0.0
H780 H 0.81191 0.23779 0.71086 0.0
H781 H 0.8139 0.24782 0.6784 0.0
C782 C 0.8673 0.21886 0.65496 0.0
C783 C 0.89594 0.20061 0.64414 0.0
C784 C 0.865 0.21159 0.67369 0.0
C785 C 0.92208 0.17459 0.65228 0.0
C786 C 0.92091 0.16821 0.67098 0.0
C787 C 0.89218 0.18177 0.70075 0.0
C788 C 0.86306 0.19994 0.71145 0.0
C789 C 0.89278 0.1869 0.68187 0.0
C790 C 0.83438 0.22294 0.70303 0.0
C791 C 0.83564 0.22904 0.6844 0.0
H792 H 0.35691 1.01508 0.20406 0.0
H793 H 0.30252 0.84298 0.19778 0.0
H794 H 0.36505 0.86389 0.17226 0.0
H795 H 0.43415 0.931 0.15122 0.0
H796 H 0.48883 0.10318 0.15774 0.0
H797 H 0.42827 0.08235 0.18374 0.0
C798 C 0.35817 0.98205 0.19696 0.0
C799 C 0.32422 0.92739 0.2027 0.0
C800 C 0.39513 0.99448 0.18247 0.0
C801 C 0.32766 0.88535 0.19359 0.0
C802 C 0.36371 0.89732 0.17903 0.0
C803 C 0.43372 0.96412 0.15854 0.0
C804 C 0.46649 0.01871 0.1525 0.0
C805 C 0.39782 0.95176 0.17336 0.0
C806 C 0.4644 0.06084 0.16205 0.0
C807 C 0.42939 0.04893 0.17688 0.0
H808 H 0.04845 0.41938 0.14869 0.0
H809 H 0.16647 0.59057 0.15617 0.0
H810 H 0.20721 0.56718 0.18131 0.0
H811 H 0.20935 0.49766 0.20108 0.0
H812 H 0.09326 0.32616 0.19237 0.0
H813 H 0.0525 0.35012 0.16764 0.0
C814 C 0.08247 0.45167 0.15602 0.0
C815 C 0.10365 0.50674 0.15082 0.0
C816 C 0.10678 0.43777 0.17003 0.0
C817 C 0.14893 0.54793 0.16009 0.0
C818 C 0.17248 0.53452 0.17437 0.0
C819 C 0.17572 0.46543 0.1936 0.0
C820 C 0.15466 0.4101 0.19861 0.0
C821 C 0.15203 0.47949 0.17937 0.0
C822 C 0.11053 0.36907 0.18885 0.0
C823 C 0.08688 0.38272 0.17474 0.0
H824 H 0.72183 0.7433 0.21024 0.0
H825 H 0.60949 0.80433 0.20298 0.0
H826 H 0.56782 0.74286 0.1775 0.0
H827 H 0.56275 0.67156 0.1574 0.0
H828 H 0.67501 0.6103 0.16443 0.0
H829 H 0.7164 0.67129 0.1901 0.0
C830 C 0.68888 0.74388 0.20289 0.0
C831 C 0.66933 0.77897 0.2084 0.0
C832 C 0.66427 0.70754 0.18844 0.0
C833 C 0.62569 0.77814 0.19896 0.0
C834 C 0.60153 0.74268 0.18445 0.0
C835 C 0.59565 0.67075 0.16471 0.0
C836 C 0.61536 0.63592 0.15904 0.0
C837 C 0.6201 0.70681 0.1792 0.0
C838 C 0.65875 0.63638 0.16853 0.0
C839 C 0.68275 0.67158 0.18315 0.0
H840 H 0.90621 0.38261 0.87418 0.0
H841 H 0.07848 0.45476 0.86136 0.0
H842 H 0.05653 0.39579 0.83517 0.0
H843 H 0.98918 0.32256 0.81617 0.0
H844 H 0.8166 0.25127 0.82792 0.0
H845 H 0.83789 0.31039 0.85433 0.0
C846 C 0.93882 0.38605 0.86546 0.0
C847 C 0.9939 0.42322 0.86973 0.0
C848 C 0.92597 0.35139 0.85042 0.0
C849 C 0.03572 0.42653 0.85844 0.0
C850 C 1.02328 0.39261 0.84347 0.0
C851 C 0.9562 0.31929 0.82467 0.0
C852 C 0.90145 0.28185 0.82029 0.0
C853 C 0.96867 0.35436 0.83948 0.0
C854 C 0.85916 0.27934 0.83114 0.0
C855 C 0.8713 0.31339 0.84617 0.0
H856 H 0.6508 0.65724 0.87405 0.0
H857 H 0.57951 0.48412 0.86357 0.0
H858 H 0.63688 0.50435 0.83668 0.0
H859 H 0.71142 0.57118 0.8171 0.0
H860 H 0.78276 0.74422 0.82772 0.0
H861 H 0.72219 0.72402 0.85374 0.0
C862 C 0.64683 0.62392 0.86567 0.0
C863 C 0.61052 0.5692 0.8708 0.0
C864 C 0.68117 0.63581 0.8505 0.0
C865 C 0.60685 0.52661 0.85991 0.0
C866 C 0.64007 0.53813 0.84462 0.0
C867 C 0.71418 0.60442 0.82525 0.0
C868 C 0.75229 0.65913 0.82064 0.0
C869 C 0.67838 0.59254 0.84003 0.0
C870 C 0.75423 0.70175 0.83107 0.0
C871 C 0.71934 0.69024 0.84589 0.0
H872 H 0.46733 0.1721 0.81793 0.0
H873 H 0.29581 0.05646 0.82707 0.0
H874 H 0.31998 0.01537 0.85196 0.0
H875 H 0.39022 1.01275 0.87124 0.0
H876 H 0.56146 0.12849 0.86142 0.0
H877 H 0.53685 0.16825 0.83646 0.0
C878 C 0.43495 0.13844 0.8255 0.0
C879 C 0.37961 0.11814 0.82079 0.0
C880 C 0.44922 0.11436 0.83951 0.0
C881 C 0.33863 0.07344 0.83051 0.0
C882 C 0.3525 0.04969 0.84469 0.0
C883 C 0.42224 0.04618 0.86349 0.0
C884 C 0.47776 0.06741 0.86824 0.0
C885 C 0.40772 0.06964 0.84926 0.0
C886 C 0.51849 0.1112 0.85812 0.0
C887 C 0.50443 0.13424 0.84388 0.0
H888 H 1.00153 0.21125 0.53378 0.0
H889 H 0.96539 0.34357 0.53288 0.0
H890 H 1.02163 0.3809 0.50577 0.0
H891 H 0.08248 0.37692 0.48262 0.0
H892 H 0.11847 0.24449 0.48385 0.0
H893 H 0.06141 0.20686 0.51068 0.0
C894 C 1.00522 0.24788 0.52757 0.0
C895 C 0.97879 0.27428 0.53537 0.0
C896 C 0.03838 0.26967 0.51217 0.0
C897 C 0.98493 0.32216 0.52717 0.0
C898 C 1.01739 0.34375 0.5117 0.0
C899 C 0.0784 0.34016 0.48885 0.0
C900 C 0.10528 0.31393 0.48125 0.0
C901 C 0.04481 0.31819 0.5042 0.0
C902 C 0.09863 0.26581 0.48941 0.0
C903 C 0.06573 0.24404 0.50473 0.0
H904 H 0.82388 0.83499 0.48294 0.0
H905 H 0.65304 0.75097 0.49841 0.0
H906 H 0.67279 0.70867 0.52385 0.0
H907 H 0.73853 0.69647 0.54202 0.0
H908 H 0.90963 0.78049 0.52682 0.0
H909 H 0.88959 0.82051 0.50074 0.0
C910 C 0.79117 0.80807 0.49205 0.0
C911 C 0.73719 0.79682 0.48894 0.0
C912 C 0.80265 0.7829 0.50649 0.0
C913 C 0.69502 0.7607 0.50059 0.0
C914 C 0.70621 0.73619 0.51509 0.0
C915 C 0.77133 0.72258 0.53281 0.0
C916 C 0.82548 0.73502 0.53635 0.0
C917 C 0.75979 0.74672 0.51812 0.0
C918 C 0.86752 0.7699 0.5244 0.0
C919 C 0.85619 0.79326 0.50956 0.0
H920 H 0.3417 0.9804 0.48698 0.0
H921 H 0.17743 0.95563 0.48874 0.0
H922 H 0.2019 0.0175 0.51435 0.0
H923 H 0.26963 0.07908 0.53611 0.0
H924 H 0.43431 0.10472 0.53461 0.0
H925 H 0.41015 0.04292 0.5089 0.0
C926 C 0.31102 0.98785 0.49315 0.0
C927 C 0.25755 0.96276 0.48604 0.0
C928 C 0.32568 0.02446 0.50774 0.0
C929 C 0.21873 0.97396 0.49398 0.0
C930 C 0.23278 1.00966 0.50858 0.0
C931 C 0.30063 0.07185 0.53007 0.0
C932 C 0.35393 0.09704 0.53732 0.0
C933 C 0.28622 0.03551 0.51547 0.0
C934 C 0.39306 0.08629 0.52933 0.0
C935 C 0.37916 0.0506 0.51467 0.0
H936 H 0.46471 0.37294 0.12383 0.0
H937 H 0.59651 0.46402 0.08637 0.0
H938 H 0.60808 0.38421 0.08184 0.0
H939 H 0.57728 0.28633 0.08773 0.0
H940 H 0.43838 0.19338 0.12282 0.0
H941 H 0.43203 0.27527 0.12888 0.0
C942 C 0.49629 0.37528 0.11483 0.0
C943 C 0.53206 0.42504 0.10626 0.0
C944 C 0.50064 0.32843 0.11168 0.0
C945 C 0.57162 0.4274 0.09418 0.0
C946 C 0.57715 0.38127 0.09124 0.0
C947 C 0.54585 0.28428 0.09673 0.0
C948 C 0.50842 0.23414 0.10485 0.0
C949 C 0.54179 0.33144 0.09991 0.0
C950 C 0.46754 0.23162 0.11638 0.0
C951 C 0.46391 0.2784 0.11988 0.0
H952 H 0.66043 0.18924 0.11617 0.0
H953 H 0.70599 0.11886 0.07248 0.0
H954 H 0.79558 0.20117 0.07034 0.0
H955 H 0.8634 0.29132 0.08167 0.0
H956 H 0.82073 0.36382 0.12533 0.0
H957 H 0.72838 0.28317 0.12674 0.0
C958 C 0.68987 0.19239 0.1061 0.0
C959 C 0.67668 0.14778 0.0946 0.0
C960 C 0.74224 0.2401 0.10504 0.0
C961 C 0.71525 0.15237 0.08161 0.0
C962 C 0.76665 0.19947 0.08036 0.0
C963 C 0.83386 0.2895 0.09148 0.0
C964 C 0.84901 0.33319 0.10347 0.0
C965 C 0.781 0.24319 0.09218 0.0
C966 C 0.81013 0.33046 0.11601 0.0
C967 C 0.75727 0.28437 0.1168 0.0
H968 H 0.82267 0.63746 0.12241 0.0
H969 H 0.73408 0.49276 0.08983 0.0
H970 H 0.81214 0.47723 0.09042 0.0
H971 H 0.90731 0.50732 0.09891 0.0
H972 H 0.99541 0.65023 0.13229 0.0
H973 H 0.9159 0.66362 0.13285 0.0
C974 C 0.82061 0.60259 0.11547 0.0
C975 C 0.77306 0.56672 0.10591 0.0
C976 C 0.86548 0.59346 0.11606 0.0
C977 C 0.77048 0.52122 0.09716 0.0
C978 C 0.81504 0.51223 0.09752 0.0
C979 C 0.90875 0.54081 0.10656 0.0
C980 C 0.95721 0.57777 0.11551 0.0
C981 C 0.86294 0.54834 0.10678 0.0
C982 C 0.95856 0.62117 0.12529 0.0
C983 C 0.9132 0.62904 0.12554 0.0
H984 H 0.38766 0.47561 0.8961 0.0
H985 H 0.43697 0.53827 0.94979 0.0
H986 H 0.35053 0.53735 0.95454 0.0
H987 H 0.25972 0.5173 0.94355 0.0
H988 H 0.21465 0.46427 0.88882 0.0
H989 H 0.3 0.46248 0.88432 0.0
C990 C 0.37934 0.48919 0.90878 0.0
C991 C 0.41818 0.50657 0.92259 0.0
C992 C 0.33012 0.48994 0.91126 0.0
C993 C 0.40753 0.52475 0.93893 0.0
C994 C 0.35805 0.52405 0.94169 0.0
C995 C 0.26877 0.50527 0.9307 0.0
C996 C 0.23108 0.49029 0.9166 0.0
C997 C 0.31885 0.50639 0.928 0.0
C998 C 0.24332 0.47579 0.89986 0.0
C999 C 0.29201 0.47475 0.89728 0.0
H1000 H 0.4854 0.86981 0.92647 0.0
H1001 H 0.61765 0.9467 0.88786 0.0
H1002 H 0.63437 0.8698 0.89014 0.0
H1003 H 0.61463 0.78258 0.9042 0.0
H1004 H 0.47824 0.70154 0.94099 0.0
H1005 H 0.45999 0.77791 0.93843 0.0
C1006 C 0.51732 0.86925 0.91839 0.0
C1007 C 0.55049 0.9141 0.90714 0.0
C1008 C 0.52645 0.82444 0.91962 0.0
C1009 C 0.59157 0.91277 0.89666 0.0
C1010 C 0.60141 0.86891 0.89802 0.0
C1011 C 0.581 0.78183 0.91165 0.0
C1012 C 0.54836 0.7372 0.92297 0.0
C1013 C 0.56978 0.82499 0.90968 0.0
C1014 C 0.50415 0.73588 0.93229 0.0
C1015 C 0.49366 0.77943 0.93081 0.0
H1016 H 0.33104 0.78631 0.90703 0.0
H1017 H 0.26054 0.87584 0.93185 0.0
H1018 H 0.17062 0.79335 0.9323 0.0
H1019 H 0.11212 0.69633 0.92613 0.0
H1020 H 0.17915 0.604 0.90132 0.0
H1021 H 0.27043 0.68674 0.90046 0.0
C1022 C 0.29584 0.78757 0.91246 0.0
C1023 C 0.30237 0.83712 0.9194 0.0
C1024 C 0.24384 0.73953 0.91276 0.0
C1025 C 0.2566 0.83828 0.92646 0.0
C1026 C 0.20513 0.7911 0.92673 0.0
C1027 C 0.14663 0.69417 0.92047 0.0
C1028 C 0.13901 0.64407 0.91386 0.0
C1029 C 0.19834 0.74161 0.91999 0.0
C1030 C 0.18412 0.64199 0.90662 0.0
C1031 C 0.2362 0.68937 0.90608 0.0
H1032 H 0.12799 0.70347 0.41647 0.0
H1033 H 0.25447 0.77626 0.45658 0.0
H1034 H 0.26114 0.69237 0.45749 0.0
H1035 H 0.22827 0.59664 0.44731 0.0
H1036 H 0.10088 0.52604 0.40731 0.0
H1037 H 0.09715 0.61069 0.40597 0.0
C1038 C 0.15712 0.70109 0.42542 0.0
C1039 C 0.19061 0.74582 0.43647 0.0
C1040 C 0.16032 0.65296 0.42592 0.0
C1041 C 0.22832 0.74227 0.44792 0.0
C1042 C 0.23199 0.6943 0.44847 0.0
C1043 C 0.19987 0.60004 0.4383 0.0
C1044 C 0.16472 0.55511 0.42747 0.0
C1045 C 0.19782 0.64912 0.43761 0.0
C1046 C 0.12822 0.55996 0.41581 0.0
C1047 C 0.12604 0.60835 0.41502 0.0
H1048 H 0.46887 0.6513 0.44897 0.0
H1049 H 0.54954 0.60258 0.40966 0.0
H1050 H 0.46508 0.51535 0.40544 0.0
H1051 H 0.36969 0.45207 0.41348 0.0
H1052 H 0.28753 0.49843 0.45289 0.0
H1053 H 0.37097 0.58803 0.45637 0.0
C1054 C 0.46776 0.62149 0.43949 0.0
C1055 C 0.51529 0.63298 0.42971 0.0
C1056 C 0.41889 0.57135 0.43711 0.0
C1057 C 0.51346 0.59443 0.41737 0.0
C1058 C 0.46522 0.54462 0.41494 0.0
C1059 C 0.36997 0.48188 0.42279 0.0
C1060 C 0.32278 0.46892 0.43293 0.0
C1061 C 0.41793 0.53255 0.42482 0.0
C1062 C 0.32339 0.50786 0.44485 0.0
C1063 C 0.37115 0.55883 0.44692 0.0
H1064 H 0.55196 0.80966 0.43415 0.0
H1065 H 0.62121 0.93134 0.47601 0.0
H1066 H 0.54283 0.94614 0.47432 0.0
H1067 H 0.45845 0.92994 0.45925 0.0
H1068 H 0.38696 0.80614 0.4182 0.0
H1069 H 0.46255 0.78685 0.42114 0.0
C1070 C 0.54933 0.83867 0.44313 0.0
C1071 C 0.59251 0.86975 0.45507 0.0
C1072 C 0.5043 0.84726 0.44199 0.0
C1073 C 0.58856 0.90703 0.46667 0.0
C1074 C 0.54395 0.91581 0.46562 0.0
C1075 C 0.45951 0.89874 0.45097 0.0
C1076 C 0.41801 0.87015 0.4383 0.0
C1077 C 0.50237 0.88723 0.45301 0.0
C1078 C 0.41897 0.82901 0.4279 0.0
C1079 C 0.46202 0.81792 0.42962 0.0
H1080 H 0.94919 0.89896 0.24228 0.0
H1081 H 0.87766 0.77157 0.28265 0.0
H1082 H 0.9609 0.76503 0.28315 0.0
H1083 H 0.05296 0.79332 0.27171 0.0
H1084 H 0.12611 0.91985 0.23124 0.0
H1085 H 0.04391 0.92935 0.23126 0.0
C1086 C 0.95207 0.87 0.25122 0.0
C1087 C 0.90715 0.83566 0.26238 0.0
C1088 C 1.0004 0.86631 0.25142 0.0
C1089 C 0.91149 0.79838 0.27391 0.0
C1090 C 0.95912 0.79456 0.2742 0.0
C1091 C 0.051 0.82308 0.2629 0.0
C1092 C 0.09564 0.85595 0.25151 0.0
C1093 C 1.00361 0.82795 0.26293 0.0
C1094 C 0.09253 0.89446 0.24025 0.0
C1095 C 0.04537 0.89965 0.2402 0.0
H1096 H 0.23994 0.10372 0.22278 0.0
H1097 H 0.22009 0.09251 0.28043 0.0
H1098 H 0.20977 0.17388 0.28057 0.0
H1099 H 0.20992 0.24984 0.26455 0.0
H1100 H 0.24115 0.26924 0.20745 0.0
H1101 H 0.2434 0.18292 0.20669 0.0
C1102 C 0.23301 0.11912 0.23531 0.0
C1103 C 0.23035 0.09226 0.25158 0.0
C1104 C 0.22936 0.16729 0.23534 0.0
C1105 C 0.22228 0.11274 0.26779 0.0
C1106 C 0.21634 0.15913 0.26786 0.0
C1107 C 0.21682 0.23496 0.25189 0.0
C1108 C 0.22493 0.26537 0.23602 0.0
C1109 C 0.22028 0.18694 0.25175 0.0
C1110 C 0.23472 0.24625 0.2198 0.0
C1111 C 0.23603 0.19704 0.21939 0.0
H1112 H 0.85175 0.98239 0.23794 0.0
H1113 H 0.79724 0.01741 0.28793 0.0
H1114 H 0.88084 0.1061 0.2897 0.0
H1115 H 0.96509 0.17747 0.27574 0.0
H1116 H 1.02128 0.14527 0.22566 0.0
H1117 H 0.94176 0.05225 0.22512 0.0
C1118 C 0.85901 1.00912 0.24935 0.0
C1119 C 0.81849 0.99389 0.2627 0.0
C1120 C 0.90696 0.06101 0.2501 0.0
C1121 C 0.82786 0.02874 0.27741 0.0
C1122 C 0.87551 0.07954 0.27841 0.0
C1123 C 0.95997 0.14997 0.26475 0.0
C1124 C 0.99826 0.1682 0.25065 0.0
C1125 C 0.9145 0.09679 0.26458 0.0
C1126 C 0.9918 0.13207 0.23661 0.0
C1127 C 0.94645 0.0789 0.2363 0.0
H1128 H 0.87619 0.92016 0.78101 0.0
H1129 H 0.75675 0.8496 0.73863 0.0
H1130 H 0.75116 0.93352 0.73679 0.0
H1131 H 0.77751 0.0254 0.748 0.0
H1132 H 0.89268 0.09432 0.79155 0.0
H1133 H 0.90339 1.01305 0.79205 0.0
C1134 C 0.84925 0.92342 0.7713 0.0
C1135 C 0.81685 0.87888 0.75997 0.0
C1136 C 0.84564 0.9715 0.77052 0.0
C1137 C 0.78198 0.88338 0.7475 0.0
C1138 C 0.77874 0.93129 0.74646 0.0
C1139 C 0.80512 0.02266 0.75755 0.0
C1140 C 0.83508 0.06613 0.7695 0.0
C1141 C 0.8099 0.97532 0.75803 0.0
C1142 C 0.87044 0.06205 0.78187 0.0
C1143 C 0.87607 0.01533 0.78229 0.0
H1144 H 0.114 0.99292 0.7788 0.0
H1145 H 0.18931 0.93836 0.7394 0.0
H1146 H 0.107 0.84806 0.73875 0.0
H1147 H 1.01662 0.78266 0.75087 0.0
H1148 H 0.94012 0.83485 0.7905 0.0
H1149 H 1.01946 0.92818 0.78947 0.0
C1150 C 0.11197 0.96137 0.76993 0.0
C1151 C 0.15772 0.97206 0.75925 0.0
C1152 C 0.06447 0.90914 0.76974 0.0
C1153 C 0.15468 0.93101 0.74779 0.0
C1154 C 0.1077 0.87931 0.74744 0.0
C1155 C 1.0172 0.8146 0.7592 0.0
C1156 C 0.97288 0.8021 0.77078 0.0
C1157 C 0.06288 0.86763 0.75861 0.0
C1158 C 0.97373 0.84377 0.78138 0.0
C1159 C 1.0192 0.89697 0.78087 0.0
H1160 H 0.20753 0.1522 0.78269 0.0
H1161 H 0.29331 0.28807 0.7459 0.0
H1162 H 0.21135 0.29543 0.7423 0.0
H1163 H 0.11648 0.26677 0.75057 0.0
H1164 H 0.02863 0.13067 0.78699 0.0
H1165 H 0.10942 0.11963 0.78966 0.0
C1166 C 0.20788 0.18285 0.77375 0.0
C1167 C 0.25656 0.21971 0.76468 0.0
C1168 C 0.16022 0.18714 0.77174 0.0
C1169 C 0.25651 0.25944 0.75317 0.0
C1170 C 0.20962 0.26378 0.75107 0.0
C1171 C 0.115 0.23455 0.75902 0.0
C1172 C 0.06696 0.19993 0.76866 0.0
C1173 C 0.16149 0.22845 0.76047 0.0
C1174 C 0.06539 0.15808 0.77948 0.0
C1175 C 0.11158 0.15175 0.78103 0.0
H1176 H 0.62379 0.23626 0.58971 0.0
H1177 H 0.52826 0.05953 0.59213 0.0
H1178 H 0.6116 0.05357 0.58957 0.0
H1179 H 0.71098 0.09796 0.58643 0.0
H1180 H 0.80784 0.27386 0.58252 0.0
H1181 H 0.72492 0.28119 0.58598 0.0
C1182 C 0.62147 0.19659 0.58976 0.0
C1183 C 0.57012 0.14837 0.59117 0.0
C1184 C 0.6697 0.19341 0.58806 0.0
C1185 C 0.56738 0.09715 0.59107 0.0
C1186 C 0.61497 0.0937 0.5896 0.0
C1187 C 0.71398 0.13796 0.58633 0.0
C1188 C 0.76552 0.18553 0.58464 0.0
C1189 C 0.66622 0.14147 0.58802 0.0
C1190 C 0.76882 0.23696 0.58441 0.0
C1191 C 0.72131 0.24098 0.58619 0.0
H1192 H 0.85597 0.41156 0.60074 0.0
H1193 H 1.02082 0.48334 0.5796 0.0
H1194 H 0.0251 0.57163 0.57627 0.0
H1195 H 0.98281 0.62848 0.57939 0.0
H1196 H 0.82013 0.56043 0.60173 0.0
H1197 H 0.8135 0.47024 0.60432 0.0
C1198 C 0.89276 0.44668 0.59545 0.0
C1199 C 0.93809 0.44114 0.59045 0.0
C1200 C 0.89502 0.49762 0.59361 0.0
C1201 C 0.98552 0.48671 0.58359 0.0
C1202 C 0.98797 0.53716 0.58164 0.0
C1203 C 0.94573 0.59383 0.58475 0.0
C1204 C 0.90141 0.60056 0.58995 0.0
C1205 C 0.94304 0.54302 0.58659 0.0
C1206 C 0.85391 0.55563 0.59705 0.0
C1207 C 0.85053 0.50435 0.59875 0.0
H1208 H 0.45463 0.37276 0.59057 0.0
H1209 H 0.53313 0.2793 0.57728 0.0
H1210 H 0.62351 0.36275 0.579 0.0
H1211 H 0.67993 0.4636 0.58384 0.0
H1212 H 0.59876 0.55498 0.59712 0.0
H1213 H 0.50972 0.47133 0.59571 0.0
C1214 C 0.49156 0.37061 0.58808 0.0
C1215 C 0.48743 0.31984 0.58412 0.0
C1216 C 0.54287 0.41861 0.58899 0.0
C1217 C 0.53547 0.31761 0.58089 0.0
C1218 C 0.58704 0.36548 0.58167 0.0
C1219 C 0.64266 0.46499 0.58641 0.0
C1220 C 0.64587 0.51544 0.59053 0.0
C1221 C 0.59125 0.41634 0.58569 0.0
C1222 C 0.59738 0.51673 0.59392 0.0
C1223 C 0.54642 0.4689 0.59311 0.0
loop_
_geom_bond_atom_site_label_1
_geom_bond_atom_site_label_2
_geom_bond_distance
_geom_bond_site_symmetry_2
_ccdc_geom_bond_type
Tb0 O3 2.453 1_545 S
Tb0 O4 2.596 1_545 S
Tb0 O5 2.374 . S
Tb0 O13 2.343 . S
Tb0 O15 2.353 . S
Tb0 O17 2.427 . S
Tb0 O18 2.513 . S
C1 O5 1.251 1_565 S
C1 O7 1.263 . S
Tb2 O4 2.343 . S
Tb2 O7 2.353 . S
Tb2 O10 2.427 . S
Tb2 O11 2.513 . S
Tb2 O12 2.453 1_565 S
Tb2 O13 2.596 1_565 S
Tb2 O14 2.374 . S
O3 Tb0 2.453 1_565 S
O3 C19 1.245 . S
O4 Tb0 2.596 1_565 S
O4 Tb2 2.343 . S
O4 C19 1.259 . S
O5 Tb0 2.374 . S
O5 C1 1.251 1_545 S
C6 O10 1.275 . S
C6 O11 1.246 . S
O7 C1 1.263 . S
O7 Tb2 2.353 . S
C8 O12 1.245 . S
C8 O13 1.259 . S
C9 O14 1.250 1_545 S
C9 O15 1.263 . S
O10 Tb2 2.427 . S
O10 C6 1.275 . S
O11 Tb2 2.513 . S
O11 C6 1.246 . S
O12 Tb2 2.453 1_545 S
O12 C8 1.245 . S
O13 Tb0 2.343 . S
O13 Tb2 2.596 1_545 S
O13 C8 1.259 . S
O14 Tb2 2.374 . S
O14 C9 1.250 1_565 S
O15 Tb0 2.353 . S
O15 C9 1.263 . S
C16 O17 1.275 . S
C16 O18 1.246 . S
O17 Tb0 2.427 . S
O17 C16 1.275 . S
O18 Tb0 2.513 . S
O18 C16 1.246 . S
C19 O3 1.245 . S
C19 O4 1.259 . S
Tb20 O23 2.472 . S
Tb20 O24 2.605 . S
Tb20 O25 2.376 . S
Tb20 O33 2.329 1_455 S
Tb20 O35 2.351 . S
Tb20 O37 2.412 1_455 S
Tb20 O38 2.499 1_455 S
C21 O25 1.251 . S
C21 O27 1.263 . S
Tb22 O24 2.343 . S
Tb22 O27 2.353 . S
Tb22 O30 2.427 . S
Tb22 O31 2.513 . S
Tb22 O32 2.453 1_455 S
Tb22 O33 2.596 1_455 S
Tb22 O34 2.374 . S
O23 Tb20 2.472 . S
O23 C39 1.245 . S
O24 Tb20 2.605 . S
O24 Tb22 2.343 . S
O24 C39 1.259 . S
O25 Tb20 2.376 . S
O25 C21 1.251 . S
C26 O30 1.275 . S
C26 O31 1.246 . S
O27 C21 1.263 . S
O27 Tb22 2.353 . S
C28 O32 1.245 . S
C28 O33 1.259 . S
C29 O34 1.250 . S
C29 O35 1.263 . S
O30 Tb22 2.427 . S
O30 C26 1.275 . S
O31 Tb22 2.513 . S
O31 C26 1.246 . S
O32 Tb22 2.453 1_655 S
O32 C28 1.245 . S
O33 Tb20 2.329 1_655 S
O33 Tb22 2.596 1_655 S
O33 C28 1.259 . S
O34 Tb22 2.374 . S
O34 C29 1.250 . S
O35 Tb20 2.351 . S
O35 C29 1.263 . S
C36 O37 1.275 . S
C36 O38 1.246 . S
O37 Tb20 2.412 1_655 S
O37 C36 1.275 . S
O38 Tb20 2.499 1_655 S
O38 C36 1.246 . S
C39 O23 1.245 . S
C39 O24 1.259 . S
Tb40 O43 2.453 . S
Tb40 O44 2.596 . S
Tb40 O45 2.374 . S
Tb40 O53 2.343 . S
Tb40 O55 2.353 . S
Tb40 O57 2.427 . S
Tb40 O58 2.513 . S
C41 O45 1.251 . S
C41 O47 1.263 . S
Tb42 O44 2.343 . S
Tb42 O47 2.353 . S
Tb42 O50 2.427 . S
Tb42 O51 2.513 . S
Tb42 O52 2.453 . S
Tb42 O53 2.596 . S
Tb42 O54 2.374 . S
O43 Tb40 2.453 . S
O43 C59 1.245 . S
O44 Tb40 2.596 . S
O44 Tb42 2.343 . S
O44 C59 1.259 . S
O45 Tb40 2.374 . S
O45 C41 1.251 . S
C46 O50 1.275 . S
C46 O51 1.246 . S
O47 C41 1.263 . S
O47 Tb42 2.353 . S
C48 O52 1.245 . S
C48 O53 1.259 . S
C49 O54 1.250 . S
C49 O55 1.263 . S
O50 Tb42 2.427 . S
O50 C46 1.275 . S
O51 Tb42 2.513 . S
O51 C46 1.246 . S
O52 Tb42 2.453 . S
O52 C48 1.245 . S
O53 Tb40 2.343 . S
O53 Tb42 2.596 . S
O53 C48 1.259 . S
O54 Tb42 2.374 . S
O54 C49 1.250 . S
O55 Tb40 2.353 . S
O55 C49 1.263 . S
C56 O57 1.275 . S
C56 O58 1.246 . S
O57 Tb40 2.427 . S
O57 C56 1.275 . S
O58 Tb40 2.513 . S
O58 C56 1.246 . S
C59 O43 1.245 . S
C59 O44 1.259 . S
Tb60 O63 2.453 1_455 S
Tb60 O64 2.596 1_455 S
Tb60 O65 2.374 . S
Tb60 O73 2.343 . S
Tb60 O75 2.353 . S
Tb60 O77 2.427 . S
Tb60 O78 2.513 . S
C61 O65 1.251 1_655 S
C61 O67 1.263 . S
Tb62 O64 2.343 . S
Tb62 O67 2.353 . S
Tb62 O70 2.427 . S
Tb62 O71 2.513 . S
Tb62 O72 2.453 1_655 S
Tb62 O73 2.596 1_655 S
Tb62 O74 2.374 . S
O63 Tb60 2.453 1_655 S
O63 C79 1.245 . S
O64 Tb60 2.596 1_655 S
O64 Tb62 2.343 . S
O64 C79 1.259 . S
O65 Tb60 2.374 . S
O65 C61 1.251 1_455 S
C66 O70 1.275 . S
C66 O71 1.246 . S
O67 C61 1.263 . S
O67 Tb62 2.353 . S
C68 O72 1.245 . S
C68 O73 1.259 . S
C69 O74 1.250 1_455 S
C69 O75 1.263 . S
O70 Tb62 2.427 . S
O70 C66 1.275 . S
O71 Tb62 2.513 . S
O71 C66 1.246 . S
O72 Tb62 2.453 1_455 S
O72 C68 1.245 . S
O73 Tb60 2.343 . S
O73 Tb62 2.596 1_455 S
O73 C68 1.259 . S
O74 Tb62 2.374 . S
O74 C69 1.250 1_655 S
O75 Tb60 2.353 . S
O75 C69 1.263 . S
C76 O77 1.275 . S
C76 O78 1.246 . S
O77 Tb60 2.427 . S
O77 C76 1.275 . S
O78 Tb60 2.513 . S
O78 C76 1.246 . S
C79 O63 1.245 . S
C79 O64 1.259 . S
Tb80 O83 2.453 . S
Tb80 O84 2.596 . S
Tb80 O85 2.374 . S
Tb80 O93 2.343 . S
Tb80 O95 2.353 . S
Tb80 O97 2.427 . S
Tb80 O98 2.513 . S
C81 O85 1.251 . S
C81 O87 1.263 . S
Tb82 O84 2.343 . S
Tb82 O87 2.353 . S
Tb82 O90 2.427 . S
Tb82 O91 2.513 . S
Tb82 O92 2.453 . S
Tb82 O93 2.596 . S
Tb82 O94 2.374 . S
O83 Tb80 2.453 . S
O83 C99 1.245 . S
O84 Tb80 2.596 . S
O84 Tb82 2.343 . S
O84 C99 1.259 . S
O85 Tb80 2.374 . S
O85 C81 1.251 . S
C86 O90 1.275 . S
C86 O91 1.246 . S
O87 C81 1.263 . S
O87 Tb82 2.353 . S
C88 O92 1.245 . S
C88 O93 1.259 . S
C89 O94 1.250 . S
C89 O95 1.263 . S
O90 Tb82 2.427 . S
O90 C86 1.275 . S
O91 Tb82 2.513 . S
O91 C86 1.246 . S
O92 Tb82 2.453 . S
O92 C88 1.245 . S
O93 Tb80 2.343 . S
O93 Tb82 2.596 . S
O93 C88 1.259 . S
O94 Tb82 2.374 . S
O94 C89 1.250 . S
O95 Tb80 2.353 . S
O95 C89 1.263 . S
C96 O97 1.275 . S
C96 O98 1.246 . S
O97 Tb80 2.427 . S
O97 C96 1.275 . S
O98 Tb80 2.513 . S
O98 C96 1.246 . S
C99 O83 1.245 . S
C99 O84 1.259 . S
Tb100 O103 2.472 . S
Tb100 O104 2.605 . S
Tb100 O105 2.376 . S
Tb100 O113 2.329 1_545 S
Tb100 O115 2.351 . S
Tb100 O117 2.412 1_545 S
Tb100 O118 2.499 1_545 S
C101 O105 1.251 . S
C101 O107 1.263 . S
Tb102 O104 2.343 . S
Tb102 O107 2.353 . S
Tb102 O110 2.427 . S
Tb102 O111 2.513 . S
Tb102 O112 2.453 1_545 S
Tb102 O113 2.596 1_545 S
Tb102 O114 2.374 . S
O103 Tb100 2.472 . S
O103 C119 1.245 . S
O104 Tb100 2.605 . S
O104 Tb102 2.343 . S
O104 C119 1.259 . S
O105 Tb100 2.376 . S
O105 C101 1.251 . S
C106 O110 1.275 . S
C106 O111 1.246 . S
O107 C101 1.263 . S
O107 Tb102 2.353 . S
C108 O112 1.245 . S
C108 O113 1.259 . S
C109 O114 1.250 . S
C109 O115 1.263 . S
O110 Tb102 2.427 . S
O110 C106 1.275 . S
O111 Tb102 2.513 . S
O111 C106 1.246 . S
O112 Tb102 2.453 1_565 S
O112 C108 1.245 . S
O113 Tb100 2.329 1_565 S
O113 Tb102 2.596 1_565 S
O113 C108 1.259 . S
O114 Tb102 2.374 . S
O114 C109 1.250 . S
O115 Tb100 2.351 . S
O115 C109 1.263 . S
C116 O117 1.275 . S
C116 O118 1.246 . S
O117 Tb100 2.412 1_565 S
O117 C116 1.275 . S
O118 Tb100 2.499 1_565 S
O118 C116 1.246 . S
C119 O103 1.245 . S
C119 O104 1.259 . S
Tb120 O123 2.453 . S
Tb120 O124 2.596 . S
Tb120 O125 2.374 . S
Tb120 O133 2.343 . S
Tb120 O135 2.353 . S
Tb120 O137 2.427 . S
Tb120 O138 2.513 . S
C121 O125 1.251 . S
C121 O127 1.263 . S
Tb122 O124 2.343 . S
Tb122 O127 2.353 . S
Tb122 O130 2.427 . S
Tb122 O131 2.513 . S
Tb122 O132 2.453 . S
Tb122 O133 2.596 . S
Tb122 O134 2.374 . S
O123 Tb120 2.453 . S
O123 C139 1.245 . S
O124 Tb120 2.596 . S
O124 Tb122 2.343 . S
O124 C139 1.259 . S
O125 Tb120 2.374 . S
O125 C121 1.251 . S
C126 O130 1.275 . S
C126 O131 1.246 . S
O127 C121 1.263 . S
O127 Tb122 2.353 . S
C128 O132 1.245 . S
C128 O133 1.259 . S
C129 O134 1.250 . S
C129 O135 1.263 . S
O130 Tb122 2.427 . S
O130 C126 1.275 . S
O131 Tb122 2.513 . S
O131 C126 1.246 . S
O132 Tb122 2.453 . S
O132 C128 1.245 . S
O133 Tb120 2.343 . S
O133 Tb122 2.596 . S
O133 C128 1.259 . S
O134 Tb122 2.374 . S
O134 C129 1.250 . S
O135 Tb120 2.353 . S
O135 C129 1.263 . S
C136 O137 1.275 . S
C136 O138 1.246 . S
O137 Tb120 2.427 . S
O137 C136 1.275 . S
O138 Tb120 2.513 . S
O138 C136 1.246 . S
C139 O123 1.245 . S
C139 O124 1.259 . S
Tb140 O143 2.453 . S
Tb140 O144 2.596 . S
Tb140 O145 2.374 . S
Tb140 O153 2.343 . S
Tb140 O155 2.353 . S
Tb140 O157 2.427 . S
Tb140 O158 2.513 . S
C141 O145 1.251 . S
C141 O147 1.263 . S
Tb142 O144 2.343 . S
Tb142 O147 2.353 . S
Tb142 O150 2.427 . S
Tb142 O151 2.513 . S
Tb142 O152 2.453 . S
Tb142 O153 2.596 . S
Tb142 O154 2.374 . S
O143 Tb140 2.453 . S
O143 C159 1.245 . S
O144 Tb140 2.596 . S
O144 Tb142 2.343 . S
O144 C159 1.259 . S
O145 Tb140 2.374 . S
O145 C141 1.251 . S
C146 O150 1.275 . S
C146 O151 1.246 . S
O147 C141 1.263 . S
O147 Tb142 2.353 . S
C148 O152 1.245 . S
C148 O153 1.259 . S
C149 O154 1.250 . S
C149 O155 1.263 . S
O150 Tb142 2.427 . S
O150 C146 1.275 . S
O151 Tb142 2.513 . S
O151 C146 1.246 . S
O152 Tb142 2.453 . S
O152 C148 1.245 . S
O153 Tb140 2.343 . S
O153 Tb142 2.596 . S
O153 C148 1.259 . S
O154 Tb142 2.374 . S
O154 C149 1.250 . S
O155 Tb140 2.353 . S
O155 C149 1.263 . S
C156 O157 1.275 . S
C156 O158 1.246 . S
O157 Tb140 2.427 . S
O157 C156 1.275 . S
O158 Tb140 2.513 . S
O158 C156 1.246 . S
C159 O143 1.245 . S
C159 O144 1.259 . S
Tb160 O163 2.453 . S
Tb160 O164 2.596 . S
Tb160 O165 2.374 . S
Tb160 O173 2.343 . S
Tb160 O175 2.353 . S
Tb160 O177 2.427 . S
Tb160 O178 2.513 . S
C161 O165 1.251 . S
C161 O167 1.263 . S
Tb162 O164 2.343 . S
Tb162 O167 2.353 . S
Tb162 O170 2.427 . S
Tb162 O171 2.513 . S
Tb162 O172 2.453 . S
Tb162 O173 2.596 . S
Tb162 O174 2.374 . S
O163 Tb160 2.453 . S
O163 C179 1.245 . S
O164 Tb160 2.596 . S
O164 Tb162 2.343 . S
O164 C179 1.259 . S
O165 Tb160 2.374 . S
O165 C161 1.251 . S
C166 O170 1.275 . S
C166 O171 1.246 . S
O167 C161 1.263 . S
O167 Tb162 2.353 . S
C168 O172 1.245 . S
C168 O173 1.259 . S
C169 O174 1.250 . S
C169 O175 1.263 . S
O170 Tb162 2.427 . S
O170 C166 1.275 . S
O171 Tb162 2.513 . S
O171 C166 1.246 . S
O172 Tb162 2.453 . S
O172 C168 1.245 . S
O173 Tb160 2.343 . S
O173 Tb162 2.596 . S
O173 C168 1.259 . S
O174 Tb162 2.374 . S
O174 C169 1.250 . S
O175 Tb160 2.353 . S
O175 C169 1.263 . S
C176 O177 1.275 . S
C176 O178 1.246 . S
O177 Tb160 2.427 . S
O177 C176 1.275 . S
O178 Tb160 2.513 . S
O178 C176 1.246 . S
C179 O163 1.245 . S
C179 O164 1.259 . S
Tb180 O183 2.453 . S
Tb180 O184 2.596 . S
Tb180 O185 2.374 . S
Tb180 O193 2.343 . S
Tb180 O195 2.353 . S
Tb180 O197 2.427 . S
Tb180 O198 2.513 . S
C181 O185 1.251 . S
C181 O187 1.263 . S
Tb182 O184 2.343 . S
Tb182 O187 2.353 . S
Tb182 O190 2.427 . S
Tb182 O191 2.513 . S
Tb182 O192 2.453 . S
Tb182 O193 2.596 . S
Tb182 O194 2.374 . S
O183 Tb180 2.453 . S
O183 C199 1.245 . S
O184 Tb180 2.596 . S
O184 Tb182 2.343 . S
O184 C199 1.259 . S
O185 Tb180 2.374 . S
O185 C181 1.251 . S
C186 O190 1.275 . S
C186 O191 1.246 . S
O187 C181 1.263 . S
O187 Tb182 2.353 . S
C188 O192 1.245 . S
C188 O193 1.259 . S
C189 O194 1.250 . S
C189 O195 1.263 . S
O190 Tb182 2.427 . S
O190 C186 1.275 . S
O191 Tb182 2.513 . S
O191 C186 1.246 . S
O192 Tb182 2.453 . S
O192 C188 1.245 . S
O193 Tb180 2.343 . S
O193 Tb182 2.596 . S
O193 C188 1.259 . S
O194 Tb182 2.374 . S
O194 C189 1.250 . S
O195 Tb180 2.353 . S
O195 C189 1.263 . S
C196 O197 1.275 . S
C196 O198 1.246 . S
O197 Tb180 2.427 . S
O197 C196 1.275 . S
O198 Tb180 2.513 . S
O198 C196 1.246 . S
C199 O183 1.245 . S
C199 O184 1.259 . S
Tb200 O203 2.453 . S
Tb200 O204 2.596 . S
Tb200 O205 2.374 . S
Tb200 O213 2.343 . S
Tb200 O215 2.353 . S
Tb200 O217 2.427 . S
Tb200 O218 2.513 . S
C201 O205 1.251 . S
C201 O207 1.263 . S
Tb202 O204 2.343 . S
Tb202 O207 2.353 . S
Tb202 O210 2.427 . S
Tb202 O211 2.513 . S
Tb202 O212 2.453 . S
Tb202 O213 2.596 . S
Tb202 O214 2.374 . S
O203 Tb200 2.453 . S
O203 C219 1.245 . S
O204 Tb200 2.596 . S
O204 Tb202 2.343 . S
O204 C219 1.259 . S
O205 Tb200 2.374 . S
O205 C201 1.251 . S
C206 O210 1.275 . S
C206 O211 1.246 . S
O207 C201 1.263 . S
O207 Tb202 2.353 . S
C208 O212 1.245 . S
C208 O213 1.259 . S
C209 O214 1.250 . S
C209 O215 1.263 . S
O210 Tb202 2.427 . S
O210 C206 1.275 . S
O211 Tb202 2.513 . S
O211 C206 1.246 . S
O212 Tb202 2.453 . S
O212 C208 1.245 . S
O213 Tb200 2.343 . S
O213 Tb202 2.596 . S
O213 C208 1.259 . S
O214 Tb202 2.374 . S
O214 C209 1.250 . S
O215 Tb200 2.353 . S
O215 C209 1.263 . S
C216 O217 1.275 1_545 S
C216 O218 1.246 1_545 S
O217 Tb200 2.427 . S
O217 C216 1.275 1_565 S
O218 Tb200 2.513 . S
O218 C216 1.246 1_565 S
C219 O203 1.245 . S
C219 O204 1.259 . S
Tb220 O223 2.453 . S
Tb220 O224 2.596 . S
Tb220 O225 2.374 . S
Tb220 O233 2.343 . S
Tb220 O235 2.353 . S
Tb220 O237 2.427 . S
Tb220 O238 2.513 . S
C221 O225 1.251 . S
C221 O227 1.263 . S
Tb222 O224 2.343 . S
Tb222 O227 2.353 . S
Tb222 O230 2.427 . S
Tb222 O231 2.513 . S
Tb222 O232 2.453 . S
Tb222 O233 2.596 . S
Tb222 O234 2.374 . S
O223 Tb220 2.453 . S
O223 C239 1.245 . S
O224 Tb220 2.596 . S
O224 Tb222 2.343 . S
O224 C239 1.259 . S
O225 Tb220 2.374 . S
O225 C221 1.251 . S
C226 O230 1.275 . S
C226 O231 1.246 . S
O227 C221 1.263 . S
O227 Tb222 2.353 . S
C228 O232 1.245 . S
C228 O233 1.259 . S
C229 O234 1.250 . S
C229 O235 1.263 . S
O230 Tb222 2.427 . S
O230 C226 1.275 . S
O231 Tb222 2.513 . S
O231 C226 1.246 . S
O232 Tb222 2.453 . S
O232 C228 1.245 . S
O233 Tb220 2.343 . S
O233 Tb222 2.596 . S
O233 C228 1.259 . S
O234 Tb222 2.374 . S
O234 C229 1.250 . S
O235 Tb220 2.353 . S
O235 C229 1.263 . S
C236 O237 1.275 . S
C236 O238 1.246 . S
O237 Tb220 2.427 . S
O237 C236 1.275 . S
O238 Tb220 2.513 . S
O238 C236 1.246 . S
C239 O223 1.245 . S
C239 O224 1.259 . S
Tb240 O243 2.453 . S
Tb240 O244 2.596 . S
Tb240 O245 2.374 . S
Tb240 O253 2.343 . S
Tb240 O255 2.353 . S
Tb240 O257 2.427 . S
Tb240 O258 2.513 . S
C241 O245 1.251 . S
C241 O247 1.263 . S
Tb242 O244 2.343 . S
Tb242 O247 2.353 . S
Tb242 O250 2.427 . S
Tb242 O251 2.513 . S
Tb242 O252 2.453 . S
Tb242 O253 2.596 . S
Tb242 O254 2.374 . S
O243 Tb240 2.453 . S
O243 C259 1.245 . S
O244 Tb240 2.596 . S
O244 Tb242 2.343 . S
O244 C259 1.259 . S
O245 Tb240 2.374 . S
O245 C241 1.251 . S
C246 O250 1.275 . S
C246 O251 1.246 . S
O247 C241 1.263 . S
O247 Tb242 2.353 . S
C248 O252 1.245 . S
C248 O253 1.259 . S
C249 O254 1.250 . S
C249 O255 1.263 . S
O250 Tb242 2.427 . S
O250 C246 1.275 . S
O251 Tb242 2.513 . S
O251 C246 1.246 . S
O252 Tb242 2.453 . S
O252 C248 1.245 . S
O253 Tb240 2.343 . S
O253 Tb242 2.596 . S
O253 C248 1.259 . S
O254 Tb242 2.374 . S
O254 C249 1.250 . S
O255 Tb240 2.353 . S
O255 C249 1.263 . S
C256 O257 1.275 . S
C256 O258 1.246 . S
O257 Tb240 2.427 . S
O257 C256 1.275 . S
O258 Tb240 2.513 . S
O258 C256 1.246 . S
C259 O243 1.245 . S
C259 O244 1.259 . S
Tb260 O263 2.453 . S
Tb260 O264 2.596 . S
Tb260 O265 2.374 . S
Tb260 O273 2.343 . S
Tb260 O275 2.353 . S
Tb260 O277 2.427 . S
Tb260 O278 2.513 . S
C261 O265 1.251 . S
C261 O267 1.263 . S
Tb262 O264 2.343 . S
Tb262 O267 2.353 . S
Tb262 O270 2.427 . S
Tb262 O271 2.513 . S
Tb262 O272 2.453 . S
Tb262 O273 2.596 . S
Tb262 O274 2.374 . S
O263 Tb260 2.453 . S
O263 C279 1.245 . S
O264 Tb260 2.596 . S
O264 Tb262 2.343 . S
O264 C279 1.259 . S
O265 Tb260 2.374 . S
O265 C261 1.251 . S
C266 O270 1.275 . S
C266 O271 1.246 . S
O267 C261 1.263 . S
O267 Tb262 2.353 . S
C268 O272 1.245 . S
C268 O273 1.259 . S
C269 O274 1.250 . S
C269 O275 1.263 . S
O270 Tb262 2.427 . S
O270 C266 1.275 . S
O271 Tb262 2.513 . S
O271 C266 1.246 . S
O272 Tb262 2.453 . S
O272 C268 1.245 . S
O273 Tb260 2.343 . S
O273 Tb262 2.596 . S
O273 C268 1.259 . S
O274 Tb262 2.374 . S
O274 C269 1.250 . S
O275 Tb260 2.353 . S
O275 C269 1.263 . S
C276 O277 1.275 . S
C276 O278 1.246 . S
O277 Tb260 2.427 . S
O277 C276 1.275 . S
O278 Tb260 2.513 . S
O278 C276 1.246 . S
C279 O263 1.245 . S
C279 O264 1.259 . S
Tb280 O283 2.453 . S
Tb280 O284 2.596 . S
Tb280 O285 2.374 . S
Tb280 O293 2.343 . S
Tb280 O295 2.353 . S
Tb280 O297 2.427 . S
Tb280 O298 2.513 . S
C281 O285 1.251 . S
C281 O287 1.263 . S
Tb282 O284 2.343 . S
Tb282 O287 2.353 . S
Tb282 O290 2.427 . S
Tb282 O291 2.513 . S
Tb282 O292 2.453 . S
Tb282 O293 2.596 . S
Tb282 O294 2.374 . S
O283 Tb280 2.453 . S
O283 C299 1.245 . S
O284 Tb280 2.596 . S
O284 Tb282 2.343 . S
O284 C299 1.259 . S
O285 Tb280 2.374 . S
O285 C281 1.251 . S
C286 O290 1.275 . S
C286 O291 1.246 . S
O287 C281 1.263 . S
O287 Tb282 2.353 . S
C288 O292 1.245 . S
C288 O293 1.259 . S
C289 O294 1.250 . S
C289 O295 1.263 . S
O290 Tb282 2.427 . S
O290 C286 1.275 . S
O291 Tb282 2.513 . S
O291 C286 1.246 . S
O292 Tb282 2.453 . S
O292 C288 1.245 . S
O293 Tb280 2.343 . S
O293 Tb282 2.596 . S
O293 C288 1.259 . S
O294 Tb282 2.374 . S
O294 C289 1.250 . S
O295 Tb280 2.353 . S
O295 C289 1.263 . S
C296 O297 1.275 1_455 S
C296 O298 1.246 1_455 S
O297 Tb280 2.427 . S
O297 C296 1.275 1_655 S
O298 Tb280 2.513 . S
O298 C296 1.246 1_655 S
C299 O283 1.245 . S
C299 O284 1.259 . S
Tb300 O303 2.453 . S
Tb300 O304 2.596 . S
Tb300 O305 2.374 . S
Tb300 O313 2.343 . S
Tb300 O315 2.353 . S
Tb300 O317 2.427 . S
Tb300 O318 2.513 . S
C301 O305 1.251 . S
C301 O307 1.263 . S
Tb302 O304 2.343 . S
Tb302 O307 2.353 . S
Tb302 O310 2.427 . S
Tb302 O311 2.513 . S
Tb302 O312 2.453 . S
Tb302 O313 2.596 . S
Tb302 O314 2.374 . S
O303 Tb300 2.453 . S
O303 C319 1.245 . S
O304 Tb300 2.596 . S
O304 Tb302 2.343 . S
O304 C319 1.259 . S
O305 Tb300 2.374 . S
O305 C301 1.251 . S
C306 O310 1.275 . S
C306 O311 1.246 . S
O307 C301 1.263 . S
O307 Tb302 2.353 . S
C308 O312 1.245 . S
C308 O313 1.259 . S
C309 O314 1.250 . S
C309 O315 1.263 . S
O310 Tb302 2.427 . S
O310 C306 1.275 . S
O311 Tb302 2.513 . S
O311 C306 1.246 . S
O312 Tb302 2.453 . S
O312 C308 1.245 . S
O313 Tb300 2.343 . S
O313 Tb302 2.596 . S
O313 C308 1.259 . S
O314 Tb302 2.374 . S
O314 C309 1.250 . S
O315 Tb300 2.353 . S
O315 C309 1.263 . S
C316 O317 1.275 . S
C316 O318 1.246 . S
O317 Tb300 2.427 . S
O317 C316 1.275 . S
O318 Tb300 2.513 . S
O318 C316 1.246 . S
C319 O303 1.245 . S
C319 O304 1.259 . S
Tb320 O323 2.453 . S
Tb320 O324 2.596 . S
Tb320 O325 2.374 . S
Tb320 O333 2.343 . S
Tb320 O335 2.353 . S
Tb320 O337 2.427 . S
Tb320 O338 2.513 . S
C321 O325 1.251 . S
C321 O327 1.263 . S
Tb322 O324 2.343 . S
Tb322 O327 2.353 . S
Tb322 O330 2.427 . S
Tb322 O331 2.513 . S
Tb322 O332 2.453 . S
Tb322 O333 2.596 . S
Tb322 O334 2.374 . S
O323 Tb320 2.453 . S
O323 C339 1.245 . S
O324 Tb320 2.596 . S
O324 Tb322 2.343 . S
O324 C339 1.259 . S
O325 Tb320 2.374 . S
O325 C321 1.251 . S
C326 O330 1.275 . S
C326 O331 1.246 . S
O327 C321 1.263 . S
O327 Tb322 2.353 . S
C328 O332 1.245 . S
C328 O333 1.259 . S
C329 O334 1.250 . S
C329 O335 1.263 . S
O330 Tb322 2.427 . S
O330 C326 1.275 . S
O331 Tb322 2.513 . S
O331 C326 1.246 . S
O332 Tb322 2.453 . S
O332 C328 1.245 . S
O333 Tb320 2.343 . S
O333 Tb322 2.596 . S
O333 C328 1.259 . S
O334 Tb322 2.374 . S
O334 C329 1.250 . S
O335 Tb320 2.353 . S
O335 C329 1.263 . S
C336 O337 1.275 . S
C336 O338 1.246 . S
O337 Tb320 2.427 . S
O337 C336 1.275 . S
O338 Tb320 2.513 . S
O338 C336 1.246 . S
C339 O323 1.245 . S
C339 O324 1.259 . S
Tb340 O343 2.453 . S
Tb340 O344 2.596 . S
Tb340 O345 2.374 . S
Tb340 O353 2.343 . S
Tb340 O355 2.353 . S
Tb340 O357 2.427 . S
Tb340 O358 2.513 . S
C341 O345 1.251 . S
C341 O347 1.263 . S
Tb342 O344 2.343 . S
Tb342 O347 2.353 . S
Tb342 O350 2.427 . S
Tb342 O351 2.513 . S
Tb342 O352 2.453 . S
Tb342 O353 2.596 . S
Tb342 O354 2.374 . S
O343 Tb340 2.453 . S
O343 C359 1.245 . S
O344 Tb340 2.596 . S
O344 Tb342 2.343 . S
O344 C359 1.259 . S
O345 Tb340 2.374 . S
O345 C341 1.251 . S
C346 O350 1.275 . S
C346 O351 1.246 . S
O347 C341 1.263 . S
O347 Tb342 2.353 . S
C348 O352 1.245 . S
C348 O353 1.259 . S
C349 O354 1.250 . S
C349 O355 1.263 . S
O350 Tb342 2.427 . S
O350 C346 1.275 . S
O351 Tb342 2.513 . S
O351 C346 1.246 . S
O352 Tb342 2.453 . S
O352 C348 1.245 . S
O353 Tb340 2.343 . S
O353 Tb342 2.596 . S
O353 C348 1.259 . S
O354 Tb342 2.374 . S
O354 C349 1.250 . S
O355 Tb340 2.353 . S
O355 C349 1.263 . S
C356 O357 1.275 . S
C356 O358 1.246 . S
O357 Tb340 2.427 . S
O357 C356 1.275 . S
O358 Tb340 2.513 . S
O358 C356 1.246 . S
C359 O343 1.245 . S
C359 O344 1.259 . S
H360 C366 0.930 . S
H361 C369 0.930 . S
H362 C370 0.930 . S
H363 C371 0.930 . S
H364 C374 0.930 . S
H365 C375 0.930 . S
C366 H360 0.930 . S
C366 C367 1.355 . S
C366 C368 1.415 . S
C367 C366 1.355 . S
C367 C369 1.419 . S
C368 C366 1.415 . S
C368 C373 1.425 . S
C368 C375 1.409 . S
C369 H361 0.930 . S
C369 C367 1.419 . S
C369 C370 1.362 . S
C370 H362 0.930 . S
C370 C369 1.362 . S
C370 C373 1.409 . S
C371 H363 0.930 . S
C371 C372 1.355 . S
C371 C373 1.415 . S
C372 C371 1.355 . S
C372 C374 1.419 . S
C373 C368 1.425 . S
C373 C370 1.409 . S
C373 C371 1.415 . S
C374 H364 0.930 . S
C374 C372 1.419 . S
C374 C375 1.362 . S
C375 H365 0.930 . S
C375 C368 1.409 . S
C375 C374 1.362 . S
H376 C382 0.930 . S
H377 C385 0.930 . S
H378 C386 0.930 . S
H379 C387 0.930 . S
H380 C390 0.930 . S
H381 C391 0.930 . S
C382 H376 0.930 . S
C382 C383 1.355 . S
C382 C384 1.415 . S
C383 C382 1.355 . S
C383 C385 1.419 . S
C384 C382 1.415 . S
C384 C389 1.425 . S
C384 C391 1.409 . S
C385 H377 0.930 . S
C385 C383 1.419 . S
C385 C386 1.362 . S
C386 H378 0.930 . S
C386 C385 1.362 . S
C386 C389 1.409 . S
C387 H379 0.930 . S
C387 C388 1.355 . S
C387 C389 1.415 . S
C388 C387 1.355 . S
C388 C390 1.419 . S
C389 C384 1.425 . S
C389 C386 1.409 . S
C389 C387 1.415 . S
C390 H380 0.930 . S
C390 C388 1.419 . S
C390 C391 1.362 . S
C391 H381 0.930 . S
C391 C384 1.409 . S
C391 C390 1.362 . S
H392 C398 0.930 . S
H393 C401 0.930 . S
H394 C402 0.930 . S
H395 C403 0.930 . S
H396 C406 0.930 . S
H397 C407 0.930 . S
C398 H392 0.930 . S
C398 C399 1.355 . S
C398 C400 1.415 . S
C399 C398 1.355 . S
C399 C401 1.419 . S
C400 C398 1.415 . S
C400 C405 1.425 . S
C400 C407 1.409 . S
C401 H393 0.930 . S
C401 C399 1.419 . S
C401 C402 1.362 . S
C402 H394 0.930 . S
C402 C401 1.362 . S
C402 C405 1.409 . S
C403 H395 0.930 . S
C403 C404 1.355 . S
C403 C405 1.415 . S
C404 C403 1.355 . S
C404 C406 1.419 . S
C405 C400 1.425 . S
C405 C402 1.409 . S
C405 C403 1.415 . S
C406 H396 0.930 . S
C406 C404 1.419 . S
C406 C407 1.362 . S
C407 H397 0.930 . S
C407 C400 1.409 . S
C407 C406 1.362 . S
H408 C414 0.930 . S
H409 C417 0.930 . S
H410 C418 0.930 . S
H411 C419 0.930 . S
H412 C422 0.930 . S
H413 C423 0.930 . S
C414 H408 0.930 . S
C414 C415 1.355 . S
C414 C416 1.415 . S
C415 C414 1.355 . S
C415 C417 1.419 . S
C416 C414 1.415 . S
C416 C421 1.425 . S
C416 C423 1.409 . S
C417 H409 0.930 . S
C417 C415 1.419 . S
C417 C418 1.362 . S
C418 H410 0.930 . S
C418 C417 1.362 . S
C418 C421 1.409 . S
C419 H411 0.930 . S
C419 C420 1.355 . S
C419 C421 1.415 . S
C420 C419 1.355 . S
C420 C422 1.419 . S
C421 C416 1.425 . S
C421 C418 1.409 . S
C421 C419 1.415 . S
C422 H412 0.930 . S
C422 C420 1.419 . S
C422 C423 1.362 . S
C423 H413 0.930 . S
C423 C416 1.409 . S
C423 C422 1.362 . S
H424 C430 0.930 . S
H425 C433 0.930 . S
H426 C434 0.930 . S
H427 C435 0.930 . S
H428 C438 0.930 . S
H429 C439 0.930 . S
C430 H424 0.930 . S
C430 C431 1.355 . S
C430 C432 1.415 . S
C431 C430 1.355 . S
C431 C433 1.419 . S
C432 C430 1.415 . S
C432 C437 1.425 . S
C432 C439 1.409 . S
C433 H425 0.930 . S
C433 C431 1.419 . S
C433 C434 1.362 . S
C434 H426 0.930 . S
C434 C433 1.362 . S
C434 C437 1.409 . S
C435 H427 0.930 . S
C435 C436 1.355 . S
C435 C437 1.415 . S
C436 C435 1.355 . S
C436 C438 1.419 . S
C437 C432 1.425 . S
C437 C434 1.409 . S
C437 C435 1.415 . S
C438 H428 0.930 . S
C438 C436 1.419 . S
C438 C439 1.362 . S
C439 H429 0.930 . S
C439 C432 1.409 . S
C439 C438 1.362 . S
H440 C446 0.930 . S
H441 C449 0.930 . S
H442 C450 0.930 . S
H443 C451 0.930 . S
H444 C454 0.930 . S
H445 C455 0.930 . S
C446 H440 0.930 . S
C446 C447 1.355 . S
C446 C448 1.415 . S
C447 C446 1.355 . S
C447 C449 1.419 . S
C448 C446 1.415 . S
C448 C453 1.425 . S
C448 C455 1.409 . S
C449 H441 0.930 . S
C449 C447 1.419 . S
C449 C450 1.362 . S
C450 H442 0.930 . S
C450 C449 1.362 . S
C450 C453 1.409 . S
C451 H443 0.930 . S
C451 C452 1.355 . S
C451 C453 1.415 . S
C452 C451 1.355 . S
C452 C454 1.419 . S
C453 C448 1.425 . S
C453 C450 1.409 . S
C453 C451 1.415 . S
C454 H444 0.930 . S
C454 C452 1.419 . S
C454 C455 1.362 . S
C455 H445 0.930 . S
C455 C448 1.409 . S
C455 C454 1.362 . S
H456 C462 0.930 . S
H457 C465 0.930 . S
H458 C466 0.930 . S
H459 C467 0.930 . S
H460 C470 0.930 . S
H461 C471 0.930 . S
C462 H456 0.930 . S
C462 C463 1.355 1_545 S
C462 C464 1.415 . S
C463 C462 1.355 1_565 S
C463 C465 1.419 . S
C464 C462 1.415 . S
C464 C469 1.425 . S
C464 C471 1.409 . S
C465 H457 0.930 . S
C465 C463 1.419 . S
C465 C466 1.362 1_565 S
C466 H458 0.930 . S
C466 C465 1.362 1_545 S
C466 C469 1.409 . S
C467 H459 0.930 . S
C467 C468 1.355 . S
C467 C469 1.415 . S
C468 C467 1.355 . S
C468 C470 1.419 . S
C469 C464 1.425 . S
C469 C466 1.409 . S
C469 C467 1.415 . S
C470 H460 0.930 . S
C470 C468 1.419 . S
C470 C471 1.362 . S
C471 H461 0.930 . S
C471 C464 1.409 . S
C471 C470 1.362 . S
H472 C478 0.930 . S
H473 C481 0.930 . S
H474 C482 0.930 . S
H475 C483 0.930 . S
H476 C486 0.930 . S
H477 C487 0.930 . S
C478 H472 0.930 . S
C478 C479 1.355 1_655 S
C478 C480 1.415 . S
C479 C478 1.355 1_455 S
C479 C481 1.419 . S
C480 C478 1.415 . S
C480 C485 1.425 . S
C480 C487 1.409 . S
C481 H473 0.930 . S
C481 C479 1.419 . S
C481 C482 1.362 . S
C482 H474 0.930 . S
C482 C481 1.362 . S
C482 C485 1.409 1_455 S
C483 H475 0.930 . S
C483 C484 1.355 . S
C483 C485 1.415 . S
C484 C483 1.355 . S
C484 C486 1.419 . S
C485 C480 1.425 . S
C485 C482 1.409 1_655 S
C485 C483 1.415 . S
C486 H476 0.930 . S
C486 C484 1.419 . S
C486 C487 1.362 . S
C487 H477 0.930 . S
C487 C480 1.409 . S
C487 C486 1.362 . S
H488 C494 0.930 1_455 S
H489 C497 0.930 . S
H490 C498 0.930 . S
H491 C499 0.930 . S
H492 C502 0.930 . S
H493 C503 0.930 . S
C494 H488 0.930 1_655 S
C494 C495 1.355 1_655 S
C494 C496 1.415 . S
C495 C494 1.355 1_455 S
C495 C497 1.419 1_455 S
C496 C494 1.415 . S
C496 C501 1.425 . S
C496 C503 1.409 . S
C497 H489 0.930 . S
C497 C495 1.419 1_655 S
C497 C498 1.362 . S
C498 H490 0.930 . S
C498 C497 1.362 . S
C498 C501 1.409 . S
C499 H491 0.930 . S
C499 C500 1.355 . S
C499 C501 1.415 . S
C500 C499 1.355 . S
C500 C502 1.419 . S
C501 C496 1.425 . S
C501 C498 1.409 . S
C501 C499 1.415 . S
C502 H492 0.930 . S
C502 C500 1.419 . S
C502 C503 1.362 . S
C503 H493 0.930 . S
C503 C496 1.409 . S
C503 C502 1.362 . S
H504 C510 0.930 . S
H505 C513 0.930 . S
H506 C514 0.930 . S
H507 C515 0.930 . S
H508 C518 0.930 . S
H509 C519 0.930 . S
C510 H504 0.930 . S
C510 C511 1.355 . S
C510 C512 1.415 . S
C511 C510 1.355 . S
C511 C513 1.419 . S
C512 C510 1.415 . S
C512 C517 1.425 . S
C512 C519 1.409 . S
C513 H505 0.930 . S
C513 C511 1.419 . S
C513 C514 1.362 . S
C514 H506 0.930 . S
C514 C513 1.362 . S
C514 C517 1.409 . S
C515 H507 0.930 . S
C515 C516 1.355 . S
C515 C517 1.415 . S
C516 C515 1.355 . S
C516 C518 1.419 . S
C517 C512 1.425 . S
C517 C514 1.409 . S
C517 C515 1.415 . S
C518 H508 0.930 . S
C518 C516 1.419 . S
C518 C519 1.362 . S
C519 H509 0.930 . S
C519 C512 1.409 . S
C519 C518 1.362 . S
H520 C526 0.930 . S
H521 C529 0.930 . S
H522 C530 0.930 . S
H523 C531 0.930 . S
H524 C534 0.930 . S
H525 C535 0.930 . S
C526 H520 0.930 . S
C526 C527 1.355 . S
C526 C528 1.415 . S
C527 C526 1.355 . S
C527 C529 1.419 . S
C528 C526 1.415 . S
C528 C533 1.425 . S
C528 C535 1.409 . S
C529 H521 0.930 . S
C529 C527 1.419 . S
C529 C530 1.362 . S
C530 H522 0.930 . S
C530 C529 1.362 . S
C530 C533 1.409 . S
C531 H523 0.930 . S
C531 C532 1.355 . S
C531 C533 1.415 . S
C532 C531 1.355 . S
C532 C534 1.419 . S
C533 C528 1.425 . S
C533 C530 1.409 . S
C533 C531 1.415 . S
C534 H524 0.930 . S
C534 C532 1.419 . S
C534 C535 1.362 . S
C535 H525 0.930 . S
C535 C528 1.409 . S
C535 C534 1.362 . S
H536 C542 0.930 . S
H537 C545 0.930 . S
H538 C546 0.930 . S
H539 C547 0.930 . S
H540 C550 0.930 . S
H541 C551 0.930 . S
C542 H536 0.930 . S
C542 C543 1.355 . S
C542 C544 1.415 . S
C543 C542 1.355 . S
C543 C545 1.419 . S
C544 C542 1.415 . S
C544 C549 1.425 . S
C544 C551 1.409 . S
C545 H537 0.930 . S
C545 C543 1.419 . S
C545 C546 1.362 . S
C546 H538 0.930 . S
C546 C545 1.362 . S
C546 C549 1.409 . S
C547 H539 0.930 . S
C547 C548 1.355 . S
C547 C549 1.415 . S
C548 C547 1.355 . S
C548 C550 1.419 . S
C549 C544 1.425 . S
C549 C546 1.409 . S
C549 C547 1.415 . S
C550 H540 0.930 . S
C550 C548 1.419 . S
C550 C551 1.362 . S
C551 H541 0.930 . S
C551 C544 1.409 . S
C551 C550 1.362 . S
H552 C558 0.930 . S
H553 C561 0.930 . S
H554 C562 0.930 . S
H555 C563 0.930 . S
H556 C566 0.930 . S
H557 C567 0.930 . S
C558 H552 0.930 . S
C558 C559 1.355 . S
C558 C560 1.415 . S
C559 C558 1.355 . S
C559 C561 1.419 . S
C560 C558 1.415 . S
C560 C565 1.425 . S
C560 C567 1.409 . S
C561 H553 0.930 . S
C561 C559 1.419 . S
C561 C562 1.362 . S
C562 H554 0.930 . S
C562 C561 1.362 . S
C562 C565 1.409 . S
C563 H555 0.930 . S
C563 C564 1.355 . S
C563 C565 1.415 . S
C564 C563 1.355 . S
C564 C566 1.419 . S
C565 C560 1.425 . S
C565 C562 1.409 . S
C565 C563 1.415 . S
C566 H556 0.930 . S
C566 C564 1.419 . S
C566 C567 1.362 . S
C567 H557 0.930 . S
C567 C560 1.409 . S
C567 C566 1.362 . S
H568 C574 0.930 . S
H569 C577 0.930 . S
H570 C578 0.930 . S
H571 C579 0.930 . S
H572 C582 0.930 . S
H573 C583 0.930 . S
C574 H568 0.930 . S
C574 C575 1.355 . S
C574 C576 1.415 . S
C575 C574 1.355 . S
C575 C577 1.419 . S
C576 C574 1.415 . S
C576 C581 1.425 . S
C576 C583 1.409 . S
C577 H569 0.930 . S
C577 C575 1.419 . S
C577 C578 1.362 . S
C578 H570 0.930 . S
C578 C577 1.362 . S
C578 C581 1.409 . S
C579 H571 0.930 . S
C579 C580 1.355 . S
C579 C581 1.415 . S
C580 C579 1.355 . S
C580 C582 1.419 . S
C581 C576 1.425 . S
C581 C578 1.409 . S
C581 C579 1.415 . S
C582 H572 0.930 . S
C582 C580 1.419 . S
C582 C583 1.362 . S
C583 H573 0.930 . S
C583 C576 1.409 . S
C583 C582 1.362 . S
H584 C590 0.930 . S
H585 C593 0.930 . S
H586 C594 0.930 . S
H587 C595 0.930 . S
H588 C598 0.930 . S
H589 C599 0.930 . S
C590 H584 0.930 . S
C590 C591 1.355 . S
C590 C592 1.415 . S
C591 C590 1.355 . S
C591 C593 1.419 . S
C592 C590 1.415 . S
C592 C597 1.425 . S
C592 C599 1.409 . S
C593 H585 0.930 . S
C593 C591 1.419 . S
C593 C594 1.362 . S
C594 H586 0.930 . S
C594 C593 1.362 . S
C594 C597 1.409 . S
C595 H587 0.930 . S
C595 C596 1.355 . S
C595 C597 1.415 . S
C596 C595 1.355 . S
C596 C598 1.419 . S
C597 C592 1.425 . S
C597 C594 1.409 . S
C597 C595 1.415 . S
C598 H588 0.930 . S
C598 C596 1.419 . S
C598 C599 1.362 . S
C599 H589 0.930 . S
C599 C592 1.409 . S
C599 C598 1.362 . S
H600 C606 0.930 1_655 S
H601 C609 0.930 . S
H602 C610 0.930 . S
H603 C611 0.930 . S
H604 C614 0.930 . S
H605 C615 0.930 . S
C606 H600 0.930 1_455 S
C606 C607 1.355 1_455 S
C606 C608 1.415 . S
C607 C606 1.355 1_655 S
C607 C609 1.419 1_655 S
C608 C606 1.415 . S
C608 C613 1.425 . S
C608 C615 1.409 . S
C609 H601 0.930 . S
C609 C607 1.419 1_455 S
C609 C610 1.362 . S
C610 H602 0.930 . S
C610 C609 1.362 . S
C610 C613 1.409 . S
C611 H603 0.930 . S
C611 C612 1.355 . S
C611 C613 1.415 . S
C612 C611 1.355 . S
C612 C614 1.419 . S
C613 C608 1.425 . S
C613 C610 1.409 . S
C613 C611 1.415 . S
C614 H604 0.930 . S
C614 C612 1.419 . S
C614 C615 1.362 . S
C615 H605 0.930 . S
C615 C608 1.409 . S
C615 C614 1.362 . S
H616 C622 0.930 . S
H617 C625 0.930 . S
H618 C626 0.930 . S
H619 C627 0.930 . S
H620 C630 0.930 . S
H621 C631 0.930 . S
C622 H616 0.930 . S
C622 C623 1.355 . S
C622 C624 1.415 . S
C623 C622 1.355 . S
C623 C625 1.419 . S
C624 C622 1.415 . S
C624 C629 1.425 . S
C624 C631 1.409 . S
C625 H617 0.930 . S
C625 C623 1.419 . S
C625 C626 1.362 . S
C626 H618 0.930 . S
C626 C625 1.362 . S
C626 C629 1.409 . S
C627 H619 0.930 . S
C627 C628 1.355 1_565 S
C627 C629 1.415 . S
C628 C627 1.355 1_545 S
C628 C630 1.419 . S
C629 C624 1.425 . S
C629 C626 1.409 . S
C629 C627 1.415 . S
C630 H620 0.930 . S
C630 C628 1.419 . S
C630 C631 1.362 1_545 S
C631 H621 0.930 . S
C631 C624 1.409 . S
C631 C630 1.362 1_565 S
H632 C638 0.930 . S
H633 C641 0.930 . S
H634 C642 0.930 . S
H635 C643 0.930 . S
H636 C646 0.930 1_655 S
H637 C647 0.930 1_545 S
C638 H632 0.930 . S
C638 C639 1.355 . S
C638 C640 1.415 1_545 S
C639 C638 1.355 . S
C639 C641 1.419 1_545 S
C640 C638 1.415 1_565 S
C640 C645 1.425 . S
C640 C647 1.409 . S
C641 H633 0.930 . S
C641 C639 1.419 1_565 S
C641 C642 1.362 . S
C642 H634 0.930 . S
C642 C641 1.362 . S
C642 C645 1.409 . S
C643 H635 0.930 . S
C643 C644 1.355 . S
C643 C645 1.415 . S
C644 C643 1.355 . S
C644 C646 1.419 . S
C645 C640 1.425 . S
C645 C642 1.409 . S
C645 C643 1.415 . S
C646 H636 0.930 1_455 S
C646 C644 1.419 . S
C646 C647 1.362 . S
C647 H637 0.930 1_565 S
C647 C640 1.409 . S
C647 C646 1.362 . S
H648 C654 0.930 1_565 S
H649 C657 0.930 . S
H650 C658 0.930 . S
H651 C659 0.930 . S
H652 C662 0.930 . S
H653 C663 0.930 . S
C654 H648 0.930 1_545 S
C654 C655 1.355 . S
C654 C656 1.415 . S
C655 C654 1.355 . S
C655 C657 1.419 . S
C656 C654 1.415 . S
C656 C661 1.425 1_554 S
C656 C663 1.409 1_544 S
C657 H649 0.930 . S
C657 C655 1.419 . S
C657 C658 1.362 . S
C658 H650 0.930 . S
C658 C657 1.362 . S
C658 C661 1.409 1_554 S
C659 H651 0.930 . S
C659 C660 1.355 . S
C659 C661 1.415 . S
C660 C659 1.355 . S
C660 C662 1.419 1_545 S
C661 C656 1.425 1_556 S
C661 C658 1.409 1_556 S
C661 C659 1.415 . S
C662 H652 0.930 . S
C662 C660 1.419 1_565 S
C662 C663 1.362 . S
C663 H653 0.930 . S
C663 C656 1.409 1_566 S
C663 C662 1.362 . S
H664 C670 0.930 . S
H665 C673 0.930 . S
H666 C674 0.930 . S
H667 C675 0.930 . S
H668 C678 0.930 . S
H669 C679 0.930 . S
C670 H664 0.930 . S
C670 C671 1.355 . S
C670 C672 1.415 . S
C671 C670 1.355 . S
C671 C673 1.419 . S
C672 C670 1.415 . S
C672 C677 1.425 1_556 S
C672 C679 1.409 1_556 S
C673 H665 0.930 . S
C673 C671 1.419 . S
C673 C674 1.362 . S
C674 H666 0.930 . S
C674 C673 1.362 . S
C674 C677 1.409 1_556 S
C675 H667 0.930 . S
C675 C676 1.355 . S
C675 C677 1.415 . S
C676 C675 1.355 . S
C676 C678 1.419 . S
C677 C672 1.425 1_554 S
C677 C674 1.409 1_554 S
C677 C675 1.415 . S
C678 H668 0.930 . S
C678 C676 1.419 . S
C678 C679 1.362 . S
C679 H669 0.930 . S
C679 C672 1.409 1_554 S
C679 C678 1.362 . S
H680 C686 0.930 . S
H681 C689 0.930 . S
H682 C690 0.930 . S
H683 C691 0.930 . S
H684 C694 0.930 . S
H685 C695 0.930 . S
C686 H680 0.930 . S
C686 C687 1.355 . S
C686 C688 1.415 . S
C687 C686 1.355 . S
C687 C689 1.419 . S
C688 C686 1.415 . S
C688 C693 1.425 1_556 S
C688 C695 1.409 1_556 S
C689 H681 0.930 . S
C689 C687 1.419 . S
C689 C690 1.362 . S
C690 H682 0.930 . S
C690 C689 1.362 . S
C690 C693 1.409 1_556 S
C691 H683 0.930 . S
C691 C692 1.355 . S
C691 C693 1.415 . S
C692 C691 1.355 . S
C692 C694 1.419 . S
C693 C688 1.425 1_554 S
C693 C690 1.409 1_554 S
C693 C691 1.415 . S
C694 H684 0.930 . S
C694 C692 1.419 . S
C694 C695 1.362 . S
C695 H685 0.930 . S
C695 C688 1.409 1_554 S
C695 C694 1.362 . S
H696 C702 0.930 . S
H697 C705 0.930 . S
H698 C706 0.930 . S
H699 C707 0.930 . S
H700 C710 0.930 . S
H701 C711 0.930 . S
C702 H696 0.930 . S
C702 C703 1.355 . S
C702 C704 1.415 . S
C703 C702 1.355 . S
C703 C705 1.419 . S
C704 C702 1.415 . S
C704 C709 1.425 . S
C704 C711 1.409 . S
C705 H697 0.930 . S
C705 C703 1.419 . S
C705 C706 1.362 . S
C706 H698 0.930 . S
C706 C705 1.362 . S
C706 C709 1.409 . S
C707 H699 0.930 . S
C707 C708 1.355 . S
C707 C709 1.415 . S
C708 C707 1.355 . S
C708 C710 1.419 . S
C709 C704 1.425 . S
C709 C706 1.409 . S
C709 C707 1.415 . S
C710 H700 0.930 . S
C710 C708 1.419 . S
C710 C711 1.362 . S
C711 H701 0.930 . S
C711 C704 1.409 . S
C711 C710 1.362 . S
H712 C718 0.930 . S
H713 C721 0.930 . S
H714 C722 0.930 . S
H715 C723 0.930 . S
H716 C726 0.930 . S
H717 C727 0.930 . S
C718 H712 0.930 . S
C718 C719 1.355 . S
C718 C720 1.415 . S
C719 C718 1.355 . S
C719 C721 1.419 . S
C720 C718 1.415 . S
C720 C725 1.425 . S
C720 C727 1.409 . S
C721 H713 0.930 . S
C721 C719 1.419 . S
C721 C722 1.362 . S
C722 H714 0.930 . S
C722 C721 1.362 . S
C722 C725 1.409 . S
C723 H715 0.930 . S
C723 C724 1.355 . S
C723 C725 1.415 . S
C724 C723 1.355 . S
C724 C726 1.419 . S
C725 C720 1.425 . S
C725 C722 1.409 . S
C725 C723 1.415 . S
C726 H716 0.930 . S
C726 C724 1.419 . S
C726 C727 1.362 . S
C727 H717 0.930 . S
C727 C720 1.409 . S
C727 C726 1.362 . S
H728 C734 0.930 . S
H729 C737 0.930 . S
H730 C738 0.930 . S
H731 C739 0.930 . S
H732 C742 0.930 . S
H733 C743 0.930 . S
C734 H728 0.930 . S
C734 C735 1.355 . S
C734 C736 1.415 . S
C735 C734 1.355 . S
C735 C737 1.419 . S
C736 C734 1.415 . S
C736 C741 1.425 . S
C736 C743 1.409 . S
C737 H729 0.930 . S
C737 C735 1.419 . S
C737 C738 1.362 . S
C738 H730 0.930 . S
C738 C737 1.362 . S
C738 C741 1.409 . S
C739 H731 0.930 . S
C739 C740 1.355 . S
C739 C741 1.415 . S
C740 C739 1.355 . S
C740 C742 1.419 . S
C741 C736 1.425 . S
C741 C738 1.409 . S
C741 C739 1.415 . S
C742 H732 0.930 . S
C742 C740 1.419 . S
C742 C743 1.362 . S
C743 H733 0.930 . S
C743 C736 1.409 . S
C743 C742 1.362 . S
H744 C750 0.930 . S
H745 C753 0.930 . S
H746 C754 0.930 . S
H747 C755 0.930 . S
H748 C758 0.930 . S
H749 C759 0.930 . S
C750 H744 0.930 . S
C750 C751 1.355 . S
C750 C752 1.415 . S
C751 C750 1.355 . S
C751 C753 1.419 . S
C752 C750 1.415 . S
C752 C757 1.425 . S
C752 C759 1.409 . S
C753 H745 0.930 . S
C753 C751 1.419 . S
C753 C754 1.362 . S
C754 H746 0.930 . S
C754 C753 1.362 . S
C754 C757 1.409 . S
C755 H747 0.930 . S
C755 C756 1.355 . S
C755 C757 1.415 . S
C756 C755 1.355 . S
C756 C758 1.419 . S
C757 C752 1.425 . S
C757 C754 1.409 . S
C757 C755 1.415 . S
C758 H748 0.930 . S
C758 C756 1.419 . S
C758 C759 1.362 . S
C759 H749 0.930 . S
C759 C752 1.409 . S
C759 C758 1.362 . S
H760 C766 0.930 . S
H761 C769 0.930 . S
H762 C770 0.930 . S
H763 C771 0.930 . S
H764 C774 0.930 . S
H765 C775 0.930 . S
C766 H760 0.930 . S
C766 C767 1.355 . S
C766 C768 1.415 . S
C767 C766 1.355 . S
C767 C769 1.419 . S
C768 C766 1.415 . S
C768 C773 1.425 . S
C768 C775 1.409 . S
C769 H761 0.930 . S
C769 C767 1.419 . S
C769 C770 1.362 . S
C770 H762 0.930 . S
C770 C769 1.362 . S
C770 C773 1.409 . S
C771 H763 0.930 . S
C771 C772 1.355 . S
C771 C773 1.415 . S
C772 C771 1.355 . S
C772 C774 1.419 . S
C773 C768 1.425 . S
C773 C770 1.409 . S
C773 C771 1.415 . S
C774 H764 0.930 . S
C774 C772 1.419 . S
C774 C775 1.362 . S
C775 H765 0.930 . S
C775 C768 1.409 . S
C775 C774 1.362 . S
H776 C782 0.930 . S
H777 C785 0.930 . S
H778 C786 0.930 . S
H779 C787 0.930 . S
H780 C790 0.930 . S
H781 C791 0.930 . S
C782 H776 0.930 . S
C782 C783 1.355 . S
C782 C784 1.415 . S
C783 C782 1.355 . S
C783 C785 1.419 . S
C784 C782 1.415 . S
C784 C789 1.425 . S
C784 C791 1.409 . S
C785 H777 0.930 . S
C785 C783 1.419 . S
C785 C786 1.362 . S
C786 H778 0.930 . S
C786 C785 1.362 . S
C786 C789 1.409 . S
C787 H779 0.930 . S
C787 C788 1.355 . S
C787 C789 1.415 . S
C788 C787 1.355 . S
C788 C790 1.419 . S
C789 C784 1.425 . S
C789 C786 1.409 . S
C789 C787 1.415 . S
C790 H780 0.930 . S
C790 C788 1.419 . S
C790 C791 1.362 . S
C791 H781 0.930 . S
C791 C784 1.409 . S
C791 C790 1.362 . S
H792 C798 0.930 . S
H793 C801 0.930 . S
H794 C802 0.930 . S
H795 C803 0.930 . S
H796 C806 0.938 . S
H797 C807 0.930 1_545 S
C798 H792 0.930 . S
C798 C799 1.355 . S
C798 C800 1.415 . S
C799 C798 1.355 . S
C799 C801 1.419 . S
C800 C798 1.415 . S
C800 C805 1.425 . S
C800 C807 1.409 . S
C801 H793 0.930 . S
C801 C799 1.419 . S
C801 C802 1.362 . S
C802 H794 0.930 . S
C802 C801 1.362 . S
C802 C805 1.409 . S
C803 H795 0.930 . S
C803 C804 1.355 . S
C803 C805 1.415 . S
C804 C803 1.355 . S
C804 C806 1.409 1_565 S
C805 C800 1.425 . S
C805 C802 1.409 . S
C805 C803 1.415 . S
C806 H796 0.938 . S
C806 C804 1.409 1_545 S
C806 C807 1.364 1_545 S
C807 H797 0.930 1_565 S
C807 C800 1.409 . S
C807 C806 1.364 1_565 S
H808 C814 0.930 . S
H809 C817 0.930 . S
H810 C818 0.930 . S
H811 C819 0.930 . S
H812 C822 0.930 . S
H813 C823 0.930 . S
C814 H808 0.930 . S
C814 C815 1.355 . S
C814 C816 1.415 . S
C815 C814 1.355 . S
C815 C817 1.419 . S
C816 C814 1.415 . S
C816 C821 1.425 . S
C816 C823 1.409 . S
C817 H809 0.930 . S
C817 C815 1.419 . S
C817 C818 1.362 . S
C818 H810 0.930 . S
C818 C817 1.362 . S
C818 C821 1.409 . S
C819 H811 0.930 . S
C819 C820 1.355 . S
C819 C821 1.415 . S
C820 C819 1.355 . S
C820 C822 1.419 . S
C821 C816 1.425 . S
C821 C818 1.409 . S
C821 C819 1.415 . S
C822 H812 0.930 . S
C822 C820 1.419 . S
C822 C823 1.362 . S
C823 H813 0.930 . S
C823 C816 1.409 . S
C823 C822 1.362 . S
H824 C830 0.930 . S
H825 C833 0.930 . S
H826 C834 0.930 . S
H827 C835 0.930 . S
H828 C838 0.930 . S
H829 C839 0.930 . S
C830 H824 0.930 . S
C830 C831 1.355 . S
C830 C832 1.415 . S
C831 C830 1.355 . S
C831 C833 1.419 . S
C832 C830 1.415 . S
C832 C837 1.425 . S
C832 C839 1.409 . S
C833 H825 0.930 . S
C833 C831 1.419 . S
C833 C834 1.362 . S
C834 H826 0.930 . S
C834 C833 1.362 . S
C834 C837 1.409 . S
C835 H827 0.930 . S
C835 C836 1.355 . S
C835 C837 1.415 . S
C836 C835 1.355 . S
C836 C838 1.419 . S
C837 C832 1.425 . S
C837 C834 1.409 . S
C837 C835 1.415 . S
C838 H828 0.930 . S
C838 C836 1.419 . S
C838 C839 1.362 . S
C839 H829 0.930 . S
C839 C832 1.409 . S
C839 C838 1.362 . S
H840 C846 0.930 . S
H841 C849 0.930 . S
H842 C850 0.930 1_455 S
H843 C851 0.930 . S
H844 C854 0.930 . S
H845 C855 0.930 . S
C846 H840 0.930 . S
C846 C847 1.355 . S
C846 C848 1.415 . S
C847 C846 1.355 . S
C847 C849 1.419 1_655 S
C848 C846 1.415 . S
C848 C853 1.425 . S
C848 C855 1.409 . S
C849 H841 0.930 . S
C849 C847 1.419 1_455 S
C849 C850 1.362 1_455 S
C850 H842 0.930 1_655 S
C850 C849 1.362 1_655 S
C850 C853 1.409 . S
C851 H843 0.930 . S
C851 C852 1.355 . S
C851 C853 1.415 . S
C852 C851 1.355 . S
C852 C854 1.419 . S
C853 C848 1.425 . S
C853 C850 1.409 . S
C853 C851 1.415 . S
C854 H844 0.930 . S
C854 C852 1.419 . S
C854 C855 1.362 . S
C855 H845 0.930 . S
C855 C848 1.409 . S
C855 C854 1.362 . S
H856 C862 0.930 . S
H857 C865 0.930 . S
H858 C866 0.930 . S
H859 C867 0.930 . S
H860 C870 0.930 . S
H861 C871 0.930 . S
C862 H856 0.930 . S
C862 C863 1.355 . S
C862 C864 1.415 . S
C863 C862 1.355 . S
C863 C865 1.419 . S
C864 C862 1.415 . S
C864 C869 1.425 . S
C864 C871 1.409 . S
C865 H857 0.930 . S
C865 C863 1.419 . S
C865 C866 1.362 . S
C866 H858 0.930 . S
C866 C865 1.362 . S
C866 C869 1.409 . S
C867 H859 0.930 . S
C867 C868 1.355 . S
C867 C869 1.415 . S
C868 C867 1.355 . S
C868 C870 1.419 . S
C869 C864 1.425 . S
C869 C866 1.409 . S
C869 C867 1.415 . S
C870 H860 0.930 . S
C870 C868 1.419 . S
C870 C871 1.362 . S
C871 H861 0.930 . S
C871 C864 1.409 . S
C871 C870 1.362 . S
H872 C878 0.930 . S
H873 C881 0.930 . S
H874 C882 0.930 . S
H875 C883 0.930 . S
H876 C886 0.930 . S
H877 C887 0.930 . S
C878 H872 0.930 . S
C878 C879 1.355 . S
C878 C880 1.415 . S
C879 C878 1.355 . S
C879 C881 1.419 . S
C880 C878 1.415 . S
C880 C885 1.425 . S
C880 C887 1.409 . S
C881 H873 0.930 . S
C881 C879 1.419 . S
C881 C882 1.362 . S
C882 H874 0.930 . S
C882 C881 1.362 . S
C882 C885 1.409 . S
C883 H875 0.930 . S
C883 C884 1.355 . S
C883 C885 1.415 . S
C884 C883 1.355 . S
C884 C886 1.419 . S
C885 C880 1.425 . S
C885 C882 1.409 . S
C885 C883 1.415 . S
C886 H876 0.930 . S
C886 C884 1.419 . S
C886 C887 1.362 . S
C887 H877 0.930 . S
C887 C880 1.409 . S
C887 C886 1.362 . S
H888 C894 0.930 . S
H889 C897 0.930 . S
H890 C898 0.930 . S
H891 C899 0.930 . S
H892 C902 0.930 . S
H893 C903 0.930 . S
C894 H888 0.930 . S
C894 C895 1.355 . S
C894 C896 1.415 1_655 S
C895 C894 1.355 . S
C895 C897 1.419 . S
C896 C894 1.415 1_455 S
C896 C901 1.425 . S
C896 C903 1.409 . S
C897 H889 0.930 . S
C897 C895 1.419 . S
C897 C898 1.362 . S
C898 H890 0.930 . S
C898 C897 1.362 . S
C898 C901 1.409 1_655 S
C899 H891 0.930 . S
C899 C900 1.355 . S
C899 C901 1.415 . S
C900 C899 1.355 . S
C900 C902 1.419 . S
C901 C896 1.425 . S
C901 C898 1.409 1_455 S
C901 C899 1.415 . S
C902 H892 0.930 . S
C902 C900 1.419 . S
C902 C903 1.362 . S
C903 H893 0.930 . S
C903 C896 1.409 . S
C903 C902 1.362 . S
H904 C910 0.930 . S
H905 C913 0.930 . S
H906 C914 0.930 . S
H907 C915 0.930 . S
H908 C918 0.930 . S
H909 C919 0.930 . S
C910 H904 0.930 . S
C910 C911 1.355 . S
C910 C912 1.415 . S
C911 C910 1.355 . S
C911 C913 1.419 . S
C912 C910 1.415 . S
C912 C917 1.425 . S
C912 C919 1.409 . S
C913 H905 0.930 . S
C913 C911 1.419 . S
C913 C914 1.362 . S
C914 H906 0.930 . S
C914 C913 1.362 . S
C914 C917 1.409 . S
C915 H907 0.930 . S
C915 C916 1.355 . S
C915 C917 1.415 . S
C916 C915 1.355 . S
C916 C918 1.419 . S
C917 C912 1.425 . S
C917 C914 1.409 . S
C917 C915 1.415 . S
C918 H908 0.930 . S
C918 C916 1.419 . S
C918 C919 1.362 . S
C919 H909 0.930 . S
C919 C912 1.409 . S
C919 C918 1.362 . S
H920 C926 0.930 . S
H921 C929 0.930 . S
H922 C930 0.930 1_545 S
H923 C931 0.930 . S
H924 C934 0.930 . S
H925 C935 0.930 . S
C926 H920 0.930 . S
C926 C927 1.355 . S
C926 C928 1.415 1_565 S
C927 C926 1.355 . S
C927 C929 1.419 . S
C928 C926 1.415 1_545 S
C928 C933 1.425 . S
C928 C935 1.409 . S
C929 H921 0.930 . S
C929 C927 1.419 . S
C929 C930 1.362 . S
C930 H922 0.930 1_565 S
C930 C929 1.362 . S
C930 C933 1.409 1_565 S
C931 H923 0.930 . S
C931 C932 1.355 . S
C931 C933 1.415 . S
C932 C931 1.355 . S
C932 C934 1.419 . S
C933 C928 1.425 . S
C933 C930 1.409 1_545 S
C933 C931 1.415 . S
C934 H924 0.930 . S
C934 C932 1.419 . S
C934 C935 1.362 . S
C935 H925 0.930 . S
C935 C928 1.409 . S
C935 C934 1.362 . S
H936 C942 0.930 . S
H937 C945 0.930 . S
H938 C946 0.930 . S
H939 C947 0.930 . S
H940 C950 0.930 . S
H941 C951 0.930 . S
C942 H936 0.930 . S
C942 C943 1.355 . S
C942 C944 1.415 . S
C943 C942 1.355 . S
C943 C945 1.419 . S
C944 C942 1.415 . S
C944 C949 1.425 . S
C944 C951 1.409 . S
C945 H937 0.930 . S
C945 C943 1.419 . S
C945 C946 1.362 . S
C946 H938 0.930 . S
C946 C945 1.362 . S
C946 C949 1.409 . S
C947 H939 0.930 . S
C947 C948 1.355 . S
C947 C949 1.415 . S
C948 C947 1.355 . S
C948 C950 1.419 . S
C949 C944 1.425 . S
C949 C946 1.409 . S
C949 C947 1.415 . S
C950 H940 0.930 . S
C950 C948 1.419 . S
C950 C951 1.362 . S
C951 H941 0.930 . S
C951 C944 1.409 . S
C951 C950 1.362 . S
H952 C958 0.930 . S
H953 C961 0.930 . S
H954 C962 0.930 . S
H955 C963 0.930 . S
H956 C966 0.930 . S
H957 C967 0.930 . S
C958 H952 0.930 . S
C958 C959 1.355 . S
C958 C960 1.415 . S
C959 C958 1.355 . S
C959 C961 1.419 . S
C960 C958 1.415 . S
C960 C965 1.425 . S
C960 C967 1.409 . S
C961 H953 0.930 . S
C961 C959 1.419 . S
C961 C962 1.362 . S
C962 H954 0.930 . S
C962 C961 1.362 . S
C962 C965 1.409 . S
C963 H955 0.930 . S
C963 C964 1.355 . S
C963 C965 1.415 . S
C964 C963 1.355 . S
C964 C966 1.419 . S
C965 C960 1.425 . S
C965 C962 1.409 . S
C965 C963 1.415 . S
C966 H956 0.930 . S
C966 C964 1.419 . S
C966 C967 1.362 . S
C967 H957 0.930 . S
C967 C960 1.409 . S
C967 C966 1.362 . S
H968 C974 0.930 . S
H969 C977 0.930 . S
H970 C978 0.930 . S
H971 C979 0.930 . S
H972 C982 0.930 . S
H973 C983 0.930 . S
C974 H968 0.930 . S
C974 C975 1.355 . S
C974 C976 1.415 . S
C975 C974 1.355 . S
C975 C977 1.419 . S
C976 C974 1.415 . S
C976 C981 1.425 . S
C976 C983 1.409 . S
C977 H969 0.930 . S
C977 C975 1.419 . S
C977 C978 1.362 . S
C978 H970 0.930 . S
C978 C977 1.362 . S
C978 C981 1.409 . S
C979 H971 0.930 . S
C979 C980 1.355 . S
C979 C981 1.415 . S
C980 C979 1.355 . S
C980 C982 1.419 . S
C981 C976 1.425 . S
C981 C978 1.409 . S
C981 C979 1.415 . S
C982 H972 0.930 . S
C982 C980 1.419 . S
C982 C983 1.362 . S
C983 H973 0.930 . S
C983 C976 1.409 . S
C983 C982 1.362 . S
H984 C990 0.930 . S
H985 C993 0.930 . S
H986 C994 0.930 . S
H987 C995 0.930 . S
H988 C998 0.930 . S
H989 C999 0.930 . S
C990 H984 0.930 . S
C990 C991 1.355 . S
C990 C992 1.415 . S
C991 C990 1.355 . S
C991 C993 1.419 . S
C992 C990 1.415 . S
C992 C997 1.425 . S
C992 C999 1.409 . S
C993 H985 0.930 . S
C993 C991 1.419 . S
C993 C994 1.362 . S
C994 H986 0.930 . S
C994 C993 1.362 . S
C994 C997 1.409 . S
C995 H987 0.930 . S
C995 C996 1.355 . S
C995 C997 1.415 . S
C996 C995 1.355 . S
C996 C998 1.419 . S
C997 C992 1.425 . S
C997 C994 1.409 . S
C997 C995 1.415 . S
C998 H988 0.930 . S
C998 C996 1.419 . S
C998 C999 1.362 . S
C999 H989 0.930 . S
C999 C992 1.409 . S
C999 C998 1.362 . S
H1000 C1006 0.930 . S
H1001 C1009 0.930 . S
H1002 C1010 0.930 . S
H1003 C1011 0.930 . S
H1004 C1014 0.930 . S
H1005 C1015 0.930 . S
C1006 H1000 0.930 . S
C1006 C1007 1.355 . S
C1006 C1008 1.415 . S
C1007 C1006 1.355 . S
C1007 C1009 1.419 . S
C1008 C1006 1.415 . S
C1008 C1013 1.425 . S
C1008 C1015 1.409 . S
C1009 H1001 0.930 . S
C1009 C1007 1.419 . S
C1009 C1010 1.362 . S
C1010 H1002 0.930 . S
C1010 C1009 1.362 . S
C1010 C1013 1.409 . S
C1011 H1003 0.930 . S
C1011 C1012 1.355 . S
C1011 C1013 1.415 . S
C1012 C1011 1.355 . S
C1012 C1014 1.419 . S
C1013 C1008 1.425 . S
C1013 C1010 1.409 . S
C1013 C1011 1.415 . S
C1014 H1004 0.930 . S
C1014 C1012 1.419 . S
C1014 C1015 1.362 . S
C1015 H1005 0.930 . S
C1015 C1008 1.409 . S
C1015 C1014 1.362 . S
H1016 C1022 0.930 . S
H1017 C1025 0.930 . S
H1018 C1026 0.930 . S
H1019 C1027 0.930 . S
H1020 C1030 0.930 . S
H1021 C1031 0.930 . S
C1022 H1016 0.930 . S
C1022 C1023 1.355 . S
C1022 C1024 1.415 . S
C1023 C1022 1.355 . S
C1023 C1025 1.419 . S
C1024 C1022 1.415 . S
C1024 C1029 1.425 . S
C1024 C1031 1.409 . S
C1025 H1017 0.930 . S
C1025 C1023 1.419 . S
C1025 C1026 1.362 . S
C1026 H1018 0.930 . S
C1026 C1025 1.362 . S
C1026 C1029 1.409 . S
C1027 H1019 0.930 . S
C1027 C1028 1.355 . S
C1027 C1029 1.415 . S
C1028 C1027 1.355 . S
C1028 C1030 1.419 . S
C1029 C1024 1.425 . S
C1029 C1026 1.409 . S
C1029 C1027 1.415 . S
C1030 H1020 0.930 . S
C1030 C1028 1.419 . S
C1030 C1031 1.362 . S
C1031 H1021 0.930 . S
C1031 C1024 1.409 . S
C1031 C1030 1.362 . S
H1032 C1038 0.930 . S
H1033 C1041 0.930 . S
H1034 C1042 0.930 . S
H1035 C1043 0.930 . S
H1036 C1046 0.930 . S
H1037 C1047 0.930 . S
C1038 H1032 0.930 . S
C1038 C1039 1.355 . S
C1038 C1040 1.415 . S
C1039 C1038 1.355 . S
C1039 C1041 1.419 . S
C1040 C1038 1.415 . S
C1040 C1045 1.425 . S
C1040 C1047 1.409 . S
C1041 H1033 0.930 . S
C1041 C1039 1.419 . S
C1041 C1042 1.362 . S
C1042 H1034 0.930 . S
C1042 C1041 1.362 . S
C1042 C1045 1.409 . S
C1043 H1035 0.930 . S
C1043 C1044 1.355 . S
C1043 C1045 1.415 . S
C1044 C1043 1.355 . S
C1044 C1046 1.419 . S
C1045 C1040 1.425 . S
C1045 C1042 1.409 . S
C1045 C1043 1.415 . S
C1046 H1036 0.930 . S
C1046 C1044 1.419 . S
C1046 C1047 1.362 . S
C1047 H1037 0.930 . S
C1047 C1040 1.409 . S
C1047 C1046 1.362 . S
H1048 C1054 0.930 . S
H1049 C1057 0.930 . S
H1050 C1058 0.930 . S
H1051 C1059 0.930 . S
H1052 C1062 0.930 . S
H1053 C1063 0.930 . S
C1054 H1048 0.930 . S
C1054 C1055 1.355 . S
C1054 C1056 1.415 . S
C1055 C1054 1.355 . S
C1055 C1057 1.419 . S
C1056 C1054 1.415 . S
C1056 C1061 1.425 . S
C1056 C1063 1.409 . S
C1057 H1049 0.930 . S
C1057 C1055 1.419 . S
C1057 C1058 1.362 . S
C1058 H1050 0.930 . S
C1058 C1057 1.362 . S
C1058 C1061 1.409 . S
C1059 H1051 0.930 . S
C1059 C1060 1.355 . S
C1059 C1061 1.415 . S
C1060 C1059 1.355 . S
C1060 C1062 1.419 . S
C1061 C1056 1.425 . S
C1061 C1058 1.409 . S
C1061 C1059 1.415 . S
C1062 H1052 0.930 . S
C1062 C1060 1.419 . S
C1062 C1063 1.362 . S
C1063 H1053 0.930 . S
C1063 C1056 1.409 . S
C1063 C1062 1.362 . S
H1064 C1070 0.930 . S
H1065 C1073 0.930 . S
H1066 C1074 0.930 . S
H1067 C1075 0.930 . S
H1068 C1078 0.930 . S
H1069 C1079 0.930 . S
C1070 H1064 0.930 . S
C1070 C1071 1.355 . S
C1070 C1072 1.415 . S
C1071 C1070 1.355 . S
C1071 C1073 1.419 . S
C1072 C1070 1.415 . S
C1072 C1077 1.425 . S
C1072 C1079 1.409 . S
C1073 H1065 0.930 . S
C1073 C1071 1.419 . S
C1073 C1074 1.362 . S
C1074 H1066 0.930 . S
C1074 C1073 1.362 . S
C1074 C1077 1.409 . S
C1075 H1067 0.930 . S
C1075 C1076 1.355 . S
C1075 C1077 1.415 . S
C1076 C1075 1.355 . S
C1076 C1078 1.419 . S
C1077 C1072 1.425 . S
C1077 C1074 1.409 . S
C1077 C1075 1.415 . S
C1078 H1068 0.930 . S
C1078 C1076 1.419 . S
C1078 C1079 1.362 . S
C1079 H1069 0.930 . S
C1079 C1072 1.409 . S
C1079 C1078 1.362 . S
H1080 C1086 0.930 . S
H1081 C1089 0.930 . S
H1082 C1090 0.930 . S
H1083 C1091 0.930 . S
H1084 C1094 0.930 . S
H1085 C1095 0.930 . S
C1086 H1080 0.930 . S
C1086 C1087 1.355 . S
C1086 C1088 1.415 . S
C1087 C1086 1.355 . S
C1087 C1089 1.419 . S
C1088 C1086 1.415 . S
C1088 C1093 1.425 . S
C1088 C1095 1.409 1_655 S
C1089 H1081 0.930 . S
C1089 C1087 1.419 . S
C1089 C1090 1.362 . S
C1090 H1082 0.930 . S
C1090 C1089 1.362 . S
C1090 C1093 1.409 . S
C1091 H1083 0.930 . S
C1091 C1092 1.355 . S
C1091 C1093 1.415 1_455 S
C1092 C1091 1.355 . S
C1092 C1094 1.419 . S
C1093 C1088 1.425 . S
C1093 C1090 1.409 . S
C1093 C1091 1.415 1_655 S
C1094 H1084 0.930 . S
C1094 C1092 1.419 . S
C1094 C1095 1.362 . S
C1095 H1085 0.930 . S
C1095 C1088 1.409 1_455 S
C1095 C1094 1.362 . S
H1096 C1102 0.930 . S
H1097 C1105 0.930 . S
H1098 C1106 0.930 . S
H1099 C1107 0.930 . S
H1100 C1110 0.930 . S
H1101 C1111 0.930 . S
C1102 H1096 0.930 . S
C1102 C1103 1.355 . S
C1102 C1104 1.415 . S
C1103 C1102 1.355 . S
C1103 C1105 1.419 . S
C1104 C1102 1.415 . S
C1104 C1109 1.425 . S
C1104 C1111 1.409 . S
C1105 H1097 0.930 . S
C1105 C1103 1.419 . S
C1105 C1106 1.362 . S
C1106 H1098 0.930 . S
C1106 C1105 1.362 . S
C1106 C1109 1.409 . S
C1107 H1099 0.930 . S
C1107 C1108 1.355 . S
C1107 C1109 1.415 . S
C1108 C1107 1.355 . S
C1108 C1110 1.419 . S
C1109 C1104 1.425 . S
C1109 C1106 1.409 . S
C1109 C1107 1.415 . S
C1110 H1100 0.930 . S
C1110 C1108 1.419 . S
C1110 C1111 1.362 . S
C1111 H1101 0.930 . S
C1111 C1104 1.409 . S
C1111 C1110 1.362 . S
H1112 C1118 0.930 1_565 S
H1113 C1121 0.930 . S
H1114 C1122 0.930 . S
H1115 C1123 0.930 . S
H1116 C1126 0.930 . S
H1117 C1127 0.930 . S
C1118 H1112 0.930 1_545 S
C1118 C1119 1.355 1_545 S
C1118 C1120 1.415 . S
C1119 C1118 1.355 1_565 S
C1119 C1121 1.419 . S
C1120 C1118 1.415 . S
C1120 C1125 1.425 . S
C1120 C1127 1.409 . S
C1121 H1113 0.930 . S
C1121 C1119 1.419 . S
C1121 C1122 1.362 1_565 S
C1122 H1114 0.930 . S
C1122 C1121 1.362 1_545 S
C1122 C1125 1.409 . S
C1123 H1115 0.930 . S
C1123 C1124 1.355 . S
C1123 C1125 1.415 . S
C1124 C1123 1.355 . S
C1124 C1126 1.419 . S
C1125 C1120 1.425 . S
C1125 C1122 1.409 . S
C1125 C1123 1.415 . S
C1126 H1116 0.930 . S
C1126 C1124 1.419 . S
C1126 C1127 1.362 . S
C1127 H1117 0.930 . S
C1127 C1120 1.409 . S
C1127 C1126 1.362 . S
H1128 C1134 0.930 . S
H1129 C1137 0.930 . S
H1130 C1138 0.930 . S
H1131 C1139 0.930 . S
H1132 C1142 0.930 . S
H1133 C1143 0.930 . S
C1134 H1128 0.930 . S
C1134 C1135 1.355 . S
C1134 C1136 1.415 . S
C1135 C1134 1.355 . S
C1135 C1137 1.419 . S
C1136 C1134 1.415 . S
C1136 C1141 1.425 . S
C1136 C1143 1.409 1_565 S
C1137 H1129 0.930 . S
C1137 C1135 1.419 . S
C1137 C1138 1.362 . S
C1138 H1130 0.930 . S
C1138 C1137 1.362 . S
C1138 C1141 1.409 . S
C1139 H1131 0.930 . S
C1139 C1140 1.355 . S
C1139 C1141 1.415 1_545 S
C1140 C1139 1.355 . S
C1140 C1142 1.419 . S
C1141 C1136 1.425 . S
C1141 C1138 1.409 . S
C1141 C1139 1.415 1_565 S
C1142 H1132 0.930 . S
C1142 C1140 1.419 . S
C1142 C1143 1.362 . S
C1143 H1133 0.930 . S
C1143 C1136 1.409 1_545 S
C1143 C1142 1.362 . S
H1144 C1150 0.926 1_545 S
H1145 C1153 0.930 . S
H1146 C1154 0.930 . S
H1147 C1155 0.930 . S
H1148 C1158 0.930 . S
H1149 C1159 0.930 . S
C1150 H1144 0.926 1_565 S
C1150 C1151 1.355 . S
C1150 C1152 1.415 . S
C1151 C1150 1.355 . S
C1151 C1153 1.419 . S
C1152 C1150 1.415 . S
C1152 C1157 1.425 . S
C1152 C1159 1.409 . S
C1153 H1145 0.930 . S
C1153 C1151 1.419 . S
C1153 C1154 1.362 . S
C1154 H1146 0.930 . S
C1154 C1153 1.362 . S
C1154 C1157 1.409 . S
C1155 H1147 0.930 . S
C1155 C1156 1.355 1_455 S
C1155 C1157 1.415 . S
C1156 C1155 1.355 1_655 S
C1156 C1158 1.419 . S
C1157 C1152 1.425 . S
C1157 C1154 1.409 . S
C1157 C1155 1.415 . S
C1158 H1148 0.930 . S
C1158 C1156 1.419 . S
C1158 C1159 1.362 1_655 S
C1159 H1149 0.930 . S
C1159 C1152 1.409 . S
C1159 C1158 1.362 1_455 S
H1160 C1166 0.930 . S
H1161 C1169 0.930 . S
H1162 C1170 0.930 . S
H1163 C1171 0.930 . S
H1164 C1174 0.930 . S
H1165 C1175 0.930 . S
C1166 H1160 0.930 . S
C1166 C1167 1.355 . S
C1166 C1168 1.415 . S
C1167 C1166 1.355 . S
C1167 C1169 1.419 . S
C1168 C1166 1.415 . S
C1168 C1173 1.425 . S
C1168 C1175 1.409 . S
C1169 H1161 0.930 . S
C1169 C1167 1.419 . S
C1169 C1170 1.362 . S
C1170 H1162 0.930 . S
C1170 C1169 1.362 . S
C1170 C1173 1.409 . S
C1171 H1163 0.930 . S
C1171 C1172 1.355 . S
C1171 C1173 1.415 . S
C1172 C1171 1.355 . S
C1172 C1174 1.419 . S
C1173 C1168 1.425 . S
C1173 C1170 1.409 . S
C1173 C1171 1.415 . S
C1174 H1164 0.930 . S
C1174 C1172 1.419 . S
C1174 C1175 1.362 . S
C1175 H1165 0.930 . S
C1175 C1168 1.409 . S
C1175 C1174 1.362 . S
H1176 C1182 0.930 . S
H1177 C1185 0.930 . S
H1178 C1186 0.930 . S
H1179 C1187 0.930 . S
H1180 C1190 0.930 . S
H1181 C1191 0.930 . S
C1182 H1176 0.930 . S
C1182 C1183 1.355 . S
C1182 C1184 1.415 . S
C1183 C1182 1.355 . S
C1183 C1185 1.419 . S
C1184 C1182 1.415 . S
C1184 C1189 1.425 . S
C1184 C1191 1.409 . S
C1185 H1177 0.930 . S
C1185 C1183 1.419 . S
C1185 C1186 1.362 . S
C1186 H1178 0.930 . S
C1186 C1185 1.362 . S
C1186 C1189 1.409 . S
C1187 H1179 0.930 . S
C1187 C1188 1.355 . S
C1187 C1189 1.415 . S
C1188 C1187 1.355 . S
C1188 C1190 1.419 . S
C1189 C1184 1.425 . S
C1189 C1186 1.409 . S
C1189 C1187 1.415 . S
C1190 H1180 0.930 . S
C1190 C1188 1.419 . S
C1190 C1191 1.362 . S
C1191 H1181 0.930 . S
C1191 C1184 1.409 . S
C1191 C1190 1.362 . S
H1192 C1198 0.930 . S
H1193 C1201 0.930 . S
H1194 C1202 0.930 . S
H1195 C1203 0.930 . S
H1196 C1206 0.930 . S
H1197 C1207 0.930 . S
C1198 H1192 0.930 . S
C1198 C1199 1.355 . S
C1198 C1200 1.415 . S
C1199 C1198 1.355 . S
C1199 C1201 1.419 . S
C1200 C1198 1.415 . S
C1200 C1205 1.425 . S
C1200 C1207 1.409 . S
C1201 H1193 0.930 . S
C1201 C1199 1.419 . S
C1201 C1202 1.362 . S
C1202 H1194 0.930 . S
C1202 C1201 1.362 . S
C1202 C1205 1.409 . S
C1203 H1195 0.930 . S
C1203 C1204 1.355 . S
C1203 C1205 1.415 . S
C1204 C1203 1.355 . S
C1204 C1206 1.419 . S
C1205 C1200 1.425 . S
C1205 C1202 1.409 . S
C1205 C1203 1.415 . S
C1206 H1196 0.930 . S
C1206 C1204 1.419 . S
C1206 C1207 1.362 . S
C1207 H1197 0.930 . S
C1207 C1200 1.409 . S
C1207 C1206 1.362 . S
H1208 C1214 0.930 . S
H1209 C1217 0.930 . S
H1210 C1218 0.930 . S
H1211 C1219 0.930 . S
H1212 C1222 0.930 . S
H1213 C1223 0.930 . S
C1214 H1208 0.930 . S
C1214 C1215 1.355 . S
C1214 C1216 1.415 . S
C1215 C1214 1.355 . S
C1215 C1217 1.419 . S
C1216 C1214 1.415 . S
C1216 C1221 1.425 . S
C1216 C1223 1.409 . S
C1217 H1209 0.930 . S
C1217 C1215 1.419 . S
C1217 C1218 1.362 . S
C1218 H1210 0.930 . S
C1218 C1217 1.362 . S
C1218 C1221 1.409 . S
C1219 H1211 0.930 . S
C1219 C1220 1.355 . S
C1219 C1221 1.415 . S
C1220 C1219 1.355 . S
C1220 C1222 1.419 . S
C1221 C1216 1.425 . S
C1221 C1218 1.409 . S
C1221 C1219 1.415 . S
C1222 H1212 0.930 . S
C1222 C1220 1.419 . S
C1222 C1223 1.362 . S
C1223 H1213 0.930 . S
C1223 C1216 1.409 . S
C1223 C1222 1.362 . S
C367 C6 1.123 . S
C372 C59 1.215 . S
C383 C19 1.162 . S
C388 C26 1.175 . S
C399 C39 1.219 . S
C404 C46 1.126 . S
C415 C66 1.210 . S
C420 C99 1.145 . S
C431 C119 1.169 . S
C436 C86 1.201 . S
C447 C106 1.123 . S
C452 C79 1.215 . S
C463 C179 1.201 . S
C468 C126 1.165 . S
C479 C139 1.219 . S
C484 C146 1.127 1_545 S
C495 C166 1.125 . S
C500 C159 1.209 . S
C511 C219 1.157 . S
C516 C186 1.210 . S
C527 C206 1.213 . S
C532 C239 1.148 . S
C543 C199 1.218 . S
C548 C226 1.133 . S
C559 C246 1.124 . S
C564 C299 1.211 . S
C575 C259 1.208 . S
C580 C266 1.125 . S
C591 C279 1.175 . S
C596 C286 1.196 . S
C607 C339 1.150 . S
C612 C306 1.195 . S
C623 C359 1.146 . S
C628 C326 1.204 . S
C639 C319 1.151 . S
C644 C346 1.213 1_455 S
C655 C9 1.720 . S
C660 C109 1.737 . S
C671 C69 1.708 . S
C676 C29 1.677 . S
C687 C89 1.675 . S
C692 C49 1.704 . S
C703 C129 1.724 . S
C708 C229 1.691 . S
C719 C149 1.722 . S
C724 C189 1.737 . S
C735 C209 1.737 . S
C740 C169 1.722 . S
C751 C249 1.681 . S
C756 C349 1.670 . S
C767 C309 1.706 . S
C772 C269 1.733 . S
C783 C329 1.701 . S
C788 C289 1.673 . S
C799 C201 1.898 . S
C804 C1 1.874 . S
C815 C21 1.895 . S
C820 C221 1.871 . S
C831 C181 1.900 . S
C836 C41 1.876 . S
C847 C61 1.871 . S
C852 C281 1.895 . S
C863 C81 1.884 . S
C868 C241 1.864 . S
C879 C261 1.872 . S
C884 C101 1.897 . S
C895 C321 1.869 . S
C900 C121 1.893 . S
C911 C141 1.874 . S
C916 C341 1.898 . S
C927 C161 1.901 . S
C932 C301 1.878 . S
C943 C48 1.710 . S
C948 C16 1.745 . S
C959 C8 1.647 . S
C964 C36 1.776 . S
C975 C56 1.774 . S
C980 C28 1.658 . S
C991 C88 1.652 . S
C996 C76 1.775 . S
C1007 C108 1.664 . S
C1012 C96 1.772 . S
C1023 C116 1.743 . S
C1028 C68 1.721 . S
C1039 C168 1.689 . S
C1044 C136 1.753 . S
C1055 C156 1.748 . S
C1060 C128 1.714 . S
C1071 C148 1.647 . S
C1076 C176 1.776 . S
C1087 C196 1.743 . S
C1092 C208 1.721 . S
C1103 C216 1.773 . S
C1108 C228 1.650 . S
C1119 C188 1.709 . S
C1124 C236 1.751 1_655 S
C1135 C256 1.748 . S
C1140 C288 1.714 . S
C1151 C276 1.744 1_565 S
C1156 C248 1.720 . S
C1167 C268 1.649 . S
C1172 C296 1.776 . S
C1183 C316 1.743 . S
C1188 C328 1.721 . S
C1199 C336 1.749 . S
C1204 C348 1.713 . S
C1215 C308 1.660 . S
C1220 C356 1.767 . S
