# Generated by pormake.
# Topology ume, (4)-cn, num edge types: 1
# Building blocks:
#     Node 0, Type 0, BuildingBlock: GALJAG_clean_sbu_0, # of connection points: 4
#     Node 1, Type 0, BuildingBlock: GALJAG_clean_sbu_0, # of connection points: 4
#     Node 2, Type 0, BuildingBlock: GALJAG_clean_sbu_0, # of connection points: 4
#     Node 3, Type 0, BuildingBlock: GALJAG_clean_sbu_0, # of connection points: 4
#     Node 4, Type 0, BuildingBlock: GALJAG_clean_sbu_0, # of connection points: 4
#     Node 5, Type 0, BuildingBlock: GALJAG_clean_sbu_0, # of connection points: 4
#     Node 6, Type 0, BuildingBlock: GALJAG_clean_sbu_0, # of connection points: 4
#     Node 7, Type 0, BuildingBlock: GALJAG_clean_sbu_0, # of connection points: 4
#     Node 8, Type 0, BuildingBlock: GALJAG_clean_sbu_0, # of connection points: 4
#     Node 9, Type 0, BuildingBlock: GALJAG_clean_sbu_0, # of connection points: 4
#     Node 10, Type 0, BuildingBlock: GALJAG_clean_sbu_0, # of connection points: 4
#     Node 11, Type 0, BuildingBlock: GALJAG_clean_sbu_0, # of connection points: 4
#     Node 12, Type 0, BuildingBlock: GALJAG_clean_sbu_0, # of connection points: 4
#     Node 13, Type 0, BuildingBlock: GALJAG_clean_sbu_0, # of connection points: 4
#     Node 14, Type 0, BuildingBlock: GALJAG_clean_sbu_0, # of connection points: 4
#     Node 15, Type 0, BuildingBlock: GALJAG_clean_sbu_0, # of connection points: 4
#     Edge 16, Type (0, 0), BuildingBlock: CIFDUS_clean_linker_0, # of connection points: 2
#     Edge 17, Type (0, 0), BuildingBlock: CIFDUS_clean_linker_0, # of connection points: 2
#     Edge 18, Type (0, 0), BuildingBlock: CIFDUS_clean_linker_0, # of connection points: 2
#     Edge 19, Type (0, 0), BuildingBlock: CIFDUS_clean_linker_0, # of connection points: 2
#     Edge 20, Type (0, 0), BuildingBlock: CIFDUS_clean_linker_0, # of connection points: 2
#     Edge 21, Type (0, 0), BuildingBlock: CIFDUS_clean_linker_0, # of connection points: 2
#     Edge 22, Type (0, 0), BuildingBlock: CIFDUS_clean_linker_0, # of connection points: 2
#     Edge 23, Type (0, 0), BuildingBlock: CIFDUS_clean_linker_0, # of connection points: 2
#     Edge 24, Type (0, 0), BuildingBlock: CIFDUS_clean_linker_0, # of connection points: 2
#     Edge 25, Type (0, 0), BuildingBlock: CIFDUS_clean_linker_0, # of connection points: 2
#     Edge 26, Type (0, 0), BuildingBlock: CIFDUS_clean_linker_0, # of connection points: 2
#     Edge 27, Type (0, 0), BuildingBlock: CIFDUS_clean_linker_0, # of connection points: 2
#     Edge 28, Type (0, 0), BuildingBlock: CIFDUS_clean_linker_0, # of connection points: 2
#     Edge 29, Type (0, 0), BuildingBlock: CIFDUS_clean_linker_0, # of connection points: 2
#     Edge 30, Type (0, 0), BuildingBlock: CIFDUS_clean_linker_0, # of connection points: 2
#     Edge 31, Type (0, 0), BuildingBlock: CIFDUS_clean_linker_0, # of connection points: 2
#     Edge 32, Type (0, 0), BuildingBlock: CIFDUS_clean_linker_0, # of connection points: 2
#     Edge 33, Type (0, 0), BuildingBlock: CIFDUS_clean_linker_0, # of connection points: 2
#     Edge 34, Type (0, 0), BuildingBlock: CIFDUS_clean_linker_0, # of connection points: 2
#     Edge 35, Type (0, 0), BuildingBlock: CIFDUS_clean_linker_0, # of connection points: 2
#     Edge 36, Type (0, 0), BuildingBlock: CIFDUS_clean_linker_0, # of connection points: 2
#     Edge 37, Type (0, 0), BuildingBlock: CIFDUS_clean_linker_0, # of connection points: 2
#     Edge 38, Type (0, 0), BuildingBlock: CIFDUS_clean_linker_0, # of connection points: 2
#     Edge 39, Type (0, 0), BuildingBlock: CIFDUS_clean_linker_0, # of connection points: 2
#     Edge 40, Type (0, 0), BuildingBlock: CIFDUS_clean_linker_0, # of connection points: 2
#     Edge 41, Type (0, 0), BuildingBlock: CIFDUS_clean_linker_0, # of connection points: 2
#     Edge 42, Type (0, 0), BuildingBlock: CIFDUS_clean_linker_0, # of connection points: 2
#     Edge 43, Type (0, 0), BuildingBlock: CIFDUS_clean_linker_0, # of connection points: 2
#     Edge 44, Type (0, 0), BuildingBlock: CIFDUS_clean_linker_0, # of connection points: 2
#     Edge 45, Type (0, 0), BuildingBlock: CIFDUS_clean_linker_0, # of connection points: 2
#     Edge 46, Type (0, 0), BuildingBlock: CIFDUS_clean_linker_0, # of connection points: 2
#     Edge 47, Type (0, 0), BuildingBlock: CIFDUS_clean_linker_0, # of connection points: 2
# Relax obj value: 0.060
# Max RMSD: 0.125
# Mean RMSD: 0.125
data_MOF--net-ume--node1-GALJAG_clean_sbu_0--edge1-CIFDUS_clean_linker_0
_symmetry_space_group_name_H-M    P1
_symmetry_Int_Tables_number       1
_symmetry_cell_setting            triclinic
loop_
_symmetry_equiv_pos_as_xyz
'x, y, z'
_cell_length_a     24.537517
_cell_length_b     24.603038
_cell_length_c     99.061409
_cell_angle_alpha  90.050925
_cell_angle_beta   90.080372
_cell_angle_gamma 89.928511
loop_
_atom_site_label
_atom_site_type_symbol
_atom_site_fract_x
_atom_site_fract_y
_atom_site_fract_z
_atom_type_partial_charge
In0 In 0.2409 0.09204 0.30616 0.0
O1 O 0.24213 0.13982 0.32618 0.0
O2 O 0.24706 0.05303 0.3264 0.0
C3 C 0.23467 0.15246 0.28388 0.0
C4 C 0.1376 0.05757 0.30502 0.0
C5 C 0.34347 0.05745 0.30191 0.0
O6 O 0.24592 0.17374 0.29524 0.0
O7 O 0.22647 0.10178 0.28398 0.0
O8 O 0.30306 0.02547 0.30094 0.0
O9 O 0.33155 0.10597 0.30487 0.0
C10 C 0.24579 0.09659 0.33314 0.0
O11 O 0.17739 0.02581 0.3027 0.0
O12 O 0.15044 0.106 0.30793 0.0
In13 In 0.91258 0.75935 0.55811 0.0
O14 O 0.86148 0.75125 0.57767 0.0
O15 O 0.94316 0.77927 0.57888 0.0
C16 C 0.84045 0.75806 0.5376 0.0
C17 C 0.96154 0.66176 0.55684 0.0
C18 C 0.96049 0.85488 0.55223 0.0
O19 O 0.82802 0.77609 0.54915 0.0
O20 O 0.8881 0.73928 0.53666 0.0
O21 O 0.98584 0.81019 0.55169 0.0
O22 O 0.91097 0.85108 0.5555 0.0
C23 C 0.90012 0.76754 0.58511 0.0
O24 O 0.98638 0.70559 0.55439 0.0
O25 O 0.91179 0.66716 0.55985 0.0
In26 In 0.24636 0.40567 0.80752 0.0
O27 O 0.2977 0.48208 0.80542 0.0
O28 O 0.33831 0.40579 0.80807 0.0
C29 C 0.14175 0.43826 0.80546 0.0
C30 C 0.25466 0.38646 0.8341 0.0
C31 C 0.25623 0.35189 0.78408 0.0
O32 O 0.18119 0.47078 0.80398 0.0
O33 O 0.15532 0.38978 0.80793 0.0
O34 O 0.24677 0.32696 0.79503 0.0
O35 O 0.26065 0.40276 0.78513 0.0
C36 C 0.34246 0.45671 0.80665 0.0
O37 O 0.2542 0.34735 0.82575 0.0
O38 O 0.24915 0.43303 0.82899 0.0
In39 In 0.59992 0.76664 0.05462 0.0
O40 O 0.66221 0.77414 0.07211 0.0
O41 O 0.58255 0.74498 0.07621 0.0
C42 C 0.65936 0.77088 0.03182 0.0
C43 C 0.551 0.86416 0.05563 0.0
C44 C 0.54907 0.67165 0.04974 0.0
O45 O 0.67833 0.75155 0.04268 0.0
O46 O 0.61153 0.78926 0.03266 0.0
O47 O 0.52368 0.71627 0.05044 0.0
O48 O 0.59998 0.67522 0.05133 0.0
C49 C 0.62874 0.75716 0.08084 0.0
O50 O 0.52471 0.82053 0.054 0.0
O51 O 0.60201 0.85852 0.0567 0.0
In52 In 0.25373 0.37227 0.94036 0.0
O53 O 0.2419 0.31429 0.92216 0.0
O54 O 0.26837 0.39553 0.91883 0.0
C55 C 0.24759 0.31378 0.96318 0.0
C56 C 0.15774 0.42485 0.94146 0.0
C57 C 0.35695 0.40744 0.94373 0.0
O58 O 0.25797 0.29165 0.95191 0.0
O59 O 0.23939 0.36435 0.96271 0.0
O60 O 0.31672 0.43971 0.94369 0.0
O61 O 0.34477 0.35797 0.94224 0.0
C62 C 0.25607 0.35025 0.91372 0.0
O63 O 0.20276 0.44915 0.94301 0.0
O64 O 0.16145 0.37437 0.93929 0.0
In65 In 0.61155 0.75503 0.188 0.0
O66 O 0.65989 0.75227 0.16808 0.0
O67 O 0.57281 0.74876 0.16766 0.0
C68 C 0.67456 0.75444 0.21001 0.0
C69 C 0.57715 0.65224 0.19097 0.0
C70 C 0.57582 0.85849 0.19035 0.0
O71 O 0.69474 0.76168 0.19836 0.0
O72 O 0.62357 0.74757 0.21035 0.0
O73 O 0.54457 0.81831 0.19246 0.0
O74 O 0.62396 0.84598 0.18711 0.0
C75 C 0.61676 0.74815 0.16106 0.0
O76 O 0.54526 0.69245 0.19263 0.0
O77 O 0.62571 0.66444 0.18794 0.0
In78 In 0.2527 0.10705 0.44023 0.0
O79 O 0.25412 0.1632 0.42167 0.0
O80 O 0.25057 0.07737 0.41881 0.0
C81 C 0.25277 0.16968 0.46238 0.0
C82 C 0.35605 0.06976 0.44218 0.0
C83 C 0.14972 0.06868 0.44293 0.0
O84 O 0.24542 0.18946 0.45071 0.0
O85 O 0.26066 0.11894 0.46273 0.0
O86 O 0.19084 0.03756 0.44383 0.0
O87 O 0.16108 0.1179 0.4408 0.0
C88 C 0.25217 0.12383 0.41343 0.0
O89 O 0.31531 0.03872 0.44382 0.0
O90 O 0.34418 0.11868 0.43963 0.0
In91 In 0.88796 0.74535 0.69148 0.0
O92 O 0.82918 0.74397 0.67332 0.0
O93 O 0.91522 0.74782 0.67002 0.0
C94 C 0.83817 0.75359 0.71534 0.0
C95 C 0.92425 0.84797 0.69233 0.0
C96 C 0.92393 0.64217 0.69395 0.0
O97 O 0.81126 0.7444 0.70461 0.0
O98 O 0.88913 0.75765 0.71387 0.0
O99 O 0.95635 0.6823 0.69429 0.0
O100 O 0.87436 0.65458 0.69242 0.0
C101 C 0.86808 0.74689 0.66491 0.0
O102 O 0.95653 0.80777 0.69345 0.0
O103 O 0.87459 0.83581 0.69071 0.0
In104 In 0.74547 0.61248 0.80942 0.0
O105 O 0.73659 0.67281 0.82723 0.0
O106 O 0.7661 0.59267 0.83084 0.0
C107 C 0.73164 0.66582 0.78608 0.0
C108 C 0.64997 0.55977 0.81007 0.0
C109 C 0.84786 0.57745 0.8049 0.0
O110 O 0.74713 0.69023 0.79668 0.0
O111 O 0.72275 0.61569 0.78744 0.0
O112 O 0.80813 0.54495 0.80595 0.0
O113 O 0.83551 0.62712 0.8059 0.0
C114 C 0.75386 0.63835 0.83573 0.0
O115 O 0.69467 0.53521 0.80812 0.0
O116 O 0.65393 0.61045 0.81191 0.0
In117 In 0.40274 0.26974 0.05817 0.0
O118 O 0.3542 0.26478 0.07819 0.0
O119 O 0.43663 0.29107 0.07852 0.0
C120 C 0.32961 0.26204 0.03797 0.0
C121 C 0.4518 0.17235 0.0575 0.0
C122 C 0.44828 0.36508 0.05111 0.0
O123 O 0.31726 0.28281 0.04925 0.0
O124 O 0.3777 0.24435 0.03716 0.0
O125 O 0.47409 0.32065 0.05064 0.0
O126 O 0.39937 0.36111 0.0549 0.0
C127 C 0.39432 0.28072 0.08519 0.0
O128 O 0.47627 0.21576 0.05442 0.0
O129 O 0.40251 0.17818 0.06091 0.0
In130 In 0.74032 0.8845 0.30676 0.0
O131 O 0.74085 0.83911 0.32711 0.0
O132 O 0.73331 0.92567 0.32675 0.0
C133 C 0.74409 0.82064 0.28498 0.0
C134 C 0.84359 0.91894 0.30518 0.0
C135 C 0.63781 0.91905 0.30237 0.0
O136 O 0.7342 0.8012 0.2966 0.0
O137 O 0.75257 0.87126 0.2846 0.0
O138 O 0.67833 0.9507 0.30111 0.0
O139 O 0.64958 0.87091 0.30571 0.0
C140 C 0.73599 0.88298 0.33378 0.0
O141 O 0.80369 0.95043 0.30276 0.0
O142 O 0.8309 0.87082 0.30837 0.0
In143 In 0.11296 0.25657 0.55787 0.0
O144 O 0.03839 0.31021 0.55511 0.0
O145 O 0.1146 0.34902 0.55874 0.0
C146 C 0.06274 0.1612 0.55292 0.0
C147 C 0.13346 0.25167 0.58465 0.0
C148 C 0.18056 0.25464 0.53648 0.0
O149 O 0.03772 0.20607 0.55266 0.0
O150 O 0.11291 0.16463 0.55557 0.0
O151 O 0.19515 0.23783 0.54798 0.0
O152 O 0.13307 0.27412 0.53599 0.0
C153 C 0.06402 0.35424 0.55669 0.0
O154 O 0.16995 0.26595 0.57638 0.0
O155 O 0.08839 0.23998 0.57932 0.0
In156 In 0.75229 0.88802 0.44081 0.0
O157 O 0.6901 0.95719 0.44373 0.0
O158 O 0.66085 0.87616 0.44127 0.0
C159 C 0.85566 0.92637 0.44258 0.0
C160 C 0.74829 0.86717 0.41419 0.0
C161 C 0.75465 0.82917 0.46356 0.0
O162 O 0.81471 0.95746 0.44392 0.0
O163 O 0.84394 0.87727 0.44038 0.0
O164 O 0.76042 0.80738 0.45205 0.0
O165 O 0.74701 0.87996 0.46345 0.0
C166 C 0.64923 0.92572 0.44299 0.0
O167 O 0.74903 0.82905 0.42278 0.0
O168 O 0.74995 0.91446 0.41912 0.0
In169 In 0.09792 0.24443 0.69174 0.0
O170 O 0.14862 0.24394 0.67216 0.0
O171 O 0.06144 0.24338 0.67117 0.0
C172 C 0.15325 0.23984 0.71492 0.0
C173 C 0.06401 0.14122 0.69303 0.0
C174 C 0.06297 0.3477 0.69433 0.0
O175 O 0.17743 0.24907 0.70382 0.0
O176 O 0.10228 0.23321 0.71413 0.0
O177 O 0.03079 0.30766 0.69564 0.0
O178 O 0.11188 0.3351 0.69185 0.0
C179 C 0.10605 0.2427 0.66483 0.0
O180 O 0.03156 0.18086 0.69489 0.0
O181 O 0.11296 0.15417 0.69061 0.0
In182 In 0.75446 0.58263 0.94152 0.0
O183 O 0.76121 0.6421 0.92353 0.0
O184 O 0.76196 0.55658 0.91996 0.0
C185 C 0.7618 0.63943 0.9646 0.0
C186 C 0.85045 0.53087 0.94341 0.0
C187 C 0.64999 0.5485 0.94307 0.0
O188 O 0.75417 0.66287 0.95337 0.0
O189 O 0.7657 0.58838 0.96402 0.0
O190 O 0.68985 0.51649 0.94464 0.0
O191 O 0.66303 0.59714 0.94072 0.0
C192 C 0.76498 0.6037 0.91505 0.0
O193 O 0.80539 0.50591 0.94419 0.0
O194 O 0.84669 0.58178 0.94188 0.0
In195 In 0.39997 0.25659 0.19166 0.0
O196 O 0.33863 0.25657 0.17402 0.0
O197 O 0.424 0.26097 0.16993 0.0
C198 C 0.35044 0.26036 0.21566 0.0
C199 C 0.43655 0.35932 0.19291 0.0
C200 C 0.43702 0.15327 0.19316 0.0
O201 O 0.32363 0.2533 0.20483 0.0
O202 O 0.40136 0.26517 0.21423 0.0
O203 O 0.46922 0.19357 0.19351 0.0
O204 O 0.38725 0.16557 0.19211 0.0
C205 C 0.37612 0.26019 0.16526 0.0
O206 O 0.46882 0.31898 0.19366 0.0
O207 O 0.38675 0.34727 0.19156 0.0
H208 H 0.88272 0.02234 0.3041 0.0
H209 H 0.93355 0.85444 0.3048 0.0
H210 H 0.02899 0.88215 0.30429 0.0
H211 H 0.0984 0.95419 0.30421 0.0
H212 H 0.04763 0.12212 0.30457 0.0
H213 H 0.95216 0.09441 0.30408 0.0
C214 C 0.91474 0.99189 0.30407 0.0
C215 C 0.9011 0.93649 0.30448 0.0
C216 C 0.96966 0.00812 0.304 0.0
C217 C 0.94299 0.89743 0.30453 0.0
C218 C 0.99762 0.9132 0.30423 0.0
C219 C 0.0664 0.98464 0.30412 0.0
C220 C 0.08005 0.04005 0.30442 0.0
C221 C 0.01148 0.96843 0.30405 0.0
C222 C 0.03817 0.07913 0.30439 0.0
C223 C 0.98353 0.06335 0.30409 0.0
H224 H 0.91392 0.56241 0.55727 0.0
H225 H 0.07049 0.64161 0.55532 0.0
H226 H 0.11618 0.55331 0.5551 0.0
H227 H 0.11163 0.45359 0.55576 0.0
H228 H 0.95491 0.3744 0.55695 0.0
H229 H 0.90924 0.46269 0.55713 0.0
C230 C 0.95803 0.56027 0.55679 0.0
C231 C 0.98883 0.60834 0.55637 0.0
C232 C 0.98397 0.50942 0.55653 0.0
C233 C 0.04591 0.60509 0.55564 0.0
C234 C 0.07207 0.55465 0.55554 0.0
C235 C 0.06749 0.45573 0.55605 0.0
C236 C 0.03668 0.40766 0.5564 0.0
C237 C 0.04151 0.50657 0.55602 0.0
C238 C 0.97951 0.41091 0.55666 0.0
C239 C 0.95337 0.46134 0.55679 0.0
H240 H 0.55023 0.60678 0.80939 0.0
H241 H 0.63048 0.45062 0.80959 0.0
H242 H 0.5421 0.40496 0.80842 0.0
H243 H 0.44226 0.4096 0.80735 0.0
H244 H 0.36217 0.56585 0.8066 0.0
H245 H 0.4505 0.61145 0.8079 0.0
C246 C 0.54836 0.56274 0.80923 0.0
C247 C 0.59671 0.53205 0.80965 0.0
C248 C 0.49756 0.53688 0.80839 0.0
C249 C 0.59376 0.47508 0.80931 0.0
C250 C 0.54329 0.44899 0.80862 0.0
C251 C 0.44414 0.45364 0.80744 0.0
C252 C 0.3958 0.48435 0.80689 0.0
C253 C 0.49497 0.4795 0.80815 0.0
C254 C 0.39884 0.54134 0.80698 0.0
C255 C 0.44929 0.56741 0.80776 0.0
H256 H 0.40358 0.0736 0.05906 0.0
H257 H 0.5602 0.15125 0.0548 0.0
H258 H 0.6049 0.06249 0.05405 0.0
H259 H 0.59936 0.96291 0.05455 0.0
H260 H 0.44243 0.88521 0.05796 0.0
H261 H 0.39786 0.97399 0.05909 0.0
C262 C 0.44751 0.07104 0.058 0.0
C263 C 0.47862 0.11876 0.05703 0.0
C264 C 0.4728 0.01995 0.05741 0.0
C265 C 0.53541 0.11498 0.05555 0.0
C266 C 0.56099 0.06429 0.05513 0.0
C267 C 0.55541 0.96547 0.05556 0.0
C268 C 0.5242 0.91773 0.05622 0.0
C269 C 0.53007 0.01655 0.05605 0.0
C270 C 0.46729 0.9215 0.05742 0.0
C271 C 0.4418 0.97219 0.05808 0.0
H272 H 0.0575 0.37873 0.94204 0.0
H273 H 0.13888 0.53409 0.94266 0.0
H274 H 0.0508 0.58057 0.94358 0.0
H275 H 0.95076 0.57699 0.94381 0.0
H276 H 0.86945 0.42156 0.9436 0.0
H277 H 0.95754 0.37509 0.94299 0.0
C278 C 0.05595 0.42277 0.94237 0.0
C279 C 0.10458 0.45297 0.94221 0.0
C280 C 0.00525 0.44914 0.943 0.0
C281 C 0.10198 0.50996 0.94276 0.0
C282 C 0.05166 0.53654 0.94328 0.0
C283 C 0.95232 0.53293 0.94368 0.0
C284 C 0.90368 0.50274 0.94371 0.0
C285 C 0.00306 0.50654 0.94335 0.0
C286 C 0.90634 0.44571 0.94359 0.0
C287 C 0.95667 0.41913 0.94321 0.0
H288 H 0.54079 0.39797 0.19257 0.0
H289 H 0.37284 0.4496 0.19432 0.0
H290 H 0.40119 0.54456 0.19443 0.0
H291 H 0.47358 0.6135 0.19337 0.0
H292 H 0.64142 0.56206 0.19096 0.0
H293 H 0.61334 0.46701 0.19182 0.0
C294 C 0.51048 0.43003 0.19304 0.0
C295 C 0.45484 0.41665 0.19341 0.0
C296 C 0.52703 0.48479 0.19296 0.0
C297 C 0.416 0.45871 0.19398 0.0
C298 C 0.43213 0.51313 0.19405 0.0
C299 C 0.50397 0.58147 0.19312 0.0
C300 C 0.55945 0.59489 0.1921 0.0
C301 C 0.48751 0.52672 0.19345 0.0
C302 C 0.59837 0.55288 0.19171 0.0
C303 C 0.58238 0.49843 0.1922 0.0
H304 H 0.3943 0.96561 0.44425 0.0
H305 H 0.4473 0.13242 0.44177 0.0
H306 H 0.54234 0.1033 0.44231 0.0
H307 H 0.6111 0.03021 0.44287 0.0
H308 H 0.5581 0.86328 0.44471 0.0
H309 H 0.46309 0.89256 0.44508 0.0
C310 C 0.42666 0.99555 0.4439 0.0
C311 C 0.41356 0.05109 0.44296 0.0
C312 C 0.48153 0.97849 0.44407 0.0
C313 C 0.4561 0.08935 0.44245 0.0
C314 C 0.5106 0.07276 0.44277 0.0
C315 C 0.57875 0.00031 0.44343 0.0
C316 C 0.59183 0.94466 0.44375 0.0
C317 C 0.52389 0.01741 0.44348 0.0
C318 C 0.5493 0.90642 0.44441 0.0
C319 C 0.49482 0.9231 0.44463 0.0
H320 H 0.96045 0.10198 0.69419 0.0
H321 H 0.12868 0.05127 0.69259 0.0
H322 H 0.10079 0.95607 0.69255 0.0
H323 H 0.02836 0.88682 0.69253 0.0
H324 H 0.86013 0.93795 0.69346 0.0
H325 H 0.8882 0.03293 0.6942 0.0
C326 C 0.99096 0.07007 0.69389 0.0
C327 C 0.04649 0.08371 0.6934 0.0
C328 C 0.97464 0.01531 0.69371 0.0
C329 C 0.08559 0.04189 0.69295 0.0
C330 C 0.06971 0.98737 0.69292 0.0
C331 C 0.99793 0.91878 0.69293 0.0
C332 C 0.9423 0.90529 0.69293 0.0
C333 C 0.01433 0.97355 0.69323 0.0
C334 C 0.90328 0.94719 0.69341 0.0
C335 C 0.91925 0.00159 0.69385 0.0
H336 H 0.59843 0.02248 0.30023 0.0
H337 H 0.5482 0.85454 0.30091 0.0
H338 H 0.45274 0.88205 0.29992 0.0
H339 H 0.38293 0.95396 0.3002 0.0
H340 H 0.43311 0.12195 0.30034 0.0
H341 H 0.52859 0.0944 0.2996 0.0
C342 C 0.56658 0.99197 0.30003 0.0
C343 C 0.58044 0.93661 0.3007 0.0
C344 C 0.51152 0.00809 0.29967 0.0
C345 C 0.53866 0.89751 0.30048 0.0
C346 C 0.48397 0.91316 0.29992 0.0
C347 C 0.41478 0.98447 0.29993 0.0
C348 C 0.40088 0.03985 0.30038 0.0
C349 C 0.46983 0.96835 0.29971 0.0
C350 C 0.44266 0.07896 0.30007 0.0
C351 C 0.49737 0.06328 0.29965 0.0
H352 H 0.9125 0.95405 0.55096 0.0
H353 H 0.06918 0.87448 0.54933 0.0
H354 H 0.11467 0.96274 0.54865 0.0
H355 H 0.11008 0.06228 0.55013 0.0
H356 H 0.95344 0.14193 0.55163 0.0
H357 H 0.90769 0.0538 0.55066 0.0
C358 C 0.95658 0.95606 0.55033 0.0
C359 C 0.98749 0.90789 0.55031 0.0
C360 C 0.98243 0.00688 0.54999 0.0
C361 C 0.04451 0.91102 0.54938 0.0
C362 C 0.07055 0.96145 0.54904 0.0
C363 C 0.06592 0.06034 0.55014 0.0
C364 C 0.03515 0.10843 0.55108 0.0
C365 C 0.03996 0.0096 0.5496 0.0
C366 C 0.978 0.10542 0.55095 0.0
C367 C 0.95183 0.05506 0.55043 0.0
H368 H 0.10199 0.54035 0.80153 0.0
H369 H 0.05183 0.3742 0.80771 0.0
H370 H 0.95632 0.402 0.80736 0.0
H371 H 0.88693 0.47403 0.80619 0.0
H372 H 0.93718 0.64043 0.8005 0.0
H373 H 0.03247 0.61201 0.79967 0.0
C374 C 0.07013 0.51023 0.80274 0.0
C375 C 0.08401 0.45536 0.80469 0.0
C376 C 0.01521 0.52654 0.80262 0.0
C377 C 0.04226 0.41677 0.80623 0.0
C378 C 0.98759 0.43261 0.80603 0.0
C379 C 0.91872 0.50397 0.80465 0.0
C380 C 0.905 0.55922 0.80343 0.0
C381 C 0.97357 0.48744 0.80435 0.0
C382 C 0.94667 0.5976 0.8015 0.0
C383 C 1.00121 0.58143 0.80104 0.0
H384 H 0.59591 0.57297 0.04599 0.0
H385 H 0.43973 0.65201 0.05013 0.0
H386 H 0.39419 0.56371 0.04995 0.0
H387 H 0.39952 0.46401 0.05035 0.0
H388 H 0.55576 0.38502 0.04626 0.0
H389 H 0.60051 0.47342 0.04457 0.0
C390 C 0.55186 0.57086 0.04673 0.0
C391 C 0.52124 0.61884 0.0482 0.0
C392 C 0.52602 0.52002 0.04669 0.0
C393 C 0.46419 0.6156 0.04903 0.0
C394 C 0.43815 0.56514 0.04897 0.0
C395 C 0.4433 0.46616 0.04895 0.0
C396 C 0.47436 0.41813 0.04855 0.0
C397 C 0.46876 0.51708 0.04807 0.0
C398 C 0.53098 0.42146 0.04664 0.0
C399 C 0.55661 0.47197 0.04571 0.0
H400 H 0.39526 0.51122 0.94294 0.0
H401 H 0.44728 0.34437 0.94679 0.0
H402 H 0.54243 0.37315 0.94735 0.0
H403 H 0.61128 0.44551 0.94599 0.0
H404 H 0.55936 0.61216 0.94156 0.0
H405 H 0.46409 0.58375 0.94199 0.0
C406 C 0.42743 0.48124 0.944 0.0
C407 C 0.4142 0.42578 0.94481 0.0
C408 C 0.4822 0.49802 0.94414 0.0
C409 C 0.45636 0.38736 0.94611 0.0
C410 C 0.51083 0.40375 0.94642 0.0
C411 C 0.57909 0.47558 0.94517 0.0
C412 C 0.59242 0.53081 0.94372 0.0
C413 C 0.52429 0.45893 0.94532 0.0
C414 C 0.55023 0.56932 0.94265 0.0
C415 C 0.49569 0.55314 0.9429 0.0
H416 H 0.47273 0.8984 0.19393 0.0
H417 H 0.64 0.94833 0.18902 0.0
H418 H 0.61269 0.04359 0.18995 0.0
H419 H 0.54092 0.11346 0.19154 0.0
H420 H 0.37337 0.06354 0.19583 0.0
H421 H 0.40107 0.96829 0.19581 0.0
C422 C 0.50317 0.93015 0.19313 0.0
C423 C 0.55828 0.91612 0.19139 0.0
C424 C 0.48713 0.98516 0.19354 0.0
C425 C 0.59722 0.95786 0.19032 0.0
C426 C 0.58168 0.01249 0.19086 0.0
C427 C 0.51057 0.08172 0.19255 0.0
C428 C 0.45519 0.09573 0.19367 0.0
C429 C 0.5267 0.02672 0.19237 0.0
C430 C 0.41632 0.054 0.19491 0.0
C431 C 0.43209 0.99939 0.1949 0.0
H432 H 0.89445 0.03057 0.44438 0.0
H433 H 0.9467 0.86327 0.44243 0.0
H434 H 0.04183 0.89165 0.44293 0.0
H435 H 0.1111 0.96424 0.44325 0.0
H436 H 0.05886 0.13162 0.44462 0.0
H437 H 0.96374 0.1031 0.44508 0.0
C438 C 0.92667 0.00038 0.44413 0.0
C439 C 0.91326 0.9449 0.44334 0.0
C440 C 0.98169 0.017 0.4443 0.0
C441 C 0.95567 0.90631 0.44299 0.0
C442 C 0.01027 0.92247 0.44328 0.0
C443 C 0.07888 0.99439 0.44374 0.0
C444 C 0.09226 0.04996 0.44388 0.0
C445 C 0.02388 0.97773 0.44384 0.0
C446 C 0.04988 0.08852 0.44445 0.0
C447 C 0.9953 0.07228 0.44471 0.0
H448 H 0.95924 0.38755 0.69599 0.0
H449 H 0.12761 0.43741 0.69444 0.0
H450 H 0.10007 0.53271 0.69468 0.0
H451 H 0.02796 0.60246 0.69454 0.0
H452 H 0.85954 0.55252 0.69556 0.0
H453 H 0.8872 0.45733 0.69635 0.0
C454 C 0.98986 0.4193 0.6958 0.0
C455 C 0.04535 0.40528 0.69518 0.0
C456 C 0.97373 0.47426 0.69579 0.0
C457 C 0.08455 0.44698 0.69488 0.0
C458 C 0.06887 0.5016 0.69501 0.0
C459 C 0.99738 0.57074 0.69501 0.0
C460 C 0.94181 0.58469 0.69496 0.0
C461 C 0.01355 0.5158 0.69534 0.0
C462 C 0.90265 0.54301 0.69554 0.0
C463 C 0.9184 0.48844 0.69599 0.0
H464 H 0.24627 0.18229 0.35107 0.0
H465 H 0.24994 0.00691 0.34873 0.0
H466 H 0.25253 0.0007 0.37312 0.0
H467 H 0.25317 0.0436 0.39508 0.0
H468 H 0.2501 0.21831 0.39849 0.0
H469 H 0.24799 0.22625 0.37377 0.0
C470 C 0.24768 0.14286 0.35594 0.0
C471 C 0.24785 0.0952 0.34805 0.0
C472 C 0.24928 0.13934 0.37015 0.0
C473 C 0.24977 0.04432 0.3545 0.0
C474 C 0.25124 0.04059 0.36849 0.0
C475 C 0.25206 0.08356 0.39046 0.0
C476 C 0.25167 0.13027 0.39859 0.0
C477 C 0.25091 0.08767 0.37639 0.0
C478 C 0.2504 0.18168 0.39242 0.0
C479 C 0.24916 0.18619 0.3783 0.0
H480 H 0.81737 0.73597 0.6022 0.0
H481 H 0.97785 0.8081 0.60146 0.0
H482 H 0.98028 0.8097 0.62591 0.0
H483 H 0.94013 0.78698 0.64742 0.0
H484 H 0.77981 0.71615 0.64935 0.0
H485 H 0.77374 0.71801 0.62454 0.0
C486 C 0.85255 0.75236 0.60744 0.0
C487 C 0.89757 0.77137 0.59999 0.0
C488 C 0.85389 0.75319 0.62168 0.0
C489 C 0.94282 0.79275 0.6069 0.0
C490 C 0.94436 0.79374 0.62091 0.0
C491 C 0.9037 0.77196 0.64244 0.0
C492 C 0.86079 0.75082 0.65014 0.0
C493 C 0.90063 0.77336 0.62837 0.0
C494 C 0.81347 0.73248 0.64358 0.0
C495 C 0.81013 0.73342 0.62942 0.0
H496 H 0.22455 0.30344 0.85123 0.0
H497 H 0.30827 0.45751 0.84959 0.0
H498 H 0.31994 0.45691 0.87393 0.0
H499 H 0.30076 0.41735 0.89567 0.0
H500 H 0.21372 0.26574 0.89859 0.0
H501 H 0.20925 0.26023 0.8738 0.0
C502 C 0.24586 0.33632 0.85626 0.0
C503 C 0.2651 0.38071 0.84868 0.0
C504 C 0.25144 0.33641 0.87045 0.0
C505 C 0.2925 0.42328 0.85525 0.0
C506 C 0.29929 0.42299 0.86916 0.0
C507 C 0.28099 0.3828 0.89093 0.0
C508 C 0.25712 0.34232 0.89893 0.0
C509 C 0.2779 0.38052 0.87686 0.0
C510 C 0.23231 0.29754 0.89261 0.0
C511 C 0.22961 0.29452 0.87846 0.0
H512 H 0.56255 0.71643 0.09977 0.0
H513 H 0.72009 0.79114 0.09478 0.0
H514 H 0.7328 0.79187 0.11941 0.0
H515 H 0.69543 0.77607 0.14252 0.0
H516 H 0.53551 0.70473 0.14642 0.0
H517 H 0.5276 0.69775 0.12206 0.0
C518 C 0.59994 0.73264 0.10402 0.0
C519 C 0.64016 0.754 0.09548 0.0
C520 C 0.60637 0.73373 0.11803 0.0
C521 C 0.68846 0.77449 0.10117 0.0
C522 C 0.69562 0.77505 0.11524 0.0
C523 C 0.65923 0.7586 0.13798 0.0
C524 C 0.61594 0.74135 0.14625 0.0
C525 C 0.65437 0.75552 0.1238 0.0
C526 C 0.56913 0.71888 0.14028 0.0
C527 C 0.56453 0.71474 0.12634 0.0
H528 H 0.80963 0.57797 0.85338 0.0
H529 H 0.70708 0.72001 0.851 0.0
H530 H 0.70578 0.72604 0.8758 0.0
H531 H 0.72701 0.68425 0.89822 0.0
H532 H 0.82564 0.53896 0.89942 0.0
H533 H 0.83567 0.54108 0.87503 0.0
C534 C 0.78728 0.61063 0.85825 0.0
C535 C 0.75793 0.64806 0.85042 0.0
C536 C 0.78589 0.613 0.87233 0.0
C537 C 0.72989 0.69059 0.85686 0.0
C538 C 0.72896 0.69383 0.87102 0.0
C539 C 0.75132 0.65377 0.89309 0.0
C540 C 0.77519 0.61122 0.90054 0.0
C541 C 0.75578 0.65436 0.87889 0.0
C542 C 0.8064 0.57168 0.89385 0.0
C543 C 0.8122 0.57284 0.87991 0.0
H544 H 0.44593 0.29902 0.14701 0.0
H545 H 0.28461 0.23162 0.15067 0.0
H546 H 0.27405 0.23405 0.12596 0.0
H547 H 0.31394 0.25127 0.10318 0.0
H548 H 0.4756 0.31999 0.10066 0.0
H549 H 0.48254 0.32129 0.12506 0.0
C550 C 0.4083 0.28491 0.14243 0.0
C551 C 0.36639 0.26454 0.15059 0.0
C552 C 0.40267 0.28663 0.1284 0.0
C553 C 0.31754 0.24733 0.14454 0.0
C554 C 0.31162 0.2486 0.13044 0.0
C555 C 0.35035 0.26694 0.10802 0.0
C556 C 0.39435 0.28503 0.10008 0.0
C557 C 0.35432 0.26757 0.12223 0.0
C558 C 0.44125 0.30541 0.10648 0.0
C559 C 0.44539 0.3062 0.12046 0.0
H560 H 0.74741 0.80031 0.35233 0.0
H561 H 0.7211 0.9734 0.34873 0.0
H562 H 0.72183 0.98284 0.37308 0.0
H563 H 0.73196 0.94364 0.39533 0.0
H564 H 0.75766 0.77128 0.39997 0.0
H565 H 0.75501 0.75982 0.37532 0.0
C566 C 0.74162 0.83992 0.35692 0.0
C567 C 0.73448 0.88606 0.34869 0.0
C568 C 0.74213 0.84533 0.3711 0.0
C569 C 0.72693 0.93718 0.35478 0.0
C570 C 0.72733 0.94275 0.36873 0.0
C571 C 0.73699 0.90345 0.39099 0.0
C572 C 0.74533 0.85845 0.39944 0.0
C573 C 0.7353 0.89731 0.37696 0.0
C574 C 0.75126 0.80661 0.39364 0.0
C575 C 0.7498 0.8001 0.37957 0.0
H576 H 0.19023 0.26351 0.64713 0.0
H577 H 0.02171 0.21345 0.64909 0.0
H578 H 0.01681 0.20995 0.62468 0.0
H579 H 0.058 0.2236 0.60285 0.0
H580 H 0.22506 0.27615 0.59971 0.0
H581 H 0.23303 0.27599 0.62446 0.0
C582 C 0.1527 0.25159 0.64216 0.0
C583 C 0.10635 0.23906 0.64994 0.0
C584 C 0.14975 0.25024 0.62793 0.0
C585 C 0.05788 0.22377 0.64338 0.0
C586 C 0.05494 0.22163 0.6294 0.0
C587 C 0.09637 0.23488 0.60753 0.0
C588 C 0.14081 0.24998 0.59947 0.0
C589 C 0.10031 0.23525 0.6216 0.0
C590 C 0.19018 0.2644 0.60572 0.0
C591 C 0.19469 0.26436 0.61986 0.0
H592 H 0.30306 0.2344 0.27736 0.0
H593 H 0.17435 0.13389 0.26146 0.0
H594 H 0.19321 0.16634 0.23864 0.0
H595 H 0.25595 0.21146 0.22294 0.0
H596 H 0.39086 0.30401 0.23873 0.0
H597 H 0.35989 0.2873 0.26177 0.0
C598 C 0.27817 0.22105 0.26892 0.0
C599 C 0.23752 0.18195 0.271 0.0
C600 C 0.29107 0.2378 0.25576 0.0
C601 C 0.20598 0.16403 0.26002 0.0
C602 C 0.21694 0.1823 0.24698 0.0
C603 C 0.27769 0.22899 0.23143 0.0
C604 C 0.32575 0.25844 0.2292 0.0
C605 C 0.26088 0.21739 0.24466 0.0
C606 C 0.35395 0.2807 0.24025 0.0
C607 C 0.33633 0.27112 0.25342 0.0
H608 H 0.718 0.85802 0.48827 0.0
H609 H 0.80972 0.7342 0.46742 0.0
H610 H 0.8387 0.69568 0.48903 0.0
H611 H 0.84876 0.70614 0.5136 0.0
H612 H 0.75665 0.82974 0.53445 0.0
H613 H 0.71598 0.85883 0.51309 0.0
C614 C 0.74347 0.82195 0.48848 0.0
C615 C 0.76253 0.79944 0.47632 0.0
C616 C 0.76009 0.8003 0.50092 0.0
C617 C 0.79477 0.75229 0.47667 0.0
C618 C 0.81158 0.73049 0.48902 0.0
C619 C 0.81881 0.73862 0.51349 0.0
C620 C 0.80629 0.76637 0.52551 0.0
C621 C 0.79612 0.75543 0.50118 0.0
C622 C 0.76699 0.80789 0.52531 0.0
C623 C 0.74408 0.8248 0.51309 0.0
H624 H 0.23891 0.30263 0.72234 0.0
H625 H 0.12587 0.18313 0.73729 0.0
H626 H 0.15579 0.2005 0.76042 0.0
H627 H 0.20284 0.26029 0.77653 0.0
H628 H 0.30845 0.38647 0.7616 0.0
H629 H 0.29365 0.35564 0.73845 0.0
C630 C 0.22213 0.27939 0.73065 0.0
C631 C 0.18024 0.24192 0.72819 0.0
C632 C 0.23773 0.29141 0.74398 0.0
C633 C 0.15807 0.21245 0.73901 0.0
C634 C 0.17498 0.2225 0.75223 0.0
C635 C 0.22372 0.27994 0.76822 0.0
C636 C 0.25634 0.32565 0.7707 0.0
C637 C 0.21312 0.26349 0.75488 0.0
C638 C 0.28279 0.35132 0.75987 0.0
C639 C 0.27423 0.33385 0.74663 0.0
H640 H 0.71185 0.73489 0.97071 0.0
H641 H 0.809 0.60611 0.98787 0.0
H642 H 0.79363 0.64219 0.01051 0.0
H643 H 0.74109 0.70146 0.02552 0.0
H644 H 0.63687 0.82501 0.00853 0.0
H645 H 0.66708 0.80079 0.9858 0.0
C646 C 0.7307 0.71568 0.9794 0.0
C647 C 0.76108 0.6678 0.97769 0.0
C648 C 0.71991 0.73544 0.99244 0.0
C649 C 0.78502 0.64284 0.989 0.0
C650 C 0.77617 0.66336 0.00194 0.0
C651 C 0.72615 0.724 0.01686 0.0
C652 C 0.68659 0.7646 0.01865 0.0
C653 C 0.74196 0.70834 0.00382 0.0
C654 C 0.66718 0.79329 0.00736 0.0
C655 C 0.68423 0.77931 0.99437 0.0
H656 H 0.3383 0.20301 0.01506 0.0
H657 H 0.24368 0.33036 0.03371 0.0
H658 H 0.2024 0.35236 0.01189 0.0
H659 H 0.20594 0.3456 0.98715 0.0
H660 H 0.30174 0.21924 0.96846 0.0
H661 H 0.32916 0.18582 0.99071 0.0
C662 C 0.30763 0.2347 0.01439 0.0
C663 C 0.29468 0.26572 0.02588 0.0
C664 C 0.28483 0.24761 0.0018 0.0
C665 C 0.2544 0.30611 0.02497 0.0
C666 C 0.23115 0.31896 0.01248 0.0
C667 C 0.23179 0.30994 0.98797 0.0
C668 C 0.25266 0.28544 0.97623 0.0
C669 C 0.24796 0.29158 0.00076 0.0
C670 C 0.2854 0.23886 0.97737 0.0
C671 C 0.30139 0.22003 0.99008 0.0
H672 H 0.79374 0.84117 0.26125 0.0
H673 H 0.68163 0.73093 0.28048 0.0
H674 H 0.65521 0.69446 0.25842 0.0
H675 H 0.65315 0.70544 0.23374 0.0
H676 H 0.76556 0.81528 0.21449 0.0
H677 H 0.80361 0.83998 0.23653 0.0
C678 C 0.76452 0.8082 0.2606 0.0
C679 C 0.73892 0.78923 0.27238 0.0
C680 C 0.74927 0.78795 0.24792 0.0
C681 C 0.70174 0.74611 0.27151 0.0
C682 C 0.68632 0.72564 0.25891 0.0
C683 C 0.68686 0.73384 0.23438 0.0
C684 C 0.70607 0.7593 0.22261 0.0
C685 C 0.70812 0.74796 0.24705 0.0
C686 C 0.75017 0.79536 0.22346 0.0
C687 C 0.77158 0.80974 0.23605 0.0
H688 H 0.29394 0.14577 0.48698 0.0
H689 H 0.19704 0.26457 0.46576 0.0
H690 H 0.1716 0.30693 0.4872 0.0
H691 H 0.16654 0.30138 0.51197 0.0
H692 H 0.26409 0.18288 0.53315 0.0
H693 H 0.30065 0.14981 0.51173 0.0
C694 C 0.26809 0.18158 0.48706 0.0
C695 C 0.2466 0.20159 0.47488 0.0
C696 C 0.25357 0.20548 0.4994 0.0
C697 C 0.21387 0.24841 0.47504 0.0
C698 C 0.19909 0.27241 0.4873 0.0
C699 C 0.19675 0.26914 0.5119 0.0
C700 C 0.21203 0.24399 0.52407 0.0
C701 C 0.21713 0.25003 0.49955 0.0
C702 C 0.25163 0.20275 0.52389 0.0
C703 C 0.27221 0.18356 0.51164 0.0
H704 H 0.74613 0.70335 0.72395 0.0
H705 H 0.87676 0.80794 0.73707 0.0
H706 H 0.84766 0.7985 0.76049 0.0
H707 H 0.79477 0.74866 0.77742 0.0
H708 H 0.67049 0.63646 0.76446 0.0
H709 H 0.68629 0.66138 0.74091 0.0
C710 C 0.76721 0.72509 0.73193 0.0
C711 C 0.81367 0.75582 0.72888 0.0
C712 C 0.75159 0.71768 0.74545 0.0
C713 C 0.84111 0.78355 0.73926 0.0
C714 C 0.82457 0.77814 0.75265 0.0
C715 C 0.77008 0.73104 0.76945 0.0
C716 C 0.73179 0.69076 0.77258 0.0
C717 C 0.78124 0.74359 0.75591 0.0
C718 C 0.70042 0.66749 0.7622 0.0
C719 C 0.70964 0.68148 0.74875 0.0
loop_
_geom_bond_atom_site_label_1
_geom_bond_atom_site_label_2
_geom_bond_distance
_geom_bond_site_symmetry_2
_ccdc_geom_bond_type
In0 O1 2.294 . S
In0 O2 2.326 . S
In0 O6 2.266 . S
In0 O7 2.326 . S
In0 O8 2.266 . S
In0 O9 2.326 . S
In0 O11 2.294 . S
In0 O12 2.326 . S
O1 In0 2.294 . S
O1 C10 1.240 . S
O2 In0 2.326 . S
O2 C10 1.252 . S
C3 O6 1.252 . S
C3 O7 1.260 . S
C4 O11 1.240 . S
C4 O12 1.252 . S
C5 O8 1.252 . S
C5 O9 1.260 . S
O6 In0 2.266 . S
O6 C3 1.252 . S
O7 In0 2.326 . S
O7 C3 1.260 . S
O8 In0 2.266 . S
O8 C5 1.252 . S
O9 In0 2.326 . S
O9 C5 1.260 . S
C10 O1 1.240 . S
C10 O2 1.252 . S
O11 In0 2.294 . S
O11 C4 1.240 . S
O12 In0 2.326 . S
O12 C4 1.252 . S
In13 O14 2.294 . S
In13 O15 2.326 . S
In13 O19 2.266 . S
In13 O20 2.326 . S
In13 O21 2.266 . S
In13 O22 2.326 . S
In13 O24 2.294 . S
In13 O25 2.326 . S
O14 In13 2.294 . S
O14 C23 1.240 . S
O15 In13 2.326 . S
O15 C23 1.252 . S
C16 O19 1.252 . S
C16 O20 1.260 . S
C17 O24 1.240 . S
C17 O25 1.252 . S
C18 O21 1.252 . S
C18 O22 1.260 . S
O19 In13 2.266 . S
O19 C16 1.252 . S
O20 In13 2.326 . S
O20 C16 1.260 . S
O21 In13 2.266 . S
O21 C18 1.252 . S
O22 In13 2.326 . S
O22 C18 1.260 . S
C23 O14 1.240 . S
C23 O15 1.252 . S
O24 In13 2.294 . S
O24 C17 1.240 . S
O25 In13 2.326 . S
O25 C17 1.252 . S
In26 O27 2.294 . S
In26 O28 2.326 . S
In26 O32 2.266 . S
In26 O33 2.326 . S
In26 O34 2.266 . S
In26 O35 2.326 . S
In26 O37 2.294 . S
In26 O38 2.326 . S
O27 In26 2.294 . S
O27 C36 1.240 . S
O28 In26 2.326 . S
O28 C36 1.252 . S
C29 O32 1.252 . S
C29 O33 1.260 . S
C30 O37 1.240 . S
C30 O38 1.252 . S
C31 O34 1.252 . S
C31 O35 1.260 . S
O32 In26 2.266 . S
O32 C29 1.252 . S
O33 In26 2.326 . S
O33 C29 1.260 . S
O34 In26 2.266 . S
O34 C31 1.252 . S
O35 In26 2.326 . S
O35 C31 1.260 . S
C36 O27 1.240 . S
C36 O28 1.252 . S
O37 In26 2.294 . S
O37 C30 1.240 . S
O38 In26 2.326 . S
O38 C30 1.252 . S
In39 O40 2.294 . S
In39 O41 2.326 . S
In39 O45 2.266 . S
In39 O46 2.326 . S
In39 O47 2.266 . S
In39 O48 2.326 . S
In39 O50 2.294 . S
In39 O51 2.326 . S
O40 In39 2.294 . S
O40 C49 1.240 . S
O41 In39 2.326 . S
O41 C49 1.252 . S
C42 O45 1.252 . S
C42 O46 1.260 . S
C43 O50 1.240 . S
C43 O51 1.252 . S
C44 O47 1.252 . S
C44 O48 1.260 . S
O45 In39 2.266 . S
O45 C42 1.252 . S
O46 In39 2.326 . S
O46 C42 1.260 . S
O47 In39 2.266 . S
O47 C44 1.252 . S
O48 In39 2.326 . S
O48 C44 1.260 . S
C49 O40 1.240 . S
C49 O41 1.252 . S
O50 In39 2.294 . S
O50 C43 1.240 . S
O51 In39 2.326 . S
O51 C43 1.252 . S
In52 O53 2.294 . S
In52 O54 2.326 . S
In52 O58 2.266 . S
In52 O59 2.326 . S
In52 O60 2.266 . S
In52 O61 2.326 . S
In52 O63 2.294 . S
In52 O64 2.326 . S
O53 In52 2.294 . S
O53 C62 1.240 . S
O54 In52 2.326 . S
O54 C62 1.252 . S
C55 O58 1.252 . S
C55 O59 1.260 . S
C56 O63 1.240 . S
C56 O64 1.252 . S
C57 O60 1.252 . S
C57 O61 1.260 . S
O58 In52 2.266 . S
O58 C55 1.252 . S
O59 In52 2.326 . S
O59 C55 1.260 . S
O60 In52 2.266 . S
O60 C57 1.252 . S
O61 In52 2.326 . S
O61 C57 1.260 . S
C62 O53 1.240 . S
C62 O54 1.252 . S
O63 In52 2.294 . S
O63 C56 1.240 . S
O64 In52 2.326 . S
O64 C56 1.252 . S
In65 O66 2.294 . S
In65 O67 2.326 . S
In65 O71 2.266 . S
In65 O72 2.326 . S
In65 O73 2.266 . S
In65 O74 2.326 . S
In65 O76 2.294 . S
In65 O77 2.326 . S
O66 In65 2.294 . S
O66 C75 1.240 . S
O67 In65 2.326 . S
O67 C75 1.252 . S
C68 O71 1.252 . S
C68 O72 1.260 . S
C69 O76 1.240 . S
C69 O77 1.252 . S
C70 O73 1.252 . S
C70 O74 1.260 . S
O71 In65 2.266 . S
O71 C68 1.252 . S
O72 In65 2.326 . S
O72 C68 1.260 . S
O73 In65 2.266 . S
O73 C70 1.252 . S
O74 In65 2.326 . S
O74 C70 1.260 . S
C75 O66 1.240 . S
C75 O67 1.252 . S
O76 In65 2.294 . S
O76 C69 1.240 . S
O77 In65 2.326 . S
O77 C69 1.252 . S
In78 O79 2.294 . S
In78 O80 2.326 . S
In78 O84 2.266 . S
In78 O85 2.326 . S
In78 O86 2.266 . S
In78 O87 2.326 . S
In78 O89 2.294 . S
In78 O90 2.326 . S
O79 In78 2.294 . S
O79 C88 1.240 . S
O80 In78 2.326 . S
O80 C88 1.252 . S
C81 O84 1.252 . S
C81 O85 1.260 . S
C82 O89 1.240 . S
C82 O90 1.252 . S
C83 O86 1.252 . S
C83 O87 1.260 . S
O84 In78 2.266 . S
O84 C81 1.252 . S
O85 In78 2.326 . S
O85 C81 1.260 . S
O86 In78 2.266 . S
O86 C83 1.252 . S
O87 In78 2.326 . S
O87 C83 1.260 . S
C88 O79 1.240 . S
C88 O80 1.252 . S
O89 In78 2.294 . S
O89 C82 1.240 . S
O90 In78 2.326 . S
O90 C82 1.252 . S
In91 O92 2.294 . S
In91 O93 2.326 . S
In91 O97 2.266 . S
In91 O98 2.326 . S
In91 O99 2.266 . S
In91 O100 2.326 . S
In91 O102 2.294 . S
In91 O103 2.326 . S
O92 In91 2.294 . S
O92 C101 1.240 . S
O93 In91 2.326 . S
O93 C101 1.252 . S
C94 O97 1.252 . S
C94 O98 1.260 . S
C95 O102 1.240 . S
C95 O103 1.252 . S
C96 O99 1.252 . S
C96 O100 1.260 . S
O97 In91 2.266 . S
O97 C94 1.252 . S
O98 In91 2.326 . S
O98 C94 1.260 . S
O99 In91 2.266 . S
O99 C96 1.252 . S
O100 In91 2.326 . S
O100 C96 1.260 . S
C101 O92 1.240 . S
C101 O93 1.252 . S
O102 In91 2.294 . S
O102 C95 1.240 . S
O103 In91 2.326 . S
O103 C95 1.252 . S
In104 O105 2.294 . S
In104 O106 2.326 . S
In104 O110 2.266 . S
In104 O111 2.326 . S
In104 O112 2.266 . S
In104 O113 2.326 . S
In104 O115 2.294 . S
In104 O116 2.326 . S
O105 In104 2.294 . S
O105 C114 1.240 . S
O106 In104 2.326 . S
O106 C114 1.252 . S
C107 O110 1.252 . S
C107 O111 1.260 . S
C108 O115 1.240 . S
C108 O116 1.252 . S
C109 O112 1.252 . S
C109 O113 1.260 . S
O110 In104 2.266 . S
O110 C107 1.252 . S
O111 In104 2.326 . S
O111 C107 1.260 . S
O112 In104 2.266 . S
O112 C109 1.252 . S
O113 In104 2.326 . S
O113 C109 1.260 . S
C114 O105 1.240 . S
C114 O106 1.252 . S
O115 In104 2.294 . S
O115 C108 1.240 . S
O116 In104 2.326 . S
O116 C108 1.252 . S
In117 O118 2.294 . S
In117 O119 2.326 . S
In117 O123 2.266 . S
In117 O124 2.326 . S
In117 O125 2.266 . S
In117 O126 2.326 . S
In117 O128 2.294 . S
In117 O129 2.326 . S
O118 In117 2.294 . S
O118 C127 1.240 . S
O119 In117 2.326 . S
O119 C127 1.252 . S
C120 O123 1.252 . S
C120 O124 1.260 . S
C121 O128 1.240 . S
C121 O129 1.252 . S
C122 O125 1.252 . S
C122 O126 1.260 . S
O123 In117 2.266 . S
O123 C120 1.252 . S
O124 In117 2.326 . S
O124 C120 1.260 . S
O125 In117 2.266 . S
O125 C122 1.252 . S
O126 In117 2.326 . S
O126 C122 1.260 . S
C127 O118 1.240 . S
C127 O119 1.252 . S
O128 In117 2.294 . S
O128 C121 1.240 . S
O129 In117 2.326 . S
O129 C121 1.252 . S
In130 O131 2.294 . S
In130 O132 2.326 . S
In130 O136 2.266 . S
In130 O137 2.326 . S
In130 O138 2.266 . S
In130 O139 2.326 . S
In130 O141 2.294 . S
In130 O142 2.326 . S
O131 In130 2.294 . S
O131 C140 1.240 . S
O132 In130 2.326 . S
O132 C140 1.252 . S
C133 O136 1.252 . S
C133 O137 1.260 . S
C134 O141 1.240 . S
C134 O142 1.252 . S
C135 O138 1.252 . S
C135 O139 1.260 . S
O136 In130 2.266 . S
O136 C133 1.252 . S
O137 In130 2.326 . S
O137 C133 1.260 . S
O138 In130 2.266 . S
O138 C135 1.252 . S
O139 In130 2.326 . S
O139 C135 1.260 . S
C140 O131 1.240 . S
C140 O132 1.252 . S
O141 In130 2.294 . S
O141 C134 1.240 . S
O142 In130 2.326 . S
O142 C134 1.252 . S
In143 O144 2.294 . S
In143 O145 2.326 . S
In143 O149 2.266 . S
In143 O150 2.326 . S
In143 O151 2.266 . S
In143 O152 2.326 . S
In143 O154 2.294 . S
In143 O155 2.326 . S
O144 In143 2.294 . S
O144 C153 1.240 . S
O145 In143 2.326 . S
O145 C153 1.252 . S
C146 O149 1.252 . S
C146 O150 1.260 . S
C147 O154 1.240 . S
C147 O155 1.252 . S
C148 O151 1.252 . S
C148 O152 1.260 . S
O149 In143 2.266 . S
O149 C146 1.252 . S
O150 In143 2.326 . S
O150 C146 1.260 . S
O151 In143 2.266 . S
O151 C148 1.252 . S
O152 In143 2.326 . S
O152 C148 1.260 . S
C153 O144 1.240 . S
C153 O145 1.252 . S
O154 In143 2.294 . S
O154 C147 1.240 . S
O155 In143 2.326 . S
O155 C147 1.252 . S
In156 O157 2.294 . S
In156 O158 2.326 . S
In156 O162 2.266 . S
In156 O163 2.326 . S
In156 O164 2.266 . S
In156 O165 2.326 . S
In156 O167 2.294 . S
In156 O168 2.326 . S
O157 In156 2.294 . S
O157 C166 1.240 . S
O158 In156 2.326 . S
O158 C166 1.252 . S
C159 O162 1.252 . S
C159 O163 1.260 . S
C160 O167 1.240 . S
C160 O168 1.252 . S
C161 O164 1.252 . S
C161 O165 1.260 . S
O162 In156 2.266 . S
O162 C159 1.252 . S
O163 In156 2.326 . S
O163 C159 1.260 . S
O164 In156 2.266 . S
O164 C161 1.252 . S
O165 In156 2.326 . S
O165 C161 1.260 . S
C166 O157 1.240 . S
C166 O158 1.252 . S
O167 In156 2.294 . S
O167 C160 1.240 . S
O168 In156 2.326 . S
O168 C160 1.252 . S
In169 O170 2.294 . S
In169 O171 2.326 . S
In169 O175 2.266 . S
In169 O176 2.326 . S
In169 O177 2.266 . S
In169 O178 2.326 . S
In169 O180 2.294 . S
In169 O181 2.326 . S
O170 In169 2.294 . S
O170 C179 1.240 . S
O171 In169 2.326 . S
O171 C179 1.252 . S
C172 O175 1.252 . S
C172 O176 1.260 . S
C173 O180 1.240 . S
C173 O181 1.252 . S
C174 O177 1.252 . S
C174 O178 1.260 . S
O175 In169 2.266 . S
O175 C172 1.252 . S
O176 In169 2.326 . S
O176 C172 1.260 . S
O177 In169 2.266 . S
O177 C174 1.252 . S
O178 In169 2.326 . S
O178 C174 1.260 . S
C179 O170 1.240 . S
C179 O171 1.252 . S
O180 In169 2.294 . S
O180 C173 1.240 . S
O181 In169 2.326 . S
O181 C173 1.252 . S
In182 O183 2.294 . S
In182 O184 2.326 . S
In182 O188 2.266 . S
In182 O189 2.326 . S
In182 O190 2.266 . S
In182 O191 2.326 . S
In182 O193 2.294 . S
In182 O194 2.326 . S
O183 In182 2.294 . S
O183 C192 1.240 . S
O184 In182 2.326 . S
O184 C192 1.252 . S
C185 O188 1.252 . S
C185 O189 1.260 . S
C186 O193 1.240 . S
C186 O194 1.252 . S
C187 O190 1.252 . S
C187 O191 1.260 . S
O188 In182 2.266 . S
O188 C185 1.252 . S
O189 In182 2.326 . S
O189 C185 1.260 . S
O190 In182 2.266 . S
O190 C187 1.252 . S
O191 In182 2.326 . S
O191 C187 1.260 . S
C192 O183 1.240 . S
C192 O184 1.252 . S
O193 In182 2.294 . S
O193 C186 1.240 . S
O194 In182 2.326 . S
O194 C186 1.252 . S
In195 O196 2.294 . S
In195 O197 2.326 . S
In195 O201 2.266 . S
In195 O202 2.326 . S
In195 O203 2.266 . S
In195 O204 2.326 . S
In195 O206 2.294 . S
In195 O207 2.326 . S
O196 In195 2.294 . S
O196 C205 1.240 . S
O197 In195 2.326 . S
O197 C205 1.252 . S
C198 O201 1.252 . S
C198 O202 1.260 . S
C199 O206 1.240 . S
C199 O207 1.252 . S
C200 O203 1.252 . S
C200 O204 1.260 . S
O201 In195 2.266 . S
O201 C198 1.252 . S
O202 In195 2.326 . S
O202 C198 1.260 . S
O203 In195 2.266 . S
O203 C200 1.252 . S
O204 In195 2.326 . S
O204 C200 1.260 . S
C205 O196 1.240 . S
C205 O197 1.252 . S
O206 In195 2.294 . S
O206 C199 1.240 . S
O207 In195 2.326 . S
O207 C199 1.252 . S
H208 C214 0.930 . S
H209 C217 0.930 . S
H210 C218 0.930 . S
H211 C219 0.930 . S
H212 C222 0.930 . S
H213 C223 0.930 . S
C214 H208 0.930 . S
C214 C215 1.355 1_545 S
C214 C216 1.415 . S
C215 C214 1.355 1_565 S
C215 C217 1.419 . S
C216 C214 1.415 . S
C216 C221 1.425 1_645 S
C216 C223 1.409 . S
C217 H209 0.930 . S
C217 C215 1.419 . S
C217 C218 1.362 1_655 S
C218 H210 0.930 . S
C218 C217 1.362 1_455 S
C218 C221 1.409 . S
C219 H211 0.930 . S
C219 C220 1.355 1_565 S
C219 C221 1.415 . S
C220 C219 1.355 1_545 S
C220 C222 1.419 . S
C221 C216 1.425 1_465 S
C221 C218 1.409 . S
C221 C219 1.415 . S
C222 H212 0.930 . S
C222 C220 1.419 . S
C222 C223 1.362 1_455 S
C223 H213 0.930 . S
C223 C216 1.409 . S
C223 C222 1.362 1_655 S
H224 C230 0.930 . S
H225 C233 0.930 . S
H226 C234 0.930 . S
H227 C235 0.930 . S
H228 C238 0.930 . S
H229 C239 0.930 . S
C230 H224 0.930 . S
C230 C231 1.355 . S
C230 C232 1.415 . S
C231 C230 1.355 . S
C231 C233 1.419 1_655 S
C232 C230 1.415 . S
C232 C237 1.425 1_655 S
C232 C239 1.409 . S
C233 H225 0.930 . S
C233 C231 1.419 1_455 S
C233 C234 1.362 . S
C234 H226 0.930 . S
C234 C233 1.362 . S
C234 C237 1.409 . S
C235 H227 0.930 . S
C235 C236 1.355 . S
C235 C237 1.415 . S
C236 C235 1.355 . S
C236 C238 1.419 1_455 S
C237 C232 1.425 1_455 S
C237 C234 1.409 . S
C237 C235 1.415 . S
C238 H228 0.930 . S
C238 C236 1.419 1_655 S
C238 C239 1.362 . S
C239 H229 0.930 . S
C239 C232 1.409 . S
C239 C238 1.362 . S
H240 C246 0.930 . S
H241 C249 0.930 . S
H242 C250 0.930 . S
H243 C251 0.930 . S
H244 C254 0.930 . S
H245 C255 0.930 . S
C246 H240 0.930 . S
C246 C247 1.355 . S
C246 C248 1.415 . S
C247 C246 1.355 . S
C247 C249 1.419 . S
C248 C246 1.415 . S
C248 C253 1.425 . S
C248 C255 1.409 . S
C249 H241 0.930 . S
C249 C247 1.419 . S
C249 C250 1.362 . S
C250 H242 0.930 . S
C250 C249 1.362 . S
C250 C253 1.409 . S
C251 H243 0.930 . S
C251 C252 1.355 . S
C251 C253 1.415 . S
C252 C251 1.355 . S
C252 C254 1.419 . S
C253 C248 1.425 . S
C253 C250 1.409 . S
C253 C251 1.415 . S
C254 H244 0.930 . S
C254 C252 1.419 . S
C254 C255 1.362 . S
C255 H245 0.930 . S
C255 C248 1.409 . S
C255 C254 1.362 . S
H256 C262 0.930 . S
H257 C265 0.930 . S
H258 C266 0.930 . S
H259 C267 0.930 . S
H260 C270 0.930 . S
H261 C271 0.930 . S
C262 H256 0.930 . S
C262 C263 1.355 . S
C262 C264 1.415 . S
C263 C262 1.355 . S
C263 C265 1.419 . S
C264 C262 1.415 . S
C264 C269 1.425 1_545 S
C264 C271 1.409 1_545 S
C265 H257 0.930 . S
C265 C263 1.419 . S
C265 C266 1.362 . S
C266 H258 0.930 . S
C266 C265 1.362 . S
C266 C269 1.409 1_545 S
C267 H259 0.930 . S
C267 C268 1.355 . S
C267 C269 1.415 . S
C268 C267 1.355 . S
C268 C270 1.419 . S
C269 C264 1.425 1_565 S
C269 C266 1.409 1_565 S
C269 C267 1.415 . S
C270 H260 0.930 . S
C270 C268 1.419 . S
C270 C271 1.362 . S
C271 H261 0.930 . S
C271 C264 1.409 1_565 S
C271 C270 1.362 . S
H272 C278 0.930 . S
H273 C281 0.930 . S
H274 C282 0.930 . S
H275 C283 0.930 . S
H276 C286 0.930 . S
H277 C287 0.930 . S
C278 H272 0.930 . S
C278 C279 1.355 . S
C278 C280 1.415 1_455 S
C279 C278 1.355 . S
C279 C281 1.419 . S
C280 C278 1.415 1_655 S
C280 C285 1.425 1_655 S
C280 C287 1.409 . S
C281 H273 0.930 . S
C281 C279 1.419 . S
C281 C282 1.362 . S
C282 H274 0.930 . S
C282 C281 1.362 . S
C282 C285 1.409 . S
C283 H275 0.930 . S
C283 C284 1.355 . S
C283 C285 1.415 1_655 S
C284 C283 1.355 . S
C284 C286 1.419 . S
C285 C280 1.425 1_455 S
C285 C282 1.409 . S
C285 C283 1.415 1_455 S
C286 H276 0.930 . S
C286 C284 1.419 . S
C286 C287 1.362 . S
C287 H277 0.930 . S
C287 C280 1.409 . S
C287 C286 1.362 . S
H288 C294 0.930 . S
H289 C297 0.930 . S
H290 C298 0.930 . S
H291 C299 0.930 . S
H292 C302 0.930 . S
H293 C303 0.930 . S
C294 H288 0.930 . S
C294 C295 1.355 . S
C294 C296 1.415 . S
C295 C294 1.355 . S
C295 C297 1.419 . S
C296 C294 1.415 . S
C296 C301 1.425 . S
C296 C303 1.409 . S
C297 H289 0.930 . S
C297 C295 1.419 . S
C297 C298 1.362 . S
C298 H290 0.930 . S
C298 C297 1.362 . S
C298 C301 1.409 . S
C299 H291 0.930 . S
C299 C300 1.355 . S
C299 C301 1.415 . S
C300 C299 1.355 . S
C300 C302 1.419 . S
C301 C296 1.425 . S
C301 C298 1.409 . S
C301 C299 1.415 . S
C302 H292 0.930 . S
C302 C300 1.419 . S
C302 C303 1.362 . S
C303 H293 0.930 . S
C303 C296 1.409 . S
C303 C302 1.362 . S
H304 C310 0.930 . S
H305 C313 0.930 . S
H306 C314 0.930 . S
H307 C315 0.930 . S
H308 C318 0.930 . S
H309 C319 0.930 . S
C310 H304 0.930 . S
C310 C311 1.355 . S
C310 C312 1.415 1_545 S
C311 C310 1.355 . S
C311 C313 1.419 . S
C312 C310 1.415 1_565 S
C312 C317 1.425 1_565 S
C312 C319 1.409 . S
C313 H305 0.930 . S
C313 C311 1.419 . S
C313 C314 1.362 . S
C314 H306 0.930 . S
C314 C313 1.362 . S
C314 C317 1.409 . S
C315 H307 0.930 . S
C315 C316 1.355 . S
C315 C317 1.415 1_565 S
C316 C315 1.355 . S
C316 C318 1.419 . S
C317 C312 1.425 1_545 S
C317 C314 1.409 . S
C317 C315 1.415 1_545 S
C318 H308 0.930 . S
C318 C316 1.419 . S
C318 C319 1.362 . S
C319 H309 0.930 . S
C319 C312 1.409 . S
C319 C318 1.362 . S
H320 C326 0.930 1_655 S
H321 C329 0.930 . S
H322 C330 0.930 1_565 S
H323 C331 0.930 1_455 S
H324 C334 0.930 . S
H325 C335 0.930 1_545 S
C326 H320 0.930 1_455 S
C326 C327 1.355 . S
C326 C328 1.415 1_455 S
C327 C326 1.355 . S
C327 C329 1.419 . S
C328 C326 1.415 1_655 S
C328 C333 1.425 1_645 S
C328 C335 1.409 1_545 S
C329 H321 0.930 . S
C329 C327 1.419 . S
C329 C330 1.362 . S
C330 H322 0.930 1_545 S
C330 C329 1.362 . S
C330 C333 1.409 1_545 S
C331 H323 0.930 1_655 S
C331 C332 1.355 . S
C331 C333 1.415 1_655 S
C332 C331 1.355 . S
C332 C334 1.419 . S
C333 C328 1.425 1_465 S
C333 C330 1.409 1_565 S
C333 C331 1.415 1_455 S
C334 H324 0.930 . S
C334 C332 1.419 . S
C334 C335 1.362 . S
C335 H325 0.930 1_565 S
C335 C328 1.409 1_565 S
C335 C334 1.362 . S
H336 C342 0.930 . S
H337 C345 0.930 . S
H338 C346 0.930 . S
H339 C347 0.930 . S
H340 C350 0.930 . S
H341 C351 0.930 . S
C342 H336 0.930 . S
C342 C343 1.355 . S
C342 C344 1.415 1_565 S
C343 C342 1.355 . S
C343 C345 1.419 . S
C344 C342 1.415 1_545 S
C344 C349 1.425 1_545 S
C344 C351 1.409 . S
C345 H337 0.930 . S
C345 C343 1.419 . S
C345 C346 1.362 . S
C346 H338 0.930 . S
C346 C345 1.362 . S
C346 C349 1.409 . S
C347 H339 0.930 . S
C347 C348 1.355 . S
C347 C349 1.415 1_545 S
C348 C347 1.355 . S
C348 C350 1.419 . S
C349 C344 1.425 1_565 S
C349 C346 1.409 . S
C349 C347 1.415 1_565 S
C350 H340 0.930 . S
C350 C348 1.419 . S
C350 C351 1.362 . S
C351 H341 0.930 . S
C351 C344 1.409 . S
C351 C350 1.362 . S
H352 C358 0.930 . S
H353 C361 0.930 . S
H354 C362 0.930 . S
H355 C363 0.930 . S
H356 C366 0.930 . S
H357 C367 0.930 . S
C358 H352 0.930 . S
C358 C359 1.355 . S
C358 C360 1.415 1_565 S
C359 C358 1.355 . S
C359 C361 1.419 1_655 S
C360 C358 1.415 1_545 S
C360 C365 1.425 1_645 S
C360 C367 1.409 . S
C361 H353 0.930 . S
C361 C359 1.419 1_455 S
C361 C362 1.362 . S
C362 H354 0.930 . S
C362 C361 1.362 . S
C362 C365 1.409 . S
C363 H355 0.930 . S
C363 C364 1.355 . S
C363 C365 1.415 1_545 S
C364 C363 1.355 . S
C364 C366 1.419 1_455 S
C365 C360 1.425 1_465 S
C365 C362 1.409 . S
C365 C363 1.415 1_565 S
C366 H356 0.930 . S
C366 C364 1.419 1_655 S
C366 C367 1.362 . S
C367 H357 0.930 . S
C367 C360 1.409 . S
C367 C366 1.362 . S
H368 C374 0.930 . S
H369 C377 0.930 . S
H370 C378 0.924 1_655 S
H371 C379 0.930 . S
H372 C382 0.930 . S
H373 C383 0.924 1_455 S
C374 H368 0.930 . S
C374 C375 1.355 . S
C374 C376 1.415 . S
C375 C374 1.355 . S
C375 C377 1.419 . S
C376 C374 1.415 . S
C376 C381 1.425 1_455 S
C376 C383 1.406 1_455 S
C377 H369 0.930 . S
C377 C375 1.419 . S
C377 C378 1.371 . S
C378 H370 0.924 1_455 S
C378 C377 1.371 . S
C378 C381 1.406 1_455 S
C379 H371 0.930 . S
C379 C380 1.355 . S
C379 C381 1.415 . S
C380 C379 1.355 . S
C380 C382 1.419 . S
C381 C376 1.425 1_655 S
C381 C378 1.406 1_655 S
C381 C379 1.415 . S
C382 H372 0.930 . S
C382 C380 1.419 . S
C382 C383 1.371 . S
C383 H373 0.924 1_655 S
C383 C376 1.406 1_655 S
C383 C382 1.371 . S
H384 C390 0.930 . S
H385 C393 0.930 . S
H386 C394 0.930 . S
H387 C395 0.930 . S
H388 C398 0.930 . S
H389 C399 0.930 . S
C390 H384 0.930 . S
C390 C391 1.355 . S
C390 C392 1.415 . S
C391 C390 1.355 . S
C391 C393 1.419 . S
C392 C390 1.415 . S
C392 C397 1.425 . S
C392 C399 1.409 . S
C393 H385 0.930 . S
C393 C391 1.419 . S
C393 C394 1.362 . S
C394 H386 0.930 . S
C394 C393 1.362 . S
C394 C397 1.409 . S
C395 H387 0.930 . S
C395 C396 1.355 . S
C395 C397 1.415 . S
C396 C395 1.355 . S
C396 C398 1.419 . S
C397 C392 1.425 . S
C397 C394 1.409 . S
C397 C395 1.415 . S
C398 H388 0.930 . S
C398 C396 1.419 . S
C398 C399 1.362 . S
C399 H389 0.930 . S
C399 C392 1.409 . S
C399 C398 1.362 . S
H400 C406 0.930 . S
H401 C409 0.930 . S
H402 C410 0.930 . S
H403 C411 0.930 . S
H404 C414 0.930 . S
H405 C415 0.930 . S
C406 H400 0.930 . S
C406 C407 1.355 . S
C406 C408 1.415 . S
C407 C406 1.355 . S
C407 C409 1.419 . S
C408 C406 1.415 . S
C408 C413 1.425 . S
C408 C415 1.409 . S
C409 H401 0.930 . S
C409 C407 1.419 . S
C409 C410 1.362 . S
C410 H402 0.930 . S
C410 C409 1.362 . S
C410 C413 1.409 . S
C411 H403 0.930 . S
C411 C412 1.355 . S
C411 C413 1.415 . S
C412 C411 1.355 . S
C412 C414 1.419 . S
C413 C408 1.425 . S
C413 C410 1.409 . S
C413 C411 1.415 . S
C414 H404 0.930 . S
C414 C412 1.419 . S
C414 C415 1.362 . S
C415 H405 0.930 . S
C415 C408 1.409 . S
C415 C414 1.362 . S
H416 C422 0.930 . S
H417 C425 0.930 . S
H418 C426 0.930 1_545 S
H419 C427 0.930 . S
H420 C430 0.930 . S
H421 C431 0.930 1_565 S
C422 H416 0.930 . S
C422 C423 1.355 . S
C422 C424 1.415 . S
C423 C422 1.355 . S
C423 C425 1.419 . S
C424 C422 1.415 . S
C424 C429 1.425 1_565 S
C424 C431 1.409 1_565 S
C425 H417 0.930 . S
C425 C423 1.419 . S
C425 C426 1.362 . S
C426 H418 0.930 1_565 S
C426 C425 1.362 . S
C426 C429 1.409 1_565 S
C427 H419 0.930 . S
C427 C428 1.355 . S
C427 C429 1.415 . S
C428 C427 1.355 . S
C428 C430 1.419 . S
C429 C424 1.425 1_545 S
C429 C426 1.409 1_545 S
C429 C427 1.415 . S
C430 H420 0.930 . S
C430 C428 1.419 . S
C430 C431 1.362 . S
C431 H421 0.930 1_545 S
C431 C424 1.409 1_545 S
C431 C430 1.362 . S
H432 C438 0.930 1_545 S
H433 C441 0.930 . S
H434 C442 0.930 1_455 S
H435 C443 0.930 1_565 S
H436 C446 0.930 . S
H437 C447 0.930 1_655 S
C438 H432 0.930 1_565 S
C438 C439 1.355 . S
C438 C440 1.415 1_565 S
C439 C438 1.355 . S
C439 C441 1.419 . S
C440 C438 1.415 1_545 S
C440 C445 1.425 1_645 S
C440 C447 1.409 1_655 S
C441 H433 0.930 . S
C441 C439 1.419 . S
C441 C442 1.362 . S
C442 H434 0.930 1_655 S
C442 C441 1.362 . S
C442 C445 1.409 1_655 S
C443 H435 0.930 1_545 S
C443 C444 1.355 . S
C443 C445 1.415 1_545 S
C444 C443 1.355 . S
C444 C446 1.419 . S
C445 C440 1.425 1_465 S
C445 C442 1.409 1_455 S
C445 C443 1.415 1_565 S
C446 H436 0.930 . S
C446 C444 1.419 . S
C446 C447 1.362 . S
C447 H437 0.930 1_455 S
C447 C440 1.409 1_455 S
C447 C446 1.362 . S
H448 C454 0.922 1_655 S
H449 C457 0.930 . S
H450 C458 0.930 . S
H451 C459 0.922 1_455 S
H452 C462 0.930 . S
H453 C463 0.930 . S
C454 H448 0.922 1_455 S
C454 C455 1.366 . S
C454 C456 1.411 1_455 S
C455 C454 1.366 . S
C455 C457 1.419 . S
C456 C454 1.411 1_655 S
C456 C461 1.425 1_655 S
C456 C463 1.409 . S
C457 H449 0.930 . S
C457 C455 1.419 . S
C457 C458 1.362 . S
C458 H450 0.930 . S
C458 C457 1.362 . S
C458 C461 1.409 . S
C459 H451 0.922 1_655 S
C459 C460 1.366 . S
C459 C461 1.411 1_655 S
C460 C459 1.366 . S
C460 C462 1.419 . S
C461 C456 1.425 1_455 S
C461 C458 1.409 . S
C461 C459 1.411 1_455 S
C462 H452 0.930 . S
C462 C460 1.419 . S
C462 C463 1.362 . S
C463 H453 0.930 . S
C463 C456 1.409 . S
C463 C462 1.362 . S
H464 C470 0.930 . S
H465 C473 0.930 . S
H466 C474 0.930 . S
H467 C475 0.930 . S
H468 C478 0.930 . S
H469 C479 0.930 . S
C470 H464 0.930 . S
C470 C471 1.355 . S
C470 C472 1.415 . S
C471 C470 1.355 . S
C471 C473 1.419 . S
C472 C470 1.415 . S
C472 C477 1.425 . S
C472 C479 1.409 . S
C473 H465 0.930 . S
C473 C471 1.419 . S
C473 C474 1.362 . S
C474 H466 0.930 . S
C474 C473 1.362 . S
C474 C477 1.409 . S
C475 H467 0.930 . S
C475 C476 1.355 . S
C475 C477 1.415 . S
C476 C475 1.355 . S
C476 C478 1.419 . S
C477 C472 1.425 . S
C477 C474 1.409 . S
C477 C475 1.415 . S
C478 H468 0.930 . S
C478 C476 1.419 . S
C478 C479 1.362 . S
C479 H469 0.930 . S
C479 C472 1.409 . S
C479 C478 1.362 . S
H480 C486 0.930 . S
H481 C489 0.930 . S
H482 C490 0.930 . S
H483 C491 0.930 . S
H484 C494 0.930 . S
H485 C495 0.930 . S
C486 H480 0.930 . S
C486 C487 1.355 . S
C486 C488 1.415 . S
C487 C486 1.355 . S
C487 C489 1.419 . S
C488 C486 1.415 . S
C488 C493 1.425 . S
C488 C495 1.409 . S
C489 H481 0.930 . S
C489 C487 1.419 . S
C489 C490 1.362 . S
C490 H482 0.930 . S
C490 C489 1.362 . S
C490 C493 1.409 . S
C491 H483 0.930 . S
C491 C492 1.355 . S
C491 C493 1.415 . S
C492 C491 1.355 . S
C492 C494 1.419 . S
C493 C488 1.425 . S
C493 C490 1.409 . S
C493 C491 1.415 . S
C494 H484 0.930 . S
C494 C492 1.419 . S
C494 C495 1.362 . S
C495 H485 0.930 . S
C495 C488 1.409 . S
C495 C494 1.362 . S
H496 C502 0.930 . S
H497 C505 0.930 . S
H498 C506 0.930 . S
H499 C507 0.930 . S
H500 C510 0.930 . S
H501 C511 0.930 . S
C502 H496 0.930 . S
C502 C503 1.355 . S
C502 C504 1.415 . S
C503 C502 1.355 . S
C503 C505 1.419 . S
C504 C502 1.415 . S
C504 C509 1.425 . S
C504 C511 1.409 . S
C505 H497 0.930 . S
C505 C503 1.419 . S
C505 C506 1.362 . S
C506 H498 0.930 . S
C506 C505 1.362 . S
C506 C509 1.409 . S
C507 H499 0.930 . S
C507 C508 1.355 . S
C507 C509 1.415 . S
C508 C507 1.355 . S
C508 C510 1.419 . S
C509 C504 1.425 . S
C509 C506 1.409 . S
C509 C507 1.415 . S
C510 H500 0.930 . S
C510 C508 1.419 . S
C510 C511 1.362 . S
C511 H501 0.930 . S
C511 C504 1.409 . S
C511 C510 1.362 . S
H512 C518 0.930 . S
H513 C521 0.930 . S
H514 C522 0.930 . S
H515 C523 0.930 . S
H516 C526 0.930 . S
H517 C527 0.930 . S
C518 H512 0.930 . S
C518 C519 1.355 . S
C518 C520 1.415 . S
C519 C518 1.355 . S
C519 C521 1.419 . S
C520 C518 1.415 . S
C520 C525 1.425 . S
C520 C527 1.409 . S
C521 H513 0.930 . S
C521 C519 1.419 . S
C521 C522 1.362 . S
C522 H514 0.930 . S
C522 C521 1.362 . S
C522 C525 1.409 . S
C523 H515 0.930 . S
C523 C524 1.355 . S
C523 C525 1.415 . S
C524 C523 1.355 . S
C524 C526 1.419 . S
C525 C520 1.425 . S
C525 C522 1.409 . S
C525 C523 1.415 . S
C526 H516 0.930 . S
C526 C524 1.419 . S
C526 C527 1.362 . S
C527 H517 0.930 . S
C527 C520 1.409 . S
C527 C526 1.362 . S
H528 C534 0.930 . S
H529 C537 0.930 . S
H530 C538 0.930 . S
H531 C539 0.930 . S
H532 C542 0.930 . S
H533 C543 0.930 . S
C534 H528 0.930 . S
C534 C535 1.355 . S
C534 C536 1.415 . S
C535 C534 1.355 . S
C535 C537 1.419 . S
C536 C534 1.415 . S
C536 C541 1.425 . S
C536 C543 1.409 . S
C537 H529 0.930 . S
C537 C535 1.419 . S
C537 C538 1.362 . S
C538 H530 0.930 . S
C538 C537 1.362 . S
C538 C541 1.409 . S
C539 H531 0.930 . S
C539 C540 1.355 . S
C539 C541 1.415 . S
C540 C539 1.355 . S
C540 C542 1.419 . S
C541 C536 1.425 . S
C541 C538 1.409 . S
C541 C539 1.415 . S
C542 H532 0.930 . S
C542 C540 1.419 . S
C542 C543 1.362 . S
C543 H533 0.930 . S
C543 C536 1.409 . S
C543 C542 1.362 . S
H544 C550 0.930 . S
H545 C553 0.930 . S
H546 C554 0.930 . S
H547 C555 0.930 . S
H548 C558 0.930 . S
H549 C559 0.930 . S
C550 H544 0.930 . S
C550 C551 1.355 . S
C550 C552 1.415 . S
C551 C550 1.355 . S
C551 C553 1.419 . S
C552 C550 1.415 . S
C552 C557 1.425 . S
C552 C559 1.409 . S
C553 H545 0.930 . S
C553 C551 1.419 . S
C553 C554 1.362 . S
C554 H546 0.930 . S
C554 C553 1.362 . S
C554 C557 1.409 . S
C555 H547 0.930 . S
C555 C556 1.355 . S
C555 C557 1.415 . S
C556 C555 1.355 . S
C556 C558 1.419 . S
C557 C552 1.425 . S
C557 C554 1.409 . S
C557 C555 1.415 . S
C558 H548 0.930 . S
C558 C556 1.419 . S
C558 C559 1.362 . S
C559 H549 0.930 . S
C559 C552 1.409 . S
C559 C558 1.362 . S
H560 C566 0.930 . S
H561 C569 0.930 . S
H562 C570 0.930 . S
H563 C571 0.930 . S
H564 C574 0.930 . S
H565 C575 0.930 . S
C566 H560 0.930 . S
C566 C567 1.355 . S
C566 C568 1.415 . S
C567 C566 1.355 . S
C567 C569 1.419 . S
C568 C566 1.415 . S
C568 C573 1.425 . S
C568 C575 1.409 . S
C569 H561 0.930 . S
C569 C567 1.419 . S
C569 C570 1.362 . S
C570 H562 0.930 . S
C570 C569 1.362 . S
C570 C573 1.409 . S
C571 H563 0.930 . S
C571 C572 1.355 . S
C571 C573 1.415 . S
C572 C571 1.355 . S
C572 C574 1.419 . S
C573 C568 1.425 . S
C573 C570 1.409 . S
C573 C571 1.415 . S
C574 H564 0.930 . S
C574 C572 1.419 . S
C574 C575 1.362 . S
C575 H565 0.930 . S
C575 C568 1.409 . S
C575 C574 1.362 . S
H576 C582 0.930 . S
H577 C585 0.930 . S
H578 C586 0.930 . S
H579 C587 0.930 . S
H580 C590 0.930 . S
H581 C591 0.930 . S
C582 H576 0.930 . S
C582 C583 1.355 . S
C582 C584 1.415 . S
C583 C582 1.355 . S
C583 C585 1.419 . S
C584 C582 1.415 . S
C584 C589 1.425 . S
C584 C591 1.409 . S
C585 H577 0.930 . S
C585 C583 1.419 . S
C585 C586 1.362 . S
C586 H578 0.930 . S
C586 C585 1.362 . S
C586 C589 1.409 . S
C587 H579 0.930 . S
C587 C588 1.355 . S
C587 C589 1.415 . S
C588 C587 1.355 . S
C588 C590 1.419 . S
C589 C584 1.425 . S
C589 C586 1.409 . S
C589 C587 1.415 . S
C590 H580 0.930 . S
C590 C588 1.419 . S
C590 C591 1.362 . S
C591 H581 0.930 . S
C591 C584 1.409 . S
C591 C590 1.362 . S
H592 C598 0.930 . S
H593 C601 0.930 . S
H594 C602 0.930 . S
H595 C603 0.930 . S
H596 C606 0.930 . S
H597 C607 0.930 . S
C598 H592 0.930 . S
C598 C599 1.355 . S
C598 C600 1.415 . S
C599 C598 1.355 . S
C599 C601 1.419 . S
C600 C598 1.415 . S
C600 C605 1.425 . S
C600 C607 1.409 . S
C601 H593 0.930 . S
C601 C599 1.419 . S
C601 C602 1.362 . S
C602 H594 0.930 . S
C602 C601 1.362 . S
C602 C605 1.409 . S
C603 H595 0.930 . S
C603 C604 1.355 . S
C603 C605 1.415 . S
C604 C603 1.355 . S
C604 C606 1.419 . S
C605 C600 1.425 . S
C605 C602 1.409 . S
C605 C603 1.415 . S
C606 H596 0.930 . S
C606 C604 1.419 . S
C606 C607 1.362 . S
C607 H597 0.930 . S
C607 C600 1.409 . S
C607 C606 1.362 . S
H608 C614 0.930 . S
H609 C617 0.930 . S
H610 C618 0.930 . S
H611 C619 0.930 . S
H612 C622 0.930 . S
H613 C623 0.930 . S
C614 H608 0.930 . S
C614 C615 1.355 . S
C614 C616 1.415 . S
C615 C614 1.355 . S
C615 C617 1.419 . S
C616 C614 1.415 . S
C616 C621 1.425 . S
C616 C623 1.409 . S
C617 H609 0.930 . S
C617 C615 1.419 . S
C617 C618 1.362 . S
C618 H610 0.930 . S
C618 C617 1.362 . S
C618 C621 1.409 . S
C619 H611 0.930 . S
C619 C620 1.355 . S
C619 C621 1.415 . S
C620 C619 1.355 . S
C620 C622 1.419 . S
C621 C616 1.425 . S
C621 C618 1.409 . S
C621 C619 1.415 . S
C622 H612 0.930 . S
C622 C620 1.419 . S
C622 C623 1.362 . S
C623 H613 0.930 . S
C623 C616 1.409 . S
C623 C622 1.362 . S
H624 C630 0.930 . S
H625 C633 0.930 . S
H626 C634 0.930 . S
H627 C635 0.930 . S
H628 C638 0.930 . S
H629 C639 0.930 . S
C630 H624 0.930 . S
C630 C631 1.355 . S
C630 C632 1.415 . S
C631 C630 1.355 . S
C631 C633 1.419 . S
C632 C630 1.415 . S
C632 C637 1.425 . S
C632 C639 1.409 . S
C633 H625 0.930 . S
C633 C631 1.419 . S
C633 C634 1.362 . S
C634 H626 0.930 . S
C634 C633 1.362 . S
C634 C637 1.409 . S
C635 H627 0.930 . S
C635 C636 1.355 . S
C635 C637 1.415 . S
C636 C635 1.355 . S
C636 C638 1.419 . S
C637 C632 1.425 . S
C637 C634 1.409 . S
C637 C635 1.415 . S
C638 H628 0.930 . S
C638 C636 1.419 . S
C638 C639 1.362 . S
C639 H629 0.930 . S
C639 C632 1.409 . S
C639 C638 1.362 . S
H640 C646 0.930 . S
H641 C649 0.930 . S
H642 C650 0.930 1_554 S
H643 C651 0.930 . S
H644 C654 0.930 . S
H645 C655 0.930 1_556 S
C646 H640 0.930 . S
C646 C647 1.355 . S
C646 C648 1.415 . S
C647 C646 1.355 . S
C647 C649 1.419 . S
C648 C646 1.415 . S
C648 C653 1.425 1_556 S
C648 C655 1.409 1_556 S
C649 H641 0.930 . S
C649 C647 1.419 . S
C649 C650 1.362 . S
C650 H642 0.930 1_556 S
C650 C649 1.362 . S
C650 C653 1.409 1_556 S
C651 H643 0.930 . S
C651 C652 1.355 . S
C651 C653 1.415 . S
C652 C651 1.355 . S
C652 C654 1.419 . S
C653 C648 1.425 1_554 S
C653 C650 1.409 1_554 S
C653 C651 1.415 . S
C654 H644 0.930 . S
C654 C652 1.419 . S
C654 C655 1.362 . S
C655 H645 0.930 1_554 S
C655 C648 1.409 1_554 S
C655 C654 1.362 . S
H656 C662 0.930 . S
H657 C665 0.930 . S
H658 C666 0.930 . S
H659 C667 0.930 . S
H660 C670 0.930 . S
H661 C671 0.930 . S
C662 H656 0.930 . S
C662 C663 1.355 . S
C662 C664 1.415 . S
C663 C662 1.355 . S
C663 C665 1.419 . S
C664 C662 1.415 . S
C664 C669 1.425 1_554 S
C664 C671 1.409 1_554 S
C665 H657 0.930 . S
C665 C663 1.419 . S
C665 C666 1.362 . S
C666 H658 0.930 . S
C666 C665 1.362 . S
C666 C669 1.409 1_554 S
C667 H659 0.930 . S
C667 C668 1.355 . S
C667 C669 1.415 . S
C668 C667 1.355 . S
C668 C670 1.419 . S
C669 C664 1.425 1_556 S
C669 C666 1.409 1_556 S
C669 C667 1.415 . S
C670 H660 0.930 . S
C670 C668 1.419 . S
C670 C671 1.362 . S
C671 H661 0.930 . S
C671 C664 1.409 1_556 S
C671 C670 1.362 . S
H672 C678 0.930 . S
H673 C681 0.930 . S
H674 C682 0.930 . S
H675 C683 0.930 . S
H676 C686 0.930 . S
H677 C687 0.930 . S
C678 H672 0.930 . S
C678 C679 1.355 . S
C678 C680 1.415 . S
C679 C678 1.355 . S
C679 C681 1.419 . S
C680 C678 1.415 . S
C680 C685 1.425 . S
C680 C687 1.409 . S
C681 H673 0.930 . S
C681 C679 1.419 . S
C681 C682 1.362 . S
C682 H674 0.930 . S
C682 C681 1.362 . S
C682 C685 1.409 . S
C683 H675 0.930 . S
C683 C684 1.355 . S
C683 C685 1.415 . S
C684 C683 1.355 . S
C684 C686 1.419 . S
C685 C680 1.425 . S
C685 C682 1.409 . S
C685 C683 1.415 . S
C686 H676 0.930 . S
C686 C684 1.419 . S
C686 C687 1.362 . S
C687 H677 0.930 . S
C687 C680 1.409 . S
C687 C686 1.362 . S
H688 C694 0.930 . S
H689 C697 0.930 . S
H690 C698 0.930 . S
H691 C699 0.930 . S
H692 C702 0.930 . S
H693 C703 0.930 . S
C694 H688 0.930 . S
C694 C695 1.355 . S
C694 C696 1.415 . S
C695 C694 1.355 . S
C695 C697 1.419 . S
C696 C694 1.415 . S
C696 C701 1.425 . S
C696 C703 1.409 . S
C697 H689 0.930 . S
C697 C695 1.419 . S
C697 C698 1.362 . S
C698 H690 0.930 . S
C698 C697 1.362 . S
C698 C701 1.409 . S
C699 H691 0.930 . S
C699 C700 1.355 . S
C699 C701 1.415 . S
C700 C699 1.355 . S
C700 C702 1.419 . S
C701 C696 1.425 . S
C701 C698 1.409 . S
C701 C699 1.415 . S
C702 H692 0.930 . S
C702 C700 1.419 . S
C702 C703 1.362 . S
C703 H693 0.930 . S
C703 C696 1.409 . S
C703 C702 1.362 . S
H704 C710 0.930 . S
H705 C713 0.930 . S
H706 C714 0.930 . S
H707 C715 0.930 . S
H708 C718 0.930 . S
H709 C719 0.930 . S
C710 H704 0.930 . S
C710 C711 1.355 . S
C710 C712 1.415 . S
C711 C710 1.355 . S
C711 C713 1.419 . S
C712 C710 1.415 . S
C712 C717 1.425 . S
C712 C719 1.409 . S
C713 H705 0.930 . S
C713 C711 1.419 . S
C713 C714 1.362 . S
C714 H706 0.930 . S
C714 C713 1.362 . S
C714 C717 1.409 . S
C715 H707 0.930 . S
C715 C716 1.355 . S
C715 C717 1.415 . S
C716 C715 1.355 . S
C716 C718 1.419 . S
C717 C712 1.425 . S
C717 C714 1.409 . S
C717 C715 1.415 . S
C718 H708 0.930 . S
C718 C716 1.419 . S
C718 C719 1.362 . S
C719 H709 0.930 . S
C719 C712 1.409 . S
C719 C718 1.362 . S
C215 C134 1.705 . S
C220 C4 1.699 . S
C231 C17 1.695 . S
C236 C153 1.695 . S
C247 C108 1.693 . S
C252 C36 1.701 . S
C263 C121 1.695 . S
C268 C43 1.704 . S
C279 C56 1.693 . S
C284 C186 1.699 . S
C295 C199 1.704 . S
C300 C69 1.702 . S
C311 C82 1.703 . S
C316 C166 1.694 . S
C327 C173 1.701 . S
C332 C95 1.704 . S
C343 C135 1.308 . S
C348 C5 1.299 . S
C359 C18 1.313 . S
C364 C146 1.306 . S
C375 C29 1.299 . S
C380 C109 1.305 . S
C391 C44 1.301 . S
C396 C122 1.312 . S
C407 C57 1.299 . S
C412 C187 1.304 . S
C423 C70 1.305 . S
C428 C200 1.299 . S
C439 C159 1.299 . S
C444 C83 1.309 . S
C455 C174 1.303 . S
C460 C96 1.300 . S
C471 C10 1.385 . S
C476 C88 1.422 . S
C487 C23 1.397 . S
C492 C101 1.393 . S
C503 C30 1.398 . S
C508 C62 1.430 . S
C519 C49 1.430 . S
C524 C75 1.399 . S
C535 C114 1.425 . S
C540 C192 1.413 . S
C551 C205 1.427 . S
C556 C127 1.388 . S
C567 C140 1.395 . S
C572 C160 1.394 . S
C583 C179 1.385 . S
C588 C147 1.423 . S
C599 C3 1.320 . S
C604 C198 1.301 . S
C615 C161 1.353 . S
C620 C16 1.339 . S
C631 C172 1.344 . S
C636 C31 1.306 . S
C647 C185 1.333 . S
C652 C42 1.300 . S
C663 C120 1.303 . S
C668 C55 1.339 . S
C679 C133 1.350 . S
C684 C68 1.344 . S
C695 C81 1.353 . S
C700 C148 1.318 . S
C711 C94 1.302 . S
C716 C107 1.316 . S
