# Generated by pormake.
# Topology rob, (6)-cn, num edge types: 1
# Building blocks:
#     Node 0, Type 0, BuildingBlock: INOVEN_clean_sbu_0, # of connection points: 6
#     Node 1, Type 0, BuildingBlock: INOVEN_clean_sbu_0, # of connection points: 6
#     Node 2, Type 0, BuildingBlock: INOVEN_clean_sbu_0, # of connection points: 6
#     Node 3, Type 0, BuildingBlock: INOVEN_clean_sbu_0, # of connection points: 6
#     Edge 4, Type (0, 0), BuildingBlock: MIFKUJ_clean_linker_0, # of connection points: 2
#     Edge 5, Type (0, 0), BuildingBlock: MIFKUJ_clean_linker_0, # of connection points: 2
#     Edge 6, Type (0, 0), BuildingBlock: MIFKUJ_clean_linker_0, # of connection points: 2
#     Edge 7, Type (0, 0), BuildingBlock: MIFKUJ_clean_linker_0, # of connection points: 2
#     Edge 8, Type (0, 0), BuildingBlock: MIFKUJ_clean_linker_0, # of connection points: 2
#     Edge 9, Type (0, 0), BuildingBlock: MIFKUJ_clean_linker_0, # of connection points: 2
#     Edge 10, Type (0, 0), BuildingBlock: MIFKUJ_clean_linker_0, # of connection points: 2
#     Edge 11, Type (0, 0), BuildingBlock: MIFKUJ_clean_linker_0, # of connection points: 2
#     Edge 12, Type (0, 0), BuildingBlock: MIFKUJ_clean_linker_0, # of connection points: 2
#     Edge 13, Type (0, 0), BuildingBlock: MIFKUJ_clean_linker_0, # of connection points: 2
#     Edge 14, Type (0, 0), BuildingBlock: MIFKUJ_clean_linker_0, # of connection points: 2
#     Edge 15, Type (0, 0), BuildingBlock: MIFKUJ_clean_linker_0, # of connection points: 2
# Relax obj value: 0.084
# Max RMSD: 0.164
# Mean RMSD: 0.164
data_MOF--net-rob--node1-INOVEN_clean_sbu_0--edge1-MIFKUJ_clean_linker_0
_symmetry_space_group_name_H-M    P1
_symmetry_Int_Tables_number       1
_symmetry_cell_setting            triclinic
loop_
_symmetry_equiv_pos_as_xyz
'x, y, z'
_cell_length_a     19.512123
_cell_length_b     32.259749
_cell_length_c     45.79477
_cell_angle_alpha  90.312249
_cell_angle_beta   120.93828
_cell_angle_gamma 89.949572
loop_
_atom_site_label
_atom_site_type_symbol
_atom_site_fract_x
_atom_site_fract_y
_atom_site_fract_z
_atom_type_partial_charge
Gd0 Gd 0.1745 0.27687 0.99528 0.0
Gd1 Gd 0.32851 0.24957 -0.00156 0.0
C2 C 0.33983 0.26444 0.06845 0.0
C3 C 0.06116 0.28334 0.00849 0.0
C4 C 0.05693 0.27952 0.03983 0.0
C5 C 0.04902 0.31524 0.05555 0.0
C6 C 0.06177 0.24067 0.05466 0.0
C7 C 0.05208 0.2736 0.10046 0.0
C8 C 0.0591 0.23777 0.08456 0.0
C9 C 0.04705 0.31235 0.08558 0.0
C10 C 0.25833 0.33837 0.98825 0.0
C11 C 0.16061 0.26135 0.92505 0.0
C12 C 0.44489 0.24396 0.98684 0.0
C13 C 0.45269 0.24364 0.95637 0.0
C14 C 0.39738 0.22264 0.92642 0.0
C15 C 0.51545 0.26556 0.95697 0.0
C16 C 0.46807 0.24531 0.89816 0.0
C17 C 0.52312 0.26641 0.92821 0.0
C18 C 0.40503 0.22341 0.89764 0.0
C19 C 0.24507 0.18826 0.00594 0.0
O20 O 0.26095 0.26431 0.05065 0.0
O21 O 0.38312 0.26337 0.05385 0.0
O22 O 0.10065 0.31532 0.0071 0.0
O23 O 0.07458 0.24939 0.99639 0.0
O24 O 0.18072 0.33734 0.97219 0.0
O25 O 0.28735 0.3083 0.00854 0.0
O26 O 0.23951 0.25836 0.94235 0.0
O27 O 0.11826 0.26517 0.93987 0.0
O28 O 0.41078 0.21171 0.9914 0.0
O29 O 0.42207 0.27906 0.99358 0.0
O30 O 0.32273 0.18938 0.02208 0.0
O31 O 0.21606 0.21806 0.98537 0.0
H32 H 0.04457 0.34555 0.04464 0.0
H33 H 0.06798 0.21245 0.04331 0.0
H34 H 0.06348 0.20749 0.09546 0.0
H35 H 0.04039 0.34049 0.09689 0.0
H36 H 0.3481 0.20571 0.92522 0.0
H37 H 0.55868 0.28208 0.97976 0.0
H38 H 0.57287 0.28319 0.92968 0.0
H39 H 0.36092 0.2073 0.87482 0.0
Gd40 Gd 0.67715 0.77757 0.99447 0.0
Gd41 Gd 0.83201 0.74681 0.00117 0.0
C42 C 0.83445 0.75728 0.06947 0.0
C43 C 0.55617 0.78708 0.00267 0.0
C44 C 0.54445 0.7856 0.03208 0.0
C45 C 0.48696 0.81108 0.03271 0.0
C46 C 0.59176 0.75995 0.06008 0.0
C47 C 0.52485 0.78577 0.08919 0.0
C48 C 0.58234 0.76018 0.0884 0.0
C49 C 0.47699 0.81108 0.0609 0.0
C50 C 0.77281 0.83758 0.99419 0.0
C51 C 0.67684 0.76843 0.92645 0.0
C52 C 0.94893 0.73684 0.99057 0.0
C53 C 0.95426 0.73877 0.95946 0.0
C54 C 0.98905 0.70582 0.95156 0.0
C55 C 0.9211 0.77196 0.9365 0.0
C56 C 0.95679 0.7388 0.89813 0.0
C57 C 0.92253 0.772 0.90622 0.0
C58 C 0.99022 0.70577 0.92124 0.0
C59 C 0.73567 0.68685 0.00114 0.0
O60 O 0.75609 0.76124 0.04994 0.0
O61 O 0.88168 0.75533 0.05678 0.0
O62 O 0.59906 0.81802 0.0024 0.0
O63 O 0.57322 0.75196 0.99338 0.0
O64 O 0.6953 0.83863 0.97577 0.0
O65 O 0.79576 0.80604 0.01309 0.0
O66 O 0.75501 0.76489 0.94624 0.0
O67 O 0.62892 0.76941 0.93882 0.0
O68 O 0.90737 0.70592 0.99193 0.0
O69 O 0.93572 0.77174 0.00162 0.0
O70 O 0.81316 0.68564 0.01955 0.0
O71 O 0.71322 0.71849 0.98236 0.0
H72 H 0.4501 0.83126 0.01147 0.0
H73 H 0.63631 0.73983 0.06017 0.0
H74 H 0.61958 0.73997 0.10954 0.0
H75 H 0.43279 0.8315 0.06082 0.0
H76 H 0.01474 0.67984 0.96875 0.0
H77 H 0.89279 0.79759 0.94161 0.0
H78 H 0.89539 0.79767 0.88882 0.0
H79 H 0.01804 0.67999 0.91603 0.0
Gd80 Gd 0.33115 0.77661 0.49598 0.0
Gd81 Gd 0.18924 0.75015 0.50123 0.0
C82 C 0.16329 0.74979 0.42808 0.0
C83 C 0.43915 0.7829 0.47929 0.0
C84 C 0.44044 0.78287 0.44733 0.0
C85 C 0.3733 0.79476 0.41631 0.0
C86 C 0.51012 0.77106 0.44789 0.0
C87 C 0.44673 0.7839 0.38682 0.0
C88 C 0.51319 0.77129 0.41802 0.0
C89 C 0.37652 0.79549 0.38643 0.0
C90 C 0.2408 0.83966 0.49685 0.0
C91 C 0.35671 0.77845 0.56901 0.0
C92 C 0.08027 0.74306 0.51739 0.0
C93 C 0.07461 0.74238 0.54858 0.0
C94 C 0.08139 0.70491 0.56544 0.0
C95 C 0.05797 0.77884 0.56077 0.0
C96 C 0.05482 0.74032 0.60586 0.0
C97 C 0.04846 0.77785 0.58908 0.0
C98 C 0.07172 0.70391 0.59367 0.0
C99 C 0.28049 0.68726 0.50056 0.0
O100 O 0.24196 0.75206 0.44373 0.0
O101 O 0.12491 0.75467 0.44459 0.0
O102 O 0.40539 0.81481 0.48451 0.0
O103 O 0.42062 0.74781 0.48772 0.0
O104 O 0.31803 0.84107 0.51158 0.0
O105 O 0.21439 0.80583 0.48086 0.0
O106 O 0.27808 0.77519 0.55333 0.0
O107 O 0.39557 0.7735 0.5527 0.0
O108 O 0.11435 0.71137 0.51205 0.0
O109 O 0.09895 0.77831 0.50919 0.0
O110 O 0.20318 0.68583 0.48542 0.0
O111 O 0.30621 0.72108 0.5166 0.0
H112 H 0.31864 0.80394 0.41526 0.0
H113 H 0.56243 0.76162 0.47155 0.0
H114 H 0.56776 0.76122 0.41947 0.0
H115 H 0.32432 0.80593 0.36321 0.0
H116 H 0.0935 0.67613 0.55665 0.0
H117 H 0.05115 0.80816 0.54815 0.0
H118 H 0.03417 0.80644 0.59727 0.0
H119 H 0.07794 0.6745 0.60606 0.0
Gd120 Gd 0.83594 0.27554 0.49898 0.0
Gd121 Gd 0.6864 0.25148 0.4996 0.0
C122 C 0.67113 0.25249 0.42828 0.0
C123 C 0.94978 0.28005 0.48578 0.0
C124 C 0.95615 0.27745 0.45487 0.0
C125 C 0.9655 0.31379 0.4405 0.0
C126 C 0.95412 0.23907 0.43969 0.0
C127 C 0.97076 0.2736 0.39643 0.0
C128 C 0.96128 0.23719 0.41081 0.0
C129 C 0.97234 0.31192 0.4116 0.0
C130 C 0.74825 0.34 0.49965 0.0
C131 C 0.85066 0.27674 0.56974 0.0
C132 C 0.57237 0.24549 0.51277 0.0
C133 C 0.56578 0.24753 0.54346 0.0
C134 C 0.50453 0.22566 0.54408 0.0
C135 C 0.62123 0.26986 0.57255 0.0
C136 C 0.55438 0.24803 0.60262 0.0
C137 C 0.61561 0.27013 0.60185 0.0
C138 C 0.49878 0.22591 0.57331 0.0
C139 C 0.77522 0.18722 0.49918 0.0
O140 O 0.75005 0.25311 0.44566 0.0
O141 O 0.62912 0.25747 0.44324 0.0
O142 O 0.91331 0.31259 0.48846 0.0
O143 O 0.93184 0.246 0.49584 0.0
O144 O 0.82577 0.33984 0.51582 0.0
O145 O 0.72059 0.30701 0.48251 0.0
O146 O 0.77181 0.27594 0.55237 0.0
O147 O 0.89301 0.27027 0.55518 0.0
O148 O 0.6108 0.21354 0.51066 0.0
O149 O 0.59028 0.27996 0.50325 0.0
O150 O 0.6977 0.18737 0.48255 0.0
O151 O 0.80202 0.22019 0.51638 0.0
H152 H 0.96754 0.34383 0.45162 0.0
H153 H 0.9475 0.21037 0.45018 0.0
H154 H 0.96089 0.20708 0.40016 0.0
H155 H 0.97825 0.34068 0.401 0.0
H156 H 0.46117 0.2082 0.52193 0.0
H157 H 0.669 0.28701 0.57271 0.0
H158 H 0.6599 0.28717 0.62403 0.0
H159 H 0.45025 0.20903 0.57283 0.0
H160 H 0.7788 0.61617 0.03848 0.0
H161 H 0.6937 0.55776 0.03358 0.0
H162 H 0.4883 0.62077 0.95344 0.0
H163 H 0.57356 0.67956 0.95833 0.0
H164 H 0.45448 0.585 -0.00166 0.0
H165 H 0.57339 0.54248 0.93434 0.0
H166 H 0.68282 0.52922 0.92348 0.0
H167 H 0.7854 0.44091 0.00482 0.0
H168 H 0.67718 0.45409 0.01652 0.0
H169 H 0.20367 0.4058 0.94667 0.0
H170 H 0.28103 0.46547 0.94643 0.0
H171 H 0.49667 0.41036 0.02725 0.0
H172 H 0.41956 0.35066 0.02755 0.0
H173 H 0.52033 0.44289 0.97859 0.0
H174 H 0.40384 0.48776 0.04385 0.0
H175 H 0.29425 0.50121 0.05459 0.0
H176 H 0.18638 0.58517 0.97022 0.0
H177 H 0.29481 0.57175 0.95866 0.0
C178 C 0.71548 0.61763 0.01983 0.0
C179 C 0.68287 0.65237 -0.0013 0.0
C180 C 0.66692 0.58414 0.01696 0.0
C181 C 0.58469 0.58454 0.9928 0.0
C182 C 0.55159 0.61967 0.97218 0.0
C183 C 0.60031 0.65323 0.97499 0.0
C184 C 0.53375 0.5482 0.98919 0.0
C185 C 0.46811 0.55403 0.99346 0.0
C186 C 0.55229 0.50759 0.98345 0.0
C187 C 0.61755 0.49958 0.97652 0.0
C188 C 0.61965 0.52049 0.95011 0.0
C189 C 0.6814 0.51294 0.94377 0.0
C190 C 0.74114 0.48432 0.9635 0.0
C191 C 0.73914 0.46311 0.98958 0.0
C192 C 0.67757 0.47059 0.99607 0.0
C193 C 0.2676 0.4064 0.96434 0.0
C194 C 0.30557 0.37361 0.98719 0.0
C195 C 0.31172 0.44057 0.96425 0.0
C196 C 0.39462 0.44269 0.98711 0.0
C197 C 0.43282 0.40948 0.00941 0.0
C198 C 0.3887 0.37536 0.00956 0.0
C199 C 0.44157 0.47963 0.98808 0.0
C200 C 0.50646 0.47389 0.98329 0.0
C201 C 0.42224 0.5203 0.99328 0.0
C202 C 0.35696 0.52838 0.00016 0.0
C203 C 0.35637 0.5088 0.0274 0.0
C204 C 0.29454 0.51647 0.03367 0.0
C205 C 0.23326 0.54393 0.01303 0.0
C206 C 0.2338 0.56385 0.98613 0.0
C207 C 0.29545 0.55624 0.97972 0.0
H208 H 0.18546 0.54984 0.01794 0.0
H209 H 0.78887 0.4785 0.95854 0.0
H210 H 0.44428 0.68154 0.53569 0.0
H211 H 0.5253 0.62276 0.53652 0.0
H212 H 0.31051 0.55552 0.46717 0.0
H213 H 0.22971 0.61384 0.46658 0.0
H214 H 0.4119 0.5057 0.51683 0.0
H215 H 0.43112 0.60323 0.44161 0.0
H216 H 0.46382 0.66856 0.42361 0.0
H217 H 0.70894 0.65738 0.5037 0.0
H218 H 0.67753 0.59246 0.52259 0.0
H219 H 0.58501 0.34791 0.46465 0.0
H220 H 0.50687 0.40654 0.46637 0.0
H221 H 0.72477 0.46981 0.53802 0.0
H222 H 0.80282 0.41137 0.53646 0.0
H223 H 0.62395 0.52131 0.48848 0.0
H224 H 0.60977 0.42743 0.56532 0.0
H225 H 0.58575 0.36008 0.58362 0.0
H226 H 0.33991 0.36357 0.50307 0.0
H227 H 0.36263 0.43104 0.48419 0.0
C228 C 0.4145 0.65425 0.52055 0.0
C229 C 0.33064 0.65235 0.50102 0.0
C230 C 0.46082 0.62068 0.52095 0.0
C231 C 0.42419 0.58464 0.50167 0.0
C232 C 0.34037 0.5828 0.4823 0.0
C233 C 0.29419 0.61626 0.48191 0.0
C234 C 0.47263 0.54865 0.50177 0.0
C235 C 0.45758 0.50914 0.51022 0.0
C236 C 0.534 0.553 0.49411 0.0
C237 C 0.5518 0.59312 0.48369 0.0
C238 C 0.49175 0.61499 0.45568 0.0
C239 C 0.51012 0.65189 0.44525 0.0
C240 C 0.58846 0.66698 0.46246 0.0
C241 C 0.64835 0.64559 0.49039 0.0
C242 C 0.63029 0.60878 0.50097 0.0
C243 C 0.6161 0.37422 0.48092 0.0
C244 C 0.7 0.37499 0.5005 0.0
C245 C 0.57144 0.40769 0.48194 0.0
C246 C 0.60986 0.44258 0.50252 0.0
C247 C 0.6937 0.44335 0.52193 0.0
C248 C 0.73824 0.40987 0.52104 0.0
C249 C 0.563 0.47863 0.5034 0.0
C250 C 0.57831 0.51803 0.49514 0.0
C251 C 0.50262 0.47428 0.51158 0.0
C252 C 0.48809 0.4341 0.52315 0.0
C253 C 0.55067 0.41373 0.55139 0.0
C254 C 0.53729 0.37554 0.56188 0.0
C255 C 0.46145 0.35739 0.54441 0.0
C256 C 0.39868 0.37761 0.51654 0.0
C257 C 0.41172 0.4159 0.50598 0.0
H258 H 0.45128 0.32775 0.55253 0.0
H259 H 0.60306 0.69509 0.45407 0.0
H260 H 0.29624 0.12707 0.05345 0.0
H261 H 0.21976 0.06771 0.0548 0.0
H262 H 0.01192 0.1106 0.96261 0.0
H263 H 0.08746 0.1708 0.96204 0.0
H264 H 0.96784 0.08371 0.00361 0.0
H265 H 0.14193 0.02868 0.96627 0.0
H266 H 0.27183 0.01402 0.97143 0.0
H267 H 0.34723 0.94726 0.06397 0.0
H268 H 0.21811 0.96195 0.05954 0.0
H269 H 0.73351 0.90225 0.95067 0.0
H270 H 0.81728 0.96099 0.95496 0.0
H271 H 0.01379 0.91003 0.04706 0.0
H272 H 0.93055 0.85031 0.0421 0.0
H273 H 0.06796 0.94063 0.01019 0.0
H274 H 0.89644 0.99254 0.04773 0.0
H275 H 0.76832 1.00649 0.04439 0.0
H276 H 0.69061 0.07887 0.9543 0.0
H277 H 0.81787 0.06488 0.95683 0.0
C278 C 0.23413 0.12383 0.03356 0.0
C279 C 0.19794 0.15332 0.00748 0.0
C280 C 0.19054 0.08974 0.03421 0.0
C281 C 0.11033 0.08395 0.00835 0.0
C282 C 0.07372 0.11409 0.98277 0.0
C283 C 0.11696 0.14849 0.98241 0.0
C284 C 0.06426 0.04665 0.00772 0.0
C285 C 0.98943 0.05243 0.00462 0.0
C286 C 0.09326 1.00568 0.01024 0.0
C287 C 0.17074 0.99682 0.01277 0.0
C288 C 0.18644 1.01114 0.98784 0.0
C289 C 0.25989 1.00278 0.99061 0.0
C290 C 0.31784 0.97983 0.01806 0.0
C291 C 0.30238 0.9651 0.04275 0.0
C292 C 0.22909 0.97341 0.04011 0.0
C293 C 0.79466 0.90353 0.97178 0.0
C294 C 0.82531 0.87195 0.99624 0.0
C295 C 0.84243 0.93727 0.97435 0.0
C296 C 0.92148 0.94063 0.00181 0.0
C297 C 0.9529 0.9084 0.02576 0.0
C298 C 0.90531 0.87431 0.02295 0.0
C299 C 0.971 0.97773 0.00544 0.0
C300 C 0.04648 0.97192 0.00923 0.0
C301 C 0.94291 0.0187 0.00381 0.0
C302 C 0.86645 0.02735 0.00232 0.0
C303 C 0.85182 1.0112 0.02708 0.0
C304 C 0.77938 0.01915 0.02535 0.0
C305 C 0.7213 0.04347 -0.00089 0.0
C306 C 0.73563 0.05999 0.97459 0.0
C307 C 0.80793 0.0521 0.97618 0.0
H308 H 0.66525 0.04959 -0.00219 0.0
H309 H 0.37464 0.97339 0.02015 0.0
H310 H 0.72239 0.11536 0.4629 0.0
H311 H 0.80151 0.05641 0.46314 0.0
H312 H 0.01784 0.11989 0.53601 0.0
H313 H 0.93853 0.17914 0.53589 0.0
H314 H 0.03232 0.08385 0.48538 0.0
H315 H 0.94472 0.04163 0.56104 0.0
H316 H 0.84685 0.02822 0.57869 0.0
H317 H 0.72743 0.93892 0.49795 0.0
H318 H 0.82395 0.95224 0.47949 0.0
H319 H 0.29322 0.91205 0.53221 0.0
H320 H 0.21386 0.97037 0.53267 0.0
H321 H 0.99738 0.90477 0.46274 0.0
H322 H 0.07706 0.84582 0.46257 0.0
H323 H 0.98259 0.94198 0.51179 0.0
H324 H 0.06943 0.98423 0.43589 0.0
H325 H 0.16651 0.99786 0.41784 0.0
H326 H 0.28639 0.08728 0.49846 0.0
H327 H 0.19065 0.07375 0.5173 0.0
C328 C 0.78682 0.11677 0.47904 0.0
C329 C 0.82423 0.15189 0.49941 0.0
C330 C 0.83202 0.08296 0.47922 0.0
C331 C 0.91572 0.08339 0.49987 0.0
C332 C 0.95338 0.11875 0.5199 0.0
C333 C 0.90804 0.15259 0.51983 0.0
C334 C 0.96361 0.04702 0.50031 0.0
C335 C 0.02225 0.05294 0.49165 0.0
C336 C 0.94916 1.00641 0.5076 0.0
C337 C 0.89112 0.99825 0.51868 0.0
C338 C 0.8972 0.01939 0.54687 0.0
C339 C 0.84203 1.01176 0.55705 0.0
C340 C 0.78083 0.98282 0.53939 0.0
C341 C 0.7748 0.96137 0.51157 0.0
C342 C 0.82976 0.96893 0.50125 0.0
C343 C 0.22868 0.91001 0.51688 0.0
C344 C 0.19138 0.87443 0.49718 0.0
C345 C 0.18331 0.9435 0.51707 0.0
C346 C 0.09946 0.94242 0.49731 0.0
C347 C 0.06194 0.9065 0.4781 0.0
C348 C 0.10747 0.87285 0.47795 0.0
C349 C 0.05141 0.97877 0.49686 0.0
C350 C 0.99271 0.97287 0.50551 0.0
C351 C 0.0657 0.01942 0.4895 0.0
C352 C 0.12332 0.02766 0.47821 0.0
C353 C 0.11688 1.00655 0.44994 0.0
C354 C 0.1716 0.0143 0.43954 0.0
C355 C 0.2327 0.04333 0.45704 0.0
C356 C 0.23909 0.06475 0.48495 0.0
C357 C 0.18458 0.05708 0.49548 0.0
H358 H 0.27499 0.0493 0.44894 0.0
H359 H 0.73819 0.97694 0.54732 0.0
H360 H 0.73635 0.22328 0.39232 0.0
H361 H 0.67766 0.22365 0.33089 0.0
H362 H 0.45794 0.27228 0.31825 0.0
H363 H 0.51622 0.27146 0.38019 0.0
H364 H 0.43063 0.215 0.2695 0.0
H365 H 0.59178 0.33566 0.318 0.0
H366 H 0.71231 0.37627 0.35647 0.0
H367 H 0.83958 0.31722 0.31433 0.0
H368 H 0.72082 0.27507 0.27638 0.0
H369 H 0.27365 0.29056 0.10472 0.0
H370 H 0.33156 0.28832 0.16602 0.0
H371 H 0.55 0.23844 0.17815 0.0
H372 H 0.49272 0.24164 0.11626 0.0
H373 H 0.57717 0.29641 0.22692 0.0
H374 H 0.41549 0.17304 0.18052 0.0
H375 H 0.29128 0.1363 0.13982 0.0
H376 H 0.16191 0.2058 0.17606 0.0
H377 H 0.28504 0.24322 0.2168 0.0
C378 C 0.6752 0.23371 0.37653 0.0
C379 C 0.6311 0.24793 0.39105 0.0
C380 C 0.64189 0.23393 0.34143 0.0
C381 C 0.56426 0.24888 0.32019 0.0
C382 C 0.51827 0.26091 0.33436 0.0
C383 C 0.55152 0.26042 0.36966 0.0
C384 C 0.53308 0.25369 0.28342 0.0
C385 C 0.46219 0.23315 0.26019 0.0
C386 C 0.57515 0.27694 0.27139 0.0
C387 C 0.64743 0.30178 0.29458 0.0
C388 C 0.6458 0.33083 0.31725 0.0
C389 C 0.71389 0.35411 0.33899 0.0
C390 C 0.78375 0.34909 0.33799 0.0
C391 C 0.78568 0.32072 0.31529 0.0
C392 C 0.718 0.2971 0.29366 0.0
C393 C 0.33423 0.27926 0.12036 0.0
C394 C 0.37849 0.26572 0.10573 0.0
C395 C 0.36709 0.27795 0.15539 0.0
C396 C 0.44421 0.26229 0.17643 0.0
C397 C 0.49003 0.25033 0.16216 0.0
C398 C 0.45738 0.25214 0.12693 0.0
C399 C 0.47548 0.25739 0.21318 0.0
C400 C 0.54614 0.27803 0.23636 0.0
C401 C 0.43313 0.23446 0.22517 0.0
C402 C 0.35947 0.21096 0.20165 0.0
C403 C 0.36048 0.18049 0.17979 0.0
C404 C 0.29024 0.15959 0.1567 0.0
C405 C 0.21868 0.16878 0.15533 0.0
C406 C 0.21727 0.19885 0.17708 0.0
C407 C 0.28734 0.21976 0.2003 0.0
H408 H 0.16436 0.15256 0.13747 0.0
H409 H 0.83623 0.36736 0.35465 0.0
H410 H 0.38547 0.78615 0.09012 0.0
H411 H 0.36946 0.78659 0.13968 0.0
H412 H 0.62568 0.78697 0.20624 0.0
H413 H 0.642 0.78604 0.15673 0.0
H414 H 0.56304 0.73487 0.22943 0.0
H415 H 0.5092 0.87528 0.19181 0.0
H416 H 0.44394 0.93214 0.15086 0.0
H417 H 0.21616 0.89563 0.13559 0.0
H418 H 0.27991 0.83812 0.1761 0.0
H419 H 0.57681 0.80255 0.38084 0.0
H420 H 0.58564 0.80199 0.32965 0.0
H421 H 0.33589 0.77055 0.26897 0.0
H422 H 0.32693 0.76862 0.32029 0.0
H423 H 0.39184 0.83801 0.24261 0.0
H424 H 0.45192 0.69735 0.28233 0.0
H425 H 0.52259 0.64283 0.32501 0.0
H426 H 0.74628 0.6837 0.33823 0.0
H427 H 0.67703 0.73897 0.29602 0.0
C428 C 0.43843 0.78667 0.11531 0.0
C429 C 0.51502 0.78617 0.11941 0.0
C430 C 0.4292 0.78695 0.14368 0.0
C431 C 0.49633 0.78737 0.17684 0.0
C432 C 0.57288 0.7866 0.18099 0.0
C433 C 0.58215 0.78599 0.15263 0.0
C434 C 0.48684 0.78803 0.20719 0.0
C435 C 0.52637 0.75781 0.23242 0.0
C436 C 0.43783 0.81744 0.211 0.0
C437 C 0.39926 0.85211 0.18674 0.0
C438 C 0.4451 0.87916 0.17952 0.0
C439 C 0.4084 0.91154 0.15642 0.0
C440 C 0.32594 0.91743 0.14058 0.0
C441 C 0.28002 0.89099 0.14786 0.0
C442 C 0.31642 0.85851 0.17091 0.0
C443 C 0.52375 0.79478 0.35682 0.0
C444 C 0.45124 0.7852 0.3551 0.0
C445 C 0.5289 0.79492 0.32746 0.0
C446 C 0.46153 0.78613 0.29553 0.0
C447 C 0.38856 0.7776 0.29338 0.0
C448 C 0.38358 0.77674 0.32284 0.0
C449 C 0.46819 0.78502 0.26461 0.0
C450 C 0.42824 0.81513 0.2394 0.0
C451 C 0.51758 0.75589 0.26098 0.0
C452 C 0.55937 0.7226 0.28629 0.0
C453 C 0.51627 0.69499 0.29459 0.0
C454 C 0.55605 0.66389 0.31865 0.0
C455 C 0.63891 0.65988 0.3344 0.0
C456 C 0.68212 0.6869 0.32606 0.0
C457 C 0.64262 0.7181 0.30205 0.0
H458 H 0.66959 0.63577 0.35301 0.0
H459 H 0.29769 0.94256 0.12276 0.0
H460 H 0.7527 0.74895 0.8925 0.0
H461 H 0.70446 0.75781 0.83227 0.0
H462 H 0.48117 0.80522 0.81651 0.0
H463 H 0.52892 0.79603 0.8772 0.0
H464 H 0.46768 0.74208 0.77007 0.0
H465 H 0.6101 0.87042 0.81784 0.0
H466 H 0.72913 0.91015 0.85917 0.0
H467 H 0.86587 0.85377 0.8203 0.0
H468 H 0.74799 0.81347 0.77904 0.0
H469 H 0.2957 0.81175 0.6052 0.0
H470 H 0.35996 0.81741 0.66673 0.0
H471 H 0.57953 0.77055 0.67817 0.0
H472 H 0.51534 0.76495 0.61597 0.0
H473 H 0.60103 0.83365 0.7273 0.0
H474 H 0.46598 0.70385 0.68282 0.0
H475 H 0.35428 0.65742 0.6452 0.0
H476 H 0.20973 0.71206 0.68089 0.0
H477 H 0.31959 0.75989 0.7178 0.0
C478 C 0.69336 0.76143 0.87634 0.0
C479 C 0.64466 0.77209 0.88961 0.0
C480 C 0.66606 0.76648 0.84194 0.0
C481 C 0.58969 0.78244 0.82018 0.0
C482 C 0.54027 0.79265 0.83309 0.0
C483 C 0.5675 0.78741 0.86764 0.0
C484 C 0.56069 0.78709 0.78366 0.0
C485 C 0.49543 0.7629 0.76064 0.0
C486 C 0.60022 0.81262 0.7718 0.0
C487 C 0.67024 0.83849 0.79551 0.0
C488 C 0.66561 0.86635 0.81818 0.0
C489 C 0.73292 0.88903 0.84161 0.0
C490 C 0.80511 0.88439 0.84245 0.0
C491 C 0.80997 0.8573 0.81968 0.0
C492 C 0.74285 0.83456 0.79622 0.0
C493 C 0.35801 0.80308 0.62069 0.0
C494 C 0.40017 0.78706 0.60586 0.0
C495 C 0.39467 0.80659 0.65584 0.0
C496 C 0.47387 0.79373 0.67686 0.0
C497 C 0.51817 0.78047 0.66223 0.0
C498 C 0.48144 0.77715 0.6268 0.0
C499 C 0.50602 0.78968 0.71371 0.0
C500 C 0.57224 0.81358 0.73676 0.0
C501 C 0.46792 0.76356 0.72584 0.0
C502 C 0.40089 0.73561 0.70294 0.0
C503 C 0.41 0.70636 0.6823 0.0
C504 C 0.34697 0.67983 0.66107 0.0
C505 C 0.27485 0.6819 0.66056 0.0
C506 C 0.26541 0.71068 0.68113 0.0
C507 C 0.32802 0.73753 0.70219 0.0
H508 H 0.2265 0.66102 0.64437 0.0
H509 H 0.85722 0.90185 0.86068 0.0
H510 H 0.52028 0.18247 0.63088 0.0
H511 H 0.50623 0.1827 0.68092 0.0
H512 H 0.56104 0.31337 0.69525 0.0
H513 H 0.57508 0.31338 0.64509 0.0
H514 H 0.63812 0.27341 0.75492 0.0
H515 H 0.36812 0.27781 0.66036 0.0
H516 H 0.25218 0.25446 0.60593 0.0
H517 H 0.25527 0.13706 0.65031 0.0
H518 H 0.37195 0.1595 0.7049 0.0
H519 H 0.5081 0.31114 0.8721 0.0
H520 H 0.5243 0.31185 0.82259 0.0
H521 H 0.46388 0.18189 0.80542 0.0
H522 H 0.44742 0.181 0.85488 0.0
H523 H 0.38945 0.22215 0.74702 0.0
H524 H 0.65905 0.21692 0.84126 0.0
H525 H 0.77638 0.23919 0.89564 0.0
H526 H 0.77555 0.35687 0.85211 0.0
H527 H 0.65745 0.33552 0.79758 0.0
C528 C 0.52874 0.21136 0.6445 0.0
C529 C 0.5482 0.24798 0.63377 0.0
C530 C 0.52076 0.21143 0.67317 0.0
C531 C 0.53134 0.24819 0.69163 0.0
C532 C 0.55244 0.28463 0.68143 0.0
C533 C 0.56068 0.28456 0.65278 0.0
C534 C 0.52037 0.24858 0.72155 0.0
C535 C 0.58329 0.26277 0.75308 0.0
C536 C 0.4496 0.23373 0.71943 0.0
C537 C 0.37926 0.22022 0.68664 0.0
C538 C 0.34446 0.2469 0.65844 0.0
C539 C 0.27854 0.23384 0.62757 0.0
C540 C 0.24649 0.19427 0.62464 0.0
C541 C 0.2802 0.16769 0.65261 0.0
C542 C 0.34618 0.18058 0.68353 0.0
C543 C 0.49891 0.2826 0.85797 0.0
C544 C 0.47679 0.24596 0.86763 0.0
C545 C 0.50819 0.28305 0.82962 0.0
C546 C 0.49641 0.24678 0.81044 0.0
C547 C 0.47333 0.21029 0.81975 0.0
C548 C 0.4637 0.20986 0.84802 0.0
C549 C 0.50728 0.24692 0.78047 0.0
C550 C 0.44428 0.23285 0.7489 0.0
C551 C 0.57808 0.26177 0.78259 0.0
C552 C 0.64885 0.27477 0.81543 0.0
C553 C 0.68343 0.24769 0.84337 0.0
C554 C 0.75017 0.26012 0.87421 0.0
C555 C 0.78327 0.29946 0.87736 0.0
C556 C 0.74977 0.32643 0.84965 0.0
C557 C 0.68296 0.31417 0.81877 0.0
H558 H 0.83499 0.30901 0.90125 0.0
H559 H 0.19544 0.18422 0.60073 0.0
H560 H 0.76354 0.78192 0.10436 0.0
H561 H 0.81492 0.77612 0.1651 0.0
H562 H 0.03274 0.72232 0.1796 0.0
H563 H 0.981 0.72761 0.1182 0.0
H564 H 0.96549 0.67984 0.21347 0.0
H565 H 0.04128 0.81761 0.20251 0.0
H566 H 0.01983 0.88766 0.17806 0.0
H567 H 0.84683 0.91249 0.20723 0.0
H568 H 0.86647 0.84231 0.23145 0.0
H569 H 0.22035 0.71584 0.39052 0.0
H570 H 0.15351 0.71131 0.32871 0.0
H571 H 0.9406 0.76452 0.31974 0.0
H572 H 0.00729 0.76893 0.38206 0.0
H573 H 0.99883 0.80565 0.28251 0.0
H574 H 0.93026 0.66884 0.29707 0.0
H575 H 0.9525 0.59874 0.32143 0.0
H576 H 0.11319 0.57181 0.28597 0.0
H577 H 0.09288 0.64203 0.26183 0.0
C578 C 0.82225 0.76863 0.12033 0.0
C579 C 0.8682 0.75503 0.10651 0.0
C580 C 0.8516 0.76556 0.15507 0.0
C581 C 0.92757 0.74896 0.17669 0.0
C582 C 0.97382 0.73519 0.16313 0.0
C583 C 0.94454 0.73849 0.12822 0.0
C584 C 0.95828 0.74644 0.21352 0.0
C585 C 0.97395 0.7073 0.22877 0.0
C586 C 0.96668 0.78231 0.23297 0.0
C587 C 0.95478 0.82457 0.21849 0.0
C588 C 0.99815 0.83788 0.20345 0.0
C589 C 0.98643 0.87763 0.18969 0.0
C590 C 0.93185 0.90447 0.19102 0.0
C591 C 0.88902 0.89164 0.20619 0.0
C592 C 0.90048 0.85189 0.21996 0.0
C593 C 0.15889 0.72607 0.37546 0.0
C594 C 0.119 0.74298 0.39102 0.0
C595 C 0.12072 0.7232 0.34017 0.0
C596 C 0.04221 0.73741 0.31983 0.0
C597 C 1.00124 0.75326 0.3352 0.0
C598 C 0.03918 0.75565 0.37067 0.0
C599 C 0.00639 0.73902 0.28261 0.0
C600 C 0.98991 0.7781 0.26724 0.0
C601 C 0.99756 0.70307 0.26316 0.0
C602 C 0.01058 0.66089 0.2779 0.0
C603 C 0.971 0.64815 0.29477 0.0
C604 C 0.98311 0.60834 0.30847 0.0
C605 C 0.03437 0.58086 0.30532 0.0
C606 C 0.07356 0.59314 0.28842 0.0
C607 C 0.0617 0.63294 0.27469 0.0
H608 H 0.04356 0.55003 0.31589 0.0
H609 H 0.92288 0.93524 0.18036 0.0
H610 H 0.06771 0.32129 0.38304 0.0
H611 H 0.07992 0.31976 0.33266 0.0
H612 H 0.90863 0.21991 0.29059 0.0
H613 H 0.89466 0.22171 0.34072 0.0
H614 H 0.03914 0.20547 0.28432 0.0
H615 H 0.85143 0.31629 0.25801 0.0
H616 H 0.80123 0.38146 0.2686 0.0
H617 H 0.00535 0.44686 0.28013 0.0
H618 H 0.05692 0.38204 0.2697 0.0
H619 H 0.96771 0.21825 0.11517 0.0
H620 H 0.95845 0.21545 0.16641 0.0
H621 H 0.11974 0.31952 0.20871 0.0
H622 H 0.1294 0.32238 0.15756 0.0
H623 H 0.99179 0.33108 0.21441 0.0
H624 H 0.18545 0.22086 0.24581 0.0
H625 H 0.24134 0.15561 0.2385 0.0
H626 H 0.02932 0.0902 0.21785 0.0
H627 H 0.97296 0.1549 0.2258 0.0
C628 C 0.03177 0.29928 0.36296 0.0
C629 C 0.97981 0.27177 0.366 0.0
C630 C 0.03903 0.2984 0.33415 0.0
C631 C 0.99454 0.27004 0.30765 0.0
C632 C 0.94363 0.24203 0.31075 0.0
C633 C 0.93614 0.24294 0.33957 0.0
C634 C 1.00225 0.26939 0.27699 0.0
C635 C 0.02758 0.23276 0.26871 0.0
C636 C 0.9892 0.30525 0.25711 0.0
C637 C 0.95838 0.34426 0.26339 0.0
C638 C 0.88588 0.34452 0.26303 0.0
C639 C 0.85711 0.3814 0.26894 0.0
C640 C 0.90026 0.41822 0.2752 0.0
C641 C 0.97207 0.41829 0.27535 0.0
C642 C 1.00099 0.38152 0.26936 0.0
C643 C 1.00201 0.2402 0.13557 0.0
C644 C 0.04897 0.27069 0.1322 0.0
C645 C 0.99684 0.2385 0.16492 0.0
C646 C 0.03882 0.26711 0.19159 0.0
C647 C 0.08661 0.29719 0.18846 0.0
C648 C 0.09177 0.29893 0.15913 0.0
C649 C 0.02923 0.26721 0.22182 0.0
C650 C 1.0033 0.30375 0.22997 0.0
C651 C 0.04202 0.23135 0.24166 0.0
C652 C 0.07474 0.19271 0.23604 0.0
C653 C 0.15062 0.19258 0.23953 0.0
C654 C 0.18252 0.15569 0.23543 0.0
C655 C 0.13864 0.11888 0.22743 0.0
C656 C 0.06313 0.11877 0.22391 0.0
C657 C 0.03139 0.15547 0.22843 0.0
H658 H 0.1633 0.09041 0.2241 0.0
H659 H 0.87794 0.44672 0.27981 0.0
H660 H 0.9889 0.24227 0.61943 0.0
H661 H 0.04002 0.24493 0.68086 0.0
H662 H 0.85243 0.33009 0.66369 0.0
H663 H 0.80029 0.32699 0.60237 0.0
H664 H 0.01966 0.34499 0.72558 0.0
H665 H 0.8022 0.24769 0.6702 0.0
H666 H 0.72716 0.19105 0.62988 0.0
H667 H 0.92912 0.11027 0.68342 0.0
H668 H 0.00578 0.16674 0.72382 0.0
H669 H 0.02452 0.30246 0.88062 0.0
H670 H 0.96605 0.30817 0.81879 0.0
H671 H 0.14599 0.22538 0.82426 0.0
H672 H 0.20554 0.22027 0.8859 0.0
H673 H 0.97306 0.21231 0.76742 0.0
H674 H 0.18916 0.31386 0.82326 0.0
H675 H 0.25691 0.37183 0.86329 0.0
H676 H 0.04682 0.44683 0.80806 0.0
H677 H 0.97733 0.38894 0.76803 0.0
C678 C 0.96 0.2623 0.62894 0.0
C679 C 0.8904 0.28402 0.60646 0.0
C680 C 0.98899 0.26376 0.66384 0.0
C681 C 0.94942 0.28756 0.67643 0.0
C682 C 0.88353 0.3117 0.65424 0.0
C683 C 0.85367 0.30964 0.61936 0.0
C684 C 0.97099 0.28322 0.71204 0.0
C685 C 0.00882 0.31623 0.73475 0.0
C686 C 0.95601 0.24574 0.72361 0.0
C687 C 0.90998 0.21151 0.69977 0.0
C688 C 0.83083 0.21795 0.67319 0.0
C689 C 0.78795 0.18588 0.65037 0.0
C690 C 0.82346 0.14712 0.65402 0.0
C691 C 0.90178 0.14033 0.6806 0.0
C692 C 0.94494 0.17234 0.70349 0.0
C693 C 0.05069 0.28506 0.86846 0.0
C694 C 0.11975 0.26123 0.88781 0.0
C695 C 0.01748 0.2884 0.83335 0.0
C696 C 0.05223 0.26726 0.81736 0.0
C697 C 0.11865 0.2418 0.83639 0.0
C698 C 0.15277 0.23916 0.87149 0.0
C699 C 0.02307 0.2738 0.78114 0.0
C700 C 0.98355 0.24117 0.75826 0.0
C701 C 0.03546 0.31186 0.76938 0.0
C702 C 0.07778 0.34695 0.79292 0.0
C703 C 0.1572 0.34259 0.81983 0.0
C704 C 0.19595 0.37545 0.84249 0.0
C705 C 0.15611 0.41295 0.83829 0.0
C706 C 0.07755 0.41773 0.81132 0.0
C707 C 0.03847 0.38492 0.78863 0.0
H708 H 0.18618 0.43834 0.85589 0.0
H709 H 0.79022 0.12232 0.63632 0.0
H710 H 0.10181 0.79778 0.65734 0.0
H711 H 0.08023 0.79608 0.70527 0.0
H712 H 0.96287 0.67743 0.67104 0.0
H713 H 0.98039 0.67997 0.622 0.0
H714 H 0.88389 0.71995 0.69083 0.0
H715 H 0.15553 0.6872 0.74073 0.0
H716 H 0.29723 0.69089 0.75738 0.0
H717 H 0.32192 0.80734 0.80772 0.0
H718 H 0.17987 0.80466 0.79101 0.0
H719 H 0.92569 0.674 0.85389 0.0
H720 H 0.93588 0.67321 0.80273 0.0
H721 H 1.00178 0.80248 0.8183 0.0
H722 H 0.99246 0.80344 0.86961 0.0
H723 H 0.10526 0.75113 0.80802 0.0
H724 H 0.81971 0.77165 0.75825 0.0
H725 H 0.68581 0.7517 0.74674 0.0
H726 H 0.69575 0.63931 0.69872 0.0
H727 H 0.83076 0.6576 0.71102 0.0
C728 C 0.07047 0.77153 0.65968 0.0
C729 C 0.04287 0.73904 0.63561 0.0
C730 C 0.0591 0.77032 0.68747 0.0
C731 C 0.02073 0.73636 0.69219 0.0
C732 C 0.99276 0.70398 0.66813 0.0
C733 C 1.00367 0.70528 0.64021 0.0
C734 C 0.00908 0.73493 0.72199 0.0
C735 C 0.93264 0.7263 0.71649 0.0
C736 C 0.07244 0.74296 0.75564 0.0
C737 C 0.15677 0.74593 0.76431 0.0
C738 C 0.19081 0.71389 0.75495 0.0
C739 C 0.27125 0.7157 0.76452 0.0
C740 C 0.31839 0.7493 0.7836 0.0
C741 C 0.28517 0.78135 0.79293 0.0
C742 C 0.20471 0.77969 0.78344 0.0
C743 C 0.94236 0.70227 0.84642 0.0
C744 C 0.95868 0.73874 0.86598 0.0
C745 C 0.94752 0.70184 0.81702 0.0
C746 C 0.96932 0.73782 0.8066 0.0
C747 C 0.98473 0.77437 0.82583 0.0
C748 C 0.97895 0.77492 0.85506 0.0
C749 C 0.98007 0.73702 0.7767 0.0
C750 C 0.05657 0.74506 0.78227 0.0
C751 C 0.91747 0.72661 0.74343 0.0
C752 C 0.83592 0.71585 0.73594 0.0
C753 C 0.7938 0.74245 0.74562 0.0
C754 C 0.71768 0.73148 0.73893 0.0
C755 C 0.68234 0.69439 0.72201 0.0
C756 C 0.72319 0.66805 0.71185 0.0
C757 C 0.79962 0.67864 0.71877 0.0
H758 H 0.62326 0.68613 0.71674 0.0
H759 H 0.38076 0.75034 0.79131 0.0
loop_
_geom_bond_atom_site_label_1
_geom_bond_atom_site_label_2
_geom_bond_distance
_geom_bond_site_symmetry_2
_ccdc_geom_bond_type
Gd0 C3 2.818 . S
Gd0 O20 2.377 . S
Gd0 O22 2.448 . S
Gd0 O23 2.506 . S
Gd0 O24 2.435 . S
Gd0 O25 2.717 1_554 S
Gd0 O27 2.395 1_554 S
Gd0 O31 2.327 . S
Gd1 C12 2.810 1_554 S
Gd1 O21 2.404 . S
Gd1 O25 2.329 1_554 S
Gd1 O26 2.372 1_554 S
Gd1 O28 2.441 1_554 S
Gd1 O29 2.498 1_554 S
Gd1 O30 2.437 1_554 S
Gd1 O31 2.723 . S
C2 O20 1.240 . S
C2 O21 1.240 . S
C3 Gd0 2.818 . S
C3 C4 1.510 . S
C3 O22 1.249 . S
C3 O23 1.252 . S
C4 C3 1.510 . S
C4 C5 1.404 . S
C4 C6 1.352 . S
C5 C4 1.404 . S
C5 C9 1.389 . S
C5 H32 0.930 . S
C6 C4 1.352 . S
C6 C8 1.374 . S
C6 H33 0.931 . S
C7 C8 1.359 . S
C7 C9 1.364 . S
C8 C6 1.374 . S
C8 C7 1.359 . S
C8 H34 0.931 . S
C9 C5 1.389 . S
C9 C7 1.364 . S
C9 H35 0.931 . S
C10 O24 1.256 . S
C10 O25 1.257 1_554 S
C11 O26 1.240 . S
C11 O27 1.240 . S
C12 Gd1 2.810 1_556 S
C12 C13 1.510 . S
C12 O28 1.249 . S
C12 O29 1.252 . S
C13 C12 1.510 . S
C13 C14 1.404 . S
C13 C15 1.352 . S
C14 C13 1.404 . S
C14 C18 1.389 . S
C14 H36 0.930 . S
C15 C13 1.352 . S
C15 C17 1.374 . S
C15 H37 0.931 . S
C16 C17 1.359 . S
C16 C18 1.364 . S
C17 C15 1.374 . S
C17 C16 1.359 . S
C17 H38 0.931 . S
C18 C14 1.389 . S
C18 C16 1.364 . S
C18 H39 0.931 . S
C19 O30 1.256 . S
C19 O31 1.257 1_556 S
O20 Gd0 2.377 . S
O20 C2 1.240 . S
O21 Gd1 2.404 . S
O21 C2 1.240 . S
O22 Gd0 2.448 . S
O22 C3 1.249 . S
O23 Gd0 2.506 . S
O23 C3 1.252 . S
O24 Gd0 2.435 . S
O24 C10 1.256 . S
O25 Gd0 2.717 1_556 S
O25 Gd1 2.329 1_556 S
O25 C10 1.257 1_556 S
O26 Gd1 2.372 1_556 S
O26 C11 1.240 . S
O27 Gd0 2.395 1_556 S
O27 C11 1.240 . S
O28 Gd1 2.441 1_556 S
O28 C12 1.249 . S
O29 Gd1 2.498 1_556 S
O29 C12 1.252 . S
O30 Gd1 2.437 1_556 S
O30 C19 1.256 . S
O31 Gd0 2.327 . S
O31 Gd1 2.723 . S
O31 C19 1.257 1_554 S
H32 C5 0.930 . S
H33 C6 0.931 . S
H34 C8 0.931 . S
H35 C9 0.931 . S
H36 C14 0.930 . S
H37 C15 0.931 . S
H38 C17 0.931 . S
H39 C18 0.931 . S
Gd40 C43 2.818 . S
Gd40 O60 2.377 . S
Gd40 O62 2.448 . S
Gd40 O63 2.506 . S
Gd40 O64 2.435 . S
Gd40 O65 2.717 1_554 S
Gd40 O67 2.395 1_554 S
Gd40 O71 2.327 . S
Gd41 C52 2.809 1_554 S
Gd41 O61 2.404 . S
Gd41 O65 2.329 1_554 S
Gd41 O66 2.372 1_554 S
Gd41 O68 2.441 1_554 S
Gd41 O69 2.498 1_554 S
Gd41 O70 2.437 1_554 S
Gd41 O71 2.723 . S
C42 O60 1.240 . S
C42 O61 1.240 . S
C43 Gd40 2.818 . S
C43 C44 1.510 . S
C43 O62 1.249 . S
C43 O63 1.252 . S
C44 C43 1.510 . S
C44 C45 1.404 . S
C44 C46 1.352 . S
C45 C44 1.404 . S
C45 C49 1.389 . S
C45 H72 0.930 . S
C46 C44 1.352 . S
C46 C48 1.374 . S
C46 H73 0.931 . S
C47 C48 1.359 . S
C47 C49 1.364 . S
C48 C46 1.374 . S
C48 C47 1.359 . S
C48 H74 0.931 . S
C49 C45 1.389 . S
C49 C47 1.364 . S
C49 H75 0.931 . S
C50 O64 1.256 . S
C50 O65 1.257 1_554 S
C51 O66 1.240 . S
C51 O67 1.240 . S
C52 Gd41 2.809 1_556 S
C52 C53 1.510 . S
C52 O68 1.249 . S
C52 O69 1.252 . S
C53 C52 1.510 . S
C53 C54 1.404 . S
C53 C55 1.352 . S
C54 C53 1.404 . S
C54 C58 1.389 . S
C54 H76 0.930 . S
C55 C53 1.352 . S
C55 C57 1.374 . S
C55 H77 0.931 . S
C56 C57 1.359 . S
C56 C58 1.364 . S
C57 C55 1.374 . S
C57 C56 1.359 . S
C57 H78 0.931 . S
C58 C54 1.389 . S
C58 C56 1.364 . S
C58 H79 0.931 . S
C59 O70 1.256 . S
C59 O71 1.257 1_556 S
O60 Gd40 2.377 . S
O60 C42 1.240 . S
O61 Gd41 2.404 . S
O61 C42 1.240 . S
O62 Gd40 2.448 . S
O62 C43 1.249 . S
O63 Gd40 2.506 . S
O63 C43 1.252 . S
O64 Gd40 2.435 . S
O64 C50 1.256 . S
O65 Gd40 2.717 1_556 S
O65 Gd41 2.329 1_556 S
O65 C50 1.257 1_556 S
O66 Gd41 2.372 1_556 S
O66 C51 1.240 . S
O67 Gd40 2.395 1_556 S
O67 C51 1.240 . S
O68 Gd41 2.441 1_556 S
O68 C52 1.249 . S
O69 Gd41 2.498 1_556 S
O69 C52 1.252 . S
O70 Gd41 2.437 1_556 S
O70 C59 1.256 . S
O71 Gd40 2.327 . S
O71 Gd41 2.723 . S
O71 C59 1.257 1_554 S
H72 C45 0.930 . S
H73 C46 0.931 . S
H74 C48 0.931 . S
H75 C49 0.931 . S
H76 C54 0.930 . S
H77 C55 0.931 . S
H78 C57 0.931 . S
H79 C58 0.931 . S
Gd80 C83 2.818 . S
Gd80 O100 2.377 . S
Gd80 O102 2.448 . S
Gd80 O103 2.506 . S
Gd80 O104 2.435 . S
Gd80 O105 2.717 . S
Gd80 O107 2.395 . S
Gd80 O111 2.327 . S
Gd81 C92 2.818 . S
Gd81 O101 2.395 . S
Gd81 O105 2.327 . S
Gd81 O106 2.377 . S
Gd81 O108 2.448 . S
Gd81 O109 2.506 . S
Gd81 O110 2.435 . S
Gd81 O111 2.717 . S
C82 O100 1.240 . S
C82 O101 1.240 . S
C83 Gd80 2.818 . S
C83 C84 1.510 . S
C83 O102 1.249 . S
C83 O103 1.252 . S
C84 C83 1.510 . S
C84 C85 1.404 . S
C84 C86 1.352 . S
C85 C84 1.404 . S
C85 C89 1.389 . S
C85 H112 0.930 . S
C86 C84 1.352 . S
C86 C88 1.374 . S
C86 H113 0.931 . S
C87 C88 1.359 . S
C87 C89 1.364 . S
C88 C86 1.374 . S
C88 C87 1.359 . S
C88 H114 0.931 . S
C89 C85 1.389 . S
C89 C87 1.364 . S
C89 H115 0.931 . S
C90 O104 1.256 . S
C90 O105 1.257 . S
C91 O106 1.240 . S
C91 O107 1.240 . S
C92 Gd81 2.818 . S
C92 C93 1.510 . S
C92 O108 1.249 . S
C92 O109 1.252 . S
C93 C92 1.510 . S
C93 C94 1.404 . S
C93 C95 1.352 . S
C94 C93 1.404 . S
C94 C98 1.389 . S
C94 H116 0.930 . S
C95 C93 1.352 . S
C95 C97 1.374 . S
C95 H117 0.931 . S
C96 C97 1.359 . S
C96 C98 1.364 . S
C97 C95 1.374 . S
C97 C96 1.359 . S
C97 H118 0.931 . S
C98 C94 1.389 . S
C98 C96 1.364 . S
C98 H119 0.931 . S
C99 O110 1.256 . S
C99 O111 1.257 . S
O100 Gd80 2.377 . S
O100 C82 1.240 . S
O101 Gd81 2.395 . S
O101 C82 1.240 . S
O102 Gd80 2.448 . S
O102 C83 1.249 . S
O103 Gd80 2.506 . S
O103 C83 1.252 . S
O104 Gd80 2.435 . S
O104 C90 1.256 . S
O105 Gd80 2.717 . S
O105 Gd81 2.327 . S
O105 C90 1.257 . S
O106 Gd81 2.377 . S
O106 C91 1.240 . S
O107 Gd80 2.395 . S
O107 C91 1.240 . S
O108 Gd81 2.448 . S
O108 C92 1.249 . S
O109 Gd81 2.506 . S
O109 C92 1.252 . S
O110 Gd81 2.435 . S
O110 C99 1.256 . S
O111 Gd80 2.327 . S
O111 Gd81 2.717 . S
O111 C99 1.257 . S
H112 C85 0.930 . S
H113 C86 0.931 . S
H114 C88 0.931 . S
H115 C89 0.931 . S
H116 C94 0.930 . S
H117 C95 0.931 . S
H118 C97 0.931 . S
H119 C98 0.931 . S
Gd120 C123 2.818 . S
Gd120 O140 2.377 . S
Gd120 O142 2.448 . S
Gd120 O143 2.506 . S
Gd120 O144 2.435 . S
Gd120 O145 2.717 . S
Gd120 O147 2.395 . S
Gd120 O151 2.327 . S
Gd121 C132 2.818 . S
Gd121 O141 2.395 . S
Gd121 O145 2.327 . S
Gd121 O146 2.377 . S
Gd121 O148 2.448 . S
Gd121 O149 2.506 . S
Gd121 O150 2.435 . S
Gd121 O151 2.717 . S
C122 O140 1.240 . S
C122 O141 1.240 . S
C123 Gd120 2.818 . S
C123 C124 1.510 . S
C123 O142 1.249 . S
C123 O143 1.252 . S
C124 C123 1.510 . S
C124 C125 1.404 . S
C124 C126 1.352 . S
C125 C124 1.404 . S
C125 C129 1.389 . S
C125 H152 0.930 . S
C126 C124 1.352 . S
C126 C128 1.374 . S
C126 H153 0.931 . S
C127 C128 1.359 . S
C127 C129 1.364 . S
C128 C126 1.374 . S
C128 C127 1.359 . S
C128 H154 0.931 . S
C129 C125 1.389 . S
C129 C127 1.364 . S
C129 H155 0.931 . S
C130 O144 1.256 . S
C130 O145 1.257 . S
C131 O146 1.240 . S
C131 O147 1.240 . S
C132 Gd121 2.818 . S
C132 C133 1.510 . S
C132 O148 1.249 . S
C132 O149 1.252 . S
C133 C132 1.510 . S
C133 C134 1.404 . S
C133 C135 1.352 . S
C134 C133 1.404 . S
C134 C138 1.389 . S
C134 H156 0.930 . S
C135 C133 1.352 . S
C135 C137 1.374 . S
C135 H157 0.931 . S
C136 C137 1.359 . S
C136 C138 1.364 . S
C137 C135 1.374 . S
C137 C136 1.359 . S
C137 H158 0.931 . S
C138 C134 1.389 . S
C138 C136 1.364 . S
C138 H159 0.931 . S
C139 O150 1.256 . S
C139 O151 1.257 . S
O140 Gd120 2.377 . S
O140 C122 1.240 . S
O141 Gd121 2.395 . S
O141 C122 1.240 . S
O142 Gd120 2.448 . S
O142 C123 1.249 . S
O143 Gd120 2.506 . S
O143 C123 1.252 . S
O144 Gd120 2.435 . S
O144 C130 1.256 . S
O145 Gd120 2.717 . S
O145 Gd121 2.327 . S
O145 C130 1.257 . S
O146 Gd121 2.377 . S
O146 C131 1.240 . S
O147 Gd120 2.395 . S
O147 C131 1.240 . S
O148 Gd121 2.448 . S
O148 C132 1.249 . S
O149 Gd121 2.506 . S
O149 C132 1.252 . S
O150 Gd121 2.435 . S
O150 C139 1.256 . S
O151 Gd120 2.327 . S
O151 Gd121 2.717 . S
O151 C139 1.257 . S
H152 C125 0.930 . S
H153 C126 0.931 . S
H154 C128 0.931 . S
H155 C129 0.931 . S
H156 C134 0.930 . S
H157 C135 0.931 . S
H158 C137 0.931 . S
H159 C138 0.931 . S
H160 C178 0.951 . S
H161 C180 0.951 . S
H162 C182 0.950 . S
H163 C183 0.950 . S
H164 C185 0.950 . S
H165 C188 0.950 . S
H166 C189 0.950 . S
H167 C191 0.950 . S
H168 C192 0.950 . S
H169 C193 0.951 . S
H170 C195 0.951 . S
H171 C197 0.931 1_556 S
H172 C198 0.933 1_556 S
H173 C200 0.950 . S
H174 C203 0.950 . S
H175 C204 0.950 . S
H176 C206 0.950 . S
H177 C207 0.950 . S
C178 H160 0.951 . S
C178 C179 1.371 . S
C178 C180 1.388 . S
C179 C178 1.371 . S
C179 C183 1.374 1_556 S
C180 H161 0.951 . S
C180 C178 1.388 . S
C180 C181 1.366 . S
C181 C180 1.366 . S
C181 C182 1.414 1_556 S
C181 C184 1.513 . S
C182 H162 0.950 . S
C182 C181 1.414 1_554 S
C182 C183 1.374 . S
C183 H163 0.950 . S
C183 C179 1.374 1_554 S
C183 C182 1.374 . S
C184 C181 1.513 . S
C184 C185 1.333 1_556 S
C184 C186 1.415 . S
C185 H164 0.950 . S
C185 C184 1.333 1_554 S
C185 C201 1.377 . S
C186 C184 1.415 . S
C186 C187 1.524 . S
C186 C200 1.377 . S
C187 C186 1.524 . S
C187 C188 1.397 . S
C187 C192 1.363 . S
C188 H165 0.950 . S
C188 C187 1.397 . S
C188 C189 1.334 . S
C189 H166 0.950 . S
C189 C188 1.334 . S
C189 C190 1.287 . S
C190 C189 1.287 . S
C190 C191 1.524 . S
C190 H209 0.913 . S
C191 H167 0.950 . S
C191 C190 1.524 . S
C191 C192 1.415 . S
C192 H168 0.950 . S
C192 C187 1.363 . S
C192 C191 1.415 . S
C193 H169 0.951 . S
C193 C194 1.366 . S
C193 C195 1.388 . S
C194 C193 1.366 . S
C194 C198 1.404 . S
C195 H170 0.951 . S
C195 C193 1.388 . S
C195 C196 1.366 . S
C196 C195 1.366 . S
C196 C197 1.424 . S
C196 C199 1.499 . S
C197 H171 0.931 1_554 S
C197 C196 1.424 . S
C197 C198 1.374 . S
C198 H172 0.933 1_554 S
C198 C194 1.404 . S
C198 C197 1.374 . S
C199 C196 1.499 . S
C199 C200 1.373 1_554 S
C199 C201 1.389 . S
C200 H173 0.950 . S
C200 C186 1.377 . S
C200 C199 1.373 1_556 S
C201 C185 1.377 . S
C201 C199 1.389 . S
C201 C202 1.524 . S
C202 C201 1.524 . S
C202 C203 1.397 . S
C202 C207 1.363 . S
C203 H174 0.950 . S
C203 C202 1.397 . S
C203 C204 1.334 . S
C204 H175 0.950 . S
C204 C203 1.334 . S
C204 C205 1.287 . S
C205 C204 1.287 . S
C205 C206 1.524 . S
C205 H208 0.999 . S
C206 H176 0.950 . S
C206 C205 1.524 . S
C206 C207 1.415 . S
C207 H177 0.950 . S
C207 C202 1.363 . S
C207 C206 1.415 . S
H208 C205 0.999 . S
H209 C190 0.913 . S
H210 C228 0.951 . S
H211 C230 0.951 . S
H212 C232 0.950 . S
H213 C233 0.950 . S
H214 C235 0.950 . S
H215 C238 0.950 . S
H216 C239 0.950 . S
H217 C241 0.950 . S
H218 C242 0.950 . S
H219 C243 0.951 . S
H220 C245 0.951 . S
H221 C247 0.950 . S
H222 C248 0.950 . S
H223 C250 0.950 . S
H224 C253 0.950 . S
H225 C254 0.950 . S
H226 C256 0.950 . S
H227 C257 0.950 . S
C228 H210 0.951 . S
C228 C229 1.366 . S
C228 C230 1.388 . S
C229 C228 1.366 . S
C229 C233 1.385 . S
C230 H211 0.951 . S
C230 C228 1.388 . S
C230 C231 1.366 . S
C231 C230 1.366 . S
C231 C232 1.414 . S
C231 C234 1.499 . S
C232 H212 0.950 . S
C232 C231 1.414 . S
C232 C233 1.374 . S
C233 H213 0.950 . S
C233 C229 1.385 . S
C233 C232 1.374 . S
C234 C231 1.499 . S
C234 C235 1.373 . S
C234 C236 1.389 . S
C235 H214 0.950 . S
C235 C234 1.373 . S
C235 C251 1.377 . S
C236 C234 1.389 . S
C236 C237 1.524 . S
C236 C250 1.377 . S
C237 C236 1.524 . S
C237 C238 1.397 . S
C237 C242 1.363 . S
C238 H215 0.950 . S
C238 C237 1.397 . S
C238 C239 1.334 . S
C239 H216 0.950 . S
C239 C238 1.334 . S
C239 C240 1.287 . S
C240 C239 1.287 . S
C240 C241 1.524 . S
C240 H259 0.913 . S
C241 H217 0.950 . S
C241 C240 1.524 . S
C241 C242 1.415 . S
C242 H218 0.950 . S
C242 C237 1.363 . S
C242 C241 1.415 . S
C243 H219 0.951 . S
C243 C244 1.366 . S
C243 C245 1.388 . S
C244 C243 1.366 . S
C244 C248 1.385 . S
C245 H220 0.951 . S
C245 C243 1.388 . S
C245 C246 1.366 . S
C246 C245 1.366 . S
C246 C247 1.414 . S
C246 C249 1.499 . S
C247 H221 0.950 . S
C247 C246 1.414 . S
C247 C248 1.374 . S
C248 H222 0.950 . S
C248 C244 1.385 . S
C248 C247 1.374 . S
C249 C246 1.499 . S
C249 C250 1.373 . S
C249 C251 1.389 . S
C250 H223 0.950 . S
C250 C236 1.377 . S
C250 C249 1.373 . S
C251 C235 1.377 . S
C251 C249 1.389 . S
C251 C252 1.524 . S
C252 C251 1.524 . S
C252 C253 1.397 . S
C252 C257 1.363 . S
C253 H224 0.950 . S
C253 C252 1.397 . S
C253 C254 1.334 . S
C254 H225 0.950 . S
C254 C253 1.334 . S
C254 C255 1.287 . S
C255 C254 1.287 . S
C255 C256 1.524 . S
C255 H258 0.999 . S
C256 H226 0.950 . S
C256 C255 1.524 . S
C256 C257 1.415 . S
C257 H227 0.950 . S
C257 C252 1.363 . S
C257 C256 1.415 . S
H258 C255 0.999 . S
H259 C240 0.913 . S
H260 C278 0.951 . S
H261 C280 0.951 . S
H262 C282 0.950 . S
H263 C283 0.950 . S
H264 C285 0.950 . S
H265 C288 0.950 . S
H266 C289 0.950 . S
H267 C291 0.950 . S
H268 C292 0.950 . S
H269 C293 0.951 . S
H270 C295 0.951 . S
H271 C297 0.950 . S
H272 C298 0.950 . S
H273 C300 0.950 . S
H274 C303 0.950 . S
H275 C304 0.950 . S
H276 C306 0.950 . S
H277 C307 0.950 . S
C278 H260 0.951 . S
C278 C279 1.346 1_554 S
C278 C280 1.388 . S
C279 C278 1.346 1_556 S
C279 C283 1.398 . S
C280 H261 0.951 . S
C280 C278 1.388 . S
C280 C281 1.383 . S
C281 C280 1.383 . S
C281 C282 1.387 1_554 S
C281 C284 1.506 . S
C282 H262 0.950 . S
C282 C281 1.387 1_556 S
C282 C283 1.374 . S
C283 H263 0.950 . S
C283 C279 1.398 . S
C283 C282 1.374 . S
C284 C281 1.506 . S
C284 C285 1.372 1_454 S
C284 C286 1.392 . S
C285 H264 0.950 . S
C285 C284 1.372 1_656 S
C285 C301 1.377 1_545 S
C286 C284 1.392 . S
C286 C287 1.524 . S
C286 C300 1.377 1_545 S
C287 C286 1.524 . S
C287 C288 1.397 . S
C287 C292 1.363 1_545 S
C288 H265 0.950 . S
C288 C287 1.397 . S
C288 C289 1.334 . S
C289 H266 0.950 . S
C289 C288 1.334 . S
C289 C290 1.287 1_545 S
C290 C289 1.287 1_565 S
C290 C291 1.524 . S
C290 H309 0.913 . S
C291 H267 0.950 . S
C291 C290 1.524 . S
C291 C292 1.415 . S
C292 H268 0.950 . S
C292 C287 1.363 1_565 S
C292 C291 1.415 . S
C293 H269 0.951 . S
C293 C294 1.366 1_556 S
C293 C295 1.388 . S
C294 C293 1.366 1_554 S
C294 C298 1.385 . S
C295 H270 0.951 . S
C295 C293 1.388 . S
C295 C296 1.366 1_556 S
C296 C295 1.366 1_554 S
C296 C297 1.414 . S
C296 C299 1.499 . S
C297 H271 0.950 . S
C297 C296 1.414 . S
C297 C298 1.374 . S
C298 H272 0.950 . S
C298 C294 1.385 . S
C298 C297 1.374 . S
C299 C296 1.499 . S
C299 C300 1.373 1_655 S
C299 C301 1.389 1_554 S
C300 H273 0.950 . S
C300 C286 1.377 1_565 S
C300 C299 1.373 1_455 S
C301 C285 1.377 1_565 S
C301 C299 1.389 1_556 S
C301 C302 1.524 . S
C302 C301 1.524 . S
C302 C303 1.397 . S
C302 C307 1.363 1_565 S
C303 H274 0.950 . S
C303 C302 1.397 . S
C303 C304 1.334 . S
C304 H275 0.950 . S
C304 C303 1.334 . S
C304 C305 1.287 1_565 S
C305 C304 1.287 1_545 S
C305 C306 1.524 . S
C305 H308 0.999 . S
C306 H276 0.950 . S
C306 C305 1.524 . S
C306 C307 1.415 . S
C307 H277 0.950 . S
C307 C302 1.363 1_545 S
C307 C306 1.415 . S
H308 C305 0.999 . S
H309 C290 0.913 . S
H310 C328 0.951 . S
H311 C330 0.951 . S
H312 C332 0.950 1_455 S
H313 C333 0.950 . S
H314 C335 0.950 . S
H315 C338 0.950 . S
H316 C339 0.950 . S
H317 C341 0.950 . S
H318 C342 0.950 . S
H319 C343 0.951 . S
H320 C345 0.951 . S
H321 C347 0.950 1_655 S
H322 C348 0.950 . S
H323 C350 0.950 . S
H324 C353 0.950 . S
H325 C354 0.950 . S
H326 C356 0.950 . S
H327 C357 0.950 . S
C328 H310 0.951 . S
C328 C329 1.366 . S
C328 C330 1.388 . S
C329 C328 1.366 . S
C329 C333 1.385 . S
C330 H311 0.951 . S
C330 C328 1.388 . S
C330 C331 1.366 . S
C331 C330 1.366 . S
C331 C332 1.414 . S
C331 C334 1.499 . S
C332 H312 0.950 1_655 S
C332 C331 1.414 . S
C332 C333 1.374 . S
C333 H313 0.950 . S
C333 C329 1.385 . S
C333 C332 1.374 . S
C334 C331 1.499 . S
C334 C335 1.373 1_655 S
C334 C336 1.389 1_545 S
C335 H314 0.950 . S
C335 C334 1.373 1_455 S
C335 C351 1.377 . S
C336 C334 1.389 1_565 S
C336 C337 1.524 . S
C336 C350 1.377 . S
C337 C336 1.524 . S
C337 C338 1.397 1_565 S
C337 C342 1.363 . S
C338 H315 0.950 . S
C338 C337 1.397 1_545 S
C338 C339 1.334 . S
C339 H316 0.950 . S
C339 C338 1.334 . S
C339 C340 1.287 1_545 S
C340 C339 1.287 1_565 S
C340 C341 1.524 . S
C340 H359 0.913 . S
C341 H317 0.950 . S
C341 C340 1.524 . S
C341 C342 1.415 . S
C342 H318 0.950 . S
C342 C337 1.363 . S
C342 C341 1.415 . S
C343 H319 0.951 . S
C343 C344 1.366 . S
C343 C345 1.388 . S
C344 C343 1.366 . S
C344 C348 1.385 . S
C345 H320 0.951 . S
C345 C343 1.388 . S
C345 C346 1.366 . S
C346 C345 1.366 . S
C346 C347 1.414 . S
C346 C349 1.499 . S
C347 H321 0.950 1_455 S
C347 C346 1.414 . S
C347 C348 1.374 . S
C348 H322 0.950 . S
C348 C344 1.385 . S
C348 C347 1.374 . S
C349 C346 1.499 . S
C349 C350 1.373 1_455 S
C349 C351 1.389 1_565 S
C350 H323 0.950 . S
C350 C336 1.377 . S
C350 C349 1.373 1_655 S
C351 C335 1.377 . S
C351 C349 1.389 1_545 S
C351 C352 1.524 . S
C352 C351 1.524 . S
C352 C353 1.397 1_545 S
C352 C357 1.363 . S
C353 H324 0.950 . S
C353 C352 1.397 1_565 S
C353 C354 1.334 . S
C354 H325 0.950 . S
C354 C353 1.334 . S
C354 C355 1.287 1_565 S
C355 C354 1.287 1_545 S
C355 C356 1.524 . S
C355 H358 0.999 . S
C356 H326 0.950 . S
C356 C355 1.524 . S
C356 C357 1.415 . S
C357 H327 0.950 . S
C357 C352 1.363 . S
C357 C356 1.415 . S
H358 C355 0.999 . S
H359 C340 0.913 . S
H360 C378 0.951 . S
H361 C380 0.951 . S
H362 C382 0.950 . S
H363 C383 0.950 . S
H364 C385 0.950 . S
H365 C388 0.950 . S
H366 C389 0.950 . S
H367 C391 0.950 . S
H368 C392 0.950 . S
H369 C393 0.951 . S
H370 C395 0.951 . S
H371 C397 0.950 . S
H372 C398 0.950 . S
H373 C400 0.950 . S
H374 C403 0.950 . S
H375 C404 0.950 . S
H376 C406 0.950 . S
H377 C407 0.950 . S
C378 H360 0.951 . S
C378 C379 1.366 . S
C378 C380 1.388 . S
C379 C378 1.366 . S
C379 C383 1.385 . S
C380 H361 0.951 . S
C380 C378 1.388 . S
C380 C381 1.366 . S
C381 C380 1.366 . S
C381 C382 1.414 . S
C381 C384 1.499 . S
C382 H362 0.950 . S
C382 C381 1.414 . S
C382 C383 1.374 . S
C383 H363 0.950 . S
C383 C379 1.385 . S
C383 C382 1.374 . S
C384 C381 1.499 . S
C384 C385 1.373 . S
C384 C386 1.389 . S
C385 H364 0.950 . S
C385 C384 1.373 . S
C385 C401 1.377 . S
C386 C384 1.389 . S
C386 C387 1.524 . S
C386 C400 1.377 . S
C387 C386 1.524 . S
C387 C388 1.397 . S
C387 C392 1.363 . S
C388 H365 0.950 . S
C388 C387 1.397 . S
C388 C389 1.334 . S
C389 H366 0.950 . S
C389 C388 1.334 . S
C389 C390 1.287 . S
C390 C389 1.287 . S
C390 C391 1.524 . S
C390 H409 0.913 . S
C391 H367 0.950 . S
C391 C390 1.524 . S
C391 C392 1.415 . S
C392 H368 0.950 . S
C392 C387 1.363 . S
C392 C391 1.415 . S
C393 H369 0.951 . S
C393 C394 1.366 . S
C393 C395 1.388 . S
C394 C393 1.366 . S
C394 C398 1.385 . S
C395 H370 0.951 . S
C395 C393 1.388 . S
C395 C396 1.366 . S
C396 C395 1.366 . S
C396 C397 1.414 . S
C396 C399 1.499 . S
C397 H371 0.950 . S
C397 C396 1.414 . S
C397 C398 1.374 . S
C398 H372 0.950 . S
C398 C394 1.385 . S
C398 C397 1.374 . S
C399 C396 1.499 . S
C399 C400 1.373 . S
C399 C401 1.389 . S
C400 H373 0.950 . S
C400 C386 1.377 . S
C400 C399 1.373 . S
C401 C385 1.377 . S
C401 C399 1.389 . S
C401 C402 1.524 . S
C402 C401 1.524 . S
C402 C403 1.397 . S
C402 C407 1.363 . S
C403 H374 0.950 . S
C403 C402 1.397 . S
C403 C404 1.334 . S
C404 H375 0.950 . S
C404 C403 1.334 . S
C404 C405 1.287 . S
C405 C404 1.287 . S
C405 C406 1.524 . S
C405 H408 0.999 . S
C406 H376 0.950 . S
C406 C405 1.524 . S
C406 C407 1.415 . S
C407 H377 0.950 . S
C407 C402 1.363 . S
C407 C406 1.415 . S
H408 C405 0.999 . S
H409 C390 0.913 . S
H410 C428 0.951 . S
H411 C430 0.951 . S
H412 C432 0.950 . S
H413 C433 0.950 . S
H414 C435 0.950 . S
H415 C438 0.950 . S
H416 C439 0.950 . S
H417 C441 0.950 . S
H418 C442 0.950 . S
H419 C443 0.951 . S
H420 C445 0.951 . S
H421 C447 0.950 . S
H422 C448 0.950 . S
H423 C450 0.950 . S
H424 C453 0.950 . S
H425 C454 0.950 . S
H426 C456 0.950 . S
H427 C457 0.950 . S
C428 H410 0.951 . S
C428 C429 1.366 . S
C428 C430 1.388 . S
C429 C428 1.366 . S
C429 C433 1.385 . S
C430 H411 0.951 . S
C430 C428 1.388 . S
C430 C431 1.366 . S
C431 C430 1.366 . S
C431 C432 1.414 . S
C431 C434 1.499 . S
C432 H412 0.950 . S
C432 C431 1.414 . S
C432 C433 1.374 . S
C433 H413 0.950 . S
C433 C429 1.385 . S
C433 C432 1.374 . S
C434 C431 1.499 . S
C434 C435 1.373 . S
C434 C436 1.389 . S
C435 H414 0.950 . S
C435 C434 1.373 . S
C435 C451 1.377 . S
C436 C434 1.389 . S
C436 C437 1.524 . S
C436 C450 1.377 . S
C437 C436 1.524 . S
C437 C438 1.397 . S
C437 C442 1.363 . S
C438 H415 0.950 . S
C438 C437 1.397 . S
C438 C439 1.334 . S
C439 H416 0.950 . S
C439 C438 1.334 . S
C439 C440 1.287 . S
C440 C439 1.287 . S
C440 C441 1.524 . S
C440 H459 0.913 . S
C441 H417 0.950 . S
C441 C440 1.524 . S
C441 C442 1.415 . S
C442 H418 0.950 . S
C442 C437 1.363 . S
C442 C441 1.415 . S
C443 H419 0.951 . S
C443 C444 1.366 . S
C443 C445 1.388 . S
C444 C443 1.366 . S
C444 C448 1.385 . S
C445 H420 0.951 . S
C445 C443 1.388 . S
C445 C446 1.366 . S
C446 C445 1.366 . S
C446 C447 1.414 . S
C446 C449 1.499 . S
C447 H421 0.950 . S
C447 C446 1.414 . S
C447 C448 1.374 . S
C448 H422 0.950 . S
C448 C444 1.385 . S
C448 C447 1.374 . S
C449 C446 1.499 . S
C449 C450 1.373 . S
C449 C451 1.389 . S
C450 H423 0.950 . S
C450 C436 1.377 . S
C450 C449 1.373 . S
C451 C435 1.377 . S
C451 C449 1.389 . S
C451 C452 1.524 . S
C452 C451 1.524 . S
C452 C453 1.397 . S
C452 C457 1.363 . S
C453 H424 0.950 . S
C453 C452 1.397 . S
C453 C454 1.334 . S
C454 H425 0.950 . S
C454 C453 1.334 . S
C454 C455 1.287 . S
C455 C454 1.287 . S
C455 C456 1.524 . S
C455 H458 0.999 . S
C456 H426 0.950 . S
C456 C455 1.524 . S
C456 C457 1.415 . S
C457 H427 0.950 . S
C457 C452 1.363 . S
C457 C456 1.415 . S
H458 C455 0.999 . S
H459 C440 0.913 . S
H460 C478 0.951 . S
H461 C480 0.951 . S
H462 C482 0.950 . S
H463 C483 0.950 . S
H464 C485 0.950 . S
H465 C488 0.950 . S
H466 C489 0.950 . S
H467 C491 0.950 . S
H468 C492 0.950 . S
H469 C493 0.951 . S
H470 C495 0.951 . S
H471 C497 0.950 . S
H472 C498 0.950 . S
H473 C500 0.950 . S
H474 C503 0.950 . S
H475 C504 0.950 . S
H476 C506 0.950 . S
H477 C507 0.950 . S
C478 H460 0.951 . S
C478 C479 1.366 . S
C478 C480 1.388 . S
C479 C478 1.366 . S
C479 C483 1.385 . S
C480 H461 0.951 . S
C480 C478 1.388 . S
C480 C481 1.366 . S
C481 C480 1.366 . S
C481 C482 1.414 . S
C481 C484 1.499 . S
C482 H462 0.950 . S
C482 C481 1.414 . S
C482 C483 1.374 . S
C483 H463 0.950 . S
C483 C479 1.385 . S
C483 C482 1.374 . S
C484 C481 1.499 . S
C484 C485 1.373 . S
C484 C486 1.389 . S
C485 H464 0.950 . S
C485 C484 1.373 . S
C485 C501 1.377 . S
C486 C484 1.389 . S
C486 C487 1.524 . S
C486 C500 1.377 . S
C487 C486 1.524 . S
C487 C488 1.397 . S
C487 C492 1.363 . S
C488 H465 0.950 . S
C488 C487 1.397 . S
C488 C489 1.334 . S
C489 H466 0.950 . S
C489 C488 1.334 . S
C489 C490 1.287 . S
C490 C489 1.287 . S
C490 C491 1.524 . S
C490 H509 0.913 . S
C491 H467 0.950 . S
C491 C490 1.524 . S
C491 C492 1.415 . S
C492 H468 0.950 . S
C492 C487 1.363 . S
C492 C491 1.415 . S
C493 H469 0.951 . S
C493 C494 1.366 . S
C493 C495 1.388 . S
C494 C493 1.366 . S
C494 C498 1.385 . S
C495 H470 0.951 . S
C495 C493 1.388 . S
C495 C496 1.366 . S
C496 C495 1.366 . S
C496 C497 1.414 . S
C496 C499 1.499 . S
C497 H471 0.950 . S
C497 C496 1.414 . S
C497 C498 1.374 . S
C498 H472 0.950 . S
C498 C494 1.385 . S
C498 C497 1.374 . S
C499 C496 1.499 . S
C499 C500 1.373 . S
C499 C501 1.389 . S
C500 H473 0.950 . S
C500 C486 1.377 . S
C500 C499 1.373 . S
C501 C485 1.377 . S
C501 C499 1.389 . S
C501 C502 1.524 . S
C502 C501 1.524 . S
C502 C503 1.397 . S
C502 C507 1.363 . S
C503 H474 0.950 . S
C503 C502 1.397 . S
C503 C504 1.334 . S
C504 H475 0.950 . S
C504 C503 1.334 . S
C504 C505 1.287 . S
C505 C504 1.287 . S
C505 C506 1.524 . S
C505 H508 0.999 . S
C506 H476 0.950 . S
C506 C505 1.524 . S
C506 C507 1.415 . S
C507 H477 0.950 . S
C507 C502 1.363 . S
C507 C506 1.415 . S
H508 C505 0.999 . S
H509 C490 0.913 . S
H510 C528 0.951 . S
H511 C530 0.951 . S
H512 C532 0.950 . S
H513 C533 0.950 . S
H514 C535 0.950 . S
H515 C538 0.950 . S
H516 C539 0.950 . S
H517 C541 0.950 . S
H518 C542 0.950 . S
H519 C543 0.951 . S
H520 C545 0.951 . S
H521 C547 0.950 . S
H522 C548 0.950 . S
H523 C550 0.950 . S
H524 C553 0.950 . S
H525 C554 0.950 . S
H526 C556 0.950 . S
H527 C557 0.950 . S
C528 H510 0.951 . S
C528 C529 1.366 . S
C528 C530 1.388 . S
C529 C528 1.366 . S
C529 C533 1.385 . S
C530 H511 0.951 . S
C530 C528 1.388 . S
C530 C531 1.366 . S
C531 C530 1.366 . S
C531 C532 1.414 . S
C531 C534 1.499 . S
C532 H512 0.950 . S
C532 C531 1.414 . S
C532 C533 1.374 . S
C533 H513 0.950 . S
C533 C529 1.385 . S
C533 C532 1.374 . S
C534 C531 1.499 . S
C534 C535 1.373 . S
C534 C536 1.389 . S
C535 H514 0.950 . S
C535 C534 1.373 . S
C535 C551 1.377 . S
C536 C534 1.389 . S
C536 C537 1.524 . S
C536 C550 1.377 . S
C537 C536 1.524 . S
C537 C538 1.397 . S
C537 C542 1.363 . S
C538 H515 0.950 . S
C538 C537 1.397 . S
C538 C539 1.334 . S
C539 H516 0.950 . S
C539 C538 1.334 . S
C539 C540 1.287 . S
C540 C539 1.287 . S
C540 C541 1.524 . S
C540 H559 0.913 . S
C541 H517 0.950 . S
C541 C540 1.524 . S
C541 C542 1.415 . S
C542 H518 0.950 . S
C542 C537 1.363 . S
C542 C541 1.415 . S
C543 H519 0.951 . S
C543 C544 1.366 . S
C543 C545 1.388 . S
C544 C543 1.366 . S
C544 C548 1.385 . S
C545 H520 0.951 . S
C545 C543 1.388 . S
C545 C546 1.366 . S
C546 C545 1.366 . S
C546 C547 1.414 . S
C546 C549 1.499 . S
C547 H521 0.950 . S
C547 C546 1.414 . S
C547 C548 1.374 . S
C548 H522 0.950 . S
C548 C544 1.385 . S
C548 C547 1.374 . S
C549 C546 1.499 . S
C549 C550 1.373 . S
C549 C551 1.389 . S
C550 H523 0.950 . S
C550 C536 1.377 . S
C550 C549 1.373 . S
C551 C535 1.377 . S
C551 C549 1.389 . S
C551 C552 1.524 . S
C552 C551 1.524 . S
C552 C553 1.397 . S
C552 C557 1.363 . S
C553 H524 0.950 . S
C553 C552 1.397 . S
C553 C554 1.334 . S
C554 H525 0.950 . S
C554 C553 1.334 . S
C554 C555 1.287 . S
C555 C554 1.287 . S
C555 C556 1.524 . S
C555 H558 0.999 . S
C556 H526 0.950 . S
C556 C555 1.524 . S
C556 C557 1.415 . S
C557 H527 0.950 . S
C557 C552 1.363 . S
C557 C556 1.415 . S
H558 C555 0.999 . S
H559 C540 0.913 . S
H560 C578 0.951 . S
H561 C580 0.951 . S
H562 C582 0.950 . S
H563 C583 0.950 . S
H564 C585 0.950 . S
H565 C588 0.950 . S
H566 C589 0.950 . S
H567 C591 0.950 1_655 S
H568 C592 0.950 . S
H569 C593 0.951 . S
H570 C595 0.951 . S
H571 C597 0.950 . S
H572 C598 0.950 . S
H573 C600 0.950 . S
H574 C603 0.950 . S
H575 C604 0.950 . S
H576 C606 0.950 1_455 S
H577 C607 0.950 . S
C578 H560 0.951 . S
C578 C579 1.366 . S
C578 C580 1.388 . S
C579 C578 1.366 . S
C579 C583 1.385 . S
C580 H561 0.951 . S
C580 C578 1.388 . S
C580 C581 1.366 . S
C581 C580 1.366 . S
C581 C582 1.414 . S
C581 C584 1.499 . S
C582 H562 0.950 . S
C582 C581 1.414 . S
C582 C583 1.374 . S
C583 H563 0.950 . S
C583 C579 1.385 . S
C583 C582 1.374 . S
C584 C581 1.499 . S
C584 C585 1.373 . S
C584 C586 1.389 1_655 S
C585 H564 0.950 . S
C585 C584 1.373 . S
C585 C601 1.377 . S
C586 C584 1.389 1_455 S
C586 C587 1.524 . S
C586 C600 1.377 . S
C587 C586 1.524 . S
C587 C588 1.397 . S
C587 C592 1.363 1_455 S
C588 H565 0.950 . S
C588 C587 1.397 . S
C588 C589 1.334 . S
C589 H566 0.950 . S
C589 C588 1.334 . S
C589 C590 1.287 . S
C590 C589 1.287 . S
C590 C591 1.524 . S
C590 H609 0.913 . S
C591 H567 0.950 1_455 S
C591 C590 1.524 . S
C591 C592 1.415 1_455 S
C592 H568 0.950 . S
C592 C587 1.363 1_655 S
C592 C591 1.415 1_655 S
C593 H569 0.951 . S
C593 C594 1.366 . S
C593 C595 1.388 . S
C594 C593 1.366 . S
C594 C598 1.385 . S
C595 H570 0.951 . S
C595 C593 1.388 . S
C595 C596 1.366 . S
C596 C595 1.366 . S
C596 C597 1.414 . S
C596 C599 1.499 . S
C597 H571 0.950 . S
C597 C596 1.414 . S
C597 C598 1.374 . S
C598 H572 0.950 . S
C598 C594 1.385 . S
C598 C597 1.374 . S
C599 C596 1.499 . S
C599 C600 1.373 . S
C599 C601 1.389 1_455 S
C600 H573 0.950 . S
C600 C586 1.377 . S
C600 C599 1.373 . S
C601 C585 1.377 . S
C601 C599 1.389 1_655 S
C601 C602 1.524 . S
C602 C601 1.524 . S
C602 C603 1.397 . S
C602 C607 1.363 1_655 S
C603 H574 0.950 . S
C603 C602 1.397 . S
C603 C604 1.334 . S
C604 H575 0.950 . S
C604 C603 1.334 . S
C604 C605 1.287 . S
C605 C604 1.287 . S
C605 C606 1.524 . S
C605 H608 0.999 . S
C606 H576 0.950 1_655 S
C606 C605 1.524 . S
C606 C607 1.415 1_655 S
C607 H577 0.950 . S
C607 C602 1.363 1_455 S
C607 C606 1.415 1_455 S
H608 C605 0.999 . S
H609 C590 0.913 . S
H610 C628 0.951 . S
H611 C630 0.951 . S
H612 C632 0.950 . S
H613 C633 0.950 . S
H614 C635 0.950 . S
H615 C638 0.950 . S
H616 C639 0.950 . S
H617 C641 0.950 . S
H618 C642 0.950 . S
H619 C643 0.951 . S
H620 C645 0.951 . S
H621 C647 0.950 . S
H622 C648 0.950 . S
H623 C650 0.950 . S
H624 C653 0.950 . S
H625 C654 0.950 . S
H626 C656 0.950 . S
H627 C657 0.950 . S
C628 H610 0.951 . S
C628 C629 1.366 1_455 S
C628 C630 1.388 . S
C629 C628 1.366 1_655 S
C629 C633 1.385 . S
C630 H611 0.951 . S
C630 C628 1.388 . S
C630 C631 1.366 1_455 S
C631 C630 1.366 1_655 S
C631 C632 1.414 . S
C631 C634 1.499 . S
C632 H612 0.950 . S
C632 C631 1.414 . S
C632 C633 1.374 . S
C633 H613 0.950 . S
C633 C629 1.385 . S
C633 C632 1.374 . S
C634 C631 1.499 . S
C634 C635 1.373 . S
C634 C636 1.390 . S
C635 H614 0.950 . S
C635 C634 1.373 . S
C635 C651 1.375 1_655 S
C636 C634 1.390 . S
C636 C637 1.525 . S
C636 C650 1.375 1_655 S
C637 C636 1.525 . S
C637 C638 1.397 . S
C637 C642 1.363 1_655 S
C638 H615 0.950 . S
C638 C637 1.397 . S
C638 C639 1.334 . S
C639 H616 0.950 . S
C639 C638 1.334 . S
C639 C640 1.287 . S
C640 C639 1.287 . S
C640 C641 1.524 1_655 S
C640 H659 0.913 . S
C641 H617 0.950 . S
C641 C640 1.524 1_455 S
C641 C642 1.415 . S
C642 H618 0.950 . S
C642 C637 1.363 1_455 S
C642 C641 1.415 . S
C643 H619 0.951 . S
C643 C644 1.366 1_655 S
C643 C645 1.388 . S
C644 C643 1.366 1_455 S
C644 C648 1.385 . S
C645 H620 0.951 . S
C645 C643 1.388 . S
C645 C646 1.366 1_655 S
C646 C645 1.366 1_455 S
C646 C647 1.414 . S
C646 C649 1.499 . S
C647 H621 0.950 . S
C647 C646 1.414 . S
C647 C648 1.374 . S
C648 H622 0.950 . S
C648 C644 1.385 . S
C648 C647 1.374 . S
C649 C646 1.499 . S
C649 C650 1.373 . S
C649 C651 1.390 . S
C650 H623 0.950 . S
C650 C636 1.375 1_455 S
C650 C649 1.373 . S
C651 C635 1.375 1_455 S
C651 C649 1.390 . S
C651 C652 1.525 . S
C652 C651 1.525 . S
C652 C653 1.397 . S
C652 C657 1.363 1_455 S
C653 H624 0.950 . S
C653 C652 1.397 . S
C653 C654 1.334 . S
C654 H625 0.950 . S
C654 C653 1.334 . S
C654 C655 1.287 . S
C655 C654 1.287 . S
C655 C656 1.524 1_455 S
C655 H658 0.999 . S
C656 H626 0.950 . S
C656 C655 1.524 1_655 S
C656 C657 1.415 . S
C657 H627 0.950 . S
C657 C652 1.363 1_655 S
C657 C656 1.415 . S
H658 C655 0.999 . S
H659 C640 0.913 . S
H660 C678 0.951 . S
H661 C680 0.951 1_455 S
H662 C682 0.950 . S
H663 C683 0.950 . S
H664 C685 0.950 . S
H665 C688 0.950 . S
H666 C689 0.950 . S
H667 C691 0.950 1_455 S
H668 C692 0.950 . S
H669 C693 0.951 . S
H670 C695 0.951 1_655 S
H671 C697 0.950 . S
H672 C698 0.950 . S
H673 C700 0.950 . S
H674 C703 0.950 . S
H675 C704 0.950 . S
H676 C706 0.950 1_655 S
H677 C707 0.950 . S
C678 H660 0.951 . S
C678 C679 1.366 . S
C678 C680 1.388 . S
C679 C678 1.366 . S
C679 C683 1.385 . S
C680 H661 0.951 1_655 S
C680 C678 1.388 . S
C680 C681 1.366 . S
C681 C680 1.366 . S
C681 C682 1.414 . S
C681 C684 1.499 . S
C682 H662 0.950 . S
C682 C681 1.414 . S
C682 C683 1.374 . S
C683 H663 0.950 . S
C683 C679 1.385 . S
C683 C682 1.374 . S
C684 C681 1.499 . S
C684 C685 1.373 . S
C684 C686 1.389 . S
C685 H664 0.950 . S
C685 C684 1.373 . S
C685 C701 1.377 1_655 S
C686 C684 1.389 . S
C686 C687 1.524 . S
C686 C700 1.377 1_655 S
C687 C686 1.524 . S
C687 C688 1.397 . S
C687 C692 1.363 1_655 S
C688 H665 0.950 . S
C688 C687 1.397 . S
C688 C689 1.334 . S
C689 H666 0.950 . S
C689 C688 1.334 . S
C689 C690 1.287 . S
C690 C689 1.287 . S
C690 C691 1.524 . S
C690 H709 0.913 . S
C691 H667 0.950 1_655 S
C691 C690 1.524 . S
C691 C692 1.415 1_655 S
C692 H668 0.950 . S
C692 C687 1.363 1_455 S
C692 C691 1.415 1_455 S
C693 H669 0.951 . S
C693 C694 1.366 . S
C693 C695 1.388 . S
C694 C693 1.366 . S
C694 C698 1.385 . S
C695 H670 0.951 1_455 S
C695 C693 1.388 . S
C695 C696 1.366 . S
C696 C695 1.366 . S
C696 C697 1.414 . S
C696 C699 1.499 . S
C697 H671 0.950 . S
C697 C696 1.414 . S
C697 C698 1.374 . S
C698 H672 0.950 . S
C698 C694 1.385 . S
C698 C697 1.374 . S
C699 C696 1.499 . S
C699 C700 1.373 . S
C699 C701 1.389 . S
C700 H673 0.950 . S
C700 C686 1.377 1_455 S
C700 C699 1.373 . S
C701 C685 1.377 1_455 S
C701 C699 1.389 . S
C701 C702 1.524 . S
C702 C701 1.524 . S
C702 C703 1.397 . S
C702 C707 1.363 1_455 S
C703 H674 0.950 . S
C703 C702 1.397 . S
C703 C704 1.334 . S
C704 H675 0.950 . S
C704 C703 1.334 . S
C704 C705 1.287 . S
C705 C704 1.287 . S
C705 C706 1.524 . S
C705 H708 0.999 . S
C706 H676 0.950 1_455 S
C706 C705 1.524 . S
C706 C707 1.415 1_455 S
C707 H677 0.950 . S
C707 C702 1.363 1_655 S
C707 C706 1.415 1_655 S
H708 C705 0.999 . S
H709 C690 0.913 . S
H710 C728 0.951 . S
H711 C730 0.951 . S
H712 C732 0.950 . S
H713 C733 0.950 . S
H714 C735 0.950 . S
H715 C738 0.950 . S
H716 C739 0.950 . S
H717 C741 0.950 . S
H718 C742 0.950 . S
H719 C743 0.951 . S
H720 C745 0.951 . S
H721 C747 0.950 . S
H722 C748 0.950 . S
H723 C750 0.950 . S
H724 C753 0.950 . S
H725 C754 0.950 . S
H726 C756 0.950 . S
H727 C757 0.950 . S
C728 H710 0.951 . S
C728 C729 1.366 . S
C728 C730 1.388 . S
C729 C728 1.366 . S
C729 C733 1.385 1_455 S
C730 H711 0.951 . S
C730 C728 1.388 . S
C730 C731 1.366 . S
C731 C730 1.366 . S
C731 C732 1.414 1_455 S
C731 C734 1.499 . S
C732 H712 0.950 . S
C732 C731 1.414 1_655 S
C732 C733 1.374 . S
C733 H713 0.950 . S
C733 C729 1.385 1_655 S
C733 C732 1.374 . S
C734 C731 1.499 . S
C734 C735 1.373 1_455 S
C734 C736 1.389 . S
C735 H714 0.950 . S
C735 C734 1.373 1_655 S
C735 C751 1.377 . S
C736 C734 1.389 . S
C736 C737 1.524 . S
C736 C750 1.377 . S
C737 C736 1.524 . S
C737 C738 1.397 . S
C737 C742 1.363 . S
C738 H715 0.950 . S
C738 C737 1.397 . S
C738 C739 1.334 . S
C739 H716 0.950 . S
C739 C738 1.334 . S
C739 C740 1.287 . S
C740 C739 1.287 . S
C740 C741 1.524 . S
C740 H759 0.913 . S
C741 H717 0.950 . S
C741 C740 1.524 . S
C741 C742 1.415 . S
C742 H718 0.950 . S
C742 C737 1.363 . S
C742 C741 1.415 . S
C743 H719 0.951 . S
C743 C744 1.366 . S
C743 C745 1.388 . S
C744 C743 1.366 . S
C744 C748 1.385 1_655 S
C745 H720 0.951 . S
C745 C743 1.388 . S
C745 C746 1.366 . S
C746 C745 1.366 . S
C746 C747 1.414 1_655 S
C746 C749 1.499 . S
C747 H721 0.950 . S
C747 C746 1.414 1_455 S
C747 C748 1.374 . S
C748 H722 0.950 . S
C748 C744 1.385 1_455 S
C748 C747 1.374 . S
C749 C746 1.499 . S
C749 C750 1.373 1_655 S
C749 C751 1.389 . S
C750 H723 0.950 . S
C750 C736 1.377 . S
C750 C749 1.373 1_455 S
C751 C735 1.377 . S
C751 C749 1.389 . S
C751 C752 1.524 . S
C752 C751 1.524 . S
C752 C753 1.397 . S
C752 C757 1.363 . S
C753 H724 0.950 . S
C753 C752 1.397 . S
C753 C754 1.334 . S
C754 H725 0.950 . S
C754 C753 1.334 . S
C754 C755 1.287 . S
C755 C754 1.287 . S
C755 C756 1.524 . S
C755 H758 0.999 . S
C756 H726 0.950 . S
C756 C755 1.524 . S
C756 C757 1.415 . S
C757 H727 0.950 . S
C757 C752 1.363 . S
C757 C756 1.415 . S
H758 C755 0.999 . S
H759 C740 0.913 . S
C179 C59 1.534 . S
C194 C10 1.528 . S
C229 C99 1.527 . S
C244 C130 1.527 . S
C279 C19 1.536 . S
C294 C50 1.528 . S
C329 C139 1.528 . S
C344 C90 1.528 . S
C379 C122 1.494 . S
C394 C2 1.493 . S
C429 C47 0.948 . S
C444 C87 0.949 . S
C479 C51 1.493 . S
C494 C91 1.493 . S
C529 C136 0.948 . S
C544 C16 0.948 . S
C579 C42 1.494 . S
C594 C82 1.493 . S
C629 C127 0.948 . S
C644 C7 0.949 . S
C679 C131 1.493 . S
C694 C11 1.493 . S
C729 C96 0.949 . S
C744 C56 0.949 . S
