# Generated by pormake.
# Topology rkf, (6)-cn, num edge types: 1
# Building blocks:
#     Node 0, Type 0, BuildingBlock: PAMTUU_clean_sbu_0, # of connection points: 6
#     Node 1, Type 0, BuildingBlock: PAMTUU_clean_sbu_0, # of connection points: 6
#     Node 2, Type 0, BuildingBlock: PAMTUU_clean_sbu_0, # of connection points: 6
#     Node 3, Type 0, BuildingBlock: PAMTUU_clean_sbu_0, # of connection points: 6
#     Node 4, Type 0, BuildingBlock: PAMTUU_clean_sbu_0, # of connection points: 6
#     Node 5, Type 0, BuildingBlock: PAMTUU_clean_sbu_0, # of connection points: 6
#     Edge 6, Type (0, 0), BuildingBlock: OJICUG_clean_linker_0, # of connection points: 2
#     Edge 7, Type (0, 0), BuildingBlock: OJICUG_clean_linker_0, # of connection points: 2
#     Edge 8, Type (0, 0), BuildingBlock: OJICUG_clean_linker_0, # of connection points: 2
#     Edge 9, Type (0, 0), BuildingBlock: OJICUG_clean_linker_0, # of connection points: 2
#     Edge 10, Type (0, 0), BuildingBlock: OJICUG_clean_linker_0, # of connection points: 2
#     Edge 11, Type (0, 0), BuildingBlock: OJICUG_clean_linker_0, # of connection points: 2
#     Edge 12, Type (0, 0), BuildingBlock: OJICUG_clean_linker_0, # of connection points: 2
#     Edge 13, Type (0, 0), BuildingBlock: OJICUG_clean_linker_0, # of connection points: 2
#     Edge 14, Type (0, 0), BuildingBlock: OJICUG_clean_linker_0, # of connection points: 2
#     Edge 15, Type (0, 0), BuildingBlock: OJICUG_clean_linker_0, # of connection points: 2
#     Edge 16, Type (0, 0), BuildingBlock: OJICUG_clean_linker_0, # of connection points: 2
#     Edge 17, Type (0, 0), BuildingBlock: OJICUG_clean_linker_0, # of connection points: 2
#     Edge 18, Type (0, 0), BuildingBlock: OJICUG_clean_linker_0, # of connection points: 2
#     Edge 19, Type (0, 0), BuildingBlock: OJICUG_clean_linker_0, # of connection points: 2
#     Edge 20, Type (0, 0), BuildingBlock: OJICUG_clean_linker_0, # of connection points: 2
#     Edge 21, Type (0, 0), BuildingBlock: OJICUG_clean_linker_0, # of connection points: 2
#     Edge 22, Type (0, 0), BuildingBlock: OJICUG_clean_linker_0, # of connection points: 2
#     Edge 23, Type (0, 0), BuildingBlock: OJICUG_clean_linker_0, # of connection points: 2
# Relax obj value: 1.157
# Max RMSD: 0.276
# Mean RMSD: 0.266
data_MOF--net-rkf--node1-PAMTUU_clean_sbu_0--edge1-OJICUG_clean_linker_0
_symmetry_space_group_name_H-M    P1
_symmetry_Int_Tables_number       1
_symmetry_cell_setting            triclinic
loop_
_symmetry_equiv_pos_as_xyz
'x, y, z'
_cell_length_a     20.29899
_cell_length_b     20.679708
_cell_length_c     30.249993
_cell_angle_alpha  90.758771
_cell_angle_beta   89.316137
_cell_angle_gamma 121.49623
loop_
_atom_site_label
_atom_site_type_symbol
_atom_site_fract_x
_atom_site_fract_y
_atom_site_fract_z
_atom_type_partial_charge
Tb0 Tb 0.22175 0.00216 0.32072 0.0
Tb1 Tb 0.28982 0.15741 0.26535 0.0
C2 C 0.39965 0.10216 0.30154 0.0
C3 C 0.08172 0.81119 0.35628 0.0
C4 C -0.06597 0.67988 0.35514 0.0
C5 C -0.00032 0.67539 0.34667 0.0
C6 C 0.07315 0.74054 0.34754 0.0
C7 C 0.01567 0.81658 0.36035 0.0
C8 C -0.0577 0.75134 0.35967 0.0
C9 C 0.15943 0.87866 0.36058 0.0
O10 O 0.26823 0.09539 0.36897 0.0
O11 O 0.24257 0.1708 0.32838 0.0
O12 O 0.16678 0.10013 1.25215 0.0
O13 O 0.12328 0.01228 0.30803 0.0
O14 O 0.30513 0.22679 1.21137 0.0
O15 O 0.367 0.27455 0.27233 0.0
O16 O 0.2721 0.07343 1.21377 0.0
O17 O 0.18684 -0.03393 1.25223 0.0
O18 O 0.34061 0.0366 0.31312 0.0
O19 O 0.39246 0.15578 0.28409 0.0
C20 C 0.25484 0.15094 0.36705 0.0
O21 O 0.20468 0.89339 0.32638 0.0
O22 O 0.16346 0.93942 0.37686 0.0
C23 C 0.1107 0.04367 0.27438 0.0
C24 C 0.32096 0.34258 1.23705 0.0
C25 C 0.27132 0.44694 1.24083 0.0
C26 C 0.21945 0.36988 1.23005 0.0
C27 C 0.2438 0.31841 1.2286 0.0
C28 C 0.37217 0.41792 1.2502 0.0
C29 C 0.34747 0.46964 1.25242 0.0
C30 C 0.34713 0.28857 1.23459 0.0
C31 C 0.21718 0.00068 1.21458 0.0
H32 H -0.00553 0.62105 0.34278 0.0
H33 H 0.12329 0.73538 0.34322 0.0
H34 H 0.02056 0.8707 0.36618 0.0
H35 H 0.89273 0.75641 0.36677 0.0
H36 H 0.16074 0.34915 1.21994 0.0
H37 H 0.20244 0.26002 1.2196 0.0
H38 H 0.43155 0.43698 1.25817 0.0
H39 H 0.38879 0.52778 1.26173 0.0
Tb40 Tb 0.12711 0.3262 0.59524 0.0
Tb41 Tb 0.26867 0.32147 0.63612 0.0
C42 C 0.28972 0.46741 0.60486 0.0
C43 C 0.01167 0.39374 0.53751 0.0
C44 C 0.00443 0.47978 0.46838 0.0
C45 C 0.06285 0.5145 0.50056 0.0
C46 C 0.06711 0.4715 0.53452 0.0
C47 C -0.05108 0.36108 0.50882 0.0
C48 C -0.05474 0.40326 0.47462 0.0
C49 C 0.02048 0.34358 0.56737 0.0
O50 O 0.19166 0.32398 0.53629 0.0
O51 O 0.25931 0.27653 0.5691 0.0
O52 O 0.1763 0.20385 0.64285 0.0
O53 O 0.08918 0.20637 0.59535 0.0
O54 O 0.37186 0.39479 0.66932 0.0
O55 O 0.34349 0.28259 0.64884 0.0
O56 O 0.20537 0.33512 0.69242 0.0
O57 O 0.0864 0.28032 0.66094 0.0
O58 O 0.21834 0.43946 0.61759 0.0
O59 O 0.3096 0.41909 0.59413 0.0
C60 C 0.23069 0.28884 0.53346 0.0
O61 O 0.04046 0.29924 0.54866 0.0
O62 O 0.05789 0.3733 0.60394 0.0
C63 C 0.11403 0.16933 0.61804 0.0
C64 C 0.41745 0.33386 0.71283 0.0
C65 C 0.45415 0.28369 0.78855 0.0
C66 C 0.38624 0.28586 0.78743 0.0
C67 C 0.36771 0.31063 0.74954 0.0
C68 C 0.48906 0.33953 0.71576 0.0
C69 C 0.50743 0.31458 0.75361 0.0
C70 C 0.39215 0.34458 0.67011 0.0
C71 C 0.12963 0.3034 0.69634 0.0
H72 H 0.10813 0.57357 0.49805 0.0
H73 H 0.11562 0.49814 0.55697 0.0
H74 H 0.90518 0.30127 0.511 0.0
H75 H 0.89918 0.37277 0.45106 0.0
H76 H 0.34372 0.26063 0.81374 0.0
H77 H 0.31227 0.30634 0.74768 0.0
H78 H 0.5282 0.35801 0.68767 0.0
H79 H 0.55959 0.31257 0.75388 0.0
Tb80 Tb -0.01417 0.32701 0.96827 0.0
Tb81 Tb 0.82686 0.18841 0.93186 0.0
C82 C 0.8673 0.35035 0.92921 0.0
C83 C 0.12162 0.49523 1.03832 0.0
C84 C 0.17694 0.55958 1.12242 0.0
C85 C 0.10141 0.53727 1.1099 0.0
C86 C 0.07368 0.50471 1.0683 0.0
C87 C 0.19897 0.52452 1.04897 0.0
C88 C 0.22633 0.55598 1.09056 0.0
C89 C 0.09241 0.45436 0.99616 0.0
O90 O 0.90772 0.27629 1.02656 0.0
O91 O 0.82603 0.15591 1.00026 0.0
O92 O 0.90092 0.14233 0.93799 0.0
O93 O 0.00506 0.2355 0.9783 0.0
O94 O 0.70618 0.12792 0.9398 0.0
O95 O 0.75901 0.1052 0.8845 0.0
O96 O 0.90072 0.23766 0.87191 0.0
O97 O 0.02136 0.30591 0.90372 0.0
O98 O 0.93259 0.35781 0.91861 0.0
O99 O 0.81733 0.28667 0.94752 0.0
C100 C 0.85564 0.20366 1.0337 0.0
O101 O 0.10134 0.39697 0.98863 0.0
O102 O 0.02442 0.43972 0.98431 0.0
C103 C -0.0325 0.16912 0.95837 0.0
C104 C 0.64638 0.10571 0.87045 0.0
C105 C 0.58296 0.13741 0.79756 0.0
C106 C 0.57054 0.06424 0.80357 0.0
C107 C 0.602 0.04868 0.83967 0.0
C108 C 0.65301 0.17661 0.86701 0.0
C109 C 0.62104 0.19215 0.83101 0.0
C110 C 0.6949 0.09479 0.90139 0.0
C111 C -0.02266 0.27346 0.86875 0.0
H112 H 0.06214 0.54007 1.13329 0.0
H113 H 0.01394 0.48416 1.06046 0.0
H114 H 0.23729 0.51923 1.02596 0.0
H115 H 0.28442 0.57093 1.09873 0.0
H116 H 0.54233 0.0204 0.77858 0.0
H117 H 0.59635 -0.00628 0.84178 0.0
H118 H 0.68691 0.22155 0.89061 0.0
H119 H 0.63024 0.24842 0.8281 0.0
Tb120 Tb 0.65795 0.94981 0.28475 0.0
Tb121 Tb 0.8215 0.09586 0.31463 0.0
C122 C 0.67172 0.0926 0.32272 0.0
C123 C 0.48417 0.82712 1.21824 0.0
C124 C 0.43997 0.80614 1.12881 0.0
C125 C 0.42932 0.85579 1.15563 0.0
C126 C 0.45073 0.86582 1.20012 0.0
C127 C 0.48738 0.77199 1.19256 0.0
C128 C 0.46621 0.76209 1.14826 0.0
C129 C 0.5231 0.85016 1.26161 0.0
O130 O 0.69552 0.02555 1.22604 0.0
O131 O 0.82261 0.11111 1.24343 0.0
O132 O 0.8255 -0.00587 0.30826 0.0
O133 O 0.74708 0.94142 1.24954 0.0
O134 O -0.0589 0.15507 0.30317 0.0
O135 O 0.89127 0.18757 0.3564 0.0
O136 O 0.77055 0.03256 0.37626 0.0
O137 O 0.6836 0.91382 0.34797 0.0
O138 O 0.64779 0.02263 0.33256 0.0
O139 O 0.74084 0.13425 0.30594 0.0
C140 C 0.76561 0.08213 1.21493 0.0
O141 O 0.57769 0.83567 0.26877 0.0
O142 O 0.54333 0.91843 0.27476 0.0
C143 C 0.80909 0.9569 0.27096 0.0
C144 C -0.00511 0.28459 0.3176 0.0
C145 C 0.04286 0.43802 0.31467 0.0
C146 C 0.08761 0.41437 0.33691 0.0
C147 C 0.06284 0.33773 0.33886 0.0
C148 C -0.04049 0.30901 0.28817 0.0
C149 C -0.01557 0.38588 0.28603 0.0
C150 C -0.0468 0.20631 0.33289 0.0
C151 C 0.72429 0.95839 0.38161 0.0
H152 H 0.40979 0.89071 1.14146 0.0
H153 H 0.44587 0.90765 1.21943 0.0
H154 H 0.51127 0.74013 1.20574 0.0
H155 H 0.4762 0.72392 1.12851 0.0
H156 H 0.13492 0.45256 0.35824 0.0
H157 H 0.09182 0.31959 0.36083 0.0
H158 H 0.90764 0.2682 0.27069 0.0
H159 H -0.04922 0.40255 0.26711 0.0
Tb160 Tb 0.73123 0.87414 0.66339 0.0
Tb161 Tb 0.71586 0.72102 0.62776 0.0
C162 C 0.57667 0.72708 0.6556 0.0
C163 C 0.72024 0.04642 0.66798 0.0
C164 C 0.65662 0.13555 0.6503 0.0
C165 C 0.6237 0.06212 0.6317 0.0
C166 C 0.65454 0.01724 0.64129 0.0
C167 C 0.7616 0.12346 0.67873 0.0
C168 C 0.7311 0.16828 0.66911 0.0
C169 C 0.74453 -0.00277 0.68663 0.0
O170 O 0.73493 0.81716 0.72396 0.0
O171 O 0.76858 0.73572 0.69333 0.0
O172 O 0.82997 0.81364 0.60668 0.0
O173 O 0.84278 0.88545 0.66707 0.0
O174 O 0.63045 0.61025 0.61025 0.0
O175 O 0.75099 0.64489 0.60968 0.0
O176 O 0.6919 0.76849 0.56863 0.0
O177 O 0.74735 0.89174 0.59211 0.0
O178 O 0.61268 0.79663 0.64133 0.0
O179 O 0.61908 0.70117 0.66912 0.0
C180 C 0.76306 0.77227 0.72807 0.0
O181 O 0.68958 0.93115 0.7011 0.0
O182 O 0.7969 -0.00716 0.66385 0.0
C183 C 0.8737 0.87013 0.63368 0.0
C184 C 0.671 0.55965 0.55466 0.0
C185 C 0.68897 0.52054 0.46836 0.0
C186 C 0.67192 0.57759 0.47579 0.0
C187 C 0.66356 0.5973 0.5187 0.0
C188 C 0.6762 0.49552 0.54729 0.0
C189 C 0.68389 0.47519 0.50416 0.0
C190 C 0.68068 0.59173 0.59917 0.0
C191 C 0.71864 0.84081 0.56015 0.0
H192 H 0.5693 0.03609 0.61431 0.0
H193 H 0.62413 0.95845 0.63058 0.0
H194 H 0.81465 0.14777 0.69748 0.0
H195 H 0.76209 0.22575 0.68185 0.0
H196 H 0.67492 0.61371 0.44926 0.0
H197 H 0.65756 0.64586 0.5238 0.0
H198 H 0.68007 0.46473 0.57484 0.0
H199 H 0.69516 0.42982 0.49932 0.0
Tb200 Tb 0.05446 0.8038 0.95006 0.0
Tb201 Tb 0.90091 0.77424 1.00167 0.0
C202 C 0.92327 0.64219 0.97465 0.0
C203 C 0.25562 0.89141 0.91776 0.0
C204 C 0.38301 0.03258 0.89539 0.0
C205 C 0.37777 -0.03443 0.87974 0.0
C206 C 0.31337 0.89506 0.89035 0.0
C207 C 0.26732 0.95715 0.93915 0.0
C208 C 0.33098 0.02752 0.92816 0.0
C209 C 0.17878 0.82299 0.91864 0.0
O210 O -0.03714 0.76059 0.89929 0.0
O211 O 0.88734 0.799 0.93329 0.0
O212 O -0.03085 0.89525 0.9929 0.0
O213 O 0.06175 0.91107 0.94155 0.0
O214 O 0.84804 0.80578 1.05038 0.0
O215 O 0.7813 0.70435 1.0112 0.0
O216 O -0.01674 0.78459 1.05224 0.0
O217 O 0.09103 0.86588 1.01298 0.0
O218 O -0.00273 0.69105 0.97701 0.0
O219 O 0.87367 0.66381 0.97799 0.0
C220 C 0.90823 0.77733 0.89735 0.0
O221 O 0.15257 0.79595 0.95784 0.0
O222 O 0.12734 0.82671 0.89516 0.0
C223 C 0.02632 0.93699 0.96571 0.0
C224 C 0.72588 0.77867 1.02578 0.0
C225 C 0.61491 0.81858 1.00999 0.0
C226 C 0.67353 0.85833 1.04161 0.0
C227 C 0.72791 0.83823 1.04956 0.0
C228 C 0.67161 0.74306 0.9916 0.0
C229 C 0.61671 0.76296 0.98374 0.0
C230 C 0.77916 0.7533 1.03768 0.0
C231 C 0.05657 0.83998 1.05128 0.0
H232 H 0.41811 -0.03195 0.85504 0.0
H233 H 0.30551 0.84444 0.87419 0.0
H234 H 0.22343 0.95491 0.96093 0.0
H235 H 0.3334 0.07788 0.94097 0.0
H236 H 0.6738 0.90069 1.06317 0.0
H237 H 0.76942 0.86714 1.0758 0.0
H238 H 0.66933 0.69765 0.97209 0.0
H239 H 0.57263 0.73146 0.95913 0.0
C240 C 0.896 0.9101 0.27001 0.0
C241 C 0.87304 0.9556 1.25 0.0
H242 H -0.00957 0.90314 0.29351 0.0
C243 C 0.92843 0.02235 1.22854 0.0
H244 H 0.85415 0.85863 0.28692 0.0
C245 C 0.00707 0.05013 1.23413 0.0
C246 C 0.03006 0.01016 1.26045 0.0
H247 H 0.91161 0.05843 1.21301 0.0
H248 H 0.04913 0.1054 1.22116 0.0
C249 C -0.02583 0.93717 0.27515 0.0
C250 C -0.03913 -0.02845 0.58284 0.0
C251 C -0.04836 0.93138 0.62166 0.0
H252 H 0.01979 0.07997 0.55163 0.0
C253 C 0.00645 -0.03375 0.65553 0.0
H254 H 0.9185 0.94633 0.55667 0.0
C255 C 0.06422 0.0429 0.65289 0.0
C256 C 0.06689 0.08571 0.61661 0.0
H257 H -0.00048 0.93642 0.68607 0.0
H258 H 0.10186 0.06994 0.68096 0.0
C259 C 0.01778 0.04849 0.58049 0.0
C260 C 0.05532 0.05938 0.99602 0.0
C261 C 0.04164 0.01277 0.95888 0.0
H262 H 0.04246 0.14741 1.02479 0.0
C263 C 0.01639 0.02688 0.9194 0.0
H264 H 0.07362 0.0479 1.02694 0.0
C265 C -0.00418 0.08129 0.91869 0.0
C266 C 0.00214 0.12275 0.95718 0.0
H267 H 0.00416 -0.00977 0.8908 0.0
H268 H -0.02915 0.08791 0.8889 0.0
C269 C 0.03654 0.11516 0.995 0.0
C270 C 0.30257 0.5728 1.21132 0.0
C271 C 0.24905 0.50358 1.23145 0.0
H272 H 0.31852 0.65166 1.16127 0.0
C273 C 0.17042 0.47995 1.2299 0.0
H274 H 0.36411 0.59572 1.21296 0.0
C275 C 0.14468 0.51093 1.19896 0.0
C276 C 0.19814 0.56641 1.16984 0.0
H277 H 0.12781 0.4293 1.24674 0.0
H278 H 0.08314 0.48169 1.19297 0.0
C279 C 0.27657 0.60528 1.18137 0.0
C280 C 0.0882 0.56038 0.40546 0.0
C281 C 0.01376 0.51483 0.42407 0.0
H282 H 0.15758 0.57957 0.34776 0.0
C283 C -0.04951 0.48393 0.3951 0.0
H284 H 0.13921 0.58946 0.42584 0.0
C285 C -0.03795 0.47897 0.35006 0.0
C286 C 0.03651 0.50056 0.33491 0.0
H287 H 0.89174 0.45429 0.40753 0.0
H288 H 0.91144 0.44347 0.33015 0.0
C289 C 0.09906 0.55564 0.36003 0.0
C290 C 0.62741 0.22875 0.73443 0.0
C291 C 0.5706 0.15923 0.75306 0.0
H292 H 0.69119 0.28307 0.67587 0.0
C293 C 0.51527 0.10378 0.72436 0.0
H294 H 0.66862 0.27569 0.75482 0.0
C295 C 0.53093 0.10881 0.67904 0.0
C296 C 0.60537 0.16467 0.66441 0.0
H297 H 0.46614 0.05215 0.73712 0.0
H298 H 0.4937 0.05967 0.65881 0.0
C299 C 0.64021 0.23309 0.6887 0.0
C300 C 0.42338 0.74865 1.0543 0.0
C301 C 0.44442 0.81347 1.0801 0.0
H302 H 0.46482 0.69943 1.00818 0.0
C303 C 0.49965 0.88466 1.06289 0.0
H304 H 0.37834 0.69338 1.06563 0.0
C305 C 0.54904 0.88861 1.02908 0.0
C306 C 0.54341 0.82137 1.01381 0.0
H307 H 0.51505 0.93634 1.08083 0.0
H308 H 0.60012 0.94317 1.02187 0.0
C309 C 0.47352 0.75243 1.02109 0.0
C310 C 0.80873 0.53531 0.43756 0.0
C311 C 0.73727 0.52819 0.42934 0.0
H312 H 0.92818 0.59489 0.42177 0.0
C313 C 0.72652 0.55394 0.38872 0.0
H314 H 0.82008 0.51732 0.46853 0.0
C315 C 0.78967 0.597 0.3606 0.0
C316 C 0.86347 0.61354 0.37274 0.0
H317 H 0.67179 0.54859 0.3813 0.0
H318 H 0.7824 0.62347 0.33193 0.0
C319 C 0.87147 0.57947 0.41025 0.0
C320 C 0.4084 0.09271 0.82242 0.0
C321 C 0.42212 0.10162 0.8681 0.0
H322 H 0.40789 0.14453 0.76215 0.0
C323 C 0.4561 0.17468 0.88711 0.0
H324 H 0.38003 0.03725 0.80677 0.0
C325 C 0.47162 0.23673 0.86104 0.0
C326 C 0.45388 0.22581 0.81592 0.0
H327 H 0.46613 0.18281 0.92239 0.0
H328 H 0.49371 0.2919 0.87631 0.0
C329 C 0.42375 0.15403 0.79678 0.0
C330 C 0.54015 0.1566 0.28208 0.0
C331 C 0.47691 0.11526 0.31075 0.0
H332 H 0.65429 0.18277 1.26369 0.0
C333 C 0.48556 0.08021 0.34775 0.0
H334 H 0.53489 0.18453 1.25349 0.0
C335 C 0.55332 0.08036 0.35393 0.0
C336 C 0.61391 0.11511 0.32312 0.0
H337 H 0.43842 0.04953 0.37101 0.0
H338 H 0.55624 0.04868 0.38132 0.0
C339 C 0.60853 0.15625 0.28815 0.0
C340 C 0.37525 0.55498 0.66373 0.0
C341 C 0.35196 0.54355 0.61934 0.0
H342 H 0.46582 0.62245 0.70997 0.0
C343 C 0.39867 0.59892 0.58816 0.0
H344 H 0.341 0.51225 0.68818 0.0
C345 C 0.46906 0.6633 0.60092 0.0
C346 C 0.4949 0.67176 0.64474 0.0
H347 H 0.38278 0.59039 0.55357 0.0
H348 H 0.50603 0.70313 0.57584 0.0
C349 C 0.44663 0.61786 0.67618 0.0
C350 C 0.82181 0.42824 0.96831 0.0
C351 C 0.86599 0.42039 0.9349 0.0
H352 H 0.80549 0.50662 1.00753 0.0
C353 C 0.92134 0.48476 0.91171 0.0
H354 H 0.77896 0.37941 0.98675 0.0
C355 C -0.06206 0.55636 0.92443 0.0
C356 C 0.89814 0.56506 0.95983 0.0
H357 H -0.04444 0.48028 0.88543 0.0
H358 H -0.01645 0.60535 0.90727 0.0
C359 C 0.83746 0.50066 0.98049 0.0
C360 C 0.27522 0.17611 0.4494 0.0
C361 C 0.25094 0.18933 0.40893 0.0
H362 H 0.28909 0.19705 0.51913 0.0
C363 C 0.22188 0.23833 0.40945 0.0
H364 H 0.29807 0.13914 0.45069 0.0
C365 C 0.21601 0.27166 0.44932 0.0
C366 C 0.24003 0.25787 0.48985 0.0
H367 H 0.20236 0.25001 0.3791 0.0
H368 H 0.19211 0.30775 0.44839 0.0
C369 C 0.27026 0.20993 0.48893 0.0
C370 C 0.00999 0.25906 0.74432 0.0
C371 C 0.09121 0.29477 0.74081 0.0
H372 H 0.91082 0.22421 0.78627 0.0
C373 C 0.13418 0.32274 0.78004 0.0
H374 H -0.0257 0.23648 0.71514 0.0
C375 C 0.09735 0.31583 0.82113 0.0
C376 C 0.01614 0.28052 0.82457 0.0
H377 H 0.19653 0.35048 0.77906 0.0
H378 H 0.13294 0.33837 0.85034 0.0
C379 C -0.02682 0.25196 0.78538 0.0
C380 C 0.87192 0.21643 1.11752 0.0
C381 C 0.8296 0.17413 1.08029 0.0
H382 H 0.88565 0.2212 1.18799 0.0
C383 C 0.76312 0.10179 1.08813 0.0
H384 H 0.92335 0.27198 1.11334 0.0
C385 C 0.74034 0.07278 1.13147 0.0
C386 C 0.78406 0.11441 1.16857 0.0
H387 H 0.72854 0.06703 1.06062 0.0
H388 H 0.68967 0.01673 1.13573 0.0
C389 C 0.85005 0.18691 1.16065 0.0
C390 C 0.75686 -0.0253 0.46328 0.0
C391 C 0.7203 0.92573 0.42696 0.0
H392 H 0.78495 -0.0126 0.53205 0.0
C393 C 0.68247 0.8469 0.43491 0.0
H394 H 0.78677 0.03559 0.45919 0.0
C395 C 0.68179 0.81857 0.47759 0.0
C396 C 0.71841 0.86814 0.51382 0.0
H397 H 0.65384 0.80692 0.40806 0.0
H398 H 0.65232 0.75783 0.48217 0.0
C399 C 0.75573 0.94666 0.5056 0.0
C400 C 0.844 0.73812 0.77531 0.0
C401 C 0.79664 0.76924 0.77191 0.0
H402 H 0.9165 0.71664 0.81642 0.0
C403 C 0.78593 0.80178 0.81049 0.0
H404 H 0.85458 0.71305 0.74653 0.0
C405 C 0.82126 0.80344 0.85073 0.0
C406 C 0.86959 0.77346 0.85403 0.0
H407 H 0.75048 0.82671 0.80961 0.0
H408 H 0.81134 0.82946 0.87929 0.0
C409 C 0.88013 0.74054 0.81555 0.0
C410 C 0.06956 0.84875 1.13508 0.0
C411 C 0.09996 0.87856 1.09312 0.0
H412 H 0.08245 0.86233 1.20541 0.0
C413 C 0.17181 0.94796 1.09146 0.0
H414 H 0.01467 0.79584 1.13803 0.0
C415 C 0.21088 -0.01301 1.13039 0.0
C416 C 0.18007 0.95744 1.17239 0.0
H417 H 0.19737 -0.02665 1.0599 0.0
H418 H 0.26483 0.04082 1.1275 0.0
C419 C 0.10905 0.88717 1.17394 0.0
loop_
_geom_bond_atom_site_label_1
_geom_bond_atom_site_label_2
_geom_bond_distance
_geom_bond_site_symmetry_2
_ccdc_geom_bond_type
Tb0 C9 2.764 . S
Tb0 O10 2.325 1_565 S
Tb0 O13 2.303 . S
Tb0 O17 2.322 1_554 S
Tb0 O18 2.349 . S
Tb0 O21 2.415 . S
Tb0 O22 2.399 . S
Tb1 O11 2.329 . S
Tb1 O12 2.350 . S
Tb1 O14 2.410 1_554 S
Tb1 O15 2.393 1_554 S
Tb1 O16 2.321 1_544 S
Tb1 O19 2.305 . S
Tb1 C30 2.758 1_554 S
C2 O18 1.261 . S
C2 O19 1.257 1_565 S
C3 C6 1.358 . S
C3 C7 1.332 . S
C3 C9 1.504 . S
C4 C5 1.373 . S
C4 C8 1.308 . S
C5 C4 1.373 . S
C5 C6 1.429 . S
C5 H32 0.932 . S
C6 C3 1.358 . S
C6 C5 1.429 . S
C6 H33 0.930 . S
C7 C3 1.332 . S
C7 C8 1.394 . S
C7 H34 0.932 . S
C8 C4 1.308 . S
C8 C7 1.394 . S
C8 H35 0.940 . S
C9 Tb0 2.764 . S
C9 C3 1.504 . S
C9 O21 1.239 . S
C9 O22 1.263 . S
O10 Tb0 2.325 1_545 S
O10 C20 1.236 . S
O11 Tb1 2.329 . S
O11 C20 1.257 . S
O12 Tb1 2.350 . S
O12 C23 1.261 . S
O13 Tb0 2.303 . S
O13 C23 1.257 1_565 S
O14 Tb1 2.410 1_556 S
O14 C30 1.239 . S
O15 Tb1 2.393 1_556 S
O15 C30 1.263 . S
O16 Tb1 2.321 1_566 S
O16 C31 1.236 . S
O17 Tb0 2.322 1_556 S
O17 C31 1.257 . S
O18 Tb0 2.349 . S
O18 C2 1.261 . S
O19 Tb1 2.305 . S
O19 C2 1.257 1_545 S
C20 O10 1.236 . S
C20 O11 1.257 . S
O21 Tb0 2.415 . S
O21 C9 1.239 . S
O22 Tb0 2.399 . S
O22 C9 1.263 . S
C23 O12 1.261 . S
C23 O13 1.257 1_545 S
C24 C27 1.358 . S
C24 C28 1.332 . S
C24 C30 1.504 . S
C25 C26 1.373 . S
C25 C29 1.308 . S
C26 C25 1.373 . S
C26 C27 1.429 . S
C26 H36 0.932 . S
C27 C24 1.358 . S
C27 C26 1.429 . S
C27 H37 0.930 . S
C28 C24 1.332 . S
C28 C29 1.394 . S
C28 H38 0.932 . S
C29 C25 1.308 . S
C29 C28 1.394 . S
C29 H39 0.929 . S
C30 Tb1 2.758 1_556 S
C30 O14 1.239 . S
C30 O15 1.263 . S
C30 C24 1.504 . S
C31 O16 1.236 . S
C31 O17 1.257 . S
H32 C5 0.932 . S
H33 C6 0.930 . S
H34 C7 0.932 . S
H35 C8 0.940 . S
H36 C26 0.932 . S
H37 C27 0.930 . S
H38 C28 0.932 . S
H39 C29 0.929 . S
Tb40 C49 2.764 . S
Tb40 O50 2.325 . S
Tb40 O53 2.303 . S
Tb40 O57 2.322 . S
Tb40 O58 2.349 . S
Tb40 O61 2.415 . S
Tb40 O62 2.399 . S
Tb41 O51 2.322 . S
Tb41 O52 2.349 . S
Tb41 O54 2.415 . S
Tb41 O55 2.399 . S
Tb41 O56 2.325 . S
Tb41 O59 2.303 . S
Tb41 C70 2.764 . S
C42 O58 1.261 . S
C42 O59 1.257 . S
C43 C46 1.358 . S
C43 C47 1.332 . S
C43 C49 1.504 . S
C44 C45 1.373 . S
C44 C48 1.308 . S
C45 C44 1.373 . S
C45 C46 1.429 . S
C45 H72 0.932 . S
C46 C43 1.358 . S
C46 C45 1.429 . S
C46 H73 0.930 . S
C47 C43 1.332 . S
C47 C48 1.394 . S
C47 H74 0.932 . S
C48 C44 1.308 . S
C48 C47 1.394 . S
C48 H75 0.929 . S
C49 Tb40 2.764 . S
C49 C43 1.504 . S
C49 O61 1.239 . S
C49 O62 1.263 . S
O50 Tb40 2.325 . S
O50 C60 1.236 . S
O51 Tb41 2.322 . S
O51 C60 1.257 . S
O52 Tb41 2.349 . S
O52 C63 1.261 . S
O53 Tb40 2.303 . S
O53 C63 1.257 . S
O54 Tb41 2.415 . S
O54 C70 1.239 . S
O55 Tb41 2.399 . S
O55 C70 1.263 . S
O56 Tb41 2.325 . S
O56 C71 1.236 . S
O57 Tb40 2.322 . S
O57 C71 1.257 . S
O58 Tb40 2.349 . S
O58 C42 1.261 . S
O59 Tb41 2.303 . S
O59 C42 1.257 . S
C60 O50 1.236 . S
C60 O51 1.257 . S
O61 Tb40 2.415 . S
O61 C49 1.239 . S
O62 Tb40 2.399 . S
O62 C49 1.263 . S
C63 O52 1.261 . S
C63 O53 1.257 . S
C64 C67 1.358 . S
C64 C68 1.332 . S
C64 C70 1.504 . S
C65 C66 1.373 . S
C65 C69 1.308 . S
C66 C65 1.373 . S
C66 C67 1.429 . S
C66 H76 0.932 . S
C67 C64 1.358 . S
C67 C66 1.429 . S
C67 H77 0.930 . S
C68 C64 1.332 . S
C68 C69 1.394 . S
C68 H78 0.932 . S
C69 C65 1.308 . S
C69 C68 1.394 . S
C69 H79 0.929 . S
C70 Tb41 2.764 . S
C70 O54 1.239 . S
C70 O55 1.263 . S
C70 C64 1.504 . S
C71 O56 1.236 . S
C71 O57 1.257 . S
H72 C45 0.932 . S
H73 C46 0.930 . S
H74 C47 0.932 . S
H75 C48 0.929 . S
H76 C66 0.932 . S
H77 C67 0.930 . S
H78 C68 0.932 . S
H79 C69 0.929 . S
Tb80 C89 2.764 . S
Tb80 O90 2.325 . S
Tb80 O93 2.303 . S
Tb80 O97 2.322 . S
Tb80 O98 2.349 . S
Tb80 O101 2.415 . S
Tb80 O102 2.399 . S
Tb81 O91 2.322 . S
Tb81 O92 2.349 . S
Tb81 O94 2.415 1_455 S
Tb81 O95 2.399 1_455 S
Tb81 O96 2.325 . S
Tb81 O99 2.303 . S
Tb81 C110 2.764 1_455 S
C82 O98 1.261 . S
C82 O99 1.257 . S
C83 C86 1.358 . S
C83 C87 1.332 . S
C83 C89 1.504 . S
C84 C85 1.373 . S
C84 C88 1.308 . S
C85 C84 1.373 . S
C85 C86 1.429 . S
C85 H112 0.932 . S
C86 C83 1.358 . S
C86 C85 1.429 . S
C86 H113 0.930 . S
C87 C83 1.332 . S
C87 C88 1.394 . S
C87 H114 0.932 . S
C88 C84 1.308 . S
C88 C87 1.394 . S
C88 H115 0.929 . S
C89 Tb80 2.764 . S
C89 C83 1.504 . S
C89 O101 1.239 . S
C89 O102 1.263 . S
O90 Tb80 2.325 . S
O90 C100 1.236 . S
O91 Tb81 2.322 . S
O91 C100 1.257 . S
O92 Tb81 2.349 . S
O92 C103 1.261 . S
O93 Tb80 2.303 . S
O93 C103 1.257 . S
O94 Tb81 2.415 1_655 S
O94 C110 1.239 . S
O95 Tb81 2.399 1_655 S
O95 C110 1.263 . S
O96 Tb81 2.325 . S
O96 C111 1.236 . S
O97 Tb80 2.322 . S
O97 C111 1.257 . S
O98 Tb80 2.349 . S
O98 C82 1.261 . S
O99 Tb81 2.303 . S
O99 C82 1.257 . S
C100 O90 1.236 . S
C100 O91 1.257 . S
O101 Tb80 2.415 . S
O101 C89 1.239 . S
O102 Tb80 2.399 . S
O102 C89 1.263 . S
C103 O92 1.261 . S
C103 O93 1.257 . S
C104 C107 1.358 . S
C104 C108 1.332 . S
C104 C110 1.504 . S
C105 C106 1.373 . S
C105 C109 1.308 . S
C106 C105 1.373 . S
C106 C107 1.429 . S
C106 H116 0.932 . S
C107 C104 1.358 . S
C107 C106 1.429 . S
C107 H117 0.930 . S
C108 C104 1.332 . S
C108 C109 1.394 . S
C108 H118 0.932 . S
C109 C105 1.308 . S
C109 C108 1.394 . S
C109 H119 0.929 . S
C110 Tb81 2.764 1_655 S
C110 O94 1.239 . S
C110 O95 1.263 . S
C110 C104 1.504 . S
C111 O96 1.236 . S
C111 O97 1.257 . S
H112 C85 0.932 . S
H113 C86 0.930 . S
H114 C87 0.932 . S
H115 C88 0.929 . S
H116 C106 0.932 . S
H117 C107 0.930 . S
H118 C108 0.932 . S
H119 C109 0.929 . S
Tb120 C129 2.764 1_545 S
Tb120 O130 2.325 . S
Tb120 O133 2.303 1_556 S
Tb120 O137 2.322 1_556 S
Tb120 O138 2.349 1_556 S
Tb120 O141 2.415 1_545 S
Tb120 O142 2.399 1_545 S
Tb121 O131 2.322 1_554 S
Tb121 O132 2.349 . S
Tb121 O134 2.415 . S
Tb121 O135 2.399 . S
Tb121 O136 2.325 . S
Tb121 O139 2.303 . S
Tb121 C150 2.764 . S
C122 O138 1.261 . S
C122 O139 1.257 . S
C123 C126 1.358 . S
C123 C127 1.332 . S
C123 C129 1.504 . S
C124 C125 1.373 . S
C124 C128 1.308 . S
C125 C124 1.373 . S
C125 C126 1.429 . S
C125 H152 0.932 . S
C126 C123 1.358 . S
C126 C125 1.429 . S
C126 H153 0.930 . S
C127 C123 1.332 . S
C127 C128 1.394 . S
C127 H154 0.932 . S
C128 C124 1.308 . S
C128 C127 1.394 . S
C128 H155 0.929 . S
C129 Tb120 2.764 1_565 S
C129 C123 1.504 . S
C129 O141 1.239 . S
C129 O142 1.263 . S
O130 Tb120 2.325 . S
O130 C140 1.236 . S
O131 Tb121 2.322 1_556 S
O131 C140 1.257 . S
O132 Tb121 2.349 . S
O132 C143 1.261 . S
O133 Tb120 2.303 1_554 S
O133 C143 1.257 . S
O134 Tb121 2.415 . S
O134 C150 1.239 . S
O135 Tb121 2.399 . S
O135 C150 1.263 . S
O136 Tb121 2.325 . S
O136 C151 1.236 . S
O137 Tb120 2.322 1_554 S
O137 C151 1.257 . S
O138 Tb120 2.349 1_554 S
O138 C122 1.261 . S
O139 Tb121 2.303 . S
O139 C122 1.257 . S
C140 O130 1.236 . S
C140 O131 1.257 . S
O141 Tb120 2.415 1_565 S
O141 C129 1.239 . S
O142 Tb120 2.399 1_565 S
O142 C129 1.263 . S
C143 O132 1.261 . S
C143 O133 1.257 . S
C144 C147 1.358 . S
C144 C148 1.332 . S
C144 C150 1.504 . S
C145 C146 1.373 . S
C145 C149 1.308 . S
C146 C145 1.373 . S
C146 C147 1.429 . S
C146 H156 0.932 . S
C147 C144 1.358 . S
C147 C146 1.429 . S
C147 H157 0.930 . S
C148 C144 1.332 . S
C148 C149 1.394 . S
C148 H158 0.932 . S
C149 C145 1.308 . S
C149 C148 1.394 . S
C149 H159 0.929 . S
C150 Tb121 2.764 . S
C150 O134 1.239 . S
C150 O135 1.263 . S
C150 C144 1.504 . S
C151 O136 1.236 . S
C151 O137 1.257 . S
H152 C125 0.932 . S
H153 C126 0.930 . S
H154 C127 0.932 . S
H155 C128 0.929 . S
H156 C146 0.932 . S
H157 C147 0.930 . S
H158 C148 0.932 . S
H159 C149 0.929 . S
Tb160 C169 2.764 . S
Tb160 O170 2.325 . S
Tb160 O173 2.303 . S
Tb160 O177 2.322 . S
Tb160 O178 2.349 . S
Tb160 O181 2.415 1_565 S
Tb160 O182 2.399 . S
Tb161 O171 2.322 . S
Tb161 O172 2.349 . S
Tb161 O174 2.415 . S
Tb161 O175 2.399 . S
Tb161 O176 2.325 . S
Tb161 O179 2.303 . S
Tb161 C190 2.764 . S
C162 O178 1.261 . S
C162 O179 1.257 . S
C163 C166 1.358 1_545 S
C163 C167 1.332 . S
C163 C169 1.504 1_545 S
C164 C165 1.373 . S
C164 C168 1.308 . S
C165 C164 1.373 . S
C165 C166 1.429 1_545 S
C165 H192 0.932 . S
C166 C163 1.358 1_565 S
C166 C165 1.429 1_565 S
C166 H193 0.930 . S
C167 C163 1.332 . S
C167 C168 1.394 . S
C167 H194 0.932 . S
C168 C164 1.308 . S
C168 C167 1.394 . S
C168 H195 0.929 . S
C169 Tb160 2.764 . S
C169 C163 1.504 1_565 S
C169 O181 1.239 1_565 S
C169 O182 1.263 . S
O170 Tb160 2.325 . S
O170 C180 1.236 . S
O171 Tb161 2.322 . S
O171 C180 1.257 . S
O172 Tb161 2.349 . S
O172 C183 1.261 1_565 S
O173 Tb160 2.303 . S
O173 C183 1.257 1_565 S
O174 Tb161 2.415 . S
O174 C190 1.239 . S
O175 Tb161 2.399 . S
O175 C190 1.263 . S
O176 Tb161 2.325 . S
O176 C191 1.236 . S
O177 Tb160 2.322 . S
O177 C191 1.257 . S
O178 Tb160 2.349 . S
O178 C162 1.261 . S
O179 Tb161 2.303 . S
O179 C162 1.257 . S
C180 O170 1.236 . S
C180 O171 1.257 . S
O181 Tb160 2.415 1_545 S
O181 C169 1.239 1_545 S
O182 Tb160 2.399 . S
O182 C169 1.263 . S
C183 O172 1.261 1_545 S
C183 O173 1.257 1_545 S
C184 C187 1.358 . S
C184 C188 1.332 . S
C184 C190 1.504 . S
C185 C186 1.373 . S
C185 C189 1.308 . S
C186 C185 1.373 . S
C186 C187 1.429 . S
C186 H196 0.932 . S
C187 C184 1.358 . S
C187 C186 1.429 . S
C187 H197 0.930 . S
C188 C184 1.332 . S
C188 C189 1.394 . S
C188 H198 0.932 . S
C189 C185 1.308 . S
C189 C188 1.394 . S
C189 H199 0.929 . S
C190 Tb161 2.764 . S
C190 O174 1.239 . S
C190 O175 1.263 . S
C190 C184 1.504 . S
C191 O176 1.236 . S
C191 O177 1.257 . S
H192 C165 0.932 . S
H193 C166 0.930 . S
H194 C167 0.932 . S
H195 C168 0.929 . S
H196 C186 0.932 . S
H197 C187 0.930 . S
H198 C188 0.932 . S
H199 C189 0.929 . S
Tb200 C209 2.764 . S
Tb200 O210 2.325 1_455 S
Tb200 O213 2.303 . S
Tb200 O217 2.322 . S
Tb200 O218 2.349 . S
Tb200 O221 2.415 . S
Tb200 O222 2.399 . S
Tb201 O211 2.322 . S
Tb201 O212 2.349 . S
Tb201 O214 2.415 . S
Tb201 O215 2.399 . S
Tb201 O216 2.325 1_655 S
Tb201 O219 2.303 . S
Tb201 C230 2.764 . S
C202 O218 1.257 1_655 S
C202 O219 1.262 . S
C203 C206 1.358 . S
C203 C207 1.332 . S
C203 C209 1.504 . S
C204 C205 1.373 . S
C204 C208 1.308 1_565 S
C205 C204 1.373 . S
C205 C206 1.429 . S
C205 H232 0.932 . S
C206 C203 1.358 . S
C206 C205 1.429 . S
C206 H233 0.930 . S
C207 C203 1.332 . S
C207 C208 1.394 1_565 S
C207 H234 0.932 1_565 S
C208 C204 1.308 1_545 S
C208 C207 1.394 1_545 S
C208 H235 0.929 . S
C209 Tb200 2.764 . S
C209 C203 1.504 . S
C209 O221 1.239 . S
C209 O222 1.263 . S
O210 Tb200 2.325 1_655 S
O210 C220 1.236 . S
O211 Tb201 2.322 . S
O211 C220 1.257 . S
O212 Tb201 2.349 . S
O212 C223 1.254 1_655 S
O213 Tb200 2.303 . S
O213 C223 1.265 . S
O214 Tb201 2.415 . S
O214 C230 1.239 . S
O215 Tb201 2.399 . S
O215 C230 1.263 . S
O216 Tb201 2.325 1_455 S
O216 C231 1.236 . S
O217 Tb200 2.322 . S
O217 C231 1.257 . S
O218 Tb200 2.349 . S
O218 C202 1.257 1_455 S
O219 Tb201 2.303 . S
O219 C202 1.262 . S
C220 O210 1.236 . S
C220 O211 1.257 . S
O221 Tb200 2.415 . S
O221 C209 1.239 . S
O222 Tb200 2.399 . S
O222 C209 1.263 . S
C223 O212 1.254 1_455 S
C223 O213 1.265 . S
C224 C227 1.358 . S
C224 C228 1.332 . S
C224 C230 1.504 . S
C225 C226 1.373 . S
C225 C229 1.308 . S
C226 C225 1.373 . S
C226 C227 1.429 . S
C226 H236 0.932 . S
C227 C224 1.358 . S
C227 C226 1.429 . S
C227 H237 0.930 . S
C228 C224 1.332 . S
C228 C229 1.394 . S
C228 H238 0.932 . S
C229 C225 1.308 . S
C229 C228 1.394 . S
C229 H239 0.929 . S
C230 Tb201 2.764 . S
C230 O214 1.239 . S
C230 O215 1.263 . S
C230 C224 1.504 . S
C231 O216 1.236 . S
C231 O217 1.257 . S
H232 C205 0.932 . S
H233 C206 0.930 . S
H234 C207 0.932 1_545 S
H235 C208 0.929 . S
H236 C226 0.932 . S
H237 C227 0.930 . S
H238 C228 0.932 . S
H239 C229 0.929 . S
C240 C241 1.387 . S
C240 H244 0.950 . S
C240 C249 1.390 1_655 S
C241 C240 1.387 . S
C241 C243 1.387 1_554 S
H242 C249 0.950 . S
C243 C241 1.387 1_556 S
C243 C245 1.390 1_655 S
C243 H247 0.950 . S
H244 C240 0.950 . S
C245 C243 1.390 1_455 S
C245 C246 1.387 1_556 S
C245 H248 0.950 . S
C246 C245 1.387 1_554 S
C246 C249 1.387 . S
H247 C243 0.950 . S
H248 C245 0.950 . S
C249 C240 1.390 1_455 S
C249 H242 0.950 . S
C249 C246 1.387 . S
C250 C251 1.387 . S
C250 H254 0.950 . S
C250 C259 1.390 1_655 S
C251 C250 1.387 . S
C251 C253 1.387 . S
H252 C259 0.950 . S
C253 C251 1.387 . S
C253 C255 1.390 1_655 S
C253 H257 0.950 1_545 S
H254 C250 0.950 . S
C255 C253 1.390 1_455 S
C255 C256 1.387 . S
C255 H258 0.950 . S
C256 C255 1.387 . S
C256 C259 1.387 . S
H257 C253 0.950 1_565 S
H258 C255 0.950 . S
C259 C250 1.390 1_455 S
C259 H252 0.950 . S
C259 C256 1.387 . S
C260 C261 1.387 . S
C260 H264 0.950 . S
C260 C269 1.390 . S
C261 C260 1.387 . S
C261 C263 1.387 . S
H262 C269 0.950 . S
C263 C261 1.387 . S
C263 C265 1.390 . S
C263 H267 0.950 1_455 S
H264 C260 0.950 . S
C265 C263 1.390 . S
C265 C266 1.387 . S
C265 H268 0.950 . S
C266 C265 1.387 . S
C266 C269 1.387 . S
H267 C263 0.950 1_655 S
H268 C265 0.950 . S
C269 C260 1.390 . S
C269 H262 0.950 . S
C269 C266 1.387 . S
C270 C271 1.387 . S
C270 H274 0.950 . S
C270 C279 1.390 . S
C271 C270 1.387 . S
C271 C273 1.387 . S
H272 C279 0.950 . S
C273 C271 1.387 . S
C273 C275 1.390 . S
C273 H277 0.950 . S
H274 C270 0.950 . S
C275 C273 1.390 . S
C275 C276 1.387 . S
C275 H278 0.950 . S
C276 C275 1.387 . S
C276 C279 1.387 . S
H277 C273 0.950 . S
H278 C275 0.950 . S
C279 C270 1.390 . S
C279 H272 0.950 . S
C279 C276 1.387 . S
C280 C281 1.387 . S
C280 H284 0.950 . S
C280 C289 1.390 1_455 S
C281 C280 1.387 . S
C281 C283 1.387 . S
H282 C289 0.950 . S
C283 C281 1.387 . S
C283 C285 1.390 1_455 S
C283 H287 0.950 . S
H284 C280 0.950 . S
C285 C283 1.390 1_655 S
C285 C286 1.387 . S
C285 H288 0.950 . S
C286 C285 1.387 . S
C286 C289 1.387 . S
H287 C283 0.950 . S
H288 C285 0.950 . S
C289 C280 1.390 1_655 S
C289 H282 0.950 . S
C289 C286 1.387 . S
C290 C291 1.387 . S
C290 H294 0.950 . S
C290 C299 1.390 . S
C291 C290 1.387 . S
C291 C293 1.387 . S
H292 C299 0.950 . S
C293 C291 1.387 . S
C293 C295 1.390 . S
C293 H297 0.950 . S
H294 C290 0.950 . S
C295 C293 1.390 . S
C295 C296 1.387 . S
C295 H298 0.950 . S
C296 C295 1.387 . S
C296 C299 1.387 . S
H297 C293 0.950 . S
H298 C295 0.950 . S
C299 C290 1.390 . S
C299 H292 0.950 . S
C299 C296 1.387 . S
C300 C301 1.387 . S
C300 H304 0.950 . S
C300 C309 1.390 . S
C301 C300 1.387 . S
C301 C303 1.387 . S
H302 C309 0.950 . S
C303 C301 1.387 . S
C303 C305 1.390 . S
C303 H307 0.950 . S
H304 C300 0.950 . S
C305 C303 1.390 . S
C305 C306 1.387 . S
C305 H308 0.950 . S
C306 C305 1.387 . S
C306 C309 1.387 . S
H307 C303 0.950 . S
H308 C305 0.950 . S
C309 C300 1.390 . S
C309 H302 0.950 . S
C309 C306 1.387 . S
C310 C311 1.387 . S
C310 H314 0.950 . S
C310 C319 1.390 . S
C311 C310 1.387 . S
C311 C313 1.387 . S
H312 C319 0.950 . S
C313 C311 1.387 . S
C313 C315 1.390 . S
C313 H317 0.950 . S
H314 C310 0.950 . S
C315 C313 1.390 . S
C315 C316 1.387 . S
C315 H318 0.950 1_655 S
C316 C315 1.387 . S
C316 C319 1.387 . S
H317 C313 0.950 . S
H318 C315 0.950 1_455 S
C319 C310 1.390 . S
C319 H312 0.950 . S
C319 C316 1.387 . S
C320 C321 1.387 . S
C320 H324 0.950 . S
C320 C329 1.390 . S
C321 C320 1.387 . S
C321 C323 1.387 . S
H322 C329 0.950 . S
C323 C321 1.387 . S
C323 C325 1.390 . S
C323 H327 0.950 . S
H324 C320 0.950 . S
C325 C323 1.390 . S
C325 C326 1.387 . S
C325 H328 0.950 . S
C326 C325 1.387 . S
C326 C329 1.387 . S
H327 C323 0.950 . S
H328 C325 0.950 . S
C329 C320 1.390 . S
C329 H322 0.950 . S
C329 C326 1.387 . S
C330 C331 1.387 1_556 S
C330 H334 0.950 . S
C330 C339 1.390 . S
C331 C330 1.387 1_554 S
C331 C333 1.387 . S
H332 C339 0.950 . S
C333 C331 1.387 . S
C333 C335 1.390 . S
C333 H337 0.950 . S
H334 C330 0.950 . S
C335 C333 1.390 . S
C335 C336 1.387 . S
C335 H338 0.950 . S
C336 C335 1.387 . S
C336 C339 1.387 1_554 S
H337 C333 0.950 . S
H338 C335 0.950 . S
C339 C330 1.390 . S
C339 H332 0.950 . S
C339 C336 1.387 1_556 S
C340 C341 1.387 . S
C340 H344 0.950 . S
C340 C349 1.390 . S
C341 C340 1.387 . S
C341 C343 1.387 . S
H342 C349 0.950 . S
C343 C341 1.387 . S
C343 C345 1.390 . S
C343 H347 0.950 . S
H344 C340 0.950 . S
C345 C343 1.390 . S
C345 C346 1.387 . S
C345 H348 0.950 . S
C346 C345 1.387 . S
C346 C349 1.387 . S
H347 C343 0.950 . S
H348 C345 0.950 . S
C349 C340 1.390 . S
C349 H342 0.950 . S
C349 C346 1.387 . S
C350 C351 1.387 . S
C350 H354 0.950 . S
C350 C359 1.390 1_455 S
C351 C350 1.387 . S
C351 C353 1.387 . S
H352 C359 0.950 . S
C353 C351 1.387 . S
C353 C355 1.390 . S
C353 H357 0.950 . S
H354 C350 0.950 . S
C355 C353 1.390 . S
C355 C356 1.387 1_455 S
C355 H358 0.950 . S
C356 C355 1.387 1_655 S
C356 C359 1.387 . S
H357 C353 0.950 . S
H358 C355 0.950 . S
C359 C350 1.390 1_655 S
C359 H352 0.950 . S
C359 C356 1.387 . S
C360 C361 1.387 . S
C360 H364 0.950 . S
C360 C369 1.390 . S
C361 C360 1.387 . S
C361 C363 1.387 . S
H362 C369 0.950 . S
C363 C361 1.387 . S
C363 C365 1.390 . S
C363 H367 0.950 . S
H364 C360 0.950 . S
C365 C363 1.390 . S
C365 C366 1.387 . S
C365 H368 0.950 . S
C366 C365 1.387 . S
C366 C369 1.387 . S
H367 C363 0.950 . S
H368 C365 0.950 . S
C369 C360 1.390 . S
C369 H362 0.950 . S
C369 C366 1.387 . S
C370 C371 1.387 . S
C370 H374 0.950 . S
C370 C379 1.390 . S
C371 C370 1.387 . S
C371 C373 1.387 . S
H372 C379 0.950 . S
C373 C371 1.387 . S
C373 C375 1.390 . S
C373 H377 0.950 . S
H374 C370 0.950 . S
C375 C373 1.390 . S
C375 C376 1.387 . S
C375 H378 0.950 . S
C376 C375 1.387 . S
C376 C379 1.387 . S
H377 C373 0.950 . S
H378 C375 0.950 . S
C379 C370 1.390 . S
C379 H372 0.950 . S
C379 C376 1.387 . S
C380 C381 1.387 1_455 S
C380 H384 0.950 . S
C380 C389 1.390 1_455 S
C381 C380 1.387 1_655 S
C381 C383 1.387 . S
H382 C389 0.950 1_455 S
C383 C381 1.387 . S
C383 C385 1.390 . S
C383 H387 0.950 . S
H384 C380 0.950 . S
C385 C383 1.390 . S
C385 C386 1.387 . S
C385 H388 0.950 . S
C386 C385 1.387 . S
C386 C389 1.387 . S
H387 C383 0.950 . S
H388 C385 0.950 . S
C389 C380 1.390 1_655 S
C389 H382 0.950 1_655 S
C389 C386 1.387 . S
C390 C391 1.387 . S
C390 H394 0.950 . S
C390 C399 1.390 . S
C391 C390 1.387 . S
C391 C393 1.387 . S
H392 C399 0.950 . S
C393 C391 1.387 . S
C393 C395 1.390 . S
C393 H397 0.950 . S
H394 C390 0.950 . S
C395 C393 1.390 . S
C395 C396 1.387 . S
C395 H398 0.950 . S
C396 C395 1.387 . S
C396 C399 1.387 . S
H397 C393 0.950 . S
H398 C395 0.950 . S
C399 C390 1.390 . S
C399 H392 0.950 . S
C399 C396 1.387 . S
C400 C401 1.387 . S
C400 H404 0.950 . S
C400 C409 1.390 . S
C401 C400 1.387 . S
C401 C403 1.387 . S
H402 C409 0.950 . S
C403 C401 1.387 . S
C403 C405 1.390 . S
C403 H407 0.950 . S
H404 C400 0.950 . S
C405 C403 1.390 . S
C405 C406 1.387 . S
C405 H408 0.950 . S
C406 C405 1.387 . S
C406 C409 1.387 . S
H407 C403 0.950 . S
H408 C405 0.950 . S
C409 C400 1.390 . S
C409 H402 0.950 . S
C409 C406 1.387 . S
C410 C411 1.387 . S
C410 H414 0.950 . S
C410 C419 1.390 . S
C411 C410 1.387 . S
C411 C413 1.387 . S
H412 C419 0.950 . S
C413 C411 1.387 . S
C413 C415 1.390 . S
C413 H417 0.950 . S
H414 C410 0.950 . S
C415 C413 1.390 . S
C415 C416 1.387 . S
C415 H418 0.950 1_565 S
C416 C415 1.387 . S
C416 C419 1.387 . S
H417 C413 0.950 . S
H418 C415 0.950 1_545 S
C419 C410 1.390 . S
C419 H412 0.950 . S
C419 C416 1.387 . S
C241 C143 1.406 . S
C246 C23 1.323 . S
C251 C183 1.320 . S
C256 C63 1.405 . S
C261 C223 1.404 1_545 S
C266 C103 1.322 . S
C271 C25 1.299 . S
C276 C84 1.141 . S
C281 C44 1.215 . S
C286 C145 1.082 . S
C291 C105 1.299 . S
C296 C164 1.141 . S
C301 C124 1.212 . S
C306 C225 1.087 . S
C311 C185 1.293 . S
C316 C4 1.140 1_655 S
C321 C204 1.214 1_545 S
C326 C65 1.081 . S
C331 C2 0.895 1_545 S
C336 C122 0.810 . S
C341 C42 0.800 . S
C346 C162 0.891 . S
C351 C82 0.896 . S
C356 C202 0.806 . S
C361 C20 4.311 . S
C366 C60 4.303 . S
C371 C71 4.186 . S
C376 C111 4.152 . S
C381 C100 4.310 1_655 S
C386 C140 4.303 . S
C391 C151 4.185 1_565 S
C396 C191 4.152 . S
C401 C180 4.310 . S
C406 C220 4.304 . S
C411 C231 4.185 . S
C416 C31 4.152 . S
