# Generated by pormake.
# Topology ukd, (4)-cn, num edge types: 1
# Building blocks:
#     Node 0, Type 0, BuildingBlock: QUQFOY_clean_sbu_1, # of connection points: 4
#     Node 1, Type 0, BuildingBlock: QUQFOY_clean_sbu_1, # of connection points: 4
#     Node 2, Type 0, BuildingBlock: QUQFOY_clean_sbu_1, # of connection points: 4
#     Node 3, Type 0, BuildingBlock: QUQFOY_clean_sbu_1, # of connection points: 4
#     Node 4, Type 0, BuildingBlock: QUQFOY_clean_sbu_1, # of connection points: 4
#     Node 5, Type 0, BuildingBlock: QUQFOY_clean_sbu_1, # of connection points: 4
#     Node 6, Type 0, BuildingBlock: QUQFOY_clean_sbu_1, # of connection points: 4
#     Node 7, Type 0, BuildingBlock: QUQFOY_clean_sbu_1, # of connection points: 4
#     Node 8, Type 0, BuildingBlock: QUQFOY_clean_sbu_1, # of connection points: 4
#     Node 9, Type 0, BuildingBlock: QUQFOY_clean_sbu_1, # of connection points: 4
#     Node 10, Type 0, BuildingBlock: QUQFOY_clean_sbu_1, # of connection points: 4
#     Node 11, Type 0, BuildingBlock: QUQFOY_clean_sbu_1, # of connection points: 4
#     Node 12, Type 0, BuildingBlock: QUQFOY_clean_sbu_1, # of connection points: 4
#     Node 13, Type 0, BuildingBlock: QUQFOY_clean_sbu_1, # of connection points: 4
#     Node 14, Type 0, BuildingBlock: QUQFOY_clean_sbu_1, # of connection points: 4
#     Node 15, Type 0, BuildingBlock: QUQFOY_clean_sbu_1, # of connection points: 4
#     Node 16, Type 0, BuildingBlock: QUQFOY_clean_sbu_1, # of connection points: 4
#     Node 17, Type 0, BuildingBlock: QUQFOY_clean_sbu_1, # of connection points: 4
#     Node 18, Type 0, BuildingBlock: QUQFOY_clean_sbu_1, # of connection points: 4
#     Node 19, Type 0, BuildingBlock: QUQFOY_clean_sbu_1, # of connection points: 4
#     Node 20, Type 0, BuildingBlock: QUQFOY_clean_sbu_1, # of connection points: 4
#     Node 21, Type 0, BuildingBlock: QUQFOY_clean_sbu_1, # of connection points: 4
#     Node 22, Type 0, BuildingBlock: QUQFOY_clean_sbu_1, # of connection points: 4
#     Node 23, Type 0, BuildingBlock: QUQFOY_clean_sbu_1, # of connection points: 4
#     Node 24, Type 0, BuildingBlock: QUQFOY_clean_sbu_1, # of connection points: 4
#     Node 25, Type 0, BuildingBlock: QUQFOY_clean_sbu_1, # of connection points: 4
#     Node 26, Type 0, BuildingBlock: QUQFOY_clean_sbu_1, # of connection points: 4
#     Node 27, Type 0, BuildingBlock: QUQFOY_clean_sbu_1, # of connection points: 4
#     Node 28, Type 0, BuildingBlock: QUQFOY_clean_sbu_1, # of connection points: 4
#     Node 29, Type 0, BuildingBlock: QUQFOY_clean_sbu_1, # of connection points: 4
#     Node 30, Type 0, BuildingBlock: QUQFOY_clean_sbu_1, # of connection points: 4
#     Node 31, Type 0, BuildingBlock: QUQFOY_clean_sbu_1, # of connection points: 4
#     Edge 32, Type (0, 0), BuildingBlock: ZUJKAS_clean_linker_0, # of connection points: 2
#     Edge 33, Type (0, 0), BuildingBlock: ZUJKAS_clean_linker_0, # of connection points: 2
#     Edge 34, Type (0, 0), BuildingBlock: ZUJKAS_clean_linker_0, # of connection points: 2
#     Edge 35, Type (0, 0), BuildingBlock: ZUJKAS_clean_linker_0, # of connection points: 2
#     Edge 36, Type (0, 0), BuildingBlock: ZUJKAS_clean_linker_0, # of connection points: 2
#     Edge 37, Type (0, 0), BuildingBlock: ZUJKAS_clean_linker_0, # of connection points: 2
#     Edge 38, Type (0, 0), BuildingBlock: ZUJKAS_clean_linker_0, # of connection points: 2
#     Edge 39, Type (0, 0), BuildingBlock: ZUJKAS_clean_linker_0, # of connection points: 2
#     Edge 40, Type (0, 0), BuildingBlock: ZUJKAS_clean_linker_0, # of connection points: 2
#     Edge 41, Type (0, 0), BuildingBlock: ZUJKAS_clean_linker_0, # of connection points: 2
#     Edge 42, Type (0, 0), BuildingBlock: ZUJKAS_clean_linker_0, # of connection points: 2
#     Edge 43, Type (0, 0), BuildingBlock: ZUJKAS_clean_linker_0, # of connection points: 2
#     Edge 44, Type (0, 0), BuildingBlock: ZUJKAS_clean_linker_0, # of connection points: 2
#     Edge 45, Type (0, 0), BuildingBlock: ZUJKAS_clean_linker_0, # of connection points: 2
#     Edge 46, Type (0, 0), BuildingBlock: ZUJKAS_clean_linker_0, # of connection points: 2
#     Edge 47, Type (0, 0), BuildingBlock: ZUJKAS_clean_linker_0, # of connection points: 2
#     Edge 48, Type (0, 0), BuildingBlock: ZUJKAS_clean_linker_0, # of connection points: 2
#     Edge 49, Type (0, 0), BuildingBlock: ZUJKAS_clean_linker_0, # of connection points: 2
#     Edge 50, Type (0, 0), BuildingBlock: ZUJKAS_clean_linker_0, # of connection points: 2
#     Edge 51, Type (0, 0), BuildingBlock: ZUJKAS_clean_linker_0, # of connection points: 2
#     Edge 52, Type (0, 0), BuildingBlock: ZUJKAS_clean_linker_0, # of connection points: 2
#     Edge 53, Type (0, 0), BuildingBlock: ZUJKAS_clean_linker_0, # of connection points: 2
#     Edge 54, Type (0, 0), BuildingBlock: ZUJKAS_clean_linker_0, # of connection points: 2
#     Edge 55, Type (0, 0), BuildingBlock: ZUJKAS_clean_linker_0, # of connection points: 2
#     Edge 56, Type (0, 0), BuildingBlock: ZUJKAS_clean_linker_0, # of connection points: 2
#     Edge 57, Type (0, 0), BuildingBlock: ZUJKAS_clean_linker_0, # of connection points: 2
#     Edge 58, Type (0, 0), BuildingBlock: ZUJKAS_clean_linker_0, # of connection points: 2
#     Edge 59, Type (0, 0), BuildingBlock: ZUJKAS_clean_linker_0, # of connection points: 2
#     Edge 60, Type (0, 0), BuildingBlock: ZUJKAS_clean_linker_0, # of connection points: 2
#     Edge 61, Type (0, 0), BuildingBlock: ZUJKAS_clean_linker_0, # of connection points: 2
#     Edge 62, Type (0, 0), BuildingBlock: ZUJKAS_clean_linker_0, # of connection points: 2
#     Edge 63, Type (0, 0), BuildingBlock: ZUJKAS_clean_linker_0, # of connection points: 2
#     Edge 64, Type (0, 0), BuildingBlock: ZUJKAS_clean_linker_0, # of connection points: 2
#     Edge 65, Type (0, 0), BuildingBlock: ZUJKAS_clean_linker_0, # of connection points: 2
#     Edge 66, Type (0, 0), BuildingBlock: ZUJKAS_clean_linker_0, # of connection points: 2
#     Edge 67, Type (0, 0), BuildingBlock: ZUJKAS_clean_linker_0, # of connection points: 2
#     Edge 68, Type (0, 0), BuildingBlock: ZUJKAS_clean_linker_0, # of connection points: 2
#     Edge 69, Type (0, 0), BuildingBlock: ZUJKAS_clean_linker_0, # of connection points: 2
#     Edge 70, Type (0, 0), BuildingBlock: ZUJKAS_clean_linker_0, # of connection points: 2
#     Edge 71, Type (0, 0), BuildingBlock: ZUJKAS_clean_linker_0, # of connection points: 2
#     Edge 72, Type (0, 0), BuildingBlock: ZUJKAS_clean_linker_0, # of connection points: 2
#     Edge 73, Type (0, 0), BuildingBlock: ZUJKAS_clean_linker_0, # of connection points: 2
#     Edge 74, Type (0, 0), BuildingBlock: ZUJKAS_clean_linker_0, # of connection points: 2
#     Edge 75, Type (0, 0), BuildingBlock: ZUJKAS_clean_linker_0, # of connection points: 2
#     Edge 76, Type (0, 0), BuildingBlock: ZUJKAS_clean_linker_0, # of connection points: 2
#     Edge 77, Type (0, 0), BuildingBlock: ZUJKAS_clean_linker_0, # of connection points: 2
#     Edge 78, Type (0, 0), BuildingBlock: ZUJKAS_clean_linker_0, # of connection points: 2
#     Edge 79, Type (0, 0), BuildingBlock: ZUJKAS_clean_linker_0, # of connection points: 2
#     Edge 80, Type (0, 0), BuildingBlock: ZUJKAS_clean_linker_0, # of connection points: 2
#     Edge 81, Type (0, 0), BuildingBlock: ZUJKAS_clean_linker_0, # of connection points: 2
#     Edge 82, Type (0, 0), BuildingBlock: ZUJKAS_clean_linker_0, # of connection points: 2
#     Edge 83, Type (0, 0), BuildingBlock: ZUJKAS_clean_linker_0, # of connection points: 2
#     Edge 84, Type (0, 0), BuildingBlock: ZUJKAS_clean_linker_0, # of connection points: 2
#     Edge 85, Type (0, 0), BuildingBlock: ZUJKAS_clean_linker_0, # of connection points: 2
#     Edge 86, Type (0, 0), BuildingBlock: ZUJKAS_clean_linker_0, # of connection points: 2
#     Edge 87, Type (0, 0), BuildingBlock: ZUJKAS_clean_linker_0, # of connection points: 2
#     Edge 88, Type (0, 0), BuildingBlock: ZUJKAS_clean_linker_0, # of connection points: 2
#     Edge 89, Type (0, 0), BuildingBlock: ZUJKAS_clean_linker_0, # of connection points: 2
#     Edge 90, Type (0, 0), BuildingBlock: ZUJKAS_clean_linker_0, # of connection points: 2
#     Edge 91, Type (0, 0), BuildingBlock: ZUJKAS_clean_linker_0, # of connection points: 2
#     Edge 92, Type (0, 0), BuildingBlock: ZUJKAS_clean_linker_0, # of connection points: 2
#     Edge 93, Type (0, 0), BuildingBlock: ZUJKAS_clean_linker_0, # of connection points: 2
#     Edge 94, Type (0, 0), BuildingBlock: ZUJKAS_clean_linker_0, # of connection points: 2
#     Edge 95, Type (0, 0), BuildingBlock: ZUJKAS_clean_linker_0, # of connection points: 2
# Relax obj value: 0.007
# Max RMSD: 0.049
# Mean RMSD: 0.048
data_MOF--net-ukd--node1-QUQFOY_clean_sbu_1--edge1-ZUJKAS_clean_linker_0
_symmetry_space_group_name_H-M    P1
_symmetry_Int_Tables_number       1
_symmetry_cell_setting            triclinic
loop_
_symmetry_equiv_pos_as_xyz
'x, y, z'
_cell_length_a     59.956061
_cell_length_b     59.929543
_cell_length_c     101.89916
_cell_angle_alpha  90.009145
_cell_angle_beta   90.009603
_cell_angle_gamma 89.993581
loop_
_atom_site_label
_atom_site_type_symbol
_atom_site_fract_x
_atom_site_fract_y
_atom_site_fract_z
_atom_type_partial_charge
O0 O 0.19244 0.164 0.35722 0.0
Cd1 Cd 0.21925 0.1852 0.35969 0.0
Cd2 Cd 0.19931 0.20449 0.3371 0.0
O3 O 0.17641 0.17898 0.33978 0.0
O4 O 0.23703 0.16968 0.37353 0.0
O5 O 0.24983 0.1754 0.35351 0.0
C6 C 0.25275 0.16701 0.36506 0.0
C7 C 0.21256 0.2131 0.31602 0.0
C8 C 0.17684 0.16427 0.34877 0.0
C9 C 0.2032 0.23289 0.36165 0.0
O10 O 0.19701 0.23117 0.34976 0.0
O11 O 0.21272 0.21662 0.36741 0.0
O12 O 0.19243 0.21767 0.31954 0.0
O13 O 0.22515 0.2029 0.32439 0.0
O14 O 0.09333 0.94313 0.60913 0.0
Cd15 Cd 0.07219 0.97031 0.61004 0.0
Cd16 Cd 0.05664 0.9505 0.58692 0.0
O17 O 0.08358 0.92944 0.58985 0.0
O18 O 0.08576 0.98964 0.62387 0.0
O19 O 0.08315 0.99998 0.60312 0.0
C20 C 0.0898 0.00428 0.61492 0.0
C21 C 0.04826 0.96405 0.56587 0.0
C22 C 0.09582 0.92879 0.60005 0.0
C23 C 0.02533 0.95278 0.61031 0.0
O24 O 0.02929 0.94546 0.59883 0.0
O25 O 0.03986 0.96435 0.61635 0.0
O26 O 0.04518 0.94344 0.56898 0.0
O27 O 0.05693 0.977 0.57464 0.0
O28 O 0.31548 0.84331 0.85904 0.0
Cd29 Cd 0.28811 0.82224 0.85869 0.0
Cd30 Cd 0.30904 0.80959 0.83576 0.0
O31 O 0.32836 0.83762 0.83904 0.0
O32 O 0.26805 0.83464 0.87255 0.0
O33 O 0.25897 0.83414 0.85155 0.0
C34 C 0.25403 0.83973 0.86345 0.0
C35 C 0.29505 0.80112 0.81484 0.0
C36 C 0.32923 0.84795 0.84993 0.0
C37 C 0.30724 0.77639 0.85811 0.0
O38 O 0.3161 0.78222 0.84731 0.0
O39 O 0.29348 0.7892 0.8639 0.0
O40 O 0.31596 0.79922 0.81757 0.0
O41 O 0.28203 0.80873 0.8239 0.0
O42 O 0.41488 0.06637 0.10894 0.0
Cd43 Cd 0.43559 0.03885 0.10977 0.0
Cd44 Cd 0.45135 0.05859 0.0867 0.0
O45 O 0.42472 0.08004 0.08968 0.0
O46 O 0.42152 0.01931 0.12333 0.0
O47 O 0.42439 0.00954 0.1025 0.0
C48 C 0.41744 0.005 0.1142 0.0
C49 C 0.45973 0.04511 0.06563 0.0
C50 C 0.41255 0.08081 0.0999 0.0
C51 C 0.48266 0.05566 0.1101 0.0
O52 O 0.47874 0.06312 0.09865 0.0
O53 O 0.46801 0.04423 0.11613 0.0
O54 O 0.46307 0.06565 0.06882 0.0
O55 O 0.45075 0.03222 0.07432 0.0
O56 O 0.19119 0.84514 0.15184 0.0
Cd57 Cd 0.21792 0.82346 0.15038 0.0
Cd58 Cd 0.19707 0.80642 0.17308 0.0
O59 O 0.17531 0.83273 0.17001 0.0
O60 O 0.23692 0.83736 0.1365 0.0
O61 O 0.24801 0.83381 0.15705 0.0
C62 C 0.25194 0.84088 0.1453 0.0
C63 C 0.21062 0.79808 0.19413 0.0
C64 C 0.17585 0.84632 0.16043 0.0
C65 C 0.20043 0.77625 0.1493 0.0
O66 O 0.19323 0.77934 0.16088 0.0
O67 O 0.21151 0.79143 0.14348 0.0
O68 O 0.19017 0.79434 0.19091 0.0
O69 O 0.22336 0.8074 0.18549 0.0
O70 O 0.41586 0.9417 0.39969 0.0
Cd71 Cd 0.43696 0.96887 0.39899 0.0
Cd72 Cd 0.45154 0.94898 0.42225 0.0
O73 O 0.42417 0.92841 0.41928 0.0
O74 O 0.42322 0.98812 0.38518 0.0
O75 O 0.42607 0.99857 0.40589 0.0
C76 C 0.41916 1.00275 0.39413 0.0
C77 C 0.46006 0.96259 0.44327 0.0
C78 C 0.41257 0.92765 0.40883 0.0
C79 C 0.48345 0.95094 0.39903 0.0
O80 O 0.47898 0.94352 0.41042 0.0
O81 O 0.46934 0.96286 0.39288 0.0
O82 O 0.46279 0.9419 0.44024 0.0
O83 O 0.45162 0.9756 0.43446 0.0
O84 O 0.31627 0.16571 0.65004 0.0
Cd85 Cd 0.28911 0.18684 0.64923 0.0
Cd86 Cd 0.3088 0.20224 0.67236 0.0
O87 O 0.33001 0.17541 0.66932 0.0
O88 O 0.26923 0.17301 0.63577 0.0
O89 O 0.25975 0.17615 0.65664 0.0
C90 C 0.25498 0.16918 0.64497 0.0
C91 C 0.2954 0.21045 0.69348 0.0
C92 C 0.33065 0.16322 0.6591 0.0
C93 C 0.3064 0.23373 0.649 0.0
O94 O 0.31356 0.22973 0.66051 0.0
O95 O 0.29503 0.21916 0.64286 0.0
O96 O 0.31594 0.2137 0.6903 0.0
O97 O 0.28244 0.2017 0.68475 0.0
O98 O 0.09135 0.06608 0.89836 0.0
Cd99 Cd 0.07071 0.03852 0.89814 0.0
Cd100 Cd 0.05658 0.05833 0.92135 0.0
O101 O 0.08381 0.07899 0.91815 0.0
O102 O 0.08425 0.01849 0.88464 0.0
O103 O 0.08219 0.00949 0.90562 0.0
C104 C 0.08872 0.00454 0.89389 0.0
C105 C 0.0484 0.0448 0.94244 0.0
C106 C 0.09488 0.08006 0.90751 0.0
C107 C 0.0241 0.05595 0.89844 0.0
O108 O 0.02887 0.06369 0.90972 0.0
O109 O 0.03808 0.04389 0.89228 0.0
O110 O 0.04564 0.06548 0.9394 0.0
O111 O 0.05673 0.03177 0.9336 0.0
O112 O 0.81412 0.77991 0.65963 0.0
Cd113 Cd 0.809 0.80703 0.67173 0.0
Cd114 Cd 0.78963 0.82308 0.64866 0.0
O115 O 0.79581 0.79097 0.642 0.0
O116 O 0.81573 0.79509 0.68961 0.0
O117 O 0.78235 0.80725 0.6839 0.0
C118 C 0.79511 0.79828 0.69265 0.0
C119 C 0.75551 0.84069 0.64426 0.0
C120 C 0.80716 0.77625 0.64804 0.0
C121 C 0.83096 0.84649 0.65904 0.0
O122 O 0.81671 0.84428 0.64989 0.0
O123 O 0.8302 0.83396 0.66911 0.0
O124 O 0.77002 0.83721 0.63516 0.0
O125 O 0.76002 0.83343 0.6559 0.0
O126 O 0.91484 0.0663 0.40022 0.0
Cd127 Cd 0.93648 0.03941 0.39998 0.0
Cd128 Cd 0.9501 0.0602 0.42289 0.0
O129 O 0.92224 0.07984 0.41988 0.0
O130 O 0.92385 0.01947 0.38615 0.0
O131 O 0.92553 0.00986 0.40705 0.0
C132 C 0.91948 0.00512 0.3952 0.0
C133 C 0.95883 0.04626 0.44378 0.0
C134 C 0.91096 0.08031 0.40932 0.0
C135 C 0.98232 0.05894 0.4 0.0
O136 O 0.97718 0.06711 0.41111 0.0
O137 O 0.96907 0.04565 0.39417 0.0
O138 O 0.96093 0.06712 0.44098 0.0
O139 O 0.95093 0.03325 0.43479 0.0
O140 O 0.69273 0.22657 0.16076 0.0
Cd141 Cd 0.69871 0.19951 0.17273 0.0
Cd142 Cd 0.71892 0.18471 0.14969 0.0
O143 O 0.71352 0.21741 0.14372 0.0
O144 O 0.69168 0.211 0.19068 0.0
O145 O 0.72541 0.20001 0.18486 0.0
C146 C 0.71241 0.2085 0.19366 0.0
C147 C 0.75285 0.16677 0.14514 0.0
C148 C 0.70086 0.23124 0.14958 0.0
C149 C 0.67749 0.16049 0.15946 0.0
O150 O 0.69152 0.16372 0.15028 0.0
O151 O 0.67833 0.1721 0.1699 0.0
O152 O 0.73859 0.1711 0.13602 0.0
O153 O 0.74823 0.1734 0.1569 0.0
O154 O 0.59288 0.94055 0.90022 0.0
Cd155 Cd 0.57235 0.96809 0.89883 0.0
Cd156 Cd 0.55498 0.94891 0.92189 0.0
O157 O 0.58109 0.92667 0.91906 0.0
O158 O 0.58709 0.98739 0.8854 0.0
O159 O 0.58316 0.99753 0.90611 0.0
C160 C 0.59064 1.0019 0.8945 0.0
C161 C 0.54661 0.96213 0.94302 0.0
C162 C 0.59414 0.9259 0.90922 0.0
C163 C 0.52468 0.95266 0.89805 0.0
O164 O 0.52763 0.94578 0.90972 0.0
O165 O 0.54022 0.96279 0.89199 0.0
O166 O 0.54263 0.94181 0.93963 0.0
O167 O 0.55618 0.97494 0.93452 0.0
O168 O 0.81211 0.22965 0.84797 0.0
Cd169 Cd 0.80737 0.20208 0.83618 0.0
Cd170 Cd 0.78754 0.18684 0.85938 0.0
O171 O 0.79324 0.21933 0.86555 0.0
O172 O 0.8145 0.21348 0.81822 0.0
O173 O 0.78099 0.20151 0.8238 0.0
C174 C 0.79394 0.21026 0.81507 0.0
C175 C 0.75374 0.16893 0.86425 0.0
C176 C 0.80474 0.2338 0.85941 0.0
C177 C 0.82928 0.16332 0.84961 0.0
O178 O 0.81489 0.16594 0.85865 0.0
O179 O 0.82859 0.1753 0.8393 0.0
O180 O 0.76824 0.17329 0.87323 0.0
O181 O 0.75805 0.17547 0.85244 0.0
O182 O 0.5923 0.06558 0.60944 0.0
Cd183 Cd 0.57123 0.03833 0.60974 0.0
Cd184 Cd 0.55681 0.05872 0.58669 0.0
O185 O 0.58426 0.07908 0.58985 0.0
O186 O 0.58437 0.01853 0.62348 0.0
O187 O 0.58257 0.00897 0.60258 0.0
C188 C 0.58885 0.00428 0.61439 0.0
C189 C 0.54842 0.04521 0.56564 0.0
C190 C 0.5957 0.07974 0.60036 0.0
C191 C 0.52473 0.05641 0.60973 0.0
O192 O 0.52933 0.06427 0.59846 0.0
O193 O 0.53872 0.04412 0.61572 0.0
O194 O 0.54579 0.06591 0.56867 0.0
O195 O 0.55671 0.03214 0.57447 0.0
O196 O 0.69849 0.777 0.35 0.0
Cd197 Cd 0.70153 0.80451 0.33793 0.0
Cd198 Cd 0.72091 0.82156 0.36094 0.0
O199 O 0.71552 0.78946 0.36776 0.0
O200 O 0.69439 0.79238 0.32014 0.0
O201 O 0.72748 0.80596 0.32528 0.0
C202 C 0.71468 0.79647 0.31674 0.0
C203 C 0.75472 0.83984 0.3652 0.0
C204 C 0.70535 0.77398 0.36167 0.0
C205 C 0.67863 0.84347 0.35085 0.0
O206 O 0.6934 0.84209 0.35977 0.0
O207 O 0.67927 0.83056 0.34094 0.0
O208 O 0.74033 0.83619 0.37434 0.0
O209 O 0.75026 0.83241 0.35358 0.0
O210 O 0.91465 0.94116 0.10792 0.0
Cd211 Cd 0.93574 0.9685 0.10839 0.0
Cd212 Cd 0.95024 0.94794 0.08535 0.0
O213 O 0.92275 0.92773 0.08832 0.0
O214 O 0.92262 0.98791 0.12234 0.0
O215 O 0.92418 0.998 0.10153 0.0
C216 C 0.91799 1.00238 0.1134 0.0
C217 C 0.95906 0.9617 0.06442 0.0
C218 C 0.91126 0.92705 0.09881 0.0
C219 C 0.98217 0.9501 0.10838 0.0
O220 O 0.97736 0.94183 0.09725 0.0
O221 O 0.96849 0.96296 0.11421 0.0
O222 O 0.96147 0.94092 0.06735 0.0
O223 O 0.95075 0.9747 0.07328 0.0
O224 O 0.6921 0.6636 0.85732 0.0
Cd225 Cd 0.71882 0.68524 0.85896 0.0
Cd226 Cd 0.69844 0.70234 0.83612 0.0
O227 O 0.67663 0.67603 0.83903 0.0
O228 O 0.73763 0.67125 0.87291 0.0
O229 O 0.74896 0.67485 0.85241 0.0
C230 C 0.75272 0.6677 0.86416 0.0
C231 C 0.71205 0.71083 0.81511 0.0
C232 C 0.67694 0.66245 0.84862 0.0
C233 C 0.70124 0.7324 0.85999 0.0
O234 O 0.69434 0.72935 0.84834 0.0
O235 O 0.71221 0.71723 0.86589 0.0
O236 O 0.69158 0.7145 0.81831 0.0
O237 O 0.72479 0.7015 0.82375 0.0
O238 O 0.59638 0.44093 0.10717 0.0
Cd239 Cd 0.57474 0.46767 0.10872 0.0
Cd240 Cd 0.55775 0.44736 0.08591 0.0
O241 O 0.58399 0.42546 0.08887 0.0
O242 O 0.58893 0.48704 0.12232 0.0
O243 O 0.58478 0.49759 0.10171 0.0
C244 C 0.59219 0.50182 0.11335 0.0
C245 C 0.54941 0.46115 0.06492 0.0
C246 C 0.59755 0.42576 0.09847 0.0
C247 C 0.52753 0.45044 0.1097 0.0
O248 O 0.53065 0.44348 0.09806 0.0
O249 O 0.54274 0.46129 0.11565 0.0
O250 O 0.5457 0.44065 0.06806 0.0
O251 O 0.55873 0.4738 0.07361 0.0
O252 O 0.81437 0.34144 0.3602 0.0
Cd253 Cd 0.78663 0.32104 0.36016 0.0
Cd254 Cd 0.80669 0.30701 0.337 0.0
O255 O 0.82751 0.33404 0.34043 0.0
O256 O 0.76654 0.33445 0.37366 0.0
O257 O 0.75782 0.33288 0.35261 0.0
C258 C 0.75274 0.33918 0.36437 0.0
C259 C 0.79338 0.29911 0.31583 0.0
C260 C 0.82851 0.34496 0.35113 0.0
C261 C 0.80363 0.27426 0.35973 0.0
O262 O 0.81164 0.27911 0.34854 0.0
O263 O 0.79159 0.28827 0.36587 0.0
O264 O 0.814 0.29617 0.31895 0.0
O265 O 0.78031 0.3075 0.32463 0.0
O266 O 0.91561 0.56744 0.60844 0.0
Cd267 Cd 0.93614 0.53993 0.60992 0.0
Cd268 Cd 0.95358 0.55905 0.58684 0.0
O269 O 0.92746 0.58129 0.5896 0.0
O270 O 0.92161 0.52119 0.62369 0.0
O271 O 0.92499 0.51027 0.60308 0.0
C272 C 0.91775 0.50638 0.61481 0.0
C273 C 0.96179 0.54549 0.56576 0.0
C274 C 0.91438 0.58207 0.59943 0.0
C275 C 0.98377 0.55562 0.61072 0.0
O276 O 0.98089 0.5624 0.59902 0.0
O277 O 0.96824 0.54543 0.61675 0.0
O278 O 0.96586 0.56585 0.56904 0.0
O279 O 0.95227 0.53283 0.57436 0.0
O280 O 0.69209 0.34235 0.64862 0.0
Cd281 Cd 0.71954 0.32166 0.64792 0.0
Cd282 Cd 0.69968 0.30569 0.67092 0.0
O283 O 0.6783 0.33246 0.66785 0.0
O284 O 0.73944 0.33576 0.63456 0.0
O285 O 0.74864 0.33277 0.65548 0.0
C286 C 0.75351 0.33977 0.64383 0.0
C287 C 0.71297 0.29752 0.69206 0.0
C288 C 0.67762 0.34469 0.65764 0.0
C289 C 0.70313 0.27444 0.64748 0.0
O290 O 0.6957 0.27813 0.65897 0.0
O291 O 0.7142 0.28935 0.64144 0.0
O292 O 0.6925 0.29403 0.68881 0.0
O293 O 0.7259 0.30651 0.6834 0.0
O294 O 0.91505 0.44218 0.8998 0.0
Cd295 Cd 0.93618 0.46936 0.89904 0.0
Cd296 Cd 0.95162 0.44938 0.92205 0.0
O297 O 0.92469 0.42831 0.91906 0.0
O298 O 0.92245 0.48925 0.88552 0.0
O299 O 0.92538 0.49876 0.90639 0.0
C300 C 0.91853 0.50351 0.8947 0.0
C301 C 0.96002 0.46289 0.94311 0.0
C302 C 0.91251 0.42775 0.90883 0.0
C303 C 0.98296 0.45173 0.89866 0.0
O304 O 0.97896 0.44437 0.91012 0.0
O305 O 0.96848 0.4634 0.89263 0.0
O306 O 0.96313 0.44229 0.93998 0.0
O307 O 0.95131 0.47584 0.93437 0.0
O308 O 0.81698 0.66503 0.15036 0.0
Cd309 Cd 0.7895 0.6858 0.14953 0.0
Cd310 Cd 0.80944 0.70161 0.17259 0.0
O311 O 0.83084 0.67495 0.16957 0.0
O312 O 0.77037 0.67206 0.13566 0.0
O313 O 0.75997 0.67438 0.1564 0.0
C314 C 0.75578 0.66776 0.14458 0.0
C315 C 0.79595 0.70991 0.19366 0.0
C316 C 0.83149 0.66273 0.15936 0.0
C317 C 0.80644 0.73292 0.14922 0.0
O318 O 0.81398 0.72902 0.16065 0.0
O319 O 0.79496 0.71826 0.14323 0.0
O320 O 0.81648 0.71328 0.19049 0.0
O321 O 0.78307 0.70096 0.18495 0.0
O322 O 0.59141 0.56654 0.39929 0.0
Cd323 Cd 0.57058 0.53914 0.39908 0.0
Cd324 Cd 0.5565 0.55926 0.42223 0.0
O325 O 0.58388 0.57969 0.41903 0.0
O326 O 0.58365 0.51948 0.38525 0.0
O327 O 0.58222 0.50983 0.40615 0.0
C328 C 0.58836 0.50523 0.3943 0.0
C329 C 0.54847 0.54562 0.44331 0.0
C330 C 0.59501 0.58057 0.40841 0.0
C331 C 0.52408 0.55704 0.39933 0.0
O332 O 0.52884 0.56486 0.41059 0.0
O333 O 0.53799 0.54477 0.39326 0.0
O334 O 0.54569 0.56632 0.44032 0.0
O335 O 0.55667 0.53262 0.43441 0.0
O336 O 0.3141 0.28006 0.16055 0.0
Cd337 Cd 0.30964 0.30761 0.17241 0.0
Cd338 Cd 0.29052 0.3234 0.14922 0.0
O339 O 0.29598 0.29099 0.14283 0.0
O340 O 0.31638 0.29595 0.19035 0.0
O341 O 0.28315 0.30857 0.18469 0.0
C342 C 0.29586 0.29956 0.19345 0.0
C343 C 0.25665 0.34153 0.14489 0.0
C344 C 0.30702 0.27621 0.14901 0.0
C345 C 0.33235 0.34627 0.15932 0.0
O346 O 0.31804 0.34408 0.15019 0.0
O347 O 0.33136 0.33404 0.16951 0.0
O348 O 0.27094 0.33759 0.13573 0.0
O349 O 0.26124 0.33446 0.15656 0.0
O350 O 0.41377 0.56603 0.90093 0.0
Cd351 Cd 0.43574 0.53935 0.90048 0.0
Cd352 Cd 0.45033 0.56086 0.92305 0.0
O353 O 0.42318 0.58134 0.91987 0.0
O354 O 0.42269 0.51908 0.88693 0.0
O355 O 0.42526 0.50985 0.90786 0.0
C356 C 0.41873 0.50488 0.89613 0.0
C357 C 0.45881 0.54668 0.94392 0.0
C358 C 0.41095 0.58091 0.90968 0.0
C359 C 0.48192 0.55861 0.89997 0.0
O360 O 0.47734 0.5668 0.91115 0.0
O361 O 0.46821 0.54564 0.89425 0.0
O362 O 0.46149 0.56748 0.94111 0.0
O363 O 0.45041 0.53392 0.93496 0.0
O364 O 0.19367 0.72939 0.66036 0.0
Cd365 Cd 0.19905 0.70185 0.67212 0.0
Cd366 Cd 0.21937 0.68737 0.64914 0.0
O367 O 0.21378 0.7199 0.64311 0.0
O368 O 0.19195 0.71285 0.69016 0.0
O369 O 0.22565 0.70179 0.68432 0.0
C370 C 0.21264 0.71011 0.69317 0.0
C371 C 0.25353 0.66967 0.64499 0.0
C372 C 0.20157 0.73396 0.6491 0.0
C373 C 0.17788 0.66304 0.65843 0.0
O374 O 0.19207 0.66638 0.64936 0.0
O375 O 0.17857 0.67449 0.66894 0.0
O376 O 0.23961 0.67398 0.6357 0.0
O377 O 0.24844 0.67618 0.65671 0.0
O378 O 0.09214 0.44023 0.39975 0.0
Cd379 Cd 0.07149 0.46768 0.39874 0.0
Cd380 Cd 0.05508 0.44839 0.42184 0.0
O381 O 0.08154 0.42656 0.41887 0.0
O382 O 0.08578 0.48745 0.38539 0.0
O383 O 0.08233 0.49694 0.40624 0.0
C384 C 0.0895 0.50168 0.39461 0.0
C385 C 0.04721 0.46195 0.44296 0.0
C386 C 0.09407 0.42576 0.4088 0.0
C387 C 0.02409 0.4518 0.39827 0.0
O388 O 0.02743 0.44482 0.40989 0.0
O389 O 0.03932 0.46223 0.39212 0.0
O390 O 0.04332 0.44152 0.43975 0.0
O391 O 0.05639 0.47468 0.43426 0.0
O392 O 0.31051 0.73099 0.35016 0.0
Cd393 Cd 0.30696 0.70361 0.33804 0.0
Cd394 Cd 0.28746 0.68663 0.36107 0.0
O395 O 0.29294 0.7188 0.36779 0.0
O396 O 0.31385 0.7157 0.32021 0.0
O397 O 0.28074 0.70243 0.32558 0.0
C398 C 0.29346 0.71181 0.31695 0.0
C399 C 0.25389 0.66824 0.36584 0.0
C400 C 0.30348 0.73412 0.36178 0.0
C401 C 0.32959 0.66446 0.35088 0.0
O402 O 0.31494 0.66604 0.35986 0.0
O403 O 0.32894 0.6773 0.34094 0.0
O404 O 0.26851 0.67229 0.37479 0.0
O405 O 0.25796 0.67533 0.35411 0.0
O406 O 0.09433 0.56757 0.1083 0.0
Cd407 Cd 0.07347 0.54019 0.10946 0.0
Cd408 Cd 0.05748 0.55944 0.08617 0.0
O409 O 0.08412 0.58094 0.08902 0.0
O410 O 0.08736 0.52115 0.12333 0.0
O411 O 0.08461 0.51052 0.10264 0.0
C412 C 0.09142 0.50643 0.11443 0.0
C413 C 0.04909 0.54587 0.06511 0.0
C414 C 0.09649 0.58184 0.09916 0.0
C415 C 0.02633 0.55703 0.10967 0.0
O416 O 0.0301 0.56407 0.09811 0.0
O417 O 0.04111 0.54594 0.11582 0.0
O418 O 0.04574 0.56642 0.06827 0.0
O419 O 0.05805 0.53301 0.07382 0.0
O420 O 0.19707 0.27786 0.84945 0.0
Cd421 Cd 0.20026 0.3054 0.83743 0.0
Cd422 Cd 0.21936 0.3225 0.86071 0.0
O423 O 0.21375 0.2903 0.86734 0.0
O424 O 0.19309 0.29336 0.81962 0.0
O425 O 0.22624 0.30677 0.82479 0.0
C426 C 0.2134 0.29738 0.81623 0.0
C427 C 0.25294 0.34071 0.86573 0.0
C428 C 0.20373 0.27482 0.86117 0.0
C429 C 0.17731 0.34449 0.85029 0.0
O430 O 0.19192 0.34312 0.8593 0.0
O431 O 0.17807 0.33153 0.8404 0.0
O432 O 0.2381 0.33676 0.87457 0.0
O433 O 0.24905 0.33368 0.85396 0.0
O434 O 0.41578 0.44274 0.60914 0.0
Cd435 Cd 0.43644 0.47018 0.61035 0.0
Cd436 Cd 0.45319 0.45058 0.58724 0.0
O437 O 0.42683 0.42872 0.59018 0.0
O438 O 0.42227 0.48907 0.62418 0.0
O439 O 0.42519 0.49983 0.60353 0.0
C440 C 0.41821 0.50381 0.6153 0.0
C441 C 0.46142 0.46387 0.56611 0.0
C442 C 0.41409 0.42809 0.60016 0.0
C443 C 0.48383 0.45386 0.61094 0.0
O444 O 0.48056 0.44682 0.59933 0.0
O445 O 0.46864 0.46456 0.61698 0.0
O446 O 0.46516 0.44346 0.56942 0.0
O447 O 0.4522 0.47674 0.57471 0.0
H448 H 0.10231 0.39055 0.42544 0.0
H449 H 0.12651 0.3583 0.42139 0.0
H450 H 0.14545 0.38609 0.38398 0.0
H451 H 0.1219 0.41841 0.38803 0.0
H452 H 0.12219 0.32834 0.40203 0.0
H453 H 0.20529 0.36724 0.39767 0.0
H454 H 0.18171 0.38184 0.40459 0.0
H455 H 0.18561 0.3807 0.38707 0.0
C456 C 0.11195 0.38998 0.41646 0.0
C457 C 0.11014 0.40712 0.40708 0.0
C458 C 0.12577 0.37152 0.41416 0.0
C459 C 0.13813 0.36992 0.40248 0.0
C460 C 0.13662 0.3872 0.39323 0.0
H461 H 0.1907 0.27312 0.35152 0.0
H462 H 0.1774 0.30587 0.36345 0.0
C463 C 0.12293 0.40563 0.39553 0.0
C464 C 0.15094 0.34938 0.39929 0.0
H465 H 0.20078 0.33138 0.38689 0.0
C466 C 0.13953 0.32891 0.39902 0.0
C467 C 0.17361 0.35008 0.39539 0.0
C468 C 0.18731 0.37113 0.39633 0.0
C469 C 0.14975 0.30948 0.3942 0.0
C470 C 0.17193 0.31055 0.38957 0.0
C471 C 0.18371 0.3307 0.3904 0.0
C472 C 0.18224 0.29143 0.38267 0.0
C473 C 0.13646 0.28814 0.39343 0.0
C474 C 0.18986 0.27267 0.38959 0.0
C475 C 0.19766 0.2539 0.38279 0.0
C476 C 0.19772 0.25356 0.36897 0.0
C477 C 0.19078 0.27275 0.36215 0.0
C478 C 0.18321 0.29152 0.36894 0.0
H479 H 0.11899 0.29037 0.39682 0.0
H480 H 0.13624 0.2819 0.38317 0.0
H481 H 0.14452 0.27517 0.39959 0.0
H482 H 0.18926 0.27237 0.40021 0.0
H483 H 0.20283 0.23938 0.38834 0.0
H484 H 0.01134 0.96326 0.63529 0.0
H485 H 0.97814 0.94911 0.64668 0.0
H486 H 0.95868 0.91338 0.61181 0.0
H487 H 0.99156 0.92732 0.60036 0.0
H488 H 0.92965 0.95112 0.63881 0.0
H489 H 0.96484 0.86558 0.64209 0.0
H490 H 0.98193 0.88993 0.63922 0.0
H491 H 0.96605 0.87796 0.62603 0.0
C492 C 0.99987 0.95258 0.63 0.0
C493 C 0.00425 0.9463 0.61693 0.0
C494 C 0.98093 0.94453 0.63653 0.0
C495 C 0.96619 0.92998 0.63012 0.0
C496 C 0.97005 0.92437 0.61696 0.0
H497 H 0.83575 0.87804 0.63988 0.0
H498 H 0.86858 0.90069 0.63519 0.0
C499 C 0.98885 0.93244 0.61043 0.0
C500 C 0.94712 0.91986 0.63718 0.0
H501 H 0.9261 0.86945 0.6466 0.0
C502 C 0.92892 0.93331 0.64069 0.0
C503 C 0.94641 0.8967 0.63978 0.0
C504 C 0.96591 0.88167 0.6367 0.0
C505 C 0.90952 0.92396 0.64615 0.0
C506 C 0.90831 0.90058 0.64802 0.0
C507 C 0.92698 0.88735 0.64511 0.0
C508 C 0.8874 0.88918 0.652 0.0
C509 C 0.8904 0.93913 0.64974 0.0
C510 C 0.88701 0.87515 0.66303 0.0
C511 C 0.86822 0.86206 0.66574 0.0
C512 C 0.84959 0.86254 0.65734 0.0
C513 C 0.84978 0.87722 0.64656 0.0
C514 C 0.8685 0.89035 0.64391 0.0
H515 H 0.89623 0.95644 0.65159 0.0
H516 H 0.87836 0.93966 0.64147 0.0
H517 H 0.88151 0.93297 0.65859 0.0
H518 H 0.90149 0.87388 0.66935 0.0
H519 H 0.86868 0.85091 0.67409 0.0
H520 H 0.37211 0.57898 0.89573 0.0
H521 H 0.3486 0.61033 0.88896 0.0
H522 H 0.39122 0.65561 0.91031 0.0
H523 H 0.41387 0.62415 0.91778 0.0
H524 H 0.35031 0.66974 0.91178 0.0
H525 H 0.3676 0.64926 0.85969 0.0
H526 H 0.35303 0.62739 0.86806 0.0
H527 H 0.38093 0.63476 0.87302 0.0
C528 C 0.37619 0.5956 0.89916 0.0
C529 C 0.39493 0.59918 0.90717 0.0
C530 C 0.36288 0.61354 0.89518 0.0
C531 C 0.36857 0.63548 0.89872 0.0
C532 C 0.38655 0.63889 0.90734 0.0
H533 H 0.34546 0.75332 0.85357 0.0
H534 H 0.35821 0.71921 0.86411 0.0
C535 C 0.3995 0.62089 0.91162 0.0
C536 C 0.35678 0.65498 0.89289 0.0
H537 H 0.34313 0.6792 0.86363 0.0
C538 C 0.34872 0.67182 0.90124 0.0
C539 C 0.35495 0.65788 0.87912 0.0
C540 C 0.36478 0.64149 0.86945 0.0
C541 C 0.33935 0.6916 0.89625 0.0
C542 C 0.33716 0.69426 0.88249 0.0
C543 C 0.34466 0.67715 0.87417 0.0
C544 C 0.32894 0.71528 0.87636 0.0
C545 C 0.33292 0.70979 0.90576 0.0
C546 C 0.30812 0.72456 0.87964 0.0
C547 C 0.30096 0.74448 0.87378 0.0
C548 C 0.31421 0.75511 0.86427 0.0
C549 C 0.33476 0.74549 0.8608 0.0
C550 C 0.34209 0.72594 0.86683 0.0
H551 H 0.34124 0.70764 0.91543 0.0
H552 H 0.3373 0.72652 0.90186 0.0
H553 H 0.31464 0.70924 0.90743 0.0
H554 H 0.29734 0.71636 0.88667 0.0
H555 H 0.28496 0.75142 0.87658 0.0
H556 H 0.49682 0.0446 0.13497 0.0
H557 H 0.53034 0.05819 0.14631 0.0
H558 H 0.54972 0.09436 0.11159 0.0
H559 H 0.51658 0.08094 0.10019 0.0
H560 H 0.57941 0.0562 0.13752 0.0
H561 H 0.54352 0.14121 0.14292 0.0
H562 H 0.5265 0.11678 0.14014 0.0
H563 H 0.5415 0.12924 0.12677 0.0
C564 C 0.50835 0.05524 0.1297 0.0
C565 C 0.50388 0.0618 0.11669 0.0
C566 C 0.52746 0.06296 0.13619 0.0
C567 C 0.54229 0.07745 0.12981 0.0
C568 C 0.53832 0.08335 0.11671 0.0
H569 H 0.67244 0.13071 0.13933 0.0
H570 H 0.63976 0.108 0.13432 0.0
C571 C 0.51936 0.07561 0.11021 0.0
C572 C 0.56151 0.08731 0.13685 0.0
H573 H 0.5823 0.13733 0.14715 0.0
C574 C 0.58 0.07387 0.13979 0.0
C575 C 0.56206 0.11029 0.13995 0.0
C576 C 0.54229 0.12526 0.1374 0.0
C577 C 0.59951 0.0831 0.14521 0.0
C578 C 0.6005 0.10635 0.14762 0.0
C579 C 0.58157 0.11953 0.14525 0.0
C580 C 0.62137 0.11773 0.15168 0.0
C581 C 0.61896 0.06798 0.14818 0.0
C582 C 0.62196 0.13075 0.16313 0.0
C583 C 0.64065 0.14385 0.16602 0.0
C584 C 0.659 0.1444 0.15741 0.0
C585 C 0.65863 0.13072 0.14619 0.0
C586 C 0.64 0.11756 0.14334 0.0
H587 H 0.61348 0.05043 0.14956 0.0
H588 H 0.6308 0.06837 0.13981 0.0
H589 H 0.62798 0.07353 0.15712 0.0
H590 H 0.60768 0.13124 0.16964 0.0
H591 H 0.64033 0.15421 0.17473 0.0
H592 H 0.21046 0.76393 0.12392 0.0
H593 H 0.19688 0.73091 0.11207 0.0
H594 H 0.1629 0.7086 0.14694 0.0
H595 H 0.17631 0.74122 0.15884 0.0
H596 H 0.20019 0.68133 0.11969 0.0
H597 H 0.11433 0.71582 0.11665 0.0
H598 H 0.13856 0.73315 0.11935 0.0
H599 H 0.12706 0.71713 0.13261 0.0
C600 C 0.20031 0.75187 0.12911 0.0
C601 C 0.19435 0.75535 0.14232 0.0
C602 C 0.19258 0.73304 0.12232 0.0
C603 C 0.17869 0.71753 0.12861 0.0
C604 C 0.17342 0.72053 0.14189 0.0
H605 H 0.12786 0.58691 0.1184 0.0
H606 H 0.15022 0.61993 0.12314 0.0
C607 C 0.18116 0.7392 0.14868 0.0
C608 C 0.16882 0.69856 0.12133 0.0
H609 H 0.11861 0.67725 0.11179 0.0
C610 C 0.18241 0.6805 0.11777 0.0
C611 C 0.14569 0.6977 0.11871 0.0
C612 C 0.13051 0.71704 0.12191 0.0
C613 C 0.17322 0.66107 0.11223 0.0
C614 C 0.14987 0.65969 0.11034 0.0
C615 C 0.13649 0.67825 0.11329 0.0
C616 C 0.13863 0.6387 0.10634 0.0
C617 C 0.18853 0.64207 0.10861 0.0
C618 C 0.12464 0.63821 0.09528 0.0
C619 C 0.11172 0.61931 0.09254 0.0
C620 C 0.11233 0.60066 0.10093 0.0
C621 C 0.12695 0.60096 0.11173 0.0
C622 C 0.13992 0.61979 0.11441 0.0
H623 H 0.20579 0.64805 0.10679 0.0
H624 H 0.18914 0.62998 0.11685 0.0
H625 H 0.18246 0.63319 0.09974 0.0
H626 H 0.12327 0.6527 0.08898 0.0
H627 H 0.10061 0.61969 0.08417 0.0
H628 H 0.51712 0.92608 0.40958 0.0
H629 H 0.55036 0.9119 0.39862 0.0
H630 H 0.53125 0.94572 0.36302 0.0
H631 H 0.49778 0.96018 0.37395 0.0
H632 H 0.54889 0.88451 0.37561 0.0
H633 H 0.59846 0.96208 0.36831 0.0
H634 H 0.57625 0.96022 0.38024 0.0
H635 H 0.56976 0.96257 0.36311 0.0
C636 C 0.52003 0.93079 0.39947 0.0
C637 C 0.50469 0.94425 0.39265 0.0
C638 C 0.53906 0.92262 0.39321 0.0
C639 C 0.5433 0.92782 0.38003 0.0
C640 C 0.52841 0.94173 0.37325 0.0
H641 H 0.64046 0.84706 0.33605 0.0
H642 H 0.60723 0.86931 0.34108 0.0
C643 C 0.50927 0.94992 0.37951 0.0
C644 C 0.56264 0.91744 0.37333 0.0
H645 H 0.6141 0.92848 0.36049 0.0
C646 C 0.56307 0.89412 0.37217 0.0
C647 C 0.5811 0.93006 0.36893 0.0
C648 C 0.5816 0.95512 0.37024 0.0
C649 C 0.58169 0.88298 0.36702 0.0
C650 C 0.6003 0.89555 0.36275 0.0
C651 C 0.59971 0.91893 0.36366 0.0
C652 C 0.62122 0.88448 0.35851 0.0
C653 C 0.5817 0.85779 0.36674 0.0
C654 C 0.64038 0.88637 0.36631 0.0
C655 C 0.65936 0.87376 0.36347 0.0
C656 C 0.65961 0.85903 0.35271 0.0
C657 C 0.6408 0.85813 0.34445 0.0
C658 C 0.62177 0.87076 0.34734 0.0
H659 H 0.5678 0.85061 0.37259 0.0
H660 H 0.57983 0.85201 0.35645 0.0
H661 H 0.5977 0.85113 0.37058 0.0
H662 H 0.64033 0.89691 0.37496 0.0
H663 H 0.67358 0.87503 0.36998 0.0
H664 H 0.32995 0.26832 0.65955 0.0
H665 H 0.34407 0.30139 0.6484 0.0
H666 H 0.31236 0.28037 0.6125 0.0
H667 H 0.29797 0.24703 0.62362 0.0
H668 H 0.3726 0.29909 0.62569 0.0
H669 H 0.29497 0.34782 0.61677 0.0
H670 H 0.29661 0.32625 0.62911 0.0
H671 H 0.29493 0.31885 0.61209 0.0
C672 C 0.32568 0.27077 0.64933 0.0
C673 C 0.31286 0.25492 0.64248 0.0
C674 C 0.33381 0.28972 0.64296 0.0
C675 C 0.32921 0.29336 0.62965 0.0
C676 C 0.31588 0.27798 0.62283 0.0
H677 H 0.41049 0.38976 0.5855 0.0
H678 H 0.38812 0.35665 0.5906 0.0
C679 C 0.30773 0.25892 0.6292 0.0
C680 C 0.33968 0.31256 0.62286 0.0
H681 H 0.32876 0.36361 0.6094 0.0
C682 C 0.36303 0.31311 0.62199 0.0
C683 C 0.3271 0.33081 0.61812 0.0
C684 C 0.30201 0.33114 0.61909 0.0
C685 C 0.37421 0.33167 0.61679 0.0
C686 C 0.36168 0.35008 0.61219 0.0
C687 C 0.33829 0.34937 0.61282 0.0
C688 C 0.37278 0.37094 0.60788 0.0
C689 C 0.39939 0.33183 0.61678 0.0
C690 C 0.37086 0.39021 0.6156 0.0
C691 C 0.38356 0.40913 0.61272 0.0
C692 C 0.3984 0.40919 0.60202 0.0
C693 C 0.39932 0.39027 0.59385 0.0
C694 C 0.38662 0.37129 0.59677 0.0
H695 H 0.40648 0.31804 0.62276 0.0
H696 H 0.40551 0.32992 0.60657 0.0
H697 H 0.40581 0.34792 0.62065 0.0
H698 H 0.36023 0.3903 0.6242 0.0
H699 H 0.38228 0.42344 0.61917 0.0
H700 H 0.99081 0.08135 0.90896 0.0
H701 H 0.95739 0.09531 0.89809 0.0
H702 H 0.97539 0.05998 0.8628 0.0
H703 H 0.00906 0.04576 0.87363 0.0
H704 H 0.95866 0.12175 0.87456 0.0
H705 H 0.90806 0.04442 0.86898 0.0
H706 H 0.93049 0.04666 0.88075 0.0
H707 H 0.93666 0.04335 0.86364 0.0
C708 C 0.98762 0.07627 0.89894 0.0
C709 C 1.00271 0.06246 0.89217 0.0
C710 C 0.96848 0.0843 0.89274 0.0
C711 C 0.96388 0.07862 0.87967 0.0
C712 C 0.97851 0.06435 0.87295 0.0
H713 H 0.86697 0.15775 0.83462 0.0
H714 H 0.89989 0.13529 0.84 0.0
C715 C 0.99777 0.05629 0.87915 0.0
C716 C 0.94447 0.08889 0.87298 0.0
H717 H 0.89259 0.0778 0.86074 0.0
C718 C 0.94429 0.11214 0.87141 0.0
C719 C 0.92576 0.07627 0.86896 0.0
C720 C 0.92502 0.05129 0.8707 0.0
C721 C 0.92568 0.12323 0.86619 0.0
C722 C 0.90684 0.11066 0.86228 0.0
C723 C 0.90716 0.08734 0.86363 0.0
C724 C 0.88602 0.12177 0.85791 0.0
C725 C 0.92598 0.14838 0.86541 0.0
C726 C 0.86702 0.12087 0.86591 0.0
C727 C 0.84822 0.13363 0.86288 0.0
C728 C 0.84799 0.14749 0.85173 0.0
C729 C 0.86661 0.14736 0.84331 0.0
C730 C 0.88547 0.1346 0.84639 0.0
H731 H 0.94012 0.15571 0.87098 0.0
H732 H 0.9276 0.15355 0.855 0.0
H733 H 0.91017 0.15545 0.86928 0.0
H734 H 0.86709 0.11102 0.87483 0.0
H735 H 0.83414 0.13318 0.86953 0.0
H736 H 0.88167 0.58686 0.61789 0.0
H737 H 0.85925 0.61992 0.62241 0.0
H738 H 0.88909 0.65356 0.58939 0.0
H739 H 0.91184 0.6205 0.58482 0.0
H740 H 0.89199 0.67745 0.61246 0.0
H741 H 0.80519 0.64877 0.6049 0.0
H742 H 0.82093 0.63037 0.61526 0.0
H743 H 0.82899 0.63394 0.59839 0.0
C744 C 0.88323 0.60112 0.61142 0.0
C745 C 0.89867 0.60103 0.60101 0.0
C746 C 0.87022 0.61997 0.61397 0.0
C747 C 0.87228 0.63913 0.60615 0.0
C748 C 0.88712 0.63888 0.59549 0.0
H749 H 0.79795 0.76311 0.62272 0.0
H750 H 0.81259 0.7302 0.61122 0.0
C751 C 0.9001 0.61996 0.59288 0.0
C752 C 0.86082 0.66005 0.61006 0.0
H753 H 0.80991 0.68164 0.61828 0.0
C754 C 0.87401 0.67848 0.61352 0.0
C755 C 0.83735 0.66147 0.61136 0.0
C756 C 0.82226 0.64265 0.60715 0.0
C757 C 0.86448 0.69784 0.61886 0.0
C758 C 0.84118 0.69871 0.62091 0.0
C759 C 0.82782 0.68079 0.61683 0.0
C760 C 0.83076 0.71762 0.62799 0.0
C761 C 0.87948 0.71707 0.62253 0.0
C762 C 0.83564 0.72101 0.64129 0.0
C763 C 0.8273 0.73964 0.64788 0.0
C764 C 0.81387 0.75533 0.6413 0.0
C765 C 0.80828 0.75141 0.62807 0.0
C766 C 0.81662 0.73264 0.62148 0.0
H767 H 0.89585 0.71608 0.61745 0.0
H768 H 0.87151 0.73328 0.62009 0.0
H769 H 0.88258 0.71671 0.63326 0.0
H770 H 0.84629 0.70942 0.64652 0.0
H771 H 0.83186 0.74199 0.65807 0.0
H772 H 0.13313 0.17133 0.34255 0.0
H773 H 0.10117 0.1487 0.34934 0.0
H774 H 0.1459 0.09904 0.36507 0.0
H775 H 0.17784 0.12225 0.359 0.0
H776 H 0.08447 0.10861 0.34536 0.0
H777 H 0.11175 0.11424 0.39726 0.0
H778 H 0.12528 0.12963 0.38435 0.0
H779 H 0.13183 0.10063 0.38699 0.0
C780 C 0.13613 0.15542 0.34728 0.0
C781 C 0.15793 0.14869 0.35043 0.0
C782 C 0.11785 0.1425 0.35118 0.0
C783 C 0.12107 0.12247 0.35811 0.0
C784 C 0.14293 0.11481 0.36019 0.0
H785 H 0.00464 0.03919 0.37945 0.0
H786 H 0.03892 0.05232 0.3688 0.0
C787 C 0.16118 0.12798 0.35661 0.0
C788 C 0.10164 0.11054 0.36389 0.0
H789 H 0.08019 0.09208 0.39297 0.0
C790 C 0.08353 0.10495 0.35577 0.0
C791 C 0.10024 0.10605 0.37752 0.0
C792 C 0.11819 0.11314 0.38706 0.0
C793 C 0.06398 0.09536 0.36092 0.0
C794 C 0.0628 0.09049 0.37451 0.0
C795 C 0.08112 0.09563 0.38255 0.0
C796 C 0.04221 0.08186 0.38091 0.0
C797 C 0.04448 0.09148 0.35184 0.0
C798 C 0.03307 0.09356 0.39157 0.0
C799 C 0.01394 0.08579 0.39786 0.0
C800 C 1.00325 0.06623 0.39357 0.0
C801 C 0.01241 0.0544 0.38293 0.0
C802 C 0.03189 0.06201 0.37676 0.0
H803 H 0.04593 0.10146 0.34269 0.0
H804 H 0.04395 0.0736 0.34902 0.0
H805 H 0.02847 0.09578 0.35669 0.0
H806 H 0.04067 0.10891 0.39498 0.0
H807 H 0.00729 0.09542 0.40596 0.0
H808 H 0.63851 0.42762 0.11002 0.0
H809 H 0.66278 0.39629 0.11574 0.0
H810 H 0.61578 0.35072 0.09806 0.0
H811 H 0.59232 0.38213 0.09158 0.0
H812 H 0.65494 0.36627 0.13206 0.0
H813 H 0.67064 0.32202 0.08562 0.0
H814 H 0.65848 0.34954 0.08598 0.0
H815 H 0.6412 0.32509 0.08788 0.0
C816 C 0.63371 0.41094 0.10704 0.0
C817 C 0.6136 0.4073 0.10031 0.0
C818 C 0.64756 0.39301 0.11034 0.0
C819 C 0.64135 0.371 0.10723 0.0
C820 C 0.62145 0.36746 0.10022 0.0
H821 H 0.66572 0.25793 0.15575 0.0
H822 H 0.65397 0.29222 0.14505 0.0
C823 C 0.60791 0.38546 0.09659 0.0
C824 C 0.65421 0.35179 0.11267 0.0
H825 H 0.67355 0.29956 0.10544 0.0
C826 C 0.65936 0.3519 0.12613 0.0
C827 C 0.6605 0.33307 0.105 0.0
C828 C 0.65763 0.33256 0.0903 0.0
C829 C 0.66955 0.33356 0.13221 0.0
C830 C 0.67385 0.31404 0.1248 0.0
C831 C 0.66983 0.3143 0.11122 0.0
C832 C 0.68124 0.29291 0.13112 0.0
C833 C 0.67559 0.33541 0.14656 0.0
C834 C 0.69997 0.28118 0.12651 0.0
C835 C 0.7065 0.26111 0.13247 0.0
C836 C 0.69447 0.25253 0.14319 0.0
C837 C 0.67563 0.26424 0.14768 0.0
C838 C 0.66895 0.284 0.14161 0.0
H839 H 0.6792 0.35299 0.1493 0.0
H840 H 0.66127 0.32977 0.1526 0.0
H841 H 0.69037 0.32506 0.14902 0.0
H842 H 0.70961 0.28759 0.11835 0.0
H843 H 0.72102 0.25242 0.12874 0.0
H844 H 0.48594 0.93781 0.90909 0.0
H845 H 0.45202 0.9257 0.89786 0.0
H846 H 0.48106 0.94319 0.86057 0.0
H847 H 0.51519 0.95553 0.87173 0.0
H848 H 0.42326 0.95121 0.87781 0.0
H849 H 0.46435 0.87353 0.85982 0.0
H850 H 0.47497 0.88883 0.87375 0.0
H851 H 0.47838 0.89983 0.85752 0.0
C852 C 0.48509 0.93933 0.89851 0.0
C853 C 0.50336 0.94752 0.8913 0.0
C854 C 0.46566 0.93245 0.89212 0.0
C855 C 0.46415 0.93342 0.87841 0.0
C856 C 0.482 0.94223 0.87118 0.0
H857 H 0.36225 0.86192 0.83312 0.0
H858 H 0.39417 0.88588 0.83829 0.0
C859 C 0.50144 0.94932 0.87757 0.0
C860 C 0.4443 0.924 0.87178 0.0
H861 H 0.426 0.87728 0.85596 0.0
C862 C 0.42384 0.93518 0.87288 0.0
C863 C 0.44522 0.90318 0.86529 0.0
C864 C 0.46683 0.89047 0.86401 0.0
C865 C 0.40409 0.9258 0.86791 0.0
C866 C 0.40478 0.90439 0.86202 0.0
C867 C 0.42544 0.89366 0.86047 0.0
C868 C 0.38421 0.892 0.85838 0.0
C869 C 0.3827 0.93891 0.86906 0.0
C870 C 0.36791 0.88755 0.86792 0.0
C871 C 0.34962 0.874 0.86498 0.0
C872 C 0.34735 0.86429 0.85248 0.0
C873 C 0.36344 0.86914 0.84284 0.0
C874 C 0.38172 0.88282 0.84578 0.0
H875 H 0.38603 0.95715 0.86927 0.0
H876 H 0.37119 0.93524 0.8608 0.0
H877 H 0.37427 0.93445 0.87839 0.0
H878 H 0.36972 0.89389 0.87781 0.0
H879 H 0.33766 0.87055 0.87269 0.0
H880 H 0.90733 0.38984 0.92367 0.0
H881 H 0.88475 0.35699 0.91832 0.0
H882 H 0.85945 0.39037 0.88393 0.0
H883 H 0.88176 0.42326 0.8892 0.0
H884 H 0.82668 0.36432 0.89842 0.0
H885 H 0.90447 0.31764 0.88663 0.0
H886 H 0.90288 0.32992 0.90271 0.0
H887 H 0.90403 0.34758 0.8885 0.0
C888 C 0.89668 0.39035 0.91509 0.0
C889 C 0.89658 0.40911 0.90678 0.0
C890 C 0.88385 0.37153 0.91203 0.0
C891 C 0.87069 0.37117 0.90064 0.0
C892 C 0.86955 0.3903 0.89276 0.0
H893 H 0.82882 0.26809 0.84893 0.0
H894 H 0.84277 0.30127 0.86005 0.0
C895 C 0.8824 0.40907 0.89577 0.0
C896 C 0.85955 0.35038 0.89624 0.0
H897 H 0.87052 0.29902 0.88325 0.0
C898 C 0.83619 0.34991 0.89524 0.0
C899 C 0.87209 0.33175 0.89196 0.0
C900 C 0.89726 0.33165 0.89238 0.0
C901 C 0.82505 0.33135 0.8899 0.0
C902 C 0.83764 0.31289 0.88547 0.0
C903 C 0.86094 0.31321 0.8867 0.0
C904 C 0.82726 0.29364 0.87867 0.0
C905 C 0.80001 0.33191 0.88854 0.0
C906 C 0.81364 0.27846 0.88543 0.0
C907 C 0.80558 0.25933 0.87908 0.0
C908 C 0.81111 0.25507 0.86588 0.0
C909 C 0.82424 0.27074 0.85909 0.0
C910 C 0.83227 0.28975 0.86544 0.0
H911 H 0.79303 0.34868 0.89071 0.0
H912 H 0.79501 0.32696 0.87846 0.0
H913 H 0.79252 0.31974 0.89547 0.0
H914 H 0.80979 0.28106 0.8957 0.0
H915 H 0.79559 0.24759 0.88462 0.0
H916 H 0.33526 0.13244 0.6395 0.0
H917 H 0.36794 0.10978 0.63447 0.0
H918 H 0.40113 0.13513 0.66892 0.0
H919 H 0.36847 0.15812 0.67401 0.0
H920 H 0.4258 0.14006 0.64627 0.0
H921 H 0.39502 0.05323 0.65018 0.0
H922 H 0.37737 0.07053 0.64023 0.0
H923 H 0.3805 0.07661 0.65742 0.0
C924 C 0.34932 0.13294 0.64616 0.0
C925 C 0.34925 0.14721 0.65713 0.0
C926 C 0.36796 0.1198 0.64332 0.0
C927 C 0.38689 0.12055 0.6514 0.0
C928 C 0.38662 0.13418 0.66261 0.0
H929 H 0.50961 0.04492 0.63431 0.0
H930 H 0.47638 0.05925 0.64558 0.0
C931 C 0.36792 0.14729 0.6655 0.0
C932 C 0.40768 0.10907 0.64728 0.0
H933 H 0.42856 0.05863 0.63755 0.0
C934 C 0.4265 0.1222 0.64457 0.0
C935 C 0.40866 0.08575 0.64514 0.0
C936 C 0.38937 0.07066 0.64852 0.0
C937 C 0.44588 0.11282 0.63918 0.0
C938 C 0.44638 0.08974 0.63631 0.0
C939 C 0.42801 0.07638 0.63962 0.0
C940 C 0.46547 0.0796 0.62927 0.0
C941 C 0.46558 0.12775 0.63638 0.0
C942 C 0.46992 0.08582 0.61627 0.0
C943 C 0.48875 0.07766 0.60981 0.0
C944 C 0.50358 0.06307 0.61622 0.0
C945 C 0.49859 0.05617 0.6291 0.0
C946 C 0.47963 0.06433 0.63556 0.0
H947 H 0.46469 0.14358 0.64204 0.0
H948 H 0.4815 0.11918 0.63878 0.0
H949 H 0.46579 0.13199 0.62578 0.0
H950 H 0.45899 0.09735 0.6112 0.0
H951 H 0.49194 0.08325 0.59988 0.0
H952 H 0.70552 0.76534 0.38811 0.0
H953 H 0.69228 0.73144 0.39914 0.0
H954 H 0.6795 0.70095 0.36157 0.0
H955 H 0.69244 0.73469 0.35048 0.0
H956 H 0.64677 0.71329 0.39427 0.0
H957 H 0.71448 0.65274 0.38365 0.0
H958 H 0.71883 0.6826 0.3836 0.0
H959 H 0.70544 0.66927 0.36991 0.0
C960 C 0.70026 0.75128 0.38219 0.0
C961 C 0.69999 0.75273 0.36841 0.0
C962 C 0.69267 0.73196 0.38852 0.0
C963 C 0.68511 0.71367 0.38116 0.0
C964 C 0.68555 0.7148 0.36742 0.0
H965 H 0.61734 0.59019 0.38577 0.0
H966 H 0.64076 0.62243 0.38114 0.0
C967 C 0.69285 0.73414 0.3611 0.0
C968 C 0.67492 0.69409 0.38769 0.0
H969 H 0.6798 0.63762 0.39083 0.0
C970 C 0.6541 0.69676 0.39376 0.0
C971 C 0.68455 0.67263 0.38689 0.0
C972 C 0.70715 0.66904 0.38076 0.0
C973 C 0.64202 0.67831 0.39842 0.0
C974 C 0.65136 0.65666 0.3973 0.0
C975 C 0.67264 0.65418 0.3917 0.0
C976 C 0.6385 0.63627 0.40071 0.0
C977 C 0.61884 0.68207 0.40377 0.0
C978 C 0.62985 0.63293 0.41338 0.0
C979 C 0.61616 0.61453 0.41605 0.0
C980 C 0.61115 0.59896 0.40613 0.0
C981 C 0.62075 0.60184 0.39364 0.0
C982 C 0.63421 0.62029 0.39097 0.0
H983 H 0.61227 0.69882 0.40114 0.0
H984 H 0.60708 0.66925 0.40003 0.0
H985 H 0.61927 0.68088 0.41463 0.0
H986 H 0.63339 0.64474 0.42115 0.0
H987 H 0.60921 0.61272 0.4258 0.0
H988 H 0.17791 0.88716 0.14872 0.0
H989 H 0.14671 0.9114 0.14275 0.0
H990 H 0.10086 0.86471 0.16044 0.0
H991 H 0.13214 0.84127 0.16715 0.0
H992 H 0.11681 0.90333 0.12633 0.0
H993 H 0.07224 0.91989 0.17256 0.0
H994 H 0.09973 0.90766 0.17234 0.0
H995 H 0.07526 0.8904 0.17043 0.0
C996 C 0.16119 0.88243 0.15165 0.0
C997 C 0.15744 0.8624 0.15845 0.0
C998 C 0.14334 0.89626 0.1482 0.0
C999 C 0.1213 0.89013 0.15124 0.0
C1000 C 0.11763 0.87032 0.15833 0.0
H1001 H 0.00865 0.91473 0.1023 0.0
H1002 H 0.0428 0.90279 0.11308 0.0
C1003 C 0.13555 0.85679 0.16209 0.0
C1004 C 0.10218 0.90296 0.14568 0.0
H1005 H 0.05003 0.92273 0.15265 0.0
C1006 C 0.10242 0.90791 0.1322 0.0
C1007 C 0.08344 0.90946 0.15325 0.0
C1008 C 0.08279 0.90679 0.16797 0.0
C1009 C 0.0842 0.91813 0.126 0.0
C1010 C 0.06467 0.92267 0.13334 0.0
C1011 C 0.06479 0.91883 0.14694 0.0
C1012 C 0.04366 0.93019 0.12693 0.0
C1013 C 0.0862 0.92395 0.11164 0.0
C1014 C 0.03207 0.94909 0.13146 0.0
C1015 C 0.01209 0.95572 0.12546 0.0
C1016 C 1.00345 0.94365 0.11476 0.0
C1017 C 0.01502 0.92468 0.11035 0.0
C1018 C 0.0347 0.91788 0.11647 0.0
H1019 H 0.10382 0.92736 0.10892 0.0
H1020 H 0.08048 0.90958 0.10564 0.0
H1021 H 0.076 0.93878 0.10907 0.0
H1022 H 0.03853 0.95875 0.13961 0.0
H1023 H 1.0035 0.97035 0.12913 0.0
H1024 H 0.70993 0.74436 0.88561 0.0
H1025 H 0.69554 0.77709 0.8974 0.0
H1026 H 0.66341 0.79992 0.86204 0.0
H1027 H 0.67764 0.76759 0.85019 0.0
H1028 H 0.69896 0.82669 0.89039 0.0
H1029 H 0.61309 0.79195 0.89111 0.0
H1030 H 0.63753 0.77477 0.88873 0.0
H1031 H 0.62676 0.79117 0.8754 0.0
C1032 C 0.70003 0.75649 0.8803 0.0
C1033 C 0.69481 0.75321 0.86696 0.0
C1034 C 0.69183 0.77515 0.88706 0.0
C1035 C 0.6782 0.7907 0.88061 0.0
C1036 C 0.67371 0.78794 0.86721 0.0
H1037 H 0.62678 0.92109 0.89071 0.0
H1038 H 0.64932 0.88811 0.88623 0.0
C1039 C 0.68192 0.76943 0.86046 0.0
C1040 C 0.66778 0.80946 0.88782 0.0
H1041 H 0.61688 0.83047 0.8963 0.0
C1042 C 0.68107 0.82744 0.89188 0.0
C1043 C 0.64448 0.81022 0.88989 0.0
C1044 C 0.62958 0.79094 0.88617 0.0
C1045 C 0.67145 0.84672 0.89735 0.0
C1046 C 0.64797 0.84803 0.89867 0.0
C1047 C 0.63486 0.82952 0.89524 0.0
C1048 C 0.63641 0.86893 0.90254 0.0
C1049 C 0.68645 0.86563 0.90152 0.0
C1050 C 0.62158 0.86917 0.91321 0.0
C1051 C 0.60854 0.88806 0.91579 0.0
C1052 C 0.60988 0.90696 0.90762 0.0
C1053 C 0.62529 0.90687 0.8972 0.0
C1054 C 0.63836 0.88805 0.89468 0.0
H1055 H 0.70356 0.8596 0.90378 0.0
H1056 H 0.68772 0.87788 0.89339 0.0
H1057 H 0.6797 0.87434 0.91028 0.0
H1058 H 0.61969 0.85453 0.91934 0.0
H1059 H 0.59681 0.88752 0.92387 0.0
H1060 H 0.49199 0.42778 0.09962 0.0
H1061 H 0.45902 0.41448 0.11117 0.0
H1062 H 0.48213 0.4455 0.14683 0.0
H1063 H 0.51548 0.45902 0.13531 0.0
H1064 H 0.46214 0.38593 0.13459 0.0
H1065 H 0.41425 0.4645 0.14242 0.0
H1066 H 0.43494 0.46188 0.12963 0.0
H1067 H 0.44353 0.46428 0.14641 0.0
C1068 C 0.49006 0.43206 0.10988 0.0
C1069 C 0.5065 0.44443 0.11654 0.0
C1070 C 0.47116 0.4244 0.11646 0.0
C1071 C 0.46813 0.42905 0.12982 0.0
C1072 C 0.48409 0.44192 0.13647 0.0
H1073 H 0.36997 0.35073 0.17449 0.0
H1074 H 0.40333 0.37275 0.16945 0.0
C1075 C 0.50314 0.44959 0.12988 0.0
C1076 C 0.44889 0.41907 0.1368 0.0
H1077 H 0.3976 0.43102 0.1496 0.0
C1078 C 0.44814 0.39577 0.13805 0.0
C1079 C 0.43067 0.43202 0.1412 0.0
C1080 C 0.43065 0.45707 0.13984 0.0
C1081 C 0.42937 0.38497 0.14325 0.0
C1082 C 0.41093 0.39786 0.14745 0.0
C1083 C 0.41186 0.42123 0.14648 0.0
C1084 C 0.38984 0.38711 0.15167 0.0
C1085 C 0.42899 0.35979 0.14367 0.0
C1086 C 0.37094 0.3886 0.14362 0.0
C1087 C 0.35189 0.37607 0.14645 0.0
C1088 C 0.35132 0.36186 0.15744 0.0
C1089 C 0.36986 0.36141 0.16592 0.0
C1090 C 0.38897 0.37392 0.16304 0.0
H1091 H 0.44299 0.35231 0.13805 0.0
H1092 H 0.43034 0.35415 0.15401 0.0
H1093 H 0.41304 0.35333 0.13964 0.0
H1094 H 0.37127 0.39872 0.13481 0.0
H1095 H 0.33788 0.37697 0.13975 0.0
H1096 H 0.88217 0.08478 0.38867 0.0
H1097 H 0.85949 0.11728 0.38309 0.0
H1098 H 0.88001 0.14968 0.41888 0.0
H1099 H 0.90294 0.11725 0.42455 0.0
H1100 H 0.82446 0.14199 0.39685 0.0
H1101 H 0.90227 0.1907 0.38845 0.0
H1102 H 0.90228 0.16068 0.38983 0.0
H1103 H 0.89937 0.17764 0.40425 0.0
C1104 C 0.88165 0.09866 0.39547 0.0
C1105 C 0.89463 0.0985 0.40698 0.0
C1106 C 0.86859 0.11719 0.39228 0.0
C1107 C 0.86832 0.13596 0.40049 0.0
C1108 C 0.88021 0.13542 0.41235 0.0
H1109 H 0.79259 0.2589 0.38434 0.0
H1110 H 0.80636 0.22501 0.39515 0.0
C1111 C 0.89325 0.11683 0.41559 0.0
C1112 C 0.85719 0.15667 0.396 0.0
H1113 H 0.86831 0.20884 0.38425 0.0
C1114 C 0.83396 0.15673 0.39422 0.0
C1115 C 0.86973 0.17573 0.39244 0.0
C1116 C 0.89481 0.1763 0.39372 0.0
C1117 C 0.82296 0.17533 0.38882 0.0
C1118 C 0.83557 0.19425 0.38515 0.0
C1119 C 0.85872 0.1943 0.38713 0.0
C1120 C 0.82545 0.21367 0.37842 0.0
C1121 C 0.79811 0.17439 0.38664 0.0
C1122 C 0.83152 0.21841 0.36543 0.0
C1123 C 0.82374 0.23766 0.35924 0.0
C1124 C 0.80982 0.25274 0.36595 0.0
C1125 C 0.80324 0.24763 0.37887 0.0
C1126 C 0.81103 0.22826 0.38506 0.0
H1127 H 0.79127 0.15738 0.38828 0.0
H1128 H 0.78973 0.18604 0.39352 0.0
H1129 H 0.79396 0.17976 0.3765 0.0
H1130 H 0.84266 0.20735 0.36015 0.0
H1131 H 0.82914 0.24098 0.34929 0.0
H1132 H 0.14364 0.65173 0.67511 0.0
H1133 H 0.11167 0.62757 0.67034 0.0
H1134 H 0.13819 0.6144 0.63177 0.0
H1135 H 0.17028 0.6379 0.63652 0.0
H1136 H 0.0809 0.63417 0.65174 0.0
H1137 H 0.12071 0.55255 0.64265 0.0
H1138 H 0.13532 0.57531 0.65047 0.0
H1139 H 0.1333 0.57392 0.63284 0.0
C1140 C 0.14287 0.64334 0.66571 0.0
C1141 C 0.15958 0.64677 0.65621 0.0
C1142 C 0.12457 0.62955 0.66299 0.0
C1143 C 0.12267 0.61885 0.65077 0.0
C1144 C 0.13954 0.62193 0.6414 0.0
H1145 H 0.02253 0.57082 0.59986 0.0
H1146 H 0.05602 0.58366 0.61127 0.0
C1147 C 0.15784 0.63558 0.64412 0.0
C1148 C 0.10218 0.60622 0.64726 0.0
H1149 H 0.08416 0.55785 0.63295 0.0
C1150 C 0.08156 0.6173 0.64791 0.0
C1151 C 0.10298 0.58416 0.64227 0.0
C1152 C 0.12426 0.57073 0.64215 0.0
C1153 C 0.062 0.60742 0.64304 0.0
C1154 C 0.0631 0.58592 0.63739 0.0
C1155 C 0.08346 0.57442 0.63722 0.0
C1156 C 0.0436 0.57603 0.63066 0.0
C1157 C 0.04044 0.62038 0.64336 0.0
C1158 C 0.02575 0.56704 0.63782 0.0
C1159 C 0.00658 0.55953 0.63133 0.0
C1160 C 0.00491 0.56109 0.61757 0.0
C1161 C 0.02319 0.56946 0.61045 0.0
C1162 C 0.04237 0.57677 0.61694 0.0
H1163 H 0.04264 0.63744 0.64741 0.0
H1164 H 0.03343 0.62171 0.63329 0.0
H1165 H 0.02807 0.61135 0.64948 0.0
H1166 H 0.02647 0.56633 0.64844 0.0
H1167 H 0.99279 0.55322 0.63711 0.0
H1168 H 0.60717 0.11391 0.58366 0.0
H1169 H 0.63133 0.14588 0.58844 0.0
H1170 H 0.64429 0.11941 0.62705 0.0
H1171 H 0.62078 0.08733 0.62229 0.0
H1172 H 0.62456 0.17666 0.60703 0.0
H1173 H 0.70617 0.13694 0.61628 0.0
H1174 H 0.68348 0.12229 0.60843 0.0
H1175 H 0.68476 0.12437 0.62606 0.0
C1176 C 0.61551 0.11468 0.59307 0.0
C1177 C 0.61201 0.09801 0.60258 0.0
C1178 C 0.6293 0.13298 0.5958 0.0
C1179 C 0.63994 0.1349 0.60803 0.0
C1180 C 0.63681 0.11805 0.61741 0.0
H1181 H 0.68514 0.23703 0.65853 0.0
H1182 H 0.67228 0.20331 0.64736 0.0
C1183 C 0.62316 0.09975 0.61469 0.0
C1184 C 0.65252 0.15542 0.61156 0.0
H1185 H 0.70082 0.17358 0.62588 0.0
C1186 C 0.64141 0.17603 0.61088 0.0
C1187 C 0.67457 0.15467 0.61657 0.0
C1188 C 0.688 0.13339 0.61675 0.0
C1189 C 0.65127 0.19563 0.61572 0.0
C1190 C 0.67274 0.19457 0.62138 0.0
C1191 C 0.68427 0.17424 0.62159 0.0
C1192 C 0.68255 0.21415 0.62806 0.0
C1193 C 0.63836 0.21722 0.61531 0.0
C1194 C 0.69297 0.23118 0.62089 0.0
C1195 C 0.70048 0.2505 0.62725 0.0
C1196 C 0.69749 0.25312 0.64087 0.0
C1197 C 0.68763 0.23563 0.64803 0.0
C1198 C 0.68031 0.21632 0.64168 0.0
H1199 H 0.62167 0.2152 0.61073 0.0
H1200 H 0.63618 0.22376 0.62543 0.0
H1201 H 0.6479 0.22987 0.60967 0.0
H1202 H 0.6948 0.22973 0.61034 0.0
H1203 H 0.70795 0.26365 0.62143 0.0
H1204 H 0.13913 0.34766 0.83549 0.0
H1205 H 0.10616 0.37053 0.84008 0.0
H1206 H 0.1394 0.39919 0.87361 0.0
H1207 H 0.17237 0.37668 0.86906 0.0
H1208 H 0.08175 0.36722 0.86285 0.0
H1209 H 0.1114 0.454 0.85655 0.0
H1210 H 0.12621 0.43027 0.84993 0.0
H1211 H 0.12938 0.43782 0.86693 0.0
C1212 C 0.13961 0.35917 0.84368 0.0
C1213 C 0.1584 0.36025 0.85193 0.0
C1214 C 0.12074 0.37221 0.84629 0.0
C1215 C 0.1204 0.38677 0.8571 0.0
C1216 C 0.13942 0.38846 0.86506 0.0
H1217 H 0.01675 0.42637 0.90866 0.0
H1218 H 0.04944 0.41205 0.8972 0.0
C1219 C 0.15823 0.3754 0.86249 0.0
C1220 C 0.0995 0.3983 0.86098 0.0
H1221 H 0.07823 0.44915 0.86965 0.0
C1222 C 0.08087 0.38517 0.86412 0.0
C1223 C 0.09828 0.42175 0.86255 0.0
C1224 C 0.11732 0.43681 0.85869 0.0
C1225 C 0.06149 0.39471 0.86941 0.0
C1226 C 0.0608 0.41796 0.87175 0.0
C1227 C 0.07894 0.43128 0.86799 0.0
C1228 C 0.04184 0.42831 0.8788 0.0
C1229 C 0.04203 0.37978 0.87273 0.0
C1230 C 0.02711 0.44284 0.87236 0.0
C1231 C 0.00827 0.45112 0.8789 0.0
C1232 C 1.00398 0.44509 0.89202 0.0
C1233 C 0.01939 0.43128 0.89856 0.0
C1234 C 0.03808 0.423 0.89201 0.0
H1235 H 0.04298 0.36357 0.86746 0.0
H1236 H 0.0421 0.3763 0.88343 0.0
H1237 H 0.02597 0.388 0.87026 0.0
H1238 H 0.02983 0.44722 0.86217 0.0
H1239 H 0.9968 0.46175 0.87357 0.0
H1240 H 0.90467 0.8897 0.08371 0.0
H1241 H 0.88167 0.85717 0.08904 0.0
H1242 H 0.85895 0.88981 0.1243 0.0
H1243 H 0.88169 0.92236 0.11905 0.0
H1244 H 0.88796 0.83206 0.11161 0.0
H1245 H 0.80115 0.86347 0.10943 0.0
H1246 H 0.8242 0.87782 0.10172 0.0
H1247 H 0.81926 0.88087 0.11904 0.0
C1248 C 0.89442 0.89017 0.09246 0.0
C1249 C 0.89512 0.90863 0.10098 0.0
C1250 C 0.8813 0.87154 0.09549 0.0
C1251 C 0.86842 0.87115 0.10699 0.0
C1252 C 0.8684 0.8899 0.11524 0.0
H1253 H 0.83201 0.76678 0.15897 0.0
H1254 H 0.8454 0.79984 0.14745 0.0
C1255 C 0.88157 0.90846 0.11226 0.0
C1256 C 0.85704 0.85035 0.11119 0.0
H1257 H 0.80698 0.82953 0.1216 0.0
C1258 C 0.87019 0.83141 0.11358 0.0
C1259 C 0.83384 0.84946 0.11371 0.0
C1260 C 0.81873 0.86893 0.11072 0.0
C1261 C 0.86097 0.81199 0.11901 0.0
C1262 C 0.83804 0.81154 0.1222 0.0
C1263 C 0.82462 0.83004 0.11924 0.0
C1264 C 0.8282 0.7924 0.12933 0.0
C1265 C 0.87591 0.79219 0.12156 0.0
C1266 C 0.81356 0.7776 0.12304 0.0
C1267 C 0.80585 0.75854 0.1296 0.0
C1268 C 0.81258 0.75411 0.14258 0.0
C1269 C 0.82654 0.76955 0.14897 0.0
C1270 C 0.83427 0.78846 0.14241 0.0
H1271 H 0.89178 0.79332 0.11596 0.0
H1272 H 0.88003 0.79151 0.13217 0.0
H1273 H 0.86735 0.77639 0.11891 0.0
H1274 H 0.80864 0.78045 0.11295 0.0
H1275 H 0.79508 0.74704 0.12439 0.0
H1276 H 0.50894 0.54609 0.37467 0.0
H1277 H 0.47576 0.56074 0.3635 0.0
H1278 H 0.45831 0.59797 0.39821 0.0
H1279 H 0.49124 0.58356 0.40942 0.0
H1280 H 0.42824 0.55988 0.37109 0.0
H1281 H 0.46387 0.64519 0.36813 0.0
H1282 H 0.48074 0.6208 0.37128 0.0
H1283 H 0.46463 0.63312 0.38427 0.0
C1284 C 0.49792 0.55721 0.37997 0.0
C1285 C 0.50289 0.56379 0.39292 0.0
C1286 C 0.47899 0.56556 0.37357 0.0
C1287 C 0.46484 0.5807 0.37997 0.0
C1288 C 0.46925 0.58657 0.39303 0.0
H1289 H 0.33429 0.63259 0.36985 0.0
H1290 H 0.36716 0.61009 0.37463 0.0
C1291 C 0.48806 0.57823 0.39944 0.0
C1292 C 0.44579 0.59106 0.37299 0.0
H1293 H 0.425 0.64168 0.36375 0.0
C1294 C 0.42759 0.57772 0.36933 0.0
C1295 C 0.44517 0.61426 0.37049 0.0
C1296 C 0.46472 0.6292 0.37362 0.0
C1297 C 0.40827 0.58721 0.36383 0.0
C1298 C 0.40714 0.61062 0.36209 0.0
C1299 C 0.42581 0.62375 0.36515 0.0
C1300 C 0.3863 0.62214 0.35808 0.0
C1301 C 0.38919 0.57213 0.36005 0.0
C1302 C 0.38608 0.63648 0.34718 0.0
C1303 C 0.36727 0.64953 0.34444 0.0
C1304 C 0.34842 0.64866 0.35266 0.0
C1305 C 0.34848 0.63371 0.36331 0.0
C1306 C 0.36723 0.62065 0.366 0.0
H1307 H 0.39507 0.55488 0.35803 0.0
H1308 H 0.37712 0.57132 0.36829 0.0
H1309 H 0.38033 0.57852 0.35125 0.0
H1310 H 0.40069 0.63801 0.341 0.0
H1311 H 0.36783 0.66089 0.33618 0.0
H1312 H 0.40786 0.1187 0.08498 0.0
H1313 H 0.38567 0.15186 0.09025 0.0
H1314 H 0.35998 0.11903 0.12471 0.0
H1315 H 0.38189 0.08583 0.11953 0.0
H1316 H 0.3275 0.1454 0.1101 0.0
H1317 H 0.40583 0.19117 0.12189 0.0
H1318 H 0.40413 0.17877 0.10585 0.0
H1319 H 0.40502 0.16122 0.12011 0.0
C1320 C 0.3972 0.11838 0.09356 0.0
C1321 C 0.39687 0.09967 0.10192 0.0
C1322 C 0.3846 0.13738 0.09658 0.0
C1323 C 0.37144 0.13798 0.10796 0.0
C1324 C 0.37007 0.11891 0.11589 0.0
H1325 H 0.33037 0.24147 0.15954 0.0
H1326 H 0.34396 0.20813 0.14842 0.0
C1327 C 0.38269 0.09997 0.11293 0.0
C1328 C 0.36054 0.15893 0.1123 0.0
H1329 H 0.3721 0.21022 0.12522 0.0
C1330 C 0.33718 0.1597 0.11326 0.0
C1331 C 0.37329 0.17742 0.11656 0.0
C1332 C 0.39846 0.17721 0.11617 0.0
C1333 C 0.32626 0.17843 0.11855 0.0
C1334 C 0.33906 0.19676 0.12296 0.0
C1335 C 0.36236 0.19613 0.12177 0.0
C1336 C 0.3289 0.21614 0.12973 0.0
C1337 C 0.30121 0.17823 0.11986 0.0
C1338 C 0.31564 0.2316 0.12293 0.0
C1339 C 0.30781 0.25083 0.12927 0.0
C1340 C 0.31318 0.2549 0.14251 0.0
C1341 C 0.32592 0.23896 0.14935 0.0
C1342 C 0.33375 0.21987 0.14301 0.0
H1343 H 0.29399 0.16159 0.11761 0.0
H1344 H 0.29625 0.1831 0.12997 0.0
H1345 H 0.29391 0.1906 0.11299 0.0
H1346 H 0.31192 0.22912 0.11263 0.0
H1347 H 0.2981 0.26277 0.1237 0.0
H1348 H 0.5065 0.59562 0.90507 0.0
H1349 H 0.54014 0.60835 0.89409 0.0
H1350 H 0.53916 0.54992 0.86933 0.0
H1351 H 0.50453 0.53757 0.87994 0.0
H1352 H 0.57952 0.59144 0.89316 0.0
H1353 H 0.54781 0.59684 0.84209 0.0
H1354 H 0.52964 0.59216 0.85591 0.0
H1355 H 0.54562 0.5695 0.84914 0.0
C1356 C 0.51336 0.58544 0.89727 0.0
C1357 C 0.50282 0.56557 0.89338 0.0
C1358 C 0.53265 0.59277 0.89098 0.0
C1359 C 0.54214 0.58029 0.88074 0.0
C1360 C 0.53189 0.56018 0.87695 0.0
H1361 H 0.67842 0.62151 0.86029 0.0
H1362 H 0.64674 0.59798 0.86645 0.0
C1363 C 0.51221 0.55303 0.8831 0.0
C1364 C 0.56306 0.58842 0.87446 0.0
H1365 H 0.58607 0.60464 0.84529 0.0
C1366 C 0.58094 0.59427 0.88267 0.0
C1367 C 0.5649 0.59229 0.86079 0.0
C1368 C 0.54592 0.58758 0.85147 0.0
C1369 C 0.60019 0.60458 0.87774 0.0
C1370 C 0.60224 0.60815 0.86404 0.0
C1371 C 0.58463 0.60171 0.85576 0.0
C1372 C 0.62173 0.6201 0.85832 0.0
C1373 C 0.6175 0.61262 0.88743 0.0
C1374 C 0.61841 0.63942 0.85074 0.0
C1375 C 0.63656 0.65246 0.8468 0.0
C1376 C 0.65834 0.6466 0.85055 0.0
C1377 C 0.66176 0.62658 0.85743 0.0
C1378 C 0.64365 0.61323 0.86106 0.0
H1379 H 0.61049 0.61433 0.89747 0.0
H1380 H 0.63132 0.60033 0.88792 0.0
H1381 H 0.62448 0.62902 0.88446 0.0
H1382 H 0.60169 0.64502 0.8484 0.0
H1383 H 0.63343 0.66782 0.84151 0.0
H1384 H 0.17493 0.7669 0.65895 0.0
H1385 H 0.1611 0.80001 0.64767 0.0
H1386 H 0.19916 0.78249 0.6133 0.0
H1387 H 0.21322 0.74909 0.62453 0.0
H1388 H 0.20004 0.8304 0.62151 0.0
H1389 H 0.11503 0.79461 0.61666 0.0
H1390 H 0.12654 0.79327 0.63293 0.0
H1391 H 0.13934 0.77767 0.61989 0.0
C1392 C 0.18057 0.77009 0.64904 0.0
C1393 C 0.19507 0.75518 0.64262 0.0
C1394 C 0.17257 0.78902 0.64259 0.0
C1395 C 0.17886 0.79348 0.62961 0.0
C1396 C 0.19404 0.77922 0.62331 0.0
H1397 H 0.10103 0.89115 0.585 0.0
H1398 H 0.12394 0.85841 0.59001 0.0
C1399 C 0.20203 0.76017 0.62975 0.0
C1400 C 0.16887 0.81267 0.62259 0.0
H1401 H 0.11874 0.83353 0.61255 0.0
C1402 C 0.18232 0.83103 0.61939 0.0
C1403 C 0.14583 0.81327 0.61965 0.0
C1404 C 0.13082 0.79359 0.62234 0.0
C1405 C 0.17307 0.85048 0.61391 0.0
C1406 C 0.14978 0.85156 0.6117 0.0
C1407 C 0.13657 0.83275 0.6143 0.0
C1408 C 0.13841 0.87244 0.60762 0.0
C1409 C 0.18824 0.86976 0.61065 0.0
C1410 C 0.13913 0.89129 0.61577 0.0
C1411 C 0.12604 0.90998 0.61297 0.0
C1412 C 0.11183 0.91018 0.60197 0.0
C1413 C 0.1118 0.8916 0.59353 0.0
C1414 C 0.12487 0.87285 0.59638 0.0
H1415 H 0.20566 0.86407 0.60902 0.0
H1416 H 0.18241 0.87876 0.60176 0.0
H1417 H 0.18834 0.88168 0.61898 0.0
H1418 H 0.14909 0.8912 0.62465 0.0
H1419 H 0.1265 0.92397 0.6197 0.0
H1420 H 0.0148 0.45266 0.37192 0.0
H1421 H 0.98064 0.43977 0.36102 0.0
H1422 H 0.95118 0.42558 0.39869 0.0
H1423 H 0.9852 0.43815 0.40965 0.0
H1424 H 0.96218 0.39369 0.36583 0.0
H1425 H 0.9029 0.46229 0.37712 0.0
H1426 H 0.93279 0.46627 0.37677 0.0
H1427 H 0.91991 0.45287 0.39058 0.0
C1428 C 1.00092 0.44713 0.37789 0.0
C1429 C 1.00274 0.44639 0.39166 0.0
C1430 C 0.98146 0.43974 0.37164 0.0
C1431 C 0.96338 0.43191 0.37907 0.0
C1432 C 0.96488 0.43181 0.3928 0.0
H1433 H 0.83839 0.36671 0.37394 0.0
H1434 H 0.87108 0.38934 0.37882 0.0
C1435 C 0.98438 0.43892 0.39904 0.0
C1436 C 0.94357 0.42212 0.37258 0.0
H1437 H 0.88723 0.42819 0.36949 0.0
C1438 C 0.94581 0.40133 0.3664 0.0
C1439 C 0.92232 0.43215 0.37346 0.0
C1440 C 0.91922 0.45472 0.37975 0.0
C1441 C 0.92711 0.3897 0.36167 0.0
C1442 C 0.90567 0.39948 0.36284 0.0
C1443 C 0.90363 0.42071 0.36857 0.0
C1444 C 0.88503 0.38713 0.35928 0.0
C1445 C 0.9304 0.36653 0.35619 0.0
C1446 C 0.88161 0.3788 0.34654 0.0
C1447 C 0.86294 0.36556 0.34373 0.0
C1448 C 0.84719 0.3607 0.35356 0.0
C1449 C 0.85017 0.37001 0.36612 0.0
C1450 C 0.86888 0.38302 0.36894 0.0
H1451 H 0.94697 0.35954 0.35882 0.0
H1452 H 0.9173 0.35498 0.35981 0.0
H1453 H 0.92932 0.36718 0.34532 0.0
H1454 H 0.89355 0.38222 0.33883 0.0
H1455 H 0.86106 0.35883 0.33393 0.0
H1456 H 0.3195 0.77254 0.35089 0.0
H1457 H 0.33259 0.80597 0.36227 0.0
H1458 H 0.31391 0.77713 0.39941 0.0
H1459 H 0.30055 0.74351 0.38811 0.0
H1460 H 0.30651 0.83465 0.38386 0.0
H1461 H 0.38548 0.79234 0.39864 0.0
H1462 H 0.36995 0.78334 0.3844 0.0
H1463 H 0.3592 0.77804 0.4005 0.0
C1464 C 0.3179 0.77335 0.36147 0.0
C1465 C 0.30907 0.75528 0.36859 0.0
C1466 C 0.32535 0.7925 0.36794 0.0
C1467 C 0.32429 0.7939 0.38165 0.0
C1468 C 0.31486 0.77628 0.38881 0.0
H1469 H 0.40114 0.89368 0.42571 0.0
H1470 H 0.37665 0.86185 0.42115 0.0
C1471 C 0.30721 0.75713 0.38232 0.0
C1472 C 0.33432 0.81333 0.38838 0.0
H1473 H 0.3827 0.83074 0.40272 0.0
C1474 C 0.32303 0.83381 0.38815 0.0
C1475 C 0.35577 0.81205 0.39406 0.0
C1476 C 0.36848 0.79033 0.39446 0.0
C1477 C 0.33296 0.85327 0.39316 0.0
C1478 C 0.355 0.85229 0.39815 0.0
C1479 C 0.36585 0.83154 0.39888 0.0
C1480 C 0.36786 0.87269 0.40156 0.0
C1481 C 0.31975 0.8747 0.39296 0.0
C1482 C 0.37103 0.88941 0.3921 0.0
C1483 C 0.38486 0.90762 0.3947 0.0
C1484 C 0.39616 0.90942 0.40676 0.0
C1485 C 0.39267 0.89287 0.41633 0.0
C1486 C 0.37869 0.87465 0.41374 0.0
H1487 H 0.30155 0.87133 0.39353 0.0
H1488 H 0.32449 0.88583 0.40121 0.0
H1489 H 0.32295 0.88357 0.3836 0.0
H1490 H 0.36343 0.88801 0.3825 0.0
H1491 H 0.38722 0.91994 0.38704 0.0
H1492 H 0.0131 0.54818 0.13502 0.0
H1493 H 0.97958 0.56206 0.14618 0.0
H1494 H 0.95834 0.59411 0.11044 0.0
H1495 H 0.99156 0.58047 0.09923 0.0
H1496 H 0.9605 0.62228 0.13354 0.0
H1497 H 0.91214 0.54409 0.14148 0.0
H1498 H 0.94115 0.54409 0.14608 0.0
H1499 H 0.9336 0.54629 0.1291 0.0
C1500 C 1.00113 0.55791 0.12948 0.0
C1501 C 0.0051 0.56326 0.11623 0.0
C1502 C 0.98198 0.56577 0.13587 0.0
C1503 C 0.96648 0.57904 0.12911 0.0
C1504 C 0.9701 0.58388 0.11582 0.0
H1505 H 0.83626 0.63191 0.13978 0.0
H1506 H 0.86939 0.60999 0.1345 0.0
C1507 C 0.98913 0.57603 0.10943 0.0
C1508 C 0.94716 0.58921 0.13593 0.0
H1509 H 0.89602 0.57762 0.14906 0.0
C1510 C 0.94649 0.61253 0.13707 0.0
C1511 C 0.92893 0.57639 0.14045 0.0
C1512 C 0.92875 0.55132 0.1392 0.0
C1513 C 0.92784 0.62346 0.14234 0.0
C1514 C 0.90944 0.61069 0.14672 0.0
C1515 C 0.91025 0.58732 0.14581 0.0
C1516 C 0.88854 0.62158 0.15114 0.0
C1517 C 0.92757 0.64864 0.14268 0.0
C1518 C 0.88808 0.63481 0.1625 0.0
C1519 C 0.86912 0.64741 0.16558 0.0
C1520 C 0.85032 0.64702 0.1573 0.0
C1521 C 0.85047 0.63277 0.14632 0.0
C1522 C 0.86938 0.62014 0.1433 0.0
H1523 H 0.94143 0.656 0.13688 0.0
H1524 H 0.91152 0.65514 0.1388 0.0
H1525 H 0.92926 0.65439 0.15298 0.0
H1526 H 0.90264 0.63593 0.16876 0.0
H1527 H 0.86955 0.65813 0.17413 0.0
H1528 H 0.2037 0.266 0.88759 0.0
H1529 H 0.1906 0.23194 0.89851 0.0
H1530 H 0.17818 0.20167 0.86084 0.0
H1531 H 0.19098 0.23556 0.84985 0.0
H1532 H 0.14525 0.2134 0.89356 0.0
H1533 H 0.21356 0.15359 0.88281 0.0
H1534 H 0.21762 0.18349 0.88284 0.0
H1535 H 0.20438 0.17015 0.86912 0.0
C1536 C 0.19854 0.25195 0.88163 0.0
C1537 C 0.19834 0.25351 0.86784 0.0
C1538 C 0.19102 0.23255 0.88789 0.0
C1539 C 0.18362 0.21426 0.88047 0.0
C1540 C 0.1841 0.2155 0.86673 0.0
H1541 H 0.1171 0.09 0.88488 0.0
H1542 H 0.14016 0.1225 0.88028 0.0
C1543 C 0.19133 0.23494 0.86048 0.0
C1544 C 0.17359 0.19453 0.88693 0.0
H1545 H 0.17904 0.13809 0.88996 0.0
C1546 C 0.15275 0.19695 0.89301 0.0
C1547 C 0.18343 0.17317 0.88609 0.0
C1548 C 0.20607 0.16984 0.87996 0.0
C1549 C 0.14085 0.17834 0.89763 0.0
C1550 C 0.15041 0.1568 0.89647 0.0
C1551 C 0.17171 0.15457 0.89087 0.0
C1552 C 0.13777 0.13625 0.89987 0.0
C1553 C 0.11764 0.18184 0.903 0.0
C1554 C 0.12917 0.13278 0.91253 0.0
C1555 C 0.11568 0.11421 0.91519 0.0
C1556 C 0.11083 0.09862 0.90525 0.0
C1557 C 0.12039 0.10165 0.89277 0.0
C1558 C 0.13365 0.12026 0.89011 0.0
H1559 H 0.11089 0.19853 0.9004 0.0
H1560 H 0.10601 0.16892 0.89924 0.0
H1561 H 0.11809 0.18062 0.91386 0.0
H1562 H 0.13259 0.14459 0.92032 0.0
H1563 H 0.10877 0.11229 0.92494 0.0
H1564 H 0.52146 0.43597 0.6001 0.0
H1565 H 0.55471 0.42251 0.61149 0.0
H1566 H 0.52746 0.44441 0.64843 0.0
H1567 H 0.49398 0.45812 0.63713 0.0
H1568 H 0.58333 0.45119 0.63488 0.0
H1569 H 0.54214 0.36985 0.64582 0.0
H1570 H 0.53507 0.38501 0.63108 0.0
H1571 H 0.52686 0.39577 0.64675 0.0
C1572 C 0.52258 0.43821 0.61063 0.0
C1573 C 0.50497 0.44804 0.61771 0.0
C1574 C 0.54162 0.43054 0.6171 0.0
C1575 C 0.54342 0.43244 0.63076 0.0
C1576 C 0.52631 0.44286 0.63786 0.0
H1577 H 0.64229 0.35345 0.67408 0.0
H1578 H 0.61014 0.37758 0.66969 0.0
C1579 C 0.50723 0.45069 0.63138 0.0
C1580 C 0.56267 0.4222 0.63753 0.0
H1581 H 0.58058 0.37257 0.65006 0.0
C1582 C 0.58273 0.43411 0.63839 0.0
C1583 C 0.56167 0.40003 0.64218 0.0
C1584 C 0.54033 0.38676 0.64148 0.0
C1585 C 0.60213 0.4241 0.64341 0.0
C1586 C 0.6015 0.40143 0.64735 0.0
C1587 C 0.58111 0.3899 0.64703 0.0
C1588 C 0.62202 0.38875 0.65074 0.0
C1589 C 0.62313 0.43786 0.64435 0.0
C1590 C 0.63942 0.38705 0.64159 0.0
C1591 C 0.6578 0.37338 0.64408 0.0
C1592 C 0.65911 0.36083 0.65573 0.0
C1593 C 0.64187 0.36289 0.66503 0.0
C1594 C 0.62347 0.37667 0.66253 0.0
H1595 H 0.61921 0.45587 0.64552 0.0
H1596 H 0.63372 0.43247 0.65271 0.0
H1597 H 0.63285 0.43594 0.63515 0.0
H1598 H 0.63845 0.39569 0.63228 0.0
H1599 H 0.67067 0.37216 0.63666 0.0
H1600 H 0.25294 0.30235 0.20273 0.0
H1601 H 0.2385 0.28789 0.22358 0.0
H1602 H 0.30453 0.26593 0.23424 0.0
H1603 H 0.31904 0.28008 0.21346 0.0
H1604 H 0.27188 0.23312 0.23754 0.0
H1605 H 0.2462 0.31289 0.2608 0.0
H1606 H 0.2351 0.30835 0.24464 0.0
H1607 H 0.26464 0.31182 0.24681 0.0
C1608 C 0.26442 0.29467 0.20958 0.0
C1609 C 0.28716 0.29243 0.20643 0.0
C1610 C 0.25616 0.28648 0.22151 0.0
C1611 C 0.27048 0.27601 0.23053 0.0
C1612 C 0.29319 0.27398 0.22746 0.0
H1613 H 0.25511 0.20955 0.30626 0.0
H1614 H 0.26922 0.22406 0.28537 0.0
C1615 C 0.30146 0.28216 0.21557 0.0
C1616 C 0.26176 0.26634 0.24294 0.0
H1617 H 0.23575 0.27961 0.27173 0.0
C1618 C 0.26405 0.24328 0.24504 0.0
C1619 C 0.25151 0.27962 0.25271 0.0
C1620 C 0.24934 0.30457 0.25123 0.0
C1621 C 0.25605 0.23309 0.25654 0.0
C1622 C 0.24586 0.24638 0.26633 0.0
C1623 C 0.24355 0.26943 0.26422 0.0
C1624 C 0.2373 0.23674 0.2788 0.0
C1625 C 0.25814 0.20811 0.25796 0.0
C1626 C 0.21475 0.23926 0.28215 0.0
C1627 C 0.20668 0.23111 0.2941 0.0
C1628 C 0.22102 0.22032 0.30301 0.0
C1629 C 0.24358 0.2176 0.29958 0.0
C1630 C 0.25166 0.22582 0.28762 0.0
H1631 H 0.26078 0.19983 0.24833 0.0
H1632 H 0.27269 0.20424 0.26429 0.0
H1633 H 0.24302 0.20091 0.26263 0.0
H1634 H 0.20337 0.24766 0.27553 0.0
H1635 H 0.18922 0.23354 0.29641 0.0
H1636 H 0.03058 0.94016 0.54557 0.0
H1637 H 0.01605 0.95424 0.52477 0.0
H1638 H 0.03393 0.02125 0.53604 0.0
H1639 H 0.04884 0.00724 0.55687 0.0
H1640 H 0.98164 0.9843 0.52128 0.0
H1641 H 0.05973 0.01664 0.49909 0.0
H1642 H 0.05971 0.99803 0.51302 0.0
H1643 H 0.05403 0.02725 0.51522 0.0
C1644 C 0.03169 0.95788 0.54359 0.0
C1645 C 0.04096 0.97257 0.55289 0.0
C1646 C 0.0233 0.9659 0.53169 0.0
C1647 C 0.02408 0.98877 0.52877 0.0
C1648 C 0.03353 1.00348 0.53796 0.0
H1649 H 0.97613 0.07 0.46426 0.0
H1650 H 0.99091 0.05572 0.48495 0.0
C1651 C 0.04197 0.99546 0.54989 0.0
C1652 C 0.0141 0.9972 0.51636 0.0
H1653 H 0.02596 0.02556 0.48813 0.0
C1654 C 0.99135 0.99323 0.514 0.0
C1655 C 0.02677 0.00887 0.50687 0.0
C1656 C 0.05146 0.01281 0.50858 0.0
C1657 C 0.98085 1.00095 0.50253 0.0
C1658 C 0.99351 0.01265 0.49306 0.0
C1659 C 0.01626 0.0166 0.49541 0.0
C1660 C 0.98349 0.02116 0.48069 0.0
C1661 C 0.95617 0.99696 0.50079 0.0
C1662 C 0.97432 0.00647 0.47138 0.0
C1663 C 0.96576 0.0146 0.45951 0.0
C1664 C 0.96635 0.03757 0.45669 0.0
C1665 C 0.97534 0.05222 0.4661 0.0
C1666 C 0.98388 0.04409 0.47794 0.0
H1667 H 0.9479 0.99281 0.51024 0.0
H1668 H 0.94789 0.01184 0.4965 0.0
H1669 H 0.95365 0.98272 0.49399 0.0
H1670 H 0.97419 0.98866 0.47319 0.0
H1671 H 0.95911 1.00285 0.45244 0.0
H1672 H 0.25594 0.7103 0.70198 0.0
H1673 H 0.26997 0.72548 0.72273 0.0
H1674 H 0.20284 0.74205 0.73435 0.0
H1675 H 0.18872 0.72724 0.71362 0.0
H1676 H 0.23221 0.77709 0.73765 0.0
H1677 H 0.26655 0.69971 0.75973 0.0
H1678 H 0.27677 0.70558 0.74353 0.0
H1679 H 0.24772 0.69932 0.74591 0.0
C1680 C 0.24414 0.71692 0.70902 0.0
C1681 C 0.2212 0.7175 0.70614 0.0
C1682 C 0.25218 0.72552 0.72091 0.0
C1683 C 0.23743 0.7347 0.73017 0.0
C1684 C 0.21452 0.73502 0.72738 0.0
H1685 H 0.25157 0.80018 0.80637 0.0
H1686 H 0.23734 0.78485 0.78569 0.0
C1687 C 0.20648 0.72647 0.71552 0.0
C1688 C 0.24587 0.7449 0.74253 0.0
H1689 H 0.275 0.73372 0.77059 0.0
C1690 C 0.24148 0.76758 0.74489 0.0
C1691 C 0.25797 0.7325 0.75195 0.0
C1692 C 0.26239 0.70788 0.75025 0.0
C1693 C 0.2492 0.77829 0.7563 0.0
C1694 C 0.26134 0.7659 0.76571 0.0
C1695 C 0.26571 0.74321 0.76335 0.0
C1696 C 0.26986 0.77614 0.77802 0.0
C1697 C 0.24474 0.80289 0.75803 0.0
C1698 C 0.29283 0.77618 0.78065 0.0
C1699 C 0.30099 0.78485 0.79245 0.0
C1700 C 0.28633 0.79357 0.80194 0.0
C1701 C 0.26332 0.79376 0.79924 0.0
C1702 C 0.25517 0.78506 0.7874 0.0
H1703 H 0.24028 0.81105 0.7486 0.0
H1704 H 0.23057 0.80515 0.76491 0.0
H1705 H 0.25951 0.8115 0.76223 0.0
H1706 H 0.30447 0.76934 0.77358 0.0
H1707 H 0.3188 0.78438 0.7942 0.0
H1708 H 0.45762 1.0022 0.05622 0.0
H1709 H 0.47267 0.98807 0.03542 0.0
H1710 H 0.49362 0.05455 0.02498 0.0
H1711 H 0.47888 0.06875 0.0457 0.0
H1712 H 0.46278 1.00024 0.00917 0.0
H1713 H 0.55121 0.01797 0.02148 0.0
H1714 H 0.52937 0.01786 0.03367 0.0
H1715 H 0.53292 0.04155 0.02305 0.0
C1716 C 0.46534 0.01382 0.04947 0.0
C1717 C 0.46716 0.03658 0.05267 0.0
C1718 C 0.47395 0.00572 0.0376 0.0
C1719 C 0.48467 0.02019 0.02877 0.0
C1720 C 0.48588 0.043 0.03177 0.0
H1721 H 0.54922 0.00488 0.95266 0.0
H1722 H 0.5342 0.01891 0.97348 0.0
C1723 C 0.47729 0.0511 0.0436 0.0
C1724 C 0.49455 0.01152 0.0164 0.0
H1725 H 0.54366 0.00678 0.99958 0.0
C1726 C 0.48047 1.00155 0.00709 0.0
C1727 C 0.51765 0.01333 0.01369 0.0
C1728 C 0.53374 0.02307 0.02353 0.0
C1729 C 0.48879 0.99371 0.99505 0.0
C1730 C 0.51189 0.9955 0.99234 0.0
C1731 C 0.52597 0.00547 1.00165 0.0
C1732 C 0.52177 0.98686 0.97996 0.0
C1733 C 0.47266 0.98404 0.9852 0.0
C1734 C 0.52031 0.9641 0.97685 0.0
C1735 C 0.52886 0.95606 0.965 0.0
C1736 C 0.53922 0.97057 0.95601 0.0
C1737 C 0.54133 0.99326 0.95934 0.0
C1738 C 0.53273 1.00131 0.97122 0.0
H1739 H 0.45523 0.98929 0.98722 0.0
H1740 H 0.47711 0.98915 0.97505 0.0
H1741 H 0.47332 0.96555 0.98572 0.0
H1742 H 0.51241 0.95254 0.98357 0.0
H1743 H 0.52707 0.93846 0.96281 0.0
H1744 H 0.31674 0.73162 0.29709 0.0
H1745 H 0.3023 0.74617 0.27638 0.0
H1746 H 0.23645 0.72297 0.2865 0.0
H1747 H 0.25072 0.70858 0.30741 0.0
H1748 H 0.28072 0.72494 0.25567 0.0
H1749 H 0.22616 0.78911 0.27838 0.0
H1750 H 0.24747 0.77454 0.2875 0.0
H1751 H 0.2213 0.76115 0.28404 0.0
C1752 C 0.29918 0.72951 0.29492 0.0
C1753 C 0.28485 0.71904 0.30397 0.0
C1754 C 0.29096 0.73785 0.28306 0.0
C1755 C 0.26823 0.73603 0.27998 0.0
C1756 C 0.25397 0.725 0.2888 0.0
H1757 H 0.18737 0.77823 0.21398 0.0
H1758 H 0.20185 0.76356 0.23466 0.0
C1759 C 0.26218 0.71662 0.3007 0.0
C1760 C 0.25958 0.74577 0.26756 0.0
H1761 H 0.22346 0.7847 0.25534 0.0
C1762 C 0.26824 0.73805 0.25559 0.0
C1763 C 0.24335 0.76292 0.26747 0.0
C1764 C 0.23413 0.7726 0.28002 0.0
C1765 C 0.26082 0.74671 0.24353 0.0
C1766 C 0.24459 0.76387 0.24344 0.0
C1767 C 0.23593 0.77159 0.25542 0.0
C1768 C 0.23593 0.77362 0.23102 0.0
C1769 C 0.27004 0.73703 0.23098 0.0
C1770 C 0.25019 0.78463 0.2222 0.0
C1771 C 0.24195 0.79308 0.21032 0.0
C1772 C 0.21926 0.79075 0.20708 0.0
C1773 C 0.20494 0.78028 0.21613 0.0
C1774 C 0.21319 0.77186 0.22797 0.0
H1775 H 0.27799 0.72052 0.23262 0.0
H1776 H 0.25671 0.73512 0.2235 0.0
H1777 H 0.28289 0.74847 0.22697 0.0
H1778 H 0.26773 0.78661 0.22447 0.0
H1779 H 0.25341 0.80112 0.20361 0.0
H1780 H 0.45974 0.00583 0.45225 0.0
H1781 H 0.47504 0.01986 0.47301 0.0
H1782 H 0.49261 0.95279 0.48428 0.0
H1783 H 0.47765 0.93868 0.46359 0.0
H1784 H 0.46421 0.00936 0.49922 0.0
H1785 H 0.55179 0.98636 0.48791 0.0
H1786 H 0.53023 0.98701 0.47555 0.0
H1787 H 0.53237 0.96366 0.48655 0.0
C1788 C 0.46676 0.99406 0.45918 0.0
C1789 C 0.4676 0.97115 0.45621 0.0
C1790 C 0.47553 1.00211 0.47102 0.0
C1791 C 0.48539 0.98743 0.48007 0.0
C1792 C 0.48557 0.96449 0.47732 0.0
H1793 H 0.54866 1.002 0.55662 0.0
H1794 H 0.5334 0.98805 0.53583 0.0
C1795 C 0.47685 0.95645 0.4655 0.0
C1796 C 0.49545 0.99601 0.49242 0.0
H1797 H 0.54436 0.99865 0.50962 0.0
C1798 C 0.48175 0.00714 0.50147 0.0
C1799 C 0.51835 0.99303 0.49536 0.0
C1800 C 0.53412 0.98205 0.48579 0.0
C1801 C 0.49022 0.01499 0.51348 0.0
C1802 C 0.51311 0.012 0.51642 0.0
C1803 C 0.52682 1.00088 0.50737 0.0
C1804 C 0.52317 0.02053 0.52878 0.0
C1805 C 0.47445 0.02598 0.52304 0.0
C1806 C 0.52304 0.04346 0.53155 0.0
C1807 C 0.53174 0.05146 0.54338 0.0
C1808 C 0.54092 0.03671 0.55268 0.0
C1809 C 0.5417 0.0138 0.54969 0.0
C1810 C 0.53296 0.0058 0.53783 0.0
H1811 H 0.45678 0.02172 0.52091 0.0
H1812 H 0.47831 0.02097 0.53329 0.0
H1813 H 0.47625 0.04436 0.52231 0.0
H1814 H 0.51605 0.05519 0.52459 0.0
H1815 H 0.53098 0.06922 0.54531 0.0
H1816 H 0.25613 0.29993 0.80661 0.0
H1817 H 0.26996 0.28572 0.78555 0.0
H1818 H 0.20359 0.26396 0.77547 0.0
H1819 H 0.18962 0.27826 0.79634 0.0
H1820 H 0.26791 0.24145 0.77657 0.0
H1821 H 0.22279 0.29805 0.74264 0.0
H1822 H 0.22571 0.30387 0.75994 0.0
H1823 H 0.2051 0.28428 0.75433 0.0
C1824 C 0.24443 0.29239 0.79984 0.0
C1825 C 0.22175 0.29033 0.80315 0.0
C1826 C 0.25237 0.28421 0.78782 0.0
C1827 C 0.23776 0.27402 0.77886 0.0
C1828 C 0.2151 0.27215 0.7821 0.0
H1829 H 0.2525 0.20853 0.70288 0.0
H1830 H 0.23861 0.22284 0.72391 0.0
C1831 C 0.20716 0.28026 0.79409 0.0
C1832 C 0.24631 0.26434 0.7664 0.0
H1833 H 0.24071 0.26665 0.73305 0.0
C1834 C 0.26209 0.24706 0.76705 0.0
C1835 C 0.23856 0.27155 0.75398 0.0
C1836 C 0.22226 0.29059 0.75262 0.0
C1837 C 0.27004 0.23654 0.75564 0.0
C1838 C 0.26232 0.24376 0.74322 0.0
C1839 C 0.24653 0.26104 0.74257 0.0
C1840 C 0.27088 0.23408 0.73076 0.0
C1841 C 0.28629 0.21744 0.75702 0.0
C1842 C 0.2936 0.23567 0.7276 0.0
C1843 C 0.30157 0.22747 0.71565 0.0
C1844 C 0.28696 0.21763 0.70651 0.0
C1845 C 0.26421 0.2159 0.70972 0.0
C1846 C 0.25624 0.22413 0.72171 0.0
H1847 H 0.28557 0.20989 0.76697 0.0
H1848 H 0.28293 0.20423 0.74963 0.0
H1849 H 0.30348 0.22374 0.75545 0.0
H1850 H 0.30514 0.24369 0.73428 0.0
H1851 H 0.31917 0.22924 0.71348 0.0
H1852 H 0.04869 1.00156 0.95142 0.0
H1853 H 0.03335 0.98755 0.97216 0.0
H1854 H 0.016 0.05466 0.98348 0.0
H1855 H 0.031 0.06875 0.96281 0.0
H1856 H 0.04411 0.99796 0.99842 0.0
H1857 H 0.95667 0.02127 0.98694 0.0
H1858 H 0.9783 0.02057 0.97462 0.0
H1859 H 0.97618 0.04389 0.98565 0.0
C1860 C 0.04172 0.01335 0.95836 0.0
C1861 C 0.04094 0.03626 0.9554 0.0
C1862 C 0.03293 0.00531 0.9702 0.0
C1863 C 0.02311 0.02001 0.97925 0.0
C1864 C 0.02301 0.04295 0.97651 0.0
H1865 H 0.9591 0.00501 0.05558 0.0
H1866 H 0.97465 0.01914 0.03492 0.0
C1867 C 0.03176 0.05099 0.96471 0.0
C1868 C 0.01295 0.01143 0.99157 0.0
H1869 H 0.96391 0.0088 0.00863 0.0
C1870 C 0.02656 1.00022 1.00063 0.0
C1871 C 0.99004 0.01445 0.99445 0.0
C1872 C 0.97436 0.02552 0.98486 0.0
C1873 C 0.01798 0.99232 0.0126 0.0
C1874 C 0.99507 0.99534 0.01548 0.0
C1875 C 0.98146 0.00655 0.00642 0.0
C1876 C 0.98489 0.98671 0.02778 0.0
C1877 C 0.03364 0.98124 0.02219 0.0
C1878 C 0.98493 0.96375 0.03047 0.0
C1879 C 0.97605 0.95565 0.04223 0.0
C1880 C 0.96679 0.97032 0.05153 0.0
C1881 C 0.96612 0.99327 0.04864 0.0
C1882 C 0.97503 1.00137 0.03685 0.0
H1883 H 0.05134 0.98548 0.02012 0.0
H1884 H 0.0297 0.98617 0.03243 0.0
H1885 H 0.03182 0.96286 0.0214 0.0
H1886 H 0.99197 0.95207 0.02349 0.0
H1887 H 0.97674 0.93787 0.04408 0.0
H1888 H 0.81838 0.77882 0.71264 0.0
H1889 H 0.80384 0.76396 0.73324 0.0
H1890 H 0.73773 0.78587 0.72268 0.0
H1891 H 0.75211 0.80056 0.70188 0.0
H1892 H 0.78171 0.78471 0.75377 0.0
H1893 H 0.72833 0.71975 0.73088 0.0
H1894 H 0.74946 0.73468 0.72182 0.0
H1895 H 0.72303 0.74762 0.72521 0.0
C1896 C 0.80074 0.78057 0.71468 0.0
C1897 C 0.78638 0.79078 0.70555 0.0
C1898 C 0.79246 0.77205 0.72649 0.0
C1899 C 0.76964 0.77343 0.72942 0.0
C1900 C 0.75533 0.78418 0.7205 0.0
H1901 H 0.68874 0.73048 0.79521 0.0
H1902 H 0.7032 0.74525 0.77455 0.0
C1903 C 0.7636 0.79272 0.70866 0.0
C1904 C 0.76098 0.76359 0.74181 0.0
H1905 H 0.72525 0.7242 0.75391 0.0
C1906 C 0.76942 0.77143 0.75381 0.0
C1907 C 0.74498 0.74622 0.74184 0.0
C1908 C 0.73603 0.73639 0.72926 0.0
C1909 C 0.762 0.76268 0.76584 0.0
C1910 C 0.74599 0.74531 0.76587 0.0
C1911 C 0.73755 0.73747 0.75387 0.0
C1912 C 0.73735 0.73548 0.77826 0.0
C1913 C 0.77097 0.77247 0.77842 0.0
C1914 C 0.75165 0.72458 0.78711 0.0
C1915 C 0.74342 0.71607 0.79897 0.0
C1916 C 0.7207 0.71822 0.80217 0.0
C1917 C 0.70634 0.72857 0.79309 0.0
C1918 C 0.71457 0.73705 0.78126 0.0
H1919 H 0.77877 0.78906 0.7768 0.0
H1920 H 0.75752 0.77426 0.78584 0.0
H1921 H 0.78388 0.76116 0.7825 0.0
H1922 H 0.76922 0.72276 0.78488 0.0
H1923 H 0.75491 0.70813 0.80571 0.0
H1924 H 0.68865 0.22698 0.21377 0.0
H1925 H 0.70286 0.2425 0.23429 0.0
H1926 H 0.76966 0.22327 0.22343 0.0
H1927 H 0.75559 0.20793 0.20271 0.0
H1928 H 0.72618 0.22276 0.25473 0.0
H1929 H 0.77642 0.2898 0.23148 0.0
H1930 H 0.75578 0.27398 0.22256 0.0
H1931 H 0.78277 0.26214 0.22582 0.0
C1932 C 0.70637 0.22595 0.21573 0.0
C1933 C 0.721 0.21631 0.20654 0.0
C1934 C 0.71446 0.23486 0.22749 0.0
C1935 C 0.73736 0.23443 0.2303 0.0
C1936 C 0.75197 0.22423 0.22134 0.0
H1937 H 0.81732 0.28102 0.29567 0.0
H1938 H 0.80324 0.26583 0.27503 0.0
C1939 C 0.74388 0.21531 0.20954 0.0
C1940 C 0.7458 0.24469 0.24263 0.0
H1941 H 0.77998 0.28565 0.2545 0.0
C1942 C 0.73789 0.23656 0.25469 0.0
C1943 C 0.76104 0.26273 0.24256 0.0
C1944 C 0.76938 0.27286 0.22992 0.0
C1945 C 0.74511 0.24568 0.26667 0.0
C1946 C 0.76034 0.26373 0.2666 0.0
C1947 C 0.76826 0.27186 0.25455 0.0
C1948 C 0.76874 0.27399 0.27894 0.0
C1949 C 0.73678 0.23554 0.27931 0.0
C1950 C 0.75409 0.28418 0.28789 0.0
C1951 C 0.7621 0.29292 0.29975 0.0
C1952 C 0.78494 0.29173 0.30284 0.0
C1953 C 0.79962 0.28218 0.29364 0.0
C1954 C 0.79161 0.27346 0.28182 0.0
H1955 H 0.72973 0.2186 0.27775 0.0
H1956 H 0.75039 0.23441 0.28667 0.0
H1957 H 0.7234 0.24626 0.28342 0.0
H1958 H 0.73643 0.28521 0.28575 0.0
H1959 H 0.75035 0.30023 0.30658 0.0
H1960 H 0.81764 0.22915 0.79507 0.0
H1961 H 0.80347 0.24397 0.77436 0.0
H1962 H 0.73703 0.22286 0.78475 0.0
H1963 H 0.75104 0.20822 0.80565 0.0
H1964 H 0.78125 0.22336 0.75379 0.0
H1965 H 0.72847 0.28908 0.77642 0.0
H1966 H 0.74937 0.27396 0.78556 0.0
H1967 H 0.72282 0.2613 0.78213 0.0
C1968 C 0.8 0.22756 0.79296 0.0
C1969 C 0.78544 0.2176 0.80208 0.0
C1970 C 0.79194 0.23606 0.7811 0.0
C1971 C 0.76913 0.23491 0.7781 0.0
C1972 C 0.75462 0.22438 0.78698 0.0
H1973 H 0.68925 0.27847 0.71199 0.0
H1974 H 0.70337 0.26373 0.73274 0.0
C1975 C 0.76268 0.21586 0.79888 0.0
C1976 C 0.76068 0.24479 0.76566 0.0
H1977 H 0.72554 0.28457 0.75339 0.0
C1978 C 0.76912 0.23679 0.7537 0.0
C1979 C 0.7449 0.26236 0.76555 0.0
C1980 C 0.73597 0.27237 0.77809 0.0
C1981 C 0.7619 0.24557 0.74163 0.0
C1982 C 0.74611 0.26314 0.74152 0.0
C1983 C 0.73767 0.27114 0.75348 0.0
C1984 C 0.73767 0.27301 0.72909 0.0
C1985 C 0.77084 0.23559 0.72909 0.0
C1986 C 0.75217 0.28364 0.72024 0.0
C1987 C 0.74414 0.29212 0.70832 0.0
C1988 C 0.72142 0.29023 0.70507 0.0
C1989 C 0.70686 0.28017 0.71415 0.0
C1990 C 0.71489 0.27172 0.72603 0.0
H1991 H 0.77841 0.21891 0.73076 0.0
H1992 H 0.75744 0.23394 0.72163 0.0
H1993 H 0.78394 0.24671 0.72504 0.0
H1994 H 0.76975 0.28525 0.72251 0.0
H1995 H 0.75578 0.29983 0.70158 0.0
H1996 H 0.69108 0.7768 0.29696 0.0
H1997 H 0.70521 0.76226 0.27617 0.0
H1998 H 0.77125 0.78526 0.28604 0.0
H1999 H 0.75728 0.79967 0.30701 0.0
H2000 H 0.7268 0.78355 0.25536 0.0
H2001 H 0.781 0.71891 0.27793 0.0
H2002 H 0.75979 0.73357 0.28708 0.0
H2003 H 0.78601 0.74684 0.28361 0.0
C2004 C 0.70861 0.77888 0.29471 0.0
C2005 C 0.72308 0.7893 0.3037 0.0
C2006 C 0.71665 0.77054 0.28281 0.0
C2007 C 0.73935 0.7723 0.27964 0.0
C2008 C 0.75375 0.78329 0.2884 0.0
H2009 H 0.81947 0.7293 0.21356 0.0
H2010 H 0.80521 0.74406 0.23426 0.0
C2011 C 0.74571 0.79167 0.30034 0.0
C2012 C 0.74783 0.76252 0.26719 0.0
H2013 H 0.78348 0.72325 0.25488 0.0
C2014 C 0.73915 0.77033 0.25525 0.0
C2015 C 0.76389 0.74521 0.26707 0.0
C2016 C 0.77311 0.73545 0.27959 0.0
C2017 C 0.74641 0.76162 0.24317 0.0
C2018 C 0.76247 0.7443 0.24304 0.0
C2019 C 0.77114 0.73648 0.25499 0.0
C2020 C 0.77098 0.7345 0.2306 0.0
C2021 C 0.73722 0.77142 0.23065 0.0
C2022 C 0.75657 0.72372 0.22176 0.0
C2023 C 0.76469 0.71523 0.20986 0.0
C2024 C 0.78741 0.71726 0.20663 0.0
C2025 C 0.80187 0.72748 0.2157 0.0
C2026 C 0.79375 0.73595 0.22756 0.0
H2027 H 0.72949 0.78803 0.23232 0.0
H2028 H 0.75052 0.77318 0.22313 0.0
H2029 H 0.72419 0.76014 0.22667 0.0
H2030 H 0.73901 0.72196 0.22403 0.0
H2031 H 0.75312 0.70739 0.20313 0.0
H2032 H 0.53058 0.43789 0.04473 0.0
H2033 H 0.51583 0.45252 0.02411 0.0
H2034 H 0.53582 0.51894 0.03537 0.0
H2035 H 0.55095 0.50436 0.056 0.0
H2036 H 0.48214 0.48339 0.02103 0.0
H2037 H 0.5603 0.51414 0.99815 0.0
H2038 H 0.56025 0.49544 0.01204 0.0
H2039 H 0.55533 0.52477 0.01437 0.0
C2040 C 0.53211 0.45559 0.04277 0.0
C2041 C 0.54203 0.46995 0.05201 0.0
C2042 C 0.5236 0.46393 0.03098 0.0
C2043 C 0.52489 0.48679 0.02811 0.0
C2044 C 0.53501 0.50117 0.03724 0.0
H2045 H 0.47708 0.56985 0.96433 0.0
H2046 H 0.49202 0.55503 0.98486 0.0
C2047 C 0.54358 0.49282 0.04906 0.0
C2048 C 0.51474 0.49559 0.01583 0.0
H2049 H 0.52642 0.52405 0.98761 0.0
C2050 C 0.49184 0.49219 0.01369 0.0
C2051 C 0.5274 0.50709 0.00626 0.0
C2052 C 0.55222 0.51044 0.00772 0.0
C2053 C 0.48118 0.5003 1.00236 0.0
C2054 C 0.49383 0.51183 0.99281 0.0
C2055 C 0.51673 0.51523 0.99495 0.0
C2056 C 0.48365 0.5207 0.98057 0.0
C2057 C 0.45638 0.4969 1.00087 0.0
C2058 C 0.47387 0.50632 0.97131 0.0
C2059 C 0.46523 0.51476 0.95953 0.0
C2060 C 0.46632 0.53773 0.95677 0.0
C2061 C 0.4759 0.55208 0.96614 0.0
C2062 C 0.48452 0.54364 0.97788 0.0
H2063 H 0.44829 0.49285 0.01038 0.0
H2064 H 0.44831 0.512 0.99671 0.0
H2065 H 0.45333 0.48278 0.99405 0.0
H2066 H 0.47337 0.48851 0.97306 0.0
H2067 H 0.45812 0.50324 0.95249 0.0
H2068 H 0.05016 0.50481 0.45236 0.0
H2069 H 0.03591 0.51913 0.47327 0.0
H2070 H 0.01399 0.45302 0.48385 0.0
H2071 H 0.02791 0.43864 0.46297 0.0
H2072 H 0.98132 0.48533 0.48744 0.0
H2073 H 0.06115 0.51159 0.51032 0.0
H2074 H 0.05635 0.52288 0.49424 0.0
H2075 H 0.06004 0.49332 0.49625 0.0
C2076 C 0.04254 0.49328 0.4592 0.0
C2077 C 0.04023 0.47057 0.45599 0.0
C2078 C 0.03447 0.50148 0.47118 0.0
C2079 C 0.02408 0.4871 0.4802 0.0
C2080 C 0.02199 0.46441 0.47706 0.0
H2081 H 0.95876 0.50267 0.55631 0.0
H2082 H 0.97313 0.48835 0.53542 0.0
C2083 C 0.03003 0.45621 0.46512 0.0
C2084 C 0.01452 0.49577 0.49266 0.0
H2085 H 0.02793 0.52214 0.52132 0.0
C2086 C 0.99152 0.4933 0.49488 0.0
C2087 C 0.02783 0.50619 0.50235 0.0
C2088 C 0.05274 0.50852 0.50077 0.0
C2089 C 0.98141 0.50129 0.50641 0.0
C2090 C 0.99473 0.5117 0.5161 0.0
C2091 C 0.01773 0.51417 0.51388 0.0
C2092 C 0.98517 0.52035 0.52857 0.0
C2093 C 0.9565 0.49899 0.50796 0.0
C2094 C 0.98736 0.54303 0.53174 0.0
C2095 C 0.97927 0.55121 0.54368 0.0
C2096 C 0.9689 0.53687 0.55275 0.0
C2097 C 0.96651 0.51419 0.54951 0.0
C2098 C 0.97464 0.506 0.53754 0.0
H2099 H 0.9481 0.49601 0.4984 0.0
H2100 H 0.95286 0.48456 0.51444 0.0
H2101 H 0.94922 0.51416 0.51253 0.0
H2102 H 0.99546 0.5544 0.525 0.0
H2103 H 0.98145 0.56877 0.54586 0.0
H2104 H 0.05067 0.50283 0.05588 0.0
H2105 H 0.03605 0.48875 0.03497 0.0
H2106 H 0.01559 0.55532 0.02436 0.0
H2107 H 0.03032 0.56952 0.04506 0.0
H2108 H 0.99198 0.49128 0.02601 0.0
H2109 H 0.04901 0.5348 0.99165 0.0
H2110 H 0.05484 0.53226 0.00897 0.0
H2111 H 0.03555 0.55303 1.00318 0.0
C2112 C 0.04332 0.5145 0.04902 0.0
C2113 C 0.04176 0.53732 0.05213 0.0
C2114 C 0.03492 0.50642 0.03709 0.0
C2115 C 0.02497 0.52102 0.02802 0.0
C2116 C 0.02359 0.5438 0.03107 0.0
H2117 H 0.95864 0.50593 0.95235 0.0
H2118 H 0.97327 0.51993 0.97328 0.0
C2119 C 0.03194 0.55188 0.04297 0.0
C2120 C 0.01508 0.51236 0.01564 0.0
H2121 H 0.0172 0.5173 0.98225 0.0
C2122 C 0.99759 0.49684 0.01644 0.0
C2123 C 0.02231 0.51975 1.00315 0.0
C2124 C 0.04159 0.53572 1.00163 0.0
C2125 C 0.98686 0.48882 0.00511 0.0
C2126 C 0.99409 0.49622 0.99262 0.0
C2127 C 0.01159 0.51173 0.99182 0.0
C2128 C 0.98417 0.4876 0.98024 0.0
C2129 C 0.96757 0.47287 0.00663 0.0
C2130 C 0.98545 0.46481 0.97718 0.0
C2131 C 0.97708 0.45678 0.96528 0.0
C2132 C 0.96736 0.47139 0.9561 0.0
C2133 C 0.96591 0.49421 0.95922 0.0
C2134 C 0.97432 0.50225 0.97116 0.0
H2135 H 0.96014 0.47383 0.01661 0.0
H2136 H 0.95433 0.47632 0.99929 0.0
H2137 H 0.97359 0.45556 0.00511 0.0
H2138 H 0.99338 0.45326 0.9839 0.0
H2139 H 0.97862 0.43913 0.96318 0.0
H2140 H 0.53056 0.56936 0.4636 0.0
H2141 H 0.51629 0.55518 0.48444 0.0
H2142 H 0.53505 0.48837 0.47327 0.0
H2143 H 0.54962 0.50247 0.45238 0.0
H2144 H 0.48217 0.52403 0.48787 0.0
H2145 H 0.56118 0.49429 0.51031 0.0
H2146 H 0.56062 0.51296 0.49641 0.0
H2147 H 0.55576 0.48363 0.49414 0.0
C2148 C 0.53191 0.55166 0.46561 0.0
C2149 C 0.54132 0.53705 0.45632 0.0
C2150 C 0.52367 0.54359 0.47753 0.0
C2151 C 0.52477 0.52075 0.48048 0.0
C2152 C 0.53438 0.50611 0.47131 0.0
H2153 H 0.48011 0.44005 0.54609 0.0
H2154 H 0.49433 0.45404 0.5252 0.0
C2155 C 0.54263 0.51419 0.45935 0.0
C2156 C 0.515 0.51227 0.49293 0.0
H2157 H 0.52771 0.48505 0.52142 0.0
C2158 C 0.49214 0.51557 0.49524 0.0
C2159 C 0.52801 0.50121 0.50252 0.0
C2160 C 0.55279 0.49794 0.50082 0.0
C2161 C 0.48185 0.50781 0.50676 0.0
C2162 C 0.49487 0.4968 0.51637 0.0
C2163 C 0.51773 0.49348 0.51405 0.0
C2164 C 0.48512 0.48838 0.52885 0.0
C2165 C 0.45705 0.51101 0.50841 0.0
C2166 C 0.47512 0.50303 0.53788 0.0
C2167 C 0.46685 0.49505 0.54986 0.0
C2168 C 0.4686 0.47229 0.55307 0.0
C2169 C 0.47844 0.45767 0.54394 0.0
C2170 C 0.48664 0.46564 0.53199 0.0
H2171 H 0.44867 0.5143 0.49887 0.0
H2172 H 0.44926 0.49612 0.513 0.0
H2173 H 0.454 0.52556 0.5149 0.0
H2174 H 0.47414 0.52072 0.53579 0.0
H2175 H 0.45954 0.50678 0.5567 0.0
H2176 H 0.26149 0.14566 0.38812 0.0
H2177 H 0.29262 0.12087 0.39318 0.0
H2178 H 0.32039 0.13267 0.35479 0.0
H2179 H 0.28913 0.15761 0.34957 0.0
H2180 H 0.30281 0.08153 0.37806 0.0
H2181 H 0.37405 0.14082 0.38085 0.0
H2182 H 0.34538 0.14966 0.3826 0.0
H2183 H 0.3563 0.14312 0.36667 0.0
C2184 C 0.27433 0.14325 0.38077 0.0
C2185 C 0.27278 0.15363 0.36842 0.0
C2186 C 0.29211 0.12905 0.3837 0.0
C2187 C 0.30888 0.12505 0.37441 0.0
C2188 C 0.30776 0.13577 0.36217 0.0
H2189 H 0.40079 0.0141 0.37057 0.0
H2190 H 0.37518 0.0448 0.3659 0.0
C2191 C 0.28985 0.14995 0.35919 0.0
C2192 C 0.32657 0.10842 0.37727 0.0
H2193 H 0.38264 0.10225 0.38229 0.0
C2194 C 0.32026 0.08607 0.379 0.0
C2195 C 0.34928 0.11443 0.37857 0.0
C2196 C 0.35678 0.13832 0.37718 0.0
C2197 C 0.33608 0.0695 0.38182 0.0
C2198 C 0.35882 0.07542 0.38294 0.0
C2199 C 0.36517 0.0978 0.38138 0.0
C2200 C 0.37609 0.05831 0.38555 0.0
C2201 C 0.32844 0.04571 0.38366 0.0
C2202 C 0.38546 0.05606 0.39811 0.0
C2203 C 0.40009 0.03842 0.40086 0.0
C2204 C 0.40565 0.02283 0.39106 0.0
C2205 C 0.39686 0.02575 0.37836 0.0
C2206 C 0.3822 0.04328 0.37565 0.0
H2207 H 0.31 0.04442 0.38442 0.0
H2208 H 0.33399 0.03555 0.37516 0.0
H2209 H 0.33604 0.03844 0.39263 0.0
H2210 H 0.38089 0.06753 0.40588 0.0
H2211 H 0.40656 0.03666 0.41073 0.0
H2212 H 0.10096 0.01991 0.63918 0.0
H2213 H 0.12539 0.0512 0.64454 0.0
H2214 H 0.13361 0.06532 0.60332 0.0
H2215 H 0.10865 0.03431 0.59788 0.0
H2216 H 0.1685 0.05488 0.63813 0.0
H2217 H 0.12266 0.12716 0.61756 0.0
H2218 H 0.10981 0.10019 0.6198 0.0
H2219 H 0.12732 0.10539 0.60579 0.0
C2220 C 0.10766 0.02989 0.63124 0.0
C2221 C 0.10282 0.02462 0.61809 0.0
C2222 C 0.12166 0.04777 0.63433 0.0
C2223 C 0.13119 0.06081 0.62436 0.0
C2224 C 0.12606 0.05587 0.61121 0.0
H2225 H 0.23913 0.15584 0.6211 0.0
H2226 H 0.2079 0.13074 0.61664 0.0
C2227 C 0.11187 0.03805 0.6081 0.0
C2228 C 0.1478 0.07836 0.62775 0.0
H2229 H 0.16057 0.13357 0.62378 0.0
C2230 C 0.16662 0.07213 0.6351 0.0
C2231 C 0.14541 0.10088 0.62377 0.0
C2232 C 0.12511 0.10889 0.6164 0.0
C2233 C 0.1833 0.08762 0.63834 0.0
C2234 C 0.18103 0.11004 0.63424 0.0
C2235 C 0.16221 0.11637 0.62694 0.0
C2236 C 0.19858 0.12687 0.63701 0.0
C2237 C 0.20356 0.07976 0.64582 0.0
C2238 C 0.20334 0.13348 0.64994 0.0
C2239 C 0.22117 0.14794 0.65254 0.0
C2240 C 0.23459 0.15595 0.64224 0.0
C2241 C 0.22921 0.14991 0.62927 0.0
C2242 C 0.21133 0.13559 0.62669 0.0
H2243 H 0.20478 0.06126 0.64606 0.0
H2244 H 0.21905 0.08657 0.64139 0.0
H2245 H 0.20257 0.08586 0.65609 0.0
H2246 H 0.19351 0.12712 0.65803 0.0
H2247 H 0.22484 0.15228 0.66263 0.0
H2248 H 0.23762 0.8498 0.8877 0.0
H2249 H 0.20638 0.87427 0.8931 0.0
H2250 H 0.19374 0.88463 0.85188 0.0
H2251 H 0.22475 0.85971 0.84639 0.0
H2252 H 0.20329 0.91795 0.8872 0.0
H2253 H 0.13135 0.87323 0.86539 0.0
H2254 H 0.15815 0.86011 0.86781 0.0
H2255 H 0.15356 0.87812 0.85394 0.0
C2256 C 0.22799 0.85698 0.87976 0.0
C2257 C 0.23368 0.85277 0.8666 0.0
C2258 C 0.21013 0.87101 0.88288 0.0
C2259 C 0.19752 0.88115 0.87292 0.0
C2260 C 0.20287 0.87663 0.85975 0.0
H2261 H 0.10203 0.98878 0.87 0.0
H2262 H 0.12732 0.95773 0.86548 0.0
C2263 C 0.22069 0.86245 0.85662 0.0
C2264 C 0.17998 0.89772 0.87638 0.0
H2265 H 0.12495 0.91087 0.87211 0.0
C2266 C 0.18611 0.91626 0.88401 0.0
C2267 C 0.15756 0.89558 0.87218 0.0
C2268 C 0.14967 0.87558 0.86448 0.0
C2269 C 0.17063 0.93293 0.88731 0.0
C2270 C 0.14829 0.93091 0.88301 0.0
C2271 C 0.14208 0.91234 0.87543 0.0
C2272 C 0.13146 0.94844 0.88583 0.0
C2273 C 0.17845 0.95293 0.89505 0.0
C2274 C 0.12491 0.95316 0.89878 0.0
C2275 C 0.11037 0.97091 0.90141 0.0
C2276 C 0.10215 0.98426 0.89114 0.0
C2277 C 0.10811 0.97891 0.87815 0.0
C2278 C 0.12255 0.96114 0.87553 0.0
H2279 H 0.19694 0.9542 0.89527 0.0
H2280 H 0.17157 0.96858 0.89085 0.0
H2281 H 0.17244 0.95149 0.90531 0.0
H2282 H 0.13136 0.94335 0.90686 0.0
H2283 H 0.10607 0.97455 0.91151 0.0
H2284 H 0.2671 0.85218 0.12097 0.0
H2285 H 0.29842 0.87645 0.11546 0.0
H2286 H 0.31352 0.88415 0.1566 0.0
H2287 H 0.28249 0.85931 0.16218 0.0
H2288 H 0.30258 0.91938 0.12188 0.0
H2289 H 0.37493 0.87308 0.14196 0.0
H2290 H 0.34785 0.86039 0.13993 0.0
H2291 H 0.35347 0.87789 0.1539 0.0
C2292 C 0.2773 0.85873 0.12886 0.0
C2293 C 0.27231 0.85378 0.14203 0.0
C2294 C 0.2952 0.87264 0.12568 0.0
C2295 C 0.30853 0.88199 0.13559 0.0
C2296 C 0.30386 0.87674 0.14875 0.0
H2297 H 0.4042 0.98955 0.13817 0.0
H2298 H 0.37893 0.95853 0.14284 0.0
C2299 C 0.28602 0.86262 0.15194 0.0
C2300 C 0.32611 0.89852 0.13212 0.0
H2301 H 0.38144 0.91098 0.13575 0.0
C2302 C 0.31986 0.9174 0.1248 0.0
C2303 C 0.34868 0.89601 0.13596 0.0
C2304 C 0.35671 0.87564 0.14326 0.0
C2305 C 0.33539 0.93399 0.12146 0.0
C2306 C 0.35786 0.93159 0.12543 0.0
C2307 C 0.3642 0.91273 0.13269 0.0
C2308 C 0.37473 0.94903 0.12253 0.0
C2309 C 0.32752 0.95429 0.11402 0.0
C2310 C 0.38121 0.95361 0.10956 0.0
C2311 C 0.39576 0.97131 0.10684 0.0
C2312 C 0.40402 0.98477 0.11705 0.0
C2313 C 0.39809 0.97959 0.13006 0.0
C2314 C 0.38367 0.96183 0.13277 0.0
H2315 H 0.30904 0.9556 0.11386 0.0
H2316 H 0.33447 0.96975 0.11842 0.0
H2317 H 0.33348 0.95326 0.10373 0.0
H2318 H 0.37468 0.94374 0.10152 0.0
H2319 H 0.40001 0.97483 0.09672 0.0
H2320 H 0.74033 0.85478 0.6204 0.0
H2321 H 0.70889 0.87961 0.61588 0.0
H2322 H 0.69304 0.88149 0.65713 0.0
H2323 H 0.72457 0.85661 0.66177 0.0
H2324 H 0.6615 0.8758 0.6223 0.0
H2325 H 0.70344 0.94791 0.64626 0.0
H2326 H 0.71833 0.92302 0.64148 0.0
H2327 H 0.70121 0.92292 0.65593 0.0
C2328 C 0.73005 0.86027 0.62852 0.0
C2329 C 0.73507 0.85382 0.64147 0.0
C2330 C 0.71206 0.87444 0.6259 0.0
C2331 C 0.69882 0.8826 0.63618 0.0
C2332 C 0.70324 0.87558 0.64907 0.0
H2333 H 0.59919 0.98771 0.63856 0.0
H2334 H 0.62392 0.95659 0.6438 0.0
C2335 C 0.7212 0.86128 0.6517 0.0
C2336 C 0.68108 0.89923 0.63341 0.0
H2337 H 0.66732 0.95395 0.63796 0.0
C2338 C 0.66268 0.89289 0.62574 0.0
C2339 C 0.68275 0.9215 0.63788 0.0
C2340 C 0.70254 0.92941 0.64576 0.0
C2341 C 0.64572 0.9082 0.62257 0.0
C2342 C 0.6475 0.93057 0.62693 0.0
C2343 C 0.6659 0.93681 0.63465 0.0
C2344 C 0.6307 0.94796 0.62357 0.0
C2345 C 0.62588 0.90014 0.61479 0.0
C2346 C 0.62601 0.95338 0.61043 0.0
C2347 C 0.61165 0.9711 0.60739 0.0
C2348 C 0.60199 0.98395 0.61745 0.0
C2349 C 0.60637 0.97818 0.63058 0.0
C2350 C 0.62054 0.96039 0.63359 0.0
H2351 H 0.62374 0.88178 0.61564 0.0
H2352 H 0.61029 0.90841 0.61809 0.0
H2353 H 0.62848 0.90414 0.60427 0.0
H2354 H 0.63404 0.94441 0.60251 0.0
H2355 H 0.60879 0.97524 0.59719 0.0
H2356 H 0.89998 0.97561 0.4123 0.0
H2357 H 0.87516 0.94449 0.40685 0.0
H2358 H 0.88507 0.95729 0.36561 0.0
H2359 H 0.90939 0.98866 0.37097 0.0
H2360 H 0.84166 0.95408 0.37151 0.0
H2361 H 0.88629 0.88216 0.39338 0.0
H2362 H 0.88137 0.90431 0.40487 0.0
H2363 H 0.8994 0.90897 0.39102 0.0
C2364 C 0.89717 0.97154 0.40207 0.0
C2365 C 0.90665 0.98463 0.39207 0.0
C2366 C 0.88306 0.95366 0.39896 0.0
C2367 C 0.87843 0.94834 0.3858 0.0
C2368 C 0.88842 0.96101 0.37583 0.0
H2369 H 0.78525 0.85622 0.34759 0.0
H2370 H 0.81655 0.88142 0.35216 0.0
C2371 C 0.90235 0.97895 0.37892 0.0
C2372 C 0.86184 0.93079 0.38239 0.0
H2373 H 0.84853 0.87582 0.38682 0.0
C2374 C 0.84332 0.93692 0.37474 0.0
C2375 C 0.86393 0.90839 0.38664 0.0
C2376 C 0.88393 0.90048 0.39432 0.0
C2377 C 0.82662 0.92145 0.37149 0.0
C2378 C 0.82857 0.89916 0.37587 0.0
C2379 C 0.84712 0.89293 0.38345 0.0
C2380 C 0.81097 0.88239 0.37313 0.0
C2381 C 0.80666 0.92923 0.36371 0.0
C2382 C 0.79792 0.87406 0.38344 0.0
C2383 C 0.78006 0.85972 0.38087 0.0
C2384 C 0.775 0.85325 0.36793 0.0
C2385 C 0.78867 0.8609 0.35766 0.0
C2386 C 0.80649 0.87538 0.36024 0.0
H2387 H 0.80559 0.94772 0.36325 0.0
H2388 H 0.80792 0.92278 0.35353 0.0
H2389 H 0.79098 0.92268 0.36805 0.0
H2390 H 0.80113 0.87922 0.39346 0.0
H2391 H 0.76993 0.85407 0.38902 0.0
H2392 H 0.76813 0.15365 0.1211 0.0
H2393 H 0.79917 0.1285 0.11629 0.0
H2394 H 0.81438 0.12419 0.15756 0.0
H2395 H 0.78323 0.14937 0.1625 0.0
H2396 H 0.84638 0.1311 0.12286 0.0
H2397 H 0.80329 0.05857 0.14559 0.0
H2398 H 0.78881 0.08392 0.14124 0.0
H2399 H 0.80588 0.08301 0.15571 0.0
C2400 C 0.77818 0.14754 0.12917 0.0
C2401 C 0.77309 0.15341 0.1422 0.0
C2402 C 0.79595 0.13319 0.12638 0.0
C2403 C 0.80889 0.12425 0.13657 0.0
C2404 C 0.8044 0.13068 0.14956 0.0
H2405 H 0.90745 0.01806 0.13775 0.0
H2406 H 0.88286 0.04912 0.14332 0.0
C2407 C 0.78667 0.14516 0.15236 0.0
C2408 C 0.82641 0.10749 0.13358 0.0
H2409 H 0.83945 0.05241 0.13738 0.0
C2410 C 0.84495 0.1139 0.12605 0.0
C2411 C 0.82443 0.08506 0.13772 0.0
C2412 C 0.80448 0.07707 0.14543 0.0
C2413 C 0.86173 0.0985 0.12269 0.0
C2414 C 0.85964 0.07598 0.12673 0.0
C2415 C 0.84111 0.06966 0.13431 0.0
C2416 C 0.87628 0.05854 0.12319 0.0
C2417 C 0.88172 0.10661 0.11508 0.0
C2418 C 0.88102 0.05356 0.10999 0.0
C2419 C 0.8953 0.03586 0.10677 0.0
C2420 C 0.90484 0.0226 0.11668 0.0
C2421 C 0.90038 0.02791 0.12987 0.0
C2422 C 0.88628 0.04566 0.13307 0.0
H2423 H 0.88406 0.12491 0.11616 0.0
H2424 H 0.8972 0.09806 0.11832 0.0
H2425 H 0.87918 0.10301 0.1045 0.0
H2426 H 0.87313 0.06288 0.10217 0.0
H2427 H 0.89822 0.03209 0.09651 0.0
H2428 H 0.60481 0.01702 0.87064 0.0
H2429 H 0.62967 0.04843 0.86613 0.0
H2430 H 0.63181 0.06413 0.9074 0.0
H2431 H 0.60688 0.03264 0.91204 0.0
H2432 H 0.62565 0.096 0.87284 0.0
H2433 H 0.69823 0.05375 0.89611 0.0
H2434 H 0.67338 0.03884 0.89129 0.0
H2435 H 0.6733 0.05568 0.90586 0.0
C2436 C 0.61039 0.02725 0.87877 0.0
C2437 C 0.60396 0.02222 0.89172 0.0
C2438 C 0.62457 0.04523 0.87616 0.0
C2439 C 0.63277 0.05843 0.88644 0.0
C2440 C 0.62584 0.05396 0.89934 0.0
H2441 H 0.73793 0.15805 0.88851 0.0
H2442 H 0.707 0.13318 0.89389 0.0
C2443 C 0.61152 0.03603 0.90196 0.0
C2444 C 0.64932 0.07623 0.88365 0.0
H2445 H 0.70412 0.08991 0.88786 0.0
C2446 C 0.64281 0.09476 0.87614 0.0
C2447 C 0.67167 0.0745 0.88795 0.0
C2448 C 0.67973 0.05458 0.89567 0.0
C2449 C 0.65803 0.11178 0.87295 0.0
C2450 C 0.6805 0.10992 0.87712 0.0
C2451 C 0.68691 0.09139 0.88468 0.0
C2452 C 0.6978 0.12677 0.8737 0.0
C2453 C 0.64979 0.13176 0.86537 0.0
C2454 C 0.70285 0.13171 0.86054 0.0
C2455 C 0.72046 0.14615 0.85743 0.0
C2456 C 0.73356 0.15565 0.86742 0.0
C2457 C 0.72819 0.15101 0.88057 0.0
C2458 C 0.71051 0.13675 0.88367 0.0
H2459 H 0.63147 0.13392 0.86641 0.0
H2460 H 0.65816 0.14731 0.86868 0.0
H2461 H 0.65349 0.12934 0.85479 0.0
H2462 H 0.69367 0.12382 0.85266 0.0
H2463 H 0.72429 0.14922 0.8472 0.0
H2464 H 0.78313 0.64885 0.84735 0.0
H2465 H 0.81382 0.62354 0.85302 0.0
H2466 H 0.7989 0.63198 0.89412 0.0
H2467 H 0.76795 0.6567 0.88854 0.0
H2468 H 0.85183 0.62744 0.86797 0.0
H2469 H 0.79489 0.56503 0.89014 0.0
H2470 H 0.78486 0.58827 0.88058 0.0
H2471 H 0.79259 0.59212 0.89749 0.0
C2472 C 0.78652 0.64545 0.85759 0.0
C2473 C 0.77294 0.65458 0.86748 0.0
C2474 C 0.80405 0.63097 0.86082 0.0
C2475 C 0.80833 0.62542 0.87399 0.0
C2476 C 0.79553 0.63548 0.88388 0.0
H2477 H 0.90001 0.53277 0.91231 0.0
H2478 H 0.87486 0.56403 0.90751 0.0
C2479 C 0.77792 0.64975 0.88067 0.0
C2480 C 0.82572 0.60866 0.87738 0.0
H2481 H 0.83363 0.55872 0.89292 0.0
C2482 C 0.84784 0.6124 0.8734 0.0
C2483 C 0.82051 0.58894 0.88442 0.0
C2484 C 0.7969 0.58319 0.8883 0.0
C2485 C 0.86491 0.59712 0.87643 0.0
C2486 C 0.85968 0.57756 0.88356 0.0
C2487 C 0.83762 0.57386 0.88758 0.0
C2488 C 0.87658 0.56011 0.88643 0.0
C2489 C 0.88845 0.60209 0.87212 0.0
C2490 C 0.88594 0.54764 0.87617 0.0
C2491 C 0.90016 0.52972 0.87888 0.0
C2492 C 0.90535 0.52392 0.89191 0.0
C2493 C 0.89645 0.53686 0.90217 0.0
C2494 C 0.88205 0.5547 0.89945 0.0
H2495 H 0.89065 0.61996 0.86951 0.0
H2496 H 0.90055 0.59768 0.87995 0.0
H2497 H 0.89243 0.59191 0.86333 0.0
H2498 H 0.88166 0.55129 0.86607 0.0
H2499 H 0.90668 0.52009 0.87074 0.0
H2500 H 0.74014 0.65694 0.12027 0.0
H2501 H 0.70907 0.63233 0.11479 0.0
H2502 H 0.6953 0.62303 0.15597 0.0
H2503 H 0.72608 0.64818 0.16154 0.0
H2504 H 0.70573 0.58911 0.12076 0.0
H2505 H 0.63331 0.63372 0.14205 0.0
H2506 H 0.66015 0.64686 0.13989 0.0
H2507 H 0.65519 0.62886 0.15372 0.0
C2508 C 0.73029 0.64996 0.12818 0.0
C2509 C 0.73558 0.65456 0.14135 0.0
C2510 C 0.71252 0.63585 0.12502 0.0
C2511 C 0.69964 0.62597 0.13494 0.0
C2512 C 0.70462 0.63084 0.14812 0.0
H2513 H 0.60596 0.51675 0.13733 0.0
H2514 H 0.63081 0.54809 0.14206 0.0
C2515 C 0.72231 0.64514 0.1513 0.0
C2516 C 0.6822 0.6093 0.13145 0.0
H2517 H 0.62717 0.59591 0.13549 0.0
C2518 C 0.6885 0.59075 0.12387 0.0
C2519 C 0.65972 0.61136 0.13554 0.0
C2520 C 0.6516 0.63138 0.14314 0.0
C2521 C 0.67312 0.57403 0.1205 0.0
C2522 C 0.65074 0.57597 0.12472 0.0
C2523 C 0.64435 0.59452 0.13225 0.0
C2524 C 0.63406 0.55836 0.12182 0.0
C2525 C 0.68105 0.55408 0.11276 0.0
C2526 C 0.62718 0.5541 0.10888 0.0
C2527 C 0.61286 0.53622 0.10613 0.0
C2528 C 0.60526 0.52225 0.11628 0.0
C2529 C 0.61157 0.52711 0.12927 0.0
C2530 C 0.62574 0.54504 0.13201 0.0
H2531 H 0.69955 0.55309 0.11236 0.0
H2532 H 0.67453 0.53839 0.1171 0.0
H2533 H 0.67469 0.55528 0.10256 0.0
H2534 H 0.63324 0.56435 0.10089 0.0
H2535 H 0.60831 0.53295 0.09602 0.0
H2536 H 0.73616 0.35112 0.38831 0.0
H2537 H 0.7051 0.37628 0.39296 0.0
H2538 H 0.69257 0.38327 0.3515 0.0
H2539 H 0.72376 0.35805 0.34672 0.0
H2540 H 0.69726 0.42422 0.36562 0.0
H2541 H 0.6369 0.36746 0.38994 0.0
H2542 H 0.66484 0.36622 0.39629 0.0
H2543 H 0.65941 0.35738 0.37975 0.0
C2544 C 0.72661 0.35772 0.38016 0.0
C2545 C 0.73245 0.35256 0.36713 0.0
C2546 C 0.70876 0.37202 0.38285 0.0
C2547 C 0.69636 0.38145 0.37259 0.0
C2548 C 0.70184 0.37603 0.35957 0.0
H2549 H 0.59847 0.48881 0.37005 0.0
H2550 H 0.62339 0.4579 0.36467 0.0
C2551 C 0.71964 0.36159 0.35686 0.0
C2552 C 0.67888 0.39833 0.37545 0.0
H2553 H 0.62939 0.40637 0.39142 0.0
C2554 C 0.68231 0.42029 0.37114 0.0
C2555 C 0.65954 0.3932 0.3828 0.0
C2556 C 0.65477 0.36975 0.38739 0.0
C2557 C 0.66717 0.43739 0.37423 0.0
C2558 C 0.64773 0.43228 0.38153 0.0
C2559 C 0.64425 0.41027 0.3858 0.0
C2560 C 0.63094 0.44966 0.38486 0.0
C2561 C 0.67257 0.46092 0.36999 0.0
C2562 C 0.62596 0.4546 0.39802 0.0
C2563 C 0.61142 0.47213 0.40115 0.0
C2564 C 0.60163 0.48503 0.39115 0.0
C2565 C 0.60591 0.47938 0.37799 0.0
C2566 C 0.62028 0.46178 0.37489 0.0
H2567 H 0.69062 0.46301 0.36785 0.0
H2568 H 0.6632 0.46486 0.36089 0.0
H2569 H 0.66773 0.47319 0.37765 0.0
H2570 H 0.63386 0.44534 0.40588 0.0
H2571 H 0.60845 0.47604 0.41138 0.0
H2572 H 0.89891 0.47634 0.59775 0.0
H2573 H 0.87345 0.44565 0.60314 0.0
H2574 H 0.88121 0.46009 0.64435 0.0
H2575 H 0.90611 0.49103 0.63905 0.0
H2576 H 0.87731 0.40746 0.61799 0.0
H2577 H 0.81431 0.46396 0.63999 0.0
H2578 H 0.83765 0.47418 0.63059 0.0
H2579 H 0.84127 0.4663 0.6475 0.0
C2580 C 0.89531 0.47287 0.60796 0.0
C2581 C 0.90434 0.48629 0.61796 0.0
C2582 C 0.88074 0.45533 0.61103 0.0
C2583 C 0.87499 0.4509 0.62414 0.0
C2584 C 0.88489 0.46358 0.63415 0.0
H2585 H 0.78231 0.35839 0.66166 0.0
H2586 H 0.81345 0.3838 0.6571 0.0
C2587 C 0.89925 0.48119 0.6311 0.0
C2588 C 0.85825 0.43341 0.62737 0.0
H2589 H 0.80813 0.42514 0.6426 0.0
C2590 C 0.86217 0.41133 0.62334 0.0
C2591 C 0.83841 0.43847 0.63432 0.0
C2592 C 0.8325 0.46204 0.63824 0.0
C2593 C 0.84694 0.39416 0.62624 0.0
C2594 C 0.82725 0.39924 0.63327 0.0
C2595 C 0.82337 0.42126 0.63733 0.0
C2596 C 0.80986 0.38224 0.636 0.0
C2597 C 0.8521 0.37067 0.62189 0.0
C2598 C 0.79761 0.37288 0.62565 0.0
C2599 C 0.77977 0.3585 0.62821 0.0
C2600 C 0.77382 0.35316 0.6412 0.0
C2601 C 0.78653 0.36207 0.65155 0.0
C2602 C 0.80428 0.37662 0.64897 0.0
H2603 H 0.87001 0.36857 0.61937 0.0
H2604 H 0.84763 0.35848 0.62966 0.0
H2605 H 0.84209 0.3667 0.61303 0.0
H2606 H 0.80139 0.37726 0.61558 0.0
H2607 H 0.77032 0.35198 0.62 0.0
H2608 H 0.11035 0.47632 0.09746 0.0
H2609 H 0.13542 0.44543 0.10296 0.0
H2610 H 0.12734 0.45992 0.14414 0.0
H2611 H 0.1028 0.4911 0.13872 0.0
H2612 H 0.17037 0.45613 0.13778 0.0
H2613 H 0.1246 0.38373 0.11731 0.0
H2614 H 0.12928 0.40539 0.10548 0.0
H2615 H 0.11174 0.41072 0.11947 0.0
C2616 C 0.11363 0.47269 0.10769 0.0
C2617 C 0.10458 0.48619 0.11765 0.0
C2618 C 0.12789 0.45494 0.11083 0.0
C2619 C 0.13308 0.45012 0.12399 0.0
C2620 C 0.12356 0.46324 0.13393 0.0
H2621 H 0.22647 0.35863 0.16247 0.0
H2622 H 0.19526 0.3839 0.1578 0.0
C2623 C 0.10949 0.48107 0.13081 0.0
C2624 C 0.1497 0.4326 0.12741 0.0
H2625 H 0.16252 0.37737 0.12353 0.0
C2626 C 0.16851 0.43886 0.13477 0.0
C2627 C 0.14734 0.41006 0.12346 0.0
C2628 C 0.12705 0.40199 0.11611 0.0
C2629 C 0.18519 0.42339 0.13805 0.0
C2630 C 0.18295 0.40095 0.13397 0.0
C2631 C 0.16415 0.39459 0.12666 0.0
C2632 C 0.20049 0.38414 0.13679 0.0
C2633 C 0.20542 0.43129 0.14554 0.0
C2634 C 0.21332 0.3754 0.1265 0.0
C2635 C 0.23114 0.36102 0.12913 0.0
C2636 C 0.23638 0.35494 0.14211 0.0
C2637 C 0.22291 0.363 0.15237 0.0
C2638 C 0.20514 0.37751 0.14972 0.0
H2639 H 0.20661 0.44978 0.14578 0.0
H2640 H 0.20442 0.42518 0.1558 0.0
H2641 H 0.22093 0.42449 0.14112 0.0
H2642 H 0.20997 0.38025 0.11645 0.0
H2643 H 0.24111 0.35505 0.12099 0.0
H2644 H 0.40022 0.47562 0.91373 0.0
H2645 H 0.37514 0.44433 0.9089 0.0
H2646 H 0.3823 0.45687 0.86746 0.0
H2647 H 0.40728 0.48808 0.87216 0.0
H2648 H 0.33414 0.44969 0.89438 0.0
H2649 H 0.3908 0.38829 0.8708 0.0
H2650 H 0.40085 0.4106 0.88117 0.0
H2651 H 0.39261 0.41629 0.86456 0.0
C2652 C 0.39678 0.47145 0.90358 0.0
C2653 C 0.40575 0.48435 0.89333 0.0
C2654 C 0.38242 0.45361 0.90085 0.0
C2655 C 0.37704 0.44814 0.88782 0.0
C2656 C 0.38651 0.46055 0.87757 0.0
H2657 H 0.28298 0.35988 0.84881 0.0
H2658 H 0.3137 0.3852 0.85441 0.0
C2659 C 0.40071 0.47847 0.88029 0.0
C2660 C 0.36006 0.43078 0.88493 0.0
H2661 H 0.35192 0.38103 0.86925 0.0
C2662 C 0.33804 0.43456 0.889 0.0
C2663 C 0.36517 0.41124 0.87775 0.0
C2664 C 0.38866 0.40618 0.87338 0.0
C2665 C 0.32085 0.41957 0.88585 0.0
C2666 C 0.32594 0.39988 0.87875 0.0
C2667 C 0.34802 0.39606 0.87471 0.0
C2668 C 0.30848 0.38319 0.87539 0.0
C2669 C 0.29728 0.42539 0.88979 0.0
C2670 C 0.29581 0.37307 0.88532 0.0
C2671 C 0.27818 0.3588 0.88216 0.0
C2672 C 0.27305 0.35402 0.86898 0.0
C2673 C 0.28648 0.36324 0.85905 0.0
C2674 C 0.30403 0.37773 0.86224 0.0
H2675 H 0.29535 0.44355 0.89167 0.0
H2676 H 0.28517 0.42039 0.88208 0.0
H2677 H 0.293 0.41642 0.89897 0.0
H2678 H 0.2993 0.37652 0.89555 0.0
H2679 H 0.26834 0.35177 0.89006 0.0
H2680 H 0.4069 0.51923 0.63958 0.0
H2681 H 0.38195 0.55009 0.64498 0.0
H2682 H 0.37359 0.56441 0.6038 0.0
H2683 H 0.39908 0.53378 0.5983 0.0
H2684 H 0.37752 0.60269 0.61869 0.0
H2685 H 0.31497 0.54586 0.64083 0.0
H2686 H 0.34203 0.5436 0.64822 0.0
H2687 H 0.33824 0.53577 0.63131 0.0
C2688 C 0.3999 0.52903 0.63165 0.0
C2689 C 0.40482 0.5239 0.6185 0.0
C2690 C 0.38551 0.5466 0.63476 0.0
C2691 C 0.37543 0.55922 0.62479 0.0
C2692 C 0.38103 0.55477 0.61166 0.0
H2693 H 0.27055 0.65805 0.6211 0.0
H2694 H 0.30172 0.63295 0.61655 0.0
C2695 C 0.39561 0.53728 0.60853 0.0
C2696 C 0.35865 0.57663 0.62809 0.0
H2697 H 0.30862 0.58464 0.64348 0.0
C2698 C 0.36244 0.59874 0.62408 0.0
C2699 C 0.33889 0.57146 0.63509 0.0
C2700 C 0.33313 0.54786 0.639 0.0
C2701 C 0.34717 0.61584 0.62706 0.0
C2702 C 0.32755 0.61065 0.63414 0.0
C2703 C 0.3238 0.5886 0.63817 0.0
C2704 C 0.31011 0.62758 0.63695 0.0
C2705 C 0.35222 0.63937 0.62274 0.0
C2706 C 0.30444 0.63292 0.64995 0.0
C2707 C 0.28662 0.64736 0.65261 0.0
C2708 C 0.27394 0.65644 0.64229 0.0
C2709 C 0.27999 0.6514 0.62928 0.0
C2710 C 0.29788 0.63712 0.62664 0.0
H2711 H 0.37014 0.64157 0.62027 0.0
H2712 H 0.34227 0.64329 0.61385 0.0
H2713 H 0.34762 0.65153 0.6305 0.0
H2714 H 0.31358 0.6256 0.65805 0.0
H2715 H 0.28233 0.6508 0.66273 0.0
H2716 H 0.10728 0.5311 0.41239 0.0
H2717 H 0.13224 0.56261 0.40784 0.0
H2718 H 0.12694 0.54961 0.36635 0.0
H2719 H 0.10211 0.51817 0.37078 0.0
H2720 H 0.17399 0.55786 0.39373 0.0
H2721 H 0.11679 0.61812 0.36958 0.0
H2722 H 0.1069 0.59571 0.37992 0.0
H2723 H 0.11567 0.59003 0.3634 0.0
C2724 C 0.11114 0.53518 0.40229 0.0
C2725 C 0.10271 0.52212 0.39195 0.0
C2726 C 0.12543 0.55315 0.39971 0.0
C2727 C 0.13125 0.55858 0.38675 0.0
C2728 C 0.12238 0.54594 0.3764 0.0
H2729 H 0.22454 0.64865 0.34867 0.0
H2730 H 0.19415 0.62279 0.35399 0.0
C2731 C 0.10827 0.52789 0.37897 0.0
C2732 C 0.14796 0.57626 0.38404 0.0
H2733 H 0.15553 0.62619 0.36847 0.0
C2734 C 0.16994 0.57292 0.38832 0.0
C2735 C 0.14266 0.59571 0.37683 0.0
C2736 C 0.11919 0.60029 0.37223 0.0
C2737 C 0.1869 0.58826 0.38535 0.0
C2738 C 0.18161 0.60786 0.37822 0.0
C2739 C 0.15957 0.61123 0.37397 0.0
C2740 C 0.19883 0.62489 0.37502 0.0
C2741 C 0.21047 0.58291 0.38952 0.0
C2742 C 0.21106 0.63524 0.38506 0.0
C2743 C 0.2285 0.64983 0.38205 0.0
C2744 C 0.23387 0.65469 0.36892 0.0
C2745 C 0.22085 0.64523 0.35887 0.0
C2746 C 0.20349 0.63044 0.3619 0.0
H2747 H 0.21271 0.5648 0.39142 0.0
H2748 H 0.22269 0.58815 0.38193 0.0
H2749 H 0.21432 0.59197 0.39874 0.0
H2750 H 0.20737 0.63172 0.39526 0.0
H2751 H 0.23803 0.65702 0.39003 0.0
loop_
_geom_bond_atom_site_label_1
_geom_bond_atom_site_label_2
_geom_bond_distance
_geom_bond_site_symmetry_2
_ccdc_geom_bond_type
O0 Cd1 2.223 . S
O0 C8 1.315 . S
Cd1 O0 2.223 . S
Cd1 O4 2.297 . S
Cd1 O5 2.439 . S
Cd1 O11 2.240 . S
Cd2 O3 2.240 . S
Cd2 O10 2.223 . S
Cd2 O12 2.297 . S
Cd2 O13 2.439 . S
O3 Cd2 2.240 . S
O3 C8 1.279 . S
O4 Cd1 2.297 . S
O4 C6 1.247 . S
O5 Cd1 2.439 . S
O5 C6 1.208 . S
C6 O4 1.247 . S
C6 O5 1.208 . S
C7 O12 1.247 . S
C7 O13 1.208 . S
C8 O0 1.315 . S
C8 O3 1.279 . S
C9 O10 1.315 . S
C9 O11 1.279 . S
O10 Cd2 2.223 . S
O10 C9 1.315 . S
O11 Cd1 2.240 . S
O11 C9 1.279 . S
O12 Cd2 2.297 . S
O12 C7 1.247 . S
O13 Cd2 2.439 . S
O13 C7 1.208 . S
O14 Cd15 2.223 . S
O14 C22 1.315 . S
Cd15 O14 2.223 . S
Cd15 O18 2.297 . S
Cd15 O19 2.439 . S
Cd15 O25 2.240 . S
Cd16 O17 2.240 . S
Cd16 O24 2.223 . S
Cd16 O26 2.297 . S
Cd16 O27 2.439 . S
O17 Cd16 2.240 . S
O17 C22 1.279 . S
O18 Cd15 2.297 . S
O18 C20 1.247 . S
O19 Cd15 2.439 . S
O19 C20 1.208 . S
C20 O18 1.247 . S
C20 O19 1.208 . S
C21 O26 1.247 . S
C21 O27 1.208 . S
C22 O14 1.315 . S
C22 O17 1.279 . S
C23 O24 1.315 . S
C23 O25 1.279 . S
O24 Cd16 2.223 . S
O24 C23 1.315 . S
O25 Cd15 2.240 . S
O25 C23 1.279 . S
O26 Cd16 2.297 . S
O26 C21 1.247 . S
O27 Cd16 2.439 . S
O27 C21 1.208 . S
O28 Cd29 2.223 . S
O28 C36 1.315 . S
Cd29 O28 2.223 . S
Cd29 O32 2.297 . S
Cd29 O33 2.439 . S
Cd29 O39 2.240 . S
Cd30 O31 2.240 . S
Cd30 O38 2.223 . S
Cd30 O40 2.297 . S
Cd30 O41 2.439 . S
O31 Cd30 2.240 . S
O31 C36 1.279 . S
O32 Cd29 2.297 . S
O32 C34 1.247 . S
O33 Cd29 2.439 . S
O33 C34 1.208 . S
C34 O32 1.247 . S
C34 O33 1.208 . S
C35 O40 1.247 . S
C35 O41 1.208 . S
C36 O28 1.315 . S
C36 O31 1.279 . S
C37 O38 1.315 . S
C37 O39 1.279 . S
O38 Cd30 2.223 . S
O38 C37 1.315 . S
O39 Cd29 2.240 . S
O39 C37 1.279 . S
O40 Cd30 2.297 . S
O40 C35 1.247 . S
O41 Cd30 2.439 . S
O41 C35 1.208 . S
O42 Cd43 2.223 . S
O42 C50 1.315 . S
Cd43 O42 2.223 . S
Cd43 O46 2.297 . S
Cd43 O47 2.439 . S
Cd43 O53 2.240 . S
Cd44 O45 2.240 . S
Cd44 O52 2.223 . S
Cd44 O54 2.297 . S
Cd44 O55 2.439 . S
O45 Cd44 2.240 . S
O45 C50 1.279 . S
O46 Cd43 2.297 . S
O46 C48 1.247 . S
O47 Cd43 2.439 . S
O47 C48 1.208 . S
C48 O46 1.247 . S
C48 O47 1.208 . S
C49 O54 1.247 . S
C49 O55 1.208 . S
C50 O42 1.315 . S
C50 O45 1.279 . S
C51 O52 1.315 . S
C51 O53 1.279 . S
O52 Cd44 2.223 . S
O52 C51 1.315 . S
O53 Cd43 2.240 . S
O53 C51 1.279 . S
O54 Cd44 2.297 . S
O54 C49 1.247 . S
O55 Cd44 2.439 . S
O55 C49 1.208 . S
O56 Cd57 2.223 . S
O56 C64 1.315 . S
Cd57 O56 2.223 . S
Cd57 O60 2.297 . S
Cd57 O61 2.439 . S
Cd57 O67 2.240 . S
Cd58 O59 2.240 . S
Cd58 O66 2.223 . S
Cd58 O68 2.297 . S
Cd58 O69 2.439 . S
O59 Cd58 2.240 . S
O59 C64 1.279 . S
O60 Cd57 2.297 . S
O60 C62 1.247 . S
O61 Cd57 2.439 . S
O61 C62 1.208 . S
C62 O60 1.247 . S
C62 O61 1.208 . S
C63 O68 1.247 . S
C63 O69 1.208 . S
C64 O56 1.315 . S
C64 O59 1.279 . S
C65 O66 1.315 . S
C65 O67 1.279 . S
O66 Cd58 2.223 . S
O66 C65 1.315 . S
O67 Cd57 2.240 . S
O67 C65 1.279 . S
O68 Cd58 2.297 . S
O68 C63 1.247 . S
O69 Cd58 2.439 . S
O69 C63 1.208 . S
O70 Cd71 2.223 . S
O70 C78 1.315 . S
Cd71 O70 2.223 . S
Cd71 O74 2.297 . S
Cd71 O75 2.439 . S
Cd71 O81 2.240 . S
Cd72 O73 2.240 . S
Cd72 O80 2.223 . S
Cd72 O82 2.297 . S
Cd72 O83 2.439 . S
O73 Cd72 2.240 . S
O73 C78 1.279 . S
O74 Cd71 2.297 . S
O74 C76 1.247 . S
O75 Cd71 2.439 . S
O75 C76 1.208 . S
C76 O74 1.247 . S
C76 O75 1.208 . S
C77 O82 1.247 . S
C77 O83 1.208 . S
C78 O70 1.315 . S
C78 O73 1.279 . S
C79 O80 1.315 . S
C79 O81 1.279 . S
O80 Cd72 2.223 . S
O80 C79 1.315 . S
O81 Cd71 2.240 . S
O81 C79 1.279 . S
O82 Cd72 2.297 . S
O82 C77 1.247 . S
O83 Cd72 2.439 . S
O83 C77 1.208 . S
O84 Cd85 2.223 . S
O84 C92 1.315 . S
Cd85 O84 2.223 . S
Cd85 O88 2.297 . S
Cd85 O89 2.439 . S
Cd85 O95 2.240 . S
Cd86 O87 2.240 . S
Cd86 O94 2.223 . S
Cd86 O96 2.297 . S
Cd86 O97 2.439 . S
O87 Cd86 2.240 . S
O87 C92 1.279 . S
O88 Cd85 2.297 . S
O88 C90 1.247 . S
O89 Cd85 2.439 . S
O89 C90 1.208 . S
C90 O88 1.247 . S
C90 O89 1.208 . S
C91 O96 1.247 . S
C91 O97 1.208 . S
C92 O84 1.315 . S
C92 O87 1.279 . S
C93 O94 1.315 . S
C93 O95 1.279 . S
O94 Cd86 2.223 . S
O94 C93 1.315 . S
O95 Cd85 2.240 . S
O95 C93 1.279 . S
O96 Cd86 2.297 . S
O96 C91 1.247 . S
O97 Cd86 2.439 . S
O97 C91 1.208 . S
O98 Cd99 2.223 . S
O98 C106 1.315 . S
Cd99 O98 2.223 . S
Cd99 O102 2.297 . S
Cd99 O103 2.439 . S
Cd99 O109 2.240 . S
Cd100 O101 2.240 . S
Cd100 O108 2.223 . S
Cd100 O110 2.297 . S
Cd100 O111 2.439 . S
O101 Cd100 2.240 . S
O101 C106 1.279 . S
O102 Cd99 2.297 . S
O102 C104 1.247 . S
O103 Cd99 2.439 . S
O103 C104 1.208 . S
C104 O102 1.247 . S
C104 O103 1.208 . S
C105 O110 1.247 . S
C105 O111 1.208 . S
C106 O98 1.315 . S
C106 O101 1.279 . S
C107 O108 1.315 . S
C107 O109 1.279 . S
O108 Cd100 2.223 . S
O108 C107 1.315 . S
O109 Cd99 2.240 . S
O109 C107 1.279 . S
O110 Cd100 2.297 . S
O110 C105 1.247 . S
O111 Cd100 2.439 . S
O111 C105 1.208 . S
O112 Cd113 2.223 . S
O112 C120 1.315 . S
Cd113 O112 2.223 . S
Cd113 O116 2.297 . S
Cd113 O117 2.439 . S
Cd113 O123 2.240 . S
Cd114 O115 2.240 . S
Cd114 O122 2.223 . S
Cd114 O124 2.297 . S
Cd114 O125 2.439 . S
O115 Cd114 2.240 . S
O115 C120 1.279 . S
O116 Cd113 2.297 . S
O116 C118 1.247 . S
O117 Cd113 2.439 . S
O117 C118 1.208 . S
C118 O116 1.247 . S
C118 O117 1.208 . S
C119 O124 1.247 . S
C119 O125 1.208 . S
C120 O112 1.315 . S
C120 O115 1.279 . S
C121 O122 1.315 . S
C121 O123 1.279 . S
O122 Cd114 2.223 . S
O122 C121 1.315 . S
O123 Cd113 2.240 . S
O123 C121 1.279 . S
O124 Cd114 2.297 . S
O124 C119 1.247 . S
O125 Cd114 2.439 . S
O125 C119 1.208 . S
O126 Cd127 2.223 . S
O126 C134 1.315 . S
Cd127 O126 2.223 . S
Cd127 O130 2.297 . S
Cd127 O131 2.439 . S
Cd127 O137 2.240 . S
Cd128 O129 2.240 . S
Cd128 O136 2.223 . S
Cd128 O138 2.297 . S
Cd128 O139 2.439 . S
O129 Cd128 2.240 . S
O129 C134 1.279 . S
O130 Cd127 2.297 . S
O130 C132 1.247 . S
O131 Cd127 2.439 . S
O131 C132 1.208 . S
C132 O130 1.247 . S
C132 O131 1.208 . S
C133 O138 1.247 . S
C133 O139 1.208 . S
C134 O126 1.315 . S
C134 O129 1.279 . S
C135 O136 1.315 . S
C135 O137 1.279 . S
O136 Cd128 2.223 . S
O136 C135 1.315 . S
O137 Cd127 2.240 . S
O137 C135 1.279 . S
O138 Cd128 2.297 . S
O138 C133 1.247 . S
O139 Cd128 2.439 . S
O139 C133 1.208 . S
O140 Cd141 2.223 . S
O140 C148 1.315 . S
Cd141 O140 2.223 . S
Cd141 O144 2.297 . S
Cd141 O145 2.439 . S
Cd141 O151 2.240 . S
Cd142 O143 2.240 . S
Cd142 O150 2.223 . S
Cd142 O152 2.297 . S
Cd142 O153 2.439 . S
O143 Cd142 2.240 . S
O143 C148 1.279 . S
O144 Cd141 2.297 . S
O144 C146 1.247 . S
O145 Cd141 2.439 . S
O145 C146 1.208 . S
C146 O144 1.247 . S
C146 O145 1.208 . S
C147 O152 1.247 . S
C147 O153 1.208 . S
C148 O140 1.315 . S
C148 O143 1.279 . S
C149 O150 1.315 . S
C149 O151 1.279 . S
O150 Cd142 2.223 . S
O150 C149 1.315 . S
O151 Cd141 2.240 . S
O151 C149 1.279 . S
O152 Cd142 2.297 . S
O152 C147 1.247 . S
O153 Cd142 2.439 . S
O153 C147 1.208 . S
O154 Cd155 2.223 . S
O154 C162 1.315 . S
Cd155 O154 2.223 . S
Cd155 O158 2.297 . S
Cd155 O159 2.439 . S
Cd155 O165 2.240 . S
Cd156 O157 2.240 . S
Cd156 O164 2.223 . S
Cd156 O166 2.297 . S
Cd156 O167 2.439 . S
O157 Cd156 2.240 . S
O157 C162 1.279 . S
O158 Cd155 2.297 . S
O158 C160 1.247 . S
O159 Cd155 2.439 . S
O159 C160 1.208 . S
C160 O158 1.247 . S
C160 O159 1.208 . S
C161 O166 1.247 . S
C161 O167 1.208 . S
C162 O154 1.315 . S
C162 O157 1.279 . S
C163 O164 1.315 . S
C163 O165 1.279 . S
O164 Cd156 2.223 . S
O164 C163 1.315 . S
O165 Cd155 2.240 . S
O165 C163 1.279 . S
O166 Cd156 2.297 . S
O166 C161 1.247 . S
O167 Cd156 2.439 . S
O167 C161 1.208 . S
O168 Cd169 2.223 . S
O168 C176 1.315 . S
Cd169 O168 2.223 . S
Cd169 O172 2.297 . S
Cd169 O173 2.439 . S
Cd169 O179 2.240 . S
Cd170 O171 2.240 . S
Cd170 O178 2.223 . S
Cd170 O180 2.297 . S
Cd170 O181 2.439 . S
O171 Cd170 2.240 . S
O171 C176 1.279 . S
O172 Cd169 2.297 . S
O172 C174 1.247 . S
O173 Cd169 2.439 . S
O173 C174 1.208 . S
C174 O172 1.247 . S
C174 O173 1.208 . S
C175 O180 1.247 . S
C175 O181 1.208 . S
C176 O168 1.315 . S
C176 O171 1.279 . S
C177 O178 1.315 . S
C177 O179 1.279 . S
O178 Cd170 2.223 . S
O178 C177 1.315 . S
O179 Cd169 2.240 . S
O179 C177 1.279 . S
O180 Cd170 2.297 . S
O180 C175 1.247 . S
O181 Cd170 2.439 . S
O181 C175 1.208 . S
O182 Cd183 2.223 . S
O182 C190 1.315 . S
Cd183 O182 2.223 . S
Cd183 O186 2.297 . S
Cd183 O187 2.439 . S
Cd183 O193 2.240 . S
Cd184 O185 2.240 . S
Cd184 O192 2.223 . S
Cd184 O194 2.297 . S
Cd184 O195 2.439 . S
O185 Cd184 2.240 . S
O185 C190 1.279 . S
O186 Cd183 2.297 . S
O186 C188 1.247 . S
O187 Cd183 2.439 . S
O187 C188 1.208 . S
C188 O186 1.247 . S
C188 O187 1.208 . S
C189 O194 1.247 . S
C189 O195 1.208 . S
C190 O182 1.315 . S
C190 O185 1.279 . S
C191 O192 1.315 . S
C191 O193 1.279 . S
O192 Cd184 2.223 . S
O192 C191 1.315 . S
O193 Cd183 2.240 . S
O193 C191 1.279 . S
O194 Cd184 2.297 . S
O194 C189 1.247 . S
O195 Cd184 2.439 . S
O195 C189 1.208 . S
O196 Cd197 2.223 . S
O196 C204 1.315 . S
Cd197 O196 2.223 . S
Cd197 O200 2.297 . S
Cd197 O201 2.439 . S
Cd197 O207 2.240 . S
Cd198 O199 2.240 . S
Cd198 O206 2.223 . S
Cd198 O208 2.297 . S
Cd198 O209 2.439 . S
O199 Cd198 2.240 . S
O199 C204 1.279 . S
O200 Cd197 2.297 . S
O200 C202 1.247 . S
O201 Cd197 2.439 . S
O201 C202 1.208 . S
C202 O200 1.247 . S
C202 O201 1.208 . S
C203 O208 1.247 . S
C203 O209 1.208 . S
C204 O196 1.315 . S
C204 O199 1.279 . S
C205 O206 1.315 . S
C205 O207 1.279 . S
O206 Cd198 2.223 . S
O206 C205 1.315 . S
O207 Cd197 2.240 . S
O207 C205 1.279 . S
O208 Cd198 2.297 . S
O208 C203 1.247 . S
O209 Cd198 2.439 . S
O209 C203 1.208 . S
O210 Cd211 2.223 . S
O210 C218 1.315 . S
Cd211 O210 2.223 . S
Cd211 O214 2.297 . S
Cd211 O215 2.439 . S
Cd211 O221 2.240 . S
Cd212 O213 2.240 . S
Cd212 O220 2.223 . S
Cd212 O222 2.297 . S
Cd212 O223 2.439 . S
O213 Cd212 2.240 . S
O213 C218 1.279 . S
O214 Cd211 2.297 . S
O214 C216 1.247 . S
O215 Cd211 2.439 . S
O215 C216 1.208 . S
C216 O214 1.247 . S
C216 O215 1.208 . S
C217 O222 1.247 . S
C217 O223 1.208 . S
C218 O210 1.315 . S
C218 O213 1.279 . S
C219 O220 1.315 . S
C219 O221 1.279 . S
O220 Cd212 2.223 . S
O220 C219 1.315 . S
O221 Cd211 2.240 . S
O221 C219 1.279 . S
O222 Cd212 2.297 . S
O222 C217 1.247 . S
O223 Cd212 2.439 . S
O223 C217 1.208 . S
O224 Cd225 2.223 . S
O224 C232 1.315 . S
Cd225 O224 2.223 . S
Cd225 O228 2.297 . S
Cd225 O229 2.439 . S
Cd225 O235 2.240 . S
Cd226 O227 2.240 . S
Cd226 O234 2.223 . S
Cd226 O236 2.297 . S
Cd226 O237 2.439 . S
O227 Cd226 2.240 . S
O227 C232 1.279 . S
O228 Cd225 2.297 . S
O228 C230 1.247 . S
O229 Cd225 2.439 . S
O229 C230 1.208 . S
C230 O228 1.247 . S
C230 O229 1.208 . S
C231 O236 1.247 . S
C231 O237 1.208 . S
C232 O224 1.315 . S
C232 O227 1.279 . S
C233 O234 1.315 . S
C233 O235 1.279 . S
O234 Cd226 2.223 . S
O234 C233 1.315 . S
O235 Cd225 2.240 . S
O235 C233 1.279 . S
O236 Cd226 2.297 . S
O236 C231 1.247 . S
O237 Cd226 2.439 . S
O237 C231 1.208 . S
O238 Cd239 2.223 . S
O238 C246 1.315 . S
Cd239 O238 2.223 . S
Cd239 O242 2.297 . S
Cd239 O243 2.439 . S
Cd239 O249 2.240 . S
Cd240 O241 2.240 . S
Cd240 O248 2.223 . S
Cd240 O250 2.297 . S
Cd240 O251 2.439 . S
O241 Cd240 2.240 . S
O241 C246 1.279 . S
O242 Cd239 2.297 . S
O242 C244 1.247 . S
O243 Cd239 2.439 . S
O243 C244 1.208 . S
C244 O242 1.247 . S
C244 O243 1.208 . S
C245 O250 1.247 . S
C245 O251 1.208 . S
C246 O238 1.315 . S
C246 O241 1.279 . S
C247 O248 1.315 . S
C247 O249 1.279 . S
O248 Cd240 2.223 . S
O248 C247 1.315 . S
O249 Cd239 2.240 . S
O249 C247 1.279 . S
O250 Cd240 2.297 . S
O250 C245 1.247 . S
O251 Cd240 2.439 . S
O251 C245 1.208 . S
O252 Cd253 2.223 . S
O252 C260 1.315 . S
Cd253 O252 2.223 . S
Cd253 O256 2.297 . S
Cd253 O257 2.439 . S
Cd253 O263 2.240 . S
Cd254 O255 2.240 . S
Cd254 O262 2.223 . S
Cd254 O264 2.297 . S
Cd254 O265 2.439 . S
O255 Cd254 2.240 . S
O255 C260 1.279 . S
O256 Cd253 2.297 . S
O256 C258 1.247 . S
O257 Cd253 2.439 . S
O257 C258 1.208 . S
C258 O256 1.247 . S
C258 O257 1.208 . S
C259 O264 1.247 . S
C259 O265 1.208 . S
C260 O252 1.315 . S
C260 O255 1.279 . S
C261 O262 1.315 . S
C261 O263 1.279 . S
O262 Cd254 2.223 . S
O262 C261 1.315 . S
O263 Cd253 2.240 . S
O263 C261 1.279 . S
O264 Cd254 2.297 . S
O264 C259 1.247 . S
O265 Cd254 2.439 . S
O265 C259 1.208 . S
O266 Cd267 2.223 . S
O266 C274 1.315 . S
Cd267 O266 2.223 . S
Cd267 O270 2.297 . S
Cd267 O271 2.439 . S
Cd267 O277 2.240 . S
Cd268 O269 2.240 . S
Cd268 O276 2.223 . S
Cd268 O278 2.297 . S
Cd268 O279 2.439 . S
O269 Cd268 2.240 . S
O269 C274 1.279 . S
O270 Cd267 2.297 . S
O270 C272 1.247 . S
O271 Cd267 2.439 . S
O271 C272 1.208 . S
C272 O270 1.247 . S
C272 O271 1.208 . S
C273 O278 1.247 . S
C273 O279 1.208 . S
C274 O266 1.315 . S
C274 O269 1.279 . S
C275 O276 1.315 . S
C275 O277 1.279 . S
O276 Cd268 2.223 . S
O276 C275 1.315 . S
O277 Cd267 2.240 . S
O277 C275 1.279 . S
O278 Cd268 2.297 . S
O278 C273 1.247 . S
O279 Cd268 2.439 . S
O279 C273 1.208 . S
O280 Cd281 2.223 . S
O280 C288 1.315 . S
Cd281 O280 2.223 . S
Cd281 O284 2.297 . S
Cd281 O285 2.439 . S
Cd281 O291 2.240 . S
Cd282 O283 2.240 . S
Cd282 O290 2.223 . S
Cd282 O292 2.297 . S
Cd282 O293 2.439 . S
O283 Cd282 2.240 . S
O283 C288 1.279 . S
O284 Cd281 2.297 . S
O284 C286 1.247 . S
O285 Cd281 2.439 . S
O285 C286 1.208 . S
C286 O284 1.247 . S
C286 O285 1.208 . S
C287 O292 1.247 . S
C287 O293 1.208 . S
C288 O280 1.315 . S
C288 O283 1.279 . S
C289 O290 1.315 . S
C289 O291 1.279 . S
O290 Cd282 2.223 . S
O290 C289 1.315 . S
O291 Cd281 2.240 . S
O291 C289 1.279 . S
O292 Cd282 2.297 . S
O292 C287 1.247 . S
O293 Cd282 2.439 . S
O293 C287 1.208 . S
O294 Cd295 2.223 . S
O294 C302 1.315 . S
Cd295 O294 2.223 . S
Cd295 O298 2.297 . S
Cd295 O299 2.439 . S
Cd295 O305 2.240 . S
Cd296 O297 2.240 . S
Cd296 O304 2.223 . S
Cd296 O306 2.297 . S
Cd296 O307 2.439 . S
O297 Cd296 2.240 . S
O297 C302 1.279 . S
O298 Cd295 2.297 . S
O298 C300 1.247 . S
O299 Cd295 2.439 . S
O299 C300 1.208 . S
C300 O298 1.247 . S
C300 O299 1.208 . S
C301 O306 1.247 . S
C301 O307 1.208 . S
C302 O294 1.315 . S
C302 O297 1.279 . S
C303 O304 1.315 . S
C303 O305 1.279 . S
O304 Cd296 2.223 . S
O304 C303 1.315 . S
O305 Cd295 2.240 . S
O305 C303 1.279 . S
O306 Cd296 2.297 . S
O306 C301 1.247 . S
O307 Cd296 2.439 . S
O307 C301 1.208 . S
O308 Cd309 2.223 . S
O308 C316 1.315 . S
Cd309 O308 2.223 . S
Cd309 O312 2.297 . S
Cd309 O313 2.439 . S
Cd309 O319 2.240 . S
Cd310 O311 2.240 . S
Cd310 O318 2.223 . S
Cd310 O320 2.297 . S
Cd310 O321 2.439 . S
O311 Cd310 2.240 . S
O311 C316 1.279 . S
O312 Cd309 2.297 . S
O312 C314 1.247 . S
O313 Cd309 2.439 . S
O313 C314 1.208 . S
C314 O312 1.247 . S
C314 O313 1.208 . S
C315 O320 1.247 . S
C315 O321 1.208 . S
C316 O308 1.315 . S
C316 O311 1.279 . S
C317 O318 1.315 . S
C317 O319 1.279 . S
O318 Cd310 2.223 . S
O318 C317 1.315 . S
O319 Cd309 2.240 . S
O319 C317 1.279 . S
O320 Cd310 2.297 . S
O320 C315 1.247 . S
O321 Cd310 2.439 . S
O321 C315 1.208 . S
O322 Cd323 2.223 . S
O322 C330 1.315 . S
Cd323 O322 2.223 . S
Cd323 O326 2.297 . S
Cd323 O327 2.439 . S
Cd323 O333 2.240 . S
Cd324 O325 2.240 . S
Cd324 O332 2.223 . S
Cd324 O334 2.297 . S
Cd324 O335 2.439 . S
O325 Cd324 2.240 . S
O325 C330 1.279 . S
O326 Cd323 2.297 . S
O326 C328 1.247 . S
O327 Cd323 2.439 . S
O327 C328 1.208 . S
C328 O326 1.247 . S
C328 O327 1.208 . S
C329 O334 1.247 . S
C329 O335 1.208 . S
C330 O322 1.315 . S
C330 O325 1.279 . S
C331 O332 1.315 . S
C331 O333 1.279 . S
O332 Cd324 2.223 . S
O332 C331 1.315 . S
O333 Cd323 2.240 . S
O333 C331 1.279 . S
O334 Cd324 2.297 . S
O334 C329 1.247 . S
O335 Cd324 2.439 . S
O335 C329 1.208 . S
O336 Cd337 2.223 . S
O336 C344 1.315 . S
Cd337 O336 2.223 . S
Cd337 O340 2.297 . S
Cd337 O341 2.439 . S
Cd337 O347 2.240 . S
Cd338 O339 2.240 . S
Cd338 O346 2.223 . S
Cd338 O348 2.297 . S
Cd338 O349 2.439 . S
O339 Cd338 2.240 . S
O339 C344 1.279 . S
O340 Cd337 2.297 . S
O340 C342 1.247 . S
O341 Cd337 2.439 . S
O341 C342 1.208 . S
C342 O340 1.247 . S
C342 O341 1.208 . S
C343 O348 1.247 . S
C343 O349 1.208 . S
C344 O336 1.315 . S
C344 O339 1.279 . S
C345 O346 1.315 . S
C345 O347 1.279 . S
O346 Cd338 2.223 . S
O346 C345 1.315 . S
O347 Cd337 2.240 . S
O347 C345 1.279 . S
O348 Cd338 2.297 . S
O348 C343 1.247 . S
O349 Cd338 2.439 . S
O349 C343 1.208 . S
O350 Cd351 2.223 . S
O350 C358 1.315 . S
Cd351 O350 2.223 . S
Cd351 O354 2.297 . S
Cd351 O355 2.439 . S
Cd351 O361 2.240 . S
Cd352 O353 2.240 . S
Cd352 O360 2.223 . S
Cd352 O362 2.297 . S
Cd352 O363 2.439 . S
O353 Cd352 2.240 . S
O353 C358 1.279 . S
O354 Cd351 2.297 . S
O354 C356 1.247 . S
O355 Cd351 2.439 . S
O355 C356 1.208 . S
C356 O354 1.247 . S
C356 O355 1.208 . S
C357 O362 1.247 . S
C357 O363 1.208 . S
C358 O350 1.315 . S
C358 O353 1.279 . S
C359 O360 1.315 . S
C359 O361 1.279 . S
O360 Cd352 2.223 . S
O360 C359 1.315 . S
O361 Cd351 2.240 . S
O361 C359 1.279 . S
O362 Cd352 2.297 . S
O362 C357 1.247 . S
O363 Cd352 2.439 . S
O363 C357 1.208 . S
O364 Cd365 2.223 . S
O364 C372 1.315 . S
Cd365 O364 2.223 . S
Cd365 O368 2.297 . S
Cd365 O369 2.439 . S
Cd365 O375 2.240 . S
Cd366 O367 2.240 . S
Cd366 O374 2.223 . S
Cd366 O376 2.297 . S
Cd366 O377 2.439 . S
O367 Cd366 2.240 . S
O367 C372 1.279 . S
O368 Cd365 2.297 . S
O368 C370 1.247 . S
O369 Cd365 2.439 . S
O369 C370 1.208 . S
C370 O368 1.247 . S
C370 O369 1.208 . S
C371 O376 1.247 . S
C371 O377 1.208 . S
C372 O364 1.315 . S
C372 O367 1.279 . S
C373 O374 1.315 . S
C373 O375 1.279 . S
O374 Cd366 2.223 . S
O374 C373 1.315 . S
O375 Cd365 2.240 . S
O375 C373 1.279 . S
O376 Cd366 2.297 . S
O376 C371 1.247 . S
O377 Cd366 2.439 . S
O377 C371 1.208 . S
O378 Cd379 2.223 . S
O378 C386 1.315 . S
Cd379 O378 2.223 . S
Cd379 O382 2.297 . S
Cd379 O383 2.439 . S
Cd379 O389 2.240 . S
Cd380 O381 2.240 . S
Cd380 O388 2.223 . S
Cd380 O390 2.297 . S
Cd380 O391 2.439 . S
O381 Cd380 2.240 . S
O381 C386 1.279 . S
O382 Cd379 2.297 . S
O382 C384 1.247 . S
O383 Cd379 2.439 . S
O383 C384 1.208 . S
C384 O382 1.247 . S
C384 O383 1.208 . S
C385 O390 1.247 . S
C385 O391 1.208 . S
C386 O378 1.315 . S
C386 O381 1.279 . S
C387 O388 1.315 . S
C387 O389 1.279 . S
O388 Cd380 2.223 . S
O388 C387 1.315 . S
O389 Cd379 2.240 . S
O389 C387 1.279 . S
O390 Cd380 2.297 . S
O390 C385 1.247 . S
O391 Cd380 2.439 . S
O391 C385 1.208 . S
O392 Cd393 2.223 . S
O392 C400 1.315 . S
Cd393 O392 2.223 . S
Cd393 O396 2.297 . S
Cd393 O397 2.439 . S
Cd393 O403 2.240 . S
Cd394 O395 2.240 . S
Cd394 O402 2.223 . S
Cd394 O404 2.297 . S
Cd394 O405 2.439 . S
O395 Cd394 2.240 . S
O395 C400 1.279 . S
O396 Cd393 2.297 . S
O396 C398 1.247 . S
O397 Cd393 2.439 . S
O397 C398 1.208 . S
C398 O396 1.247 . S
C398 O397 1.208 . S
C399 O404 1.247 . S
C399 O405 1.208 . S
C400 O392 1.315 . S
C400 O395 1.279 . S
C401 O402 1.315 . S
C401 O403 1.279 . S
O402 Cd394 2.223 . S
O402 C401 1.315 . S
O403 Cd393 2.240 . S
O403 C401 1.279 . S
O404 Cd394 2.297 . S
O404 C399 1.247 . S
O405 Cd394 2.439 . S
O405 C399 1.208 . S
O406 Cd407 2.223 . S
O406 C414 1.315 . S
Cd407 O406 2.223 . S
Cd407 O410 2.297 . S
Cd407 O411 2.439 . S
Cd407 O417 2.240 . S
Cd408 O409 2.240 . S
Cd408 O416 2.223 . S
Cd408 O418 2.297 . S
Cd408 O419 2.439 . S
O409 Cd408 2.240 . S
O409 C414 1.279 . S
O410 Cd407 2.297 . S
O410 C412 1.247 . S
O411 Cd407 2.439 . S
O411 C412 1.208 . S
C412 O410 1.247 . S
C412 O411 1.208 . S
C413 O418 1.247 . S
C413 O419 1.208 . S
C414 O406 1.315 . S
C414 O409 1.279 . S
C415 O416 1.315 . S
C415 O417 1.279 . S
O416 Cd408 2.223 . S
O416 C415 1.315 . S
O417 Cd407 2.240 . S
O417 C415 1.279 . S
O418 Cd408 2.297 . S
O418 C413 1.247 . S
O419 Cd408 2.439 . S
O419 C413 1.208 . S
O420 Cd421 2.223 . S
O420 C428 1.315 . S
Cd421 O420 2.223 . S
Cd421 O424 2.297 . S
Cd421 O425 2.439 . S
Cd421 O431 2.240 . S
Cd422 O423 2.240 . S
Cd422 O430 2.223 . S
Cd422 O432 2.297 . S
Cd422 O433 2.439 . S
O423 Cd422 2.240 . S
O423 C428 1.279 . S
O424 Cd421 2.297 . S
O424 C426 1.247 . S
O425 Cd421 2.439 . S
O425 C426 1.208 . S
C426 O424 1.247 . S
C426 O425 1.208 . S
C427 O432 1.247 . S
C427 O433 1.208 . S
C428 O420 1.315 . S
C428 O423 1.279 . S
C429 O430 1.315 . S
C429 O431 1.279 . S
O430 Cd422 2.223 . S
O430 C429 1.315 . S
O431 Cd421 2.240 . S
O431 C429 1.279 . S
O432 Cd422 2.297 . S
O432 C427 1.247 . S
O433 Cd422 2.439 . S
O433 C427 1.208 . S
O434 Cd435 2.223 . S
O434 C442 1.315 . S
Cd435 O434 2.223 . S
Cd435 O438 2.297 . S
Cd435 O439 2.439 . S
Cd435 O445 2.240 . S
Cd436 O437 2.240 . S
Cd436 O444 2.223 . S
Cd436 O446 2.297 . S
Cd436 O447 2.439 . S
O437 Cd436 2.240 . S
O437 C442 1.279 . S
O438 Cd435 2.297 . S
O438 C440 1.247 . S
O439 Cd435 2.439 . S
O439 C440 1.208 . S
C440 O438 1.247 . S
C440 O439 1.208 . S
C441 O446 1.247 . S
C441 O447 1.208 . S
C442 O434 1.315 . S
C442 O437 1.279 . S
C443 O444 1.315 . S
C443 O445 1.279 . S
O444 Cd436 2.223 . S
O444 C443 1.315 . S
O445 Cd435 2.240 . S
O445 C443 1.279 . S
O446 Cd436 2.297 . S
O446 C441 1.247 . S
O447 Cd436 2.439 . S
O447 C441 1.208 . S
H448 C456 0.929 . S
H449 C458 0.930 . S
H450 C460 0.930 . S
H451 C463 0.929 . S
H452 C466 0.930 . S
H453 C468 0.960 . S
H454 C468 0.960 . S
H455 C468 0.960 . S
C456 H448 0.929 . S
C456 C457 1.377 . S
C456 C458 1.384 . S
C457 C456 1.377 . S
C457 C463 1.390 . S
C458 H449 0.930 . S
C458 C456 1.384 . S
C458 C459 1.372 . S
C459 C458 1.372 . S
C459 C460 1.400 . S
C459 C464 1.490 . S
C460 H450 0.930 . S
C460 C459 1.400 . S
C460 C463 1.386 . S
H461 C477 0.930 . S
H462 C478 0.931 . S
C463 H451 0.929 . S
C463 C457 1.390 . S
C463 C460 1.386 . S
C464 C459 1.490 . S
C464 C466 1.395 . S
C464 C467 1.403 . S
H465 C471 0.930 . S
C466 H452 0.930 . S
C466 C464 1.395 . S
C466 C469 1.403 . S
C467 C464 1.403 . S
C467 C468 1.524 . S
C467 C471 1.400 . S
C468 H453 0.960 . S
C468 H454 0.960 . S
C468 H455 0.960 . S
C468 C467 1.524 . S
C469 C466 1.403 . S
C469 C470 1.392 . S
C469 C473 1.495 . S
C470 C469 1.392 . S
C470 C471 1.385 . S
C470 C472 1.478 . S
C471 H465 0.930 . S
C471 C467 1.400 . S
C471 C470 1.385 . S
C472 C470 1.478 . S
C472 C474 1.381 . S
C472 C478 1.383 . S
C473 C469 1.495 . S
C473 H479 0.959 . S
C473 H480 0.961 . S
C473 H481 0.960 . S
C474 C472 1.381 . S
C474 C475 1.394 . S
C474 H482 0.930 . S
C475 C474 1.394 . S
C475 C476 1.383 . S
C475 H483 0.929 . S
C476 C475 1.383 . S
C476 C477 1.377 . S
C477 H461 0.930 . S
C477 C476 1.377 . S
C477 C478 1.379 . S
C478 H462 0.931 . S
C478 C472 1.383 . S
C478 C477 1.379 . S
H479 C473 0.959 . S
H480 C473 0.961 . S
H481 C473 0.960 . S
H482 C474 0.930 . S
H483 C475 0.929 . S
H484 C492 0.929 . S
H485 C494 0.930 . S
H486 C496 0.930 . S
H487 C499 0.929 . S
H488 C502 0.930 . S
H489 C504 0.960 . S
H490 C504 0.960 . S
H491 C504 0.960 . S
C492 H484 0.929 . S
C492 C493 1.377 . S
C492 C494 1.384 1_455 S
C493 C492 1.377 . S
C493 C499 1.390 1_455 S
C494 H485 0.930 . S
C494 C492 1.384 1_655 S
C494 C495 1.372 . S
C495 C494 1.372 . S
C495 C496 1.400 . S
C495 C500 1.490 . S
C496 H486 0.930 . S
C496 C495 1.400 . S
C496 C499 1.386 . S
H497 C513 0.930 . S
H498 C514 0.931 . S
C499 H487 0.929 . S
C499 C493 1.390 1_655 S
C499 C496 1.386 . S
C500 C495 1.490 . S
C500 C502 1.395 . S
C500 C503 1.403 . S
H501 C507 0.930 . S
C502 H488 0.930 . S
C502 C500 1.395 . S
C502 C505 1.403 . S
C503 C500 1.403 . S
C503 C504 1.524 . S
C503 C507 1.400 . S
C504 H489 0.960 . S
C504 H490 0.960 . S
C504 H491 0.960 . S
C504 C503 1.524 . S
C505 C502 1.403 . S
C505 C506 1.392 . S
C505 C509 1.495 . S
C506 C505 1.392 . S
C506 C507 1.385 . S
C506 C508 1.478 . S
C507 H501 0.930 . S
C507 C503 1.400 . S
C507 C506 1.385 . S
C508 C506 1.478 . S
C508 C510 1.381 . S
C508 C514 1.383 . S
C509 C505 1.495 . S
C509 H515 0.959 . S
C509 H516 0.961 . S
C509 H517 0.960 . S
C510 C508 1.381 . S
C510 C511 1.394 . S
C510 H518 0.930 . S
C511 C510 1.394 . S
C511 C512 1.383 . S
C511 H519 0.929 . S
C512 C511 1.383 . S
C512 C513 1.377 . S
C513 H497 0.930 . S
C513 C512 1.377 . S
C513 C514 1.379 . S
C514 H498 0.931 . S
C514 C508 1.383 . S
C514 C513 1.379 . S
H515 C509 0.959 . S
H516 C509 0.961 . S
H517 C509 0.960 . S
H518 C510 0.930 . S
H519 C511 0.929 . S
H520 C528 0.929 . S
H521 C530 0.930 . S
H522 C532 0.930 . S
H523 C535 0.929 . S
H524 C538 0.930 . S
H525 C540 0.960 . S
H526 C540 0.960 . S
H527 C540 0.960 . S
C528 H520 0.929 . S
C528 C529 1.377 . S
C528 C530 1.384 . S
C529 C528 1.377 . S
C529 C535 1.390 . S
C530 H521 0.930 . S
C530 C528 1.384 . S
C530 C531 1.372 . S
C531 C530 1.372 . S
C531 C532 1.400 . S
C531 C536 1.490 . S
C532 H522 0.930 . S
C532 C531 1.400 . S
C532 C535 1.386 . S
H533 C549 0.930 . S
H534 C550 0.931 . S
C535 H523 0.929 . S
C535 C529 1.390 . S
C535 C532 1.386 . S
C536 C531 1.490 . S
C536 C538 1.395 . S
C536 C539 1.403 . S
H537 C543 0.930 . S
C538 H524 0.930 . S
C538 C536 1.395 . S
C538 C541 1.403 . S
C539 C536 1.403 . S
C539 C540 1.524 . S
C539 C543 1.400 . S
C540 H525 0.960 . S
C540 H526 0.960 . S
C540 H527 0.960 . S
C540 C539 1.524 . S
C541 C538 1.403 . S
C541 C542 1.392 . S
C541 C545 1.495 . S
C542 C541 1.392 . S
C542 C543 1.385 . S
C542 C544 1.478 . S
C543 H537 0.930 . S
C543 C539 1.400 . S
C543 C542 1.385 . S
C544 C542 1.478 . S
C544 C546 1.381 . S
C544 C550 1.383 . S
C545 C541 1.495 . S
C545 H551 0.959 . S
C545 H552 0.961 . S
C545 H553 0.960 . S
C546 C544 1.381 . S
C546 C547 1.394 . S
C546 H554 0.930 . S
C547 C546 1.394 . S
C547 C548 1.383 . S
C547 H555 0.929 . S
C548 C547 1.383 . S
C548 C549 1.377 . S
C549 H533 0.930 . S
C549 C548 1.377 . S
C549 C550 1.379 . S
C550 H534 0.931 . S
C550 C544 1.383 . S
C550 C549 1.379 . S
H551 C545 0.959 . S
H552 C545 0.961 . S
H553 C545 0.960 . S
H554 C546 0.930 . S
H555 C547 0.929 . S
H556 C564 0.929 . S
H557 C566 0.930 . S
H558 C568 0.930 . S
H559 C571 0.929 . S
H560 C574 0.930 . S
H561 C576 0.960 . S
H562 C576 0.960 . S
H563 C576 0.960 . S
C564 H556 0.929 . S
C564 C565 1.377 . S
C564 C566 1.384 . S
C565 C564 1.377 . S
C565 C571 1.390 . S
C566 H557 0.930 . S
C566 C564 1.384 . S
C566 C567 1.372 . S
C567 C566 1.372 . S
C567 C568 1.400 . S
C567 C572 1.490 . S
C568 H558 0.930 . S
C568 C567 1.400 . S
C568 C571 1.386 . S
H569 C585 0.930 . S
H570 C586 0.931 . S
C571 H559 0.929 . S
C571 C565 1.390 . S
C571 C568 1.386 . S
C572 C567 1.490 . S
C572 C574 1.395 . S
C572 C575 1.403 . S
H573 C579 0.930 . S
C574 H560 0.930 . S
C574 C572 1.395 . S
C574 C577 1.403 . S
C575 C572 1.403 . S
C575 C576 1.524 . S
C575 C579 1.400 . S
C576 H561 0.960 . S
C576 H562 0.960 . S
C576 H563 0.960 . S
C576 C575 1.524 . S
C577 C574 1.403 . S
C577 C578 1.392 . S
C577 C581 1.495 . S
C578 C577 1.392 . S
C578 C579 1.385 . S
C578 C580 1.478 . S
C579 H573 0.930 . S
C579 C575 1.400 . S
C579 C578 1.385 . S
C580 C578 1.478 . S
C580 C582 1.381 . S
C580 C586 1.383 . S
C581 C577 1.495 . S
C581 H587 0.959 . S
C581 H588 0.961 . S
C581 H589 0.960 . S
C582 C580 1.381 . S
C582 C583 1.394 . S
C582 H590 0.930 . S
C583 C582 1.394 . S
C583 C584 1.383 . S
C583 H591 0.929 . S
C584 C583 1.383 . S
C584 C585 1.377 . S
C585 H569 0.930 . S
C585 C584 1.377 . S
C585 C586 1.379 . S
C586 H570 0.931 . S
C586 C580 1.383 . S
C586 C585 1.379 . S
H587 C581 0.959 . S
H588 C581 0.961 . S
H589 C581 0.960 . S
H590 C582 0.930 . S
H591 C583 0.929 . S
H592 C600 0.929 . S
H593 C602 0.930 . S
H594 C604 0.930 . S
H595 C607 0.929 . S
H596 C610 0.930 . S
H597 C612 0.960 . S
H598 C612 0.960 . S
H599 C612 0.960 . S
C600 H592 0.929 . S
C600 C601 1.377 . S
C600 C602 1.384 . S
C601 C600 1.377 . S
C601 C607 1.390 . S
C602 H593 0.930 . S
C602 C600 1.384 . S
C602 C603 1.372 . S
C603 C602 1.372 . S
C603 C604 1.400 . S
C603 C608 1.490 . S
C604 H594 0.930 . S
C604 C603 1.400 . S
C604 C607 1.386 . S
H605 C621 0.930 . S
H606 C622 0.931 . S
C607 H595 0.929 . S
C607 C601 1.390 . S
C607 C604 1.386 . S
C608 C603 1.490 . S
C608 C610 1.395 . S
C608 C611 1.403 . S
H609 C615 0.930 . S
C610 H596 0.930 . S
C610 C608 1.395 . S
C610 C613 1.403 . S
C611 C608 1.403 . S
C611 C612 1.524 . S
C611 C615 1.400 . S
C612 H597 0.960 . S
C612 H598 0.960 . S
C612 H599 0.960 . S
C612 C611 1.524 . S
C613 C610 1.403 . S
C613 C614 1.392 . S
C613 C617 1.495 . S
C614 C613 1.392 . S
C614 C615 1.385 . S
C614 C616 1.478 . S
C615 H609 0.930 . S
C615 C611 1.400 . S
C615 C614 1.385 . S
C616 C614 1.478 . S
C616 C618 1.381 . S
C616 C622 1.383 . S
C617 C613 1.495 . S
C617 H623 0.959 . S
C617 H624 0.961 . S
C617 H625 0.960 . S
C618 C616 1.381 . S
C618 C619 1.394 . S
C618 H626 0.930 . S
C619 C618 1.394 . S
C619 C620 1.383 . S
C619 H627 0.929 . S
C620 C619 1.383 . S
C620 C621 1.377 . S
C621 H605 0.930 . S
C621 C620 1.377 . S
C621 C622 1.379 . S
C622 H606 0.931 . S
C622 C616 1.383 . S
C622 C621 1.379 . S
H623 C617 0.959 . S
H624 C617 0.961 . S
H625 C617 0.960 . S
H626 C618 0.930 . S
H627 C619 0.929 . S
H628 C636 0.929 . S
H629 C638 0.930 . S
H630 C640 0.930 . S
H631 C643 0.929 . S
H632 C646 0.930 . S
H633 C648 0.960 . S
H634 C648 0.960 . S
H635 C648 0.960 . S
C636 H628 0.929 . S
C636 C637 1.377 . S
C636 C638 1.384 . S
C637 C636 1.377 . S
C637 C643 1.390 . S
C638 H629 0.930 . S
C638 C636 1.384 . S
C638 C639 1.372 . S
C639 C638 1.372 . S
C639 C640 1.400 . S
C639 C644 1.490 . S
C640 H630 0.930 . S
C640 C639 1.400 . S
C640 C643 1.386 . S
H641 C657 0.930 . S
H642 C658 0.931 . S
C643 H631 0.929 . S
C643 C637 1.390 . S
C643 C640 1.386 . S
C644 C639 1.490 . S
C644 C646 1.395 . S
C644 C647 1.403 . S
H645 C651 0.930 . S
C646 H632 0.930 . S
C646 C644 1.395 . S
C646 C649 1.403 . S
C647 C644 1.403 . S
C647 C648 1.524 . S
C647 C651 1.400 . S
C648 H633 0.960 . S
C648 H634 0.960 . S
C648 H635 0.960 . S
C648 C647 1.524 . S
C649 C646 1.403 . S
C649 C650 1.392 . S
C649 C653 1.495 . S
C650 C649 1.392 . S
C650 C651 1.385 . S
C650 C652 1.478 . S
C651 H645 0.930 . S
C651 C647 1.400 . S
C651 C650 1.385 . S
C652 C650 1.478 . S
C652 C654 1.381 . S
C652 C658 1.383 . S
C653 C649 1.495 . S
C653 H659 0.959 . S
C653 H660 0.961 . S
C653 H661 0.960 . S
C654 C652 1.381 . S
C654 C655 1.394 . S
C654 H662 0.930 . S
C655 C654 1.394 . S
C655 C656 1.383 . S
C655 H663 0.929 . S
C656 C655 1.383 . S
C656 C657 1.377 . S
C657 H641 0.930 . S
C657 C656 1.377 . S
C657 C658 1.379 . S
C658 H642 0.931 . S
C658 C652 1.383 . S
C658 C657 1.379 . S
H659 C653 0.959 . S
H660 C653 0.961 . S
H661 C653 0.960 . S
H662 C654 0.930 . S
H663 C655 0.929 . S
H664 C672 0.929 . S
H665 C674 0.930 . S
H666 C676 0.930 . S
H667 C679 0.929 . S
H668 C682 0.930 . S
H669 C684 0.960 . S
H670 C684 0.960 . S
H671 C684 0.960 . S
C672 H664 0.929 . S
C672 C673 1.377 . S
C672 C674 1.384 . S
C673 C672 1.377 . S
C673 C679 1.390 . S
C674 H665 0.930 . S
C674 C672 1.384 . S
C674 C675 1.372 . S
C675 C674 1.372 . S
C675 C676 1.400 . S
C675 C680 1.490 . S
C676 H666 0.930 . S
C676 C675 1.400 . S
C676 C679 1.386 . S
H677 C693 0.930 . S
H678 C694 0.931 . S
C679 H667 0.929 . S
C679 C673 1.390 . S
C679 C676 1.386 . S
C680 C675 1.490 . S
C680 C682 1.395 . S
C680 C683 1.403 . S
H681 C687 0.930 . S
C682 H668 0.930 . S
C682 C680 1.395 . S
C682 C685 1.403 . S
C683 C680 1.403 . S
C683 C684 1.524 . S
C683 C687 1.400 . S
C684 H669 0.960 . S
C684 H670 0.960 . S
C684 H671 0.960 . S
C684 C683 1.524 . S
C685 C682 1.403 . S
C685 C686 1.392 . S
C685 C689 1.495 . S
C686 C685 1.392 . S
C686 C687 1.385 . S
C686 C688 1.478 . S
C687 H681 0.930 . S
C687 C683 1.400 . S
C687 C686 1.385 . S
C688 C686 1.478 . S
C688 C690 1.381 . S
C688 C694 1.383 . S
C689 C685 1.495 . S
C689 H695 0.959 . S
C689 H696 0.961 . S
C689 H697 0.960 . S
C690 C688 1.381 . S
C690 C691 1.394 . S
C690 H698 0.930 . S
C691 C690 1.394 . S
C691 C692 1.383 . S
C691 H699 0.929 . S
C692 C691 1.383 . S
C692 C693 1.377 . S
C693 H677 0.930 . S
C693 C692 1.377 . S
C693 C694 1.379 . S
C694 H678 0.931 . S
C694 C688 1.383 . S
C694 C693 1.379 . S
H695 C689 0.959 . S
H696 C689 0.961 . S
H697 C689 0.960 . S
H698 C690 0.930 . S
H699 C691 0.929 . S
H700 C708 0.929 . S
H701 C710 0.930 . S
H702 C712 0.930 . S
H703 C715 0.929 . S
H704 C718 0.930 . S
H705 C720 0.960 . S
H706 C720 0.960 . S
H707 C720 0.960 . S
C708 H700 0.929 . S
C708 C709 1.377 . S
C708 C710 1.384 1_455 S
C709 C708 1.377 . S
C709 C715 1.390 1_455 S
C710 H701 0.930 . S
C710 C708 1.384 1_655 S
C710 C711 1.372 . S
C711 C710 1.372 . S
C711 C712 1.400 . S
C711 C716 1.490 . S
C712 H702 0.930 . S
C712 C711 1.400 . S
C712 C715 1.386 . S
H713 C729 0.930 . S
H714 C730 0.931 . S
C715 H703 0.929 . S
C715 C709 1.390 1_655 S
C715 C712 1.386 . S
C716 C711 1.490 . S
C716 C718 1.395 . S
C716 C719 1.403 . S
H717 C723 0.930 . S
C718 H704 0.930 . S
C718 C716 1.395 . S
C718 C721 1.403 . S
C719 C716 1.403 . S
C719 C720 1.524 . S
C719 C723 1.400 . S
C720 H705 0.960 . S
C720 H706 0.960 . S
C720 H707 0.960 . S
C720 C719 1.524 . S
C721 C718 1.403 . S
C721 C722 1.392 . S
C721 C725 1.495 . S
C722 C721 1.392 . S
C722 C723 1.385 . S
C722 C724 1.478 . S
C723 H717 0.930 . S
C723 C719 1.400 . S
C723 C722 1.385 . S
C724 C722 1.478 . S
C724 C726 1.381 . S
C724 C730 1.383 . S
C725 C721 1.495 . S
C725 H731 0.959 . S
C725 H732 0.961 . S
C725 H733 0.960 . S
C726 C724 1.381 . S
C726 C727 1.394 . S
C726 H734 0.930 . S
C727 C726 1.394 . S
C727 C728 1.383 . S
C727 H735 0.929 . S
C728 C727 1.383 . S
C728 C729 1.377 . S
C729 H713 0.930 . S
C729 C728 1.377 . S
C729 C730 1.379 . S
C730 H714 0.931 . S
C730 C724 1.383 . S
C730 C729 1.379 . S
H731 C725 0.959 . S
H732 C725 0.961 . S
H733 C725 0.960 . S
H734 C726 0.930 . S
H735 C727 0.929 . S
H736 C744 0.929 . S
H737 C746 0.930 . S
H738 C748 0.930 . S
H739 C751 0.929 . S
H740 C754 0.930 . S
H741 C756 0.960 . S
H742 C756 0.960 . S
H743 C756 0.960 . S
C744 H736 0.929 . S
C744 C745 1.377 . S
C744 C746 1.384 . S
C745 C744 1.377 . S
C745 C751 1.390 . S
C746 H737 0.930 . S
C746 C744 1.384 . S
C746 C747 1.372 . S
C747 C746 1.372 . S
C747 C748 1.400 . S
C747 C752 1.490 . S
C748 H738 0.930 . S
C748 C747 1.400 . S
C748 C751 1.386 . S
H749 C765 0.930 . S
H750 C766 0.931 . S
C751 H739 0.929 . S
C751 C745 1.390 . S
C751 C748 1.386 . S
C752 C747 1.490 . S
C752 C754 1.395 . S
C752 C755 1.403 . S
H753 C759 0.930 . S
C754 H740 0.930 . S
C754 C752 1.395 . S
C754 C757 1.403 . S
C755 C752 1.403 . S
C755 C756 1.524 . S
C755 C759 1.400 . S
C756 H741 0.960 . S
C756 H742 0.960 . S
C756 H743 0.960 . S
C756 C755 1.524 . S
C757 C754 1.403 . S
C757 C758 1.392 . S
C757 C761 1.495 . S
C758 C757 1.392 . S
C758 C759 1.385 . S
C758 C760 1.478 . S
C759 H753 0.930 . S
C759 C755 1.400 . S
C759 C758 1.385 . S
C760 C758 1.478 . S
C760 C762 1.381 . S
C760 C766 1.383 . S
C761 C757 1.495 . S
C761 H767 0.959 . S
C761 H768 0.961 . S
C761 H769 0.960 . S
C762 C760 1.381 . S
C762 C763 1.394 . S
C762 H770 0.930 . S
C763 C762 1.394 . S
C763 C764 1.383 . S
C763 H771 0.929 . S
C764 C763 1.383 . S
C764 C765 1.377 . S
C765 H749 0.930 . S
C765 C764 1.377 . S
C765 C766 1.379 . S
C766 H750 0.931 . S
C766 C760 1.383 . S
C766 C765 1.379 . S
H767 C761 0.959 . S
H768 C761 0.961 . S
H769 C761 0.960 . S
H770 C762 0.930 . S
H771 C763 0.929 . S
H772 C780 0.929 . S
H773 C782 0.930 . S
H774 C784 0.930 . S
H775 C787 0.929 . S
H776 C790 0.930 . S
H777 C792 0.960 . S
H778 C792 0.960 . S
H779 C792 0.960 . S
C780 H772 0.929 . S
C780 C781 1.377 . S
C780 C782 1.384 . S
C781 C780 1.377 . S
C781 C787 1.390 . S
C782 H773 0.930 . S
C782 C780 1.384 . S
C782 C783 1.372 . S
C783 C782 1.372 . S
C783 C784 1.400 . S
C783 C788 1.490 . S
C784 H774 0.930 . S
C784 C783 1.400 . S
C784 C787 1.386 . S
H785 C801 0.930 . S
H786 C802 0.931 . S
C787 H775 0.929 . S
C787 C781 1.390 . S
C787 C784 1.386 . S
C788 C783 1.490 . S
C788 C790 1.395 . S
C788 C791 1.403 . S
H789 C795 0.930 . S
C790 H776 0.930 . S
C790 C788 1.395 . S
C790 C793 1.403 . S
C791 C788 1.403 . S
C791 C792 1.524 . S
C791 C795 1.400 . S
C792 H777 0.960 . S
C792 H778 0.960 . S
C792 H779 0.960 . S
C792 C791 1.524 . S
C793 C790 1.403 . S
C793 C794 1.392 . S
C793 C797 1.495 . S
C794 C793 1.392 . S
C794 C795 1.385 . S
C794 C796 1.478 . S
C795 H789 0.930 . S
C795 C791 1.400 . S
C795 C794 1.385 . S
C796 C794 1.478 . S
C796 C798 1.381 . S
C796 C802 1.383 . S
C797 C793 1.495 . S
C797 H803 0.959 . S
C797 H804 0.961 . S
C797 H805 0.960 . S
C798 C796 1.381 . S
C798 C799 1.394 1_455 S
C798 H806 0.930 . S
C799 C798 1.394 1_655 S
C799 C800 1.383 . S
C799 H807 0.929 . S
C800 C799 1.383 . S
C800 C801 1.377 1_655 S
C801 H785 0.930 . S
C801 C800 1.377 1_455 S
C801 C802 1.379 . S
C802 H786 0.931 . S
C802 C796 1.383 . S
C802 C801 1.379 . S
H803 C797 0.959 . S
H804 C797 0.961 . S
H805 C797 0.960 . S
H806 C798 0.930 . S
H807 C799 0.929 . S
H808 C816 0.929 . S
H809 C818 0.930 . S
H810 C820 0.930 . S
H811 C823 0.929 . S
H812 C826 0.930 . S
H813 C828 0.960 . S
H814 C828 0.960 . S
H815 C828 0.960 . S
C816 H808 0.929 . S
C816 C817 1.377 . S
C816 C818 1.384 . S
C817 C816 1.377 . S
C817 C823 1.390 . S
C818 H809 0.930 . S
C818 C816 1.384 . S
C818 C819 1.372 . S
C819 C818 1.372 . S
C819 C820 1.400 . S
C819 C824 1.490 . S
C820 H810 0.930 . S
C820 C819 1.400 . S
C820 C823 1.386 . S
H821 C837 0.930 . S
H822 C838 0.931 . S
C823 H811 0.929 . S
C823 C817 1.390 . S
C823 C820 1.386 . S
C824 C819 1.490 . S
C824 C826 1.395 . S
C824 C827 1.403 . S
H825 C831 0.930 . S
C826 H812 0.930 . S
C826 C824 1.395 . S
C826 C829 1.403 . S
C827 C824 1.403 . S
C827 C828 1.524 . S
C827 C831 1.400 . S
C828 H813 0.960 . S
C828 H814 0.960 . S
C828 H815 0.960 . S
C828 C827 1.524 . S
C829 C826 1.403 . S
C829 C830 1.392 . S
C829 C833 1.495 . S
C830 C829 1.392 . S
C830 C831 1.385 . S
C830 C832 1.478 . S
C831 H825 0.930 . S
C831 C827 1.400 . S
C831 C830 1.385 . S
C832 C830 1.478 . S
C832 C834 1.381 . S
C832 C838 1.383 . S
C833 C829 1.495 . S
C833 H839 0.959 . S
C833 H840 0.961 . S
C833 H841 0.960 . S
C834 C832 1.381 . S
C834 C835 1.394 . S
C834 H842 0.930 . S
C835 C834 1.394 . S
C835 C836 1.383 . S
C835 H843 0.929 . S
C836 C835 1.383 . S
C836 C837 1.377 . S
C837 H821 0.930 . S
C837 C836 1.377 . S
C837 C838 1.379 . S
C838 H822 0.931 . S
C838 C832 1.383 . S
C838 C837 1.379 . S
H839 C833 0.959 . S
H840 C833 0.961 . S
H841 C833 0.960 . S
H842 C834 0.930 . S
H843 C835 0.929 . S
H844 C852 0.929 . S
H845 C854 0.930 . S
H846 C856 0.930 . S
H847 C859 0.929 . S
H848 C862 0.930 . S
H849 C864 0.960 . S
H850 C864 0.960 . S
H851 C864 0.960 . S
C852 H844 0.929 . S
C852 C853 1.377 . S
C852 C854 1.384 . S
C853 C852 1.377 . S
C853 C859 1.390 . S
C854 H845 0.930 . S
C854 C852 1.384 . S
C854 C855 1.372 . S
C855 C854 1.372 . S
C855 C856 1.400 . S
C855 C860 1.490 . S
C856 H846 0.930 . S
C856 C855 1.400 . S
C856 C859 1.386 . S
H857 C873 0.930 . S
H858 C874 0.931 . S
C859 H847 0.929 . S
C859 C853 1.390 . S
C859 C856 1.386 . S
C860 C855 1.490 . S
C860 C862 1.395 . S
C860 C863 1.403 . S
H861 C867 0.930 . S
C862 H848 0.930 . S
C862 C860 1.395 . S
C862 C865 1.403 . S
C863 C860 1.403 . S
C863 C864 1.524 . S
C863 C867 1.400 . S
C864 H849 0.960 . S
C864 H850 0.960 . S
C864 H851 0.960 . S
C864 C863 1.524 . S
C865 C862 1.403 . S
C865 C866 1.392 . S
C865 C869 1.495 . S
C866 C865 1.392 . S
C866 C867 1.385 . S
C866 C868 1.478 . S
C867 H861 0.930 . S
C867 C863 1.400 . S
C867 C866 1.385 . S
C868 C866 1.478 . S
C868 C870 1.381 . S
C868 C874 1.383 . S
C869 C865 1.495 . S
C869 H875 0.959 . S
C869 H876 0.961 . S
C869 H877 0.960 . S
C870 C868 1.381 . S
C870 C871 1.394 . S
C870 H878 0.930 . S
C871 C870 1.394 . S
C871 C872 1.383 . S
C871 H879 0.929 . S
C872 C871 1.383 . S
C872 C873 1.377 . S
C873 H857 0.930 . S
C873 C872 1.377 . S
C873 C874 1.379 . S
C874 H858 0.931 . S
C874 C868 1.383 . S
C874 C873 1.379 . S
H875 C869 0.959 . S
H876 C869 0.961 . S
H877 C869 0.960 . S
H878 C870 0.930 . S
H879 C871 0.929 . S
H880 C888 0.929 . S
H881 C890 0.930 . S
H882 C892 0.930 . S
H883 C895 0.929 . S
H884 C898 0.930 . S
H885 C900 0.960 . S
H886 C900 0.960 . S
H887 C900 0.960 . S
C888 H880 0.929 . S
C888 C889 1.377 . S
C888 C890 1.384 . S
C889 C888 1.377 . S
C889 C895 1.390 . S
C890 H881 0.930 . S
C890 C888 1.384 . S
C890 C891 1.372 . S
C891 C890 1.372 . S
C891 C892 1.400 . S
C891 C896 1.490 . S
C892 H882 0.930 . S
C892 C891 1.400 . S
C892 C895 1.386 . S
H893 C909 0.930 . S
H894 C910 0.931 . S
C895 H883 0.929 . S
C895 C889 1.390 . S
C895 C892 1.386 . S
C896 C891 1.490 . S
C896 C898 1.395 . S
C896 C899 1.403 . S
H897 C903 0.930 . S
C898 H884 0.930 . S
C898 C896 1.395 . S
C898 C901 1.403 . S
C899 C896 1.403 . S
C899 C900 1.524 . S
C899 C903 1.400 . S
C900 H885 0.960 . S
C900 H886 0.960 . S
C900 H887 0.960 . S
C900 C899 1.524 . S
C901 C898 1.403 . S
C901 C902 1.392 . S
C901 C905 1.495 . S
C902 C901 1.392 . S
C902 C903 1.385 . S
C902 C904 1.478 . S
C903 H897 0.930 . S
C903 C899 1.400 . S
C903 C902 1.385 . S
C904 C902 1.478 . S
C904 C906 1.381 . S
C904 C910 1.383 . S
C905 C901 1.495 . S
C905 H911 0.959 . S
C905 H912 0.961 . S
C905 H913 0.960 . S
C906 C904 1.381 . S
C906 C907 1.394 . S
C906 H914 0.930 . S
C907 C906 1.394 . S
C907 C908 1.383 . S
C907 H915 0.929 . S
C908 C907 1.383 . S
C908 C909 1.377 . S
C909 H893 0.930 . S
C909 C908 1.377 . S
C909 C910 1.379 . S
C910 H894 0.931 . S
C910 C904 1.383 . S
C910 C909 1.379 . S
H911 C905 0.959 . S
H912 C905 0.961 . S
H913 C905 0.960 . S
H914 C906 0.930 . S
H915 C907 0.929 . S
H916 C924 0.929 . S
H917 C926 0.930 . S
H918 C928 0.930 . S
H919 C931 0.929 . S
H920 C934 0.930 . S
H921 C936 0.960 . S
H922 C936 0.960 . S
H923 C936 0.960 . S
C924 H916 0.929 . S
C924 C925 1.377 . S
C924 C926 1.384 . S
C925 C924 1.377 . S
C925 C931 1.390 . S
C926 H917 0.930 . S
C926 C924 1.384 . S
C926 C927 1.372 . S
C927 C926 1.372 . S
C927 C928 1.400 . S
C927 C932 1.490 . S
C928 H918 0.930 . S
C928 C927 1.400 . S
C928 C931 1.386 . S
H929 C945 0.930 . S
H930 C946 0.931 . S
C931 H919 0.929 . S
C931 C925 1.390 . S
C931 C928 1.386 . S
C932 C927 1.490 . S
C932 C934 1.395 . S
C932 C935 1.403 . S
H933 C939 0.930 . S
C934 H920 0.930 . S
C934 C932 1.395 . S
C934 C937 1.403 . S
C935 C932 1.403 . S
C935 C936 1.524 . S
C935 C939 1.400 . S
C936 H921 0.960 . S
C936 H922 0.960 . S
C936 H923 0.960 . S
C936 C935 1.524 . S
C937 C934 1.403 . S
C937 C938 1.392 . S
C937 C941 1.495 . S
C938 C937 1.392 . S
C938 C939 1.385 . S
C938 C940 1.478 . S
C939 H933 0.930 . S
C939 C935 1.400 . S
C939 C938 1.385 . S
C940 C938 1.478 . S
C940 C942 1.381 . S
C940 C946 1.383 . S
C941 C937 1.495 . S
C941 H947 0.959 . S
C941 H948 0.961 . S
C941 H949 0.960 . S
C942 C940 1.381 . S
C942 C943 1.394 . S
C942 H950 0.930 . S
C943 C942 1.394 . S
C943 C944 1.383 . S
C943 H951 0.929 . S
C944 C943 1.383 . S
C944 C945 1.377 . S
C945 H929 0.930 . S
C945 C944 1.377 . S
C945 C946 1.379 . S
C946 H930 0.931 . S
C946 C940 1.383 . S
C946 C945 1.379 . S
H947 C941 0.959 . S
H948 C941 0.961 . S
H949 C941 0.960 . S
H950 C942 0.930 . S
H951 C943 0.929 . S
H952 C960 0.929 . S
H953 C962 0.930 . S
H954 C964 0.930 . S
H955 C967 0.929 . S
H956 C970 0.930 . S
H957 C972 0.960 . S
H958 C972 0.960 . S
H959 C972 0.960 . S
C960 H952 0.929 . S
C960 C961 1.377 . S
C960 C962 1.384 . S
C961 C960 1.377 . S
C961 C967 1.390 . S
C962 H953 0.930 . S
C962 C960 1.384 . S
C962 C963 1.372 . S
C963 C962 1.372 . S
C963 C964 1.400 . S
C963 C968 1.490 . S
C964 H954 0.930 . S
C964 C963 1.400 . S
C964 C967 1.386 . S
H965 C981 0.930 . S
H966 C982 0.931 . S
C967 H955 0.929 . S
C967 C961 1.390 . S
C967 C964 1.386 . S
C968 C963 1.490 . S
C968 C970 1.395 . S
C968 C971 1.403 . S
H969 C975 0.930 . S
C970 H956 0.930 . S
C970 C968 1.395 . S
C970 C973 1.403 . S
C971 C968 1.403 . S
C971 C972 1.524 . S
C971 C975 1.400 . S
C972 H957 0.960 . S
C972 H958 0.960 . S
C972 H959 0.960 . S
C972 C971 1.524 . S
C973 C970 1.403 . S
C973 C974 1.392 . S
C973 C977 1.495 . S
C974 C973 1.392 . S
C974 C975 1.385 . S
C974 C976 1.478 . S
C975 H969 0.930 . S
C975 C971 1.400 . S
C975 C974 1.385 . S
C976 C974 1.478 . S
C976 C978 1.381 . S
C976 C982 1.383 . S
C977 C973 1.495 . S
C977 H983 0.959 . S
C977 H984 0.961 . S
C977 H985 0.960 . S
C978 C976 1.381 . S
C978 C979 1.394 . S
C978 H986 0.930 . S
C979 C978 1.394 . S
C979 C980 1.383 . S
C979 H987 0.929 . S
C980 C979 1.383 . S
C980 C981 1.377 . S
C981 H965 0.930 . S
C981 C980 1.377 . S
C981 C982 1.379 . S
C982 H966 0.931 . S
C982 C976 1.383 . S
C982 C981 1.379 . S
H983 C977 0.959 . S
H984 C977 0.961 . S
H985 C977 0.960 . S
H986 C978 0.930 . S
H987 C979 0.929 . S
H988 C996 0.929 . S
H989 C998 0.930 . S
H990 C1000 0.930 . S
H991 C1003 0.929 . S
H992 C1006 0.930 . S
H993 C1008 0.960 . S
H994 C1008 0.960 . S
H995 C1008 0.960 . S
C996 H988 0.929 . S
C996 C997 1.377 . S
C996 C998 1.384 . S
C997 C996 1.377 . S
C997 C1003 1.390 . S
C998 H989 0.930 . S
C998 C996 1.384 . S
C998 C999 1.372 . S
C999 C998 1.372 . S
C999 C1000 1.400 . S
C999 C1004 1.490 . S
C1000 H990 0.930 . S
C1000 C999 1.400 . S
C1000 C1003 1.386 . S
H1001 C1017 0.930 . S
H1002 C1018 0.931 . S
C1003 H991 0.929 . S
C1003 C997 1.390 . S
C1003 C1000 1.386 . S
C1004 C999 1.490 . S
C1004 C1006 1.395 . S
C1004 C1007 1.403 . S
H1005 C1011 0.930 . S
C1006 H992 0.930 . S
C1006 C1004 1.395 . S
C1006 C1009 1.403 . S
C1007 C1004 1.403 . S
C1007 C1008 1.524 . S
C1007 C1011 1.400 . S
C1008 H993 0.960 . S
C1008 H994 0.960 . S
C1008 H995 0.960 . S
C1008 C1007 1.524 . S
C1009 C1006 1.403 . S
C1009 C1010 1.392 . S
C1009 C1013 1.495 . S
C1010 C1009 1.392 . S
C1010 C1011 1.385 . S
C1010 C1012 1.478 . S
C1011 H1005 0.930 . S
C1011 C1007 1.400 . S
C1011 C1010 1.385 . S
C1012 C1010 1.478 . S
C1012 C1014 1.381 . S
C1012 C1018 1.383 . S
C1013 C1009 1.495 . S
C1013 H1019 0.959 . S
C1013 H1020 0.961 . S
C1013 H1021 0.960 . S
C1014 C1012 1.381 . S
C1014 C1015 1.394 . S
C1014 H1022 0.930 . S
C1015 C1014 1.394 . S
C1015 C1016 1.383 1_455 S
C1015 H1023 0.929 . S
C1016 C1015 1.383 1_655 S
C1016 C1017 1.377 . S
C1017 H1001 0.930 . S
C1017 C1016 1.377 . S
C1017 C1018 1.379 1_655 S
C1018 H1002 0.931 . S
C1018 C1012 1.383 . S
C1018 C1017 1.379 1_455 S
H1019 C1013 0.959 . S
H1020 C1013 0.961 . S
H1021 C1013 0.960 . S
H1022 C1014 0.930 . S
H1023 C1015 0.929 . S
H1024 C1032 0.929 . S
H1025 C1034 0.930 . S
H1026 C1036 0.930 . S
H1027 C1039 0.929 . S
H1028 C1042 0.930 . S
H1029 C1044 0.960 . S
H1030 C1044 0.960 . S
H1031 C1044 0.960 . S
C1032 H1024 0.929 . S
C1032 C1033 1.377 . S
C1032 C1034 1.384 . S
C1033 C1032 1.377 . S
C1033 C1039 1.390 . S
C1034 H1025 0.930 . S
C1034 C1032 1.384 . S
C1034 C1035 1.372 . S
C1035 C1034 1.372 . S
C1035 C1036 1.400 . S
C1035 C1040 1.490 . S
C1036 H1026 0.930 . S
C1036 C1035 1.400 . S
C1036 C1039 1.386 . S
H1037 C1053 0.930 . S
H1038 C1054 0.931 . S
C1039 H1027 0.929 . S
C1039 C1033 1.390 . S
C1039 C1036 1.386 . S
C1040 C1035 1.490 . S
C1040 C1042 1.395 . S
C1040 C1043 1.403 . S
H1041 C1047 0.930 . S
C1042 H1028 0.930 . S
C1042 C1040 1.395 . S
C1042 C1045 1.403 . S
C1043 C1040 1.403 . S
C1043 C1044 1.524 . S
C1043 C1047 1.400 . S
C1044 H1029 0.960 . S
C1044 H1030 0.960 . S
C1044 H1031 0.960 . S
C1044 C1043 1.524 . S
C1045 C1042 1.403 . S
C1045 C1046 1.392 . S
C1045 C1049 1.495 . S
C1046 C1045 1.392 . S
C1046 C1047 1.385 . S
C1046 C1048 1.478 . S
C1047 H1041 0.930 . S
C1047 C1043 1.400 . S
C1047 C1046 1.385 . S
C1048 C1046 1.478 . S
C1048 C1050 1.381 . S
C1048 C1054 1.383 . S
C1049 C1045 1.495 . S
C1049 H1055 0.959 . S
C1049 H1056 0.961 . S
C1049 H1057 0.960 . S
C1050 C1048 1.381 . S
C1050 C1051 1.394 . S
C1050 H1058 0.930 . S
C1051 C1050 1.394 . S
C1051 C1052 1.383 . S
C1051 H1059 0.929 . S
C1052 C1051 1.383 . S
C1052 C1053 1.377 . S
C1053 H1037 0.930 . S
C1053 C1052 1.377 . S
C1053 C1054 1.379 . S
C1054 H1038 0.931 . S
C1054 C1048 1.383 . S
C1054 C1053 1.379 . S
H1055 C1049 0.959 . S
H1056 C1049 0.961 . S
H1057 C1049 0.960 . S
H1058 C1050 0.930 . S
H1059 C1051 0.929 . S
H1060 C1068 0.929 . S
H1061 C1070 0.930 . S
H1062 C1072 0.930 . S
H1063 C1075 0.929 . S
H1064 C1078 0.930 . S
H1065 C1080 0.960 . S
H1066 C1080 0.960 . S
H1067 C1080 0.960 . S
C1068 H1060 0.929 . S
C1068 C1069 1.377 . S
C1068 C1070 1.384 . S
C1069 C1068 1.377 . S
C1069 C1075 1.390 . S
C1070 H1061 0.930 . S
C1070 C1068 1.384 . S
C1070 C1071 1.372 . S
C1071 C1070 1.372 . S
C1071 C1072 1.400 . S
C1071 C1076 1.490 . S
C1072 H1062 0.930 . S
C1072 C1071 1.400 . S
C1072 C1075 1.386 . S
H1073 C1089 0.930 . S
H1074 C1090 0.931 . S
C1075 H1063 0.929 . S
C1075 C1069 1.390 . S
C1075 C1072 1.386 . S
C1076 C1071 1.490 . S
C1076 C1078 1.395 . S
C1076 C1079 1.403 . S
H1077 C1083 0.930 . S
C1078 H1064 0.930 . S
C1078 C1076 1.395 . S
C1078 C1081 1.403 . S
C1079 C1076 1.403 . S
C1079 C1080 1.524 . S
C1079 C1083 1.400 . S
C1080 H1065 0.960 . S
C1080 H1066 0.960 . S
C1080 H1067 0.960 . S
C1080 C1079 1.524 . S
C1081 C1078 1.403 . S
C1081 C1082 1.392 . S
C1081 C1085 1.495 . S
C1082 C1081 1.392 . S
C1082 C1083 1.385 . S
C1082 C1084 1.478 . S
C1083 H1077 0.930 . S
C1083 C1079 1.400 . S
C1083 C1082 1.385 . S
C1084 C1082 1.478 . S
C1084 C1086 1.381 . S
C1084 C1090 1.383 . S
C1085 C1081 1.495 . S
C1085 H1091 0.959 . S
C1085 H1092 0.961 . S
C1085 H1093 0.960 . S
C1086 C1084 1.381 . S
C1086 C1087 1.394 . S
C1086 H1094 0.930 . S
C1087 C1086 1.394 . S
C1087 C1088 1.383 . S
C1087 H1095 0.929 . S
C1088 C1087 1.383 . S
C1088 C1089 1.377 . S
C1089 H1073 0.930 . S
C1089 C1088 1.377 . S
C1089 C1090 1.379 . S
C1090 H1074 0.931 . S
C1090 C1084 1.383 . S
C1090 C1089 1.379 . S
H1091 C1085 0.959 . S
H1092 C1085 0.961 . S
H1093 C1085 0.960 . S
H1094 C1086 0.930 . S
H1095 C1087 0.929 . S
H1096 C1104 0.929 . S
H1097 C1106 0.930 . S
H1098 C1108 0.930 . S
H1099 C1111 0.929 . S
H1100 C1114 0.930 . S
H1101 C1116 0.960 . S
H1102 C1116 0.960 . S
H1103 C1116 0.960 . S
C1104 H1096 0.929 . S
C1104 C1105 1.377 . S
C1104 C1106 1.384 . S
C1105 C1104 1.377 . S
C1105 C1111 1.390 . S
C1106 H1097 0.930 . S
C1106 C1104 1.384 . S
C1106 C1107 1.372 . S
C1107 C1106 1.372 . S
C1107 C1108 1.400 . S
C1107 C1112 1.490 . S
C1108 H1098 0.930 . S
C1108 C1107 1.400 . S
C1108 C1111 1.386 . S
H1109 C1125 0.930 . S
H1110 C1126 0.931 . S
C1111 H1099 0.929 . S
C1111 C1105 1.390 . S
C1111 C1108 1.386 . S
C1112 C1107 1.490 . S
C1112 C1114 1.395 . S
C1112 C1115 1.403 . S
H1113 C1119 0.930 . S
C1114 H1100 0.930 . S
C1114 C1112 1.395 . S
C1114 C1117 1.403 . S
C1115 C1112 1.403 . S
C1115 C1116 1.524 . S
C1115 C1119 1.400 . S
C1116 H1101 0.960 . S
C1116 H1102 0.960 . S
C1116 H1103 0.960 . S
C1116 C1115 1.524 . S
C1117 C1114 1.403 . S
C1117 C1118 1.392 . S
C1117 C1121 1.495 . S
C1118 C1117 1.392 . S
C1118 C1119 1.385 . S
C1118 C1120 1.478 . S
C1119 H1113 0.930 . S
C1119 C1115 1.400 . S
C1119 C1118 1.385 . S
C1120 C1118 1.478 . S
C1120 C1122 1.381 . S
C1120 C1126 1.383 . S
C1121 C1117 1.495 . S
C1121 H1127 0.959 . S
C1121 H1128 0.961 . S
C1121 H1129 0.960 . S
C1122 C1120 1.381 . S
C1122 C1123 1.394 . S
C1122 H1130 0.930 . S
C1123 C1122 1.394 . S
C1123 C1124 1.383 . S
C1123 H1131 0.929 . S
C1124 C1123 1.383 . S
C1124 C1125 1.377 . S
C1125 H1109 0.930 . S
C1125 C1124 1.377 . S
C1125 C1126 1.379 . S
C1126 H1110 0.931 . S
C1126 C1120 1.383 . S
C1126 C1125 1.379 . S
H1127 C1121 0.959 . S
H1128 C1121 0.961 . S
H1129 C1121 0.960 . S
H1130 C1122 0.930 . S
H1131 C1123 0.929 . S
H1132 C1140 0.929 . S
H1133 C1142 0.930 . S
H1134 C1144 0.930 . S
H1135 C1147 0.929 . S
H1136 C1150 0.930 . S
H1137 C1152 0.960 . S
H1138 C1152 0.960 . S
H1139 C1152 0.960 . S
C1140 H1132 0.929 . S
C1140 C1141 1.377 . S
C1140 C1142 1.384 . S
C1141 C1140 1.377 . S
C1141 C1147 1.390 . S
C1142 H1133 0.930 . S
C1142 C1140 1.384 . S
C1142 C1143 1.372 . S
C1143 C1142 1.372 . S
C1143 C1144 1.400 . S
C1143 C1148 1.490 . S
C1144 H1134 0.930 . S
C1144 C1143 1.400 . S
C1144 C1147 1.386 . S
H1145 C1161 0.930 1_655 S
H1146 C1162 0.931 . S
C1147 H1135 0.929 . S
C1147 C1141 1.390 . S
C1147 C1144 1.386 . S
C1148 C1143 1.490 . S
C1148 C1150 1.395 . S
C1148 C1151 1.403 . S
H1149 C1155 0.930 . S
C1150 H1136 0.930 . S
C1150 C1148 1.395 . S
C1150 C1153 1.403 . S
C1151 C1148 1.403 . S
C1151 C1152 1.524 . S
C1151 C1155 1.400 . S
C1152 H1137 0.960 . S
C1152 H1138 0.960 . S
C1152 H1139 0.960 . S
C1152 C1151 1.524 . S
C1153 C1150 1.403 . S
C1153 C1154 1.392 . S
C1153 C1157 1.495 . S
C1154 C1153 1.392 . S
C1154 C1155 1.385 . S
C1154 C1156 1.478 . S
C1155 H1149 0.930 . S
C1155 C1151 1.400 . S
C1155 C1154 1.385 . S
C1156 C1154 1.478 . S
C1156 C1158 1.381 . S
C1156 C1162 1.383 . S
C1157 C1153 1.495 . S
C1157 H1163 0.959 . S
C1157 H1164 0.961 . S
C1157 H1165 0.960 . S
C1158 C1156 1.381 . S
C1158 C1159 1.394 1_455 S
C1158 H1166 0.930 . S
C1159 C1158 1.394 1_655 S
C1159 C1160 1.383 . S
C1159 H1167 0.929 . S
C1160 C1159 1.383 . S
C1160 C1161 1.377 1_655 S
C1161 H1145 0.930 1_455 S
C1161 C1160 1.377 1_455 S
C1161 C1162 1.379 . S
C1162 H1146 0.931 . S
C1162 C1156 1.383 . S
C1162 C1161 1.379 . S
H1163 C1157 0.959 . S
H1164 C1157 0.961 . S
H1165 C1157 0.960 . S
H1166 C1158 0.930 . S
H1167 C1159 0.929 . S
H1168 C1176 0.929 . S
H1169 C1178 0.930 . S
H1170 C1180 0.930 . S
H1171 C1183 0.929 . S
H1172 C1186 0.930 . S
H1173 C1188 0.960 . S
H1174 C1188 0.960 . S
H1175 C1188 0.960 . S
C1176 H1168 0.929 . S
C1176 C1177 1.377 . S
C1176 C1178 1.384 . S
C1177 C1176 1.377 . S
C1177 C1183 1.390 . S
C1178 H1169 0.930 . S
C1178 C1176 1.384 . S
C1178 C1179 1.372 . S
C1179 C1178 1.372 . S
C1179 C1180 1.400 . S
C1179 C1184 1.490 . S
C1180 H1170 0.930 . S
C1180 C1179 1.400 . S
C1180 C1183 1.386 . S
H1181 C1197 0.930 . S
H1182 C1198 0.931 . S
C1183 H1171 0.929 . S
C1183 C1177 1.390 . S
C1183 C1180 1.386 . S
C1184 C1179 1.490 . S
C1184 C1186 1.395 . S
C1184 C1187 1.403 . S
H1185 C1191 0.930 . S
C1186 H1172 0.930 . S
C1186 C1184 1.395 . S
C1186 C1189 1.403 . S
C1187 C1184 1.403 . S
C1187 C1188 1.524 . S
C1187 C1191 1.400 . S
C1188 H1173 0.960 . S
C1188 H1174 0.960 . S
C1188 H1175 0.960 . S
C1188 C1187 1.524 . S
C1189 C1186 1.403 . S
C1189 C1190 1.392 . S
C1189 C1193 1.495 . S
C1190 C1189 1.392 . S
C1190 C1191 1.385 . S
C1190 C1192 1.478 . S
C1191 H1185 0.930 . S
C1191 C1187 1.400 . S
C1191 C1190 1.385 . S
C1192 C1190 1.478 . S
C1192 C1194 1.381 . S
C1192 C1198 1.383 . S
C1193 C1189 1.495 . S
C1193 H1199 0.959 . S
C1193 H1200 0.961 . S
C1193 H1201 0.960 . S
C1194 C1192 1.381 . S
C1194 C1195 1.394 . S
C1194 H1202 0.930 . S
C1195 C1194 1.394 . S
C1195 C1196 1.383 . S
C1195 H1203 0.929 . S
C1196 C1195 1.383 . S
C1196 C1197 1.377 . S
C1197 H1181 0.930 . S
C1197 C1196 1.377 . S
C1197 C1198 1.379 . S
C1198 H1182 0.931 . S
C1198 C1192 1.383 . S
C1198 C1197 1.379 . S
H1199 C1193 0.959 . S
H1200 C1193 0.961 . S
H1201 C1193 0.960 . S
H1202 C1194 0.930 . S
H1203 C1195 0.929 . S
H1204 C1212 0.929 . S
H1205 C1214 0.930 . S
H1206 C1216 0.930 . S
H1207 C1219 0.929 . S
H1208 C1222 0.930 . S
H1209 C1224 0.960 . S
H1210 C1224 0.960 . S
H1211 C1224 0.960 . S
C1212 H1204 0.929 . S
C1212 C1213 1.377 . S
C1212 C1214 1.384 . S
C1213 C1212 1.377 . S
C1213 C1219 1.390 . S
C1214 H1205 0.930 . S
C1214 C1212 1.384 . S
C1214 C1215 1.372 . S
C1215 C1214 1.372 . S
C1215 C1216 1.400 . S
C1215 C1220 1.490 . S
C1216 H1206 0.930 . S
C1216 C1215 1.400 . S
C1216 C1219 1.386 . S
H1217 C1233 0.930 . S
H1218 C1234 0.931 . S
C1219 H1207 0.929 . S
C1219 C1213 1.390 . S
C1219 C1216 1.386 . S
C1220 C1215 1.490 . S
C1220 C1222 1.395 . S
C1220 C1223 1.403 . S
H1221 C1227 0.930 . S
C1222 H1208 0.930 . S
C1222 C1220 1.395 . S
C1222 C1225 1.403 . S
C1223 C1220 1.403 . S
C1223 C1224 1.524 . S
C1223 C1227 1.400 . S
C1224 H1209 0.960 . S
C1224 H1210 0.960 . S
C1224 H1211 0.960 . S
C1224 C1223 1.524 . S
C1225 C1222 1.403 . S
C1225 C1226 1.392 . S
C1225 C1229 1.495 . S
C1226 C1225 1.392 . S
C1226 C1227 1.385 . S
C1226 C1228 1.478 . S
C1227 H1221 0.930 . S
C1227 C1223 1.400 . S
C1227 C1226 1.385 . S
C1228 C1226 1.478 . S
C1228 C1230 1.381 . S
C1228 C1234 1.383 . S
C1229 C1225 1.495 . S
C1229 H1235 0.959 . S
C1229 H1236 0.961 . S
C1229 H1237 0.960 . S
C1230 C1228 1.381 . S
C1230 C1231 1.394 1_455 S
C1230 H1238 0.930 . S
C1231 C1230 1.394 1_655 S
C1231 C1232 1.383 . S
C1231 H1239 0.929 . S
C1232 C1231 1.383 . S
C1232 C1233 1.377 1_655 S
C1233 H1217 0.930 . S
C1233 C1232 1.377 1_455 S
C1233 C1234 1.379 . S
C1234 H1218 0.931 . S
C1234 C1228 1.383 . S
C1234 C1233 1.379 . S
H1235 C1229 0.959 . S
H1236 C1229 0.961 . S
H1237 C1229 0.960 . S
H1238 C1230 0.930 . S
H1239 C1231 0.929 . S
H1240 C1248 0.929 . S
H1241 C1250 0.930 . S
H1242 C1252 0.930 . S
H1243 C1255 0.929 . S
H1244 C1258 0.930 . S
H1245 C1260 0.960 . S
H1246 C1260 0.960 . S
H1247 C1260 0.960 . S
C1248 H1240 0.929 . S
C1248 C1249 1.377 . S
C1248 C1250 1.384 . S
C1249 C1248 1.377 . S
C1249 C1255 1.390 . S
C1250 H1241 0.930 . S
C1250 C1248 1.384 . S
C1250 C1251 1.372 . S
C1251 C1250 1.372 . S
C1251 C1252 1.400 . S
C1251 C1256 1.490 . S
C1252 H1242 0.930 . S
C1252 C1251 1.400 . S
C1252 C1255 1.386 . S
H1253 C1269 0.930 . S
H1254 C1270 0.931 . S
C1255 H1243 0.929 . S
C1255 C1249 1.390 . S
C1255 C1252 1.386 . S
C1256 C1251 1.490 . S
C1256 C1258 1.395 . S
C1256 C1259 1.403 . S
H1257 C1263 0.930 . S
C1258 H1244 0.930 . S
C1258 C1256 1.395 . S
C1258 C1261 1.403 . S
C1259 C1256 1.403 . S
C1259 C1260 1.524 . S
C1259 C1263 1.400 . S
C1260 H1245 0.960 . S
C1260 H1246 0.960 . S
C1260 H1247 0.960 . S
C1260 C1259 1.524 . S
C1261 C1258 1.403 . S
C1261 C1262 1.392 . S
C1261 C1265 1.495 . S
C1262 C1261 1.392 . S
C1262 C1263 1.385 . S
C1262 C1264 1.478 . S
C1263 H1257 0.930 . S
C1263 C1259 1.400 . S
C1263 C1262 1.385 . S
C1264 C1262 1.478 . S
C1264 C1266 1.381 . S
C1264 C1270 1.383 . S
C1265 C1261 1.495 . S
C1265 H1271 0.959 . S
C1265 H1272 0.961 . S
C1265 H1273 0.960 . S
C1266 C1264 1.381 . S
C1266 C1267 1.394 . S
C1266 H1274 0.930 . S
C1267 C1266 1.394 . S
C1267 C1268 1.383 . S
C1267 H1275 0.929 . S
C1268 C1267 1.383 . S
C1268 C1269 1.377 . S
C1269 H1253 0.930 . S
C1269 C1268 1.377 . S
C1269 C1270 1.379 . S
C1270 H1254 0.931 . S
C1270 C1264 1.383 . S
C1270 C1269 1.379 . S
H1271 C1265 0.959 . S
H1272 C1265 0.961 . S
H1273 C1265 0.960 . S
H1274 C1266 0.930 . S
H1275 C1267 0.929 . S
H1276 C1284 0.929 . S
H1277 C1286 0.930 . S
H1278 C1288 0.930 . S
H1279 C1291 0.929 . S
H1280 C1294 0.930 . S
H1281 C1296 0.960 . S
H1282 C1296 0.960 . S
H1283 C1296 0.960 . S
C1284 H1276 0.929 . S
C1284 C1285 1.377 . S
C1284 C1286 1.384 . S
C1285 C1284 1.377 . S
C1285 C1291 1.390 . S
C1286 H1277 0.930 . S
C1286 C1284 1.384 . S
C1286 C1287 1.372 . S
C1287 C1286 1.372 . S
C1287 C1288 1.400 . S
C1287 C1292 1.490 . S
C1288 H1278 0.930 . S
C1288 C1287 1.400 . S
C1288 C1291 1.386 . S
H1289 C1305 0.930 . S
H1290 C1306 0.931 . S
C1291 H1279 0.929 . S
C1291 C1285 1.390 . S
C1291 C1288 1.386 . S
C1292 C1287 1.490 . S
C1292 C1294 1.395 . S
C1292 C1295 1.403 . S
H1293 C1299 0.930 . S
C1294 H1280 0.930 . S
C1294 C1292 1.395 . S
C1294 C1297 1.403 . S
C1295 C1292 1.403 . S
C1295 C1296 1.524 . S
C1295 C1299 1.400 . S
C1296 H1281 0.960 . S
C1296 H1282 0.960 . S
C1296 H1283 0.960 . S
C1296 C1295 1.524 . S
C1297 C1294 1.403 . S
C1297 C1298 1.392 . S
C1297 C1301 1.495 . S
C1298 C1297 1.392 . S
C1298 C1299 1.385 . S
C1298 C1300 1.478 . S
C1299 H1293 0.930 . S
C1299 C1295 1.400 . S
C1299 C1298 1.385 . S
C1300 C1298 1.478 . S
C1300 C1302 1.381 . S
C1300 C1306 1.383 . S
C1301 C1297 1.495 . S
C1301 H1307 0.959 . S
C1301 H1308 0.961 . S
C1301 H1309 0.960 . S
C1302 C1300 1.381 . S
C1302 C1303 1.394 . S
C1302 H1310 0.930 . S
C1303 C1302 1.394 . S
C1303 C1304 1.383 . S
C1303 H1311 0.929 . S
C1304 C1303 1.383 . S
C1304 C1305 1.377 . S
C1305 H1289 0.930 . S
C1305 C1304 1.377 . S
C1305 C1306 1.379 . S
C1306 H1290 0.931 . S
C1306 C1300 1.383 . S
C1306 C1305 1.379 . S
H1307 C1301 0.959 . S
H1308 C1301 0.961 . S
H1309 C1301 0.960 . S
H1310 C1302 0.930 . S
H1311 C1303 0.929 . S
H1312 C1320 0.929 . S
H1313 C1322 0.930 . S
H1314 C1324 0.930 . S
H1315 C1327 0.929 . S
H1316 C1330 0.930 . S
H1317 C1332 0.960 . S
H1318 C1332 0.960 . S
H1319 C1332 0.960 . S
C1320 H1312 0.929 . S
C1320 C1321 1.377 . S
C1320 C1322 1.384 . S
C1321 C1320 1.377 . S
C1321 C1327 1.390 . S
C1322 H1313 0.930 . S
C1322 C1320 1.384 . S
C1322 C1323 1.372 . S
C1323 C1322 1.372 . S
C1323 C1324 1.400 . S
C1323 C1328 1.490 . S
C1324 H1314 0.930 . S
C1324 C1323 1.400 . S
C1324 C1327 1.386 . S
H1325 C1341 0.930 . S
H1326 C1342 0.931 . S
C1327 H1315 0.929 . S
C1327 C1321 1.390 . S
C1327 C1324 1.386 . S
C1328 C1323 1.490 . S
C1328 C1330 1.395 . S
C1328 C1331 1.403 . S
H1329 C1335 0.930 . S
C1330 H1316 0.930 . S
C1330 C1328 1.395 . S
C1330 C1333 1.403 . S
C1331 C1328 1.403 . S
C1331 C1332 1.524 . S
C1331 C1335 1.400 . S
C1332 H1317 0.960 . S
C1332 H1318 0.960 . S
C1332 H1319 0.960 . S
C1332 C1331 1.524 . S
C1333 C1330 1.403 . S
C1333 C1334 1.392 . S
C1333 C1337 1.495 . S
C1334 C1333 1.392 . S
C1334 C1335 1.385 . S
C1334 C1336 1.478 . S
C1335 H1329 0.930 . S
C1335 C1331 1.400 . S
C1335 C1334 1.385 . S
C1336 C1334 1.478 . S
C1336 C1338 1.381 . S
C1336 C1342 1.383 . S
C1337 C1333 1.495 . S
C1337 H1343 0.959 . S
C1337 H1344 0.961 . S
C1337 H1345 0.960 . S
C1338 C1336 1.381 . S
C1338 C1339 1.394 . S
C1338 H1346 0.930 . S
C1339 C1338 1.394 . S
C1339 C1340 1.383 . S
C1339 H1347 0.929 . S
C1340 C1339 1.383 . S
C1340 C1341 1.377 . S
C1341 H1325 0.930 . S
C1341 C1340 1.377 . S
C1341 C1342 1.379 . S
C1342 H1326 0.931 . S
C1342 C1336 1.383 . S
C1342 C1341 1.379 . S
H1343 C1337 0.959 . S
H1344 C1337 0.961 . S
H1345 C1337 0.960 . S
H1346 C1338 0.930 . S
H1347 C1339 0.929 . S
H1348 C1356 0.929 . S
H1349 C1358 0.930 . S
H1350 C1360 0.930 . S
H1351 C1363 0.929 . S
H1352 C1366 0.930 . S
H1353 C1368 0.960 . S
H1354 C1368 0.960 . S
H1355 C1368 0.960 . S
C1356 H1348 0.929 . S
C1356 C1357 1.377 . S
C1356 C1358 1.384 . S
C1357 C1356 1.377 . S
C1357 C1363 1.390 . S
C1358 H1349 0.930 . S
C1358 C1356 1.384 . S
C1358 C1359 1.372 . S
C1359 C1358 1.372 . S
C1359 C1360 1.400 . S
C1359 C1364 1.490 . S
C1360 H1350 0.930 . S
C1360 C1359 1.400 . S
C1360 C1363 1.386 . S
H1361 C1377 0.930 . S
H1362 C1378 0.931 . S
C1363 H1351 0.929 . S
C1363 C1357 1.390 . S
C1363 C1360 1.386 . S
C1364 C1359 1.490 . S
C1364 C1366 1.395 . S
C1364 C1367 1.403 . S
H1365 C1371 0.930 . S
C1366 H1352 0.930 . S
C1366 C1364 1.395 . S
C1366 C1369 1.403 . S
C1367 C1364 1.403 . S
C1367 C1368 1.524 . S
C1367 C1371 1.400 . S
C1368 H1353 0.960 . S
C1368 H1354 0.960 . S
C1368 H1355 0.960 . S
C1368 C1367 1.524 . S
C1369 C1366 1.403 . S
C1369 C1370 1.392 . S
C1369 C1373 1.495 . S
C1370 C1369 1.392 . S
C1370 C1371 1.385 . S
C1370 C1372 1.478 . S
C1371 H1365 0.930 . S
C1371 C1367 1.400 . S
C1371 C1370 1.385 . S
C1372 C1370 1.478 . S
C1372 C1374 1.381 . S
C1372 C1378 1.383 . S
C1373 C1369 1.495 . S
C1373 H1379 0.959 . S
C1373 H1380 0.961 . S
C1373 H1381 0.960 . S
C1374 C1372 1.381 . S
C1374 C1375 1.394 . S
C1374 H1382 0.930 . S
C1375 C1374 1.394 . S
C1375 C1376 1.383 . S
C1375 H1383 0.929 . S
C1376 C1375 1.383 . S
C1376 C1377 1.377 . S
C1377 H1361 0.930 . S
C1377 C1376 1.377 . S
C1377 C1378 1.379 . S
C1378 H1362 0.931 . S
C1378 C1372 1.383 . S
C1378 C1377 1.379 . S
H1379 C1373 0.959 . S
H1380 C1373 0.961 . S
H1381 C1373 0.960 . S
H1382 C1374 0.930 . S
H1383 C1375 0.929 . S
H1384 C1392 0.929 . S
H1385 C1394 0.930 . S
H1386 C1396 0.930 . S
H1387 C1399 0.929 . S
H1388 C1402 0.930 . S
H1389 C1404 0.960 . S
H1390 C1404 0.960 . S
H1391 C1404 0.960 . S
C1392 H1384 0.929 . S
C1392 C1393 1.377 . S
C1392 C1394 1.384 . S
C1393 C1392 1.377 . S
C1393 C1399 1.390 . S
C1394 H1385 0.930 . S
C1394 C1392 1.384 . S
C1394 C1395 1.372 . S
C1395 C1394 1.372 . S
C1395 C1396 1.400 . S
C1395 C1400 1.490 . S
C1396 H1386 0.930 . S
C1396 C1395 1.400 . S
C1396 C1399 1.386 . S
H1397 C1413 0.930 . S
H1398 C1414 0.931 . S
C1399 H1387 0.929 . S
C1399 C1393 1.390 . S
C1399 C1396 1.386 . S
C1400 C1395 1.490 . S
C1400 C1402 1.395 . S
C1400 C1403 1.403 . S
H1401 C1407 0.930 . S
C1402 H1388 0.930 . S
C1402 C1400 1.395 . S
C1402 C1405 1.403 . S
C1403 C1400 1.403 . S
C1403 C1404 1.524 . S
C1403 C1407 1.400 . S
C1404 H1389 0.960 . S
C1404 H1390 0.960 . S
C1404 H1391 0.960 . S
C1404 C1403 1.524 . S
C1405 C1402 1.403 . S
C1405 C1406 1.392 . S
C1405 C1409 1.495 . S
C1406 C1405 1.392 . S
C1406 C1407 1.385 . S
C1406 C1408 1.478 . S
C1407 H1401 0.930 . S
C1407 C1403 1.400 . S
C1407 C1406 1.385 . S
C1408 C1406 1.478 . S
C1408 C1410 1.381 . S
C1408 C1414 1.383 . S
C1409 C1405 1.495 . S
C1409 H1415 0.959 . S
C1409 H1416 0.961 . S
C1409 H1417 0.960 . S
C1410 C1408 1.381 . S
C1410 C1411 1.394 . S
C1410 H1418 0.930 . S
C1411 C1410 1.394 . S
C1411 C1412 1.383 . S
C1411 H1419 0.929 . S
C1412 C1411 1.383 . S
C1412 C1413 1.377 . S
C1413 H1397 0.930 . S
C1413 C1412 1.377 . S
C1413 C1414 1.379 . S
C1414 H1398 0.931 . S
C1414 C1408 1.383 . S
C1414 C1413 1.379 . S
H1415 C1409 0.959 . S
H1416 C1409 0.961 . S
H1417 C1409 0.960 . S
H1418 C1410 0.930 . S
H1419 C1411 0.929 . S
H1420 C1428 0.929 . S
H1421 C1430 0.930 . S
H1422 C1432 0.930 . S
H1423 C1435 0.929 . S
H1424 C1438 0.930 . S
H1425 C1440 0.960 . S
H1426 C1440 0.960 . S
H1427 C1440 0.960 . S
C1428 H1420 0.929 . S
C1428 C1429 1.377 . S
C1428 C1430 1.384 1_455 S
C1429 C1428 1.377 . S
C1429 C1435 1.390 1_455 S
C1430 H1421 0.930 . S
C1430 C1428 1.384 1_655 S
C1430 C1431 1.372 . S
C1431 C1430 1.372 . S
C1431 C1432 1.400 . S
C1431 C1436 1.490 . S
C1432 H1422 0.930 . S
C1432 C1431 1.400 . S
C1432 C1435 1.386 . S
H1433 C1449 0.930 . S
H1434 C1450 0.931 . S
C1435 H1423 0.929 . S
C1435 C1429 1.390 1_655 S
C1435 C1432 1.386 . S
C1436 C1431 1.490 . S
C1436 C1438 1.395 . S
C1436 C1439 1.403 . S
H1437 C1443 0.930 . S
C1438 H1424 0.930 . S
C1438 C1436 1.395 . S
C1438 C1441 1.403 . S
C1439 C1436 1.403 . S
C1439 C1440 1.524 . S
C1439 C1443 1.400 . S
C1440 H1425 0.960 . S
C1440 H1426 0.960 . S
C1440 H1427 0.960 . S
C1440 C1439 1.524 . S
C1441 C1438 1.403 . S
C1441 C1442 1.392 . S
C1441 C1445 1.495 . S
C1442 C1441 1.392 . S
C1442 C1443 1.385 . S
C1442 C1444 1.478 . S
C1443 H1437 0.930 . S
C1443 C1439 1.400 . S
C1443 C1442 1.385 . S
C1444 C1442 1.478 . S
C1444 C1446 1.381 . S
C1444 C1450 1.383 . S
C1445 C1441 1.495 . S
C1445 H1451 0.959 . S
C1445 H1452 0.961 . S
C1445 H1453 0.960 . S
C1446 C1444 1.381 . S
C1446 C1447 1.394 . S
C1446 H1454 0.930 . S
C1447 C1446 1.394 . S
C1447 C1448 1.383 . S
C1447 H1455 0.929 . S
C1448 C1447 1.383 . S
C1448 C1449 1.377 . S
C1449 H1433 0.930 . S
C1449 C1448 1.377 . S
C1449 C1450 1.379 . S
C1450 H1434 0.931 . S
C1450 C1444 1.383 . S
C1450 C1449 1.379 . S
H1451 C1445 0.959 . S
H1452 C1445 0.961 . S
H1453 C1445 0.960 . S
H1454 C1446 0.930 . S
H1455 C1447 0.929 . S
H1456 C1464 0.929 . S
H1457 C1466 0.930 . S
H1458 C1468 0.930 . S
H1459 C1471 0.929 . S
H1460 C1474 0.930 . S
H1461 C1476 0.960 . S
H1462 C1476 0.960 . S
H1463 C1476 0.960 . S
C1464 H1456 0.929 . S
C1464 C1465 1.377 . S
C1464 C1466 1.384 . S
C1465 C1464 1.377 . S
C1465 C1471 1.390 . S
C1466 H1457 0.930 . S
C1466 C1464 1.384 . S
C1466 C1467 1.372 . S
C1467 C1466 1.372 . S
C1467 C1468 1.400 . S
C1467 C1472 1.490 . S
C1468 H1458 0.930 . S
C1468 C1467 1.400 . S
C1468 C1471 1.386 . S
H1469 C1485 0.930 . S
H1470 C1486 0.931 . S
C1471 H1459 0.929 . S
C1471 C1465 1.390 . S
C1471 C1468 1.386 . S
C1472 C1467 1.490 . S
C1472 C1474 1.395 . S
C1472 C1475 1.403 . S
H1473 C1479 0.930 . S
C1474 H1460 0.930 . S
C1474 C1472 1.395 . S
C1474 C1477 1.403 . S
C1475 C1472 1.403 . S
C1475 C1476 1.524 . S
C1475 C1479 1.400 . S
C1476 H1461 0.960 . S
C1476 H1462 0.960 . S
C1476 H1463 0.960 . S
C1476 C1475 1.524 . S
C1477 C1474 1.403 . S
C1477 C1478 1.392 . S
C1477 C1481 1.495 . S
C1478 C1477 1.392 . S
C1478 C1479 1.385 . S
C1478 C1480 1.478 . S
C1479 H1473 0.930 . S
C1479 C1475 1.400 . S
C1479 C1478 1.385 . S
C1480 C1478 1.478 . S
C1480 C1482 1.381 . S
C1480 C1486 1.383 . S
C1481 C1477 1.495 . S
C1481 H1487 0.959 . S
C1481 H1488 0.961 . S
C1481 H1489 0.960 . S
C1482 C1480 1.381 . S
C1482 C1483 1.394 . S
C1482 H1490 0.930 . S
C1483 C1482 1.394 . S
C1483 C1484 1.383 . S
C1483 H1491 0.929 . S
C1484 C1483 1.383 . S
C1484 C1485 1.377 . S
C1485 H1469 0.930 . S
C1485 C1484 1.377 . S
C1485 C1486 1.379 . S
C1486 H1470 0.931 . S
C1486 C1480 1.383 . S
C1486 C1485 1.379 . S
H1487 C1481 0.959 . S
H1488 C1481 0.961 . S
H1489 C1481 0.960 . S
H1490 C1482 0.930 . S
H1491 C1483 0.929 . S
H1492 C1500 0.929 . S
H1493 C1502 0.930 . S
H1494 C1504 0.930 . S
H1495 C1507 0.929 . S
H1496 C1510 0.930 . S
H1497 C1512 0.960 . S
H1498 C1512 0.960 . S
H1499 C1512 0.960 . S
C1500 H1492 0.929 . S
C1500 C1501 1.377 . S
C1500 C1502 1.384 1_455 S
C1501 C1500 1.377 . S
C1501 C1507 1.390 1_455 S
C1502 H1493 0.930 . S
C1502 C1500 1.384 1_655 S
C1502 C1503 1.372 . S
C1503 C1502 1.372 . S
C1503 C1504 1.400 . S
C1503 C1508 1.490 . S
C1504 H1494 0.930 . S
C1504 C1503 1.400 . S
C1504 C1507 1.386 . S
H1505 C1521 0.930 . S
H1506 C1522 0.931 . S
C1507 H1495 0.929 . S
C1507 C1501 1.390 1_655 S
C1507 C1504 1.386 . S
C1508 C1503 1.490 . S
C1508 C1510 1.395 . S
C1508 C1511 1.403 . S
H1509 C1515 0.930 . S
C1510 H1496 0.930 . S
C1510 C1508 1.395 . S
C1510 C1513 1.403 . S
C1511 C1508 1.403 . S
C1511 C1512 1.524 . S
C1511 C1515 1.400 . S
C1512 H1497 0.960 . S
C1512 H1498 0.960 . S
C1512 H1499 0.960 . S
C1512 C1511 1.524 . S
C1513 C1510 1.403 . S
C1513 C1514 1.392 . S
C1513 C1517 1.495 . S
C1514 C1513 1.392 . S
C1514 C1515 1.385 . S
C1514 C1516 1.478 . S
C1515 H1509 0.930 . S
C1515 C1511 1.400 . S
C1515 C1514 1.385 . S
C1516 C1514 1.478 . S
C1516 C1518 1.381 . S
C1516 C1522 1.383 . S
C1517 C1513 1.495 . S
C1517 H1523 0.959 . S
C1517 H1524 0.961 . S
C1517 H1525 0.960 . S
C1518 C1516 1.381 . S
C1518 C1519 1.394 . S
C1518 H1526 0.930 . S
C1519 C1518 1.394 . S
C1519 C1520 1.383 . S
C1519 H1527 0.929 . S
C1520 C1519 1.383 . S
C1520 C1521 1.377 . S
C1521 H1505 0.930 . S
C1521 C1520 1.377 . S
C1521 C1522 1.379 . S
C1522 H1506 0.931 . S
C1522 C1516 1.383 . S
C1522 C1521 1.379 . S
H1523 C1517 0.959 . S
H1524 C1517 0.961 . S
H1525 C1517 0.960 . S
H1526 C1518 0.930 . S
H1527 C1519 0.929 . S
H1528 C1536 0.929 . S
H1529 C1538 0.930 . S
H1530 C1540 0.930 . S
H1531 C1543 0.929 . S
H1532 C1546 0.930 . S
H1533 C1548 0.960 . S
H1534 C1548 0.960 . S
H1535 C1548 0.960 . S
C1536 H1528 0.929 . S
C1536 C1537 1.377 . S
C1536 C1538 1.384 . S
C1537 C1536 1.377 . S
C1537 C1543 1.390 . S
C1538 H1529 0.930 . S
C1538 C1536 1.384 . S
C1538 C1539 1.372 . S
C1539 C1538 1.372 . S
C1539 C1540 1.400 . S
C1539 C1544 1.490 . S
C1540 H1530 0.930 . S
C1540 C1539 1.400 . S
C1540 C1543 1.386 . S
H1541 C1557 0.930 . S
H1542 C1558 0.931 . S
C1543 H1531 0.929 . S
C1543 C1537 1.390 . S
C1543 C1540 1.386 . S
C1544 C1539 1.490 . S
C1544 C1546 1.395 . S
C1544 C1547 1.403 . S
H1545 C1551 0.930 . S
C1546 H1532 0.930 . S
C1546 C1544 1.395 . S
C1546 C1549 1.403 . S
C1547 C1544 1.403 . S
C1547 C1548 1.524 . S
C1547 C1551 1.400 . S
C1548 H1533 0.960 . S
C1548 H1534 0.960 . S
C1548 H1535 0.960 . S
C1548 C1547 1.524 . S
C1549 C1546 1.403 . S
C1549 C1550 1.392 . S
C1549 C1553 1.495 . S
C1550 C1549 1.392 . S
C1550 C1551 1.385 . S
C1550 C1552 1.478 . S
C1551 H1545 0.930 . S
C1551 C1547 1.400 . S
C1551 C1550 1.385 . S
C1552 C1550 1.478 . S
C1552 C1554 1.381 . S
C1552 C1558 1.383 . S
C1553 C1549 1.495 . S
C1553 H1559 0.959 . S
C1553 H1560 0.961 . S
C1553 H1561 0.960 . S
C1554 C1552 1.381 . S
C1554 C1555 1.394 . S
C1554 H1562 0.930 . S
C1555 C1554 1.394 . S
C1555 C1556 1.383 . S
C1555 H1563 0.929 . S
C1556 C1555 1.383 . S
C1556 C1557 1.377 . S
C1557 H1541 0.930 . S
C1557 C1556 1.377 . S
C1557 C1558 1.379 . S
C1558 H1542 0.931 . S
C1558 C1552 1.383 . S
C1558 C1557 1.379 . S
H1559 C1553 0.959 . S
H1560 C1553 0.961 . S
H1561 C1553 0.960 . S
H1562 C1554 0.930 . S
H1563 C1555 0.929 . S
H1564 C1572 0.929 . S
H1565 C1574 0.930 . S
H1566 C1576 0.930 . S
H1567 C1579 0.929 . S
H1568 C1582 0.930 . S
H1569 C1584 0.960 . S
H1570 C1584 0.960 . S
H1571 C1584 0.960 . S
C1572 H1564 0.929 . S
C1572 C1573 1.377 . S
C1572 C1574 1.384 . S
C1573 C1572 1.377 . S
C1573 C1579 1.390 . S
C1574 H1565 0.930 . S
C1574 C1572 1.384 . S
C1574 C1575 1.372 . S
C1575 C1574 1.372 . S
C1575 C1576 1.400 . S
C1575 C1580 1.490 . S
C1576 H1566 0.930 . S
C1576 C1575 1.400 . S
C1576 C1579 1.386 . S
H1577 C1593 0.930 . S
H1578 C1594 0.931 . S
C1579 H1567 0.929 . S
C1579 C1573 1.390 . S
C1579 C1576 1.386 . S
C1580 C1575 1.490 . S
C1580 C1582 1.395 . S
C1580 C1583 1.403 . S
H1581 C1587 0.930 . S
C1582 H1568 0.930 . S
C1582 C1580 1.395 . S
C1582 C1585 1.403 . S
C1583 C1580 1.403 . S
C1583 C1584 1.524 . S
C1583 C1587 1.400 . S
C1584 H1569 0.960 . S
C1584 H1570 0.960 . S
C1584 H1571 0.960 . S
C1584 C1583 1.524 . S
C1585 C1582 1.403 . S
C1585 C1586 1.392 . S
C1585 C1589 1.495 . S
C1586 C1585 1.392 . S
C1586 C1587 1.385 . S
C1586 C1588 1.478 . S
C1587 H1581 0.930 . S
C1587 C1583 1.400 . S
C1587 C1586 1.385 . S
C1588 C1586 1.478 . S
C1588 C1590 1.381 . S
C1588 C1594 1.383 . S
C1589 C1585 1.495 . S
C1589 H1595 0.959 . S
C1589 H1596 0.961 . S
C1589 H1597 0.960 . S
C1590 C1588 1.381 . S
C1590 C1591 1.394 . S
C1590 H1598 0.930 . S
C1591 C1590 1.394 . S
C1591 C1592 1.383 . S
C1591 H1599 0.929 . S
C1592 C1591 1.383 . S
C1592 C1593 1.377 . S
C1593 H1577 0.930 . S
C1593 C1592 1.377 . S
C1593 C1594 1.379 . S
C1594 H1578 0.931 . S
C1594 C1588 1.383 . S
C1594 C1593 1.379 . S
H1595 C1589 0.959 . S
H1596 C1589 0.961 . S
H1597 C1589 0.960 . S
H1598 C1590 0.930 . S
H1599 C1591 0.929 . S
H1600 C1608 0.929 . S
H1601 C1610 0.930 . S
H1602 C1612 0.930 . S
H1603 C1615 0.929 . S
H1604 C1618 0.930 . S
H1605 C1620 0.960 . S
H1606 C1620 0.960 . S
H1607 C1620 0.960 . S
C1608 H1600 0.929 . S
C1608 C1609 1.377 . S
C1608 C1610 1.384 . S
C1609 C1608 1.377 . S
C1609 C1615 1.390 . S
C1610 H1601 0.930 . S
C1610 C1608 1.384 . S
C1610 C1611 1.372 . S
C1611 C1610 1.372 . S
C1611 C1612 1.400 . S
C1611 C1616 1.490 . S
C1612 H1602 0.930 . S
C1612 C1611 1.400 . S
C1612 C1615 1.386 . S
H1613 C1629 0.930 . S
H1614 C1630 0.931 . S
C1615 H1603 0.929 . S
C1615 C1609 1.390 . S
C1615 C1612 1.386 . S
C1616 C1611 1.490 . S
C1616 C1618 1.395 . S
C1616 C1619 1.403 . S
H1617 C1623 0.930 . S
C1618 H1604 0.930 . S
C1618 C1616 1.395 . S
C1618 C1621 1.403 . S
C1619 C1616 1.403 . S
C1619 C1620 1.524 . S
C1619 C1623 1.400 . S
C1620 H1605 0.960 . S
C1620 H1606 0.960 . S
C1620 H1607 0.960 . S
C1620 C1619 1.524 . S
C1621 C1618 1.403 . S
C1621 C1622 1.392 . S
C1621 C1625 1.495 . S
C1622 C1621 1.392 . S
C1622 C1623 1.385 . S
C1622 C1624 1.478 . S
C1623 H1617 0.930 . S
C1623 C1619 1.400 . S
C1623 C1622 1.385 . S
C1624 C1622 1.478 . S
C1624 C1626 1.381 . S
C1624 C1630 1.383 . S
C1625 C1621 1.495 . S
C1625 H1631 0.959 . S
C1625 H1632 0.961 . S
C1625 H1633 0.960 . S
C1626 C1624 1.381 . S
C1626 C1627 1.394 . S
C1626 H1634 0.930 . S
C1627 C1626 1.394 . S
C1627 C1628 1.383 . S
C1627 H1635 0.929 . S
C1628 C1627 1.383 . S
C1628 C1629 1.377 . S
C1629 H1613 0.930 . S
C1629 C1628 1.377 . S
C1629 C1630 1.379 . S
C1630 H1614 0.931 . S
C1630 C1624 1.383 . S
C1630 C1629 1.379 . S
H1631 C1625 0.959 . S
H1632 C1625 0.961 . S
H1633 C1625 0.960 . S
H1634 C1626 0.930 . S
H1635 C1627 0.929 . S
H1636 C1644 0.929 . S
H1637 C1646 0.930 . S
H1638 C1648 0.930 1_545 S
H1639 C1651 0.929 1_545 S
H1640 C1654 0.930 . S
H1641 C1656 0.960 . S
H1642 C1656 0.960 . S
H1643 C1656 0.960 . S
C1644 H1636 0.929 . S
C1644 C1645 1.377 . S
C1644 C1646 1.384 . S
C1645 C1644 1.377 . S
C1645 C1651 1.390 . S
C1646 H1637 0.930 . S
C1646 C1644 1.384 . S
C1646 C1647 1.372 . S
C1647 C1646 1.372 . S
C1647 C1648 1.400 . S
C1647 C1652 1.490 . S
C1648 H1638 0.930 1_565 S
C1648 C1647 1.400 . S
C1648 C1651 1.386 . S
H1649 C1665 0.930 . S
H1650 C1666 0.931 . S
C1651 H1639 0.929 1_565 S
C1651 C1645 1.390 . S
C1651 C1648 1.386 . S
C1652 C1647 1.490 . S
C1652 C1654 1.395 1_455 S
C1652 C1655 1.403 1_565 S
H1653 C1659 0.930 . S
C1654 H1640 0.930 . S
C1654 C1652 1.395 1_655 S
C1654 C1657 1.403 . S
C1655 C1652 1.403 1_545 S
C1655 C1656 1.524 . S
C1655 C1659 1.400 . S
C1656 H1641 0.960 . S
C1656 H1642 0.960 . S
C1656 H1643 0.960 . S
C1656 C1655 1.524 . S
C1657 C1654 1.403 . S
C1657 C1658 1.392 1_565 S
C1657 C1661 1.495 . S
C1658 C1657 1.392 1_545 S
C1658 C1659 1.385 1_655 S
C1658 C1660 1.478 . S
C1659 H1653 0.930 . S
C1659 C1655 1.400 . S
C1659 C1658 1.385 1_455 S
C1660 C1658 1.478 . S
C1660 C1662 1.359 1_545 S
C1660 C1666 1.383 . S
C1661 C1657 1.495 . S
C1661 H1667 0.959 . S
C1661 H1668 0.961 . S
C1661 H1669 0.960 . S
C1662 C1660 1.359 1_565 S
C1662 C1663 1.378 1_565 S
C1662 H1670 0.972 . S
C1663 C1662 1.378 1_545 S
C1663 C1664 1.383 . S
C1663 H1671 0.926 1_545 S
C1664 C1663 1.383 . S
C1664 C1665 1.377 . S
C1665 H1649 0.930 . S
C1665 C1664 1.377 . S
C1665 C1666 1.379 . S
C1666 H1650 0.931 . S
C1666 C1660 1.383 . S
C1666 C1665 1.379 . S
H1667 C1661 0.959 . S
H1668 C1661 0.961 . S
H1669 C1661 0.960 . S
H1670 C1662 0.972 . S
H1671 C1663 0.926 1_565 S
H1672 C1680 0.929 . S
H1673 C1682 0.930 . S
H1674 C1684 0.930 . S
H1675 C1687 0.929 . S
H1676 C1690 0.930 . S
H1677 C1692 0.960 . S
H1678 C1692 0.960 . S
H1679 C1692 0.960 . S
C1680 H1672 0.929 . S
C1680 C1681 1.377 . S
C1680 C1682 1.384 . S
C1681 C1680 1.377 . S
C1681 C1687 1.390 . S
C1682 H1673 0.930 . S
C1682 C1680 1.384 . S
C1682 C1683 1.372 . S
C1683 C1682 1.372 . S
C1683 C1684 1.400 . S
C1683 C1688 1.490 . S
C1684 H1674 0.930 . S
C1684 C1683 1.400 . S
C1684 C1687 1.386 . S
H1685 C1701 0.930 . S
H1686 C1702 0.931 . S
C1687 H1675 0.929 . S
C1687 C1681 1.390 . S
C1687 C1684 1.386 . S
C1688 C1683 1.490 . S
C1688 C1690 1.395 . S
C1688 C1691 1.403 . S
H1689 C1695 0.930 . S
C1690 H1676 0.930 . S
C1690 C1688 1.395 . S
C1690 C1693 1.403 . S
C1691 C1688 1.403 . S
C1691 C1692 1.524 . S
C1691 C1695 1.400 . S
C1692 H1677 0.960 . S
C1692 H1678 0.960 . S
C1692 H1679 0.960 . S
C1692 C1691 1.524 . S
C1693 C1690 1.403 . S
C1693 C1694 1.392 . S
C1693 C1697 1.495 . S
C1694 C1693 1.392 . S
C1694 C1695 1.385 . S
C1694 C1696 1.478 . S
C1695 H1689 0.930 . S
C1695 C1691 1.400 . S
C1695 C1694 1.385 . S
C1696 C1694 1.478 . S
C1696 C1698 1.381 . S
C1696 C1702 1.383 . S
C1697 C1693 1.495 . S
C1697 H1703 0.959 . S
C1697 H1704 0.961 . S
C1697 H1705 0.960 . S
C1698 C1696 1.381 . S
C1698 C1699 1.394 . S
C1698 H1706 0.930 . S
C1699 C1698 1.394 . S
C1699 C1700 1.383 . S
C1699 H1707 0.929 . S
C1700 C1699 1.383 . S
C1700 C1701 1.377 . S
C1701 H1685 0.930 . S
C1701 C1700 1.377 . S
C1701 C1702 1.379 . S
C1702 H1686 0.931 . S
C1702 C1696 1.383 . S
C1702 C1701 1.379 . S
H1703 C1697 0.959 . S
H1704 C1697 0.961 . S
H1705 C1697 0.960 . S
H1706 C1698 0.930 . S
H1707 C1699 0.929 . S
H1708 C1716 0.929 . S
H1709 C1718 0.930 1_565 S
H1710 C1720 0.930 . S
H1711 C1723 0.929 . S
H1712 C1726 0.943 . S
H1713 C1728 0.960 . S
H1714 C1728 0.960 . S
H1715 C1728 0.960 1_545 S
C1716 H1708 0.929 . S
C1716 C1717 1.377 . S
C1716 C1718 1.384 . S
C1717 C1716 1.377 . S
C1717 C1723 1.390 . S
C1718 H1709 0.930 1_545 S
C1718 C1716 1.384 . S
C1718 C1719 1.372 . S
C1719 C1718 1.372 . S
C1719 C1720 1.400 . S
C1719 C1724 1.490 . S
C1720 H1710 0.930 . S
C1720 C1719 1.400 . S
C1720 C1723 1.386 . S
H1721 C1737 0.944 . S
H1722 C1738 0.931 1_545 S
C1723 H1711 0.929 . S
C1723 C1717 1.390 . S
C1723 C1720 1.386 . S
C1724 C1719 1.490 . S
C1724 C1726 1.456 . S
C1724 C1727 1.403 1_545 S
H1725 C1731 0.930 . S
C1726 H1712 0.943 . S
C1726 C1724 1.456 . S
C1726 C1729 1.333 1_554 S
C1727 C1724 1.403 1_565 S
C1727 C1728 1.524 . S
C1727 C1731 1.400 1_554 S
C1728 H1713 0.960 . S
C1728 H1714 0.960 . S
C1728 H1715 0.960 1_565 S
C1728 C1727 1.524 . S
C1729 C1726 1.333 1_556 S
C1729 C1730 1.392 1_545 S
C1729 C1733 1.495 . S
C1730 C1729 1.392 1_565 S
C1730 C1731 1.385 . S
C1730 C1732 1.478 . S
C1731 H1725 0.930 . S
C1731 C1727 1.400 1_556 S
C1731 C1730 1.385 . S
C1732 C1730 1.478 . S
C1732 C1734 1.381 . S
C1732 C1738 1.383 . S
C1733 C1729 1.495 . S
C1733 H1739 0.959 . S
C1733 H1740 0.961 . S
C1733 H1741 0.960 1_545 S
C1734 C1732 1.381 . S
C1734 C1735 1.394 . S
C1734 H1742 0.930 . S
C1735 C1734 1.394 . S
C1735 C1736 1.383 . S
C1735 H1743 0.929 . S
C1736 C1735 1.383 . S
C1736 C1737 1.377 . S
C1737 H1721 0.944 . S
C1737 C1736 1.377 . S
C1737 C1738 1.379 . S
C1738 H1722 0.931 1_565 S
C1738 C1732 1.383 . S
C1738 C1737 1.379 . S
H1739 C1733 0.959 . S
H1740 C1733 0.961 . S
H1741 C1733 0.960 1_565 S
H1742 C1734 0.930 . S
H1743 C1735 0.929 . S
H1744 C1752 0.929 . S
H1745 C1754 0.930 . S
H1746 C1756 0.930 . S
H1747 C1759 0.929 . S
H1748 C1762 0.930 . S
H1749 C1764 0.960 . S
H1750 C1764 0.960 . S
H1751 C1764 0.960 . S
C1752 H1744 0.929 . S
C1752 C1753 1.377 . S
C1752 C1754 1.384 . S
C1753 C1752 1.377 . S
C1753 C1759 1.390 . S
C1754 H1745 0.930 . S
C1754 C1752 1.384 . S
C1754 C1755 1.372 . S
C1755 C1754 1.372 . S
C1755 C1756 1.400 . S
C1755 C1760 1.490 . S
C1756 H1746 0.930 . S
C1756 C1755 1.400 . S
C1756 C1759 1.386 . S
H1757 C1773 0.930 . S
H1758 C1774 0.931 . S
C1759 H1747 0.929 . S
C1759 C1753 1.390 . S
C1759 C1756 1.386 . S
C1760 C1755 1.490 . S
C1760 C1762 1.395 . S
C1760 C1763 1.403 . S
H1761 C1767 0.930 . S
C1762 H1748 0.930 . S
C1762 C1760 1.395 . S
C1762 C1765 1.403 . S
C1763 C1760 1.403 . S
C1763 C1764 1.524 . S
C1763 C1767 1.400 . S
C1764 H1749 0.960 . S
C1764 H1750 0.960 . S
C1764 H1751 0.960 . S
C1764 C1763 1.524 . S
C1765 C1762 1.403 . S
C1765 C1766 1.392 . S
C1765 C1769 1.495 . S
C1766 C1765 1.392 . S
C1766 C1767 1.385 . S
C1766 C1768 1.478 . S
C1767 H1761 0.930 . S
C1767 C1763 1.400 . S
C1767 C1766 1.385 . S
C1768 C1766 1.478 . S
C1768 C1770 1.381 . S
C1768 C1774 1.383 . S
C1769 C1765 1.495 . S
C1769 H1775 0.959 . S
C1769 H1776 0.961 . S
C1769 H1777 0.960 . S
C1770 C1768 1.381 . S
C1770 C1771 1.394 . S
C1770 H1778 0.930 . S
C1771 C1770 1.394 . S
C1771 C1772 1.383 . S
C1771 H1779 0.929 . S
C1772 C1771 1.383 . S
C1772 C1773 1.377 . S
C1773 H1757 0.930 . S
C1773 C1772 1.377 . S
C1773 C1774 1.379 . S
C1774 H1758 0.931 . S
C1774 C1768 1.383 . S
C1774 C1773 1.379 . S
H1775 C1769 0.959 . S
H1776 C1769 0.961 . S
H1777 C1769 0.960 . S
H1778 C1770 0.930 . S
H1779 C1771 0.929 . S
H1780 C1788 0.929 1_545 S
H1781 C1790 0.927 . S
H1782 C1792 0.930 . S
H1783 C1795 0.929 . S
H1784 C1798 0.930 . S
H1785 C1800 0.960 . S
H1786 C1800 0.960 . S
H1787 C1800 0.960 . S
C1788 H1780 0.929 1_565 S
C1788 C1789 1.377 . S
C1788 C1790 1.385 1_565 S
C1789 C1788 1.377 . S
C1789 C1795 1.390 . S
C1790 H1781 0.927 . S
C1790 C1788 1.385 1_545 S
C1790 C1791 1.374 1_545 S
C1791 C1790 1.374 1_565 S
C1791 C1792 1.400 . S
C1791 C1796 1.490 . S
C1792 H1782 0.930 . S
C1792 C1791 1.400 . S
C1792 C1795 1.386 . S
H1793 C1809 0.930 . S
H1794 C1810 0.931 1_565 S
C1795 H1783 0.929 . S
C1795 C1789 1.390 . S
C1795 C1792 1.386 . S
C1796 C1791 1.490 . S
C1796 C1798 1.395 1_565 S
C1796 C1799 1.403 . S
H1797 C1803 0.930 . S
C1798 H1784 0.930 . S
C1798 C1796 1.395 1_545 S
C1798 C1801 1.403 . S
C1799 C1796 1.403 . S
C1799 C1800 1.524 . S
C1799 C1803 1.400 . S
C1800 H1785 0.960 . S
C1800 H1786 0.960 . S
C1800 H1787 0.960 . S
C1800 C1799 1.524 . S
C1801 C1798 1.403 . S
C1801 C1802 1.392 . S
C1801 C1805 1.495 . S
C1802 C1801 1.392 . S
C1802 C1803 1.385 1_545 S
C1802 C1804 1.478 . S
C1803 H1797 0.930 . S
C1803 C1799 1.400 . S
C1803 C1802 1.385 1_565 S
C1804 C1802 1.478 . S
C1804 C1806 1.381 . S
C1804 C1810 1.383 . S
C1805 C1801 1.495 . S
C1805 H1811 0.959 . S
C1805 H1812 0.961 . S
C1805 H1813 0.960 . S
C1806 C1804 1.381 . S
C1806 C1807 1.394 . S
C1806 H1814 0.930 . S
C1807 C1806 1.394 . S
C1807 C1808 1.383 . S
C1807 H1815 0.929 . S
C1808 C1807 1.383 . S
C1808 C1809 1.377 . S
C1809 H1793 0.930 . S
C1809 C1808 1.377 . S
C1809 C1810 1.379 . S
C1810 H1794 0.931 1_545 S
C1810 C1804 1.383 . S
C1810 C1809 1.379 . S
H1811 C1805 0.959 . S
H1812 C1805 0.961 . S
H1813 C1805 0.960 . S
H1814 C1806 0.930 . S
H1815 C1807 0.929 . S
H1816 C1824 0.929 . S
H1817 C1826 0.930 . S
H1818 C1828 0.930 . S
H1819 C1831 0.929 . S
H1820 C1834 0.930 . S
H1821 C1836 0.960 . S
H1822 C1836 0.960 . S
H1823 C1836 0.960 . S
C1824 H1816 0.929 . S
C1824 C1825 1.377 . S
C1824 C1826 1.384 . S
C1825 C1824 1.377 . S
C1825 C1831 1.390 . S
C1826 H1817 0.930 . S
C1826 C1824 1.384 . S
C1826 C1827 1.372 . S
C1827 C1826 1.372 . S
C1827 C1828 1.400 . S
C1827 C1832 1.490 . S
C1828 H1818 0.930 . S
C1828 C1827 1.400 . S
C1828 C1831 1.386 . S
H1829 C1845 0.930 . S
H1830 C1846 0.931 . S
C1831 H1819 0.929 . S
C1831 C1825 1.390 . S
C1831 C1828 1.386 . S
C1832 C1827 1.490 . S
C1832 C1834 1.395 . S
C1832 C1835 1.403 . S
H1833 C1839 0.930 . S
C1834 H1820 0.930 . S
C1834 C1832 1.395 . S
C1834 C1837 1.403 . S
C1835 C1832 1.403 . S
C1835 C1836 1.524 . S
C1835 C1839 1.400 . S
C1836 H1821 0.960 . S
C1836 H1822 0.960 . S
C1836 H1823 0.960 . S
C1836 C1835 1.524 . S
C1837 C1834 1.403 . S
C1837 C1838 1.392 . S
C1837 C1841 1.495 . S
C1838 C1837 1.392 . S
C1838 C1839 1.385 . S
C1838 C1840 1.478 . S
C1839 H1833 0.930 . S
C1839 C1835 1.400 . S
C1839 C1838 1.385 . S
C1840 C1838 1.478 . S
C1840 C1842 1.381 . S
C1840 C1846 1.383 . S
C1841 C1837 1.495 . S
C1841 H1847 0.959 . S
C1841 H1848 0.961 . S
C1841 H1849 0.960 . S
C1842 C1840 1.381 . S
C1842 C1843 1.394 . S
C1842 H1850 0.930 . S
C1843 C1842 1.394 . S
C1843 C1844 1.383 . S
C1843 H1851 0.929 . S
C1844 C1843 1.383 . S
C1844 C1845 1.377 . S
C1845 H1829 0.930 . S
C1845 C1844 1.377 . S
C1845 C1846 1.379 . S
C1846 H1830 0.931 . S
C1846 C1840 1.383 . S
C1846 C1845 1.379 . S
H1847 C1841 0.959 . S
H1848 C1841 0.961 . S
H1849 C1841 0.960 . S
H1850 C1842 0.930 . S
H1851 C1843 0.929 . S
H1852 C1860 0.929 1_565 S
H1853 C1862 0.934 1_565 S
H1854 C1864 0.893 1_655 S
H1855 C1867 0.929 . S
H1856 C1870 0.930 . S
H1857 C1872 0.953 1_565 S
H1858 C1872 0.937 1_565 S
H1859 C1872 0.992 . S
C1860 H1852 0.929 1_545 S
C1860 C1861 1.377 . S
C1860 C1862 1.382 . S
C1861 C1860 1.377 . S
C1861 C1867 1.390 . S
C1862 H1853 0.934 1_545 S
C1862 C1860 1.382 . S
C1862 C1863 1.369 . S
C1863 C1862 1.369 . S
C1863 C1864 1.400 . S
C1863 C1868 1.490 . S
C1864 H1854 0.893 1_455 S
C1864 C1863 1.400 . S
C1864 C1867 1.386 . S
H1865 C1881 0.930 1_545 S
H1866 C1882 0.961 . S
C1867 H1855 0.929 . S
C1867 C1861 1.390 . S
C1867 C1864 1.386 . S
C1868 C1863 1.490 . S
C1868 C1870 1.395 . S
C1868 C1871 1.407 1_455 S
H1869 C1875 0.930 . S
C1870 H1856 0.930 . S
C1870 C1868 1.395 . S
C1870 C1873 1.403 1_546 S
C1871 C1868 1.407 1_655 S
C1871 C1872 1.524 . S
C1871 C1875 1.395 1_546 S
C1872 H1857 0.953 1_545 S
C1872 H1858 0.937 1_545 S
C1872 H1859 0.992 . S
C1872 C1871 1.524 . S
C1873 C1870 1.403 1_564 S
C1873 C1874 1.392 1_455 S
C1873 C1877 1.495 . S
C1874 C1873 1.392 1_655 S
C1874 C1875 1.385 . S
C1874 C1876 1.478 . S
C1875 H1869 0.930 . S
C1875 C1871 1.395 1_564 S
C1875 C1874 1.385 . S
C1876 C1874 1.478 . S
C1876 C1878 1.381 . S
C1876 C1882 1.363 1_565 S
C1877 C1873 1.495 . S
C1877 H1883 0.959 1_565 S
C1877 H1884 0.961 1_565 S
C1877 H1885 0.960 . S
C1878 C1876 1.381 . S
C1878 C1879 1.394 . S
C1878 H1886 0.930 1_655 S
C1879 C1878 1.394 . S
C1879 C1880 1.383 . S
C1879 H1887 0.929 . S
C1880 C1879 1.383 . S
C1880 C1881 1.377 . S
C1881 H1865 0.930 1_565 S
C1881 C1880 1.377 . S
C1881 C1882 1.370 1_565 S
C1882 H1866 0.961 . S
C1882 C1876 1.363 1_545 S
C1882 C1881 1.370 1_545 S
H1883 C1877 0.959 1_545 S
H1884 C1877 0.961 1_545 S
H1885 C1877 0.960 . S
H1886 C1878 0.930 1_455 S
H1887 C1879 0.929 . S
H1888 C1896 0.929 . S
H1889 C1898 0.930 . S
H1890 C1900 0.930 . S
H1891 C1903 0.929 . S
H1892 C1906 0.930 . S
H1893 C1908 0.960 . S
H1894 C1908 0.960 . S
H1895 C1908 0.960 . S
C1896 H1888 0.929 . S
C1896 C1897 1.377 . S
C1896 C1898 1.384 . S
C1897 C1896 1.377 . S
C1897 C1903 1.390 . S
C1898 H1889 0.930 . S
C1898 C1896 1.384 . S
C1898 C1899 1.372 . S
C1899 C1898 1.372 . S
C1899 C1900 1.400 . S
C1899 C1904 1.490 . S
C1900 H1890 0.930 . S
C1900 C1899 1.400 . S
C1900 C1903 1.386 . S
H1901 C1917 0.930 . S
H1902 C1918 0.931 . S
C1903 H1891 0.929 . S
C1903 C1897 1.390 . S
C1903 C1900 1.386 . S
C1904 C1899 1.490 . S
C1904 C1906 1.395 . S
C1904 C1907 1.403 . S
H1905 C1911 0.930 . S
C1906 H1892 0.930 . S
C1906 C1904 1.395 . S
C1906 C1909 1.403 . S
C1907 C1904 1.403 . S
C1907 C1908 1.524 . S
C1907 C1911 1.400 . S
C1908 H1893 0.960 . S
C1908 H1894 0.960 . S
C1908 H1895 0.960 . S
C1908 C1907 1.524 . S
C1909 C1906 1.403 . S
C1909 C1910 1.392 . S
C1909 C1913 1.495 . S
C1910 C1909 1.392 . S
C1910 C1911 1.385 . S
C1910 C1912 1.478 . S
C1911 H1905 0.930 . S
C1911 C1907 1.400 . S
C1911 C1910 1.385 . S
C1912 C1910 1.478 . S
C1912 C1914 1.381 . S
C1912 C1918 1.383 . S
C1913 C1909 1.495 . S
C1913 H1919 0.959 . S
C1913 H1920 0.961 . S
C1913 H1921 0.960 . S
C1914 C1912 1.381 . S
C1914 C1915 1.394 . S
C1914 H1922 0.930 . S
C1915 C1914 1.394 . S
C1915 C1916 1.383 . S
C1915 H1923 0.929 . S
C1916 C1915 1.383 . S
C1916 C1917 1.377 . S
C1917 H1901 0.930 . S
C1917 C1916 1.377 . S
C1917 C1918 1.379 . S
C1918 H1902 0.931 . S
C1918 C1912 1.383 . S
C1918 C1917 1.379 . S
H1919 C1913 0.959 . S
H1920 C1913 0.961 . S
H1921 C1913 0.960 . S
H1922 C1914 0.930 . S
H1923 C1915 0.929 . S
H1924 C1932 0.929 . S
H1925 C1934 0.930 . S
H1926 C1936 0.930 . S
H1927 C1939 0.929 . S
H1928 C1942 0.930 . S
H1929 C1944 0.960 . S
H1930 C1944 0.960 . S
H1931 C1944 0.960 . S
C1932 H1924 0.929 . S
C1932 C1933 1.377 . S
C1932 C1934 1.384 . S
C1933 C1932 1.377 . S
C1933 C1939 1.390 . S
C1934 H1925 0.930 . S
C1934 C1932 1.384 . S
C1934 C1935 1.372 . S
C1935 C1934 1.372 . S
C1935 C1936 1.400 . S
C1935 C1940 1.490 . S
C1936 H1926 0.930 . S
C1936 C1935 1.400 . S
C1936 C1939 1.386 . S
H1937 C1953 0.930 . S
H1938 C1954 0.931 . S
C1939 H1927 0.929 . S
C1939 C1933 1.390 . S
C1939 C1936 1.386 . S
C1940 C1935 1.490 . S
C1940 C1942 1.395 . S
C1940 C1943 1.403 . S
H1941 C1947 0.930 . S
C1942 H1928 0.930 . S
C1942 C1940 1.395 . S
C1942 C1945 1.403 . S
C1943 C1940 1.403 . S
C1943 C1944 1.524 . S
C1943 C1947 1.400 . S
C1944 H1929 0.960 . S
C1944 H1930 0.960 . S
C1944 H1931 0.960 . S
C1944 C1943 1.524 . S
C1945 C1942 1.403 . S
C1945 C1946 1.392 . S
C1945 C1949 1.495 . S
C1946 C1945 1.392 . S
C1946 C1947 1.385 . S
C1946 C1948 1.478 . S
C1947 H1941 0.930 . S
C1947 C1943 1.400 . S
C1947 C1946 1.385 . S
C1948 C1946 1.478 . S
C1948 C1950 1.381 . S
C1948 C1954 1.383 . S
C1949 C1945 1.495 . S
C1949 H1955 0.959 . S
C1949 H1956 0.961 . S
C1949 H1957 0.960 . S
C1950 C1948 1.381 . S
C1950 C1951 1.394 . S
C1950 H1958 0.930 . S
C1951 C1950 1.394 . S
C1951 C1952 1.383 . S
C1951 H1959 0.929 . S
C1952 C1951 1.383 . S
C1952 C1953 1.377 . S
C1953 H1937 0.930 . S
C1953 C1952 1.377 . S
C1953 C1954 1.379 . S
C1954 H1938 0.931 . S
C1954 C1948 1.383 . S
C1954 C1953 1.379 . S
H1955 C1949 0.959 . S
H1956 C1949 0.961 . S
H1957 C1949 0.960 . S
H1958 C1950 0.930 . S
H1959 C1951 0.929 . S
H1960 C1968 0.929 . S
H1961 C1970 0.930 . S
H1962 C1972 0.930 . S
H1963 C1975 0.929 . S
H1964 C1978 0.930 . S
H1965 C1980 0.960 . S
H1966 C1980 0.960 . S
H1967 C1980 0.960 . S
C1968 H1960 0.929 . S
C1968 C1969 1.377 . S
C1968 C1970 1.384 . S
C1969 C1968 1.377 . S
C1969 C1975 1.390 . S
C1970 H1961 0.930 . S
C1970 C1968 1.384 . S
C1970 C1971 1.372 . S
C1971 C1970 1.372 . S
C1971 C1972 1.400 . S
C1971 C1976 1.490 . S
C1972 H1962 0.930 . S
C1972 C1971 1.400 . S
C1972 C1975 1.386 . S
H1973 C1989 0.930 . S
H1974 C1990 0.931 . S
C1975 H1963 0.929 . S
C1975 C1969 1.390 . S
C1975 C1972 1.386 . S
C1976 C1971 1.490 . S
C1976 C1978 1.395 . S
C1976 C1979 1.403 . S
H1977 C1983 0.930 . S
C1978 H1964 0.930 . S
C1978 C1976 1.395 . S
C1978 C1981 1.403 . S
C1979 C1976 1.403 . S
C1979 C1980 1.524 . S
C1979 C1983 1.400 . S
C1980 H1965 0.960 . S
C1980 H1966 0.960 . S
C1980 H1967 0.960 . S
C1980 C1979 1.524 . S
C1981 C1978 1.403 . S
C1981 C1982 1.392 . S
C1981 C1985 1.495 . S
C1982 C1981 1.392 . S
C1982 C1983 1.385 . S
C1982 C1984 1.478 . S
C1983 H1977 0.930 . S
C1983 C1979 1.400 . S
C1983 C1982 1.385 . S
C1984 C1982 1.478 . S
C1984 C1986 1.381 . S
C1984 C1990 1.383 . S
C1985 C1981 1.495 . S
C1985 H1991 0.959 . S
C1985 H1992 0.961 . S
C1985 H1993 0.960 . S
C1986 C1984 1.381 . S
C1986 C1987 1.394 . S
C1986 H1994 0.930 . S
C1987 C1986 1.394 . S
C1987 C1988 1.383 . S
C1987 H1995 0.929 . S
C1988 C1987 1.383 . S
C1988 C1989 1.377 . S
C1989 H1973 0.930 . S
C1989 C1988 1.377 . S
C1989 C1990 1.379 . S
C1990 H1974 0.931 . S
C1990 C1984 1.383 . S
C1990 C1989 1.379 . S
H1991 C1985 0.959 . S
H1992 C1985 0.961 . S
H1993 C1985 0.960 . S
H1994 C1986 0.930 . S
H1995 C1987 0.929 . S
H1996 C2004 0.929 . S
H1997 C2006 0.930 . S
H1998 C2008 0.930 . S
H1999 C2011 0.929 . S
H2000 C2014 0.930 . S
H2001 C2016 0.960 . S
H2002 C2016 0.960 . S
H2003 C2016 0.960 . S
C2004 H1996 0.929 . S
C2004 C2005 1.377 . S
C2004 C2006 1.384 . S
C2005 C2004 1.377 . S
C2005 C2011 1.390 . S
C2006 H1997 0.930 . S
C2006 C2004 1.384 . S
C2006 C2007 1.372 . S
C2007 C2006 1.372 . S
C2007 C2008 1.400 . S
C2007 C2012 1.490 . S
C2008 H1998 0.930 . S
C2008 C2007 1.400 . S
C2008 C2011 1.386 . S
H2009 C2025 0.930 . S
H2010 C2026 0.931 . S
C2011 H1999 0.929 . S
C2011 C2005 1.390 . S
C2011 C2008 1.386 . S
C2012 C2007 1.490 . S
C2012 C2014 1.395 . S
C2012 C2015 1.403 . S
H2013 C2019 0.930 . S
C2014 H2000 0.930 . S
C2014 C2012 1.395 . S
C2014 C2017 1.403 . S
C2015 C2012 1.403 . S
C2015 C2016 1.524 . S
C2015 C2019 1.400 . S
C2016 H2001 0.960 . S
C2016 H2002 0.960 . S
C2016 H2003 0.960 . S
C2016 C2015 1.524 . S
C2017 C2014 1.403 . S
C2017 C2018 1.392 . S
C2017 C2021 1.495 . S
C2018 C2017 1.392 . S
C2018 C2019 1.385 . S
C2018 C2020 1.478 . S
C2019 H2013 0.930 . S
C2019 C2015 1.400 . S
C2019 C2018 1.385 . S
C2020 C2018 1.478 . S
C2020 C2022 1.381 . S
C2020 C2026 1.383 . S
C2021 C2017 1.495 . S
C2021 H2027 0.959 . S
C2021 H2028 0.961 . S
C2021 H2029 0.960 . S
C2022 C2020 1.381 . S
C2022 C2023 1.394 . S
C2022 H2030 0.930 . S
C2023 C2022 1.394 . S
C2023 C2024 1.383 . S
C2023 H2031 0.929 . S
C2024 C2023 1.383 . S
C2024 C2025 1.377 . S
C2025 H2009 0.930 . S
C2025 C2024 1.377 . S
C2025 C2026 1.379 . S
C2026 H2010 0.931 . S
C2026 C2020 1.383 . S
C2026 C2025 1.379 . S
H2027 C2021 0.959 . S
H2028 C2021 0.961 . S
H2029 C2021 0.960 . S
H2030 C2022 0.930 . S
H2031 C2023 0.929 . S
H2032 C2040 0.929 . S
H2033 C2042 0.930 . S
H2034 C2044 0.930 . S
H2035 C2047 0.929 . S
H2036 C2050 0.930 . S
H2037 C2052 0.960 . S
H2038 C2052 0.960 . S
H2039 C2052 0.960 . S
C2040 H2032 0.929 . S
C2040 C2041 1.377 . S
C2040 C2042 1.384 . S
C2041 C2040 1.377 . S
C2041 C2047 1.390 . S
C2042 H2033 0.930 . S
C2042 C2040 1.384 . S
C2042 C2043 1.372 . S
C2043 C2042 1.372 . S
C2043 C2044 1.400 . S
C2043 C2048 1.490 . S
C2044 H2034 0.930 . S
C2044 C2043 1.400 . S
C2044 C2047 1.386 . S
H2045 C2061 0.930 . S
H2046 C2062 0.931 . S
C2047 H2035 0.929 . S
C2047 C2041 1.390 . S
C2047 C2044 1.386 . S
C2048 C2043 1.490 . S
C2048 C2050 1.395 . S
C2048 C2051 1.403 . S
H2049 C2055 0.930 . S
C2050 H2036 0.930 . S
C2050 C2048 1.395 . S
C2050 C2053 1.403 1_554 S
C2051 C2048 1.403 . S
C2051 C2052 1.524 . S
C2051 C2055 1.400 1_554 S
C2052 H2037 0.960 . S
C2052 H2038 0.960 . S
C2052 H2039 0.960 . S
C2052 C2051 1.524 . S
C2053 C2050 1.403 1_556 S
C2053 C2054 1.392 . S
C2053 C2057 1.495 . S
C2054 C2053 1.392 . S
C2054 C2055 1.385 . S
C2054 C2056 1.478 . S
C2055 H2049 0.930 . S
C2055 C2051 1.400 1_556 S
C2055 C2054 1.385 . S
C2056 C2054 1.478 . S
C2056 C2058 1.381 . S
C2056 C2062 1.383 . S
C2057 C2053 1.495 . S
C2057 H2063 0.959 . S
C2057 H2064 0.961 . S
C2057 H2065 0.960 . S
C2058 C2056 1.381 . S
C2058 C2059 1.394 . S
C2058 H2066 0.930 . S
C2059 C2058 1.394 . S
C2059 C2060 1.383 . S
C2059 H2067 0.929 . S
C2060 C2059 1.383 . S
C2060 C2061 1.377 . S
C2061 H2045 0.930 . S
C2061 C2060 1.377 . S
C2061 C2062 1.379 . S
C2062 H2046 0.931 . S
C2062 C2056 1.383 . S
C2062 C2061 1.379 . S
H2063 C2057 0.959 . S
H2064 C2057 0.961 . S
H2065 C2057 0.960 . S
H2066 C2058 0.930 . S
H2067 C2059 0.929 . S
H2068 C2076 0.929 . S
H2069 C2078 0.930 . S
H2070 C2080 0.930 . S
H2071 C2083 0.929 . S
H2072 C2086 0.930 . S
H2073 C2088 0.960 . S
H2074 C2088 0.960 . S
H2075 C2088 0.960 . S
C2076 H2068 0.929 . S
C2076 C2077 1.377 . S
C2076 C2078 1.384 . S
C2077 C2076 1.377 . S
C2077 C2083 1.390 . S
C2078 H2069 0.930 . S
C2078 C2076 1.384 . S
C2078 C2079 1.372 . S
C2079 C2078 1.372 . S
C2079 C2080 1.400 . S
C2079 C2084 1.490 . S
C2080 H2070 0.930 . S
C2080 C2079 1.400 . S
C2080 C2083 1.386 . S
H2081 C2097 0.930 . S
H2082 C2098 0.931 . S
C2083 H2071 0.929 . S
C2083 C2077 1.390 . S
C2083 C2080 1.386 . S
C2084 C2079 1.490 . S
C2084 C2086 1.395 1_455 S
C2084 C2087 1.403 . S
H2085 C2091 0.930 . S
C2086 H2072 0.930 . S
C2086 C2084 1.395 1_655 S
C2086 C2089 1.403 . S
C2087 C2084 1.403 . S
C2087 C2088 1.524 . S
C2087 C2091 1.400 . S
C2088 H2073 0.960 . S
C2088 H2074 0.960 . S
C2088 H2075 0.960 . S
C2088 C2087 1.524 . S
C2089 C2086 1.403 . S
C2089 C2090 1.392 . S
C2089 C2093 1.495 . S
C2090 C2089 1.392 . S
C2090 C2091 1.385 1_655 S
C2090 C2092 1.478 . S
C2091 H2085 0.930 . S
C2091 C2087 1.400 . S
C2091 C2090 1.385 1_455 S
C2092 C2090 1.478 . S
C2092 C2094 1.381 . S
C2092 C2098 1.383 . S
C2093 C2089 1.495 . S
C2093 H2099 0.959 . S
C2093 H2100 0.961 . S
C2093 H2101 0.960 . S
C2094 C2092 1.381 . S
C2094 C2095 1.394 . S
C2094 H2102 0.930 . S
C2095 C2094 1.394 . S
C2095 C2096 1.383 . S
C2095 H2103 0.929 . S
C2096 C2095 1.383 . S
C2096 C2097 1.377 . S
C2097 H2081 0.930 . S
C2097 C2096 1.377 . S
C2097 C2098 1.379 . S
C2098 H2082 0.931 . S
C2098 C2092 1.383 . S
C2098 C2097 1.379 . S
H2099 C2093 0.959 . S
H2100 C2093 0.961 . S
H2101 C2093 0.960 . S
H2102 C2094 0.930 . S
H2103 C2095 0.929 . S
H2104 C2112 0.929 . S
H2105 C2114 0.930 . S
H2106 C2116 0.930 . S
H2107 C2119 0.929 . S
H2108 C2122 0.930 . S
H2109 C2124 1.008 . S
H2110 C2124 0.939 1_554 S
H2111 C2124 0.938 1_554 S
C2112 H2104 0.929 . S
C2112 C2113 1.377 . S
C2112 C2114 1.384 . S
C2113 C2112 1.377 . S
C2113 C2119 1.390 . S
C2114 H2105 0.930 . S
C2114 C2112 1.384 . S
C2114 C2115 1.372 . S
C2115 C2114 1.372 . S
C2115 C2116 1.400 . S
C2115 C2120 1.490 . S
C2116 H2106 0.930 . S
C2116 C2115 1.400 . S
C2116 C2119 1.386 . S
H2117 C2133 0.930 . S
H2118 C2134 0.931 . S
C2119 H2107 0.929 . S
C2119 C2113 1.390 . S
C2119 C2116 1.386 . S
C2120 C2115 1.490 . S
C2120 C2122 1.395 1_455 S
C2120 C2123 1.428 . S
H2121 C2127 0.930 . S
C2122 H2108 0.930 . S
C2122 C2120 1.395 1_655 S
C2122 C2125 1.465 . S
C2123 C2120 1.428 . S
C2123 C2124 1.521 1_554 S
C2123 C2127 1.375 1_554 S
C2124 H2109 1.008 . S
C2124 H2110 0.939 1_556 S
C2124 H2111 0.938 1_556 S
C2124 C2123 1.521 1_556 S
C2125 C2122 1.465 . S
C2125 C2126 1.330 1_554 S
C2125 C2129 1.501 . S
C2126 C2125 1.330 1_556 S
C2126 C2127 1.385 1_655 S
C2126 C2128 1.478 . S
C2127 H2121 0.930 . S
C2127 C2123 1.375 1_556 S
C2127 C2126 1.385 1_455 S
C2128 C2126 1.478 . S
C2128 C2130 1.381 . S
C2128 C2134 1.383 . S
C2129 C2125 1.501 . S
C2129 H2135 0.959 . S
C2129 H2136 0.961 1_554 S
C2129 H2137 0.960 1_554 S
C2130 C2128 1.381 . S
C2130 C2131 1.394 . S
C2130 H2138 0.930 . S
C2131 C2130 1.394 . S
C2131 C2132 1.383 . S
C2131 H2139 0.929 . S
C2132 C2131 1.383 . S
C2132 C2133 1.377 . S
C2133 H2117 0.930 . S
C2133 C2132 1.377 . S
C2133 C2134 1.379 . S
C2134 H2118 0.931 . S
C2134 C2128 1.383 . S
C2134 C2133 1.379 . S
H2135 C2129 0.959 . S
H2136 C2129 0.961 1_556 S
H2137 C2129 0.960 1_556 S
H2138 C2130 0.930 . S
H2139 C2131 0.929 . S
H2140 C2148 0.929 . S
H2141 C2150 0.930 . S
H2142 C2152 0.930 . S
H2143 C2155 0.929 . S
H2144 C2158 0.930 . S
H2145 C2160 0.960 . S
H2146 C2160 0.960 . S
H2147 C2160 0.960 . S
C2148 H2140 0.929 . S
C2148 C2149 1.377 . S
C2148 C2150 1.384 . S
C2149 C2148 1.377 . S
C2149 C2155 1.390 . S
C2150 H2141 0.930 . S
C2150 C2148 1.384 . S
C2150 C2151 1.372 . S
C2151 C2150 1.372 . S
C2151 C2152 1.400 . S
C2151 C2156 1.490 . S
C2152 H2142 0.930 . S
C2152 C2151 1.400 . S
C2152 C2155 1.386 . S
H2153 C2169 0.930 . S
H2154 C2170 0.931 . S
C2155 H2143 0.929 . S
C2155 C2149 1.390 . S
C2155 C2152 1.386 . S
C2156 C2151 1.490 . S
C2156 C2158 1.395 . S
C2156 C2159 1.403 . S
H2157 C2163 0.930 . S
C2158 H2144 0.930 . S
C2158 C2156 1.395 . S
C2158 C2161 1.403 . S
C2159 C2156 1.403 . S
C2159 C2160 1.524 . S
C2159 C2163 1.400 . S
C2160 H2145 0.960 . S
C2160 H2146 0.960 . S
C2160 H2147 0.960 . S
C2160 C2159 1.524 . S
C2161 C2158 1.403 . S
C2161 C2162 1.392 . S
C2161 C2165 1.495 . S
C2162 C2161 1.392 . S
C2162 C2163 1.385 . S
C2162 C2164 1.478 . S
C2163 H2157 0.930 . S
C2163 C2159 1.400 . S
C2163 C2162 1.385 . S
C2164 C2162 1.478 . S
C2164 C2166 1.381 . S
C2164 C2170 1.383 . S
C2165 C2161 1.495 . S
C2165 H2171 0.959 . S
C2165 H2172 0.961 . S
C2165 H2173 0.960 . S
C2166 C2164 1.381 . S
C2166 C2167 1.394 . S
C2166 H2174 0.930 . S
C2167 C2166 1.394 . S
C2167 C2168 1.383 . S
C2167 H2175 0.929 . S
C2168 C2167 1.383 . S
C2168 C2169 1.377 . S
C2169 H2153 0.930 . S
C2169 C2168 1.377 . S
C2169 C2170 1.379 . S
C2170 H2154 0.931 . S
C2170 C2164 1.383 . S
C2170 C2169 1.379 . S
H2171 C2165 0.959 . S
H2172 C2165 0.961 . S
H2173 C2165 0.960 . S
H2174 C2166 0.930 . S
H2175 C2167 0.929 . S
H2176 C2184 0.929 . S
H2177 C2186 0.930 . S
H2178 C2188 0.930 . S
H2179 C2191 0.929 . S
H2180 C2194 0.930 . S
H2181 C2196 0.960 . S
H2182 C2196 0.960 . S
H2183 C2196 0.960 . S
C2184 H2176 0.929 . S
C2184 C2185 1.377 . S
C2184 C2186 1.384 . S
C2185 C2184 1.377 . S
C2185 C2191 1.390 . S
C2186 H2177 0.930 . S
C2186 C2184 1.384 . S
C2186 C2187 1.372 . S
C2187 C2186 1.372 . S
C2187 C2188 1.400 . S
C2187 C2192 1.490 . S
C2188 H2178 0.930 . S
C2188 C2187 1.400 . S
C2188 C2191 1.386 . S
H2189 C2205 0.930 . S
H2190 C2206 0.931 . S
C2191 H2179 0.929 . S
C2191 C2185 1.390 . S
C2191 C2188 1.386 . S
C2192 C2187 1.490 . S
C2192 C2194 1.395 . S
C2192 C2195 1.403 . S
H2193 C2199 0.930 . S
C2194 H2180 0.930 . S
C2194 C2192 1.395 . S
C2194 C2197 1.403 . S
C2195 C2192 1.403 . S
C2195 C2196 1.524 . S
C2195 C2199 1.400 . S
C2196 H2181 0.960 . S
C2196 H2182 0.960 . S
C2196 H2183 0.960 . S
C2196 C2195 1.524 . S
C2197 C2194 1.403 . S
C2197 C2198 1.392 . S
C2197 C2201 1.495 . S
C2198 C2197 1.392 . S
C2198 C2199 1.385 . S
C2198 C2200 1.478 . S
C2199 H2193 0.930 . S
C2199 C2195 1.400 . S
C2199 C2198 1.385 . S
C2200 C2198 1.478 . S
C2200 C2202 1.381 . S
C2200 C2206 1.383 . S
C2201 C2197 1.495 . S
C2201 H2207 0.959 . S
C2201 H2208 0.961 . S
C2201 H2209 0.960 . S
C2202 C2200 1.381 . S
C2202 C2203 1.394 . S
C2202 H2210 0.930 . S
C2203 C2202 1.394 . S
C2203 C2204 1.383 . S
C2203 H2211 0.929 1_545 S
C2204 C2203 1.383 . S
C2204 C2205 1.377 . S
C2205 H2189 0.930 . S
C2205 C2204 1.377 . S
C2205 C2206 1.379 . S
C2206 H2190 0.931 . S
C2206 C2200 1.383 . S
C2206 C2205 1.379 . S
H2207 C2201 0.959 . S
H2208 C2201 0.961 . S
H2209 C2201 0.960 . S
H2210 C2202 0.930 . S
H2211 C2203 0.929 1_565 S
H2212 C2220 0.929 . S
H2213 C2222 0.930 . S
H2214 C2224 0.930 . S
H2215 C2227 0.929 . S
H2216 C2230 0.930 . S
H2217 C2232 0.960 . S
H2218 C2232 0.960 . S
H2219 C2232 0.960 . S
C2220 H2212 0.929 . S
C2220 C2221 1.377 1_565 S
C2220 C2222 1.384 1_565 S
C2221 C2220 1.377 1_545 S
C2221 C2227 1.390 . S
C2222 H2213 0.930 . S
C2222 C2220 1.384 1_545 S
C2222 C2223 1.372 . S
C2223 C2222 1.372 . S
C2223 C2224 1.400 . S
C2223 C2228 1.490 . S
C2224 H2214 0.930 . S
C2224 C2223 1.400 . S
C2224 C2227 1.386 . S
H2225 C2241 0.930 . S
H2226 C2242 0.931 . S
C2227 H2215 0.929 . S
C2227 C2221 1.390 . S
C2227 C2224 1.386 . S
C2228 C2223 1.490 . S
C2228 C2230 1.395 . S
C2228 C2231 1.403 . S
H2229 C2235 0.930 . S
C2230 H2216 0.930 . S
C2230 C2228 1.395 . S
C2230 C2233 1.403 . S
C2231 C2228 1.403 . S
C2231 C2232 1.524 . S
C2231 C2235 1.400 . S
C2232 H2217 0.960 . S
C2232 H2218 0.960 . S
C2232 H2219 0.960 . S
C2232 C2231 1.524 . S
C2233 C2230 1.403 . S
C2233 C2234 1.392 . S
C2233 C2237 1.495 . S
C2234 C2233 1.392 . S
C2234 C2235 1.385 . S
C2234 C2236 1.478 . S
C2235 H2229 0.930 . S
C2235 C2231 1.400 . S
C2235 C2234 1.385 . S
C2236 C2234 1.478 . S
C2236 C2238 1.381 . S
C2236 C2242 1.383 . S
C2237 C2233 1.495 . S
C2237 H2243 0.959 . S
C2237 H2244 0.961 . S
C2237 H2245 0.960 . S
C2238 C2236 1.381 . S
C2238 C2239 1.394 . S
C2238 H2246 0.930 . S
C2239 C2238 1.394 . S
C2239 C2240 1.383 . S
C2239 H2247 0.929 . S
C2240 C2239 1.383 . S
C2240 C2241 1.377 . S
C2241 H2225 0.930 . S
C2241 C2240 1.377 . S
C2241 C2242 1.379 . S
C2242 H2226 0.931 . S
C2242 C2236 1.383 . S
C2242 C2241 1.379 . S
H2243 C2237 0.959 . S
H2244 C2237 0.961 . S
H2245 C2237 0.960 . S
H2246 C2238 0.930 . S
H2247 C2239 0.929 . S
H2248 C2256 0.929 . S
H2249 C2258 0.930 . S
H2250 C2260 0.930 . S
H2251 C2263 0.929 . S
H2252 C2266 0.930 . S
H2253 C2268 0.960 . S
H2254 C2268 0.960 . S
H2255 C2268 0.960 . S
C2256 H2248 0.929 . S
C2256 C2257 1.377 . S
C2256 C2258 1.384 . S
C2257 C2256 1.377 . S
C2257 C2263 1.390 . S
C2258 H2249 0.930 . S
C2258 C2256 1.384 . S
C2258 C2259 1.372 . S
C2259 C2258 1.372 . S
C2259 C2260 1.400 . S
C2259 C2264 1.490 . S
C2260 H2250 0.930 . S
C2260 C2259 1.400 . S
C2260 C2263 1.386 . S
H2261 C2277 0.930 . S
H2262 C2278 0.931 . S
C2263 H2251 0.929 . S
C2263 C2257 1.390 . S
C2263 C2260 1.386 . S
C2264 C2259 1.490 . S
C2264 C2266 1.395 . S
C2264 C2267 1.403 . S
H2265 C2271 0.930 . S
C2266 H2252 0.930 . S
C2266 C2264 1.395 . S
C2266 C2269 1.403 . S
C2267 C2264 1.403 . S
C2267 C2268 1.524 . S
C2267 C2271 1.400 . S
C2268 H2253 0.960 . S
C2268 H2254 0.960 . S
C2268 H2255 0.960 . S
C2268 C2267 1.524 . S
C2269 C2266 1.403 . S
C2269 C2270 1.392 . S
C2269 C2273 1.495 . S
C2270 C2269 1.392 . S
C2270 C2271 1.385 . S
C2270 C2272 1.478 . S
C2271 H2265 0.930 . S
C2271 C2267 1.400 . S
C2271 C2270 1.385 . S
C2272 C2270 1.478 . S
C2272 C2274 1.381 . S
C2272 C2278 1.383 . S
C2273 C2269 1.495 . S
C2273 H2279 0.959 . S
C2273 H2280 0.961 . S
C2273 H2281 0.960 . S
C2274 C2272 1.381 . S
C2274 C2275 1.394 . S
C2274 H2282 0.930 . S
C2275 C2274 1.394 . S
C2275 C2276 1.383 . S
C2275 H2283 0.929 1_565 S
C2276 C2275 1.383 . S
C2276 C2277 1.377 . S
C2277 H2261 0.930 . S
C2277 C2276 1.377 . S
C2277 C2278 1.379 . S
C2278 H2262 0.931 . S
C2278 C2272 1.383 . S
C2278 C2277 1.379 . S
H2279 C2273 0.959 . S
H2280 C2273 0.961 . S
H2281 C2273 0.960 . S
H2282 C2274 0.930 . S
H2283 C2275 0.929 1_545 S
H2284 C2292 0.929 . S
H2285 C2294 0.930 . S
H2286 C2296 0.930 . S
H2287 C2299 0.929 . S
H2288 C2302 0.930 . S
H2289 C2304 0.960 . S
H2290 C2304 0.960 . S
H2291 C2304 0.960 . S
C2292 H2284 0.929 . S
C2292 C2293 1.377 . S
C2292 C2294 1.384 . S
C2293 C2292 1.377 . S
C2293 C2299 1.390 . S
C2294 H2285 0.930 . S
C2294 C2292 1.384 . S
C2294 C2295 1.372 . S
C2295 C2294 1.372 . S
C2295 C2296 1.400 . S
C2295 C2300 1.490 . S
C2296 H2286 0.930 . S
C2296 C2295 1.400 . S
C2296 C2299 1.386 . S
H2297 C2313 0.930 . S
H2298 C2314 0.931 . S
C2299 H2287 0.929 . S
C2299 C2293 1.390 . S
C2299 C2296 1.386 . S
C2300 C2295 1.490 . S
C2300 C2302 1.395 . S
C2300 C2303 1.403 . S
H2301 C2307 0.930 . S
C2302 H2288 0.930 . S
C2302 C2300 1.395 . S
C2302 C2305 1.403 . S
C2303 C2300 1.403 . S
C2303 C2304 1.524 . S
C2303 C2307 1.400 . S
C2304 H2289 0.960 . S
C2304 H2290 0.960 . S
C2304 H2291 0.960 . S
C2304 C2303 1.524 . S
C2305 C2302 1.403 . S
C2305 C2306 1.392 . S
C2305 C2309 1.495 . S
C2306 C2305 1.392 . S
C2306 C2307 1.385 . S
C2306 C2308 1.478 . S
C2307 H2301 0.930 . S
C2307 C2303 1.400 . S
C2307 C2306 1.385 . S
C2308 C2306 1.478 . S
C2308 C2310 1.381 . S
C2308 C2314 1.383 . S
C2309 C2305 1.495 . S
C2309 H2315 0.959 . S
C2309 H2316 0.961 . S
C2309 H2317 0.960 . S
C2310 C2308 1.381 . S
C2310 C2311 1.394 . S
C2310 H2318 0.930 . S
C2311 C2310 1.394 . S
C2311 C2312 1.383 . S
C2311 H2319 0.929 . S
C2312 C2311 1.383 . S
C2312 C2313 1.377 1_565 S
C2313 H2297 0.930 . S
C2313 C2312 1.377 1_545 S
C2313 C2314 1.379 1_545 S
C2314 H2298 0.931 . S
C2314 C2308 1.383 . S
C2314 C2313 1.379 1_565 S
H2315 C2309 0.959 . S
H2316 C2309 0.961 . S
H2317 C2309 0.960 . S
H2318 C2310 0.930 . S
H2319 C2311 0.929 . S
H2320 C2328 0.929 . S
H2321 C2330 0.930 . S
H2322 C2332 0.930 . S
H2323 C2335 0.929 . S
H2324 C2338 0.930 . S
H2325 C2340 0.960 . S
H2326 C2340 0.960 . S
H2327 C2340 0.960 . S
C2328 H2320 0.929 . S
C2328 C2329 1.377 . S
C2328 C2330 1.384 . S
C2329 C2328 1.377 . S
C2329 C2335 1.390 . S
C2330 H2321 0.930 . S
C2330 C2328 1.384 . S
C2330 C2331 1.372 . S
C2331 C2330 1.372 . S
C2331 C2332 1.400 . S
C2331 C2336 1.490 . S
C2332 H2322 0.930 . S
C2332 C2331 1.400 . S
C2332 C2335 1.386 . S
H2333 C2349 0.930 . S
H2334 C2350 0.931 . S
C2335 H2323 0.929 . S
C2335 C2329 1.390 . S
C2335 C2332 1.386 . S
C2336 C2331 1.490 . S
C2336 C2338 1.395 . S
C2336 C2339 1.403 . S
H2337 C2343 0.930 . S
C2338 H2324 0.930 . S
C2338 C2336 1.395 . S
C2338 C2341 1.403 . S
C2339 C2336 1.403 . S
C2339 C2340 1.524 . S
C2339 C2343 1.400 . S
C2340 H2325 0.960 . S
C2340 H2326 0.960 . S
C2340 H2327 0.960 . S
C2340 C2339 1.524 . S
C2341 C2338 1.403 . S
C2341 C2342 1.392 . S
C2341 C2345 1.495 . S
C2342 C2341 1.392 . S
C2342 C2343 1.385 . S
C2342 C2344 1.478 . S
C2343 H2337 0.930 . S
C2343 C2339 1.400 . S
C2343 C2342 1.385 . S
C2344 C2342 1.478 . S
C2344 C2346 1.381 . S
C2344 C2350 1.383 . S
C2345 C2341 1.495 . S
C2345 H2351 0.959 . S
C2345 H2352 0.961 . S
C2345 H2353 0.960 . S
C2346 C2344 1.381 . S
C2346 C2347 1.394 . S
C2346 H2354 0.930 . S
C2347 C2346 1.394 . S
C2347 C2348 1.383 . S
C2347 H2355 0.929 1_565 S
C2348 C2347 1.383 . S
C2348 C2349 1.377 . S
C2349 H2333 0.930 . S
C2349 C2348 1.377 . S
C2349 C2350 1.379 . S
C2350 H2334 0.931 . S
C2350 C2344 1.383 . S
C2350 C2349 1.379 . S
H2351 C2345 0.959 . S
H2352 C2345 0.961 . S
H2353 C2345 0.960 . S
H2354 C2346 0.930 . S
H2355 C2347 0.929 1_545 S
H2356 C2364 0.929 1_545 S
H2357 C2366 0.930 . S
H2358 C2368 0.930 . S
H2359 C2371 0.929 . S
H2360 C2374 0.930 . S
H2361 C2376 0.960 . S
H2362 C2376 0.960 . S
H2363 C2376 0.960 . S
C2364 H2356 0.929 1_565 S
C2364 C2365 1.377 . S
C2364 C2366 1.384 . S
C2365 C2364 1.377 . S
C2365 C2371 1.390 . S
C2366 H2357 0.930 . S
C2366 C2364 1.384 . S
C2366 C2367 1.372 . S
C2367 C2366 1.372 . S
C2367 C2368 1.400 . S
C2367 C2372 1.490 . S
C2368 H2358 0.930 . S
C2368 C2367 1.400 . S
C2368 C2371 1.386 . S
H2369 C2385 0.930 . S
H2370 C2386 0.931 . S
C2371 H2359 0.929 . S
C2371 C2365 1.390 . S
C2371 C2368 1.386 . S
C2372 C2367 1.490 . S
C2372 C2374 1.395 . S
C2372 C2375 1.403 . S
H2373 C2379 0.930 . S
C2374 H2360 0.930 . S
C2374 C2372 1.395 . S
C2374 C2377 1.403 . S
C2375 C2372 1.403 . S
C2375 C2376 1.524 . S
C2375 C2379 1.400 . S
C2376 H2361 0.960 . S
C2376 H2362 0.960 . S
C2376 H2363 0.960 . S
C2376 C2375 1.524 . S
C2377 C2374 1.403 . S
C2377 C2378 1.392 . S
C2377 C2381 1.495 . S
C2378 C2377 1.392 . S
C2378 C2379 1.385 . S
C2378 C2380 1.478 . S
C2379 H2373 0.930 . S
C2379 C2375 1.400 . S
C2379 C2378 1.385 . S
C2380 C2378 1.478 . S
C2380 C2382 1.381 . S
C2380 C2386 1.383 . S
C2381 C2377 1.495 . S
C2381 H2387 0.959 . S
C2381 H2388 0.961 . S
C2381 H2389 0.960 . S
C2382 C2380 1.381 . S
C2382 C2383 1.394 . S
C2382 H2390 0.930 . S
C2383 C2382 1.394 . S
C2383 C2384 1.383 . S
C2383 H2391 0.929 . S
C2384 C2383 1.383 . S
C2384 C2385 1.377 . S
C2385 H2369 0.930 . S
C2385 C2384 1.377 . S
C2385 C2386 1.379 . S
C2386 H2370 0.931 . S
C2386 C2380 1.383 . S
C2386 C2385 1.379 . S
H2387 C2381 0.959 . S
H2388 C2381 0.961 . S
H2389 C2381 0.960 . S
H2390 C2382 0.930 . S
H2391 C2383 0.929 . S
H2392 C2400 0.929 . S
H2393 C2402 0.930 . S
H2394 C2404 0.930 . S
H2395 C2407 0.929 . S
H2396 C2410 0.930 . S
H2397 C2412 0.960 . S
H2398 C2412 0.960 . S
H2399 C2412 0.960 . S
C2400 H2392 0.929 . S
C2400 C2401 1.377 . S
C2400 C2402 1.384 . S
C2401 C2400 1.377 . S
C2401 C2407 1.390 . S
C2402 H2393 0.930 . S
C2402 C2400 1.384 . S
C2402 C2403 1.372 . S
C2403 C2402 1.372 . S
C2403 C2404 1.400 . S
C2403 C2408 1.490 . S
C2404 H2394 0.930 . S
C2404 C2403 1.400 . S
C2404 C2407 1.386 . S
H2405 C2421 0.930 . S
H2406 C2422 0.931 . S
C2407 H2395 0.929 . S
C2407 C2401 1.390 . S
C2407 C2404 1.386 . S
C2408 C2403 1.490 . S
C2408 C2410 1.395 . S
C2408 C2411 1.403 . S
H2409 C2415 0.930 . S
C2410 H2396 0.930 . S
C2410 C2408 1.395 . S
C2410 C2413 1.403 . S
C2411 C2408 1.403 . S
C2411 C2412 1.524 . S
C2411 C2415 1.400 . S
C2412 H2397 0.960 . S
C2412 H2398 0.960 . S
C2412 H2399 0.960 . S
C2412 C2411 1.524 . S
C2413 C2410 1.403 . S
C2413 C2414 1.392 . S
C2413 C2417 1.495 . S
C2414 C2413 1.392 . S
C2414 C2415 1.385 . S
C2414 C2416 1.478 . S
C2415 H2409 0.930 . S
C2415 C2411 1.400 . S
C2415 C2414 1.385 . S
C2416 C2414 1.478 . S
C2416 C2418 1.381 . S
C2416 C2422 1.383 . S
C2417 C2413 1.495 . S
C2417 H2423 0.959 . S
C2417 H2424 0.961 . S
C2417 H2425 0.960 . S
C2418 C2416 1.381 . S
C2418 C2419 1.397 . S
C2418 H2426 0.930 . S
C2419 C2418 1.397 . S
C2419 C2420 1.384 . S
C2419 H2427 0.926 1_545 S
C2420 C2419 1.384 . S
C2420 C2421 1.377 . S
C2421 H2405 0.930 . S
C2421 C2420 1.377 . S
C2421 C2422 1.379 . S
C2422 H2406 0.931 . S
C2422 C2416 1.383 . S
C2422 C2421 1.379 . S
H2423 C2417 0.959 . S
H2424 C2417 0.961 . S
H2425 C2417 0.960 . S
H2426 C2418 0.930 . S
H2427 C2419 0.926 1_565 S
H2428 C2436 0.929 . S
H2429 C2438 0.930 . S
H2430 C2440 0.930 . S
H2431 C2443 0.929 . S
H2432 C2446 0.930 . S
H2433 C2448 0.960 . S
H2434 C2448 0.960 . S
H2435 C2448 0.960 . S
C2436 H2428 0.929 . S
C2436 C2437 1.377 . S
C2436 C2438 1.384 . S
C2437 C2436 1.377 . S
C2437 C2443 1.390 . S
C2438 H2429 0.930 . S
C2438 C2436 1.384 . S
C2438 C2439 1.372 . S
C2439 C2438 1.372 . S
C2439 C2440 1.400 . S
C2439 C2444 1.490 . S
C2440 H2430 0.930 . S
C2440 C2439 1.400 . S
C2440 C2443 1.386 . S
H2441 C2457 0.930 . S
H2442 C2458 0.931 . S
C2443 H2431 0.929 . S
C2443 C2437 1.390 . S
C2443 C2440 1.386 . S
C2444 C2439 1.490 . S
C2444 C2446 1.395 . S
C2444 C2447 1.403 . S
H2445 C2451 0.930 . S
C2446 H2432 0.930 . S
C2446 C2444 1.395 . S
C2446 C2449 1.403 . S
C2447 C2444 1.403 . S
C2447 C2448 1.524 . S
C2447 C2451 1.400 . S
C2448 H2433 0.960 . S
C2448 H2434 0.960 . S
C2448 H2435 0.960 . S
C2448 C2447 1.524 . S
C2449 C2446 1.403 . S
C2449 C2450 1.392 . S
C2449 C2453 1.495 . S
C2450 C2449 1.392 . S
C2450 C2451 1.385 . S
C2450 C2452 1.478 . S
C2451 H2445 0.930 . S
C2451 C2447 1.400 . S
C2451 C2450 1.385 . S
C2452 C2450 1.478 . S
C2452 C2454 1.381 . S
C2452 C2458 1.383 . S
C2453 C2449 1.495 . S
C2453 H2459 0.959 . S
C2453 H2460 0.961 . S
C2453 H2461 0.960 . S
C2454 C2452 1.381 . S
C2454 C2455 1.394 . S
C2454 H2462 0.930 . S
C2455 C2454 1.394 . S
C2455 C2456 1.383 . S
C2455 H2463 0.929 . S
C2456 C2455 1.383 . S
C2456 C2457 1.377 . S
C2457 H2441 0.930 . S
C2457 C2456 1.377 . S
C2457 C2458 1.379 . S
C2458 H2442 0.931 . S
C2458 C2452 1.383 . S
C2458 C2457 1.379 . S
H2459 C2453 0.959 . S
H2460 C2453 0.961 . S
H2461 C2453 0.960 . S
H2462 C2454 0.930 . S
H2463 C2455 0.929 . S
H2464 C2472 0.929 . S
H2465 C2474 0.930 . S
H2466 C2476 0.930 . S
H2467 C2479 0.929 . S
H2468 C2482 0.930 . S
H2469 C2484 0.960 . S
H2470 C2484 0.960 . S
H2471 C2484 0.960 . S
C2472 H2464 0.929 . S
C2472 C2473 1.377 . S
C2472 C2474 1.384 . S
C2473 C2472 1.377 . S
C2473 C2479 1.390 . S
C2474 H2465 0.930 . S
C2474 C2472 1.384 . S
C2474 C2475 1.372 . S
C2475 C2474 1.372 . S
C2475 C2476 1.400 . S
C2475 C2480 1.490 . S
C2476 H2466 0.930 . S
C2476 C2475 1.400 . S
C2476 C2479 1.386 . S
H2477 C2493 0.930 . S
H2478 C2494 0.931 . S
C2479 H2467 0.929 . S
C2479 C2473 1.390 . S
C2479 C2476 1.386 . S
C2480 C2475 1.490 . S
C2480 C2482 1.395 . S
C2480 C2483 1.403 . S
H2481 C2487 0.930 . S
C2482 H2468 0.930 . S
C2482 C2480 1.395 . S
C2482 C2485 1.403 . S
C2483 C2480 1.403 . S
C2483 C2484 1.524 . S
C2483 C2487 1.400 . S
C2484 H2469 0.960 . S
C2484 H2470 0.960 . S
C2484 H2471 0.960 . S
C2484 C2483 1.524 . S
C2485 C2482 1.403 . S
C2485 C2486 1.392 . S
C2485 C2489 1.495 . S
C2486 C2485 1.392 . S
C2486 C2487 1.385 . S
C2486 C2488 1.478 . S
C2487 H2481 0.930 . S
C2487 C2483 1.400 . S
C2487 C2486 1.385 . S
C2488 C2486 1.478 . S
C2488 C2490 1.381 . S
C2488 C2494 1.383 . S
C2489 C2485 1.495 . S
C2489 H2495 0.959 . S
C2489 H2496 0.961 . S
C2489 H2497 0.960 . S
C2490 C2488 1.381 . S
C2490 C2491 1.394 . S
C2490 H2498 0.930 . S
C2491 C2490 1.394 . S
C2491 C2492 1.383 . S
C2491 H2499 0.929 . S
C2492 C2491 1.383 . S
C2492 C2493 1.377 . S
C2493 H2477 0.930 . S
C2493 C2492 1.377 . S
C2493 C2494 1.379 . S
C2494 H2478 0.931 . S
C2494 C2488 1.383 . S
C2494 C2493 1.379 . S
H2495 C2489 0.959 . S
H2496 C2489 0.961 . S
H2497 C2489 0.960 . S
H2498 C2490 0.930 . S
H2499 C2491 0.929 . S
H2500 C2508 0.929 . S
H2501 C2510 0.930 . S
H2502 C2512 0.930 . S
H2503 C2515 0.929 . S
H2504 C2518 0.930 . S
H2505 C2520 0.960 . S
H2506 C2520 0.960 . S
H2507 C2520 0.960 . S
C2508 H2500 0.929 . S
C2508 C2509 1.377 . S
C2508 C2510 1.384 . S
C2509 C2508 1.377 . S
C2509 C2515 1.390 . S
C2510 H2501 0.930 . S
C2510 C2508 1.384 . S
C2510 C2511 1.372 . S
C2511 C2510 1.372 . S
C2511 C2512 1.400 . S
C2511 C2516 1.490 . S
C2512 H2502 0.930 . S
C2512 C2511 1.400 . S
C2512 C2515 1.386 . S
H2513 C2529 0.930 . S
H2514 C2530 0.931 . S
C2515 H2503 0.929 . S
C2515 C2509 1.390 . S
C2515 C2512 1.386 . S
C2516 C2511 1.490 . S
C2516 C2518 1.395 . S
C2516 C2519 1.403 . S
H2517 C2523 0.930 . S
C2518 H2504 0.930 . S
C2518 C2516 1.395 . S
C2518 C2521 1.403 . S
C2519 C2516 1.403 . S
C2519 C2520 1.524 . S
C2519 C2523 1.400 . S
C2520 H2505 0.960 . S
C2520 H2506 0.960 . S
C2520 H2507 0.960 . S
C2520 C2519 1.524 . S
C2521 C2518 1.403 . S
C2521 C2522 1.392 . S
C2521 C2525 1.495 . S
C2522 C2521 1.392 . S
C2522 C2523 1.385 . S
C2522 C2524 1.478 . S
C2523 H2517 0.930 . S
C2523 C2519 1.400 . S
C2523 C2522 1.385 . S
C2524 C2522 1.478 . S
C2524 C2526 1.381 . S
C2524 C2530 1.383 . S
C2525 C2521 1.495 . S
C2525 H2531 0.959 . S
C2525 H2532 0.961 . S
C2525 H2533 0.960 . S
C2526 C2524 1.381 . S
C2526 C2527 1.394 . S
C2526 H2534 0.930 . S
C2527 C2526 1.394 . S
C2527 C2528 1.383 . S
C2527 H2535 0.929 . S
C2528 C2527 1.383 . S
C2528 C2529 1.377 . S
C2529 H2513 0.930 . S
C2529 C2528 1.377 . S
C2529 C2530 1.379 . S
C2530 H2514 0.931 . S
C2530 C2524 1.383 . S
C2530 C2529 1.379 . S
H2531 C2525 0.959 . S
H2532 C2525 0.961 . S
H2533 C2525 0.960 . S
H2534 C2526 0.930 . S
H2535 C2527 0.929 . S
H2536 C2544 0.929 . S
H2537 C2546 0.930 . S
H2538 C2548 0.930 . S
H2539 C2551 0.929 . S
H2540 C2554 0.930 . S
H2541 C2556 0.960 . S
H2542 C2556 0.960 . S
H2543 C2556 0.960 . S
C2544 H2536 0.929 . S
C2544 C2545 1.377 . S
C2544 C2546 1.384 . S
C2545 C2544 1.377 . S
C2545 C2551 1.390 . S
C2546 H2537 0.930 . S
C2546 C2544 1.384 . S
C2546 C2547 1.372 . S
C2547 C2546 1.372 . S
C2547 C2548 1.400 . S
C2547 C2552 1.490 . S
C2548 H2538 0.930 . S
C2548 C2547 1.400 . S
C2548 C2551 1.386 . S
H2549 C2565 0.930 . S
H2550 C2566 0.931 . S
C2551 H2539 0.929 . S
C2551 C2545 1.390 . S
C2551 C2548 1.386 . S
C2552 C2547 1.490 . S
C2552 C2554 1.395 . S
C2552 C2555 1.403 . S
H2553 C2559 0.930 . S
C2554 H2540 0.930 . S
C2554 C2552 1.395 . S
C2554 C2557 1.403 . S
C2555 C2552 1.403 . S
C2555 C2556 1.524 . S
C2555 C2559 1.400 . S
C2556 H2541 0.960 . S
C2556 H2542 0.960 . S
C2556 H2543 0.960 . S
C2556 C2555 1.524 . S
C2557 C2554 1.403 . S
C2557 C2558 1.392 . S
C2557 C2561 1.495 . S
C2558 C2557 1.392 . S
C2558 C2559 1.385 . S
C2558 C2560 1.478 . S
C2559 H2553 0.930 . S
C2559 C2555 1.400 . S
C2559 C2558 1.385 . S
C2560 C2558 1.478 . S
C2560 C2562 1.381 . S
C2560 C2566 1.383 . S
C2561 C2557 1.495 . S
C2561 H2567 0.959 . S
C2561 H2568 0.961 . S
C2561 H2569 0.960 . S
C2562 C2560 1.381 . S
C2562 C2563 1.394 . S
C2562 H2570 0.930 . S
C2563 C2562 1.394 . S
C2563 C2564 1.383 . S
C2563 H2571 0.929 . S
C2564 C2563 1.383 . S
C2564 C2565 1.377 . S
C2565 H2549 0.930 . S
C2565 C2564 1.377 . S
C2565 C2566 1.379 . S
C2566 H2550 0.931 . S
C2566 C2560 1.383 . S
C2566 C2565 1.379 . S
H2567 C2561 0.959 . S
H2568 C2561 0.961 . S
H2569 C2561 0.960 . S
H2570 C2562 0.930 . S
H2571 C2563 0.929 . S
H2572 C2580 0.929 . S
H2573 C2582 0.930 . S
H2574 C2584 0.930 . S
H2575 C2587 0.929 . S
H2576 C2590 0.930 . S
H2577 C2592 0.960 . S
H2578 C2592 0.960 . S
H2579 C2592 0.960 . S
C2580 H2572 0.929 . S
C2580 C2581 1.377 . S
C2580 C2582 1.384 . S
C2581 C2580 1.377 . S
C2581 C2587 1.390 . S
C2582 H2573 0.930 . S
C2582 C2580 1.384 . S
C2582 C2583 1.372 . S
C2583 C2582 1.372 . S
C2583 C2584 1.400 . S
C2583 C2588 1.490 . S
C2584 H2574 0.930 . S
C2584 C2583 1.400 . S
C2584 C2587 1.386 . S
H2585 C2601 0.930 . S
H2586 C2602 0.931 . S
C2587 H2575 0.929 . S
C2587 C2581 1.390 . S
C2587 C2584 1.386 . S
C2588 C2583 1.490 . S
C2588 C2590 1.395 . S
C2588 C2591 1.403 . S
H2589 C2595 0.930 . S
C2590 H2576 0.930 . S
C2590 C2588 1.395 . S
C2590 C2593 1.403 . S
C2591 C2588 1.403 . S
C2591 C2592 1.524 . S
C2591 C2595 1.400 . S
C2592 H2577 0.960 . S
C2592 H2578 0.960 . S
C2592 H2579 0.960 . S
C2592 C2591 1.524 . S
C2593 C2590 1.403 . S
C2593 C2594 1.392 . S
C2593 C2597 1.495 . S
C2594 C2593 1.392 . S
C2594 C2595 1.385 . S
C2594 C2596 1.478 . S
C2595 H2589 0.930 . S
C2595 C2591 1.400 . S
C2595 C2594 1.385 . S
C2596 C2594 1.478 . S
C2596 C2598 1.381 . S
C2596 C2602 1.383 . S
C2597 C2593 1.495 . S
C2597 H2603 0.959 . S
C2597 H2604 0.961 . S
C2597 H2605 0.960 . S
C2598 C2596 1.381 . S
C2598 C2599 1.394 . S
C2598 H2606 0.930 . S
C2599 C2598 1.394 . S
C2599 C2600 1.383 . S
C2599 H2607 0.929 . S
C2600 C2599 1.383 . S
C2600 C2601 1.377 . S
C2601 H2585 0.930 . S
C2601 C2600 1.377 . S
C2601 C2602 1.379 . S
C2602 H2586 0.931 . S
C2602 C2596 1.383 . S
C2602 C2601 1.379 . S
H2603 C2597 0.959 . S
H2604 C2597 0.961 . S
H2605 C2597 0.960 . S
H2606 C2598 0.930 . S
H2607 C2599 0.929 . S
H2608 C2616 0.929 . S
H2609 C2618 0.930 . S
H2610 C2620 0.930 . S
H2611 C2623 0.929 . S
H2612 C2626 0.930 . S
H2613 C2628 0.960 . S
H2614 C2628 0.960 . S
H2615 C2628 0.960 . S
C2616 H2608 0.929 . S
C2616 C2617 1.377 . S
C2616 C2618 1.384 . S
C2617 C2616 1.377 . S
C2617 C2623 1.390 . S
C2618 H2609 0.930 . S
C2618 C2616 1.384 . S
C2618 C2619 1.372 . S
C2619 C2618 1.372 . S
C2619 C2620 1.400 . S
C2619 C2624 1.490 . S
C2620 H2610 0.930 . S
C2620 C2619 1.400 . S
C2620 C2623 1.386 . S
H2621 C2637 0.930 . S
H2622 C2638 0.931 . S
C2623 H2611 0.929 . S
C2623 C2617 1.390 . S
C2623 C2620 1.386 . S
C2624 C2619 1.490 . S
C2624 C2626 1.395 . S
C2624 C2627 1.403 . S
H2625 C2631 0.930 . S
C2626 H2612 0.930 . S
C2626 C2624 1.395 . S
C2626 C2629 1.403 . S
C2627 C2624 1.403 . S
C2627 C2628 1.524 . S
C2627 C2631 1.400 . S
C2628 H2613 0.960 . S
C2628 H2614 0.960 . S
C2628 H2615 0.960 . S
C2628 C2627 1.524 . S
C2629 C2626 1.403 . S
C2629 C2630 1.392 . S
C2629 C2633 1.495 . S
C2630 C2629 1.392 . S
C2630 C2631 1.385 . S
C2630 C2632 1.478 . S
C2631 H2625 0.930 . S
C2631 C2627 1.400 . S
C2631 C2630 1.385 . S
C2632 C2630 1.478 . S
C2632 C2634 1.381 . S
C2632 C2638 1.383 . S
C2633 C2629 1.495 . S
C2633 H2639 0.959 . S
C2633 H2640 0.961 . S
C2633 H2641 0.960 . S
C2634 C2632 1.381 . S
C2634 C2635 1.394 . S
C2634 H2642 0.930 . S
C2635 C2634 1.394 . S
C2635 C2636 1.383 . S
C2635 H2643 0.929 . S
C2636 C2635 1.383 . S
C2636 C2637 1.377 . S
C2637 H2621 0.930 . S
C2637 C2636 1.377 . S
C2637 C2638 1.379 . S
C2638 H2622 0.931 . S
C2638 C2632 1.383 . S
C2638 C2637 1.379 . S
H2639 C2633 0.959 . S
H2640 C2633 0.961 . S
H2641 C2633 0.960 . S
H2642 C2634 0.930 . S
H2643 C2635 0.929 . S
H2644 C2652 0.929 . S
H2645 C2654 0.930 . S
H2646 C2656 0.930 . S
H2647 C2659 0.929 . S
H2648 C2662 0.930 . S
H2649 C2664 0.960 . S
H2650 C2664 0.960 . S
H2651 C2664 0.960 . S
C2652 H2644 0.929 . S
C2652 C2653 1.377 . S
C2652 C2654 1.384 . S
C2653 C2652 1.377 . S
C2653 C2659 1.390 . S
C2654 H2645 0.930 . S
C2654 C2652 1.384 . S
C2654 C2655 1.372 . S
C2655 C2654 1.372 . S
C2655 C2656 1.400 . S
C2655 C2660 1.490 . S
C2656 H2646 0.930 . S
C2656 C2655 1.400 . S
C2656 C2659 1.386 . S
H2657 C2673 0.930 . S
H2658 C2674 0.931 . S
C2659 H2647 0.929 . S
C2659 C2653 1.390 . S
C2659 C2656 1.386 . S
C2660 C2655 1.490 . S
C2660 C2662 1.395 . S
C2660 C2663 1.403 . S
H2661 C2667 0.930 . S
C2662 H2648 0.930 . S
C2662 C2660 1.395 . S
C2662 C2665 1.403 . S
C2663 C2660 1.403 . S
C2663 C2664 1.524 . S
C2663 C2667 1.400 . S
C2664 H2649 0.960 . S
C2664 H2650 0.960 . S
C2664 H2651 0.960 . S
C2664 C2663 1.524 . S
C2665 C2662 1.403 . S
C2665 C2666 1.392 . S
C2665 C2669 1.495 . S
C2666 C2665 1.392 . S
C2666 C2667 1.385 . S
C2666 C2668 1.478 . S
C2667 H2661 0.930 . S
C2667 C2663 1.400 . S
C2667 C2666 1.385 . S
C2668 C2666 1.478 . S
C2668 C2670 1.381 . S
C2668 C2674 1.383 . S
C2669 C2665 1.495 . S
C2669 H2675 0.959 . S
C2669 H2676 0.961 . S
C2669 H2677 0.960 . S
C2670 C2668 1.381 . S
C2670 C2671 1.394 . S
C2670 H2678 0.930 . S
C2671 C2670 1.394 . S
C2671 C2672 1.383 . S
C2671 H2679 0.929 . S
C2672 C2671 1.383 . S
C2672 C2673 1.377 . S
C2673 H2657 0.930 . S
C2673 C2672 1.377 . S
C2673 C2674 1.379 . S
C2674 H2658 0.931 . S
C2674 C2668 1.383 . S
C2674 C2673 1.379 . S
H2675 C2669 0.959 . S
H2676 C2669 0.961 . S
H2677 C2669 0.960 . S
H2678 C2670 0.930 . S
H2679 C2671 0.929 . S
H2680 C2688 0.929 . S
H2681 C2690 0.930 . S
H2682 C2692 0.930 . S
H2683 C2695 0.929 . S
H2684 C2698 0.930 . S
H2685 C2700 0.960 . S
H2686 C2700 0.960 . S
H2687 C2700 0.960 . S
C2688 H2680 0.929 . S
C2688 C2689 1.377 . S
C2688 C2690 1.384 . S
C2689 C2688 1.377 . S
C2689 C2695 1.390 . S
C2690 H2681 0.930 . S
C2690 C2688 1.384 . S
C2690 C2691 1.372 . S
C2691 C2690 1.372 . S
C2691 C2692 1.400 . S
C2691 C2696 1.490 . S
C2692 H2682 0.930 . S
C2692 C2691 1.400 . S
C2692 C2695 1.386 . S
H2693 C2709 0.930 . S
H2694 C2710 0.931 . S
C2695 H2683 0.929 . S
C2695 C2689 1.390 . S
C2695 C2692 1.386 . S
C2696 C2691 1.490 . S
C2696 C2698 1.395 . S
C2696 C2699 1.403 . S
H2697 C2703 0.930 . S
C2698 H2684 0.930 . S
C2698 C2696 1.395 . S
C2698 C2701 1.403 . S
C2699 C2696 1.403 . S
C2699 C2700 1.524 . S
C2699 C2703 1.400 . S
C2700 H2685 0.960 . S
C2700 H2686 0.960 . S
C2700 H2687 0.960 . S
C2700 C2699 1.524 . S
C2701 C2698 1.403 . S
C2701 C2702 1.392 . S
C2701 C2705 1.495 . S
C2702 C2701 1.392 . S
C2702 C2703 1.385 . S
C2702 C2704 1.478 . S
C2703 H2697 0.930 . S
C2703 C2699 1.400 . S
C2703 C2702 1.385 . S
C2704 C2702 1.478 . S
C2704 C2706 1.381 . S
C2704 C2710 1.383 . S
C2705 C2701 1.495 . S
C2705 H2711 0.959 . S
C2705 H2712 0.961 . S
C2705 H2713 0.960 . S
C2706 C2704 1.381 . S
C2706 C2707 1.394 . S
C2706 H2714 0.930 . S
C2707 C2706 1.394 . S
C2707 C2708 1.383 . S
C2707 H2715 0.929 . S
C2708 C2707 1.383 . S
C2708 C2709 1.377 . S
C2709 H2693 0.930 . S
C2709 C2708 1.377 . S
C2709 C2710 1.379 . S
C2710 H2694 0.931 . S
C2710 C2704 1.383 . S
C2710 C2709 1.379 . S
H2711 C2705 0.959 . S
H2712 C2705 0.961 . S
H2713 C2705 0.960 . S
H2714 C2706 0.930 . S
H2715 C2707 0.929 . S
H2716 C2724 0.929 . S
H2717 C2726 0.930 . S
H2718 C2728 0.930 . S
H2719 C2731 0.929 . S
H2720 C2734 0.930 . S
H2721 C2736 0.960 . S
H2722 C2736 0.960 . S
H2723 C2736 0.960 . S
C2724 H2716 0.929 . S
C2724 C2725 1.377 . S
C2724 C2726 1.384 . S
C2725 C2724 1.377 . S
C2725 C2731 1.390 . S
C2726 H2717 0.930 . S
C2726 C2724 1.384 . S
C2726 C2727 1.372 . S
C2727 C2726 1.372 . S
C2727 C2728 1.400 . S
C2727 C2732 1.490 . S
C2728 H2718 0.930 . S
C2728 C2727 1.400 . S
C2728 C2731 1.386 . S
H2729 C2745 0.930 . S
H2730 C2746 0.931 . S
C2731 H2719 0.929 . S
C2731 C2725 1.390 . S
C2731 C2728 1.386 . S
C2732 C2727 1.490 . S
C2732 C2734 1.395 . S
C2732 C2735 1.403 . S
H2733 C2739 0.930 . S
C2734 H2720 0.930 . S
C2734 C2732 1.395 . S
C2734 C2737 1.403 . S
C2735 C2732 1.403 . S
C2735 C2736 1.524 . S
C2735 C2739 1.400 . S
C2736 H2721 0.960 . S
C2736 H2722 0.960 . S
C2736 H2723 0.960 . S
C2736 C2735 1.524 . S
C2737 C2734 1.403 . S
C2737 C2738 1.392 . S
C2737 C2741 1.495 . S
C2738 C2737 1.392 . S
C2738 C2739 1.385 . S
C2738 C2740 1.478 . S
C2739 H2733 0.930 . S
C2739 C2735 1.400 . S
C2739 C2738 1.385 . S
C2740 C2738 1.478 . S
C2740 C2742 1.381 . S
C2740 C2746 1.383 . S
C2741 C2737 1.495 . S
C2741 H2747 0.959 . S
C2741 H2748 0.961 . S
C2741 H2749 0.960 . S
C2742 C2740 1.381 . S
C2742 C2743 1.394 . S
C2742 H2750 0.930 . S
C2743 C2742 1.394 . S
C2743 C2744 1.383 . S
C2743 H2751 0.929 . S
C2744 C2743 1.383 . S
C2744 C2745 1.377 . S
C2745 H2729 0.930 . S
C2745 C2744 1.377 . S
C2745 C2746 1.379 . S
C2746 H2730 0.931 . S
C2746 C2740 1.383 . S
C2746 C2745 1.379 . S
H2747 C2741 0.959 . S
H2748 C2741 0.961 . S
H2749 C2741 0.960 . S
H2750 C2742 0.930 . S
H2751 C2743 0.929 . S
C457 C386 1.546 . S
C476 C9 1.534 . S
C493 C23 1.544 . S
C512 C121 1.541 . S
C529 C358 1.541 . S
C548 C37 1.556 . S
C565 C51 1.544 . S
C584 C149 1.543 . S
C601 C65 1.544 . S
C620 C414 1.543 . S
C637 C79 1.540 . S
C656 C205 1.554 . S
C673 C93 1.542 . S
C692 C442 1.539 . S
C709 C107 1.540 . S
C728 C177 1.554 . S
C745 C274 1.541 . S
C764 C120 1.528 . S
C781 C8 1.543 . S
C800 C135 1.554 . S
C817 C246 1.545 . S
C836 C148 1.525 . S
C853 C163 1.540 . S
C872 C36 1.533 . S
C889 C302 1.546 . S
C908 C176 1.553 . S
C925 C92 1.542 . S
C944 C191 1.525 . S
C961 C204 1.544 . S
C980 C330 1.557 . S
C997 C64 1.545 . S
C1016 C219 1.525 . S
C1033 C233 1.546 . S
C1052 C162 1.534 . S
C1069 C247 1.541 . S
C1088 C345 1.546 . S
C1105 C134 1.541 . S
C1124 C261 1.548 . S
C1141 C373 1.545 . S
C1160 C275 1.544 . S
C1177 C190 1.543 . S
C1196 C289 1.551 . S
C1213 C429 1.546 . S
C1232 C303 1.536 . S
C1249 C218 1.547 . S
C1268 C317 1.527 . S
C1285 C331 1.545 . S
C1304 C401 1.538 . S
C1321 C50 1.547 . S
C1340 C344 1.544 . S
C1357 C359 1.545 . S
C1376 C232 1.528 . S
C1393 C372 1.539 . S
C1412 C22 1.541 . S
C1429 C387 1.546 . S
C1448 C260 1.552 . S
C1465 C400 1.544 . S
C1484 C78 1.525 . S
C1501 C415 1.546 . S
C1520 C316 1.534 . S
C1537 C428 1.545 . S
C1556 C106 1.556 . S
C1573 C443 1.540 . S
C1592 C288 1.533 . S
C1609 C342 1.481 . S
C1628 C7 1.486 . S
C1645 C21 1.477 . S
C1664 C133 1.489 . S
C1681 C370 1.481 . S
C1700 C35 1.487 . S
C1717 C49 1.481 . S
C1736 C161 1.484 . S
C1753 C398 1.475 . S
C1772 C63 1.484 . S
C1789 C77 1.478 . S
C1808 C189 1.460 . S
C1825 C426 1.479 . S
C1844 C91 1.463 . S
C1861 C105 1.481 . S
C1880 C217 1.480 . S
C1897 C118 1.477 . S
C1916 C231 1.491 . S
C1933 C146 1.481 . S
C1952 C259 1.490 . S
C1969 C174 1.479 . S
C1988 C287 1.493 . S
C2005 C202 1.476 . S
C2024 C315 1.488 . S
C2041 C245 1.479 . S
C2060 C357 1.493 . S
C2077 C385 1.481 . S
C2096 C273 1.476 . S
C2113 C413 1.479 . S
C2132 C301 1.463 . S
C2149 C329 1.473 . S
C2168 C441 1.470 . S
C2185 C6 1.406 . S
C2204 C76 1.402 1_545 S
C2221 C20 1.406 1_545 S
C2240 C90 1.406 . S
C2257 C34 1.406 . S
C2276 C104 1.405 1_565 S
C2293 C62 1.412 . S
C2312 C48 1.425 1_565 S
C2329 C119 1.411 . S
C2348 C188 1.421 1_565 S
C2365 C132 1.414 1_565 S
C2384 C203 1.418 . S
C2401 C147 1.412 . S
C2420 C216 1.426 1_545 S
C2437 C160 1.408 1_545 S
C2456 C175 1.409 . S
C2473 C230 1.414 . S
C2492 C300 1.401 . S
C2509 C314 1.407 . S
C2528 C244 1.416 . S
C2545 C258 1.406 . S
C2564 C328 1.398 . S
C2581 C272 1.414 . S
C2600 C286 1.405 . S
C2617 C412 1.414 . S
C2636 C343 1.422 . S
C2653 C356 1.412 . S
C2672 C427 1.406 . S
C2689 C440 1.406 . S
C2708 C371 1.389 . S
C2725 C384 1.412 . S
C2744 C399 1.403 . S
