# Generated by pormake.
# Topology dia, (4)-cn, num edge types: 1
# Building blocks:
#     Node 0, Type 0, BuildingBlock: NAHDIM_clean_sbu_0, # of connection points: 4
#     Node 1, Type 0, BuildingBlock: NAHDIM_clean_sbu_0, # of connection points: 4
#     Node 2, Type 0, BuildingBlock: NAHDIM_clean_sbu_0, # of connection points: 4
#     Node 3, Type 0, BuildingBlock: NAHDIM_clean_sbu_0, # of connection points: 4
#     Node 4, Type 0, BuildingBlock: NAHDIM_clean_sbu_0, # of connection points: 4
#     Node 5, Type 0, BuildingBlock: NAHDIM_clean_sbu_0, # of connection points: 4
#     Node 6, Type 0, BuildingBlock: NAHDIM_clean_sbu_0, # of connection points: 4
#     Node 7, Type 0, BuildingBlock: NAHDIM_clean_sbu_0, # of connection points: 4
#     Edge 8, Type (0, 0), BuildingBlock: MIFKUJ_clean_linker_0, # of connection points: 2
#     Edge 9, Type (0, 0), BuildingBlock: MIFKUJ_clean_linker_0, # of connection points: 2
#     Edge 10, Type (0, 0), BuildingBlock: MIFKUJ_clean_linker_0, # of connection points: 2
#     Edge 11, Type (0, 0), BuildingBlock: MIFKUJ_clean_linker_0, # of connection points: 2
#     Edge 12, Type (0, 0), BuildingBlock: MIFKUJ_clean_linker_0, # of connection points: 2
#     Edge 13, Type (0, 0), BuildingBlock: MIFKUJ_clean_linker_0, # of connection points: 2
#     Edge 14, Type (0, 0), BuildingBlock: MIFKUJ_clean_linker_0, # of connection points: 2
#     Edge 15, Type (0, 0), BuildingBlock: MIFKUJ_clean_linker_0, # of connection points: 2
#     Edge 16, Type (0, 0), BuildingBlock: MIFKUJ_clean_linker_0, # of connection points: 2
#     Edge 17, Type (0, 0), BuildingBlock: MIFKUJ_clean_linker_0, # of connection points: 2
#     Edge 18, Type (0, 0), BuildingBlock: MIFKUJ_clean_linker_0, # of connection points: 2
#     Edge 19, Type (0, 0), BuildingBlock: MIFKUJ_clean_linker_0, # of connection points: 2
#     Edge 20, Type (0, 0), BuildingBlock: MIFKUJ_clean_linker_0, # of connection points: 2
#     Edge 21, Type (0, 0), BuildingBlock: MIFKUJ_clean_linker_0, # of connection points: 2
#     Edge 22, Type (0, 0), BuildingBlock: MIFKUJ_clean_linker_0, # of connection points: 2
#     Edge 23, Type (0, 0), BuildingBlock: MIFKUJ_clean_linker_0, # of connection points: 2
# Relax obj value: 0.005
# Max RMSD: 0.035
# Mean RMSD: 0.035
data_MOF--net-dia--node1-NAHDIM_clean_sbu_0--edge1-MIFKUJ_clean_linker_0
_symmetry_space_group_name_H-M    P1
_symmetry_Int_Tables_number       1
_symmetry_cell_setting            triclinic
loop_
_symmetry_equiv_pos_as_xyz
'x, y, z'
_cell_length_a     48.63731
_cell_length_b     44.099443
_cell_length_c     44.107551
_cell_angle_alpha  88.825092
_cell_angle_beta   93.264008
_cell_angle_gamma 93.272323
loop_
_atom_site_label
_atom_site_type_symbol
_atom_site_fract_x
_atom_site_fract_y
_atom_site_fract_z
_atom_type_partial_charge
C0 C 0.07801 0.15767 0.66441 0.0
O1 O 0.06728 0.13086 0.65625 0.0
O2 O 0.14454 0.11013 0.66299 0.0
Zn3 Zn 0.12379 0.13749 0.63332 0.0
O4 O 0.09728 0.11347 0.60482 0.0
C5 C 0.17521 0.15368 0.60545 0.0
O6 O 0.18288 0.12867 0.61938 0.0
O7 O 0.1023 0.16575 0.65711 0.0
C8 C 0.10524 0.09727 0.58384 0.0
O9 O 0.13178 0.0955 0.58058 0.0
C10 C 0.1426 0.08125 0.66282 0.0
O11 O 0.12546 0.06732 0.64292 0.0
O12 O 0.15092 0.16209 0.60829 0.0
C13 C 0.92038 0.3541 0.83542 0.0
O14 O 0.93162 0.37996 0.84566 0.0
O15 O 0.84885 0.34705 0.8923 0.0
Zn16 Zn 0.87316 0.37329 0.86562 0.0
O17 O 0.89857 0.40206 0.89078 0.0
C18 C 0.82603 0.38707 0.82637 0.0
O19 O 0.81865 0.35858 0.83251 0.0
O20 O 0.89552 0.34656 0.84102 0.0
C21 C 0.89573 0.40763 0.91856 0.0
O22 O 0.87515 0.3942 0.93259 0.0
C23 C 0.85849 0.32909 0.9126 0.0
O24 O 0.88534 0.32736 0.91659 0.0
O25 O 0.84893 0.39826 0.83765 0.0
C26 C 0.58277 0.16683 0.14989 0.0
O27 O 0.57248 0.15973 0.12261 0.0
O28 O 0.65151 0.1051 0.15605 0.0
Zn29 Zn 0.62713 0.13265 0.13103 0.0
O30 O 0.59979 0.10744 0.10475 0.0
C31 C 0.67577 0.16677 0.11277 0.0
O32 O 0.68545 0.15725 0.13949 0.0
O33 O 0.60642 0.15803 0.15863 0.0
C34 C 0.60687 0.09432 0.08127 0.0
O35 O 0.63278 0.09689 0.07418 0.0
C36 C 0.64266 0.07984 0.16719 0.0
O37 O 0.61647 0.07119 0.1626 0.0
O38 O 0.65087 0.15959 0.10429 0.0
C39 C 0.92269 0.8524 0.33056 0.0
O40 O 0.9338 0.87907 0.33867 0.0
O41 O 0.85636 0.84332 0.39463 0.0
Zn42 Zn 0.87907 0.87026 0.36694 0.0
O43 O 0.90694 0.89607 0.39217 0.0
C44 C 0.82988 0.88686 0.33277 0.0
O45 O 0.82177 0.85884 0.33996 0.0
O46 O 0.8991 0.84386 0.33967 0.0
C47 C 0.90223 0.92257 0.40064 0.0
O48 O 0.87831 0.93376 0.39294 0.0
C49 C 0.84062 0.85455 0.41298 0.0
O50 O 0.83954 0.8842 0.41406 0.0
O51 O 0.854 0.89687 0.34153 0.0
C52 C 0.07826 0.65157 0.16253 0.0
O53 O 0.06768 0.6247 0.15434 0.0
O54 O 0.14791 0.60679 0.1611 0.0
Zn55 Zn 0.12524 0.6325 0.13195 0.0
O56 O 0.09966 0.60504 0.10581 0.0
C57 C 0.15933 0.65114 0.08129 0.0
O58 O 0.151 0.62459 0.07009 0.0
O59 O 0.10265 0.6597 0.15563 0.0
C60 C 0.08743 0.61412 0.08134 0.0
O61 O 0.09187 0.64236 0.07199 0.0
C62 C 0.16505 0.5894 0.15089 0.0
O63 O 0.16749 0.5884 0.12144 0.0
O64 O 0.15085 0.65888 0.10661 0.0
C65 C 0.4232 0.33162 0.34926 0.0
O66 O 0.4345 0.34198 0.37505 0.0
O67 O 0.35287 0.33997 0.39396 0.0
Zn68 Zn 0.37756 0.36518 0.3669 0.0
O69 O 0.40455 0.39168 0.39232 0.0
C70 C 0.33283 0.40301 0.34911 0.0
O71 O 0.32619 0.39706 0.37715 0.0
O72 O 0.3987 0.33822 0.34118 0.0
C73 C 0.39774 0.40595 0.41522 0.0
O74 O 0.372 0.4036 0.42294 0.0
C75 C 0.3619 0.31996 0.4125 0.0
O76 O 0.38833 0.31503 0.41401 0.0
O77 O 0.35413 0.39174 0.33949 0.0
C78 C 0.42198 0.84054 0.8471 0.0
O79 O 0.43295 0.84967 0.87349 0.0
O80 O 0.3538 0.84252 0.89316 0.0
Zn81 Zn 0.37563 0.87147 0.8666 0.0
O82 O 0.40194 0.89846 0.89264 0.0
C83 C 0.33587 0.91705 0.85223 0.0
O84 O 0.3408 0.92398 0.88093 0.0
O85 O 0.39749 0.84721 0.83914 0.0
C86 C 0.4089 0.92586 0.88581 0.0
O87 O 0.39848 0.93815 0.86065 0.0
C88 C 0.34673 0.85011 0.91912 0.0
O89 O 0.35449 0.87724 0.92926 0.0
O90 O 0.34863 0.89583 0.84117 0.0
C91 C 0.57695 0.66628 0.65104 0.0
O92 O 0.56551 0.65711 0.62487 0.0
O93 O 0.64794 0.6085 0.65451 0.0
Zn94 Zn 0.62296 0.63586 0.63002 0.0
O95 O 0.59605 0.61051 0.60307 0.0
C96 C 0.66714 0.65595 0.59227 0.0
O97 O 0.67374 0.62763 0.59631 0.0
O98 O 0.60167 0.65992 0.6583 0.0
C99 C 0.60314 0.5896 0.58622 0.0
O100 O 0.62932 0.58391 0.58571 0.0
C101 C 0.63927 0.58247 0.66399 0.0
O102 O 0.61331 0.57349 0.65823 0.0
O103 O 0.64606 0.66485 0.60456 0.0
H104 H 0.30716 0.3281 0.41834 0.0
H105 H 0.2758 0.30002 0.45155 0.0
H106 H 0.34191 0.24501 0.48502 0.0
H107 H 0.37345 0.27289 0.45171 0.0
H108 H 0.29394 0.21096 0.47134 0.0
H109 H 0.32193 0.30059 0.52784 0.0
H110 H 0.32933 0.35571 0.53571 0.0
H111 H 0.24263 0.36682 0.51886 0.0
H112 H 0.23476 0.31178 0.51046 0.0
H113 H 0.22935 0.14398 0.59788 0.0
H114 H 0.26097 0.17253 0.5654 0.0
H115 H 0.19641 0.23157 0.5364 0.0
H116 H 0.16475 0.20347 0.56937 0.0
H117 H 0.24368 0.26372 0.54766 0.0
H118 H 0.21523 0.17491 0.49074 0.0
H119 H 0.20721 0.12002 0.48181 0.0
H120 H 0.29374 0.10754 0.49809 0.0
H121 H 0.30224 0.16232 0.50753 0.0
C122 C 0.31506 0.31001 0.43274 0.0
C123 C 0.34284 0.30277 0.43243 0.0
C124 C 0.29712 0.29408 0.4518 0.0
C125 C 0.3066 0.27064 0.47096 0.0
C126 C 0.3342 0.26307 0.47043 0.0
C127 C 0.35221 0.27908 0.45145 0.0
C128 C 0.28765 0.25393 0.49144 0.0
C129 C 0.28323 0.2224 0.48833 0.0
C130 C 0.27314 0.26903 0.51302 0.0
C131 C 0.2778 0.3021 0.51823 0.0
C132 C 0.30447 0.31482 0.52558 0.0
C133 C 0.30874 0.34604 0.53017 0.0
C134 C 0.28647 0.36477 0.52771 0.0
C135 C 0.25986 0.35229 0.52072 0.0
C136 C 0.25548 0.32108 0.51607 0.0
C137 C 0.22185 0.16305 0.58463 0.0
C138 C 0.19448 0.17136 0.58612 0.0
C139 C 0.23994 0.17928 0.56595 0.0
C140 C 0.23096 0.20392 0.54811 0.0
C141 C 0.20377 0.21259 0.54992 0.0
C142 C 0.18569 0.19646 0.56872 0.0
C143 C 0.24995 0.22068 0.52762 0.0
C144 C 0.25437 0.25223 0.53069 0.0
C145 C 0.26435 0.20562 0.50588 0.0
C146 C 0.25933 0.17268 0.50013 0.0
C147 C 0.23252 0.16043 0.49265 0.0
C148 C 0.22789 0.12934 0.48745 0.0
C149 C 0.24994 0.11029 0.48946 0.0
C150 C 0.27668 0.12231 0.49658 0.0
C151 C 0.28142 0.15338 0.50183 0.0
H152 H 0.24632 0.08623 0.48543 0.0
H153 H 0.28982 0.38894 0.53128 0.0
H154 H 0.62915 0.52316 0.68121 0.0
H155 H 0.66101 0.48949 0.70778 0.0
H156 H 0.7243 0.5622 0.71133 0.0
H157 H 0.69276 0.59582 0.68407 0.0
H158 H 0.74524 0.51124 0.69574 0.0
H159 H 0.68811 0.5401 0.77429 0.0
H160 H 0.64439 0.54696 0.79835 0.0
H161 H 0.62434 0.45098 0.79439 0.0
H162 H 0.66779 0.44359 0.76993 0.0
H163 H 0.83527 0.44654 0.80899 0.0
H164 H 0.8036 0.47878 0.78012 0.0
H165 H 0.74295 0.40364 0.77278 0.0
H166 H 0.7744 0.37125 0.8019 0.0
H167 H 0.72059 0.45511 0.78989 0.0
H168 H 0.77883 0.42662 0.71214 0.0
H169 H 0.82303 0.42042 0.68886 0.0
H170 H 0.84157 0.51669 0.69234 0.0
H171 H 0.79763 0.52344 0.71604 0.0
C172 C 0.64982 0.53204 0.68772 0.0
C173 C 0.65838 0.56222 0.68063 0.0
C174 C 0.66799 0.51277 0.70301 0.0
C175 C 0.69495 0.52342 0.71192 0.0
C176 C 0.70359 0.55349 0.70471 0.0
C177 C 0.6855 0.57271 0.68922 0.0
C178 C 0.71426 0.50312 0.72844 0.0
C179 C 0.73998 0.49928 0.71655 0.0
C180 C 0.70718 0.48697 0.75523 0.0
C181 C 0.68107 0.49134 0.77 0.0
C182 C 0.67428 0.52049 0.77833 0.0
C183 C 0.64956 0.52447 0.79208 0.0
C184 C 0.63157 0.49943 0.79782 0.0
C185 C 0.63828 0.47035 0.78989 0.0
C186 C 0.66296 0.46625 0.77611 0.0
C187 C 0.81526 0.43679 0.80111 0.0
C188 C 0.80737 0.4063 0.80775 0.0
C189 C 0.79722 0.45524 0.78451 0.0
C190 C 0.771 0.44354 0.7741 0.0
C191 C 0.7631 0.4131 0.78059 0.0
C192 C 0.78115 0.39461 0.79715 0.0
C193 C 0.75153 0.4633 0.7572 0.0
C194 C 0.72579 0.46704 0.76904 0.0
C195 C 0.75866 0.47948 0.73047 0.0
C196 C 0.78505 0.47549 0.71613 0.0
C197 C 0.79243 0.44644 0.70816 0.0
C198 C 0.81742 0.44284 0.69485 0.0
C199 C 0.83513 0.46813 0.6892 0.0
C200 C 0.82785 0.49711 0.69677 0.0
C201 C 0.80289 0.50084 0.71011 0.0
H202 H 0.85446 0.46529 0.67889 0.0
H203 H 0.61245 0.50256 0.80846 0.0
H204 H 0.61466 0.06468 0.02879 0.0
H205 H 0.57987 0.037 0.99623 0.0
H206 H 0.51705 0.05741 0.05675 0.0
H207 H 0.55174 0.08479 0.08965 0.0
H208 H 0.51062 -5e-05 0.04002 0.0
H209 H 0.52255 0.09609 0.99028 0.0
H210 H 0.54794 0.13996 0.96736 0.0
H211 H 0.57738 0.08209 0.90061 0.0
H212 H 0.55247 0.03776 0.92342 0.0
H213 H 0.41512 0.98752 0.89018 0.0
H214 H 0.44711 0.01689 0.92459 0.0
H215 H 0.48026 0.93377 0.96014 0.0
H216 H 0.44734 0.90436 0.92694 0.0
H217 H 0.49906 0.02534 0.9301 0.0
H218 H 0.50453 0.94024 0.0321 0.0
H219 H 0.47483 0.90061 0.05626 0.0
H220 H 0.40265 0.94412 0.02112 0.0
H221 H 0.43191 0.98422 0.99707 0.0
C222 C 0.59346 0.06324 0.03523 0.0
C223 C 0.58597 0.07703 0.06178 0.0
C224 C 0.57357 0.04751 0.01651 0.0
C225 C 0.54581 0.04541 0.02389 0.0
C226 C 0.53835 0.05875 0.05061 0.0
C227 C 0.55821 0.07448 0.06934 0.0
C228 C 0.52455 0.0293 0.00372 0.0
C229 C 0.50806 0.00548 0.01598 0.0
C230 C 0.52077 0.03699 0.97251 0.0
C231 C 0.53587 0.06355 0.95876 0.0
C232 C 0.53463 0.09267 0.97088 0.0
C233 C 0.5489 0.11762 0.95788 0.0
C234 C 0.56433 0.1138 0.9326 0.0
C235 C 0.56546 0.085 0.92023 0.0
C236 C 0.55126 0.05996 0.93317 0.0
C237 C 0.42917 0.97555 0.90545 0.0
C238 C 0.4286 0.94367 0.90608 0.0
C239 C 0.44749 0.99235 0.92507 0.0
C240 C 0.46587 0.9776 0.94538 0.0
C241 C 0.4658 0.94572 0.94537 0.0
C242 C 0.44707 0.92891 0.92625 0.0
C243 C 0.4853 0.99557 0.96625 0.0
C244 C 0.50152 0.01975 0.95413 0.0
C245 C 0.48823 0.9888 0.99779 0.0
C246 C 0.47043 0.96507 0.01257 0.0
C247 C 0.48232 0.94143 0.02965 0.0
C248 C 0.46557 0.91887 0.0433 0.0
C249 C 0.43688 0.9198 0.04015 0.0
C250 C 0.42488 0.94337 0.02345 0.0
C251 C 0.44154 0.96601 0.00978 0.0
H252 H 0.42394 0.90229 0.0507 0.0
H253 H 0.57534 0.13315 0.92255 0.0
H254 H 0.90431 0.79779 0.30627 0.0
H255 H 0.92995 0.76393 0.27663 0.0
H256 H 0.00115 0.82691 0.28359 0.0
H257 H 0.97546 0.86121 0.31264 0.0
H258 H 0.99387 0.80583 0.22763 0.0
H259 H 0.99647 0.76175 0.32834 0.0
H260 H 0.97669 0.74096 0.37518 0.0
H261 H 0.93125 0.67099 0.324 0.0
H262 H 0.9505 0.69162 0.27678 0.0
H263 H 0.09486 0.70713 0.18579 0.0
H264 H 0.06762 0.74117 0.21333 0.0
H265 H 0.99725 0.67722 0.20435 0.0
H266 H 0.0245 0.64277 0.17728 0.0
H267 H 0.00332 0.69851 0.26061 0.0
H268 H 0.00164 0.74211 0.15994 0.0
H269 H 0.02179 0.76284 0.11328 0.0
H270 H 0.06584 0.83371 0.16451 0.0
H271 H 0.04624 0.81315 0.21156 0.0
C272 C 0.9254 0.80448 0.30144 0.0
C273 C 0.93788 0.83215 0.31195 0.0
C274 C 0.94008 0.78503 0.2846 0.0
C275 C 0.96762 0.79266 0.27826 0.0
C276 C 0.97995 0.82051 0.28825 0.0
C277 C 0.96524 0.84007 0.30492 0.0
C278 C 0.98367 0.77161 0.26133 0.0
C279 C 0.99622 0.78247 0.23505 0.0
C280 C 0.98621 0.74092 0.2706 0.0
C281 C 0.97471 0.72841 0.29899 0.0
C282 C 0.9821 0.74207 0.32705 0.0
C283 C 0.97101 0.73029 0.35367 0.0
C284 C 0.95267 0.70472 0.35255 0.0
C285 C 0.94543 0.69082 0.32482 0.0
C286 C 0.95644 0.70253 0.29813 0.0
C287 C 0.07358 0.70029 0.18964 0.0
C288 C 0.06184 0.67225 0.17927 0.0
C289 C 0.05799 0.71985 0.20528 0.0
C290 C 0.03028 0.71193 0.21056 0.0
C291 C 0.01858 0.68383 0.20049 0.0
C292 C 0.03419 0.66419 0.18496 0.0
C293 C 0.01359 0.73275 0.22695 0.0
C294 C 0.00092 0.72185 0.25314 0.0
C295 C 0.01097 0.76341 0.21761 0.0
C296 C 0.02266 0.77592 0.18931 0.0
C297 C 0.01578 0.76198 0.16129 0.0
C298 C 0.02708 0.77373 0.13477 0.0
C299 C 0.04514 0.79954 0.13594 0.0
C300 C 0.05187 0.8137 0.16364 0.0
C301 C 0.04065 0.80203 0.19024 0.0
H302 H 0.05386 0.80859 0.11539 0.0
H303 H 0.9441 0.69564 0.37319 0.0
H304 H 0.31051 0.89973 0.79801 0.0
H305 H 0.27668 0.92698 0.76666 0.0
H306 H 0.28251 0.99979 0.83106 0.0
H307 H 0.31547 0.97195 0.86316 0.0
H308 H 0.23156 0.98952 0.81396 0.0
H309 H 0.31432 0.00448 0.76064 0.0
H310 H 0.35547 0.98958 0.73567 0.0
H311 H 0.30396 0.938 0.6708 0.0
H312 H 0.2625 0.95227 0.69563 0.0
H313 H 0.17352 0.10135 0.71292 0.0
H314 H 0.20508 0.07245 0.74595 0.0
H315 H 0.18487 0.99264 0.69251 0.0
H316 H 0.15302 0.02123 0.65956 0.0
H317 H 0.24253 0.00667 0.70368 0.0
H318 H 0.15945 0.99436 0.7583 0.0
H319 H 0.11949 0.01234 0.78333 0.0
H320 H 0.17391 0.0633 0.84599 0.0
H321 H 0.21421 0.04596 0.82104 0.0
C322 C 0.30462 0.92158 0.80545 0.0
C323 C 0.31574 0.93377 0.83298 0.0
C324 C 0.28536 0.93723 0.78743 0.0
C325 C 0.27735 0.96575 0.79617 0.0
C326 C 0.28835 0.97786 0.82378 0.0
C327 C 0.30725 0.96196 0.84208 0.0
C328 C 0.25731 0.98281 0.77672 0.0
C329 C 0.23422 0.9936 0.78994 0.0
C330 C 0.26043 0.98779 0.74522 0.0
C331 C 0.28532 0.97921 0.73018 0.0
C332 C 0.31178 0.98978 0.74118 0.0
C333 C 0.33516 0.98147 0.72703 0.0
C334 C 0.33234 0.96279 0.70171 0.0
C335 C 0.30612 0.95244 0.69044 0.0
C336 C 0.28267 0.96065 0.70452 0.0
C337 C 0.17565 0.0776 0.7083 0.0
C338 C 0.16076 0.06356 0.68364 0.0
C339 C 0.19363 0.06113 0.72723 0.0
C340 C 0.1972 0.03043 0.72167 0.0
C341 C 0.18235 0.01632 0.69713 0.0
C342 C 0.16409 0.03266 0.67843 0.0
C343 C 0.217 0.01324 0.741 0.0
C344 C 0.24 0.0025 0.72772 0.0
C345 C 0.21404 0.00876 0.7725 0.0
C346 C 0.18984 0.0191 0.7876 0.0
C347 C 0.16289 0.00961 0.77725 0.0
C348 C 0.14018 0.01964 0.79145 0.0
C349 C 0.14416 0.03902 0.81618 0.0
C350 C 0.17086 0.04833 0.82681 0.0
C351 C 0.19364 0.03838 0.81266 0.0
H352 H 0.12655 0.04676 0.82716 0.0
H353 H 0.35046 0.95639 0.69079 0.0
H354 H 0.9315 0.45015 0.8942 0.0
H355 H 0.96396 0.48575 0.92127 0.0
H356 H 0.93799 0.44829 0.0069 0.0
H357 H 0.90458 0.41357 0.97989 0.0
H358 H 0.94334 0.50607 0.01124 0.0
H359 H 0.0008 0.43168 0.97542 0.0
H360 H 0.01993 0.39924 0.93787 0.0
H361 H 0.04965 0.47845 0.88885 0.0
H362 H 0.03036 0.51139 0.9259 0.0
H363 H 0.06162 0.56167 0.1016 0.0
H364 H 0.02892 0.52734 0.07294 0.0
H365 H 0.03725 0.58427 0.99299 0.0
H366 H 0.06961 0.61915 0.02167 0.0
H367 H 0.04149 0.51755 0.98569 0.0
H368 H 0.98323 0.59118 0.02484 0.0
H369 H 0.9656 0.62113 0.06539 0.0
H370 H 0.93931 0.53898 0.11193 0.0
H371 H 0.95719 0.50852 0.07186 0.0
C372 C 0.93273 0.44949 0.91881 0.0
C373 C 0.91556 0.429 0.93493 0.0
C374 C 0.95142 0.46975 0.93428 0.0
C375 C 0.95384 0.46939 0.96618 0.0
C376 C 0.93656 0.44903 0.9823 0.0
C377 C 0.9175 0.42914 0.96684 0.0
C378 C 0.9741 0.49048 0.98276 0.0
C379 C 0.96486 0.50821 0.00584 0.0
C380 C 0.00217 0.49373 0.97554 0.0
C381 C 0.01389 0.474 0.95327 0.0
C382 C 0.01124 0.44218 0.95651 0.0
C383 C 0.02213 0.4237 0.93533 0.0
C384 C 0.03593 0.43677 0.91094 0.0
C385 C 0.03892 0.46836 0.90773 0.0
C386 C 0.02803 0.48695 0.92882 0.0
C387 C 0.05655 0.56686 0.0779 0.0
C388 C 0.06812 0.59312 0.06386 0.0
C389 C 0.03784 0.54728 0.06162 0.0
C390 C 0.03071 0.55339 0.03095 0.0
C391 C 0.04257 0.57925 0.01667 0.0
C392 C 0.06092 0.59917 0.0331 0.0
C393 C 0.0106 0.53283 0.01392 0.0
C394 C 0.01992 0.51527 0.99088 0.0
C395 C 0.98276 0.52929 0.02154 0.0
C396 C 0.97181 0.54757 0.04552 0.0
C397 C 0.97392 0.5795 0.04386 0.0
C398 C 0.96383 0.59657 0.06673 0.0
C399 C 0.95141 0.58197 0.09126 0.0
C400 C 0.94897 0.55026 0.09293 0.0
C401 C 0.95906 0.53308 0.07014 0.0
H402 H 0.94361 0.59523 0.10894 0.0
H403 H 0.04435 0.42243 0.89457 0.0
H404 H 0.40657 0.3073 0.29411 0.0
H405 H 0.43375 0.27869 0.26086 0.0
H406 H 0.50315 0.28607 0.3262 0.0
H407 H 0.47625 0.315 0.35942 0.0
H408 H 0.51886 0.29894 0.26981 0.0
H409 H 0.4648 0.2196 0.31799 0.0
H410 H 0.42218 0.19286 0.33455 0.0
H411 H 0.39182 0.18397 0.24164 0.0
H412 H 0.43412 0.21105 0.22454 0.0
H413 H 0.59896 0.18844 0.2063 0.0
H414 H 0.57178 0.21624 0.24029 0.0
H415 H 0.50298 0.21204 0.17406 0.0
H416 H 0.52992 0.18414 0.13999 0.0
H417 H 0.48714 0.19725 0.23118 0.0
H418 H 0.54128 0.27698 0.1832 0.0
H419 H 0.58406 0.30353 0.16685 0.0
H420 H 0.61448 0.31139 0.25983 0.0
H421 H 0.57202 0.28448 0.27673 0.0
C422 C 0.42757 0.30274 0.30148 0.0
C423 C 0.43922 0.31341 0.32945 0.0
C424 C 0.44306 0.28629 0.28248 0.0
C425 C 0.47042 0.28003 0.29116 0.0
C426 C 0.48208 0.29065 0.31906 0.0
C427 C 0.46663 0.30709 0.33806 0.0
C428 C 0.48707 0.26292 0.2709 0.0
C429 C 0.51212 0.27652 0.26171 0.0
C430 C 0.47796 0.23396 0.2598 0.0
C431 C 0.45251 0.21763 0.27 0.0
C432 C 0.44894 0.21217 0.3011 0.0
C433 C 0.42485 0.19691 0.31059 0.0
C434 C 0.40427 0.1868 0.28917 0.0
C435 C 0.40776 0.19186 0.25821 0.0
C436 C 0.4318 0.20714 0.24861 0.0
C437 C 0.57807 0.19349 0.19892 0.0
C438 C 0.56663 0.18413 0.17039 0.0
C439 C 0.56259 0.20945 0.21835 0.0
C440 C 0.53542 0.21638 0.2096 0.0
C441 C 0.52391 0.20692 0.18124 0.0
C442 C 0.53939 0.19108 0.16176 0.0
C443 C 0.5189 0.23329 0.23012 0.0
C444 C 0.49388 0.21966 0.23933 0.0
C445 C 0.52805 0.26219 0.2413 0.0
C446 C 0.55359 0.27843 0.23121 0.0
C447 C 0.55719 0.28413 0.20015 0.0
C448 C 0.58136 0.2993 0.19079 0.0
C449 C 0.60201 0.30907 0.21228 0.0
C450 C 0.59849 0.30376 0.2432 0.0
C451 C 0.57436 0.28858 0.25269 0.0
H452 H 0.62071 0.32081 0.20499 0.0
H453 H 0.38564 0.17498 0.29656 0.0
H454 H 0.80588 0.87124 0.45552 0.0
H455 H 0.7762 0.83809 0.48636 0.0
H456 H 0.80595 0.75944 0.44485 0.0
H457 H 0.8355 0.79243 0.41369 0.0
H458 H 0.75061 0.75508 0.44718 0.0
H459 H 0.82805 0.77845 0.51628 0.0
H460 H 0.86262 0.81145 0.54476 0.0
H461 H 0.79816 0.8527 0.58899 0.0
H462 H 0.76315 0.82022 0.56043 0.0
H463 H 0.70589 0.64181 0.55333 0.0
H464 H 0.73433 0.67677 0.52287 0.0
H465 H 0.69586 0.7529 0.55904 0.0
H466 H 0.66702 0.71802 0.58941 0.0
H467 H 0.75457 0.7594 0.5597 0.0
H468 H 0.67722 0.73453 0.49072 0.0
H469 H 0.64334 0.70043 0.4626 0.0
H470 H 0.70873 0.66079 0.41848 0.0
H471 H 0.74307 0.69437 0.44671 0.0
C472 C 0.80618 0.84689 0.45299 0.0
C473 C 0.82311 0.83448 0.43217 0.0
C474 C 0.78927 0.82797 0.47072 0.0
C475 C 0.78904 0.79628 0.46808 0.0
C476 C 0.80582 0.78383 0.44725 0.0
C477 C 0.82278 0.80273 0.42954 0.0
C478 C 0.77096 0.77612 0.4867 0.0
C479 C 0.75173 0.75577 0.4718 0.0
C480 C 0.77198 0.77751 0.51879 0.0
C481 C 0.79297 0.79713 0.53596 0.0
C482 C 0.82123 0.79475 0.53187 0.0
C483 C 0.84091 0.81332 0.54807 0.0
C484 C 0.83259 0.83422 0.56861 0.0
C485 C 0.80457 0.83654 0.57303 0.0
C486 C 0.7848 0.81804 0.55686 0.0
C487 C 0.70344 0.66598 0.55481 0.0
C488 C 0.68418 0.67717 0.57374 0.0
C489 C 0.71965 0.6859 0.53732 0.0
C490 C 0.71707 0.71736 0.53864 0.0
C491 C 0.6981 0.72866 0.55773 0.0
C492 C 0.68159 0.70872 0.57495 0.0
C493 C 0.7344 0.73837 0.52015 0.0
C494 C 0.75345 0.75884 0.53508 0.0
C495 C 0.73333 0.73698 0.4881 0.0
C496 C 0.71274 0.71675 0.47108 0.0
C497 C 0.68441 0.71835 0.47525 0.0
C498 C 0.66511 0.69915 0.45924 0.0
C499 C 0.67388 0.6784 0.43883 0.0
C500 C 0.70197 0.67685 0.43434 0.0
C501 C 0.72136 0.69597 0.45032 0.0
H502 H 0.6589 0.66357 0.42645 0.0
H503 H 0.84786 0.84857 0.58114 0.0
H504 H 0.1613 0.58063 0.21223 0.0
H505 H 0.18967 0.54918 0.24629 0.0
H506 H 0.2363 0.52487 0.17095 0.0
H507 H 0.20763 0.55558 0.13668 0.0
H508 H 0.2246 0.47644 0.20426 0.0
H509 H 0.26209 0.57747 0.22444 0.0
H510 H 0.26084 0.63131 0.23803 0.0
H511 H 0.22994 0.60497 0.32454 0.0
H512 H 0.23066 0.55094 0.31129 0.0
H513 H 0.33849 0.41663 0.28886 0.0
H514 H 0.3097 0.44852 0.25575 0.0
H515 H 0.25955 0.46532 0.33054 0.0
H516 H 0.2883 0.43361 0.36388 0.0
H517 H 0.27279 0.51735 0.29815 0.0
H518 H 0.23615 0.41584 0.27731 0.0
H519 H 0.2385 0.36226 0.26325 0.0
H520 H 0.26929 0.39019 0.17712 0.0
H521 H 0.26748 0.44397 0.19084 0.0
C522 C 0.17763 0.56862 0.20293 0.0
C523 C 0.18224 0.57065 0.17175 0.0
C524 C 0.19391 0.55075 0.22245 0.0
C525 C 0.21536 0.53495 0.21125 0.0
C526 C 0.21988 0.53684 0.18011 0.0
C527 C 0.20349 0.55448 0.16056 0.0
C528 C 0.23289 0.51606 0.23183 0.0
C529 C 0.23542 0.48553 0.22457 0.0
C530 C 0.24656 0.5277 0.2587 0.0
C531 C 0.24616 0.56017 0.26674 0.0
C532 C 0.25482 0.58316 0.24626 0.0
C533 C 0.25425 0.61371 0.25392 0.0
C534 C 0.24524 0.62156 0.2821 0.0
C535 C 0.23687 0.59886 0.3027 0.0
C536 C 0.23738 0.56827 0.29514 0.0
C537 C 0.32135 0.4271 0.29829 0.0
C538 C 0.31563 0.42248 0.32899 0.0
C539 C 0.30486 0.44524 0.2793 0.0
C540 C 0.28234 0.45904 0.29064 0.0
C541 C 0.27682 0.45483 0.32135 0.0
C542 C 0.29322 0.43662 0.34033 0.0
C543 C 0.26453 0.47788 0.27045 0.0
C544 C 0.26194 0.50834 0.27782 0.0
C545 C 0.25094 0.46626 0.24358 0.0
C546 C 0.25193 0.43393 0.23523 0.0
C547 C 0.24363 0.41056 0.25547 0.0
C548 C 0.24482 0.38015 0.24755 0.0
C549 C 0.2541 0.37282 0.21934 0.0
C550 C 0.26214 0.39589 0.19897 0.0
C551 C 0.26101 0.42634 0.2068 0.0
H552 H 0.25501 0.34926 0.21325 0.0
H553 H 0.24482 0.64523 0.28799 0.0
H554 H 0.87178 0.29822 0.96531 0.0
H555 H 0.84036 0.27067 0.99882 0.0
H556 H 0.77125 0.29202 0.93793 0.0
H557 H 0.80248 0.32044 0.90484 0.0
H558 H 0.75872 0.30029 0.99354 0.0
H559 H 0.79787 0.21974 0.94243 0.0
H560 H 0.83507 0.19036 0.92411 0.0
H561 H 0.86523 0.1739 0.01602 0.0
H562 H 0.82842 0.20353 0.03489 0.0
H563 H 0.66202 0.19236 0.05722 0.0
H564 H 0.69278 0.22012 0.02299 0.0
H565 H 0.76151 0.20873 0.08763 0.0
H566 H 0.73099 0.1809 0.12194 0.0
H567 H 0.77354 0.19488 0.0296 0.0
H568 H 0.73337 0.27617 0.07993 0.0
H569 H 0.69514 0.30471 0.09709 0.0
H570 H 0.66551 0.31845 0.00454 0.0
H571 H 0.70337 0.28961 0.98684 0.0
C572 C 0.84991 0.29692 0.95898 0.0
C573 C 0.83963 0.31145 0.93239 0.0
C574 C 0.83196 0.28105 0.9781 0.0
C575 C 0.80343 0.27888 0.97072 0.0
C576 C 0.79315 0.29335 0.94413 0.0
C577 C 0.81105 0.30953 0.92519 0.0
C578 C 0.78422 0.26211 0.99102 0.0
C579 C 0.76176 0.27708 0.00104 0.0
C580 C 0.78841 0.232 0.00132 0.0
C581 C 0.81054 0.2141 0.99005 0.0
C582 C 0.81256 0.21004 0.95873 0.0
C583 C 0.83356 0.19331 0.94825 0.0
C584 C 0.85254 0.18034 0.96889 0.0
C585 C 0.85053 0.184 6e-05 0.0
C586 C 0.82959 0.20073 0.01066 0.0
C587 C 0.68366 0.19587 0.06422 0.0
C588 C 0.69404 0.18446 0.09234 0.0
C589 C 0.70119 0.2118 0.04466 0.0
C590 C 0.72939 0.21662 0.05287 0.0
C591 C 0.73981 0.20524 0.08088 0.0
C592 C 0.72229 0.18944 0.1005 0.0
C593 C 0.74819 0.23311 0.03206 0.0
C594 C 0.77054 0.21807 0.02199 0.0
C595 C 0.74375 0.26303 0.02148 0.0
C596 C 0.72105 0.28047 0.03209 0.0
C597 C 0.71857 0.28506 0.06325 0.0
C598 C 0.697 0.30133 0.07307 0.0
C599 C 0.67786 0.31331 0.05192 0.0
C600 C 0.68032 0.30912 0.0209 0.0
C601 C 0.70185 0.29284 0.01096 0.0
H602 H 0.66117 0.3259 0.05957 0.0
H603 H 0.86878 0.16739 0.96073 0.0
H604 H 0.84139 0.94393 0.30952 0.0
H605 H 0.80971 0.97673 0.28133 0.0
H606 H 0.74367 0.9079 0.28917 0.0
H607 H 0.77537 0.87469 0.31667 0.0
H608 H 0.74245 0.93125 0.23367 0.0
H609 H 0.74943 0.97181 0.33422 0.0
H610 H 0.77358 0.99252 0.38061 0.0
H611 H 0.80819 0.06733 0.32878 0.0
H612 H 0.78453 0.04684 0.28198 0.0
H613 H 0.631 0.02395 0.19304 0.0
H614 H 0.66295 0.99145 0.22125 0.0
H615 H 0.72956 0.05863 0.20896 0.0
H616 H 0.69773 0.09143 0.18103 0.0
H617 H 0.7305 0.03637 0.26661 0.0
H618 H 0.72316 0.99553 0.16609 0.0
H619 H 0.69868 0.9747 0.11994 0.0
H620 H 0.6642 0.90023 0.17232 0.0
H621 H 0.68819 0.92085 0.21888 0.0
C622 C 0.82013 0.93576 0.30522 0.0
C623 C 0.81089 0.90672 0.31541 0.0
C624 C 0.802 0.9546 0.28923 0.0
C625 C 0.77419 0.94496 0.2835 0.0
C626 C 0.76502 0.91584 0.29334 0.0
C627 C 0.78317 0.8969 0.30912 0.0
C628 C 0.75465 0.9651 0.26709 0.0
C629 C 0.73957 0.95409 0.24114 0.0
C630 C 0.75131 0.99516 0.27641 0.0
C631 C 0.76542 0.00762 0.30455 0.0
C632 C 0.76235 0.99256 0.33268 0.0
C633 C 0.77592 0.00428 0.35905 0.0
C634 C 0.79246 0.03118 0.35763 0.0
C635 C 0.7954 0.04647 0.32984 0.0
C636 C 0.78189 0.03483 0.30339 0.0
C637 C 0.65243 0.03185 0.19635 0.0
C638 C 0.66182 0.06025 0.18468 0.0
C639 C 0.67069 0.01319 0.21239 0.0
C640 C 0.6987 0.02248 0.21691 0.0
C641 C 0.70804 0.051 0.2057 0.0
C642 C 0.68982 0.06968 0.18966 0.0
C643 C 0.7183 0.00246 0.23329 0.0
C644 C 0.73339 0.01351 0.25921 0.0
C645 C 0.72159 0.97242 0.22401 0.0
C646 C 0.70726 0.9599 0.19601 0.0
C647 C 0.71019 0.97484 0.16781 0.0
C648 C 0.69643 0.96305 0.14157 0.0
C649 C 0.67983 0.9362 0.14321 0.0
C650 C 0.67703 0.92104 0.17109 0.0
C651 C 0.69072 0.93276 0.1974 0.0
H652 H 0.6692 0.92711 0.12287 0.0
H653 H 0.80296 0.04022 0.37807 0.0
H654 H 0.89688 0.9768 0.42804 0.0
H655 H 0.932 0.00646 0.45828 0.0
H656 H 0.99098 0.93934 0.44426 0.0
H657 H 0.95575 0.90915 0.41462 0.0
H658 H 0.99495 0.95579 0.50115 0.0
H659 H 0.99255 0.00844 0.40548 0.0
H660 H 0.97148 0.03437 0.36065 0.0
H661 H 0.94302 0.10234 0.4178 0.0
H662 H 0.9636 0.07657 0.46305 0.0
H663 H 0.11418 0.04971 0.54756 0.0
H664 H 0.07995 0.02004 0.51585 0.0
H665 H 0.01607 0.07577 0.54339 0.0
H666 H 0.05006 0.10528 0.57551 0.0
H667 H 0.01577 0.06522 0.47903 0.0
H668 H 0.01874 0.01052 0.57489 0.0
H669 H 0.0417 0.98441 0.61846 0.0
H670 H 0.07158 0.91984 0.55848 0.0
H671 H 0.04913 0.94588 0.51446 0.0
C672 C 0.91733 0.96835 0.43135 0.0
C673 C 0.92353 0.94065 0.41885 0.0
C674 C 0.93744 0.98542 0.44853 0.0
C675 C 0.96427 0.97536 0.4532 0.0
C676 C 0.97045 0.94758 0.44094 0.0
C677 C 0.95029 0.93038 0.42394 0.0
C678 C 0.98577 0.9936 0.47123 0.0
C679 C 0.99975 0.9796 0.49599 0.0
C680 C 0.9918 0.02481 0.46485 0.0
C681 C 0.97939 0.0404 0.43769 0.0
C682 C 0.98161 0.02878 0.40852 0.0
C683 C 0.96978 0.04347 0.38302 0.0
C684 C 0.95585 0.06994 0.38638 0.0
C685 C 0.95378 0.08181 0.41524 0.0
C686 C 0.96554 0.06719 0.44082 0.0
C687 C 0.09287 0.0557 0.54681 0.0
C688 C 0.08479 0.07978 0.56408 0.0
C689 C 0.07335 0.03869 0.52876 0.0
C690 C 0.04552 0.0457 0.52742 0.0
C691 C 0.03748 0.07006 0.54416 0.0
C692 C 0.05689 0.08679 0.56256 0.0
C693 C 0.02471 0.02738 0.50882 0.0
C694 C 0.01092 0.04138 0.48401 0.0
C695 C 0.01909 0.99611 0.51491 0.0
C696 C 0.03251 0.98036 0.54136 0.0
C697 C 0.03043 0.99093 0.57096 0.0
C698 C 0.0433 0.97611 0.59574 0.0
C699 C 0.05816 0.95053 0.59123 0.0
C700 C 0.06011 0.93968 0.56193 0.0
C701 C 0.04729 0.95445 0.53706 0.0
H702 H 0.06811 0.93908 0.61045 0.0
H703 H 0.94672 0.08129 0.36661 0.0
H704 H 0.97466 0.36198 0.82252 0.0
H705 H 0.00139 0.32869 0.79354 0.0
H706 H 0.92957 0.26761 0.77895 0.0
H707 H 0.90277 0.30053 0.80842 0.0
H708 H 0.97426 0.23685 0.79434 0.0
H709 H 0.95183 0.31634 0.72248 0.0
H710 H 0.9494 0.36935 0.70404 0.0
H711 H 0.03768 0.38151 0.71334 0.0
H712 H 0.04062 0.32868 0.73222 0.0
H713 H 0.024 0.14976 0.67824 0.0
H714 H 0.99753 0.18331 0.70719 0.0
H715 H 0.06919 0.24501 0.71972 0.0
H716 H 0.09567 0.21188 0.69011 0.0
H717 H 0.02481 0.27558 0.70561 0.0
H718 H 0.04749 0.19634 0.77732 0.0
H719 H 0.05021 0.14347 0.79605 0.0
H720 H 0.96193 0.13094 0.78753 0.0
H721 H 0.9587 0.18364 0.76836 0.0
C722 C 0.9645 0.3415 0.81312 0.0
C723 C 0.93653 0.33398 0.81769 0.0
C724 C 0.97981 0.32254 0.79644 0.0
C725 C 0.9674 0.29585 0.78373 0.0
C726 C 0.93956 0.28813 0.7885 0.0
C727 C 0.92425 0.30701 0.80529 0.0
C728 C 0.98353 0.27582 0.76571 0.0
C729 C 0.98501 0.24521 0.77468 0.0
C730 C 0.99814 0.28692 0.74054 0.0
C731 C 0.99642 0.31864 0.72903 0.0
C732 C 0.97071 0.33039 0.7208 0.0
C733 C 0.96924 0.36039 0.71023 0.0
C734 C 0.99336 0.37881 0.70759 0.0
C735 C 0.01901 0.36723 0.71543 0.0
C736 C 0.02059 0.33725 0.72603 0.0
C737 C 0.03417 0.17045 0.68717 0.0
C738 C 0.062 0.17808 0.68197 0.0
C739 C 0.01902 0.18955 0.70385 0.0
C740 C 0.03147 0.21647 0.71604 0.0
C741 C 0.05916 0.22432 0.7106 0.0
C742 C 0.07429 0.20532 0.69372 0.0
C743 C 0.01552 0.23657 0.7342 0.0
C744 C 0.01408 0.2672 0.72527 0.0
C745 C 0.001 0.22551 0.75946 0.0
C746 C 0.00288 0.19386 0.77114 0.0
C747 C 0.02867 0.18225 0.77924 0.0
C748 C 0.0303 0.15232 0.78997 0.0
C749 C 0.00626 0.13383 0.79291 0.0
C750 C 0.98053 0.14527 0.78521 0.0
C751 C 0.97879 0.17518 0.77444 0.0
H752 H 0.00757 0.11067 0.80122 0.0
H753 H 0.99218 0.40203 0.69941 0.0
H754 H 0.52258 0.67886 0.64457 0.0
H755 H 0.4966 0.7082 0.67823 0.0
H756 H 0.56955 0.72342 0.73747 0.0
H757 H 0.59561 0.69345 0.7042 0.0
H758 H 0.52566 0.70934 0.76961 0.0
H759 H 0.54647 0.77926 0.688 0.0
H760 H 0.54794 0.79643 0.63453 0.0
H761 H 0.45956 0.78687 0.62436 0.0
H762 H 0.45758 0.76925 0.67769 0.0
H763 H 0.47621 0.82747 0.85472 0.0
H764 H 0.50257 0.79785 0.82163 0.0
H765 H 0.43031 0.78289 0.76127 0.0
H766 H 0.40394 0.81312 0.79392 0.0
H767 H 0.47417 0.79698 0.72982 0.0
H768 H 0.45322 0.72691 0.8112 0.0
H769 H 0.45158 0.7095 0.86459 0.0
H770 H 0.53994 0.7191 0.87514 0.0
H771 H 0.54209 0.73695 0.8219 0.0
C772 C 0.53315 0.68845 0.66474 0.0
C773 C 0.56122 0.68394 0.67162 0.0
C774 C 0.51827 0.70534 0.68391 0.0
C775 C 0.53122 0.71841 0.71014 0.0
C776 C 0.55915 0.7136 0.7173 0.0
C777 C 0.57403 0.69654 0.69823 0.0
C778 C 0.51559 0.73698 0.73015 0.0
C779 C 0.51472 0.72877 0.761 0.0
C780 C 0.50076 0.76189 0.71878 0.0
C781 C 0.5019 0.77268 0.68676 0.0
C782 C 0.52736 0.78062 0.6743 0.0
C783 C 0.52828 0.79046 0.64403 0.0
C784 C 0.50387 0.79267 0.62604 0.0
C785 C 0.47846 0.78512 0.63831 0.0
C786 C 0.47742 0.77524 0.66857 0.0
C787 C 0.46589 0.81786 0.83443 0.0
C788 C 0.43794 0.82257 0.82702 0.0
C789 C 0.48097 0.8008 0.8156 0.0
C790 C 0.46832 0.78776 0.78918 0.0
C791 C 0.44049 0.79268 0.78157 0.0
C792 C 0.42543 0.80992 0.80029 0.0
C793 C 0.48419 0.76932 0.76929 0.0
C794 C 0.48511 0.77756 0.73844 0.0
C795 C 0.49904 0.74442 0.78067 0.0
C796 C 0.4978 0.73354 0.81265 0.0
C797 C 0.47229 0.72552 0.82497 0.0
C798 C 0.47127 0.71553 0.8552 0.0
C799 C 0.49563 0.71327 0.87327 0.0
C800 C 0.52108 0.7209 0.86112 0.0
C801 C 0.52222 0.73092 0.83092 0.0
H802 H 0.4948 0.70554 0.89666 0.0
H803 H 0.50463 0.80029 0.6026 0.0
H804 H 0.18044 0.70758 0.09796 0.0
H805 H 0.21287 0.74115 0.071 0.0
H806 H 0.21454 0.67502 0.0005 0.0
H807 H 0.18233 0.64111 0.02749 0.0
H808 H 0.26587 0.69765 0.01727 0.0
H809 H 0.17821 0.73786 0.98899 0.0
H810 H 0.13316 0.75797 0.99798 0.0
H811 H 0.17367 0.8322 0.0475 0.0
H812 H 0.21898 0.81229 0.03917 0.0
H813 H 0.32701 0.79257 0.90466 0.0
H814 H 0.29617 0.75877 0.93342 0.0
H815 H 0.29531 0.82606 0.00293 0.0
H816 H 0.32594 0.86021 0.97413 0.0
H817 H 0.24398 0.80304 0.98743 0.0
H818 H 0.33174 0.76326 0.01499 0.0
H819 H 0.37676 0.74315 0.00588 0.0
H820 H 0.33611 0.66817 0.95763 0.0
H821 H 0.29082 0.68806 0.96608 0.0
C822 C 0.18765 0.70016 0.07669 0.0
C823 C 0.17873 0.67168 0.06483 0.0
C824 C 0.20612 0.71944 0.06126 0.0
C825 C 0.21591 0.7107 0.03359 0.0
C826 C 0.20722 0.6822 0.02181 0.0
C827 C 0.18874 0.6629 0.03722 0.0
C828 C 0.23536 0.73121 0.01704 0.0
C829 C 0.26095 0.72057 0.01038 0.0
C830 C 0.22919 0.76134 0.00874 0.0
C831 C 0.20197 0.77341 0.01371 0.0
C832 C 0.1775 0.75834 0.00201 0.0
C833 C 0.15192 0.76972 0.00695 0.0
C834 C 0.15055 0.7963 0.02337 0.0
C835 C 0.17476 0.81159 0.03482 0.0
C836 C 0.2004 0.80028 0.02998 0.0
C837 C 0.32039 0.80016 0.92614 0.0
C838 C 0.32896 0.8291 0.93711 0.0
C839 C 0.30284 0.78074 0.94261 0.0
C840 C 0.29363 0.7898 0.97045 0.0
C841 C 0.30219 0.81863 0.9815 0.0
C842 C 0.31977 0.83806 0.96505 0.0
C843 C 0.27448 0.76949 0.98761 0.0
C844 C 0.24893 0.78015 0.99437 0.0
C845 C 0.28069 0.73938 0.99599 0.0
C846 C 0.30789 0.72732 0.99092 0.0
C847 C 0.3324 0.74261 0.00222 0.0
C848 C 0.35797 0.73123 0.99722 0.0
C849 C 0.3593 0.70444 0.98112 0.0
C850 C 0.33505 0.68894 0.97006 0.0
C851 C 0.30942 0.70024 0.97498 0.0
H852 H 0.37912 0.69567 0.97727 0.0
H853 H 0.13072 0.80508 0.02717 0.0
H854 H 0.4535 0.41009 0.40963 0.0
H855 H 0.48804 0.44152 0.43891 0.0
H856 H 0.42409 0.47631 0.49004 0.0
H857 H 0.3893 0.44493 0.46082 0.0
H858 H 0.46154 0.52147 0.47023 0.0
H859 H 0.4633 0.42461 0.52215 0.0
H860 H 0.46687 0.3691 0.52602 0.0
H861 H 0.54813 0.37816 0.49243 0.0
H862 H 0.54489 0.43372 0.48795 0.0
H863 H 0.54708 0.59047 0.58774 0.0
H864 H 0.51223 0.55951 0.5585 0.0
H865 H 0.57629 0.51678 0.51406 0.0
H866 H 0.61134 0.54714 0.54382 0.0
H867 H 0.53843 0.47557 0.53031 0.0
H868 H 0.53738 0.57161 0.47774 0.0
H869 H 0.53433 0.62711 0.47244 0.0
H870 H 0.45273 0.61989 0.50524 0.0
H871 H 0.45543 0.56436 0.51113 0.0
C872 C 0.44674 0.42442 0.42709 0.0
C873 C 0.41865 0.42497 0.43295 0.0
C874 C 0.46653 0.44228 0.44387 0.0
C875 C 0.45861 0.46104 0.46677 0.0
C876 C 0.43059 0.46194 0.47246 0.0
C877 C 0.41077 0.44392 0.45582 0.0
C878 C 0.47963 0.47979 0.48472 0.0
C879 C 0.47816 0.51147 0.48373 0.0
C880 C 0.50168 0.46669 0.50161 0.0
C881 C 0.50374 0.4333 0.50444 0.0
C882 C 0.48184 0.41474 0.51536 0.0
C883 C 0.48382 0.38327 0.5177 0.0
C884 C 0.50768 0.3701 0.5094 0.0
C885 C 0.52965 0.38839 0.49882 0.0
C886 C 0.52776 0.41988 0.4964 0.0
C887 C 0.55378 0.57456 0.57167 0.0
C888 C 0.582 0.57132 0.56804 0.0
C889 C 0.53381 0.55696 0.55487 0.0
C890 C 0.54162 0.5361 0.53377 0.0
C891 C 0.56978 0.53275 0.53018 0.0
C892 C 0.58978 0.55018 0.54716 0.0
C893 C 0.52044 0.51738 0.51585 0.0
C894 C 0.52186 0.48566 0.51684 0.0
C895 C 0.49845 0.53048 0.49876 0.0
C896 C 0.49672 0.56386 0.49515 0.0
C897 C 0.51887 0.58188 0.48405 0.0
C898 C 0.51719 0.61334 0.4809 0.0
C899 C 0.49338 0.62703 0.48858 0.0
C900 C 0.47117 0.60926 0.49934 0.0
C901 C 0.47275 0.57779 0.50256 0.0
H902 H 0.49212 0.65139 0.48612 0.0
H903 H 0.50918 0.34573 0.51124 0.0
loop_
_geom_bond_atom_site_label_1
_geom_bond_atom_site_label_2
_geom_bond_distance
_geom_bond_site_symmetry_2
_ccdc_geom_bond_type
C0 O1 1.160 . S
C0 O7 1.185 . S
O1 C0 1.160 . S
O2 Zn3 1.899 . S
O2 C10 1.284 . S
Zn3 O2 1.899 . S
Zn3 O4 2.032 . S
Zn3 O7 2.086 . S
Zn3 O12 1.977 . S
O4 Zn3 2.032 . S
O4 C8 1.278 . S
C5 O6 1.203 . S
C5 O12 1.267 . S
O6 C5 1.203 . S
O7 C0 1.185 . S
O7 Zn3 2.086 . S
C8 O4 1.278 . S
C8 O9 1.211 . S
O9 C8 1.211 . S
C10 O2 1.284 . S
C10 O11 1.273 . S
O11 C10 1.273 . S
O12 Zn3 1.977 . S
O12 C5 1.267 . S
C13 O14 1.160 . S
C13 O20 1.185 . S
O14 C13 1.160 . S
O15 Zn16 1.899 . S
O15 C23 1.284 . S
Zn16 O15 1.899 . S
Zn16 O17 2.032 . S
Zn16 O20 2.086 . S
Zn16 O25 1.977 . S
O17 Zn16 2.032 . S
O17 C21 1.278 . S
C18 O19 1.203 . S
C18 O25 1.267 . S
O19 C18 1.203 . S
O20 C13 1.185 . S
O20 Zn16 2.086 . S
C21 O17 1.278 . S
C21 O22 1.211 . S
O22 C21 1.211 . S
C23 O15 1.284 . S
C23 O24 1.273 . S
O24 C23 1.273 . S
O25 Zn16 1.977 . S
O25 C18 1.267 . S
C26 O27 1.160 . S
C26 O33 1.185 . S
O27 C26 1.160 . S
O28 Zn29 1.899 . S
O28 C36 1.284 . S
Zn29 O28 1.899 . S
Zn29 O30 2.032 . S
Zn29 O33 2.086 . S
Zn29 O38 1.977 . S
O30 Zn29 2.032 . S
O30 C34 1.278 . S
C31 O32 1.203 . S
C31 O38 1.267 . S
O32 C31 1.203 . S
O33 C26 1.185 . S
O33 Zn29 2.086 . S
C34 O30 1.278 . S
C34 O35 1.211 . S
O35 C34 1.211 . S
C36 O28 1.284 . S
C36 O37 1.273 . S
O37 C36 1.273 . S
O38 Zn29 1.977 . S
O38 C31 1.267 . S
C39 O40 1.160 . S
C39 O46 1.185 . S
O40 C39 1.160 . S
O41 Zn42 1.899 . S
O41 C49 1.284 . S
Zn42 O41 1.899 . S
Zn42 O43 2.032 . S
Zn42 O46 2.086 . S
Zn42 O51 1.977 . S
O43 Zn42 2.032 . S
O43 C47 1.278 . S
C44 O45 1.203 . S
C44 O51 1.267 . S
O45 C44 1.203 . S
O46 C39 1.185 . S
O46 Zn42 2.086 . S
C47 O43 1.278 . S
C47 O48 1.211 . S
O48 C47 1.211 . S
C49 O41 1.284 . S
C49 O50 1.273 . S
O50 C49 1.273 . S
O51 Zn42 1.977 . S
O51 C44 1.267 . S
C52 O53 1.160 . S
C52 O59 1.185 . S
O53 C52 1.160 . S
O54 Zn55 1.899 . S
O54 C62 1.284 . S
Zn55 O54 1.899 . S
Zn55 O56 2.032 . S
Zn55 O59 2.086 . S
Zn55 O64 1.977 . S
O56 Zn55 2.032 . S
O56 C60 1.278 . S
C57 O58 1.203 . S
C57 O64 1.267 . S
O58 C57 1.203 . S
O59 C52 1.185 . S
O59 Zn55 2.086 . S
C60 O56 1.278 . S
C60 O61 1.211 . S
O61 C60 1.211 . S
C62 O54 1.284 . S
C62 O63 1.273 . S
O63 C62 1.273 . S
O64 Zn55 1.977 . S
O64 C57 1.267 . S
C65 O66 1.160 . S
C65 O72 1.185 . S
O66 C65 1.160 . S
O67 Zn68 1.899 . S
O67 C75 1.284 . S
Zn68 O67 1.899 . S
Zn68 O69 2.032 . S
Zn68 O72 2.086 . S
Zn68 O77 1.977 . S
O69 Zn68 2.032 . S
O69 C73 1.278 . S
C70 O71 1.203 . S
C70 O77 1.267 . S
O71 C70 1.203 . S
O72 C65 1.185 . S
O72 Zn68 2.086 . S
C73 O69 1.278 . S
C73 O74 1.211 . S
O74 C73 1.211 . S
C75 O67 1.284 . S
C75 O76 1.273 . S
O76 C75 1.273 . S
O77 Zn68 1.977 . S
O77 C70 1.267 . S
C78 O79 1.160 . S
C78 O85 1.185 . S
O79 C78 1.160 . S
O80 Zn81 1.899 . S
O80 C88 1.284 . S
Zn81 O80 1.899 . S
Zn81 O82 2.032 . S
Zn81 O85 2.086 . S
Zn81 O90 1.977 . S
O82 Zn81 2.032 . S
O82 C86 1.278 . S
C83 O84 1.203 . S
C83 O90 1.267 . S
O84 C83 1.203 . S
O85 C78 1.185 . S
O85 Zn81 2.086 . S
C86 O82 1.278 . S
C86 O87 1.211 . S
O87 C86 1.211 . S
C88 O80 1.284 . S
C88 O89 1.273 . S
O89 C88 1.273 . S
O90 Zn81 1.977 . S
O90 C83 1.267 . S
C91 O92 1.160 . S
C91 O98 1.185 . S
O92 C91 1.160 . S
O93 Zn94 1.899 . S
O93 C101 1.284 . S
Zn94 O93 1.899 . S
Zn94 O95 2.032 . S
Zn94 O98 2.086 . S
Zn94 O103 1.977 . S
O95 Zn94 2.032 . S
O95 C99 1.278 . S
C96 O97 1.203 . S
C96 O103 1.267 . S
O97 C96 1.203 . S
O98 C91 1.185 . S
O98 Zn94 2.086 . S
C99 O95 1.278 . S
C99 O100 1.211 . S
O100 C99 1.211 . S
C101 O93 1.284 . S
C101 O102 1.273 . S
O102 C101 1.273 . S
O103 Zn94 1.977 . S
O103 C96 1.267 . S
H104 C122 0.951 . S
H105 C124 0.951 . S
H106 C126 0.950 . S
H107 C127 0.950 . S
H108 C129 0.950 . S
H109 C132 0.950 . S
H110 C133 0.950 . S
H111 C135 0.950 . S
H112 C136 0.950 . S
H113 C137 0.951 . S
H114 C139 0.951 . S
H115 C141 0.950 . S
H116 C142 0.950 . S
H117 C144 0.950 . S
H118 C147 0.950 . S
H119 C148 0.950 . S
H120 C150 0.950 . S
H121 C151 0.950 . S
C122 H104 0.951 . S
C122 C123 1.366 . S
C122 C124 1.388 . S
C123 C122 1.366 . S
C123 C127 1.385 . S
C124 H105 0.951 . S
C124 C122 1.388 . S
C124 C125 1.366 . S
C125 C124 1.366 . S
C125 C126 1.414 . S
C125 C128 1.499 . S
C126 H106 0.950 . S
C126 C125 1.414 . S
C126 C127 1.374 . S
C127 H107 0.950 . S
C127 C123 1.385 . S
C127 C126 1.374 . S
C128 C125 1.499 . S
C128 C129 1.373 . S
C128 C130 1.389 . S
C129 H108 0.950 . S
C129 C128 1.373 . S
C129 C145 1.377 . S
C130 C128 1.389 . S
C130 C131 1.524 . S
C130 C144 1.377 . S
C131 C130 1.524 . S
C131 C132 1.397 . S
C131 C136 1.363 . S
C132 H109 0.950 . S
C132 C131 1.397 . S
C132 C133 1.334 . S
C133 H110 0.950 . S
C133 C132 1.334 . S
C133 C134 1.287 . S
C134 C133 1.287 . S
C134 C135 1.524 . S
C134 H153 0.913 . S
C135 H111 0.950 . S
C135 C134 1.524 . S
C135 C136 1.415 . S
C136 H112 0.950 . S
C136 C131 1.363 . S
C136 C135 1.415 . S
C137 H113 0.951 . S
C137 C138 1.366 . S
C137 C139 1.388 . S
C138 C137 1.366 . S
C138 C142 1.385 . S
C139 H114 0.951 . S
C139 C137 1.388 . S
C139 C140 1.366 . S
C140 C139 1.366 . S
C140 C141 1.414 . S
C140 C143 1.499 . S
C141 H115 0.950 . S
C141 C140 1.414 . S
C141 C142 1.374 . S
C142 H116 0.950 . S
C142 C138 1.385 . S
C142 C141 1.374 . S
C143 C140 1.499 . S
C143 C144 1.373 . S
C143 C145 1.389 . S
C144 H117 0.950 . S
C144 C130 1.377 . S
C144 C143 1.373 . S
C145 C129 1.377 . S
C145 C143 1.389 . S
C145 C146 1.524 . S
C146 C145 1.524 . S
C146 C147 1.397 . S
C146 C151 1.363 . S
C147 H118 0.950 . S
C147 C146 1.397 . S
C147 C148 1.334 . S
C148 H119 0.950 . S
C148 C147 1.334 . S
C148 C149 1.287 . S
C149 C148 1.287 . S
C149 C150 1.524 . S
C149 H152 0.999 . S
C150 H120 0.950 . S
C150 C149 1.524 . S
C150 C151 1.415 . S
C151 H121 0.950 . S
C151 C146 1.363 . S
C151 C150 1.415 . S
H152 C149 0.999 . S
H153 C134 0.913 . S
H154 C172 0.951 . S
H155 C174 0.951 . S
H156 C176 0.950 . S
H157 C177 0.950 . S
H158 C179 0.950 . S
H159 C182 0.950 . S
H160 C183 0.950 . S
H161 C185 0.950 . S
H162 C186 0.950 . S
H163 C187 0.951 . S
H164 C189 0.951 . S
H165 C191 0.950 . S
H166 C192 0.950 . S
H167 C194 0.950 . S
H168 C197 0.950 . S
H169 C198 0.950 . S
H170 C200 0.950 . S
H171 C201 0.950 . S
C172 H154 0.951 . S
C172 C173 1.366 . S
C172 C174 1.388 . S
C173 C172 1.366 . S
C173 C177 1.385 . S
C174 H155 0.951 . S
C174 C172 1.388 . S
C174 C175 1.366 . S
C175 C174 1.366 . S
C175 C176 1.414 . S
C175 C178 1.499 . S
C176 H156 0.950 . S
C176 C175 1.414 . S
C176 C177 1.374 . S
C177 H157 0.950 . S
C177 C173 1.385 . S
C177 C176 1.374 . S
C178 C175 1.499 . S
C178 C179 1.373 . S
C178 C180 1.389 . S
C179 H158 0.950 . S
C179 C178 1.373 . S
C179 C195 1.377 . S
C180 C178 1.389 . S
C180 C181 1.524 . S
C180 C194 1.377 . S
C181 C180 1.524 . S
C181 C182 1.397 . S
C181 C186 1.363 . S
C182 H159 0.950 . S
C182 C181 1.397 . S
C182 C183 1.334 . S
C183 H160 0.950 . S
C183 C182 1.334 . S
C183 C184 1.287 . S
C184 C183 1.287 . S
C184 C185 1.524 . S
C184 H203 0.913 . S
C185 H161 0.950 . S
C185 C184 1.524 . S
C185 C186 1.415 . S
C186 H162 0.950 . S
C186 C181 1.363 . S
C186 C185 1.415 . S
C187 H163 0.951 . S
C187 C188 1.366 . S
C187 C189 1.388 . S
C188 C187 1.366 . S
C188 C192 1.385 . S
C189 H164 0.951 . S
C189 C187 1.388 . S
C189 C190 1.366 . S
C190 C189 1.366 . S
C190 C191 1.414 . S
C190 C193 1.499 . S
C191 H165 0.950 . S
C191 C190 1.414 . S
C191 C192 1.374 . S
C192 H166 0.950 . S
C192 C188 1.385 . S
C192 C191 1.374 . S
C193 C190 1.499 . S
C193 C194 1.373 . S
C193 C195 1.389 . S
C194 H167 0.950 . S
C194 C180 1.377 . S
C194 C193 1.373 . S
C195 C179 1.377 . S
C195 C193 1.389 . S
C195 C196 1.524 . S
C196 C195 1.524 . S
C196 C197 1.397 . S
C196 C201 1.363 . S
C197 H168 0.950 . S
C197 C196 1.397 . S
C197 C198 1.334 . S
C198 H169 0.950 . S
C198 C197 1.334 . S
C198 C199 1.287 . S
C199 C198 1.287 . S
C199 C200 1.524 . S
C199 H202 0.999 . S
C200 H170 0.950 . S
C200 C199 1.524 . S
C200 C201 1.415 . S
C201 H171 0.950 . S
C201 C196 1.363 . S
C201 C200 1.415 . S
H202 C199 0.999 . S
H203 C184 0.913 . S
H204 C222 0.951 . S
H205 C224 0.951 . S
H206 C226 0.950 . S
H207 C227 0.950 . S
H208 C229 0.950 . S
H209 C232 0.935 1_554 S
H210 C233 0.950 1_554 S
H211 C235 0.950 . S
H212 C236 0.950 . S
H213 C237 0.951 . S
H214 C239 0.951 . S
H215 C241 0.950 . S
H216 C242 0.950 . S
H217 C244 0.950 . S
H218 C247 0.973 . S
H219 C248 0.950 1_556 S
H220 C250 0.950 . S
H221 C251 0.950 . S
C222 H204 0.951 . S
C222 C223 1.366 . S
C222 C224 1.388 . S
C223 C222 1.366 . S
C223 C227 1.385 . S
C224 H205 0.951 . S
C224 C222 1.388 . S
C224 C225 1.366 . S
C225 C224 1.366 . S
C225 C226 1.414 . S
C225 C228 1.499 . S
C226 H206 0.950 . S
C226 C225 1.414 . S
C226 C227 1.374 . S
C227 H207 0.950 . S
C227 C223 1.385 . S
C227 C226 1.374 . S
C228 C225 1.499 . S
C228 C229 1.373 1_545 S
C228 C230 1.389 1_554 S
C229 H208 0.950 . S
C229 C228 1.373 1_565 S
C229 C245 1.377 . S
C230 C228 1.389 1_556 S
C230 C231 1.524 . S
C230 C244 1.377 . S
C231 C230 1.524 . S
C231 C232 1.408 . S
C231 C236 1.363 . S
C232 H209 0.935 1_556 S
C232 C231 1.408 . S
C232 C233 1.338 . S
C233 H210 0.950 1_556 S
C233 C232 1.338 . S
C233 C234 1.287 . S
C234 C233 1.287 . S
C234 C235 1.524 . S
C234 H253 0.913 . S
C235 H211 0.950 . S
C235 C234 1.524 . S
C235 C236 1.415 . S
C236 H212 0.950 . S
C236 C231 1.363 . S
C236 C235 1.415 . S
C237 H213 0.951 . S
C237 C238 1.366 . S
C237 C239 1.388 . S
C238 C237 1.366 . S
C238 C242 1.385 . S
C239 H214 0.951 . S
C239 C237 1.388 . S
C239 C240 1.366 . S
C240 C239 1.366 . S
C240 C241 1.414 . S
C240 C243 1.499 . S
C241 H215 0.950 . S
C241 C240 1.414 . S
C241 C242 1.374 . S
C242 H216 0.950 . S
C242 C238 1.385 . S
C242 C241 1.374 . S
C243 C240 1.499 . S
C243 C244 1.373 1_565 S
C243 C245 1.389 1_556 S
C244 H217 0.950 . S
C244 C230 1.377 . S
C244 C243 1.373 1_545 S
C245 C229 1.377 . S
C245 C243 1.389 1_554 S
C245 C246 1.524 . S
C246 C245 1.524 . S
C246 C247 1.380 1_554 S
C246 C251 1.363 . S
C247 H218 0.973 . S
C247 C246 1.380 1_556 S
C247 C248 1.328 1_556 S
C248 H219 0.950 1_554 S
C248 C247 1.328 1_554 S
C248 C249 1.287 . S
C249 C248 1.287 . S
C249 C250 1.524 . S
C249 H252 0.999 . S
C250 H220 0.950 . S
C250 C249 1.524 . S
C250 C251 1.415 . S
C251 H221 0.950 . S
C251 C246 1.363 . S
C251 C250 1.415 . S
H252 C249 0.999 . S
H253 C234 0.913 . S
H254 C272 0.951 . S
H255 C274 0.951 . S
H256 C276 0.950 . S
H257 C277 0.950 . S
H258 C279 0.950 . S
H259 C282 0.950 . S
H260 C283 0.950 . S
H261 C285 0.950 . S
H262 C286 0.950 . S
H263 C287 0.951 . S
H264 C289 0.951 . S
H265 C291 0.950 . S
H266 C292 0.950 . S
H267 C294 0.950 . S
H268 C297 0.950 . S
H269 C298 0.950 . S
H270 C300 0.950 . S
H271 C301 0.950 . S
C272 H254 0.951 . S
C272 C273 1.366 . S
C272 C274 1.388 . S
C273 C272 1.366 . S
C273 C277 1.385 . S
C274 H255 0.951 . S
C274 C272 1.388 . S
C274 C275 1.366 . S
C275 C274 1.366 . S
C275 C276 1.414 . S
C275 C278 1.499 . S
C276 H256 0.950 . S
C276 C275 1.414 . S
C276 C277 1.374 . S
C277 H257 0.950 . S
C277 C273 1.385 . S
C277 C276 1.374 . S
C278 C275 1.499 . S
C278 C279 1.360 1_655 S
C278 C280 1.389 . S
C279 H258 0.950 . S
C279 C278 1.360 1_455 S
C279 C295 1.390 . S
C280 C278 1.389 . S
C280 C281 1.524 . S
C280 C294 1.390 . S
C281 C280 1.524 . S
C281 C282 1.397 . S
C281 C286 1.363 . S
C282 H259 0.950 . S
C282 C281 1.397 . S
C282 C283 1.334 . S
C283 H260 0.950 . S
C283 C282 1.334 . S
C283 C284 1.287 . S
C284 C283 1.287 . S
C284 C285 1.524 . S
C284 H303 0.913 . S
C285 H261 0.950 . S
C285 C284 1.524 . S
C285 C286 1.415 . S
C286 H262 0.950 . S
C286 C281 1.363 . S
C286 C285 1.415 . S
C287 H263 0.951 . S
C287 C288 1.366 . S
C287 C289 1.388 . S
C288 C287 1.366 . S
C288 C292 1.385 . S
C289 H264 0.951 . S
C289 C287 1.388 . S
C289 C290 1.366 . S
C290 C289 1.366 . S
C290 C291 1.414 . S
C290 C293 1.499 . S
C291 H265 0.950 . S
C291 C290 1.414 . S
C291 C292 1.374 . S
C292 H266 0.950 . S
C292 C288 1.385 . S
C292 C291 1.374 . S
C293 C290 1.499 . S
C293 C294 1.360 1_455 S
C293 C295 1.389 . S
C294 H267 0.950 . S
C294 C280 1.390 . S
C294 C293 1.360 1_655 S
C295 C279 1.390 . S
C295 C293 1.389 . S
C295 C296 1.524 . S
C296 C295 1.524 . S
C296 C297 1.397 . S
C296 C301 1.363 . S
C297 H268 0.950 . S
C297 C296 1.397 . S
C297 C298 1.334 . S
C298 H269 0.950 . S
C298 C297 1.334 . S
C298 C299 1.287 . S
C299 C298 1.287 . S
C299 C300 1.524 . S
C299 H302 0.999 . S
C300 H270 0.950 . S
C300 C299 1.524 . S
C300 C301 1.415 . S
C301 H271 0.950 . S
C301 C296 1.363 . S
C301 C300 1.415 . S
H302 C299 0.999 . S
H303 C284 0.913 . S
H304 C322 0.951 . S
H305 C324 0.951 . S
H306 C326 0.950 . S
H307 C327 0.950 . S
H308 C329 0.950 . S
H309 C332 0.950 . S
H310 C333 0.950 . S
H311 C335 0.950 . S
H312 C336 0.950 . S
H313 C337 0.951 . S
H314 C339 0.951 . S
H315 C341 0.950 . S
H316 C342 0.950 . S
H317 C344 0.953 . S
H318 C347 0.950 . S
H319 C348 0.950 . S
H320 C350 0.950 . S
H321 C351 0.950 . S
C322 H304 0.951 . S
C322 C323 1.366 . S
C322 C324 1.388 . S
C323 C322 1.366 . S
C323 C327 1.385 . S
C324 H305 0.951 . S
C324 C322 1.388 . S
C324 C325 1.366 . S
C325 C324 1.366 . S
C325 C326 1.414 . S
C325 C328 1.499 . S
C326 H306 0.950 . S
C326 C325 1.414 . S
C326 C327 1.374 . S
C327 H307 0.950 . S
C327 C323 1.385 . S
C327 C326 1.374 . S
C328 C325 1.499 . S
C328 C329 1.373 1_565 S
C328 C330 1.389 . S
C329 H308 0.950 . S
C329 C328 1.373 1_545 S
C329 C345 1.377 . S
C330 C328 1.389 . S
C330 C331 1.524 . S
C330 C344 1.377 1_565 S
C331 C330 1.524 . S
C331 C332 1.397 . S
C331 C336 1.363 . S
C332 H309 0.950 . S
C332 C331 1.397 . S
C332 C333 1.334 . S
C333 H310 0.950 . S
C333 C332 1.334 . S
C333 C334 1.287 . S
C334 C333 1.287 . S
C334 C335 1.524 . S
C334 H353 0.913 . S
C335 H311 0.950 . S
C335 C334 1.524 . S
C335 C336 1.415 . S
C336 H312 0.950 . S
C336 C331 1.363 . S
C336 C335 1.415 . S
C337 H313 0.951 . S
C337 C338 1.366 . S
C337 C339 1.388 . S
C338 C337 1.366 . S
C338 C342 1.385 . S
C339 H314 0.951 . S
C339 C337 1.388 . S
C339 C340 1.366 . S
C340 C339 1.366 . S
C340 C341 1.414 . S
C340 C343 1.499 . S
C341 H315 0.950 . S
C341 C340 1.414 . S
C341 C342 1.374 . S
C342 H316 0.950 . S
C342 C338 1.385 . S
C342 C341 1.374 . S
C343 C340 1.499 . S
C343 C344 1.373 . S
C343 C345 1.389 . S
C344 H317 0.953 . S
C344 C330 1.377 1_545 S
C344 C343 1.373 . S
C345 C329 1.377 . S
C345 C343 1.389 . S
C345 C346 1.524 . S
C346 C345 1.524 . S
C346 C347 1.397 . S
C346 C351 1.363 . S
C347 H318 0.950 . S
C347 C346 1.397 . S
C347 C348 1.334 . S
C348 H319 0.950 . S
C348 C347 1.334 . S
C348 C349 1.287 . S
C349 C348 1.287 . S
C349 C350 1.524 . S
C349 H352 0.999 . S
C350 H320 0.950 . S
C350 C349 1.524 . S
C350 C351 1.415 . S
C351 H321 0.950 . S
C351 C346 1.363 . S
C351 C350 1.415 . S
H352 C349 0.999 . S
H353 C334 0.913 . S
H354 C372 0.951 . S
H355 C374 0.951 . S
H356 C376 0.950 . S
H357 C377 0.950 . S
H358 C379 0.950 . S
H359 C382 0.950 . S
H360 C383 0.950 . S
H361 C385 0.950 . S
H362 C386 0.950 . S
H363 C387 0.951 . S
H364 C389 0.951 . S
H365 C391 0.950 . S
H366 C392 0.950 . S
H367 C394 0.950 . S
H368 C397 0.950 . S
H369 C398 0.950 . S
H370 C400 0.950 . S
H371 C401 0.950 . S
C372 H354 0.951 . S
C372 C373 1.366 . S
C372 C374 1.388 . S
C373 C372 1.366 . S
C373 C377 1.385 . S
C374 H355 0.951 . S
C374 C372 1.388 . S
C374 C375 1.366 . S
C375 C374 1.366 . S
C375 C376 1.414 . S
C375 C378 1.499 . S
C376 H356 0.950 . S
C376 C375 1.414 . S
C376 C377 1.374 . S
C377 H357 0.950 . S
C377 C373 1.385 . S
C377 C376 1.374 . S
C378 C375 1.499 . S
C378 C379 1.373 1_556 S
C378 C380 1.389 1_655 S
C379 H358 0.950 . S
C379 C378 1.373 1_554 S
C379 C395 1.377 . S
C380 C378 1.389 1_455 S
C380 C381 1.524 . S
C380 C394 1.377 . S
C381 C380 1.524 . S
C381 C382 1.397 . S
C381 C386 1.363 . S
C382 H359 0.950 . S
C382 C381 1.397 . S
C382 C383 1.334 . S
C383 H360 0.950 . S
C383 C382 1.334 . S
C383 C384 1.287 . S
C384 C383 1.287 . S
C384 C385 1.524 . S
C384 H403 0.913 . S
C385 H361 0.950 . S
C385 C384 1.524 . S
C385 C386 1.415 . S
C386 H362 0.950 . S
C386 C381 1.363 . S
C386 C385 1.415 . S
C387 H363 0.951 . S
C387 C388 1.366 . S
C387 C389 1.388 . S
C388 C387 1.366 . S
C388 C392 1.385 . S
C389 H364 0.951 . S
C389 C387 1.388 . S
C389 C390 1.366 . S
C390 C389 1.366 . S
C390 C391 1.414 . S
C390 C393 1.499 . S
C391 H365 0.950 . S
C391 C390 1.414 . S
C391 C392 1.374 . S
C392 H366 0.950 . S
C392 C388 1.385 . S
C392 C391 1.374 . S
C393 C390 1.499 . S
C393 C394 1.373 1_554 S
C393 C395 1.389 1_455 S
C394 H367 0.950 . S
C394 C380 1.377 . S
C394 C393 1.373 1_556 S
C395 C379 1.377 . S
C395 C393 1.389 1_655 S
C395 C396 1.524 . S
C396 C395 1.524 . S
C396 C397 1.397 . S
C396 C401 1.363 . S
C397 H368 0.950 . S
C397 C396 1.397 . S
C397 C398 1.334 . S
C398 H369 0.950 . S
C398 C397 1.334 . S
C398 C399 1.287 . S
C399 C398 1.287 . S
C399 C400 1.524 . S
C399 H402 0.999 . S
C400 H370 0.950 . S
C400 C399 1.524 . S
C400 C401 1.415 . S
C401 H371 0.950 . S
C401 C396 1.363 . S
C401 C400 1.415 . S
H402 C399 0.999 . S
H403 C384 0.913 . S
H404 C422 0.951 . S
H405 C424 0.951 . S
H406 C426 0.950 . S
H407 C427 0.950 . S
H408 C429 0.950 . S
H409 C432 0.950 . S
H410 C433 0.950 . S
H411 C435 0.950 . S
H412 C436 0.950 . S
H413 C437 0.951 . S
H414 C439 0.951 . S
H415 C441 0.950 . S
H416 C442 0.950 . S
H417 C444 0.950 . S
H418 C447 0.950 . S
H419 C448 0.950 . S
H420 C450 0.950 . S
H421 C451 0.950 . S
C422 H404 0.951 . S
C422 C423 1.366 . S
C422 C424 1.388 . S
C423 C422 1.366 . S
C423 C427 1.385 . S
C424 H405 0.951 . S
C424 C422 1.388 . S
C424 C425 1.366 . S
C425 C424 1.366 . S
C425 C426 1.414 . S
C425 C428 1.499 . S
C426 H406 0.950 . S
C426 C425 1.414 . S
C426 C427 1.374 . S
C427 H407 0.950 . S
C427 C423 1.385 . S
C427 C426 1.374 . S
C428 C425 1.499 . S
C428 C429 1.373 . S
C428 C430 1.389 . S
C429 H408 0.950 . S
C429 C428 1.373 . S
C429 C445 1.377 . S
C430 C428 1.389 . S
C430 C431 1.524 . S
C430 C444 1.377 . S
C431 C430 1.524 . S
C431 C432 1.397 . S
C431 C436 1.363 . S
C432 H409 0.950 . S
C432 C431 1.397 . S
C432 C433 1.334 . S
C433 H410 0.950 . S
C433 C432 1.334 . S
C433 C434 1.287 . S
C434 C433 1.287 . S
C434 C435 1.524 . S
C434 H453 0.913 . S
C435 H411 0.950 . S
C435 C434 1.524 . S
C435 C436 1.415 . S
C436 H412 0.950 . S
C436 C431 1.363 . S
C436 C435 1.415 . S
C437 H413 0.951 . S
C437 C438 1.366 . S
C437 C439 1.388 . S
C438 C437 1.366 . S
C438 C442 1.385 . S
C439 H414 0.951 . S
C439 C437 1.388 . S
C439 C440 1.366 . S
C440 C439 1.366 . S
C440 C441 1.414 . S
C440 C443 1.499 . S
C441 H415 0.950 . S
C441 C440 1.414 . S
C441 C442 1.374 . S
C442 H416 0.950 . S
C442 C438 1.385 . S
C442 C441 1.374 . S
C443 C440 1.499 . S
C443 C444 1.373 . S
C443 C445 1.389 . S
C444 H417 0.950 . S
C444 C430 1.377 . S
C444 C443 1.373 . S
C445 C429 1.377 . S
C445 C443 1.389 . S
C445 C446 1.524 . S
C446 C445 1.524 . S
C446 C447 1.397 . S
C446 C451 1.363 . S
C447 H418 0.950 . S
C447 C446 1.397 . S
C447 C448 1.334 . S
C448 H419 0.950 . S
C448 C447 1.334 . S
C448 C449 1.287 . S
C449 C448 1.287 . S
C449 C450 1.524 . S
C449 H452 0.999 . S
C450 H420 0.950 . S
C450 C449 1.524 . S
C450 C451 1.415 . S
C451 H421 0.950 . S
C451 C446 1.363 . S
C451 C450 1.415 . S
H452 C449 0.999 . S
H453 C434 0.913 . S
H454 C472 0.951 . S
H455 C474 0.951 . S
H456 C476 0.950 . S
H457 C477 0.950 . S
H458 C479 0.950 . S
H459 C482 0.950 . S
H460 C483 0.950 . S
H461 C485 0.950 . S
H462 C486 0.950 . S
H463 C487 0.951 . S
H464 C489 0.951 . S
H465 C491 0.950 . S
H466 C492 0.950 . S
H467 C494 0.950 . S
H468 C497 0.950 . S
H469 C498 0.950 . S
H470 C500 0.950 . S
H471 C501 0.950 . S
C472 H454 0.951 . S
C472 C473 1.366 . S
C472 C474 1.388 . S
C473 C472 1.366 . S
C473 C477 1.385 . S
C474 H455 0.951 . S
C474 C472 1.388 . S
C474 C475 1.366 . S
C475 C474 1.366 . S
C475 C476 1.414 . S
C475 C478 1.499 . S
C476 H456 0.950 . S
C476 C475 1.414 . S
C476 C477 1.374 . S
C477 H457 0.950 . S
C477 C473 1.385 . S
C477 C476 1.374 . S
C478 C475 1.499 . S
C478 C479 1.373 . S
C478 C480 1.389 . S
C479 H458 0.950 . S
C479 C478 1.373 . S
C479 C495 1.377 . S
C480 C478 1.389 . S
C480 C481 1.524 . S
C480 C494 1.377 . S
C481 C480 1.524 . S
C481 C482 1.397 . S
C481 C486 1.363 . S
C482 H459 0.950 . S
C482 C481 1.397 . S
C482 C483 1.334 . S
C483 H460 0.950 . S
C483 C482 1.334 . S
C483 C484 1.287 . S
C484 C483 1.287 . S
C484 C485 1.524 . S
C484 H503 0.913 . S
C485 H461 0.950 . S
C485 C484 1.524 . S
C485 C486 1.415 . S
C486 H462 0.950 . S
C486 C481 1.363 . S
C486 C485 1.415 . S
C487 H463 0.951 . S
C487 C488 1.366 . S
C487 C489 1.388 . S
C488 C487 1.366 . S
C488 C492 1.385 . S
C489 H464 0.951 . S
C489 C487 1.388 . S
C489 C490 1.366 . S
C490 C489 1.366 . S
C490 C491 1.414 . S
C490 C493 1.499 . S
C491 H465 0.950 . S
C491 C490 1.414 . S
C491 C492 1.374 . S
C492 H466 0.950 . S
C492 C488 1.385 . S
C492 C491 1.374 . S
C493 C490 1.499 . S
C493 C494 1.373 . S
C493 C495 1.389 . S
C494 H467 0.950 . S
C494 C480 1.377 . S
C494 C493 1.373 . S
C495 C479 1.377 . S
C495 C493 1.389 . S
C495 C496 1.524 . S
C496 C495 1.524 . S
C496 C497 1.397 . S
C496 C501 1.363 . S
C497 H468 0.950 . S
C497 C496 1.397 . S
C497 C498 1.334 . S
C498 H469 0.950 . S
C498 C497 1.334 . S
C498 C499 1.287 . S
C499 C498 1.287 . S
C499 C500 1.524 . S
C499 H502 0.999 . S
C500 H470 0.950 . S
C500 C499 1.524 . S
C500 C501 1.415 . S
C501 H471 0.950 . S
C501 C496 1.363 . S
C501 C500 1.415 . S
H502 C499 0.999 . S
H503 C484 0.913 . S
H504 C522 0.951 . S
H505 C524 0.951 . S
H506 C526 0.950 . S
H507 C527 0.950 . S
H508 C529 0.950 . S
H509 C532 0.950 . S
H510 C533 0.950 . S
H511 C535 0.950 . S
H512 C536 0.950 . S
H513 C537 0.951 . S
H514 C539 0.951 . S
H515 C541 0.950 . S
H516 C542 0.950 . S
H517 C544 0.950 . S
H518 C547 0.950 . S
H519 C548 0.950 . S
H520 C550 0.950 . S
H521 C551 0.950 . S
C522 H504 0.951 . S
C522 C523 1.366 . S
C522 C524 1.388 . S
C523 C522 1.366 . S
C523 C527 1.385 . S
C524 H505 0.951 . S
C524 C522 1.388 . S
C524 C525 1.366 . S
C525 C524 1.366 . S
C525 C526 1.414 . S
C525 C528 1.499 . S
C526 H506 0.950 . S
C526 C525 1.414 . S
C526 C527 1.374 . S
C527 H507 0.950 . S
C527 C523 1.385 . S
C527 C526 1.374 . S
C528 C525 1.499 . S
C528 C529 1.373 . S
C528 C530 1.389 . S
C529 H508 0.950 . S
C529 C528 1.373 . S
C529 C545 1.377 . S
C530 C528 1.389 . S
C530 C531 1.524 . S
C530 C544 1.377 . S
C531 C530 1.524 . S
C531 C532 1.397 . S
C531 C536 1.363 . S
C532 H509 0.950 . S
C532 C531 1.397 . S
C532 C533 1.334 . S
C533 H510 0.950 . S
C533 C532 1.334 . S
C533 C534 1.287 . S
C534 C533 1.287 . S
C534 C535 1.524 . S
C534 H553 0.913 . S
C535 H511 0.950 . S
C535 C534 1.524 . S
C535 C536 1.415 . S
C536 H512 0.950 . S
C536 C531 1.363 . S
C536 C535 1.415 . S
C537 H513 0.951 . S
C537 C538 1.366 . S
C537 C539 1.388 . S
C538 C537 1.366 . S
C538 C542 1.385 . S
C539 H514 0.951 . S
C539 C537 1.388 . S
C539 C540 1.366 . S
C540 C539 1.366 . S
C540 C541 1.414 . S
C540 C543 1.499 . S
C541 H515 0.950 . S
C541 C540 1.414 . S
C541 C542 1.374 . S
C542 H516 0.950 . S
C542 C538 1.385 . S
C542 C541 1.374 . S
C543 C540 1.499 . S
C543 C544 1.373 . S
C543 C545 1.389 . S
C544 H517 0.950 . S
C544 C530 1.377 . S
C544 C543 1.373 . S
C545 C529 1.377 . S
C545 C543 1.389 . S
C545 C546 1.524 . S
C546 C545 1.524 . S
C546 C547 1.397 . S
C546 C551 1.363 . S
C547 H518 0.950 . S
C547 C546 1.397 . S
C547 C548 1.334 . S
C548 H519 0.950 . S
C548 C547 1.334 . S
C548 C549 1.287 . S
C549 C548 1.287 . S
C549 C550 1.524 . S
C549 H552 0.999 . S
C550 H520 0.950 . S
C550 C549 1.524 . S
C550 C551 1.415 . S
C551 H521 0.950 . S
C551 C546 1.363 . S
C551 C550 1.415 . S
H552 C549 0.999 . S
H553 C534 0.913 . S
H554 C572 0.951 . S
H555 C574 0.951 . S
H556 C576 0.950 . S
H557 C577 0.950 . S
H558 C579 0.950 . S
H559 C582 0.950 . S
H560 C583 0.950 . S
H561 C585 0.950 . S
H562 C586 0.950 . S
H563 C587 0.951 . S
H564 C589 0.951 . S
H565 C591 0.950 . S
H566 C592 0.950 . S
H567 C594 0.950 . S
H568 C597 0.950 . S
H569 C598 0.950 . S
H570 C600 0.950 . S
H571 C601 0.950 . S
C572 H554 0.951 . S
C572 C573 1.366 . S
C572 C574 1.388 . S
C573 C572 1.366 . S
C573 C577 1.385 . S
C574 H555 0.951 . S
C574 C572 1.388 . S
C574 C575 1.366 . S
C575 C574 1.366 . S
C575 C576 1.414 . S
C575 C578 1.499 . S
C576 H556 0.950 . S
C576 C575 1.414 . S
C576 C577 1.374 . S
C577 H557 0.950 . S
C577 C573 1.385 . S
C577 C576 1.374 . S
C578 C575 1.499 . S
C578 C579 1.373 . S
C578 C580 1.389 . S
C579 H558 0.950 . S
C579 C578 1.373 . S
C579 C595 1.377 1_556 S
C580 C578 1.389 . S
C580 C581 1.524 . S
C580 C594 1.377 1_556 S
C581 C580 1.524 . S
C581 C582 1.397 . S
C581 C586 1.363 1_556 S
C582 H559 0.950 . S
C582 C581 1.397 . S
C582 C583 1.334 . S
C583 H560 0.950 . S
C583 C582 1.334 . S
C583 C584 1.287 . S
C584 C583 1.287 . S
C584 C585 1.524 1_556 S
C584 H603 0.913 . S
C585 H561 0.950 . S
C585 C584 1.524 1_554 S
C585 C586 1.415 . S
C586 H562 0.950 . S
C586 C581 1.363 1_554 S
C586 C585 1.415 . S
C587 H563 0.951 . S
C587 C588 1.366 . S
C587 C589 1.388 . S
C588 C587 1.366 . S
C588 C592 1.385 . S
C589 H564 0.951 . S
C589 C587 1.388 . S
C589 C590 1.366 . S
C590 C589 1.366 . S
C590 C591 1.414 . S
C590 C593 1.499 . S
C591 H565 0.950 . S
C591 C590 1.414 . S
C591 C592 1.374 . S
C592 H566 0.950 . S
C592 C588 1.385 . S
C592 C591 1.374 . S
C593 C590 1.499 . S
C593 C594 1.373 . S
C593 C595 1.389 . S
C594 H567 0.950 . S
C594 C580 1.377 1_554 S
C594 C593 1.373 . S
C595 C579 1.377 1_554 S
C595 C593 1.389 . S
C595 C596 1.524 . S
C596 C595 1.524 . S
C596 C597 1.397 . S
C596 C601 1.363 1_554 S
C597 H568 0.950 . S
C597 C596 1.397 . S
C597 C598 1.334 . S
C598 H569 0.950 . S
C598 C597 1.334 . S
C598 C599 1.287 . S
C599 C598 1.287 . S
C599 C600 1.524 1_554 S
C599 H602 0.999 . S
C600 H570 0.950 . S
C600 C599 1.524 1_556 S
C600 C601 1.415 . S
C601 H571 0.950 . S
C601 C596 1.363 1_556 S
C601 C600 1.415 . S
H602 C599 0.999 . S
H603 C584 0.913 . S
H604 C622 0.951 . S
H605 C624 0.951 . S
H606 C626 0.950 . S
H607 C627 0.950 . S
H608 C629 0.950 . S
H609 C632 0.950 . S
H610 C633 0.950 . S
H611 C635 0.950 . S
H612 C636 0.950 . S
H613 C637 0.951 . S
H614 C639 0.951 . S
H615 C641 0.950 . S
H616 C642 0.950 . S
H617 C644 0.950 . S
H618 C647 0.931 1_545 S
H619 C648 0.950 . S
H620 C650 0.950 . S
H621 C651 0.950 . S
C622 H604 0.951 . S
C622 C623 1.366 . S
C622 C624 1.388 . S
C623 C622 1.366 . S
C623 C627 1.385 . S
C624 H605 0.951 . S
C624 C622 1.388 . S
C624 C625 1.366 . S
C625 C624 1.366 . S
C625 C626 1.414 . S
C625 C628 1.499 . S
C626 H606 0.950 . S
C626 C625 1.414 . S
C626 C627 1.374 . S
C627 H607 0.950 . S
C627 C623 1.385 . S
C627 C626 1.374 . S
C628 C625 1.499 . S
C628 C629 1.373 . S
C628 C630 1.389 1_565 S
C629 H608 0.950 . S
C629 C628 1.373 . S
C629 C645 1.377 . S
C630 C628 1.389 1_545 S
C630 C631 1.524 . S
C630 C644 1.377 . S
C631 C630 1.524 . S
C631 C632 1.397 . S
C631 C636 1.363 . S
C632 H609 0.950 . S
C632 C631 1.397 . S
C632 C633 1.334 . S
C633 H610 0.950 . S
C633 C632 1.334 . S
C633 C634 1.287 . S
C634 C633 1.287 . S
C634 C635 1.524 . S
C634 H653 0.913 . S
C635 H611 0.950 . S
C635 C634 1.524 . S
C635 C636 1.415 . S
C636 H612 0.950 . S
C636 C631 1.363 . S
C636 C635 1.415 . S
C637 H613 0.951 . S
C637 C638 1.366 . S
C637 C639 1.388 . S
C638 C637 1.366 . S
C638 C642 1.385 . S
C639 H614 0.951 . S
C639 C637 1.388 . S
C639 C640 1.366 . S
C640 C639 1.366 . S
C640 C641 1.414 . S
C640 C643 1.499 . S
C641 H615 0.950 . S
C641 C640 1.414 . S
C641 C642 1.374 . S
C642 H616 0.950 . S
C642 C638 1.385 . S
C642 C641 1.374 . S
C643 C640 1.499 . S
C643 C644 1.373 . S
C643 C645 1.389 1_545 S
C644 H617 0.950 . S
C644 C630 1.377 . S
C644 C643 1.373 . S
C645 C629 1.377 . S
C645 C643 1.389 1_565 S
C645 C646 1.524 . S
C646 C645 1.524 . S
C646 C647 1.397 . S
C646 C651 1.363 . S
C647 H618 0.931 1_565 S
C647 C646 1.397 . S
C647 C648 1.334 . S
C648 H619 0.950 . S
C648 C647 1.334 . S
C648 C649 1.287 . S
C649 C648 1.287 . S
C649 C650 1.524 . S
C649 H652 0.999 . S
C650 H620 0.950 . S
C650 C649 1.524 . S
C650 C651 1.415 . S
C651 H621 0.950 . S
C651 C646 1.363 . S
C651 C650 1.415 . S
H652 C649 0.999 . S
H653 C634 0.913 . S
H654 C672 0.951 . S
H655 C674 0.951 . S
H656 C676 0.950 . S
H657 C677 0.950 . S
H658 C679 0.950 . S
H659 C682 0.957 1_565 S
H660 C683 0.950 . S
H661 C685 0.950 . S
H662 C686 0.950 . S
H663 C687 0.951 . S
H664 C689 0.951 . S
H665 C691 0.950 . S
H666 C692 0.950 . S
H667 C694 0.950 . S
H668 C697 0.957 1_545 S
H669 C698 0.950 . S
H670 C700 0.950 . S
H671 C701 0.950 . S
C672 H654 0.951 . S
C672 C673 1.366 . S
C672 C674 1.388 . S
C673 C672 1.366 . S
C673 C677 1.385 . S
C674 H655 0.951 . S
C674 C672 1.388 . S
C674 C675 1.366 . S
C675 C674 1.366 . S
C675 C676 1.414 . S
C675 C678 1.499 . S
C676 H656 0.950 . S
C676 C675 1.414 . S
C676 C677 1.374 . S
C677 H657 0.950 . S
C677 C673 1.385 . S
C677 C676 1.374 . S
C678 C675 1.499 . S
C678 C679 1.373 . S
C678 C680 1.389 1_565 S
C679 H658 0.950 . S
C679 C678 1.373 . S
C679 C695 1.377 1_655 S
C680 C678 1.389 1_545 S
C680 C681 1.524 . S
C680 C694 1.377 1_655 S
C681 C680 1.524 . S
C681 C682 1.397 . S
C681 C686 1.363 . S
C682 H659 0.957 1_545 S
C682 C681 1.397 . S
C682 C683 1.334 . S
C683 H660 0.950 . S
C683 C682 1.334 . S
C683 C684 1.287 . S
C684 C683 1.287 . S
C684 C685 1.524 . S
C684 H703 0.913 . S
C685 H661 0.950 . S
C685 C684 1.524 . S
C685 C686 1.415 . S
C686 H662 0.950 . S
C686 C681 1.363 . S
C686 C685 1.415 . S
C687 H663 0.951 . S
C687 C688 1.366 . S
C687 C689 1.388 . S
C688 C687 1.366 . S
C688 C692 1.385 . S
C689 H664 0.951 . S
C689 C687 1.388 . S
C689 C690 1.366 . S
C690 C689 1.366 . S
C690 C691 1.414 . S
C690 C693 1.499 . S
C691 H665 0.950 . S
C691 C690 1.414 . S
C691 C692 1.374 . S
C692 H666 0.950 . S
C692 C688 1.385 . S
C692 C691 1.374 . S
C693 C690 1.499 . S
C693 C694 1.373 . S
C693 C695 1.389 1_545 S
C694 H667 0.950 . S
C694 C680 1.377 1_455 S
C694 C693 1.373 . S
C695 C679 1.377 1_455 S
C695 C693 1.389 1_565 S
C695 C696 1.524 . S
C696 C695 1.524 . S
C696 C697 1.397 . S
C696 C701 1.363 . S
C697 H668 0.957 1_565 S
C697 C696 1.397 . S
C697 C698 1.334 . S
C698 H669 0.950 . S
C698 C697 1.334 . S
C698 C699 1.287 . S
C699 C698 1.287 . S
C699 C700 1.524 . S
C699 H702 0.999 . S
C700 H670 0.950 . S
C700 C699 1.524 . S
C700 C701 1.415 . S
C701 H671 0.950 . S
C701 C696 1.363 . S
C701 C700 1.415 . S
H702 C699 0.999 . S
H703 C684 0.913 . S
H704 C722 0.951 . S
H705 C724 0.951 . S
H706 C726 0.950 . S
H707 C727 0.950 . S
H708 C729 0.950 . S
H709 C732 0.950 . S
H710 C733 0.950 . S
H711 C735 0.950 . S
H712 C736 0.950 . S
H713 C737 0.951 . S
H714 C739 0.951 . S
H715 C741 0.950 . S
H716 C742 0.950 . S
H717 C744 0.950 . S
H718 C747 0.950 . S
H719 C748 0.950 . S
H720 C750 0.950 . S
H721 C751 0.950 . S
C722 H704 0.951 . S
C722 C723 1.366 . S
C722 C724 1.388 . S
C723 C722 1.366 . S
C723 C727 1.385 . S
C724 H705 0.951 . S
C724 C722 1.388 . S
C724 C725 1.366 . S
C725 C724 1.366 . S
C725 C726 1.414 . S
C725 C728 1.499 . S
C726 H706 0.950 . S
C726 C725 1.414 . S
C726 C727 1.374 . S
C727 H707 0.950 . S
C727 C723 1.385 . S
C727 C726 1.374 . S
C728 C725 1.499 . S
C728 C729 1.373 . S
C728 C730 1.389 1_655 S
C729 H708 0.950 . S
C729 C728 1.373 . S
C729 C745 1.377 . S
C730 C728 1.389 1_455 S
C730 C731 1.524 . S
C730 C744 1.377 . S
C731 C730 1.524 . S
C731 C732 1.397 1_455 S
C731 C736 1.363 . S
C732 H709 0.950 . S
C732 C731 1.397 1_655 S
C732 C733 1.334 . S
C733 H710 0.950 . S
C733 C732 1.334 . S
C733 C734 1.287 1_655 S
C734 C733 1.287 1_455 S
C734 C735 1.524 . S
C734 H753 0.913 . S
C735 H711 0.950 . S
C735 C734 1.524 . S
C735 C736 1.415 . S
C736 H712 0.950 . S
C736 C731 1.363 . S
C736 C735 1.415 . S
C737 H713 0.951 . S
C737 C738 1.366 . S
C737 C739 1.388 . S
C738 C737 1.366 . S
C738 C742 1.385 . S
C739 H714 0.951 . S
C739 C737 1.388 . S
C739 C740 1.366 . S
C740 C739 1.366 . S
C740 C741 1.414 . S
C740 C743 1.499 . S
C741 H715 0.950 . S
C741 C740 1.414 . S
C741 C742 1.374 . S
C742 H716 0.950 . S
C742 C738 1.385 . S
C742 C741 1.374 . S
C743 C740 1.499 . S
C743 C744 1.373 . S
C743 C745 1.389 1_455 S
C744 H717 0.950 . S
C744 C730 1.377 . S
C744 C743 1.373 . S
C745 C729 1.377 . S
C745 C743 1.389 1_655 S
C745 C746 1.524 . S
C746 C745 1.524 . S
C746 C747 1.397 1_655 S
C746 C751 1.363 . S
C747 H718 0.950 . S
C747 C746 1.397 1_455 S
C747 C748 1.334 . S
C748 H719 0.950 . S
C748 C747 1.334 . S
C748 C749 1.287 1_455 S
C749 C748 1.287 1_655 S
C749 C750 1.524 . S
C749 H752 0.999 . S
C750 H720 0.950 . S
C750 C749 1.524 . S
C750 C751 1.415 . S
C751 H721 0.950 . S
C751 C746 1.363 . S
C751 C750 1.415 . S
H752 C749 0.999 . S
H753 C734 0.913 . S
H754 C772 0.951 . S
H755 C774 0.951 . S
H756 C776 0.950 . S
H757 C777 0.950 . S
H758 C779 0.950 . S
H759 C782 0.950 . S
H760 C783 0.950 . S
H761 C785 0.950 . S
H762 C786 0.950 . S
H763 C787 0.951 . S
H764 C789 0.951 . S
H765 C791 0.950 . S
H766 C792 0.950 . S
H767 C794 0.950 . S
H768 C797 0.950 . S
H769 C798 0.950 . S
H770 C800 0.950 . S
H771 C801 0.950 . S
C772 H754 0.951 . S
C772 C773 1.366 . S
C772 C774 1.388 . S
C773 C772 1.366 . S
C773 C777 1.385 . S
C774 H755 0.951 . S
C774 C772 1.388 . S
C774 C775 1.366 . S
C775 C774 1.366 . S
C775 C776 1.414 . S
C775 C778 1.499 . S
C776 H756 0.950 . S
C776 C775 1.414 . S
C776 C777 1.374 . S
C777 H757 0.950 . S
C777 C773 1.385 . S
C777 C776 1.374 . S
C778 C775 1.499 . S
C778 C779 1.373 . S
C778 C780 1.389 . S
C779 H758 0.950 . S
C779 C778 1.373 . S
C779 C795 1.377 . S
C780 C778 1.389 . S
C780 C781 1.524 . S
C780 C794 1.377 . S
C781 C780 1.524 . S
C781 C782 1.397 . S
C781 C786 1.363 . S
C782 H759 0.950 . S
C782 C781 1.397 . S
C782 C783 1.334 . S
C783 H760 0.950 . S
C783 C782 1.334 . S
C783 C784 1.287 . S
C784 C783 1.287 . S
C784 C785 1.524 . S
C784 H803 0.913 . S
C785 H761 0.950 . S
C785 C784 1.524 . S
C785 C786 1.415 . S
C786 H762 0.950 . S
C786 C781 1.363 . S
C786 C785 1.415 . S
C787 H763 0.951 . S
C787 C788 1.366 . S
C787 C789 1.388 . S
C788 C787 1.366 . S
C788 C792 1.385 . S
C789 H764 0.951 . S
C789 C787 1.388 . S
C789 C790 1.366 . S
C790 C789 1.366 . S
C790 C791 1.414 . S
C790 C793 1.499 . S
C791 H765 0.950 . S
C791 C790 1.414 . S
C791 C792 1.374 . S
C792 H766 0.950 . S
C792 C788 1.385 . S
C792 C791 1.374 . S
C793 C790 1.499 . S
C793 C794 1.373 . S
C793 C795 1.389 . S
C794 H767 0.950 . S
C794 C780 1.377 . S
C794 C793 1.373 . S
C795 C779 1.377 . S
C795 C793 1.389 . S
C795 C796 1.524 . S
C796 C795 1.524 . S
C796 C797 1.397 . S
C796 C801 1.363 . S
C797 H768 0.950 . S
C797 C796 1.397 . S
C797 C798 1.334 . S
C798 H769 0.950 . S
C798 C797 1.334 . S
C798 C799 1.287 . S
C799 C798 1.287 . S
C799 C800 1.524 . S
C799 H802 0.999 . S
C800 H770 0.950 . S
C800 C799 1.524 . S
C800 C801 1.415 . S
C801 H771 0.950 . S
C801 C796 1.363 . S
C801 C800 1.415 . S
H802 C799 0.999 . S
H803 C784 0.913 . S
H804 C822 0.951 . S
H805 C824 0.951 . S
H806 C826 0.950 . S
H807 C827 0.950 . S
H808 C829 0.950 . S
H809 C832 0.950 . S
H810 C833 0.950 . S
H811 C835 0.950 . S
H812 C836 0.950 . S
H813 C837 0.951 . S
H814 C839 0.951 . S
H815 C841 0.950 . S
H816 C842 0.950 . S
H817 C844 0.950 . S
H818 C847 0.950 . S
H819 C848 0.950 . S
H820 C850 0.950 . S
H821 C851 0.950 . S
C822 H804 0.951 . S
C822 C823 1.366 . S
C822 C824 1.388 . S
C823 C822 1.366 . S
C823 C827 1.385 . S
C824 H805 0.951 . S
C824 C822 1.388 . S
C824 C825 1.366 . S
C825 C824 1.366 . S
C825 C826 1.414 . S
C825 C828 1.499 . S
C826 H806 0.950 . S
C826 C825 1.414 . S
C826 C827 1.374 . S
C827 H807 0.950 . S
C827 C823 1.385 . S
C827 C826 1.374 . S
C828 C825 1.499 . S
C828 C829 1.373 . S
C828 C830 1.392 . S
C829 H808 0.950 . S
C829 C828 1.373 . S
C829 C845 1.377 1_554 S
C830 C828 1.392 . S
C830 C831 1.525 . S
C830 C844 1.372 1_554 S
C831 C830 1.525 . S
C831 C832 1.395 1_554 S
C831 C836 1.364 . S
C832 H809 0.950 . S
C832 C831 1.395 1_556 S
C832 C833 1.334 . S
C833 H810 0.950 . S
C833 C832 1.334 . S
C833 C834 1.287 . S
C834 C833 1.287 . S
C834 C835 1.524 1_556 S
C834 H853 0.913 . S
C835 H811 0.950 . S
C835 C834 1.524 1_554 S
C835 C836 1.415 . S
C836 H812 0.950 . S
C836 C831 1.364 . S
C836 C835 1.415 . S
C837 H813 0.951 . S
C837 C838 1.366 . S
C837 C839 1.388 . S
C838 C837 1.366 . S
C838 C842 1.385 . S
C839 H814 0.951 . S
C839 C837 1.388 . S
C839 C840 1.366 . S
C840 C839 1.366 . S
C840 C841 1.414 . S
C840 C843 1.499 . S
C841 H815 0.950 . S
C841 C840 1.414 . S
C841 C842 1.374 . S
C842 H816 0.950 . S
C842 C838 1.385 . S
C842 C841 1.374 . S
C843 C840 1.499 . S
C843 C844 1.373 . S
C843 C845 1.389 . S
C844 H817 0.950 . S
C844 C830 1.372 1_556 S
C844 C843 1.373 . S
C845 C829 1.377 1_556 S
C845 C843 1.389 . S
C845 C846 1.524 . S
C846 C845 1.524 . S
C846 C847 1.397 1_556 S
C846 C851 1.363 . S
C847 H818 0.950 . S
C847 C846 1.397 1_554 S
C847 C848 1.334 . S
C848 H819 0.950 . S
C848 C847 1.334 . S
C848 C849 1.294 . S
C849 C848 1.294 . S
C849 C850 1.515 1_554 S
C849 H852 0.998 . S
C850 H820 0.950 . S
C850 C849 1.515 1_556 S
C850 C851 1.415 . S
C851 H821 0.950 . S
C851 C846 1.363 . S
C851 C850 1.415 . S
H852 C849 0.998 . S
H853 C834 0.913 . S
H854 C872 0.951 . S
H855 C874 0.951 . S
H856 C876 0.950 . S
H857 C877 0.950 . S
H858 C879 0.950 . S
H859 C882 0.950 . S
H860 C883 0.950 . S
H861 C885 0.950 . S
H862 C886 0.950 . S
H863 C887 0.951 . S
H864 C889 0.951 . S
H865 C891 0.950 . S
H866 C892 0.950 . S
H867 C894 0.950 . S
H868 C897 0.950 . S
H869 C898 0.950 . S
H870 C900 0.950 . S
H871 C901 0.950 . S
C872 H854 0.951 . S
C872 C873 1.366 . S
C872 C874 1.388 . S
C873 C872 1.366 . S
C873 C877 1.385 . S
C874 H855 0.951 . S
C874 C872 1.388 . S
C874 C875 1.366 . S
C875 C874 1.366 . S
C875 C876 1.414 . S
C875 C878 1.499 . S
C876 H856 0.950 . S
C876 C875 1.414 . S
C876 C877 1.374 . S
C877 H857 0.950 . S
C877 C873 1.385 . S
C877 C876 1.374 . S
C878 C875 1.499 . S
C878 C879 1.373 . S
C878 C880 1.389 . S
C879 H858 0.950 . S
C879 C878 1.373 . S
C879 C895 1.377 . S
C880 C878 1.389 . S
C880 C881 1.524 . S
C880 C894 1.377 . S
C881 C880 1.524 . S
C881 C882 1.397 . S
C881 C886 1.363 . S
C882 H859 0.950 . S
C882 C881 1.397 . S
C882 C883 1.334 . S
C883 H860 0.950 . S
C883 C882 1.334 . S
C883 C884 1.287 . S
C884 C883 1.287 . S
C884 C885 1.524 . S
C884 H903 0.913 . S
C885 H861 0.950 . S
C885 C884 1.524 . S
C885 C886 1.415 . S
C886 H862 0.950 . S
C886 C881 1.363 . S
C886 C885 1.415 . S
C887 H863 0.951 . S
C887 C888 1.366 . S
C887 C889 1.388 . S
C888 C887 1.366 . S
C888 C892 1.385 . S
C889 H864 0.951 . S
C889 C887 1.388 . S
C889 C890 1.366 . S
C890 C889 1.366 . S
C890 C891 1.414 . S
C890 C893 1.499 . S
C891 H865 0.950 . S
C891 C890 1.414 . S
C891 C892 1.374 . S
C892 H866 0.950 . S
C892 C888 1.385 . S
C892 C891 1.374 . S
C893 C890 1.499 . S
C893 C894 1.373 . S
C893 C895 1.389 . S
C894 H867 0.950 . S
C894 C880 1.377 . S
C894 C893 1.373 . S
C895 C879 1.377 . S
C895 C893 1.389 . S
C895 C896 1.524 . S
C896 C895 1.524 . S
C896 C897 1.397 . S
C896 C901 1.363 . S
C897 H868 0.950 . S
C897 C896 1.397 . S
C897 C898 1.334 . S
C898 H869 0.950 . S
C898 C897 1.334 . S
C898 C899 1.287 . S
C899 C898 1.287 . S
C899 C900 1.524 . S
C899 H902 0.999 . S
C900 H870 0.950 . S
C900 C899 1.524 . S
C900 C901 1.415 . S
C901 H871 0.950 . S
C901 C896 1.363 . S
C901 C900 1.415 . S
H902 C899 0.999 . S
H903 C884 0.913 . S
C123 C75 1.486 . S
C138 C5 1.478 . S
C173 C101 1.486 . S
C188 C18 1.478 . S
C223 C34 1.473 . S
C238 C86 1.473 . S
C273 C39 1.481 . S
C288 C52 1.480 . S
C323 C83 1.478 . S
C338 C10 1.486 . S
C373 C21 1.473 . S
C388 C60 1.473 . S
C423 C65 1.481 . S
C438 C26 1.480 . S
C473 C49 1.486 . S
C488 C96 1.478 . S
C523 C62 1.486 . S
C538 C70 1.478 . S
C573 C23 1.486 . S
C588 C31 1.478 . S
C623 C44 1.478 . S
C638 C36 1.486 . S
C673 C47 1.473 . S
C688 C8 1.473 . S
C723 C13 1.480 . S
C738 C0 1.481 . S
C773 C91 1.480 . S
C788 C78 1.481 . S
C823 C57 1.478 . S
C838 C88 1.486 . S
C873 C73 1.473 . S
C888 C99 1.473 . S
