# Generated by pormake.
# Topology pcl, (4)-cn, num edge types: 1
# Building blocks:
#     Node 0, Type 0, BuildingBlock: ICAMEG_clean_sbu_1, # of connection points: 4
#     Node 1, Type 0, BuildingBlock: ICAMEG_clean_sbu_1, # of connection points: 4
#     Node 2, Type 0, BuildingBlock: ICAMEG_clean_sbu_1, # of connection points: 4
#     Node 3, Type 0, BuildingBlock: ICAMEG_clean_sbu_1, # of connection points: 4
#     Node 4, Type 0, BuildingBlock: ICAMEG_clean_sbu_1, # of connection points: 4
#     Node 5, Type 0, BuildingBlock: ICAMEG_clean_sbu_1, # of connection points: 4
#     Node 6, Type 0, BuildingBlock: ICAMEG_clean_sbu_1, # of connection points: 4
#     Node 7, Type 0, BuildingBlock: ICAMEG_clean_sbu_1, # of connection points: 4
#     Node 8, Type 0, BuildingBlock: ICAMEG_clean_sbu_1, # of connection points: 4
#     Node 9, Type 0, BuildingBlock: ICAMEG_clean_sbu_1, # of connection points: 4
#     Node 10, Type 0, BuildingBlock: ICAMEG_clean_sbu_1, # of connection points: 4
#     Node 11, Type 0, BuildingBlock: ICAMEG_clean_sbu_1, # of connection points: 4
#     Node 12, Type 0, BuildingBlock: ICAMEG_clean_sbu_1, # of connection points: 4
#     Node 13, Type 0, BuildingBlock: ICAMEG_clean_sbu_1, # of connection points: 4
#     Node 14, Type 0, BuildingBlock: ICAMEG_clean_sbu_1, # of connection points: 4
#     Node 15, Type 0, BuildingBlock: ICAMEG_clean_sbu_1, # of connection points: 4
#     Edge 16, Type (0, 0), BuildingBlock: CIFDUS_clean_linker_0, # of connection points: 2
#     Edge 17, Type (0, 0), BuildingBlock: CIFDUS_clean_linker_0, # of connection points: 2
#     Edge 18, Type (0, 0), BuildingBlock: CIFDUS_clean_linker_0, # of connection points: 2
#     Edge 19, Type (0, 0), BuildingBlock: CIFDUS_clean_linker_0, # of connection points: 2
#     Edge 20, Type (0, 0), BuildingBlock: CIFDUS_clean_linker_0, # of connection points: 2
#     Edge 21, Type (0, 0), BuildingBlock: CIFDUS_clean_linker_0, # of connection points: 2
#     Edge 22, Type (0, 0), BuildingBlock: CIFDUS_clean_linker_0, # of connection points: 2
#     Edge 23, Type (0, 0), BuildingBlock: CIFDUS_clean_linker_0, # of connection points: 2
#     Edge 24, Type (0, 0), BuildingBlock: CIFDUS_clean_linker_0, # of connection points: 2
#     Edge 25, Type (0, 0), BuildingBlock: CIFDUS_clean_linker_0, # of connection points: 2
#     Edge 26, Type (0, 0), BuildingBlock: CIFDUS_clean_linker_0, # of connection points: 2
#     Edge 27, Type (0, 0), BuildingBlock: CIFDUS_clean_linker_0, # of connection points: 2
#     Edge 28, Type (0, 0), BuildingBlock: CIFDUS_clean_linker_0, # of connection points: 2
#     Edge 29, Type (0, 0), BuildingBlock: CIFDUS_clean_linker_0, # of connection points: 2
#     Edge 30, Type (0, 0), BuildingBlock: CIFDUS_clean_linker_0, # of connection points: 2
#     Edge 31, Type (0, 0), BuildingBlock: CIFDUS_clean_linker_0, # of connection points: 2
#     Edge 32, Type (0, 0), BuildingBlock: CIFDUS_clean_linker_0, # of connection points: 2
#     Edge 33, Type (0, 0), BuildingBlock: CIFDUS_clean_linker_0, # of connection points: 2
#     Edge 34, Type (0, 0), BuildingBlock: CIFDUS_clean_linker_0, # of connection points: 2
#     Edge 35, Type (0, 0), BuildingBlock: CIFDUS_clean_linker_0, # of connection points: 2
#     Edge 36, Type (0, 0), BuildingBlock: CIFDUS_clean_linker_0, # of connection points: 2
#     Edge 37, Type (0, 0), BuildingBlock: CIFDUS_clean_linker_0, # of connection points: 2
#     Edge 38, Type (0, 0), BuildingBlock: CIFDUS_clean_linker_0, # of connection points: 2
#     Edge 39, Type (0, 0), BuildingBlock: CIFDUS_clean_linker_0, # of connection points: 2
#     Edge 40, Type (0, 0), BuildingBlock: CIFDUS_clean_linker_0, # of connection points: 2
#     Edge 41, Type (0, 0), BuildingBlock: CIFDUS_clean_linker_0, # of connection points: 2
#     Edge 42, Type (0, 0), BuildingBlock: CIFDUS_clean_linker_0, # of connection points: 2
#     Edge 43, Type (0, 0), BuildingBlock: CIFDUS_clean_linker_0, # of connection points: 2
#     Edge 44, Type (0, 0), BuildingBlock: CIFDUS_clean_linker_0, # of connection points: 2
#     Edge 45, Type (0, 0), BuildingBlock: CIFDUS_clean_linker_0, # of connection points: 2
#     Edge 46, Type (0, 0), BuildingBlock: CIFDUS_clean_linker_0, # of connection points: 2
#     Edge 47, Type (0, 0), BuildingBlock: CIFDUS_clean_linker_0, # of connection points: 2
# Relax obj value: 0.092
# Max RMSD: 0.121
# Mean RMSD: 0.117
data_MOF--net-pcl--node1-ICAMEG_clean_sbu_1--edge1-CIFDUS_clean_linker_0
_symmetry_space_group_name_H-M    P1
_symmetry_Int_Tables_number       1
_symmetry_cell_setting            triclinic
loop_
_symmetry_equiv_pos_as_xyz
'x, y, z'
_cell_length_a     48.639534
_cell_length_b     38.316676
_cell_length_c     41.383771
_cell_angle_alpha  90.226948
_cell_angle_beta   89.849748
_cell_angle_gamma 90.083218
loop_
_atom_site_label
_atom_site_type_symbol
_atom_site_fract_x
_atom_site_fract_y
_atom_site_fract_z
_atom_type_partial_charge
Co0 Co 0.14379 0.3757 0.12115 0.0
Co1 Co 0.13611 0.29542 0.08269 0.0
O2 O 0.15254 0.34226 0.08654 0.0
C3 C 0.13349 0.41653 0.06144 0.0
O4 O 0.12354 0.38836 0.0476 0.0
C5 C 0.1967 0.28173 0.08191 0.0
O6 O 0.19932 0.30426 0.1057 0.0
O7 O 0.14281 0.28498 0.12964 0.0
O8 O 0.14452 0.33785 0.15334 0.0
H9 H 0.07385 0.19703 0.11573 0.0
H10 H 0.19069 0.38943 0.07724 0.0
O11 O 0.14289 0.4154 0.09004 0.0
H12 H 0.23089 0.38349 0.18635 0.0
H13 H 0.15215 0.48947 0.18186 0.0
H14 H 0.10666 0.37443 0.17806 0.0
H15 H 0.18093 0.37665 0.1785 0.0
H16 H 0.16259 0.44779 0.13797 0.0
O17 O 0.17292 0.27487 0.07067 0.0
H18 H 0.09473 0.25557 0.12013 0.0
H19 H 0.14304 0.23605 0.03635 0.0
H20 H 0.09585 0.41518 0.22258 0.0
H21 H 0.24076 0.39678 0.084 0.0
H22 H 0.11872 0.47315 0.22471 0.0
H23 H 0.26117 0.39369 0.13887 0.0
O24 O 0.10345 0.36863 0.11484 0.0
H25 H 0.16174 0.33877 0.97217 0.0
H26 H 0.08831 0.28616 0.03835 0.0
H27 H 0.07925 0.29993 0.98121 0.0
H28 H 0.11618 0.32637 0.94767 0.0
H29 H 0.16973 0.32502 0.02955 0.0
H30 H 0.12291 0.17719 0.03126 0.0
H31 H 0.08795 0.15739 0.07105 0.0
O32 O 0.09888 0.31481 0.09347 0.0
C33 C 0.14472 0.30475 0.15446 0.0
C34 C 0.08902 0.20539 0.0982 0.0
C35 C 0.11659 0.19423 0.05082 0.0
N36 N 0.11998 0.24928 0.07845 0.0
C37 C 0.10086 0.23853 0.10052 0.0
C38 C 0.12799 0.22755 0.05391 0.0
C39 C 0.09696 0.18315 0.07314 0.0
C40 C 0.19941 0.38838 0.10121 0.0
N41 N 0.18292 0.38268 0.12743 0.0
C42 C 0.22778 0.39243 0.10488 0.0
C43 C 0.23922 0.39064 0.13567 0.0
C44 C 0.22225 0.3849 0.16232 0.0
C45 C 0.19398 0.38094 0.15771 0.0
C46 C 0.14208 0.46427 0.18123 0.0
C47 C 0.11676 0.39957 0.17887 0.0
C48 C 0.14784 0.4406 0.15637 0.0
N49 N 0.13536 0.40861 0.15554 0.0
C50 C 0.11051 0.42256 0.2041 0.0
C51 C 0.12333 0.45509 0.20527 0.0
C52 C 0.0888 0.34318 0.10471 0.0
C53 C 0.14548 0.32728 0.98653 0.0
C54 C 0.10432 0.29806 0.02404 0.0
C55 C 0.09916 0.30559 0.99163 0.0
C56 C 0.1199 0.32037 0.97282 0.0
N57 N 0.12941 0.30506 0.03737 0.0
C58 C 0.1499 0.31936 0.01902 0.0
Co59 Co 0.8779 0.62978 0.61454 0.0
Co60 Co 0.88166 0.71584 0.59392 0.0
O61 O 0.86652 0.66873 0.58715 0.0
C62 C 0.88361 0.59861 0.54904 0.0
O63 O 0.89534 0.62767 0.53942 0.0
C64 C 0.82142 0.72778 0.58644 0.0
O65 O 0.81729 0.70247 0.6072 0.0
O66 O 0.86866 0.71555 0.63993 0.0
O67 O 0.88206 0.66148 0.65284 0.0
H68 H 0.93387 0.80864 0.6542 0.0
H69 H 0.82621 0.62348 0.57756 0.0
O70 O 0.87427 0.59608 0.57768 0.0
H71 H 0.79912 0.61108 0.69187 0.0
H72 H 0.87436 0.50678 0.65694 0.0
H73 H 0.92208 0.62024 0.66289 0.0
H74 H 0.84775 0.61964 0.67687 0.0
H75 H 0.85924 0.5561 0.62329 0.0
O76 O 0.84587 0.73685 0.57926 0.0
H77 H 0.91562 0.74939 0.64473 0.0
H78 H 0.87815 0.78284 0.5576 0.0
H79 H 0.93765 0.57176 0.69728 0.0
H80 H 0.77732 0.61459 0.59146 0.0
H81 H 0.91374 0.5145 0.6944 0.0
H82 H 0.76352 0.60842 0.64899 0.0
O83 O 0.91673 0.63821 0.60212 0.0
H84 H 0.87208 0.696 0.47438 0.0
H85 H 0.93476 0.73353 0.56133 0.0
H86 H 0.9515 0.73194 0.50508 0.0
H87 H 0.92004 0.71317 0.46111 0.0
H88 H 0.85627 0.69751 0.53104 0.0
H89 H 0.89581 0.8425 0.56627 0.0
H90 H 0.92397 0.85568 0.6148 0.0
O91 O 0.91844 0.69647 0.60774 0.0
C92 C 0.87455 0.69225 0.66075 0.0
C93 C 0.92167 0.8032 0.63292 0.0
C94 C 0.90028 0.82221 0.58359 0.0
N95 N 0.89596 0.76261 0.60057 0.0
C96 C 0.91134 0.76968 0.6274 0.0
C97 C 0.89028 0.7884 0.57887 0.0
C98 C 0.91609 0.82959 0.61082 0.0
C99 C 0.82035 0.62049 0.60261 0.0
N100 N 0.83979 0.62196 0.62634 0.0
C101 C 0.79265 0.6156 0.61035 0.0
C102 C 0.78491 0.6122 0.64264 0.0
C103 C 0.80487 0.61371 0.66671 0.0
C104 C 0.83237 0.61868 0.65807 0.0
C105 C 0.8849 0.53162 0.65847 0.0
C106 C 0.91143 0.5955 0.66169 0.0
C107 C 0.87647 0.55963 0.63943 0.0
N108 N 0.88961 0.59113 0.64134 0.0
C109 C 0.9204 0.5681 0.68114 0.0
C110 C 0.907 0.53598 0.67949 0.0
C111 C 0.93001 0.66673 0.60442 0.0
C112 C 0.88595 0.70432 0.49331 0.0
C113 C 0.92096 0.72518 0.54238 0.0
C114 C 0.93055 0.72443 0.51054 0.0
C115 C 0.91288 0.71391 0.48589 0.0
N116 N 0.89451 0.71573 0.54947 0.0
C117 C 0.87709 0.70538 0.52542 0.0
Co118 Co 0.14669 0.62424 0.88705 0.0
Co119 Co 0.13848 0.70589 0.92239 0.0
O120 O 0.15602 0.65955 0.91998 0.0
C121 C 0.13939 0.58402 0.9474 0.0
O122 O 0.12666 0.61111 0.95989 0.0
C123 C 0.19912 0.71879 0.937 0.0
O124 O 0.20495 0.68562 0.93328 0.0
O125 O 0.14579 0.71444 0.87535 0.0
O126 O 0.14267 0.66077 0.85372 0.0
H127 H 0.07397 0.79942 0.8846 0.0
H128 H 0.197 0.61247 0.92567 0.0
O129 O 0.14991 0.58576 0.91928 0.0
H130 H 0.22903 0.62289 0.81296 0.0
H131 H 0.1572 0.50946 0.82853 0.0
H132 H 0.10514 0.6196 0.83482 0.0
H133 H 0.17969 0.62722 0.82612 0.0
H134 H 0.16848 0.55373 0.86986 0.0
O135 O 0.17462 0.72988 0.93293 0.0
H136 H 0.09642 0.74174 0.88304 0.0
H137 H 0.14348 0.76803 0.96598 0.0
H138 H 0.09341 0.57626 0.79287 0.0
H139 H 0.24653 0.60747 0.91353 0.0
H140 H 0.11954 0.52071 0.78951 0.0
H141 H 0.26283 0.61284 0.85683 0.0
O142 O 0.10693 0.62826 0.89733 0.0
H143 H 0.16112 0.66512 0.03501 0.0
H144 H 0.09033 0.71763 0.96565 0.0
H145 H 0.07989 0.70653 0.02291 0.0
H146 H 0.11549 0.68023 0.05814 0.0
H147 H 0.17048 0.67607 0.97763 0.0
H148 H 0.12179 0.82613 0.9682 0.0
H149 H 0.08666 0.84208 0.9274 0.0
O150 O 0.10156 0.68428 0.91243 0.0
C151 C 0.14422 0.69375 0.85122 0.0
C152 C 0.08919 0.79274 0.90257 0.0
C153 C 0.11607 0.80775 0.94945 0.0
N154 N 0.12109 0.75143 0.9245 0.0
C155 C 0.1019 0.76008 0.90186 0.0
C156 C 0.12836 0.77486 0.94799 0.0
C157 C 0.09635 0.81668 0.92657 0.0
C158 C 0.20393 0.61455 0.90092 0.0
N159 N 0.18548 0.62024 0.87669 0.0
C160 C 0.232 0.61183 0.8942 0.0
C161 C 0.24114 0.61489 0.86239 0.0
C162 C 0.22219 0.62058 0.83777 0.0
C163 C 0.19428 0.6232 0.84541 0.0
C164 C 0.1457 0.5336 0.8297 0.0
C165 C 0.11672 0.5956 0.8334 0.0
C166 C 0.15195 0.55873 0.8531 0.0
N167 N 0.13763 0.58937 0.8546 0.0
C168 C 0.10992 0.5711 0.80965 0.0
C169 C 0.12458 0.53992 0.80781 0.0
C170 C 0.09188 0.65421 0.90502 0.0
C171 C 0.1455 0.67683 0.01998 0.0
C172 C 0.10593 0.7061 0.98068 0.0
C173 C 0.09991 0.69995 0.01318 0.0
C174 C 0.11988 0.68523 0.03293 0.0
N175 N 0.13119 0.69807 0.96812 0.0
C176 C 0.15078 0.6834 0.98737 0.0
Co177 Co 0.88539 0.3801 0.39574 0.0
Co178 Co 0.88362 0.29456 0.42023 0.0
O179 O 0.87048 0.34298 0.42334 0.0
C180 C 0.88842 0.41268 0.46095 0.0
O181 O 0.89826 0.38321 0.4721 0.0
C182 C 0.82195 0.2867 0.42362 0.0
O183 O 0.81902 0.3131 0.4038 0.0
O184 O 0.87526 0.29334 0.37261 0.0
O185 O 0.88989 0.3469 0.359 0.0
H186 H 0.93722 0.19604 0.37038 0.0
H187 H 0.8324 0.39193 0.42939 0.0
O188 O 0.88152 0.41519 0.43144 0.0
H189 H 0.81137 0.40131 0.31324 0.0
H190 H 0.88957 0.50172 0.35019 0.0
H191 H 0.93206 0.38497 0.34966 0.0
H192 H 0.85869 0.38966 0.33146 0.0
H193 H 0.87065 0.45461 0.38408 0.0
O194 O 0.8459 0.27616 0.43108 0.0
H195 H 0.92069 0.25665 0.37536 0.0
H196 H 0.87378 0.2295 0.45828 0.0
H197 H 0.95148 0.43122 0.31518 0.0
H198 H 0.78481 0.40403 0.41224 0.0
H199 H 0.9302 0.49012 0.3153 0.0
H200 H 0.77405 0.40868 0.35378 0.0
O201 O 0.92347 0.36934 0.41011 0.0
H202 H 0.86303 0.32233 0.53655 0.0
H203 H 0.93132 0.27306 0.46106 0.0
H204 H 0.94213 0.27629 0.51913 0.0
H205 H 0.90778 0.30099 0.55738 0.0
H206 H 0.8533 0.31907 0.47819 0.0
H207 H 0.88956 0.16856 0.45398 0.0
H208 H 0.92162 0.15151 0.40986 0.0
O209 O 0.92224 0.31081 0.41085 0.0
C210 C 0.88296 0.3158 0.35168 0.0
C211 C 0.92329 0.20316 0.38974 0.0
C212 C 0.8965 0.18772 0.43662 0.0
N213 N 0.89635 0.24667 0.41712 0.0
C214 C 0.9139 0.23746 0.39272 0.0
C215 C 0.88755 0.22226 0.43885 0.0
C216 C 0.91451 0.17818 0.41188 0.0
C217 C 0.8279 0.39427 0.40393 0.0
N218 N 0.8483 0.39023 0.38148 0.0
C219 C 0.80091 0.40098 0.39435 0.0
C220 C 0.79488 0.40352 0.36154 0.0
C221 C 0.8158 0.39936 0.33878 0.0
C222 C 0.84254 0.39265 0.34925 0.0
C223 C 0.89899 0.47615 0.34987 0.0
C224 C 0.92256 0.41044 0.34969 0.0
C225 C 0.8884 0.44937 0.36906 0.0
N226 N 0.90011 0.41696 0.36867 0.0
C227 C 0.93371 0.43657 0.33018 0.0
C228 C 0.92178 0.46962 0.33029 0.0
C229 C 0.93541 0.33974 0.41109 0.0
C230 C 0.87817 0.31151 0.52014 0.0
C231 C 0.91645 0.28422 0.47743 0.0
C232 C 0.92259 0.28578 0.51036 0.0
C233 C 0.90329 0.29959 0.5318 0.0
N234 N 0.8918 0.29605 0.46614 0.0
C235 C 0.87275 0.3095 0.48706 0.0
Co236 Co 0.87687 0.61884 0.90353 0.0
Co237 Co 0.87801 0.66997 0.97361 0.0
O238 O 0.86358 0.65879 0.92992 0.0
C239 C 0.87446 0.67767 0.85218 0.0
O240 O 0.86394 0.70209 0.87078 0.0
C241 C 0.8156 0.6793 0.98196 0.0
O242 O 0.81017 0.67315 0.95142 0.0
O243 O 0.87518 0.61995 0.98744 0.0
O244 O 0.87596 0.58813 0.94199 0.0
H245 H 0.94048 0.65141 0.06848 0.0
H246 H 0.82673 0.65814 0.88401 0.0
O247 O 0.87915 0.6471 0.86286 0.0
H248 H 0.79668 0.536 0.89536 0.0
H249 H 0.88104 0.54087 0.80524 0.0
H250 H 0.91813 0.56322 0.91418 0.0
H251 H 0.84486 0.55245 0.90546 0.0
H252 H 0.86393 0.59022 0.83795 0.0
O253 O 0.84018 0.67807 0.99253 0.0
H254 H 0.92162 0.63922 0.01432 0.0
H255 H 0.86539 0.7233 0.02464 0.0
H256 H 0.93559 0.51333 0.88242 0.0
H257 H 0.77849 0.64281 0.87318 0.0
H258 H 0.91704 0.50192 0.82751 0.0
H259 H 0.7631 0.58131 0.8789 0.0
O260 O 0.91616 0.63145 0.91179 0.0
H261 H 0.84623 0.78086 0.91998 0.0
H262 H 0.92036 0.72548 0.98223 0.0
H263 H 0.92518 0.78679 0.9657 0.0
H264 H 0.88783 0.81506 0.9345 0.0
H265 H 0.84254 0.71959 0.93643 0.0
H266 H 0.88343 0.7361 0.07903 0.0
H267 H 0.92134 0.70014 0.10123 0.0
O268 O 0.91633 0.66295 0.95757 0.0
C269 C 0.87507 0.59069 0.97258 0.0
C270 C 0.92402 0.66734 0.05902 0.0
C271 C 0.89196 0.71482 0.06498 0.0
N272 N 0.89257 0.68065 0.0162 0.0
C273 C 0.91332 0.66063 0.02833 0.0
C274 C 0.88177 0.70735 0.03419 0.0
C275 C 0.91325 0.69465 0.07741 0.0
C276 C 0.82043 0.6313 0.88605 0.0
N277 N 0.83884 0.60624 0.89488 0.0
C278 C 0.79296 0.62278 0.88012 0.0
C279 C 0.78432 0.58829 0.8834 0.0
C280 C 0.80314 0.56287 0.89265 0.0
C281 C 0.83042 0.57239 0.89842 0.0
C282 C 0.88924 0.54553 0.82916 0.0
C283 C 0.90979 0.55827 0.89041 0.0
C284 C 0.87968 0.57348 0.84778 0.0
N285 N 0.88987 0.57946 0.87807 0.0
C286 C 0.91983 0.53004 0.87249 0.0
C287 C 0.90943 0.52368 0.84167 0.0
C288 C 0.92864 0.64862 0.93378 0.0
C289 C 0.86255 0.76895 0.9338 0.0
C290 C 0.90404 0.73741 0.96858 0.0
C291 C 0.90687 0.77225 0.95934 0.0
C292 C 0.88592 0.78809 0.94188 0.0
N293 N 0.88092 0.7188 0.96091 0.0
C294 C 0.86045 0.73416 0.94349 0.0
Co295 Co 0.15487 0.38304 0.39074 0.0
Co296 Co 0.1454 0.33065 0.45758 0.0
O297 O 0.16317 0.34181 0.41653 0.0
C298 C 0.14633 0.32749 0.33994 0.0
O299 O 0.12628 0.31346 0.35679 0.0
C300 C 0.19486 0.32301 0.49985 0.0
O301 O 0.18537 0.3485 0.518 0.0
O302 O 0.15272 0.37889 0.47427 0.0
O303 O 0.1514 0.4128 0.43021 0.0
H304 H 0.0828 0.35312 0.55209 0.0
H305 H 0.20494 0.34127 0.3773 0.0
O306 O 0.159 0.35438 0.35038 0.0
H307 H 0.23826 0.46047 0.39999 0.0
H308 H 0.16561 0.46142 0.29407 0.0
H309 H 0.11552 0.44189 0.39618 0.0
H310 H 0.18867 0.44716 0.40118 0.0
H311 H 0.17664 0.41095 0.32844 0.0
O312 O 0.182 0.31385 0.47431 0.0
H313 H 0.10473 0.36608 0.49966 0.0
H314 H 0.14948 0.27111 0.50386 0.0
H315 H 0.10407 0.49295 0.36274 0.0
H316 H 0.25473 0.35351 0.37554 0.0
H317 H 0.12914 0.50291 0.31121 0.0
H318 H 0.27168 0.41347 0.38698 0.0
O319 O 0.11464 0.37283 0.39273 0.0
H320 H 0.16946 0.21931 0.3995 0.0
H321 H 0.09673 0.28317 0.458 0.0
H322 H 0.08674 0.22479 0.43562 0.0
H323 H 0.12332 0.19239 0.40619 0.0
H324 H 0.1784 0.27796 0.42193 0.0
H325 H 0.12815 0.2572 0.55641 0.0
H326 H 0.0945 0.29834 0.58083 0.0
O327 O 0.10866 0.34605 0.44069 0.0
C328 C 0.15252 0.4088 0.46074 0.0
C329 C 0.09739 0.33495 0.54167 0.0
C330 C 0.12286 0.28114 0.54411 0.0
N331 N 0.12827 0.31934 0.49867 0.0
C332 C 0.10983 0.34213 0.51197 0.0
C333 C 0.1349 0.28918 0.51438 0.0
C334 C 0.10398 0.30423 0.55779 0.0
C335 C 0.21215 0.36747 0.38216 0.0
N336 N 0.1939 0.39348 0.38926 0.0
C337 C 0.24037 0.37422 0.3812 0.0
C338 C 0.24987 0.40786 0.38764 0.0
C339 C 0.23114 0.43424 0.39497 0.0
C340 C 0.20307 0.42652 0.39571 0.0
C341 C 0.15454 0.45736 0.31647 0.0
C342 C 0.12664 0.44616 0.3739 0.0
C343 C 0.16063 0.42875 0.336 0.0
N344 N 0.14675 0.42348 0.36434 0.0
C345 C 0.12003 0.47508 0.35503 0.0
C346 C 0.13409 0.48064 0.32611 0.0
C347 C 0.09937 0.36015 0.41496 0.0
C348 C 0.15335 0.23317 0.41225 0.0
C349 C 0.11262 0.26941 0.44491 0.0
C350 C 0.10691 0.23626 0.43246 0.0
C351 C 0.12745 0.21809 0.41599 0.0
N352 N 0.13805 0.28406 0.44111 0.0
C353 C 0.1583 0.26637 0.42505 0.0
Co354 Co 0.87328 0.36754 0.11427 0.0
Co355 Co 0.87396 0.31806 0.04377 0.0
O356 O 0.8596 0.32856 0.08739 0.0
C357 C 0.86531 0.30752 0.16237 0.0
O358 O 0.85505 0.28601 0.14081 0.0
C359 C 0.8134 0.32218 0.02952 0.0
O360 O 0.81197 0.35144 0.04608 0.0
O361 O 0.8688 0.36769 0.0301 0.0
O362 O 0.87506 0.39856 0.07568 0.0
H363 H 0.93272 0.34002 0.94591 0.0
H364 H 0.82009 0.33131 0.12922 0.0
O365 O 0.87258 0.33844 0.15477 0.0
H366 H 0.79684 0.45582 0.11945 0.0
H367 H 0.87716 0.44395 0.21358 0.0
H368 H 0.91678 0.42105 0.10576 0.0
H369 H 0.84459 0.43603 0.11226 0.0
H370 H 0.85929 0.39604 0.17962 0.0
O371 O 0.83613 0.30585 0.02746 0.0
H372 H 0.91453 0.35195 1.00053 0.0
H373 H 0.86351 0.26209 0.99474 0.0
H374 H 0.93504 0.46948 0.13878 0.0
H375 H 0.77224 0.34997 0.137 0.0
H376 H 0.91522 0.48116 0.19313 0.0
H377 H 0.76024 0.41269 0.1321 0.0
O378 O 0.91224 0.35286 0.10742 0.0
H379 H 0.84414 0.20525 0.09444 0.0
H380 H 0.9197 0.26621 0.03859 0.0
H381 H 0.92629 0.20545 0.05624 0.0
H382 H 0.88826 0.17449 0.08432 0.0
H383 H 0.83866 0.26626 0.07676 0.0
H384 H 0.88094 0.2494 0.93995 0.0
H385 H 0.91589 0.28844 0.91523 0.0
O386 O 0.91238 0.3287 0.058 0.0
C387 C 0.87168 0.39662 0.04521 0.0
C388 C 0.91754 0.32277 0.95645 0.0
C389 C 0.88845 0.27194 0.95309 0.0
N390 N 0.88806 0.30768 1.00088 0.0
C391 C 0.90721 0.32935 0.9874 0.0
C392 C 0.87859 0.27933 0.98409 0.0
C393 C 0.90807 0.29385 0.93924 0.0
C394 C 0.81534 0.35864 0.12767 0.0
N395 N 0.83546 0.38252 0.1211 0.0
C396 C 0.78805 0.36907 0.13182 0.0
C397 C 0.78131 0.40424 0.12899 0.0
C398 C 0.80182 0.42844 0.1219 0.0
C399 C 0.82887 0.41704 0.11787 0.0
C400 C 0.88593 0.43917 0.18991 0.0
C401 C 0.9079 0.42614 0.12928 0.0
C402 C 0.87595 0.41201 0.1706 0.0
N403 N 0.88686 0.40589 0.14062 0.0
C404 C 0.91839 0.45353 0.14791 0.0
C405 C 0.90728 0.46004 0.17842 0.0
C406 C 0.9248 0.33999 0.08307 0.0
C407 C 0.86088 0.21847 0.08228 0.0
C408 C 0.90326 0.25313 0.05121 0.0
C409 C 0.90701 0.21861 0.06094 0.0
C410 C 0.88565 0.20124 0.07663 0.0
N411 N 0.87895 0.26992 0.05695 0.0
C412 C 0.85788 0.25299 0.07217 0.0
Co413 Co 0.14237 0.62484 0.61309 0.0
Co414 Co 0.14277 0.67554 0.54445 0.0
O415 O 0.15489 0.66581 0.58887 0.0
C416 C 0.143 0.68383 0.66321 0.0
O417 O 0.15278 0.70741 0.64337 0.0
C418 C 0.1968 0.6866 0.51159 0.0
O419 O 0.19074 0.66037 0.49236 0.0
O420 O 0.15436 0.62798 0.53025 0.0
O421 O 0.14395 0.59509 0.57323 0.0
H422 H 0.0965 0.64809 0.43892 0.0
H423 H 0.19208 0.66449 0.63417 0.0
O424 O 0.13937 0.65228 0.65432 0.0
H425 H 0.22303 0.54302 0.62008 0.0
H426 H 0.13746 0.54434 0.70895 0.0
H427 H 0.10194 0.56866 0.59983 0.0
H428 H 0.17483 0.55902 0.60977 0.0
H429 H 0.15455 0.59487 0.67804 0.0
O430 O 0.18054 0.69483 0.5347 0.0
H431 H 0.11096 0.63672 0.49498 0.0
H432 H 0.15039 0.73561 0.49939 0.0
H433 H 0.08457 0.51755 0.62971 0.0
H434 H 0.24032 0.64959 0.64516 0.0
H435 H 0.10233 0.50517 0.6847 0.0
H436 H 0.25615 0.58843 0.63812 0.0
O437 O 0.10361 0.63757 0.60443 0.0
H438 H 0.15466 0.79106 0.60075 0.0
H439 H 0.09143 0.71752 0.53704 0.0
H440 H 0.07621 0.77556 0.55558 0.0
H441 H 0.10796 0.81285 0.58759 0.0
H442 H 0.16892 0.73262 0.58214 0.0
H443 H 0.13643 0.748 0.44335 0.0
H444 H 0.10926 0.70407 0.41274 0.0
O445 O 0.10465 0.65736 0.55344 0.0
C446 C 0.15074 0.59838 0.54362 0.0
C447 C 0.10831 0.66746 0.45202 0.0
C448 C 0.13072 0.72352 0.4545 0.0
N449 N 0.13144 0.68549 0.50047 0.0
C450 C 0.11652 0.66118 0.48378 0.0
C451 C 0.13858 0.71635 0.48622 0.0
C452 C 0.11548 0.69886 0.43734 0.0
C453 C 0.19858 0.63779 0.63147 0.0
N454 N 0.1804 0.61263 0.62189 0.0
C455 C 0.22605 0.62951 0.63754 0.0
C456 C 0.23493 0.59522 0.63352 0.0
C457 C 0.21636 0.56973 0.6234 0.0
C458 C 0.18907 0.57899 0.61756 0.0
C459 C 0.12963 0.54941 0.68497 0.0
C460 C 0.10995 0.56324 0.62363 0.0
C461 C 0.13917 0.57803 0.66738 0.0
N462 N 0.12943 0.58452 0.63702 0.0
C463 C 0.09997 0.53435 0.64048 0.0
C464 C 0.10992 0.52744 0.67135 0.0
C465 C 0.09173 0.64738 0.57867 0.0
C466 C 0.14065 0.77508 0.58679 0.0
C467 C 0.1053 0.7334 0.55121 0.0
C468 C 0.0966 0.76634 0.56151 0.0
C469 C 0.11443 0.78727 0.57943 0.0
N470 N 0.13106 0.72161 0.55853 0.0
C471 C 0.14864 0.742 0.57608 0.0
Co472 Co 0.63574 0.88635 0.12676 0.0
Co473 Co 0.64026 0.80608 0.09123 0.0
O474 O 0.65182 0.85504 0.09434 0.0
C475 C 0.63203 0.92841 0.06704 0.0
O476 O 0.62265 0.90054 0.05214 0.0
C477 C 0.69405 0.7685 0.0846 0.0
O478 O 0.68762 0.74991 0.11014 0.0
O479 O 0.65094 0.799 0.13776 0.0
O480 O 0.63188 0.84746 0.15831 0.0
H481 H 0.59367 0.69711 0.13058 0.0
H482 H 0.689 0.90477 0.09654 0.0
O483 O 0.63902 0.92681 0.09658 0.0
H484 H 0.70763 0.89871 0.21347 0.0
H485 H 0.62713 0.99875 0.18953 0.0
H486 H 0.5885 0.88116 0.17196 0.0
H487 H 0.66099 0.88789 0.19251 0.0
H488 H 0.64777 0.95889 0.14933 0.0
O489 O 0.67852 0.79364 0.07596 0.0
H490 H 0.60797 0.75886 0.1331 0.0
H491 H 0.64901 0.74865 0.04285 0.0
H492 H 0.5674 0.92002 0.21262 0.0
H493 H 0.73596 0.91617 0.11651 0.0
H494 H 0.58674 0.97929 0.22165 0.0
H495 H 0.7455 0.9131 0.17537 0.0
O496 O 0.59853 0.87608 0.10977 0.0
H497 H 0.65468 0.85195 0.97883 0.0
H498 H 0.59123 0.78835 0.05065 0.0
H499 H 0.57772 0.79959 0.99433 0.0
H500 H 0.60962 0.83149 0.9579 0.0
H501 H 0.66715 0.84068 0.03552 0.0
H502 H 0.63525 0.6868 0.03941 0.0
H503 H 0.60735 0.66064 0.08348 0.0
O504 O 0.60124 0.81792 0.10455 0.0
C505 C 0.6423 0.81722 0.16167 0.0
C506 C 0.60584 0.7082 0.11123 0.0
C507 C 0.62918 0.70241 0.06007 0.0
N508 N 0.62936 0.75735 0.08822 0.0
C509 C 0.61401 0.74314 0.11254 0.0
C510 C 0.63694 0.73745 0.06218 0.0
C511 C 0.61352 0.68775 0.0848 0.0
C512 C 0.69299 0.90363 0.12219 0.0
N513 N 0.67228 0.89585 0.14332 0.0
C514 C 0.71962 0.91001 0.13336 0.0
C515 C 0.72496 0.90825 0.16639 0.0
C516 C 0.70373 0.90017 0.18778 0.0
C517 C 0.67737 0.89397 0.17575 0.0
C518 C 0.61855 0.97296 0.18587 0.0
C519 C 0.59713 0.90684 0.17585 0.0
C520 C 0.6301 0.95031 0.16307 0.0
N521 N 0.61949 0.91761 0.15847 0.0
C522 C 0.58505 0.92877 0.19886 0.0
C523 C 0.59589 0.96202 0.20389 0.0
C524 C 0.58734 0.84629 0.10573 0.0
C525 C 0.64062 0.83797 0.99443 0.0
C526 C 0.60509 0.80257 0.03512 0.0
C527 C 0.5974 0.80869 1.00316 0.0
C528 C 0.61532 0.82654 0.98273 0.0
N529 N 0.62994 0.81387 0.04647 0.0
C530 C 0.64761 0.83137 0.02654 0.0
Co531 Co 0.39019 0.14116 0.61737 0.0
Co532 Co 0.38718 0.22693 0.59295 0.0
O533 O 0.37495 0.17804 0.58977 0.0
C534 C 0.39393 0.10938 0.55195 0.0
O535 O 0.40319 0.13925 0.54088 0.0
C536 C 0.32565 0.23019 0.57955 0.0
O537 O 0.32352 0.19608 0.58017 0.0
O538 O 0.37919 0.22728 0.64045 0.0
O539 O 0.39392 0.17409 0.6544 0.0
H540 H 0.44038 0.32577 0.64281 0.0
H541 H 0.33777 0.12622 0.58365 0.0
O542 O 0.38715 0.10635 0.58148 0.0
H543 H 0.31617 0.1174 0.69982 0.0
H544 H 0.39599 0.01942 0.66233 0.0
H545 H 0.43668 0.13736 0.66348 0.0
H546 H 0.36323 0.13114 0.68166 0.0
H547 H 0.37659 0.06615 0.62858 0.0
O548 O 0.34871 0.2451 0.58484 0.0
H549 H 0.4248 0.26477 0.63703 0.0
H550 H 0.37499 0.29272 0.55707 0.0
H551 H 0.45656 0.09149 0.69785 0.0
H552 H 0.29046 0.11196 0.60075 0.0
H553 H 0.43619 0.032 0.69742 0.0
H554 H 0.27939 0.10761 0.65923 0.0
O555 O 0.428 0.15295 0.60305 0.0
H556 H 0.36793 0.19849 0.47606 0.0
H557 H 0.43327 0.25281 0.55189 0.0
H558 H 0.44414 0.2517 0.49378 0.0
H559 H 0.41125 0.22456 0.45532 0.0
H560 H 0.35818 0.19959 0.5343 0.0
H561 H 0.38978 0.35407 0.56222 0.0
H562 H 0.42282 0.3709 0.60524 0.0
O563 O 0.42634 0.21144 0.60063 0.0
C564 C 0.38626 0.20492 0.6616 0.0
C565 C 0.42604 0.31874 0.62391 0.0
C566 C 0.3976 0.33463 0.57872 0.0
N567 N 0.39917 0.27513 0.59661 0.0
C568 C 0.41721 0.28423 0.62046 0.0
C569 C 0.38923 0.29987 0.57599 0.0
C570 C 0.41615 0.34406 0.60284 0.0
C571 C 0.33314 0.12418 0.60912 0.0
N572 N 0.35321 0.12972 0.63158 0.0
C573 C 0.3063 0.11618 0.61867 0.0
C574 C 0.3001 0.11379 0.65148 0.0
C575 C 0.32071 0.11933 0.67427 0.0
C576 C 0.34731 0.1273 0.66382 0.0
C577 C 0.40501 0.04525 0.6628 0.0
C578 C 0.42758 0.11161 0.66332 0.0
C579 C 0.39414 0.07181 0.64369 0.0
N580 N 0.40534 0.10456 0.64425 0.0
C581 C 0.43898 0.08571 0.68276 0.0
C582 C 0.42756 0.05234 0.68248 0.0
C583 C 0.43967 0.18265 0.60086 0.0
C584 C 0.38234 0.21063 0.49254 0.0
C585 C 0.41889 0.24081 0.53544 0.0
C586 C 0.42513 0.24036 0.50248 0.0
C587 C 0.40667 0.22516 0.48092 0.0
N588 N 0.39488 0.22673 0.54673 0.0
C589 C 0.37679 0.21161 0.52567 0.0
Co590 Co 0.63369 0.13451 0.89024 0.0
Co591 Co 0.636 0.21781 0.92016 0.0
O592 O 0.64927 0.16934 0.91996 0.0
C593 C 0.63217 0.09579 0.95236 0.0
O594 O 0.62202 0.12365 0.96658 0.0
C595 C 0.69759 0.2256 0.92311 0.0
O596 O 0.7002 0.20085 0.90129 0.0
O597 O 0.64454 0.222 0.8727 0.0
O598 O 0.6277 0.17041 0.85636 0.0
H599 H 0.5823 0.31924 0.87697 0.0
H600 H 0.68791 0.12064 0.91979 0.0
O601 O 0.63899 0.09667 0.9227 0.0
H602 H 0.7047 0.12117 0.80221 0.0
H603 H 0.62845 0.01726 0.83508 0.0
H604 H 0.58532 0.13302 0.84672 0.0
H605 H 0.65803 0.13046 0.82391 0.0
H606 H 0.6484 0.06151 0.87158 0.0
O607 O 0.67374 0.2355 0.93192 0.0
H608 H 0.59888 0.25845 0.87804 0.0
H609 H 0.64586 0.2803 0.96212 0.0
H610 H 0.56482 0.08964 0.80978 0.0
H611 H 0.73491 0.11074 0.89909 0.0
H612 H 0.58642 0.03126 0.80376 0.0
H613 H 0.74353 0.11111 0.8399 0.0
O614 O 0.59629 0.14367 0.90772 0.0
H615 H 0.65644 0.18228 0.03432 0.0
H616 H 0.58822 0.23654 0.9625 0.0
H617 H 0.57738 0.22946 0.02031 0.0
H618 H 0.61168 0.20223 0.0567 0.0
H619 H 0.66624 0.18946 0.97624 0.0
H620 H 0.63003 0.34138 0.96175 0.0
H621 H 0.59791 0.36118 0.91903 0.0
O622 O 0.59723 0.20211 0.9102 0.0
C623 C 0.63603 0.20126 0.85062 0.0
C624 C 0.59625 0.31091 0.89574 0.0
C625 C 0.62307 0.32335 0.94329 0.0
N626 N 0.62324 0.26578 0.92016 0.0
C627 C 0.60567 0.27651 0.89651 0.0
C628 C 0.63206 0.28875 0.9433 0.0
C629 C 0.60504 0.33444 0.91933 0.0
C630 C 0.69149 0.12046 0.894 0.0
N631 N 0.67026 0.12603 0.87311 0.0
C632 C 0.71814 0.11499 0.88242 0.0
C633 C 0.72298 0.11526 0.84921 0.0
C634 C 0.70121 0.12094 0.82805 0.0
C635 C 0.67483 0.12631 0.8405 0.0
C636 C 0.61887 0.04261 0.83746 0.0
C637 C 0.59491 0.10774 0.84415 0.0
C638 C 0.63003 0.06776 0.85816 0.0
N639 N 0.61812 0.0999 0.86118 0.0
C640 C 0.58318 0.08325 0.82323 0.0
C641 C 0.59529 0.05049 0.81989 0.0
C642 C 0.58422 0.17304 0.91058 0.0
C643 C 0.64133 0.1942 0.01872 0.0
C644 C 0.60312 0.22437 0.97807 0.0
C645 C 0.59694 0.22059 0.01084 0.0
C646 C 0.6162 0.20535 0.03125 0.0
N647 N 0.62778 0.21332 0.96592 0.0
C648 C 0.64679 0.19842 0.98582 0.0
Co649 Co 0.37901 0.88989 0.40103 0.0
Co650 Co 0.38711 0.80582 0.43104 0.0
O651 O 0.37013 0.85248 0.43186 0.0
C652 C 0.38899 0.92362 0.46425 0.0
O653 O 0.40078 0.89457 0.47358 0.0
C654 C 0.32623 0.79325 0.44348 0.0
O655 O 0.32084 0.82658 0.44043 0.0
O656 O 0.37982 0.80069 0.38363 0.0
O657 O 0.38063 0.85571 0.36499 0.0
H658 H 0.45056 0.71393 0.38673 0.0
H659 H 0.33079 0.90096 0.44385 0.0
O660 O 0.37826 0.9257 0.43633 0.0
H661 H 0.29368 0.90011 0.33307 0.0
H662 H 0.36917 0.00964 0.35268 0.0
H663 H 0.4181 0.89725 0.34631 0.0
H664 H 0.34334 0.89257 0.3425 0.0
H665 H 0.35849 0.96241 0.39104 0.0
O666 O 0.35073 0.78188 0.44007 0.0
H667 H 0.42877 0.772 0.38911 0.0
H668 H 0.38144 0.74099 0.47052 0.0
H669 H 0.42922 0.94358 0.3072 0.0
H670 H 0.28103 0.90919 0.43547 0.0
H671 H 0.40466 1.0003 0.31025 0.0
H672 H 0.26216 0.90861 0.37975 0.0
O673 O 0.41909 0.88371 0.40806 0.0
H674 H 0.36398 0.83789 0.54619 0.0
H675 H 0.43523 0.79117 0.47312 0.0
H676 H 0.44547 0.79817 0.53104 0.0
H677 H 0.40965 0.82155 0.56809 0.0
H678 H 0.3548 0.83102 0.48814 0.0
H679 H 0.40248 0.68249 0.46878 0.0
H680 H 0.43741 0.66871 0.42675 0.0
O681 O 0.42414 0.82746 0.42233 0.0
C682 C 0.3798 0.82284 0.36072 0.0
C683 C 0.43543 0.71966 0.40521 0.0
C684 C 0.40841 0.70199 0.45123 0.0
N685 N 0.40401 0.75996 0.43004 0.0
C686 C 0.42309 0.75252 0.40674 0.0
C687 C 0.39649 0.73513 0.45202 0.0
C688 C 0.42802 0.69428 0.42766 0.0
C689 C 0.32277 0.90103 0.41952 0.0
N690 N 0.33995 0.89618 0.39373 0.0
C691 C 0.29456 0.90554 0.41493 0.0
C692 C 0.28398 0.90515 0.38367 0.0
C693 C 0.30165 0.90032 0.35747 0.0
C694 C 0.32974 0.89586 0.36298 0.0
C695 C 0.37996 0.98501 0.35104 0.0
C696 C 0.40719 0.92172 0.34762 0.0
C697 C 0.37404 0.95819 0.37274 0.0
N698 N 0.38748 0.92694 0.37072 0.0
C699 C 0.41364 0.94793 0.32549 0.0
C700 C 0.39987 0.97976 0.32724 0.0
C701 C 0.43392 0.85739 0.41493 0.0
C702 C 0.37971 0.82747 0.53033 0.0
C703 C 0.41955 0.80148 0.489 0.0
C704 C 0.42545 0.80529 0.52183 0.0
C705 C 0.40535 0.81838 0.5426 0.0
N706 N 0.3943 0.81028 0.47711 0.0
C707 C 0.37454 0.82326 0.49736 0.0
Co708 Co 0.36597 0.1261 0.90016 0.0
Co709 Co 0.37409 0.18011 0.96729 0.0
O710 O 0.35789 0.16894 0.92485 0.0
C711 C 0.37303 0.18436 0.85059 0.0
O712 O 0.36809 0.20966 0.87123 0.0
C713 C 0.31367 0.17999 0.98136 0.0
O714 O 0.31138 0.1521 0.96302 0.0
O715 O 0.36797 0.13132 0.98348 0.0
O716 O 0.36173 0.09764 0.9397 0.0
H717 H 0.43651 0.15978 0.06184 0.0
H718 H 0.32171 0.17408 0.87838 0.0
O719 O 0.37157 0.15243 0.8589 0.0
H720 H 0.27609 0.0609 0.89651 0.0
H721 H 0.35959 0.04462 0.8046 0.0
H722 H 0.4 0.06341 0.91245 0.0
H723 H 0.32592 0.06744 0.9054 0.0
H724 H 0.3492 0.09807 0.83569 0.0
O725 O 0.33711 0.1943 0.98522 0.0
H726 H 0.41578 0.14651 0.00883 0.0
H727 H 0.36666 0.23785 0.01523 0.0
H728 H 0.41069 0.00942 0.88235 0.0
H729 H 0.27193 0.16862 0.86889 0.0
H730 H 0.39044 0.99977 0.82799 0.0
H731 H 0.24874 0.1117 0.87803 0.0
O732 O 0.40622 0.13102 0.90811 0.0
H733 H 0.34601 0.29266 0.91505 0.0
H734 H 0.42171 0.22932 0.96772 0.0
H735 H 0.42963 0.28909 0.94783 0.0
H736 H 0.39157 0.32123 0.92137 0.0
H737 H 0.33916 0.23259 0.9348 0.0
H738 H 0.38666 0.25194 0.06841 0.0
H739 H 0.42193 0.21282 0.092 0.0
O740 O 0.41143 0.16719 0.95059 0.0
C741 C 0.36348 0.10174 0.9701 0.0
C742 C 0.42121 0.17707 0.05178 0.0
C743 C 0.3932 0.22877 0.05549 0.0
N744 N 0.39016 0.19147 0.00888 0.0
C745 C 0.40946 0.16974 0.02174 0.0
C746 C 0.3819 0.2206 0.0254 0.0
C747 C 0.413 0.20682 0.0687 0.0
C748 C 0.31192 0.14913 0.88197 0.0
N749 N 0.32686 0.12103 0.89197 0.0
C750 C 0.28365 0.14623 0.87675 0.0
C751 C 0.27064 0.11431 0.88194 0.0
C752 C 0.28597 0.0858 0.89232 0.0
C753 C 0.3142 0.08969 0.89733 0.0
C754 C 0.36848 0.04848 0.8283 0.0
C755 C 0.39094 0.05928 0.88892 0.0
C756 C 0.36272 0.07873 0.84599 0.0
N757 N 0.37378 0.08371 0.876 0.0
C758 C 0.39714 0.02871 0.87194 0.0
C759 C 0.38579 0.02333 0.84144 0.0
C760 C 0.42113 0.14812 0.92793 0.0
C761 C 0.36276 0.27893 0.92654 0.0
C762 C 0.40516 0.24297 0.95588 0.0
C763 C 0.40971 0.27689 0.94485 0.0
C764 C 0.38833 0.29493 0.93005 0.0
N765 N 0.38004 0.22742 0.95226 0.0
C766 C 0.35897 0.24497 0.93787 0.0
Co767 Co 0.64865 0.88568 0.40258 0.0
Co768 Co 0.64918 0.83446 0.47163 0.0
O769 O 0.66193 0.8452 0.42738 0.0
C770 C 0.65041 0.82687 0.35132 0.0
O771 O 0.66166 0.80339 0.3701 0.0
C772 C 0.71031 0.83496 0.48333 0.0
O773 O 0.71255 0.86506 0.46846 0.0
O774 O 0.65674 0.88348 0.48645 0.0
O775 O 0.65045 0.91573 0.44197 0.0
H776 H 0.5959 0.85707 0.57374 0.0
H777 H 0.69882 0.8461 0.38222 0.0
O778 O 0.64542 0.85773 0.36143 0.0
H779 H 0.72892 0.96823 0.39393 0.0
H780 H 0.64306 0.96494 0.30593 0.0
H781 H 0.60818 0.94176 0.41578 0.0
H782 H 0.68075 0.95187 0.4044 0.0
H783 H 0.66044 0.91494 0.33714 0.0
O784 O 0.68708 0.81975 0.48514 0.0
H785 H 0.61206 0.86949 0.51842 0.0
H786 H 0.65941 0.77643 0.51817 0.0
H787 H 0.5905 0.9923 0.38557 0.0
H788 H 0.74701 0.86134 0.37113 0.0
H789 H 0.60793 1.00413 0.3302 0.0
H790 H 0.76244 0.92284 0.37699 0.0
O791 O 0.60955 0.87339 0.41191 0.0
H792 H 0.67237 0.72183 0.41546 0.0
H793 H 0.60186 0.78492 0.47826 0.0
H794 H 0.59227 0.72514 0.45919 0.0
H795 H 0.62773 0.6931 0.42761 0.0
H796 H 0.6809 0.7819 0.43466 0.0
H797 H 0.644 0.76321 0.57358 0.0
H798 H 0.61192 0.80362 0.60171 0.0
O799 O 0.61065 0.84734 0.46024 0.0
C800 C 0.65472 0.91292 0.4722 0.0
C801 C 0.60985 0.83924 0.56173 0.0
C802 C 0.63688 0.78659 0.56166 0.0
N803 N 0.63663 0.8237 0.51503 0.0
C804 C 0.61904 0.8461 0.53038 0.0
C805 C 0.64563 0.79429 0.53032 0.0
C806 C 0.61887 0.80926 0.57742 0.0
C807 C 0.70507 0.87295 0.38425 0.0
N808 N 0.68664 0.89809 0.39318 0.0
C809 C 0.73255 0.88142 0.37819 0.0
C810 C 0.74121 0.91591 0.38156 0.0
C811 C 0.72242 0.94138 0.39106 0.0
C812 C 0.69513 0.93192 0.39693 0.0
C813 C 0.63535 0.96011 0.33006 0.0
C814 C 0.61604 0.94691 0.39181 0.0
C815 C 0.64506 0.93178 0.34783 0.0
N816 N 0.63549 0.9256 0.37837 0.0
C817 C 0.60588 0.97549 0.37477 0.0
C818 C 0.61565 0.98209 0.3437 0.0
C819 C 0.59761 0.86002 0.43636 0.0
C820 C 0.65674 0.73552 0.42917 0.0
C821 C 0.61723 0.77137 0.4642 0.0
C822 C 0.61176 0.73741 0.45363 0.0
C823 C 0.63168 0.71943 0.43597 0.0
N824 N 0.64183 0.78702 0.45739 0.0
C825 C 0.66147 0.76951 0.44016 0.0
Co826 Co 0.37002 0.88902 0.12209 0.0
Co827 Co 0.37567 0.83471 0.0548 0.0
O828 O 0.36119 0.84605 0.09811 0.0
C829 C 0.37633 0.83108 0.172 0.0
O830 O 0.3694 0.80583 0.15214 0.0
C831 C 0.32374 0.82568 0.0168 0.0
O832 O 0.33189 0.85102 0.99775 0.0
O833 O 0.36718 0.8829 0.03861 0.0
O834 O 0.36517 0.91719 0.08253 0.0
H835 H 0.43091 0.85682 0.95421 0.0
H836 H 0.32524 0.84184 0.14512 0.0
O837 O 0.37622 0.8629 0.16324 0.0
H838 H 0.28151 0.95648 0.12991 0.0
H839 H 0.36711 0.97102 0.21754 0.0
H840 H 0.40415 0.95135 0.10794 0.0
H841 H 0.33084 0.94851 0.11847 0.0
H842 H 0.3553 0.91759 0.18713 0.0
O843 O 0.33796 0.81765 0.04162 0.0
H844 H 0.41283 0.87014 0.00864 0.0
H845 H 0.36867 0.77444 0.00928 0.0
H846 H 0.41621 1.00532 0.13733 0.0
H847 H 0.27599 0.84874 0.15721 0.0
H848 H 0.39767 0.01541 0.19256 0.0
H849 H 0.25374 0.90641 0.14962 0.0
O850 O 0.40987 0.88343 0.1126 0.0
H851 H 0.35466 0.72176 0.11123 0.0
H852 H 0.42481 0.78825 0.05113 0.0
H853 H 0.43599 0.72953 0.07131 0.0
H854 H 0.40071 0.69577 0.10148 0.0
H855 H 0.34458 0.7809 0.09122 0.0
H856 H 0.38617 0.76015 0.95485 0.0
H857 H 0.41756 0.80149 0.92696 0.0
O858 O 0.41358 0.85008 0.0679 0.0
C859 C 0.36436 0.91274 0.05212 0.0
C860 C 0.41727 0.83859 0.96613 0.0
C861 C 0.39215 0.78434 0.96647 0.0
N862 N 0.38975 0.8231 0.01213 0.0
C863 C 0.40699 0.84597 0.99695 0.0
C864 C 0.38227 0.7926 0.99728 0.0
C865 C 0.40976 0.80754 0.95084 0.0
C866 C 0.31592 0.8671 0.14216 0.0
N867 N 0.33114 0.89483 0.13166 0.0
C868 C 0.28791 0.87082 0.14886 0.0
C869 C 0.27542 0.90316 0.14454 0.0
C870 C 0.29099 0.93125 0.13348 0.0
C871 C 0.31893 0.92655 0.12701 0.0
C872 C 0.37526 0.96696 0.19345 0.0
C873 C 0.39582 0.95567 0.13186 0.0
C874 C 0.3687 0.93672 0.17615 0.0
N875 N 0.37883 0.93148 0.14566 0.0
C876 C 0.4028 0.98623 0.14843 0.0
C877 C 0.39241 0.99186 0.17942 0.0
C878 C 0.42404 0.86797 0.09092 0.0
C879 C 0.37021 0.73622 0.09814 0.0
C880 C 0.40951 0.77398 0.06469 0.0
C881 C 0.41588 0.74061 0.07584 0.0
C882 C 0.39606 0.72167 0.0927 0.0
N883 N 0.38415 0.78815 0.07022 0.0
C884 C 0.36459 0.76967 0.08665 0.0
Co885 Co 0.65858 0.1359 0.61705 0.0
Co886 Co 0.64932 0.18512 0.54729 0.0
O887 O 0.66721 0.17615 0.58917 0.0
C888 C 0.66165 0.1982 0.66342 0.0
O889 O 0.66803 0.22032 0.64051 0.0
C890 C 0.70895 0.18363 0.52885 0.0
O891 O 0.71186 0.15559 0.54666 0.0
O892 O 0.65467 0.13544 0.53317 0.0
O893 O 0.65807 0.10417 0.5787 0.0
H894 H 0.58358 0.15915 0.45691 0.0
H895 H 0.70807 0.18045 0.62959 0.0
O896 O 0.65804 0.16584 0.65737 0.0
H897 H 0.74342 0.06087 0.61638 0.0
H898 H 0.66676 0.06139 0.71662 0.0
H899 H 0.62056 0.07558 0.61157 0.0
H900 H 0.6938 0.07266 0.61231 0.0
H901 H 0.67808 0.1112 0.68141 0.0
O902 O 0.68556 0.19836 0.52694 0.0
H903 H 0.60616 0.14911 0.50936 0.0
H904 H 0.65501 0.24001 0.49654 0.0
H905 H 0.60885 0.02518 0.64586 0.0
H906 H 0.7577 0.16979 0.63421 0.0
H907 H 0.632 0.01787 0.69883 0.0
H908 H 0.77578 0.10961 0.62755 0.0
O909 O 0.6183 0.14419 0.61273 0.0
H910 H 0.67967 0.30055 0.59297 0.0
H911 H 0.60203 0.23466 0.54657 0.0
H912 H 0.59503 0.29559 0.5641 0.0
H913 H 0.63409 0.32902 0.5874 0.0
H914 H 0.68556 0.23931 0.57568 0.0
H915 H 0.63314 0.25086 0.44385 0.0
H916 H 0.59706 0.21034 0.42377 0.0
O917 O 0.6125 0.17338 0.56621 0.0
C918 C 0.65691 0.10641 0.54804 0.0
C919 C 0.59921 0.17705 0.46544 0.0
C920 C 0.62706 0.22849 0.45809 0.0
N921 N 0.63176 0.19404 0.50609 0.0
C922 C 0.61202 0.17155 0.49515 0.0
C923 C 0.63943 0.22215 0.48791 0.0
C924 C 0.60681 0.20575 0.44684 0.0
C925 C 0.71553 0.15415 0.62725 0.0
N926 N 0.6978 0.12719 0.62141 0.0
C927 C 0.74379 0.14828 0.62963 0.0
C928 C 0.75393 0.11453 0.62581 0.0
C929 C 0.73579 0.08718 0.61954 0.0
C930 C 0.70768 0.09405 0.61728 0.0
C931 C 0.65656 0.06427 0.69357 0.0
C932 C 0.63085 0.07246 0.63449 0.0
C933 C 0.66282 0.09248 0.67357 0.0
N934 N 0.65009 0.09621 0.64437 0.0
C935 C 0.62409 0.04392 0.65384 0.0
C936 C 0.63706 0.03985 0.68357 0.0
C937 C 0.60314 0.15849 0.59148 0.0
C938 C 0.66248 0.28625 0.58293 0.0
C939 C 0.61897 0.24884 0.55719 0.0
C940 C 0.61496 0.28343 0.56682 0.0
C941 C 0.63689 0.30219 0.57983 0.0
N942 N 0.64408 0.23331 0.56049 0.0
C943 C 0.66571 0.2516 0.57302 0.0
H944 H 0.05176 0.31067 0.06598 0.0
H945 H 0.05725 0.38408 0.1449 0.0
H946 H 1.007 0.38908 0.14606 0.0
H947 H 0.96129 0.37234 0.1243 0.0
H948 H 0.95759 0.30255 0.04216 0.0
H949 H 1.00718 0.29643 0.04275 0.0
C950 C 0.04208 0.32772 0.08351 0.0
C951 C 0.05835 0.34675 0.10542 0.0
C952 C 0.01334 0.33108 0.08352 0.0
C953 C 0.04527 0.36912 0.12769 0.0
C954 C 0.01651 0.37194 0.1284 0.0
C955 C 0.97131 0.3557 0.10661 0.0
C956 C 0.95538 0.3374 0.08362 0.0
C957 C 1.00027 0.353 0.10639 0.0
C958 C 0.96896 0.31652 0.06052 0.0
C959 C 0.99749 0.31305 0.06071 0.0
H960 H 0.96311 0.64248 0.55695 0.0
H961 H 0.96408 0.68818 0.65219 0.0
H962 H 0.01444 0.68468 0.6533 0.0
H963 H 0.05813 0.66866 0.62694 0.0
H964 H 0.05756 0.62878 0.52941 0.0
H965 H 1.00714 0.62991 0.52918 0.0
C966 C 0.9745 0.65155 0.57789 0.0
C967 C 0.96021 0.66519 0.60462 0.0
C968 C 1.0034 0.65047 0.57785 0.0
C969 C 0.97488 0.67752 0.63146 0.0
C970 C 1.00357 0.67546 0.63208 0.0
C971 C 0.04689 0.66006 0.60573 0.0
C972 C 0.06138 0.64818 0.57839 0.0
C973 C 0.01804 0.66194 0.60543 0.0
C974 C 0.04674 0.63787 0.55076 0.0
C975 C 0.01797 0.6385 0.55064 0.0
H976 H 0.96596 0.611 0.89779 0.0
H977 H 0.95987 0.69759 0.96451 0.0
H978 H 1.00894 0.7079 0.96014 0.0
H979 H 0.05382 0.69264 0.9378 0.0
H980 H 0.06161 0.60353 0.87447 0.0
H981 H 0.01189 0.59417 0.87691 0.0
C982 C 0.97537 0.63214 0.91134 0.0
C983 C 0.95895 0.65361 0.93128 0.0
C984 C 1.00403 0.63758 0.9093 0.0
C985 C 0.9717 0.68062 0.94891 0.0
C986 C 0.99991 0.68664 0.94642 0.0
C987 C 0.04476 0.67116 0.92451 0.0
C988 C 0.06158 0.64892 0.90599 0.0
C989 C 0.01628 0.66534 0.92671 0.0
C990 C 0.04925 0.62109 0.88903 0.0
C991 C 0.02077 0.61569 0.8904 0.0
H992 H 0.06231 0.30916 0.42726 0.0
H993 H 0.06867 0.41486 0.3931 0.0
H994 H 0.01844 0.41858 0.38953 0.0
H995 H 0.97252 0.39178 0.39737 0.0
H996 H 0.96749 0.28385 0.42659 0.0
H997 H 0.01718 0.28116 0.43115 0.0
C998 C 0.05271 0.33304 0.41919 0.0
C999 C 0.06915 0.36184 0.41096 0.0
C1000 C 0.02396 0.33465 0.41651 0.0
C1001 C 0.05644 0.39234 0.39965 0.0
C1002 C 0.02772 0.3945 0.39772 0.0
C1003 C 0.98227 0.3677 0.40482 0.0
C1004 C 0.96598 0.33836 0.41247 0.0
C1005 C 0.01121 0.36585 0.40631 0.0
C1006 C 0.97919 0.30716 0.42129 0.0
C1007 C 1.00776 0.30546 0.42374 0.0
H1008 H 0.46109 0.81608 0.08053 0.0
H1009 H 0.45485 0.9242 0.10863 0.0
H1010 H 0.50477 0.92724 0.11549 0.0
H1011 H 0.55011 0.89897 0.11397 0.0
H1012 H 0.55569 0.78934 0.09016 0.0
H1013 H 0.50622 0.78712 0.08122 0.0
C1014 C 0.47071 0.84039 0.08772 0.0
C1015 C 0.45436 0.87002 0.09354 0.0
C1016 C 0.49932 0.84163 0.09258 0.0
C1017 C 0.46703 0.9011 0.10381 0.0
C1018 C 0.49556 0.90283 0.10779 0.0
C1019 C 0.54057 0.87454 0.10681 0.0
C1020 C 0.5569 0.84453 0.1022 0.0
C1021 C 0.51191 0.8732 0.10237 0.0
C1022 C 0.54391 0.81304 0.09342 0.0
C1023 C 0.51552 0.81169 0.08833 0.0
H1024 H 0.56657 0.20977 0.5779 0.0
H1025 H 0.57197 0.10566 0.61635 0.0
H1026 H 0.52186 0.10358 0.62231 0.0
H1027 H 0.47643 0.13113 0.61556 0.0
H1028 H 0.47195 0.23731 0.58141 0.0
H1029 H 0.52167 0.23871 0.57466 0.0
C1030 C 0.55678 0.18658 0.58742 0.0
C1031 C 0.57293 0.15775 0.59624 0.0
C1032 C 0.52808 0.18591 0.59147 0.0
C1033 C 0.55998 0.12818 0.60934 0.0
C1034 C 0.53133 0.12696 0.61267 0.0
C1035 C 0.48629 0.1546 0.60661 0.0
C1036 C 0.4702 0.18383 0.59836 0.0
C1037 C 0.51514 0.15562 0.60365 0.0
C1038 C 0.48355 0.2142 0.58745 0.0
C1039 C 0.5121 0.21509 0.58365 0.0
H1040 H 0.54758 0.11915 0.90294 0.0
H1041 H 0.55187 0.22906 0.92606 0.0
H1042 H 0.50249 0.23036 0.93523 0.0
H1043 H 0.45779 0.20067 0.9366 0.0
H1044 H 0.45223 0.09238 0.90883 0.0
H1045 H 0.50221 0.09012 0.90143 0.0
C1046 C 0.53775 0.14339 0.91003 0.0
C1047 C 0.55376 0.17377 0.91447 0.0
C1048 C 0.50901 0.14428 0.91442 0.0
C1049 C 0.54041 0.20506 0.92305 0.0
C1050 C 0.51203 0.20592 0.92821 0.0
C1051 C 0.46755 0.17651 0.92922 0.0
C1052 C 0.45138 0.14662 0.92375 0.0
C1053 C 0.49614 0.17569 0.92414 0.0
C1054 C 0.46425 0.11572 0.91333 0.0
C1055 C 0.49282 0.11442 0.9091 0.0
H1056 H 0.47105 0.82827 0.45539 0.0
H1057 H 0.46461 0.89755 0.37403 0.0
H1058 H 0.51466 0.90455 0.37302 0.0
H1059 H 0.56048 0.8903 0.39514 0.0
H1060 H 0.56554 0.82479 0.47967 0.0
H1061 H 0.51604 0.81707 0.47946 0.0
C1062 C 0.48059 0.84471 0.43733 0.0
C1063 C 0.46416 0.86194 0.41457 0.0
C1064 C 0.50925 0.84932 0.43744 0.0
C1065 C 0.47682 0.88388 0.39177 0.0
C1066 C 0.50545 0.88788 0.39117 0.0
C1067 C 0.55077 0.87435 0.41353 0.0
C1068 C 0.56705 0.85758 0.43694 0.0
C1069 C 0.52193 0.87065 0.41388 0.0
C1070 C 0.55388 0.83754 0.46091 0.0
C1071 C 0.52541 0.83314 0.46094 0.0
H1072 H 0.1856 0.31335 0.19662 0.0
H1073 H 0.10551 0.26706 0.18601 0.0
H1074 H 0.10007 0.26536 0.24498 0.0
H1075 H 0.11467 0.28808 0.29862 0.0
H1076 H 0.19383 0.33839 0.30719 0.0
H1077 H 0.20308 0.32757 0.25027 0.0
C1078 C 0.16745 0.3016 0.20736 0.0
C1079 C 0.14607 0.29016 0.18723 0.0
C1080 C 0.164 0.30243 0.241 0.0
C1081 C 0.12245 0.27537 0.20116 0.0
C1082 C 0.11916 0.27505 0.23486 0.0
C1083 C 0.13418 0.29588 0.28816 0.0
C1084 C 0.15329 0.3146 0.30706 0.0
C1085 C 0.13923 0.2902 0.25495 0.0
C1086 C 0.17853 0.32449 0.29313 0.0
C1087 C 0.18391 0.31825 0.26054 0.0
H1088 H 0.90717 0.66491 0.70618 0.0
H1089 H 0.84023 0.73718 0.69428 0.0
H1090 H 0.83572 0.74236 0.75339 0.0
H1091 H 0.84817 0.72098 0.80867 0.0
H1092 H 0.91481 0.64734 0.8177 0.0
H1093 H 0.9221 0.6482 0.75968 0.0
C1094 C 0.89167 0.68205 0.71644 0.0
C1095 C 0.8738 0.70023 0.69589 0.0
C1096 C 0.88908 0.68449 0.75008 0.0
C1097 C 0.85424 0.72287 0.70961 0.0
C1098 C 0.85157 0.72564 0.7434 0.0
C1099 C 0.8646 0.70576 0.7979 0.0
C1100 C 0.88076 0.68388 0.81756 0.0
C1101 C 0.86849 0.70587 0.76397 0.0
C1102 C 0.90189 0.66411 0.80319 0.0
C1103 C 0.9061 0.66454 0.76995 0.0
H1104 H 0.10624 0.67858 0.80736 0.0
H1105 H 0.18099 0.73705 0.82059 0.0
H1106 H 0.1854 0.74405 0.76169 0.0
H1107 H 0.17161 0.72452 0.70637 0.0
H1108 H 0.09846 0.66178 0.69556 0.0
H1109 H 0.08962 0.66553 0.75338 0.0
C1110 C 0.1231 0.69368 0.79731 0.0
C1111 C 0.14328 0.70724 0.81799 0.0
C1112 C 0.12594 0.69627 0.76377 0.0
C1113 C 0.16506 0.72675 0.80497 0.0
C1114 C 0.16773 0.73031 0.77133 0.0
C1115 C 0.1534 0.71256 0.71672 0.0
C1116 C 0.13578 0.6927 0.69689 0.0
C1117 C 0.14886 0.71391 0.75042 0.0
C1118 C 0.11239 0.67694 0.71046 0.0
C1119 C 0.10732 0.67904 0.7435 0.0
H1120 H 0.90617 0.32255 0.20358 0.0
H1121 H 0.8275 0.27124 0.19847 0.0
H1122 H 0.82698 0.26481 0.25757 0.0
H1123 H 0.84684 0.28085 0.31143 0.0
H1124 H 0.92619 0.33119 0.31425 0.0
H1125 H 0.92877 0.33035 0.2556 0.0
C1126 C 0.88915 0.30937 0.21539 0.0
C1127 C 0.86683 0.29766 0.19686 0.0
C1128 C 0.88909 0.30572 0.2491 0.0
C1129 C 0.84498 0.28036 0.21231 0.0
C1130 C 0.84462 0.2769 0.24612 0.0
C1131 C 0.86497 0.2906 0.29912 0.0
C1132 C 0.88617 0.30642 0.31713 0.0
C1133 C 0.86627 0.29036 0.26493 0.0
C1134 C 0.90948 0.31925 0.30088 0.0
C1135 C 0.91097 0.31889 0.26731 0.0
H1136 H 0.67955 0.7902 0.30511 0.0
H1137 H 0.60381 0.84601 0.3218 0.0
H1138 H 0.59253 0.84204 0.26464 0.0
H1139 H 0.60656 0.82981 0.20955 0.0
H1140 H 0.68361 0.77854 0.19001 0.0
H1141 H 0.69171 0.77259 0.24843 0.0
C1142 C 0.66033 0.80069 0.2962 0.0
C1143 C 0.64253 0.81847 0.31762 0.0
C1144 C 0.65429 0.79926 0.26277 0.0
C1145 C 0.61786 0.83238 0.30577 0.0
C1146 C 0.61139 0.83015 0.27308 0.0
C1147 C 0.62492 0.81668 0.21802 0.0
C1148 C 0.64455 0.80486 0.1955 0.0
C1149 C 0.62982 0.81469 0.2513 0.0
C1150 C 0.66809 0.78763 0.20684 0.0
C1151 C 0.67284 0.78466 0.24027 0.0
H1152 H 0.35235 0.23165 0.80708 0.0
H1153 H 0.4143 0.15239 0.81957 0.0
H1154 H 0.42646 0.15585 0.76262 0.0
H1155 H 0.41621 0.17591 0.70871 0.0
H1156 H 0.35248 0.25202 0.69313 0.0
H1157 H 0.3447 0.25604 0.75178 0.0
C1158 C 0.36886 0.2158 0.7973 0.0
C1159 C 0.38235 0.19166 0.81735 0.0
C1160 C 0.37528 0.21717 0.764 0.0
C1161 C 0.40354 0.17094 0.80449 0.0
C1162 C 0.4105 0.17287 0.77195 0.0
C1163 C 0.40078 0.19373 0.71806 0.0
C1164 C 0.38467 0.21325 0.69657 0.0
C1165 C 0.39596 0.19504 0.75137 0.0
C1166 C 0.36516 0.23668 0.70918 0.0
C1167 C 0.36057 0.23874 0.7427 0.0
H1168 H 0.67676 0.22849 0.8121 0.0
H1169 H 0.59214 0.19493 0.81214 0.0
H1170 H 0.59186 0.19367 0.75331 0.0
H1171 H 0.61753 0.19345 0.70228 0.0
H1172 H 0.7017 0.22806 0.70044 0.0
H1173 H 0.70049 0.23771 0.75922 0.0
C1174 C 0.65803 0.22234 0.7991 0.0
C1175 C 0.63446 0.21193 0.81639 0.0
C1176 C 0.65815 0.22104 0.76493 0.0
C1177 C 0.61046 0.20321 0.7993 0.0
C1178 C 0.61036 0.20213 0.76565 0.0
C1179 C 0.63537 0.20386 0.71474 0.0
C1180 C 0.65966 0.20995 0.69735 0.0
C1181 C 0.63437 0.20959 0.74828 0.0
C1182 C 0.68272 0.22341 0.71352 0.0
C1183 C 0.68204 0.22875 0.7471 0.0
H1184 H 0.35176 0.78777 0.21613 0.0
H1185 H 0.41919 0.85961 0.20284 0.0
H1186 H 0.42888 0.85857 0.26051 0.0
H1187 H 0.41436 0.84416 0.31497 0.0
H1188 H 0.34538 0.77582 0.33075 0.0
H1189 H 0.34037 0.76769 0.27199 0.0
C1190 C 0.36898 0.80234 0.22592 0.0
C1191 C 0.38471 0.82386 0.20547 0.0
C1192 C 0.37394 0.80249 0.25951 0.0
C1193 C 0.40678 0.84303 0.21827 0.0
C1194 C 0.41229 0.84253 0.25121 0.0
C1195 C 0.3985 0.82704 0.3055 0.0
C1196 C 0.38005 0.81095 0.32684 0.0
C1197 C 0.3954 0.82344 0.2721 0.0
C1198 C 0.35984 0.78837 0.31458 0.0
C1199 C 0.35687 0.78403 0.28104 0.0
H1200 H 0.31211 0.23094 0.02781 0.0
H1201 H 0.25957 0.16317 0.97168 0.0
H1202 H 0.21905 0.18826 0.9979 0.0
H1203 H 0.19834 0.22982 0.03639 0.0
H1204 H 0.2509 0.2969 0.09322 0.0
H1205 H 0.29144 0.27162 0.06719 0.0
C1206 C 0.29181 0.22163 0.02125 0.0
C1207 C 0.28902 0.19517 0.99764 0.0
C1208 C 0.26851 0.23603 0.03662 0.0
C1209 C 0.26246 0.18339 0.98973 0.0
C1210 C 0.23922 0.19778 1.00471 0.0
C1211 C 0.21865 0.23891 0.04319 0.0
C1212 C 0.22143 0.26534 0.06683 0.0
C1213 C 0.24197 0.22416 0.02816 0.0
C1214 C 0.24801 0.27658 0.07527 0.0
C1215 C 0.27127 0.26217 0.0603 0.0
H1216 H 0.82245 0.78348 0.54512 0.0
H1217 H 0.76704 0.71012 0.59029 0.0
H1218 H 0.72831 0.73635 0.56201 0.0
H1219 H 0.71007 0.77962 0.52441 0.0
H1220 H 0.76477 0.8541 0.4798 0.0
H1221 H 0.80385 0.82778 0.50784 0.0
C1222 C 0.8019 0.77324 0.54887 0.0
C1223 C 0.79778 0.74476 0.56993 0.0
C1224 C 0.77958 0.78856 0.53253 0.0
C1225 C 0.77093 0.732 0.57441 0.0
C1226 C 0.74872 0.74695 0.55814 0.0
C1227 C 0.73051 0.79015 0.52063 0.0
C1228 C 0.73437 0.81883 0.4998 0.0
C1229 C 0.7528 0.77514 0.53709 0.0
C1230 C 0.7611 0.8321 0.49559 0.0
C1231 C 0.78348 0.81704 0.51167 0.0
H1232 H 0.28135 0.84045 0.97568 0.0
H1233 H 0.31493 0.75809 0.03437 0.0
H1234 H 0.28027 0.71762 0.01395 0.0
H1235 H 0.24091 0.7049 0.97843 0.0
H1236 H 0.20477 0.78796 0.92301 0.0
H1237 H 0.23983 0.82866 0.94289 0.0
C1238 C 0.28094 0.81372 0.98416 0.0
C1239 C 0.30081 0.80242 1.00652 0.0
C1240 C 0.26059 0.79054 0.97264 0.0
C1241 C 0.29983 0.76768 0.01739 0.0
C1242 C 0.28009 0.74438 1.00555 0.0
C1243 C 0.24084 0.73188 0.97058 0.0
C1244 C 0.22055 0.74327 0.94887 0.0
C1245 C 0.26052 0.75539 0.98295 0.0
C1246 C 0.2203 0.7785 0.93953 0.0
C1247 C 0.24032 0.80179 0.95093 0.0
H1248 H 0.7089 0.23742 0.48549 0.0
H1249 H 0.76291 0.1635 0.53153 0.0
H1250 H 0.80216 0.18821 0.50257 0.0
H1251 H 0.82137 0.23125 0.46489 0.0
H1252 H 0.76757 0.30514 0.41854 0.0
H1253 H 0.72809 0.27982 0.44678 0.0
C1254 C 0.72924 0.22664 0.48924 0.0
C1255 C 0.73282 0.19856 0.51085 0.0
C1256 C 0.75181 0.24094 0.47236 0.0
C1257 C 0.75941 0.185 0.51514 0.0
C1258 C 0.78192 0.19916 0.49856 0.0
C1259 C 0.80103 0.24182 0.46077 0.0
C1260 C 0.7976 0.27019 0.43948 0.0
C1261 C 0.77839 0.22718 0.47718 0.0
C1262 C 0.77095 0.28334 0.43462 0.0
C1263 C 0.74832 0.2689 0.45087 0.0
H1264 H 0.73602 0.72269 0.09669 0.0
H1265 H 0.70115 0.78605 0.02121 0.0
H1266 H 0.73407 0.76236 0.98246 0.0
H1267 H 0.77289 0.72321 0.96944 0.0
H1268 H 0.81011 0.66329 0.04554 0.0
H1269 H 0.7762 0.68556 0.08423 0.0
C1270 C 0.73574 0.7315 0.07182 0.0
C1271 C 0.71605 0.75624 0.06208 0.0
C1272 C 0.75505 0.71799 0.04952 0.0
C1273 C 0.71614 0.76734 0.02966 0.0
C1274 C 0.73488 0.75358 0.0073 0.0
C1275 C 0.7733 0.71474 0.99441 0.0
C1276 C 0.79367 0.69114 1.00448 0.0
C1277 C 0.75433 0.72871 0.01685 0.0
C1278 C 0.79446 0.68115 0.03713 0.0
C1279 C 0.77514 0.69401 0.0593 0.0
H1280 H 0.28494 0.21153 0.53802 0.0
H1281 H 0.31399 0.29752 0.59618 0.0
H1282 H 0.2761 0.33391 0.57696 0.0
H1283 H 0.23472 0.34143 0.54318 0.0
H1284 H 0.20798 0.25651 0.48203 0.0
H1285 H 0.24495 0.21984 0.50256 0.0
C1286 C 0.28281 0.23814 0.54671 0.0
C1287 C 0.30201 0.25164 0.56887 0.0
C1288 C 0.26149 0.25926 0.53475 0.0
C1289 C 0.29936 0.28644 0.5793 0.0
C1290 C 0.27773 0.30728 0.56826 0.0
C1291 C 0.23705 0.31494 0.53429 0.0
C1292 C 0.21853 0.30181 0.51111 0.0
C1293 C 0.2587 0.29403 0.54587 0.0
C1294 C 0.222 0.26745 0.49969 0.0
C1295 C 0.24308 0.24633 0.51156 0.0
H1296 H 0.81176 0.26936 0.985 0.0
H1297 H 0.75975 0.34363 0.03443 0.0
H1298 H 0.71967 0.32079 1.00561 0.0
H1299 H 0.69928 0.27944 0.9667 0.0
H1300 H 0.75152 0.20589 0.91663 0.0
H1301 H 0.79156 0.22894 0.94526 0.0
C1302 C 0.79168 0.28058 0.98961 0.0
C1303 C 0.78889 0.30819 0.0121 0.0
C1304 C 0.76871 0.26751 0.9727 0.0
C1305 C 0.76262 0.32243 0.01737 0.0
C1306 C 0.73965 0.30936 1.00085 0.0
C1307 C 0.71941 0.26846 0.96189 0.0
C1308 C 0.72223 0.24083 0.9394 0.0
C1309 C 0.74244 0.28188 0.97847 0.0
C1310 C 0.74861 0.22714 0.93362 0.0
C1311 C 0.77156 0.24027 0.9501 0.0
H1312 H 0.24205 0.67167 0.47485 0.0
H1313 H 0.20381 0.75456 0.52962 0.0
H1314 H 0.23976 0.79501 0.51251 0.0
H1315 H 0.28161 0.80746 0.48093 0.0
H1316 H 0.32183 0.72391 0.42928 0.0
H1317 H 0.28563 0.68328 0.446 0.0
C1318 C 0.2417 0.69853 0.48319 0.0
C1319 C 0.22018 0.71 0.50344 0.0
C1320 C 0.26271 0.72168 0.47357 0.0
C1321 C 0.22017 0.74488 0.51421 0.0
C1322 C 0.24066 0.76815 0.50427 0.0
C1323 C 0.28234 0.78039 0.47321 0.0
C1324 C 0.30415 0.76882 0.4535 0.0
C1325 C 0.26189 0.75695 0.48372 0.0
C1326 C 0.30517 0.73349 0.4443 0.0
C1327 C 0.28449 0.71025 0.45389 0.0
H1328 H 0.13291 0.57212 0.01183 0.0
H1329 H 0.14561 0.51956 0.9206 0.0
H1330 H 0.14368 0.46306 0.94739 0.0
H1331 H 0.13831 0.42819 0.99688 0.0
H1332 H 0.12889 0.48081 0.08855 0.0
H1333 H 0.12945 0.53737 0.06157 0.0
C1334 C 0.13528 0.54828 0.99788 0.0
C1335 C 0.13935 0.55009 0.96432 0.0
C1336 C 0.13462 0.51577 0.01351 0.0
C1337 C 0.14263 0.51897 0.94654 0.0
C1338 C 0.1414 0.48657 0.9618 0.0
C1339 C 0.13624 0.45208 0.01083 0.0
C1340 C 0.13339 0.45038 0.04454 0.0
C1341 C 0.13734 0.48461 0.99526 0.0
C1342 C 0.13116 0.4815 0.0625 0.0
C1343 C 0.13146 0.51385 0.04712 0.0
H1344 H 0.88122 0.53085 0.56755 0.0
H1345 H 0.88611 0.59622 0.48306 0.0
H1346 H 0.88695 0.54428 0.44836 0.0
H1347 H 0.88724 0.48045 0.44222 0.0
H1348 H 0.88554 0.41514 0.52693 0.0
H1349 H 0.88253 0.46705 0.56148 0.0
C1350 C 0.88223 0.53377 0.54151 0.0
C1351 C 0.88334 0.56738 0.52784 0.0
C1352 C 0.8834 0.50384 0.52184 0.0
C1353 C 0.88518 0.57067 0.49413 0.0
C1354 C 0.88566 0.54099 0.47432 0.0
C1355 C 0.88605 0.47753 0.46825 0.0
C1356 C 0.88643 0.44394 0.48201 0.0
C1357 C 0.88491 0.50747 0.48792 0.0
C1358 C 0.88531 0.44067 0.51577 0.0
C1359 C 0.88354 0.47033 0.5355 0.0
H1360 H 0.87412 0.46306 0.06941 0.0
H1361 H 0.86892 0.40569 0.97951 0.0
H1362 H 0.86944 0.46051 0.94957 0.0
H1363 H 0.87186 0.52429 0.94879 0.0
H1364 H 0.87635 0.58196 0.03855 0.0
H1365 H 0.87558 0.52713 0.06864 0.0
C1366 C 0.87297 0.46237 0.04326 0.0
C1367 C 0.87141 0.43 0.02683 0.0
C1368 C 0.87317 0.49403 0.02615 0.0
C1369 C 0.87004 0.43 0.9929 0.0
C1370 C 0.87037 0.4614 0.97572 0.0
C1371 C 0.87254 0.52511 0.97495 0.0
C1372 C 0.87409 0.55751 0.99128 0.0
C1373 C 0.87198 0.49352 0.9921 0.0
C1374 C 0.87507 0.55761 0.02524 0.0
C1375 C 0.87466 0.52621 0.04248 0.0
H1376 H 0.15773 0.47628 0.44078 0.0
H1377 H 0.1484 0.41384 0.52682 0.0
H1378 H 0.14771 0.46683 0.55989 0.0
H1379 H 0.14852 0.53076 0.56424 0.0
H1380 H 0.15851 0.59295 0.47812 0.0
H1381 H 0.16032 0.53993 0.44531 0.0
C1382 C 0.1557 0.47406 0.46678 0.0
C1383 C 0.15312 0.44087 0.48118 0.0
C1384 C 0.15542 0.50461 0.48568 0.0
C1385 C 0.1505 0.43886 0.51498 0.0
C1386 C 0.15005 0.46921 0.53393 0.0
C1387 C 0.15128 0.53286 0.53832 0.0
C1388 C 0.15338 0.56605 0.52379 0.0
C1389 C 0.15234 0.50222 0.51952 0.0
C1390 C 0.15692 0.56794 0.49009 0.0
C1391 C 0.15788 0.53758 0.47125 0.0
H1392 H 0.63206 0.0843 0.01749 0.0
H1393 H 0.63516 0.03107 0.92543 0.0
H1394 H 0.63531 0.97483 0.95252 0.0
H1395 H 0.6336 0.94029 1.00232 0.0
H1396 H 0.63278 0.9931 0.09459 0.0
H1397 H 0.63276 0.04961 0.06757 0.0
C1398 C 0.63283 0.06038 1.00342 0.0
C1399 C 0.63351 0.06199 0.96951 0.0
C1400 C 0.63328 0.0279 0.01919 0.0
C1401 C 0.63475 0.03071 0.95159 0.0
C1402 C 0.63473 0.99842 0.96704 0.0
C1403 C 0.63344 0.96418 0.01648 0.0
C1404 C 0.63305 0.96246 0.05036 0.0
C1405 C 0.63385 0.99666 1.00081 0.0
C1406 C 0.63316 0.99367 0.06842 0.0
C1407 C 0.63307 0.02604 0.053 0.0
H1408 H 0.38611 0.99123 0.44551 0.0
H1409 H 0.39354 0.92614 0.52991 0.0
H1410 H 0.39495 0.97811 0.56446 0.0
H1411 H 0.39458 0.04178 0.57051 0.0
H1412 H 0.39015 0.10712 0.486 0.0
H1413 H 0.38714 0.05514 0.45149 0.0
C1414 C 0.38787 0.98842 0.4715 0.0
C1415 C 0.3895 0.95491 0.48522 0.0
C1416 C 0.38931 0.01838 0.49108 0.0
C1417 C 0.39225 0.95166 0.51883 0.0
C1418 C 0.39303 0.98134 0.53856 0.0
C1419 C 0.39283 0.04469 0.54454 0.0
C1420 C 0.39238 0.07825 0.5308 0.0
C1421 C 0.39165 0.01479 0.52492 0.0
C1422 C 0.39056 0.08157 0.49711 0.0
C1423 C 0.38878 0.05188 0.47741 0.0
H1424 H 0.36203 0.98028 0.07287 0.0
H1425 H 0.36059 0.91744 0.98592 0.0
H1426 H 0.35869 0.97046 0.95329 0.0
H1427 H 0.3594 0.03425 0.94943 0.0
H1428 H 0.36301 0.09695 0.03636 0.0
H1429 H 0.36204 0.04396 0.06905 0.0
C1430 C 0.36114 0.97793 0.04677 0.0
C1431 C 0.36145 0.94463 0.03196 0.0
C1432 C 0.36054 0.00849 0.02816 0.0
C1433 C 0.36033 0.94253 0.99807 0.0
C1434 C 0.35931 0.97288 0.97938 0.0
C1435 C 0.35982 0.03654 0.97554 0.0
C1436 C 0.36131 0.06981 0.99033 0.0
C1437 C 0.35969 0.00597 0.99417 0.0
C1438 C 0.36188 0.07189 0.02424 0.0
C1439 C 0.36135 0.04155 0.04296 0.0
H1440 H 0.66173 0.03968 0.57088 0.0
H1441 H 0.65311 0.09797 0.4823 0.0
H1442 H 0.65225 0.04354 0.45147 0.0
H1443 H 0.65282 0.97971 0.44958 0.0
H1444 H 0.66128 0.92099 0.5379 0.0
H1445 H 0.66333 0.97551 0.5688 0.0
C1446 C 0.6598 0.04065 0.5448 0.0
C1447 C 0.6575 0.0732 0.52905 0.0
C1448 C 0.65922 0.00915 0.52713 0.0
C1449 C 0.65497 0.07355 0.4952 0.0
C1450 C 0.65443 0.04235 0.47751 0.0
C1451 C 0.65526 0.9786 0.47559 0.0
C1452 C 0.65692 0.94597 0.49127 0.0
C1453 C 0.65638 0.01003 0.49322 0.0
C1454 C 0.66 0.94551 0.52505 0.0
C1455 C 0.66114 0.97674 0.54278 0.0
loop_
_geom_bond_atom_site_label_1
_geom_bond_atom_site_label_2
_geom_bond_distance
_geom_bond_site_symmetry_2
_ccdc_geom_bond_type
Co0 O2 2.143 . S
Co0 O8 2.074 . S
Co0 O11 2.093 . S
Co0 O24 2.097 . S
Co0 N41 2.151 . S
Co0 N49 2.214 . S
Co1 O2 2.160 . S
Co1 O7 2.058 . S
Co1 O17 2.057 . S
Co1 O32 2.037 . S
Co1 N36 2.145 . S
Co1 N57 2.257 . S
O2 Co0 2.143 . S
O2 Co1 2.160 . S
C3 O4 1.278 . S
C3 O11 1.224 . S
O4 C3 1.278 . S
C5 O6 1.245 . S
C5 O17 1.232 . S
O6 C5 1.245 . S
O7 Co1 2.058 . S
O7 C33 1.269 . S
O8 Co0 2.074 . S
O8 C33 1.257 . S
H9 C34 0.930 . S
H10 C40 0.930 . S
O11 Co0 2.093 . S
O11 C3 1.224 . S
H12 C44 0.929 . S
H13 C46 0.930 . S
H14 C47 0.930 . S
H15 C45 0.929 . S
H16 C48 0.928 . S
O17 Co1 2.057 . S
O17 C5 1.232 . S
H18 C37 0.929 . S
H19 C38 0.929 . S
H20 C50 0.931 . S
H21 C42 0.929 . S
H22 C51 0.930 . S
H23 C43 0.931 . S
O24 Co0 2.097 . S
O24 C52 1.214 . S
H25 C53 0.929 . S
H26 C54 0.929 . S
H27 C55 0.930 . S
H28 C56 0.929 . S
H29 C58 0.935 . S
H30 C35 0.930 . S
H31 C39 0.930 . S
O32 Co1 2.037 . S
O32 C52 1.234 . S
C33 O7 1.269 . S
C33 O8 1.257 . S
C34 H9 0.930 . S
C34 C37 1.388 . S
C34 C39 1.418 . S
C35 H30 0.930 . S
C35 C38 1.404 . S
C35 C39 1.353 . S
N36 Co1 2.145 . S
N36 C37 1.397 . S
N36 C38 1.334 . S
C37 H18 0.929 . S
C37 C34 1.388 . S
C37 N36 1.397 . S
C38 H19 0.929 . S
C38 C35 1.404 . S
C38 N36 1.334 . S
C39 H31 0.930 . S
C39 C34 1.418 . S
C39 C35 1.353 . S
C40 H10 0.930 . S
C40 N41 1.330 . S
C40 C42 1.446 . S
N41 Co0 2.151 . S
N41 C40 1.330 . S
N41 C45 1.418 . S
C42 H21 0.929 . S
C42 C40 1.446 . S
C42 C43 1.332 . S
C43 H23 0.931 . S
C43 C42 1.332 . S
C43 C44 1.267 . S
C44 H12 0.929 . S
C44 C43 1.267 . S
C44 C45 1.251 . S
C45 H15 0.929 . S
C45 N41 1.418 . S
C45 C44 1.251 . S
C46 H13 0.930 . S
C46 C48 1.406 . S
C46 C51 1.261 . S
C47 H14 0.930 . S
C47 N49 1.325 . S
C47 C50 1.357 . S
C48 H16 0.928 . S
C48 C46 1.406 . S
C48 N49 1.261 . S
N49 Co0 2.214 . S
N49 C47 1.325 . S
N49 C48 1.261 . S
C50 H20 0.931 . S
C50 C47 1.357 . S
C50 C51 1.312 . S
C51 H22 0.930 . S
C51 C46 1.261 . S
C51 C50 1.312 . S
C52 O24 1.214 . S
C52 O32 1.234 . S
C53 H25 0.929 . S
C53 C56 1.391 . S
C53 C58 1.372 1_556 S
C54 H26 0.929 . S
C54 C55 1.390 1_554 S
C54 N57 1.391 . S
C55 H27 0.930 . S
C55 C54 1.390 1_556 S
C55 C56 1.392 . S
C56 H28 0.929 . S
C56 C53 1.391 . S
C56 C55 1.392 . S
N57 Co1 2.257 . S
N57 C54 1.391 . S
N57 C58 1.403 . S
C58 H29 0.935 . S
C58 C53 1.372 1_554 S
C58 N57 1.403 . S
Co59 O61 2.143 . S
Co59 O67 2.074 . S
Co59 O70 2.093 . S
Co59 O83 2.097 . S
Co59 N100 2.151 . S
Co59 N108 2.214 . S
Co60 O61 2.160 . S
Co60 O66 2.058 . S
Co60 O76 2.057 . S
Co60 O91 2.037 . S
Co60 N95 2.145 . S
Co60 N116 2.257 . S
O61 Co59 2.143 . S
O61 Co60 2.160 . S
C62 O63 1.278 . S
C62 O70 1.224 . S
O63 C62 1.278 . S
C64 O65 1.245 . S
C64 O76 1.232 . S
O65 C64 1.245 . S
O66 Co60 2.058 . S
O66 C92 1.269 . S
O67 Co59 2.074 . S
O67 C92 1.257 . S
H68 C93 0.930 . S
H69 C99 0.930 . S
O70 Co59 2.093 . S
O70 C62 1.224 . S
H71 C103 0.929 . S
H72 C105 0.930 . S
H73 C106 0.930 . S
H74 C104 0.929 . S
H75 C107 0.928 . S
O76 Co60 2.057 . S
O76 C64 1.232 . S
H77 C96 0.929 . S
H78 C97 0.929 . S
H79 C109 0.931 . S
H80 C101 0.929 . S
H81 C110 0.930 . S
H82 C102 0.931 . S
O83 Co59 2.097 . S
O83 C111 1.214 . S
H84 C112 0.929 . S
H85 C113 0.929 . S
H86 C114 0.930 . S
H87 C115 0.929 . S
H88 C117 0.930 . S
H89 C94 0.930 . S
H90 C98 0.930 . S
O91 Co60 2.037 . S
O91 C111 1.234 . S
C92 O66 1.269 . S
C92 O67 1.257 . S
C93 H68 0.930 . S
C93 C96 1.388 . S
C93 C98 1.418 . S
C94 H89 0.930 . S
C94 C97 1.404 . S
C94 C98 1.353 . S
N95 Co60 2.145 . S
N95 C96 1.397 . S
N95 C97 1.334 . S
C96 H77 0.929 . S
C96 C93 1.388 . S
C96 N95 1.397 . S
C97 H78 0.929 . S
C97 C94 1.404 . S
C97 N95 1.334 . S
C98 H90 0.930 . S
C98 C93 1.418 . S
C98 C94 1.353 . S
C99 H69 0.930 . S
C99 N100 1.330 . S
C99 C101 1.446 . S
N100 Co59 2.151 . S
N100 C99 1.330 . S
N100 C104 1.418 . S
C101 H80 0.929 . S
C101 C99 1.446 . S
C101 C102 1.332 . S
C102 H82 0.931 . S
C102 C101 1.332 . S
C102 C103 1.267 . S
C103 H71 0.929 . S
C103 C102 1.267 . S
C103 C104 1.251 . S
C104 H74 0.929 . S
C104 N100 1.418 . S
C104 C103 1.251 . S
C105 H72 0.930 . S
C105 C107 1.406 . S
C105 C110 1.261 . S
C106 H73 0.930 . S
C106 N108 1.325 . S
C106 C109 1.357 . S
C107 H75 0.928 . S
C107 C105 1.406 . S
C107 N108 1.261 . S
N108 Co59 2.214 . S
N108 C106 1.325 . S
N108 C107 1.261 . S
C109 H79 0.931 . S
C109 C106 1.357 . S
C109 C110 1.312 . S
C110 H81 0.930 . S
C110 C105 1.261 . S
C110 C109 1.312 . S
C111 O83 1.214 . S
C111 O91 1.234 . S
C112 H84 0.929 . S
C112 C115 1.391 . S
C112 C117 1.391 . S
C113 H85 0.929 . S
C113 C114 1.390 . S
C113 N116 1.391 . S
C114 H86 0.930 . S
C114 C113 1.390 . S
C114 C115 1.392 . S
C115 H87 0.929 . S
C115 C112 1.391 . S
C115 C114 1.392 . S
N116 Co60 2.257 . S
N116 C113 1.391 . S
N116 C117 1.388 . S
C117 H88 0.930 . S
C117 C112 1.391 . S
C117 N116 1.388 . S
Co118 O120 2.143 . S
Co118 O126 2.074 . S
Co118 O129 2.093 . S
Co118 O142 2.097 . S
Co118 N159 2.151 . S
Co118 N167 2.214 . S
Co119 O120 2.160 . S
Co119 O125 2.058 . S
Co119 O135 2.057 . S
Co119 O150 2.037 . S
Co119 N154 2.145 . S
Co119 N175 2.257 . S
O120 Co118 2.143 . S
O120 Co119 2.160 . S
C121 O122 1.278 . S
C121 O129 1.224 . S
O122 C121 1.278 . S
C123 O124 1.245 . S
C123 O135 1.232 . S
O124 C123 1.245 . S
O125 Co119 2.058 . S
O125 C151 1.269 . S
O126 Co118 2.074 . S
O126 C151 1.257 . S
H127 C152 0.930 . S
H128 C158 0.930 . S
O129 Co118 2.093 . S
O129 C121 1.224 . S
H130 C162 0.929 . S
H131 C164 0.930 . S
H132 C165 0.930 . S
H133 C163 0.929 . S
H134 C166 0.928 . S
O135 Co119 2.057 . S
O135 C123 1.232 . S
H136 C155 0.929 . S
H137 C156 0.929 . S
H138 C168 0.931 . S
H139 C160 0.929 . S
H140 C169 0.930 . S
H141 C161 0.931 . S
O142 Co118 2.097 . S
O142 C170 1.214 . S
H143 C171 0.929 . S
H144 C172 0.929 . S
H145 C173 0.930 . S
H146 C174 0.929 . S
H147 C176 0.935 . S
H148 C153 0.930 . S
H149 C157 0.930 . S
O150 Co119 2.037 . S
O150 C170 1.234 . S
C151 O125 1.269 . S
C151 O126 1.257 . S
C152 H127 0.930 . S
C152 C155 1.388 . S
C152 C157 1.418 . S
C153 H148 0.930 . S
C153 C156 1.404 . S
C153 C157 1.353 . S
N154 Co119 2.145 . S
N154 C155 1.397 . S
N154 C156 1.334 . S
C155 H136 0.929 . S
C155 C152 1.388 . S
C155 N154 1.397 . S
C156 H137 0.929 . S
C156 C153 1.404 . S
C156 N154 1.334 . S
C157 H149 0.930 . S
C157 C152 1.418 . S
C157 C153 1.353 . S
C158 H128 0.930 . S
C158 N159 1.330 . S
C158 C160 1.446 . S
N159 Co118 2.151 . S
N159 C158 1.330 . S
N159 C163 1.418 . S
C160 H139 0.929 . S
C160 C158 1.446 . S
C160 C161 1.332 . S
C161 H141 0.931 . S
C161 C160 1.332 . S
C161 C162 1.267 . S
C162 H130 0.929 . S
C162 C161 1.267 . S
C162 C163 1.251 . S
C163 H133 0.929 . S
C163 N159 1.418 . S
C163 C162 1.251 . S
C164 H131 0.930 . S
C164 C166 1.406 . S
C164 C169 1.261 . S
C165 H132 0.930 . S
C165 N167 1.325 . S
C165 C168 1.357 . S
C166 H134 0.928 . S
C166 C164 1.406 . S
C166 N167 1.261 . S
N167 Co118 2.214 . S
N167 C165 1.325 . S
N167 C166 1.261 . S
C168 H138 0.931 . S
C168 C165 1.357 . S
C168 C169 1.312 . S
C169 H140 0.930 . S
C169 C164 1.261 . S
C169 C168 1.312 . S
C170 O142 1.214 . S
C170 O150 1.234 . S
C171 H143 0.929 . S
C171 C174 1.391 . S
C171 C176 1.372 1_554 S
C172 H144 0.929 . S
C172 C173 1.390 1_556 S
C172 N175 1.391 . S
C173 H145 0.930 . S
C173 C172 1.390 1_554 S
C173 C174 1.392 . S
C174 H146 0.929 . S
C174 C171 1.391 . S
C174 C173 1.392 . S
N175 Co119 2.257 . S
N175 C172 1.391 . S
N175 C176 1.403 . S
C176 H147 0.935 . S
C176 C171 1.372 1_556 S
C176 N175 1.403 . S
Co177 O179 2.143 . S
Co177 O185 2.074 . S
Co177 O188 2.093 . S
Co177 O201 2.097 . S
Co177 N218 2.151 . S
Co177 N226 2.214 . S
Co178 O179 2.160 . S
Co178 O184 2.058 . S
Co178 O194 2.057 . S
Co178 O209 2.037 . S
Co178 N213 2.145 . S
Co178 N234 2.257 . S
O179 Co177 2.143 . S
O179 Co178 2.160 . S
C180 O181 1.278 . S
C180 O188 1.224 . S
O181 C180 1.278 . S
C182 O183 1.245 . S
C182 O194 1.232 . S
O183 C182 1.245 . S
O184 Co178 2.058 . S
O184 C210 1.269 . S
O185 Co177 2.074 . S
O185 C210 1.257 . S
H186 C211 0.930 . S
H187 C217 0.930 . S
O188 Co177 2.093 . S
O188 C180 1.224 . S
H189 C221 0.929 . S
H190 C223 0.930 . S
H191 C224 0.930 . S
H192 C222 0.929 . S
H193 C225 0.928 . S
O194 Co178 2.057 . S
O194 C182 1.232 . S
H195 C214 0.929 . S
H196 C215 0.929 . S
H197 C227 0.931 . S
H198 C219 0.929 . S
H199 C228 0.930 . S
H200 C220 0.931 . S
O201 Co177 2.097 . S
O201 C229 1.214 . S
H202 C230 0.929 . S
H203 C231 0.929 . S
H204 C232 0.930 . S
H205 C233 0.929 . S
H206 C235 0.930 . S
H207 C212 0.930 . S
H208 C216 0.930 . S
O209 Co178 2.037 . S
O209 C229 1.234 . S
C210 O184 1.269 . S
C210 O185 1.257 . S
C211 H186 0.930 . S
C211 C214 1.388 . S
C211 C216 1.418 . S
C212 H207 0.930 . S
C212 C215 1.404 . S
C212 C216 1.353 . S
N213 Co178 2.145 . S
N213 C214 1.397 . S
N213 C215 1.334 . S
C214 H195 0.929 . S
C214 C211 1.388 . S
C214 N213 1.397 . S
C215 H196 0.929 . S
C215 C212 1.404 . S
C215 N213 1.334 . S
C216 H208 0.930 . S
C216 C211 1.418 . S
C216 C212 1.353 . S
C217 H187 0.930 . S
C217 N218 1.330 . S
C217 C219 1.446 . S
N218 Co177 2.151 . S
N218 C217 1.330 . S
N218 C222 1.418 . S
C219 H198 0.929 . S
C219 C217 1.446 . S
C219 C220 1.332 . S
C220 H200 0.931 . S
C220 C219 1.332 . S
C220 C221 1.267 . S
C221 H189 0.929 . S
C221 C220 1.267 . S
C221 C222 1.251 . S
C222 H192 0.929 . S
C222 N218 1.418 . S
C222 C221 1.251 . S
C223 H190 0.930 . S
C223 C225 1.406 . S
C223 C228 1.261 . S
C224 H191 0.930 . S
C224 N226 1.325 . S
C224 C227 1.357 . S
C225 H193 0.928 . S
C225 C223 1.406 . S
C225 N226 1.261 . S
N226 Co177 2.214 . S
N226 C224 1.325 . S
N226 C225 1.261 . S
C227 H197 0.931 . S
C227 C224 1.357 . S
C227 C228 1.312 . S
C228 H199 0.930 . S
C228 C223 1.261 . S
C228 C227 1.312 . S
C229 O201 1.214 . S
C229 O209 1.234 . S
C230 H202 0.929 . S
C230 C233 1.391 . S
C230 C235 1.391 . S
C231 H203 0.929 . S
C231 C232 1.390 . S
C231 N234 1.391 . S
C232 H204 0.930 . S
C232 C231 1.390 . S
C232 C233 1.392 . S
C233 H205 0.929 . S
C233 C230 1.391 . S
C233 C232 1.392 . S
N234 Co178 2.257 . S
N234 C231 1.391 . S
N234 C235 1.388 . S
C235 H206 0.930 . S
C235 C230 1.391 . S
C235 N234 1.388 . S
Co236 O238 2.143 . S
Co236 O244 2.074 . S
Co236 O247 2.093 . S
Co236 O260 2.097 . S
Co236 N277 2.151 . S
Co236 N285 2.214 . S
Co237 O238 2.160 . S
Co237 O243 2.058 . S
Co237 O253 2.057 . S
Co237 O268 2.037 . S
Co237 N272 2.147 1_556 S
Co237 N293 2.257 . S
O238 Co236 2.143 . S
O238 Co237 2.160 . S
C239 O240 1.278 . S
C239 O247 1.224 . S
O240 C239 1.278 . S
C241 O242 1.245 . S
C241 O253 1.232 . S
O242 C241 1.245 . S
O243 Co237 2.058 . S
O243 C269 1.269 . S
O244 Co236 2.074 . S
O244 C269 1.257 . S
H245 C270 0.930 . S
H246 C276 0.930 . S
O247 Co236 2.093 . S
O247 C239 1.224 . S
H248 C280 0.929 . S
H249 C282 0.930 . S
H250 C283 0.930 . S
H251 C281 0.929 . S
H252 C284 0.928 . S
O253 Co237 2.057 . S
O253 C241 1.232 . S
H254 C273 0.929 . S
H255 C274 0.929 . S
H256 C286 0.931 . S
H257 C278 0.929 . S
H258 C287 0.930 . S
H259 C279 0.931 . S
O260 Co236 2.097 . S
O260 C288 1.214 . S
H261 C289 0.929 . S
H262 C290 0.929 . S
H263 C291 0.930 . S
H264 C292 0.929 . S
H265 C294 0.930 . S
H266 C271 0.930 . S
H267 C275 0.930 . S
O268 Co237 2.037 . S
O268 C288 1.234 . S
C269 O243 1.269 . S
C269 O244 1.257 . S
C270 H245 0.930 . S
C270 C273 1.388 . S
C270 C275 1.418 . S
C271 H266 0.930 . S
C271 C274 1.404 . S
C271 C275 1.353 . S
N272 Co237 2.147 1_554 S
N272 C273 1.396 . S
N272 C274 1.333 . S
C273 H254 0.929 . S
C273 C270 1.388 . S
C273 N272 1.396 . S
C274 H255 0.929 . S
C274 C271 1.404 . S
C274 N272 1.333 . S
C275 H267 0.930 . S
C275 C270 1.418 . S
C275 C271 1.353 . S
C276 H246 0.930 . S
C276 N277 1.330 . S
C276 C278 1.446 . S
N277 Co236 2.151 . S
N277 C276 1.330 . S
N277 C281 1.418 . S
C278 H257 0.929 . S
C278 C276 1.446 . S
C278 C279 1.332 . S
C279 H259 0.931 . S
C279 C278 1.332 . S
C279 C280 1.267 . S
C280 H248 0.929 . S
C280 C279 1.267 . S
C280 C281 1.251 . S
C281 H251 0.929 . S
C281 N277 1.418 . S
C281 C280 1.251 . S
C282 H249 0.930 . S
C282 C284 1.406 . S
C282 C287 1.261 . S
C283 H250 0.930 . S
C283 N285 1.325 . S
C283 C286 1.357 . S
C284 H252 0.928 . S
C284 C282 1.406 . S
C284 N285 1.261 . S
N285 Co236 2.214 . S
N285 C283 1.325 . S
N285 C284 1.261 . S
C286 H256 0.931 . S
C286 C283 1.357 . S
C286 C287 1.312 . S
C287 H258 0.930 . S
C287 C282 1.261 . S
C287 C286 1.312 . S
C288 O260 1.214 . S
C288 O268 1.234 . S
C289 H261 0.929 . S
C289 C292 1.391 . S
C289 C294 1.391 . S
C290 H262 0.929 . S
C290 C291 1.390 . S
C290 N293 1.391 . S
C291 H263 0.930 . S
C291 C290 1.390 . S
C291 C292 1.392 . S
C292 H264 0.929 . S
C292 C289 1.391 . S
C292 C291 1.392 . S
N293 Co237 2.257 . S
N293 C290 1.391 . S
N293 C294 1.388 . S
C294 H265 0.930 . S
C294 C289 1.391 . S
C294 N293 1.388 . S
Co295 O297 2.143 . S
Co295 O303 2.074 . S
Co295 O306 2.093 . S
Co295 O319 2.097 . S
Co295 N336 2.151 . S
Co295 N344 2.214 . S
Co296 O297 2.160 . S
Co296 O302 2.058 . S
Co296 O312 2.057 . S
Co296 O327 2.037 . S
Co296 N331 2.145 . S
Co296 N352 2.257 . S
O297 Co295 2.143 . S
O297 Co296 2.160 . S
C298 O299 1.278 . S
C298 O306 1.224 . S
O299 C298 1.278 . S
C300 O301 1.245 . S
C300 O312 1.232 . S
O301 C300 1.245 . S
O302 Co296 2.058 . S
O302 C328 1.269 . S
O303 Co295 2.074 . S
O303 C328 1.257 . S
H304 C329 0.930 . S
H305 C335 0.930 . S
O306 Co295 2.093 . S
O306 C298 1.224 . S
H307 C339 0.929 . S
H308 C341 0.930 . S
H309 C342 0.930 . S
H310 C340 0.929 . S
H311 C343 0.928 . S
O312 Co296 2.057 . S
O312 C300 1.232 . S
H313 C332 0.929 . S
H314 C333 0.929 . S
H315 C345 0.931 . S
H316 C337 0.929 . S
H317 C346 0.930 . S
H318 C338 0.931 . S
O319 Co295 2.097 . S
O319 C347 1.214 . S
H320 C348 0.929 . S
H321 C349 0.929 . S
H322 C350 0.930 . S
H323 C351 0.929 . S
H324 C353 0.930 . S
H325 C330 0.930 . S
H326 C334 0.930 . S
O327 Co296 2.037 . S
O327 C347 1.234 . S
C328 O302 1.269 . S
C328 O303 1.257 . S
C329 H304 0.930 . S
C329 C332 1.388 . S
C329 C334 1.418 . S
C330 H325 0.930 . S
C330 C333 1.404 . S
C330 C334 1.353 . S
N331 Co296 2.145 . S
N331 C332 1.397 . S
N331 C333 1.334 . S
C332 H313 0.929 . S
C332 C329 1.388 . S
C332 N331 1.397 . S
C333 H314 0.929 . S
C333 C330 1.404 . S
C333 N331 1.334 . S
C334 H326 0.930 . S
C334 C329 1.418 . S
C334 C330 1.353 . S
C335 H305 0.930 . S
C335 N336 1.330 . S
C335 C337 1.446 . S
N336 Co295 2.151 . S
N336 C335 1.330 . S
N336 C340 1.418 . S
C337 H316 0.929 . S
C337 C335 1.446 . S
C337 C338 1.332 . S
C338 H318 0.931 . S
C338 C337 1.332 . S
C338 C339 1.267 . S
C339 H307 0.929 . S
C339 C338 1.267 . S
C339 C340 1.251 . S
C340 H310 0.929 . S
C340 N336 1.418 . S
C340 C339 1.251 . S
C341 H308 0.930 . S
C341 C343 1.406 . S
C341 C346 1.261 . S
C342 H309 0.930 . S
C342 N344 1.325 . S
C342 C345 1.357 . S
C343 H311 0.928 . S
C343 C341 1.406 . S
C343 N344 1.261 . S
N344 Co295 2.214 . S
N344 C342 1.325 . S
N344 C343 1.261 . S
C345 H315 0.931 . S
C345 C342 1.357 . S
C345 C346 1.312 . S
C346 H317 0.930 . S
C346 C341 1.261 . S
C346 C345 1.312 . S
C347 O319 1.214 . S
C347 O327 1.234 . S
C348 H320 0.929 . S
C348 C351 1.391 . S
C348 C353 1.391 . S
C349 H321 0.929 . S
C349 C350 1.390 . S
C349 N352 1.391 . S
C350 H322 0.930 . S
C350 C349 1.390 . S
C350 C351 1.392 . S
C351 H323 0.929 . S
C351 C348 1.391 . S
C351 C350 1.392 . S
N352 Co296 2.257 . S
N352 C349 1.391 . S
N352 C353 1.388 . S
C353 H324 0.930 . S
C353 C348 1.391 . S
C353 N352 1.388 . S
Co354 O356 2.143 . S
Co354 O362 2.074 . S
Co354 O365 2.093 . S
Co354 O378 2.097 . S
Co354 N395 2.151 . S
Co354 N403 2.214 . S
Co355 O356 2.160 . S
Co355 O361 2.058 . S
Co355 O371 2.057 . S
Co355 O386 2.037 . S
Co355 N390 2.147 1_554 S
Co355 N411 2.257 . S
O356 Co354 2.143 . S
O356 Co355 2.160 . S
C357 O358 1.278 . S
C357 O365 1.224 . S
O358 C357 1.278 . S
C359 O360 1.245 . S
C359 O371 1.232 . S
O360 C359 1.245 . S
O361 Co355 2.058 . S
O361 C387 1.269 . S
O362 Co354 2.074 . S
O362 C387 1.257 . S
H363 C388 0.930 . S
H364 C394 0.930 . S
O365 Co354 2.093 . S
O365 C357 1.224 . S
H366 C398 0.929 . S
H367 C400 0.930 . S
H368 C401 0.930 . S
H369 C399 0.929 . S
H370 C402 0.928 . S
O371 Co355 2.057 . S
O371 C359 1.232 . S
H372 C391 0.929 . S
H373 C392 0.929 . S
H374 C404 0.931 . S
H375 C396 0.929 . S
H376 C405 0.930 . S
H377 C397 0.931 . S
O378 Co354 2.097 . S
O378 C406 1.214 . S
H379 C407 0.929 . S
H380 C408 0.929 . S
H381 C409 0.930 . S
H382 C410 0.929 . S
H383 C412 0.930 . S
H384 C389 0.930 . S
H385 C393 0.930 . S
O386 Co355 2.037 . S
O386 C406 1.234 . S
C387 O361 1.269 . S
C387 O362 1.257 . S
C388 H363 0.930 . S
C388 C391 1.388 . S
C388 C393 1.418 . S
C389 H384 0.930 . S
C389 C392 1.404 . S
C389 C393 1.353 . S
N390 Co355 2.147 1_556 S
N390 C391 1.396 . S
N390 C392 1.333 . S
C391 H372 0.929 . S
C391 C388 1.388 . S
C391 N390 1.396 . S
C392 H373 0.929 . S
C392 C389 1.404 . S
C392 N390 1.333 . S
C393 H385 0.930 . S
C393 C388 1.418 . S
C393 C389 1.353 . S
C394 H364 0.930 . S
C394 N395 1.330 . S
C394 C396 1.446 . S
N395 Co354 2.151 . S
N395 C394 1.330 . S
N395 C399 1.418 . S
C396 H375 0.929 . S
C396 C394 1.446 . S
C396 C397 1.332 . S
C397 H377 0.931 . S
C397 C396 1.332 . S
C397 C398 1.267 . S
C398 H366 0.929 . S
C398 C397 1.267 . S
C398 C399 1.251 . S
C399 H369 0.929 . S
C399 N395 1.418 . S
C399 C398 1.251 . S
C400 H367 0.930 . S
C400 C402 1.406 . S
C400 C405 1.261 . S
C401 H368 0.930 . S
C401 N403 1.325 . S
C401 C404 1.357 . S
C402 H370 0.928 . S
C402 C400 1.406 . S
C402 N403 1.261 . S
N403 Co354 2.214 . S
N403 C401 1.325 . S
N403 C402 1.261 . S
C404 H374 0.931 . S
C404 C401 1.357 . S
C404 C405 1.312 . S
C405 H376 0.930 . S
C405 C400 1.261 . S
C405 C404 1.312 . S
C406 O378 1.214 . S
C406 O386 1.234 . S
C407 H379 0.929 . S
C407 C410 1.391 . S
C407 C412 1.391 . S
C408 H380 0.929 . S
C408 C409 1.390 . S
C408 N411 1.391 . S
C409 H381 0.930 . S
C409 C408 1.390 . S
C409 C410 1.392 . S
C410 H382 0.929 . S
C410 C407 1.391 . S
C410 C409 1.392 . S
N411 Co355 2.257 . S
N411 C408 1.391 . S
N411 C412 1.388 . S
C412 H383 0.930 . S
C412 C407 1.391 . S
C412 N411 1.388 . S
Co413 O415 2.143 . S
Co413 O421 2.074 . S
Co413 O424 2.093 . S
Co413 O437 2.097 . S
Co413 N454 2.151 . S
Co413 N462 2.214 . S
Co414 O415 2.160 . S
Co414 O420 2.058 . S
Co414 O430 2.057 . S
Co414 O445 2.037 . S
Co414 N449 2.145 . S
Co414 N470 2.257 . S
O415 Co413 2.143 . S
O415 Co414 2.160 . S
C416 O417 1.278 . S
C416 O424 1.224 . S
O417 C416 1.278 . S
C418 O419 1.245 . S
C418 O430 1.232 . S
O419 C418 1.245 . S
O420 Co414 2.058 . S
O420 C446 1.269 . S
O421 Co413 2.074 . S
O421 C446 1.257 . S
H422 C447 0.930 . S
H423 C453 0.930 . S
O424 Co413 2.093 . S
O424 C416 1.224 . S
H425 C457 0.929 . S
H426 C459 0.930 . S
H427 C460 0.930 . S
H428 C458 0.929 . S
H429 C461 0.928 . S
O430 Co414 2.057 . S
O430 C418 1.232 . S
H431 C450 0.929 . S
H432 C451 0.929 . S
H433 C463 0.931 . S
H434 C455 0.929 . S
H435 C464 0.930 . S
H436 C456 0.931 . S
O437 Co413 2.097 . S
O437 C465 1.214 . S
H438 C466 0.929 . S
H439 C467 0.929 . S
H440 C468 0.930 . S
H441 C469 0.929 . S
H442 C471 0.930 . S
H443 C448 0.930 . S
H444 C452 0.930 . S
O445 Co414 2.037 . S
O445 C465 1.234 . S
C446 O420 1.269 . S
C446 O421 1.257 . S
C447 H422 0.930 . S
C447 C450 1.388 . S
C447 C452 1.418 . S
C448 H443 0.930 . S
C448 C451 1.404 . S
C448 C452 1.353 . S
N449 Co414 2.145 . S
N449 C450 1.397 . S
N449 C451 1.334 . S
C450 H431 0.929 . S
C450 C447 1.388 . S
C450 N449 1.397 . S
C451 H432 0.929 . S
C451 C448 1.404 . S
C451 N449 1.334 . S
C452 H444 0.930 . S
C452 C447 1.418 . S
C452 C448 1.353 . S
C453 H423 0.930 . S
C453 N454 1.330 . S
C453 C455 1.446 . S
N454 Co413 2.151 . S
N454 C453 1.330 . S
N454 C458 1.418 . S
C455 H434 0.929 . S
C455 C453 1.446 . S
C455 C456 1.332 . S
C456 H436 0.931 . S
C456 C455 1.332 . S
C456 C457 1.267 . S
C457 H425 0.929 . S
C457 C456 1.267 . S
C457 C458 1.251 . S
C458 H428 0.929 . S
C458 N454 1.418 . S
C458 C457 1.251 . S
C459 H426 0.930 . S
C459 C461 1.406 . S
C459 C464 1.261 . S
C460 H427 0.930 . S
C460 N462 1.325 . S
C460 C463 1.357 . S
C461 H429 0.928 . S
C461 C459 1.406 . S
C461 N462 1.261 . S
N462 Co413 2.214 . S
N462 C460 1.325 . S
N462 C461 1.261 . S
C463 H433 0.931 . S
C463 C460 1.357 . S
C463 C464 1.312 . S
C464 H435 0.930 . S
C464 C459 1.261 . S
C464 C463 1.312 . S
C465 O437 1.214 . S
C465 O445 1.234 . S
C466 H438 0.929 . S
C466 C469 1.391 . S
C466 C471 1.391 . S
C467 H439 0.929 . S
C467 C468 1.390 . S
C467 N470 1.391 . S
C468 H440 0.930 . S
C468 C467 1.390 . S
C468 C469 1.392 . S
C469 H441 0.929 . S
C469 C466 1.391 . S
C469 C468 1.392 . S
N470 Co414 2.257 . S
N470 C467 1.391 . S
N470 C471 1.388 . S
C471 H442 0.930 . S
C471 C466 1.391 . S
C471 N470 1.388 . S
Co472 O474 2.143 . S
Co472 O480 2.074 . S
Co472 O483 2.093 . S
Co472 O496 2.097 . S
Co472 N513 2.151 . S
Co472 N521 2.214 . S
Co473 O474 2.160 . S
Co473 O479 2.058 . S
Co473 O489 2.057 . S
Co473 O504 2.037 . S
Co473 N508 2.145 . S
Co473 N529 2.257 . S
O474 Co472 2.143 . S
O474 Co473 2.160 . S
C475 O476 1.278 . S
C475 O483 1.224 . S
O476 C475 1.278 . S
C477 O478 1.245 . S
C477 O489 1.232 . S
O478 C477 1.245 . S
O479 Co473 2.058 . S
O479 C505 1.269 . S
O480 Co472 2.074 . S
O480 C505 1.257 . S
H481 C506 0.930 . S
H482 C512 0.930 . S
O483 Co472 2.093 . S
O483 C475 1.224 . S
H484 C516 0.929 . S
H485 C518 0.930 . S
H486 C519 0.930 . S
H487 C517 0.929 . S
H488 C520 0.928 . S
O489 Co473 2.057 . S
O489 C477 1.232 . S
H490 C509 0.929 . S
H491 C510 0.929 . S
H492 C522 0.931 . S
H493 C514 0.929 . S
H494 C523 0.930 . S
H495 C515 0.931 . S
O496 Co472 2.097 . S
O496 C524 1.214 . S
H497 C525 0.929 . S
H498 C526 0.929 . S
H499 C527 0.930 . S
H500 C528 0.929 . S
H501 C530 0.935 . S
H502 C507 0.930 . S
H503 C511 0.930 . S
O504 Co473 2.037 . S
O504 C524 1.234 . S
C505 O479 1.269 . S
C505 O480 1.257 . S
C506 H481 0.930 . S
C506 C509 1.388 . S
C506 C511 1.418 . S
C507 H502 0.930 . S
C507 C510 1.404 . S
C507 C511 1.353 . S
N508 Co473 2.145 . S
N508 C509 1.397 . S
N508 C510 1.334 . S
C509 H490 0.929 . S
C509 C506 1.388 . S
C509 N508 1.397 . S
C510 H491 0.929 . S
C510 C507 1.404 . S
C510 N508 1.334 . S
C511 H503 0.930 . S
C511 C506 1.418 . S
C511 C507 1.353 . S
C512 H482 0.930 . S
C512 N513 1.330 . S
C512 C514 1.446 . S
N513 Co472 2.151 . S
N513 C512 1.330 . S
N513 C517 1.418 . S
C514 H493 0.929 . S
C514 C512 1.446 . S
C514 C515 1.332 . S
C515 H495 0.931 . S
C515 C514 1.332 . S
C515 C516 1.267 . S
C516 H484 0.929 . S
C516 C515 1.267 . S
C516 C517 1.251 . S
C517 H487 0.929 . S
C517 N513 1.418 . S
C517 C516 1.251 . S
C518 H485 0.930 . S
C518 C520 1.406 . S
C518 C523 1.261 . S
C519 H486 0.930 . S
C519 N521 1.325 . S
C519 C522 1.357 . S
C520 H488 0.928 . S
C520 C518 1.406 . S
C520 N521 1.261 . S
N521 Co472 2.214 . S
N521 C519 1.325 . S
N521 C520 1.261 . S
C522 H492 0.931 . S
C522 C519 1.357 . S
C522 C523 1.312 . S
C523 H494 0.930 . S
C523 C518 1.261 . S
C523 C522 1.312 . S
C524 O496 1.214 . S
C524 O504 1.234 . S
C525 H497 0.929 . S
C525 C528 1.391 . S
C525 C530 1.372 1_556 S
C526 H498 0.929 . S
C526 C527 1.390 1_554 S
C526 N529 1.391 . S
C527 H499 0.930 . S
C527 C526 1.390 1_556 S
C527 C528 1.392 . S
C528 H500 0.929 . S
C528 C525 1.391 . S
C528 C527 1.392 . S
N529 Co473 2.257 . S
N529 C526 1.391 . S
N529 C530 1.403 . S
C530 H501 0.935 . S
C530 C525 1.372 1_554 S
C530 N529 1.403 . S
Co531 O533 2.143 . S
Co531 O539 2.074 . S
Co531 O542 2.093 . S
Co531 O555 2.097 . S
Co531 N572 2.151 . S
Co531 N580 2.214 . S
Co532 O533 2.160 . S
Co532 O538 2.058 . S
Co532 O548 2.057 . S
Co532 O563 2.037 . S
Co532 N567 2.145 . S
Co532 N588 2.257 . S
O533 Co531 2.143 . S
O533 Co532 2.160 . S
C534 O535 1.278 . S
C534 O542 1.224 . S
O535 C534 1.278 . S
C536 O537 1.245 . S
C536 O548 1.232 . S
O537 C536 1.245 . S
O538 Co532 2.058 . S
O538 C564 1.269 . S
O539 Co531 2.074 . S
O539 C564 1.257 . S
H540 C565 0.930 . S
H541 C571 0.930 . S
O542 Co531 2.093 . S
O542 C534 1.224 . S
H543 C575 0.929 . S
H544 C577 0.930 . S
H545 C578 0.930 . S
H546 C576 0.929 . S
H547 C579 0.928 . S
O548 Co532 2.057 . S
O548 C536 1.232 . S
H549 C568 0.929 . S
H550 C569 0.929 . S
H551 C581 0.931 . S
H552 C573 0.929 . S
H553 C582 0.930 . S
H554 C574 0.931 . S
O555 Co531 2.097 . S
O555 C583 1.214 . S
H556 C584 0.929 . S
H557 C585 0.929 . S
H558 C586 0.930 . S
H559 C587 0.929 . S
H560 C589 0.930 . S
H561 C566 0.930 . S
H562 C570 0.930 . S
O563 Co532 2.037 . S
O563 C583 1.234 . S
C564 O538 1.269 . S
C564 O539 1.257 . S
C565 H540 0.930 . S
C565 C568 1.388 . S
C565 C570 1.418 . S
C566 H561 0.930 . S
C566 C569 1.404 . S
C566 C570 1.353 . S
N567 Co532 2.145 . S
N567 C568 1.397 . S
N567 C569 1.334 . S
C568 H549 0.929 . S
C568 C565 1.388 . S
C568 N567 1.397 . S
C569 H550 0.929 . S
C569 C566 1.404 . S
C569 N567 1.334 . S
C570 H562 0.930 . S
C570 C565 1.418 . S
C570 C566 1.353 . S
C571 H541 0.930 . S
C571 N572 1.330 . S
C571 C573 1.446 . S
N572 Co531 2.151 . S
N572 C571 1.330 . S
N572 C576 1.418 . S
C573 H552 0.929 . S
C573 C571 1.446 . S
C573 C574 1.332 . S
C574 H554 0.931 . S
C574 C573 1.332 . S
C574 C575 1.267 . S
C575 H543 0.929 . S
C575 C574 1.267 . S
C575 C576 1.251 . S
C576 H546 0.929 . S
C576 N572 1.418 . S
C576 C575 1.251 . S
C577 H544 0.930 . S
C577 C579 1.406 . S
C577 C582 1.261 . S
C578 H545 0.930 . S
C578 N580 1.325 . S
C578 C581 1.357 . S
C579 H547 0.928 . S
C579 C577 1.406 . S
C579 N580 1.261 . S
N580 Co531 2.214 . S
N580 C578 1.325 . S
N580 C579 1.261 . S
C581 H551 0.931 . S
C581 C578 1.357 . S
C581 C582 1.312 . S
C582 H553 0.930 . S
C582 C577 1.261 . S
C582 C581 1.312 . S
C583 O555 1.214 . S
C583 O563 1.234 . S
C584 H556 0.929 . S
C584 C587 1.391 . S
C584 C589 1.391 . S
C585 H557 0.929 . S
C585 C586 1.390 . S
C585 N588 1.391 . S
C586 H558 0.930 . S
C586 C585 1.390 . S
C586 C587 1.392 . S
C587 H559 0.929 . S
C587 C584 1.391 . S
C587 C586 1.392 . S
N588 Co532 2.257 . S
N588 C585 1.391 . S
N588 C589 1.388 . S
C589 H560 0.930 . S
C589 C584 1.391 . S
C589 N588 1.388 . S
Co590 O592 2.143 . S
Co590 O598 2.074 . S
Co590 O601 2.093 . S
Co590 O614 2.097 . S
Co590 N631 2.151 . S
Co590 N639 2.214 . S
Co591 O592 2.160 . S
Co591 O597 2.058 . S
Co591 O607 2.057 . S
Co591 O622 2.037 . S
Co591 N626 2.145 . S
Co591 N647 2.257 . S
O592 Co590 2.143 . S
O592 Co591 2.160 . S
C593 O594 1.278 . S
C593 O601 1.224 . S
O594 C593 1.278 . S
C595 O596 1.245 . S
C595 O607 1.232 . S
O596 C595 1.245 . S
O597 Co591 2.058 . S
O597 C623 1.269 . S
O598 Co590 2.074 . S
O598 C623 1.257 . S
H599 C624 0.930 . S
H600 C630 0.930 . S
O601 Co590 2.093 . S
O601 C593 1.224 . S
H602 C634 0.929 . S
H603 C636 0.930 . S
H604 C637 0.930 . S
H605 C635 0.929 . S
H606 C638 0.928 . S
O607 Co591 2.057 . S
O607 C595 1.232 . S
H608 C627 0.929 . S
H609 C628 0.929 . S
H610 C640 0.931 . S
H611 C632 0.929 . S
H612 C641 0.930 . S
H613 C633 0.931 . S
O614 Co590 2.097 . S
O614 C642 1.214 . S
H615 C643 0.929 . S
H616 C644 0.929 . S
H617 C645 0.930 . S
H618 C646 0.929 . S
H619 C648 0.935 . S
H620 C625 0.930 . S
H621 C629 0.930 . S
O622 Co591 2.037 . S
O622 C642 1.234 . S
C623 O597 1.269 . S
C623 O598 1.257 . S
C624 H599 0.930 . S
C624 C627 1.388 . S
C624 C629 1.418 . S
C625 H620 0.930 . S
C625 C628 1.404 . S
C625 C629 1.353 . S
N626 Co591 2.145 . S
N626 C627 1.397 . S
N626 C628 1.334 . S
C627 H608 0.929 . S
C627 C624 1.388 . S
C627 N626 1.397 . S
C628 H609 0.929 . S
C628 C625 1.404 . S
C628 N626 1.334 . S
C629 H621 0.930 . S
C629 C624 1.418 . S
C629 C625 1.353 . S
C630 H600 0.930 . S
C630 N631 1.330 . S
C630 C632 1.446 . S
N631 Co590 2.151 . S
N631 C630 1.330 . S
N631 C635 1.418 . S
C632 H611 0.929 . S
C632 C630 1.446 . S
C632 C633 1.332 . S
C633 H613 0.931 . S
C633 C632 1.332 . S
C633 C634 1.267 . S
C634 H602 0.929 . S
C634 C633 1.267 . S
C634 C635 1.251 . S
C635 H605 0.929 . S
C635 N631 1.418 . S
C635 C634 1.251 . S
C636 H603 0.930 . S
C636 C638 1.406 . S
C636 C641 1.261 . S
C637 H604 0.930 . S
C637 N639 1.325 . S
C637 C640 1.357 . S
C638 H606 0.928 . S
C638 C636 1.406 . S
C638 N639 1.261 . S
N639 Co590 2.214 . S
N639 C637 1.325 . S
N639 C638 1.261 . S
C640 H610 0.931 . S
C640 C637 1.357 . S
C640 C641 1.312 . S
C641 H612 0.930 . S
C641 C636 1.261 . S
C641 C640 1.312 . S
C642 O614 1.214 . S
C642 O622 1.234 . S
C643 H615 0.929 . S
C643 C646 1.391 . S
C643 C648 1.372 1_554 S
C644 H616 0.929 . S
C644 C645 1.390 1_556 S
C644 N647 1.391 . S
C645 H617 0.930 . S
C645 C644 1.390 1_554 S
C645 C646 1.392 . S
C646 H618 0.929 . S
C646 C643 1.391 . S
C646 C645 1.392 . S
N647 Co591 2.257 . S
N647 C644 1.391 . S
N647 C648 1.403 . S
C648 H619 0.935 . S
C648 C643 1.372 1_556 S
C648 N647 1.403 . S
Co649 O651 2.143 . S
Co649 O657 2.074 . S
Co649 O660 2.093 . S
Co649 O673 2.097 . S
Co649 N690 2.151 . S
Co649 N698 2.214 . S
Co650 O651 2.160 . S
Co650 O656 2.058 . S
Co650 O666 2.057 . S
Co650 O681 2.037 . S
Co650 N685 2.145 . S
Co650 N706 2.257 . S
O651 Co649 2.143 . S
O651 Co650 2.160 . S
C652 O653 1.278 . S
C652 O660 1.224 . S
O653 C652 1.278 . S
C654 O655 1.245 . S
C654 O666 1.232 . S
O655 C654 1.245 . S
O656 Co650 2.058 . S
O656 C682 1.269 . S
O657 Co649 2.074 . S
O657 C682 1.257 . S
H658 C683 0.930 . S
H659 C689 0.930 . S
O660 Co649 2.093 . S
O660 C652 1.224 . S
H661 C693 0.929 . S
H662 C695 0.930 . S
H663 C696 0.930 . S
H664 C694 0.929 . S
H665 C697 0.928 . S
O666 Co650 2.057 . S
O666 C654 1.232 . S
H667 C686 0.929 . S
H668 C687 0.929 . S
H669 C699 0.931 . S
H670 C691 0.929 . S
H671 C700 0.930 . S
H672 C692 0.931 . S
O673 Co649 2.097 . S
O673 C701 1.214 . S
H674 C702 0.929 . S
H675 C703 0.929 . S
H676 C704 0.930 . S
H677 C705 0.929 . S
H678 C707 0.930 . S
H679 C684 0.930 . S
H680 C688 0.930 . S
O681 Co650 2.037 . S
O681 C701 1.234 . S
C682 O656 1.269 . S
C682 O657 1.257 . S
C683 H658 0.930 . S
C683 C686 1.388 . S
C683 C688 1.418 . S
C684 H679 0.930 . S
C684 C687 1.404 . S
C684 C688 1.353 . S
N685 Co650 2.145 . S
N685 C686 1.397 . S
N685 C687 1.334 . S
C686 H667 0.929 . S
C686 C683 1.388 . S
C686 N685 1.397 . S
C687 H668 0.929 . S
C687 C684 1.404 . S
C687 N685 1.334 . S
C688 H680 0.930 . S
C688 C683 1.418 . S
C688 C684 1.353 . S
C689 H659 0.930 . S
C689 N690 1.330 . S
C689 C691 1.446 . S
N690 Co649 2.151 . S
N690 C689 1.330 . S
N690 C694 1.418 . S
C691 H670 0.929 . S
C691 C689 1.446 . S
C691 C692 1.332 . S
C692 H672 0.931 . S
C692 C691 1.332 . S
C692 C693 1.267 . S
C693 H661 0.929 . S
C693 C692 1.267 . S
C693 C694 1.251 . S
C694 H664 0.929 . S
C694 N690 1.418 . S
C694 C693 1.251 . S
C695 H662 0.930 . S
C695 C697 1.406 . S
C695 C700 1.261 . S
C696 H663 0.930 . S
C696 N698 1.325 . S
C696 C699 1.357 . S
C697 H665 0.928 . S
C697 C695 1.406 . S
C697 N698 1.261 . S
N698 Co649 2.214 . S
N698 C696 1.325 . S
N698 C697 1.261 . S
C699 H669 0.931 . S
C699 C696 1.357 . S
C699 C700 1.312 . S
C700 H671 0.930 . S
C700 C695 1.261 . S
C700 C699 1.312 . S
C701 O673 1.214 . S
C701 O681 1.234 . S
C702 H674 0.929 . S
C702 C705 1.391 . S
C702 C707 1.391 . S
C703 H675 0.929 . S
C703 C704 1.390 . S
C703 N706 1.391 . S
C704 H676 0.930 . S
C704 C703 1.390 . S
C704 C705 1.392 . S
C705 H677 0.929 . S
C705 C702 1.391 . S
C705 C704 1.392 . S
N706 Co650 2.257 . S
N706 C703 1.391 . S
N706 C707 1.388 . S
C707 H678 0.930 . S
C707 C702 1.391 . S
C707 N706 1.388 . S
Co708 O710 2.143 . S
Co708 O716 2.074 . S
Co708 O719 2.093 . S
Co708 O732 2.097 . S
Co708 N749 2.151 . S
Co708 N757 2.214 . S
Co709 O710 2.160 . S
Co709 O715 2.058 . S
Co709 O725 2.057 . S
Co709 O740 2.037 . S
Co709 N744 2.147 1_556 S
Co709 N765 2.257 . S
O710 Co708 2.143 . S
O710 Co709 2.160 . S
C711 O712 1.278 . S
C711 O719 1.224 . S
O712 C711 1.278 . S
C713 O714 1.245 . S
C713 O725 1.232 . S
O714 C713 1.245 . S
O715 Co709 2.058 . S
O715 C741 1.269 . S
O716 Co708 2.074 . S
O716 C741 1.257 . S
H717 C742 0.930 . S
H718 C748 0.930 . S
O719 Co708 2.093 . S
O719 C711 1.224 . S
H720 C752 0.929 . S
H721 C754 0.930 . S
H722 C755 0.930 . S
H723 C753 0.929 . S
H724 C756 0.928 . S
O725 Co709 2.057 . S
O725 C713 1.232 . S
H726 C745 0.929 . S
H727 C746 0.929 . S
H728 C758 0.931 . S
H729 C750 0.929 . S
H730 C759 0.930 . S
H731 C751 0.931 . S
O732 Co708 2.097 . S
O732 C760 1.214 . S
H733 C761 0.929 . S
H734 C762 0.929 . S
H735 C763 0.930 . S
H736 C764 0.929 . S
H737 C766 0.930 . S
H738 C743 0.930 . S
H739 C747 0.930 . S
O740 Co709 2.037 . S
O740 C760 1.234 . S
C741 O715 1.269 . S
C741 O716 1.257 . S
C742 H717 0.930 . S
C742 C745 1.388 . S
C742 C747 1.418 . S
C743 H738 0.930 . S
C743 C746 1.404 . S
C743 C747 1.353 . S
N744 Co709 2.147 1_554 S
N744 C745 1.396 . S
N744 C746 1.333 . S
C745 H726 0.929 . S
C745 C742 1.388 . S
C745 N744 1.396 . S
C746 H727 0.929 . S
C746 C743 1.404 . S
C746 N744 1.333 . S
C747 H739 0.930 . S
C747 C742 1.418 . S
C747 C743 1.353 . S
C748 H718 0.930 . S
C748 N749 1.330 . S
C748 C750 1.446 . S
N749 Co708 2.151 . S
N749 C748 1.330 . S
N749 C753 1.418 . S
C750 H729 0.929 . S
C750 C748 1.446 . S
C750 C751 1.332 . S
C751 H731 0.931 . S
C751 C750 1.332 . S
C751 C752 1.267 . S
C752 H720 0.929 . S
C752 C751 1.267 . S
C752 C753 1.251 . S
C753 H723 0.929 . S
C753 N749 1.418 . S
C753 C752 1.251 . S
C754 H721 0.930 . S
C754 C756 1.406 . S
C754 C759 1.261 . S
C755 H722 0.930 . S
C755 N757 1.325 . S
C755 C758 1.357 . S
C756 H724 0.928 . S
C756 C754 1.406 . S
C756 N757 1.261 . S
N757 Co708 2.214 . S
N757 C755 1.325 . S
N757 C756 1.261 . S
C758 H728 0.931 . S
C758 C755 1.357 . S
C758 C759 1.312 . S
C759 H730 0.930 . S
C759 C754 1.261 . S
C759 C758 1.312 . S
C760 O732 1.214 . S
C760 O740 1.234 . S
C761 H733 0.929 . S
C761 C764 1.391 . S
C761 C766 1.391 . S
C762 H734 0.929 . S
C762 C763 1.390 . S
C762 N765 1.391 . S
C763 H735 0.930 . S
C763 C762 1.390 . S
C763 C764 1.392 . S
C764 H736 0.929 . S
C764 C761 1.391 . S
C764 C763 1.392 . S
N765 Co709 2.257 . S
N765 C762 1.391 . S
N765 C766 1.388 . S
C766 H737 0.930 . S
C766 C761 1.391 . S
C766 N765 1.388 . S
Co767 O769 2.143 . S
Co767 O775 2.074 . S
Co767 O778 2.093 . S
Co767 O791 2.097 . S
Co767 N808 2.151 . S
Co767 N816 2.214 . S
Co768 O769 2.160 . S
Co768 O774 2.058 . S
Co768 O784 2.057 . S
Co768 O799 2.037 . S
Co768 N803 2.145 . S
Co768 N824 2.257 . S
O769 Co767 2.143 . S
O769 Co768 2.160 . S
C770 O771 1.278 . S
C770 O778 1.224 . S
O771 C770 1.278 . S
C772 O773 1.245 . S
C772 O784 1.232 . S
O773 C772 1.245 . S
O774 Co768 2.058 . S
O774 C800 1.269 . S
O775 Co767 2.074 . S
O775 C800 1.257 . S
H776 C801 0.930 . S
H777 C807 0.930 . S
O778 Co767 2.093 . S
O778 C770 1.224 . S
H779 C811 0.929 . S
H780 C813 0.930 . S
H781 C814 0.930 . S
H782 C812 0.929 . S
H783 C815 0.928 . S
O784 Co768 2.057 . S
O784 C772 1.232 . S
H785 C804 0.929 . S
H786 C805 0.929 . S
H787 C817 0.931 . S
H788 C809 0.929 . S
H789 C818 0.930 . S
H790 C810 0.931 . S
O791 Co767 2.097 . S
O791 C819 1.214 . S
H792 C820 0.929 . S
H793 C821 0.929 . S
H794 C822 0.930 . S
H795 C823 0.929 . S
H796 C825 0.930 . S
H797 C802 0.930 . S
H798 C806 0.930 . S
O799 Co768 2.037 . S
O799 C819 1.234 . S
C800 O774 1.269 . S
C800 O775 1.257 . S
C801 H776 0.930 . S
C801 C804 1.388 . S
C801 C806 1.418 . S
C802 H797 0.930 . S
C802 C805 1.404 . S
C802 C806 1.353 . S
N803 Co768 2.145 . S
N803 C804 1.397 . S
N803 C805 1.334 . S
C804 H785 0.929 . S
C804 C801 1.388 . S
C804 N803 1.397 . S
C805 H786 0.929 . S
C805 C802 1.404 . S
C805 N803 1.334 . S
C806 H798 0.930 . S
C806 C801 1.418 . S
C806 C802 1.353 . S
C807 H777 0.930 . S
C807 N808 1.330 . S
C807 C809 1.446 . S
N808 Co767 2.151 . S
N808 C807 1.330 . S
N808 C812 1.418 . S
C809 H788 0.929 . S
C809 C807 1.446 . S
C809 C810 1.332 . S
C810 H790 0.931 . S
C810 C809 1.332 . S
C810 C811 1.267 . S
C811 H779 0.929 . S
C811 C810 1.267 . S
C811 C812 1.251 . S
C812 H782 0.929 . S
C812 N808 1.418 . S
C812 C811 1.251 . S
C813 H780 0.930 . S
C813 C815 1.406 . S
C813 C818 1.261 . S
C814 H781 0.930 . S
C814 N816 1.325 . S
C814 C817 1.357 . S
C815 H783 0.928 . S
C815 C813 1.406 . S
C815 N816 1.261 . S
N816 Co767 2.214 . S
N816 C814 1.325 . S
N816 C815 1.261 . S
C817 H787 0.931 . S
C817 C814 1.357 . S
C817 C818 1.312 . S
C818 H789 0.930 . S
C818 C813 1.261 . S
C818 C817 1.312 . S
C819 O791 1.214 . S
C819 O799 1.234 . S
C820 H792 0.929 . S
C820 C823 1.391 . S
C820 C825 1.391 . S
C821 H793 0.929 . S
C821 C822 1.390 . S
C821 N824 1.391 . S
C822 H794 0.930 . S
C822 C821 1.390 . S
C822 C823 1.392 . S
C823 H795 0.929 . S
C823 C820 1.391 . S
C823 C822 1.392 . S
N824 Co768 2.257 . S
N824 C821 1.391 . S
N824 C825 1.388 . S
C825 H796 0.930 . S
C825 C820 1.391 . S
C825 N824 1.388 . S
Co826 O828 2.143 . S
Co826 O834 2.074 . S
Co826 O837 2.093 . S
Co826 O850 2.097 . S
Co826 N867 2.151 . S
Co826 N875 2.214 . S
Co827 O828 2.160 . S
Co827 O833 2.058 . S
Co827 O843 2.057 . S
Co827 O858 2.037 . S
Co827 N862 2.147 1_554 S
Co827 N883 2.257 . S
O828 Co826 2.143 . S
O828 Co827 2.160 . S
C829 O830 1.278 . S
C829 O837 1.224 . S
O830 C829 1.278 . S
C831 O832 1.245 . S
C831 O843 1.232 . S
O832 C831 1.245 . S
O833 Co827 2.058 . S
O833 C859 1.269 . S
O834 Co826 2.074 . S
O834 C859 1.257 . S
H835 C860 0.930 . S
H836 C866 0.930 . S
O837 Co826 2.093 . S
O837 C829 1.224 . S
H838 C870 0.929 . S
H839 C872 0.930 . S
H840 C873 0.930 . S
H841 C871 0.929 . S
H842 C874 0.928 . S
O843 Co827 2.057 . S
O843 C831 1.232 . S
H844 C863 0.929 . S
H845 C864 0.929 . S
H846 C876 0.931 . S
H847 C868 0.929 . S
H848 C877 0.930 . S
H849 C869 0.931 . S
O850 Co826 2.097 . S
O850 C878 1.214 . S
H851 C879 0.929 . S
H852 C880 0.929 . S
H853 C881 0.930 . S
H854 C882 0.929 . S
H855 C884 0.930 . S
H856 C861 0.930 . S
H857 C865 0.930 . S
O858 Co827 2.037 . S
O858 C878 1.234 . S
C859 O833 1.269 . S
C859 O834 1.257 . S
C860 H835 0.930 . S
C860 C863 1.388 . S
C860 C865 1.418 . S
C861 H856 0.930 . S
C861 C864 1.404 . S
C861 C865 1.353 . S
N862 Co827 2.147 1_556 S
N862 C863 1.396 . S
N862 C864 1.333 . S
C863 H844 0.929 . S
C863 C860 1.388 . S
C863 N862 1.396 . S
C864 H845 0.929 . S
C864 C861 1.404 . S
C864 N862 1.333 . S
C865 H857 0.930 . S
C865 C860 1.418 . S
C865 C861 1.353 . S
C866 H836 0.930 . S
C866 N867 1.330 . S
C866 C868 1.446 . S
N867 Co826 2.151 . S
N867 C866 1.330 . S
N867 C871 1.418 . S
C868 H847 0.929 . S
C868 C866 1.446 . S
C868 C869 1.332 . S
C869 H849 0.931 . S
C869 C868 1.332 . S
C869 C870 1.267 . S
C870 H838 0.929 . S
C870 C869 1.267 . S
C870 C871 1.251 . S
C871 H841 0.929 . S
C871 N867 1.418 . S
C871 C870 1.251 . S
C872 H839 0.930 . S
C872 C874 1.406 . S
C872 C877 1.261 . S
C873 H840 0.930 . S
C873 N875 1.325 . S
C873 C876 1.357 . S
C874 H842 0.928 . S
C874 C872 1.406 . S
C874 N875 1.261 . S
N875 Co826 2.214 . S
N875 C873 1.325 . S
N875 C874 1.261 . S
C876 H846 0.931 . S
C876 C873 1.357 . S
C876 C877 1.312 . S
C877 H848 0.930 . S
C877 C872 1.261 . S
C877 C876 1.312 . S
C878 O850 1.214 . S
C878 O858 1.234 . S
C879 H851 0.929 . S
C879 C882 1.391 . S
C879 C884 1.391 . S
C880 H852 0.929 . S
C880 C881 1.390 . S
C880 N883 1.391 . S
C881 H853 0.930 . S
C881 C880 1.390 . S
C881 C882 1.392 . S
C882 H854 0.929 . S
C882 C879 1.391 . S
C882 C881 1.392 . S
N883 Co827 2.257 . S
N883 C880 1.391 . S
N883 C884 1.388 . S
C884 H855 0.930 . S
C884 C879 1.391 . S
C884 N883 1.388 . S
Co885 O887 2.143 . S
Co885 O893 2.074 . S
Co885 O896 2.093 . S
Co885 O909 2.097 . S
Co885 N926 2.151 . S
Co885 N934 2.214 . S
Co886 O887 2.160 . S
Co886 O892 2.058 . S
Co886 O902 2.057 . S
Co886 O917 2.037 . S
Co886 N921 2.145 . S
Co886 N942 2.257 . S
O887 Co885 2.143 . S
O887 Co886 2.160 . S
C888 O889 1.278 . S
C888 O896 1.224 . S
O889 C888 1.278 . S
C890 O891 1.245 . S
C890 O902 1.232 . S
O891 C890 1.245 . S
O892 Co886 2.058 . S
O892 C918 1.269 . S
O893 Co885 2.074 . S
O893 C918 1.257 . S
H894 C919 0.930 . S
H895 C925 0.930 . S
O896 Co885 2.093 . S
O896 C888 1.224 . S
H897 C929 0.929 . S
H898 C931 0.930 . S
H899 C932 0.930 . S
H900 C930 0.929 . S
H901 C933 0.928 . S
O902 Co886 2.057 . S
O902 C890 1.232 . S
H903 C922 0.929 . S
H904 C923 0.929 . S
H905 C935 0.931 . S
H906 C927 0.929 . S
H907 C936 0.930 . S
H908 C928 0.931 . S
O909 Co885 2.097 . S
O909 C937 1.214 . S
H910 C938 0.929 . S
H911 C939 0.929 . S
H912 C940 0.930 . S
H913 C941 0.929 . S
H914 C943 0.930 . S
H915 C920 0.930 . S
H916 C924 0.930 . S
O917 Co886 2.037 . S
O917 C937 1.234 . S
C918 O892 1.269 . S
C918 O893 1.257 . S
C919 H894 0.930 . S
C919 C922 1.388 . S
C919 C924 1.418 . S
C920 H915 0.930 . S
C920 C923 1.404 . S
C920 C924 1.353 . S
N921 Co886 2.145 . S
N921 C922 1.397 . S
N921 C923 1.334 . S
C922 H903 0.929 . S
C922 C919 1.388 . S
C922 N921 1.397 . S
C923 H904 0.929 . S
C923 C920 1.404 . S
C923 N921 1.334 . S
C924 H916 0.930 . S
C924 C919 1.418 . S
C924 C920 1.353 . S
C925 H895 0.930 . S
C925 N926 1.330 . S
C925 C927 1.446 . S
N926 Co885 2.151 . S
N926 C925 1.330 . S
N926 C930 1.418 . S
C927 H906 0.929 . S
C927 C925 1.446 . S
C927 C928 1.332 . S
C928 H908 0.931 . S
C928 C927 1.332 . S
C928 C929 1.267 . S
C929 H897 0.929 . S
C929 C928 1.267 . S
C929 C930 1.251 . S
C930 H900 0.929 . S
C930 N926 1.418 . S
C930 C929 1.251 . S
C931 H898 0.930 . S
C931 C933 1.406 . S
C931 C936 1.261 . S
C932 H899 0.930 . S
C932 N934 1.325 . S
C932 C935 1.357 . S
C933 H901 0.928 . S
C933 C931 1.406 . S
C933 N934 1.261 . S
N934 Co885 2.214 . S
N934 C932 1.325 . S
N934 C933 1.261 . S
C935 H905 0.931 . S
C935 C932 1.357 . S
C935 C936 1.312 . S
C936 H907 0.930 . S
C936 C931 1.261 . S
C936 C935 1.312 . S
C937 O909 1.214 . S
C937 O917 1.234 . S
C938 H910 0.929 . S
C938 C941 1.391 . S
C938 C943 1.391 . S
C939 H911 0.929 . S
C939 C940 1.390 . S
C939 N942 1.391 . S
C940 H912 0.930 . S
C940 C939 1.390 . S
C940 C941 1.392 . S
C941 H913 0.929 . S
C941 C938 1.391 . S
C941 C940 1.392 . S
N942 Co886 2.257 . S
N942 C939 1.391 . S
N942 C943 1.388 . S
C943 H914 0.930 . S
C943 C938 1.391 . S
C943 N942 1.388 . S
H944 C950 0.930 . S
H945 C953 0.930 . S
H946 C954 0.930 . S
H947 C955 0.930 . S
H948 C958 0.930 . S
H949 C959 0.930 . S
C950 H944 0.930 . S
C950 C951 1.355 . S
C950 C952 1.415 . S
C951 C950 1.355 . S
C951 C953 1.419 . S
C952 C950 1.415 . S
C952 C957 1.439 . S
C952 C959 1.409 1_455 S
C953 H945 0.930 . S
C953 C951 1.419 . S
C953 C954 1.362 . S
C954 H946 0.930 . S
C954 C953 1.362 . S
C954 C957 1.440 . S
C955 H947 0.930 . S
C955 C956 1.355 . S
C955 C957 1.371 1_655 S
C956 C955 1.355 . S
C956 C958 1.419 . S
C957 C952 1.439 . S
C957 C954 1.440 . S
C957 C955 1.371 1_455 S
C958 H948 0.930 . S
C958 C956 1.419 . S
C958 C959 1.362 . S
C959 H949 0.930 . S
C959 C952 1.409 1_655 S
C959 C958 1.362 . S
H960 C966 0.930 . S
H961 C969 0.930 . S
H962 C970 0.930 . S
H963 C971 0.930 . S
H964 C974 0.930 . S
H965 C975 0.930 1_655 S
C966 H960 0.930 . S
C966 C967 1.355 . S
C966 C968 1.415 . S
C967 C966 1.355 . S
C967 C969 1.419 . S
C968 C966 1.415 . S
C968 C973 1.417 1_655 S
C968 C975 1.409 1_655 S
C969 H961 0.930 . S
C969 C967 1.419 . S
C969 C970 1.362 . S
C970 H962 0.930 . S
C970 C969 1.362 . S
C970 C973 1.396 1_655 S
C971 H963 0.930 . S
C971 C972 1.355 . S
C971 C973 1.436 . S
C972 C971 1.355 . S
C972 C974 1.419 . S
C973 C968 1.417 1_455 S
C973 C970 1.396 1_455 S
C973 C971 1.436 . S
C974 H964 0.930 . S
C974 C972 1.419 . S
C974 C975 1.362 . S
C975 H965 0.930 1_455 S
C975 C968 1.409 1_455 S
C975 C974 1.362 . S
H976 C982 0.930 . S
H977 C985 0.930 . S
H978 C986 0.930 . S
H979 C987 0.930 . S
H980 C990 0.930 . S
H981 C991 0.930 . S
C982 H976 0.930 . S
C982 C983 1.355 . S
C982 C984 1.415 1_655 S
C983 C982 1.355 . S
C983 C985 1.419 . S
C984 C982 1.415 1_455 S
C984 C989 1.425 . S
C984 C991 1.409 . S
C985 H977 0.930 . S
C985 C983 1.419 . S
C985 C986 1.362 . S
C986 H978 0.930 . S
C986 C985 1.362 . S
C986 C989 1.409 1_655 S
C987 H979 0.930 . S
C987 C988 1.355 . S
C987 C989 1.415 . S
C988 C987 1.355 . S
C988 C990 1.419 . S
C989 C984 1.425 . S
C989 C986 1.409 1_455 S
C989 C987 1.415 . S
C990 H980 0.930 . S
C990 C988 1.419 . S
C990 C991 1.362 . S
C991 H981 0.930 . S
C991 C984 1.409 . S
C991 C990 1.362 . S
H992 C998 0.930 . S
H993 C1001 0.930 . S
H994 C1002 0.930 . S
H995 C1003 0.930 . S
H996 C1006 0.930 . S
H997 C1007 0.930 . S
C998 H992 0.930 . S
C998 C999 1.355 . S
C998 C1000 1.415 1_455 S
C999 C998 1.355 . S
C999 C1001 1.419 . S
C1000 C998 1.415 1_655 S
C1000 C1005 1.425 . S
C1000 C1007 1.409 . S
C1001 H993 0.930 . S
C1001 C999 1.419 . S
C1001 C1002 1.362 . S
C1002 H994 0.930 . S
C1002 C1001 1.362 . S
C1002 C1005 1.409 1_455 S
C1003 H995 0.930 . S
C1003 C1004 1.355 . S
C1003 C1005 1.415 . S
C1004 C1003 1.355 . S
C1004 C1006 1.419 . S
C1005 C1000 1.425 . S
C1005 C1002 1.409 1_655 S
C1005 C1003 1.415 . S
C1006 H996 0.930 . S
C1006 C1004 1.419 . S
C1006 C1007 1.362 . S
C1007 H997 0.930 . S
C1007 C1000 1.409 . S
C1007 C1006 1.362 . S
H1008 C1014 0.930 . S
H1009 C1017 0.930 . S
H1010 C1018 0.930 . S
H1011 C1019 0.930 . S
H1012 C1022 0.930 . S
H1013 C1023 0.930 . S
C1014 H1008 0.930 . S
C1014 C1015 1.355 . S
C1014 C1016 1.415 . S
C1015 C1014 1.355 . S
C1015 C1017 1.419 . S
C1016 C1014 1.415 . S
C1016 C1021 1.425 . S
C1016 C1023 1.409 . S
C1017 H1009 0.930 . S
C1017 C1015 1.419 . S
C1017 C1018 1.362 . S
C1018 H1010 0.930 . S
C1018 C1017 1.362 . S
C1018 C1021 1.409 . S
C1019 H1011 0.930 . S
C1019 C1020 1.355 . S
C1019 C1021 1.415 . S
C1020 C1019 1.355 . S
C1020 C1022 1.419 . S
C1021 C1016 1.425 . S
C1021 C1018 1.409 . S
C1021 C1019 1.415 . S
C1022 H1012 0.930 . S
C1022 C1020 1.419 . S
C1022 C1023 1.362 . S
C1023 H1013 0.930 . S
C1023 C1016 1.409 . S
C1023 C1022 1.362 . S
H1024 C1030 0.930 . S
H1025 C1033 0.930 . S
H1026 C1034 0.930 . S
H1027 C1035 0.930 . S
H1028 C1038 0.930 . S
H1029 C1039 0.930 . S
C1030 H1024 0.930 . S
C1030 C1031 1.355 . S
C1030 C1032 1.415 . S
C1031 C1030 1.355 . S
C1031 C1033 1.419 . S
C1032 C1030 1.415 . S
C1032 C1037 1.425 . S
C1032 C1039 1.409 . S
C1033 H1025 0.930 . S
C1033 C1031 1.419 . S
C1033 C1034 1.362 . S
C1034 H1026 0.930 . S
C1034 C1033 1.362 . S
C1034 C1037 1.409 . S
C1035 H1027 0.930 . S
C1035 C1036 1.355 . S
C1035 C1037 1.415 . S
C1036 C1035 1.355 . S
C1036 C1038 1.419 . S
C1037 C1032 1.425 . S
C1037 C1034 1.409 . S
C1037 C1035 1.415 . S
C1038 H1028 0.930 . S
C1038 C1036 1.419 . S
C1038 C1039 1.362 . S
C1039 H1029 0.930 . S
C1039 C1032 1.409 . S
C1039 C1038 1.362 . S
H1040 C1046 0.930 . S
H1041 C1049 0.930 . S
H1042 C1050 0.930 . S
H1043 C1051 0.930 . S
H1044 C1054 0.930 . S
H1045 C1055 0.930 . S
C1046 H1040 0.930 . S
C1046 C1047 1.355 . S
C1046 C1048 1.415 . S
C1047 C1046 1.355 . S
C1047 C1049 1.419 . S
C1048 C1046 1.415 . S
C1048 C1053 1.425 . S
C1048 C1055 1.409 . S
C1049 H1041 0.930 . S
C1049 C1047 1.419 . S
C1049 C1050 1.362 . S
C1050 H1042 0.930 . S
C1050 C1049 1.362 . S
C1050 C1053 1.409 . S
C1051 H1043 0.930 . S
C1051 C1052 1.355 . S
C1051 C1053 1.415 . S
C1052 C1051 1.355 . S
C1052 C1054 1.419 . S
C1053 C1048 1.425 . S
C1053 C1050 1.409 . S
C1053 C1051 1.415 . S
C1054 H1044 0.930 . S
C1054 C1052 1.419 . S
C1054 C1055 1.362 . S
C1055 H1045 0.930 . S
C1055 C1048 1.409 . S
C1055 C1054 1.362 . S
H1056 C1062 0.930 . S
H1057 C1065 0.930 . S
H1058 C1066 0.930 . S
H1059 C1067 0.930 . S
H1060 C1070 0.930 . S
H1061 C1071 0.930 . S
C1062 H1056 0.930 . S
C1062 C1063 1.355 . S
C1062 C1064 1.415 . S
C1063 C1062 1.355 . S
C1063 C1065 1.419 . S
C1064 C1062 1.415 . S
C1064 C1069 1.425 . S
C1064 C1071 1.409 . S
C1065 H1057 0.930 . S
C1065 C1063 1.419 . S
C1065 C1066 1.362 . S
C1066 H1058 0.930 . S
C1066 C1065 1.362 . S
C1066 C1069 1.409 . S
C1067 H1059 0.930 . S
C1067 C1068 1.355 . S
C1067 C1069 1.415 . S
C1068 C1067 1.355 . S
C1068 C1070 1.419 . S
C1069 C1064 1.425 . S
C1069 C1066 1.409 . S
C1069 C1067 1.415 . S
C1070 H1060 0.930 . S
C1070 C1068 1.419 . S
C1070 C1071 1.362 . S
C1071 H1061 0.930 . S
C1071 C1064 1.409 . S
C1071 C1070 1.362 . S
H1072 C1078 0.930 . S
H1073 C1081 0.930 . S
H1074 C1082 0.930 . S
H1075 C1083 0.930 . S
H1076 C1086 0.930 . S
H1077 C1087 0.930 . S
C1078 H1072 0.930 . S
C1078 C1079 1.355 . S
C1078 C1080 1.415 . S
C1079 C1078 1.355 . S
C1079 C1081 1.419 . S
C1080 C1078 1.415 . S
C1080 C1085 1.425 . S
C1080 C1087 1.409 . S
C1081 H1073 0.930 . S
C1081 C1079 1.419 . S
C1081 C1082 1.362 . S
C1082 H1074 0.930 . S
C1082 C1081 1.362 . S
C1082 C1085 1.409 . S
C1083 H1075 0.930 . S
C1083 C1084 1.355 . S
C1083 C1085 1.415 . S
C1084 C1083 1.355 . S
C1084 C1086 1.419 . S
C1085 C1080 1.425 . S
C1085 C1082 1.409 . S
C1085 C1083 1.415 . S
C1086 H1076 0.930 . S
C1086 C1084 1.419 . S
C1086 C1087 1.362 . S
C1087 H1077 0.930 . S
C1087 C1080 1.409 . S
C1087 C1086 1.362 . S
H1088 C1094 0.930 . S
H1089 C1097 0.930 . S
H1090 C1098 0.930 . S
H1091 C1099 0.930 . S
H1092 C1102 0.930 . S
H1093 C1103 0.930 . S
C1094 H1088 0.930 . S
C1094 C1095 1.355 . S
C1094 C1096 1.415 . S
C1095 C1094 1.355 . S
C1095 C1097 1.419 . S
C1096 C1094 1.415 . S
C1096 C1101 1.425 . S
C1096 C1103 1.409 . S
C1097 H1089 0.930 . S
C1097 C1095 1.419 . S
C1097 C1098 1.362 . S
C1098 H1090 0.930 . S
C1098 C1097 1.362 . S
C1098 C1101 1.409 . S
C1099 H1091 0.930 . S
C1099 C1100 1.355 . S
C1099 C1101 1.415 . S
C1100 C1099 1.355 . S
C1100 C1102 1.419 . S
C1101 C1096 1.425 . S
C1101 C1098 1.409 . S
C1101 C1099 1.415 . S
C1102 H1092 0.930 . S
C1102 C1100 1.419 . S
C1102 C1103 1.362 . S
C1103 H1093 0.930 . S
C1103 C1096 1.409 . S
C1103 C1102 1.362 . S
H1104 C1110 0.930 . S
H1105 C1113 0.930 . S
H1106 C1114 0.930 . S
H1107 C1115 0.930 . S
H1108 C1118 0.930 . S
H1109 C1119 0.930 . S
C1110 H1104 0.930 . S
C1110 C1111 1.355 . S
C1110 C1112 1.415 . S
C1111 C1110 1.355 . S
C1111 C1113 1.419 . S
C1112 C1110 1.415 . S
C1112 C1117 1.425 . S
C1112 C1119 1.409 . S
C1113 H1105 0.930 . S
C1113 C1111 1.419 . S
C1113 C1114 1.362 . S
C1114 H1106 0.930 . S
C1114 C1113 1.362 . S
C1114 C1117 1.409 . S
C1115 H1107 0.930 . S
C1115 C1116 1.355 . S
C1115 C1117 1.415 . S
C1116 C1115 1.355 . S
C1116 C1118 1.419 . S
C1117 C1112 1.425 . S
C1117 C1114 1.409 . S
C1117 C1115 1.415 . S
C1118 H1108 0.930 . S
C1118 C1116 1.419 . S
C1118 C1119 1.362 . S
C1119 H1109 0.930 . S
C1119 C1112 1.409 . S
C1119 C1118 1.362 . S
H1120 C1126 0.930 . S
H1121 C1129 0.930 . S
H1122 C1130 0.930 . S
H1123 C1131 0.930 . S
H1124 C1134 0.930 . S
H1125 C1135 0.930 . S
C1126 H1120 0.930 . S
C1126 C1127 1.355 . S
C1126 C1128 1.415 . S
C1127 C1126 1.355 . S
C1127 C1129 1.419 . S
C1128 C1126 1.415 . S
C1128 C1133 1.425 . S
C1128 C1135 1.409 . S
C1129 H1121 0.930 . S
C1129 C1127 1.419 . S
C1129 C1130 1.362 . S
C1130 H1122 0.930 . S
C1130 C1129 1.362 . S
C1130 C1133 1.409 . S
C1131 H1123 0.930 . S
C1131 C1132 1.355 . S
C1131 C1133 1.415 . S
C1132 C1131 1.355 . S
C1132 C1134 1.419 . S
C1133 C1128 1.425 . S
C1133 C1130 1.409 . S
C1133 C1131 1.415 . S
C1134 H1124 0.930 . S
C1134 C1132 1.419 . S
C1134 C1135 1.362 . S
C1135 H1125 0.930 . S
C1135 C1128 1.409 . S
C1135 C1134 1.362 . S
H1136 C1142 0.930 . S
H1137 C1145 0.930 . S
H1138 C1146 0.930 . S
H1139 C1147 0.930 . S
H1140 C1150 0.930 . S
H1141 C1151 0.930 . S
C1142 H1136 0.930 . S
C1142 C1143 1.355 . S
C1142 C1144 1.415 . S
C1143 C1142 1.355 . S
C1143 C1145 1.419 . S
C1144 C1142 1.415 . S
C1144 C1149 1.425 . S
C1144 C1151 1.409 . S
C1145 H1137 0.930 . S
C1145 C1143 1.419 . S
C1145 C1146 1.362 . S
C1146 H1138 0.930 . S
C1146 C1145 1.362 . S
C1146 C1149 1.409 . S
C1147 H1139 0.930 . S
C1147 C1148 1.355 . S
C1147 C1149 1.415 . S
C1148 C1147 1.355 . S
C1148 C1150 1.419 . S
C1149 C1144 1.425 . S
C1149 C1146 1.409 . S
C1149 C1147 1.415 . S
C1150 H1140 0.930 . S
C1150 C1148 1.419 . S
C1150 C1151 1.362 . S
C1151 H1141 0.930 . S
C1151 C1144 1.409 . S
C1151 C1150 1.362 . S
H1152 C1158 0.930 . S
H1153 C1161 0.930 . S
H1154 C1162 0.930 . S
H1155 C1163 0.930 . S
H1156 C1166 0.930 . S
H1157 C1167 0.930 . S
C1158 H1152 0.930 . S
C1158 C1159 1.355 . S
C1158 C1160 1.415 . S
C1159 C1158 1.355 . S
C1159 C1161 1.419 . S
C1160 C1158 1.415 . S
C1160 C1165 1.425 . S
C1160 C1167 1.409 . S
C1161 H1153 0.930 . S
C1161 C1159 1.419 . S
C1161 C1162 1.362 . S
C1162 H1154 0.930 . S
C1162 C1161 1.362 . S
C1162 C1165 1.409 . S
C1163 H1155 0.930 . S
C1163 C1164 1.355 . S
C1163 C1165 1.415 . S
C1164 C1163 1.355 . S
C1164 C1166 1.419 . S
C1165 C1160 1.425 . S
C1165 C1162 1.409 . S
C1165 C1163 1.415 . S
C1166 H1156 0.930 . S
C1166 C1164 1.419 . S
C1166 C1167 1.362 . S
C1167 H1157 0.930 . S
C1167 C1160 1.409 . S
C1167 C1166 1.362 . S
H1168 C1174 0.930 . S
H1169 C1177 0.930 . S
H1170 C1178 0.930 . S
H1171 C1179 0.930 . S
H1172 C1182 0.930 . S
H1173 C1183 0.930 . S
C1174 H1168 0.930 . S
C1174 C1175 1.355 . S
C1174 C1176 1.415 . S
C1175 C1174 1.355 . S
C1175 C1177 1.419 . S
C1176 C1174 1.415 . S
C1176 C1181 1.425 . S
C1176 C1183 1.409 . S
C1177 H1169 0.930 . S
C1177 C1175 1.419 . S
C1177 C1178 1.362 . S
C1178 H1170 0.930 . S
C1178 C1177 1.362 . S
C1178 C1181 1.409 . S
C1179 H1171 0.930 . S
C1179 C1180 1.355 . S
C1179 C1181 1.415 . S
C1180 C1179 1.355 . S
C1180 C1182 1.419 . S
C1181 C1176 1.425 . S
C1181 C1178 1.409 . S
C1181 C1179 1.415 . S
C1182 H1172 0.930 . S
C1182 C1180 1.419 . S
C1182 C1183 1.362 . S
C1183 H1173 0.930 . S
C1183 C1176 1.409 . S
C1183 C1182 1.362 . S
H1184 C1190 0.930 . S
H1185 C1193 0.930 . S
H1186 C1194 0.930 . S
H1187 C1195 0.930 . S
H1188 C1198 0.930 . S
H1189 C1199 0.930 . S
C1190 H1184 0.930 . S
C1190 C1191 1.355 . S
C1190 C1192 1.415 . S
C1191 C1190 1.355 . S
C1191 C1193 1.419 . S
C1192 C1190 1.415 . S
C1192 C1197 1.425 . S
C1192 C1199 1.409 . S
C1193 H1185 0.930 . S
C1193 C1191 1.419 . S
C1193 C1194 1.362 . S
C1194 H1186 0.930 . S
C1194 C1193 1.362 . S
C1194 C1197 1.409 . S
C1195 H1187 0.930 . S
C1195 C1196 1.355 . S
C1195 C1197 1.415 . S
C1196 C1195 1.355 . S
C1196 C1198 1.419 . S
C1197 C1192 1.425 . S
C1197 C1194 1.409 . S
C1197 C1195 1.415 . S
C1198 H1188 0.930 . S
C1198 C1196 1.419 . S
C1198 C1199 1.362 . S
C1199 H1189 0.930 . S
C1199 C1192 1.409 . S
C1199 C1198 1.362 . S
H1200 C1206 0.930 1_554 S
H1201 C1209 0.930 . S
H1202 C1210 0.930 . S
H1203 C1211 0.930 1_556 S
H1204 C1214 0.930 . S
H1205 C1215 0.930 . S
C1206 H1200 0.930 1_556 S
C1206 C1207 1.355 . S
C1206 C1208 1.415 1_556 S
C1207 C1206 1.355 . S
C1207 C1209 1.419 . S
C1208 C1206 1.415 1_554 S
C1208 C1213 1.425 1_554 S
C1208 C1215 1.409 . S
C1209 H1201 0.930 . S
C1209 C1207 1.419 . S
C1209 C1210 1.362 . S
C1210 H1202 0.930 . S
C1210 C1209 1.362 . S
C1210 C1213 1.409 . S
C1211 H1203 0.930 1_554 S
C1211 C1212 1.355 . S
C1211 C1213 1.415 1_554 S
C1212 C1211 1.355 . S
C1212 C1214 1.419 . S
C1213 C1208 1.425 1_556 S
C1213 C1210 1.409 . S
C1213 C1211 1.415 1_556 S
C1214 H1204 0.930 . S
C1214 C1212 1.419 . S
C1214 C1215 1.362 . S
C1215 H1205 0.930 . S
C1215 C1208 1.409 . S
C1215 C1214 1.362 . S
H1216 C1222 0.930 . S
H1217 C1225 0.930 . S
H1218 C1226 0.930 . S
H1219 C1227 0.930 . S
H1220 C1230 0.930 . S
H1221 C1231 0.930 . S
C1222 H1216 0.930 . S
C1222 C1223 1.355 . S
C1222 C1224 1.415 . S
C1223 C1222 1.355 . S
C1223 C1225 1.419 . S
C1224 C1222 1.415 . S
C1224 C1229 1.425 . S
C1224 C1231 1.409 . S
C1225 H1217 0.930 . S
C1225 C1223 1.419 . S
C1225 C1226 1.362 . S
C1226 H1218 0.930 . S
C1226 C1225 1.362 . S
C1226 C1229 1.409 . S
C1227 H1219 0.930 . S
C1227 C1228 1.355 . S
C1227 C1229 1.415 . S
C1228 C1227 1.355 . S
C1228 C1230 1.419 . S
C1229 C1224 1.425 . S
C1229 C1226 1.409 . S
C1229 C1227 1.415 . S
C1230 H1220 0.930 . S
C1230 C1228 1.419 . S
C1230 C1231 1.362 . S
C1231 H1221 0.930 . S
C1231 C1224 1.409 . S
C1231 C1230 1.362 . S
H1232 C1238 0.930 . S
H1233 C1241 0.930 . S
H1234 C1242 0.930 . S
H1235 C1243 0.930 . S
H1236 C1246 0.930 . S
H1237 C1247 0.930 . S
C1238 H1232 0.930 . S
C1238 C1239 1.355 . S
C1238 C1240 1.415 . S
C1239 C1238 1.355 . S
C1239 C1241 1.419 1_554 S
C1240 C1238 1.415 . S
C1240 C1245 1.425 1_554 S
C1240 C1247 1.409 . S
C1241 H1233 0.930 . S
C1241 C1239 1.419 1_556 S
C1241 C1242 1.362 . S
C1242 H1234 0.930 . S
C1242 C1241 1.362 . S
C1242 C1245 1.409 . S
C1243 H1235 0.930 . S
C1243 C1244 1.355 . S
C1243 C1245 1.415 . S
C1244 C1243 1.355 . S
C1244 C1246 1.419 . S
C1245 C1240 1.425 1_556 S
C1245 C1242 1.409 . S
C1245 C1243 1.415 . S
C1246 H1236 0.930 . S
C1246 C1244 1.419 . S
C1246 C1247 1.362 1_556 S
C1247 H1237 0.930 . S
C1247 C1240 1.409 . S
C1247 C1246 1.362 1_554 S
H1248 C1254 0.930 . S
H1249 C1257 0.930 . S
H1250 C1258 0.930 . S
H1251 C1259 0.930 . S
H1252 C1262 0.930 . S
H1253 C1263 0.930 . S
C1254 H1248 0.930 . S
C1254 C1255 1.355 . S
C1254 C1256 1.415 . S
C1255 C1254 1.355 . S
C1255 C1257 1.419 . S
C1256 C1254 1.415 . S
C1256 C1261 1.425 . S
C1256 C1263 1.409 . S
C1257 H1249 0.930 . S
C1257 C1255 1.419 . S
C1257 C1258 1.362 . S
C1258 H1250 0.930 . S
C1258 C1257 1.362 . S
C1258 C1261 1.409 . S
C1259 H1251 0.930 . S
C1259 C1260 1.355 . S
C1259 C1261 1.415 . S
C1260 C1259 1.355 . S
C1260 C1262 1.419 . S
C1261 C1256 1.425 . S
C1261 C1258 1.409 . S
C1261 C1259 1.415 . S
C1262 H1252 0.930 . S
C1262 C1260 1.419 . S
C1262 C1263 1.362 . S
C1263 H1253 0.930 . S
C1263 C1256 1.409 . S
C1263 C1262 1.362 . S
H1264 C1270 0.930 . S
H1265 C1273 0.930 1_556 S
H1266 C1274 0.930 . S
H1267 C1275 0.930 . S
H1268 C1278 0.930 . S
H1269 C1279 0.930 . S
C1270 H1264 0.930 . S
C1270 C1271 1.355 . S
C1270 C1272 1.415 . S
C1271 C1270 1.355 . S
C1271 C1273 1.419 . S
C1272 C1270 1.415 . S
C1272 C1277 1.425 1_554 S
C1272 C1279 1.409 . S
C1273 H1265 0.930 1_554 S
C1273 C1271 1.419 . S
C1273 C1274 1.362 1_554 S
C1274 H1266 0.930 . S
C1274 C1273 1.362 1_556 S
C1274 C1277 1.409 . S
C1275 H1267 0.930 . S
C1275 C1276 1.355 . S
C1275 C1277 1.415 . S
C1276 C1275 1.355 . S
C1276 C1278 1.419 1_556 S
C1277 C1272 1.425 1_556 S
C1277 C1274 1.409 . S
C1277 C1275 1.415 . S
C1278 H1268 0.930 . S
C1278 C1276 1.419 1_554 S
C1278 C1279 1.362 . S
C1279 H1269 0.930 . S
C1279 C1272 1.409 . S
C1279 C1278 1.362 . S
H1280 C1286 0.930 . S
H1281 C1289 0.930 . S
H1282 C1290 0.930 . S
H1283 C1291 0.930 . S
H1284 C1294 0.930 . S
H1285 C1295 0.930 . S
C1286 H1280 0.930 . S
C1286 C1287 1.355 . S
C1286 C1288 1.415 . S
C1287 C1286 1.355 . S
C1287 C1289 1.419 . S
C1288 C1286 1.415 . S
C1288 C1293 1.425 . S
C1288 C1295 1.409 . S
C1289 H1281 0.930 . S
C1289 C1287 1.419 . S
C1289 C1290 1.362 . S
C1290 H1282 0.930 . S
C1290 C1289 1.362 . S
C1290 C1293 1.409 . S
C1291 H1283 0.930 . S
C1291 C1292 1.355 . S
C1291 C1293 1.415 . S
C1292 C1291 1.355 . S
C1292 C1294 1.419 . S
C1293 C1288 1.425 . S
C1293 C1290 1.409 . S
C1293 C1291 1.415 . S
C1294 H1284 0.930 . S
C1294 C1292 1.419 . S
C1294 C1295 1.362 . S
C1295 H1285 0.930 . S
C1295 C1288 1.409 . S
C1295 C1294 1.362 . S
H1296 C1302 0.930 1_556 S
H1297 C1305 0.930 . S
H1298 C1306 0.930 . S
H1299 C1307 0.930 . S
H1300 C1310 0.930 . S
H1301 C1311 0.930 . S
C1302 H1296 0.930 1_554 S
C1302 C1303 1.355 . S
C1302 C1304 1.415 1_554 S
C1303 C1302 1.355 . S
C1303 C1305 1.419 . S
C1304 C1302 1.415 1_556 S
C1304 C1309 1.425 1_556 S
C1304 C1311 1.409 . S
C1305 H1297 0.930 . S
C1305 C1303 1.419 . S
C1305 C1306 1.362 . S
C1306 H1298 0.930 . S
C1306 C1305 1.362 . S
C1306 C1309 1.409 . S
C1307 H1299 0.930 . S
C1307 C1308 1.355 . S
C1307 C1309 1.415 1_556 S
C1308 C1307 1.355 . S
C1308 C1310 1.419 . S
C1309 C1304 1.425 1_554 S
C1309 C1306 1.409 . S
C1309 C1307 1.415 1_554 S
C1310 H1300 0.930 . S
C1310 C1308 1.419 . S
C1310 C1311 1.362 . S
C1311 H1301 0.930 . S
C1311 C1304 1.409 . S
C1311 C1310 1.362 . S
H1312 C1318 0.930 . S
H1313 C1321 0.930 . S
H1314 C1322 0.930 . S
H1315 C1323 0.930 . S
H1316 C1326 0.930 . S
H1317 C1327 0.930 . S
C1318 H1312 0.930 . S
C1318 C1319 1.355 . S
C1318 C1320 1.415 . S
C1319 C1318 1.355 . S
C1319 C1321 1.419 . S
C1320 C1318 1.415 . S
C1320 C1325 1.425 . S
C1320 C1327 1.409 . S
C1321 H1313 0.930 . S
C1321 C1319 1.419 . S
C1321 C1322 1.362 . S
C1322 H1314 0.930 . S
C1322 C1321 1.362 . S
C1322 C1325 1.409 . S
C1323 H1315 0.930 . S
C1323 C1324 1.355 . S
C1323 C1325 1.415 . S
C1324 C1323 1.355 . S
C1324 C1326 1.419 . S
C1325 C1320 1.425 . S
C1325 C1322 1.409 . S
C1325 C1323 1.415 . S
C1326 H1316 0.930 . S
C1326 C1324 1.419 . S
C1326 C1327 1.362 . S
C1327 H1317 0.930 . S
C1327 C1320 1.409 . S
C1327 C1326 1.362 . S
H1328 C1334 0.930 . S
H1329 C1337 0.930 . S
H1330 C1338 0.930 . S
H1331 C1339 0.930 . S
H1332 C1342 0.930 . S
H1333 C1343 0.930 . S
C1334 H1328 0.930 . S
C1334 C1335 1.355 1_554 S
C1334 C1336 1.415 . S
C1335 C1334 1.355 1_556 S
C1335 C1337 1.419 . S
C1336 C1334 1.415 . S
C1336 C1341 1.425 1_554 S
C1336 C1343 1.409 . S
C1337 H1329 0.930 . S
C1337 C1335 1.419 . S
C1337 C1338 1.362 . S
C1338 H1330 0.930 . S
C1338 C1337 1.362 . S
C1338 C1341 1.409 . S
C1339 H1331 0.930 . S
C1339 C1340 1.355 1_556 S
C1339 C1341 1.415 . S
C1340 C1339 1.355 1_554 S
C1340 C1342 1.419 . S
C1341 C1336 1.425 1_556 S
C1341 C1338 1.409 . S
C1341 C1339 1.415 . S
C1342 H1332 0.930 . S
C1342 C1340 1.419 . S
C1342 C1343 1.362 . S
C1343 H1333 0.930 . S
C1343 C1336 1.409 . S
C1343 C1342 1.362 . S
H1344 C1350 0.930 . S
H1345 C1353 0.930 . S
H1346 C1354 0.930 . S
H1347 C1355 0.930 . S
H1348 C1358 0.930 . S
H1349 C1359 0.930 . S
C1350 H1344 0.930 . S
C1350 C1351 1.355 . S
C1350 C1352 1.415 . S
C1351 C1350 1.355 . S
C1351 C1353 1.419 . S
C1352 C1350 1.415 . S
C1352 C1357 1.425 . S
C1352 C1359 1.409 . S
C1353 H1345 0.930 . S
C1353 C1351 1.419 . S
C1353 C1354 1.362 . S
C1354 H1346 0.930 . S
C1354 C1353 1.362 . S
C1354 C1357 1.409 . S
C1355 H1347 0.930 . S
C1355 C1356 1.355 . S
C1355 C1357 1.415 . S
C1356 C1355 1.355 . S
C1356 C1358 1.419 . S
C1357 C1352 1.425 . S
C1357 C1354 1.409 . S
C1357 C1355 1.415 . S
C1358 H1348 0.930 . S
C1358 C1356 1.419 . S
C1358 C1359 1.362 . S
C1359 H1349 0.930 . S
C1359 C1352 1.409 . S
C1359 C1358 1.362 . S
H1360 C1366 0.930 . S
H1361 C1369 0.930 . S
H1362 C1370 0.930 . S
H1363 C1371 0.930 . S
H1364 C1374 0.930 . S
H1365 C1375 0.930 . S
C1366 H1360 0.930 . S
C1366 C1367 1.355 . S
C1366 C1368 1.415 . S
C1367 C1366 1.355 . S
C1367 C1369 1.419 . S
C1368 C1366 1.415 . S
C1368 C1373 1.425 1_554 S
C1368 C1375 1.409 1_554 S
C1369 H1361 0.930 . S
C1369 C1367 1.419 . S
C1369 C1370 1.362 . S
C1370 H1362 0.930 . S
C1370 C1369 1.362 . S
C1370 C1373 1.409 1_554 S
C1371 H1363 0.930 . S
C1371 C1372 1.355 . S
C1371 C1373 1.415 . S
C1372 C1371 1.355 . S
C1372 C1374 1.419 . S
C1373 C1368 1.425 1_556 S
C1373 C1370 1.409 1_556 S
C1373 C1371 1.415 . S
C1374 H1364 0.930 . S
C1374 C1372 1.419 . S
C1374 C1375 1.362 . S
C1375 H1365 0.930 . S
C1375 C1368 1.409 1_556 S
C1375 C1374 1.362 . S
H1376 C1382 0.930 . S
H1377 C1385 0.930 . S
H1378 C1386 0.930 . S
H1379 C1387 0.930 . S
H1380 C1390 0.930 . S
H1381 C1391 0.930 . S
C1382 H1376 0.930 . S
C1382 C1383 1.355 . S
C1382 C1384 1.415 . S
C1383 C1382 1.355 . S
C1383 C1385 1.419 . S
C1384 C1382 1.415 . S
C1384 C1389 1.425 . S
C1384 C1391 1.409 . S
C1385 H1377 0.930 . S
C1385 C1383 1.419 . S
C1385 C1386 1.362 . S
C1386 H1378 0.930 . S
C1386 C1385 1.362 . S
C1386 C1389 1.409 . S
C1387 H1379 0.930 . S
C1387 C1388 1.355 . S
C1387 C1389 1.415 . S
C1388 C1387 1.355 . S
C1388 C1390 1.419 . S
C1389 C1384 1.425 . S
C1389 C1386 1.409 . S
C1389 C1387 1.415 . S
C1390 H1380 0.930 . S
C1390 C1388 1.419 . S
C1390 C1391 1.362 . S
C1391 H1381 0.930 . S
C1391 C1384 1.409 . S
C1391 C1390 1.362 . S
H1392 C1398 0.930 . S
H1393 C1401 0.930 . S
H1394 C1402 0.930 1_565 S
H1395 C1403 0.930 . S
H1396 C1406 0.930 . S
H1397 C1407 0.930 1_545 S
C1398 H1392 0.930 . S
C1398 C1399 1.355 1_554 S
C1398 C1400 1.415 . S
C1399 C1398 1.355 1_556 S
C1399 C1401 1.419 . S
C1400 C1398 1.415 . S
C1400 C1405 1.425 1_544 S
C1400 C1407 1.409 1_545 S
C1401 H1393 0.930 . S
C1401 C1399 1.419 . S
C1401 C1402 1.362 . S
C1402 H1394 0.930 1_545 S
C1402 C1401 1.362 . S
C1402 C1405 1.409 1_545 S
C1403 H1395 0.930 . S
C1403 C1404 1.355 1_556 S
C1403 C1405 1.415 . S
C1404 C1403 1.355 1_554 S
C1404 C1406 1.419 . S
C1405 C1400 1.425 1_566 S
C1405 C1402 1.409 1_565 S
C1405 C1403 1.415 . S
C1406 H1396 0.930 . S
C1406 C1404 1.419 . S
C1406 C1407 1.362 . S
C1407 H1397 0.930 1_565 S
C1407 C1400 1.409 1_565 S
C1407 C1406 1.362 . S
H1408 C1414 0.930 . S
H1409 C1417 0.930 . S
H1410 C1418 0.930 . S
H1411 C1419 0.930 . S
H1412 C1422 0.930 . S
H1413 C1423 0.930 . S
C1414 H1408 0.930 . S
C1414 C1415 1.355 . S
C1414 C1416 1.441 . S
C1415 C1414 1.355 . S
C1415 C1417 1.419 . S
C1416 C1414 1.441 . S
C1416 C1421 1.424 1_565 S
C1416 C1423 1.385 1_565 S
C1417 H1409 0.930 . S
C1417 C1415 1.419 . S
C1417 C1418 1.362 . S
C1418 H1410 0.930 . S
C1418 C1417 1.362 . S
C1418 C1421 1.385 1_565 S
C1419 H1411 0.930 . S
C1419 C1420 1.355 . S
C1419 C1421 1.441 . S
C1420 C1419 1.355 . S
C1420 C1422 1.419 . S
C1421 C1416 1.424 1_545 S
C1421 C1418 1.385 1_545 S
C1421 C1419 1.441 . S
C1422 H1412 0.930 . S
C1422 C1420 1.419 . S
C1422 C1423 1.362 . S
C1423 H1413 0.930 . S
C1423 C1416 1.385 1_545 S
C1423 C1422 1.362 . S
H1424 C1430 0.930 . S
H1425 C1433 0.930 . S
H1426 C1434 0.930 . S
H1427 C1435 0.930 . S
H1428 C1438 0.930 . S
H1429 C1439 0.930 . S
C1430 H1424 0.930 . S
C1430 C1431 1.355 . S
C1430 C1432 1.415 . S
C1431 C1430 1.355 . S
C1431 C1433 1.419 1_554 S
C1432 C1430 1.415 . S
C1432 C1437 1.425 1_564 S
C1432 C1439 1.409 1_565 S
C1433 H1425 0.930 . S
C1433 C1431 1.419 1_556 S
C1433 C1434 1.362 . S
C1434 H1426 0.930 . S
C1434 C1433 1.362 . S
C1434 C1437 1.409 1_565 S
C1435 H1427 0.930 . S
C1435 C1436 1.355 . S
C1435 C1437 1.415 . S
C1436 C1435 1.355 . S
C1436 C1438 1.419 1_556 S
C1437 C1432 1.425 1_546 S
C1437 C1434 1.409 1_545 S
C1437 C1435 1.415 . S
C1438 H1428 0.930 . S
C1438 C1436 1.419 1_554 S
C1438 C1439 1.362 . S
C1439 H1429 0.930 . S
C1439 C1432 1.409 1_545 S
C1439 C1438 1.362 . S
H1440 C1446 0.930 . S
H1441 C1449 0.930 . S
H1442 C1450 0.930 . S
H1443 C1451 0.930 . S
H1444 C1454 0.930 . S
H1445 C1455 0.930 . S
C1446 H1440 0.930 . S
C1446 C1447 1.355 . S
C1446 C1448 1.415 . S
C1447 C1446 1.355 . S
C1447 C1449 1.419 . S
C1448 C1446 1.415 . S
C1448 C1453 1.425 1_545 S
C1448 C1455 1.409 1_545 S
C1449 H1441 0.930 . S
C1449 C1447 1.419 . S
C1449 C1450 1.362 . S
C1450 H1442 0.930 . S
C1450 C1449 1.362 . S
C1450 C1453 1.409 1_545 S
C1451 H1443 0.930 . S
C1451 C1452 1.355 . S
C1451 C1453 1.415 . S
C1452 C1451 1.355 . S
C1452 C1454 1.419 . S
C1453 C1448 1.425 1_565 S
C1453 C1450 1.409 1_565 S
C1453 C1451 1.415 . S
C1454 H1444 0.930 . S
C1454 C1452 1.419 . S
C1454 C1455 1.362 . S
C1455 H1445 0.930 . S
C1455 C1448 1.409 1_565 S
C1455 C1454 1.362 . S
C951 C52 1.514 . S
C956 C406 1.524 . S
C967 C111 1.539 . S
C972 C465 1.541 . S
C983 C288 1.528 . S
C988 C170 1.519 . S
C999 C347 1.520 . S
C1004 C229 1.508 . S
C1015 C878 1.537 . S
C1020 C524 1.536 . S
C1031 C937 1.539 . S
C1036 C583 1.538 . S
C1047 C642 1.540 . S
C1052 C760 1.541 . S
C1063 C701 1.507 . S
C1068 C819 1.518 . S
C1079 C33 1.582 . S
C1084 C298 1.595 . S
C1095 C92 1.596 . S
C1100 C239 1.557 . S
C1111 C151 1.604 . S
C1116 C416 1.552 . S
C1127 C357 1.598 . S
C1132 C210 1.575 . S
C1143 C770 1.553 . S
C1148 C505 1.605 . S
C1159 C711 1.554 . S
C1164 C564 1.605 . S
C1175 C623 1.585 . S
C1180 C888 1.593 . S
C1191 C829 1.553 . S
C1196 C682 1.605 . S
C1207 C713 1.572 . S
C1212 C5 1.574 . S
C1223 C64 1.573 . S
C1228 C772 1.570 . S
C1239 C831 1.549 . S
C1244 C123 1.554 . S
C1255 C890 1.568 . S
C1260 C182 1.570 . S
C1271 C477 1.546 . S
C1276 C241 1.539 . S
C1287 C536 1.553 . S
C1292 C300 1.548 . S
C1303 C359 1.561 . S
C1308 C595 1.565 . S
C1319 C418 1.573 . S
C1324 C654 1.575 . S
C1335 C121 1.217 . S
C1340 C3 1.205 . S
C1351 C62 1.223 . S
C1356 C180 1.265 . S
C1367 C387 1.910 . S
C1372 C269 1.909 . S
C1383 C328 1.928 . S
C1388 C446 1.928 . S
C1399 C593 1.203 . S
C1404 C475 1.223 . S
C1415 C652 1.251 . S
C1420 C534 1.274 . S
C1431 C859 1.926 . S
C1436 C741 1.927 . S
C1447 C918 1.927 . S
C1452 C800 1.928 . S
