# Generated by pormake.
# Topology atn, (4)-cn, num edge types: 1
# Building blocks:
#     Node 0, Type 0, BuildingBlock: NAHDIM_clean_sbu_0, # of connection points: 4
#     Node 1, Type 0, BuildingBlock: NAHDIM_clean_sbu_0, # of connection points: 4
#     Node 2, Type 0, BuildingBlock: NAHDIM_clean_sbu_0, # of connection points: 4
#     Node 3, Type 0, BuildingBlock: NAHDIM_clean_sbu_0, # of connection points: 4
#     Node 4, Type 0, BuildingBlock: NAHDIM_clean_sbu_0, # of connection points: 4
#     Node 5, Type 0, BuildingBlock: NAHDIM_clean_sbu_0, # of connection points: 4
#     Node 6, Type 0, BuildingBlock: NAHDIM_clean_sbu_0, # of connection points: 4
#     Node 7, Type 0, BuildingBlock: NAHDIM_clean_sbu_0, # of connection points: 4
#     Node 8, Type 0, BuildingBlock: NAHDIM_clean_sbu_0, # of connection points: 4
#     Node 9, Type 0, BuildingBlock: NAHDIM_clean_sbu_0, # of connection points: 4
#     Node 10, Type 0, BuildingBlock: NAHDIM_clean_sbu_0, # of connection points: 4
#     Node 11, Type 0, BuildingBlock: NAHDIM_clean_sbu_0, # of connection points: 4
#     Node 12, Type 0, BuildingBlock: NAHDIM_clean_sbu_0, # of connection points: 4
#     Node 13, Type 0, BuildingBlock: NAHDIM_clean_sbu_0, # of connection points: 4
#     Node 14, Type 0, BuildingBlock: NAHDIM_clean_sbu_0, # of connection points: 4
#     Node 15, Type 0, BuildingBlock: NAHDIM_clean_sbu_0, # of connection points: 4
#     Edge 16, Type (0, 0), BuildingBlock: XUDNAN_clean_linker_2, # of connection points: 2
#     Edge 17, Type (0, 0), BuildingBlock: XUDNAN_clean_linker_2, # of connection points: 2
#     Edge 18, Type (0, 0), BuildingBlock: XUDNAN_clean_linker_2, # of connection points: 2
#     Edge 19, Type (0, 0), BuildingBlock: XUDNAN_clean_linker_2, # of connection points: 2
#     Edge 20, Type (0, 0), BuildingBlock: XUDNAN_clean_linker_2, # of connection points: 2
#     Edge 21, Type (0, 0), BuildingBlock: XUDNAN_clean_linker_2, # of connection points: 2
#     Edge 22, Type (0, 0), BuildingBlock: XUDNAN_clean_linker_2, # of connection points: 2
#     Edge 23, Type (0, 0), BuildingBlock: XUDNAN_clean_linker_2, # of connection points: 2
#     Edge 24, Type (0, 0), BuildingBlock: XUDNAN_clean_linker_2, # of connection points: 2
#     Edge 25, Type (0, 0), BuildingBlock: XUDNAN_clean_linker_2, # of connection points: 2
#     Edge 26, Type (0, 0), BuildingBlock: XUDNAN_clean_linker_2, # of connection points: 2
#     Edge 27, Type (0, 0), BuildingBlock: XUDNAN_clean_linker_2, # of connection points: 2
#     Edge 28, Type (0, 0), BuildingBlock: XUDNAN_clean_linker_2, # of connection points: 2
#     Edge 29, Type (0, 0), BuildingBlock: XUDNAN_clean_linker_2, # of connection points: 2
#     Edge 30, Type (0, 0), BuildingBlock: XUDNAN_clean_linker_2, # of connection points: 2
#     Edge 31, Type (0, 0), BuildingBlock: XUDNAN_clean_linker_2, # of connection points: 2
#     Edge 32, Type (0, 0), BuildingBlock: XUDNAN_clean_linker_2, # of connection points: 2
#     Edge 33, Type (0, 0), BuildingBlock: XUDNAN_clean_linker_2, # of connection points: 2
#     Edge 34, Type (0, 0), BuildingBlock: XUDNAN_clean_linker_2, # of connection points: 2
#     Edge 35, Type (0, 0), BuildingBlock: XUDNAN_clean_linker_2, # of connection points: 2
#     Edge 36, Type (0, 0), BuildingBlock: XUDNAN_clean_linker_2, # of connection points: 2
#     Edge 37, Type (0, 0), BuildingBlock: XUDNAN_clean_linker_2, # of connection points: 2
#     Edge 38, Type (0, 0), BuildingBlock: XUDNAN_clean_linker_2, # of connection points: 2
#     Edge 39, Type (0, 0), BuildingBlock: XUDNAN_clean_linker_2, # of connection points: 2
#     Edge 40, Type (0, 0), BuildingBlock: XUDNAN_clean_linker_2, # of connection points: 2
#     Edge 41, Type (0, 0), BuildingBlock: XUDNAN_clean_linker_2, # of connection points: 2
#     Edge 42, Type (0, 0), BuildingBlock: XUDNAN_clean_linker_2, # of connection points: 2
#     Edge 43, Type (0, 0), BuildingBlock: XUDNAN_clean_linker_2, # of connection points: 2
#     Edge 44, Type (0, 0), BuildingBlock: XUDNAN_clean_linker_2, # of connection points: 2
#     Edge 45, Type (0, 0), BuildingBlock: XUDNAN_clean_linker_2, # of connection points: 2
#     Edge 46, Type (0, 0), BuildingBlock: XUDNAN_clean_linker_2, # of connection points: 2
#     Edge 47, Type (0, 0), BuildingBlock: XUDNAN_clean_linker_2, # of connection points: 2
# Relax obj value: 0.100
# Max RMSD: 0.110
# Mean RMSD: 0.110
data_MOF--net-atn--node1-NAHDIM_clean_sbu_0--edge1-XUDNAN_clean_linker_2
_symmetry_space_group_name_H-M    P1
_symmetry_Int_Tables_number       1
_symmetry_cell_setting            triclinic
loop_
_symmetry_equiv_pos_as_xyz
'x, y, z'
_cell_length_a     63.15576
_cell_length_b     63.090343
_cell_length_c     24.803936
_cell_angle_alpha  89.959464
_cell_angle_beta   90.058189
_cell_angle_gamma 89.996233
loop_
_atom_site_label
_atom_site_type_symbol
_atom_site_fract_x
_atom_site_fract_y
_atom_site_fract_z
_atom_type_partial_charge
C0 C 0.22243 0.43003 0.96198 0.0
O1 O 0.22693 0.41574 0.92523 0.0
O2 O 0.19666 0.38448 0.08321 0.0
Zn3 Zn 0.21114 0.39254 0.01411 0.0
O4 O 0.19403 0.38276 0.95053 0.0
C5 C 0.24391 0.36164 0.0355 0.0
O6 O 0.22918 0.35275 0.06526 0.0
O7 O 0.21502 0.42394 0.00703 0.0
C8 C 0.19078 0.3633 0.94045 0.0
O9 O 0.19827 0.34885 0.97351 0.0
C10 C 0.17663 0.38348 0.08705 0.0
O11 O 0.16491 0.38894 0.04552 0.0
O12 O 0.23978 0.37875 0.01062 0.0
C13 C 0.57399 0.21498 0.0262 0.0
O14 O 0.58091 0.19533 0.02552 0.0
O15 O 0.61868 0.20595 0.11896 0.0
Zn16 Zn 0.61716 0.22126 0.04811 0.0
O17 O 0.62624 0.20163 0.98875 0.0
C18 C 0.63961 0.25815 0.08932 0.0
O19 O 0.63016 0.25347 0.13497 0.0
O20 O 0.58707 0.22985 0.03513 0.0
C21 C 0.63138 0.20921 0.94314 0.0
O22 O 0.63076 0.22983 0.93586 0.0
C23 C 0.63578 0.19743 0.13501 0.0
O24 O 0.65281 0.19899 0.10491 0.0
O25 O 0.63619 0.24673 0.04806 0.0
C26 C 0.77185 0.57593 0.01675 0.0
O27 O 0.78527 0.58149 0.05471 0.0
O28 O 0.77496 0.62454 0.08687 0.0
Zn29 Zn 0.76393 0.62112 0.01081 0.0
O30 O 0.78339 0.63432 0.95608 0.0
C31 C 0.73079 0.65212 0.02599 0.0
O32 O 0.7447 0.66067 0.05881 0.0
O33 O 0.76101 0.59014 0.99308 0.0
C34 C 0.80176 0.62708 0.94638 0.0
O35 O 0.80887 0.61101 0.97483 0.0
C36 C 0.78776 0.63905 0.1011 0.0
O37 O 0.79422 0.65292 0.06518 0.0
O38 O 0.73538 0.63491 0.00217 0.0
C39 C 0.42027 0.81747 0.00391 0.0
O40 O 0.40617 0.83273 0.0068 0.0
O41 O 0.36793 0.80648 0.0561 0.0
Zn42 Zn 0.38278 0.79292 0.99308 0.0
O43 O 0.3712 0.8051 0.92432 0.0
C44 C 0.36752 0.75251 0.03157 0.0
O45 O 0.36246 0.76367 0.07434 0.0
O46 O 0.41399 0.79849 0.99782 0.0
C47 C 0.37885 0.79995 0.87884 0.0
O48 O 0.39493 0.78676 0.87703 0.0
C49 C 0.35786 0.82386 0.05248 0.0
O50 O 0.35733 0.83393 0.00613 0.0
O51 O 0.37695 0.76153 0.99258 0.0
C52 C 0.23338 0.58515 0.95207 0.0
O53 O 0.23574 0.5982 0.91121 0.0
O54 O 0.21304 0.63847 0.95085 0.0
Zn55 Zn 0.2283 0.62407 0.01208 0.0
O56 O 0.21251 0.62975 0.08067 0.0
C57 C 0.27356 0.63236 0.99307 0.0
O58 O 0.27255 0.617 0.95749 0.0
O59 O 0.23028 0.59265 0.99896 0.0
C60 C 0.19713 0.61853 0.0972 0.0
O61 O 0.19096 0.60215 0.06855 0.0
C62 C 0.19729 0.63021 0.92682 0.0
O63 O 0.19039 0.61152 0.94223 0.0
O64 O 0.25714 0.63728 0.01988 0.0
C65 C 0.41957 0.21365 0.98649 0.0
O66 O 0.41315 0.19418 0.97715 0.0
O67 O 0.36876 0.21125 0.91207 0.0
Zn68 Zn 0.37523 0.22026 0.98807 0.0
O69 O 0.36941 0.19734 0.04247 0.0
C70 C 0.36218 0.26356 0.98461 0.0
O71 O 0.37909 0.26508 0.95406 0.0
O72 O 0.40586 0.22815 0.99276 0.0
C73 C 0.35067 0.19194 0.05491 0.0
O74 O 0.33466 0.20096 0.02999 0.0
C75 C 0.36355 0.19272 0.89709 0.0
O76 O 0.36217 0.17747 0.93299 0.0
O77 O 0.35739 0.24569 0.00484 0.0
C78 C 0.77621 0.42153 0.96724 0.0
O79 O 0.76575 0.40904 0.93425 0.0
O80 O 0.7981 0.37103 0.92784 0.0
Zn81 Zn 0.79209 0.38172 0.00285 0.0
O82 O 0.81478 0.37334 0.05559 0.0
C83 C 0.75252 0.35837 0.99909 0.0
O84 O 0.75707 0.35662 0.94763 0.0
O85 O 0.78891 0.41335 0.00114 0.0
C86 C 0.81669 0.35379 0.06703 0.0
O87 O 0.80489 0.33994 0.04126 0.0
C88 C 0.81553 0.36357 0.91083 0.0
O89 O 0.8319 0.36268 0.94348 0.0
O90 O 0.76489 0.36875 0.02969 0.0
C91 C 0.57547 0.82315 0.99375 0.0
O92 O 0.58824 0.83958 0.9926 0.0
O93 O 0.62003 0.81468 0.89847 0.0
Zn94 Zn 0.61443 0.80354 0.97285 0.0
O95 O 0.62943 0.82153 0.02782 0.0
C96 C 0.622 0.75815 0.95104 0.0
O97 O 0.60822 0.75994 0.91157 0.0
O98 O 0.58316 0.80475 0.98661 0.0
C99 C 0.63174 0.81358 0.07454 0.0
O100 O 0.624 0.79463 0.08431 0.0
C101 C 0.63821 0.81316 0.87699 0.0
O102 O 0.65363 0.80412 0.90416 0.0
O103 O 0.62611 0.77412 0.98033 0.0
C104 C 0.73454 0.91926 0.54844 0.0
O105 O 0.73321 0.90462 0.58597 0.0
O106 O 0.71295 0.86908 0.53668 0.0
Zn107 Zn 0.73083 0.88296 0.47976 0.0
O108 O 0.71619 0.88037 0.40813 0.0
C109 C 0.77285 0.86865 0.51207 0.0
O110 O 0.77013 0.88159 0.5529 0.0
O111 O 0.73437 0.91376 0.49913 0.0
C112 C 0.70916 0.86229 0.3945 0.0
O113 O 0.71178 0.84619 0.42749 0.0
C114 C 0.69321 0.87273 0.53971 0.0
O115 O 0.68435 0.8854 0.50417 0.0
O116 O 0.7586 0.86739 0.47598 0.0
C117 C 0.07137 0.67942 0.4997 0.0
O118 O 0.0847 0.66371 0.4923 0.0
O119 O 0.12375 0.69459 0.57477 0.0
Zn120 Zn 0.11035 0.70154 0.50318 0.0
O121 O 0.12149 0.68175 0.44636 0.0
C122 C 0.12595 0.74405 0.51806 0.0
O123 O 0.12654 0.73798 0.5687 0.0
O124 O 0.07863 0.69804 0.50641 0.0
C125 C 0.1389 0.68499 0.42219 0.0
O126 O 0.15041 0.70153 0.43546 0.0
C127 C 0.12642 0.67613 0.59411 0.0
O128 O 0.11979 0.65957 0.56686 0.0
O129 O 0.11859 0.73145 0.48271 0.0
C130 C 0.29578 0.06893 0.49868 0.0
O131 O 0.31544 0.07432 0.48812 0.0
O132 O 0.30431 0.12591 0.5488 0.0
Zn133 Zn 0.28859 0.11365 0.4856 0.0
O134 O 0.30634 0.11675 0.41854 0.0
C135 C 0.25301 0.1419 0.50854 0.0
O136 O 0.26164 0.14369 0.55653 0.0
O137 O 0.28158 0.08317 0.49962 0.0
C138 C 0.29713 0.11874 0.37323 0.0
O139 O 0.27639 0.11738 0.37102 0.0
C140 C 0.31249 0.14422 0.54424 0.0
O141 O 0.31073 0.15434 0.49812 0.0
O142 O 0.26157 0.12991 0.4737 0.0
C143 C 0.92257 0.28279 0.51946 0.0
O144 O 0.91482 0.30211 0.52067 0.0
O145 O 0.8681 0.28934 0.56495 0.0
Zn146 Zn 0.87938 0.27368 0.5005 0.0
O147 O 0.8761 0.2921 0.43462 0.0
C148 C 0.85326 0.23728 0.52733 0.0
O149 O 0.85343 0.2455 0.57597 0.0
O150 O 0.91008 0.26733 0.51154 0.0
C151 C 0.87216 0.28403 0.38877 0.0
O152 O 0.87046 0.26335 0.3844 0.0
C153 C 0.84954 0.29707 0.56333 0.0
O154 O 0.83815 0.29461 0.51942 0.0
O155 O 0.86333 0.24648 0.4897 0.0
C156 C 0.71888 0.07322 0.58549 0.0
O157 O 0.72246 0.0859 0.62651 0.0
O158 O 0.69005 0.121 0.47422 0.0
Zn159 Zn 0.70584 0.11224 0.54096 0.0
O160 O 0.68977 0.12054 0.60748 0.0
C161 C 0.74542 0.12659 0.49969 0.0
O162 O 0.73963 0.11464 0.45889 0.0
O163 O 0.71139 0.08095 0.54218 0.0
C164 C 0.68721 0.14001 0.61876 0.0
O165 O 0.69466 0.15445 0.5856 0.0
C166 C 0.67014 0.12373 0.47237 0.0
O167 O 0.65869 0.11974 0.5154 0.0
O168 O 0.73349 0.12772 0.54078 0.0
C169 C 0.91582 0.67958 0.49832 0.0
O170 O 0.90239 0.66369 0.5002 0.0
O171 O 0.86178 0.68835 0.45071 0.0
Zn172 Zn 0.87749 0.70151 0.51347 0.0
O173 O 0.87056 0.68657 0.58304 0.0
C174 C 0.86033 0.74222 0.48261 0.0
O175 O 0.85613 0.73223 0.43741 0.0
O176 O 0.90876 0.69837 0.50204 0.0
C177 C 0.85436 0.69096 0.61126 0.0
O178 O 0.84112 0.70557 0.59425 0.0
C179 C 0.85111 0.67131 0.45406 0.0
O180 O 0.85011 0.6613 0.50043 0.0
O181 O 0.86976 0.73238 0.52038 0.0
C182 C 0.28214 0.91435 0.50873 0.0
O183 O 0.30031 0.90574 0.49509 0.0
O184 O 0.28028 0.87056 0.4166 0.0
Zn185 Zn 0.26942 0.87201 0.49252 0.0
O186 O 0.29088 0.85851 0.54157 0.0
C187 C 0.2287 0.85685 0.45822 0.0
O188 O 0.23329 0.86817 0.41531 0.0
O189 O 0.26582 0.90265 0.51173 0.0
C190 C 0.29022 0.86082 0.5924 0.0
O191 O 0.27499 0.87226 0.61371 0.0
C192 C 0.28964 0.85408 0.39949 0.0
O193 O 0.29198 0.83779 0.43199 0.0
O194 O 0.24172 0.85639 0.49732 0.0
C195 C 0.07741 0.28961 0.52414 0.0
O196 O 0.08332 0.30958 0.52486 0.0
O197 O 0.12286 0.30177 0.43866 0.0
Zn198 Zn 0.12122 0.28503 0.50734 0.0
O199 O 0.12944 0.30365 0.56933 0.0
C200 C 0.14049 0.24759 0.46354 0.0
O201 O 0.12727 0.25132 0.42372 0.0
O202 O 0.09134 0.27535 0.51744 0.0
C203 C 0.13487 0.2956 0.6142 0.0
O204 O 0.13518 0.27488 0.61944 0.0
C205 C 0.1405 0.30853 0.42117 0.0
O206 O 0.15784 0.30429 0.44847 0.0
O207 O 0.14069 0.25998 0.50385 0.0
H208 H 0.22351 0.554 0.0249 0.0
H209 H 0.24366 0.564 0.85946 0.0
H210 H 0.2435 0.52532 0.84446 0.0
H211 H 0.25389 0.50656 0.04941 0.0
H212 H 0.23349 0.49422 0.08935 0.0
H213 H 0.23565 0.52268 0.08736 0.0
H214 H 0.19654 0.5254 0.05635 0.0
H215 H 0.19426 0.49696 0.05817 0.0
H216 H 0.18806 0.51119 0.99712 0.0
H217 H 0.24095 0.48569 0.84733 0.0
H218 H 0.23567 0.44777 0.8673 0.0
H219 H 0.21666 0.46371 0.03056 0.0
C220 C 0.22802 0.54807 0.98558 0.0
C221 C 0.23368 0.56201 0.94337 0.0
C222 C 0.23928 0.55362 0.8924 0.0
C223 C 0.23926 0.53168 0.8835 0.0
C224 C 0.23353 0.5184 0.92593 0.0
C225 C 0.22797 0.52626 0.97592 0.0
C226 C 0.22204 0.5086 0.0144 0.0
C227 C 0.23718 0.50798 0.06299 0.0
C228 C 0.19885 0.51067 0.03255 0.0
C229 C 0.22514 0.48956 0.9782 0.0
C230 C 0.23182 0.49556 0.9274 0.0
C231 C 0.23572 0.48079 0.88696 0.0
C232 C 0.23269 0.45928 0.89874 0.0
C233 C 0.22575 0.45277 0.95049 0.0
C234 C 0.22196 0.46818 0.99062 0.0
H235 H 0.45265 0.1857 0.98264 0.0
H236 H 0.43805 0.2526 0.00028 0.0
H237 H 0.4762 0.26049 0.00937 0.0
H238 H 0.4941 0.18415 0.0794 0.0
H239 H 0.51005 0.16562 0.04193 0.0
H240 H 0.4817 0.16542 0.03448 0.0
H241 H 0.4857 0.17029 0.93118 0.0
H242 H 0.51409 0.17049 0.93831 0.0
H243 H 0.50086 0.1923 0.90553 0.0
H244 H 0.51594 0.2609 0.01888 0.0
H245 H 0.5542 0.25368 0.02918 0.0
H246 H 0.54236 0.18651 0.00577 0.0
C247 C 0.45744 0.20204 0.98805 0.0
C248 C 0.44238 0.21853 0.99067 0.0
C249 C 0.44933 0.23969 0.99814 0.0
C250 C 0.47095 0.24434 0.00325 0.0
C251 C 0.48538 0.22767 0.00077 0.0
C252 C 0.47891 0.20695 0.99335 0.0
C253 C 0.49751 0.19185 0.99356 0.0
C254 C 0.49573 0.17582 0.04012 0.0
C255 C 0.49966 0.18057 0.93889 0.0
C256 C 0.51545 0.20729 0.00274 0.0
C257 C 0.50817 0.22789 0.00653 0.0
C258 C 0.52184 0.24484 0.01579 0.0
C259 C 0.54353 0.24058 0.0216 0.0
C260 C 0.55126 0.21954 0.01829 0.0
C261 C 0.53697 0.20277 0.00844 0.0
H262 H 0.79469 0.45169 0.03159 0.0
H263 H 0.75036 0.44386 0.89911 0.0
H264 H 0.74454 0.48254 0.89709 0.0
H265 H 0.76631 0.49287 0.09954 0.0
H266 H 0.78982 0.50699 0.1198 0.0
H267 H 0.79076 0.47871 0.11028 0.0
H268 H 0.82148 0.48318 0.04201 0.0
H269 H 0.82066 0.51148 0.05139 0.0
H270 H 0.81806 0.50044 0.98469 0.0
H271 H 0.74321 0.52199 0.91022 0.0
H272 H 0.74673 0.55949 0.93697 0.0
H273 H 0.79198 0.54147 0.06079 0.0
C274 C 0.7838 0.45809 0.00203 0.0
C275 C 0.77298 0.44473 0.9655 0.0
C276 C 0.75883 0.45376 0.92752 0.0
C277 C 0.75541 0.47572 0.92604 0.0
C278 C 0.76627 0.4884 0.96277 0.0
C279 C 0.7802 0.47994 -1e-05 0.0
C280 C 0.78977 0.49703 0.03521 0.0
C281 C 0.7838 0.4937 0.09473 0.0
C282 C 0.81393 0.49809 0.02786 0.0
C283 C 0.77901 0.51644 0.01202 0.0
C284 C 0.76552 0.51113 0.97029 0.0
C285 C 0.75375 0.52636 0.9428 0.0
C286 C 0.75585 0.54762 0.95835 0.0
C287 C 0.76963 0.55344 0.00098 0.0
C288 C 0.78132 0.53756 0.02802 0.0
H289 H 0.54409 0.79303 0.98931 0.0
H290 H 0.55479 0.86034 0.01392 0.0
H291 H 0.51629 0.86597 0.02213 0.0
H292 H 0.49807 0.79837 0.9083 0.0
H293 H 0.4848 0.77559 0.93625 0.0
H294 H 0.51328 0.77659 0.9351 0.0
H295 H 0.51433 0.77045 0.0384 0.0
H296 H 0.48583 0.76936 0.03985 0.0
H297 H 0.49974 0.78794 0.08219 0.0
H298 H 0.47671 0.8646 0.02407 0.0
H299 H 0.43858 0.85622 0.02035 0.0
H300 H 0.45364 0.78983 0.99441 0.0
C301 C 0.53836 0.80893 0.99692 0.0
C302 C 0.55246 0.82624 0.00103 0.0
C303 C 0.5443 0.84682 0.01063 0.0
C304 C 0.52246 0.85019 0.01542 0.0
C305 C 0.509 0.83283 0.01062 0.0
C306 C 0.5166 0.81259 0.00174 0.0
C307 C 0.49869 0.79676 0.99666 0.0
C308 C 0.49872 0.78622 0.94075 0.0
C309 C 0.49971 0.78015 0.04198 0.0
C310 C 0.47983 0.81132 0.00348 0.0
C311 C 0.48613 0.83204 0.01169 0.0
C312 C 0.47156 0.84842 0.01795 0.0
C313 C 0.44994 0.8435 0.01568 0.0
C314 C 0.44312 0.82237 0.00715 0.0
C315 C 0.45833 0.80612 0.00119 0.0
H316 H 0.71722 0.04327 0.50537 0.0
H317 H 0.73054 0.05132 0.67594 0.0
H318 H 0.73733 0.01294 0.6842 0.0
H319 H 0.69023 0.99394 0.51639 0.0
H320 H 0.70102 0.98319 0.45498 0.0
H321 H 0.69781 0.0114 0.46216 0.0
H322 H 0.73762 0.01686 0.44095 0.0
H323 H 0.74096 0.98864 0.43378 0.0
H324 H 0.75724 0.00316 0.48068 0.0
H325 H 0.74108 0.97359 0.6749 0.0
H326 H 0.7422 0.93592 0.64819 0.0
H327 H 0.7274 0.95366 0.48323 0.0
C328 C 0.72163 0.03699 0.54443 0.0
C329 C 0.72333 0.05029 0.59004 0.0
C330 C 0.72918 0.04145 0.64041 0.0
C331 C 0.73307 0.01967 0.64554 0.0
C332 C 0.7312 0.007 0.59983 0.0
C333 C 0.72571 0.01532 0.5502 0.0
C334 C 0.72453 0.99819 0.50757 0.0
C335 C 0.70206 0.99659 0.48391 0.0
C336 C 0.74108 0.00194 0.46313 0.0
C337 C 0.72997 0.9789 0.54116 0.0
C338 C 0.73376 0.98433 0.59426 0.0
C339 C 0.73832 0.96914 0.63335 0.0
C340 C 0.73888 0.9478 0.6178 0.0
C341 C 0.73501 0.94188 0.56361 0.0
C342 C 0.73069 0.95771 0.52483 0.0
H343 H 0.94823 0.70862 0.50305 0.0
H344 H 0.93545 0.64128 0.48649 0.0
H345 H 0.97382 0.6341 0.48461 0.0
H346 H 0.99421 0.71004 0.41569 0.0
H347 H 0.00812 0.72905 0.45679 0.0
H348 H 0.9796 0.72899 0.45535 0.0
H349 H 0.97883 0.72513 0.55935 0.0
H350 H 0.00733 0.72507 0.5611 0.0
H351 H 0.99277 0.70344 0.59077 0.0
H352 H 0.01331 0.63405 0.48634 0.0
H353 H 0.05164 0.64112 0.49019 0.0
H354 H 0.03896 0.7085 0.50631 0.0
C355 C 0.95349 0.69237 0.49864 0.0
C356 C 0.93883 0.6755 0.49485 0.0
C357 C 0.94637 0.65447 0.48944 0.0
C358 C 0.96814 0.65022 0.48834 0.0
C359 C 0.98214 0.66717 0.4927 0.0
C360 C 0.97517 0.68783 0.4976 0.0
C361 C 0.99359 0.70311 0.50235 0.0
C362 C 0.99389 0.71871 0.4547 0.0
C363 C 0.99309 0.71487 0.55663 0.0
C364 C 0.012 0.68776 0.49962 0.0
C365 C 0.00501 0.66713 0.49396 0.0
C366 C 0.019 0.65014 0.49066 0.0
C367 C 0.04075 0.65434 0.49294 0.0
C368 C 0.04832 0.67537 0.49856 0.0
C369 C 0.03368 0.69226 0.50209 0.0
H370 H 0.32142 0.034 0.48989 0.0
H371 H 0.25713 0.05314 0.52834 0.0
H372 H 0.2472 0.01564 0.54091 0.0
H373 H 0.3077 0.98893 0.41344 0.0
H374 H 0.32956 0.97299 0.43669 0.0
H375 H 0.33201 0.00139 0.43462 0.0
H376 H 0.34186 0.00176 0.53611 0.0
H377 H 0.33943 0.97332 0.53848 0.0
H378 H 0.32432 0.98953 0.58425 0.0
H379 H 0.24376 0.97605 0.54455 0.0
H380 H 0.24698 0.93714 0.5376 0.0
H381 H 0.31348 0.94396 0.49668 0.0
C382 C 0.30531 0.03035 0.50154 0.0
C383 C 0.29007 0.04651 0.50822 0.0
C384 C 0.26909 0.04102 0.52299 0.0
C385 C 0.2633 0.01978 0.53039 0.0
C386 C 0.27867 0.00422 0.523 0.0
C387 C 0.29924 0.00923 0.50897 0.0
C388 C 0.31247 0.98947 0.50108 0.0
C389 C 0.32092 0.98812 0.44301 0.0
C390 C 0.33059 0.98847 0.54246 0.0
C391 C 0.29601 0.97257 0.51193 0.0
C392 C 0.27667 0.98139 0.52494 0.0
C393 C 0.25887 0.96894 0.53481 0.0
C394 C 0.26086 0.94686 0.53071 0.0
C395 C 0.28048 0.9375 0.51667 0.0
C396 C 0.29829 0.9506 0.50782 0.0
H397 H 0.04373 0.31664 0.533 0.0
H398 H 0.05992 0.24982 0.5244 0.0
H399 H 0.02191 0.24063 0.52716 0.0
H400 H -0.00153 0.31095 0.62323 0.0
H401 H 0.98351 0.33138 0.58958 0.0
H402 H 0.01201 0.33256 0.59046 0.0
H403 H 0.01243 0.33457 0.48606 0.0
H404 H 0.98397 0.33336 0.48484 0.0
H405 H -0.00073 0.31425 0.44748 0.0
H406 H 0.98212 0.23889 0.52582 0.0
H407 H 0.9435 0.24472 0.52064 0.0
H408 H 0.95367 0.31269 0.53015 0.0
C409 C 0.03934 0.30005 0.53229 0.0
C410 C 0.05479 0.28394 0.52856 0.0
C411 C 0.04834 0.26243 0.52734 0.0
C412 C 0.02681 0.25705 0.52897 0.0
C413 C 0.01198 0.27335 0.53202 0.0
C414 C 0.01797 0.29441 0.53385 0.0
C415 C -0.00107 0.30895 0.53493 0.0
C416 C 0.99819 0.32171 0.5877 0.0
C417 C -0.00136 0.32364 0.48538 0.0
C418 C 0.98127 0.2928 0.53253 0.0
C419 C 0.9891 0.27235 0.53121 0.0
C420 C 0.97579 0.25482 0.52724 0.0
C421 C 0.95389 0.2583 0.52423 0.0
C422 C 0.94557 0.27916 0.52507 0.0
C423 C 0.95951 0.29655 0.52971 0.0
H424 H 0.2558 0.32213 0.07 0.0
H425 H 0.27881 0.37745 0.98386 0.0
H426 H 0.31273 0.35919 0.9671 0.0
H427 H 0.3065 0.30696 0.13148 0.0
H428 H 0.30144 0.27903 0.12338 0.0
H429 H 0.27969 0.29715 0.13268 0.0
H430 H 0.26249 0.2836 0.04426 0.0
H431 H 0.28416 0.26549 0.03464 0.0
H432 H 0.27751 0.28428 0.98252 0.0
H433 H 0.34317 0.33413 0.95459 0.0
H434 H 0.36777 0.3039 0.94634 0.0
H435 H 0.32469 0.26494 0.04012 0.0
C436 C 0.26808 0.33054 0.04834 0.0
C437 C 0.26469 0.35124 0.0284 0.0
C438 C 0.28107 0.36159 0.99959 0.0
C439 C 0.30041 0.35139 0.98999 0.0
C440 C 0.30313 0.33087 0.00956 0.0
C441 C 0.28743 0.32057 0.03822 0.0
C442 C 0.29389 0.29812 0.05218 0.0
C443 C 0.29547 0.29515 0.11358 0.0
C444 C 0.27861 0.28192 0.02687 0.0
C445 C 0.31549 0.29727 0.02595 0.0
C446 C 0.32062 0.31637 0.00202 0.0
C447 C 0.33942 0.31915 0.97357 0.0
C448 C 0.35327 0.30187 0.96904 0.0
C449 C 0.34818 0.28206 0.99262 0.0
C450 C 0.32912 0.2799 0.02192 0.0
H451 H 0.72597 0.33084 0.94713 0.0
H452 H 0.73779 0.35978 0.10305 0.0
H453 H 0.70862 0.33877 0.14236 0.0
H454 H 0.66827 0.32741 0.95929 0.0
H455 H 0.66715 0.30213 0.92559 0.0
H456 H 0.68777 0.32076 0.90903 0.0
H457 H 0.71612 0.29224 0.93044 0.0
H458 H 0.69562 0.27358 0.94725 0.0
H459 H 0.71611 0.27954 0.99557 0.0
H460 H 0.67949 0.31294 0.16572 0.0
H461 H 0.6529 0.28426 0.17114 0.0
H462 H 0.66072 0.27225 -5e-05 0.0
C463 C 0.72224 0.33303 0.98936 0.0
C464 C 0.73412 0.34701 0.02196 0.0
C465 C 0.72887 0.34919 0.07723 0.0
C466 C 0.71231 0.33736 0.09993 0.0
C467 C 0.70114 0.32347 0.06678 0.0
C468 C 0.70586 0.32131 0.01266 0.0
C469 C 0.69221 0.30454 0.98634 0.0
C470 C 0.678 0.3143 0.94248 0.0
C471 C 0.70583 0.28641 0.96359 0.0
C472 C 0.67934 0.29731 0.03433 0.0
C473 C 0.68456 0.30852 0.08029 0.0
C474 C 0.67515 0.30417 0.12989 0.0
C475 C 0.66009 0.28784 0.13259 0.0
C476 C 0.65471 0.27601 0.08602 0.0
C477 C 0.66441 0.28102 0.0363 0.0
H478 H 0.71655 0.68946 0.06882 0.0
H479 H 0.70012 0.64044 0.95336 0.0
H480 H 0.66853 0.66095 0.92632 0.0
H481 H 0.66184 0.70329 0.1074 0.0
H482 H 0.66808 0.73108 0.11296 0.0
H483 H 0.68811 0.71147 0.12688 0.0
H484 H 0.71273 0.72896 0.05607 0.0
H485 H 0.69278 0.74852 0.04183 0.0
H486 H 0.70334 0.73253 0.988 0.0
H487 H 0.64056 0.68853 0.90595 0.0
H488 H 0.61836 0.7206 0.89538 0.0
H489 H 0.65322 0.75095 0.02507 0.0
C490 C 0.70614 0.68282 0.0385 0.0
C491 C 0.71081 0.66333 0.01327 0.0
C492 C 0.69684 0.65532 0.97342 0.0
C493 C 0.67883 0.66684 0.95781 0.0
C494 C 0.67493 0.68623 0.98277 0.0
C495 C 0.68811 0.69406 0.02259 0.0
C496 C 0.68112 0.71579 0.04106 0.0
C497 C 0.67438 0.71537 0.10061 0.0
C498 C 0.69852 0.73242 0.03111 0.0
C499 C 0.6623 0.71924 0.00435 0.0
C500 C 0.65883 0.70197 0.9713 0.0
C501 C 0.64296 0.70204 0.93211 0.0
C502 C 0.63046 0.72033 0.92633 0.0
C503 C 0.63399 0.73827 0.95945 0.0
C504 C 0.64996 0.73747 0.99933 0.0
H505 H 0.28167 0.66297 0.06815 0.0
H506 H 0.3089 0.63156 0.92888 0.0
H507 H 0.33905 0.6565 0.93104 0.0
H508 H 0.29248 0.71376 0.02904 0.0
H509 H 0.29867 0.72378 0.09524 0.0
H510 H 0.28118 0.70151 0.08807 0.0
H511 H 0.30521 0.67919 0.15105 0.0
H512 H 0.3228 0.70149 0.15864 0.0
H513 H 0.33296 0.67639 0.13557 0.0
H514 H 0.36304 0.68808 0.93983 0.0
H515 H 0.37955 0.72298 0.95656 0.0
H516 H 0.33714 0.73291 0.09174 0.0
C517 C 0.29421 0.66099 0.03885 0.0
C518 C 0.29293 0.64533 0.99832 0.0
C519 C 0.30959 0.64338 0.96047 0.0
C520 C 0.3268 0.65745 0.96143 0.0
C521 C 0.32724 0.67312 0.00102 0.0
C522 C 0.31151 0.67477 0.03948 0.0
C523 C 0.31472 0.69399 0.07497 0.0
C524 C 0.29564 0.70914 0.07157 0.0
C525 C 0.3192 0.68736 0.13353 0.0
C526 C 0.33418 0.70347 0.04894 0.0
C527 C 0.34134 0.69109 0.00674 0.0
C528 C 0.35788 0.69766 0.97352 0.0
C529 C 0.36711 0.71753 0.9832 0.0
C530 C 0.35974 0.73056 0.02572 0.0
C531 C 0.34341 0.72314 0.05962 0.0
H532 H 0.83278 0.76456 0.41918 0.0
H533 H 0.8698 0.76897 0.56629 0.0
H534 H 0.85428 0.80418 0.58448 0.0
H535 H 0.83415 0.82163 0.38339 0.0
H536 H 0.80721 0.82122 0.35937 0.0
H537 H 0.82339 0.79778 0.35422 0.0
H538 H 0.79509 0.77637 0.40675 0.0
H539 H 0.77888 0.79969 0.41214 0.0
H540 H 0.78663 0.78552 0.47213 0.0
H541 H 0.8322 0.8372 0.59108 0.0
H542 H 0.80456 0.86484 0.58704 0.0
H543 H 0.78173 0.83842 0.4362 0.0
C544 C 0.83801 0.77312 0.4546 0.0
C545 C 0.8526 0.76408 0.49116 0.0
C546 C 0.85869 0.77563 0.53762 0.0
C547 C 0.85003 0.79567 0.54817 0.0
C548 C 0.83536 0.80395 0.51182 0.0
C549 C 0.82943 0.79304 0.4659 0.0
C550 C 0.81201 0.80452 0.43579 0.0
C551 C 0.81966 0.81172 0.37988 0.0
C552 C 0.79198 0.7907 0.4315 0.0
C553 C 0.80859 0.82325 0.47281 0.0
C554 C 0.82243 0.82283 0.51599 0.0
C555 C 0.82146 0.83785 0.55709 0.0
C556 C 0.80569 0.85348 0.55446 0.0
C557 C 0.79099 0.85383 0.51128 0.0
C558 C 0.79281 0.83872 0.46952 0.0
H559 H 0.21343 0.83351 0.54288 0.0
H560 H 0.20069 0.84964 0.37579 0.0
H561 H 0.17042 0.82487 0.37541 0.0
H562 H 0.20356 0.77956 0.53202 0.0
H563 H 0.19122 0.77682 0.59714 0.0
H564 H 0.21033 0.79747 0.58597 0.0
H565 H 0.18298 0.82562 0.61666 0.0
H566 H 0.16375 0.805 0.62803 0.0
H567 H 0.1575 0.82687 0.58402 0.0
H568 H 0.14421 0.79534 0.39023 0.0
H569 H 0.12353 0.76419 0.42014 0.0
H570 H 0.15276 0.76842 0.5782 0.0
C571 C 0.20407 0.83212 0.50645 0.0
C572 C 0.20943 0.84352 0.45936 0.0
C573 C 0.19684 0.84114 0.41244 0.0
C574 C 0.17959 0.82712 0.41183 0.0
C575 C 0.17499 0.81582 0.45866 0.0
C576 C 0.18674 0.81835 0.50527 0.0
C577 C 0.17928 0.80351 0.54928 0.0
C578 C 0.19716 0.78845 0.56711 0.0
C579 C 0.17034 0.816 0.59733 0.0
C580 C 0.16195 0.79175 0.51962 0.0
C581 C 0.15959 0.79916 0.46752 0.0
C582 C 0.14564 0.78966 0.43125 0.0
C583 C 0.134 0.77196 0.44854 0.0
C584 C 0.13638 0.76401 0.50162 0.0
C585 C 0.15027 0.77434 0.5377 0.0
H586 H 0.23392 0.17318 0.5679 0.0
H587 H 0.22987 0.13968 0.41533 0.0
H588 H 0.19967 0.16219 0.38857 0.0
H589 H 0.17721 0.18093 0.58679 0.0
H590 H 0.18049 0.20702 0.61516 0.0
H591 H 0.20097 0.18741 0.62357 0.0
H592 H 0.22828 0.2132 0.58133 0.0
H593 H 0.20788 0.23284 0.57263 0.0
H594 H 0.22324 0.22422 0.51548 0.0
H595 H 0.17084 0.18927 0.37689 0.0
H596 H 0.14556 0.2191 0.38117 0.0
H597 H 0.16885 0.23503 0.5409 0.0
C598 C 0.22654 0.17039 0.52914 0.0
C599 C 0.23421 0.15462 0.49381 0.0
C600 C 0.22424 0.15165 0.44315 0.0
C601 C 0.20706 0.16433 0.42757 0.0
C602 C 0.20005 0.1799 0.46311 0.0
C603 C 0.20945 0.18295 0.51286 0.0
C604 C 0.1994 0.20129 0.54267 0.0
C605 C 0.18889 0.1937 0.59515 0.0
C606 C 0.21567 0.21893 0.55364 0.0
C607 C 0.18306 0.20822 0.50165 0.0
C608 C 0.18359 0.19561 0.45617 0.0
C609 C 0.1702 0.1992 0.41241 0.0
C610 C 0.15591 0.21619 0.4152 0.0
C611 C 0.15522 0.2294 0.46133 0.0
C612 C 0.16895 0.22522 0.50507 0.0
H613 H 0.82403 0.21806 0.59263 0.0
H614 H 0.85349 0.21357 0.43496 0.0
H615 H 0.83085 0.18284 0.41329 0.0
H616 H 0.81686 0.16098 0.61482 0.0
H617 H 0.79153 0.16452 0.64698 0.0
H618 H 0.8114 0.18493 0.65191 0.0
H619 H 0.78487 0.21232 0.61293 0.0
H620 H 0.76496 0.19202 0.60782 0.0
H621 H 0.77229 0.20712 0.54901 0.0
H622 H 0.80355 0.15404 0.40671 0.0
H623 H 0.77299 0.12985 0.41488 0.0
H624 H 0.76113 0.15359 0.57636 0.0
C625 C 0.82598 0.21041 0.55388 0.0
C626 C 0.8406 0.21814 0.51559 0.0
C627 C 0.84242 0.20789 0.46497 0.0
C628 C 0.82967 0.19039 0.45235 0.0
C629 C 0.81522 0.18334 0.49076 0.0
C630 C 0.81331 0.19302 0.54049 0.0
C631 C 0.79566 0.18319 0.5733 0.0
C632 C 0.80439 0.17278 0.6248 0.0
C633 C 0.77843 0.19964 0.58651 0.0
C634 C 0.78769 0.16674 0.53385 0.0
C635 C 0.79932 0.16691 0.48671 0.0
C636 C 0.79443 0.15363 0.4436 0.0
C637 C 0.77704 0.13996 0.44863 0.0
C638 C 0.76468 0.13981 0.49626 0.0
C639 C 0.77031 0.15323 0.53954 0.0
H640 H 0.17586 0.32375 0.37006 0.0
H641 H 0.1073 0.3213 0.3578 0.0
H642 H 0.10893 0.34168 0.2729 0.0
H643 H 0.18225 0.37693 0.31705 0.0
H644 H 0.20618 0.37052 0.28103 0.0
H645 H 0.19956 0.35639 0.34185 0.0
H646 H 0.20199 0.32072 0.29035 0.0
H647 H 0.20866 0.33474 0.22945 0.0
H648 H 0.18635 0.31692 0.23028 0.0
H649 H 0.11813 0.36144 0.18787 0.0
H650 H 0.13431 0.37849 0.10823 0.0
H651 H 0.19676 0.36793 0.17663 0.0
C652 C 0.16117 0.32759 0.34975 0.0
C653 C 0.14145 0.32096 0.37066 0.0
C654 C 0.1226 0.32622 0.34259 0.0
C655 C 0.12335 0.33783 0.29439 0.0
C656 C 0.14306 0.34407 0.27485 0.0
C657 C 0.16162 0.33913 0.30162 0.0
C658 C 0.18078 0.34721 0.27132 0.0
C659 C 0.1929 0.36374 0.30482 0.0
C660 C 0.19529 0.3288 0.25434 0.0
C661 C 0.1701 0.35729 0.22307 0.0
C662 C 0.14834 0.35542 0.22594 0.0
C663 C 0.13516 0.3631 0.18529 0.0
C664 C 0.14449 0.37276 0.14024 0.0
C665 C 0.16679 0.3746 0.13622 0.0
C666 C 0.17966 0.36691 0.17857 0.0
H667 H 0.68996 0.13551 0.37887 0.0
H668 H 0.62824 0.13324 0.45571 0.0
H669 H 0.61245 0.15091 0.37633 0.0
H670 H 0.68442 0.18644 0.32168 0.0
H671 H 0.69826 0.18007 0.26027 0.0
H672 H 0.70445 0.16607 0.32156 0.0
H673 H 0.69676 0.13026 0.2743 0.0
H674 H 0.69066 0.14414 0.21271 0.0
H675 H 0.67156 0.12621 0.24165 0.0
H676 H 0.6038 0.17047 0.2905 0.0
H677 H 0.60274 0.18966 0.20377 0.0
H678 H 0.6702 0.17901 0.1836 0.0
C679 C 0.67306 0.13849 0.37888 0.0
C680 C 0.66032 0.13295 0.42352 0.0
C681 C 0.63831 0.13728 0.42194 0.0
C682 C 0.6292 0.14732 0.37705 0.0
C683 C 0.6423 0.15284 0.33409 0.0
C684 C 0.66374 0.14848 0.33453 0.0
C685 C 0.67446 0.15659 0.28402 0.0
C686 C 0.69139 0.17328 0.29773 0.0
C687 C 0.68391 0.1382 0.25123 0.0
C688 C 0.65575 0.16644 0.2553 0.0
C689 C 0.63734 0.16407 0.28474 0.0
C690 C 0.6181 0.1723 0.26693 0.0
C691 C 0.61768 0.18322 0.21767 0.0
C692 C 0.63638 0.18582 0.18681 0.0
C693 C 0.65562 0.17724 0.20605 0.0
H694 H 0.85008 0.68818 0.35198 0.0
H695 H 0.82671 0.63549 0.44769 0.0
H696 H 0.8079 0.62156 0.36792 0.0
H697 H 0.8029 0.69573 0.27304 0.0
H698 H 0.81708 0.70207 0.21209 0.0
H699 H 0.8287 0.70788 0.27675 0.0
H700 H 0.86189 0.68593 0.25122 0.0
H701 H 0.85038 0.68005 0.18648 0.0
H702 H 0.85879 0.65878 0.23006 0.0
H703 H 0.79158 0.61341 0.27774 0.0
H704 H 0.7791 0.61147 0.18355 0.0
H705 H 0.81331 0.66941 0.1467 0.0
C706 C 0.84102 0.6737 0.35625 0.0
C707 C 0.83988 0.66292 0.40617 0.0
C708 C 0.82783 0.64403 0.40993 0.0
C709 C 0.81709 0.63599 0.36483 0.0
C710 C 0.81855 0.64702 0.31628 0.0
C711 C 0.83022 0.66545 0.31169 0.0
C712 C 0.82925 0.67423 0.25488 0.0
C713 C 0.81886 0.69629 0.25418 0.0
C714 C 0.85139 0.67477 0.22915 0.0
C715 C 0.81523 0.65783 0.22819 0.0
C716 C 0.8092 0.64229 0.26432 0.0
C717 C 0.7962 0.62549 0.24908 0.0
C718 C 0.78919 0.62454 0.19546 0.0
C719 C 0.79522 0.64028 0.15765 0.0
C720 C 0.80843 0.65711 0.1745 0.0
H721 H 0.31271 0.82228 0.35243 0.0
H722 H 0.2858 0.88444 0.32107 0.0
H723 H 0.30033 0.88352 0.22874 0.0
H724 H 0.36098 0.83032 0.27952 0.0
H725 H 0.36208 0.80357 0.25424 0.0
H726 H 0.34928 0.80898 0.31759 0.0
H727 H 0.31488 0.79124 0.28266 0.0
H728 H 0.32759 0.78574 0.21922 0.0
H729 H 0.30311 0.80042 0.22065 0.0
H730 H 0.3178 0.8758 0.13977 0.0
H731 H 0.33711 0.86187 0.06081 0.0
H732 H 0.35282 0.80501 0.15118 0.0
C733 C 0.3098 0.83569 0.32616 0.0
C734 C 0.2981 0.85342 0.34397 0.0
C735 C 0.29473 0.87067 0.30833 0.0
C736 C 0.3029 0.8703 0.2558 0.0
C737 C 0.31443 0.8526 0.23962 0.0
C738 C 0.31789 0.83562 0.27372 0.0
C739 C 0.33094 0.81858 0.24659 0.0
C740 C 0.35207 0.81518 0.27626 0.0
C741 C 0.31837 0.79777 0.242 0.0
C742 C 0.3343 0.82865 0.1919 0.0
C743 C 0.32463 0.84825 0.18861 0.0
C744 C 0.32546 0.86048 0.14187 0.0
C745 C 0.33646 0.85243 0.09725 0.0
C746 C 0.34651 0.83238 0.09983 0.0
C747 C 0.34539 0.82043 0.14794 0.0
H748 H 0.13072 0.63974 0.65414 0.0
H749 H 0.14732 0.70655 0.65183 0.0
H750 H 0.16662 0.70217 0.73755 0.0
H751 H 0.12255 0.63604 0.79842 0.0
H752 H 0.13362 0.60977 0.80332 0.0
H753 H 0.12088 0.61817 0.74189 0.0
H754 H 0.15484 0.60908 0.68804 0.0
H755 H 0.16768 0.60067 0.74927 0.0
H756 H 0.17971 0.62078 0.70773 0.0
H757 H 0.18538 0.69032 0.82124 0.0
H758 H 0.20117 0.672 0.89956 0.0
H759 H 0.17139 0.61321 0.84931 0.0
C760 C 0.13836 0.65346 0.67171 0.0
C761 C 0.13752 0.67348 0.64621 0.0
C762 C 0.14769 0.69106 0.67065 0.0
C763 C 0.15873 0.68874 0.71932 0.0
C764 C 0.15932 0.66878 0.74328 0.0
C765 C 0.14931 0.65148 0.72055 0.0
C766 C 0.15241 0.63178 0.75462 0.0
C767 C 0.1311 0.62346 0.77582 0.0
C768 C 0.16437 0.61457 0.72302 0.0
C769 C 0.16585 0.64071 0.7998 0.0
C770 C 0.16972 0.66206 0.79235 0.0
C771 C 0.18233 0.67364 0.82778 0.0
C772 C 0.19127 0.66309 0.87204 0.0
C773 C 0.1874 0.64123 0.88067 0.0
C774 C 0.17442 0.62999 0.84413 0.0
H775 H 0.31755 0.12816 0.64639 0.0
H776 H 0.33045 0.18365 0.54805 0.0
H777 H 0.34617 0.20152 0.62697 0.0
H778 H 0.30256 0.15585 0.76454 0.0
H779 H 0.31471 0.13732 0.81045 0.0
H780 H 0.30548 0.12842 0.74563 0.0
H781 H 0.34283 0.11373 0.72389 0.0
H782 H 0.35218 0.12255 0.78876 0.0
H783 H 0.36545 0.13108 0.72821 0.0
H784 H 0.35892 0.21396 0.71711 0.0
H785 H 0.36828 0.22006 0.81235 0.0
H786 H 0.34733 0.15636 0.85207 0.0
C787 C 0.32385 0.144 0.64127 0.0
C788 C 0.32279 0.1545 0.59097 0.0
C789 C 0.33111 0.17527 0.58611 0.0
C790 C 0.34009 0.18555 0.6307 0.0
C791 C 0.3407 0.17482 0.67977 0.0
C792 C 0.33289 0.15448 0.68531 0.0
C793 C 0.33497 0.14671 0.74288 0.0
C794 C 0.31313 0.14179 0.7673 0.0
C795 C 0.34974 0.12737 0.7461 0.0
C796 C 0.34492 0.16598 0.76899 0.0
C797 C 0.34815 0.18197 0.73181 0.0
C798 C 0.3566 0.20151 0.74655 0.0
C799 C 0.36183 0.20482 0.8008 0.0
C800 C 0.35859 0.18868 0.83971 0.0
C801 C 0.35014 0.16897 0.8233 0.0
H802 H 0.84944 0.34392 0.86245 0.0
H803 H 0.78485 0.36463 0.83298 0.0
H804 H 0.78676 0.35036 0.74063 0.0
H805 H 0.86959 0.35549 0.72905 0.0
H806 H 0.88648 0.33247 0.7272 0.0
H807 H 0.88024 0.34476 0.79077 0.0
H808 H 0.86609 0.30888 0.82679 0.0
H809 H 0.87225 0.2965 0.76333 0.0
H810 H 0.84571 0.29513 0.78978 0.0
H811 H 0.79536 0.33338 0.65208 0.0
H812 H 0.81017 0.31477 0.57317 0.0
H813 H 0.86906 0.30495 0.66027 0.0
C814 C 0.83573 0.34556 0.83652 0.0
C815 C 0.81701 0.35544 0.855 0.0
C816 C 0.79939 0.35716 0.8198 0.0
C817 C 0.8003 0.34911 0.76722 0.0
C818 C 0.81894 0.33938 0.75039 0.0
C819 C 0.83635 0.33758 0.7839 0.0
C820 C 0.85434 0.3261 0.75605 0.0
C821 C 0.87381 0.34057 0.75043 0.0
C822 C 0.85992 0.30543 0.78576 0.0
C823 C 0.84428 0.32167 0.70177 0.0
C824 C 0.82388 0.32951 0.69931 0.0
C825 C 0.81134 0.32721 0.65344 0.0
C826 C 0.8199 0.31661 0.60884 0.0
C827 C 0.84077 0.30841 0.61047 0.0
C828 C 0.85306 0.31105 0.65767 0.0
H829 H 0.67576 0.81475 0.82163 0.0
H830 H 0.60925 0.83158 0.80933 0.0
H831 H 0.61576 0.84721 0.71964 0.0
H832 H 0.6959 0.86151 0.76128 0.0
H833 H 0.71715 0.84831 0.72635 0.0
H834 H 0.70704 0.83742 0.78827 0.0
H835 H 0.69959 0.80172 0.74014 0.0
H836 H 0.70969 0.81252 0.67802 0.0
H837 H 0.68341 0.80142 0.68022 0.0
H838 H 0.62979 0.86239 0.63302 0.0
H839 H 0.65042 0.87608 0.55594 0.0
H840 H 0.70766 0.84921 0.62506 0.0
C841 C 0.66252 0.82156 0.79994 0.0
C842 C 0.64199 0.82192 0.82251 0.0
C843 C 0.62512 0.83111 0.79288 0.0
C844 C 0.62864 0.84 0.74185 0.0
C845 C 0.6491 0.83952 0.72097 0.0
C846 C 0.66574 0.83051 0.74902 0.0
C847 C 0.68633 0.83266 0.71831 0.0
C848 C 0.70255 0.84576 0.75048 0.0
C849 C 0.69527 0.81078 0.70328 0.0
C850 C 0.6787 0.84452 0.66893 0.0
C851 C 0.65717 0.84824 0.67108 0.0
C852 C 0.64665 0.85945 0.63071 0.0
C853 C 0.65851 0.86718 0.58713 0.0
C854 C 0.68063 0.86368 0.58439 0.0
C855 C 0.69074 0.85204 0.62575 0.0
H856 H 0.82048 0.69519 0.67975 0.0
H857 H 0.87986 0.6614 0.65959 0.0
H858 H 0.87371 0.64266 0.74551 0.0
H859 H 0.8238 0.70139 0.82495 0.0
H860 H 0.79583 0.69735 0.83502 0.0
H861 H 0.80525 0.70871 0.77286 0.0
H862 H 0.786 0.6793 0.7188 0.0
H863 H 0.77647 0.6679 0.78074 0.0
H864 H 0.79135 0.65187 0.73408 0.0
H865 H 0.86067 0.62687 0.83245 0.0
H866 H 0.84113 0.61448 0.91271 0.0
H867 H 0.79032 0.65858 0.87582 0.0
C868 C 0.83226 0.68394 0.69347 0.0
C869 C 0.85067 0.6798 0.66293 0.0
C870 C 0.86562 0.66485 0.68226 0.0
C871 C 0.86231 0.65416 0.73111 0.0
C872 C 0.84399 0.65859 0.76019 0.0
C873 C 0.8292 0.6731 0.74209 0.0
C874 C 0.81054 0.6745 0.7802 0.0
C875 C 0.80876 0.69681 0.80471 0.0
C876 C 0.78988 0.668 0.75175 0.0
C877 C 0.81705 0.65835 0.82223 0.0
C878 C 0.83645 0.64945 0.81016 0.0
C879 C 0.8455 0.63379 0.84246 0.0
C880 C 0.83428 0.62686 0.88799 0.0
C881 C 0.8142 0.63555 0.90065 0.0
C882 C 0.80567 0.65167 0.86748 0.0
H883 H 0.29272 0.86139 0.70287 0.0
H884 H 0.32423 0.83707 0.56017 0.0
H885 H 0.35097 0.81969 0.61781 0.0
H886 H 0.34013 0.87177 0.78045 0.0
H887 H 0.3284 0.86365 0.84337 0.0
H888 H 0.31202 0.87463 0.79081 0.0
H889 H 0.28826 0.84114 0.7932 0.0
H890 H 0.30455 0.83007 0.84578 0.0
H891 H 0.30015 0.81538 0.78448 0.0
H892 H 0.37387 0.80432 0.69109 0.0
H893 H 0.39103 0.79182 0.77483 0.0
H894 H 0.34447 0.82623 0.86926 0.0
C895 C 0.30528 0.85249 0.68366 0.0
C896 C 0.30638 0.85061 0.62698 0.0
C897 C 0.32305 0.83874 0.60352 0.0
C898 C 0.33834 0.82883 0.6359 0.0
C899 C 0.33675 0.83095 0.69163 0.0
C900 C 0.32065 0.84248 0.71534 0.0
C901 C 0.32231 0.84196 0.77621 0.0
C902 C 0.32594 0.86433 0.79904 0.0
C903 C 0.30265 0.83151 0.80138 0.0
C904 C 0.34177 0.82822 0.78303 0.0
C905 C 0.34992 0.82208 0.73379 0.0
C906 C 0.36768 0.80908 0.72991 0.0
C907 C 0.37731 0.80206 0.7777 0.0
C908 C 0.36912 0.80805 0.82861 0.0
C909 C 0.35118 0.82141 0.83102 0.0
H910 H 0.1514 0.28365 0.71191 0.0
H911 H 0.13217 0.33884 0.61926 0.0
H912 H 0.14287 0.36203 0.69457 0.0
H913 H 0.13466 0.3031 0.84294 0.0
H914 H 0.157 0.2917 0.87776 0.0
H915 H 0.14695 0.27933 0.81749 0.0
H916 H 0.1842 0.28155 0.77407 0.0
H917 H 0.19436 0.2939 0.83417 0.0
H918 H 0.19737 0.30685 0.76985 0.0
H919 H 0.15661 0.37926 0.77845 0.0
H920 H 0.17322 0.38948 0.86462 0.0
H921 H 0.18369 0.32306 0.90243 0.0
C922 C 0.14928 0.3006 0.70757 0.0
C923 C 0.1409 0.30943 0.65974 0.0
C924 C 0.13856 0.33171 0.65552 0.0
C925 C 0.14453 0.34502 0.69812 0.0
C926 C 0.15282 0.33579 0.74459 0.0
C927 C 0.15522 0.31411 0.7496 0.0
C928 C 0.16522 0.3083 0.80312 0.0
C929 C 0.15005 0.29481 0.83735 0.0
C930 C 0.18655 0.29699 0.79478 0.0
C931 C 0.16824 0.33013 0.82721 0.0
C932 C 0.16086 0.34575 0.79292 0.0
C933 C 0.16236 0.36718 0.80577 0.0
C934 C 0.17183 0.37281 0.85482 0.0
C935 C 0.17974 0.35707 0.89033 0.0
C936 C 0.17771 0.33546 0.87634 0.0
H937 H 0.64732 0.22053 0.84451 0.0
H938 H 0.63056 0.1658 0.94179 0.0
H939 H 0.64192 0.14213 0.86806 0.0
H940 H 0.63071 0.19914 0.71604 0.0
H941 H 0.65241 0.21091 0.67956 0.0
H942 H 0.64235 0.22356 0.73937 0.0
H943 H 0.67994 0.22305 0.78142 0.0
H944 H 0.69011 0.21044 0.72174 0.0
H945 H 0.694 0.19827 0.78678 0.0
H946 H 0.65562 0.12443 0.78437 0.0
H947 H 0.67154 0.11394 0.69755 0.0
H948 H 0.67962 0.18029 0.65553 0.0
C949 C 0.64592 0.20357 0.85027 0.0
C950 C 0.638 0.19501 0.89887 0.0
C951 C 0.63658 0.17272 0.9049 0.0
C952 C 0.64295 0.15914 0.86322 0.0
C953 C 0.65072 0.16811 0.81588 0.0
C954 C 0.65228 0.1898 0.80922 0.0
C955 C 0.6617 0.19538 0.75494 0.0
C956 C 0.64584 0.20799 0.72045 0.0
C957 C 0.68268 0.20749 0.76165 0.0
C958 C 0.66531 0.17343 0.73221 0.0
C959 C 0.65877 0.15792 0.76786 0.0
C960 C 0.66075 0.13643 0.75606 0.0
C961 C 0.66981 0.13064 0.70662 0.0
C962 C 0.67683 0.14629 0.66971 0.0
C963 C 0.67438 0.16794 0.68276 0.0
H964 H 0.85525 0.27268 0.29138 0.0
H965 H 0.88017 0.32658 0.3797 0.0
H966 H 0.87195 0.34988 0.30236 0.0
H967 H 0.87263 0.28947 0.15614 0.0
H968 H 0.8488 0.27984 0.12452 0.0
H969 H 0.85883 0.26705 0.18432 0.0
H970 H 0.8227 0.27276 0.23166 0.0
H971 H 0.81258 0.28553 0.17212 0.0
H972 H 0.81185 0.29914 0.23596 0.0
H973 H 0.85867 0.36768 0.2181 0.0
H974 H 0.83991 0.37884 0.13542 0.0
H975 H 0.82315 0.31331 0.1033 0.0
C976 C 0.85935 0.28931 0.29413 0.0
C977 C 0.86847 0.2978 0.34143 0.0
C978 C 0.87322 0.31973 0.34379 0.0
C979 C 0.8687 0.33307 0.29998 0.0
C980 C 0.85944 0.32423 0.25419 0.0
C981 C 0.8548 0.30286 0.25101 0.0
C982 C 0.84338 0.29758 0.19905 0.0
C983 C 0.85671 0.2826 0.16393 0.0
C984 C 0.82132 0.28821 0.2104 0.0
C985 C 0.84185 0.31941 0.17406 0.0
C986 C 0.85148 0.33453 0.20607 0.0
C987 C 0.85125 0.35596 0.19245 0.0
C988 C 0.84056 0.36214 0.14539 0.0
C989 C 0.83007 0.34696 0.11284 0.0
C990 C 0.83112 0.3253 0.12708 0.0
H991 H 0.64408 0.79839 0.17283 0.0
H992 H 0.64597 0.85469 0.0722 0.0
H993 H 0.66582 0.87358 0.14351 0.0
H994 H 0.63726 0.82492 0.29968 0.0
H995 H 0.65396 0.80666 0.33604 0.0
H996 H 0.63966 0.79784 0.27737 0.0
H997 H 0.67479 0.78519 0.234 0.0
H998 H 0.6892 0.79399 0.29251 0.0
H999 H 0.69639 0.80364 0.22661 0.0
H1000 H 0.68543 0.88624 0.22644 0.0
H1001 H 0.70383 0.89144 0.31343 0.0
H1002 H 0.68942 0.82646 0.35801 0.0
C1003 C 0.64856 0.81473 0.16577 0.0
C1004 C 0.64341 0.82511 0.11704 0.0
C1005 C 0.64974 0.84644 0.10927 0.0
C1006 C 0.661 0.85729 0.14953 0.0
C1007 C 0.66585 0.84654 0.19708 0.0
C1008 C 0.65988 0.82571 0.20525 0.0
C1009 C 0.66731 0.8176 0.25945 0.0
C1010 C 0.64842 0.8114 0.29524 0.0
C1011 C 0.68285 0.79901 0.25271 0.0
C1012 C 0.67838 0.83714 0.28067 0.0
C1013 C 0.67734 0.85369 0.24425 0.0
C1014 C 0.68637 0.87337 0.25523 0.0
C1015 C 0.69677 0.87618 0.30474 0.0
C1016 C 0.69811 0.85935 0.34248 0.0
C1017 C 0.68875 0.83962 0.33002 0.0
H1018 H 0.17297 0.68978 0.35486 0.0
H1019 H 0.11942 0.64861 0.3879 0.0
H1020 H 0.12925 0.62621 0.31028 0.0
H1021 H 0.16855 0.68857 0.21283 0.0
H1022 H 0.1967 0.68863 0.20084 0.0
H1023 H 0.18623 0.70064 0.26097 0.0
H1024 H 0.21043 0.67675 0.3197 0.0
H1025 H 0.22103 0.6647 0.25969 0.0
H1026 H 0.2094 0.64838 0.31145 0.0
H1027 H 0.14408 0.60917 0.22653 0.0
H1028 H 0.16288 0.59881 0.14324 0.0
H1029 H 0.20644 0.65135 0.16536 0.0
C1030 C 0.16343 0.67593 0.34621 0.0
C1031 C 0.14545 0.67093 0.37754 0.0
C1032 C 0.13329 0.65275 0.3645 0.0
C1033 C 0.13875 0.63991 0.32053 0.0
C1034 C 0.15643 0.64544 0.29008 0.0
C1035 C 0.16861 0.66298 0.30244 0.0
C1036 C 0.18639 0.66589 0.26227 0.0
C1037 C 0.18433 0.68719 0.23247 0.0
C1038 C 0.20809 0.6638 0.28994 0.0
C1039 C 0.18214 0.6474 0.22501 0.0
C1040 C 0.16488 0.63571 0.24184 0.0
C1041 C 0.1577 0.61813 0.21312 0.0
C1042 C 0.16847 0.61238 0.16584 0.0
C1043 C 0.18613 0.62425 0.14776 0.0
C1044 C 0.19303 0.64191 0.17808 0.0
H1045 H 0.28147 0.13426 0.27837 0.0
H1046 H 0.34022 0.11816 0.35958 0.0
H1047 H 0.36043 0.13204 0.28191 0.0
H1048 H 0.29931 0.12335 0.13905 0.0
H1049 H 0.28487 0.14565 0.11226 0.0
H1050 H 0.27511 0.13188 0.17087 0.0
H1051 H 0.27448 0.16726 0.2239 0.0
H1052 H 0.28431 0.1811 0.16568 0.0
H1053 H 0.29836 0.18281 0.22883 0.0
H1054 H 0.37416 0.15045 0.19911 0.0
H1055 H 0.38042 0.17278 0.119 0.0
H1056 H 0.31257 0.17761 0.09335 0.0
C1057 C 0.29857 0.13317 0.27934 0.0
C1058 C 0.30928 0.12497 0.32483 0.0
C1059 C 0.33169 0.12428 0.32501 0.0
C1060 C 0.3433 0.13207 0.28103 0.0
C1061 C 0.33224 0.14047 0.23728 0.0
C1062 C 0.31037 0.14103 0.23609 0.0
C1063 C 0.3023 0.15252 0.18654 0.0
C1064 C 0.28965 0.13744 0.15002 0.0
C1065 C 0.2891 0.17208 0.2022 0.0
C1066 C 0.32305 0.15882 0.16069 0.0
C1067 C 0.34014 0.15146 0.19012 0.0
C1068 C 0.36091 0.15611 0.17544 0.0
C1069 C 0.36429 0.16884 0.12988 0.0
C1070 C 0.34698 0.17695 0.09984 0.0
C1071 C 0.32614 0.17156 0.11521 0.0
loop_
_geom_bond_atom_site_label_1
_geom_bond_atom_site_label_2
_geom_bond_distance
_geom_bond_site_symmetry_2
_ccdc_geom_bond_type
C0 O1 1.160 . S
C0 O7 1.185 1_554 S
O1 C0 1.160 . S
O2 Zn3 1.899 . S
O2 C10 1.284 . S
Zn3 O2 1.899 . S
Zn3 O4 2.032 1_554 S
Zn3 O7 2.086 1_554 S
Zn3 O12 1.977 1_554 S
O4 Zn3 2.032 1_556 S
O4 C8 1.278 . S
C5 O6 1.203 . S
C5 O12 1.267 1_554 S
O6 C5 1.203 . S
O7 C0 1.185 1_556 S
O7 Zn3 2.086 1_556 S
C8 O4 1.278 . S
C8 O9 1.211 . S
O9 C8 1.211 . S
C10 O2 1.284 . S
C10 O11 1.273 . S
O11 C10 1.273 . S
O12 Zn3 1.977 1_556 S
O12 C5 1.267 1_556 S
C13 O14 1.160 . S
C13 O20 1.185 1_554 S
O14 C13 1.160 . S
O15 Zn16 1.899 . S
O15 C23 1.284 . S
Zn16 O15 1.899 . S
Zn16 O17 2.032 1_554 S
Zn16 O20 2.086 1_554 S
Zn16 O25 1.977 1_554 S
O17 Zn16 2.032 1_556 S
O17 C21 1.278 . S
C18 O19 1.203 . S
C18 O25 1.267 1_554 S
O19 C18 1.203 . S
O20 C13 1.185 1_556 S
O20 Zn16 2.086 1_556 S
C21 O17 1.278 . S
C21 O22 1.211 . S
O22 C21 1.211 . S
C23 O15 1.284 . S
C23 O24 1.273 . S
O24 C23 1.273 . S
O25 Zn16 1.977 1_556 S
O25 C18 1.267 1_556 S
C26 O27 1.160 . S
C26 O33 1.185 1_554 S
O27 C26 1.160 . S
O28 Zn29 1.899 . S
O28 C36 1.284 . S
Zn29 O28 1.899 . S
Zn29 O30 2.032 1_554 S
Zn29 O33 2.086 1_554 S
Zn29 O38 1.977 1_554 S
O30 Zn29 2.032 1_556 S
O30 C34 1.278 . S
C31 O32 1.203 . S
C31 O38 1.267 1_554 S
O32 C31 1.203 . S
O33 C26 1.185 1_556 S
O33 Zn29 2.086 1_556 S
C34 O30 1.278 . S
C34 O35 1.211 . S
O35 C34 1.211 . S
C36 O28 1.284 . S
C36 O37 1.273 . S
O37 C36 1.273 . S
O38 Zn29 1.977 1_556 S
O38 C31 1.267 1_556 S
C39 O40 1.160 . S
C39 O46 1.185 1_554 S
O40 C39 1.160 . S
O41 Zn42 1.899 . S
O41 C49 1.284 . S
Zn42 O41 1.899 . S
Zn42 O43 2.032 1_554 S
Zn42 O46 2.086 1_554 S
Zn42 O51 1.977 1_554 S
O43 Zn42 2.032 1_556 S
O43 C47 1.278 . S
C44 O45 1.203 . S
C44 O51 1.267 1_554 S
O45 C44 1.203 . S
O46 C39 1.185 1_556 S
O46 Zn42 2.086 1_556 S
C47 O43 1.278 . S
C47 O48 1.211 . S
O48 C47 1.211 . S
C49 O41 1.284 . S
C49 O50 1.273 . S
O50 C49 1.273 . S
O51 Zn42 1.977 1_556 S
O51 C44 1.267 1_556 S
C52 O53 1.160 . S
C52 O59 1.185 1_556 S
O53 C52 1.160 . S
O54 Zn55 1.899 . S
O54 C62 1.284 . S
Zn55 O54 1.899 . S
Zn55 O56 2.032 1_556 S
Zn55 O59 2.086 1_556 S
Zn55 O64 1.977 1_556 S
O56 Zn55 2.032 1_554 S
O56 C60 1.278 . S
C57 O58 1.203 . S
C57 O64 1.267 1_556 S
O58 C57 1.203 . S
O59 C52 1.185 1_554 S
O59 Zn55 2.086 1_554 S
C60 O56 1.278 . S
C60 O61 1.211 . S
O61 C60 1.211 . S
C62 O54 1.284 . S
C62 O63 1.273 . S
O63 C62 1.273 . S
O64 Zn55 1.977 1_554 S
O64 C57 1.267 1_554 S
C65 O66 1.160 . S
C65 O72 1.185 1_556 S
O66 C65 1.160 . S
O67 Zn68 1.899 . S
O67 C75 1.284 . S
Zn68 O67 1.899 . S
Zn68 O69 2.032 1_556 S
Zn68 O72 2.086 1_556 S
Zn68 O77 1.977 1_556 S
O69 Zn68 2.032 1_554 S
O69 C73 1.278 . S
C70 O71 1.203 . S
C70 O77 1.267 1_556 S
O71 C70 1.203 . S
O72 C65 1.185 1_554 S
O72 Zn68 2.086 1_554 S
C73 O69 1.278 . S
C73 O74 1.211 . S
O74 C73 1.211 . S
C75 O67 1.284 . S
C75 O76 1.273 . S
O76 C75 1.273 . S
O77 Zn68 1.977 1_554 S
O77 C70 1.267 1_554 S
C78 O79 1.160 . S
C78 O85 1.185 1_556 S
O79 C78 1.160 . S
O80 Zn81 1.899 . S
O80 C88 1.284 . S
Zn81 O80 1.899 . S
Zn81 O82 2.032 1_556 S
Zn81 O85 2.086 1_556 S
Zn81 O90 1.977 1_556 S
O82 Zn81 2.032 1_554 S
O82 C86 1.278 . S
C83 O84 1.203 . S
C83 O90 1.267 1_556 S
O84 C83 1.203 . S
O85 C78 1.185 1_554 S
O85 Zn81 2.086 1_554 S
C86 O82 1.278 . S
C86 O87 1.211 . S
O87 C86 1.211 . S
C88 O80 1.284 . S
C88 O89 1.273 . S
O89 C88 1.273 . S
O90 Zn81 1.977 1_554 S
O90 C83 1.267 1_554 S
C91 O92 1.160 . S
C91 O98 1.185 1_556 S
O92 C91 1.160 . S
O93 Zn94 1.899 . S
O93 C101 1.284 . S
Zn94 O93 1.899 . S
Zn94 O95 2.032 1_556 S
Zn94 O98 2.086 1_556 S
Zn94 O103 1.977 1_556 S
O95 Zn94 2.032 1_554 S
O95 C99 1.278 . S
C96 O97 1.203 . S
C96 O103 1.267 1_556 S
O97 C96 1.203 . S
O98 C91 1.185 1_554 S
O98 Zn94 2.086 1_554 S
C99 O95 1.278 . S
C99 O100 1.211 . S
O100 C99 1.211 . S
C101 O93 1.284 . S
C101 O102 1.273 . S
O102 C101 1.273 . S
O103 Zn94 1.977 1_554 S
O103 C96 1.267 1_554 S
C104 O105 1.160 . S
C104 O111 1.185 . S
O105 C104 1.160 . S
O106 Zn107 1.899 . S
O106 C114 1.284 . S
Zn107 O106 1.899 . S
Zn107 O108 2.032 . S
Zn107 O111 2.086 . S
Zn107 O116 1.977 . S
O108 Zn107 2.032 . S
O108 C112 1.278 . S
C109 O110 1.203 . S
C109 O116 1.267 . S
O110 C109 1.203 . S
O111 C104 1.185 . S
O111 Zn107 2.086 . S
C112 O108 1.278 . S
C112 O113 1.211 . S
O113 C112 1.211 . S
C114 O106 1.284 . S
C114 O115 1.273 . S
O115 C114 1.273 . S
O116 Zn107 1.977 . S
O116 C109 1.267 . S
C117 O118 1.160 . S
C117 O124 1.185 . S
O118 C117 1.160 . S
O119 Zn120 1.899 . S
O119 C127 1.284 . S
Zn120 O119 1.899 . S
Zn120 O121 2.032 . S
Zn120 O124 2.086 . S
Zn120 O129 1.977 . S
O121 Zn120 2.032 . S
O121 C125 1.278 . S
C122 O123 1.203 . S
C122 O129 1.267 . S
O123 C122 1.203 . S
O124 C117 1.185 . S
O124 Zn120 2.086 . S
C125 O121 1.278 . S
C125 O126 1.211 . S
O126 C125 1.211 . S
C127 O119 1.284 . S
C127 O128 1.273 . S
O128 C127 1.273 . S
O129 Zn120 1.977 . S
O129 C122 1.267 . S
C130 O131 1.160 . S
C130 O137 1.185 . S
O131 C130 1.160 . S
O132 Zn133 1.899 . S
O132 C140 1.284 . S
Zn133 O132 1.899 . S
Zn133 O134 2.032 . S
Zn133 O137 2.086 . S
Zn133 O142 1.977 . S
O134 Zn133 2.032 . S
O134 C138 1.278 . S
C135 O136 1.203 . S
C135 O142 1.267 . S
O136 C135 1.203 . S
O137 C130 1.185 . S
O137 Zn133 2.086 . S
C138 O134 1.278 . S
C138 O139 1.211 . S
O139 C138 1.211 . S
C140 O132 1.284 . S
C140 O141 1.273 . S
O141 C140 1.273 . S
O142 Zn133 1.977 . S
O142 C135 1.267 . S
C143 O144 1.160 . S
C143 O150 1.185 . S
O144 C143 1.160 . S
O145 Zn146 1.899 . S
O145 C153 1.284 . S
Zn146 O145 1.899 . S
Zn146 O147 2.032 . S
Zn146 O150 2.086 . S
Zn146 O155 1.977 . S
O147 Zn146 2.032 . S
O147 C151 1.278 . S
C148 O149 1.203 . S
C148 O155 1.267 . S
O149 C148 1.203 . S
O150 C143 1.185 . S
O150 Zn146 2.086 . S
C151 O147 1.278 . S
C151 O152 1.211 . S
O152 C151 1.211 . S
C153 O145 1.284 . S
C153 O154 1.273 . S
O154 C153 1.273 . S
O155 Zn146 1.977 . S
O155 C148 1.267 . S
C156 O157 1.160 . S
C156 O163 1.185 . S
O157 C156 1.160 . S
O158 Zn159 1.899 . S
O158 C166 1.284 . S
Zn159 O158 1.899 . S
Zn159 O160 2.032 . S
Zn159 O163 2.086 . S
Zn159 O168 1.977 . S
O160 Zn159 2.032 . S
O160 C164 1.278 . S
C161 O162 1.203 . S
C161 O168 1.267 . S
O162 C161 1.203 . S
O163 C156 1.185 . S
O163 Zn159 2.086 . S
C164 O160 1.278 . S
C164 O165 1.211 . S
O165 C164 1.211 . S
C166 O158 1.284 . S
C166 O167 1.273 . S
O167 C166 1.273 . S
O168 Zn159 1.977 . S
O168 C161 1.267 . S
C169 O170 1.160 . S
C169 O176 1.185 . S
O170 C169 1.160 . S
O171 Zn172 1.899 . S
O171 C179 1.284 . S
Zn172 O171 1.899 . S
Zn172 O173 2.032 . S
Zn172 O176 2.086 . S
Zn172 O181 1.977 . S
O173 Zn172 2.032 . S
O173 C177 1.278 . S
C174 O175 1.203 . S
C174 O181 1.267 . S
O175 C174 1.203 . S
O176 C169 1.185 . S
O176 Zn172 2.086 . S
C177 O173 1.278 . S
C177 O178 1.211 . S
O178 C177 1.211 . S
C179 O171 1.284 . S
C179 O180 1.273 . S
O180 C179 1.273 . S
O181 Zn172 1.977 . S
O181 C174 1.267 . S
C182 O183 1.160 . S
C182 O189 1.185 . S
O183 C182 1.160 . S
O184 Zn185 1.899 . S
O184 C192 1.284 . S
Zn185 O184 1.899 . S
Zn185 O186 2.032 . S
Zn185 O189 2.086 . S
Zn185 O194 1.977 . S
O186 Zn185 2.032 . S
O186 C190 1.278 . S
C187 O188 1.203 . S
C187 O194 1.267 . S
O188 C187 1.203 . S
O189 C182 1.185 . S
O189 Zn185 2.086 . S
C190 O186 1.278 . S
C190 O191 1.211 . S
O191 C190 1.211 . S
C192 O184 1.284 . S
C192 O193 1.273 . S
O193 C192 1.273 . S
O194 Zn185 1.977 . S
O194 C187 1.267 . S
C195 O196 1.160 . S
C195 O202 1.185 . S
O196 C195 1.160 . S
O197 Zn198 1.899 . S
O197 C205 1.284 . S
Zn198 O197 1.899 . S
Zn198 O199 2.032 . S
Zn198 O202 2.086 . S
Zn198 O207 1.977 . S
O199 Zn198 2.032 . S
O199 C203 1.278 . S
C200 O201 1.203 . S
C200 O207 1.267 . S
O201 C200 1.203 . S
O202 C195 1.185 . S
O202 Zn198 2.086 . S
C203 O199 1.278 . S
C203 O204 1.211 . S
O204 C203 1.211 . S
C205 O197 1.284 . S
C205 O206 1.273 . S
O206 C205 1.273 . S
O207 Zn198 1.977 . S
O207 C200 1.267 . S
H208 C220 0.930 . S
H209 C222 0.930 . S
H210 C223 0.930 . S
H211 C227 0.959 . S
H212 C227 0.959 . S
H213 C227 0.961 . S
H214 C228 0.960 . S
H215 C228 0.961 . S
H216 C228 0.959 . S
H217 C231 0.929 . S
H218 C232 0.931 . S
H219 C234 0.930 . S
C220 H208 0.930 . S
C220 C221 1.399 . S
C220 C225 1.399 . S
C221 C220 1.399 . S
C221 C222 1.376 1_554 S
C222 H209 0.930 . S
C222 C221 1.376 1_556 S
C222 C223 1.388 . S
C223 H210 0.930 . S
C223 C222 1.388 . S
C223 C224 1.390 . S
C224 C223 1.390 . S
C224 C225 1.394 1_556 S
C224 C230 1.465 . S
C225 C220 1.399 . S
C225 C224 1.394 1_554 S
C225 C226 1.516 . S
C226 C225 1.516 . S
C226 C227 1.502 . S
C226 C228 1.561 . S
C226 C229 1.526 . S
C227 H211 0.959 . S
C227 H212 0.959 . S
C227 H213 0.961 . S
C227 C226 1.502 . S
C228 H214 0.960 . S
C228 H215 0.961 . S
C228 H216 0.959 . S
C228 C226 1.561 . S
C229 C226 1.526 . S
C229 C230 1.396 1_554 S
C229 C234 1.390 . S
C230 C224 1.465 . S
C230 C229 1.396 1_556 S
C230 C231 1.399 . S
C231 H217 0.929 . S
C231 C230 1.399 . S
C231 C232 1.385 . S
C232 H218 0.931 . S
C232 C231 1.385 . S
C232 C233 1.389 . S
C233 C232 1.389 . S
C233 C234 1.387 1_556 S
C234 H219 0.930 . S
C234 C229 1.390 . S
C234 C233 1.387 1_554 S
H235 C247 0.930 . S
H236 C249 0.930 . S
H237 C250 0.930 . S
H238 C254 0.959 . S
H239 C254 0.959 . S
H240 C254 0.961 . S
H241 C255 0.960 . S
H242 C255 0.961 . S
H243 C255 0.959 1_556 S
H244 C258 0.929 . S
H245 C259 0.931 . S
H246 C261 0.930 . S
C247 H235 0.930 . S
C247 C248 1.409 . S
C247 C252 1.399 . S
C248 C247 1.409 . S
C248 C249 1.363 1_554 S
C249 H236 0.930 . S
C249 C248 1.363 1_556 S
C249 C250 1.388 . S
C250 H237 0.930 . S
C250 C249 1.388 . S
C250 C251 1.390 . S
C251 C250 1.390 . S
C251 C252 1.394 1_556 S
C251 C257 1.465 . S
C252 C247 1.399 . S
C252 C251 1.394 1_554 S
C252 C253 1.516 . S
C253 C252 1.516 . S
C253 C254 1.502 . S
C253 C255 1.561 . S
C253 C256 1.526 . S
C254 H238 0.959 . S
C254 H239 0.959 . S
C254 H240 0.961 . S
C254 C253 1.502 . S
C255 H241 0.960 . S
C255 H242 0.961 . S
C255 H243 0.959 1_554 S
C255 C253 1.561 . S
C256 C253 1.526 . S
C256 C257 1.396 1_554 S
C256 C261 1.390 . S
C257 C251 1.465 . S
C257 C256 1.396 1_556 S
C257 C258 1.399 . S
C258 H244 0.929 . S
C258 C257 1.399 . S
C258 C259 1.385 . S
C259 H245 0.931 . S
C259 C258 1.385 . S
C259 C260 1.389 . S
C260 C259 1.389 . S
C260 C261 1.387 1_556 S
C261 H246 0.930 . S
C261 C256 1.390 . S
C261 C260 1.387 1_554 S
H262 C274 0.930 . S
H263 C276 0.930 . S
H264 C277 0.930 . S
H265 C281 0.959 . S
H266 C281 0.959 . S
H267 C281 0.961 . S
H268 C282 0.960 . S
H269 C282 0.961 . S
H270 C282 0.959 . S
H271 C285 0.929 . S
H272 C286 0.931 . S
H273 C288 0.930 . S
C274 H262 0.930 . S
C274 C275 1.399 . S
C274 C279 1.399 . S
C275 C274 1.399 . S
C275 C276 1.376 1_554 S
C276 H263 0.930 . S
C276 C275 1.376 1_556 S
C276 C277 1.388 . S
C277 H264 0.930 . S
C277 C276 1.388 . S
C277 C278 1.390 . S
C278 C277 1.390 . S
C278 C279 1.394 1_556 S
C278 C284 1.465 . S
C279 C274 1.399 . S
C279 C278 1.394 1_554 S
C279 C280 1.516 . S
C280 C279 1.516 . S
C280 C281 1.502 . S
C280 C282 1.561 . S
C280 C283 1.526 . S
C281 H265 0.959 . S
C281 H266 0.959 . S
C281 H267 0.961 . S
C281 C280 1.502 . S
C282 H268 0.960 . S
C282 H269 0.961 . S
C282 H270 0.959 . S
C282 C280 1.561 . S
C283 C280 1.526 . S
C283 C284 1.396 1_554 S
C283 C288 1.390 . S
C284 C278 1.465 . S
C284 C283 1.396 1_556 S
C284 C285 1.399 . S
C285 H271 0.929 . S
C285 C284 1.399 . S
C285 C286 1.385 . S
C286 H272 0.931 . S
C286 C285 1.385 . S
C286 C287 1.389 . S
C287 C286 1.389 . S
C287 C288 1.387 1_556 S
C288 H273 0.930 . S
C288 C283 1.390 . S
C288 C287 1.387 1_554 S
H289 C301 0.930 . S
H290 C303 0.930 . S
H291 C304 0.930 . S
H292 C308 0.959 . S
H293 C308 0.959 . S
H294 C308 0.961 . S
H295 C309 0.960 . S
H296 C309 0.961 . S
H297 C309 0.959 . S
H298 C312 0.929 . S
H299 C313 0.931 . S
H300 C315 0.930 . S
C301 H289 0.930 . S
C301 C302 1.399 1_556 S
C301 C306 1.399 . S
C302 C301 1.399 1_554 S
C302 C303 1.376 . S
C303 H290 0.930 . S
C303 C302 1.376 . S
C303 C304 1.388 . S
C304 H291 0.930 . S
C304 C303 1.388 . S
C304 C305 1.390 . S
C305 C304 1.390 . S
C305 C306 1.394 1_554 S
C305 C311 1.465 . S
C306 C301 1.399 . S
C306 C305 1.394 1_556 S
C306 C307 1.516 . S
C307 C306 1.516 . S
C307 C308 1.502 . S
C307 C309 1.561 1_556 S
C307 C310 1.526 . S
C308 H292 0.959 . S
C308 H293 0.959 . S
C308 H294 0.961 . S
C308 C307 1.502 . S
C309 H295 0.960 . S
C309 H296 0.961 . S
C309 H297 0.959 . S
C309 C307 1.561 1_554 S
C310 C307 1.526 . S
C310 C311 1.396 1_556 S
C310 C315 1.390 . S
C311 C305 1.465 . S
C311 C310 1.396 1_554 S
C311 C312 1.399 . S
C312 H298 0.929 . S
C312 C311 1.399 . S
C312 C313 1.385 . S
C313 H299 0.931 . S
C313 C312 1.385 . S
C313 C314 1.393 . S
C314 C313 1.393 . S
C314 C315 1.385 1_554 S
C315 H300 0.930 . S
C315 C310 1.390 . S
C315 C314 1.385 1_556 S
H316 C328 0.930 . S
H317 C330 0.930 . S
H318 C331 0.930 . S
H319 C335 0.956 1_565 S
H320 C335 0.922 1_565 S
H321 C335 1.004 . S
H322 C336 0.983 . S
H323 C336 0.941 1_565 S
H324 C336 0.956 1_565 S
H325 C339 0.929 . S
H326 C340 0.931 . S
H327 C342 0.930 . S
C328 H316 0.930 . S
C328 C329 1.399 . S
C328 C333 1.399 . S
C329 C328 1.399 . S
C329 C330 1.376 . S
C330 H317 0.930 . S
C330 C329 1.376 . S
C330 C331 1.388 . S
C331 H318 0.930 . S
C331 C330 1.388 . S
C331 C332 1.390 . S
C332 C331 1.390 . S
C332 C333 1.394 . S
C332 C338 1.465 1_545 S
C333 C328 1.399 . S
C333 C332 1.394 . S
C333 C334 1.540 . S
C334 C333 1.540 . S
C334 C335 1.502 . S
C334 C336 1.561 . S
C334 C337 1.501 1_545 S
C335 H319 0.956 1_545 S
C335 H320 0.922 1_545 S
C335 H321 1.004 . S
C335 C334 1.502 . S
C336 H322 0.983 . S
C336 H323 0.941 1_545 S
C336 H324 0.956 1_545 S
C336 C334 1.561 . S
C337 C334 1.501 1_565 S
C337 C338 1.396 . S
C337 C342 1.390 . S
C338 C332 1.465 1_565 S
C338 C337 1.396 . S
C338 C339 1.399 . S
C339 H325 0.929 . S
C339 C338 1.399 . S
C339 C340 1.385 . S
C340 H326 0.931 . S
C340 C339 1.385 . S
C340 C341 1.389 . S
C341 C340 1.389 . S
C341 C342 1.387 . S
C342 H327 0.930 . S
C342 C337 1.390 . S
C342 C341 1.387 . S
H343 C355 0.930 . S
H344 C357 0.930 . S
H345 C358 0.930 . S
H346 C362 0.958 1_455 S
H347 C362 0.942 1_455 S
H348 C362 0.980 . S
H349 C363 0.945 1_655 S
H350 C363 0.974 . S
H351 C363 0.961 . S
H352 C366 0.929 . S
H353 C367 0.931 . S
H354 C369 0.930 . S
C355 H343 0.930 . S
C355 C356 1.399 . S
C355 C360 1.399 . S
C356 C355 1.399 . S
C356 C357 1.376 . S
C357 H344 0.930 . S
C357 C356 1.376 . S
C357 C358 1.388 . S
C358 H345 0.930 . S
C358 C357 1.388 . S
C358 C359 1.390 . S
C359 C358 1.390 . S
C359 C360 1.394 . S
C359 C365 1.465 1_655 S
C360 C355 1.399 . S
C360 C359 1.394 . S
C360 C361 1.520 . S
C361 C360 1.520 . S
C361 C362 1.502 . S
C361 C363 1.561 1_655 S
C361 C364 1.522 1_655 S
C362 H346 0.958 1_655 S
C362 H347 0.942 1_655 S
C362 H348 0.980 . S
C362 C361 1.502 . S
C363 H349 0.945 1_455 S
C363 H350 0.974 . S
C363 H351 0.961 . S
C363 C361 1.561 1_455 S
C364 C361 1.522 1_455 S
C364 C365 1.396 . S
C364 C369 1.390 . S
C365 C359 1.465 1_455 S
C365 C364 1.396 . S
C365 C366 1.399 . S
C366 H352 0.929 . S
C366 C365 1.399 . S
C366 C367 1.385 . S
C367 H353 0.931 . S
C367 C366 1.385 . S
C367 C368 1.389 . S
C368 C367 1.389 . S
C368 C369 1.387 . S
C369 H354 0.930 . S
C369 C364 1.390 . S
C369 C368 1.387 . S
H370 C382 0.930 . S
H371 C384 0.930 . S
H372 C385 0.930 . S
H373 C389 0.962 . S
H374 C389 0.977 . S
H375 C389 0.941 1_545 S
H376 C390 1.009 . S
H377 C390 0.919 1_565 S
H378 C390 0.957 1_565 S
H379 C393 0.929 . S
H380 C394 0.931 . S
H381 C396 0.930 . S
C382 H370 0.930 . S
C382 C383 1.399 . S
C382 C387 1.399 . S
C383 C382 1.399 . S
C383 C384 1.376 . S
C384 H371 0.930 . S
C384 C383 1.376 . S
C384 C385 1.388 . S
C385 H372 0.930 . S
C385 C384 1.388 . S
C385 C386 1.390 . S
C386 C385 1.390 . S
C386 C387 1.394 . S
C386 C392 1.465 1_545 S
C387 C382 1.399 . S
C387 C386 1.394 . S
C387 C388 1.525 . S
C388 C387 1.525 . S
C388 C389 1.501 1_545 S
C388 C390 1.561 . S
C388 C391 1.517 1_545 S
C389 H373 0.962 . S
C389 H374 0.977 . S
C389 H375 0.941 1_565 S
C389 C388 1.501 1_565 S
C390 H376 1.009 . S
C390 H377 0.919 1_545 S
C390 H378 0.957 1_545 S
C390 C388 1.561 . S
C391 C388 1.517 1_565 S
C391 C392 1.396 . S
C391 C396 1.390 . S
C392 C386 1.465 1_565 S
C392 C391 1.396 . S
C392 C393 1.399 . S
C393 H379 0.929 . S
C393 C392 1.399 . S
C393 C394 1.385 . S
C394 H380 0.931 . S
C394 C393 1.385 . S
C394 C395 1.389 . S
C395 C394 1.389 . S
C395 C396 1.387 . S
C396 H381 0.930 . S
C396 C391 1.390 . S
C396 C395 1.387 . S
H397 C409 0.930 . S
H398 C411 0.930 . S
H399 C412 0.930 . S
H400 C416 0.959 . S
H401 C416 0.959 . S
H402 C416 0.961 1_455 S
H403 C417 0.957 1_455 S
H404 C417 0.964 . S
H405 C417 0.957 . S
H406 C420 0.929 . S
H407 C421 0.931 . S
H408 C423 0.930 . S
C409 H397 0.930 . S
C409 C410 1.399 . S
C409 C414 1.399 . S
C410 C409 1.399 . S
C410 C411 1.376 . S
C411 H398 0.930 . S
C411 C410 1.376 . S
C411 C412 1.388 . S
C412 H399 0.930 . S
C412 C411 1.388 . S
C412 C413 1.390 . S
C413 C412 1.390 . S
C413 C414 1.394 . S
C413 C419 1.465 1_455 S
C414 C409 1.399 . S
C414 C413 1.394 . S
C414 C415 1.499 1_455 S
C415 C414 1.499 1_655 S
C415 C416 1.503 . S
C415 C417 1.561 . S
C415 C418 1.543 . S
C416 H400 0.959 . S
C416 H401 0.959 . S
C416 H402 0.961 1_655 S
C416 C415 1.503 . S
C417 H403 0.957 1_655 S
C417 H404 0.964 . S
C417 H405 0.957 . S
C417 C415 1.561 . S
C418 C415 1.543 . S
C418 C419 1.396 . S
C418 C423 1.390 . S
C419 C413 1.465 1_655 S
C419 C418 1.396 . S
C419 C420 1.399 . S
C420 H406 0.929 . S
C420 C419 1.399 . S
C420 C421 1.385 . S
C421 H407 0.931 . S
C421 C420 1.385 . S
C421 C422 1.389 . S
C422 C421 1.389 . S
C422 C423 1.387 . S
C423 H408 0.930 . S
C423 C418 1.390 . S
C423 C422 1.387 . S
H424 C436 0.930 . S
H425 C438 0.930 . S
H426 C439 0.930 . S
H427 C443 0.959 . S
H428 C443 0.959 . S
H429 C443 0.961 . S
H430 C444 0.960 . S
H431 C444 0.961 . S
H432 C444 0.959 . S
H433 C447 0.929 . S
H434 C448 0.931 . S
H435 C450 0.930 . S
C436 H424 0.930 . S
C436 C437 1.404 . S
C436 C441 1.399 . S
C437 C436 1.404 . S
C437 C438 1.370 1_554 S
C438 H425 0.930 . S
C438 C437 1.370 1_556 S
C438 C439 1.388 . S
C439 H426 0.930 . S
C439 C438 1.388 . S
C439 C440 1.390 . S
C440 C439 1.390 . S
C440 C441 1.394 1_556 S
C440 C446 1.465 . S
C441 C436 1.399 . S
C441 C440 1.394 1_554 S
C441 C442 1.516 . S
C442 C441 1.516 . S
C442 C443 1.502 . S
C442 C444 1.561 . S
C442 C445 1.526 . S
C443 H427 0.959 . S
C443 H428 0.959 . S
C443 H429 0.961 . S
C443 C442 1.502 . S
C444 H430 0.960 . S
C444 H431 0.961 . S
C444 H432 0.959 . S
C444 C442 1.561 . S
C445 C442 1.526 . S
C445 C446 1.396 1_554 S
C445 C450 1.390 . S
C446 C440 1.465 . S
C446 C445 1.396 1_556 S
C446 C447 1.399 . S
C447 H433 0.929 . S
C447 C446 1.399 . S
C447 C448 1.385 . S
C448 H434 0.931 . S
C448 C447 1.385 . S
C448 C449 1.389 . S
C449 C448 1.389 . S
C449 C450 1.387 1_556 S
C450 H435 0.930 . S
C450 C445 1.390 . S
C450 C449 1.387 1_554 S
H451 C463 0.930 . S
H452 C465 0.930 . S
H453 C466 0.930 . S
H454 C470 0.959 . S
H455 C470 0.959 . S
H456 C470 0.961 . S
H457 C471 0.960 . S
H458 C471 0.961 . S
H459 C471 0.959 . S
H460 C474 0.929 . S
H461 C475 0.931 . S
H462 C477 0.930 . S
C463 H451 0.930 . S
C463 C464 1.399 1_556 S
C463 C468 1.399 . S
C464 C463 1.399 1_554 S
C464 C465 1.376 . S
C465 H452 0.930 . S
C465 C464 1.376 . S
C465 C466 1.388 . S
C466 H453 0.930 . S
C466 C465 1.388 . S
C466 C467 1.390 . S
C467 C466 1.390 . S
C467 C468 1.394 1_554 S
C467 C473 1.465 . S
C468 C463 1.399 . S
C468 C467 1.394 1_556 S
C468 C469 1.516 . S
C469 C468 1.516 . S
C469 C470 1.502 . S
C469 C471 1.561 . S
C469 C472 1.526 . S
C470 H454 0.959 . S
C470 H455 0.959 . S
C470 H456 0.961 . S
C470 C469 1.502 . S
C471 H457 0.960 . S
C471 H458 0.961 . S
C471 H459 0.959 . S
C471 C469 1.561 . S
C472 C469 1.526 . S
C472 C473 1.396 1_556 S
C472 C477 1.390 . S
C473 C467 1.465 . S
C473 C472 1.396 1_554 S
C473 C474 1.399 . S
C474 H460 0.929 . S
C474 C473 1.399 . S
C474 C475 1.385 . S
C475 H461 0.931 . S
C475 C474 1.385 . S
C475 C476 1.389 . S
C476 C475 1.389 . S
C476 C477 1.387 1_554 S
C477 H462 0.930 . S
C477 C472 1.390 . S
C477 C476 1.387 1_556 S
H478 C490 0.930 . S
H479 C492 0.930 . S
H480 C493 0.930 . S
H481 C497 0.959 . S
H482 C497 0.959 . S
H483 C497 0.961 . S
H484 C498 0.960 . S
H485 C498 0.961 . S
H486 C498 0.959 . S
H487 C501 0.929 . S
H488 C502 0.931 . S
H489 C504 0.930 . S
C490 H478 0.930 . S
C490 C491 1.394 1_554 S
C490 C495 1.399 . S
C491 C490 1.394 1_556 S
C491 C492 1.383 . S
C492 H479 0.930 . S
C492 C491 1.383 . S
C492 C493 1.388 . S
C493 H480 0.930 . S
C493 C492 1.388 . S
C493 C494 1.390 . S
C494 C493 1.390 . S
C494 C495 1.394 1_556 S
C494 C500 1.465 . S
C495 C490 1.399 . S
C495 C494 1.394 1_554 S
C495 C496 1.516 . S
C496 C495 1.516 . S
C496 C497 1.502 . S
C496 C498 1.561 . S
C496 C499 1.526 . S
C497 H481 0.959 . S
C497 H482 0.959 . S
C497 H483 0.961 . S
C497 C496 1.502 . S
C498 H484 0.960 . S
C498 H485 0.961 . S
C498 H486 0.959 . S
C498 C496 1.561 . S
C499 C496 1.526 . S
C499 C500 1.396 1_554 S
C499 C504 1.390 . S
C500 C494 1.465 . S
C500 C499 1.396 1_556 S
C500 C501 1.399 . S
C501 H487 0.929 . S
C501 C500 1.399 . S
C501 C502 1.385 . S
C502 H488 0.931 . S
C502 C501 1.385 . S
C502 C503 1.389 . S
C503 C502 1.389 . S
C503 C504 1.387 1_556 S
C504 H489 0.930 . S
C504 C499 1.390 . S
C504 C503 1.387 1_554 S
H505 C517 0.930 . S
H506 C519 0.930 . S
H507 C520 0.930 . S
H508 C524 0.959 . S
H509 C524 0.959 . S
H510 C524 0.961 . S
H511 C525 0.960 . S
H512 C525 0.961 . S
H513 C525 0.959 . S
H514 C528 0.929 . S
H515 C529 0.931 . S
H516 C531 0.930 . S
C517 H505 0.930 . S
C517 C518 1.399 1_554 S
C517 C522 1.399 . S
C518 C517 1.399 1_556 S
C518 C519 1.376 . S
C519 H506 0.930 . S
C519 C518 1.376 . S
C519 C520 1.388 . S
C520 H507 0.930 . S
C520 C519 1.388 . S
C520 C521 1.390 . S
C521 C520 1.390 . S
C521 C522 1.394 1_556 S
C521 C527 1.465 . S
C522 C517 1.399 . S
C522 C521 1.394 1_554 S
C522 C523 1.516 . S
C523 C522 1.516 . S
C523 C524 1.502 . S
C523 C525 1.561 . S
C523 C526 1.526 . S
C524 H508 0.959 . S
C524 H509 0.959 . S
C524 H510 0.961 . S
C524 C523 1.502 . S
C525 H511 0.960 . S
C525 H512 0.961 . S
C525 H513 0.959 . S
C525 C523 1.561 . S
C526 C523 1.526 . S
C526 C527 1.396 1_554 S
C526 C531 1.390 . S
C527 C521 1.465 . S
C527 C526 1.396 1_556 S
C527 C528 1.399 . S
C528 H514 0.929 . S
C528 C527 1.399 . S
C528 C529 1.385 . S
C529 H515 0.931 . S
C529 C528 1.385 . S
C529 C530 1.391 . S
C530 C529 1.391 . S
C530 C531 1.386 1_556 S
C531 H516 0.930 . S
C531 C526 1.390 . S
C531 C530 1.386 1_554 S
H532 C544 0.930 . S
H533 C546 0.930 . S
H534 C547 0.930 . S
H535 C551 0.959 . S
H536 C551 0.959 . S
H537 C551 0.961 . S
H538 C552 0.960 . S
H539 C552 0.961 . S
H540 C552 0.959 . S
H541 C555 0.929 . S
H542 C556 0.931 . S
H543 C558 0.930 . S
C544 H532 0.930 . S
C544 C545 1.399 . S
C544 C549 1.399 . S
C545 C544 1.399 . S
C545 C546 1.376 . S
C546 H533 0.930 . S
C546 C545 1.376 . S
C546 C547 1.388 . S
C547 H534 0.930 . S
C547 C546 1.388 . S
C547 C548 1.390 . S
C548 C547 1.390 . S
C548 C549 1.394 . S
C548 C554 1.465 . S
C549 C544 1.399 . S
C549 C548 1.394 . S
C549 C550 1.516 . S
C550 C549 1.516 . S
C550 C551 1.502 . S
C550 C552 1.561 . S
C550 C553 1.526 . S
C551 H535 0.959 . S
C551 H536 0.959 . S
C551 H537 0.961 . S
C551 C550 1.502 . S
C552 H538 0.960 . S
C552 H539 0.961 . S
C552 H540 0.959 . S
C552 C550 1.561 . S
C553 C550 1.526 . S
C553 C554 1.396 . S
C553 C558 1.390 . S
C554 C548 1.465 . S
C554 C553 1.396 . S
C554 C555 1.399 . S
C555 H541 0.929 . S
C555 C554 1.399 . S
C555 C556 1.385 . S
C556 H542 0.931 . S
C556 C555 1.385 . S
C556 C557 1.389 . S
C557 C556 1.389 . S
C557 C558 1.387 . S
C558 H543 0.930 . S
C558 C553 1.390 . S
C558 C557 1.387 . S
H559 C571 0.930 . S
H560 C573 0.930 . S
H561 C574 0.930 . S
H562 C578 0.959 . S
H563 C578 0.959 . S
H564 C578 0.961 . S
H565 C579 0.960 . S
H566 C579 0.961 . S
H567 C579 0.959 . S
H568 C582 0.929 . S
H569 C583 0.931 . S
H570 C585 0.930 . S
C571 H559 0.930 . S
C571 C572 1.399 . S
C571 C576 1.399 . S
C572 C571 1.399 . S
C572 C573 1.376 . S
C573 H560 0.930 . S
C573 C572 1.376 . S
C573 C574 1.388 . S
C574 H561 0.930 . S
C574 C573 1.388 . S
C574 C575 1.390 . S
C575 C574 1.390 . S
C575 C576 1.394 . S
C575 C581 1.465 . S
C576 C571 1.399 . S
C576 C575 1.394 . S
C576 C577 1.516 . S
C577 C576 1.516 . S
C577 C578 1.502 . S
C577 C579 1.561 . S
C577 C580 1.526 . S
C578 H562 0.959 . S
C578 H563 0.959 . S
C578 H564 0.961 . S
C578 C577 1.502 . S
C579 H565 0.960 . S
C579 H566 0.961 . S
C579 H567 0.959 . S
C579 C577 1.561 . S
C580 C577 1.526 . S
C580 C581 1.396 . S
C580 C585 1.390 . S
C581 C575 1.465 . S
C581 C580 1.396 . S
C581 C582 1.399 . S
C582 H568 0.929 . S
C582 C581 1.399 . S
C582 C583 1.385 . S
C583 H569 0.931 . S
C583 C582 1.385 . S
C583 C584 1.389 . S
C584 C583 1.389 . S
C584 C585 1.387 . S
C585 H570 0.930 . S
C585 C580 1.390 . S
C585 C584 1.387 . S
H586 C598 0.930 . S
H587 C600 0.930 . S
H588 C601 0.930 . S
H589 C605 0.959 . S
H590 C605 0.959 . S
H591 C605 0.961 . S
H592 C606 0.960 . S
H593 C606 0.961 . S
H594 C606 0.959 . S
H595 C609 0.929 . S
H596 C610 0.931 . S
H597 C612 0.930 . S
C598 H586 0.930 . S
C598 C599 1.399 . S
C598 C603 1.399 . S
C599 C598 1.399 . S
C599 C600 1.376 . S
C600 H587 0.930 . S
C600 C599 1.376 . S
C600 C601 1.388 . S
C601 H588 0.930 . S
C601 C600 1.388 . S
C601 C602 1.390 . S
C602 C601 1.390 . S
C602 C603 1.394 . S
C602 C608 1.465 . S
C603 C598 1.399 . S
C603 C602 1.394 . S
C603 C604 1.516 . S
C604 C603 1.516 . S
C604 C605 1.502 . S
C604 C606 1.561 . S
C604 C607 1.526 . S
C605 H589 0.959 . S
C605 H590 0.959 . S
C605 H591 0.961 . S
C605 C604 1.502 . S
C606 H592 0.960 . S
C606 H593 0.961 . S
C606 H594 0.959 . S
C606 C604 1.561 . S
C607 C604 1.526 . S
C607 C608 1.396 . S
C607 C612 1.390 . S
C608 C602 1.465 . S
C608 C607 1.396 . S
C608 C609 1.399 . S
C609 H595 0.929 . S
C609 C608 1.399 . S
C609 C610 1.385 . S
C610 H596 0.931 . S
C610 C609 1.385 . S
C610 C611 1.389 . S
C611 C610 1.389 . S
C611 C612 1.387 . S
C612 H597 0.930 . S
C612 C607 1.390 . S
C612 C611 1.387 . S
H613 C625 0.930 . S
H614 C627 0.930 . S
H615 C628 0.930 . S
H616 C632 0.959 . S
H617 C632 0.959 . S
H618 C632 0.961 . S
H619 C633 0.960 . S
H620 C633 0.961 . S
H621 C633 0.959 . S
H622 C636 0.929 . S
H623 C637 0.931 . S
H624 C639 0.930 . S
C625 H613 0.930 . S
C625 C626 1.399 . S
C625 C630 1.399 . S
C626 C625 1.399 . S
C626 C627 1.376 . S
C627 H614 0.930 . S
C627 C626 1.376 . S
C627 C628 1.388 . S
C628 H615 0.930 . S
C628 C627 1.388 . S
C628 C629 1.390 . S
C629 C628 1.390 . S
C629 C630 1.394 . S
C629 C635 1.465 . S
C630 C625 1.399 . S
C630 C629 1.394 . S
C630 C631 1.516 . S
C631 C630 1.516 . S
C631 C632 1.502 . S
C631 C633 1.561 . S
C631 C634 1.526 . S
C632 H616 0.959 . S
C632 H617 0.959 . S
C632 H618 0.961 . S
C632 C631 1.502 . S
C633 H619 0.960 . S
C633 H620 0.961 . S
C633 H621 0.959 . S
C633 C631 1.561 . S
C634 C631 1.526 . S
C634 C635 1.396 . S
C634 C639 1.390 . S
C635 C629 1.465 . S
C635 C634 1.396 . S
C635 C636 1.399 . S
C636 H622 0.929 . S
C636 C635 1.399 . S
C636 C637 1.385 . S
C637 H623 0.931 . S
C637 C636 1.385 . S
C637 C638 1.389 . S
C638 C637 1.389 . S
C638 C639 1.387 . S
C639 H624 0.930 . S
C639 C634 1.390 . S
C639 C638 1.387 . S
H640 C652 0.930 . S
H641 C654 0.930 . S
H642 C655 0.930 . S
H643 C659 0.959 . S
H644 C659 0.959 . S
H645 C659 0.961 . S
H646 C660 0.960 . S
H647 C660 0.961 . S
H648 C660 0.959 . S
H649 C663 0.929 . S
H650 C664 0.931 . S
H651 C666 0.930 . S
C652 H640 0.930 . S
C652 C653 1.399 . S
C652 C657 1.399 . S
C653 C652 1.399 . S
C653 C654 1.376 . S
C654 H641 0.930 . S
C654 C653 1.376 . S
C654 C655 1.388 . S
C655 H642 0.930 . S
C655 C654 1.388 . S
C655 C656 1.390 . S
C656 C655 1.390 . S
C656 C657 1.394 . S
C656 C662 1.465 . S
C657 C652 1.399 . S
C657 C656 1.394 . S
C657 C658 1.516 . S
C658 C657 1.516 . S
C658 C659 1.502 . S
C658 C660 1.561 . S
C658 C661 1.526 . S
C659 H643 0.959 . S
C659 H644 0.959 . S
C659 H645 0.961 . S
C659 C658 1.502 . S
C660 H646 0.960 . S
C660 H647 0.961 . S
C660 H648 0.959 . S
C660 C658 1.561 . S
C661 C658 1.526 . S
C661 C662 1.396 . S
C661 C666 1.390 . S
C662 C656 1.465 . S
C662 C661 1.396 . S
C662 C663 1.399 . S
C663 H649 0.929 . S
C663 C662 1.399 . S
C663 C664 1.385 . S
C664 H650 0.931 . S
C664 C663 1.385 . S
C664 C665 1.389 . S
C665 C664 1.389 . S
C665 C666 1.387 . S
C666 H651 0.930 . S
C666 C661 1.390 . S
C666 C665 1.387 . S
H667 C679 0.930 . S
H668 C681 0.930 . S
H669 C682 0.930 . S
H670 C686 0.959 . S
H671 C686 0.959 . S
H672 C686 0.961 . S
H673 C687 0.960 . S
H674 C687 0.961 . S
H675 C687 0.959 . S
H676 C690 0.929 . S
H677 C691 0.931 . S
H678 C693 0.930 . S
C679 H667 0.930 . S
C679 C680 1.399 . S
C679 C684 1.399 . S
C680 C679 1.399 . S
C680 C681 1.376 . S
C681 H668 0.930 . S
C681 C680 1.376 . S
C681 C682 1.388 . S
C682 H669 0.930 . S
C682 C681 1.388 . S
C682 C683 1.390 . S
C683 C682 1.390 . S
C683 C684 1.394 . S
C683 C689 1.465 . S
C684 C679 1.399 . S
C684 C683 1.394 . S
C684 C685 1.516 . S
C685 C684 1.516 . S
C685 C686 1.502 . S
C685 C687 1.561 . S
C685 C688 1.526 . S
C686 H670 0.959 . S
C686 H671 0.959 . S
C686 H672 0.961 . S
C686 C685 1.502 . S
C687 H673 0.960 . S
C687 H674 0.961 . S
C687 H675 0.959 . S
C687 C685 1.561 . S
C688 C685 1.526 . S
C688 C689 1.396 . S
C688 C693 1.390 . S
C689 C683 1.465 . S
C689 C688 1.396 . S
C689 C690 1.399 . S
C690 H676 0.929 . S
C690 C689 1.399 . S
C690 C691 1.385 . S
C691 H677 0.931 . S
C691 C690 1.385 . S
C691 C692 1.389 . S
C692 C691 1.389 . S
C692 C693 1.387 . S
C693 H678 0.930 . S
C693 C688 1.390 . S
C693 C692 1.387 . S
H694 C706 0.930 . S
H695 C708 0.930 . S
H696 C709 0.930 . S
H697 C713 0.959 . S
H698 C713 0.959 . S
H699 C713 0.961 . S
H700 C714 0.960 . S
H701 C714 0.961 . S
H702 C714 0.959 . S
H703 C717 0.929 . S
H704 C718 0.931 . S
H705 C720 0.930 . S
C706 H694 0.930 . S
C706 C707 1.399 . S
C706 C711 1.399 . S
C707 C706 1.399 . S
C707 C708 1.376 . S
C708 H695 0.930 . S
C708 C707 1.376 . S
C708 C709 1.388 . S
C709 H696 0.930 . S
C709 C708 1.388 . S
C709 C710 1.390 . S
C710 C709 1.390 . S
C710 C711 1.394 . S
C710 C716 1.465 . S
C711 C706 1.399 . S
C711 C710 1.394 . S
C711 C712 1.516 . S
C712 C711 1.516 . S
C712 C713 1.502 . S
C712 C714 1.561 . S
C712 C715 1.526 . S
C713 H697 0.959 . S
C713 H698 0.959 . S
C713 H699 0.961 . S
C713 C712 1.502 . S
C714 H700 0.960 . S
C714 H701 0.961 . S
C714 H702 0.959 . S
C714 C712 1.561 . S
C715 C712 1.526 . S
C715 C716 1.396 . S
C715 C720 1.390 . S
C716 C710 1.465 . S
C716 C715 1.396 . S
C716 C717 1.399 . S
C717 H703 0.929 . S
C717 C716 1.399 . S
C717 C718 1.385 . S
C718 H704 0.931 . S
C718 C717 1.385 . S
C718 C719 1.389 . S
C719 C718 1.389 . S
C719 C720 1.387 . S
C720 H705 0.930 . S
C720 C715 1.390 . S
C720 C719 1.387 . S
H721 C733 0.930 . S
H722 C735 0.930 . S
H723 C736 0.930 . S
H724 C740 0.959 . S
H725 C740 0.959 . S
H726 C740 0.961 . S
H727 C741 0.960 . S
H728 C741 0.961 . S
H729 C741 0.959 . S
H730 C744 0.929 . S
H731 C745 0.931 . S
H732 C747 0.930 . S
C733 H721 0.930 . S
C733 C734 1.399 . S
C733 C738 1.399 . S
C734 C733 1.399 . S
C734 C735 1.376 . S
C735 H722 0.930 . S
C735 C734 1.376 . S
C735 C736 1.388 . S
C736 H723 0.930 . S
C736 C735 1.388 . S
C736 C737 1.390 . S
C737 C736 1.390 . S
C737 C738 1.394 . S
C737 C743 1.465 . S
C738 C733 1.399 . S
C738 C737 1.394 . S
C738 C739 1.516 . S
C739 C738 1.516 . S
C739 C740 1.502 . S
C739 C741 1.561 . S
C739 C742 1.526 . S
C740 H724 0.959 . S
C740 H725 0.959 . S
C740 H726 0.961 . S
C740 C739 1.502 . S
C741 H727 0.960 . S
C741 H728 0.961 . S
C741 H729 0.959 . S
C741 C739 1.561 . S
C742 C739 1.526 . S
C742 C743 1.396 . S
C742 C747 1.390 . S
C743 C737 1.465 . S
C743 C742 1.396 . S
C743 C744 1.399 . S
C744 H730 0.929 . S
C744 C743 1.399 . S
C744 C745 1.385 . S
C745 H731 0.931 . S
C745 C744 1.385 . S
C745 C746 1.389 . S
C746 C745 1.389 . S
C746 C747 1.387 . S
C747 H732 0.930 . S
C747 C742 1.390 . S
C747 C746 1.387 . S
H748 C760 0.930 . S
H749 C762 0.930 . S
H750 C763 0.930 . S
H751 C767 0.959 . S
H752 C767 0.959 . S
H753 C767 0.961 . S
H754 C768 0.960 . S
H755 C768 0.961 . S
H756 C768 0.959 . S
H757 C771 0.929 . S
H758 C772 0.931 . S
H759 C774 0.930 . S
C760 H748 0.930 . S
C760 C761 1.399 . S
C760 C765 1.399 . S
C761 C760 1.399 . S
C761 C762 1.376 . S
C762 H749 0.930 . S
C762 C761 1.376 . S
C762 C763 1.388 . S
C763 H750 0.930 . S
C763 C762 1.388 . S
C763 C764 1.390 . S
C764 C763 1.390 . S
C764 C765 1.394 . S
C764 C770 1.465 . S
C765 C760 1.399 . S
C765 C764 1.394 . S
C765 C766 1.516 . S
C766 C765 1.516 . S
C766 C767 1.502 . S
C766 C768 1.561 . S
C766 C769 1.526 . S
C767 H751 0.959 . S
C767 H752 0.959 . S
C767 H753 0.961 . S
C767 C766 1.502 . S
C768 H754 0.960 . S
C768 H755 0.961 . S
C768 H756 0.959 . S
C768 C766 1.561 . S
C769 C766 1.526 . S
C769 C770 1.396 . S
C769 C774 1.390 . S
C770 C764 1.465 . S
C770 C769 1.396 . S
C770 C771 1.399 . S
C771 H757 0.929 . S
C771 C770 1.399 . S
C771 C772 1.385 . S
C772 H758 0.931 . S
C772 C771 1.385 . S
C772 C773 1.389 . S
C773 C772 1.389 . S
C773 C774 1.387 . S
C774 H759 0.930 . S
C774 C769 1.390 . S
C774 C773 1.387 . S
H775 C787 0.930 . S
H776 C789 0.930 . S
H777 C790 0.930 . S
H778 C794 0.959 . S
H779 C794 0.959 . S
H780 C794 0.961 . S
H781 C795 0.960 . S
H782 C795 0.961 . S
H783 C795 0.959 . S
H784 C798 0.929 . S
H785 C799 0.931 . S
H786 C801 0.930 . S
C787 H775 0.930 . S
C787 C788 1.399 . S
C787 C792 1.399 . S
C788 C787 1.399 . S
C788 C789 1.376 . S
C789 H776 0.930 . S
C789 C788 1.376 . S
C789 C790 1.388 . S
C790 H777 0.930 . S
C790 C789 1.388 . S
C790 C791 1.390 . S
C791 C790 1.390 . S
C791 C792 1.394 . S
C791 C797 1.465 . S
C792 C787 1.399 . S
C792 C791 1.394 . S
C792 C793 1.516 . S
C793 C792 1.516 . S
C793 C794 1.502 . S
C793 C795 1.561 . S
C793 C796 1.526 . S
C794 H778 0.959 . S
C794 H779 0.959 . S
C794 H780 0.961 . S
C794 C793 1.502 . S
C795 H781 0.960 . S
C795 H782 0.961 . S
C795 H783 0.959 . S
C795 C793 1.561 . S
C796 C793 1.526 . S
C796 C797 1.396 . S
C796 C801 1.390 . S
C797 C791 1.465 . S
C797 C796 1.396 . S
C797 C798 1.399 . S
C798 H784 0.929 . S
C798 C797 1.399 . S
C798 C799 1.385 . S
C799 H785 0.931 . S
C799 C798 1.385 . S
C799 C800 1.389 . S
C800 C799 1.389 . S
C800 C801 1.387 . S
C801 H786 0.930 . S
C801 C796 1.390 . S
C801 C800 1.387 . S
H802 C814 0.930 . S
H803 C816 0.930 . S
H804 C817 0.930 . S
H805 C821 0.959 . S
H806 C821 0.959 . S
H807 C821 0.961 . S
H808 C822 0.960 . S
H809 C822 0.961 . S
H810 C822 0.959 . S
H811 C825 0.929 . S
H812 C826 0.931 . S
H813 C828 0.930 . S
C814 H802 0.930 . S
C814 C815 1.399 . S
C814 C819 1.399 . S
C815 C814 1.399 . S
C815 C816 1.376 . S
C816 H803 0.930 . S
C816 C815 1.376 . S
C816 C817 1.388 . S
C817 H804 0.930 . S
C817 C816 1.388 . S
C817 C818 1.390 . S
C818 C817 1.390 . S
C818 C819 1.394 . S
C818 C824 1.465 . S
C819 C814 1.399 . S
C819 C818 1.394 . S
C819 C820 1.516 . S
C820 C819 1.516 . S
C820 C821 1.502 . S
C820 C822 1.561 . S
C820 C823 1.526 . S
C821 H805 0.959 . S
C821 H806 0.959 . S
C821 H807 0.961 . S
C821 C820 1.502 . S
C822 H808 0.960 . S
C822 H809 0.961 . S
C822 H810 0.959 . S
C822 C820 1.561 . S
C823 C820 1.526 . S
C823 C824 1.396 . S
C823 C828 1.390 . S
C824 C818 1.465 . S
C824 C823 1.396 . S
C824 C825 1.399 . S
C825 H811 0.929 . S
C825 C824 1.399 . S
C825 C826 1.385 . S
C826 H812 0.931 . S
C826 C825 1.385 . S
C826 C827 1.389 . S
C827 C826 1.389 . S
C827 C828 1.387 . S
C828 H813 0.930 . S
C828 C823 1.390 . S
C828 C827 1.387 . S
H829 C841 0.930 . S
H830 C843 0.930 . S
H831 C844 0.930 . S
H832 C848 0.959 . S
H833 C848 0.959 . S
H834 C848 0.961 . S
H835 C849 0.960 . S
H836 C849 0.961 . S
H837 C849 0.959 . S
H838 C852 0.929 . S
H839 C853 0.931 . S
H840 C855 0.930 . S
C841 H829 0.930 . S
C841 C842 1.399 . S
C841 C846 1.399 . S
C842 C841 1.399 . S
C842 C843 1.376 . S
C843 H830 0.930 . S
C843 C842 1.376 . S
C843 C844 1.388 . S
C844 H831 0.930 . S
C844 C843 1.388 . S
C844 C845 1.390 . S
C845 C844 1.390 . S
C845 C846 1.394 . S
C845 C851 1.465 . S
C846 C841 1.399 . S
C846 C845 1.394 . S
C846 C847 1.516 . S
C847 C846 1.516 . S
C847 C848 1.502 . S
C847 C849 1.561 . S
C847 C850 1.526 . S
C848 H832 0.959 . S
C848 H833 0.959 . S
C848 H834 0.961 . S
C848 C847 1.502 . S
C849 H835 0.960 . S
C849 H836 0.961 . S
C849 H837 0.959 . S
C849 C847 1.561 . S
C850 C847 1.526 . S
C850 C851 1.396 . S
C850 C855 1.390 . S
C851 C845 1.465 . S
C851 C850 1.396 . S
C851 C852 1.399 . S
C852 H838 0.929 . S
C852 C851 1.399 . S
C852 C853 1.385 . S
C853 H839 0.931 . S
C853 C852 1.385 . S
C853 C854 1.389 . S
C854 C853 1.389 . S
C854 C855 1.387 . S
C855 H840 0.930 . S
C855 C850 1.390 . S
C855 C854 1.387 . S
H856 C868 0.930 . S
H857 C870 0.930 . S
H858 C871 0.930 . S
H859 C875 0.959 . S
H860 C875 0.959 . S
H861 C875 0.961 . S
H862 C876 0.960 . S
H863 C876 0.961 . S
H864 C876 0.959 . S
H865 C879 0.929 . S
H866 C880 0.931 . S
H867 C882 0.930 . S
C868 H856 0.930 . S
C868 C869 1.399 . S
C868 C873 1.399 . S
C869 C868 1.399 . S
C869 C870 1.376 . S
C870 H857 0.930 . S
C870 C869 1.376 . S
C870 C871 1.388 . S
C871 H858 0.930 . S
C871 C870 1.388 . S
C871 C872 1.390 . S
C872 C871 1.390 . S
C872 C873 1.394 . S
C872 C878 1.465 . S
C873 C868 1.399 . S
C873 C872 1.394 . S
C873 C874 1.516 . S
C874 C873 1.516 . S
C874 C875 1.502 . S
C874 C876 1.561 . S
C874 C877 1.526 . S
C875 H859 0.959 . S
C875 H860 0.959 . S
C875 H861 0.961 . S
C875 C874 1.502 . S
C876 H862 0.960 . S
C876 H863 0.961 . S
C876 H864 0.959 . S
C876 C874 1.561 . S
C877 C874 1.526 . S
C877 C878 1.396 . S
C877 C882 1.390 . S
C878 C872 1.465 . S
C878 C877 1.396 . S
C878 C879 1.399 . S
C879 H865 0.929 . S
C879 C878 1.399 . S
C879 C880 1.385 . S
C880 H866 0.931 . S
C880 C879 1.385 . S
C880 C881 1.389 . S
C881 C880 1.389 . S
C881 C882 1.387 . S
C882 H867 0.930 . S
C882 C877 1.390 . S
C882 C881 1.387 . S
H883 C895 0.930 . S
H884 C897 0.930 . S
H885 C898 0.930 . S
H886 C902 0.959 . S
H887 C902 0.959 . S
H888 C902 0.961 . S
H889 C903 0.960 . S
H890 C903 0.961 . S
H891 C903 0.959 . S
H892 C906 0.929 . S
H893 C907 0.931 . S
H894 C909 0.930 . S
C895 H883 0.930 . S
C895 C896 1.399 . S
C895 C900 1.399 . S
C896 C895 1.399 . S
C896 C897 1.376 . S
C897 H884 0.930 . S
C897 C896 1.376 . S
C897 C898 1.388 . S
C898 H885 0.930 . S
C898 C897 1.388 . S
C898 C899 1.390 . S
C899 C898 1.390 . S
C899 C900 1.394 . S
C899 C905 1.465 . S
C900 C895 1.399 . S
C900 C899 1.394 . S
C900 C901 1.516 . S
C901 C900 1.516 . S
C901 C902 1.502 . S
C901 C903 1.561 . S
C901 C904 1.526 . S
C902 H886 0.959 . S
C902 H887 0.959 . S
C902 H888 0.961 . S
C902 C901 1.502 . S
C903 H889 0.960 . S
C903 H890 0.961 . S
C903 H891 0.959 . S
C903 C901 1.561 . S
C904 C901 1.526 . S
C904 C905 1.396 . S
C904 C909 1.390 . S
C905 C899 1.465 . S
C905 C904 1.396 . S
C905 C906 1.399 . S
C906 H892 0.929 . S
C906 C905 1.399 . S
C906 C907 1.385 . S
C907 H893 0.931 . S
C907 C906 1.385 . S
C907 C908 1.389 . S
C908 C907 1.389 . S
C908 C909 1.387 . S
C909 H894 0.930 . S
C909 C904 1.390 . S
C909 C908 1.387 . S
H910 C922 0.930 . S
H911 C924 0.930 . S
H912 C925 0.930 . S
H913 C929 0.959 . S
H914 C929 0.959 . S
H915 C929 0.961 . S
H916 C930 0.960 . S
H917 C930 0.961 . S
H918 C930 0.959 . S
H919 C933 0.929 . S
H920 C934 0.931 . S
H921 C936 0.930 . S
C922 H910 0.930 . S
C922 C923 1.399 . S
C922 C927 1.399 . S
C923 C922 1.399 . S
C923 C924 1.376 . S
C924 H911 0.930 . S
C924 C923 1.376 . S
C924 C925 1.388 . S
C925 H912 0.930 . S
C925 C924 1.388 . S
C925 C926 1.390 . S
C926 C925 1.390 . S
C926 C927 1.394 . S
C926 C932 1.465 . S
C927 C922 1.399 . S
C927 C926 1.394 . S
C927 C928 1.516 . S
C928 C927 1.516 . S
C928 C929 1.502 . S
C928 C930 1.561 . S
C928 C931 1.526 . S
C929 H913 0.959 . S
C929 H914 0.959 . S
C929 H915 0.961 . S
C929 C928 1.502 . S
C930 H916 0.960 . S
C930 H917 0.961 . S
C930 H918 0.959 . S
C930 C928 1.561 . S
C931 C928 1.526 . S
C931 C932 1.396 . S
C931 C936 1.390 . S
C932 C926 1.465 . S
C932 C931 1.396 . S
C932 C933 1.399 . S
C933 H919 0.929 . S
C933 C932 1.399 . S
C933 C934 1.385 . S
C934 H920 0.931 . S
C934 C933 1.385 . S
C934 C935 1.389 . S
C935 C934 1.389 . S
C935 C936 1.387 . S
C936 H921 0.930 . S
C936 C931 1.390 . S
C936 C935 1.387 . S
H937 C949 0.930 . S
H938 C951 0.930 . S
H939 C952 0.930 . S
H940 C956 0.959 . S
H941 C956 0.959 . S
H942 C956 0.961 . S
H943 C957 0.960 . S
H944 C957 0.961 . S
H945 C957 0.959 . S
H946 C960 0.929 . S
H947 C961 0.931 . S
H948 C963 0.930 . S
C949 H937 0.930 . S
C949 C950 1.399 . S
C949 C954 1.399 . S
C950 C949 1.399 . S
C950 C951 1.376 . S
C951 H938 0.930 . S
C951 C950 1.376 . S
C951 C952 1.388 . S
C952 H939 0.930 . S
C952 C951 1.388 . S
C952 C953 1.390 . S
C953 C952 1.390 . S
C953 C954 1.394 . S
C953 C959 1.465 . S
C954 C949 1.399 . S
C954 C953 1.394 . S
C954 C955 1.516 . S
C955 C954 1.516 . S
C955 C956 1.502 . S
C955 C957 1.561 . S
C955 C958 1.526 . S
C956 H940 0.959 . S
C956 H941 0.959 . S
C956 H942 0.961 . S
C956 C955 1.502 . S
C957 H943 0.960 . S
C957 H944 0.961 . S
C957 H945 0.959 . S
C957 C955 1.561 . S
C958 C955 1.526 . S
C958 C959 1.396 . S
C958 C963 1.390 . S
C959 C953 1.465 . S
C959 C958 1.396 . S
C959 C960 1.399 . S
C960 H946 0.929 . S
C960 C959 1.399 . S
C960 C961 1.385 . S
C961 H947 0.931 . S
C961 C960 1.385 . S
C961 C962 1.389 . S
C962 C961 1.389 . S
C962 C963 1.387 . S
C963 H948 0.930 . S
C963 C958 1.390 . S
C963 C962 1.387 . S
H964 C976 0.930 . S
H965 C978 0.930 . S
H966 C979 0.930 . S
H967 C983 0.959 . S
H968 C983 0.959 . S
H969 C983 0.961 . S
H970 C984 0.960 . S
H971 C984 0.961 . S
H972 C984 0.959 . S
H973 C987 0.929 . S
H974 C988 0.931 . S
H975 C990 0.930 . S
C976 H964 0.930 . S
C976 C977 1.399 . S
C976 C981 1.399 . S
C977 C976 1.399 . S
C977 C978 1.376 . S
C978 H965 0.930 . S
C978 C977 1.376 . S
C978 C979 1.388 . S
C979 H966 0.930 . S
C979 C978 1.388 . S
C979 C980 1.390 . S
C980 C979 1.390 . S
C980 C981 1.394 . S
C980 C986 1.465 . S
C981 C976 1.399 . S
C981 C980 1.394 . S
C981 C982 1.516 . S
C982 C981 1.516 . S
C982 C983 1.502 . S
C982 C984 1.561 . S
C982 C985 1.526 . S
C983 H967 0.959 . S
C983 H968 0.959 . S
C983 H969 0.961 . S
C983 C982 1.502 . S
C984 H970 0.960 . S
C984 H971 0.961 . S
C984 H972 0.959 . S
C984 C982 1.561 . S
C985 C982 1.526 . S
C985 C986 1.396 . S
C985 C990 1.390 . S
C986 C980 1.465 . S
C986 C985 1.396 . S
C986 C987 1.399 . S
C987 H973 0.929 . S
C987 C986 1.399 . S
C987 C988 1.385 . S
C988 H974 0.931 . S
C988 C987 1.385 . S
C988 C989 1.389 . S
C989 C988 1.389 . S
C989 C990 1.387 . S
C990 H975 0.930 . S
C990 C985 1.390 . S
C990 C989 1.387 . S
H991 C1003 0.930 . S
H992 C1005 0.930 . S
H993 C1006 0.930 . S
H994 C1010 0.959 . S
H995 C1010 0.959 . S
H996 C1010 0.961 . S
H997 C1011 0.960 . S
H998 C1011 0.961 . S
H999 C1011 0.959 . S
H1000 C1014 0.929 . S
H1001 C1015 0.931 . S
H1002 C1017 0.930 . S
C1003 H991 0.930 . S
C1003 C1004 1.399 . S
C1003 C1008 1.399 . S
C1004 C1003 1.399 . S
C1004 C1005 1.376 . S
C1005 H992 0.930 . S
C1005 C1004 1.376 . S
C1005 C1006 1.388 . S
C1006 H993 0.930 . S
C1006 C1005 1.388 . S
C1006 C1007 1.390 . S
C1007 C1006 1.390 . S
C1007 C1008 1.394 . S
C1007 C1013 1.465 . S
C1008 C1003 1.399 . S
C1008 C1007 1.394 . S
C1008 C1009 1.516 . S
C1009 C1008 1.516 . S
C1009 C1010 1.502 . S
C1009 C1011 1.561 . S
C1009 C1012 1.526 . S
C1010 H994 0.959 . S
C1010 H995 0.959 . S
C1010 H996 0.961 . S
C1010 C1009 1.502 . S
C1011 H997 0.960 . S
C1011 H998 0.961 . S
C1011 H999 0.959 . S
C1011 C1009 1.561 . S
C1012 C1009 1.526 . S
C1012 C1013 1.396 . S
C1012 C1017 1.390 . S
C1013 C1007 1.465 . S
C1013 C1012 1.396 . S
C1013 C1014 1.399 . S
C1014 H1000 0.929 . S
C1014 C1013 1.399 . S
C1014 C1015 1.385 . S
C1015 H1001 0.931 . S
C1015 C1014 1.385 . S
C1015 C1016 1.389 . S
C1016 C1015 1.389 . S
C1016 C1017 1.387 . S
C1017 H1002 0.930 . S
C1017 C1012 1.390 . S
C1017 C1016 1.387 . S
H1018 C1030 0.930 . S
H1019 C1032 0.930 . S
H1020 C1033 0.930 . S
H1021 C1037 0.959 . S
H1022 C1037 0.959 . S
H1023 C1037 0.961 . S
H1024 C1038 0.960 . S
H1025 C1038 0.961 . S
H1026 C1038 0.959 . S
H1027 C1041 0.929 . S
H1028 C1042 0.931 . S
H1029 C1044 0.930 . S
C1030 H1018 0.930 . S
C1030 C1031 1.399 . S
C1030 C1035 1.399 . S
C1031 C1030 1.399 . S
C1031 C1032 1.376 . S
C1032 H1019 0.930 . S
C1032 C1031 1.376 . S
C1032 C1033 1.388 . S
C1033 H1020 0.930 . S
C1033 C1032 1.388 . S
C1033 C1034 1.390 . S
C1034 C1033 1.390 . S
C1034 C1035 1.394 . S
C1034 C1040 1.465 . S
C1035 C1030 1.399 . S
C1035 C1034 1.394 . S
C1035 C1036 1.516 . S
C1036 C1035 1.516 . S
C1036 C1037 1.502 . S
C1036 C1038 1.561 . S
C1036 C1039 1.526 . S
C1037 H1021 0.959 . S
C1037 H1022 0.959 . S
C1037 H1023 0.961 . S
C1037 C1036 1.502 . S
C1038 H1024 0.960 . S
C1038 H1025 0.961 . S
C1038 H1026 0.959 . S
C1038 C1036 1.561 . S
C1039 C1036 1.526 . S
C1039 C1040 1.396 . S
C1039 C1044 1.390 . S
C1040 C1034 1.465 . S
C1040 C1039 1.396 . S
C1040 C1041 1.399 . S
C1041 H1027 0.929 . S
C1041 C1040 1.399 . S
C1041 C1042 1.385 . S
C1042 H1028 0.931 . S
C1042 C1041 1.385 . S
C1042 C1043 1.389 . S
C1043 C1042 1.389 . S
C1043 C1044 1.387 . S
C1044 H1029 0.930 . S
C1044 C1039 1.390 . S
C1044 C1043 1.387 . S
H1045 C1057 0.930 . S
H1046 C1059 0.930 . S
H1047 C1060 0.930 . S
H1048 C1064 0.959 . S
H1049 C1064 0.959 . S
H1050 C1064 0.961 . S
H1051 C1065 0.960 . S
H1052 C1065 0.961 . S
H1053 C1065 0.959 . S
H1054 C1068 0.929 . S
H1055 C1069 0.931 . S
H1056 C1071 0.930 . S
C1057 H1045 0.930 . S
C1057 C1058 1.399 . S
C1057 C1062 1.399 . S
C1058 C1057 1.399 . S
C1058 C1059 1.376 . S
C1059 H1046 0.930 . S
C1059 C1058 1.376 . S
C1059 C1060 1.388 . S
C1060 H1047 0.930 . S
C1060 C1059 1.388 . S
C1060 C1061 1.390 . S
C1061 C1060 1.390 . S
C1061 C1062 1.394 . S
C1061 C1067 1.465 . S
C1062 C1057 1.399 . S
C1062 C1061 1.394 . S
C1062 C1063 1.516 . S
C1063 C1062 1.516 . S
C1063 C1064 1.502 . S
C1063 C1065 1.561 . S
C1063 C1066 1.526 . S
C1064 H1048 0.959 . S
C1064 H1049 0.959 . S
C1064 H1050 0.961 . S
C1064 C1063 1.502 . S
C1065 H1051 0.960 . S
C1065 H1052 0.961 . S
C1065 H1053 0.959 . S
C1065 C1063 1.561 . S
C1066 C1063 1.526 . S
C1066 C1067 1.396 . S
C1066 C1071 1.390 . S
C1067 C1061 1.465 . S
C1067 C1066 1.396 . S
C1067 C1068 1.399 . S
C1068 H1054 0.929 . S
C1068 C1067 1.399 . S
C1068 C1069 1.385 . S
C1069 H1055 0.931 . S
C1069 C1068 1.385 . S
C1069 C1070 1.389 . S
C1070 C1069 1.389 . S
C1070 C1071 1.387 . S
C1071 H1056 0.930 . S
C1071 C1066 1.390 . S
C1071 C1070 1.387 . S
C221 C52 1.114 1_554 S
C233 C0 1.183 1_556 S
C248 C65 1.128 1_554 S
C260 C13 1.200 1_556 S
C275 C78 1.115 1_554 S
C287 C26 1.181 1_556 S
C302 C91 1.168 1_554 S
C314 C39 1.122 . S
C329 C156 1.193 . S
C341 C104 1.116 . S
C356 C169 1.171 . S
C368 C117 1.120 . S
C383 C130 1.177 . S
C395 C182 1.172 . S
C410 C195 1.138 . S
C422 C143 1.198 . S
C437 C5 1.253 . S
C449 C70 1.244 . S
C464 C83 1.271 1_554 S
C476 C18 1.262 . S
C491 C31 1.259 1_556 S
C503 C96 1.252 . S
C518 C57 1.302 . S
C530 C44 1.308 1_556 S
C545 C174 1.254 . S
C557 C109 1.246 . S
C572 C187 1.273 . S
C584 C122 1.283 . S
C599 C135 1.246 . S
C611 C200 1.240 . S
C626 C148 1.228 . S
C638 C161 1.229 . S
C653 C205 1.403 . S
C665 C10 1.398 . S
C680 C166 1.392 . S
C692 C23 1.412 . S
C707 C179 1.410 . S
C719 C36 1.424 . S
C734 C192 1.426 . S
C746 C49 1.395 . S
C761 C127 1.399 . S
C773 C62 1.401 . S
C788 C140 1.391 . S
C800 C75 1.415 . S
C815 C88 1.425 . S
C827 C153 1.394 . S
C842 C101 1.404 . S
C854 C114 1.397 . S
C869 C177 1.450 . S
C881 C34 1.438 . S
C896 C190 1.400 . S
C908 C47 1.406 . S
C923 C203 1.441 . S
C935 C8 1.453 . S
C950 C21 1.453 . S
C962 C164 1.463 . S
C977 C151 1.433 . S
C989 C86 1.445 . S
C1004 C99 1.445 . S
C1016 C112 1.457 . S
C1031 C125 1.449 . S
C1043 C60 1.437 . S
C1058 C138 1.423 . S
C1070 C73 1.435 . S
