# Generated by pormake.
# Topology smt, (6)-cn, num edge types: 1
# Building blocks:
#     Node 0, Type 0, BuildingBlock: MIDCAF_clean_sbu_0, # of connection points: 6
#     Node 1, Type 0, BuildingBlock: MIDCAF_clean_sbu_0, # of connection points: 6
#     Node 2, Type 0, BuildingBlock: MIDCAF_clean_sbu_0, # of connection points: 6
#     Node 3, Type 0, BuildingBlock: MIDCAF_clean_sbu_0, # of connection points: 6
#     Node 4, Type 0, BuildingBlock: MIDCAF_clean_sbu_0, # of connection points: 6
#     Node 5, Type 0, BuildingBlock: MIDCAF_clean_sbu_0, # of connection points: 6
#     Edge 6, Type (0, 0), BuildingBlock: UKIBIB_clean_linker_0, # of connection points: 2
#     Edge 7, Type (0, 0), BuildingBlock: UKIBIB_clean_linker_0, # of connection points: 2
#     Edge 8, Type (0, 0), BuildingBlock: UKIBIB_clean_linker_0, # of connection points: 2
#     Edge 9, Type (0, 0), BuildingBlock: UKIBIB_clean_linker_0, # of connection points: 2
#     Edge 10, Type (0, 0), BuildingBlock: UKIBIB_clean_linker_0, # of connection points: 2
#     Edge 11, Type (0, 0), BuildingBlock: UKIBIB_clean_linker_0, # of connection points: 2
#     Edge 12, Type (0, 0), BuildingBlock: UKIBIB_clean_linker_0, # of connection points: 2
#     Edge 13, Type (0, 0), BuildingBlock: UKIBIB_clean_linker_0, # of connection points: 2
#     Edge 14, Type (0, 0), BuildingBlock: UKIBIB_clean_linker_0, # of connection points: 2
#     Edge 15, Type (0, 0), BuildingBlock: UKIBIB_clean_linker_0, # of connection points: 2
#     Edge 16, Type (0, 0), BuildingBlock: UKIBIB_clean_linker_0, # of connection points: 2
#     Edge 17, Type (0, 0), BuildingBlock: UKIBIB_clean_linker_0, # of connection points: 2
#     Edge 18, Type (0, 0), BuildingBlock: UKIBIB_clean_linker_0, # of connection points: 2
#     Edge 19, Type (0, 0), BuildingBlock: UKIBIB_clean_linker_0, # of connection points: 2
#     Edge 20, Type (0, 0), BuildingBlock: UKIBIB_clean_linker_0, # of connection points: 2
#     Edge 21, Type (0, 0), BuildingBlock: UKIBIB_clean_linker_0, # of connection points: 2
#     Edge 22, Type (0, 0), BuildingBlock: UKIBIB_clean_linker_0, # of connection points: 2
#     Edge 23, Type (0, 0), BuildingBlock: UKIBIB_clean_linker_0, # of connection points: 2
# Relax obj value: 0.229
# Max RMSD: 0.198
# Mean RMSD: 0.198
data_MOF--net-smt--node1-MIDCAF_clean_sbu_0--edge1-UKIBIB_clean_linker_0
_symmetry_space_group_name_H-M    P1
_symmetry_Int_Tables_number       1
_symmetry_cell_setting            triclinic
loop_
_symmetry_equiv_pos_as_xyz
'x, y, z'
_cell_length_a     47.280499
_cell_length_b     47.033977
_cell_length_c     34.182515
_cell_angle_alpha  90.32035
_cell_angle_beta   89.903378
_cell_angle_gamma 119.92091
loop_
_atom_site_label
_atom_site_type_symbol
_atom_site_fract_x
_atom_site_fract_y
_atom_site_fract_z
_atom_type_partial_charge
Zn0 Zn 0.4777 0.12119 0.94986 0.0
Zn1 Zn 0.34084 0.03974 0.06137 0.0
Zn2 Zn 0.42249 0.08693 -0.0056 0.0
C3 C 0.35261 0.03188 0.97945 0.0
C4 C 0.36522 0.09978 0.03789 0.0
O5 O 0.46492 0.11811 0.03095 0.0
O6 O 0.49933 0.11289 -0.00774 0.0
C7 C 0.4413 0.05792 0.92378 0.0
O8 O 0.37129 0.06305 0.9756 0.0
O9 O 0.34403 0.01882 0.01277 0.0
O10 O 0.33952 0.08065 0.05624 0.0
O11 O 0.38241 0.08807 0.02336 0.0
O12 O 0.45737 0.0867 0.9105 0.0
O13 O 0.42895 0.05256 0.95816 0.0
O14 O 0.4171 0.12006 0.95398 0.0
O15 O 0.46896 0.15778 0.95457 0.0
C16 C 0.43995 0.14896 0.94552 0.0
O17 O 0.41751 0.06221 0.05161 0.0
O18 O 0.37519 0.0412 0.09374 0.0
C19 C 0.4932 0.12148 0.02468 0.0
C20 C 0.40359 0.04755 0.0838 0.0
Zn21 Zn 0.33654 0.48881 0.10896 0.0
Zn22 Zn 0.28078 0.34549 0.22005 0.0
Zn23 Zn 0.31677 0.43414 0.15933 0.0
C24 C 0.28702 0.36185 0.14427 0.0
C25 C 0.24424 0.38316 0.20061 0.0
O26 O 0.32811 0.47512 0.19749 0.0
O27 O 0.36273 0.51147 0.15574 0.0
C28 C 0.35907 0.44839 0.08921 0.0
O29 O 0.28623 0.387 0.13203 0.0
O30 O 0.26375 0.34192 0.16539 0.0
O31 O 0.24698 0.35855 0.21024 0.0
O32 O 0.2671 0.40843 0.1832 0.0
O33 O 0.33796 0.45468 0.07658 0.0
O34 O 0.35846 0.44142 0.1252 0.0
O35 O 0.27456 0.43168 0.12463 0.0
O36 O 0.29419 0.48387 0.10757 0.0
C37 C 0.27097 0.45469 0.10889 0.0
O38 O 0.33776 0.43447 0.21619 0.0
O39 O 0.31882 0.38523 0.24461 0.0
C40 C 0.35 0.50458 0.18947 0.0
C41 C 0.33799 0.41604 0.24374 0.0
Zn42 Zn 0.82033 0.35267 0.27559 0.0
Zn43 Zn 0.90093 0.29778 0.38285 0.0
Zn44 Zn 0.85625 0.32687 0.32813 0.0
C45 C 0.91096 0.31295 0.30889 0.0
C46 C 0.83608 0.25628 0.36643 0.0
O47 O 0.83087 0.34308 0.36549 0.0
O48 O 0.81599 0.36982 0.32446 0.0
C49 C 0.88715 0.37872 0.25765 0.0
O50 O 0.88312 0.30818 0.29863 0.0
O51 O 0.92382 0.32736 0.34053 0.0
O52 O 0.86321 0.2572 0.36672 0.0
O53 O 0.8326 0.28004 0.35451 0.0
O54 O 0.85992 0.37491 0.24748 0.0
O55 O 0.8905 0.36345 0.28674 0.0
O56 O 0.81636 0.28511 0.29599 0.0
O57 O 0.79188 0.30797 0.26344 0.0
C58 C 0.7945 0.2834 0.27203 0.0
O59 O 0.87967 0.34944 0.38411 0.0
O60 O 0.89492 0.32208 0.42463 0.0
C61 C 0.81818 0.361 0.35855 0.0
C62 C 0.8922 0.34681 0.4164 0.0
Zn63 Zn 0.58271 0.92205 0.54414 0.0
Zn64 Zn 0.45045 0.83956 0.44357 0.0
Zn65 Zn 0.50651 0.87352 0.49557 0.0
C66 C 0.48631 0.80786 0.44375 0.0
C67 C 0.49248 0.90097 0.423 0.0
O68 O 0.50871 0.89483 0.55324 0.0
O69 O 0.55568 0.92003 0.58698 0.0
C70 C 0.55873 0.85199 0.52925 0.0
O71 O 0.50911 0.83318 0.46204 0.0
O72 O 0.4577 0.80326 0.4406 0.0
O73 O 0.48539 0.87307 0.41093 0.0
O74 O 0.49933 0.90759 0.45908 0.0
O75 O 0.58139 0.87983 0.54047 0.0
O76 O 0.53294 0.84821 0.51174 0.0
O77 O 0.55152 0.89136 0.46324 0.0
O78 O 0.56444 0.9339 0.5002 0.0
C79 C 0.57176 0.9209 0.47288 0.0
O80 O 0.46448 0.84069 0.52919 0.0
O81 O 0.4288 0.84443 0.4914 0.0
C82 C 0.52543 0.90993 0.58382 0.0
C83 C 0.43559 0.83531 0.52306 0.0
Zn84 Zn 0.58425 0.45758 0.60989 0.0
Zn85 Zn 0.64745 0.59798 0.71997 0.0
Zn86 Zn 0.61574 0.52118 0.66154 0.0
C87 C 0.63038 0.58998 0.64256 0.0
C88 C 0.68463 0.57139 0.69899 0.0
O89 O 0.60082 0.47725 0.69536 0.0
O90 O 0.56557 0.43569 0.6583 0.0
C91 C 0.56138 0.49965 0.59118 0.0
O92 O 0.63631 0.56713 0.63373 0.0
O93 O 0.61949 0.592 0.67558 0.0
O94 O 0.68738 0.59934 0.703 0.0
O95 O 0.6566 0.54556 0.70157 0.0
O96 O 0.56244 0.47433 0.58186 0.0
O97 O 0.57841 0.51884 0.61952 0.0
O98 O 0.6566 0.52247 0.63002 0.0
O99 O 0.62957 0.47542 0.59739 0.0
C100 C 0.65581 0.50123 0.60568 0.0
O101 O 0.59511 0.52421 0.71875 0.0
O102 O 0.6197 0.56716 0.75993 0.0
C103 C 0.57996 0.44682 0.6904 0.0
C104 C 0.59626 0.539 0.75115 0.0
Zn105 Zn 0.10238 0.60533 0.78018 0.0
Zn106 Zn 0.01824 0.65232 0.8761 0.0
Zn107 Zn 0.0702 0.62561 0.8278 0.0
C108 C 0.02196 0.64064 0.8043 0.0
C109 C 0.08854 0.69654 0.86811 0.0
O110 O 0.1025 0.61537 0.86098 0.0
O111 O 0.09685 0.57496 0.82333 0.0
C112 C 0.04104 0.58194 0.75669 0.0
O113 O 0.0489 0.64677 0.78881 0.0
O114 O 0.01285 0.62265 0.83379 0.0
O115 O 0.0605 0.69353 0.87249 0.0
O116 O 0.09252 0.67356 0.8538 0.0
O117 O 0.06873 0.60162 0.74336 0.0
O118 O 0.03538 0.58348 0.7929 0.0
O119 O 0.1075 0.66738 0.79069 0.0
O120 O 0.141 0.64788 0.78009 0.0
C121 C 0.13466 0.67084 0.77735 0.0
O122 O 0.04792 0.60711 0.88624 0.0
O123 O 0.0191 0.62584 0.91872 0.0
C124 C 0.10632 0.59071 0.8552 0.0
C125 C 0.03134 0.60724 0.91624 0.0
C126 C 0.29737 8e-05 0.95421 0.0
C127 C 0.33075 0.0107 0.94894 0.0
C128 C 0.27378 0.9677 0.9457 0.0
C129 C 0.14869 0.73649 0.86724 0.0
C130 C 0.11686 0.72861 0.8777 0.0
C131 C 0.1748 0.768 0.87458 0.0
H132 H 0.36527 -0.00326 0.928 0.0
H133 H 0.32371 0.94066 0.91039 0.0
H134 H 0.08752 0.74711 0.90503 0.0
H135 H 0.13308 0.80168 0.91762 0.0
C136 C 0.33974 -0.01043 0.93088 0.0
C137 C 0.31612 0.95727 0.92205 0.0
C138 C 0.11171 0.75242 0.89629 0.0
C139 C 0.13767 0.78366 0.90354 0.0
C140 C 0.28326 0.94603 0.93062 0.0
C141 C 0.25939 0.91223 0.92412 0.0
C142 C 0.23964 0.88386 0.91853 0.0
C143 C 0.16922 0.79151 0.89286 0.0
C144 C 0.19564 0.82371 0.90147 0.0
C145 C 0.21631 0.85118 0.90974 0.0
H146 H 0.28993 0.01546 0.96969 0.0
H147 H 0.24843 0.95923 0.95261 0.0
H148 H 0.15331 0.7186 0.85294 0.0
H149 H 0.19923 0.77399 0.86605 0.0
C150 C 0.2937 0.33192 0.08764 0.0
C151 C 0.30491 0.34797 0.12386 0.0
C152 C 0.30104 0.30762 0.07589 0.0
C153 C 0.38431 0.15163 0.07282 0.0
C154 C 0.37374 0.1342 0.03728 0.0
C155 C 0.37584 0.17538 0.08267 0.0
H156 H 0.33386 0.35266 0.17498 0.0
H157 H 0.34725 0.31089 0.15405 0.0
H158 H 0.34726 0.12878 0.98375 0.0
H159 H 0.33405 0.17171 -6e-05 0.0
C160 C 0.32552 0.34113 0.14657 0.0
C161 C 0.33273 0.3169 0.13495 0.0
C162 C 0.35691 0.14284 0.0105 0.0
C163 C 0.34854 0.16666 0.02026 0.0
C164 C 0.3196 0.29919 0.10026 0.0
C165 C 0.32452 0.2719 0.09073 0.0
C166 C 0.32948 0.24939 0.08435 0.0
C167 C 0.35713 0.18235 0.05685 0.0
C168 C 0.34669 0.20549 0.06774 0.0
C169 C 0.3377 0.22475 0.0762 0.0
H170 H 0.27708 0.33612 0.07011 0.0
H171 H 0.29088 0.29433 0.04881 0.0
H172 H 0.39608 0.14444 0.0947 0.0
H173 H 0.38266 0.18719 0.11111 0.0
C174 C 0.95372 0.34053 0.26197 0.0
C175 C 0.93294 0.31124 0.2812 0.0
C176 C -0.01433 0.3486 0.25402 0.0
C177 C 0.1893 0.35215 0.23003 0.0
C178 C 0.21262 0.38044 0.21011 0.0
C179 C 0.15824 0.34688 0.23695 0.0
H180 H 0.92762 0.26625 0.30506 0.0
H181 H -0.01659 0.27949 0.28844 0.0
H182 H 0.22223 0.42647 0.18457 0.0
H183 H 0.16689 0.41718 0.19757 0.0
C184 C 0.94312 0.28844 0.28884 0.0
C185 C -0.02493 0.29637 0.28047 0.0
C186 C 0.2046 0.40427 0.19921 0.0
C187 C 0.17318 0.39897 0.20655 0.0
C188 C -0.00345 0.32692 0.26422 0.0
C189 C 0.02991 0.3364 0.25808 0.0
C190 C 0.05815 0.34573 0.25222 0.0
C191 C 0.15011 0.37019 0.22529 0.0
C192 C 0.1181 0.36424 0.23383 0.0
C193 C 0.09066 0.35641 0.24262 0.0
H194 H 0.94655 0.35888 0.25754 0.0
H195 H 0.00225 0.37236 0.2416 0.0
H196 H 0.19462 0.33345 0.23984 0.0
H197 H 0.1406 0.32458 0.25155 0.0
C198 C 0.77916 0.21278 0.35641 0.0
C199 C 0.80803 0.22587 0.37804 0.0
C200 C 0.75417 0.18107 0.36411 0.0
C201 C 0.63077 0.95854 0.46829 0.0
C202 C 0.59998 0.94345 0.44982 0.0
C203 C 0.65413 -0.00911 0.4593 0.0
H204 H 0.83379 0.21806 0.42555 0.0
H205 H 0.78954 0.16258 0.43949 0.0
H206 H 0.56986 0.94994 0.40753 0.0
H207 H 0.61086 0.00629 0.39132 0.0
C208 C 0.81148 0.20797 0.40851 0.0
C209 C 0.78647 0.17648 0.41636 0.0
C210 C 0.59389 0.96045 0.42061 0.0
C211 C 0.61692 -0.0071 0.4122 0.0
C212 C 0.75799 0.16293 0.39391 0.0
C213 C 0.73278 0.13027 0.40164 0.0
C214 C 0.71229 0.10275 0.40922 0.0
C215 C 0.64677 0.00832 0.43202 0.0
C216 C 0.66972 0.04204 0.42432 0.0
C217 C 0.68899 0.07029 0.41791 0.0
H218 H 0.77655 0.22635 0.33259 0.0
H219 H 0.73217 0.1706 0.34654 0.0
H220 H 0.63555 0.94648 0.49223 0.0
H221 H 0.6772 0.00272 0.47488 0.0
C222 C 0.59256 0.82947 0.5551 0.0
C223 C 0.56266 0.82369 0.53909 0.0
C224 C 0.59736 0.80353 0.5644 0.0
C225 C 0.59856 0.60223 0.59855 0.0
C226 C 0.62951 0.6112 0.61336 0.0
C227 C 0.59048 0.62628 0.59095 0.0
H228 H 0.51356 0.78608 0.52325 0.0
H229 H 0.52235 0.74014 0.53966 0.0
H230 H 0.67691 0.65144 0.62977 0.0
H231 H 0.66329 0.69398 0.61403 0.0
C232 C 0.5371 0.79124 0.53437 0.0
C233 C 0.542 0.76512 0.54389 0.0
C234 C 0.65338 0.64434 0.61674 0.0
C235 C 0.64533 0.66843 0.60902 0.0
C236 C 0.57221 0.77142 0.5587 0.0
C237 C 0.57793 0.7453 0.56843 0.0
C238 C 0.58534 0.72534 0.57749 0.0
C239 C 0.61359 0.65926 0.59725 0.0
C240 C 0.60447 0.68355 0.59165 0.0
C241 C 0.59558 0.70299 0.58653 0.0
H242 H 0.61263 0.85411 0.5601 0.0
H243 H 0.62077 0.8086 0.57599 0.0
H244 H 0.5795 0.5767 0.59755 0.0
H245 H 0.5658 0.61906 0.58201 0.0
C246 C -0.02097 0.65607 0.81006 0.0
C247 C -0.0029 0.64632 0.786 0.0
C248 C 0.94691 0.64723 0.80046 0.0
C249 C 0.73057 0.56259 0.68251 0.0
C250 C 0.71362 0.5702 0.71037 0.0
C251 C 0.76248 0.56975 0.69028 0.0
H252 H -0.0039 0.62111 0.73269 0.0
H253 H 0.94024 0.60669 0.71505 0.0
H254 H 0.71557 0.59048 0.76804 0.0
H255 H 0.7714 0.60276 0.78172 0.0
C256 C -0.01676 0.62991 0.75087 0.0
C257 C 0.95107 0.62095 0.74135 0.0
C258 C 0.72823 0.58387 0.74655 0.0
C259 C 0.76008 0.59119 0.75417 0.0
C260 C 0.9326 0.62894 0.76649 0.0
C261 C 0.89906 0.61844 0.75735 0.0
C262 C 0.87098 0.60978 0.74996 0.0
C263 C 0.77742 0.5845 0.72591 0.0
C264 C 0.81063 0.59308 0.73357 0.0
C265 C 0.8384 0.6006 0.74097 0.0
H266 H -0.0112 0.66844 0.8377 0.0
H267 H 0.93295 0.65366 0.82016 0.0
H268 H 0.71996 0.55296 0.65407 0.0
H269 H 0.77576 0.56463 0.66812 0.0
C270 C 0.39884 -0.00066 0.11835 0.0
C271 C 0.41772 0.03301 0.10933 0.0
C272 C 0.4068 -0.01359 0.15047 0.0
C273 C 0.50314 0.9533 0.39066 0.0
C274 C 0.48305 0.91962 0.39689 0.0
C275 C 0.49694 0.96827 0.3589 0.0
H276 H 0.45903 0.07922 0.12638 0.0
H277 H 0.47351 0.05654 0.18246 0.0
H278 H 0.43952 0.87552 0.37679 0.0
H279 H 0.42901 0.90171 0.32198 0.0
C280 C 0.44506 0.05317 0.13204 0.0
C281 C 0.45289 0.04029 0.16433 0.0
C282 C 0.45563 0.90161 0.37251 0.0
C283 C 0.4496 0.91643 0.34104 0.0
C284 C 0.43361 0.00703 0.17396 0.0
C285 C 0.44129 -0.00556 0.20825 0.0
C286 C 0.44857 -0.01509 0.23718 0.0
C287 C 0.47048 0.94968 0.33365 0.0
C288 C 0.46443 0.96413 0.29988 0.0
C289 C 0.45753 0.97412 0.27105 0.0
H290 H 0.377 -0.01657 0.10169 0.0
H291 H 0.39155 0.96067 0.15759 0.0
H292 H 0.52445 0.96751 0.40881 0.0
H293 H 0.51323 -0.00589 0.35349 0.0
C294 C 0.34809 0.41907 0.31508 0.0
C295 C 0.3604 0.42986 0.27725 0.0
C296 C 0.36913 0.4274 0.34702 0.0
C297 C 0.55398 0.51752 0.52778 0.0
C298 C 0.54088 0.50578 0.565 0.0
C299 C 0.53381 0.50795 0.49483 0.0
H300 H 0.40426 0.4571 0.24286 0.0
H301 H 0.44149 0.47194 0.29938 0.0
H302 H 0.4965 0.47416 0.59678 0.0
H303 H 0.46072 0.45943 0.53931 0.0
C304 C 0.39421 0.44935 0.2719 0.0
C305 C 0.41539 0.45744 0.30399 0.0
C306 C 0.50694 0.48537 0.56888 0.0
C307 C 0.48669 0.47606 0.53593 0.0
C308 C 0.40287 0.44627 0.34157 0.0
C309 C 0.4244 0.45387 0.37465 0.0
C310 C 0.44179 0.45983 0.40287 0.0
C311 C 0.50016 0.48689 0.49874 0.0
C312 C 0.47948 0.47667 0.46465 0.0
C313 C 0.46212 0.46808 0.43615 0.0
H314 H 0.32209 0.40358 0.3198 0.0
H315 H 0.35907 0.4186 0.37585 0.0
H316 H 0.58021 0.53133 0.52367 0.0
H317 H 0.54465 0.5161 0.4662 0.0
C318 C -0.01083 0.54431 0.72136 0.0
C319 C 0.02117 0.55332 0.7318 0.0
C320 C -0.02551 0.52344 0.68912 0.0
C321 C 0.94034 0.38517 0.45558 0.0
C322 C 0.90795 0.37428 0.44372 0.0
C323 C 0.95372 0.40663 0.48731 0.0
H324 H 0.0625 0.54664 0.71862 0.0
H325 H 0.03676 0.51032 0.6628 0.0
H326 H 0.86455 0.37722 0.45431 0.0
H327 H 0.88794 0.41488 0.51034 0.0
C328 C 0.03759 0.5398 0.71122 0.0
C329 C 0.0231 0.51931 0.67914 0.0
C330 C 0.88963 0.38591 0.46278 0.0
C331 C 0.90288 0.40703 0.49483 0.0
C332 C -0.00826 0.5115 0.66754 0.0
C333 C -0.02214 0.49157 0.63314 0.0
C334 C -0.032 0.4748 0.60409 0.0
C335 C 0.93473 0.41712 0.50746 0.0
C336 C 0.94743 0.43766 0.54158 0.0
C337 C 0.95712 0.45487 0.57029 0.0
H338 H -0.02356 0.55496 0.73637 0.0
H339 H 0.95014 0.51749 0.68032 0.0
H340 H 0.95481 0.37615 0.44116 0.0
H341 H -0.02159 0.41428 0.49672 0.0
C342 C 0.52309 0.92065 0.65378 0.0
C343 C 0.51118 0.91924 0.61581 0.0
C344 C 0.51471 0.93478 0.6841 0.0
C345 C 0.42463 0.02929 0.86128 0.0
C346 C 0.4388 0.03193 0.89805 0.0
C347 C 0.43288 0.01615 0.82962 0.0
H348 H 0.48223 0.93243 0.57907 0.0
H349 H 0.46673 0.95683 0.6332 0.0
H350 H 0.47219 0.02237 0.9312 0.0
H351 H 0.4854 -0.00257 0.87561 0.0
C352 C 0.49065 0.9322 0.60847 0.0
C353 C 0.48229 0.94653 0.63907 0.0
C354 C 0.45993 0.01932 0.90344 0.0
C355 C 0.46802 0.00583 0.87162 0.0
C356 C 0.49445 0.94787 0.67687 0.0
C357 C 0.48603 0.96212 0.70879 0.0
C358 C 0.48027 0.97353 0.73721 0.0
C359 C 0.45516 0.00512 0.83444 0.0
C360 C 0.4653 -0.00593 0.80078 0.0
C361 C 0.47281 -0.01488 0.77151 0.0
H362 H 0.53954 0.91141 0.65985 0.0
H363 H 0.52433 0.93575 0.71314 0.0
H364 H 0.40926 0.03998 0.85632 0.0
H365 H 0.4229 0.01591 0.80102 0.0
C366 C 0.40065 0.43776 0.05701 0.0
C367 C 0.38745 0.45817 0.0637 0.0
C368 C 0.42178 0.44396 0.02521 0.0
C369 C 0.55242 0.54377 0.78541 0.0
C370 C 0.56851 0.52583 0.77812 0.0
C371 C 0.53069 0.53548 0.81683 0.0
H372 H 0.38758 0.50231 0.04472 0.0
H373 H 0.42435 0.51292 -0.01018 0.0
H374 H 0.57681 0.48767 0.79933 0.0
H375 H 0.53677 0.47116 0.85235 0.0
C376 C 0.39732 0.486 0.04 0.0
C377 C 0.41817 0.49206 0.00849 0.0
C378 C 0.56262 0.49978 0.80249 0.0
C379 C 0.54055 0.49114 0.83342 0.0
C380 C 0.43002 0.47076 0.00045 0.0
C381 C 0.45027 0.47669 0.96643 0.0
C382 C 0.46696 0.48373 0.9374 0.0
C383 C 0.52484 0.50916 0.84108 0.0
C384 C 0.50387 0.50115 0.87481 0.0
C385 C 0.48666 0.49319 0.90344 0.0
H386 H 0.3931 0.4161 0.07467 0.0
H387 H 0.43091 0.42734 0.01931 0.0
H388 H 0.55768 0.56495 0.76778 0.0
H389 H 0.51914 0.55001 0.82271 0.0
C390 C 0.01037 0.55016 0.94121 0.0
C391 C 0.02298 0.5838 0.94842 0.0
C392 C -0.00392 0.52755 0.97179 0.0
C393 C 0.92555 0.43429 0.23579 0.0
C394 C 0.9137 0.4004 0.2321 0.0
C395 C 0.93731 0.4546 0.20301 0.0
H396 H 0.03026 0.62014 -0.00749 0.0
H397 H 0.00614 0.58083 0.04572 0.0
H398 H 0.90391 0.36111 0.19158 0.0
H399 H 0.92546 0.39677 0.1344 0.0
C400 C 0.02139 0.59441 -0.01355 0.0
C401 C 0.00731 0.57199 0.01676 0.0
C402 C 0.91484 0.38741 0.19552 0.0
C403 C 0.92624 0.4076 0.16273 0.0
C404 C -0.00558 0.53849 0.00959 0.0
C405 C -0.02001 0.51579 0.04147 0.0
C406 C -0.0317 0.49818 0.06943 0.0
C407 C 0.93704 0.44115 0.16624 0.0
C408 C 0.94762 0.4616 0.13203 0.0
C409 C 0.95638 0.47834 0.10306 0.0
H410 H 0.01019 0.54128 0.91184 0.0
H411 H -0.01404 0.50161 0.96584 0.0
H412 H 0.92301 0.44453 0.26319 0.0
H413 H 0.94529 0.48047 0.20605 0.0
C414 C 0.4484 0.16966 0.87848 0.0
C415 C 0.43672 0.1699 0.91641 0.0
C416 C 0.46284 0.19823 0.85591 0.0
C417 C 0.5568 0.42304 0.75487 0.0
C418 C 0.5725 0.42238 0.72056 0.0
C419 C 0.5421 0.39546 0.77895 0.0
H420 H 0.42966 0.19951 0.95945 0.0
H421 H 0.45325 0.24908 0.91905 0.0
H422 H 0.5842 0.39242 0.68287 0.0
H423 H 0.55832 0.34403 0.72491 0.0
C424 C 0.43727 0.19835 0.92985 0.0
C425 C 0.4515 0.22685 0.90718 0.0
C426 C 0.57332 0.39382 0.71026 0.0
C427 C 0.55828 0.36614 0.73392 0.0
C428 C 0.46523 0.22719 0.87069 0.0
C429 C 0.48245 0.25745 0.84912 0.0
C430 C 0.49673 0.28303 0.83161 0.0
C431 C 0.54252 0.36682 0.76829 0.0
C432 C 0.52611 0.33775 0.79187 0.0
C433 C 0.51273 0.3128 0.81064 0.0
H434 H 0.44956 0.14845 0.86807 0.0
H435 H 0.47349 0.1981 0.82784 0.0
H436 H 0.55365 0.44375 0.76127 0.0
H437 H 0.52938 0.39608 0.80504 0.0
C438 C 0.14016 0.56526 0.86863 0.0
C439 C 0.1239 0.58126 0.88317 0.0
C440 C 0.15407 0.55256 0.89397 0.0
C441 C 0.22526 0.46466 0.10433 0.0
C442 C 0.24182 0.44976 0.08765 0.0
C443 C 0.21167 0.47907 0.08083 0.0
H444 H 0.111 0.59823 0.93566 0.0
H445 H 0.13567 0.57563 0.98062 0.0
H446 H 0.25591 0.43732 0.03255 0.0
H447 H 0.23004 0.46067 -0.00872 0.0
C448 C 0.12326 0.58585 0.92376 0.0
C449 C 0.13718 0.57284 0.94934 0.0
C450 C 0.24198 0.44717 0.04647 0.0
C451 C 0.22808 0.46142 0.02283 0.0
C452 C 0.15231 0.55578 0.93443 0.0
C453 C 0.16573 0.54088 0.95988 0.0
C454 C 0.17768 0.5275 0.97825 0.0
C455 C 0.21373 0.47835 0.04 0.0
C456 C 0.20169 0.49568 0.01638 0.0
C457 C 0.19115 0.51065 -0.00146 0.0
H458 H 0.14165 0.56197 0.83744 0.0
H459 H 0.1658 0.53972 0.88185 0.0
H460 H 0.22615 0.46859 0.13567 0.0
H461 H 0.20093 0.4922 0.09471 0.0
C462 C 0.55238 0.14759 0.03829 0.0
C463 C 0.52069 0.13758 0.0523 0.0
C464 C 0.57904 0.1614 0.06332 0.0
C465 C 0.73795 0.24114 0.27127 0.0
C466 C 0.76889 0.2532 0.25441 0.0
C467 C 0.71007 0.22851 0.24785 0.0
H468 H 0.49245 0.13557 0.10314 0.0
H469 H 0.53991 0.15982 0.14775 0.0
H470 H 0.79466 0.25992 0.19965 0.0
H471 H 0.74523 0.23494 0.15884 0.0
C472 C 0.51645 0.14265 0.09182 0.0
C473 C 0.54346 0.15646 0.11713 0.0
C474 C 0.77102 0.24935 0.21376 0.0
C475 C 0.74295 0.23615 0.19028 0.0
C476 C 0.57476 0.16577 0.1028 0.0
C477 C 0.60296 0.17997 0.12787 0.0
C478 C 0.62829 0.19202 0.14579 0.0
C479 C 0.71251 0.22662 0.20725 0.0
C480 C 0.68363 0.21507 0.1835 0.0
C481 C 0.65843 0.20518 0.16564 0.0
H482 H 0.5568 0.14469 0.0078 0.0
H483 H 0.60305 0.16859 0.05176 0.0
H484 H 0.73575 0.2454 0.30205 0.0
H485 H 0.68677 0.22155 0.26135 0.0
C486 C 0.4972 0.78525 0.3836 0.0
C487 C 0.49051 0.78227 0.42415 0.0
C488 C 0.48362 0.75729 0.35917 0.0
C489 C 0.35151 0.5279 0.25724 0.0
C490 C 0.36105 0.53217 0.21773 0.0
C491 C 0.36409 0.55518 0.28272 0.0
H492 H 0.46503 0.74766 0.4703 0.0
H493 H 0.44181 0.69922 0.42811 0.0
H494 H 0.38976 0.56879 0.17379 0.0
H495 H 0.41134 0.6152 0.21794 0.0
C496 C 0.47195 0.75066 0.43971 0.0
C497 C 0.4579 0.72299 0.41538 0.0
C498 C 0.38226 0.5642 0.20415 0.0
C499 C 0.39467 0.59104 0.22935 0.0
C500 C 0.46292 0.7261 0.37492 0.0
C501 C 0.44594 0.69717 0.35023 0.0
C502 C 0.43077 0.6717 0.33209 0.0
C503 C 0.38594 0.58683 0.26876 0.0
C504 C 0.40007 0.61544 0.29409 0.0
C505 C 0.41352 0.64114 0.31204 0.0
H506 H 0.5101 0.80929 0.37026 0.0
H507 H 0.48781 0.76022 0.32789 0.0
H508 H 0.33489 0.50368 0.26848 0.0
H509 H 0.357 0.55155 0.31323 0.0
C510 C 0.78584 0.35509 0.41892 0.0
C511 C 0.80743 0.37465 0.38956 0.0
C512 C 0.77064 0.368 0.44257 0.0
C513 C 0.70179 0.51845 0.55835 0.0
C514 C 0.68472 0.50056 0.59157 0.0
C515 C 0.71726 0.50628 0.53373 0.0
H516 H 0.83076 0.42246 0.362 0.0
H517 H 0.80436 0.44463 0.40309 0.0
H518 H 0.67113 0.45681 0.62542 0.0
H519 H 0.69661 0.43523 0.58194 0.0
C520 C 0.81439 0.40712 0.38485 0.0
C521 C 0.7992 0.41975 0.40803 0.0
C522 C 0.68515 0.47169 0.60083 0.0
C523 C 0.69908 0.45893 0.57557 0.0
C524 C 0.77696 0.40019 0.43656 0.0
C525 C 0.76079 0.41375 0.45899 0.0
C526 C 0.74887 0.42777 0.47582 0.0
C527 C 0.71472 0.47579 0.54164 0.0
C528 C 0.72741 0.46089 0.51531 0.0
C529 C 0.73687 0.44576 0.49602 0.0
H530 H 0.77959 0.32971 0.42221 0.0
H531 H 0.75344 0.35271 0.46474 0.0
H532 H 0.7009 0.54013 0.54976 0.0
H533 H 0.72958 0.51967 0.50758 0.0
C534 C 0.41333 0.82044 0.59159 0.0
C535 C 0.40868 0.81697 0.55091 0.0
C536 C 0.38619 0.80671 0.61677 0.0
C537 C 0.15596 0.69617 0.71283 0.0
C538 C 0.15865 0.69878 0.75399 0.0
C539 C 0.18403 0.71031 0.68911 0.0
H540 H 0.3726 0.79423 0.50477 0.0
H541 H 0.32572 0.77028 0.54859 0.0
H542 H 0.1929 0.71866 0.80191 0.0
H543 H 0.24157 0.74428 0.76071 0.0
C544 C 0.37685 0.79785 0.53602 0.0
C545 C 0.35 0.78411 0.561 0.0
C546 C 0.18985 0.7176 0.77044 0.0
C547 C 0.21779 0.73152 0.74688 0.0
C548 C 0.35435 0.78891 0.60144 0.0
C549 C 0.3258 0.77588 0.62643 0.0
C550 C 0.30047 0.76407 0.64472 0.0
C551 C 0.21518 0.72726 0.7062 0.0
C552 C 0.24463 0.73956 0.68272 0.0
C553 C 0.27017 0.75044 0.66496 0.0
H554 H 0.43763 0.83499 0.60372 0.0
H555 H 0.39002 0.81059 0.64802 0.0
H556 H 0.13245 0.68048 0.69923 0.0
H557 H 0.18145 0.70659 0.6577 0.0
loop_
_geom_bond_atom_site_label_1
_geom_bond_atom_site_label_2
_geom_bond_distance
_geom_bond_site_symmetry_2
_ccdc_geom_bond_type
Zn0 O6 1.920 1_556 S
Zn0 O12 1.898 . S
Zn0 O15 1.905 . S
Zn1 O9 1.905 . S
Zn1 O10 1.898 . S
Zn1 O18 1.920 . S
Zn2 O5 2.080 . S
Zn2 O8 2.114 1_554 S
Zn2 O11 2.120 . S
Zn2 O13 2.120 1_554 S
Zn2 O14 2.114 1_554 S
Zn2 O17 2.080 . S
C3 O8 1.166 . S
C3 O9 1.182 1_556 S
C4 O10 1.167 . S
C4 O11 1.299 . S
O5 Zn2 2.080 . S
O5 C19 1.305 . S
O6 Zn0 1.920 1_554 S
O6 C19 1.234 . S
C7 O12 1.167 . S
C7 O13 1.299 . S
O8 Zn2 2.114 1_556 S
O8 C3 1.166 . S
O9 Zn1 1.905 . S
O9 C3 1.182 1_554 S
O10 Zn1 1.898 . S
O10 C4 1.167 . S
O11 Zn2 2.120 . S
O11 C4 1.299 . S
O12 Zn0 1.898 . S
O12 C7 1.167 . S
O13 Zn2 2.120 1_556 S
O13 C7 1.299 . S
O14 Zn2 2.114 1_556 S
O14 C16 1.166 . S
O15 Zn0 1.905 . S
O15 C16 1.182 . S
C16 O14 1.166 . S
C16 O15 1.182 . S
O17 Zn2 2.080 . S
O17 C20 1.305 . S
O18 Zn1 1.920 . S
O18 C20 1.234 . S
C19 O5 1.305 . S
C19 O6 1.234 . S
C20 O17 1.305 . S
C20 O18 1.234 . S
Zn21 O27 1.920 . S
Zn21 O33 1.898 . S
Zn21 O36 1.905 . S
Zn22 O30 1.905 . S
Zn22 O31 1.898 . S
Zn22 O39 1.920 . S
Zn23 O26 2.080 . S
Zn23 O29 2.114 . S
Zn23 O32 2.120 . S
Zn23 O34 2.120 . S
Zn23 O35 2.114 . S
Zn23 O38 2.080 . S
C24 O29 1.166 . S
C24 O30 1.182 . S
C25 O31 1.167 . S
C25 O32 1.299 . S
O26 Zn23 2.080 . S
O26 C40 1.305 . S
O27 Zn21 1.920 . S
O27 C40 1.234 . S
C28 O33 1.167 . S
C28 O34 1.299 . S
O29 Zn23 2.114 . S
O29 C24 1.166 . S
O30 Zn22 1.905 . S
O30 C24 1.182 . S
O31 Zn22 1.898 . S
O31 C25 1.167 . S
O32 Zn23 2.120 . S
O32 C25 1.299 . S
O33 Zn21 1.898 . S
O33 C28 1.167 . S
O34 Zn23 2.120 . S
O34 C28 1.299 . S
O35 Zn23 2.114 . S
O35 C37 1.166 . S
O36 Zn21 1.905 . S
O36 C37 1.182 . S
C37 O35 1.166 . S
C37 O36 1.182 . S
O38 Zn23 2.080 . S
O38 C41 1.305 . S
O39 Zn22 1.920 . S
O39 C41 1.234 . S
C40 O26 1.305 . S
C40 O27 1.234 . S
C41 O38 1.305 . S
C41 O39 1.234 . S
Zn42 O48 1.920 . S
Zn42 O54 1.898 . S
Zn42 O57 1.905 . S
Zn43 O51 1.905 . S
Zn43 O52 1.898 . S
Zn43 O60 1.920 . S
Zn44 O47 2.080 . S
Zn44 O50 2.114 . S
Zn44 O53 2.120 . S
Zn44 O55 2.120 . S
Zn44 O56 2.114 . S
Zn44 O59 2.080 . S
C45 O50 1.166 . S
C45 O51 1.182 . S
C46 O52 1.167 . S
C46 O53 1.299 . S
O47 Zn44 2.080 . S
O47 C61 1.305 . S
O48 Zn42 1.920 . S
O48 C61 1.234 . S
C49 O54 1.167 . S
C49 O55 1.299 . S
O50 Zn44 2.114 . S
O50 C45 1.166 . S
O51 Zn43 1.905 . S
O51 C45 1.182 . S
O52 Zn43 1.898 . S
O52 C46 1.167 . S
O53 Zn44 2.120 . S
O53 C46 1.299 . S
O54 Zn42 1.898 . S
O54 C49 1.167 . S
O55 Zn44 2.120 . S
O55 C49 1.299 . S
O56 Zn44 2.114 . S
O56 C58 1.166 . S
O57 Zn42 1.905 . S
O57 C58 1.182 . S
C58 O56 1.166 . S
C58 O57 1.182 . S
O59 Zn44 2.080 . S
O59 C62 1.305 . S
O60 Zn43 1.920 . S
O60 C62 1.234 . S
C61 O47 1.305 . S
C61 O48 1.234 . S
C62 O59 1.305 . S
C62 O60 1.234 . S
Zn63 O69 1.920 . S
Zn63 O75 1.898 . S
Zn63 O78 1.905 . S
Zn64 O72 1.905 . S
Zn64 O73 1.898 . S
Zn64 O81 1.920 . S
Zn65 O68 2.080 . S
Zn65 O71 2.114 . S
Zn65 O74 2.120 . S
Zn65 O76 2.120 . S
Zn65 O77 2.114 . S
Zn65 O80 2.080 . S
C66 O71 1.166 . S
C66 O72 1.182 . S
C67 O73 1.167 . S
C67 O74 1.299 . S
O68 Zn65 2.080 . S
O68 C82 1.305 . S
O69 Zn63 1.920 . S
O69 C82 1.234 . S
C70 O75 1.167 . S
C70 O76 1.299 . S
O71 Zn65 2.114 . S
O71 C66 1.166 . S
O72 Zn64 1.905 . S
O72 C66 1.182 . S
O73 Zn64 1.898 . S
O73 C67 1.167 . S
O74 Zn65 2.120 . S
O74 C67 1.299 . S
O75 Zn63 1.898 . S
O75 C70 1.167 . S
O76 Zn65 2.120 . S
O76 C70 1.299 . S
O77 Zn65 2.114 . S
O77 C79 1.166 . S
O78 Zn63 1.905 . S
O78 C79 1.182 . S
C79 O77 1.166 . S
C79 O78 1.182 . S
O80 Zn65 2.080 . S
O80 C83 1.305 . S
O81 Zn64 1.920 . S
O81 C83 1.234 . S
C82 O68 1.305 . S
C82 O69 1.234 . S
C83 O80 1.305 . S
C83 O81 1.234 . S
Zn84 O90 1.920 . S
Zn84 O96 1.898 . S
Zn84 O99 1.905 . S
Zn85 O93 1.905 . S
Zn85 O94 1.898 . S
Zn85 O102 1.920 . S
Zn86 O89 2.080 . S
Zn86 O92 2.114 . S
Zn86 O95 2.120 . S
Zn86 O97 2.120 . S
Zn86 O98 2.114 . S
Zn86 O101 2.080 . S
C87 O92 1.166 . S
C87 O93 1.182 . S
C88 O94 1.167 . S
C88 O95 1.299 . S
O89 Zn86 2.080 . S
O89 C103 1.305 . S
O90 Zn84 1.920 . S
O90 C103 1.234 . S
C91 O96 1.167 . S
C91 O97 1.299 . S
O92 Zn86 2.114 . S
O92 C87 1.166 . S
O93 Zn85 1.905 . S
O93 C87 1.182 . S
O94 Zn85 1.898 . S
O94 C88 1.167 . S
O95 Zn86 2.120 . S
O95 C88 1.299 . S
O96 Zn84 1.898 . S
O96 C91 1.167 . S
O97 Zn86 2.120 . S
O97 C91 1.299 . S
O98 Zn86 2.114 . S
O98 C100 1.166 . S
O99 Zn84 1.905 . S
O99 C100 1.182 . S
C100 O98 1.166 . S
C100 O99 1.182 . S
O101 Zn86 2.080 . S
O101 C104 1.305 . S
O102 Zn85 1.920 . S
O102 C104 1.234 . S
C103 O89 1.305 . S
C103 O90 1.234 . S
C104 O101 1.305 . S
C104 O102 1.234 . S
Zn105 O111 1.920 . S
Zn105 O117 1.898 . S
Zn105 O120 1.905 . S
Zn106 O114 1.905 . S
Zn106 O115 1.898 . S
Zn106 O123 1.920 . S
Zn107 O110 2.080 . S
Zn107 O113 2.114 . S
Zn107 O116 2.120 . S
Zn107 O118 2.120 . S
Zn107 O119 2.114 . S
Zn107 O122 2.080 . S
C108 O113 1.166 . S
C108 O114 1.182 . S
C109 O115 1.167 . S
C109 O116 1.299 . S
O110 Zn107 2.080 . S
O110 C124 1.305 . S
O111 Zn105 1.920 . S
O111 C124 1.234 . S
C112 O117 1.167 . S
C112 O118 1.299 . S
O113 Zn107 2.114 . S
O113 C108 1.166 . S
O114 Zn106 1.905 . S
O114 C108 1.182 . S
O115 Zn106 1.898 . S
O115 C109 1.167 . S
O116 Zn107 2.120 . S
O116 C109 1.299 . S
O117 Zn105 1.898 . S
O117 C112 1.167 . S
O118 Zn107 2.120 . S
O118 C112 1.299 . S
O119 Zn107 2.114 . S
O119 C121 1.166 . S
O120 Zn105 1.905 . S
O120 C121 1.182 . S
C121 O119 1.166 . S
C121 O120 1.182 . S
O122 Zn107 2.080 . S
O122 C125 1.305 . S
O123 Zn106 1.920 . S
O123 C125 1.234 . S
C124 O110 1.305 . S
C124 O111 1.234 . S
C125 O122 1.305 . S
C125 O123 1.234 . S
C126 C127 1.332 . S
C126 C128 1.345 1_545 S
C126 H146 0.932 . S
C127 C126 1.332 . S
C127 C136 1.332 . S
C128 C126 1.345 1_565 S
C128 C140 1.334 . S
C128 H147 0.928 . S
C129 C130 1.332 . S
C129 C131 1.345 . S
C129 H148 0.932 . S
C130 C129 1.332 . S
C130 C138 1.332 . S
C131 C129 1.345 . S
C131 C143 1.334 . S
C131 H149 0.928 . S
H132 C136 0.932 . S
H133 C137 0.928 . S
H134 C138 0.932 . S
H135 C139 0.928 . S
C136 C127 1.332 . S
C136 H132 0.932 . S
C136 C137 1.345 1_545 S
C137 H133 0.928 . S
C137 C136 1.345 1_565 S
C137 C140 1.334 . S
C138 C130 1.332 . S
C138 H134 0.932 . S
C138 C139 1.345 . S
C139 H135 0.928 . S
C139 C138 1.345 . S
C139 C143 1.334 . S
C140 C128 1.334 . S
C140 C137 1.334 . S
C140 C141 1.487 . S
C141 C140 1.487 . S
C141 C142 1.185 . S
C142 C141 1.185 . S
C142 C145 1.482 . S
C143 C131 1.334 . S
C143 C139 1.334 . S
C143 C144 1.487 . S
C144 C143 1.487 . S
C144 C145 1.185 . S
C145 C142 1.482 . S
C145 C144 1.185 . S
H146 C126 0.932 . S
H147 C128 0.928 . S
H148 C129 0.932 . S
H149 C131 0.928 . S
C150 C151 1.332 . S
C150 C152 1.345 . S
C150 H170 0.932 . S
C151 C150 1.332 . S
C151 C160 1.332 . S
C152 C150 1.345 . S
C152 C164 1.334 . S
C152 H171 0.928 . S
C153 C154 1.332 . S
C153 C155 1.345 . S
C153 H172 0.932 . S
C154 C153 1.332 . S
C154 C162 1.332 . S
C155 C153 1.345 . S
C155 C167 1.334 . S
C155 H173 0.928 . S
H156 C160 0.932 . S
H157 C161 0.928 . S
H158 C162 0.932 . S
H159 C163 0.928 . S
C160 C151 1.332 . S
C160 H156 0.932 . S
C160 C161 1.345 . S
C161 H157 0.928 . S
C161 C160 1.345 . S
C161 C164 1.334 . S
C162 C154 1.332 . S
C162 H158 0.932 . S
C162 C163 1.345 . S
C163 H159 0.928 . S
C163 C162 1.345 . S
C163 C167 1.334 . S
C164 C152 1.334 . S
C164 C161 1.334 . S
C164 C165 1.487 . S
C165 C164 1.487 . S
C165 C166 1.185 . S
C166 C165 1.185 . S
C166 C169 1.482 . S
C167 C155 1.334 . S
C167 C163 1.334 . S
C167 C168 1.487 . S
C168 C167 1.487 . S
C168 C169 1.185 . S
C169 C166 1.482 . S
C169 C168 1.185 . S
H170 C150 0.932 . S
H171 C152 0.928 . S
H172 C153 0.932 . S
H173 C155 0.928 . S
C174 C175 1.332 . S
C174 C176 1.345 1_655 S
C174 H194 0.932 . S
C175 C174 1.332 . S
C175 C184 1.332 . S
C176 C174 1.345 1_455 S
C176 C188 1.334 . S
C176 H195 0.928 . S
C177 C178 1.332 . S
C177 C179 1.345 . S
C177 H196 0.932 . S
C178 C177 1.332 . S
C178 C186 1.332 . S
C179 C177 1.345 . S
C179 C191 1.334 . S
C179 H197 0.928 . S
H180 C184 0.932 . S
H181 C185 0.928 . S
H182 C186 0.932 . S
H183 C187 0.928 . S
C184 C175 1.332 . S
C184 H180 0.932 . S
C184 C185 1.345 1_655 S
C185 H181 0.928 . S
C185 C184 1.345 1_455 S
C185 C188 1.334 . S
C186 C178 1.332 . S
C186 H182 0.932 . S
C186 C187 1.345 . S
C187 H183 0.928 . S
C187 C186 1.345 . S
C187 C191 1.334 . S
C188 C176 1.334 . S
C188 C185 1.334 . S
C188 C189 1.487 . S
C189 C188 1.487 . S
C189 C190 1.185 . S
C190 C189 1.185 . S
C190 C193 1.482 . S
C191 C179 1.334 . S
C191 C187 1.334 . S
C191 C192 1.487 . S
C192 C191 1.487 . S
C192 C193 1.185 . S
C193 C190 1.482 . S
C193 C192 1.185 . S
H194 C174 0.932 . S
H195 C176 0.928 . S
H196 C177 0.932 . S
H197 C179 0.928 . S
C198 C199 1.332 . S
C198 C200 1.345 . S
C198 H218 0.932 . S
C199 C198 1.332 . S
C199 C208 1.332 . S
C200 C198 1.345 . S
C200 C212 1.334 . S
C200 H219 0.928 . S
C201 C202 1.332 . S
C201 C203 1.345 1_565 S
C201 H220 0.932 . S
C202 C201 1.332 . S
C202 C210 1.332 . S
C203 C201 1.345 1_545 S
C203 C215 1.334 . S
C203 H221 0.928 . S
H204 C208 0.932 . S
H205 C209 0.928 . S
H206 C210 0.932 . S
H207 C211 0.928 . S
C208 C199 1.332 . S
C208 H204 0.932 . S
C208 C209 1.345 . S
C209 H205 0.928 . S
C209 C208 1.345 . S
C209 C212 1.334 . S
C210 C202 1.332 . S
C210 H206 0.932 . S
C210 C211 1.345 1_565 S
C211 H207 0.928 . S
C211 C210 1.345 1_545 S
C211 C215 1.334 . S
C212 C200 1.334 . S
C212 C209 1.334 . S
C212 C213 1.487 . S
C213 C212 1.487 . S
C213 C214 1.185 . S
C214 C213 1.185 . S
C214 C217 1.482 . S
C215 C203 1.334 . S
C215 C211 1.334 . S
C215 C216 1.487 . S
C216 C215 1.487 . S
C216 C217 1.185 . S
C217 C214 1.482 . S
C217 C216 1.185 . S
H218 C198 0.932 . S
H219 C200 0.928 . S
H220 C201 0.932 . S
H221 C203 0.928 . S
C222 C223 1.332 . S
C222 C224 1.345 . S
C222 H242 0.932 . S
C223 C222 1.332 . S
C223 C232 1.332 . S
C224 C222 1.345 . S
C224 C236 1.334 . S
C224 H243 0.928 . S
C225 C226 1.332 . S
C225 C227 1.345 . S
C225 H244 0.932 . S
C226 C225 1.332 . S
C226 C234 1.332 . S
C227 C225 1.345 . S
C227 C239 1.334 . S
C227 H245 0.928 . S
H228 C232 0.932 . S
H229 C233 0.928 . S
H230 C234 0.932 . S
H231 C235 0.928 . S
C232 C223 1.332 . S
C232 H228 0.932 . S
C232 C233 1.345 . S
C233 H229 0.928 . S
C233 C232 1.345 . S
C233 C236 1.334 . S
C234 C226 1.332 . S
C234 H230 0.932 . S
C234 C235 1.345 . S
C235 H231 0.928 . S
C235 C234 1.345 . S
C235 C239 1.334 . S
C236 C224 1.334 . S
C236 C233 1.334 . S
C236 C237 1.487 . S
C237 C236 1.487 . S
C237 C238 1.185 . S
C238 C237 1.185 . S
C238 C241 1.482 . S
C239 C227 1.334 . S
C239 C235 1.334 . S
C239 C240 1.487 . S
C240 C239 1.487 . S
C240 C241 1.185 . S
C241 C238 1.482 . S
C241 C240 1.185 . S
H242 C222 0.932 . S
H243 C224 0.928 . S
H244 C225 0.932 . S
H245 C227 0.928 . S
C246 C247 1.332 . S
C246 C248 1.345 1_455 S
C246 H266 0.932 . S
C247 C246 1.332 . S
C247 C256 1.332 . S
C248 C246 1.345 1_655 S
C248 C260 1.334 . S
C248 H267 0.928 . S
C249 C250 1.332 . S
C249 C251 1.345 . S
C249 H268 0.932 . S
C250 C249 1.332 . S
C250 C258 1.332 . S
C251 C249 1.345 . S
C251 C263 1.334 . S
C251 H269 0.928 . S
H252 C256 0.932 . S
H253 C257 0.928 . S
H254 C258 0.932 . S
H255 C259 0.928 . S
C256 C247 1.332 . S
C256 H252 0.932 . S
C256 C257 1.345 1_455 S
C257 H253 0.928 . S
C257 C256 1.345 1_655 S
C257 C260 1.334 . S
C258 C250 1.332 . S
C258 H254 0.932 . S
C258 C259 1.345 . S
C259 H255 0.928 . S
C259 C258 1.345 . S
C259 C263 1.334 . S
C260 C248 1.334 . S
C260 C257 1.334 . S
C260 C261 1.487 . S
C261 C260 1.487 . S
C261 C262 1.185 . S
C262 C261 1.185 . S
C262 C265 1.482 . S
C263 C251 1.334 . S
C263 C259 1.334 . S
C263 C264 1.487 . S
C264 C263 1.487 . S
C264 C265 1.185 . S
C265 C262 1.482 . S
C265 C264 1.185 . S
H266 C246 0.932 . S
H267 C248 0.928 . S
H268 C249 0.932 . S
H269 C251 0.928 . S
C270 C271 1.332 . S
C270 C272 1.345 . S
C270 H290 0.932 . S
C271 C270 1.332 . S
C271 C280 1.332 . S
C272 C270 1.345 . S
C272 C284 1.334 . S
C272 H291 0.928 1_545 S
C273 C274 1.332 . S
C273 C275 1.345 . S
C273 H292 0.932 . S
C274 C273 1.332 . S
C274 C282 1.332 . S
C275 C273 1.345 . S
C275 C287 1.334 . S
C275 H293 0.928 1_565 S
H276 C280 0.932 . S
H277 C281 0.928 . S
H278 C282 0.932 . S
H279 C283 0.928 . S
C280 C271 1.332 . S
C280 H276 0.932 . S
C280 C281 1.345 . S
C281 H277 0.928 . S
C281 C280 1.345 . S
C281 C284 1.334 . S
C282 C274 1.332 . S
C282 H278 0.932 . S
C282 C283 1.345 . S
C283 H279 0.928 . S
C283 C282 1.345 . S
C283 C287 1.334 . S
C284 C272 1.334 . S
C284 C281 1.334 . S
C284 C285 1.487 . S
C285 C284 1.487 . S
C285 C286 1.185 . S
C286 C285 1.185 . S
C286 C289 1.482 1_545 S
C287 C275 1.334 . S
C287 C283 1.334 . S
C287 C288 1.487 . S
C288 C287 1.487 . S
C288 C289 1.185 . S
C289 C286 1.482 1_565 S
C289 C288 1.185 . S
H290 C270 0.932 . S
H291 C272 0.928 1_565 S
H292 C273 0.932 . S
H293 C275 0.928 1_545 S
C294 C295 1.332 . S
C294 C296 1.345 . S
C294 H314 0.932 . S
C295 C294 1.332 . S
C295 C304 1.332 . S
C296 C294 1.345 . S
C296 C308 1.334 . S
C296 H315 0.928 . S
C297 C298 1.332 . S
C297 C299 1.345 . S
C297 H316 0.932 . S
C298 C297 1.332 . S
C298 C306 1.332 . S
C299 C297 1.345 . S
C299 C311 1.334 . S
C299 H317 0.928 . S
H300 C304 0.932 . S
H301 C305 0.928 . S
H302 C306 0.932 . S
H303 C307 0.928 . S
C304 C295 1.332 . S
C304 H300 0.932 . S
C304 C305 1.345 . S
C305 H301 0.928 . S
C305 C304 1.345 . S
C305 C308 1.334 . S
C306 C298 1.332 . S
C306 H302 0.932 . S
C306 C307 1.345 . S
C307 H303 0.928 . S
C307 C306 1.345 . S
C307 C311 1.334 . S
C308 C296 1.334 . S
C308 C305 1.334 . S
C308 C309 1.487 . S
C309 C308 1.487 . S
C309 C310 1.185 . S
C310 C309 1.185 . S
C310 C313 1.482 . S
C311 C299 1.334 . S
C311 C307 1.334 . S
C311 C312 1.487 . S
C312 C311 1.487 . S
C312 C313 1.185 . S
C313 C310 1.482 . S
C313 C312 1.185 . S
H314 C294 0.932 . S
H315 C296 0.928 . S
H316 C297 0.932 . S
H317 C299 0.928 . S
C318 C319 1.332 . S
C318 C320 1.345 . S
C318 H338 0.932 . S
C319 C318 1.332 . S
C319 C328 1.332 . S
C320 C318 1.345 . S
C320 C332 1.334 . S
C320 H339 0.928 1_455 S
C321 C322 1.332 . S
C321 C323 1.345 . S
C321 H340 0.932 . S
C322 C321 1.332 . S
C322 C330 1.332 . S
C323 C321 1.345 . S
C323 C335 1.334 . S
C323 H341 0.928 1_655 S
H324 C328 0.932 . S
H325 C329 0.928 . S
H326 C330 0.932 . S
H327 C331 0.928 . S
C328 C319 1.332 . S
C328 H324 0.932 . S
C328 C329 1.345 . S
C329 H325 0.928 . S
C329 C328 1.345 . S
C329 C332 1.334 . S
C330 C322 1.332 . S
C330 H326 0.932 . S
C330 C331 1.345 . S
C331 H327 0.928 . S
C331 C330 1.345 . S
C331 C335 1.334 . S
C332 C320 1.334 . S
C332 C329 1.334 . S
C332 C333 1.487 . S
C333 C332 1.487 . S
C333 C334 1.185 . S
C334 C333 1.185 . S
C334 C337 1.482 1_455 S
C335 C323 1.334 . S
C335 C331 1.334 . S
C335 C336 1.487 . S
C336 C335 1.487 . S
C336 C337 1.185 . S
C337 C334 1.482 1_655 S
C337 C336 1.185 . S
H338 C318 0.932 . S
H339 C320 0.928 1_655 S
H340 C321 0.932 . S
H341 C323 0.928 1_455 S
C342 C343 1.332 . S
C342 C344 1.345 . S
C342 H362 0.932 . S
C343 C342 1.332 . S
C343 C352 1.332 . S
C344 C342 1.345 . S
C344 C356 1.334 . S
C344 H363 0.928 . S
C345 C346 1.332 . S
C345 C347 1.345 . S
C345 H364 0.932 . S
C346 C345 1.332 . S
C346 C354 1.332 . S
C347 C345 1.345 . S
C347 C359 1.334 . S
C347 H365 0.928 . S
H348 C352 0.932 . S
H349 C353 0.928 . S
H350 C354 0.932 . S
H351 C355 0.928 . S
C352 C343 1.332 . S
C352 H348 0.932 . S
C352 C353 1.345 . S
C353 H349 0.928 . S
C353 C352 1.345 . S
C353 C356 1.334 . S
C354 C346 1.332 . S
C354 H350 0.932 . S
C354 C355 1.345 . S
C355 H351 0.928 . S
C355 C354 1.345 . S
C355 C359 1.334 . S
C356 C344 1.334 . S
C356 C353 1.334 . S
C356 C357 1.487 . S
C357 C356 1.487 . S
C357 C358 1.185 . S
C358 C357 1.185 . S
C358 C361 1.482 1_565 S
C359 C347 1.334 . S
C359 C355 1.334 . S
C359 C360 1.487 . S
C360 C359 1.487 . S
C360 C361 1.185 . S
C361 C358 1.482 1_545 S
C361 C360 1.185 . S
H362 C342 0.932 . S
H363 C344 0.928 . S
H364 C345 0.932 . S
H365 C347 0.928 . S
C366 C367 1.332 . S
C366 C368 1.345 . S
C366 H386 0.932 . S
C367 C366 1.332 . S
C367 C376 1.332 . S
C368 C366 1.345 . S
C368 C380 1.334 . S
C368 H387 0.928 . S
C369 C370 1.332 . S
C369 C371 1.345 . S
C369 H388 0.932 . S
C370 C369 1.332 . S
C370 C378 1.332 . S
C371 C369 1.345 . S
C371 C383 1.334 . S
C371 H389 0.928 . S
H372 C376 0.932 . S
H373 C377 0.928 . S
H374 C378 0.932 . S
H375 C379 0.928 . S
C376 C367 1.332 . S
C376 H372 0.932 . S
C376 C377 1.345 . S
C377 H373 0.928 . S
C377 C376 1.345 . S
C377 C380 1.334 . S
C378 C370 1.332 . S
C378 H374 0.932 . S
C378 C379 1.345 . S
C379 H375 0.928 . S
C379 C378 1.345 . S
C379 C383 1.334 . S
C380 C368 1.334 . S
C380 C377 1.334 . S
C380 C381 1.487 1_554 S
C381 C380 1.487 1_556 S
C381 C382 1.185 . S
C382 C381 1.185 . S
C382 C385 1.482 . S
C383 C371 1.334 . S
C383 C379 1.334 . S
C383 C384 1.487 . S
C384 C383 1.487 . S
C384 C385 1.185 . S
C385 C382 1.482 . S
C385 C384 1.185 . S
H386 C366 0.932 . S
H387 C368 0.928 . S
H388 C369 0.932 . S
H389 C371 0.928 . S
C390 C391 1.332 . S
C390 C392 1.345 . S
C390 H410 0.932 . S
C391 C390 1.332 . S
C391 C400 1.332 . S
C392 C390 1.345 . S
C392 C404 1.334 1_556 S
C392 H411 0.928 . S
C393 C394 1.332 . S
C393 C395 1.345 . S
C393 H412 0.932 . S
C394 C393 1.332 . S
C394 C402 1.332 . S
C395 C393 1.345 . S
C395 C407 1.334 . S
C395 H413 0.928 . S
H396 C400 0.932 . S
H397 C401 0.928 . S
H398 C402 0.932 . S
H399 C403 0.928 . S
C400 C391 1.332 . S
C400 H396 0.932 . S
C400 C401 1.345 1_556 S
C401 H397 0.928 . S
C401 C400 1.345 1_554 S
C401 C404 1.334 . S
C402 C394 1.332 . S
C402 H398 0.932 . S
C402 C403 1.345 . S
C403 H399 0.928 . S
C403 C402 1.345 . S
C403 C407 1.334 . S
C404 C392 1.334 1_554 S
C404 C401 1.334 . S
C404 C405 1.487 . S
C405 C404 1.487 . S
C405 C406 1.185 . S
C406 C405 1.185 . S
C406 C409 1.482 1_455 S
C407 C395 1.334 . S
C407 C403 1.334 . S
C407 C408 1.487 . S
C408 C407 1.487 . S
C408 C409 1.185 . S
C409 C406 1.482 1_655 S
C409 C408 1.185 . S
H410 C390 0.932 . S
H411 C392 0.928 . S
H412 C393 0.932 . S
H413 C395 0.928 . S
C414 C415 1.332 . S
C414 C416 1.345 . S
C414 H434 0.932 . S
C415 C414 1.332 . S
C415 C424 1.332 . S
C416 C414 1.345 . S
C416 C428 1.334 . S
C416 H435 0.928 . S
C417 C418 1.332 . S
C417 C419 1.345 . S
C417 H436 0.932 . S
C418 C417 1.332 . S
C418 C426 1.332 . S
C419 C417 1.345 . S
C419 C431 1.334 . S
C419 H437 0.928 . S
H420 C424 0.932 . S
H421 C425 0.928 . S
H422 C426 0.932 . S
H423 C427 0.928 . S
C424 C415 1.332 . S
C424 H420 0.932 . S
C424 C425 1.345 . S
C425 H421 0.928 . S
C425 C424 1.345 . S
C425 C428 1.334 . S
C426 C418 1.332 . S
C426 H422 0.932 . S
C426 C427 1.345 . S
C427 H423 0.928 . S
C427 C426 1.345 . S
C427 C431 1.334 . S
C428 C416 1.334 . S
C428 C425 1.334 . S
C428 C429 1.487 . S
C429 C428 1.487 . S
C429 C430 1.185 . S
C430 C429 1.185 . S
C430 C433 1.482 . S
C431 C419 1.334 . S
C431 C427 1.334 . S
C431 C432 1.487 . S
C432 C431 1.487 . S
C432 C433 1.185 . S
C433 C430 1.482 . S
C433 C432 1.185 . S
H434 C414 0.932 . S
H435 C416 0.928 . S
H436 C417 0.932 . S
H437 C419 0.928 . S
C438 C439 1.332 . S
C438 C440 1.345 . S
C438 H458 0.932 . S
C439 C438 1.332 . S
C439 C448 1.332 . S
C440 C438 1.345 . S
C440 C452 1.334 . S
C440 H459 0.928 . S
C441 C442 1.332 . S
C441 C443 1.345 . S
C441 H460 0.932 . S
C442 C441 1.332 . S
C442 C450 1.332 . S
C443 C441 1.345 . S
C443 C455 1.334 . S
C443 H461 0.928 . S
H444 C448 0.932 . S
H445 C449 0.928 . S
H446 C450 0.932 . S
H447 C451 0.928 . S
C448 C439 1.332 . S
C448 H444 0.932 . S
C448 C449 1.345 . S
C449 H445 0.928 . S
C449 C448 1.345 . S
C449 C452 1.334 . S
C450 C442 1.332 . S
C450 H446 0.932 . S
C450 C451 1.345 . S
C451 H447 0.928 . S
C451 C450 1.345 . S
C451 C455 1.334 . S
C452 C440 1.334 . S
C452 C449 1.334 . S
C452 C453 1.487 . S
C453 C452 1.487 . S
C453 C454 1.185 . S
C454 C453 1.185 . S
C454 C457 1.482 1_556 S
C455 C443 1.334 . S
C455 C451 1.334 . S
C455 C456 1.487 . S
C456 C455 1.487 . S
C456 C457 1.185 . S
C457 C454 1.482 1_554 S
C457 C456 1.185 . S
H458 C438 0.932 . S
H459 C440 0.928 . S
H460 C441 0.932 . S
H461 C443 0.928 . S
C462 C463 1.332 . S
C462 C464 1.345 . S
C462 H482 0.932 . S
C463 C462 1.332 . S
C463 C472 1.332 . S
C464 C462 1.345 . S
C464 C476 1.334 . S
C464 H483 0.928 . S
C465 C466 1.332 . S
C465 C467 1.345 . S
C465 H484 0.932 . S
C466 C465 1.332 . S
C466 C474 1.332 . S
C467 C465 1.345 . S
C467 C479 1.334 . S
C467 H485 0.928 . S
H468 C472 0.932 . S
H469 C473 0.928 . S
H470 C474 0.932 . S
H471 C475 0.928 . S
C472 C463 1.332 . S
C472 H468 0.932 . S
C472 C473 1.345 . S
C473 H469 0.928 . S
C473 C472 1.345 . S
C473 C476 1.334 . S
C474 C466 1.332 . S
C474 H470 0.932 . S
C474 C475 1.345 . S
C475 H471 0.928 . S
C475 C474 1.345 . S
C475 C479 1.334 . S
C476 C464 1.334 . S
C476 C473 1.334 . S
C476 C477 1.487 . S
C477 C476 1.487 . S
C477 C478 1.185 . S
C478 C477 1.185 . S
C478 C481 1.482 . S
C479 C467 1.334 . S
C479 C475 1.334 . S
C479 C480 1.487 . S
C480 C479 1.487 . S
C480 C481 1.185 . S
C481 C478 1.482 . S
C481 C480 1.185 . S
H482 C462 0.932 . S
H483 C464 0.928 . S
H484 C465 0.932 . S
H485 C467 0.928 . S
C486 C487 1.332 . S
C486 C488 1.345 . S
C486 H506 0.932 . S
C487 C486 1.332 . S
C487 C496 1.332 . S
C488 C486 1.345 . S
C488 C500 1.334 . S
C488 H507 0.928 . S
C489 C490 1.332 . S
C489 C491 1.345 . S
C489 H508 0.932 . S
C490 C489 1.332 . S
C490 C498 1.332 . S
C491 C489 1.345 . S
C491 C503 1.334 . S
C491 H509 0.928 . S
H492 C496 0.932 . S
H493 C497 0.928 . S
H494 C498 0.932 . S
H495 C499 0.928 . S
C496 C487 1.332 . S
C496 H492 0.932 . S
C496 C497 1.345 . S
C497 H493 0.928 . S
C497 C496 1.345 . S
C497 C500 1.334 . S
C498 C490 1.332 . S
C498 H494 0.932 . S
C498 C499 1.345 . S
C499 H495 0.928 . S
C499 C498 1.345 . S
C499 C503 1.334 . S
C500 C488 1.334 . S
C500 C497 1.334 . S
C500 C501 1.487 . S
C501 C500 1.487 . S
C501 C502 1.185 . S
C502 C501 1.185 . S
C502 C505 1.482 . S
C503 C491 1.334 . S
C503 C499 1.334 . S
C503 C504 1.487 . S
C504 C503 1.487 . S
C504 C505 1.185 . S
C505 C502 1.482 . S
C505 C504 1.185 . S
H506 C486 0.932 . S
H507 C488 0.928 . S
H508 C489 0.932 . S
H509 C491 0.928 . S
C510 C511 1.332 . S
C510 C512 1.345 . S
C510 H530 0.932 . S
C511 C510 1.332 . S
C511 C520 1.332 . S
C512 C510 1.345 . S
C512 C524 1.334 . S
C512 H531 0.928 . S
C513 C514 1.332 . S
C513 C515 1.345 . S
C513 H532 0.932 . S
C514 C513 1.332 . S
C514 C522 1.332 . S
C515 C513 1.345 . S
C515 C527 1.334 . S
C515 H533 0.928 . S
H516 C520 0.932 . S
H517 C521 0.928 . S
H518 C522 0.932 . S
H519 C523 0.928 . S
C520 C511 1.332 . S
C520 H516 0.932 . S
C520 C521 1.345 . S
C521 H517 0.928 . S
C521 C520 1.345 . S
C521 C524 1.334 . S
C522 C514 1.332 . S
C522 H518 0.932 . S
C522 C523 1.345 . S
C523 H519 0.928 . S
C523 C522 1.345 . S
C523 C527 1.334 . S
C524 C512 1.334 . S
C524 C521 1.334 . S
C524 C525 1.487 . S
C525 C524 1.487 . S
C525 C526 1.185 . S
C526 C525 1.185 . S
C526 C529 1.482 . S
C527 C515 1.334 . S
C527 C523 1.334 . S
C527 C528 1.487 . S
C528 C527 1.487 . S
C528 C529 1.185 . S
C529 C526 1.482 . S
C529 C528 1.185 . S
H530 C510 0.932 . S
H531 C512 0.928 . S
H532 C513 0.932 . S
H533 C515 0.928 . S
C534 C535 1.332 . S
C534 C536 1.345 . S
C534 H554 0.932 . S
C535 C534 1.332 . S
C535 C544 1.332 . S
C536 C534 1.345 . S
C536 C548 1.334 . S
C536 H555 0.928 . S
C537 C538 1.332 . S
C537 C539 1.345 . S
C537 H556 0.932 . S
C538 C537 1.332 . S
C538 C546 1.332 . S
C539 C537 1.345 . S
C539 C551 1.334 . S
C539 H557 0.928 . S
H540 C544 0.932 . S
H541 C545 0.928 . S
H542 C546 0.932 . S
H543 C547 0.928 . S
C544 C535 1.332 . S
C544 H540 0.932 . S
C544 C545 1.345 . S
C545 H541 0.928 . S
C545 C544 1.345 . S
C545 C548 1.334 . S
C546 C538 1.332 . S
C546 H542 0.932 . S
C546 C547 1.345 . S
C547 H543 0.928 . S
C547 C546 1.345 . S
C547 C551 1.334 . S
C548 C536 1.334 . S
C548 C545 1.334 . S
C548 C549 1.487 . S
C549 C548 1.487 . S
C549 C550 1.185 . S
C550 C549 1.185 . S
C550 C553 1.482 . S
C551 C539 1.334 . S
C551 C547 1.334 . S
C551 C552 1.487 . S
C552 C551 1.487 . S
C552 C553 1.185 . S
C553 C550 1.482 . S
C553 C552 1.185 . S
H554 C534 0.932 . S
H555 C536 0.928 . S
H556 C537 0.932 . S
H557 C539 0.928 . S
C127 C3 0.808 . S
C130 C109 0.822 . S
C151 C24 0.808 . S
C154 C4 0.822 . S
C175 C45 0.808 . S
C178 C25 0.822 . S
C199 C46 0.822 . S
C202 C79 0.808 . S
C223 C70 0.822 . S
C226 C87 0.808 . S
C247 C108 0.808 . S
C250 C88 0.822 . S
C271 C20 1.447 . S
C274 C67 1.350 . S
C295 C41 1.447 . S
C298 C91 1.350 . S
C319 C112 1.350 . S
C322 C62 1.447 . S
C343 C82 1.447 . S
C346 C7 1.350 . S
C367 C28 1.350 . S
C370 C104 1.447 . S
C391 C125 1.447 . S
C394 C49 1.350 . S
C415 C16 1.216 . S
C418 C103 1.322 . S
C439 C124 1.322 . S
C442 C37 1.216 . S
C463 C19 1.322 . S
C466 C58 1.216 . S
C487 C66 1.216 . S
C490 C40 1.322 . S
C511 C61 1.322 . S
C514 C100 1.216 . S
C535 C83 1.322 . S
C538 C121 1.216 . S
