# Generated by pormake.
# Topology cdl, (4)-cn, num edge types: 1
# Building blocks:
#     Node 0, Type 0, BuildingBlock: KOZSID_clean_sbu_0, # of connection points: 4
#     Node 1, Type 0, BuildingBlock: KOZSID_clean_sbu_0, # of connection points: 4
#     Node 2, Type 0, BuildingBlock: KOZSID_clean_sbu_0, # of connection points: 4
#     Node 3, Type 0, BuildingBlock: KOZSID_clean_sbu_0, # of connection points: 4
#     Edge 4, Type (0, 0), BuildingBlock: XUDNAN_clean_linker_2, # of connection points: 2
#     Edge 5, Type (0, 0), BuildingBlock: XUDNAN_clean_linker_2, # of connection points: 2
#     Edge 6, Type (0, 0), BuildingBlock: XUDNAN_clean_linker_2, # of connection points: 2
#     Edge 7, Type (0, 0), BuildingBlock: XUDNAN_clean_linker_2, # of connection points: 2
#     Edge 8, Type (0, 0), BuildingBlock: XUDNAN_clean_linker_2, # of connection points: 2
#     Edge 9, Type (0, 0), BuildingBlock: XUDNAN_clean_linker_2, # of connection points: 2
#     Edge 10, Type (0, 0), BuildingBlock: XUDNAN_clean_linker_2, # of connection points: 2
#     Edge 11, Type (0, 0), BuildingBlock: XUDNAN_clean_linker_2, # of connection points: 2
# Relax obj value: 0.000
# Max RMSD: 0.025
# Mean RMSD: 0.024
data_MOF--net-cdl--node1-KOZSID_clean_sbu_0--edge1-XUDNAN_clean_linker_2
_symmetry_space_group_name_H-M    P1
_symmetry_Int_Tables_number       1
_symmetry_cell_setting            triclinic
loop_
_symmetry_equiv_pos_as_xyz
'x, y, z'
_cell_length_a     16.688301
_cell_length_b     19.534137
_cell_length_c     72.162534
_cell_angle_alpha  107.07844
_cell_angle_beta   105.78056
_cell_angle_gamma 84.977497
loop_
_atom_site_label
_atom_site_type_symbol
_atom_site_fract_x
_atom_site_fract_y
_atom_site_fract_z
_atom_type_partial_charge
C0 C 0.15697 0.15261 0.16673 0.0
C1 C 0.23119 0.16139 0.18169 0.0
C2 C 0.29399 0.14945 0.17233 0.0
C3 C 0.25496 0.13463 0.15228 0.0
N4 N 0.17077 0.13688 0.14823 0.0
Co5 Co 0.08988 0.11933 0.12105 0.0
N6 N 0.18264 0.10466 0.10743 0.0
C7 C 0.26542 0.10498 0.11613 0.0
C8 C 0.31365 0.09799 0.10302 0.0
C9 C 0.25844 0.09483 0.08495 0.0
C10 C 0.17957 0.10026 0.08815 0.0
N11 N 0.00938 0.10136 0.09384 0.0
C12 C 0.02312 0.09654 0.07581 0.0
C13 C 0.94933 0.0884 0.06075 0.0
C14 C 0.88669 0.08918 0.06964 0.0
C15 C 0.92554 0.09797 0.08952 0.0
N16 N 0.99705 0.13518 0.13464 0.0
C17 C 0.91445 0.13066 0.12563 0.0
C18 C 0.86548 0.14169 0.1387 0.0
C19 C 0.9199 0.15402 0.15721 0.0
C20 C 0.99946 0.15034 0.15438 0.0
N21 N 0.08884 0.22332 0.12294 0.0
C22 C 0.09276 0.36417 0.11996 0.0
C23 C 0.01708 0.32896 0.11506 0.0
C24 C 0.01653 0.25888 0.11664 0.0
C25 C 0.16549 0.32929 0.12759 0.0
C26 C 0.16211 0.26 0.1291 0.0
N27 N 0.09123 1.01446 0.11895 0.0
C28 C 0.02013 0.90233 0.11182 0.0
C29 C 0.09587 0.86561 0.11562 0.0
C30 C 0.16886 0.90518 0.12154 0.0
C31 C 0.16517 0.97839 0.12314 0.0
C32 C 0.01924 0.97596 0.11346 0.0
H33 H 0.22342 1.0043 0.12779 0.0
H34 H 0.95947 1.00021 0.11007 0.0
H35 H 0.95731 0.23352 0.11212 0.0
H36 H 0.22008 0.23631 0.13473 0.0
C37 C 0.29569 0.11959 0.13695 0.0
C38 C 0.07514 0.15981 0.17087 0.0
C39 C 0.10393 0.10548 0.07274 0.0
C40 C 0.88483 0.1129 0.10479 0.0
H41 H 0.23934 0.17508 0.19774 0.0
H42 H 0.36027 0.1516 0.17931 0.0
H43 H 0.38092 0.0986 0.1064 0.0
H44 H 0.27425 0.0915 0.07112 0.0
H45 H 0.94102 0.08522 0.04513 0.0
H46 H 0.82043 0.08766 0.06264 0.0
H47 H 0.79824 0.13965 0.13516 0.0
H48 H 0.90269 0.16346 0.17117 0.0
H49 H 0.95899 0.35401 0.10921 0.0
H50 H 0.22546 0.35494 0.13206 0.0
H51 H 0.96171 0.87413 0.1071 0.0
H52 H 0.22928 0.87981 0.12505 0.0
C53 C 0.2402 0.16611 0.65322 0.0
C54 C 0.28153 0.23058 0.66305 0.0
C55 C 0.22182 0.2819 0.66613 0.0
C56 C 0.14776 0.246 0.65813 0.0
N57 N 0.15654 0.17465 0.65025 0.0
Co58 Co 0.06502 0.10249 0.63688 0.0
N59 N 0.97705 0.17876 0.64027 0.0
C60 C 0.98879 0.25028 0.64779 0.0
C61 C 0.91677 0.2886 0.64921 0.0
C62 C 0.8556 0.2385 0.64263 0.0
C63 C 0.89409 0.17228 0.63755 0.0
N64 N 0.97347 0.03029 0.62404 0.0
C65 C 0.89129 0.03815 0.62334 0.0
C66 C 0.84942 0.97366 0.61439 0.0
C67 C 0.90776 0.92268 0.60975 0.0
C68 C 0.98149 0.95894 0.61611 0.0
N69 N 0.15272 0.02625 0.6331 0.0
C70 C 0.14009 0.95546 0.6239 0.0
C71 C 0.21192 0.9168 0.62264 0.0
C72 C 0.27425 0.96585 0.63129 0.0
C73 C 0.23666 0.03191 0.63744 0.0
N74 N 0.06774 0.08955 0.66334 0.0
C75 C 0.05806 0.06981 0.69994 0.0
C76 C 0.06926 1.01163 0.68401 0.0
C77 C 0.07343 0.02255 0.66601 0.0
C78 C 0.05438 0.13833 0.69732 0.0
C79 C 0.06011 0.14694 0.67916 0.0
N80 N 0.06264 0.11535 0.61033 0.0
C81 C 0.06825 0.0649 0.57572 0.0
C82 C 0.08434 0.13206 0.57442 0.0
C83 C 0.08393 0.19119 0.59095 0.0
C84 C 0.07257 0.18178 0.6085 0.0
C85 C 0.05735 0.05787 0.59364 0.0
H86 H 0.07411 0.22905 0.62053 0.0
H87 H 0.04693 1.00509 0.59373 0.0
H88 H 0.08026 0.97583 0.65437 0.0
H89 H 0.05671 0.20049 0.67814 0.0
C90 C 0.069 0.27844 0.65629 0.0
C91 C 0.28305 0.09871 0.64652 0.0
C92 C 0.85139 0.10451 0.63211 0.0
C93 C 0.05988 0.927 0.61642 0.0
H94 H 0.34792 0.23973 0.6672 0.0
H95 H 0.23116 0.3389 0.67289 0.0
H96 H 0.91025 0.34575 0.65549 0.0
H97 H 0.79079 0.24932 0.64251 0.0
H98 H 0.784 0.9643 0.61211 0.0
H99 H 0.89818 0.86558 0.60332 0.0
H100 H 0.21813 0.85989 0.61593 0.0
H101 H 0.33985 0.95441 0.63258 0.0
H102 H 0.07477 0.9575 0.68532 0.0
H103 H 0.04512 0.18538 0.70903 0.0
H104 H 0.06726 0.01743 0.56327 0.0
H105 H 0.09352 0.24474 0.59048 0.0
C106 C 0.16649 0.15304 0.93344 0.0
C107 C 0.24662 0.15803 0.94597 0.0
C108 C 0.29978 0.14678 0.93396 0.0
C109 C 0.2494 0.13538 0.91487 0.0
N110 N 0.16705 0.13933 0.91392 0.0
Co111 Co 0.07208 0.12319 0.88905 0.0
N112 N 0.15064 0.10171 0.87128 0.0
C113 C 0.2349 0.10084 0.8772 0.0
C114 C 0.27207 0.0835 0.86166 0.0
C115 C 0.2079 0.07315 0.84477 0.0
C116 C 0.13485 0.08541 0.85101 0.0
N117 N 0.9773 0.10692 0.86419 0.0
C118 C 0.97774 0.09131 0.8446 0.0
C119 C 0.89744 0.08795 0.83218 0.0
C120 C 0.84451 0.10116 0.84429 0.0
C121 C 0.89508 0.11235 0.86333 0.0
N122 N 0.99378 0.1446 0.90682 0.0
C123 C 0.90967 0.14659 0.90099 0.0
C124 C 0.8726 0.16128 0.91651 0.0
C125 C 0.93686 0.16846 0.93332 0.0
C126 C 0.00965 0.15744 0.927 0.0
N127 N 0.07275 0.22681 0.89025 0.0
C128 C 0.07473 0.36793 0.88712 0.0
C129 C 1.00013 0.33634 0.88548 0.0
C130 C 1.00054 0.26622 0.88707 0.0
C131 C 0.1484 0.32916 0.89152 0.0
C132 C 0.14607 0.25986 0.89313 0.0
N133 N 0.07147 0.01956 0.88766 0.0
C134 C 0.99807 0.91069 0.88259 0.0
C135 C 0.07244 0.8711 0.88411 0.0
C136 C 0.14619 0.90779 0.88809 0.0
C137 C 0.14436 0.981 0.88986 0.0
C138 C 0.99893 0.98428 0.8843 0.0
H139 H 0.20295 1.00503 0.89287 0.0
H140 H 0.94017 1.01143 0.88264 0.0
H141 H 0.94153 0.2445 0.88522 0.0
H142 H 0.20457 0.23363 0.89628 0.0
C143 C 0.2775 0.1171 0.89749 0.0
C144 C 0.09209 0.15865 0.94072 0.0
C145 C 0.05223 0.08129 0.8371 0.0
C146 C 0.86725 0.13093 0.88074 0.0
H147 H 0.26488 0.16734 0.96208 0.0
H148 H 0.36714 0.14527 0.93854 0.0
H149 H 0.33801 0.07911 0.86252 0.0
H150 H 0.21438 0.05842 0.82957 0.0
H151 H 0.87875 0.07817 0.81606 0.0
H152 H 0.77718 0.10372 0.83977 0.0
H153 H 0.80667 0.16496 0.91567 0.0
H154 H 0.93085 0.17965 0.94849 0.0
H155 H 0.94138 0.36437 0.8822 0.0
H156 H 0.20809 0.35186 0.89345 0.0
H157 H 0.93923 0.8847 0.8795 0.0
H158 H 0.20568 0.88 0.88981 0.0
C159 C 0.26523 0.23173 0.3861 0.0
C160 C 0.3072 0.29637 0.39412 0.0
C161 C 0.24948 0.34797 0.39873 0.0
C162 C 0.17606 0.31191 0.39333 0.0
N163 N 0.18372 0.24016 0.38592 0.0
Co164 Co 0.0929 0.16708 0.37536 0.0
N165 N 0.00559 0.24373 0.37889 0.0
C166 C 0.01779 0.31533 0.38628 0.0
C167 C 0.94582 0.3544 0.38693 0.0
C168 C 0.88384 0.30496 0.37953 0.0
C169 C 0.92177 0.23824 0.37471 0.0
N170 N 1.00224 0.09394 0.36487 0.0
C171 C 0.91885 0.10267 0.36221 0.0
C172 C 0.87792 0.03742 0.35448 0.0
C173 C 0.93767 0.98556 0.35238 0.0
C174 C 0.01126 0.02188 0.35883 0.0
N175 N 0.18035 0.09075 0.37161 0.0
C176 C 0.16912 0.01907 0.36511 0.0
C177 C 0.24041 0.98057 0.363 0.0
C178 C 0.30054 0.03068 0.36805 0.0
C179 C 0.26217 0.09704 0.37303 0.0
N180 N 0.10494 0.16114 0.40315 0.0
C181 C 0.12363 0.15494 0.44274 0.0
C182 C 0.11604 0.09238 0.42685 0.0
C183 C 0.10739 0.09666 0.40733 0.0
C184 C 0.12017 0.22035 0.43844 0.0
C185 C 0.11043 0.2222 0.4188 0.0
N186 N 0.08102 0.17323 0.34776 0.0
C187 C 0.06369 0.11747 0.31219 0.0
C188 C 0.06613 0.18415 0.30877 0.0
C189 C 0.07712 0.24486 0.32533 0.0
C190 C 0.0835 0.23833 0.3444 0.0
C191 C 0.07162 0.11323 0.33167 0.0
H192 H 0.09087 0.28688 0.35623 0.0
H193 H 0.06994 0.06099 0.33341 0.0
H194 H 0.10311 0.04708 0.39594 0.0
H195 H 0.10742 0.27397 0.41678 0.0
C196 C 0.09775 0.34432 0.3929 0.0
C197 C 0.30408 0.16454 0.3776 0.0
C198 C 0.8757 0.17127 0.36678 0.0
C199 C 0.08967 0.98995 0.35926 0.0
H200 H 0.3722 0.30538 0.39579 0.0
H201 H 0.25913 0.40523 0.40446 0.0
H202 H 0.93927 0.41194 0.39233 0.0
H203 H 0.81819 0.31672 0.37805 0.0
H204 H 0.81167 0.02824 0.35075 0.0
H205 H 0.92854 0.92822 0.34678 0.0
H206 H 0.24706 0.92305 0.35756 0.0
H207 H 0.36463 0.01964 0.36748 0.0
H208 H 0.1185 0.04036 0.4295 0.0
H209 H 0.12422 0.27038 0.45022 0.0
H210 H 0.05465 0.06869 0.29991 0.0
H211 H 0.08169 0.29771 0.32375 0.0
H212 H 1.00006 0.48876 0.12982 0.0
H213 H 0.19786 0.39829 0.10119 0.0
H214 H 0.21468 0.51442 0.09577 0.0
H215 H 0.91102 0.6064 0.09764 0.0
H216 H 0.88909 0.6786 0.11789 0.0
H217 H 0.8887 0.58725 0.11868 0.0
H218 H 0.9972 0.61912 0.1532 0.0
H219 H 0.99796 0.71047 0.1525 0.0
H220 H 0.09391 0.65992 0.15575 0.0
H221 H 0.21504 0.64011 0.09451 0.0
H222 H 0.19965 0.76924 0.09766 0.0
H223 H 1.00246 0.78263 0.12736 0.0
C224 C 0.04609 0.49336 0.12219 0.0
C225 C 0.098 0.43434 0.11602 0.0
C226 C 0.15814 0.4428 0.10628 0.0
C227 C 0.16787 0.50851 0.10302 0.0
C228 C 0.11696 0.56583 0.10956 0.0
C229 C 0.05713 0.55922 0.11892 0.0
C230 C 0.01308 0.63063 0.1251 0.0
C231 C 0.91994 0.62538 0.11417 0.0
C232 C 0.02636 0.65655 0.148 0.0
C233 C 0.05812 0.67824 0.1179 0.0
C234 C 0.11747 0.63933 0.1089 0.0
C235 C 0.16868 0.67114 0.1015 0.0
C236 C 0.15976 0.74477 0.10347 0.0
C237 C 0.10023 0.78653 0.11286 0.0
C238 C 0.04802 0.75226 0.11995 0.0
H239 H 0.36137 0.14028 0.62298 0.0
H240 H 0.40762 0.0551 0.67399 0.0
H241 H 0.55913 0.04977 0.67639 0.0
H242 H 0.51271 0.03304 0.6003 0.0
H243 H 0.54327 0.10264 0.59191 0.0
H244 H 0.43945 0.1024 0.59478 0.0
H245 H 0.45992 0.23124 0.61872 0.0
H246 H 0.56382 0.23201 0.6159 0.0
H247 H 0.54733 0.25011 0.64056 0.0
H248 H 0.70456 0.05065 0.67251 0.0
H249 H 0.83434 0.05859 0.66281 0.0
H250 H 0.69353 0.14257 0.61417 0.0
C251 C 0.40389 0.12111 0.63471 0.0
C252 C 0.37392 0.0982 0.64837 0.0
C253 C 0.43031 0.07292 0.66349 0.0
C254 C 0.51606 0.06976 0.66493 0.0
C255 C 0.54398 0.09222 0.65112 0.0
C256 C 0.48964 0.11756 0.63633 0.0
C257 C 0.53553 0.13701 0.62313 0.0
C258 C 0.50597 0.09101 0.60124 0.0
C259 C 0.52608 0.21737 0.62468 0.0
C260 C 0.6241 0.11817 0.6327 0.0
C261 C 0.62765 0.09262 0.64887 0.0
C262 C 0.70256 0.07088 0.65995 0.0
C263 C 0.77571 0.07545 0.65436 0.0
C264 C 0.77324 0.1016 0.63791 0.0
C265 C 0.6966 0.12304 0.62692 0.0
H266 H 0.99269 0.49511 0.90112 0.0
H267 H 0.16172 0.40043 0.86399 0.0
H268 H 0.17297 0.51672 0.8581 0.0
H269 H 0.88591 0.61716 0.87162 0.0
H270 H 0.87773 0.68913 0.8934 0.0
H271 H 0.87867 0.59747 0.89401 0.0
H272 H 0.00378 0.62465 0.92547 0.0
H273 H 0.00324 0.7163 0.92495 0.0
H274 H 0.09676 0.66281 0.92459 0.0
H275 H 0.17168 0.64262 0.85715 0.0
H276 H 0.15884 0.77254 0.86144 0.0
H277 H 0.99103 0.79008 0.89925 0.0
C278 C 0.03117 0.49883 0.89155 0.0
C279 C 0.07677 0.4385 0.88311 0.0
C280 C 0.12714 0.44587 0.87085 0.0
C281 C 0.13354 0.51168 0.8673 0.0
C282 C 0.08909 0.57019 0.87606 0.0
C283 C 0.03873 0.56473 0.88791 0.0
C284 C 1.00039 0.63725 0.89607 0.0
C285 C 0.905 0.6351 0.88831 0.0
C286 C 0.02769 0.66168 0.91914 0.0
C287 C 0.03795 0.68414 0.88712 0.0
C288 C 0.08851 0.64389 0.87555 0.0
C289 C 0.13211 0.67471 0.86614 0.0
C290 C 0.12475 0.74873 0.86876 0.0
C291 C 0.07435 0.79182 0.88076 0.0
C292 C 0.02945 0.75861 0.88984 0.0
H293 H 0.46038 0.13029 0.39691 0.0
H294 H 0.32298 0.20388 0.34603 0.0
H295 H 0.45462 0.21149 0.33705 0.0
H296 H 0.63642 0.24269 0.41084 0.0
H297 H 0.71133 0.17655 0.4179 0.0
H298 H 0.60621 0.17434 0.41976 0.0
H299 H 0.59187 0.04319 0.39715 0.0
H300 H 0.69711 0.04494 0.39528 0.0
H301 H 0.61275 0.02187 0.37284 0.0
H302 H 0.60135 0.21371 0.33427 0.0
H303 H 0.7538 0.21025 0.33789 0.0
H304 H 0.79489 0.13553 0.39063 0.0
C305 C 0.45851 0.14726 0.38379 0.0
C306 C 0.38255 0.16594 0.37196 0.0
C307 C 0.3813 0.18897 0.35507 0.0
C308 C 0.45543 0.1934 0.34991 0.0
C309 C 0.52979 0.17465 0.36188 0.0
C310 C 0.5319 0.15191 0.37845 0.0
C311 C 0.62009 0.13631 0.38903 0.0
C312 C 0.64495 0.18542 0.41066 0.0
C313 C 0.63107 0.05685 0.38854 0.0
C314 C 0.66736 0.15451 0.37597 0.0
C315 C 0.61416 0.17626 0.36033 0.0
C316 C 0.6436 0.19658 0.34641 0.0
C317 C 0.72978 0.19459 0.34855 0.0
C318 C 0.78478 0.17268 0.36449 0.0
C319 C 0.75334 0.15231 0.37832 0.0
H320 H 0.06336 0.05501 0.95647 0.0
H321 H 0.13811 0.27607 0.97281 0.0
H322 H 0.15122 0.28657 0.00864 0.0
H323 H 0.94081 0.0793 0.99203 0.0
H324 H 0.97153 0.99476 0.99729 0.0
H325 H 0.96882 1.00501 0.97312 0.0
H326 H 0.12321 0.96422 0.97758 0.0
H327 H 0.12645 0.95385 1.00177 0.0
H328 H 0.20074 1.01064 0.99952 0.0
H329 H 0.15464 0.27258 0.04255 0.0
H330 H 0.14755 0.23531 0.0721 0.0
H331 H 0.07267 0.02277 0.03362 0.0
C332 C 0.08256 0.10542 0.96769 0.0
C333 C 0.10012 0.16481 0.96215 0.0
C334 C 0.12482 0.23019 0.97699 0.0
C335 C 0.13235 0.23649 0.99728 0.0
C336 C 0.11484 0.17681 1.00235 0.0
C337 C 0.09046 0.11251 0.98798 0.0
C338 C 0.07496 0.05664 0.99735 0.0
C339 C 0.9836 0.03253 0.98948 0.0
C340 C 0.13493 0.99256 0.99384 0.0
C341 C 0.09438 0.09943 0.01924 0.0
C342 C 0.11717 0.16869 0.02182 0.0
C343 C 0.137 0.2185 0.04071 0.0
C344 C 0.13294 0.19702 0.05736 0.0
C345 C 0.10917 0.12658 0.05495 0.0
C346 C 0.0905 0.07707 0.03571 0.0
H347 H 0.03672 0.07785 0.45727 0.0
H348 H 0.23794 0.22956 0.47572 0.0
H349 H 0.2528 0.23606 0.51115 0.0
H350 H 0.94338 0.1608 0.49693 0.0
H351 H 0.91527 0.07873 0.50011 0.0
H352 H 0.92417 0.0811 0.476 0.0
H353 H 0.0309 0.9764 0.47541 0.0
H354 H 0.02197 0.9734 0.4995 0.0
H355 H 0.12263 0.98411 0.49604 0.0
H356 H 0.24153 0.23167 0.54441 0.0
H357 H 0.20628 0.2152 0.57383 0.0
H358 H 0.01077 0.06741 0.53437 0.0
C359 C 0.08488 0.1113 0.46878 0.0
C360 C 0.13623 0.15326 0.46378 0.0
C361 C 0.19759 0.19743 0.47925 0.0
C362 C 0.20673 0.20125 0.4994 0.0
C363 C 0.15409 0.16049 0.50387 0.0
C364 C 0.09458 0.11608 0.48906 0.0
C365 C 0.04373 0.08051 0.49813 0.0
C366 C 0.95117 0.10157 0.49245 0.0
C367 C 0.05554 0.99875 0.4919 0.0
C368 C 0.08331 0.1127 0.52033 0.0
C369 C 0.1471 0.15838 0.52324 0.0
C370 C 0.19183 0.1959 0.54235 0.0
C371 C 0.17082 0.18665 0.55897 0.0
C372 C 0.10537 0.14044 0.55644 0.0
C373 C 0.06153 0.10264 0.53681 0.0
H374 H 0.12254 0.0919 0.27751 0.0
H375 H 0.98784 0.29228 0.29318 0.0
H376 H 0.98001 0.30905 0.26028 0.0
H377 H 0.24022 0.14431 0.24947 0.0
H378 H 0.23105 0.05958 0.23041 0.0
H379 H 0.22809 0.06304 0.25543 0.0
H380 H 0.08568 0.9988 0.24135 0.0
H381 H 0.0886 0.99453 0.21626 0.0
H382 H 1.00081 0.0356 0.22553 0.0
H383 H 0.99107 0.30723 0.22626 0.0
H384 H 0.00931 0.28048 0.19189 0.0
H385 H 0.12582 0.07735 0.19697 0.0
C386 C 0.09044 0.13891 0.27399 0.0
C387 C 0.05711 0.19131 0.28825 0.0
C388 C 0.01616 0.25222 0.28289 0.0
C389 C 0.01076 0.2621 0.26413 0.0
C390 C 0.04544 0.21016 0.25065 0.0
C391 C 0.08342 0.14924 0.25518 0.0
C392 C 0.11374 0.10086 0.23771 0.0
C393 C 0.20893 0.09142 0.24362 0.0
C394 C 0.06955 0.02814 0.22974 0.0
C395 C 0.08707 0.14434 0.22274 0.0
C396 C 0.04853 0.20757 0.23061 0.0
C397 C 0.02041 0.25758 0.21985 0.0
C398 C 0.03104 0.24212 0.20042 0.0
C399 C 0.06834 0.17688 0.19189 0.0
C400 C 0.09696 0.12756 0.20323 0.0
H401 H 0.11202 0.15718 0.73878 0.0
H402 H 0.98183 0.95812 0.70425 0.0
H403 H 0.9682 0.93875 0.73545 0.0
H404 H 0.22309 0.10111 0.78173 0.0
H405 H 0.21077 0.18543 0.79954 0.0
H406 H 0.21277 0.18302 0.77453 0.0
H407 H 0.06992 0.24853 0.76965 0.0
H408 H 0.06765 0.25135 0.79467 0.0
H409 H 0.98275 0.21159 0.77361 0.0
H410 H 0.9713 0.93928 0.77056 0.0
H411 H 0.98504 0.96363 0.807 0.0
H412 H 0.10262 0.16616 0.81826 0.0
C413 C 0.07982 0.1098 0.73765 0.0
C414 C 0.04891 0.05884 0.7189 0.0
C415 C 0.0081 0.99723 0.71836 0.0
C416 C 0.99933 0.98594 0.73602 0.0
C417 C 0.03074 0.03708 0.75417 0.0
C418 C 0.06951 0.09811 0.75511 0.0
C419 C 0.09622 0.14548 0.77651 0.0
C420 C 0.19136 0.15425 0.78348 0.0
C421 C 0.05144 0.21856 0.77873 0.0
C422 C 0.06667 0.10139 0.78745 0.0
C423 C 0.02957 0.03878 0.77431 0.0
C424 C 0.99953 0.98842 0.78097 0.0
C425 C 0.00744 1.0026 0.80161 0.0
C426 C 0.04408 0.06688 0.81524 0.0
C427 C 0.07392 0.11682 0.80804 0.0
loop_
_geom_bond_atom_site_label_1
_geom_bond_atom_site_label_2
_geom_bond_distance
_geom_bond_site_symmetry_2
_ccdc_geom_bond_type
C0 C1 1.443 . S
C0 N4 1.376 . S
C0 C38 1.389 . S
C1 C0 1.443 . S
C1 C2 1.340 . S
C1 H41 0.951 . S
C2 C1 1.340 . S
C2 C3 1.439 . S
C2 H42 0.950 . S
C3 C2 1.439 . S
C3 N4 1.374 . S
C3 C37 1.395 . S
N4 C0 1.376 . S
N4 C3 1.374 . S
N4 Co5 2.008 . S
Co5 N4 2.008 . S
Co5 N6 1.995 . S
Co5 N11 2.008 . S
Co5 N16 1.995 . S
Co5 N21 2.282 . S
Co5 N27 2.282 . S
N6 Co5 1.995 . S
N6 C7 1.376 . S
N6 C10 1.383 . S
C7 N6 1.376 . S
C7 C8 1.446 . S
C7 C37 1.391 . S
C8 C7 1.446 . S
C8 C9 1.339 . S
C8 H43 0.949 . S
C9 C8 1.339 . S
C9 C10 1.439 . S
C9 H44 0.950 . S
C10 N6 1.383 . S
C10 C9 1.439 . S
C10 C39 1.392 . S
N11 Co5 2.008 . S
N11 C12 1.376 . S
N11 C15 1.374 1_455 S
C12 N11 1.376 . S
C12 C13 1.443 1_455 S
C12 C39 1.389 . S
C13 C12 1.443 1_655 S
C13 C14 1.340 . S
C13 H45 0.951 . S
C14 C13 1.340 . S
C14 C15 1.439 . S
C14 H46 0.950 . S
C15 N11 1.374 1_655 S
C15 C14 1.439 . S
C15 C40 1.395 . S
N16 Co5 1.995 . S
N16 C17 1.376 1_455 S
N16 C20 1.383 . S
C17 N16 1.376 1_655 S
C17 C18 1.446 . S
C17 C40 1.391 . S
C18 C17 1.446 . S
C18 C19 1.339 . S
C18 H47 0.949 . S
C19 C18 1.339 . S
C19 C20 1.439 1_655 S
C19 H48 0.950 . S
C20 N16 1.383 . S
C20 C19 1.439 1_455 S
C20 C38 1.392 . S
N21 Co5 2.282 . S
N21 C24 1.332 . S
N21 C26 1.332 . S
C22 C23 1.386 . S
C22 C25 1.388 . S
C23 C22 1.386 . S
C23 C24 1.382 . S
C23 H49 0.950 1_455 S
C24 N21 1.332 . S
C24 C23 1.382 . S
C24 H35 0.952 . S
C25 C22 1.388 . S
C25 C26 1.382 . S
C25 H50 0.950 . S
C26 N21 1.332 . S
C26 C25 1.382 . S
C26 H36 0.948 . S
N27 Co5 2.282 . S
N27 C31 1.332 1_545 S
N27 C32 1.332 1_545 S
C28 C29 1.388 . S
C28 C32 1.382 . S
C28 H51 0.950 1_455 S
C29 C28 1.388 . S
C29 C30 1.386 . S
C30 C29 1.386 . S
C30 C31 1.382 . S
C30 H52 0.950 . S
C31 N27 1.332 1_565 S
C31 C30 1.382 . S
C31 H33 0.952 . S
C32 N27 1.332 1_565 S
C32 C28 1.382 . S
C32 H34 0.948 1_455 S
H33 C31 0.952 . S
H34 C32 0.948 1_655 S
H35 C24 0.952 . S
H36 C26 0.948 . S
C37 C3 1.395 . S
C37 C7 1.391 . S
C38 C0 1.389 . S
C38 C20 1.392 . S
C39 C10 1.392 . S
C39 C12 1.389 . S
C40 C15 1.395 . S
C40 C17 1.391 . S
H41 C1 0.951 . S
H42 C2 0.950 . S
H43 C8 0.949 . S
H44 C9 0.950 . S
H45 C13 0.951 . S
H46 C14 0.950 . S
H47 C18 0.949 . S
H48 C19 0.950 . S
H49 C23 0.950 1_655 S
H50 C25 0.950 . S
H51 C28 0.950 1_655 S
H52 C30 0.950 . S
C53 C54 1.443 . S
C53 N57 1.376 . S
C53 C91 1.389 . S
C54 C53 1.443 . S
C54 C55 1.340 . S
C54 H94 0.951 . S
C55 C54 1.340 . S
C55 C56 1.439 . S
C55 H95 0.950 . S
C56 C55 1.439 . S
C56 N57 1.374 . S
C56 C90 1.395 . S
N57 C53 1.376 . S
N57 C56 1.374 . S
N57 Co58 2.008 . S
Co58 N57 2.008 . S
Co58 N59 1.995 1_455 S
Co58 N64 2.008 1_455 S
Co58 N69 1.995 . S
Co58 N74 2.282 . S
Co58 N80 2.282 . S
N59 Co58 1.995 1_655 S
N59 C60 1.376 . S
N59 C63 1.383 . S
C60 N59 1.376 . S
C60 C61 1.446 . S
C60 C90 1.391 1_655 S
C61 C60 1.446 . S
C61 C62 1.339 . S
C61 H96 0.949 . S
C62 C61 1.339 . S
C62 C63 1.439 . S
C62 H97 0.950 . S
C63 N59 1.383 . S
C63 C62 1.439 . S
C63 C92 1.392 . S
N64 Co58 2.008 1_655 S
N64 C65 1.376 . S
N64 C68 1.374 1_545 S
C65 N64 1.376 . S
C65 C66 1.443 1_545 S
C65 C92 1.389 . S
C66 C65 1.443 1_565 S
C66 C67 1.340 . S
C66 H98 0.951 . S
C67 C66 1.340 . S
C67 C68 1.439 . S
C67 H99 0.950 . S
C68 N64 1.374 1_565 S
C68 C67 1.439 . S
C68 C93 1.395 1_655 S
N69 Co58 1.995 . S
N69 C70 1.376 1_545 S
N69 C73 1.383 . S
C70 N69 1.376 1_565 S
C70 C71 1.446 . S
C70 C93 1.391 . S
C71 C70 1.446 . S
C71 C72 1.339 . S
C71 H100 0.949 . S
C72 C71 1.339 . S
C72 C73 1.439 1_565 S
C72 H101 0.950 . S
C73 N69 1.383 . S
C73 C72 1.439 1_545 S
C73 C91 1.392 . S
N74 Co58 2.282 . S
N74 C77 1.332 . S
N74 C79 1.332 . S
C75 C76 1.386 . S
C75 C78 1.388 . S
C76 C75 1.386 . S
C76 C77 1.382 . S
C76 H102 0.950 1_545 S
C77 N74 1.332 . S
C77 C76 1.382 . S
C77 H88 0.952 1_545 S
C78 C75 1.388 . S
C78 C79 1.382 . S
C78 H103 0.950 . S
C79 N74 1.332 . S
C79 C78 1.382 . S
C79 H89 0.948 . S
N80 Co58 2.282 . S
N80 C84 1.332 . S
N80 C85 1.332 . S
C81 C82 1.388 . S
C81 C85 1.382 . S
C81 H104 0.950 1_545 S
C82 C81 1.388 . S
C82 C83 1.386 . S
C83 C82 1.386 . S
C83 C84 1.382 . S
C83 H105 0.950 . S
C84 N80 1.332 . S
C84 C83 1.382 . S
C84 H86 0.952 . S
C85 N80 1.332 . S
C85 C81 1.382 . S
C85 H87 0.948 1_545 S
H86 C84 0.952 . S
H87 C85 0.948 1_565 S
H88 C77 0.952 1_565 S
H89 C79 0.948 . S
C90 C56 1.395 . S
C90 C60 1.391 1_455 S
C91 C53 1.389 . S
C91 C73 1.392 . S
C92 C63 1.392 . S
C92 C65 1.389 . S
C93 C68 1.395 1_455 S
C93 C70 1.391 . S
H94 C54 0.951 . S
H95 C55 0.950 . S
H96 C61 0.949 . S
H97 C62 0.950 . S
H98 C66 0.951 . S
H99 C67 0.950 . S
H100 C71 0.949 . S
H101 C72 0.950 . S
H102 C76 0.950 1_565 S
H103 C78 0.950 . S
H104 C81 0.950 1_565 S
H105 C83 0.950 . S
C106 C107 1.443 . S
C106 N110 1.376 . S
C106 C144 1.389 . S
C107 C106 1.443 . S
C107 C108 1.340 . S
C107 H147 0.951 . S
C108 C107 1.340 . S
C108 C109 1.439 . S
C108 H148 0.950 . S
C109 C108 1.439 . S
C109 N110 1.374 . S
C109 C143 1.395 . S
N110 C106 1.376 . S
N110 C109 1.374 . S
N110 Co111 2.008 . S
Co111 N110 2.008 . S
Co111 N112 1.995 . S
Co111 N117 2.008 1_455 S
Co111 N122 1.995 1_455 S
Co111 N127 2.282 . S
Co111 N133 2.282 1_545 S
N112 Co111 1.995 . S
N112 C113 1.376 . S
N112 C116 1.383 . S
C113 N112 1.376 . S
C113 C114 1.446 . S
C113 C143 1.391 . S
C114 C113 1.446 . S
C114 C115 1.339 . S
C114 H149 0.949 . S
C115 C114 1.339 . S
C115 C116 1.439 . S
C115 H150 0.950 . S
C116 N112 1.383 . S
C116 C115 1.439 . S
C116 C145 1.392 . S
N117 Co111 2.008 1_655 S
N117 C118 1.376 . S
N117 C121 1.374 . S
C118 N117 1.376 . S
C118 C119 1.443 . S
C118 C145 1.389 1_655 S
C119 C118 1.443 . S
C119 C120 1.340 . S
C119 H151 0.951 . S
C120 C119 1.340 . S
C120 C121 1.439 . S
C120 H152 0.950 . S
C121 N117 1.374 . S
C121 C120 1.439 . S
C121 C146 1.395 . S
N122 Co111 1.995 1_655 S
N122 C123 1.376 . S
N122 C126 1.383 . S
C123 N122 1.376 . S
C123 C124 1.446 . S
C123 C146 1.391 . S
C124 C123 1.446 . S
C124 C125 1.339 . S
C124 H153 0.949 . S
C125 C124 1.339 . S
C125 C126 1.439 . S
C125 H154 0.950 . S
C126 N122 1.383 . S
C126 C125 1.439 . S
C126 C144 1.392 1_655 S
N127 Co111 2.282 . S
N127 C130 1.332 1_455 S
N127 C132 1.332 . S
C128 C129 1.386 1_455 S
C128 C131 1.388 . S
C129 C128 1.386 1_655 S
C129 C130 1.382 . S
C129 H155 0.950 . S
C130 N127 1.332 1_655 S
C130 C129 1.382 . S
C130 H141 0.952 . S
C131 C128 1.388 . S
C131 C132 1.382 . S
C131 H156 0.950 . S
C132 N127 1.332 . S
C132 C131 1.382 . S
C132 H142 0.948 . S
N133 Co111 2.282 1_565 S
N133 C137 1.332 . S
N133 C138 1.332 1_455 S
C134 C135 1.388 1_655 S
C134 C138 1.382 . S
C134 H157 0.950 . S
C135 C134 1.388 1_455 S
C135 C136 1.386 . S
C136 C135 1.386 . S
C136 C137 1.382 . S
C136 H158 0.950 . S
C137 N133 1.332 . S
C137 C136 1.382 . S
C137 H139 0.952 . S
C138 N133 1.332 1_655 S
C138 C134 1.382 . S
C138 H140 0.948 . S
H139 C137 0.952 . S
H140 C138 0.948 . S
H141 C130 0.952 . S
H142 C132 0.948 . S
C143 C109 1.395 . S
C143 C113 1.391 . S
C144 C106 1.389 . S
C144 C126 1.392 1_455 S
C145 C116 1.392 . S
C145 C118 1.389 1_455 S
C146 C121 1.395 . S
C146 C123 1.391 . S
H147 C107 0.951 . S
H148 C108 0.950 . S
H149 C114 0.949 . S
H150 C115 0.950 . S
H151 C119 0.951 . S
H152 C120 0.950 . S
H153 C124 0.949 . S
H154 C125 0.950 . S
H155 C129 0.950 . S
H156 C131 0.950 . S
H157 C134 0.950 . S
H158 C136 0.950 . S
C159 C160 1.443 . S
C159 N163 1.376 . S
C159 C197 1.389 . S
C160 C159 1.443 . S
C160 C161 1.340 . S
C160 H200 0.951 . S
C161 C160 1.340 . S
C161 C162 1.439 . S
C161 H201 0.950 . S
C162 C161 1.439 . S
C162 N163 1.374 . S
C162 C196 1.395 . S
N163 C159 1.376 . S
N163 C162 1.374 . S
N163 Co164 2.008 . S
Co164 N163 2.008 . S
Co164 N165 1.995 . S
Co164 N170 2.008 . S
Co164 N175 1.995 . S
Co164 N180 2.282 . S
Co164 N186 2.282 . S
N165 Co164 1.995 . S
N165 C166 1.376 . S
N165 C169 1.383 1_455 S
C166 N165 1.376 . S
C166 C167 1.446 1_455 S
C166 C196 1.391 . S
C167 C166 1.446 1_655 S
C167 C168 1.339 . S
C167 H202 0.949 . S
C168 C167 1.339 . S
C168 C169 1.439 . S
C168 H203 0.950 . S
C169 N165 1.383 1_655 S
C169 C168 1.439 . S
C169 C198 1.392 . S
N170 Co164 2.008 . S
N170 C171 1.376 1_455 S
N170 C174 1.374 1_545 S
C171 N170 1.376 1_655 S
C171 C172 1.456 . S
C171 C198 1.389 . S
C172 C171 1.456 . S
C172 C173 1.331 1_545 S
C172 H204 0.948 1_545 S
C173 C172 1.331 1_565 S
C173 C174 1.439 1_655 S
C173 H205 0.950 . S
C174 N170 1.374 1_565 S
C174 C173 1.439 1_455 S
C174 C199 1.395 . S
N175 Co164 1.995 . S
N175 C176 1.376 1_545 S
N175 C179 1.383 . S
C176 N175 1.376 1_565 S
C176 C177 1.446 . S
C176 C199 1.391 . S
C177 C176 1.446 . S
C177 C178 1.339 1_565 S
C177 H206 0.949 . S
C178 C177 1.339 1_545 S
C178 C179 1.439 . S
C178 H207 0.950 1_545 S
C179 N175 1.383 . S
C179 C178 1.439 . S
C179 C197 1.392 . S
N180 Co164 2.282 . S
N180 C183 1.332 . S
N180 C185 1.332 . S
C181 C182 1.386 . S
C181 C184 1.388 . S
C182 C181 1.386 . S
C182 C183 1.382 . S
C182 H208 0.950 . S
C183 N180 1.332 . S
C183 C182 1.382 . S
C183 H194 0.952 . S
C184 C181 1.388 . S
C184 C185 1.382 . S
C184 H209 0.950 . S
C185 N180 1.332 . S
C185 C184 1.382 . S
C185 H195 0.948 . S
N186 Co164 2.282 . S
N186 C190 1.332 . S
N186 C191 1.332 . S
C187 C188 1.388 . S
C187 C191 1.382 . S
C187 H210 0.950 . S
C188 C187 1.388 . S
C188 C189 1.386 . S
C189 C188 1.386 . S
C189 C190 1.382 . S
C189 H211 0.950 . S
C190 N186 1.332 . S
C190 C189 1.382 . S
C190 H192 0.952 . S
C191 N186 1.332 . S
C191 C187 1.382 . S
C191 H193 0.948 . S
H192 C190 0.952 . S
H193 C191 0.948 . S
H194 C183 0.952 . S
H195 C185 0.948 . S
C196 C162 1.395 . S
C196 C166 1.391 . S
C197 C159 1.389 . S
C197 C179 1.392 . S
C198 C169 1.392 . S
C198 C171 1.389 . S
C199 C174 1.395 . S
C199 C176 1.391 . S
H200 C160 0.951 . S
H201 C161 0.950 . S
H202 C167 0.949 . S
H203 C168 0.950 . S
H204 C172 0.948 1_565 S
H205 C173 0.950 . S
H206 C177 0.949 . S
H207 C178 0.950 1_565 S
H208 C182 0.950 . S
H209 C184 0.950 . S
H210 C187 0.950 . S
H211 C189 0.950 . S
H212 C224 0.930 . S
H213 C226 0.930 . S
H214 C227 0.930 . S
H215 C231 0.959 . S
H216 C231 0.959 . S
H217 C231 0.961 . S
H218 C232 0.960 1_655 S
H219 C232 0.961 1_655 S
H220 C232 0.959 . S
H221 C235 0.929 . S
H222 C236 0.931 . S
H223 C238 0.930 . S
C224 H212 0.930 . S
C224 C225 1.399 . S
C224 C229 1.399 . S
C225 C224 1.399 . S
C225 C226 1.376 . S
C226 H213 0.930 . S
C226 C225 1.376 . S
C226 C227 1.388 . S
C227 H214 0.930 . S
C227 C226 1.388 . S
C227 C228 1.390 . S
C228 C227 1.390 . S
C228 C229 1.394 . S
C228 C234 1.465 . S
C229 C224 1.399 . S
C229 C228 1.394 . S
C229 C230 1.516 . S
C230 C229 1.516 . S
C230 C231 1.502 1_455 S
C230 C232 1.561 . S
C230 C233 1.526 . S
C231 H215 0.959 . S
C231 H216 0.959 . S
C231 H217 0.961 . S
C231 C230 1.502 1_655 S
C232 H218 0.960 1_455 S
C232 H219 0.961 1_455 S
C232 H220 0.959 . S
C232 C230 1.561 . S
C233 C230 1.526 . S
C233 C234 1.396 . S
C233 C238 1.390 . S
C234 C228 1.465 . S
C234 C233 1.396 . S
C234 C235 1.399 . S
C235 H221 0.929 . S
C235 C234 1.399 . S
C235 C236 1.385 . S
C236 H222 0.931 . S
C236 C235 1.385 . S
C236 C237 1.389 . S
C237 C236 1.389 . S
C237 C238 1.387 . S
C238 H223 0.930 . S
C238 C233 1.390 . S
C238 C237 1.387 . S
H239 C251 0.930 . S
H240 C253 0.930 1_565 S
H241 C254 0.930 1_565 S
H242 C258 0.959 . S
H243 C258 0.959 . S
H244 C258 0.961 . S
H245 C259 0.960 . S
H246 C259 0.961 . S
H247 C259 0.959 . S
H248 C262 0.929 1_565 S
H249 C263 0.931 1_565 S
H250 C265 0.930 . S
C251 H239 0.930 . S
C251 C252 1.399 . S
C251 C256 1.399 . S
C252 C251 1.399 . S
C252 C253 1.376 . S
C253 H240 0.930 1_545 S
C253 C252 1.376 . S
C253 C254 1.388 . S
C254 H241 0.930 1_545 S
C254 C253 1.388 . S
C254 C255 1.390 . S
C255 C254 1.390 . S
C255 C256 1.394 . S
C255 C261 1.465 . S
C256 C251 1.399 . S
C256 C255 1.394 . S
C256 C257 1.516 . S
C257 C256 1.516 . S
C257 C258 1.502 . S
C257 C259 1.561 . S
C257 C260 1.526 . S
C258 H242 0.959 . S
C258 H243 0.959 . S
C258 H244 0.961 . S
C258 C257 1.502 . S
C259 H245 0.960 . S
C259 H246 0.961 . S
C259 H247 0.959 . S
C259 C257 1.561 . S
C260 C257 1.526 . S
C260 C261 1.396 . S
C260 C265 1.390 . S
C261 C255 1.465 . S
C261 C260 1.396 . S
C261 C262 1.399 . S
C262 H248 0.929 1_545 S
C262 C261 1.399 . S
C262 C263 1.385 . S
C263 H249 0.931 1_545 S
C263 C262 1.385 . S
C263 C264 1.389 . S
C264 C263 1.389 . S
C264 C265 1.387 . S
C265 H250 0.930 . S
C265 C260 1.390 . S
C265 C264 1.387 . S
H266 C278 0.930 . S
H267 C280 0.930 . S
H268 C281 0.930 . S
H269 C285 0.959 . S
H270 C285 0.959 . S
H271 C285 0.961 . S
H272 C286 0.960 . S
H273 C286 0.961 . S
H274 C286 0.959 . S
H275 C289 0.929 . S
H276 C290 0.931 . S
H277 C292 0.930 . S
C278 H266 0.930 . S
C278 C279 1.399 . S
C278 C283 1.399 . S
C279 C278 1.399 . S
C279 C280 1.376 . S
C280 H267 0.930 . S
C280 C279 1.376 . S
C280 C281 1.388 . S
C281 H268 0.930 . S
C281 C280 1.388 . S
C281 C282 1.390 . S
C282 C281 1.390 . S
C282 C283 1.394 . S
C282 C288 1.465 . S
C283 C278 1.399 . S
C283 C282 1.394 . S
C283 C284 1.516 . S
C284 C283 1.516 . S
C284 C285 1.502 1_455 S
C284 C286 1.561 . S
C284 C287 1.526 . S
C285 H269 0.959 . S
C285 H270 0.959 . S
C285 H271 0.961 . S
C285 C284 1.502 1_655 S
C286 H272 0.960 . S
C286 H273 0.961 . S
C286 H274 0.959 . S
C286 C284 1.561 . S
C287 C284 1.526 . S
C287 C288 1.396 . S
C287 C292 1.390 . S
C288 C282 1.465 . S
C288 C287 1.396 . S
C288 C289 1.399 . S
C289 H275 0.929 . S
C289 C288 1.399 . S
C289 C290 1.385 . S
C290 H276 0.931 . S
C290 C289 1.385 . S
C290 C291 1.389 . S
C291 C290 1.389 . S
C291 C292 1.387 . S
C292 H277 0.930 . S
C292 C287 1.390 . S
C292 C291 1.387 . S
H293 C305 0.930 . S
H294 C307 0.930 . S
H295 C308 0.930 . S
H296 C312 0.959 . S
H297 C312 0.959 . S
H298 C312 0.961 . S
H299 C313 0.960 . S
H300 C313 0.961 . S
H301 C313 0.959 . S
H302 C316 0.929 . S
H303 C317 0.931 . S
H304 C319 0.930 . S
C305 H293 0.930 . S
C305 C306 1.399 . S
C305 C310 1.399 . S
C306 C305 1.399 . S
C306 C307 1.376 . S
C307 H294 0.930 . S
C307 C306 1.376 . S
C307 C308 1.388 . S
C308 H295 0.930 . S
C308 C307 1.388 . S
C308 C309 1.390 . S
C309 C308 1.390 . S
C309 C310 1.394 . S
C309 C315 1.465 . S
C310 C305 1.399 . S
C310 C309 1.394 . S
C310 C311 1.516 . S
C311 C310 1.516 . S
C311 C312 1.502 . S
C311 C313 1.561 1_545 S
C311 C314 1.526 . S
C312 H296 0.959 . S
C312 H297 0.959 . S
C312 H298 0.961 . S
C312 C311 1.502 . S
C313 H299 0.960 . S
C313 H300 0.961 . S
C313 H301 0.959 . S
C313 C311 1.561 1_565 S
C314 C311 1.526 . S
C314 C315 1.396 . S
C314 C319 1.390 . S
C315 C309 1.465 . S
C315 C314 1.396 . S
C315 C316 1.399 . S
C316 H302 0.929 . S
C316 C315 1.399 . S
C316 C317 1.385 . S
C317 H303 0.931 . S
C317 C316 1.385 . S
C317 C318 1.389 . S
C318 C317 1.389 . S
C318 C319 1.387 . S
C319 H304 0.930 . S
C319 C314 1.390 . S
C319 C318 1.387 . S
H320 C332 0.930 . S
H321 C334 0.930 . S
H322 C335 0.930 . S
H323 C339 0.947 1_545 S
H324 C339 0.974 . S
H325 C339 0.965 . S
H326 C340 0.960 . S
H327 C340 0.961 . S
H328 C340 0.959 . S
H329 C343 0.929 . S
H330 C344 0.931 . S
H331 C346 0.930 . S
C332 H320 0.930 . S
C332 C333 1.399 . S
C332 C337 1.399 . S
C333 C332 1.399 . S
C333 C334 1.376 . S
C334 H321 0.930 . S
C334 C333 1.376 . S
C334 C335 1.388 . S
C335 H322 0.930 . S
C335 C334 1.388 . S
C335 C336 1.390 . S
C336 C335 1.390 . S
C336 C337 1.394 . S
C336 C342 1.465 1_556 S
C337 C332 1.399 . S
C337 C336 1.394 . S
C337 C338 1.516 . S
C338 C337 1.516 . S
C338 C339 1.494 1_445 S
C338 C340 1.561 1_545 S
C338 C341 1.526 1_556 S
C339 H323 0.947 1_565 S
C339 H324 0.974 . S
C339 H325 0.965 . S
C339 C338 1.494 1_665 S
C340 H326 0.960 . S
C340 H327 0.961 . S
C340 H328 0.959 . S
C340 C338 1.561 1_565 S
C341 C338 1.526 1_554 S
C341 C342 1.396 . S
C341 C346 1.390 . S
C342 C336 1.465 1_554 S
C342 C341 1.396 . S
C342 C343 1.399 . S
C343 H329 0.929 . S
C343 C342 1.399 . S
C343 C344 1.385 . S
C344 H330 0.931 . S
C344 C343 1.385 . S
C344 C345 1.389 . S
C345 C344 1.389 . S
C345 C346 1.387 . S
C346 H331 0.930 . S
C346 C341 1.390 . S
C346 C345 1.387 . S
H347 C359 0.930 . S
H348 C361 0.930 . S
H349 C362 0.930 . S
H350 C366 0.959 1_545 S
H351 C366 0.959 . S
H352 C366 0.961 . S
H353 C367 0.960 . S
H354 C367 0.961 . S
H355 C367 0.959 . S
H356 C370 0.929 . S
H357 C371 0.931 . S
H358 C373 0.930 . S
C359 H347 0.930 . S
C359 C360 1.399 . S
C359 C364 1.399 . S
C360 C359 1.399 . S
C360 C361 1.376 . S
C361 H348 0.930 . S
C361 C360 1.376 . S
C361 C362 1.388 . S
C362 H349 0.930 . S
C362 C361 1.388 . S
C362 C363 1.390 . S
C363 C362 1.390 . S
C363 C364 1.394 . S
C363 C369 1.465 . S
C364 C359 1.399 . S
C364 C363 1.394 . S
C364 C365 1.516 . S
C365 C364 1.516 . S
C365 C366 1.502 1_445 S
C365 C367 1.561 1_545 S
C365 C368 1.526 . S
C366 H350 0.959 1_565 S
C366 H351 0.959 . S
C366 H352 0.961 . S
C366 C365 1.502 1_665 S
C367 H353 0.960 . S
C367 H354 0.961 . S
C367 H355 0.959 . S
C367 C365 1.561 1_565 S
C368 C365 1.526 . S
C368 C369 1.396 . S
C368 C373 1.390 . S
C369 C363 1.465 . S
C369 C368 1.396 . S
C369 C370 1.399 . S
C370 H356 0.929 . S
C370 C369 1.399 . S
C370 C371 1.385 . S
C371 H357 0.931 . S
C371 C370 1.385 . S
C371 C372 1.389 . S
C372 C371 1.389 . S
C372 C373 1.387 . S
C373 H358 0.930 . S
C373 C368 1.390 . S
C373 C372 1.387 . S
H374 C386 0.930 . S
H375 C388 0.930 . S
H376 C389 0.930 . S
H377 C393 0.959 . S
H378 C393 0.959 1_565 S
H379 C393 0.961 1_565 S
H380 C394 0.960 . S
H381 C394 0.961 . S
H382 C394 0.959 1_545 S
H383 C397 0.929 . S
H384 C398 0.931 . S
H385 C400 0.930 . S
C386 H374 0.930 . S
C386 C387 1.399 . S
C386 C391 1.399 . S
C387 C386 1.399 . S
C387 C388 1.376 . S
C388 H375 0.930 . S
C388 C387 1.376 . S
C388 C389 1.388 . S
C389 H376 0.930 . S
C389 C388 1.388 . S
C389 C390 1.390 . S
C390 C389 1.390 . S
C390 C391 1.394 . S
C390 C396 1.465 . S
C391 C386 1.399 . S
C391 C390 1.394 . S
C391 C392 1.516 . S
C392 C391 1.516 . S
C392 C393 1.502 . S
C392 C394 1.561 1_545 S
C392 C395 1.526 . S
C393 H377 0.959 . S
C393 H378 0.959 1_545 S
C393 H379 0.961 1_545 S
C393 C392 1.502 . S
C394 H380 0.960 . S
C394 H381 0.961 . S
C394 H382 0.959 1_565 S
C394 C392 1.561 1_565 S
C395 C392 1.526 . S
C395 C396 1.396 . S
C395 C400 1.390 . S
C396 C390 1.465 . S
C396 C395 1.396 . S
C396 C397 1.399 . S
C397 H383 0.929 . S
C397 C396 1.399 . S
C397 C398 1.385 . S
C398 H384 0.931 . S
C398 C397 1.385 . S
C398 C399 1.389 . S
C399 C398 1.389 . S
C399 C400 1.387 . S
C400 H385 0.930 . S
C400 C395 1.390 . S
C400 C399 1.387 . S
H401 C413 0.930 . S
H402 C415 0.930 1_565 S
H403 C416 0.930 1_665 S
H404 C420 0.959 . S
H405 C420 0.959 . S
H406 C420 0.961 . S
H407 C421 0.960 . S
H408 C421 0.961 . S
H409 C421 0.959 . S
H410 C424 0.929 1_665 S
H411 C425 0.928 1_665 S
H412 C427 0.930 . S
C413 H401 0.930 . S
C413 C414 1.399 . S
C413 C418 1.399 . S
C414 C413 1.399 . S
C414 C415 1.376 . S
C415 H402 0.930 1_545 S
C415 C414 1.376 . S
C415 C416 1.388 . S
C416 H403 0.930 1_445 S
C416 C415 1.388 . S
C416 C417 1.390 . S
C417 C416 1.390 . S
C417 C418 1.394 . S
C417 C423 1.465 . S
C418 C413 1.399 . S
C418 C417 1.394 . S
C418 C419 1.516 . S
C419 C418 1.516 . S
C419 C420 1.502 . S
C419 C421 1.561 1_455 S
C419 C422 1.526 . S
C420 H404 0.959 . S
C420 H405 0.959 . S
C420 H406 0.961 . S
C420 C419 1.502 . S
C421 H407 0.960 . S
C421 H408 0.961 . S
C421 H409 0.959 . S
C421 C419 1.561 1_655 S
C422 C419 1.526 . S
C422 C423 1.396 . S
C422 C427 1.390 . S
C423 C417 1.465 . S
C423 C422 1.396 . S
C423 C424 1.399 . S
C424 H410 0.929 1_445 S
C424 C423 1.399 . S
C424 C425 1.385 . S
C425 H411 0.928 1_445 S
C425 C424 1.385 . S
C425 C426 1.389 . S
C426 C425 1.389 . S
C426 C427 1.387 . S
C427 H412 0.930 . S
C427 C422 1.390 . S
C427 C426 1.387 . S
C225 C22 1.490 . S
C237 C29 1.493 . S
C252 C91 1.490 . S
C264 C92 1.494 . S
C279 C128 1.493 . S
C291 C135 1.490 . S
C306 C197 1.495 . S
C318 C198 1.491 . S
C333 C144 1.496 . S
C345 C39 1.513 . S
C360 C181 1.498 . S
C372 C82 1.497 . S
C387 C188 1.502 . S
C399 C38 1.494 . S
C414 C75 1.505 . S
C426 C145 1.496 . S
