# Generated by pormake.
# Topology umw, (4)-cn, num edge types: 1
# Building blocks:
#     Node 0, Type 0, BuildingBlock: AZAVOO_clean_sbu_0, # of connection points: 4
#     Node 1, Type 0, BuildingBlock: AZAVOO_clean_sbu_0, # of connection points: 4
#     Node 2, Type 0, BuildingBlock: AZAVOO_clean_sbu_0, # of connection points: 4
#     Node 3, Type 0, BuildingBlock: AZAVOO_clean_sbu_0, # of connection points: 4
#     Node 4, Type 0, BuildingBlock: AZAVOO_clean_sbu_0, # of connection points: 4
#     Node 5, Type 0, BuildingBlock: AZAVOO_clean_sbu_0, # of connection points: 4
#     Node 6, Type 0, BuildingBlock: AZAVOO_clean_sbu_0, # of connection points: 4
#     Node 7, Type 0, BuildingBlock: AZAVOO_clean_sbu_0, # of connection points: 4
#     Edge 8, Type (0, 0), BuildingBlock: CIFDUS_clean_linker_0, # of connection points: 2
#     Edge 9, Type (0, 0), BuildingBlock: CIFDUS_clean_linker_0, # of connection points: 2
#     Edge 10, Type (0, 0), BuildingBlock: CIFDUS_clean_linker_0, # of connection points: 2
#     Edge 11, Type (0, 0), BuildingBlock: CIFDUS_clean_linker_0, # of connection points: 2
#     Edge 12, Type (0, 0), BuildingBlock: CIFDUS_clean_linker_0, # of connection points: 2
#     Edge 13, Type (0, 0), BuildingBlock: CIFDUS_clean_linker_0, # of connection points: 2
#     Edge 14, Type (0, 0), BuildingBlock: CIFDUS_clean_linker_0, # of connection points: 2
#     Edge 15, Type (0, 0), BuildingBlock: CIFDUS_clean_linker_0, # of connection points: 2
#     Edge 16, Type (0, 0), BuildingBlock: CIFDUS_clean_linker_0, # of connection points: 2
#     Edge 17, Type (0, 0), BuildingBlock: CIFDUS_clean_linker_0, # of connection points: 2
#     Edge 18, Type (0, 0), BuildingBlock: CIFDUS_clean_linker_0, # of connection points: 2
#     Edge 19, Type (0, 0), BuildingBlock: CIFDUS_clean_linker_0, # of connection points: 2
#     Edge 20, Type (0, 0), BuildingBlock: CIFDUS_clean_linker_0, # of connection points: 2
#     Edge 21, Type (0, 0), BuildingBlock: CIFDUS_clean_linker_0, # of connection points: 2
#     Edge 22, Type (0, 0), BuildingBlock: CIFDUS_clean_linker_0, # of connection points: 2
#     Edge 23, Type (0, 0), BuildingBlock: CIFDUS_clean_linker_0, # of connection points: 2
# Relax obj value: 0.146
# Max RMSD: 0.121
# Mean RMSD: 0.121
data_MOF--net-umw--node1-AZAVOO_clean_sbu_0--edge1-CIFDUS_clean_linker_0
_symmetry_space_group_name_H-M    P1
_symmetry_Int_Tables_number       1
_symmetry_cell_setting            triclinic
loop_
_symmetry_equiv_pos_as_xyz
'x, y, z'
_cell_length_a     38.465256
_cell_length_b     38.483096
_cell_length_c     20.348661
_cell_angle_alpha  89.9296
_cell_angle_beta   89.921511
_cell_angle_gamma 89.853194
loop_
_atom_site_label
_atom_site_type_symbol
_atom_site_fract_x
_atom_site_fract_y
_atom_site_fract_z
_atom_type_partial_charge
Mg0 Mg 0.35561 0.18327 0.20271 0.0
O1 O 0.39468 0.18458 0.2884 0.0
O2 O 0.43839 0.14822 0.26447 0.0
Mg3 Mg 0.42647 0.12212 0.16673 0.0
C4 C 0.42377 0.17025 0.30236 0.0
C5 C 0.31471 0.23732 0.29223 0.0
O6 O 0.30889 0.20993 0.32918 0.0
O7 O 0.39214 0.21397 0.13572 0.0
O8 O 0.43332 0.1744 0.11475 0.0
O9 O 0.32671 0.13987 0.25174 0.0
O10 O 0.37064 0.13231 0.18303 0.0
C11 C 0.42037 0.20474 0.10776 0.0
C12 C 0.34837 0.11901 0.22299 0.0
O13 O 0.33172 0.23385 0.23903 0.0
Mg14 Mg 0.87893 0.35068 0.49217 0.0
O15 O 0.87724 0.3906 0.57578 0.0
O16 O 0.90999 0.43636 0.54976 0.0
Mg17 Mg 0.93537 0.42364 0.45043 0.0
C18 C 0.88954 0.42051 0.58893 0.0
C19 C 0.83384 0.3152 0.59771 0.0
O20 O 0.86333 0.31998 0.62891 0.0
O21 O 0.84509 0.38426 0.42532 0.0
O22 O 0.88205 0.42689 0.39893 0.0
O23 O 0.92414 0.32503 0.53942 0.0
O24 O 0.92934 0.36669 0.46525 0.0
C25 C 0.85241 0.41215 0.39439 0.0
C26 C 0.94406 0.34546 0.50572 0.0
O27 O 0.83142 0.3249 0.53814 0.0
Mg28 Mg 0.62061 0.83613 0.72977 0.0
O29 O 0.58193 0.83975 0.81554 0.0
O30 O 0.53715 0.87356 0.78698 0.0
Mg31 Mg 0.54809 0.89339 0.68337 0.0
C32 C 0.55285 0.85425 0.82841 0.0
C33 C 0.65501 0.79491 0.84096 0.0
O34 O 0.64935 0.82548 0.86765 0.0
O35 O 0.58491 0.80039 0.67069 0.0
O36 O 0.54347 0.8384 0.64246 0.0
O37 O 0.6487 0.88296 0.7668 0.0
O38 O 0.60451 0.88536 0.69771 0.0
C39 C 0.55671 0.80797 0.64091 0.0
C40 C 0.62692 0.90151 0.73323 0.0
O41 O 0.64647 0.79018 0.7813 0.0
Mg42 Mg 0.14495 0.60233 0.0886 0.0
O43 O 0.12586 0.57135 0.17835 0.0
O44 O 0.07814 0.54195 0.15092 0.0
Mg45 Mg 0.06869 0.55158 0.04157 0.0
C46 C 0.10081 0.55106 0.1932 0.0
C47 C 0.21528 0.63519 0.11183 0.0
O48 O 0.20905 0.64137 0.0494 0.0
O49 O 0.16933 0.55348 0.04378 0.0
O50 O 0.12049 0.52501 0.0178 0.0
O51 O 0.1074 0.6449 0.11373 0.0
O52 O 0.09619 0.60126 0.04625 0.0
C53 C 0.15362 0.52712 0.02003 0.0
C54 C 0.08571 0.6287 0.07612 0.0
O55 O 0.19384 0.61674 0.14389 0.0
Mg56 Mg 0.3819 0.85001 0.2694 0.0
O57 O 0.41807 0.85096 0.17967 0.0
O58 O 0.46511 0.88232 0.20431 0.0
Mg59 Mg 0.45725 0.90433 0.30733 0.0
C60 C 0.44768 0.86358 0.16463 0.0
C61 C 0.34417 0.77737 0.25271 0.0
O62 O 0.35009 0.77432 0.31603 0.0
O63 O 0.41801 0.81354 0.32566 0.0
O64 O 0.46172 0.84936 0.35055 0.0
O65 O 0.35415 0.89696 0.23258 0.0
O66 O 0.40028 0.89882 0.29732 0.0
C67 C 0.44711 0.81961 0.35321 0.0
C68 C 0.37739 0.91518 0.26284 0.0
O69 O 0.35366 0.80473 0.22279 0.0
Mg70 Mg 0.20091 0.3964 0.56034 0.0
O71 O 0.17087 0.44395 0.52679 0.0
O72 O 0.11592 0.44221 0.56205 0.0
Mg73 Mg 0.11422 0.39654 0.63558 0.0
C74 C 0.14016 0.45629 0.52844 0.0
C75 C 0.27174 0.41398 0.47804 0.0
O76 O 0.29584 0.43633 0.46066 0.0
O77 O 0.2106 0.42167 0.66023 0.0
O78 O 0.15656 0.41984 0.70091 0.0
O79 O 0.17458 0.36858 0.47632 0.0
O80 O 0.15444 0.36985 0.57788 0.0
C81 C 0.18875 0.42733 0.70623 0.0
C82 C 0.14961 0.36216 0.5173 0.0
O83 O 0.24906 0.42348 0.51981 0.0
Mg84 Mg 0.59978 0.17207 0.73671 0.0
O85 O 0.56453 0.17484 0.64516 0.0
O86 O 0.5163 0.14476 0.66843 0.0
Mg87 Mg 0.522 0.11961 0.76907 0.0
C88 C 0.53431 0.16373 0.62991 0.0
C89 C 0.66264 0.21959 0.72458 0.0
O90 O 0.66997 0.20027 0.77606 0.0
O91 O 0.56443 0.20916 0.79427 0.0
O92 O 0.5198 0.17363 0.81546 0.0
O93 O 0.62615 0.12429 0.69929 0.0
O94 O 0.57873 0.12389 0.76073 0.0
C95 C 0.53495 0.20298 0.82072 0.0
C96 C 0.60168 0.10685 0.72781 0.0
O97 O 0.63334 0.21579 0.69682 0.0
Mg98 Mg 0.82575 0.5941 0.01198 0.0
O99 O 0.83764 0.55754 0.92474 0.0
O100 O 0.88275 0.52415 0.95366 0.0
Mg101 Mg 0.90118 0.54074 0.05553 0.0
C102 C 0.85948 0.53332 0.91251 0.0
C103 C 0.76242 0.63756 0.99332 0.0
O104 O 0.77727 0.6484 0.04767 0.0
O105 O 0.80164 0.55055 0.0749 0.0
O106 O 0.85046 0.52185 0.10113 0.0
O107 O 0.86341 0.63271 0.97104 0.0
O108 O 0.87678 0.592 0.04381 0.0
C109 C 0.8176 0.52608 0.10511 0.0
C110 C 0.88643 0.6175 0.00744 0.0
O111 O 0.77482 0.61078 0.96528 0.0
H112 H 0.49251 0.17047 0.33182 0.0
H113 H 0.39085 0.18441 0.41775 0.0
H114 H 0.41657 0.18595 0.52754 0.0
H115 H 0.46733 0.17739 0.5993 0.0
H116 H 0.56935 0.16655 0.51362 0.0
H117 H 0.54422 0.1701 0.40325 0.0
C118 C 0.4761 0.17432 0.37461 0.0
C119 C 0.43984 0.17685 0.36697 0.0
C120 C 0.49109 0.17551 0.43743 0.0
C121 C 0.41884 0.18239 0.4225 0.0
C122 C 0.4335 0.18306 0.48526 0.0
C123 C 0.48405 0.17627 0.55635 0.0
C124 C 0.52001 0.17125 0.56422 0.0
C125 C 0.46947 0.17873 0.49335 0.0
C126 C 0.54157 0.17039 0.50854 0.0
C127 C 0.5272 0.17222 0.44555 0.0
H128 H 0.87378 0.48805 0.61558 0.0
H129 H 0.88728 0.38775 0.70673 0.0
H130 H 0.87836 0.41354 0.81529 0.0
H131 H 0.86955 0.46523 0.88472 0.0
H132 H 0.85054 0.56464 0.79372 0.0
H133 H 0.85833 0.53871 0.68471 0.0
C134 C 0.87457 0.47193 0.65933 0.0
C135 C 0.88158 0.43619 0.65349 0.0
C136 C 0.86837 0.48678 0.72147 0.0
C137 C 0.88196 0.41535 0.7102 0.0
C138 C 0.87695 0.43009 0.77223 0.0
C139 C 0.86676 0.48106 0.84088 0.0
C140 C 0.85974 0.51677 0.84701 0.0
C141 C 0.87053 0.46583 0.77851 0.0
C142 C 0.85578 0.53703 0.79004 0.0
C143 C 0.86046 0.52227 0.7278 0.0
H144 H 0.51511 0.85502 0.12958 0.0
H145 H 0.41124 0.85929 0.0505 0.0
H146 H 0.43451 0.85554 0.93873 0.0
H147 H 0.48474 0.85475 0.8635 0.0
H148 H 0.58834 0.8465 0.94302 0.0
H149 H 0.56488 0.84773 0.05464 0.0
C150 C 0.49763 0.85488 0.08778 0.0
C151 C 0.46161 0.85783 0.09795 0.0
C152 C 0.51114 0.85206 0.02389 0.0
C153 C 0.4391 0.85704 0.04369 0.0
C154 C 0.45238 0.85504 0.97986 0.0
C155 C 0.50209 0.85292 0.90535 0.0
C156 C 0.53819 0.8509 0.89519 0.0
C157 C 0.48839 0.8531 0.96936 0.0
C158 C 0.56043 0.84802 0.94966 0.0
C159 C 0.54706 0.84891 0.01348 0.0
H160 H 0.08333 0.46128 0.45061 0.0
H161 H 0.18023 0.51168 0.49662 0.0
H162 H 0.17458 0.54857 0.39934 0.0
H163 H 0.14633 0.5607 0.29406 0.0
H164 H 0.0513 0.50748 0.24391 0.0
H165 H 0.05195 0.47765 0.34974 0.0
C166 C 0.10254 0.48118 0.44041 0.0
C167 C 0.13202 0.48402 0.48078 0.0
C168 C 0.09988 0.50124 0.38279 0.0
C169 C 0.15723 0.50925 0.46628 0.0
C170 C 0.15416 0.5301 0.41041 0.0
C171 C 0.12548 0.54293 0.30646 0.0
C172 C 0.0991 0.53606 0.26044 0.0
C173 C 0.12629 0.52539 0.36702 0.0
C174 C 0.07219 0.51307 0.27789 0.0
C175 C 0.07249 0.49597 0.33855 0.0
H176 H 0.2785 0.2551 0.4031 0.0
H177 H 0.32831 0.29893 0.23165 0.0
H178 H 0.31708 0.35727 0.27238 0.0
H179 H 0.29708 0.39586 0.35974 0.0
H180 H 0.24751 0.35324 0.53192 0.0
H181 H 0.25415 0.29449 0.48739 0.0
C182 C 0.28662 0.27741 0.37439 0.0
C183 C 0.3046 0.27253 0.31474 0.0
C184 C 0.28014 0.31113 0.3982 0.0
C185 C 0.31465 0.3018 0.27792 0.0
C186 C 0.30828 0.33526 0.30118 0.0
C187 C 0.28746 0.37372 0.38731 0.0
C188 C 0.27187 0.37883 0.44898 0.0
C189 C 0.29169 0.34019 0.36175 0.0
C190 C 0.25922 0.35 0.48392 0.0
C191 C 0.26331 0.31639 0.45872 0.0
H192 H 0.76737 0.30762 0.55333 0.0
H193 H 0.83394 0.28493 0.71872 0.0
H194 H 0.78626 0.25525 0.77397 0.0
H195 H 0.72658 0.23355 0.77364 0.0
H196 H 0.65953 0.256 0.60896 0.0
H197 H 0.70637 0.28831 0.55562 0.0
C198 C 0.77142 0.29623 0.60151 0.0
C199 C 0.8043 0.29826 0.63152 0.0
C200 C 0.7438 0.27922 0.63327 0.0
C201 C 0.80898 0.28366 0.69427 0.0
C202 C 0.78171 0.26666 0.72601 0.0
C203 C 0.72207 0.24571 0.72629 0.0
C204 C 0.68966 0.24214 0.6952 0.0
C205 C 0.74914 0.26399 0.69572 0.0
C206 C 0.68425 0.25829 0.63401 0.0
C207 C 0.71107 0.27666 0.60332 0.0
H208 H 0.73445 0.69742 0.03883 0.0
H209 H 0.73313 0.62858 0.87156 0.0
H210 H 0.69804 0.67063 0.81026 0.0
H211 H 0.67199 0.72914 0.80132 0.0
H212 H 0.67526 0.79792 0.96879 0.0
H213 H 0.70547 0.7537 0.03257 0.0
C214 C 0.72617 0.69134 0.98923 0.0
C215 C 0.73668 0.66002 0.95968 0.0
C216 C 0.70671 0.71586 0.95393 0.0
C217 C 0.72548 0.65253 0.89549 0.0
C218 C 0.70558 0.67667 0.86025 0.0
C219 C 0.67915 0.73436 0.85187 0.0
C220 C 0.6717 0.76699 0.87989 0.0
C221 C 0.69677 0.70879 0.88845 0.0
C222 C 0.68092 0.77321 0.94567 0.0
C223 C 0.69817 0.7479 0.98235 0.0
H224 H 0.25919 0.68272 0.0598 0.0
H225 H 0.23342 0.63102 0.24178 0.0
H226 H 0.27331 0.66899 0.30123 0.0
H227 H 0.31131 0.72041 0.30273 0.0
H228 H 0.33478 0.77303 0.12044 0.0
H229 H 0.3 0.7311 0.06009 0.0
C230 C 0.26259 0.67939 0.11235 0.0
C231 C 0.24308 0.65431 0.14634 0.0
C232 C 0.28489 0.70176 0.14636 0.0
C233 C 0.24798 0.65028 0.21441 0.0
C234 C 0.27068 0.67207 0.24852 0.0
C235 C 0.30906 0.7225 0.24976 0.0
C236 C 0.32528 0.75008 0.21634 0.0
C237 C 0.28858 0.6985 0.21522 0.0
C238 C 0.32225 0.75232 0.14759 0.0
C239 C 0.30239 0.72831 0.11291 0.0
H240 H 0.32206 0.95839 0.25797 0.0
H241 H 0.43411 0.9572 0.25426 0.0
H242 H 0.43503 0.02044 0.2434 0.0
H243 H 0.40386 0.07587 0.23335 0.0
H244 H 0.29197 0.07791 0.24265 0.0
H245 H 0.29092 0.01451 0.2543 0.0
C246 C 0.34662 0.97209 0.25464 0.0
C247 C 0.37798 0.9533 0.25662 0.0
C248 C 0.34691 0.00849 0.24982 0.0
C249 C 0.40969 0.97117 0.25335 0.0
C250 C 0.41021 0.0073 0.24691 0.0
C251 C 0.37928 0.06242 0.23746 0.0
C252 C 0.34802 0.08133 0.23595 0.0
C253 C 0.37898 0.02619 0.24486 0.0
C254 C 0.31635 0.06376 0.24365 0.0
C255 C 0.31575 0.02757 0.24992 0.0
H256 H 0.99409 0.37158 0.4237 0.0
H257 H 0.97988 0.31566 0.60583 0.0
H258 H 0.04262 0.312 0.62035 0.0
H259 H 0.10127 0.32718 0.58499 0.0
H260 H 0.11698 0.38342 0.40421 0.0
H261 H 0.05404 0.38359 0.38429 0.0
C262 C 0.00479 0.35868 0.46658 0.0
C263 C 0.98229 0.34424 0.51401 0.0
C264 C 0.04113 0.35624 0.47429 0.0
C265 C 0.99654 0.32715 0.56879 0.0
C266 C 0.03245 0.32491 0.57705 0.0
C267 C 0.09094 0.33878 0.54044 0.0
C268 C 0.11365 0.35503 0.49593 0.0
C269 C 0.05492 0.33952 0.53041 0.0
C270 C 0.10004 0.37016 0.43858 0.0
C271 C 0.06402 0.37072 0.42778 0.0
H272 H 0.57255 0.94618 0.72021 0.0
H273 H 0.68326 0.94272 0.75206 0.0
H274 H 0.68561 0.00627 0.74907 0.0
H275 H 0.65599 0.06278 0.73673 0.0
H276 H 0.54474 0.06587 0.71237 0.0
H277 H 0.54268 0.00233 0.71196 0.0
C278 C 0.59719 0.95925 0.72601 0.0
C279 C 0.62773 0.93981 0.7355 0.0
C280 C 0.5982 0.99568 0.72521 0.0
C281 C 0.65939 0.95721 0.74481 0.0
C282 C 0.66076 0.99349 0.74274 0.0
C283 C 0.63139 0.04941 0.73078 0.0
C284 C 0.60057 0.06872 0.72414 0.0
C285 C 0.63035 0.01296 0.73262 0.0
C286 C 0.56872 0.05139 0.71778 0.0
C287 C 0.56757 0.01513 0.7175 0.0
H288 H 0.92507 0.63288 0.11242 0.0
H289 H 0.92895 0.62447 0.90144 0.0
H290 H 0.99234 0.63164 0.90372 0.0
H291 H 0.04661 0.63252 0.96774 0.0
H292 H 0.04255 0.64335 0.17835 0.0
H293 H 0.97882 0.64383 0.1747 0.0
C294 C 0.9399 0.63333 0.067 0.0
C295 C 0.92297 0.62781 0.00691 0.0
C296 C 0.97597 0.63785 0.06889 0.0
C297 C 0.94184 0.62873 0.94805 0.0
C298 C 0.97793 0.63265 0.94948 0.0
C299 C 0.03162 0.63592 0.01251 0.0
C300 C 0.04877 0.63771 0.07324 0.0
C301 C 0.99528 0.63615 0.00981 0.0
C302 C 0.02958 0.64222 0.13117 0.0
C303 C 0.99328 0.64213 0.12907 0.0
H304 H 0.46962 0.22847 0.82962 0.0
H305 H 0.56883 0.22703 0.92731 0.0
H306 H 0.54034 0.23674 0.033 0.0
H307 H 0.48679 0.22675 0.09724 0.0
H308 H 0.38757 0.22851 0.99956 0.0
H309 H 0.41624 0.2386 0.89408 0.0
C310 C 0.48502 0.23234 0.87363 0.0
C311 C 0.52104 0.22639 0.87135 0.0
C312 C 0.46834 0.23708 0.93434 0.0
C313 C 0.541 0.2315 0.92818 0.0
C314 C 0.52464 0.23647 0.98881 0.0
C315 C 0.47148 0.23124 0.05327 0.0
C316 C 0.43535 0.22633 0.05543 0.0
C317 C 0.48823 0.23651 0.99276 0.0
C318 C 0.41549 0.2322 0.99869 0.0
C319 C 0.43192 0.23752 0.93826 0.0
H320 H 0.80962 0.45663 0.11673 0.0
H321 H 0.79155 0.55364 0.21623 0.0
H322 H 0.79517 0.52439 0.3226 0.0
H323 H 0.81961 0.4745 0.38435 0.0
H324 H 0.8356 0.37704 0.2849 0.0
H325 H 0.81612 0.4028 0.18142 0.0
C326 C 0.80437 0.47088 0.16166 0.0
C327 C 0.80065 0.50715 0.15901 0.0
C328 C 0.8072 0.45393 0.22262 0.0
C329 C 0.79417 0.52559 0.21727 0.0
C330 C 0.79694 0.50896 0.27818 0.0
C331 C 0.81728 0.45864 0.34053 0.0
C332 C 0.8293 0.42417 0.34155 0.0
C333 C 0.80591 0.47364 0.28126 0.0
C334 C 0.82634 0.40366 0.28489 0.0
C335 C 0.81548 0.41845 0.22565 0.0
H336 H 0.49132 0.78325 0.6283 0.0
H337 H 0.59195 0.7845 0.53555 0.0
H338 H 0.56489 0.77937 0.42767 0.0
H339 H 0.51273 0.79441 0.36277 0.0
H340 H 0.41203 0.79209 0.45541 0.0
H341 H 0.43873 0.7767 0.56026 0.0
C342 C 0.5073 0.78014 0.58469 0.0
C343 C 0.54337 0.78502 0.58927 0.0
C344 C 0.49144 0.77803 0.52274 0.0
C345 C 0.56405 0.78088 0.53292 0.0
C346 C 0.54852 0.7786 0.47105 0.0
C347 C 0.49661 0.78862 0.40518 0.0
C348 C 0.46071 0.79506 0.40224 0.0
C349 C 0.51222 0.78014 0.46545 0.0
C350 C 0.43981 0.78737 0.45693 0.0
C351 C 0.45511 0.77899 0.51711 0.0
H352 H 0.20311 0.53662 0.92706 0.0
H353 H 0.14519 0.45776 0.03009 0.0
H354 H 0.15832 0.41583 0.94371 0.0
H355 H 0.17321 0.40675 0.82829 0.0
H356 H 0.22757 0.48619 0.72043 0.0
H357 H 0.22949 0.52272 0.81914 0.0
C358 C 0.19485 0.5098 0.93185 0.0
C359 C 0.17301 0.50017 0.98423 0.0
C360 C 0.20105 0.48631 0.88019 0.0
C361 C 0.16197 0.46557 0.9899 0.0
C362 C 0.16915 0.44175 0.9402 0.0
C363 C 0.18648 0.43161 0.82721 0.0
C364 C 0.19971 0.4442 0.76754 0.0
C365 C 0.18663 0.45256 0.88334 0.0
C366 C 0.21717 0.47615 0.76616 0.0
C367 C 0.21798 0.4971 0.8224 0.0
loop_
_geom_bond_atom_site_label_1
_geom_bond_atom_site_label_2
_geom_bond_distance
_geom_bond_site_symmetry_2
_ccdc_geom_bond_type
Mg0 O1 2.028 . S
Mg0 O7 1.986 . S
Mg0 O9 2.114 . S
Mg0 O10 2.251 . S
Mg0 O13 2.010 . S
O1 Mg0 2.028 . S
O1 C4 1.250 . S
O2 Mg3 2.028 . S
O2 C4 1.248 . S
Mg3 O2 2.028 . S
Mg3 O8 2.032 . S
Mg3 O10 2.079 . S
C4 O1 1.250 . S
C4 O2 1.248 . S
C5 O6 1.264 . S
C5 O13 1.249 . S
O6 C5 1.264 . S
O7 Mg0 1.986 . S
O7 C11 1.246 . S
O8 Mg3 2.032 . S
O8 C11 1.259 . S
O9 Mg0 2.114 . S
O9 C12 1.252 . S
O10 Mg0 2.251 . S
O10 Mg3 2.079 . S
O10 C12 1.273 . S
C11 O7 1.246 . S
C11 O8 1.259 . S
C12 O9 1.252 . S
C12 O10 1.273 . S
O13 Mg0 2.010 . S
O13 C5 1.249 . S
Mg14 O15 2.028 . S
Mg14 O21 1.986 . S
Mg14 O23 2.114 . S
Mg14 O24 2.251 . S
Mg14 O27 2.010 . S
O15 Mg14 2.028 . S
O15 C18 1.250 . S
O16 Mg17 2.028 . S
O16 C18 1.248 . S
Mg17 O16 2.028 . S
Mg17 O22 2.032 . S
Mg17 O24 2.079 . S
C18 O15 1.250 . S
C18 O16 1.248 . S
C19 O20 1.264 . S
C19 O27 1.249 . S
O20 C19 1.264 . S
O21 Mg14 1.986 . S
O21 C25 1.246 . S
O22 Mg17 2.032 . S
O22 C25 1.259 . S
O23 Mg14 2.114 . S
O23 C26 1.252 . S
O24 Mg14 2.251 . S
O24 Mg17 2.079 . S
O24 C26 1.273 . S
C25 O21 1.246 . S
C25 O22 1.259 . S
C26 O23 1.252 . S
C26 O24 1.273 . S
O27 Mg14 2.010 . S
O27 C19 1.249 . S
Mg28 O29 2.028 . S
Mg28 O35 1.986 . S
Mg28 O37 2.114 . S
Mg28 O38 2.251 . S
Mg28 O41 2.010 . S
O29 Mg28 2.028 . S
O29 C32 1.250 . S
O30 Mg31 2.028 . S
O30 C32 1.248 . S
Mg31 O30 2.028 . S
Mg31 O36 2.032 . S
Mg31 O38 2.079 . S
C32 O29 1.250 . S
C32 O30 1.248 . S
C33 O34 1.264 . S
C33 O41 1.249 . S
O34 C33 1.264 . S
O35 Mg28 1.986 . S
O35 C39 1.246 . S
O36 Mg31 2.032 . S
O36 C39 1.259 . S
O37 Mg28 2.114 . S
O37 C40 1.252 . S
O38 Mg28 2.251 . S
O38 Mg31 2.079 . S
O38 C40 1.273 . S
C39 O35 1.246 . S
C39 O36 1.259 . S
C40 O37 1.252 . S
C40 O38 1.273 . S
O41 Mg28 2.010 . S
O41 C33 1.249 . S
Mg42 O43 2.028 . S
Mg42 O49 1.986 1_554 S
Mg42 O51 2.114 . S
Mg42 O52 2.251 . S
Mg42 O55 2.010 . S
O43 Mg42 2.028 . S
O43 C46 1.250 . S
O44 Mg45 2.028 . S
O44 C46 1.248 . S
Mg45 O44 2.028 . S
Mg45 O50 2.032 1_554 S
Mg45 O52 2.079 . S
C46 O43 1.250 . S
C46 O44 1.248 . S
C47 O48 1.264 . S
C47 O55 1.249 . S
O48 C47 1.264 . S
O49 Mg42 1.986 1_556 S
O49 C53 1.246 . S
O50 Mg45 2.032 1_556 S
O50 C53 1.259 . S
O51 Mg42 2.114 . S
O51 C54 1.252 . S
O52 Mg42 2.251 . S
O52 Mg45 2.079 . S
O52 C54 1.273 . S
C53 O49 1.246 . S
C53 O50 1.259 . S
C54 O51 1.252 . S
C54 O52 1.273 . S
O55 Mg42 2.010 . S
O55 C47 1.249 . S
Mg56 O57 2.028 . S
Mg56 O63 1.986 . S
Mg56 O65 2.114 . S
Mg56 O66 2.251 . S
Mg56 O69 2.010 . S
O57 Mg56 2.028 . S
O57 C60 1.250 . S
O58 Mg59 2.028 . S
O58 C60 1.248 . S
Mg59 O58 2.028 . S
Mg59 O64 2.032 . S
Mg59 O66 2.079 . S
C60 O57 1.250 . S
C60 O58 1.248 . S
C61 O62 1.264 . S
C61 O69 1.249 . S
O62 C61 1.264 . S
O63 Mg56 1.986 . S
O63 C67 1.246 . S
O64 Mg59 2.032 . S
O64 C67 1.259 . S
O65 Mg56 2.114 . S
O65 C68 1.252 . S
O66 Mg56 2.251 . S
O66 Mg59 2.079 . S
O66 C68 1.273 . S
C67 O63 1.246 . S
C67 O64 1.259 . S
C68 O65 1.252 . S
C68 O66 1.273 . S
O69 Mg56 2.010 . S
O69 C61 1.249 . S
Mg70 O71 2.028 . S
Mg70 O77 1.986 . S
Mg70 O79 2.114 . S
Mg70 O80 2.251 . S
Mg70 O83 2.010 . S
O71 Mg70 2.028 . S
O71 C74 1.250 . S
O72 Mg73 2.028 . S
O72 C74 1.248 . S
Mg73 O72 2.028 . S
Mg73 O78 2.032 . S
Mg73 O80 2.079 . S
C74 O71 1.250 . S
C74 O72 1.248 . S
C75 O76 1.264 . S
C75 O83 1.249 . S
O76 C75 1.264 . S
O77 Mg70 1.986 . S
O77 C81 1.246 . S
O78 Mg73 2.032 . S
O78 C81 1.259 . S
O79 Mg70 2.114 . S
O79 C82 1.252 . S
O80 Mg70 2.251 . S
O80 Mg73 2.079 . S
O80 C82 1.273 . S
C81 O77 1.246 . S
C81 O78 1.259 . S
C82 O79 1.252 . S
C82 O80 1.273 . S
O83 Mg70 2.010 . S
O83 C75 1.249 . S
Mg84 O85 2.028 . S
Mg84 O91 1.986 . S
Mg84 O93 2.114 . S
Mg84 O94 2.251 . S
Mg84 O97 2.010 . S
O85 Mg84 2.028 . S
O85 C88 1.250 . S
O86 Mg87 2.028 . S
O86 C88 1.248 . S
Mg87 O86 2.028 . S
Mg87 O92 2.032 . S
Mg87 O94 2.079 . S
C88 O85 1.250 . S
C88 O86 1.248 . S
C89 O90 1.264 . S
C89 O97 1.249 . S
O90 C89 1.264 . S
O91 Mg84 1.986 . S
O91 C95 1.246 . S
O92 Mg87 2.032 . S
O92 C95 1.259 . S
O93 Mg84 2.114 . S
O93 C96 1.252 . S
O94 Mg84 2.251 . S
O94 Mg87 2.079 . S
O94 C96 1.273 . S
C95 O91 1.246 . S
C95 O92 1.259 . S
C96 O93 1.252 . S
C96 O94 1.273 . S
O97 Mg84 2.010 . S
O97 C89 1.249 . S
Mg98 O99 2.028 1_554 S
Mg98 O105 1.986 . S
Mg98 O107 2.114 1_554 S
Mg98 O108 2.251 . S
Mg98 O111 2.010 . S
O99 Mg98 2.028 1_556 S
O99 C102 1.250 . S
O100 Mg101 2.028 1_556 S
O100 C102 1.248 . S
Mg101 O100 2.028 1_554 S
Mg101 O106 2.032 . S
Mg101 O108 2.079 . S
C102 O99 1.250 . S
C102 O100 1.248 . S
C103 O104 1.257 1_556 S
C103 O111 1.245 1_556 S
O104 C103 1.257 1_554 S
O105 Mg98 1.986 . S
O105 C109 1.246 . S
O106 Mg101 2.032 . S
O106 C109 1.259 . S
O107 Mg98 2.114 1_556 S
O107 C110 1.252 1_556 S
O108 Mg98 2.251 . S
O108 Mg101 2.079 . S
O108 C110 1.273 . S
C109 O105 1.246 . S
C109 O106 1.259 . S
C110 O107 1.252 1_554 S
C110 O108 1.273 . S
O111 Mg98 2.010 . S
O111 C103 1.245 1_554 S
H112 C118 0.930 . S
H113 C121 0.930 . S
H114 C122 0.930 . S
H115 C123 0.930 . S
H116 C126 0.930 . S
H117 C127 0.930 . S
C118 H112 0.930 . S
C118 C119 1.355 . S
C118 C120 1.415 . S
C119 C118 1.355 . S
C119 C121 1.419 . S
C120 C118 1.415 . S
C120 C125 1.425 . S
C120 C127 1.409 . S
C121 H113 0.930 . S
C121 C119 1.419 . S
C121 C122 1.362 . S
C122 H114 0.930 . S
C122 C121 1.362 . S
C122 C125 1.409 . S
C123 H115 0.930 . S
C123 C124 1.355 . S
C123 C125 1.415 . S
C124 C123 1.355 . S
C124 C126 1.419 . S
C125 C120 1.425 . S
C125 C122 1.409 . S
C125 C123 1.415 . S
C126 H116 0.930 . S
C126 C124 1.419 . S
C126 C127 1.362 . S
C127 H117 0.930 . S
C127 C120 1.409 . S
C127 C126 1.362 . S
H128 C134 0.930 . S
H129 C137 0.930 . S
H130 C138 0.930 . S
H131 C139 0.930 . S
H132 C142 0.930 . S
H133 C143 0.930 . S
C134 H128 0.930 . S
C134 C135 1.355 . S
C134 C136 1.415 . S
C135 C134 1.355 . S
C135 C137 1.419 . S
C136 C134 1.415 . S
C136 C141 1.425 . S
C136 C143 1.409 . S
C137 H129 0.930 . S
C137 C135 1.419 . S
C137 C138 1.362 . S
C138 H130 0.930 . S
C138 C137 1.362 . S
C138 C141 1.409 . S
C139 H131 0.930 . S
C139 C140 1.355 . S
C139 C141 1.415 . S
C140 C139 1.355 . S
C140 C142 1.419 . S
C141 C136 1.425 . S
C141 C138 1.409 . S
C141 C139 1.415 . S
C142 H132 0.930 . S
C142 C140 1.419 . S
C142 C143 1.362 . S
C143 H133 0.930 . S
C143 C136 1.409 . S
C143 C142 1.362 . S
H144 C150 0.930 . S
H145 C153 0.930 . S
H146 C154 0.930 . S
H147 C155 0.930 . S
H148 C158 0.930 . S
H149 C159 0.930 . S
C150 H144 0.930 . S
C150 C151 1.355 . S
C150 C152 1.415 . S
C151 C150 1.355 . S
C151 C153 1.419 . S
C152 C150 1.415 . S
C152 C157 1.425 . S
C152 C159 1.409 . S
C153 H145 0.930 . S
C153 C151 1.419 . S
C153 C154 1.362 . S
C154 H146 0.930 . S
C154 C153 1.362 . S
C154 C157 1.409 . S
C155 H147 0.930 . S
C155 C156 1.355 . S
C155 C157 1.415 1_556 S
C156 C155 1.355 . S
C156 C158 1.419 . S
C157 C152 1.425 . S
C157 C154 1.409 . S
C157 C155 1.415 1_554 S
C158 H148 0.930 . S
C158 C156 1.419 . S
C158 C159 1.362 1_556 S
C159 H149 0.930 . S
C159 C152 1.409 . S
C159 C158 1.362 1_554 S
H160 C166 0.930 . S
H161 C169 0.930 . S
H162 C170 0.930 . S
H163 C171 0.930 . S
H164 C174 0.930 . S
H165 C175 0.930 . S
C166 H160 0.930 . S
C166 C167 1.355 . S
C166 C168 1.415 . S
C167 C166 1.355 . S
C167 C169 1.419 . S
C168 C166 1.415 . S
C168 C173 1.425 . S
C168 C175 1.409 . S
C169 H161 0.930 . S
C169 C167 1.419 . S
C169 C170 1.362 . S
C170 H162 0.930 . S
C170 C169 1.362 . S
C170 C173 1.409 . S
C171 H163 0.930 . S
C171 C172 1.355 . S
C171 C173 1.415 . S
C172 C171 1.355 . S
C172 C174 1.419 . S
C173 C168 1.425 . S
C173 C170 1.409 . S
C173 C171 1.415 . S
C174 H164 0.930 . S
C174 C172 1.419 . S
C174 C175 1.362 . S
C175 H165 0.930 . S
C175 C168 1.409 . S
C175 C174 1.362 . S
H176 C182 0.930 . S
H177 C185 0.930 . S
H178 C186 0.930 . S
H179 C187 0.930 . S
H180 C190 0.930 . S
H181 C191 0.930 . S
C182 H176 0.930 . S
C182 C183 1.355 . S
C182 C184 1.415 . S
C183 C182 1.355 . S
C183 C185 1.419 . S
C184 C182 1.415 . S
C184 C189 1.425 . S
C184 C191 1.409 . S
C185 H177 0.930 . S
C185 C183 1.419 . S
C185 C186 1.362 . S
C186 H178 0.930 . S
C186 C185 1.362 . S
C186 C189 1.409 . S
C187 H179 0.930 . S
C187 C188 1.355 . S
C187 C189 1.415 . S
C188 C187 1.355 . S
C188 C190 1.419 . S
C189 C184 1.425 . S
C189 C186 1.409 . S
C189 C187 1.415 . S
C190 H180 0.930 . S
C190 C188 1.419 . S
C190 C191 1.362 . S
C191 H181 0.930 . S
C191 C184 1.409 . S
C191 C190 1.362 . S
H192 C198 0.930 . S
H193 C201 0.930 . S
H194 C202 0.930 . S
H195 C203 0.930 . S
H196 C206 0.930 . S
H197 C207 0.930 . S
C198 H192 0.930 . S
C198 C199 1.355 . S
C198 C200 1.415 . S
C199 C198 1.355 . S
C199 C201 1.419 . S
C200 C198 1.415 . S
C200 C205 1.425 . S
C200 C207 1.409 . S
C201 H193 0.930 . S
C201 C199 1.419 . S
C201 C202 1.362 . S
C202 H194 0.930 . S
C202 C201 1.362 . S
C202 C205 1.409 . S
C203 H195 0.930 . S
C203 C204 1.355 . S
C203 C205 1.415 . S
C204 C203 1.355 . S
C204 C206 1.419 . S
C205 C200 1.425 . S
C205 C202 1.409 . S
C205 C203 1.415 . S
C206 H196 0.930 . S
C206 C204 1.419 . S
C206 C207 1.362 . S
C207 H197 0.930 . S
C207 C200 1.409 . S
C207 C206 1.362 . S
H208 C214 0.930 . S
H209 C217 0.930 1_554 S
H210 C218 0.930 . S
H211 C219 0.930 . S
H212 C222 0.930 . S
H213 C223 0.930 . S
C214 H208 0.930 . S
C214 C215 1.355 . S
C214 C216 1.415 . S
C215 C214 1.355 . S
C215 C217 1.419 . S
C216 C214 1.415 . S
C216 C221 1.425 . S
C216 C223 1.409 . S
C217 H209 0.930 1_556 S
C217 C215 1.419 . S
C217 C218 1.362 . S
C218 H210 0.930 . S
C218 C217 1.362 . S
C218 C221 1.409 . S
C219 H211 0.930 . S
C219 C220 1.355 . S
C219 C221 1.415 . S
C220 C219 1.355 . S
C220 C222 1.419 . S
C221 C216 1.425 . S
C221 C218 1.409 . S
C221 C219 1.415 . S
C222 H212 0.930 . S
C222 C220 1.419 . S
C222 C223 1.362 . S
C223 H213 0.930 . S
C223 C216 1.409 . S
C223 C222 1.362 . S
H224 C230 0.930 . S
H225 C233 0.930 . S
H226 C234 0.930 . S
H227 C235 0.930 . S
H228 C238 0.930 . S
H229 C239 0.930 . S
C230 H224 0.930 . S
C230 C231 1.355 . S
C230 C232 1.415 . S
C231 C230 1.355 . S
C231 C233 1.419 . S
C232 C230 1.415 . S
C232 C237 1.425 . S
C232 C239 1.409 . S
C233 H225 0.930 . S
C233 C231 1.419 . S
C233 C234 1.362 . S
C234 H226 0.930 . S
C234 C233 1.362 . S
C234 C237 1.409 . S
C235 H227 0.930 . S
C235 C236 1.355 . S
C235 C237 1.415 . S
C236 C235 1.355 . S
C236 C238 1.419 . S
C237 C232 1.425 . S
C237 C234 1.409 . S
C237 C235 1.415 . S
C238 H228 0.930 . S
C238 C236 1.419 . S
C238 C239 1.362 . S
C239 H229 0.930 . S
C239 C232 1.409 . S
C239 C238 1.362 . S
H240 C246 0.930 . S
H241 C249 0.930 . S
H242 C250 0.930 . S
H243 C251 0.930 . S
H244 C254 0.930 . S
H245 C255 0.930 . S
C246 H240 0.930 . S
C246 C247 1.355 . S
C246 C248 1.415 . S
C247 C246 1.355 . S
C247 C249 1.419 . S
C248 C246 1.415 . S
C248 C253 1.425 1_565 S
C248 C255 1.409 1_565 S
C249 H241 0.930 . S
C249 C247 1.419 . S
C249 C250 1.362 . S
C250 H242 0.930 . S
C250 C249 1.362 . S
C250 C253 1.409 1_565 S
C251 H243 0.930 . S
C251 C252 1.355 . S
C251 C253 1.415 . S
C252 C251 1.355 . S
C252 C254 1.419 . S
C253 C248 1.425 1_545 S
C253 C250 1.409 1_545 S
C253 C251 1.415 . S
C254 H244 0.930 . S
C254 C252 1.419 . S
C254 C255 1.362 . S
C255 H245 0.930 . S
C255 C248 1.409 1_545 S
C255 C254 1.362 . S
H256 C262 0.930 . S
H257 C265 0.930 . S
H258 C266 0.930 . S
H259 C267 0.930 . S
H260 C270 0.930 . S
H261 C271 0.930 . S
C262 H256 0.930 . S
C262 C263 1.355 . S
C262 C264 1.415 . S
C263 C262 1.355 . S
C263 C265 1.419 . S
C264 C262 1.415 . S
C264 C269 1.425 1_655 S
C264 C271 1.409 1_655 S
C265 H257 0.930 . S
C265 C263 1.419 . S
C265 C266 1.362 . S
C266 H258 0.930 . S
C266 C265 1.362 . S
C266 C269 1.409 1_655 S
C267 H259 0.930 . S
C267 C268 1.355 . S
C267 C269 1.415 . S
C268 C267 1.355 . S
C268 C270 1.419 . S
C269 C264 1.425 1_455 S
C269 C266 1.409 1_455 S
C269 C267 1.415 . S
C270 H260 0.930 . S
C270 C268 1.419 . S
C270 C271 1.362 . S
C271 H261 0.930 . S
C271 C264 1.409 1_455 S
C271 C270 1.362 . S
H272 C278 0.930 . S
H273 C281 0.930 . S
H274 C282 0.930 . S
H275 C283 0.930 . S
H276 C286 0.930 . S
H277 C287 0.930 . S
C278 H272 0.930 . S
C278 C279 1.355 . S
C278 C280 1.415 . S
C279 C278 1.355 . S
C279 C281 1.419 . S
C280 C278 1.415 . S
C280 C285 1.425 1_565 S
C280 C287 1.409 1_565 S
C281 H273 0.930 . S
C281 C279 1.419 . S
C281 C282 1.362 . S
C282 H274 0.930 . S
C282 C281 1.362 . S
C282 C285 1.409 1_565 S
C283 H275 0.930 . S
C283 C284 1.355 . S
C283 C285 1.415 . S
C284 C283 1.355 . S
C284 C286 1.419 . S
C285 C280 1.425 1_545 S
C285 C282 1.409 1_545 S
C285 C283 1.415 . S
C286 H276 0.930 . S
C286 C284 1.419 . S
C286 C287 1.362 . S
C287 H277 0.930 . S
C287 C280 1.409 1_545 S
C287 C286 1.362 . S
H288 C294 0.930 . S
H289 C297 0.930 . S
H290 C298 0.930 . S
H291 C299 0.930 . S
H292 C302 0.930 . S
H293 C303 0.930 . S
C294 H288 0.930 . S
C294 C295 1.355 . S
C294 C296 1.415 . S
C295 C294 1.355 . S
C295 C297 1.419 1_554 S
C296 C294 1.415 . S
C296 C301 1.425 1_654 S
C296 C303 1.409 1_655 S
C297 H289 0.930 . S
C297 C295 1.419 1_556 S
C297 C298 1.362 . S
C298 H290 0.930 . S
C298 C297 1.362 . S
C298 C301 1.409 1_655 S
C299 H291 0.930 . S
C299 C300 1.355 1_556 S
C299 C301 1.415 . S
C300 C299 1.355 1_554 S
C300 C302 1.419 . S
C301 C296 1.425 1_456 S
C301 C298 1.409 1_455 S
C301 C299 1.415 . S
C302 H292 0.930 . S
C302 C300 1.419 . S
C302 C303 1.362 . S
C303 H293 0.930 . S
C303 C296 1.409 1_455 S
C303 C302 1.362 . S
H304 C310 0.930 . S
H305 C313 0.930 . S
H306 C314 0.930 . S
H307 C315 0.930 . S
H308 C318 0.930 . S
H309 C319 0.930 1_556 S
C310 H304 0.930 . S
C310 C311 1.355 . S
C310 C312 1.415 1_556 S
C311 C310 1.355 . S
C311 C313 1.419 . S
C312 C310 1.415 1_554 S
C312 C317 1.425 . S
C312 C319 1.409 . S
C313 H305 0.930 . S
C313 C311 1.419 . S
C313 C314 1.362 1_556 S
C314 H306 0.930 . S
C314 C313 1.362 1_554 S
C314 C317 1.409 . S
C315 H307 0.930 . S
C315 C316 1.355 . S
C315 C317 1.415 . S
C316 C315 1.355 . S
C316 C318 1.419 . S
C317 C312 1.425 . S
C317 C314 1.409 . S
C317 C315 1.415 . S
C318 H308 0.930 . S
C318 C316 1.419 . S
C318 C319 1.362 . S
C319 H309 0.930 1_554 S
C319 C312 1.409 . S
C319 C318 1.362 . S
H320 C326 0.930 . S
H321 C329 0.930 . S
H322 C330 0.930 . S
H323 C331 0.930 . S
H324 C334 0.930 . S
H325 C335 0.930 . S
C326 H320 0.930 . S
C326 C327 1.355 . S
C326 C328 1.415 . S
C327 C326 1.355 . S
C327 C329 1.419 . S
C328 C326 1.415 . S
C328 C333 1.425 . S
C328 C335 1.409 . S
C329 H321 0.930 . S
C329 C327 1.419 . S
C329 C330 1.362 . S
C330 H322 0.930 . S
C330 C329 1.362 . S
C330 C333 1.409 . S
C331 H323 0.930 . S
C331 C332 1.355 . S
C331 C333 1.415 . S
C332 C331 1.355 . S
C332 C334 1.419 . S
C333 C328 1.425 . S
C333 C330 1.409 . S
C333 C331 1.415 . S
C334 H324 0.930 . S
C334 C332 1.419 . S
C334 C335 1.362 . S
C335 H325 0.930 . S
C335 C328 1.409 . S
C335 C334 1.362 . S
H336 C342 0.930 . S
H337 C345 0.930 . S
H338 C346 0.930 . S
H339 C347 0.930 . S
H340 C350 0.930 . S
H341 C351 0.930 . S
C342 H336 0.930 . S
C342 C343 1.355 . S
C342 C344 1.415 . S
C343 C342 1.355 . S
C343 C345 1.419 . S
C344 C342 1.415 . S
C344 C349 1.425 . S
C344 C351 1.409 . S
C345 H337 0.930 . S
C345 C343 1.419 . S
C345 C346 1.362 . S
C346 H338 0.930 . S
C346 C345 1.362 . S
C346 C349 1.409 . S
C347 H339 0.930 . S
C347 C348 1.355 . S
C347 C349 1.415 . S
C348 C347 1.355 . S
C348 C350 1.419 . S
C349 C344 1.425 . S
C349 C346 1.409 . S
C349 C347 1.415 . S
C350 H340 0.930 . S
C350 C348 1.419 . S
C350 C351 1.362 . S
C351 H341 0.930 . S
C351 C344 1.409 . S
C351 C350 1.362 . S
H352 C358 0.930 . S
H353 C361 0.930 . S
H354 C362 0.930 . S
H355 C363 0.930 . S
H356 C366 0.930 . S
H357 C367 0.930 . S
C358 H352 0.930 . S
C358 C359 1.355 . S
C358 C360 1.415 . S
C359 C358 1.355 . S
C359 C361 1.419 . S
C360 C358 1.415 . S
C360 C365 1.425 . S
C360 C367 1.409 . S
C361 H353 0.930 . S
C361 C359 1.419 . S
C361 C362 1.362 . S
C362 H354 0.930 . S
C362 C361 1.362 . S
C362 C365 1.409 . S
C363 H355 0.930 . S
C363 C364 1.355 . S
C363 C365 1.415 . S
C364 C363 1.355 . S
C364 C366 1.419 . S
C365 C360 1.425 . S
C365 C362 1.409 . S
C365 C363 1.415 . S
C366 H356 0.930 . S
C366 C364 1.419 . S
C366 C367 1.362 . S
C367 H357 0.930 . S
C367 C360 1.409 . S
C367 C366 1.362 . S
C119 C4 1.363 . S
C124 C88 1.420 . S
C135 C18 1.392 . S
C140 C102 1.424 . S
C151 C60 1.364 . S
C156 C32 1.421 . S
C167 C74 1.425 . S
C172 C46 1.375 . S
C183 C5 1.193 . S
C188 C75 1.117 . S
C199 C19 1.229 . S
C204 C89 1.213 . S
C215 C103 1.164 . S
C220 C33 1.107 . S
C231 C47 1.234 . S
C236 C61 1.203 . S
C247 C68 1.322 . S
C252 C12 1.357 . S
C263 C26 1.356 . S
C268 C82 1.331 . S
C279 C40 1.357 . S
C284 C96 1.323 . S
C295 C110 1.353 . S
C300 C54 1.336 . S
C311 C95 1.332 . S
C316 C11 1.260 . S
C327 C109 1.337 . S
C332 C25 1.287 . S
C343 C39 1.304 . S
C348 C67 1.331 . S
C359 C53 1.250 . S
C364 C81 1.282 . S
