# Generated by pormake.
# Topology smc, (6)-cn, num edge types: 1
# Building blocks:
#     Node 0, Type 0, BuildingBlock: JUFBIX_clean_sbu_0, # of connection points: 6
#     Node 1, Type 0, BuildingBlock: JUFBIX_clean_sbu_0, # of connection points: 6
#     Node 2, Type 0, BuildingBlock: JUFBIX_clean_sbu_0, # of connection points: 6
#     Node 3, Type 0, BuildingBlock: JUFBIX_clean_sbu_0, # of connection points: 6
#     Node 4, Type 0, BuildingBlock: JUFBIX_clean_sbu_0, # of connection points: 6
#     Node 5, Type 0, BuildingBlock: JUFBIX_clean_sbu_0, # of connection points: 6
#     Node 6, Type 0, BuildingBlock: JUFBIX_clean_sbu_0, # of connection points: 6
#     Node 7, Type 0, BuildingBlock: JUFBIX_clean_sbu_0, # of connection points: 6
#     Node 8, Type 0, BuildingBlock: JUFBIX_clean_sbu_0, # of connection points: 6
#     Edge 9, Type (0, 0), None
#     Edge 10, Type (0, 0), None
#     Edge 11, Type (0, 0), None
#     Edge 12, Type (0, 0), None
#     Edge 13, Type (0, 0), None
#     Edge 14, Type (0, 0), None
#     Edge 15, Type (0, 0), None
#     Edge 16, Type (0, 0), None
#     Edge 17, Type (0, 0), None
#     Edge 18, Type (0, 0), None
#     Edge 19, Type (0, 0), None
#     Edge 20, Type (0, 0), None
#     Edge 21, Type (0, 0), None
#     Edge 22, Type (0, 0), None
#     Edge 23, Type (0, 0), None
#     Edge 24, Type (0, 0), None
#     Edge 25, Type (0, 0), None
#     Edge 26, Type (0, 0), None
#     Edge 27, Type (0, 0), None
#     Edge 28, Type (0, 0), None
#     Edge 29, Type (0, 0), None
#     Edge 30, Type (0, 0), None
#     Edge 31, Type (0, 0), None
#     Edge 32, Type (0, 0), None
#     Edge 33, Type (0, 0), None
#     Edge 34, Type (0, 0), None
#     Edge 35, Type (0, 0), None
# Relax obj value: 0.805
# Max RMSD: 0.356
# Mean RMSD: 0.345
data_MOF--net-smc--node1-JUFBIX_clean_sbu_0--edge1-none
_symmetry_space_group_name_H-M    P1
_symmetry_Int_Tables_number       1
_symmetry_cell_setting            triclinic
loop_
_symmetry_equiv_pos_as_xyz
'x, y, z'
_cell_length_a     13.342033
_cell_length_b     17.435927
_cell_length_c     17.287676
_cell_angle_alpha  89.648189
_cell_angle_beta   91.018129
_cell_angle_gamma 120.73757
loop_
_atom_site_label
_atom_site_type_symbol
_atom_site_fract_x
_atom_site_fract_y
_atom_site_fract_z
_atom_type_partial_charge
Co0 Co 0.23948 0.64165 0.04311 0.0
C1 C 1.09548 0.45276 0.92845 0.0
Co2 Co 1.11225 0.50052 0.05323 0.0
C3 C 0.30489 0.80683 1.00782 0.0
C4 C 0.16464 0.72577 0.93103 0.0
N5 N 0.25106 0.72602 0.97322 0.0
N6 N 0.25506 0.85672 0.99298 0.0
C7 C 0.16867 0.80619 0.94206 0.0
H8 H 0.37452 0.82519 0.04952 0.0
H9 H 1.09421 0.66742 0.90268 0.0
C10 C 0.18904 0.49207 0.17326 0.0
N11 N 1.00447 0.37025 0.08699 0.0
C12 C 0.88693 0.33557 0.10211 0.0
C13 C 1.01302 0.29484 0.08154 0.0
N14 N 0.82653 0.24692 0.10359 0.0
C15 C 0.90563 0.22146 0.09197 0.0
C16 C 0.38324 0.58294 1.02137 0.0
O17 O 0.24695 0.57148 0.14519 0.0
O18 O 1.09432 0.44225 0.14159 0.0
O19 O 0.28421 0.50663 1.03418 0.0
O20 O 0.37979 0.65394 1.01658 0.0
O21 O 1.03382 0.4109 0.98295 0.0
H22 H 1.0909 0.29493 0.06495 0.0
H23 H 0.84373 0.37341 0.10549 0.0
O24 O 0.16847 0.53894 0.94102 0.0
O25 O 1.1057 0.64842 0.07627 0.0
O26 O 0.97416 0.51194 0.06612 0.0
C27 C 0.99972 0.59143 0.07771 0.0
H28 H 1.10971 0.82492 0.91664 0.0
H29 H 0.88656 0.1538 0.08563 0.0
Co30 Co 0.66247 0.55367 0.05581 0.0
C31 C 0.69843 0.68765 0.18013 0.0
Co32 Co 0.77663 0.68935 0.04778 0.0
C33 C 0.47755 0.38411 0.10051 0.0
C34 C 0.61882 0.44736 0.18109 0.0
N35 N 0.59063 0.44754 0.10553 0.0
N36 N 0.43469 0.34374 0.16894 0.0
C37 C 0.52298 0.38707 0.2201 0.0
H38 H 0.4286 0.36363 0.04639 0.0
H39 H 0.70133 0.49402 0.20851 0.0
C40 C 0.75462 0.59642 0.91223 0.0
N41 N 0.84743 0.80432 1.01597 0.0
C42 C 0.77491 0.81892 0.97344 0.0
C43 C 0.90812 0.87793 0.0608 0.0
N44 N 0.77249 0.88911 0.99935 0.0
C45 C 0.85862 0.92938 0.0526 0.0
C46 C 0.90945 0.61916 0.08047 0.0
O47 O 0.6941 0.51916 0.94553 0.0
O48 O 0.77843 0.66227 0.95223 0.0
O49 O 0.92835 0.69606 0.06052 0.0
O50 O 0.80499 0.55972 0.09062 0.0
O51 O 0.78894 0.73109 0.14357 0.0
H52 H 0.96524 0.8849 0.10803 0.0
H53 H 0.71013 0.77031 0.9341 0.0
O54 O 0.63273 0.60566 0.15954 0.0
O55 O 0.51454 0.52811 1.01964 0.0
O56 O 0.60207 0.67059 1.03336 0.0
C57 C 0.5052 0.59518 1.02175 0.0
H58 H 0.52365 0.36528 0.27851 0.0
H59 H 0.87692 0.98612 0.08806 0.0
Co60 Co 0.54487 1.05291 1.0139 0.0
C61 C 0.54813 0.19296 0.92887 0.0
Co62 Co 0.47455 0.10745 0.07584 0.0
C63 C 0.68558 0.98029 1.00529 0.0
C64 C 0.54559 0.91621 0.92318 0.0
N65 N 0.60215 0.98914 0.96961 0.0
N66 N 0.68425 0.90743 0.98278 0.0
C67 C 0.59302 0.86349 0.93411 0.0
H68 H 0.74265 1.02235 0.05061 0.0
H69 H 0.46971 0.89818 0.88717 0.0
C70 C 0.49016 0.99505 0.17557 0.0
N71 N 0.38735 0.14599 0.11768 0.0
C72 C 0.42647 0.208 0.17178 0.0
C73 C 0.28852 0.13931 0.08912 0.0
N74 N 0.36726 0.25121 0.17119 0.0
C75 C 0.27547 0.2046 0.12273 0.0
C76 C 0.31841 0.9477 0.99455 0.0
O77 O 0.49954 0.96547 0.10954 0.0
O78 O 0.48247 0.06342 0.1728 0.0
O79 O 0.32314 0.99148 0.05432 0.0
O80 O 0.40928 0.9825 0.95696 0.0
O81 O 0.47051 0.1671 0.98052 0.0
H82 H 0.24029 0.09988 1.03908 0.0
H83 H 0.51219 0.23453 0.19797 0.0
O84 O 0.59805 0.14636 0.92635 0.0
O85 O 0.67848 0.11932 0.06325 0.0
O86 O 0.63248 0.21588 0.09963 0.0
C87 C 0.7097 0.19299 0.09251 0.0
H88 H 0.56569 0.80037 0.90603 0.0
H89 H 0.21891 0.22772 0.10106 0.0
Co90 Co 0.80742 0.86933 0.34351 0.0
C91 C 0.67736 0.74031 0.23946 0.0
Co92 Co 0.74932 0.74847 0.38793 0.0
C93 C 0.93506 0.07058 0.35344 0.0
C94 C 0.81631 1.01969 0.25841 0.0
N95 N 0.86294 0.99301 0.31488 0.0
N96 N 0.93423 0.1445 0.32544 0.0
C97 C 0.85828 0.11036 0.26535 0.0
H98 H 0.99178 0.07403 0.40063 0.0
H99 H 0.75079 0.97539 0.21691 0.0
C100 C 0.89031 0.84534 0.49721 0.0
N101 N 0.67339 0.64031 0.42501 0.0
C102 C 0.55742 0.60173 0.43037 0.0
C103 C 0.69743 0.57511 0.41626 0.0
N104 N 0.50647 0.51567 0.41589 0.0
C105 C 0.59344 0.49734 0.4098 0.0
C106 C 0.93225 0.80143 0.3026 0.0
O107 O 0.87246 0.90353 0.46149 0.0
O108 O 0.85548 0.77381 0.46307 0.0
O109 O 0.84665 0.72737 0.32523 0.0
O110 O 0.93624 0.87474 0.317 0.0
O111 O 0.63537 0.70512 0.30377 0.0
H112 H 0.78225 0.58466 0.40388 0.0
H113 H 0.51115 0.63713 0.42866 0.0
O114 O 0.74957 0.82477 0.24063 0.0
O115 O 0.66995 0.85904 0.3606 0.0
O116 O 0.65937 0.78309 0.45943 0.0
C117 C 0.64622 0.84385 0.42967 0.0
H118 H 0.83679 0.14908 0.22724 0.0
H119 H 0.58305 0.43349 0.39563 0.0
Co120 Co 0.34262 0.96787 0.36969 0.0
C121 C 0.47827 0.95436 0.25569 0.0
Co122 Co 0.49581 1.00345 0.41398 0.0
C123 C 1.11096 0.85239 0.34453 0.0
C124 C 0.19156 0.92667 0.24348 0.0
N125 N 0.20546 0.92682 0.32078 0.0
N126 N 1.03325 0.80805 0.28754 0.0
C127 C 1.08898 0.8519 0.22327 0.0
H128 H 1.08991 0.83888 0.40541 0.0
H129 H 0.2571 0.97156 0.2038 0.0
C130 C 0.38788 1.06059 0.51292 0.0
N131 N 0.63298 1.03068 0.47236 0.0
C132 C 0.67788 0.98953 0.43549 0.0
C133 C 0.61906 0.99481 0.54477 0.0
N134 N 0.65709 0.91365 0.47054 0.0
C135 C 0.62744 0.91902 0.5426 0.0
C136 C 0.47308 0.13778 0.34873 0.0
O137 O 0.31313 1.03775 0.45688 0.0
O138 O 0.44146 1.01781 0.51363 0.0
O139 O 0.54204 0.12934 0.39647 0.0
O140 O 0.4023 0.0698 0.31099 0.0
O141 O 0.55479 1.00225 0.30698 0.0
H142 H 0.58504 1.01251 0.59349 0.0
H143 H 0.69923 1.00317 0.3764 0.0
O144 O 0.3761 0.9102 0.28244 0.0
O145 O 0.27318 0.85688 0.42982 0.0
O146 O 0.43711 0.86568 0.42603 0.0
C147 C 0.32732 0.81535 0.43246 0.0
H148 H 1.05676 0.83011 0.16519 0.0
H149 H 0.59913 0.86753 0.58574 0.0
Co150 Co 0.25054 0.30991 0.33535 0.0
C151 C 0.20412 0.46424 0.25082 0.0
Co152 Co 0.14277 0.44334 0.39194 0.0
C153 C 0.3345 0.18851 0.33782 0.0
C154 C 0.38059 0.26826 0.43866 0.0
N155 N 0.30186 0.23686 0.37971 0.0
N156 N 0.43578 0.19548 0.36415 0.0
C157 C 0.46683 0.24851 0.42589 0.0
H158 H 0.28252 0.14692 0.28982 0.0
H159 H 0.38335 0.31379 0.48175 0.0
C160 C 0.12473 0.32369 0.5024 0.0
N161 N 0.19726 0.56898 0.4258 0.0
C162 C 0.29257 0.65599 0.42279 0.0
C163 C 1.10828 0.58363 0.43247 0.0
N164 N 0.26486 0.7215 0.4347 0.0
C165 C 0.14762 0.67334 0.4393 0.0
C166 C 1.03538 0.22581 0.32143 0.0
O167 O 0.17218 0.29583 0.45232 0.0
O168 O 0.12108 0.39454 0.48735 0.0
O169 O 1.04928 0.30104 0.34985 0.0
O170 O 0.12278 0.22101 0.30455 0.0
O171 O 0.16305 0.48945 0.30112 0.0
H172 H 1.01762 0.53132 0.42826 0.0
H173 H 0.37826 0.6715 0.4062 0.0
O174 O 0.22218 0.39895 0.26581 0.0
O175 O 0.37673 0.39386 0.36025 0.0
O176 O 0.31338 0.47865 0.40389 0.0
C177 C 0.39522 0.46145 0.3939 0.0
H178 H 0.54552 0.26891 0.45956 0.0
H179 H 1.09158 0.70103 0.44465 0.0
Co180 Co 0.54136 0.27657 0.6958 0.0
C181 C 0.40933 0.1246 0.58204 0.0
Co182 Co 0.42844 0.15348 0.7351 0.0
C183 C 0.61135 0.46284 0.70234 0.0
C184 C 0.56431 0.4039 0.5918 0.0
N185 N 0.59886 0.39233 0.66156 0.0
N186 N 0.58435 0.51704 0.661 0.0
C187 C 0.54581 0.47359 0.59398 0.0
H188 H 0.62761 0.46918 0.76406 0.0
H189 H 0.54763 0.36171 0.54372 0.0
C190 C 0.53203 0.24011 0.8586 0.0
N191 N 0.33578 1.03925 0.77692 0.0
C192 C 0.217 0.99685 0.78072 0.0
C193 C 0.35985 0.97323 0.77861 0.0
N194 N 0.16611 0.90747 0.77975 0.0
C195 C 0.25634 0.8926 0.78038 0.0
C196 C 0.70434 0.24298 0.71223 0.0
O197 O 0.60637 0.30211 0.8129 0.0
O198 O 0.43305 0.19461 0.8312 0.0
O199 O 0.61249 0.17371 0.74571 0.0
O200 O 0.6794 0.28714 0.66765 0.0
O201 O 0.40231 0.08982 0.64554 0.0
H202 H 0.44542 0.98252 0.76974 0.0
H203 H 0.16672 1.02934 0.77618 0.0
O204 O 0.4627 0.21202 0.58497 0.0
O205 O 0.42189 0.2993 0.72057 0.0
O206 O 0.28277 0.16533 0.71858 0.0
C207 C 0.31562 0.24872 0.71993 0.0
H208 H 0.50832 0.4938 0.54956 0.0
H209 H 0.24845 0.82782 0.77626 0.0
Co210 Co 1.02383 0.25232 0.73851 0.0
C211 C 1.08899 0.3963 0.85831 0.0
Co212 Co 1.10141 0.37214 0.71372 0.0
C213 C 0.85228 0.07521 0.76002 0.0
C214 C 0.96835 0.13713 0.85668 0.0
N215 N 0.95197 0.14769 0.78145 0.0
N216 N 0.80381 1.02028 0.81961 0.0
C217 C 0.8794 1.05812 0.87944 0.0
H218 H 0.81726 0.06161 0.7014 0.0
H219 H 1.04056 0.18422 0.89291 0.0
C220 C 1.07258 0.28516 0.58251 0.0
N221 N 0.17824 0.48331 0.6787 0.0
C222 C 0.14796 0.54238 0.6969 0.0
C223 C 0.26282 0.52325 0.6263 0.0
N224 N 0.19045 0.60993 0.64662 0.0
C225 C 0.27132 0.6027 0.60728 0.0
C226 C 0.23943 0.28967 0.73093 0.0
O227 O 1.05551 0.21764 0.62468 0.0
O228 O 1.05262 0.3382 0.61642 0.0
O229 O 0.24831 0.35902 0.69695 0.0
O230 O 0.15601 0.25165 0.77465 0.0
O231 O 0.1643 0.43099 0.80862 0.0
H232 H 0.30744 0.49358 0.59917 0.0
H233 H 1.07396 0.52545 0.73298 0.0
O234 O 1.01208 0.31266 0.84488 0.0
O235 O 0.86988 0.22278 0.7064 0.0
O236 O 0.92814 0.35946 0.72753 0.0
C237 C 0.839 0.27709 0.72 0.0
H238 H 0.88096 1.02803 0.93259 0.0
H239 H 0.32659 0.64873 0.56418 0.0
Co240 Co 0.89212 0.69672 0.68924 0.0
C241 C 0.90022 0.83168 0.58219 0.0
Co242 Co 0.80939 0.76119 0.72216 0.0
C243 C 1.08084 0.68117 0.63971 0.0
C244 C 0.91692 0.5673 0.60655 0.0
N245 N 0.96488 0.64655 0.6428 0.0
N246 N 1.10777 0.62414 0.60936 0.0
C247 C 1.0042 0.55366 0.58557 0.0
H248 H 0.1453 0.74229 0.66749 0.0
H249 H 0.82488 0.51888 0.60172 0.0
C250 C 0.78654 0.62894 0.82931 0.0
N251 N 0.73663 0.81299 0.76071 0.0
C252 C 0.78774 0.88076 0.80977 0.0
C253 C 0.64432 0.81491 0.7299 0.0
N254 N 0.73687 0.9292 0.80779 0.0
C255 C 0.64627 0.88908 0.75757 0.0
C256 C 0.66457 0.60452 0.65595 0.0
O257 O 0.83134 0.60405 0.77737 0.0
O258 O 0.79217 0.70321 0.81681 0.0
O259 O 0.6593 0.66104 0.69771 0.0
O260 O 0.76214 0.62422 0.63023 0.0
O261 O 0.8192 0.82179 0.62536 0.0
H262 H 0.58977 0.77275 0.68295 0.0
H263 H 0.87134 0.90308 0.83757 0.0
O264 O 0.94933 0.78748 0.60274 0.0
O265 O 1.02617 0.76686 0.74863 0.0
O266 O 0.9714 0.86382 0.75225 0.0
C267 C 1.05175 0.8451 0.76321 0.0
H268 H 0.99137 0.48971 0.56777 0.0
H269 H 0.59568 0.91744 0.73576 0.0
loop_
_geom_bond_atom_site_label_1
_geom_bond_atom_site_label_2
_geom_bond_distance
_geom_bond_site_symmetry_2
_ccdc_geom_bond_type
Co0 N5 2.057 1_554 S
Co0 O17 2.021 . S
Co0 O20 2.062 . S
Co0 O24 2.117 1_554 S
Co0 O25 2.020 1_455 S
C1 O21 1.259 . S
C1 O24 1.258 1_655 S
Co2 N11 2.057 . S
Co2 O18 2.117 . S
Co2 O19 2.020 1_654 S
Co2 O21 2.021 1_554 S
Co2 O26 2.062 . S
C3 N5 1.316 1_554 S
C3 N6 1.347 1_554 S
C3 H8 0.931 . S
C4 N5 1.375 . S
C4 C7 1.350 . S
C4 H9 0.930 . S
N5 Co0 2.057 1_556 S
N5 C3 1.316 1_556 S
N5 C4 1.375 . S
N6 C3 1.347 1_556 S
N6 C7 1.373 . S
C7 C4 1.350 . S
C7 N6 1.373 . S
C7 H28 0.931 . S
H8 C3 0.931 . S
H9 C4 0.930 . S
C10 O17 1.259 . S
C10 O18 1.258 1_455 S
N11 Co2 2.057 . S
N11 C12 1.316 1_554 S
N11 C13 1.375 . S
C12 N11 1.316 1_556 S
C12 N14 1.347 1_556 S
C12 H23 0.931 . S
C13 N11 1.375 . S
C13 C15 1.350 . S
C13 H22 0.930 . S
N14 C12 1.347 1_554 S
N14 C15 1.373 . S
C15 C13 1.350 . S
C15 N14 1.373 . S
C15 H29 0.931 . S
C16 O19 1.256 . S
C16 O20 1.255 1_556 S
O17 Co0 2.021 . S
O17 C10 1.259 . S
O18 Co2 2.117 . S
O18 C10 1.258 1_655 S
O19 Co2 2.020 1_456 S
O19 C16 1.256 . S
O20 Co0 2.062 . S
O20 C16 1.255 1_554 S
O21 C1 1.259 . S
O21 Co2 2.021 1_556 S
H22 C13 0.930 . S
H23 C12 0.931 . S
O24 Co0 2.117 1_556 S
O24 C1 1.258 1_455 S
O25 Co0 2.020 1_655 S
O25 C27 1.256 . S
O26 Co2 2.062 . S
O26 C27 1.255 . S
C27 O25 1.256 . S
C27 O26 1.255 . S
H28 C7 0.931 . S
H29 C15 0.931 . S
Co30 N35 2.057 . S
Co30 O47 2.021 1_554 S
Co30 O50 2.062 . S
Co30 O54 2.117 . S
Co30 O55 2.020 . S
C31 O51 1.259 . S
C31 O54 1.258 . S
Co32 N41 2.057 1_554 S
Co32 O48 2.117 1_554 S
Co32 O49 2.020 . S
Co32 O51 2.021 . S
Co32 O56 2.062 . S
C33 N35 1.316 . S
C33 N36 1.347 . S
C33 H38 0.931 1_554 S
C34 N35 1.375 . S
C34 C37 1.350 . S
C34 H39 0.930 . S
N35 Co30 2.057 . S
N35 C33 1.316 . S
N35 C34 1.375 . S
N36 C33 1.347 . S
N36 C37 1.373 . S
C37 C34 1.350 . S
C37 N36 1.373 . S
C37 H58 0.931 . S
H38 C33 0.931 1_556 S
H39 C34 0.930 . S
C40 O47 1.259 . S
C40 O48 1.258 . S
N41 Co32 2.057 1_556 S
N41 C42 1.316 1_556 S
N41 C43 1.375 . S
C42 N41 1.316 1_554 S
C42 N44 1.347 1_554 S
C42 H53 0.931 . S
C43 N41 1.375 . S
C43 C45 1.350 . S
C43 H52 0.930 . S
N44 C42 1.347 1_556 S
N44 C45 1.373 . S
C45 C43 1.350 . S
C45 N44 1.373 . S
C45 H59 0.931 . S
C46 O49 1.256 . S
C46 O50 1.255 . S
O47 Co30 2.021 1_556 S
O47 C40 1.259 . S
O48 Co32 2.117 1_556 S
O48 C40 1.258 . S
O49 Co32 2.020 . S
O49 C46 1.256 . S
O50 Co30 2.062 . S
O50 C46 1.255 . S
O51 C31 1.259 . S
O51 Co32 2.021 . S
H52 C43 0.930 . S
H53 C42 0.931 . S
O54 Co30 2.117 . S
O54 C31 1.258 . S
O55 Co30 2.020 . S
O55 C57 1.256 . S
O56 Co32 2.062 . S
O56 C57 1.255 . S
C57 O55 1.256 . S
C57 O56 1.255 . S
H58 C37 0.931 . S
H59 C45 0.931 . S
Co60 N65 2.057 1_554 S
Co60 O77 2.021 . S
Co60 O80 2.062 1_554 S
Co60 O84 2.117 1_554 S
Co60 O85 2.020 1_565 S
C61 O81 1.259 . S
C61 O84 1.258 1_545 S
Co62 N71 2.057 . S
Co62 O78 2.117 . S
Co62 O79 2.020 1_544 S
Co62 O81 2.021 1_554 S
Co62 O86 2.062 . S
C63 N65 1.316 1_554 S
C63 N66 1.347 1_554 S
C63 H68 0.931 . S
C64 N65 1.375 . S
C64 C67 1.350 . S
C64 H69 0.930 . S
N65 Co60 2.057 1_556 S
N65 C63 1.316 1_556 S
N65 C64 1.375 . S
N66 C63 1.347 1_556 S
N66 C67 1.373 . S
C67 C64 1.350 . S
C67 N66 1.373 . S
C67 H88 0.931 . S
H68 C63 0.931 . S
H69 C64 0.930 . S
C70 O77 1.259 . S
C70 O78 1.258 1_565 S
N71 Co62 2.057 . S
N71 C72 1.316 1_554 S
N71 C73 1.375 . S
C72 N71 1.316 1_556 S
C72 N74 1.347 1_556 S
C72 H83 0.931 . S
C73 N71 1.375 . S
C73 C75 1.350 . S
C73 H82 0.930 . S
N74 C72 1.347 1_554 S
N74 C75 1.373 . S
C75 C73 1.350 . S
C75 N74 1.373 . S
C75 H89 0.931 . S
C76 O79 1.256 . S
C76 O80 1.255 . S
O77 Co60 2.021 . S
O77 C70 1.259 . S
O78 Co62 2.117 . S
O78 C70 1.258 1_545 S
O79 Co62 2.020 1_566 S
O79 C76 1.256 . S
O80 Co60 2.062 1_556 S
O80 C76 1.255 . S
O81 C61 1.259 . S
O81 Co62 2.021 1_556 S
H82 C73 0.930 . S
H83 C72 0.931 . S
O84 Co60 2.117 1_556 S
O84 C61 1.258 1_565 S
O85 Co60 2.020 1_545 S
O85 C87 1.256 . S
O86 Co62 2.062 . S
O86 C87 1.255 . S
C87 O85 1.256 . S
C87 O86 1.255 . S
H88 C67 0.931 . S
H89 C75 0.931 . S
Co90 N95 2.057 . S
Co90 O107 2.021 . S
Co90 O110 2.062 . S
Co90 O114 2.117 . S
Co90 O115 2.020 . S
C91 O111 1.259 . S
C91 O114 1.258 . S
Co92 N101 2.057 . S
Co92 O108 2.117 . S
Co92 O109 2.020 . S
Co92 O111 2.021 . S
Co92 O116 2.062 . S
C93 N95 1.316 1_545 S
C93 N96 1.347 . S
C93 H98 0.931 . S
C94 N95 1.375 1_545 S
C94 C97 1.350 . S
C94 H99 0.930 1_545 S
N95 Co90 2.057 . S
N95 C93 1.316 1_565 S
N95 C94 1.375 1_565 S
N96 C93 1.347 . S
N96 C97 1.373 . S
C97 C94 1.350 . S
C97 N96 1.373 . S
C97 H118 0.931 . S
H98 C93 0.931 . S
H99 C94 0.930 1_565 S
C100 O107 1.259 . S
C100 O108 1.258 . S
N101 Co92 2.057 . S
N101 C102 1.316 . S
N101 C103 1.375 . S
C102 N101 1.316 . S
C102 N104 1.347 . S
C102 H113 0.931 . S
C103 N101 1.375 . S
C103 C105 1.350 . S
C103 H112 0.930 . S
N104 C102 1.347 . S
N104 C105 1.373 . S
C105 C103 1.350 . S
C105 N104 1.373 . S
C105 H119 0.931 . S
C106 O109 1.256 . S
C106 O110 1.255 . S
O107 Co90 2.021 . S
O107 C100 1.259 . S
O108 Co92 2.117 . S
O108 C100 1.258 . S
O109 Co92 2.020 . S
O109 C106 1.256 . S
O110 Co90 2.062 . S
O110 C106 1.255 . S
O111 C91 1.259 . S
O111 Co92 2.021 . S
H112 C103 0.930 . S
H113 C102 0.931 . S
O114 Co90 2.117 . S
O114 C91 1.258 . S
O115 Co90 2.020 . S
O115 C117 1.256 . S
O116 Co92 2.062 . S
O116 C117 1.255 . S
C117 O115 1.256 . S
C117 O116 1.255 . S
H118 C97 0.931 . S
H119 C105 0.931 . S
Co120 N125 2.057 1_455 S
Co120 O137 2.021 . S
Co120 O140 2.062 . S
Co120 O144 2.117 . S
Co120 O145 2.020 . S
C121 O141 1.259 . S
C121 O144 1.258 . S
Co122 N131 2.057 . S
Co122 O138 2.117 . S
Co122 O139 2.020 1_565 S
Co122 O141 2.021 . S
Co122 O146 2.062 . S
C123 N125 1.316 . S
C123 N126 1.347 . S
C123 H128 0.931 . S
C124 N125 1.375 . S
C124 C127 1.350 . S
C124 H129 0.930 . S
N125 Co120 2.057 1_655 S
N125 C123 1.316 . S
N125 C124 1.375 . S
N126 C123 1.347 . S
N126 C127 1.373 . S
C127 C124 1.350 . S
C127 N126 1.373 . S
C127 H148 0.931 . S
H128 C123 0.931 . S
H129 C124 0.930 . S
C130 O137 1.259 . S
C130 O138 1.258 . S
N131 Co122 2.057 . S
N131 C132 1.316 . S
N131 C133 1.375 . S
C132 N131 1.316 . S
C132 N134 1.347 . S
C132 H143 0.931 . S
C133 N131 1.375 . S
C133 C135 1.350 . S
C133 H142 0.930 . S
N134 C132 1.347 . S
N134 C135 1.373 . S
C135 C133 1.350 . S
C135 N134 1.373 . S
C135 H149 0.931 1_565 S
C136 O139 1.256 . S
C136 O140 1.255 1_545 S
O137 Co120 2.021 . S
O137 C130 1.259 . S
O138 Co122 2.117 . S
O138 C130 1.258 . S
O139 Co122 2.020 1_545 S
O139 C136 1.256 . S
O140 Co120 2.062 . S
O140 C136 1.255 1_565 S
O141 C121 1.259 . S
O141 Co122 2.021 . S
H142 C133 0.930 . S
H143 C132 0.931 . S
O144 Co120 2.117 . S
O144 C121 1.258 . S
O145 Co120 2.020 . S
O145 C147 1.256 . S
O146 Co122 2.062 . S
O146 C147 1.255 . S
C147 O145 1.256 . S
C147 O146 1.255 . S
H148 C127 0.931 . S
H149 C135 0.931 1_545 S
Co150 N155 2.057 . S
Co150 O167 2.021 . S
Co150 O170 2.062 . S
Co150 O174 2.117 . S
Co150 O175 2.020 . S
C151 O171 1.259 . S
C151 O174 1.258 . S
Co152 N161 2.057 . S
Co152 O168 2.117 . S
Co152 O169 2.020 1_455 S
Co152 O171 2.021 . S
Co152 O176 2.062 . S
C153 N155 1.316 . S
C153 N156 1.347 . S
C153 H158 0.931 . S
C154 N155 1.375 . S
C154 C157 1.350 . S
C154 H159 0.930 . S
N155 Co150 2.057 . S
N155 C153 1.316 . S
N155 C154 1.375 . S
N156 C153 1.347 . S
N156 C157 1.373 . S
C157 C154 1.350 . S
C157 N156 1.373 . S
C157 H178 0.931 . S
H158 C153 0.931 . S
H159 C154 0.930 . S
C160 O167 1.259 . S
C160 O168 1.258 . S
N161 Co152 2.057 . S
N161 C162 1.316 . S
N161 C163 1.375 1_455 S
C162 N161 1.316 . S
C162 N164 1.347 1_455 S
C162 H173 0.931 . S
C163 N161 1.375 1_655 S
C163 C165 1.350 . S
C163 H172 0.930 . S
N164 C162 1.347 1_655 S
N164 C165 1.373 . S
C165 C163 1.350 . S
C165 N164 1.373 . S
C165 H179 0.931 . S
C166 O169 1.256 . S
C166 O170 1.255 1_655 S
O167 Co150 2.021 . S
O167 C160 1.259 . S
O168 Co152 2.117 . S
O168 C160 1.258 . S
O169 Co152 2.020 1_655 S
O169 C166 1.256 . S
O170 Co150 2.062 . S
O170 C166 1.255 1_455 S
O171 C151 1.259 . S
O171 Co152 2.021 . S
H172 C163 0.930 . S
H173 C162 0.931 . S
O174 Co150 2.117 . S
O174 C151 1.258 . S
O175 Co150 2.020 . S
O175 C177 1.256 . S
O176 Co152 2.062 . S
O176 C177 1.255 . S
C177 O175 1.256 . S
C177 O176 1.255 . S
H178 C157 0.931 . S
H179 C165 0.931 . S
Co180 N185 2.057 . S
Co180 O197 2.021 . S
Co180 O200 2.062 . S
Co180 O204 2.117 . S
Co180 O205 2.020 . S
C181 O201 1.259 . S
C181 O204 1.258 . S
Co182 N191 2.057 1_545 S
Co182 O198 2.117 . S
Co182 O199 2.020 . S
Co182 O201 2.021 . S
Co182 O206 2.062 . S
C183 N185 1.316 . S
C183 N186 1.347 . S
C183 H188 0.931 . S
C184 N185 1.375 . S
C184 C187 1.350 . S
C184 H189 0.930 . S
N185 Co180 2.057 . S
N185 C183 1.316 . S
N185 C184 1.375 . S
N186 C183 1.347 . S
N186 C187 1.373 . S
C187 C184 1.350 . S
C187 N186 1.373 . S
C187 H208 0.931 . S
H188 C183 0.931 . S
H189 C184 0.930 . S
C190 O197 1.259 . S
C190 O198 1.258 . S
N191 Co182 2.057 1_565 S
N191 C192 1.316 . S
N191 C193 1.375 . S
C192 N191 1.316 . S
C192 N194 1.347 . S
C192 H203 0.931 . S
C193 N191 1.375 . S
C193 C195 1.350 . S
C193 H202 0.930 . S
N194 C192 1.347 . S
N194 C195 1.373 . S
C195 C193 1.350 . S
C195 N194 1.373 . S
C195 H209 0.931 . S
C196 O199 1.256 . S
C196 O200 1.255 . S
O197 Co180 2.021 . S
O197 C190 1.259 . S
O198 Co182 2.117 . S
O198 C190 1.258 . S
O199 Co182 2.020 . S
O199 C196 1.256 . S
O200 Co180 2.062 . S
O200 C196 1.255 . S
O201 C181 1.259 . S
O201 Co182 2.021 . S
H202 C193 0.930 . S
H203 C192 0.931 . S
O204 Co180 2.117 . S
O204 C181 1.258 . S
O205 Co180 2.020 . S
O205 C207 1.256 . S
O206 Co182 2.062 . S
O206 C207 1.255 . S
C207 O205 1.256 . S
C207 O206 1.255 . S
H208 C187 0.931 . S
H209 C195 0.931 . S
Co210 N215 2.057 . S
Co210 O227 2.021 . S
Co210 O230 2.062 1_655 S
Co210 O234 2.117 . S
Co210 O235 2.020 . S
C211 O231 1.259 . S
C211 O234 1.258 . S
Co212 N221 2.057 . S
Co212 O228 2.117 . S
Co212 O229 2.020 1_655 S
Co212 O231 2.021 . S
Co212 O236 2.062 . S
C213 N215 1.316 1_565 S
C213 N216 1.347 . S
C213 H218 0.931 . S
C214 N215 1.375 . S
C214 C217 1.350 1_545 S
C214 H219 0.930 . S
N215 Co210 2.057 . S
N215 C213 1.316 1_545 S
N215 C214 1.375 . S
N216 C213 1.347 . S
N216 C217 1.373 . S
C217 C214 1.350 1_565 S
C217 N216 1.373 . S
C217 H238 0.931 . S
H218 C213 0.931 . S
H219 C214 0.930 . S
C220 O227 1.259 . S
C220 O228 1.258 . S
N221 Co212 2.057 . S
N221 C222 1.316 . S
N221 C223 1.375 1_655 S
C222 N221 1.316 . S
C222 N224 1.347 1_655 S
C222 H233 0.931 . S
C223 N221 1.375 1_455 S
C223 C225 1.350 . S
C223 H232 0.930 . S
N224 C222 1.347 1_455 S
N224 C225 1.373 . S
C225 C223 1.350 . S
C225 N224 1.373 . S
C225 H239 0.931 . S
C226 O229 1.256 . S
C226 O230 1.255 . S
O227 Co210 2.021 . S
O227 C220 1.259 . S
O228 Co212 2.117 . S
O228 C220 1.258 . S
O229 Co212 2.020 1_455 S
O229 C226 1.256 . S
O230 Co210 2.062 1_455 S
O230 C226 1.255 . S
O231 C211 1.259 . S
O231 Co212 2.021 . S
H232 C223 0.930 . S
H233 C222 0.931 . S
O234 Co210 2.117 . S
O234 C211 1.258 . S
O235 Co210 2.020 . S
O235 C237 1.256 . S
O236 Co212 2.062 . S
O236 C237 1.255 . S
C237 O235 1.256 . S
C237 O236 1.255 . S
H238 C217 0.931 . S
H239 C225 0.931 . S
Co240 N245 2.057 . S
Co240 O257 2.021 . S
Co240 O260 2.062 . S
Co240 O264 2.117 . S
Co240 O265 2.020 . S
C241 O261 1.259 . S
C241 O264 1.258 . S
Co242 N251 2.057 . S
Co242 O258 2.117 . S
Co242 O259 2.020 . S
Co242 O261 2.021 . S
Co242 O266 2.062 . S
C243 N245 1.316 . S
C243 N246 1.347 . S
C243 H248 0.931 . S
C244 N245 1.375 . S
C244 C247 1.350 . S
C244 H249 0.930 . S
N245 Co240 2.057 . S
N245 C243 1.316 . S
N245 C244 1.375 . S
N246 C243 1.347 . S
N246 C247 1.373 . S
C247 C244 1.350 . S
C247 N246 1.373 . S
C247 H268 0.931 . S
H248 C243 0.931 . S
H249 C244 0.930 . S
C250 O257 1.259 . S
C250 O258 1.258 . S
N251 Co242 2.057 . S
N251 C252 1.316 . S
N251 C253 1.375 . S
C252 N251 1.316 . S
C252 N254 1.347 . S
C252 H263 0.931 . S
C253 N251 1.375 . S
C253 C255 1.350 . S
C253 H262 0.930 . S
N254 C252 1.347 . S
N254 C255 1.373 . S
C255 C253 1.350 . S
C255 N254 1.373 . S
C255 H269 0.931 . S
C256 O259 1.256 . S
C256 O260 1.255 . S
O257 Co240 2.021 . S
O257 C250 1.259 . S
O258 Co242 2.117 . S
O258 C250 1.258 . S
O259 Co242 2.020 . S
O259 C256 1.256 . S
O260 Co240 2.062 . S
O260 C256 1.255 . S
O261 C241 1.259 . S
O261 Co242 2.021 . S
H262 C253 0.930 . S
H263 C252 0.931 . S
O264 Co240 2.117 . S
O264 C241 1.258 . S
O265 Co240 2.020 . S
O265 C267 1.256 . S
O266 Co242 2.062 . S
O266 C267 1.255 . S
C267 O265 1.256 . S
C267 O266 1.255 . S
H268 C247 0.931 . S
H269 C255 0.931 . S
C57 C16 2.796 1_554 S
N66 N44 1.607 . S
C76 N6 2.312 . S
N74 N36 2.427 . S
C87 N14 1.747 . S
C27 C46 3.508 . S
C106 N126 0.888 . S
N156 C136 2.074 . S
C166 N96 2.271 . S
C147 N164 3.590 1_455 S
C177 N104 1.524 . S
N134 C117 3.060 . S
C237 C196 2.854 . S
N224 N246 1.640 1_455 S
C256 N186 2.284 . S
N254 N216 2.427 . S
C267 N194 1.692 1_655 S
C207 C226 3.486 . S
C151 C10 3.256 . S
C91 C31 3.451 . S
C70 C121 2.513 . S
C61 C190 3.187 . S
C1 C211 3.503 . S
C250 C40 2.604 . S
C100 C241 3.163 . S
C130 C181 3.659 1_565 S
C220 C160 2.730 1_655 S
