# Generated by pormake.
# Topology wgh, (5)-cn, num edge types: 1
# Building blocks:
#     Node 0, Type 0, BuildingBlock: XOMCOT_clean_sbu_0, # of connection points: 5
#     Node 1, Type 0, BuildingBlock: XOMCOT_clean_sbu_0, # of connection points: 5
#     Node 2, Type 0, BuildingBlock: XOMCOT_clean_sbu_0, # of connection points: 5
#     Node 3, Type 0, BuildingBlock: XOMCOT_clean_sbu_0, # of connection points: 5
#     Node 4, Type 0, BuildingBlock: XOMCOT_clean_sbu_0, # of connection points: 5
#     Node 5, Type 0, BuildingBlock: XOMCOT_clean_sbu_0, # of connection points: 5
#     Node 6, Type 0, BuildingBlock: XOMCOT_clean_sbu_0, # of connection points: 5
#     Node 7, Type 0, BuildingBlock: XOMCOT_clean_sbu_0, # of connection points: 5
#     Node 8, Type 0, BuildingBlock: XOMCOT_clean_sbu_0, # of connection points: 5
#     Node 9, Type 0, BuildingBlock: XOMCOT_clean_sbu_0, # of connection points: 5
#     Node 10, Type 0, BuildingBlock: XOMCOT_clean_sbu_0, # of connection points: 5
#     Node 11, Type 0, BuildingBlock: XOMCOT_clean_sbu_0, # of connection points: 5
#     Node 12, Type 0, BuildingBlock: XOMCOT_clean_sbu_0, # of connection points: 5
#     Node 13, Type 0, BuildingBlock: XOMCOT_clean_sbu_0, # of connection points: 5
#     Node 14, Type 0, BuildingBlock: XOMCOT_clean_sbu_0, # of connection points: 5
#     Node 15, Type 0, BuildingBlock: XOMCOT_clean_sbu_0, # of connection points: 5
#     Node 16, Type 0, BuildingBlock: XOMCOT_clean_sbu_0, # of connection points: 5
#     Node 17, Type 0, BuildingBlock: XOMCOT_clean_sbu_0, # of connection points: 5
#     Node 18, Type 0, BuildingBlock: XOMCOT_clean_sbu_0, # of connection points: 5
#     Node 19, Type 0, BuildingBlock: XOMCOT_clean_sbu_0, # of connection points: 5
#     Node 20, Type 0, BuildingBlock: XOMCOT_clean_sbu_0, # of connection points: 5
#     Node 21, Type 0, BuildingBlock: XOMCOT_clean_sbu_0, # of connection points: 5
#     Node 22, Type 0, BuildingBlock: XOMCOT_clean_sbu_0, # of connection points: 5
#     Node 23, Type 0, BuildingBlock: XOMCOT_clean_sbu_0, # of connection points: 5
#     Node 24, Type 0, BuildingBlock: XOMCOT_clean_sbu_0, # of connection points: 5
#     Node 25, Type 0, BuildingBlock: XOMCOT_clean_sbu_0, # of connection points: 5
#     Node 26, Type 0, BuildingBlock: XOMCOT_clean_sbu_0, # of connection points: 5
#     Node 27, Type 0, BuildingBlock: XOMCOT_clean_sbu_0, # of connection points: 5
#     Node 28, Type 0, BuildingBlock: XOMCOT_clean_sbu_0, # of connection points: 5
#     Node 29, Type 0, BuildingBlock: XOMCOT_clean_sbu_0, # of connection points: 5
#     Node 30, Type 0, BuildingBlock: XOMCOT_clean_sbu_0, # of connection points: 5
#     Node 31, Type 0, BuildingBlock: XOMCOT_clean_sbu_0, # of connection points: 5
#     Edge 32, Type (0, 0), BuildingBlock: ZUJKAS_clean_linker_0, # of connection points: 2
#     Edge 33, Type (0, 0), BuildingBlock: ZUJKAS_clean_linker_0, # of connection points: 2
#     Edge 34, Type (0, 0), BuildingBlock: ZUJKAS_clean_linker_0, # of connection points: 2
#     Edge 35, Type (0, 0), BuildingBlock: ZUJKAS_clean_linker_0, # of connection points: 2
#     Edge 36, Type (0, 0), BuildingBlock: ZUJKAS_clean_linker_0, # of connection points: 2
#     Edge 37, Type (0, 0), BuildingBlock: ZUJKAS_clean_linker_0, # of connection points: 2
#     Edge 38, Type (0, 0), BuildingBlock: ZUJKAS_clean_linker_0, # of connection points: 2
#     Edge 39, Type (0, 0), BuildingBlock: ZUJKAS_clean_linker_0, # of connection points: 2
#     Edge 40, Type (0, 0), BuildingBlock: ZUJKAS_clean_linker_0, # of connection points: 2
#     Edge 41, Type (0, 0), BuildingBlock: ZUJKAS_clean_linker_0, # of connection points: 2
#     Edge 42, Type (0, 0), BuildingBlock: ZUJKAS_clean_linker_0, # of connection points: 2
#     Edge 43, Type (0, 0), BuildingBlock: ZUJKAS_clean_linker_0, # of connection points: 2
#     Edge 44, Type (0, 0), BuildingBlock: ZUJKAS_clean_linker_0, # of connection points: 2
#     Edge 45, Type (0, 0), BuildingBlock: ZUJKAS_clean_linker_0, # of connection points: 2
#     Edge 46, Type (0, 0), BuildingBlock: ZUJKAS_clean_linker_0, # of connection points: 2
#     Edge 47, Type (0, 0), BuildingBlock: ZUJKAS_clean_linker_0, # of connection points: 2
#     Edge 48, Type (0, 0), BuildingBlock: ZUJKAS_clean_linker_0, # of connection points: 2
#     Edge 49, Type (0, 0), BuildingBlock: ZUJKAS_clean_linker_0, # of connection points: 2
#     Edge 50, Type (0, 0), BuildingBlock: ZUJKAS_clean_linker_0, # of connection points: 2
#     Edge 51, Type (0, 0), BuildingBlock: ZUJKAS_clean_linker_0, # of connection points: 2
#     Edge 52, Type (0, 0), BuildingBlock: ZUJKAS_clean_linker_0, # of connection points: 2
#     Edge 53, Type (0, 0), BuildingBlock: ZUJKAS_clean_linker_0, # of connection points: 2
#     Edge 54, Type (0, 0), BuildingBlock: ZUJKAS_clean_linker_0, # of connection points: 2
#     Edge 55, Type (0, 0), BuildingBlock: ZUJKAS_clean_linker_0, # of connection points: 2
#     Edge 56, Type (0, 0), BuildingBlock: ZUJKAS_clean_linker_0, # of connection points: 2
#     Edge 57, Type (0, 0), BuildingBlock: ZUJKAS_clean_linker_0, # of connection points: 2
#     Edge 58, Type (0, 0), BuildingBlock: ZUJKAS_clean_linker_0, # of connection points: 2
#     Edge 59, Type (0, 0), BuildingBlock: ZUJKAS_clean_linker_0, # of connection points: 2
#     Edge 60, Type (0, 0), BuildingBlock: ZUJKAS_clean_linker_0, # of connection points: 2
#     Edge 61, Type (0, 0), BuildingBlock: ZUJKAS_clean_linker_0, # of connection points: 2
#     Edge 62, Type (0, 0), BuildingBlock: ZUJKAS_clean_linker_0, # of connection points: 2
#     Edge 63, Type (0, 0), BuildingBlock: ZUJKAS_clean_linker_0, # of connection points: 2
#     Edge 64, Type (0, 0), BuildingBlock: ZUJKAS_clean_linker_0, # of connection points: 2
#     Edge 65, Type (0, 0), BuildingBlock: ZUJKAS_clean_linker_0, # of connection points: 2
#     Edge 66, Type (0, 0), BuildingBlock: ZUJKAS_clean_linker_0, # of connection points: 2
#     Edge 67, Type (0, 0), BuildingBlock: ZUJKAS_clean_linker_0, # of connection points: 2
#     Edge 68, Type (0, 0), BuildingBlock: ZUJKAS_clean_linker_0, # of connection points: 2
#     Edge 69, Type (0, 0), BuildingBlock: ZUJKAS_clean_linker_0, # of connection points: 2
#     Edge 70, Type (0, 0), BuildingBlock: ZUJKAS_clean_linker_0, # of connection points: 2
#     Edge 71, Type (0, 0), BuildingBlock: ZUJKAS_clean_linker_0, # of connection points: 2
#     Edge 72, Type (0, 0), BuildingBlock: ZUJKAS_clean_linker_0, # of connection points: 2
#     Edge 73, Type (0, 0), BuildingBlock: ZUJKAS_clean_linker_0, # of connection points: 2
#     Edge 74, Type (0, 0), BuildingBlock: ZUJKAS_clean_linker_0, # of connection points: 2
#     Edge 75, Type (0, 0), BuildingBlock: ZUJKAS_clean_linker_0, # of connection points: 2
#     Edge 76, Type (0, 0), BuildingBlock: ZUJKAS_clean_linker_0, # of connection points: 2
#     Edge 77, Type (0, 0), BuildingBlock: ZUJKAS_clean_linker_0, # of connection points: 2
#     Edge 78, Type (0, 0), BuildingBlock: ZUJKAS_clean_linker_0, # of connection points: 2
#     Edge 79, Type (0, 0), BuildingBlock: ZUJKAS_clean_linker_0, # of connection points: 2
#     Edge 80, Type (0, 0), BuildingBlock: ZUJKAS_clean_linker_0, # of connection points: 2
#     Edge 81, Type (0, 0), BuildingBlock: ZUJKAS_clean_linker_0, # of connection points: 2
#     Edge 82, Type (0, 0), BuildingBlock: ZUJKAS_clean_linker_0, # of connection points: 2
#     Edge 83, Type (0, 0), BuildingBlock: ZUJKAS_clean_linker_0, # of connection points: 2
#     Edge 84, Type (0, 0), BuildingBlock: ZUJKAS_clean_linker_0, # of connection points: 2
#     Edge 85, Type (0, 0), BuildingBlock: ZUJKAS_clean_linker_0, # of connection points: 2
#     Edge 86, Type (0, 0), BuildingBlock: ZUJKAS_clean_linker_0, # of connection points: 2
#     Edge 87, Type (0, 0), BuildingBlock: ZUJKAS_clean_linker_0, # of connection points: 2
#     Edge 88, Type (0, 0), BuildingBlock: ZUJKAS_clean_linker_0, # of connection points: 2
#     Edge 89, Type (0, 0), BuildingBlock: ZUJKAS_clean_linker_0, # of connection points: 2
#     Edge 90, Type (0, 0), BuildingBlock: ZUJKAS_clean_linker_0, # of connection points: 2
#     Edge 91, Type (0, 0), BuildingBlock: ZUJKAS_clean_linker_0, # of connection points: 2
#     Edge 92, Type (0, 0), BuildingBlock: ZUJKAS_clean_linker_0, # of connection points: 2
#     Edge 93, Type (0, 0), BuildingBlock: ZUJKAS_clean_linker_0, # of connection points: 2
#     Edge 94, Type (0, 0), BuildingBlock: ZUJKAS_clean_linker_0, # of connection points: 2
#     Edge 95, Type (0, 0), BuildingBlock: ZUJKAS_clean_linker_0, # of connection points: 2
#     Edge 96, Type (0, 0), BuildingBlock: ZUJKAS_clean_linker_0, # of connection points: 2
#     Edge 97, Type (0, 0), BuildingBlock: ZUJKAS_clean_linker_0, # of connection points: 2
#     Edge 98, Type (0, 0), BuildingBlock: ZUJKAS_clean_linker_0, # of connection points: 2
#     Edge 99, Type (0, 0), BuildingBlock: ZUJKAS_clean_linker_0, # of connection points: 2
#     Edge 100, Type (0, 0), BuildingBlock: ZUJKAS_clean_linker_0, # of connection points: 2
#     Edge 101, Type (0, 0), BuildingBlock: ZUJKAS_clean_linker_0, # of connection points: 2
#     Edge 102, Type (0, 0), BuildingBlock: ZUJKAS_clean_linker_0, # of connection points: 2
#     Edge 103, Type (0, 0), BuildingBlock: ZUJKAS_clean_linker_0, # of connection points: 2
#     Edge 104, Type (0, 0), BuildingBlock: ZUJKAS_clean_linker_0, # of connection points: 2
#     Edge 105, Type (0, 0), BuildingBlock: ZUJKAS_clean_linker_0, # of connection points: 2
#     Edge 106, Type (0, 0), BuildingBlock: ZUJKAS_clean_linker_0, # of connection points: 2
#     Edge 107, Type (0, 0), BuildingBlock: ZUJKAS_clean_linker_0, # of connection points: 2
#     Edge 108, Type (0, 0), BuildingBlock: ZUJKAS_clean_linker_0, # of connection points: 2
#     Edge 109, Type (0, 0), BuildingBlock: ZUJKAS_clean_linker_0, # of connection points: 2
#     Edge 110, Type (0, 0), BuildingBlock: ZUJKAS_clean_linker_0, # of connection points: 2
#     Edge 111, Type (0, 0), BuildingBlock: ZUJKAS_clean_linker_0, # of connection points: 2
# Relax obj value: 0.215
# Max RMSD: 0.215
# Mean RMSD: 0.215
data_MOF--net-wgh--node1-XOMCOT_clean_sbu_0--edge1-ZUJKAS_clean_linker_0
_symmetry_space_group_name_H-M    P1
_symmetry_Int_Tables_number       1
_symmetry_cell_setting            triclinic
loop_
_symmetry_equiv_pos_as_xyz
'x, y, z'
_cell_length_a     122.78512
_cell_length_b     122.77518
_cell_length_c     25.039655
_cell_angle_alpha  89.985164
_cell_angle_beta   90.032238
_cell_angle_gamma 89.984811
loop_
_atom_site_label
_atom_site_type_symbol
_atom_site_fract_x
_atom_site_fract_y
_atom_site_fract_z
_atom_type_partial_charge
Co0 Co 0.15602 0.18497 0.39658 0.0
C1 C 0.1555 0.2043 0.47439 0.0
C2 C 0.14001 0.19794 0.4502 0.0
C3 C 0.1382 0.20628 0.48514 0.0
N4 N 0.15082 0.19652 0.44352 0.0
N5 N 0.1479 0.21028 0.50055 0.0
H6 H 0.16414 0.20554 0.47904 0.0
H7 H 0.13379 0.19306 0.43114 0.0
C8 C 0.14636 0.17391 0.4897 0.0
O9 O 0.15208 0.18081 0.51842 0.0
N10 N 0.16011 0.17344 0.34847 0.0
C11 C 0.16918 0.17235 0.31868 0.0
C12 C 0.16755 0.16394 0.28276 0.0
C13 C 0.15318 0.16577 0.33072 0.0
N14 N 0.15748 0.15984 0.29068 0.0
C15 C 0.17694 0.18947 0.44126 0.0
C16 C 0.1814 0.16848 0.47462 0.0
C17 C 0.18973 0.17628 0.47633 0.0
C18 C 0.1873 0.18695 0.46036 0.0
C19 C 0.17108 0.17138 0.45555 0.0
N20 N 0.1689 0.18181 0.4394 0.0
H21 H 0.17565 0.19744 0.42433 0.0
H22 H 0.16509 0.16503 0.45045 0.0
H23 H 0.17622 0.17763 0.32107 0.0
H24 H 0.14484 0.16508 0.34427 0.0
O25 O 0.1626 0.19548 0.3502 0.0
O26 O 0.14548 0.19 0.34345 0.0
O27 O 0.14691 0.17423 0.43866 0.0
C28 C 0.15336 0.19614 0.32551 0.0
H29 H 0.13033 0.20927 0.49794 0.0
H30 H 0.17318 0.1613 0.25214 0.0
H31 H 0.18294 0.16011 0.48594 0.0
H32 H 0.19356 0.19316 0.45907 0.0
Co33 Co 0.06664 0.90593 0.6521 0.0
C34 C 0.04713 0.90534 0.72864 0.0
C35 C 0.05419 0.88991 0.70839 0.0
C36 C 0.0456 0.88807 0.7418 0.0
N37 N 0.05534 0.90071 0.70031 0.0
N38 N 0.04116 0.89773 0.75481 0.0
H39 H 0.04547 0.91394 0.73067 0.0
H40 H 0.05929 0.88373 0.69057 0.0
C41 C 0.07816 0.89632 0.74392 0.0
O42 O 0.0714 0.90206 0.77327 0.0
N43 N 0.07791 0.91004 0.60262 0.0
C44 C 0.07884 0.91913 0.57284 0.0
C45 C 0.08709 0.91755 0.53602 0.0
C46 C 0.08551 0.90313 0.58399 0.0
N47 N 0.09125 0.90747 0.5434 0.0
C48 C 0.0624 0.92684 0.69743 0.0
C49 C 0.08368 0.93141 0.72558 0.0
C50 C 0.07591 0.93976 0.72787 0.0
C51 C 0.0651 0.93727 0.71492 0.0
C52 C 0.0806 0.921 0.70853 0.0
N53 N 0.07005 0.91879 0.69453 0.0
H54 H 0.05433 0.92556 0.68178 0.0
H55 H 0.08691 0.91498 0.70267 0.0
H56 H 0.07357 0.92617 0.57592 0.0
H57 H 0.08628 0.89479 0.59739 0.0
O58 O 0.05594 0.91257 0.60712 0.0
O59 O 0.0613 0.89542 0.59954 0.0
O60 O 0.0776 0.89681 0.69291 0.0
C61 C 0.05513 0.90336 0.58232 0.0
H62 H 0.04267 0.88017 0.75446 0.0
H63 H 0.08959 0.92321 0.50522 0.0
H64 H 0.09216 0.93303 0.73453 0.0
H65 H 0.0589 0.94355 0.71421 0.0
Co66 Co 0.34356 0.81479 0.88938 0.0
C67 C 0.3401 0.79821 0.97619 0.0
C68 C 0.35577 0.80598 0.97814 0.0
C69 C 0.35536 0.79856 0.01872 0.0
N70 N 0.34619 0.80594 0.95192 0.0
N71 N 0.34555 0.79366 0.01768 0.0
H72 H 0.332 0.79588 0.96349 0.0
H73 H 0.36279 0.81078 0.96722 0.0
C74 C 0.35176 0.83639 0.92774 0.0
O75 O 0.34296 0.84089 0.90745 0.0
N76 N 0.34188 0.82365 0.82502 0.0
C77 C 0.335 0.82234 0.7832 0.0
C78 C 0.33812 0.82917 0.74219 0.0
C79 C 0.3494 0.83078 0.80703 0.0
N80 N 0.34714 0.83452 0.75775 0.0
C81 C 0.32129 0.8212 0.8956 0.0
C82 C 0.32164 0.82975 0.99763 0.0
C83 C 0.31203 0.83036 0.96746 0.0
C84 C 0.31191 0.82587 0.91627 0.0
C85 C 0.33101 0.82514 0.9747 0.0
N86 N 0.33085 0.82133 0.92329 0.0
H87 H 0.32073 0.8172 0.85767 0.0
H88 H 0.33839 0.82467 0.99815 0.0
H89 H 0.32864 0.81631 0.78036 0.0
H90 H 0.3569 0.83263 0.82772 0.0
O91 O 0.33612 0.803 0.85544 0.0
O92 O 0.35393 0.8058 0.84987 0.0
O93 O 0.3535 0.82618 0.92176 0.0
C94 C 0.34543 0.80004 0.83594 0.0
H95 H 0.36199 0.79653 0.04548 0.0
H96 H 0.33429 0.82986 0.70342 0.0
H97 H 0.32191 0.83285 0.03808 0.0
H98 H 0.30449 0.82572 0.89279 0.0
Co99 Co 0.43599 0.0935 0.16335 0.0
C100 C 0.45498 0.09334 0.23906 0.0
C101 C 0.43959 0.09433 0.27918 0.0
C102 C 0.44769 0.09457 0.31686 0.0
N103 N 0.44409 0.09352 0.23019 0.0
N104 N 0.45737 0.09396 0.29175 0.0
H105 H 0.46106 0.09278 0.208 0.0
H106 H 0.431 0.09499 0.28748 0.0
C107 C 0.41423 0.10353 0.19173 0.0
O108 O 0.40933 0.09714 0.15717 0.0
N109 N 0.42791 0.09377 0.09675 0.0
C110 C 0.42542 0.08551 0.06353 0.0
C111 C 0.41966 0.08961 0.02077 0.0
C112 C 0.42395 0.1028 0.07285 0.0
N113 N 0.41867 0.10049 0.02687 0.0
C114 C 0.43367 0.07036 0.16475 0.0
C115 C 0.41701 0.06867 0.23821 0.0
C116 C 0.42166 0.05915 0.21763 0.0
C117 C 0.43004 0.06011 0.18028 0.0
C118 C 0.42099 0.07885 0.22201 0.0
N119 N 0.42915 0.07969 0.18485 0.0
H120 H 0.44019 0.07065 0.13613 0.0
H121 H 0.41765 0.08589 0.24135 0.0
H122 H 0.4276 0.07708 0.06921 0.0
H123 H 0.42458 0.11084 0.0902 0.0
O124 O 0.44824 0.08756 0.12568 0.0
O125 O 0.44521 0.10517 0.13528 0.0
O126 O 0.42452 0.10283 0.19902 0.0
C127 C 0.45119 0.09744 0.11497 0.0
H128 H 0.44653 0.09548 0.35948 0.0
H129 H 0.4165 0.08489 0.98774 0.0
H130 H 0.41063 0.06824 0.26802 0.0
H131 H 0.43382 0.05294 0.1631 0.0
Co132 Co 0.16403 0.81677 0.1027 0.0
C133 C 0.16235 0.79744 0.02938 0.0
C134 C 0.16307 0.81265 0.98748 0.0
C135 C 0.16184 0.80447 0.95078 0.0
N136 N 0.16346 0.80832 0.03697 0.0
N137 N 0.16136 0.7949 0.97698 0.0
H138 H 0.16215 0.79148 0.06115 0.0
H139 H 0.16321 0.82122 0.97816 0.0
C140 C 0.15594 0.839 0.06752 0.0
O141 O 0.16323 0.84391 0.09746 0.0
N142 N 0.16427 0.82534 0.16783 0.0
C143 C 0.17241 0.82671 0.2033 0.0
C144 C 0.16883 0.83347 0.24356 0.0
C145 C 0.15577 0.83097 0.18798 0.0
N146 N 0.15838 0.83622 0.23367 0.0
C147 C 0.18725 0.81743 0.10458 0.0
C148 C 0.19072 0.83352 0.02966 0.0
C149 C 0.19971 0.82859 0.05417 0.0
C150 C 0.19785 0.82044 0.09189 0.0
C151 C 0.18015 0.83014 0.0431 0.0
N152 N 0.17843 0.82235 0.08146 0.0
H153 H 0.1863 0.81109 0.13382 0.0
H154 H 0.17352 0.8337 0.02124 0.0
H155 H 0.18037 0.82305 0.20102 0.0
H156 H 0.14793 0.83143 0.16842 0.0
O157 O 0.16892 0.80429 0.14227 0.0
O158 O 0.15163 0.8087 0.13153 0.0
O159 O 0.15559 0.82861 0.06506 0.0
C160 C 0.15882 0.80218 0.15268 0.0
H161 H 0.1609 0.80555 0.90812 0.0
H162 H 0.17359 0.83605 0.27765 0.0
H163 H 0.19185 0.8397 0.99929 0.0
H164 H 0.20457 0.81642 0.11186 0.0
Co165 Co 0.43503 0.91236 0.33188 0.0
C166 C 0.45373 0.90967 0.2558 0.0
C167 C 0.4389 0.9146 0.21749 0.0
C168 C 0.44671 0.91317 0.17898 0.0
N169 N 0.44327 0.91248 0.26576 0.0
N170 N 0.45604 0.91006 0.20299 0.0
H171 H 0.45953 0.90732 0.28615 0.0
H172 H 0.43048 0.91681 0.2106 0.0
C173 C 0.41418 0.89987 0.30118 0.0
O174 O 0.40905 0.90247 0.34529 0.0
N175 N 0.42682 0.91205 0.39781 0.0
C176 C 0.42335 0.92052 0.42757 0.0
C177 C 0.41774 0.9165 0.47101 0.0
C178 C 0.42385 0.90307 0.42501 0.0
N179 N 0.41793 0.90552 0.46877 0.0
C180 C 0.43513 0.93451 0.30068 0.0
C181 C 0.41289 0.93797 0.29796 0.0
C182 C 0.41992 0.94673 0.28781 0.0
C183 C 0.43117 0.94485 0.28874 0.0
C184 C 0.41721 0.92766 0.30907 0.0
N185 N 0.42822 0.92605 0.31088 0.0
H186 H 0.44384 0.93327 0.30231 0.0
H187 H 0.41167 0.92118 0.31816 0.0
H188 H 0.4246 0.92901 0.41792 0.0
H189 H 0.4255 0.89487 0.41131 0.0
O190 O 0.44701 0.91844 0.37128 0.0
O191 O 0.44421 0.90076 0.36003 0.0
O192 O 0.42384 0.90331 0.29186 0.0
C193 C 0.45003 0.90852 0.38147 0.0
H194 H 0.44548 0.91402 0.13639 0.0
H195 H 0.41341 0.92129 0.50043 0.0
H196 H 0.40414 0.9391 0.29771 0.0
H197 H 0.4369 0.95141 0.28196 0.0
Co198 Co 0.33904 0.18709 0.59352 0.0
C199 C 0.34016 0.20625 0.51903 0.0
C200 C 0.33762 0.19112 0.47825 0.0
C201 C 0.33869 0.1992 0.44083 0.0
N202 N 0.33848 0.19547 0.52753 0.0
N203 N 0.34032 0.20872 0.46632 0.0
H204 H 0.34145 0.21215 0.55035 0.0
H205 H 0.33682 0.18257 0.46944 0.0
C206 C 0.34875 0.16542 0.56036 0.0
O207 O 0.34301 0.1603 0.59676 0.0
N208 N 0.33993 0.17872 0.6591 0.0
C209 C 0.33199 0.17615 0.69402 0.0
C210 C 0.33649 0.17032 0.73552 0.0
C211 C 0.34917 0.17471 0.68073 0.0
N212 N 0.3473 0.16934 0.72694 0.0
C213 C 0.31587 0.18527 0.59858 0.0
C214 C 0.31293 0.16805 0.52941 0.0
C215 C 0.30381 0.17263 0.55441 0.0
C216 C 0.30542 0.18139 0.58905 0.0
C217 C 0.32337 0.17212 0.54062 0.0
N218 N 0.32483 0.18056 0.57576 0.0
H219 H 0.31662 0.19205 0.62551 0.0
H220 H 0.33008 0.16854 0.51956 0.0
H221 H 0.32353 0.17838 0.69048 0.0
H222 H 0.35705 0.17541 0.66171 0.0
O223 O 0.33379 0.1993 0.6339 0.0
O224 O 0.35121 0.19594 0.61948 0.0
O225 O 0.34773 0.1757 0.5538 0.0
C226 C 0.34383 0.20197 0.64247 0.0
H227 H 0.3388 0.19802 0.398 0.0
H228 H 0.3321 0.16712 0.76954 0.0
H229 H 0.31202 0.16136 0.50155 0.0
H230 H 0.29859 0.1854 0.60814 0.0
Co231 Co 0.06637 0.08861 0.84785 0.0
C232 C 0.04685 0.08902 0.77561 0.0
C233 C 0.06161 0.09305 0.7345 0.0
C234 C 0.05312 0.09397 0.69927 0.0
N235 N 0.05777 0.08991 0.78261 0.0
N236 N 0.04382 0.09148 0.72503 0.0
H237 H 0.0412 0.08675 0.80672 0.0
H238 H 0.06999 0.09492 0.72524 0.0
C239 C 0.08854 0.09621 0.8113 0.0
O240 O 0.09318 0.08799 0.83614 0.0
N241 N 0.07504 0.08782 0.91293 0.0
C242 C 0.07526 0.0801 0.95134 0.0
C243 C 0.08208 0.08345 0.99184 0.0
C244 C 0.08143 0.09591 0.93187 0.0
N245 N 0.08601 0.09337 0.97926 0.0
C246 C 0.06864 0.06551 0.84856 0.0
C247 C 0.08229 0.06321 0.76184 0.0
C248 C 0.07942 0.05394 0.79139 0.0
C249 C 0.07233 0.05521 0.83454 0.0
C250 C 0.07844 0.07349 0.77766 0.0
N251 N 0.0721 0.07463 0.82233 0.0
H252 H 0.06282 0.06603 0.88048 0.0
H253 H 0.08058 0.08041 0.7535 0.0
H254 H 0.07059 0.07268 0.95164 0.0
H255 H 0.0825 0.10365 0.9119 0.0
O256 O 0.05396 0.08305 0.88576 0.0
O257 O 0.05824 0.10054 0.88022 0.0
O258 O 0.07821 0.09744 0.81267 0.0
C259 C 0.05176 0.09303 0.89874 0.0
H260 H 0.05372 0.09672 0.6583 0.0
H261 H 0.08399 0.07893 0.02773 0.0
H262 H 0.0875 0.06254 0.72711 0.0
H263 H 0.06942 0.04823 0.85683 0.0
Co264 Co 0.84405 0.81656 0.60618 0.0
C265 C 0.84421 0.79794 0.52813 0.0
C266 C 0.85242 0.81208 0.49804 0.0
C267 C 0.85381 0.80379 0.46223 0.0
N268 N 0.8464 0.80851 0.53978 0.0
N269 N 0.84876 0.79488 0.48122 0.0
H270 H 0.8399 0.79243 0.55436 0.0
H271 H 0.85592 0.82008 0.49363 0.0
C272 C 0.85084 0.83891 0.571 0.0
O273 O 0.84175 0.84281 0.59108 0.0
N274 N 0.84244 0.82461 0.67326 0.0
C275 C 0.83587 0.8225 0.71536 0.0
C276 C 0.83848 0.8294 0.75686 0.0
C277 C 0.84935 0.83234 0.69153 0.0
N278 N 0.84692 0.83564 0.74147 0.0
C279 C 0.82131 0.82144 0.60595 0.0
C280 C 0.82021 0.83158 0.50764 0.0
C281 C 0.81082 0.83098 0.53927 0.0
C282 C 0.81144 0.82571 0.58861 0.0
C283 C 0.83006 0.82735 0.52717 0.0
N284 N 0.83062 0.82274 0.57693 0.0
H285 H 0.82134 0.81683 0.64229 0.0
H286 H 0.83721 0.82795 0.50241 0.0
H287 H 0.82999 0.81598 0.71769 0.0
H288 H 0.85649 0.83507 0.67024 0.0
O289 O 0.83768 0.80397 0.63871 0.0
O290 O 0.8553 0.80783 0.64082 0.0
O291 O 0.8532 0.82882 0.57638 0.0
C292 C 0.84736 0.80136 0.65497 0.0
H293 H 0.85839 0.80421 0.42536 0.0
H294 H 0.83461 0.82962 0.79567 0.0
H295 H 0.81997 0.83537 0.46859 0.0
H296 H 0.80424 0.82462 0.61307 0.0
Co297 Co 0.93546 0.09494 0.35727 0.0
C298 C 0.95492 0.09462 0.2812 0.0
C299 C 0.94677 0.11 0.28872 0.0
C300 C 0.95512 0.11122 0.25304 0.0
N301 N 0.94637 0.09956 0.30556 0.0
N302 N 0.96022 0.10159 0.2484 0.0
H303 H 0.95732 0.08626 0.28661 0.0
H304 H 0.94126 0.11635 0.30156 0.0
C305 C 0.92301 0.10257 0.26324 0.0
O306 O 0.92968 0.0965 0.23499 0.0
N307 N 0.92456 0.09129 0.40958 0.0
C308 C 0.92393 0.08242 0.44105 0.0
C309 C 0.91578 0.0841 0.47821 0.0
C310 C 0.91689 0.09819 0.42762 0.0
N311 N 0.91139 0.09403 0.46949 0.0
C312 C 0.94029 0.07344 0.32008 0.0
C313 C 0.91932 0.06793 0.29059 0.0
C314 C 0.92747 0.05994 0.28864 0.0
C315 C 0.93809 0.06286 0.30304 0.0
C316 C 0.92192 0.0785 0.3072 0.0
N317 N 0.93237 0.08123 0.32081 0.0
H318 H 0.94825 0.0751 0.33624 0.0
H319 H 0.91538 0.0843 0.31197 0.0
H320 H 0.92929 0.07544 0.43853 0.0
H321 H 0.91583 0.10638 0.41242 0.0
O322 O 0.94654 0.08958 0.40435 0.0
O323 O 0.94056 0.10663 0.40387 0.0
O324 O 0.92398 0.10294 0.31415 0.0
C325 C 0.94697 0.09928 0.42454 0.0
H326 H 0.95741 0.11865 0.23264 0.0
H327 H 0.91346 0.07857 0.5099 0.0
H328 H 0.91095 0.06595 0.28084 0.0
H329 H 0.94453 0.05684 0.30435 0.0
Co330 Co 0.65361 0.18842 0.12038 0.0
C331 C 0.65549 0.20782 0.04455 0.0
C332 C 0.63922 0.20225 0.05971 0.0
C333 C 0.63867 0.21067 0.02394 0.0
N334 N 0.64974 0.20026 0.07219 0.0
N335 N 0.64886 0.21415 0.01466 0.0
H336 H 0.66422 0.20864 0.04469 0.0
H337 H 0.63238 0.19765 0.0749 0.0
C338 C 0.64432 0.17791 0.0243 0.0
O339 O 0.65045 0.18457 0.99633 0.0
N340 N 0.65655 0.17665 0.16908 0.0
C341 C 0.66566 0.17446 0.19705 0.0
C342 C 0.66359 0.16565 0.22995 0.0
C343 C 0.64913 0.1693 0.18514 0.0
N344 N 0.65319 0.16243 0.22221 0.0
C345 C 0.67542 0.19187 0.0853 0.0
C346 C 0.67917 0.17096 0.04884 0.0
C347 C 0.68797 0.17817 0.05336 0.0
C348 C 0.68592 0.18882 0.07048 0.0
C349 C 0.66873 0.17435 0.06408 0.0
N350 N 0.66692 0.18474 0.08192 0.0
H351 H 0.67433 0.19979 0.10304 0.0
H352 H 0.66232 0.16834 0.06532 0.0
H353 H 0.67316 0.17904 0.19444 0.0
H354 H 0.64077 0.1693 0.17147 0.0
O355 O 0.65991 0.19853 0.16972 0.0
O356 O 0.64251 0.19384 0.16952 0.0
O357 O 0.64459 0.17815 0.07535 0.0
C358 C 0.65034 0.19956 0.19082 0.0
H359 H 0.63137 0.214 0.00594 0.0
H360 H 0.66928 0.16199 0.2577 0.0
H361 H 0.68044 0.16257 0.03702 0.0
H362 H 0.69247 0.19467 0.07464 0.0
Co363 Co 0.56599 0.90506 0.83702 0.0
C364 C 0.54751 0.90243 0.75883 0.0
C365 C 0.56316 0.90404 0.72151 0.0
C366 C 0.55548 0.90263 0.68232 0.0
N367 N 0.55823 0.90387 0.76959 0.0
N368 N 0.54565 0.90159 0.7057 0.0
H369 H 0.5412 0.90188 0.78883 0.0
H370 H 0.5718 0.90519 0.71527 0.0
C371 C 0.58742 0.89278 0.81577 0.0
O372 O 0.59218 0.8965 0.85899 0.0
N373 N 0.57372 0.90606 0.90437 0.0
C374 C 0.57706 0.91507 0.93034 0.0
C375 C 0.58266 0.91193 0.97554 0.0
C376 C 0.57671 0.89764 0.9357 0.0
N377 N 0.58254 0.90095 0.97846 0.0
C378 C 0.5655 0.92654 0.79663 0.0
C379 C 0.58761 0.93073 0.79636 0.0
C380 C 0.58037 0.9391 0.78226 0.0
C381 C 0.5692 0.93683 0.78184 0.0
C382 C 0.58355 0.92046 0.81042 0.0
N383 N 0.57259 0.91852 0.81129 0.0
H384 H 0.55683 0.92506 0.79727 0.0
H385 H 0.58924 0.91433 0.82261 0.0
H386 H 0.57576 0.92334 0.91688 0.0
H387 H 0.57544 0.8892 0.92479 0.0
O388 O 0.55362 0.9115 0.87148 0.0
O389 O 0.55688 0.89375 0.86818 0.0
O390 O 0.5777 0.8956 0.80354 0.0
C391 C 0.55076 0.90172 0.88527 0.0
H392 H 0.55699 0.90257 0.63974 0.0
H393 H 0.58675 0.91731 0.00327 0.0
H394 H 0.59631 0.93214 0.7971 0.0
H395 H 0.56329 0.94307 0.77201 0.0
Co396 Co 0.8357 0.18227 0.90895 0.0
C397 C 0.83712 0.20246 0.97587 0.0
C398 C 0.83833 0.18791 0.02269 0.0
C399 C 0.83984 0.19668 0.05575 0.0
N400 N 0.83653 0.19146 0.97239 0.0
N401 N 0.83916 0.20582 0.02628 0.0
H402 H 0.83637 0.20795 0.94235 0.0
H403 H 0.83919 0.17952 0.03471 0.0
C404 C 0.84407 0.16062 0.94843 0.0
O405 O 0.83626 0.15563 0.92215 0.0
N406 N 0.83537 0.17308 0.84568 0.0
C407 C 0.82748 0.17185 0.80861 0.0
C408 C 0.83126 0.16516 0.76859 0.0
C409 C 0.84394 0.16737 0.82659 0.0
N410 N 0.84159 0.1623 0.78017 0.0
C411 C 0.81261 0.17976 0.90792 0.0
C412 C 0.8103 0.16601 0.99427 0.0
C413 C 0.80106 0.16895 0.96482 0.0
C414 C 0.80232 0.176 0.9216 0.0
C415 C 0.82059 0.1698 0.97837 0.0
N416 N 0.82175 0.17634 0.93429 0.0
H417 H 0.8131 0.18553 0.87568 0.0
H418 H 0.82748 0.16746 0.0022 0.0
H419 H 0.81962 0.17573 0.80891 0.0
H420 H 0.85183 0.16712 0.84584 0.0
O421 O 0.82994 0.19416 0.86783 0.0
O422 O 0.8475 0.19054 0.8758 0.0
O423 O 0.84479 0.171 0.94744 0.0
C424 C 0.83986 0.19658 0.85496 0.0
H425 H 0.84198 0.19633 0.09768 0.0
H426 H 0.82674 0.16259 0.73367 0.0
H427 H 0.80959 0.16078 0.02895 0.0
H428 H 0.79532 0.17882 0.8991 0.0
Co429 Co 0.56707 0.08804 0.6678 0.0
C430 C 0.54821 0.09284 0.741 0.0
C431 C 0.56292 0.0884 0.78199 0.0
C432 C 0.55526 0.09119 0.81936 0.0
N433 N 0.55857 0.08945 0.73279 0.0
N434 N 0.54605 0.09401 0.79366 0.0
H435 H 0.54248 0.09479 0.70962 0.0
H436 H 0.57124 0.08603 0.79013 0.0
C437 C 0.58858 0.09945 0.69728 0.0
O438 O 0.59407 0.09516 0.65758 0.0
N439 N 0.57567 0.08688 0.60329 0.0
C440 C 0.57893 0.07785 0.57726 0.0
C441 C 0.58514 0.08094 0.53394 0.0
C442 C 0.57947 0.09529 0.57421 0.0
N443 N 0.58558 0.09194 0.53251 0.0
C444 C 0.56523 0.0664 0.7046 0.0
C445 C 0.58708 0.06121 0.7113 0.0
C446 C 0.57933 0.05295 0.71829 0.0
C447 C 0.56828 0.05574 0.71639 0.0
C448 C 0.58365 0.07184 0.69951 0.0
N449 N 0.57283 0.07426 0.69471 0.0
H450 H 0.55665 0.06829 0.70191 0.0
H451 H 0.58976 0.07783 0.69179 0.0
H452 H 0.57711 0.06959 0.58934 0.0
H453 H 0.57811 0.10372 0.58489 0.0
O454 O 0.55493 0.08207 0.62926 0.0
O455 O 0.55874 0.09968 0.63416 0.0
O456 O 0.57853 0.09717 0.705 0.0
C457 C 0.55255 0.09195 0.61506 0.0
H458 H 0.55638 0.0912 0.86226 0.0
H459 H 0.58935 0.0755 0.50694 0.0
H460 H 0.59571 0.0594 0.7124 0.0
H461 H 0.56201 0.04969 0.72285 0.0
Co462 Co 0.66438 0.81446 0.39527 0.0
C463 C 0.66125 0.79514 0.46719 0.0
C464 C 0.66707 0.80929 0.50846 0.0
C465 C 0.66526 0.8012 0.54526 0.0
N466 N 0.66465 0.80551 0.45934 0.0
N467 N 0.66158 0.79229 0.51942 0.0
H468 H 0.65842 0.78982 0.43576 0.0
H469 H 0.6696 0.81753 0.51725 0.0
C470 C 0.65146 0.83465 0.42968 0.0
O471 O 0.65437 0.84024 0.38738 0.0
N472 N 0.66388 0.82336 0.33135 0.0
C473 C 0.67225 0.82776 0.30407 0.0
C474 C 0.66812 0.83368 0.2619 0.0
C475 C 0.65485 0.82614 0.30377 0.0
N476 N 0.65716 0.83274 0.26214 0.0
C477 C 0.68664 0.81451 0.42275 0.0
C478 C 0.6897 0.83667 0.43458 0.0
C479 C 0.69877 0.82972 0.43592 0.0
C480 C 0.69709 0.8185 0.43125 0.0
C481 C 0.67931 0.83231 0.42544 0.0
N482 N 0.67792 0.82135 0.41822 0.0
H483 H 0.68557 0.80582 0.41857 0.0
H484 H 0.6726 0.83783 0.42201 0.0
H485 H 0.68076 0.82687 0.31435 0.0
H486 H 0.6467 0.82402 0.31645 0.0
O487 O 0.67093 0.80316 0.35351 0.0
O488 O 0.65314 0.80517 0.36431 0.0
O489 O 0.65493 0.82494 0.43727 0.0
C490 C 0.66118 0.79982 0.34237 0.0
H491 H 0.66615 0.80201 0.58807 0.0
H492 H 0.67281 0.83844 0.23378 0.0
H493 H 0.6907 0.8454 0.43833 0.0
H494 H 0.70384 0.81284 0.43344 0.0
Co495 Co 0.93581 0.90951 0.15247 0.0
C496 C 0.95721 0.90858 0.21371 0.0
C497 C 0.9471 0.89446 0.22121 0.0
C498 C 0.95678 0.89232 0.24595 0.0
N499 N 0.94713 0.90473 0.20188 0.0
N500 N 0.96316 0.90116 0.24113 0.0
H501 H 0.96052 0.91618 0.19966 0.0
H502 H 0.94064 0.88861 0.21519 0.0
C503 C 0.92387 0.90242 0.2487 0.0
O504 O 0.93069 0.90867 0.27517 0.0
N505 N 0.92452 0.91316 0.1022 0.0
C506 C 0.92351 0.92204 0.07096 0.0
C507 C 0.91504 0.92027 0.03557 0.0
C508 C 0.91678 0.90618 0.08573 0.0
N509 N 0.91084 0.91028 0.04512 0.0
C510 C 0.94138 0.93071 0.19097 0.0
C511 C 0.9205 0.93712 0.21742 0.0
C512 C 0.92886 0.9449 0.21783 0.0
C513 C 0.93946 0.94147 0.20592 0.0
C514 C 0.9228 0.92636 0.20253 0.0
N515 N 0.93317 0.92325 0.18943 0.0
H516 H 0.94935 0.92869 0.17646 0.0
H517 H 0.91609 0.92074 0.1981 0.0
H518 H 0.9288 0.92907 0.07241 0.0
H519 H 0.91598 0.89798 0.10104 0.0
O520 O 0.94654 0.9148 0.10357 0.0
O521 O 0.94051 0.89777 0.10524 0.0
O522 O 0.92461 0.9017 0.19782 0.0
C523 C 0.94689 0.90506 0.08371 0.0
H524 H 0.95906 0.88474 0.26503 0.0
H525 H 0.91238 0.92577 0.00442 0.0
H526 H 0.91214 0.93945 0.22519 0.0
H527 H 0.94619 0.94717 0.20564 0.0
Co528 Co 0.65527 0.68398 0.88531 0.0
C529 C 0.65699 0.70136 0.96894 0.0
C530 C 0.64162 0.69299 0.96792 0.0
C531 C 0.64133 0.70062 0.00768 0.0
N532 N 0.65143 0.69335 0.94401 0.0
N533 N 0.65096 0.70588 0.00849 0.0
H534 H 0.66519 0.7038 0.95859 0.0
H535 H 0.63502 0.68764 0.95657 0.0
C536 C 0.64874 0.66171 0.92417 0.0
O537 O 0.65703 0.65745 0.89844 0.0
N538 N 0.65825 0.67434 0.82553 0.0
C539 C 0.66759 0.67105 0.80197 0.0
C540 C 0.66507 0.66366 0.76227 0.0
C541 C 0.65027 0.66909 0.79903 0.0
N542 N 0.65416 0.66246 0.76063 0.0
C543 C 0.67827 0.68408 0.9001 0.0
C544 C 0.67919 0.67211 0.99335 0.0
C545 C 0.68893 0.67566 0.96981 0.0
C546 C 0.68834 0.68183 0.92299 0.0
C547 C 0.66919 0.67467 0.96918 0.0
N548 N 0.66885 0.68009 0.92144 0.0
H549 H 0.67816 0.68889 0.86411 0.0
H550 H 0.66179 0.67244 0.9896 0.0
H551 H 0.67571 0.67356 0.81237 0.0
H552 H 0.64174 0.66976 0.80953 0.0
O553 O 0.66071 0.69614 0.84541 0.0
O554 O 0.64358 0.69063 0.84316 0.0
O555 O 0.64691 0.67195 0.92204 0.0
C556 C 0.65101 0.6974 0.82618 0.0
H557 H 0.63443 0.70239 0.03313 0.0
H558 H 0.67082 0.65948 0.73677 0.0
H559 H 0.6793 0.66763 0.0306 0.0
H560 H 0.69563 0.6848 0.90351 0.0
Co561 Co 0.56662 0.40678 0.15268 0.0
C562 C 0.54758 0.40684 0.23241 0.0
C563 C 0.55362 0.39119 0.20853 0.0
C564 C 0.54532 0.38959 0.24388 0.0
N565 N 0.55523 0.40197 0.2014 0.0
N566 N 0.54152 0.39938 0.25916 0.0
H567 H 0.54644 0.4155 0.23639 0.0
H568 H 0.55829 0.38486 0.18917 0.0
C569 C 0.57796 0.39668 0.24382 0.0
O570 O 0.57146 0.40263 0.27355 0.0
N571 N 0.57795 0.41042 0.10263 0.0
C572 C 0.57978 0.41975 0.07584 0.0
C573 C 0.58785 0.41785 0.03842 0.0
C574 C 0.58476 0.40304 0.08138 0.0
N575 N 0.59089 0.40728 0.04178 0.0
C576 C 0.56329 0.42779 0.19856 0.0
C577 C 0.58483 0.43159 0.22458 0.0
C578 C 0.5774 0.44024 0.22704 0.0
C579 C 0.56644 0.43814 0.21538 0.0
C580 C 0.58129 0.42128 0.20834 0.0
N581 N 0.57063 0.41947 0.19511 0.0
H582 H 0.5551 0.42678 0.18381 0.0
H583 H 0.58734 0.41502 0.20216 0.0
H584 H 0.57529 0.42725 0.08163 0.0
H585 H 0.58495 0.39462 0.09392 0.0
O586 O 0.55614 0.41388 0.10811 0.0
O587 O 0.56075 0.39652 0.10026 0.0
O588 O 0.5773 0.39721 0.19284 0.0
C589 C 0.55494 0.40473 0.08322 0.0
H590 H 0.54217 0.38178 0.2567 0.0
H591 H 0.59085 0.42365 0.00944 0.0
H592 H 0.5934 0.43291 0.23258 0.0
H593 H 0.56049 0.44466 0.21498 0.0
Co594 Co 0.84798 0.312 0.39103 0.0
C595 C 0.84685 0.29191 0.46332 0.0
C596 C 0.86285 0.2981 0.44736 0.0
C597 C 0.86388 0.28904 0.47863 0.0
N598 N 0.85222 0.30002 0.43761 0.0
N599 N 0.85386 0.28509 0.4886 0.0
H600 H 0.83815 0.2908 0.46335 0.0
H601 H 0.86947 0.30306 0.43254 0.0
C602 C 0.85699 0.32224 0.48817 0.0
O603 O 0.85093 0.31528 0.51475 0.0
N604 N 0.84476 0.32392 0.34358 0.0
C605 C 0.83569 0.32589 0.31499 0.0
C606 C 0.83776 0.33451 0.28095 0.0
C607 C 0.85216 0.33123 0.32677 0.0
N608 N 0.84817 0.33781 0.28822 0.0
C609 C 0.82634 0.30797 0.42725 0.0
C610 C 0.82219 0.32878 0.46413 0.0
C611 C 0.81354 0.3214 0.45944 0.0
C612 C 0.81579 0.3108 0.44214 0.0
C613 C 0.83268 0.32561 0.44862 0.0
N614 N 0.83469 0.31528 0.43046 0.0
H615 H 0.82758 0.3001 0.40921 0.0
H616 H 0.83896 0.33176 0.44732 0.0
H617 H 0.82828 0.32116 0.31724 0.0
H618 H 0.86042 0.33145 0.34173 0.0
O619 O 0.84171 0.30201 0.34102 0.0
O620 O 0.85904 0.30696 0.34054 0.0
O621 O 0.85687 0.32222 0.43706 0.0
C622 C 0.85123 0.30121 0.31917 0.0
H623 H 0.87145 0.28571 0.49354 0.0
H624 H 0.83217 0.33774 0.2515 0.0
H625 H 0.82075 0.33713 0.47612 0.0
H626 H 0.80933 0.30486 0.43771 0.0
Co627 Co 0.93206 0.5902 0.66816 0.0
C628 C 0.95134 0.59395 0.73921 0.0
C629 C 0.93712 0.58894 0.78242 0.0
C630 C 0.94535 0.59089 0.81844 0.0
N631 N 0.94087 0.59077 0.73263 0.0
N632 N 0.95428 0.59407 0.79124 0.0
H633 H 0.95672 0.59621 0.70699 0.0
H634 H 0.92886 0.58658 0.79201 0.0
C635 C 0.9113 0.60271 0.69839 0.0
O636 O 0.90619 0.59967 0.65491 0.0
N637 N 0.92338 0.58989 0.60347 0.0
C638 C 0.91948 0.58123 0.57653 0.0
C639 C 0.91392 0.58493 0.53217 0.0
C640 C 0.92069 0.59864 0.57362 0.0
N641 N 0.91459 0.5959 0.5308 0.0
C642 C 0.93263 0.56834 0.70345 0.0
C643 C 0.91048 0.56451 0.70825 0.0
C644 C 0.91769 0.55584 0.71723 0.0
C645 C 0.9289 0.55793 0.71573 0.0
C646 C 0.91458 0.5749 0.69677 0.0
N647 N 0.92555 0.57665 0.69328 0.0
H648 H 0.94131 0.56969 0.70079 0.0
H649 H 0.90889 0.58129 0.68814 0.0
H650 H 0.9205 0.57282 0.58832 0.0
H651 H 0.92285 0.60689 0.58444 0.0
O652 O 0.94377 0.58378 0.62836 0.0
O653 O 0.94095 0.60156 0.6358 0.0
O654 O 0.92104 0.59951 0.70798 0.0
C655 C 0.94667 0.5936 0.6155 0.0
H656 H 0.94469 0.59033 0.86145 0.0
H657 H 0.90944 0.57992 0.5042 0.0
H658 H 0.90175 0.56324 0.70915 0.0
H659 H 0.93478 0.55146 0.72172 0.0
Co660 Co 0.66526 0.31842 0.60282 0.0
C661 C 0.6634 0.29826 0.53578 0.0
C662 C 0.6622 0.31286 0.48931 0.0
C663 C 0.66057 0.30412 0.45613 0.0
N664 N 0.66406 0.30925 0.53946 0.0
N665 N 0.66125 0.29495 0.48536 0.0
H666 H 0.66422 0.29273 0.5691 0.0
H667 H 0.66144 0.32126 0.47741 0.0
C668 C 0.65729 0.34023 0.56245 0.0
O669 O 0.66523 0.34523 0.58775 0.0
N670 N 0.66599 0.32766 0.66588 0.0
C671 C 0.67406 0.32881 0.70201 0.0
C672 C 0.67072 0.33595 0.74106 0.0
C673 C 0.65773 0.33381 0.68481 0.0
N674 N 0.66046 0.33916 0.73004 0.0
C675 C 0.6884 0.32023 0.60278 0.0
C676 C 0.69095 0.33395 0.51646 0.0
C677 C 0.70014 0.33077 0.54567 0.0
C678 C 0.69877 0.32374 0.58884 0.0
C679 C 0.68059 0.33042 0.53266 0.0
N680 N 0.67933 0.32392 0.57679 0.0
H681 H 0.68781 0.31447 0.635 0.0
H682 H 0.67373 0.33293 0.50903 0.0
H683 H 0.68175 0.3246 0.70172 0.0
H684 H 0.6499 0.33444 0.66527 0.0
O685 O 0.67071 0.30635 0.64373 0.0
O686 O 0.65325 0.31057 0.6365 0.0
O687 O 0.65642 0.32987 0.56452 0.0
C688 C 0.66073 0.30425 0.65676 0.0
H689 H 0.65841 0.30453 0.41425 0.0
H690 H 0.67544 0.33838 0.77556 0.0
H691 H 0.69177 0.33916 0.48177 0.0
H692 H 0.70573 0.32076 0.61113 0.0
Co693 Co 0.93512 0.41008 0.84235 0.0
C694 C 0.95469 0.40776 0.77106 0.0
C695 C 0.93971 0.40375 0.73157 0.0
C696 C 0.94812 0.40166 0.69719 0.0
N697 N 0.94374 0.40751 0.77826 0.0
N698 N 0.95752 0.40411 0.722 0.0
H699 H 0.9605 0.41013 0.80135 0.0
H700 H 0.93123 0.40229 0.72285 0.0
C701 C 0.91303 0.40107 0.81237 0.0
O702 O 0.90819 0.40939 0.83538 0.0
N703 N 0.92638 0.41216 0.90617 0.0
C704 C 0.92454 0.42117 0.93557 0.0
C705 C 0.91779 0.4185 0.97758 0.0
C706 C 0.92102 0.40411 0.93175 0.0
N707 N 0.91553 0.40775 0.97494 0.0
C708 C 0.93348 0.43306 0.82789 0.0
C709 C 0.91832 0.43343 0.74652 0.0
C710 C 0.92227 0.44329 0.7668 0.0
C711 C 0.93004 0.443 0.80744 0.0
C712 C 0.92218 0.42356 0.76755 0.0
N713 N 0.92932 0.42342 0.80965 0.0
H714 H 0.9395 0.43325 0.85911 0.0
H715 H 0.91947 0.41615 0.74901 0.0
H716 H 0.92788 0.42914 0.92808 0.0
H717 H 0.92093 0.39577 0.9178 0.0
O718 O 0.94741 0.41644 0.87821 0.0
O719 O 0.94333 0.39892 0.88076 0.0
O720 O 0.92341 0.4004 0.81169 0.0
C721 C 0.94963 0.40683 0.89663 0.0
H722 H 0.9474 0.39846 0.65704 0.0
H723 H 0.91488 0.42405 0.00791 0.0
H724 H 0.9125 0.43335 0.71398 0.0
H725 H 0.93336 0.45046 0.82395 0.0
Co726 Co 0.83632 0.68539 0.1039 0.0
C727 C 0.83807 0.70444 0.02916 0.0
C728 C 0.83496 0.68939 0.98864 0.0
C729 C 0.83696 0.69725 0.95106 0.0
N730 N 0.83564 0.69381 0.03792 0.0
N731 N 0.83898 0.70668 0.97647 0.0
H732 H 0.83987 0.71029 0.06017 0.0
H733 H 0.8339 0.68087 0.97995 0.0
C734 C 0.84614 0.66384 0.07042 0.0
O735 O 0.84002 0.6587 0.10532 0.0
N736 N 0.83746 0.67696 0.16927 0.0
C737 C 0.82965 0.67385 0.20394 0.0
C738 C 0.83436 0.6676 0.24339 0.0
C739 C 0.84682 0.67285 0.18918 0.0
N740 N 0.84514 0.66688 0.23372 0.0
C741 C 0.81325 0.68288 0.1111 0.0
C742 C 0.81042 0.66592 0.04026 0.0
C743 C 0.80137 0.67001 0.06765 0.0
C744 C 0.80289 0.67863 0.1031 0.0
C745 C 0.8208 0.67027 0.05043 0.0
N746 N 0.82221 0.67858 0.0864 0.0
H747 H 0.81393 0.68952 0.13886 0.0
H748 H 0.8275 0.66696 0.02826 0.0
H749 H 0.82111 0.67579 0.20107 0.0
H750 H 0.85465 0.67398 0.17025 0.0
O751 O 0.83082 0.69744 0.14465 0.0
O752 O 0.84829 0.69449 0.12995 0.0
O753 O 0.84525 0.67414 0.0642 0.0
C754 C 0.8408 0.70029 0.15347 0.0
H755 H 0.83737 0.69603 0.90828 0.0
H756 H 0.83007 0.66356 0.27553 0.0
H757 H 0.80949 0.65937 0.01165 0.0
H758 H 0.79604 0.68217 0.1242 0.0
Co759 Co 0.56638 0.58771 0.33063 0.0
C760 C 0.54764 0.58615 0.25523 0.0
C761 C 0.55912 0.59851 0.2327 0.0
C762 C 0.55055 0.59885 0.19773 0.0
N763 N 0.5574 0.59048 0.26849 0.0
N764 N 0.54331 0.59114 0.21196 0.0
H765 H 0.54364 0.57976 0.27761 0.0
H766 H 0.56576 0.60424 0.23343 0.0
C767 C 0.58882 0.59579 0.29871 0.0
O768 O 0.59359 0.58848 0.32903 0.0
N769 N 0.57541 0.58553 0.39337 0.0
C770 C 0.57901 0.57637 0.41744 0.0
C771 C 0.58585 0.57925 0.45884 0.0
C772 C 0.57989 0.59379 0.42128 0.0
N773 N 0.5864 0.59021 0.46098 0.0
C774 C 0.56679 0.56466 0.31811 0.0
C775 C 0.58124 0.56344 0.23385 0.0
C776 C 0.57703 0.55382 0.25566 0.0
C777 C 0.5696 0.55453 0.29765 0.0
C778 C 0.57798 0.57353 0.25491 0.0
N779 N 0.57124 0.57404 0.29841 0.0
H780 H 0.56119 0.56484 0.3512 0.0
H781 H 0.58077 0.58082 0.23534 0.0
H782 H 0.57711 0.56814 0.40591 0.0
H783 H 0.57887 0.60227 0.41063 0.0
O784 O 0.55401 0.58208 0.36842 0.0
O785 O 0.55881 0.59943 0.3685 0.0
O786 O 0.57844 0.59638 0.29591 0.0
C787 C 0.55209 0.59189 0.38464 0.0
H788 H 0.54941 0.60479 0.16628 0.0
H789 H 0.59017 0.5737 0.48494 0.0
H790 H 0.58679 0.56316 0.20027 0.0
H791 H 0.56613 0.54726 0.31537 0.0
Co792 Co 0.34028 0.31743 0.09547 0.0
C793 C 0.3419 0.29818 0.02164 0.0
C794 C 0.34474 0.3134 0.982 0.0
C795 C 0.34582 0.30521 0.94533 0.0
N796 N 0.34221 0.30908 0.03002 0.0
N797 N 0.34405 0.29564 0.9701 0.0
H798 H 0.34014 0.29221 0.05221 0.0
H799 H 0.34596 0.32193 0.97362 0.0
C800 C 0.34744 0.33999 0.06355 0.0
O801 O 0.33907 0.34418 0.08902 0.0
N802 N 0.3388 0.32593 0.16055 0.0
C803 C 0.33018 0.32728 0.1933 0.0
C804 C 0.33312 0.33418 0.23424 0.0
C805 C 0.34691 0.33175 0.18313 0.0
N806 N 0.34364 0.33705 0.22759 0.0
C807 C 0.3171 0.31797 0.08998 0.0
C808 C 0.31466 0.33246 0.00657 0.0
C809 C 0.30536 0.32789 0.02997 0.0
C810 C 0.3067 0.32056 0.07202 0.0
C811 C 0.32502 0.32951 0.02544 0.0
N812 N 0.32618 0.32261 0.06814 0.0
H813 H 0.3177 0.31211 0.12177 0.0
H814 H 0.33197 0.33266 0.00449 0.0
H815 H 0.32231 0.32353 0.18883 0.0
H816 H 0.35499 0.33233 0.16611 0.0
O817 O 0.33503 0.3048 0.13256 0.0
O818 O 0.35235 0.3096 0.1291 0.0
O819 O 0.34887 0.32969 0.06223 0.0
C820 C 0.34497 0.30292 0.14723 0.0
H821 H 0.34806 0.3062 0.9038 0.0
H822 H 0.32791 0.3368 0.26658 0.0
H823 H 0.31394 0.33798 0.97301 0.0
H824 H 0.29973 0.31681 0.09116 0.0
Co825 Co 0.4356 0.59309 0.84257 0.0
C826 C 0.45642 0.59253 0.77445 0.0
C827 C 0.45023 0.60834 0.79428 0.0
C828 C 0.45961 0.60969 0.76583 0.0
N829 N 0.44811 0.59762 0.80002 0.0
N830 N 0.46356 0.59979 0.75343 0.0
H831 H 0.45746 0.58384 0.77146 0.0
H832 H 0.44519 0.61481 0.81001 0.0
C833 C 0.42644 0.60316 0.74555 0.0
O834 O 0.43351 0.59719 0.71927 0.0
N835 N 0.42317 0.58971 0.88634 0.0
C836 C 0.42055 0.58042 0.91182 0.0
C837 C 0.41178 0.5825 0.945 0.0
C838 C 0.41611 0.59725 0.90419 0.0
N839 N 0.40909 0.59314 0.94038 0.0
C840 C 0.43981 0.57197 0.79956 0.0
C841 C 0.41919 0.56841 0.75891 0.0
C842 C 0.4267 0.55982 0.75918 0.0
C843 C 0.43719 0.56177 0.77881 0.0
C844 C 0.42222 0.5786 0.77913 0.0
N845 N 0.43247 0.58032 0.79896 0.0
H846 H 0.44752 0.57287 0.8197 0.0
H847 H 0.41607 0.58486 0.78217 0.0
H848 H 0.42496 0.57282 0.90824 0.0
H849 H 0.41641 0.60569 0.89196 0.0
O850 O 0.44492 0.58606 0.89329 0.0
O851 O 0.44035 0.60352 0.89669 0.0
O852 O 0.42602 0.60264 0.79655 0.0
C853 C 0.44568 0.59535 0.91744 0.0
H854 H 0.46318 0.61741 0.75441 0.0
H855 H 0.40807 0.57677 0.97229 0.0
H856 H 0.41093 0.56716 0.74503 0.0
H857 H 0.44311 0.55525 0.78161 0.0
Co858 Co 0.16029 0.68665 0.60283 0.0
C859 C 0.15854 0.7057 0.52787 0.0
C860 C 0.15724 0.69032 0.4879 0.0
C861 C 0.15522 0.6984 0.45151 0.0
N862 N 0.1593 0.6948 0.53612 0.0
N863 N 0.15594 0.70805 0.47661 0.0
H864 H 0.15926 0.71179 0.55883 0.0
H865 H 0.15659 0.68173 0.47953 0.0
C866 C 0.15228 0.66433 0.56961 0.0
O867 O 0.16014 0.65962 0.59682 0.0
N868 N 0.16078 0.6784 0.66912 0.0
C869 C 0.16858 0.67798 0.70708 0.0
C870 C 0.16508 0.67135 0.74802 0.0
C871 C 0.1525 0.67236 0.68869 0.0
N872 N 0.155 0.66776 0.73604 0.0
C873 C 0.1834 0.68451 0.60592 0.0
C874 C 0.18606 0.66899 0.52744 0.0
C875 C 0.19512 0.67229 0.55731 0.0
C876 C 0.19371 0.68032 0.59605 0.0
C877 C 0.17574 0.67331 0.53925 0.0
N878 N 0.17439 0.68062 0.5801 0.0
H879 H 0.18278 0.69087 0.63525 0.0
H880 H 0.16899 0.67065 0.51535 0.0
H881 H 0.17622 0.68229 0.70644 0.0
H882 H 0.14473 0.67145 0.66879 0.0
O883 O 0.16576 0.69921 0.63973 0.0
O884 O 0.14829 0.69511 0.63301 0.0
O885 O 0.15145 0.6747 0.5684 0.0
C886 C 0.15579 0.70152 0.65224 0.0
H887 H 0.15306 0.69724 0.40996 0.0
H888 H 0.16965 0.66924 0.78352 0.0
H889 H 0.18689 0.66301 0.4959 0.0
H890 H 0.20059 0.68347 0.6184 0.0
Co891 Co 0.06623 0.41423 0.34548 0.0
C892 C 0.04641 0.41416 0.27477 0.0
C893 C 0.06123 0.41154 0.23142 0.0
C894 C 0.05273 0.411 0.1962 0.0
N895 N 0.05737 0.41361 0.28088 0.0
N896 N 0.0434 0.41261 0.22327 0.0
H897 H 0.04071 0.41551 0.30701 0.0
H898 H 0.06963 0.41009 0.22108 0.0
C899 C 0.08823 0.40695 0.30598 0.0
O900 O 0.09287 0.41489 0.33281 0.0
N901 N 0.07519 0.41436 0.40971 0.0
C902 C 0.07613 0.42203 0.44803 0.0
C903 C 0.08303 0.41827 0.48724 0.0
C904 C 0.08123 0.4059 0.42747 0.0
N905 N 0.08629 0.40813 0.47416 0.0
C906 C 0.06831 0.43736 0.35064 0.0
C907 C 0.08164 0.44054 0.26338 0.0
C908 C 0.07861 0.44952 0.29448 0.0
C909 C 0.07178 0.44783 0.33817 0.0
C910 C 0.07815 0.43007 0.27808 0.0
N911 N 0.07187 0.42848 0.3227 0.0
H912 H 0.06259 0.43653 0.38286 0.0
H913 H 0.08047 0.42338 0.25286 0.0
H914 H 0.0719 0.4297 0.44928 0.0
H915 H 0.08195 0.39826 0.40622 0.0
O916 O 0.05408 0.41942 0.38647 0.0
O917 O 0.05814 0.40201 0.3757 0.0
O918 O 0.07791 0.40571 0.30708 0.0
C919 C 0.0519 0.40935 0.3977 0.0
H920 H 0.05333 0.40908 0.15411 0.0
H921 H 0.08521 0.42259 0.52336 0.0
H922 H 0.08667 0.44159 0.22824 0.0
H923 H 0.06887 0.45462 0.36184 0.0
Co924 Co 0.33951 0.68228 0.38907 0.0
C925 C 0.33776 0.70004 0.47141 0.0
C926 C 0.34927 0.68767 0.49315 0.0
C927 C 0.34941 0.69555 0.5317 0.0
N928 N 0.34189 0.69034 0.45526 0.0
N929 N 0.34222 0.70335 0.51821 0.0
H930 H 0.33178 0.70467 0.44919 0.0
H931 H 0.35453 0.68064 0.49299 0.0
C932 C 0.34814 0.66052 0.42394 0.0
O933 O 0.33907 0.65591 0.40767 0.0
N934 N 0.33787 0.67425 0.32182 0.0
C935 C 0.33104 0.67629 0.28055 0.0
C936 C 0.3336 0.66953 0.23847 0.0
C937 C 0.34488 0.66673 0.30233 0.0
N938 N 0.34232 0.66351 0.25233 0.0
C939 C 0.3173 0.67556 0.39282 0.0
C940 C 0.31732 0.6668 0.49439 0.0
C941 C 0.30765 0.66672 0.46456 0.0
C942 C 0.30775 0.6712 0.4133 0.0
C943 C 0.32686 0.67108 0.47168 0.0
N944 N 0.32683 0.67516 0.42073 0.0
H945 H 0.31682 0.67971 0.35528 0.0
H946 H 0.33422 0.67115 0.49524 0.0
H947 H 0.325 0.68268 0.27924 0.0
H948 H 0.35202 0.66393 0.32327 0.0
O949 O 0.33192 0.69443 0.35897 0.0
O950 O 0.34975 0.69189 0.35288 0.0
O951 O 0.34975 0.67069 0.41632 0.0
C952 C 0.34123 0.6978 0.34105 0.0
H953 H 0.35479 0.69575 0.56596 0.0
H954 H 0.32968 0.66948 0.19974 0.0
H955 H 0.31749 0.66364 0.53477 0.0
H956 H 0.30033 0.67178 0.38995 0.0
Co957 Co 0.06228 0.59876 0.15334 0.0
C958 C 0.04259 0.59849 0.22769 0.0
C959 C 0.05041 0.61398 0.21824 0.0
C960 C 0.04152 0.61538 0.25034 0.0
N961 N 0.05124 0.60341 0.20426 0.0
N962 N 0.03655 0.60568 0.25618 0.0
H963 H 0.04044 0.59004 0.22306 0.0
H964 H 0.0559 0.62033 0.2052 0.0
C965 C 0.07434 0.60668 0.24765 0.0
O966 O 0.06755 0.60068 0.27559 0.0
N967 N 0.07326 0.59507 0.10164 0.0
C968 C 0.07409 0.58605 0.07131 0.0
C969 C 0.08236 0.58763 0.03471 0.0
C970 C 0.08092 0.60196 0.08349 0.0
N971 N 0.08662 0.59764 0.04263 0.0
C972 C 0.05762 0.57718 0.18929 0.0
C973 C 0.07863 0.57188 0.21927 0.0
C974 C 0.07075 0.56364 0.21729 0.0
C975 C 0.06008 0.56647 0.2033 0.0
C976 C 0.07583 0.58253 0.2048 0.0
N977 N 0.06539 0.58512 0.19034 0.0
H978 H 0.04963 0.57882 0.17352 0.0
H979 H 0.08227 0.58847 0.20148 0.0
H980 H 0.06882 0.57902 0.07432 0.0
H981 H 0.08187 0.61021 0.09794 0.0
O982 O 0.05125 0.59332 0.10632 0.0
O983 O 0.05715 0.61035 0.10602 0.0
O984 O 0.07361 0.60689 0.19664 0.0
C985 C 0.05066 0.60299 0.08593 0.0
H986 H 0.03893 0.62298 0.26812 0.0
H987 H 0.08486 0.58197 0.00397 0.0
H988 H 0.08704 0.56999 0.22847 0.0
H989 H 0.05374 0.56034 0.20088 0.0
Co990 Co 0.15686 0.3164 0.90574 0.0
C991 C 0.15706 0.29576 0.97111 0.0
C992 C 0.14343 0.30614 0.98665 0.0
C993 C 0.14168 0.29646 0.01209 0.0
N994 N 0.15322 0.30598 0.96198 0.0
N995 N 0.15018 0.28989 0.002 0.0
H996 H 0.16406 0.29226 0.95137 0.0
H997 H 0.13736 0.31244 0.98244 0.0
C998 C 0.14916 0.3304 0.99373 0.0
O999 O 0.1561 0.32492 0.02333 0.0
N1000 N 0.15942 0.32656 0.84845 0.0
C1001 C 0.16831 0.32793 0.81765 0.0
C1002 C 0.16578 0.3353 0.77772 0.0
C1003 C 0.15167 0.33293 0.82693 0.0
N1004 N 0.15527 0.33835 0.78353 0.0
C1005 C 0.17802 0.31381 0.95262 0.0
C1006 C 0.18299 0.33575 0.95782 0.0
C1007 C 0.19118 0.32811 0.96885 0.0
C1008 C 0.18849 0.31702 0.96735 0.0
C1009 C 0.17257 0.33218 0.9436 0.0
N1010 N 0.1702 0.3213 0.94059 0.0
H1011 H 0.17647 0.30526 0.94742 0.0
H1012 H 0.16655 0.33818 0.93222 0.0
H1013 H 0.17594 0.32365 0.82293 0.0
H1014 H 0.14345 0.33337 0.84237 0.0
O1015 O 0.1633 0.30507 0.86416 0.0
O1016 O 0.14577 0.30933 0.86173 0.0
O1017 O 0.14808 0.32804 0.94413 0.0
C1018 C 0.15373 0.30317 0.84457 0.0
H1019 H 0.1344 0.29419 0.03375 0.0
H1020 H 0.17113 0.33785 0.74576 0.0
H1021 H 0.1847 0.3444 0.95845 0.0
H1022 H 0.19461 0.31082 0.97415 0.0
Co1023 Co 0.43495 0.40916 0.65052 0.0
C1024 C 0.45476 0.40991 0.72476 0.0
C1025 C 0.44552 0.39512 0.72642 0.0
C1026 C 0.45416 0.39394 0.7603 0.0
N1027 N 0.44558 0.40523 0.70515 0.0
N1028 N 0.45996 0.40322 0.75943 0.0
H1029 H 0.45783 0.4178 0.71356 0.0
H1030 H 0.43967 0.38884 0.71674 0.0
C1031 C 0.4219 0.40273 0.7443 0.0
O1032 O 0.42814 0.40949 0.77116 0.0
N1033 N 0.42433 0.41191 0.59549 0.0
C1034 C 0.4233 0.4205 0.56243 0.0
C1035 C 0.41545 0.41802 0.52468 0.0
C1036 C 0.41726 0.40439 0.5776 0.0
N1037 N 0.41173 0.40783 0.53416 0.0
C1038 C 0.43943 0.43091 0.68411 0.0
C1039 C 0.41813 0.43703 0.70318 0.0
C1040 C 0.4263 0.44503 0.70401 0.0
C1041 C 0.4371 0.44174 0.69592 0.0
C1042 C 0.42086 0.42619 0.69188 0.0
N1043 N 0.43144 0.42321 0.68262 0.0
H1044 H 0.44759 0.42898 0.67192 0.0
H1045 H 0.41436 0.42034 0.6871 0.0
H1046 H 0.42817 0.42783 0.5644 0.0
H1047 H 0.41645 0.39642 0.59548 0.0
O1048 O 0.44622 0.41426 0.6042 0.0
O1049 O 0.44065 0.39709 0.60799 0.0
O1050 O 0.4233 0.40152 0.69397 0.0
C1051 C 0.44708 0.40438 0.58672 0.0
H1052 H 0.45626 0.38666 0.78242 0.0
H1053 H 0.41305 0.42313 0.49149 0.0
H1054 H 0.40964 0.43922 0.70798 0.0
H1055 H 0.4437 0.44758 0.69618 0.0
H1056 H 0.10938 0.09334 0.77456 0.0
H1057 H 0.11962 0.1054 0.71493 0.0
H1058 H 0.09275 0.12804 0.71364 0.0
H1059 H 0.08236 0.11591 0.77153 0.0
H1060 H 0.1004 0.12492 0.61512 0.0
H1061 H 0.13489 0.13329 0.75251 0.0
H1062 H 0.13294 0.11909 0.73843 0.0
H1063 H 0.12264 0.12652 0.77422 0.0
C1064 C 0.1057 0.10094 0.76191 0.0
C1065 C 0.09509 0.1037 0.77796 0.0
C1066 C 0.11158 0.10784 0.72795 0.0
C1067 C 0.10702 0.11771 0.71034 0.0
C1068 C 0.09644 0.12047 0.72664 0.0
H1069 H 0.13906 0.17455 0.59175 0.0
H1070 H 0.12941 0.16039 0.64077 0.0
C1071 C 0.09053 0.11354 0.75993 0.0
C1072 C 0.11311 0.12516 0.67442 0.0
H1073 H 0.13622 0.14049 0.66529 0.0
C1074 C 0.10825 0.12832 0.62601 0.0
C1075 C 0.12331 0.12964 0.68887 0.0
C1076 C 0.12872 0.12706 0.74153 0.0
C1077 C 0.11318 0.13599 0.59216 0.0
C1078 C 0.12342 0.1404 0.6064 0.0
C1079 C 0.12839 0.13706 0.65426 0.0
C1080 C 0.12881 0.14907 0.57457 0.0
C1081 C 0.10717 0.13961 0.54265 0.0
C1082 C 0.13161 0.14749 0.52066 0.0
C1083 C 0.13701 0.15569 0.49211 0.0
C1084 C 0.13988 0.1655 0.51744 0.0
C1085 C 0.13701 0.16706 0.57119 0.0
C1086 C 0.1315 0.15896 0.59933 0.0
H1087 H 0.09836 0.13758 0.5447 0.0
H1088 H 0.10801 0.14853 0.53648 0.0
H1089 H 0.11064 0.1354 0.50736 0.0
H1090 H 0.12983 0.13985 0.50098 0.0
H1091 H 0.13924 0.15423 0.45087 0.0
H1092 H 0.0981 0.88993 0.70523 0.0
H1093 H 0.11262 0.8806 0.75496 0.0
H1094 H 0.09163 0.87854 0.8928 0.0
H1095 H 0.07737 0.88817 0.84429 0.0
H1096 H 0.11096 0.88576 0.92074 0.0
H1097 H 0.11621 0.8491 0.79361 0.0
H1098 H 0.11814 0.86173 0.75882 0.0
H1099 H 0.10494 0.85837 0.78532 0.0
C1100 C 0.09658 0.88735 0.74593 0.0
C1101 C 0.08663 0.88978 0.77096 0.0
C1102 C 0.10485 0.88199 0.77426 0.0
C1103 C 0.10319 0.87877 0.82757 0.0
C1104 C 0.09314 0.88098 0.85187 0.0
H1105 H 0.13724 0.83211 0.01999 0.0
H1106 H 0.1252 0.84237 0.96101 0.0
C1107 C 0.08498 0.88647 0.82403 0.0
C1108 C 0.11195 0.87349 0.85944 0.0
H1109 H 0.12844 0.85113 0.86588 0.0
C1110 C 0.1148 0.87819 0.90868 0.0
C1111 C 0.11691 0.86359 0.84386 0.0
C1112 C 0.11384 0.85783 0.79278 0.0
C1113 C 0.12222 0.87314 0.94341 0.0
C1114 C 0.12726 0.86328 0.92765 0.0
C1115 C 0.12462 0.85872 0.87782 0.0
C1116 C 0.13474 0.85719 0.9636 0.0
C1117 C 0.12418 0.87818 0.99756 0.0
C1118 C 0.14416 0.86208 0.98475 0.0
C1119 C 0.15097 0.85627 0.01946 0.0
C1120 C 0.14861 0.84539 0.03261 0.0
C1121 C 0.13929 0.84048 0.01067 0.0
C1122 C 0.13241 0.84632 0.97675 0.0
H1123 H 0.11756 0.88391 0.00881 0.0
H1124 H 0.12484 0.87184 0.02904 0.0
H1125 H 0.13191 0.88285 0.99663 0.0
H1126 H 0.14629 0.87035 0.97414 0.0
H1127 H 0.15817 0.86022 0.03513 0.0
H1128 H 0.39633 0.88701 0.31561 0.0
H1129 H 0.38674 0.87614 0.24878 0.0
H1130 H 0.40919 0.88718 0.12781 0.0
H1131 H 0.41908 0.89774 0.19497 0.0
H1132 H 0.37607 0.88221 0.16313 0.0
H1133 H 0.4098 0.85512 0.10035 0.0
H1134 H 0.41075 0.86381 0.1582 0.0
H1135 H 0.41301 0.86927 0.09239 0.0
C1136 C 0.39927 0.88707 0.27484 0.0
C1137 C 0.40849 0.8932 0.26062 0.0
C1138 C 0.39378 0.88085 0.23665 0.0
C1139 C 0.39733 0.88069 0.18333 0.0
C1140 C 0.40647 0.88691 0.1689 0.0
H1141 H 0.35402 0.85852 0.9277 0.0
H1142 H 0.36554 0.86955 0.98636 0.0
C1143 C 0.41207 0.89301 0.2073 0.0
C1144 C 0.39117 0.87432 0.14282 0.0
H1145 H 0.39369 0.85455 0.04759 0.0
C1146 C 0.37992 0.87614 0.13797 0.0
C1147 C 0.39617 0.8663 0.11039 0.0
C1148 C 0.40807 0.86342 0.11589 0.0
C1149 C 0.37353 0.87018 0.10184 0.0
C1150 C 0.37859 0.86243 0.06809 0.0
C1151 C 0.38984 0.86059 0.07293 0.0
C1152 C 0.37227 0.85579 0.02931 0.0
C1153 C 0.36137 0.87201 0.10161 0.0
C1154 C 0.37264 0.84437 0.03192 0.0
C1155 C 0.36625 0.83805 0.99766 0.0
C1156 C 0.35929 0.84303 0.96033 0.0
C1157 C 0.35919 0.85445 0.95653 0.0
C1158 C 0.36571 0.86077 0.99029 0.0
H1159 H 0.35853 0.87574 0.13955 0.0
H1160 H 0.35924 0.87767 0.06866 0.0
H1161 H 0.35689 0.86426 0.09544 0.0
H1162 H 0.37767 0.84033 0.06149 0.0
H1163 H 0.36649 0.82928 0.00173 0.0
H1164 H 0.4207 0.11316 0.28492 0.0
H1165 H 0.40955 0.12349 0.34764 0.0
H1166 H 0.3819 0.12036 0.24239 0.0
H1167 H 0.39291 0.10959 0.18036 0.0
H1168 H 0.39929 0.14214 0.34068 0.0
H1169 H 0.36881 0.10984 0.37916 0.0
H1170 H 0.38122 0.10729 0.34278 0.0
H1171 H 0.36967 0.11335 0.30978 0.0
C1172 C 0.41224 0.11464 0.27508 0.0
C1173 C 0.40765 0.11044 0.22789 0.0
C1174 C 0.40587 0.12056 0.31103 0.0
C1175 C 0.39481 0.1225 0.30042 0.0
C1176 C 0.39031 0.11867 0.25235 0.0
H1177 H 0.35648 0.17193 0.46323 0.0
H1178 H 0.36764 0.16152 0.40086 0.0
C1179 C 0.39664 0.1126 0.21669 0.0
C1180 C 0.38808 0.12865 0.3395 0.0
H1181 H 0.36465 0.1275 0.41278 0.0
C1182 C 0.39174 0.13891 0.35661 0.0
C1183 C 0.37832 0.12436 0.36116 0.0
C1184 C 0.37433 0.11306 0.34774 0.0
C1185 C 0.38587 0.14505 0.39412 0.0
C1186 C 0.37584 0.141 0.41379 0.0
C1187 C 0.37226 0.13067 0.39727 0.0
C1188 C 0.36896 0.1473 0.45162 0.0
C1189 C 0.39063 0.1557 0.41317 0.0
C1190 C 0.36561 0.14264 0.50018 0.0
C1191 C 0.35902 0.1485 0.53553 0.0
C1192 C 0.3557 0.15916 0.52311 0.0
C1193 C 0.35901 0.16378 0.47435 0.0
C1194 C 0.36546 0.15786 0.43873 0.0
H1195 H 0.39962 0.15588 0.40806 0.0
H1196 H 0.38717 0.16247 0.38918 0.0
H1197 H 0.38872 0.15719 0.45589 0.0
H1198 H 0.36816 0.13448 0.5109 0.0
H1199 H 0.3566 0.14472 0.57279 0.0
H1200 H 0.84599 0.85878 0.52796 0.0
H1201 H 0.85731 0.86975 0.46826 0.0
H1202 H 0.88322 0.84617 0.48198 0.0
H1203 H 0.87181 0.83498 0.54009 0.0
H1204 H 0.87603 0.87969 0.48135 0.0
H1205 H 0.88114 0.84873 0.32305 0.0
H1206 H 0.87155 0.84709 0.37701 0.0
H1207 H 0.88571 0.84376 0.38653 0.0
C1208 C 0.85411 0.85594 0.51836 0.0
C1209 C 0.85799 0.84598 0.53849 0.0
C1210 C 0.86056 0.86221 0.48408 0.0
C1211 C 0.87102 0.85866 0.4695 0.0
C1212 C 0.87504 0.8489 0.49116 0.0
H1213 H 0.92363 0.89821 0.35521 0.0
H1214 H 0.91021 0.88787 0.40565 0.0
C1215 C 0.86856 0.84257 0.52485 0.0
C1216 C 0.87782 0.86531 0.43285 0.0
H1217 H 0.89337 0.86396 0.31994 0.0
C1218 C 0.87973 0.87627 0.44578 0.0
C1219 C 0.88246 0.86095 0.38567 0.0
C1220 C 0.88001 0.84952 0.36691 0.0
C1221 C 0.88646 0.88286 0.41404 0.0
C1222 C 0.89172 0.87827 0.36904 0.0
C1223 C 0.88948 0.86743 0.35488 0.0
C1224 C 0.8999 0.88443 0.33754 0.0
C1225 C 0.88777 0.89469 0.42898 0.0
C1226 C 0.89886 0.88555 0.28189 0.0
C1227 C 0.90668 0.89132 0.25257 0.0
C1228 C 0.91564 0.89608 0.27855 0.0
C1229 C 0.91673 0.89479 0.33407 0.0
C1230 C 0.90902 0.88894 0.36311 0.0
H1231 H 0.88059 0.89773 0.45146 0.0
H1232 H 0.895 0.8956 0.4552 0.0
H1233 H 0.88892 0.89989 0.39312 0.0
H1234 H 0.89194 0.88204 0.26123 0.0
H1235 H 0.90564 0.89216 0.2098 0.0
H1236 H 0.84147 0.13987 0.98639 0.0
H1237 H 0.85361 0.12987 0.04656 0.0
H1238 H 0.87597 0.15698 0.04652 0.0
H1239 H 0.86367 0.16717 0.9884 0.0
H1240 H 0.8733 0.12268 0.03534 0.0
H1241 H 0.87383 0.1519 0.2029 0.0
H1242 H 0.86442 0.15314 0.14793 0.0
H1243 H 0.8781 0.15833 0.14219 0.0
C1244 C 0.84896 0.14371 0.9994 0.0
C1245 C 0.85158 0.15434 0.98295 0.0
C1246 C 0.85588 0.13799 0.03389 0.0
C1247 C 0.8656 0.14275 0.05227 0.0
C1248 C 0.86835 0.15326 0.03459 0.0
H1249 H 0.92251 0.10835 0.15865 0.0
H1250 H 0.9081 0.11787 0.11072 0.0
C1251 C 0.86136 0.15904 0.00086 0.0
C1252 C 0.87309 0.13657 0.08793 0.0
H1253 H 0.88822 0.13858 0.20213 0.0
C1254 C 0.87645 0.12613 0.07212 0.0
C1255 C 0.87705 0.14091 0.13667 0.0
C1256 C 0.87306 0.15163 0.1587 0.0
C1257 C 0.88396 0.12011 0.10243 0.0
C1258 C 0.88855 0.1248 0.14894 0.0
C1259 C 0.88486 0.13505 0.166 0.0
C1260 C 0.89746 0.11937 0.17923 0.0
C1261 C 0.88678 0.10872 0.08435 0.0
C1262 C 0.89656 0.11754 0.23451 0.0
C1263 C 0.90496 0.11228 0.26245 0.0
C1264 C 0.91434 0.10872 0.23542 0.0
C1265 C 0.91531 0.11082 0.18046 0.0
C1266 C 0.90703 0.1162 0.15286 0.0
H1267 H 0.88003 0.10505 0.06089 0.0
H1268 H 0.89405 0.10905 0.05809 0.0
H1269 H 0.88861 0.10332 0.11877 0.0
H1270 H 0.88931 0.12002 0.25587 0.0
H1271 H 0.90399 0.11078 0.30483 0.0
H1272 H 0.57932 0.11529 0.75864 0.0
H1273 H 0.58856 0.12837 0.81671 0.0
H1274 H 0.61943 0.11327 0.78042 0.0
H1275 H 0.61029 0.10059 0.71992 0.0
H1276 H 0.59987 0.12685 0.90352 0.0
H1277 H 0.62686 0.14389 0.74755 0.0
H1278 H 0.61595 0.1346 0.73199 0.0
H1279 H 0.62887 0.12953 0.75556 0.0
C1280 C 0.58809 0.1148 0.76288 0.0
C1281 C 0.59411 0.10703 0.73419 0.0
C1282 C 0.59336 0.12226 0.79618 0.0
C1283 C 0.60474 0.122 0.80207 0.0
C1284 C 0.6107 0.11392 0.77512 0.0
H1285 H 0.63887 0.15734 0.05664 0.0
H1286 H 0.62908 0.14353 0.0048 0.0
C1287 C 0.60546 0.10662 0.74082 0.0
C1288 C 0.61031 0.13018 0.83632 0.0
H1289 H 0.63084 0.1489 0.83704 0.0
C1290 C 0.6066 0.13173 0.88888 0.0
C1291 C 0.61899 0.13668 0.81706 0.0
C1292 C 0.62282 0.13618 0.7598 0.0
C1293 C 0.61132 0.13956 0.92265 0.0
C1294 C 0.62031 0.14572 0.9041 0.0
C1295 C 0.62401 0.14414 0.85157 0.0
C1296 C 0.62583 0.15412 0.93734 0.0
C1297 C 0.60637 0.14135 0.9771 0.0
C1298 C 0.62752 0.1646 0.91642 0.0
C1299 C 0.63341 0.17235 0.94519 0.0
C1300 C 0.63755 0.16986 0.99599 0.0
C1301 C 0.63563 0.15949 0.01779 0.0
C1302 C 0.62997 0.15162 0.98831 0.0
H1303 H 0.59773 0.13869 0.97826 0.0
H1304 H 0.61091 0.13646 0.00703 0.0
H1305 H 0.60676 0.15005 0.98896 0.0
H1306 H 0.62441 0.16676 0.87733 0.0
H1307 H 0.63474 0.1803 0.9276 0.0
H1308 H 0.64179 0.85467 0.42469 0.0
H1309 H 0.63084 0.86362 0.49317 0.0
H1310 H 0.63465 0.83574 0.59627 0.0
H1311 H 0.64552 0.82661 0.52763 0.0
H1312 H 0.61331 0.84367 0.5925 0.0
H1313 H 0.64286 0.87692 0.63089 0.0
H1314 H 0.63909 0.87564 0.56189 0.0
H1315 H 0.64641 0.86478 0.59412 0.0
C1316 C 0.64032 0.85042 0.46191 0.0
C1317 C 0.64461 0.83995 0.4708 0.0
C1318 C 0.6341 0.85558 0.50111 0.0
C1319 C 0.6321 0.85042 0.55011 0.0
C1320 C 0.63616 0.83988 0.55879 0.0
H1321 H 0.60782 0.88435 0.83063 0.0
H1322 H 0.61841 0.87329 0.76842 0.0
C1323 C 0.64238 0.83469 0.51953 0.0
C1324 C 0.62574 0.85604 0.59213 0.0
H1325 H 0.62521 0.87902 0.6687 0.0
C1326 C 0.61593 0.85137 0.60945 0.0
C1327 C 0.62927 0.86599 0.61471 0.0
C1328 C 0.64003 0.87109 0.5999 0.0
C1329 C 0.60939 0.85654 0.64782 0.0
C1330 C 0.61269 0.86673 0.66866 0.0
C1331 C 0.62264 0.87126 0.65229 0.0
C1332 C 0.60595 0.87291 0.70731 0.0
C1333 C 0.59908 0.851 0.66609 0.0
C1334 C 0.59543 0.87639 0.69355 0.0
C1335 C 0.58932 0.88268 0.72911 0.0
C1336 C 0.59368 0.88573 0.77889 0.0
C1337 C 0.60421 0.88218 0.79261 0.0
C1338 C 0.61029 0.87585 0.75712 0.0
H1339 H 0.59931 0.8421 0.65819 0.0
H1340 H 0.59768 0.85232 0.70943 0.0
H1341 H 0.59205 0.85446 0.64393 0.0
H1342 H 0.59202 0.87442 0.65485 0.0
H1343 H 0.58126 0.88531 0.71714 0.0
H1344 H 0.63755 0.66856 0.01192 0.0
H1345 H 0.6282 0.6574 0.07821 0.0
H1346 H 0.63601 0.62848 0.98804 0.0
H1347 H 0.64587 0.63961 0.92282 0.0
H1348 H 0.61129 0.64525 0.07399 0.0
H1349 H 0.64586 0.61884 0.13139 0.0
H1350 H 0.64757 0.63066 0.08951 0.0
H1351 H 0.64302 0.61794 0.06132 0.0
C1352 C 0.63727 0.65982 0.00614 0.0
C1353 C 0.64247 0.65495 0.96222 0.0
C1354 C 0.63194 0.65344 0.04421 0.0
C1355 C 0.63157 0.64205 0.03895 0.0
C1356 C 0.63648 0.6372 0.99412 0.0
H1357 H 0.58364 0.6019 0.19768 0.0
H1358 H 0.59423 0.61314 0.13664 0.0
C1359 C 0.64202 0.64357 0.95652 0.0
C1360 C 0.62575 0.63537 0.07959 0.0
H1361 H 0.62823 0.61314 0.1609 0.0
C1362 C 0.61505 0.63828 0.09323 0.0
C1363 C 0.63069 0.6264 0.10577 0.0
C1364 C 0.64245 0.62335 0.0967 0.0
C1365 C 0.60908 0.63238 0.13129 0.0
C1366 C 0.61377 0.62299 0.15491 0.0
C1367 C 0.62456 0.62022 0.14229 0.0
C1368 C 0.60753 0.61586 0.19193 0.0
C1369 C 0.5979 0.63644 0.14645 0.0
C1370 C 0.61169 0.61313 0.24257 0.0
C1371 C 0.6057 0.60647 0.27732 0.0
C1372 C 0.5954 0.60256 0.26217 0.0
C1373 C 0.59138 0.60509 0.21112 0.0
C1374 C 0.59744 0.61155 0.17618 0.0
H1375 H 0.59714 0.64536 0.13975 0.0
H1376 H 0.59171 0.63237 0.12107 0.0
H1377 H 0.59602 0.6347 0.18897 0.0
H1378 H 0.61951 0.61625 0.25546 0.0
H1379 H 0.60901 0.60457 0.31634 0.0
H1380 H 0.59755 0.38967 0.20344 0.0
H1381 H 0.6121 0.38025 0.25243 0.0
H1382 H 0.59174 0.37916 0.39275 0.0
H1383 H 0.57743 0.38884 0.34486 0.0
H1384 H 0.61141 0.38633 0.41723 0.0
H1385 H 0.61535 0.34884 0.29494 0.0
H1386 H 0.6172 0.36123 0.258 0.0
H1387 H 0.60415 0.35821 0.28705 0.0
C1388 C 0.59616 0.38727 0.24451 0.0
C1389 C 0.58638 0.39 0.27039 0.0
C1390 C 0.60446 0.38186 0.27243 0.0
C1391 C 0.60299 0.3789 0.32623 0.0
C1392 C 0.59309 0.38138 0.3514 0.0
H1393 H 0.638 0.33322 0.52105 0.0
H1394 H 0.62552 0.34316 0.46295 0.0
C1395 C 0.5849 0.3869 0.32391 0.0
C1396 C 0.61184 0.37368 0.35771 0.0
H1397 H 0.6281 0.35116 0.36489 0.0
C1398 C 0.61507 0.37864 0.40573 0.0
C1399 C 0.61657 0.36361 0.34287 0.0
C1400 C 0.61309 0.35759 0.29318 0.0
C1401 C 0.62269 0.37374 0.4399 0.0
C1402 C 0.62752 0.36373 0.42481 0.0
C1403 C 0.62445 0.35886 0.37627 0.0
C1404 C 0.63526 0.35784 0.46021 0.0
C1405 C 0.62513 0.37911 0.49281 0.0
C1406 C 0.64493 0.36276 0.47803 0.0
C1407 C 0.65203 0.35715 0.51212 0.0
C1408 C 0.64967 0.34643 0.5281 0.0
C1409 C 0.64006 0.34148 0.50955 0.0
C1410 C 0.63293 0.34713 0.47613 0.0
H1411 H 0.61867 0.385 0.50432 0.0
H1412 H 0.62595 0.37297 0.52514 0.0
H1413 H 0.63291 0.38366 0.48971 0.0
H1414 H 0.64705 0.37092 0.46527 0.0
H1415 H 0.65943 0.36113 0.52516 0.0
H1416 H 0.89205 0.40295 0.7759 0.0
H1417 H 0.88219 0.39017 0.71847 0.0
H1418 H 0.90968 0.36828 0.72188 0.0
H1419 H 0.91969 0.38116 0.77756 0.0
H1420 H 0.90236 0.37066 0.62294 0.0
H1421 H 0.86744 0.36212 0.75696 0.0
H1422 H 0.86902 0.37631 0.74179 0.0
H1423 H 0.8794 0.36932 0.77927 0.0
C1424 C 0.89594 0.39536 0.76489 0.0
C1425 C 0.90663 0.39305 0.78141 0.0
C1426 C 0.89028 0.38804 0.7322 0.0
C1427 C 0.89513 0.37819 0.71638 0.0
C1428 C 0.90576 0.37583 0.73351 0.0
H1429 H 0.86329 0.32122 0.59198 0.0
H1430 H 0.87276 0.33509 0.64395 0.0
C1431 C 0.91146 0.38318 0.76551 0.0
C1432 C 0.88936 0.37044 0.68068 0.0
H1433 H 0.86639 0.35496 0.66924 0.0
C1434 C 0.89449 0.36721 0.63309 0.0
C1435 C 0.87914 0.36587 0.69414 0.0
C1436 C 0.87347 0.36849 0.74605 0.0
C1437 C 0.88977 0.35947 0.5989 0.0
C1438 C 0.87945 0.35507 0.61184 0.0
C1439 C 0.87426 0.35839 0.65913 0.0
C1440 C 0.87412 0.34657 0.57865 0.0
C1441 C 0.89607 0.35582 0.55036 0.0
C1442 C 0.87177 0.34835 0.52436 0.0
C1443 C 0.8665 0.34032 0.49418 0.0
C1444 C 0.86328 0.33048 0.51816 0.0
C1445 C 0.86564 0.32873 0.5724 0.0
C1446 C 0.87103 0.33667 0.60222 0.0
H1447 H 0.9049 0.35765 0.55424 0.0
H1448 H 0.89509 0.34694 0.54347 0.0
H1449 H 0.89298 0.36021 0.51469 0.0
H1450 H 0.87383 0.35602 0.50556 0.0
H1451 H 0.86466 0.34193 0.45261 0.0
H1452 H 0.89188 0.61316 0.68551 0.0
H1453 H 0.88177 0.62371 0.7515 0.0
H1454 H 0.90697 0.61772 0.86797 0.0
H1455 H 0.91729 0.60732 0.80164 0.0
H1456 H 0.87343 0.61696 0.84543 0.0
H1457 H 0.90299 0.65038 0.88056 0.0
H1458 H 0.90422 0.64104 0.82529 0.0
H1459 H 0.9085 0.63701 0.89109 0.0
C1460 C 0.89533 0.61413 0.72504 0.0
C1461 C 0.90541 0.60941 0.73824 0.0
C1462 C 0.88953 0.62017 0.76275 0.0
C1463 C 0.89365 0.62162 0.81453 0.0
C1464 C 0.90373 0.61692 0.82794 0.0
H1465 H 0.85238 0.64254 0.0803 0.0
H1466 H 0.86426 0.63214 0.0207 0.0
C1467 C 0.90959 0.61093 0.79004 0.0
C1468 C 0.88715 0.62771 0.85467 0.0
H1469 H 0.88754 0.64984 0.93732 0.0
C1470 C 0.87652 0.62415 0.86554 0.0
C1471 C 0.89115 0.63715 0.88046 0.0
C1472 C 0.9023 0.6417 0.86849 0.0
C1473 C 0.86975 0.62977 0.90131 0.0
C1474 C 0.87382 0.63908 0.92802 0.0
C1475 C 0.88447 0.64264 0.9172 0.0
C1476 C 0.86701 0.64547 0.96573 0.0
C1477 C 0.85819 0.62587 0.90885 0.0
C1478 C 0.86492 0.65652 0.95571 0.0
C1479 C 0.85823 0.66252 0.99002 0.0
C1480 C 0.85349 0.65757 0.03504 0.0
C1481 C 0.85579 0.64655 0.04559 0.0
C1482 C 0.86254 0.64058 0.01145 0.0
H1483 H 0.85551 0.62056 0.87543 0.0
H1484 H 0.85767 0.62106 0.94628 0.0
H1485 H 0.85246 0.63284 0.91198 0.0
H1486 H 0.86831 0.66047 0.92079 0.0
H1487 H 0.85665 0.67099 0.98074 0.0
H1488 H 0.42178 0.39799 0.85003 0.0
H1489 H 0.40836 0.3875 0.89975 0.0
H1490 H 0.38968 0.38282 0.7555 0.0
H1491 H 0.40345 0.39297 0.70478 0.0
H1492 H 0.38789 0.39125 0.91899 0.0
H1493 H 0.39101 0.35221 0.80853 0.0
H1494 H 0.4005 0.36323 0.79854 0.0
H1495 H 0.38733 0.36352 0.76691 0.0
C1496 C 0.41484 0.39469 0.82874 0.0
C1497 C 0.41368 0.39627 0.77346 0.0
C1498 C 0.40716 0.38869 0.85728 0.0
C1499 C 0.39805 0.38424 0.83141 0.0
C1500 C 0.39677 0.38592 0.77618 0.0
H1501 H 0.34322 0.36041 0.02473 0.0
H1502 H 0.35485 0.37143 0.96661 0.0
C1503 C 0.4046 0.39178 0.74728 0.0
C1504 C 0.38989 0.37805 0.86315 0.0
H1505 H 0.37724 0.3534 0.8743 0.0
C1506 C 0.38556 0.38296 0.90919 0.0
C1507 C 0.38693 0.3672 0.85073 0.0
C1508 C 0.39176 0.36118 0.80381 0.0
C1509 C 0.37855 0.3773 0.94365 0.0
C1510 C 0.37541 0.36652 0.93065 0.0
C1511 C 0.37959 0.36167 0.88412 0.0
C1512 C 0.36824 0.35993 0.96591 0.0
C1513 C 0.37497 0.38278 0.99467 0.0
C1514 C 0.37173 0.34966 0.98373 0.0
C1515 C 0.36501 0.34326 0.01592 0.0
C1516 C 0.35468 0.34704 0.0315 0.0
C1517 C 0.35121 0.35735 0.01406 0.0
C1518 C 0.35787 0.36368 0.98099 0.0
H1519 H 0.38054 0.38952 0.006 0.0
H1520 H 0.36674 0.38631 0.98886 0.0
H1521 H 0.37461 0.37689 0.02829 0.0
H1522 H 0.37968 0.34658 0.97267 0.0
H1523 H 0.36791 0.33534 0.0287 0.0
H1524 H 0.42759 0.609 0.641 0.0
H1525 H 0.41414 0.61898 0.58866 0.0
H1526 H 0.39368 0.62194 0.72793 0.0
H1527 H 0.4073 0.61215 0.78116 0.0
H1528 H 0.39352 0.61323 0.5671 0.0
H1529 H 0.39398 0.65291 0.67317 0.0
H1530 H 0.40423 0.64262 0.68397 0.0
H1531 H 0.39113 0.64148 0.71562 0.0
C1532 C 0.42028 0.61186 0.66072 0.0
C1533 C 0.41852 0.60981 0.71526 0.0
C1534 C 0.41259 0.61755 0.63069 0.0
C1535 C 0.40294 0.62129 0.65441 0.0
C1536 C 0.40117 0.61933 0.70901 0.0
H1537 H 0.3457 0.64034 0.46867 0.0
H1538 H 0.35877 0.63055 0.52468 0.0
C1539 C 0.40894 0.61371 0.73934 0.0
C1540 C 0.39464 0.62685 0.62105 0.0
H1541 H 0.3804 0.65056 0.60676 0.0
C1542 C 0.39066 0.6214 0.57573 0.0
C1543 C 0.39099 0.63754 0.63208 0.0
C1544 C 0.39537 0.64404 0.67854 0.0
C1545 C 0.38318 0.62636 0.541 0.0
C1546 C 0.37934 0.63696 0.55267 0.0
C1547 C 0.3833 0.6424 0.59807 0.0
C1548 C 0.37147 0.64269 0.51759 0.0
C1549 C 0.3797 0.6203 0.49137 0.0
C1550 C 0.37418 0.65286 0.49568 0.0
C1551 C 0.36669 0.65852 0.46419 0.0
C1552 C 0.35633 0.65413 0.45389 0.0
C1553 C 0.35367 0.64388 0.4753 0.0
C1554 C 0.36114 0.63826 0.50722 0.0
H1555 H 0.38558 0.61377 0.48077 0.0
H1556 H 0.37167 0.61643 0.49854 0.0
H1557 H 0.3789 0.62591 0.4568 0.0
H1558 H 0.3821 0.65644 0.50318 0.0
H1559 H 0.369 0.6664 0.44832 0.0
H1560 H 0.07418 0.61299 0.35135 0.0
H1561 H 0.0884 0.6225 0.40061 0.0
H1562 H 0.10837 0.62332 0.25887 0.0
H1563 H 0.09387 0.61413 0.20853 0.0
H1564 H 0.1083 0.61629 0.42355 0.0
H1565 H 0.11038 0.65446 0.30514 0.0
H1566 H 0.09965 0.6446 0.29624 0.0
H1567 H 0.11282 0.64237 0.26672 0.0
C1568 C 0.08156 0.61527 0.33046 0.0
C1569 C 0.0829 0.61285 0.27604 0.0
C1570 C 0.0897 0.62069 0.35874 0.0
C1571 C 0.09943 0.62373 0.33347 0.0
C1572 C 0.10083 0.6213 0.27901 0.0
H1573 H 0.15511 0.64342 0.53377 0.0
H1574 H 0.14309 0.63312 0.47419 0.0
C1575 C 0.09257 0.616 0.25032 0.0
C1576 C 0.10811 0.62918 0.3652 0.0
H1577 H 0.12332 0.65239 0.37428 0.0
C1578 C 0.1116 0.62418 0.41273 0.0
C1579 C 0.11235 0.63952 0.3513 0.0
C1580 C 0.10855 0.64561 0.30236 0.0
C1581 C 0.11899 0.62931 0.44734 0.0
C1582 C 0.12333 0.63959 0.43316 0.0
C1583 C 0.12003 0.64448 0.38503 0.0
C1584 C 0.13079 0.64573 0.46902 0.0
C1585 C 0.12167 0.62386 0.49978 0.0
C1586 C 0.12805 0.65635 0.48486 0.0
C1587 C 0.13499 0.66231 0.51796 0.0
C1588 C 0.14479 0.65775 0.5364 0.0
C1589 C 0.14753 0.6471 0.52084 0.0
C1590 C 0.14064 0.64119 0.48693 0.0
H1591 H 0.11545 0.61769 0.5109 0.0
H1592 H 0.12962 0.61962 0.4962 0.0
H1593 H 0.12228 0.62991 0.5326 0.0
H1594 H 0.1205 0.66005 0.47164 0.0
H1595 H 0.13265 0.67051 0.5292 0.0
H1596 H 0.10832 0.41116 0.26339 0.0
H1597 H 0.11864 0.3998 0.20096 0.0
H1598 H 0.09349 0.37531 0.20808 0.0
H1599 H 0.08293 0.38683 0.26828 0.0
H1600 H 0.12758 0.38103 0.21066 0.0
H1601 H 0.09686 0.37716 0.05102 0.0
H1602 H 0.0953 0.38662 0.10556 0.0
H1603 H 0.09135 0.37256 0.11327 0.0
C1604 C 0.10498 0.40336 0.25145 0.0
C1605 C 0.09479 0.39991 0.27047 0.0
C1606 C 0.11087 0.39689 0.21562 0.0
C1607 C 0.10673 0.3868 0.19856 0.0
C1608 C 0.09669 0.38322 0.21886 0.0
H1609 H 0.14394 0.33185 0.09849 0.0
H1610 H 0.1338 0.3462 0.14343 0.0
C1611 C 0.09071 0.38977 0.25383 0.0
C1612 C 0.11316 0.37973 0.16194 0.0
H1613 H 0.11112 0.36358 0.05122 0.0
C1614 C 0.124 0.37735 0.17539 0.0
C1615 C 0.10865 0.3751 0.11501 0.0
C1616 C 0.09744 0.37811 0.09507 0.0
C1617 C 0.13026 0.37009 0.14489 0.0
C1618 C 0.12542 0.36471 0.1008 0.0
C1619 C 0.11477 0.36751 0.08563 0.0
C1620 C 0.13108 0.35576 0.07202 0.0
C1621 C 0.14201 0.3683 0.16035 0.0
C1622 C 0.13239 0.356 0.0162 0.0
C1623 C 0.13801 0.3476 0.98999 0.0
C1624 C 0.14244 0.33891 0.01936 0.0
C1625 C 0.14079 0.33855 0.07485 0.0
C1626 C 0.13507 0.3468 0.10073 0.0
H1627 H 0.14543 0.37558 0.18066 0.0
H1628 H 0.14252 0.36138 0.1888 0.0
H1629 H 0.14713 0.36641 0.12502 0.0
H1630 H 0.12926 0.36277 0.9931 0.0
H1631 H 0.13915 0.34806 0.94715 0.0
H1632 H 0.20453 0.18766 0.53608 0.0
H1633 H 0.22401 0.18394 0.54584 0.0
H1634 H 0.22038 0.15437 0.45481 0.0
H1635 H 0.20089 0.15807 0.4443 0.0
H1636 H 0.23449 0.15262 0.54726 0.0
H1637 H 0.24483 0.18754 0.41615 0.0
H1638 H 0.23602 0.19101 0.47084 0.0
H1639 H 0.23128 0.18187 0.41981 0.0
C1640 C 0.20786 0.18033 0.5184 0.0
C1641 C 0.20117 0.17322 0.48902 0.0
C1642 C 0.21898 0.17822 0.524 0.0
C1643 C 0.22365 0.16899 0.50019 0.0
C1644 C 0.21693 0.16156 0.47328 0.0
H1645 H 0.29442 0.16816 0.45751 0.0
H1646 H 0.27504 0.16489 0.43962 0.0
C1647 C 0.20578 0.16367 0.46762 0.0
C1648 C 0.23561 0.16742 0.50145 0.0
H1649 H 0.25944 0.17964 0.4652 0.0
C1650 C 0.23996 0.15845 0.52892 0.0
C1651 C 0.24273 0.1749 0.4764 0.0
C1652 C 0.2385 0.18432 0.44366 0.0
C1653 C 0.25128 0.15709 0.53431 0.0
C1654 C 0.25838 0.16497 0.51213 0.0
C1655 C 0.25401 0.17362 0.48244 0.0
C1656 C 0.27028 0.165 0.52285 0.0
C1657 C 0.25552 0.14727 0.56398 0.0
C1658 C 0.27406 0.16592 0.57552 0.0
C1659 C 0.28509 0.16775 0.58575 0.0
C1660 C 0.29256 0.16879 0.54351 0.0
C1661 C 0.28887 0.16731 0.49086 0.0
C1662 C 0.2778 0.1655 0.48061 0.0
H1663 H 0.24964 0.14041 0.56227 0.0
H1664 H 0.26345 0.14449 0.54751 0.0
H1665 H 0.25672 0.14943 0.60661 0.0
H1666 H 0.26841 0.16579 0.60872 0.0
H1667 H 0.28771 0.16877 0.62677 0.0
H1668 H 0.06565 0.95488 0.79021 0.0
H1669 H 0.06928 0.97446 0.79418 0.0
H1670 H 0.09679 0.97034 0.68912 0.0
H1671 H 0.09324 0.95072 0.68517 0.0
H1672 H 0.10074 0.98523 0.77148 0.0
H1673 H 0.06195 0.99426 0.66757 0.0
H1674 H 0.06006 0.98621 0.72667 0.0
H1675 H 0.06759 0.9807 0.67125 0.0
C1676 C 0.07254 0.95813 0.7684 0.0
C1677 C 0.07911 0.95127 0.7371 0.0
C1678 C 0.07458 0.96932 0.7705 0.0
C1679 C 0.08315 0.97388 0.74088 0.0
C1680 C 0.09009 0.96699 0.71197 0.0
H1681 H 0.08015 0.04448 0.69213 0.0
H1682 H 0.0834 0.02519 0.67197 0.0
C1683 C 0.08809 0.95577 0.71004 0.0
C1684 C 0.08454 0.98587 0.73866 0.0
H1685 H 0.07082 0.0093 0.70966 0.0
C1686 C 0.09426 0.9905 0.75745 0.0
C1687 C 0.0762 0.99273 0.71887 0.0
C1688 C 0.06591 0.98823 0.6944 0.0
C1689 C 0.0956 0.00187 0.75982 0.0
C1690 C 0.08692 0.00873 0.74386 0.0
C1691 C 0.07746 0.00406 0.72232 0.0
C1692 C 0.08696 0.02066 0.75373 0.0
C1693 C 0.10628 0.00638 0.77976 0.0
C1694 C 0.08813 0.02457 0.80604 0.0
C1695 C 0.08636 0.03555 0.81747 0.0
C1696 C 0.08323 0.04284 0.77696 0.0
C1697 C 0.08262 0.03907 0.72407 0.0
C1698 C 0.08442 0.02804 0.7126 0.0
H1699 H 0.1131 0.00068 0.77134 0.0
H1700 H 0.10815 0.01439 0.76124 0.0
H1701 H 0.10582 0.00747 0.8237 0.0
H1702 H 0.08984 0.01904 0.83868 0.0
H1703 H 0.08699 0.03824 0.85855 0.0
H1704 H 0.20882 0.84896 0.05039 0.0
H1705 H 0.22818 0.85344 0.03658 0.0
H1706 H 0.23538 0.81936 0.01459 0.0
H1707 H 0.2162 0.81487 0.02815 0.0
H1708 H 0.24656 0.84419 0.1005 0.0
H1709 H 0.2493 0.83538 0.88366 0.0
H1710 H 0.23655 0.83831 0.91668 0.0
H1711 H 0.24253 0.82499 0.92176 0.0
C1712 C 0.21454 0.84248 0.04172 0.0
C1713 C 0.21105 0.83158 0.04035 0.0
C1714 C 0.22557 0.84503 0.03426 0.0
C1715 C 0.23316 0.83672 0.02441 0.0
C1716 C 0.22962 0.82589 0.02174 0.0
H1717 H 0.30063 0.82384 0.05523 0.0
H1718 H 0.2815 0.82803 0.07438 0.0
C1719 C 0.21868 0.82334 0.02965 0.0
C1720 C 0.24491 0.83914 0.01852 0.0
H1721 H 0.26605 0.83575 0.93209 0.0
C1722 C 0.25084 0.84255 0.06347 0.0
C1723 C 0.25042 0.83708 0.97011 0.0
C1724 C 0.24438 0.83383 0.9201 0.0
C1725 C 0.26226 0.8434 0.0619 0.0
C1726 C 0.26783 0.84066 0.01433 0.0
C1727 C 0.2618 0.83781 0.9687 0.0
C1728 C 0.27989 0.83997 0.01113 0.0
C1729 C 0.26824 0.84708 0.11128 0.0
C1730 C 0.28542 0.84546 0.97015 0.0
C1731 C 0.29627 0.84299 0.95896 0.0
C1732 C 0.30181 0.83501 0.98869 0.0
C1733 C 0.29657 0.83013 0.03236 0.0
C1734 C 0.28564 0.83255 0.0433 0.0
H1735 H 0.26294 0.85214 0.13731 0.0
H1736 H 0.27079 0.83983 0.13458 0.0
H1737 H 0.27564 0.85184 0.10087 0.0
H1738 H 0.28115 0.8512 0.94477 0.0
H1739 H 0.30016 0.84681 0.92493 0.0
H1740 H 0.40094 0.0509 0.22347 0.0
H1741 H 0.39568 0.03201 0.24421 0.0
H1742 H 0.42941 0.02393 0.27177 0.0
H1743 H 0.43465 0.04265 0.25146 0.0
H1744 H 0.40334 0.01348 0.18682 0.0
H1745 H 0.41374 0.01047 0.40119 0.0
H1746 H 0.41159 0.02337 0.36796 0.0
H1747 H 0.4245 0.01651 0.36277 0.0
C1748 C 0.40717 0.04512 0.23503 0.0
C1749 C 0.41819 0.0482 0.2357 0.0
C1750 C 0.40417 0.03435 0.24665 0.0
C1751 C 0.41215 0.02662 0.26012 0.0
C1752 C 0.42311 0.02981 0.2624 0.0
H1753 H 0.4264 0.96127 0.21191 0.0
H1754 H 0.42153 0.9805 0.20528 0.0
C1755 C 0.4261 0.04048 0.25035 0.0
C1756 C 0.40936 0.01497 0.26733 0.0
H1757 H 0.41387 0.99358 0.35141 0.0
C1758 C 0.40539 0.00914 0.22322 0.0
C1759 C 0.41187 0.00935 0.31503 0.0
C1760 C 0.41556 0.01527 0.36462 0.0
C1761 C 0.4047 0.99773 0.22424 0.0
C1762 C 0.40819 0.99204 0.2703 0.0
C1763 C 0.41131 0.99793 0.31584 0.0
C1764 C 0.4099 0.98008 0.27021 0.0
C1765 C 0.40058 0.99185 0.17538 0.0
C1766 C 0.40499 0.97343 0.30897 0.0
C1767 C 0.40782 0.96241 0.31301 0.0
C1768 C 0.41573 0.95792 0.27885 0.0
C1769 C 0.42034 0.96452 0.23896 0.0
C1770 C 0.41747 0.97549 0.23477 0.0
H1771 H 0.3949 0.99705 0.15205 0.0
H1772 H 0.40758 0.98981 0.14918 0.0
H1773 H 0.39635 0.98417 0.18626 0.0
H1774 H 0.39922 0.97685 0.33705 0.0
H1775 H 0.40423 0.95755 0.34449 0.0
H1776 H 0.7069 0.84419 0.50919 0.0
H1777 H 0.72613 0.84913 0.52266 0.0
H1778 H 0.73511 0.82947 0.38692 0.0
H1779 H 0.71604 0.8246 0.37326 0.0
H1780 H 0.74201 0.83302 0.54323 0.0
H1781 H 0.75325 0.85726 0.36507 0.0
H1782 H 0.7393 0.85544 0.38628 0.0
H1783 H 0.74612 0.84491 0.34923 0.0
C1784 C 0.71297 0.84116 0.48158 0.0
C1785 C 0.71003 0.83396 0.44046 0.0
C1786 C 0.72392 0.84396 0.4893 0.0
C1787 C 0.73202 0.83977 0.45536 0.0
C1788 C 0.72899 0.83297 0.41291 0.0
H1789 H 0.80016 0.82638 0.4462 0.0
H1790 H 0.78104 0.83046 0.42534 0.0
C1791 C 0.71811 0.8301 0.40551 0.0
C1792 C 0.74372 0.84125 0.46789 0.0
H1793 H 0.76803 0.84905 0.41362 0.0
C1794 C 0.74769 0.83672 0.51546 0.0
C1795 C 0.7511 0.84596 0.4312 0.0
C1796 C 0.74723 0.85126 0.38028 0.0
C1797 C 0.75889 0.83627 0.52623 0.0
C1798 C 0.76632 0.84077 0.48899 0.0
C1799 C 0.76233 0.84562 0.44211 0.0
C1800 C 0.77826 0.83992 0.49703 0.0
C1801 C 0.76267 0.83045 0.57606 0.0
C1802 C 0.78315 0.84431 0.54285 0.0
C1803 C 0.79398 0.8419 0.555 0.0
C1804 C 0.80017 0.83523 0.52098 0.0
C1805 C 0.79556 0.83158 0.47291 0.0
C1806 C 0.78465 0.83388 0.46109 0.0
H1807 H 0.75618 0.82521 0.59325 0.0
H1808 H 0.7699 0.82529 0.56767 0.0
H1809 H 0.76497 0.83655 0.60672 0.0
H1810 H 0.77845 0.84921 0.57043 0.0
H1811 H 0.79742 0.8449 0.59206 0.0
H1812 H 0.91058 0.04771 0.32724 0.0
H1813 H 0.90762 0.02808 0.31531 0.0
H1814 H 0.93569 0.02642 0.21227 0.0
H1815 H 0.93867 0.04602 0.22375 0.0
H1816 H 0.91491 0.01452 0.17815 0.0
H1817 H 0.93002 0.00523 0.38321 0.0
H1818 H 0.91997 0.0158 0.3751 0.0
H1819 H 0.93345 0.01777 0.34941 0.0
C1820 C 0.91599 0.0432 0.30121 0.0
C1821 C 0.92487 0.04839 0.2765 0.0
C1822 C 0.91434 0.03199 0.2948 0.0
C1823 C 0.9215 0.02583 0.26334 0.0
C1824 C 0.9301 0.03106 0.23686 0.0
H1825 H 0.93726 0.96198 0.16175 0.0
H1826 H 0.93388 0.98133 0.1744 0.0
C1827 C 0.9318 0.04222 0.24357 0.0
C1828 C 0.92042 0.01385 0.25965 0.0
H1829 H 0.92589 0.99038 0.32779 0.0
C1830 C 0.91718 0.00923 0.21098 0.0
C1831 C 0.92331 0.00699 0.30277 0.0
C1832 C 0.92694 0.01162 0.35566 0.0
C1833 C 0.91703 0.99788 0.20383 0.0
C1834 C 0.92048 0.99102 0.24604 0.0
C1835 C 0.92327 0.99565 0.29546 0.0
C1836 C 0.92221 0.97916 0.23822 0.0
C1837 C 0.91324 0.99337 0.15095 0.0
C1838 C 0.917 0.97146 0.27098 0.0
C1839 C 0.91907 0.9603 0.26442 0.0
C1840 C 0.92649 0.95669 0.22542 0.0
C1841 C 0.93165 0.96446 0.19279 0.0
C1842 C 0.92959 0.97555 0.19937 0.0
H1843 H 0.90753 0.99906 0.13074 0.0
H1844 H 0.92038 0.99225 0.12438 0.0
H1845 H 0.90915 0.98537 0.15598 0.0
H1846 H 0.91136 0.97408 0.30162 0.0
H1847 H 0.91501 0.95453 0.29036 0.0
H1848 H 0.70565 0.1824 0.11586 0.0
H1849 H 0.72457 0.17718 0.10037 0.0
H1850 H 0.71505 0.15996 0.95774 0.0
H1851 H 0.69601 0.16536 0.97243 0.0
H1852 H 0.73447 0.15597 0.08742 0.0
H1853 H 0.73826 0.18239 0.90758 0.0
H1854 H 0.7272 0.1838 0.9545 0.0
H1855 H 0.72725 0.17274 0.90764 0.0
C1856 C 0.70757 0.17756 0.08094 0.0
C1857 C 0.69936 0.17446 0.04477 0.0
C1858 C 0.71837 0.17449 0.0725 0.0
C1859 C 0.72122 0.16829 0.02768 0.0
C1860 C 0.71302 0.16486 0.9923 0.0
H1861 H 0.78642 0.15873 0.90108 0.0
H1862 H 0.76697 0.15614 0.91822 0.0
C1863 C 0.70216 0.1679 0.00083 0.0
C1864 C 0.73285 0.16593 0.0171 0.0
H1865 H 0.75384 0.1729 0.93484 0.0
C1866 C 0.73871 0.15956 0.05379 0.0
C1867 C 0.73834 0.17066 0.97327 0.0
C1868 C 0.73251 0.17785 0.93356 0.0
C1869 C 0.74998 0.15787 0.048 0.0
C1870 C 0.75553 0.16288 0.00503 0.0
C1871 C 0.74959 0.16902 0.96769 0.0
C1872 C 0.76756 0.16241 0.99895 0.0
C1873 C 0.75579 0.15071 0.08783 0.0
C1874 C 0.77444 0.16646 0.03924 0.0
C1875 C 0.7856 0.1678 0.0297 0.0
C1876 C 0.78998 0.1653 0.97942 0.0
C1877 C 0.7832 0.16072 0.94018 0.0
C1878 C 0.77211 0.15926 0.94991 0.0
H1879 H 0.75012 0.14477 0.10645 0.0
H1880 H 0.76259 0.14618 0.06886 0.0
H1881 H 0.75919 0.15587 0.12018 0.0
H1882 H 0.7711 0.1692 0.07694 0.0
H1883 H 0.79064 0.17149 0.06025 0.0
H1884 H 0.57051 0.03535 0.66847 0.0
H1885 H 0.57509 0.01618 0.68075 0.0
H1886 H 0.60029 0.02502 0.79259 0.0
H1887 H 0.5956 0.04436 0.78117 0.0
H1888 H 0.59574 0.00518 0.66584 0.0
H1889 H 0.58036 0.00322 0.8751 0.0
H1890 H 0.57677 0.01422 0.83062 0.0
H1891 H 0.59017 0.01361 0.85909 0.0
C1892 C 0.57699 0.03324 0.696 0.0
C1893 C 0.58259 0.04136 0.7245 0.0
C1894 C 0.57965 0.02228 0.70259 0.0
C1895 C 0.58795 0.01918 0.73793 0.0
C1896 C 0.59378 0.02726 0.76554 0.0
H1897 H 0.59571 0.95092 0.83672 0.0
H1898 H 0.60024 0.97021 0.82469 0.0
C1899 C 0.59114 0.03828 0.75876 0.0
C1900 C 0.5901 0.00744 0.74649 0.0
H1901 H 0.58555 0.98679 0.83497 0.0
C1902 C 0.59368 0.00116 0.70307 0.0
C1903 C 0.58747 0.00224 0.7952 0.0
C1904 C 0.58342 0.00861 0.84276 0.0
C1905 C 0.5943 0.98976 0.70641 0.0
C1906 C 0.59103 0.98451 0.75406 0.0
C1907 C 0.58803 0.99083 0.79843 0.0
C1908 C 0.58951 0.97253 0.75707 0.0
C1909 C 0.59825 0.98345 0.65853 0.0
C1910 C 0.58207 0.96741 0.72272 0.0
C1911 C 0.5795 0.95642 0.72936 0.0
C1912 C 0.58425 0.95032 0.77081 0.0
C1913 C 0.592 0.95536 0.80404 0.0
C1914 C 0.59455 0.96639 0.79742 0.0
H1915 H 0.60387 0.98843 0.63376 0.0
H1916 H 0.6025 0.97586 0.67065 0.0
H1917 H 0.59117 0.98123 0.63322 0.0
H1918 H 0.57789 0.97202 0.69205 0.0
H1919 H 0.57356 0.95275 0.70289 0.0
H1920 H 0.69649 0.65594 0.0058 0.0
H1921 H 0.71521 0.65146 0.03304 0.0
H1922 H 0.72454 0.68502 0.01046 0.0
H1923 H 0.70594 0.68955 0.98467 0.0
H1924 H 0.73384 0.6538 0.97094 0.0
H1925 H 0.73758 0.67817 0.15546 0.0
H1926 H 0.72457 0.67506 0.12552 0.0
H1927 H 0.73263 0.68624 0.10089 0.0
C1928 C 0.70249 0.66239 0.00798 0.0
C1929 C 0.69976 0.67309 0.99304 0.0
C1930 C 0.71319 0.65981 0.0231 0.0
C1931 C 0.72125 0.66793 0.02424 0.0
C1932 C 0.71843 0.67866 0.01081 0.0
H1933 H 0.78978 0.66971 0.97481 0.0
H1934 H 0.77013 0.66677 0.96568 0.0
C1935 C 0.70781 0.68122 0.99564 0.0
C1936 C 0.73279 0.66523 0.03602 0.0
H1937 H 0.75438 0.67357 0.1112 0.0
C1938 C 0.73832 0.65796 0.00224 0.0
C1939 C 0.73859 0.67052 0.07733 0.0
C1940 C 0.733 0.67784 0.1172 0.0
C1941 C 0.74961 0.65631 0.00682 0.0
C1942 C 0.75555 0.66227 0.04548 0.0
C1943 C 0.74989 0.66907 0.0811 0.0
C1944 C 0.76766 0.66214 0.04835 0.0
C1945 C 0.75506 0.64828 0.96992 0.0
C1946 C 0.77287 0.66044 0.09759 0.0
C1947 C 0.78404 0.66231 0.10293 0.0
C1948 C 0.79023 0.6658 0.05901 0.0
C1949 C 0.78519 0.66684 0.00897 0.0
C1950 C 0.77397 0.66512 0.00377 0.0
H1951 H 0.74928 0.64182 0.95714 0.0
H1952 H 0.75785 0.6526 0.9335 0.0
H1953 H 0.76221 0.64437 0.98918 0.0
H1954 H 0.76821 0.65816 0.13256 0.0
H1955 H 0.78777 0.6615 0.14197 0.0
H1956 H 0.59467 0.45036 0.17955 0.0
H1957 H 0.599 0.46983 0.18079 0.0
H1958 H 0.5725 0.47546 0.29027 0.0
H1959 H 0.56819 0.456 0.28962 0.0
H1960 H 0.58396 0.48588 0.14714 0.0
H1961 H 0.59775 0.49339 0.35457 0.0
H1962 H 0.59766 0.47997 0.32487 0.0
H1963 H 0.58529 0.48576 0.35082 0.0
C1964 C 0.58998 0.4557 0.20515 0.0
C1965 C 0.58111 0.45165 0.23467 0.0
C1966 C 0.59242 0.46683 0.2055 0.0
C1967 C 0.58614 0.47407 0.23595 0.0
C1968 C 0.57756 0.46999 0.26716 0.0
H1969 H 0.56379 0.53815 0.21596 0.0
H1970 H 0.56822 0.51892 0.20258 0.0
C1971 C 0.57507 0.45888 0.26652 0.0
C1972 C 0.58775 0.48599 0.23117 0.0
H1973 H 0.59149 0.50901 0.30532 0.0
C1974 C 0.58581 0.49094 0.18148 0.0
C1975 C 0.5903 0.49256 0.2758 0.0
C1976 C 0.59298 0.48766 0.32944 0.0
C1977 C 0.58567 0.50232 0.17608 0.0
C1978 C 0.58744 0.50889 0.22158 0.0
C1979 C 0.59008 0.50395 0.27048 0.0
C1980 C 0.58535 0.52078 0.22096 0.0
C1981 C 0.58331 0.50723 0.12209 0.0
C1982 C 0.59355 0.52824 0.23489 0.0
C1983 C 0.59103 0.53928 0.24203 0.0
C1984 C 0.58025 0.54292 0.23627 0.0
C1985 C 0.57217 0.53553 0.22011 0.0
C1986 C 0.57471 0.52456 0.21238 0.0
H1987 H 0.5854 0.5015 0.0893 0.0
H1988 H 0.57448 0.50909 0.1192 0.0
H1989 H 0.5879 0.51493 0.11626 0.0
H1990 H 0.60178 0.52545 0.24214 0.0
H1991 H 0.59734 0.54482 0.25529 0.0
H1992 H 0.71076 0.3272 0.45164 0.0
H1993 H 0.73044 0.32899 0.4361 0.0
H1994 H 0.73422 0.34366 0.59156 0.0
H1995 H 0.71466 0.34155 0.60772 0.0
H1996 H 0.74605 0.34558 0.43748 0.0
H1997 H 0.75264 0.31628 0.6036 0.0
H1998 H 0.73934 0.31896 0.57604 0.0
H1999 H 0.74539 0.32836 0.62248 0.0
C2000 C 0.71578 0.33105 0.48178 0.0
C2001 C 0.71128 0.33417 0.53097 0.0
C2002 C 0.727 0.33204 0.47303 0.0
C2003 C 0.73382 0.3362 0.51327 0.0
C2004 C 0.72915 0.34017 0.56055 0.0
H2005 H 0.80505 0.3335 0.54175 0.0
H2006 H 0.78591 0.33874 0.55504 0.0
C2007 C 0.71799 0.33905 0.56958 0.0
C2008 C 0.74583 0.33548 0.50777 0.0
H2009 H 0.76831 0.3234 0.56225 0.0
C2010 C 0.75093 0.34078 0.46487 0.0
C2011 C 0.75218 0.32916 0.54351 0.0
C2012 C 0.74712 0.32278 0.58871 0.0
C2013 C 0.76222 0.3399 0.45668 0.0
C2014 C 0.76852 0.33348 0.49203 0.0
C2015 C 0.76346 0.32839 0.53553 0.0
C2016 C 0.78018 0.33115 0.48227 0.0
C2017 C 0.76733 0.3458 0.41019 0.0
C2018 C 0.78325 0.32511 0.43725 0.0
C2019 C 0.79408 0.32205 0.42986 0.0
C2020 C 0.80209 0.32494 0.46745 0.0
C2021 C 0.79905 0.33117 0.51213 0.0
C2022 C 0.78815 0.33417 0.51973 0.0
H2023 H 0.76212 0.35261 0.396 0.0
H2024 H 0.77546 0.34907 0.42112 0.0
H2025 H 0.76842 0.34001 0.37658 0.0
H2026 H 0.7772 0.32254 0.40836 0.0
H2027 H 0.7962 0.31739 0.39462 0.0
H2028 H 0.90201 0.54518 0.65982 0.0
H2029 H 0.8976 0.5257 0.66293 0.0
H2030 H 0.9205 0.52138 0.79185 0.0
H2031 H 0.92476 0.5408 0.78967 0.0
H2032 H 0.91261 0.50962 0.64291 0.0
H2033 H 0.89472 0.50343 0.84301 0.0
H2034 H 0.8957 0.51672 0.81232 0.0
H2035 H 0.90723 0.51093 0.84651 0.0
C2036 C 0.90585 0.54012 0.68988 0.0
C2037 C 0.91375 0.5445 0.72446 0.0
C2038 C 0.90337 0.529 0.6914 0.0
C2039 C 0.90863 0.5221 0.72799 0.0
C2040 C 0.91617 0.52656 0.764 0.0
H2041 H 0.93476 0.45985 0.72977 0.0
H2042 H 0.92909 0.47855 0.71146 0.0
C2043 C 0.91869 0.53765 0.76237 0.0
C2044 C 0.90729 0.51011 0.7249 0.0
H2045 H 0.90331 0.48764 0.80274 0.0
C2046 C 0.91032 0.50481 0.67749 0.0
C2047 C 0.90416 0.50382 0.76967 0.0
C2048 C 0.90016 0.50903 0.82055 0.0
C2049 C 0.91113 0.49342 0.67502 0.0
C2050 C 0.90894 0.48719 0.72128 0.0
C2051 C 0.90509 0.49243 0.7674 0.0
C2052 C 0.91194 0.47552 0.72494 0.0
C2053 C 0.91467 0.48816 0.62346 0.0
C2054 C 0.90417 0.46757 0.73821 0.0
C2055 C 0.90742 0.45682 0.74844 0.0
C2056 C 0.91849 0.45397 0.74651 0.0
C2057 C 0.92617 0.46185 0.73137 0.0
C2058 C 0.92293 0.47252 0.72064 0.0
H2059 H 0.91257 0.49333 0.58851 0.0
H2060 H 0.92365 0.48709 0.62396 0.0
H2061 H 0.91085 0.48003 0.61829 0.0
H2062 H 0.89566 0.46976 0.74221 0.0
H2063 H 0.90137 0.4509 0.76065 0.0
H2064 H 0.20255 0.34365 0.9137 0.0
H2065 H 0.2221 0.34749 0.91867 0.0
H2066 H 0.22548 0.32379 0.04472 0.0
H2067 H 0.20591 0.3201 0.04095 0.0
H2068 H 0.23783 0.34342 0.05999 0.0
H2069 H 0.24403 0.32483 0.85941 0.0
H2070 H 0.2343 0.33575 0.86364 0.0
H2071 H 0.23159 0.32307 0.89675 0.0
C2072 C 0.20741 0.33944 0.94336 0.0
C2073 C 0.20269 0.33151 0.97672 0.0
C2074 C 0.21859 0.34157 0.94574 0.0
C2075 C 0.22525 0.33579 0.98144 0.0
C2076 C 0.22048 0.3283 0.01668 0.0
H2077 H 0.28947 0.31349 0.00393 0.0
H2078 H 0.27029 0.31736 0.98619 0.0
C2079 C 0.20932 0.32615 0.01428 0.0
C2080 C 0.23726 0.33697 0.98018 0.0
H2081 H 0.25965 0.33037 0.90604 0.0
C2082 C 0.24262 0.34075 0.02607 0.0
C2083 C 0.24345 0.33339 0.9359 0.0
C2084 C 0.23811 0.32895 0.88616 0.0
C2085 C 0.25404 0.34069 0.02955 0.0
C2086 C 0.26023 0.33684 0.9858 0.0
C2087 C 0.25487 0.33342 0.93923 0.0
C2088 C 0.27209 0.33486 0.99045 0.0
C2089 C 0.2594 0.34418 0.08103 0.0
C2090 C 0.27953 0.34346 0.99697 0.0
C2091 C 0.29055 0.34125 0.00697 0.0
C2092 C 0.29422 0.33043 0.01091 0.0
C2093 C 0.28683 0.3219 0.00165 0.0
C2094 C 0.27589 0.3241 0.99136 0.0
H2095 H 0.25338 0.34562 0.1134 0.0
H2096 H 0.2653 0.3379 0.0946 0.0
H2097 H 0.26398 0.35185 0.07427 0.0
H2098 H 0.27676 0.35183 0.99576 0.0
H2099 H 0.29609 0.34796 0.0141 0.0
H2100 H 0.43536 0.46186 0.64836 0.0
H2101 H 0.43186 0.48124 0.6578 0.0
H2102 H 0.40712 0.47453 0.77545 0.0
H2103 H 0.41098 0.45497 0.76824 0.0
H2104 H 0.4138 0.49329 0.64053 0.0
H2105 H 0.42618 0.49614 0.85397 0.0
H2106 H 0.42877 0.48417 0.81419 0.0
H2107 H 0.41535 0.48674 0.83994 0.0
C2108 C 0.42929 0.46446 0.67703 0.0
C2109 C 0.42364 0.45683 0.70851 0.0
C2110 C 0.42721 0.47558 0.68185 0.0
C2111 C 0.41936 0.47938 0.71795 0.0
C2112 C 0.41338 0.4718 0.74817 0.0
H2113 H 0.4088 0.54863 0.79331 0.0
H2114 H 0.40492 0.52918 0.78069 0.0
C2115 C 0.41553 0.46062 0.74362 0.0
C2116 C 0.41773 0.49131 0.72388 0.0
H2117 H 0.42112 0.51241 0.81127 0.0
C2118 C 0.41528 0.49746 0.67803 0.0
C2119 C 0.41966 0.49675 0.77283 0.0
C2120 C 0.42272 0.49066 0.82301 0.0
C2121 C 0.41509 0.50889 0.67942 0.0
C2122 C 0.41741 0.5143 0.72783 0.0
C2123 C 0.41933 0.50819 0.77424 0.0
C2124 C 0.41891 0.52626 0.73024 0.0
C2125 C 0.41265 0.51512 0.62891 0.0
C2126 C 0.42798 0.53103 0.70553 0.0
C2127 C 0.43025 0.54208 0.71292 0.0
C2128 C 0.42343 0.54857 0.74488 0.0
C2129 C 0.4141 0.54386 0.76784 0.0
C2130 C 0.41191 0.53276 0.76096 0.0
H2131 H 0.40851 0.50993 0.59873 0.0
H2132 H 0.40745 0.52231 0.6375 0.0
H2133 H 0.4204 0.51809 0.61139 0.0
H2134 H 0.43356 0.52611 0.68224 0.0
H2135 H 0.4375 0.54551 0.69486 0.0
H2136 H 0.29817 0.673 0.5581 0.0
H2137 H 0.27901 0.67046 0.58308 0.0
H2138 H 0.27416 0.65012 0.44469 0.0
H2139 H 0.29326 0.65259 0.41985 0.0
H2140 H 0.26295 0.67783 0.51055 0.0
H2141 H 0.25655 0.63433 0.56225 0.0
H2142 H 0.26977 0.64079 0.56499 0.0
H2143 H 0.26417 0.63659 0.50198 0.0
C2144 C 0.29311 0.66764 0.53428 0.0
C2145 C 0.29715 0.663 0.48705 0.0
C2146 C 0.28217 0.66625 0.54836 0.0
C2147 C 0.27518 0.66006 0.51583 0.0
C2148 C 0.27943 0.65478 0.4708 0.0
H2149 H 0.20611 0.67049 0.46264 0.0
H2150 H 0.22554 0.66621 0.45112 0.0
C2151 C 0.29032 0.65623 0.45652 0.0
C2152 C 0.26324 0.66051 0.52393 0.0
H2153 H 0.24059 0.64487 0.54417 0.0
C2154 C 0.25807 0.67063 0.51832 0.0
C2155 C 0.25691 0.6511 0.5338 0.0
C2156 C 0.26211 0.64009 0.54158 0.0
C2157 C 0.24672 0.6716 0.52147 0.0
C2158 C 0.24036 0.66216 0.53 0.0
C2159 C 0.24551 0.65205 0.53674 0.0
C2160 C 0.22838 0.6629 0.53487 0.0
C2161 C 0.24158 0.68271 0.51602 0.0
C2162 C 0.22355 0.66205 0.58533 0.0
C2163 C 0.21254 0.66452 0.59195 0.0
C2164 C 0.20616 0.6678 0.54812 0.0
C2165 C 0.21084 0.66794 0.49696 0.0
C2166 C 0.22191 0.66554 0.49043 0.0
H2167 H 0.24771 0.68936 0.51813 0.0
H2168 H 0.23735 0.68327 0.47694 0.0
H2169 H 0.23543 0.68402 0.54786 0.0
H2170 H 0.22842 0.66002 0.62003 0.0
H2171 H 0.20908 0.66427 0.63175 0.0
H2172 H 0.07555 0.46033 0.2004 0.0
H2173 H 0.07751 0.47996 0.18534 0.0
H2174 H 0.09088 0.48368 0.34374 0.0
H2175 H 0.08859 0.46414 0.35932 0.0
H2176 H 0.07421 0.4969 0.32906 0.0
H2177 H 0.10179 0.50099 0.15555 0.0
H2178 H 0.09058 0.49204 0.14194 0.0
H2179 H 0.10042 0.4884 0.19227 0.0
C2180 C 0.07921 0.46531 0.23125 0.0
C2181 C 0.08192 0.46077 0.28097 0.0
C2182 C 0.08037 0.47652 0.22263 0.0
C2183 C 0.08444 0.48331 0.26326 0.0
C2184 C 0.08773 0.47862 0.3118 0.0
H2185 H 0.08386 0.55472 0.29473 0.0
H2186 H 0.08844 0.53539 0.30709 0.0
C2187 C 0.08645 0.46747 0.32063 0.0
C2188 C 0.08397 0.49536 0.25792 0.0
H2189 H 0.09082 0.51666 0.17675 0.0
C2190 C 0.07801 0.50123 0.29621 0.0
C2191 C 0.08888 0.50102 0.21497 0.0
C2192 C 0.09587 0.4953 0.17417 0.0
C2193 C 0.0765 0.51252 0.29177 0.0
C2194 C 0.08114 0.51811 0.24805 0.0
C2195 C 0.08728 0.51232 0.21026 0.0
C2196 C 0.07904 0.52985 0.23921 0.0
C2197 C 0.06961 0.51833 0.33272 0.0
C2198 C 0.07243 0.5331 0.1965 0.0
C2199 C 0.06979 0.54406 0.18949 0.0
C2200 C 0.07377 0.55202 0.22492 0.0
C2201 C 0.08066 0.54877 0.2669 0.0
C2202 C 0.08325 0.53776 0.27409 0.0
H2203 H 0.06522 0.51256 0.35929 0.0
H2204 H 0.0749 0.52356 0.35787 0.0
H2205 H 0.06354 0.52367 0.31276 0.0
H2206 H 0.06914 0.52712 0.16909 0.0
H2207 H 0.06465 0.54632 0.15607 0.0
H2208 H 0.16928 0.20824 0.28012 0.0
H2209 H 0.16755 0.22212 0.21156 0.0
H2210 H 0.13318 0.21536 0.19847 0.0
H2211 H 0.13481 0.20144 0.26882 0.0
H2212 H 0.16069 0.22185 0.10716 0.0
H2213 H 0.13386 0.24781 0.23325 0.0
H2214 H 0.14099 0.23615 0.25963 0.0
H2215 H 0.12891 0.2343 0.22014 0.0
C2216 C 0.16132 0.20963 0.26267 0.0
C2217 C 0.15213 0.20383 0.28042 0.0
C2218 C 0.16037 0.21755 0.22318 0.0
C2219 C 0.15022 0.21989 0.20039 0.0
C2220 C 0.14106 0.21381 0.21627 0.0
H2221 H 0.13366 0.27547 0.00217 0.0
H2222 H 0.1337 0.25736 0.04233 0.0
C2223 C 0.142 0.20584 0.25619 0.0
C2224 C 0.14935 0.22911 0.16236 0.0
H2225 H 0.13892 0.25474 0.14961 0.0
C2226 C 0.15584 0.22901 0.1161 0.0
C2227 C 0.14311 0.23848 0.17441 0.0
C2228 C 0.13638 0.2393 0.22471 0.0
C2229 C 0.15634 0.23807 0.08189 0.0
C2230 C 0.15027 0.24749 0.09459 0.0
C2231 C 0.14357 0.24749 0.14001 0.0
C2232 C 0.15083 0.2576 0.06237 0.0
C2233 C 0.16336 0.23752 0.03255 0.0
C2234 C 0.16054 0.26364 0.05891 0.0
C2235 C 0.16054 0.27405 0.03583 0.0
C2236 C 0.15079 0.27858 0.01669 0.0
C2237 C 0.14125 0.27224 0.01751 0.0
C2238 C 0.14127 0.26188 0.04021 0.0
H2239 H 0.16527 0.22897 0.02137 0.0
H2240 H 0.1593 0.24158 0.99826 0.0
H2241 H 0.17115 0.2418 0.04033 0.0
H2242 H 0.16799 0.26056 0.07652 0.0
H2243 H 0.16795 0.27882 0.03588 0.0
H2244 H 0.97275 0.91893 0.28433 0.0
H2245 H 0.99028 0.91931 0.33191 0.0
H2246 H 0.99556 0.88556 0.29173 0.0
H2247 H 0.97827 0.88523 0.24368 0.0
H2248 H 0.99408 0.90575 0.41984 0.0
H2249 H 0.02549 0.89898 0.26408 0.0
H2250 H 0.01186 0.90353 0.24852 0.0
H2251 H 0.01445 0.88939 0.26227 0.0
C2252 C 0.97784 0.91172 0.28442 0.0
C2253 C 0.97414 0.90203 0.26083 0.0
C2254 C 0.98779 0.91191 0.31174 0.0
C2255 C 0.99425 0.90247 0.31507 0.0
C2256 C 0.99081 0.89298 0.28902 0.0
H2257 H 0.04772 0.8847 0.53248 0.0
H2258 H 0.03323 0.88363 0.46428 0.0
C2259 C 0.98088 0.89277 0.26206 0.0
C2260 C 0.00387 0.90212 0.35076 0.0
H2261 H 0.03123 0.89699 0.35464 0.0
C2262 C 0.00221 0.90389 0.4055 0.0
C2263 C 0.01444 0.89954 0.33203 0.0
C2264 C 0.01672 0.89784 0.27345 0.0
C2265 C 0.01082 0.90315 0.44206 0.0
C2266 C 0.02138 0.90066 0.42335 0.0
C2267 C 0.02308 0.89878 0.36875 0.0
C2268 C 0.03085 0.90107 0.45975 0.0
C2269 C 0.00859 0.90505 0.50059 0.0
C2270 C 0.03439 0.9112 0.47837 0.0
C2271 C 0.04254 0.91182 0.51687 0.0
C2272 C 0.04735 0.90231 0.5376 0.0
C2273 C 0.04414 0.89214 0.51724 0.0
C2274 C 0.0359 0.89152 0.47842 0.0
H2275 H 0.99975 0.9047 0.50988 0.0
H2276 H 0.01292 0.89893 0.52544 0.0
H2277 H 0.01165 0.91323 0.51201 0.0
H2278 H 0.03063 0.91864 0.46411 0.0
H2279 H 0.0449 0.9198 0.53121 0.0
H2280 H 0.36277 0.78679 0.80853 0.0
H2281 H 0.36218 0.77087 0.74863 0.0
H2282 H 0.32832 0.77741 0.71515 0.0
H2283 H 0.32878 0.79288 0.77546 0.0
H2284 H 0.33106 0.75686 0.74208 0.0
H2285 H 0.36147 0.76793 0.58749 0.0
H2286 H 0.36672 0.76817 0.65441 0.0
H2287 H 0.35627 0.77766 0.63515 0.0
C2288 C 0.35527 0.78485 0.78784 0.0
C2289 C 0.3458 0.79099 0.79707 0.0
C2290 C 0.35494 0.77581 0.7534 0.0
C2291 C 0.34521 0.77298 0.72704 0.0
C2292 C 0.33591 0.77938 0.7351 0.0
H2293 H 0.33771 0.72334 0.47679 0.0
H2294 H 0.33756 0.74071 0.52591 0.0
C2295 C 0.33619 0.78823 0.76977 0.0
C2296 C 0.34428 0.76295 0.694 0.0
H2297 H 0.3545 0.74982 0.58463 0.0
C2298 C 0.33617 0.75537 0.7075 0.0
C2299 C 0.35081 0.76106 0.64836 0.0
C2300 C 0.35924 0.76918 0.63005 0.0
C2301 C 0.33448 0.74592 0.6772 0.0
C2302 C 0.3413 0.74379 0.63291 0.0
C2303 C 0.3493 0.75144 0.61872 0.0
C2304 C 0.34066 0.73336 0.60305 0.0
C2305 C 0.32531 0.73837 0.6927 0.0
C2306 C 0.34233 0.72351 0.63012 0.0
C2307 C 0.34228 0.71367 0.60244 0.0
C2308 C 0.34072 0.71342 0.54681 0.0
C2309 C 0.3388 0.72327 0.51969 0.0
C2310 C 0.33883 0.73318 0.54761 0.0
H2311 H 0.31883 0.74277 0.71497 0.0
H2312 H 0.32159 0.73446 0.65709 0.0
H2313 H 0.32853 0.73188 0.71922 0.0
H2314 H 0.34395 0.72344 0.67265 0.0
H2315 H 0.3437 0.70622 0.62453 0.0
H2316 H 0.46025 0.11706 0.084 0.0
H2317 H 0.47632 0.11966 0.02638 0.0
H2318 H 0.47957 0.08483 0.01076 0.0
H2319 H 0.46388 0.08219 0.06813 0.0
H2320 H 0.49876 0.09508 0.03807 0.0
H2321 H 0.47904 0.11488 0.86292 0.0
H2322 H 0.47677 0.12105 0.92715 0.0
H2323 H 0.47133 0.10777 0.91351 0.0
C2324 C 0.46442 0.10999 0.06815 0.0
C2325 C 0.46081 0.09943 0.08077 0.0
C2326 C 0.47353 0.11148 0.03498 0.0
C2327 C 0.47907 0.10242 0.01388 0.0
C2328 C 0.47542 0.09193 0.0265 0.0
H2329 H 0.52538 0.08887 0.76549 0.0
H2330 H 0.50885 0.09265 0.8178 0.0
C2331 C 0.46643 0.09044 0.05947 0.0
C2332 C 0.48896 0.10359 0.98032 0.0
H2333 H 0.4979 0.11135 0.85674 0.0
C2334 C 0.49861 0.09874 0.99864 0.0
C2335 C 0.48867 0.10824 0.92865 0.0
C2336 C 0.4784 0.11323 0.90644 0.0
C2337 C 0.5079 0.09815 0.96634 0.0
C2338 C 0.50766 0.10281 0.91461 0.0
C2339 C 0.49807 0.10785 0.89651 0.0
C2340 C 0.5172 0.10205 0.87845 0.0
C2341 C 0.51774 0.09209 0.98716 0.0
C2342 C 0.52726 0.10646 0.89395 0.0
C2343 C 0.53665 0.10418 0.86467 0.0
C2344 C 0.53615 0.09763 0.81873 0.0
C2345 C 0.52596 0.09393 0.80078 0.0
C2346 C 0.51654 0.09609 0.83061 0.0
H2347 H 0.51566 0.08673 0.02141 0.0
H2348 H 0.52148 0.08702 0.95536 0.0
H2349 H 0.52391 0.09805 0.0011 0.0
H2350 H 0.52791 0.1113 0.92997 0.0
H2351 H 0.54438 0.10731 0.87869 0.0
H2352 H 0.16626 0.72723 0.49391 0.0
H2353 H 0.16345 0.74425 0.44398 0.0
H2354 H 0.13702 0.7293 0.35723 0.0
H2355 H 0.13997 0.71234 0.40604 0.0
H2356 H 0.15154 0.73777 0.2911 0.0
H2357 H 0.1412 0.76857 0.44439 0.0
H2358 H 0.15353 0.76135 0.45959 0.0
H2359 H 0.14079 0.75411 0.45771 0.0
C2360 C 0.15972 0.72771 0.46498 0.0
C2361 C 0.15343 0.71846 0.45328 0.0
C2362 C 0.15807 0.73743 0.43666 0.0
C2363 C 0.14996 0.73809 0.39703 0.0
C2364 C 0.14333 0.72899 0.38747 0.0
H2365 H 0.13897 0.79683 0.19737 0.0
H2366 H 0.1351 0.78125 0.25666 0.0
C2367 C 0.14505 0.7193 0.41519 0.0
C2368 C 0.14919 0.7477 0.36118 0.0
H2369 H 0.14706 0.77546 0.35893 0.0
C2370 C 0.15038 0.74599 0.30601 0.0
C2371 C 0.14755 0.75843 0.38037 0.0
C2372 C 0.14558 0.76073 0.43871 0.0
C2373 C 0.15047 0.7547 0.2699 0.0
C2374 C 0.14952 0.76545 0.28941 0.0
C2375 C 0.14783 0.76719 0.34417 0.0
C2376 C 0.15155 0.77492 0.25416 0.0
C2377 C 0.15188 0.75237 0.21113 0.0
C2378 C 0.16203 0.77648 0.23363 0.0
C2379 C 0.16423 0.78527 0.20024 0.0
C2380 C 0.15599 0.79273 0.18655 0.0
C2381 C 0.14545 0.79117 0.207 0.0
C2382 C 0.14325 0.78233 0.24097 0.0
H2383 H 0.14953 0.74387 0.20113 0.0
H2384 H 0.14693 0.75805 0.18654 0.0
H2385 H 0.16056 0.75347 0.20015 0.0
H2386 H 0.16856 0.77091 0.24373 0.0
H2387 H 0.17245 0.78622 0.18526 0.0
H2388 H 0.45894 0.8888 0.41068 0.0
H2389 H 0.47482 0.88579 0.46882 0.0
H2390 H 0.4783 0.9205 0.48903 0.0
H2391 H 0.4627 0.92355 0.43092 0.0
H2392 H 0.49753 0.91042 0.46348 0.0
H2393 H 0.47704 0.88925 0.63201 0.0
H2394 H 0.47493 0.88333 0.56714 0.0
H2395 H 0.46959 0.89663 0.58142 0.0
C2396 C 0.4631 0.89576 0.42765 0.0
C2397 C 0.45957 0.9064 0.41613 0.0
C2398 C 0.47211 0.89404 0.46116 0.0
C2399 C 0.47766 0.90292 0.48382 0.0
C2400 C 0.47413 0.91352 0.47216 0.0
H2401 H 0.52578 0.90911 0.73602 0.0
H2402 H 0.50891 0.90847 0.68325 0.0
C2403 C 0.4652 0.91524 0.43881 0.0
C2404 C 0.48743 0.90139 0.51799 0.0
H2405 H 0.4962 0.8912 0.63766 0.0
C2406 C 0.49724 0.90618 0.50145 0.0
C2407 C 0.487 0.89597 0.56786 0.0
C2408 C 0.47657 0.89107 0.5886 0.0
C2409 C 0.50662 0.90575 0.53337 0.0
C2410 C 0.50627 0.90018 0.58284 0.0
C2411 C 0.49646 0.89538 0.59954 0.0
C2412 C 0.51602 0.89945 0.61771 0.0
C2413 C 0.51676 0.91154 0.51442 0.0
C2414 C 0.52547 0.89427 0.59922 0.0
C2415 C 0.53507 0.89467 0.62905 0.0
C2416 C 0.53541 0.90018 0.67829 0.0
C2417 C 0.52576 0.90481 0.6983 0.0
C2418 C 0.51614 0.90446 0.66815 0.0
H2419 H 0.51491 0.91763 0.48287 0.0
H2420 H 0.5209 0.91575 0.54802 0.0
H2421 H 0.5225 0.90549 0.49741 0.0
H2422 H 0.5255 0.89015 0.56098 0.0
H2423 H 0.5423 0.89081 0.61316 0.0
H2424 H 0.32979 0.21744 0.67613 0.0
H2425 H 0.33297 0.23189 0.74054 0.0
H2426 H 0.36656 0.22205 0.75514 0.0
H2427 H 0.36343 0.20742 0.68943 0.0
H2428 H 0.34011 0.22901 0.84728 0.0
H2429 H 0.3679 0.25545 0.72825 0.0
H2430 H 0.35965 0.24502 0.69749 0.0
H2431 H 0.37143 0.2413 0.7357 0.0
C2432 C 0.33791 0.21836 0.69258 0.0
C2433 C 0.34638 0.21128 0.67772 0.0
C2434 C 0.33969 0.22662 0.7296 0.0
C2435 C 0.34997 0.22803 0.75276 0.0
C2436 C 0.35857 0.22114 0.73738 0.0
H2437 H 0.3513 0.27682 0.01508 0.0
H2438 H 0.35426 0.25936 0.969 0.0
C2439 C 0.35679 0.21282 0.69986 0.0
C2440 C 0.35137 0.23671 0.79332 0.0
H2441 H 0.36152 0.26236 0.8097 0.0
C2442 C 0.34496 0.23623 0.83974 0.0
C2443 C 0.35766 0.24611 0.78309 0.0
C2444 C 0.36453 0.24711 0.73339 0.0
C2445 C 0.34417 0.24515 0.87464 0.0
C2446 C 0.35009 0.25474 0.86314 0.0
C2447 C 0.35699 0.25498 0.81837 0.0
C2448 C 0.34819 0.26504 0.89269 0.0
C2449 C 0.33649 0.2445 0.92153 0.0
C2450 C 0.34377 0.27395 0.86524 0.0
C2451 C 0.3421 0.28384 0.89128 0.0
C2452 C 0.34483 0.28507 0.94545 0.0
C2453 C 0.34901 0.27606 0.97349 0.0
C2454 C 0.35074 0.26612 0.94717 0.0
H2455 H 0.33126 0.23712 0.92001 0.0
H2456 H 0.34127 0.24425 0.95913 0.0
H2457 H 0.33116 0.25181 0.92292 0.0
H2458 H 0.34164 0.27327 0.82336 0.0
H2459 H 0.33873 0.29058 0.86884 0.0
H2460 H 0.04962 0.10908 0.97416 0.0
H2461 H 0.0349 0.11078 0.0403 0.0
H2462 H 0.01794 0.08402 0.96558 0.0
H2463 H 0.03278 0.08199 0.90174 0.0
H2464 H 0.01396 0.11487 0.03736 0.0
H2465 H 0.01895 0.07314 0.11502 0.0
H2466 H 0.02861 0.07919 0.06966 0.0
H2467 H 0.01642 0.07279 0.04461 0.0
C2468 C 0.04268 0.10365 0.97182 0.0
C2469 C 0.04235 0.09534 0.93338 0.0
C2470 C 0.03432 0.10458 0.00967 0.0
C2471 C 0.02548 0.09727 0.0091 0.0
C2472 C 0.02487 0.08945 0.96834 0.0
H2473 H 0.96209 0.1068 0.14504 0.0
H2474 H 0.97848 0.10557 0.08991 0.0
C2475 C 0.03329 0.08839 0.93145 0.0
C2476 C 0.01682 0.09777 0.0505 0.0
H2477 H 0.00177 0.0818 0.13435 0.0
C2478 C 0.01139 0.10767 0.05905 0.0
C2479 C 0.01364 0.08846 0.08017 0.0
C2480 C 0.01981 0.07784 0.07735 0.0
C2481 C 0.00252 0.10838 0.0943 0.0
C2482 C 0.99871 0.09883 0.12012 0.0
C2483 C 0.0045 0.08907 0.1137 0.0
C2484 C 0.98857 0.09875 0.15257 0.0
C2485 C 0.99743 0.11941 0.10369 0.0
C2486 C 0.98853 0.09458 0.20496 0.0
C2487 C 0.97902 0.09495 0.23587 0.0
C2488 C 0.96949 0.09958 0.21494 0.0
C2489 C 0.96942 0.10331 0.16198 0.0
C2490 C 0.97881 0.10274 0.13083 0.0
H2491 H 0.00344 0.12605 0.09746 0.0
H2492 H 0.99071 0.12066 0.07468 0.0
H2493 H 0.9941 0.12012 0.14475 0.0
H2494 H 0.99592 0.09134 0.22243 0.0
H2495 H 0.97923 0.0921 0.27679 0.0
H2496 H 0.8534 0.70835 0.89607 0.0
H2497 H 0.85832 0.7248 0.84679 0.0
H2498 H 0.83749 0.74382 0.9496 0.0
H2499 H 0.83288 0.7273 1.00029 0.0
H2500 H 0.84504 0.73624 0.78948 0.0
H2501 H 0.8632 0.76379 0.93974 0.0
H2502 H 0.86102 0.74948 0.95253 0.0
H2503 H 0.85001 0.75906 0.95992 0.0
C2504 C 0.85001 0.71608 0.90858 0.0
C2505 C 0.8427 0.71658 0.95164 0.0
C2506 C 0.85285 0.72548 0.88053 0.0
C2507 C 0.84836 0.7356 0.89453 0.0
C2508 C 0.84129 0.73618 0.93871 0.0
H2509 H 0.83174 0.78719 0.68632 0.0
H2510 H 0.83354 0.77136 0.74368 0.0
C2511 C 0.83859 0.72675 0.96746 0.0
C2512 C 0.85015 0.7452 0.85921 0.0
H2513 H 0.85695 0.77221 0.85812 0.0
C2514 C 0.84781 0.74404 0.80456 0.0
C2515 C 0.85391 0.75538 0.87839 0.0
C2516 C 0.85729 0.75698 0.93576 0.0
C2517 C 0.84868 0.75285 0.76917 0.0
C2518 C 0.8517 0.76319 0.789 0.0
C2519 C 0.85453 0.76429 0.84308 0.0
C2520 C 0.85092 0.77307 0.75506 0.0
C2521 C 0.84619 0.75101 0.71082 0.0
C2522 C 0.86008 0.7795 0.7433 0.0
C2523 C 0.85908 0.7887 0.71024 0.0
C2524 C 0.84888 0.7916 0.68896 0.0
C2525 C 0.83975 0.78518 0.70157 0.0
C2526 C 0.84075 0.77607 0.73434 0.0
H2527 H 0.84743 0.74235 0.69937 0.0
H2528 H 0.83753 0.75307 0.70308 0.0
H2529 H 0.85136 0.75621 0.68492 0.0
H2530 H 0.868 0.77734 0.75924 0.0
H2531 H 0.86624 0.79354 0.70154 0.0
H2532 H 0.02495 0.09588 0.77796 0.0
H2533 H 0.00676 0.09802 0.73837 0.0
H2534 H 0.02008 0.09129 0.58254 0.0
H2535 H 0.03807 0.08881 0.62168 0.0
H2536 H 0.99981 0.11283 0.65809 0.0
H2537 H 0.99463 0.07004 0.59318 0.0
H2538 H 0.0049 0.07411 0.64076 0.0
H2539 H 0.00718 0.07589 0.5703 0.0
C2540 C 0.02396 0.09468 0.73542 0.0
C2541 C 0.03298 0.09216 0.703 0.0
C2542 C 0.01359 0.096 0.71281 0.0
C2543 C 0.01206 0.09472 0.65758 0.0
C2544 C 0.02104 0.09217 0.62533 0.0
H2545 H 0.96259 0.11505 0.43378 0.0
H2546 H 0.97766 0.11505 0.49845 0.0
C2547 C 0.03135 0.09085 0.64776 0.0
C2548 C 0.00116 0.09612 0.63287 0.0
H2549 H 0.98287 0.08314 0.55268 0.0
C2550 C 0.996 0.10632 0.63559 0.0
C2551 C 0.99615 0.08758 0.60411 0.0
C2552 C 0.00095 0.07626 0.60229 0.0
C2553 C 0.98614 0.1083 0.60857 0.0
C2554 C 0.98145 0.09991 0.57737 0.0
C2555 C 0.98647 0.08962 0.57625 0.0
C2556 C 0.97145 0.10147 0.54466 0.0
C2557 C 0.98084 0.11933 0.61388 0.0
C2558 C 0.96285 0.09399 0.54946 0.0
C2559 C 0.95444 0.09387 0.51208 0.0
C2560 C 0.95432 0.10135 0.46973 0.0
C2561 C 0.96243 0.10936 0.46683 0.0
C2562 C 0.97102 0.10936 0.50384 0.0
H2563 H 0.98341 0.12349 0.65123 0.0
H2564 H 0.98335 0.12452 0.57975 0.0
H2565 H 0.97182 0.11866 0.6136 0.0
H2566 H 0.96297 0.08785 0.58051 0.0
H2567 H 0.94827 0.08758 0.51478 0.0
H2568 H 0.66609 0.2091 0.24978 0.0
H2569 H 0.66416 0.22327 0.31642 0.0
H2570 H 0.6292 0.22172 0.30126 0.0
H2571 H 0.63111 0.20745 0.2327 0.0
H2572 H 0.63656 0.24225 0.29285 0.0
H2573 H 0.65557 0.22403 0.47063 0.0
H2574 H 0.66445 0.22235 0.41453 0.0
H2575 H 0.65125 0.2159 0.41435 0.0
C2576 C 0.65795 0.21162 0.26104 0.0
C2577 C 0.64874 0.20719 0.2358 0.0
C2578 C 0.65687 0.21966 0.2998 0.0
C2579 C 0.64654 0.22342 0.31482 0.0
C2580 C 0.63725 0.21883 0.29076 0.0
H2581 H 0.65173 0.27849 0.54098 0.0
H2582 H 0.64613 0.2607 0.50548 0.0
C2583 C 0.63834 0.21069 0.2517 0.0
C2584 C 0.64577 0.23304 0.35057 0.0
H2585 H 0.6575 0.24389 0.46221 0.0
C2586 C 0.64088 0.24253 0.33061 0.0
C2587 C 0.65121 0.23341 0.40042 0.0
C2588 C 0.6558 0.22332 0.42641 0.0
C2589 C 0.64215 0.25257 0.35669 0.0
C2590 C 0.64869 0.25315 0.40319 0.0
C2591 C 0.65271 0.2435 0.42583 0.0
C2592 C 0.65224 0.26374 0.42581 0.0
C2593 C 0.63673 0.2625 0.33318 0.0
C2594 C 0.65789 0.27116 0.39342 0.0
C2595 C 0.66109 0.28126 0.41352 0.0
C2596 C 0.65885 0.28412 0.46671 0.0
C2597 C 0.65362 0.27649 0.49992 0.0
C2598 C 0.65034 0.26637 0.47959 0.0
H2599 H 0.62922 0.26026 0.31099 0.0
H2600 H 0.63458 0.26852 0.36457 0.0
H2601 H 0.64238 0.26644 0.30445 0.0
H2602 H 0.6598 0.26916 0.35235 0.0
H2603 H 0.66529 0.28687 0.38733 0.0
H2604 H 0.47198 0.89638 0.23834 0.0
H2605 H 0.48882 0.89153 0.19141 0.0
H2606 H 0.47978 0.9126 0.06096 0.0
H2607 H 0.46311 0.9176 0.10756 0.0
H2608 H 0.48691 0.89095 0.03052 0.0
H2609 H 0.51549 0.91215 0.16881 0.0
H2610 H 0.50584 0.90278 0.19731 0.0
H2611 H 0.50111 0.9152 0.16751 0.0
C2612 C 0.47363 0.90008 0.19997 0.0
C2613 C 0.46615 0.90737 0.1767 0.0
C2614 C 0.48324 0.89725 0.17312 0.0
C2615 C 0.48553 0.90171 0.12275 0.0
C2616 C 0.47812 0.909 0.09963 0.0
H2617 H 0.53721 0.91726 0.92372 0.0
H2618 H 0.5219 0.91505 0.9843 0.0
C2619 C 0.46856 0.91183 0.12632 0.0
C2620 C 0.49567 0.89901 0.09364 0.0
H2621 H 0.52288 0.90465 0.09066 0.0
C2622 C 0.49483 0.89374 0.04404 0.0
C2623 C 0.50595 0.90271 0.11148 0.0
C2624 C 0.50724 0.90858 0.16402 0.0
C2625 C 0.50393 0.89251 0.01062 0.0
C2626 C 0.5141 0.89664 0.02748 0.0
C2627 C 0.51505 0.90144 0.07815 0.0
C2628 C 0.52341 0.89755 0.99026 0.0
C2629 C 0.50251 0.88744 0.95621 0.0
C2630 C 0.52932 0.88839 0.9732 0.0
C2631 C 0.53816 0.88962 0.93823 0.0
C2632 C 0.54117 0.90003 0.91998 0.0
C2633 C 0.53513 0.90912 0.93692 0.0
C2634 C 0.52638 0.90789 0.97175 0.0
H2635 H 0.49388 0.88535 0.94766 0.0
H2636 H 0.50548 0.8931 0.92483 0.0
H2637 H 0.50745 0.87989 0.9537 0.0
H2638 H 0.52716 0.88034 0.98735 0.0
H2639 H 0.5427 0.88248 0.92602 0.0
H2640 H 0.85871 0.20173 0.80091 0.0
H2641 H 0.86127 0.21675 0.73713 0.0
H2642 H 0.82837 0.22757 0.76636 0.0
H2643 H 0.8257 0.21257 0.8285 0.0
H2644 H 0.83262 0.22633 0.66105 0.0
H2645 H 0.86562 0.24903 0.76404 0.0
H2646 H 0.86875 0.23498 0.75133 0.0
H2647 H 0.8579 0.23842 0.79651 0.0
C2648 C 0.85209 0.2074 0.79402 0.0
C2649 C 0.84201 0.20596 0.81954 0.0
C2650 C 0.85356 0.21599 0.75779 0.0
C2651 C 0.84503 0.22335 0.74731 0.0
C2652 C 0.83506 0.222 0.77366 0.0
H2653 H 0.8359 0.28133 0.54947 0.0
H2654 H 0.83313 0.26598 0.6111 0.0
C2655 C 0.83356 0.21341 0.80926 0.0
C2656 C 0.84619 0.23223 0.70743 0.0
H2657 H 0.86083 0.25504 0.67705 0.0
C2658 C 0.83877 0.23263 0.66466 0.0
C2659 C 0.85418 0.24047 0.71233 0.0
C2660 C 0.86201 0.2408 0.75877 0.0
C2661 C 0.83921 0.24097 0.62635 0.0
C2662 C 0.84724 0.24914 0.63109 0.0
C2663 C 0.85467 0.24875 0.67368 0.0
C2664 C 0.84833 0.258 0.5913 0.0
C2665 C 0.83123 0.2409 0.58052 0.0
C2666 C 0.85769 0.2585 0.55953 0.0
C2667 C 0.85924 0.26716 0.52436 0.0
C2668 C 0.85152 0.2756 0.52056 0.0
C2669 C 0.84195 0.27492 0.55121 0.0
C2670 C 0.84038 0.26618 0.58648 0.0
H2671 H 0.8268 0.23303 0.57747 0.0
H2672 H 0.82516 0.24749 0.58646 0.0
H2673 H 0.83549 0.24248 0.54218 0.0
H2674 H 0.86388 0.25223 0.56243 0.0
H2675 H 0.86659 0.26732 0.50056 0.0
H2676 H 0.54591 0.11144 0.57108 0.0
H2677 H 0.53088 0.11426 0.50746 0.0
H2678 H 0.52354 0.07993 0.51276 0.0
H2679 H 0.53844 0.07705 0.57524 0.0
H2680 H 0.52446 0.08854 0.40848 0.0
H2681 H 0.49801 0.11311 0.54314 0.0
H2682 H 0.51172 0.11784 0.53306 0.0
H2683 H 0.50939 0.10528 0.56786 0.0
C2684 C 0.54104 0.10453 0.55879 0.0
C2685 C 0.54334 0.09403 0.57832 0.0
C2686 C 0.53247 0.10614 0.52255 0.0
C2687 C 0.52607 0.0973 0.50559 0.0
C2688 C 0.52839 0.08686 0.52514 0.0
H2689 H 0.46255 0.08674 0.39036 0.0
H2690 H 0.47991 0.08878 0.43659 0.0
C2691 C 0.5369 0.08524 0.5611 0.0
C2692 C 0.51686 0.09869 0.4678 0.0
H2693 H 0.49084 0.10833 0.4595 0.0
C2694 C 0.51716 0.093 0.41914 0.0
C2695 C 0.50734 0.10447 0.4821 0.0
C2696 C 0.50648 0.11048 0.53447 0.0
C2697 C 0.50802 0.09255 0.38539 0.0
C2698 C 0.49839 0.09806 0.40047 0.0
C2699 C 0.49825 0.10413 0.44804 0.0
C2700 C 0.48803 0.09673 0.37062 0.0
C2701 C 0.50855 0.08571 0.3354 0.0
C2702 C 0.48686 0.10042 0.31782 0.0
C2703 C 0.47688 0.09925 0.2911 0.0
C2704 C 0.46792 0.09445 0.31702 0.0
C2705 C 0.46923 0.09062 0.36955 0.0
C2706 C 0.47915 0.09176 0.39603 0.0
H2707 H 0.51594 0.0805 0.33429 0.0
H2708 H 0.50125 0.08042 0.33219 0.0
H2709 H 0.5087 0.09114 0.29996 0.0
H2710 H 0.49357 0.1044 0.29767 0.0
H2711 H 0.47609 0.10239 0.2509 0.0
H2712 H 0.64472 0.70816 0.11077 0.0
H2713 H 0.64671 0.72432 0.16658 0.0
H2714 H 0.66523 0.74 0.04204 0.0
H2715 H 0.66303 0.72379 0.98521 0.0
H2716 H 0.66491 0.73509 0.20445 0.0
H2717 H 0.6401 0.76153 0.0713 0.0
H2718 H 0.64044 0.74689 0.06466 0.0
H2719 H 0.65153 0.75499 0.03999 0.0
C2720 C 0.64925 0.71504 0.09532 0.0
C2721 C 0.6536 0.71479 0.04343 0.0
C2722 C 0.6504 0.72425 0.12729 0.0
C2723 C 0.65591 0.73343 0.10802 0.0
C2724 C 0.66075 0.73305 0.05718 0.0
H2725 H 0.67701 0.78841 0.29216 0.0
H2726 H 0.67511 0.77239 0.23595 0.0
C2727 C 0.65962 0.72377 0.02507 0.0
C2728 C 0.65634 0.74338 0.14136 0.0
H2729 H 0.64804 0.76993 0.1471 0.0
C2730 C 0.66124 0.74271 0.19189 0.0
C2731 C 0.65133 0.75324 0.1253 0.0
C2732 C 0.64546 0.75424 0.07258 0.0
C2733 C 0.66142 0.75169 0.22647 0.0
C2734 C 0.65672 0.76164 0.20975 0.0
C2735 C 0.65165 0.76228 0.15965 0.0
C2736 C 0.65758 0.7716 0.2427 0.0
C2737 C 0.66658 0.75043 0.28086 0.0
C2738 C 0.64827 0.77666 0.26403 0.0
C2739 C 0.64932 0.78593 0.29642 0.0
C2740 C 0.65967 0.79025 0.30743 0.0
C2741 C 0.6689 0.78525 0.28491 0.0
C2742 C 0.66786 0.77606 0.25282 0.0
H2743 H 0.66715 0.74174 0.29297 0.0
H2744 H 0.67496 0.75381 0.27978 0.0
H2745 H 0.6619 0.75494 0.31167 0.0
H2746 H 0.64025 0.77334 0.25627 0.0
H2747 H 0.64207 0.78963 0.31308 0.0
H2748 H 0.03519 0.88499 0.83749 0.0
H2749 H 0.01827 0.88583 0.88785 0.0
H2750 H 0.00892 0.91477 0.80143 0.0
H2751 H 0.02579 0.91368 0.74886 0.0
H2752 H 0.01012 0.901 0.95343 0.0
H2753 H 0.98247 0.89541 0.77998 0.0
H2754 H 0.99699 0.89333 0.77545 0.0
H2755 H 0.99145 0.90689 0.77429 0.0
C2756 C 0.02951 0.8915 0.82879 0.0
C2757 C 0.03174 0.89916 0.78846 0.0
C2758 C 0.01986 0.892 0.8579 0.0
C2759 C 0.0122 0.9002 0.84759 0.0
C2760 C 0.01459 0.90819 0.80907 0.0
H2761 H 0.95364 0.91901 0.00754 0.0
H2762 H 0.96893 0.9167 0.94623 0.0
C2763 C 0.02429 0.90766 0.7796 0.0
C2764 C 0.0018 0.90027 0.87776 0.0
H2765 H 0.97412 0.89898 0.86378 0.0
C2766 C 0.00226 0.9005 0.9338 0.0
C2767 C 0.99154 0.89953 0.85208 0.0
C2768 C 0.99054 0.89867 0.79217 0.0
C2769 C 0.99275 0.90019 0.9648 0.0
C2770 C 0.98252 0.89957 0.93912 0.0
C2771 C 0.98202 0.89935 0.88318 0.0
C2772 C 0.97229 0.90012 0.97005 0.0
C2773 C 0.99366 0.90078 0.02484 0.0
C2774 C 0.96888 0.89138 0.00227 0.0
C2775 C 0.96002 0.89264 0.03709 0.0
C2776 C 0.95463 0.90269 0.04036 0.0
C2777 C 0.95771 0.91119 0.00592 0.0
C2778 C 0.96642 0.90989 0.97083 0.0
H2779 H 0.00211 0.90249 0.03825 0.0
H2780 H 0.9882 0.90723 0.0407 0.0
H2781 H 0.99104 0.89291 0.04243 0.0
H2782 H 0.97334 0.88376 0.00197 0.0
H2783 H 0.95784 0.88601 0.06357 0.0
H2784 H 0.64728 0.77732 0.47959 0.0
H2785 H 0.64125 0.76046 0.52296 0.0
H2786 H 0.66199 0.76742 0.65761 0.0
H2787 H 0.66818 0.78407 0.61455 0.0
H2788 H 0.65375 0.74258 0.55699 0.0
H2789 H 0.6324 0.76142 0.72798 0.0
H2790 H 0.63592 0.76896 0.66845 0.0
H2791 H 0.64593 0.76669 0.71983 0.0
C2792 C 0.65061 0.77524 0.51826 0.0
C2793 C 0.65816 0.78216 0.5437 0.0
C2794 C 0.64709 0.76564 0.54317 0.0
C2795 C 0.65096 0.76283 0.5941 0.0
C2796 C 0.65863 0.76959 0.61903 0.0
H2797 H 0.66617 0.70819 0.76896 0.0
H2798 H 0.66359 0.72308 0.70642 0.0
C2799 C 0.66218 0.77913 0.59422 0.0
C2800 C 0.64751 0.75258 0.62069 0.0
H2801 H 0.63835 0.74279 0.74021 0.0
C2802 C 0.65014 0.74261 0.59653 0.0
C2803 C 0.64262 0.75259 0.67187 0.0
C2804 C 0.63894 0.76299 0.69833 0.0
C2805 C 0.64885 0.73273 0.62406 0.0
C2806 C 0.64492 0.73284 0.67719 0.0
C2807 C 0.64144 0.74271 0.69964 0.0
C2808 C 0.64602 0.72321 0.71254 0.0
C2809 C 0.65213 0.72227 0.59687 0.0
C2810 C 0.63698 0.71837 0.73754 0.0
C2811 C 0.63843 0.70973 0.77371 0.0
C2812 C 0.64897 0.706 0.78601 0.0
C2813 C 0.65794 0.71087 0.76056 0.0
C2814 C 0.65648 0.71934 0.72433 0.0
H2815 H 0.65146 0.72298 0.55275 0.0
H2816 H 0.66075 0.72043 0.60668 0.0
H2817 H 0.64702 0.71534 0.61051 0.0
H2818 H 0.62883 0.72134 0.72938 0.0
H2819 H 0.63138 0.70616 0.79292 0.0
H2820 H 0.54427 0.38669 0.04374 0.0
H2821 H 0.52918 0.38674 0.97888 0.0
H2822 H 0.53301 0.42141 0.95808 0.0
H2823 H 0.54782 0.42143 0.02267 0.0
H2824 H 0.51222 0.41541 0.98717 0.0
H2825 H 0.5269 0.39086 0.81522 0.0
H2826 H 0.52841 0.38455 0.87961 0.0
H2827 H 0.53602 0.39664 0.8643 0.0
C2828 C 0.54203 0.39424 0.02429 0.0
C2829 C 0.54713 0.40406 0.03853 0.0
C2830 C 0.53344 0.39427 0.98721 0.0
C2831 C 0.53 0.40409 0.9636 0.0
C2832 C 0.53551 0.41376 0.97586 0.0
H2833 H 0.47811 0.41382 0.72567 0.0
H2834 H 0.49564 0.41494 0.77357 0.0
C2835 C 0.54397 0.41374 0.01289 0.0
C2836 C 0.51997 0.40466 0.93074 0.0
H2837 H 0.50813 0.39575 0.81529 0.0
C2838 C 0.51136 0.41116 0.94942 0.0
C2839 C 0.51891 0.39921 0.88129 0.0
C2840 C 0.52807 0.39249 0.85849 0.0
C2841 C 0.50164 0.41217 0.92056 0.0
C2842 C 0.50043 0.40644 0.87202 0.0
C2843 C 0.50911 0.40014 0.85257 0.0
C2844 C 0.4899 0.40626 0.84332 0.0
C2845 C 0.49268 0.41933 0.94235 0.0
C2846 C 0.48094 0.40111 0.86699 0.0
C2847 C 0.47104 0.4005 0.83998 0.0
C2848 C 0.46988 0.405 0.78869 0.0
C2849 C 0.47878 0.4104 0.76538 0.0
C2850 C 0.48878 0.41094 0.79242 0.0
H2851 H 0.49583 0.42524 0.97222 0.0
H2852 H 0.48859 0.42389 0.90973 0.0
H2853 H 0.48649 0.41415 0.96228 0.0
H2854 H 0.48166 0.39739 0.90607 0.0
H2855 H 0.46429 0.39636 0.85895 0.0
H2856 H 0.87039 0.293 0.27789 0.0
H2857 H 0.87212 0.27872 0.20925 0.0
H2858 H 0.83716 0.27815 0.19157 0.0
H2859 H 0.83544 0.29234 0.25819 0.0
H2860 H 0.86427 0.25848 0.21777 0.0
H2861 H 0.84603 0.27673 0.03824 0.0
H2862 H 0.85035 0.28489 0.09442 0.0
H2863 H 0.83702 0.27871 0.09362 0.0
C2864 C 0.86314 0.28999 0.2582 0.0
C2865 C 0.85279 0.29375 0.2735 0.0
C2866 C 0.86412 0.28184 0.21913 0.0
C2867 C 0.85477 0.27749 0.19446 0.0
C2868 C 0.84451 0.28156 0.20866 0.0
H2869 H 0.835 0.2141 0.1238 0.0
H2870 H 0.84063 0.23181 0.15841 0.0
C2871 C 0.84354 0.28962 0.24742 0.0
C2872 C 0.85537 0.26778 0.15921 0.0
H2873 H 0.84357 0.25694 0.0477 0.0
C2874 C 0.86 0.25821 0.17986 0.0
C2875 C 0.84999 0.26741 0.10918 0.0
C2876 C 0.84569 0.27754 0.08241 0.0
C2877 C 0.85855 0.24815 0.15426 0.0
C2878 C 0.85207 0.24761 0.10754 0.0
C2879 C 0.84829 0.2573 0.08427 0.0
C2880 C 0.84838 0.23704 0.08511 0.0
C2881 C 0.86372 0.23815 0.17848 0.0
C2882 C 0.85034 0.23431 0.0315 0.0
C2883 C 0.84699 0.22419 0.01139 0.0
C2884 C 0.84161 0.21668 0.04463 0.0
C2885 C 0.83931 0.21964 0.0976 0.0
C2886 C 0.84258 0.22973 0.11749 0.0
H2887 H 0.87124 0.24029 0.2009 0.0
H2888 H 0.85794 0.23439 0.20712 0.0
H2889 H 0.86581 0.23204 0.14746 0.0
H2890 H 0.85468 0.23988 0.00561 0.0
H2891 H 0.84894 0.22211 0.9705 0.0
H2892 H 0.96135 0.57847 0.58319 0.0
H2893 H 0.97646 0.58078 0.52127 0.0
H2894 H 0.96832 0.61477 0.50329 0.0
H2895 H 0.9532 0.61255 0.56661 0.0
H2896 H 0.97564 0.58686 0.41694 0.0
H2897 H 0.00084 0.61597 0.53337 0.0
H2898 H 0.98962 0.60857 0.56253 0.0
H2899 H 0.98709 0.62041 0.52208 0.0
C2900 C 0.9628 0.58648 0.56646 0.0
C2901 C 0.9561 0.59535 0.57984 0.0
C2902 C 0.97145 0.58777 0.53096 0.0
C2903 C 0.97359 0.59795 0.50798 0.0
C2904 C 0.96694 0.60687 0.52136 0.0
H2905 H 0.02017 0.61993 0.27381 0.0
H2906 H 0.00465 0.61754 0.33329 0.0
C2907 C 0.95829 0.6056 0.55734 0.0
C2908 C 0.98259 0.59901 0.46883 0.0
H2909 H 0.00659 0.61216 0.44495 0.0
C2910 C 0.98243 0.59237 0.42313 0.0
C2911 C 0.99145 0.60617 0.47711 0.0
C2912 C 0.99236 0.61312 0.52664 0.0
C2913 C 0.99083 0.59279 0.38515 0.0
C2914 C 0.99964 0.59998 0.39335 0.0
C2915 C 0.9998 0.60665 0.4389 0.0
C2916 C 0.00868 0.60096 0.35454 0.0
C2917 C 0.99013 0.5857 0.33606 0.0
C2918 C 0.01602 0.59235 0.34625 0.0
C2919 C 0.025 0.59372 0.31236 0.0
C2920 C 0.02678 0.60374 0.28664 0.0
C2921 C 0.01917 0.61219 0.29385 0.0
C2922 C 0.01026 0.61083 0.32763 0.0
H2923 H 0.98186 0.5822 0.33063 0.0
H2924 H 0.99231 0.59043 0.29977 0.0
H2925 H 0.99601 0.57888 0.33985 0.0
H2926 H 0.01499 0.5847 0.3672 0.0
H2927 H 0.03076 0.5871 0.30794 0.0
H2928 H 0.64481 0.21458 0.90982 0.0
H2929 H 0.64724 0.2301 0.84934 0.0
H2930 H 0.66054 0.24895 0.97956 0.0
H2931 H 0.65863 0.23312 0.03899 0.0
H2932 H 0.6377 0.2488 0.85223 0.0
H2933 H 0.68208 0.25626 0.8675 0.0
H2934 H 0.67579 0.24415 0.89412 0.0
H2935 H 0.67548 0.25672 0.93128 0.0
C2936 C 0.64853 0.22198 0.92477 0.0
C2937 C 0.65172 0.2227 0.9784 0.0
C2938 C 0.64984 0.23085 0.89053 0.0
C2939 C 0.65417 0.24071 0.90959 0.0
C2940 C 0.65747 0.24138 0.96336 0.0
H2941 H 0.64425 0.30183 0.72999 0.0
H2942 H 0.64202 0.28671 0.79353 0.0
C2943 C 0.65638 0.23238 0.99734 0.0
C2944 C 0.65464 0.25036 0.87367 0.0
H2945 H 0.6716 0.26994 0.82442 0.0
C2946 C 0.64514 0.25339 0.84592 0.0
C2947 C 0.66434 0.25633 0.86514 0.0
C2948 C 0.67502 0.25314 0.89066 0.0
C2949 C 0.64511 0.26208 0.80939 0.0
C2950 C 0.65474 0.26821 0.80189 0.0
C2951 C 0.66418 0.26529 0.83033 0.0
C2952 C 0.65552 0.27724 0.76242 0.0
C2953 C 0.63486 0.26429 0.77787 0.0
C2954 C 0.66389 0.27706 0.72431 0.0
C2955 C 0.66532 0.28576 0.68934 0.0
C2956 C 0.6583 0.29478 0.69089 0.0
C2957 C 0.64968 0.29488 0.72763 0.0
C2958 C 0.64839 0.28623 0.76374 0.0
H2959 H 0.62942 0.25707 0.77693 0.0
H2960 H 0.63032 0.27106 0.79696 0.0
H2961 H 0.63678 0.26666 0.73613 0.0
H2962 H 0.66946 0.27023 0.72215 0.0
H2963 H 0.67203 0.28547 0.66125 0.0
H2964 H 0.96408 0.42215 0.92866 0.0
H2965 H 0.9784 0.42052 0.99528 0.0
H2966 H 0.97 0.38679 0.02008 0.0
H2967 H 0.9555 0.38835 0.95244 0.0
H2968 H 0.97603 0.41433 0.10505 0.0
H2969 H 0.00341 0.38673 0.99011 0.0
H2970 H 0.99258 0.39428 0.95833 0.0
H2971 H 0.98944 0.38266 0.99891 0.0
C2972 C 0.96527 0.41434 0.94795 0.0
C2973 C 0.95866 0.40536 0.93512 0.0
C2974 C 0.97344 0.41345 0.98627 0.0
C2975 C 0.97526 0.40355 0.01265 0.0
C2976 C 0.96877 0.39449 0.99985 0.0
H2977 H 0.0251 0.40467 0.27057 0.0
H2978 H 0.00746 0.40133 0.2267 0.0
C2979 C 0.96051 0.39539 0.96123 0.0
C2980 C 0.9841 0.40296 0.05294 0.0
H2981 H 0.0102 0.39405 0.06992 0.0
C2982 C 0.98343 0.40973 0.09809 0.0
C2983 C 0.99374 0.397 0.04343 0.0
C2984 C 0.99495 0.38978 0.99502 0.0
C2985 C 0.99236 0.41111 0.13256 0.0
C2986 C 0.00216 0.4055 0.12168 0.0
C2987 C 0.00264 0.39831 0.07812 0.0
C2988 C 0.01241 0.40801 0.15049 0.0
C2989 C 0.9915 0.41903 0.17838 0.0
C2990 C 0.02093 0.41301 0.12249 0.0
C2991 C 0.0309 0.41493 0.14731 0.0
C2992 C 0.03263 0.41187 0.20073 0.0
C2993 C 0.02396 0.40721 0.22955 0.0
C2994 C 0.01392 0.40526 0.20448 0.0
H2995 H 0.98372 0.42366 0.17767 0.0
H2996 H 0.99199 0.41452 0.2167 0.0
H2997 H 0.99838 0.4249 0.17728 0.0
H2998 H 0.01991 0.41529 0.08098 0.0
H2999 H 0.03737 0.41868 0.12435 0.0
H3000 H 0.86049 0.71034 0.17396 0.0
H3001 H 0.86375 0.72563 0.23582 0.0
H3002 H 0.82964 0.72609 0.27642 0.0
H3003 H 0.82631 0.71107 0.21532 0.0
H3004 H 0.85214 0.74705 0.23254 0.0
H3005 H 0.84612 0.72469 0.42295 0.0
H3006 H 0.84962 0.71794 0.36114 0.0
H3007 H 0.83587 0.7223 0.37306 0.0
C3008 C 0.85372 0.71371 0.19622 0.0
C3009 C 0.84316 0.70951 0.18972 0.0
C3010 C 0.85559 0.72241 0.23151 0.0
C3011 C 0.84695 0.72684 0.26124 0.0
C3012 C 0.83644 0.72266 0.25457 0.0
H3013 H 0.83253 0.77993 0.47676 0.0
H3014 H 0.83269 0.76285 0.42512 0.0
C3015 C 0.83456 0.71411 0.21924 0.0
C3016 C 0.84861 0.7362 0.29763 0.0
H3017 H 0.84567 0.74409 0.42769 0.0
C3018 C 0.85091 0.74641 0.27532 0.0
C3019 C 0.84682 0.73531 0.35326 0.0
C3020 C 0.84455 0.72446 0.37926 0.0
C3021 C 0.85109 0.75585 0.30694 0.0
C3022 C 0.84919 0.75499 0.36263 0.0
C3023 C 0.84709 0.74473 0.38506 0.0
C3024 C 0.84933 0.7647 0.39794 0.0
C3025 C 0.85287 0.76671 0.27999 0.0
C3026 C 0.85873 0.77113 0.40148 0.0
C3027 C 0.8586 0.78083 0.4304 0.0
C3028 C 0.84912 0.78424 0.4571 0.0
C3029 C 0.83991 0.77747 0.45646 0.0
C3030 C 0.84001 0.76777 0.42691 0.0
H3031 H 0.85121 0.76628 0.23641 0.0
H3032 H 0.84759 0.77309 0.2977 0.0
H3033 H 0.86149 0.76921 0.28533 0.0
H3034 H 0.86611 0.76877 0.38086 0.0
H3035 H 0.8659 0.78578 0.4313 0.0
H3036 H 0.53442 0.57907 0.39691 0.0
H3037 H 0.51969 0.58094 0.46127 0.0
H3038 H 0.53387 0.61085 0.51901 0.0
H3039 H 0.54868 0.60911 0.45327 0.0
H3040 H 0.52187 0.58102 0.56959 0.0
H3041 H 0.50193 0.61911 0.50011 0.0
H3042 H 0.51158 0.61172 0.45958 0.0
H3043 H 0.51628 0.62029 0.51299 0.0
C3044 C 0.53436 0.58613 0.42286 0.0
C3045 C 0.54271 0.59395 0.4202 0.0
C3046 C 0.52594 0.58717 0.4597 0.0
C3047 C 0.52565 0.59603 0.4949 0.0
C3048 C 0.53384 0.60403 0.49164 0.0
H3049 H 0.48184 0.61193 0.75399 0.0
H3050 H 0.49729 0.61044 0.69319 0.0
C3051 C 0.54229 0.60303 0.45421 0.0
C3052 C 0.51701 0.59647 0.53631 0.0
H3053 H 0.49536 0.6114 0.58047 0.0
C3054 C 0.51607 0.58766 0.57196 0.0
C3055 C 0.50943 0.60512 0.53926 0.0
C3056 C 0.50975 0.61456 0.50071 0.0
C3057 C 0.50779 0.5873 0.61061 0.0
C3058 C 0.5002 0.59592 0.61335 0.0
C3059 C 0.50119 0.60478 0.57813 0.0
C3060 C 0.49125 0.59607 0.65306 0.0
C3061 C 0.50733 0.5778 0.64871 0.0
C3062 C 0.48281 0.58833 0.65139 0.0
C3063 C 0.4739 0.58919 0.68622 0.0
C3064 C 0.47329 0.59784 0.72278 0.0
C3065 C 0.48199 0.60528 0.72562 0.0
C3066 C 0.49084 0.60443 0.69102 0.0
H3067 H 0.51507 0.57311 0.64906 0.0
H3068 H 0.50556 0.58061 0.68995 0.0
H3069 H 0.50068 0.57222 0.63631 0.0
H3070 H 0.48291 0.58188 0.62191 0.0
H3071 H 0.46728 0.58341 0.68284 0.0
H3072 H 0.33028 0.28935 0.19243 0.0
H3073 H 0.33345 0.27477 0.25601 0.0
H3074 H 0.36798 0.281 0.25076 0.0
H3075 H 0.36486 0.2959 0.18629 0.0
H3076 H 0.36099 0.25802 0.24022 0.0
H3077 H 0.34265 0.27845 0.41545 0.0
H3078 H 0.33437 0.27946 0.35652 0.0
H3079 H 0.34755 0.28585 0.35784 0.0
C3080 C 0.33858 0.28769 0.20461 0.0
C3081 C 0.34733 0.29383 0.18436 0.0
C3082 C 0.34035 0.27938 0.24134 0.0
C3083 C 0.35091 0.27695 0.25888 0.0
C3084 C 0.35975 0.28286 0.23809 0.0
H3085 H 0.352 0.22569 0.5072 0.0
H3086 H 0.35671 0.24272 0.46122 0.0
C3087 C 0.35796 0.29132 0.20127 0.0
C3088 C 0.35243 0.26791 0.29738 0.0
H3089 H 0.34284 0.25877 0.4173 0.0
C3090 C 0.35728 0.25824 0.27951 0.0
C3091 C 0.34769 0.26826 0.34886 0.0
C3092 C 0.34286 0.2786 0.3711 0.0
C3093 C 0.35674 0.24866 0.31012 0.0
C3094 C 0.3511 0.24877 0.35942 0.0
C3095 C 0.34704 0.25866 0.3792 0.0
C3096 C 0.34832 0.23856 0.38802 0.0
C3097 C 0.36189 0.23842 0.28855 0.0
C3098 C 0.34176 0.23076 0.36278 0.0
C3099 C 0.33895 0.22114 0.389 0.0
C3100 C 0.34264 0.21906 0.44123 0.0
C3101 C 0.34897 0.22704 0.46714 0.0
C3102 C 0.35175 0.23673 0.44078 0.0
H3103 H 0.36865 0.24032 0.2606 0.0
H3104 H 0.36508 0.23322 0.32132 0.0
H3105 H 0.35568 0.2337 0.26617 0.0
H3106 H 0.33873 0.23216 0.3227 0.0
H3107 H 0.33386 0.21533 0.36826 0.0
H3108 H 0.45898 0.61236 0.94463 0.0
H3109 H 0.47421 0.61151 0.00847 0.0
H3110 H 0.46378 0.57954 0.05822 0.0
H3111 H 0.44883 0.58024 0.9939 0.0
H3112 H 0.47729 0.60676 0.12172 0.0
H3113 H 0.49379 0.57467 0.98769 0.0
H3114 H 0.48254 0.5833 0.96881 0.0
H3115 H 0.48039 0.57198 0.01308 0.0
C3116 C 0.45977 0.60533 0.97049 0.0
C3117 C 0.45286 0.59632 0.96418 0.0
C3118 C 0.46847 0.60483 0.00673 0.0
C3119 C 0.47023 0.59536 0.03712 0.0
C3120 C 0.46267 0.58683 0.03441 0.0
H3121 H 0.52454 0.58589 0.26335 0.0
H3122 H 0.50611 0.58614 0.22483 0.0
C3123 C 0.45413 0.58726 0.99783 0.0
C3124 C 0.48058 0.59377 0.06639 0.0
H3125 H 0.50376 0.57841 0.06591 0.0
C3126 C 0.48307 0.60054 0.10982 0.0
C3127 C 0.48815 0.58572 0.05021 0.0
C3128 C 0.48617 0.57855 0.00213 0.0
C3129 C 0.49299 0.59948 0.13749 0.0
C3130 C 0.50049 0.59134 0.12155 0.0
C3131 C 0.49793 0.58454 0.07842 0.0
C3132 C 0.51151 0.59045 0.14527 0.0
C3133 C 0.49554 0.6073 0.18224 0.0
C3134 C 0.52062 0.5923 0.11283 0.0
C3135 C 0.53107 0.59202 0.13445 0.0
C3136 C 0.53265 0.58986 0.18899 0.0
C3137 C 0.52356 0.58751 0.22113 0.0
C3138 C 0.51304 0.58781 0.19937 0.0
H3139 H 0.48983 0.61432 0.18294 0.0
H3140 H 0.49489 0.60297 0.221 0.0
H3141 H 0.50399 0.61044 0.17853 0.0
H3142 H 0.51963 0.59424 0.07088 0.0
H3143 H 0.53794 0.59372 0.10868 0.0
H3144 H 0.13637 0.70734 0.7002 0.0
H3145 H 0.13362 0.7221 0.76569 0.0
H3146 H 0.16741 0.73113 0.75074 0.0
H3147 H 0.17021 0.71664 0.68622 0.0
H3148 H 0.15919 0.72789 0.86019 0.0
H3149 H 0.13437 0.75613 0.73499 0.0
H3150 H 0.13056 0.74198 0.73939 0.0
H3151 H 0.14281 0.74572 0.7052 0.0
C3152 C 0.14315 0.71257 0.71057 0.0
C3153 C 0.15351 0.71082 0.68811 0.0
C3154 C 0.14158 0.72096 0.74798 0.0
C3155 C 0.15034 0.72766 0.76312 0.0
C3156 C 0.16057 0.72601 0.73989 0.0
H3157 H 0.16744 0.7885 0.87837 0.0
H3158 H 0.16287 0.77148 0.8337 0.0
C3159 C 0.16214 0.71772 0.70281 0.0
C3160 C 0.14918 0.73642 0.80334 0.0
H3161 H 0.14137 0.76297 0.81551 0.0
C3162 C 0.15507 0.73549 0.85123 0.0
C3163 C 0.14385 0.74631 0.79115 0.0
C3164 C 0.13754 0.74771 0.7399 0.0
C3165 C 0.15632 0.74442 0.88579 0.0
C3166 C 0.15148 0.75449 0.87214 0.0
C3167 C 0.14505 0.75522 0.82583 0.0
C3168 C 0.15421 0.76467 0.90104 0.0
C3169 C 0.16342 0.74324 0.93465 0.0
C3170 C 0.15097 0.76643 0.95414 0.0
C3171 C 0.15359 0.77623 0.97996 0.0
C3172 C 0.15942 0.78441 0.95286 0.0
C3173 C 0.1628 0.78246 0.90008 0.0
C3174 C 0.1602 0.77273 0.87448 0.0
H3175 H 0.16763 0.73523 0.93606 0.0
H3176 H 0.16965 0.7498 0.93568 0.0
H3177 H 0.15833 0.74404 0.97104 0.0
H3178 H 0.14627 0.76034 0.97522 0.0
H3179 H 0.15077 0.77754 0.0204 0.0
H3180 H 0.96425 0.3872 0.66225 0.0
H3181 H 0.9816 0.38546 0.61531 0.0
H3182 H 0.9922 0.41602 0.68273 0.0
H3183 H 0.97487 0.41758 0.73116 0.0
H3184 H 0.98855 0.39847 0.53971 0.0
H3185 H 0.01932 0.39827 0.70115 0.0
H3186 H 0.00499 0.39636 0.71409 0.0
H3187 H 0.01047 0.40985 0.70544 0.0
C3188 C 0.97037 0.39346 0.66766 0.0
C3189 C 0.96824 0.40255 0.70006 0.0
C3190 C 0.98028 0.39245 0.64092 0.0
C3191 C 0.98828 0.40056 0.64567 0.0
C3192 C 0.98629 0.40952 0.67937 0.0
H3193 H 0.04067 0.42356 0.45926 0.0
H3194 H 0.02575 0.41979 0.52048 0.0
C3195 C 0.97639 0.41044 0.70686 0.0
C3196 C 0.99816 0.4001 0.61137 0.0
H3197 H 0.0259 0.4023 0.61267 0.0
C3198 C 0.99672 0.3991 0.55585 0.0
C3199 C 0.00884 0.40089 0.63229 0.0
C3200 C 0.01101 0.40129 0.69156 0.0
C3201 C 0.00561 0.39933 0.52071 0.0
C3202 C 0.01622 0.40059 0.54152 0.0
C3203 C 0.01773 0.40129 0.59696 0.0
C3204 C 0.02564 0.40245 0.5059 0.0
C3205 C 0.00363 0.3987 0.46132 0.0
C3206 C 0.03055 0.39389 0.47752 0.0
C3207 C 0.03919 0.396 0.44232 0.0
C3208 C 0.04291 0.40673 0.43484 0.0
C3209 C 0.03797 0.41522 0.46375 0.0
C3210 C 0.02946 0.41309 0.49903 0.0
H3211 H 0.99483 0.39815 0.45138 0.0
H3212 H 0.0071 0.40599 0.44137 0.0
H3213 H 0.00783 0.39144 0.44476 0.0
H3214 H 0.02766 0.38561 0.48241 0.0
H3215 H 0.04286 0.38931 0.42065 0.0
H3216 H 0.35047 0.79139 0.12152 0.0
H3217 H 0.34877 0.77489 0.17505 0.0
H3218 H 0.33199 0.75905 0.04507 0.0
H3219 H 0.33402 0.7756 0.99041 0.0
H3220 H 0.33196 0.7629 0.21053 0.0
H3221 H 0.35755 0.73857 0.07184 0.0
H3222 H 0.35623 0.75316 0.0664 0.0
H3223 H 0.34559 0.74442 0.04207 0.0
C3224 C 0.34633 0.78442 0.10451 0.0
C3225 C 0.34251 0.78471 0.05162 0.0
C3226 C 0.34534 0.775 0.13515 0.0
C3227 C 0.3405 0.76564 0.11364 0.0
C3228 C 0.336 0.76611 0.06198 0.0
H3229 H 0.32407 0.70918 0.3024 0.0
H3230 H 0.32423 0.72543 0.24715 0.0
C3231 C 0.33701 0.77559 0.03109 0.0
C3232 C 0.34057 0.75542 0.14529 0.0
H3233 H 0.35034 0.72934 0.14687 0.0
C3234 C 0.33594 0.75555 0.19651 0.0
C3235 C 0.34602 0.74592 0.12749 0.0
C3236 C 0.35173 0.74548 0.07417 0.0
C3237 C 0.33652 0.74645 0.23025 0.0
C3238 C 0.34165 0.73683 0.2118 0.0
C3239 C 0.34638 0.73671 0.1608 0.0
C3240 C 0.34179 0.72672 0.24423 0.0
C3241 C 0.33183 0.74731 0.28582 0.0
C3242 C 0.35165 0.72178 0.25953 0.0
C3243 C 0.3516 0.71232 0.29103 0.0
C3244 C 0.34169 0.7077 0.30748 0.0
C3245 C 0.33187 0.71259 0.29111 0.0
C3246 C 0.33193 0.72194 0.25961 0.0
H3247 H 0.33129 0.75592 0.29921 0.0
H3248 H 0.32348 0.74388 0.28593 0.0
H3249 H 0.33682 0.7427 0.31512 0.0
H3250 H 0.35936 0.72532 0.24765 0.0
H3251 H 0.35928 0.70869 0.30277 0.0
H3252 H 0.0424 0.62277 0.05249 0.0
H3253 H 0.02719 0.62557 0.9896 0.0
H3254 H 0.02561 0.59092 0.96226 0.0
H3255 H 0.04068 0.58812 0.02357 0.0
H3256 H 0.02283 0.6031 0.86919 0.0
H3257 H 0.99596 0.61733 0.03449 0.0
H3258 H 0.00834 0.62477 0.02267 0.0
H3259 H 0.00899 0.61105 0.04714 0.0
C3260 C 0.0389 0.61581 0.0322 0.0
C3261 C 0.04263 0.60523 0.04336 0.0
C3262 C 0.03019 0.6174 0.99664 0.0
C3263 C 0.02517 0.60842 0.97187 0.0
C3264 C 0.02933 0.59796 0.98093 0.0
H3265 H 0.96315 0.58705 0.88394 0.0
H3266 H 0.98052 0.59255 0.92282 0.0
C3267 C 0.03793 0.59638 0.01628 0.0
C3268 C 0.01509 0.6095 0.93958 0.0
H3269 H 0.98766 0.61318 0.95295 0.0
C3270 C 0.01515 0.60553 0.88697 0.0
C3271 C 0.00508 0.61257 0.96321 0.0
C3272 C 0.00448 0.61662 0.02005 0.0
C3273 C 0.00542 0.60395 0.85843 0.0
C3274 C 0.99538 0.6066 0.88293 0.0
C3275 C 0.99537 0.61116 0.93435 0.0
C3276 C 0.98477 0.60356 0.85864 0.0
C3277 C 0.00592 0.5988 0.80376 0.0
C3278 C 0.98136 0.60795 0.80964 0.0
C3279 C 0.9714 0.60478 0.78717 0.0
C3280 C 0.96464 0.59724 0.8136 0.0
C3281 C 0.96808 0.59295 0.86284 0.0
C3282 C 0.97803 0.59608 0.88507 0.0
H3283 H 0.01413 0.59548 0.79467 0.0
H3284 H 0.99987 0.59211 0.80036 0.0
H3285 H 0.00392 0.60502 0.7731 0.0
H3286 H 0.98635 0.61388 0.78898 0.0
H3287 H 0.96891 0.60838 0.74965 0.0
H3288 H 0.13477 0.29544 0.79831 0.0
H3289 H 0.13307 0.27957 0.73833 0.0
H3290 H 0.16782 0.27476 0.74507 0.0
H3291 H 0.16961 0.29037 0.80394 0.0
H3292 H 0.14595 0.27521 0.63326 0.0
H3293 H 0.15269 0.24536 0.79697 0.0
H3294 H 0.14782 0.25903 0.80894 0.0
H3295 H 0.16196 0.25669 0.795 0.0
C3296 C 0.14203 0.29102 0.78662 0.0
C3297 C 0.1523 0.29412 0.80616 0.0
C3298 C 0.14105 0.28199 0.75245 0.0
C3299 C 0.15033 0.27597 0.73789 0.0
C3300 C 0.16057 0.27924 0.75631 0.0
H3301 H 0.1632 0.22624 0.49688 0.0
H3302 H 0.16405 0.24243 0.55486 0.0
C3303 C 0.16155 0.28819 0.79001 0.0
C3304 C 0.14952 0.26607 0.70446 0.0
H3305 H 0.15361 0.23858 0.7084 0.0
C3306 C 0.14752 0.26718 0.64959 0.0
C3307 C 0.1516 0.25564 0.72608 0.0
C3308 C 0.15357 0.25403 0.78505 0.0
C3309 C 0.14775 0.25809 0.61546 0.0
C3310 C 0.15016 0.24769 0.63688 0.0
C3311 C 0.15192 0.24659 0.69198 0.0
C3312 C 0.15023 0.23774 0.60336 0.0
C3313 C 0.1453 0.25965 0.55692 0.0
C3314 C 0.14248 0.2296 0.61284 0.0
C3315 C 0.14204 0.22041 0.58023 0.0
C3316 C 0.14938 0.21912 0.5376 0.0
C3317 C 0.15747 0.22703 0.52953 0.0
C3318 C 0.15788 0.23631 0.56216 0.0
H3319 H 0.14147 0.26768 0.54883 0.0
H3320 H 0.153 0.25918 0.53388 0.0
H3321 H 0.1398 0.25313 0.54215 0.0
H3322 H 0.13659 0.23048 0.64474 0.0
H3323 H 0.13583 0.21435 0.58785 0.0
H3324 H 0.52604 0.41518 0.25562 0.0
H3325 H 0.50957 0.41616 0.31149 0.0
H3326 H 0.52029 0.38784 0.39895 0.0
H3327 H 0.53674 0.38707 0.34489 0.0
H3328 H 0.49373 0.40018 0.31893 0.0
H3329 H 0.51147 0.40796 0.51865 0.0
H3330 H 0.51912 0.40982 0.45781 0.0
H3331 H 0.51756 0.39645 0.48629 0.0
C3332 C 0.52498 0.40937 0.28772 0.0
C3333 C 0.53263 0.40103 0.29577 0.0
C3334 C 0.51555 0.40987 0.31928 0.0
C3335 C 0.51374 0.40212 0.3597 0.0
C3336 C 0.52158 0.39402 0.36873 0.0
H3337 H 0.46004 0.38627 0.57591 0.0
H3338 H 0.47589 0.38454 0.51598 0.0
C3339 C 0.53093 0.39353 0.3374 0.0
C3340 C 0.5034 0.40193 0.39026 0.0
H3341 H 0.49307 0.40164 0.51692 0.0
C3342 C 0.49358 0.40059 0.36219 0.0
C3343 C 0.50321 0.40236 0.44676 0.0
C3344 C 0.5134 0.40433 0.47911 0.0
C3345 C 0.4836 0.39954 0.38917 0.0
C3346 C 0.48346 0.39986 0.44557 0.0
C3347 C 0.49325 0.40119 0.47366 0.0
C3348 C 0.47315 0.39995 0.47616 0.0
C3349 C 0.47329 0.398 0.3573 0.0
C3350 C 0.46634 0.40907 0.4728 0.0
C3351 C 0.45745 0.41009 0.50696 0.0
C3352 C 0.45514 0.40198 0.54489 0.0
C3353 C 0.46159 0.39255 0.54647 0.0
C3354 C 0.47065 0.3916 0.5126 0.0
H3355 H 0.47502 0.39532 0.31578 0.0
H3356 H 0.46789 0.39193 0.37669 0.0
H3357 H 0.46883 0.40586 0.35537 0.0
H3358 H 0.46821 0.41566 0.44553 0.0
H3359 H 0.45259 0.41746 0.50509 0.0
H3360 H 0.15941 0.15624 0.18414 0.0
H3361 H 0.14781 0.14442 0.12925 0.0
H3362 H 0.13092 0.13369 0.27077 0.0
H3363 H 0.14236 0.14559 0.32545 0.0
H3364 H 0.14355 0.12239 0.12771 0.0
H3365 H 0.10616 0.1453 0.18029 0.0
H3366 H 0.11962 0.15027 0.19574 0.0
H3367 H 0.11326 0.14021 0.2377 0.0
C3368 C 0.15333 0.15123 0.20353 0.0
C3369 C 0.1517 0.15192 0.259 0.0
C3370 C 0.14667 0.14453 0.17214 0.0
C3371 C 0.1383 0.13839 0.19575 0.0
C3372 C 0.13709 0.1386 0.25147 0.0
H3373 H 0.08854 0.09369 0.08681 0.0
H3374 H 0.10165 0.10453 0.13797 0.0
C3375 C 0.14366 0.14536 0.2827 0.0
C3376 C 0.13065 0.13196 0.16225 0.0
H3377 H 0.10362 0.12854 0.13418 0.0
C3378 C 0.13483 0.12378 0.12883 0.0
C3379 C 0.11926 0.13384 0.16346 0.0
C3380 C 0.11431 0.14295 0.19579 0.0
C3381 C 0.12789 0.11723 0.09778 0.0
C3382 C 0.11651 0.11896 0.10003 0.0
C3383 C 0.11235 0.1272 0.13292 0.0
C3384 C 0.10876 0.11227 0.06868 0.0
C3385 C 0.13272 0.10834 0.06362 0.0
C3386 C 0.10835 0.11314 0.01285 0.0
C3387 C 0.10084 0.10699 0.98356 0.0
C3388 C 0.09362 0.09984 0.00958 0.0
C3389 C 0.09406 0.09902 0.06557 0.0
C3390 C 0.10151 0.10524 0.09485 0.0
H3391 H 0.1414 0.10678 0.07358 0.0
H3392 H 0.12806 0.10065 0.06844 0.0
H3393 H 0.13223 0.11078 0.02101 0.0
H3394 H 0.11379 0.11862 0.99199 0.0
H3395 H 0.10078 0.10773 0.94048 0.0
H3396 H 0.09439 0.90949 0.43657 0.0
H3397 H 0.10598 0.89792 0.3804 0.0
H3398 H 0.11733 0.88095 0.52065 0.0
H3399 H 0.10566 0.89236 0.57663 0.0
H3400 H 0.12798 0.89371 0.37666 0.0
H3401 H 0.10529 0.85629 0.43033 0.0
H3402 H 0.10037 0.86975 0.44636 0.0
H3403 H 0.11052 0.86333 0.48762 0.0
C3404 C 0.09948 0.9034 0.45538 0.0
C3405 C 0.09904 0.90173 0.51089 0.0
C3406 C 0.10606 0.89676 0.42329 0.0
C3407 C 0.1123 0.88839 0.44623 0.0
C3408 C 0.11233 0.88714 0.50193 0.0
H3409 H 0.16506 0.85167 0.30451 0.0
H3410 H 0.1537 0.8644 0.35403 0.0
C3411 C 0.10571 0.89369 0.53388 0.0
C3412 C 0.11861 0.88077 0.41209 0.0
H3413 H 0.12208 0.85376 0.3844 0.0
C3414 C 0.12666 0.88498 0.37808 0.0
C3415 C 0.11672 0.8694 0.41314 0.0
C3416 C 0.10768 0.86442 0.44589 0.0
C3417 C 0.1331 0.87809 0.34631 0.0
C3418 C 0.1316 0.86666 0.34958 0.0
C3419 C 0.12333 0.8625 0.38242 0.0
C3420 C 0.13852 0.85887 0.3195 0.0
C3421 C 0.14133 0.88312 0.30903 0.0
C3422 C 0.13376 0.85121 0.28504 0.0
C3423 C 0.14023 0.84372 0.2574 0.0
C3424 C 0.15163 0.84371 0.26362 0.0
C3425 C 0.15634 0.85132 0.2988 0.0
C3426 C 0.14986 0.85876 0.32664 0.0
H3427 H 0.1392 0.89169 0.29921 0.0
H3428 H 0.14943 0.88316 0.32869 0.0
H3429 H 0.14199 0.87843 0.27127 0.0
H3430 H 0.12501 0.85106 0.27934 0.0
H3431 H 0.13625 0.83791 0.2315 0.0
H3432 H 0.35857 0.85142 0.79733 0.0
H3433 H 0.37037 0.86387 0.74791 0.0
H3434 H 0.36244 0.84721 0.60128 0.0
H3435 H 0.35045 0.83482 0.65065 0.0
H3436 H 0.38836 0.85907 0.69134 0.0
H3437 H 0.35786 0.87858 0.55882 0.0
H3438 H 0.35403 0.87041 0.61569 0.0
H3439 H 0.35794 0.86401 0.55398 0.0
C3440 C 0.35931 0.85045 0.7545 0.0
C3441 C 0.3536 0.84215 0.72779 0.0
C3442 C 0.36603 0.85758 0.72632 0.0
C3443 C 0.3672 0.85656 0.67083 0.0
C3444 C 0.36146 0.84832 0.64391 0.0
H3445 H 0.40902 0.88648 0.4361 0.0
H3446 H 0.39709 0.87452 0.48741 0.0
C3447 C 0.35464 0.84123 0.6721 0.0
C3448 C 0.37481 0.86383 0.64181 0.0
H3449 H 0.37652 0.88203 0.53896 0.0
C3450 C 0.38575 0.86415 0.65826 0.0
C3451 C 0.37139 0.87047 0.59873 0.0
C3452 C 0.35964 0.87095 0.58104 0.0
C3453 C 0.39339 0.87077 0.63219 0.0
C3454 C 0.38999 0.87726 0.58874 0.0
C3455 C 0.37907 0.87699 0.5723 0.0
C3456 C 0.39768 0.88428 0.55918 0.0
C3457 C 0.4051 0.87065 0.65049 0.0
C3458 C 0.40199 0.8937 0.58281 0.0
C3459 C 0.40885 0.90057 0.55357 0.0
C3460 C 0.41153 0.89809 0.50036 0.0
C3461 C 0.4073 0.88854 0.47726 0.0
C3462 C 0.4004 0.88173 0.50633 0.0
H3463 H 0.40676 0.86391 0.67895 0.0
H3464 H 0.41066 0.86985 0.61575 0.0
H3465 H 0.407 0.87848 0.67066 0.0
H3466 H 0.3999 0.89583 0.62351 0.0
H3467 H 0.412 0.90786 0.57239 0.0
H3468 H 0.42094 0.12251 0.02021 0.0
H3469 H 0.40963 0.13512 0.96877 0.0
H3470 H 0.39116 0.10812 0.90639 0.0
H3471 H 0.40223 0.09547 0.95832 0.0
H3472 H 0.3978 0.1243 0.82837 0.0
H3473 H 0.37718 0.14206 0.00604 0.0
H3474 H 0.39183 0.14191 0.00754 0.0
H3475 H 0.38446 0.12929 0.00862 0.0
C3476 C 0.41444 0.11923 0.99588 0.0
C3477 C 0.41248 0.10793 0.9939 0.0
C3478 C 0.408 0.12646 0.96638 0.0
C3479 C 0.3995 0.12255 0.9343 0.0
C3480 C 0.3977 0.1113 0.93098 0.0
H3481 H 0.34301 0.15292 0.7967 0.0
H3482 H 0.35617 0.14217 0.84713 0.0
C3483 C 0.40409 0.10406 0.96057 0.0
C3484 C 0.39232 0.13016 0.90476 0.0
H3485 H 0.37261 0.14948 0.92201 0.0
C3486 C 0.39234 0.12986 0.84874 0.0
C3487 C 0.38513 0.1373 0.9316 0.0
C3488 C 0.38453 0.13766 0.99177 0.0
C3489 C 0.38533 0.13653 0.81876 0.0
C3490 C 0.37818 0.14371 0.84561 0.0
C3491 C 0.37817 0.14401 0.90162 0.0
C3492 C 0.37028 0.1506 0.81624 0.0
C3493 C 0.3854 0.13564 0.75866 0.0
C3494 C 0.37385 0.15905 0.78285 0.0
C3495 C 0.36632 0.16531 0.75422 0.0
C3496 C 0.35507 0.16324 0.75841 0.0
C3497 C 0.35156 0.15487 0.79278 0.0
C3498 C 0.35909 0.14866 0.82151 0.0
H3499 H 0.38988 0.12831 0.74471 0.0
H3500 H 0.37695 0.13532 0.74286 0.0
H3501 H 0.38942 0.14294 0.74153 0.0
H3502 H 0.38246 0.16079 0.77895 0.0
H3503 H 0.36935 0.17179 0.729 0.0
H3504 H 0.90625 0.91248 0.93958 0.0
H3505 H 0.89387 0.90112 0.88669 0.0
H3506 H 0.88504 0.88325 0.02847 0.0
H3507 H 0.89718 0.8947 0.0816 0.0
H3508 H 0.89599 0.8784 0.87719 0.0
H3509 H 0.85545 0.88939 0.9587 0.0
H3510 H 0.86736 0.8978 0.96822 0.0
H3511 H 0.86534 0.88588 0.00872 0.0
C3512 C 0.90147 0.90631 0.95967 0.0
C3513 C 0.90272 0.90447 0.01477 0.0
C3514 C 0.89445 0.89978 0.92937 0.0
C3515 C 0.88846 0.8914 0.95373 0.0
C3516 C 0.88944 0.88977 0.00896 0.0
H3517 H 0.84895 0.83691 0.84943 0.0
H3518 H 0.85891 0.85078 0.9001 0.0
C3519 C 0.89648 0.89625 0.03918 0.0
C3520 C 0.88189 0.88377 0.92097 0.0
H3521 H 0.85629 0.87339 0.90487 0.0
C3522 C 0.88728 0.87738 0.8828 0.0
C3523 C 0.87057 0.88239 0.92879 0.0
C3524 C 0.8643 0.88929 0.96799 0.0
C3525 C 0.88171 0.86944 0.85311 0.0
C3526 C 0.87039 0.86802 0.86103 0.0
C3527 C 0.86497 0.87448 0.89893 0.0
C3528 C 0.86405 0.85984 0.8304 0.0
C3529 C 0.88808 0.86241 0.81475 0.0
C3530 C 0.86345 0.86046 0.77454 0.0
C3531 C 0.8578 0.85255 0.74557 0.0
C3532 C 0.85252 0.84391 0.77187 0.0
C3533 C 0.85288 0.84348 0.82798 0.0
C3534 C 0.85859 0.85138 0.85696 0.0
H3535 H 0.89694 0.86252 0.82378 0.0
H3536 H 0.88519 0.85385 0.81587 0.0
H3537 H 0.88695 0.86555 0.77356 0.0
H3538 H 0.86736 0.86707 0.75329 0.0
H3539 H 0.85747 0.85327 0.70251 0.0
H3540 H 0.85747 0.14909 0.81817 0.0
H3541 H 0.86924 0.13693 0.76613 0.0
H3542 H 0.85327 0.14721 0.62129 0.0
H3543 H 0.84155 0.15944 0.67291 0.0
H3544 H 0.86154 0.11951 0.68982 0.0
H3545 H 0.88713 0.15183 0.59768 0.0
H3546 H 0.8795 0.154 0.65843 0.0
H3547 H 0.87263 0.15384 0.59519 0.0
C3548 C 0.85655 0.14884 0.7752 0.0
C3549 C 0.84861 0.15526 0.7496 0.0
C3550 C 0.86321 0.14184 0.74562 0.0
C3551 C 0.86215 0.14124 0.68994 0.0
C3552 C 0.85425 0.14763 0.66424 0.0
H3553 H 0.89672 0.10882 0.43493 0.0
H3554 H 0.88428 0.11965 0.48964 0.0
C3555 C 0.84752 0.15455 0.6938 0.0
C3556 C 0.86924 0.1339 0.65855 0.0
H3557 H 0.88977 0.13386 0.56687 0.0
C3558 C 0.86775 0.1226 0.66305 0.0
C3559 C 0.87728 0.13801 0.62365 0.0
C3560 C 0.87934 0.15008 0.61847 0.0
C3561 C 0.87397 0.11528 0.63249 0.0
C3562 C 0.88205 0.11939 0.59755 0.0
C3563 C 0.88356 0.13071 0.59352 0.0
C3564 C 0.88902 0.11217 0.56441 0.0
C3565 C 0.87159 0.10326 0.63678 0.0
C3566 C 0.89576 0.10429 0.58813 0.0
C3567 C 0.90283 0.09803 0.5568 0.0
C3568 C 0.90341 0.09967 0.5013 0.0
C3569 C 0.89653 0.10745 0.47763 0.0
C3570 C 0.88941 0.11363 0.50884 0.0
H3571 H 0.8633 0.10173 0.65281 0.0
H3572 H 0.87233 0.09919 0.59735 0.0
H3573 H 0.87754 0.09946 0.66452 0.0
H3574 H 0.89581 0.1032 0.63104 0.0
H3575 H 0.90816 0.09223 0.57625 0.0
H3576 H 0.59307 0.08696 0.43325 0.0
H3577 H 0.60506 0.09809 0.37722 0.0
H3578 H 0.60523 0.1232 0.49749 0.0
H3579 H 0.59347 0.11214 0.55394 0.0
H3580 H 0.60131 0.1308 0.39212 0.0
H3581 H 0.63788 0.10419 0.40463 0.0
H3582 H 0.62548 0.09761 0.38419 0.0
H3583 H 0.6266 0.10305 0.45051 0.0
C3584 C 0.59571 0.09482 0.44795 0.0
C3585 C 0.59225 0.09863 0.49818 0.0
C3586 C 0.60257 0.10116 0.41588 0.0
C3587 C 0.60612 0.11141 0.43353 0.0
C3588 C 0.60258 0.11531 0.48317 0.0
H3589 H 0.65695 0.15477 0.3224 0.0
H3590 H 0.64571 0.14177 0.37212 0.0
C3591 C 0.59576 0.10898 0.51524 0.0
C3592 C 0.6134 0.11822 0.40018 0.0
H3593 H 0.63907 0.11958 0.34794 0.0
C3594 C 0.60955 0.12834 0.38229 0.0
C3595 C 0.6242 0.11503 0.38807 0.0
C3596 C 0.62887 0.10442 0.40811 0.0
C3597 C 0.61618 0.13535 0.3523 0.0
C3598 C 0.62692 0.13209 0.3394 0.0
C3599 C 0.63081 0.122 0.35759 0.0
C3600 C 0.63424 0.13918 0.30777 0.0
C3601 C 0.61173 0.14629 0.33556 0.0
C3602 C 0.63168 0.14176 0.25469 0.0
C3603 C 0.6381 0.14913 0.22617 0.0
C3604 C 0.64722 0.15406 0.25015 0.0
C3605 C 0.65003 0.15109 0.30266 0.0
C3606 C 0.64359 0.1437 0.33119 0.0
H3607 H 0.60432 0.14853 0.35848 0.0
H3608 H 0.61794 0.15277 0.34107 0.0
H3609 H 0.60954 0.14601 0.29259 0.0
H3610 H 0.62462 0.13819 0.23557 0.0
H3611 H 0.63585 0.15103 0.18543 0.0
H3612 H 0.66016 0.85258 0.21687 0.0
H3613 H 0.64663 0.86349 0.1694 0.0
H3614 H 0.62305 0.83774 0.18792 0.0
H3615 H 0.63656 0.82678 0.23585 0.0
H3616 H 0.63524 0.8597 0.07758 0.0
H3617 H 0.60681 0.86372 0.24894 0.0
H3618 H 0.6205 0.85859 0.25639 0.0
H3619 H 0.60991 0.84991 0.2309 0.0
C3620 C 0.65215 0.84916 0.21031 0.0
C3621 C 0.64944 0.83881 0.2304 0.0
C3622 C 0.64439 0.85544 0.18343 0.0
C3623 C 0.63376 0.85153 0.17604 0.0
C3624 C 0.63112 0.84105 0.19443 0.0
H3625 H 0.57816 0.88022 0.00922 0.0
H3626 H 0.59032 0.86793 0.05846 0.0
C3627 C 0.63886 0.83478 0.22162 0.0
C3628 C 0.62552 0.85845 0.14887 0.0
H3629 H 0.60091 0.87103 0.16621 0.0
C3630 C 0.62774 0.86218 0.097 0.0
C3631 C 0.61573 0.86169 0.17428 0.0
C3632 C 0.61311 0.85836 0.23087 0.0
C3633 C 0.62045 0.86903 0.06983 0.0
C3634 C 0.61072 0.87231 0.09536 0.0
C3635 C 0.60839 0.86847 0.14685 0.0
C3636 C 0.60301 0.87993 0.06932 0.0
C3637 C 0.62315 0.87267 0.01383 0.0
C3638 C 0.60602 0.8908 0.06055 0.0
C3639 C 0.5991 0.89783 0.03267 0.0
C3640 C 0.58904 0.89411 0.01285 0.0
C3641 C 0.58589 0.8833 0.02348 0.0
C3642 C 0.5928 0.87628 0.05171 0.0
H3643 H 0.62978 0.86771 0.99592 0.0
H3644 H 0.61586 0.87218 0.98771 0.0
H3645 H 0.62586 0.8813 0.01479 0.0
H3646 H 0.61384 0.89378 0.0743 0.0
H3647 H 0.60185 0.90604 0.02476 0.0
H3648 H 0.58237 0.6107 0.49533 0.0
H3649 H 0.59456 0.62237 0.5474 0.0
H3650 H 0.61812 0.59638 0.55549 0.0
H3651 H 0.60603 0.5847 0.50276 0.0
H3652 H 0.60411 0.61791 0.65299 0.0
H3653 H 0.63486 0.62326 0.4918 0.0
H3654 H 0.62112 0.61875 0.4785 0.0
H3655 H 0.63084 0.60951 0.50704 0.0
C3656 C 0.59016 0.60748 0.50807 0.0
C3657 C 0.59326 0.5968 0.49469 0.0
C3658 C 0.59708 0.61414 0.53798 0.0
C3659 C 0.60728 0.61027 0.55463 0.0
C3660 C 0.61033 0.59954 0.54241 0.0
H3661 H 0.66058 0.6429 0.7213 0.0
H3662 H 0.64935 0.62987 0.67154 0.0
C3663 C 0.60337 0.59285 0.51276 0.0
C3664 C 0.61471 0.61752 0.58465 0.0
H3665 H 0.63863 0.63155 0.57471 0.0
C3666 C 0.61167 0.62089 0.636 0.0
C3667 C 0.62458 0.62132 0.56233 0.0
C3668 C 0.62807 0.61812 0.50675 0.0
C3669 C 0.61826 0.62797 0.66585 0.0
C3670 C 0.62802 0.632 0.64307 0.0
C3671 C 0.63114 0.62848 0.59198 0.0
C3672 C 0.63495 0.64004 0.67127 0.0
C3673 C 0.61478 0.63095 0.72178 0.0
C3674 C 0.63068 0.65019 0.68622 0.0
C3675 C 0.63706 0.65761 0.71458 0.0
C3676 C 0.64789 0.6551 0.72805 0.0
C3677 C 0.65229 0.6451 0.71125 0.0
C3678 C 0.64587 0.63763 0.68308 0.0
H3679 H 0.60906 0.62484 0.73862 0.0
H3680 H 0.62192 0.63165 0.74884 0.0
H3681 H 0.61054 0.63893 0.7209 0.0
H3682 H 0.62238 0.65235 0.67615 0.0
H3683 H 0.63351 0.66534 0.72597 0.0
H3684 H 0.63835 0.34097 0.73019 0.0
H3685 H 0.6274 0.3541 0.77993 0.0
H3686 H 0.65657 0.36791 0.84773 0.0
H3687 H 0.66762 0.35495 0.79751 0.0
H3688 H 0.64023 0.36309 0.92309 0.0
H3689 H 0.6239 0.38715 0.75327 0.0
H3690 H 0.62206 0.37269 0.74696 0.0
H3691 H 0.63558 0.37829 0.74697 0.0
C3692 C 0.64248 0.34687 0.75502 0.0
C3693 C 0.65391 0.34686 0.75964 0.0
C3694 C 0.63619 0.3544 0.78343 0.0
C3695 C 0.64119 0.36208 0.81691 0.0
C3696 C 0.65256 0.36207 0.82191 0.0
H3697 H 0.60779 0.41555 0.98421 0.0
H3698 H 0.62066 0.40527 0.92854 0.0
C3699 C 0.65886 0.35458 0.79342 0.0
C3700 C 0.63452 0.36978 0.84867 0.0
H3701 H 0.61559 0.39009 0.83825 0.0
C3702 C 0.63491 0.36906 0.90456 0.0
C3703 C 0.62769 0.37764 0.8244 0.0
C3704 C 0.62732 0.3791 0.76461 0.0
C3705 C 0.62836 0.37572 0.93681 0.0
C3706 C 0.62119 0.38324 0.91249 0.0
C3707 C 0.62107 0.38426 0.85669 0.0
C3708 C 0.6133 0.38961 0.94446 0.0
C3709 C 0.62907 0.37459 0.99672 0.0
C3710 C 0.60481 0.38422 0.97075 0.0
C3711 C 0.59743 0.39003 0.00202 0.0
C3712 C 0.59838 0.4014 0.00794 0.0
C3713 C 0.60679 0.40682 0.9805 0.0
C3714 C 0.61417 0.40097 0.94885 0.0
H3715 H 0.63669 0.37042 0.00927 0.0
H3716 H 0.62869 0.3827 0.01634 0.0
H3717 H 0.62207 0.36969 0.01113 0.0
H3718 H 0.60388 0.37547 0.96699 0.0
H3719 H 0.59092 0.38556 0.0211 0.0
H3720 H 0.91524 0.38577 0.98912 0.0
H3721 H 0.90238 0.37526 0.04247 0.0
H3722 H 0.88662 0.40489 0.09278 0.0
H3723 H 0.89927 0.41553 0.03839 0.0
H3724 H 0.89171 0.38929 0.17715 0.0
H3725 H 0.86935 0.37086 0.0068 0.0
H3726 H 0.88393 0.36971 0.00323 0.0
H3727 H 0.87767 0.38291 0.99991 0.0
C3728 C 0.90899 0.3901 0.01091 0.0
C3729 C 0.90829 0.40155 0.00884 0.0
C3730 C 0.90165 0.38406 0.04153 0.0
C3731 C 0.89346 0.3893 0.07086 0.0
C3732 C 0.89286 0.4007 0.07013 0.0
H3733 H 0.83985 0.35451 0.22906 0.0
H3734 H 0.85011 0.36794 0.17703 0.0
C3735 C 0.90017 0.40677 0.03924 0.0
C3736 C 0.88566 0.38283 0.10293 0.0
H3737 H 0.86601 0.36325 0.0928 0.0
C3738 C 0.88601 0.38367 0.15877 0.0
C3739 C 0.87815 0.37562 0.07875 0.0
C3740 C 0.87714 0.37475 0.01885 0.0
C3741 C 0.87935 0.37714 0.19119 0.0
C3742 C 0.87221 0.36955 0.16703 0.0
C3743 C 0.87153 0.36904 0.11117 0.0
C3744 C 0.86592 0.36161 0.1991 0.0
C3745 C 0.88007 0.37829 0.25105 0.0
C3746 C 0.87141 0.35353 0.22801 0.0
C3747 C 0.86561 0.34578 0.25716 0.0
C3748 C 0.85413 0.34594 0.25827 0.0
C3749 C 0.84865 0.35406 0.22898 0.0
C3750 C 0.85449 0.36179 0.19942 0.0
H3751 H 0.88378 0.38619 0.26283 0.0
H3752 H 0.87189 0.37763 0.26963 0.0
H3753 H 0.88524 0.37165 0.26731 0.0
H3754 H 0.88023 0.35312 0.22735 0.0
H3755 H 0.87018 0.33957 0.27789 0.0
H3756 H 0.90713 0.59163 0.43064 0.0
H3757 H 0.89635 0.60377 0.37368 0.0
H3758 H 0.8982 0.62889 0.49356 0.0
H3759 H 0.90873 0.61685 0.5509 0.0
H3760 H 0.8761 0.61325 0.40043 0.0
H3761 H 0.90707 0.64483 0.35553 0.0
H3762 H 0.91061 0.63149 0.38064 0.0
H3763 H 0.9057 0.64183 0.42542 0.0
C3764 C 0.90528 0.59974 0.44485 0.0
C3765 C 0.90889 0.60324 0.49538 0.0
C3766 C 0.89916 0.60668 0.41213 0.0
C3767 C 0.89662 0.61728 0.42909 0.0
C3768 C 0.90028 0.62083 0.47915 0.0
H3769 H 0.84428 0.66023 0.33697 0.0
H3770 H 0.85696 0.64794 0.3823 0.0
C3771 C 0.90635 0.61391 0.5119 0.0
C3772 C 0.88958 0.62443 0.39615 0.0
H3773 H 0.88858 0.64937 0.33582 0.0
C3774 C 0.87885 0.62111 0.38587 0.0
C3775 C 0.89322 0.63463 0.37686 0.0
C3776 C 0.90481 0.63839 0.38467 0.0
C3777 C 0.87155 0.62787 0.35823 0.0
C3778 C 0.87505 0.63827 0.34099 0.0
C3779 C 0.88589 0.64144 0.3497 0.0
C3780 C 0.86756 0.64596 0.31399 0.0
C3781 C 0.86015 0.62383 0.34758 0.0
C3782 C 0.86948 0.64914 0.26105 0.0
C3783 C 0.86223 0.65614 0.23497 0.0
C3784 C 0.85296 0.66017 0.26154 0.0
C3785 C 0.85123 0.65716 0.31508 0.0
C3786 C 0.85847 0.65014 0.34105 0.0
H3787 H 0.85956 0.61484 0.3516 0.0
H3788 H 0.85449 0.62756 0.37689 0.0
H3789 H 0.85741 0.62619 0.3069 0.0
H3790 H 0.87646 0.64601 0.23953 0.0
H3791 H 0.86376 0.65814 0.19357 0.0
H3792 H 0.33589 0.35326 0.29109 0.0
H3793 H 0.34653 0.36647 0.34211 0.0
H3794 H 0.37623 0.35159 0.28653 0.0
H3795 H 0.36569 0.33824 0.23606 0.0
H3796 H 0.36201 0.36267 0.42315 0.0
H3797 H 0.38036 0.3841 0.25013 0.0
H3798 H 0.36869 0.37524 0.24377 0.0
H3799 H 0.38216 0.36958 0.24893 0.0
C3800 C 0.34468 0.3527 0.28999 0.0
C3801 C 0.3499 0.34467 0.2591 0.0
C3802 C 0.35075 0.36032 0.31894 0.0
C3803 C 0.36216 0.36013 0.3173 0.0
C3804 C 0.36742 0.35204 0.2873 0.0
H3805 H 0.41043 0.38577 0.52795 0.0
H3806 H 0.39755 0.37507 0.4762 0.0
C3807 C 0.36137 0.3444 0.25845 0.0
C3808 C 0.3686 0.36818 0.34821 0.0
H3809 H 0.38801 0.38796 0.33575 0.0
C3810 C 0.36762 0.36827 0.40404 0.0
C3811 C 0.3758 0.37559 0.32313 0.0
C3812 C 0.37677 0.37623 0.26315 0.0
C3813 C 0.37397 0.37527 0.4356 0.0
C3814 C 0.38156 0.38229 0.41068 0.0
C3815 C 0.38224 0.38251 0.35475 0.0
C3816 C 0.38928 0.38898 0.44221 0.0
C3817 C 0.37256 0.37505 0.49545 0.0
C3818 C 0.38907 0.4004 0.43938 0.0
C3819 C 0.39643 0.40662 0.46945 0.0
C3820 C 0.40417 0.40152 0.50256 0.0
C3821 C 0.40444 0.39005 0.50424 0.0
C3822 C 0.39708 0.38387 0.47445 0.0
H3823 H 0.36457 0.37152 0.50708 0.0
H3824 H 0.37906 0.36995 0.51338 0.0
H3825 H 0.37322 0.38337 0.51254 0.0
H3826 H 0.38314 0.40449 0.41438 0.0
H3827 H 0.39595 0.41541 0.46729 0.0
H3828 H 0.33396 0.65137 0.17154 0.0
H3829 H 0.34353 0.63772 0.11783 0.0
H3830 H 0.37305 0.64397 0.20593 0.0
H3831 H 0.36363 0.65763 0.25925 0.0
H3832 H 0.36151 0.64036 0.05283 0.0
H3833 H 0.37057 0.61084 0.21409 0.0
H3834 H 0.3607 0.62164 0.22166 0.0
H3835 H 0.375 0.6244 0.22971 0.0
C3836 C 0.3425 0.64987 0.17935 0.0
C3837 C 0.34798 0.65557 0.22007 0.0
C3838 C 0.34794 0.64202 0.14884 0.0
C3839 C 0.35894 0.63966 0.15864 0.0
C3840 C 0.36448 0.64543 0.19869 0.0
H3841 H 0.4095 0.61475 0.96324 0.0
H3842 H 0.39614 0.6251 0.01356 0.0
C3843 C 0.35906 0.65327 0.22917 0.0
C3844 C 0.36484 0.63157 0.12547 0.0
H3845 H 0.38085 0.60885 0.13311 0.0
C3846 C 0.36562 0.63339 0.07028 0.0
C3847 C 0.37005 0.62237 0.1481 0.0
C3848 C 0.36896 0.61961 0.20657 0.0
C3849 C 0.37193 0.62658 0.03757 0.0
C3850 C 0.37772 0.61781 0.06079 0.0
C3851 C 0.3765 0.61565 0.11548 0.0
C3852 C 0.38568 0.61132 0.02968 0.0
C3853 C 0.37246 0.62893 0.97847 0.0
C3854 C 0.38441 0.60003 0.02313 0.0
C3855 C 0.39207 0.59403 0.99386 0.0
C3856 C 0.40117 0.59921 0.97099 0.0
C3857 C 0.40248 0.61049 0.97875 0.0
C3858 C 0.39484 0.61646 0.00775 0.0
H3859 H 0.36527 0.63366 0.96481 0.0
H3860 H 0.37985 0.63383 0.96992 0.0
H3861 H 0.37295 0.62127 0.95497 0.0
H3862 H 0.37743 0.5959 0.04019 0.0
H3863 H 0.3908 0.58537 0.98861 0.0
H3864 H 0.10089 0.6129 0.07648 0.0
H3865 H 0.11325 0.62374 0.02112 0.0
H3866 H 0.10297 0.60593 0.88159 0.0
H3867 H 0.09049 0.59511 0.9367 0.0
H3868 H 0.13064 0.6163 0.94571 0.0
H3869 H 0.09659 0.63923 0.85088 0.0
H3870 H 0.09496 0.63188 0.91287 0.0
H3871 H 0.09566 0.6246 0.85088 0.0
C3872 C 0.10129 0.61127 0.03404 0.0
C3873 C 0.09466 0.60322 0.01086 0.0
C3874 C 0.10838 0.61742 0.00257 0.0
C3875 C 0.1089 0.6157 0.94731 0.0
C3876 C 0.10259 0.60742 0.92418 0.0
H3877 H 0.14043 0.6533 0.69662 0.0
H3878 H 0.12959 0.64017 0.74722 0.0
C3879 C 0.09554 0.6012 0.95574 0.0
C3880 C 0.11576 0.62287 0.9138 0.0
H3881 H 0.11436 0.64357 0.82305 0.0
C3882 C 0.12711 0.62225 0.91872 0.0
C3883 C 0.11109 0.63059 0.87868 0.0
C3884 C 0.09891 0.63172 0.87299 0.0
C3885 C 0.13397 0.62912 0.88906 0.0
C3886 C 0.1293 0.63702 0.85473 0.0
C3887 C 0.11793 0.63753 0.84945 0.0
C3888 C 0.13603 0.6449 0.82426 0.0
C3889 C 0.14614 0.62772 0.89412 0.0
C3890 C 0.14315 0.65204 0.85078 0.0
C3891 C 0.14937 0.65954 0.82191 0.0
C3892 C 0.14847 0.66016 0.76603 0.0
C3893 C 0.14121 0.65312 0.73967 0.0
C3894 C 0.13506 0.64557 0.7685 0.0
H3895 H 0.1483 0.61944 0.90866 0.0
H3896 H 0.15028 0.62913 0.85531 0.0
H3897 H 0.14932 0.6337 0.92343 0.0
H3898 H 0.14381 0.6519 0.8939 0.0
H3899 H 0.15477 0.66497 0.84337 0.0
H3900 H 0.13341 0.33778 0.76827 0.0
H3901 H 0.12252 0.34995 0.71301 0.0
H3902 H 0.15159 0.36693 0.66424 0.0
H3903 H 0.16262 0.3548 0.72032 0.0
H3904 H 0.12108 0.37274 0.72188 0.0
H3905 H 0.13595 0.35988 0.52186 0.0
H3906 H 0.1381 0.35181 0.58125 0.0
H3907 H 0.1463 0.36365 0.56918 0.0
C3908 C 0.13753 0.34414 0.74624 0.0
C3909 C 0.14891 0.34535 0.74918 0.0
C3910 C 0.13128 0.35105 0.71433 0.0
C3911 C 0.13625 0.35929 0.68424 0.0
C3912 C 0.14761 0.36051 0.68652 0.0
H3913 H 0.10184 0.41449 0.54467 0.0
H3914 H 0.11418 0.40281 0.59541 0.0
C3915 C 0.1539 0.35357 0.71858 0.0
C3916 C 0.12939 0.36678 0.65209 0.0
H3917 H 0.12356 0.37464 0.52434 0.0
C3918 C 0.12164 0.37319 0.6787 0.0
C3919 C 0.13007 0.36724 0.59575 0.0
C3920 C 0.13798 0.36023 0.56507 0.0
C3921 C 0.11454 0.38007 0.65051 0.0
C3922 C 0.11531 0.38065 0.59423 0.0
C3923 C 0.12304 0.37422 0.56753 0.0
C3924 C 0.108 0.38775 0.56242 0.0
C3925 C 0.1061 0.38647 0.68107 0.0
C3926 C 0.10058 0.38317 0.52624 0.0
C3927 C 0.09345 0.38982 0.49728 0.0
C3928 C 0.09366 0.40121 0.50373 0.0
C3929 C 0.10127 0.40576 0.53945 0.0
C3930 C 0.10837 0.3991 0.5684 0.0
H3931 H 0.10495 0.38326 0.72218 0.0
H3932 H 0.10877 0.39508 0.68422 0.0
H3933 H 0.09814 0.38632 0.66004 0.0
H3934 H 0.10018 0.37442 0.52106 0.0
H3935 H 0.08767 0.38601 0.47059 0.0
loop_
_geom_bond_atom_site_label_1
_geom_bond_atom_site_label_2
_geom_bond_distance
_geom_bond_site_symmetry_2
_ccdc_geom_bond_type
Co0 N4 2.148 . S
Co0 N10 2.128 . S
Co0 N20 2.194 . S
Co0 O25 2.351 . S
Co0 O26 2.155 . S
Co0 O27 2.096 . S
C1 N4 1.301 . S
C1 N5 1.328 . S
C1 H6 0.930 . S
C2 C3 1.333 . S
C2 N4 1.317 . S
C2 H7 0.930 . S
C3 C2 1.333 . S
C3 N5 1.350 . S
C3 H29 0.931 . S
N4 Co0 2.148 . S
N4 C1 1.301 . S
N4 C2 1.317 . S
N5 C1 1.328 . S
N5 C3 1.350 . S
H6 C1 0.930 . S
H7 C2 0.930 . S
C8 O9 1.224 . S
C8 O27 1.247 . S
O9 C8 1.224 . S
N10 Co0 2.128 . S
N10 C11 1.355 . S
N10 C13 1.311 . S
C11 N10 1.355 . S
C11 C12 1.363 . S
C11 H23 0.929 . S
C12 C11 1.363 . S
C12 N14 1.375 . S
C12 H30 0.931 . S
C13 N10 1.311 . S
C13 N14 1.347 . S
C13 H24 0.929 . S
N14 C12 1.375 . S
N14 C13 1.347 . S
C15 C18 1.365 . S
C15 N20 1.328 . S
C15 H21 0.929 . S
C16 C17 1.362 . S
C16 C19 1.378 . S
C16 H31 0.929 . S
C17 C16 1.362 . S
C17 C18 1.366 . S
C18 C15 1.365 . S
C18 C17 1.366 . S
C18 H32 0.930 . S
C19 C16 1.378 . S
C19 N20 1.315 . S
C19 H22 0.930 . S
N20 Co0 2.194 . S
N20 C15 1.328 . S
N20 C19 1.315 . S
H21 C15 0.929 . S
H22 C19 0.930 . S
H23 C11 0.929 . S
H24 C13 0.929 . S
O25 Co0 2.351 . S
O25 C28 1.244 . S
O26 Co0 2.155 . S
O26 C28 1.240 . S
O27 Co0 2.096 . S
O27 C8 1.247 . S
C28 O25 1.244 . S
C28 O26 1.240 . S
H29 C3 0.931 . S
H30 C12 0.931 . S
H31 C16 0.929 . S
H32 C18 0.930 . S
Co33 N37 2.148 . S
Co33 N43 2.128 . S
Co33 N53 2.194 . S
Co33 O58 2.351 . S
Co33 O59 2.155 . S
Co33 O60 2.096 . S
C34 N37 1.301 . S
C34 N38 1.328 . S
C34 H39 0.930 . S
C35 C36 1.333 . S
C35 N37 1.317 . S
C35 H40 0.930 . S
C36 C35 1.333 . S
C36 N38 1.350 . S
C36 H62 0.931 . S
N37 Co33 2.148 . S
N37 C34 1.301 . S
N37 C35 1.317 . S
N38 C34 1.328 . S
N38 C36 1.350 . S
H39 C34 0.930 . S
H40 C35 0.930 . S
C41 O42 1.224 . S
C41 O60 1.247 . S
O42 C41 1.224 . S
N43 Co33 2.128 . S
N43 C44 1.355 . S
N43 C46 1.311 . S
C44 N43 1.355 . S
C44 C45 1.363 . S
C44 H56 0.929 . S
C45 C44 1.363 . S
C45 N47 1.375 . S
C45 H63 0.931 . S
C46 N43 1.311 . S
C46 N47 1.347 . S
C46 H57 0.929 . S
N47 C45 1.375 . S
N47 C46 1.347 . S
C48 C51 1.365 . S
C48 N53 1.328 . S
C48 H54 0.929 . S
C49 C50 1.362 . S
C49 C52 1.378 . S
C49 H64 0.929 . S
C50 C49 1.362 . S
C50 C51 1.366 . S
C51 C48 1.365 . S
C51 C50 1.366 . S
C51 H65 0.930 . S
C52 C49 1.378 . S
C52 N53 1.315 . S
C52 H55 0.930 . S
N53 Co33 2.194 . S
N53 C48 1.328 . S
N53 C52 1.315 . S
H54 C48 0.929 . S
H55 C52 0.930 . S
H56 C44 0.929 . S
H57 C46 0.929 . S
O58 Co33 2.351 . S
O58 C61 1.244 . S
O59 Co33 2.155 . S
O59 C61 1.240 . S
O60 Co33 2.096 . S
O60 C41 1.247 . S
C61 O58 1.244 . S
C61 O59 1.240 . S
H62 C36 0.931 . S
H63 C45 0.931 . S
H64 C49 0.929 . S
H65 C51 0.930 . S
Co66 N70 2.148 1_556 S
Co66 N76 2.128 . S
Co66 N86 2.194 . S
Co66 O91 2.351 . S
Co66 O92 2.155 . S
Co66 O93 2.096 . S
C67 N70 1.301 . S
C67 N71 1.328 . S
C67 H72 0.930 . S
C68 C69 1.333 . S
C68 N70 1.317 . S
C68 H73 0.930 . S
C69 C68 1.333 . S
C69 N71 1.350 . S
C69 H95 0.931 . S
N70 Co66 2.148 1_554 S
N70 C67 1.301 . S
N70 C68 1.317 . S
N71 C67 1.328 . S
N71 C69 1.350 . S
H72 C67 0.930 . S
H73 C68 0.930 . S
C74 O75 1.224 . S
C74 O93 1.247 1_554 S
O75 C74 1.224 . S
N76 Co66 2.128 . S
N76 C77 1.355 . S
N76 C79 1.311 . S
C77 N76 1.355 . S
C77 C78 1.363 . S
C77 H89 0.929 . S
C78 C77 1.363 . S
C78 N80 1.375 . S
C78 H96 0.931 . S
C79 N76 1.311 . S
C79 N80 1.347 . S
C79 H90 0.929 . S
N80 C78 1.375 . S
N80 C79 1.347 . S
C81 C84 1.365 . S
C81 N86 1.328 . S
C81 H87 0.929 . S
C82 C83 1.370 . S
C82 C85 1.380 . S
C82 H97 0.919 1_556 S
C83 C82 1.370 . S
C83 C84 1.366 . S
C84 C81 1.365 . S
C84 C83 1.366 . S
C84 H98 0.930 . S
C85 C82 1.380 . S
C85 N86 1.315 . S
C85 H88 0.930 1_556 S
N86 Co66 2.194 . S
N86 C81 1.328 . S
N86 C85 1.315 . S
H87 C81 0.929 . S
H88 C85 0.930 1_554 S
H89 C77 0.929 . S
H90 C79 0.929 . S
O91 Co66 2.351 . S
O91 C94 1.244 . S
O92 Co66 2.155 . S
O92 C94 1.240 . S
O93 Co66 2.096 . S
O93 C74 1.247 1_556 S
C94 O91 1.244 . S
C94 O92 1.240 . S
H95 C69 0.931 . S
H96 C78 0.931 . S
H97 C82 0.919 1_554 S
H98 C84 0.930 . S
Co99 N103 2.148 . S
Co99 N109 2.128 . S
Co99 N119 2.194 . S
Co99 O124 2.351 . S
Co99 O125 2.155 . S
Co99 O126 2.096 . S
C100 N103 1.301 . S
C100 N104 1.328 . S
C100 H105 0.930 . S
C101 C102 1.333 . S
C101 N103 1.317 . S
C101 H106 0.930 . S
C102 C101 1.333 . S
C102 N104 1.350 . S
C102 H128 0.931 . S
N103 Co99 2.148 . S
N103 C100 1.301 . S
N103 C101 1.317 . S
N104 C100 1.328 . S
N104 C102 1.350 . S
H105 C100 0.930 . S
H106 C101 0.930 . S
C107 O108 1.224 . S
C107 O126 1.247 . S
O108 C107 1.224 . S
N109 Co99 2.128 . S
N109 C110 1.355 . S
N109 C112 1.311 . S
C110 N109 1.355 . S
C110 C111 1.363 . S
C110 H122 0.929 . S
C111 C110 1.363 . S
C111 N113 1.375 . S
C111 H129 0.931 . S
C112 N109 1.311 . S
C112 N113 1.347 . S
C112 H123 0.929 . S
N113 C111 1.375 . S
N113 C112 1.347 . S
C114 C117 1.365 . S
C114 N119 1.328 . S
C114 H120 0.929 . S
C115 C116 1.362 . S
C115 C118 1.378 . S
C115 H130 0.929 . S
C116 C115 1.362 . S
C116 C117 1.366 . S
C117 C114 1.365 . S
C117 C116 1.366 . S
C117 H131 0.930 . S
C118 C115 1.378 . S
C118 N119 1.315 . S
C118 H121 0.930 . S
N119 Co99 2.194 . S
N119 C114 1.328 . S
N119 C118 1.315 . S
H120 C114 0.929 . S
H121 C118 0.930 . S
H122 C110 0.929 . S
H123 C112 0.929 . S
O124 Co99 2.351 . S
O124 C127 1.244 . S
O125 Co99 2.155 . S
O125 C127 1.240 . S
O126 Co99 2.096 . S
O126 C107 1.247 . S
C127 O124 1.244 . S
C127 O125 1.240 . S
H128 C102 0.931 . S
H129 C111 0.931 . S
H130 C115 0.929 . S
H131 C117 0.930 . S
Co132 N136 2.148 1_554 S
Co132 N142 2.128 . S
Co132 N152 2.194 . S
Co132 O157 2.351 . S
Co132 O158 2.155 . S
Co132 O159 2.096 . S
C133 N136 1.301 . S
C133 N137 1.328 . S
C133 H138 0.930 . S
C134 C135 1.333 . S
C134 N136 1.317 . S
C134 H139 0.930 . S
C135 C134 1.333 . S
C135 N137 1.350 . S
C135 H161 0.931 . S
N136 Co132 2.148 1_556 S
N136 C133 1.301 . S
N136 C134 1.317 . S
N137 C133 1.328 . S
N137 C135 1.350 . S
H138 C133 0.930 . S
H139 C134 0.930 . S
C140 O141 1.224 . S
C140 O159 1.247 1_556 S
O141 C140 1.224 . S
N142 Co132 2.128 . S
N142 C143 1.355 . S
N142 C145 1.311 . S
C143 N142 1.355 . S
C143 C144 1.363 . S
C143 H155 0.929 . S
C144 C143 1.363 . S
C144 N146 1.375 . S
C144 H162 0.931 . S
C145 N142 1.311 . S
C145 N146 1.347 . S
C145 H156 0.929 . S
N146 C144 1.375 . S
N146 C145 1.347 . S
C147 C150 1.365 . S
C147 N152 1.328 . S
C147 H153 0.929 . S
C148 C149 1.370 . S
C148 C151 1.380 . S
C148 H163 0.919 1_554 S
C149 C148 1.370 . S
C149 C150 1.366 . S
C150 C147 1.365 . S
C150 C149 1.366 . S
C150 H164 0.930 . S
C151 C148 1.380 . S
C151 N152 1.315 . S
C151 H154 0.930 1_554 S
N152 Co132 2.194 . S
N152 C147 1.328 . S
N152 C151 1.315 . S
H153 C147 0.929 . S
H154 C151 0.930 1_556 S
H155 C143 0.929 . S
H156 C145 0.929 . S
O157 Co132 2.351 . S
O157 C160 1.244 . S
O158 Co132 2.155 . S
O158 C160 1.240 . S
O159 Co132 2.096 . S
O159 C140 1.247 1_554 S
C160 O157 1.244 . S
C160 O158 1.240 . S
H161 C135 0.931 . S
H162 C144 0.931 . S
H163 C148 0.919 1_556 S
H164 C150 0.930 . S
Co165 N169 2.148 . S
Co165 N175 2.128 . S
Co165 N185 2.194 . S
Co165 O190 2.351 . S
Co165 O191 2.155 . S
Co165 O192 2.096 . S
C166 N169 1.301 . S
C166 N170 1.328 . S
C166 H171 0.930 . S
C167 C168 1.333 . S
C167 N169 1.317 . S
C167 H172 0.930 . S
C168 C167 1.333 . S
C168 N170 1.350 . S
C168 H194 0.931 . S
N169 Co165 2.148 . S
N169 C166 1.301 . S
N169 C167 1.317 . S
N170 C166 1.328 . S
N170 C168 1.350 . S
H171 C166 0.930 . S
H172 C167 0.930 . S
C173 O174 1.224 . S
C173 O192 1.247 . S
O174 C173 1.224 . S
N175 Co165 2.128 . S
N175 C176 1.355 . S
N175 C178 1.311 . S
C176 N175 1.355 . S
C176 C177 1.363 . S
C176 H188 0.929 . S
C177 C176 1.363 . S
C177 N179 1.375 . S
C177 H195 0.931 . S
C178 N175 1.311 . S
C178 N179 1.347 . S
C178 H189 0.929 . S
N179 C177 1.375 . S
N179 C178 1.347 . S
C180 C183 1.365 . S
C180 N185 1.328 . S
C180 H186 0.929 . S
C181 C182 1.362 . S
C181 C184 1.378 . S
C181 H196 0.929 . S
C182 C181 1.362 . S
C182 C183 1.366 . S
C183 C180 1.365 . S
C183 C182 1.366 . S
C183 H197 0.930 . S
C184 C181 1.378 . S
C184 N185 1.315 . S
C184 H187 0.930 . S
N185 Co165 2.194 . S
N185 C180 1.328 . S
N185 C184 1.315 . S
H186 C180 0.929 . S
H187 C184 0.930 . S
H188 C176 0.929 . S
H189 C178 0.929 . S
O190 Co165 2.351 . S
O190 C193 1.244 . S
O191 Co165 2.155 . S
O191 C193 1.240 . S
O192 Co165 2.096 . S
O192 C173 1.247 . S
C193 O190 1.244 . S
C193 O191 1.240 . S
H194 C168 0.931 . S
H195 C177 0.931 . S
H196 C181 0.929 . S
H197 C183 0.930 . S
Co198 N202 2.148 . S
Co198 N208 2.128 . S
Co198 N218 2.194 . S
Co198 O223 2.351 . S
Co198 O224 2.155 . S
Co198 O225 2.096 . S
C199 N202 1.301 . S
C199 N203 1.328 . S
C199 H204 0.930 . S
C200 C201 1.333 . S
C200 N202 1.317 . S
C200 H205 0.930 . S
C201 C200 1.333 . S
C201 N203 1.350 . S
C201 H227 0.931 . S
N202 Co198 2.148 . S
N202 C199 1.301 . S
N202 C200 1.317 . S
N203 C199 1.328 . S
N203 C201 1.350 . S
H204 C199 0.930 . S
H205 C200 0.930 . S
C206 O207 1.224 . S
C206 O225 1.247 . S
O207 C206 1.224 . S
N208 Co198 2.128 . S
N208 C209 1.355 . S
N208 C211 1.311 . S
C209 N208 1.355 . S
C209 C210 1.363 . S
C209 H221 0.929 . S
C210 C209 1.363 . S
C210 N212 1.375 . S
C210 H228 0.931 . S
C211 N208 1.311 . S
C211 N212 1.347 . S
C211 H222 0.929 . S
N212 C210 1.375 . S
N212 C211 1.347 . S
C213 C216 1.365 . S
C213 N218 1.328 . S
C213 H219 0.929 . S
C214 C215 1.362 . S
C214 C217 1.378 . S
C214 H229 0.929 . S
C215 C214 1.362 . S
C215 C216 1.366 . S
C216 C213 1.365 . S
C216 C215 1.366 . S
C216 H230 0.930 . S
C217 C214 1.378 . S
C217 N218 1.315 . S
C217 H220 0.930 . S
N218 Co198 2.194 . S
N218 C213 1.328 . S
N218 C217 1.315 . S
H219 C213 0.929 . S
H220 C217 0.930 . S
H221 C209 0.929 . S
H222 C211 0.929 . S
O223 Co198 2.351 . S
O223 C226 1.244 . S
O224 Co198 2.155 . S
O224 C226 1.240 . S
O225 Co198 2.096 . S
O225 C206 1.247 . S
C226 O223 1.244 . S
C226 O224 1.240 . S
H227 C201 0.931 . S
H228 C210 0.931 . S
H229 C214 0.929 . S
H230 C216 0.930 . S
Co231 N235 2.148 . S
Co231 N241 2.128 . S
Co231 N251 2.194 . S
Co231 O256 2.351 . S
Co231 O257 2.155 . S
Co231 O258 2.096 . S
C232 N235 1.301 . S
C232 N236 1.328 . S
C232 H237 0.930 . S
C233 C234 1.333 . S
C233 N235 1.317 . S
C233 H238 0.930 . S
C234 C233 1.333 . S
C234 N236 1.350 . S
C234 H260 0.931 . S
N235 Co231 2.148 . S
N235 C232 1.301 . S
N235 C233 1.317 . S
N236 C232 1.328 . S
N236 C234 1.350 . S
H237 C232 0.930 . S
H238 C233 0.930 . S
C239 O240 1.224 . S
C239 O258 1.247 . S
O240 C239 1.224 . S
N241 Co231 2.128 . S
N241 C242 1.355 . S
N241 C244 1.311 . S
C242 N241 1.355 . S
C242 C243 1.363 . S
C242 H254 0.929 . S
C243 C242 1.363 . S
C243 N245 1.375 . S
C243 H261 0.931 . S
C244 N241 1.311 . S
C244 N245 1.347 . S
C244 H255 0.929 . S
N245 C243 1.375 . S
N245 C244 1.347 . S
C246 C249 1.365 . S
C246 N251 1.328 . S
C246 H252 0.929 . S
C247 C248 1.362 . S
C247 C250 1.378 . S
C247 H262 0.929 . S
C248 C247 1.362 . S
C248 C249 1.366 . S
C249 C246 1.365 . S
C249 C248 1.366 . S
C249 H263 0.930 . S
C250 C247 1.378 . S
C250 N251 1.315 . S
C250 H253 0.930 . S
N251 Co231 2.194 . S
N251 C246 1.328 . S
N251 C250 1.315 . S
H252 C246 0.929 . S
H253 C250 0.930 . S
H254 C242 0.929 . S
H255 C244 0.929 . S
O256 Co231 2.351 . S
O256 C259 1.244 . S
O257 Co231 2.155 . S
O257 C259 1.240 . S
O258 Co231 2.096 . S
O258 C239 1.247 . S
C259 O256 1.244 . S
C259 O257 1.240 . S
H260 C234 0.931 . S
H261 C243 0.931 . S
H262 C247 0.929 . S
H263 C249 0.930 . S
Co264 N268 2.148 . S
Co264 N274 2.128 . S
Co264 N284 2.194 . S
Co264 O289 2.351 . S
Co264 O290 2.155 . S
Co264 O291 2.096 . S
C265 N268 1.301 . S
C265 N269 1.328 . S
C265 H270 0.930 . S
C266 C267 1.333 . S
C266 N268 1.317 . S
C266 H271 0.930 . S
C267 C266 1.333 . S
C267 N269 1.350 . S
C267 H293 0.931 . S
N268 Co264 2.148 . S
N268 C265 1.301 . S
N268 C266 1.317 . S
N269 C265 1.328 . S
N269 C267 1.350 . S
H270 C265 0.930 . S
H271 C266 0.930 . S
C272 O273 1.224 . S
C272 O291 1.247 . S
O273 C272 1.224 . S
N274 Co264 2.128 . S
N274 C275 1.355 . S
N274 C277 1.311 . S
C275 N274 1.355 . S
C275 C276 1.363 . S
C275 H287 0.929 . S
C276 C275 1.363 . S
C276 N278 1.375 . S
C276 H294 0.931 . S
C277 N274 1.311 . S
C277 N278 1.347 . S
C277 H288 0.929 . S
N278 C276 1.375 . S
N278 C277 1.347 . S
C279 C282 1.365 . S
C279 N284 1.328 . S
C279 H285 0.929 . S
C280 C281 1.362 . S
C280 C283 1.378 . S
C280 H295 0.929 . S
C281 C280 1.362 . S
C281 C282 1.366 . S
C282 C279 1.365 . S
C282 C281 1.366 . S
C282 H296 0.930 . S
C283 C280 1.378 . S
C283 N284 1.315 . S
C283 H286 0.930 . S
N284 Co264 2.194 . S
N284 C279 1.328 . S
N284 C283 1.315 . S
H285 C279 0.929 . S
H286 C283 0.930 . S
H287 C275 0.929 . S
H288 C277 0.929 . S
O289 Co264 2.351 . S
O289 C292 1.244 . S
O290 Co264 2.155 . S
O290 C292 1.240 . S
O291 Co264 2.096 . S
O291 C272 1.247 . S
C292 O289 1.244 . S
C292 O290 1.240 . S
H293 C267 0.931 . S
H294 C276 0.931 . S
H295 C280 0.929 . S
H296 C282 0.930 . S
Co297 N301 2.148 . S
Co297 N307 2.128 . S
Co297 N317 2.194 . S
Co297 O322 2.351 . S
Co297 O323 2.155 . S
Co297 O324 2.096 . S
C298 N301 1.301 . S
C298 N302 1.328 . S
C298 H303 0.930 . S
C299 C300 1.333 . S
C299 N301 1.317 . S
C299 H304 0.930 . S
C300 C299 1.333 . S
C300 N302 1.350 . S
C300 H326 0.931 . S
N301 Co297 2.148 . S
N301 C298 1.301 . S
N301 C299 1.317 . S
N302 C298 1.328 . S
N302 C300 1.350 . S
H303 C298 0.930 . S
H304 C299 0.930 . S
C305 O306 1.224 . S
C305 O324 1.247 . S
O306 C305 1.224 . S
N307 Co297 2.128 . S
N307 C308 1.355 . S
N307 C310 1.311 . S
C308 N307 1.355 . S
C308 C309 1.363 . S
C308 H320 0.929 . S
C309 C308 1.363 . S
C309 N311 1.375 . S
C309 H327 0.931 . S
C310 N307 1.311 . S
C310 N311 1.347 . S
C310 H321 0.929 . S
N311 C309 1.375 . S
N311 C310 1.347 . S
C312 C315 1.365 . S
C312 N317 1.328 . S
C312 H318 0.929 . S
C313 C314 1.362 . S
C313 C316 1.378 . S
C313 H328 0.929 . S
C314 C313 1.362 . S
C314 C315 1.366 . S
C315 C312 1.365 . S
C315 C314 1.366 . S
C315 H329 0.930 . S
C316 C313 1.378 . S
C316 N317 1.315 . S
C316 H319 0.930 . S
N317 Co297 2.194 . S
N317 C312 1.328 . S
N317 C316 1.315 . S
H318 C312 0.929 . S
H319 C316 0.930 . S
H320 C308 0.929 . S
H321 C310 0.929 . S
O322 Co297 2.351 . S
O322 C325 1.244 . S
O323 Co297 2.155 . S
O323 C325 1.240 . S
O324 Co297 2.096 . S
O324 C305 1.247 . S
C325 O322 1.244 . S
C325 O323 1.240 . S
H326 C300 0.931 . S
H327 C309 0.931 . S
H328 C313 0.929 . S
H329 C315 0.930 . S
Co330 N334 2.148 1_554 S
Co330 N340 2.128 . S
Co330 N350 2.194 . S
Co330 O355 2.351 . S
Co330 O356 2.155 . S
Co330 O357 2.096 . S
C331 N334 1.301 . S
C331 N335 1.328 . S
C331 H336 0.930 . S
C332 C333 1.333 . S
C332 N334 1.317 . S
C332 H337 0.930 . S
C333 C332 1.333 . S
C333 N335 1.350 . S
C333 H359 0.931 . S
N334 Co330 2.148 1_556 S
N334 C331 1.301 . S
N334 C332 1.317 . S
N335 C331 1.328 . S
N335 C333 1.350 . S
H336 C331 0.930 . S
H337 C332 0.930 . S
C338 O339 1.224 . S
C338 O357 1.247 1_556 S
O339 C338 1.224 . S
N340 Co330 2.128 . S
N340 C341 1.355 . S
N340 C343 1.311 . S
C341 N340 1.355 . S
C341 C342 1.363 . S
C341 H353 0.929 . S
C342 C341 1.363 . S
C342 N344 1.375 . S
C342 H360 0.931 . S
C343 N340 1.311 . S
C343 N344 1.347 . S
C343 H354 0.929 . S
N344 C342 1.375 . S
N344 C343 1.347 . S
C345 C348 1.365 . S
C345 N350 1.328 . S
C345 H351 0.929 . S
C346 C347 1.370 . S
C346 C349 1.380 . S
C346 H361 0.919 1_554 S
C347 C346 1.370 . S
C347 C348 1.366 . S
C348 C345 1.365 . S
C348 C347 1.366 . S
C348 H362 0.930 . S
C349 C346 1.380 . S
C349 N350 1.315 . S
C349 H352 0.930 1_554 S
N350 Co330 2.194 . S
N350 C345 1.328 . S
N350 C349 1.315 . S
H351 C345 0.929 . S
H352 C349 0.930 1_556 S
H353 C341 0.929 . S
H354 C343 0.929 . S
O355 Co330 2.351 . S
O355 C358 1.244 . S
O356 Co330 2.155 . S
O356 C358 1.240 . S
O357 Co330 2.096 . S
O357 C338 1.247 1_554 S
C358 O355 1.244 . S
C358 O356 1.240 . S
H359 C333 0.931 . S
H360 C342 0.931 . S
H361 C346 0.919 1_556 S
H362 C348 0.930 . S
Co363 N367 2.148 . S
Co363 N373 2.128 . S
Co363 N383 2.194 . S
Co363 O388 2.351 . S
Co363 O389 2.155 . S
Co363 O390 2.096 . S
C364 N367 1.301 . S
C364 N368 1.328 . S
C364 H369 0.930 . S
C365 C366 1.333 . S
C365 N367 1.317 . S
C365 H370 0.930 . S
C366 C365 1.333 . S
C366 N368 1.350 . S
C366 H392 0.931 . S
N367 Co363 2.148 . S
N367 C364 1.301 . S
N367 C365 1.317 . S
N368 C364 1.328 . S
N368 C366 1.350 . S
H369 C364 0.930 . S
H370 C365 0.930 . S
C371 O372 1.224 . S
C371 O390 1.247 . S
O372 C371 1.224 . S
N373 Co363 2.128 . S
N373 C374 1.355 . S
N373 C376 1.311 . S
C374 N373 1.355 . S
C374 C375 1.363 . S
C374 H386 0.929 . S
C375 C374 1.363 . S
C375 N377 1.375 . S
C375 H393 0.931 . S
C376 N373 1.311 . S
C376 N377 1.347 . S
C376 H387 0.929 . S
N377 C375 1.375 . S
N377 C376 1.347 . S
C378 C381 1.365 . S
C378 N383 1.328 . S
C378 H384 0.929 . S
C379 C380 1.362 . S
C379 C382 1.378 . S
C379 H394 0.929 . S
C380 C379 1.362 . S
C380 C381 1.366 . S
C381 C378 1.365 . S
C381 C380 1.366 . S
C381 H395 0.930 . S
C382 C379 1.378 . S
C382 N383 1.315 . S
C382 H385 0.930 . S
N383 Co363 2.194 . S
N383 C378 1.328 . S
N383 C382 1.315 . S
H384 C378 0.929 . S
H385 C382 0.930 . S
H386 C374 0.929 . S
H387 C376 0.929 . S
O388 Co363 2.351 . S
O388 C391 1.244 . S
O389 Co363 2.155 . S
O389 C391 1.240 . S
O390 Co363 2.096 . S
O390 C371 1.247 . S
C391 O388 1.244 . S
C391 O389 1.240 . S
H392 C366 0.931 . S
H393 C375 0.931 . S
H394 C379 0.929 . S
H395 C381 0.930 . S
Co396 N400 2.148 1_556 S
Co396 N406 2.128 . S
Co396 N416 2.194 . S
Co396 O421 2.351 . S
Co396 O422 2.155 . S
Co396 O423 2.096 . S
C397 N400 1.301 . S
C397 N401 1.328 . S
C397 H402 0.930 . S
C398 C399 1.333 . S
C398 N400 1.317 . S
C398 H403 0.930 . S
C399 C398 1.333 . S
C399 N401 1.350 . S
C399 H425 0.931 . S
N400 Co396 2.148 1_554 S
N400 C397 1.301 . S
N400 C398 1.317 . S
N401 C397 1.328 . S
N401 C399 1.350 . S
H402 C397 0.930 . S
H403 C398 0.930 . S
C404 O405 1.224 . S
C404 O423 1.247 1_554 S
O405 C404 1.224 . S
N406 Co396 2.128 . S
N406 C407 1.355 . S
N406 C409 1.311 . S
C407 N406 1.355 . S
C407 C408 1.363 . S
C407 H419 0.929 . S
C408 C407 1.363 . S
C408 N410 1.375 . S
C408 H426 0.931 . S
C409 N406 1.311 . S
C409 N410 1.347 . S
C409 H420 0.929 . S
N410 C408 1.375 . S
N410 C409 1.347 . S
C411 C414 1.365 . S
C411 N416 1.328 . S
C411 H417 0.929 . S
C412 C413 1.370 . S
C412 C415 1.380 . S
C412 H427 0.919 1_556 S
C413 C412 1.370 . S
C413 C414 1.366 . S
C414 C411 1.365 . S
C414 C413 1.366 . S
C414 H428 0.930 . S
C415 C412 1.380 . S
C415 N416 1.315 . S
C415 H418 0.930 1_556 S
N416 Co396 2.194 . S
N416 C411 1.328 . S
N416 C415 1.315 . S
H417 C411 0.929 . S
H418 C415 0.930 1_554 S
H419 C407 0.929 . S
H420 C409 0.929 . S
O421 Co396 2.351 . S
O421 C424 1.244 . S
O422 Co396 2.155 . S
O422 C424 1.240 . S
O423 Co396 2.096 . S
O423 C404 1.247 1_556 S
C424 O421 1.244 . S
C424 O422 1.240 . S
H425 C399 0.931 . S
H426 C408 0.931 . S
H427 C412 0.919 1_554 S
H428 C414 0.930 . S
Co429 N433 2.148 . S
Co429 N439 2.128 . S
Co429 N449 2.194 . S
Co429 O454 2.351 . S
Co429 O455 2.155 . S
Co429 O456 2.096 . S
C430 N433 1.301 . S
C430 N434 1.328 . S
C430 H435 0.930 . S
C431 C432 1.333 . S
C431 N433 1.317 . S
C431 H436 0.930 . S
C432 C431 1.333 . S
C432 N434 1.350 . S
C432 H458 0.931 . S
N433 Co429 2.148 . S
N433 C430 1.301 . S
N433 C431 1.317 . S
N434 C430 1.328 . S
N434 C432 1.350 . S
H435 C430 0.930 . S
H436 C431 0.930 . S
C437 O438 1.224 . S
C437 O456 1.247 . S
O438 C437 1.224 . S
N439 Co429 2.128 . S
N439 C440 1.355 . S
N439 C442 1.311 . S
C440 N439 1.355 . S
C440 C441 1.363 . S
C440 H452 0.929 . S
C441 C440 1.363 . S
C441 N443 1.375 . S
C441 H459 0.931 . S
C442 N439 1.311 . S
C442 N443 1.347 . S
C442 H453 0.929 . S
N443 C441 1.375 . S
N443 C442 1.347 . S
C444 C447 1.365 . S
C444 N449 1.328 . S
C444 H450 0.929 . S
C445 C446 1.362 . S
C445 C448 1.378 . S
C445 H460 0.929 . S
C446 C445 1.362 . S
C446 C447 1.366 . S
C447 C444 1.365 . S
C447 C446 1.366 . S
C447 H461 0.930 . S
C448 C445 1.378 . S
C448 N449 1.315 . S
C448 H451 0.930 . S
N449 Co429 2.194 . S
N449 C444 1.328 . S
N449 C448 1.315 . S
H450 C444 0.929 . S
H451 C448 0.930 . S
H452 C440 0.929 . S
H453 C442 0.929 . S
O454 Co429 2.351 . S
O454 C457 1.244 . S
O455 Co429 2.155 . S
O455 C457 1.240 . S
O456 Co429 2.096 . S
O456 C437 1.247 . S
C457 O454 1.244 . S
C457 O455 1.240 . S
H458 C432 0.931 . S
H459 C441 0.931 . S
H460 C445 0.929 . S
H461 C447 0.930 . S
Co462 N466 2.148 . S
Co462 N472 2.128 . S
Co462 N482 2.194 . S
Co462 O487 2.351 . S
Co462 O488 2.155 . S
Co462 O489 2.096 . S
C463 N466 1.301 . S
C463 N467 1.328 . S
C463 H468 0.930 . S
C464 C465 1.333 . S
C464 N466 1.317 . S
C464 H469 0.930 . S
C465 C464 1.333 . S
C465 N467 1.350 . S
C465 H491 0.931 . S
N466 Co462 2.148 . S
N466 C463 1.301 . S
N466 C464 1.317 . S
N467 C463 1.328 . S
N467 C465 1.350 . S
H468 C463 0.930 . S
H469 C464 0.930 . S
C470 O471 1.224 . S
C470 O489 1.247 . S
O471 C470 1.224 . S
N472 Co462 2.128 . S
N472 C473 1.355 . S
N472 C475 1.311 . S
C473 N472 1.355 . S
C473 C474 1.363 . S
C473 H485 0.929 . S
C474 C473 1.363 . S
C474 N476 1.375 . S
C474 H492 0.931 . S
C475 N472 1.311 . S
C475 N476 1.347 . S
C475 H486 0.929 . S
N476 C474 1.375 . S
N476 C475 1.347 . S
C477 C480 1.365 . S
C477 N482 1.328 . S
C477 H483 0.929 . S
C478 C479 1.362 . S
C478 C481 1.378 . S
C478 H493 0.929 . S
C479 C478 1.362 . S
C479 C480 1.366 . S
C480 C477 1.365 . S
C480 C479 1.366 . S
C480 H494 0.930 . S
C481 C478 1.378 . S
C481 N482 1.315 . S
C481 H484 0.930 . S
N482 Co462 2.194 . S
N482 C477 1.328 . S
N482 C481 1.315 . S
H483 C477 0.929 . S
H484 C481 0.930 . S
H485 C473 0.929 . S
H486 C475 0.929 . S
O487 Co462 2.351 . S
O487 C490 1.244 . S
O488 Co462 2.155 . S
O488 C490 1.240 . S
O489 Co462 2.096 . S
O489 C470 1.247 . S
C490 O487 1.244 . S
C490 O488 1.240 . S
H491 C465 0.931 . S
H492 C474 0.931 . S
H493 C478 0.929 . S
H494 C480 0.930 . S
Co495 N499 2.148 . S
Co495 N505 2.128 . S
Co495 N515 2.194 . S
Co495 O520 2.351 . S
Co495 O521 2.155 . S
Co495 O522 2.096 . S
C496 N499 1.301 . S
C496 N500 1.328 . S
C496 H501 0.930 . S
C497 C498 1.333 . S
C497 N499 1.317 . S
C497 H502 0.930 . S
C498 C497 1.333 . S
C498 N500 1.350 . S
C498 H524 0.931 . S
N499 Co495 2.148 . S
N499 C496 1.301 . S
N499 C497 1.317 . S
N500 C496 1.328 . S
N500 C498 1.350 . S
H501 C496 0.930 . S
H502 C497 0.930 . S
C503 O504 1.224 . S
C503 O522 1.247 . S
O504 C503 1.224 . S
N505 Co495 2.128 . S
N505 C506 1.355 . S
N505 C508 1.311 . S
C506 N505 1.355 . S
C506 C507 1.363 . S
C506 H518 0.929 . S
C507 C506 1.363 . S
C507 N509 1.375 . S
C507 H525 0.931 . S
C508 N505 1.311 . S
C508 N509 1.347 . S
C508 H519 0.929 . S
N509 C507 1.375 . S
N509 C508 1.347 . S
C510 C513 1.365 . S
C510 N515 1.328 . S
C510 H516 0.929 . S
C511 C512 1.362 . S
C511 C514 1.378 . S
C511 H526 0.929 . S
C512 C511 1.362 . S
C512 C513 1.366 . S
C513 C510 1.365 . S
C513 C512 1.366 . S
C513 H527 0.930 . S
C514 C511 1.378 . S
C514 N515 1.315 . S
C514 H517 0.930 . S
N515 Co495 2.194 . S
N515 C510 1.328 . S
N515 C514 1.315 . S
H516 C510 0.929 . S
H517 C514 0.930 . S
H518 C506 0.929 . S
H519 C508 0.929 . S
O520 Co495 2.351 . S
O520 C523 1.244 . S
O521 Co495 2.155 . S
O521 C523 1.240 . S
O522 Co495 2.096 . S
O522 C503 1.247 . S
C523 O520 1.244 . S
C523 O521 1.240 . S
H524 C498 0.931 . S
H525 C507 0.931 . S
H526 C511 0.929 . S
H527 C513 0.930 . S
Co528 N532 2.148 1_556 S
Co528 N538 2.128 . S
Co528 N548 2.194 . S
Co528 O553 2.351 . S
Co528 O554 2.155 . S
Co528 O555 2.096 . S
C529 N532 1.301 . S
C529 N533 1.328 . S
C529 H534 0.930 . S
C530 C531 1.333 . S
C530 N532 1.317 . S
C530 H535 0.930 . S
C531 C530 1.333 . S
C531 N533 1.350 . S
C531 H557 0.931 . S
N532 Co528 2.148 1_554 S
N532 C529 1.301 . S
N532 C530 1.317 . S
N533 C529 1.328 . S
N533 C531 1.350 . S
H534 C529 0.930 . S
H535 C530 0.930 . S
C536 O537 1.224 . S
C536 O555 1.247 1_554 S
O537 C536 1.224 . S
N538 Co528 2.128 . S
N538 C539 1.355 . S
N538 C541 1.311 . S
C539 N538 1.355 . S
C539 C540 1.363 . S
C539 H551 0.929 . S
C540 C539 1.363 . S
C540 N542 1.375 . S
C540 H558 0.931 . S
C541 N538 1.311 . S
C541 N542 1.347 . S
C541 H552 0.929 . S
N542 C540 1.375 . S
N542 C541 1.347 . S
C543 C546 1.365 . S
C543 N548 1.328 . S
C543 H549 0.929 . S
C544 C545 1.370 . S
C544 C547 1.380 . S
C544 H559 0.919 1_556 S
C545 C544 1.370 . S
C545 C546 1.366 . S
C546 C543 1.365 . S
C546 C545 1.366 . S
C546 H560 0.930 . S
C547 C544 1.380 . S
C547 N548 1.315 . S
C547 H550 0.930 1_556 S
N548 Co528 2.194 . S
N548 C543 1.328 . S
N548 C547 1.315 . S
H549 C543 0.929 . S
H550 C547 0.930 1_554 S
H551 C539 0.929 . S
H552 C541 0.929 . S
O553 Co528 2.351 . S
O553 C556 1.244 . S
O554 Co528 2.155 . S
O554 C556 1.240 . S
O555 Co528 2.096 . S
O555 C536 1.247 1_556 S
C556 O553 1.244 . S
C556 O554 1.240 . S
H557 C531 0.931 . S
H558 C540 0.931 . S
H559 C544 0.919 1_554 S
H560 C546 0.930 . S
Co561 N565 2.148 . S
Co561 N571 2.128 . S
Co561 N581 2.194 . S
Co561 O586 2.351 . S
Co561 O587 2.155 . S
Co561 O588 2.096 . S
C562 N565 1.301 . S
C562 N566 1.328 . S
C562 H567 0.930 . S
C563 C564 1.333 . S
C563 N565 1.317 . S
C563 H568 0.930 . S
C564 C563 1.333 . S
C564 N566 1.350 . S
C564 H590 0.931 . S
N565 Co561 2.148 . S
N565 C562 1.301 . S
N565 C563 1.317 . S
N566 C562 1.328 . S
N566 C564 1.350 . S
H567 C562 0.930 . S
H568 C563 0.930 . S
C569 O570 1.224 . S
C569 O588 1.247 . S
O570 C569 1.224 . S
N571 Co561 2.128 . S
N571 C572 1.355 . S
N571 C574 1.311 . S
C572 N571 1.355 . S
C572 C573 1.363 . S
C572 H584 0.929 . S
C573 C572 1.363 . S
C573 N575 1.375 . S
C573 H591 0.931 . S
C574 N571 1.311 . S
C574 N575 1.347 . S
C574 H585 0.929 . S
N575 C573 1.375 . S
N575 C574 1.347 . S
C576 C579 1.365 . S
C576 N581 1.328 . S
C576 H582 0.929 . S
C577 C578 1.362 . S
C577 C580 1.378 . S
C577 H592 0.929 . S
C578 C577 1.362 . S
C578 C579 1.366 . S
C579 C576 1.365 . S
C579 C578 1.366 . S
C579 H593 0.930 . S
C580 C577 1.378 . S
C580 N581 1.315 . S
C580 H583 0.930 . S
N581 Co561 2.194 . S
N581 C576 1.328 . S
N581 C580 1.315 . S
H582 C576 0.929 . S
H583 C580 0.930 . S
H584 C572 0.929 . S
H585 C574 0.929 . S
O586 Co561 2.351 . S
O586 C589 1.244 . S
O587 Co561 2.155 . S
O587 C589 1.240 . S
O588 Co561 2.096 . S
O588 C569 1.247 . S
C589 O586 1.244 . S
C589 O587 1.240 . S
H590 C564 0.931 . S
H591 C573 0.931 . S
H592 C577 0.929 . S
H593 C579 0.930 . S
Co594 N598 2.148 . S
Co594 N604 2.128 . S
Co594 N614 2.194 . S
Co594 O619 2.351 . S
Co594 O620 2.155 . S
Co594 O621 2.096 . S
C595 N598 1.301 . S
C595 N599 1.328 . S
C595 H600 0.930 . S
C596 C597 1.333 . S
C596 N598 1.317 . S
C596 H601 0.930 . S
C597 C596 1.333 . S
C597 N599 1.350 . S
C597 H623 0.931 . S
N598 Co594 2.148 . S
N598 C595 1.301 . S
N598 C596 1.317 . S
N599 C595 1.328 . S
N599 C597 1.350 . S
H600 C595 0.930 . S
H601 C596 0.930 . S
C602 O603 1.224 . S
C602 O621 1.247 . S
O603 C602 1.224 . S
N604 Co594 2.128 . S
N604 C605 1.355 . S
N604 C607 1.311 . S
C605 N604 1.355 . S
C605 C606 1.363 . S
C605 H617 0.929 . S
C606 C605 1.363 . S
C606 N608 1.375 . S
C606 H624 0.931 . S
C607 N604 1.311 . S
C607 N608 1.347 . S
C607 H618 0.929 . S
N608 C606 1.375 . S
N608 C607 1.347 . S
C609 C612 1.365 . S
C609 N614 1.328 . S
C609 H615 0.929 . S
C610 C611 1.362 . S
C610 C613 1.378 . S
C610 H625 0.929 . S
C611 C610 1.362 . S
C611 C612 1.366 . S
C612 C609 1.365 . S
C612 C611 1.366 . S
C612 H626 0.930 . S
C613 C610 1.378 . S
C613 N614 1.315 . S
C613 H616 0.930 . S
N614 Co594 2.194 . S
N614 C609 1.328 . S
N614 C613 1.315 . S
H615 C609 0.929 . S
H616 C613 0.930 . S
H617 C605 0.929 . S
H618 C607 0.929 . S
O619 Co594 2.351 . S
O619 C622 1.244 . S
O620 Co594 2.155 . S
O620 C622 1.240 . S
O621 Co594 2.096 . S
O621 C602 1.247 . S
C622 O619 1.244 . S
C622 O620 1.240 . S
H623 C597 0.931 . S
H624 C606 0.931 . S
H625 C610 0.929 . S
H626 C612 0.930 . S
Co627 N631 2.148 . S
Co627 N637 2.128 . S
Co627 N647 2.194 . S
Co627 O652 2.351 . S
Co627 O653 2.155 . S
Co627 O654 2.096 . S
C628 N631 1.301 . S
C628 N632 1.328 . S
C628 H633 0.930 . S
C629 C630 1.333 . S
C629 N631 1.317 . S
C629 H634 0.930 . S
C630 C629 1.333 . S
C630 N632 1.350 . S
C630 H656 0.931 . S
N631 Co627 2.148 . S
N631 C628 1.301 . S
N631 C629 1.317 . S
N632 C628 1.328 . S
N632 C630 1.350 . S
H633 C628 0.930 . S
H634 C629 0.930 . S
C635 O636 1.224 . S
C635 O654 1.247 . S
O636 C635 1.224 . S
N637 Co627 2.128 . S
N637 C638 1.355 . S
N637 C640 1.311 . S
C638 N637 1.355 . S
C638 C639 1.363 . S
C638 H650 0.929 . S
C639 C638 1.363 . S
C639 N641 1.375 . S
C639 H657 0.931 . S
C640 N637 1.311 . S
C640 N641 1.347 . S
C640 H651 0.929 . S
N641 C639 1.375 . S
N641 C640 1.347 . S
C642 C645 1.365 . S
C642 N647 1.328 . S
C642 H648 0.929 . S
C643 C644 1.362 . S
C643 C646 1.378 . S
C643 H658 0.929 . S
C644 C643 1.362 . S
C644 C645 1.366 . S
C645 C642 1.365 . S
C645 C644 1.366 . S
C645 H659 0.930 . S
C646 C643 1.378 . S
C646 N647 1.315 . S
C646 H649 0.930 . S
N647 Co627 2.194 . S
N647 C642 1.328 . S
N647 C646 1.315 . S
H648 C642 0.929 . S
H649 C646 0.930 . S
H650 C638 0.929 . S
H651 C640 0.929 . S
O652 Co627 2.351 . S
O652 C655 1.244 . S
O653 Co627 2.155 . S
O653 C655 1.240 . S
O654 Co627 2.096 . S
O654 C635 1.247 . S
C655 O652 1.244 . S
C655 O653 1.240 . S
H656 C630 0.931 . S
H657 C639 0.931 . S
H658 C643 0.929 . S
H659 C645 0.930 . S
Co660 N664 2.148 . S
Co660 N670 2.128 . S
Co660 N680 2.194 . S
Co660 O685 2.351 . S
Co660 O686 2.155 . S
Co660 O687 2.096 . S
C661 N664 1.301 . S
C661 N665 1.328 . S
C661 H666 0.930 . S
C662 C663 1.333 . S
C662 N664 1.317 . S
C662 H667 0.930 . S
C663 C662 1.333 . S
C663 N665 1.350 . S
C663 H689 0.931 . S
N664 Co660 2.148 . S
N664 C661 1.301 . S
N664 C662 1.317 . S
N665 C661 1.328 . S
N665 C663 1.350 . S
H666 C661 0.930 . S
H667 C662 0.930 . S
C668 O669 1.224 . S
C668 O687 1.247 . S
O669 C668 1.224 . S
N670 Co660 2.128 . S
N670 C671 1.355 . S
N670 C673 1.311 . S
C671 N670 1.355 . S
C671 C672 1.363 . S
C671 H683 0.929 . S
C672 C671 1.363 . S
C672 N674 1.375 . S
C672 H690 0.931 . S
C673 N670 1.311 . S
C673 N674 1.347 . S
C673 H684 0.929 . S
N674 C672 1.375 . S
N674 C673 1.347 . S
C675 C678 1.365 . S
C675 N680 1.328 . S
C675 H681 0.929 . S
C676 C677 1.362 . S
C676 C679 1.378 . S
C676 H691 0.929 . S
C677 C676 1.362 . S
C677 C678 1.366 . S
C678 C675 1.365 . S
C678 C677 1.366 . S
C678 H692 0.930 . S
C679 C676 1.378 . S
C679 N680 1.315 . S
C679 H682 0.930 . S
N680 Co660 2.194 . S
N680 C675 1.328 . S
N680 C679 1.315 . S
H681 C675 0.929 . S
H682 C679 0.930 . S
H683 C671 0.929 . S
H684 C673 0.929 . S
O685 Co660 2.351 . S
O685 C688 1.244 . S
O686 Co660 2.155 . S
O686 C688 1.240 . S
O687 Co660 2.096 . S
O687 C668 1.247 . S
C688 O685 1.244 . S
C688 O686 1.240 . S
H689 C663 0.931 . S
H690 C672 0.931 . S
H691 C676 0.929 . S
H692 C678 0.930 . S
Co693 N697 2.148 . S
Co693 N703 2.128 . S
Co693 N713 2.194 . S
Co693 O718 2.351 . S
Co693 O719 2.155 . S
Co693 O720 2.096 . S
C694 N697 1.301 . S
C694 N698 1.328 . S
C694 H699 0.930 . S
C695 C696 1.333 . S
C695 N697 1.317 . S
C695 H700 0.930 . S
C696 C695 1.333 . S
C696 N698 1.350 . S
C696 H722 0.931 . S
N697 Co693 2.148 . S
N697 C694 1.301 . S
N697 C695 1.317 . S
N698 C694 1.328 . S
N698 C696 1.350 . S
H699 C694 0.930 . S
H700 C695 0.930 . S
C701 O702 1.224 . S
C701 O720 1.247 . S
O702 C701 1.224 . S
N703 Co693 2.128 . S
N703 C704 1.355 . S
N703 C706 1.311 . S
C704 N703 1.355 . S
C704 C705 1.363 . S
C704 H716 0.929 . S
C705 C704 1.363 . S
C705 N707 1.375 . S
C705 H723 0.931 . S
C706 N703 1.311 . S
C706 N707 1.347 . S
C706 H717 0.929 . S
N707 C705 1.375 . S
N707 C706 1.347 . S
C708 C711 1.365 . S
C708 N713 1.328 . S
C708 H714 0.929 . S
C709 C710 1.362 . S
C709 C712 1.378 . S
C709 H724 0.929 . S
C710 C709 1.362 . S
C710 C711 1.366 . S
C711 C708 1.365 . S
C711 C710 1.366 . S
C711 H725 0.930 . S
C712 C709 1.378 . S
C712 N713 1.315 . S
C712 H715 0.930 . S
N713 Co693 2.194 . S
N713 C708 1.328 . S
N713 C712 1.315 . S
H714 C708 0.929 . S
H715 C712 0.930 . S
H716 C704 0.929 . S
H717 C706 0.929 . S
O718 Co693 2.351 . S
O718 C721 1.244 . S
O719 Co693 2.155 . S
O719 C721 1.240 . S
O720 Co693 2.096 . S
O720 C701 1.247 . S
C721 O718 1.244 . S
C721 O719 1.240 . S
H722 C696 0.931 . S
H723 C705 0.931 . S
H724 C709 0.929 . S
H725 C711 0.930 . S
Co726 N730 2.148 1_554 S
Co726 N736 2.128 . S
Co726 N746 2.194 . S
Co726 O751 2.351 . S
Co726 O752 2.155 . S
Co726 O753 2.096 . S
C727 N730 1.301 . S
C727 N731 1.328 . S
C727 H732 0.930 . S
C728 C729 1.333 . S
C728 N730 1.317 . S
C728 H733 0.930 . S
C729 C728 1.333 . S
C729 N731 1.350 . S
C729 H755 0.931 . S
N730 Co726 2.148 1_556 S
N730 C727 1.301 . S
N730 C728 1.317 . S
N731 C727 1.328 . S
N731 C729 1.350 . S
H732 C727 0.930 . S
H733 C728 0.930 . S
C734 O735 1.224 . S
C734 O753 1.247 1_556 S
O735 C734 1.224 . S
N736 Co726 2.128 . S
N736 C737 1.355 . S
N736 C739 1.311 . S
C737 N736 1.355 . S
C737 C738 1.363 . S
C737 H749 0.929 . S
C738 C737 1.363 . S
C738 N740 1.375 . S
C738 H756 0.931 . S
C739 N736 1.311 . S
C739 N740 1.347 . S
C739 H750 0.929 . S
N740 C738 1.375 . S
N740 C739 1.347 . S
C741 C744 1.365 . S
C741 N746 1.328 . S
C741 H747 0.929 . S
C742 C743 1.370 . S
C742 C745 1.380 . S
C742 H757 0.919 1_554 S
C743 C742 1.370 . S
C743 C744 1.366 . S
C744 C741 1.365 . S
C744 C743 1.366 . S
C744 H758 0.930 . S
C745 C742 1.380 . S
C745 N746 1.315 . S
C745 H748 0.930 1_554 S
N746 Co726 2.194 . S
N746 C741 1.328 . S
N746 C745 1.315 . S
H747 C741 0.929 . S
H748 C745 0.930 1_556 S
H749 C737 0.929 . S
H750 C739 0.929 . S
O751 Co726 2.351 . S
O751 C754 1.244 . S
O752 Co726 2.155 . S
O752 C754 1.240 . S
O753 Co726 2.096 . S
O753 C734 1.247 1_554 S
C754 O751 1.244 . S
C754 O752 1.240 . S
H755 C729 0.931 . S
H756 C738 0.931 . S
H757 C742 0.919 1_556 S
H758 C744 0.930 . S
Co759 N763 2.148 . S
Co759 N769 2.128 . S
Co759 N779 2.194 . S
Co759 O784 2.351 . S
Co759 O785 2.155 . S
Co759 O786 2.096 . S
C760 N763 1.301 . S
C760 N764 1.328 . S
C760 H765 0.930 . S
C761 C762 1.333 . S
C761 N763 1.317 . S
C761 H766 0.930 . S
C762 C761 1.333 . S
C762 N764 1.350 . S
C762 H788 0.931 . S
N763 Co759 2.148 . S
N763 C760 1.301 . S
N763 C761 1.317 . S
N764 C760 1.328 . S
N764 C762 1.350 . S
H765 C760 0.930 . S
H766 C761 0.930 . S
C767 O768 1.224 . S
C767 O786 1.247 . S
O768 C767 1.224 . S
N769 Co759 2.128 . S
N769 C770 1.355 . S
N769 C772 1.311 . S
C770 N769 1.355 . S
C770 C771 1.363 . S
C770 H782 0.929 . S
C771 C770 1.363 . S
C771 N773 1.375 . S
C771 H789 0.931 . S
C772 N769 1.311 . S
C772 N773 1.347 . S
C772 H783 0.929 . S
N773 C771 1.375 . S
N773 C772 1.347 . S
C774 C777 1.365 . S
C774 N779 1.328 . S
C774 H780 0.929 . S
C775 C776 1.362 . S
C775 C778 1.378 . S
C775 H790 0.929 . S
C776 C775 1.362 . S
C776 C777 1.366 . S
C777 C774 1.365 . S
C777 C776 1.366 . S
C777 H791 0.930 . S
C778 C775 1.378 . S
C778 N779 1.315 . S
C778 H781 0.930 . S
N779 Co759 2.194 . S
N779 C774 1.328 . S
N779 C778 1.315 . S
H780 C774 0.929 . S
H781 C778 0.930 . S
H782 C770 0.929 . S
H783 C772 0.929 . S
O784 Co759 2.351 . S
O784 C787 1.244 . S
O785 Co759 2.155 . S
O785 C787 1.240 . S
O786 Co759 2.096 . S
O786 C767 1.247 . S
C787 O784 1.244 . S
C787 O785 1.240 . S
H788 C762 0.931 . S
H789 C771 0.931 . S
H790 C775 0.929 . S
H791 C777 0.930 . S
Co792 N796 2.148 1_554 S
Co792 N802 2.128 . S
Co792 N812 2.194 . S
Co792 O817 2.351 . S
Co792 O818 2.155 . S
Co792 O819 2.096 . S
C793 N796 1.301 . S
C793 N797 1.328 . S
C793 H798 0.930 . S
C794 C795 1.333 . S
C794 N796 1.317 . S
C794 H799 0.930 . S
C795 C794 1.333 . S
C795 N797 1.350 . S
C795 H821 0.931 . S
N796 Co792 2.148 1_556 S
N796 C793 1.301 . S
N796 C794 1.317 . S
N797 C793 1.328 . S
N797 C795 1.350 . S
H798 C793 0.930 . S
H799 C794 0.930 . S
C800 O801 1.224 . S
C800 O819 1.247 1_556 S
O801 C800 1.224 . S
N802 Co792 2.128 . S
N802 C803 1.355 . S
N802 C805 1.311 . S
C803 N802 1.355 . S
C803 C804 1.363 . S
C803 H815 0.929 . S
C804 C803 1.363 . S
C804 N806 1.375 . S
C804 H822 0.931 . S
C805 N802 1.311 . S
C805 N806 1.347 . S
C805 H816 0.929 . S
N806 C804 1.375 . S
N806 C805 1.347 . S
C807 C810 1.365 . S
C807 N812 1.328 . S
C807 H813 0.929 . S
C808 C809 1.370 . S
C808 C811 1.380 . S
C808 H823 0.919 1_554 S
C809 C808 1.370 . S
C809 C810 1.366 . S
C810 C807 1.365 . S
C810 C809 1.366 . S
C810 H824 0.930 . S
C811 C808 1.380 . S
C811 N812 1.315 . S
C811 H814 0.930 1_554 S
N812 Co792 2.194 . S
N812 C807 1.328 . S
N812 C811 1.315 . S
H813 C807 0.929 . S
H814 C811 0.930 1_556 S
H815 C803 0.929 . S
H816 C805 0.929 . S
O817 Co792 2.351 . S
O817 C820 1.244 . S
O818 Co792 2.155 . S
O818 C820 1.240 . S
O819 Co792 2.096 . S
O819 C800 1.247 1_554 S
C820 O817 1.244 . S
C820 O818 1.240 . S
H821 C795 0.931 . S
H822 C804 0.931 . S
H823 C808 0.919 1_556 S
H824 C810 0.930 . S
Co825 N829 2.148 . S
Co825 N835 2.128 . S
Co825 N845 2.194 . S
Co825 O850 2.351 . S
Co825 O851 2.155 . S
Co825 O852 2.096 . S
C826 N829 1.301 . S
C826 N830 1.328 . S
C826 H831 0.930 . S
C827 C828 1.333 . S
C827 N829 1.317 . S
C827 H832 0.930 . S
C828 C827 1.333 . S
C828 N830 1.350 . S
C828 H854 0.931 . S
N829 Co825 2.148 . S
N829 C826 1.301 . S
N829 C827 1.317 . S
N830 C826 1.328 . S
N830 C828 1.350 . S
H831 C826 0.930 . S
H832 C827 0.930 . S
C833 O834 1.224 . S
C833 O852 1.247 . S
O834 C833 1.224 . S
N835 Co825 2.128 . S
N835 C836 1.355 . S
N835 C838 1.311 . S
C836 N835 1.355 . S
C836 C837 1.363 . S
C836 H848 0.929 . S
C837 C836 1.363 . S
C837 N839 1.375 . S
C837 H855 0.931 . S
C838 N835 1.311 . S
C838 N839 1.347 . S
C838 H849 0.929 . S
N839 C837 1.375 . S
N839 C838 1.347 . S
C840 C843 1.365 . S
C840 N845 1.328 . S
C840 H846 0.929 . S
C841 C842 1.362 . S
C841 C844 1.378 . S
C841 H856 0.929 . S
C842 C841 1.362 . S
C842 C843 1.366 . S
C843 C840 1.365 . S
C843 C842 1.366 . S
C843 H857 0.930 . S
C844 C841 1.378 . S
C844 N845 1.315 . S
C844 H847 0.930 . S
N845 Co825 2.194 . S
N845 C840 1.328 . S
N845 C844 1.315 . S
H846 C840 0.929 . S
H847 C844 0.930 . S
H848 C836 0.929 . S
H849 C838 0.929 . S
O850 Co825 2.351 . S
O850 C853 1.244 . S
O851 Co825 2.155 . S
O851 C853 1.240 . S
O852 Co825 2.096 . S
O852 C833 1.247 . S
C853 O850 1.244 . S
C853 O851 1.240 . S
H854 C828 0.931 . S
H855 C837 0.931 . S
H856 C841 0.929 . S
H857 C843 0.930 . S
Co858 N862 2.148 . S
Co858 N868 2.128 . S
Co858 N878 2.194 . S
Co858 O883 2.351 . S
Co858 O884 2.155 . S
Co858 O885 2.096 . S
C859 N862 1.301 . S
C859 N863 1.328 . S
C859 H864 0.930 . S
C860 C861 1.333 . S
C860 N862 1.317 . S
C860 H865 0.930 . S
C861 C860 1.333 . S
C861 N863 1.350 . S
C861 H887 0.931 . S
N862 Co858 2.148 . S
N862 C859 1.301 . S
N862 C860 1.317 . S
N863 C859 1.328 . S
N863 C861 1.350 . S
H864 C859 0.930 . S
H865 C860 0.930 . S
C866 O867 1.224 . S
C866 O885 1.247 . S
O867 C866 1.224 . S
N868 Co858 2.128 . S
N868 C869 1.355 . S
N868 C871 1.311 . S
C869 N868 1.355 . S
C869 C870 1.363 . S
C869 H881 0.929 . S
C870 C869 1.363 . S
C870 N872 1.375 . S
C870 H888 0.931 . S
C871 N868 1.311 . S
C871 N872 1.347 . S
C871 H882 0.929 . S
N872 C870 1.375 . S
N872 C871 1.347 . S
C873 C876 1.365 . S
C873 N878 1.328 . S
C873 H879 0.929 . S
C874 C875 1.362 . S
C874 C877 1.378 . S
C874 H889 0.929 . S
C875 C874 1.362 . S
C875 C876 1.366 . S
C876 C873 1.365 . S
C876 C875 1.366 . S
C876 H890 0.930 . S
C877 C874 1.378 . S
C877 N878 1.315 . S
C877 H880 0.930 . S
N878 Co858 2.194 . S
N878 C873 1.328 . S
N878 C877 1.315 . S
H879 C873 0.929 . S
H880 C877 0.930 . S
H881 C869 0.929 . S
H882 C871 0.929 . S
O883 Co858 2.351 . S
O883 C886 1.244 . S
O884 Co858 2.155 . S
O884 C886 1.240 . S
O885 Co858 2.096 . S
O885 C866 1.247 . S
C886 O883 1.244 . S
C886 O884 1.240 . S
H887 C861 0.931 . S
H888 C870 0.931 . S
H889 C874 0.929 . S
H890 C876 0.930 . S
Co891 N895 2.148 . S
Co891 N901 2.128 . S
Co891 N911 2.194 . S
Co891 O916 2.351 . S
Co891 O917 2.155 . S
Co891 O918 2.096 . S
C892 N895 1.301 . S
C892 N896 1.328 . S
C892 H897 0.930 . S
C893 C894 1.333 . S
C893 N895 1.317 . S
C893 H898 0.930 . S
C894 C893 1.333 . S
C894 N896 1.350 . S
C894 H920 0.931 . S
N895 Co891 2.148 . S
N895 C892 1.301 . S
N895 C893 1.317 . S
N896 C892 1.328 . S
N896 C894 1.350 . S
H897 C892 0.930 . S
H898 C893 0.930 . S
C899 O900 1.224 . S
C899 O918 1.247 . S
O900 C899 1.224 . S
N901 Co891 2.128 . S
N901 C902 1.355 . S
N901 C904 1.311 . S
C902 N901 1.355 . S
C902 C903 1.363 . S
C902 H914 0.929 . S
C903 C902 1.363 . S
C903 N905 1.375 . S
C903 H921 0.931 . S
C904 N901 1.311 . S
C904 N905 1.347 . S
C904 H915 0.929 . S
N905 C903 1.375 . S
N905 C904 1.347 . S
C906 C909 1.365 . S
C906 N911 1.328 . S
C906 H912 0.929 . S
C907 C908 1.362 . S
C907 C910 1.378 . S
C907 H922 0.929 . S
C908 C907 1.362 . S
C908 C909 1.366 . S
C909 C906 1.365 . S
C909 C908 1.366 . S
C909 H923 0.930 . S
C910 C907 1.378 . S
C910 N911 1.315 . S
C910 H913 0.930 . S
N911 Co891 2.194 . S
N911 C906 1.328 . S
N911 C910 1.315 . S
H912 C906 0.929 . S
H913 C910 0.930 . S
H914 C902 0.929 . S
H915 C904 0.929 . S
O916 Co891 2.351 . S
O916 C919 1.244 . S
O917 Co891 2.155 . S
O917 C919 1.240 . S
O918 Co891 2.096 . S
O918 C899 1.247 . S
C919 O916 1.244 . S
C919 O917 1.240 . S
H920 C894 0.931 . S
H921 C903 0.931 . S
H922 C907 0.929 . S
H923 C909 0.930 . S
Co924 N928 2.148 . S
Co924 N934 2.128 . S
Co924 N944 2.194 . S
Co924 O949 2.351 . S
Co924 O950 2.155 . S
Co924 O951 2.096 . S
C925 N928 1.301 . S
C925 N929 1.328 . S
C925 H930 0.930 . S
C926 C927 1.333 . S
C926 N928 1.317 . S
C926 H931 0.930 . S
C927 C926 1.333 . S
C927 N929 1.350 . S
C927 H953 0.931 . S
N928 Co924 2.148 . S
N928 C925 1.301 . S
N928 C926 1.317 . S
N929 C925 1.328 . S
N929 C927 1.350 . S
H930 C925 0.930 . S
H931 C926 0.930 . S
C932 O933 1.224 . S
C932 O951 1.247 . S
O933 C932 1.224 . S
N934 Co924 2.128 . S
N934 C935 1.355 . S
N934 C937 1.311 . S
C935 N934 1.355 . S
C935 C936 1.363 . S
C935 H947 0.929 . S
C936 C935 1.363 . S
C936 N938 1.375 . S
C936 H954 0.931 . S
C937 N934 1.311 . S
C937 N938 1.347 . S
C937 H948 0.929 . S
N938 C936 1.375 . S
N938 C937 1.347 . S
C939 C942 1.365 . S
C939 N944 1.328 . S
C939 H945 0.929 . S
C940 C941 1.362 . S
C940 C943 1.378 . S
C940 H955 0.929 . S
C941 C940 1.362 . S
C941 C942 1.366 . S
C942 C939 1.365 . S
C942 C941 1.366 . S
C942 H956 0.930 . S
C943 C940 1.378 . S
C943 N944 1.315 . S
C943 H946 0.930 . S
N944 Co924 2.194 . S
N944 C939 1.328 . S
N944 C943 1.315 . S
H945 C939 0.929 . S
H946 C943 0.930 . S
H947 C935 0.929 . S
H948 C937 0.929 . S
O949 Co924 2.351 . S
O949 C952 1.244 . S
O950 Co924 2.155 . S
O950 C952 1.240 . S
O951 Co924 2.096 . S
O951 C932 1.247 . S
C952 O949 1.244 . S
C952 O950 1.240 . S
H953 C927 0.931 . S
H954 C936 0.931 . S
H955 C940 0.929 . S
H956 C942 0.930 . S
Co957 N961 2.148 . S
Co957 N967 2.128 . S
Co957 N977 2.194 . S
Co957 O982 2.351 . S
Co957 O983 2.155 . S
Co957 O984 2.096 . S
C958 N961 1.301 . S
C958 N962 1.328 . S
C958 H963 0.930 . S
C959 C960 1.333 . S
C959 N961 1.317 . S
C959 H964 0.930 . S
C960 C959 1.333 . S
C960 N962 1.350 . S
C960 H986 0.931 . S
N961 Co957 2.148 . S
N961 C958 1.301 . S
N961 C959 1.317 . S
N962 C958 1.328 . S
N962 C960 1.350 . S
H963 C958 0.930 . S
H964 C959 0.930 . S
C965 O966 1.224 . S
C965 O984 1.247 . S
O966 C965 1.224 . S
N967 Co957 2.128 . S
N967 C968 1.355 . S
N967 C970 1.311 . S
C968 N967 1.355 . S
C968 C969 1.363 . S
C968 H980 0.929 . S
C969 C968 1.363 . S
C969 N971 1.375 . S
C969 H987 0.931 . S
C970 N967 1.311 . S
C970 N971 1.347 . S
C970 H981 0.929 . S
N971 C969 1.375 . S
N971 C970 1.347 . S
C972 C975 1.365 . S
C972 N977 1.328 . S
C972 H978 0.929 . S
C973 C974 1.362 . S
C973 C976 1.378 . S
C973 H988 0.929 . S
C974 C973 1.362 . S
C974 C975 1.366 . S
C975 C972 1.365 . S
C975 C974 1.366 . S
C975 H989 0.930 . S
C976 C973 1.378 . S
C976 N977 1.315 . S
C976 H979 0.930 . S
N977 Co957 2.194 . S
N977 C972 1.328 . S
N977 C976 1.315 . S
H978 C972 0.929 . S
H979 C976 0.930 . S
H980 C968 0.929 . S
H981 C970 0.929 . S
O982 Co957 2.351 . S
O982 C985 1.244 . S
O983 Co957 2.155 . S
O983 C985 1.240 . S
O984 Co957 2.096 . S
O984 C965 1.247 . S
C985 O982 1.244 . S
C985 O983 1.240 . S
H986 C960 0.931 . S
H987 C969 0.931 . S
H988 C973 0.929 . S
H989 C975 0.930 . S
Co990 N994 2.148 1_556 S
Co990 N1000 2.128 . S
Co990 N1010 2.194 . S
Co990 O1015 2.351 . S
Co990 O1016 2.155 . S
Co990 O1017 2.096 . S
C991 N994 1.301 . S
C991 N995 1.328 . S
C991 H996 0.930 . S
C992 C993 1.333 . S
C992 N994 1.317 . S
C992 H997 0.930 . S
C993 C992 1.333 . S
C993 N995 1.350 . S
C993 H1019 0.931 . S
N994 Co990 2.148 1_554 S
N994 C991 1.301 . S
N994 C992 1.317 . S
N995 C991 1.328 . S
N995 C993 1.350 . S
H996 C991 0.930 . S
H997 C992 0.930 . S
C998 O999 1.224 . S
C998 O1017 1.247 1_554 S
O999 C998 1.224 . S
N1000 Co990 2.128 . S
N1000 C1001 1.355 . S
N1000 C1003 1.311 . S
C1001 N1000 1.355 . S
C1001 C1002 1.363 . S
C1001 H1013 0.929 . S
C1002 C1001 1.363 . S
C1002 N1004 1.375 . S
C1002 H1020 0.931 . S
C1003 N1000 1.311 . S
C1003 N1004 1.347 . S
C1003 H1014 0.929 . S
N1004 C1002 1.375 . S
N1004 C1003 1.347 . S
C1005 C1008 1.365 . S
C1005 N1010 1.328 . S
C1005 H1011 0.929 . S
C1006 C1007 1.370 . S
C1006 C1009 1.380 . S
C1006 H1021 0.919 1_556 S
C1007 C1006 1.370 . S
C1007 C1008 1.366 . S
C1008 C1005 1.365 . S
C1008 C1007 1.366 . S
C1008 H1022 0.930 . S
C1009 C1006 1.380 . S
C1009 N1010 1.315 . S
C1009 H1012 0.930 1_556 S
N1010 Co990 2.194 . S
N1010 C1005 1.328 . S
N1010 C1009 1.315 . S
H1011 C1005 0.929 . S
H1012 C1009 0.930 1_554 S
H1013 C1001 0.929 . S
H1014 C1003 0.929 . S
O1015 Co990 2.351 . S
O1015 C1018 1.244 . S
O1016 Co990 2.155 . S
O1016 C1018 1.240 . S
O1017 Co990 2.096 . S
O1017 C998 1.247 1_556 S
C1018 O1015 1.244 . S
C1018 O1016 1.240 . S
H1019 C993 0.931 . S
H1020 C1002 0.931 . S
H1021 C1006 0.919 1_554 S
H1022 C1008 0.930 . S
Co1023 N1027 2.148 . S
Co1023 N1033 2.128 . S
Co1023 N1043 2.194 . S
Co1023 O1048 2.351 . S
Co1023 O1049 2.155 . S
Co1023 O1050 2.096 . S
C1024 N1027 1.301 . S
C1024 N1028 1.328 . S
C1024 H1029 0.930 . S
C1025 C1026 1.333 . S
C1025 N1027 1.317 . S
C1025 H1030 0.930 . S
C1026 C1025 1.333 . S
C1026 N1028 1.350 . S
C1026 H1052 0.931 . S
N1027 Co1023 2.148 . S
N1027 C1024 1.301 . S
N1027 C1025 1.317 . S
N1028 C1024 1.328 . S
N1028 C1026 1.350 . S
H1029 C1024 0.930 . S
H1030 C1025 0.930 . S
C1031 O1032 1.224 . S
C1031 O1050 1.247 . S
O1032 C1031 1.224 . S
N1033 Co1023 2.128 . S
N1033 C1034 1.355 . S
N1033 C1036 1.311 . S
C1034 N1033 1.355 . S
C1034 C1035 1.363 . S
C1034 H1046 0.929 . S
C1035 C1034 1.363 . S
C1035 N1037 1.375 . S
C1035 H1053 0.931 . S
C1036 N1033 1.311 . S
C1036 N1037 1.347 . S
C1036 H1047 0.929 . S
N1037 C1035 1.375 . S
N1037 C1036 1.347 . S
C1038 C1041 1.365 . S
C1038 N1043 1.328 . S
C1038 H1044 0.929 . S
C1039 C1040 1.362 . S
C1039 C1042 1.378 . S
C1039 H1054 0.929 . S
C1040 C1039 1.362 . S
C1040 C1041 1.366 . S
C1041 C1038 1.365 . S
C1041 C1040 1.366 . S
C1041 H1055 0.930 . S
C1042 C1039 1.378 . S
C1042 N1043 1.315 . S
C1042 H1045 0.930 . S
N1043 Co1023 2.194 . S
N1043 C1038 1.328 . S
N1043 C1042 1.315 . S
H1044 C1038 0.929 . S
H1045 C1042 0.930 . S
H1046 C1034 0.929 . S
H1047 C1036 0.929 . S
O1048 Co1023 2.351 . S
O1048 C1051 1.244 . S
O1049 Co1023 2.155 . S
O1049 C1051 1.240 . S
O1050 Co1023 2.096 . S
O1050 C1031 1.247 . S
C1051 O1048 1.244 . S
C1051 O1049 1.240 . S
H1052 C1026 0.931 . S
H1053 C1035 0.931 . S
H1054 C1039 0.929 . S
H1055 C1041 0.930 . S
H1056 C1064 0.929 . S
H1057 C1066 0.930 . S
H1058 C1068 0.930 . S
H1059 C1071 0.929 . S
H1060 C1074 0.930 . S
H1061 C1076 0.960 . S
H1062 C1076 0.960 . S
H1063 C1076 0.960 . S
C1064 H1056 0.929 . S
C1064 C1065 1.377 . S
C1064 C1066 1.384 . S
C1065 C1064 1.377 . S
C1065 C1071 1.390 . S
C1066 H1057 0.930 . S
C1066 C1064 1.384 . S
C1066 C1067 1.372 . S
C1067 C1066 1.372 . S
C1067 C1068 1.400 . S
C1067 C1072 1.490 . S
C1068 H1058 0.930 . S
C1068 C1067 1.400 . S
C1068 C1071 1.386 . S
H1069 C1085 0.930 . S
H1070 C1086 0.931 . S
C1071 H1059 0.929 . S
C1071 C1065 1.390 . S
C1071 C1068 1.386 . S
C1072 C1067 1.490 . S
C1072 C1074 1.395 . S
C1072 C1075 1.403 . S
H1073 C1079 0.930 . S
C1074 H1060 0.930 . S
C1074 C1072 1.395 . S
C1074 C1077 1.403 . S
C1075 C1072 1.403 . S
C1075 C1076 1.524 . S
C1075 C1079 1.400 . S
C1076 H1061 0.960 . S
C1076 H1062 0.960 . S
C1076 H1063 0.960 . S
C1076 C1075 1.524 . S
C1077 C1074 1.403 . S
C1077 C1078 1.392 . S
C1077 C1081 1.495 . S
C1078 C1077 1.392 . S
C1078 C1079 1.385 . S
C1078 C1080 1.478 . S
C1079 H1073 0.930 . S
C1079 C1075 1.400 . S
C1079 C1078 1.385 . S
C1080 C1078 1.478 . S
C1080 C1082 1.381 . S
C1080 C1086 1.383 . S
C1081 C1077 1.495 . S
C1081 H1087 0.959 . S
C1081 H1088 0.961 . S
C1081 H1089 0.960 . S
C1082 C1080 1.381 . S
C1082 C1083 1.394 . S
C1082 H1090 0.930 . S
C1083 C1082 1.394 . S
C1083 C1084 1.383 . S
C1083 H1091 0.929 . S
C1084 C1083 1.383 . S
C1084 C1085 1.377 . S
C1085 H1069 0.930 . S
C1085 C1084 1.377 . S
C1085 C1086 1.379 . S
C1086 H1070 0.931 . S
C1086 C1080 1.383 . S
C1086 C1085 1.379 . S
H1087 C1081 0.959 . S
H1088 C1081 0.961 . S
H1089 C1081 0.960 . S
H1090 C1082 0.930 . S
H1091 C1083 0.929 . S
H1092 C1100 0.929 . S
H1093 C1102 0.930 . S
H1094 C1104 0.930 . S
H1095 C1107 0.929 . S
H1096 C1110 0.930 . S
H1097 C1112 0.960 . S
H1098 C1112 0.960 . S
H1099 C1112 0.960 . S
C1100 H1092 0.929 . S
C1100 C1101 1.377 . S
C1100 C1102 1.384 . S
C1101 C1100 1.377 . S
C1101 C1107 1.390 . S
C1102 H1093 0.930 . S
C1102 C1100 1.384 . S
C1102 C1103 1.372 . S
C1103 C1102 1.372 . S
C1103 C1104 1.400 . S
C1103 C1108 1.490 . S
C1104 H1094 0.930 . S
C1104 C1103 1.400 . S
C1104 C1107 1.386 . S
H1105 C1121 0.930 . S
H1106 C1122 0.931 . S
C1107 H1095 0.929 . S
C1107 C1101 1.390 . S
C1107 C1104 1.386 . S
C1108 C1103 1.490 . S
C1108 C1110 1.395 . S
C1108 C1111 1.403 . S
H1109 C1115 0.930 . S
C1110 H1096 0.930 . S
C1110 C1108 1.395 . S
C1110 C1113 1.403 . S
C1111 C1108 1.403 . S
C1111 C1112 1.524 . S
C1111 C1115 1.400 . S
C1112 H1097 0.960 . S
C1112 H1098 0.960 . S
C1112 H1099 0.960 . S
C1112 C1111 1.524 . S
C1113 C1110 1.403 . S
C1113 C1114 1.392 . S
C1113 C1117 1.495 . S
C1114 C1113 1.392 . S
C1114 C1115 1.385 . S
C1114 C1116 1.478 . S
C1115 H1109 0.930 . S
C1115 C1111 1.400 . S
C1115 C1114 1.385 . S
C1116 C1114 1.478 . S
C1116 C1118 1.381 . S
C1116 C1122 1.383 . S
C1117 C1113 1.495 . S
C1117 H1123 0.959 . S
C1117 H1124 0.961 . S
C1117 H1125 0.960 . S
C1118 C1116 1.381 . S
C1118 C1119 1.394 . S
C1118 H1126 0.930 . S
C1119 C1118 1.394 . S
C1119 C1120 1.383 . S
C1119 H1127 0.929 . S
C1120 C1119 1.383 . S
C1120 C1121 1.377 1_556 S
C1121 H1105 0.930 . S
C1121 C1120 1.377 1_554 S
C1121 C1122 1.379 1_554 S
C1122 H1106 0.931 . S
C1122 C1116 1.383 . S
C1122 C1121 1.379 1_556 S
H1123 C1117 0.959 . S
H1124 C1117 0.961 . S
H1125 C1117 0.960 . S
H1126 C1118 0.930 . S
H1127 C1119 0.929 . S
H1128 C1136 0.929 . S
H1129 C1138 0.930 . S
H1130 C1140 0.930 . S
H1131 C1143 0.929 . S
H1132 C1146 0.930 . S
H1133 C1148 0.960 . S
H1134 C1148 0.960 . S
H1135 C1148 0.960 . S
C1136 H1128 0.929 . S
C1136 C1137 1.377 . S
C1136 C1138 1.384 . S
C1137 C1136 1.377 . S
C1137 C1143 1.390 . S
C1138 H1129 0.930 . S
C1138 C1136 1.384 . S
C1138 C1139 1.372 . S
C1139 C1138 1.372 . S
C1139 C1140 1.400 . S
C1139 C1144 1.490 . S
C1140 H1130 0.930 . S
C1140 C1139 1.400 . S
C1140 C1143 1.386 . S
H1141 C1157 0.930 . S
H1142 C1158 0.931 1_556 S
C1143 H1131 0.929 . S
C1143 C1137 1.390 . S
C1143 C1140 1.386 . S
C1144 C1139 1.490 . S
C1144 C1146 1.395 . S
C1144 C1147 1.403 . S
H1145 C1151 0.930 . S
C1146 H1132 0.930 . S
C1146 C1144 1.395 . S
C1146 C1149 1.403 . S
C1147 C1144 1.403 . S
C1147 C1148 1.524 . S
C1147 C1151 1.400 . S
C1148 H1133 0.960 . S
C1148 H1134 0.960 . S
C1148 H1135 0.960 . S
C1148 C1147 1.524 . S
C1149 C1146 1.403 . S
C1149 C1150 1.392 . S
C1149 C1153 1.495 . S
C1150 C1149 1.392 . S
C1150 C1151 1.385 . S
C1150 C1152 1.478 . S
C1151 H1145 0.930 . S
C1151 C1147 1.400 . S
C1151 C1150 1.385 . S
C1152 C1150 1.478 . S
C1152 C1154 1.381 . S
C1152 C1158 1.383 . S
C1153 C1149 1.495 . S
C1153 H1159 0.959 . S
C1153 H1160 0.961 . S
C1153 H1161 0.960 . S
C1154 C1152 1.381 . S
C1154 C1155 1.394 . S
C1154 H1162 0.930 . S
C1155 C1154 1.394 . S
C1155 C1156 1.383 . S
C1155 H1163 0.929 . S
C1156 C1155 1.383 . S
C1156 C1157 1.377 1_554 S
C1157 H1141 0.930 . S
C1157 C1156 1.377 1_556 S
C1157 C1158 1.379 1_556 S
C1158 H1142 0.931 1_554 S
C1158 C1152 1.383 . S
C1158 C1157 1.379 1_554 S
H1159 C1153 0.959 . S
H1160 C1153 0.961 . S
H1161 C1153 0.960 . S
H1162 C1154 0.930 . S
H1163 C1155 0.929 . S
H1164 C1172 0.929 . S
H1165 C1174 0.930 . S
H1166 C1176 0.930 . S
H1167 C1179 0.929 . S
H1168 C1182 0.930 . S
H1169 C1184 0.960 . S
H1170 C1184 0.960 . S
H1171 C1184 0.960 . S
C1172 H1164 0.929 . S
C1172 C1173 1.377 . S
C1172 C1174 1.384 . S
C1173 C1172 1.377 . S
C1173 C1179 1.390 . S
C1174 H1165 0.930 . S
C1174 C1172 1.384 . S
C1174 C1175 1.372 . S
C1175 C1174 1.372 . S
C1175 C1176 1.400 . S
C1175 C1180 1.490 . S
C1176 H1166 0.930 . S
C1176 C1175 1.400 . S
C1176 C1179 1.386 . S
H1177 C1193 0.930 . S
H1178 C1194 0.931 . S
C1179 H1167 0.929 . S
C1179 C1173 1.390 . S
C1179 C1176 1.386 . S
C1180 C1175 1.490 . S
C1180 C1182 1.395 . S
C1180 C1183 1.403 . S
H1181 C1187 0.930 . S
C1182 H1168 0.930 . S
C1182 C1180 1.395 . S
C1182 C1185 1.403 . S
C1183 C1180 1.403 . S
C1183 C1184 1.524 . S
C1183 C1187 1.400 . S
C1184 H1169 0.960 . S
C1184 H1170 0.960 . S
C1184 H1171 0.960 . S
C1184 C1183 1.524 . S
C1185 C1182 1.403 . S
C1185 C1186 1.392 . S
C1185 C1189 1.495 . S
C1186 C1185 1.392 . S
C1186 C1187 1.385 . S
C1186 C1188 1.478 . S
C1187 H1181 0.930 . S
C1187 C1183 1.400 . S
C1187 C1186 1.385 . S
C1188 C1186 1.478 . S
C1188 C1190 1.381 . S
C1188 C1194 1.383 . S
C1189 C1185 1.495 . S
C1189 H1195 0.959 . S
C1189 H1196 0.961 . S
C1189 H1197 0.960 . S
C1190 C1188 1.381 . S
C1190 C1191 1.394 . S
C1190 H1198 0.930 . S
C1191 C1190 1.394 . S
C1191 C1192 1.383 . S
C1191 H1199 0.929 . S
C1192 C1191 1.383 . S
C1192 C1193 1.377 . S
C1193 H1177 0.930 . S
C1193 C1192 1.377 . S
C1193 C1194 1.379 . S
C1194 H1178 0.931 . S
C1194 C1188 1.383 . S
C1194 C1193 1.379 . S
H1195 C1189 0.959 . S
H1196 C1189 0.961 . S
H1197 C1189 0.960 . S
H1198 C1190 0.930 . S
H1199 C1191 0.929 . S
H1200 C1208 0.929 . S
H1201 C1210 0.930 . S
H1202 C1212 0.930 . S
H1203 C1215 0.929 . S
H1204 C1218 0.930 . S
H1205 C1220 0.960 . S
H1206 C1220 0.960 . S
H1207 C1220 0.960 . S
C1208 H1200 0.929 . S
C1208 C1209 1.377 . S
C1208 C1210 1.384 . S
C1209 C1208 1.377 . S
C1209 C1215 1.390 . S
C1210 H1201 0.930 . S
C1210 C1208 1.384 . S
C1210 C1211 1.372 . S
C1211 C1210 1.372 . S
C1211 C1212 1.400 . S
C1211 C1216 1.490 . S
C1212 H1202 0.930 . S
C1212 C1211 1.400 . S
C1212 C1215 1.386 . S
H1213 C1229 0.930 . S
H1214 C1230 0.931 . S
C1215 H1203 0.929 . S
C1215 C1209 1.390 . S
C1215 C1212 1.386 . S
C1216 C1211 1.490 . S
C1216 C1218 1.395 . S
C1216 C1219 1.403 . S
H1217 C1223 0.930 . S
C1218 H1204 0.930 . S
C1218 C1216 1.395 . S
C1218 C1221 1.403 . S
C1219 C1216 1.403 . S
C1219 C1220 1.524 . S
C1219 C1223 1.400 . S
C1220 H1205 0.960 . S
C1220 H1206 0.960 . S
C1220 H1207 0.960 . S
C1220 C1219 1.524 . S
C1221 C1218 1.403 . S
C1221 C1222 1.392 . S
C1221 C1225 1.495 . S
C1222 C1221 1.392 . S
C1222 C1223 1.385 . S
C1222 C1224 1.478 . S
C1223 H1217 0.930 . S
C1223 C1219 1.400 . S
C1223 C1222 1.385 . S
C1224 C1222 1.478 . S
C1224 C1226 1.381 . S
C1224 C1230 1.383 . S
C1225 C1221 1.495 . S
C1225 H1231 0.959 . S
C1225 H1232 0.961 . S
C1225 H1233 0.960 . S
C1226 C1224 1.381 . S
C1226 C1227 1.394 . S
C1226 H1234 0.930 . S
C1227 C1226 1.394 . S
C1227 C1228 1.383 . S
C1227 H1235 0.929 . S
C1228 C1227 1.383 . S
C1228 C1229 1.377 . S
C1229 H1213 0.930 . S
C1229 C1228 1.377 . S
C1229 C1230 1.379 . S
C1230 H1214 0.931 . S
C1230 C1224 1.383 . S
C1230 C1229 1.379 . S
H1231 C1225 0.959 . S
H1232 C1225 0.961 . S
H1233 C1225 0.960 . S
H1234 C1226 0.930 . S
H1235 C1227 0.929 . S
H1236 C1244 0.929 . S
H1237 C1246 0.930 . S
H1238 C1248 0.930 . S
H1239 C1251 0.929 1_556 S
H1240 C1254 0.930 . S
H1241 C1256 0.960 . S
H1242 C1256 0.960 . S
H1243 C1256 0.960 . S
C1244 H1236 0.929 . S
C1244 C1245 1.377 . S
C1244 C1246 1.384 . S
C1245 C1244 1.377 . S
C1245 C1251 1.390 . S
C1246 H1237 0.930 . S
C1246 C1244 1.384 . S
C1246 C1247 1.372 . S
C1247 C1246 1.372 . S
C1247 C1248 1.400 . S
C1247 C1252 1.490 . S
C1248 H1238 0.930 . S
C1248 C1247 1.400 . S
C1248 C1251 1.386 . S
H1249 C1265 0.930 . S
H1250 C1266 0.931 . S
C1251 H1239 0.929 1_554 S
C1251 C1245 1.390 . S
C1251 C1248 1.386 . S
C1252 C1247 1.490 . S
C1252 C1254 1.395 . S
C1252 C1255 1.403 . S
H1253 C1259 0.930 . S
C1254 H1240 0.930 . S
C1254 C1252 1.395 . S
C1254 C1257 1.403 . S
C1255 C1252 1.403 . S
C1255 C1256 1.524 . S
C1255 C1259 1.400 . S
C1256 H1241 0.960 . S
C1256 H1242 0.960 . S
C1256 H1243 0.960 . S
C1256 C1255 1.524 . S
C1257 C1254 1.403 . S
C1257 C1258 1.392 . S
C1257 C1261 1.495 . S
C1258 C1257 1.392 . S
C1258 C1259 1.385 . S
C1258 C1260 1.478 . S
C1259 H1253 0.930 . S
C1259 C1255 1.400 . S
C1259 C1258 1.385 . S
C1260 C1258 1.478 . S
C1260 C1262 1.381 . S
C1260 C1266 1.383 . S
C1261 C1257 1.495 . S
C1261 H1267 0.959 . S
C1261 H1268 0.961 . S
C1261 H1269 0.960 . S
C1262 C1260 1.381 . S
C1262 C1263 1.394 . S
C1262 H1270 0.930 . S
C1263 C1262 1.394 . S
C1263 C1264 1.383 . S
C1263 H1271 0.929 . S
C1264 C1263 1.383 . S
C1264 C1265 1.377 . S
C1265 H1249 0.930 . S
C1265 C1264 1.377 . S
C1265 C1266 1.379 . S
C1266 H1250 0.931 . S
C1266 C1260 1.383 . S
C1266 C1265 1.379 . S
H1267 C1261 0.959 . S
H1268 C1261 0.961 . S
H1269 C1261 0.960 . S
H1270 C1262 0.930 . S
H1271 C1263 0.929 . S
H1272 C1280 0.929 . S
H1273 C1282 0.930 . S
H1274 C1284 0.930 . S
H1275 C1287 0.929 . S
H1276 C1290 0.930 . S
H1277 C1292 0.960 . S
H1278 C1292 0.960 . S
H1279 C1292 0.960 . S
C1280 H1272 0.929 . S
C1280 C1281 1.377 . S
C1280 C1282 1.384 . S
C1281 C1280 1.377 . S
C1281 C1287 1.390 . S
C1282 H1273 0.930 . S
C1282 C1280 1.384 . S
C1282 C1283 1.372 . S
C1283 C1282 1.372 . S
C1283 C1284 1.400 . S
C1283 C1288 1.490 . S
C1284 H1274 0.930 . S
C1284 C1283 1.400 . S
C1284 C1287 1.386 . S
H1285 C1301 0.930 1_554 S
H1286 C1302 0.931 . S
C1287 H1275 0.929 . S
C1287 C1281 1.390 . S
C1287 C1284 1.386 . S
C1288 C1283 1.490 . S
C1288 C1290 1.395 . S
C1288 C1291 1.403 . S
H1289 C1295 0.930 . S
C1290 H1276 0.930 . S
C1290 C1288 1.395 . S
C1290 C1293 1.403 . S
C1291 C1288 1.403 . S
C1291 C1292 1.524 . S
C1291 C1295 1.400 . S
C1292 H1277 0.960 . S
C1292 H1278 0.960 . S
C1292 H1279 0.960 . S
C1292 C1291 1.524 . S
C1293 C1290 1.403 . S
C1293 C1294 1.392 . S
C1293 C1297 1.495 . S
C1294 C1293 1.392 . S
C1294 C1295 1.385 . S
C1294 C1296 1.478 . S
C1295 H1289 0.930 . S
C1295 C1291 1.400 . S
C1295 C1294 1.385 . S
C1296 C1294 1.478 . S
C1296 C1298 1.381 . S
C1296 C1302 1.383 . S
C1297 C1293 1.495 . S
C1297 H1303 0.959 . S
C1297 H1304 0.961 . S
C1297 H1305 0.960 . S
C1298 C1296 1.381 . S
C1298 C1299 1.394 . S
C1298 H1306 0.930 . S
C1299 C1298 1.394 . S
C1299 C1300 1.383 . S
C1299 H1307 0.929 . S
C1300 C1299 1.383 . S
C1300 C1301 1.377 . S
C1301 H1285 0.930 1_556 S
C1301 C1300 1.377 . S
C1301 C1302 1.379 . S
C1302 H1286 0.931 . S
C1302 C1296 1.383 . S
C1302 C1301 1.379 . S
H1303 C1297 0.959 . S
H1304 C1297 0.961 . S
H1305 C1297 0.960 . S
H1306 C1298 0.930 . S
H1307 C1299 0.929 . S
H1308 C1316 0.929 . S
H1309 C1318 0.930 . S
H1310 C1320 0.930 . S
H1311 C1323 0.929 . S
H1312 C1326 0.930 . S
H1313 C1328 0.960 . S
H1314 C1328 0.960 . S
H1315 C1328 0.960 . S
C1316 H1308 0.929 . S
C1316 C1317 1.377 . S
C1316 C1318 1.384 . S
C1317 C1316 1.377 . S
C1317 C1323 1.390 . S
C1318 H1309 0.930 . S
C1318 C1316 1.384 . S
C1318 C1319 1.372 . S
C1319 C1318 1.372 . S
C1319 C1320 1.400 . S
C1319 C1324 1.490 . S
C1320 H1310 0.930 . S
C1320 C1319 1.400 . S
C1320 C1323 1.386 . S
H1321 C1337 0.930 . S
H1322 C1338 0.931 . S
C1323 H1311 0.929 . S
C1323 C1317 1.390 . S
C1323 C1320 1.386 . S
C1324 C1319 1.490 . S
C1324 C1326 1.395 . S
C1324 C1327 1.403 . S
H1325 C1331 0.930 . S
C1326 H1312 0.930 . S
C1326 C1324 1.395 . S
C1326 C1329 1.403 . S
C1327 C1324 1.403 . S
C1327 C1328 1.524 . S
C1327 C1331 1.400 . S
C1328 H1313 0.960 . S
C1328 H1314 0.960 . S
C1328 H1315 0.960 . S
C1328 C1327 1.524 . S
C1329 C1326 1.403 . S
C1329 C1330 1.392 . S
C1329 C1333 1.495 . S
C1330 C1329 1.392 . S
C1330 C1331 1.385 . S
C1330 C1332 1.478 . S
C1331 H1325 0.930 . S
C1331 C1327 1.400 . S
C1331 C1330 1.385 . S
C1332 C1330 1.478 . S
C1332 C1334 1.381 . S
C1332 C1338 1.383 . S
C1333 C1329 1.495 . S
C1333 H1339 0.959 . S
C1333 H1340 0.961 . S
C1333 H1341 0.960 . S
C1334 C1332 1.381 . S
C1334 C1335 1.394 . S
C1334 H1342 0.930 . S
C1335 C1334 1.394 . S
C1335 C1336 1.383 . S
C1335 H1343 0.929 . S
C1336 C1335 1.383 . S
C1336 C1337 1.377 . S
C1337 H1321 0.930 . S
C1337 C1336 1.377 . S
C1337 C1338 1.379 . S
C1338 H1322 0.931 . S
C1338 C1332 1.383 . S
C1338 C1337 1.379 . S
H1339 C1333 0.959 . S
H1340 C1333 0.961 . S
H1341 C1333 0.960 . S
H1342 C1334 0.930 . S
H1343 C1335 0.929 . S
H1344 C1352 0.929 . S
H1345 C1354 0.930 . S
H1346 C1356 0.930 . S
H1347 C1359 0.929 . S
H1348 C1362 0.930 . S
H1349 C1364 0.960 . S
H1350 C1364 0.960 . S
H1351 C1364 0.960 . S
C1352 H1344 0.929 . S
C1352 C1353 1.377 . S
C1352 C1354 1.384 . S
C1353 C1352 1.377 . S
C1353 C1359 1.390 1_554 S
C1354 H1345 0.930 . S
C1354 C1352 1.384 . S
C1354 C1355 1.372 . S
C1355 C1354 1.372 . S
C1355 C1356 1.400 . S
C1355 C1360 1.490 . S
C1356 H1346 0.930 . S
C1356 C1355 1.400 . S
C1356 C1359 1.386 1_554 S
H1357 C1373 0.930 . S
H1358 C1374 0.931 . S
C1359 H1347 0.929 . S
C1359 C1353 1.390 1_556 S
C1359 C1356 1.386 1_556 S
C1360 C1355 1.490 . S
C1360 C1362 1.395 . S
C1360 C1363 1.403 . S
H1361 C1367 0.930 . S
C1362 H1348 0.930 . S
C1362 C1360 1.395 . S
C1362 C1365 1.403 . S
C1363 C1360 1.403 . S
C1363 C1364 1.524 . S
C1363 C1367 1.400 . S
C1364 H1349 0.960 . S
C1364 H1350 0.960 . S
C1364 H1351 0.960 . S
C1364 C1363 1.524 . S
C1365 C1362 1.403 . S
C1365 C1366 1.392 . S
C1365 C1369 1.495 . S
C1366 C1365 1.392 . S
C1366 C1367 1.385 . S
C1366 C1368 1.478 . S
C1367 H1361 0.930 . S
C1367 C1363 1.400 . S
C1367 C1366 1.385 . S
C1368 C1366 1.478 . S
C1368 C1370 1.381 . S
C1368 C1374 1.383 . S
C1369 C1365 1.495 . S
C1369 H1375 0.959 . S
C1369 H1376 0.961 . S
C1369 H1377 0.960 . S
C1370 C1368 1.381 . S
C1370 C1371 1.394 . S
C1370 H1378 0.930 . S
C1371 C1370 1.394 . S
C1371 C1372 1.383 . S
C1371 H1379 0.929 . S
C1372 C1371 1.383 . S
C1372 C1373 1.377 . S
C1373 H1357 0.930 . S
C1373 C1372 1.377 . S
C1373 C1374 1.379 . S
C1374 H1358 0.931 . S
C1374 C1368 1.383 . S
C1374 C1373 1.379 . S
H1375 C1369 0.959 . S
H1376 C1369 0.961 . S
H1377 C1369 0.960 . S
H1378 C1370 0.930 . S
H1379 C1371 0.929 . S
H1380 C1388 0.929 . S
H1381 C1390 0.930 . S
H1382 C1392 0.930 . S
H1383 C1395 0.929 . S
H1384 C1398 0.930 . S
H1385 C1400 0.960 . S
H1386 C1400 0.960 . S
H1387 C1400 0.960 . S
C1388 H1380 0.929 . S
C1388 C1389 1.377 . S
C1388 C1390 1.384 . S
C1389 C1388 1.377 . S
C1389 C1395 1.390 . S
C1390 H1381 0.930 . S
C1390 C1388 1.384 . S
C1390 C1391 1.372 . S
C1391 C1390 1.372 . S
C1391 C1392 1.400 . S
C1391 C1396 1.490 . S
C1392 H1382 0.930 . S
C1392 C1391 1.400 . S
C1392 C1395 1.386 . S
H1393 C1409 0.930 . S
H1394 C1410 0.931 . S
C1395 H1383 0.929 . S
C1395 C1389 1.390 . S
C1395 C1392 1.386 . S
C1396 C1391 1.490 . S
C1396 C1398 1.395 . S
C1396 C1399 1.403 . S
H1397 C1403 0.930 . S
C1398 H1384 0.930 . S
C1398 C1396 1.395 . S
C1398 C1401 1.403 . S
C1399 C1396 1.403 . S
C1399 C1400 1.524 . S
C1399 C1403 1.400 . S
C1400 H1385 0.960 . S
C1400 H1386 0.960 . S
C1400 H1387 0.960 . S
C1400 C1399 1.524 . S
C1401 C1398 1.403 . S
C1401 C1402 1.392 . S
C1401 C1405 1.495 . S
C1402 C1401 1.392 . S
C1402 C1403 1.385 . S
C1402 C1404 1.478 . S
C1403 H1397 0.930 . S
C1403 C1399 1.400 . S
C1403 C1402 1.385 . S
C1404 C1402 1.478 . S
C1404 C1406 1.381 . S
C1404 C1410 1.383 . S
C1405 C1401 1.495 . S
C1405 H1411 0.959 . S
C1405 H1412 0.961 . S
C1405 H1413 0.960 . S
C1406 C1404 1.381 . S
C1406 C1407 1.394 . S
C1406 H1414 0.930 . S
C1407 C1406 1.394 . S
C1407 C1408 1.383 . S
C1407 H1415 0.929 . S
C1408 C1407 1.383 . S
C1408 C1409 1.377 . S
C1409 H1393 0.930 . S
C1409 C1408 1.377 . S
C1409 C1410 1.379 . S
C1410 H1394 0.931 . S
C1410 C1404 1.383 . S
C1410 C1409 1.379 . S
H1411 C1405 0.959 . S
H1412 C1405 0.961 . S
H1413 C1405 0.960 . S
H1414 C1406 0.930 . S
H1415 C1407 0.929 . S
H1416 C1424 0.929 . S
H1417 C1426 0.930 . S
H1418 C1428 0.930 . S
H1419 C1431 0.929 . S
H1420 C1434 0.930 . S
H1421 C1436 0.960 . S
H1422 C1436 0.960 . S
H1423 C1436 0.960 . S
C1424 H1416 0.929 . S
C1424 C1425 1.377 . S
C1424 C1426 1.384 . S
C1425 C1424 1.377 . S
C1425 C1431 1.390 . S
C1426 H1417 0.930 . S
C1426 C1424 1.384 . S
C1426 C1427 1.372 . S
C1427 C1426 1.372 . S
C1427 C1428 1.400 . S
C1427 C1432 1.490 . S
C1428 H1418 0.930 . S
C1428 C1427 1.400 . S
C1428 C1431 1.386 . S
H1429 C1445 0.930 . S
H1430 C1446 0.931 . S
C1431 H1419 0.929 . S
C1431 C1425 1.390 . S
C1431 C1428 1.386 . S
C1432 C1427 1.490 . S
C1432 C1434 1.395 . S
C1432 C1435 1.403 . S
H1433 C1439 0.930 . S
C1434 H1420 0.930 . S
C1434 C1432 1.395 . S
C1434 C1437 1.403 . S
C1435 C1432 1.403 . S
C1435 C1436 1.524 . S
C1435 C1439 1.400 . S
C1436 H1421 0.960 . S
C1436 H1422 0.960 . S
C1436 H1423 0.960 . S
C1436 C1435 1.524 . S
C1437 C1434 1.403 . S
C1437 C1438 1.392 . S
C1437 C1441 1.495 . S
C1438 C1437 1.392 . S
C1438 C1439 1.385 . S
C1438 C1440 1.478 . S
C1439 H1433 0.930 . S
C1439 C1435 1.400 . S
C1439 C1438 1.385 . S
C1440 C1438 1.478 . S
C1440 C1442 1.381 . S
C1440 C1446 1.383 . S
C1441 C1437 1.495 . S
C1441 H1447 0.959 . S
C1441 H1448 0.961 . S
C1441 H1449 0.960 . S
C1442 C1440 1.381 . S
C1442 C1443 1.394 . S
C1442 H1450 0.930 . S
C1443 C1442 1.394 . S
C1443 C1444 1.383 . S
C1443 H1451 0.929 . S
C1444 C1443 1.383 . S
C1444 C1445 1.377 . S
C1445 H1429 0.930 . S
C1445 C1444 1.377 . S
C1445 C1446 1.379 . S
C1446 H1430 0.931 . S
C1446 C1440 1.383 . S
C1446 C1445 1.379 . S
H1447 C1441 0.959 . S
H1448 C1441 0.961 . S
H1449 C1441 0.960 . S
H1450 C1442 0.930 . S
H1451 C1443 0.929 . S
H1452 C1460 0.929 . S
H1453 C1462 0.930 . S
H1454 C1464 0.930 . S
H1455 C1467 0.929 . S
H1456 C1470 0.930 . S
H1457 C1472 0.960 . S
H1458 C1472 0.960 . S
H1459 C1472 0.960 . S
C1460 H1452 0.929 . S
C1460 C1461 1.377 . S
C1460 C1462 1.384 . S
C1461 C1460 1.377 . S
C1461 C1467 1.390 . S
C1462 H1453 0.930 . S
C1462 C1460 1.384 . S
C1462 C1463 1.372 . S
C1463 C1462 1.372 . S
C1463 C1464 1.400 . S
C1463 C1468 1.490 . S
C1464 H1454 0.930 . S
C1464 C1463 1.400 . S
C1464 C1467 1.386 . S
H1465 C1481 0.930 . S
H1466 C1482 0.931 1_554 S
C1467 H1455 0.929 . S
C1467 C1461 1.390 . S
C1467 C1464 1.386 . S
C1468 C1463 1.490 . S
C1468 C1470 1.395 . S
C1468 C1471 1.403 . S
H1469 C1475 0.930 . S
C1470 H1456 0.930 . S
C1470 C1468 1.395 . S
C1470 C1473 1.403 . S
C1471 C1468 1.403 . S
C1471 C1472 1.524 . S
C1471 C1475 1.400 . S
C1472 H1457 0.960 . S
C1472 H1458 0.960 . S
C1472 H1459 0.960 . S
C1472 C1471 1.524 . S
C1473 C1470 1.403 . S
C1473 C1474 1.392 . S
C1473 C1477 1.495 . S
C1474 C1473 1.392 . S
C1474 C1475 1.385 . S
C1474 C1476 1.478 . S
C1475 H1469 0.930 . S
C1475 C1471 1.400 . S
C1475 C1474 1.385 . S
C1476 C1474 1.478 . S
C1476 C1478 1.381 . S
C1476 C1482 1.383 . S
C1477 C1473 1.495 . S
C1477 H1483 0.959 . S
C1477 H1484 0.961 . S
C1477 H1485 0.960 . S
C1478 C1476 1.381 . S
C1478 C1479 1.394 . S
C1478 H1486 0.930 . S
C1479 C1478 1.394 . S
C1479 C1480 1.383 . S
C1479 H1487 0.929 . S
C1480 C1479 1.383 . S
C1480 C1481 1.377 1_556 S
C1481 H1465 0.930 . S
C1481 C1480 1.377 1_554 S
C1481 C1482 1.379 1_554 S
C1482 H1466 0.931 1_556 S
C1482 C1476 1.383 . S
C1482 C1481 1.379 1_556 S
H1483 C1477 0.959 . S
H1484 C1477 0.961 . S
H1485 C1477 0.960 . S
H1486 C1478 0.930 . S
H1487 C1479 0.929 . S
H1488 C1496 0.929 . S
H1489 C1498 0.930 . S
H1490 C1500 0.930 . S
H1491 C1503 0.929 . S
H1492 C1506 0.930 . S
H1493 C1508 0.960 . S
H1494 C1508 0.960 . S
H1495 C1508 0.960 . S
C1496 H1488 0.929 . S
C1496 C1497 1.377 . S
C1496 C1498 1.384 . S
C1497 C1496 1.377 . S
C1497 C1503 1.390 . S
C1498 H1489 0.930 . S
C1498 C1496 1.384 . S
C1498 C1499 1.372 . S
C1499 C1498 1.372 . S
C1499 C1500 1.400 . S
C1499 C1504 1.490 . S
C1500 H1490 0.930 . S
C1500 C1499 1.400 . S
C1500 C1503 1.386 . S
H1501 C1517 0.930 . S
H1502 C1518 0.931 . S
C1503 H1491 0.929 . S
C1503 C1497 1.390 . S
C1503 C1500 1.386 . S
C1504 C1499 1.490 . S
C1504 C1506 1.395 . S
C1504 C1507 1.403 . S
H1505 C1511 0.930 . S
C1506 H1492 0.930 . S
C1506 C1504 1.395 . S
C1506 C1509 1.403 . S
C1507 C1504 1.403 . S
C1507 C1508 1.524 . S
C1507 C1511 1.400 . S
C1508 H1493 0.960 . S
C1508 H1494 0.960 . S
C1508 H1495 0.960 . S
C1508 C1507 1.524 . S
C1509 C1506 1.403 . S
C1509 C1510 1.392 . S
C1509 C1513 1.495 . S
C1510 C1509 1.392 . S
C1510 C1511 1.385 . S
C1510 C1512 1.478 . S
C1511 H1505 0.930 . S
C1511 C1507 1.400 . S
C1511 C1510 1.385 . S
C1512 C1510 1.478 . S
C1512 C1514 1.381 . S
C1512 C1518 1.383 . S
C1513 C1509 1.495 . S
C1513 H1519 0.959 1_556 S
C1513 H1520 0.961 1_556 S
C1513 H1521 0.960 1_556 S
C1514 C1512 1.381 . S
C1514 C1515 1.388 1_556 S
C1514 H1522 0.930 . S
C1515 C1514 1.388 1_554 S
C1515 C1516 1.380 1_554 S
C1515 H1523 0.939 . S
C1516 C1515 1.380 1_556 S
C1516 C1517 1.377 . S
C1517 H1501 0.930 . S
C1517 C1516 1.377 . S
C1517 C1518 1.379 . S
C1518 H1502 0.931 . S
C1518 C1512 1.383 . S
C1518 C1517 1.379 . S
H1519 C1513 0.959 1_554 S
H1520 C1513 0.961 1_554 S
H1521 C1513 0.960 1_554 S
H1522 C1514 0.930 . S
H1523 C1515 0.939 . S
H1524 C1532 0.929 . S
H1525 C1534 0.930 . S
H1526 C1536 0.930 . S
H1527 C1539 0.929 . S
H1528 C1542 0.930 . S
H1529 C1544 0.960 . S
H1530 C1544 0.960 . S
H1531 C1544 0.960 . S
C1532 H1524 0.929 . S
C1532 C1533 1.377 . S
C1532 C1534 1.384 . S
C1533 C1532 1.377 . S
C1533 C1539 1.390 . S
C1534 H1525 0.930 . S
C1534 C1532 1.384 . S
C1534 C1535 1.372 . S
C1535 C1534 1.372 . S
C1535 C1536 1.400 . S
C1535 C1540 1.490 . S
C1536 H1526 0.930 . S
C1536 C1535 1.400 . S
C1536 C1539 1.386 . S
H1537 C1553 0.930 . S
H1538 C1554 0.931 . S
C1539 H1527 0.929 . S
C1539 C1533 1.390 . S
C1539 C1536 1.386 . S
C1540 C1535 1.490 . S
C1540 C1542 1.395 . S
C1540 C1543 1.403 . S
H1541 C1547 0.930 . S
C1542 H1528 0.930 . S
C1542 C1540 1.395 . S
C1542 C1545 1.403 . S
C1543 C1540 1.403 . S
C1543 C1544 1.524 . S
C1543 C1547 1.400 . S
C1544 H1529 0.960 . S
C1544 H1530 0.960 . S
C1544 H1531 0.960 . S
C1544 C1543 1.524 . S
C1545 C1542 1.403 . S
C1545 C1546 1.392 . S
C1545 C1549 1.495 . S
C1546 C1545 1.392 . S
C1546 C1547 1.385 . S
C1546 C1548 1.478 . S
C1547 H1541 0.930 . S
C1547 C1543 1.400 . S
C1547 C1546 1.385 . S
C1548 C1546 1.478 . S
C1548 C1550 1.381 . S
C1548 C1554 1.383 . S
C1549 C1545 1.495 . S
C1549 H1555 0.959 . S
C1549 H1556 0.961 . S
C1549 H1557 0.960 . S
C1550 C1548 1.381 . S
C1550 C1551 1.394 . S
C1550 H1558 0.930 . S
C1551 C1550 1.394 . S
C1551 C1552 1.383 . S
C1551 H1559 0.929 . S
C1552 C1551 1.383 . S
C1552 C1553 1.377 . S
C1553 H1537 0.930 . S
C1553 C1552 1.377 . S
C1553 C1554 1.379 . S
C1554 H1538 0.931 . S
C1554 C1548 1.383 . S
C1554 C1553 1.379 . S
H1555 C1549 0.959 . S
H1556 C1549 0.961 . S
H1557 C1549 0.960 . S
H1558 C1550 0.930 . S
H1559 C1551 0.929 . S
H1560 C1568 0.929 . S
H1561 C1570 0.930 . S
H1562 C1572 0.930 . S
H1563 C1575 0.929 . S
H1564 C1578 0.930 . S
H1565 C1580 0.960 . S
H1566 C1580 0.960 . S
H1567 C1580 0.960 . S
C1568 H1560 0.929 . S
C1568 C1569 1.377 . S
C1568 C1570 1.384 . S
C1569 C1568 1.377 . S
C1569 C1575 1.390 . S
C1570 H1561 0.930 . S
C1570 C1568 1.384 . S
C1570 C1571 1.372 . S
C1571 C1570 1.372 . S
C1571 C1572 1.400 . S
C1571 C1576 1.490 . S
C1572 H1562 0.930 . S
C1572 C1571 1.400 . S
C1572 C1575 1.386 . S
H1573 C1589 0.930 . S
H1574 C1590 0.931 . S
C1575 H1563 0.929 . S
C1575 C1569 1.390 . S
C1575 C1572 1.386 . S
C1576 C1571 1.490 . S
C1576 C1578 1.395 . S
C1576 C1579 1.403 . S
H1577 C1583 0.930 . S
C1578 H1564 0.930 . S
C1578 C1576 1.395 . S
C1578 C1581 1.403 . S
C1579 C1576 1.403 . S
C1579 C1580 1.524 . S
C1579 C1583 1.400 . S
C1580 H1565 0.960 . S
C1580 H1566 0.960 . S
C1580 H1567 0.960 . S
C1580 C1579 1.524 . S
C1581 C1578 1.403 . S
C1581 C1582 1.392 . S
C1581 C1585 1.495 . S
C1582 C1581 1.392 . S
C1582 C1583 1.385 . S
C1582 C1584 1.478 . S
C1583 H1577 0.930 . S
C1583 C1579 1.400 . S
C1583 C1582 1.385 . S
C1584 C1582 1.478 . S
C1584 C1586 1.381 . S
C1584 C1590 1.383 . S
C1585 C1581 1.495 . S
C1585 H1591 0.959 . S
C1585 H1592 0.961 . S
C1585 H1593 0.960 . S
C1586 C1584 1.381 . S
C1586 C1587 1.394 . S
C1586 H1594 0.930 . S
C1587 C1586 1.394 . S
C1587 C1588 1.383 . S
C1587 H1595 0.929 . S
C1588 C1587 1.383 . S
C1588 C1589 1.377 . S
C1589 H1573 0.930 . S
C1589 C1588 1.377 . S
C1589 C1590 1.379 . S
C1590 H1574 0.931 . S
C1590 C1584 1.383 . S
C1590 C1589 1.379 . S
H1591 C1585 0.959 . S
H1592 C1585 0.961 . S
H1593 C1585 0.960 . S
H1594 C1586 0.930 . S
H1595 C1587 0.929 . S
H1596 C1604 0.929 . S
H1597 C1606 0.930 . S
H1598 C1608 0.930 . S
H1599 C1611 0.929 . S
H1600 C1614 0.930 . S
H1601 C1616 0.960 . S
H1602 C1616 0.960 . S
H1603 C1616 0.960 . S
C1604 H1596 0.929 . S
C1604 C1605 1.377 . S
C1604 C1606 1.384 . S
C1605 C1604 1.377 . S
C1605 C1611 1.390 . S
C1606 H1597 0.930 . S
C1606 C1604 1.384 . S
C1606 C1607 1.372 . S
C1607 C1606 1.372 . S
C1607 C1608 1.400 . S
C1607 C1612 1.490 . S
C1608 H1598 0.930 . S
C1608 C1607 1.400 . S
C1608 C1611 1.386 . S
H1609 C1625 0.930 . S
H1610 C1626 0.931 . S
C1611 H1599 0.929 . S
C1611 C1605 1.390 . S
C1611 C1608 1.386 . S
C1612 C1607 1.490 . S
C1612 C1614 1.395 . S
C1612 C1615 1.403 . S
H1613 C1619 0.930 . S
C1614 H1600 0.930 . S
C1614 C1612 1.395 . S
C1614 C1617 1.403 . S
C1615 C1612 1.403 . S
C1615 C1616 1.524 . S
C1615 C1619 1.400 . S
C1616 H1601 0.960 . S
C1616 H1602 0.960 . S
C1616 H1603 0.960 . S
C1616 C1615 1.524 . S
C1617 C1614 1.403 . S
C1617 C1618 1.392 . S
C1617 C1621 1.495 . S
C1618 C1617 1.392 . S
C1618 C1619 1.385 . S
C1618 C1620 1.478 . S
C1619 H1613 0.930 . S
C1619 C1615 1.400 . S
C1619 C1618 1.385 . S
C1620 C1618 1.478 . S
C1620 C1622 1.381 . S
C1620 C1626 1.383 . S
C1621 C1617 1.495 . S
C1621 H1627 0.959 . S
C1621 H1628 0.961 . S
C1621 H1629 0.960 . S
C1622 C1620 1.381 . S
C1622 C1623 1.394 1_554 S
C1622 H1630 0.930 . S
C1623 C1622 1.394 1_556 S
C1623 C1624 1.383 1_556 S
C1623 H1631 0.929 . S
C1624 C1623 1.383 1_554 S
C1624 C1625 1.377 . S
C1625 H1609 0.930 . S
C1625 C1624 1.377 . S
C1625 C1626 1.379 . S
C1626 H1610 0.931 . S
C1626 C1620 1.383 . S
C1626 C1625 1.379 . S
H1627 C1621 0.959 . S
H1628 C1621 0.961 . S
H1629 C1621 0.960 . S
H1630 C1622 0.930 . S
H1631 C1623 0.929 . S
H1632 C1640 0.929 . S
H1633 C1642 0.930 . S
H1634 C1644 0.930 . S
H1635 C1647 0.929 . S
H1636 C1650 0.930 . S
H1637 C1652 0.960 . S
H1638 C1652 0.960 . S
H1639 C1652 0.960 . S
C1640 H1632 0.929 . S
C1640 C1641 1.377 . S
C1640 C1642 1.384 . S
C1641 C1640 1.377 . S
C1641 C1647 1.390 . S
C1642 H1633 0.930 . S
C1642 C1640 1.384 . S
C1642 C1643 1.372 . S
C1643 C1642 1.372 . S
C1643 C1644 1.400 . S
C1643 C1648 1.490 . S
C1644 H1634 0.930 . S
C1644 C1643 1.400 . S
C1644 C1647 1.386 . S
H1645 C1661 0.930 . S
H1646 C1662 0.931 . S
C1647 H1635 0.929 . S
C1647 C1641 1.390 . S
C1647 C1644 1.386 . S
C1648 C1643 1.490 . S
C1648 C1650 1.395 . S
C1648 C1651 1.403 . S
H1649 C1655 0.930 . S
C1650 H1636 0.930 . S
C1650 C1648 1.395 . S
C1650 C1653 1.403 . S
C1651 C1648 1.403 . S
C1651 C1652 1.524 . S
C1651 C1655 1.400 . S
C1652 H1637 0.960 . S
C1652 H1638 0.960 . S
C1652 H1639 0.960 . S
C1652 C1651 1.524 . S
C1653 C1650 1.403 . S
C1653 C1654 1.392 . S
C1653 C1657 1.495 . S
C1654 C1653 1.392 . S
C1654 C1655 1.385 . S
C1654 C1656 1.478 . S
C1655 H1649 0.930 . S
C1655 C1651 1.400 . S
C1655 C1654 1.385 . S
C1656 C1654 1.478 . S
C1656 C1658 1.381 . S
C1656 C1662 1.383 . S
C1657 C1653 1.495 . S
C1657 H1663 0.959 . S
C1657 H1664 0.961 . S
C1657 H1665 0.960 . S
C1658 C1656 1.381 . S
C1658 C1659 1.394 . S
C1658 H1666 0.930 . S
C1659 C1658 1.394 . S
C1659 C1660 1.383 . S
C1659 H1667 0.929 . S
C1660 C1659 1.383 . S
C1660 C1661 1.377 . S
C1661 H1645 0.930 . S
C1661 C1660 1.377 . S
C1661 C1662 1.379 . S
C1662 H1646 0.931 . S
C1662 C1656 1.383 . S
C1662 C1661 1.379 . S
H1663 C1657 0.959 . S
H1664 C1657 0.961 . S
H1665 C1657 0.960 . S
H1666 C1658 0.930 . S
H1667 C1659 0.929 . S
H1668 C1676 0.929 . S
H1669 C1678 0.930 . S
H1670 C1680 0.930 . S
H1671 C1683 0.929 . S
H1672 C1686 0.930 . S
H1673 C1688 0.960 . S
H1674 C1688 0.960 . S
H1675 C1688 0.960 . S
C1676 H1668 0.929 . S
C1676 C1677 1.377 . S
C1676 C1678 1.384 . S
C1677 C1676 1.377 . S
C1677 C1683 1.390 . S
C1678 H1669 0.930 . S
C1678 C1676 1.384 . S
C1678 C1679 1.372 . S
C1679 C1678 1.372 . S
C1679 C1680 1.400 . S
C1679 C1684 1.490 . S
C1680 H1670 0.930 . S
C1680 C1679 1.400 . S
C1680 C1683 1.386 . S
H1681 C1697 0.930 . S
H1682 C1698 0.931 . S
C1683 H1671 0.929 . S
C1683 C1677 1.390 . S
C1683 C1680 1.386 . S
C1684 C1679 1.490 . S
C1684 C1686 1.395 . S
C1684 C1687 1.403 . S
H1685 C1691 0.930 . S
C1686 H1672 0.930 . S
C1686 C1684 1.395 . S
C1686 C1689 1.403 1_565 S
C1687 C1684 1.403 . S
C1687 C1688 1.524 . S
C1687 C1691 1.400 1_565 S
C1688 H1673 0.960 . S
C1688 H1674 0.960 . S
C1688 H1675 0.960 . S
C1688 C1687 1.524 . S
C1689 C1686 1.403 1_545 S
C1689 C1690 1.392 . S
C1689 C1693 1.495 . S
C1690 C1689 1.392 . S
C1690 C1691 1.385 . S
C1690 C1692 1.478 . S
C1691 H1685 0.930 . S
C1691 C1687 1.400 1_545 S
C1691 C1690 1.385 . S
C1692 C1690 1.478 . S
C1692 C1694 1.381 . S
C1692 C1698 1.383 . S
C1693 C1689 1.495 . S
C1693 H1699 0.959 . S
C1693 H1700 0.961 . S
C1693 H1701 0.960 . S
C1694 C1692 1.381 . S
C1694 C1695 1.394 . S
C1694 H1702 0.930 . S
C1695 C1694 1.394 . S
C1695 C1696 1.383 . S
C1695 H1703 0.929 . S
C1696 C1695 1.383 . S
C1696 C1697 1.377 . S
C1697 H1681 0.930 . S
C1697 C1696 1.377 . S
C1697 C1698 1.379 . S
C1698 H1682 0.931 . S
C1698 C1692 1.383 . S
C1698 C1697 1.379 . S
H1699 C1693 0.959 . S
H1700 C1693 0.961 . S
H1701 C1693 0.960 . S
H1702 C1694 0.930 . S
H1703 C1695 0.929 . S
H1704 C1712 0.929 . S
H1705 C1714 0.930 . S
H1706 C1716 0.930 . S
H1707 C1719 0.929 . S
H1708 C1722 0.930 . S
H1709 C1724 0.960 . S
H1710 C1724 0.960 . S
H1711 C1724 0.960 . S
C1712 H1704 0.929 . S
C1712 C1713 1.377 . S
C1712 C1714 1.384 . S
C1713 C1712 1.377 . S
C1713 C1719 1.390 . S
C1714 H1705 0.930 . S
C1714 C1712 1.384 . S
C1714 C1715 1.372 . S
C1715 C1714 1.372 . S
C1715 C1716 1.400 . S
C1715 C1720 1.490 . S
C1716 H1706 0.930 . S
C1716 C1715 1.400 . S
C1716 C1719 1.386 . S
H1717 C1733 0.930 . S
H1718 C1734 0.931 1_554 S
C1719 H1707 0.929 . S
C1719 C1713 1.390 . S
C1719 C1716 1.386 . S
C1720 C1715 1.490 . S
C1720 C1722 1.395 . S
C1720 C1723 1.403 1_554 S
H1721 C1727 0.930 . S
C1722 H1708 0.930 . S
C1722 C1720 1.395 . S
C1722 C1725 1.403 . S
C1723 C1720 1.403 1_556 S
C1723 C1724 1.524 . S
C1723 C1727 1.400 . S
C1724 H1709 0.960 . S
C1724 H1710 0.960 . S
C1724 H1711 0.960 . S
C1724 C1723 1.524 . S
C1725 C1722 1.403 . S
C1725 C1726 1.392 . S
C1725 C1729 1.495 . S
C1726 C1725 1.392 . S
C1726 C1727 1.385 1_554 S
C1726 C1728 1.477 1_554 S
C1727 H1721 0.930 . S
C1727 C1723 1.400 . S
C1727 C1726 1.385 1_556 S
C1728 C1726 1.477 1_556 S
C1728 C1730 1.382 . S
C1728 C1734 1.383 . S
C1729 C1725 1.495 . S
C1729 H1735 0.959 . S
C1729 H1736 0.961 . S
C1729 H1737 0.960 . S
C1730 C1728 1.382 . S
C1730 C1731 1.394 . S
C1730 H1738 0.930 . S
C1731 C1730 1.394 . S
C1731 C1732 1.383 . S
C1731 H1739 0.929 . S
C1732 C1731 1.383 . S
C1732 C1733 1.377 . S
C1733 H1717 0.930 . S
C1733 C1732 1.377 . S
C1733 C1734 1.379 . S
C1734 H1718 0.931 1_556 S
C1734 C1728 1.383 . S
C1734 C1733 1.379 . S
H1735 C1729 0.959 . S
H1736 C1729 0.961 . S
H1737 C1729 0.960 . S
H1738 C1730 0.930 . S
H1739 C1731 0.929 . S
H1740 C1748 0.929 . S
H1741 C1750 0.930 . S
H1742 C1752 0.930 . S
H1743 C1755 0.929 . S
H1744 C1758 0.930 . S
H1745 C1760 0.960 . S
H1746 C1760 0.960 . S
H1747 C1760 0.960 . S
C1748 H1740 0.929 . S
C1748 C1749 1.377 . S
C1748 C1750 1.384 . S
C1749 C1748 1.377 . S
C1749 C1755 1.390 . S
C1750 H1741 0.930 . S
C1750 C1748 1.384 . S
C1750 C1751 1.372 . S
C1751 C1750 1.372 . S
C1751 C1752 1.400 . S
C1751 C1756 1.490 . S
C1752 H1742 0.930 . S
C1752 C1751 1.400 . S
C1752 C1755 1.386 . S
H1753 C1769 0.930 . S
H1754 C1770 0.931 . S
C1755 H1743 0.929 . S
C1755 C1749 1.390 . S
C1755 C1752 1.386 . S
C1756 C1751 1.490 . S
C1756 C1758 1.395 . S
C1756 C1759 1.403 . S
H1757 C1763 0.930 . S
C1758 H1744 0.930 . S
C1758 C1756 1.395 . S
C1758 C1761 1.403 1_545 S
C1759 C1756 1.403 . S
C1759 C1760 1.524 . S
C1759 C1763 1.400 1_545 S
C1760 H1745 0.960 . S
C1760 H1746 0.960 . S
C1760 H1747 0.960 . S
C1760 C1759 1.524 . S
C1761 C1758 1.403 1_565 S
C1761 C1762 1.392 . S
C1761 C1765 1.495 . S
C1762 C1761 1.392 . S
C1762 C1763 1.385 . S
C1762 C1764 1.478 . S
C1763 H1757 0.930 . S
C1763 C1759 1.400 1_565 S
C1763 C1762 1.385 . S
C1764 C1762 1.478 . S
C1764 C1766 1.381 . S
C1764 C1770 1.383 . S
C1765 C1761 1.495 . S
C1765 H1771 0.959 . S
C1765 H1772 0.961 . S
C1765 H1773 0.960 . S
C1766 C1764 1.381 . S
C1766 C1767 1.394 . S
C1766 H1774 0.930 . S
C1767 C1766 1.394 . S
C1767 C1768 1.383 . S
C1767 H1775 0.929 . S
C1768 C1767 1.383 . S
C1768 C1769 1.377 . S
C1769 H1753 0.930 . S
C1769 C1768 1.377 . S
C1769 C1770 1.379 . S
C1770 H1754 0.931 . S
C1770 C1764 1.383 . S
C1770 C1769 1.379 . S
H1771 C1765 0.959 . S
H1772 C1765 0.961 . S
H1773 C1765 0.960 . S
H1774 C1766 0.930 . S
H1775 C1767 0.929 . S
H1776 C1784 0.929 . S
H1777 C1786 0.930 . S
H1778 C1788 0.930 . S
H1779 C1791 0.929 . S
H1780 C1794 0.930 . S
H1781 C1796 0.960 . S
H1782 C1796 0.960 . S
H1783 C1796 0.960 . S
C1784 H1776 0.929 . S
C1784 C1785 1.377 . S
C1784 C1786 1.384 . S
C1785 C1784 1.377 . S
C1785 C1791 1.390 . S
C1786 H1777 0.930 . S
C1786 C1784 1.384 . S
C1786 C1787 1.372 . S
C1787 C1786 1.372 . S
C1787 C1788 1.400 . S
C1787 C1792 1.490 . S
C1788 H1778 0.930 . S
C1788 C1787 1.400 . S
C1788 C1791 1.386 . S
H1789 C1805 0.930 . S
H1790 C1806 0.931 . S
C1791 H1779 0.929 . S
C1791 C1785 1.390 . S
C1791 C1788 1.386 . S
C1792 C1787 1.490 . S
C1792 C1794 1.395 . S
C1792 C1795 1.403 . S
H1793 C1799 0.930 . S
C1794 H1780 0.930 . S
C1794 C1792 1.395 . S
C1794 C1797 1.403 . S
C1795 C1792 1.403 . S
C1795 C1796 1.524 . S
C1795 C1799 1.400 . S
C1796 H1781 0.960 . S
C1796 H1782 0.960 . S
C1796 H1783 0.960 . S
C1796 C1795 1.524 . S
C1797 C1794 1.403 . S
C1797 C1798 1.392 . S
C1797 C1801 1.495 . S
C1798 C1797 1.392 . S
C1798 C1799 1.385 . S
C1798 C1800 1.478 . S
C1799 H1793 0.930 . S
C1799 C1795 1.400 . S
C1799 C1798 1.385 . S
C1800 C1798 1.478 . S
C1800 C1802 1.381 . S
C1800 C1806 1.383 . S
C1801 C1797 1.495 . S
C1801 H1807 0.959 . S
C1801 H1808 0.961 . S
C1801 H1809 0.960 . S
C1802 C1800 1.381 . S
C1802 C1803 1.394 . S
C1802 H1810 0.930 . S
C1803 C1802 1.394 . S
C1803 C1804 1.383 . S
C1803 H1811 0.929 . S
C1804 C1803 1.383 . S
C1804 C1805 1.377 . S
C1805 H1789 0.930 . S
C1805 C1804 1.377 . S
C1805 C1806 1.379 . S
C1806 H1790 0.931 . S
C1806 C1800 1.383 . S
C1806 C1805 1.379 . S
H1807 C1801 0.959 . S
H1808 C1801 0.961 . S
H1809 C1801 0.960 . S
H1810 C1802 0.930 . S
H1811 C1803 0.929 . S
H1812 C1820 0.929 . S
H1813 C1822 0.930 . S
H1814 C1824 0.930 . S
H1815 C1827 0.929 . S
H1816 C1830 0.930 . S
H1817 C1832 0.960 . S
H1818 C1832 0.960 . S
H1819 C1832 0.960 . S
C1820 H1812 0.929 . S
C1820 C1821 1.377 . S
C1820 C1822 1.384 . S
C1821 C1820 1.377 . S
C1821 C1827 1.390 . S
C1822 H1813 0.930 . S
C1822 C1820 1.384 . S
C1822 C1823 1.372 . S
C1823 C1822 1.372 . S
C1823 C1824 1.400 . S
C1823 C1828 1.490 . S
C1824 H1814 0.930 . S
C1824 C1823 1.400 . S
C1824 C1827 1.386 . S
H1825 C1841 0.930 . S
H1826 C1842 0.931 . S
C1827 H1815 0.929 . S
C1827 C1821 1.390 . S
C1827 C1824 1.386 . S
C1828 C1823 1.490 . S
C1828 C1830 1.395 . S
C1828 C1831 1.403 . S
H1829 C1835 0.930 . S
C1830 H1816 0.930 . S
C1830 C1828 1.395 . S
C1830 C1833 1.403 1_545 S
C1831 C1828 1.403 . S
C1831 C1832 1.524 . S
C1831 C1835 1.400 1_545 S
C1832 H1817 0.960 . S
C1832 H1818 0.960 . S
C1832 H1819 0.960 . S
C1832 C1831 1.524 . S
C1833 C1830 1.403 1_565 S
C1833 C1834 1.392 . S
C1833 C1837 1.495 . S
C1834 C1833 1.392 . S
C1834 C1835 1.385 . S
C1834 C1836 1.478 . S
C1835 H1829 0.930 . S
C1835 C1831 1.400 1_565 S
C1835 C1834 1.385 . S
C1836 C1834 1.478 . S
C1836 C1838 1.381 . S
C1836 C1842 1.383 . S
C1837 C1833 1.495 . S
C1837 H1843 0.959 . S
C1837 H1844 0.961 . S
C1837 H1845 0.960 . S
C1838 C1836 1.381 . S
C1838 C1839 1.394 . S
C1838 H1846 0.930 . S
C1839 C1838 1.394 . S
C1839 C1840 1.383 . S
C1839 H1847 0.929 . S
C1840 C1839 1.383 . S
C1840 C1841 1.377 . S
C1841 H1825 0.930 . S
C1841 C1840 1.377 . S
C1841 C1842 1.379 . S
C1842 H1826 0.931 . S
C1842 C1836 1.383 . S
C1842 C1841 1.379 . S
H1843 C1837 0.959 . S
H1844 C1837 0.961 . S
H1845 C1837 0.960 . S
H1846 C1838 0.930 . S
H1847 C1839 0.929 . S
H1848 C1856 0.929 . S
H1849 C1858 0.930 . S
H1850 C1860 0.930 . S
H1851 C1863 0.929 . S
H1852 C1866 0.930 . S
H1853 C1868 0.960 . S
H1854 C1868 0.960 . S
H1855 C1868 0.960 . S
C1856 H1848 0.929 . S
C1856 C1857 1.377 . S
C1856 C1858 1.384 . S
C1857 C1856 1.377 . S
C1857 C1863 1.390 1_554 S
C1858 H1849 0.930 . S
C1858 C1856 1.384 . S
C1858 C1859 1.372 . S
C1859 C1858 1.372 . S
C1859 C1860 1.400 1_554 S
C1859 C1864 1.490 . S
C1860 H1850 0.930 . S
C1860 C1859 1.400 1_556 S
C1860 C1863 1.386 . S
H1861 C1877 0.930 . S
H1862 C1878 0.931 . S
C1863 H1851 0.929 . S
C1863 C1857 1.390 1_556 S
C1863 C1860 1.386 . S
C1864 C1859 1.490 . S
C1864 C1866 1.395 . S
C1864 C1867 1.403 1_554 S
H1865 C1871 0.930 . S
C1866 H1852 0.930 . S
C1866 C1864 1.395 . S
C1866 C1869 1.403 . S
C1867 C1864 1.403 1_556 S
C1867 C1868 1.524 . S
C1867 C1871 1.400 . S
C1868 H1853 0.960 . S
C1868 H1854 0.960 . S
C1868 H1855 0.960 . S
C1868 C1867 1.524 . S
C1869 C1866 1.403 . S
C1869 C1870 1.392 . S
C1869 C1873 1.495 . S
C1870 C1869 1.392 . S
C1870 C1871 1.385 1_554 S
C1870 C1872 1.478 . S
C1871 H1865 0.930 . S
C1871 C1867 1.400 . S
C1871 C1870 1.385 1_556 S
C1872 C1870 1.478 . S
C1872 C1874 1.385 . S
C1872 C1878 1.377 1_554 S
C1873 C1869 1.495 . S
C1873 H1879 0.959 . S
C1873 H1880 0.961 . S
C1873 H1881 0.960 . S
C1874 C1872 1.385 . S
C1874 C1875 1.394 . S
C1874 H1882 0.930 . S
C1875 C1874 1.394 . S
C1875 C1876 1.383 1_554 S
C1875 H1883 0.929 . S
C1876 C1875 1.383 1_556 S
C1876 C1877 1.377 . S
C1877 H1861 0.930 . S
C1877 C1876 1.377 . S
C1877 C1878 1.379 . S
C1878 H1862 0.931 . S
C1878 C1872 1.377 1_556 S
C1878 C1877 1.379 . S
H1879 C1873 0.959 . S
H1880 C1873 0.961 . S
H1881 C1873 0.960 . S
H1882 C1874 0.930 . S
H1883 C1875 0.929 . S
H1884 C1892 0.929 . S
H1885 C1894 0.930 . S
H1886 C1896 0.930 . S
H1887 C1899 0.929 . S
H1888 C1902 0.930 . S
H1889 C1904 0.960 . S
H1890 C1904 0.960 . S
H1891 C1904 0.960 . S
C1892 H1884 0.929 . S
C1892 C1893 1.377 . S
C1892 C1894 1.384 . S
C1893 C1892 1.377 . S
C1893 C1899 1.390 . S
C1894 H1885 0.930 . S
C1894 C1892 1.384 . S
C1894 C1895 1.372 . S
C1895 C1894 1.372 . S
C1895 C1896 1.400 . S
C1895 C1900 1.490 . S
C1896 H1886 0.930 . S
C1896 C1895 1.400 . S
C1896 C1899 1.386 . S
H1897 C1913 0.930 . S
H1898 C1914 0.931 . S
C1899 H1887 0.929 . S
C1899 C1893 1.390 . S
C1899 C1896 1.386 . S
C1900 C1895 1.490 . S
C1900 C1902 1.395 . S
C1900 C1903 1.403 . S
H1901 C1907 0.930 . S
C1902 H1888 0.930 . S
C1902 C1900 1.395 . S
C1902 C1905 1.403 1_545 S
C1903 C1900 1.403 . S
C1903 C1904 1.524 . S
C1903 C1907 1.400 1_545 S
C1904 H1889 0.960 . S
C1904 H1890 0.960 . S
C1904 H1891 0.960 . S
C1904 C1903 1.524 . S
C1905 C1902 1.403 1_565 S
C1905 C1906 1.392 . S
C1905 C1909 1.495 . S
C1906 C1905 1.392 . S
C1906 C1907 1.385 . S
C1906 C1908 1.478 . S
C1907 H1901 0.930 . S
C1907 C1903 1.400 1_565 S
C1907 C1906 1.385 . S
C1908 C1906 1.478 . S
C1908 C1910 1.381 . S
C1908 C1914 1.383 . S
C1909 C1905 1.495 . S
C1909 H1915 0.959 . S
C1909 H1916 0.961 . S
C1909 H1917 0.960 . S
C1910 C1908 1.381 . S
C1910 C1911 1.394 . S
C1910 H1918 0.930 . S
C1911 C1910 1.394 . S
C1911 C1912 1.383 . S
C1911 H1919 0.929 . S
C1912 C1911 1.383 . S
C1912 C1913 1.377 . S
C1913 H1897 0.930 . S
C1913 C1912 1.377 . S
C1913 C1914 1.379 . S
C1914 H1898 0.931 . S
C1914 C1908 1.383 . S
C1914 C1913 1.379 . S
H1915 C1909 0.959 . S
H1916 C1909 0.961 . S
H1917 C1909 0.960 . S
H1918 C1910 0.930 . S
H1919 C1911 0.929 . S
H1920 C1928 0.929 . S
H1921 C1930 0.930 . S
H1922 C1932 0.930 . S
H1923 C1935 0.929 . S
H1924 C1938 0.930 . S
H1925 C1940 0.960 . S
H1926 C1940 0.960 . S
H1927 C1940 0.960 . S
C1928 H1920 0.929 . S
C1928 C1929 1.377 . S
C1928 C1930 1.384 . S
C1929 C1928 1.377 . S
C1929 C1935 1.390 . S
C1930 H1921 0.930 . S
C1930 C1928 1.384 . S
C1930 C1931 1.372 . S
C1931 C1930 1.372 . S
C1931 C1932 1.400 . S
C1931 C1936 1.490 . S
C1932 H1922 0.930 . S
C1932 C1931 1.400 . S
C1932 C1935 1.386 . S
H1933 C1949 0.930 . S
H1934 C1950 0.931 1_556 S
C1935 H1923 0.929 . S
C1935 C1929 1.390 . S
C1935 C1932 1.386 . S
C1936 C1931 1.490 . S
C1936 C1938 1.395 . S
C1936 C1939 1.403 1_556 S
H1937 C1943 0.930 . S
C1938 H1924 0.930 . S
C1938 C1936 1.395 . S
C1938 C1941 1.403 . S
C1939 C1936 1.403 1_554 S
C1939 C1940 1.524 . S
C1939 C1943 1.400 . S
C1940 H1925 0.960 . S
C1940 H1926 0.960 . S
C1940 H1927 0.960 . S
C1940 C1939 1.524 . S
C1941 C1938 1.403 . S
C1941 C1942 1.392 . S
C1941 C1945 1.495 . S
C1942 C1941 1.392 . S
C1942 C1943 1.385 1_556 S
C1942 C1944 1.477 1_556 S
C1943 H1937 0.930 . S
C1943 C1939 1.400 . S
C1943 C1942 1.385 1_554 S
C1944 C1942 1.477 1_554 S
C1944 C1946 1.382 . S
C1944 C1950 1.383 . S
C1945 C1941 1.495 . S
C1945 H1951 0.959 . S
C1945 H1952 0.961 . S
C1945 H1953 0.960 . S
C1946 C1944 1.382 . S
C1946 C1947 1.394 . S
C1946 H1954 0.930 . S
C1947 C1946 1.394 . S
C1947 C1948 1.383 . S
C1947 H1955 0.929 . S
C1948 C1947 1.383 . S
C1948 C1949 1.377 . S
C1949 H1933 0.930 . S
C1949 C1948 1.377 . S
C1949 C1950 1.379 . S
C1950 H1934 0.931 1_554 S
C1950 C1944 1.383 . S
C1950 C1949 1.379 . S
H1951 C1945 0.959 . S
H1952 C1945 0.961 . S
H1953 C1945 0.960 . S
H1954 C1946 0.930 . S
H1955 C1947 0.929 . S
H1956 C1964 0.929 . S
H1957 C1966 0.930 . S
H1958 C1968 0.930 . S
H1959 C1971 0.929 . S
H1960 C1974 0.930 . S
H1961 C1976 0.960 . S
H1962 C1976 0.960 . S
H1963 C1976 0.960 . S
C1964 H1956 0.929 . S
C1964 C1965 1.377 . S
C1964 C1966 1.384 . S
C1965 C1964 1.377 . S
C1965 C1971 1.390 . S
C1966 H1957 0.930 . S
C1966 C1964 1.384 . S
C1966 C1967 1.372 . S
C1967 C1966 1.372 . S
C1967 C1968 1.400 . S
C1967 C1972 1.490 . S
C1968 H1958 0.930 . S
C1968 C1967 1.400 . S
C1968 C1971 1.386 . S
H1969 C1985 0.930 . S
H1970 C1986 0.931 . S
C1971 H1959 0.929 . S
C1971 C1965 1.390 . S
C1971 C1968 1.386 . S
C1972 C1967 1.490 . S
C1972 C1974 1.395 . S
C1972 C1975 1.403 . S
H1973 C1979 0.930 . S
C1974 H1960 0.930 . S
C1974 C1972 1.395 . S
C1974 C1977 1.403 . S
C1975 C1972 1.403 . S
C1975 C1976 1.524 . S
C1975 C1979 1.400 . S
C1976 H1961 0.960 . S
C1976 H1962 0.960 . S
C1976 H1963 0.960 . S
C1976 C1975 1.524 . S
C1977 C1974 1.403 . S
C1977 C1978 1.392 . S
C1977 C1981 1.495 . S
C1978 C1977 1.392 . S
C1978 C1979 1.385 . S
C1978 C1980 1.478 . S
C1979 H1973 0.930 . S
C1979 C1975 1.400 . S
C1979 C1978 1.385 . S
C1980 C1978 1.478 . S
C1980 C1982 1.381 . S
C1980 C1986 1.383 . S
C1981 C1977 1.495 . S
C1981 H1987 0.959 . S
C1981 H1988 0.961 . S
C1981 H1989 0.960 . S
C1982 C1980 1.381 . S
C1982 C1983 1.394 . S
C1982 H1990 0.930 . S
C1983 C1982 1.394 . S
C1983 C1984 1.383 . S
C1983 H1991 0.929 . S
C1984 C1983 1.383 . S
C1984 C1985 1.377 . S
C1985 H1969 0.930 . S
C1985 C1984 1.377 . S
C1985 C1986 1.379 . S
C1986 H1970 0.931 . S
C1986 C1980 1.383 . S
C1986 C1985 1.379 . S
H1987 C1981 0.959 . S
H1988 C1981 0.961 . S
H1989 C1981 0.960 . S
H1990 C1982 0.930 . S
H1991 C1983 0.929 . S
H1992 C2000 0.929 . S
H1993 C2002 0.930 . S
H1994 C2004 0.930 . S
H1995 C2007 0.929 . S
H1996 C2010 0.930 . S
H1997 C2012 0.960 . S
H1998 C2012 0.960 . S
H1999 C2012 0.960 . S
C2000 H1992 0.929 . S
C2000 C2001 1.377 . S
C2000 C2002 1.384 . S
C2001 C2000 1.377 . S
C2001 C2007 1.390 . S
C2002 H1993 0.930 . S
C2002 C2000 1.384 . S
C2002 C2003 1.372 . S
C2003 C2002 1.372 . S
C2003 C2004 1.400 . S
C2003 C2008 1.490 . S
C2004 H1994 0.930 . S
C2004 C2003 1.400 . S
C2004 C2007 1.386 . S
H2005 C2021 0.930 . S
H2006 C2022 0.931 . S
C2007 H1995 0.929 . S
C2007 C2001 1.390 . S
C2007 C2004 1.386 . S
C2008 C2003 1.490 . S
C2008 C2010 1.395 . S
C2008 C2011 1.403 . S
H2009 C2015 0.930 . S
C2010 H1996 0.930 . S
C2010 C2008 1.395 . S
C2010 C2013 1.403 . S
C2011 C2008 1.403 . S
C2011 C2012 1.524 . S
C2011 C2015 1.400 . S
C2012 H1997 0.960 . S
C2012 H1998 0.960 . S
C2012 H1999 0.960 . S
C2012 C2011 1.524 . S
C2013 C2010 1.403 . S
C2013 C2014 1.392 . S
C2013 C2017 1.495 . S
C2014 C2013 1.392 . S
C2014 C2015 1.385 . S
C2014 C2016 1.478 . S
C2015 H2009 0.930 . S
C2015 C2011 1.400 . S
C2015 C2014 1.385 . S
C2016 C2014 1.478 . S
C2016 C2018 1.381 . S
C2016 C2022 1.383 . S
C2017 C2013 1.495 . S
C2017 H2023 0.959 . S
C2017 H2024 0.961 . S
C2017 H2025 0.960 . S
C2018 C2016 1.381 . S
C2018 C2019 1.394 . S
C2018 H2026 0.930 . S
C2019 C2018 1.394 . S
C2019 C2020 1.383 . S
C2019 H2027 0.929 . S
C2020 C2019 1.383 . S
C2020 C2021 1.377 . S
C2021 H2005 0.930 . S
C2021 C2020 1.377 . S
C2021 C2022 1.379 . S
C2022 H2006 0.931 . S
C2022 C2016 1.383 . S
C2022 C2021 1.379 . S
H2023 C2017 0.959 . S
H2024 C2017 0.961 . S
H2025 C2017 0.960 . S
H2026 C2018 0.930 . S
H2027 C2019 0.929 . S
H2028 C2036 0.929 . S
H2029 C2038 0.930 . S
H2030 C2040 0.930 . S
H2031 C2043 0.929 . S
H2032 C2046 0.930 . S
H2033 C2048 0.960 . S
H2034 C2048 0.960 . S
H2035 C2048 0.960 . S
C2036 H2028 0.929 . S
C2036 C2037 1.377 . S
C2036 C2038 1.384 . S
C2037 C2036 1.377 . S
C2037 C2043 1.390 . S
C2038 H2029 0.930 . S
C2038 C2036 1.384 . S
C2038 C2039 1.372 . S
C2039 C2038 1.372 . S
C2039 C2040 1.400 . S
C2039 C2044 1.490 . S
C2040 H2030 0.930 . S
C2040 C2039 1.400 . S
C2040 C2043 1.386 . S
H2041 C2057 0.930 . S
H2042 C2058 0.931 . S
C2043 H2031 0.929 . S
C2043 C2037 1.390 . S
C2043 C2040 1.386 . S
C2044 C2039 1.490 . S
C2044 C2046 1.395 . S
C2044 C2047 1.403 . S
H2045 C2051 0.930 . S
C2046 H2032 0.930 . S
C2046 C2044 1.395 . S
C2046 C2049 1.403 . S
C2047 C2044 1.403 . S
C2047 C2048 1.524 . S
C2047 C2051 1.400 . S
C2048 H2033 0.960 . S
C2048 H2034 0.960 . S
C2048 H2035 0.960 . S
C2048 C2047 1.524 . S
C2049 C2046 1.403 . S
C2049 C2050 1.392 . S
C2049 C2053 1.495 . S
C2050 C2049 1.392 . S
C2050 C2051 1.385 . S
C2050 C2052 1.478 . S
C2051 H2045 0.930 . S
C2051 C2047 1.400 . S
C2051 C2050 1.385 . S
C2052 C2050 1.478 . S
C2052 C2054 1.381 . S
C2052 C2058 1.383 . S
C2053 C2049 1.495 . S
C2053 H2059 0.959 . S
C2053 H2060 0.961 . S
C2053 H2061 0.960 . S
C2054 C2052 1.381 . S
C2054 C2055 1.394 . S
C2054 H2062 0.930 . S
C2055 C2054 1.394 . S
C2055 C2056 1.383 . S
C2055 H2063 0.929 . S
C2056 C2055 1.383 . S
C2056 C2057 1.377 . S
C2057 H2041 0.930 . S
C2057 C2056 1.377 . S
C2057 C2058 1.379 . S
C2058 H2042 0.931 . S
C2058 C2052 1.383 . S
C2058 C2057 1.379 . S
H2059 C2053 0.959 . S
H2060 C2053 0.961 . S
H2061 C2053 0.960 . S
H2062 C2054 0.930 . S
H2063 C2055 0.929 . S
H2064 C2072 0.929 . S
H2065 C2074 0.930 . S
H2066 C2076 0.927 1_554 S
H2067 C2079 0.929 1_554 S
H2068 C2082 0.930 . S
H2069 C2084 0.960 . S
H2070 C2084 0.960 . S
H2071 C2084 0.960 . S
C2072 H2064 0.929 . S
C2072 C2073 1.377 . S
C2072 C2074 1.384 . S
C2073 C2072 1.377 . S
C2073 C2079 1.390 . S
C2074 H2065 0.930 . S
C2074 C2072 1.384 . S
C2074 C2075 1.372 . S
C2075 C2074 1.372 . S
C2075 C2076 1.402 . S
C2075 C2080 1.490 . S
C2076 H2066 0.927 1_556 S
C2076 C2075 1.402 . S
C2076 C2079 1.387 . S
H2077 C2093 0.930 . S
H2078 C2094 0.931 . S
C2079 H2067 0.929 1_556 S
C2079 C2073 1.390 . S
C2079 C2076 1.387 . S
C2080 C2075 1.490 . S
C2080 C2082 1.395 1_556 S
C2080 C2083 1.403 . S
H2081 C2087 0.930 . S
C2082 H2068 0.930 . S
C2082 C2080 1.395 1_554 S
C2082 C2085 1.403 . S
C2083 C2080 1.403 . S
C2083 C2084 1.524 . S
C2083 C2087 1.400 . S
C2084 H2069 0.960 . S
C2084 H2070 0.960 . S
C2084 H2071 0.960 . S
C2084 C2083 1.524 . S
C2085 C2082 1.403 . S
C2085 C2086 1.392 . S
C2085 C2089 1.495 . S
C2086 C2085 1.392 . S
C2086 C2087 1.385 1_554 S
C2086 C2088 1.478 . S
C2087 H2081 0.930 . S
C2087 C2083 1.400 . S
C2087 C2086 1.385 1_556 S
C2088 C2086 1.478 . S
C2088 C2090 1.386 . S
C2088 C2094 1.383 . S
C2089 C2085 1.495 . S
C2089 H2095 0.959 . S
C2089 H2096 0.961 . S
C2089 H2097 0.960 . S
C2090 C2088 1.386 . S
C2090 C2091 1.395 . S
C2090 H2098 0.925 1_554 S
C2091 C2090 1.395 . S
C2091 C2092 1.383 . S
C2091 H2099 0.929 1_554 S
C2092 C2091 1.383 . S
C2092 C2093 1.377 . S
C2093 H2077 0.930 . S
C2093 C2092 1.377 . S
C2093 C2094 1.379 . S
C2094 H2078 0.931 . S
C2094 C2088 1.383 . S
C2094 C2093 1.379 . S
H2095 C2089 0.959 . S
H2096 C2089 0.961 . S
H2097 C2089 0.960 . S
H2098 C2090 0.925 1_556 S
H2099 C2091 0.929 1_556 S
H2100 C2108 0.929 . S
H2101 C2110 0.930 . S
H2102 C2112 0.930 . S
H2103 C2115 0.929 . S
H2104 C2118 0.930 . S
H2105 C2120 0.960 . S
H2106 C2120 0.960 . S
H2107 C2120 0.960 . S
C2108 H2100 0.929 . S
C2108 C2109 1.377 . S
C2108 C2110 1.384 . S
C2109 C2108 1.377 . S
C2109 C2115 1.390 . S
C2110 H2101 0.930 . S
C2110 C2108 1.384 . S
C2110 C2111 1.372 . S
C2111 C2110 1.372 . S
C2111 C2112 1.400 . S
C2111 C2116 1.490 . S
C2112 H2102 0.930 . S
C2112 C2111 1.400 . S
C2112 C2115 1.386 . S
H2113 C2129 0.930 . S
H2114 C2130 0.931 . S
C2115 H2103 0.929 . S
C2115 C2109 1.390 . S
C2115 C2112 1.386 . S
C2116 C2111 1.490 . S
C2116 C2118 1.395 . S
C2116 C2119 1.403 . S
H2117 C2123 0.930 . S
C2118 H2104 0.930 . S
C2118 C2116 1.395 . S
C2118 C2121 1.403 . S
C2119 C2116 1.403 . S
C2119 C2120 1.524 . S
C2119 C2123 1.400 . S
C2120 H2105 0.960 . S
C2120 H2106 0.960 . S
C2120 H2107 0.960 . S
C2120 C2119 1.524 . S
C2121 C2118 1.403 . S
C2121 C2122 1.392 . S
C2121 C2125 1.495 . S
C2122 C2121 1.392 . S
C2122 C2123 1.385 . S
C2122 C2124 1.478 . S
C2123 H2117 0.930 . S
C2123 C2119 1.400 . S
C2123 C2122 1.385 . S
C2124 C2122 1.478 . S
C2124 C2126 1.381 . S
C2124 C2130 1.383 . S
C2125 C2121 1.495 . S
C2125 H2131 0.959 . S
C2125 H2132 0.961 . S
C2125 H2133 0.960 . S
C2126 C2124 1.381 . S
C2126 C2127 1.394 . S
C2126 H2134 0.930 . S
C2127 C2126 1.394 . S
C2127 C2128 1.383 . S
C2127 H2135 0.929 . S
C2128 C2127 1.383 . S
C2128 C2129 1.377 . S
C2129 H2113 0.930 . S
C2129 C2128 1.377 . S
C2129 C2130 1.379 . S
C2130 H2114 0.931 . S
C2130 C2124 1.383 . S
C2130 C2129 1.379 . S
H2131 C2125 0.959 . S
H2132 C2125 0.961 . S
H2133 C2125 0.960 . S
H2134 C2126 0.930 . S
H2135 C2127 0.929 . S
H2136 C2144 0.929 . S
H2137 C2146 0.930 . S
H2138 C2148 0.930 . S
H2139 C2151 0.929 . S
H2140 C2154 0.930 . S
H2141 C2156 0.960 . S
H2142 C2156 0.960 . S
H2143 C2156 0.960 . S
C2144 H2136 0.929 . S
C2144 C2145 1.377 . S
C2144 C2146 1.384 . S
C2145 C2144 1.377 . S
C2145 C2151 1.390 . S
C2146 H2137 0.930 . S
C2146 C2144 1.384 . S
C2146 C2147 1.372 . S
C2147 C2146 1.372 . S
C2147 C2148 1.400 . S
C2147 C2152 1.490 . S
C2148 H2138 0.930 . S
C2148 C2147 1.400 . S
C2148 C2151 1.386 . S
H2149 C2165 0.930 . S
H2150 C2166 0.931 . S
C2151 H2139 0.929 . S
C2151 C2145 1.390 . S
C2151 C2148 1.386 . S
C2152 C2147 1.490 . S
C2152 C2154 1.395 . S
C2152 C2155 1.403 . S
H2153 C2159 0.930 . S
C2154 H2140 0.930 . S
C2154 C2152 1.395 . S
C2154 C2157 1.403 . S
C2155 C2152 1.403 . S
C2155 C2156 1.524 . S
C2155 C2159 1.400 . S
C2156 H2141 0.960 . S
C2156 H2142 0.960 . S
C2156 H2143 0.960 . S
C2156 C2155 1.524 . S
C2157 C2154 1.403 . S
C2157 C2158 1.392 . S
C2157 C2161 1.495 . S
C2158 C2157 1.392 . S
C2158 C2159 1.385 . S
C2158 C2160 1.478 . S
C2159 H2153 0.930 . S
C2159 C2155 1.400 . S
C2159 C2158 1.385 . S
C2160 C2158 1.478 . S
C2160 C2162 1.381 . S
C2160 C2166 1.383 . S
C2161 C2157 1.495 . S
C2161 H2167 0.959 . S
C2161 H2168 0.961 . S
C2161 H2169 0.960 . S
C2162 C2160 1.381 . S
C2162 C2163 1.394 . S
C2162 H2170 0.930 . S
C2163 C2162 1.394 . S
C2163 C2164 1.383 . S
C2163 H2171 0.929 . S
C2164 C2163 1.383 . S
C2164 C2165 1.377 . S
C2165 H2149 0.930 . S
C2165 C2164 1.377 . S
C2165 C2166 1.379 . S
C2166 H2150 0.931 . S
C2166 C2160 1.383 . S
C2166 C2165 1.379 . S
H2167 C2161 0.959 . S
H2168 C2161 0.961 . S
H2169 C2161 0.960 . S
H2170 C2162 0.930 . S
H2171 C2163 0.929 . S
H2172 C2180 0.929 . S
H2173 C2182 0.930 . S
H2174 C2184 0.930 . S
H2175 C2187 0.929 . S
H2176 C2190 0.930 . S
H2177 C2192 0.960 . S
H2178 C2192 0.960 . S
H2179 C2192 0.960 . S
C2180 H2172 0.929 . S
C2180 C2181 1.377 . S
C2180 C2182 1.384 . S
C2181 C2180 1.377 . S
C2181 C2187 1.390 . S
C2182 H2173 0.930 . S
C2182 C2180 1.384 . S
C2182 C2183 1.372 . S
C2183 C2182 1.372 . S
C2183 C2184 1.400 . S
C2183 C2188 1.490 . S
C2184 H2174 0.930 . S
C2184 C2183 1.400 . S
C2184 C2187 1.386 . S
H2185 C2201 0.930 . S
H2186 C2202 0.931 . S
C2187 H2175 0.929 . S
C2187 C2181 1.390 . S
C2187 C2184 1.386 . S
C2188 C2183 1.490 . S
C2188 C2190 1.395 . S
C2188 C2191 1.403 . S
H2189 C2195 0.930 . S
C2190 H2176 0.930 . S
C2190 C2188 1.395 . S
C2190 C2193 1.403 . S
C2191 C2188 1.403 . S
C2191 C2192 1.524 . S
C2191 C2195 1.400 . S
C2192 H2177 0.960 . S
C2192 H2178 0.960 . S
C2192 H2179 0.960 . S
C2192 C2191 1.524 . S
C2193 C2190 1.403 . S
C2193 C2194 1.392 . S
C2193 C2197 1.495 . S
C2194 C2193 1.392 . S
C2194 C2195 1.385 . S
C2194 C2196 1.478 . S
C2195 H2189 0.930 . S
C2195 C2191 1.400 . S
C2195 C2194 1.385 . S
C2196 C2194 1.478 . S
C2196 C2198 1.381 . S
C2196 C2202 1.383 . S
C2197 C2193 1.495 . S
C2197 H2203 0.959 . S
C2197 H2204 0.961 . S
C2197 H2205 0.960 . S
C2198 C2196 1.381 . S
C2198 C2199 1.394 . S
C2198 H2206 0.930 . S
C2199 C2198 1.394 . S
C2199 C2200 1.383 . S
C2199 H2207 0.929 . S
C2200 C2199 1.383 . S
C2200 C2201 1.377 . S
C2201 H2185 0.930 . S
C2201 C2200 1.377 . S
C2201 C2202 1.379 . S
C2202 H2186 0.931 . S
C2202 C2196 1.383 . S
C2202 C2201 1.379 . S
H2203 C2197 0.959 . S
H2204 C2197 0.961 . S
H2205 C2197 0.960 . S
H2206 C2198 0.930 . S
H2207 C2199 0.929 . S
H2208 C2216 0.929 . S
H2209 C2218 0.930 . S
H2210 C2220 0.930 . S
H2211 C2223 0.929 . S
H2212 C2226 0.930 . S
H2213 C2228 0.960 . S
H2214 C2228 0.960 . S
H2215 C2228 0.960 . S
C2216 H2208 0.929 . S
C2216 C2217 1.377 . S
C2216 C2218 1.384 . S
C2217 C2216 1.377 . S
C2217 C2223 1.390 . S
C2218 H2209 0.930 . S
C2218 C2216 1.384 . S
C2218 C2219 1.372 . S
C2219 C2218 1.372 . S
C2219 C2220 1.400 . S
C2219 C2224 1.490 . S
C2220 H2210 0.930 . S
C2220 C2219 1.400 . S
C2220 C2223 1.386 . S
H2221 C2237 0.930 . S
H2222 C2238 0.931 . S
C2223 H2211 0.929 . S
C2223 C2217 1.390 . S
C2223 C2220 1.386 . S
C2224 C2219 1.490 . S
C2224 C2226 1.395 . S
C2224 C2227 1.403 . S
H2225 C2231 0.930 . S
C2226 H2212 0.930 . S
C2226 C2224 1.395 . S
C2226 C2229 1.403 . S
C2227 C2224 1.403 . S
C2227 C2228 1.524 . S
C2227 C2231 1.400 . S
C2228 H2213 0.960 . S
C2228 H2214 0.960 . S
C2228 H2215 0.960 . S
C2228 C2227 1.524 . S
C2229 C2226 1.403 . S
C2229 C2230 1.392 . S
C2229 C2233 1.495 . S
C2230 C2229 1.392 . S
C2230 C2231 1.385 . S
C2230 C2232 1.478 . S
C2231 H2225 0.930 . S
C2231 C2227 1.400 . S
C2231 C2230 1.385 . S
C2232 C2230 1.478 . S
C2232 C2234 1.381 . S
C2232 C2238 1.383 . S
C2233 C2229 1.495 . S
C2233 H2239 0.959 . S
C2233 H2240 0.961 . S
C2233 H2241 0.960 . S
C2234 C2232 1.381 . S
C2234 C2235 1.394 . S
C2234 H2242 0.930 . S
C2235 C2234 1.394 . S
C2235 C2236 1.383 . S
C2235 H2243 0.929 . S
C2236 C2235 1.383 . S
C2236 C2237 1.377 . S
C2237 H2221 0.930 . S
C2237 C2236 1.377 . S
C2237 C2238 1.379 . S
C2238 H2222 0.931 . S
C2238 C2232 1.383 . S
C2238 C2237 1.379 . S
H2239 C2233 0.959 . S
H2240 C2233 0.961 . S
H2241 C2233 0.960 . S
H2242 C2234 0.930 . S
H2243 C2235 0.929 . S
H2244 C2252 0.929 . S
H2245 C2254 0.930 . S
H2246 C2256 0.930 . S
H2247 C2259 0.929 . S
H2248 C2262 0.930 . S
H2249 C2264 0.960 . S
H2250 C2264 0.960 . S
H2251 C2264 0.960 . S
C2252 H2244 0.929 . S
C2252 C2253 1.377 . S
C2252 C2254 1.384 . S
C2253 C2252 1.377 . S
C2253 C2259 1.390 . S
C2254 H2245 0.930 . S
C2254 C2252 1.384 . S
C2254 C2255 1.372 . S
C2255 C2254 1.372 . S
C2255 C2256 1.400 . S
C2255 C2260 1.490 . S
C2256 H2246 0.930 . S
C2256 C2255 1.400 . S
C2256 C2259 1.386 . S
H2257 C2273 0.930 . S
H2258 C2274 0.931 . S
C2259 H2247 0.929 . S
C2259 C2253 1.390 . S
C2259 C2256 1.386 . S
C2260 C2255 1.490 . S
C2260 C2262 1.395 . S
C2260 C2263 1.403 1_655 S
H2261 C2267 0.930 . S
C2262 H2248 0.930 . S
C2262 C2260 1.395 . S
C2262 C2265 1.331 1_655 S
C2263 C2260 1.403 1_455 S
C2263 C2264 1.524 . S
C2263 C2267 1.400 . S
C2264 H2249 0.960 . S
C2264 H2250 0.960 . S
C2264 H2251 0.960 . S
C2264 C2263 1.524 . S
C2265 C2262 1.331 1_455 S
C2265 C2266 1.479 . S
C2265 C2269 1.483 1_455 S
C2266 C2265 1.479 . S
C2266 C2267 1.385 . S
C2266 C2268 1.478 . S
C2267 H2261 0.930 . S
C2267 C2263 1.400 . S
C2267 C2266 1.385 . S
C2268 C2266 1.478 . S
C2268 C2270 1.381 . S
C2268 C2274 1.383 . S
C2269 C2265 1.483 1_655 S
C2269 H2275 0.959 . S
C2269 H2276 0.942 1_655 S
C2269 H2277 0.960 1_655 S
C2270 C2268 1.381 . S
C2270 C2271 1.394 . S
C2270 H2278 0.930 . S
C2271 C2270 1.394 . S
C2271 C2272 1.383 . S
C2271 H2279 0.929 . S
C2272 C2271 1.383 . S
C2272 C2273 1.377 . S
C2273 H2257 0.930 . S
C2273 C2272 1.377 . S
C2273 C2274 1.379 . S
C2274 H2258 0.931 . S
C2274 C2268 1.383 . S
C2274 C2273 1.379 . S
H2275 C2269 0.959 . S
H2276 C2269 0.942 1_455 S
H2277 C2269 0.960 1_455 S
H2278 C2270 0.930 . S
H2279 C2271 0.929 . S
H2280 C2288 0.929 . S
H2281 C2290 0.930 . S
H2282 C2292 0.930 . S
H2283 C2295 0.929 . S
H2284 C2298 0.930 . S
H2285 C2300 0.960 . S
H2286 C2300 0.960 . S
H2287 C2300 0.960 . S
C2288 H2280 0.929 . S
C2288 C2289 1.377 . S
C2288 C2290 1.384 . S
C2289 C2288 1.377 . S
C2289 C2295 1.390 . S
C2290 H2281 0.930 . S
C2290 C2288 1.384 . S
C2290 C2291 1.372 . S
C2291 C2290 1.372 . S
C2291 C2292 1.400 . S
C2291 C2296 1.490 . S
C2292 H2282 0.930 . S
C2292 C2291 1.400 . S
C2292 C2295 1.386 . S
H2293 C2309 0.930 . S
H2294 C2310 0.931 . S
C2295 H2283 0.929 . S
C2295 C2289 1.390 . S
C2295 C2292 1.386 . S
C2296 C2291 1.490 . S
C2296 C2298 1.395 . S
C2296 C2299 1.403 . S
H2297 C2303 0.930 . S
C2298 H2284 0.930 . S
C2298 C2296 1.395 . S
C2298 C2301 1.403 . S
C2299 C2296 1.403 . S
C2299 C2300 1.524 . S
C2299 C2303 1.400 . S
C2300 H2285 0.960 . S
C2300 H2286 0.960 . S
C2300 H2287 0.960 . S
C2300 C2299 1.524 . S
C2301 C2298 1.403 . S
C2301 C2302 1.392 . S
C2301 C2305 1.495 . S
C2302 C2301 1.392 . S
C2302 C2303 1.385 . S
C2302 C2304 1.478 . S
C2303 H2297 0.930 . S
C2303 C2299 1.400 . S
C2303 C2302 1.385 . S
C2304 C2302 1.478 . S
C2304 C2306 1.381 . S
C2304 C2310 1.383 . S
C2305 C2301 1.495 . S
C2305 H2311 0.959 . S
C2305 H2312 0.961 . S
C2305 H2313 0.960 . S
C2306 C2304 1.381 . S
C2306 C2307 1.394 . S
C2306 H2314 0.930 . S
C2307 C2306 1.394 . S
C2307 C2308 1.383 . S
C2307 H2315 0.929 . S
C2308 C2307 1.383 . S
C2308 C2309 1.377 . S
C2309 H2293 0.930 . S
C2309 C2308 1.377 . S
C2309 C2310 1.379 . S
C2310 H2294 0.931 . S
C2310 C2304 1.383 . S
C2310 C2309 1.379 . S
H2311 C2305 0.959 . S
H2312 C2305 0.961 . S
H2313 C2305 0.960 . S
H2314 C2306 0.930 . S
H2315 C2307 0.929 . S
H2316 C2324 0.929 . S
H2317 C2326 0.930 . S
H2318 C2328 0.930 . S
H2319 C2331 0.929 . S
H2320 C2334 0.930 . S
H2321 C2336 0.960 . S
H2322 C2336 0.960 . S
H2323 C2336 0.960 . S
C2324 H2316 0.929 . S
C2324 C2325 1.377 . S
C2324 C2326 1.384 . S
C2325 C2324 1.377 . S
C2325 C2331 1.390 . S
C2326 H2317 0.930 . S
C2326 C2324 1.384 . S
C2326 C2327 1.372 . S
C2327 C2326 1.372 . S
C2327 C2328 1.400 . S
C2327 C2332 1.490 . S
C2328 H2318 0.930 . S
C2328 C2327 1.400 . S
C2328 C2331 1.386 . S
H2329 C2345 0.930 . S
H2330 C2346 0.931 . S
C2331 H2319 0.929 . S
C2331 C2325 1.390 . S
C2331 C2328 1.386 . S
C2332 C2327 1.490 . S
C2332 C2334 1.395 . S
C2332 C2335 1.403 1_554 S
H2333 C2339 0.930 . S
C2334 H2320 0.930 . S
C2334 C2332 1.395 . S
C2334 C2337 1.403 . S
C2335 C2332 1.403 1_556 S
C2335 C2336 1.524 . S
C2335 C2339 1.400 . S
C2336 H2321 0.960 . S
C2336 H2322 0.960 . S
C2336 H2323 0.960 . S
C2336 C2335 1.524 . S
C2337 C2334 1.403 . S
C2337 C2338 1.392 1_554 S
C2337 C2341 1.495 . S
C2338 C2337 1.392 1_556 S
C2338 C2339 1.385 . S
C2338 C2340 1.478 . S
C2339 H2333 0.930 . S
C2339 C2335 1.400 . S
C2339 C2338 1.385 . S
C2340 C2338 1.478 . S
C2340 C2342 1.381 . S
C2340 C2346 1.383 . S
C2341 C2337 1.495 . S
C2341 H2347 0.959 . S
C2341 H2348 0.961 . S
C2341 H2349 0.960 . S
C2342 C2340 1.381 . S
C2342 C2343 1.394 . S
C2342 H2350 0.930 . S
C2343 C2342 1.394 . S
C2343 C2344 1.383 . S
C2343 H2351 0.929 . S
C2344 C2343 1.383 . S
C2344 C2345 1.377 . S
C2345 H2329 0.930 . S
C2345 C2344 1.377 . S
C2345 C2346 1.379 . S
C2346 H2330 0.931 . S
C2346 C2340 1.383 . S
C2346 C2345 1.379 . S
H2347 C2341 0.959 . S
H2348 C2341 0.961 . S
H2349 C2341 0.960 . S
H2350 C2342 0.930 . S
H2351 C2343 0.929 . S
H2352 C2360 0.929 . S
H2353 C2362 0.930 . S
H2354 C2364 0.930 . S
H2355 C2367 0.929 . S
H2356 C2370 0.930 . S
H2357 C2372 0.960 . S
H2358 C2372 0.960 . S
H2359 C2372 0.960 . S
C2360 H2352 0.929 . S
C2360 C2361 1.377 . S
C2360 C2362 1.384 . S
C2361 C2360 1.377 . S
C2361 C2367 1.390 . S
C2362 H2353 0.930 . S
C2362 C2360 1.384 . S
C2362 C2363 1.372 . S
C2363 C2362 1.372 . S
C2363 C2364 1.400 . S
C2363 C2368 1.490 . S
C2364 H2354 0.930 . S
C2364 C2363 1.400 . S
C2364 C2367 1.386 . S
H2365 C2381 0.930 . S
H2366 C2382 0.931 . S
C2367 H2355 0.929 . S
C2367 C2361 1.390 . S
C2367 C2364 1.386 . S
C2368 C2363 1.490 . S
C2368 C2370 1.395 . S
C2368 C2371 1.403 . S
H2369 C2375 0.930 . S
C2370 H2356 0.930 . S
C2370 C2368 1.395 . S
C2370 C2373 1.403 . S
C2371 C2368 1.403 . S
C2371 C2372 1.524 . S
C2371 C2375 1.400 . S
C2372 H2357 0.960 . S
C2372 H2358 0.960 . S
C2372 H2359 0.960 . S
C2372 C2371 1.524 . S
C2373 C2370 1.403 . S
C2373 C2374 1.392 . S
C2373 C2377 1.495 . S
C2374 C2373 1.392 . S
C2374 C2375 1.385 . S
C2374 C2376 1.478 . S
C2375 H2369 0.930 . S
C2375 C2371 1.400 . S
C2375 C2374 1.385 . S
C2376 C2374 1.478 . S
C2376 C2378 1.381 . S
C2376 C2382 1.383 . S
C2377 C2373 1.495 . S
C2377 H2383 0.959 . S
C2377 H2384 0.961 . S
C2377 H2385 0.960 . S
C2378 C2376 1.381 . S
C2378 C2379 1.394 . S
C2378 H2386 0.930 . S
C2379 C2378 1.394 . S
C2379 C2380 1.383 . S
C2379 H2387 0.929 . S
C2380 C2379 1.383 . S
C2380 C2381 1.377 . S
C2381 H2365 0.930 . S
C2381 C2380 1.377 . S
C2381 C2382 1.379 . S
C2382 H2366 0.931 . S
C2382 C2376 1.383 . S
C2382 C2381 1.379 . S
H2383 C2377 0.959 . S
H2384 C2377 0.961 . S
H2385 C2377 0.960 . S
H2386 C2378 0.930 . S
H2387 C2379 0.929 . S
H2388 C2396 0.929 . S
H2389 C2398 0.930 . S
H2390 C2400 0.930 . S
H2391 C2403 0.929 . S
H2392 C2406 0.930 . S
H2393 C2408 0.960 . S
H2394 C2408 0.960 . S
H2395 C2408 0.960 . S
C2396 H2388 0.929 . S
C2396 C2397 1.377 . S
C2396 C2398 1.384 . S
C2397 C2396 1.377 . S
C2397 C2403 1.390 . S
C2398 H2389 0.930 . S
C2398 C2396 1.384 . S
C2398 C2399 1.372 . S
C2399 C2398 1.372 . S
C2399 C2400 1.400 . S
C2399 C2404 1.490 . S
C2400 H2390 0.930 . S
C2400 C2399 1.400 . S
C2400 C2403 1.386 . S
H2401 C2417 0.930 . S
H2402 C2418 0.931 . S
C2403 H2391 0.929 . S
C2403 C2397 1.390 . S
C2403 C2400 1.386 . S
C2404 C2399 1.490 . S
C2404 C2406 1.395 . S
C2404 C2407 1.403 . S
H2405 C2411 0.930 . S
C2406 H2392 0.930 . S
C2406 C2404 1.395 . S
C2406 C2409 1.403 . S
C2407 C2404 1.403 . S
C2407 C2408 1.524 . S
C2407 C2411 1.400 . S
C2408 H2393 0.960 . S
C2408 H2394 0.960 . S
C2408 H2395 0.960 . S
C2408 C2407 1.524 . S
C2409 C2406 1.403 . S
C2409 C2410 1.392 . S
C2409 C2413 1.495 . S
C2410 C2409 1.392 . S
C2410 C2411 1.385 . S
C2410 C2412 1.478 . S
C2411 H2405 0.930 . S
C2411 C2407 1.400 . S
C2411 C2410 1.385 . S
C2412 C2410 1.478 . S
C2412 C2414 1.381 . S
C2412 C2418 1.383 . S
C2413 C2409 1.495 . S
C2413 H2419 0.959 . S
C2413 H2420 0.961 . S
C2413 H2421 0.960 . S
C2414 C2412 1.381 . S
C2414 C2415 1.394 . S
C2414 H2422 0.930 . S
C2415 C2414 1.394 . S
C2415 C2416 1.383 . S
C2415 H2423 0.929 . S
C2416 C2415 1.383 . S
C2416 C2417 1.377 . S
C2417 H2401 0.930 . S
C2417 C2416 1.377 . S
C2417 C2418 1.379 . S
C2418 H2402 0.931 . S
C2418 C2412 1.383 . S
C2418 C2417 1.379 . S
H2419 C2413 0.959 . S
H2420 C2413 0.961 . S
H2421 C2413 0.960 . S
H2422 C2414 0.930 . S
H2423 C2415 0.929 . S
H2424 C2432 0.929 . S
H2425 C2434 0.930 . S
H2426 C2436 0.930 . S
H2427 C2439 0.929 . S
H2428 C2442 0.930 . S
H2429 C2444 0.960 . S
H2430 C2444 0.960 . S
H2431 C2444 0.960 . S
C2432 H2424 0.929 . S
C2432 C2433 1.377 . S
C2432 C2434 1.384 . S
C2433 C2432 1.377 . S
C2433 C2439 1.390 . S
C2434 H2425 0.930 . S
C2434 C2432 1.384 . S
C2434 C2435 1.372 . S
C2435 C2434 1.372 . S
C2435 C2436 1.400 . S
C2435 C2440 1.490 . S
C2436 H2426 0.930 . S
C2436 C2435 1.400 . S
C2436 C2439 1.386 . S
H2437 C2453 0.930 . S
H2438 C2454 0.931 . S
C2439 H2427 0.929 . S
C2439 C2433 1.390 . S
C2439 C2436 1.386 . S
C2440 C2435 1.490 . S
C2440 C2442 1.395 . S
C2440 C2443 1.403 . S
H2441 C2447 0.930 . S
C2442 H2428 0.930 . S
C2442 C2440 1.395 . S
C2442 C2445 1.403 . S
C2443 C2440 1.403 . S
C2443 C2444 1.524 . S
C2443 C2447 1.400 . S
C2444 H2429 0.960 . S
C2444 H2430 0.960 . S
C2444 H2431 0.960 . S
C2444 C2443 1.524 . S
C2445 C2442 1.403 . S
C2445 C2446 1.392 . S
C2445 C2449 1.495 . S
C2446 C2445 1.392 . S
C2446 C2447 1.385 . S
C2446 C2448 1.478 . S
C2447 H2441 0.930 . S
C2447 C2443 1.400 . S
C2447 C2446 1.385 . S
C2448 C2446 1.478 . S
C2448 C2450 1.381 . S
C2448 C2454 1.383 . S
C2449 C2445 1.495 . S
C2449 H2455 0.959 . S
C2449 H2456 0.961 . S
C2449 H2457 0.960 . S
C2450 C2448 1.381 . S
C2450 C2451 1.394 . S
C2450 H2458 0.930 . S
C2451 C2450 1.394 . S
C2451 C2452 1.383 . S
C2451 H2459 0.929 . S
C2452 C2451 1.383 . S
C2452 C2453 1.377 . S
C2453 H2437 0.930 . S
C2453 C2452 1.377 . S
C2453 C2454 1.379 . S
C2454 H2438 0.931 . S
C2454 C2448 1.383 . S
C2454 C2453 1.379 . S
H2455 C2449 0.959 . S
H2456 C2449 0.961 . S
H2457 C2449 0.960 . S
H2458 C2450 0.930 . S
H2459 C2451 0.929 . S
H2460 C2468 0.929 . S
H2461 C2470 0.930 1_554 S
H2462 C2472 0.930 . S
H2463 C2475 0.929 . S
H2464 C2478 0.930 1_556 S
H2465 C2480 0.960 . S
H2466 C2480 0.960 . S
H2467 C2480 0.960 . S
C2468 H2460 0.929 . S
C2468 C2469 1.377 . S
C2468 C2470 1.384 . S
C2469 C2468 1.377 . S
C2469 C2475 1.390 . S
C2470 H2461 0.930 1_556 S
C2470 C2468 1.384 . S
C2470 C2471 1.372 . S
C2471 C2470 1.372 . S
C2471 C2472 1.400 . S
C2471 C2476 1.490 . S
C2472 H2462 0.930 . S
C2472 C2471 1.400 . S
C2472 C2475 1.386 . S
H2473 C2489 0.930 . S
H2474 C2490 0.931 . S
C2475 H2463 0.929 . S
C2475 C2469 1.390 . S
C2475 C2472 1.386 . S
C2476 C2471 1.490 . S
C2476 C2478 1.395 1_556 S
C2476 C2479 1.403 . S
H2477 C2483 0.930 . S
C2478 H2464 0.930 1_554 S
C2478 C2476 1.395 1_554 S
C2478 C2481 1.403 1_455 S
C2479 C2476 1.403 . S
C2479 C2480 1.524 . S
C2479 C2483 1.400 1_456 S
C2480 H2465 0.960 . S
C2480 H2466 0.960 . S
C2480 H2467 0.960 . S
C2480 C2479 1.524 . S
C2481 C2478 1.403 1_655 S
C2481 C2482 1.392 . S
C2481 C2485 1.495 . S
C2482 C2481 1.392 . S
C2482 C2483 1.385 . S
C2482 C2484 1.478 . S
C2483 H2477 0.930 . S
C2483 C2479 1.400 1_654 S
C2483 C2482 1.385 . S
C2484 C2482 1.478 . S
C2484 C2486 1.381 . S
C2484 C2490 1.383 . S
C2485 C2481 1.495 . S
C2485 H2491 0.959 . S
C2485 H2492 0.961 . S
C2485 H2493 0.960 . S
C2486 C2484 1.381 . S
C2486 C2487 1.394 . S
C2486 H2494 0.930 . S
C2487 C2486 1.394 . S
C2487 C2488 1.383 . S
C2487 H2495 0.929 . S
C2488 C2487 1.383 . S
C2488 C2489 1.377 . S
C2489 H2473 0.930 . S
C2489 C2488 1.377 . S
C2489 C2490 1.379 . S
C2490 H2474 0.931 . S
C2490 C2484 1.383 . S
C2490 C2489 1.379 . S
H2491 C2485 0.959 . S
H2492 C2485 0.961 . S
H2493 C2485 0.960 . S
H2494 C2486 0.930 . S
H2495 C2487 0.929 . S
H2496 C2504 0.929 . S
H2497 C2506 0.930 . S
H2498 C2508 0.930 . S
H2499 C2511 0.929 . S
H2500 C2514 0.930 . S
H2501 C2516 0.960 . S
H2502 C2516 0.960 . S
H2503 C2516 0.960 . S
C2504 H2496 0.929 . S
C2504 C2505 1.377 . S
C2504 C2506 1.384 . S
C2505 C2504 1.377 . S
C2505 C2511 1.390 . S
C2506 H2497 0.930 . S
C2506 C2504 1.384 . S
C2506 C2507 1.372 . S
C2507 C2506 1.372 . S
C2507 C2508 1.400 . S
C2507 C2512 1.490 . S
C2508 H2498 0.930 . S
C2508 C2507 1.400 . S
C2508 C2511 1.386 . S
H2509 C2525 0.930 . S
H2510 C2526 0.931 . S
C2511 H2499 0.929 . S
C2511 C2505 1.390 . S
C2511 C2508 1.386 . S
C2512 C2507 1.490 . S
C2512 C2514 1.395 . S
C2512 C2515 1.403 . S
H2513 C2519 0.930 . S
C2514 H2500 0.930 . S
C2514 C2512 1.395 . S
C2514 C2517 1.403 . S
C2515 C2512 1.403 . S
C2515 C2516 1.524 . S
C2515 C2519 1.400 . S
C2516 H2501 0.960 . S
C2516 H2502 0.960 . S
C2516 H2503 0.960 . S
C2516 C2515 1.524 . S
C2517 C2514 1.403 . S
C2517 C2518 1.392 . S
C2517 C2521 1.495 . S
C2518 C2517 1.392 . S
C2518 C2519 1.385 . S
C2518 C2520 1.478 . S
C2519 H2513 0.930 . S
C2519 C2515 1.400 . S
C2519 C2518 1.385 . S
C2520 C2518 1.478 . S
C2520 C2522 1.381 . S
C2520 C2526 1.383 . S
C2521 C2517 1.495 . S
C2521 H2527 0.959 . S
C2521 H2528 0.961 . S
C2521 H2529 0.960 . S
C2522 C2520 1.381 . S
C2522 C2523 1.394 . S
C2522 H2530 0.930 . S
C2523 C2522 1.394 . S
C2523 C2524 1.383 . S
C2523 H2531 0.929 . S
C2524 C2523 1.383 . S
C2524 C2525 1.377 . S
C2525 H2509 0.930 . S
C2525 C2524 1.377 . S
C2525 C2526 1.379 . S
C2526 H2510 0.931 . S
C2526 C2520 1.383 . S
C2526 C2525 1.379 . S
H2527 C2521 0.959 . S
H2528 C2521 0.961 . S
H2529 C2521 0.960 . S
H2530 C2522 0.930 . S
H2531 C2523 0.929 . S
H2532 C2540 0.929 . S
H2533 C2542 0.930 . S
H2534 C2544 0.930 . S
H2535 C2547 0.929 . S
H2536 C2550 0.939 . S
H2537 C2552 0.960 . S
H2538 C2552 0.960 . S
H2539 C2552 0.960 . S
C2540 H2532 0.929 . S
C2540 C2541 1.377 . S
C2540 C2542 1.384 . S
C2541 C2540 1.377 . S
C2541 C2547 1.390 . S
C2542 H2533 0.930 . S
C2542 C2540 1.384 . S
C2542 C2543 1.372 . S
C2543 C2542 1.372 . S
C2543 C2544 1.400 . S
C2543 C2548 1.490 . S
C2544 H2534 0.930 . S
C2544 C2543 1.400 . S
C2544 C2547 1.386 . S
H2545 C2561 0.930 . S
H2546 C2562 0.931 . S
C2547 H2535 0.929 . S
C2547 C2541 1.390 . S
C2547 C2544 1.386 . S
C2548 C2543 1.490 . S
C2548 C2550 1.395 1_455 S
C2548 C2551 1.403 . S
H2549 C2555 0.930 . S
C2550 H2536 0.939 . S
C2550 C2548 1.395 1_655 S
C2550 C2553 1.403 . S
C2551 C2548 1.403 . S
C2551 C2552 1.524 . S
C2551 C2555 1.400 1_455 S
C2552 H2537 0.960 . S
C2552 H2538 0.960 . S
C2552 H2539 0.960 . S
C2552 C2551 1.524 . S
C2553 C2550 1.403 . S
C2553 C2554 1.392 . S
C2553 C2557 1.495 . S
C2554 C2553 1.392 . S
C2554 C2555 1.385 . S
C2554 C2556 1.478 . S
C2555 H2549 0.930 . S
C2555 C2551 1.400 1_655 S
C2555 C2554 1.385 . S
C2556 C2554 1.478 . S
C2556 C2558 1.381 . S
C2556 C2562 1.383 . S
C2557 C2553 1.495 . S
C2557 H2563 0.959 . S
C2557 H2564 0.961 . S
C2557 H2565 0.960 . S
C2558 C2556 1.381 . S
C2558 C2559 1.394 . S
C2558 H2566 0.930 . S
C2559 C2558 1.394 . S
C2559 C2560 1.383 . S
C2559 H2567 0.929 . S
C2560 C2559 1.383 . S
C2560 C2561 1.377 . S
C2561 H2545 0.930 . S
C2561 C2560 1.377 . S
C2561 C2562 1.379 . S
C2562 H2546 0.931 . S
C2562 C2556 1.383 . S
C2562 C2561 1.379 . S
H2563 C2557 0.959 . S
H2564 C2557 0.961 . S
H2565 C2557 0.960 . S
H2566 C2558 0.930 . S
H2567 C2559 0.929 . S
H2568 C2576 0.929 . S
H2569 C2578 0.930 . S
H2570 C2580 0.930 . S
H2571 C2583 0.929 . S
H2572 C2586 0.930 . S
H2573 C2588 0.960 . S
H2574 C2588 0.960 . S
H2575 C2588 0.960 . S
C2576 H2568 0.929 . S
C2576 C2577 1.377 . S
C2576 C2578 1.384 . S
C2577 C2576 1.377 . S
C2577 C2583 1.390 . S
C2578 H2569 0.930 . S
C2578 C2576 1.384 . S
C2578 C2579 1.372 . S
C2579 C2578 1.372 . S
C2579 C2580 1.400 . S
C2579 C2584 1.490 . S
C2580 H2570 0.930 . S
C2580 C2579 1.400 . S
C2580 C2583 1.386 . S
H2581 C2597 0.930 . S
H2582 C2598 0.931 . S
C2583 H2571 0.929 . S
C2583 C2577 1.390 . S
C2583 C2580 1.386 . S
C2584 C2579 1.490 . S
C2584 C2586 1.395 . S
C2584 C2587 1.403 . S
H2585 C2591 0.930 . S
C2586 H2572 0.930 . S
C2586 C2584 1.395 . S
C2586 C2589 1.403 . S
C2587 C2584 1.403 . S
C2587 C2588 1.524 . S
C2587 C2591 1.400 . S
C2588 H2573 0.960 . S
C2588 H2574 0.960 . S
C2588 H2575 0.960 . S
C2588 C2587 1.524 . S
C2589 C2586 1.403 . S
C2589 C2590 1.392 . S
C2589 C2593 1.495 . S
C2590 C2589 1.392 . S
C2590 C2591 1.385 . S
C2590 C2592 1.478 . S
C2591 H2585 0.930 . S
C2591 C2587 1.400 . S
C2591 C2590 1.385 . S
C2592 C2590 1.478 . S
C2592 C2594 1.381 . S
C2592 C2598 1.383 . S
C2593 C2589 1.495 . S
C2593 H2599 0.959 . S
C2593 H2600 0.961 . S
C2593 H2601 0.960 . S
C2594 C2592 1.381 . S
C2594 C2595 1.394 . S
C2594 H2602 0.930 . S
C2595 C2594 1.394 . S
C2595 C2596 1.383 . S
C2595 H2603 0.929 . S
C2596 C2595 1.383 . S
C2596 C2597 1.377 . S
C2597 H2581 0.930 . S
C2597 C2596 1.377 . S
C2597 C2598 1.379 . S
C2598 H2582 0.931 . S
C2598 C2592 1.383 . S
C2598 C2597 1.379 . S
H2599 C2593 0.959 . S
H2600 C2593 0.961 . S
H2601 C2593 0.960 . S
H2602 C2594 0.930 . S
H2603 C2595 0.929 . S
H2604 C2612 0.929 . S
H2605 C2614 0.930 . S
H2606 C2616 0.930 . S
H2607 C2619 0.929 . S
H2608 C2622 0.930 . S
H2609 C2624 0.960 . S
H2610 C2624 0.960 . S
H2611 C2624 0.960 . S
C2612 H2604 0.929 . S
C2612 C2613 1.377 . S
C2612 C2614 1.384 . S
C2613 C2612 1.377 . S
C2613 C2619 1.390 . S
C2614 H2605 0.930 . S
C2614 C2612 1.384 . S
C2614 C2615 1.372 . S
C2615 C2614 1.372 . S
C2615 C2616 1.400 . S
C2615 C2620 1.490 . S
C2616 H2606 0.930 . S
C2616 C2615 1.400 . S
C2616 C2619 1.386 . S
H2617 C2633 0.930 . S
H2618 C2634 0.931 . S
C2619 H2607 0.929 . S
C2619 C2613 1.390 . S
C2619 C2616 1.386 . S
C2620 C2615 1.490 . S
C2620 C2622 1.395 . S
C2620 C2623 1.403 . S
H2621 C2627 0.930 . S
C2622 H2608 0.930 . S
C2622 C2620 1.395 . S
C2622 C2625 1.403 1_554 S
C2623 C2620 1.403 . S
C2623 C2624 1.524 . S
C2623 C2627 1.400 . S
C2624 H2609 0.960 . S
C2624 H2610 0.960 . S
C2624 H2611 0.960 . S
C2624 C2623 1.524 . S
C2625 C2622 1.403 1_556 S
C2625 C2626 1.392 . S
C2625 C2629 1.495 . S
C2626 C2625 1.392 . S
C2626 C2627 1.385 1_556 S
C2626 C2628 1.478 . S
C2627 H2621 0.930 . S
C2627 C2623 1.400 . S
C2627 C2626 1.385 1_554 S
C2628 C2626 1.478 . S
C2628 C2630 1.381 . S
C2628 C2634 1.383 . S
C2629 C2625 1.495 . S
C2629 H2635 0.959 . S
C2629 H2636 0.961 . S
C2629 H2637 0.960 . S
C2630 C2628 1.381 . S
C2630 C2631 1.394 . S
C2630 H2638 0.930 . S
C2631 C2630 1.394 . S
C2631 C2632 1.383 . S
C2631 H2639 0.929 . S
C2632 C2631 1.383 . S
C2632 C2633 1.377 . S
C2633 H2617 0.930 . S
C2633 C2632 1.377 . S
C2633 C2634 1.379 . S
C2634 H2618 0.931 . S
C2634 C2628 1.383 . S
C2634 C2633 1.379 . S
H2635 C2629 0.959 . S
H2636 C2629 0.961 . S
H2637 C2629 0.960 . S
H2638 C2630 0.930 . S
H2639 C2631 0.929 . S
H2640 C2648 0.929 . S
H2641 C2650 0.930 . S
H2642 C2652 0.930 . S
H2643 C2655 0.929 . S
H2644 C2658 0.930 . S
H2645 C2660 0.960 . S
H2646 C2660 0.960 . S
H2647 C2660 0.960 . S
C2648 H2640 0.929 . S
C2648 C2649 1.377 . S
C2648 C2650 1.384 . S
C2649 C2648 1.377 . S
C2649 C2655 1.390 . S
C2650 H2641 0.930 . S
C2650 C2648 1.384 . S
C2650 C2651 1.372 . S
C2651 C2650 1.372 . S
C2651 C2652 1.400 . S
C2651 C2656 1.490 . S
C2652 H2642 0.930 . S
C2652 C2651 1.400 . S
C2652 C2655 1.386 . S
H2653 C2669 0.930 . S
H2654 C2670 0.931 . S
C2655 H2643 0.929 . S
C2655 C2649 1.390 . S
C2655 C2652 1.386 . S
C2656 C2651 1.490 . S
C2656 C2658 1.395 . S
C2656 C2659 1.403 . S
H2657 C2663 0.930 . S
C2658 H2644 0.930 . S
C2658 C2656 1.395 . S
C2658 C2661 1.403 . S
C2659 C2656 1.403 . S
C2659 C2660 1.524 . S
C2659 C2663 1.400 . S
C2660 H2645 0.960 . S
C2660 H2646 0.960 . S
C2660 H2647 0.960 . S
C2660 C2659 1.524 . S
C2661 C2658 1.403 . S
C2661 C2662 1.392 . S
C2661 C2665 1.495 . S
C2662 C2661 1.392 . S
C2662 C2663 1.385 . S
C2662 C2664 1.478 . S
C2663 H2657 0.930 . S
C2663 C2659 1.400 . S
C2663 C2662 1.385 . S
C2664 C2662 1.478 . S
C2664 C2666 1.381 . S
C2664 C2670 1.383 . S
C2665 C2661 1.495 . S
C2665 H2671 0.959 . S
C2665 H2672 0.961 . S
C2665 H2673 0.960 . S
C2666 C2664 1.381 . S
C2666 C2667 1.394 . S
C2666 H2674 0.930 . S
C2667 C2666 1.394 . S
C2667 C2668 1.383 . S
C2667 H2675 0.929 . S
C2668 C2667 1.383 . S
C2668 C2669 1.377 . S
C2669 H2653 0.930 . S
C2669 C2668 1.377 . S
C2669 C2670 1.379 . S
C2670 H2654 0.931 . S
C2670 C2664 1.383 . S
C2670 C2669 1.379 . S
H2671 C2665 0.959 . S
H2672 C2665 0.961 . S
H2673 C2665 0.960 . S
H2674 C2666 0.930 . S
H2675 C2667 0.929 . S
H2676 C2684 0.929 . S
H2677 C2686 0.930 . S
H2678 C2688 0.930 . S
H2679 C2691 0.929 . S
H2680 C2694 0.930 . S
H2681 C2696 0.960 . S
H2682 C2696 0.960 . S
H2683 C2696 0.960 . S
C2684 H2676 0.929 . S
C2684 C2685 1.377 . S
C2684 C2686 1.384 . S
C2685 C2684 1.377 . S
C2685 C2691 1.390 . S
C2686 H2677 0.930 . S
C2686 C2684 1.384 . S
C2686 C2687 1.372 . S
C2687 C2686 1.372 . S
C2687 C2688 1.400 . S
C2687 C2692 1.490 . S
C2688 H2678 0.930 . S
C2688 C2687 1.400 . S
C2688 C2691 1.386 . S
H2689 C2705 0.930 . S
H2690 C2706 0.931 . S
C2691 H2679 0.929 . S
C2691 C2685 1.390 . S
C2691 C2688 1.386 . S
C2692 C2687 1.490 . S
C2692 C2694 1.395 . S
C2692 C2695 1.403 . S
H2693 C2699 0.930 . S
C2694 H2680 0.930 . S
C2694 C2692 1.395 . S
C2694 C2697 1.403 . S
C2695 C2692 1.403 . S
C2695 C2696 1.524 . S
C2695 C2699 1.400 . S
C2696 H2681 0.960 . S
C2696 H2682 0.960 . S
C2696 H2683 0.960 . S
C2696 C2695 1.524 . S
C2697 C2694 1.403 . S
C2697 C2698 1.392 . S
C2697 C2701 1.495 . S
C2698 C2697 1.392 . S
C2698 C2699 1.385 . S
C2698 C2700 1.478 . S
C2699 H2693 0.930 . S
C2699 C2695 1.400 . S
C2699 C2698 1.385 . S
C2700 C2698 1.478 . S
C2700 C2702 1.381 . S
C2700 C2706 1.383 . S
C2701 C2697 1.495 . S
C2701 H2707 0.959 . S
C2701 H2708 0.961 . S
C2701 H2709 0.960 . S
C2702 C2700 1.381 . S
C2702 C2703 1.394 . S
C2702 H2710 0.930 . S
C2703 C2702 1.394 . S
C2703 C2704 1.383 . S
C2703 H2711 0.929 . S
C2704 C2703 1.383 . S
C2704 C2705 1.377 . S
C2705 H2689 0.930 . S
C2705 C2704 1.377 . S
C2705 C2706 1.379 . S
C2706 H2690 0.931 . S
C2706 C2700 1.383 . S
C2706 C2705 1.379 . S
H2707 C2701 0.959 . S
H2708 C2701 0.961 . S
H2709 C2701 0.960 . S
H2710 C2702 0.930 . S
H2711 C2703 0.929 . S
H2712 C2720 0.929 . S
H2713 C2722 0.930 . S
H2714 C2724 0.930 . S
H2715 C2727 0.929 . S
H2716 C2730 0.930 . S
H2717 C2732 0.960 . S
H2718 C2732 0.960 . S
H2719 C2732 0.960 . S
C2720 H2712 0.929 . S
C2720 C2721 1.377 . S
C2720 C2722 1.384 . S
C2721 C2720 1.377 . S
C2721 C2727 1.390 . S
C2722 H2713 0.930 . S
C2722 C2720 1.384 . S
C2722 C2723 1.372 . S
C2723 C2722 1.372 . S
C2723 C2724 1.400 . S
C2723 C2728 1.490 . S
C2724 H2714 0.930 . S
C2724 C2723 1.400 . S
C2724 C2727 1.386 . S
H2725 C2741 0.930 . S
H2726 C2742 0.931 . S
C2727 H2715 0.929 . S
C2727 C2721 1.390 . S
C2727 C2724 1.386 . S
C2728 C2723 1.490 . S
C2728 C2730 1.395 . S
C2728 C2731 1.403 . S
H2729 C2735 0.930 . S
C2730 H2716 0.930 . S
C2730 C2728 1.395 . S
C2730 C2733 1.403 . S
C2731 C2728 1.403 . S
C2731 C2732 1.524 . S
C2731 C2735 1.400 . S
C2732 H2717 0.960 . S
C2732 H2718 0.960 . S
C2732 H2719 0.960 . S
C2732 C2731 1.524 . S
C2733 C2730 1.403 . S
C2733 C2734 1.392 . S
C2733 C2737 1.495 . S
C2734 C2733 1.392 . S
C2734 C2735 1.385 . S
C2734 C2736 1.478 . S
C2735 H2729 0.930 . S
C2735 C2731 1.400 . S
C2735 C2734 1.385 . S
C2736 C2734 1.478 . S
C2736 C2738 1.381 . S
C2736 C2742 1.383 . S
C2737 C2733 1.495 . S
C2737 H2743 0.959 . S
C2737 H2744 0.961 . S
C2737 H2745 0.960 . S
C2738 C2736 1.381 . S
C2738 C2739 1.394 . S
C2738 H2746 0.930 . S
C2739 C2738 1.394 . S
C2739 C2740 1.383 . S
C2739 H2747 0.929 . S
C2740 C2739 1.383 . S
C2740 C2741 1.377 . S
C2741 H2725 0.930 . S
C2741 C2740 1.377 . S
C2741 C2742 1.379 . S
C2742 H2726 0.931 . S
C2742 C2736 1.383 . S
C2742 C2741 1.379 . S
H2743 C2737 0.959 . S
H2744 C2737 0.961 . S
H2745 C2737 0.960 . S
H2746 C2738 0.930 . S
H2747 C2739 0.929 . S
H2748 C2756 0.929 . S
H2749 C2758 0.930 . S
H2750 C2760 0.930 . S
H2751 C2763 0.929 . S
H2752 C2766 0.930 . S
H2753 C2768 0.960 . S
H2754 C2768 0.960 . S
H2755 C2768 0.960 . S
C2756 H2748 0.929 . S
C2756 C2757 1.377 . S
C2756 C2758 1.384 . S
C2757 C2756 1.377 . S
C2757 C2763 1.390 . S
C2758 H2749 0.930 . S
C2758 C2756 1.384 . S
C2758 C2759 1.372 . S
C2759 C2758 1.372 . S
C2759 C2760 1.400 . S
C2759 C2764 1.490 . S
C2760 H2750 0.930 . S
C2760 C2759 1.400 . S
C2760 C2763 1.386 . S
H2761 C2777 0.930 . S
H2762 C2778 0.931 . S
C2763 H2751 0.929 . S
C2763 C2757 1.390 . S
C2763 C2760 1.386 . S
C2764 C2759 1.490 . S
C2764 C2766 1.395 1_556 S
C2764 C2767 1.403 1_455 S
H2765 C2771 0.930 . S
C2766 H2752 0.930 . S
C2766 C2764 1.395 1_554 S
C2766 C2769 1.358 1_455 S
C2767 C2764 1.403 1_655 S
C2767 C2768 1.524 . S
C2767 C2771 1.400 . S
C2768 H2753 0.960 . S
C2768 H2754 0.960 . S
C2768 H2755 0.960 . S
C2768 C2767 1.524 . S
C2769 C2766 1.358 1_655 S
C2769 C2770 1.447 . S
C2769 C2773 1.487 1_655 S
C2770 C2769 1.447 . S
C2770 C2771 1.385 1_554 S
C2770 C2772 1.478 . S
C2771 H2765 0.930 . S
C2771 C2767 1.400 . S
C2771 C2770 1.385 1_556 S
C2772 C2770 1.478 . S
C2772 C2774 1.381 . S
C2772 C2778 1.383 . S
C2773 C2769 1.487 1_455 S
C2773 H2779 0.959 . S
C2773 H2780 0.961 1_455 S
C2773 H2781 0.960 1_455 S
C2774 C2772 1.381 . S
C2774 C2775 1.394 . S
C2774 H2782 0.930 . S
C2775 C2774 1.394 . S
C2775 C2776 1.383 . S
C2775 H2783 0.929 . S
C2776 C2775 1.383 . S
C2776 C2777 1.377 . S
C2777 H2761 0.930 . S
C2777 C2776 1.377 . S
C2777 C2778 1.379 . S
C2778 H2762 0.931 . S
C2778 C2772 1.383 . S
C2778 C2777 1.379 . S
H2779 C2773 0.959 . S
H2780 C2773 0.961 1_655 S
H2781 C2773 0.960 1_655 S
H2782 C2774 0.930 . S
H2783 C2775 0.929 . S
H2784 C2792 0.929 . S
H2785 C2794 0.930 . S
H2786 C2796 0.930 . S
H2787 C2799 0.929 . S
H2788 C2802 0.930 . S
H2789 C2804 0.960 . S
H2790 C2804 0.960 . S
H2791 C2804 0.960 . S
C2792 H2784 0.929 . S
C2792 C2793 1.377 . S
C2792 C2794 1.384 . S
C2793 C2792 1.377 . S
C2793 C2799 1.390 . S
C2794 H2785 0.930 . S
C2794 C2792 1.384 . S
C2794 C2795 1.372 . S
C2795 C2794 1.372 . S
C2795 C2796 1.400 . S
C2795 C2800 1.490 . S
C2796 H2786 0.930 . S
C2796 C2795 1.400 . S
C2796 C2799 1.386 . S
H2797 C2813 0.930 . S
H2798 C2814 0.931 . S
C2799 H2787 0.929 . S
C2799 C2793 1.390 . S
C2799 C2796 1.386 . S
C2800 C2795 1.490 . S
C2800 C2802 1.395 . S
C2800 C2803 1.403 . S
H2801 C2807 0.930 . S
C2802 H2788 0.930 . S
C2802 C2800 1.395 . S
C2802 C2805 1.403 . S
C2803 C2800 1.403 . S
C2803 C2804 1.524 . S
C2803 C2807 1.400 . S
C2804 H2789 0.960 . S
C2804 H2790 0.960 . S
C2804 H2791 0.960 . S
C2804 C2803 1.524 . S
C2805 C2802 1.403 . S
C2805 C2806 1.392 . S
C2805 C2809 1.495 . S
C2806 C2805 1.392 . S
C2806 C2807 1.385 . S
C2806 C2808 1.478 . S
C2807 H2801 0.930 . S
C2807 C2803 1.400 . S
C2807 C2806 1.385 . S
C2808 C2806 1.478 . S
C2808 C2810 1.381 . S
C2808 C2814 1.383 . S
C2809 C2805 1.495 . S
C2809 H2815 0.959 . S
C2809 H2816 0.961 . S
C2809 H2817 0.960 . S
C2810 C2808 1.381 . S
C2810 C2811 1.394 . S
C2810 H2818 0.930 . S
C2811 C2810 1.394 . S
C2811 C2812 1.383 . S
C2811 H2819 0.929 . S
C2812 C2811 1.383 . S
C2812 C2813 1.377 . S
C2813 H2797 0.930 . S
C2813 C2812 1.377 . S
C2813 C2814 1.379 . S
C2814 H2798 0.931 . S
C2814 C2808 1.383 . S
C2814 C2813 1.379 . S
H2815 C2809 0.959 . S
H2816 C2809 0.961 . S
H2817 C2809 0.960 . S
H2818 C2810 0.930 . S
H2819 C2811 0.929 . S
H2820 C2828 0.929 . S
H2821 C2830 0.930 . S
H2822 C2832 0.942 . S
H2823 C2835 0.929 . S
H2824 C2838 0.930 . S
H2825 C2840 0.960 . S
H2826 C2840 0.960 . S
H2827 C2840 0.960 . S
C2828 H2820 0.929 . S
C2828 C2829 1.377 . S
C2828 C2830 1.384 . S
C2829 C2828 1.377 . S
C2829 C2835 1.390 . S
C2830 H2821 0.930 . S
C2830 C2828 1.384 . S
C2830 C2831 1.372 . S
C2831 C2830 1.372 . S
C2831 C2832 1.400 . S
C2831 C2836 1.490 . S
C2832 H2822 0.942 . S
C2832 C2831 1.400 . S
C2832 C2835 1.386 . S
H2833 C2849 0.930 . S
H2834 C2850 0.931 . S
C2835 H2823 0.929 . S
C2835 C2829 1.390 . S
C2835 C2832 1.386 . S
C2836 C2831 1.490 . S
C2836 C2838 1.395 . S
C2836 C2839 1.403 1_554 S
H2837 C2843 0.930 . S
C2838 H2824 0.930 . S
C2838 C2836 1.395 . S
C2838 C2841 1.403 . S
C2839 C2836 1.403 1_556 S
C2839 C2840 1.524 . S
C2839 C2843 1.400 . S
C2840 H2825 0.960 . S
C2840 H2826 0.960 . S
C2840 H2827 0.960 . S
C2840 C2839 1.524 . S
C2841 C2838 1.403 . S
C2841 C2842 1.392 1_554 S
C2841 C2845 1.495 . S
C2842 C2841 1.392 1_556 S
C2842 C2843 1.385 . S
C2842 C2844 1.478 . S
C2843 H2837 0.930 . S
C2843 C2839 1.400 . S
C2843 C2842 1.385 . S
C2844 C2842 1.478 . S
C2844 C2846 1.381 . S
C2844 C2850 1.383 . S
C2845 C2841 1.495 . S
C2845 H2851 0.959 . S
C2845 H2852 0.961 . S
C2845 H2853 0.960 . S
C2846 C2844 1.381 . S
C2846 C2847 1.394 . S
C2846 H2854 0.930 . S
C2847 C2846 1.394 . S
C2847 C2848 1.383 . S
C2847 H2855 0.929 . S
C2848 C2847 1.383 . S
C2848 C2849 1.377 . S
C2849 H2833 0.930 . S
C2849 C2848 1.377 . S
C2849 C2850 1.379 . S
C2850 H2834 0.931 . S
C2850 C2844 1.383 . S
C2850 C2849 1.379 . S
H2851 C2845 0.959 . S
H2852 C2845 0.961 . S
H2853 C2845 0.960 . S
H2854 C2846 0.930 . S
H2855 C2847 0.929 . S
H2856 C2864 0.929 . S
H2857 C2866 0.930 . S
H2858 C2868 0.930 . S
H2859 C2871 0.929 . S
H2860 C2874 0.930 . S
H2861 C2876 0.960 . S
H2862 C2876 0.960 . S
H2863 C2876 0.960 . S
C2864 H2856 0.929 . S
C2864 C2865 1.377 . S
C2864 C2866 1.384 . S
C2865 C2864 1.377 . S
C2865 C2871 1.390 . S
C2866 H2857 0.930 . S
C2866 C2864 1.384 . S
C2866 C2867 1.372 . S
C2867 C2866 1.372 . S
C2867 C2868 1.400 . S
C2867 C2872 1.490 . S
C2868 H2858 0.930 . S
C2868 C2867 1.400 . S
C2868 C2871 1.386 . S
H2869 C2885 0.930 . S
H2870 C2886 0.931 . S
C2871 H2859 0.929 . S
C2871 C2865 1.390 . S
C2871 C2868 1.386 . S
C2872 C2867 1.490 . S
C2872 C2874 1.395 . S
C2872 C2875 1.403 . S
H2873 C2879 0.930 . S
C2874 H2860 0.930 . S
C2874 C2872 1.395 . S
C2874 C2877 1.403 . S
C2875 C2872 1.403 . S
C2875 C2876 1.524 . S
C2875 C2879 1.400 . S
C2876 H2861 0.960 . S
C2876 H2862 0.960 . S
C2876 H2863 0.960 . S
C2876 C2875 1.524 . S
C2877 C2874 1.403 . S
C2877 C2878 1.392 . S
C2877 C2881 1.495 . S
C2878 C2877 1.392 . S
C2878 C2879 1.385 . S
C2878 C2880 1.478 . S
C2879 H2873 0.930 . S
C2879 C2875 1.400 . S
C2879 C2878 1.385 . S
C2880 C2878 1.478 . S
C2880 C2882 1.381 . S
C2880 C2886 1.383 . S
C2881 C2877 1.495 . S
C2881 H2887 0.959 . S
C2881 H2888 0.961 . S
C2881 H2889 0.960 . S
C2882 C2880 1.381 . S
C2882 C2883 1.394 . S
C2882 H2890 0.930 . S
C2883 C2882 1.394 . S
C2883 C2884 1.383 . S
C2883 H2891 0.929 . S
C2884 C2883 1.383 . S
C2884 C2885 1.377 . S
C2885 H2869 0.930 . S
C2885 C2884 1.377 . S
C2885 C2886 1.379 . S
C2886 H2870 0.931 . S
C2886 C2880 1.383 . S
C2886 C2885 1.379 . S
H2887 C2881 0.959 . S
H2888 C2881 0.961 . S
H2889 C2881 0.960 . S
H2890 C2882 0.930 . S
H2891 C2883 0.929 . S
H2892 C2900 0.929 . S
H2893 C2902 0.930 . S
H2894 C2904 0.930 . S
H2895 C2907 0.929 . S
H2896 C2910 0.930 . S
H2897 C2912 1.000 . S
H2898 C2912 0.950 1_655 S
H2899 C2912 0.939 1_655 S
C2900 H2892 0.929 . S
C2900 C2901 1.377 . S
C2900 C2902 1.384 . S
C2901 C2900 1.377 . S
C2901 C2907 1.390 . S
C2902 H2893 0.930 . S
C2902 C2900 1.384 . S
C2902 C2903 1.372 . S
C2903 C2902 1.372 . S
C2903 C2904 1.400 . S
C2903 C2908 1.490 . S
C2904 H2894 0.930 . S
C2904 C2903 1.400 . S
C2904 C2907 1.386 . S
H2905 C2921 0.930 . S
H2906 C2922 0.931 . S
C2907 H2895 0.929 . S
C2907 C2901 1.390 . S
C2907 C2904 1.386 . S
C2908 C2903 1.490 . S
C2908 C2910 1.395 . S
C2908 C2911 1.403 . S
H2909 C2915 0.930 . S
C2910 H2896 0.930 . S
C2910 C2908 1.395 . S
C2910 C2913 1.403 . S
C2911 C2908 1.403 . S
C2911 C2912 1.517 1_655 S
C2911 C2915 1.400 1_655 S
C2912 H2897 1.000 . S
C2912 H2898 0.950 1_455 S
C2912 H2899 0.939 1_455 S
C2912 C2911 1.517 1_455 S
C2913 C2910 1.403 . S
C2913 C2914 1.392 1_655 S
C2913 C2917 1.495 . S
C2914 C2913 1.392 1_455 S
C2914 C2915 1.385 . S
C2914 C2916 1.478 . S
C2915 H2909 0.930 . S
C2915 C2911 1.400 1_455 S
C2915 C2914 1.385 . S
C2916 C2914 1.478 . S
C2916 C2918 1.381 . S
C2916 C2922 1.383 . S
C2917 C2913 1.495 . S
C2917 H2923 0.959 . S
C2917 H2924 0.961 . S
C2917 H2925 0.960 . S
C2918 C2916 1.381 . S
C2918 C2919 1.394 . S
C2918 H2926 0.930 . S
C2919 C2918 1.394 . S
C2919 C2920 1.383 . S
C2919 H2927 0.929 . S
C2920 C2919 1.383 . S
C2920 C2921 1.377 . S
C2921 H2905 0.930 . S
C2921 C2920 1.377 . S
C2921 C2922 1.379 . S
C2922 H2906 0.931 . S
C2922 C2916 1.383 . S
C2922 C2921 1.379 . S
H2923 C2917 0.959 . S
H2924 C2917 0.961 . S
H2925 C2917 0.960 . S
H2926 C2918 0.930 . S
H2927 C2919 0.929 . S
H2928 C2936 0.929 . S
H2929 C2938 0.930 . S
H2930 C2940 0.930 . S
H2931 C2943 0.929 . S
H2932 C2946 0.930 . S
H2933 C2948 0.960 . S
H2934 C2948 0.960 . S
H2935 C2948 0.960 . S
C2936 H2928 0.929 . S
C2936 C2937 1.377 . S
C2936 C2938 1.384 . S
C2937 C2936 1.377 . S
C2937 C2943 1.390 . S
C2938 H2929 0.930 . S
C2938 C2936 1.384 . S
C2938 C2939 1.372 . S
C2939 C2938 1.372 . S
C2939 C2940 1.400 . S
C2939 C2944 1.490 . S
C2940 H2930 0.930 . S
C2940 C2939 1.400 . S
C2940 C2943 1.386 . S
H2941 C2957 0.930 . S
H2942 C2958 0.931 . S
C2943 H2931 0.929 . S
C2943 C2937 1.390 . S
C2943 C2940 1.386 . S
C2944 C2939 1.490 . S
C2944 C2946 1.395 . S
C2944 C2947 1.403 . S
H2945 C2951 0.930 . S
C2946 H2932 0.930 . S
C2946 C2944 1.395 . S
C2946 C2949 1.403 . S
C2947 C2944 1.403 . S
C2947 C2948 1.524 . S
C2947 C2951 1.400 . S
C2948 H2933 0.960 . S
C2948 H2934 0.960 . S
C2948 H2935 0.960 . S
C2948 C2947 1.524 . S
C2949 C2946 1.403 . S
C2949 C2950 1.392 . S
C2949 C2953 1.495 . S
C2950 C2949 1.392 . S
C2950 C2951 1.385 . S
C2950 C2952 1.478 . S
C2951 H2945 0.930 . S
C2951 C2947 1.400 . S
C2951 C2950 1.385 . S
C2952 C2950 1.478 . S
C2952 C2954 1.381 . S
C2952 C2958 1.383 . S
C2953 C2949 1.495 . S
C2953 H2959 0.959 . S
C2953 H2960 0.961 . S
C2953 H2961 0.960 . S
C2954 C2952 1.381 . S
C2954 C2955 1.394 . S
C2954 H2962 0.930 . S
C2955 C2954 1.394 . S
C2955 C2956 1.383 . S
C2955 H2963 0.929 . S
C2956 C2955 1.383 . S
C2956 C2957 1.377 . S
C2957 H2941 0.930 . S
C2957 C2956 1.377 . S
C2957 C2958 1.379 . S
C2958 H2942 0.931 . S
C2958 C2952 1.383 . S
C2958 C2957 1.379 . S
H2959 C2953 0.959 . S
H2960 C2953 0.961 . S
H2961 C2953 0.960 . S
H2962 C2954 0.930 . S
H2963 C2955 0.929 . S
H2964 C2972 0.929 . S
H2965 C2974 0.930 . S
H2966 C2976 0.930 . S
H2967 C2979 0.929 . S
H2968 C2982 0.930 . S
H2969 C2984 0.960 1_455 S
H2970 C2984 0.960 . S
H2971 C2984 0.960 . S
C2972 H2964 0.929 . S
C2972 C2973 1.377 . S
C2972 C2974 1.384 . S
C2973 C2972 1.377 . S
C2973 C2979 1.390 . S
C2974 H2965 0.930 . S
C2974 C2972 1.384 . S
C2974 C2975 1.372 . S
C2975 C2974 1.372 . S
C2975 C2976 1.400 . S
C2975 C2980 1.490 . S
C2976 H2966 0.930 . S
C2976 C2975 1.400 . S
C2976 C2979 1.386 . S
H2977 C2993 0.930 . S
H2978 C2994 0.931 . S
C2979 H2967 0.929 . S
C2979 C2973 1.390 . S
C2979 C2976 1.386 . S
C2980 C2975 1.490 . S
C2980 C2982 1.395 1_556 S
C2980 C2983 1.403 . S
H2981 C2987 0.930 . S
C2982 H2968 0.930 . S
C2982 C2980 1.395 1_554 S
C2982 C2985 1.403 . S
C2983 C2980 1.403 . S
C2983 C2984 1.524 . S
C2983 C2987 1.400 1_656 S
C2984 H2969 0.960 1_655 S
C2984 H2970 0.960 . S
C2984 H2971 0.960 . S
C2984 C2983 1.524 . S
C2985 C2982 1.403 . S
C2985 C2986 1.392 1_655 S
C2985 C2989 1.495 . S
C2986 C2985 1.392 1_455 S
C2986 C2987 1.385 . S
C2986 C2988 1.478 . S
C2987 H2981 0.930 . S
C2987 C2983 1.400 1_454 S
C2987 C2986 1.385 . S
C2988 C2986 1.478 . S
C2988 C2990 1.381 . S
C2988 C2994 1.383 . S
C2989 C2985 1.495 . S
C2989 H2995 0.959 . S
C2989 H2996 0.961 . S
C2989 H2997 0.960 1_655 S
C2990 C2988 1.381 . S
C2990 C2991 1.394 . S
C2990 H2998 0.930 . S
C2991 C2990 1.394 . S
C2991 C2992 1.383 . S
C2991 H2999 0.929 . S
C2992 C2991 1.383 . S
C2992 C2993 1.377 . S
C2993 H2977 0.930 . S
C2993 C2992 1.377 . S
C2993 C2994 1.379 . S
C2994 H2978 0.931 . S
C2994 C2988 1.383 . S
C2994 C2993 1.379 . S
H2995 C2989 0.959 . S
H2996 C2989 0.961 . S
H2997 C2989 0.960 1_455 S
H2998 C2990 0.930 . S
H2999 C2991 0.929 . S
H3000 C3008 0.929 . S
H3001 C3010 0.930 . S
H3002 C3012 0.930 . S
H3003 C3015 0.929 . S
H3004 C3018 0.930 . S
H3005 C3020 0.960 . S
H3006 C3020 0.960 . S
H3007 C3020 0.960 . S
C3008 H3000 0.929 . S
C3008 C3009 1.377 . S
C3008 C3010 1.384 . S
C3009 C3008 1.377 . S
C3009 C3015 1.390 . S
C3010 H3001 0.930 . S
C3010 C3008 1.384 . S
C3010 C3011 1.372 . S
C3011 C3010 1.372 . S
C3011 C3012 1.400 . S
C3011 C3016 1.490 . S
C3012 H3002 0.930 . S
C3012 C3011 1.400 . S
C3012 C3015 1.386 . S
H3013 C3029 0.930 . S
H3014 C3030 0.931 . S
C3015 H3003 0.929 . S
C3015 C3009 1.390 . S
C3015 C3012 1.386 . S
C3016 C3011 1.490 . S
C3016 C3018 1.395 . S
C3016 C3019 1.403 . S
H3017 C3023 0.930 . S
C3018 H3004 0.930 . S
C3018 C3016 1.395 . S
C3018 C3021 1.403 . S
C3019 C3016 1.403 . S
C3019 C3020 1.524 . S
C3019 C3023 1.400 . S
C3020 H3005 0.960 . S
C3020 H3006 0.960 . S
C3020 H3007 0.960 . S
C3020 C3019 1.524 . S
C3021 C3018 1.403 . S
C3021 C3022 1.392 . S
C3021 C3025 1.495 . S
C3022 C3021 1.392 . S
C3022 C3023 1.385 . S
C3022 C3024 1.478 . S
C3023 H3017 0.930 . S
C3023 C3019 1.400 . S
C3023 C3022 1.385 . S
C3024 C3022 1.478 . S
C3024 C3026 1.381 . S
C3024 C3030 1.383 . S
C3025 C3021 1.495 . S
C3025 H3031 0.959 . S
C3025 H3032 0.961 . S
C3025 H3033 0.960 . S
C3026 C3024 1.381 . S
C3026 C3027 1.394 . S
C3026 H3034 0.930 . S
C3027 C3026 1.394 . S
C3027 C3028 1.383 . S
C3027 H3035 0.929 . S
C3028 C3027 1.383 . S
C3028 C3029 1.377 . S
C3029 H3013 0.930 . S
C3029 C3028 1.377 . S
C3029 C3030 1.379 . S
C3030 H3014 0.931 . S
C3030 C3024 1.383 . S
C3030 C3029 1.379 . S
H3031 C3025 0.959 . S
H3032 C3025 0.961 . S
H3033 C3025 0.960 . S
H3034 C3026 0.930 . S
H3035 C3027 0.929 . S
H3036 C3044 0.929 . S
H3037 C3046 0.930 . S
H3038 C3048 0.930 . S
H3039 C3051 0.929 . S
H3040 C3054 0.930 . S
H3041 C3056 0.960 . S
H3042 C3056 0.960 . S
H3043 C3056 0.960 . S
C3044 H3036 0.929 . S
C3044 C3045 1.377 . S
C3044 C3046 1.384 . S
C3045 C3044 1.377 . S
C3045 C3051 1.390 . S
C3046 H3037 0.930 . S
C3046 C3044 1.384 . S
C3046 C3047 1.372 . S
C3047 C3046 1.372 . S
C3047 C3048 1.400 . S
C3047 C3052 1.490 . S
C3048 H3038 0.930 . S
C3048 C3047 1.400 . S
C3048 C3051 1.386 . S
H3049 C3065 0.930 . S
H3050 C3066 0.931 . S
C3051 H3039 0.929 . S
C3051 C3045 1.390 . S
C3051 C3048 1.386 . S
C3052 C3047 1.490 . S
C3052 C3054 1.395 . S
C3052 C3055 1.403 . S
H3053 C3059 0.930 . S
C3054 H3040 0.930 . S
C3054 C3052 1.395 . S
C3054 C3057 1.403 . S
C3055 C3052 1.403 . S
C3055 C3056 1.524 . S
C3055 C3059 1.400 . S
C3056 H3041 0.960 . S
C3056 H3042 0.960 . S
C3056 H3043 0.960 . S
C3056 C3055 1.524 . S
C3057 C3054 1.403 . S
C3057 C3058 1.392 . S
C3057 C3061 1.495 . S
C3058 C3057 1.392 . S
C3058 C3059 1.385 . S
C3058 C3060 1.478 . S
C3059 H3053 0.930 . S
C3059 C3055 1.400 . S
C3059 C3058 1.385 . S
C3060 C3058 1.478 . S
C3060 C3062 1.381 . S
C3060 C3066 1.383 . S
C3061 C3057 1.495 . S
C3061 H3067 0.959 . S
C3061 H3068 0.961 . S
C3061 H3069 0.960 . S
C3062 C3060 1.381 . S
C3062 C3063 1.394 . S
C3062 H3070 0.930 . S
C3063 C3062 1.394 . S
C3063 C3064 1.383 . S
C3063 H3071 0.929 . S
C3064 C3063 1.383 . S
C3064 C3065 1.377 . S
C3065 H3049 0.930 . S
C3065 C3064 1.377 . S
C3065 C3066 1.379 . S
C3066 H3050 0.931 . S
C3066 C3060 1.383 . S
C3066 C3065 1.379 . S
H3067 C3061 0.959 . S
H3068 C3061 0.961 . S
H3069 C3061 0.960 . S
H3070 C3062 0.930 . S
H3071 C3063 0.929 . S
H3072 C3080 0.929 . S
H3073 C3082 0.930 . S
H3074 C3084 0.930 . S
H3075 C3087 0.929 . S
H3076 C3090 0.930 . S
H3077 C3092 0.960 . S
H3078 C3092 0.960 . S
H3079 C3092 0.960 . S
C3080 H3072 0.929 . S
C3080 C3081 1.377 . S
C3080 C3082 1.384 . S
C3081 C3080 1.377 . S
C3081 C3087 1.390 . S
C3082 H3073 0.930 . S
C3082 C3080 1.384 . S
C3082 C3083 1.372 . S
C3083 C3082 1.372 . S
C3083 C3084 1.400 . S
C3083 C3088 1.490 . S
C3084 H3074 0.930 . S
C3084 C3083 1.400 . S
C3084 C3087 1.386 . S
H3085 C3101 0.930 . S
H3086 C3102 0.931 . S
C3087 H3075 0.929 . S
C3087 C3081 1.390 . S
C3087 C3084 1.386 . S
C3088 C3083 1.490 . S
C3088 C3090 1.395 . S
C3088 C3091 1.403 . S
H3089 C3095 0.930 . S
C3090 H3076 0.930 . S
C3090 C3088 1.395 . S
C3090 C3093 1.403 . S
C3091 C3088 1.403 . S
C3091 C3092 1.524 . S
C3091 C3095 1.400 . S
C3092 H3077 0.960 . S
C3092 H3078 0.960 . S
C3092 H3079 0.960 . S
C3092 C3091 1.524 . S
C3093 C3090 1.403 . S
C3093 C3094 1.392 . S
C3093 C3097 1.495 . S
C3094 C3093 1.392 . S
C3094 C3095 1.385 . S
C3094 C3096 1.478 . S
C3095 H3089 0.930 . S
C3095 C3091 1.400 . S
C3095 C3094 1.385 . S
C3096 C3094 1.478 . S
C3096 C3098 1.381 . S
C3096 C3102 1.383 . S
C3097 C3093 1.495 . S
C3097 H3103 0.959 . S
C3097 H3104 0.961 . S
C3097 H3105 0.960 . S
C3098 C3096 1.381 . S
C3098 C3099 1.394 . S
C3098 H3106 0.930 . S
C3099 C3098 1.394 . S
C3099 C3100 1.383 . S
C3099 H3107 0.929 . S
C3100 C3099 1.383 . S
C3100 C3101 1.377 . S
C3101 H3085 0.930 . S
C3101 C3100 1.377 . S
C3101 C3102 1.379 . S
C3102 H3086 0.931 . S
C3102 C3096 1.383 . S
C3102 C3101 1.379 . S
H3103 C3097 0.959 . S
H3104 C3097 0.961 . S
H3105 C3097 0.960 . S
H3106 C3098 0.930 . S
H3107 C3099 0.929 . S
H3108 C3116 0.929 . S
H3109 C3118 0.930 . S
H3110 C3120 0.930 1_554 S
H3111 C3123 0.929 . S
H3112 C3126 0.930 . S
H3113 C3128 0.960 1_554 S
H3114 C3128 0.960 . S
H3115 C3128 0.960 1_554 S
C3116 H3108 0.929 . S
C3116 C3117 1.377 . S
C3116 C3118 1.384 . S
C3117 C3116 1.377 . S
C3117 C3123 1.390 . S
C3118 H3109 0.930 . S
C3118 C3116 1.384 . S
C3118 C3119 1.372 . S
C3119 C3118 1.372 . S
C3119 C3120 1.400 . S
C3119 C3124 1.490 . S
C3120 H3110 0.930 1_556 S
C3120 C3119 1.400 . S
C3120 C3123 1.386 . S
H3121 C3137 0.930 . S
H3122 C3138 0.931 . S
C3123 H3111 0.929 . S
C3123 C3117 1.390 . S
C3123 C3120 1.386 . S
C3124 C3119 1.490 . S
C3124 C3126 1.395 . S
C3124 C3127 1.403 1_556 S
H3125 C3131 0.930 . S
C3126 H3112 0.930 . S
C3126 C3124 1.395 . S
C3126 C3129 1.403 1_556 S
C3127 C3124 1.403 1_554 S
C3127 C3128 1.524 1_554 S
C3127 C3131 1.400 . S
C3128 H3113 0.960 1_556 S
C3128 H3114 0.960 . S
C3128 H3115 0.960 1_556 S
C3128 C3127 1.524 1_556 S
C3129 C3126 1.403 1_554 S
C3129 C3130 1.392 . S
C3129 C3133 1.495 . S
C3130 C3129 1.392 . S
C3130 C3131 1.385 . S
C3130 C3132 1.478 . S
C3131 H3125 0.930 . S
C3131 C3127 1.400 . S
C3131 C3130 1.385 . S
C3132 C3130 1.478 . S
C3132 C3134 1.381 . S
C3132 C3138 1.383 . S
C3133 C3129 1.495 . S
C3133 H3139 0.958 . S
C3133 H3140 0.961 . S
C3133 H3141 0.960 . S
C3134 C3132 1.381 . S
C3134 C3135 1.394 . S
C3134 H3142 0.930 . S
C3135 C3134 1.394 . S
C3135 C3136 1.383 . S
C3135 H3143 0.929 . S
C3136 C3135 1.383 . S
C3136 C3137 1.377 . S
C3137 H3121 0.930 . S
C3137 C3136 1.377 . S
C3137 C3138 1.379 . S
C3138 H3122 0.931 . S
C3138 C3132 1.383 . S
C3138 C3137 1.379 . S
H3139 C3133 0.958 . S
H3140 C3133 0.961 . S
H3141 C3133 0.960 . S
H3142 C3134 0.930 . S
H3143 C3135 0.929 . S
H3144 C3152 0.929 . S
H3145 C3154 0.930 . S
H3146 C3156 0.930 . S
H3147 C3159 0.929 . S
H3148 C3162 0.930 . S
H3149 C3164 0.960 . S
H3150 C3164 0.960 . S
H3151 C3164 0.960 . S
C3152 H3144 0.929 . S
C3152 C3153 1.377 . S
C3152 C3154 1.384 . S
C3153 C3152 1.377 . S
C3153 C3159 1.390 . S
C3154 H3145 0.930 . S
C3154 C3152 1.384 . S
C3154 C3155 1.372 . S
C3155 C3154 1.372 . S
C3155 C3156 1.400 . S
C3155 C3160 1.490 . S
C3156 H3146 0.930 . S
C3156 C3155 1.400 . S
C3156 C3159 1.386 . S
H3157 C3173 0.930 . S
H3158 C3174 0.931 . S
C3159 H3147 0.929 . S
C3159 C3153 1.390 . S
C3159 C3156 1.386 . S
C3160 C3155 1.490 . S
C3160 C3162 1.395 . S
C3160 C3163 1.403 . S
H3161 C3167 0.930 . S
C3162 H3148 0.930 . S
C3162 C3160 1.395 . S
C3162 C3165 1.403 . S
C3163 C3160 1.403 . S
C3163 C3164 1.524 . S
C3163 C3167 1.400 . S
C3164 H3149 0.960 . S
C3164 H3150 0.960 . S
C3164 H3151 0.960 . S
C3164 C3163 1.524 . S
C3165 C3162 1.403 . S
C3165 C3166 1.392 . S
C3165 C3169 1.495 . S
C3166 C3165 1.392 . S
C3166 C3167 1.385 . S
C3166 C3168 1.478 . S
C3167 H3161 0.930 . S
C3167 C3163 1.400 . S
C3167 C3166 1.385 . S
C3168 C3166 1.478 . S
C3168 C3170 1.381 . S
C3168 C3174 1.383 . S
C3169 C3165 1.495 . S
C3169 H3175 0.959 . S
C3169 H3176 0.961 . S
C3169 H3177 0.960 . S
C3170 C3168 1.381 . S
C3170 C3171 1.394 . S
C3170 H3178 0.930 . S
C3171 C3170 1.394 . S
C3171 C3172 1.383 . S
C3171 H3179 0.929 . S
C3172 C3171 1.383 . S
C3172 C3173 1.377 . S
C3173 H3157 0.930 . S
C3173 C3172 1.377 . S
C3173 C3174 1.379 . S
C3174 H3158 0.931 . S
C3174 C3168 1.383 . S
C3174 C3173 1.379 . S
H3175 C3169 0.959 . S
H3176 C3169 0.961 . S
H3177 C3169 0.960 . S
H3178 C3170 0.930 . S
H3179 C3171 0.929 . S
H3180 C3188 0.929 . S
H3181 C3190 0.930 . S
H3182 C3192 0.930 . S
H3183 C3195 0.929 . S
H3184 C3198 0.930 . S
H3185 C3200 0.960 . S
H3186 C3200 0.960 . S
H3187 C3200 0.960 . S
C3188 H3180 0.929 . S
C3188 C3189 1.377 . S
C3188 C3190 1.384 . S
C3189 C3188 1.377 . S
C3189 C3195 1.390 . S
C3190 H3181 0.930 . S
C3190 C3188 1.384 . S
C3190 C3191 1.372 . S
C3191 C3190 1.372 . S
C3191 C3192 1.400 . S
C3191 C3196 1.490 . S
C3192 H3182 0.930 . S
C3192 C3191 1.400 . S
C3192 C3195 1.386 . S
H3193 C3209 0.930 . S
H3194 C3210 0.931 . S
C3195 H3183 0.929 . S
C3195 C3189 1.390 . S
C3195 C3192 1.386 . S
C3196 C3191 1.490 . S
C3196 C3198 1.395 . S
C3196 C3199 1.403 1_655 S
H3197 C3203 0.930 . S
C3198 H3184 0.930 . S
C3198 C3196 1.395 . S
C3198 C3201 1.335 1_655 S
C3199 C3196 1.403 1_455 S
C3199 C3200 1.524 . S
C3199 C3203 1.400 . S
C3200 H3185 0.960 . S
C3200 H3186 0.960 . S
C3200 H3187 0.960 . S
C3200 C3199 1.524 . S
C3201 C3198 1.335 1_455 S
C3201 C3202 1.475 . S
C3201 C3205 1.483 1_455 S
C3202 C3201 1.475 . S
C3202 C3203 1.385 . S
C3202 C3204 1.478 . S
C3203 H3197 0.930 . S
C3203 C3199 1.400 . S
C3203 C3202 1.385 . S
C3204 C3202 1.478 . S
C3204 C3206 1.381 . S
C3204 C3210 1.383 . S
C3205 C3201 1.483 1_655 S
C3205 H3211 0.959 . S
C3205 H3212 0.941 1_655 S
C3205 H3213 0.960 1_655 S
C3206 C3204 1.381 . S
C3206 C3207 1.394 . S
C3206 H3214 0.930 . S
C3207 C3206 1.394 . S
C3207 C3208 1.383 . S
C3207 H3215 0.929 . S
C3208 C3207 1.383 . S
C3208 C3209 1.377 . S
C3209 H3193 0.930 . S
C3209 C3208 1.377 . S
C3209 C3210 1.379 . S
C3210 H3194 0.931 . S
C3210 C3204 1.383 . S
C3210 C3209 1.379 . S
H3211 C3205 0.959 . S
H3212 C3205 0.941 1_455 S
H3213 C3205 0.960 1_455 S
H3214 C3206 0.930 . S
H3215 C3207 0.929 . S
H3216 C3224 0.929 . S
H3217 C3226 0.930 . S
H3218 C3228 0.930 . S
H3219 C3231 0.929 . S
H3220 C3234 0.930 . S
H3221 C3236 0.960 . S
H3222 C3236 0.960 . S
H3223 C3236 0.960 . S
C3224 H3216 0.929 . S
C3224 C3225 1.377 . S
C3224 C3226 1.384 . S
C3225 C3224 1.377 . S
C3225 C3231 1.390 . S
C3226 H3217 0.930 . S
C3226 C3224 1.384 . S
C3226 C3227 1.372 . S
C3227 C3226 1.372 . S
C3227 C3228 1.400 . S
C3227 C3232 1.490 . S
C3228 H3218 0.930 . S
C3228 C3227 1.400 . S
C3228 C3231 1.386 . S
H3229 C3245 0.930 . S
H3230 C3246 0.931 . S
C3231 H3219 0.929 . S
C3231 C3225 1.390 . S
C3231 C3228 1.386 . S
C3232 C3227 1.490 . S
C3232 C3234 1.395 . S
C3232 C3235 1.403 . S
H3233 C3239 0.930 . S
C3234 H3220 0.930 . S
C3234 C3232 1.395 . S
C3234 C3237 1.403 . S
C3235 C3232 1.403 . S
C3235 C3236 1.524 . S
C3235 C3239 1.400 . S
C3236 H3221 0.960 . S
C3236 H3222 0.960 . S
C3236 H3223 0.960 . S
C3236 C3235 1.524 . S
C3237 C3234 1.403 . S
C3237 C3238 1.392 . S
C3237 C3241 1.495 . S
C3238 C3237 1.392 . S
C3238 C3239 1.385 . S
C3238 C3240 1.478 . S
C3239 H3233 0.930 . S
C3239 C3235 1.400 . S
C3239 C3238 1.385 . S
C3240 C3238 1.478 . S
C3240 C3242 1.381 . S
C3240 C3246 1.383 . S
C3241 C3237 1.495 . S
C3241 H3247 0.959 . S
C3241 H3248 0.961 . S
C3241 H3249 0.960 . S
C3242 C3240 1.381 . S
C3242 C3243 1.394 . S
C3242 H3250 0.930 . S
C3243 C3242 1.394 . S
C3243 C3244 1.383 . S
C3243 H3251 0.929 . S
C3244 C3243 1.383 . S
C3244 C3245 1.377 . S
C3245 H3229 0.930 . S
C3245 C3244 1.377 . S
C3245 C3246 1.379 . S
C3246 H3230 0.931 . S
C3246 C3240 1.383 . S
C3246 C3245 1.379 . S
H3247 C3241 0.959 . S
H3248 C3241 0.961 . S
H3249 C3241 0.960 . S
H3250 C3242 0.930 . S
H3251 C3243 0.929 . S
H3252 C3260 0.929 . S
H3253 C3262 0.930 1_556 S
H3254 C3264 0.930 . S
H3255 C3267 0.929 . S
H3256 C3270 0.930 . S
H3257 C3272 0.906 1_655 S
H3258 C3272 0.993 . S
H3259 C3272 0.976 . S
C3260 H3252 0.929 . S
C3260 C3261 1.377 . S
C3260 C3262 1.384 . S
C3261 C3260 1.377 . S
C3261 C3267 1.390 . S
C3262 H3253 0.930 1_554 S
C3262 C3260 1.384 . S
C3262 C3263 1.372 . S
C3263 C3262 1.372 . S
C3263 C3264 1.400 . S
C3263 C3268 1.490 . S
C3264 H3254 0.930 . S
C3264 C3263 1.400 . S
C3264 C3267 1.386 . S
H3265 C3281 0.930 . S
H3266 C3282 0.931 . S
C3267 H3255 0.929 . S
C3267 C3261 1.390 . S
C3267 C3264 1.386 . S
C3268 C3263 1.490 . S
C3268 C3270 1.395 1_554 S
C3268 C3271 1.403 . S
H3269 C3275 0.930 1_554 S
C3270 H3256 0.930 . S
C3270 C3268 1.395 1_556 S
C3270 C3273 1.403 . S
C3271 C3268 1.403 . S
C3271 C3272 1.533 . S
C3271 C3275 1.400 1_454 S
C3272 H3257 0.906 1_455 S
C3272 H3258 0.993 . S
C3272 H3259 0.976 . S
C3272 C3271 1.533 . S
C3273 C3270 1.403 . S
C3273 C3274 1.392 1_455 S
C3273 C3277 1.495 . S
C3274 C3273 1.392 1_655 S
C3274 C3275 1.385 . S
C3274 C3276 1.478 . S
C3275 H3269 0.930 1_556 S
C3275 C3271 1.400 1_656 S
C3275 C3274 1.385 . S
C3276 C3274 1.478 . S
C3276 C3278 1.381 . S
C3276 C3282 1.383 . S
C3277 C3273 1.495 . S
C3277 H3283 0.959 . S
C3277 H3284 0.961 . S
C3277 H3285 0.960 . S
C3278 C3276 1.381 . S
C3278 C3279 1.394 . S
C3278 H3286 0.930 . S
C3279 C3278 1.394 . S
C3279 C3280 1.383 . S
C3279 H3287 0.929 . S
C3280 C3279 1.383 . S
C3280 C3281 1.377 . S
C3281 H3265 0.930 . S
C3281 C3280 1.377 . S
C3281 C3282 1.379 . S
C3282 H3266 0.931 . S
C3282 C3276 1.383 . S
C3282 C3281 1.379 . S
H3283 C3277 0.959 . S
H3284 C3277 0.961 . S
H3285 C3277 0.960 . S
H3286 C3278 0.930 . S
H3287 C3279 0.929 . S
H3288 C3296 0.929 . S
H3289 C3298 0.930 . S
H3290 C3300 0.930 . S
H3291 C3303 0.929 . S
H3292 C3306 0.930 . S
H3293 C3308 0.960 . S
H3294 C3308 0.960 . S
H3295 C3308 0.960 . S
C3296 H3288 0.929 . S
C3296 C3297 1.377 . S
C3296 C3298 1.384 . S
C3297 C3296 1.377 . S
C3297 C3303 1.390 . S
C3298 H3289 0.930 . S
C3298 C3296 1.384 . S
C3298 C3299 1.372 . S
C3299 C3298 1.372 . S
C3299 C3300 1.400 . S
C3299 C3304 1.490 . S
C3300 H3290 0.930 . S
C3300 C3299 1.400 . S
C3300 C3303 1.386 . S
H3301 C3317 0.930 . S
H3302 C3318 0.931 . S
C3303 H3291 0.929 . S
C3303 C3297 1.390 . S
C3303 C3300 1.386 . S
C3304 C3299 1.490 . S
C3304 C3306 1.395 . S
C3304 C3307 1.403 . S
H3305 C3311 0.930 . S
C3306 H3292 0.930 . S
C3306 C3304 1.395 . S
C3306 C3309 1.403 . S
C3307 C3304 1.403 . S
C3307 C3308 1.524 . S
C3307 C3311 1.400 . S
C3308 H3293 0.960 . S
C3308 H3294 0.960 . S
C3308 H3295 0.960 . S
C3308 C3307 1.524 . S
C3309 C3306 1.403 . S
C3309 C3310 1.392 . S
C3309 C3313 1.495 . S
C3310 C3309 1.392 . S
C3310 C3311 1.385 . S
C3310 C3312 1.478 . S
C3311 H3305 0.930 . S
C3311 C3307 1.400 . S
C3311 C3310 1.385 . S
C3312 C3310 1.478 . S
C3312 C3314 1.381 . S
C3312 C3318 1.383 . S
C3313 C3309 1.495 . S
C3313 H3319 0.959 . S
C3313 H3320 0.961 . S
C3313 H3321 0.960 . S
C3314 C3312 1.381 . S
C3314 C3315 1.394 . S
C3314 H3322 0.930 . S
C3315 C3314 1.394 . S
C3315 C3316 1.383 . S
C3315 H3323 0.929 . S
C3316 C3315 1.383 . S
C3316 C3317 1.377 . S
C3317 H3301 0.930 . S
C3317 C3316 1.377 . S
C3317 C3318 1.379 . S
C3318 H3302 0.931 . S
C3318 C3312 1.383 . S
C3318 C3317 1.379 . S
H3319 C3313 0.959 . S
H3320 C3313 0.961 . S
H3321 C3313 0.960 . S
H3322 C3314 0.930 . S
H3323 C3315 0.929 . S
H3324 C3332 0.929 . S
H3325 C3334 0.930 . S
H3326 C3336 0.930 . S
H3327 C3339 0.929 . S
H3328 C3342 0.930 . S
H3329 C3344 0.960 . S
H3330 C3344 0.960 . S
H3331 C3344 0.960 . S
C3332 H3324 0.929 . S
C3332 C3333 1.377 . S
C3332 C3334 1.384 . S
C3333 C3332 1.377 . S
C3333 C3339 1.390 . S
C3334 H3325 0.930 . S
C3334 C3332 1.384 . S
C3334 C3335 1.372 . S
C3335 C3334 1.372 . S
C3335 C3336 1.400 . S
C3335 C3340 1.490 . S
C3336 H3326 0.930 . S
C3336 C3335 1.400 . S
C3336 C3339 1.386 . S
H3337 C3353 0.930 . S
H3338 C3354 0.931 . S
C3339 H3327 0.929 . S
C3339 C3333 1.390 . S
C3339 C3336 1.386 . S
C3340 C3335 1.490 . S
C3340 C3342 1.395 . S
C3340 C3343 1.403 . S
H3341 C3347 0.930 . S
C3342 H3328 0.930 . S
C3342 C3340 1.395 . S
C3342 C3345 1.403 . S
C3343 C3340 1.403 . S
C3343 C3344 1.524 . S
C3343 C3347 1.400 . S
C3344 H3329 0.960 . S
C3344 H3330 0.960 . S
C3344 H3331 0.960 . S
C3344 C3343 1.524 . S
C3345 C3342 1.403 . S
C3345 C3346 1.392 . S
C3345 C3349 1.495 . S
C3346 C3345 1.392 . S
C3346 C3347 1.385 . S
C3346 C3348 1.478 . S
C3347 H3341 0.930 . S
C3347 C3343 1.400 . S
C3347 C3346 1.385 . S
C3348 C3346 1.478 . S
C3348 C3350 1.381 . S
C3348 C3354 1.383 . S
C3349 C3345 1.495 . S
C3349 H3355 0.959 . S
C3349 H3356 0.961 . S
C3349 H3357 0.960 . S
C3350 C3348 1.381 . S
C3350 C3351 1.394 . S
C3350 H3358 0.930 . S
C3351 C3350 1.394 . S
C3351 C3352 1.383 . S
C3351 H3359 0.929 . S
C3352 C3351 1.383 . S
C3352 C3353 1.377 . S
C3353 H3337 0.930 . S
C3353 C3352 1.377 . S
C3353 C3354 1.379 . S
C3354 H3338 0.931 . S
C3354 C3348 1.383 . S
C3354 C3353 1.379 . S
H3355 C3349 0.959 . S
H3356 C3349 0.961 . S
H3357 C3349 0.960 . S
H3358 C3350 0.930 . S
H3359 C3351 0.929 . S
H3360 C3368 0.929 . S
H3361 C3370 0.930 . S
H3362 C3372 0.930 . S
H3363 C3375 0.929 . S
H3364 C3378 0.930 . S
H3365 C3380 0.960 . S
H3366 C3380 0.960 . S
H3367 C3380 0.960 . S
C3368 H3360 0.929 . S
C3368 C3369 1.377 . S
C3368 C3370 1.384 . S
C3369 C3368 1.377 . S
C3369 C3375 1.390 . S
C3370 H3361 0.930 . S
C3370 C3368 1.384 . S
C3370 C3371 1.372 . S
C3371 C3370 1.372 . S
C3371 C3372 1.400 . S
C3371 C3376 1.490 . S
C3372 H3362 0.930 . S
C3372 C3371 1.400 . S
C3372 C3375 1.386 . S
H3373 C3389 0.930 . S
H3374 C3390 0.931 . S
C3375 H3363 0.929 . S
C3375 C3369 1.390 . S
C3375 C3372 1.386 . S
C3376 C3371 1.490 . S
C3376 C3378 1.395 . S
C3376 C3379 1.403 . S
H3377 C3383 0.930 . S
C3378 H3364 0.930 . S
C3378 C3376 1.395 . S
C3378 C3381 1.403 . S
C3379 C3376 1.403 . S
C3379 C3380 1.524 . S
C3379 C3383 1.400 . S
C3380 H3365 0.960 . S
C3380 H3366 0.960 . S
C3380 H3367 0.960 . S
C3380 C3379 1.524 . S
C3381 C3378 1.403 . S
C3381 C3382 1.392 . S
C3381 C3385 1.495 . S
C3382 C3381 1.392 . S
C3382 C3383 1.385 . S
C3382 C3384 1.478 . S
C3383 H3377 0.930 . S
C3383 C3379 1.400 . S
C3383 C3382 1.385 . S
C3384 C3382 1.478 . S
C3384 C3386 1.381 1_554 S
C3384 C3390 1.383 . S
C3385 C3381 1.495 . S
C3385 H3391 0.959 . S
C3385 H3392 0.961 . S
C3385 H3393 0.960 . S
C3386 C3384 1.381 1_556 S
C3386 C3387 1.394 . S
C3386 H3394 0.930 . S
C3387 C3386 1.394 . S
C3387 C3388 1.383 . S
C3387 H3395 0.929 . S
C3388 C3387 1.383 . S
C3388 C3389 1.377 1_556 S
C3389 H3373 0.930 . S
C3389 C3388 1.377 1_554 S
C3389 C3390 1.379 . S
C3390 H3374 0.931 . S
C3390 C3384 1.383 . S
C3390 C3389 1.379 . S
H3391 C3385 0.959 . S
H3392 C3385 0.961 . S
H3393 C3385 0.960 . S
H3394 C3386 0.930 . S
H3395 C3387 0.929 . S
H3396 C3404 0.929 . S
H3397 C3406 0.930 . S
H3398 C3408 0.930 . S
H3399 C3411 0.929 . S
H3400 C3414 0.930 . S
H3401 C3416 0.960 . S
H3402 C3416 0.960 . S
H3403 C3416 0.960 . S
C3404 H3396 0.929 . S
C3404 C3405 1.377 . S
C3404 C3406 1.384 . S
C3405 C3404 1.377 . S
C3405 C3411 1.390 . S
C3406 H3397 0.930 . S
C3406 C3404 1.384 . S
C3406 C3407 1.372 . S
C3407 C3406 1.372 . S
C3407 C3408 1.400 . S
C3407 C3412 1.490 . S
C3408 H3398 0.930 . S
C3408 C3407 1.400 . S
C3408 C3411 1.386 . S
H3409 C3425 0.930 . S
H3410 C3426 0.931 . S
C3411 H3399 0.929 . S
C3411 C3405 1.390 . S
C3411 C3408 1.386 . S
C3412 C3407 1.490 . S
C3412 C3414 1.395 . S
C3412 C3415 1.403 . S
H3413 C3419 0.930 . S
C3414 H3400 0.930 . S
C3414 C3412 1.395 . S
C3414 C3417 1.403 . S
C3415 C3412 1.403 . S
C3415 C3416 1.524 . S
C3415 C3419 1.400 . S
C3416 H3401 0.960 . S
C3416 H3402 0.960 . S
C3416 H3403 0.960 . S
C3416 C3415 1.524 . S
C3417 C3414 1.403 . S
C3417 C3418 1.392 . S
C3417 C3421 1.495 . S
C3418 C3417 1.392 . S
C3418 C3419 1.385 . S
C3418 C3420 1.478 . S
C3419 H3413 0.930 . S
C3419 C3415 1.400 . S
C3419 C3418 1.385 . S
C3420 C3418 1.478 . S
C3420 C3422 1.381 . S
C3420 C3426 1.383 . S
C3421 C3417 1.495 . S
C3421 H3427 0.959 . S
C3421 H3428 0.961 . S
C3421 H3429 0.960 . S
C3422 C3420 1.381 . S
C3422 C3423 1.394 . S
C3422 H3430 0.930 . S
C3423 C3422 1.394 . S
C3423 C3424 1.383 . S
C3423 H3431 0.929 . S
C3424 C3423 1.383 . S
C3424 C3425 1.377 . S
C3425 H3409 0.930 . S
C3425 C3424 1.377 . S
C3425 C3426 1.379 . S
C3426 H3410 0.931 . S
C3426 C3420 1.383 . S
C3426 C3425 1.379 . S
H3427 C3421 0.959 . S
H3428 C3421 0.961 . S
H3429 C3421 0.960 . S
H3430 C3422 0.930 . S
H3431 C3423 0.929 . S
H3432 C3440 0.929 . S
H3433 C3442 0.930 . S
H3434 C3444 0.930 . S
H3435 C3447 0.929 . S
H3436 C3450 0.930 . S
H3437 C3452 0.960 . S
H3438 C3452 0.960 . S
H3439 C3452 0.960 . S
C3440 H3432 0.929 . S
C3440 C3441 1.377 . S
C3440 C3442 1.384 . S
C3441 C3440 1.377 . S
C3441 C3447 1.390 . S
C3442 H3433 0.930 . S
C3442 C3440 1.384 . S
C3442 C3443 1.372 . S
C3443 C3442 1.372 . S
C3443 C3444 1.400 . S
C3443 C3448 1.490 . S
C3444 H3434 0.930 . S
C3444 C3443 1.400 . S
C3444 C3447 1.386 . S
H3445 C3461 0.930 . S
H3446 C3462 0.931 . S
C3447 H3435 0.929 . S
C3447 C3441 1.390 . S
C3447 C3444 1.386 . S
C3448 C3443 1.490 . S
C3448 C3450 1.395 . S
C3448 C3451 1.403 . S
H3449 C3455 0.930 . S
C3450 H3436 0.930 . S
C3450 C3448 1.395 . S
C3450 C3453 1.403 . S
C3451 C3448 1.403 . S
C3451 C3452 1.524 . S
C3451 C3455 1.400 . S
C3452 H3437 0.960 . S
C3452 H3438 0.960 . S
C3452 H3439 0.960 . S
C3452 C3451 1.524 . S
C3453 C3450 1.403 . S
C3453 C3454 1.392 . S
C3453 C3457 1.495 . S
C3454 C3453 1.392 . S
C3454 C3455 1.385 . S
C3454 C3456 1.478 . S
C3455 H3449 0.930 . S
C3455 C3451 1.400 . S
C3455 C3454 1.385 . S
C3456 C3454 1.478 . S
C3456 C3458 1.381 . S
C3456 C3462 1.383 . S
C3457 C3453 1.495 . S
C3457 H3463 0.959 . S
C3457 H3464 0.961 . S
C3457 H3465 0.960 . S
C3458 C3456 1.381 . S
C3458 C3459 1.394 . S
C3458 H3466 0.930 . S
C3459 C3458 1.394 . S
C3459 C3460 1.383 . S
C3459 H3467 0.929 . S
C3460 C3459 1.383 . S
C3460 C3461 1.377 . S
C3461 H3445 0.930 . S
C3461 C3460 1.377 . S
C3461 C3462 1.379 . S
C3462 H3446 0.931 . S
C3462 C3456 1.383 . S
C3462 C3461 1.379 . S
H3463 C3457 0.959 . S
H3464 C3457 0.961 . S
H3465 C3457 0.960 . S
H3466 C3458 0.930 . S
H3467 C3459 0.929 . S
H3468 C3476 0.929 . S
H3469 C3478 0.930 . S
H3470 C3480 0.930 . S
H3471 C3483 0.929 . S
H3472 C3486 0.930 . S
H3473 C3488 0.960 . S
H3474 C3488 0.960 . S
H3475 C3488 0.958 1_554 S
C3476 H3468 0.929 . S
C3476 C3477 1.377 . S
C3476 C3478 1.384 1_554 S
C3477 C3476 1.377 . S
C3477 C3483 1.390 . S
C3478 H3469 0.930 . S
C3478 C3476 1.384 1_556 S
C3478 C3479 1.372 . S
C3479 C3478 1.372 . S
C3479 C3480 1.400 . S
C3479 C3484 1.490 . S
C3480 H3470 0.930 . S
C3480 C3479 1.400 . S
C3480 C3483 1.386 1_556 S
H3481 C3497 0.930 . S
H3482 C3498 0.931 . S
C3483 H3471 0.929 . S
C3483 C3477 1.390 . S
C3483 C3480 1.386 1_554 S
C3484 C3479 1.490 . S
C3484 C3486 1.395 . S
C3484 C3487 1.403 . S
H3485 C3491 0.930 . S
C3486 H3472 0.930 . S
C3486 C3484 1.395 . S
C3486 C3489 1.403 . S
C3487 C3484 1.403 . S
C3487 C3488 1.524 . S
C3487 C3491 1.400 . S
C3488 H3473 0.960 . S
C3488 H3474 0.960 . S
C3488 H3475 0.958 1_556 S
C3488 C3487 1.524 . S
C3489 C3486 1.403 . S
C3489 C3490 1.392 . S
C3489 C3493 1.495 . S
C3490 C3489 1.392 . S
C3490 C3491 1.385 . S
C3490 C3492 1.478 . S
C3491 H3485 0.930 . S
C3491 C3487 1.400 . S
C3491 C3490 1.385 . S
C3492 C3490 1.478 . S
C3492 C3494 1.381 . S
C3492 C3498 1.383 . S
C3493 C3489 1.495 . S
C3493 H3499 0.959 . S
C3493 H3500 0.961 . S
C3493 H3501 0.960 . S
C3494 C3492 1.381 . S
C3494 C3495 1.394 . S
C3494 H3502 0.930 . S
C3495 C3494 1.394 . S
C3495 C3496 1.383 . S
C3495 H3503 0.929 . S
C3496 C3495 1.383 . S
C3496 C3497 1.377 . S
C3497 H3481 0.930 . S
C3497 C3496 1.377 . S
C3497 C3498 1.379 . S
C3498 H3482 0.931 . S
C3498 C3492 1.383 . S
C3498 C3497 1.379 . S
H3499 C3493 0.959 . S
H3500 C3493 0.961 . S
H3501 C3493 0.960 . S
H3502 C3494 0.930 . S
H3503 C3495 0.929 . S
H3504 C3512 0.929 . S
H3505 C3514 0.930 . S
H3506 C3516 0.930 . S
H3507 C3519 0.929 . S
H3508 C3522 0.930 . S
H3509 C3524 0.960 . S
H3510 C3524 0.960 . S
H3511 C3524 0.960 . S
C3512 H3504 0.929 . S
C3512 C3513 1.377 1_556 S
C3512 C3514 1.384 . S
C3513 C3512 1.377 1_554 S
C3513 C3519 1.390 . S
C3514 H3505 0.930 . S
C3514 C3512 1.384 . S
C3514 C3515 1.372 . S
C3515 C3514 1.372 . S
C3515 C3516 1.400 1_556 S
C3515 C3520 1.490 . S
C3516 H3506 0.930 . S
C3516 C3515 1.400 1_554 S
C3516 C3519 1.386 . S
H3517 C3533 0.930 . S
H3518 C3534 0.931 . S
C3519 H3507 0.929 . S
C3519 C3513 1.390 . S
C3519 C3516 1.386 . S
C3520 C3515 1.490 . S
C3520 C3522 1.395 . S
C3520 C3523 1.403 . S
H3521 C3527 0.930 . S
C3522 H3508 0.930 . S
C3522 C3520 1.395 . S
C3522 C3525 1.403 . S
C3523 C3520 1.403 . S
C3523 C3524 1.524 . S
C3523 C3527 1.400 . S
C3524 H3509 0.960 . S
C3524 H3510 0.960 . S
C3524 H3511 0.960 . S
C3524 C3523 1.524 . S
C3525 C3522 1.403 . S
C3525 C3526 1.392 . S
C3525 C3529 1.495 . S
C3526 C3525 1.392 . S
C3526 C3527 1.385 . S
C3526 C3528 1.478 . S
C3527 H3521 0.930 . S
C3527 C3523 1.400 . S
C3527 C3526 1.385 . S
C3528 C3526 1.478 . S
C3528 C3530 1.381 . S
C3528 C3534 1.383 . S
C3529 C3525 1.495 . S
C3529 H3535 0.959 . S
C3529 H3536 0.961 . S
C3529 H3537 0.960 . S
C3530 C3528 1.381 . S
C3530 C3531 1.394 . S
C3530 H3538 0.930 . S
C3531 C3530 1.394 . S
C3531 C3532 1.383 . S
C3531 H3539 0.929 . S
C3532 C3531 1.383 . S
C3532 C3533 1.377 . S
C3533 H3517 0.930 . S
C3533 C3532 1.377 . S
C3533 C3534 1.379 . S
C3534 H3518 0.931 . S
C3534 C3528 1.383 . S
C3534 C3533 1.379 . S
H3535 C3529 0.959 . S
H3536 C3529 0.961 . S
H3537 C3529 0.960 . S
H3538 C3530 0.930 . S
H3539 C3531 0.929 . S
H3540 C3548 0.929 . S
H3541 C3550 0.930 . S
H3542 C3552 0.930 . S
H3543 C3555 0.929 . S
H3544 C3558 0.930 . S
H3545 C3560 0.960 . S
H3546 C3560 0.960 . S
H3547 C3560 0.960 . S
C3548 H3540 0.929 . S
C3548 C3549 1.377 . S
C3548 C3550 1.384 . S
C3549 C3548 1.377 . S
C3549 C3555 1.390 . S
C3550 H3541 0.930 . S
C3550 C3548 1.384 . S
C3550 C3551 1.372 . S
C3551 C3550 1.372 . S
C3551 C3552 1.400 . S
C3551 C3556 1.490 . S
C3552 H3542 0.930 . S
C3552 C3551 1.400 . S
C3552 C3555 1.386 . S
H3553 C3569 0.930 . S
H3554 C3570 0.931 . S
C3555 H3543 0.929 . S
C3555 C3549 1.390 . S
C3555 C3552 1.386 . S
C3556 C3551 1.490 . S
C3556 C3558 1.395 . S
C3556 C3559 1.403 . S
H3557 C3563 0.930 . S
C3558 H3544 0.930 . S
C3558 C3556 1.395 . S
C3558 C3561 1.403 . S
C3559 C3556 1.403 . S
C3559 C3560 1.524 . S
C3559 C3563 1.400 . S
C3560 H3545 0.960 . S
C3560 H3546 0.960 . S
C3560 H3547 0.960 . S
C3560 C3559 1.524 . S
C3561 C3558 1.403 . S
C3561 C3562 1.392 . S
C3561 C3565 1.495 . S
C3562 C3561 1.392 . S
C3562 C3563 1.385 . S
C3562 C3564 1.478 . S
C3563 H3557 0.930 . S
C3563 C3559 1.400 . S
C3563 C3562 1.385 . S
C3564 C3562 1.478 . S
C3564 C3566 1.381 . S
C3564 C3570 1.383 . S
C3565 C3561 1.495 . S
C3565 H3571 0.959 . S
C3565 H3572 0.961 . S
C3565 H3573 0.960 . S
C3566 C3564 1.381 . S
C3566 C3567 1.394 . S
C3566 H3574 0.930 . S
C3567 C3566 1.394 . S
C3567 C3568 1.383 . S
C3567 H3575 0.929 . S
C3568 C3567 1.383 . S
C3568 C3569 1.377 . S
C3569 H3553 0.930 . S
C3569 C3568 1.377 . S
C3569 C3570 1.379 . S
C3570 H3554 0.931 . S
C3570 C3564 1.383 . S
C3570 C3569 1.379 . S
H3571 C3565 0.959 . S
H3572 C3565 0.961 . S
H3573 C3565 0.960 . S
H3574 C3566 0.930 . S
H3575 C3567 0.929 . S
H3576 C3584 0.929 . S
H3577 C3586 0.930 . S
H3578 C3588 0.930 . S
H3579 C3591 0.929 . S
H3580 C3594 0.930 . S
H3581 C3596 0.960 . S
H3582 C3596 0.960 . S
H3583 C3596 0.960 . S
C3584 H3576 0.929 . S
C3584 C3585 1.377 . S
C3584 C3586 1.384 . S
C3585 C3584 1.377 . S
C3585 C3591 1.390 . S
C3586 H3577 0.930 . S
C3586 C3584 1.384 . S
C3586 C3587 1.372 . S
C3587 C3586 1.372 . S
C3587 C3588 1.400 . S
C3587 C3592 1.490 . S
C3588 H3578 0.930 . S
C3588 C3587 1.400 . S
C3588 C3591 1.386 . S
H3589 C3605 0.930 . S
H3590 C3606 0.931 . S
C3591 H3579 0.929 . S
C3591 C3585 1.390 . S
C3591 C3588 1.386 . S
C3592 C3587 1.490 . S
C3592 C3594 1.395 . S
C3592 C3595 1.403 . S
H3593 C3599 0.930 . S
C3594 H3580 0.930 . S
C3594 C3592 1.395 . S
C3594 C3597 1.403 . S
C3595 C3592 1.403 . S
C3595 C3596 1.524 . S
C3595 C3599 1.400 . S
C3596 H3581 0.960 . S
C3596 H3582 0.960 . S
C3596 H3583 0.960 . S
C3596 C3595 1.524 . S
C3597 C3594 1.403 . S
C3597 C3598 1.392 . S
C3597 C3601 1.495 . S
C3598 C3597 1.392 . S
C3598 C3599 1.385 . S
C3598 C3600 1.478 . S
C3599 H3593 0.930 . S
C3599 C3595 1.400 . S
C3599 C3598 1.385 . S
C3600 C3598 1.478 . S
C3600 C3602 1.381 . S
C3600 C3606 1.383 . S
C3601 C3597 1.495 . S
C3601 H3607 0.959 . S
C3601 H3608 0.961 . S
C3601 H3609 0.960 . S
C3602 C3600 1.381 . S
C3602 C3603 1.394 . S
C3602 H3610 0.930 . S
C3603 C3602 1.394 . S
C3603 C3604 1.383 . S
C3603 H3611 0.929 . S
C3604 C3603 1.383 . S
C3604 C3605 1.377 . S
C3605 H3589 0.930 . S
C3605 C3604 1.377 . S
C3605 C3606 1.379 . S
C3606 H3590 0.931 . S
C3606 C3600 1.383 . S
C3606 C3605 1.379 . S
H3607 C3601 0.959 . S
H3608 C3601 0.961 . S
H3609 C3601 0.960 . S
H3610 C3602 0.930 . S
H3611 C3603 0.929 . S
H3612 C3620 0.929 . S
H3613 C3622 0.930 . S
H3614 C3624 0.930 . S
H3615 C3627 0.929 . S
H3616 C3630 0.930 . S
H3617 C3632 0.960 . S
H3618 C3632 0.960 . S
H3619 C3632 0.960 . S
C3620 H3612 0.929 . S
C3620 C3621 1.377 . S
C3620 C3622 1.384 . S
C3621 C3620 1.377 . S
C3621 C3627 1.390 . S
C3622 H3613 0.930 . S
C3622 C3620 1.384 . S
C3622 C3623 1.372 . S
C3623 C3622 1.372 . S
C3623 C3624 1.400 . S
C3623 C3628 1.490 . S
C3624 H3614 0.930 . S
C3624 C3623 1.400 . S
C3624 C3627 1.386 . S
H3625 C3641 0.930 . S
H3626 C3642 0.931 . S
C3627 H3615 0.929 . S
C3627 C3621 1.390 . S
C3627 C3624 1.386 . S
C3628 C3623 1.490 . S
C3628 C3630 1.395 . S
C3628 C3631 1.403 . S
H3629 C3635 0.930 . S
C3630 H3616 0.930 . S
C3630 C3628 1.395 . S
C3630 C3633 1.403 . S
C3631 C3628 1.403 . S
C3631 C3632 1.524 . S
C3631 C3635 1.400 . S
C3632 H3617 0.960 . S
C3632 H3618 0.960 . S
C3632 H3619 0.960 . S
C3632 C3631 1.524 . S
C3633 C3630 1.403 . S
C3633 C3634 1.392 . S
C3633 C3637 1.495 . S
C3634 C3633 1.392 . S
C3634 C3635 1.385 . S
C3634 C3636 1.478 . S
C3635 H3629 0.930 . S
C3635 C3631 1.400 . S
C3635 C3634 1.385 . S
C3636 C3634 1.478 . S
C3636 C3638 1.381 . S
C3636 C3642 1.383 . S
C3637 C3633 1.495 . S
C3637 H3643 0.959 . S
C3637 H3644 0.961 1_554 S
C3637 H3645 0.953 1_554 S
C3638 C3636 1.381 . S
C3638 C3639 1.394 1_554 S
C3638 H3646 0.930 . S
C3639 C3638 1.394 1_556 S
C3639 C3640 1.383 . S
C3639 H3647 0.929 . S
C3640 C3639 1.383 . S
C3640 C3641 1.377 . S
C3641 H3625 0.930 . S
C3641 C3640 1.377 . S
C3641 C3642 1.379 1_556 S
C3642 H3626 0.931 . S
C3642 C3636 1.383 . S
C3642 C3641 1.379 1_554 S
H3643 C3637 0.959 . S
H3644 C3637 0.961 1_556 S
H3645 C3637 0.953 1_556 S
H3646 C3638 0.930 . S
H3647 C3639 0.929 . S
H3648 C3656 0.929 . S
H3649 C3658 0.930 . S
H3650 C3660 0.930 . S
H3651 C3663 0.929 . S
H3652 C3666 0.930 . S
H3653 C3668 0.960 . S
H3654 C3668 0.960 . S
H3655 C3668 0.960 . S
C3656 H3648 0.929 . S
C3656 C3657 1.377 . S
C3656 C3658 1.384 . S
C3657 C3656 1.377 . S
C3657 C3663 1.390 . S
C3658 H3649 0.930 . S
C3658 C3656 1.384 . S
C3658 C3659 1.372 . S
C3659 C3658 1.372 . S
C3659 C3660 1.400 . S
C3659 C3664 1.490 . S
C3660 H3650 0.930 . S
C3660 C3659 1.400 . S
C3660 C3663 1.386 . S
H3661 C3677 0.930 . S
H3662 C3678 0.931 . S
C3663 H3651 0.929 . S
C3663 C3657 1.390 . S
C3663 C3660 1.386 . S
C3664 C3659 1.490 . S
C3664 C3666 1.395 . S
C3664 C3667 1.403 . S
H3665 C3671 0.930 . S
C3666 H3652 0.930 . S
C3666 C3664 1.395 . S
C3666 C3669 1.403 . S
C3667 C3664 1.403 . S
C3667 C3668 1.524 . S
C3667 C3671 1.400 . S
C3668 H3653 0.960 . S
C3668 H3654 0.960 . S
C3668 H3655 0.960 . S
C3668 C3667 1.524 . S
C3669 C3666 1.403 . S
C3669 C3670 1.392 . S
C3669 C3673 1.495 . S
C3670 C3669 1.392 . S
C3670 C3671 1.385 . S
C3670 C3672 1.478 . S
C3671 H3665 0.930 . S
C3671 C3667 1.400 . S
C3671 C3670 1.385 . S
C3672 C3670 1.478 . S
C3672 C3674 1.381 . S
C3672 C3678 1.383 . S
C3673 C3669 1.495 . S
C3673 H3679 0.959 . S
C3673 H3680 0.961 . S
C3673 H3681 0.960 . S
C3674 C3672 1.381 . S
C3674 C3675 1.394 . S
C3674 H3682 0.930 . S
C3675 C3674 1.394 . S
C3675 C3676 1.383 . S
C3675 H3683 0.929 . S
C3676 C3675 1.383 . S
C3676 C3677 1.377 . S
C3677 H3661 0.930 . S
C3677 C3676 1.377 . S
C3677 C3678 1.379 . S
C3678 H3662 0.931 . S
C3678 C3672 1.383 . S
C3678 C3677 1.379 . S
H3679 C3673 0.959 . S
H3680 C3673 0.961 . S
H3681 C3673 0.960 . S
H3682 C3674 0.930 . S
H3683 C3675 0.929 . S
H3684 C3692 0.929 . S
H3685 C3694 0.930 . S
H3686 C3696 0.930 . S
H3687 C3699 0.929 . S
H3688 C3702 0.930 . S
H3689 C3704 0.960 . S
H3690 C3704 0.960 . S
H3691 C3704 0.960 . S
C3692 H3684 0.929 . S
C3692 C3693 1.377 . S
C3692 C3694 1.384 . S
C3693 C3692 1.377 . S
C3693 C3699 1.390 . S
C3694 H3685 0.930 . S
C3694 C3692 1.384 . S
C3694 C3695 1.372 . S
C3695 C3694 1.372 . S
C3695 C3696 1.400 . S
C3695 C3700 1.490 . S
C3696 H3686 0.930 . S
C3696 C3695 1.400 . S
C3696 C3699 1.386 . S
H3697 C3713 0.930 . S
H3698 C3714 0.931 . S
C3699 H3687 0.929 . S
C3699 C3693 1.390 . S
C3699 C3696 1.386 . S
C3700 C3695 1.490 . S
C3700 C3702 1.395 . S
C3700 C3703 1.403 . S
H3701 C3707 0.930 . S
C3702 H3688 0.930 . S
C3702 C3700 1.395 . S
C3702 C3705 1.403 . S
C3703 C3700 1.403 . S
C3703 C3704 1.524 . S
C3703 C3707 1.400 . S
C3704 H3689 0.960 . S
C3704 H3690 0.960 . S
C3704 H3691 0.960 . S
C3704 C3703 1.524 . S
C3705 C3702 1.403 . S
C3705 C3706 1.392 . S
C3705 C3709 1.495 . S
C3706 C3705 1.392 . S
C3706 C3707 1.385 . S
C3706 C3708 1.478 . S
C3707 H3701 0.930 . S
C3707 C3703 1.400 . S
C3707 C3706 1.385 . S
C3708 C3706 1.478 . S
C3708 C3710 1.381 . S
C3708 C3714 1.383 . S
C3709 C3705 1.495 . S
C3709 H3715 0.959 . S
C3709 H3716 0.961 1_556 S
C3709 H3717 0.960 1_556 S
C3710 C3708 1.381 . S
C3710 C3711 1.394 1_556 S
C3710 H3718 0.930 . S
C3711 C3710 1.394 1_554 S
C3711 C3712 1.383 . S
C3711 H3719 0.929 . S
C3712 C3711 1.383 . S
C3712 C3713 1.377 . S
C3713 H3697 0.930 . S
C3713 C3712 1.377 . S
C3713 C3714 1.379 1_554 S
C3714 H3698 0.931 . S
C3714 C3708 1.383 . S
C3714 C3713 1.379 1_556 S
H3715 C3709 0.959 . S
H3716 C3709 0.961 1_554 S
H3717 C3709 0.960 1_554 S
H3718 C3710 0.930 . S
H3719 C3711 0.929 . S
H3720 C3728 0.929 . S
H3721 C3730 0.930 . S
H3722 C3732 0.930 . S
H3723 C3735 0.929 . S
H3724 C3738 0.930 . S
H3725 C3740 0.960 . S
H3726 C3740 0.959 1_556 S
H3727 C3740 0.960 . S
C3728 H3720 0.929 . S
C3728 C3729 1.377 . S
C3728 C3730 1.384 1_556 S
C3729 C3728 1.377 . S
C3729 C3735 1.390 . S
C3730 H3721 0.930 . S
C3730 C3728 1.384 1_554 S
C3730 C3731 1.372 . S
C3731 C3730 1.372 . S
C3731 C3732 1.400 . S
C3731 C3736 1.490 . S
C3732 H3722 0.930 . S
C3732 C3731 1.400 . S
C3732 C3735 1.386 1_554 S
H3733 C3749 0.930 . S
H3734 C3750 0.931 . S
C3735 H3723 0.929 . S
C3735 C3729 1.390 . S
C3735 C3732 1.386 1_556 S
C3736 C3731 1.490 . S
C3736 C3738 1.395 . S
C3736 C3739 1.403 . S
H3737 C3743 0.930 . S
C3738 H3724 0.930 . S
C3738 C3736 1.395 . S
C3738 C3741 1.403 . S
C3739 C3736 1.403 . S
C3739 C3740 1.524 . S
C3739 C3743 1.400 . S
C3740 H3725 0.960 . S
C3740 H3726 0.959 1_554 S
C3740 H3727 0.960 . S
C3740 C3739 1.524 . S
C3741 C3738 1.403 . S
C3741 C3742 1.392 . S
C3741 C3745 1.495 . S
C3742 C3741 1.392 . S
C3742 C3743 1.385 . S
C3742 C3744 1.478 . S
C3743 H3737 0.930 . S
C3743 C3739 1.400 . S
C3743 C3742 1.385 . S
C3744 C3742 1.478 . S
C3744 C3746 1.381 . S
C3744 C3750 1.383 . S
C3745 C3741 1.495 . S
C3745 H3751 0.959 . S
C3745 H3752 0.961 . S
C3745 H3753 0.960 . S
C3746 C3744 1.381 . S
C3746 C3747 1.394 . S
C3746 H3754 0.930 . S
C3747 C3746 1.394 . S
C3747 C3748 1.383 . S
C3747 H3755 0.929 . S
C3748 C3747 1.383 . S
C3748 C3749 1.377 . S
C3749 H3733 0.930 . S
C3749 C3748 1.377 . S
C3749 C3750 1.379 . S
C3750 H3734 0.931 . S
C3750 C3744 1.383 . S
C3750 C3749 1.379 . S
H3751 C3745 0.959 . S
H3752 C3745 0.961 . S
H3753 C3745 0.960 . S
H3754 C3746 0.930 . S
H3755 C3747 0.929 . S
H3756 C3764 0.929 . S
H3757 C3766 0.930 . S
H3758 C3768 0.930 . S
H3759 C3771 0.929 . S
H3760 C3774 0.930 . S
H3761 C3776 0.960 . S
H3762 C3776 0.960 . S
H3763 C3776 0.960 . S
C3764 H3756 0.929 . S
C3764 C3765 1.377 . S
C3764 C3766 1.384 . S
C3765 C3764 1.377 . S
C3765 C3771 1.390 . S
C3766 H3757 0.930 . S
C3766 C3764 1.384 . S
C3766 C3767 1.372 . S
C3767 C3766 1.372 . S
C3767 C3768 1.400 . S
C3767 C3772 1.490 . S
C3768 H3758 0.930 . S
C3768 C3767 1.400 . S
C3768 C3771 1.386 . S
H3769 C3785 0.930 . S
H3770 C3786 0.931 . S
C3771 H3759 0.929 . S
C3771 C3765 1.390 . S
C3771 C3768 1.386 . S
C3772 C3767 1.490 . S
C3772 C3774 1.395 . S
C3772 C3775 1.403 . S
H3773 C3779 0.930 . S
C3774 H3760 0.930 . S
C3774 C3772 1.395 . S
C3774 C3777 1.403 . S
C3775 C3772 1.403 . S
C3775 C3776 1.524 . S
C3775 C3779 1.400 . S
C3776 H3761 0.960 . S
C3776 H3762 0.960 . S
C3776 H3763 0.960 . S
C3776 C3775 1.524 . S
C3777 C3774 1.403 . S
C3777 C3778 1.392 . S
C3777 C3781 1.495 . S
C3778 C3777 1.392 . S
C3778 C3779 1.385 . S
C3778 C3780 1.478 . S
C3779 H3773 0.930 . S
C3779 C3775 1.400 . S
C3779 C3778 1.385 . S
C3780 C3778 1.478 . S
C3780 C3782 1.381 . S
C3780 C3786 1.383 . S
C3781 C3777 1.495 . S
C3781 H3787 0.959 . S
C3781 H3788 0.961 . S
C3781 H3789 0.960 . S
C3782 C3780 1.381 . S
C3782 C3783 1.394 . S
C3782 H3790 0.930 . S
C3783 C3782 1.394 . S
C3783 C3784 1.383 . S
C3783 H3791 0.929 . S
C3784 C3783 1.383 . S
C3784 C3785 1.377 . S
C3785 H3769 0.930 . S
C3785 C3784 1.377 . S
C3785 C3786 1.379 . S
C3786 H3770 0.931 . S
C3786 C3780 1.383 . S
C3786 C3785 1.379 . S
H3787 C3781 0.959 . S
H3788 C3781 0.961 . S
H3789 C3781 0.960 . S
H3790 C3782 0.930 . S
H3791 C3783 0.929 . S
H3792 C3800 0.929 . S
H3793 C3802 0.930 . S
H3794 C3804 0.930 . S
H3795 C3807 0.929 . S
H3796 C3810 0.930 . S
H3797 C3812 0.960 . S
H3798 C3812 0.960 . S
H3799 C3812 0.960 . S
C3800 H3792 0.929 . S
C3800 C3801 1.377 . S
C3800 C3802 1.384 . S
C3801 C3800 1.377 . S
C3801 C3807 1.390 . S
C3802 H3793 0.930 . S
C3802 C3800 1.384 . S
C3802 C3803 1.372 . S
C3803 C3802 1.372 . S
C3803 C3804 1.400 . S
C3803 C3808 1.490 . S
C3804 H3794 0.930 . S
C3804 C3803 1.400 . S
C3804 C3807 1.386 . S
H3805 C3821 0.930 . S
H3806 C3822 0.931 . S
C3807 H3795 0.929 . S
C3807 C3801 1.390 . S
C3807 C3804 1.386 . S
C3808 C3803 1.490 . S
C3808 C3810 1.395 . S
C3808 C3811 1.403 . S
H3809 C3815 0.930 . S
C3810 H3796 0.930 . S
C3810 C3808 1.395 . S
C3810 C3813 1.403 . S
C3811 C3808 1.403 . S
C3811 C3812 1.524 . S
C3811 C3815 1.400 . S
C3812 H3797 0.960 . S
C3812 H3798 0.960 . S
C3812 H3799 0.960 . S
C3812 C3811 1.524 . S
C3813 C3810 1.403 . S
C3813 C3814 1.392 . S
C3813 C3817 1.495 . S
C3814 C3813 1.392 . S
C3814 C3815 1.385 . S
C3814 C3816 1.478 . S
C3815 H3809 0.930 . S
C3815 C3811 1.400 . S
C3815 C3814 1.385 . S
C3816 C3814 1.478 . S
C3816 C3818 1.381 . S
C3816 C3822 1.383 . S
C3817 C3813 1.495 . S
C3817 H3823 0.959 . S
C3817 H3824 0.961 . S
C3817 H3825 0.960 . S
C3818 C3816 1.381 . S
C3818 C3819 1.394 . S
C3818 H3826 0.930 . S
C3819 C3818 1.394 . S
C3819 C3820 1.383 . S
C3819 H3827 0.929 . S
C3820 C3819 1.383 . S
C3820 C3821 1.377 . S
C3821 H3805 0.930 . S
C3821 C3820 1.377 . S
C3821 C3822 1.379 . S
C3822 H3806 0.931 . S
C3822 C3816 1.383 . S
C3822 C3821 1.379 . S
H3823 C3817 0.959 . S
H3824 C3817 0.961 . S
H3825 C3817 0.960 . S
H3826 C3818 0.930 . S
H3827 C3819 0.929 . S
H3828 C3836 0.929 . S
H3829 C3838 0.930 . S
H3830 C3840 0.930 . S
H3831 C3843 0.929 . S
H3832 C3846 0.930 . S
H3833 C3848 0.960 . S
H3834 C3848 0.960 . S
H3835 C3848 0.960 . S
C3836 H3828 0.929 . S
C3836 C3837 1.377 . S
C3836 C3838 1.384 . S
C3837 C3836 1.377 . S
C3837 C3843 1.390 . S
C3838 H3829 0.930 . S
C3838 C3836 1.384 . S
C3838 C3839 1.372 . S
C3839 C3838 1.372 . S
C3839 C3840 1.400 . S
C3839 C3844 1.490 . S
C3840 H3830 0.930 . S
C3840 C3839 1.400 . S
C3840 C3843 1.386 . S
H3841 C3857 0.930 . S
H3842 C3858 0.931 . S
C3843 H3831 0.929 . S
C3843 C3837 1.390 . S
C3843 C3840 1.386 . S
C3844 C3839 1.490 . S
C3844 C3846 1.395 . S
C3844 C3847 1.403 . S
H3845 C3851 0.930 . S
C3846 H3832 0.930 . S
C3846 C3844 1.395 . S
C3846 C3849 1.403 . S
C3847 C3844 1.403 . S
C3847 C3848 1.524 . S
C3847 C3851 1.400 . S
C3848 H3833 0.960 . S
C3848 H3834 0.960 . S
C3848 H3835 0.960 . S
C3848 C3847 1.524 . S
C3849 C3846 1.403 . S
C3849 C3850 1.392 . S
C3849 C3853 1.495 . S
C3850 C3849 1.392 . S
C3850 C3851 1.385 . S
C3850 C3852 1.478 . S
C3851 H3845 0.930 . S
C3851 C3847 1.400 . S
C3851 C3850 1.385 . S
C3852 C3850 1.478 . S
C3852 C3854 1.381 . S
C3852 C3858 1.383 . S
C3853 C3849 1.495 . S
C3853 H3859 0.959 . S
C3853 H3860 0.961 1_554 S
C3853 H3861 0.960 . S
C3854 C3852 1.381 . S
C3854 C3855 1.394 1_554 S
C3854 H3862 0.930 . S
C3855 C3854 1.394 1_556 S
C3855 C3856 1.383 . S
C3855 H3863 0.929 . S
C3856 C3855 1.383 . S
C3856 C3857 1.377 . S
C3857 H3841 0.930 . S
C3857 C3856 1.377 . S
C3857 C3858 1.379 1_556 S
C3858 H3842 0.931 . S
C3858 C3852 1.383 . S
C3858 C3857 1.379 1_554 S
H3859 C3853 0.959 . S
H3860 C3853 0.961 1_556 S
H3861 C3853 0.960 . S
H3862 C3854 0.930 . S
H3863 C3855 0.929 . S
H3864 C3872 0.929 . S
H3865 C3874 0.930 . S
H3866 C3876 0.930 . S
H3867 C3879 0.929 . S
H3868 C3882 0.930 . S
H3869 C3884 0.960 . S
H3870 C3884 0.960 . S
H3871 C3884 0.960 . S
C3872 H3864 0.929 . S
C3872 C3873 1.377 . S
C3872 C3874 1.384 . S
C3873 C3872 1.377 . S
C3873 C3879 1.390 1_554 S
C3874 H3865 0.930 . S
C3874 C3872 1.384 . S
C3874 C3875 1.372 1_554 S
C3875 C3874 1.372 1_556 S
C3875 C3876 1.400 . S
C3875 C3880 1.490 . S
C3876 H3866 0.930 . S
C3876 C3875 1.400 . S
C3876 C3879 1.386 . S
H3877 C3893 0.930 . S
H3878 C3894 0.931 . S
C3879 H3867 0.929 . S
C3879 C3873 1.390 1_556 S
C3879 C3876 1.386 . S
C3880 C3875 1.490 . S
C3880 C3882 1.395 . S
C3880 C3883 1.403 . S
H3881 C3887 0.930 . S
C3882 H3868 0.930 . S
C3882 C3880 1.395 . S
C3882 C3885 1.403 . S
C3883 C3880 1.403 . S
C3883 C3884 1.524 . S
C3883 C3887 1.400 . S
C3884 H3869 0.960 . S
C3884 H3870 0.960 . S
C3884 H3871 0.960 . S
C3884 C3883 1.524 . S
C3885 C3882 1.403 . S
C3885 C3886 1.392 . S
C3885 C3889 1.495 . S
C3886 C3885 1.392 . S
C3886 C3887 1.385 . S
C3886 C3888 1.478 . S
C3887 H3881 0.930 . S
C3887 C3883 1.400 . S
C3887 C3886 1.385 . S
C3888 C3886 1.478 . S
C3888 C3890 1.381 . S
C3888 C3894 1.383 . S
C3889 C3885 1.495 . S
C3889 H3895 0.959 . S
C3889 H3896 0.961 . S
C3889 H3897 0.960 . S
C3890 C3888 1.381 . S
C3890 C3891 1.394 . S
C3890 H3898 0.930 . S
C3891 C3890 1.394 . S
C3891 C3892 1.383 . S
C3891 H3899 0.929 . S
C3892 C3891 1.383 . S
C3892 C3893 1.377 . S
C3893 H3877 0.930 . S
C3893 C3892 1.377 . S
C3893 C3894 1.379 . S
C3894 H3878 0.931 . S
C3894 C3888 1.383 . S
C3894 C3893 1.379 . S
H3895 C3889 0.959 . S
H3896 C3889 0.961 . S
H3897 C3889 0.960 . S
H3898 C3890 0.930 . S
H3899 C3891 0.929 . S
H3900 C3908 0.929 . S
H3901 C3910 0.930 . S
H3902 C3912 0.930 . S
H3903 C3915 0.929 . S
H3904 C3918 0.930 . S
H3905 C3920 0.960 . S
H3906 C3920 0.960 . S
H3907 C3920 0.960 . S
C3908 H3900 0.929 . S
C3908 C3909 1.377 . S
C3908 C3910 1.384 . S
C3909 C3908 1.377 . S
C3909 C3915 1.390 . S
C3910 H3901 0.930 . S
C3910 C3908 1.384 . S
C3910 C3911 1.372 . S
C3911 C3910 1.372 . S
C3911 C3912 1.400 . S
C3911 C3916 1.490 . S
C3912 H3902 0.930 . S
C3912 C3911 1.400 . S
C3912 C3915 1.386 . S
H3913 C3929 0.930 . S
H3914 C3930 0.931 . S
C3915 H3903 0.929 . S
C3915 C3909 1.390 . S
C3915 C3912 1.386 . S
C3916 C3911 1.490 . S
C3916 C3918 1.395 . S
C3916 C3919 1.403 . S
H3917 C3923 0.930 . S
C3918 H3904 0.930 . S
C3918 C3916 1.395 . S
C3918 C3921 1.403 . S
C3919 C3916 1.403 . S
C3919 C3920 1.524 . S
C3919 C3923 1.400 . S
C3920 H3905 0.960 . S
C3920 H3906 0.960 . S
C3920 H3907 0.960 . S
C3920 C3919 1.524 . S
C3921 C3918 1.403 . S
C3921 C3922 1.392 . S
C3921 C3925 1.495 . S
C3922 C3921 1.392 . S
C3922 C3923 1.385 . S
C3922 C3924 1.478 . S
C3923 H3917 0.930 . S
C3923 C3919 1.400 . S
C3923 C3922 1.385 . S
C3924 C3922 1.478 . S
C3924 C3926 1.381 . S
C3924 C3930 1.383 . S
C3925 C3921 1.495 . S
C3925 H3931 0.959 . S
C3925 H3932 0.961 . S
C3925 H3933 0.960 . S
C3926 C3924 1.381 . S
C3926 C3927 1.394 . S
C3926 H3934 0.930 . S
C3927 C3926 1.394 . S
C3927 C3928 1.383 . S
C3927 H3935 0.929 . S
C3928 C3927 1.383 . S
C3928 C3929 1.377 . S
C3929 H3913 0.930 . S
C3929 C3928 1.377 . S
C3929 C3930 1.379 . S
C3930 H3914 0.931 . S
C3930 C3924 1.383 . S
C3930 C3929 1.379 . S
H3931 C3925 0.959 . S
H3932 C3925 0.961 . S
H3933 C3925 0.960 . S
H3934 C3926 0.930 . S
H3935 C3927 0.929 . S
C1065 C239 0.388 . S
C1084 C8 0.422 . S
C1101 C41 0.398 . S
C1120 C140 0.370 . S
C1137 C173 0.400 . S
C1156 C74 0.368 . S
C1173 C107 0.390 . S
C1192 C206 0.429 . S
C1209 C272 0.394 . S
C1228 C503 0.368 . S
C1245 C404 0.391 . S
C1264 C305 0.371 . S
C1281 C437 0.397 . S
C1300 C338 0.427 . S
C1317 C470 0.392 . S
C1336 C371 0.429 . S
C1353 C536 0.389 . S
C1372 C767 0.430 . S
C1389 C569 0.397 . S
C1408 C668 0.373 . S
C1425 C701 0.388 . S
C1444 C602 0.417 . S
C1461 C635 0.400 . S
C1480 C734 0.368 . S
C1497 C1031 0.401 . S
C1516 C800 0.399 . S
C1533 C833 0.401 . S
C1552 C932 0.400 . S
C1569 C965 0.401 . S
C1588 C866 0.395 . S
C1605 C899 0.394 . S
C1624 C998 0.368 . S
C1641 C17 1.106 . S
C1660 C215 1.132 . S
C1677 C50 1.106 . S
C1696 C248 1.117 . S
C1713 C149 1.113 . S
C1732 C83 1.113 . S
C1749 C116 1.112 . S
C1768 C182 1.117 . S
C1785 C479 1.115 . S
C1804 C281 1.107 . S
C1821 C314 1.110 . S
C1840 C512 1.132 . S
C1857 C347 1.105 . S
C1876 C413 1.112 . S
C1893 C446 1.105 . S
C1912 C380 1.109 . S
C1929 C545 1.113 . S
C1948 C743 1.113 . S
C1965 C578 1.114 . S
C1984 C776 1.106 . S
C2001 C677 1.105 . S
C2020 C611 1.126 . S
C2037 C644 1.111 . S
C2056 C710 1.122 . S
C2073 C1007 1.113 . S
C2092 C809 1.127 . S
C2109 C1040 1.105 . S
C2128 C842 1.112 . S
C2145 C941 1.109 . S
C2164 C875 1.087 . S
C2181 C908 1.109 . S
C2200 C974 1.086 . S
C2217 C28 1.458 . S
C2236 N995 1.433 . S
C2253 N500 1.431 . S
C2272 C61 1.459 . S
C2289 C94 1.463 . S
C2308 N929 1.431 . S
C2325 C127 1.462 . S
C2344 N434 1.413 . S
C2361 N863 1.428 . S
C2380 C160 1.449 . S
C2397 C193 1.463 . S
C2416 N368 1.423 . S
C2433 C226 1.462 . S
C2452 N797 1.446 . S
C2469 C259 1.458 . S
C2488 N302 1.396 . S
C2505 N731 1.422 . S
C2524 C292 1.463 . S
C2541 N236 1.431 . S
C2560 C325 1.467 . S
C2577 C358 1.457 . S
C2596 N665 1.398 . S
C2613 N170 1.426 . S
C2632 C391 1.471 . S
C2649 C424 1.463 . S
C2668 N599 1.445 . S
C2685 C457 1.463 . S
C2704 N104 1.438 . S
C2721 N533 1.420 . S
C2740 C490 1.444 . S
C2757 N38 1.421 . S
C2776 C523 1.458 . S
C2793 N467 1.421 . S
C2812 C556 1.443 . S
C2829 C589 1.463 . S
C2848 N1028 1.433 . S
C2865 C622 1.460 . S
C2884 N401 1.398 . S
C2901 C655 1.459 . S
C2920 N962 1.437 . S
C2937 N335 1.430 . S
C2956 C688 1.469 . S
C2973 C721 1.460 . S
C2992 N896 1.445 . S
C3009 C754 1.463 . S
C3028 N269 1.418 . S
C3045 C787 1.459 . S
C3064 N830 1.443 . S
C3081 C820 1.457 . S
C3100 N203 1.420 . S
C3117 C853 1.458 . S
C3136 N764 1.395 . S
C3153 C886 1.462 . S
C3172 N137 1.449 . S
C3189 N698 1.423 . S
C3208 C919 1.465 . S
C3225 N71 1.419 . S
C3244 C952 1.449 . S
C3261 C985 1.463 . S
C3280 N632 1.444 . S
C3297 C1018 1.461 . S
C3316 N5 1.406 . S
C3333 N566 1.430 . S
C3352 C1051 1.456 . S
C3369 N14 1.826 . S
C3388 N245 1.843 . S
C3405 N47 1.828 . S
C3424 N146 1.846 . S
C3441 N80 1.834 . S
C3460 N179 1.807 . S
C3477 N113 1.829 . S
C3496 N212 1.844 . S
C3513 N509 1.832 . S
C3532 N278 1.832 . S
C3549 N410 1.830 . S
C3568 N311 1.827 . S
C3585 N443 1.831 . S
C3604 N344 1.826 . S
C3621 N476 1.834 . S
C3640 N377 1.844 . S
C3657 N773 1.833 . S
C3676 N542 1.829 . S
C3693 N674 1.830 . S
C3712 N575 1.842 . S
C3729 N707 1.831 . S
C3748 N608 1.840 . S
C3765 N641 1.827 . S
C3784 N740 1.843 . S
C3801 N806 1.834 . S
C3820 N1037 1.844 . S
C3837 N938 1.834 . S
C3856 N839 1.845 . S
C3873 N971 1.829 . S
C3892 N872 1.821 . S
C3909 N1004 1.827 . S
C3928 N905 1.812 . S
