# Generated by pormake.
# Topology smt, (6)-cn, num edge types: 1
# Building blocks:
#     Node 0, Type 0, BuildingBlock: UKALOJ_clean_sbu_0, # of connection points: 6
#     Node 1, Type 0, BuildingBlock: UKALOJ_clean_sbu_0, # of connection points: 6
#     Node 2, Type 0, BuildingBlock: UKALOJ_clean_sbu_0, # of connection points: 6
#     Node 3, Type 0, BuildingBlock: UKALOJ_clean_sbu_0, # of connection points: 6
#     Node 4, Type 0, BuildingBlock: UKALOJ_clean_sbu_0, # of connection points: 6
#     Node 5, Type 0, BuildingBlock: UKALOJ_clean_sbu_0, # of connection points: 6
#     Edge 6, Type (0, 0), BuildingBlock: MIFKUJ_clean_linker_0, # of connection points: 2
#     Edge 7, Type (0, 0), BuildingBlock: MIFKUJ_clean_linker_0, # of connection points: 2
#     Edge 8, Type (0, 0), BuildingBlock: MIFKUJ_clean_linker_0, # of connection points: 2
#     Edge 9, Type (0, 0), BuildingBlock: MIFKUJ_clean_linker_0, # of connection points: 2
#     Edge 10, Type (0, 0), BuildingBlock: MIFKUJ_clean_linker_0, # of connection points: 2
#     Edge 11, Type (0, 0), BuildingBlock: MIFKUJ_clean_linker_0, # of connection points: 2
#     Edge 12, Type (0, 0), BuildingBlock: MIFKUJ_clean_linker_0, # of connection points: 2
#     Edge 13, Type (0, 0), BuildingBlock: MIFKUJ_clean_linker_0, # of connection points: 2
#     Edge 14, Type (0, 0), BuildingBlock: MIFKUJ_clean_linker_0, # of connection points: 2
#     Edge 15, Type (0, 0), BuildingBlock: MIFKUJ_clean_linker_0, # of connection points: 2
#     Edge 16, Type (0, 0), BuildingBlock: MIFKUJ_clean_linker_0, # of connection points: 2
#     Edge 17, Type (0, 0), BuildingBlock: MIFKUJ_clean_linker_0, # of connection points: 2
#     Edge 18, Type (0, 0), BuildingBlock: MIFKUJ_clean_linker_0, # of connection points: 2
#     Edge 19, Type (0, 0), BuildingBlock: MIFKUJ_clean_linker_0, # of connection points: 2
#     Edge 20, Type (0, 0), BuildingBlock: MIFKUJ_clean_linker_0, # of connection points: 2
#     Edge 21, Type (0, 0), BuildingBlock: MIFKUJ_clean_linker_0, # of connection points: 2
#     Edge 22, Type (0, 0), BuildingBlock: MIFKUJ_clean_linker_0, # of connection points: 2
#     Edge 23, Type (0, 0), BuildingBlock: MIFKUJ_clean_linker_0, # of connection points: 2
# Relax obj value: 0.347
# Max RMSD: 0.282
# Mean RMSD: 0.282
data_MOF--net-smt--node1-UKALOJ_clean_sbu_0--edge1-MIFKUJ_clean_linker_0
_symmetry_space_group_name_H-M    P1
_symmetry_Int_Tables_number       1
_symmetry_cell_setting            triclinic
loop_
_symmetry_equiv_pos_as_xyz
'x, y, z'
_cell_length_a     48.193435
_cell_length_b     48.193259
_cell_length_c     31.725025
_cell_angle_alpha  89.864627
_cell_angle_beta   90.038902
_cell_angle_gamma 120.02645
loop_
_atom_site_label
_atom_site_type_symbol
_atom_site_fract_x
_atom_site_fract_y
_atom_site_fract_z
_atom_type_partial_charge
Zn0 Zn 0.48993 0.12228 0.99333 0.0
O1 O 0.47096 0.08166 0.0342 0.0
C2 C 0.42446 0.09831 0.96176 0.0
Zn3 Zn 0.46565 0.14331 0.02959 0.0
C4 C 0.45506 0.0817 0.06614 0.0
O5 O 0.44959 0.10463 0.07102 0.0
C6 C 0.502 0.18555 0.95903 0.0
O7 O 0.50714 0.16896 0.06855 0.0
O8 O 0.52917 0.14591 0.03277 0.0
N9 N 0.43996 0.15887 0.06293 0.0
C10 C 0.44375 0.18817 0.06948 0.0
C11 C 0.39809 0.154 0.09427 0.0
N12 N 0.41168 0.13771 0.07862 0.0
N13 N 0.41758 0.18576 0.08871 0.0
C14 C 0.52219 0.08346 0.96172 0.0
C15 C 0.53534 0.10241 0.89961 0.0
N16 N 0.51388 0.10619 0.95723 0.0
N17 N 0.5224 0.11809 0.91873 0.0
N18 N 0.53555 0.08049 0.92582 0.0
H19 H 0.52398 0.08172 0.02926 0.0
H20 H 0.5356 0.05609 0.00226 0.0
H21 H 0.494 0.04535 0.00445 0.0
C22 C 0.5189 0.06565 0.00182 0.0
C23 C 0.47375 0.21887 0.05905 0.0
H24 H 0.49491 0.21563 0.06081 0.0
H25 H 0.47706 0.23821 0.08098 0.0
H26 H 0.4721 0.22623 0.02644 0.0
O27 O 0.48248 0.18272 0.98782 0.0
O28 O 0.50897 0.16361 0.95434 0.0
C29 C 0.53057 0.1642 0.06243 0.0
O30 O 0.44999 0.09777 0.95397 0.0
O31 O 0.42439 0.11599 0.9914 0.0
Zn32 Zn 0.36954 0.49605 0.16387 0.0
O33 O 0.39312 0.48664 0.21318 0.0
C34 C 0.33658 0.42763 0.14437 0.0
Zn35 Zn 0.32367 0.47084 0.19871 0.0
C36 C 0.37771 0.47287 0.2465 0.0
O37 O 0.34818 0.46422 0.24917 0.0
C38 C 0.31619 0.49561 0.11662 0.0
O39 O 0.33105 0.5139 0.22692 0.0
O40 O 0.37743 0.53767 0.19444 0.0
N41 N 0.28169 0.44433 0.23009 0.0
C42 C 0.25418 0.44517 0.23107 0.0
C43 C 0.24653 0.40416 0.26623 0.0
N44 N 0.27694 0.41896 0.25214 0.0
N45 N 0.23161 0.41998 0.25323 0.0
C46 C 0.43236 0.51508 0.11522 0.0
C47 C 0.44774 0.56353 0.09864 0.0
N48 N 0.41153 0.5226 0.13262 0.0
N49 N 0.4213 0.55282 0.12264 0.0
N50 N 0.45515 0.54028 0.09345 0.0
H51 H 0.42117 0.47326 0.15242 0.0
H52 H 0.45552 0.48669 0.118 0.0
H53 H 0.41563 0.46664 0.09656 0.0
C54 C 0.4312 0.48364 0.12109 0.0
C55 C 0.25006 0.47144 0.21214 0.0
H56 H 0.27317 0.49423 0.21077 0.0
H57 H 0.23259 0.47506 0.23063 0.0
H58 H 0.24092 0.46478 0.17954 0.0
O59 O 0.29992 0.47836 0.1476 0.0
O60 O 0.3461 0.50592 0.11532 0.0
C61 C 0.35734 0.53922 0.21869 0.0
O62 O 0.36087 0.4539 0.13339 0.0
O63 O 0.31707 0.42789 0.17104 0.0
Zn64 Zn 0.86877 0.3492 0.34833 0.0
O65 O 0.90324 0.37857 0.39398 0.0
C66 C 0.90671 0.31959 0.3241 0.0
Zn67 Zn 0.85619 0.30651 0.38804 0.0
C68 C 0.9086 0.36573 0.42567 0.0
O69 O 0.89286 0.3355 0.4301 0.0
C70 C 0.81503 0.29029 0.31199 0.0
O71 O 0.82382 0.31471 0.42425 0.0
O72 O 0.83438 0.35449 0.38102 0.0
N73 N 0.84692 0.26745 0.4234 0.0
C74 C 0.81946 0.24174 0.4365 0.0
C75 C 0.85776 0.23376 0.45326 0.0
N76 N 0.87068 0.26257 0.43424 0.0
N77 N 0.82565 0.2202 0.45532 0.0
C78 C 0.90497 0.411 0.29371 0.0
C79 C 0.86632 0.41704 0.27267 0.0
N80 N 0.878 0.38784 0.31198 0.0
N81 N 0.85408 0.39176 0.29903 0.0
N82 N 0.89823 0.42955 0.26839 0.0
H83 H 0.93895 0.40709 0.33416 0.0
H84 H 0.95614 0.44179 0.30023 0.0
H85 H 0.9434 0.40241 0.27918 0.0
C86 C 0.93777 0.41602 0.30246 0.0
C87 C 0.78663 0.23693 0.42863 0.0
H88 H 0.78714 0.25531 0.40738 0.0
H89 H 0.77616 0.23868 0.45892 0.0
H90 H 0.77078 0.21276 0.41524 0.0
O91 O 0.81909 0.27781 0.34502 0.0
O92 O 0.83375 0.31984 0.30458 0.0
C93 C 0.8192 0.33732 0.41251 0.0
O94 O 0.90304 0.3433 0.31566 0.0
O95 O 0.8895 0.29974 0.35244 0.0
Zn96 Zn 0.48759 0.86904 0.50448 0.0
O97 O 0.49197 0.89138 0.56301 0.0
C98 C 0.55725 0.90902 0.49218 0.0
Zn99 Zn 0.5131 0.84458 0.52885 0.0
C100 C 0.50556 0.88544 0.59327 0.0
O101 O 0.51686 0.86693 0.58734 0.0
C102 C 0.49323 0.82673 0.44085 0.0
O103 O 0.46912 0.80494 0.5497 0.0
O104 O 0.4447 0.82967 0.52487 0.0
N105 N 0.53904 0.82529 0.55243 0.0
C106 C 0.53819 0.79721 0.54613 0.0
C107 C 0.58043 0.8272 0.58147 0.0
N108 N 0.56515 0.84373 0.57471 0.0
N109 N 0.56397 0.79795 0.56393 0.0
C110 C 0.46684 0.90459 0.44253 0.0
C111 C 0.42393 0.89897 0.47 0.0
N112 N 0.46265 0.88928 0.47961 0.0
N113 N 0.43602 0.88585 0.49671 0.0
N114 N 0.44281 0.91072 0.43575 0.0
H115 H 0.5162 0.93738 0.42969 0.0
H116 H 0.49242 0.9235 0.38316 0.0
H117 H 0.50276 0.89749 0.4114 0.0
C118 C 0.49589 0.91608 0.41484 0.0
C119 C 0.51394 0.7704 0.5194 0.0
H120 H 0.49212 0.77223 0.51498 0.0
H121 H 0.50715 0.74692 0.53397 0.0
H122 H 0.52471 0.77127 0.48819 0.0
O123 O 0.50852 0.82232 0.47023 0.0
O124 O 0.48245 0.84559 0.44685 0.0
C125 C 0.44344 0.80579 0.54375 0.0
O126 O 0.53104 0.90855 0.48591 0.0
O127 O 0.55682 0.88484 0.50884 0.0
Zn128 Zn 0.63755 0.5112 0.6598 0.0
O129 O 0.61212 0.52444 0.70132 0.0
C130 C 0.66583 0.57449 0.62064 0.0
Zn131 Zn 0.68382 0.54413 0.69093 0.0
C132 C 0.62767 0.54401 0.73072 0.0
O133 O 0.65782 0.55583 0.73323 0.0
C134 C 0.69353 0.50985 0.62165 0.0
O135 O 0.6792 0.50741 0.73392 0.0
O136 O 0.63259 0.477 0.70355 0.0
N137 N 0.72548 0.57794 0.71818 0.0
C138 C 0.7533 0.57888 0.72703 0.0
C139 C 0.76068 0.62585 0.73709 0.0
N140 N 0.73006 0.60706 0.72487 0.0
N141 N 0.77575 0.60872 0.73885 0.0
C142 C 0.5726 0.47851 0.61164 0.0
C143 C 0.56644 0.43212 0.60079 0.0
N144 N 0.59657 0.47727 0.63173 0.0
N145 N 0.59243 0.44828 0.62542 0.0
N146 N 0.55339 0.45048 0.59208 0.0
H147 H 0.58403 0.52593 0.63182 0.0
H148 H 0.54438 0.50173 0.61025 0.0
H149 H 0.57826 0.51853 0.57568 0.0
C150 C 0.5698 0.508 0.60744 0.0
C151 C 0.75942 0.5516 0.72038 0.0
H152 H 0.73736 0.52929 0.71161 0.0
H153 H 0.76893 0.54694 0.74969 0.0
H154 H 0.77781 0.55816 0.69543 0.0
O155 O 0.70927 0.5318 0.64827 0.0
O156 O 0.66333 0.49754 0.61968 0.0
C157 C 0.65299 0.48088 0.73152 0.0
O158 O 0.64246 0.5462 0.61646 0.0
O159 O 0.68683 0.58012 0.64875 0.0
Zn160 Zn 0.11254 0.63341 0.85701 0.0
O161 O 0.07469 0.61652 0.90021 0.0
C162 C 0.086 0.67019 0.81735 0.0
Zn163 Zn 0.13557 0.68248 0.88309 0.0
C164 C 0.07681 0.63475 0.93038 0.0
O165 O 0.10031 0.66329 0.93173 0.0
C166 C 0.17245 0.67988 0.81155 0.0
O167 O 0.16667 0.674 0.92159 0.0
O168 O 0.13894 0.62368 0.90115 0.0
N169 N 0.15215 0.72732 0.90687 0.0
C170 C 0.1809 0.75439 0.90514 0.0
C171 C 0.1477 0.76659 0.93131 0.0
N172 N 0.13162 0.73495 0.92332 0.0
N173 N 0.17865 0.77952 0.91985 0.0
C174 C 0.06808 0.56929 0.81124 0.0
C175 C 0.10013 0.55177 0.79995 0.0
N176 N 0.0957 0.58901 0.83129 0.0
N177 N 0.11544 0.57784 0.82466 0.0
N178 N 0.07042 0.54601 0.7907 0.0
H179 H 0.03716 0.58255 0.84386 0.0
H180 H 0.01669 0.54798 0.80992 0.0
H181 H 0.03871 0.58755 0.78786 0.0
C182 C 0.03841 0.57192 0.81356 0.0
C183 C 0.21121 0.75559 0.89127 0.0
H184 H 0.21002 0.73239 0.89767 0.0
H185 H 0.23224 0.77502 0.9078 0.0
H186 H 0.2144 0.76022 0.85684 0.0
O187 O 0.17061 0.70038 0.83465 0.0
O188 O 0.15145 0.65048 0.81495 0.0
C189 C 0.1609 0.64522 0.92373 0.0
O190 O 0.08591 0.64393 0.81338 0.0
O191 O 0.10411 0.69023 0.84478 0.0
H192 H 0.36369 0.07901 0.98879 0.0
H193 H 0.31599 0.02787 0.97244 0.0
H194 H 0.3684 0.00983 0.87674 0.0
H195 H 0.41645 0.06077 0.89317 0.0
H196 H 0.29954 0.98339 0.8595 0.0
H197 H 0.37308 0.98577 0.9663 0.0
H198 H 0.4051 0.00497 0.03125 0.0
H199 H 0.3201 0.98042 0.10258 0.0
H200 H 0.2876 0.9615 0.0377 0.0
H201 H 0.22406 0.81381 0.86064 0.0
H202 H 0.26192 0.8713 0.86119 0.0
H203 H 0.22045 0.88007 0.97743 0.0
H204 H 0.18403 0.82209 0.97838 0.0
H205 H 0.28157 0.913 0.98312 0.0
H206 H 0.2064 0.90457 0.87835 0.0
H207 H 0.17376 0.88429 0.81388 0.0
H208 H 0.2592 0.91946 0.73928 0.0
H209 H 0.29236 0.93959 0.80339 0.0
C210 C 0.36482 0.06481 0.96314 0.0
C211 C 0.39401 0.07365 0.9428 0.0
C212 C 0.33752 0.03555 0.95392 0.0
C213 C 0.33897 0.01494 0.92396 0.0
C214 C 0.36694 0.02541 0.9001 0.0
C215 C 0.39438 0.05451 0.90961 0.0
C216 C 0.3138 0.98077 0.92296 0.0
C217 C 0.29555 0.96785 0.88635 0.0
C218 C 0.30844 0.96076 0.95828 0.0
C219 C 0.328 0.97261 0.99713 0.0
C220 C 0.36128 0.98483 0.99575 0.0
C221 C 0.37951 0.9956 0.03259 0.0
C222 C 0.36465 0.99397 0.07107 0.0
C223 C 0.33156 0.9817 0.07274 0.0
C224 C 0.31324 0.97096 0.03595 0.0
C225 C 0.22369 0.82777 0.887 0.0
C226 C 0.20182 0.81325 0.9203 0.0
C227 C 0.24482 0.86084 0.88672 0.0
C228 C 0.24382 0.88016 0.91908 0.0
C229 C 0.22173 0.86571 0.95211 0.0
C230 C 0.20095 0.83262 0.95267 0.0
C231 C 0.2667 0.91521 0.9197 0.0
C232 C 0.28491 0.92838 0.95629 0.0
C233 C 0.27171 0.93532 0.8844 0.0
C234 C 0.25185 0.92335 0.84575 0.0
C235 C 0.21823 0.90778 0.84824 0.0
C236 C 0.19963 0.89634 0.81175 0.0
C237 C 0.21439 0.90052 0.77252 0.0
C238 C 0.24779 0.91622 0.76969 0.0
C239 C 0.2665 0.92768 0.80609 0.0
H240 H 0.19995 0.89165 0.74431 0.0
H241 H 0.37867 0.00199 0.09967 0.0
H242 H 0.36654 0.41717 0.07845 0.0
H243 H 0.37186 0.36993 0.06737 0.0
H244 H 0.30686 0.3219 0.17056 0.0
H245 H 0.30159 0.36921 0.18208 0.0
H246 H 0.36447 0.32439 0.18026 0.0
H247 H 0.28481 0.29307 0.07358 0.0
H248 H 0.25862 0.29982 0.01074 0.0
H249 H 0.34075 0.32024 0.9355 0.0
H250 H 0.36765 0.31407 0.99801 0.0
H251 H 0.38179 0.18677 0.15305 0.0
H252 H 0.36083 0.22333 0.16199 0.0
H253 H 0.4116 0.27492 0.05018 0.0
H254 H 0.43039 0.23709 0.03953 0.0
H255 H 0.35421 0.26563 0.04773 0.0
H256 H 0.4367 0.30522 0.15543 0.0
H257 H 0.46453 0.3011 0.2184 0.0
H258 H 0.37831 0.26682 0.2911 0.0
H259 H 0.34995 0.27063 0.22848 0.0
C260 C 0.35286 0.39632 0.09821 0.0
C261 C 0.334 0.39704 0.13146 0.0
C262 C 0.35578 0.36927 0.0917 0.0
C263 C 0.33982 0.3425 0.11828 0.0
C264 C 0.31938 0.34238 0.14979 0.0
C265 C 0.31627 0.36936 0.15614 0.0
C266 C 0.3475 0.31641 0.11612 0.0
C267 C 0.36161 0.31101 0.15155 0.0
C268 C 0.34447 0.29964 0.07836 0.0
C269 C 0.32835 0.30333 0.04061 0.0
C270 C 0.29741 0.29925 0.04371 0.0
C271 C 0.28241 0.30292 0.00813 0.0
C272 C 0.29803 0.31051 0.96917 0.0
C273 C 0.32867 0.31437 0.9657 0.0
C274 C 0.34379 0.31075 0.0012 0.0
C275 C 0.38874 0.20619 0.13074 0.0
C276 C 0.40867 0.20969 0.09644 0.0
C277 C 0.3769 0.22716 0.13596 0.0
C278 C 0.38511 0.25229 0.10719 0.0
C279 C 0.40516 0.2559 0.07303 0.0
C280 C 0.41655 0.23464 0.06746 0.0
C281 C 0.37198 0.27418 0.11156 0.0
C282 C 0.35677 0.27874 0.07659 0.0
C283 C 0.3742 0.29039 0.14966 0.0
C284 C 0.39115 0.28789 0.18721 0.0
C285 C 0.42364 0.29659 0.18479 0.0
C286 C 0.43951 0.29438 0.22043 0.0
C287 C 0.42316 0.2836 0.25869 0.0
C288 C 0.39091 0.27506 0.26141 0.0
C289 C 0.37495 0.27731 0.2259 0.0
H290 H 0.43551 0.28195 0.28625 0.0
H291 H 0.28638 0.31334 0.94166 0.0
H292 H 0.93627 0.28862 0.35599 0.0
H293 H 0.98967 0.29871 0.33702 0.0
H294 H 0.99269 0.35785 0.23296 0.0
H295 H 0.93948 0.34843 0.25214 0.0
H296 H 0.02513 0.3165 0.22274 0.0
H297 H 0.01938 0.39748 0.30897 0.0
H298 H -0.00198 0.41282 0.36966 0.0
H299 H 0.03578 0.37024 0.45432 0.0
H300 H 0.0567 0.35396 0.39395 0.0
H301 H 0.19047 0.42069 0.19529 0.0
H302 H 0.13306 0.39909 0.20385 0.0
H303 H 0.13835 0.3685 0.33012 0.0
H304 H 0.19645 0.39216 0.32248 0.0
H305 H 0.10023 0.39232 0.32927 0.0
H306 H 0.11086 0.31578 0.24542 0.0
H307 H 0.12985 0.29679 0.18597 0.0
H308 H 0.0823 0.32732 0.09865 0.0
H309 H 0.06338 0.3469 0.15756 0.0
C310 C 0.94779 0.30284 0.32817 0.0
C311 C 0.93405 0.31822 0.30591 0.0
C312 C 0.97825 0.30854 0.31742 0.0
C313 C 0.99499 0.32922 0.28394 0.0
C314 C 0.97995 0.34178 0.25886 0.0
C315 C 0.9497 0.33653 0.27001 0.0
C316 C 0.02975 0.34224 0.27999 0.0
C317 C 0.04171 0.33327 0.24569 0.0
C318 C 0.05098 0.36357 0.31059 0.0
C319 C 0.0393 0.37421 0.34695 0.0
C320 C 0.02289 0.39115 0.34051 0.0
C321 C 0.01088 0.40003 0.37484 0.0
C322 C 0.0155 0.39246 0.41582 0.0
C323 C 0.03219 0.37605 0.42255 0.0
C324 C 0.04412 0.36698 0.38829 0.0
C325 C 0.17968 0.41048 0.22539 0.0
C326 C 0.19809 0.409 0.25874 0.0
C327 C 0.14668 0.39742 0.22992 0.0
C328 C 0.13132 0.38176 0.26742 0.0
C329 C 0.14969 0.38046 0.3009 0.0
C330 C 0.18278 0.39389 0.29653 0.0
C331 C 0.09612 0.36674 0.27172 0.0
C332 C 0.0839 0.37542 0.30623 0.0
C333 C 0.07471 0.34493 0.2414 0.0
C334 C 0.08594 0.33306 0.2059 0.0
C335 C 0.10464 0.31865 0.21352 0.0
C336 C 0.11537 0.30775 0.17992 0.0
C337 C 0.10735 0.31092 0.13855 0.0
C338 C 0.08852 0.32492 0.13071 0.0
C339 C 0.07776 0.33589 0.16419 0.0
H340 H 0.11568 0.30246 0.11259 0.0
H341 H 0.00627 0.39943 0.44237 0.0
H342 H 0.77078 0.19742 0.50079 0.0
H343 H 0.72998 0.14125 0.51002 0.0
H344 H 0.79144 0.11257 0.4482 0.0
H345 H 0.83128 0.16895 0.43623 0.0
H346 H 0.73557 0.08121 0.41568 0.0
H347 H 0.77339 0.10004 0.55631 0.0
H348 H 0.79042 0.12752 0.62483 0.0
H349 H 0.69606 0.11323 0.64516 0.0
H350 H 0.67856 0.08607 0.57646 0.0
H351 H 0.61742 0.91651 0.4879 0.0
H352 H 0.66848 0.9673 0.48292 0.0
H353 H 0.61717 0.01915 0.47685 0.0
H354 H 0.56627 0.96886 0.48063 0.0
H355 H 0.67286 0.03385 0.5464 0.0
H356 H 0.64146 0.02428 0.39635 0.0
H357 H 0.62606 0.99499 0.32891 0.0
H358 H 0.71216 0.98926 0.33036 0.0
H359 H 0.72781 0.01817 0.39818 0.0
C360 C 0.77537 0.17914 0.48874 0.0
C361 C 0.80363 0.18745 0.46651 0.0
C362 C 0.75235 0.147 0.49482 0.0
C363 C 0.75765 0.12259 0.4799 0.0
C364 C 0.78674 0.13095 0.45979 0.0
C365 C 0.80954 0.1631 0.45322 0.0
C366 C 0.73175 0.08862 0.48209 0.0
C367 C 0.72238 0.07074 0.44458 0.0
C368 C 0.71432 0.07479 0.51965 0.0
C369 C 0.72472 0.09119 0.56103 0.0
C370 C 0.75632 0.10297 0.57522 0.0
C371 C 0.76605 0.11846 0.61414 0.0
C372 C 0.74435 0.12217 0.6393 0.0
C373 C 0.71285 0.11035 0.62563 0.0
C374 C 0.703 0.09486 0.58672 0.0
C375 C 0.61706 0.93872 0.48482 0.0
C376 C 0.58789 0.93874 0.48455 0.0
C377 C 0.64615 0.96759 0.48208 0.0
C378 C 0.64631 0.9967 0.47969 0.0
C379 C 0.61731 0.99676 0.47867 0.0
C380 C 0.58831 0.96801 0.48058 0.0
C381 C 0.67663 0.02742 0.48002 0.0
C382 C 0.68668 0.04444 0.51795 0.0
C383 C 0.69498 0.04029 0.44315 0.0
C384 C 0.68553 0.02291 0.40255 0.0
C385 C 0.65689 0.01642 0.38253 0.0
C386 C 0.64817 -1e-05 0.34418 0.0
C387 C 0.66805 0.99015 0.32544 0.0
C388 C 0.69674 0.99681 0.34496 0.0
C389 C 0.70554 0.01322 0.38333 0.0
H390 H 0.66128 0.97745 0.29574 0.0
H391 H 0.75193 0.13416 0.66942 0.0
H392 H 0.53506 0.73719 0.5926 0.0
H393 H 0.55734 0.70106 0.59161 0.0
H394 H 0.64113 0.77332 0.52636 0.0
H395 H 0.61876 0.80929 0.52752 0.0
H396 H 0.61834 0.70998 0.49553 0.0
H397 H 0.64772 0.76926 0.62554 0.0
H398 H 0.63734 0.7897 0.69133 0.0
H399 H 0.57673 0.69332 0.73521 0.0
H400 H 0.58637 0.6723 0.66934 0.0
H401 H 0.70503 0.63872 0.63365 0.0
H402 H 0.6947 0.68133 0.61174 0.0
H403 H 0.61382 0.6134 0.53816 0.0
H404 H 0.62438 0.57087 0.55912 0.0
H405 H 0.64102 0.67975 0.63561 0.0
H406 H 0.59667 0.65273 0.46238 0.0
H407 H 0.60949 0.63426 0.39664 0.0
H408 H 0.70613 0.67021 0.43914 0.0
H409 H 0.69402 0.68926 0.50487 0.0
C410 C 0.55787 0.74488 0.57733 0.0
C411 C 0.57525 0.77567 0.55988 0.0
C412 C 0.57063 0.72445 0.57691 0.0
C413 C 0.60089 0.73464 0.55897 0.0
C414 C 0.61769 0.76501 0.54013 0.0
C415 C 0.60507 0.7855 0.54097 0.0
C416 C 0.61609 0.71464 0.56275 0.0
C417 C 0.62332 0.70328 0.52608 0.0
C418 C 0.62323 0.70665 0.60262 0.0
C419 C 0.61752 0.71922 0.64234 0.0
C420 C 0.63197 0.75243 0.64906 0.0
C421 C 0.62625 0.76412 0.68639 0.0
C422 C 0.60632 0.74282 0.71738 0.0
C423 C 0.59213 0.70979 0.71115 0.0
C424 C 0.59772 0.69798 0.67384 0.0
C425 C 0.6857 0.63303 0.61167 0.0
C426 C 0.66516 0.60127 0.59873 0.0
C427 C 0.67973 0.6574 0.59935 0.0
C428 C 0.65333 0.65049 0.57366 0.0
C429 C 0.63446 0.61936 0.55778 0.0
C430 C 0.64044 0.59499 0.57002 0.0
C431 C 0.64285 0.67442 0.56836 0.0
C432 C 0.63631 0.6865 0.60491 0.0
C433 C 0.63671 0.68325 0.52836 0.0
C434 C 0.64434 0.67221 0.4887 0.0
C435 C 0.6207 0.65683 0.45761 0.0
C436 C 0.62783 0.64622 0.42037 0.0
C437 C 0.65858 0.65098 0.41376 0.0
C438 C 0.68229 0.66643 0.44435 0.0
C439 C 0.67528 0.67709 0.48165 0.0
H440 H 0.66405 0.64275 0.38492 0.0
H441 H 0.60194 0.75192 0.74627 0.0
H442 H 0.04324 0.63244 0.75686 0.0
H443 H 0.99529 0.63327 0.73503 0.0
H444 H 0.0271 0.72154 0.8032 0.0
H445 H 0.07418 0.71966 0.82742 0.0
H446 H 0.97071 0.68169 0.82712 0.0
H447 H 0.01764 0.71595 0.69223 0.0
H448 H 0.04609 0.71648 0.6274 0.0
H449 H 0.97005 0.622 0.59658 0.0
H450 H 0.94133 0.62068 0.66151 0.0
H451 H 0.82226 0.65867 0.69672 0.0
H452 H 0.88029 0.68036 0.70326 0.0
H453 H 0.8632 0.60925 0.79826 0.0
H454 H 0.80536 0.58838 0.79256 0.0
H455 H 0.91589 0.65302 0.68847 0.0
H456 H 0.92177 0.64012 0.87043 0.0
H457 H 0.89496 0.64441 0.93426 0.0
H458 H 0.86925 0.70624 0.86845 0.0
H459 H 0.89629 0.70271 0.80444 0.0
C460 C 0.0402 0.65215 0.76696 0.0
C461 C 0.06195 0.67531 0.79508 0.0
C462 C 0.01293 0.65291 0.75386 0.0
C463 C 0.0074 0.6774 0.76763 0.0
C464 C 0.03067 0.70222 0.79251 0.0
C465 C 0.05768 0.70118 0.80617 0.0
C466 C 0.9756 0.67462 0.76101 0.0
C467 C 0.95894 0.67581 0.79664 0.0
C468 C 0.9603 0.66748 0.72119 0.0
C469 C 0.97739 0.66818 0.68191 0.0
C470 C 0.00707 0.6952 0.67177 0.0
C471 C 0.02323 0.69565 0.63497 0.0
C472 C 0.0099 0.66928 0.60791 0.0
C473 C 0.98034 0.64242 0.61756 0.0
C474 C 0.96408 0.64183 0.65433 0.0
C475 C 0.8311 0.64796 0.71914 0.0
C476 C 0.8096 0.62164 0.74371 0.0
C477 C 0.86409 0.66017 0.72269 0.0
C478 C 0.87604 0.64647 0.7513 0.0
C479 C 0.85449 0.62034 0.77619 0.0
C480 C 0.82152 0.60814 0.77259 0.0
C481 C 0.91097 0.65902 0.75479 0.0
C482 C 0.92804 0.65953 0.71868 0.0
C483 C 0.92696 0.66846 0.79398 0.0
C484 C 0.91086 0.67093 0.83252 0.0
C485 C 0.91053 0.65475 0.86963 0.0
C486 C 0.89526 0.65703 0.90584 0.0
C487 C 0.88034 0.67552 0.90537 0.0
C488 C 0.88072 0.69184 0.86873 0.0
C489 C 0.89597 0.68967 0.83246 0.0
H490 H 0.86853 0.67723 0.93343 0.0
H491 H 0.02246 0.66968 0.57944 0.0
H492 H 0.42646 0.08013 0.1406 0.0
H493 H 0.41822 0.04563 0.20103 0.0
H494 H 0.45396 0.99401 0.12987 0.0
H495 H 0.46311 0.02907 0.06897 0.0
H496 H 0.39342 0.95664 0.18884 0.0
H497 H 0.50516 0.04042 0.18277 0.0
H498 H 0.54784 0.0967 0.1737 0.0
H499 H 0.51213 0.12396 0.28039 0.0
H500 H 0.46883 0.06788 0.28958 0.0
H501 H 0.43563 0.88753 0.35732 0.0
H502 H 0.43098 0.91255 0.29246 0.0
H503 H 0.42958 0.98712 0.36605 0.0
H504 H 0.43536 0.96235 0.43095 0.0
H505 H 0.47144 0.01237 0.30416 0.0
H506 H 0.36212 0.92904 0.31416 0.0
H507 H 0.31712 0.87379 0.32226 0.0
H508 H 0.34563 0.84601 0.20912 0.0
H509 H 0.3911 0.90101 0.20064 0.0
C510 C 0.43222 0.0612 0.13737 0.0
C511 C 0.44581 0.05757 0.10001 0.0
C512 C 0.42736 0.04148 0.17196 0.0
C513 C 0.43565 0.01754 0.16976 0.0
C514 C 0.4474 0.01243 0.13189 0.0
C515 C 0.45275 0.03255 0.09729 0.0
C516 C 0.43502 0.00033 0.20849 0.0
C517 C 0.41069 0.96848 0.21392 0.0
C518 C 0.45706 0.0164 0.24137 0.0
C519 C 0.48354 0.05001 0.23658 0.0
C520 C 0.50623 0.05846 0.20407 0.0
C521 C 0.53057 0.09031 0.19893 0.0
C522 C 0.53264 0.11391 0.22637 0.0
C523 C 0.51046 0.10566 0.25911 0.0
C524 C 0.48603 0.07384 0.26432 0.0
C525 C 0.43411 0.90916 0.35937 0.0
C526 C 0.43644 0.92354 0.39859 0.0
C527 C 0.43118 0.92328 0.3225 0.0
C528 C 0.42981 0.95167 0.32437 0.0
C529 C 0.4307 0.96528 0.36388 0.0
C530 C 0.43383 0.95116 0.40082 0.0
C531 C 0.42975 0.96824 0.28497 0.0
C532 C 0.45406 0.00022 0.27929 0.0
C533 C 0.40754 0.95223 0.252 0.0
C534 C 0.38021 0.91911 0.25699 0.0
C535 C 0.35896 0.9111 0.29119 0.0
C536 C 0.33333 0.87983 0.29581 0.0
C537 C 0.32857 0.85638 0.26628 0.0
C538 C 0.34938 0.86418 0.232 0.0
C539 C 0.37506 0.89541 0.22725 0.0
H540 H 0.30871 0.83219 0.26991 0.0
H541 H 0.55148 0.13857 0.22231 0.0
H542 H 0.43585 0.47589 0.24622 0.0
H543 H 0.46273 0.46696 0.30596 0.0
H544 H 0.38338 0.4487 0.38673 0.0
H545 H 0.35617 0.45721 0.32725 0.0
H546 H 0.44672 0.49424 0.41809 0.0
H547 H 0.38789 0.38788 0.35657 0.0
H548 H 0.37285 0.35083 0.29632 0.0
H549 H 0.47096 0.37506 0.28117 0.0
H550 H 0.48671 0.41271 0.34087 0.0
H551 H 0.49591 0.44661 0.59846 0.0
H552 H 0.46157 0.4441 0.53954 0.0
H553 H 0.52845 0.44117 0.45162 0.0
H554 H 0.56202 0.44273 0.5107 0.0
H555 H 0.46992 0.40487 0.4235 0.0
H556 H 0.53173 0.51138 0.4754 0.0
H557 H 0.5533 0.55408 0.529 0.0
H558 H 0.45832 0.5362 0.55522 0.0
H559 H 0.43611 0.49298 0.50222 0.0
C560 C 0.42413 0.46992 0.2767 0.0
C561 C 0.39394 0.46724 0.28212 0.0
C562 C 0.43943 0.46474 0.31065 0.0
C563 C 0.42488 0.45707 0.35051 0.0
C564 C 0.39488 0.45457 0.3561 0.0
C565 C 0.37938 0.45934 0.32209 0.0
C566 C 0.44122 0.45223 0.38669 0.0
C567 C 0.45134 0.47441 0.41974 0.0
C568 C 0.44822 0.42704 0.38768 0.0
C569 C 0.43852 0.40338 0.35294 0.0
C570 C 0.40629 0.38544 0.34027 0.0
C571 C 0.39764 0.36433 0.30622 0.0
C572 C 0.42097 0.36076 0.2848 0.0
C573 C 0.45294 0.37796 0.29772 0.0
C574 C 0.46174 0.39916 0.33168 0.0
C575 C 0.50275 0.4449 0.56649 0.0
C576 C 0.53142 0.4451 0.5586 0.0
C577 C 0.48334 0.44354 0.53296 0.0
C578 C 0.4928 0.44306 0.49117 0.0
C579 C 0.52069 0.44154 0.48356 0.0
C580 C 0.53983 0.44248 0.51711 0.0
C581 C 0.47513 0.44669 0.45541 0.0
C582 C 0.46497 0.42448 0.42224 0.0
C583 C 0.46893 0.47246 0.4536 0.0
C584 C 0.48221 0.49871 0.48515 0.0
C585 C 0.51541 0.5164 0.4928 0.0
C586 C 0.52777 0.54071 0.52305 0.0
C587 C 0.50718 0.54779 0.54557 0.0
C588 C 0.47422 0.53064 0.53779 0.0
C589 C 0.46173 0.50624 0.50764 0.0
H590 H 0.51679 0.56662 0.56898 0.0
H591 H 0.41431 0.34474 0.25814 0.0
H592 H 0.05958 0.48659 0.77431 0.0
H593 H 0.03186 0.45358 0.71251 0.0
H594 H 0.01017 0.52567 0.66996 0.0
H595 H 0.03882 0.55901 0.73002 0.0
H596 H 0.95828 0.46285 0.66176 0.0
H597 H 0.06992 0.52559 0.62701 0.0
H598 H 0.12766 0.54671 0.63746 0.0
H599 H 0.11299 0.45122 0.63207 0.0
H600 H 0.05491 0.42949 0.62205 0.0
H601 H 0.92642 0.42751 0.44498 0.0
H602 H 0.9547 0.45693 0.50848 0.0
H603 H 0.96762 0.37814 0.5465 0.0
H604 H 0.93879 0.3483 0.48355 0.0
H605 H 0.02289 0.44162 0.55865 0.0
H606 H 0.91035 0.37955 0.58913 0.0
H607 H 0.85271 0.35988 0.57923 0.0
H608 H 0.86941 0.4557 0.59205 0.0
H609 H 0.92731 0.47608 0.60124 0.0
C610 C 0.04835 0.495 0.75207 0.0
C611 C 0.05045 0.52489 0.75786 0.0
C612 C 0.03266 0.47626 0.71686 0.0
C613 C 0.0189 0.48722 0.68687 0.0
C614 C 0.02021 0.5166 0.69313 0.0
C615 C 0.0362 0.53546 0.72795 0.0
C616 C 0.00477 0.46913 0.64761 0.0
C617 C 0.97243 0.45839 0.63905 0.0
C618 C 0.02322 0.46302 0.61837 0.0
C619 C 0.05805 0.47589 0.62435 0.0
C620 C 0.07896 0.50907 0.62847 0.0
C621 C 0.11177 0.52116 0.63423 0.0
C622 C 0.12403 0.50032 0.63562 0.0
C623 C 0.10346 0.46733 0.63109 0.0
C624 C 0.07059 0.45511 0.62534 0.0
C625 C 0.93584 0.41674 0.46645 0.0
C626 C 0.93026 0.38558 0.4596 0.0
C627 C 0.9518 0.43347 0.50274 0.0
C628 C 0.96283 0.41945 0.53223 0.0
C629 C 0.95912 0.38921 0.5241 0.0
C630 C 0.94263 0.37223 0.48825 0.0
C631 C 0.97645 0.4355 0.57275 0.0
C632 C 0.00869 0.44587 0.5815 0.0
C633 C 0.95792 0.44143 0.60207 0.0
C634 C 0.92323 0.42938 0.5955 0.0
C635 C 0.90182 0.3965 0.58932 0.0
C636 C 0.86908 0.3852 0.58399 0.0
C637 C 0.85741 0.40651 0.58522 0.0
C638 C 0.87849 0.43922 0.59132 0.0
C639 C 0.91127 0.45066 0.59654 0.0
H640 H 0.83204 0.3977 0.58146 0.0
H641 H 0.14946 0.50973 0.64007 0.0
H642 H 0.49419 0.93381 0.6136 0.0
H643 H 0.50061 0.95895 0.68231 0.0
H644 H 0.52776 0.89379 0.73663 0.0
H645 H 0.52229 0.86909 0.66761 0.0
H646 H 0.47306 0.9391 0.75563 0.0
H647 H 0.58324 0.93336 0.8142 0.0
H648 H 0.62905 0.93003 0.78536 0.0
H649 H 0.62559 0.97695 0.67187 0.0
H650 H 0.58004 0.98088 0.70025 0.0
H651 H 0.49998 0.01703 0.94443 0.0
H652 H 0.49904 0.97401 0.9033 0.0
H653 H 0.57949 0.0436 0.83025 0.0
H654 H 0.58177 0.08659 0.87328 0.0
H655 H 0.57814 0.98792 0.82878 0.0
H656 H 0.50278 0.02588 0.80687 0.0
H657 H 0.46038 0.03686 0.83022 0.0
H658 H 0.39881 0.93707 0.85853 0.0
H659 H 0.4411 0.92562 0.83594 0.0
C660 C 0.5015 0.92481 0.64016 0.0
C661 C 0.50815 0.89978 0.63512 0.0
C662 C 0.505 0.93908 0.67946 0.0
C663 C 0.515 0.92846 0.71448 0.0
C664 C 0.52058 0.90272 0.70986 0.0
C665 C 0.51742 0.88865 0.67042 0.0
C666 C 0.52053 0.94526 0.75529 0.0
C667 C 0.4959 0.94941 0.77189 0.0
C668 C 0.55042 0.95893 0.77636 0.0
C669 C 0.578 0.95701 0.75915 0.0
C670 C 0.59232 0.94301 0.78313 0.0
C671 C 0.61823 0.94102 0.76687 0.0
C672 C 0.63014 0.95315 0.72674 0.0
C673 C 0.61625 0.96743 0.70287 0.0
C674 C 0.59037 0.96951 0.71901 0.0
C675 C 0.51877 0.0231 0.92155 0.0
C676 C 0.541 0.05526 0.91199 0.0
C677 C 0.51792 -0.00157 0.89758 0.0
C678 C 0.53856 0.0057 0.86294 0.0
C679 C 0.56317 0.03742 0.85666 0.0
C680 C 0.56439 0.062 0.88109 0.0
C681 C 0.53085 0.98217 0.82863 0.0
C682 C 0.55499 0.97674 0.81321 0.0
C683 C 0.50089 0.96827 0.80764 0.0
C684 C 0.47518 0.97496 0.82022 0.0
C685 C 0.48023 0.00632 0.81823 0.0
C686 C 0.45625 0.01263 0.83135 0.0
C687 C 0.42696 0.98769 0.84597 0.0
C688 C 0.42154 0.95637 0.8473 0.0
C689 C 0.44551 0.94995 0.83437 0.0
H690 H 0.40844 0.99261 0.85618 0.0
H691 H 0.65017 0.95156 0.7142 0.0
H692 H 0.5157 0.58793 0.08113 0.0
H693 H 0.55105 0.59264 0.02236 0.0
H694 H 0.47876 0.49998 0.9767 0.0
H695 H 0.44375 0.49545 0.03483 0.0
H696 H 0.53753 0.50727 0.96915 0.0
H697 H 0.48542 0.56866 0.93746 0.0
H698 H 0.47146 0.61063 0.95062 0.0
H699 H 0.57116 0.68258 0.94796 0.0
H700 H 0.58572 0.64094 0.93534 0.0
H701 H 0.56482 0.50744 0.75253 0.0
H702 H 0.53979 0.51123 0.81764 0.0
H703 H 0.62723 0.59692 0.85196 0.0
H704 H 0.65269 0.59312 0.78715 0.0
H705 H 0.56786 0.59736 0.86911 0.0
H706 H 0.61909 0.53542 0.89344 0.0
H707 H 0.63216 0.49281 0.88045 0.0
H708 H 0.53322 0.42125 0.89644 0.0
H709 H 0.51941 0.46345 0.90872 0.0
C710 C 0.50785 0.5684 0.0589 0.0
C711 C 0.47743 0.54103 0.06293 0.0
C712 C 0.52786 0.57112 0.02539 0.0
C713 C 0.51737 0.54671 0.99512 0.0
C714 C 0.48742 0.51892 -2e-05 0.0
C715 C 0.46755 0.51619 0.03344 0.0
C716 C 0.53635 0.55063 0.95675 0.0
C717 C 0.54404 0.52688 0.9472 0.0
C718 C 0.54541 0.57663 0.92861 0.0
C719 C 0.53667 0.60167 0.93597 0.0
C720 C 0.50437 0.5934 0.94001 0.0
C721 C 0.49635 0.61713 0.94732 0.0
C722 C 0.52041 0.64924 0.95026 0.0
C723 C 0.55255 0.65769 0.94576 0.0
C724 C 0.5607 0.63405 0.93852 0.0
C725 C 0.57848 0.52751 0.77343 0.0
C726 C 0.61075 0.54985 0.76504 0.0
C727 C 0.56423 0.52952 0.81064 0.0
C728 C 0.58193 0.55408 0.83961 0.0
C729 C 0.61336 0.57775 0.82992 0.0
C730 C 0.6278 0.57551 0.79299 0.0
C731 C 0.56825 0.5536 0.88125 0.0
C732 C 0.56166 0.57799 0.89136 0.0
C733 C 0.56005 0.5281 0.90983 0.0
C734 C 0.56818 0.50265 0.90164 0.0
C735 C 0.60004 0.51063 0.89366 0.0
C736 C 0.6076 0.48654 0.88654 0.0
C737 C 0.58354 0.45437 0.88768 0.0
C738 C 0.55183 0.4462 0.89562 0.0
C739 C 0.54413 0.47019 0.90266 0.0
H740 H 0.58948 0.43576 0.88269 0.0
H741 H 0.51416 0.66758 0.95591 0.0
H742 H 0.08934 0.65169 0.01283 0.0
H743 H 0.05691 0.62126 0.0733 0.0
H744 H 0.98123 0.55772 0.98924 0.0
H745 H 0.01446 0.58698 0.92862 0.0
H746 H 0.00311 0.60239 0.11089 0.0
H747 H 0.94963 0.48218 0.01985 0.0
H748 H 0.96302 0.45974 0.95842 0.0
H749 H 0.06304 0.5273 0.97591 0.0
H750 H 0.05028 0.54978 0.03777 0.0
H751 H 0.88992 0.4784 0.2437 0.0
H752 H 0.91891 0.51754 0.18827 0.0
H753 H 0.98109 0.47783 0.17238 0.0
H754 H 0.94986 0.43658 0.22363 0.0
H755 H 0.96711 0.48648 0.10169 0.0
H756 H 0.00398 0.55507 0.22182 0.0
H757 H -0.00039 0.57989 0.28751 0.0
H758 H 0.94894 0.61882 0.22145 0.0
H759 H 0.95264 0.59389 0.15544 0.0
C760 C 0.06549 0.63164 0.00734 0.0
C761 C 0.05452 0.62129 0.96617 0.0
C762 C 0.04695 0.61429 0.04193 0.0
C763 C 0.01699 0.58667 0.03579 0.0
C764 C 0.00468 0.57839 0.99469 0.0
C765 C 0.02356 0.59518 0.9601 0.0
C766 C 0.0004 0.5647 0.07167 0.0
C767 C 0.99512 0.57702 0.10895 0.0
C768 C 0.99098 0.53179 0.06968 0.0
C769 C -0.00107 0.51785 0.03314 0.0
C770 C 0.97448 0.49211 0.01069 0.0
C771 C 0.98196 0.47941 0.97579 0.0
C772 C 0.01385 0.49216 0.96318 0.0
C773 C 0.03834 0.51751 0.98562 0.0
C774 C 0.031 0.53023 0.0206 0.0
C775 C 0.90996 0.47822 0.22856 0.0
C776 C 0.91816 0.45491 0.23942 0.0
C777 C 0.92678 0.50086 0.19714 0.0
C778 C 0.95278 0.50126 0.17659 0.0
C779 C 0.96132 0.47832 0.18789 0.0
C780 C 0.94386 0.45506 0.21828 0.0
C781 C 0.96978 0.52403 0.14143 0.0
C782 C 0.97502 0.51182 0.10399 0.0
C783 C 0.98055 0.55727 0.14417 0.0
C784 C 0.97832 0.57235 0.18378 0.0
C785 C 0.99171 0.56874 0.22136 0.0
C786 C 0.98938 0.58286 0.25864 0.0
C787 C 0.97393 0.60085 0.25867 0.0
C788 C 0.96086 0.60484 0.22139 0.0
C789 C 0.96309 0.59075 0.18403 0.0
H790 H 0.97216 0.61176 0.28757 0.0
H791 H 0.01957 0.48235 0.93609 0.0
H792 H 0.48484 0.23124 0.94771 0.0
H793 H 0.51471 0.2821 0.90955 0.0
H794 H 0.5871 0.25836 0.87643 0.0
H795 H 0.55723 0.20728 0.91399 0.0
H796 H 0.61089 0.32286 0.91048 0.0
H797 H 0.54089 0.25178 0.80298 0.0
H798 H 0.48878 0.21154 0.77338 0.0
H799 H 0.45295 0.2765 0.78888 0.0
H800 H 0.50473 0.31696 0.81916 0.0
H801 H 0.68683 0.45179 0.75703 0.0
H802 H 0.66508 0.40161 0.7979 0.0
H803 H 0.57643 0.40209 0.81506 0.0
H804 H 0.59774 0.45128 0.77399 0.0
H805 H 0.56406 0.3471 0.78624 0.0
H806 H 0.63045 0.41688 0.89682 0.0
H807 H 0.68089 0.45787 0.92934 0.0
H808 H 0.72179 0.39739 0.91198 0.0
H809 H 0.67167 0.35619 0.87878 0.0
C810 C 0.50701 0.23677 0.93211 0.0
C811 C 0.51863 0.21523 0.93371 0.0
C812 C 0.52404 0.2658 0.91041 0.0
C813 C 0.5531 0.2739 0.89036 0.0
C814 C 0.56477 0.25251 0.89187 0.0
C815 C 0.54753 0.22326 0.91302 0.0
C816 C 0.57104 0.30465 0.86744 0.0
C817 C 0.60098 0.32813 0.88292 0.0
C818 C 0.5577 0.31152 0.83208 0.0
C819 C 0.52659 0.28728 0.81369 0.0
C820 C 0.52181 0.25738 0.80041 0.0
C821 C 0.49235 0.23455 0.78345 0.0
C822 C 0.46754 0.24143 0.77935 0.0
C823 C 0.47218 0.27119 0.79211 0.0
C824 C 0.50158 0.29409 0.80914 0.0
C825 C 0.66308 0.44146 0.77063 0.0
C826 C 0.64384 0.45511 0.76253 0.0
C827 C 0.65061 0.41284 0.79379 0.0
C828 C 0.61903 0.39801 0.80944 0.0
C829 C 0.6007 0.41286 0.80306 0.0
C830 C 0.61294 0.44103 0.77979 0.0
C831 C 0.60374 0.36596 0.82981 0.0
C832 C 0.57425 0.342 0.81367 0.0
C833 C 0.61733 0.35893 0.8649 0.0
C834 C 0.64745 0.38363 0.88485 0.0
C835 C 0.65029 0.41245 0.89958 0.0
C836 C 0.6788 0.43569 0.91821 0.0
C837 C 0.70457 0.43028 0.9226 0.0
C838 C 0.70183 0.40157 0.90848 0.0
C839 C 0.67337 0.37826 0.88978 0.0
H840 H 0.72662 0.44831 0.93705 0.0
H841 H 0.44475 0.22373 0.7662 0.0
H842 H 0.22542 0.67888 0.93739 0.0
H843 H 0.25756 0.65864 0.97203 0.0
H844 H 0.17099 0.57151 0.0053 0.0
H845 H 0.13902 0.59108 0.96973 0.0
H846 H 0.22446 0.60055 0.0706 0.0
H847 H 0.19947 0.56638 0.92209 0.0
H848 H 0.20028 0.57979 0.84684 0.0
H849 H 0.30277 0.63864 0.85105 0.0
H850 H 0.30245 0.626 0.92661 0.0
H851 H 0.25274 0.47612 0.10621 0.0
H852 H 0.2309 0.50606 0.07085 0.0
H853 H 0.32505 0.57408 0.02449 0.0
H854 H 0.34717 0.54431 0.05981 0.0
H855 H 0.27608 0.56316 0.96728 0.0
H856 H 0.30479 0.59426 0.10957 0.0
H857 H 0.30781 0.58467 0.18537 0.0
H858 H 0.20529 0.53833 0.19478 0.0
H859 H 0.20165 0.54736 0.11883 0.0
C860 C 0.21337 0.65578 0.95306 0.0
C861 C 0.17992 0.63636 0.95085 0.0
C862 C 0.23165 0.64429 0.9727 0.0
C863 C 0.2165 0.61363 0.99103 0.0
C864 C 0.18299 0.59528 0.99145 0.0
C865 C 0.16483 0.60638 0.97101 0.0
C866 C 0.23519 0.59873 0.00513 0.0
C867 C 0.23575 0.59236 0.04813 0.0
C868 C 0.25064 0.58894 0.97574 0.0
C869 C 0.25091 0.59552 0.93003 0.0
C870 C 0.22215 0.58232 0.90701 0.0
C871 C 0.22252 0.58978 0.86432 0.0
C872 C 0.25155 0.61014 0.8442 0.0
C873 C 0.28029 0.62292 0.86669 0.0
C874 C 0.28004 0.61562 0.90944 0.0
C875 C 0.2687 0.49706 0.08784 0.0
C876 C 0.30177 0.50828 0.08669 0.0
C877 C 0.2562 0.51412 0.06761 0.0
C878 C 0.27657 0.54266 0.04602 0.0
C879 C 0.30904 0.55222 0.0413 0.0
C880 C 0.32159 0.53513 0.06152 0.0
C881 C 0.2645 0.56408 0.03269 0.0
C882 C 0.26524 0.57174 0.9899 0.0
C883 C 0.25092 0.57576 0.06241 0.0
C884 C 0.25293 0.57131 0.10844 0.0
C885 C 0.28287 0.58193 0.12778 0.0
C886 C 0.28471 0.57659 0.17076 0.0
C887 C 0.25675 0.56081 0.19485 0.0
C888 C 0.22692 0.55054 0.17605 0.0
C889 C 0.22496 0.55583 0.13305 0.0
H890 H 0.2582 0.55658 0.22809 0.0
H891 H 0.25179 0.61595 0.81117 0.0
H892 H 0.53876 0.19497 0.13832 0.0
H893 H 0.58477 0.21366 0.18624 0.0
H894 H 0.63138 0.18246 0.09763 0.0
H895 H 0.58594 0.16365 0.05026 0.0
H896 H 0.63505 0.16392 0.1763 0.0
H897 H 0.65259 0.26062 0.10465 0.0
H898 H 0.63792 0.30089 0.08346 0.0
H899 H 0.63167 0.32169 0.21352 0.0
H900 H 0.64592 0.28121 0.23545 0.0
H901 H 0.80492 0.30551 0.23301 0.0
H902 H 0.75453 0.28089 0.19408 0.0
H903 H 0.70923 0.21102 0.29339 0.0
H904 H 0.75993 0.23495 0.33191 0.0
H905 H 0.70102 0.27825 0.21657 0.0
H906 H 0.64494 0.1435 0.25234 0.0
H907 H 0.66159 0.1038 0.26825 0.0
H908 H 0.74942 0.16047 0.20029 0.0
H909 H 0.73312 0.20029 0.18357 0.0
C910 C 0.55897 0.19238 0.12903 0.0
C911 C 0.55876 0.17793 0.09049 0.0
C912 C 0.58511 0.20292 0.15644 0.0
C913 C 0.61138 0.1993 0.14545 0.0
C914 C 0.61122 0.18517 0.10689 0.0
C915 C 0.58526 0.17463 0.07971 0.0
C916 C 0.63967 0.21072 0.17319 0.0
C917 C 0.64938 0.18887 0.18547 0.0
C918 C 0.65836 0.24326 0.18483 0.0
C919 C 0.64994 0.26766 0.17167 0.0
C920 C 0.64784 0.27361 0.12871 0.0
C921 C 0.63965 0.2965 0.11657 0.0
C922 C 0.63377 0.31377 0.14713 0.0
C923 C 0.63616 0.30825 0.18989 0.0
C924 C 0.64431 0.28535 0.20219 0.0
C925 C 0.78441 0.28448 0.24614 0.0
C926 C 0.78636 0.27215 0.28548 0.0
C927 C 0.75556 0.27059 0.22403 0.0
C928 C 0.72806 0.24425 0.24092 0.0
C929 C 0.73021 0.23114 0.27953 0.0
C930 C 0.75923 0.2448 0.30146 0.0
C931 C 0.69701 0.23162 0.21873 0.0
C932 C 0.68657 0.25321 0.20789 0.0
C933 C 0.67799 0.19893 0.20772 0.0
C934 C 0.68796 0.17504 0.21718 0.0
C935 C 0.66777 0.14743 0.24073 0.0
C936 C 0.67715 0.12492 0.24989 0.0
C937 C 0.7066 0.12968 0.23543 0.0
C938 C 0.72668 0.15689 0.21163 0.0
C939 C 0.7174 0.17946 0.20236 0.0
H940 H 0.71383 0.11223 0.24259 0.0
H941 H 0.62743 0.33148 0.13767 0.0
H942 H 0.44896 0.81997 0.38188 0.0
H943 H 0.42023 0.77429 0.33471 0.0
H944 H 0.48467 0.74014 0.36842 0.0
H945 H 0.51325 0.78539 0.41614 0.0
H946 H 0.4305 0.74181 0.26853 0.0
H947 H 0.44035 0.66558 0.40321 0.0
H948 H 0.44969 0.67058 0.48003 0.0
H949 H 0.40773 0.73073 0.48859 0.0
H950 H 0.39762 0.72561 0.412 0.0
H951 H 0.41033 0.59662 0.20303 0.0
H952 H 0.42514 0.64815 0.2339 0.0
H953 H 0.33715 0.6051 0.3054 0.0
H954 H 0.322 0.55264 0.27457 0.0
H955 H 0.38873 0.64236 0.35415 0.0
H956 H 0.34576 0.65531 0.22774 0.0
H957 H 0.33505 0.65208 0.15143 0.0
H958 H 0.43454 0.71827 0.12742 0.0
H959 H 0.44599 0.72162 0.20357 0.0
C960 C 0.45768 0.8033 0.37828 0.0
C961 C 0.48279 0.80569 0.40362 0.0
C962 C 0.44123 0.77726 0.35123 0.0
C963 C 0.44985 0.75353 0.34915 0.0
C964 C 0.47734 0.758 0.37039 0.0
C965 C 0.49364 0.78385 0.39763 0.0
C966 C 0.42779 0.72208 0.33031 0.0
C967 C 0.42118 0.72001 0.28707 0.0
C968 C 0.41432 0.69391 0.35524 0.0
C969 C 0.41838 0.69531 0.40179 0.0
C970 C 0.43277 0.67955 0.42155 0.0
C971 C 0.43828 0.68249 0.46504 0.0
C972 C 0.42937 0.70101 0.48915 0.0
C973 C 0.41467 0.71642 0.46988 0.0
C974 C 0.40902 0.71349 0.42644 0.0
C975 C 0.3939 0.59795 0.22511 0.0
C976 C 0.36506 0.57048 0.23661 0.0
C977 C 0.40233 0.62757 0.24247 0.0
C978 C 0.38205 0.6305 0.27147 0.0
C979 C 0.35301 0.60326 0.28285 0.0
C980 C 0.34444 0.5734 0.2653 0.0
C981 C 0.39292 0.66185 0.29171 0.0
C982 C 0.39738 0.66404 0.3355 0.0
C983 C 0.4035 0.69008 0.26741 0.0
C984 C 0.39675 0.68867 0.22149 0.0
C985 C 0.36541 0.66908 0.20621 0.0
C986 C 0.3592 0.66722 0.16296 0.0
C987 C 0.3841 0.68491 0.13459 0.0
C988 C 0.41526 0.7046 0.14944 0.0
C989 C 0.42162 0.70656 0.19268 0.0
H990 H 0.37924 0.6834 0.10111 0.0
H991 H 0.43384 0.70342 0.52275 0.0
H992 H 0.78858 0.36753 0.38346 0.0
H993 H 0.7667 0.39435 0.42547 0.0
H994 H 0.78387 0.35596 0.53916 0.0
H995 H 0.80578 0.32865 0.49697 0.0
H996 H 0.7279 0.36053 0.54256 0.0
H997 H 0.83809 0.42555 0.51148 0.0
H998 H 0.88683 0.45013 0.46773 0.0
H999 H 0.84959 0.49975 0.39558 0.0
H1000 H 0.80042 0.47512 0.43878 0.0
H1001 H 0.75587 0.5237 0.62704 0.0
H1002 H 0.77857 0.49276 0.5967 0.0
H1003 H 0.68956 0.43256 0.53189 0.0
H1004 H 0.66656 0.46297 0.56229 0.0
H1005 H 0.78841 0.47813 0.51762 0.0
H1006 H 0.67121 0.35537 0.54195 0.0
H1007 H 0.62514 0.33172 0.59071 0.0
H1008 H 0.68228 0.39917 0.68637 0.0
H1009 H 0.72885 0.42284 0.6385 0.0
C1010 C 0.78699 0.36415 0.41734 0.0
C1011 C 0.79923 0.34645 0.43712 0.0
C1012 C 0.77457 0.37952 0.44126 0.0
C1013 C 0.77455 0.37777 0.48534 0.0
C1014 C 0.78405 0.35778 0.50512 0.0
C1015 C 0.79639 0.34213 0.48104 0.0
C1016 C 0.76757 0.3994 0.51013 0.0
C1017 C 0.74114 0.38623 0.53735 0.0
C1018 C 0.78572 0.43305 0.50428 0.0
C1019 C 0.81547 0.44835 0.47841 0.0
C1020 C 0.84024 0.44162 0.48627 0.0
C1021 C 0.86795 0.45555 0.46152 0.0
C1022 C 0.8713 0.47647 0.42882 0.0
C1023 C 0.84696 0.48354 0.42093 0.0
C1024 C 0.81918 0.46963 0.44562 0.0
C1025 C 0.74131 0.50422 0.60576 0.0
C1026 C 0.70929 0.49551 0.59745 0.0
C1027 C 0.75431 0.48656 0.58856 0.0
C1028 C 0.73543 0.45998 0.56297 0.0
C1029 C 0.70422 0.45259 0.55239 0.0
C1030 C 0.69121 0.47014 0.56957 0.0
C1031 C 0.74772 0.43911 0.54829 0.0
C1032 C 0.77531 0.45247 0.52317 0.0
C1033 C 0.73116 0.40579 0.557 0.0
C1034 C 0.70348 0.39103 0.58645 0.0
C1035 C 0.67403 0.365 0.57348 0.0
C1036 C 0.6478 0.35162 0.60096 0.0
C1037 C 0.65076 0.36398 0.64157 0.0
C1038 C 0.68 0.38966 0.65487 0.0
C1039 C 0.70631 0.40308 0.62756 0.0
H1040 H 0.63041 0.35364 0.66274 0.0
H1041 H 0.89275 0.48722 0.40963 0.0
H1042 H 0.38571 0.80265 0.53741 0.0
H1043 H 0.33966 0.77323 0.58347 0.0
H1044 H 0.38555 0.72587 0.64202 0.0
H1045 H 0.43249 0.75582 0.59626 0.0
H1046 H 0.30933 0.68863 0.62341 0.0
H1047 H 0.39761 0.77696 0.69606 0.0
H1048 H 0.44278 0.8325 0.69964 0.0
H1049 H 0.37834 0.8682 0.67762 0.0
H1050 H 0.33286 0.81282 0.67297 0.0
H1051 H 0.20336 0.64692 0.79785 0.0
H1052 H 0.25069 0.66271 0.75433 0.0
H1053 H 0.25073 0.74924 0.71819 0.0
H1054 H 0.20473 0.7345 0.76462 0.0
H1055 H 0.30813 0.76342 0.7298 0.0
H1056 H 0.22023 0.67538 0.65374 0.0
H1057 H 0.17532 0.61994 0.64602 0.0
H1058 H 0.23865 0.58355 0.6724 0.0
H1059 H 0.28381 0.63871 0.68071 0.0
C1060 C 0.38586 0.78544 0.55932 0.0
C1061 C 0.41305 0.78206 0.56383 0.0
C1062 C 0.35946 0.76863 0.58554 0.0
C1063 C 0.35959 0.74788 0.61635 0.0
C1064 C 0.38524 0.74196 0.61836 0.0
C1065 C 0.41198 0.75909 0.59227 0.0
C1066 C 0.33483 0.73608 0.64944 0.0
C1067 C 0.30918 0.70463 0.6473 0.0
C1068 C 0.33472 0.75736 0.67988 0.0
C1069 C 0.36187 0.79072 0.68375 0.0
C1070 C 0.39311 0.79665 0.69159 0.0
C1071 C 0.41877 0.8281 0.69387 0.0
C1072 C 0.41345 0.85386 0.68877 0.0
C1073 C 0.38243 0.84821 0.68151 0.0
C1074 C 0.3567 0.81679 0.67907 0.0
C1075 C 0.21345 0.66925 0.7804 0.0
C1076 C 0.20025 0.68934 0.78391 0.0
C1077 C 0.24041 0.67819 0.75535 0.0
C1078 C 0.25386 0.70675 0.73188 0.0
C1079 C 0.24075 0.72699 0.73578 0.0
C1080 C 0.21441 0.71855 0.76204 0.0
C1081 C 0.2817 0.71582 0.70356 0.0
C1082 C 0.30814 0.74701 0.70647 0.0
C1083 C 0.28244 0.69421 0.67379 0.0
C1084 C 0.25531 0.66113 0.6682 0.0
C1085 C 0.22451 0.65553 0.65806 0.0
C1086 C 0.19903 0.62417 0.65357 0.0
C1087 C 0.20414 0.59827 0.65883 0.0
C1088 C 0.23474 0.60364 0.6684 0.0
C1089 C 0.26028 0.63493 0.67295 0.0
H1090 H 0.18445 0.57401 0.65543 0.0
H1091 H 0.43334 0.87819 0.69055 0.0
loop_
_geom_bond_atom_site_label_1
_geom_bond_atom_site_label_2
_geom_bond_distance
_geom_bond_site_symmetry_2
_ccdc_geom_bond_type
Zn0 O1 2.055 1_556 S
Zn0 O8 2.046 1_556 S
Zn0 N16 2.036 . S
Zn0 O28 2.053 . S
Zn0 O30 2.066 . S
O1 Zn0 2.055 1_554 S
O1 C4 1.259 . S
C2 O30 1.256 . S
C2 O31 1.244 1_556 S
Zn3 O5 2.046 . S
Zn3 O7 2.055 . S
Zn3 N9 2.036 . S
Zn3 O27 2.064 . S
Zn3 O31 2.053 . S
C4 O1 1.259 . S
C4 O5 1.254 . S
O5 Zn3 2.046 . S
O5 C4 1.254 . S
C6 O27 1.259 1_556 S
C6 O28 1.244 . S
O7 Zn3 2.055 . S
O7 C29 1.259 . S
O8 Zn0 2.046 1_554 S
O8 C29 1.254 . S
N9 Zn3 2.036 . S
N9 C10 1.298 . S
N9 N12 1.398 . S
C10 N9 1.298 . S
C10 N13 1.367 . S
C10 C23 1.481 . S
C11 N12 1.299 . S
C11 N13 1.379 . S
N12 N9 1.398 . S
N12 C11 1.299 . S
N13 C10 1.367 . S
N13 C11 1.379 . S
C14 N16 1.298 . S
C14 N18 1.367 . S
C14 C22 1.481 . S
C15 N17 1.299 . S
C15 N18 1.379 . S
N16 Zn0 2.036 . S
N16 C14 1.298 . S
N16 N17 1.398 . S
N17 C15 1.299 . S
N17 N16 1.398 . S
N18 C14 1.367 . S
N18 C15 1.379 . S
H19 C22 0.980 1_554 S
H20 C22 0.981 . S
H21 C22 0.981 . S
C22 C14 1.481 . S
C22 H19 0.980 1_556 S
C22 H20 0.981 . S
C22 H21 0.981 . S
C23 C10 1.481 . S
C23 H24 0.980 . S
C23 H25 0.981 . S
C23 H26 0.981 . S
H24 C23 0.980 . S
H25 C23 0.981 . S
H26 C23 0.981 . S
O27 Zn3 2.064 . S
O27 C6 1.259 1_554 S
O28 Zn0 2.053 . S
O28 C6 1.244 . S
C29 O7 1.259 . S
C29 O8 1.254 . S
O30 Zn0 2.066 . S
O30 C2 1.256 . S
O31 C2 1.244 1_554 S
O31 Zn3 2.053 . S
Zn32 O33 2.055 . S
Zn32 O40 2.046 . S
Zn32 N48 2.036 . S
Zn32 O60 2.053 . S
Zn32 O62 2.066 . S
O33 Zn32 2.055 . S
O33 C36 1.259 . S
C34 O62 1.256 . S
C34 O63 1.244 . S
Zn35 O37 2.046 . S
Zn35 O39 2.055 . S
Zn35 N41 2.036 . S
Zn35 O59 2.066 . S
Zn35 O63 2.053 . S
C36 O33 1.259 . S
C36 O37 1.254 . S
O37 Zn35 2.046 . S
O37 C36 1.254 . S
C38 O59 1.256 . S
C38 O60 1.244 . S
O39 Zn35 2.055 . S
O39 C61 1.259 . S
O40 Zn32 2.046 . S
O40 C61 1.254 . S
N41 Zn35 2.036 . S
N41 C42 1.298 . S
N41 N44 1.398 . S
C42 N41 1.298 . S
C42 N45 1.367 . S
C42 C55 1.481 . S
C43 N44 1.299 . S
C43 N45 1.379 . S
N44 N41 1.398 . S
N44 C43 1.299 . S
N45 C42 1.367 . S
N45 C43 1.379 . S
C46 N48 1.298 . S
C46 N50 1.367 . S
C46 C54 1.481 . S
C47 N49 1.299 . S
C47 N50 1.379 . S
N48 Zn32 2.036 . S
N48 C46 1.298 . S
N48 N49 1.398 . S
N49 C47 1.299 . S
N49 N48 1.398 . S
N50 C46 1.367 . S
N50 C47 1.379 . S
H51 C54 0.980 . S
H52 C54 0.981 . S
H53 C54 0.981 . S
C54 C46 1.481 . S
C54 H51 0.980 . S
C54 H52 0.981 . S
C54 H53 0.981 . S
C55 C42 1.481 . S
C55 H56 0.980 . S
C55 H57 0.981 . S
C55 H58 0.981 . S
H56 C55 0.980 . S
H57 C55 0.981 . S
H58 C55 0.981 . S
O59 Zn35 2.066 . S
O59 C38 1.256 . S
O60 Zn32 2.053 . S
O60 C38 1.244 . S
C61 O39 1.259 . S
C61 O40 1.254 . S
O62 Zn32 2.066 . S
O62 C34 1.256 . S
O63 C34 1.244 . S
O63 Zn35 2.053 . S
Zn64 O65 2.055 . S
Zn64 O72 2.046 . S
Zn64 N80 2.036 . S
Zn64 O92 2.053 . S
Zn64 O94 2.066 . S
O65 Zn64 2.055 . S
O65 C68 1.259 . S
C66 O94 1.256 . S
C66 O95 1.244 . S
Zn67 O69 2.046 . S
Zn67 O71 2.055 . S
Zn67 N73 2.036 . S
Zn67 O91 2.066 . S
Zn67 O95 2.053 . S
C68 O65 1.259 . S
C68 O69 1.254 . S
O69 Zn67 2.046 . S
O69 C68 1.254 . S
C70 O91 1.256 . S
C70 O92 1.244 . S
O71 Zn67 2.055 . S
O71 C93 1.259 . S
O72 Zn64 2.046 . S
O72 C93 1.254 . S
N73 Zn67 2.036 . S
N73 C74 1.298 . S
N73 N76 1.398 . S
C74 N73 1.298 . S
C74 N77 1.367 . S
C74 C87 1.481 . S
C75 N76 1.299 . S
C75 N77 1.379 . S
N76 N73 1.398 . S
N76 C75 1.299 . S
N77 C74 1.367 . S
N77 C75 1.379 . S
C78 N80 1.298 . S
C78 N82 1.367 . S
C78 C86 1.481 . S
C79 N81 1.299 . S
C79 N82 1.379 . S
N80 Zn64 2.036 . S
N80 C78 1.298 . S
N80 N81 1.398 . S
N81 C79 1.299 . S
N81 N80 1.398 . S
N82 C78 1.367 . S
N82 C79 1.379 . S
H83 C86 0.980 . S
H84 C86 0.981 . S
H85 C86 0.981 . S
C86 C78 1.481 . S
C86 H83 0.980 . S
C86 H84 0.981 . S
C86 H85 0.981 . S
C87 C74 1.481 . S
C87 H88 0.980 . S
C87 H89 0.981 . S
C87 H90 0.981 . S
H88 C87 0.980 . S
H89 C87 0.981 . S
H90 C87 0.981 . S
O91 Zn67 2.066 . S
O91 C70 1.256 . S
O92 Zn64 2.053 . S
O92 C70 1.244 . S
C93 O71 1.259 . S
C93 O72 1.254 . S
O94 Zn64 2.066 . S
O94 C66 1.256 . S
O95 C66 1.244 . S
O95 Zn67 2.053 . S
Zn96 O97 2.055 . S
Zn96 O104 2.046 . S
Zn96 N112 2.036 . S
Zn96 O124 2.053 . S
Zn96 O126 2.066 . S
O97 Zn96 2.055 . S
O97 C100 1.259 . S
C98 O126 1.256 . S
C98 O127 1.244 . S
Zn99 O101 2.046 . S
Zn99 O103 2.055 . S
Zn99 N105 2.036 . S
Zn99 O123 2.066 . S
Zn99 O127 2.053 . S
C100 O97 1.259 . S
C100 O101 1.254 . S
O101 Zn99 2.046 . S
O101 C100 1.254 . S
C102 O123 1.256 . S
C102 O124 1.244 . S
O103 Zn99 2.055 . S
O103 C125 1.259 . S
O104 Zn96 2.046 . S
O104 C125 1.254 . S
N105 Zn99 2.036 . S
N105 C106 1.298 . S
N105 N108 1.398 . S
C106 N105 1.298 . S
C106 N109 1.367 . S
C106 C119 1.481 . S
C107 N108 1.299 . S
C107 N109 1.379 . S
N108 N105 1.398 . S
N108 C107 1.299 . S
N109 C106 1.367 . S
N109 C107 1.379 . S
C110 N112 1.298 . S
C110 N114 1.367 . S
C110 C118 1.481 . S
C111 N113 1.299 . S
C111 N114 1.379 . S
N112 Zn96 2.036 . S
N112 C110 1.298 . S
N112 N113 1.398 . S
N113 C111 1.299 . S
N113 N112 1.398 . S
N114 C110 1.367 . S
N114 C111 1.379 . S
H115 C118 0.980 . S
H116 C118 0.981 . S
H117 C118 0.981 . S
C118 C110 1.481 . S
C118 H115 0.980 . S
C118 H116 0.981 . S
C118 H117 0.981 . S
C119 C106 1.481 . S
C119 H120 0.980 . S
C119 H121 0.981 . S
C119 H122 0.981 . S
H120 C119 0.980 . S
H121 C119 0.981 . S
H122 C119 0.981 . S
O123 Zn99 2.066 . S
O123 C102 1.256 . S
O124 Zn96 2.053 . S
O124 C102 1.244 . S
C125 O103 1.259 . S
C125 O104 1.254 . S
O126 Zn96 2.066 . S
O126 C98 1.256 . S
O127 C98 1.244 . S
O127 Zn99 2.053 . S
Zn128 O129 2.055 . S
Zn128 O136 2.046 . S
Zn128 N144 2.036 . S
Zn128 O156 2.053 . S
Zn128 O158 2.066 . S
O129 Zn128 2.055 . S
O129 C132 1.259 . S
C130 O158 1.256 . S
C130 O159 1.244 . S
Zn131 O133 2.046 . S
Zn131 O135 2.055 . S
Zn131 N137 2.036 . S
Zn131 O155 2.066 . S
Zn131 O159 2.053 . S
C132 O129 1.259 . S
C132 O133 1.254 . S
O133 Zn131 2.046 . S
O133 C132 1.254 . S
C134 O155 1.256 . S
C134 O156 1.244 . S
O135 Zn131 2.055 . S
O135 C157 1.259 . S
O136 Zn128 2.046 . S
O136 C157 1.254 . S
N137 Zn131 2.036 . S
N137 C138 1.298 . S
N137 N140 1.398 . S
C138 N137 1.298 . S
C138 N141 1.367 . S
C138 C151 1.481 . S
C139 N140 1.299 . S
C139 N141 1.379 . S
N140 N137 1.398 . S
N140 C139 1.299 . S
N141 C138 1.367 . S
N141 C139 1.379 . S
C142 N144 1.298 . S
C142 N146 1.367 . S
C142 C150 1.481 . S
C143 N145 1.299 . S
C143 N146 1.379 . S
N144 Zn128 2.036 . S
N144 C142 1.298 . S
N144 N145 1.398 . S
N145 C143 1.299 . S
N145 N144 1.398 . S
N146 C142 1.367 . S
N146 C143 1.379 . S
H147 C150 0.980 . S
H148 C150 0.981 . S
H149 C150 0.981 . S
C150 C142 1.481 . S
C150 H147 0.980 . S
C150 H148 0.981 . S
C150 H149 0.981 . S
C151 C138 1.481 . S
C151 H152 0.980 . S
C151 H153 0.981 . S
C151 H154 0.981 . S
H152 C151 0.980 . S
H153 C151 0.981 . S
H154 C151 0.981 . S
O155 Zn131 2.066 . S
O155 C134 1.256 . S
O156 Zn128 2.053 . S
O156 C134 1.244 . S
C157 O135 1.259 . S
C157 O136 1.254 . S
O158 Zn128 2.066 . S
O158 C130 1.256 . S
O159 C130 1.244 . S
O159 Zn131 2.053 . S
Zn160 O161 2.055 . S
Zn160 O168 2.046 . S
Zn160 N176 2.036 . S
Zn160 O188 2.053 . S
Zn160 O190 2.066 . S
O161 Zn160 2.055 . S
O161 C164 1.259 . S
C162 O190 1.256 . S
C162 O191 1.244 . S
Zn163 O165 2.046 . S
Zn163 O167 2.055 . S
Zn163 N169 2.036 . S
Zn163 O187 2.066 . S
Zn163 O191 2.053 . S
C164 O161 1.259 . S
C164 O165 1.254 . S
O165 Zn163 2.046 . S
O165 C164 1.254 . S
C166 O187 1.256 . S
C166 O188 1.244 . S
O167 Zn163 2.055 . S
O167 C189 1.259 . S
O168 Zn160 2.046 . S
O168 C189 1.254 . S
N169 Zn163 2.036 . S
N169 C170 1.298 . S
N169 N172 1.398 . S
C170 N169 1.298 . S
C170 N173 1.367 . S
C170 C183 1.481 . S
C171 N172 1.299 . S
C171 N173 1.379 . S
N172 N169 1.398 . S
N172 C171 1.299 . S
N173 C170 1.367 . S
N173 C171 1.379 . S
C174 N176 1.298 . S
C174 N178 1.367 . S
C174 C182 1.481 . S
C175 N177 1.299 . S
C175 N178 1.379 . S
N176 Zn160 2.036 . S
N176 C174 1.298 . S
N176 N177 1.398 . S
N177 C175 1.299 . S
N177 N176 1.398 . S
N178 C174 1.367 . S
N178 C175 1.379 . S
H179 C182 0.980 . S
H180 C182 0.981 . S
H181 C182 0.981 . S
C182 C174 1.481 . S
C182 H179 0.980 . S
C182 H180 0.981 . S
C182 H181 0.981 . S
C183 C170 1.481 . S
C183 H184 0.980 . S
C183 H185 0.981 . S
C183 H186 0.981 . S
H184 C183 0.980 . S
H185 C183 0.981 . S
H186 C183 0.981 . S
O187 Zn163 2.066 . S
O187 C166 1.256 . S
O188 Zn160 2.053 . S
O188 C166 1.244 . S
C189 O167 1.259 . S
C189 O168 1.254 . S
O190 Zn160 2.066 . S
O190 C162 1.256 . S
O191 C162 1.244 . S
O191 Zn163 2.053 . S
H192 C210 0.951 . S
H193 C212 0.951 . S
H194 C214 0.950 . S
H195 C215 0.950 . S
H196 C217 0.950 . S
H197 C220 0.950 . S
H198 C221 0.950 . S
H199 C223 0.950 . S
H200 C224 0.950 . S
H201 C225 0.951 . S
H202 C227 0.951 . S
H203 C229 0.950 1_554 S
H204 C230 0.950 1_554 S
H205 C232 0.950 1_554 S
H206 C235 0.950 . S
H207 C236 0.950 . S
H208 C238 0.950 . S
H209 C239 0.950 . S
C210 H192 0.951 . S
C210 C211 1.366 1_554 S
C210 C212 1.388 . S
C211 C210 1.366 1_556 S
C211 C215 1.385 . S
C212 H193 0.951 . S
C212 C210 1.388 . S
C212 C213 1.378 1_554 S
C213 C212 1.378 1_556 S
C213 C214 1.431 . S
C213 C216 1.472 1_545 S
C214 H194 0.950 . S
C214 C213 1.431 . S
C214 C215 1.374 . S
C215 H195 0.950 . S
C215 C211 1.385 . S
C215 C214 1.374 . S
C216 C213 1.472 1_565 S
C216 C217 1.373 . S
C216 C218 1.389 . S
C217 H196 0.950 . S
C217 C216 1.373 . S
C217 C233 1.377 . S
C218 C216 1.389 . S
C218 C219 1.524 1_556 S
C218 C232 1.377 . S
C219 C218 1.524 1_554 S
C219 C220 1.397 1_554 S
C219 C224 1.363 . S
C220 H197 0.950 . S
C220 C219 1.397 1_556 S
C220 C221 1.334 1_556 S
C221 H198 0.950 . S
C221 C220 1.334 1_554 S
C221 C222 1.287 . S
C222 C221 1.287 . S
C222 C223 1.524 . S
C222 H241 0.913 . S
C223 H199 0.950 . S
C223 C222 1.524 . S
C223 C224 1.415 . S
C224 H200 0.950 . S
C224 C219 1.363 . S
C224 C223 1.415 . S
C225 H201 0.951 . S
C225 C226 1.366 . S
C225 C227 1.388 . S
C226 C225 1.366 . S
C226 C230 1.385 . S
C227 H202 0.951 . S
C227 C225 1.388 . S
C227 C228 1.366 . S
C228 C227 1.366 . S
C228 C229 1.414 . S
C228 C231 1.499 . S
C229 H203 0.950 1_556 S
C229 C228 1.414 . S
C229 C230 1.374 . S
C230 H204 0.950 1_556 S
C230 C226 1.385 . S
C230 C229 1.374 . S
C231 C228 1.499 . S
C231 C232 1.373 . S
C231 C233 1.389 . S
C232 H205 0.950 1_556 S
C232 C218 1.377 . S
C232 C231 1.373 . S
C233 C217 1.377 . S
C233 C231 1.389 . S
C233 C234 1.524 . S
C234 C233 1.524 . S
C234 C235 1.397 . S
C234 C239 1.363 . S
C235 H206 0.950 . S
C235 C234 1.397 . S
C235 C236 1.334 . S
C236 H207 0.950 . S
C236 C235 1.334 . S
C236 C237 1.287 . S
C237 C236 1.287 . S
C237 C238 1.524 . S
C237 H240 0.999 . S
C238 H208 0.950 . S
C238 C237 1.524 . S
C238 C239 1.415 . S
C239 H209 0.950 . S
C239 C234 1.363 . S
C239 C238 1.415 . S
H240 C237 0.999 . S
H241 C222 0.913 . S
H242 C260 0.951 . S
H243 C262 0.951 . S
H244 C264 0.950 . S
H245 C265 0.950 . S
H246 C267 0.950 . S
H247 C270 0.950 . S
H248 C271 0.950 1_556 S
H249 C273 0.947 1_556 S
H250 C274 0.950 . S
H251 C275 0.951 . S
H252 C277 0.951 . S
H253 C279 0.950 . S
H254 C280 0.950 . S
H255 C282 0.950 . S
H256 C285 0.950 . S
H257 C286 0.950 . S
H258 C288 0.950 . S
H259 C289 0.950 . S
C260 H242 0.951 . S
C260 C261 1.366 . S
C260 C262 1.388 . S
C261 C260 1.366 . S
C261 C265 1.385 . S
C262 H243 0.951 . S
C262 C260 1.388 . S
C262 C263 1.366 . S
C263 C262 1.366 . S
C263 C264 1.414 . S
C263 C266 1.499 . S
C264 H244 0.950 . S
C264 C263 1.414 . S
C264 C265 1.374 . S
C265 H245 0.950 . S
C265 C261 1.385 . S
C265 C264 1.374 . S
C266 C263 1.499 . S
C266 C267 1.373 . S
C266 C268 1.389 . S
C267 H246 0.950 . S
C267 C266 1.373 . S
C267 C283 1.377 . S
C268 C266 1.389 . S
C268 C269 1.524 . S
C268 C282 1.377 . S
C269 C268 1.524 . S
C269 C270 1.397 . S
C269 C274 1.363 . S
C270 H247 0.950 . S
C270 C269 1.397 . S
C270 C271 1.334 . S
C271 H248 0.950 1_554 S
C271 C270 1.334 . S
C271 C272 1.287 1_554 S
C272 C271 1.287 1_556 S
C272 C273 1.522 1_556 S
C272 H291 0.913 . S
C273 H249 0.947 1_554 S
C273 C272 1.522 1_554 S
C273 C274 1.420 . S
C274 H250 0.950 . S
C274 C269 1.363 . S
C274 C273 1.420 . S
C275 H251 0.951 . S
C275 C276 1.366 . S
C275 C277 1.388 . S
C276 C275 1.366 . S
C276 C280 1.385 . S
C277 H252 0.951 . S
C277 C275 1.388 . S
C277 C278 1.366 . S
C278 C277 1.366 . S
C278 C279 1.414 . S
C278 C281 1.499 . S
C279 H253 0.950 . S
C279 C278 1.414 . S
C279 C280 1.374 . S
C280 H254 0.950 . S
C280 C276 1.385 . S
C280 C279 1.374 . S
C281 C278 1.499 . S
C281 C282 1.373 . S
C281 C283 1.389 . S
C282 H255 0.950 . S
C282 C268 1.377 . S
C282 C281 1.373 . S
C283 C267 1.377 . S
C283 C281 1.389 . S
C283 C284 1.524 . S
C284 C283 1.524 . S
C284 C285 1.397 . S
C284 C289 1.363 . S
C285 H256 0.950 . S
C285 C284 1.397 . S
C285 C286 1.334 . S
C286 H257 0.950 . S
C286 C285 1.334 . S
C286 C287 1.287 . S
C287 C286 1.287 . S
C287 C288 1.524 . S
C287 H290 0.999 . S
C288 H258 0.950 . S
C288 C287 1.524 . S
C288 C289 1.415 . S
C289 H259 0.950 . S
C289 C284 1.363 . S
C289 C288 1.415 . S
H290 C287 0.999 . S
H291 C272 0.913 . S
H292 C310 0.951 . S
H293 C312 0.951 . S
H294 C314 0.950 1_455 S
H295 C315 0.950 . S
H296 C317 0.950 . S
H297 C320 0.950 . S
H298 C321 0.950 . S
H299 C323 0.950 . S
H300 C324 0.950 . S
H301 C325 0.951 . S
H302 C327 0.951 . S
H303 C329 0.950 . S
H304 C330 0.950 . S
H305 C332 0.950 . S
H306 C335 0.950 . S
H307 C336 0.950 . S
H308 C338 0.950 . S
H309 C339 0.950 . S
C310 H292 0.951 . S
C310 C311 1.366 . S
C310 C312 1.388 . S
C311 C310 1.366 . S
C311 C315 1.385 . S
C312 H293 0.951 . S
C312 C310 1.388 . S
C312 C313 1.374 . S
C313 C312 1.374 . S
C313 C314 1.443 . S
C313 C316 1.462 1_655 S
C314 H294 0.950 1_655 S
C314 C313 1.443 . S
C314 C315 1.374 . S
C315 H295 0.950 . S
C315 C311 1.385 . S
C315 C314 1.374 . S
C316 C313 1.462 1_455 S
C316 C317 1.373 . S
C316 C318 1.389 . S
C317 H296 0.950 . S
C317 C316 1.373 . S
C317 C333 1.377 . S
C318 C316 1.389 . S
C318 C319 1.524 . S
C318 C332 1.377 . S
C319 C318 1.524 . S
C319 C320 1.397 . S
C319 C324 1.363 . S
C320 H297 0.950 . S
C320 C319 1.397 . S
C320 C321 1.334 . S
C321 H298 0.950 . S
C321 C320 1.334 . S
C321 C322 1.287 . S
C322 C321 1.287 . S
C322 C323 1.524 . S
C322 H341 0.913 . S
C323 H299 0.950 . S
C323 C322 1.524 . S
C323 C324 1.415 . S
C324 H300 0.950 . S
C324 C319 1.363 . S
C324 C323 1.415 . S
C325 H301 0.951 . S
C325 C326 1.366 . S
C325 C327 1.388 . S
C326 C325 1.366 . S
C326 C330 1.385 . S
C327 H302 0.951 . S
C327 C325 1.388 . S
C327 C328 1.366 . S
C328 C327 1.366 . S
C328 C329 1.414 . S
C328 C331 1.499 . S
C329 H303 0.950 . S
C329 C328 1.414 . S
C329 C330 1.374 . S
C330 H304 0.950 . S
C330 C326 1.385 . S
C330 C329 1.374 . S
C331 C328 1.499 . S
C331 C332 1.373 . S
C331 C333 1.389 . S
C332 H305 0.950 . S
C332 C318 1.377 . S
C332 C331 1.373 . S
C333 C317 1.377 . S
C333 C331 1.389 . S
C333 C334 1.524 . S
C334 C333 1.524 . S
C334 C335 1.397 . S
C334 C339 1.363 . S
C335 H306 0.950 . S
C335 C334 1.397 . S
C335 C336 1.334 . S
C336 H307 0.950 . S
C336 C335 1.334 . S
C336 C337 1.287 . S
C337 C336 1.287 . S
C337 C338 1.524 . S
C337 H340 0.999 . S
C338 H308 0.950 . S
C338 C337 1.524 . S
C338 C339 1.415 . S
C339 H309 0.950 . S
C339 C334 1.363 . S
C339 C338 1.415 . S
H340 C337 0.999 . S
H341 C322 0.913 . S
H342 C360 0.951 . S
H343 C362 0.951 . S
H344 C364 0.950 . S
H345 C365 0.950 . S
H346 C367 0.950 . S
H347 C370 0.950 . S
H348 C371 0.950 . S
H349 C373 0.950 . S
H350 C374 0.950 . S
H351 C375 0.951 . S
H352 C377 0.951 . S
H353 C379 0.950 1_545 S
H354 C380 0.950 . S
H355 C382 0.950 . S
H356 C385 0.950 . S
H357 C386 0.950 . S
H358 C388 0.950 . S
H359 C389 0.950 . S
C360 H342 0.951 . S
C360 C361 1.366 . S
C360 C362 1.388 . S
C361 C360 1.366 . S
C361 C365 1.385 . S
C362 H343 0.951 . S
C362 C360 1.388 . S
C362 C363 1.366 . S
C363 C362 1.366 . S
C363 C364 1.414 . S
C363 C366 1.499 . S
C364 H344 0.950 . S
C364 C363 1.414 . S
C364 C365 1.374 . S
C365 H345 0.950 . S
C365 C361 1.385 . S
C365 C364 1.374 . S
C366 C363 1.499 . S
C366 C367 1.373 . S
C366 C368 1.389 . S
C367 H346 0.950 . S
C367 C366 1.373 . S
C367 C383 1.377 . S
C368 C366 1.389 . S
C368 C369 1.524 . S
C368 C382 1.377 . S
C369 C368 1.524 . S
C369 C370 1.397 . S
C369 C374 1.363 . S
C370 H347 0.950 . S
C370 C369 1.397 . S
C370 C371 1.334 . S
C371 H348 0.950 . S
C371 C370 1.334 . S
C371 C372 1.287 . S
C372 C371 1.287 . S
C372 C373 1.524 . S
C372 H391 0.913 . S
C373 H349 0.950 . S
C373 C372 1.524 . S
C373 C374 1.415 . S
C374 H350 0.950 . S
C374 C369 1.363 . S
C374 C373 1.415 . S
C375 H351 0.951 . S
C375 C376 1.366 . S
C375 C377 1.388 . S
C376 C375 1.366 . S
C376 C380 1.385 . S
C377 H352 0.951 . S
C377 C375 1.388 . S
C377 C378 1.366 . S
C378 C377 1.366 . S
C378 C379 1.414 . S
C378 C381 1.499 1_565 S
C379 H353 0.950 1_565 S
C379 C378 1.414 . S
C379 C380 1.374 . S
C380 H354 0.950 . S
C380 C376 1.385 . S
C380 C379 1.374 . S
C381 C378 1.499 1_545 S
C381 C382 1.373 . S
C381 C383 1.389 . S
C382 H355 0.950 . S
C382 C368 1.377 . S
C382 C381 1.373 . S
C383 C367 1.377 . S
C383 C381 1.389 . S
C383 C384 1.524 . S
C384 C383 1.524 . S
C384 C385 1.397 . S
C384 C389 1.363 . S
C385 H356 0.950 . S
C385 C384 1.397 . S
C385 C386 1.334 1_545 S
C386 H357 0.950 . S
C386 C385 1.334 1_565 S
C386 C387 1.287 . S
C387 C386 1.287 . S
C387 C388 1.524 1_565 S
C387 H390 0.999 . S
C388 H358 0.950 . S
C388 C387 1.524 1_545 S
C388 C389 1.415 . S
C389 H359 0.950 . S
C389 C384 1.363 . S
C389 C388 1.415 . S
H390 C387 0.999 . S
H391 C372 0.913 . S
H392 C410 0.951 . S
H393 C412 0.951 . S
H394 C414 0.950 . S
H395 C415 0.950 . S
H396 C417 0.950 . S
H397 C420 0.950 . S
H398 C421 0.950 . S
H399 C423 0.950 . S
H400 C424 0.950 . S
H401 C425 0.951 . S
H402 C427 0.951 . S
H403 C429 0.950 . S
H404 C430 0.950 . S
H405 C432 0.950 . S
H406 C435 0.950 . S
H407 C436 0.950 . S
H408 C438 0.950 . S
H409 C439 0.950 . S
C410 H392 0.951 . S
C410 C411 1.366 . S
C410 C412 1.388 . S
C411 C410 1.366 . S
C411 C415 1.385 . S
C412 H393 0.951 . S
C412 C410 1.388 . S
C412 C413 1.366 . S
C413 C412 1.366 . S
C413 C414 1.414 . S
C413 C416 1.499 . S
C414 H394 0.950 . S
C414 C413 1.414 . S
C414 C415 1.374 . S
C415 H395 0.950 . S
C415 C411 1.385 . S
C415 C414 1.374 . S
C416 C413 1.499 . S
C416 C417 1.373 . S
C416 C418 1.389 . S
C417 H396 0.950 . S
C417 C416 1.373 . S
C417 C433 1.377 . S
C418 C416 1.389 . S
C418 C419 1.524 . S
C418 C432 1.377 . S
C419 C418 1.524 . S
C419 C420 1.397 . S
C419 C424 1.363 . S
C420 H397 0.950 . S
C420 C419 1.397 . S
C420 C421 1.334 . S
C421 H398 0.950 . S
C421 C420 1.334 . S
C421 C422 1.287 . S
C422 C421 1.287 . S
C422 C423 1.524 . S
C422 H441 0.913 . S
C423 H399 0.950 . S
C423 C422 1.524 . S
C423 C424 1.415 . S
C424 H400 0.950 . S
C424 C419 1.363 . S
C424 C423 1.415 . S
C425 H401 0.951 . S
C425 C426 1.366 . S
C425 C427 1.388 . S
C426 C425 1.366 . S
C426 C430 1.385 . S
C427 H402 0.951 . S
C427 C425 1.388 . S
C427 C428 1.366 . S
C428 C427 1.366 . S
C428 C429 1.414 . S
C428 C431 1.499 . S
C429 H403 0.950 . S
C429 C428 1.414 . S
C429 C430 1.374 . S
C430 H404 0.950 . S
C430 C426 1.385 . S
C430 C429 1.374 . S
C431 C428 1.499 . S
C431 C432 1.373 . S
C431 C433 1.389 . S
C432 H405 0.950 . S
C432 C418 1.377 . S
C432 C431 1.373 . S
C433 C417 1.377 . S
C433 C431 1.389 . S
C433 C434 1.524 . S
C434 C433 1.524 . S
C434 C435 1.397 . S
C434 C439 1.363 . S
C435 H406 0.950 . S
C435 C434 1.397 . S
C435 C436 1.334 . S
C436 H407 0.950 . S
C436 C435 1.334 . S
C436 C437 1.287 . S
C437 C436 1.287 . S
C437 C438 1.524 . S
C437 H440 0.999 . S
C438 H408 0.950 . S
C438 C437 1.524 . S
C438 C439 1.415 . S
C439 H409 0.950 . S
C439 C434 1.363 . S
C439 C438 1.415 . S
H440 C437 0.999 . S
H441 C422 0.913 . S
H442 C460 0.951 . S
H443 C462 0.951 1_655 S
H444 C464 0.950 . S
H445 C465 0.950 . S
H446 C467 0.950 . S
H447 C470 0.950 . S
H448 C471 0.950 1_455 S
H449 C473 0.950 . S
H450 C474 0.950 . S
H451 C475 0.951 . S
H452 C477 0.951 . S
H453 C479 0.950 . S
H454 C480 0.950 . S
H455 C482 0.950 . S
H456 C485 0.950 . S
H457 C486 0.950 . S
H458 C488 0.950 . S
H459 C489 0.950 . S
C460 H442 0.951 . S
C460 C461 1.366 . S
C460 C462 1.388 . S
C461 C460 1.366 . S
C461 C465 1.385 . S
C462 H443 0.951 1_455 S
C462 C460 1.388 . S
C462 C463 1.366 . S
C463 C462 1.366 . S
C463 C464 1.414 . S
C463 C466 1.499 1_455 S
C464 H444 0.950 . S
C464 C463 1.414 . S
C464 C465 1.374 . S
C465 H445 0.950 . S
C465 C461 1.385 . S
C465 C464 1.374 . S
C466 C463 1.499 1_655 S
C466 C467 1.373 . S
C466 C468 1.389 . S
C467 H446 0.950 . S
C467 C466 1.373 . S
C467 C483 1.377 . S
C468 C466 1.389 . S
C468 C469 1.524 . S
C468 C482 1.377 . S
C469 C468 1.524 . S
C469 C470 1.397 . S
C469 C474 1.363 . S
C470 H447 0.950 . S
C470 C469 1.397 . S
C470 C471 1.334 . S
C471 H448 0.950 1_655 S
C471 C470 1.334 . S
C471 C472 1.287 . S
C472 C471 1.287 . S
C472 C473 1.524 . S
C472 H491 0.913 . S
C473 H449 0.950 . S
C473 C472 1.524 . S
C473 C474 1.415 . S
C474 H450 0.950 . S
C474 C469 1.363 . S
C474 C473 1.415 . S
C475 H451 0.951 . S
C475 C476 1.366 . S
C475 C477 1.388 . S
C476 C475 1.366 . S
C476 C480 1.385 . S
C477 H452 0.951 . S
C477 C475 1.388 . S
C477 C478 1.366 . S
C478 C477 1.366 . S
C478 C479 1.414 . S
C478 C481 1.499 . S
C479 H453 0.950 . S
C479 C478 1.414 . S
C479 C480 1.374 . S
C480 H454 0.950 . S
C480 C476 1.385 . S
C480 C479 1.374 . S
C481 C478 1.499 . S
C481 C482 1.373 . S
C481 C483 1.389 . S
C482 H455 0.950 . S
C482 C468 1.377 . S
C482 C481 1.373 . S
C483 C467 1.377 . S
C483 C481 1.389 . S
C483 C484 1.524 . S
C484 C483 1.524 . S
C484 C485 1.397 . S
C484 C489 1.363 . S
C485 H456 0.950 . S
C485 C484 1.397 . S
C485 C486 1.334 . S
C486 H457 0.950 . S
C486 C485 1.334 . S
C486 C487 1.287 . S
C487 C486 1.287 . S
C487 C488 1.524 . S
C487 H490 0.999 . S
C488 H458 0.950 . S
C488 C487 1.524 . S
C488 C489 1.415 . S
C489 H459 0.950 . S
C489 C484 1.363 . S
C489 C488 1.415 . S
H490 C487 0.999 . S
H491 C472 0.913 . S
H492 C510 0.951 . S
H493 C512 0.951 . S
H494 C514 0.950 . S
H495 C515 0.950 . S
H496 C517 0.950 . S
H497 C520 0.950 . S
H498 C521 0.950 . S
H499 C523 0.950 . S
H500 C524 0.950 . S
H501 C525 0.951 . S
H502 C527 0.951 . S
H503 C529 0.950 1_545 S
H504 C530 0.950 . S
H505 C532 0.950 . S
H506 C535 0.950 . S
H507 C536 0.950 . S
H508 C538 0.950 . S
H509 C539 0.950 . S
C510 H492 0.951 . S
C510 C511 1.366 . S
C510 C512 1.388 . S
C511 C510 1.366 . S
C511 C515 1.385 . S
C512 H493 0.951 . S
C512 C510 1.388 . S
C512 C513 1.366 . S
C513 C512 1.366 . S
C513 C514 1.414 . S
C513 C516 1.499 . S
C514 H494 0.950 . S
C514 C513 1.414 . S
C514 C515 1.374 . S
C515 H495 0.950 . S
C515 C511 1.385 . S
C515 C514 1.374 . S
C516 C513 1.499 . S
C516 C517 1.373 1_545 S
C516 C518 1.389 . S
C517 H496 0.950 . S
C517 C516 1.373 1_565 S
C517 C533 1.377 . S
C518 C516 1.389 . S
C518 C519 1.524 . S
C518 C532 1.377 . S
C519 C518 1.524 . S
C519 C520 1.397 . S
C519 C524 1.363 . S
C520 H497 0.950 . S
C520 C519 1.397 . S
C520 C521 1.334 . S
C521 H498 0.950 . S
C521 C520 1.334 . S
C521 C522 1.287 . S
C522 C521 1.287 . S
C522 C523 1.524 . S
C522 H541 0.913 . S
C523 H499 0.950 . S
C523 C522 1.524 . S
C523 C524 1.415 . S
C524 H500 0.950 . S
C524 C519 1.363 . S
C524 C523 1.415 . S
C525 H501 0.951 . S
C525 C526 1.366 . S
C525 C527 1.388 . S
C526 C525 1.366 . S
C526 C530 1.385 . S
C527 H502 0.951 . S
C527 C525 1.388 . S
C527 C528 1.366 . S
C528 C527 1.366 . S
C528 C529 1.414 . S
C528 C531 1.499 . S
C529 H503 0.950 1_565 S
C529 C528 1.414 . S
C529 C530 1.374 . S
C530 H504 0.950 . S
C530 C526 1.385 . S
C530 C529 1.374 . S
C531 C528 1.499 . S
C531 C532 1.373 1_565 S
C531 C533 1.389 . S
C532 H505 0.950 . S
C532 C518 1.377 . S
C532 C531 1.373 1_545 S
C533 C517 1.377 . S
C533 C531 1.389 . S
C533 C534 1.524 . S
C534 C533 1.524 . S
C534 C535 1.397 . S
C534 C539 1.363 . S
C535 H506 0.950 . S
C535 C534 1.397 . S
C535 C536 1.334 . S
C536 H507 0.950 . S
C536 C535 1.334 . S
C536 C537 1.287 . S
C537 C536 1.287 . S
C537 C538 1.524 . S
C537 H540 0.999 . S
C538 H508 0.950 . S
C538 C537 1.524 . S
C538 C539 1.415 . S
C539 H509 0.950 . S
C539 C534 1.363 . S
C539 C538 1.415 . S
H540 C537 0.999 . S
H541 C522 0.913 . S
H542 C560 0.951 . S
H543 C562 0.951 . S
H544 C564 0.950 . S
H545 C565 0.950 . S
H546 C567 0.950 . S
H547 C570 0.950 . S
H548 C571 0.950 . S
H549 C573 0.950 . S
H550 C574 0.950 . S
H551 C575 0.951 . S
H552 C577 0.951 . S
H553 C579 0.950 . S
H554 C580 0.950 . S
H555 C582 0.950 . S
H556 C585 0.950 . S
H557 C586 0.950 . S
H558 C588 0.950 . S
H559 C589 0.950 . S
C560 H542 0.951 . S
C560 C561 1.366 . S
C560 C562 1.388 . S
C561 C560 1.366 . S
C561 C565 1.385 . S
C562 H543 0.951 . S
C562 C560 1.388 . S
C562 C563 1.366 . S
C563 C562 1.366 . S
C563 C564 1.414 . S
C563 C566 1.499 . S
C564 H544 0.950 . S
C564 C563 1.414 . S
C564 C565 1.374 . S
C565 H545 0.950 . S
C565 C561 1.385 . S
C565 C564 1.374 . S
C566 C563 1.499 . S
C566 C567 1.373 . S
C566 C568 1.389 . S
C567 H546 0.950 . S
C567 C566 1.373 . S
C567 C583 1.377 . S
C568 C566 1.389 . S
C568 C569 1.524 . S
C568 C582 1.377 . S
C569 C568 1.524 . S
C569 C570 1.397 . S
C569 C574 1.363 . S
C570 H547 0.950 . S
C570 C569 1.397 . S
C570 C571 1.334 . S
C571 H548 0.950 . S
C571 C570 1.334 . S
C571 C572 1.287 . S
C572 C571 1.287 . S
C572 C573 1.524 . S
C572 H591 0.913 . S
C573 H549 0.950 . S
C573 C572 1.524 . S
C573 C574 1.415 . S
C574 H550 0.950 . S
C574 C569 1.363 . S
C574 C573 1.415 . S
C575 H551 0.951 . S
C575 C576 1.366 . S
C575 C577 1.388 . S
C576 C575 1.366 . S
C576 C580 1.385 . S
C577 H552 0.951 . S
C577 C575 1.388 . S
C577 C578 1.366 . S
C578 C577 1.366 . S
C578 C579 1.414 . S
C578 C581 1.499 . S
C579 H553 0.950 . S
C579 C578 1.414 . S
C579 C580 1.374 . S
C580 H554 0.950 . S
C580 C576 1.385 . S
C580 C579 1.374 . S
C581 C578 1.499 . S
C581 C582 1.373 . S
C581 C583 1.389 . S
C582 H555 0.950 . S
C582 C568 1.377 . S
C582 C581 1.373 . S
C583 C567 1.377 . S
C583 C581 1.389 . S
C583 C584 1.524 . S
C584 C583 1.524 . S
C584 C585 1.397 . S
C584 C589 1.363 . S
C585 H556 0.950 . S
C585 C584 1.397 . S
C585 C586 1.334 . S
C586 H557 0.950 . S
C586 C585 1.334 . S
C586 C587 1.287 . S
C587 C586 1.287 . S
C587 C588 1.524 . S
C587 H590 0.999 . S
C588 H558 0.950 . S
C588 C587 1.524 . S
C588 C589 1.415 . S
C589 H559 0.950 . S
C589 C584 1.363 . S
C589 C588 1.415 . S
H590 C587 0.999 . S
H591 C572 0.913 . S
H592 C610 0.951 . S
H593 C612 0.951 . S
H594 C614 0.950 1_655 S
H595 C615 0.950 . S
H596 C617 0.950 . S
H597 C620 0.950 . S
H598 C621 0.950 . S
H599 C623 0.950 . S
H600 C624 0.950 . S
H601 C625 0.951 . S
H602 C627 0.951 . S
H603 C629 0.950 . S
H604 C630 0.950 . S
H605 C632 0.950 . S
H606 C635 0.950 . S
H607 C636 0.950 . S
H608 C638 0.950 . S
H609 C639 0.950 . S
C610 H592 0.951 . S
C610 C611 1.366 . S
C610 C612 1.388 . S
C611 C610 1.366 . S
C611 C615 1.385 . S
C612 H593 0.951 . S
C612 C610 1.388 . S
C612 C613 1.366 . S
C613 C612 1.366 . S
C613 C614 1.414 . S
C613 C616 1.499 . S
C614 H594 0.950 1_455 S
C614 C613 1.414 . S
C614 C615 1.374 . S
C615 H595 0.950 . S
C615 C611 1.385 . S
C615 C614 1.374 . S
C616 C613 1.499 . S
C616 C617 1.373 1_455 S
C616 C618 1.389 . S
C617 H596 0.950 . S
C617 C616 1.373 1_655 S
C617 C633 1.377 . S
C618 C616 1.389 . S
C618 C619 1.524 . S
C618 C632 1.377 . S
C619 C618 1.524 . S
C619 C620 1.397 . S
C619 C624 1.363 . S
C620 H597 0.950 . S
C620 C619 1.397 . S
C620 C621 1.334 . S
C621 H598 0.950 . S
C621 C620 1.334 . S
C621 C622 1.287 . S
C622 C621 1.287 . S
C622 C623 1.524 . S
C622 H641 0.913 . S
C623 H599 0.950 . S
C623 C622 1.524 . S
C623 C624 1.415 . S
C624 H600 0.950 . S
C624 C619 1.363 . S
C624 C623 1.415 . S
C625 H601 0.951 . S
C625 C626 1.366 . S
C625 C627 1.388 . S
C626 C625 1.366 . S
C626 C630 1.385 . S
C627 H602 0.951 . S
C627 C625 1.388 . S
C627 C628 1.366 . S
C628 C627 1.366 . S
C628 C629 1.414 . S
C628 C631 1.499 . S
C629 H603 0.950 . S
C629 C628 1.414 . S
C629 C630 1.374 . S
C630 H604 0.950 . S
C630 C626 1.385 . S
C630 C629 1.374 . S
C631 C628 1.499 . S
C631 C632 1.373 1_655 S
C631 C633 1.389 . S
C632 H605 0.950 . S
C632 C618 1.377 . S
C632 C631 1.373 1_455 S
C633 C617 1.377 . S
C633 C631 1.389 . S
C633 C634 1.524 . S
C634 C633 1.524 . S
C634 C635 1.397 . S
C634 C639 1.363 . S
C635 H606 0.950 . S
C635 C634 1.397 . S
C635 C636 1.334 . S
C636 H607 0.950 . S
C636 C635 1.334 . S
C636 C637 1.287 . S
C637 C636 1.287 . S
C637 C638 1.524 . S
C637 H640 0.999 . S
C638 H608 0.950 . S
C638 C637 1.524 . S
C638 C639 1.415 . S
C639 H609 0.950 . S
C639 C634 1.363 . S
C639 C638 1.415 . S
H640 C637 0.999 . S
H641 C622 0.913 . S
H642 C660 0.951 . S
H643 C662 0.951 . S
H644 C664 0.950 . S
H645 C665 0.950 . S
H646 C667 0.950 . S
H647 C670 0.950 . S
H648 C671 0.950 . S
H649 C673 0.950 . S
H650 C674 0.950 . S
H651 C675 0.951 . S
H652 C677 0.951 1_565 S
H653 C679 0.950 . S
H654 C680 0.950 . S
H655 C682 0.950 . S
H656 C685 0.950 . S
H657 C686 0.950 . S
H658 C688 0.950 . S
H659 C689 0.950 . S
C660 H642 0.951 . S
C660 C661 1.366 . S
C660 C662 1.388 . S
C661 C660 1.366 . S
C661 C665 1.385 . S
C662 H643 0.951 . S
C662 C660 1.388 . S
C662 C663 1.366 . S
C663 C662 1.366 . S
C663 C664 1.414 . S
C663 C666 1.499 . S
C664 H644 0.950 . S
C664 C663 1.414 . S
C664 C665 1.374 . S
C665 H645 0.950 . S
C665 C661 1.385 . S
C665 C664 1.374 . S
C666 C663 1.499 . S
C666 C667 1.373 . S
C666 C668 1.389 . S
C667 H646 0.950 . S
C667 C666 1.373 . S
C667 C683 1.377 . S
C668 C666 1.389 . S
C668 C669 1.524 . S
C668 C682 1.377 1_565 S
C669 C668 1.524 . S
C669 C670 1.397 . S
C669 C674 1.363 1_565 S
C670 H647 0.950 . S
C670 C669 1.397 . S
C670 C671 1.334 . S
C671 H648 0.950 . S
C671 C670 1.334 . S
C671 C672 1.287 . S
C672 C671 1.287 . S
C672 C673 1.524 1_565 S
C672 H691 0.913 . S
C673 H649 0.950 . S
C673 C672 1.524 1_545 S
C673 C674 1.415 . S
C674 H650 0.950 . S
C674 C669 1.363 1_545 S
C674 C673 1.415 . S
C675 H651 0.951 . S
C675 C676 1.366 . S
C675 C677 1.388 . S
C676 C675 1.366 . S
C676 C680 1.385 . S
C677 H652 0.951 1_545 S
C677 C675 1.388 . S
C677 C678 1.366 . S
C678 C677 1.366 . S
C678 C679 1.414 . S
C678 C681 1.499 . S
C679 H653 0.950 . S
C679 C678 1.414 . S
C679 C680 1.374 . S
C680 H654 0.950 . S
C680 C676 1.385 . S
C680 C679 1.374 . S
C681 C678 1.499 . S
C681 C682 1.373 . S
C681 C683 1.389 1_545 S
C682 H655 0.950 . S
C682 C668 1.377 1_545 S
C682 C681 1.373 . S
C683 C667 1.377 . S
C683 C681 1.389 1_565 S
C683 C684 1.524 . S
C684 C683 1.524 . S
C684 C685 1.397 1_565 S
C684 C689 1.363 . S
C685 H656 0.950 . S
C685 C684 1.397 1_545 S
C685 C686 1.334 . S
C686 H657 0.950 . S
C686 C685 1.334 . S
C686 C687 1.287 1_545 S
C687 C686 1.287 1_565 S
C687 C688 1.524 . S
C687 H690 0.999 . S
C688 H658 0.950 . S
C688 C687 1.524 . S
C688 C689 1.415 . S
C689 H659 0.950 . S
C689 C684 1.363 . S
C689 C688 1.415 . S
H690 C687 0.999 . S
H691 C672 0.913 . S
H692 C710 0.951 . S
H693 C712 0.951 . S
H694 C714 0.950 . S
H695 C715 0.950 . S
H696 C717 0.950 . S
H697 C720 0.950 . S
H698 C721 0.950 . S
H699 C723 0.950 . S
H700 C724 0.950 . S
H701 C725 0.951 . S
H702 C727 0.951 . S
H703 C729 0.950 . S
H704 C730 0.950 . S
H705 C732 0.950 . S
H706 C735 0.950 . S
H707 C736 0.950 . S
H708 C738 0.950 . S
H709 C739 0.950 . S
C710 H692 0.951 . S
C710 C711 1.366 . S
C710 C712 1.388 . S
C711 C710 1.366 . S
C711 C715 1.385 . S
C712 H693 0.951 . S
C712 C710 1.388 . S
C712 C713 1.366 1_554 S
C713 C712 1.366 1_556 S
C713 C714 1.414 . S
C713 C716 1.499 . S
C714 H694 0.950 . S
C714 C713 1.414 . S
C714 C715 1.374 1_556 S
C715 H695 0.950 . S
C715 C711 1.385 . S
C715 C714 1.374 1_554 S
C716 C713 1.499 . S
C716 C717 1.373 . S
C716 C718 1.389 . S
C717 H696 0.950 . S
C717 C716 1.373 . S
C717 C733 1.377 . S
C718 C716 1.389 . S
C718 C719 1.524 . S
C718 C732 1.377 . S
C719 C718 1.524 . S
C719 C720 1.397 . S
C719 C724 1.363 . S
C720 H697 0.950 . S
C720 C719 1.397 . S
C720 C721 1.334 . S
C721 H698 0.950 . S
C721 C720 1.334 . S
C721 C722 1.287 . S
C722 C721 1.287 . S
C722 C723 1.524 . S
C722 H741 0.913 . S
C723 H699 0.950 . S
C723 C722 1.524 . S
C723 C724 1.415 . S
C724 H700 0.950 . S
C724 C719 1.363 . S
C724 C723 1.415 . S
C725 H701 0.951 . S
C725 C726 1.366 . S
C725 C727 1.388 . S
C726 C725 1.366 . S
C726 C730 1.385 . S
C727 H702 0.951 . S
C727 C725 1.388 . S
C727 C728 1.366 . S
C728 C727 1.366 . S
C728 C729 1.414 . S
C728 C731 1.499 . S
C729 H703 0.950 . S
C729 C728 1.414 . S
C729 C730 1.374 . S
C730 H704 0.950 . S
C730 C726 1.385 . S
C730 C729 1.374 . S
C731 C728 1.499 . S
C731 C732 1.373 . S
C731 C733 1.389 . S
C732 H705 0.950 . S
C732 C718 1.377 . S
C732 C731 1.373 . S
C733 C717 1.377 . S
C733 C731 1.389 . S
C733 C734 1.524 . S
C734 C733 1.524 . S
C734 C735 1.397 . S
C734 C739 1.363 . S
C735 H706 0.950 . S
C735 C734 1.397 . S
C735 C736 1.334 . S
C736 H707 0.950 . S
C736 C735 1.334 . S
C736 C737 1.287 . S
C737 C736 1.287 . S
C737 C738 1.524 . S
C737 H740 0.999 . S
C738 H708 0.950 . S
C738 C737 1.524 . S
C738 C739 1.415 . S
C739 H709 0.950 . S
C739 C734 1.363 . S
C739 C738 1.415 . S
H740 C737 0.999 . S
H741 C722 0.913 . S
H742 C760 0.951 . S
H743 C762 0.951 1_554 S
H744 C764 0.950 . S
H745 C765 0.950 . S
H746 C767 0.950 . S
H747 C770 0.950 . S
H748 C771 0.950 . S
H749 C773 0.950 . S
H750 C774 0.950 . S
H751 C775 0.951 . S
H752 C777 0.951 . S
H753 C779 0.950 1_455 S
H754 C780 0.950 . S
H755 C782 0.950 . S
H756 C785 0.950 . S
H757 C786 0.950 1_455 S
H758 C788 0.950 . S
H759 C789 0.950 . S
C760 H742 0.951 . S
C760 C761 1.366 . S
C760 C762 1.388 . S
C761 C760 1.366 . S
C761 C765 1.385 . S
C762 H743 0.951 1_556 S
C762 C760 1.388 . S
C762 C763 1.366 1_556 S
C763 C762 1.366 1_554 S
C763 C764 1.414 1_554 S
C763 C766 1.499 . S
C764 H744 0.950 . S
C764 C763 1.414 1_556 S
C764 C765 1.374 . S
C765 H745 0.950 . S
C765 C761 1.385 . S
C765 C764 1.374 . S
C766 C763 1.499 . S
C766 C767 1.373 . S
C766 C768 1.389 . S
C767 H746 0.950 . S
C767 C766 1.373 . S
C767 C783 1.377 1_455 S
C768 C766 1.389 . S
C768 C769 1.524 . S
C768 C782 1.377 . S
C769 C768 1.524 . S
C769 C770 1.397 1_554 S
C769 C774 1.363 . S
C770 H747 0.950 . S
C770 C769 1.397 1_556 S
C770 C771 1.334 . S
C771 H748 0.950 . S
C771 C770 1.334 . S
C771 C772 1.287 . S
C772 C771 1.287 . S
C772 C773 1.524 1_556 S
C772 H791 0.913 . S
C773 H749 0.950 . S
C773 C772 1.524 1_554 S
C773 C774 1.415 . S
C774 H750 0.950 . S
C774 C769 1.363 . S
C774 C773 1.415 . S
C775 H751 0.951 . S
C775 C776 1.366 . S
C775 C777 1.388 . S
C776 C775 1.366 . S
C776 C780 1.385 . S
C777 H752 0.951 . S
C777 C775 1.388 . S
C777 C778 1.366 . S
C778 C777 1.366 . S
C778 C779 1.414 . S
C778 C781 1.499 . S
C779 H753 0.950 1_655 S
C779 C778 1.414 . S
C779 C780 1.374 . S
C780 H754 0.950 . S
C780 C776 1.385 . S
C780 C779 1.374 . S
C781 C778 1.499 . S
C781 C782 1.373 1_655 S
C781 C783 1.390 . S
C782 H755 0.950 . S
C782 C768 1.377 . S
C782 C781 1.373 1_455 S
C783 C767 1.377 1_655 S
C783 C781 1.390 . S
C783 C784 1.523 . S
C784 C783 1.523 . S
C784 C785 1.397 1_655 S
C784 C789 1.363 . S
C785 H756 0.950 . S
C785 C784 1.397 1_455 S
C785 C786 1.334 1_455 S
C786 H757 0.950 1_655 S
C786 C785 1.334 1_655 S
C786 C787 1.287 . S
C787 C786 1.287 . S
C787 C788 1.524 . S
C787 H790 0.999 . S
C788 H758 0.950 . S
C788 C787 1.524 . S
C788 C789 1.415 . S
C789 H759 0.950 . S
C789 C784 1.363 . S
C789 C788 1.415 . S
H790 C787 0.999 . S
H791 C772 0.913 . S
H792 C810 0.951 . S
H793 C812 0.951 . S
H794 C814 0.950 . S
H795 C815 0.950 . S
H796 C817 0.950 . S
H797 C820 0.950 . S
H798 C821 0.950 . S
H799 C823 0.950 . S
H800 C824 0.950 . S
H801 C825 0.951 . S
H802 C827 0.951 . S
H803 C829 0.950 . S
H804 C830 0.950 . S
H805 C832 0.950 . S
H806 C835 0.950 . S
H807 C836 0.950 . S
H808 C838 0.950 . S
H809 C839 0.950 . S
C810 H792 0.951 . S
C810 C811 1.366 . S
C810 C812 1.388 . S
C811 C810 1.366 . S
C811 C815 1.385 . S
C812 H793 0.951 . S
C812 C810 1.388 . S
C812 C813 1.366 . S
C813 C812 1.366 . S
C813 C814 1.414 . S
C813 C816 1.499 . S
C814 H794 0.950 . S
C814 C813 1.414 . S
C814 C815 1.374 . S
C815 H795 0.950 . S
C815 C811 1.385 . S
C815 C814 1.374 . S
C816 C813 1.499 . S
C816 C817 1.373 . S
C816 C818 1.389 . S
C817 H796 0.950 . S
C817 C816 1.373 . S
C817 C833 1.377 . S
C818 C816 1.389 . S
C818 C819 1.524 . S
C818 C832 1.377 . S
C819 C818 1.524 . S
C819 C820 1.397 . S
C819 C824 1.363 . S
C820 H797 0.950 . S
C820 C819 1.397 . S
C820 C821 1.334 . S
C821 H798 0.950 . S
C821 C820 1.334 . S
C821 C822 1.287 . S
C822 C821 1.287 . S
C822 C823 1.524 . S
C822 H841 0.913 . S
C823 H799 0.950 . S
C823 C822 1.524 . S
C823 C824 1.415 . S
C824 H800 0.950 . S
C824 C819 1.363 . S
C824 C823 1.415 . S
C825 H801 0.951 . S
C825 C826 1.366 . S
C825 C827 1.388 . S
C826 C825 1.366 . S
C826 C830 1.385 . S
C827 H802 0.951 . S
C827 C825 1.388 . S
C827 C828 1.366 . S
C828 C827 1.366 . S
C828 C829 1.414 . S
C828 C831 1.499 . S
C829 H803 0.950 . S
C829 C828 1.414 . S
C829 C830 1.374 . S
C830 H804 0.950 . S
C830 C826 1.385 . S
C830 C829 1.374 . S
C831 C828 1.499 . S
C831 C832 1.373 . S
C831 C833 1.389 . S
C832 H805 0.950 . S
C832 C818 1.377 . S
C832 C831 1.373 . S
C833 C817 1.377 . S
C833 C831 1.389 . S
C833 C834 1.524 . S
C834 C833 1.524 . S
C834 C835 1.397 . S
C834 C839 1.363 . S
C835 H806 0.950 . S
C835 C834 1.397 . S
C835 C836 1.334 . S
C836 H807 0.950 . S
C836 C835 1.334 . S
C836 C837 1.287 . S
C837 C836 1.287 . S
C837 C838 1.524 . S
C837 H840 0.999 . S
C838 H808 0.950 . S
C838 C837 1.524 . S
C838 C839 1.415 . S
C839 H809 0.950 . S
C839 C834 1.363 . S
C839 C838 1.415 . S
H840 C837 0.999 . S
H841 C822 0.913 . S
H842 C860 0.951 . S
H843 C862 0.951 . S
H844 C864 0.950 . S
H845 C865 0.950 . S
H846 C867 0.950 . S
H847 C870 0.950 . S
H848 C871 0.950 . S
H849 C873 0.950 . S
H850 C874 0.950 . S
H851 C875 0.951 . S
H852 C877 0.951 . S
H853 C879 0.950 . S
H854 C880 0.950 . S
H855 C882 0.950 . S
H856 C885 0.950 . S
H857 C886 0.950 . S
H858 C888 0.950 . S
H859 C889 0.950 . S
C860 H842 0.951 . S
C860 C861 1.366 . S
C860 C862 1.388 . S
C861 C860 1.366 . S
C861 C865 1.385 . S
C862 H843 0.951 . S
C862 C860 1.388 . S
C862 C863 1.366 . S
C863 C862 1.366 . S
C863 C864 1.414 . S
C863 C866 1.499 . S
C864 H844 0.950 . S
C864 C863 1.414 . S
C864 C865 1.374 . S
C865 H845 0.950 . S
C865 C861 1.385 . S
C865 C864 1.374 . S
C866 C863 1.499 . S
C866 C867 1.373 1_556 S
C866 C868 1.389 . S
C867 H846 0.950 . S
C867 C866 1.373 1_554 S
C867 C883 1.377 . S
C868 C866 1.389 . S
C868 C869 1.524 . S
C868 C882 1.377 . S
C869 C868 1.524 . S
C869 C870 1.397 . S
C869 C874 1.363 . S
C870 H847 0.950 . S
C870 C869 1.397 . S
C870 C871 1.334 . S
C871 H848 0.950 . S
C871 C870 1.334 . S
C871 C872 1.287 . S
C872 C871 1.287 . S
C872 C873 1.524 . S
C872 H891 0.913 . S
C873 H849 0.950 . S
C873 C872 1.524 . S
C873 C874 1.415 . S
C874 H850 0.950 . S
C874 C869 1.363 . S
C874 C873 1.415 . S
C875 H851 0.951 . S
C875 C876 1.366 . S
C875 C877 1.388 . S
C876 C875 1.366 . S
C876 C880 1.385 . S
C877 H852 0.951 . S
C877 C875 1.388 . S
C877 C878 1.366 . S
C878 C877 1.366 . S
C878 C879 1.414 . S
C878 C881 1.499 . S
C879 H853 0.950 . S
C879 C878 1.414 . S
C879 C880 1.374 . S
C880 H854 0.950 . S
C880 C876 1.385 . S
C880 C879 1.374 . S
C881 C878 1.499 . S
C881 C882 1.373 1_554 S
C881 C883 1.389 . S
C882 H855 0.950 . S
C882 C868 1.377 . S
C882 C881 1.373 1_556 S
C883 C867 1.377 . S
C883 C881 1.389 . S
C883 C884 1.524 . S
C884 C883 1.524 . S
C884 C885 1.397 . S
C884 C889 1.363 . S
C885 H856 0.950 . S
C885 C884 1.397 . S
C885 C886 1.334 . S
C886 H857 0.950 . S
C886 C885 1.334 . S
C886 C887 1.287 . S
C887 C886 1.287 . S
C887 C888 1.524 . S
C887 H890 0.999 . S
C888 H858 0.950 . S
C888 C887 1.524 . S
C888 C889 1.415 . S
C889 H859 0.950 . S
C889 C884 1.363 . S
C889 C888 1.415 . S
H890 C887 0.999 . S
H891 C872 0.913 . S
H892 C910 0.951 . S
H893 C912 0.951 . S
H894 C914 0.950 . S
H895 C915 0.950 . S
H896 C917 0.950 . S
H897 C920 0.950 . S
H898 C921 0.950 . S
H899 C923 0.950 . S
H900 C924 0.950 . S
H901 C925 0.951 . S
H902 C927 0.951 . S
H903 C929 0.950 . S
H904 C930 0.950 . S
H905 C932 0.950 . S
H906 C935 0.950 . S
H907 C936 0.950 . S
H908 C938 0.950 . S
H909 C939 0.950 . S
C910 H892 0.951 . S
C910 C911 1.366 . S
C910 C912 1.388 . S
C911 C910 1.366 . S
C911 C915 1.385 . S
C912 H893 0.951 . S
C912 C910 1.388 . S
C912 C913 1.366 . S
C913 C912 1.366 . S
C913 C914 1.414 . S
C913 C916 1.499 . S
C914 H894 0.950 . S
C914 C913 1.414 . S
C914 C915 1.374 . S
C915 H895 0.950 . S
C915 C911 1.385 . S
C915 C914 1.374 . S
C916 C913 1.499 . S
C916 C917 1.373 . S
C916 C918 1.389 . S
C917 H896 0.950 . S
C917 C916 1.373 . S
C917 C933 1.377 . S
C918 C916 1.389 . S
C918 C919 1.524 . S
C918 C932 1.377 . S
C919 C918 1.524 . S
C919 C920 1.397 . S
C919 C924 1.363 . S
C920 H897 0.950 . S
C920 C919 1.397 . S
C920 C921 1.334 . S
C921 H898 0.950 . S
C921 C920 1.334 . S
C921 C922 1.287 . S
C922 C921 1.287 . S
C922 C923 1.524 . S
C922 H941 0.913 . S
C923 H899 0.950 . S
C923 C922 1.524 . S
C923 C924 1.415 . S
C924 H900 0.950 . S
C924 C919 1.363 . S
C924 C923 1.415 . S
C925 H901 0.951 . S
C925 C926 1.366 . S
C925 C927 1.388 . S
C926 C925 1.366 . S
C926 C930 1.385 . S
C927 H902 0.951 . S
C927 C925 1.388 . S
C927 C928 1.366 . S
C928 C927 1.366 . S
C928 C929 1.414 . S
C928 C931 1.499 . S
C929 H903 0.950 . S
C929 C928 1.414 . S
C929 C930 1.374 . S
C930 H904 0.950 . S
C930 C926 1.385 . S
C930 C929 1.374 . S
C931 C928 1.499 . S
C931 C932 1.373 . S
C931 C933 1.389 . S
C932 H905 0.950 . S
C932 C918 1.377 . S
C932 C931 1.373 . S
C933 C917 1.377 . S
C933 C931 1.389 . S
C933 C934 1.524 . S
C934 C933 1.524 . S
C934 C935 1.397 . S
C934 C939 1.363 . S
C935 H906 0.950 . S
C935 C934 1.397 . S
C935 C936 1.334 . S
C936 H907 0.950 . S
C936 C935 1.334 . S
C936 C937 1.287 . S
C937 C936 1.287 . S
C937 C938 1.524 . S
C937 H940 0.999 . S
C938 H908 0.950 . S
C938 C937 1.524 . S
C938 C939 1.415 . S
C939 H909 0.950 . S
C939 C934 1.363 . S
C939 C938 1.415 . S
H940 C937 0.999 . S
H941 C922 0.913 . S
H942 C960 0.951 . S
H943 C962 0.951 . S
H944 C964 0.950 . S
H945 C965 0.950 . S
H946 C967 0.950 . S
H947 C970 0.950 . S
H948 C971 0.950 . S
H949 C973 0.950 . S
H950 C974 0.950 . S
H951 C975 0.951 . S
H952 C977 0.951 . S
H953 C979 0.950 . S
H954 C980 0.950 . S
H955 C982 0.950 . S
H956 C985 0.950 . S
H957 C986 0.950 . S
H958 C988 0.950 . S
H959 C989 0.950 . S
C960 H942 0.951 . S
C960 C961 1.366 . S
C960 C962 1.388 . S
C961 C960 1.366 . S
C961 C965 1.385 . S
C962 H943 0.951 . S
C962 C960 1.388 . S
C962 C963 1.366 . S
C963 C962 1.366 . S
C963 C964 1.414 . S
C963 C966 1.499 . S
C964 H944 0.950 . S
C964 C963 1.414 . S
C964 C965 1.374 . S
C965 H945 0.950 . S
C965 C961 1.385 . S
C965 C964 1.374 . S
C966 C963 1.499 . S
C966 C967 1.373 . S
C966 C968 1.389 . S
C967 H946 0.950 . S
C967 C966 1.373 . S
C967 C983 1.377 . S
C968 C966 1.389 . S
C968 C969 1.524 . S
C968 C982 1.377 . S
C969 C968 1.524 . S
C969 C970 1.397 . S
C969 C974 1.363 . S
C970 H947 0.950 . S
C970 C969 1.397 . S
C970 C971 1.334 . S
C971 H948 0.950 . S
C971 C970 1.334 . S
C971 C972 1.287 . S
C972 C971 1.287 . S
C972 C973 1.524 . S
C972 H991 0.913 . S
C973 H949 0.950 . S
C973 C972 1.524 . S
C973 C974 1.415 . S
C974 H950 0.950 . S
C974 C969 1.363 . S
C974 C973 1.415 . S
C975 H951 0.951 . S
C975 C976 1.366 . S
C975 C977 1.388 . S
C976 C975 1.366 . S
C976 C980 1.385 . S
C977 H952 0.951 . S
C977 C975 1.388 . S
C977 C978 1.366 . S
C978 C977 1.366 . S
C978 C979 1.414 . S
C978 C981 1.499 . S
C979 H953 0.950 . S
C979 C978 1.414 . S
C979 C980 1.374 . S
C980 H954 0.950 . S
C980 C976 1.385 . S
C980 C979 1.374 . S
C981 C978 1.499 . S
C981 C982 1.373 . S
C981 C983 1.389 . S
C982 H955 0.950 . S
C982 C968 1.377 . S
C982 C981 1.373 . S
C983 C967 1.377 . S
C983 C981 1.389 . S
C983 C984 1.524 . S
C984 C983 1.524 . S
C984 C985 1.397 . S
C984 C989 1.363 . S
C985 H956 0.950 . S
C985 C984 1.397 . S
C985 C986 1.334 . S
C986 H957 0.950 . S
C986 C985 1.334 . S
C986 C987 1.287 . S
C987 C986 1.287 . S
C987 C988 1.524 . S
C987 H990 0.999 . S
C988 H958 0.950 . S
C988 C987 1.524 . S
C988 C989 1.415 . S
C989 H959 0.950 . S
C989 C984 1.363 . S
C989 C988 1.415 . S
H990 C987 0.999 . S
H991 C972 0.913 . S
H992 C1010 0.951 . S
H993 C1012 0.951 . S
H994 C1014 0.950 . S
H995 C1015 0.950 . S
H996 C1017 0.950 . S
H997 C1020 0.950 . S
H998 C1021 0.950 . S
H999 C1023 0.950 . S
H1000 C1024 0.950 . S
H1001 C1025 0.951 . S
H1002 C1027 0.951 . S
H1003 C1029 0.950 . S
H1004 C1030 0.950 . S
H1005 C1032 0.950 . S
H1006 C1035 0.950 . S
H1007 C1036 0.950 . S
H1008 C1038 0.950 . S
H1009 C1039 0.950 . S
C1010 H992 0.951 . S
C1010 C1011 1.366 . S
C1010 C1012 1.388 . S
C1011 C1010 1.366 . S
C1011 C1015 1.385 . S
C1012 H993 0.951 . S
C1012 C1010 1.388 . S
C1012 C1013 1.366 . S
C1013 C1012 1.366 . S
C1013 C1014 1.414 . S
C1013 C1016 1.499 . S
C1014 H994 0.950 . S
C1014 C1013 1.414 . S
C1014 C1015 1.374 . S
C1015 H995 0.950 . S
C1015 C1011 1.385 . S
C1015 C1014 1.374 . S
C1016 C1013 1.499 . S
C1016 C1017 1.373 . S
C1016 C1018 1.389 . S
C1017 H996 0.950 . S
C1017 C1016 1.373 . S
C1017 C1033 1.377 . S
C1018 C1016 1.389 . S
C1018 C1019 1.524 . S
C1018 C1032 1.377 . S
C1019 C1018 1.524 . S
C1019 C1020 1.397 . S
C1019 C1024 1.363 . S
C1020 H997 0.950 . S
C1020 C1019 1.397 . S
C1020 C1021 1.334 . S
C1021 H998 0.950 . S
C1021 C1020 1.334 . S
C1021 C1022 1.287 . S
C1022 C1021 1.287 . S
C1022 C1023 1.524 . S
C1022 H1041 0.913 . S
C1023 H999 0.950 . S
C1023 C1022 1.524 . S
C1023 C1024 1.415 . S
C1024 H1000 0.950 . S
C1024 C1019 1.363 . S
C1024 C1023 1.415 . S
C1025 H1001 0.951 . S
C1025 C1026 1.366 . S
C1025 C1027 1.388 . S
C1026 C1025 1.366 . S
C1026 C1030 1.385 . S
C1027 H1002 0.951 . S
C1027 C1025 1.388 . S
C1027 C1028 1.366 . S
C1028 C1027 1.366 . S
C1028 C1029 1.414 . S
C1028 C1031 1.499 . S
C1029 H1003 0.950 . S
C1029 C1028 1.414 . S
C1029 C1030 1.374 . S
C1030 H1004 0.950 . S
C1030 C1026 1.385 . S
C1030 C1029 1.374 . S
C1031 C1028 1.499 . S
C1031 C1032 1.373 . S
C1031 C1033 1.389 . S
C1032 H1005 0.950 . S
C1032 C1018 1.377 . S
C1032 C1031 1.373 . S
C1033 C1017 1.377 . S
C1033 C1031 1.389 . S
C1033 C1034 1.524 . S
C1034 C1033 1.524 . S
C1034 C1035 1.397 . S
C1034 C1039 1.363 . S
C1035 H1006 0.950 . S
C1035 C1034 1.397 . S
C1035 C1036 1.334 . S
C1036 H1007 0.950 . S
C1036 C1035 1.334 . S
C1036 C1037 1.287 . S
C1037 C1036 1.287 . S
C1037 C1038 1.524 . S
C1037 H1040 0.999 . S
C1038 H1008 0.950 . S
C1038 C1037 1.524 . S
C1038 C1039 1.415 . S
C1039 H1009 0.950 . S
C1039 C1034 1.363 . S
C1039 C1038 1.415 . S
H1040 C1037 0.999 . S
H1041 C1022 0.913 . S
H1042 C1060 0.951 . S
H1043 C1062 0.951 . S
H1044 C1064 0.950 . S
H1045 C1065 0.950 . S
H1046 C1067 0.950 . S
H1047 C1070 0.950 . S
H1048 C1071 0.950 . S
H1049 C1073 0.950 . S
H1050 C1074 0.950 . S
H1051 C1075 0.951 . S
H1052 C1077 0.951 . S
H1053 C1079 0.950 . S
H1054 C1080 0.950 . S
H1055 C1082 0.950 . S
H1056 C1085 0.950 . S
H1057 C1086 0.950 . S
H1058 C1088 0.950 . S
H1059 C1089 0.950 . S
C1060 H1042 0.951 . S
C1060 C1061 1.366 . S
C1060 C1062 1.388 . S
C1061 C1060 1.366 . S
C1061 C1065 1.385 . S
C1062 H1043 0.951 . S
C1062 C1060 1.388 . S
C1062 C1063 1.366 . S
C1063 C1062 1.366 . S
C1063 C1064 1.414 . S
C1063 C1066 1.499 . S
C1064 H1044 0.950 . S
C1064 C1063 1.414 . S
C1064 C1065 1.374 . S
C1065 H1045 0.950 . S
C1065 C1061 1.385 . S
C1065 C1064 1.374 . S
C1066 C1063 1.499 . S
C1066 C1067 1.373 . S
C1066 C1068 1.389 . S
C1067 H1046 0.950 . S
C1067 C1066 1.373 . S
C1067 C1083 1.377 . S
C1068 C1066 1.389 . S
C1068 C1069 1.524 . S
C1068 C1082 1.377 . S
C1069 C1068 1.524 . S
C1069 C1070 1.397 . S
C1069 C1074 1.363 . S
C1070 H1047 0.950 . S
C1070 C1069 1.397 . S
C1070 C1071 1.334 . S
C1071 H1048 0.950 . S
C1071 C1070 1.334 . S
C1071 C1072 1.287 . S
C1072 C1071 1.287 . S
C1072 C1073 1.524 . S
C1072 H1091 0.913 . S
C1073 H1049 0.950 . S
C1073 C1072 1.524 . S
C1073 C1074 1.415 . S
C1074 H1050 0.950 . S
C1074 C1069 1.363 . S
C1074 C1073 1.415 . S
C1075 H1051 0.951 . S
C1075 C1076 1.366 . S
C1075 C1077 1.388 . S
C1076 C1075 1.366 . S
C1076 C1080 1.385 . S
C1077 H1052 0.951 . S
C1077 C1075 1.388 . S
C1077 C1078 1.366 . S
C1078 C1077 1.366 . S
C1078 C1079 1.414 . S
C1078 C1081 1.499 . S
C1079 H1053 0.950 . S
C1079 C1078 1.414 . S
C1079 C1080 1.374 . S
C1080 H1054 0.950 . S
C1080 C1076 1.385 . S
C1080 C1079 1.374 . S
C1081 C1078 1.499 . S
C1081 C1082 1.373 . S
C1081 C1083 1.389 . S
C1082 H1055 0.950 . S
C1082 C1068 1.377 . S
C1082 C1081 1.373 . S
C1083 C1067 1.377 . S
C1083 C1081 1.389 . S
C1083 C1084 1.524 . S
C1084 C1083 1.524 . S
C1084 C1085 1.397 . S
C1084 C1089 1.363 . S
C1085 H1056 0.950 . S
C1085 C1084 1.397 . S
C1085 C1086 1.334 . S
C1086 H1057 0.950 . S
C1086 C1085 1.334 . S
C1086 C1087 1.287 . S
C1087 C1086 1.287 . S
C1087 C1088 1.524 . S
C1087 H1090 0.999 . S
C1088 H1058 0.950 . S
C1088 C1087 1.524 . S
C1088 C1089 1.415 . S
C1089 H1059 0.950 . S
C1089 C1084 1.363 . S
C1089 C1088 1.415 . S
H1090 C1087 0.999 . S
H1091 C1072 0.913 . S
C211 C2 1.229 . S
C226 N173 1.253 . S
C261 C34 1.228 . S
C276 N13 1.252 . S
C311 C66 1.229 . S
C326 N45 1.253 . S
C361 N77 1.252 . S
C376 C98 1.228 . S
C411 N109 1.252 . S
C426 C130 1.228 . S
C461 C162 1.228 . S
C476 N141 1.253 . S
C511 C4 0.955 . S
C526 N114 0.946 . S
C561 C36 0.953 . S
C576 N146 0.945 . S
C611 N178 0.947 . S
C626 C68 0.954 . S
C661 C100 0.954 . S
C676 N18 0.946 . S
C711 N50 0.947 . S
C726 C132 0.955 . S
C761 C164 0.954 . S
C776 N82 0.945 . S
C811 C6 1.491 . S
C826 C157 1.437 . S
C861 C189 1.437 . S
C876 C38 1.491 . S
C911 C29 1.437 . S
C926 C70 1.491 . S
C961 C102 1.491 . S
C976 C61 1.437 . S
C1011 C93 1.438 . S
C1026 C134 1.491 . S
C1061 C125 1.438 . S
C1076 C166 1.491 . S
