# Generated by pormake.
# Topology afi, (4)-cn, num edge types: 1
# Building blocks:
#     Node 0, Type 0, BuildingBlock: AZAVOO_clean_sbu_0, # of connection points: 4
#     Node 1, Type 0, BuildingBlock: AZAVOO_clean_sbu_0, # of connection points: 4
#     Node 2, Type 0, BuildingBlock: AZAVOO_clean_sbu_0, # of connection points: 4
#     Node 3, Type 0, BuildingBlock: AZAVOO_clean_sbu_0, # of connection points: 4
#     Node 4, Type 0, BuildingBlock: AZAVOO_clean_sbu_0, # of connection points: 4
#     Node 5, Type 0, BuildingBlock: AZAVOO_clean_sbu_0, # of connection points: 4
#     Node 6, Type 0, BuildingBlock: AZAVOO_clean_sbu_0, # of connection points: 4
#     Node 7, Type 0, BuildingBlock: AZAVOO_clean_sbu_0, # of connection points: 4
#     Node 8, Type 0, BuildingBlock: AZAVOO_clean_sbu_0, # of connection points: 4
#     Node 9, Type 0, BuildingBlock: AZAVOO_clean_sbu_0, # of connection points: 4
#     Node 10, Type 0, BuildingBlock: AZAVOO_clean_sbu_0, # of connection points: 4
#     Node 11, Type 0, BuildingBlock: AZAVOO_clean_sbu_0, # of connection points: 4
#     Node 12, Type 0, BuildingBlock: AZAVOO_clean_sbu_0, # of connection points: 4
#     Node 13, Type 0, BuildingBlock: AZAVOO_clean_sbu_0, # of connection points: 4
#     Node 14, Type 0, BuildingBlock: AZAVOO_clean_sbu_0, # of connection points: 4
#     Node 15, Type 0, BuildingBlock: AZAVOO_clean_sbu_0, # of connection points: 4
#     Node 16, Type 0, BuildingBlock: AZAVOO_clean_sbu_0, # of connection points: 4
#     Node 17, Type 0, BuildingBlock: AZAVOO_clean_sbu_0, # of connection points: 4
#     Node 18, Type 0, BuildingBlock: AZAVOO_clean_sbu_0, # of connection points: 4
#     Node 19, Type 0, BuildingBlock: AZAVOO_clean_sbu_0, # of connection points: 4
#     Node 20, Type 0, BuildingBlock: AZAVOO_clean_sbu_0, # of connection points: 4
#     Node 21, Type 0, BuildingBlock: AZAVOO_clean_sbu_0, # of connection points: 4
#     Node 22, Type 0, BuildingBlock: AZAVOO_clean_sbu_0, # of connection points: 4
#     Node 23, Type 0, BuildingBlock: AZAVOO_clean_sbu_0, # of connection points: 4
#     Edge 24, Type (0, 0), BuildingBlock: XIVTED_clean_linker_0, # of connection points: 2
#     Edge 25, Type (0, 0), BuildingBlock: XIVTED_clean_linker_0, # of connection points: 2
#     Edge 26, Type (0, 0), BuildingBlock: XIVTED_clean_linker_0, # of connection points: 2
#     Edge 27, Type (0, 0), BuildingBlock: XIVTED_clean_linker_0, # of connection points: 2
#     Edge 28, Type (0, 0), BuildingBlock: XIVTED_clean_linker_0, # of connection points: 2
#     Edge 29, Type (0, 0), BuildingBlock: XIVTED_clean_linker_0, # of connection points: 2
#     Edge 30, Type (0, 0), BuildingBlock: XIVTED_clean_linker_0, # of connection points: 2
#     Edge 31, Type (0, 0), BuildingBlock: XIVTED_clean_linker_0, # of connection points: 2
#     Edge 32, Type (0, 0), BuildingBlock: XIVTED_clean_linker_0, # of connection points: 2
#     Edge 33, Type (0, 0), BuildingBlock: XIVTED_clean_linker_0, # of connection points: 2
#     Edge 34, Type (0, 0), BuildingBlock: XIVTED_clean_linker_0, # of connection points: 2
#     Edge 35, Type (0, 0), BuildingBlock: XIVTED_clean_linker_0, # of connection points: 2
#     Edge 36, Type (0, 0), BuildingBlock: XIVTED_clean_linker_0, # of connection points: 2
#     Edge 37, Type (0, 0), BuildingBlock: XIVTED_clean_linker_0, # of connection points: 2
#     Edge 38, Type (0, 0), BuildingBlock: XIVTED_clean_linker_0, # of connection points: 2
#     Edge 39, Type (0, 0), BuildingBlock: XIVTED_clean_linker_0, # of connection points: 2
#     Edge 40, Type (0, 0), BuildingBlock: XIVTED_clean_linker_0, # of connection points: 2
#     Edge 41, Type (0, 0), BuildingBlock: XIVTED_clean_linker_0, # of connection points: 2
#     Edge 42, Type (0, 0), BuildingBlock: XIVTED_clean_linker_0, # of connection points: 2
#     Edge 43, Type (0, 0), BuildingBlock: XIVTED_clean_linker_0, # of connection points: 2
#     Edge 44, Type (0, 0), BuildingBlock: XIVTED_clean_linker_0, # of connection points: 2
#     Edge 45, Type (0, 0), BuildingBlock: XIVTED_clean_linker_0, # of connection points: 2
#     Edge 46, Type (0, 0), BuildingBlock: XIVTED_clean_linker_0, # of connection points: 2
#     Edge 47, Type (0, 0), BuildingBlock: XIVTED_clean_linker_0, # of connection points: 2
#     Edge 48, Type (0, 0), BuildingBlock: XIVTED_clean_linker_0, # of connection points: 2
#     Edge 49, Type (0, 0), BuildingBlock: XIVTED_clean_linker_0, # of connection points: 2
#     Edge 50, Type (0, 0), BuildingBlock: XIVTED_clean_linker_0, # of connection points: 2
#     Edge 51, Type (0, 0), BuildingBlock: XIVTED_clean_linker_0, # of connection points: 2
#     Edge 52, Type (0, 0), BuildingBlock: XIVTED_clean_linker_0, # of connection points: 2
#     Edge 53, Type (0, 0), BuildingBlock: XIVTED_clean_linker_0, # of connection points: 2
#     Edge 54, Type (0, 0), BuildingBlock: XIVTED_clean_linker_0, # of connection points: 2
#     Edge 55, Type (0, 0), BuildingBlock: XIVTED_clean_linker_0, # of connection points: 2
#     Edge 56, Type (0, 0), BuildingBlock: XIVTED_clean_linker_0, # of connection points: 2
#     Edge 57, Type (0, 0), BuildingBlock: XIVTED_clean_linker_0, # of connection points: 2
#     Edge 58, Type (0, 0), BuildingBlock: XIVTED_clean_linker_0, # of connection points: 2
#     Edge 59, Type (0, 0), BuildingBlock: XIVTED_clean_linker_0, # of connection points: 2
#     Edge 60, Type (0, 0), BuildingBlock: XIVTED_clean_linker_0, # of connection points: 2
#     Edge 61, Type (0, 0), BuildingBlock: XIVTED_clean_linker_0, # of connection points: 2
#     Edge 62, Type (0, 0), BuildingBlock: XIVTED_clean_linker_0, # of connection points: 2
#     Edge 63, Type (0, 0), BuildingBlock: XIVTED_clean_linker_0, # of connection points: 2
#     Edge 64, Type (0, 0), BuildingBlock: XIVTED_clean_linker_0, # of connection points: 2
#     Edge 65, Type (0, 0), BuildingBlock: XIVTED_clean_linker_0, # of connection points: 2
#     Edge 66, Type (0, 0), BuildingBlock: XIVTED_clean_linker_0, # of connection points: 2
#     Edge 67, Type (0, 0), BuildingBlock: XIVTED_clean_linker_0, # of connection points: 2
#     Edge 68, Type (0, 0), BuildingBlock: XIVTED_clean_linker_0, # of connection points: 2
#     Edge 69, Type (0, 0), BuildingBlock: XIVTED_clean_linker_0, # of connection points: 2
#     Edge 70, Type (0, 0), BuildingBlock: XIVTED_clean_linker_0, # of connection points: 2
#     Edge 71, Type (0, 0), BuildingBlock: XIVTED_clean_linker_0, # of connection points: 2
# Relax obj value: 0.098
# Max RMSD: 0.124
# Mean RMSD: 0.123
data_MOF--net-afi--node1-AZAVOO_clean_sbu_0--edge1-XIVTED_clean_linker_0
_symmetry_space_group_name_H-M    P1
_symmetry_Int_Tables_number       1
_symmetry_cell_setting            triclinic
loop_
_symmetry_equiv_pos_as_xyz
'x, y, z'
_cell_length_a     65.582293
_cell_length_b     65.627515
_cell_length_c     42.77681
_cell_angle_alpha  90.097773
_cell_angle_beta   89.971614
_cell_angle_gamma 119.96271
loop_
_atom_site_label
_atom_site_type_symbol
_atom_site_fract_x
_atom_site_fract_y
_atom_site_fract_z
_atom_type_partial_charge
Mg0 Mg 0.44229 0.10816 0.17576 0.0
O1 O 0.46905 0.09949 0.19807 0.0
O2 O 0.4612 0.06448 0.17897 0.0
Mg3 Mg 0.42829 0.04932 0.14865 0.0
C4 C 0.47364 0.08278 0.19551 0.0
C5 C 0.46417 0.16267 0.17533 0.0
O6 O 0.45496 0.15738 0.14716 0.0
O7 O 0.46214 0.11516 0.12929 0.0
O8 O 0.45054 0.07827 0.11409 0.0
O9 O 0.41655 0.0899 0.2146 0.0
O10 O 0.41798 0.07277 0.17089 0.0
C11 C 0.46196 0.10044 0.10944 0.0
C12 C 0.40874 0.07097 0.19791 0.0
O13 O 0.46333 0.14639 0.19232 0.0
Mg14 Mg 0.32545 0.44198 0.17487 0.0
O15 O 0.36017 0.47152 0.19552 0.0
O16 O 0.38913 0.46616 0.17704 0.0
Mg17 Mg 0.37341 0.43252 0.1481 0.0
C18 C 0.38194 0.47781 0.19296 0.0
C19 C 0.30535 0.46546 0.21881 0.0
O20 O 0.31828 0.46132 0.23838 0.0
O21 O 0.33559 0.46012 0.12698 0.0
O22 O 0.36318 0.45144 0.11239 0.0
O23 O 0.32129 0.41844 0.21534 0.0
O24 O 0.33959 0.42005 0.17135 0.0
C25 C 0.35046 0.46074 0.10703 0.0
C26 C 0.33348 0.41168 0.19903 0.0
O27 O 0.30559 0.4608 0.18998 0.0
Mg28 Mg 0.87456 0.31945 0.16418 0.0
O29 O 0.88574 0.35637 0.18428 0.0
O30 O 0.92324 0.37971 0.16978 0.0
Mg31 Mg 0.93547 0.3595 0.1393 0.0
C32 C 0.90468 0.3764 0.18394 0.0
C33 C 0.83007 0.30269 0.20611 0.0
O34 O 0.84673 0.31209 0.22736 0.0
O35 O 0.87028 0.33253 0.11646 0.0
O36 O 0.9081 0.35605 0.10365 0.0
O37 O 0.89026 0.31144 0.20581 0.0
O38 O 0.90931 0.3274 0.16201 0.0
C39 C 0.88617 0.34677 0.09762 0.0
C40 C 0.90977 0.32102 0.1902 0.0
O41 O 0.83591 0.30482 0.17743 0.0
Mg42 Mg 0.55218 0.88057 0.16598 0.0
O43 O 0.52663 0.89002 0.1907 0.0
O44 O 0.53814 0.92728 0.17797 0.0
Mg45 Mg 0.56927 0.94132 0.14471 0.0
C46 C 0.52432 0.90823 0.19228 0.0
C47 C 0.52717 0.83593 0.20777 0.0
O48 O 0.53484 0.85258 0.22909 0.0
O49 O 0.53227 0.87639 0.12045 0.0
O50 O 0.54452 0.91414 0.10939 0.0
O51 O 0.57839 0.89646 0.20516 0.0
O52 O 0.57786 0.91564 0.16315 0.0
C53 C 0.53235 0.89224 0.10296 0.0
C54 C 0.58694 0.91603 0.18983 0.0
O55 O 0.52985 0.84174 0.17907 0.0
Mg56 Mg 0.66948 0.5496 0.167 0.0
O57 O 0.63476 0.52021 0.1878 0.0
O58 O 0.60577 0.52532 0.16887 0.0
Mg59 Mg 0.62143 0.55862 0.13944 0.0
C60 C 0.61298 0.51384 0.18506 0.0
C61 C 0.68988 0.52685 0.21156 0.0
O62 O 0.67732 0.53161 0.23106 0.0
O63 O 0.65936 0.53092 0.11954 0.0
O64 O 0.63161 0.53917 0.10432 0.0
O65 O 0.67371 0.57349 0.20701 0.0
O66 O 0.65523 0.57147 0.16303 0.0
C67 C 0.6444 0.52987 0.09946 0.0
C68 C 0.6614 0.58006 0.19065 0.0
O69 O 0.68934 0.53092 0.18259 0.0
Mg70 Mg 0.11906 0.67424 0.16137 0.0
O71 O 0.11057 0.63863 0.1828 0.0
O72 O 0.07481 0.61192 0.16525 0.0
Mg73 Mg 0.05945 0.63002 0.13613 0.0
C74 C 0.0935 0.61749 0.18077 0.0
C75 C 0.16396 0.69275 0.20351 0.0
O76 O 0.1475 0.68279 0.2249 0.0
O77 O 0.12476 0.6616 0.11389 0.0
O78 O 0.08751 0.63638 0.10014 0.0
O79 O 0.10179 0.68143 0.20201 0.0
O80 O 0.08363 0.66344 0.15852 0.0
C81 C 0.10956 0.64707 0.09451 0.0
C82 C 0.08245 0.67043 0.18613 0.0
O83 O 0.15792 0.69104 0.17495 0.0
Mg84 Mg 0.88476 0.55087 0.29639 0.0
O85 O 0.8934 0.52403 0.27404 0.0
O86 O 0.92999 0.53425 0.28889 0.0
Mg87 Mg 0.94455 0.56626 0.32076 0.0
C88 C 0.91105 0.52074 0.27408 0.0
C89 C 0.83038 0.52844 0.29958 0.0
O90 O 0.83646 0.53765 0.32768 0.0
O91 O 0.879 0.53169 0.34295 0.0
O92 O 0.9163 0.5433 0.35609 0.0
O93 O 0.90204 0.57621 0.25674 0.0
O94 O 0.92015 0.57575 0.29993 0.0
C95 C 0.89424 0.53186 0.3618 0.0
C96 C 0.9213 0.58455 0.27279 0.0
O97 O 0.8462 0.52935 0.28148 0.0
Mg98 Mg 0.32817 0.87721 0.31313 0.0
O99 O 0.36416 0.88795 0.29043 0.0
O100 O 0.38829 0.92558 0.30349 0.0
Mg101 Mg 0.36925 0.93866 0.33491 0.0
C102 C 0.38429 0.90671 0.28957 0.0
C103 C 0.3108 0.83263 0.27166 0.0
O104 O 0.32009 0.84929 0.25047 0.0
O105 O 0.34321 0.87407 0.35996 0.0
O106 O 0.36689 0.9122 0.37117 0.0
O107 O 0.31807 0.89215 0.27253 0.0
O108 O 0.33603 0.91185 0.3152 0.0
C109 C 0.35792 0.89044 0.37794 0.0
C110 C 0.32797 0.91178 0.2879 0.0
O111 O 0.31319 0.83846 0.30037 0.0
Mg112 Mg 0.44488 0.32283 0.31192 0.0
O113 O 0.47406 0.35777 0.29123 0.0
O114 O 0.46818 0.38643 0.30956 0.0
Mg115 Mg 0.43495 0.37044 0.33917 0.0
C116 C 0.47999 0.37945 0.29364 0.0
C117 C 0.46843 0.30354 0.26695 0.0
O118 O 0.46421 0.3168 0.24811 0.0
O119 O 0.46344 0.33312 0.35963 0.0
O120 O 0.45502 0.36096 0.37396 0.0
O121 O 0.42097 0.31846 0.27181 0.0
O122 O 0.42262 0.33663 0.31597 0.0
C123 C 0.46449 0.3484 0.37922 0.0
C124 C 0.41414 0.33051 0.28832 0.0
O125 O 0.46387 0.3033 0.29591 0.0
Mg126 Mg 0.10885 0.44299 0.30006 0.0
O127 O 0.10252 0.47132 0.27785 0.0
O128 O 0.06824 0.46574 0.29679 0.0
Mg129 Mg 0.0511 0.43262 0.32666 0.0
C130 C 0.0868 0.4773 0.28038 0.0
C131 C 0.16319 0.46314 0.30246 0.0
O132 O 0.15731 0.45459 0.33087 0.0
O133 O 0.11663 0.46247 0.34685 0.0
O134 O 0.08028 0.45306 0.36203 0.0
O135 O 0.08987 0.4179 0.26084 0.0
O136 O 0.07295 0.42032 0.30418 0.0
C137 C 0.10244 0.46314 0.36681 0.0
C138 C 0.07089 0.41096 0.27714 0.0
O139 O 0.14736 0.46234 0.28449 0.0
Mg140 Mg 0.67018 0.1103 0.30955 0.0
O141 O 0.6345 0.10176 0.28816 0.0
O142 O 0.60794 0.06592 0.30544 0.0
Mg143 Mg 0.6263 0.05033 0.33366 0.0
C144 C 0.61337 0.08466 0.29023 0.0
C145 C 0.68826 0.15563 0.26851 0.0
O146 O 0.67789 0.13942 0.24685 0.0
O147 O 0.65724 0.11522 0.35713 0.0
O148 O 0.63252 0.0778 0.37058 0.0
O149 O 0.6779 0.09367 0.26863 0.0
O150 O 0.6597 0.07499 0.3117 0.0
C151 C 0.643 0.09981 0.37648 0.0
C152 C 0.66707 0.0742 0.28421 0.0
O153 O 0.68688 0.14927 0.29687 0.0
Mg154 Mg 0.55398 0.67072 0.31137 0.0
O155 O 0.52387 0.63587 0.29198 0.0
O156 O 0.53008 0.60721 0.30932 0.0
Mg157 Mg 0.56477 0.62329 0.33606 0.0
C158 C 0.5178 0.61416 0.29447 0.0
C159 C 0.52941 0.69225 0.27116 0.0
O160 O 0.53406 0.68118 0.24915 0.0
O161 O 0.53772 0.66077 0.36031 0.0
O162 O 0.54716 0.63356 0.37383 0.0
O163 O 0.57605 0.67468 0.26904 0.0
O164 O 0.57611 0.65682 0.31265 0.0
C165 C 0.53797 0.64626 0.38007 0.0
C166 C 0.58345 0.66269 0.28452 0.0
O167 O 0.53429 0.69029 0.29938 0.0
Mg168 Mg 0.54249 0.87418 0.81925 0.0
O169 O 0.50732 0.86127 0.79406 0.0
O170 O 0.48367 0.82347 0.80663 0.0
Mg171 Mg 0.50363 0.81178 0.83869 0.0
C172 C 0.48756 0.84217 0.79242 0.0
C173 C 0.57641 0.92409 0.80197 0.0
O174 O 0.5891 0.91416 0.80802 0.0
O175 O 0.52484 0.87517 0.86462 0.0
O176 O 0.5036 0.83679 0.8759 0.0
O177 O 0.55693 0.8626 0.78017 0.0
O178 O 0.53659 0.84019 0.82004 0.0
C179 C 0.51098 0.85835 0.8826 0.0
C180 C 0.54695 0.84229 0.79376 0.0
O181 O 0.5543 0.91213 0.80618 0.0
Mg182 Mg 0.67467 0.54278 0.81228 0.0
O183 O 0.65178 0.507 0.78936 0.0
O184 O 0.66813 0.4847 0.79773 0.0
Mg185 Mg 0.70217 0.50664 0.82533 0.0
C186 C 0.65174 0.48763 0.78649 0.0
C187 C 0.65462 0.57454 0.80402 0.0
O188 O 0.67669 0.58808 0.81242 0.0
O189 O 0.66069 0.52606 0.85986 0.0
O190 O 0.68024 0.50652 0.86709 0.0
O191 O 0.69687 0.5564 0.76953 0.0
O192 O 0.70405 0.53909 0.8089 0.0
C193 C 0.66614 0.51334 0.87662 0.0
C194 C 0.70971 0.54859 0.78171 0.0
O195 O 0.6463 0.55243 0.80367 0.0
Mg196 Mg 0.12589 0.66814 0.80697 0.0
O197 O 0.13917 0.64582 0.78284 0.0
O198 O 0.17741 0.6613 0.794 0.0
Mg199 Mg 0.18905 0.69415 0.82384 0.0
C200 C 0.15853 0.64566 0.78088 0.0
C201 C 0.07476 0.64973 0.79414 0.0
O202 O 0.08357 0.67186 0.80238 0.0
O203 O 0.12681 0.65196 0.85372 0.0
O204 O 0.16555 0.67095 0.86338 0.0
O205 O 0.13559 0.69242 0.7662 0.0
O206 O 0.15945 0.69694 0.80546 0.0
C207 C 0.14433 0.65666 0.87145 0.0
C208 C 0.15623 0.7039 0.77882 0.0
O209 O 0.08794 0.6407 0.79575 0.0
Mg210 Mg 0.46062 0.12739 0.82382 0.0
O211 O 0.49591 0.1407 0.79871 0.0
O212 O 0.5199 0.17758 0.81528 0.0
Mg213 Mg 0.49907 0.18944 0.8455 0.0
C214 C 0.51597 0.15949 0.79943 0.0
C215 C 0.42669 0.07773 0.8056 0.0
O216 O 0.4141 0.08765 0.81248 0.0
O217 O 0.47749 0.1259 0.86988 0.0
O218 O 0.49745 0.16404 0.88294 0.0
O219 O 0.44641 0.13922 0.78498 0.0
O220 O 0.46645 0.16135 0.82529 0.0
C221 C 0.49017 0.14245 0.88904 0.0
C222 C 0.45614 0.15939 0.79901 0.0
O223 O 0.44882 0.08955 0.80981 0.0
Mg224 Mg 0.32498 0.45314 0.81626 0.0
O225 O 0.34903 0.48918 0.7943 0.0
O226 O 0.33401 0.51238 0.80521 0.0
Mg227 Mg 0.29978 0.49111 0.83247 0.0
C228 C 0.34983 0.50901 0.79291 0.0
C229 C 0.34206 0.42047 0.79773 0.0
O230 O 0.31899 0.40798 0.7994 0.0
O231 O 0.33951 0.46864 0.8644 0.0
O232 O 0.32086 0.48882 0.87352 0.0
O233 O 0.30231 0.44031 0.77371 0.0
O234 O 0.29672 0.45887 0.81308 0.0
C235 C 0.33442 0.48113 0.88224 0.0
C236 C 0.29066 0.44949 0.78581 0.0
O237 O 0.35211 0.4419 0.8062 0.0
Mg238 Mg 0.87434 0.33827 0.81015 0.0
O239 O 0.85993 0.36 0.78772 0.0
O240 O 0.82157 0.34386 0.79799 0.0
Mg241 Mg 0.81118 0.31122 0.82775 0.0
C242 C 0.84047 0.35986 0.78545 0.0
C243 C 0.91621 0.37246 0.7697 0.0
O244 O 0.89897 0.36251 0.74933 0.0
O245 O 0.87359 0.35363 0.85775 0.0
O246 O 0.83479 0.33483 0.86708 0.0
O247 O 0.86361 0.31426 0.76868 0.0
O248 O 0.84123 0.30875 0.81003 0.0
C249 C 0.85601 0.349 0.87535 0.0
C250 C 0.84367 0.30195 0.78285 0.0
O251 O 0.91177 0.36706 0.79844 0.0
Mg252 Mg 0.1235 0.45208 0.65326 0.0
O253 O 0.13771 0.48824 0.6758 0.0
O254 O 0.17615 0.51041 0.6658 0.0
Mg255 Mg 0.18705 0.48791 0.63728 0.0
C256 C 0.15714 0.50758 0.67802 0.0
C257 C 0.08148 0.44622 0.69158 0.0
O258 O 0.09852 0.4535 0.71227 0.0
O259 O 0.12545 0.46876 0.60586 0.0
O260 O 0.1643 0.48811 0.59689 0.0
O261 O 0.13263 0.43807 0.69533 0.0
O262 O 0.15677 0.45605 0.65577 0.0
C263 C 0.1432 0.4814 0.58839 0.0
C264 C 0.15334 0.44678 0.68306 0.0
O265 O 0.08595 0.44404 0.6632 0.0
Mg266 Mg 0.67188 0.12669 0.66412 0.0
O267 O 0.64989 0.14071 0.68721 0.0
O268 O 0.66328 0.17756 0.67049 0.0
Mg269 Mg 0.69588 0.18827 0.64047 0.0
C270 C 0.64884 0.15959 0.68622 0.0
C271 C 0.65528 0.07797 0.68746 0.0
O272 O 0.67821 0.088 0.68403 0.0
O273 O 0.65398 0.12418 0.61738 0.0
O274 O 0.67175 0.16217 0.60373 0.0
O275 O 0.69713 0.13993 0.70387 0.0
O276 O 0.70049 0.16034 0.6612 0.0
C277 C 0.65758 0.14046 0.59796 0.0
C278 C 0.70825 0.15942 0.68841 0.0
O279 O 0.64521 0.08939 0.6793 0.0
Mg280 Mg 0.5466 0.6704 0.67184 0.0
O281 O 0.5103 0.64639 0.69355 0.0
O282 O 0.48749 0.66191 0.68297 0.0
Mg283 Mg 0.50887 0.69587 0.65549 0.0
C284 C 0.4906 0.64591 0.69512 0.0
C285 C 0.57908 0.65343 0.6911 0.0
O286 O 0.59137 0.67652 0.69014 0.0
O287 O 0.53145 0.65604 0.62347 0.0
O288 O 0.51088 0.67433 0.61485 0.0
O289 O 0.55908 0.69295 0.71465 0.0
O290 O 0.54088 0.69859 0.67492 0.0
C291 C 0.51864 0.66088 0.60591 0.0
C292 C 0.54989 0.7045 0.70238 0.0
O293 O 0.55781 0.64329 0.68192 0.0
Mg294 Mg 0.87761 0.54956 0.64503 0.0
O295 O 0.86309 0.51461 0.67074 0.0
O296 O 0.82458 0.49255 0.66119 0.0
Mg297 Mg 0.81434 0.51351 0.62856 0.0
C298 C 0.84344 0.49567 0.67421 0.0
C299 C 0.92692 0.58013 0.66655 0.0
O300 O 0.91759 0.59363 0.6628 0.0
O301 O 0.87647 0.53086 0.59955 0.0
O302 O 0.83761 0.51097 0.59063 0.0
O303 O 0.86771 0.56464 0.68487 0.0
O304 O 0.84456 0.54651 0.64452 0.0
C305 C 0.8587 0.51714 0.58269 0.0
C306 C 0.84748 0.55649 0.6713 0.0
O307 O 0.91491 0.55868 0.65835 0.0
Mg308 Mg 0.32939 0.87731 0.6626 0.0
O309 O 0.35131 0.864 0.6877 0.0
O310 O 0.33626 0.82584 0.67647 0.0
Mg311 Mg 0.30437 0.81431 0.64487 0.0
C312 C 0.35154 0.8447 0.68997 0.0
C313 C 0.34674 0.92688 0.68369 0.0
O314 O 0.32379 0.91707 0.68076 0.0
O315 O 0.34728 0.87713 0.61685 0.0
O316 O 0.32941 0.83842 0.60727 0.0
O317 O 0.30388 0.86651 0.70235 0.0
O318 O 0.30082 0.84357 0.66254 0.0
C319 C 0.34378 0.85969 0.59963 0.0
C320 C 0.29316 0.84608 0.68906 0.0
O321 O 0.35645 0.91511 0.67549 0.0
Mg322 Mg 0.45272 0.32654 0.67084 0.0
O323 O 0.48945 0.35028 0.69157 0.0
O324 O 0.51124 0.3335 0.68153 0.0
Mg325 Mg 0.48862 0.29881 0.6559 0.0
C326 C 0.50887 0.35018 0.693 0.0
C327 C 0.4203 0.34537 0.68147 0.0
O328 O 0.40708 0.32284 0.67527 0.0
O329 O 0.46778 0.33932 0.62206 0.0
O330 O 0.4869 0.31946 0.61398 0.0
O331 O 0.44017 0.30544 0.7147 0.0
O332 O 0.4575 0.29796 0.67547 0.0
C333 C 0.47976 0.3333 0.60461 0.0
C334 C 0.44889 0.2932 0.70321 0.0
O335 O 0.44249 0.35456 0.67919 0.0
H336 H 0.38435 0.0302 0.16502 0.0
H337 H 0.3374 0.95178 0.31835 0.0
H338 H 0.39367 0.0586 0.25837 0.0
H339 H 0.33016 0.92294 0.22564 0.0
H340 H 0.35211 0.99068 0.29583 0.0
H341 H 0.3591 0.99086 0.18583 0.0
C342 C 0.38102 0.02816 0.18994 0.0
C343 C 0.39153 0.04762 0.21014 0.0
C344 C 0.34708 0.97586 0.28032 0.0
C345 C 0.36249 0.00262 0.23405 0.0
C346 C 0.33869 0.95363 0.29315 0.0
C347 C 0.33299 0.93424 0.27379 0.0
C348 C 0.34999 0.97878 0.24786 0.0
C349 C 0.33454 0.9375 0.24135 0.0
C350 C 0.36649 0.00569 0.20176 0.0
C351 C 0.38612 0.04403 0.24204 0.0
N352 N 0.34326 0.95949 0.22937 0.0
N353 N 0.37217 0.02188 0.25309 0.0
H354 H 0.39094 0.34855 0.32047 0.0
H355 H 0.35148 0.38841 0.16704 0.0
H356 H 0.40253 0.33166 0.22697 0.0
H357 H 0.33463 0.4002 0.26046 0.0
H358 H 0.36825 0.36568 0.18855 0.0
H359 H 0.36835 0.36554 0.29903 0.0
C360 C 0.3887 0.34839 0.29537 0.0
C361 C 0.39891 0.339 0.27539 0.0
C362 C 0.36078 0.3731 0.20439 0.0
C363 C 0.37297 0.35836 0.2507 0.0
C364 C 0.35129 0.38619 0.19214 0.0
C365 C 0.34196 0.39649 0.21207 0.0
C366 C 0.3611 0.37037 0.23686 0.0
C367 C 0.34177 0.39266 0.24431 0.0
C368 C 0.37569 0.358 0.28317 0.0
C369 C 0.39505 0.33884 0.24316 0.0
N370 N 0.35142 0.38006 0.25575 0.0
N371 N 0.38254 0.3486 0.23177 0.0
H372 H 0.92081 0.3266 0.25269 0.0
H373 H 0.05907 0.39332 0.2176 0.0
H374 H 0.95076 0.3318 0.1612 0.0
H375 H 0.02933 0.38948 0.30893 0.0
H376 H 0.01952 0.36658 0.19764 0.0
H377 H 0.96046 0.3449 0.27517 0.0
C378 C 0.93568 0.33122 0.23744 0.0
C379 C 0.93262 0.3281 0.20503 0.0
C380 C 0.02168 0.37152 0.2221 0.0
C381 C 0.97786 0.34919 0.23034 0.0
C382 C 0.04424 0.3868 0.23346 0.0
C383 C 0.04742 0.39398 0.2648 0.0
C384 C 0.00221 0.36338 0.24227 0.0
C385 C 0.02763 0.38482 0.28442 0.0
C386 C 0.9583 0.34179 0.2502 0.0
C387 C 0.95244 0.33436 0.18628 0.0
N388 N 0.00586 0.37013 0.27279 0.0
N389 N 0.97423 0.34483 0.19915 0.0
H390 H 0.61434 0.9569 0.15892 0.0
H391 H 0.65319 0.03313 0.31491 0.0
H392 H 0.59933 0.92688 0.2515 0.0
H393 H 0.66739 0.06314 0.22232 0.0
H394 H 0.63867 0.99428 0.29211 0.0
H395 H 0.63902 0.99573 0.18161 0.0
C396 C 0.6164 0.95848 0.18409 0.0
C397 C 0.60442 0.93874 0.20346 0.0
C398 C 0.64514 0.00934 0.27673 0.0
C399 C 0.63263 0.98318 0.22959 0.0
C400 C 0.65335 0.03154 0.28971 0.0
C401 C 0.66104 0.0513 0.27039 0.0
C402 C 0.64447 0.00682 0.24414 0.0
C403 C 0.6614 0.04831 0.23801 0.0
C404 C 0.63055 0.98067 0.19701 0.0
C405 C 0.60811 0.9417 0.23579 0.0
N406 N 0.6529 0.02639 0.22584 0.0
N407 N 0.62167 0.96361 0.24791 0.0
H408 H 0.60885 0.64641 0.31461 0.0
H409 H 0.64133 0.6017 0.15921 0.0
H410 H 0.59173 0.65952 0.22215 0.0
H411 H 0.66246 0.59337 0.25167 0.0
H412 H 0.62503 0.62479 0.18132 0.0
H413 H 0.63057 0.62905 0.29156 0.0
C414 C 0.60971 0.64566 0.28937 0.0
C415 C 0.5982 0.65411 0.27022 0.0
C416 C 0.63333 0.61803 0.19677 0.0
C417 C 0.62311 0.63422 0.24362 0.0
C418 C 0.64253 0.60472 0.1842 0.0
C419 C 0.65294 0.59529 0.20373 0.0
C420 C 0.63445 0.62187 0.22914 0.0
C421 C 0.65445 0.60018 0.23581 0.0
C422 C 0.62221 0.63582 0.27623 0.0
C423 C 0.60027 0.6531 0.23772 0.0
N424 N 0.64512 0.61299 0.24756 0.0
N425 N 0.61231 0.64308 0.2254 0.0
H426 H 0.07088 0.6694 0.24806 0.0
H427 H 0.93275 0.59863 0.21177 0.0
H428 H 0.04126 0.65568 0.15516 0.0
H429 H 0.96236 0.61009 0.30456 0.0
H430 H 0.97226 0.62447 0.19091 0.0
H431 H 0.03112 0.65281 0.26967 0.0
C432 C 0.05605 0.66317 0.23225 0.0
C433 C 0.05927 0.66346 0.19985 0.0
C434 C 0.97006 0.62145 0.21588 0.0
C435 C 0.01389 0.64442 0.22421 0.0
C436 C 0.94752 0.60674 0.22775 0.0
C437 C 0.94438 0.60184 0.25981 0.0
C438 C 0.9895 0.6313 0.23628 0.0
C439 C 0.96408 0.61295 0.27955 0.0
C440 C 0.03336 0.65364 0.24454 0.0
C441 C 0.03949 0.65529 0.18034 0.0
N442 N 0.98582 0.62698 0.26745 0.0
N443 N 0.01763 0.64589 0.19283 0.0
H444 H 0.62308 0.95339 0.79121 0.0
H445 H 0.60818 0.05278 0.7031 0.0
H446 H 0.55539 0.94841 0.77899 0.0
H447 H 0.67279 0.05055 0.70799 0.0
H448 H 0.58823 0.01559 0.73225 0.0
H449 H 0.64147 0.99053 0.76327 0.0
C450 C 0.61205 0.96018 0.78281 0.0
C451 C 0.58762 0.94768 0.78738 0.0
C452 C 0.60675 0.02327 0.72681 0.0
C453 C 0.60868 0.99039 0.75493 0.0
C454 C 0.61812 0.04443 0.71011 0.0
C455 C 0.64221 0.05483 0.70312 0.0
C456 C 0.61963 0.01257 0.73663 0.0
C457 C 0.65424 0.04328 0.71285 0.0
C458 C 0.62259 0.98141 0.76669 0.0
C459 C 0.5743 0.95747 0.77598 0.0
N460 N 0.64285 0.02289 0.72913 0.0
N461 N 0.585 0.97825 0.76015 0.0
H462 H 0.66777 0.62096 0.80289 0.0
H463 H 0.55838 0.60562 0.70152 0.0
H464 H 0.61145 0.55272 0.77447 0.0
H465 H 0.62286 0.67134 0.71606 0.0
H466 H 0.57525 0.58539 0.73098 0.0
H467 H 0.64861 0.63926 0.77555 0.0
C468 C 0.65124 0.60977 0.7911 0.0
C469 C 0.64131 0.58526 0.79079 0.0
C470 C 0.58566 0.60422 0.72755 0.0
C471 C 0.61928 0.60623 0.75898 0.0
C472 C 0.57609 0.61576 0.71067 0.0
C473 C 0.58921 0.64023 0.70632 0.0
C474 C 0.60837 0.61733 0.74031 0.0
C475 C 0.61204 0.65248 0.71879 0.0
C476 C 0.64034 0.62027 0.77531 0.0
C477 C 0.61974 0.5717 0.77524 0.0
N478 N 0.62079 0.64094 0.73527 0.0
N479 N 0.60948 0.58238 0.75976 0.0
H480 H 0.9508 0.55695 0.68293 0.0
H481 H 0.04304 0.66469 0.78806 0.0
H482 H 0.95395 0.62409 0.69038 0.0
H483 H 0.05346 0.60652 0.7646 0.0
H484 H 0.00717 0.64688 0.75713 0.0
H485 H 0.98616 0.57232 0.71597 0.0
C486 C 0.95899 0.57493 0.69126 0.0
C487 C 0.94936 0.58924 0.68389 0.0
C488 C 0.01722 0.63791 0.75876 0.0
C489 C 0.98937 0.60668 0.72197 0.0
C490 C 0.03769 0.64803 0.77661 0.0
C491 C 0.05143 0.6372 0.77875 0.0
C492 C 0.01026 0.61672 0.74282 0.0
C493 C 0.04343 0.61551 0.76351 0.0
C494 C 0.97909 0.58363 0.71018 0.0
C495 C 0.96065 0.61236 0.69542 0.0
N496 N 0.02339 0.606 0.746 0.0
N497 N 0.9799 0.62025 0.71395 0.0
H498 H 0.37997 0.04884 0.79458 0.0
H499 H 0.3938 0.9511 0.69982 0.0
H500 H 0.4475 0.05385 0.78021 0.0
H501 H 0.33003 0.9549 0.70477 0.0
H502 H 0.41406 0.98756 0.73063 0.0
H503 H 0.36143 0.01261 0.76445 0.0
C504 C 0.39093 0.04225 0.78524 0.0
C505 C 0.41537 0.05451 0.78985 0.0
C506 C 0.39566 0.9804 0.72479 0.0
C507 C 0.39413 0.01285 0.75486 0.0
C508 C 0.38412 0.95967 0.70712 0.0
C509 C 0.36015 0.94988 0.69974 0.0
C510 C 0.38308 0.99127 0.73523 0.0
C511 C 0.34847 0.96169 0.70992 0.0
C512 C 0.38031 0.02154 0.76786 0.0
C513 C 0.42859 0.04497 0.77722 0.0
N514 N 0.36 0.98163 0.72719 0.0
N515 N 0.4178 0.0247 0.76018 0.0
H516 H 0.38952 0.44197 0.78406 0.0
H517 H 0.37362 0.33044 0.68722 0.0
H518 H 0.32447 0.37593 0.77565 0.0
H519 H 0.44214 0.3897 0.70796 0.0
H520 H 0.3555 0.34935 0.71567 0.0
H521 H 0.40949 0.42506 0.75397 0.0
C522 C 0.37949 0.4239 0.77616 0.0
C523 C 0.35526 0.41037 0.78236 0.0
C524 C 0.37451 0.35833 0.71399 0.0
C525 C 0.37784 0.39113 0.74763 0.0
C526 C 0.3849 0.34757 0.69755 0.0
C527 C 0.40947 0.35841 0.69534 0.0
C528 C 0.38871 0.38019 0.72846 0.0
C529 C 0.42312 0.38069 0.70911 0.0
C530 C 0.39087 0.41431 0.75889 0.0
C531 C 0.34313 0.38709 0.77143 0.0
N532 N 0.41255 0.39083 0.72526 0.0
N533 N 0.35451 0.37831 0.75455 0.0
H534 H 0.04131 0.42907 0.656 0.0
H535 H 0.95664 0.39505 0.80474 0.0
H536 H 0.06641 0.4467 0.75097 0.0
H537 H 0.93165 0.38374 0.70943 0.0
H538 H 0.9971 0.41614 0.78535 0.0
H539 H 0.00111 0.41434 0.67482 0.0
C540 C 0.03841 0.43001 0.68076 0.0
C541 C 0.05725 0.43895 0.70195 0.0
C542 C 0.98276 0.40922 0.76868 0.0
C543 C 0.01129 0.42203 0.72369 0.0
C544 C 0.95964 0.39719 0.77976 0.0
C545 C 0.94071 0.38743 0.75869 0.0
C546 C 0.987 0.41137 0.7363 0.0
C547 C 0.94568 0.39083 0.72655 0.0
C548 C 0.01544 0.4216 0.6915 0.0
C549 C 0.05243 0.43981 0.73377 0.0
N550 N 0.96832 0.40232 0.71634 0.0
N551 N 0.02994 0.43129 0.74368 0.0
H552 H 0.47568 0.17723 0.23628 0.0
H553 H 0.47734 0.2983 0.20587 0.0
H554 H 0.46948 0.20178 0.14516 0.0
H555 H 0.47348 0.26956 0.2978 0.0
H556 H 0.48186 0.26659 0.18341 0.0
H557 H 0.48221 0.21428 0.25899 0.0
C558 C 0.47605 0.19053 0.22095 0.0
C559 C 0.47173 0.18624 0.18877 0.0
C560 C 0.48027 0.26733 0.20853 0.0
C561 C 0.47909 0.22865 0.2147 0.0
C562 C 0.47774 0.2855 0.22142 0.0
C563 C 0.47471 0.28646 0.25378 0.0
C564 C 0.47975 0.24991 0.22808 0.0
C565 C 0.47557 0.26943 0.27271 0.0
C566 C 0.47969 0.21165 0.23398 0.0
C567 C 0.47248 0.20418 0.17011 0.0
N568 N 0.47776 0.25172 0.25955 0.0
N569 N 0.47585 0.22448 0.18337 0.0
H570 H 0.17911 0.47405 0.242 0.0
H571 H 0.29868 0.4742 0.27943 0.0
H572 H 0.20137 0.46791 0.33475 0.0
H573 H 0.27239 0.471 0.18599 0.0
H574 H 0.26666 0.47907 0.29997 0.0
H575 H 0.21649 0.48003 0.2213 0.0
C576 C 0.19197 0.47429 0.25809 0.0
C577 C 0.18694 0.47017 0.29015 0.0
C578 C 0.26801 0.47754 0.27495 0.0
C579 C 0.22975 0.47691 0.26654 0.0
C580 C 0.28636 0.47481 0.26316 0.0
C581 C 0.28809 0.47187 0.23093 0.0
C582 C 0.25119 0.4773 0.25441 0.0
C583 C 0.27165 0.473 0.21102 0.0
C584 C 0.21329 0.47763 0.24622 0.0
C585 C 0.20435 0.47076 0.30985 0.0
N586 N 0.25376 0.47538 0.22311 0.0
N587 N 0.22485 0.47384 0.2977 0.0
H588 H 0.69717 0.17491 0.20982 0.0
H589 H 0.81188 0.29213 0.26538 0.0
H590 H 0.71683 0.19286 0.30652 0.0
H591 H 0.79242 0.27416 0.16863 0.0
H592 H 0.77385 0.25917 0.28102 0.0
H593 H 0.72841 0.21405 0.19463 0.0
C594 C 0.70782 0.18718 0.22793 0.0
C595 C 0.70455 0.18041 0.25948 0.0
C596 C 0.77775 0.26261 0.25636 0.0
C597 C 0.74056 0.2253 0.24219 0.0
C598 C 0.79947 0.28151 0.24738 0.0
C599 C 0.80555 0.28575 0.21562 0.0
C600 C 0.76198 0.24772 0.23344 0.0
C601 C 0.78863 0.27145 0.19339 0.0
C602 C 0.72571 0.20955 0.21921 0.0
C603 C 0.71882 0.19718 0.28189 0.0
N604 N 0.76777 0.2529 0.20273 0.0
N605 N 0.73637 0.21871 0.27278 0.0
H606 H 0.5161 0.79804 0.16968 0.0
H607 H 0.52174 0.72096 0.31026 0.0
H608 H 0.522 0.81801 0.26689 0.0
H609 H 0.5205 0.7032 0.2128 0.0
H610 H 0.5151 0.75307 0.29519 0.0
H611 H 0.5108 0.75991 0.18545 0.0
C612 C 0.51591 0.7943 0.19436 0.0
C613 C 0.51985 0.81143 0.21697 0.0
C614 C 0.51602 0.742 0.2771 0.0
C615 C 0.514 0.76783 0.23517 0.0
C616 C 0.51977 0.7236 0.2857 0.0
C617 C 0.52202 0.70952 0.26274 0.0
C618 C 0.51455 0.74644 0.2453 0.0
C619 C 0.51914 0.71373 0.2313 0.0
C620 C 0.51296 0.77252 0.20335 0.0
C621 C 0.51929 0.80548 0.24861 0.0
N622 N 0.51582 0.73194 0.2235 0.0
N623 N 0.51673 0.78431 0.25674 0.0
H624 H 0.72155 0.51931 0.17864 0.0
H625 H 0.79207 0.52284 0.33232 0.0
H626 H 0.69756 0.51987 0.27247 0.0
H627 H 0.81437 0.51777 0.23909 0.0
H628 H 0.75501 0.51694 0.31093 0.0
H629 H 0.75316 0.51404 0.20019 0.0
C630 C 0.72272 0.51801 0.20375 0.0
C631 C 0.70702 0.52033 0.22377 0.0
C632 C 0.76787 0.51683 0.29514 0.0
C633 C 0.74331 0.51448 0.24862 0.0
C634 C 0.78906 0.52017 0.30738 0.0
C635 C 0.80651 0.52109 0.28746 0.0
C636 C 0.76411 0.5146 0.26267 0.0
C637 C 0.8015 0.51734 0.25534 0.0
C638 C 0.74081 0.51503 0.21605 0.0
C639 C 0.70936 0.5184 0.2561 0.0
N640 N 0.78091 0.51458 0.2439 0.0
N641 N 0.7273 0.51586 0.2675 0.0
H642 H 0.20194 0.71971 0.1658 0.0
H643 H 0.28269 0.79488 0.30912 0.0
H644 H 0.18248 0.70283 0.2627 0.0
H645 H 0.29948 0.81467 0.21231 0.0
H646 H 0.24961 0.75718 0.2924 0.0
H647 H 0.24103 0.75045 0.18229 0.0
C648 C 0.20596 0.72222 0.19054 0.0
C649 C 0.18873 0.70886 0.2129 0.0
C650 C 0.26073 0.76964 0.2748 0.0
C651 C 0.2335 0.7442 0.23196 0.0
C652 C 0.27971 0.79117 0.28434 0.0
C653 C 0.29371 0.80817 0.2621 0.0
C654 C 0.25566 0.76506 0.24279 0.0
C655 C 0.28902 0.80225 0.23031 0.0
C656 C 0.2283 0.73983 0.19995 0.0
C657 C 0.19508 0.71285 0.24462 0.0
N658 N 0.27024 0.78134 0.22163 0.0
N659 N 0.21683 0.73032 0.2532 0.0
H660 H 0.58569 0.74087 0.73354 0.0
H661 H 0.50974 0.79801 0.78826 0.0
H662 H 0.5125 0.71117 0.7091 0.0
H663 H 0.58363 0.8405 0.76707 0.0
H664 H 0.51036 0.76339 0.76822 0.0
H665 H 0.58518 0.77513 0.75615 0.0
C666 C 0.56949 0.7415 0.73333 0.0
C667 C 0.54917 0.72351 0.71926 0.0
C668 C 0.52642 0.78031 0.76795 0.0
C669 C 0.54843 0.76208 0.74484 0.0
C670 C 0.5261 0.79997 0.7795 0.0
C671 C 0.5467 0.82193 0.77941 0.0
C672 C 0.54761 0.78266 0.75688 0.0
C673 C 0.56738 0.82377 0.76727 0.0
C674 C 0.56927 0.76103 0.74588 0.0
C675 C 0.52861 0.72498 0.71927 0.0
N676 N 0.56741 0.80424 0.75672 0.0
N677 N 0.52871 0.74397 0.73198 0.0
H678 H 0.74485 0.54322 0.80644 0.0
H679 H 0.80698 0.55001 0.64466 0.0
H680 H 0.72087 0.55747 0.71957 0.0
H681 H 0.8429 0.5634 0.73333 0.0
H682 H 0.77336 0.54879 0.67118 0.0
H683 H 0.77896 0.54626 0.77937 0.0
C684 C 0.74671 0.54688 0.7816 0.0
C685 C 0.73 0.55002 0.76513 0.0
C686 C 0.78866 0.55211 0.68476 0.0
C687 C 0.76898 0.55355 0.73413 0.0
C688 C 0.80777 0.55271 0.66972 0.0
C689 C 0.82764 0.55669 0.68693 0.0
C690 C 0.78934 0.55519 0.71725 0.0
C691 C 0.8279 0.56029 0.71925 0.0
C692 C 0.76627 0.54878 0.76625 0.0
C693 C 0.7334 0.55495 0.73307 0.0
N694 N 0.80889 0.55925 0.73345 0.0
N695 N 0.7525 0.55643 0.71849 0.0
H696 H 0.28957 0.80372 0.699 0.0
H697 H 0.15501 0.73974 0.74868 0.0
H698 H 0.2531 0.84234 0.7135 0.0
H699 H 0.2015 0.71369 0.77375 0.0
H700 H 0.18893 0.77547 0.7276 0.0
H701 H 0.25554 0.76841 0.71959 0.0
C702 C 0.27432 0.80468 0.70654 0.0
C703 C 0.27387 0.82572 0.70447 0.0
C704 C 0.19161 0.76188 0.73778 0.0
C705 C 0.235 0.78561 0.72768 0.0
C706 C 0.17233 0.74151 0.74945 0.0
C707 C 0.17569 0.72407 0.76322 0.0
C708 C 0.21412 0.76437 0.73942 0.0
C709 C 0.19835 0.72703 0.76392 0.0
C710 C 0.255 0.78462 0.71839 0.0
C711 C 0.25397 0.82632 0.715 0.0
N712 N 0.21675 0.74681 0.75207 0.0
N713 N 0.23508 0.80638 0.72591 0.0
H714 H 0.41332 0.25681 0.73449 0.0
H715 H 0.49181 0.20481 0.79737 0.0
H716 H 0.48719 0.2886 0.71291 0.0
H717 H 0.41953 0.15969 0.76988 0.0
H718 H 0.49 0.23872 0.77708 0.0
H719 H 0.4149 0.2238 0.75936 0.0
C720 C 0.42989 0.25693 0.73546 0.0
C721 C 0.45011 0.27509 0.72153 0.0
C722 C 0.47455 0.22138 0.77558 0.0
C723 C 0.45208 0.23803 0.7497 0.0
C724 C 0.47554 0.20212 0.78724 0.0
C725 C 0.45575 0.1796 0.7853 0.0
C726 C 0.45348 0.21804 0.76257 0.0
C727 C 0.43517 0.17687 0.7715 0.0
C728 C 0.43073 0.23813 0.7493 0.0
C729 C 0.47118 0.27462 0.72304 0.0
N730 N 0.43447 0.19598 0.76083 0.0
N731 N 0.47167 0.25635 0.73698 0.0
H732 H 0.19601 0.48509 0.69366 0.0
H733 H 0.25638 0.41365 0.75208 0.0
H734 H 0.15517 0.41057 0.71109 0.0
H735 H 0.28073 0.485 0.78169 0.0
H736 H 0.22182 0.41263 0.72808 0.0
H737 H 0.23009 0.48591 0.71829 0.0
C738 C 0.19431 0.46893 0.70272 0.0
C739 C 0.173 0.44772 0.70037 0.0
C740 C 0.23477 0.42845 0.7399 0.0
C741 C 0.21168 0.44842 0.72794 0.0
C742 C 0.2545 0.42912 0.75326 0.0
C743 C 0.27114 0.44936 0.76905 0.0
C744 C 0.23217 0.44838 0.74182 0.0
C745 C 0.26801 0.46895 0.7702 0.0
C746 C 0.21364 0.46941 0.71683 0.0
C747 C 0.17141 0.42725 0.71275 0.0
N748 N 0.24891 0.46804 0.75657 0.0
N749 N 0.19068 0.42802 0.72575 0.0
H750 H 0.80483 0.26809 0.81217 0.0
H751 H 0.74027 0.19882 0.65764 0.0
H752 H 0.83765 0.2881 0.72132 0.0
H753 H 0.72239 0.16755 0.74949 0.0
H754 H 0.77382 0.23369 0.68015 0.0
H755 H 0.77206 0.23317 0.78903 0.0
C756 C 0.80508 0.26518 0.78727 0.0
C757 C 0.82391 0.28103 0.76854 0.0
C758 C 0.76258 0.21916 0.69532 0.0
C759 C 0.78647 0.24107 0.74201 0.0
C760 C 0.74337 0.19934 0.68258 0.0
C761 C 0.72851 0.18037 0.70183 0.0
C762 C 0.76672 0.2201 0.72756 0.0
C763 C 0.73344 0.18182 0.73387 0.0
C764 C 0.78644 0.24516 0.77416 0.0
C765 C 0.82345 0.27627 0.73652 0.0
N766 N 0.75209 0.20146 0.7458 0.0
N767 N 0.80489 0.2567 0.72416 0.0
H768 H 0.48436 0.14536 0.08539 0.0
H769 H 0.47646 0.09887 0.91393 0.0
H770 H 0.46723 0.07414 0.06417 0.0
H771 H 0.51326 0.17289 0.93705 0.0
H772 H 0.4767 0.08981 0.9692 0.0
H773 H 0.49874 0.15663 0.03185 0.0
C774 C 0.48392 0.13219 0.06968 0.0
C775 C 0.47406 0.10868 0.07908 0.0
C776 C 0.48509 0.10805 0.96208 0.0
C777 C 0.49027 0.12135 0.01793 0.0
C778 C 0.48495 0.11322 0.93049 0.0
C779 C 0.49433 0.13663 0.92089 0.0
C780 C 0.49437 0.12641 0.98415 0.0
C781 C 0.50537 0.15453 0.9434 0.0
C782 C 0.49217 0.13862 0.03914 0.0
C783 C 0.47419 0.09238 0.05781 0.0
N784 N 0.50465 0.14903 0.97407 0.0
N785 N 0.48177 0.09894 0.02811 0.0
H786 H 0.36629 0.4714 0.91018 0.0
H787 H 0.32248 0.47643 0.08056 0.0
H788 H 0.32031 0.49938 0.9295 0.0
H789 H 0.38286 0.46842 0.0619 0.0
H790 H 0.32293 0.48753 0.02581 0.0
H791 H 0.37437 0.4726 0.96607 0.0
C792 C 0.35813 0.47807 0.92609 0.0
C793 C 0.34234 0.48496 0.91514 0.0
C794 C 0.33627 0.48367 0.03391 0.0
C795 C 0.35125 0.48611 0.97913 0.0
C796 C 0.33601 0.47734 0.06515 0.0
C797 C 0.35233 0.47101 0.07571 0.0
C798 C 0.35283 0.48344 0.0132 0.0
C799 C 0.3696 0.47267 0.05472 0.0
C800 C 0.36277 0.47879 0.95801 0.0
C801 C 0.33244 0.49366 0.93686 0.0
N802 N 0.36917 0.47837 0.02441 0.0
N803 N 0.33675 0.49362 0.96787 0.0
H804 H 0.82341 0.34602 0.91784 0.0
H805 H 0.84224 0.32722 0.07073 0.0
H806 H 0.89768 0.3706 0.90783 0.0
H807 H 0.91513 0.37927 0.05503 0.0
H808 H 0.83317 0.33367 0.01765 0.0
H809 H 0.82858 0.35074 0.97425 0.0
C810 C 0.84088 0.35266 0.92746 0.0
C811 C 0.86004 0.35724 0.90811 0.0
C812 C 0.85103 0.34422 0.02606 0.0
C813 C 0.86587 0.36194 0.97278 0.0
C814 C 0.85624 0.34032 0.05636 0.0
C815 C 0.87952 0.3524 0.0672 0.0
C816 C 0.86928 0.36032 0.00658 0.0
C817 C 0.89697 0.36923 0.04755 0.0
C818 C 0.84374 0.35507 0.95977 0.0
C819 C 0.88233 0.36642 0.92184 0.0
N820 N 0.89154 0.3724 0.01807 0.0
N821 N 0.88456 0.36812 0.95343 0.0
H822 H 0.52201 0.91951 0.0655 0.0
H823 H 0.52509 0.90168 0.90856 0.0
H824 H 0.51375 0.85009 0.0717 0.0
H825 H 0.48418 0.82728 0.92817 0.0
H826 H 0.5225 0.90985 0.96342 0.0
H827 H 0.50842 0.91148 0.01155 0.0
C828 C 0.51719 0.90249 0.05557 0.0
C829 C 0.51976 0.88569 0.0728 0.0
C830 C 0.51337 0.89174 0.95563 0.0
C831 C 0.50481 0.8767 0.01082 0.0
C832 C 0.51504 0.88707 0.92422 0.0
C833 C 0.5053 0.86377 0.91384 0.0
C834 C 0.50197 0.87295 0.97676 0.0
C835 C 0.49235 0.84554 0.9352 0.0
C836 C 0.50959 0.89801 0.02466 0.0
C837 C 0.5125 0.86371 0.05908 0.0
N838 N 0.49153 0.85052 0.96579 0.0
N839 N 0.50571 0.85998 0.02865 0.0
H840 H 0.61053 0.51902 0.0553 0.0
H841 H 0.68084 0.49468 0.92259 0.0
H842 H 0.67396 0.51622 0.07282 0.0
H843 H 0.63244 0.52001 0.90518 0.0
H844 H 0.67115 0.49155 0.97808 0.0
H845 H 0.6112 0.508 0.00117 0.0
C846 C 0.62449 0.51582 0.0479 0.0
C847 C 0.64259 0.51913 0.06848 0.0
C848 C 0.66244 0.49748 0.96201 0.0
C849 C 0.64333 0.50648 0.00642 0.0
C850 C 0.66789 0.49924 0.9303 0.0
C851 C 0.65772 0.50804 0.90923 0.0
C852 C 0.64659 0.50436 0.97268 0.0
C853 C 0.64096 0.5135 0.92062 0.0
C854 C 0.62481 0.50952 0.01695 0.0
C855 C 0.65985 0.51419 0.05766 0.0
N856 N 0.63607 0.51176 0.95166 0.0
N857 N 0.66 0.50842 0.02715 0.0
H858 H 0.10226 0.62583 0.89926 0.0
H859 H 0.15373 0.67007 0.06795 0.0
H860 H 0.17684 0.6675 0.91787 0.0
H861 H 0.08238 0.61459 0.05068 0.0
H862 H 0.16363 0.66636 0.01386 0.0
H863 H 0.09532 0.61796 0.95511 0.0
C864 C 0.11721 0.633 0.91498 0.0
C865 C 0.14009 0.64778 0.90389 0.0
C866 C 0.1459 0.65476 0.02212 0.0
C867 C 0.13228 0.63915 0.96786 0.0
C868 C 0.14025 0.65691 0.05298 0.0
C869 C 0.11708 0.64303 0.06367 0.0
C870 C 0.12819 0.63878 0.00189 0.0
C871 C 0.10037 0.62608 0.04331 0.0
C872 C 0.11325 0.62851 0.9469 0.0
C873 C 0.15883 0.65634 0.92536 0.0
N874 N 0.10617 0.6247 0.0133 0.0
N875 N 0.15446 0.65228 0.95639 0.0
H876 H 0.82539 0.49122 0.53872 0.0
H877 H 0.92125 0.52568 0.40508 0.0
H878 H 0.90045 0.52705 0.55486 0.0
H879 H 0.85036 0.51167 0.3889 0.0
H880 H 0.9111 0.5138 0.45933 0.0
H881 H 0.83221 0.48647 0.48389 0.0
C882 C 0.84331 0.49775 0.53093 0.0
C883 C 0.86246 0.51013 0.55132 0.0
C884 C 0.89768 0.51298 0.44377 0.0
C885 C 0.87023 0.50459 0.48857 0.0
C886 C 0.90342 0.51978 0.41277 0.0
C887 C 0.88678 0.52031 0.39259 0.0
C888 C 0.87515 0.50663 0.45472 0.0
C889 C 0.86385 0.51194 0.40376 0.0
C890 C 0.84713 0.49501 0.49958 0.0
C891 C 0.8852 0.5178 0.5399 0.0
N892 N 0.8588 0.50578 0.43429 0.0
N893 N 0.88848 0.51519 0.50912 0.0
H894 H 0.33991 0.82685 0.55703 0.0
H895 H 0.39061 0.92054 0.41972 0.0
H896 H 0.3721 0.90195 0.57042 0.0
H897 H 0.33849 0.8473 0.40686 0.0
H898 H 0.39477 0.91253 0.47415 0.0
H899 H 0.35055 0.83341 0.50194 0.0
C900 C 0.34957 0.84477 0.54857 0.0
C901 C 0.35454 0.86389 0.56825 0.0
C902 C 0.38271 0.89816 0.45927 0.0
C903 C 0.36678 0.87136 0.5052 0.0
C904 C 0.38024 0.90267 0.42817 0.0
C905 C 0.36363 0.88465 0.40888 0.0
C906 C 0.36853 0.87549 0.47119 0.0
C907 C 0.35117 0.86179 0.42101 0.0
C908 C 0.35562 0.84844 0.51708 0.0
C909 C 0.36751 0.88668 0.55602 0.0
N910 N 0.35361 0.85792 0.45162 0.0
N911 N 0.37288 0.88978 0.52509 0.0
H912 H 0.47108 0.36543 0.57542 0.0
H913 H 0.48214 0.38653 0.41752 0.0
H914 H 0.49779 0.3181 0.55837 0.0
H915 H 0.47138 0.31616 0.41164 0.0
H916 H 0.49222 0.38801 0.47256 0.0
H917 H 0.47371 0.37368 0.5196 0.0
C918 C 0.47792 0.35712 0.56004 0.0
C919 C 0.48406 0.34094 0.57162 0.0
C920 C 0.4876 0.37222 0.45931 0.0
C921 C 0.48748 0.35055 0.50767 0.0
C922 C 0.48206 0.37142 0.4278 0.0
C923 C 0.4753 0.35092 0.41023 0.0
C924 C 0.48609 0.35227 0.47345 0.0
C925 C 0.47619 0.33216 0.42447 0.0
C926 C 0.47966 0.36202 0.52814 0.0
C927 C 0.49278 0.33066 0.55053 0.0
N928 N 0.48113 0.33315 0.4555 0.0
N929 N 0.49384 0.33533 0.5195 0.0
H930 H 0.17587 0.50184 0.54185 0.0
H931 H 0.07828 0.47203 0.41163 0.0
H932 H 0.10181 0.47304 0.56115 0.0
H933 H 0.14644 0.47964 0.39244 0.0
H934 H 0.09021 0.48371 0.46555 0.0
H935 H 0.16828 0.50477 0.48672 0.0
C936 C 0.15805 0.49646 0.53465 0.0
C937 C 0.13933 0.48671 0.55612 0.0
C938 C 0.10265 0.48311 0.44944 0.0
C939 C 0.13069 0.49014 0.49305 0.0
C940 C 0.09589 0.47644 0.41861 0.0
C941 C 0.1112 0.47427 0.39763 0.0
C942 C 0.12488 0.48768 0.45943 0.0
C943 C 0.13395 0.48073 0.40792 0.0
C944 C 0.15378 0.49812 0.50313 0.0
C945 C 0.1167 0.48029 0.54538 0.0
N946 N 0.14001 0.48683 0.43831 0.0
N947 N 0.11298 0.4819 0.51449 0.0
H948 H 0.66296 0.14446 0.40122 0.0
H949 H 0.6292 0.09645 0.57308 0.0
H950 H 0.61394 0.07165 0.4227 0.0
H951 H 0.66278 0.17038 0.55034 0.0
H952 H 0.61949 0.08709 0.51792 0.0
H953 H 0.6598 0.15479 0.45523 0.0
C954 C 0.65134 0.1307 0.41713 0.0
C955 C 0.63913 0.10711 0.40757 0.0
C956 C 0.62864 0.10536 0.52511 0.0
C957 C 0.63551 0.11874 0.4693 0.0
C958 C 0.63418 0.1107 0.55663 0.0
C959 C 0.64734 0.13422 0.56627 0.0
C960 C 0.63661 0.12368 0.50314 0.0
C961 C 0.65305 0.15197 0.54393 0.0
C962 C 0.64947 0.1366 0.44793 0.0
C963 C 0.62408 0.09004 0.42912 0.0
N964 N 0.64806 0.14633 0.51332 0.0
N965 N 0.62299 0.09615 0.45907 0.0
H966 H 0.52024 0.67251 0.4064 0.0
H967 H 0.49073 0.66612 0.56293 0.0
H968 H 0.53471 0.61648 0.42671 0.0
H969 H 0.53723 0.63771 0.57359 0.0
H970 H 0.48938 0.65918 0.50687 0.0
H971 H 0.50976 0.67247 0.46116 0.0
C972 C 0.52077 0.65991 0.4222 0.0
C973 C 0.52862 0.64468 0.41196 0.0
C974 C 0.49997 0.65458 0.52141 0.0
C975 C 0.51629 0.64421 0.47457 0.0
C976 C 0.50058 0.6583 0.55353 0.0
C977 C 0.51458 0.65299 0.57298 0.0
C978 C 0.51354 0.64558 0.5086 0.0
C979 C 0.52648 0.64239 0.5595 0.0
C980 C 0.51458 0.65973 0.45348 0.0
C981 C 0.52902 0.62874 0.43354 0.0
N982 N 0.52586 0.63924 0.52805 0.0
N983 N 0.52329 0.62918 0.46387 0.0
H984 H 0.49055 0.09844 0.2545 0.0
H985 H 0.61224 0.10236 0.23273 0.0
H986 H 0.50547 0.0731 0.16933 0.0
H987 H 0.571 0.07226 0.31606 0.0
H988 H 0.57869 0.10395 0.20938 0.0
H989 H 0.52607 0.10106 0.27822 0.0
C990 C 0.50141 0.09364 0.24081 0.0
C991 C 0.49509 0.08532 0.21014 0.0
C992 C 0.5772 0.09719 0.23286 0.0
C993 C 0.53566 0.08897 0.23648 0.0
C994 C 0.59622 0.09633 0.24613 0.0
C995 C 0.59415 0.08695 0.27613 0.0
C996 C 0.55643 0.08938 0.25022 0.0
C997 C 0.57309 0.07934 0.29268 0.0
C998 C 0.52152 0.09509 0.25428 0.0
C999 C 0.50968 0.07931 0.19322 0.0
N1000 N 0.55504 0.08087 0.27959 0.0
N1001 N 0.52944 0.08143 0.20653 0.0
H1002 H 0.50014 0.61548 0.2371 0.0
H1003 H 0.38089 0.49368 0.25179 0.0
H1004 H 0.48548 0.57211 0.31901 0.0
H1005 H 0.42326 0.51142 0.16832 0.0
H1006 H 0.41262 0.529 0.27745 0.0
H1007 H 0.4648 0.58346 0.21196 0.0
C1008 C 0.48928 0.59937 0.24989 0.0
C1009 C 0.4957 0.59621 0.27996 0.0
C1010 C 0.41472 0.52518 0.2534 0.0
C1011 C 0.45538 0.56018 0.25193 0.0
C1012 C 0.39672 0.5052 0.23882 0.0
C1013 C 0.39971 0.49967 0.20811 0.0
C1014 C 0.43533 0.53997 0.23671 0.0
C1015 C 0.4205 0.51503 0.19218 0.0
C1016 C 0.46928 0.5812 0.23558 0.0
C1017 C 0.48117 0.57504 0.29563 0.0
N1018 N 0.43753 0.5346 0.20662 0.0
N1019 N 0.46157 0.5578 0.28147 0.0
H1020 H 0.8713 0.48119 0.25279 0.0
H1021 H 0.94327 0.41852 0.19805 0.0
H1022 H 0.94672 0.51225 0.26015 0.0
H1023 H 0.86737 0.38158 0.20327 0.0
H1024 H 0.94432 0.45356 0.21851 0.0
H1025 H 0.86902 0.44539 0.23137 0.0
C1026 C 0.88738 0.4806 0.24963 0.0
C1027 C 0.90924 0.49976 0.25838 0.0
C1028 C 0.9274 0.43781 0.21533 0.0
C1029 C 0.9067 0.45888 0.23417 0.0
C1030 C 0.92677 0.41772 0.20363 0.0
C1031 C 0.90518 0.39703 0.19884 0.0
C1032 C 0.90628 0.43743 0.22221 0.0
C1033 C 0.88442 0.39712 0.2067 0.0
C1034 C 0.88603 0.4601 0.23762 0.0
C1035 C 0.92947 0.49792 0.25393 0.0
N1036 N 0.88547 0.41708 0.21785 0.0
N1037 N 0.92769 0.47789 0.2422 0.0
H1038 H 0.48426 0.86906 0.21364 0.0
H1039 H 0.42675 0.94451 0.2744 0.0
H1040 H 0.51796 0.94479 0.20903 0.0
H1041 H 0.38771 0.86866 0.26903 0.0
H1042 H 0.4608 0.94435 0.25236 0.0
H1043 H 0.44951 0.86799 0.2369 0.0
C1044 C 0.48447 0.88545 0.2178 0.0
C1045 C 0.50405 0.90705 0.20924 0.0
C1046 C 0.4448 0.9277 0.25586 0.0
C1047 C 0.46437 0.90591 0.23553 0.0
C1048 C 0.42527 0.92777 0.26845 0.0
C1049 C 0.40428 0.90655 0.27367 0.0
C1050 C 0.44354 0.90625 0.24848 0.0
C1051 C 0.40349 0.88544 0.26531 0.0
C1052 C 0.46458 0.88481 0.23085 0.0
C1053 C 0.50327 0.92771 0.21502 0.0
N1054 N 0.42291 0.88581 0.25326 0.0
N1055 N 0.48379 0.9266 0.22772 0.0
H1056 H 0.57111 0.48065 0.16106 0.0
H1057 H 0.51286 0.42136 0.3178 0.0
H1058 H 0.61446 0.49776 0.24354 0.0
H1059 H 0.49612 0.37837 0.23497 0.0
H1060 H 0.54769 0.45247 0.2913 0.0
H1061 H 0.54044 0.4455 0.18749 0.0
C1062 C 0.57415 0.47692 0.18472 0.0
C1063 C 0.5952 0.49206 0.20031 0.0
C1064 C 0.5365 0.43611 0.27911 0.0
C1065 C 0.56022 0.45238 0.23061 0.0
C1066 C 0.51663 0.41849 0.29405 0.0
C1067 C 0.50167 0.39742 0.27838 0.0
C1068 C 0.54097 0.43289 0.248 0.0
C1069 C 0.50732 0.39441 0.24775 0.0
C1070 C 0.55677 0.45685 0.19962 0.0
C1071 C 0.59843 0.48643 0.23081 0.0
N1072 N 0.52635 0.4122 0.23324 0.0
N1073 N 0.58087 0.4672 0.24528 0.0
H1074 H 0.11055 0.61689 0.23897 0.0
H1075 H 0.10358 0.49334 0.22157 0.0
H1076 H 0.08129 0.5749 0.15588 0.0
H1077 H 0.07882 0.51067 0.30536 0.0
H1078 H 0.10785 0.52916 0.19674 0.0
H1079 H 0.1114 0.58341 0.26372 0.0
C1080 C 0.10459 0.60073 0.2259 0.0
C1081 C 0.09563 0.59842 0.19557 0.0
C1082 C 0.10168 0.52509 0.22064 0.0
C1083 C 0.09718 0.56076 0.2231 0.0
C1084 C 0.09929 0.50482 0.23475 0.0
C1085 C 0.09062 0.49908 0.26533 0.0
C1086 C 0.09611 0.53995 0.2377 0.0
C1087 C 0.08529 0.51443 0.28156 0.0
C1088 C 0.10502 0.58174 0.23998 0.0
C1089 C 0.08807 0.57718 0.17948 0.0
N1090 N 0.08826 0.53431 0.26761 0.0
N1091 N 0.08915 0.55916 0.19338 0.0
H1092 H 0.44476 0.80427 0.77749 0.0
H1093 H 0.39176 0.88239 0.71296 0.0
H1094 H 0.4853 0.87992 0.76923 0.0
H1095 H 0.3561 0.80666 0.70516 0.0
H1096 H 0.42519 0.88181 0.73714 0.0
H1097 H 0.41134 0.80482 0.75341 0.0
C1098 C 0.44671 0.821 0.77045 0.0
C1099 C 0.46789 0.84209 0.77545 0.0
C1100 C 0.41002 0.86533 0.73016 0.0
C1101 C 0.42957 0.84283 0.74815 0.0
C1102 C 0.39085 0.86562 0.71654 0.0
C1103 C 0.37109 0.84453 0.70691 0.0
C1104 C 0.40937 0.8438 0.73438 0.0
C1105 C 0.37098 0.82336 0.71207 0.0
C1106 C 0.42759 0.82129 0.75673 0.0
C1107 C 0.46936 0.86322 0.76577 0.0
N1108 N 0.38984 0.82354 0.72543 0.0
N1109 N 0.45039 0.86306 0.75275 0.0
H1110 H 0.64595 0.44428 0.77208 0.0
H1111 H 0.51326 0.3919 0.71322 0.0
H1112 H 0.61086 0.48505 0.76631 0.0
H1113 H 0.55189 0.35469 0.7056 0.0
H1114 H 0.54826 0.42556 0.73519 0.0
H1115 H 0.61116 0.41074 0.74952 0.0
C1116 C 0.631 0.44624 0.76596 0.0
C1117 C 0.63137 0.46755 0.77116 0.0
C1118 C 0.54907 0.41002 0.7287 0.0
C1119 C 0.59139 0.42912 0.74553 0.0
C1120 C 0.52905 0.39074 0.71626 0.0
C1121 C 0.52961 0.37041 0.70748 0.0
C1122 C 0.56977 0.40895 0.73255 0.0
C1123 C 0.55062 0.36999 0.71193 0.0
C1124 C 0.61112 0.42706 0.75308 0.0
C1125 C 0.61143 0.46901 0.76271 0.0
N1126 N 0.56984 0.38896 0.72417 0.0
N1127 N 0.59223 0.45003 0.75045 0.0
H1128 H 0.19679 0.64125 0.76586 0.0
H1129 H 0.11946 0.51018 0.70078 0.0
H1130 H 0.12098 0.60516 0.75834 0.0
H1131 H 0.19513 0.55081 0.69169 0.0
H1132 H 0.11987 0.54402 0.72505 0.0
H1133 H 0.19666 0.60764 0.74111 0.0
C1134 C 0.18011 0.62632 0.75891 0.0
C1135 C 0.15885 0.62605 0.76425 0.0
C1136 C 0.13639 0.54553 0.71773 0.0
C1137 C 0.15861 0.58744 0.73612 0.0
C1138 C 0.1362 0.52617 0.70398 0.0
C1139 C 0.15731 0.52764 0.69408 0.0
C1140 C 0.15784 0.5665 0.72183 0.0
C1141 C 0.17842 0.54887 0.69886 0.0
C1142 C 0.18007 0.60713 0.74477 0.0
C1143 C 0.13781 0.6062 0.75466 0.0
N1144 N 0.17814 0.56746 0.71241 0.0
N1145 N 0.13822 0.58766 0.74121 0.0
H1146 H 0.62125 0.17657 0.66466 0.0
H1147 H 0.56038 0.17592 0.82093 0.0
H1148 H 0.63274 0.14398 0.74505 0.0
H1149 H 0.51629 0.14405 0.74021 0.0
H1150 H 0.59319 0.17581 0.79326 0.0
H1151 H 0.58806 0.17624 0.69205 0.0
C1152 C 0.61688 0.16957 0.68817 0.0
C1153 C 0.62959 0.16029 0.70278 0.0
C1154 C 0.57631 0.16893 0.78172 0.0
C1155 C 0.59241 0.16035 0.73401 0.0
C1156 C 0.55773 0.16909 0.7973 0.0
C1157 C 0.53575 0.15996 0.78268 0.0
C1158 C 0.57299 0.16032 0.75108 0.0
C1159 C 0.53302 0.15114 0.75217 0.0
C1160 C 0.59797 0.16926 0.70356 0.0
C1161 C 0.62322 0.15121 0.73309 0.0
N1162 N 0.5516 0.1518 0.7371 0.0
N1163 N 0.60518 0.15173 0.74798 0.0
H1164 H 0.35575 0.55241 0.77931 0.0
H1165 H 0.48736 0.60487 0.71617 0.0
H1166 H 0.39058 0.51146 0.77196 0.0
H1167 H 0.44765 0.64099 0.70916 0.0
H1168 H 0.45306 0.57131 0.73968 0.0
H1169 H 0.39018 0.58578 0.75614 0.0
C1170 C 0.3706 0.55038 0.77276 0.0
C1171 C 0.37023 0.52905 0.77762 0.0
C1172 C 0.45189 0.5866 0.73299 0.0
C1173 C 0.40983 0.56734 0.7512 0.0
C1174 C 0.4715 0.60581 0.71968 0.0
C1175 C 0.4704 0.6258 0.71059 0.0
C1176 C 0.4311 0.58742 0.73742 0.0
C1177 C 0.44933 0.62596 0.71567 0.0
C1178 C 0.39027 0.56947 0.75951 0.0
C1179 C 0.39002 0.52752 0.76858 0.0
N1180 N 0.43054 0.60709 0.72875 0.0
N1181 N 0.40906 0.54644 0.75592 0.0
H1182 H 0.80228 0.36466 0.77088 0.0
H1183 H 0.88064 0.49353 0.69953 0.0
H1184 H 0.878 0.39989 0.76231 0.0
H1185 H 0.80495 0.45347 0.69045 0.0
H1186 H 0.87965 0.46052 0.72687 0.0
H1187 H 0.80263 0.39802 0.74495 0.0
C1188 C 0.81897 0.37935 0.76351 0.0
C1189 C 0.84014 0.37944 0.7688 0.0
C1190 C 0.86325 0.45895 0.71893 0.0
C1191 C 0.84064 0.4177 0.73936 0.0
C1192 C 0.86378 0.47785 0.70342 0.0
C1193 C 0.84284 0.47628 0.69253 0.0
C1194 C 0.84164 0.43831 0.72379 0.0
C1195 C 0.82154 0.45546 0.69831 0.0
C1196 C 0.81914 0.39838 0.74871 0.0
C1197 C 0.86122 0.39898 0.7587 0.0
N1198 N 0.82148 0.43727 0.71353 0.0
N1199 N 0.86093 0.41733 0.74458 0.0
loop_
_geom_bond_atom_site_label_1
_geom_bond_atom_site_label_2
_geom_bond_distance
_geom_bond_site_symmetry_2
_ccdc_geom_bond_type
Mg0 O1 2.028 . S
Mg0 O7 1.986 . S
Mg0 O9 2.114 . S
Mg0 O10 2.251 . S
Mg0 O13 2.010 . S
O1 Mg0 2.028 . S
O1 C4 1.250 . S
O2 Mg3 2.028 . S
O2 C4 1.248 . S
Mg3 O2 2.028 . S
Mg3 O8 2.032 . S
Mg3 O10 2.079 . S
C4 O1 1.250 . S
C4 O2 1.248 . S
C5 O6 1.264 . S
C5 O13 1.249 . S
O6 C5 1.264 . S
O7 Mg0 1.986 . S
O7 C11 1.246 . S
O8 Mg3 2.032 . S
O8 C11 1.259 . S
O9 Mg0 2.114 . S
O9 C12 1.252 . S
O10 Mg0 2.251 . S
O10 Mg3 2.079 . S
O10 C12 1.273 . S
C11 O7 1.246 . S
C11 O8 1.259 . S
C12 O9 1.252 . S
C12 O10 1.273 . S
O13 Mg0 2.010 . S
O13 C5 1.249 . S
Mg14 O15 2.028 . S
Mg14 O21 1.986 . S
Mg14 O23 2.114 . S
Mg14 O24 2.251 . S
Mg14 O27 2.010 . S
O15 Mg14 2.028 . S
O15 C18 1.250 . S
O16 Mg17 2.028 . S
O16 C18 1.248 . S
Mg17 O16 2.028 . S
Mg17 O22 2.032 . S
Mg17 O24 2.079 . S
C18 O15 1.250 . S
C18 O16 1.248 . S
C19 O20 1.264 . S
C19 O27 1.249 . S
O20 C19 1.264 . S
O21 Mg14 1.986 . S
O21 C25 1.246 . S
O22 Mg17 2.032 . S
O22 C25 1.259 . S
O23 Mg14 2.114 . S
O23 C26 1.252 . S
O24 Mg14 2.251 . S
O24 Mg17 2.079 . S
O24 C26 1.273 . S
C25 O21 1.246 . S
C25 O22 1.259 . S
C26 O23 1.252 . S
C26 O24 1.273 . S
O27 Mg14 2.010 . S
O27 C19 1.249 . S
Mg28 O29 2.028 . S
Mg28 O35 1.986 . S
Mg28 O37 2.114 . S
Mg28 O38 2.251 . S
Mg28 O41 2.010 . S
O29 Mg28 2.028 . S
O29 C32 1.250 . S
O30 Mg31 2.028 . S
O30 C32 1.248 . S
Mg31 O30 2.028 . S
Mg31 O36 2.032 . S
Mg31 O38 2.079 . S
C32 O29 1.250 . S
C32 O30 1.248 . S
C33 O34 1.264 . S
C33 O41 1.249 . S
O34 C33 1.264 . S
O35 Mg28 1.986 . S
O35 C39 1.246 . S
O36 Mg31 2.032 . S
O36 C39 1.259 . S
O37 Mg28 2.114 . S
O37 C40 1.252 . S
O38 Mg28 2.251 . S
O38 Mg31 2.079 . S
O38 C40 1.273 . S
C39 O35 1.246 . S
C39 O36 1.259 . S
C40 O37 1.252 . S
C40 O38 1.273 . S
O41 Mg28 2.010 . S
O41 C33 1.249 . S
Mg42 O43 2.028 . S
Mg42 O49 1.986 . S
Mg42 O51 2.114 . S
Mg42 O52 2.251 . S
Mg42 O55 2.010 . S
O43 Mg42 2.028 . S
O43 C46 1.250 . S
O44 Mg45 2.028 . S
O44 C46 1.248 . S
Mg45 O44 2.028 . S
Mg45 O50 2.032 . S
Mg45 O52 2.079 . S
C46 O43 1.250 . S
C46 O44 1.248 . S
C47 O48 1.264 . S
C47 O55 1.249 . S
O48 C47 1.264 . S
O49 Mg42 1.986 . S
O49 C53 1.246 . S
O50 Mg45 2.032 . S
O50 C53 1.259 . S
O51 Mg42 2.114 . S
O51 C54 1.252 . S
O52 Mg42 2.251 . S
O52 Mg45 2.079 . S
O52 C54 1.273 . S
C53 O49 1.246 . S
C53 O50 1.259 . S
C54 O51 1.252 . S
C54 O52 1.273 . S
O55 Mg42 2.010 . S
O55 C47 1.249 . S
Mg56 O57 2.028 . S
Mg56 O63 1.986 . S
Mg56 O65 2.114 . S
Mg56 O66 2.251 . S
Mg56 O69 2.010 . S
O57 Mg56 2.028 . S
O57 C60 1.250 . S
O58 Mg59 2.028 . S
O58 C60 1.248 . S
Mg59 O58 2.028 . S
Mg59 O64 2.032 . S
Mg59 O66 2.079 . S
C60 O57 1.250 . S
C60 O58 1.248 . S
C61 O62 1.264 . S
C61 O69 1.249 . S
O62 C61 1.264 . S
O63 Mg56 1.986 . S
O63 C67 1.246 . S
O64 Mg59 2.032 . S
O64 C67 1.259 . S
O65 Mg56 2.114 . S
O65 C68 1.252 . S
O66 Mg56 2.251 . S
O66 Mg59 2.079 . S
O66 C68 1.273 . S
C67 O63 1.246 . S
C67 O64 1.259 . S
C68 O65 1.252 . S
C68 O66 1.273 . S
O69 Mg56 2.010 . S
O69 C61 1.249 . S
Mg70 O71 2.028 . S
Mg70 O77 1.986 . S
Mg70 O79 2.114 . S
Mg70 O80 2.251 . S
Mg70 O83 2.010 . S
O71 Mg70 2.028 . S
O71 C74 1.250 . S
O72 Mg73 2.028 . S
O72 C74 1.248 . S
Mg73 O72 2.028 . S
Mg73 O78 2.032 . S
Mg73 O80 2.079 . S
C74 O71 1.250 . S
C74 O72 1.248 . S
C75 O76 1.264 . S
C75 O83 1.249 . S
O76 C75 1.264 . S
O77 Mg70 1.986 . S
O77 C81 1.246 . S
O78 Mg73 2.032 . S
O78 C81 1.259 . S
O79 Mg70 2.114 . S
O79 C82 1.252 . S
O80 Mg70 2.251 . S
O80 Mg73 2.079 . S
O80 C82 1.273 . S
C81 O77 1.246 . S
C81 O78 1.259 . S
C82 O79 1.252 . S
C82 O80 1.273 . S
O83 Mg70 2.010 . S
O83 C75 1.249 . S
Mg84 O85 2.028 . S
Mg84 O91 1.986 . S
Mg84 O93 2.114 . S
Mg84 O94 2.251 . S
Mg84 O97 2.010 . S
O85 Mg84 2.028 . S
O85 C88 1.250 . S
O86 Mg87 2.028 . S
O86 C88 1.248 . S
Mg87 O86 2.028 . S
Mg87 O92 2.032 . S
Mg87 O94 2.079 . S
C88 O85 1.250 . S
C88 O86 1.248 . S
C89 O90 1.264 . S
C89 O97 1.249 . S
O90 C89 1.264 . S
O91 Mg84 1.986 . S
O91 C95 1.246 . S
O92 Mg87 2.032 . S
O92 C95 1.259 . S
O93 Mg84 2.114 . S
O93 C96 1.252 . S
O94 Mg84 2.251 . S
O94 Mg87 2.079 . S
O94 C96 1.273 . S
C95 O91 1.246 . S
C95 O92 1.259 . S
C96 O93 1.252 . S
C96 O94 1.273 . S
O97 Mg84 2.010 . S
O97 C89 1.249 . S
Mg98 O99 2.028 . S
Mg98 O105 1.986 . S
Mg98 O107 2.114 . S
Mg98 O108 2.251 . S
Mg98 O111 2.010 . S
O99 Mg98 2.028 . S
O99 C102 1.250 . S
O100 Mg101 2.028 . S
O100 C102 1.248 . S
Mg101 O100 2.028 . S
Mg101 O106 2.032 . S
Mg101 O108 2.079 . S
C102 O99 1.250 . S
C102 O100 1.248 . S
C103 O104 1.264 . S
C103 O111 1.249 . S
O104 C103 1.264 . S
O105 Mg98 1.986 . S
O105 C109 1.246 . S
O106 Mg101 2.032 . S
O106 C109 1.259 . S
O107 Mg98 2.114 . S
O107 C110 1.252 . S
O108 Mg98 2.251 . S
O108 Mg101 2.079 . S
O108 C110 1.273 . S
C109 O105 1.246 . S
C109 O106 1.259 . S
C110 O107 1.252 . S
C110 O108 1.273 . S
O111 Mg98 2.010 . S
O111 C103 1.249 . S
Mg112 O113 2.028 . S
Mg112 O119 1.986 . S
Mg112 O121 2.114 . S
Mg112 O122 2.251 . S
Mg112 O125 2.010 . S
O113 Mg112 2.028 . S
O113 C116 1.250 . S
O114 Mg115 2.028 . S
O114 C116 1.248 . S
Mg115 O114 2.028 . S
Mg115 O120 2.032 . S
Mg115 O122 2.079 . S
C116 O113 1.250 . S
C116 O114 1.248 . S
C117 O118 1.264 . S
C117 O125 1.249 . S
O118 C117 1.264 . S
O119 Mg112 1.986 . S
O119 C123 1.246 . S
O120 Mg115 2.032 . S
O120 C123 1.259 . S
O121 Mg112 2.114 . S
O121 C124 1.252 . S
O122 Mg112 2.251 . S
O122 Mg115 2.079 . S
O122 C124 1.273 . S
C123 O119 1.246 . S
C123 O120 1.259 . S
C124 O121 1.252 . S
C124 O122 1.273 . S
O125 Mg112 2.010 . S
O125 C117 1.249 . S
Mg126 O127 2.028 . S
Mg126 O133 1.986 . S
Mg126 O135 2.114 . S
Mg126 O136 2.251 . S
Mg126 O139 2.010 . S
O127 Mg126 2.028 . S
O127 C130 1.250 . S
O128 Mg129 2.028 . S
O128 C130 1.248 . S
Mg129 O128 2.028 . S
Mg129 O134 2.032 . S
Mg129 O136 2.079 . S
C130 O127 1.250 . S
C130 O128 1.248 . S
C131 O132 1.264 . S
C131 O139 1.249 . S
O132 C131 1.264 . S
O133 Mg126 1.986 . S
O133 C137 1.246 . S
O134 Mg129 2.032 . S
O134 C137 1.259 . S
O135 Mg126 2.114 . S
O135 C138 1.252 . S
O136 Mg126 2.251 . S
O136 Mg129 2.079 . S
O136 C138 1.273 . S
C137 O133 1.246 . S
C137 O134 1.259 . S
C138 O135 1.252 . S
C138 O136 1.273 . S
O139 Mg126 2.010 . S
O139 C131 1.249 . S
Mg140 O141 2.028 . S
Mg140 O147 1.986 . S
Mg140 O149 2.114 . S
Mg140 O150 2.251 . S
Mg140 O153 2.010 . S
O141 Mg140 2.028 . S
O141 C144 1.250 . S
O142 Mg143 2.028 . S
O142 C144 1.248 . S
Mg143 O142 2.028 . S
Mg143 O148 2.032 . S
Mg143 O150 2.079 . S
C144 O141 1.250 . S
C144 O142 1.248 . S
C145 O146 1.264 . S
C145 O153 1.249 . S
O146 C145 1.264 . S
O147 Mg140 1.986 . S
O147 C151 1.246 . S
O148 Mg143 2.032 . S
O148 C151 1.259 . S
O149 Mg140 2.114 . S
O149 C152 1.252 . S
O150 Mg140 2.251 . S
O150 Mg143 2.079 . S
O150 C152 1.273 . S
C151 O147 1.246 . S
C151 O148 1.259 . S
C152 O149 1.252 . S
C152 O150 1.273 . S
O153 Mg140 2.010 . S
O153 C145 1.249 . S
Mg154 O155 2.028 . S
Mg154 O161 1.986 . S
Mg154 O163 2.114 . S
Mg154 O164 2.251 . S
Mg154 O167 2.010 . S
O155 Mg154 2.028 . S
O155 C158 1.250 . S
O156 Mg157 2.028 . S
O156 C158 1.248 . S
Mg157 O156 2.028 . S
Mg157 O162 2.032 . S
Mg157 O164 2.079 . S
C158 O155 1.250 . S
C158 O156 1.248 . S
C159 O160 1.264 . S
C159 O167 1.249 . S
O160 C159 1.264 . S
O161 Mg154 1.986 . S
O161 C165 1.246 . S
O162 Mg157 2.032 . S
O162 C165 1.259 . S
O163 Mg154 2.114 . S
O163 C166 1.252 . S
O164 Mg154 2.251 . S
O164 Mg157 2.079 . S
O164 C166 1.273 . S
C165 O161 1.246 . S
C165 O162 1.259 . S
C166 O163 1.252 . S
C166 O164 1.273 . S
O167 Mg154 2.010 . S
O167 C159 1.249 . S
Mg168 O169 2.028 . S
Mg168 O175 1.986 . S
Mg168 O177 2.114 . S
Mg168 O178 2.251 . S
Mg168 O181 2.010 . S
O169 Mg168 2.028 . S
O169 C172 1.250 . S
O170 Mg171 2.028 . S
O170 C172 1.248 . S
Mg171 O170 2.028 . S
Mg171 O176 2.032 . S
Mg171 O178 2.079 . S
C172 O169 1.250 . S
C172 O170 1.248 . S
C173 O174 1.264 . S
C173 O181 1.249 . S
O174 C173 1.264 . S
O175 Mg168 1.986 . S
O175 C179 1.246 . S
O176 Mg171 2.032 . S
O176 C179 1.259 . S
O177 Mg168 2.114 . S
O177 C180 1.252 . S
O178 Mg168 2.251 . S
O178 Mg171 2.079 . S
O178 C180 1.273 . S
C179 O175 1.246 . S
C179 O176 1.259 . S
C180 O177 1.252 . S
C180 O178 1.273 . S
O181 Mg168 2.010 . S
O181 C173 1.249 . S
Mg182 O183 2.028 . S
Mg182 O189 1.986 . S
Mg182 O191 2.114 . S
Mg182 O192 2.251 . S
Mg182 O195 2.010 . S
O183 Mg182 2.028 . S
O183 C186 1.250 . S
O184 Mg185 2.028 . S
O184 C186 1.248 . S
Mg185 O184 2.028 . S
Mg185 O190 2.032 . S
Mg185 O192 2.079 . S
C186 O183 1.250 . S
C186 O184 1.248 . S
C187 O188 1.264 . S
C187 O195 1.249 . S
O188 C187 1.264 . S
O189 Mg182 1.986 . S
O189 C193 1.246 . S
O190 Mg185 2.032 . S
O190 C193 1.259 . S
O191 Mg182 2.114 . S
O191 C194 1.252 . S
O192 Mg182 2.251 . S
O192 Mg185 2.079 . S
O192 C194 1.273 . S
C193 O189 1.246 . S
C193 O190 1.259 . S
C194 O191 1.252 . S
C194 O192 1.273 . S
O195 Mg182 2.010 . S
O195 C187 1.249 . S
Mg196 O197 2.028 . S
Mg196 O203 1.986 . S
Mg196 O205 2.114 . S
Mg196 O206 2.251 . S
Mg196 O209 2.010 . S
O197 Mg196 2.028 . S
O197 C200 1.250 . S
O198 Mg199 2.028 . S
O198 C200 1.248 . S
Mg199 O198 2.028 . S
Mg199 O204 2.032 . S
Mg199 O206 2.079 . S
C200 O197 1.250 . S
C200 O198 1.248 . S
C201 O202 1.264 . S
C201 O209 1.249 . S
O202 C201 1.264 . S
O203 Mg196 1.986 . S
O203 C207 1.246 . S
O204 Mg199 2.032 . S
O204 C207 1.259 . S
O205 Mg196 2.114 . S
O205 C208 1.252 . S
O206 Mg196 2.251 . S
O206 Mg199 2.079 . S
O206 C208 1.273 . S
C207 O203 1.246 . S
C207 O204 1.259 . S
C208 O205 1.252 . S
C208 O206 1.273 . S
O209 Mg196 2.010 . S
O209 C201 1.249 . S
Mg210 O211 2.028 . S
Mg210 O217 1.986 . S
Mg210 O219 2.114 . S
Mg210 O220 2.251 . S
Mg210 O223 2.010 . S
O211 Mg210 2.028 . S
O211 C214 1.250 . S
O212 Mg213 2.028 . S
O212 C214 1.248 . S
Mg213 O212 2.028 . S
Mg213 O218 2.032 . S
Mg213 O220 2.079 . S
C214 O211 1.250 . S
C214 O212 1.248 . S
C215 O216 1.264 . S
C215 O223 1.249 . S
O216 C215 1.264 . S
O217 Mg210 1.986 . S
O217 C221 1.246 . S
O218 Mg213 2.032 . S
O218 C221 1.259 . S
O219 Mg210 2.114 . S
O219 C222 1.252 . S
O220 Mg210 2.251 . S
O220 Mg213 2.079 . S
O220 C222 1.273 . S
C221 O217 1.246 . S
C221 O218 1.259 . S
C222 O219 1.252 . S
C222 O220 1.273 . S
O223 Mg210 2.010 . S
O223 C215 1.249 . S
Mg224 O225 2.028 . S
Mg224 O231 1.986 . S
Mg224 O233 2.114 . S
Mg224 O234 2.251 . S
Mg224 O237 2.010 . S
O225 Mg224 2.028 . S
O225 C228 1.250 . S
O226 Mg227 2.028 . S
O226 C228 1.248 . S
Mg227 O226 2.028 . S
Mg227 O232 2.032 . S
Mg227 O234 2.079 . S
C228 O225 1.250 . S
C228 O226 1.248 . S
C229 O230 1.264 . S
C229 O237 1.249 . S
O230 C229 1.264 . S
O231 Mg224 1.986 . S
O231 C235 1.246 . S
O232 Mg227 2.032 . S
O232 C235 1.259 . S
O233 Mg224 2.114 . S
O233 C236 1.252 . S
O234 Mg224 2.251 . S
O234 Mg227 2.079 . S
O234 C236 1.273 . S
C235 O231 1.246 . S
C235 O232 1.259 . S
C236 O233 1.252 . S
C236 O234 1.273 . S
O237 Mg224 2.010 . S
O237 C229 1.249 . S
Mg238 O239 2.028 . S
Mg238 O245 1.986 . S
Mg238 O247 2.114 . S
Mg238 O248 2.251 . S
Mg238 O251 2.010 . S
O239 Mg238 2.028 . S
O239 C242 1.250 . S
O240 Mg241 2.028 . S
O240 C242 1.248 . S
Mg241 O240 2.028 . S
Mg241 O246 2.032 . S
Mg241 O248 2.079 . S
C242 O239 1.250 . S
C242 O240 1.248 . S
C243 O244 1.264 . S
C243 O251 1.249 . S
O244 C243 1.264 . S
O245 Mg238 1.986 . S
O245 C249 1.246 . S
O246 Mg241 2.032 . S
O246 C249 1.259 . S
O247 Mg238 2.114 . S
O247 C250 1.252 . S
O248 Mg238 2.251 . S
O248 Mg241 2.079 . S
O248 C250 1.273 . S
C249 O245 1.246 . S
C249 O246 1.259 . S
C250 O247 1.252 . S
C250 O248 1.273 . S
O251 Mg238 2.010 . S
O251 C243 1.249 . S
Mg252 O253 2.028 . S
Mg252 O259 1.986 . S
Mg252 O261 2.114 . S
Mg252 O262 2.251 . S
Mg252 O265 2.010 . S
O253 Mg252 2.028 . S
O253 C256 1.250 . S
O254 Mg255 2.028 . S
O254 C256 1.248 . S
Mg255 O254 2.028 . S
Mg255 O260 2.032 . S
Mg255 O262 2.079 . S
C256 O253 1.250 . S
C256 O254 1.248 . S
C257 O258 1.264 . S
C257 O265 1.249 . S
O258 C257 1.264 . S
O259 Mg252 1.986 . S
O259 C263 1.246 . S
O260 Mg255 2.032 . S
O260 C263 1.259 . S
O261 Mg252 2.114 . S
O261 C264 1.252 . S
O262 Mg252 2.251 . S
O262 Mg255 2.079 . S
O262 C264 1.273 . S
C263 O259 1.246 . S
C263 O260 1.259 . S
C264 O261 1.252 . S
C264 O262 1.273 . S
O265 Mg252 2.010 . S
O265 C257 1.249 . S
Mg266 O267 2.028 . S
Mg266 O273 1.986 . S
Mg266 O275 2.114 . S
Mg266 O276 2.251 . S
Mg266 O279 2.010 . S
O267 Mg266 2.028 . S
O267 C270 1.250 . S
O268 Mg269 2.028 . S
O268 C270 1.248 . S
Mg269 O268 2.028 . S
Mg269 O274 2.032 . S
Mg269 O276 2.079 . S
C270 O267 1.250 . S
C270 O268 1.248 . S
C271 O272 1.264 . S
C271 O279 1.249 . S
O272 C271 1.264 . S
O273 Mg266 1.986 . S
O273 C277 1.246 . S
O274 Mg269 2.032 . S
O274 C277 1.259 . S
O275 Mg266 2.114 . S
O275 C278 1.252 . S
O276 Mg266 2.251 . S
O276 Mg269 2.079 . S
O276 C278 1.273 . S
C277 O273 1.246 . S
C277 O274 1.259 . S
C278 O275 1.252 . S
C278 O276 1.273 . S
O279 Mg266 2.010 . S
O279 C271 1.249 . S
Mg280 O281 2.028 . S
Mg280 O287 1.986 . S
Mg280 O289 2.114 . S
Mg280 O290 2.251 . S
Mg280 O293 2.010 . S
O281 Mg280 2.028 . S
O281 C284 1.250 . S
O282 Mg283 2.028 . S
O282 C284 1.248 . S
Mg283 O282 2.028 . S
Mg283 O288 2.032 . S
Mg283 O290 2.079 . S
C284 O281 1.250 . S
C284 O282 1.248 . S
C285 O286 1.264 . S
C285 O293 1.249 . S
O286 C285 1.264 . S
O287 Mg280 1.986 . S
O287 C291 1.246 . S
O288 Mg283 2.032 . S
O288 C291 1.259 . S
O289 Mg280 2.114 . S
O289 C292 1.252 . S
O290 Mg280 2.251 . S
O290 Mg283 2.079 . S
O290 C292 1.273 . S
C291 O287 1.246 . S
C291 O288 1.259 . S
C292 O289 1.252 . S
C292 O290 1.273 . S
O293 Mg280 2.010 . S
O293 C285 1.249 . S
Mg294 O295 2.028 . S
Mg294 O301 1.986 . S
Mg294 O303 2.114 . S
Mg294 O304 2.251 . S
Mg294 O307 2.010 . S
O295 Mg294 2.028 . S
O295 C298 1.250 . S
O296 Mg297 2.028 . S
O296 C298 1.248 . S
Mg297 O296 2.028 . S
Mg297 O302 2.032 . S
Mg297 O304 2.079 . S
C298 O295 1.250 . S
C298 O296 1.248 . S
C299 O300 1.264 . S
C299 O307 1.249 . S
O300 C299 1.264 . S
O301 Mg294 1.986 . S
O301 C305 1.246 . S
O302 Mg297 2.032 . S
O302 C305 1.259 . S
O303 Mg294 2.114 . S
O303 C306 1.252 . S
O304 Mg294 2.251 . S
O304 Mg297 2.079 . S
O304 C306 1.273 . S
C305 O301 1.246 . S
C305 O302 1.259 . S
C306 O303 1.252 . S
C306 O304 1.273 . S
O307 Mg294 2.010 . S
O307 C299 1.249 . S
Mg308 O309 2.028 . S
Mg308 O315 1.986 . S
Mg308 O317 2.114 . S
Mg308 O318 2.251 . S
Mg308 O321 2.010 . S
O309 Mg308 2.028 . S
O309 C312 1.250 . S
O310 Mg311 2.028 . S
O310 C312 1.248 . S
Mg311 O310 2.028 . S
Mg311 O316 2.032 . S
Mg311 O318 2.079 . S
C312 O309 1.250 . S
C312 O310 1.248 . S
C313 O314 1.264 . S
C313 O321 1.249 . S
O314 C313 1.264 . S
O315 Mg308 1.986 . S
O315 C319 1.246 . S
O316 Mg311 2.032 . S
O316 C319 1.259 . S
O317 Mg308 2.114 . S
O317 C320 1.252 . S
O318 Mg308 2.251 . S
O318 Mg311 2.079 . S
O318 C320 1.273 . S
C319 O315 1.246 . S
C319 O316 1.259 . S
C320 O317 1.252 . S
C320 O318 1.273 . S
O321 Mg308 2.010 . S
O321 C313 1.249 . S
Mg322 O323 2.028 . S
Mg322 O329 1.986 . S
Mg322 O331 2.114 . S
Mg322 O332 2.251 . S
Mg322 O335 2.010 . S
O323 Mg322 2.028 . S
O323 C326 1.250 . S
O324 Mg325 2.028 . S
O324 C326 1.248 . S
Mg325 O324 2.028 . S
Mg325 O330 2.032 . S
Mg325 O332 2.079 . S
C326 O323 1.250 . S
C326 O324 1.248 . S
C327 O328 1.264 . S
C327 O335 1.249 . S
O328 C327 1.264 . S
O329 Mg322 1.986 . S
O329 C333 1.246 . S
O330 Mg325 2.032 . S
O330 C333 1.259 . S
O331 Mg322 2.114 . S
O331 C334 1.252 . S
O332 Mg322 2.251 . S
O332 Mg325 2.079 . S
O332 C334 1.273 . S
C333 O329 1.246 . S
C333 O330 1.259 . S
C334 O331 1.252 . S
C334 O332 1.273 . S
O335 Mg322 2.010 . S
O335 C327 1.249 . S
H336 C342 0.930 . S
H337 C346 0.930 . S
H338 C351 0.929 . S
H339 C349 0.929 . S
H340 C344 0.929 . S
H341 C350 0.929 . S
C342 H336 0.930 . S
C342 C343 1.367 . S
C342 C350 1.378 . S
C343 C342 1.367 . S
C343 C351 1.433 . S
C344 H340 0.929 . S
C344 C346 1.378 . S
C344 C348 1.350 . S
C345 C348 1.463 1_545 S
C345 C350 1.350 . S
C345 N353 1.427 . S
C346 H337 0.930 . S
C346 C344 1.378 . S
C346 C347 1.367 . S
C347 C346 1.367 . S
C347 C349 1.433 . S
C348 C344 1.350 . S
C348 C345 1.463 1_565 S
C348 N352 1.427 . S
C349 H339 0.929 . S
C349 C347 1.433 . S
C349 N352 1.384 . S
C350 H341 0.929 . S
C350 C342 1.378 . S
C350 C345 1.350 . S
C351 H338 0.929 . S
C351 C343 1.433 . S
C351 N353 1.384 . S
N352 C348 1.427 . S
N352 C349 1.384 . S
N353 C345 1.427 . S
N353 C351 1.384 . S
H354 C360 0.930 . S
H355 C364 0.930 . S
H356 C369 0.929 . S
H357 C367 0.929 . S
H358 C362 0.929 . S
H359 C368 0.929 . S
C360 H354 0.930 . S
C360 C361 1.367 . S
C360 C368 1.378 . S
C361 C360 1.367 . S
C361 C369 1.433 . S
C362 H358 0.929 . S
C362 C364 1.378 . S
C362 C366 1.350 . S
C363 C366 1.463 . S
C363 C368 1.350 . S
C363 N371 1.427 . S
C364 H355 0.930 . S
C364 C362 1.378 . S
C364 C365 1.367 . S
C365 C364 1.367 . S
C365 C367 1.433 . S
C366 C362 1.350 . S
C366 C363 1.463 . S
C366 N370 1.427 . S
C367 H357 0.929 . S
C367 C365 1.433 . S
C367 N370 1.384 . S
C368 H359 0.929 . S
C368 C360 1.378 . S
C368 C363 1.350 . S
C369 H356 0.929 . S
C369 C361 1.433 . S
C369 N371 1.384 . S
N370 C366 1.427 . S
N370 C367 1.384 . S
N371 C363 1.427 . S
N371 C369 1.384 . S
H372 C378 0.930 . S
H373 C382 0.930 . S
H374 C387 0.929 . S
H375 C385 0.929 . S
H376 C380 0.929 . S
H377 C386 0.929 . S
C378 H372 0.930 . S
C378 C379 1.367 . S
C378 C386 1.378 . S
C379 C378 1.367 . S
C379 C387 1.433 . S
C380 H376 0.929 . S
C380 C382 1.378 . S
C380 C384 1.350 . S
C381 C384 1.463 1_655 S
C381 C386 1.350 . S
C381 N389 1.427 . S
C382 H373 0.930 . S
C382 C380 1.378 . S
C382 C383 1.367 . S
C383 C382 1.367 . S
C383 C385 1.433 . S
C384 C380 1.350 . S
C384 C381 1.463 1_455 S
C384 N388 1.427 . S
C385 H375 0.929 . S
C385 C383 1.433 . S
C385 N388 1.384 . S
C386 H377 0.929 . S
C386 C378 1.378 . S
C386 C381 1.350 . S
C387 H374 0.929 . S
C387 C379 1.433 . S
C387 N389 1.384 . S
N388 C384 1.427 . S
N388 C385 1.384 . S
N389 C381 1.427 . S
N389 C387 1.384 . S
H390 C396 0.930 . S
H391 C400 0.930 . S
H392 C405 0.929 . S
H393 C403 0.929 . S
H394 C398 0.929 . S
H395 C404 0.929 . S
C396 H390 0.930 . S
C396 C397 1.367 . S
C396 C404 1.378 . S
C397 C396 1.367 . S
C397 C405 1.433 . S
C398 H394 0.929 . S
C398 C400 1.378 . S
C398 C402 1.350 . S
C399 C402 1.463 1_565 S
C399 C404 1.350 . S
C399 N407 1.427 . S
C400 H391 0.930 . S
C400 C398 1.378 . S
C400 C401 1.367 . S
C401 C400 1.367 . S
C401 C403 1.433 . S
C402 C398 1.350 . S
C402 C399 1.463 1_545 S
C402 N406 1.427 . S
C403 H393 0.929 . S
C403 C401 1.433 . S
C403 N406 1.384 . S
C404 H395 0.929 . S
C404 C396 1.378 . S
C404 C399 1.350 . S
C405 H392 0.929 . S
C405 C397 1.433 . S
C405 N407 1.384 . S
N406 C402 1.427 . S
N406 C403 1.384 . S
N407 C399 1.427 . S
N407 C405 1.384 . S
H408 C414 0.930 . S
H409 C418 0.930 . S
H410 C423 0.929 . S
H411 C421 0.929 . S
H412 C416 0.929 . S
H413 C422 0.929 . S
C414 H408 0.930 . S
C414 C415 1.367 . S
C414 C422 1.378 . S
C415 C414 1.367 . S
C415 C423 1.433 . S
C416 H412 0.929 . S
C416 C418 1.378 . S
C416 C420 1.350 . S
C417 C420 1.463 . S
C417 C422 1.350 . S
C417 N425 1.427 . S
C418 H409 0.930 . S
C418 C416 1.378 . S
C418 C419 1.367 . S
C419 C418 1.367 . S
C419 C421 1.433 . S
C420 C416 1.350 . S
C420 C417 1.463 . S
C420 N424 1.427 . S
C421 H411 0.929 . S
C421 C419 1.433 . S
C421 N424 1.384 . S
C422 H413 0.929 . S
C422 C414 1.378 . S
C422 C417 1.350 . S
C423 H410 0.929 . S
C423 C415 1.433 . S
C423 N425 1.384 . S
N424 C420 1.427 . S
N424 C421 1.384 . S
N425 C417 1.427 . S
N425 C423 1.384 . S
H426 C432 0.930 . S
H427 C436 0.930 . S
H428 C441 0.929 . S
H429 C439 0.929 . S
H430 C434 0.929 . S
H431 C440 0.929 . S
C432 H426 0.930 . S
C432 C433 1.367 . S
C432 C440 1.378 . S
C433 C432 1.367 . S
C433 C441 1.433 . S
C434 H430 0.929 . S
C434 C436 1.378 . S
C434 C438 1.350 . S
C435 C438 1.463 1_455 S
C435 C440 1.350 . S
C435 N443 1.427 . S
C436 H427 0.930 . S
C436 C434 1.378 . S
C436 C437 1.367 . S
C437 C436 1.367 . S
C437 C439 1.433 . S
C438 C434 1.350 . S
C438 C435 1.463 1_655 S
C438 N442 1.427 . S
C439 H429 0.929 . S
C439 C437 1.433 . S
C439 N442 1.384 . S
C440 H431 0.929 . S
C440 C432 1.378 . S
C440 C435 1.350 . S
C441 H428 0.929 . S
C441 C433 1.433 . S
C441 N443 1.384 . S
N442 C438 1.427 . S
N442 C439 1.384 . S
N443 C435 1.427 . S
N443 C441 1.384 . S
H444 C450 0.930 . S
H445 C454 0.930 . S
H446 C459 0.929 . S
H447 C457 0.929 . S
H448 C452 0.929 . S
H449 C458 0.929 . S
C450 H444 0.930 . S
C450 C451 1.367 . S
C450 C458 1.378 . S
C451 C450 1.367 . S
C451 C459 1.433 . S
C452 H448 0.929 . S
C452 C454 1.378 . S
C452 C456 1.350 . S
C453 C456 1.463 1_565 S
C453 C458 1.350 . S
C453 N461 1.427 . S
C454 H445 0.930 . S
C454 C452 1.378 . S
C454 C455 1.367 . S
C455 C454 1.367 . S
C455 C457 1.433 . S
C456 C452 1.350 . S
C456 C453 1.463 1_545 S
C456 N460 1.427 . S
C457 H447 0.929 . S
C457 C455 1.433 . S
C457 N460 1.384 . S
C458 H449 0.929 . S
C458 C450 1.378 . S
C458 C453 1.350 . S
C459 H446 0.929 . S
C459 C451 1.433 . S
C459 N461 1.384 . S
N460 C456 1.427 . S
N460 C457 1.384 . S
N461 C453 1.427 . S
N461 C459 1.384 . S
H462 C468 0.930 . S
H463 C472 0.930 . S
H464 C477 0.929 . S
H465 C475 0.929 . S
H466 C470 0.929 . S
H467 C476 0.929 . S
C468 H462 0.930 . S
C468 C469 1.367 . S
C468 C476 1.378 . S
C469 C468 1.367 . S
C469 C477 1.433 . S
C470 H466 0.929 . S
C470 C472 1.378 . S
C470 C474 1.350 . S
C471 C474 1.463 . S
C471 C476 1.350 . S
C471 N479 1.427 . S
C472 H463 0.930 . S
C472 C470 1.378 . S
C472 C473 1.367 . S
C473 C472 1.367 . S
C473 C475 1.433 . S
C474 C470 1.350 . S
C474 C471 1.463 . S
C474 N478 1.427 . S
C475 H465 0.929 . S
C475 C473 1.433 . S
C475 N478 1.384 . S
C476 H467 0.929 . S
C476 C468 1.378 . S
C476 C471 1.350 . S
C477 H464 0.929 . S
C477 C469 1.433 . S
C477 N479 1.384 . S
N478 C474 1.427 . S
N478 C475 1.384 . S
N479 C471 1.427 . S
N479 C477 1.384 . S
H480 C486 0.930 . S
H481 C490 0.930 . S
H482 C495 0.929 . S
H483 C493 0.929 . S
H484 C488 0.929 . S
H485 C494 0.929 . S
C486 H480 0.930 . S
C486 C487 1.367 . S
C486 C494 1.378 . S
C487 C486 1.367 . S
C487 C495 1.433 . S
C488 H484 0.929 . S
C488 C490 1.378 . S
C488 C492 1.350 . S
C489 C492 1.463 1_655 S
C489 C494 1.350 . S
C489 N497 1.427 . S
C490 H481 0.930 . S
C490 C488 1.378 . S
C490 C491 1.367 . S
C491 C490 1.367 . S
C491 C493 1.433 . S
C492 C488 1.350 . S
C492 C489 1.463 1_455 S
C492 N496 1.427 . S
C493 H483 0.929 . S
C493 C491 1.433 . S
C493 N496 1.384 . S
C494 H485 0.929 . S
C494 C486 1.378 . S
C494 C489 1.350 . S
C495 H482 0.929 . S
C495 C487 1.433 . S
C495 N497 1.384 . S
N496 C492 1.427 . S
N496 C493 1.384 . S
N497 C489 1.427 . S
N497 C495 1.384 . S
H498 C504 0.930 . S
H499 C508 0.930 . S
H500 C513 0.929 . S
H501 C511 0.929 . S
H502 C506 0.929 . S
H503 C512 0.929 . S
C504 H498 0.930 . S
C504 C505 1.367 . S
C504 C512 1.378 . S
C505 C504 1.367 . S
C505 C513 1.433 . S
C506 H502 0.929 . S
C506 C508 1.378 . S
C506 C510 1.350 . S
C507 C510 1.463 1_545 S
C507 C512 1.350 . S
C507 N515 1.427 . S
C508 H499 0.930 . S
C508 C506 1.378 . S
C508 C509 1.367 . S
C509 C508 1.367 . S
C509 C511 1.433 . S
C510 C506 1.350 . S
C510 C507 1.463 1_565 S
C510 N514 1.427 . S
C511 H501 0.929 . S
C511 C509 1.433 . S
C511 N514 1.384 . S
C512 H503 0.929 . S
C512 C504 1.378 . S
C512 C507 1.350 . S
C513 H500 0.929 . S
C513 C505 1.433 . S
C513 N515 1.384 . S
N514 C510 1.427 . S
N514 C511 1.384 . S
N515 C507 1.427 . S
N515 C513 1.384 . S
H516 C522 0.930 . S
H517 C526 0.930 . S
H518 C531 0.929 . S
H519 C529 0.929 . S
H520 C524 0.929 . S
H521 C530 0.929 . S
C522 H516 0.930 . S
C522 C523 1.367 . S
C522 C530 1.378 . S
C523 C522 1.367 . S
C523 C531 1.433 . S
C524 H520 0.929 . S
C524 C526 1.378 . S
C524 C528 1.350 . S
C525 C528 1.463 . S
C525 C530 1.350 . S
C525 N533 1.427 . S
C526 H517 0.930 . S
C526 C524 1.378 . S
C526 C527 1.367 . S
C527 C526 1.367 . S
C527 C529 1.433 . S
C528 C524 1.350 . S
C528 C525 1.463 . S
C528 N532 1.427 . S
C529 H519 0.929 . S
C529 C527 1.433 . S
C529 N532 1.384 . S
C530 H521 0.929 . S
C530 C522 1.378 . S
C530 C525 1.350 . S
C531 H518 0.929 . S
C531 C523 1.433 . S
C531 N533 1.384 . S
N532 C528 1.427 . S
N532 C529 1.384 . S
N533 C525 1.427 . S
N533 C531 1.384 . S
H534 C540 0.930 . S
H535 C544 0.930 . S
H536 C549 0.929 . S
H537 C547 0.929 . S
H538 C542 0.929 . S
H539 C548 0.929 . S
C540 H534 0.930 . S
C540 C541 1.367 . S
C540 C548 1.378 . S
C541 C540 1.367 . S
C541 C549 1.433 . S
C542 H538 0.929 . S
C542 C544 1.378 . S
C542 C546 1.350 . S
C543 C546 1.463 1_455 S
C543 C548 1.350 . S
C543 N551 1.427 . S
C544 H535 0.930 . S
C544 C542 1.378 . S
C544 C545 1.367 . S
C545 C544 1.367 . S
C545 C547 1.433 . S
C546 C542 1.350 . S
C546 C543 1.463 1_655 S
C546 N550 1.427 . S
C547 H537 0.929 . S
C547 C545 1.433 . S
C547 N550 1.384 . S
C548 H539 0.929 . S
C548 C540 1.378 . S
C548 C543 1.350 . S
C549 H536 0.929 . S
C549 C541 1.433 . S
C549 N551 1.384 . S
N550 C546 1.427 . S
N550 C547 1.384 . S
N551 C543 1.427 . S
N551 C549 1.384 . S
H552 C558 0.930 . S
H553 C562 0.930 . S
H554 C567 0.929 . S
H555 C565 0.929 . S
H556 C560 0.929 . S
H557 C566 0.929 . S
C558 H552 0.930 . S
C558 C559 1.367 . S
C558 C566 1.378 . S
C559 C558 1.367 . S
C559 C567 1.433 . S
C560 H556 0.929 . S
C560 C562 1.378 . S
C560 C564 1.350 . S
C561 C564 1.463 . S
C561 C566 1.350 . S
C561 N569 1.427 . S
C562 H553 0.930 . S
C562 C560 1.378 . S
C562 C563 1.367 . S
C563 C562 1.367 . S
C563 C565 1.433 . S
C564 C560 1.350 . S
C564 C561 1.463 . S
C564 N568 1.427 . S
C565 H555 0.929 . S
C565 C563 1.433 . S
C565 N568 1.384 . S
C566 H557 0.929 . S
C566 C558 1.378 . S
C566 C561 1.350 . S
C567 H554 0.929 . S
C567 C559 1.433 . S
C567 N569 1.384 . S
N568 C564 1.427 . S
N568 C565 1.384 . S
N569 C561 1.427 . S
N569 C567 1.384 . S
H570 C576 0.930 . S
H571 C580 0.930 . S
H572 C585 0.929 . S
H573 C583 0.929 . S
H574 C578 0.929 . S
H575 C584 0.929 . S
C576 H570 0.930 . S
C576 C577 1.367 . S
C576 C584 1.378 . S
C577 C576 1.367 . S
C577 C585 1.433 . S
C578 H574 0.929 . S
C578 C580 1.378 . S
C578 C582 1.350 . S
C579 C582 1.463 . S
C579 C584 1.350 . S
C579 N587 1.427 . S
C580 H571 0.930 . S
C580 C578 1.378 . S
C580 C581 1.367 . S
C581 C580 1.367 . S
C581 C583 1.433 . S
C582 C578 1.350 . S
C582 C579 1.463 . S
C582 N586 1.427 . S
C583 H573 0.929 . S
C583 C581 1.433 . S
C583 N586 1.384 . S
C584 H575 0.929 . S
C584 C576 1.378 . S
C584 C579 1.350 . S
C585 H572 0.929 . S
C585 C577 1.433 . S
C585 N587 1.384 . S
N586 C582 1.427 . S
N586 C583 1.384 . S
N587 C579 1.427 . S
N587 C585 1.384 . S
H588 C594 0.930 . S
H589 C598 0.930 . S
H590 C603 0.929 . S
H591 C601 0.929 . S
H592 C596 0.929 . S
H593 C602 0.929 . S
C594 H588 0.930 . S
C594 C595 1.367 . S
C594 C602 1.378 . S
C595 C594 1.367 . S
C595 C603 1.433 . S
C596 H592 0.929 . S
C596 C598 1.378 . S
C596 C600 1.350 . S
C597 C600 1.463 . S
C597 C602 1.350 . S
C597 N605 1.427 . S
C598 H589 0.930 . S
C598 C596 1.378 . S
C598 C599 1.367 . S
C599 C598 1.367 . S
C599 C601 1.433 . S
C600 C596 1.350 . S
C600 C597 1.463 . S
C600 N604 1.427 . S
C601 H591 0.929 . S
C601 C599 1.433 . S
C601 N604 1.384 . S
C602 H593 0.929 . S
C602 C594 1.378 . S
C602 C597 1.350 . S
C603 H590 0.929 . S
C603 C595 1.433 . S
C603 N605 1.384 . S
N604 C600 1.427 . S
N604 C601 1.384 . S
N605 C597 1.427 . S
N605 C603 1.384 . S
H606 C612 0.930 . S
H607 C616 0.930 . S
H608 C621 0.929 . S
H609 C619 0.929 . S
H610 C614 0.929 . S
H611 C620 0.929 . S
C612 H606 0.930 . S
C612 C613 1.367 . S
C612 C620 1.378 . S
C613 C612 1.367 . S
C613 C621 1.433 . S
C614 H610 0.929 . S
C614 C616 1.378 . S
C614 C618 1.350 . S
C615 C618 1.463 . S
C615 C620 1.350 . S
C615 N623 1.427 . S
C616 H607 0.930 . S
C616 C614 1.378 . S
C616 C617 1.367 . S
C617 C616 1.367 . S
C617 C619 1.433 . S
C618 C614 1.350 . S
C618 C615 1.463 . S
C618 N622 1.427 . S
C619 H609 0.929 . S
C619 C617 1.433 . S
C619 N622 1.384 . S
C620 H611 0.929 . S
C620 C612 1.378 . S
C620 C615 1.350 . S
C621 H608 0.929 . S
C621 C613 1.433 . S
C621 N623 1.384 . S
N622 C618 1.427 . S
N622 C619 1.384 . S
N623 C615 1.427 . S
N623 C621 1.384 . S
H624 C630 0.930 . S
H625 C634 0.930 . S
H626 C639 0.929 . S
H627 C637 0.929 . S
H628 C632 0.929 . S
H629 C638 0.929 . S
C630 H624 0.930 . S
C630 C631 1.367 . S
C630 C638 1.378 . S
C631 C630 1.367 . S
C631 C639 1.433 . S
C632 H628 0.929 . S
C632 C634 1.378 . S
C632 C636 1.350 . S
C633 C636 1.463 . S
C633 C638 1.350 . S
C633 N641 1.427 . S
C634 H625 0.930 . S
C634 C632 1.378 . S
C634 C635 1.367 . S
C635 C634 1.367 . S
C635 C637 1.433 . S
C636 C632 1.350 . S
C636 C633 1.463 . S
C636 N640 1.427 . S
C637 H627 0.929 . S
C637 C635 1.433 . S
C637 N640 1.384 . S
C638 H629 0.929 . S
C638 C630 1.378 . S
C638 C633 1.350 . S
C639 H626 0.929 . S
C639 C631 1.433 . S
C639 N641 1.384 . S
N640 C636 1.427 . S
N640 C637 1.384 . S
N641 C633 1.427 . S
N641 C639 1.384 . S
H642 C648 0.930 . S
H643 C652 0.930 . S
H644 C657 0.929 . S
H645 C655 0.929 . S
H646 C650 0.929 . S
H647 C656 0.929 . S
C648 H642 0.930 . S
C648 C649 1.367 . S
C648 C656 1.378 . S
C649 C648 1.367 . S
C649 C657 1.433 . S
C650 H646 0.929 . S
C650 C652 1.378 . S
C650 C654 1.350 . S
C651 C654 1.463 . S
C651 C656 1.350 . S
C651 N659 1.427 . S
C652 H643 0.930 . S
C652 C650 1.378 . S
C652 C653 1.367 . S
C653 C652 1.367 . S
C653 C655 1.433 . S
C654 C650 1.350 . S
C654 C651 1.463 . S
C654 N658 1.427 . S
C655 H645 0.929 . S
C655 C653 1.433 . S
C655 N658 1.384 . S
C656 H647 0.929 . S
C656 C648 1.378 . S
C656 C651 1.350 . S
C657 H644 0.929 . S
C657 C649 1.433 . S
C657 N659 1.384 . S
N658 C654 1.427 . S
N658 C655 1.384 . S
N659 C651 1.427 . S
N659 C657 1.384 . S
H660 C666 0.930 . S
H661 C670 0.930 . S
H662 C675 0.929 . S
H663 C673 0.929 . S
H664 C668 0.929 . S
H665 C674 0.929 . S
C666 H660 0.930 . S
C666 C667 1.367 . S
C666 C674 1.378 . S
C667 C666 1.367 . S
C667 C675 1.433 . S
C668 H664 0.929 . S
C668 C670 1.378 . S
C668 C672 1.350 . S
C669 C672 1.463 . S
C669 C674 1.350 . S
C669 N677 1.427 . S
C670 H661 0.930 . S
C670 C668 1.378 . S
C670 C671 1.367 . S
C671 C670 1.367 . S
C671 C673 1.433 . S
C672 C668 1.350 . S
C672 C669 1.463 . S
C672 N676 1.427 . S
C673 H663 0.929 . S
C673 C671 1.433 . S
C673 N676 1.384 . S
C674 H665 0.929 . S
C674 C666 1.378 . S
C674 C669 1.350 . S
C675 H662 0.929 . S
C675 C667 1.433 . S
C675 N677 1.384 . S
N676 C672 1.427 . S
N676 C673 1.384 . S
N677 C669 1.427 . S
N677 C675 1.384 . S
H678 C684 0.930 . S
H679 C688 0.930 . S
H680 C693 0.929 . S
H681 C691 0.929 . S
H682 C686 0.929 . S
H683 C692 0.929 . S
C684 H678 0.930 . S
C684 C685 1.367 . S
C684 C692 1.378 . S
C685 C684 1.367 . S
C685 C693 1.433 . S
C686 H682 0.929 . S
C686 C688 1.378 . S
C686 C690 1.350 . S
C687 C690 1.463 . S
C687 C692 1.350 . S
C687 N695 1.427 . S
C688 H679 0.930 . S
C688 C686 1.378 . S
C688 C689 1.367 . S
C689 C688 1.367 . S
C689 C691 1.433 . S
C690 C686 1.350 . S
C690 C687 1.463 . S
C690 N694 1.427 . S
C691 H681 0.929 . S
C691 C689 1.433 . S
C691 N694 1.384 . S
C692 H683 0.929 . S
C692 C684 1.378 . S
C692 C687 1.350 . S
C693 H680 0.929 . S
C693 C685 1.433 . S
C693 N695 1.384 . S
N694 C690 1.427 . S
N694 C691 1.384 . S
N695 C687 1.427 . S
N695 C693 1.384 . S
H696 C702 0.930 . S
H697 C706 0.930 . S
H698 C711 0.929 . S
H699 C709 0.929 . S
H700 C704 0.929 . S
H701 C710 0.929 . S
C702 H696 0.930 . S
C702 C703 1.367 . S
C702 C710 1.378 . S
C703 C702 1.367 . S
C703 C711 1.433 . S
C704 H700 0.929 . S
C704 C706 1.378 . S
C704 C708 1.350 . S
C705 C708 1.463 . S
C705 C710 1.350 . S
C705 N713 1.427 . S
C706 H697 0.930 . S
C706 C704 1.378 . S
C706 C707 1.367 . S
C707 C706 1.367 . S
C707 C709 1.433 . S
C708 C704 1.350 . S
C708 C705 1.463 . S
C708 N712 1.427 . S
C709 H699 0.929 . S
C709 C707 1.433 . S
C709 N712 1.384 . S
C710 H701 0.929 . S
C710 C702 1.378 . S
C710 C705 1.350 . S
C711 H698 0.929 . S
C711 C703 1.433 . S
C711 N713 1.384 . S
N712 C708 1.427 . S
N712 C709 1.384 . S
N713 C705 1.427 . S
N713 C711 1.384 . S
H714 C720 0.930 . S
H715 C724 0.930 . S
H716 C729 0.929 . S
H717 C727 0.929 . S
H718 C722 0.929 . S
H719 C728 0.929 . S
C720 H714 0.930 . S
C720 C721 1.367 . S
C720 C728 1.378 . S
C721 C720 1.367 . S
C721 C729 1.433 . S
C722 H718 0.929 . S
C722 C724 1.378 . S
C722 C726 1.350 . S
C723 C726 1.463 . S
C723 C728 1.350 . S
C723 N731 1.427 . S
C724 H715 0.930 . S
C724 C722 1.378 . S
C724 C725 1.367 . S
C725 C724 1.367 . S
C725 C727 1.433 . S
C726 C722 1.350 . S
C726 C723 1.463 . S
C726 N730 1.427 . S
C727 H717 0.929 . S
C727 C725 1.433 . S
C727 N730 1.384 . S
C728 H719 0.929 . S
C728 C720 1.378 . S
C728 C723 1.350 . S
C729 H716 0.929 . S
C729 C721 1.433 . S
C729 N731 1.384 . S
N730 C726 1.427 . S
N730 C727 1.384 . S
N731 C723 1.427 . S
N731 C729 1.384 . S
H732 C738 0.930 . S
H733 C742 0.930 . S
H734 C747 0.929 . S
H735 C745 0.929 . S
H736 C740 0.929 . S
H737 C746 0.929 . S
C738 H732 0.930 . S
C738 C739 1.367 . S
C738 C746 1.378 . S
C739 C738 1.367 . S
C739 C747 1.433 . S
C740 H736 0.929 . S
C740 C742 1.378 . S
C740 C744 1.350 . S
C741 C744 1.463 . S
C741 C746 1.350 . S
C741 N749 1.427 . S
C742 H733 0.930 . S
C742 C740 1.378 . S
C742 C743 1.367 . S
C743 C742 1.367 . S
C743 C745 1.433 . S
C744 C740 1.350 . S
C744 C741 1.463 . S
C744 N748 1.427 . S
C745 H735 0.929 . S
C745 C743 1.433 . S
C745 N748 1.384 . S
C746 H737 0.929 . S
C746 C738 1.378 . S
C746 C741 1.350 . S
C747 H734 0.929 . S
C747 C739 1.433 . S
C747 N749 1.384 . S
N748 C744 1.427 . S
N748 C745 1.384 . S
N749 C741 1.427 . S
N749 C747 1.384 . S
H750 C756 0.930 . S
H751 C760 0.930 . S
H752 C765 0.929 . S
H753 C763 0.929 . S
H754 C758 0.929 . S
H755 C764 0.929 . S
C756 H750 0.930 . S
C756 C757 1.367 . S
C756 C764 1.378 . S
C757 C756 1.367 . S
C757 C765 1.433 . S
C758 H754 0.929 . S
C758 C760 1.378 . S
C758 C762 1.350 . S
C759 C762 1.463 . S
C759 C764 1.350 . S
C759 N767 1.427 . S
C760 H751 0.930 . S
C760 C758 1.378 . S
C760 C761 1.367 . S
C761 C760 1.367 . S
C761 C763 1.433 . S
C762 C758 1.350 . S
C762 C759 1.463 . S
C762 N766 1.427 . S
C763 H753 0.929 . S
C763 C761 1.433 . S
C763 N766 1.384 . S
C764 H755 0.929 . S
C764 C756 1.378 . S
C764 C759 1.350 . S
C765 H752 0.929 . S
C765 C757 1.433 . S
C765 N767 1.384 . S
N766 C762 1.427 . S
N766 C763 1.384 . S
N767 C759 1.427 . S
N767 C765 1.384 . S
H768 C774 0.930 . S
H769 C778 0.930 . S
H770 C783 0.929 . S
H771 C781 0.929 . S
H772 C776 0.929 . S
H773 C782 0.929 . S
C774 H768 0.930 . S
C774 C775 1.367 . S
C774 C782 1.378 . S
C775 C774 1.367 . S
C775 C783 1.433 . S
C776 H772 0.929 . S
C776 C778 1.378 . S
C776 C780 1.350 . S
C777 C780 1.463 1_554 S
C777 C782 1.350 . S
C777 N785 1.427 . S
C778 H769 0.930 . S
C778 C776 1.378 . S
C778 C779 1.367 . S
C779 C778 1.367 . S
C779 C781 1.433 . S
C780 C776 1.350 . S
C780 C777 1.463 1_556 S
C780 N784 1.427 . S
C781 H771 0.929 . S
C781 C779 1.433 . S
C781 N784 1.384 . S
C782 H773 0.929 . S
C782 C774 1.378 . S
C782 C777 1.350 . S
C783 H770 0.929 . S
C783 C775 1.433 . S
C783 N785 1.384 . S
N784 C780 1.427 . S
N784 C781 1.384 . S
N785 C777 1.427 . S
N785 C783 1.384 . S
H786 C792 0.930 . S
H787 C796 0.930 . S
H788 C801 0.929 . S
H789 C799 0.929 . S
H790 C794 0.929 . S
H791 C800 0.929 . S
C792 H786 0.930 . S
C792 C793 1.367 . S
C792 C800 1.378 . S
C793 C792 1.367 . S
C793 C801 1.433 . S
C794 H790 0.929 . S
C794 C796 1.378 . S
C794 C798 1.350 . S
C795 C798 1.463 1_556 S
C795 C800 1.350 . S
C795 N803 1.427 . S
C796 H787 0.930 . S
C796 C794 1.378 . S
C796 C797 1.367 . S
C797 C796 1.367 . S
C797 C799 1.433 . S
C798 C794 1.350 . S
C798 C795 1.463 1_554 S
C798 N802 1.427 . S
C799 H789 0.929 . S
C799 C797 1.433 . S
C799 N802 1.384 . S
C800 H791 0.929 . S
C800 C792 1.378 . S
C800 C795 1.350 . S
C801 H788 0.929 . S
C801 C793 1.433 . S
C801 N803 1.384 . S
N802 C798 1.427 . S
N802 C799 1.384 . S
N803 C795 1.427 . S
N803 C801 1.384 . S
H804 C810 0.930 . S
H805 C814 0.930 . S
H806 C819 0.929 . S
H807 C817 0.929 . S
H808 C812 0.929 . S
H809 C818 0.929 . S
C810 H804 0.930 . S
C810 C811 1.367 . S
C810 C818 1.378 . S
C811 C810 1.367 . S
C811 C819 1.433 . S
C812 H808 0.929 . S
C812 C814 1.378 . S
C812 C816 1.350 . S
C813 C816 1.463 1_556 S
C813 C818 1.350 . S
C813 N821 1.427 . S
C814 H805 0.930 . S
C814 C812 1.378 . S
C814 C815 1.367 . S
C815 C814 1.367 . S
C815 C817 1.433 . S
C816 C812 1.350 . S
C816 C813 1.463 1_554 S
C816 N820 1.427 . S
C817 H807 0.929 . S
C817 C815 1.433 . S
C817 N820 1.384 . S
C818 H809 0.929 . S
C818 C810 1.378 . S
C818 C813 1.350 . S
C819 H806 0.929 . S
C819 C811 1.433 . S
C819 N821 1.384 . S
N820 C816 1.427 . S
N820 C817 1.384 . S
N821 C813 1.427 . S
N821 C819 1.384 . S
H822 C828 0.930 . S
H823 C832 0.930 . S
H824 C837 0.929 . S
H825 C835 0.929 . S
H826 C830 0.929 . S
H827 C836 0.929 . S
C828 H822 0.930 . S
C828 C829 1.367 . S
C828 C836 1.378 . S
C829 C828 1.367 . S
C829 C837 1.433 . S
C830 H826 0.929 . S
C830 C832 1.378 . S
C830 C834 1.350 . S
C831 C834 1.463 1_554 S
C831 C836 1.350 . S
C831 N839 1.427 . S
C832 H823 0.930 . S
C832 C830 1.378 . S
C832 C833 1.367 . S
C833 C832 1.367 . S
C833 C835 1.433 . S
C834 C830 1.350 . S
C834 C831 1.463 1_556 S
C834 N838 1.427 . S
C835 H825 0.929 . S
C835 C833 1.433 . S
C835 N838 1.384 . S
C836 H827 0.929 . S
C836 C828 1.378 . S
C836 C831 1.350 . S
C837 H824 0.929 . S
C837 C829 1.433 . S
C837 N839 1.384 . S
N838 C834 1.427 . S
N838 C835 1.384 . S
N839 C831 1.427 . S
N839 C837 1.384 . S
H840 C846 0.930 . S
H841 C850 0.930 . S
H842 C855 0.929 . S
H843 C853 0.929 . S
H844 C848 0.929 . S
H845 C854 0.929 . S
C846 H840 0.930 . S
C846 C847 1.367 . S
C846 C854 1.378 . S
C847 C846 1.367 . S
C847 C855 1.433 . S
C848 H844 0.929 . S
C848 C850 1.378 . S
C848 C852 1.350 . S
C849 C852 1.463 1_554 S
C849 C854 1.350 . S
C849 N857 1.427 . S
C850 H841 0.930 . S
C850 C848 1.378 . S
C850 C851 1.367 . S
C851 C850 1.367 . S
C851 C853 1.433 . S
C852 C848 1.350 . S
C852 C849 1.463 1_556 S
C852 N856 1.427 . S
C853 H843 0.929 . S
C853 C851 1.433 . S
C853 N856 1.384 . S
C854 H845 0.929 . S
C854 C846 1.378 . S
C854 C849 1.350 . S
C855 H842 0.929 . S
C855 C847 1.433 . S
C855 N857 1.384 . S
N856 C852 1.427 . S
N856 C853 1.384 . S
N857 C849 1.427 . S
N857 C855 1.384 . S
H858 C864 0.930 . S
H859 C868 0.930 . S
H860 C873 0.929 . S
H861 C871 0.929 . S
H862 C866 0.929 . S
H863 C872 0.929 . S
C864 H858 0.930 . S
C864 C865 1.367 . S
C864 C872 1.378 . S
C865 C864 1.367 . S
C865 C873 1.433 . S
C866 H862 0.929 . S
C866 C868 1.378 . S
C866 C870 1.350 . S
C867 C870 1.463 1_556 S
C867 C872 1.350 . S
C867 N875 1.427 . S
C868 H859 0.930 . S
C868 C866 1.378 . S
C868 C869 1.367 . S
C869 C868 1.367 . S
C869 C871 1.433 . S
C870 C866 1.350 . S
C870 C867 1.463 1_554 S
C870 N874 1.427 . S
C871 H861 0.929 . S
C871 C869 1.433 . S
C871 N874 1.384 . S
C872 H863 0.929 . S
C872 C864 1.378 . S
C872 C867 1.350 . S
C873 H860 0.929 . S
C873 C865 1.433 . S
C873 N875 1.384 . S
N874 C870 1.427 . S
N874 C871 1.384 . S
N875 C867 1.427 . S
N875 C873 1.384 . S
H876 C882 0.930 . S
H877 C886 0.930 . S
H878 C891 0.929 . S
H879 C889 0.929 . S
H880 C884 0.929 . S
H881 C890 0.929 . S
C882 H876 0.930 . S
C882 C883 1.367 . S
C882 C890 1.378 . S
C883 C882 1.367 . S
C883 C891 1.433 . S
C884 H880 0.929 . S
C884 C886 1.378 . S
C884 C888 1.350 . S
C885 C888 1.463 . S
C885 C890 1.350 . S
C885 N893 1.427 . S
C886 H877 0.930 . S
C886 C884 1.378 . S
C886 C887 1.367 . S
C887 C886 1.367 . S
C887 C889 1.433 . S
C888 C884 1.350 . S
C888 C885 1.463 . S
C888 N892 1.427 . S
C889 H879 0.929 . S
C889 C887 1.433 . S
C889 N892 1.384 . S
C890 H881 0.929 . S
C890 C882 1.378 . S
C890 C885 1.350 . S
C891 H878 0.929 . S
C891 C883 1.433 . S
C891 N893 1.384 . S
N892 C888 1.427 . S
N892 C889 1.384 . S
N893 C885 1.427 . S
N893 C891 1.384 . S
H894 C900 0.930 . S
H895 C904 0.930 . S
H896 C909 0.929 . S
H897 C907 0.929 . S
H898 C902 0.929 . S
H899 C908 0.929 . S
C900 H894 0.930 . S
C900 C901 1.367 . S
C900 C908 1.378 . S
C901 C900 1.367 . S
C901 C909 1.433 . S
C902 H898 0.929 . S
C902 C904 1.378 . S
C902 C906 1.350 . S
C903 C906 1.463 . S
C903 C908 1.350 . S
C903 N911 1.427 . S
C904 H895 0.930 . S
C904 C902 1.378 . S
C904 C905 1.367 . S
C905 C904 1.367 . S
C905 C907 1.433 . S
C906 C902 1.350 . S
C906 C903 1.463 . S
C906 N910 1.427 . S
C907 H897 0.929 . S
C907 C905 1.433 . S
C907 N910 1.384 . S
C908 H899 0.929 . S
C908 C900 1.378 . S
C908 C903 1.350 . S
C909 H896 0.929 . S
C909 C901 1.433 . S
C909 N911 1.384 . S
N910 C906 1.427 . S
N910 C907 1.384 . S
N911 C903 1.427 . S
N911 C909 1.384 . S
H912 C918 0.930 . S
H913 C922 0.930 . S
H914 C927 0.929 . S
H915 C925 0.929 . S
H916 C920 0.929 . S
H917 C926 0.929 . S
C918 H912 0.930 . S
C918 C919 1.367 . S
C918 C926 1.378 . S
C919 C918 1.367 . S
C919 C927 1.433 . S
C920 H916 0.929 . S
C920 C922 1.378 . S
C920 C924 1.350 . S
C921 C924 1.463 . S
C921 C926 1.350 . S
C921 N929 1.427 . S
C922 H913 0.930 . S
C922 C920 1.378 . S
C922 C923 1.367 . S
C923 C922 1.367 . S
C923 C925 1.433 . S
C924 C920 1.350 . S
C924 C921 1.463 . S
C924 N928 1.427 . S
C925 H915 0.929 . S
C925 C923 1.433 . S
C925 N928 1.384 . S
C926 H917 0.929 . S
C926 C918 1.378 . S
C926 C921 1.350 . S
C927 H914 0.929 . S
C927 C919 1.433 . S
C927 N929 1.384 . S
N928 C924 1.427 . S
N928 C925 1.384 . S
N929 C921 1.427 . S
N929 C927 1.384 . S
H930 C936 0.930 . S
H931 C940 0.930 . S
H932 C945 0.929 . S
H933 C943 0.929 . S
H934 C938 0.929 . S
H935 C944 0.929 . S
C936 H930 0.930 . S
C936 C937 1.367 . S
C936 C944 1.378 . S
C937 C936 1.367 . S
C937 C945 1.433 . S
C938 H934 0.929 . S
C938 C940 1.378 . S
C938 C942 1.350 . S
C939 C942 1.463 . S
C939 C944 1.350 . S
C939 N947 1.427 . S
C940 H931 0.930 . S
C940 C938 1.378 . S
C940 C941 1.367 . S
C941 C940 1.367 . S
C941 C943 1.433 . S
C942 C938 1.350 . S
C942 C939 1.463 . S
C942 N946 1.427 . S
C943 H933 0.929 . S
C943 C941 1.433 . S
C943 N946 1.384 . S
C944 H935 0.929 . S
C944 C936 1.378 . S
C944 C939 1.350 . S
C945 H932 0.929 . S
C945 C937 1.433 . S
C945 N947 1.384 . S
N946 C942 1.427 . S
N946 C943 1.384 . S
N947 C939 1.427 . S
N947 C945 1.384 . S
H948 C954 0.930 . S
H949 C958 0.930 . S
H950 C963 0.929 . S
H951 C961 0.929 . S
H952 C956 0.929 . S
H953 C962 0.929 . S
C954 H948 0.930 . S
C954 C955 1.367 . S
C954 C962 1.378 . S
C955 C954 1.367 . S
C955 C963 1.433 . S
C956 H952 0.929 . S
C956 C958 1.378 . S
C956 C960 1.350 . S
C957 C960 1.463 . S
C957 C962 1.350 . S
C957 N965 1.427 . S
C958 H949 0.930 . S
C958 C956 1.378 . S
C958 C959 1.367 . S
C959 C958 1.367 . S
C959 C961 1.433 . S
C960 C956 1.350 . S
C960 C957 1.463 . S
C960 N964 1.427 . S
C961 H951 0.929 . S
C961 C959 1.433 . S
C961 N964 1.384 . S
C962 H953 0.929 . S
C962 C954 1.378 . S
C962 C957 1.350 . S
C963 H950 0.929 . S
C963 C955 1.433 . S
C963 N965 1.384 . S
N964 C960 1.427 . S
N964 C961 1.384 . S
N965 C957 1.427 . S
N965 C963 1.384 . S
H966 C972 0.930 . S
H967 C976 0.930 . S
H968 C981 0.929 . S
H969 C979 0.929 . S
H970 C974 0.929 . S
H971 C980 0.929 . S
C972 H966 0.930 . S
C972 C973 1.367 . S
C972 C980 1.378 . S
C973 C972 1.367 . S
C973 C981 1.433 . S
C974 H970 0.929 . S
C974 C976 1.378 . S
C974 C978 1.350 . S
C975 C978 1.463 . S
C975 C980 1.350 . S
C975 N983 1.427 . S
C976 H967 0.930 . S
C976 C974 1.378 . S
C976 C977 1.367 . S
C977 C976 1.367 . S
C977 C979 1.433 . S
C978 C974 1.350 . S
C978 C975 1.463 . S
C978 N982 1.427 . S
C979 H969 0.929 . S
C979 C977 1.433 . S
C979 N982 1.384 . S
C980 H971 0.929 . S
C980 C972 1.378 . S
C980 C975 1.350 . S
C981 H968 0.929 . S
C981 C973 1.433 . S
C981 N983 1.384 . S
N982 C978 1.427 . S
N982 C979 1.384 . S
N983 C975 1.427 . S
N983 C981 1.384 . S
H984 C990 0.930 . S
H985 C994 0.930 . S
H986 C999 0.929 . S
H987 C997 0.929 . S
H988 C992 0.929 . S
H989 C998 0.929 . S
C990 H984 0.930 . S
C990 C991 1.367 . S
C990 C998 1.378 . S
C991 C990 1.367 . S
C991 C999 1.433 . S
C992 H988 0.929 . S
C992 C994 1.378 . S
C992 C996 1.350 . S
C993 C996 1.463 . S
C993 C998 1.350 . S
C993 N1001 1.427 . S
C994 H985 0.930 . S
C994 C992 1.378 . S
C994 C995 1.367 . S
C995 C994 1.367 . S
C995 C997 1.433 . S
C996 C992 1.350 . S
C996 C993 1.463 . S
C996 N1000 1.427 . S
C997 H987 0.929 . S
C997 C995 1.433 . S
C997 N1000 1.384 . S
C998 H989 0.929 . S
C998 C990 1.378 . S
C998 C993 1.350 . S
C999 H986 0.929 . S
C999 C991 1.433 . S
C999 N1001 1.384 . S
N1000 C996 1.427 . S
N1000 C997 1.384 . S
N1001 C993 1.427 . S
N1001 C999 1.384 . S
H1002 C1008 0.930 . S
H1003 C1012 0.930 . S
H1004 C1017 0.929 . S
H1005 C1015 0.929 . S
H1006 C1010 0.929 . S
H1007 C1016 0.929 . S
C1008 H1002 0.930 . S
C1008 C1009 1.367 . S
C1008 C1016 1.378 . S
C1009 C1008 1.367 . S
C1009 C1017 1.433 . S
C1010 H1006 0.929 . S
C1010 C1012 1.378 . S
C1010 C1014 1.350 . S
C1011 C1014 1.463 . S
C1011 C1016 1.350 . S
C1011 N1019 1.427 . S
C1012 H1003 0.930 . S
C1012 C1010 1.378 . S
C1012 C1013 1.367 . S
C1013 C1012 1.367 . S
C1013 C1015 1.433 . S
C1014 C1010 1.350 . S
C1014 C1011 1.463 . S
C1014 N1018 1.427 . S
C1015 H1005 0.929 . S
C1015 C1013 1.433 . S
C1015 N1018 1.384 . S
C1016 H1007 0.929 . S
C1016 C1008 1.378 . S
C1016 C1011 1.350 . S
C1017 H1004 0.929 . S
C1017 C1009 1.433 . S
C1017 N1019 1.384 . S
N1018 C1014 1.427 . S
N1018 C1015 1.384 . S
N1019 C1011 1.427 . S
N1019 C1017 1.384 . S
H1020 C1026 0.930 . S
H1021 C1030 0.930 . S
H1022 C1035 0.929 . S
H1023 C1033 0.929 . S
H1024 C1028 0.929 . S
H1025 C1034 0.929 . S
C1026 H1020 0.930 . S
C1026 C1027 1.367 . S
C1026 C1034 1.378 . S
C1027 C1026 1.367 . S
C1027 C1035 1.433 . S
C1028 H1024 0.929 . S
C1028 C1030 1.378 . S
C1028 C1032 1.350 . S
C1029 C1032 1.463 . S
C1029 C1034 1.350 . S
C1029 N1037 1.427 . S
C1030 H1021 0.930 . S
C1030 C1028 1.378 . S
C1030 C1031 1.367 . S
C1031 C1030 1.367 . S
C1031 C1033 1.433 . S
C1032 C1028 1.350 . S
C1032 C1029 1.463 . S
C1032 N1036 1.427 . S
C1033 H1023 0.929 . S
C1033 C1031 1.433 . S
C1033 N1036 1.384 . S
C1034 H1025 0.929 . S
C1034 C1026 1.378 . S
C1034 C1029 1.350 . S
C1035 H1022 0.929 . S
C1035 C1027 1.433 . S
C1035 N1037 1.384 . S
N1036 C1032 1.427 . S
N1036 C1033 1.384 . S
N1037 C1029 1.427 . S
N1037 C1035 1.384 . S
H1038 C1044 0.930 . S
H1039 C1048 0.930 . S
H1040 C1053 0.929 . S
H1041 C1051 0.929 . S
H1042 C1046 0.929 . S
H1043 C1052 0.929 . S
C1044 H1038 0.930 . S
C1044 C1045 1.367 . S
C1044 C1052 1.378 . S
C1045 C1044 1.367 . S
C1045 C1053 1.433 . S
C1046 H1042 0.929 . S
C1046 C1048 1.378 . S
C1046 C1050 1.350 . S
C1047 C1050 1.463 . S
C1047 C1052 1.350 . S
C1047 N1055 1.427 . S
C1048 H1039 0.930 . S
C1048 C1046 1.378 . S
C1048 C1049 1.367 . S
C1049 C1048 1.367 . S
C1049 C1051 1.433 . S
C1050 C1046 1.350 . S
C1050 C1047 1.463 . S
C1050 N1054 1.427 . S
C1051 H1041 0.929 . S
C1051 C1049 1.433 . S
C1051 N1054 1.384 . S
C1052 H1043 0.929 . S
C1052 C1044 1.378 . S
C1052 C1047 1.350 . S
C1053 H1040 0.929 . S
C1053 C1045 1.433 . S
C1053 N1055 1.384 . S
N1054 C1050 1.427 . S
N1054 C1051 1.384 . S
N1055 C1047 1.427 . S
N1055 C1053 1.384 . S
H1056 C1062 0.930 . S
H1057 C1066 0.930 . S
H1058 C1071 0.929 . S
H1059 C1069 0.929 . S
H1060 C1064 0.929 . S
H1061 C1070 0.929 . S
C1062 H1056 0.930 . S
C1062 C1063 1.367 . S
C1062 C1070 1.378 . S
C1063 C1062 1.367 . S
C1063 C1071 1.433 . S
C1064 H1060 0.929 . S
C1064 C1066 1.378 . S
C1064 C1068 1.350 . S
C1065 C1068 1.463 . S
C1065 C1070 1.350 . S
C1065 N1073 1.427 . S
C1066 H1057 0.930 . S
C1066 C1064 1.378 . S
C1066 C1067 1.367 . S
C1067 C1066 1.367 . S
C1067 C1069 1.433 . S
C1068 C1064 1.350 . S
C1068 C1065 1.463 . S
C1068 N1072 1.427 . S
C1069 H1059 0.929 . S
C1069 C1067 1.433 . S
C1069 N1072 1.384 . S
C1070 H1061 0.929 . S
C1070 C1062 1.378 . S
C1070 C1065 1.350 . S
C1071 H1058 0.929 . S
C1071 C1063 1.433 . S
C1071 N1073 1.384 . S
N1072 C1068 1.427 . S
N1072 C1069 1.384 . S
N1073 C1065 1.427 . S
N1073 C1071 1.384 . S
H1074 C1080 0.930 . S
H1075 C1084 0.930 . S
H1076 C1089 0.929 . S
H1077 C1087 0.929 . S
H1078 C1082 0.929 . S
H1079 C1088 0.929 . S
C1080 H1074 0.930 . S
C1080 C1081 1.367 . S
C1080 C1088 1.378 . S
C1081 C1080 1.367 . S
C1081 C1089 1.433 . S
C1082 H1078 0.929 . S
C1082 C1084 1.378 . S
C1082 C1086 1.350 . S
C1083 C1086 1.463 . S
C1083 C1088 1.350 . S
C1083 N1091 1.427 . S
C1084 H1075 0.930 . S
C1084 C1082 1.378 . S
C1084 C1085 1.367 . S
C1085 C1084 1.367 . S
C1085 C1087 1.433 . S
C1086 C1082 1.350 . S
C1086 C1083 1.463 . S
C1086 N1090 1.427 . S
C1087 H1077 0.929 . S
C1087 C1085 1.433 . S
C1087 N1090 1.384 . S
C1088 H1079 0.929 . S
C1088 C1080 1.378 . S
C1088 C1083 1.350 . S
C1089 H1076 0.929 . S
C1089 C1081 1.433 . S
C1089 N1091 1.384 . S
N1090 C1086 1.427 . S
N1090 C1087 1.384 . S
N1091 C1083 1.427 . S
N1091 C1089 1.384 . S
H1092 C1098 0.930 . S
H1093 C1102 0.930 . S
H1094 C1107 0.929 . S
H1095 C1105 0.929 . S
H1096 C1100 0.929 . S
H1097 C1106 0.929 . S
C1098 H1092 0.930 . S
C1098 C1099 1.367 . S
C1098 C1106 1.378 . S
C1099 C1098 1.367 . S
C1099 C1107 1.433 . S
C1100 H1096 0.929 . S
C1100 C1102 1.378 . S
C1100 C1104 1.350 . S
C1101 C1104 1.463 . S
C1101 C1106 1.350 . S
C1101 N1109 1.427 . S
C1102 H1093 0.930 . S
C1102 C1100 1.378 . S
C1102 C1103 1.367 . S
C1103 C1102 1.367 . S
C1103 C1105 1.433 . S
C1104 C1100 1.350 . S
C1104 C1101 1.463 . S
C1104 N1108 1.427 . S
C1105 H1095 0.929 . S
C1105 C1103 1.433 . S
C1105 N1108 1.384 . S
C1106 H1097 0.929 . S
C1106 C1098 1.378 . S
C1106 C1101 1.350 . S
C1107 H1094 0.929 . S
C1107 C1099 1.433 . S
C1107 N1109 1.384 . S
N1108 C1104 1.427 . S
N1108 C1105 1.384 . S
N1109 C1101 1.427 . S
N1109 C1107 1.384 . S
H1110 C1116 0.930 . S
H1111 C1120 0.930 . S
H1112 C1125 0.929 . S
H1113 C1123 0.929 . S
H1114 C1118 0.929 . S
H1115 C1124 0.929 . S
C1116 H1110 0.930 . S
C1116 C1117 1.367 . S
C1116 C1124 1.378 . S
C1117 C1116 1.367 . S
C1117 C1125 1.433 . S
C1118 H1114 0.929 . S
C1118 C1120 1.378 . S
C1118 C1122 1.350 . S
C1119 C1122 1.463 . S
C1119 C1124 1.350 . S
C1119 N1127 1.427 . S
C1120 H1111 0.930 . S
C1120 C1118 1.378 . S
C1120 C1121 1.367 . S
C1121 C1120 1.367 . S
C1121 C1123 1.433 . S
C1122 C1118 1.350 . S
C1122 C1119 1.463 . S
C1122 N1126 1.427 . S
C1123 H1113 0.929 . S
C1123 C1121 1.433 . S
C1123 N1126 1.384 . S
C1124 H1115 0.929 . S
C1124 C1116 1.378 . S
C1124 C1119 1.350 . S
C1125 H1112 0.929 . S
C1125 C1117 1.433 . S
C1125 N1127 1.384 . S
N1126 C1122 1.427 . S
N1126 C1123 1.384 . S
N1127 C1119 1.427 . S
N1127 C1125 1.384 . S
H1128 C1134 0.930 . S
H1129 C1138 0.930 . S
H1130 C1143 0.929 . S
H1131 C1141 0.929 . S
H1132 C1136 0.929 . S
H1133 C1142 0.929 . S
C1134 H1128 0.930 . S
C1134 C1135 1.367 . S
C1134 C1142 1.378 . S
C1135 C1134 1.367 . S
C1135 C1143 1.433 . S
C1136 H1132 0.929 . S
C1136 C1138 1.378 . S
C1136 C1140 1.350 . S
C1137 C1140 1.463 . S
C1137 C1142 1.350 . S
C1137 N1145 1.427 . S
C1138 H1129 0.930 . S
C1138 C1136 1.378 . S
C1138 C1139 1.367 . S
C1139 C1138 1.367 . S
C1139 C1141 1.433 . S
C1140 C1136 1.350 . S
C1140 C1137 1.463 . S
C1140 N1144 1.427 . S
C1141 H1131 0.929 . S
C1141 C1139 1.433 . S
C1141 N1144 1.384 . S
C1142 H1133 0.929 . S
C1142 C1134 1.378 . S
C1142 C1137 1.350 . S
C1143 H1130 0.929 . S
C1143 C1135 1.433 . S
C1143 N1145 1.384 . S
N1144 C1140 1.427 . S
N1144 C1141 1.384 . S
N1145 C1137 1.427 . S
N1145 C1143 1.384 . S
H1146 C1152 0.930 . S
H1147 C1156 0.930 . S
H1148 C1161 0.929 . S
H1149 C1159 0.929 . S
H1150 C1154 0.929 . S
H1151 C1160 0.929 . S
C1152 H1146 0.930 . S
C1152 C1153 1.367 . S
C1152 C1160 1.378 . S
C1153 C1152 1.367 . S
C1153 C1161 1.433 . S
C1154 H1150 0.929 . S
C1154 C1156 1.378 . S
C1154 C1158 1.350 . S
C1155 C1158 1.463 . S
C1155 C1160 1.350 . S
C1155 N1163 1.427 . S
C1156 H1147 0.930 . S
C1156 C1154 1.378 . S
C1156 C1157 1.367 . S
C1157 C1156 1.367 . S
C1157 C1159 1.433 . S
C1158 C1154 1.350 . S
C1158 C1155 1.463 . S
C1158 N1162 1.427 . S
C1159 H1149 0.929 . S
C1159 C1157 1.433 . S
C1159 N1162 1.384 . S
C1160 H1151 0.929 . S
C1160 C1152 1.378 . S
C1160 C1155 1.350 . S
C1161 H1148 0.929 . S
C1161 C1153 1.433 . S
C1161 N1163 1.384 . S
N1162 C1158 1.427 . S
N1162 C1159 1.384 . S
N1163 C1155 1.427 . S
N1163 C1161 1.384 . S
H1164 C1170 0.930 . S
H1165 C1174 0.930 . S
H1166 C1179 0.929 . S
H1167 C1177 0.929 . S
H1168 C1172 0.929 . S
H1169 C1178 0.929 . S
C1170 H1164 0.930 . S
C1170 C1171 1.367 . S
C1170 C1178 1.378 . S
C1171 C1170 1.367 . S
C1171 C1179 1.433 . S
C1172 H1168 0.929 . S
C1172 C1174 1.378 . S
C1172 C1176 1.350 . S
C1173 C1176 1.463 . S
C1173 C1178 1.350 . S
C1173 N1181 1.427 . S
C1174 H1165 0.930 . S
C1174 C1172 1.378 . S
C1174 C1175 1.367 . S
C1175 C1174 1.367 . S
C1175 C1177 1.433 . S
C1176 C1172 1.350 . S
C1176 C1173 1.463 . S
C1176 N1180 1.427 . S
C1177 H1167 0.929 . S
C1177 C1175 1.433 . S
C1177 N1180 1.384 . S
C1178 H1169 0.929 . S
C1178 C1170 1.378 . S
C1178 C1173 1.350 . S
C1179 H1166 0.929 . S
C1179 C1171 1.433 . S
C1179 N1181 1.384 . S
N1180 C1176 1.427 . S
N1180 C1177 1.384 . S
N1181 C1173 1.427 . S
N1181 C1179 1.384 . S
H1182 C1188 0.930 . S
H1183 C1192 0.930 . S
H1184 C1197 0.929 . S
H1185 C1195 0.929 . S
H1186 C1190 0.929 . S
H1187 C1196 0.929 . S
C1188 H1182 0.930 . S
C1188 C1189 1.367 . S
C1188 C1196 1.378 . S
C1189 C1188 1.367 . S
C1189 C1197 1.433 . S
C1190 H1186 0.929 . S
C1190 C1192 1.378 . S
C1190 C1194 1.350 . S
C1191 C1194 1.463 . S
C1191 C1196 1.350 . S
C1191 N1199 1.427 . S
C1192 H1183 0.930 . S
C1192 C1190 1.378 . S
C1192 C1193 1.367 . S
C1193 C1192 1.367 . S
C1193 C1195 1.433 . S
C1194 C1190 1.350 . S
C1194 C1191 1.463 . S
C1194 N1198 1.427 . S
C1195 H1185 0.929 . S
C1195 C1193 1.433 . S
C1195 N1198 1.384 . S
C1196 H1187 0.929 . S
C1196 C1188 1.378 . S
C1196 C1191 1.350 . S
C1197 H1184 0.929 . S
C1197 C1189 1.433 . S
C1197 N1199 1.384 . S
N1198 C1194 1.427 . S
N1198 C1195 1.384 . S
N1199 C1191 1.427 . S
N1199 C1197 1.384 . S
C343 C12 1.420 . S
C347 C110 1.419 . S
C361 C124 1.418 . S
C365 C26 1.421 . S
C379 C40 1.418 . S
C383 C138 1.419 . S
C397 C54 1.418 . S
C401 C152 1.421 . S
C415 C166 1.422 . S
C419 C68 1.416 . S
C433 C82 1.416 . S
C437 C96 1.422 . S
C451 C173 1.089 . S
C455 C271 1.107 . S
C469 C187 1.078 . S
C473 C285 1.105 . S
C487 C299 1.094 . S
C491 C201 1.081 . S
C505 C215 1.078 . S
C509 C313 1.101 . S
C523 C229 1.108 . S
C527 C327 1.086 . S
C541 C257 1.087 . S
C545 C243 1.088 . S
C559 C5 0.976 . S
C563 C117 0.943 . S
C577 C131 0.976 . S
C581 C19 0.946 . S
C595 C145 0.967 . S
C599 C33 0.964 . S
C613 C47 0.944 . S
C617 C159 0.953 . S
C631 C61 0.965 . S
C635 C89 0.937 . S
C649 C75 0.939 . S
C653 C103 0.961 . S
C667 C292 1.321 . S
C671 C180 1.320 . S
C685 C194 1.320 . S
C689 C306 1.320 . S
C703 C320 1.320 . S
C707 C208 1.322 . S
C721 C334 1.322 . S
C725 C222 1.320 . S
C739 C264 1.321 . S
C743 C236 1.322 . S
C757 C250 1.320 . S
C761 C278 1.321 . S
C775 C11 1.494 . S
C779 C221 1.493 . S
C793 C235 1.498 . S
C797 C25 1.492 . S
C811 C249 1.492 . S
C815 C39 1.493 . S
C829 C53 1.489 . S
C833 C179 1.498 . S
C847 C67 1.486 . S
C851 C193 1.493 . S
C865 C207 1.493 . S
C869 C81 1.494 . S
C883 C305 1.492 . S
C887 C95 1.486 . S
C901 C319 1.494 . S
C905 C109 1.486 . S
C919 C333 1.497 . S
C923 C123 1.488 . S
C937 C263 1.491 . S
C941 C137 1.491 . S
C955 C151 1.493 . S
C959 C277 1.498 . S
C973 C165 1.492 . S
C977 C291 1.491 . S
C991 C4 1.457 . S
C995 C144 1.464 . S
C1009 C158 1.455 . S
C1013 C18 1.465 . S
C1027 C88 1.464 . S
C1031 C32 1.452 . S
C1045 C46 1.466 . S
C1049 C102 1.453 . S
C1063 C60 1.462 . S
C1067 C116 1.453 . S
C1081 C74 1.459 . S
C1085 C130 1.463 . S
C1099 C172 1.504 . S
C1103 C312 1.511 . S
C1117 C186 1.505 . S
C1121 C326 1.508 . S
C1135 C200 1.505 . S
C1139 C256 1.511 . S
C1153 C270 1.506 . S
C1157 C214 1.507 . S
C1171 C228 1.507 . S
C1175 C284 1.507 . S
C1189 C242 1.506 . S
C1193 C298 1.511 . S
