# Generated by pormake.
# Topology uoc, (4)-cn, num edge types: 1
# Building blocks:
#     Node 0, Type 0, BuildingBlock: CEKHIL_clean_sbu_0, # of connection points: 4
#     Node 1, Type 0, BuildingBlock: CEKHIL_clean_sbu_0, # of connection points: 4
#     Node 2, Type 0, BuildingBlock: CEKHIL_clean_sbu_0, # of connection points: 4
#     Node 3, Type 0, BuildingBlock: CEKHIL_clean_sbu_0, # of connection points: 4
#     Node 4, Type 0, BuildingBlock: CEKHIL_clean_sbu_0, # of connection points: 4
#     Node 5, Type 0, BuildingBlock: CEKHIL_clean_sbu_0, # of connection points: 4
#     Node 6, Type 0, BuildingBlock: CEKHIL_clean_sbu_0, # of connection points: 4
#     Node 7, Type 0, BuildingBlock: CEKHIL_clean_sbu_0, # of connection points: 4
#     Edge 8, Type (0, 0), BuildingBlock: EZIPEK_clean_linker_0, # of connection points: 2
#     Edge 9, Type (0, 0), BuildingBlock: EZIPEK_clean_linker_0, # of connection points: 2
#     Edge 10, Type (0, 0), BuildingBlock: EZIPEK_clean_linker_0, # of connection points: 2
#     Edge 11, Type (0, 0), BuildingBlock: EZIPEK_clean_linker_0, # of connection points: 2
#     Edge 12, Type (0, 0), BuildingBlock: EZIPEK_clean_linker_0, # of connection points: 2
#     Edge 13, Type (0, 0), BuildingBlock: EZIPEK_clean_linker_0, # of connection points: 2
#     Edge 14, Type (0, 0), BuildingBlock: EZIPEK_clean_linker_0, # of connection points: 2
#     Edge 15, Type (0, 0), BuildingBlock: EZIPEK_clean_linker_0, # of connection points: 2
#     Edge 16, Type (0, 0), BuildingBlock: EZIPEK_clean_linker_0, # of connection points: 2
#     Edge 17, Type (0, 0), BuildingBlock: EZIPEK_clean_linker_0, # of connection points: 2
#     Edge 18, Type (0, 0), BuildingBlock: EZIPEK_clean_linker_0, # of connection points: 2
#     Edge 19, Type (0, 0), BuildingBlock: EZIPEK_clean_linker_0, # of connection points: 2
#     Edge 20, Type (0, 0), BuildingBlock: EZIPEK_clean_linker_0, # of connection points: 2
#     Edge 21, Type (0, 0), BuildingBlock: EZIPEK_clean_linker_0, # of connection points: 2
#     Edge 22, Type (0, 0), BuildingBlock: EZIPEK_clean_linker_0, # of connection points: 2
#     Edge 23, Type (0, 0), BuildingBlock: EZIPEK_clean_linker_0, # of connection points: 2
# Relax obj value: 0.097
# Max RMSD: 0.107
# Mean RMSD: 0.107
data_MOF--net-uoc--node1-CEKHIL_clean_sbu_0--edge1-EZIPEK_clean_linker_0
_symmetry_space_group_name_H-M    P1
_symmetry_Int_Tables_number       1
_symmetry_cell_setting            triclinic
loop_
_symmetry_equiv_pos_as_xyz
'x, y, z'
_cell_length_a     19.91015
_cell_length_b     19.916825
_cell_length_c     39.281576
_cell_angle_alpha  90.072555
_cell_angle_beta   89.910658
_cell_angle_gamma 92.708356
loop_
_atom_site_label
_atom_site_type_symbol
_atom_site_fract_x
_atom_site_fract_y
_atom_site_fract_z
_atom_type_partial_charge
Co0 Co 0.11294 0.27231 0.111 0.0
O1 O 0.12678 0.36857 0.10827 0.0
O2 O 0.03064 0.31535 0.12245 0.0
C3 C 0.16221 0.24902 0.06055 0.0
O4 O 0.07966 0.17476 0.11462 0.0
Co5 Co 0.23506 0.18702 0.11811 0.0
O6 O 0.16802 0.11 0.1225 0.0
C7 C 0.19616 0.26569 0.17552 0.0
C8 C 0.06401 0.37195 0.11653 0.0
C9 C 0.1052 0.11749 0.11942 0.0
O10 O 0.13941 0.2717 0.1607 0.0
O11 O 0.2471 0.24607 0.15917 0.0
O12 O 0.10035 0.26657 0.06205 0.0
O13 O 0.1949 0.25328 0.08908 0.0
Co14 Co 0.76517 0.60694 0.37904 0.0
O15 O 0.86118 0.62313 0.38061 0.0
O16 O 0.80891 0.52483 0.36886 0.0
C17 C 0.74605 0.66204 0.42834 0.0
O18 O 0.66816 0.5689 0.37678 0.0
Co19 Co 0.66751 0.71917 0.37304 0.0
O20 O 0.59644 0.65086 0.38546 0.0
C21 C 0.74799 0.68361 0.31374 0.0
C22 C 0.86496 0.56005 0.37301 0.0
C23 C 0.60874 0.58911 0.38247 0.0
O24 O 0.76636 0.63137 0.32958 0.0
O25 O 0.71227 0.72814 0.32736 0.0
O26 O 0.7614 0.59932 0.42801 0.0
O27 O 0.74489 0.69053 0.39875 0.0
Co28 Co 0.39831 0.23038 0.60967 0.0
O29 O 0.38052 0.13462 0.60475 0.0
O30 O 0.47849 0.1834 0.61946 0.0
C31 C 0.34878 0.26073 0.56067 0.0
O32 O 0.43817 0.3257 0.61603 0.0
Co33 Co 0.28526 0.32925 0.61816 0.0
O34 O 0.35788 0.39951 0.62497 0.0
C35 C 0.31582 0.24028 0.67431 0.0
C36 C 0.44313 0.12837 0.61297 0.0
C37 C 0.41921 0.38548 0.62188 0.0
O38 O 0.3698 0.22417 0.65893 0.0
O39 O 0.27147 0.27604 0.66081 0.0
O40 O 0.40969 0.24007 0.5606 0.0
O41 O 0.31759 0.25732 0.58961 0.0
Co42 Co 0.7196 0.89506 0.88315 0.0
O43 O 0.6234 0.88186 0.88176 0.0
O44 O 0.67947 0.97802 0.87017 0.0
C45 C 0.72963 0.84233 0.93391 0.0
O46 O 0.81792 0.92836 0.8835 0.0
Co47 Co 0.8115 0.77382 0.884 0.0
O48 O 0.88547 0.84233 0.89203 0.0
C49 C 0.74075 0.80977 0.82125 0.0
C50 C 0.62201 0.94482 0.87362 0.0
C51 C 0.87612 0.90477 0.88859 0.0
O52 O 0.7268 0.86663 0.83432 0.0
O53 O 0.76647 0.76272 0.83837 0.0
O54 O 0.7161 0.90546 0.93228 0.0
O55 O 0.73434 0.8132 0.90475 0.0
Co56 Co 0.61528 0.77031 0.61168 0.0
O57 O 0.62993 0.86642 0.60834 0.0
O58 O 0.53336 0.81432 0.62279 0.0
C59 C 0.6646 0.74541 0.56145 0.0
O60 O 0.58116 0.67316 0.61605 0.0
Co61 Co 0.73653 0.68448 0.61954 0.0
O62 O 0.66922 0.60739 0.62229 0.0
C63 C 0.69846 0.76575 0.67609 0.0
C64 C 0.56728 0.87052 0.61665 0.0
C65 C 0.60636 0.61549 0.62 0.0
O66 O 0.6416 0.77092 0.66133 0.0
O67 O 0.74926 0.74564 0.6598 0.0
O68 O 0.60278 0.76318 0.56283 0.0
O69 O 0.69724 0.75032 0.58997 0.0
Co70 Co 0.2632 0.10923 0.87867 0.0
O71 O 0.35926 0.12515 0.87882 0.0
O72 O 0.30617 0.02666 0.86847 0.0
C73 C 0.24669 0.16552 0.92792 0.0
O74 O 0.16604 0.07178 0.87804 0.0
Co75 Co 0.1666 0.22314 0.8731 0.0
O76 O 0.09439 0.15479 0.88402 0.0
C77 C 0.24427 0.18508 0.81336 0.0
C78 C 0.36251 0.0618 0.87175 0.0
C79 C 0.10645 0.09276 0.88226 0.0
O80 O 0.26131 0.13217 0.82903 0.0
O81 O 0.21091 0.23117 0.82719 0.0
O82 O 0.26214 0.10285 0.9277 0.0
O83 O 0.24424 0.19328 0.89819 0.0
Co84 Co 0.89541 0.73196 0.109 0.0
O85 O 0.87617 0.63615 0.1051 0.0
O86 O 0.97582 0.68433 0.11724 0.0
C87 C 0.84152 0.76182 0.06105 0.0
O88 O 0.93727 0.82675 0.11378 0.0
Co89 Co 0.78479 0.83214 0.11992 0.0
O90 O 0.85879 0.90216 0.12318 0.0
C91 C 0.81861 0.74319 0.17519 0.0
C92 C 0.93933 0.62948 0.11204 0.0
C93 C 0.91957 0.88701 0.11923 0.0
O94 O 0.87172 0.72758 0.15894 0.0
O95 O 0.77333 0.77899 0.16264 0.0
O96 O 0.90217 0.74051 0.05975 0.0
O97 O 0.813 0.75927 0.09071 0.0
Co98 Co 0.2221 0.39273 0.38253 0.0
O99 O 0.12591 0.37972 0.38209 0.0
O100 O 0.18171 0.4754 0.36928 0.0
C101 C 0.23392 0.34211 0.43377 0.0
O102 O 0.32056 0.42534 0.38183 0.0
Co103 Co 0.31249 0.27038 0.38337 0.0
O104 O 0.38702 0.33863 0.39101 0.0
C105 C 0.24035 0.30549 0.3209 0.0
C106 C 0.1243 0.44246 0.3736 0.0
C107 C 0.37845 0.40112 0.38699 0.0
O108 O 0.22744 0.36273 0.33385 0.0
O109 O 0.266 0.25846 0.33808 0.0
O110 O 0.22053 0.40516 0.43152 0.0
O111 O 0.2372 0.31172 0.40484 0.0
C112 C 0.18095 0.27867 -0.00108 0.0
C113 C 0.19486 0.23664 0.02703 0.0
C114 C 0.26869 0.17429 0.99018 0.0
C115 C 0.23918 0.20218 0.96098 0.0
N116 N 0.17335 0.29112 0.938 0.0
N117 N 0.24802 0.13763 0.04742 0.0
C118 C 0.19738 0.25772 0.96532 0.0
C119 C 0.23849 0.18314 0.02231 0.0
N120 N 0.15587 0.34052 0.00441 0.0
N121 N 0.32678 0.14082 0.98743 0.0
H122 H 0.22258 0.13897 0.0703 0.0
H123 H 0.27468 0.09436 0.04375 0.0
H124 H 0.35365 0.13884 0.96464 0.0
H125 H 0.35255 0.1236 0.00855 0.0
H126 H 0.15042 0.37586 0.98521 0.0
H127 H 0.14823 0.35987 0.02872 0.0
H128 H 0.13314 0.32264 0.93973 0.0
H129 H 0.19463 0.28938 0.91395 0.0
C130 C 0.81183 0.75445 0.27127 0.0
C131 C 0.77265 0.69489 0.27865 0.0
C132 C 0.7815 0.65922 0.21914 0.0
C133 C 0.81075 0.72339 0.21107 0.0
N134 N 0.8506 0.83446 0.2284 0.0
N135 N 0.71527 0.59214 0.25947 0.0
C136 C 0.82536 0.77163 0.23686 0.0
C137 C 0.75687 0.64707 0.25265 0.0
N138 N 0.8382 0.79325 0.29719 0.0
N139 N 0.77702 0.61023 0.19474 0.0
H140 H 0.69537 0.58185 0.28355 0.0
H141 H 0.69601 0.55954 0.24078 0.0
H142 H 0.79359 0.61818 0.16979 0.0
H143 H 0.76243 0.56038 0.19986 0.0
H144 H 0.87264 0.83353 0.2934 0.0
H145 H 0.83107 0.78117 0.32282 0.0
H146 H 0.85453 0.87428 0.24561 0.0
H147 H 0.86371 0.84812 0.20355 0.0
C148 C 0.30715 0.22854 0.50209 0.0
C149 C 0.3136 0.27695 0.52862 0.0
C150 C 0.24009 0.34881 0.49718 0.0
C151 C 0.24881 0.31031 0.46734 0.0
N152 N 0.27924 0.20343 0.44346 0.0
N153 N 0.2936 0.38899 0.5483 0.0
C154 C 0.27908 0.24705 0.47025 0.0
C155 C 0.28171 0.33854 0.52543 0.0
N156 N 0.32336 0.16371 0.5081 0.0
N157 N 0.18963 0.39264 0.49938 0.0
H158 H 0.32887 0.38514 0.56741 0.0
H159 H 0.27533 0.43685 0.54533 0.0
H160 H 0.15221 0.39433 0.48093 0.0
H161 H 0.1792 0.41877 0.52166 0.0
H162 H 0.31417 0.12441 0.49097 0.0
H163 H 0.3394 0.14761 0.5318 0.0
H164 H 0.31144 0.16381 0.44195 0.0
H165 H 0.24515 0.20481 0.42347 0.0
C166 C 0.77453 0.76411 0.76443 0.0
C167 C 0.72786 0.79839 0.78443 0.0
C168 C 0.66196 0.81759 0.73304 0.0
C169 C 0.70448 0.7754 0.71392 0.0
N170 N 0.78093 0.6841 0.71915 0.0
N171 N 0.61511 0.83789 0.78868 0.0
C172 C 0.75493 0.74131 0.73179 0.0
C173 C 0.66793 0.81944 0.76908 0.0
N174 N 0.8381 0.75439 0.77582 0.0
N175 N 0.61703 0.85732 0.71764 0.0
H176 H 0.61513 0.83506 0.81516 0.0
H177 H 0.56828 0.84785 0.7785 0.0
H178 H 0.60906 0.85916 0.69166 0.0
H179 H 0.59153 0.89374 0.7309 0.0
H180 H 0.87426 0.73299 0.7605 0.0
H181 H 0.857 0.77501 0.79846 0.0
H182 H 0.81517 0.65665 0.73282 0.0
H183 H 0.76064 0.65846 0.69812 0.0
C184 C 0.27144 0.25814 0.26385 0.0
C185 C 0.22631 0.29387 0.28414 0.0
C186 C 0.16083 0.31641 0.23294 0.0
C187 C 0.20192 0.27351 0.21347 0.0
N188 N 0.27497 0.17937 0.21781 0.0
N189 N 0.11502 0.33687 0.28881 0.0
C190 C 0.25096 0.23699 0.23105 0.0
C191 C 0.16704 0.31718 0.269 0.0
N192 N 0.33465 0.24592 0.27497 0.0
N193 N 0.11712 0.35784 0.21783 0.0
H194 H 0.11502 0.33312 0.31526 0.0
H195 H 0.0686 0.34873 0.27877 0.0
H196 H 0.10919 0.36029 0.19186 0.0
H197 H 0.09273 0.39473 0.23131 0.0
H198 H 0.36976 0.22344 0.25944 0.0
H199 H 0.35467 0.26563 0.29757 0.0
H200 H 0.30801 0.15005 0.23121 0.0
H201 H 0.25416 0.15556 0.19636 0.0
C202 C 0.6816 0.7748 0.4998 0.0
C203 C 0.69743 0.73357 0.52791 0.0
C204 C 0.77069 0.67188 0.49036 0.0
C205 C 0.73898 0.69857 0.46145 0.0
N206 N 0.66939 0.7852 0.43908 0.0
N207 N 0.7553 0.63725 0.54832 0.0
C208 C 0.69626 0.75327 0.46614 0.0
C209 C 0.74236 0.68116 0.52293 0.0
N210 N 0.65635 0.83657 0.50533 0.0
N211 N 0.82923 0.63941 0.48686 0.0
H212 H 0.73271 0.63949 0.57193 0.0
H213 H 0.7825 0.59438 0.54452 0.0
H214 H 0.85462 0.63711 0.46365 0.0
H215 H 0.85681 0.62335 0.50763 0.0
H216 H 0.64947 0.87135 0.486 0.0
H217 H 0.65032 0.85656 0.52964 0.0
H218 H 0.62867 0.81595 0.44139 0.0
H219 H 0.68855 0.78285 0.41462 0.0
C220 C 0.2451 0.17698 0.71689 0.0
C221 C 0.30373 0.2177 0.70966 0.0
C222 C 0.32922 0.22593 0.77053 0.0
C223 C 0.26578 0.19371 0.77771 0.0
N224 N 0.16068 0.14189 0.75857 0.0
N225 N 0.39961 0.28588 0.72921 0.0
C226 C 0.22303 0.16979 0.75112 0.0
C227 C 0.34589 0.24285 0.73634 0.0
N228 N 0.21167 0.1439 0.69101 0.0
N229 N 0.37364 0.23993 0.79639 0.0
H230 H 0.41431 0.29878 0.70451 0.0
H231 H 0.42703 0.31249 0.74778 0.0
H232 H 0.36241 0.22985 0.82188 0.0
H233 H 0.42343 0.25646 0.79241 0.0
H234 H 0.17236 0.10837 0.69486 0.0
H235 H 0.22752 0.14719 0.6657 0.0
H236 H 0.12428 0.13016 0.74024 0.0
H237 H 0.14343 0.1348 0.78345 0.0
C238 C 0.76604 0.8346 0.02668 0.0
C239 C 0.80347 0.77608 0.02949 0.0
C240 C 0.77589 0.7475 0.97006 0.0
C241 C 0.74219 0.80879 0.96725 0.0
N242 N 0.67316 0.8838 -0.00155 0.0
N243 N 0.8206 0.66475 0.00801 0.0
C244 C 0.72702 0.84396 0.99734 0.0
C245 C 0.80199 0.72891 0.00229 0.0
N246 N 0.77003 0.88333 0.05096 0.0
N247 N 0.78129 0.70574 0.94275 0.0
H248 H 0.83348 0.64798 0.03211 0.0
H249 H 0.8155 0.62618 0.99015 0.0
H250 H 0.74896 0.70626 0.92201 0.0
H251 H 0.81601 0.66827 0.94158 0.0
H252 H 0.74823 0.92962 0.04823 0.0
H253 H 0.80154 0.88035 0.07168 0.0
H254 H 0.65753 0.90705 0.02072 0.0
H255 H 0.63863 0.88472 0.97856 0.0
C256 C 0.04735 0.02067 0.14986 0.0
C257 C 0.05991 0.05676 0.11921 0.0
C258 C 0.9826 0.97946 0.08821 0.0
C259 C 0.97152 0.94228 0.11866 0.0
N260 N 0.00175 0.91848 0.17658 0.0
N261 N 0.05041 0.06475 0.05816 0.0
C262 C 0.00662 0.9601 0.14895 0.0
C263 C 0.03051 0.03461 0.08804 0.0
N264 N 0.0723 0.04575 0.17996 0.0
N265 N 0.94667 0.96241 0.05957 0.0
H266 H 0.08542 0.10535 0.05701 0.0
H267 H 0.03653 0.04653 0.03422 0.0
H268 H 0.91496 0.91935 0.05797 0.0
H269 H 0.94571 0.99233 0.03789 0.0
H270 H 0.05911 0.02591 0.20367 0.0
H271 H 0.10266 0.08981 0.18152 0.0
H272 H 0.031 0.92504 0.19838 0.0
H273 H 0.9723 0.87376 0.17662 0.0
C274 C 0.01958 0.47476 0.40305 0.0
C275 C 0.05943 0.47585 0.37302 0.0
C276 C 0.97272 0.53621 0.34306 0.0
C277 C 0.9306 0.52882 0.37214 0.0
N278 N 0.90928 0.48331 0.42821 0.0
N279 N 0.07176 0.50018 0.31319 0.0
C280 C 0.95256 0.49546 0.40159 0.0
C281 C 0.03564 0.50492 0.34264 0.0
N282 N 0.04713 0.4574 0.43347 0.0
N283 N 0.95281 0.57362 0.31605 0.0
H284 H 0.1182 0.47813 0.31209 0.0
H285 H 0.05374 0.51363 0.28941 0.0
H286 H 0.90594 0.59487 0.31498 0.0
H287 H 0.98411 0.58714 0.29569 0.0
H288 H 0.02305 0.4623 0.45682 0.0
H289 H 0.09707 0.44495 0.43584 0.0
H290 H 0.91995 0.45224 0.44861 0.0
H291 H 0.86038 0.49988 0.42875 0.0
C292 C 0.50453 0.45969 0.59141 0.0
C293 C 0.47022 0.44184 0.62207 0.0
C294 C 0.52302 0.53996 0.65098 0.0
C295 C 0.56021 0.55536 0.62094 0.0
N296 N 0.59328 0.52708 0.56378 0.0
N297 N 0.45264 0.45826 0.68215 0.0
C298 C 0.55327 0.51412 0.59157 0.0
C299 C 0.48099 0.48024 0.6522 0.0
N300 N 0.48777 0.42709 0.5617 0.0
N301 N 0.52728 0.58299 0.67816 0.0
H302 H 0.42129 0.41495 0.68386 0.0
H303 H 0.46395 0.47968 0.70575 0.0
H304 H 0.55987 0.62557 0.67876 0.0
H305 H 0.49581 0.57904 0.69931 0.0
H306 H 0.50467 0.44307 0.53783 0.0
H307 H 0.45264 0.38672 0.56033 0.0
H308 H 0.59679 0.49428 0.54327 0.0
H309 H 0.62644 0.56902 0.56199 0.0
C310 C 0.51756 0.97863 0.90269 0.0
C311 C 0.55717 0.97817 0.87263 0.0
C312 C 0.46987 0.03616 0.84184 0.0
C313 C 0.42796 0.03018 0.87106 0.0
N314 N 0.40732 0.98769 0.9278 0.0
N315 N 0.56936 0.99958 0.81252 0.0
C316 C 0.45034 0.99867 0.90098 0.0
C317 C 0.53308 0.00538 0.84186 0.0
N318 N 0.54556 0.96347 0.93332 0.0
N319 N 0.44948 0.0718 0.8143 0.0
H320 H 0.61622 0.9783 0.81183 0.0
H321 H 0.55127 0.01159 0.78855 0.0
H322 H 0.40234 0.09244 0.81295 0.0
H323 H 0.48053 0.08437 0.79371 0.0
H324 H 0.52157 0.96945 0.95662 0.0
H325 H 0.59577 0.952 0.93578 0.0
H326 H 0.41844 0.95799 0.94866 0.0
H327 H 0.3582 0.00365 0.92809 0.0
C328 C 0.01219 0.54731 0.14109 0.0
C329 C 0.96898 0.56237 0.11376 0.0
C330 C 0.98169 0.44896 0.09073 0.0
C331 C 0.03093 0.43722 0.11589 0.0
N332 N 0.10644 0.48421 0.15888 0.0
N333 N 0.92683 0.53291 0.05782 0.0
C334 C 0.05041 0.48906 0.13921 0.0
C335 C 0.95698 0.51446 0.08736 0.0
N336 N 0.01502 0.58698 0.16951 0.0
N337 N 0.96006 0.39852 0.06919 0.0
H338 H 0.91342 0.58187 0.05316 0.0
H339 H 0.92266 0.50208 0.03642 0.0
H340 H 0.98068 0.35141 0.0686 0.0
H341 H 0.91859 0.40227 0.05327 0.0
H342 H 0.04112 0.57432 0.1914 0.0
H343 H 0.9852 0.62818 0.17275 0.0
H344 H 0.12558 0.52355 0.17407 0.0
H345 H 0.13818 0.44435 0.15707 0.0
C346 C 0.47712 0.45412 0.35596 0.0
C347 C 0.43859 0.44766 0.3863 0.0
C348 C 0.51649 0.52798 0.41523 0.0
C349 C 0.55148 0.53887 0.38404 0.0
N350 N 0.56029 0.52013 0.32357 0.0
N351 N 0.41657 0.48168 0.44398 0.0
C352 C 0.5308 0.5037 0.35411 0.0
C353 C 0.45682 0.48561 0.41573 0.0
N354 N 0.46257 0.41252 0.32895 0.0
N355 N 0.54181 0.55627 0.44456 0.0
H356 H 0.37404 0.44917 0.44569 0.0
H357 H 0.4227 0.51339 0.46494 0.0
H358 H 0.5855 0.58733 0.44512 0.0
H359 H 0.52292 0.54492 0.4687 0.0
H360 H 0.49344 0.40914 0.30766 0.0
H361 H 0.42181 0.37763 0.32872 0.0
H362 H 0.5427 0.50187 0.30023 0.0
H363 H 0.59934 0.55655 0.32114 0.0
C364 C 0.51625 0.04576 0.6417 0.0
C365 C 0.47347 0.06154 0.6143 0.0
C366 C 0.48631 0.94863 0.59069 0.0
C367 C 0.53496 0.93614 0.61601 0.0
N368 N 0.61042 0.98227 0.65923 0.0
N369 N 0.43338 0.03374 0.55775 0.0
C370 C 0.55444 0.98753 0.63957 0.0
C371 C 0.46218 0.01437 0.58748 0.0
N372 N 0.51864 0.08457 0.67043 0.0
N373 N 0.46469 0.89867 0.56887 0.0
H374 H 0.42107 0.08306 0.5531 0.0
H375 H 0.42965 0.00329 0.53619 0.0
H376 H 0.48482 0.85133 0.56829 0.0
H377 H 0.42367 0.9031 0.55271 0.0
H378 H 0.54452 0.07128 0.69227 0.0
H379 H 0.48863 0.12554 0.67393 0.0
H380 H 0.62944 0.02128 0.67467 0.0
H381 H 0.64225 0.94252 0.65713 0.0
C382 C 0.97288 0.9586 0.85649 0.0
C383 C 0.93595 0.95173 0.88737 0.0
C384 C 0.01275 0.03462 0.91531 0.0
C385 C 0.04884 0.04283 0.88422 0.0
N386 N 0.06816 0.01058 0.82595 0.0
N387 N 0.91496 0.98574 0.9451 0.0
C388 C 0.03036 0.00401 0.85501 0.0
C389 C 0.95435 0.99043 0.91653 0.0
N390 N 0.95085 0.92366 0.82826 0.0
N391 N 0.03646 0.06674 0.94401 0.0
H392 H 0.87342 0.95203 0.94723 0.0
H393 H 0.9207 0.0173 0.9661 0.0
H394 H 0.07946 0.09877 0.94415 0.0
H395 H 0.01685 0.0585 0.96828 0.0
H396 H 0.97117 0.92963 0.80401 0.0
H397 H 0.90927 0.88979 0.82849 0.0
H398 H 0.06226 0.98 0.80462 0.0
H399 H 0.10813 0.04587 0.82328 0.0
loop_
_geom_bond_atom_site_label_1
_geom_bond_atom_site_label_2
_geom_bond_distance
_geom_bond_site_symmetry_2
_ccdc_geom_bond_type
Co0 O1 2.216 . S
Co0 O2 2.091 . S
Co0 O4 2.004 . S
Co0 O10 2.021 . S
Co0 O12 2.137 . S
Co0 O13 2.244 . S
O1 Co0 2.216 . S
O1 C8 1.247 . S
O2 Co0 2.091 . S
O2 C8 1.261 . S
C3 O12 1.247 . S
C3 O13 1.272 . S
O4 Co0 2.004 . S
O4 C9 1.259 . S
Co5 O6 2.061 . S
Co5 O11 2.052 . S
Co5 O13 2.135 . S
O6 Co5 2.061 . S
O6 C9 1.235 . S
C7 O10 1.238 . S
C7 O11 1.241 . S
C8 O1 1.247 . S
C8 O2 1.261 . S
C9 O4 1.259 . S
C9 O6 1.235 . S
O10 Co0 2.021 . S
O10 C7 1.238 . S
O11 Co5 2.052 . S
O11 C7 1.241 . S
O12 Co0 2.137 . S
O12 C3 1.247 . S
O13 Co0 2.244 . S
O13 C3 1.272 . S
O13 Co5 2.135 . S
Co14 O15 2.216 . S
Co14 O16 2.091 . S
Co14 O18 2.004 . S
Co14 O24 2.021 . S
Co14 O26 2.137 . S
Co14 O27 2.244 . S
O15 Co14 2.216 . S
O15 C22 1.247 . S
O16 Co14 2.091 . S
O16 C22 1.261 . S
C17 O26 1.247 . S
C17 O27 1.272 . S
O18 Co14 2.004 . S
O18 C23 1.259 . S
Co19 O20 2.061 . S
Co19 O25 2.052 . S
Co19 O27 2.135 . S
O20 Co19 2.061 . S
O20 C23 1.235 . S
C21 O24 1.238 . S
C21 O25 1.241 . S
C22 O15 1.247 . S
C22 O16 1.261 . S
C23 O18 1.259 . S
C23 O20 1.235 . S
O24 Co14 2.021 . S
O24 C21 1.238 . S
O25 Co19 2.052 . S
O25 C21 1.241 . S
O26 Co14 2.137 . S
O26 C17 1.247 . S
O27 Co14 2.244 . S
O27 C17 1.272 . S
O27 Co19 2.135 . S
Co28 O29 2.216 . S
Co28 O30 2.091 . S
Co28 O32 2.004 . S
Co28 O38 2.021 . S
Co28 O40 2.137 . S
Co28 O41 2.244 . S
O29 Co28 2.216 . S
O29 C36 1.247 . S
O30 Co28 2.091 . S
O30 C36 1.261 . S
C31 O40 1.247 . S
C31 O41 1.272 . S
O32 Co28 2.004 . S
O32 C37 1.259 . S
Co33 O34 2.061 . S
Co33 O39 2.052 . S
Co33 O41 2.135 . S
O34 Co33 2.061 . S
O34 C37 1.235 . S
C35 O38 1.238 . S
C35 O39 1.241 . S
C36 O29 1.247 . S
C36 O30 1.261 . S
C37 O32 1.259 . S
C37 O34 1.235 . S
O38 Co28 2.021 . S
O38 C35 1.238 . S
O39 Co33 2.052 . S
O39 C35 1.241 . S
O40 Co28 2.137 . S
O40 C31 1.247 . S
O41 Co28 2.244 . S
O41 C31 1.272 . S
O41 Co33 2.135 . S
Co42 O43 2.216 . S
Co42 O44 2.091 . S
Co42 O46 2.004 . S
Co42 O52 2.021 . S
Co42 O54 2.137 . S
Co42 O55 2.244 . S
O43 Co42 2.216 . S
O43 C50 1.247 . S
O44 Co42 2.091 . S
O44 C50 1.261 . S
C45 O54 1.247 . S
C45 O55 1.272 . S
O46 Co42 2.004 . S
O46 C51 1.259 . S
Co47 O48 2.061 . S
Co47 O53 2.052 . S
Co47 O55 2.135 . S
O48 Co47 2.061 . S
O48 C51 1.235 . S
C49 O52 1.238 . S
C49 O53 1.241 . S
C50 O43 1.247 . S
C50 O44 1.261 . S
C51 O46 1.259 . S
C51 O48 1.235 . S
O52 Co42 2.021 . S
O52 C49 1.238 . S
O53 Co47 2.052 . S
O53 C49 1.241 . S
O54 Co42 2.137 . S
O54 C45 1.247 . S
O55 Co42 2.244 . S
O55 C45 1.272 . S
O55 Co47 2.135 . S
Co56 O57 2.216 . S
Co56 O58 2.091 . S
Co56 O60 2.004 . S
Co56 O66 2.021 . S
Co56 O68 2.137 . S
Co56 O69 2.244 . S
O57 Co56 2.216 . S
O57 C64 1.247 . S
O58 Co56 2.091 . S
O58 C64 1.261 . S
C59 O68 1.247 . S
C59 O69 1.272 . S
O60 Co56 2.004 . S
O60 C65 1.259 . S
Co61 O62 2.061 . S
Co61 O67 2.052 . S
Co61 O69 2.135 . S
O62 Co61 2.061 . S
O62 C65 1.235 . S
C63 O66 1.238 . S
C63 O67 1.241 . S
C64 O57 1.247 . S
C64 O58 1.261 . S
C65 O60 1.259 . S
C65 O62 1.235 . S
O66 Co56 2.021 . S
O66 C63 1.238 . S
O67 Co61 2.052 . S
O67 C63 1.241 . S
O68 Co56 2.137 . S
O68 C59 1.247 . S
O69 Co56 2.244 . S
O69 C59 1.272 . S
O69 Co61 2.135 . S
Co70 O71 2.216 . S
Co70 O72 2.091 . S
Co70 O74 2.004 . S
Co70 O80 2.021 . S
Co70 O82 2.137 . S
Co70 O83 2.244 . S
O71 Co70 2.216 . S
O71 C78 1.247 . S
O72 Co70 2.091 . S
O72 C78 1.261 . S
C73 O82 1.247 . S
C73 O83 1.272 . S
O74 Co70 2.004 . S
O74 C79 1.259 . S
Co75 O76 2.061 . S
Co75 O81 2.052 . S
Co75 O83 2.135 . S
O76 Co75 2.061 . S
O76 C79 1.235 . S
C77 O80 1.238 . S
C77 O81 1.241 . S
C78 O71 1.247 . S
C78 O72 1.261 . S
C79 O74 1.259 . S
C79 O76 1.235 . S
O80 Co70 2.021 . S
O80 C77 1.238 . S
O81 Co75 2.052 . S
O81 C77 1.241 . S
O82 Co70 2.137 . S
O82 C73 1.247 . S
O83 Co70 2.244 . S
O83 C73 1.272 . S
O83 Co75 2.135 . S
Co84 O85 2.216 . S
Co84 O86 2.091 . S
Co84 O88 2.004 . S
Co84 O94 2.021 . S
Co84 O96 2.137 . S
Co84 O97 2.244 . S
O85 Co84 2.216 . S
O85 C92 1.247 . S
O86 Co84 2.091 . S
O86 C92 1.261 . S
C87 O96 1.247 . S
C87 O97 1.272 . S
O88 Co84 2.004 . S
O88 C93 1.259 . S
Co89 O90 2.061 . S
Co89 O95 2.052 . S
Co89 O97 2.135 . S
O90 Co89 2.061 . S
O90 C93 1.235 . S
C91 O94 1.238 . S
C91 O95 1.241 . S
C92 O85 1.247 . S
C92 O86 1.261 . S
C93 O88 1.259 . S
C93 O90 1.235 . S
O94 Co84 2.021 . S
O94 C91 1.238 . S
O95 Co89 2.052 . S
O95 C91 1.241 . S
O96 Co84 2.137 . S
O96 C87 1.247 . S
O97 Co84 2.244 . S
O97 C87 1.272 . S
O97 Co89 2.135 . S
Co98 O99 2.216 . S
Co98 O100 2.091 . S
Co98 O102 2.004 . S
Co98 O108 2.021 . S
Co98 O110 2.137 . S
Co98 O111 2.244 . S
O99 Co98 2.216 . S
O99 C106 1.247 . S
O100 Co98 2.091 . S
O100 C106 1.261 . S
C101 O110 1.247 . S
C101 O111 1.272 . S
O102 Co98 2.004 . S
O102 C107 1.259 . S
Co103 O104 2.061 . S
Co103 O109 2.052 . S
Co103 O111 2.135 . S
O104 Co103 2.061 . S
O104 C107 1.235 . S
C105 O108 1.238 . S
C105 O109 1.241 . S
C106 O99 1.247 . S
C106 O100 1.261 . S
C107 O102 1.259 . S
C107 O104 1.235 . S
O108 Co98 2.021 . S
O108 C105 1.238 . S
O109 Co103 2.052 . S
O109 C105 1.241 . S
O110 Co98 2.137 . S
O110 C101 1.247 . S
O111 Co98 2.244 . S
O111 C101 1.272 . S
O111 Co103 2.135 . S
C112 C113 1.363 . S
C112 C118 1.379 1_554 S
C112 N120 1.356 . S
C113 C112 1.363 . S
C113 C119 1.363 . S
C114 C115 1.363 . S
C114 C119 1.379 1_556 S
C114 N121 1.356 . S
C115 C114 1.363 . S
C115 C118 1.363 . S
N116 C118 1.356 . S
N116 H128 0.984 . S
N116 H129 0.985 . S
N117 C119 1.356 . S
N117 H122 0.984 . S
N117 H123 0.985 . S
C118 C112 1.379 1_556 S
C118 C115 1.363 . S
C118 N116 1.356 . S
C119 C113 1.363 . S
C119 C114 1.379 1_554 S
C119 N117 1.356 . S
N120 C112 1.356 . S
N120 H126 0.984 . S
N120 H127 0.984 . S
N121 C114 1.356 . S
N121 H124 0.984 . S
N121 H125 0.985 . S
H122 N117 0.984 . S
H123 N117 0.985 . S
H124 N121 0.984 . S
H125 N121 0.985 . S
H126 N120 0.984 . S
H127 N120 0.984 . S
H128 N116 0.984 . S
H129 N116 0.985 . S
C130 C131 1.363 . S
C130 C136 1.379 . S
C130 N138 1.356 . S
C131 C130 1.363 . S
C131 C137 1.363 . S
C132 C133 1.363 . S
C132 C137 1.379 . S
C132 N139 1.356 . S
C133 C132 1.363 . S
C133 C136 1.363 . S
N134 C136 1.356 . S
N134 H146 0.984 . S
N134 H147 0.985 . S
N135 C137 1.356 . S
N135 H140 0.984 . S
N135 H141 0.985 . S
C136 C130 1.379 . S
C136 C133 1.363 . S
C136 N134 1.356 . S
C137 C131 1.363 . S
C137 C132 1.379 . S
C137 N135 1.356 . S
N138 C130 1.356 . S
N138 H144 0.984 . S
N138 H145 0.984 . S
N139 C132 1.356 . S
N139 H142 0.984 . S
N139 H143 0.985 . S
H140 N135 0.984 . S
H141 N135 0.985 . S
H142 N139 0.984 . S
H143 N139 0.985 . S
H144 N138 0.984 . S
H145 N138 0.984 . S
H146 N134 0.984 . S
H147 N134 0.985 . S
C148 C149 1.363 . S
C148 C154 1.379 . S
C148 N156 1.356 . S
C149 C148 1.363 . S
C149 C155 1.363 . S
C150 C151 1.363 . S
C150 C155 1.379 . S
C150 N157 1.356 . S
C151 C150 1.363 . S
C151 C154 1.363 . S
N152 C154 1.356 . S
N152 H164 0.984 . S
N152 H165 0.985 . S
N153 C155 1.356 . S
N153 H158 0.984 . S
N153 H159 0.985 . S
C154 C148 1.379 . S
C154 C151 1.363 . S
C154 N152 1.356 . S
C155 C149 1.363 . S
C155 C150 1.379 . S
C155 N153 1.356 . S
N156 C148 1.356 . S
N156 H162 0.984 . S
N156 H163 0.984 . S
N157 C150 1.356 . S
N157 H160 0.984 . S
N157 H161 0.985 . S
H158 N153 0.984 . S
H159 N153 0.985 . S
H160 N157 0.984 . S
H161 N157 0.985 . S
H162 N156 0.984 . S
H163 N156 0.984 . S
H164 N152 0.984 . S
H165 N152 0.985 . S
C166 C167 1.363 . S
C166 C172 1.379 . S
C166 N174 1.356 . S
C167 C166 1.363 . S
C167 C173 1.363 . S
C168 C169 1.363 . S
C168 C173 1.379 . S
C168 N175 1.356 . S
C169 C168 1.363 . S
C169 C172 1.363 . S
N170 C172 1.356 . S
N170 H182 0.984 . S
N170 H183 0.985 . S
N171 C173 1.356 . S
N171 H176 0.984 . S
N171 H177 0.985 . S
C172 C166 1.379 . S
C172 C169 1.363 . S
C172 N170 1.356 . S
C173 C167 1.363 . S
C173 C168 1.379 . S
C173 N171 1.356 . S
N174 C166 1.356 . S
N174 H180 0.984 . S
N174 H181 0.984 . S
N175 C168 1.356 . S
N175 H178 0.984 . S
N175 H179 0.985 . S
H176 N171 0.984 . S
H177 N171 0.985 . S
H178 N175 0.984 . S
H179 N175 0.985 . S
H180 N174 0.984 . S
H181 N174 0.984 . S
H182 N170 0.984 . S
H183 N170 0.985 . S
C184 C185 1.363 . S
C184 C190 1.379 . S
C184 N192 1.356 . S
C185 C184 1.363 . S
C185 C191 1.363 . S
C186 C187 1.363 . S
C186 C191 1.379 . S
C186 N193 1.356 . S
C187 C186 1.363 . S
C187 C190 1.363 . S
N188 C190 1.356 . S
N188 H200 0.984 . S
N188 H201 0.985 . S
N189 C191 1.356 . S
N189 H194 0.984 . S
N189 H195 0.985 . S
C190 C184 1.379 . S
C190 C187 1.363 . S
C190 N188 1.356 . S
C191 C185 1.363 . S
C191 C186 1.379 . S
C191 N189 1.356 . S
N192 C184 1.356 . S
N192 H198 0.984 . S
N192 H199 0.984 . S
N193 C186 1.356 . S
N193 H196 0.984 . S
N193 H197 0.985 . S
H194 N189 0.984 . S
H195 N189 0.985 . S
H196 N193 0.984 . S
H197 N193 0.985 . S
H198 N192 0.984 . S
H199 N192 0.984 . S
H200 N188 0.984 . S
H201 N188 0.985 . S
C202 C203 1.363 . S
C202 C208 1.379 . S
C202 N210 1.356 . S
C203 C202 1.363 . S
C203 C209 1.363 . S
C204 C205 1.363 . S
C204 C209 1.379 . S
C204 N211 1.356 . S
C205 C204 1.363 . S
C205 C208 1.363 . S
N206 C208 1.356 . S
N206 H218 0.984 . S
N206 H219 0.985 . S
N207 C209 1.356 . S
N207 H212 0.984 . S
N207 H213 0.985 . S
C208 C202 1.379 . S
C208 C205 1.363 . S
C208 N206 1.356 . S
C209 C203 1.363 . S
C209 C204 1.379 . S
C209 N207 1.356 . S
N210 C202 1.356 . S
N210 H216 0.984 . S
N210 H217 0.984 . S
N211 C204 1.356 . S
N211 H214 0.984 . S
N211 H215 0.985 . S
H212 N207 0.984 . S
H213 N207 0.985 . S
H214 N211 0.984 . S
H215 N211 0.985 . S
H216 N210 0.984 . S
H217 N210 0.984 . S
H218 N206 0.984 . S
H219 N206 0.985 . S
C220 C221 1.363 . S
C220 C226 1.379 . S
C220 N228 1.356 . S
C221 C220 1.363 . S
C221 C227 1.363 . S
C222 C223 1.363 . S
C222 C227 1.379 . S
C222 N229 1.356 . S
C223 C222 1.363 . S
C223 C226 1.363 . S
N224 C226 1.356 . S
N224 H236 0.984 . S
N224 H237 0.985 . S
N225 C227 1.356 . S
N225 H230 0.984 . S
N225 H231 0.985 . S
C226 C220 1.379 . S
C226 C223 1.363 . S
C226 N224 1.356 . S
C227 C221 1.363 . S
C227 C222 1.379 . S
C227 N225 1.356 . S
N228 C220 1.356 . S
N228 H234 0.984 . S
N228 H235 0.984 . S
N229 C222 1.356 . S
N229 H232 0.984 . S
N229 H233 0.985 . S
H230 N225 0.984 . S
H231 N225 0.985 . S
H232 N229 0.984 . S
H233 N229 0.985 . S
H234 N228 0.984 . S
H235 N228 0.984 . S
H236 N224 0.984 . S
H237 N224 0.985 . S
C238 C239 1.363 . S
C238 C244 1.379 1_554 S
C238 N246 1.356 . S
C239 C238 1.363 . S
C239 C245 1.363 . S
C240 C241 1.363 . S
C240 C245 1.379 1_556 S
C240 N247 1.356 . S
C241 C240 1.363 . S
C241 C244 1.363 . S
N242 C244 1.356 . S
N242 H254 0.984 . S
N242 H255 0.985 . S
N243 C245 1.356 . S
N243 H248 0.984 . S
N243 H249 0.985 . S
C244 C238 1.379 1_556 S
C244 C241 1.363 . S
C244 N242 1.356 . S
C245 C239 1.363 . S
C245 C240 1.379 1_554 S
C245 N243 1.356 . S
N246 C238 1.356 . S
N246 H252 0.984 . S
N246 H253 0.984 . S
N247 C240 1.356 . S
N247 H250 0.984 . S
N247 H251 0.985 . S
H248 N243 0.984 . S
H249 N243 0.985 . S
H250 N247 0.984 . S
H251 N247 0.985 . S
H252 N246 0.984 . S
H253 N246 0.984 . S
H254 N242 0.984 . S
H255 N242 0.985 . S
C256 C257 1.363 . S
C256 C262 1.379 1_545 S
C256 N264 1.356 . S
C257 C256 1.363 . S
C257 C263 1.363 1_455 S
C258 C259 1.363 . S
C258 C263 1.379 1_565 S
C258 N265 1.356 . S
C259 C258 1.363 . S
C259 C262 1.363 1_655 S
N260 C262 1.356 1_655 S
N260 H272 0.984 1_655 S
N260 H273 0.985 . S
N261 C263 1.356 1_455 S
N261 H266 0.984 . S
N261 H267 0.985 1_455 S
C262 C256 1.379 1_565 S
C262 C259 1.363 1_455 S
C262 N260 1.356 1_455 S
C263 C257 1.363 1_655 S
C263 C258 1.379 1_545 S
C263 N261 1.356 1_655 S
N264 C256 1.356 . S
N264 H270 0.984 . S
N264 H271 0.984 . S
N265 C258 1.356 . S
N265 H268 0.984 . S
N265 H269 0.985 . S
H266 N261 0.984 . S
H267 N261 0.985 1_655 S
H268 N265 0.984 . S
H269 N265 0.985 . S
H270 N264 0.984 . S
H271 N264 0.984 . S
H272 N260 0.984 1_455 S
H273 N260 0.985 . S
C274 C275 1.363 . S
C274 C280 1.379 1_455 S
C274 N282 1.356 . S
C275 C274 1.363 . S
C275 C281 1.363 . S
C276 C277 1.363 . S
C276 C281 1.379 1_655 S
C276 N283 1.356 . S
C277 C276 1.363 . S
C277 C280 1.363 . S
N278 C280 1.356 . S
N278 H290 0.984 . S
N278 H291 0.985 . S
N279 C281 1.356 . S
N279 H284 0.984 . S
N279 H285 0.985 . S
C280 C274 1.379 1_655 S
C280 C277 1.363 . S
C280 N278 1.356 . S
C281 C275 1.363 . S
C281 C276 1.379 1_455 S
C281 N279 1.356 . S
N282 C274 1.356 . S
N282 H288 0.984 1_455 S
N282 H289 0.984 . S
N283 C276 1.356 . S
N283 H286 0.984 . S
N283 H287 0.985 1_655 S
H284 N279 0.984 . S
H285 N279 0.985 . S
H286 N283 0.984 . S
H287 N283 0.985 1_455 S
H288 N282 0.984 1_655 S
H289 N282 0.984 . S
H290 N278 0.984 . S
H291 N278 0.985 . S
C292 C293 1.363 . S
C292 C298 1.379 . S
C292 N300 1.356 . S
C293 C292 1.363 . S
C293 C299 1.363 . S
C294 C295 1.363 . S
C294 C299 1.379 . S
C294 N301 1.356 . S
C295 C294 1.363 . S
C295 C298 1.363 . S
N296 C298 1.356 . S
N296 H308 0.984 . S
N296 H309 0.985 . S
N297 C299 1.356 . S
N297 H302 0.984 . S
N297 H303 0.985 . S
C298 C292 1.379 . S
C298 C295 1.363 . S
C298 N296 1.356 . S
C299 C293 1.363 . S
C299 C294 1.379 . S
C299 N297 1.356 . S
N300 C292 1.356 . S
N300 H306 0.984 . S
N300 H307 0.984 . S
N301 C294 1.356 . S
N301 H304 0.984 . S
N301 H305 0.985 . S
H302 N297 0.984 . S
H303 N297 0.985 . S
H304 N301 0.984 . S
H305 N301 0.985 . S
H306 N300 0.984 . S
H307 N300 0.984 . S
H308 N296 0.984 . S
H309 N296 0.985 . S
C310 C311 1.363 . S
C310 C316 1.379 . S
C310 N318 1.356 . S
C311 C310 1.363 . S
C311 C317 1.363 1_565 S
C312 C313 1.363 . S
C312 C317 1.379 . S
C312 N319 1.356 . S
C313 C312 1.363 . S
C313 C316 1.363 1_545 S
N314 C316 1.356 1_545 S
N314 H326 0.984 1_545 S
N314 H327 0.985 . S
N315 C317 1.356 1_565 S
N315 H320 0.984 . S
N315 H321 0.985 1_565 S
C316 C310 1.379 . S
C316 C313 1.363 1_565 S
C316 N314 1.356 1_565 S
C317 C311 1.363 1_545 S
C317 C312 1.379 . S
C317 N315 1.356 1_545 S
N318 C310 1.356 . S
N318 H324 0.984 . S
N318 H325 0.984 . S
N319 C312 1.356 . S
N319 H322 0.984 . S
N319 H323 0.985 . S
H320 N315 0.984 . S
H321 N315 0.985 1_545 S
H322 N319 0.984 . S
H323 N319 0.985 . S
H324 N318 0.984 . S
H325 N318 0.984 . S
H326 N314 0.984 1_565 S
H327 N314 0.985 . S
C328 C329 1.363 1_455 S
C328 C334 1.379 . S
C328 N336 1.356 1_455 S
C329 C328 1.363 1_655 S
C329 C335 1.363 . S
C330 C331 1.363 1_655 S
C330 C335 1.379 . S
C330 N337 1.356 1_655 S
C331 C330 1.363 1_455 S
C331 C334 1.363 . S
N332 C334 1.356 . S
N332 H344 0.984 . S
N332 H345 0.985 . S
N333 C335 1.356 . S
N333 H338 0.984 . S
N333 H339 0.985 . S
C334 C328 1.379 . S
C334 C331 1.363 . S
C334 N332 1.356 . S
C335 C329 1.363 . S
C335 C330 1.379 . S
C335 N333 1.356 . S
N336 C328 1.356 1_655 S
N336 H342 0.984 1_655 S
N336 H343 0.984 . S
N337 C330 1.356 1_455 S
N337 H340 0.984 . S
N337 H341 0.985 1_455 S
H338 N333 0.984 . S
H339 N333 0.985 . S
H340 N337 0.984 . S
H341 N337 0.985 1_655 S
H342 N336 0.984 1_455 S
H343 N336 0.984 . S
H344 N332 0.984 . S
H345 N332 0.985 . S
C346 C347 1.363 . S
C346 C352 1.379 . S
C346 N354 1.356 . S
C347 C346 1.363 . S
C347 C353 1.363 . S
C348 C349 1.363 . S
C348 C353 1.379 . S
C348 N355 1.356 . S
C349 C348 1.363 . S
C349 C352 1.363 . S
N350 C352 1.356 . S
N350 H362 0.984 . S
N350 H363 0.985 . S
N351 C353 1.356 . S
N351 H356 0.984 . S
N351 H357 0.985 . S
C352 C346 1.379 . S
C352 C349 1.363 . S
C352 N350 1.356 . S
C353 C347 1.363 . S
C353 C348 1.379 . S
C353 N351 1.356 . S
N354 C346 1.356 . S
N354 H360 0.984 . S
N354 H361 0.984 . S
N355 C348 1.356 . S
N355 H358 0.984 . S
N355 H359 0.985 . S
H356 N351 0.984 . S
H357 N351 0.985 . S
H358 N355 0.984 . S
H359 N355 0.985 . S
H360 N354 0.984 . S
H361 N354 0.984 . S
H362 N350 0.984 . S
H363 N350 0.985 . S
C364 C365 1.363 . S
C364 C370 1.379 1_545 S
C364 N372 1.356 . S
C365 C364 1.363 . S
C365 C371 1.363 . S
C366 C367 1.363 . S
C366 C371 1.379 1_565 S
C366 N373 1.356 . S
C367 C366 1.363 . S
C367 C370 1.363 . S
N368 C370 1.356 . S
N368 H380 0.984 1_565 S
N368 H381 0.985 . S
N369 C371 1.356 . S
N369 H374 0.984 . S
N369 H375 0.985 1_545 S
C370 C364 1.379 1_565 S
C370 C367 1.363 . S
C370 N368 1.356 . S
C371 C365 1.363 . S
C371 C366 1.379 1_545 S
C371 N369 1.356 . S
N372 C364 1.356 . S
N372 H378 0.984 . S
N372 H379 0.984 . S
N373 C366 1.356 . S
N373 H376 0.984 . S
N373 H377 0.985 . S
H374 N369 0.984 . S
H375 N369 0.985 1_565 S
H376 N373 0.984 . S
H377 N373 0.985 . S
H378 N372 0.984 . S
H379 N372 0.984 . S
H380 N368 0.984 1_545 S
H381 N368 0.985 . S
C382 C383 1.363 . S
C382 C388 1.379 1_655 S
C382 N390 1.356 . S
C383 C382 1.363 . S
C383 C389 1.363 1_565 S
C384 C385 1.363 . S
C384 C389 1.379 1_455 S
C384 N391 1.356 . S
C385 C384 1.363 . S
C385 C388 1.363 1_545 S
N386 C388 1.356 1_545 S
N386 H398 0.984 1_545 S
N386 H399 0.985 . S
N387 C389 1.356 1_565 S
N387 H392 0.984 . S
N387 H393 0.985 1_565 S
C388 C382 1.379 1_455 S
C388 C385 1.363 1_565 S
C388 N386 1.356 1_565 S
C389 C383 1.363 1_545 S
C389 C384 1.379 1_655 S
C389 N387 1.356 1_545 S
N390 C382 1.356 . S
N390 H396 0.984 . S
N390 H397 0.984 . S
N391 C384 1.356 . S
N391 H394 0.984 . S
N391 H395 0.985 . S
H392 N387 0.984 . S
H393 N387 0.985 1_545 S
H394 N391 0.984 . S
H395 N391 0.985 . S
H396 N390 0.984 . S
H397 N390 0.984 . S
H398 N386 0.984 1_565 S
H399 N386 0.985 . S
C113 C3 1.320 . S
C115 C73 1.320 . S
C131 C21 1.340 . S
C133 C91 1.340 . S
C149 C31 1.320 . S
C151 C101 1.320 . S
C167 C49 1.340 . S
C169 C63 1.340 . S
C185 C105 1.340 . S
C187 C7 1.340 . S
C203 C59 1.320 . S
C205 C17 1.320 . S
C221 C35 1.340 . S
C223 C77 1.340 . S
C239 C87 1.320 . S
C241 C45 1.320 . S
C257 C9 1.586 . S
C259 C93 1.586 . S
C275 C106 1.573 . S
C277 C22 1.573 . S
C293 C37 1.586 . S
C295 C65 1.586 . S
C311 C50 1.573 . S
C313 C78 1.573 . S
C329 C92 1.573 . S
C331 C8 1.573 . S
C347 C107 1.586 . S
C349 C23 1.586 . S
C365 C36 1.573 . S
C367 C64 1.573 . S
C383 C51 1.586 . S
C385 C79 1.586 . S
