# Generated by pormake.
# Topology wiu, (6)-cn, num edge types: 1
# Building blocks:
#     Node 0, Type 0, BuildingBlock: KUMJIN_clean_sbu_1, # of connection points: 6
#     Node 1, Type 0, BuildingBlock: KUMJIN_clean_sbu_1, # of connection points: 6
#     Node 2, Type 0, BuildingBlock: KUMJIN_clean_sbu_1, # of connection points: 6
#     Node 3, Type 0, BuildingBlock: KUMJIN_clean_sbu_1, # of connection points: 6
#     Node 4, Type 0, BuildingBlock: KUMJIN_clean_sbu_1, # of connection points: 6
#     Node 5, Type 0, BuildingBlock: KUMJIN_clean_sbu_1, # of connection points: 6
#     Node 6, Type 0, BuildingBlock: KUMJIN_clean_sbu_1, # of connection points: 6
#     Node 7, Type 0, BuildingBlock: KUMJIN_clean_sbu_1, # of connection points: 6
#     Node 8, Type 0, BuildingBlock: KUMJIN_clean_sbu_1, # of connection points: 6
#     Node 9, Type 0, BuildingBlock: KUMJIN_clean_sbu_1, # of connection points: 6
#     Node 10, Type 0, BuildingBlock: KUMJIN_clean_sbu_1, # of connection points: 6
#     Node 11, Type 0, BuildingBlock: KUMJIN_clean_sbu_1, # of connection points: 6
#     Node 12, Type 0, BuildingBlock: KUMJIN_clean_sbu_1, # of connection points: 6
#     Node 13, Type 0, BuildingBlock: KUMJIN_clean_sbu_1, # of connection points: 6
#     Node 14, Type 0, BuildingBlock: KUMJIN_clean_sbu_1, # of connection points: 6
#     Node 15, Type 0, BuildingBlock: KUMJIN_clean_sbu_1, # of connection points: 6
#     Edge 16, Type (0, 0), BuildingBlock: MIFKUJ_clean_linker_0, # of connection points: 2
#     Edge 17, Type (0, 0), BuildingBlock: MIFKUJ_clean_linker_0, # of connection points: 2
#     Edge 18, Type (0, 0), BuildingBlock: MIFKUJ_clean_linker_0, # of connection points: 2
#     Edge 19, Type (0, 0), BuildingBlock: MIFKUJ_clean_linker_0, # of connection points: 2
#     Edge 20, Type (0, 0), BuildingBlock: MIFKUJ_clean_linker_0, # of connection points: 2
#     Edge 21, Type (0, 0), BuildingBlock: MIFKUJ_clean_linker_0, # of connection points: 2
#     Edge 22, Type (0, 0), BuildingBlock: MIFKUJ_clean_linker_0, # of connection points: 2
#     Edge 23, Type (0, 0), BuildingBlock: MIFKUJ_clean_linker_0, # of connection points: 2
#     Edge 24, Type (0, 0), BuildingBlock: MIFKUJ_clean_linker_0, # of connection points: 2
#     Edge 25, Type (0, 0), BuildingBlock: MIFKUJ_clean_linker_0, # of connection points: 2
#     Edge 26, Type (0, 0), BuildingBlock: MIFKUJ_clean_linker_0, # of connection points: 2
#     Edge 27, Type (0, 0), BuildingBlock: MIFKUJ_clean_linker_0, # of connection points: 2
#     Edge 28, Type (0, 0), BuildingBlock: MIFKUJ_clean_linker_0, # of connection points: 2
#     Edge 29, Type (0, 0), BuildingBlock: MIFKUJ_clean_linker_0, # of connection points: 2
#     Edge 30, Type (0, 0), BuildingBlock: MIFKUJ_clean_linker_0, # of connection points: 2
#     Edge 31, Type (0, 0), BuildingBlock: MIFKUJ_clean_linker_0, # of connection points: 2
#     Edge 32, Type (0, 0), BuildingBlock: MIFKUJ_clean_linker_0, # of connection points: 2
#     Edge 33, Type (0, 0), BuildingBlock: MIFKUJ_clean_linker_0, # of connection points: 2
#     Edge 34, Type (0, 0), BuildingBlock: MIFKUJ_clean_linker_0, # of connection points: 2
#     Edge 35, Type (0, 0), BuildingBlock: MIFKUJ_clean_linker_0, # of connection points: 2
#     Edge 36, Type (0, 0), BuildingBlock: MIFKUJ_clean_linker_0, # of connection points: 2
#     Edge 37, Type (0, 0), BuildingBlock: MIFKUJ_clean_linker_0, # of connection points: 2
#     Edge 38, Type (0, 0), BuildingBlock: MIFKUJ_clean_linker_0, # of connection points: 2
#     Edge 39, Type (0, 0), BuildingBlock: MIFKUJ_clean_linker_0, # of connection points: 2
#     Edge 40, Type (0, 0), BuildingBlock: MIFKUJ_clean_linker_0, # of connection points: 2
#     Edge 41, Type (0, 0), BuildingBlock: MIFKUJ_clean_linker_0, # of connection points: 2
#     Edge 42, Type (0, 0), BuildingBlock: MIFKUJ_clean_linker_0, # of connection points: 2
#     Edge 43, Type (0, 0), BuildingBlock: MIFKUJ_clean_linker_0, # of connection points: 2
#     Edge 44, Type (0, 0), BuildingBlock: MIFKUJ_clean_linker_0, # of connection points: 2
#     Edge 45, Type (0, 0), BuildingBlock: MIFKUJ_clean_linker_0, # of connection points: 2
#     Edge 46, Type (0, 0), BuildingBlock: MIFKUJ_clean_linker_0, # of connection points: 2
#     Edge 47, Type (0, 0), BuildingBlock: MIFKUJ_clean_linker_0, # of connection points: 2
#     Edge 48, Type (0, 0), BuildingBlock: MIFKUJ_clean_linker_0, # of connection points: 2
#     Edge 49, Type (0, 0), BuildingBlock: MIFKUJ_clean_linker_0, # of connection points: 2
#     Edge 50, Type (0, 0), BuildingBlock: MIFKUJ_clean_linker_0, # of connection points: 2
#     Edge 51, Type (0, 0), BuildingBlock: MIFKUJ_clean_linker_0, # of connection points: 2
#     Edge 52, Type (0, 0), BuildingBlock: MIFKUJ_clean_linker_0, # of connection points: 2
#     Edge 53, Type (0, 0), BuildingBlock: MIFKUJ_clean_linker_0, # of connection points: 2
#     Edge 54, Type (0, 0), BuildingBlock: MIFKUJ_clean_linker_0, # of connection points: 2
#     Edge 55, Type (0, 0), BuildingBlock: MIFKUJ_clean_linker_0, # of connection points: 2
#     Edge 56, Type (0, 0), BuildingBlock: MIFKUJ_clean_linker_0, # of connection points: 2
#     Edge 57, Type (0, 0), BuildingBlock: MIFKUJ_clean_linker_0, # of connection points: 2
#     Edge 58, Type (0, 0), BuildingBlock: MIFKUJ_clean_linker_0, # of connection points: 2
#     Edge 59, Type (0, 0), BuildingBlock: MIFKUJ_clean_linker_0, # of connection points: 2
#     Edge 60, Type (0, 0), BuildingBlock: MIFKUJ_clean_linker_0, # of connection points: 2
#     Edge 61, Type (0, 0), BuildingBlock: MIFKUJ_clean_linker_0, # of connection points: 2
#     Edge 62, Type (0, 0), BuildingBlock: MIFKUJ_clean_linker_0, # of connection points: 2
#     Edge 63, Type (0, 0), BuildingBlock: MIFKUJ_clean_linker_0, # of connection points: 2
# Relax obj value: 0.285
# Max RMSD: 0.274
# Mean RMSD: 0.274
data_MOF--net-wiu--node1-KUMJIN_clean_sbu_1--edge1-MIFKUJ_clean_linker_0
_symmetry_space_group_name_H-M    P1
_symmetry_Int_Tables_number       1
_symmetry_cell_setting            triclinic
loop_
_symmetry_equiv_pos_as_xyz
'x, y, z'
_cell_length_a     47.359458
_cell_length_b     47.402558
_cell_length_c     76.176367
_cell_angle_alpha  90.369512
_cell_angle_beta   89.732809
_cell_angle_gamma 90.041924
loop_
_atom_site_label
_atom_site_type_symbol
_atom_site_fract_x
_atom_site_fract_y
_atom_site_fract_z
_atom_type_partial_charge
Eu0 Eu 0.34219 0.08714 0.13342 0.0
C1 C 0.27577 0.19569 0.11811 0.0
N2 N 0.30009 0.19279 0.1273 0.0
C3 C 0.31817 0.23519 0.11438 0.0
C4 C 0.27269 0.21726 0.10558 0.0
C5 C 0.32004 0.21346 0.12664 0.0
C6 C 0.29471 0.23664 0.10342 0.0
C7 C 0.22753 0.18095 0.11308 0.0
C8 C 0.25339 0.17797 0.12202 0.0
C9 C 0.2249 0.20126 0.09984 0.0
C10 C 0.2474 0.21947 0.09615 0.0
Eu11 Eu 0.30302 0.15421 0.14695 0.0
N12 N 0.25656 0.15871 0.13508 0.0
C13 C 0.20484 0.16392 0.11804 0.0
C14 C 0.23354 0.14444 0.14116 0.0
C15 C 0.20774 0.14594 0.13231 0.0
H16 H 0.33663 0.214 0.13615 0.0
H17 H 0.19 0.13337 0.13648 0.0
H18 H 0.28971 0.04028 0.1224 0.0
H19 H 0.43964 0.06644 0.1692 0.0
H20 H 0.23474 0.1323 0.153 0.0
H21 H 0.1847 0.16528 0.1114 0.0
H22 H 0.40698 0.09363 0.15089 0.0
H23 H 0.33449 0.25116 0.11369 0.0
H24 H 0.20525 0.20363 0.09277 0.0
H25 H 0.24477 0.23569 0.08633 0.0
H26 H 0.27441 0.9928 0.1303 0.0
H27 H 0.29313 0.25362 0.09402 0.0
H28 H 0.42678 0.01838 0.17881 0.0
N29 N 0.32647 0.03991 0.13864 0.0
C30 C 0.34299 0.0239 0.14918 0.0
C31 C 0.29368 1.00132 0.1358 0.0
C32 C 0.33506 0.99616 0.15379 0.0
C33 C 0.30252 0.02852 0.13144 0.0
C34 C 0.30985 0.98515 0.14718 0.0
N35 N 0.37542 0.06165 0.15029 0.0
C36 C 0.40099 0.07274 0.15493 0.0
C37 C 0.38658 0.01855 0.16539 0.0
C38 C 0.36841 0.0349 0.15492 0.0
C39 C 0.41233 0.03021 0.17069 0.0
C40 C 0.41964 0.05733 0.16532 0.0
H41 H 0.30298 0.96402 0.15047 0.0
H42 H 0.34682 0.95889 0.16837 0.0
H43 H 0.39197 0.97852 0.17856 0.0
O44 O 0.35911 0.09942 0.10776 0.0
O45 O 0.34518 0.08998 0.16372 0.0
O46 O 0.31358 0.12475 0.17203 0.0
O47 O 0.364 0.0565 0.11723 0.0
O48 O 0.3747 0.12504 0.13666 0.0
O49 O 0.34976 0.16587 0.14148 0.0
O50 O 0.27379 0.18116 0.16222 0.0
O51 O 0.29871 0.14249 0.11611 0.0
O52 O 0.30339 0.09469 0.11506 0.0
O53 O 0.31975 0.18522 0.16526 0.0
O54 O 0.28307 0.11479 0.15792 0.0
O55 O 0.29422 0.08528 0.13551 0.0
C56 C 0.33063 0.10292 0.17627 0.0
C57 C 0.35507 0.0614 0.08742 0.0
C58 C 0.36565 0.04063 0.05897 0.0
C59 C 0.33821 0.02961 1.05801 0.0
C60 C 0.32803 0.04943 0.08665 0.0
C61 C 0.31927 0.03443 0.07178 0.0
C62 C 0.37351 0.05748 0.0734 0.0
C63 C 0.37414 0.15304 0.13874 0.0
C64 C 0.36601 0.07335 0.10386 0.0
C65 C 0.35271 0.9801 0.1646 0.0
C66 C 0.37844 0.99125 0.17036 0.0
C67 C 0.29405 0.1181 0.10755 0.0
C68 C 0.29108 0.21614 0.18336 0.0
C69 C 0.26351 0.25388 0.19704 0.0
C70 C 0.28535 0.2579 0.20929 0.0
C71 C 0.31257 0.22067 0.19569 0.0
C72 C 0.2665 0.23283 0.18404 0.0
C73 C 0.30964 0.2414 0.20859 0.0
C74 C 0.27817 0.09186 0.14889 0.0
C75 C 0.29469 0.19393 0.16999 0.0
H76 H 0.33212 0.01599 1.0472 0.0
H77 H 0.31424 0.05056 0.09785 0.0
H78 H 0.29839 0.02514 0.07141 0.0
H79 H 0.39509 0.0649 0.07468 0.0
H80 H 0.28401 0.27441 0.21916 0.0
H81 H 0.33165 0.20807 0.19542 0.0
H82 H 0.24994 0.22962 0.17445 0.0
H83 H 0.32637 0.24486 0.21799 0.0
Eu84 Eu 0.66735 0.59477 0.38311 0.0
C85 C 0.55596 0.54684 0.3645 0.0
N86 N 0.56453 0.56892 0.37488 0.0
C87 C 0.52897 0.59831 0.3619 0.0
C88 C 0.53475 0.55047 0.3517 0.0
C89 C 0.5497 0.59364 0.37453 0.0
C90 C 0.52187 0.57683 0.35019 0.0
C91 C 0.55894 0.49701 0.35654 0.0
C92 C 0.56772 0.52014 0.36694 0.0
C93 C 0.53837 0.50092 0.3436 0.0
C94 C 0.52638 0.52755 0.34116 0.0
Eu95 Eu 0.5993 0.55746 0.39636 0.0
N96 N 0.5888 0.51713 0.37895 0.0
C97 C 0.5711 0.47055 0.35945 0.0
C98 C 0.60026 0.49124 0.38204 0.0
C99 C 0.59158 0.46765 0.37242 0.0
H100 H 0.55216 0.60934 0.38452 0.0
H101 H 0.60077 0.44733 0.37507 0.0
H102 H 0.71842 0.54477 0.37781 0.0
H103 H 0.67159 0.69475 0.4192 0.0
H104 H 0.61533 0.48857 0.39237 0.0
H105 H 0.56476 0.45225 0.35183 0.0
H106 H 0.65077 0.65894 0.39961 0.0
H107 H 0.51779 0.61821 0.36162 0.0
H108 H 0.53142 0.48341 0.33548 0.0
H109 H 0.51025 0.53011 0.33125 0.0
H110 H 0.76502 0.53366 0.38991 0.0
H111 H 0.50548 0.58042 0.34058 0.0
H112 H 0.71862 0.68683 0.43222 0.0
N113 N 0.71334 0.5826 0.39282 0.0
C114 C 0.72591 0.60139 0.40392 0.0
C115 C 0.75416 0.55267 0.39406 0.0
C116 C 0.75299 0.59607 0.41082 0.0
C117 C 0.72745 0.55891 0.38741 0.0
C118 C 0.76689 0.57118 0.40593 0.0
N119 N 0.68539 0.63064 0.40168 0.0
C120 C 0.67121 0.65507 0.40523 0.0
C121 C 0.7244 0.64621 0.41957 0.0
C122 C 0.71179 0.62629 0.40822 0.0
C123 C 0.70963 0.67099 0.42359 0.0
C124 C 0.68303 0.67551 0.41629 0.0
H125 H 0.78765 0.5663 0.41101 0.0
H126 H 0.78613 0.61195 0.42774 0.0
H127 H 0.76113 0.65579 0.43539 0.0
O128 O 0.66274 0.6162 0.35791 0.0
O129 O 0.66474 0.59461 0.41355 0.0
O130 O 0.62505 0.57012 0.42247 0.0
O131 O 0.70407 0.61175 0.36975 0.0
O132 O 0.62657 0.62386 0.38127 0.0
O133 O 0.59439 0.60552 0.40066 0.0
O134 O 0.58286 0.52231 0.4116 0.0
O135 O 0.61568 0.54622 0.36688 0.0
O136 O 0.66096 0.56078 0.36165 0.0
O137 O 0.55829 0.56045 0.40966 0.0
O138 O 0.63841 0.53745 0.40663 0.0
O139 O 0.66946 0.54642 0.38461 0.0
C140 C 0.64913 0.58402 0.42637 0.0
C141 C 0.70187 0.60634 0.33933 0.0
C142 C 0.7199 0.61579 0.3101 0.0
C143 C 0.73069 0.58829 0.30897 0.0
C144 C 0.71287 0.57882 0.33823 0.0
C145 C 0.72669 0.56969 0.32293 0.0
C146 C 0.70486 0.6243 0.32514 0.0
C147 C 0.6031 0.62684 0.39093 0.0
C148 C 0.69008 0.61792 0.35569 0.0
C149 C 0.76542 0.61577 0.42226 0.0
C150 C 0.75119 0.64077 0.42659 0.0
C151 C 0.63831 0.54718 0.35619 0.0
C152 C 0.54726 0.52884 0.43276 0.0
C153 C 0.51075 0.50442 0.44951 0.0
C154 C 0.52133 0.51711 0.46493 0.0
C155 C 0.55767 0.54118 0.44815 0.0
C156 C 0.52454 0.51002 0.43353 0.0
C157 C 0.54479 0.53509 0.46423 0.0
C158 C 0.65965 0.52974 0.39689 0.0
C159 C 0.55935 0.53477 0.41554 0.0
H160 H 0.74301 0.58167 0.29766 0.0
H161 H 0.71134 0.5646 0.34921 0.0
H162 H 0.73529 0.54856 0.32221 0.0
H163 H 0.69754 0.6459 0.32648 0.0
H164 H 0.5111 0.51389 0.47749 0.0
H165 H 0.5755 0.55549 0.4477 0.0
H166 H 0.51749 0.49999 0.42149 0.0
H167 H 0.55265 0.54477 0.47615 0.0
Eu168 Eu 0.16506 0.91843 0.63307 0.0
C169 C 0.22265 0.81261 0.61626 0.0
N170 N 0.19801 0.8257 0.62103 0.0
C171 C 0.17432 0.80375 0.59672 0.0
C172 C 0.22377 0.79445 0.60151 0.0
C173 C 0.17414 0.82167 0.61136 0.0
C174 C 0.19913 0.78987 0.59188 0.0
C175 C 0.27337 0.80717 0.62007 0.0
C176 C 0.24732 0.81875 0.62555 0.0
C177 C 0.27425 0.7885 0.60571 0.0
C178 C 0.24953 0.78206 0.59652 0.0
Eu179 Eu 0.20017 0.85128 0.64797 0.0
N180 N 0.24605 0.83712 0.63937 0.0
C181 C 0.29793 0.81507 0.62901 0.0
C182 C 0.26994 0.84485 0.64814 0.0
C183 C 0.29621 0.83411 0.64303 0.0
H184 H 0.15492 0.83229 0.61459 0.0
H185 H 0.3151 0.84037 0.64999 0.0
H186 H 0.21341 0.96467 0.64881 0.0
H187 H 0.04922 0.92482 0.63629 0.0
H188 H 0.26863 0.85895 0.65932 0.0
H189 H 0.31834 0.80675 0.62512 0.0
H190 H 0.09467 0.90731 0.62538 0.0
H191 H 0.15527 0.80068 0.58916 0.0
H192 H 0.29405 0.77925 0.60142 0.0
H193 H 0.25068 0.76797 0.58528 0.0
H194 H 0.21482 0.0077 0.66681 0.0
H195 H 0.19915 0.7761 0.58047 0.0
H196 H 0.04758 0.96478 0.65723 0.0
N197 N 0.16891 0.95898 0.65134 0.0
C198 C 0.1442 0.97045 0.65713 0.0
C199 C 0.19486 0.99728 0.66437 0.0
C200 C 0.14416 0.99516 0.66759 0.0
C201 C 0.19398 0.97252 0.65434 0.0
C202 C 0.1699 0.00841 0.67127 0.0
N203 N 0.11939 0.93435 0.64173 0.0
C204 C 0.09468 0.92345 0.63538 0.0
C205 C 0.09303 0.96903 0.65845 0.0
C206 C 0.11888 0.95746 0.65252 0.0
C207 C 0.06781 0.95653 0.65294 0.0
C208 C 0.06865 0.93389 0.64119 0.0
H209 H 0.17069 0.0275 0.67915 0.0
H210 H 0.1181 0.02502 0.68193 0.0
H211 H 0.07337 1.00213 0.67399 0.0
O212 O 0.14287 0.94027 0.61198 0.0
O213 O 0.16664 0.91934 0.66373 0.0
O214 O 0.18747 0.8784 0.67347 0.0
O215 O 0.18644 0.95204 0.61874 0.0
O216 O 0.13384 0.87897 0.63056 0.0
O217 O 0.15192 0.84512 0.64868 0.0
O218 O 0.22405 0.82681 0.66723 0.0
O219 O 0.21854 0.86897 0.62036 0.0
O220 O 0.18221 0.89402 0.60867 0.0
O221 O 0.18454 0.81085 0.65749 0.0
O222 O 0.22232 0.88921 0.65877 0.0
O223 O 0.21321 0.91726 0.63544 0.0
C224 C 0.17509 0.90338 0.67691 0.0
C225 C 0.1646 0.97821 0.59549 0.0
C226 C 0.14144 0.99412 0.56909 0.0
C227 C 0.15093 0.02183 0.57277 0.0
C228 C 0.17381 0.00565 0.5992 0.0
C229 C 0.16785 0.02727 0.58743 0.0
C230 C 0.15162 0.97218 0.57959 0.0
C231 C 0.13045 0.85506 0.63968 0.0
C232 C 0.16463 0.95647 0.60892 0.0
C233 C 0.1185 0.00617 0.67381 0.0
C234 C 0.09303 0.9931 0.6693 0.0
C235 C 0.20757 0.88263 0.60656 0.0
C236 C 0.22136 0.77797 0.66177 0.0
C237 C 0.25634 0.74199 0.66839 0.0
C238 C 0.25145 0.72946 0.65191 0.0
C239 C 0.21569 0.76413 0.64577 0.0
C240 C 0.24141 0.76646 0.67324 0.0
C241 C 0.23109 0.7404 0.64075 0.0
C242 C 0.22927 0.91013 0.64866 0.0
C243 C 0.20753 0.80503 0.66606 0.0
H244 H 0.14392 0.03973 0.56524 0.0
H245 H 0.18438 0.01052 0.61143 0.0
H246 H 0.17443 0.04864 0.59038 0.0
H247 H 0.14681 0.95037 0.57658 0.0
H248 H 0.26258 0.71046 0.64799 0.0
H249 H 0.19959 0.7718 0.637 0.0
H250 H 0.24539 0.77645 0.68583 0.0
H251 H 0.22695 0.73024 0.62825 0.0
Eu252 Eu 0.83503 0.4154 0.88376 0.0
C253 C 0.95431 0.45478 0.86456 0.0
N254 N 0.94675 0.43571 0.87716 0.0
C255 C 0.98924 0.40934 0.8712 0.0
C256 C 0.97893 0.45066 0.85422 0.0
C257 C 0.9652 0.41456 0.88139 0.0
C258 C 0.99574 0.42703 0.85727 0.0
C259 C 0.94838 0.501 0.85124 0.0
C260 C 0.93948 0.4801 0.86326 0.0
C261 C 0.97206 0.49622 0.84055 0.0
C262 C 0.98723 0.47111 0.84199 0.0
Eu263 Eu 0.90632 0.44812 0.89448 0.0
N264 N 0.91601 0.4841 0.87342 0.0
C265 C 0.9329 0.52601 0.85003 0.0
C266 C 0.90053 0.50824 0.87178 0.0
C267 C 0.90871 0.5295 0.86023 0.0
H268 H 0.96226 0.40198 0.89301 0.0
H269 H 0.89594 0.5483 0.85894 0.0
H270 H 0.78865 0.4645 0.87062 0.0
H271 H 0.81799 0.32408 0.92624 0.0
H272 H 0.88075 0.51014 0.87822 0.0
H273 H 0.93902 0.54242 0.84093 0.0
H274 H 0.8445 0.3545 0.90594 0.0
H275 H 0.00319 0.39208 0.87445 0.0
H276 H 0.97898 0.51194 0.8312 0.0
H277 H 0.00594 0.4681 0.83396 0.0
H278 H 0.7399 0.47944 0.87722 0.0
H279 H 0.01478 0.42325 0.84966 0.0
H280 H 0.76914 0.33651 0.93487 0.0
N281 N 0.78772 0.42987 0.88826 0.0
C282 C 0.77208 0.41465 0.8998 0.0
C283 C 0.74869 0.46118 0.88367 0.0
C284 C 0.74398 0.42227 0.90381 0.0
C285 C 0.77636 0.45265 0.87999 0.0
C286 C 0.73245 0.446 0.89569 0.0
N287 N 0.81114 0.38417 0.90305 0.0
C288 C 0.82316 0.36012 0.90942 0.0
C289 C 0.76812 0.37412 0.91891 0.0
C290 C 0.78401 0.39092 0.90726 0.0
C291 C 0.78064 0.34995 0.92587 0.0
C292 C 0.80821 0.34284 0.92102 0.0
H293 H 0.71097 0.45259 0.89846 0.0
H294 H 0.70664 0.41142 0.91888 0.0
H295 H 0.72776 0.36922 0.93209 0.0
O296 O 0.8472 0.39477 0.85921 0.0
O297 O 0.83687 0.41684 0.91374 0.0
O298 O 0.8817 0.43231 0.92088 0.0
O299 O 0.80296 0.39571 0.86757 0.0
O300 O 0.87191 0.3808 0.88477 0.0
O301 O 0.91343 0.40057 0.89444 0.0
O302 O 0.92304 0.48598 0.9073 0.0
O303 O 0.89012 0.45225 0.86427 0.0
O304 O 0.84211 0.4533 0.86523 0.0
O305 O 0.94315 0.44616 0.91178 0.0
O306 O 0.86915 0.46936 0.90712 0.0
O307 O 0.8346 0.46396 0.88692 0.0
C308 C 0.85576 0.4229 0.92579 0.0
C309 C 0.81217 0.39755 0.8373 0.0
C310 C 0.8029 0.38207 0.80736 0.0
C311 C 0.79213 0.40895 0.80348 0.0
C312 C 0.80043 0.42391 0.83353 0.0
C313 C 0.79109 0.42983 0.81655 0.0
C314 C 0.81361 0.37704 0.82425 0.0
C315 C 0.89923 0.37834 0.88914 0.0
C316 C 0.82084 0.38971 0.85502 0.0
C317 C 0.72823 0.40586 0.91561 0.0
C318 C 0.74026 0.38183 0.92313 0.0
C319 C 0.86554 0.45932 0.85659 0.0
C320 C 0.9717 0.48728 0.91336 0.0
C321 C 0.00584 0.52148 0.92415 0.0
C322 C 0.0227 0.51639 0.90928 0.0
C323 C 0.9901 0.48112 0.89939 0.0
C324 C 0.98 0.5072 0.92611 0.0
C325 C 0.01502 0.49605 0.89707 0.0
C326 C 0.84707 0.47915 0.89917 0.0
C327 C 0.94401 0.47321 0.91472 0.0
H328 H 0.7835 0.4134 0.79066 0.0
H329 H 0.79789 0.43951 0.84378 0.0
H330 H 0.78207 0.45025 0.81369 0.0
H331 H 0.82107 0.35627 0.82789 0.0
H332 H 0.0427 0.52702 0.90771 0.0
H333 H 0.98584 0.46444 0.89044 0.0
H334 H 0.96686 0.51114 0.93755 0.0
H335 H 0.02881 0.49124 0.88607 0.0
Eu336 Eu 0.70008 0.85433 0.96906 0.0
C337 C 0.65973 0.97762 0.96315 0.0
N338 N 0.67625 0.96335 0.97468 0.0
C339 C 0.70863 1.00253 0.9755 0.0
C340 C 0.66789 0.00433 0.95671 0.0
C341 C 0.69938 0.97648 0.9818 0.0
C342 C 0.69315 0.01625 0.96261 0.0
C343 C 0.61459 0.98227 0.94842 0.0
C344 C 0.63331 0.96678 0.95902 0.0
C345 C 0.62337 0.00801 0.94121 0.0
C346 C 0.64999 0.01897 0.94531 0.0
Eu347 Eu 0.65923 0.91761 0.98293 0.0
N348 N 0.62525 0.94182 0.96618 0.0
C349 C 0.58734 0.97173 0.9457 0.0
C350 C 0.59831 0.93208 0.96421 0.0
C351 C 0.57907 0.9467 0.95381 0.0
H352 H 0.71115 0.96698 0.9923 0.0
H353 H 0.55785 0.9387 0.95208 0.0
H354 H 0.65346 0.84534 1.00404 0.0
H355 H 0.81467 0.84303 0.97335 0.0
H356 H 0.59162 0.91295 0.97058 0.0
H357 H 0.57235 0.98304 0.93767 0.0
H358 H 0.77014 0.86384 0.96282 0.0
H359 H 0.72749 0.0122 0.9808 0.0
H360 H 0.60942 0.01999 0.93285 0.0
H361 H 0.6561 0.03933 0.94011 0.0
H362 H 0.64892 0.8127 1.02873 0.0
H363 H 0.70015 0.03666 0.95795 0.0
H364 H 0.81359 0.80661 0.99651 0.0
N365 N 0.69438 0.83107 0.99649 0.0
C366 C 0.71736 0.81559 1.00141 0.0
C367 C 0.66813 0.81301 1.02098 0.0
C368 C 0.7161 0.79758 1.01606 0.0
C369 C 0.67052 0.8311 1.00663 0.0
C370 C 0.69075 0.79569 1.02547 0.0
N371 N 0.74433 0.83971 0.97989 0.0
C372 C 0.76962 0.84857 0.97324 0.0
C373 C 0.76807 0.80771 0.9993 0.0
C374 C 0.74319 0.82031 0.99299 0.0
C375 C 0.79401 0.81579 0.99199 0.0
C376 C 0.79478 0.83656 0.97906 0.0
H377 H 0.6889 0.78199 1.03675 0.0
H378 H 0.73973 0.76893 1.03248 0.0
H379 H 0.78524 0.77807 1.01796 0.0
O380 O 0.72827 0.8291 0.95224 0.0
O381 O 0.72043 0.87249 0.99576 0.0
O382 O 0.68745 0.90333 1.00665 0.0
O383 O 0.68458 0.81756 0.95471 0.0
O384 O 0.71768 0.89361 0.9576 0.0
O385 O 0.70758 0.92099 0.98101 0.0
O386 O 0.63795 0.91048 1.00806 0.0
O387 O 0.6517 0.91 0.95294 0.0
O388 O 0.69072 0.8847 0.94457 0.0
O389 O 0.64099 0.95276 0.99735 0.0
O390 O 0.62741 0.8793 0.97993 0.0
O391 O 0.65328 0.84074 0.97095 0.0
C392 C 0.71083 0.8884 1.00911 0.0
C393 C 0.7181 0.78086 0.95508 0.0
C394 C 0.74923 0.74002 0.952 0.0
C395 C 0.73489 0.72733 0.9662 0.0
C396 C 0.70453 0.76778 0.96933 0.0
C397 C 0.71301 0.74126 0.97486 0.0
C398 C 0.74067 0.76707 0.94658 0.0
C399 C 0.72449 0.91429 0.96797 0.0
C400 C 0.70967 0.80945 0.9498 0.0
C401 C 0.74046 0.78316 1.02141 0.0
C402 C 0.76641 0.78835 1.01314 0.0
C403 C 0.66964 0.9024 0.94035 0.0
C404 C 0.64732 0.94845 1.02756 0.0
C405 C 0.63835 0.9678 1.05657 0.0
C406 C 0.66655 0.97652 1.05783 0.0
C407 C 0.67563 0.95718 1.02884 0.0
C408 C 0.62914 0.95315 1.04159 0.0
C409 C 0.6853 0.97066 1.04406 0.0
C410 C 0.62868 0.85216 0.97514 0.0
C411 C 0.6355 0.93755 1.01108 0.0
H412 H 0.74001 0.70622 0.97047 0.0
H413 H 0.68736 0.77807 0.97629 0.0
H414 H 0.70236 0.7313 0.98579 0.0
H415 H 0.75154 0.77756 0.93591 0.0
H416 H 0.67369 0.98859 0.06909 0.0
H417 H 0.69012 0.95404 1.01805 0.0
H418 H 0.60705 0.94749 1.0402 0.0
H419 H 0.70707 0.97752 1.04489 0.0
Eu420 Eu 0.40742 0.44734 0.72104 0.0
C421 C 0.27768 0.40515 0.71652 0.0
N422 N 0.2919 0.42363 0.72693 0.0
C423 C 0.25079 0.45313 0.72889 0.0
C424 C 0.24944 0.41025 0.71164 0.0
C425 C 0.27861 0.44697 0.73357 0.0
C426 C 0.2362 0.43483 0.71774 0.0
C427 C 0.2766 0.36024 0.70113 0.0
C428 C 0.29109 0.38051 0.7113 0.0
C429 C 0.2487 0.36551 0.6959 0.0
C430 C 0.23518 0.39049 0.7011 0.0
Eu431 Eu 0.33971 0.4126 0.73306 0.0
N432 N 0.31833 0.37629 0.71623 0.0
C433 C 0.29062 0.33529 0.69647 0.0
C434 C 0.33179 0.3516 0.71221 0.0
C435 C 0.31826 0.33089 0.70215 0.0
H436 H 0.28935 0.46102 0.7425 0.0
H437 H 0.32916 0.31153 0.69876 0.0
H438 H 0.45737 0.39646 0.72835 0.0
H439 H 0.39725 0.55131 0.75255 0.0
H440 H 0.35311 0.34796 0.71651 0.0
H441 H 0.28024 0.31923 0.68864 0.0
H442 H 0.3854 0.51331 0.73185 0.0
H443 H 0.24057 0.47191 0.73399 0.0
H444 H 0.23732 0.3503 0.68795 0.0
H445 H 0.21355 0.39414 0.69713 0.0
H446 H 0.49418 0.38588 0.74954 0.0
H447 H 0.21458 0.43957 0.71423 0.0
H448 H 0.43595 0.5446 0.77375 0.0
N449 N 0.44387 0.43435 0.74091 0.0
C450 C 0.45172 0.45491 0.75261 0.0
C451 C 0.48192 0.40504 0.75088 0.0
C452 C 0.47409 0.45039 0.7645 0.0
C453 C 0.45997 0.41057 0.73922 0.0
C454 C 0.48871 0.42481 0.76378 0.0
N455 N 0.41587 0.48481 0.7413 0.0
C456 C 0.40181 0.5099 0.74107 0.0
C457 C 0.44553 0.50227 0.76467 0.0
C458 C 0.43785 0.48092 0.75257 0.0
C459 C 0.43067 0.52776 0.76465 0.0
C460 C 0.40875 0.53159 0.75277 0.0
H461 H 0.50601 0.42061 0.77264 0.0
H462 H 0.49878 0.46842 0.78567 0.0
H463 H 0.47363 0.51366 0.78592 0.0
O464 O 0.42681 0.48474 0.70956 0.0
O465 O 0.3915 0.45052 0.75144 0.0
O466 O 0.34424 0.45329 0.74967 0.0
O467 O 0.44719 0.44432 0.70646 0.0
O468 O 0.37091 0.46943 0.70892 0.0
O469 O 0.33602 0.46077 0.72875 0.0
O470 O 0.35137 0.39754 0.75913 0.0
O471 O 0.3433 0.40802 0.70282 0.0
O472 O 0.38008 0.43718 0.69472 0.0
O473 O 0.30827 0.39283 0.74971 0.0
O474 O 0.37986 0.38211 0.73458 0.0
O475 O 0.41237 0.39987 0.71544 0.0
C476 C 0.36712 0.4594 0.75865 0.0
C477 C 0.4582 0.47979 0.68578 0.0
C478 C 0.49284 0.50568 0.66826 0.0
C479 C 0.47944 0.49554 0.65297 0.0
C480 C 0.44501 0.47018 0.67048 0.0
C481 C 0.4556 0.47818 0.65412 0.0
C482 C 0.48158 0.49787 0.68467 0.0
C483 C 0.3478 0.47714 0.71686 0.0
C484 C 0.44836 0.47122 0.70317 0.0
C485 C 0.4817 0.47166 0.77648 0.0
C486 C 0.46748 0.49749 0.77657 0.0
C487 C 0.35738 0.42123 0.69027 0.0
C488 C 0.31376 0.40276 0.77958 0.0
C489 C 0.29367 0.39248 0.80816 0.0
C490 C 0.28288 0.41998 0.80934 0.0
C491 C 0.30217 0.42997 0.78057 0.0
C492 C 0.31026 0.38455 0.79364 0.0
C493 C 0.28766 0.43888 0.79565 0.0
C494 C 0.40351 0.37867 0.72512 0.0
C495 C 0.32519 0.39127 0.76309 0.0
H496 H 0.48769 0.50035 0.64006 0.0
H497 H 0.42679 0.4564 0.67119 0.0
H498 H 0.44558 0.47052 0.64226 0.0
H499 H 0.491 0.50568 0.6967 0.0
H500 H 0.26938 0.42614 0.82022 0.0
H501 H 0.30319 0.4438 0.76946 0.0
H502 H 0.31754 0.36292 0.79227 0.0
H503 H 0.27858 0.45983 0.79623 0.0
Eu504 Eu 0.80142 0.15358 0.46801 0.0
C505 C 0.8602 0.03821 0.45734 0.0
N506 N 0.83521 0.05018 0.46226 0.0
C507 C 0.80995 0.0155 0.44528 0.0
C508 C 0.86084 0.01503 0.44557 0.0
C509 C 0.81027 0.03835 0.45693 0.0
C510 C 0.83533 0.00398 0.43941 0.0
C511 C 0.91139 0.0373 0.45891 0.0
C512 C 0.88528 0.04927 0.46399 0.0
C513 C 0.912 0.01454 0.44702 0.0
C514 C 0.88682 0.00343 0.4404 0.0
Eu515 Eu 0.83858 0.08842 0.48262 0.0
N516 N 0.88424 0.0713 0.47559 0.0
C517 C 0.93622 0.04829 0.4661 0.0
C518 C 0.90838 0.08117 0.48323 0.0
C519 C 0.93467 0.07015 0.47842 0.0
H520 H 0.79039 0.04552 0.46199 0.0
H521 H 0.95373 0.07827 0.48439 0.0
H522 H 0.84595 0.1741 0.50131 0.0
H523 H 0.68607 0.15885 0.4669 0.0
H524 H 0.9075 0.09711 0.49339 0.0
H525 H 0.95664 0.03968 0.4625 0.0
H526 H 0.73323 0.14247 0.45735 0.0
H527 H 0.79007 0.0065 0.44107 0.0
H528 H 0.93188 0.00517 0.44299 0.0
H529 H 0.88766 0.98569 0.43137 0.0
H530 H 0.84459 0.20538 0.52692 0.0
H531 H 0.83499 0.98617 0.43041 0.0
H532 H 0.68167 0.19305 0.49141 0.0
N533 N 0.80263 0.17927 0.49498 0.0
C534 C 0.77759 0.19149 0.49981 0.0
C535 C 0.82563 0.20174 0.51936 0.0
C536 C 0.77585 0.20936 0.51466 0.0
C537 C 0.82639 0.18403 0.50462 0.0
C538 C 0.80036 0.21467 0.52431 0.0
N539 N 0.75511 0.16602 0.47684 0.0
C540 C 0.73145 0.15668 0.46843 0.0
C541 C 0.72669 0.19492 0.49614 0.0
C542 C 0.75317 0.18451 0.49055 0.0
C543 C 0.70239 0.18565 0.48743 0.0
C544 C 0.70477 0.16624 0.47364 0.0
H545 H 0.79988 0.22828 0.53579 0.0
H546 H 0.74807 0.2348 0.53097 0.0
H547 H 0.70506 0.22201 0.51485 0.0
O548 O 0.77639 0.17809 0.44939 0.0
O549 O 0.78327 0.13554 0.49537 0.0
O550 O 0.82121 0.11315 0.50694 0.0
O551 O 0.81739 0.19302 0.45709 0.0
O552 O 0.78119 0.11507 0.45687 0.0
O553 O 0.79016 0.08777 0.48048 0.0
O554 O 0.85871 0.06882 0.50522 0.0
O555 O 0.8454 0.09334 0.45239 0.0
O556 O 0.81021 0.12316 0.44334 0.0
O557 O 0.81958 0.0509 0.49432 0.0
O558 O 0.86981 0.12769 0.48523 0.0
O559 O 0.84981 0.16151 0.46779 0.0
C560 C 0.79518 0.12294 0.50917 0.0
C561 C 0.78114 0.22686 0.45383 0.0
C562 C 0.74796 0.26451 0.44721 0.0
C563 C 0.75263 0.27617 0.46396 0.0
C564 C 0.78673 0.23983 0.4701 0.0
C565 C 0.7721 0.264 0.47525 0.0
C566 C 0.76206 0.2396 0.44225 0.0
C567 C 0.7736 0.09518 0.46753 0.0
C568 C 0.79372 0.19928 0.44941 0.0
C569 C 0.74969 0.22083 0.51969 0.0
C570 C 0.72519 0.21357 0.5105 0.0
C571 C 0.82959 0.10331 0.43954 0.0
C572 C 0.83921 0.0276 0.5196 0.0
C573 C 0.86123 0.01182 0.54645 0.0
C574 C 0.85209 0.98405 0.54261 0.0
C575 C 0.83034 1.00008 0.51577 0.0
C576 C 0.85142 0.03368 0.53576 0.0
C577 C 0.83589 0.97851 0.52765 0.0
C578 C 0.87204 0.15199 0.4764 0.0
C579 C 0.839 0.04958 0.50626 0.0
H580 H 0.74205 0.29539 0.46801 0.0
H581 H 0.80218 0.23116 0.47896 0.0
H582 H 0.77614 0.27352 0.48795 0.0
H583 H 0.75818 0.2302 0.42948 0.0
H584 H 0.85884 0.96621 0.55027 0.0
H585 H 0.82022 0.9951 0.50341 0.0
H586 H 0.85588 0.05551 0.53892 0.0
H587 H 0.82954 0.9571 0.52461 0.0
Eu588 Eu 0.10063 0.55286 0.22122 0.0
C589 C 0.22432 0.5898 0.20999 0.0
N590 N 0.21066 0.57416 0.22232 0.0
C591 C 0.24845 0.54013 0.22137 0.0
C592 C 0.24998 0.58053 0.20237 0.0
C593 C 0.22343 0.55042 0.22878 0.0
C594 C 0.26153 0.55496 0.20787 0.0
C595 C 0.22862 0.63409 0.19441 0.0
C596 C 0.21383 0.61623 0.206 0.0
C597 C 0.25332 0.62435 0.18613 0.0
C598 C 0.26394 0.59758 0.19006 0.0
Eu599 Eu 0.16612 0.59268 0.23242 0.0
N600 N 0.18994 0.62515 0.21422 0.0
C601 C 0.21851 0.66149 0.19184 0.0
C602 C 0.18063 0.65221 0.21236 0.0
C603 C 0.19461 0.6707 0.20103 0.0
H604 H 0.21434 0.53877 0.23954 0.0
H605 H 0.18694 0.69201 0.19938 0.0
H606 H 0.08641 0.60178 0.25419 0.0
H607 H 0.09935 0.43809 0.23022 0.0
H608 H 0.16215 0.65937 0.21944 0.0
H609 H 0.22933 0.67587 0.18308 0.0
H610 H 0.11609 0.48294 0.21757 0.0
H611 H 0.25778 0.52087 0.22622 0.0
H612 H 0.26479 0.63763 0.17703 0.0
H613 H 0.28347 0.59065 0.18396 0.0
H614 H 0.05355 0.60566 0.279 0.0
H615 H 0.28111 0.54709 0.20229 0.0
H616 H 0.06198 0.43851 0.25302 0.0
N617 N 0.07623 0.55903 0.24837 0.0
C618 C 0.06226 0.5354 0.25397 0.0
C619 C 0.05552 0.5859 0.27191 0.0
C620 C 0.04395 0.53653 0.26861 0.0
C621 C 0.07387 0.58376 0.25753 0.0
C622 C 0.04004 0.56238 0.27723 0.0
N623 N 0.08982 0.50849 0.23378 0.0
C624 C 0.10085 0.48338 0.22811 0.0
C625 C 0.059 0.4841 0.2539 0.0
C626 C 0.06968 0.50926 0.24665 0.0
C627 C 0.06961 0.45828 0.24772 0.0
C628 C 0.0909 0.45795 0.23497 0.0
H629 H 0.02617 0.56408 0.28855 0.0
H630 H 0.01706 0.51218 0.28595 0.0
H631 H 0.03029 0.46636 0.27311 0.0
O632 O 0.07484 0.52155 0.20794 0.0
O633 O 0.11765 0.53936 0.24982 0.0
O634 O 0.16038 0.55996 0.25519 0.0
O635 O 0.06162 0.56495 0.20766 0.0
O636 O 0.13836 0.53403 0.20833 0.0
O637 O 0.16759 0.54415 0.23066 0.0
O638 O 0.15982 0.61212 0.25829 0.0
O639 O 0.15492 0.60081 0.20317 0.0
O640 O 0.13031 0.56113 0.19573 0.0
O641 O 0.20052 0.61488 0.24504 0.0
O642 O 0.12679 0.62415 0.23134 0.0
O643 O 0.08835 0.59988 0.22064 0.0
C644 C 0.13968 0.54312 0.26054 0.0
C645 C 0.04414 0.53367 0.18554 0.0
C646 C 0.00959 0.5076 0.16821 0.0
C647 C 0.02105 0.51966 0.1529 0.0
C648 C 0.05547 0.54547 0.17026 0.0
C649 C 0.04393 0.53834 0.15396 0.0
C650 C 0.02177 0.51449 0.18444 0.0
C651 C 0.16026 0.52766 0.21761 0.0
C652 C 0.05583 0.53915 0.20291 0.0
C653 C 0.03151 0.51161 0.27488 0.0
C654 C 0.03909 0.48547 0.26758 0.0
C655 C 0.14781 0.58223 0.19095 0.0
C656 C 0.20147 0.60691 0.27515 0.0
C657 C 0.22412 0.61665 0.30303 0.0
C658 C 0.2377 0.59038 0.30226 0.0
C659 C 0.21499 0.58057 0.27457 0.0
C660 C 0.20541 0.6244 0.28962 0.0
C661 C 0.23253 0.57209 0.28824 0.0
C662 C 0.10002 0.62394 0.22563 0.0
C663 C 0.18674 0.61796 0.25974 0.0
H664 H 0.01198 0.51524 0.14015 0.0
H665 H 0.07319 0.5599 0.17094 0.0
H666 H 0.05255 0.54752 0.14212 0.0
H667 H 0.01392 0.50483 0.19638 0.0
H668 H 0.2532 0.58464 0.312 0.0
H669 H 0.21272 0.56694 0.26334 0.0
H670 H 0.19609 0.6453 0.28952 0.0
H671 H 0.2432 0.55193 0.28752 0.0
Eu672 Eu 0.84402 0.59045 0.63403 0.0
C673 C 0.77417 0.69213 0.61747 0.0
N674 N 0.79982 0.68022 0.62092 0.0
C675 C 0.81999 0.7036 0.59598 0.0
C676 C 0.77064 0.71025 0.60304 0.0
C677 C 0.82243 0.68523 0.61018 0.0
C678 C 0.79412 0.71645 0.59253 0.0
C679 C 0.7234 0.69251 0.62254 0.0
C680 C 0.75071 0.68353 0.62724 0.0
C681 C 0.7201 0.71168 0.60873 0.0
C682 C 0.74366 0.72065 0.59907 0.0
Eu683 Eu 0.80179 0.65402 0.64739 0.0
N684 N 0.75441 0.66456 0.64039 0.0
C685 C 0.70012 0.68119 0.63147 0.0
C686 C 0.73177 0.65304 0.64891 0.0
C687 C 0.70432 0.66113 0.64455 0.0
H688 H 0.84233 0.67484 0.61222 0.0
H689 H 0.68643 0.65207 0.65139 0.0
H690 H 0.79117 0.54102 0.62561 0.0
H691 H 0.94385 0.57091 0.66701 0.0
H692 H 0.73498 0.63829 0.65945 0.0
H693 H 0.6788 0.68741 0.62813 0.0
H694 H 0.9111 0.59539 0.64716 0.0
H695 H 0.83805 0.70766 0.58761 0.0
H696 H 0.69931 0.71909 0.60508 0.0
H697 H 0.74064 0.73482 0.58814 0.0
H698 H 0.77466 0.49651 0.63778 0.0
H699 H 0.79228 0.73038 0.58137 0.0
H700 H 0.92836 0.52783 0.68247 0.0
N701 N 0.82613 0.5454 0.64322 0.0
C702 C 0.8422 0.53177 0.6553 0.0
C703 C 0.79349 0.50635 0.64301 0.0
C704 C 0.83372 0.50546 0.66223 0.0
C705 C 0.80297 0.53202 0.63627 0.0
C706 C 0.80863 0.49325 0.65628 0.0
N707 N 0.87706 0.56712 0.65189 0.0
C708 C 0.90401 0.5768 0.65399 0.0
C709 C 0.88662 0.52802 0.67097 0.0
C710 C 0.86847 0.5428 0.65963 0.0
C711 C 0.9138 0.53863 0.67389 0.0
C712 C 0.92265 0.56292 0.66517 0.0
H713 H 0.80143 0.47313 0.66129 0.0
H714 H 0.84479 0.47141 0.67976 0.0
H715 H 0.89108 0.4912 0.68743 0.0
O716 O 0.8647 0.59627 0.60856 0.0
O717 O 0.85172 0.60104 0.66368 0.0
O718 O 0.81068 0.62298 0.67161 0.0
O719 O 0.86433 0.55512 0.62088 0.0
O720 O 0.87544 0.62879 0.63673 0.0
O721 O 0.84848 0.66793 0.6431 0.0
O722 O 0.77576 0.68181 0.66416 0.0
O723 O 0.78452 0.63691 0.61968 0.0
O724 O 0.81661 0.6042 0.6099 0.0
O725 O 0.82112 0.68934 0.66135 0.0
O726 O 0.78459 0.61414 0.65874 0.0
O727 O 0.7956 0.58772 0.63506 0.0
C728 C 0.8327 0.60665 0.67602 0.0
C729 C 0.85604 0.55599 0.59085 0.0
C730 C 0.86427 0.52861 0.56442 0.0
C731 C 0.83645 0.51875 0.56489 0.0
C732 C 0.82759 0.5474 0.59066 0.0
C733 C 0.81776 0.52912 0.57758 0.0
C734 C 0.87381 0.54764 0.57725 0.0
C735 C 0.87345 0.65643 0.63977 0.0
C736 C 0.86848 0.56915 0.60649 0.0
C737 C 0.85112 0.49147 0.67423 0.0
C738 C 0.87751 0.50271 0.67858 0.0
C739 C 0.79408 0.62008 0.60679 0.0
C740 C 0.79521 0.72218 0.67995 0.0
C741 C 0.76794 0.75992 0.69386 0.0
C742 C 0.79291 0.76994 0.7017 0.0
C743 C 0.81977 0.7326 0.68794 0.0
C744 C 0.76923 0.73593 0.6829 0.0
C745 C 0.81855 0.75633 0.69877 0.0
C746 C 0.77873 0.59319 0.64831 0.0
C747 C 0.7972 0.69759 0.66816 0.0
H748 H 0.8297 0.50225 0.55599 0.0
H749 H 0.81332 0.55368 0.60099 0.0
H750 H 0.79614 0.52173 0.57791 0.0
H751 H 0.89596 0.55355 0.57769 0.0
H752 H 0.79275 0.78884 0.70978 0.0
H753 H 0.83999 0.72246 0.68577 0.0
H754 H 0.75024 0.72825 0.67657 0.0
H755 H 0.83762 0.7644 0.70476 0.0
Eu756 Eu 0.16503 0.09432 0.88363 0.0
C757 C 0.05541 0.05246 0.86236 0.0
N758 N 0.06299 0.07281 0.87427 0.0
C759 C 0.02713 0.10337 0.86274 0.0
C760 C 0.03453 0.05767 0.84958 0.0
C761 C 0.04739 0.09695 0.87536 0.0
C762 C 0.02111 0.0839 0.84953 0.0
C763 C 0.05887 0.0039 0.85202 0.0
C764 C 0.06696 0.02558 0.86378 0.0
C765 C 0.03875 0.00939 0.83903 0.0
C766 C 0.02663 0.03619 0.83781 0.0
Eu767 Eu 0.09691 0.05924 0.89587 0.0
N768 N 0.08711 0.02107 0.87619 0.0
C769 C 0.07149 0.97738 0.85352 0.0
C770 C 0.09919 0.99516 0.87768 0.0
C771 C 0.09174 0.973 0.86643 0.0
H772 H 0.04879 0.1104 0.88656 0.0
H773 H 0.10157 0.95253 0.86778 0.0
H774 H 0.21596 0.04657 0.87415 0.0
H775 H 0.1742 0.19497 0.91875 0.0
H776 H 0.11438 0.99154 0.88758 0.0
H777 H 0.06581 0.9602 0.84476 0.0
H778 H 0.15095 0.15886 0.90044 0.0
H779 H 0.01533 0.12288 0.86366 0.0
H780 H 0.0323 0.99299 0.82992 0.0
H781 H 0.01071 0.03993 0.82792 0.0
H782 H 0.26468 0.03588 0.88299 0.0
H783 H 0.00492 0.08867 0.83999 0.0
H784 H 0.22299 0.18745 0.92916 0.0
N785 N 0.21293 0.08378 0.88986 0.0
C786 C 0.22686 0.10227 0.90041 0.0
C787 C 0.25425 0.05456 0.88807 0.0
C788 C 0.255 0.09725 0.90553 0.0
C789 C 0.22649 0.06061 0.8832 0.0
C790 C 0.26849 0.0728 0.89943 0.0
N791 N 0.18599 0.13081 0.90062 0.0
C792 C 0.17224 0.15529 0.9048 0.0
C793 C 0.22732 0.14693 0.91614 0.0
C794 C 0.21321 0.12679 0.90564 0.0
C795 C 0.21295 0.17156 0.92101 0.0
C796 C 0.18538 0.17585 0.91519 0.0
H797 H 0.29005 0.06812 0.90313 0.0
H798 H 0.29042 0.11327 0.92052 0.0
H799 H 0.26615 0.15677 0.92985 0.0
O800 O 0.15363 0.10884 0.85739 0.0
O801 O 0.16125 0.09888 0.91375 0.0
O802 O 0.12515 0.06895 0.92183 0.0
O803 O 0.19621 0.11522 0.86738 0.0
O804 O 0.12469 0.12459 0.88234 0.0
O805 O 0.09255 0.10663 0.90165 0.0
O806 O 0.07794 0.02392 0.91005 0.0
O807 O 0.11351 0.05452 0.86574 0.0
O808 O 0.16103 0.05367 0.86676 0.0
O809 O 0.05695 0.06412 0.91015 0.0
O810 O 0.13368 0.03692 0.90749 0.0
O811 O 0.16935 0.04619 0.88818 0.0
C812 C 0.14767 0.0851 0.92624 0.0
C813 C 0.19218 0.10563 0.83744 0.0
C814 C 0.21457 0.11776 0.80983 0.0
C815 C 0.22603 0.09055 0.80853 0.0
C816 C 0.20397 0.07851 0.83622 0.0
C817 C 0.22018 0.07076 0.82157 0.0
C818 C 0.19679 0.12472 0.82397 0.0
C819 C 0.10126 0.12793 0.89204 0.0
C820 C 0.17965 0.11627 0.85381 0.0
C821 C 0.26889 0.1169 0.91635 0.0
C822 C 0.2551 0.1417 0.92161 0.0
C823 C 0.13794 0.04649 0.85826 0.0
C824 C 0.02841 0.02303 0.9112 0.0
C825 C 0.99265 0.98885 0.91992 0.0
C826 C 0.9794 0.99222 0.9036 0.0
C827 C 0.01348 0.02765 0.89563 0.0
C828 C 0.0176 0.00389 0.92354 0.0
C829 C 0.98964 0.01176 0.89161 0.0
C830 C 0.15711 0.02954 0.89977 0.0
C831 C 0.05532 0.03767 0.91455 0.0
H832 H 0.24055 0.08519 0.798 0.0
H833 H 0.20182 0.06385 0.84687 0.0
H834 H 0.22956 0.04997 0.82086 0.0
H835 H 0.18914 0.14619 0.82554 0.0
H836 H 0.96007 0.98102 0.90056 0.0
H837 H 0.01981 0.04385 0.88671 0.0
H838 H 0.02813 1.00118 0.93602 0.0
H839 H 0.97857 0.01524 0.87941 0.0
Eu840 Eu 0.66317 0.41601 0.13421 0.0
C841 C 0.72608 0.31347 0.11457 0.0
N842 N 0.70151 0.32699 0.11897 0.0
C843 C 0.67892 0.30759 0.0935 0.0
C844 C 0.72783 0.29659 0.0993 0.0
C845 C 0.67824 0.32464 0.10854 0.0
C846 C 0.70367 0.29324 0.08898 0.0
C847 C 0.77689 0.30933 0.11845 0.0
C848 C 0.75047 0.31972 0.12412 0.0
C849 C 0.77832 0.29118 0.10382 0.0
C850 C 0.75387 0.28477 0.09431 0.0
Eu851 Eu 0.70235 0.35065 0.14653 0.0
N852 N 0.74866 0.33817 0.13789 0.0
C853 C 0.80125 0.31847 0.12717 0.0
C854 C 0.77238 0.34778 0.14611 0.0
C855 C 0.799 0.33804 0.1409 0.0
H856 H 0.65925 0.3362 0.11152 0.0
H857 H 0.81776 0.34547 0.14756 0.0
H858 H 0.71467 0.46186 0.12121 0.0
H859 H 0.56677 0.43973 0.17091 0.0
H860 H 0.77062 0.36216 0.1571 0.0
H861 H 0.82194 0.31106 0.12313 0.0
H862 H 0.59799 0.4119 0.1514 0.0
H863 H 0.6604 0.30572 0.08531 0.0
H864 H 0.79841 0.28275 0.09939 0.0
H865 H 0.75553 0.27155 0.08269 0.0
H866 H 0.73253 0.50871 0.12977 0.0
H867 H 0.70418 0.28041 0.07715 0.0
H868 H 0.58239 0.4863 0.18205 0.0
N869 N 0.68039 0.46255 0.13949 0.0
C870 C 0.66517 0.47857 0.15097 0.0
C871 C 0.71371 0.50038 0.13597 0.0
C872 C 0.67426 0.50585 0.15588 0.0
C873 C 0.70363 0.47364 0.13131 0.0
C874 C 0.69922 0.51639 0.14852 0.0
N875 N 0.6311 0.44222 0.15172 0.0
C876 C 0.60499 0.43222 0.15614 0.0
C877 C 0.62249 0.48483 0.1683 0.0
C878 C 0.6396 0.46826 0.15709 0.0
C879 C 0.59617 0.4742 0.17347 0.0
C880 C 0.58726 0.44792 0.1672 0.0
H881 H 0.70698 0.53719 0.15202 0.0
H882 H 0.66457 0.54291 0.17161 0.0
H883 H 0.61921 0.52449 0.18247 0.0
O884 O 0.6436 0.40415 0.10935 0.0
O885 O 0.6594 0.41303 0.1644 0.0
O886 O 0.69141 0.37878 0.17231 0.0
O887 O 0.64093 0.44755 0.11929 0.0
O888 O 0.63057 0.37812 0.13728 0.0
O889 O 0.65573 0.33825 0.14375 0.0
O890 O 0.72791 0.32224 0.16296 0.0
O891 O 0.71919 0.36814 0.11865 0.0
O892 O 0.69563 0.40868 0.11148 0.0
O893 O 0.68348 0.31299 0.15765 0.0
O894 O 0.72113 0.38859 0.15923 0.0
O895 O 0.71145 0.41783 0.13677 0.0
C896 C 0.67389 0.40019 0.17677 0.0
C897 C 0.64785 0.44157 0.08887 0.0
C898 C 0.6327 0.44797 0.05892 0.0
C899 C 0.65162 0.47098 1.05737 0.0
C900 C 0.66533 0.46544 0.08764 0.0
C901 C 0.66854 0.47897 0.07155 0.0
C902 C 0.63559 0.43067 0.07375 0.0
C903 C 0.63137 0.35045 0.14051 0.0
C904 C 0.63802 0.43063 0.10585 0.0
C905 C 0.65781 0.52202 0.16758 0.0
C906 C 0.63195 0.51155 0.17374 0.0
C907 C 0.71424 0.38888 0.10716 0.0
C908 C 0.70815 0.27925 0.17562 0.0
C909 C 0.73483 0.24175 0.18957 0.0
C910 C 0.70936 0.22996 0.19562 0.0
C911 C 0.68293 0.26692 0.18163 0.0
C912 C 0.73418 0.26642 0.17946 0.0
C913 C 0.68361 0.24241 0.19158 0.0
C914 C 0.72771 0.41033 0.1498 0.0
C915 C 0.70683 0.30504 0.16507 0.0
H916 H 0.65186 0.48446 1.046 0.0
H917 H 0.6758 0.47403 0.09907 0.0
H918 H 0.68207 0.49732 0.07055 0.0
H919 H 0.62437 0.41093 0.07484 0.0
H920 H 0.70939 0.21073 0.20321 0.0
H921 H 0.66264 0.27625 0.17868 0.0
H922 H 0.75373 0.27543 0.17458 0.0
H923 H 0.6641 0.23296 0.19612 0.0
Eu924 Eu 0.33721 0.90958 0.38383 0.0
C925 C 0.4486 0.95765 0.36465 0.0
N926 N 0.43941 0.93566 0.37475 0.0
C927 C 0.47536 0.906 0.36203 0.0
C928 C 0.47032 0.95382 0.35206 0.0
C929 C 0.45425 0.91094 0.37453 0.0
C930 C 0.483 0.92732 0.35046 0.0
C931 C 0.44665 0.00758 0.35723 0.0
C932 C 0.43706 0.98448 0.36724 0.0
C933 C 0.46773 0.00348 0.34447 0.0
C934 C 0.47944 0.97669 0.34186 0.0
Eu935 Eu 0.40443 0.94758 0.39622 0.0
N936 N 0.41549 0.98768 0.37904 0.0
C937 C 0.43446 0.03412 0.36016 0.0
C938 C 0.40375 0.01356 0.38199 0.0
C939 C 0.41295 0.03704 0.37262 0.0
H940 H 0.4516 0.89555 0.3846 0.0
H941 H 0.40353 0.05736 0.37519 0.0
H942 H 0.28652 0.96163 0.38318 0.0
H943 H 0.32924 0.8047 0.41207 0.0
H944 H 0.38819 0.01633 0.39214 0.0
H945 H 0.44134 0.05239 0.35281 0.0
H946 H 0.34983 0.84238 0.39372 0.0
H947 H 0.48649 0.88606 0.36178 0.0
H948 H 0.47517 0.02092 0.33658 0.0
H949 H 0.49595 0.97397 0.3321 0.0
H950 H 0.24344 0.97405 0.39925 0.0
H951 H 0.49974 0.92357 0.34098 0.0
H952 H 0.28621 0.81416 0.42969 0.0
N953 N 0.29404 0.92376 0.39757 0.0
C954 C 0.28248 0.9047 0.40885 0.0
C955 C 0.25446 0.95471 0.40231 0.0
C956 C 0.25689 0.91052 0.41775 0.0
C957 C 0.27948 0.94779 0.39349 0.0
C958 C 0.24336 0.93623 0.41471 0.0
N959 N 0.31935 0.87294 0.40143 0.0
C960 C 0.33128 0.84676 0.40155 0.0
C961 C 0.2826 0.85746 0.42109 0.0
C962 C 0.29513 0.87838 0.41052 0.0
C963 C 0.29526 0.83081 0.42176 0.0
C964 C 0.31958 0.82538 0.41185 0.0
H965 H 0.22371 0.94147 0.42131 0.0
H966 H 0.22542 0.89432 0.43581 0.0
H967 H 0.2479 0.84788 0.43871 0.0
O968 O 0.33807 0.88769 0.35843 0.0
O969 O 0.34848 0.90181 0.41328 0.0
O970 O 0.37389 0.94079 0.42125 0.0
O971 O 0.2984 0.89403 0.37228 0.0
O972 O 0.37825 0.88172 0.3797 0.0
O973 O 0.40839 0.89921 0.40039 0.0
O974 O 0.42479 0.98253 0.40986 0.0
O975 O 0.38864 0.9587 0.3667 0.0
O976 O 0.34378 0.94263 0.36182 0.0
O977 O 0.4431 0.94107 0.41147 0.0
O978 O 0.36593 0.96835 0.4071 0.0
O979 O 0.33538 0.95801 0.3852 0.0
C980 C 0.35573 0.92013 0.42568 0.0
C981 C 0.29763 0.89969 0.34187 0.0
C982 C 0.27976 0.89223 0.31243 0.0
C983 C 0.26807 0.91939 0.31252 0.0
C984 C 0.2854 0.92675 0.3421 0.0
C985 C 0.27133 0.93679 0.32727 0.0
C986 C 0.29535 0.883 0.32693 0.0
C987 C 0.40067 0.87816 0.38998 0.0
C988 C 0.31052 0.88739 0.35752 0.0
C989 C 0.24496 0.89011 0.42882 0.0
C990 C 0.25772 0.86363 0.43043 0.0
C991 C 0.36593 0.95705 0.35619 0.0
C992 C 0.45653 0.97542 0.43287 0.0
C993 C 0.49052 0.00316 0.44974 0.0
C994 C 0.47865 0.99217 0.46527 0.0
C995 C 0.44479 0.96491 0.4484 0.0
C996 C 0.47892 0.99475 0.43358 0.0
C997 C 0.45587 0.97336 0.46456 0.0
C998 C 0.34454 0.97527 0.39744 0.0
C999 C 0.44558 0.96763 0.41561 0.0
H1000 H 0.25543 0.92652 0.3016 0.0
H1001 H 0.28679 0.94009 0.35364 0.0
H1002 H 0.26206 0.95765 0.32747 0.0
H1003 H 0.30352 0.86162 0.32726 0.0
H1004 H 0.48728 0.99756 0.47799 0.0
H1005 H 0.42719 0.9503 0.44799 0.0
H1006 H 0.48717 0.0033 0.42143 0.0
H1007 H 0.44697 0.96509 0.47659 0.0
Eu1008 Eu 0.19834 0.34871 0.47002 0.0
C1009 C 0.15978 0.47552 0.464 0.0
N1010 N 0.17657 0.46159 0.47547 0.0
C1011 C 0.20835 0.50121 0.47626 0.0
C1012 C 0.16709 0.50263 0.45785 0.0
C1013 C 0.20006 0.4746 0.48216 0.0
C1014 C 0.192 0.51516 0.46388 0.0
C1015 C 0.11545 0.478 0.44826 0.0
C1016 C 0.13429 0.46342 0.45924 0.0
C1017 C 0.12316 0.50445 0.44156 0.0
C1018 C 0.14894 0.51673 0.44633 0.0
Eu1019 Eu 0.16158 0.41529 0.48351 0.0
N1020 N 0.12738 0.43781 0.46594 0.0
C1021 C 0.08913 0.46585 0.44469 0.0
C1022 C 0.10121 0.4265 0.46323 0.0
C1023 C 0.08186 0.44015 0.45238 0.0
H1024 H 0.21287 0.46455 0.49197 0.0
H1025 H 0.06137 0.43085 0.44995 0.0
H1026 H 0.15115 0.3062 0.49012 0.0
H1027 H 0.31021 0.36458 0.48496 0.0
H1028 H 0.09558 0.40659 0.46911 0.0
H1029 H 0.07408 0.4764 0.43632 0.0
H1030 H 0.26714 0.36857 0.46741 0.0
H1031 H 0.22728 0.51102 0.48137 0.0
H1032 H 0.10906 0.51588 0.43299 0.0
H1033 H 0.15431 0.53745 0.44139 0.0
H1034 H 0.14936 0.27148 0.51379 0.0
H1035 H 0.19835 0.53591 0.45945 0.0
H1036 H 0.31256 0.32986 0.50896 0.0
N1037 N 0.19413 0.31671 0.49386 0.0
C1038 C 0.21871 0.30917 0.50191 0.0
C1039 C 0.16889 0.28239 0.51087 0.0
C1040 C 0.21886 0.28894 0.51542 0.0
C1041 C 0.16969 0.30285 0.49775 0.0
C1042 C 0.19352 0.27558 0.51987 0.0
N1043 N 0.24272 0.34229 0.48401 0.0
C1044 C 0.26682 0.35576 0.47895 0.0
C1045 C 0.26881 0.31732 0.50624 0.0
C1046 C 0.24357 0.32274 0.49707 0.0
C1047 C 0.29295 0.33284 0.50194 0.0
C1048 C 0.2918 0.35234 0.48835 0.0
H1049 H 0.1928 0.25974 0.53006 0.0
H1050 H 0.24465 0.2674 0.53456 0.0
H1051 H 0.28823 0.29269 0.52679 0.0
O1052 O 0.22967 0.32667 0.45384 0.0
O1053 O 0.20261 0.36217 0.50076 0.0
O1054 O 0.20135 0.40972 0.50115 0.0
O1055 O 0.18788 0.30935 0.45629 0.0
O1056 O 0.21981 0.38679 0.45858 0.0
O1057 O 0.20967 0.41799 0.48038 0.0
O1058 O 0.14535 0.40662 0.50988 0.0
O1059 O 0.15373 0.40731 0.45362 0.0
O1060 O 0.19063 0.37908 0.44524 0.0
O1061 O 0.14073 0.44829 0.49857 0.0
O1062 O 0.1312 0.37535 0.48527 0.0
O1063 O 0.15002 0.34148 0.46706 0.0
C1064 C 0.2095 0.38631 0.50897 0.0
C1065 C 0.22641 0.27741 0.45408 0.0
C1066 C 0.26113 0.24136 0.44657 0.0
C1067 C 0.25541 0.22786 0.46256 0.0
C1068 C 0.21955 0.26233 0.46931 0.0
C1069 C 0.23448 0.23814 0.47375 0.0
C1070 C 0.2469 0.26648 0.44249 0.0
C1071 C 0.22583 0.40969 0.46735 0.0
C1072 C 0.21356 0.30513 0.45064 0.0
C1073 C 0.24417 0.28284 0.52414 0.0
C1074 C 0.26901 0.29719 0.51968 0.0
C1075 C 0.171 0.39838 0.44106 0.0
C1076 C 0.15057 0.44654 0.5285 0.0
C1077 C 0.14111 0.4717 0.55568 0.0
C1078 C 0.16904 0.48137 0.55617 0.0
C1079 C 0.17836 0.45681 0.52883 0.0
C1080 C 0.13235 0.45333 0.54224 0.0
C1081 C 0.18783 0.47336 0.54288 0.0
C1082 C 0.12833 0.35116 0.47632 0.0
C1083 C 0.13892 0.4331 0.5127 0.0
H1084 H 0.2661 0.20849 0.46595 0.0
H1085 H 0.20266 0.26907 0.4778 0.0
H1086 H 0.22939 0.227 0.48572 0.0
H1087 H 0.25157 0.27728 0.43031 0.0
H1088 H 0.17573 0.49625 0.56617 0.0
H1089 H 0.19226 0.45323 0.51788 0.0
H1090 H 0.11036 0.44698 0.54141 0.0
H1091 H 0.20923 0.4814 0.54289 0.0
Eu1092 Eu 0.90485 0.94749 0.22079 0.0
C1093 C 0.77559 0.90745 0.21543 0.0
N1094 N 0.78976 0.9254 0.22623 0.0
C1095 C 0.74916 0.95561 0.22797 0.0
C1096 C 0.74753 0.91309 0.21038 0.0
C1097 C 0.77672 0.94889 0.23288 0.0
C1098 C 0.73454 0.93774 0.21657 0.0
C1099 C 0.77442 0.86326 0.19922 0.0
C1100 C 0.78892 0.88289 0.20983 0.0
C1101 C 0.74646 0.86878 0.19425 0.0
C1102 C 0.73316 0.89375 0.19964 0.0
Eu1103 Eu 0.83705 0.91313 0.23287 0.0
N1104 N 0.8161 0.8782 0.21478 0.0
C1105 C 0.78835 0.83851 0.19407 0.0
C1106 C 0.82957 0.85378 0.21015 0.0
C1107 C 0.81601 0.83374 0.19959 0.0
H1108 H 0.78745 0.96261 0.24201 0.0
H1109 H 0.82687 0.81457 0.19576 0.0
H1110 H 0.95525 0.89676 0.22757 0.0
H1111 H 0.8927 0.05009 0.2534 0.0
H1112 H 0.85086 0.84983 0.2144 0.0
H1113 H 0.77787 0.82285 0.186 0.0
H1114 H 0.88204 0.01308 0.23187 0.0
H1115 H 0.73913 0.97448 0.23308 0.0
H1116 H 0.73478 0.85371 0.18645 0.0
H1117 H 0.71157 0.89765 0.19569 0.0
H1118 H 0.99308 0.88685 0.24822 0.0
H1119 H 0.71308 0.94288 0.2129 0.0
H1120 H 0.933 0.04439 0.27353 0.0
N1121 N 0.94197 0.93474 0.24017 0.0
C1122 C 0.94983 0.95535 0.25184 0.0
C1123 C 0.98066 0.90589 0.24968 0.0
C1124 C 0.97265 0.95112 0.26343 0.0
C1125 C 0.95823 0.91109 0.23832 0.0
C1126 C 0.98764 0.92578 0.26247 0.0
N1127 N 0.91303 0.98474 0.24111 0.0
C1128 C 0.89846 0.00956 0.24115 0.0
C1129 C 0.94311 1.00244 0.26418 0.0
C1130 C 0.93543 0.98109 0.25209 0.0
C1131 C 0.92763 0.02754 0.26453 0.0
C1132 C 0.90504 0.03096 0.25309 0.0
H1133 H 0.00529 0.9218 0.27111 0.0
H1134 H 0.99769 0.96942 0.28436 0.0
H1135 H 0.97165 0.01417 0.28514 0.0
O1136 O 0.92351 0.98544 0.2098 0.0
O1137 O 0.88949 0.94988 0.2514 0.0
O1138 O 0.8421 0.95276 0.25034 0.0
O1139 O 0.94445 0.94544 0.20579 0.0
O1140 O 0.86829 0.96986 0.2089 0.0
O1141 O 0.83466 0.9614 0.22952 0.0
O1142 O 0.84644 0.89616 0.25885 0.0
O1143 O 0.83906 0.91127 0.20263 0.0
O1144 O 0.8787 0.93624 0.19429 0.0
O1145 O 0.80397 0.89345 0.24825 0.0
O1146 O 0.87701 0.88227 0.23424 0.0
O1147 O 0.90987 0.90007 0.21529 0.0
C1148 C 0.86531 0.95849 0.25907 0.0
C1149 C 0.95544 0.98284 0.18627 0.0
C1150 C 0.99076 0.01021 0.17035 0.0
C1151 C 0.97594 0.00483 0.15469 0.0
C1152 C 0.9408 0.97775 0.17065 0.0
C1153 C 0.95107 0.98882 0.1549 0.0
C1154 C 0.97998 0.9993 0.18612 0.0
C1155 C 0.84538 0.97739 0.2171 0.0
C1156 C 0.94525 0.97255 0.20318 0.0
C1157 C 0.98027 0.97244 0.27539 0.0
C1158 C 0.96556 0.99799 0.27577 0.0
C1159 C 0.85465 0.92234 0.19003 0.0
C1160 C 0.80762 0.90105 0.27842 0.0
C1161 C 0.78734 0.8896 0.3068 0.0
C1162 C 0.77637 0.917 0.30829 0.0
C1163 C 0.79632 0.92833 0.27985 0.0
C1164 C 0.8036 0.88213 0.29204 0.0
C1165 C 0.78132 0.93647 0.29492 0.0
C1166 C 0.90079 0.87885 0.22487 0.0
C1167 C 0.81986 0.89042 0.26197 0.0
H1168 H 0.98382 0.01242 0.14222 0.0
H1169 H 0.92155 0.9654 0.17067 0.0
H1170 H 0.93988 0.98478 0.14278 0.0
H1171 H 0.99059 0.00371 0.19843 0.0
H1172 H 0.76314 0.92286 0.31936 0.0
H1173 H 0.79816 0.9429 0.26912 0.0
H1174 H 0.81096 0.8606 0.29032 0.0
H1175 H 0.77242 0.95746 0.29584 0.0
Eu1176 Eu 0.30611 0.6552 0.97115 0.0
C1177 C 0.34902 0.52598 0.96655 0.0
N1178 N 0.33066 0.54025 0.97708 0.0
C1179 C 0.30038 0.49964 0.97818 0.0
C1180 C 0.34334 0.49808 0.96102 0.0
C1181 C 0.30707 0.52714 0.98345 0.0
C1182 C 0.31841 0.48515 0.96673 0.0
C1183 C 0.39396 0.52461 0.95119 0.0
C1184 C 0.37397 0.53905 0.96171 0.0
C1185 C 0.38811 0.4971 0.9453 0.0
C1186 C 0.36282 0.48389 0.95017 0.0
Eu1187 Eu 0.34176 0.58811 0.98345 0.0
N1188 N 0.37856 0.56604 0.96711 0.0
C1189 C 0.41911 0.53838 0.94676 0.0
C1190 C 0.40349 0.57923 0.96326 0.0
C1191 C 0.42399 0.56571 0.95296 0.0
H1192 H 0.29324 0.53779 0.99263 0.0
H1193 H 0.4435 0.57644 0.94975 0.0
H1194 H 0.35841 0.69088 0.99338 0.0
H1195 H 0.19232 0.65638 0.9837 0.0
H1196 H 0.40763 0.60033 0.96785 0.0
H1197 H 0.43495 0.52805 0.93867 0.0
H1198 H 0.23628 0.64289 0.96851 0.0
H1199 H 0.28136 0.48959 0.98301 0.0
H1200 H 0.40305 0.48583 0.93704 0.0
H1201 H 0.35869 0.46256 0.94566 0.0
H1202 H 0.36322 0.72329 1.01794 0.0
H1203 H 0.31321 0.46381 0.9627 0.0
H1204 H 0.194 0.68797 1.00958 0.0
N1205 N 0.3142 0.6848 0.99627 0.0
C1206 C 0.29048 0.69402 1.00492 0.0
C1207 C 0.34267 0.71484 1.01463 0.0
C1208 C 0.29234 0.71314 1.01918 0.0
C1209 C 0.33989 0.69574 1.0007 0.0
C1210 C 0.31886 0.7234 1.02401 0.0
N1211 N 0.26287 0.66538 0.98585 0.0
C1212 C 0.23743 0.65568 0.98012 0.0
C1213 C 0.23946 0.6925 1.0086 0.0
C1214 C 0.26417 0.68405 0.99954 0.0
C1215 C 0.21344 0.68188 1.00302 0.0
C1216 C 0.21242 0.6637 0.98858 0.0
H1217 H 0.32114 0.73827 1.03478 0.0
H1218 H 0.26888 0.73623 1.03907 0.0
H1219 H 0.22266 0.71791 1.02997 0.0
O1220 O 0.27568 0.67643 0.95427 0.0
O1221 O 0.29863 0.63943 1.00119 0.0
O1222 O 0.30217 0.59178 1.00146 0.0
O1223 O 0.3157 0.69617 0.95942 0.0
O1224 O 0.28397 0.61814 0.95947 0.0
O1225 O 0.29368 0.58433 0.97961 0.0
O1226 O 0.35672 0.60209 1.00916 0.0
O1227 O 0.34635 0.59109 0.95337 0.0
O1228 O 0.31587 0.62653 0.94533 0.0
O1229 O 0.36188 0.55811 1.00055 0.0
O1230 O 0.37304 0.62753 0.98352 0.0
O1231 O 0.35342 0.66173 0.96646 0.0
C1232 C 0.29326 0.61501 1.0094 0.0
C1233 C 0.27584 0.72574 0.95568 0.0
C1234 C 0.24263 0.76146 0.94608 0.0
C1235 C 0.24325 0.77376 0.96288 0.0
C1236 C 0.27782 0.73961 0.97196 0.0
C1237 C 0.26098 0.76296 0.97572 0.0
C1238 C 0.25853 0.73708 0.94257 0.0
C1239 C 0.27695 0.59526 0.96775 0.0
C1240 C 0.29081 0.69903 0.95245 0.0
C1241 C 0.26775 0.72164 1.02809 0.0
C1242 C 0.24142 0.71126 1.02287 0.0
C1243 C 0.33237 0.60429 0.94091 0.0
C1244 C 0.3512 0.56594 1.03042 0.0
C1245 C 0.36825 0.55712 0.05961 0.0
C1246 C 0.34936 0.53406 0.06098 0.0
C1247 C 0.33331 0.54237 1.0314 0.0
C1248 C 0.36414 0.5758 1.04559 0.0
C1249 C 0.33109 0.52756 1.04713 0.0
C1250 C 0.37559 0.65158 0.97459 0.0
C1251 C 0.36252 0.57606 1.01362 0.0
H1252 H 0.23122 0.7927 0.96573 0.0
H1253 H 0.29263 0.73271 0.98167 0.0
H1254 H 0.26228 0.77319 0.98844 0.0
H1255 H 0.25784 0.72735 0.92966 0.0
H1256 H 0.35018 0.51943 0.07177 0.0
H1257 H 0.32228 0.53465 1.01994 0.0
H1258 H 0.3756 0.59546 1.04482 0.0
H1259 H 0.31754 0.50921 1.04791 0.0
Eu1260 Eu 0.59944 0.05833 0.7209 0.0
C1261 C 0.72815 0.09712 0.71426 0.0
N1262 N 0.71436 0.07882 0.72497 0.0
C1263 C 0.75427 0.04764 0.72431 0.0
C1264 C 0.75542 0.09096 0.70777 0.0
C1265 C 0.72734 0.05475 0.73052 0.0
C1266 C 0.76826 0.06567 0.71274 0.0
C1267 C 0.72869 0.14178 0.69886 0.0
C1268 C 0.71496 0.12224 0.70988 0.0
C1269 C 0.75572 0.13556 0.6922 0.0
C1270 C 0.76901 0.1102 0.69662 0.0
Eu1271 Eu 0.66775 0.09135 0.73338 0.0
N1272 N 0.68808 0.12686 0.71563 0.0
C1273 C 0.71451 0.16664 0.69448 0.0
C1274 C 0.67449 0.15144 0.71184 0.0
C1275 C 0.68739 0.17157 0.70111 0.0
H1276 H 0.7171 0.04099 0.73983 0.0
H1277 H 0.67635 0.19082 0.69789 0.0
H1278 H 0.54846 0.10945 0.72488 0.0
H1279 H 0.60831 0.95796 0.75555 0.0
H1280 H 0.65354 0.15539 0.71686 0.0
H1281 H 0.72429 0.18212 0.68599 0.0
H1282 H 0.62043 0.99321 0.7332 0.0
H1283 H 0.76426 0.02832 0.72853 0.0
H1284 H 0.76646 0.15015 0.68354 0.0
H1285 H 0.78988 0.10573 0.69141 0.0
H1286 H 0.50908 0.12101 0.74445 0.0
H1287 H 0.78912 0.06009 0.70796 0.0
H1288 H 0.56763 0.96608 0.77532 0.0
N1289 N 0.56094 0.07276 0.73896 0.0
C1290 C 0.55242 0.05326 0.75106 0.0
C1291 C 0.52148 0.10222 0.74673 0.0
C1292 C 0.52886 0.05852 0.76207 0.0
C1293 C 0.54466 0.09604 0.73598 0.0
C1294 C 0.51381 0.08364 0.76001 0.0
N1295 N 0.58958 0.02267 0.74169 0.0
C1296 C 0.60365 0.99758 0.74229 0.0
C1297 C 0.55823 0.00725 0.76475 0.0
C1298 C 0.56666 0.02748 0.75224 0.0
C1299 C 0.57345 0.98205 0.7659 0.0
C1300 C 0.59633 0.97729 0.75469 0.0
H1301 H 0.49561 0.08837 0.76818 0.0
H1302 H 0.50257 0.04219 0.78305 0.0
H1303 H 0.52848 0.99758 0.78554 0.0
O1304 O 0.58126 0.01995 0.70994 0.0
O1305 O 0.61411 0.05583 0.75174 0.0
O1306 O 0.66163 0.05272 0.75125 0.0
O1307 O 0.56056 0.05979 0.7054 0.0
O1308 O 0.63614 0.03558 0.70906 0.0
O1309 O 0.66843 0.0429 0.73046 0.0
O1310 O 0.65975 0.11359 0.75805 0.0
O1311 O 0.66522 0.09396 0.70309 0.0
O1312 O 0.62582 0.06903 0.69439 0.0
O1313 O 0.70289 0.10625 0.74913 0.0
O1314 O 0.62733 0.12139 0.73635 0.0
O1315 O 0.59604 0.10591 0.71583 0.0
C1316 C 0.63801 0.04745 0.75976 0.0
C1317 C 0.55062 0.02181 0.6859 0.0
C1318 C 0.51603 0.99441 0.66937 0.0
C1319 C 0.53248 0.99825 0.65412 0.0
C1320 C 0.56684 0.02542 0.67067 0.0
C1321 C 0.55771 0.01363 0.65482 0.0
C1322 C 0.52552 0.00622 0.68525 0.0
C1323 C 0.65835 0.02746 0.71754 0.0
C1324 C 0.55984 0.0326 0.70294 0.0
C1325 C 0.52054 0.03836 0.7745 0.0
C1326 C 0.53519 0.01287 0.77586 0.0
C1327 C 0.64987 0.08299 0.69029 0.0
C1328 C 0.69461 0.10606 0.77954 0.0
C1329 C 0.70352 0.12057 0.80969 0.0
C1330 C 0.71282 0.09316 0.81355 0.0
C1331 C 0.70421 0.0788 0.78336 0.0
C1332 C 0.69414 0.12649 0.79263 0.0
C1333 C 0.71288 0.0723 0.80042 0.0
C1334 C 0.60451 0.12609 0.72648 0.0
C1335 C 0.68661 0.11481 0.76187 0.0
H1336 H 0.52564 0.98982 0.6416 0.0
H1337 H 0.58649 0.03712 0.67108 0.0
H1338 H 0.57018 0.01648 0.64301 0.0
H1339 H 0.51356 0.00298 0.69725 0.0
H1340 H 0.72069 0.08815 0.82648 0.0
H1341 H 0.7055 0.06286 0.77316 0.0
H1342 H 0.6881 0.14775 0.78905 0.0
H1343 H 0.72041 0.0513 0.80334 0.0
H1344 H 0.3807 0.21091 0.13167 0.0
H1345 H 0.42112 0.24185 0.1325 0.0
H1346 H 0.47469 0.1711 0.14368 0.0
H1347 H 0.43287 0.13983 0.14393 0.0
H1348 H 0.49997 0.21108 0.15945 0.0
H1349 H 0.46862 0.2156 0.10017 0.0
H1350 H 0.43543 0.22252 0.07571 0.0
H1351 H 0.42027 0.30762 0.09294 0.0
H1352 H 0.45311 0.3011 0.11763 0.0
H1353 H 0.62752 0.29198 0.14434 0.0
H1354 H 0.58741 0.25991 0.14318 0.0
H1355 H 0.53171 0.33 0.13446 0.0
H1356 H 0.57259 0.36244 0.13499 0.0
H1357 H 0.50823 0.28974 0.11726 0.0
H1358 H 0.54086 0.2836 0.17703 0.0
H1359 H 0.57687 0.27597 0.19983 0.0
H1360 H 0.59199 0.19239 0.17987 0.0
H1361 H 0.55629 0.19964 0.15684 0.0
C1362 C 0.4006 0.20138 0.13466 0.0
C1363 C 0.40184 0.1719 0.13803 0.0
C1364 C 0.42474 0.21964 0.1347 0.0
C1365 C 0.45267 0.20998 0.13774 0.0
C1366 C 0.45424 0.18037 0.14114 0.0
C1367 C 0.42978 0.16197 0.14118 0.0
C1368 C 0.47927 0.23057 0.13758 0.0
C1369 C 0.50152 0.22792 0.14994 0.0
C1370 C 0.48287 0.25375 0.12564 0.0
C1371 C 0.46308 0.25775 0.11086 0.0
C1372 C 0.45806 0.23572 0.09881 0.0
C1373 C 0.43933 0.23959 0.0849 0.0
C1374 C 0.42568 0.26546 0.08281 0.0
C1375 C 0.4308 0.28757 0.09459 0.0
C1376 C 0.44949 0.28381 0.10854 0.0
C1377 C 0.60686 0.30109 0.14225 0.0
C1378 C 0.60445 0.33081 0.13997 0.0
C1379 C 0.58319 0.2822 0.14177 0.0
C1380 C 0.55491 0.29141 0.13927 0.0
C1381 C 0.55244 0.32114 0.13663 0.0
C1382 C 0.57632 0.34018 0.137 0.0
C1383 C 0.5287 0.27039 0.13921 0.0
C1384 C 0.50656 0.27296 0.1268 0.0
C1385 C 0.52536 0.24698 0.15097 0.0
C1386 C 0.54607 0.24225 0.16515 0.0
C1387 C 0.55189 0.26361 0.17751 0.0
C1388 C 0.57227 0.25936 0.19045 0.0
C1389 C 0.58676 0.23374 0.19127 0.0
C1390 C 0.58077 0.21224 0.17921 0.0
C1391 C 0.56044 0.21638 0.16623 0.0
H1392 H 0.6026 0.23053 0.20125 0.0
H1393 H 0.41119 0.26841 0.07203 0.0
H1394 H 0.59875 0.6703 0.36538 0.0
H1395 H 0.56564 0.70995 0.36363 0.0
H1396 H 0.5299 0.68671 0.41354 0.0
H1397 H 0.5618 0.64616 0.41464 0.0
H1398 H 0.48859 0.70693 0.40028 0.0
H1399 H 0.57929 0.75414 0.39877 0.0
H1400 H 0.62701 0.764 0.38717 0.0
H1401 H 0.5919 0.78407 0.33691 0.0
H1402 H 0.54401 0.77406 0.34817 0.0
H1403 H 0.42755 0.84902 0.41714 0.0
H1404 H 0.45992 0.80833 0.41627 0.0
H1405 H 0.45314 0.80512 0.36009 0.0
H1406 H 0.41945 0.84497 0.36103 0.0
H1407 H 0.5151 0.79945 0.37531 0.0
H1408 H 0.4248 0.75566 0.37732 0.0
H1409 H 0.37687 0.74672 0.38871 0.0
H1410 H 0.41141 0.72073 0.43804 0.0
H1411 H 0.4596 0.73012 0.42706 0.0
C1412 C 0.58418 0.67364 0.37618 0.0
C1413 C 0.58412 0.65419 0.39031 0.0
C1414 C 0.56483 0.69709 0.37528 0.0
C1415 C 0.54447 0.70341 0.38868 0.0
C1416 C 0.54459 0.68379 0.40276 0.0
C1417 C 0.56351 0.66012 0.4035 0.0
C1418 C 0.5231 0.72935 0.38813 0.0
C1419 C 0.49512 0.72708 0.39501 0.0
C1420 C 0.52949 0.75665 0.38095 0.0
C1421 C 0.55814 0.76311 0.37427 0.0
C1422 C 0.58178 0.76059 0.38524 0.0
C1423 C 0.60885 0.76619 0.37872 0.0
C1424 C 0.61249 0.77458 0.3613 0.0
C1425 C 0.58906 0.77753 0.35039 0.0
C1426 C 0.56195 0.77192 0.35683 0.0
C1427 C 0.43241 0.83956 0.40451 0.0
C1428 C 0.41964 0.85089 0.38921 0.0
C1429 C 0.45145 0.81594 0.404 0.0
C1430 C 0.46005 0.8026 0.38809 0.0
C1431 C 0.44765 0.81416 0.37273 0.0
C1432 C 0.42778 0.83722 0.37329 0.0
C1433 C 0.48121 0.77682 0.38767 0.0
C1434 C 0.50893 0.77922 0.38066 0.0
C1435 C 0.47466 0.74972 0.39476 0.0
C1436 C 0.4458 0.74398 0.40145 0.0
C1437 C 0.42218 0.74838 0.39068 0.0
C1438 C 0.39496 0.74317 0.39704 0.0
C1439 C 0.39109 0.73326 0.41412 0.0
C1440 C 0.41445 0.72848 0.42484 0.0
C1441 C 0.44173 0.73376 0.41855 0.0
H1442 H 0.36999 0.7292 0.41902 0.0
H1443 H 0.63346 0.77886 0.35627 0.0
H1444 H 0.07916 0.85946 0.61969 0.0
H1445 H 0.03807 0.82774 0.61859 0.0
H1446 H 0.07713 0.77359 0.65646 0.0
H1447 H 0.1182 0.80479 0.65727 0.0
H1448 H 0.05106 0.73877 0.63727 0.0
H1449 H 0.01107 0.82611 0.66154 0.0
H1450 H 1.00049 0.87703 0.65996 0.0
H1451 H 0.95653 0.86387 0.61141 0.0
H1452 H 0.96711 0.81296 0.61262 0.0
H1453 H 0.92965 0.64733 0.6511 0.0
H1454 H 0.97012 0.6792 0.65177 0.0
H1455 H 0.92071 0.74313 0.62624 0.0
H1456 H 0.87945 0.7121 0.62756 0.0
H1457 H 0.9528 0.77387 0.63819 0.0
H1458 H 0.992 0.69168 0.61028 0.0
H1459 H 0.00516 0.6416 0.60647 0.0
H1460 H 0.0519 0.64455 0.65461 0.0
H1461 H 0.03893 0.69459 0.65873 0.0
C1462 C 0.07918 0.84107 0.62802 0.0
C1463 C 0.10308 0.8359 0.63879 0.0
C1464 C 0.05497 0.82246 0.62747 0.0
C1465 C 0.05269 0.79738 0.63776 0.0
C1466 C 0.07684 0.79216 0.64827 0.0
C1467 C 0.10092 0.81062 0.64879 0.0
C1468 C 0.02617 0.77665 0.63767 0.0
C1469 C 0.02966 0.74683 0.6377 0.0
C1470 C 0.99719 0.78546 0.63746 0.0
C1471 C 0.99001 0.81581 0.63713 0.0
C1472 C 0.99914 0.83411 0.65055 0.0
C1473 C 0.99318 0.86296 0.6497 0.0
C1474 C 0.97789 0.87368 0.63558 0.0
C1475 C 0.96838 0.85555 0.62233 0.0
C1476 C 0.97432 0.8267 0.6231 0.0
C1477 C 0.92721 0.66811 0.64549 0.0
C1478 C 0.90027 0.67615 0.63911 0.0
C1479 C 0.95122 0.68684 0.64555 0.0
C1480 C 0.95075 0.71469 0.63835 0.0
C1481 C 0.92355 0.72252 0.63197 0.0
C1482 C 0.89926 0.7042 0.63259 0.0
C1483 C 0.97741 0.73553 0.6378 0.0
C1484 C 0.97403 0.76547 0.63773 0.0
C1485 C 0.00656 0.7268 0.63726 0.0
C1486 C 0.01424 0.69675 0.6349 0.0
C1487 C 0.00499 0.68158 0.62008 0.0
C1488 C 0.01242 0.65323 0.61786 0.0
C1489 C 0.02927 0.63988 0.63032 0.0
C1490 C 0.03881 0.65489 0.64499 0.0
C1491 C 0.03145 0.68326 0.64727 0.0
H1492 H 0.035 0.61794 0.62857 0.0
H1493 H 0.97338 0.89603 0.63492 0.0
H1494 H 0.10348 0.17744 0.87054 0.0
H1495 H 0.07037 0.21779 0.8692 0.0
H1496 H 0.02005 0.18096 0.91011 0.0
H1497 H 0.05361 0.14187 0.91224 0.0
H1498 H 0.98515 0.20385 0.87908 0.0
H1499 H 0.05538 0.23441 0.92099 0.0
H1500 H 0.10446 0.24398 0.92988 0.0
H1501 H 0.11304 0.30417 0.8883 0.0
H1502 H 0.06408 0.29458 0.87897 0.0
H1503 H 0.89172 0.32349 0.90439 0.0
H1504 H 0.92411 0.28242 0.90383 0.0
H1505 H 0.98101 0.3278 0.8702 0.0
H1506 H 0.94734 0.36689 0.86912 0.0
H1507 H 0.01328 0.30068 0.89653 0.0
H1508 H 0.94806 0.27422 0.85404 0.0
H1509 H 0.90248 0.26409 0.83991 0.0
H1510 H 0.88738 0.19681 0.87624 0.0
H1511 H 0.93271 0.20694 0.89088 0.0
C1512 C 0.08564 0.17784 0.87947 0.0
C1513 C 0.08204 0.15517 0.89145 0.0
C1514 C 0.06619 0.20126 0.8786 0.0
C1515 C 0.04148 0.20327 0.88934 0.0
C1516 C 0.03809 0.18079 0.90133 0.0
C1517 C 0.05787 0.158 0.90259 0.0
C1518 C 0.01993 0.22866 0.88865 0.0
C1519 C 0.99145 0.22482 0.88325 0.0
C1520 C 0.02715 0.25705 0.89325 0.0
C1521 C 0.05616 0.26361 0.8992 0.0
C1522 C 0.06778 0.24958 0.91369 0.0
C1523 C 0.09557 0.25501 0.91881 0.0
C1524 C 0.11188 0.27464 0.90964 0.0
C1525 C 0.10037 0.28897 0.89538 0.0
C1526 C 0.07259 0.28356 0.89018 0.0
C1527 C 0.91081 0.32477 0.89657 0.0
C1528 C 0.91666 0.35012 0.88731 0.0
C1529 C 0.9299 0.30094 0.89639 0.0
C1530 C 0.95641 0.30116 0.88735 0.0
C1531 C 0.96173 0.3262 0.87783 0.0
C1532 C 0.94228 0.34936 0.87749 0.0
C1533 C 0.97811 0.27579 0.88746 0.0
C1534 C 0.00673 0.27967 0.89261 0.0
C1535 C 0.97119 0.24758 0.88216 0.0
C1536 C 0.94358 0.24169 0.87379 0.0
C1537 C 0.93483 0.25755 0.85922 0.0
C1538 C 0.90908 0.25175 0.85107 0.0
C1539 C 0.89197 0.22991 0.85723 0.0
C1540 C 0.90062 0.21381 0.87154 0.0
C1541 C 0.92634 0.21959 0.87979 0.0
H1542 H 0.87208 0.22538 0.85086 0.0
H1543 H 0.13341 0.27877 0.91361 0.0
H1544 H 0.56968 0.86431 0.97553 0.0
H1545 H 0.5291 0.83225 0.97541 0.0
H1546 H 0.58547 0.76107 0.97731 0.0
H1547 H 0.62579 0.79313 0.97601 0.0
H1548 H 0.54815 0.73759 0.96389 0.0
H1549 H 0.52992 0.79392 1.01389 0.0
H1550 H 0.52262 0.83625 1.03235 0.0
H1551 H 0.45222 0.86048 1.00049 0.0
H1552 H 0.45929 0.81839 0.98173 0.0
H1553 H 0.43056 0.64269 0.98924 0.0
H1554 H 0.4717 0.67484 0.9902 0.0
H1555 H 0.42418 0.7379 0.9629 0.0
H1556 H 0.38367 0.70592 0.96151 0.0
H1557 H 0.4562 0.76387 0.99039 0.0
H1558 H 0.47786 0.69825 0.9426 0.0
H1559 H 0.48493 0.64977 0.93146 0.0
H1560 H 0.55152 0.63723 0.96867 0.0
H1561 H 0.54454 0.6855 0.98021 0.0
C1562 C 0.57369 0.84185 0.97593 0.0
C1563 C 0.60209 0.83221 0.97577 0.0
C1564 C 0.54986 0.82291 0.97614 0.0
C1565 C 0.55255 0.79286 0.97687 0.0
C1566 C 0.58111 0.78344 0.97672 0.0
C1567 C 0.60485 0.8023 0.97607 0.0
C1568 C 0.52651 0.77155 0.9774 0.0
C1569 C 0.52843 0.74386 0.97 0.0
C1570 C 0.4995 0.77764 0.98529 0.0
C1571 C 0.49539 0.80323 0.99626 0.0
C1572 C 0.51304 0.80841 1.01073 0.0
C1573 C 0.50891 0.83233 1.02127 0.0
C1574 C 0.48704 0.8511 1.01755 0.0
C1575 C 0.46921 0.84595 1.00332 0.0
C1576 C 0.47325 0.82207 0.99273 0.0
C1577 C 0.42869 0.66325 0.98326 0.0
C1578 C 0.40279 0.67075 0.97514 0.0
C1579 C 0.45266 0.68205 0.98384 0.0
C1580 C 0.45218 0.70977 0.97662 0.0
C1581 C 0.42622 0.71725 0.96874 0.0
C1582 C 0.40259 0.69839 0.96786 0.0
C1583 C 0.47821 0.73061 0.97685 0.0
C1584 C 0.47614 0.75805 0.98433 0.0
C1585 C 0.50546 0.72379 0.96988 0.0
C1586 C 0.51061 0.69542 0.96231 0.0
C1587 C 0.49402 0.68514 0.9484 0.0
C1588 C 0.49796 0.65769 0.94204 0.0
C1589 C 0.51864 0.64042 0.94937 0.0
C1590 C 0.53552 0.65063 0.963 0.0
C1591 C 0.5316 0.67804 0.96944 0.0
H1592 H 0.5216 0.61914 0.94447 0.0
H1593 H 0.48386 0.86959 1.02573 0.0
H1594 H 0.59137 0.1662 0.70082 0.0
H1595 H 0.55915 0.20701 0.70186 0.0
H1596 H 0.53956 0.18889 0.75574 0.0
H1597 H 0.57309 0.14894 0.75497 0.0
H1598 H 0.48804 0.20359 0.73621 0.0
H1599 H 0.57662 0.24572 0.74736 0.0
H1600 H 0.62684 0.25723 0.74278 0.0
H1601 H 0.60717 0.29518 0.6933 0.0
H1602 H 0.55681 0.28342 0.69743 0.0
H1603 H 0.40456 0.33276 0.74933 0.0
H1604 H 0.43721 0.29248 0.7511 0.0
H1605 H 0.47973 0.32072 0.7044 0.0
H1606 H 0.44755 0.36102 0.70286 0.0
H1607 H 0.52002 0.30024 0.72179 0.0
H1608 H 0.43105 0.25543 0.71036 0.0
H1609 H 0.38064 0.2463 0.71627 0.0
H1610 H 0.40128 0.21415 0.76719 0.0
H1611 H 0.45176 0.22356 0.7617 0.0
C1612 C 0.58077 0.17103 0.7131 0.0
C1613 C 0.58617 0.15372 0.72789 0.0
C1614 C 0.5618 0.19474 0.71367 0.0
C1615 C 0.54585 0.20222 0.72888 0.0
C1616 C 0.55089 0.18463 0.74364 0.0
C1617 C 0.5707 0.1615 0.74325 0.0
C1618 C 0.52464 0.22806 0.72928 0.0
C1619 C 0.49545 0.22466 0.73321 0.0
C1620 C 0.53275 0.25641 0.72526 0.0
C1621 C 0.56298 0.26334 0.72259 0.0
C1622 C 0.58303 0.25622 0.73539 0.0
C1623 C 0.61152 0.26284 0.7329 0.0
C1624 C 0.62021 0.27684 0.71772 0.0
C1625 C 0.6004 0.28427 0.70502 0.0
C1626 C 0.57188 0.27762 0.70743 0.0
C1627 C 0.42055 0.33044 0.73923 0.0
C1628 C 0.42238 0.35119 0.72585 0.0
C1629 C 0.43969 0.30678 0.7402 0.0
C1630 C 0.46191 0.30186 0.72775 0.0
C1631 C 0.46357 0.32268 0.71443 0.0
C1632 C 0.44453 0.34622 0.71346 0.0
C1633 C 0.48314 0.27586 0.72842 0.0
C1634 C 0.51246 0.27919 0.72469 0.0
C1635 C 0.47514 0.24745 0.73265 0.0
C1636 C 0.4451 0.24046 0.73569 0.0
C1637 C 0.4248 0.24643 0.72282 0.0
C1638 C 0.39623 0.24127 0.72611 0.0
C1639 C 0.38774 0.22982 0.74212 0.0
C1640 C 0.40785 0.22315 0.75482 0.0
C1641 C 0.43646 0.22837 0.75163 0.0
H1642 H 0.36558 0.2262 0.74464 0.0
H1643 H 0.64227 0.282 0.71583 0.0
H1644 H 0.1076 0.31526 0.5032 0.0
H1645 H 0.06746 0.2822 0.50326 0.0
H1646 H 0.04272 0.31185 0.45246 0.0
H1647 H 0.08431 0.34337 0.45176 0.0
H1648 H 0.99318 0.30423 0.47922 0.0
H1649 H 0.07026 0.25065 0.45404 0.0
H1650 H 0.11788 0.22972 0.45409 0.0
H1651 H 0.09696 0.18259 0.50031 0.0
H1652 H 0.04938 0.20373 0.50077 0.0
H1653 H 0.8814 0.20471 0.46091 0.0
H1654 H 0.92195 0.23637 0.46121 0.0
H1655 H 0.96692 0.17835 0.494 0.0
H1656 H 0.92609 0.14596 0.4933 0.0
H1657 H 0.00715 0.20072 0.47761 0.0
H1658 H 0.93555 0.25186 0.50615 0.0
H1659 H 0.88935 0.27413 0.5118 0.0
H1660 H 0.90056 0.32689 0.46669 0.0
H1661 H 0.94665 0.30457 0.46057 0.0
C1662 C 0.09401 0.31484 0.49183 0.0
C1663 C 0.10052 0.3327 0.47736 0.0
C1664 C 0.07042 0.29556 0.49192 0.0
C1665 C 0.05079 0.29346 0.47787 0.0
C1666 C 0.05666 0.31207 0.46368 0.0
C1667 C 0.08091 0.33057 0.4633 0.0
C1668 C 0.02496 0.27206 0.47788 0.0
C1669 C 0.99655 0.28164 0.47853 0.0
C1670 C 0.02783 0.24193 0.47793 0.0
C1671 C 0.05633 0.22905 0.47756 0.0
C1672 C 0.07589 0.23607 0.46433 0.0
C1673 C 0.10288 0.22413 0.46425 0.0
C1674 C 0.11048 0.20491 0.47722 0.0
C1675 C 0.09107 0.19753 0.49029 0.0
C1676 C 0.06409 0.2095 0.49047 0.0
C1677 C 0.89972 0.19823 0.46831 0.0
C1678 C 0.89912 0.17174 0.47708 0.0
C1679 C 0.92353 0.21709 0.46865 0.0
C1680 C 0.94886 0.21138 0.478 0.0
C1681 C 0.94854 0.18463 0.4866 0.0
C1682 C 0.92456 0.16561 0.48624 0.0
C1683 C 0.97496 0.23279 0.47856 0.0
C1684 C 0.00352 0.22327 0.47813 0.0
C1685 C 0.97228 0.26304 0.47937 0.0
C1686 C 0.9444 0.27624 0.48275 0.0
C1687 C 0.92804 0.268 0.49731 0.0
C1688 C 0.90189 0.28067 0.50062 0.0
C1689 C 0.89198 0.30184 0.48957 0.0
C1690 C 0.90823 0.31041 0.4752 0.0
C1691 C 0.93437 0.29775 0.4718 0.0
H1692 H 0.87175 0.31165 0.49217 0.0
H1693 H 0.13137 0.19567 0.47713 0.0
H1694 H 0.11188 0.68225 0.23276 0.0
H1695 H 0.08018 0.72331 0.23286 0.0
H1696 H 0.01008 0.66922 0.2202 0.0
H1697 H 0.04188 0.62867 0.21934 0.0
H1698 H 0.9938 0.71191 0.20623 0.0
H1699 H 0.02821 0.7102 0.26493 0.0
H1700 H 0.06377 0.70948 0.28849 0.0
H1701 H 0.0971 0.78863 0.27071 0.0
H1702 H 0.0619 0.78967 0.24692 0.0
H1703 H 0.90217 0.83271 0.24905 0.0
H1704 H 0.93454 0.79172 0.25013 0.0
H1705 H 0.9761 0.82055 0.20335 0.0
H1706 H 0.94399 0.86101 0.20214 0.0
H1707 H 0.00451 0.79065 0.24874 0.0
H1708 H 0.97163 0.77793 0.18381 0.0
H1709 H 0.92958 0.77762 0.16472 0.0
H1710 H 0.88663 0.72309 0.20092 0.0
H1711 H 0.92834 0.7235 0.22029 0.0
C1712 C 0.08975 0.6788 0.22999 0.0
C1713 C 0.0804 0.65095 0.22606 0.0
C1714 C 0.07098 0.70285 0.23024 0.0
C1715 C 0.04129 0.70085 0.22694 0.0
C1716 C 0.0322 0.67295 0.22288 0.0
C1717 C 0.05092 0.64907 0.22245 0.0
C1718 C 0.02004 0.72697 0.22747 0.0
C1719 C 0.99682 0.72885 0.21565 0.0
C1720 C 0.02169 0.75019 0.2397 0.0
C1721 C 0.04263 0.74986 0.25405 0.0
C1722 C 0.04321 0.72739 0.26601 0.0
C1723 C 0.06329 0.72692 0.2794 0.0
C1724 C 0.08273 0.74895 0.28106 0.0
C1725 C 0.08205 0.77156 0.26938 0.0
C1726 C 0.06203 0.77211 0.25595 0.0
C1727 C 0.91792 0.83041 0.2388 0.0
C1728 C 0.91948 0.85123 0.22542 0.0
C1729 C 0.93697 0.80659 0.2395 0.0
C1730 C 0.95871 0.80181 0.2268 0.0
C1731 C 0.96002 0.82248 0.21343 0.0
C1732 C 0.94118 0.84617 0.21275 0.0
C1733 C 0.9795 0.77568 0.22715 0.0
C1734 C 0.00218 0.77372 0.23923 0.0
C1735 C 0.97718 0.75216 0.21544 0.0
C1736 C 0.95296 0.75074 0.2034 0.0
C1737 C 0.95321 0.76586 0.18763 0.0
C1738 C 0.92944 0.76572 0.1768 0.0
C1739 C 0.90545 0.75034 0.1816 0.0
C1740 C 0.90522 0.73499 0.19721 0.0
C1741 C 0.92889 0.73517 0.20811 0.0
H1742 H 0.88704 0.75031 0.17323 0.0
H1743 H 0.09829 0.74853 0.29142 0.0
H1744 H 0.3797 0.98575 1.05578 0.0
H1745 H 0.42897 0.97091 1.05505 0.0
H1746 H 0.45375 0.05478 1.03949 0.0
H1747 H 0.40444 0.06938 1.03975 0.0
H1748 H 0.49071 0.01716 1.0282 0.0
H1749 H 0.44571 0.03953 0.08429 0.0
H1750 H 0.41191 0.03488 0.10876 0.0
H1751 H 0.43286 0.94726 0.11374 0.0
H1752 H 0.46749 0.95158 0.08955 0.0
H1753 H 0.62443 0.02239 0.06106 0.0
H1754 H 0.57493 0.03646 0.06248 0.0
H1755 H 0.55187 0.95186 0.07749 0.0
H1756 H 0.6014 0.93803 0.07647 0.0
H1757 H 0.51392 0.98921 0.08918 0.0
H1758 H 0.55616 0.96617 1.03169 0.0
H1759 H 0.58855 0.97052 1.00641 0.0
H1760 H 0.57245 0.05947 1.00419 0.0
H1761 H 0.53895 0.05541 1.02901 0.0
C1762 C 0.39546 1.00043 1.051 0.0
C1763 C 0.38863 0.02889 1.04827 0.0
C1764 C 0.42364 0.99211 1.05099 0.0
C1765 C 0.44486 0.01221 1.0481 0.0
C1766 C 0.4376 0.03915 1.04212 0.0
C1767 C 0.40942 0.04739 1.04199 0.0
C1768 C 0.47404 0.00678 1.05366 0.0
C1769 C 0.4958 0.01127 1.04156 0.0
C1770 C 0.48057 0.99881 0.07108 0.0
C1771 C 0.45879 0.99577 0.08495 0.0
C1772 C 0.44285 0.0192 0.09046 0.0
C1773 C 0.4236 0.01664 0.10432 0.0
C1774 C 0.41986 0.99072 0.11265 0.0
C1775 C 0.43561 0.9673 0.10722 0.0
C1776 C 0.45516 0.96981 0.0935 0.0
C1777 C 0.60903 0.0074 0.06593 0.0
C1778 C 0.61634 0.97899 0.06822 0.0
C1779 C 0.5807 0.01527 0.06632 0.0
C1780 C 0.55987 0.99476 0.06921 0.0
C1781 C 0.56771 0.96782 0.07488 0.0
C1782 C 0.59604 0.96003 0.0746 0.0
C1783 C 0.53057 0.99977 0.06373 0.0
C1784 C 0.5088 0.99514 0.07583 0.0
C1785 C 0.52398 0.00766 1.04632 0.0
C1786 C 0.54561 0.01058 1.03238 0.0
C1787 C 0.55989 0.9867 1.02596 0.0
C1788 C 0.57834 0.98909 1.01167 0.0
C1789 C 0.58306 0.01531 1.00391 0.0
C1790 C 0.56901 0.0392 1.01031 0.0
C1791 C 0.55015 0.03685 1.0244 0.0
H1792 H 0.59736 0.01704 0.99284 0.0
H1793 H 0.40493 0.98886 0.12339 0.0
H1794 H 0.77373 0.63103 0.30316 0.0
H1795 H 0.78672 0.6807 0.30122 0.0
H1796 H 0.69988 0.70205 0.29073 0.0
H1797 H 0.68716 0.65231 0.2919 0.0
H1798 H 0.73395 0.74138 0.27827 0.0
H1799 H 0.72253 0.69374 0.33491 0.0
H1800 H 0.73335 0.65855 0.35766 0.0
H1801 H 0.82055 0.68308 0.35668 0.0
H1802 H 0.81018 0.71875 0.33413 0.0
H1803 H 0.73299 0.87464 0.31264 0.0
H1804 H 0.71882 0.82526 0.3145 0.0
H1805 H 0.80501 0.80194 0.32544 0.0
H1806 H 0.81888 0.85136 0.3244 0.0
H1807 H 0.77051 0.76364 0.33778 0.0
H1808 H 0.78223 0.81218 0.28198 0.0
H1809 H 0.77177 0.84835 0.25979 0.0
H1810 H 0.68497 0.82225 0.25884 0.0
H1811 H 0.69493 0.7859 0.28103 0.0
C1812 C 0.75784 0.64608 0.29913 0.0
C1813 C 0.72931 0.63822 0.29823 0.0
C1814 C 0.76516 0.67454 0.29844 0.0
C1815 C 0.74393 0.69497 0.29682 0.0
C1816 C 0.71646 0.68657 0.2924 0.0
C1817 C 0.70926 0.6581 0.29281 0.0
C1818 C 0.74895 0.72429 0.3026 0.0
C1819 C 0.74178 0.74628 0.29131 0.0
C1820 C 0.75927 0.73062 0.31962 0.0
C1821 C 0.76566 0.70856 0.33269 0.0
C1822 C 0.74404 0.6914 0.33944 0.0
C1823 C 0.75007 0.67144 0.35232 0.0
C1824 C 0.77763 0.66835 0.35848 0.0
C1825 C 0.79923 0.68538 0.35185 0.0
C1826 C 0.79328 0.70554 0.33907 0.0
C1827 C 0.74848 0.85921 0.31669 0.0
C1828 C 0.77715 0.86646 0.31788 0.0
C1829 C 0.74048 0.83093 0.31738 0.0
C1830 C 0.76119 0.81001 0.31915 0.0
C1831 C 0.78881 0.81779 0.32367 0.0
C1832 C 0.79669 0.84606 0.32329 0.0
C1833 C 0.75563 0.78076 0.31343 0.0
C1834 C 0.76266 0.75877 0.32475 0.0
C1835 C 0.74531 0.77446 0.2964 0.0
C1836 C 0.73925 0.79659 0.28329 0.0
C1837 C 0.76088 0.81432 0.27712 0.0
C1838 C 0.75506 0.83481 0.26453 0.0
C1839 C 0.72771 0.83771 0.25797 0.0
C1840 C 0.70613 0.82004 0.26396 0.0
C1841 C 0.71185 0.79946 0.27652 0.0
H1842 H 0.72328 0.85358 0.2482 0.0
H1843 H 0.78221 0.65288 0.36846 0.0
H1844 H 0.1032 0.94978 0.57134 0.0
H1845 H 0.05501 0.95215 0.56408 0.0
H1846 H 0.06916 0.02889 0.53528 0.0
H1847 H 0.11944 0.02635 0.54184 0.0
H1848 H 0.039 0.03727 0.56496 0.0
H1849 H 0.0341 0.97213 0.51723 0.0
H1850 H 0.04373 0.92802 0.501 0.0
H1851 H 1.00103 0.88053 0.54092 0.0
H1852 H 0.99163 0.92424 0.5576 0.0
H1853 H 0.89928 0.0564 0.54493 0.0
H1854 H 0.94722 0.05402 0.5528 0.0
H1855 H 0.93215 0.9772 0.58134 0.0
H1856 H 0.88211 0.97973 0.57412 0.0
H1857 H 0.96284 0.96864 0.55204 0.0
H1858 H 0.96747 0.03373 0.5997 0.0
H1859 H 0.958 0.07778 0.61603 0.0
H1860 H 1.00129 0.12531 0.57637 0.0
H1861 H 0.01053 0.08167 0.55958 0.0
C1862 C 0.09736 0.96661 0.56263 0.0
C1863 C 0.11576 0.98901 0.55818 0.0
C1864 C 0.06904 0.96774 0.5584 0.0
C1865 C 0.05838 0.9911 0.54961 0.0
C1866 C 0.07711 0.01096 0.54248 0.0
C1867 C 0.10583 0.00965 0.5465 0.0
C1868 C 0.02837 0.99795 0.55219 0.0
C1869 C 0.02214 0.02265 0.56172 0.0
C1870 C 0.00688 0.97797 0.54887 0.0
C1871 C 0.01227 0.95157 0.53873 0.0
C1872 C 0.02693 0.95228 0.52263 0.0
C1873 C 0.03234 0.92732 0.51334 0.0
C1874 C 0.02303 0.90149 0.51993 0.0
C1875 C 0.00824 0.90056 0.53582 0.0
C1876 C 0.00283 0.92544 0.54519 0.0
C1877 C 0.90485 0.03955 0.5537 0.0
C1878 C 0.88634 0.01707 0.55783 0.0
C1879 C 0.93302 0.03842 0.5583 0.0
C1880 C 0.94341 0.015 0.56717 0.0
C1881 C 0.92444 0.99516 0.57407 0.0
C1882 C 0.89587 0.99646 0.56966 0.0
C1883 C 0.97343 0.00801 0.56478 0.0
C1884 C 0.97968 0.98327 0.55528 0.0
C1885 C 0.99494 0.02795 0.56814 0.0
C1886 C 0.98959 0.05432 0.57831 0.0
C1887 C 0.9748 0.05358 0.59437 0.0
C1888 C 0.96948 0.0785 0.60372 0.0
C1889 C 0.97901 0.10433 0.59724 0.0
C1890 C 0.99392 0.10529 0.58139 0.0
C1891 C 0.99923 0.08045 0.57195 0.0
H1892 H 0.97488 0.1236 0.6045 0.0
H1893 H 0.02725 0.88219 0.51272 0.0
H1894 H 0.75599 0.37019 0.78744 0.0
H1895 H 0.7381 0.32232 0.78426 0.0
H1896 H 0.81859 0.28997 0.80138 0.0
H1897 H 0.83785 0.33711 0.80107 0.0
H1898 H 0.7953 0.25013 0.78999 0.0
H1899 H 0.75323 0.32218 0.83181 0.0
H1900 H 0.72539 0.36551 0.83721 0.0
H1901 H 0.65804 0.33251 0.80554 0.0
H1902 H 0.68548 0.28906 0.80003 0.0
H1903 H 0.75 0.1322 0.82996 0.0
H1904 H 0.76739 0.1803 0.83347 0.0
H1905 H 0.68657 0.21199 0.81648 0.0
H1906 H 0.66791 0.16461 0.81642 0.0
H1907 H 0.70962 0.25224 0.82763 0.0
H1908 H 0.75143 0.18026 0.78593 0.0
H1909 H 0.77929 0.13706 0.78021 0.0
H1910 H 0.84721 0.17011 0.8114 0.0
H1911 H 0.81974 0.21342 0.81724 0.0
C1912 C 0.77047 0.35279 0.78926 0.0
C1913 C 0.79778 0.35732 0.79584 0.0
C1914 C 0.75988 0.32533 0.78805 0.0
C1915 C 0.77599 0.30274 0.79444 0.0
C1916 C 0.80503 0.30699 0.79714 0.0
C1917 C 0.81613 0.33415 0.79701 0.0
C1918 C 0.76254 0.27641 0.80103 0.0
C1919 C 0.77661 0.25074 0.79827 0.0
C1920 C 0.73791 0.27671 0.81176 0.0
C1921 C 0.72141 0.30258 0.81545 0.0
C1922 C 0.73245 0.32421 0.82607 0.0
C1923 C 0.71676 0.34877 0.82912 0.0
C1924 C 0.68999 0.35177 0.8217 0.0
C1925 C 0.67877 0.33017 0.81129 0.0
C1926 C 0.69433 0.30557 0.80823 0.0
C1927 C 0.73537 0.14951 0.8283 0.0
C1928 C 0.70815 0.14482 0.82166 0.0
C1929 C 0.74562 0.17709 0.8297 0.0
C1930 C 0.72928 0.19961 0.82339 0.0
C1931 C 0.70029 0.19509 0.82068 0.0
C1932 C 0.68951 0.16779 0.82065 0.0
C1933 C 0.74251 0.22598 0.81669 0.0
C1934 C 0.72836 0.25165 0.81939 0.0
C1935 C 0.76707 0.2257 0.8059 0.0
C1936 C 0.78352 0.19985 0.8021 0.0
C1937 C 0.77232 0.17825 0.79151 0.0
C1938 C 0.78803 0.15378 0.78827 0.0
C1939 C 0.81498 0.15083 0.79546 0.0
C1940 C 0.82635 0.1724 0.80584 0.0
C1941 C 0.81076 0.19691 0.80908 0.0
H1942 H 0.82708 0.13184 0.79297 0.0
H1943 H 0.67792 0.37082 0.82403 0.0
H1944 H 0.23917 0.37762 0.80875 0.0
H1945 H 0.22455 0.32862 0.80919 0.0
H1946 H 0.30597 0.30488 0.82967 0.0
H1947 H 0.32111 0.35417 0.82836 0.0
H1948 H 0.29722 0.27968 0.79958 0.0
H1949 H 0.2419 0.29349 0.85179 0.0
H1950 H 0.20719 0.31834 0.87047 0.0
H1951 H 0.14227 0.3018 0.83261 0.0
H1952 H 0.17672 0.27733 0.81351 0.0
H1953 H 0.26844 0.13485 0.81043 0.0
H1954 H 0.28172 0.1842 0.80935 0.0
H1955 H 0.20049 0.20481 0.78734 0.0
H1956 H 0.18664 0.15517 0.78932 0.0
H1957 H 0.2084 0.23195 0.81719 0.0
H1958 H 0.26462 0.21752 0.76509 0.0
H1959 H 0.29871 0.18849 0.74838 0.0
H1960 H 0.36182 0.20414 0.78754 0.0
H1961 H 0.32813 0.23315 0.80451 0.0
C1962 C 0.2533 0.36223 0.81444 0.0
C1963 C 0.28132 0.36942 0.81836 0.0
C1964 C 0.24503 0.33407 0.8145 0.0
C1965 C 0.26437 0.31303 0.81919 0.0
C1966 C 0.2909 0.32082 0.82579 0.0
C1967 C 0.29934 0.34899 0.82542 0.0
C1968 C 0.25853 0.28328 0.81459 0.0
C1969 C 0.27797 0.26911 0.80365 0.0
C1970 C 0.23298 0.2699 0.81936 0.0
C1971 C 0.21197 0.28368 0.83116 0.0
C1972 C 0.22025 0.29523 0.8474 0.0
C1973 C 0.20062 0.30928 0.85806 0.0
C1974 C 0.17255 0.31167 0.85272 0.0
C1975 C 0.16403 0.29992 0.83673 0.0
C1976 C 0.1836 0.28593 0.82599 0.0
C1977 C 0.2541 0.1496 0.80431 0.0
C1978 C 0.22653 0.14143 0.80001 0.0
C1979 C 0.2616 0.17795 0.80386 0.0
C1980 C 0.24196 0.19824 0.79841 0.0
C1981 C 0.21582 0.18946 0.79171 0.0
C1982 C 0.20812 0.16111 0.7925 0.0
C1983 C 0.24711 0.22837 0.80229 0.0
C1984 C 0.22753 0.24265 0.81304 0.0
C1985 C 0.27253 0.24183 0.79739 0.0
C1986 C 0.29379 0.22742 0.78611 0.0
C1987 C 0.28586 0.21498 0.77005 0.0
C1988 C 0.30508 0.19842 0.76057 0.0
C1989 C 0.33235 0.1943 0.76697 0.0
C1990 C 0.34069 0.20731 0.78261 0.0
C1991 C 0.32158 0.22394 0.79213 0.0
H1992 H 0.34709 0.18116 0.75973 0.0
H1993 H 0.15739 0.32259 0.86099 0.0
H1994 H 0.22613 0.87534 0.30786 0.0
H1995 H 0.21516 0.82518 0.30601 0.0
H1996 H 0.30081 0.8079 0.28973 0.0
H1997 H 0.31176 0.85812 0.2915 0.0
H1998 H 0.26306 0.76862 0.27722 0.0
H1999 H 0.29022 0.80603 0.33555 0.0
H2000 H 0.28736 0.83593 0.36211 0.0
H2001 H 0.19819 0.82076 0.36567 0.0
H2002 H 0.20086 0.7894 0.33967 0.0
H2003 H 0.27793 0.63436 0.30655 0.0
H2004 H 0.28909 0.68434 0.30931 0.0
H2005 H 0.20379 0.70109 0.32656 0.0
H2006 H 0.1928 0.65092 0.32427 0.0
H2007 H 0.24094 0.74064 0.33853 0.0
H2008 H 0.21485 0.69941 0.28201 0.0
H2009 H 0.21841 0.66686 0.25674 0.0
H2010 H 0.30559 0.68898 0.24975 0.0
H2011 H 0.30229 0.72243 0.27468 0.0
C2012 C 0.24203 0.86111 0.30265 0.0
C2013 C 0.26998 0.87026 0.30028 0.0
C2014 C 0.23592 0.83239 0.30201 0.0
C2015 C 0.25759 0.813 0.29857 0.0
C2016 C 0.28399 0.82266 0.29276 0.0
C2017 C 0.2901 0.8514 0.29341 0.0
C2018 C 0.25418 0.78325 0.30346 0.0
C2019 C 0.25843 0.76247 0.29063 0.0
C2020 C 0.24787 0.77534 0.32095 0.0
C2021 C 0.24563 0.79599 0.3355 0.0
C2022 C 0.26995 0.80946 0.34186 0.0
C2023 C 0.2684 0.82653 0.35685 0.0
C2024 C 0.24252 0.83085 0.36534 0.0
C2025 C 0.21818 0.81767 0.35899 0.0
C2026 C 0.21973 0.80005 0.34422 0.0
C2027 C 0.26215 0.64838 0.31213 0.0
C2028 C 0.23425 0.63922 0.31464 0.0
C2029 C 0.2684 0.677 0.31336 0.0
C2030 C 0.24681 0.69627 0.31725 0.0
C2031 C 0.22053 0.68644 0.32316 0.0
C2032 C 0.21436 0.65778 0.32207 0.0
C2033 C 0.24987 0.72603 0.31231 0.0
C2034 C 0.24552 0.74679 0.32511 0.0
C2035 C 0.25602 0.73391 0.29479 0.0
C2036 C 0.25844 0.71305 0.28032 0.0
C2037 C 0.23484 0.69711 0.27518 0.0
C2038 C 0.23678 0.67856 0.26089 0.0
C2039 C 0.26229 0.67548 0.2518 0.0
C2040 C 0.28587 0.69123 0.25686 0.0
C2041 C 0.28394 0.71013 0.271 0.0
H2042 H 0.26369 0.66107 0.24074 0.0
H2043 H 0.24142 0.84411 0.37695 0.0
H2044 H 0.12231 0.52346 0.54927 0.0
H2045 H 0.07247 0.53461 0.5505 0.0
H2046 H 0.05818 0.46319 0.58438 0.0
H2047 H 0.1081 0.45066 0.58175 0.0
H2048 H 0.02966 0.45681 0.55639 0.0
H2049 H 0.04335 0.53629 0.59524 0.0
H2050 H 0.06634 0.58043 0.60482 0.0
H2051 H 0.03957 0.62125 0.55759 0.0
H2052 H 0.01683 0.57725 0.54757 0.0
H2053 H 0.88462 0.47731 0.57032 0.0
H2054 H 0.93454 0.46755 0.56762 0.0
H2055 H 0.94423 0.53887 0.53303 0.0
H2056 H 0.89416 0.54998 0.53711 0.0
H2057 H 0.97541 0.546 0.55997 0.0
H2058 H 0.96028 0.46677 0.52164 0.0
H2059 H 0.93568 0.42313 0.5128 0.0
H2060 H 0.96466 0.38198 0.55941 0.0
H2061 H 0.98896 0.42553 0.56873 0.0
C2062 C 0.10883 0.51125 0.55791 0.0
C2063 C 0.11871 0.48619 0.56537 0.0
C2064 C 0.08019 0.51752 0.55852 0.0
C2065 C 0.06146 0.49955 0.56739 0.0
C2066 C 0.07226 0.47712 0.57729 0.0
C2067 C 0.10082 0.47028 0.57614 0.0
C2068 C 0.03091 0.50094 0.56365 0.0
C2069 C 0.01766 0.47623 0.5575 0.0
C2070 C 0.01565 0.52655 0.56424 0.0
C2071 C 0.02845 0.55336 0.57061 0.0
C2072 C 0.04241 0.55464 0.58686 0.0
C2073 C 0.05543 0.57964 0.59237 0.0
C2074 C 0.05443 0.60362 0.58182 0.0
C2075 C 0.04031 0.60267 0.56576 0.0
C2076 C 0.02731 0.57771 0.56017 0.0
C2077 C 0.89704 0.48974 0.56122 0.0
C2078 C 0.88594 0.51442 0.55401 0.0
C2079 C 0.92575 0.4843 0.55975 0.0
C2080 C 0.94326 0.50263 0.55021 0.0
C2081 C 0.9311 0.52465 0.5406 0.0
C2082 C 0.90246 0.53065 0.54258 0.0
C2083 C 0.97411 0.5018 0.55294 0.0
C2084 C 0.98745 0.52662 0.55882 0.0
C2085 C 0.98947 0.4763 0.5521 0.0
C2086 C 0.97646 0.44949 0.54589 0.0
C2087 C 0.96147 0.44841 0.53 0.0
C2088 C 0.94749 0.4237 0.52492 0.0
C2089 C 0.9486 0.3998 0.53553 0.0
C2090 C 0.96385 0.4005 0.55119 0.0
C2091 C 0.97778 0.42518 0.55636 0.0
H2092 H 0.93765 0.38073 0.53162 0.0
H2093 H 0.06456 0.62293 0.5861 0.0
H2094 H 0.61514 0.47882 1.02936 0.0
H2095 H 0.56771 0.49805 1.02735 0.0
H2096 H 0.53839 0.43737 0.06521 0.0
H2097 H 0.58348 0.41674 0.06624 0.0
H2098 H 0.49704 0.45197 1.04918 0.0
H2099 H 0.57473 0.509 0.07617 0.0
H2100 H 0.61906 0.53635 0.07428 0.0
H2101 H 0.58339 0.58764 1.03374 0.0
H2102 H 0.53896 0.5605 1.03538 0.0
H2103 H 0.38747 0.52539 0.08827 0.0
H2104 H 0.43505 0.50615 0.08959 0.0
H2105 H 0.46276 0.56627 1.05094 0.0
H2106 H 0.41751 0.58634 1.05008 0.0
H2107 H 0.50485 0.5524 0.06714 0.0
H2108 H 0.42691 0.49574 1.04061 0.0
H2109 H 0.3826 0.46837 1.04259 0.0
H2110 H 0.41897 0.41622 0.08246 0.0
H2111 H 0.46337 0.4434 0.08075 0.0
C2112 C 0.59864 0.46908 1.03706 0.0
C2113 C 0.60469 0.44834 1.04972 0.0
C2114 C 0.57138 0.48024 1.03586 0.0
C2115 C 0.55011 0.47069 1.04727 0.0
C2116 C 0.55468 0.44605 1.05678 0.0
C2117 C 0.58139 0.43438 1.0575 0.0
C2118 C 0.52489 0.48779 1.05159 0.0
C2119 C 0.49881 0.47395 1.05311 0.0
C2120 C 0.527 0.51649 1.05673 0.0
C2121 C 0.55372 0.53263 1.0558 0.0
C2122 C 0.57643 0.52608 0.06685 0.0
C2123 C 0.60154 0.54154 0.06582 0.0
C2124 C 0.60405 0.5637 1.05388 0.0
C2125 C 0.58144 0.57048 1.04296 0.0
C2126 C 0.5563 0.55509 1.04395 0.0
C2127 C 0.40367 0.535 0.08026 0.0
C2128 C 0.39709 0.55572 0.0677 0.0
C2129 C 0.431 0.52388 0.08107 0.0
C2130 C 0.45187 0.53344 0.06938 0.0
C2131 C 0.44681 0.55776 0.05968 0.0
C2132 C 0.42 0.56921 0.05916 0.0
C2133 C 0.4771 0.51649 0.06488 0.0
C2134 C 0.50313 0.53039 0.06327 0.0
C2135 C 0.47497 0.48784 0.05969 0.0
C2136 C 0.44826 0.47169 0.06066 0.0
C2137 C 0.42536 0.47848 1.04982 0.0
C2138 C 0.40027 0.463 1.05089 0.0
C2139 C 0.39796 0.4406 0.06266 0.0
C2140 C 0.42076 0.43358 0.07337 0.0
C2141 C 0.44588 0.44899 0.07234 0.0
H2142 H 0.37853 0.42864 0.06347 0.0
H2143 H 0.6235 0.57564 1.0531 0.0
H2144 H 0.23235 0.27068 0.2254 0.0
H2145 H 0.20395 0.31335 0.22753 0.0
H2146 H 0.21065 0.32424 0.17145 0.0
H2147 H 0.2402 0.28202 0.1694 0.0
H2148 H 0.23268 0.36697 0.18746 0.0
H2149 H 0.14475 0.31969 0.19336 0.0
H2150 H 0.11114 0.28432 0.20459 0.0
H2151 H 0.12 0.31805 0.25672 0.0
H2152 H 0.15388 0.35349 0.24584 0.0
H2153 H 0.1642 0.49774 0.1876 0.0
H2154 H 0.17255 0.44723 0.18431 0.0
H2155 H 0.187 0.44053 0.23998 0.0
H2156 H 0.17822 0.49159 0.24342 0.0
H2157 H 0.14995 0.39556 0.2236 0.0
H2158 H 0.24189 0.43911 0.21724 0.0
H2159 H 0.27366 0.4755 0.20521 0.0
H2160 H 0.25518 0.44697 0.15283 0.0
H2161 H 0.22285 0.41105 0.16456 0.0
C2162 C 0.22709 0.28175 0.21346 0.0
C2163 C 0.23915 0.27354 0.19732 0.0
C2164 C 0.21053 0.30602 0.21466 0.0
C2165 C 0.20541 0.3223 0.19969 0.0
C2166 C 0.21455 0.31215 0.18322 0.0
C2167 C 0.23132 0.28792 0.18203 0.0
C2168 C 0.19621 0.35212 0.20178 0.0
C2169 C 0.21417 0.37301 0.19505 0.0
C2170 C 0.17263 0.36025 0.21218 0.0
C2171 C 0.15202 0.33917 0.21879 0.0
C2172 C 0.13967 0.31947 0.20724 0.0
C2173 C 0.12053 0.29943 0.21354 0.0
C2174 C 0.11348 0.29891 0.23136 0.0
C2175 C 0.12547 0.3185 0.24291 0.0
C2176 C 0.14459 0.33862 0.23668 0.0
C2177 C 0.16957 0.48561 0.19912 0.0
C2178 C 0.17093 0.49858 0.21573 0.0
C2179 C 0.17397 0.45672 0.19725 0.0
C2180 C 0.18004 0.44012 0.21192 0.0
C2181 C 0.18198 0.453 0.22854 0.0
C2182 C 0.17762 0.48216 0.23044 0.0
C2183 C 0.18654 0.4098 0.2093 0.0
C2184 C 0.16822 0.3891 0.21594 0.0
C2185 C 0.20973 0.40156 0.19877 0.0
C2186 C 0.22994 0.42252 0.19175 0.0
C2187 C 0.24456 0.44076 0.20315 0.0
C2188 C 0.26261 0.46136 0.1964 0.0
C2189 C 0.26644 0.46368 0.17828 0.0
C2190 C 0.25223 0.44535 0.16687 0.0
C2191 C 0.23404 0.42483 0.17356 0.0
H2192 H 0.28053 0.47961 0.17316 0.0
H2193 H 0.09869 0.28334 0.23622 0.0
H2194 H 0.47024 0.50017 0.42383 0.0
H2195 H 0.4248 0.47699 0.42551 0.0
H2196 H 0.4437 0.44838 0.47775 0.0
H2197 H 0.49076 0.46937 0.47563 0.0
H2198 H 0.40988 0.41093 0.46033 0.0
H2199 H 0.41124 0.51166 0.4711 0.0
H2200 H 0.42439 0.56007 0.46265 0.0
H2201 H 0.37358 0.55294 0.41628 0.0
H2202 H 0.36057 0.50426 0.4243 0.0
H2203 H 0.26218 0.42765 0.49289 0.0
H2204 H 0.31296 0.43719 0.48933 0.0
H2205 H 0.30521 0.42669 0.43333 0.0
H2206 H 0.25478 0.41614 0.43683 0.0
H2207 H 0.3338 0.48183 0.45304 0.0
H2208 H 0.33426 0.38109 0.44102 0.0
H2209 H 0.32833 0.33005 0.44583 0.0
H2210 H 0.37825 0.33567 0.49263 0.0
H2211 H 0.38405 0.38687 0.48826 0.0
C2212 C 0.46549 0.48812 0.43549 0.0
C2213 C 0.48428 0.48727 0.44977 0.0
C2214 C 0.43916 0.47508 0.43647 0.0
C2215 C 0.43048 0.46184 0.45199 0.0
C2216 C 0.44982 0.45894 0.46575 0.0
C2217 C 0.47656 0.4714 0.46462 0.0
C2218 C 0.40036 0.45421 0.45457 0.0
C2219 C 0.39321 0.42645 0.45898 0.0
C2220 C 0.37865 0.47445 0.45249 0.0
C2221 C 0.38498 0.50432 0.44828 0.0
C2222 C 0.40282 0.52046 0.45913 0.0
C2223 C 0.41033 0.5479 0.45438 0.0
C2224 C 0.39983 0.55957 0.43894 0.0
C2225 C 0.38168 0.54387 0.42825 0.0
C2226 C 0.3742 0.51637 0.4329 0.0
C2227 C 0.27122 0.42795 0.4798 0.0
C2228 C 0.25453 0.42146 0.46509 0.0
C2229 C 0.30028 0.43282 0.47783 0.0
C2230 C 0.31288 0.4318 0.46112 0.0
C2231 C 0.29595 0.42685 0.44637 0.0
C2232 C 0.26713 0.42131 0.44835 0.0
C2233 C 0.3432 0.43846 0.45881 0.0
C2234 C 0.3504 0.46627 0.45455 0.0
C2235 C 0.36486 0.41816 0.46096 0.0
C2236 C 0.35897 0.388 0.46454 0.0
C2237 C 0.34338 0.37162 0.45257 0.0
C2238 C 0.34034 0.34256 0.4551 0.0
C2239 C 0.35294 0.3296 0.46951 0.0
C2240 C 0.36849 0.34571 0.48148 0.0
C2241 C 0.37159 0.37476 0.479 0.0
H2242 H 0.35054 0.30713 0.47145 0.0
H2243 H 0.40575 0.58079 0.43525 0.0
H2244 H 0.24172 0.72097 0.70016 0.0
H2245 H 0.26564 0.68215 0.71493 0.0
H2246 H 0.33603 0.69003 0.67911 0.0
H2247 H 0.31172 0.72838 0.66407 0.0
H2248 H 0.31112 0.64152 0.67507 0.0
H2249 H 0.3475 0.69212 0.72244 0.0
H2250 H 0.34877 0.72626 0.74693 0.0
H2251 H 0.28802 0.67687 0.77531 0.0
H2252 H 0.28603 0.64256 0.75084 0.0
H2253 H 0.37401 0.51638 0.69678 0.0
H2254 H 0.36656 0.56655 0.69631 0.0
H2255 H 0.29322 0.55759 0.72955 0.0
H2256 H 0.30328 0.50681 0.73241 0.0
H2257 H 0.32266 0.60816 0.73624 0.0
H2258 H 0.28979 0.55838 0.68228 0.0
H2259 H 0.30372 0.52327 0.65977 0.0
H2260 H 0.3727 0.5762 0.64377 0.0
H2261 H 0.35947 0.61134 0.66632 0.0
C2262 C 0.26288 0.71527 0.69601 0.0
C2263 C 0.27478 0.72719 0.68087 0.0
C2264 C 0.27658 0.69309 0.70447 0.0
C2265 C 0.30241 0.68285 0.69793 0.0
C2266 C 0.31596 0.69739 0.68424 0.0
C2267 C 0.30214 0.71931 0.67568 0.0
C2268 C 0.31164 0.65385 0.70236 0.0
C2269 C 0.31397 0.63448 0.68848 0.0
C2270 C 0.31527 0.64449 0.71981 0.0
C2271 C 0.31637 0.66487 0.73469 0.0
C2272 C 0.33418 0.68863 0.73382 0.0
C2273 C 0.33509 0.708 0.74772 0.0
C2274 C 0.31842 0.70378 0.76264 0.0
C2275 C 0.30089 0.68011 0.76372 0.0
C2276 C 0.29989 0.66066 0.74984 0.0
C2277 C 0.35616 0.52471 0.70408 0.0
C2278 C 0.339 0.50709 0.7145 0.0
C2279 C 0.35201 0.55369 0.70381 0.0
C2280 C 0.32876 0.56591 0.71236 0.0
C2281 C 0.31121 0.54863 0.72269 0.0
C2282 C 0.31657 0.51948 0.72399 0.0
C2283 C 0.32174 0.59604 0.70891 0.0
C2284 C 0.3196 0.61546 0.72292 0.0
C2285 C 0.31926 0.60598 0.69147 0.0
C2286 C 0.32376 0.58733 0.67603 0.0
C2287 C 0.30761 0.5627 0.67374 0.0
C2288 C 0.31553 0.54272 0.66108 0.0
C2289 C 0.33926 0.54742 0.65052 0.0
C2290 C 0.35444 0.57256 0.65205 0.0
C2291 C 0.34669 0.59254 0.66472 0.0
H2292 H 0.34615 0.53148 0.64128 0.0
H2293 H 0.31914 0.71881 0.77339 0.0
H2294 H 0.01618 0.57785 0.9249 0.0
H2295 H 0.05844 0.5976 0.93869 0.0
H2296 H 0.06977 0.52032 0.96738 0.0
H2297 H 0.02699 0.50112 0.95417 0.0
H2298 H 0.09423 0.56721 0.98402 0.0
H2299 H 0.10542 0.52125 0.92159 0.0
H2300 H 0.09204 0.52039 0.89024 0.0
H2301 H 0.09354 0.61096 0.88915 0.0
H2302 H 0.10773 0.61219 0.92032 0.0
H2303 H 0.24523 0.55933 0.9887 0.0
H2304 H 0.19459 0.5494 0.98603 0.0
H2305 H 0.19139 0.60323 0.94043 0.0
H2306 H 0.24168 0.60881 0.94135 0.0
H2307 H 0.15985 0.56918 0.93324 0.0
H2308 H 0.16518 0.61717 0.98971 0.0
H2309 H 0.17602 0.62634 1.02089 0.0
H2310 H 0.13853 0.54703 1.03491 0.0
H2311 H 0.12854 0.53709 1.00376 0.0
C2312 C 0.02666 0.56593 0.93506 0.0
C2313 C 0.0187 0.53794 0.9384 0.0
C2314 C 0.05108 0.57696 0.94266 0.0
C2315 C 0.06783 0.55985 0.95338 0.0
C2316 C 0.05731 0.5337 0.95893 0.0
C2317 C 0.03266 0.52284 0.95154 0.0
C2318 C 0.09809 0.56626 0.95598 0.0
C2319 C 0.10883 0.56803 0.97301 0.0
C2320 C 0.11689 0.56764 0.9416 0.0
C2321 C 0.10722 0.56679 0.92321 0.0
C2322 C 0.10282 0.54091 0.91462 0.0
C2323 C 0.09535 0.54038 0.89687 0.0
C2324 C 0.0918 0.5656 0.88774 0.0
C2325 C 0.09614 0.59143 0.89625 0.0
C2326 C 0.10408 0.59206 0.9139 0.0
C2327 C 0.23373 0.56806 0.97776 0.0
C2328 C 0.24757 0.58501 0.9653 0.0
C2329 C 0.20449 0.56311 0.97652 0.0
C2330 C 0.18839 0.5761 0.96328 0.0
C2331 C 0.20271 0.59243 0.95071 0.0
C2332 C 0.23182 0.59582 0.9513 0.0
C2333 C 0.15705 0.5722 0.96159 0.0
C2334 C 0.14588 0.56968 0.94456 0.0
C2335 C 0.1379 0.57167 0.97605 0.0
C2336 C 0.14662 0.57628 0.99443 0.0
C2337 C 0.15994 0.60151 0.99944 0.0
C2338 C 0.16572 0.60688 1.01712 0.0
C2339 C 0.1578 0.58728 1.02988 0.0
C2340 C 0.14466 0.56212 1.02499 0.0
C2341 C 0.1391 0.55656 1.00734 0.0
H2342 H 0.16154 0.59145 1.0436 0.0
H2343 H 0.08578 0.56514 0.87405 0.0
H2344 H 0.88388 0.51948 0.90936 0.0
H2345 H 0.87931 0.56916 0.90731 0.0
H2346 H 0.78947 0.55987 0.89942 0.0
H2347 H 0.79649 0.50886 0.89515 0.0
H2348 H 0.79786 0.60423 0.88764 0.0
H2349 H 0.84078 0.57672 0.94544 0.0
H2350 H 0.87894 0.5557 0.96309 0.0
H2351 H 0.93994 0.60831 0.93721 0.0
H2352 H 0.90216 0.62951 0.91941 0.0
H2353 H 0.76391 0.7412 0.91666 0.0
H2354 H 0.79457 0.70808 0.90114 0.0
H2355 H 0.81332 0.66739 0.95037 0.0
H2356 H 0.78728 0.70312 0.96591 0.0
H2357 H 0.85234 0.65658 0.93261 0.0
H2358 H 0.80593 0.6655 0.86909 0.0
H2359 H 0.76817 0.68933 0.85255 0.0
H2360 H 0.70992 0.6746 0.89491 0.0
H2361 H 0.74746 0.65075 0.91169 0.0
C2362 C 0.86309 0.52769 0.90684 0.0
C2363 C 0.84077 0.50975 0.90194 0.0
C2364 C 0.86027 0.55677 0.90635 0.0
C2365 C 0.83366 0.56932 0.90474 0.0
C2366 C 0.81051 0.55135 0.90086 0.0
C2367 C 0.81429 0.52196 0.89877 0.0
C2368 C 0.83004 0.60065 0.90756 0.0
C2369 C 0.80937 0.61517 0.8979 0.0
C2370 C 0.84633 0.61656 0.91988 0.0
C2371 C 0.86875 0.60439 0.931 0.0
C2372 C 0.86233 0.58378 0.94358 0.0
C2373 C 0.8839 0.57183 0.95356 0.0
C2374 C 0.91186 0.58059 0.95122 0.0
C2375 C 0.9183 0.6015 0.93899 0.0
C2376 C 0.89683 0.61352 0.92898 0.0
C2377 C 0.77543 0.72581 0.92423 0.0
C2378 C 0.77182 0.72398 0.94256 0.0
C2379 C 0.79246 0.70626 0.91521 0.0
C2380 C 0.8049 0.68367 0.92425 0.0
C2381 C 0.80365 0.68393 0.94272 0.0
C2382 C 0.78802 0.7042 0.95172 0.0
C2383 C 0.81675 0.65808 0.91523 0.0
C2384 C 0.84017 0.64506 0.92288 0.0
C2385 C 0.80233 0.64338 0.90171 0.0
C2386 C 0.77935 0.65644 0.89158 0.0
C2387 C 0.78497 0.66718 0.87477 0.0
C2388 C 0.76368 0.68077 0.8654 0.0
C2389 C 0.73666 0.68347 0.87268 0.0
C2390 C 0.73085 0.67248 0.8893 0.0
C2391 C 0.7521 0.65891 0.89874 0.0
H2392 H 0.72023 0.69409 0.86543 0.0
H2393 H 0.92853 0.57121 0.9589 0.0
H2394 H 0.53816 0.50634 0.69091 0.0
H2395 H 0.5832 0.53034 0.68719 0.0
H2396 H 0.5541 0.56659 0.63885 0.0
H2397 H 0.50803 0.54433 0.64298 0.0
H2398 H 0.60406 0.52971 0.63724 0.0
H2399 H 0.5679 0.61052 0.66536 0.0
H2400 H 0.54462 0.64045 0.68764 0.0
H2401 H 0.60817 0.61867 0.72519 0.0
H2402 H 0.63155 0.58805 0.70325 0.0
H2403 H 0.74171 0.58823 0.62108 0.0
H2404 H 0.69074 0.58003 0.62328 0.0
H2405 H 0.699 0.56605 0.67898 0.0
H2406 H 0.74958 0.57607 0.67689 0.0
H2407 H 0.65636 0.59836 0.67415 0.0
H2408 H 0.68786 0.51134 0.64511 0.0
H2409 H 0.71007 0.48364 0.62124 0.0
H2410 H 0.65325 0.52021 0.58398 0.0
H2411 H 0.63098 0.54839 0.60759 0.0
C2412 C 0.5407 0.5202 0.67978 0.0
C2413 C 0.51927 0.52292 0.6671 0.0
C2414 C 0.56665 0.53387 0.67768 0.0
C2415 C 0.57196 0.55017 0.66274 0.0
C2416 C 0.55037 0.55405 0.65047 0.0
C2417 C 0.52416 0.54093 0.65275 0.0
C2418 C 0.60119 0.55925 0.65871 0.0
C2419 C 0.61544 0.54508 0.64513 0.0
C2420 C 0.61591 0.5791 0.66914 0.0
C2421 C 0.60129 0.59657 0.68267 0.0
C2422 C 0.57667 0.61165 0.67845 0.0
C2423 C 0.56351 0.62887 0.69101 0.0
C2424 C 0.57485 0.63138 0.70784 0.0
C2425 C 0.59936 0.61663 0.71215 0.0
C2426 C 0.61257 0.59932 0.69966 0.0
C2427 C 0.73266 0.58274 0.63368 0.0
C2428 C 0.74953 0.58239 0.64879 0.0
C2429 C 0.70348 0.57813 0.63497 0.0
C2430 C 0.69084 0.57212 0.6513 0.0
C2431 C 0.70806 0.57077 0.66625 0.0
C2432 C 0.73702 0.57612 0.66503 0.0
C2433 C 0.65971 0.56788 0.6531 0.0
C2434 C 0.64503 0.58302 0.66624 0.0
C2435 C 0.64442 0.54903 0.64219 0.0
C2436 C 0.65802 0.5322 0.62806 0.0
C2437 C 0.68029 0.51363 0.6318 0.0
C2438 C 0.69285 0.49782 0.61832 0.0
C2439 C 0.68314 0.50023 0.6011 0.0
C2440 C 0.6608 0.51841 0.59731 0.0
C2441 C 0.64821 0.5343 0.61073 0.0
H2442 H 0.69288 0.48795 0.59068 0.0
H2443 H 0.5647 0.64482 0.71752 0.0
H2444 H 0.76454 0.28381 0.4154 0.0
H2445 H 0.74303 0.3231 0.39963 0.0
H2446 H 0.67191 0.32142 0.43511 0.0
H2447 H 0.69363 0.28248 0.45115 0.0
H2448 H 0.67668 0.34396 0.38818 0.0
H2449 H 0.68336 0.37313 0.45495 0.0
H2450 H 0.70597 0.36084 0.48304 0.0
H2451 H 0.78623 0.3536 0.45692 0.0
H2452 H 0.76391 0.36567 0.42866 0.0
H2453 H 0.65155 0.49552 0.42473 0.0
H2454 H 0.66035 0.44526 0.42668 0.0
H2455 H 0.6988 0.44584 0.37525 0.0
H2456 H 0.68833 0.49651 0.37271 0.0
H2457 H 0.70968 0.42121 0.42736 0.0
H2458 H 0.69004 0.40174 0.35846 0.0
H2459 H 0.65644 0.40673 0.33392 0.0
H2460 H 0.58724 0.38937 0.36885 0.0
H2461 H 0.62039 0.38533 0.39365 0.0
C2462 C 0.74366 0.29089 0.41927 0.0
C2463 C 0.73082 0.28048 0.43456 0.0
C2464 C 0.73134 0.31324 0.4102 0.0
C2465 C 0.70597 0.32511 0.41625 0.0
C2466 C 0.69142 0.31235 0.43019 0.0
C2467 C 0.70389 0.29028 0.4394 0.0
C2468 C 0.69937 0.35459 0.41171 0.0
C2469 C 0.68415 0.36099 0.39653 0.0
C2470 C 0.70824 0.37657 0.42295 0.0
C2471 C 0.72212 0.37056 0.43985 0.0
C2472 C 0.70588 0.3692 0.45529 0.0
C2473 C 0.71859 0.36215 0.47119 0.0
C2474 C 0.74756 0.35663 0.47178 0.0
C2475 C 0.76383 0.35802 0.45645 0.0
C2476 C 0.75117 0.36493 0.44049 0.0
C2477 C 0.66187 0.48507 0.41376 0.0
C2478 C 0.66934 0.50013 0.39857 0.0
C2479 C 0.66666 0.45618 0.41484 0.0
C2480 C 0.67963 0.44147 0.40096 0.0
C2481 C 0.68788 0.45646 0.38589 0.0
C2482 C 0.6826 0.48558 0.38465 0.0
C2483 C 0.68707 0.4113 0.40352 0.0
C2484 C 0.70257 0.40454 0.4186 0.0
C2485 C 0.67735 0.38914 0.39249 0.0
C2486 C 0.65755 0.39404 0.37792 0.0
C2487 C 0.6676 0.39965 0.36094 0.0
C2488 C 0.64866 0.40222 0.34699 0.0
C2489 C 0.61971 0.39857 0.34985 0.0
C2490 C 0.60964 0.39234 0.36666 0.0
C2491 C 0.62845 0.39026 0.38069 0.0
H2492 H 0.6051 0.40042 0.33903 0.0
H2493 H 0.75736 0.35111 0.4841 0.0
H2494 H 0.75839 0.41868 0.1792 0.0
H2495 H 0.80912 0.42846 0.18117 0.0
H2496 H 0.8148 0.43115 0.12471 0.0
H2497 H 0.76375 0.42204 0.12265 0.0
H2498 H 0.86032 0.39478 0.15202 0.0
H2499 H 0.82281 0.48681 0.13117 0.0
H2500 H 0.78622 0.52381 0.1327 0.0
H2501 H 0.79989 0.53291 0.18816 0.0
H2502 H 0.83647 0.4958 0.18691 0.0
H2503 H 0.99455 0.46809 0.14315 0.0
H2504 H 0.94898 0.44397 0.14041 0.0
H2505 H 0.92176 0.48079 0.18956 0.0
H2506 H 0.96605 0.50606 0.19191 0.0
H2507 H 0.88723 0.49415 0.1642 0.0
H2508 H 0.93027 0.40984 0.18501 0.0
H2509 H 0.9646 0.37084 0.18618 0.0
H2510 H 0.94055 0.34418 0.13439 0.0
H2511 H 0.90628 0.38326 0.13281 0.0
C2512 C 0.77042 0.42174 0.16723 0.0
C2513 C 0.75719 0.42008 0.1508 0.0
C2514 C 0.79936 0.42686 0.16836 0.0
C2515 C 0.81562 0.42995 0.15308 0.0
C2516 C 0.80253 0.42842 0.13662 0.0
C2517 C 0.77339 0.42377 0.13548 0.0
C2518 C 0.84572 0.43762 0.15463 0.0
C2519 C 0.86652 0.41651 0.15435 0.0
C2520 C 0.85338 0.46573 0.15827 0.0
C2521 C 0.8321 0.48851 0.15897 0.0
C2522 C 0.81788 0.49666 0.14369 0.0
C2523 C 0.79719 0.51764 0.1445 0.0
C2524 C 0.79066 0.53064 0.16053 0.0
C2525 C 0.80495 0.52281 0.17576 0.0
C2526 C 0.8257 0.50186 0.175 0.0
C2527 C 0.97888 0.47097 0.15339 0.0
C2528 C 0.98389 0.48949 0.16757 0.0
C2529 C 0.95303 0.45678 0.15195 0.0
C2530 C 0.93193 0.46073 0.16474 0.0
C2531 C 0.93771 0.47753 0.1795 0.0
C2532 C 0.96326 0.49188 0.18086 0.0
C2533 C 0.90252 0.45141 0.16155 0.0
C2534 C 0.88155 0.47233 0.16164 0.0
C2535 C 0.89499 0.42303 0.15792 0.0
C2536 C 0.91593 0.39975 0.1587 0.0
C2537 C 0.93252 0.39589 0.17378 0.0
C2538 C 0.95191 0.3737 0.17454 0.0
C2539 C 0.95483 0.35511 0.16034 0.0
C2540 C 0.93831 0.35864 0.14537 0.0
C2541 C 0.91887 0.38079 0.14454 0.0
H2542 H 0.96982 0.33792 0.16096 0.0
H2543 H 0.77456 0.54682 0.16114 0.0
H2544 H 0.73023 0.77678 0.66877 0.0
H2545 H 0.69679 0.81591 0.67184 0.0
H2546 H 0.7139 0.82016 0.72737 0.0
H2547 H 0.74611 0.78034 0.7245 0.0
H2548 H 0.66257 0.84199 0.72065 0.0
H2549 H 0.75888 0.85107 0.69629 0.0
H2550 H 0.79478 0.83903 0.67389 0.0
H2551 H 0.74019 0.86949 0.63333 0.0
H2552 H 0.70379 0.88124 0.6555 0.0
H2553 H 0.68177 0.99025 0.74107 0.0
H2554 H 0.68796 0.93904 0.73675 0.0
H2555 H 0.65973 0.94667 0.68327 0.0
H2556 H 0.65328 0.99729 0.68749 0.0
H2557 H 0.70926 0.91747 0.68624 0.0
H2558 H 0.61645 0.91596 0.70955 0.0
H2559 H 0.57559 0.92223 0.72936 0.0
H2560 H 0.61853 0.87656 0.76974 0.0
H2561 H 0.6597 0.87005 0.75018 0.0
C2562 C 0.72583 0.7852 0.68175 0.0
C2563 C 0.74152 0.7763 0.69632 0.0
C2564 C 0.70681 0.80767 0.68349 0.0
C2565 C 0.70383 0.82175 0.69971 0.0
C2566 C 0.71626 0.81004 0.71466 0.0
C2567 C 0.73491 0.78743 0.71298 0.0
C2568 C 0.69343 0.85128 0.70071 0.0
C2569 C 0.67277 0.85859 0.71321 0.0
C2570 C 0.70627 0.87286 0.69067 0.0
C2571 C 0.72861 0.86685 0.6775 0.0
C2572 C 0.75458 0.85521 0.68259 0.0
C2573 C 0.77497 0.84836 0.66994 0.0
C2574 C 0.76976 0.85347 0.6522 0.0
C2575 C 0.74419 0.86552 0.64708 0.0
C2576 C 0.72367 0.87226 0.65967 0.0
C2577 C 0.67747 0.98102 0.72831 0.0
C2578 C 0.66736 0.99785 0.71455 0.0
C2579 C 0.68041 0.95173 0.72597 0.0
C2580 C 0.6738 0.939 0.70977 0.0
C2581 C 0.66464 0.95597 0.69593 0.0
C2582 C 0.66129 0.98496 0.69831 0.0
C2583 C 0.67881 0.90847 0.70655 0.0
C2584 C 0.6987 0.90102 0.69364 0.0
C2585 C 0.66499 0.88691 0.71612 0.0
C2586 C 0.64138 0.89291 0.72847 0.0
C2587 C 0.61741 0.90768 0.72275 0.0
C2588 C 0.59405 0.911 0.73387 0.0
C2589 C 0.59446 0.89979 0.75079 0.0
C2590 C 0.61825 0.88527 0.75664 0.0
C2591 C 0.64158 0.88172 0.74553 0.0
H2592 H 0.57637 0.90243 0.75938 0.0
H2593 H 0.78555 0.84812 0.64242 0.0
H2594 H 0.76065 0.91033 0.94053 0.0
H2595 H 0.81123 0.9189 0.94031 0.0
H2596 H 0.80656 0.94985 0.99362 0.0
H2597 H 0.75593 0.9388 0.99447 0.0
H2598 H 0.8356 0.96975 0.94458 0.0
H2599 H 0.84499 0.93338 1.00892 0.0
H2600 H 0.83648 0.89594 1.03072 0.0
H2601 H 0.865 0.83351 0.9937 0.0
H2602 H 0.87237 0.8705 0.97146 0.0
H2603 H 0.97611 0.00947 0.95146 0.0
H2604 H 0.93548 0.9925 0.96822 0.0
H2605 H 0.93236 0.91767 0.93587 0.0
H2606 H 0.97278 0.93481 0.91882 0.0
H2607 H 0.9097 0.92103 0.97889 0.0
H2608 H 0.88762 0.94244 0.91534 0.0
H2609 H 0.90042 0.96874 0.88857 0.0
H2610 H 0.90136 0.04615 0.91818 0.0
H2611 H 0.88854 0.02015 0.94513 0.0
C2612 C 0.77036 0.91874 0.9523 0.0
C2613 C 0.75427 0.92374 0.96754 0.0
C2614 C 0.79937 0.92343 0.9522 0.0
C2615 C 0.81302 0.934 0.96717 0.0
C2616 C 0.79687 0.94032 0.98222 0.0
C2617 C 0.76773 0.93484 0.9825 0.0
C2618 C 0.84352 0.94096 0.96585 0.0
C2619 C 0.85163 0.95952 0.95245 0.0
C2620 C 0.86474 0.92681 0.97551 0.0
C2621 C 0.85815 0.90456 0.98839 0.0
C2622 C 0.84852 0.91159 1.0053 0.0
C2623 C 0.84408 0.89048 1.01775 0.0
C2624 C 0.84991 0.86234 1.01356 0.0
C2625 C 0.86022 0.85527 0.99689 0.0
C2626 C 0.86426 0.87626 0.98432 0.0
C2627 C 0.96782 0.98865 0.94859 0.0
C2628 C 0.97728 0.97352 0.93379 0.0
C2629 C 0.9446 0.97898 0.95818 0.0
C2630 C 0.931 0.95394 0.95321 0.0
C2631 C 0.94283 0.93694 0.93996 0.0
C2632 C 0.96582 0.94676 0.93021 0.0
C2633 C 0.90109 0.94998 0.95799 0.0
C2634 C 0.89337 0.93195 0.97166 0.0
C2635 C 0.88 0.96351 0.94814 0.0
C2636 C 0.8871 0.97948 0.93212 0.0
C2637 C 0.89044 0.9651 0.91607 0.0
C2638 C 0.8977 0.97991 0.9009 0.0
C2639 C 0.90165 0.00911 0.90167 0.0
C2640 C 0.89827 0.02354 0.91761 0.0
C2641 C 0.89097 0.0088 0.93283 0.0
H2642 H 0.90739 0.02054 0.88992 0.0
H2643 H 0.84665 0.84606 1.02326 0.0
H2644 H 0.86213 0.01345 0.19144 0.0
H2645 H 0.85416 0.06406 0.1898 0.0
H2646 H 0.80057 0.06032 0.23558 0.0
H2647 H 0.80938 0.00935 0.23786 0.0
H2648 H 0.77749 0.08699 0.20397 0.0
H2649 H 0.85862 0.10441 0.24454 0.0
H2650 H 0.90774 0.0998 0.25498 0.0
H2651 H 0.93872 0.11392 0.20272 0.0
H2652 H 0.88983 0.11971 0.19215 0.0
H2653 H 0.75576 0.22769 0.22134 0.0
H2654 H 0.78816 0.1887 0.22685 0.0
H2655 H 0.80528 0.18159 0.17139 0.0
H2656 H 0.77265 0.22067 0.16579 0.0
H2657 H 0.85012 0.16234 0.20882 0.0
H2658 H 0.76914 0.13756 0.16722 0.0
H2659 H 0.72147 0.1508 0.15716 0.0
H2660 H 0.69189 0.15231 0.21055 0.0
H2661 H 0.73957 0.13944 0.22087 0.0
C2662 C 0.8485 0.0232 0.20118 0.0
C2663 C 0.83612 0.0071 0.2147 0.0
C2664 C 0.84438 0.05229 0.20035 0.0
C2665 C 0.82737 0.06602 0.21279 0.0
C2666 C 0.81418 0.05009 0.22601 0.0
C2667 C 0.81874 0.02088 0.22708 0.0
C2668 C 0.82078 0.0963 0.21048 0.0
C2669 C 0.79339 0.10336 0.20521 0.0
C2670 C 0.84163 0.11773 0.21158 0.0
C2671 C 0.87068 0.11194 0.21752 0.0
C2672 C 0.87593 0.10618 0.23527 0.0
C2673 C 0.90371 0.10366 0.24123 0.0
C2674 C 0.9263 0.10621 0.22948 0.0
C2675 C 0.92119 0.11172 0.21178 0.0
C2676 C 0.89349 0.11484 0.20582 0.0
C2677 C 0.76752 0.2187 0.21043 0.0
C2678 C 0.76142 0.22667 0.19315 0.0
C2679 C 0.78616 0.1966 0.2136 0.0
C2680 C 0.7988 0.18218 0.19951 0.0
C2681 C 0.79578 0.19264 0.18242 0.0
C2682 C 0.77709 0.21488 0.17923 0.0
C2683 C 0.80713 0.15253 0.20216 0.0
C2684 C 0.83447 0.14574 0.20754 0.0
C2685 C 0.78653 0.13111 0.20085 0.0
C2686 C 0.75767 0.13743 0.19476 0.0
C2687 C 0.75236 0.14056 0.17676 0.0
C2688 C 0.72543 0.14812 0.17103 0.0
C2689 C 0.70365 0.15233 0.18321 0.0
C2690 C 0.70876 0.14894 0.20114 0.0
C2691 C 0.73572 0.14155 0.20693 0.0
H2692 H 0.68283 0.15828 0.17876 0.0
H2693 H 0.94776 0.1041 0.23412 0.0
H2694 H 0.73581 0.09484 0.49459 0.0
H2695 H 0.68472 0.08747 0.49264 0.0
H2696 H 0.69366 0.06712 0.43752 0.0
H2697 H 0.74435 0.07669 0.43929 0.0
H2698 H 0.65151 0.09904 0.44066 0.0
H2699 H 0.68216 0.0177 0.47485 0.0
H2700 H 0.7023 0.99293 0.50028 0.0
H2701 H 0.6421 0.03324 0.53447 0.0
H2702 H 0.62202 0.05869 0.50933 0.0
H2703 H 0.53507 0.00556 0.42644 0.0
H2704 H 0.57881 0.03211 0.42942 0.0
H2705 H 0.54815 0.06927 0.47763 0.0
H2706 H 0.50348 0.04393 0.47435 0.0
H2707 H 0.59754 0.03692 0.4807 0.0
H2708 H 0.56241 0.11212 0.44739 0.0
H2709 H 0.54033 0.1379 0.42307 0.0
H2710 H 0.6062 0.11029 0.3881 0.0
H2711 H 0.62843 0.08384 0.41211 0.0
C2712 C 0.72682 0.08825 0.48217 0.0
C2713 C 0.7439 0.08592 0.46712 0.0
C2714 C 0.69759 0.08406 0.48104 0.0
C2715 C 0.68512 0.07632 0.46496 0.0
C2716 C 0.70255 0.07319 0.45007 0.0
C2717 C 0.73156 0.07832 0.45109 0.0
C2718 C 0.65398 0.07208 0.46332 0.0
C2719 C 0.63983 0.0851 0.44929 0.0
C2720 C 0.63815 0.05522 0.47513 0.0
C2721 C 0.65093 0.04047 0.49024 0.0
C2722 C 0.67348 0.02157 0.48782 0.0
C2723 C 0.68484 0.00736 0.50219 0.0
C2724 C 0.67358 0.01161 0.51899 0.0
C2725 C 0.65087 0.03001 0.52146 0.0
C2726 C 0.63955 0.04438 0.50717 0.0
C2727 C 0.53701 0.0201 0.43738 0.0
C2728 C 0.51573 0.02212 0.45034 0.0
C2729 C 0.56216 0.03532 0.43904 0.0
C2730 C 0.56672 0.0526 0.45375 0.0
C2731 C 0.54501 0.05599 0.46617 0.0
C2732 C 0.51964 0.04114 0.46439 0.0
C2733 C 0.59563 0.06275 0.45766 0.0
C2734 C 0.60927 0.05097 0.47214 0.0
C2735 C 0.61085 0.0807 0.4463 0.0
C2736 C 0.59694 0.09565 0.43157 0.0
C2737 C 0.57198 0.11113 0.43447 0.0
C2738 C 0.55948 0.12598 0.42074 0.0
C2739 C 0.57181 0.12566 0.40404 0.0
C2740 C 0.59664 0.11046 0.40103 0.0
C2741 C 0.6092 0.09553 0.41471 0.0
H2742 H 0.56216 0.13727 0.39345 0.0
H2743 H 0.68237 1.00056 0.53008 0.0
H2744 H 0.24536 0.22441 0.41413 0.0
H2745 H 0.2658 0.18448 0.39807 0.0
H2746 H 0.33597 0.18331 0.43387 0.0
H2747 H 0.31533 0.22298 0.45019 0.0
H2748 H 0.33429 0.16073 0.38817 0.0
H2749 H 0.31697 0.13473 0.45348 0.0
H2750 H 0.29094 0.14669 0.4807 0.0
H2751 H 0.21368 0.15188 0.4516 0.0
H2752 H 0.23943 0.14005 0.4242 0.0
H2753 H 0.35127 0.01077 0.42501 0.0
H2754 H 0.34295 0.06128 0.42608 0.0
H2755 H 0.30662 0.05792 0.37431 0.0
H2756 H 0.3167 0.00704 0.37264 0.0
H2757 H 0.2914 0.08521 0.42446 0.0
H2758 H 0.32161 0.09806 0.35811 0.0
H2759 H 0.35747 0.09242 0.33471 0.0
H2760 H 0.42243 0.11821 0.37055 0.0
H2761 H 0.38704 0.12286 0.3943 0.0
C2762 C 0.26595 0.21669 0.41795 0.0
C2763 C 0.27869 0.22643 0.43345 0.0
C2764 C 0.27761 0.1939 0.40876 0.0
C2765 C 0.30226 0.18099 0.41487 0.0
C2766 C 0.31702 0.1932 0.42892 0.0
C2767 C 0.30519 0.21576 0.43825 0.0
C2768 C 0.3076 0.15123 0.41025 0.0
C2769 C 0.3247 0.14408 0.39587 0.0
C2770 C 0.29575 0.12975 0.42065 0.0
C2771 C 0.27998 0.13637 0.43694 0.0
C2772 C 0.29439 0.13826 0.45296 0.0
C2773 C 0.27973 0.14506 0.46838 0.0
C2774 C 0.25063 0.14985 0.46789 0.0
C2775 C 0.23619 0.14803 0.45196 0.0
C2776 C 0.25079 0.1413 0.43649 0.0
C2777 C 0.34155 0.02068 0.41378 0.0
C2778 C 0.33464 0.00485 0.39873 0.0
C2779 C 0.33709 0.04968 0.41434 0.0
C2780 C 0.32505 0.06366 0.40005 0.0
C2781 C 0.31705 0.04785 0.3852 0.0
C2782 C 0.32204 0.01864 0.38446 0.0
C2783 C 0.31799 0.09401 0.40205 0.0
C2784 C 0.30051 0.10153 0.41626 0.0
C2785 C 0.33052 0.11564 0.39183 0.0
C2786 C 0.35186 0.10984 0.37808 0.0
C2787 C 0.34365 0.10163 0.36112 0.0
C2788 C 0.36386 0.09881 0.34776 0.0
C2789 C 0.39224 0.10478 0.35116 0.0
C2790 C 0.40048 0.11347 0.36794 0.0
C2791 C 0.38041 0.11587 0.38139 0.0
H2792 H 0.40781 0.10278 0.34079 0.0
H2793 H 0.23931 0.15518 0.47984 0.0
H2794 H 0.00599 0.05591 0.15024 0.0
H2795 H 0.05306 0.07699 0.1475 0.0
H2796 H 0.08404 0.02178 0.18778 0.0
H2797 H 0.03773 0.99986 0.19017 0.0
H2798 H 0.10651 0.08413 0.18637 0.0
H2799 H 0.08993 0.99602 0.14976 0.0
H2800 H 0.05731 0.97452 0.1283 0.0
H2801 H 0.06814 0.04565 0.09428 0.0
H2802 H 0.10053 0.06767 0.11567 0.0
H2803 H 0.25154 0.07545 0.17875 0.0
H2804 H 0.20146 0.06458 0.18225 0.0
H2805 H 0.18982 0.07393 0.12634 0.0
H2806 H 0.24053 0.08119 0.12275 0.0
H2807 H 0.15347 0.04282 0.13376 0.0
H2808 H 0.166 0.13167 0.16149 0.0
H2809 H 0.1907 0.16734 0.17948 0.0
H2810 H 0.17837 0.11622 0.22523 0.0
H2811 H 0.15456 0.07985 0.2072 0.0
C2812 C 0.02276 0.04836 0.1586 0.0
C2813 C 0.01808 0.02583 0.17022 0.0
C2814 C 0.04949 0.06074 0.1572 0.0
C2815 C 0.07191 0.0509 0.16747 0.0
C2816 C 0.06688 0.02986 0.17991 0.0
C2817 C 0.04031 0.01731 0.1812 0.0
C2818 C 0.10142 0.05855 0.16321 0.0
C2819 C 0.11699 0.0751 0.17496 0.0
C2820 C 0.11449 0.04813 0.14781 0.0
C2821 C 0.0978 0.03331 0.13419 0.0
C2822 C 0.0856 0.00686 0.13759 0.0
C2823 C 0.06703 0.99468 0.1255 0.0
C2824 C 0.06072 0.00867 0.10991 0.0
C2825 C 0.07314 0.03477 0.10632 0.0
C2826 C 0.09167 0.04707 0.11839 0.0
C2827 C 0.23831 0.07425 0.1672 0.0
C2828 C 0.24978 0.07923 0.15052 0.0
C2829 C 0.20946 0.06885 0.16921 0.0
C2830 C 0.1911 0.07004 0.15473 0.0
C2831 C 0.20307 0.07311 0.13787 0.0
C2832 C 0.23221 0.07712 0.13576 0.0
C2833 C 0.15971 0.06803 0.15726 0.0
C2834 C 0.1435 0.05237 0.14517 0.0
C2835 C 0.14561 0.08104 0.17176 0.0
C2836 C 0.15944 0.10274 0.18286 0.0
C2837 C 0.16932 0.12779 0.17526 0.0
C2838 C 0.18294 0.14819 0.18549 0.0
C2839 C 0.18633 0.14393 0.20348 0.0
C2840 C 0.17589 0.11938 0.21127 0.0
C2841 C 0.16235 0.09887 0.20103 0.0
H2842 H 0.19686 0.15975 0.21141 0.0
H2843 H 0.04617 0.99932 0.10063 0.0
H2844 H 0.1287 0.98935 0.91769 0.0
H2845 H 0.13435 0.93965 0.91565 0.0
H2846 H 0.21567 0.95062 0.89075 0.0
H2847 H 0.20541 1.00121 0.88766 0.0
H2848 H 0.20006 0.90515 0.88036 0.0
H2849 H 0.1929 0.9367 0.94345 0.0
H2850 H 0.16637 0.95982 0.96758 0.0
H2851 H 0.09578 0.90488 0.95828 0.0
H2852 H 0.12181 0.88159 0.93413 0.0
H2853 H 0.26872 0.79234 0.92153 0.0
H2854 H 0.2481 0.83217 0.90625 0.0
H2855 H 0.16507 0.8066 0.92371 0.0
H2856 H 0.18628 0.76765 0.94005 0.0
H2857 H 0.17506 0.85511 0.93522 0.0
H2858 H 0.18318 0.8162 0.87846 0.0
H2859 H 0.20702 0.78937 0.85488 0.0
H2860 H 0.2716 0.85277 0.85182 0.0
H2861 H 0.24837 0.87985 0.87557 0.0
C2862 C 0.14787 0.98158 0.91155 0.0
C2863 C 0.16628 0.99975 0.90247 0.0
C2864 C 0.15149 0.95259 0.91091 0.0
C2865 C 0.17648 0.94068 0.90434 0.0
C2866 C 0.19617 0.95888 0.89617 0.0
C2867 C 0.19067 0.98803 0.89475 0.0
C2868 C 0.18192 0.90961 0.90634 0.0
C2869 C 0.19492 0.89443 0.89248 0.0
C2870 C 0.1739 0.89453 0.92172 0.0
C2871 C 0.15924 0.90757 0.93697 0.0
C2872 C 0.17181 0.92949 0.94667 0.0
C2873 C 0.15681 0.94266 0.9603 0.0
C2874 C 0.1294 0.93386 0.96444 0.0
C2875 C 0.117 0.91168 0.95508 0.0
C2876 C 0.13188 0.89844 0.94147 0.0
C2877 C 0.24595 0.79452 0.92139 0.0
C2878 C 0.229 0.77721 0.93191 0.0
C2879 C 0.23408 0.81727 0.91257 0.0
C2880 C 0.20496 0.8226 0.91384 0.0
C2881 C 0.18761 0.80306 0.92264 0.0
C2882 C 0.19962 0.78072 0.93186 0.0
C2883 C 0.19404 0.85115 0.90961 0.0
C2884 C 0.18002 0.86582 0.92303 0.0
C2885 C 0.20083 0.86535 0.89387 0.0
C2886 C 0.21401 0.85008 0.87884 0.0
C2887 C 0.20245 0.82447 0.87276 0.0
C2888 C 0.21588 0.80918 0.85937 0.0
C2889 C 0.24081 0.81936 0.85186 0.0
C2890 C 0.25225 0.84495 0.85763 0.0
C2891 C 0.2389 0.86034 0.87102 0.0
H2892 H 0.25127 0.80742 0.84157 0.0
H2893 H 0.11777 0.94421 0.9749 0.0
H2894 H 0.46683 0.00749 0.68658 0.0
H2895 H 0.42113 0.98435 0.68399 0.0
H2896 H 0.45695 0.92349 0.64793 0.0
H2897 H 0.50312 0.94635 0.65068 0.0
H2898 H 0.41172 0.94586 0.63445 0.0
H2899 H 0.43263 0.90237 0.68771 0.0
H2900 H 0.44783 0.89585 0.71831 0.0
H2901 H 0.38008 0.94883 0.73641 0.0
H2902 H 0.3647 0.95608 0.7059 0.0
H2903 H 0.26994 0.8945 0.6255 0.0
H2904 H 0.32066 0.89931 0.62923 0.0
H2905 H 0.30638 0.95302 0.67455 0.0
H2906 H 0.25564 0.94399 0.67232 0.0
H2907 H 0.34511 0.9229 0.68261 0.0
H2908 H 0.33335 0.97157 0.6241 0.0
H2909 H 0.32064 0.97065 0.59265 0.0
H2910 H 0.37413 0.89863 0.58436 0.0
H2911 H 0.38706 0.89913 0.6157 0.0
C2912 C 0.46525 0.98879 0.6784 0.0
C2913 C 0.48867 0.97895 0.66871 0.0
C2914 C 0.43903 0.97551 0.67697 0.0
C2915 C 0.43558 0.95208 0.66583 0.0
C2916 C 0.4591 0.94159 0.65658 0.0
C2917 C 0.48541 0.95483 0.65805 0.0
C2918 C 0.40683 0.94087 0.66236 0.0
C2919 C 0.3972 0.94056 0.645 0.0
C2920 C 0.38799 0.93351 0.67604 0.0
C2921 C 0.39766 0.92999 0.69444 0.0
C2922 C 0.42117 0.91295 0.69818 0.0
C2923 C 0.42977 0.90904 0.71552 0.0
C2924 C 0.41497 0.92197 0.72929 0.0
C2925 C 0.39155 0.93885 0.72573 0.0
C2926 C 0.38287 0.94286 0.7084 0.0
C2927 C 0.27777 0.90752 0.63616 0.0
C2928 C 0.25909 0.91879 0.6487 0.0
C2929 C 0.30694 0.91069 0.63816 0.0
C2930 C 0.31797 0.92719 0.65196 0.0
C2931 C 0.29882 0.93993 0.66385 0.0
C2932 C 0.26975 0.93519 0.66248 0.0
C2933 C 0.34913 0.93035 0.65478 0.0
C2934 C 0.35944 0.92857 0.67207 0.0
C2935 C 0.3688 0.93522 0.64098 0.0
C2936 C 0.36092 0.93526 0.62221 0.0
C2937 C 0.34229 0.95553 0.61555 0.0
C2938 C 0.33508 0.95507 0.59775 0.0
C2939 C 0.34649 0.93454 0.58653 0.0
C2940 C 0.36525 0.91448 0.59305 0.0
C2941 C 0.37257 0.91488 0.6108 0.0
H2942 H 0.34086 0.93422 0.57278 0.0
H2943 H 0.42162 0.91885 0.74271 0.0
H2944 H 0.27337 0.07009 0.09006 0.0
H2945 H 0.25373 0.06307 0.06156 0.0
H2946 H 0.2489 0.15314 1.05475 0.0
H2947 H 0.27386 0.15956 0.08267 0.0
H2948 H 0.24111 0.14476 1.02612 0.0
H2949 H 0.24779 0.02954 1.02507 0.0
H2950 H 0.24377 0.98575 1.04231 0.0
H2951 H 0.17885 0.02362 0.07419 0.0
H2952 H 0.1828 0.06777 1.05721 0.0
H2953 H 0.19635 0.11277 0.93772 0.0
H2954 H 0.21927 0.11676 0.96586 0.0
H2955 H 0.15299 0.06753 0.98927 0.0
H2956 H 0.13051 0.06225 0.96013 0.0
H2957 H 0.19395 0.05582 1.00883 0.0
H2958 H 0.1717 0.15179 0.99336 0.0
H2959 H 0.17239 0.19335 0.97401 0.0
H2960 H 0.26305 0.19331 0.97442 0.0
H2961 H 0.2629 0.15156 0.99361 0.0
C2962 C 0.26949 0.0887 0.08238 0.0
C2963 C 0.2774 0.11545 0.08941 0.0
C2964 C 0.25627 0.08465 0.06556 0.0
C2965 C 0.24753 0.10715 1.05437 0.0
C2966 C 0.25462 0.13428 0.06178 0.0
C2967 C 0.26913 0.13825 0.07843 0.0
C2968 C 0.23189 0.1029 1.0356 0.0
C2969 C 0.23091 0.125 1.02289 0.0
C2970 C 0.21762 0.07762 1.02942 0.0
C2971 C 0.21588 0.05193 1.04012 0.0
C2972 C 0.23279 0.0285 1.03583 0.0
C2973 C 0.23055 0.00368 1.04555 0.0
C2974 C 0.21115 1.00195 0.05938 0.0
C2975 C 0.194 0.02508 0.06355 0.0
C2976 C 0.19631 0.05004 1.05395 0.0
C2977 C 0.18602 0.1028 0.94861 0.0
C2978 C 0.16052 0.08754 0.94555 0.0
C2979 C 0.19944 0.10549 0.96542 0.0
C2980 C 0.18828 0.09372 0.98113 0.0
C2981 C 0.16295 0.07773 0.97819 0.0
C2982 C 0.14959 0.07473 0.96109 0.0
C2983 C 0.20306 0.09769 0.99993 0.0
C2984 C 0.20395 0.0756 1.01243 0.0
C2985 C 0.21714 0.12293 1.00589 0.0
C2986 C 0.21727 0.14847 0.99482 0.0
C2987 C 0.19177 0.16066 0.98931 0.0
C2988 C 0.19207 0.18421 0.97835 0.0
C2989 C 0.21775 0.19593 0.97297 0.0
C2990 C 0.24318 0.1842 0.97859 0.0
C2991 C 0.243 0.16062 0.98952 0.0
H2992 H 0.21794 0.21411 0.96445 0.0
H2993 H 0.20933 0.98267 0.06683 0.0
H2994 H 0.67381 0.45682 0.18719 0.0
H2995 H 0.66889 0.47929 0.21612 0.0
H2996 H 0.66439 0.39761 0.2401 0.0
H2997 H 0.67003 0.37496 0.21091 0.0
H2998 H 0.62485 0.43279 0.25681 0.0
H2999 H 0.72301 0.44371 0.24446 0.0
H3000 H 0.76558 0.45824 0.2281 0.0
H3001 H 0.73899 0.54472 0.23086 0.0
H3002 H 0.69597 0.53068 0.24696 0.0
H3003 H 0.62338 0.491 0.34611 0.0
H3004 H 0.63 0.46571 0.31832 0.0
H3005 H 0.66552 0.54069 0.29549 0.0
H3006 H 0.65954 0.56535 0.32362 0.0
H3007 H 0.69006 0.50707 0.27791 0.0
H3008 H 0.58956 0.4968 0.28653 0.0
H3009 H 0.54545 0.48308 0.30161 0.0
H3010 H 0.57461 0.39748 0.30466 0.0
H3011 H 0.61894 0.41076 0.28969 0.0
C3012 C 0.67179 0.44326 0.19848 0.0
C3013 C 0.67234 0.41345 0.19587 0.0
C3014 C 0.6691 0.45647 0.21547 0.0
C3015 C 0.6661 0.44094 0.23129 0.0
C3016 C 0.66651 0.41104 0.22874 0.0
C3017 C 0.66996 0.39776 0.21169 0.0
C3018 C 0.66235 0.45572 0.24997 0.0
C3019 C 0.63953 0.44879 0.26133 0.0
C3020 C 0.68039 0.47761 0.25667 0.0
C3021 C 0.70602 0.48607 0.24674 0.0
C3022 C 0.72604 0.4658 0.2414 0.0
C3023 C 0.7503 0.47395 0.2322 0.0
C3024 C 0.75494 0.50237 0.22838 0.0
C3025 C 0.73533 0.5227 0.23378 0.0
C3026 C 0.71099 0.51465 0.24294 0.0
C3027 C 0.63187 0.50257 0.33517 0.0
C3028 C 0.64008 0.53113 0.33788 0.0
C3029 C 0.6358 0.48775 0.31869 0.0
C3030 C 0.64773 0.50049 0.30334 0.0
C3031 C 0.65615 0.52907 0.30622 0.0
C3032 C 0.6526 0.54365 0.32277 0.0
C3033 C 0.65207 0.48461 0.28487 0.0
C3034 C 0.67514 0.49127 0.27348 0.0
C3035 C 0.63399 0.46276 0.27798 0.0
C3036 C 0.60765 0.45484 0.2872 0.0
C3037 C 0.58661 0.4751 0.29054 0.0
C3038 C 0.56157 0.46739 0.29904 0.0
C3039 C 0.55728 0.43945 0.30417 0.0
C3040 C 0.57799 0.41913 0.30074 0.0
C3041 C 0.60305 0.42673 0.29223 0.0
H3042 H 0.53788 0.43353 0.31075 0.0
H3043 H 0.77375 0.50865 0.22129 0.0
H3044 H 0.24525 0.84581 0.58784 0.0
H3045 H 0.26746 0.85016 0.55939 0.0
H3046 H 0.23413 0.93441 0.55482 0.0
H3047 H 0.20861 0.92783 0.58236 0.0
H3048 H 0.2475 0.93492 0.52704 0.0
H3049 H 0.32524 0.88772 0.55691 0.0
H3050 H 0.34957 0.85078 0.57385 0.0
H3051 H 0.31788 0.78729 0.53859 0.0
H3052 H 0.29343 0.8239 0.52147 0.0
H3053 H 0.348 0.96031 0.45364 0.0
H3054 H 0.32481 0.95529 0.48257 0.0
H3055 H 0.30864 0.86785 0.47136 0.0
H3056 H 0.33165 0.87292 0.44258 0.0
H3057 H 0.32227 0.87045 0.50583 0.0
H3058 H 0.25475 0.9263 0.47309 0.0
H3059 H 0.23988 0.96808 0.45635 0.0
H3060 H 0.26317 0.02195 0.49947 0.0
H3061 H 0.27844 0.9805 0.51639 0.0
C3062 C 0.24228 0.86533 0.58088 0.0
C3063 C 0.2241 0.88611 0.58836 0.0
C3064 C 0.25625 0.86846 0.56403 0.0
C3065 C 0.25502 0.8935 0.55345 0.0
C3066 C 0.23696 0.91444 0.56131 0.0
C3067 C 0.22188 0.9107 0.57775 0.0
C3068 C 0.27107 0.89788 0.53471 0.0
C3069 C 0.26406 0.92053 0.52308 0.0
C3070 C 0.29353 0.88042 0.52758 0.0
C3071 C 0.30717 0.8584 0.53815 0.0
C3072 C 0.32333 0.86585 0.55289 0.0
C3073 C 0.33718 0.845 0.56248 0.0
C3074 C 0.33515 0.8167 0.55735 0.0
C3075 C 0.31934 0.80919 0.54259 0.0
C3076 C 0.3055 0.82996 0.53293 0.0
C3077 C 0.3397 0.93982 0.45717 0.0
C3078 C 0.34238 0.91716 0.44483 0.0
C3079 C 0.32585 0.93691 0.4741 0.0
C3080 C 0.31384 0.911 0.48019 0.0
C3081 C 0.31704 0.88834 0.46794 0.0
C3082 C 0.33044 0.89137 0.45097 0.0
C3083 C 0.29862 0.90717 0.49887 0.0
C3084 C 0.3057 0.88462 0.51023 0.0
C3085 C 0.27734 0.92551 0.50608 0.0
C3086 C 0.26788 0.95031 0.49596 0.0
C3087 C 0.25681 0.94706 0.47897 0.0
C3088 C 0.24829 0.97069 0.46945 0.0
C3089 C 0.25061 0.99766 0.47684 0.0
C3090 C 0.26138 1.00105 0.49377 0.0
C3091 C 0.26993 0.9775 0.50333 0.0
H3092 H 0.24402 0.01592 0.46945 0.0
H3093 H 0.34592 0.80059 0.56477 0.0
H3094 H 0.79096 0.59301 0.70155 0.0
H3095 H 0.79462 0.5685 0.72934 0.0
H3096 H 0.88504 0.56465 0.72305 0.0
H3097 H 0.88052 0.58636 0.69426 0.0
H3098 H 0.88443 0.53063 0.74311 0.0
H3099 H 0.81931 0.60764 0.76294 0.0
H3100 H 0.77519 0.63526 0.761 0.0
H3101 H 0.72669 0.55867 0.76027 0.0
H3102 H 0.77052 0.53068 0.76235 0.0
H3103 H 0.90755 0.47533 0.83122 0.0
H3104 H 0.90362 0.50238 0.80444 0.0
H3105 H 0.81313 0.50348 0.81029 0.0
H3106 H 0.81821 0.48214 0.83905 0.0
H3107 H 0.81322 0.53853 0.79038 0.0
H3108 H 0.88158 0.46232 0.77241 0.0
H3109 H 0.92717 0.4376 0.77586 0.0
H3110 H 0.97119 0.51678 0.77369 0.0
H3111 H 0.92592 0.54186 0.77031 0.0
C3112 C 0.81183 0.58724 0.70603 0.0
C3113 C 0.83536 0.5928 0.69488 0.0
C3114 C 0.81421 0.57316 0.72276 0.0
C3115 C 0.84053 0.56451 0.73033 0.0
C3116 C 0.86399 0.57018 0.71891 0.0
C3117 C 0.86146 0.5833 0.70191 0.0
C3118 C 0.84407 0.54943 0.7492 0.0
C3119 C 0.86854 0.53316 0.75324 0.0
C3120 C 0.82428 0.55044 0.76369 0.0
C3121 C 0.7981 0.56717 0.76261 0.0
C3122 C 0.79921 0.59677 0.76236 0.0
C3123 C 0.77428 0.61245 0.76126 0.0
C3124 C 0.74817 0.59872 0.76045 0.0
C3125 C 0.74692 0.56927 0.76089 0.0
C3126 C 0.77177 0.5535 0.76209 0.0
C3127 C 0.88672 0.4817 0.82716 0.0
C3128 C 0.86337 0.47522 0.83822 0.0
C3129 C 0.88409 0.49673 0.81076 0.0
C3130 C 0.85759 0.50478 0.80312 0.0
C3131 C 0.83428 0.49825 0.81441 0.0
C3132 C 0.83715 0.48484 0.83129 0.0
C3133 C 0.8537 0.51992 0.78429 0.0
C3134 C 0.82911 0.53607 0.78023 0.0
C3135 C 0.87353 0.51914 0.76983 0.0
C3136 C 0.90049 0.50388 0.77126 0.0
C3137 C 0.90104 0.47435 0.7726 0.0
C3138 C 0.92679 0.46032 0.77459 0.0
C3139 C 0.95205 0.47562 0.77504 0.0
C3140 C 0.95164 0.50496 0.77337 0.0
C3141 C 0.92598 0.51907 0.7714 0.0
H3142 H 0.97194 0.46474 0.77666 0.0
H3143 H 0.72891 0.61089 0.75952 0.0
H3144 H 0.79845 0.91755 0.17962 0.0
H3145 H 0.77625 0.91323 0.15115 0.0
H3146 H 0.85783 0.91698 0.12618 0.0
H3147 H 0.8801 0.92318 0.15522 0.0
H3148 H 0.83065 0.93249 0.10189 0.0
H3149 H 0.79754 0.85095 0.1316 0.0
H3150 H 0.77405 0.81948 0.15279 0.0
H3151 H 0.69672 0.86571 0.14717 0.0
H3152 H 0.71976 0.89743 0.12589 0.0
H3153 H 0.76885 0.87916 1.01831 0.0
H3154 H 0.79329 0.88546 1.04668 0.0
H3155 H 0.7151 0.91048 0.07089 0.0
H3156 H 0.69077 0.90402 1.04276 0.0
H3157 H 0.74109 0.88007 0.09482 0.0
H3158 H 0.77799 0.95599 0.05993 0.0
H3159 H 0.80444 0.9805 1.03661 0.0
H3160 H 0.88001 0.93645 1.05091 0.0
H3161 H 0.85388 0.91104 0.07397 0.0
C3162 C 0.81217 0.91717 0.16825 0.0
C3163 C 0.84186 0.92032 0.17076 0.0
C3164 C 0.79903 0.91422 0.15134 0.0
C3165 C 0.81437 0.91321 0.13518 0.0
C3166 C 0.84419 0.91709 0.13761 0.0
C3167 C 0.8574 0.92069 0.15468 0.0
C3168 C 0.79958 0.90895 0.11636 0.0
C3169 C 0.81133 0.92043 0.10067 0.0
C3170 C 0.77361 0.89377 0.11329 0.0
C3171 C 0.76043 0.87665 0.12727 0.0
C3172 C 0.77563 0.85462 0.13507 0.0
C3173 C 0.76235 0.83664 0.14701 0.0
C3174 C 0.73386 0.84047 0.15121 0.0
C3175 C 0.71873 0.86266 0.1438 0.0
C3176 C 0.73188 0.88064 0.13179 0.0
C3177 C 0.75655 0.88608 1.02956 0.0
C3178 C 0.72709 0.89126 1.0273 0.0
C3179 C 0.77096 0.89005 1.04617 0.0
C3180 C 0.75705 0.89919 0.06192 0.0
C3181 C 0.72753 0.90369 0.05967 0.0
C3182 C 0.71326 0.9001 1.04308 0.0
C3183 C 0.77238 0.90326 0.08048 0.0
C3184 C 0.76054 0.89197 0.09612 0.0
C3185 C 0.79877 0.91766 0.08333 0.0
C3186 C 0.81386 0.93138 0.06859 0.0
C3187 C 0.80011 0.95113 1.05791 0.0
C3188 C 0.8151 0.96529 1.04478 0.0
C3189 C 0.84391 0.96016 1.04236 0.0
C3190 C 0.85773 0.94054 1.05287 0.0
C3191 C 0.8428 0.92615 0.06591 0.0
H3192 H 0.85552 0.97132 1.03229 0.0
H3193 H 0.72351 0.82626 0.16026 0.0
H3194 H 0.35644 0.55348 0.9297 0.0
H3195 H 0.36092 0.531 0.90125 0.0
H3196 H 0.31864 0.60125 0.87755 0.0
H3197 H 0.31302 0.62349 0.90685 0.0
H3198 H 0.30512 0.56179 0.85726 0.0
H3199 H 0.40126 0.57675 0.87534 0.0
H3200 H 0.44163 0.57293 0.89556 0.0
H3201 H 0.43528 0.48259 0.89393 0.0
H3202 H 0.39468 0.48589 0.87385 0.0
H3203 H 0.3212 0.48903 0.7729 0.0
H3204 H 0.31325 0.51044 0.80075 0.0
H3205 H 0.3996 0.49332 0.81516 0.0
H3206 H 0.40613 0.46878 0.78719 0.0
H3207 H 0.39141 0.50869 0.8416 0.0
H3208 H 0.2786 0.50551 0.83711 0.0
H3209 H 0.23552 0.51331 0.81961 0.0
H3210 H 0.27414 0.58529 0.7953 0.0
H3211 H 0.31748 0.57774 0.81263 0.0
C3212 C 0.34827 0.56482 0.91865 0.0
C3213 C 0.33483 0.59135 0.92161 0.0
C3214 C 0.35117 0.55161 0.90172 0.0
C3215 C 0.34144 0.56398 0.88589 0.0
C3216 C 0.32721 0.59034 0.88876 0.0
C3217 C 0.32399 0.60351 0.90594 0.0
C3218 C 0.34557 0.54939 0.86701 0.0
C3219 C 0.32433 0.55046 0.85397 0.0
C3220 C 0.37005 0.53364 0.86151 0.0
C3221 C 0.39485 0.53159 0.87319 0.0
C3222 C 0.40848 0.55609 0.87931 0.0
C3223 C 0.43136 0.55401 0.89076 0.0
C3224 C 0.44098 0.52754 0.89604 0.0
C3225 C 0.4278 0.50308 0.88983 0.0
C3226 C 0.40487 0.50503 0.8784 0.0
C3227 C 0.33863 0.48905 0.78204 0.0
C3228 C 0.36426 0.47569 0.77693 0.0
C3229 C 0.33419 0.50263 0.79879 0.0
C3230 C 0.35537 0.50544 0.8121 0.0
C3231 C 0.38156 0.49258 0.80658 0.0
C3232 C 0.38574 0.4782 0.78986 0.0
C3233 C 0.3509 0.52095 0.83105 0.0
C3234 C 0.37215 0.52007 0.84438 0.0
C3235 C 0.32638 0.537 0.83685 0.0
C3236 C 0.30132 0.54074 0.82581 0.0
C3237 C 0.2779 0.52284 0.82791 0.0
C3238 C 0.25348 0.52723 0.81806 0.0
C3239 C 0.25217 0.54968 0.80628 0.0
C3240 C 0.27528 0.5678 0.80434 0.0
C3241 C 0.29979 0.56344 0.81412 0.0
H3242 H 0.2332 0.55312 0.79872 0.0
H3243 H 0.45867 0.52598 0.90493 0.0
H3244 H 0.70373 0.0992 0.67978 0.0
H3245 H 0.72503 0.1082 0.65195 0.0
H3246 H 0.65017 0.07779 0.62618 0.0
H3247 H 0.62715 0.07229 0.65517 0.0
H3248 H 0.66769 0.10475 0.60251 0.0
H3249 H 0.77338 0.1322 0.6282 0.0
H3250 H 0.80768 0.12197 0.65163 0.0
H3251 H 0.77976 0.03578 0.65285 0.0
H3252 H 0.74488 0.04573 0.62963 0.0
H3253 H 0.74442 0.148 0.52255 0.0
H3254 H 0.72039 0.14269 0.55089 0.0
H3255 H 0.78306 0.08227 0.56652 0.0
H3256 H 0.80804 0.08928 0.53866 0.0
H3257 H 0.77121 0.09926 0.59477 0.0
H3258 H 0.69503 0.07812 0.55341 0.0
H3259 H 0.66076 0.08836 0.52998 0.0
H3260 H 0.62991 0.15974 0.55917 0.0
H3261 H 0.66466 0.15064 0.58245 0.0
C3262 C 0.691 0.09504 0.66847 0.0
C3263 C 0.66269 0.08571 0.67095 0.0
C3264 C 0.70419 0.09919 0.6517 0.0
C3265 C 0.69093 0.09293 0.63539 0.0
C3266 C 0.66238 0.08313 0.6377 0.0
C3267 C 0.64878 0.07968 0.65476 0.0
C3268 C 0.70614 0.09718 0.6166 0.0
C3269 C 0.69041 0.10329 0.60117 0.0
C3270 C 0.73619 0.09594 0.61326 0.0
C3271 C 0.75643 0.08975 0.62738 0.0
C3272 C 0.77458 0.11109 0.63351 0.0
C3273 C 0.79402 0.10538 0.64677 0.0
C3274 C 0.79586 0.07824 0.65374 0.0
C3275 C 0.77816 0.05682 0.64751 0.0
C3276 C 0.75843 0.06251 0.63438 0.0
C3277 C 0.75345 0.13359 0.53193 0.0
C3278 C 0.7791 0.11945 0.52745 0.0
C3279 C 0.73898 0.12999 0.54858 0.0
C3280 C 0.74837 0.11119 0.56201 0.0
C3281 C 0.77408 0.09709 0.55737 0.0
C3282 C 0.78881 0.10113 0.54091 0.0
C3283 C 0.73275 0.10653 0.58059 0.0
C3284 C 0.74844 0.10039 0.59601 0.0
C3285 C 0.70271 0.10794 0.58388 0.0
C3286 C 0.68265 0.11387 0.56956 0.0
C3287 C 0.68113 0.09615 0.55473 0.0
C3288 C 0.66157 0.10171 0.5415 0.0
C3289 C 0.64308 0.12455 0.54312 0.0
C3290 C 0.64425 0.14207 0.55791 0.0
C3291 C 0.66396 0.13681 0.57108 0.0
H3292 H 0.62784 0.12867 0.5329 0.0
H3293 H 0.81102 0.07382 0.66394 0.0
H3294 H 0.12423 0.4227 0.42394 0.0
H3295 H 0.11975 0.44505 0.39505 0.0
H3296 H 0.20763 0.42952 0.38481 0.0
H3297 H 0.21191 0.40623 0.41366 0.0
H3298 H 0.19189 0.48558 0.372 0.0
H3299 H 0.15605 0.39216 0.36303 0.0
H3300 H 0.12537 0.35163 0.36987 0.0
H3301 H 0.05186 0.40253 0.36112 0.0
H3302 H 0.08214 0.44354 0.35451 0.0
H3303 H 0.18793 0.53118 0.28093 0.0
H3304 H 0.1937 0.50822 0.30924 0.0
H3305 H 0.10441 0.4922 0.31133 0.0
H3306 H 0.09889 0.51531 0.28267 0.0
H3307 H 0.12117 0.45202 0.329 0.0
H3308 H 0.1527 0.54524 0.34013 0.0
H3309 H 0.17978 0.58962 0.33835 0.0
H3310 H 0.25698 0.54409 0.34617 0.0
H3311 H 0.2304 0.49936 0.34777 0.0
C3312 C 0.14282 0.42364 0.41567 0.0
C3313 C 0.16845 0.41162 0.42196 0.0
C3314 C 0.14018 0.43677 0.39869 0.0
C3315 C 0.16315 0.43974 0.38667 0.0
C3316 C 0.189 0.42821 0.39306 0.0
C3317 C 0.19147 0.41437 0.40991 0.0
C3318 C 0.15996 0.45416 0.36784 0.0
C3319 C 0.17666 0.47765 0.36261 0.0
C3320 C 0.13958 0.44571 0.35493 0.0
C3321 C 0.12135 0.42097 0.3584 0.0
C3322 C 0.13333 0.39475 0.36264 0.0
C3323 C 0.11602 0.37169 0.36649 0.0
C3324 C 0.08668 0.37451 0.36596 0.0
C3325 C 0.0746 0.40038 0.36153 0.0
C3326 C 0.09182 0.42354 0.35772 0.0
C3327 C 0.16915 0.52359 0.28739 0.0
C3328 C 0.1427 0.52677 0.27873 0.0
C3329 C 0.1725 0.50997 0.30417 0.0
C3330 C 0.14959 0.49831 0.31402 0.0
C3331 C 0.12314 0.50063 0.30509 0.0
C3332 C 0.11983 0.51427 0.2882 0.0
C3333 C 0.15327 0.48369 0.3329 0.0
C3334 C 0.1366 0.46006 0.33822 0.0
C3335 C 0.17329 0.49247 0.34609 0.0
C3336 C 0.18956 0.51893 0.34396 0.0
C3337 C 0.17548 0.54465 0.34127 0.0
C3338 C 0.19072 0.56987 0.34037 0.0
C3339 C 0.22002 0.56968 0.34235 0.0
C3340 C 0.23424 0.5442 0.3448 0.0
C3341 C 0.21911 0.51891 0.34568 0.0
H3342 H 0.23172 0.58928 0.34195 0.0
H3343 H 0.0733 0.35664 0.36896 0.0
H3344 H 0.62315 0.58312 0.46085 0.0
H3345 H 0.64497 0.58856 0.4901 0.0
H3346 H 0.72679 0.59552 0.46585 0.0
H3347 H 0.70522 0.58957 0.43708 0.0
H3348 H 0.73738 0.56915 0.49408 0.0
H3349 H 0.68391 0.65503 0.48882 0.0
H3350 H 0.63973 0.68108 0.48345 0.0
H3351 H 0.60037 0.63958 0.52715 0.0
H3352 H 0.64431 0.61314 0.53269 0.0
H3353 H 0.81468 0.60192 0.57385 0.0
H3354 H 0.79217 0.59696 0.54557 0.0
H3355 H 0.71311 0.62386 0.56828 0.0
H3356 H 0.73695 0.63136 0.5965 0.0
H3357 H 0.69908 0.63262 0.54009 0.0
H3358 H 0.74568 0.53832 0.5402 0.0
H3359 H 0.78447 0.50366 0.5409 0.0
H3360 H 0.83371 0.55543 0.50621 0.0
H3361 H 0.79457 0.58977 0.50473 0.0
C3362 C 0.64581 0.58587 0.46156 0.0
C3363 C 0.66171 0.58641 0.44563 0.0
C3364 C 0.65864 0.58933 0.4787 0.0
C3365 C 0.68837 0.59332 0.48124 0.0
C3366 C 0.70409 0.59295 0.4653 0.0
C3367 C 0.69131 0.58979 0.44832 0.0
C3368 C 0.70327 0.59743 0.49987 0.0
C3369 C 0.72881 0.58336 0.50395 0.0
C3370 C 0.69313 0.61523 0.51383 0.0
C3371 C 0.66731 0.63211 0.51114 0.0
C3372 C 0.66584 0.65155 0.49731 0.0
C3373 C 0.64085 0.66633 0.49422 0.0
C3374 C 0.61725 0.66197 0.50495 0.0
C3375 C 0.61868 0.64296 0.51887 0.0
C3376 C 0.64364 0.62812 0.52202 0.0
C3377 C 0.79239 0.60678 0.57308 0.0
C3378 C 0.77841 0.61702 0.58843 0.0
C3379 C 0.77871 0.60323 0.55631 0.0
C3380 C 0.74931 0.60847 0.55336 0.0
C3381 C 0.73538 0.61902 0.56885 0.0
C3382 C 0.74936 0.62339 0.58558 0.0
C3383 C 0.73363 0.60392 0.53474 0.0
C3384 C 0.70787 0.61817 0.53047 0.0
C3385 C 0.7433 0.58579 0.5206 0.0
C3386 C 0.76757 0.56675 0.52266 0.0
C3387 C 0.76493 0.5424 0.5329 0.0
C3388 C 0.78684 0.5227 0.53327 0.0
C3389 C 0.81165 0.52743 0.52368 0.0
C3390 C 0.81452 0.55182 0.51364 0.0
C3391 C 0.79241 0.57127 0.51291 0.0
H3392 H 0.82862 0.51217 0.52398 0.0
H3393 H 0.59787 0.67334 0.50249 0.0
H3394 H 0.19035 0.95673 0.68982 0.0
H3395 H 0.18427 0.97898 0.71873 0.0
H3396 H 0.14745 0.9024 0.73822 0.0
H3397 H 0.15386 0.88004 0.70902 0.0
H3398 H 0.11739 0.94638 0.75299 0.0
H3399 H 0.21678 0.92892 0.74993 0.0
H3400 H 0.26473 0.9317 0.73731 0.0
H3401 H 0.26239 0.02207 0.74113 0.0
H3402 H 0.21421 0.01988 0.7535 0.0
H3403 H 0.09801 0.03841 0.83046 0.0
H3404 H 0.10315 0.01558 0.80178 0.0
H3405 H 0.18907 0.99415 0.81399 0.0
H3406 H 0.18379 0.01733 0.84259 0.0
H3407 H 0.19482 0.99727 0.78298 0.0
H3408 H 0.08282 0.99931 0.7655 0.0
H3409 H 0.03392 0.9932 0.77625 0.0
H3410 H 0.06187 0.92964 0.81214 0.0
H3411 H 0.11104 0.93588 0.8018 0.0
C3412 C 0.18079 0.94436 0.70007 0.0
C3413 C 0.17264 0.91608 0.69617 0.0
C3414 C 0.17746 0.95732 0.71711 0.0
C3415 C 0.16524 0.94316 0.73172 0.0
C3416 C 0.15692 0.91479 0.72787 0.0
C3417 C 0.16084 0.90161 0.71081 0.0
C3418 C 0.16108 0.95776 0.75049 0.0
C3419 C 0.13464 0.9574 0.75936 0.0
C3420 C 0.1827 0.97285 0.75982 0.0
C3421 C 0.21173 0.97424 0.75249 0.0
C3422 C 0.22638 0.94941 0.74796 0.0
C3423 C 0.25362 0.95087 0.74086 0.0
C3424 C 0.26657 0.97705 0.73837 0.0
C3425 C 0.25232 1.00181 0.74303 0.0
C3426 C 0.22504 1.00047 0.75009 0.0
C3427 C 0.11803 0.02857 0.82735 0.0
C3428 C 0.14029 0.03056 0.83981 0.0
C3429 C 0.12109 0.01476 0.81041 0.0
C3430 C 0.14663 1.00143 0.80447 0.0
C3431 C 0.16882 0.00357 0.81705 0.0
C3432 C 0.16573 0.01731 0.83395 0.0
C3433 C 0.15081 0.98624 0.78568 0.0
C3434 C 0.17744 0.98634 0.77673 0.0
C3435 C 0.12932 0.97111 0.77611 0.0
C3436 C 0.10046 0.9684 0.78314 0.0
C3437 C 0.07847 0.98422 0.77579 0.0
C3438 C 0.05077 0.98077 0.78182 0.0
C3439 C 0.04481 0.96112 0.79492 0.0
C3440 C 0.06657 0.94502 0.80211 0.0
C3441 C 0.09438 0.94867 0.79628 0.0
H3442 H 0.02332 0.9583 0.79947 0.0
H3443 H 0.28766 0.97813 0.73288 0.0
H3444 H 0.80176 0.43333 0.93882 0.0
H3445 H 0.78101 0.42853 0.96813 0.0
H3446 H 0.86119 0.4016 0.98808 0.0
H3447 H 0.88251 0.40736 0.95851 0.0
H3448 H 0.81739 0.36785 1.00326 0.0
H3449 H 0.8305 0.46791 0.99833 0.0
H3450 H 0.82516 0.51504 0.98525 0.0
H3451 H 0.735 0.50846 0.98979 0.0
H3452 H 0.73976 0.46106 1.00261 0.0
H3453 H 0.76377 0.361 0.0937 0.0
H3454 H 0.78906 0.36702 0.06583 0.0
H3455 H 0.72736 0.42819 1.04975 0.0
H3456 H 0.70364 0.42346 0.07804 0.0
H3457 H 0.7639 0.44494 1.03212 0.0
H3458 H 0.74751 0.3448 1.03253 0.0
H3459 H 0.74948 0.29592 1.04345 0.0
H3460 H 0.84002 0.30018 1.04493 0.0
H3461 H 0.83855 0.34918 1.03422 0.0
C3462 C 0.81551 0.42665 0.94932 0.0
C3463 C 0.84454 0.42118 0.94542 0.0
C3464 C 0.80324 0.42385 0.96654 0.0
C3465 C 0.81876 0.41461 0.98135 0.0
C3466 C 0.84782 0.4088 0.97754 0.0
C3467 C 0.86038 0.41235 0.96027 0.0
C3468 C 0.80467 0.41096 1.00025 0.0
C3469 C 0.80606 0.38507 1.00952 0.0
C3470 C 0.7884 0.43233 1.00911 0.0
C3471 C 0.78549 0.46075 1.00126 0.0
C3472 C 0.80952 0.47636 0.99637 0.0
C3473 C 0.8066 0.50317 0.98903 0.0
C3474 C 0.77976 0.5147 0.98665 0.0
C3475 C 0.75578 0.49947 0.99161 0.0
C3476 C 0.75858 0.47263 0.99892 0.0
C3477 C 0.75531 0.37579 0.08433 0.0
C3478 C 0.73076 0.39153 0.08902 0.0
C3479 C 0.76994 0.37908 0.0677 0.0
C3480 C 0.76074 0.39772 1.05409 0.0
C3481 C 0.73623 0.41346 0.059 0.0
C3482 C 0.72206 0.41059 0.07569 0.0
C3483 C 0.77614 0.40146 1.03537 0.0
C3484 C 0.77502 0.42749 1.02602 0.0
C3485 C 0.79197 0.37993 1.02617 0.0
C3486 C 0.79289 0.35073 1.03282 0.0
C3487 C 0.76781 0.33534 1.03531 0.0
C3488 C 0.76885 0.30763 1.04144 0.0
C3489 C 0.79485 0.29499 1.04495 0.0
C3490 C 0.81989 0.31002 1.04227 0.0
C3491 C 0.81897 0.33776 1.03618 0.0
H3492 H 0.79561 0.27353 1.04968 0.0
H3493 H 0.77755 0.53547 0.98099 0.0
H3494 H 0.33162 0.94524 0.3272 0.0
H3495 H 0.32248 0.97053 0.30024 0.0
H3496 H 0.38743 0.03028 0.31358 0.0
H3497 H 0.39372 0.00624 0.34186 0.0
H3498 H 0.35849 0.06034 0.29413 0.0
H3499 H 0.38471 0.96525 0.27552 0.0
H3500 H 0.37969 0.91341 0.27608 0.0
H3501 H 0.29281 0.9207 0.26088 0.0
H3502 H 0.29737 0.97259 0.2602 0.0
H3503 H 0.31263 0.12353 0.21047 0.0
H3504 H 0.31677 0.10151 0.23958 0.0
H3505 H 0.35765 0.02965 0.21596 0.0
H3506 H 0.35265 0.05118 0.18728 0.0
H3507 H 0.33456 0.00625 0.24044 0.0
H3508 H 0.319 0.1031 0.28309 0.0
H3509 H 0.32601 0.15469 0.28177 0.0
H3510 H 0.39754 0.1429 0.24765 0.0
H3511 H 0.39083 0.09127 0.24873 0.0
C3512 C 0.34364 0.96412 0.32487 0.0
C3513 C 0.36334 0.97297 0.33785 0.0
C3514 C 0.33904 0.97861 0.30857 0.0
C3515 C 0.35475 0.00282 0.3032 0.0
C3516 C 0.37459 0.01189 0.31621 0.0
C3517 C 0.37866 0.99757 0.33282 0.0
C3518 C 0.35052 0.01815 0.28461 0.0
C3519 C 0.35323 0.04798 0.28259 0.0
C3520 C 0.3437 0.00381 0.26842 0.0
C3521 C 0.34136 0.97272 0.26789 0.0
C3522 C 0.3646 0.95575 0.27221 0.0
C3523 C 0.36182 0.92639 0.27258 0.0
C3524 C 0.33594 0.91378 0.26853 0.0
C3525 C 0.31285 0.9305 0.26398 0.0
C3526 C 0.31554 0.95987 0.26353 0.0
C3527 C 0.32268 0.10308 0.21129 0.0
C3528 C 0.33268 0.09006 0.19552 0.0
C3529 C 0.32545 0.09018 0.22846 0.0
C3530 C 0.33847 0.06322 0.23126 0.0
C3531 C 0.34771 0.05017 0.21537 0.0
C3532 C 0.34501 0.06303 0.1984 0.0
C3533 C 0.34236 0.04837 0.24998 0.0
C3534 C 0.33974 0.0186 0.252 0.0
C3535 C 0.34949 0.06271 0.26607 0.0
C3536 C 0.35438 0.09346 0.26597 0.0
C3537 C 0.33634 0.11156 0.27543 0.0
C3538 C 0.34018 0.14078 0.27466 0.0
C3539 C 0.36219 0.15206 0.26462 0.0
C3540 C 0.38048 0.13414 0.25539 0.0
C3541 C 0.37664 0.10492 0.25605 0.0
H3542 H 0.36508 0.17468 0.264 0.0
H3543 H 0.33381 0.89107 0.26889 0.0
H3544 H 0.37429 0.44505 0.65662 0.0
H3545 H 0.35302 0.43943 0.62738 0.0
H3546 H 0.28854 0.38626 0.64945 0.0
H3547 H 0.31051 0.39085 0.67802 0.0
H3548 H 0.28835 0.36595 0.62122 0.0
H3549 H 0.28153 0.47097 0.6226 0.0
H3550 H 0.30002 0.51956 0.62464 0.0
H3551 H 0.36756 0.49802 0.5892 0.0
H3552 H 0.34869 0.44959 0.58642 0.0
H3553 H 0.22703 0.34392 0.53359 0.0
H3554 H 0.25337 0.34774 0.56064 0.0
H3555 H 0.25533 0.43818 0.55532 0.0
H3556 H 0.23317 0.43329 0.52685 0.0
H3557 H 0.28824 0.43977 0.57585 0.0
H3558 H 0.29996 0.32746 0.58871 0.0
H3559 H 0.27756 0.28056 0.58598 0.0
H3560 H 0.19614 0.31763 0.59556 0.0
H3561 H 0.21814 0.36481 0.59812 0.0
C3562 C 0.35564 0.43198 0.65543 0.0
C3563 C 0.34498 0.41843 0.67079 0.0
C3564 C 0.3427 0.42898 0.6382 0.0
C3565 C 0.31776 0.41245 0.63485 0.0
C3566 C 0.30739 0.39908 0.65031 0.0
C3567 C 0.32034 0.40193 0.66733 0.0
C3568 C 0.3028 0.40813 0.61601 0.0
C3569 C 0.28839 0.38264 0.61157 0.0
C3570 C 0.30173 0.42845 0.60208 0.0
C3571 C 0.31398 0.45675 0.6045 0.0
C3572 C 0.30043 0.47661 0.61537 0.0
C3573 C 0.31084 0.50414 0.61653 0.0
C3574 C 0.33506 0.51184 0.60713 0.0
C3575 C 0.34882 0.49204 0.59646 0.0
C3576 C 0.33815 0.46464 0.59497 0.0
C3577 C 0.23314 0.36477 0.53793 0.0
C3578 C 0.22622 0.3882 0.52717 0.0
C3579 C 0.24819 0.36732 0.55444 0.0
C3580 C 0.25678 0.39373 0.56225 0.0
C3581 C 0.24995 0.41703 0.55116 0.0
C3582 C 0.23599 0.4143 0.53437 0.0
C3583 C 0.27277 0.39767 0.58099 0.0
C3584 C 0.28754 0.42311 0.58547 0.0
C3585 C 0.27401 0.37732 0.59504 0.0
C3586 C 0.26056 0.34949 0.59337 0.0
C3587 C 0.27727 0.32551 0.5902 0.0
C3588 C 0.26467 0.29896 0.58864 0.0
C3589 C 0.23543 0.29614 0.59053 0.0
C3590 C 0.21875 0.31989 0.594 0.0
C3591 C 0.23124 0.34655 0.59543 0.0
H3592 H 0.22571 0.27555 0.58935 0.0
H3593 H 0.34313 0.53316 0.60808 0.0
H3594 H 0.79244 0.10239 0.41007 0.0
H3595 H 0.7976 0.07912 0.38116 0.0
H3596 H 0.87954 0.04881 0.39598 0.0
H3597 H 0.87429 0.07175 0.4248 0.0
H3598 H 0.88441 0.06274 0.36215 0.0
H3599 H 0.81518 0.00509 0.39095 0.0
H3600 H 0.77033 0.9952 0.40629 0.0
H3601 H 0.7239 0.02697 0.36235 0.0
H3602 H 0.76852 0.03737 0.34682 0.0
H3603 H 0.90578 0.96798 0.28664 0.0
H3604 H 0.90032 0.99185 0.31528 0.0
H3605 H 0.81346 0.00944 0.30348 0.0
H3606 H 0.81928 0.98671 0.27477 0.0
H3607 H 0.81026 1.00223 0.33606 0.0
H3608 H 0.87505 0.06471 0.30857 0.0
H3609 H 0.91766 0.08237 0.29352 0.0
H3610 H 0.96981 0.04715 0.3338 0.0
H3611 H 0.92736 0.02983 0.34931 0.0
C3612 C 0.81176 0.09097 0.40732 0.0
C3613 C 0.83289 0.08981 0.42056 0.0
C3614 C 0.8147 0.0771 0.39044 0.0
C3615 C 0.83914 0.06124 0.38541 0.0
C3616 C 0.86031 0.06044 0.39861 0.0
C3617 C 0.85718 0.07387 0.41553 0.0
C3618 C 0.84294 0.04602 0.36683 0.0
C3619 C 0.86812 0.04916 0.35679 0.0
C3620 C 0.82204 0.02855 0.35852 0.0
C3621 C 0.79521 0.02224 0.36778 0.0
C3622 C 0.79541 0.01014 0.3846 0.0
C3623 C 0.77003 0.00441 0.39332 0.0
C3624 C 0.74428 0.01051 0.38531 0.0
C3625 C 0.74387 0.02228 0.36854 0.0
C3626 C 0.7692 0.02807 0.35976 0.0
C3627 C 0.88547 0.97713 0.28985 0.0
C3628 C 0.86307 0.97435 0.27752 0.0
C3629 C 0.88221 0.99122 0.30669 0.0
C3630 C 0.85621 0.00353 0.31265 0.0
C3631 C 0.83393 1.00064 0.30027 0.0
C3632 C 0.83734 0.98704 0.2834 0.0
C3633 C 0.852 0.01876 0.33131 0.0
C3634 C 0.82669 0.01564 0.3414 0.0
C3635 C 0.87255 0.03673 0.33957 0.0
C3636 C 0.89813 0.04556 0.3299 0.0
C3637 C 0.89564 0.06046 0.3141 0.0
C3638 C 0.91973 0.07058 0.30556 0.0
C3639 C 0.94646 0.06561 0.31259 0.0
C3640 C 0.94911 0.05081 0.3283 0.0
C3641 C 0.92504 0.04097 0.33702 0.0
H3642 H 0.9651 0.07337 0.30591 0.0
H3643 H 0.72465 0.00606 0.39208 0.0
H3644 H 0.15689 0.54144 0.16343 0.0
H3645 H 0.18051 0.54624 0.13461 0.0
H3646 H 0.19467 0.63426 0.14516 0.0
H3647 H 0.17136 0.62936 0.17381 0.0
H3648 H 0.1847 0.63347 0.11193 0.0
H3649 H 0.25006 0.57605 0.14266 0.0
H3650 H 0.27347 0.53631 0.1574 0.0
H3651 H 0.25036 0.48093 0.11501 0.0
H3652 H 0.22647 0.52023 0.1001 0.0
H3653 H 0.27421 0.65736 1.03402 0.0
H3654 H 0.25094 0.65295 0.06268 0.0
H3655 H 0.25181 0.56261 1.05711 0.0
H3656 H 0.27554 0.56723 1.02865 0.0
H3657 H 0.2539 0.56489 0.08836 0.0
H3658 H 0.18819 0.62198 1.05774 0.0
H3659 H 0.16551 0.66166 1.0423 0.0
H3660 H 0.18959 0.71785 0.08398 0.0
H3661 H 0.21159 0.6783 0.09979 0.0
C3662 C 0.1648 0.56201 0.15975 0.0
C3663 C 0.16134 0.58492 0.17183 0.0
C3664 C 0.17895 0.5648 0.1429 0.0
C3665 C 0.19049 0.59083 0.13663 0.0
C3666 C 0.18661 0.61368 0.14867 0.0
C3667 C 0.17296 0.61077 0.16556 0.0
C3668 C 0.20568 0.59463 0.11792 0.0
C3669 C 0.2001 0.61837 0.1071 0.0
C3670 C 0.22574 0.57538 0.11023 0.0
C3671 C 0.23635 0.55106 0.12031 0.0
C3672 C 0.2494 0.55527 0.13666 0.0
C3673 C 0.26291 0.53287 0.14499 0.0
C3674 C 0.26361 0.50625 0.13703 0.0
C3675 C 0.24991 0.50164 0.12108 0.0
C3676 C 0.23634 0.52394 0.11271 0.0
C3677 C 0.26931 0.6364 1.03858 0.0
C3678 C 0.2774 0.61286 1.02793 0.0
C3679 C 0.25535 0.63371 1.0555 0.0
C3680 C 0.24796 0.60719 0.06324 0.0
C3681 C 0.25634 0.58371 1.05255 0.0
C3682 C 0.2703 0.58642 1.03571 0.0
C3683 C 0.23267 0.60359 0.08206 0.0
C3684 C 0.23834 0.57995 0.09301 0.0
C3685 C 0.21253 0.62288 0.08983 0.0
C3686 C 0.20156 0.64715 0.07982 0.0
C3687 C 0.1886 0.64279 0.0635 0.0
C3688 C 0.17588 0.66522 1.05473 0.0
C3689 C 0.17625 0.69225 0.06211 0.0
C3690 C 0.18935 0.69689 0.07827 0.0
C3691 C 0.20185 0.67444 0.08716 0.0
H3692 H 0.16632 0.70958 1.05532 0.0
H3693 H 0.27519 0.4893 0.14303 0.0
H3694 H 0.70636 0.9008 0.91037 0.0
H3695 H 0.70181 0.92279 0.88138 0.0
H3696 H 0.62214 0.95861 0.89712 0.0
H3697 H 0.62614 0.93532 0.92561 0.0
H3698 H 0.61384 0.95113 0.86539 0.0
H3699 H 0.69938 0.99599 0.88782 0.0
H3700 H 0.74792 0.99552 0.89952 0.0
H3701 H 0.77622 0.94852 0.85439 0.0
H3702 H 0.72784 0.94864 0.84247 0.0
H3703 H 0.59778 0.04119 0.78812 0.0
H3704 H 0.60273 0.01834 0.81678 0.0
H3705 H 0.68729 0.99316 0.80308 0.0
H3706 H 0.68245 0.01662 0.77479 0.0
H3707 H 0.69416 0.99476 0.83396 0.0
H3708 H 0.61319 0.94439 0.81232 0.0
H3709 H 0.56536 0.93616 0.80063 0.0
H3710 H 0.52976 0.98599 0.84247 0.0
H3711 H 0.57736 0.99384 0.85468 0.0
C3712 C 0.68768 0.91324 0.90783 0.0
C3713 C 0.66683 0.91579 0.92133 0.0
C3714 C 0.68516 0.9266 0.89085 0.0
C3715 C 0.66173 0.94396 0.886 0.0
C3716 C 0.6408 0.94605 0.89948 0.0
C3717 C 0.64326 0.93258 0.91635 0.0
C3718 C 0.65838 0.95914 0.86734 0.0
C3719 C 0.63168 0.96098 0.85889 0.0
C3720 C 0.6809 0.97177 0.85733 0.0
C3721 C 0.70999 0.97219 0.86432 0.0
C3722 C 0.71597 0.98555 0.88042 0.0
C3723 C 0.74344 0.98534 0.88708 0.0
C3724 C 0.76513 0.97196 0.87771 0.0
C3725 C 0.75941 0.95888 0.86163 0.0
C3726 C 0.73199 0.95907 0.85489 0.0
C3727 C 0.6175 0.03067 0.79096 0.0
C3728 C 0.63956 0.03163 0.77818 0.0
C3729 C 0.62042 0.01687 0.80783 0.0
C3730 C 0.64551 1.0024 0.8133 0.0
C3731 C 0.66742 0.00348 0.8004 0.0
C3732 C 0.66454 0.01733 0.78366 0.0
C3733 C 0.64938 0.98701 0.83196 0.0
C3734 C 0.67621 0.98511 0.84043 0.0
C3735 C 0.62712 0.97366 0.84184 0.0
C3736 C 0.59877 0.97009 0.83421 0.0
C3737 C 0.59516 0.9538 0.81891 0.0
C3738 C 0.5681 0.94911 0.81224 0.0
C3739 C 0.54457 0.96087 0.82065 0.0
C3740 C 0.54802 0.97705 0.8359 0.0
C3741 C 0.57499 0.98149 0.84276 0.0
H3742 H 0.52366 0.95728 0.81543 0.0
H3743 H 0.78636 0.97176 0.88291 0.0
loop_
_geom_bond_atom_site_label_1
_geom_bond_atom_site_label_2
_geom_bond_distance
_geom_bond_site_symmetry_2
_ccdc_geom_bond_type
Eu0 N29 2.600 . S
Eu0 N35 2.562 . S
Eu0 O44 2.462 . S
Eu0 O45 2.373 . S
Eu0 O47 2.432 . S
Eu0 O48 2.291 . S
Eu0 O52 2.335 . S
Eu0 O55 2.372 . S
Eu0 C64 2.787 . S
C1 N2 1.365 . S
C1 C4 1.405 . S
C1 C8 1.448 . S
N2 C1 1.365 . S
N2 C5 1.319 . S
N2 Eu11 2.600 . S
C3 C5 1.397 . S
C3 C6 1.367 . S
C3 H23 0.931 . S
C4 C1 1.405 . S
C4 C6 1.403 . S
C4 C10 1.439 . S
C5 N2 1.319 . S
C5 C3 1.397 . S
C5 H16 0.930 . S
C6 C3 1.367 . S
C6 C4 1.403 . S
C6 H27 0.929 . S
C7 C8 1.430 . S
C7 C9 1.387 . S
C7 C13 1.404 . S
C8 C1 1.448 . S
C8 C7 1.430 . S
C8 N12 1.351 . S
C9 C7 1.387 . S
C9 C10 1.374 . S
C9 H24 0.931 . S
C10 C4 1.439 . S
C10 C9 1.374 . S
C10 H25 0.931 . S
Eu11 N2 2.600 . S
Eu11 N12 2.562 . S
Eu11 O46 2.335 . S
Eu11 O49 2.372 . S
Eu11 O50 2.462 . S
Eu11 O51 2.373 . S
Eu11 O53 2.432 . S
Eu11 O54 2.291 . S
Eu11 C75 2.787 . S
N12 C8 1.351 . S
N12 Eu11 2.562 . S
N12 C14 1.325 . S
C13 C7 1.404 . S
C13 C15 1.366 . S
C13 H21 0.930 . S
C14 N12 1.325 . S
C14 C15 1.416 . S
C14 H20 0.929 . S
C15 C13 1.366 . S
C15 C14 1.416 . S
C15 H17 0.930 . S
H16 C5 0.930 . S
H17 C15 0.930 . S
H18 C33 0.930 . S
H19 C40 0.930 . S
H20 C14 0.929 . S
H21 C13 0.930 . S
H22 C36 0.929 . S
H23 C3 0.931 . S
H24 C9 0.931 . S
H25 C10 0.931 . S
H26 C31 0.931 . S
H27 C6 0.929 . S
H28 C39 0.930 . S
N29 Eu0 2.600 . S
N29 C30 1.365 . S
N29 C33 1.319 . S
C30 N29 1.365 . S
C30 C32 1.405 . S
C30 C38 1.448 . S
C31 H26 0.931 . S
C31 C33 1.397 . S
C31 C34 1.367 . S
C32 C30 1.405 . S
C32 C34 1.403 . S
C32 C65 1.439 . S
C33 H18 0.930 . S
C33 N29 1.319 . S
C33 C31 1.397 . S
C34 C31 1.367 . S
C34 C32 1.403 . S
C34 H41 0.929 . S
N35 Eu0 2.562 . S
N35 C36 1.325 . S
N35 C38 1.351 . S
C36 H22 0.929 . S
C36 N35 1.325 . S
C36 C40 1.416 . S
C37 C38 1.430 . S
C37 C39 1.404 . S
C37 C66 1.387 . S
C38 C30 1.448 . S
C38 N35 1.351 . S
C38 C37 1.430 . S
C39 H28 0.930 . S
C39 C37 1.404 . S
C39 C40 1.366 . S
C40 H19 0.930 . S
C40 C36 1.416 . S
C40 C39 1.366 . S
H41 C34 0.929 . S
H42 C65 0.931 . S
H43 C66 0.931 . S
O44 Eu0 2.462 . S
O44 C64 1.252 . S
O45 Eu0 2.373 . S
O45 C56 1.249 . S
O46 Eu11 2.335 . S
O46 C56 1.264 . S
O47 Eu0 2.432 . S
O47 C64 1.268 . S
O48 Eu0 2.291 . S
O48 C63 1.255 . S
O49 Eu11 2.372 . S
O49 C63 1.257 . S
O50 Eu11 2.462 . S
O50 C75 1.252 . S
O51 Eu11 2.373 . S
O51 C67 1.249 . S
O52 Eu0 2.335 . S
O52 C67 1.264 . S
O53 Eu11 2.432 . S
O53 C75 1.268 . S
O54 Eu11 2.291 . S
O54 C74 1.255 . S
O55 Eu0 2.372 . S
O55 C74 1.257 . S
C56 O45 1.249 . S
C56 O46 1.264 . S
C57 C60 1.382 . S
C57 C62 1.390 . S
C57 C64 1.506 . S
C58 C59 1.398 . S
C58 C62 1.392 . S
C59 C58 1.398 . S
C59 C61 1.372 . S
C59 H76 0.931 1_545 S
C60 C57 1.382 . S
C60 C61 1.390 . S
C60 H77 0.931 . S
C61 C59 1.372 . S
C61 C60 1.390 . S
C61 H78 0.929 1_545 S
C62 C57 1.390 . S
C62 C58 1.392 . S
C62 H79 0.930 . S
C63 O48 1.255 . S
C63 O49 1.257 . S
C64 Eu0 2.787 . S
C64 O44 1.252 . S
C64 O47 1.268 . S
C64 C57 1.506 . S
C65 C32 1.439 . S
C65 H42 0.931 . S
C65 C66 1.374 . S
C66 C37 1.387 . S
C66 H43 0.931 . S
C66 C65 1.374 . S
C67 O51 1.249 . S
C67 O52 1.264 . S
C68 C71 1.382 . S
C68 C72 1.390 . S
C68 C75 1.506 . S
C69 C70 1.398 . S
C69 C72 1.392 . S
C70 C69 1.398 . S
C70 C73 1.372 . S
C70 H80 0.931 . S
C71 C68 1.382 . S
C71 C73 1.390 . S
C71 H81 0.931 . S
C72 C68 1.390 . S
C72 C69 1.392 . S
C72 H82 0.930 . S
C73 C70 1.372 . S
C73 C71 1.390 . S
C73 H83 0.929 . S
C74 O54 1.255 . S
C74 O55 1.257 . S
C75 Eu11 2.787 . S
C75 O50 1.252 . S
C75 O53 1.268 . S
C75 C68 1.506 . S
H76 C59 0.931 1_565 S
H77 C60 0.931 . S
H78 C61 0.929 1_565 S
H79 C62 0.930 . S
H80 C70 0.931 . S
H81 C71 0.931 . S
H82 C72 0.930 . S
H83 C73 0.929 . S
Eu84 N113 2.600 . S
Eu84 N119 2.562 . S
Eu84 O128 2.462 . S
Eu84 O129 2.373 . S
Eu84 O131 2.432 . S
Eu84 O132 2.291 . S
Eu84 O136 2.335 . S
Eu84 O139 2.372 . S
Eu84 C148 2.787 . S
C85 N86 1.365 . S
C85 C88 1.405 . S
C85 C92 1.448 . S
N86 C85 1.365 . S
N86 C89 1.319 . S
N86 Eu95 2.600 . S
C87 C89 1.397 . S
C87 C90 1.367 . S
C87 H107 0.931 . S
C88 C85 1.405 . S
C88 C90 1.403 . S
C88 C94 1.439 . S
C89 N86 1.319 . S
C89 C87 1.397 . S
C89 H100 0.930 . S
C90 C87 1.367 . S
C90 C88 1.403 . S
C90 H111 0.929 . S
C91 C92 1.430 . S
C91 C93 1.387 . S
C91 C97 1.404 . S
C92 C85 1.448 . S
C92 C91 1.430 . S
C92 N96 1.351 . S
C93 C91 1.387 . S
C93 C94 1.374 . S
C93 H108 0.931 . S
C94 C88 1.439 . S
C94 C93 1.374 . S
C94 H109 0.931 . S
Eu95 N86 2.600 . S
Eu95 N96 2.562 . S
Eu95 O130 2.335 . S
Eu95 O133 2.372 . S
Eu95 O134 2.462 . S
Eu95 O135 2.373 . S
Eu95 O137 2.432 . S
Eu95 O138 2.291 . S
Eu95 C159 2.787 . S
N96 C92 1.351 . S
N96 Eu95 2.562 . S
N96 C98 1.325 . S
C97 C91 1.404 . S
C97 C99 1.366 . S
C97 H105 0.930 . S
C98 N96 1.325 . S
C98 C99 1.416 . S
C98 H104 0.929 . S
C99 C97 1.366 . S
C99 C98 1.416 . S
C99 H101 0.930 . S
H100 C89 0.930 . S
H101 C99 0.930 . S
H102 C117 0.930 . S
H103 C124 0.930 . S
H104 C98 0.929 . S
H105 C97 0.930 . S
H106 C120 0.929 . S
H107 C87 0.931 . S
H108 C93 0.931 . S
H109 C94 0.931 . S
H110 C115 0.931 . S
H111 C90 0.929 . S
H112 C123 0.930 . S
N113 Eu84 2.600 . S
N113 C114 1.365 . S
N113 C117 1.319 . S
C114 N113 1.365 . S
C114 C116 1.405 . S
C114 C122 1.448 . S
C115 H110 0.931 . S
C115 C117 1.397 . S
C115 C118 1.367 . S
C116 C114 1.405 . S
C116 C118 1.403 . S
C116 C149 1.439 . S
C117 H102 0.930 . S
C117 N113 1.319 . S
C117 C115 1.397 . S
C118 C115 1.367 . S
C118 C116 1.403 . S
C118 H125 0.929 . S
N119 Eu84 2.562 . S
N119 C120 1.325 . S
N119 C122 1.351 . S
C120 H106 0.929 . S
C120 N119 1.325 . S
C120 C124 1.416 . S
C121 C122 1.430 . S
C121 C123 1.404 . S
C121 C150 1.387 . S
C122 C114 1.448 . S
C122 N119 1.351 . S
C122 C121 1.430 . S
C123 H112 0.930 . S
C123 C121 1.404 . S
C123 C124 1.366 . S
C124 H103 0.930 . S
C124 C120 1.416 . S
C124 C123 1.366 . S
H125 C118 0.929 . S
H126 C149 0.931 . S
H127 C150 0.931 . S
O128 Eu84 2.462 . S
O128 C148 1.252 . S
O129 Eu84 2.373 . S
O129 C140 1.249 . S
O130 Eu95 2.335 . S
O130 C140 1.264 . S
O131 Eu84 2.432 . S
O131 C148 1.268 . S
O132 Eu84 2.291 . S
O132 C147 1.255 . S
O133 Eu95 2.372 . S
O133 C147 1.257 . S
O134 Eu95 2.462 . S
O134 C159 1.252 . S
O135 Eu95 2.373 . S
O135 C151 1.249 . S
O136 Eu84 2.335 . S
O136 C151 1.264 . S
O137 Eu95 2.432 . S
O137 C159 1.268 . S
O138 Eu95 2.291 . S
O138 C158 1.255 . S
O139 Eu84 2.372 . S
O139 C158 1.257 . S
C140 O129 1.249 . S
C140 O130 1.264 . S
C141 C144 1.382 . S
C141 C146 1.390 . S
C141 C148 1.506 . S
C142 C143 1.398 . S
C142 C146 1.392 . S
C143 C142 1.398 . S
C143 C145 1.372 . S
C143 H160 0.931 . S
C144 C141 1.382 . S
C144 C145 1.390 . S
C144 H161 0.931 . S
C145 C143 1.372 . S
C145 C144 1.390 . S
C145 H162 0.929 . S
C146 C141 1.390 . S
C146 C142 1.392 . S
C146 H163 0.930 . S
C147 O132 1.255 . S
C147 O133 1.257 . S
C148 Eu84 2.787 . S
C148 O128 1.252 . S
C148 O131 1.268 . S
C148 C141 1.506 . S
C149 C116 1.439 . S
C149 H126 0.931 . S
C149 C150 1.374 . S
C150 C121 1.387 . S
C150 H127 0.931 . S
C150 C149 1.374 . S
C151 O135 1.249 . S
C151 O136 1.264 . S
C152 C155 1.382 . S
C152 C156 1.390 . S
C152 C159 1.506 . S
C153 C154 1.398 . S
C153 C156 1.392 . S
C154 C153 1.398 . S
C154 C157 1.372 . S
C154 H164 0.931 . S
C155 C152 1.382 . S
C155 C157 1.390 . S
C155 H165 0.931 . S
C156 C152 1.390 . S
C156 C153 1.392 . S
C156 H166 0.930 . S
C157 C154 1.372 . S
C157 C155 1.390 . S
C157 H167 0.929 . S
C158 O138 1.255 . S
C158 O139 1.257 . S
C159 Eu95 2.787 . S
C159 O134 1.252 . S
C159 O137 1.268 . S
C159 C152 1.506 . S
H160 C143 0.931 . S
H161 C144 0.931 . S
H162 C145 0.929 . S
H163 C146 0.930 . S
H164 C154 0.931 . S
H165 C155 0.931 . S
H166 C156 0.930 . S
H167 C157 0.929 . S
Eu168 N197 2.600 . S
Eu168 N203 2.562 . S
Eu168 O212 2.462 . S
Eu168 O213 2.373 . S
Eu168 O215 2.432 . S
Eu168 O216 2.291 . S
Eu168 O220 2.335 . S
Eu168 O223 2.372 . S
Eu168 C232 2.787 . S
C169 N170 1.365 . S
C169 C172 1.405 . S
C169 C176 1.448 . S
N170 C169 1.365 . S
N170 C173 1.319 . S
N170 Eu179 2.600 . S
C171 C173 1.397 . S
C171 C174 1.367 . S
C171 H191 0.931 . S
C172 C169 1.405 . S
C172 C174 1.403 . S
C172 C178 1.439 . S
C173 N170 1.319 . S
C173 C171 1.397 . S
C173 H184 0.930 . S
C174 C171 1.367 . S
C174 C172 1.403 . S
C174 H195 0.929 . S
C175 C176 1.430 . S
C175 C177 1.387 . S
C175 C181 1.404 . S
C176 C169 1.448 . S
C176 C175 1.430 . S
C176 N180 1.351 . S
C177 C175 1.387 . S
C177 C178 1.374 . S
C177 H192 0.931 . S
C178 C172 1.439 . S
C178 C177 1.374 . S
C178 H193 0.931 . S
Eu179 N170 2.600 . S
Eu179 N180 2.562 . S
Eu179 O214 2.335 . S
Eu179 O217 2.372 . S
Eu179 O218 2.462 . S
Eu179 O219 2.373 . S
Eu179 O221 2.432 . S
Eu179 O222 2.291 . S
Eu179 C243 2.787 . S
N180 C176 1.351 . S
N180 Eu179 2.562 . S
N180 C182 1.325 . S
C181 C175 1.404 . S
C181 C183 1.366 . S
C181 H189 0.930 . S
C182 N180 1.325 . S
C182 C183 1.416 . S
C182 H188 0.929 . S
C183 C181 1.366 . S
C183 C182 1.416 . S
C183 H185 0.930 . S
H184 C173 0.930 . S
H185 C183 0.930 . S
H186 C201 0.930 . S
H187 C208 0.930 . S
H188 C182 0.929 . S
H189 C181 0.930 . S
H190 C204 0.929 . S
H191 C171 0.931 . S
H192 C177 0.931 . S
H193 C178 0.931 . S
H194 C199 0.931 . S
H195 C174 0.929 . S
H196 C207 0.930 . S
N197 Eu168 2.600 . S
N197 C198 1.365 . S
N197 C201 1.319 . S
C198 N197 1.365 . S
C198 C200 1.405 . S
C198 C206 1.448 . S
C199 H194 0.931 . S
C199 C201 1.397 . S
C199 C202 1.367 . S
C200 C198 1.405 . S
C200 C202 1.403 . S
C200 C233 1.439 . S
C201 H186 0.930 . S
C201 N197 1.319 . S
C201 C199 1.397 . S
C202 C199 1.367 . S
C202 C200 1.403 . S
C202 H209 0.929 . S
N203 Eu168 2.562 . S
N203 C204 1.325 . S
N203 C206 1.351 . S
C204 H190 0.929 . S
C204 N203 1.325 . S
C204 C208 1.416 . S
C205 C206 1.430 . S
C205 C207 1.404 . S
C205 C234 1.387 . S
C206 C198 1.448 . S
C206 N203 1.351 . S
C206 C205 1.430 . S
C207 H196 0.930 . S
C207 C205 1.404 . S
C207 C208 1.366 . S
C208 H187 0.930 . S
C208 C204 1.416 . S
C208 C207 1.366 . S
H209 C202 0.929 . S
H210 C233 0.931 . S
H211 C234 0.931 . S
O212 Eu168 2.462 . S
O212 C232 1.252 . S
O213 Eu168 2.373 . S
O213 C224 1.249 . S
O214 Eu179 2.335 . S
O214 C224 1.264 . S
O215 Eu168 2.432 . S
O215 C232 1.268 . S
O216 Eu168 2.291 . S
O216 C231 1.255 . S
O217 Eu179 2.372 . S
O217 C231 1.257 . S
O218 Eu179 2.462 . S
O218 C243 1.252 . S
O219 Eu179 2.373 . S
O219 C235 1.249 . S
O220 Eu168 2.335 . S
O220 C235 1.264 . S
O221 Eu179 2.432 . S
O221 C243 1.268 . S
O222 Eu179 2.291 . S
O222 C242 1.255 . S
O223 Eu168 2.372 . S
O223 C242 1.257 . S
C224 O213 1.249 . S
C224 O214 1.264 . S
C225 C228 1.382 . S
C225 C230 1.390 . S
C225 C232 1.506 . S
C226 C227 1.398 . S
C226 C230 1.392 . S
C227 C226 1.398 . S
C227 C229 1.372 . S
C227 H244 0.931 1_565 S
C228 C225 1.382 . S
C228 C229 1.390 . S
C228 H245 0.931 . S
C229 C227 1.372 . S
C229 C228 1.390 . S
C229 H246 0.929 1_565 S
C230 C225 1.390 . S
C230 C226 1.392 . S
C230 H247 0.930 . S
C231 O216 1.255 . S
C231 O217 1.257 . S
C232 Eu168 2.787 . S
C232 O212 1.252 . S
C232 O215 1.268 . S
C232 C225 1.506 . S
C233 C200 1.439 . S
C233 H210 0.931 . S
C233 C234 1.374 . S
C234 C205 1.387 . S
C234 H211 0.931 . S
C234 C233 1.374 . S
C235 O219 1.249 . S
C235 O220 1.264 . S
C236 C239 1.382 . S
C236 C240 1.390 . S
C236 C243 1.506 . S
C237 C238 1.398 . S
C237 C240 1.392 . S
C238 C237 1.398 . S
C238 C241 1.372 . S
C238 H248 0.931 . S
C239 C236 1.382 . S
C239 C241 1.390 . S
C239 H249 0.931 . S
C240 C236 1.390 . S
C240 C237 1.392 . S
C240 H250 0.930 . S
C241 C238 1.372 . S
C241 C239 1.390 . S
C241 H251 0.929 . S
C242 O222 1.255 . S
C242 O223 1.257 . S
C243 Eu179 2.787 . S
C243 O218 1.252 . S
C243 O221 1.268 . S
C243 C236 1.506 . S
H244 C227 0.931 1_545 S
H245 C228 0.931 . S
H246 C229 0.929 1_545 S
H247 C230 0.930 . S
H248 C238 0.931 . S
H249 C239 0.931 . S
H250 C240 0.930 . S
H251 C241 0.929 . S
Eu252 N281 2.600 . S
Eu252 N287 2.562 . S
Eu252 O296 2.462 . S
Eu252 O297 2.373 . S
Eu252 O299 2.432 . S
Eu252 O300 2.291 . S
Eu252 O304 2.335 . S
Eu252 O307 2.372 . S
Eu252 C316 2.787 . S
C253 N254 1.365 . S
C253 C256 1.405 1_655 S
C253 C260 1.448 . S
N254 C253 1.365 . S
N254 C257 1.319 . S
N254 Eu263 2.600 . S
C255 C257 1.397 1_455 S
C255 C258 1.367 . S
C255 H275 0.931 . S
C256 C253 1.405 1_455 S
C256 C258 1.403 . S
C256 C262 1.439 . S
C257 N254 1.319 . S
C257 C255 1.397 1_655 S
C257 H268 0.930 . S
C258 C255 1.367 . S
C258 C256 1.403 . S
C258 H279 0.929 . S
C259 C260 1.430 . S
C259 C261 1.387 1_655 S
C259 C265 1.404 . S
C260 C253 1.448 . S
C260 C259 1.430 . S
C260 N264 1.351 . S
C261 C259 1.387 1_455 S
C261 C262 1.374 . S
C261 H276 0.931 . S
C262 C256 1.439 . S
C262 C261 1.374 . S
C262 H277 0.931 . S
Eu263 N254 2.600 . S
Eu263 N264 2.562 . S
Eu263 O298 2.335 . S
Eu263 O301 2.372 . S
Eu263 O302 2.462 . S
Eu263 O303 2.373 . S
Eu263 O305 2.432 . S
Eu263 O306 2.291 . S
Eu263 C327 2.787 . S
N264 C260 1.351 . S
N264 Eu263 2.562 . S
N264 C266 1.325 . S
C265 C259 1.404 . S
C265 C267 1.366 . S
C265 H273 0.930 . S
C266 N264 1.325 . S
C266 C267 1.416 . S
C266 H272 0.929 . S
C267 C265 1.366 . S
C267 C266 1.416 . S
C267 H269 0.930 . S
H268 C257 0.930 . S
H269 C267 0.930 . S
H270 C285 0.930 . S
H271 C292 0.930 . S
H272 C266 0.929 . S
H273 C265 0.930 . S
H274 C288 0.929 . S
H275 C255 0.931 . S
H276 C261 0.931 . S
H277 C262 0.931 . S
H278 C283 0.931 . S
H279 C258 0.929 . S
H280 C291 0.930 . S
N281 Eu252 2.600 . S
N281 C282 1.365 . S
N281 C285 1.319 . S
C282 N281 1.365 . S
C282 C284 1.405 . S
C282 C290 1.448 . S
C283 H278 0.931 . S
C283 C285 1.397 . S
C283 C286 1.367 . S
C284 C282 1.405 . S
C284 C286 1.403 . S
C284 C317 1.439 . S
C285 H270 0.930 . S
C285 N281 1.319 . S
C285 C283 1.397 . S
C286 C283 1.367 . S
C286 C284 1.403 . S
C286 H293 0.929 . S
N287 Eu252 2.562 . S
N287 C288 1.325 . S
N287 C290 1.351 . S
C288 H274 0.929 . S
C288 N287 1.325 . S
C288 C292 1.416 . S
C289 C290 1.430 . S
C289 C291 1.404 . S
C289 C318 1.387 . S
C290 C282 1.448 . S
C290 N287 1.351 . S
C290 C289 1.430 . S
C291 H280 0.930 . S
C291 C289 1.404 . S
C291 C292 1.366 . S
C292 H271 0.930 . S
C292 C288 1.416 . S
C292 C291 1.366 . S
H293 C286 0.929 . S
H294 C317 0.931 . S
H295 C318 0.931 . S
O296 Eu252 2.462 . S
O296 C316 1.252 . S
O297 Eu252 2.373 . S
O297 C308 1.249 . S
O298 Eu263 2.335 . S
O298 C308 1.264 . S
O299 Eu252 2.432 . S
O299 C316 1.268 . S
O300 Eu252 2.291 . S
O300 C315 1.255 . S
O301 Eu263 2.372 . S
O301 C315 1.257 . S
O302 Eu263 2.462 . S
O302 C327 1.252 . S
O303 Eu263 2.373 . S
O303 C319 1.249 . S
O304 Eu252 2.335 . S
O304 C319 1.264 . S
O305 Eu263 2.432 . S
O305 C327 1.268 . S
O306 Eu263 2.291 . S
O306 C326 1.255 . S
O307 Eu252 2.372 . S
O307 C326 1.257 . S
C308 O297 1.249 . S
C308 O298 1.264 . S
C309 C312 1.382 . S
C309 C314 1.390 . S
C309 C316 1.506 . S
C310 C311 1.398 . S
C310 C314 1.392 . S
C311 C310 1.398 . S
C311 C313 1.372 . S
C311 H328 0.931 . S
C312 C309 1.382 . S
C312 C313 1.390 . S
C312 H329 0.931 . S
C313 C311 1.372 . S
C313 C312 1.390 . S
C313 H330 0.929 . S
C314 C309 1.390 . S
C314 C310 1.392 . S
C314 H331 0.930 . S
C315 O300 1.255 . S
C315 O301 1.257 . S
C316 Eu252 2.787 . S
C316 O296 1.252 . S
C316 O299 1.268 . S
C316 C309 1.506 . S
C317 C284 1.439 . S
C317 H294 0.931 . S
C317 C318 1.374 . S
C318 C289 1.387 . S
C318 H295 0.931 . S
C318 C317 1.374 . S
C319 O303 1.249 . S
C319 O304 1.264 . S
C320 C323 1.382 1_655 S
C320 C324 1.390 . S
C320 C327 1.506 . S
C321 C322 1.398 . S
C321 C324 1.392 1_455 S
C322 C321 1.398 . S
C322 C325 1.372 . S
C322 H332 0.931 . S
C323 C320 1.382 1_455 S
C323 C325 1.390 . S
C323 H333 0.931 . S
C324 C320 1.390 . S
C324 C321 1.392 1_655 S
C324 H334 0.930 . S
C325 C322 1.372 . S
C325 C323 1.390 . S
C325 H335 0.929 . S
C326 O306 1.255 . S
C326 O307 1.257 . S
C327 Eu263 2.787 . S
C327 O302 1.252 . S
C327 O305 1.268 . S
C327 C320 1.506 . S
H328 C311 0.931 . S
H329 C312 0.931 . S
H330 C313 0.929 . S
H331 C314 0.930 . S
H332 C322 0.931 . S
H333 C323 0.931 . S
H334 C324 0.930 . S
H335 C325 0.929 . S
Eu336 N365 2.600 . S
Eu336 N371 2.562 . S
Eu336 O380 2.462 . S
Eu336 O381 2.373 . S
Eu336 O383 2.432 . S
Eu336 O384 2.291 . S
Eu336 O388 2.335 . S
Eu336 O391 2.372 . S
Eu336 C400 2.787 . S
C337 N338 1.365 . S
C337 C340 1.405 . S
C337 C344 1.448 . S
N338 C337 1.365 . S
N338 C341 1.319 . S
N338 Eu347 2.600 . S
C339 C341 1.397 . S
C339 C342 1.367 . S
C339 H359 0.931 . S
C340 C337 1.405 . S
C340 C342 1.403 . S
C340 C346 1.439 . S
C341 N338 1.319 . S
C341 C339 1.397 . S
C341 H352 0.930 . S
C342 C339 1.367 . S
C342 C340 1.403 . S
C342 H363 0.929 . S
C343 C344 1.430 . S
C343 C345 1.387 . S
C343 C349 1.404 . S
C344 C337 1.448 . S
C344 C343 1.430 . S
C344 N348 1.351 . S
C345 C343 1.387 . S
C345 C346 1.374 . S
C345 H360 0.931 . S
C346 C340 1.439 . S
C346 C345 1.374 . S
C346 H361 0.931 . S
Eu347 N338 2.600 . S
Eu347 N348 2.562 . S
Eu347 O382 2.335 . S
Eu347 O385 2.372 . S
Eu347 O386 2.462 . S
Eu347 O387 2.373 . S
Eu347 O389 2.432 . S
Eu347 O390 2.291 . S
Eu347 C411 2.787 . S
N348 C344 1.351 . S
N348 Eu347 2.562 . S
N348 C350 1.325 . S
C349 C343 1.404 . S
C349 C351 1.366 . S
C349 H357 0.930 . S
C350 N348 1.325 . S
C350 C351 1.416 . S
C350 H356 0.929 . S
C351 C349 1.366 . S
C351 C350 1.416 . S
C351 H353 0.930 . S
H352 C341 0.930 . S
H353 C351 0.930 . S
H354 C369 0.930 . S
H355 C376 0.930 . S
H356 C350 0.929 . S
H357 C349 0.930 . S
H358 C372 0.929 . S
H359 C339 0.931 . S
H360 C345 0.931 . S
H361 C346 0.931 . S
H362 C367 0.931 . S
H363 C342 0.929 . S
H364 C375 0.930 . S
N365 Eu336 2.600 . S
N365 C366 1.365 . S
N365 C369 1.319 . S
C366 N365 1.365 . S
C366 C368 1.405 . S
C366 C374 1.448 . S
C367 H362 0.931 . S
C367 C369 1.397 . S
C367 C370 1.367 . S
C368 C366 1.405 . S
C368 C370 1.403 . S
C368 C401 1.439 . S
C369 H354 0.930 . S
C369 N365 1.319 . S
C369 C367 1.397 . S
C370 C367 1.367 . S
C370 C368 1.403 . S
C370 H377 0.929 . S
N371 Eu336 2.562 . S
N371 C372 1.325 . S
N371 C374 1.351 . S
C372 H358 0.929 . S
C372 N371 1.325 . S
C372 C376 1.416 . S
C373 C374 1.430 . S
C373 C375 1.404 . S
C373 C402 1.387 . S
C374 C366 1.448 . S
C374 N371 1.351 . S
C374 C373 1.430 . S
C375 H364 0.930 . S
C375 C373 1.404 . S
C375 C376 1.366 . S
C376 H355 0.930 . S
C376 C372 1.416 . S
C376 C375 1.366 . S
H377 C370 0.929 . S
H378 C401 0.931 . S
H379 C402 0.931 . S
O380 Eu336 2.462 . S
O380 C400 1.252 . S
O381 Eu336 2.373 . S
O381 C392 1.249 . S
O382 Eu347 2.335 . S
O382 C392 1.264 . S
O383 Eu336 2.432 . S
O383 C400 1.268 . S
O384 Eu336 2.291 . S
O384 C399 1.255 . S
O385 Eu347 2.372 . S
O385 C399 1.257 . S
O386 Eu347 2.462 . S
O386 C411 1.252 . S
O387 Eu347 2.373 . S
O387 C403 1.249 . S
O388 Eu336 2.335 . S
O388 C403 1.264 . S
O389 Eu347 2.432 . S
O389 C411 1.268 . S
O390 Eu347 2.291 . S
O390 C410 1.255 . S
O391 Eu336 2.372 . S
O391 C410 1.257 . S
C392 O381 1.249 . S
C392 O382 1.264 . S
C393 C396 1.382 . S
C393 C398 1.390 . S
C393 C400 1.506 . S
C394 C395 1.398 . S
C394 C398 1.392 . S
C395 C394 1.398 . S
C395 C397 1.372 . S
C395 H412 0.931 . S
C396 C393 1.382 . S
C396 C397 1.390 . S
C396 H413 0.931 . S
C397 C395 1.372 . S
C397 C396 1.390 . S
C397 H414 0.929 . S
C398 C393 1.390 . S
C398 C394 1.392 . S
C398 H415 0.930 . S
C399 O384 1.255 . S
C399 O385 1.257 . S
C400 Eu336 2.787 . S
C400 O380 1.252 . S
C400 O383 1.268 . S
C400 C393 1.506 . S
C401 C368 1.439 . S
C401 H378 0.931 . S
C401 C402 1.374 . S
C402 C373 1.387 . S
C402 H379 0.931 . S
C402 C401 1.374 . S
C403 O387 1.249 . S
C403 O388 1.264 . S
C404 C407 1.382 . S
C404 C408 1.390 . S
C404 C411 1.506 . S
C405 C406 1.398 . S
C405 C408 1.392 . S
C406 C405 1.398 . S
C406 C409 1.372 . S
C406 H416 0.931 1_565 S
C407 C404 1.382 . S
C407 C409 1.390 . S
C407 H417 0.931 . S
C408 C404 1.390 . S
C408 C405 1.392 . S
C408 H418 0.930 . S
C409 C406 1.372 . S
C409 C407 1.390 . S
C409 H419 0.929 1_565 S
C410 O390 1.255 . S
C410 O391 1.257 . S
C411 Eu347 2.787 . S
C411 O386 1.252 . S
C411 O389 1.268 . S
C411 C404 1.506 . S
H412 C395 0.931 . S
H413 C396 0.931 . S
H414 C397 0.929 . S
H415 C398 0.930 . S
H416 C406 0.931 1_545 S
H417 C407 0.931 . S
H418 C408 0.930 . S
H419 C409 0.929 1_545 S
Eu420 N449 2.600 . S
Eu420 N455 2.562 . S
Eu420 O464 2.462 . S
Eu420 O465 2.373 . S
Eu420 O467 2.432 . S
Eu420 O468 2.291 . S
Eu420 O472 2.335 . S
Eu420 O475 2.372 . S
Eu420 C484 2.787 . S
C421 N422 1.365 . S
C421 C424 1.405 . S
C421 C428 1.448 . S
N422 C421 1.365 . S
N422 C425 1.319 . S
N422 Eu431 2.600 . S
C423 C425 1.397 . S
C423 C426 1.367 . S
C423 H443 0.931 . S
C424 C421 1.405 . S
C424 C426 1.403 . S
C424 C430 1.439 . S
C425 N422 1.319 . S
C425 C423 1.397 . S
C425 H436 0.930 . S
C426 C423 1.367 . S
C426 C424 1.403 . S
C426 H447 0.929 . S
C427 C428 1.430 . S
C427 C429 1.387 . S
C427 C433 1.404 . S
C428 C421 1.448 . S
C428 C427 1.430 . S
C428 N432 1.351 . S
C429 C427 1.387 . S
C429 C430 1.374 . S
C429 H444 0.931 . S
C430 C424 1.439 . S
C430 C429 1.374 . S
C430 H445 0.931 . S
Eu431 N422 2.600 . S
Eu431 N432 2.562 . S
Eu431 O466 2.335 . S
Eu431 O469 2.372 . S
Eu431 O470 2.462 . S
Eu431 O471 2.373 . S
Eu431 O473 2.432 . S
Eu431 O474 2.291 . S
Eu431 C495 2.787 . S
N432 C428 1.351 . S
N432 Eu431 2.562 . S
N432 C434 1.325 . S
C433 C427 1.404 . S
C433 C435 1.366 . S
C433 H441 0.930 . S
C434 N432 1.325 . S
C434 C435 1.416 . S
C434 H440 0.929 . S
C435 C433 1.366 . S
C435 C434 1.416 . S
C435 H437 0.930 . S
H436 C425 0.930 . S
H437 C435 0.930 . S
H438 C453 0.930 . S
H439 C460 0.930 . S
H440 C434 0.929 . S
H441 C433 0.930 . S
H442 C456 0.929 . S
H443 C423 0.931 . S
H444 C429 0.931 . S
H445 C430 0.931 . S
H446 C451 0.931 . S
H447 C426 0.929 . S
H448 C459 0.930 . S
N449 Eu420 2.600 . S
N449 C450 1.365 . S
N449 C453 1.319 . S
C450 N449 1.365 . S
C450 C452 1.405 . S
C450 C458 1.448 . S
C451 H446 0.931 . S
C451 C453 1.397 . S
C451 C454 1.367 . S
C452 C450 1.405 . S
C452 C454 1.403 . S
C452 C485 1.439 . S
C453 H438 0.930 . S
C453 N449 1.319 . S
C453 C451 1.397 . S
C454 C451 1.367 . S
C454 C452 1.403 . S
C454 H461 0.929 . S
N455 Eu420 2.562 . S
N455 C456 1.325 . S
N455 C458 1.351 . S
C456 H442 0.929 . S
C456 N455 1.325 . S
C456 C460 1.416 . S
C457 C458 1.430 . S
C457 C459 1.404 . S
C457 C486 1.387 . S
C458 C450 1.448 . S
C458 N455 1.351 . S
C458 C457 1.430 . S
C459 H448 0.930 . S
C459 C457 1.404 . S
C459 C460 1.366 . S
C460 H439 0.930 . S
C460 C456 1.416 . S
C460 C459 1.366 . S
H461 C454 0.929 . S
H462 C485 0.931 . S
H463 C486 0.931 . S
O464 Eu420 2.462 . S
O464 C484 1.252 . S
O465 Eu420 2.373 . S
O465 C476 1.249 . S
O466 Eu431 2.335 . S
O466 C476 1.264 . S
O467 Eu420 2.432 . S
O467 C484 1.268 . S
O468 Eu420 2.291 . S
O468 C483 1.255 . S
O469 Eu431 2.372 . S
O469 C483 1.257 . S
O470 Eu431 2.462 . S
O470 C495 1.252 . S
O471 Eu431 2.373 . S
O471 C487 1.249 . S
O472 Eu420 2.335 . S
O472 C487 1.264 . S
O473 Eu431 2.432 . S
O473 C495 1.268 . S
O474 Eu431 2.291 . S
O474 C494 1.255 . S
O475 Eu420 2.372 . S
O475 C494 1.257 . S
C476 O465 1.249 . S
C476 O466 1.264 . S
C477 C480 1.382 . S
C477 C482 1.390 . S
C477 C484 1.506 . S
C478 C479 1.398 . S
C478 C482 1.392 . S
C479 C478 1.398 . S
C479 C481 1.372 . S
C479 H496 0.931 . S
C480 C477 1.382 . S
C480 C481 1.390 . S
C480 H497 0.931 . S
C481 C479 1.372 . S
C481 C480 1.390 . S
C481 H498 0.929 . S
C482 C477 1.390 . S
C482 C478 1.392 . S
C482 H499 0.930 . S
C483 O468 1.255 . S
C483 O469 1.257 . S
C484 Eu420 2.787 . S
C484 O464 1.252 . S
C484 O467 1.268 . S
C484 C477 1.506 . S
C485 C452 1.439 . S
C485 H462 0.931 . S
C485 C486 1.374 . S
C486 C457 1.387 . S
C486 H463 0.931 . S
C486 C485 1.374 . S
C487 O471 1.249 . S
C487 O472 1.264 . S
C488 C491 1.382 . S
C488 C492 1.390 . S
C488 C495 1.506 . S
C489 C490 1.398 . S
C489 C492 1.392 . S
C490 C489 1.398 . S
C490 C493 1.372 . S
C490 H500 0.931 . S
C491 C488 1.382 . S
C491 C493 1.390 . S
C491 H501 0.931 . S
C492 C488 1.390 . S
C492 C489 1.392 . S
C492 H502 0.930 . S
C493 C490 1.372 . S
C493 C491 1.390 . S
C493 H503 0.929 . S
C494 O474 1.255 . S
C494 O475 1.257 . S
C495 Eu431 2.787 . S
C495 O470 1.252 . S
C495 O473 1.268 . S
C495 C488 1.506 . S
H496 C479 0.931 . S
H497 C480 0.931 . S
H498 C481 0.929 . S
H499 C482 0.930 . S
H500 C490 0.931 . S
H501 C491 0.931 . S
H502 C492 0.930 . S
H503 C493 0.929 . S
Eu504 N533 2.600 . S
Eu504 N539 2.562 . S
Eu504 O548 2.462 . S
Eu504 O549 2.373 . S
Eu504 O551 2.432 . S
Eu504 O552 2.291 . S
Eu504 O556 2.335 . S
Eu504 O559 2.372 . S
Eu504 C568 2.787 . S
C505 N506 1.365 . S
C505 C508 1.405 . S
C505 C512 1.448 . S
N506 C505 1.365 . S
N506 C509 1.319 . S
N506 Eu515 2.600 . S
C507 C509 1.397 . S
C507 C510 1.367 . S
C507 H527 0.931 . S
C508 C505 1.405 . S
C508 C510 1.403 . S
C508 C514 1.439 . S
C509 N506 1.319 . S
C509 C507 1.397 . S
C509 H520 0.930 . S
C510 C507 1.367 . S
C510 C508 1.403 . S
C510 H531 0.929 . S
C511 C512 1.430 . S
C511 C513 1.387 . S
C511 C517 1.404 . S
C512 C505 1.448 . S
C512 C511 1.430 . S
C512 N516 1.351 . S
C513 C511 1.387 . S
C513 C514 1.374 . S
C513 H528 0.931 . S
C514 C508 1.439 . S
C514 C513 1.374 . S
C514 H529 0.931 . S
Eu515 N506 2.600 . S
Eu515 N516 2.562 . S
Eu515 O550 2.335 . S
Eu515 O553 2.372 . S
Eu515 O554 2.462 . S
Eu515 O555 2.373 . S
Eu515 O557 2.432 . S
Eu515 O558 2.291 . S
Eu515 C579 2.787 . S
N516 C512 1.351 . S
N516 Eu515 2.562 . S
N516 C518 1.325 . S
C517 C511 1.404 . S
C517 C519 1.366 . S
C517 H525 0.930 . S
C518 N516 1.325 . S
C518 C519 1.416 . S
C518 H524 0.929 . S
C519 C517 1.366 . S
C519 C518 1.416 . S
C519 H521 0.930 . S
H520 C509 0.930 . S
H521 C519 0.930 . S
H522 C537 0.930 . S
H523 C544 0.930 . S
H524 C518 0.929 . S
H525 C517 0.930 . S
H526 C540 0.929 . S
H527 C507 0.931 . S
H528 C513 0.931 . S
H529 C514 0.931 . S
H530 C535 0.931 . S
H531 C510 0.929 . S
H532 C543 0.930 . S
N533 Eu504 2.600 . S
N533 C534 1.365 . S
N533 C537 1.319 . S
C534 N533 1.365 . S
C534 C536 1.405 . S
C534 C542 1.448 . S
C535 H530 0.931 . S
C535 C537 1.397 . S
C535 C538 1.367 . S
C536 C534 1.405 . S
C536 C538 1.403 . S
C536 C569 1.439 . S
C537 H522 0.930 . S
C537 N533 1.319 . S
C537 C535 1.397 . S
C538 C535 1.367 . S
C538 C536 1.403 . S
C538 H545 0.929 . S
N539 Eu504 2.562 . S
N539 C540 1.325 . S
N539 C542 1.351 . S
C540 H526 0.929 . S
C540 N539 1.325 . S
C540 C544 1.416 . S
C541 C542 1.430 . S
C541 C543 1.404 . S
C541 C570 1.387 . S
C542 C534 1.448 . S
C542 N539 1.351 . S
C542 C541 1.430 . S
C543 H532 0.930 . S
C543 C541 1.404 . S
C543 C544 1.366 . S
C544 H523 0.930 . S
C544 C540 1.416 . S
C544 C543 1.366 . S
H545 C538 0.929 . S
H546 C569 0.931 . S
H547 C570 0.931 . S
O548 Eu504 2.462 . S
O548 C568 1.252 . S
O549 Eu504 2.373 . S
O549 C560 1.249 . S
O550 Eu515 2.335 . S
O550 C560 1.264 . S
O551 Eu504 2.432 . S
O551 C568 1.268 . S
O552 Eu504 2.291 . S
O552 C567 1.255 . S
O553 Eu515 2.372 . S
O553 C567 1.257 . S
O554 Eu515 2.462 . S
O554 C579 1.252 . S
O555 Eu515 2.373 . S
O555 C571 1.249 . S
O556 Eu504 2.335 . S
O556 C571 1.264 . S
O557 Eu515 2.432 . S
O557 C579 1.268 . S
O558 Eu515 2.291 . S
O558 C578 1.255 . S
O559 Eu504 2.372 . S
O559 C578 1.257 . S
C560 O549 1.249 . S
C560 O550 1.264 . S
C561 C564 1.382 . S
C561 C566 1.390 . S
C561 C568 1.506 . S
C562 C563 1.398 . S
C562 C566 1.392 . S
C563 C562 1.398 . S
C563 C565 1.372 . S
C563 H580 0.931 . S
C564 C561 1.382 . S
C564 C565 1.390 . S
C564 H581 0.931 . S
C565 C563 1.372 . S
C565 C564 1.390 . S
C565 H582 0.929 . S
C566 C561 1.390 . S
C566 C562 1.392 . S
C566 H583 0.930 . S
C567 O552 1.255 . S
C567 O553 1.257 . S
C568 Eu504 2.787 . S
C568 O548 1.252 . S
C568 O551 1.268 . S
C568 C561 1.506 . S
C569 C536 1.439 . S
C569 H546 0.931 . S
C569 C570 1.374 . S
C570 C541 1.387 . S
C570 H547 0.931 . S
C570 C569 1.374 . S
C571 O555 1.249 . S
C571 O556 1.264 . S
C572 C575 1.382 . S
C572 C576 1.390 . S
C572 C579 1.506 . S
C573 C574 1.398 . S
C573 C576 1.392 . S
C574 C573 1.398 . S
C574 C577 1.372 . S
C574 H584 0.931 1_545 S
C575 C572 1.382 . S
C575 C577 1.390 . S
C575 H585 0.931 . S
C576 C572 1.390 . S
C576 C573 1.392 . S
C576 H586 0.930 . S
C577 C574 1.372 . S
C577 C575 1.390 . S
C577 H587 0.929 1_545 S
C578 O558 1.255 . S
C578 O559 1.257 . S
C579 Eu515 2.787 . S
C579 O554 1.252 . S
C579 O557 1.268 . S
C579 C572 1.506 . S
H580 C563 0.931 . S
H581 C564 0.931 . S
H582 C565 0.929 . S
H583 C566 0.930 . S
H584 C574 0.931 1_565 S
H585 C575 0.931 . S
H586 C576 0.930 . S
H587 C577 0.929 1_565 S
Eu588 N617 2.600 . S
Eu588 N623 2.562 . S
Eu588 O632 2.462 . S
Eu588 O633 2.373 . S
Eu588 O635 2.432 . S
Eu588 O636 2.291 . S
Eu588 O640 2.335 . S
Eu588 O643 2.372 . S
Eu588 C652 2.787 . S
C589 N590 1.365 . S
C589 C592 1.405 . S
C589 C596 1.448 . S
N590 C589 1.365 . S
N590 C593 1.319 . S
N590 Eu599 2.600 . S
C591 C593 1.397 . S
C591 C594 1.367 . S
C591 H611 0.931 . S
C592 C589 1.405 . S
C592 C594 1.403 . S
C592 C598 1.439 . S
C593 N590 1.319 . S
C593 C591 1.397 . S
C593 H604 0.930 . S
C594 C591 1.367 . S
C594 C592 1.403 . S
C594 H615 0.929 . S
C595 C596 1.430 . S
C595 C597 1.387 . S
C595 C601 1.404 . S
C596 C589 1.448 . S
C596 C595 1.430 . S
C596 N600 1.351 . S
C597 C595 1.387 . S
C597 C598 1.374 . S
C597 H612 0.931 . S
C598 C592 1.439 . S
C598 C597 1.374 . S
C598 H613 0.931 . S
Eu599 N590 2.600 . S
Eu599 N600 2.562 . S
Eu599 O634 2.335 . S
Eu599 O637 2.372 . S
Eu599 O638 2.462 . S
Eu599 O639 2.373 . S
Eu599 O641 2.432 . S
Eu599 O642 2.291 . S
Eu599 C663 2.787 . S
N600 C596 1.351 . S
N600 Eu599 2.562 . S
N600 C602 1.325 . S
C601 C595 1.404 . S
C601 C603 1.366 . S
C601 H609 0.930 . S
C602 N600 1.325 . S
C602 C603 1.416 . S
C602 H608 0.929 . S
C603 C601 1.366 . S
C603 C602 1.416 . S
C603 H605 0.930 . S
H604 C593 0.930 . S
H605 C603 0.930 . S
H606 C621 0.930 . S
H607 C628 0.930 . S
H608 C602 0.929 . S
H609 C601 0.930 . S
H610 C624 0.929 . S
H611 C591 0.931 . S
H612 C597 0.931 . S
H613 C598 0.931 . S
H614 C619 0.931 . S
H615 C594 0.929 . S
H616 C627 0.930 . S
N617 Eu588 2.600 . S
N617 C618 1.365 . S
N617 C621 1.319 . S
C618 N617 1.365 . S
C618 C620 1.405 1_455 S
C618 C626 1.448 . S
C619 H614 0.931 . S
C619 C621 1.397 1_655 S
C619 C622 1.367 . S
C620 C618 1.405 1_655 S
C620 C622 1.403 . S
C620 C653 1.439 . S
C621 H606 0.930 . S
C621 N617 1.319 . S
C621 C619 1.397 1_455 S
C622 C619 1.367 . S
C622 C620 1.403 . S
C622 H629 0.929 . S
N623 Eu588 2.562 . S
N623 C624 1.325 . S
N623 C626 1.351 . S
C624 H610 0.929 . S
C624 N623 1.325 . S
C624 C628 1.416 . S
C625 C626 1.430 . S
C625 C627 1.404 . S
C625 C654 1.387 1_455 S
C626 C618 1.448 . S
C626 N623 1.351 . S
C626 C625 1.430 . S
C627 H616 0.930 . S
C627 C625 1.404 . S
C627 C628 1.366 . S
C628 H607 0.930 . S
C628 C624 1.416 . S
C628 C627 1.366 . S
H629 C622 0.929 . S
H630 C653 0.931 . S
H631 C654 0.931 . S
O632 Eu588 2.462 . S
O632 C652 1.252 . S
O633 Eu588 2.373 . S
O633 C644 1.249 . S
O634 Eu599 2.335 . S
O634 C644 1.264 . S
O635 Eu588 2.432 . S
O635 C652 1.268 . S
O636 Eu588 2.291 . S
O636 C651 1.255 . S
O637 Eu599 2.372 . S
O637 C651 1.257 . S
O638 Eu599 2.462 . S
O638 C663 1.252 . S
O639 Eu599 2.373 . S
O639 C655 1.249 . S
O640 Eu588 2.335 . S
O640 C655 1.264 . S
O641 Eu599 2.432 . S
O641 C663 1.268 . S
O642 Eu599 2.291 . S
O642 C662 1.255 . S
O643 Eu588 2.372 . S
O643 C662 1.257 . S
C644 O633 1.249 . S
C644 O634 1.264 . S
C645 C648 1.382 1_455 S
C645 C650 1.390 . S
C645 C652 1.506 . S
C646 C647 1.398 . S
C646 C650 1.392 1_655 S
C647 C646 1.398 . S
C647 C649 1.372 . S
C647 H664 0.931 . S
C648 C645 1.382 1_655 S
C648 C649 1.390 . S
C648 H665 0.931 . S
C649 C647 1.372 . S
C649 C648 1.390 . S
C649 H666 0.929 . S
C650 C645 1.390 . S
C650 C646 1.392 1_455 S
C650 H667 0.930 . S
C651 O636 1.255 . S
C651 O637 1.257 . S
C652 Eu588 2.787 . S
C652 O632 1.252 . S
C652 O635 1.268 . S
C652 C645 1.506 . S
C653 C620 1.439 . S
C653 H630 0.931 . S
C653 C654 1.374 . S
C654 C625 1.387 1_655 S
C654 H631 0.931 . S
C654 C653 1.374 . S
C655 O639 1.249 . S
C655 O640 1.264 . S
C656 C659 1.382 . S
C656 C660 1.390 . S
C656 C663 1.506 . S
C657 C658 1.398 . S
C657 C660 1.392 . S
C658 C657 1.398 . S
C658 C661 1.372 . S
C658 H668 0.931 . S
C659 C656 1.382 . S
C659 C661 1.390 . S
C659 H669 0.931 . S
C660 C656 1.390 . S
C660 C657 1.392 . S
C660 H670 0.930 . S
C661 C658 1.372 . S
C661 C659 1.390 . S
C661 H671 0.929 . S
C662 O642 1.255 . S
C662 O643 1.257 . S
C663 Eu599 2.787 . S
C663 O638 1.252 . S
C663 O641 1.268 . S
C663 C656 1.506 . S
H664 C647 0.931 . S
H665 C648 0.931 . S
H666 C649 0.929 . S
H667 C650 0.930 . S
H668 C658 0.931 . S
H669 C659 0.931 . S
H670 C660 0.930 . S
H671 C661 0.929 . S
Eu672 N701 2.600 . S
Eu672 N707 2.562 . S
Eu672 O716 2.462 . S
Eu672 O717 2.373 . S
Eu672 O719 2.432 . S
Eu672 O720 2.291 . S
Eu672 O724 2.335 . S
Eu672 O727 2.372 . S
Eu672 C736 2.787 . S
C673 N674 1.365 . S
C673 C676 1.405 . S
C673 C680 1.448 . S
N674 C673 1.365 . S
N674 C677 1.319 . S
N674 Eu683 2.600 . S
C675 C677 1.397 . S
C675 C678 1.367 . S
C675 H695 0.931 . S
C676 C673 1.405 . S
C676 C678 1.403 . S
C676 C682 1.439 . S
C677 N674 1.319 . S
C677 C675 1.397 . S
C677 H688 0.930 . S
C678 C675 1.367 . S
C678 C676 1.403 . S
C678 H699 0.929 . S
C679 C680 1.430 . S
C679 C681 1.387 . S
C679 C685 1.404 . S
C680 C673 1.448 . S
C680 C679 1.430 . S
C680 N684 1.351 . S
C681 C679 1.387 . S
C681 C682 1.374 . S
C681 H696 0.931 . S
C682 C676 1.439 . S
C682 C681 1.374 . S
C682 H697 0.931 . S
Eu683 N674 2.600 . S
Eu683 N684 2.562 . S
Eu683 O718 2.335 . S
Eu683 O721 2.372 . S
Eu683 O722 2.462 . S
Eu683 O723 2.373 . S
Eu683 O725 2.432 . S
Eu683 O726 2.291 . S
Eu683 C747 2.787 . S
N684 C680 1.351 . S
N684 Eu683 2.562 . S
N684 C686 1.325 . S
C685 C679 1.404 . S
C685 C687 1.366 . S
C685 H693 0.930 . S
C686 N684 1.325 . S
C686 C687 1.416 . S
C686 H692 0.929 . S
C687 C685 1.366 . S
C687 C686 1.416 . S
C687 H689 0.930 . S
H688 C677 0.930 . S
H689 C687 0.930 . S
H690 C705 0.930 . S
H691 C712 0.930 . S
H692 C686 0.929 . S
H693 C685 0.930 . S
H694 C708 0.929 . S
H695 C675 0.931 . S
H696 C681 0.931 . S
H697 C682 0.931 . S
H698 C703 0.931 . S
H699 C678 0.929 . S
H700 C711 0.930 . S
N701 Eu672 2.600 . S
N701 C702 1.365 . S
N701 C705 1.319 . S
C702 N701 1.365 . S
C702 C704 1.405 . S
C702 C710 1.448 . S
C703 H698 0.931 . S
C703 C705 1.397 . S
C703 C706 1.367 . S
C704 C702 1.405 . S
C704 C706 1.403 . S
C704 C737 1.439 . S
C705 H690 0.930 . S
C705 N701 1.319 . S
C705 C703 1.397 . S
C706 C703 1.367 . S
C706 C704 1.403 . S
C706 H713 0.929 . S
N707 Eu672 2.562 . S
N707 C708 1.325 . S
N707 C710 1.351 . S
C708 H694 0.929 . S
C708 N707 1.325 . S
C708 C712 1.416 . S
C709 C710 1.430 . S
C709 C711 1.404 . S
C709 C738 1.387 . S
C710 C702 1.448 . S
C710 N707 1.351 . S
C710 C709 1.430 . S
C711 H700 0.930 . S
C711 C709 1.404 . S
C711 C712 1.366 . S
C712 H691 0.930 . S
C712 C708 1.416 . S
C712 C711 1.366 . S
H713 C706 0.929 . S
H714 C737 0.931 . S
H715 C738 0.931 . S
O716 Eu672 2.462 . S
O716 C736 1.252 . S
O717 Eu672 2.373 . S
O717 C728 1.249 . S
O718 Eu683 2.335 . S
O718 C728 1.264 . S
O719 Eu672 2.432 . S
O719 C736 1.268 . S
O720 Eu672 2.291 . S
O720 C735 1.255 . S
O721 Eu683 2.372 . S
O721 C735 1.257 . S
O722 Eu683 2.462 . S
O722 C747 1.252 . S
O723 Eu683 2.373 . S
O723 C739 1.249 . S
O724 Eu672 2.335 . S
O724 C739 1.264 . S
O725 Eu683 2.432 . S
O725 C747 1.268 . S
O726 Eu683 2.291 . S
O726 C746 1.255 . S
O727 Eu672 2.372 . S
O727 C746 1.257 . S
C728 O717 1.249 . S
C728 O718 1.264 . S
C729 C732 1.382 . S
C729 C734 1.390 . S
C729 C736 1.506 . S
C730 C731 1.398 . S
C730 C734 1.392 . S
C731 C730 1.398 . S
C731 C733 1.372 . S
C731 H748 0.931 . S
C732 C729 1.382 . S
C732 C733 1.390 . S
C732 H749 0.931 . S
C733 C731 1.372 . S
C733 C732 1.390 . S
C733 H750 0.929 . S
C734 C729 1.390 . S
C734 C730 1.392 . S
C734 H751 0.930 . S
C735 O720 1.255 . S
C735 O721 1.257 . S
C736 Eu672 2.787 . S
C736 O716 1.252 . S
C736 O719 1.268 . S
C736 C729 1.506 . S
C737 C704 1.439 . S
C737 H714 0.931 . S
C737 C738 1.374 . S
C738 C709 1.387 . S
C738 H715 0.931 . S
C738 C737 1.374 . S
C739 O723 1.249 . S
C739 O724 1.264 . S
C740 C743 1.382 . S
C740 C744 1.390 . S
C740 C747 1.506 . S
C741 C742 1.398 . S
C741 C744 1.392 . S
C742 C741 1.398 . S
C742 C745 1.372 . S
C742 H752 0.931 . S
C743 C740 1.382 . S
C743 C745 1.390 . S
C743 H753 0.931 . S
C744 C740 1.390 . S
C744 C741 1.392 . S
C744 H754 0.930 . S
C745 C742 1.372 . S
C745 C743 1.390 . S
C745 H755 0.929 . S
C746 O726 1.255 . S
C746 O727 1.257 . S
C747 Eu683 2.787 . S
C747 O722 1.252 . S
C747 O725 1.268 . S
C747 C740 1.506 . S
H748 C731 0.931 . S
H749 C732 0.931 . S
H750 C733 0.929 . S
H751 C734 0.930 . S
H752 C742 0.931 . S
H753 C743 0.931 . S
H754 C744 0.930 . S
H755 C745 0.929 . S
Eu756 N785 2.600 . S
Eu756 N791 2.562 . S
Eu756 O800 2.462 . S
Eu756 O801 2.373 . S
Eu756 O803 2.432 . S
Eu756 O804 2.291 . S
Eu756 O808 2.335 . S
Eu756 O811 2.372 . S
Eu756 C820 2.787 . S
C757 N758 1.365 . S
C757 C760 1.405 1_455 S
C757 C764 1.448 1_545 S
N758 C757 1.365 . S
N758 C761 1.319 . S
N758 Eu767 2.600 . S
C759 C761 1.397 1_655 S
C759 C762 1.367 . S
C759 H779 0.931 . S
C760 C757 1.405 1_655 S
C760 C762 1.403 . S
C760 C766 1.439 . S
C761 N758 1.319 . S
C761 C759 1.397 1_455 S
C761 H772 0.930 . S
C762 C759 1.367 . S
C762 C760 1.403 . S
C762 H783 0.929 . S
C763 C764 1.430 . S
C763 C765 1.387 1_455 S
C763 C769 1.404 . S
C764 C757 1.448 1_565 S
C764 C763 1.430 . S
C764 N768 1.351 . S
C765 C763 1.387 1_655 S
C765 C766 1.374 1_565 S
C765 H780 0.931 . S
C766 C760 1.439 . S
C766 C765 1.374 1_545 S
C766 H781 0.931 . S
Eu767 N758 2.600 . S
Eu767 N768 2.562 1_545 S
Eu767 O802 2.335 . S
Eu767 O805 2.372 . S
Eu767 O806 2.462 1_545 S
Eu767 O807 2.373 . S
Eu767 O809 2.432 . S
Eu767 O810 2.291 . S
Eu767 C831 2.787 . S
N768 C764 1.351 . S
N768 Eu767 2.562 1_565 S
N768 C770 1.325 . S
C769 C763 1.404 . S
C769 C771 1.366 . S
C769 H777 0.930 . S
C770 N768 1.325 . S
C770 C771 1.416 . S
C770 H776 0.929 . S
C771 C769 1.366 . S
C771 C770 1.416 . S
C771 H773 0.930 . S
H772 C761 0.930 . S
H773 C771 0.930 . S
H774 C789 0.930 . S
H775 C796 0.930 . S
H776 C770 0.929 . S
H777 C769 0.930 . S
H778 C792 0.929 . S
H779 C759 0.931 . S
H780 C765 0.931 . S
H781 C766 0.931 . S
H782 C787 0.931 1_565 S
H783 C762 0.929 . S
H784 C795 0.930 . S
N785 Eu756 2.600 . S
N785 C786 1.365 . S
N785 C789 1.319 . S
C786 N785 1.365 . S
C786 C788 1.405 . S
C786 C794 1.448 . S
C787 H782 0.931 1_545 S
C787 C789 1.397 . S
C787 C790 1.367 . S
C788 C786 1.405 . S
C788 C790 1.403 . S
C788 C821 1.439 . S
C789 H774 0.930 . S
C789 N785 1.319 . S
C789 C787 1.397 . S
C790 C787 1.367 . S
C790 C788 1.403 . S
C790 H797 0.929 . S
N791 Eu756 2.562 . S
N791 C792 1.325 . S
N791 C794 1.351 . S
C792 H778 0.929 . S
C792 N791 1.325 . S
C792 C796 1.416 . S
C793 C794 1.430 . S
C793 C795 1.404 . S
C793 C822 1.387 . S
C794 C786 1.448 . S
C794 N791 1.351 . S
C794 C793 1.430 . S
C795 H784 0.930 . S
C795 C793 1.404 . S
C795 C796 1.366 . S
C796 H775 0.930 . S
C796 C792 1.416 . S
C796 C795 1.366 . S
H797 C790 0.929 . S
H798 C821 0.931 . S
H799 C822 0.931 . S
O800 Eu756 2.462 . S
O800 C820 1.252 . S
O801 Eu756 2.373 . S
O801 C812 1.249 . S
O802 Eu767 2.335 . S
O802 C812 1.264 . S
O803 Eu756 2.432 . S
O803 C820 1.268 . S
O804 Eu756 2.291 . S
O804 C819 1.255 . S
O805 Eu767 2.372 . S
O805 C819 1.257 . S
O806 Eu767 2.462 1_565 S
O806 C831 1.252 1_565 S
O807 Eu767 2.373 . S
O807 C823 1.249 . S
O808 Eu756 2.335 . S
O808 C823 1.264 . S
O809 Eu767 2.432 . S
O809 C831 1.268 . S
O810 Eu767 2.291 . S
O810 C830 1.255 1_545 S
O811 Eu756 2.372 . S
O811 C830 1.257 1_545 S
C812 O801 1.249 . S
C812 O802 1.264 . S
C813 C816 1.382 . S
C813 C818 1.390 . S
C813 C820 1.506 . S
C814 C815 1.398 . S
C814 C818 1.392 . S
C815 C814 1.398 . S
C815 C817 1.372 . S
C815 H832 0.931 . S
C816 C813 1.382 . S
C816 C817 1.390 . S
C816 H833 0.931 . S
C817 C815 1.372 . S
C817 C816 1.390 . S
C817 H834 0.929 . S
C818 C813 1.390 . S
C818 C814 1.392 . S
C818 H835 0.930 . S
C819 O804 1.255 . S
C819 O805 1.257 . S
C820 Eu756 2.787 . S
C820 O800 1.252 . S
C820 O803 1.268 . S
C820 C813 1.506 . S
C821 C788 1.439 . S
C821 H798 0.931 . S
C821 C822 1.374 . S
C822 C793 1.387 . S
C822 H799 0.931 . S
C822 C821 1.374 . S
C823 O807 1.249 . S
C823 O808 1.264 . S
C824 C827 1.382 1_465 S
C824 C828 1.390 . S
C824 C831 1.506 1_565 S
C825 C826 1.398 . S
C825 C828 1.392 1_655 S
C826 C825 1.398 . S
C826 C829 1.372 . S
C826 H836 0.931 . S
C827 C824 1.382 1_645 S
C827 C829 1.390 1_545 S
C827 H837 0.931 . S
C828 C824 1.390 . S
C828 C825 1.392 1_455 S
C828 H838 0.930 . S
C829 C826 1.372 . S
C829 C827 1.390 1_565 S
C829 H839 0.916 1_565 S
C830 O810 1.255 1_565 S
C830 O811 1.257 1_565 S
C831 Eu767 2.787 . S
C831 O806 1.252 1_545 S
C831 O809 1.268 . S
C831 C824 1.506 1_545 S
H832 C815 0.931 . S
H833 C816 0.931 . S
H834 C817 0.929 . S
H835 C818 0.930 . S
H836 C826 0.931 . S
H837 C827 0.931 . S
H838 C828 0.930 . S
H839 C829 0.916 1_545 S
Eu840 N869 2.600 . S
Eu840 N875 2.562 . S
Eu840 O884 2.462 . S
Eu840 O885 2.373 . S
Eu840 O887 2.432 . S
Eu840 O888 2.291 . S
Eu840 O892 2.335 . S
Eu840 O895 2.372 . S
Eu840 C904 2.787 . S
C841 N842 1.365 . S
C841 C844 1.405 . S
C841 C848 1.448 . S
N842 C841 1.365 . S
N842 C845 1.319 . S
N842 Eu851 2.600 . S
C843 C845 1.397 . S
C843 C846 1.367 . S
C843 H863 0.931 . S
C844 C841 1.405 . S
C844 C846 1.403 . S
C844 C850 1.439 . S
C845 N842 1.319 . S
C845 C843 1.397 . S
C845 H856 0.930 . S
C846 C843 1.367 . S
C846 C844 1.403 . S
C846 H867 0.929 . S
C847 C848 1.430 . S
C847 C849 1.387 . S
C847 C853 1.404 . S
C848 C841 1.448 . S
C848 C847 1.430 . S
C848 N852 1.351 . S
C849 C847 1.387 . S
C849 C850 1.374 . S
C849 H864 0.931 . S
C850 C844 1.439 . S
C850 C849 1.374 . S
C850 H865 0.931 . S
Eu851 N842 2.600 . S
Eu851 N852 2.562 . S
Eu851 O886 2.335 . S
Eu851 O889 2.372 . S
Eu851 O890 2.462 . S
Eu851 O891 2.373 . S
Eu851 O893 2.432 . S
Eu851 O894 2.291 . S
Eu851 C915 2.787 . S
N852 C848 1.351 . S
N852 Eu851 2.562 . S
N852 C854 1.325 . S
C853 C847 1.404 . S
C853 C855 1.366 . S
C853 H861 0.930 . S
C854 N852 1.325 . S
C854 C855 1.416 . S
C854 H860 0.929 . S
C855 C853 1.366 . S
C855 C854 1.416 . S
C855 H857 0.930 . S
H856 C845 0.930 . S
H857 C855 0.930 . S
H858 C873 0.930 . S
H859 C880 0.930 . S
H860 C854 0.929 . S
H861 C853 0.930 . S
H862 C876 0.929 . S
H863 C843 0.931 . S
H864 C849 0.931 . S
H865 C850 0.931 . S
H866 C871 0.931 . S
H867 C846 0.929 . S
H868 C879 0.930 . S
N869 Eu840 2.600 . S
N869 C870 1.365 . S
N869 C873 1.319 . S
C870 N869 1.365 . S
C870 C872 1.405 . S
C870 C878 1.448 . S
C871 H866 0.931 . S
C871 C873 1.397 . S
C871 C874 1.367 . S
C872 C870 1.405 . S
C872 C874 1.403 . S
C872 C905 1.439 . S
C873 H858 0.930 . S
C873 N869 1.319 . S
C873 C871 1.397 . S
C874 C871 1.367 . S
C874 C872 1.403 . S
C874 H881 0.929 . S
N875 Eu840 2.562 . S
N875 C876 1.325 . S
N875 C878 1.351 . S
C876 H862 0.929 . S
C876 N875 1.325 . S
C876 C880 1.416 . S
C877 C878 1.430 . S
C877 C879 1.404 . S
C877 C906 1.387 . S
C878 C870 1.448 . S
C878 N875 1.351 . S
C878 C877 1.430 . S
C879 H868 0.930 . S
C879 C877 1.404 . S
C879 C880 1.366 . S
C880 H859 0.930 . S
C880 C876 1.416 . S
C880 C879 1.366 . S
H881 C874 0.929 . S
H882 C905 0.931 . S
H883 C906 0.931 . S
O884 Eu840 2.462 . S
O884 C904 1.252 . S
O885 Eu840 2.373 . S
O885 C896 1.249 . S
O886 Eu851 2.335 . S
O886 C896 1.264 . S
O887 Eu840 2.432 . S
O887 C904 1.268 . S
O888 Eu840 2.291 . S
O888 C903 1.255 . S
O889 Eu851 2.372 . S
O889 C903 1.257 . S
O890 Eu851 2.462 . S
O890 C915 1.252 . S
O891 Eu851 2.373 . S
O891 C907 1.249 . S
O892 Eu840 2.335 . S
O892 C907 1.264 . S
O893 Eu851 2.432 . S
O893 C915 1.268 . S
O894 Eu851 2.291 . S
O894 C914 1.255 . S
O895 Eu840 2.372 . S
O895 C914 1.257 . S
C896 O885 1.249 . S
C896 O886 1.264 . S
C897 C900 1.382 . S
C897 C902 1.390 . S
C897 C904 1.506 . S
C898 C899 1.398 . S
C898 C902 1.392 . S
C899 C898 1.398 . S
C899 C901 1.372 . S
C899 H916 0.931 . S
C900 C897 1.382 . S
C900 C901 1.390 . S
C900 H917 0.931 . S
C901 C899 1.372 . S
C901 C900 1.390 . S
C901 H918 0.929 . S
C902 C897 1.390 . S
C902 C898 1.392 . S
C902 H919 0.930 . S
C903 O888 1.255 . S
C903 O889 1.257 . S
C904 Eu840 2.787 . S
C904 O884 1.252 . S
C904 O887 1.268 . S
C904 C897 1.506 . S
C905 C872 1.439 . S
C905 H882 0.931 . S
C905 C906 1.374 . S
C906 C877 1.387 . S
C906 H883 0.931 . S
C906 C905 1.374 . S
C907 O891 1.249 . S
C907 O892 1.264 . S
C908 C911 1.382 . S
C908 C912 1.390 . S
C908 C915 1.506 . S
C909 C910 1.398 . S
C909 C912 1.392 . S
C910 C909 1.398 . S
C910 C913 1.372 . S
C910 H920 0.931 . S
C911 C908 1.382 . S
C911 C913 1.390 . S
C911 H921 0.931 . S
C912 C908 1.390 . S
C912 C909 1.392 . S
C912 H922 0.930 . S
C913 C910 1.372 . S
C913 C911 1.390 . S
C913 H923 0.929 . S
C914 O894 1.255 . S
C914 O895 1.257 . S
C915 Eu851 2.787 . S
C915 O890 1.252 . S
C915 O893 1.268 . S
C915 C908 1.506 . S
H916 C899 0.931 . S
H917 C900 0.931 . S
H918 C901 0.929 . S
H919 C902 0.930 . S
H920 C910 0.931 . S
H921 C911 0.931 . S
H922 C912 0.930 . S
H923 C913 0.929 . S
Eu924 N953 2.600 . S
Eu924 N959 2.562 . S
Eu924 O968 2.462 . S
Eu924 O969 2.373 . S
Eu924 O971 2.432 . S
Eu924 O972 2.291 . S
Eu924 O976 2.335 . S
Eu924 O979 2.372 . S
Eu924 C988 2.787 . S
C925 N926 1.365 . S
C925 C928 1.405 . S
C925 C932 1.448 1_565 S
N926 C925 1.365 . S
N926 C929 1.319 . S
N926 Eu935 2.600 . S
C927 C929 1.397 . S
C927 C930 1.367 . S
C927 H947 0.931 . S
C928 C925 1.405 . S
C928 C930 1.403 . S
C928 C934 1.439 . S
C929 N926 1.319 . S
C929 C927 1.397 . S
C929 H940 0.930 . S
C930 C927 1.367 . S
C930 C928 1.403 . S
C930 H951 0.929 . S
C931 C932 1.430 . S
C931 C933 1.387 . S
C931 C937 1.404 . S
C932 C925 1.448 1_545 S
C932 C931 1.430 . S
C932 N936 1.351 . S
C933 C931 1.387 . S
C933 C934 1.374 1_545 S
C933 H948 0.931 . S
C934 C928 1.439 . S
C934 C933 1.374 1_565 S
C934 H949 0.931 . S
Eu935 N926 2.600 . S
Eu935 N936 2.562 1_565 S
Eu935 O970 2.335 . S
Eu935 O973 2.372 . S
Eu935 O974 2.462 1_565 S
Eu935 O975 2.373 . S
Eu935 O977 2.432 . S
Eu935 O978 2.291 . S
Eu935 C999 2.787 . S
N936 C932 1.351 . S
N936 Eu935 2.562 1_545 S
N936 C938 1.325 . S
C937 C931 1.404 . S
C937 C939 1.366 . S
C937 H945 0.930 . S
C938 N936 1.325 . S
C938 C939 1.416 . S
C938 H944 0.929 . S
C939 C937 1.366 . S
C939 C938 1.416 . S
C939 H941 0.930 . S
H940 C929 0.930 . S
H941 C939 0.930 . S
H942 C957 0.930 . S
H943 C964 0.930 . S
H944 C938 0.929 . S
H945 C937 0.930 . S
H946 C960 0.929 . S
H947 C927 0.931 . S
H948 C933 0.931 . S
H949 C934 0.931 . S
H950 C955 0.931 1_545 S
H951 C930 0.929 . S
H952 C963 0.930 . S
N953 Eu924 2.600 . S
N953 C954 1.365 . S
N953 C957 1.319 . S
C954 N953 1.365 . S
C954 C956 1.405 . S
C954 C962 1.448 . S
C955 H950 0.931 1_565 S
C955 C957 1.397 . S
C955 C958 1.367 . S
C956 C954 1.405 . S
C956 C958 1.403 . S
C956 C989 1.439 . S
C957 H942 0.930 . S
C957 N953 1.319 . S
C957 C955 1.397 . S
C958 C955 1.367 . S
C958 C956 1.403 . S
C958 H965 0.929 . S
N959 Eu924 2.562 . S
N959 C960 1.325 . S
N959 C962 1.351 . S
C960 H946 0.929 . S
C960 N959 1.325 . S
C960 C964 1.416 . S
C961 C962 1.430 . S
C961 C963 1.404 . S
C961 C990 1.387 . S
C962 C954 1.448 . S
C962 N959 1.351 . S
C962 C961 1.430 . S
C963 H952 0.930 . S
C963 C961 1.404 . S
C963 C964 1.366 . S
C964 H943 0.930 . S
C964 C960 1.416 . S
C964 C963 1.366 . S
H965 C958 0.929 . S
H966 C989 0.931 . S
H967 C990 0.931 . S
O968 Eu924 2.462 . S
O968 C988 1.252 . S
O969 Eu924 2.373 . S
O969 C980 1.249 . S
O970 Eu935 2.335 . S
O970 C980 1.264 . S
O971 Eu924 2.432 . S
O971 C988 1.268 . S
O972 Eu924 2.291 . S
O972 C987 1.255 . S
O973 Eu935 2.372 . S
O973 C987 1.257 . S
O974 Eu935 2.462 1_545 S
O974 C999 1.252 1_545 S
O975 Eu935 2.373 . S
O975 C991 1.249 . S
O976 Eu924 2.335 . S
O976 C991 1.264 . S
O977 Eu935 2.432 . S
O977 C999 1.268 . S
O978 Eu935 2.291 . S
O978 C998 1.255 1_565 S
O979 Eu924 2.372 . S
O979 C998 1.257 1_565 S
C980 O969 1.249 . S
C980 O970 1.264 . S
C981 C984 1.382 . S
C981 C986 1.390 . S
C981 C988 1.506 . S
C982 C983 1.398 . S
C982 C986 1.392 . S
C983 C982 1.398 . S
C983 C985 1.372 . S
C983 H1000 0.931 . S
C984 C981 1.382 . S
C984 C985 1.390 . S
C984 H1001 0.931 . S
C985 C983 1.372 . S
C985 C984 1.390 . S
C985 H1002 0.929 . S
C986 C981 1.390 . S
C986 C982 1.392 . S
C986 H1003 0.930 . S
C987 O972 1.255 . S
C987 O973 1.257 . S
C988 Eu924 2.787 . S
C988 O968 1.252 . S
C988 O971 1.268 . S
C988 C981 1.506 . S
C989 C956 1.439 . S
C989 H966 0.931 . S
C989 C990 1.374 . S
C990 C961 1.387 . S
C990 H967 0.931 . S
C990 C989 1.374 . S
C991 O975 1.249 . S
C991 O976 1.264 . S
C992 C995 1.382 1_545 S
C992 C996 1.390 . S
C992 C999 1.506 1_545 S
C993 C994 1.398 . S
C993 C996 1.392 . S
C994 C993 1.398 . S
C994 C997 1.372 . S
C994 H1004 0.931 . S
C995 C992 1.382 1_565 S
C995 C997 1.390 1_565 S
C995 H1005 0.931 . S
C996 C992 1.390 . S
C996 C993 1.392 . S
C996 H1006 0.930 . S
C997 C994 1.372 . S
C997 C995 1.390 1_545 S
C997 H1007 0.916 1_545 S
C998 O978 1.255 1_545 S
C998 O979 1.257 1_545 S
C999 Eu935 2.787 . S
C999 O974 1.252 1_565 S
C999 O977 1.268 . S
C999 C992 1.506 1_565 S
H1000 C983 0.931 . S
H1001 C984 0.931 . S
H1002 C985 0.929 . S
H1003 C986 0.930 . S
H1004 C994 0.931 . S
H1005 C995 0.931 . S
H1006 C996 0.930 . S
H1007 C997 0.916 1_565 S
Eu1008 N1037 2.600 . S
Eu1008 N1043 2.562 . S
Eu1008 O1052 2.462 . S
Eu1008 O1053 2.373 . S
Eu1008 O1055 2.432 . S
Eu1008 O1056 2.291 . S
Eu1008 O1060 2.335 . S
Eu1008 O1063 2.372 . S
Eu1008 C1072 2.787 . S
C1009 N1010 1.365 . S
C1009 C1012 1.405 . S
C1009 C1016 1.448 . S
N1010 C1009 1.365 . S
N1010 C1013 1.319 . S
N1010 Eu1019 2.600 . S
C1011 C1013 1.397 . S
C1011 C1014 1.367 . S
C1011 H1031 0.931 . S
C1012 C1009 1.405 . S
C1012 C1014 1.403 . S
C1012 C1018 1.439 . S
C1013 N1010 1.319 . S
C1013 C1011 1.397 . S
C1013 H1024 0.930 . S
C1014 C1011 1.367 . S
C1014 C1012 1.403 . S
C1014 H1035 0.929 . S
C1015 C1016 1.430 . S
C1015 C1017 1.387 . S
C1015 C1021 1.404 . S
C1016 C1009 1.448 . S
C1016 C1015 1.430 . S
C1016 N1020 1.351 . S
C1017 C1015 1.387 . S
C1017 C1018 1.374 . S
C1017 H1032 0.931 . S
C1018 C1012 1.439 . S
C1018 C1017 1.374 . S
C1018 H1033 0.931 . S
Eu1019 N1010 2.600 . S
Eu1019 N1020 2.562 . S
Eu1019 O1054 2.335 . S
Eu1019 O1057 2.372 . S
Eu1019 O1058 2.462 . S
Eu1019 O1059 2.373 . S
Eu1019 O1061 2.432 . S
Eu1019 O1062 2.291 . S
Eu1019 C1083 2.787 . S
N1020 C1016 1.351 . S
N1020 Eu1019 2.562 . S
N1020 C1022 1.325 . S
C1021 C1015 1.404 . S
C1021 C1023 1.366 . S
C1021 H1029 0.930 . S
C1022 N1020 1.325 . S
C1022 C1023 1.416 . S
C1022 H1028 0.929 . S
C1023 C1021 1.366 . S
C1023 C1022 1.416 . S
C1023 H1025 0.930 . S
H1024 C1013 0.930 . S
H1025 C1023 0.930 . S
H1026 C1041 0.930 . S
H1027 C1048 0.930 . S
H1028 C1022 0.929 . S
H1029 C1021 0.930 . S
H1030 C1044 0.929 . S
H1031 C1011 0.931 . S
H1032 C1017 0.931 . S
H1033 C1018 0.931 . S
H1034 C1039 0.931 . S
H1035 C1014 0.929 . S
H1036 C1047 0.930 . S
N1037 Eu1008 2.600 . S
N1037 C1038 1.365 . S
N1037 C1041 1.319 . S
C1038 N1037 1.365 . S
C1038 C1040 1.405 . S
C1038 C1046 1.448 . S
C1039 H1034 0.931 . S
C1039 C1041 1.397 . S
C1039 C1042 1.367 . S
C1040 C1038 1.405 . S
C1040 C1042 1.403 . S
C1040 C1073 1.439 . S
C1041 H1026 0.930 . S
C1041 N1037 1.319 . S
C1041 C1039 1.397 . S
C1042 C1039 1.367 . S
C1042 C1040 1.403 . S
C1042 H1049 0.929 . S
N1043 Eu1008 2.562 . S
N1043 C1044 1.325 . S
N1043 C1046 1.351 . S
C1044 H1030 0.929 . S
C1044 N1043 1.325 . S
C1044 C1048 1.416 . S
C1045 C1046 1.430 . S
C1045 C1047 1.404 . S
C1045 C1074 1.387 . S
C1046 C1038 1.448 . S
C1046 N1043 1.351 . S
C1046 C1045 1.430 . S
C1047 H1036 0.930 . S
C1047 C1045 1.404 . S
C1047 C1048 1.366 . S
C1048 H1027 0.930 . S
C1048 C1044 1.416 . S
C1048 C1047 1.366 . S
H1049 C1042 0.929 . S
H1050 C1073 0.931 . S
H1051 C1074 0.931 . S
O1052 Eu1008 2.462 . S
O1052 C1072 1.252 . S
O1053 Eu1008 2.373 . S
O1053 C1064 1.249 . S
O1054 Eu1019 2.335 . S
O1054 C1064 1.264 . S
O1055 Eu1008 2.432 . S
O1055 C1072 1.268 . S
O1056 Eu1008 2.291 . S
O1056 C1071 1.255 . S
O1057 Eu1019 2.372 . S
O1057 C1071 1.257 . S
O1058 Eu1019 2.462 . S
O1058 C1083 1.252 . S
O1059 Eu1019 2.373 . S
O1059 C1075 1.249 . S
O1060 Eu1008 2.335 . S
O1060 C1075 1.264 . S
O1061 Eu1019 2.432 . S
O1061 C1083 1.268 . S
O1062 Eu1019 2.291 . S
O1062 C1082 1.255 . S
O1063 Eu1008 2.372 . S
O1063 C1082 1.257 . S
C1064 O1053 1.249 . S
C1064 O1054 1.264 . S
C1065 C1068 1.382 . S
C1065 C1070 1.390 . S
C1065 C1072 1.506 . S
C1066 C1067 1.398 . S
C1066 C1070 1.392 . S
C1067 C1066 1.398 . S
C1067 C1069 1.372 . S
C1067 H1084 0.931 . S
C1068 C1065 1.382 . S
C1068 C1069 1.390 . S
C1068 H1085 0.931 . S
C1069 C1067 1.372 . S
C1069 C1068 1.390 . S
C1069 H1086 0.929 . S
C1070 C1065 1.390 . S
C1070 C1066 1.392 . S
C1070 H1087 0.930 . S
C1071 O1056 1.255 . S
C1071 O1057 1.257 . S
C1072 Eu1008 2.787 . S
C1072 O1052 1.252 . S
C1072 O1055 1.268 . S
C1072 C1065 1.506 . S
C1073 C1040 1.439 . S
C1073 H1050 0.931 . S
C1073 C1074 1.374 . S
C1074 C1045 1.387 . S
C1074 H1051 0.931 . S
C1074 C1073 1.374 . S
C1075 O1059 1.249 . S
C1075 O1060 1.264 . S
C1076 C1079 1.382 . S
C1076 C1080 1.390 . S
C1076 C1083 1.506 . S
C1077 C1078 1.398 . S
C1077 C1080 1.392 . S
C1078 C1077 1.398 . S
C1078 C1081 1.372 . S
C1078 H1088 0.931 . S
C1079 C1076 1.382 . S
C1079 C1081 1.390 . S
C1079 H1089 0.931 . S
C1080 C1076 1.390 . S
C1080 C1077 1.392 . S
C1080 H1090 0.930 . S
C1081 C1078 1.372 . S
C1081 C1079 1.390 . S
C1081 H1091 0.929 . S
C1082 O1062 1.255 . S
C1082 O1063 1.257 . S
C1083 Eu1019 2.787 . S
C1083 O1058 1.252 . S
C1083 O1061 1.268 . S
C1083 C1076 1.506 . S
H1084 C1067 0.931 . S
H1085 C1068 0.931 . S
H1086 C1069 0.929 . S
H1087 C1070 0.930 . S
H1088 C1078 0.931 . S
H1089 C1079 0.931 . S
H1090 C1080 0.930 . S
H1091 C1081 0.929 . S
Eu1092 N1121 2.600 . S
Eu1092 N1127 2.562 1_565 S
Eu1092 O1136 2.462 1_565 S
Eu1092 O1137 2.373 . S
Eu1092 O1139 2.432 . S
Eu1092 O1140 2.291 . S
Eu1092 O1144 2.335 . S
Eu1092 O1147 2.372 . S
Eu1092 C1156 2.787 . S
C1093 N1094 1.365 . S
C1093 C1096 1.405 . S
C1093 C1100 1.448 . S
N1094 C1093 1.365 . S
N1094 C1097 1.319 . S
N1094 Eu1103 2.600 . S
C1095 C1097 1.397 . S
C1095 C1098 1.367 . S
C1095 H1115 0.931 1_565 S
C1096 C1093 1.405 . S
C1096 C1098 1.403 . S
C1096 C1102 1.439 . S
C1097 N1094 1.319 . S
C1097 C1095 1.397 . S
C1097 H1108 0.930 . S
C1098 C1095 1.367 . S
C1098 C1096 1.403 . S
C1098 H1119 0.929 . S
C1099 C1100 1.430 . S
C1099 C1101 1.387 . S
C1099 C1105 1.404 . S
C1100 C1093 1.448 . S
C1100 C1099 1.430 . S
C1100 N1104 1.351 . S
C1101 C1099 1.387 . S
C1101 C1102 1.374 . S
C1101 H1116 0.931 . S
C1102 C1096 1.439 . S
C1102 C1101 1.374 . S
C1102 H1117 0.931 . S
Eu1103 N1094 2.600 . S
Eu1103 N1104 2.562 . S
Eu1103 O1138 2.335 . S
Eu1103 O1141 2.372 . S
Eu1103 O1142 2.462 . S
Eu1103 O1143 2.373 . S
Eu1103 O1145 2.432 . S
Eu1103 O1146 2.291 . S
Eu1103 C1167 2.787 . S
N1104 C1100 1.351 . S
N1104 Eu1103 2.562 . S
N1104 C1106 1.325 . S
C1105 C1099 1.404 . S
C1105 C1107 1.366 . S
C1105 H1113 0.930 . S
C1106 N1104 1.325 . S
C1106 C1107 1.416 . S
C1106 H1112 0.929 . S
C1107 C1105 1.366 . S
C1107 C1106 1.416 . S
C1107 H1109 0.930 . S
H1108 C1097 0.930 . S
H1109 C1107 0.930 . S
H1110 C1125 0.930 . S
H1111 C1132 0.930 . S
H1112 C1106 0.929 . S
H1113 C1105 0.930 . S
H1114 C1128 0.929 . S
H1115 C1095 0.931 1_545 S
H1116 C1101 0.931 . S
H1117 C1102 0.931 . S
H1118 C1123 0.931 . S
H1119 C1098 0.929 . S
H1120 C1131 0.930 . S
N1121 Eu1092 2.600 . S
N1121 C1122 1.365 . S
N1121 C1125 1.319 . S
C1122 N1121 1.365 . S
C1122 C1124 1.405 1_655 S
C1122 C1130 1.448 1_565 S
C1123 H1118 0.931 . S
C1123 C1125 1.397 1_455 S
C1123 C1126 1.367 . S
C1124 C1122 1.405 1_455 S
C1124 C1126 1.403 . S
C1124 C1157 1.439 . S
C1125 H1110 0.930 . S
C1125 N1121 1.319 . S
C1125 C1123 1.397 1_655 S
C1126 C1123 1.367 . S
C1126 C1124 1.403 . S
C1126 H1133 0.929 . S
N1127 Eu1092 2.562 1_545 S
N1127 C1128 1.325 . S
N1127 C1130 1.351 . S
C1128 H1114 0.929 . S
C1128 N1127 1.325 . S
C1128 C1132 1.416 . S
C1129 C1130 1.430 . S
C1129 C1131 1.404 . S
C1129 C1158 1.387 1_655 S
C1130 C1122 1.448 1_545 S
C1130 N1127 1.351 . S
C1130 C1129 1.430 . S
C1131 H1120 0.930 . S
C1131 C1129 1.404 . S
C1131 C1132 1.366 . S
C1132 H1111 0.930 . S
C1132 C1128 1.416 . S
C1132 C1131 1.366 . S
H1133 C1126 0.929 . S
H1134 C1157 0.931 . S
H1135 C1158 0.931 . S
O1136 Eu1092 2.462 1_545 S
O1136 C1156 1.252 1_545 S
O1137 Eu1092 2.373 . S
O1137 C1148 1.249 . S
O1138 Eu1103 2.335 . S
O1138 C1148 1.264 . S
O1139 Eu1092 2.432 . S
O1139 C1156 1.268 . S
O1140 Eu1092 2.291 . S
O1140 C1155 1.255 1_565 S
O1141 Eu1103 2.372 . S
O1141 C1155 1.257 1_565 S
O1142 Eu1103 2.462 . S
O1142 C1167 1.252 . S
O1143 Eu1103 2.373 . S
O1143 C1159 1.249 . S
O1144 Eu1092 2.335 . S
O1144 C1159 1.264 . S
O1145 Eu1103 2.432 . S
O1145 C1167 1.268 . S
O1146 Eu1103 2.291 . S
O1146 C1166 1.255 . S
O1147 Eu1092 2.372 . S
O1147 C1166 1.257 . S
C1148 O1137 1.249 . S
C1148 O1138 1.264 . S
C1149 C1152 1.382 1_645 S
C1149 C1154 1.390 . S
C1149 C1156 1.506 1_545 S
C1150 C1151 1.398 . S
C1150 C1154 1.392 1_455 S
C1151 C1150 1.398 . S
C1151 C1153 1.372 . S
C1151 H1168 0.931 . S
C1152 C1149 1.382 1_465 S
C1152 C1153 1.390 1_565 S
C1152 H1169 0.931 . S
C1153 C1151 1.372 . S
C1153 C1152 1.390 1_545 S
C1153 H1170 0.916 1_545 S
C1154 C1149 1.390 . S
C1154 C1150 1.392 1_655 S
C1154 H1171 0.930 . S
C1155 O1140 1.255 1_545 S
C1155 O1141 1.257 1_545 S
C1156 Eu1092 2.787 . S
C1156 O1136 1.252 1_565 S
C1156 O1139 1.268 . S
C1156 C1149 1.506 1_565 S
C1157 C1124 1.439 . S
C1157 H1134 0.931 . S
C1157 C1158 1.374 1_565 S
C1158 C1129 1.387 1_455 S
C1158 H1135 0.931 . S
C1158 C1157 1.374 1_545 S
C1159 O1143 1.249 . S
C1159 O1144 1.264 . S
C1160 C1163 1.382 . S
C1160 C1164 1.390 . S
C1160 C1167 1.506 . S
C1161 C1162 1.398 . S
C1161 C1164 1.392 . S
C1162 C1161 1.398 . S
C1162 C1165 1.372 . S
C1162 H1172 0.931 . S
C1163 C1160 1.382 . S
C1163 C1165 1.390 . S
C1163 H1173 0.931 . S
C1164 C1160 1.390 . S
C1164 C1161 1.392 . S
C1164 H1174 0.930 . S
C1165 C1162 1.372 . S
C1165 C1163 1.390 . S
C1165 H1175 0.929 . S
C1166 O1146 1.255 . S
C1166 O1147 1.257 . S
C1167 Eu1103 2.787 . S
C1167 O1142 1.252 . S
C1167 O1145 1.268 . S
C1167 C1160 1.506 . S
H1168 C1151 0.931 . S
H1169 C1152 0.931 . S
H1170 C1153 0.916 1_565 S
H1171 C1154 0.930 . S
H1172 C1162 0.931 . S
H1173 C1163 0.931 . S
H1174 C1164 0.930 . S
H1175 C1165 0.929 . S
Eu1176 N1205 2.600 . S
Eu1176 N1211 2.562 . S
Eu1176 O1220 2.462 . S
Eu1176 O1221 2.373 . S
Eu1176 O1223 2.432 . S
Eu1176 O1224 2.291 . S
Eu1176 O1228 2.335 . S
Eu1176 O1231 2.372 . S
Eu1176 C1240 2.787 . S
C1177 N1178 1.365 . S
C1177 C1180 1.405 . S
C1177 C1184 1.448 . S
N1178 C1177 1.365 . S
N1178 C1181 1.319 . S
N1178 Eu1187 2.600 . S
C1179 C1181 1.397 . S
C1179 C1182 1.367 . S
C1179 H1199 0.931 . S
C1180 C1177 1.405 . S
C1180 C1182 1.403 . S
C1180 C1186 1.439 . S
C1181 N1178 1.319 . S
C1181 C1179 1.397 . S
C1181 H1192 0.930 . S
C1182 C1179 1.367 . S
C1182 C1180 1.403 . S
C1182 H1203 0.929 . S
C1183 C1184 1.430 . S
C1183 C1185 1.387 . S
C1183 C1189 1.404 . S
C1184 C1177 1.448 . S
C1184 C1183 1.430 . S
C1184 N1188 1.351 . S
C1185 C1183 1.387 . S
C1185 C1186 1.374 . S
C1185 H1200 0.931 . S
C1186 C1180 1.439 . S
C1186 C1185 1.374 . S
C1186 H1201 0.931 . S
Eu1187 N1178 2.600 . S
Eu1187 N1188 2.562 . S
Eu1187 O1222 2.335 . S
Eu1187 O1225 2.372 . S
Eu1187 O1226 2.462 . S
Eu1187 O1227 2.373 . S
Eu1187 O1229 2.432 . S
Eu1187 O1230 2.291 . S
Eu1187 C1251 2.787 . S
N1188 C1184 1.351 . S
N1188 Eu1187 2.562 . S
N1188 C1190 1.325 . S
C1189 C1183 1.404 . S
C1189 C1191 1.366 . S
C1189 H1197 0.930 . S
C1190 N1188 1.325 . S
C1190 C1191 1.416 . S
C1190 H1196 0.929 . S
C1191 C1189 1.366 . S
C1191 C1190 1.416 . S
C1191 H1193 0.930 . S
H1192 C1181 0.930 . S
H1193 C1191 0.930 . S
H1194 C1209 0.930 . S
H1195 C1216 0.930 . S
H1196 C1190 0.929 . S
H1197 C1189 0.930 . S
H1198 C1212 0.929 . S
H1199 C1179 0.931 . S
H1200 C1185 0.931 . S
H1201 C1186 0.931 . S
H1202 C1207 0.931 . S
H1203 C1182 0.929 . S
H1204 C1215 0.930 . S
N1205 Eu1176 2.600 . S
N1205 C1206 1.365 . S
N1205 C1209 1.319 . S
C1206 N1205 1.365 . S
C1206 C1208 1.405 . S
C1206 C1214 1.448 . S
C1207 H1202 0.931 . S
C1207 C1209 1.397 . S
C1207 C1210 1.367 . S
C1208 C1206 1.405 . S
C1208 C1210 1.403 . S
C1208 C1241 1.439 . S
C1209 H1194 0.930 . S
C1209 N1205 1.319 . S
C1209 C1207 1.397 . S
C1210 C1207 1.367 . S
C1210 C1208 1.403 . S
C1210 H1217 0.929 . S
N1211 Eu1176 2.562 . S
N1211 C1212 1.325 . S
N1211 C1214 1.351 . S
C1212 H1198 0.929 . S
C1212 N1211 1.325 . S
C1212 C1216 1.416 . S
C1213 C1214 1.430 . S
C1213 C1215 1.404 . S
C1213 C1242 1.387 . S
C1214 C1206 1.448 . S
C1214 N1211 1.351 . S
C1214 C1213 1.430 . S
C1215 H1204 0.930 . S
C1215 C1213 1.404 . S
C1215 C1216 1.366 . S
C1216 H1195 0.930 . S
C1216 C1212 1.416 . S
C1216 C1215 1.366 . S
H1217 C1210 0.929 . S
H1218 C1241 0.931 . S
H1219 C1242 0.931 . S
O1220 Eu1176 2.462 . S
O1220 C1240 1.252 . S
O1221 Eu1176 2.373 . S
O1221 C1232 1.249 . S
O1222 Eu1187 2.335 . S
O1222 C1232 1.264 . S
O1223 Eu1176 2.432 . S
O1223 C1240 1.268 . S
O1224 Eu1176 2.291 . S
O1224 C1239 1.255 . S
O1225 Eu1187 2.372 . S
O1225 C1239 1.257 . S
O1226 Eu1187 2.462 . S
O1226 C1251 1.252 . S
O1227 Eu1187 2.373 . S
O1227 C1243 1.249 . S
O1228 Eu1176 2.335 . S
O1228 C1243 1.264 . S
O1229 Eu1187 2.432 . S
O1229 C1251 1.268 . S
O1230 Eu1187 2.291 . S
O1230 C1250 1.255 . S
O1231 Eu1176 2.372 . S
O1231 C1250 1.257 . S
C1232 O1221 1.249 . S
C1232 O1222 1.264 . S
C1233 C1236 1.382 . S
C1233 C1238 1.390 . S
C1233 C1240 1.506 . S
C1234 C1235 1.398 . S
C1234 C1238 1.392 . S
C1235 C1234 1.398 . S
C1235 C1237 1.372 . S
C1235 H1252 0.931 . S
C1236 C1233 1.382 . S
C1236 C1237 1.390 . S
C1236 H1253 0.931 . S
C1237 C1235 1.372 . S
C1237 C1236 1.390 . S
C1237 H1254 0.929 . S
C1238 C1233 1.390 . S
C1238 C1234 1.392 . S
C1238 H1255 0.930 . S
C1239 O1224 1.255 . S
C1239 O1225 1.257 . S
C1240 Eu1176 2.787 . S
C1240 O1220 1.252 . S
C1240 O1223 1.268 . S
C1240 C1233 1.506 . S
C1241 C1208 1.439 . S
C1241 H1218 0.931 . S
C1241 C1242 1.374 . S
C1242 C1213 1.387 . S
C1242 H1219 0.931 . S
C1242 C1241 1.374 . S
C1243 O1227 1.249 . S
C1243 O1228 1.264 . S
C1244 C1247 1.382 . S
C1244 C1248 1.390 . S
C1244 C1251 1.506 . S
C1245 C1246 1.398 . S
C1245 C1248 1.392 . S
C1246 C1245 1.398 . S
C1246 C1249 1.372 . S
C1246 H1256 0.931 . S
C1247 C1244 1.382 . S
C1247 C1249 1.390 . S
C1247 H1257 0.931 . S
C1248 C1244 1.390 . S
C1248 C1245 1.392 . S
C1248 H1258 0.930 . S
C1249 C1246 1.372 . S
C1249 C1247 1.390 . S
C1249 H1259 0.929 . S
C1250 O1230 1.255 . S
C1250 O1231 1.257 . S
C1251 Eu1187 2.787 . S
C1251 O1226 1.252 . S
C1251 O1229 1.268 . S
C1251 C1244 1.506 . S
H1252 C1235 0.931 . S
H1253 C1236 0.931 . S
H1254 C1237 0.929 . S
H1255 C1238 0.930 . S
H1256 C1246 0.931 . S
H1257 C1247 0.931 . S
H1258 C1248 0.930 . S
H1259 C1249 0.929 . S
Eu1260 N1289 2.600 . S
Eu1260 N1295 2.562 1_545 S
Eu1260 O1304 2.462 1_545 S
Eu1260 O1305 2.373 . S
Eu1260 O1307 2.432 . S
Eu1260 O1308 2.291 . S
Eu1260 O1312 2.335 . S
Eu1260 O1315 2.372 . S
Eu1260 C1324 2.787 . S
C1261 N1262 1.365 . S
C1261 C1264 1.405 . S
C1261 C1268 1.448 . S
N1262 C1261 1.365 . S
N1262 C1265 1.319 . S
N1262 Eu1271 2.600 . S
C1263 C1265 1.397 . S
C1263 C1266 1.367 . S
C1263 H1283 0.931 1_545 S
C1264 C1261 1.405 . S
C1264 C1266 1.403 . S
C1264 C1270 1.439 . S
C1265 N1262 1.319 . S
C1265 C1263 1.397 . S
C1265 H1276 0.930 . S
C1266 C1263 1.367 . S
C1266 C1264 1.403 . S
C1266 H1287 0.929 . S
C1267 C1268 1.430 . S
C1267 C1269 1.387 . S
C1267 C1273 1.404 . S
C1268 C1261 1.448 . S
C1268 C1267 1.430 . S
C1268 N1272 1.351 . S
C1269 C1267 1.387 . S
C1269 C1270 1.374 . S
C1269 H1284 0.931 . S
C1270 C1264 1.439 . S
C1270 C1269 1.374 . S
C1270 H1285 0.931 . S
Eu1271 N1262 2.600 . S
Eu1271 N1272 2.562 . S
Eu1271 O1306 2.335 . S
Eu1271 O1309 2.372 . S
Eu1271 O1310 2.462 . S
Eu1271 O1311 2.373 . S
Eu1271 O1313 2.432 . S
Eu1271 O1314 2.291 . S
Eu1271 C1335 2.787 . S
N1272 C1268 1.351 . S
N1272 Eu1271 2.562 . S
N1272 C1274 1.325 . S
C1273 C1267 1.404 . S
C1273 C1275 1.366 . S
C1273 H1281 0.930 . S
C1274 N1272 1.325 . S
C1274 C1275 1.416 . S
C1274 H1280 0.929 . S
C1275 C1273 1.366 . S
C1275 C1274 1.416 . S
C1275 H1277 0.930 . S
H1276 C1265 0.930 . S
H1277 C1275 0.930 . S
H1278 C1293 0.930 . S
H1279 C1300 0.930 . S
H1280 C1274 0.929 . S
H1281 C1273 0.930 . S
H1282 C1296 0.929 . S
H1283 C1263 0.931 1_565 S
H1284 C1269 0.931 . S
H1285 C1270 0.931 . S
H1286 C1291 0.931 . S
H1287 C1266 0.929 . S
H1288 C1299 0.930 . S
N1289 Eu1260 2.600 . S
N1289 C1290 1.365 . S
N1289 C1293 1.319 . S
C1290 N1289 1.365 . S
C1290 C1292 1.405 . S
C1290 C1298 1.448 1_545 S
C1291 H1286 0.931 . S
C1291 C1293 1.397 . S
C1291 C1294 1.367 . S
C1292 C1290 1.405 . S
C1292 C1294 1.403 . S
C1292 C1325 1.439 . S
C1293 H1278 0.930 . S
C1293 N1289 1.319 . S
C1293 C1291 1.397 . S
C1294 C1291 1.367 . S
C1294 C1292 1.403 . S
C1294 H1301 0.929 . S
N1295 Eu1260 2.562 1_565 S
N1295 C1296 1.325 . S
N1295 C1298 1.351 . S
C1296 H1282 0.929 . S
C1296 N1295 1.325 . S
C1296 C1300 1.416 . S
C1297 C1298 1.430 . S
C1297 C1299 1.404 . S
C1297 C1326 1.387 . S
C1298 C1290 1.448 1_565 S
C1298 N1295 1.351 . S
C1298 C1297 1.430 . S
C1299 H1288 0.930 . S
C1299 C1297 1.404 . S
C1299 C1300 1.366 . S
C1300 H1279 0.930 . S
C1300 C1296 1.416 . S
C1300 C1299 1.366 . S
H1301 C1294 0.929 . S
H1302 C1325 0.931 . S
H1303 C1326 0.931 . S
O1304 Eu1260 2.462 1_565 S
O1304 C1324 1.252 1_565 S
O1305 Eu1260 2.373 . S
O1305 C1316 1.249 . S
O1306 Eu1271 2.335 . S
O1306 C1316 1.264 . S
O1307 Eu1260 2.432 . S
O1307 C1324 1.268 . S
O1308 Eu1260 2.291 . S
O1308 C1323 1.255 1_545 S
O1309 Eu1271 2.372 . S
O1309 C1323 1.257 1_545 S
O1310 Eu1271 2.462 . S
O1310 C1335 1.252 . S
O1311 Eu1271 2.373 . S
O1311 C1327 1.249 . S
O1312 Eu1260 2.335 . S
O1312 C1327 1.264 . S
O1313 Eu1271 2.432 . S
O1313 C1335 1.268 . S
O1314 Eu1271 2.291 . S
O1314 C1334 1.255 . S
O1315 Eu1260 2.372 . S
O1315 C1334 1.257 . S
C1316 O1305 1.249 . S
C1316 O1306 1.264 . S
C1317 C1320 1.382 1_565 S
C1317 C1322 1.390 . S
C1317 C1324 1.506 1_565 S
C1318 C1319 1.398 . S
C1318 C1322 1.392 . S
C1319 C1318 1.398 . S
C1319 C1321 1.372 . S
C1319 H1336 0.931 . S
C1320 C1317 1.382 1_545 S
C1320 C1321 1.390 1_545 S
C1320 H1337 0.931 . S
C1321 C1319 1.372 . S
C1321 C1320 1.390 1_565 S
C1321 H1338 0.916 1_565 S
C1322 C1317 1.390 . S
C1322 C1318 1.392 . S
C1322 H1339 0.930 . S
C1323 O1308 1.255 1_565 S
C1323 O1309 1.257 1_565 S
C1324 Eu1260 2.787 . S
C1324 O1304 1.252 1_545 S
C1324 O1307 1.268 . S
C1324 C1317 1.506 1_545 S
C1325 C1292 1.439 . S
C1325 H1302 0.931 . S
C1325 C1326 1.374 1_545 S
C1326 C1297 1.387 . S
C1326 H1303 0.931 . S
C1326 C1325 1.374 1_565 S
C1327 O1311 1.249 . S
C1327 O1312 1.264 . S
C1328 C1331 1.382 . S
C1328 C1332 1.390 . S
C1328 C1335 1.506 . S
C1329 C1330 1.398 . S
C1329 C1332 1.392 . S
C1330 C1329 1.398 . S
C1330 C1333 1.372 . S
C1330 H1340 0.931 . S
C1331 C1328 1.382 . S
C1331 C1333 1.390 . S
C1331 H1341 0.931 . S
C1332 C1328 1.390 . S
C1332 C1329 1.392 . S
C1332 H1342 0.930 . S
C1333 C1330 1.372 . S
C1333 C1331 1.390 . S
C1333 H1343 0.929 . S
C1334 O1314 1.255 . S
C1334 O1315 1.257 . S
C1335 Eu1271 2.787 . S
C1335 O1310 1.252 . S
C1335 O1313 1.268 . S
C1335 C1328 1.506 . S
H1336 C1319 0.931 . S
H1337 C1320 0.931 . S
H1338 C1321 0.916 1_545 S
H1339 C1322 0.930 . S
H1340 C1330 0.931 . S
H1341 C1331 0.931 . S
H1342 C1332 0.930 . S
H1343 C1333 0.929 . S
H1344 C1362 0.951 . S
H1345 C1364 0.951 . S
H1346 C1366 0.950 . S
H1347 C1367 0.950 . S
H1348 C1369 0.950 . S
H1349 C1372 0.950 . S
H1350 C1373 0.950 . S
H1351 C1375 0.950 . S
H1352 C1376 0.950 . S
H1353 C1377 0.951 . S
H1354 C1379 0.951 . S
H1355 C1381 0.950 . S
H1356 C1382 0.950 . S
H1357 C1384 0.950 . S
H1358 C1387 0.950 . S
H1359 C1388 0.950 . S
H1360 C1390 0.950 . S
H1361 C1391 0.950 . S
C1362 H1344 0.951 . S
C1362 C1363 1.366 . S
C1362 C1364 1.388 . S
C1363 C1362 1.366 . S
C1363 C1367 1.385 . S
C1364 H1345 0.951 . S
C1364 C1362 1.388 . S
C1364 C1365 1.366 . S
C1365 C1364 1.366 . S
C1365 C1366 1.414 . S
C1365 C1368 1.499 . S
C1366 H1346 0.950 . S
C1366 C1365 1.414 . S
C1366 C1367 1.374 . S
C1367 H1347 0.950 . S
C1367 C1363 1.385 . S
C1367 C1366 1.374 . S
C1368 C1365 1.499 . S
C1368 C1369 1.373 . S
C1368 C1370 1.389 . S
C1369 H1348 0.950 . S
C1369 C1368 1.373 . S
C1369 C1385 1.377 . S
C1370 C1368 1.389 . S
C1370 C1371 1.524 . S
C1370 C1384 1.377 . S
C1371 C1370 1.524 . S
C1371 C1372 1.397 . S
C1371 C1376 1.363 . S
C1372 H1349 0.950 . S
C1372 C1371 1.397 . S
C1372 C1373 1.334 . S
C1373 H1350 0.950 . S
C1373 C1372 1.334 . S
C1373 C1374 1.287 . S
C1374 C1373 1.287 . S
C1374 C1375 1.524 . S
C1374 H1393 0.913 . S
C1375 H1351 0.950 . S
C1375 C1374 1.524 . S
C1375 C1376 1.415 . S
C1376 H1352 0.950 . S
C1376 C1371 1.363 . S
C1376 C1375 1.415 . S
C1377 H1353 0.951 . S
C1377 C1378 1.366 . S
C1377 C1379 1.388 . S
C1378 C1377 1.366 . S
C1378 C1382 1.385 . S
C1379 H1354 0.951 . S
C1379 C1377 1.388 . S
C1379 C1380 1.366 . S
C1380 C1379 1.366 . S
C1380 C1381 1.414 . S
C1380 C1383 1.499 . S
C1381 H1355 0.950 . S
C1381 C1380 1.414 . S
C1381 C1382 1.374 . S
C1382 H1356 0.950 . S
C1382 C1378 1.385 . S
C1382 C1381 1.374 . S
C1383 C1380 1.499 . S
C1383 C1384 1.373 . S
C1383 C1385 1.389 . S
C1384 H1357 0.950 . S
C1384 C1370 1.377 . S
C1384 C1383 1.373 . S
C1385 C1369 1.377 . S
C1385 C1383 1.389 . S
C1385 C1386 1.524 . S
C1386 C1385 1.524 . S
C1386 C1387 1.397 . S
C1386 C1391 1.363 . S
C1387 H1358 0.950 . S
C1387 C1386 1.397 . S
C1387 C1388 1.334 . S
C1388 H1359 0.950 . S
C1388 C1387 1.334 . S
C1388 C1389 1.287 . S
C1389 C1388 1.287 . S
C1389 C1390 1.524 . S
C1389 H1392 0.999 . S
C1390 H1360 0.950 . S
C1390 C1389 1.524 . S
C1390 C1391 1.415 . S
C1391 H1361 0.950 . S
C1391 C1386 1.363 . S
C1391 C1390 1.415 . S
H1392 C1389 0.999 . S
H1393 C1374 0.913 . S
H1394 C1412 0.951 . S
H1395 C1414 0.951 . S
H1396 C1416 0.950 . S
H1397 C1417 0.950 . S
H1398 C1419 0.950 . S
H1399 C1422 0.950 . S
H1400 C1423 0.950 . S
H1401 C1425 0.950 . S
H1402 C1426 0.950 . S
H1403 C1427 0.951 . S
H1404 C1429 0.951 . S
H1405 C1431 0.950 . S
H1406 C1432 0.950 . S
H1407 C1434 0.950 . S
H1408 C1437 0.950 . S
H1409 C1438 0.950 . S
H1410 C1440 0.950 . S
H1411 C1441 0.950 . S
C1412 H1394 0.951 . S
C1412 C1413 1.366 . S
C1412 C1414 1.388 . S
C1413 C1412 1.366 . S
C1413 C1417 1.385 . S
C1414 H1395 0.951 . S
C1414 C1412 1.388 . S
C1414 C1415 1.366 . S
C1415 C1414 1.366 . S
C1415 C1416 1.414 . S
C1415 C1418 1.499 . S
C1416 H1396 0.950 . S
C1416 C1415 1.414 . S
C1416 C1417 1.374 . S
C1417 H1397 0.950 . S
C1417 C1413 1.385 . S
C1417 C1416 1.374 . S
C1418 C1415 1.499 . S
C1418 C1419 1.373 . S
C1418 C1420 1.389 . S
C1419 H1398 0.950 . S
C1419 C1418 1.373 . S
C1419 C1435 1.377 . S
C1420 C1418 1.389 . S
C1420 C1421 1.524 . S
C1420 C1434 1.377 . S
C1421 C1420 1.524 . S
C1421 C1422 1.397 . S
C1421 C1426 1.363 . S
C1422 H1399 0.950 . S
C1422 C1421 1.397 . S
C1422 C1423 1.334 . S
C1423 H1400 0.950 . S
C1423 C1422 1.334 . S
C1423 C1424 1.287 . S
C1424 C1423 1.287 . S
C1424 C1425 1.524 . S
C1424 H1443 0.913 . S
C1425 H1401 0.950 . S
C1425 C1424 1.524 . S
C1425 C1426 1.415 . S
C1426 H1402 0.950 . S
C1426 C1421 1.363 . S
C1426 C1425 1.415 . S
C1427 H1403 0.951 . S
C1427 C1428 1.366 . S
C1427 C1429 1.388 . S
C1428 C1427 1.366 . S
C1428 C1432 1.385 . S
C1429 H1404 0.951 . S
C1429 C1427 1.388 . S
C1429 C1430 1.366 . S
C1430 C1429 1.366 . S
C1430 C1431 1.414 . S
C1430 C1433 1.499 . S
C1431 H1405 0.950 . S
C1431 C1430 1.414 . S
C1431 C1432 1.374 . S
C1432 H1406 0.950 . S
C1432 C1428 1.385 . S
C1432 C1431 1.374 . S
C1433 C1430 1.499 . S
C1433 C1434 1.373 . S
C1433 C1435 1.389 . S
C1434 H1407 0.950 . S
C1434 C1420 1.377 . S
C1434 C1433 1.373 . S
C1435 C1419 1.377 . S
C1435 C1433 1.389 . S
C1435 C1436 1.524 . S
C1436 C1435 1.524 . S
C1436 C1437 1.397 . S
C1436 C1441 1.363 . S
C1437 H1408 0.950 . S
C1437 C1436 1.397 . S
C1437 C1438 1.334 . S
C1438 H1409 0.950 . S
C1438 C1437 1.334 . S
C1438 C1439 1.287 . S
C1439 C1438 1.287 . S
C1439 C1440 1.524 . S
C1439 H1442 0.999 . S
C1440 H1410 0.950 . S
C1440 C1439 1.524 . S
C1440 C1441 1.415 . S
C1441 H1411 0.950 . S
C1441 C1436 1.363 . S
C1441 C1440 1.415 . S
H1442 C1439 0.999 . S
H1443 C1424 0.913 . S
H1444 C1462 0.951 . S
H1445 C1464 0.951 . S
H1446 C1466 0.950 . S
H1447 C1467 0.950 . S
H1448 C1469 0.950 . S
H1449 C1472 0.950 . S
H1450 C1473 0.950 . S
H1451 C1475 0.950 . S
H1452 C1476 0.950 . S
H1453 C1477 0.951 . S
H1454 C1479 0.951 . S
H1455 C1481 0.950 . S
H1456 C1482 0.950 . S
H1457 C1484 0.950 . S
H1458 C1487 0.950 . S
H1459 C1488 0.950 . S
H1460 C1490 0.950 . S
H1461 C1491 0.950 . S
C1462 H1444 0.951 . S
C1462 C1463 1.366 . S
C1462 C1464 1.388 . S
C1463 C1462 1.366 . S
C1463 C1467 1.385 . S
C1464 H1445 0.951 . S
C1464 C1462 1.388 . S
C1464 C1465 1.366 . S
C1465 C1464 1.366 . S
C1465 C1466 1.414 . S
C1465 C1468 1.499 . S
C1466 H1446 0.950 . S
C1466 C1465 1.414 . S
C1466 C1467 1.374 . S
C1467 H1447 0.950 . S
C1467 C1463 1.385 . S
C1467 C1466 1.374 . S
C1468 C1465 1.499 . S
C1468 C1469 1.373 . S
C1468 C1470 1.393 1_455 S
C1469 H1448 0.950 . S
C1469 C1468 1.373 . S
C1469 C1485 1.381 1_455 S
C1470 C1468 1.393 1_655 S
C1470 C1471 1.524 . S
C1470 C1484 1.372 . S
C1471 C1470 1.524 . S
C1471 C1472 1.397 1_655 S
C1471 C1476 1.363 . S
C1472 H1449 0.950 . S
C1472 C1471 1.397 1_455 S
C1472 C1473 1.334 . S
C1473 H1450 0.950 . S
C1473 C1472 1.334 . S
C1473 C1474 1.287 1_455 S
C1474 C1473 1.287 1_655 S
C1474 C1475 1.524 . S
C1474 H1493 0.913 . S
C1475 H1451 0.950 . S
C1475 C1474 1.524 . S
C1475 C1476 1.415 . S
C1476 H1452 0.950 . S
C1476 C1471 1.363 . S
C1476 C1475 1.415 . S
C1477 H1453 0.951 . S
C1477 C1478 1.366 . S
C1477 C1479 1.388 . S
C1478 C1477 1.366 . S
C1478 C1482 1.385 . S
C1479 H1454 0.951 . S
C1479 C1477 1.388 . S
C1479 C1480 1.366 . S
C1480 C1479 1.366 . S
C1480 C1481 1.414 . S
C1480 C1483 1.499 . S
C1481 H1455 0.950 . S
C1481 C1480 1.414 . S
C1481 C1482 1.374 . S
C1482 H1456 0.950 . S
C1482 C1478 1.385 . S
C1482 C1481 1.374 . S
C1483 C1480 1.499 . S
C1483 C1484 1.373 . S
C1483 C1485 1.385 . S
C1484 H1457 0.950 . S
C1484 C1470 1.372 . S
C1484 C1483 1.373 . S
C1485 C1469 1.381 1_655 S
C1485 C1483 1.385 . S
C1485 C1486 1.525 1_655 S
C1486 C1485 1.525 1_455 S
C1486 C1487 1.397 1_455 S
C1486 C1491 1.363 . S
C1487 H1458 0.950 . S
C1487 C1486 1.397 1_655 S
C1487 C1488 1.334 . S
C1488 H1459 0.950 . S
C1488 C1487 1.334 . S
C1488 C1489 1.287 1_655 S
C1489 C1488 1.287 1_455 S
C1489 C1490 1.524 . S
C1489 H1492 0.999 . S
C1490 H1460 0.950 . S
C1490 C1489 1.524 . S
C1490 C1491 1.415 . S
C1491 H1461 0.950 . S
C1491 C1486 1.363 . S
C1491 C1490 1.415 . S
H1492 C1489 0.999 . S
H1493 C1474 0.913 . S
H1494 C1512 0.951 . S
H1495 C1514 0.951 . S
H1496 C1516 0.950 1_655 S
H1497 C1517 0.950 . S
H1498 C1519 0.950 . S
H1499 C1522 0.950 . S
H1500 C1523 0.950 . S
H1501 C1525 0.950 . S
H1502 C1526 0.950 . S
H1503 C1527 0.951 . S
H1504 C1529 0.951 . S
H1505 C1531 0.950 1_455 S
H1506 C1532 0.950 . S
H1507 C1534 0.950 . S
H1508 C1537 0.950 . S
H1509 C1538 0.950 . S
H1510 C1540 0.950 . S
H1511 C1541 0.950 . S
C1512 H1494 0.951 . S
C1512 C1513 1.366 . S
C1512 C1514 1.388 . S
C1513 C1512 1.366 . S
C1513 C1517 1.385 . S
C1514 H1495 0.951 . S
C1514 C1512 1.388 . S
C1514 C1515 1.366 . S
C1515 C1514 1.366 . S
C1515 C1516 1.414 . S
C1515 C1518 1.499 . S
C1516 H1496 0.950 1_455 S
C1516 C1515 1.414 . S
C1516 C1517 1.374 . S
C1517 H1497 0.950 . S
C1517 C1513 1.385 . S
C1517 C1516 1.374 . S
C1518 C1515 1.499 . S
C1518 C1519 1.373 1_455 S
C1518 C1520 1.389 . S
C1519 H1498 0.950 . S
C1519 C1518 1.373 1_655 S
C1519 C1535 1.377 . S
C1520 C1518 1.389 . S
C1520 C1521 1.524 . S
C1520 C1534 1.377 . S
C1521 C1520 1.524 . S
C1521 C1522 1.397 . S
C1521 C1526 1.363 . S
C1522 H1499 0.950 . S
C1522 C1521 1.397 . S
C1522 C1523 1.334 . S
C1523 H1500 0.950 . S
C1523 C1522 1.334 . S
C1523 C1524 1.287 . S
C1524 C1523 1.287 . S
C1524 C1525 1.524 . S
C1524 H1543 0.913 . S
C1525 H1501 0.950 . S
C1525 C1524 1.524 . S
C1525 C1526 1.415 . S
C1526 H1502 0.950 . S
C1526 C1521 1.363 . S
C1526 C1525 1.415 . S
C1527 H1503 0.951 . S
C1527 C1528 1.366 . S
C1527 C1529 1.388 . S
C1528 C1527 1.366 . S
C1528 C1532 1.385 . S
C1529 H1504 0.951 . S
C1529 C1527 1.388 . S
C1529 C1530 1.366 . S
C1530 C1529 1.366 . S
C1530 C1531 1.414 . S
C1530 C1533 1.499 . S
C1531 H1505 0.950 1_655 S
C1531 C1530 1.414 . S
C1531 C1532 1.374 . S
C1532 H1506 0.950 . S
C1532 C1528 1.385 . S
C1532 C1531 1.374 . S
C1533 C1530 1.499 . S
C1533 C1534 1.373 1_655 S
C1533 C1535 1.389 . S
C1534 H1507 0.950 . S
C1534 C1520 1.377 . S
C1534 C1533 1.373 1_455 S
C1535 C1519 1.377 . S
C1535 C1533 1.389 . S
C1535 C1536 1.524 . S
C1536 C1535 1.524 . S
C1536 C1537 1.397 . S
C1536 C1541 1.363 . S
C1537 H1508 0.950 . S
C1537 C1536 1.397 . S
C1537 C1538 1.334 . S
C1538 H1509 0.950 . S
C1538 C1537 1.334 . S
C1538 C1539 1.287 . S
C1539 C1538 1.287 . S
C1539 C1540 1.524 . S
C1539 H1542 0.999 . S
C1540 H1510 0.950 . S
C1540 C1539 1.524 . S
C1540 C1541 1.415 . S
C1541 H1511 0.950 . S
C1541 C1536 1.363 . S
C1541 C1540 1.415 . S
H1542 C1539 0.999 . S
H1543 C1524 0.913 . S
H1544 C1562 0.951 . S
H1545 C1564 0.951 . S
H1546 C1566 0.950 . S
H1547 C1567 0.950 . S
H1548 C1569 0.950 . S
H1549 C1572 0.950 . S
H1550 C1573 0.950 . S
H1551 C1575 0.950 . S
H1552 C1576 0.950 . S
H1553 C1577 0.951 . S
H1554 C1579 0.951 . S
H1555 C1581 0.950 . S
H1556 C1582 0.950 . S
H1557 C1584 0.950 . S
H1558 C1587 0.950 . S
H1559 C1588 0.950 . S
H1560 C1590 0.950 . S
H1561 C1591 0.950 . S
C1562 H1544 0.951 . S
C1562 C1563 1.366 . S
C1562 C1564 1.388 . S
C1563 C1562 1.366 . S
C1563 C1567 1.385 . S
C1564 H1545 0.951 . S
C1564 C1562 1.388 . S
C1564 C1565 1.366 . S
C1565 C1564 1.366 . S
C1565 C1566 1.414 . S
C1565 C1568 1.499 . S
C1566 H1546 0.950 . S
C1566 C1565 1.414 . S
C1566 C1567 1.374 . S
C1567 H1547 0.950 . S
C1567 C1563 1.385 . S
C1567 C1566 1.374 . S
C1568 C1565 1.499 . S
C1568 C1569 1.373 . S
C1568 C1570 1.389 . S
C1569 H1548 0.950 . S
C1569 C1568 1.373 . S
C1569 C1585 1.377 . S
C1570 C1568 1.389 . S
C1570 C1571 1.524 . S
C1570 C1584 1.377 . S
C1571 C1570 1.524 . S
C1571 C1572 1.397 . S
C1571 C1576 1.363 . S
C1572 H1549 0.950 . S
C1572 C1571 1.397 . S
C1572 C1573 1.334 . S
C1573 H1550 0.950 . S
C1573 C1572 1.334 . S
C1573 C1574 1.287 . S
C1574 C1573 1.287 . S
C1574 C1575 1.524 . S
C1574 H1593 0.913 . S
C1575 H1551 0.950 . S
C1575 C1574 1.524 . S
C1575 C1576 1.415 . S
C1576 H1552 0.950 . S
C1576 C1571 1.363 . S
C1576 C1575 1.415 . S
C1577 H1553 0.951 . S
C1577 C1578 1.366 . S
C1577 C1579 1.388 . S
C1578 C1577 1.366 . S
C1578 C1582 1.385 . S
C1579 H1554 0.951 . S
C1579 C1577 1.388 . S
C1579 C1580 1.366 . S
C1580 C1579 1.366 . S
C1580 C1581 1.414 . S
C1580 C1583 1.499 . S
C1581 H1555 0.950 . S
C1581 C1580 1.414 . S
C1581 C1582 1.374 . S
C1582 H1556 0.950 . S
C1582 C1578 1.385 . S
C1582 C1581 1.374 . S
C1583 C1580 1.499 . S
C1583 C1584 1.373 . S
C1583 C1585 1.389 . S
C1584 H1557 0.950 . S
C1584 C1570 1.377 . S
C1584 C1583 1.373 . S
C1585 C1569 1.377 . S
C1585 C1583 1.389 . S
C1585 C1586 1.524 . S
C1586 C1585 1.524 . S
C1586 C1587 1.397 . S
C1586 C1591 1.363 . S
C1587 H1558 0.950 . S
C1587 C1586 1.397 . S
C1587 C1588 1.334 . S
C1588 H1559 0.950 . S
C1588 C1587 1.334 . S
C1588 C1589 1.287 . S
C1589 C1588 1.287 . S
C1589 C1590 1.524 . S
C1589 H1592 0.999 . S
C1590 H1560 0.950 . S
C1590 C1589 1.524 . S
C1590 C1591 1.415 . S
C1591 H1561 0.950 . S
C1591 C1586 1.363 . S
C1591 C1590 1.415 . S
H1592 C1589 0.999 . S
H1593 C1574 0.913 . S
H1594 C1612 0.951 . S
H1595 C1614 0.951 . S
H1596 C1616 0.950 . S
H1597 C1617 0.950 . S
H1598 C1619 0.950 . S
H1599 C1622 0.950 . S
H1600 C1623 0.950 . S
H1601 C1625 0.950 . S
H1602 C1626 0.950 . S
H1603 C1627 0.951 . S
H1604 C1629 0.951 . S
H1605 C1631 0.950 . S
H1606 C1632 0.950 . S
H1607 C1634 0.950 . S
H1608 C1637 0.950 . S
H1609 C1638 0.950 . S
H1610 C1640 0.950 . S
H1611 C1641 0.950 . S
C1612 H1594 0.951 . S
C1612 C1613 1.366 . S
C1612 C1614 1.388 . S
C1613 C1612 1.366 . S
C1613 C1617 1.385 . S
C1614 H1595 0.951 . S
C1614 C1612 1.388 . S
C1614 C1615 1.366 . S
C1615 C1614 1.366 . S
C1615 C1616 1.414 . S
C1615 C1618 1.499 . S
C1616 H1596 0.950 . S
C1616 C1615 1.414 . S
C1616 C1617 1.374 . S
C1617 H1597 0.950 . S
C1617 C1613 1.385 . S
C1617 C1616 1.374 . S
C1618 C1615 1.499 . S
C1618 C1619 1.373 . S
C1618 C1620 1.389 . S
C1619 H1598 0.950 . S
C1619 C1618 1.373 . S
C1619 C1635 1.377 . S
C1620 C1618 1.389 . S
C1620 C1621 1.524 . S
C1620 C1634 1.377 . S
C1621 C1620 1.524 . S
C1621 C1622 1.397 . S
C1621 C1626 1.363 . S
C1622 H1599 0.950 . S
C1622 C1621 1.397 . S
C1622 C1623 1.334 . S
C1623 H1600 0.950 . S
C1623 C1622 1.334 . S
C1623 C1624 1.287 . S
C1624 C1623 1.287 . S
C1624 C1625 1.524 . S
C1624 H1643 0.913 . S
C1625 H1601 0.950 . S
C1625 C1624 1.524 . S
C1625 C1626 1.415 . S
C1626 H1602 0.950 . S
C1626 C1621 1.363 . S
C1626 C1625 1.415 . S
C1627 H1603 0.951 . S
C1627 C1628 1.366 . S
C1627 C1629 1.388 . S
C1628 C1627 1.366 . S
C1628 C1632 1.385 . S
C1629 H1604 0.951 . S
C1629 C1627 1.388 . S
C1629 C1630 1.366 . S
C1630 C1629 1.366 . S
C1630 C1631 1.414 . S
C1630 C1633 1.499 . S
C1631 H1605 0.950 . S
C1631 C1630 1.414 . S
C1631 C1632 1.374 . S
C1632 H1606 0.950 . S
C1632 C1628 1.385 . S
C1632 C1631 1.374 . S
C1633 C1630 1.499 . S
C1633 C1634 1.373 . S
C1633 C1635 1.389 . S
C1634 H1607 0.950 . S
C1634 C1620 1.377 . S
C1634 C1633 1.373 . S
C1635 C1619 1.377 . S
C1635 C1633 1.389 . S
C1635 C1636 1.524 . S
C1636 C1635 1.524 . S
C1636 C1637 1.397 . S
C1636 C1641 1.363 . S
C1637 H1608 0.950 . S
C1637 C1636 1.397 . S
C1637 C1638 1.334 . S
C1638 H1609 0.950 . S
C1638 C1637 1.334 . S
C1638 C1639 1.287 . S
C1639 C1638 1.287 . S
C1639 C1640 1.524 . S
C1639 H1642 0.999 . S
C1640 H1610 0.950 . S
C1640 C1639 1.524 . S
C1640 C1641 1.415 . S
C1641 H1611 0.950 . S
C1641 C1636 1.363 . S
C1641 C1640 1.415 . S
H1642 C1639 0.999 . S
H1643 C1624 0.913 . S
H1644 C1662 0.951 . S
H1645 C1664 0.951 . S
H1646 C1666 0.950 . S
H1647 C1667 0.950 . S
H1648 C1669 0.950 . S
H1649 C1672 0.950 . S
H1650 C1673 0.950 . S
H1651 C1675 0.950 . S
H1652 C1676 0.950 . S
H1653 C1677 0.951 . S
H1654 C1679 0.951 . S
H1655 C1681 0.950 . S
H1656 C1682 0.950 . S
H1657 C1684 0.950 . S
H1658 C1687 0.950 . S
H1659 C1688 0.950 . S
H1660 C1690 0.950 . S
H1661 C1691 0.950 . S
C1662 H1644 0.951 . S
C1662 C1663 1.366 . S
C1662 C1664 1.388 . S
C1663 C1662 1.366 . S
C1663 C1667 1.385 . S
C1664 H1645 0.951 . S
C1664 C1662 1.388 . S
C1664 C1665 1.366 . S
C1665 C1664 1.366 . S
C1665 C1666 1.414 . S
C1665 C1668 1.499 . S
C1666 H1646 0.950 . S
C1666 C1665 1.414 . S
C1666 C1667 1.374 . S
C1667 H1647 0.950 . S
C1667 C1663 1.385 . S
C1667 C1666 1.374 . S
C1668 C1665 1.499 . S
C1668 C1669 1.373 . S
C1668 C1670 1.389 . S
C1669 H1648 0.950 . S
C1669 C1668 1.373 . S
C1669 C1685 1.377 1_455 S
C1670 C1668 1.389 . S
C1670 C1671 1.524 . S
C1670 C1684 1.377 1_455 S
C1671 C1670 1.524 . S
C1671 C1672 1.397 . S
C1671 C1676 1.363 . S
C1672 H1649 0.950 . S
C1672 C1671 1.397 . S
C1672 C1673 1.334 . S
C1673 H1650 0.950 . S
C1673 C1672 1.334 . S
C1673 C1674 1.287 . S
C1674 C1673 1.287 . S
C1674 C1675 1.524 . S
C1674 H1693 0.913 . S
C1675 H1651 0.950 . S
C1675 C1674 1.524 . S
C1675 C1676 1.415 . S
C1676 H1652 0.950 . S
C1676 C1671 1.363 . S
C1676 C1675 1.415 . S
C1677 H1653 0.951 . S
C1677 C1678 1.366 . S
C1677 C1679 1.388 . S
C1678 C1677 1.366 . S
C1678 C1682 1.385 . S
C1679 H1654 0.951 . S
C1679 C1677 1.388 . S
C1679 C1680 1.366 . S
C1680 C1679 1.366 . S
C1680 C1681 1.414 . S
C1680 C1683 1.499 . S
C1681 H1655 0.950 . S
C1681 C1680 1.414 . S
C1681 C1682 1.374 . S
C1682 H1656 0.950 . S
C1682 C1678 1.385 . S
C1682 C1681 1.374 . S
C1683 C1680 1.499 . S
C1683 C1684 1.373 . S
C1683 C1685 1.389 . S
C1684 H1657 0.950 . S
C1684 C1670 1.377 1_655 S
C1684 C1683 1.373 . S
C1685 C1669 1.377 1_655 S
C1685 C1683 1.389 . S
C1685 C1686 1.524 . S
C1686 C1685 1.524 . S
C1686 C1687 1.397 . S
C1686 C1691 1.363 . S
C1687 H1658 0.950 . S
C1687 C1686 1.397 . S
C1687 C1688 1.334 . S
C1688 H1659 0.950 . S
C1688 C1687 1.334 . S
C1688 C1689 1.287 . S
C1689 C1688 1.287 . S
C1689 C1690 1.524 . S
C1689 H1692 0.999 . S
C1690 H1660 0.950 . S
C1690 C1689 1.524 . S
C1690 C1691 1.415 . S
C1691 H1661 0.950 . S
C1691 C1686 1.363 . S
C1691 C1690 1.415 . S
H1692 C1689 0.999 . S
H1693 C1674 0.913 . S
H1694 C1712 0.951 . S
H1695 C1714 0.951 . S
H1696 C1716 0.950 1_655 S
H1697 C1717 0.950 . S
H1698 C1719 0.950 . S
H1699 C1722 0.950 . S
H1700 C1723 0.950 . S
H1701 C1725 0.950 . S
H1702 C1726 0.950 . S
H1703 C1727 0.951 . S
H1704 C1729 0.951 . S
H1705 C1731 0.950 1_455 S
H1706 C1732 0.950 . S
H1707 C1734 0.950 . S
H1708 C1737 0.950 . S
H1709 C1738 0.950 . S
H1710 C1740 0.950 . S
H1711 C1741 0.950 . S
C1712 H1694 0.951 . S
C1712 C1713 1.366 . S
C1712 C1714 1.388 . S
C1713 C1712 1.366 . S
C1713 C1717 1.385 . S
C1714 H1695 0.951 . S
C1714 C1712 1.388 . S
C1714 C1715 1.366 . S
C1715 C1714 1.366 . S
C1715 C1716 1.414 . S
C1715 C1718 1.499 . S
C1716 H1696 0.950 1_455 S
C1716 C1715 1.414 . S
C1716 C1717 1.374 . S
C1717 H1697 0.950 . S
C1717 C1713 1.385 . S
C1717 C1716 1.374 . S
C1718 C1715 1.499 . S
C1718 C1719 1.373 1_455 S
C1718 C1720 1.389 . S
C1719 H1698 0.950 . S
C1719 C1718 1.373 1_655 S
C1719 C1735 1.377 . S
C1720 C1718 1.389 . S
C1720 C1721 1.524 . S
C1720 C1734 1.377 . S
C1721 C1720 1.524 . S
C1721 C1722 1.397 . S
C1721 C1726 1.363 . S
C1722 H1699 0.950 . S
C1722 C1721 1.397 . S
C1722 C1723 1.334 . S
C1723 H1700 0.950 . S
C1723 C1722 1.334 . S
C1723 C1724 1.287 . S
C1724 C1723 1.287 . S
C1724 C1725 1.524 . S
C1724 H1743 0.913 . S
C1725 H1701 0.950 . S
C1725 C1724 1.524 . S
C1725 C1726 1.415 . S
C1726 H1702 0.950 . S
C1726 C1721 1.363 . S
C1726 C1725 1.415 . S
C1727 H1703 0.951 . S
C1727 C1728 1.366 . S
C1727 C1729 1.388 . S
C1728 C1727 1.366 . S
C1728 C1732 1.385 . S
C1729 H1704 0.951 . S
C1729 C1727 1.388 . S
C1729 C1730 1.366 . S
C1730 C1729 1.366 . S
C1730 C1731 1.414 . S
C1730 C1733 1.499 . S
C1731 H1705 0.950 1_655 S
C1731 C1730 1.414 . S
C1731 C1732 1.374 . S
C1732 H1706 0.950 . S
C1732 C1728 1.385 . S
C1732 C1731 1.374 . S
C1733 C1730 1.499 . S
C1733 C1734 1.373 1_655 S
C1733 C1735 1.389 . S
C1734 H1707 0.950 . S
C1734 C1720 1.377 . S
C1734 C1733 1.373 1_455 S
C1735 C1719 1.377 . S
C1735 C1733 1.389 . S
C1735 C1736 1.524 . S
C1736 C1735 1.524 . S
C1736 C1737 1.397 . S
C1736 C1741 1.363 . S
C1737 H1708 0.950 . S
C1737 C1736 1.397 . S
C1737 C1738 1.334 . S
C1738 H1709 0.950 . S
C1738 C1737 1.334 . S
C1738 C1739 1.287 . S
C1739 C1738 1.287 . S
C1739 C1740 1.524 . S
C1739 H1742 0.999 . S
C1740 H1710 0.950 . S
C1740 C1739 1.524 . S
C1740 C1741 1.415 . S
C1741 H1711 0.950 . S
C1741 C1736 1.363 . S
C1741 C1740 1.415 . S
H1742 C1739 0.999 . S
H1743 C1724 0.913 . S
H1744 C1762 0.954 1_565 S
H1745 C1764 0.951 1_565 S
H1746 C1766 0.950 . S
H1747 C1767 0.950 . S
H1748 C1769 0.950 . S
H1749 C1772 0.950 . S
H1750 C1773 0.950 1_545 S
H1751 C1775 0.950 . S
H1752 C1776 0.950 . S
H1753 C1777 0.954 1_545 S
H1754 C1779 0.951 1_545 S
H1755 C1781 0.950 . S
H1756 C1782 0.950 . S
H1757 C1784 0.950 . S
H1758 C1787 0.950 . S
H1759 C1788 0.950 1_565 S
H1760 C1790 0.950 . S
H1761 C1791 0.950 . S
C1762 H1744 0.954 1_545 S
C1762 C1763 1.366 . S
C1762 C1764 1.388 . S
C1763 C1762 1.366 . S
C1763 C1767 1.385 . S
C1764 H1745 0.951 1_545 S
C1764 C1762 1.388 . S
C1764 C1765 1.366 . S
C1765 C1764 1.366 . S
C1765 C1766 1.414 . S
C1765 C1768 1.499 . S
C1766 H1746 0.950 . S
C1766 C1765 1.414 . S
C1766 C1767 1.374 . S
C1767 H1747 0.950 . S
C1767 C1763 1.385 . S
C1767 C1766 1.374 . S
C1768 C1765 1.499 . S
C1768 C1769 1.373 1_554 S
C1768 C1770 1.389 1_545 S
C1769 H1748 0.950 . S
C1769 C1768 1.373 1_556 S
C1769 C1785 1.377 . S
C1770 C1768 1.389 1_565 S
C1770 C1771 1.524 . S
C1770 C1784 1.377 . S
C1771 C1770 1.524 . S
C1771 C1772 1.397 1_565 S
C1771 C1776 1.363 . S
C1772 H1749 0.950 . S
C1772 C1771 1.397 1_545 S
C1772 C1773 1.334 1_545 S
C1773 H1750 0.950 1_565 S
C1773 C1772 1.334 1_565 S
C1773 C1774 1.287 . S
C1774 C1773 1.287 . S
C1774 C1775 1.524 . S
C1774 H1793 0.913 . S
C1775 H1751 0.950 . S
C1775 C1774 1.524 . S
C1775 C1776 1.415 . S
C1776 H1752 0.950 . S
C1776 C1771 1.363 . S
C1776 C1775 1.415 . S
C1777 H1753 0.954 1_565 S
C1777 C1778 1.366 . S
C1777 C1779 1.388 . S
C1778 C1777 1.366 . S
C1778 C1782 1.385 . S
C1779 H1754 0.951 1_565 S
C1779 C1777 1.388 . S
C1779 C1780 1.366 . S
C1780 C1779 1.366 . S
C1780 C1781 1.414 . S
C1780 C1783 1.499 . S
C1781 H1755 0.950 . S
C1781 C1780 1.414 . S
C1781 C1782 1.374 . S
C1782 H1756 0.950 . S
C1782 C1778 1.385 . S
C1782 C1781 1.374 . S
C1783 C1780 1.499 . S
C1783 C1784 1.373 1_556 S
C1783 C1785 1.389 1_565 S
C1784 H1757 0.950 . S
C1784 C1770 1.377 . S
C1784 C1783 1.373 1_554 S
C1785 C1769 1.377 . S
C1785 C1783 1.389 1_545 S
C1785 C1786 1.524 . S
C1786 C1785 1.524 . S
C1786 C1787 1.397 1_545 S
C1786 C1791 1.363 . S
C1787 H1758 0.950 . S
C1787 C1786 1.397 1_565 S
C1787 C1788 1.334 1_565 S
C1788 H1759 0.950 1_545 S
C1788 C1787 1.334 1_545 S
C1788 C1789 1.287 . S
C1789 C1788 1.287 . S
C1789 C1790 1.524 . S
C1789 H1792 0.999 . S
C1790 H1760 0.950 . S
C1790 C1789 1.524 . S
C1790 C1791 1.415 . S
C1791 H1761 0.950 . S
C1791 C1786 1.363 . S
C1791 C1790 1.415 . S
H1792 C1789 0.999 . S
H1793 C1774 0.913 . S
H1794 C1812 0.951 . S
H1795 C1814 0.951 . S
H1796 C1816 0.950 . S
H1797 C1817 0.950 . S
H1798 C1819 0.950 . S
H1799 C1822 0.950 . S
H1800 C1823 0.950 . S
H1801 C1825 0.950 . S
H1802 C1826 0.950 . S
H1803 C1827 0.951 . S
H1804 C1829 0.951 . S
H1805 C1831 0.950 . S
H1806 C1832 0.950 . S
H1807 C1834 0.950 . S
H1808 C1837 0.950 . S
H1809 C1838 0.950 . S
H1810 C1840 0.950 . S
H1811 C1841 0.950 . S
C1812 H1794 0.951 . S
C1812 C1813 1.366 . S
C1812 C1814 1.388 . S
C1813 C1812 1.366 . S
C1813 C1817 1.385 . S
C1814 H1795 0.951 . S
C1814 C1812 1.388 . S
C1814 C1815 1.366 . S
C1815 C1814 1.366 . S
C1815 C1816 1.414 . S
C1815 C1818 1.499 . S
C1816 H1796 0.950 . S
C1816 C1815 1.414 . S
C1816 C1817 1.374 . S
C1817 H1797 0.950 . S
C1817 C1813 1.385 . S
C1817 C1816 1.374 . S
C1818 C1815 1.499 . S
C1818 C1819 1.373 . S
C1818 C1820 1.389 . S
C1819 H1798 0.950 . S
C1819 C1818 1.373 . S
C1819 C1835 1.377 . S
C1820 C1818 1.389 . S
C1820 C1821 1.524 . S
C1820 C1834 1.377 . S
C1821 C1820 1.524 . S
C1821 C1822 1.397 . S
C1821 C1826 1.363 . S
C1822 H1799 0.950 . S
C1822 C1821 1.397 . S
C1822 C1823 1.334 . S
C1823 H1800 0.950 . S
C1823 C1822 1.334 . S
C1823 C1824 1.287 . S
C1824 C1823 1.287 . S
C1824 C1825 1.524 . S
C1824 H1843 0.913 . S
C1825 H1801 0.950 . S
C1825 C1824 1.524 . S
C1825 C1826 1.415 . S
C1826 H1802 0.950 . S
C1826 C1821 1.363 . S
C1826 C1825 1.415 . S
C1827 H1803 0.951 . S
C1827 C1828 1.366 . S
C1827 C1829 1.388 . S
C1828 C1827 1.366 . S
C1828 C1832 1.385 . S
C1829 H1804 0.951 . S
C1829 C1827 1.388 . S
C1829 C1830 1.366 . S
C1830 C1829 1.366 . S
C1830 C1831 1.414 . S
C1830 C1833 1.499 . S
C1831 H1805 0.950 . S
C1831 C1830 1.414 . S
C1831 C1832 1.374 . S
C1832 H1806 0.950 . S
C1832 C1828 1.385 . S
C1832 C1831 1.374 . S
C1833 C1830 1.499 . S
C1833 C1834 1.373 . S
C1833 C1835 1.389 . S
C1834 H1807 0.950 . S
C1834 C1820 1.377 . S
C1834 C1833 1.373 . S
C1835 C1819 1.377 . S
C1835 C1833 1.389 . S
C1835 C1836 1.524 . S
C1836 C1835 1.524 . S
C1836 C1837 1.397 . S
C1836 C1841 1.363 . S
C1837 H1808 0.950 . S
C1837 C1836 1.397 . S
C1837 C1838 1.334 . S
C1838 H1809 0.950 . S
C1838 C1837 1.334 . S
C1838 C1839 1.287 . S
C1839 C1838 1.287 . S
C1839 C1840 1.524 . S
C1839 H1842 0.999 . S
C1840 H1810 0.950 . S
C1840 C1839 1.524 . S
C1840 C1841 1.415 . S
C1841 H1811 0.950 . S
C1841 C1836 1.363 . S
C1841 C1840 1.415 . S
H1842 C1839 0.999 . S
H1843 C1824 0.913 . S
H1844 C1862 0.951 . S
H1845 C1864 0.951 . S
H1846 C1866 0.950 1_545 S
H1847 C1867 0.950 . S
H1848 C1869 0.950 . S
H1849 C1872 0.950 . S
H1850 C1873 0.950 . S
H1851 C1875 0.932 1_655 S
H1852 C1876 0.950 1_655 S
H1853 C1877 0.951 . S
H1854 C1879 0.951 . S
H1855 C1881 0.950 1_565 S
H1856 C1882 0.950 . S
H1857 C1884 0.950 . S
H1858 C1887 0.950 . S
H1859 C1888 0.950 . S
H1860 C1890 0.932 1_455 S
H1861 C1891 0.950 1_455 S
C1862 H1844 0.951 . S
C1862 C1863 1.366 . S
C1862 C1864 1.388 . S
C1863 C1862 1.366 . S
C1863 C1867 1.385 . S
C1864 H1845 0.951 . S
C1864 C1862 1.388 . S
C1864 C1865 1.366 . S
C1865 C1864 1.366 . S
C1865 C1866 1.414 . S
C1865 C1868 1.499 . S
C1866 H1846 0.950 1_565 S
C1866 C1865 1.414 . S
C1866 C1867 1.374 . S
C1867 H1847 0.950 . S
C1867 C1863 1.385 . S
C1867 C1866 1.374 . S
C1868 C1865 1.499 . S
C1868 C1869 1.373 1_565 S
C1868 C1870 1.389 . S
C1869 H1848 0.950 . S
C1869 C1868 1.373 1_545 S
C1869 C1885 1.377 1_455 S
C1870 C1868 1.389 . S
C1870 C1871 1.524 . S
C1870 C1884 1.377 1_455 S
C1871 C1870 1.524 . S
C1871 C1872 1.397 . S
C1871 C1876 1.363 . S
C1872 H1849 0.950 . S
C1872 C1871 1.397 . S
C1872 C1873 1.334 . S
C1873 H1850 0.950 . S
C1873 C1872 1.334 . S
C1873 C1874 1.287 . S
C1874 C1873 1.287 . S
C1874 C1875 1.524 . S
C1874 H1893 0.913 . S
C1875 H1851 0.932 1_455 S
C1875 C1874 1.524 . S
C1875 C1876 1.415 . S
C1876 H1852 0.950 1_455 S
C1876 C1871 1.363 . S
C1876 C1875 1.415 . S
C1877 H1853 0.951 . S
C1877 C1878 1.366 . S
C1877 C1879 1.388 . S
C1878 C1877 1.366 . S
C1878 C1882 1.385 . S
C1879 H1854 0.951 . S
C1879 C1877 1.388 . S
C1879 C1880 1.366 . S
C1880 C1879 1.366 . S
C1880 C1881 1.414 . S
C1880 C1883 1.499 . S
C1881 H1855 0.950 1_545 S
C1881 C1880 1.414 . S
C1881 C1882 1.374 . S
C1882 H1856 0.950 . S
C1882 C1878 1.385 . S
C1882 C1881 1.374 . S
C1883 C1880 1.499 . S
C1883 C1884 1.373 1_545 S
C1883 C1885 1.389 . S
C1884 H1857 0.950 . S
C1884 C1870 1.377 1_655 S
C1884 C1883 1.373 1_565 S
C1885 C1869 1.377 1_655 S
C1885 C1883 1.389 . S
C1885 C1886 1.524 . S
C1886 C1885 1.524 . S
C1886 C1887 1.397 . S
C1886 C1891 1.363 . S
C1887 H1858 0.950 . S
C1887 C1886 1.397 . S
C1887 C1888 1.334 . S
C1888 H1859 0.950 . S
C1888 C1887 1.334 . S
C1888 C1889 1.287 . S
C1889 C1888 1.287 . S
C1889 C1890 1.524 . S
C1889 H1892 0.999 . S
C1890 H1860 0.932 1_655 S
C1890 C1889 1.524 . S
C1890 C1891 1.415 . S
C1891 H1861 0.950 1_655 S
C1891 C1886 1.363 . S
C1891 C1890 1.415 . S
H1892 C1889 0.999 . S
H1893 C1874 0.913 . S
H1894 C1912 0.951 . S
H1895 C1914 0.951 . S
H1896 C1916 0.950 . S
H1897 C1917 0.950 . S
H1898 C1919 0.950 . S
H1899 C1922 0.950 . S
H1900 C1923 0.950 . S
H1901 C1925 0.950 . S
H1902 C1926 0.950 . S
H1903 C1927 0.951 . S
H1904 C1929 0.951 . S
H1905 C1931 0.950 . S
H1906 C1932 0.950 . S
H1907 C1934 0.950 . S
H1908 C1937 0.950 . S
H1909 C1938 0.950 . S
H1910 C1940 0.950 . S
H1911 C1941 0.950 . S
C1912 H1894 0.951 . S
C1912 C1913 1.366 . S
C1912 C1914 1.388 . S
C1913 C1912 1.366 . S
C1913 C1917 1.385 . S
C1914 H1895 0.951 . S
C1914 C1912 1.388 . S
C1914 C1915 1.366 . S
C1915 C1914 1.366 . S
C1915 C1916 1.414 . S
C1915 C1918 1.499 . S
C1916 H1896 0.950 . S
C1916 C1915 1.414 . S
C1916 C1917 1.374 . S
C1917 H1897 0.950 . S
C1917 C1913 1.385 . S
C1917 C1916 1.374 . S
C1918 C1915 1.499 . S
C1918 C1919 1.373 . S
C1918 C1920 1.389 . S
C1919 H1898 0.950 . S
C1919 C1918 1.373 . S
C1919 C1935 1.377 . S
C1920 C1918 1.389 . S
C1920 C1921 1.524 . S
C1920 C1934 1.377 . S
C1921 C1920 1.524 . S
C1921 C1922 1.397 . S
C1921 C1926 1.363 . S
C1922 H1899 0.950 . S
C1922 C1921 1.397 . S
C1922 C1923 1.334 . S
C1923 H1900 0.950 . S
C1923 C1922 1.334 . S
C1923 C1924 1.287 . S
C1924 C1923 1.287 . S
C1924 C1925 1.524 . S
C1924 H1943 0.913 . S
C1925 H1901 0.950 . S
C1925 C1924 1.524 . S
C1925 C1926 1.415 . S
C1926 H1902 0.950 . S
C1926 C1921 1.363 . S
C1926 C1925 1.415 . S
C1927 H1903 0.951 . S
C1927 C1928 1.366 . S
C1927 C1929 1.388 . S
C1928 C1927 1.366 . S
C1928 C1932 1.385 . S
C1929 H1904 0.951 . S
C1929 C1927 1.388 . S
C1929 C1930 1.366 . S
C1930 C1929 1.366 . S
C1930 C1931 1.414 . S
C1930 C1933 1.499 . S
C1931 H1905 0.950 . S
C1931 C1930 1.414 . S
C1931 C1932 1.374 . S
C1932 H1906 0.950 . S
C1932 C1928 1.385 . S
C1932 C1931 1.374 . S
C1933 C1930 1.499 . S
C1933 C1934 1.373 . S
C1933 C1935 1.389 . S
C1934 H1907 0.950 . S
C1934 C1920 1.377 . S
C1934 C1933 1.373 . S
C1935 C1919 1.377 . S
C1935 C1933 1.389 . S
C1935 C1936 1.524 . S
C1936 C1935 1.524 . S
C1936 C1937 1.397 . S
C1936 C1941 1.363 . S
C1937 H1908 0.950 . S
C1937 C1936 1.397 . S
C1937 C1938 1.334 . S
C1938 H1909 0.950 . S
C1938 C1937 1.334 . S
C1938 C1939 1.287 . S
C1939 C1938 1.287 . S
C1939 C1940 1.524 . S
C1939 H1942 0.999 . S
C1940 H1910 0.950 . S
C1940 C1939 1.524 . S
C1940 C1941 1.415 . S
C1941 H1911 0.950 . S
C1941 C1936 1.363 . S
C1941 C1940 1.415 . S
H1942 C1939 0.999 . S
H1943 C1924 0.913 . S
H1944 C1962 0.951 . S
H1945 C1964 0.951 . S
H1946 C1966 0.950 . S
H1947 C1967 0.950 . S
H1948 C1969 0.950 . S
H1949 C1972 0.950 . S
H1950 C1973 0.950 . S
H1951 C1975 0.950 . S
H1952 C1976 0.950 . S
H1953 C1977 0.951 . S
H1954 C1979 0.951 . S
H1955 C1981 0.950 . S
H1956 C1982 0.950 . S
H1957 C1984 0.950 . S
H1958 C1987 0.950 . S
H1959 C1988 0.950 . S
H1960 C1990 0.950 . S
H1961 C1991 0.950 . S
C1962 H1944 0.951 . S
C1962 C1963 1.366 . S
C1962 C1964 1.388 . S
C1963 C1962 1.366 . S
C1963 C1967 1.385 . S
C1964 H1945 0.951 . S
C1964 C1962 1.388 . S
C1964 C1965 1.366 . S
C1965 C1964 1.366 . S
C1965 C1966 1.414 . S
C1965 C1968 1.499 . S
C1966 H1946 0.950 . S
C1966 C1965 1.414 . S
C1966 C1967 1.374 . S
C1967 H1947 0.950 . S
C1967 C1963 1.385 . S
C1967 C1966 1.374 . S
C1968 C1965 1.499 . S
C1968 C1969 1.373 . S
C1968 C1970 1.389 . S
C1969 H1948 0.950 . S
C1969 C1968 1.373 . S
C1969 C1985 1.377 . S
C1970 C1968 1.389 . S
C1970 C1971 1.524 . S
C1970 C1984 1.377 . S
C1971 C1970 1.524 . S
C1971 C1972 1.397 . S
C1971 C1976 1.363 . S
C1972 H1949 0.950 . S
C1972 C1971 1.397 . S
C1972 C1973 1.334 . S
C1973 H1950 0.950 . S
C1973 C1972 1.334 . S
C1973 C1974 1.287 . S
C1974 C1973 1.287 . S
C1974 C1975 1.524 . S
C1974 H1993 0.913 . S
C1975 H1951 0.950 . S
C1975 C1974 1.524 . S
C1975 C1976 1.415 . S
C1976 H1952 0.950 . S
C1976 C1971 1.363 . S
C1976 C1975 1.415 . S
C1977 H1953 0.951 . S
C1977 C1978 1.366 . S
C1977 C1979 1.388 . S
C1978 C1977 1.366 . S
C1978 C1982 1.385 . S
C1979 H1954 0.951 . S
C1979 C1977 1.388 . S
C1979 C1980 1.366 . S
C1980 C1979 1.366 . S
C1980 C1981 1.414 . S
C1980 C1983 1.499 . S
C1981 H1955 0.950 . S
C1981 C1980 1.414 . S
C1981 C1982 1.374 . S
C1982 H1956 0.950 . S
C1982 C1978 1.385 . S
C1982 C1981 1.374 . S
C1983 C1980 1.499 . S
C1983 C1984 1.373 . S
C1983 C1985 1.389 . S
C1984 H1957 0.950 . S
C1984 C1970 1.377 . S
C1984 C1983 1.373 . S
C1985 C1969 1.377 . S
C1985 C1983 1.389 . S
C1985 C1986 1.524 . S
C1986 C1985 1.524 . S
C1986 C1987 1.397 . S
C1986 C1991 1.363 . S
C1987 H1958 0.950 . S
C1987 C1986 1.397 . S
C1987 C1988 1.334 . S
C1988 H1959 0.950 . S
C1988 C1987 1.334 . S
C1988 C1989 1.287 . S
C1989 C1988 1.287 . S
C1989 C1990 1.524 . S
C1989 H1992 0.999 . S
C1990 H1960 0.950 . S
C1990 C1989 1.524 . S
C1990 C1991 1.415 . S
C1991 H1961 0.950 . S
C1991 C1986 1.363 . S
C1991 C1990 1.415 . S
H1992 C1989 0.999 . S
H1993 C1974 0.913 . S
H1994 C2012 0.951 . S
H1995 C2014 0.951 . S
H1996 C2016 0.950 . S
H1997 C2017 0.950 . S
H1998 C2019 0.950 . S
H1999 C2022 0.950 . S
H2000 C2023 0.950 . S
H2001 C2025 0.950 . S
H2002 C2026 0.950 . S
H2003 C2027 0.951 . S
H2004 C2029 0.951 . S
H2005 C2031 0.950 . S
H2006 C2032 0.950 . S
H2007 C2034 0.950 . S
H2008 C2037 0.950 . S
H2009 C2038 0.950 . S
H2010 C2040 0.950 . S
H2011 C2041 0.950 . S
C2012 H1994 0.951 . S
C2012 C2013 1.366 . S
C2012 C2014 1.388 . S
C2013 C2012 1.366 . S
C2013 C2017 1.385 . S
C2014 H1995 0.951 . S
C2014 C2012 1.388 . S
C2014 C2015 1.366 . S
C2015 C2014 1.366 . S
C2015 C2016 1.414 . S
C2015 C2018 1.499 . S
C2016 H1996 0.950 . S
C2016 C2015 1.414 . S
C2016 C2017 1.374 . S
C2017 H1997 0.950 . S
C2017 C2013 1.385 . S
C2017 C2016 1.374 . S
C2018 C2015 1.499 . S
C2018 C2019 1.373 . S
C2018 C2020 1.389 . S
C2019 H1998 0.950 . S
C2019 C2018 1.373 . S
C2019 C2035 1.377 . S
C2020 C2018 1.389 . S
C2020 C2021 1.524 . S
C2020 C2034 1.377 . S
C2021 C2020 1.524 . S
C2021 C2022 1.397 . S
C2021 C2026 1.363 . S
C2022 H1999 0.950 . S
C2022 C2021 1.397 . S
C2022 C2023 1.334 . S
C2023 H2000 0.950 . S
C2023 C2022 1.334 . S
C2023 C2024 1.287 . S
C2024 C2023 1.287 . S
C2024 C2025 1.524 . S
C2024 H2043 0.913 . S
C2025 H2001 0.950 . S
C2025 C2024 1.524 . S
C2025 C2026 1.415 . S
C2026 H2002 0.950 . S
C2026 C2021 1.363 . S
C2026 C2025 1.415 . S
C2027 H2003 0.951 . S
C2027 C2028 1.366 . S
C2027 C2029 1.388 . S
C2028 C2027 1.366 . S
C2028 C2032 1.385 . S
C2029 H2004 0.951 . S
C2029 C2027 1.388 . S
C2029 C2030 1.366 . S
C2030 C2029 1.366 . S
C2030 C2031 1.414 . S
C2030 C2033 1.499 . S
C2031 H2005 0.950 . S
C2031 C2030 1.414 . S
C2031 C2032 1.374 . S
C2032 H2006 0.950 . S
C2032 C2028 1.385 . S
C2032 C2031 1.374 . S
C2033 C2030 1.499 . S
C2033 C2034 1.373 . S
C2033 C2035 1.389 . S
C2034 H2007 0.950 . S
C2034 C2020 1.377 . S
C2034 C2033 1.373 . S
C2035 C2019 1.377 . S
C2035 C2033 1.389 . S
C2035 C2036 1.524 . S
C2036 C2035 1.524 . S
C2036 C2037 1.397 . S
C2036 C2041 1.363 . S
C2037 H2008 0.950 . S
C2037 C2036 1.397 . S
C2037 C2038 1.334 . S
C2038 H2009 0.950 . S
C2038 C2037 1.334 . S
C2038 C2039 1.287 . S
C2039 C2038 1.287 . S
C2039 C2040 1.524 . S
C2039 H2042 0.999 . S
C2040 H2010 0.950 . S
C2040 C2039 1.524 . S
C2040 C2041 1.415 . S
C2041 H2011 0.950 . S
C2041 C2036 1.363 . S
C2041 C2040 1.415 . S
H2042 C2039 0.999 . S
H2043 C2024 0.913 . S
H2044 C2062 0.951 . S
H2045 C2064 0.951 . S
H2046 C2066 0.950 . S
H2047 C2067 0.950 . S
H2048 C2069 0.950 . S
H2049 C2072 0.950 . S
H2050 C2073 0.950 . S
H2051 C2075 0.950 . S
H2052 C2076 0.950 . S
H2053 C2077 0.951 . S
H2054 C2079 0.951 . S
H2055 C2081 0.950 . S
H2056 C2082 0.950 . S
H2057 C2084 0.950 . S
H2058 C2087 0.950 . S
H2059 C2088 0.950 . S
H2060 C2090 0.950 . S
H2061 C2091 0.950 . S
C2062 H2044 0.951 . S
C2062 C2063 1.366 . S
C2062 C2064 1.388 . S
C2063 C2062 1.366 . S
C2063 C2067 1.385 . S
C2064 H2045 0.951 . S
C2064 C2062 1.388 . S
C2064 C2065 1.366 . S
C2065 C2064 1.366 . S
C2065 C2066 1.414 . S
C2065 C2068 1.499 . S
C2066 H2046 0.950 . S
C2066 C2065 1.414 . S
C2066 C2067 1.374 . S
C2067 H2047 0.950 . S
C2067 C2063 1.385 . S
C2067 C2066 1.374 . S
C2068 C2065 1.499 . S
C2068 C2069 1.373 . S
C2068 C2070 1.389 . S
C2069 H2048 0.950 . S
C2069 C2068 1.373 . S
C2069 C2085 1.377 1_455 S
C2070 C2068 1.389 . S
C2070 C2071 1.524 . S
C2070 C2084 1.377 1_455 S
C2071 C2070 1.524 . S
C2071 C2072 1.397 . S
C2071 C2076 1.363 . S
C2072 H2049 0.950 . S
C2072 C2071 1.397 . S
C2072 C2073 1.334 . S
C2073 H2050 0.950 . S
C2073 C2072 1.334 . S
C2073 C2074 1.287 . S
C2074 C2073 1.287 . S
C2074 C2075 1.524 . S
C2074 H2093 0.913 . S
C2075 H2051 0.950 . S
C2075 C2074 1.524 . S
C2075 C2076 1.415 . S
C2076 H2052 0.950 . S
C2076 C2071 1.363 . S
C2076 C2075 1.415 . S
C2077 H2053 0.951 . S
C2077 C2078 1.366 . S
C2077 C2079 1.388 . S
C2078 C2077 1.366 . S
C2078 C2082 1.385 . S
C2079 H2054 0.951 . S
C2079 C2077 1.388 . S
C2079 C2080 1.366 . S
C2080 C2079 1.366 . S
C2080 C2081 1.414 . S
C2080 C2083 1.499 . S
C2081 H2055 0.950 . S
C2081 C2080 1.414 . S
C2081 C2082 1.374 . S
C2082 H2056 0.950 . S
C2082 C2078 1.385 . S
C2082 C2081 1.374 . S
C2083 C2080 1.499 . S
C2083 C2084 1.373 . S
C2083 C2085 1.389 . S
C2084 H2057 0.950 . S
C2084 C2070 1.377 1_655 S
C2084 C2083 1.373 . S
C2085 C2069 1.377 1_655 S
C2085 C2083 1.389 . S
C2085 C2086 1.524 . S
C2086 C2085 1.524 . S
C2086 C2087 1.397 . S
C2086 C2091 1.363 . S
C2087 H2058 0.950 . S
C2087 C2086 1.397 . S
C2087 C2088 1.334 . S
C2088 H2059 0.950 . S
C2088 C2087 1.334 . S
C2088 C2089 1.287 . S
C2089 C2088 1.287 . S
C2089 C2090 1.524 . S
C2089 H2092 0.999 . S
C2090 H2060 0.950 . S
C2090 C2089 1.524 . S
C2090 C2091 1.415 . S
C2091 H2061 0.950 . S
C2091 C2086 1.363 . S
C2091 C2090 1.415 . S
H2092 C2089 0.999 . S
H2093 C2074 0.913 . S
H2094 C2112 0.951 1_556 S
H2095 C2114 0.951 . S
H2096 C2116 0.950 . S
H2097 C2117 0.950 . S
H2098 C2119 0.950 . S
H2099 C2122 0.950 . S
H2100 C2123 0.950 . S
H2101 C2125 0.950 . S
H2102 C2126 0.950 . S
H2103 C2127 0.951 1_554 S
H2104 C2129 0.951 . S
H2105 C2131 0.950 . S
H2106 C2132 0.950 . S
H2107 C2134 0.950 . S
H2108 C2137 0.950 . S
H2109 C2138 0.950 . S
H2110 C2140 0.950 . S
H2111 C2141 0.950 . S
C2112 H2094 0.951 1_554 S
C2112 C2113 1.366 . S
C2112 C2114 1.388 1_554 S
C2113 C2112 1.366 . S
C2113 C2117 1.385 . S
C2114 H2095 0.951 . S
C2114 C2112 1.388 1_556 S
C2114 C2115 1.366 1_556 S
C2115 C2114 1.366 1_554 S
C2115 C2116 1.414 . S
C2115 C2118 1.499 . S
C2116 H2096 0.950 . S
C2116 C2115 1.414 . S
C2116 C2117 1.374 . S
C2117 H2097 0.950 . S
C2117 C2113 1.385 . S
C2117 C2116 1.374 . S
C2118 C2115 1.499 . S
C2118 C2119 1.373 . S
C2118 C2120 1.389 1_554 S
C2119 H2098 0.950 . S
C2119 C2118 1.373 . S
C2119 C2135 1.377 . S
C2120 C2118 1.389 1_556 S
C2120 C2121 1.524 . S
C2120 C2134 1.377 . S
C2121 C2120 1.524 . S
C2121 C2122 1.397 1_556 S
C2121 C2126 1.363 . S
C2122 H2099 0.950 . S
C2122 C2121 1.397 1_554 S
C2122 C2123 1.334 . S
C2123 H2100 0.950 . S
C2123 C2122 1.334 . S
C2123 C2124 1.287 1_554 S
C2124 C2123 1.287 1_556 S
C2124 C2125 1.524 . S
C2124 H2143 0.913 . S
C2125 H2101 0.950 . S
C2125 C2124 1.524 . S
C2125 C2126 1.415 . S
C2126 H2102 0.950 . S
C2126 C2121 1.363 . S
C2126 C2125 1.415 . S
C2127 H2103 0.951 1_556 S
C2127 C2128 1.366 . S
C2127 C2129 1.388 1_556 S
C2128 C2127 1.366 . S
C2128 C2132 1.385 . S
C2129 H2104 0.951 . S
C2129 C2127 1.388 1_554 S
C2129 C2130 1.366 1_554 S
C2130 C2129 1.366 1_556 S
C2130 C2131 1.414 . S
C2130 C2133 1.499 . S
C2131 H2105 0.950 . S
C2131 C2130 1.414 . S
C2131 C2132 1.374 . S
C2132 H2106 0.950 . S
C2132 C2128 1.385 . S
C2132 C2131 1.374 . S
C2133 C2130 1.499 . S
C2133 C2134 1.373 . S
C2133 C2135 1.389 1_556 S
C2134 H2107 0.950 . S
C2134 C2120 1.377 . S
C2134 C2133 1.373 . S
C2135 C2119 1.377 . S
C2135 C2133 1.389 1_554 S
C2135 C2136 1.524 . S
C2136 C2135 1.524 . S
C2136 C2137 1.397 1_554 S
C2136 C2141 1.363 . S
C2137 H2108 0.950 . S
C2137 C2136 1.397 1_556 S
C2137 C2138 1.334 . S
C2138 H2109 0.950 . S
C2138 C2137 1.334 . S
C2138 C2139 1.287 1_556 S
C2139 C2138 1.287 1_554 S
C2139 C2140 1.524 . S
C2139 H2142 0.999 . S
C2140 H2110 0.950 . S
C2140 C2139 1.524 . S
C2140 C2141 1.415 . S
C2141 H2111 0.950 . S
C2141 C2136 1.363 . S
C2141 C2140 1.415 . S
H2142 C2139 0.999 . S
H2143 C2124 0.913 . S
H2144 C2162 0.951 . S
H2145 C2164 0.951 . S
H2146 C2166 0.950 . S
H2147 C2167 0.950 . S
H2148 C2169 0.950 . S
H2149 C2172 0.950 . S
H2150 C2173 0.950 . S
H2151 C2175 0.950 . S
H2152 C2176 0.950 . S
H2153 C2177 0.951 . S
H2154 C2179 0.951 . S
H2155 C2181 0.950 . S
H2156 C2182 0.950 . S
H2157 C2184 0.950 . S
H2158 C2187 0.950 . S
H2159 C2188 0.950 . S
H2160 C2190 0.950 . S
H2161 C2191 0.950 . S
C2162 H2144 0.951 . S
C2162 C2163 1.366 . S
C2162 C2164 1.388 . S
C2163 C2162 1.366 . S
C2163 C2167 1.385 . S
C2164 H2145 0.951 . S
C2164 C2162 1.388 . S
C2164 C2165 1.366 . S
C2165 C2164 1.366 . S
C2165 C2166 1.414 . S
C2165 C2168 1.499 . S
C2166 H2146 0.950 . S
C2166 C2165 1.414 . S
C2166 C2167 1.374 . S
C2167 H2147 0.950 . S
C2167 C2163 1.385 . S
C2167 C2166 1.374 . S
C2168 C2165 1.499 . S
C2168 C2169 1.373 . S
C2168 C2170 1.389 . S
C2169 H2148 0.950 . S
C2169 C2168 1.373 . S
C2169 C2185 1.377 . S
C2170 C2168 1.389 . S
C2170 C2171 1.524 . S
C2170 C2184 1.377 . S
C2171 C2170 1.524 . S
C2171 C2172 1.397 . S
C2171 C2176 1.363 . S
C2172 H2149 0.950 . S
C2172 C2171 1.397 . S
C2172 C2173 1.334 . S
C2173 H2150 0.950 . S
C2173 C2172 1.334 . S
C2173 C2174 1.287 . S
C2174 C2173 1.287 . S
C2174 C2175 1.524 . S
C2174 H2193 0.913 . S
C2175 H2151 0.950 . S
C2175 C2174 1.524 . S
C2175 C2176 1.415 . S
C2176 H2152 0.950 . S
C2176 C2171 1.363 . S
C2176 C2175 1.415 . S
C2177 H2153 0.951 . S
C2177 C2178 1.366 . S
C2177 C2179 1.388 . S
C2178 C2177 1.366 . S
C2178 C2182 1.385 . S
C2179 H2154 0.951 . S
C2179 C2177 1.388 . S
C2179 C2180 1.366 . S
C2180 C2179 1.366 . S
C2180 C2181 1.414 . S
C2180 C2183 1.499 . S
C2181 H2155 0.950 . S
C2181 C2180 1.414 . S
C2181 C2182 1.374 . S
C2182 H2156 0.950 . S
C2182 C2178 1.385 . S
C2182 C2181 1.374 . S
C2183 C2180 1.499 . S
C2183 C2184 1.373 . S
C2183 C2185 1.389 . S
C2184 H2157 0.950 . S
C2184 C2170 1.377 . S
C2184 C2183 1.373 . S
C2185 C2169 1.377 . S
C2185 C2183 1.389 . S
C2185 C2186 1.524 . S
C2186 C2185 1.524 . S
C2186 C2187 1.397 . S
C2186 C2191 1.363 . S
C2187 H2158 0.950 . S
C2187 C2186 1.397 . S
C2187 C2188 1.334 . S
C2188 H2159 0.950 . S
C2188 C2187 1.334 . S
C2188 C2189 1.287 . S
C2189 C2188 1.287 . S
C2189 C2190 1.524 . S
C2189 H2192 0.999 . S
C2190 H2160 0.950 . S
C2190 C2189 1.524 . S
C2190 C2191 1.415 . S
C2191 H2161 0.950 . S
C2191 C2186 1.363 . S
C2191 C2190 1.415 . S
H2192 C2189 0.999 . S
H2193 C2174 0.913 . S
H2194 C2212 0.951 . S
H2195 C2214 0.951 . S
H2196 C2216 0.950 . S
H2197 C2217 0.950 . S
H2198 C2219 0.950 . S
H2199 C2222 0.950 . S
H2200 C2223 0.950 . S
H2201 C2225 0.950 . S
H2202 C2226 0.950 . S
H2203 C2227 0.951 . S
H2204 C2229 0.951 . S
H2205 C2231 0.950 . S
H2206 C2232 0.950 . S
H2207 C2234 0.950 . S
H2208 C2237 0.950 . S
H2209 C2238 0.950 . S
H2210 C2240 0.950 . S
H2211 C2241 0.950 . S
C2212 H2194 0.951 . S
C2212 C2213 1.366 . S
C2212 C2214 1.388 . S
C2213 C2212 1.366 . S
C2213 C2217 1.385 . S
C2214 H2195 0.951 . S
C2214 C2212 1.388 . S
C2214 C2215 1.366 . S
C2215 C2214 1.366 . S
C2215 C2216 1.414 . S
C2215 C2218 1.499 . S
C2216 H2196 0.950 . S
C2216 C2215 1.414 . S
C2216 C2217 1.374 . S
C2217 H2197 0.950 . S
C2217 C2213 1.385 . S
C2217 C2216 1.374 . S
C2218 C2215 1.499 . S
C2218 C2219 1.373 . S
C2218 C2220 1.389 . S
C2219 H2198 0.950 . S
C2219 C2218 1.373 . S
C2219 C2235 1.377 . S
C2220 C2218 1.389 . S
C2220 C2221 1.524 . S
C2220 C2234 1.377 . S
C2221 C2220 1.524 . S
C2221 C2222 1.397 . S
C2221 C2226 1.363 . S
C2222 H2199 0.950 . S
C2222 C2221 1.397 . S
C2222 C2223 1.334 . S
C2223 H2200 0.950 . S
C2223 C2222 1.334 . S
C2223 C2224 1.287 . S
C2224 C2223 1.287 . S
C2224 C2225 1.524 . S
C2224 H2243 0.913 . S
C2225 H2201 0.950 . S
C2225 C2224 1.524 . S
C2225 C2226 1.415 . S
C2226 H2202 0.950 . S
C2226 C2221 1.363 . S
C2226 C2225 1.415 . S
C2227 H2203 0.951 . S
C2227 C2228 1.366 . S
C2227 C2229 1.388 . S
C2228 C2227 1.366 . S
C2228 C2232 1.385 . S
C2229 H2204 0.951 . S
C2229 C2227 1.388 . S
C2229 C2230 1.366 . S
C2230 C2229 1.366 . S
C2230 C2231 1.414 . S
C2230 C2233 1.499 . S
C2231 H2205 0.950 . S
C2231 C2230 1.414 . S
C2231 C2232 1.374 . S
C2232 H2206 0.950 . S
C2232 C2228 1.385 . S
C2232 C2231 1.374 . S
C2233 C2230 1.499 . S
C2233 C2234 1.373 . S
C2233 C2235 1.389 . S
C2234 H2207 0.950 . S
C2234 C2220 1.377 . S
C2234 C2233 1.373 . S
C2235 C2219 1.377 . S
C2235 C2233 1.389 . S
C2235 C2236 1.524 . S
C2236 C2235 1.524 . S
C2236 C2237 1.397 . S
C2236 C2241 1.363 . S
C2237 H2208 0.950 . S
C2237 C2236 1.397 . S
C2237 C2238 1.334 . S
C2238 H2209 0.950 . S
C2238 C2237 1.334 . S
C2238 C2239 1.287 . S
C2239 C2238 1.287 . S
C2239 C2240 1.524 . S
C2239 H2242 0.999 . S
C2240 H2210 0.950 . S
C2240 C2239 1.524 . S
C2240 C2241 1.415 . S
C2241 H2211 0.950 . S
C2241 C2236 1.363 . S
C2241 C2240 1.415 . S
H2242 C2239 0.999 . S
H2243 C2224 0.913 . S
H2244 C2262 0.951 . S
H2245 C2264 0.951 . S
H2246 C2266 0.950 . S
H2247 C2267 0.950 . S
H2248 C2269 0.950 . S
H2249 C2272 0.950 . S
H2250 C2273 0.950 . S
H2251 C2275 0.950 . S
H2252 C2276 0.950 . S
H2253 C2277 0.951 . S
H2254 C2279 0.951 . S
H2255 C2281 0.950 . S
H2256 C2282 0.950 . S
H2257 C2284 0.950 . S
H2258 C2287 0.950 . S
H2259 C2288 0.950 . S
H2260 C2290 0.950 . S
H2261 C2291 0.950 . S
C2262 H2244 0.951 . S
C2262 C2263 1.366 . S
C2262 C2264 1.388 . S
C2263 C2262 1.366 . S
C2263 C2267 1.385 . S
C2264 H2245 0.951 . S
C2264 C2262 1.388 . S
C2264 C2265 1.366 . S
C2265 C2264 1.366 . S
C2265 C2266 1.414 . S
C2265 C2268 1.499 . S
C2266 H2246 0.950 . S
C2266 C2265 1.414 . S
C2266 C2267 1.374 . S
C2267 H2247 0.950 . S
C2267 C2263 1.385 . S
C2267 C2266 1.374 . S
C2268 C2265 1.499 . S
C2268 C2269 1.373 . S
C2268 C2270 1.389 . S
C2269 H2248 0.950 . S
C2269 C2268 1.373 . S
C2269 C2285 1.377 . S
C2270 C2268 1.389 . S
C2270 C2271 1.524 . S
C2270 C2284 1.377 . S
C2271 C2270 1.524 . S
C2271 C2272 1.397 . S
C2271 C2276 1.363 . S
C2272 H2249 0.950 . S
C2272 C2271 1.397 . S
C2272 C2273 1.334 . S
C2273 H2250 0.950 . S
C2273 C2272 1.334 . S
C2273 C2274 1.287 . S
C2274 C2273 1.287 . S
C2274 C2275 1.524 . S
C2274 H2293 0.913 . S
C2275 H2251 0.950 . S
C2275 C2274 1.524 . S
C2275 C2276 1.415 . S
C2276 H2252 0.950 . S
C2276 C2271 1.363 . S
C2276 C2275 1.415 . S
C2277 H2253 0.951 . S
C2277 C2278 1.366 . S
C2277 C2279 1.388 . S
C2278 C2277 1.366 . S
C2278 C2282 1.385 . S
C2279 H2254 0.951 . S
C2279 C2277 1.388 . S
C2279 C2280 1.366 . S
C2280 C2279 1.366 . S
C2280 C2281 1.414 . S
C2280 C2283 1.499 . S
C2281 H2255 0.950 . S
C2281 C2280 1.414 . S
C2281 C2282 1.374 . S
C2282 H2256 0.950 . S
C2282 C2278 1.385 . S
C2282 C2281 1.374 . S
C2283 C2280 1.499 . S
C2283 C2284 1.373 . S
C2283 C2285 1.389 . S
C2284 H2257 0.950 . S
C2284 C2270 1.377 . S
C2284 C2283 1.373 . S
C2285 C2269 1.377 . S
C2285 C2283 1.389 . S
C2285 C2286 1.524 . S
C2286 C2285 1.524 . S
C2286 C2287 1.397 . S
C2286 C2291 1.363 . S
C2287 H2258 0.950 . S
C2287 C2286 1.397 . S
C2287 C2288 1.334 . S
C2288 H2259 0.950 . S
C2288 C2287 1.334 . S
C2288 C2289 1.287 . S
C2289 C2288 1.287 . S
C2289 C2290 1.524 . S
C2289 H2292 0.999 . S
C2290 H2260 0.950 . S
C2290 C2289 1.524 . S
C2290 C2291 1.415 . S
C2291 H2261 0.950 . S
C2291 C2286 1.363 . S
C2291 C2290 1.415 . S
H2292 C2289 0.999 . S
H2293 C2274 0.913 . S
H2294 C2312 0.951 . S
H2295 C2314 0.951 . S
H2296 C2316 0.950 . S
H2297 C2317 0.950 . S
H2298 C2319 0.950 . S
H2299 C2322 0.950 . S
H2300 C2323 0.950 . S
H2301 C2325 0.950 . S
H2302 C2326 0.950 . S
H2303 C2327 0.951 . S
H2304 C2329 0.951 . S
H2305 C2331 0.950 . S
H2306 C2332 0.950 . S
H2307 C2334 0.950 . S
H2308 C2337 0.950 . S
H2309 C2338 0.950 . S
H2310 C2340 0.950 . S
H2311 C2341 0.950 . S
C2312 H2294 0.951 . S
C2312 C2313 1.366 . S
C2312 C2314 1.388 . S
C2313 C2312 1.366 . S
C2313 C2317 1.385 . S
C2314 H2295 0.951 . S
C2314 C2312 1.388 . S
C2314 C2315 1.366 . S
C2315 C2314 1.366 . S
C2315 C2316 1.414 . S
C2315 C2318 1.499 . S
C2316 H2296 0.950 . S
C2316 C2315 1.414 . S
C2316 C2317 1.374 . S
C2317 H2297 0.950 . S
C2317 C2313 1.385 . S
C2317 C2316 1.374 . S
C2318 C2315 1.499 . S
C2318 C2319 1.373 . S
C2318 C2320 1.389 . S
C2319 H2298 0.950 . S
C2319 C2318 1.373 . S
C2319 C2335 1.377 . S
C2320 C2318 1.389 . S
C2320 C2321 1.524 . S
C2320 C2334 1.377 . S
C2321 C2320 1.524 . S
C2321 C2322 1.397 . S
C2321 C2326 1.363 . S
C2322 H2299 0.950 . S
C2322 C2321 1.397 . S
C2322 C2323 1.334 . S
C2323 H2300 0.950 . S
C2323 C2322 1.334 . S
C2323 C2324 1.287 . S
C2324 C2323 1.287 . S
C2324 C2325 1.524 . S
C2324 H2343 0.913 . S
C2325 H2301 0.950 . S
C2325 C2324 1.524 . S
C2325 C2326 1.415 . S
C2326 H2302 0.950 . S
C2326 C2321 1.363 . S
C2326 C2325 1.415 . S
C2327 H2303 0.951 . S
C2327 C2328 1.366 . S
C2327 C2329 1.388 . S
C2328 C2327 1.366 . S
C2328 C2332 1.385 . S
C2329 H2304 0.951 . S
C2329 C2327 1.388 . S
C2329 C2330 1.366 . S
C2330 C2329 1.366 . S
C2330 C2331 1.414 . S
C2330 C2333 1.499 . S
C2331 H2305 0.950 . S
C2331 C2330 1.414 . S
C2331 C2332 1.374 . S
C2332 H2306 0.950 . S
C2332 C2328 1.385 . S
C2332 C2331 1.374 . S
C2333 C2330 1.499 . S
C2333 C2334 1.373 . S
C2333 C2335 1.389 . S
C2334 H2307 0.950 . S
C2334 C2320 1.377 . S
C2334 C2333 1.373 . S
C2335 C2319 1.377 . S
C2335 C2333 1.389 . S
C2335 C2336 1.524 . S
C2336 C2335 1.524 . S
C2336 C2337 1.397 . S
C2336 C2341 1.363 . S
C2337 H2308 0.950 . S
C2337 C2336 1.397 . S
C2337 C2338 1.334 . S
C2338 H2309 0.950 . S
C2338 C2337 1.334 . S
C2338 C2339 1.287 . S
C2339 C2338 1.287 . S
C2339 C2340 1.524 . S
C2339 H2342 0.999 . S
C2340 H2310 0.950 . S
C2340 C2339 1.524 . S
C2340 C2341 1.415 . S
C2341 H2311 0.950 . S
C2341 C2336 1.363 . S
C2341 C2340 1.415 . S
H2342 C2339 0.999 . S
H2343 C2324 0.913 . S
H2344 C2362 0.951 . S
H2345 C2364 0.951 . S
H2346 C2366 0.950 . S
H2347 C2367 0.950 . S
H2348 C2369 0.950 . S
H2349 C2372 0.950 . S
H2350 C2373 0.950 . S
H2351 C2375 0.950 . S
H2352 C2376 0.950 . S
H2353 C2377 0.951 . S
H2354 C2379 0.951 . S
H2355 C2381 0.950 . S
H2356 C2382 0.950 . S
H2357 C2384 0.950 . S
H2358 C2387 0.950 . S
H2359 C2388 0.950 . S
H2360 C2390 0.950 . S
H2361 C2391 0.950 . S
C2362 H2344 0.951 . S
C2362 C2363 1.366 . S
C2362 C2364 1.388 . S
C2363 C2362 1.366 . S
C2363 C2367 1.385 . S
C2364 H2345 0.951 . S
C2364 C2362 1.388 . S
C2364 C2365 1.366 . S
C2365 C2364 1.366 . S
C2365 C2366 1.414 . S
C2365 C2368 1.499 . S
C2366 H2346 0.950 . S
C2366 C2365 1.414 . S
C2366 C2367 1.374 . S
C2367 H2347 0.950 . S
C2367 C2363 1.385 . S
C2367 C2366 1.374 . S
C2368 C2365 1.499 . S
C2368 C2369 1.373 . S
C2368 C2370 1.389 . S
C2369 H2348 0.950 . S
C2369 C2368 1.373 . S
C2369 C2385 1.377 . S
C2370 C2368 1.389 . S
C2370 C2371 1.524 . S
C2370 C2384 1.377 . S
C2371 C2370 1.524 . S
C2371 C2372 1.397 . S
C2371 C2376 1.363 . S
C2372 H2349 0.950 . S
C2372 C2371 1.397 . S
C2372 C2373 1.334 . S
C2373 H2350 0.950 . S
C2373 C2372 1.334 . S
C2373 C2374 1.287 . S
C2374 C2373 1.287 . S
C2374 C2375 1.524 . S
C2374 H2393 0.913 . S
C2375 H2351 0.950 . S
C2375 C2374 1.524 . S
C2375 C2376 1.415 . S
C2376 H2352 0.950 . S
C2376 C2371 1.363 . S
C2376 C2375 1.415 . S
C2377 H2353 0.951 . S
C2377 C2378 1.366 . S
C2377 C2379 1.388 . S
C2378 C2377 1.366 . S
C2378 C2382 1.385 . S
C2379 H2354 0.951 . S
C2379 C2377 1.388 . S
C2379 C2380 1.366 . S
C2380 C2379 1.366 . S
C2380 C2381 1.414 . S
C2380 C2383 1.499 . S
C2381 H2355 0.950 . S
C2381 C2380 1.414 . S
C2381 C2382 1.374 . S
C2382 H2356 0.950 . S
C2382 C2378 1.385 . S
C2382 C2381 1.374 . S
C2383 C2380 1.499 . S
C2383 C2384 1.373 . S
C2383 C2385 1.389 . S
C2384 H2357 0.950 . S
C2384 C2370 1.377 . S
C2384 C2383 1.373 . S
C2385 C2369 1.377 . S
C2385 C2383 1.389 . S
C2385 C2386 1.524 . S
C2386 C2385 1.524 . S
C2386 C2387 1.397 . S
C2386 C2391 1.363 . S
C2387 H2358 0.950 . S
C2387 C2386 1.397 . S
C2387 C2388 1.334 . S
C2388 H2359 0.950 . S
C2388 C2387 1.334 . S
C2388 C2389 1.287 . S
C2389 C2388 1.287 . S
C2389 C2390 1.524 . S
C2389 H2392 0.999 . S
C2390 H2360 0.950 . S
C2390 C2389 1.524 . S
C2390 C2391 1.415 . S
C2391 H2361 0.950 . S
C2391 C2386 1.363 . S
C2391 C2390 1.415 . S
H2392 C2389 0.999 . S
H2393 C2374 0.913 . S
H2394 C2412 0.951 . S
H2395 C2414 0.951 . S
H2396 C2416 0.950 . S
H2397 C2417 0.950 . S
H2398 C2419 0.950 . S
H2399 C2422 0.950 . S
H2400 C2423 0.950 . S
H2401 C2425 0.950 . S
H2402 C2426 0.950 . S
H2403 C2427 0.951 . S
H2404 C2429 0.951 . S
H2405 C2431 0.950 . S
H2406 C2432 0.950 . S
H2407 C2434 0.950 . S
H2408 C2437 0.950 . S
H2409 C2438 0.950 . S
H2410 C2440 0.950 . S
H2411 C2441 0.950 . S
C2412 H2394 0.951 . S
C2412 C2413 1.366 . S
C2412 C2414 1.388 . S
C2413 C2412 1.366 . S
C2413 C2417 1.385 . S
C2414 H2395 0.951 . S
C2414 C2412 1.388 . S
C2414 C2415 1.366 . S
C2415 C2414 1.366 . S
C2415 C2416 1.414 . S
C2415 C2418 1.499 . S
C2416 H2396 0.950 . S
C2416 C2415 1.414 . S
C2416 C2417 1.374 . S
C2417 H2397 0.950 . S
C2417 C2413 1.385 . S
C2417 C2416 1.374 . S
C2418 C2415 1.499 . S
C2418 C2419 1.373 . S
C2418 C2420 1.389 . S
C2419 H2398 0.950 . S
C2419 C2418 1.373 . S
C2419 C2435 1.377 . S
C2420 C2418 1.389 . S
C2420 C2421 1.524 . S
C2420 C2434 1.377 . S
C2421 C2420 1.524 . S
C2421 C2422 1.397 . S
C2421 C2426 1.363 . S
C2422 H2399 0.950 . S
C2422 C2421 1.397 . S
C2422 C2423 1.334 . S
C2423 H2400 0.950 . S
C2423 C2422 1.334 . S
C2423 C2424 1.287 . S
C2424 C2423 1.287 . S
C2424 C2425 1.524 . S
C2424 H2443 0.913 . S
C2425 H2401 0.950 . S
C2425 C2424 1.524 . S
C2425 C2426 1.415 . S
C2426 H2402 0.950 . S
C2426 C2421 1.363 . S
C2426 C2425 1.415 . S
C2427 H2403 0.951 . S
C2427 C2428 1.366 . S
C2427 C2429 1.388 . S
C2428 C2427 1.366 . S
C2428 C2432 1.385 . S
C2429 H2404 0.951 . S
C2429 C2427 1.388 . S
C2429 C2430 1.366 . S
C2430 C2429 1.366 . S
C2430 C2431 1.414 . S
C2430 C2433 1.499 . S
C2431 H2405 0.950 . S
C2431 C2430 1.414 . S
C2431 C2432 1.374 . S
C2432 H2406 0.950 . S
C2432 C2428 1.385 . S
C2432 C2431 1.374 . S
C2433 C2430 1.499 . S
C2433 C2434 1.373 . S
C2433 C2435 1.389 . S
C2434 H2407 0.950 . S
C2434 C2420 1.377 . S
C2434 C2433 1.373 . S
C2435 C2419 1.377 . S
C2435 C2433 1.389 . S
C2435 C2436 1.524 . S
C2436 C2435 1.524 . S
C2436 C2437 1.397 . S
C2436 C2441 1.363 . S
C2437 H2408 0.950 . S
C2437 C2436 1.397 . S
C2437 C2438 1.334 . S
C2438 H2409 0.950 . S
C2438 C2437 1.334 . S
C2438 C2439 1.287 . S
C2439 C2438 1.287 . S
C2439 C2440 1.524 . S
C2439 H2442 0.999 . S
C2440 H2410 0.950 . S
C2440 C2439 1.524 . S
C2440 C2441 1.415 . S
C2441 H2411 0.950 . S
C2441 C2436 1.363 . S
C2441 C2440 1.415 . S
H2442 C2439 0.999 . S
H2443 C2424 0.913 . S
H2444 C2462 0.951 . S
H2445 C2464 0.951 . S
H2446 C2466 0.950 . S
H2447 C2467 0.950 . S
H2448 C2469 0.950 . S
H2449 C2472 0.950 . S
H2450 C2473 0.950 . S
H2451 C2475 0.950 . S
H2452 C2476 0.950 . S
H2453 C2477 0.951 . S
H2454 C2479 0.951 . S
H2455 C2481 0.950 . S
H2456 C2482 0.950 . S
H2457 C2484 0.950 . S
H2458 C2487 0.950 . S
H2459 C2488 0.950 . S
H2460 C2490 0.950 . S
H2461 C2491 0.950 . S
C2462 H2444 0.951 . S
C2462 C2463 1.366 . S
C2462 C2464 1.388 . S
C2463 C2462 1.366 . S
C2463 C2467 1.385 . S
C2464 H2445 0.951 . S
C2464 C2462 1.388 . S
C2464 C2465 1.366 . S
C2465 C2464 1.366 . S
C2465 C2466 1.414 . S
C2465 C2468 1.499 . S
C2466 H2446 0.950 . S
C2466 C2465 1.414 . S
C2466 C2467 1.374 . S
C2467 H2447 0.950 . S
C2467 C2463 1.385 . S
C2467 C2466 1.374 . S
C2468 C2465 1.499 . S
C2468 C2469 1.373 . S
C2468 C2470 1.389 . S
C2469 H2448 0.950 . S
C2469 C2468 1.373 . S
C2469 C2485 1.377 . S
C2470 C2468 1.389 . S
C2470 C2471 1.524 . S
C2470 C2484 1.377 . S
C2471 C2470 1.524 . S
C2471 C2472 1.397 . S
C2471 C2476 1.363 . S
C2472 H2449 0.950 . S
C2472 C2471 1.397 . S
C2472 C2473 1.334 . S
C2473 H2450 0.950 . S
C2473 C2472 1.334 . S
C2473 C2474 1.287 . S
C2474 C2473 1.287 . S
C2474 C2475 1.524 . S
C2474 H2493 0.913 . S
C2475 H2451 0.950 . S
C2475 C2474 1.524 . S
C2475 C2476 1.415 . S
C2476 H2452 0.950 . S
C2476 C2471 1.363 . S
C2476 C2475 1.415 . S
C2477 H2453 0.951 . S
C2477 C2478 1.366 . S
C2477 C2479 1.388 . S
C2478 C2477 1.366 . S
C2478 C2482 1.385 . S
C2479 H2454 0.951 . S
C2479 C2477 1.388 . S
C2479 C2480 1.366 . S
C2480 C2479 1.366 . S
C2480 C2481 1.414 . S
C2480 C2483 1.499 . S
C2481 H2455 0.950 . S
C2481 C2480 1.414 . S
C2481 C2482 1.374 . S
C2482 H2456 0.950 . S
C2482 C2478 1.385 . S
C2482 C2481 1.374 . S
C2483 C2480 1.499 . S
C2483 C2484 1.373 . S
C2483 C2485 1.389 . S
C2484 H2457 0.950 . S
C2484 C2470 1.377 . S
C2484 C2483 1.373 . S
C2485 C2469 1.377 . S
C2485 C2483 1.389 . S
C2485 C2486 1.524 . S
C2486 C2485 1.524 . S
C2486 C2487 1.397 . S
C2486 C2491 1.363 . S
C2487 H2458 0.950 . S
C2487 C2486 1.397 . S
C2487 C2488 1.334 . S
C2488 H2459 0.950 . S
C2488 C2487 1.334 . S
C2488 C2489 1.287 . S
C2489 C2488 1.287 . S
C2489 C2490 1.524 . S
C2489 H2492 0.999 . S
C2490 H2460 0.950 . S
C2490 C2489 1.524 . S
C2490 C2491 1.415 . S
C2491 H2461 0.950 . S
C2491 C2486 1.363 . S
C2491 C2490 1.415 . S
H2492 C2489 0.999 . S
H2493 C2474 0.913 . S
H2494 C2512 0.951 . S
H2495 C2514 0.951 . S
H2496 C2516 0.950 . S
H2497 C2517 0.950 . S
H2498 C2519 0.950 . S
H2499 C2522 0.950 . S
H2500 C2523 0.950 . S
H2501 C2525 0.950 . S
H2502 C2526 0.950 . S
H2503 C2527 0.951 1_455 S
H2504 C2529 0.951 . S
H2505 C2531 0.950 . S
H2506 C2532 0.950 . S
H2507 C2534 0.950 . S
H2508 C2537 0.950 . S
H2509 C2538 0.950 . S
H2510 C2540 0.950 . S
H2511 C2541 0.950 . S
C2512 H2494 0.951 . S
C2512 C2513 1.366 . S
C2512 C2514 1.388 . S
C2513 C2512 1.366 . S
C2513 C2517 1.385 . S
C2514 H2495 0.951 . S
C2514 C2512 1.388 . S
C2514 C2515 1.366 . S
C2515 C2514 1.366 . S
C2515 C2516 1.414 . S
C2515 C2518 1.499 . S
C2516 H2496 0.950 . S
C2516 C2515 1.414 . S
C2516 C2517 1.374 . S
C2517 H2497 0.950 . S
C2517 C2513 1.385 . S
C2517 C2516 1.374 . S
C2518 C2515 1.499 . S
C2518 C2519 1.373 . S
C2518 C2520 1.389 . S
C2519 H2498 0.950 . S
C2519 C2518 1.373 . S
C2519 C2535 1.377 . S
C2520 C2518 1.389 . S
C2520 C2521 1.524 . S
C2520 C2534 1.377 . S
C2521 C2520 1.524 . S
C2521 C2522 1.397 . S
C2521 C2526 1.363 . S
C2522 H2499 0.950 . S
C2522 C2521 1.397 . S
C2522 C2523 1.334 . S
C2523 H2500 0.950 . S
C2523 C2522 1.334 . S
C2523 C2524 1.287 . S
C2524 C2523 1.287 . S
C2524 C2525 1.524 . S
C2524 H2543 0.913 . S
C2525 H2501 0.950 . S
C2525 C2524 1.524 . S
C2525 C2526 1.415 . S
C2526 H2502 0.950 . S
C2526 C2521 1.363 . S
C2526 C2525 1.415 . S
C2527 H2503 0.951 1_655 S
C2527 C2528 1.366 . S
C2527 C2529 1.388 . S
C2528 C2527 1.366 . S
C2528 C2532 1.385 . S
C2529 H2504 0.951 . S
C2529 C2527 1.388 . S
C2529 C2530 1.366 . S
C2530 C2529 1.366 . S
C2530 C2531 1.414 . S
C2530 C2533 1.499 . S
C2531 H2505 0.950 . S
C2531 C2530 1.414 . S
C2531 C2532 1.374 . S
C2532 H2506 0.950 . S
C2532 C2528 1.385 . S
C2532 C2531 1.374 . S
C2533 C2530 1.499 . S
C2533 C2534 1.373 . S
C2533 C2535 1.389 . S
C2534 H2507 0.950 . S
C2534 C2520 1.377 . S
C2534 C2533 1.373 . S
C2535 C2519 1.377 . S
C2535 C2533 1.389 . S
C2535 C2536 1.524 . S
C2536 C2535 1.524 . S
C2536 C2537 1.397 . S
C2536 C2541 1.363 . S
C2537 H2508 0.950 . S
C2537 C2536 1.397 . S
C2537 C2538 1.334 . S
C2538 H2509 0.950 . S
C2538 C2537 1.334 . S
C2538 C2539 1.287 . S
C2539 C2538 1.287 . S
C2539 C2540 1.524 . S
C2539 H2542 0.999 . S
C2540 H2510 0.950 . S
C2540 C2539 1.524 . S
C2540 C2541 1.415 . S
C2541 H2511 0.950 . S
C2541 C2536 1.363 . S
C2541 C2540 1.415 . S
H2542 C2539 0.999 . S
H2543 C2524 0.913 . S
H2544 C2562 0.951 . S
H2545 C2564 0.951 . S
H2546 C2566 0.950 . S
H2547 C2567 0.950 . S
H2548 C2569 0.950 . S
H2549 C2572 0.950 . S
H2550 C2573 0.950 . S
H2551 C2575 0.950 . S
H2552 C2576 0.950 . S
H2553 C2577 0.951 . S
H2554 C2579 0.951 . S
H2555 C2581 0.950 . S
H2556 C2582 0.950 . S
H2557 C2584 0.950 . S
H2558 C2587 0.950 . S
H2559 C2588 0.950 . S
H2560 C2590 0.950 . S
H2561 C2591 0.950 . S
C2562 H2544 0.951 . S
C2562 C2563 1.366 . S
C2562 C2564 1.388 . S
C2563 C2562 1.366 . S
C2563 C2567 1.385 . S
C2564 H2545 0.951 . S
C2564 C2562 1.388 . S
C2564 C2565 1.366 . S
C2565 C2564 1.366 . S
C2565 C2566 1.414 . S
C2565 C2568 1.499 . S
C2566 H2546 0.950 . S
C2566 C2565 1.414 . S
C2566 C2567 1.374 . S
C2567 H2547 0.950 . S
C2567 C2563 1.385 . S
C2567 C2566 1.374 . S
C2568 C2565 1.499 . S
C2568 C2569 1.373 . S
C2568 C2570 1.389 . S
C2569 H2548 0.950 . S
C2569 C2568 1.373 . S
C2569 C2585 1.377 . S
C2570 C2568 1.389 . S
C2570 C2571 1.524 . S
C2570 C2584 1.377 . S
C2571 C2570 1.524 . S
C2571 C2572 1.397 . S
C2571 C2576 1.363 . S
C2572 H2549 0.950 . S
C2572 C2571 1.397 . S
C2572 C2573 1.334 . S
C2573 H2550 0.950 . S
C2573 C2572 1.334 . S
C2573 C2574 1.287 . S
C2574 C2573 1.287 . S
C2574 C2575 1.524 . S
C2574 H2593 0.913 . S
C2575 H2551 0.950 . S
C2575 C2574 1.524 . S
C2575 C2576 1.415 . S
C2576 H2552 0.950 . S
C2576 C2571 1.363 . S
C2576 C2575 1.415 . S
C2577 H2553 0.951 . S
C2577 C2578 1.366 . S
C2577 C2579 1.388 . S
C2578 C2577 1.366 . S
C2578 C2582 1.385 . S
C2579 H2554 0.951 . S
C2579 C2577 1.388 . S
C2579 C2580 1.366 . S
C2580 C2579 1.366 . S
C2580 C2581 1.414 . S
C2580 C2583 1.499 . S
C2581 H2555 0.950 . S
C2581 C2580 1.414 . S
C2581 C2582 1.374 . S
C2582 H2556 0.950 . S
C2582 C2578 1.385 . S
C2582 C2581 1.374 . S
C2583 C2580 1.499 . S
C2583 C2584 1.373 . S
C2583 C2585 1.389 . S
C2584 H2557 0.950 . S
C2584 C2570 1.377 . S
C2584 C2583 1.373 . S
C2585 C2569 1.377 . S
C2585 C2583 1.389 . S
C2585 C2586 1.524 . S
C2586 C2585 1.524 . S
C2586 C2587 1.397 . S
C2586 C2591 1.363 . S
C2587 H2558 0.950 . S
C2587 C2586 1.397 . S
C2587 C2588 1.334 . S
C2588 H2559 0.950 . S
C2588 C2587 1.334 . S
C2588 C2589 1.287 . S
C2589 C2588 1.287 . S
C2589 C2590 1.524 . S
C2589 H2592 0.999 . S
C2590 H2560 0.950 . S
C2590 C2589 1.524 . S
C2590 C2591 1.415 . S
C2591 H2561 0.950 . S
C2591 C2586 1.363 . S
C2591 C2590 1.415 . S
H2592 C2589 0.999 . S
H2593 C2574 0.913 . S
H2594 C2612 0.951 . S
H2595 C2614 0.951 . S
H2596 C2616 0.950 . S
H2597 C2617 0.950 . S
H2598 C2619 0.950 . S
H2599 C2622 0.950 . S
H2600 C2623 0.950 . S
H2601 C2625 0.950 . S
H2602 C2626 0.950 . S
H2603 C2627 0.951 . S
H2604 C2629 0.951 . S
H2605 C2631 0.950 . S
H2606 C2632 0.926 1_455 S
H2607 C2634 0.950 . S
H2608 C2637 0.950 . S
H2609 C2638 0.950 . S
H2610 C2640 0.950 1_545 S
H2611 C2641 0.950 . S
C2612 H2594 0.951 . S
C2612 C2613 1.366 . S
C2612 C2614 1.388 . S
C2613 C2612 1.366 . S
C2613 C2617 1.385 . S
C2614 H2595 0.951 . S
C2614 C2612 1.388 . S
C2614 C2615 1.366 . S
C2615 C2614 1.366 . S
C2615 C2616 1.414 . S
C2615 C2618 1.499 . S
C2616 H2596 0.950 . S
C2616 C2615 1.414 . S
C2616 C2617 1.374 . S
C2617 H2597 0.950 . S
C2617 C2613 1.385 . S
C2617 C2616 1.374 . S
C2618 C2615 1.499 . S
C2618 C2619 1.373 . S
C2618 C2620 1.389 . S
C2619 H2598 0.950 . S
C2619 C2618 1.373 . S
C2619 C2635 1.377 . S
C2620 C2618 1.389 . S
C2620 C2621 1.524 . S
C2620 C2634 1.377 . S
C2621 C2620 1.524 . S
C2621 C2622 1.397 . S
C2621 C2626 1.363 . S
C2622 H2599 0.950 . S
C2622 C2621 1.397 . S
C2622 C2623 1.334 . S
C2623 H2600 0.950 . S
C2623 C2622 1.334 . S
C2623 C2624 1.287 . S
C2624 C2623 1.287 . S
C2624 C2625 1.524 . S
C2624 H2643 0.913 . S
C2625 H2601 0.950 . S
C2625 C2624 1.524 . S
C2625 C2626 1.415 . S
C2626 H2602 0.950 . S
C2626 C2621 1.363 . S
C2626 C2625 1.415 . S
C2627 H2603 0.951 . S
C2627 C2628 1.366 . S
C2627 C2629 1.388 . S
C2628 C2627 1.366 . S
C2628 C2632 1.385 . S
C2629 H2604 0.951 . S
C2629 C2627 1.388 . S
C2629 C2630 1.366 . S
C2630 C2629 1.366 . S
C2630 C2631 1.414 . S
C2630 C2633 1.499 . S
C2631 H2605 0.950 . S
C2631 C2630 1.414 . S
C2631 C2632 1.374 . S
C2632 H2606 0.926 1_655 S
C2632 C2628 1.385 . S
C2632 C2631 1.374 . S
C2633 C2630 1.499 . S
C2633 C2634 1.373 . S
C2633 C2635 1.389 . S
C2634 H2607 0.950 . S
C2634 C2620 1.377 . S
C2634 C2633 1.373 . S
C2635 C2619 1.377 . S
C2635 C2633 1.389 . S
C2635 C2636 1.524 . S
C2636 C2635 1.524 . S
C2636 C2637 1.397 . S
C2636 C2641 1.363 . S
C2637 H2608 0.950 . S
C2637 C2636 1.397 . S
C2637 C2638 1.334 . S
C2638 H2609 0.950 . S
C2638 C2637 1.334 . S
C2638 C2639 1.287 . S
C2639 C2638 1.287 . S
C2639 C2640 1.524 . S
C2639 H2642 0.999 . S
C2640 H2610 0.950 1_565 S
C2640 C2639 1.524 . S
C2640 C2641 1.415 . S
C2641 H2611 0.950 . S
C2641 C2636 1.363 . S
C2641 C2640 1.415 . S
H2642 C2639 0.999 . S
H2643 C2624 0.913 . S
H2644 C2662 0.951 . S
H2645 C2664 0.951 . S
H2646 C2666 0.950 . S
H2647 C2667 0.950 . S
H2648 C2669 0.950 . S
H2649 C2672 0.950 . S
H2650 C2673 0.950 . S
H2651 C2675 0.950 . S
H2652 C2676 0.950 . S
H2653 C2677 0.951 . S
H2654 C2679 0.951 . S
H2655 C2681 0.950 . S
H2656 C2682 0.950 . S
H2657 C2684 0.950 . S
H2658 C2687 0.950 . S
H2659 C2688 0.950 . S
H2660 C2690 0.950 . S
H2661 C2691 0.950 . S
C2662 H2644 0.951 . S
C2662 C2663 1.366 . S
C2662 C2664 1.388 . S
C2663 C2662 1.366 . S
C2663 C2667 1.385 . S
C2664 H2645 0.951 . S
C2664 C2662 1.388 . S
C2664 C2665 1.366 . S
C2665 C2664 1.366 . S
C2665 C2666 1.414 . S
C2665 C2668 1.499 . S
C2666 H2646 0.950 . S
C2666 C2665 1.414 . S
C2666 C2667 1.374 . S
C2667 H2647 0.950 . S
C2667 C2663 1.385 . S
C2667 C2666 1.374 . S
C2668 C2665 1.499 . S
C2668 C2669 1.373 . S
C2668 C2670 1.389 . S
C2669 H2648 0.950 . S
C2669 C2668 1.373 . S
C2669 C2685 1.377 . S
C2670 C2668 1.389 . S
C2670 C2671 1.524 . S
C2670 C2684 1.377 . S
C2671 C2670 1.524 . S
C2671 C2672 1.397 . S
C2671 C2676 1.363 . S
C2672 H2649 0.950 . S
C2672 C2671 1.397 . S
C2672 C2673 1.334 . S
C2673 H2650 0.950 . S
C2673 C2672 1.334 . S
C2673 C2674 1.287 . S
C2674 C2673 1.287 . S
C2674 C2675 1.524 . S
C2674 H2693 0.913 . S
C2675 H2651 0.950 . S
C2675 C2674 1.524 . S
C2675 C2676 1.415 . S
C2676 H2652 0.950 . S
C2676 C2671 1.363 . S
C2676 C2675 1.415 . S
C2677 H2653 0.951 . S
C2677 C2678 1.366 . S
C2677 C2679 1.388 . S
C2678 C2677 1.366 . S
C2678 C2682 1.385 . S
C2679 H2654 0.951 . S
C2679 C2677 1.388 . S
C2679 C2680 1.366 . S
C2680 C2679 1.366 . S
C2680 C2681 1.414 . S
C2680 C2683 1.499 . S
C2681 H2655 0.950 . S
C2681 C2680 1.414 . S
C2681 C2682 1.374 . S
C2682 H2656 0.950 . S
C2682 C2678 1.385 . S
C2682 C2681 1.374 . S
C2683 C2680 1.499 . S
C2683 C2684 1.373 . S
C2683 C2685 1.389 . S
C2684 H2657 0.950 . S
C2684 C2670 1.377 . S
C2684 C2683 1.373 . S
C2685 C2669 1.377 . S
C2685 C2683 1.389 . S
C2685 C2686 1.524 . S
C2686 C2685 1.524 . S
C2686 C2687 1.397 . S
C2686 C2691 1.363 . S
C2687 H2658 0.950 . S
C2687 C2686 1.397 . S
C2687 C2688 1.334 . S
C2688 H2659 0.950 . S
C2688 C2687 1.334 . S
C2688 C2689 1.287 . S
C2689 C2688 1.287 . S
C2689 C2690 1.524 . S
C2689 H2692 0.999 . S
C2690 H2660 0.950 . S
C2690 C2689 1.524 . S
C2690 C2691 1.415 . S
C2691 H2661 0.950 . S
C2691 C2686 1.363 . S
C2691 C2690 1.415 . S
H2692 C2689 0.999 . S
H2693 C2674 0.913 . S
H2694 C2712 0.951 . S
H2695 C2714 0.951 . S
H2696 C2716 0.950 . S
H2697 C2717 0.950 . S
H2698 C2719 0.950 . S
H2699 C2722 0.950 . S
H2700 C2723 0.950 . S
H2701 C2725 0.950 . S
H2702 C2726 0.950 . S
H2703 C2727 0.951 . S
H2704 C2729 0.951 . S
H2705 C2731 0.950 . S
H2706 C2732 0.950 . S
H2707 C2734 0.950 . S
H2708 C2737 0.950 . S
H2709 C2738 0.950 . S
H2710 C2740 0.950 . S
H2711 C2741 0.950 . S
C2712 H2694 0.951 . S
C2712 C2713 1.366 . S
C2712 C2714 1.388 . S
C2713 C2712 1.366 . S
C2713 C2717 1.385 . S
C2714 H2695 0.951 . S
C2714 C2712 1.388 . S
C2714 C2715 1.366 . S
C2715 C2714 1.366 . S
C2715 C2716 1.414 . S
C2715 C2718 1.499 . S
C2716 H2696 0.950 . S
C2716 C2715 1.414 . S
C2716 C2717 1.374 . S
C2717 H2697 0.950 . S
C2717 C2713 1.385 . S
C2717 C2716 1.374 . S
C2718 C2715 1.499 . S
C2718 C2719 1.373 . S
C2718 C2720 1.389 . S
C2719 H2698 0.950 . S
C2719 C2718 1.373 . S
C2719 C2735 1.377 . S
C2720 C2718 1.389 . S
C2720 C2721 1.524 . S
C2720 C2734 1.377 . S
C2721 C2720 1.524 . S
C2721 C2722 1.397 . S
C2721 C2726 1.363 . S
C2722 H2699 0.950 . S
C2722 C2721 1.397 . S
C2722 C2723 1.334 . S
C2723 H2700 0.950 . S
C2723 C2722 1.334 . S
C2723 C2724 1.287 . S
C2724 C2723 1.287 . S
C2724 C2725 1.524 . S
C2724 H2743 0.913 . S
C2725 H2701 0.950 . S
C2725 C2724 1.524 . S
C2725 C2726 1.415 . S
C2726 H2702 0.950 . S
C2726 C2721 1.363 . S
C2726 C2725 1.415 . S
C2727 H2703 0.951 . S
C2727 C2728 1.366 . S
C2727 C2729 1.388 . S
C2728 C2727 1.366 . S
C2728 C2732 1.385 . S
C2729 H2704 0.951 . S
C2729 C2727 1.388 . S
C2729 C2730 1.366 . S
C2730 C2729 1.366 . S
C2730 C2731 1.414 . S
C2730 C2733 1.499 . S
C2731 H2705 0.950 . S
C2731 C2730 1.414 . S
C2731 C2732 1.374 . S
C2732 H2706 0.950 . S
C2732 C2728 1.385 . S
C2732 C2731 1.374 . S
C2733 C2730 1.499 . S
C2733 C2734 1.373 . S
C2733 C2735 1.389 . S
C2734 H2707 0.950 . S
C2734 C2720 1.377 . S
C2734 C2733 1.373 . S
C2735 C2719 1.377 . S
C2735 C2733 1.389 . S
C2735 C2736 1.524 . S
C2736 C2735 1.524 . S
C2736 C2737 1.397 . S
C2736 C2741 1.363 . S
C2737 H2708 0.950 . S
C2737 C2736 1.397 . S
C2737 C2738 1.334 . S
C2738 H2709 0.950 . S
C2738 C2737 1.334 . S
C2738 C2739 1.287 . S
C2739 C2738 1.287 . S
C2739 C2740 1.524 . S
C2739 H2742 0.999 . S
C2740 H2710 0.950 . S
C2740 C2739 1.524 . S
C2740 C2741 1.415 . S
C2741 H2711 0.950 . S
C2741 C2736 1.363 . S
C2741 C2740 1.415 . S
H2742 C2739 0.999 . S
H2743 C2724 0.913 . S
H2744 C2762 0.951 . S
H2745 C2764 0.951 . S
H2746 C2766 0.950 . S
H2747 C2767 0.950 . S
H2748 C2769 0.950 . S
H2749 C2772 0.950 . S
H2750 C2773 0.950 . S
H2751 C2775 0.950 . S
H2752 C2776 0.950 . S
H2753 C2777 0.951 . S
H2754 C2779 0.951 . S
H2755 C2781 0.950 . S
H2756 C2782 0.950 . S
H2757 C2784 0.950 . S
H2758 C2787 0.950 . S
H2759 C2788 0.950 . S
H2760 C2790 0.950 . S
H2761 C2791 0.950 . S
C2762 H2744 0.951 . S
C2762 C2763 1.366 . S
C2762 C2764 1.388 . S
C2763 C2762 1.366 . S
C2763 C2767 1.385 . S
C2764 H2745 0.951 . S
C2764 C2762 1.388 . S
C2764 C2765 1.366 . S
C2765 C2764 1.366 . S
C2765 C2766 1.414 . S
C2765 C2768 1.499 . S
C2766 H2746 0.950 . S
C2766 C2765 1.414 . S
C2766 C2767 1.374 . S
C2767 H2747 0.950 . S
C2767 C2763 1.385 . S
C2767 C2766 1.374 . S
C2768 C2765 1.499 . S
C2768 C2769 1.373 . S
C2768 C2770 1.389 . S
C2769 H2748 0.950 . S
C2769 C2768 1.373 . S
C2769 C2785 1.377 . S
C2770 C2768 1.389 . S
C2770 C2771 1.524 . S
C2770 C2784 1.377 . S
C2771 C2770 1.524 . S
C2771 C2772 1.397 . S
C2771 C2776 1.363 . S
C2772 H2749 0.950 . S
C2772 C2771 1.397 . S
C2772 C2773 1.334 . S
C2773 H2750 0.950 . S
C2773 C2772 1.334 . S
C2773 C2774 1.287 . S
C2774 C2773 1.287 . S
C2774 C2775 1.524 . S
C2774 H2793 0.913 . S
C2775 H2751 0.950 . S
C2775 C2774 1.524 . S
C2775 C2776 1.415 . S
C2776 H2752 0.950 . S
C2776 C2771 1.363 . S
C2776 C2775 1.415 . S
C2777 H2753 0.951 . S
C2777 C2778 1.366 . S
C2777 C2779 1.388 . S
C2778 C2777 1.366 . S
C2778 C2782 1.385 . S
C2779 H2754 0.951 . S
C2779 C2777 1.388 . S
C2779 C2780 1.366 . S
C2780 C2779 1.366 . S
C2780 C2781 1.414 . S
C2780 C2783 1.499 . S
C2781 H2755 0.950 . S
C2781 C2780 1.414 . S
C2781 C2782 1.374 . S
C2782 H2756 0.950 . S
C2782 C2778 1.385 . S
C2782 C2781 1.374 . S
C2783 C2780 1.499 . S
C2783 C2784 1.373 . S
C2783 C2785 1.389 . S
C2784 H2757 0.950 . S
C2784 C2770 1.377 . S
C2784 C2783 1.373 . S
C2785 C2769 1.377 . S
C2785 C2783 1.389 . S
C2785 C2786 1.524 . S
C2786 C2785 1.524 . S
C2786 C2787 1.397 . S
C2786 C2791 1.363 . S
C2787 H2758 0.950 . S
C2787 C2786 1.397 . S
C2787 C2788 1.334 . S
C2788 H2759 0.950 . S
C2788 C2787 1.334 . S
C2788 C2789 1.287 . S
C2789 C2788 1.287 . S
C2789 C2790 1.524 . S
C2789 H2792 0.999 . S
C2790 H2760 0.950 . S
C2790 C2789 1.524 . S
C2790 C2791 1.415 . S
C2791 H2761 0.950 . S
C2791 C2786 1.363 . S
C2791 C2790 1.415 . S
H2792 C2789 0.999 . S
H2793 C2774 0.913 . S
H2794 C2812 0.951 1_655 S
H2795 C2814 0.951 . S
H2796 C2816 0.950 . S
H2797 C2817 0.950 . S
H2798 C2819 0.950 . S
H2799 C2822 0.950 . S
H2800 C2823 0.950 . S
H2801 C2825 0.950 . S
H2802 C2826 0.950 . S
H2803 C2827 0.951 . S
H2804 C2829 0.951 . S
H2805 C2831 0.950 . S
H2806 C2832 0.950 . S
H2807 C2834 0.950 . S
H2808 C2837 0.950 . S
H2809 C2838 0.950 . S
H2810 C2840 0.950 . S
H2811 C2841 0.950 . S
C2812 H2794 0.951 1_455 S
C2812 C2813 1.366 . S
C2812 C2814 1.388 . S
C2813 C2812 1.366 . S
C2813 C2817 1.385 . S
C2814 H2795 0.951 . S
C2814 C2812 1.388 . S
C2814 C2815 1.366 . S
C2815 C2814 1.366 . S
C2815 C2816 1.414 . S
C2815 C2818 1.499 . S
C2816 H2796 0.950 . S
C2816 C2815 1.414 . S
C2816 C2817 1.374 . S
C2817 H2797 0.950 . S
C2817 C2813 1.385 . S
C2817 C2816 1.374 . S
C2818 C2815 1.499 . S
C2818 C2819 1.373 . S
C2818 C2820 1.389 . S
C2819 H2798 0.950 . S
C2819 C2818 1.373 . S
C2819 C2835 1.377 . S
C2820 C2818 1.389 . S
C2820 C2821 1.524 . S
C2820 C2834 1.377 . S
C2821 C2820 1.524 . S
C2821 C2822 1.397 . S
C2821 C2826 1.363 . S
C2822 H2799 0.950 . S
C2822 C2821 1.397 . S
C2822 C2823 1.334 . S
C2823 H2800 0.950 . S
C2823 C2822 1.334 . S
C2823 C2824 1.287 . S
C2824 C2823 1.287 . S
C2824 C2825 1.524 . S
C2824 H2843 0.913 . S
C2825 H2801 0.950 . S
C2825 C2824 1.524 . S
C2825 C2826 1.415 . S
C2826 H2802 0.950 . S
C2826 C2821 1.363 . S
C2826 C2825 1.415 . S
C2827 H2803 0.951 . S
C2827 C2828 1.366 . S
C2827 C2829 1.388 . S
C2828 C2827 1.366 . S
C2828 C2832 1.385 . S
C2829 H2804 0.951 . S
C2829 C2827 1.388 . S
C2829 C2830 1.366 . S
C2830 C2829 1.366 . S
C2830 C2831 1.414 . S
C2830 C2833 1.499 . S
C2831 H2805 0.950 . S
C2831 C2830 1.414 . S
C2831 C2832 1.374 . S
C2832 H2806 0.950 . S
C2832 C2828 1.385 . S
C2832 C2831 1.374 . S
C2833 C2830 1.499 . S
C2833 C2834 1.373 . S
C2833 C2835 1.389 . S
C2834 H2807 0.950 . S
C2834 C2820 1.377 . S
C2834 C2833 1.373 . S
C2835 C2819 1.377 . S
C2835 C2833 1.389 . S
C2835 C2836 1.524 . S
C2836 C2835 1.524 . S
C2836 C2837 1.397 . S
C2836 C2841 1.363 . S
C2837 H2808 0.950 . S
C2837 C2836 1.397 . S
C2837 C2838 1.334 . S
C2838 H2809 0.950 . S
C2838 C2837 1.334 . S
C2838 C2839 1.287 . S
C2839 C2838 1.287 . S
C2839 C2840 1.524 . S
C2839 H2842 0.999 . S
C2840 H2810 0.950 . S
C2840 C2839 1.524 . S
C2840 C2841 1.415 . S
C2841 H2811 0.950 . S
C2841 C2836 1.363 . S
C2841 C2840 1.415 . S
H2842 C2839 0.999 . S
H2843 C2824 0.913 . S
H2844 C2862 0.951 . S
H2845 C2864 0.951 . S
H2846 C2866 0.950 . S
H2847 C2867 0.950 . S
H2848 C2869 0.950 . S
H2849 C2872 0.950 . S
H2850 C2873 0.950 . S
H2851 C2875 0.950 . S
H2852 C2876 0.950 . S
H2853 C2877 0.951 . S
H2854 C2879 0.951 . S
H2855 C2881 0.950 . S
H2856 C2882 0.950 . S
H2857 C2884 0.950 . S
H2858 C2887 0.950 . S
H2859 C2888 0.950 . S
H2860 C2890 0.950 . S
H2861 C2891 0.950 . S
C2862 H2844 0.951 . S
C2862 C2863 1.366 . S
C2862 C2864 1.388 . S
C2863 C2862 1.366 . S
C2863 C2867 1.385 . S
C2864 H2845 0.951 . S
C2864 C2862 1.388 . S
C2864 C2865 1.366 . S
C2865 C2864 1.366 . S
C2865 C2866 1.414 . S
C2865 C2868 1.499 . S
C2866 H2846 0.950 . S
C2866 C2865 1.414 . S
C2866 C2867 1.374 . S
C2867 H2847 0.950 . S
C2867 C2863 1.385 . S
C2867 C2866 1.374 . S
C2868 C2865 1.499 . S
C2868 C2869 1.373 . S
C2868 C2870 1.389 . S
C2869 H2848 0.950 . S
C2869 C2868 1.373 . S
C2869 C2885 1.377 . S
C2870 C2868 1.389 . S
C2870 C2871 1.524 . S
C2870 C2884 1.377 . S
C2871 C2870 1.524 . S
C2871 C2872 1.397 . S
C2871 C2876 1.363 . S
C2872 H2849 0.950 . S
C2872 C2871 1.397 . S
C2872 C2873 1.334 . S
C2873 H2850 0.950 . S
C2873 C2872 1.334 . S
C2873 C2874 1.287 . S
C2874 C2873 1.287 . S
C2874 C2875 1.524 . S
C2874 H2893 0.913 . S
C2875 H2851 0.950 . S
C2875 C2874 1.524 . S
C2875 C2876 1.415 . S
C2876 H2852 0.950 . S
C2876 C2871 1.363 . S
C2876 C2875 1.415 . S
C2877 H2853 0.951 . S
C2877 C2878 1.366 . S
C2877 C2879 1.388 . S
C2878 C2877 1.366 . S
C2878 C2882 1.385 . S
C2879 H2854 0.951 . S
C2879 C2877 1.388 . S
C2879 C2880 1.366 . S
C2880 C2879 1.366 . S
C2880 C2881 1.414 . S
C2880 C2883 1.499 . S
C2881 H2855 0.950 . S
C2881 C2880 1.414 . S
C2881 C2882 1.374 . S
C2882 H2856 0.950 . S
C2882 C2878 1.385 . S
C2882 C2881 1.374 . S
C2883 C2880 1.499 . S
C2883 C2884 1.373 . S
C2883 C2885 1.389 . S
C2884 H2857 0.950 . S
C2884 C2870 1.377 . S
C2884 C2883 1.373 . S
C2885 C2869 1.377 . S
C2885 C2883 1.389 . S
C2885 C2886 1.524 . S
C2886 C2885 1.524 . S
C2886 C2887 1.397 . S
C2886 C2891 1.363 . S
C2887 H2858 0.950 . S
C2887 C2886 1.397 . S
C2887 C2888 1.334 . S
C2888 H2859 0.950 . S
C2888 C2887 1.334 . S
C2888 C2889 1.287 . S
C2889 C2888 1.287 . S
C2889 C2890 1.524 . S
C2889 H2892 0.999 . S
C2890 H2860 0.950 . S
C2890 C2889 1.524 . S
C2890 C2891 1.415 . S
C2891 H2861 0.950 . S
C2891 C2886 1.363 . S
C2891 C2890 1.415 . S
H2892 C2889 0.999 . S
H2893 C2874 0.913 . S
H2894 C2912 0.951 . S
H2895 C2914 0.951 . S
H2896 C2916 0.950 . S
H2897 C2917 0.950 . S
H2898 C2919 0.950 . S
H2899 C2922 0.950 . S
H2900 C2923 0.950 . S
H2901 C2925 0.950 . S
H2902 C2926 0.950 . S
H2903 C2927 0.951 . S
H2904 C2929 0.951 . S
H2905 C2931 0.950 . S
H2906 C2932 0.950 . S
H2907 C2934 0.950 . S
H2908 C2937 0.950 . S
H2909 C2938 0.950 . S
H2910 C2940 0.950 . S
H2911 C2941 0.950 . S
C2912 H2894 0.951 . S
C2912 C2913 1.366 . S
C2912 C2914 1.388 . S
C2913 C2912 1.366 . S
C2913 C2917 1.385 . S
C2914 H2895 0.951 . S
C2914 C2912 1.388 . S
C2914 C2915 1.366 . S
C2915 C2914 1.366 . S
C2915 C2916 1.414 . S
C2915 C2918 1.499 . S
C2916 H2896 0.950 . S
C2916 C2915 1.414 . S
C2916 C2917 1.374 . S
C2917 H2897 0.950 . S
C2917 C2913 1.385 . S
C2917 C2916 1.374 . S
C2918 C2915 1.499 . S
C2918 C2919 1.373 . S
C2918 C2920 1.389 . S
C2919 H2898 0.950 . S
C2919 C2918 1.373 . S
C2919 C2935 1.377 . S
C2920 C2918 1.389 . S
C2920 C2921 1.524 . S
C2920 C2934 1.377 . S
C2921 C2920 1.524 . S
C2921 C2922 1.397 . S
C2921 C2926 1.363 . S
C2922 H2899 0.950 . S
C2922 C2921 1.397 . S
C2922 C2923 1.334 . S
C2923 H2900 0.950 . S
C2923 C2922 1.334 . S
C2923 C2924 1.287 . S
C2924 C2923 1.287 . S
C2924 C2925 1.524 . S
C2924 H2943 0.913 . S
C2925 H2901 0.950 . S
C2925 C2924 1.524 . S
C2925 C2926 1.415 . S
C2926 H2902 0.950 . S
C2926 C2921 1.363 . S
C2926 C2925 1.415 . S
C2927 H2903 0.951 . S
C2927 C2928 1.366 . S
C2927 C2929 1.388 . S
C2928 C2927 1.366 . S
C2928 C2932 1.385 . S
C2929 H2904 0.951 . S
C2929 C2927 1.388 . S
C2929 C2930 1.366 . S
C2930 C2929 1.366 . S
C2930 C2931 1.414 . S
C2930 C2933 1.499 . S
C2931 H2905 0.950 . S
C2931 C2930 1.414 . S
C2931 C2932 1.374 . S
C2932 H2906 0.950 . S
C2932 C2928 1.385 . S
C2932 C2931 1.374 . S
C2933 C2930 1.499 . S
C2933 C2934 1.373 . S
C2933 C2935 1.389 . S
C2934 H2907 0.950 . S
C2934 C2920 1.377 . S
C2934 C2933 1.373 . S
C2935 C2919 1.377 . S
C2935 C2933 1.389 . S
C2935 C2936 1.524 . S
C2936 C2935 1.524 . S
C2936 C2937 1.397 . S
C2936 C2941 1.363 . S
C2937 H2908 0.950 . S
C2937 C2936 1.397 . S
C2937 C2938 1.334 . S
C2938 H2909 0.950 . S
C2938 C2937 1.334 . S
C2938 C2939 1.287 . S
C2939 C2938 1.287 . S
C2939 C2940 1.524 . S
C2939 H2942 0.999 . S
C2940 H2910 0.950 . S
C2940 C2939 1.524 . S
C2940 C2941 1.415 . S
C2941 H2911 0.950 . S
C2941 C2936 1.363 . S
C2941 C2940 1.415 . S
H2942 C2939 0.999 . S
H2943 C2924 0.913 . S
H2944 C2962 0.951 . S
H2945 C2964 0.951 . S
H2946 C2966 0.950 . S
H2947 C2967 0.950 . S
H2948 C2969 0.950 . S
H2949 C2972 0.950 . S
H2950 C2973 0.950 . S
H2951 C2975 0.950 . S
H2952 C2976 0.950 . S
H2953 C2977 0.951 . S
H2954 C2979 0.951 . S
H2955 C2981 0.950 . S
H2956 C2982 0.950 . S
H2957 C2984 0.950 . S
H2958 C2987 0.950 . S
H2959 C2988 0.950 . S
H2960 C2990 0.950 . S
H2961 C2991 0.950 . S
C2962 H2944 0.951 . S
C2962 C2963 1.366 . S
C2962 C2964 1.388 1_554 S
C2963 C2962 1.366 . S
C2963 C2967 1.385 1_554 S
C2964 H2945 0.951 . S
C2964 C2962 1.388 1_556 S
C2964 C2965 1.366 . S
C2965 C2964 1.366 . S
C2965 C2966 1.414 . S
C2965 C2968 1.499 . S
C2966 H2946 0.950 . S
C2966 C2965 1.414 . S
C2966 C2967 1.374 . S
C2967 H2947 0.950 . S
C2967 C2963 1.385 1_556 S
C2967 C2966 1.374 . S
C2968 C2965 1.499 . S
C2968 C2969 1.373 . S
C2968 C2970 1.389 . S
C2969 H2948 0.950 . S
C2969 C2968 1.373 . S
C2969 C2985 1.377 . S
C2970 C2968 1.389 . S
C2970 C2971 1.524 . S
C2970 C2984 1.377 . S
C2971 C2970 1.524 . S
C2971 C2972 1.397 . S
C2971 C2976 1.363 . S
C2972 H2949 0.950 . S
C2972 C2971 1.397 . S
C2972 C2973 1.334 . S
C2973 H2950 0.950 . S
C2973 C2972 1.334 . S
C2973 C2974 1.287 . S
C2974 C2973 1.287 . S
C2974 C2975 1.524 . S
C2974 H2993 0.894 1_556 S
C2975 H2951 0.950 . S
C2975 C2974 1.524 . S
C2975 C2976 1.415 . S
C2976 H2952 0.950 . S
C2976 C2971 1.363 . S
C2976 C2975 1.415 . S
C2977 H2953 0.951 . S
C2977 C2978 1.366 . S
C2977 C2979 1.388 . S
C2978 C2977 1.366 . S
C2978 C2982 1.385 . S
C2979 H2954 0.951 . S
C2979 C2977 1.388 . S
C2979 C2980 1.366 . S
C2980 C2979 1.366 . S
C2980 C2981 1.414 . S
C2980 C2983 1.499 . S
C2981 H2955 0.950 . S
C2981 C2980 1.414 . S
C2981 C2982 1.374 . S
C2982 H2956 0.950 . S
C2982 C2978 1.385 . S
C2982 C2981 1.374 . S
C2983 C2980 1.499 . S
C2983 C2984 1.373 . S
C2983 C2985 1.389 . S
C2984 H2957 0.950 . S
C2984 C2970 1.377 . S
C2984 C2983 1.373 . S
C2985 C2969 1.377 . S
C2985 C2983 1.389 . S
C2985 C2986 1.524 . S
C2986 C2985 1.524 . S
C2986 C2987 1.397 . S
C2986 C2991 1.363 . S
C2987 H2958 0.950 . S
C2987 C2986 1.397 . S
C2987 C2988 1.334 . S
C2988 H2959 0.950 . S
C2988 C2987 1.334 . S
C2988 C2989 1.287 . S
C2989 C2988 1.287 . S
C2989 C2990 1.524 . S
C2989 H2992 0.999 . S
C2990 H2960 0.950 . S
C2990 C2989 1.524 . S
C2990 C2991 1.415 . S
C2991 H2961 0.950 . S
C2991 C2986 1.363 . S
C2991 C2990 1.415 . S
H2992 C2989 0.999 . S
H2993 C2974 0.894 1_554 S
H2994 C3012 0.951 . S
H2995 C3014 0.951 . S
H2996 C3016 0.950 . S
H2997 C3017 0.950 . S
H2998 C3019 0.950 . S
H2999 C3022 0.950 . S
H3000 C3023 0.950 . S
H3001 C3025 0.950 . S
H3002 C3026 0.950 . S
H3003 C3027 0.951 . S
H3004 C3029 0.951 . S
H3005 C3031 0.950 . S
H3006 C3032 0.950 . S
H3007 C3034 0.950 . S
H3008 C3037 0.950 . S
H3009 C3038 0.950 . S
H3010 C3040 0.950 . S
H3011 C3041 0.950 . S
C3012 H2994 0.951 . S
C3012 C3013 1.366 . S
C3012 C3014 1.388 . S
C3013 C3012 1.366 . S
C3013 C3017 1.385 . S
C3014 H2995 0.951 . S
C3014 C3012 1.388 . S
C3014 C3015 1.366 . S
C3015 C3014 1.366 . S
C3015 C3016 1.414 . S
C3015 C3018 1.499 . S
C3016 H2996 0.950 . S
C3016 C3015 1.414 . S
C3016 C3017 1.374 . S
C3017 H2997 0.950 . S
C3017 C3013 1.385 . S
C3017 C3016 1.374 . S
C3018 C3015 1.499 . S
C3018 C3019 1.373 . S
C3018 C3020 1.389 . S
C3019 H2998 0.950 . S
C3019 C3018 1.373 . S
C3019 C3035 1.377 . S
C3020 C3018 1.389 . S
C3020 C3021 1.524 . S
C3020 C3034 1.377 . S
C3021 C3020 1.524 . S
C3021 C3022 1.397 . S
C3021 C3026 1.363 . S
C3022 H2999 0.950 . S
C3022 C3021 1.397 . S
C3022 C3023 1.334 . S
C3023 H3000 0.950 . S
C3023 C3022 1.334 . S
C3023 C3024 1.287 . S
C3024 C3023 1.287 . S
C3024 C3025 1.524 . S
C3024 H3043 0.913 . S
C3025 H3001 0.950 . S
C3025 C3024 1.524 . S
C3025 C3026 1.415 . S
C3026 H3002 0.950 . S
C3026 C3021 1.363 . S
C3026 C3025 1.415 . S
C3027 H3003 0.951 . S
C3027 C3028 1.366 . S
C3027 C3029 1.388 . S
C3028 C3027 1.366 . S
C3028 C3032 1.385 . S
C3029 H3004 0.951 . S
C3029 C3027 1.388 . S
C3029 C3030 1.366 . S
C3030 C3029 1.366 . S
C3030 C3031 1.414 . S
C3030 C3033 1.499 . S
C3031 H3005 0.950 . S
C3031 C3030 1.414 . S
C3031 C3032 1.374 . S
C3032 H3006 0.950 . S
C3032 C3028 1.385 . S
C3032 C3031 1.374 . S
C3033 C3030 1.499 . S
C3033 C3034 1.373 . S
C3033 C3035 1.389 . S
C3034 H3007 0.950 . S
C3034 C3020 1.377 . S
C3034 C3033 1.373 . S
C3035 C3019 1.377 . S
C3035 C3033 1.389 . S
C3035 C3036 1.524 . S
C3036 C3035 1.524 . S
C3036 C3037 1.397 . S
C3036 C3041 1.363 . S
C3037 H3008 0.950 . S
C3037 C3036 1.397 . S
C3037 C3038 1.334 . S
C3038 H3009 0.950 . S
C3038 C3037 1.334 . S
C3038 C3039 1.287 . S
C3039 C3038 1.287 . S
C3039 C3040 1.524 . S
C3039 H3042 0.999 . S
C3040 H3010 0.950 . S
C3040 C3039 1.524 . S
C3040 C3041 1.415 . S
C3041 H3011 0.950 . S
C3041 C3036 1.363 . S
C3041 C3040 1.415 . S
H3042 C3039 0.999 . S
H3043 C3024 0.913 . S
H3044 C3062 0.951 . S
H3045 C3064 0.951 . S
H3046 C3066 0.950 . S
H3047 C3067 0.950 . S
H3048 C3069 0.950 . S
H3049 C3072 0.950 . S
H3050 C3073 0.950 . S
H3051 C3075 0.950 . S
H3052 C3076 0.950 . S
H3053 C3077 0.951 . S
H3054 C3079 0.951 . S
H3055 C3081 0.950 . S
H3056 C3082 0.950 . S
H3057 C3084 0.950 . S
H3058 C3087 0.950 . S
H3059 C3088 0.950 . S
H3060 C3090 0.950 1_545 S
H3061 C3091 0.950 . S
C3062 H3044 0.951 . S
C3062 C3063 1.366 . S
C3062 C3064 1.388 . S
C3063 C3062 1.366 . S
C3063 C3067 1.385 . S
C3064 H3045 0.951 . S
C3064 C3062 1.388 . S
C3064 C3065 1.366 . S
C3065 C3064 1.366 . S
C3065 C3066 1.414 . S
C3065 C3068 1.499 . S
C3066 H3046 0.950 . S
C3066 C3065 1.414 . S
C3066 C3067 1.374 . S
C3067 H3047 0.950 . S
C3067 C3063 1.385 . S
C3067 C3066 1.374 . S
C3068 C3065 1.499 . S
C3068 C3069 1.373 . S
C3068 C3070 1.389 . S
C3069 H3048 0.950 . S
C3069 C3068 1.373 . S
C3069 C3085 1.377 . S
C3070 C3068 1.389 . S
C3070 C3071 1.524 . S
C3070 C3084 1.377 . S
C3071 C3070 1.524 . S
C3071 C3072 1.397 . S
C3071 C3076 1.363 . S
C3072 H3049 0.950 . S
C3072 C3071 1.397 . S
C3072 C3073 1.334 . S
C3073 H3050 0.950 . S
C3073 C3072 1.334 . S
C3073 C3074 1.287 . S
C3074 C3073 1.287 . S
C3074 C3075 1.524 . S
C3074 H3093 0.913 . S
C3075 H3051 0.950 . S
C3075 C3074 1.524 . S
C3075 C3076 1.415 . S
C3076 H3052 0.950 . S
C3076 C3071 1.363 . S
C3076 C3075 1.415 . S
C3077 H3053 0.951 . S
C3077 C3078 1.366 . S
C3077 C3079 1.388 . S
C3078 C3077 1.366 . S
C3078 C3082 1.385 . S
C3079 H3054 0.951 . S
C3079 C3077 1.388 . S
C3079 C3080 1.366 . S
C3080 C3079 1.366 . S
C3080 C3081 1.414 . S
C3080 C3083 1.499 . S
C3081 H3055 0.950 . S
C3081 C3080 1.414 . S
C3081 C3082 1.374 . S
C3082 H3056 0.950 . S
C3082 C3078 1.385 . S
C3082 C3081 1.374 . S
C3083 C3080 1.499 . S
C3083 C3084 1.373 . S
C3083 C3085 1.389 . S
C3084 H3057 0.950 . S
C3084 C3070 1.377 . S
C3084 C3083 1.373 . S
C3085 C3069 1.377 . S
C3085 C3083 1.389 . S
C3085 C3086 1.524 . S
C3086 C3085 1.524 . S
C3086 C3087 1.397 . S
C3086 C3091 1.363 . S
C3087 H3058 0.950 . S
C3087 C3086 1.397 . S
C3087 C3088 1.334 . S
C3088 H3059 0.950 . S
C3088 C3087 1.334 . S
C3088 C3089 1.287 . S
C3089 C3088 1.287 . S
C3089 C3090 1.524 . S
C3089 H3092 1.025 . S
C3090 H3060 0.950 1_565 S
C3090 C3089 1.524 . S
C3090 C3091 1.415 . S
C3091 H3061 0.950 . S
C3091 C3086 1.363 . S
C3091 C3090 1.415 . S
H3092 C3089 1.025 . S
H3093 C3074 0.913 . S
H3094 C3112 0.951 . S
H3095 C3114 0.951 . S
H3096 C3116 0.950 . S
H3097 C3117 0.950 . S
H3098 C3119 0.950 . S
H3099 C3122 0.950 . S
H3100 C3123 0.950 . S
H3101 C3125 0.950 . S
H3102 C3126 0.950 . S
H3103 C3127 0.951 . S
H3104 C3129 0.951 . S
H3105 C3131 0.950 . S
H3106 C3132 0.950 . S
H3107 C3134 0.950 . S
H3108 C3137 0.950 . S
H3109 C3138 0.950 . S
H3110 C3140 0.950 . S
H3111 C3141 0.950 . S
C3112 H3094 0.951 . S
C3112 C3113 1.366 . S
C3112 C3114 1.388 . S
C3113 C3112 1.366 . S
C3113 C3117 1.385 . S
C3114 H3095 0.951 . S
C3114 C3112 1.388 . S
C3114 C3115 1.366 . S
C3115 C3114 1.366 . S
C3115 C3116 1.414 . S
C3115 C3118 1.499 . S
C3116 H3096 0.950 . S
C3116 C3115 1.414 . S
C3116 C3117 1.374 . S
C3117 H3097 0.950 . S
C3117 C3113 1.385 . S
C3117 C3116 1.374 . S
C3118 C3115 1.499 . S
C3118 C3119 1.373 . S
C3118 C3120 1.389 . S
C3119 H3098 0.950 . S
C3119 C3118 1.373 . S
C3119 C3135 1.377 . S
C3120 C3118 1.389 . S
C3120 C3121 1.524 . S
C3120 C3134 1.377 . S
C3121 C3120 1.524 . S
C3121 C3122 1.397 . S
C3121 C3126 1.363 . S
C3122 H3099 0.950 . S
C3122 C3121 1.397 . S
C3122 C3123 1.334 . S
C3123 H3100 0.950 . S
C3123 C3122 1.334 . S
C3123 C3124 1.287 . S
C3124 C3123 1.287 . S
C3124 C3125 1.524 . S
C3124 H3143 0.913 . S
C3125 H3101 0.950 . S
C3125 C3124 1.524 . S
C3125 C3126 1.415 . S
C3126 H3102 0.950 . S
C3126 C3121 1.363 . S
C3126 C3125 1.415 . S
C3127 H3103 0.951 . S
C3127 C3128 1.366 . S
C3127 C3129 1.388 . S
C3128 C3127 1.366 . S
C3128 C3132 1.385 . S
C3129 H3104 0.951 . S
C3129 C3127 1.388 . S
C3129 C3130 1.366 . S
C3130 C3129 1.366 . S
C3130 C3131 1.414 . S
C3130 C3133 1.499 . S
C3131 H3105 0.950 . S
C3131 C3130 1.414 . S
C3131 C3132 1.374 . S
C3132 H3106 0.950 . S
C3132 C3128 1.385 . S
C3132 C3131 1.374 . S
C3133 C3130 1.499 . S
C3133 C3134 1.373 . S
C3133 C3135 1.389 . S
C3134 H3107 0.950 . S
C3134 C3120 1.377 . S
C3134 C3133 1.373 . S
C3135 C3119 1.377 . S
C3135 C3133 1.389 . S
C3135 C3136 1.524 . S
C3136 C3135 1.524 . S
C3136 C3137 1.397 . S
C3136 C3141 1.363 . S
C3137 H3108 0.950 . S
C3137 C3136 1.397 . S
C3137 C3138 1.334 . S
C3138 H3109 0.950 . S
C3138 C3137 1.334 . S
C3138 C3139 1.287 . S
C3139 C3138 1.287 . S
C3139 C3140 1.524 . S
C3139 H3142 0.999 . S
C3140 H3110 0.950 . S
C3140 C3139 1.524 . S
C3140 C3141 1.415 . S
C3141 H3111 0.950 . S
C3141 C3136 1.363 . S
C3141 C3140 1.415 . S
H3142 C3139 0.999 . S
H3143 C3124 0.913 . S
H3144 C3162 0.951 . S
H3145 C3164 0.951 . S
H3146 C3166 0.950 . S
H3147 C3167 0.950 . S
H3148 C3169 0.950 . S
H3149 C3172 0.950 . S
H3150 C3173 0.950 . S
H3151 C3175 0.950 . S
H3152 C3176 0.950 . S
H3153 C3177 0.951 . S
H3154 C3179 0.951 . S
H3155 C3181 0.950 . S
H3156 C3182 0.950 . S
H3157 C3184 0.950 . S
H3158 C3187 0.950 . S
H3159 C3188 0.950 1_556 S
H3160 C3190 0.975 . S
H3161 C3191 0.950 . S
C3162 H3144 0.951 . S
C3162 C3163 1.366 . S
C3162 C3164 1.388 . S
C3163 C3162 1.366 . S
C3163 C3167 1.385 . S
C3164 H3145 0.951 . S
C3164 C3162 1.388 . S
C3164 C3165 1.366 . S
C3165 C3164 1.366 . S
C3165 C3166 1.414 . S
C3165 C3168 1.499 . S
C3166 H3146 0.950 . S
C3166 C3165 1.414 . S
C3166 C3167 1.374 . S
C3167 H3147 0.950 . S
C3167 C3163 1.385 . S
C3167 C3166 1.374 . S
C3168 C3165 1.499 . S
C3168 C3169 1.373 . S
C3168 C3170 1.389 . S
C3169 H3148 0.950 . S
C3169 C3168 1.373 . S
C3169 C3185 1.377 . S
C3170 C3168 1.389 . S
C3170 C3171 1.524 . S
C3170 C3184 1.377 . S
C3171 C3170 1.524 . S
C3171 C3172 1.397 . S
C3171 C3176 1.363 . S
C3172 H3149 0.950 . S
C3172 C3171 1.397 . S
C3172 C3173 1.334 . S
C3173 H3150 0.950 . S
C3173 C3172 1.334 . S
C3173 C3174 1.287 . S
C3174 C3173 1.287 . S
C3174 C3175 1.524 . S
C3174 H3193 0.913 . S
C3175 H3151 0.950 . S
C3175 C3174 1.524 . S
C3175 C3176 1.415 . S
C3176 H3152 0.950 . S
C3176 C3171 1.363 . S
C3176 C3175 1.415 . S
C3177 H3153 0.951 . S
C3177 C3178 1.366 . S
C3177 C3179 1.388 1_556 S
C3178 C3177 1.366 . S
C3178 C3182 1.385 1_556 S
C3179 H3154 0.951 . S
C3179 C3177 1.388 1_554 S
C3179 C3180 1.366 . S
C3180 C3179 1.366 . S
C3180 C3181 1.414 . S
C3180 C3183 1.499 . S
C3181 H3155 0.950 . S
C3181 C3180 1.414 . S
C3181 C3182 1.374 . S
C3182 H3156 0.950 . S
C3182 C3178 1.385 1_554 S
C3182 C3181 1.374 . S
C3183 C3180 1.499 . S
C3183 C3184 1.373 . S
C3183 C3185 1.389 . S
C3184 H3157 0.950 . S
C3184 C3170 1.377 . S
C3184 C3183 1.373 . S
C3185 C3169 1.377 . S
C3185 C3183 1.389 . S
C3185 C3186 1.524 . S
C3186 C3185 1.524 . S
C3186 C3187 1.397 . S
C3186 C3191 1.363 . S
C3187 H3158 0.950 . S
C3187 C3186 1.397 . S
C3187 C3188 1.334 . S
C3188 H3159 0.950 1_554 S
C3188 C3187 1.334 . S
C3188 C3189 1.287 1_554 S
C3189 C3188 1.287 1_556 S
C3189 C3190 1.524 1_556 S
C3189 H3192 0.999 . S
C3190 H3160 0.975 . S
C3190 C3189 1.524 1_554 S
C3190 C3191 1.415 . S
C3191 H3161 0.950 . S
C3191 C3186 1.363 . S
C3191 C3190 1.415 . S
H3192 C3189 0.999 . S
H3193 C3174 0.913 . S
H3194 C3212 0.951 . S
H3195 C3214 0.951 . S
H3196 C3216 0.950 . S
H3197 C3217 0.950 . S
H3198 C3219 0.950 . S
H3199 C3222 0.950 . S
H3200 C3223 0.950 . S
H3201 C3225 0.950 . S
H3202 C3226 0.950 . S
H3203 C3227 0.951 . S
H3204 C3229 0.951 . S
H3205 C3231 0.950 . S
H3206 C3232 0.950 . S
H3207 C3234 0.950 . S
H3208 C3237 0.950 . S
H3209 C3238 0.950 . S
H3210 C3240 0.950 . S
H3211 C3241 0.950 . S
C3212 H3194 0.951 . S
C3212 C3213 1.366 . S
C3212 C3214 1.388 . S
C3213 C3212 1.366 . S
C3213 C3217 1.385 . S
C3214 H3195 0.951 . S
C3214 C3212 1.388 . S
C3214 C3215 1.366 . S
C3215 C3214 1.366 . S
C3215 C3216 1.414 . S
C3215 C3218 1.499 . S
C3216 H3196 0.950 . S
C3216 C3215 1.414 . S
C3216 C3217 1.374 . S
C3217 H3197 0.950 . S
C3217 C3213 1.385 . S
C3217 C3216 1.374 . S
C3218 C3215 1.499 . S
C3218 C3219 1.373 . S
C3218 C3220 1.389 . S
C3219 H3198 0.950 . S
C3219 C3218 1.373 . S
C3219 C3235 1.377 . S
C3220 C3218 1.389 . S
C3220 C3221 1.524 . S
C3220 C3234 1.377 . S
C3221 C3220 1.524 . S
C3221 C3222 1.397 . S
C3221 C3226 1.363 . S
C3222 H3199 0.950 . S
C3222 C3221 1.397 . S
C3222 C3223 1.334 . S
C3223 H3200 0.950 . S
C3223 C3222 1.334 . S
C3223 C3224 1.287 . S
C3224 C3223 1.287 . S
C3224 C3225 1.524 . S
C3224 H3243 0.913 . S
C3225 H3201 0.950 . S
C3225 C3224 1.524 . S
C3225 C3226 1.415 . S
C3226 H3202 0.950 . S
C3226 C3221 1.363 . S
C3226 C3225 1.415 . S
C3227 H3203 0.951 . S
C3227 C3228 1.366 . S
C3227 C3229 1.388 . S
C3228 C3227 1.366 . S
C3228 C3232 1.385 . S
C3229 H3204 0.951 . S
C3229 C3227 1.388 . S
C3229 C3230 1.366 . S
C3230 C3229 1.366 . S
C3230 C3231 1.414 . S
C3230 C3233 1.499 . S
C3231 H3205 0.950 . S
C3231 C3230 1.414 . S
C3231 C3232 1.374 . S
C3232 H3206 0.950 . S
C3232 C3228 1.385 . S
C3232 C3231 1.374 . S
C3233 C3230 1.499 . S
C3233 C3234 1.373 . S
C3233 C3235 1.389 . S
C3234 H3207 0.950 . S
C3234 C3220 1.377 . S
C3234 C3233 1.373 . S
C3235 C3219 1.377 . S
C3235 C3233 1.389 . S
C3235 C3236 1.524 . S
C3236 C3235 1.524 . S
C3236 C3237 1.397 . S
C3236 C3241 1.363 . S
C3237 H3208 0.950 . S
C3237 C3236 1.397 . S
C3237 C3238 1.334 . S
C3238 H3209 0.950 . S
C3238 C3237 1.334 . S
C3238 C3239 1.287 . S
C3239 C3238 1.287 . S
C3239 C3240 1.524 . S
C3239 H3242 0.999 . S
C3240 H3210 0.950 . S
C3240 C3239 1.524 . S
C3240 C3241 1.415 . S
C3241 H3211 0.950 . S
C3241 C3236 1.363 . S
C3241 C3240 1.415 . S
H3242 C3239 0.999 . S
H3243 C3224 0.913 . S
H3244 C3262 0.951 . S
H3245 C3264 0.951 . S
H3246 C3266 0.950 . S
H3247 C3267 0.950 . S
H3248 C3269 0.950 . S
H3249 C3272 0.950 . S
H3250 C3273 0.950 . S
H3251 C3275 0.950 . S
H3252 C3276 0.950 . S
H3253 C3277 0.951 . S
H3254 C3279 0.951 . S
H3255 C3281 0.950 . S
H3256 C3282 0.950 . S
H3257 C3284 0.950 . S
H3258 C3287 0.950 . S
H3259 C3288 0.950 . S
H3260 C3290 0.950 . S
H3261 C3291 0.950 . S
C3262 H3244 0.951 . S
C3262 C3263 1.366 . S
C3262 C3264 1.388 . S
C3263 C3262 1.366 . S
C3263 C3267 1.385 . S
C3264 H3245 0.951 . S
C3264 C3262 1.388 . S
C3264 C3265 1.366 . S
C3265 C3264 1.366 . S
C3265 C3266 1.414 . S
C3265 C3268 1.499 . S
C3266 H3246 0.950 . S
C3266 C3265 1.414 . S
C3266 C3267 1.374 . S
C3267 H3247 0.950 . S
C3267 C3263 1.385 . S
C3267 C3266 1.374 . S
C3268 C3265 1.499 . S
C3268 C3269 1.373 . S
C3268 C3270 1.389 . S
C3269 H3248 0.950 . S
C3269 C3268 1.373 . S
C3269 C3285 1.377 . S
C3270 C3268 1.389 . S
C3270 C3271 1.524 . S
C3270 C3284 1.377 . S
C3271 C3270 1.524 . S
C3271 C3272 1.397 . S
C3271 C3276 1.363 . S
C3272 H3249 0.950 . S
C3272 C3271 1.397 . S
C3272 C3273 1.334 . S
C3273 H3250 0.950 . S
C3273 C3272 1.334 . S
C3273 C3274 1.287 . S
C3274 C3273 1.287 . S
C3274 C3275 1.524 . S
C3274 H3293 0.913 . S
C3275 H3251 0.950 . S
C3275 C3274 1.524 . S
C3275 C3276 1.415 . S
C3276 H3252 0.950 . S
C3276 C3271 1.363 . S
C3276 C3275 1.415 . S
C3277 H3253 0.951 . S
C3277 C3278 1.366 . S
C3277 C3279 1.388 . S
C3278 C3277 1.366 . S
C3278 C3282 1.385 . S
C3279 H3254 0.951 . S
C3279 C3277 1.388 . S
C3279 C3280 1.366 . S
C3280 C3279 1.366 . S
C3280 C3281 1.414 . S
C3280 C3283 1.499 . S
C3281 H3255 0.950 . S
C3281 C3280 1.414 . S
C3281 C3282 1.374 . S
C3282 H3256 0.950 . S
C3282 C3278 1.385 . S
C3282 C3281 1.374 . S
C3283 C3280 1.499 . S
C3283 C3284 1.373 . S
C3283 C3285 1.389 . S
C3284 H3257 0.950 . S
C3284 C3270 1.377 . S
C3284 C3283 1.373 . S
C3285 C3269 1.377 . S
C3285 C3283 1.389 . S
C3285 C3286 1.524 . S
C3286 C3285 1.524 . S
C3286 C3287 1.397 . S
C3286 C3291 1.363 . S
C3287 H3258 0.950 . S
C3287 C3286 1.397 . S
C3287 C3288 1.334 . S
C3288 H3259 0.950 . S
C3288 C3287 1.334 . S
C3288 C3289 1.287 . S
C3289 C3288 1.287 . S
C3289 C3290 1.524 . S
C3289 H3292 0.999 . S
C3290 H3260 0.950 . S
C3290 C3289 1.524 . S
C3290 C3291 1.415 . S
C3291 H3261 0.950 . S
C3291 C3286 1.363 . S
C3291 C3290 1.415 . S
H3292 C3289 0.999 . S
H3293 C3274 0.913 . S
H3294 C3312 0.951 . S
H3295 C3314 0.951 . S
H3296 C3316 0.950 . S
H3297 C3317 0.950 . S
H3298 C3319 0.950 . S
H3299 C3322 0.950 . S
H3300 C3323 0.950 . S
H3301 C3325 0.950 . S
H3302 C3326 0.950 . S
H3303 C3327 0.951 . S
H3304 C3329 0.951 . S
H3305 C3331 0.950 . S
H3306 C3332 0.950 . S
H3307 C3334 0.950 . S
H3308 C3337 0.950 . S
H3309 C3338 0.950 . S
H3310 C3340 0.950 . S
H3311 C3341 0.950 . S
C3312 H3294 0.951 . S
C3312 C3313 1.366 . S
C3312 C3314 1.388 . S
C3313 C3312 1.366 . S
C3313 C3317 1.385 . S
C3314 H3295 0.951 . S
C3314 C3312 1.388 . S
C3314 C3315 1.366 . S
C3315 C3314 1.366 . S
C3315 C3316 1.414 . S
C3315 C3318 1.499 . S
C3316 H3296 0.950 . S
C3316 C3315 1.414 . S
C3316 C3317 1.374 . S
C3317 H3297 0.950 . S
C3317 C3313 1.385 . S
C3317 C3316 1.374 . S
C3318 C3315 1.499 . S
C3318 C3319 1.373 . S
C3318 C3320 1.389 . S
C3319 H3298 0.950 . S
C3319 C3318 1.373 . S
C3319 C3335 1.377 . S
C3320 C3318 1.389 . S
C3320 C3321 1.524 . S
C3320 C3334 1.377 . S
C3321 C3320 1.524 . S
C3321 C3322 1.397 . S
C3321 C3326 1.363 . S
C3322 H3299 0.950 . S
C3322 C3321 1.397 . S
C3322 C3323 1.334 . S
C3323 H3300 0.950 . S
C3323 C3322 1.334 . S
C3323 C3324 1.287 . S
C3324 C3323 1.287 . S
C3324 C3325 1.524 . S
C3324 H3343 0.913 . S
C3325 H3301 0.950 . S
C3325 C3324 1.524 . S
C3325 C3326 1.415 . S
C3326 H3302 0.950 . S
C3326 C3321 1.363 . S
C3326 C3325 1.415 . S
C3327 H3303 0.951 . S
C3327 C3328 1.366 . S
C3327 C3329 1.388 . S
C3328 C3327 1.366 . S
C3328 C3332 1.385 . S
C3329 H3304 0.951 . S
C3329 C3327 1.388 . S
C3329 C3330 1.366 . S
C3330 C3329 1.366 . S
C3330 C3331 1.414 . S
C3330 C3333 1.499 . S
C3331 H3305 0.950 . S
C3331 C3330 1.414 . S
C3331 C3332 1.374 . S
C3332 H3306 0.950 . S
C3332 C3328 1.385 . S
C3332 C3331 1.374 . S
C3333 C3330 1.499 . S
C3333 C3334 1.373 . S
C3333 C3335 1.389 . S
C3334 H3307 0.950 . S
C3334 C3320 1.377 . S
C3334 C3333 1.373 . S
C3335 C3319 1.377 . S
C3335 C3333 1.389 . S
C3335 C3336 1.524 . S
C3336 C3335 1.524 . S
C3336 C3337 1.397 . S
C3336 C3341 1.363 . S
C3337 H3308 0.950 . S
C3337 C3336 1.397 . S
C3337 C3338 1.334 . S
C3338 H3309 0.950 . S
C3338 C3337 1.334 . S
C3338 C3339 1.287 . S
C3339 C3338 1.287 . S
C3339 C3340 1.524 . S
C3339 H3342 0.999 . S
C3340 H3310 0.950 . S
C3340 C3339 1.524 . S
C3340 C3341 1.415 . S
C3341 H3311 0.950 . S
C3341 C3336 1.363 . S
C3341 C3340 1.415 . S
H3342 C3339 0.999 . S
H3343 C3324 0.913 . S
H3344 C3362 0.951 . S
H3345 C3364 0.951 . S
H3346 C3366 0.950 . S
H3347 C3367 0.950 . S
H3348 C3369 0.950 . S
H3349 C3372 0.950 . S
H3350 C3373 0.950 . S
H3351 C3375 0.950 . S
H3352 C3376 0.950 . S
H3353 C3377 0.951 . S
H3354 C3379 0.951 . S
H3355 C3381 0.950 . S
H3356 C3382 0.950 . S
H3357 C3384 0.950 . S
H3358 C3387 0.950 . S
H3359 C3388 0.950 . S
H3360 C3390 0.950 . S
H3361 C3391 0.950 . S
C3362 H3344 0.951 . S
C3362 C3363 1.366 . S
C3362 C3364 1.388 . S
C3363 C3362 1.366 . S
C3363 C3367 1.385 . S
C3364 H3345 0.951 . S
C3364 C3362 1.388 . S
C3364 C3365 1.366 . S
C3365 C3364 1.366 . S
C3365 C3366 1.414 . S
C3365 C3368 1.499 . S
C3366 H3346 0.950 . S
C3366 C3365 1.414 . S
C3366 C3367 1.374 . S
C3367 H3347 0.950 . S
C3367 C3363 1.385 . S
C3367 C3366 1.374 . S
C3368 C3365 1.499 . S
C3368 C3369 1.373 . S
C3368 C3370 1.389 . S
C3369 H3348 0.950 . S
C3369 C3368 1.373 . S
C3369 C3385 1.377 . S
C3370 C3368 1.389 . S
C3370 C3371 1.524 . S
C3370 C3384 1.377 . S
C3371 C3370 1.524 . S
C3371 C3372 1.397 . S
C3371 C3376 1.363 . S
C3372 H3349 0.950 . S
C3372 C3371 1.397 . S
C3372 C3373 1.334 . S
C3373 H3350 0.950 . S
C3373 C3372 1.334 . S
C3373 C3374 1.287 . S
C3374 C3373 1.287 . S
C3374 C3375 1.524 . S
C3374 H3393 0.913 . S
C3375 H3351 0.950 . S
C3375 C3374 1.524 . S
C3375 C3376 1.415 . S
C3376 H3352 0.950 . S
C3376 C3371 1.363 . S
C3376 C3375 1.415 . S
C3377 H3353 0.951 . S
C3377 C3378 1.366 . S
C3377 C3379 1.388 . S
C3378 C3377 1.366 . S
C3378 C3382 1.385 . S
C3379 H3354 0.951 . S
C3379 C3377 1.388 . S
C3379 C3380 1.366 . S
C3380 C3379 1.366 . S
C3380 C3381 1.414 . S
C3380 C3383 1.499 . S
C3381 H3355 0.950 . S
C3381 C3380 1.414 . S
C3381 C3382 1.374 . S
C3382 H3356 0.950 . S
C3382 C3378 1.385 . S
C3382 C3381 1.374 . S
C3383 C3380 1.499 . S
C3383 C3384 1.373 . S
C3383 C3385 1.389 . S
C3384 H3357 0.950 . S
C3384 C3370 1.377 . S
C3384 C3383 1.373 . S
C3385 C3369 1.377 . S
C3385 C3383 1.389 . S
C3385 C3386 1.524 . S
C3386 C3385 1.524 . S
C3386 C3387 1.397 . S
C3386 C3391 1.363 . S
C3387 H3358 0.950 . S
C3387 C3386 1.397 . S
C3387 C3388 1.334 . S
C3388 H3359 0.950 . S
C3388 C3387 1.334 . S
C3388 C3389 1.287 . S
C3389 C3388 1.287 . S
C3389 C3390 1.524 . S
C3389 H3392 0.999 . S
C3390 H3360 0.950 . S
C3390 C3389 1.524 . S
C3390 C3391 1.415 . S
C3391 H3361 0.950 . S
C3391 C3386 1.363 . S
C3391 C3390 1.415 . S
H3392 C3389 0.999 . S
H3393 C3374 0.913 . S
H3394 C3412 0.951 . S
H3395 C3414 0.951 . S
H3396 C3416 0.950 . S
H3397 C3417 0.950 . S
H3398 C3419 0.950 . S
H3399 C3422 0.950 . S
H3400 C3423 0.950 . S
H3401 C3425 0.950 . S
H3402 C3426 0.950 . S
H3403 C3427 0.951 . S
H3404 C3429 0.951 . S
H3405 C3431 0.950 1_545 S
H3406 C3432 0.950 . S
H3407 C3434 0.950 . S
H3408 C3437 0.950 . S
H3409 C3438 0.950 . S
H3410 C3440 0.950 . S
H3411 C3441 0.950 . S
C3412 H3394 0.951 . S
C3412 C3413 1.366 . S
C3412 C3414 1.388 . S
C3413 C3412 1.366 . S
C3413 C3417 1.385 . S
C3414 H3395 0.951 . S
C3414 C3412 1.388 . S
C3414 C3415 1.366 . S
C3415 C3414 1.366 . S
C3415 C3416 1.414 . S
C3415 C3418 1.499 . S
C3416 H3396 0.950 . S
C3416 C3415 1.414 . S
C3416 C3417 1.374 . S
C3417 H3397 0.950 . S
C3417 C3413 1.385 . S
C3417 C3416 1.374 . S
C3418 C3415 1.499 . S
C3418 C3419 1.373 . S
C3418 C3420 1.389 . S
C3419 H3398 0.950 . S
C3419 C3418 1.373 . S
C3419 C3435 1.377 . S
C3420 C3418 1.389 . S
C3420 C3421 1.524 . S
C3420 C3434 1.377 . S
C3421 C3420 1.524 . S
C3421 C3422 1.397 . S
C3421 C3426 1.363 . S
C3422 H3399 0.950 . S
C3422 C3421 1.397 . S
C3422 C3423 1.334 . S
C3423 H3400 0.950 . S
C3423 C3422 1.334 . S
C3423 C3424 1.287 . S
C3424 C3423 1.287 . S
C3424 C3425 1.524 . S
C3424 H3443 0.913 . S
C3425 H3401 0.950 . S
C3425 C3424 1.524 . S
C3425 C3426 1.415 . S
C3426 H3402 0.950 . S
C3426 C3421 1.363 . S
C3426 C3425 1.415 . S
C3427 H3403 0.951 . S
C3427 C3428 1.366 . S
C3427 C3429 1.388 . S
C3428 C3427 1.366 . S
C3428 C3432 1.385 1_565 S
C3429 H3404 0.951 . S
C3429 C3427 1.388 . S
C3429 C3430 1.366 . S
C3430 C3429 1.366 . S
C3430 C3431 1.414 . S
C3430 C3433 1.499 . S
C3431 H3405 0.950 1_565 S
C3431 C3430 1.414 . S
C3431 C3432 1.374 1_565 S
C3432 H3406 0.950 . S
C3432 C3428 1.385 1_545 S
C3432 C3431 1.374 1_545 S
C3433 C3430 1.499 . S
C3433 C3434 1.373 . S
C3433 C3435 1.389 . S
C3434 H3407 0.950 . S
C3434 C3420 1.377 . S
C3434 C3433 1.373 . S
C3435 C3419 1.377 . S
C3435 C3433 1.389 . S
C3435 C3436 1.524 . S
C3436 C3435 1.524 . S
C3436 C3437 1.397 . S
C3436 C3441 1.363 . S
C3437 H3408 0.950 . S
C3437 C3436 1.397 . S
C3437 C3438 1.334 . S
C3438 H3409 0.950 . S
C3438 C3437 1.334 . S
C3438 C3439 1.287 . S
C3439 C3438 1.287 . S
C3439 C3440 1.524 . S
C3439 H3442 0.999 . S
C3440 H3410 0.950 . S
C3440 C3439 1.524 . S
C3440 C3441 1.415 . S
C3441 H3411 0.950 . S
C3441 C3436 1.363 . S
C3441 C3440 1.415 . S
H3442 C3439 0.999 . S
H3443 C3424 0.913 . S
H3444 C3462 0.951 . S
H3445 C3464 0.951 . S
H3446 C3466 0.950 . S
H3447 C3467 0.950 . S
H3448 C3469 0.950 . S
H3449 C3472 0.950 . S
H3450 C3473 0.950 . S
H3451 C3475 0.950 . S
H3452 C3476 0.950 . S
H3453 C3477 0.951 . S
H3454 C3479 0.951 . S
H3455 C3481 0.950 . S
H3456 C3482 0.950 . S
H3457 C3484 0.950 . S
H3458 C3487 0.950 . S
H3459 C3488 0.950 . S
H3460 C3490 0.950 . S
H3461 C3491 0.950 . S
C3462 H3444 0.951 . S
C3462 C3463 1.366 . S
C3462 C3464 1.388 . S
C3463 C3462 1.366 . S
C3463 C3467 1.385 . S
C3464 H3445 0.951 . S
C3464 C3462 1.388 . S
C3464 C3465 1.366 . S
C3465 C3464 1.366 . S
C3465 C3466 1.414 . S
C3465 C3468 1.499 . S
C3466 H3446 0.950 . S
C3466 C3465 1.414 . S
C3466 C3467 1.374 . S
C3467 H3447 0.950 . S
C3467 C3463 1.385 . S
C3467 C3466 1.374 . S
C3468 C3465 1.499 . S
C3468 C3469 1.373 . S
C3468 C3470 1.389 . S
C3469 H3448 0.950 . S
C3469 C3468 1.373 . S
C3469 C3485 1.377 . S
C3470 C3468 1.389 . S
C3470 C3471 1.524 . S
C3470 C3484 1.377 . S
C3471 C3470 1.524 . S
C3471 C3472 1.397 . S
C3471 C3476 1.363 . S
C3472 H3449 0.950 . S
C3472 C3471 1.397 . S
C3472 C3473 1.334 . S
C3473 H3450 0.950 . S
C3473 C3472 1.334 . S
C3473 C3474 1.287 . S
C3474 C3473 1.287 . S
C3474 C3475 1.524 . S
C3474 H3493 0.913 . S
C3475 H3451 0.950 . S
C3475 C3474 1.524 . S
C3475 C3476 1.415 . S
C3476 H3452 0.950 . S
C3476 C3471 1.363 . S
C3476 C3475 1.415 . S
C3477 H3453 0.951 . S
C3477 C3478 1.366 . S
C3477 C3479 1.388 1_554 S
C3478 C3477 1.366 . S
C3478 C3482 1.385 1_554 S
C3479 H3454 0.951 . S
C3479 C3477 1.388 1_556 S
C3479 C3480 1.366 . S
C3480 C3479 1.366 . S
C3480 C3481 1.414 . S
C3480 C3483 1.499 . S
C3481 H3455 0.950 . S
C3481 C3480 1.414 . S
C3481 C3482 1.374 . S
C3482 H3456 0.950 . S
C3482 C3478 1.385 1_556 S
C3482 C3481 1.374 . S
C3483 C3480 1.499 . S
C3483 C3484 1.373 . S
C3483 C3485 1.389 . S
C3484 H3457 0.950 . S
C3484 C3470 1.377 . S
C3484 C3483 1.373 . S
C3485 C3469 1.377 . S
C3485 C3483 1.389 . S
C3485 C3486 1.524 . S
C3486 C3485 1.524 . S
C3486 C3487 1.397 . S
C3486 C3491 1.363 . S
C3487 H3458 0.950 . S
C3487 C3486 1.397 . S
C3487 C3488 1.334 . S
C3488 H3459 0.950 . S
C3488 C3487 1.334 . S
C3488 C3489 1.287 . S
C3489 C3488 1.287 . S
C3489 C3490 1.524 . S
C3489 H3492 0.999 . S
C3490 H3460 0.950 . S
C3490 C3489 1.524 . S
C3490 C3491 1.415 . S
C3491 H3461 0.950 . S
C3491 C3486 1.363 . S
C3491 C3490 1.415 . S
H3492 C3489 0.999 . S
H3493 C3474 0.913 . S
H3494 C3512 0.974 . S
H3495 C3514 0.951 . S
H3496 C3516 0.950 . S
H3497 C3517 0.950 . S
H3498 C3519 0.950 . S
H3499 C3522 0.950 . S
H3500 C3523 0.950 . S
H3501 C3525 0.950 . S
H3502 C3526 0.952 1_545 S
H3503 C3527 0.951 . S
H3504 C3529 0.951 . S
H3505 C3531 0.950 . S
H3506 C3532 0.950 . S
H3507 C3534 0.950 . S
H3508 C3537 0.950 . S
H3509 C3538 0.950 . S
H3510 C3540 0.950 . S
H3511 C3541 0.950 . S
C3512 H3494 0.974 . S
C3512 C3513 1.362 1_565 S
C3512 C3514 1.370 1_565 S
C3513 C3512 1.362 1_545 S
C3513 C3517 1.385 . S
C3514 H3495 0.951 . S
C3514 C3512 1.370 1_545 S
C3514 C3515 1.366 . S
C3515 C3514 1.366 . S
C3515 C3516 1.414 . S
C3515 C3518 1.499 . S
C3516 H3496 0.950 . S
C3516 C3515 1.414 . S
C3516 C3517 1.374 . S
C3517 H3497 0.950 . S
C3517 C3513 1.385 . S
C3517 C3516 1.374 . S
C3518 C3515 1.499 . S
C3518 C3519 1.373 . S
C3518 C3520 1.389 . S
C3519 H3498 0.950 . S
C3519 C3518 1.373 . S
C3519 C3535 1.377 . S
C3520 C3518 1.389 . S
C3520 C3521 1.517 1_545 S
C3520 C3534 1.377 . S
C3521 C3520 1.517 1_565 S
C3521 C3522 1.401 . S
C3521 C3526 1.366 . S
C3522 H3499 0.950 . S
C3522 C3521 1.401 . S
C3522 C3523 1.334 . S
C3523 H3500 0.950 . S
C3523 C3522 1.334 . S
C3523 C3524 1.287 . S
C3524 C3523 1.287 . S
C3524 C3525 1.524 . S
C3524 H3543 0.913 . S
C3525 H3501 0.950 . S
C3525 C3524 1.524 . S
C3525 C3526 1.415 . S
C3526 H3502 0.952 1_565 S
C3526 C3521 1.366 . S
C3526 C3525 1.415 . S
C3527 H3503 0.951 . S
C3527 C3528 1.366 . S
C3527 C3529 1.388 . S
C3528 C3527 1.366 . S
C3528 C3532 1.385 . S
C3529 H3504 0.951 . S
C3529 C3527 1.388 . S
C3529 C3530 1.366 . S
C3530 C3529 1.366 . S
C3530 C3531 1.414 . S
C3530 C3533 1.499 . S
C3531 H3505 0.950 . S
C3531 C3530 1.414 . S
C3531 C3532 1.374 . S
C3532 H3506 0.950 . S
C3532 C3528 1.385 . S
C3532 C3531 1.374 . S
C3533 C3530 1.499 . S
C3533 C3534 1.373 . S
C3533 C3535 1.389 . S
C3534 H3507 0.950 . S
C3534 C3520 1.377 . S
C3534 C3533 1.373 . S
C3535 C3519 1.377 . S
C3535 C3533 1.389 . S
C3535 C3536 1.524 . S
C3536 C3535 1.524 . S
C3536 C3537 1.397 . S
C3536 C3541 1.363 . S
C3537 H3508 0.950 . S
C3537 C3536 1.397 . S
C3537 C3538 1.334 . S
C3538 H3509 0.950 . S
C3538 C3537 1.334 . S
C3538 C3539 1.287 . S
C3539 C3538 1.287 . S
C3539 C3540 1.524 . S
C3539 H3542 0.999 . S
C3540 H3510 0.950 . S
C3540 C3539 1.524 . S
C3540 C3541 1.415 . S
C3541 H3511 0.950 . S
C3541 C3536 1.363 . S
C3541 C3540 1.415 . S
H3542 C3539 0.999 . S
H3543 C3524 0.913 . S
H3544 C3562 0.951 . S
H3545 C3564 0.951 . S
H3546 C3566 0.950 . S
H3547 C3567 0.950 . S
H3548 C3569 0.950 . S
H3549 C3572 0.950 . S
H3550 C3573 0.950 . S
H3551 C3575 0.950 . S
H3552 C3576 0.950 . S
H3553 C3577 0.951 . S
H3554 C3579 0.951 . S
H3555 C3581 0.950 . S
H3556 C3582 0.950 . S
H3557 C3584 0.950 . S
H3558 C3587 0.950 . S
H3559 C3588 0.950 . S
H3560 C3590 0.950 . S
H3561 C3591 0.950 . S
C3562 H3544 0.951 . S
C3562 C3563 1.366 . S
C3562 C3564 1.388 . S
C3563 C3562 1.366 . S
C3563 C3567 1.385 . S
C3564 H3545 0.951 . S
C3564 C3562 1.388 . S
C3564 C3565 1.366 . S
C3565 C3564 1.366 . S
C3565 C3566 1.414 . S
C3565 C3568 1.499 . S
C3566 H3546 0.950 . S
C3566 C3565 1.414 . S
C3566 C3567 1.374 . S
C3567 H3547 0.950 . S
C3567 C3563 1.385 . S
C3567 C3566 1.374 . S
C3568 C3565 1.499 . S
C3568 C3569 1.373 . S
C3568 C3570 1.389 . S
C3569 H3548 0.950 . S
C3569 C3568 1.373 . S
C3569 C3585 1.377 . S
C3570 C3568 1.389 . S
C3570 C3571 1.524 . S
C3570 C3584 1.377 . S
C3571 C3570 1.524 . S
C3571 C3572 1.397 . S
C3571 C3576 1.363 . S
C3572 H3549 0.950 . S
C3572 C3571 1.397 . S
C3572 C3573 1.334 . S
C3573 H3550 0.950 . S
C3573 C3572 1.334 . S
C3573 C3574 1.287 . S
C3574 C3573 1.287 . S
C3574 C3575 1.524 . S
C3574 H3593 0.913 . S
C3575 H3551 0.950 . S
C3575 C3574 1.524 . S
C3575 C3576 1.415 . S
C3576 H3552 0.950 . S
C3576 C3571 1.363 . S
C3576 C3575 1.415 . S
C3577 H3553 0.951 . S
C3577 C3578 1.366 . S
C3577 C3579 1.388 . S
C3578 C3577 1.366 . S
C3578 C3582 1.385 . S
C3579 H3554 0.951 . S
C3579 C3577 1.388 . S
C3579 C3580 1.366 . S
C3580 C3579 1.366 . S
C3580 C3581 1.414 . S
C3580 C3583 1.499 . S
C3581 H3555 0.950 . S
C3581 C3580 1.414 . S
C3581 C3582 1.374 . S
C3582 H3556 0.950 . S
C3582 C3578 1.385 . S
C3582 C3581 1.374 . S
C3583 C3580 1.499 . S
C3583 C3584 1.373 . S
C3583 C3585 1.389 . S
C3584 H3557 0.950 . S
C3584 C3570 1.377 . S
C3584 C3583 1.373 . S
C3585 C3569 1.377 . S
C3585 C3583 1.389 . S
C3585 C3586 1.524 . S
C3586 C3585 1.524 . S
C3586 C3587 1.397 . S
C3586 C3591 1.363 . S
C3587 H3558 0.950 . S
C3587 C3586 1.397 . S
C3587 C3588 1.334 . S
C3588 H3559 0.950 . S
C3588 C3587 1.334 . S
C3588 C3589 1.287 . S
C3589 C3588 1.287 . S
C3589 C3590 1.524 . S
C3589 H3592 0.999 . S
C3590 H3560 0.950 . S
C3590 C3589 1.524 . S
C3590 C3591 1.415 . S
C3591 H3561 0.950 . S
C3591 C3586 1.363 . S
C3591 C3590 1.415 . S
H3592 C3589 0.999 . S
H3593 C3574 0.913 . S
H3594 C3612 0.951 . S
H3595 C3614 0.951 . S
H3596 C3616 0.950 . S
H3597 C3617 0.950 . S
H3598 C3619 0.950 . S
H3599 C3622 0.950 . S
H3600 C3623 0.950 . S
H3601 C3625 0.950 . S
H3602 C3626 0.950 . S
H3603 C3627 0.951 1_565 S
H3604 C3629 0.951 . S
H3605 C3631 0.950 . S
H3606 C3632 0.950 . S
H3607 C3634 0.950 . S
H3608 C3637 0.950 . S
H3609 C3638 0.950 . S
H3610 C3640 0.950 . S
H3611 C3641 0.950 . S
C3612 H3594 0.951 . S
C3612 C3613 1.366 . S
C3612 C3614 1.388 . S
C3613 C3612 1.366 . S
C3613 C3617 1.385 . S
C3614 H3595 0.951 . S
C3614 C3612 1.388 . S
C3614 C3615 1.366 . S
C3615 C3614 1.366 . S
C3615 C3616 1.414 . S
C3615 C3618 1.499 . S
C3616 H3596 0.950 . S
C3616 C3615 1.414 . S
C3616 C3617 1.374 . S
C3617 H3597 0.950 . S
C3617 C3613 1.385 . S
C3617 C3616 1.374 . S
C3618 C3615 1.499 . S
C3618 C3619 1.373 . S
C3618 C3620 1.389 . S
C3619 H3598 0.950 . S
C3619 C3618 1.373 . S
C3619 C3635 1.377 . S
C3620 C3618 1.389 . S
C3620 C3621 1.524 . S
C3620 C3634 1.377 . S
C3621 C3620 1.524 . S
C3621 C3622 1.397 . S
C3621 C3626 1.363 . S
C3622 H3599 0.950 . S
C3622 C3621 1.397 . S
C3622 C3623 1.334 . S
C3623 H3600 0.950 . S
C3623 C3622 1.334 . S
C3623 C3624 1.287 . S
C3624 C3623 1.287 . S
C3624 C3625 1.524 . S
C3624 H3643 0.913 . S
C3625 H3601 0.950 . S
C3625 C3624 1.524 . S
C3625 C3626 1.415 . S
C3626 H3602 0.950 . S
C3626 C3621 1.363 . S
C3626 C3625 1.415 . S
C3627 H3603 0.951 1_545 S
C3627 C3628 1.366 . S
C3627 C3629 1.388 . S
C3628 C3627 1.366 . S
C3628 C3632 1.385 . S
C3629 H3604 0.951 . S
C3629 C3627 1.388 . S
C3629 C3630 1.366 . S
C3630 C3629 1.366 . S
C3630 C3631 1.414 . S
C3630 C3633 1.499 . S
C3631 H3605 0.950 . S
C3631 C3630 1.414 . S
C3631 C3632 1.374 . S
C3632 H3606 0.950 . S
C3632 C3628 1.385 . S
C3632 C3631 1.374 . S
C3633 C3630 1.499 . S
C3633 C3634 1.373 . S
C3633 C3635 1.389 . S
C3634 H3607 0.950 . S
C3634 C3620 1.377 . S
C3634 C3633 1.373 . S
C3635 C3619 1.377 . S
C3635 C3633 1.389 . S
C3635 C3636 1.524 . S
C3636 C3635 1.524 . S
C3636 C3637 1.397 . S
C3636 C3641 1.363 . S
C3637 H3608 0.950 . S
C3637 C3636 1.397 . S
C3637 C3638 1.334 . S
C3638 H3609 0.950 . S
C3638 C3637 1.334 . S
C3638 C3639 1.287 . S
C3639 C3638 1.287 . S
C3639 C3640 1.524 . S
C3639 H3642 0.999 . S
C3640 H3610 0.950 . S
C3640 C3639 1.524 . S
C3640 C3641 1.415 . S
C3641 H3611 0.950 . S
C3641 C3636 1.363 . S
C3641 C3640 1.415 . S
H3642 C3639 0.999 . S
H3643 C3624 0.913 . S
H3644 C3662 0.951 . S
H3645 C3664 0.951 . S
H3646 C3666 0.950 . S
H3647 C3667 0.950 . S
H3648 C3669 0.950 . S
H3649 C3672 0.950 . S
H3650 C3673 0.950 . S
H3651 C3675 0.950 . S
H3652 C3676 0.950 . S
H3653 C3677 0.951 . S
H3654 C3679 0.951 . S
H3655 C3681 0.950 . S
H3656 C3682 0.950 . S
H3657 C3684 0.950 . S
H3658 C3687 0.950 . S
H3659 C3688 0.950 1_556 S
H3660 C3690 0.950 . S
H3661 C3691 0.950 . S
C3662 H3644 0.951 . S
C3662 C3663 1.366 . S
C3662 C3664 1.388 . S
C3663 C3662 1.366 . S
C3663 C3667 1.385 . S
C3664 H3645 0.951 . S
C3664 C3662 1.388 . S
C3664 C3665 1.366 . S
C3665 C3664 1.366 . S
C3665 C3666 1.414 . S
C3665 C3668 1.499 . S
C3666 H3646 0.950 . S
C3666 C3665 1.414 . S
C3666 C3667 1.374 . S
C3667 H3647 0.950 . S
C3667 C3663 1.385 . S
C3667 C3666 1.374 . S
C3668 C3665 1.499 . S
C3668 C3669 1.373 . S
C3668 C3670 1.389 . S
C3669 H3648 0.950 . S
C3669 C3668 1.373 . S
C3669 C3685 1.377 . S
C3670 C3668 1.389 . S
C3670 C3671 1.524 . S
C3670 C3684 1.377 . S
C3671 C3670 1.524 . S
C3671 C3672 1.397 . S
C3671 C3676 1.363 . S
C3672 H3649 0.950 . S
C3672 C3671 1.397 . S
C3672 C3673 1.334 . S
C3673 H3650 0.950 . S
C3673 C3672 1.334 . S
C3673 C3674 1.287 . S
C3674 C3673 1.287 . S
C3674 C3675 1.524 . S
C3674 H3693 0.913 . S
C3675 H3651 0.950 . S
C3675 C3674 1.524 . S
C3675 C3676 1.415 . S
C3676 H3652 0.950 . S
C3676 C3671 1.363 . S
C3676 C3675 1.415 . S
C3677 H3653 0.951 . S
C3677 C3678 1.366 1_554 S
C3677 C3679 1.388 . S
C3678 C3677 1.366 1_556 S
C3678 C3682 1.385 . S
C3679 H3654 0.951 . S
C3679 C3677 1.388 . S
C3679 C3680 1.366 . S
C3680 C3679 1.366 . S
C3680 C3681 1.414 . S
C3680 C3683 1.499 . S
C3681 H3655 0.950 . S
C3681 C3680 1.414 . S
C3681 C3682 1.374 1_554 S
C3682 H3656 0.950 . S
C3682 C3678 1.385 . S
C3682 C3681 1.374 1_556 S
C3683 C3680 1.499 . S
C3683 C3684 1.373 . S
C3683 C3685 1.389 . S
C3684 H3657 0.950 . S
C3684 C3670 1.377 . S
C3684 C3683 1.373 . S
C3685 C3669 1.377 . S
C3685 C3683 1.389 . S
C3685 C3686 1.524 . S
C3686 C3685 1.524 . S
C3686 C3687 1.397 . S
C3686 C3691 1.363 . S
C3687 H3658 0.950 . S
C3687 C3686 1.397 . S
C3687 C3688 1.334 . S
C3688 H3659 0.950 1_554 S
C3688 C3687 1.334 . S
C3688 C3689 1.287 . S
C3689 C3688 1.287 . S
C3689 C3690 1.524 . S
C3689 H3692 0.999 . S
C3690 H3660 0.950 . S
C3690 C3689 1.524 . S
C3690 C3691 1.415 . S
C3691 H3661 0.950 . S
C3691 C3686 1.363 . S
C3691 C3690 1.415 . S
H3692 C3689 0.999 . S
H3693 C3674 0.913 . S
H3694 C3712 0.951 . S
H3695 C3714 0.951 . S
H3696 C3716 0.950 . S
H3697 C3717 0.950 . S
H3698 C3719 0.950 . S
H3699 C3722 0.950 . S
H3700 C3723 0.950 . S
H3701 C3725 0.950 . S
H3702 C3726 0.950 . S
H3703 C3727 0.951 . S
H3704 C3729 0.951 . S
H3705 C3731 0.950 . S
H3706 C3732 0.950 . S
H3707 C3734 0.950 . S
H3708 C3737 0.950 . S
H3709 C3738 0.950 . S
H3710 C3740 0.950 . S
H3711 C3741 0.950 . S
C3712 H3694 0.951 . S
C3712 C3713 1.366 . S
C3712 C3714 1.388 . S
C3713 C3712 1.366 . S
C3713 C3717 1.385 . S
C3714 H3695 0.951 . S
C3714 C3712 1.388 . S
C3714 C3715 1.366 . S
C3715 C3714 1.366 . S
C3715 C3716 1.414 . S
C3715 C3718 1.499 . S
C3716 H3696 0.950 . S
C3716 C3715 1.414 . S
C3716 C3717 1.374 . S
C3717 H3697 0.950 . S
C3717 C3713 1.385 . S
C3717 C3716 1.374 . S
C3718 C3715 1.499 . S
C3718 C3719 1.373 . S
C3718 C3720 1.389 . S
C3719 H3698 0.950 . S
C3719 C3718 1.373 . S
C3719 C3735 1.377 . S
C3720 C3718 1.389 . S
C3720 C3721 1.524 . S
C3720 C3734 1.377 . S
C3721 C3720 1.524 . S
C3721 C3722 1.397 . S
C3721 C3726 1.363 . S
C3722 H3699 0.950 . S
C3722 C3721 1.397 . S
C3722 C3723 1.334 . S
C3723 H3700 0.950 . S
C3723 C3722 1.334 . S
C3723 C3724 1.287 . S
C3724 C3723 1.287 . S
C3724 C3725 1.524 . S
C3724 H3743 0.913 . S
C3725 H3701 0.950 . S
C3725 C3724 1.524 . S
C3725 C3726 1.415 . S
C3726 H3702 0.950 . S
C3726 C3721 1.363 . S
C3726 C3725 1.415 . S
C3727 H3703 0.951 . S
C3727 C3728 1.366 1_545 S
C3727 C3729 1.388 1_545 S
C3728 C3727 1.366 1_565 S
C3728 C3732 1.385 . S
C3729 H3704 0.951 . S
C3729 C3727 1.388 1_565 S
C3729 C3730 1.366 . S
C3730 C3729 1.366 . S
C3730 C3731 1.414 . S
C3730 C3733 1.499 . S
C3731 H3705 0.950 . S
C3731 C3730 1.414 . S
C3731 C3732 1.374 . S
C3732 H3706 0.950 . S
C3732 C3728 1.385 . S
C3732 C3731 1.374 . S
C3733 C3730 1.499 . S
C3733 C3734 1.373 . S
C3733 C3735 1.389 . S
C3734 H3707 0.950 . S
C3734 C3720 1.377 . S
C3734 C3733 1.373 . S
C3735 C3719 1.377 . S
C3735 C3733 1.389 . S
C3735 C3736 1.524 . S
C3736 C3735 1.524 . S
C3736 C3737 1.397 . S
C3736 C3741 1.363 . S
C3737 H3708 0.950 . S
C3737 C3736 1.397 . S
C3737 C3738 1.334 . S
C3738 H3709 0.950 . S
C3738 C3737 1.334 . S
C3738 C3739 1.287 . S
C3739 C3738 1.287 . S
C3739 C3740 1.524 . S
C3739 H3742 0.999 . S
C3740 H3710 0.950 . S
C3740 C3739 1.524 . S
C3740 C3741 1.415 . S
C3741 H3711 0.950 . S
C3741 C3736 1.363 . S
C3741 C3740 1.415 . S
H3742 C3739 0.999 . S
H3743 C3724 0.913 . S
C1363 C63 2.818 . S
C1378 C903 2.819 . S
C1413 C147 2.819 . S
C1428 C987 2.819 . S
C1463 C231 2.818 . S
C1478 C735 2.818 . S
C1513 C819 2.819 . S
C1528 C315 2.818 . S
C1563 C410 2.818 . S
C1578 C1250 2.819 . S
C1613 C1334 2.819 . S
C1628 C494 2.819 . S
C1663 C1082 2.819 . S
C1678 C578 2.818 . S
C1713 C662 2.818 . S
C1728 C1166 2.819 . S
C1763 C58 0.629 . S
C1778 C405 0.629 . S
C1813 C142 0.630 . S
C1828 C1161 0.630 . S
C1863 C226 0.627 . S
C1878 C573 0.627 . S
C1913 C310 0.630 . S
C1928 C1329 0.630 . S
C1963 C489 0.629 . S
C1978 C814 0.629 . S
C2013 C982 0.629 . S
C2028 C657 0.629 . S
C2063 C1077 0.630 . S
C2078 C730 0.630 . S
C2113 C898 0.630 . S
C2128 C1245 0.630 . S
C2163 C69 0.767 . S
C2178 C651 0.837 . S
C2213 C153 0.770 . S
C2228 C1071 0.837 . S
C2263 C237 0.767 . S
C2278 C483 0.837 . S
C2313 C321 0.770 . S
C2328 C1239 0.837 . S
C2363 C326 0.837 . S
C2378 C394 0.769 . S
C2413 C478 0.768 . S
C2428 C746 0.837 . S
C2463 C562 0.770 . S
C2478 C158 0.837 . S
C2513 C914 0.837 . S
C2528 C646 0.767 . S
C2563 C741 0.771 . S
C2578 C1323 0.837 . S
C2613 C399 0.837 . S
C2628 C825 0.770 . S
C2663 C1155 0.837 . S
C2678 C909 0.771 . S
C2713 C567 0.837 . S
C2728 C993 0.768 . S
C2763 C1066 0.770 . S
C2778 C998 0.838 . S
C2813 C1150 0.769 . S
C2828 C74 0.837 . S
C2863 C830 0.837 . S
C2878 C1234 0.769 . S
C2913 C1318 0.769 . S
C2928 C242 0.837 . S
C2963 C67 3.716 . S
C2978 C812 3.632 . S
C3013 C896 3.633 . S
C3028 C151 3.716 . S
C3063 C235 3.716 . S
C3078 C980 3.633 . S
C3113 C728 3.632 . S
C3128 C319 3.716 . S
C3163 C1159 3.632 . S
C3178 C392 3.716 . S
C3213 C1243 3.632 . S
C3228 C476 3.716 . S
C3263 C1327 3.633 . S
C3278 C560 3.716 . S
C3313 C1075 3.632 . S
C3328 C644 3.716 . S
C3363 C140 3.632 . S
C3378 C739 3.715 . S
C3413 C224 3.632 . S
C3428 C823 3.716 1_565 S
C3463 C308 3.632 . S
C3478 C907 3.715 . S
C3513 C991 3.716 1_545 S
C3528 C56 3.632 . S
C3563 C487 3.632 . S
C3578 C1064 3.715 . S
C3613 C571 3.632 . S
C3628 C1148 3.716 1_545 S
C3663 C655 3.632 . S
C3678 C1232 3.715 . S
C3713 C403 3.632 . S
C3728 C1316 3.716 1_565 S
