# Generated by pormake.
# Topology xfw, (5)-cn, num edge types: 1
# Building blocks:
#     Node 0, Type 0, BuildingBlock: XOMCOT_clean_sbu_1, # of connection points: 5
#     Node 1, Type 0, BuildingBlock: XOMCOT_clean_sbu_1, # of connection points: 5
#     Node 2, Type 0, BuildingBlock: XOMCOT_clean_sbu_1, # of connection points: 5
#     Node 3, Type 0, BuildingBlock: XOMCOT_clean_sbu_1, # of connection points: 5
#     Node 4, Type 0, BuildingBlock: XOMCOT_clean_sbu_1, # of connection points: 5
#     Node 5, Type 0, BuildingBlock: XOMCOT_clean_sbu_1, # of connection points: 5
#     Node 6, Type 0, BuildingBlock: XOMCOT_clean_sbu_1, # of connection points: 5
#     Node 7, Type 0, BuildingBlock: XOMCOT_clean_sbu_1, # of connection points: 5
#     Edge 8, Type (0, 0), BuildingBlock: ZUJKAS_clean_linker_0, # of connection points: 2
#     Edge 9, Type (0, 0), BuildingBlock: ZUJKAS_clean_linker_0, # of connection points: 2
#     Edge 10, Type (0, 0), BuildingBlock: ZUJKAS_clean_linker_0, # of connection points: 2
#     Edge 11, Type (0, 0), BuildingBlock: ZUJKAS_clean_linker_0, # of connection points: 2
#     Edge 12, Type (0, 0), BuildingBlock: ZUJKAS_clean_linker_0, # of connection points: 2
#     Edge 13, Type (0, 0), BuildingBlock: ZUJKAS_clean_linker_0, # of connection points: 2
#     Edge 14, Type (0, 0), BuildingBlock: ZUJKAS_clean_linker_0, # of connection points: 2
#     Edge 15, Type (0, 0), BuildingBlock: ZUJKAS_clean_linker_0, # of connection points: 2
#     Edge 16, Type (0, 0), BuildingBlock: ZUJKAS_clean_linker_0, # of connection points: 2
#     Edge 17, Type (0, 0), BuildingBlock: ZUJKAS_clean_linker_0, # of connection points: 2
#     Edge 18, Type (0, 0), BuildingBlock: ZUJKAS_clean_linker_0, # of connection points: 2
#     Edge 19, Type (0, 0), BuildingBlock: ZUJKAS_clean_linker_0, # of connection points: 2
#     Edge 20, Type (0, 0), BuildingBlock: ZUJKAS_clean_linker_0, # of connection points: 2
#     Edge 21, Type (0, 0), BuildingBlock: ZUJKAS_clean_linker_0, # of connection points: 2
#     Edge 22, Type (0, 0), BuildingBlock: ZUJKAS_clean_linker_0, # of connection points: 2
#     Edge 23, Type (0, 0), BuildingBlock: ZUJKAS_clean_linker_0, # of connection points: 2
#     Edge 24, Type (0, 0), BuildingBlock: ZUJKAS_clean_linker_0, # of connection points: 2
#     Edge 25, Type (0, 0), BuildingBlock: ZUJKAS_clean_linker_0, # of connection points: 2
#     Edge 26, Type (0, 0), BuildingBlock: ZUJKAS_clean_linker_0, # of connection points: 2
#     Edge 27, Type (0, 0), BuildingBlock: ZUJKAS_clean_linker_0, # of connection points: 2
# Relax obj value: 0.589
# Max RMSD: 0.301
# Mean RMSD: 0.301
data_MOF--net-xfw--node1-XOMCOT_clean_sbu_1--edge1-ZUJKAS_clean_linker_0
_symmetry_space_group_name_H-M    P1
_symmetry_Int_Tables_number       1
_symmetry_cell_setting            triclinic
loop_
_symmetry_equiv_pos_as_xyz
'x, y, z'
_cell_length_a     33.860717
_cell_length_b     34.014443
_cell_length_c     74.212113
_cell_angle_alpha  90.024446
_cell_angle_beta   89.978663
_cell_angle_gamma 89.972136
loop_
_atom_site_label
_atom_site_type_symbol
_atom_site_fract_x
_atom_site_fract_y
_atom_site_fract_z
_atom_type_partial_charge
C0 C 0.35925 0.10418 0.57992 0.0
C1 C 0.36477 0.07976 0.56544 0.0
N2 N 0.32909 0.0676 0.55964 0.0
N3 N 0.32032 0.10721 0.58339 0.0
C4 C 0.30259 0.08467 0.57082 0.0
H5 H 0.38219 0.11938 0.58726 0.0
Co6 Co 0.29957 0.13924 0.60112 0.0
C7 C 0.24562 0.0737 0.61383 0.0
O8 O 0.27128 0.0587 0.62518 0.0
N9 N 0.2801 0.17196 0.61896 0.0
C10 C 0.26569 0.22565 0.6346 0.0
C11 C 0.27963 0.21157 0.61845 0.0
C12 C 0.26678 0.16255 0.63552 0.0
N13 N 0.25774 0.19473 0.64536 0.0
O14 O 0.3315 0.11177 0.61846 0.0
H15 H 0.28949 0.22906 0.60714 0.0
H16 H 0.26552 0.13275 0.64053 0.0
O17 O 0.25499 0.10353 0.60435 0.0
C18 C 0.36242 0.1297 0.62379 0.0
O19 O 0.36694 0.16676 0.61923 0.0
N20 N 0.2704 0.167 0.58378 0.0
C21 C 0.22973 0.20652 0.55661 0.0
C22 C 0.20947 0.19057 0.57139 0.0
C23 C 0.23037 0.1712 0.58491 0.0
C24 C 0.29085 0.18381 0.56997 0.0
C25 C 0.27105 0.20342 0.55612 0.0
H26 H 0.2143 0.15969 0.59632 0.0
H27 H 0.3227 0.18152 0.56956 0.0
H28 H 0.27086 0.08204 0.56955 0.0
H29 H 0.39296 0.0717 0.55964 0.0
H30 H 0.26211 0.2563 0.63816 0.0
H31 H 0.1776 0.19223 0.57235 0.0
H32 H 0.28792 0.21602 0.54515 0.0
C33 C 0.12528 0.69987 0.41496 0.0
C34 C 0.10709 0.68097 0.42902 0.0
N35 N 0.06772 0.68486 0.42704 0.0
N36 N 0.09765 0.71645 0.40433 0.0
C37 C 0.06286 0.70516 0.41154 0.0
H38 H 0.1568 0.7027 0.41296 0.0
Co39 Co 0.10987 0.74729 0.38435 0.0
C40 C 0.03803 0.79847 0.39766 0.0
O41 O 0.02875 0.78218 0.41312 0.0
N42 N 0.12297 0.77719 0.36418 0.0
C43 C 0.13577 0.828 0.34633 0.0
C44 C 0.12465 0.8168 0.36335 0.0
C45 C 0.13345 0.76496 0.34755 0.0
N46 N 0.14124 0.79532 0.33637 0.0
O47 O 0.07676 0.71414 0.37011 0.0
H48 H 0.1185 0.83637 0.3745 0.0
H49 H 0.13481 0.73442 0.34363 0.0
O50 O 0.06649 0.78475 0.38823 0.0
C51 C 0.09435 0.6826 0.36548 0.0
O52 O 0.13206 0.67891 0.36936 0.0
N53 N 0.14375 0.77808 0.39861 0.0
C54 C 0.19622 0.81883 0.42057 0.0
C55 C 0.15659 0.81471 0.42552 0.0
C56 C 0.1309 0.79419 0.4144 0.0
C57 C 0.18247 0.78119 0.39367 0.0
C58 C 0.20922 0.80218 0.40435 0.0
H59 H 0.10108 0.7899 0.41893 0.0
H60 H 0.19271 0.76715 0.38145 0.0
H61 H 0.03448 0.71281 0.40589 0.0
H62 H 0.1218 0.66683 0.44022 0.0
H63 H 0.13992 0.85791 0.34176 0.0
H64 H 0.14552 0.82715 0.43799 0.0
H65 H 0.23981 0.80455 0.40022 0.0
C66 C 0.7295 0.88509 0.58057 0.0
C67 C 0.71394 0.9093 0.56758 0.0
N68 N 0.73211 0.9444 0.56878 0.0
N69 N 0.75725 0.9049 0.58987 0.0
C70 C 0.75833 0.94099 0.58238 0.0
H71 H 0.72071 0.85512 0.58332 0.0
Co72 Co 0.78171 0.88492 0.61001 0.0
C73 C 0.83878 0.94625 0.62071 0.0
O74 O 0.82128 0.94829 0.63649 0.0
N75 N 0.80559 0.86373 0.6304 0.0
C76 C 0.84953 0.83901 0.64951 0.0
C77 C 0.8441 0.85457 0.63259 0.0
C78 C 0.78823 0.85327 0.64603 0.0
N79 N 0.81431 0.83834 0.65793 0.0
O80 O 0.74959 0.91944 0.62445 0.0
H81 H 0.86682 0.85918 0.62257 0.0
H82 H 0.75698 0.85617 0.64863 0.0
O83 O 0.82444 0.92381 0.60854 0.0
C84 C 0.71478 0.90598 0.62673 0.0
O85 O 0.70733 0.86995 0.62129 0.0
N86 N 0.80991 0.85011 0.59535 0.0
C87 C 0.84249 0.79573 0.57159 0.0
C88 C 0.85354 0.83537 0.57084 0.0
C89 C 0.83636 0.86227 0.58264 0.0
C90 C 0.79898 0.81161 0.59638 0.0
C91 C 0.81481 0.7838 0.58451 0.0
H92 H 0.84316 0.893 0.58096 0.0
H93 H 0.77701 0.80271 0.60615 0.0
H94 H 0.77709 0.96459 0.58711 0.0
H95 H 0.69137 0.90161 0.55787 0.0
H96 H 0.87738 0.82979 0.65528 0.0
H97 H 0.87404 0.84576 0.56069 0.0
H98 H 0.80533 0.75344 0.58531 0.0
C99 C 0.88421 0.31375 0.41412 0.0
C100 C 0.9111 0.3244 0.42713 0.0
N101 N 0.94429 0.30316 0.42463 0.0
N102 N 0.90032 0.28583 0.40355 0.0
C103 C 0.93701 0.28025 0.41015 0.0
H104 H 0.85448 0.32495 0.41265 0.0
Co105 Co 0.87463 0.26054 0.38483 0.0
C106 C 0.93361 0.20381 0.37132 0.0
O107 O 0.93161 0.21974 0.35522 0.0
N108 N 0.84843 0.23506 0.36595 0.0
C109 C 0.82252 0.18795 0.34889 0.0
C110 C 0.83929 0.19643 0.36527 0.0
C111 C 0.83667 0.24945 0.34987 0.0
N112 N 0.82106 0.22133 0.33917 0.0
O113 O 0.90409 0.2921 0.36831 0.0
H114 H 0.84564 0.1754 0.37581 0.0
H115 H 0.84001 0.2798 0.34591 0.0
O116 O 0.91409 0.21894 0.38429 0.0
C117 C 0.8882 0.3257 0.36605 0.0
O118 O 0.85322 0.33204 0.37318 0.0
N119 N 0.84492 0.23232 0.40161 0.0
C120 C 0.79865 0.19307 0.4268 0.0
C121 C 0.83986 0.18916 0.42693 0.0
C122 C 0.86248 0.20925 0.41432 0.0
C123 C 0.80501 0.23771 0.40161 0.0
C124 C 0.78115 0.21811 0.41409 0.0
H125 H 0.89419 0.20685 0.41507 0.0
H126 H 0.79169 0.25715 0.3918 0.0
H127 H 0.95742 0.25861 0.40493 0.0
H128 H 0.90632 0.34572 0.43774 0.0
H129 H 0.81379 0.15909 0.34422 0.0
H130 H 0.85465 0.17125 0.43693 0.0
H131 H 0.74944 0.22216 0.41367 0.0
C132 C 0.68287 0.11537 0.07724 0.0
C133 C 0.67964 0.08542 0.06496 0.0
N134 N 0.7112 0.06166 0.06685 0.0
N135 N 0.71628 0.11063 0.0868 0.0
C136 C 0.73299 0.07753 0.08026 0.0
H137 H 0.66223 0.1393 0.0791 0.0
Co138 Co 0.72985 0.14609 0.10442 0.0
C139 C 0.80971 0.12502 0.1185 0.0
O140 O 0.8161 0.1625 0.12156 0.0
N141 N 0.74104 0.18339 0.12248 0.0
C142 C 0.75043 0.23844 0.13812 0.0
C143 C 0.7448 0.22287 0.12124 0.0
C144 C 0.74383 0.17594 0.14034 0.0
N145 N 0.74986 0.20883 0.15013 0.0
O146 O 0.69696 0.1176 0.12088 0.0
H147 H 0.74333 0.23989 0.10903 0.0
H148 H 0.74131 0.14678 0.14604 0.0
O149 O 0.77682 0.11398 0.11148 0.0
C150 C 0.66321 0.13335 0.12329 0.0
O151 O 0.65653 0.16812 0.11618 0.0
N152 N 0.75875 0.17425 0.08705 0.0
C153 C 0.79052 0.21605 0.05818 0.0
C154 C 0.81156 0.18511 0.06609 0.0
C155 C 0.79472 0.16385 0.08017 0.0
C156 C 0.73714 0.20309 0.07892 0.0
C157 C 0.7526 0.22471 0.06456 0.0
H158 H 0.81013 0.13807 0.08471 0.0
H159 H 0.7075 0.20917 0.08362 0.0
H160 H 0.76082 0.06576 0.08494 0.0
H161 H 0.65574 0.08132 0.05546 0.0
H162 H 0.75497 0.26919 0.14125 0.0
H163 H 0.84011 0.17625 0.06089 0.0
H164 H 0.73506 0.24779 0.05848 0.0
C165 C 0.10808 0.29465 0.90542 0.0
C166 C 0.08308 0.30932 0.91839 0.0
N167 N 0.04804 0.29089 0.9168 0.0
N168 N 0.08895 0.2669 0.89587 0.0
C169 C 0.05231 0.26548 0.90296 0.0
H170 H 0.13852 0.30305 0.90327 0.0
Co171 Co 0.11155 0.23802 0.87753 0.0
C172 C 0.04951 0.18163 0.86746 0.0
O173 O 0.04761 0.19785 0.85142 0.0
N174 N 0.13482 0.209 0.85901 0.0
C175 C 0.15764 0.1586 0.84304 0.0
C176 C 0.14308 0.17015 0.85946 0.0
C177 C 0.14499 0.22048 0.84224 0.0
N178 N 0.15869 0.19031 0.8322 0.0
O179 O 0.08019 0.26733 0.86081 0.0
H180 H 0.13794 0.15116 0.87092 0.0
H181 H 0.1411 0.25004 0.83722 0.0
O182 O 0.07171 0.19681 0.8795 0.0
C183 C 0.09526 0.30065 0.85702 0.0
O184 O 0.13137 0.30804 0.86258 0.0
N185 N 0.14319 0.21247 0.89448 0.0
C186 C 0.19208 0.18509 0.92191 0.0
C187 C 0.15133 0.17774 0.92228 0.0
C188 C 0.12734 0.19203 0.90855 0.0
C189 C 0.18277 0.21948 0.89368 0.0
C190 C 0.20792 0.20573 0.90722 0.0
H191 H 0.09582 0.18806 0.9097 0.0
H192 H 0.19468 0.2368 0.88273 0.0
H193 H 0.02967 0.24525 0.89852 0.0
H194 H 0.09027 0.33145 0.92835 0.0
H195 H 0.16645 0.1291 0.83933 0.0
H196 H 0.13788 0.16162 0.93326 0.0
H197 H 0.23916 0.2124 0.90653 0.0
C198 C 0.31075 0.90031 0.07977 0.0
C199 C 0.32438 0.92565 0.06678 0.0
N200 N 0.30266 0.95885 0.06749 0.0
N201 N 0.28056 0.91735 0.08861 0.0
C202 C 0.27641 0.95307 0.08097 0.0
H203 H 0.32137 0.87084 0.08231 0.0
Co204 Co 0.25253 0.8924 0.10659 0.0
C205 C 0.19648 0.95222 0.11944 0.0
O206 O 0.21298 0.95014 0.13543 0.0
N207 N 0.22461 0.86636 0.1247 0.0
C208 C 0.17583 0.83744 0.1397 0.0
C209 C 0.18594 0.85663 0.12412 0.0
C210 C 0.2373 0.85298 0.14081 0.0
N211 N 0.20816 0.83526 0.15018 0.0
O212 O 0.28286 0.92131 0.12388 0.0
H213 H 0.16614 0.86355 0.11314 0.0
H214 H 0.2672 0.85617 0.14568 0.0
O215 O 0.21102 0.93245 0.10639 0.0
C216 C 0.31671 0.90645 0.12706 0.0
O217 O 0.32444 0.8712 0.12069 0.0
N218 N 0.22586 0.86339 0.08904 0.0
C219 C 0.19208 0.81765 0.06205 0.0
C220 C 0.18564 0.85835 0.06263 0.0
C221 C 0.20311 0.88078 0.07613 0.0
C222 C 0.23311 0.82399 0.08857 0.0
C223 C 0.21634 0.80043 0.07517 0.0
H224 H 0.19919 0.91226 0.07583 0.0
H225 H 0.25223 0.8109 0.09859 0.0
H226 H 0.25414 0.9741 0.08501 0.0
H227 H 0.34728 0.91925 0.05704 0.0
H228 H 0.14665 0.82711 0.14333 0.0
H229 H 0.1681 0.87296 0.05243 0.0
H230 H 0.22218 0.76912 0.07512 0.0
C231 C 0.89859 0.65939 0.91225 0.0
C232 C 0.92671 0.64714 0.92437 0.0
N233 N 0.95848 0.67071 0.92271 0.0
N234 N 0.9125 0.69061 0.90308 0.0
C235 C 0.94923 0.69655 0.90957 0.0
H236 H 0.86926 0.6473 0.91066 0.0
Co237 Co 0.88283 0.7189 0.88671 0.0
C238 C 0.93903 0.77401 0.86988 0.0
O239 O 0.93167 0.75835 0.85405 0.0
N240 N 0.85218 0.74734 0.87009 0.0
C241 C 0.8229 0.79718 0.85598 0.0
C242 C 0.84184 0.78563 0.87145 0.0
C243 C 0.83914 0.73638 0.85363 0.0
N244 N 0.82151 0.7662 0.84474 0.0
O245 O 0.90533 0.68717 0.86799 0.0
H246 H 0.84939 0.80467 0.88261 0.0
H247 H 0.84371 0.7076 0.84788 0.0
O248 O 0.92376 0.75883 0.88398 0.0
C249 C 0.88699 0.65489 0.86554 0.0
O250 O 0.85278 0.64995 0.87361 0.0
N251 N 0.86049 0.74718 0.90586 0.0
C252 C 0.82585 0.78705 0.93456 0.0
C253 C 0.86649 0.78982 0.93139 0.0
C254 C 0.8833 0.76931 0.91713 0.0
C255 C 0.82107 0.74286 0.90908 0.0
C256 C 0.803 0.76272 0.92342 0.0
H257 H 0.91486 0.77081 0.91544 0.0
H258 H 0.8036 0.72416 0.90039 0.0
H259 H 0.96787 0.72085 0.90558 0.0
H260 H 0.92349 0.62358 0.93406 0.0
H261 H 0.8133 0.82673 0.85279 0.0
H262 H 0.88532 0.80728 0.94006 0.0
H263 H 0.77153 0.75958 0.9256 0.0
H264 H 0.26385 0.02308 0.55377 0.0
H265 H 0.2508 0.98109 0.5277 0.0
H266 H 0.36324 0.01318 0.50479 0.0
H267 H 0.37626 0.05593 0.53052 0.0
H268 H 0.25195 0.00658 0.48942 0.0
H269 H 0.36045 0.88889 0.50611 0.0
H270 H 0.34158 0.92255 0.52287 0.0
H271 H 0.37745 0.93902 0.50678 0.0
C272 C 0.28568 0.02152 0.54315 0.0
C273 C 0.32118 0.0428 0.54432 0.0
C274 C 0.27827 0.99736 0.52832 0.0
C275 C 0.3063 0.99385 0.51451 0.0
C276 C 0.34158 0.01513 0.51551 0.0
H277 H 0.24482 0.88005 0.41196 0.0
H278 H 0.27958 0.92333 0.43326 0.0
C279 C 0.34897 0.03942 0.53028 0.0
C280 C 0.29813 0.96839 0.49888 0.0
H281 H 0.32296 0.88068 0.47963 0.0
C282 C 0.26769 0.97926 0.48711 0.0
C283 C 0.31885 0.93285 0.49607 0.0
C284 C 0.3513 0.91978 0.50864 0.0
C285 C 0.25666 0.9549 0.47275 0.0
C286 C 0.27692 0.919 0.47008 0.0
C287 C 0.30796 0.90852 0.48163 0.0
C288 C 0.26271 0.88994 0.45686 0.0
C289 C 0.22226 0.96682 0.46102 0.0
C290 C 0.24344 0.85616 0.4631 0.0
C291 C 0.22371 0.83167 0.45107 0.0
C292 C 0.2232 0.84049 0.43259 0.0
C293 C 0.24494 0.87272 0.42616 0.0
C294 C 0.26453 0.89745 0.43828 0.0
H295 H 0.20653 0.993 0.46639 0.0
H296 H 0.23314 0.97391 0.4473 0.0
H297 H 0.20085 0.94223 0.4598 0.0
H298 H 0.24183 0.84992 0.47741 0.0
H299 H 0.20744 0.80672 0.45628 0.0
H300 H 0.80106 0.74909 0.54844 0.0
H301 H 0.8277 0.71107 0.52296 0.0
H302 H 0.94598 0.74265 0.53885 0.0
H303 H 0.91955 0.78115 0.56403 0.0
H304 H 0.88232 0.75361 0.49634 0.0
H305 H 0.94568 0.61879 0.52695 0.0
H306 H 0.90466 0.64529 0.53681 0.0
H307 H 0.95406 0.6637 0.5392 0.0
C308 C 0.83276 0.74702 0.54669 0.0
C309 C 0.85837 0.76791 0.55812 0.0
C310 C 0.84787 0.72545 0.53217 0.0
C311 C 0.88874 0.72383 0.5292 0.0
C312 C 0.91436 0.74316 0.54111 0.0
H313 H 0.07872 0.68561 0.46311 0.0
H314 H 0.02803 0.68586 0.48619 0.0
C315 C 0.8993 0.76521 0.5554 0.0
C316 C 0.905 0.70639 0.51255 0.0
H317 H 0.97078 0.63742 0.49805 0.0
C318 C 0.90089 0.72761 0.49648 0.0
C319 C 0.92913 0.67261 0.51295 0.0
C320 C 0.93354 0.64847 0.52986 0.0
C321 C 0.92306 0.7179 0.48112 0.0
C322 C 0.94911 0.68529 0.48179 0.0
C323 C 0.95082 0.66235 0.49753 0.0
C324 C 0.9793 0.67863 0.46761 0.0
C325 C 0.9208 0.74463 0.4649 0.0
C326 C 0.969 0.67295 0.44945 0.0
C327 C 0.99822 0.67313 0.43607 0.0
C328 C 0.03817 0.67828 0.4407 0.0
C329 C 0.04841 0.68114 0.45901 0.0
C330 C 0.01932 0.68141 0.47228 0.0
H331 H 0.9046 0.77231 0.46786 0.0
H332 H 0.95084 0.75234 0.46006 0.0
H333 H 0.90506 0.7293 0.45384 0.0
H334 H 0.93836 0.66972 0.44557 0.0
H335 H 0.98951 0.67027 0.4221 0.0
H336 H 0.66287 0.96878 0.55457 0.0
H337 H 0.65375 0.02101 0.53217 0.0
H338 H 0.77857 0.04629 0.53422 0.0
H339 H 0.78742 0.99507 0.55694 0.0
H340 H 0.7347 0.11285 0.53106 0.0
H341 H 0.68628 1.00122 0.48073 0.0
H342 H 0.6563 0.00574 0.50058 0.0
H343 H 0.706 0.98754 0.50238 0.0
C344 C 0.68819 0.98583 0.5503 0.0
C345 C 0.72594 0.97768 0.55724 0.0
C346 C 0.68298 0.01554 0.53753 0.0
C347 C 0.71562 0.03688 0.53124 0.0
C348 C 0.75296 0.03011 0.53887 0.0
H349 H 0.80701 0.11678 0.43676 0.0
H350 H 0.77526 0.08337 0.46186 0.0
C351 C 0.75804 1.00088 0.55183 0.0
C352 C 0.71219 0.06405 0.51574 0.0
H353 H 0.69875 0.06455 0.47018 0.0
C354 C 0.72613 0.10265 0.51777 0.0
C355 C 0.70086 0.05051 0.49846 0.0
C356 C 0.68676 0.00895 0.49528 0.0
C357 C 0.73203 0.12709 0.50279 0.0
C358 C 0.72273 0.11273 0.48541 0.0
C359 C 0.70571 0.07536 0.48356 0.0
C360 C 0.73748 0.13239 0.46896 0.0
C361 C 0.75112 0.16674 0.50556 0.0
C362 C 0.72588 0.17066 0.46426 0.0
C363 C 0.74451 0.19012 0.44997 0.0
C364 C 0.77478 0.17138 0.44022 0.0
C365 C 0.78438 0.13222 0.44428 0.0
C366 C 0.766 0.11299 0.45853 0.0
H367 H 0.76127 0.17107 0.51966 0.0
H368 H 0.77686 0.17026 0.49643 0.0
H369 H 0.72951 0.19024 0.50236 0.0
H370 H 0.70338 0.18585 0.47196 0.0
H371 H 0.73649 0.2203 0.44709 0.0
H372 H 0.24328 0.1988 0.52043 0.0
H373 H 0.20298 0.22413 0.49567 0.0
H374 H 0.12465 0.27923 0.53396 0.0
H375 H 0.16555 0.25533 0.55873 0.0
H376 H 0.12606 0.20439 0.49039 0.0
H377 H 0.13865 0.36598 0.49708 0.0
H378 H 0.17239 0.33247 0.50802 0.0
H379 H 0.12482 0.34261 0.51781 0.0
C380 C 0.2181 0.21722 0.52357 0.0
C381 C 0.20757 0.22498 0.54156 0.0
C382 C 0.19499 0.23148 0.50941 0.0
C383 C 0.16111 0.25396 0.51296 0.0
C384 C 0.15112 0.26265 0.53087 0.0
H385 H 0.94773 0.32042 0.46029 0.0
H386 H 1.00422 0.31144 0.48031 0.0
C387 C 0.17423 0.24848 0.54503 0.0
C388 C 0.13396 0.26489 0.49814 0.0
H389 H 0.08386 0.34209 0.47961 0.0
C390 C 0.11732 0.23456 0.48781 0.0
C391 C 0.12253 0.30426 0.49487 0.0
C392 C 0.14083 0.33823 0.50492 0.0
C393 C 0.08829 0.24231 0.47483 0.0
C394 C 0.07603 0.28155 0.47193 0.0
C395 C 0.09336 0.31204 0.4819 0.0
C396 C 0.04355 0.291 0.45934 0.0
C397 C 0.06973 0.20829 0.46488 0.0
C398 C 0.04739 0.28357 0.44083 0.0
C399 C 0.01516 0.28876 0.42933 0.0
C400 C 0.97856 0.30162 0.43613 0.0
C401 C 0.97547 0.31077 0.45457 0.0
C402 C 0.0077 0.30553 0.46605 0.0
H403 H 0.07694 0.17956 0.47119 0.0
H404 H 0.03711 0.21155 0.4644 0.0
H405 H 0.08084 0.20781 0.45081 0.0
H406 H 0.07509 0.27299 0.43536 0.0
H407 H 0.01877 0.28225 0.41515 0.0
H408 H 0.83681 0.86424 0.94206 0.0
H409 H 0.81377 0.90066 0.96838 0.0
H410 H 0.75256 0.79754 0.98745 0.0
H411 H 0.77536 0.76081 0.96083 0.0
H412 H 0.70867 0.86564 0.99125 0.0
H413 H 0.85849 0.88715 0.01889 0.0
H414 H 0.85571 0.90338 -0.00406 0.0
H415 H 0.84811 0.85223 0.00118 0.0
C416 C 0.8184 0.84933 0.95186 0.0
C417 C 0.80823 0.80963 0.94957 0.0
C418 C 0.80546 0.87007 0.96692 0.0
C419 C 0.78251 0.85142 0.98011 0.0
C420 C 0.77074 0.81224 0.97751 0.0
H421 H 0.75151 0.99656 0.07729 0.0
H422 H 0.76591 0.93838 0.05882 0.0
C423 C 0.78353 0.79143 0.9623 0.0
C424 C 0.77075 0.87354 -0.00358 0.0
H425 H 0.80878 0.93331 0.02896 0.0
C426 C 0.73048 0.87987 -0.00027 0.0
C427 C 0.7992 0.89114 0.00781 0.0
C428 C 0.84277 0.88276 0.0059 0.0
C429 C 0.71803 0.90589 0.01327 0.0
C430 C 0.74667 0.92671 0.02338 0.0
C431 C 0.78681 0.91791 0.021 0.0
C432 C 0.73602 0.96036 0.03508 0.0
C433 C 0.67433 0.91139 0.01633 0.0
C434 C 0.71517 0.99221 0.02777 0.0
C435 C 0.70698 0.02522 0.03824 0.0
C436 C 0.71995 0.0274 0.05619 0.0
C437 C 0.74133 0.99574 0.06347 0.0
C438 C 0.7493 0.96245 0.05299 0.0
H439 H 0.65773 0.88423 0.01289 0.0
H440 H 0.66782 0.9194 0.03053 0.0
H441 H 0.66336 0.93523 0.00743 0.0
H442 H 0.70595 0.99197 0.0138 0.0
H443 H 0.69126 0.04948 0.03211 0.0
H444 H 0.86391 0.24779 0.0555 0.0
H445 H 0.89551 0.27425 0.02847 0.0
H446 H 0.78769 0.25725 -0.00145 0.0
H447 H 0.7558 0.2307 0.02566 0.0
H448 H 0.85711 0.21944 0.9844 0.0
H449 H 0.88341 0.37714 -0.00133 0.0
H450 H 0.89647 0.34508 0.01696 0.0
H451 H 0.84573 0.34877 0.01003 0.0
C452 C 0.84675 0.25045 0.04324 0.0
C453 C 0.80752 0.23717 0.04261 0.0
C454 C 0.86468 0.26586 0.02788 0.0
C455 C 0.84373 0.26812 0.01161 0.0
C456 C 0.80411 0.25616 0.01106 0.0
H457 H 0.9709 0.28235 0.90809 0.0
H458 H 0.91471 0.28237 0.92898 0.0
C459 C 0.78597 0.24111 0.02652 0.0
C460 C 0.86514 0.27787 -0.00514 0.0
H461 H 0.92502 0.34737 0.9762 0.0
C462 C 0.87128 0.24768 0.98231 0.0
C463 C 0.88357 0.31467 0.99232 0.0
C464 C 0.87673 0.34843 0.00512 0.0
C465 C 0.89777 0.25231 0.96794 0.0
C466 C 0.91774 0.28861 0.96585 0.0
C467 C 0.90973 0.31958 0.97784 0.0
C468 C 0.95026 0.29337 0.95269 0.0
C469 C 0.90617 0.21741 0.95594 0.0
C470 C 0.98848 0.3014 0.95898 0.0
C471 C 0.02036 0.3019 0.94709 0.0
C472 C 0.01465 0.29415 0.92868 0.0
C473 C 0.97614 0.2877 0.92227 0.0
C474 C 0.94411 0.28767 0.93417 0.0
H475 H 0.8945 0.18959 0.96169 0.0
H476 H 0.8919 0.22203 0.94266 0.0
H477 H 0.93842 0.21394 0.95372 0.0
H478 H 0.99389 0.30584 0.97323 0.0
H479 H 0.0497 0.30666 0.95244 0.0
H480 H 0.17523 0.18936 0.95775 0.0
H481 H 0.21224 0.16091 0.9826 0.0
H482 H 0.30379 0.12442 0.94574 0.0
H483 H 0.26573 0.15146 0.92051 0.0
H484 H 0.27954 0.06512 0.96586 0.0
H485 H 0.30756 0.19012 0.01124 0.0
H486 H 0.25623 0.18863 0.00547 0.0
H487 H 0.29255 0.19692 0.98809 0.0
C488 C 0.20335 0.17547 0.95491 0.0
C489 C 0.21728 0.17211 0.93713 0.0
C490 C 0.22488 0.15987 0.9692 0.0
C491 C 0.26118 0.14115 0.96611 0.0
C492 C 0.27603 0.13913 0.94845 0.0
H493 H 0.36498 0.98163 0.04693 0.0
H494 H 0.36391 0.02978 0.02243 0.0
C495 C 0.25432 0.15463 0.93407 0.0
C496 C 0.2803 0.11921 0.98098 0.0
H497 H 0.30167 0.12564 0.02585 0.0
C498 C 0.28556 0.07854 0.97883 0.0
C499 C 0.28828 0.13673 -0.0021 0.0
C500 C 0.28625 0.1806 0.00072 0.0
C501 C 0.29542 0.05452 0.99349 0.0
C502 C 0.30022 0.07172 0.01068 0.0
C503 C 0.29757 0.11261 0.01264 0.0
C504 C 0.30327 0.04702 0.02694 0.0
C505 C 0.29803 0.01061 0.99081 0.0
C506 C 0.26984 0.04176 0.0378 0.0
C507 C 0.27011 0.01398 0.05162 0.0
C508 C 0.30395 0.99104 0.05486 0.0
C509 C 0.33817 0.99814 0.04456 0.0
C510 C 0.33777 0.02583 0.03066 0.0
H511 H 0.29081 1.00169 0.97679 0.0
H512 H 0.32842 1.00047 0.99395 0.0
H513 H 0.27753 0.99538 0.00017 0.0
H514 H 0.24289 0.05784 0.03502 0.0
H515 H 0.24315 0.00924 0.05912 0.0
H516 H 0.03217 0.6957 0.9145 0.0
H517 H 0.08575 0.70887 0.93585 0.0
H518 H 0.01305 0.66567 0.9793 0.0
H519 H 0.96003 0.65202 0.9581 0.0
H520 H 0.07993 0.76124 0.96165 0.0
H521 H 0.11727 0.61955 0.99341 0.0
H522 H 0.0894 0.62252 0.9727 0.0
H523 H 0.06499 0.62747 0.99418 0.0
C524 C 0.02804 0.68831 0.92856 0.0
C525 C 0.99189 0.67295 0.93464 0.0
C526 C 0.05868 0.69563 0.94072 0.0
C527 C 0.05366 0.68775 0.95915 0.0
C528 C 0.01817 0.67087 0.96509 0.0
H529 H 0.11668 0.82156 0.04954 0.0
H530 H 0.08867 0.78739 0.02359 0.0
C531 C 0.98771 0.66325 0.95294 0.0
C532 C 0.0826 0.70249 0.97251 0.0
H533 H 0.12926 0.67808 0.01174 0.0
C534 C 0.09145 0.7428 0.97235 0.0
C535 C 0.09813 0.67847 0.98638 0.0
C536 C 0.09228 0.63453 0.98656 0.0
C537 C 0.11303 0.76018 0.98632 0.0
C538 C 0.12532 0.73678 0.00102 0.0
C539 C 0.11905 0.69604 0.0006 0.0
C540 C 0.14194 0.75485 0.01745 0.0
C541 C 0.12151 0.8037 0.98547 0.0
C542 C 0.18063 0.74653 0.02301 0.0
C543 C 0.19673 0.766 0.03792 0.0
C544 C 0.17424 0.79394 0.04743 0.0
C545 C 0.13493 0.80078 0.04225 0.0
C546 C 0.11892 0.78131 0.02744 0.0
H547 H 0.12108 0.81463 0.97136 0.0
H548 H 0.09843 0.81982 0.99311 0.0
H549 H 0.15067 0.81066 0.99152 0.0
H550 H 0.19869 0.72593 0.01551 0.0
H551 H 0.22715 0.76028 0.04158 0.0
H552 H 0.63898 0.88351 0.63299 0.0
H553 H 0.58166 0.92532 0.63785 0.0
H554 H 0.65692 0.02753 0.63917 0.0
H555 H 0.71482 0.98567 0.63367 0.0
H556 H 0.55732 0.97644 0.66334 0.0
H557 H 0.58226 0.05491 0.59864 0.0
H558 H 0.60977 0.0116 0.60484 0.0
H559 H 0.62231 0.05857 0.61438 0.0
C560 C 0.64358 0.91486 0.63447 0.0
C561 C 0.68152 0.93129 0.63268 0.0
C562 C 0.61064 0.93875 0.63731 0.0
C563 C 0.61474 0.97968 0.63848 0.0
C564 C 0.65288 0.99609 0.63786 0.0
H565 H 0.43196 0.16001 0.63597 0.0
H566 H 0.49297 0.12441 0.64237 0.0
C567 C 0.68601 0.97211 0.63488 0.0
C568 C 0.5787 0.00474 0.63927 0.0
H569 H 0.52718 0.0743 0.61578 0.0
C570 C 0.55086 0.99803 0.65301 0.0
C571 C 0.57 0.03267 0.62567 0.0
C572 C 0.59741 0.03972 0.60995 0.0
C573 C 0.51463 0.01831 0.65346 0.0
C574 C 0.50593 0.04588 0.63979 0.0
C575 C 0.53403 0.05322 0.62629 0.0
C576 C 0.46743 0.06673 0.63874 0.0
C577 C 0.48591 0.01013 0.66853 0.0
C578 C 0.43245 0.04606 0.63499 0.0
C579 C 0.39735 0.06637 0.63126 0.0
C580 C 0.39672 0.10774 0.63114 0.0
C581 C 0.43134 0.12817 0.63588 0.0
C582 C 0.46633 0.10789 0.63954 0.0
H583 H 0.50044 0.99529 0.6801 0.0
H584 H 0.47202 0.0378 0.67334 0.0
H585 H 0.46211 0.99062 0.66347 0.0
H586 H 0.43275 0.01428 0.63404 0.0
H587 H 0.37133 0.04973 0.62755 0.0
H588 H 0.0142 0.67008 0.36507 0.0
H589 H 0.98046 0.60787 0.35835 0.0
H590 H 0.09167 0.55538 0.34347 0.0
H591 H 0.12555 0.61704 0.35013 0.0
H592 H 0.98267 0.55192 0.32549 0.0
H593 H 0.04767 0.49397 0.38911 0.0
H594 H 0.04399 0.54595 0.3845 0.0
H595 H 0.08108 0.51692 0.37347 0.0
C596 C 0.03129 0.64558 0.35994 0.0
C597 C 0.07258 0.64829 0.35833 0.0
C598 C 0.012 0.6101 0.35612 0.0
C599 C 0.03374 0.57703 0.35063 0.0
C600 C 0.0745 0.58052 0.34784 0.0
H601 H 0.96701 0.32961 0.35739 0.0
H602 H 1.00444 0.38899 0.34967 0.0
C603 C 0.09376 0.61579 0.35168 0.0
C604 C 0.01477 0.53792 0.34967 0.0
H605 H 0.00859 0.45072 0.37217 0.0
C606 C 0.98836 0.52966 0.33562 0.0
C607 C 0.0226 0.50894 0.36285 0.0
C608 C 0.05016 0.51673 0.37844 0.0
C609 C 0.96931 0.493 0.33448 0.0
C610 C 0.97632 0.46436 0.34796 0.0
C611 C 1.00344 0.47251 0.36176 0.0
C612 C 0.95334 0.42728 0.34916 0.0
C613 C 0.94204 0.48529 0.31881 0.0
C614 C 0.91217 0.42888 0.35103 0.0
C615 C 0.89082 0.39511 0.35536 0.0
C616 C 0.91022 0.35904 0.35812 0.0
C617 C 0.95121 0.35693 0.3553 0.0
C618 C 0.97262 0.39085 0.35093 0.0
H619 H 0.95049 0.50311 0.30687 0.0
H620 H 0.94209 0.45374 0.31495 0.0
H621 H 0.91151 0.49372 0.32264 0.0
H622 H 0.89668 0.45668 0.35018 0.0
H623 H 0.85926 0.39777 0.35741 0.0
H624 H 0.59234 0.16261 0.13408 0.0
H625 H 0.53288 0.12569 0.14167 0.0
H626 H 0.59798 0.0171 0.13739 0.0
H627 H 0.65798 0.05401 0.12989 0.0
H628 H 0.50148 0.07275 0.11703 0.0
H629 H 0.52944 0.99963 0.18264 0.0
H630 H 0.55767 0.04151 0.17499 0.0
H631 H 0.56785 0.99337 0.16616 0.0
C632 C 0.59432 0.13091 0.13515 0.0
C633 C 0.62984 0.11121 0.13125 0.0
C634 C 0.56026 0.10986 0.13952 0.0
C635 C 0.56097 0.06867 0.14017 0.0
C636 C 0.59689 0.04892 0.13727 0.0
H637 H 0.39189 0.88278 0.13432 0.0
H638 H 0.4491 0.92436 0.14009 0.0
C639 C 0.63116 0.07004 0.13294 0.0
C640 C 0.52325 0.04661 0.14149 0.0
H641 H 0.47348 0.97748 0.16596 0.0
C642 C 0.49511 0.05228 0.12785 0.0
C643 C 0.51521 0.01972 0.15554 0.0
C644 C 0.54395 0.01332 0.17077 0.0
C645 C 0.45968 0.03096 0.12754 0.0
C646 C 0.45158 0.00387 0.14154 0.0
C647 C 0.47952 0.99853 0.15534 0.0
C648 C 0.41581 0.9786 0.14113 0.0
C649 C 0.4321 0.03639 0.11173 0.0
C650 C 0.37771 0.99502 0.14064 0.0
C651 C 0.34477 0.97127 0.13718 0.0
C652 C 0.34943 0.93066 0.13432 0.0
C653 C 0.38724 0.914 0.13628 0.0
C654 C 0.42007 0.93773 0.13964 0.0
H655 H 0.44687 0.05124 0.10022 0.0
H656 H 0.42046 0.00768 0.107 0.0
H657 H 0.40672 0.05489 0.11593 0.0
H658 H 0.37365 0.02642 0.14218 0.0
H659 H 0.31604 0.98499 0.13587 0.0
H660 H 0.01474 0.30347 0.85266 0.0
H661 H 0.97488 0.36209 0.84643 0.0
H662 H 0.08117 0.43043 0.83984 0.0
H663 H 0.12094 0.37218 0.84562 0.0
H664 H 0.97668 0.42506 0.86839 0.0
H665 H 0.0149 0.47426 0.79957 0.0
H666 H 0.02602 0.42538 0.80761 0.0
H667 H 0.058 0.46596 0.81307 0.0
C668 C 0.02958 0.3307 0.8493 0.0
C669 C 0.07101 0.3332 0.84972 0.0
C670 C 0.00678 0.36423 0.8458 0.0
C671 C 0.02499 0.40068 0.8425 0.0
C672 C 0.06635 0.4026 0.84193 0.0
H673 H 0.96554 0.64424 0.85771 0.0
H674 H 0.99748 0.58209 0.84926 0.0
C675 C 0.0891 0.36921 0.8454 0.0
C676 C 1.00138 0.43753 0.84227 0.0
H677 H 0.98683 0.52347 0.81926 0.0
C678 C 0.97834 0.44622 0.85748 0.0
C679 C 1.00393 0.46541 0.82814 0.0
C680 C 0.02676 0.45712 0.8111 0.0
C681 C 0.95893 0.48244 0.85926 0.0
C682 C 0.96212 0.51062 0.84532 0.0
C683 C 0.98454 0.50182 0.82993 0.0
C684 C 0.94281 0.54958 0.84692 0.0
C685 C 0.93627 0.49086 0.87637 0.0
C686 C 0.90153 0.55222 0.84758 0.0
C687 C 0.8833 0.58749 0.85243 0.0
C688 C 0.90601 0.62088 0.85662 0.0
C689 C 0.94725 0.61905 0.85454 0.0
C690 C 0.96554 0.58357 0.84974 0.0
H691 H 0.94332 0.46947 0.88721 0.0
H692 H 0.94276 0.52095 0.88136 0.0
H693 H 0.90414 0.48905 0.87357 0.0
H694 H 0.88349 0.52644 0.84521 0.0
H695 H 0.85144 0.58804 0.85374 0.0
H696 H 0.20987 0.02023 0.63633 0.0
H697 H 0.1407 0.99912 0.63618 0.0
H698 H 0.1185 0.07177 0.58969 0.0
H699 H 0.18742 0.093 0.58973 0.0
H700 H 0.06234 0.08179 0.61653 0.0
H701 H 0.08435 0.92332 0.60195 0.0
H702 H 0.11207 0.94104 0.62092 0.0
H703 H 0.12283 0.95937 0.59873 0.0
C704 C 0.19042 0.0314 0.62594 0.0
C705 C 0.20435 0.0585 0.61309 0.0
C706 C 0.15082 0.01919 0.62584 0.0
C707 C 0.12433 0.03357 0.61283 0.0
C708 C 0.13828 0.06026 0.59988 0.0
H709 H 0.88776 0.94207 0.59114 0.0
H710 H 0.95598 0.96502 0.58868 0.0
C711 C 0.1778 0.07242 0.59995 0.0
C712 C 0.0818 0.02199 0.61305 0.0
H713 H 0.01958 0.94298 0.61045 0.0
C714 C 0.05301 0.05144 0.61515 0.0
C715 C 0.06946 0.98246 0.61102 0.0
C716 C 0.09871 0.94971 0.60786 0.0
C717 C 0.01244 0.04239 0.61561 0.0
C718 C 1.00018 1.00272 0.61415 0.0
C719 C 0.02891 0.97336 0.6117 0.0
C720 C 0.95778 0.99097 0.61528 0.0
C721 C 0.98301 0.07547 0.61742 0.0
C722 C 0.93578 0.99811 0.63099 0.0
C723 C 0.89667 0.98497 0.63245 0.0
C724 C 0.87862 0.96418 0.61825 0.0
C725 C 0.90049 0.95789 0.60236 0.0
C726 C 0.93965 0.97093 0.60094 0.0
H727 H 0.99609 0.10419 0.61353 0.0
H728 H 0.95653 0.07004 0.60896 0.0
H729 H 0.97333 0.07762 0.63167 0.0
H730 H 0.94921 0.01291 0.64237 0.0
H731 H 0.88098 0.99021 0.64495 0.0
H732 H 0.99858 0.84917 0.41992 0.0
H733 H 0.98085 0.91746 0.41394 0.0
H734 H 0.02416 0.90627 0.35953 0.0
H735 H 0.04231 0.8378 0.36546 0.0
H736 H 0.05323 0.9716 0.37619 0.0
H737 H 0.89118 0.96531 0.3857 0.0
H738 H 0.91771 0.94601 0.40465 0.0
H739 H 0.92099 0.92166 0.38316 0.0
C740 C 1.00367 0.8609 0.40656 0.0
C741 C 0.02214 0.83799 0.3932 0.0
C742 C 0.99341 0.90005 0.40315 0.0
C743 C 1.00082 0.91701 0.38623 0.0
C744 C 0.01817 0.89387 0.37269 0.0
H745 H 0.96593 0.15599 0.34541 0.0
H746 H 0.98497 0.08688 0.34857 0.0
C747 C 0.02856 0.85472 0.37611 0.0
C748 C 0.99263 0.95945 0.38306 0.0
H749 H 0.92029 0.02932 0.38566 0.0
C750 C 0.02407 0.98415 0.37808 0.0
C751 C 0.95458 0.97588 0.38552 0.0
C752 C 0.91911 0.95078 0.38987 0.0
C753 C 0.01872 0.02492 0.37602 0.0
C754 C 0.9809 0.04137 0.37888 0.0
C755 C 0.94936 0.01666 0.38361 0.0
C756 C 0.97325 0.08422 0.3772 0.0
C757 C 0.05376 0.05028 0.37129 0.0
C758 C 0.9608 0.1058 0.39227 0.0
C759 C 0.95007 0.14532 0.39054 0.0
C760 C 0.95106 0.16402 0.37363 0.0
C761 C 0.96494 0.14266 0.35865 0.0
C762 C 0.97586 0.10311 0.36042 0.0
H763 H 0.08216 0.03441 0.37312 0.0
H764 H 0.05153 0.0594 0.35697 0.0
H765 H 0.05414 0.0773 0.3797 0.0
H766 H 0.95863 0.09181 0.40535 0.0
H767 H 0.9398 0.16077 0.40239 0.0
H768 H 0.14337 0.94524 0.09162 0.0
H769 H 0.07613 0.97172 0.09016 0.0
H770 H 0.09302 0.02835 0.14154 0.0
H771 H 0.16016 1.00205 0.14315 0.0
H772 H 0.01367 0.9587 0.11699 0.0
H773 H 0.0502 0.11649 0.10772 0.0
H774 H 0.085 0.07757 0.10296 0.0
H775 H 0.07604 0.09258 0.12581 0.0
C776 C 0.13308 0.96385 0.10249 0.0
C777 C 0.15737 0.97169 0.11747 0.0
C778 C 0.09449 0.97873 0.10168 0.0
C779 C 0.0796 1.00217 0.11569 0.0
C780 C 0.10401 0.01068 0.13048 0.0
H781 H 0.86881 0.12897 0.14288 0.0
H782 H 0.93221 0.09488 0.14204 0.0
C783 C 0.14243 0.99558 0.13137 0.0
C784 C 0.03824 0.01691 0.11523 0.0
H785 H 0.98372 0.10133 0.11488 0.0
C786 C 0.00698 0.98986 0.11638 0.0
C787 C 0.02963 0.05752 0.11442 0.0
C788 C 0.0619 0.08781 0.1125 0.0
C789 C 0.96738 1.00247 0.11747 0.0
C790 C 0.95881 0.04322 0.11701 0.0
C791 C 0.99016 0.07011 0.11538 0.0
C792 C 0.91791 0.05916 0.11881 0.0
C793 C 0.93531 0.97213 0.11978 0.0
C794 C 0.88796 0.04958 0.1064 0.0
C795 C 0.85117 0.06869 0.10707 0.0
C796 C 0.84405 0.09816 0.11996 0.0
C797 C 0.87342 0.10636 0.13279 0.0
C798 C 0.90979 0.08703 0.13227 0.0
H799 H 0.94732 0.94362 0.12461 0.0
H800 H 0.91249 0.98241 0.12944 0.0
H801 H 0.92081 0.96691 0.10659 0.0
H802 H 0.89363 0.02878 0.09566 0.0
H803 H 0.82941 0.06225 0.0968 0.0
H804 H 0.97103 0.81781 0.84248 0.0
H805 H 0.99155 0.88681 0.84358 0.0
H806 H 0.96716 0.89008 0.90055 0.0
H807 H 0.94699 0.82126 0.89967 0.0
H808 H 0.92932 0.95138 0.87844 0.0
H809 H 0.09139 0.93923 0.86752 0.0
H810 H 0.06048 0.91164 0.85238 0.0
H811 H 0.06195 0.8988 0.87582 0.0
C812 C 0.97073 0.83291 0.85533 0.0
C813 C 0.9572 0.81378 0.87098 0.0
C814 C 0.98248 0.8724 0.85592 0.0
C815 C 0.98088 0.89356 0.87215 0.0
C816 C 0.9686 0.87429 0.88788 0.0
H817 H 0.06644 0.1298 0.89468 0.0
H818 H 0.04777 0.06051 0.8966 0.0
C819 C 0.95718 0.83478 0.88734 0.0
C820 C 0.98972 0.93633 0.87255 0.0
H821 H 0.06399 0.00332 0.86725 0.0
C822 C 0.95876 0.96277 0.87604 0.0
C823 C 0.02819 0.95105 0.86952 0.0
C824 C 0.06261 0.92383 0.86622 0.0
C825 C 0.96516 0.00362 0.87627 0.0
C826 C 1.00348 0.01837 0.87292 0.0
C827 C 0.03458 0.99191 0.86974 0.0
C828 C 0.01191 0.0612 0.87251 0.0
C829 C 0.93104 0.03079 0.88022 0.0
C830 C 0.99747 0.08476 0.85846 0.0
C831 C 0.00818 0.12445 0.85727 0.0
C832 C 0.03343 0.14141 0.87017 0.0
C833 C 0.04667 0.11796 0.8846 0.0
C834 C 0.03624 0.07821 0.88567 0.0
H835 H 0.90519 0.01475 0.88579 0.0
H836 H 0.94003 0.05396 0.88994 0.0
H837 H 0.92177 0.04554 0.86758 0.0
H838 H 0.97891 0.07212 0.84808 0.0
H839 H 0.99758 0.14154 0.84595 0.0
H840 H 0.21941 0.13734 0.66375 0.0
H841 H 0.20142 0.13794 0.69566 0.0
H842 H 0.24918 0.25482 0.70099 0.0
H843 H 0.268 0.2543 0.66925 0.0
H844 H 0.25634 0.15006 0.72513 0.0
H845 H 0.13641 0.26176 0.72324 0.0
H846 H 0.15307 0.23595 0.70336 0.0
H847 H 0.18187 0.27558 0.71244 0.0
C848 C 0.22621 0.16315 0.67169 0.0
C849 C 0.24522 0.19576 0.66391 0.0
C850 C 0.21569 0.1635 0.68988 0.0
C851 C 0.22364 0.19657 0.70055 0.0
C852 C 0.24219 0.22931 0.69285 0.0
H853 H 0.18905 0.25185 0.81365 0.0
H854 H 0.20609 0.25336 0.78158 0.0
C855 C 0.25284 0.22896 0.67468 0.0
C856 C 0.21425 0.19613 0.71996 0.0
H857 H 0.15719 0.24012 0.75204 0.0
C858 C 0.23456 0.16959 0.73104 0.0
C859 C 0.18606 0.22192 0.72754 0.0
C860 C 0.1628 0.25027 0.71606 0.0
C861 C 0.22774 0.16845 0.74966 0.0
C862 C 0.19924 0.19397 0.75725 0.0
C863 C 0.17904 0.22064 0.74615 0.0
C864 C 0.18938 0.19291 0.77664 0.0
C865 C 0.25167 0.1405 0.76108 0.0
C866 C 0.17397 0.15859 0.78436 0.0
C867 C 0.16428 0.15765 0.80262 0.0
C868 C 0.16944 0.19117 0.81345 0.0
C869 C 0.18451 0.22567 0.80562 0.0
C870 C 0.19436 0.22654 0.78734 0.0
H871 H 0.27931 0.13136 0.75418 0.0
H872 H 0.25946 0.15403 0.77423 0.0
H873 H 0.23399 0.11366 0.76374 0.0
H874 H 0.16897 0.13264 0.77621 0.0
H875 H 0.15194 0.13091 0.80815 0.0
H876 H 0.25013 0.86529 0.17787 0.0
H877 H 0.24477 0.8465 0.20956 0.0
H878 H 0.16419 0.75337 0.19516 0.0
H879 H 0.16876 0.77288 0.16349 0.0
H880 H 0.1336 0.79836 0.22016 0.0
H881 H 0.28528 0.75981 0.24112 0.0
H882 H 0.28386 0.80722 0.2306 0.0
H883 H 0.27127 0.76408 0.21773 0.0
C884 C 0.23213 0.84017 0.18145 0.0
C885 C 0.20967 0.82063 0.16831 0.0
C886 C 0.22923 0.8293 0.19954 0.0
C887 C 0.20444 0.79819 0.20473 0.0
C888 C 0.18355 0.7774 0.19146 0.0
H889 H 0.17669 0.73462 0.31879 0.0
H890 H 0.19186 0.73087 0.28658 0.0
C891 C 0.18604 0.78861 0.17342 0.0
C892 C 0.19628 0.79086 0.22405 0.0
H893 H 0.24027 0.77844 0.26504 0.0
C894 C 0.15693 0.79333 0.22991 0.0
C895 C 0.22658 0.78383 0.23677 0.0
C896 C 0.26904 0.77815 0.2312 0.0
C897 C 0.14723 0.79078 0.2482 0.0
C898 C 0.17781 0.78671 0.26102 0.0
C899 C 0.21696 0.78223 0.25516 0.0
C900 C 0.16968 0.78902 0.28055 0.0
C901 C 0.10431 0.79291 0.25363 0.0
C902 C 0.15288 0.82321 0.28781 0.0
C903 C 0.1438 0.82531 0.3061 0.0
C904 C 0.15173 0.79338 0.31757 0.0
C905 C 0.16953 0.75947 0.31031 0.0
C906 C 0.17852 0.75737 0.29194 0.0
H907 H 0.08458 0.7838 0.24242 0.0
H908 H 0.09822 0.77398 0.2655 0.0
H909 H 0.09682 0.8237 0.25722 0.0
H910 H 0.14652 0.84825 0.27927 0.0
H911 H 0.12987 0.85174 0.31113 0.0
H912 H 0.85485 0.72535 0.81738 0.0
H913 H 0.84196 0.73381 0.78525 0.0
H914 H 0.75027 0.81779 0.79745 0.0
H915 H 0.76345 0.80976 0.82972 0.0
H916 H 0.7762 0.72584 0.76313 0.0
H917 H 0.82674 0.88125 0.76671 0.0
H918 H 0.83355 0.84717 0.78505 0.0
H919 H 0.7861 0.86941 0.78126 0.0
C920 C 0.83139 0.745 0.81326 0.0
C921 C 0.81036 0.7672 0.82604 0.0
C922 C 0.82415 0.7499 0.79489 0.0
C923 C 0.79572 0.77698 0.78899 0.0
C924 C 0.77299 0.79742 0.80174 0.0
H925 H 0.75746 0.86629 0.6802 0.0
H926 H 0.74699 0.84853 0.71177 0.0
C927 C 0.78046 0.79278 0.82013 0.0
C928 C 0.79196 0.78558 0.76953 0.0
H929 H 0.80628 0.85798 0.73839 0.0
C930 C 0.7825 0.75477 0.7577 0.0
C931 C 0.80038 0.82336 0.76253 0.0
C932 C 0.81261 0.85716 0.77449 0.0
C933 C 0.78159 0.76069 0.73899 0.0
C934 C 0.79072 0.79825 0.73202 0.0
C935 C 0.79913 0.82927 0.74385 0.0
C936 C 0.79419 0.8057 0.71248 0.0
C937 C 0.77106 0.72677 0.72682 0.0
C938 C 0.82418 0.78742 0.70248 0.0
C939 C 0.83028 0.79754 0.68447 0.0
C940 C 0.80651 0.82616 0.67616 0.0
C941 C 0.77593 0.84379 0.68613 0.0
C942 C 0.76998 0.83379 0.70418 0.0
H943 H 0.75492 0.70335 0.73421 0.0
H944 H 0.75264 0.73682 0.71533 0.0
H945 H 0.79857 0.71375 0.72128 0.0
H946 H 0.84362 0.76617 0.70876 0.0
H947 H 0.8538 0.78322 0.67708 0.0
H948 H 0.84775 0.27454 0.31481 0.0
H949 H 0.83163 0.2773 0.28277 0.0
H950 H 0.75363 0.17805 0.28902 0.0
H951 H 0.76852 0.17592 0.32121 0.0
H952 H 0.84607 0.21779 0.2584 0.0
H953 H 0.68662 0.25505 0.25989 0.0
H954 H 0.71846 0.26128 0.2792 0.0
H955 H 0.69927 0.2135 0.27365 0.0
C956 C 0.82642 0.2539 0.3095 0.0
C957 C 0.80938 0.225 0.32059 0.0
C958 C 0.81747 0.25536 0.29115 0.0
C959 C 0.79116 0.22814 0.28359 0.0
C960 C 0.77349 0.19975 0.29466 0.0
H961 H 0.77822 0.15269 0.1726 0.0
H962 H 0.78773 0.15819 0.20514 0.0
C963 C 0.78239 0.19829 0.31301 0.0
C964 C 0.78438 0.22763 0.26391 0.0
H965 H 0.71246 0.23241 0.2318 0.0
C966 C 0.81691 0.22127 0.25256 0.0
C967 C 0.74637 0.23253 0.25637 0.0
C968 C 0.71072 0.24135 0.26788 0.0
C969 C 0.81232 0.21882 0.23383 0.0
C970 C 0.77409 0.22213 0.22634 0.0
C971 C 0.74167 0.22943 0.23764 0.0
C972 C 0.76719 0.21834 0.20675 0.0
C973 C 0.84848 0.21307 0.22222 0.0
C974 C 0.75141 0.24995 0.19702 0.0
C975 C 0.74548 0.24674 0.17847 0.0
C976 C 0.75506 0.21177 0.16933 0.0
C977 C 0.77023 0.1799 0.17922 0.0
C978 C 0.77612 0.18314 0.19778 0.0
H979 H 0.87595 0.22142 0.22946 0.0
H980 H 0.8509 0.1816 0.21843 0.0
H981 H 0.84643 0.23067 0.20965 0.0
H982 H 0.74405 0.27726 0.20376 0.0
H983 H 0.73314 0.27158 0.17131 0.0
loop_
_geom_bond_atom_site_label_1
_geom_bond_atom_site_label_2
_geom_bond_distance
_geom_bond_site_symmetry_2
_ccdc_geom_bond_type
C0 C1 1.351 . S
C0 N3 1.368 . S
C0 H5 0.931 . S
C1 C0 1.351 . S
C1 N2 1.373 . S
C1 H29 0.930 . S
N2 C1 1.373 . S
N2 C4 1.340 . S
N3 C0 1.368 . S
N3 C4 1.321 . S
N3 Co6 2.135 . S
C4 N2 1.340 . S
C4 N3 1.321 . S
C4 H28 0.930 . S
H5 C0 0.931 . S
Co6 N3 2.135 . S
Co6 N9 2.121 . S
Co6 O14 2.055 . S
Co6 O17 2.039 . S
Co6 N20 2.140 . S
C7 O8 1.227 . S
C7 O17 1.265 . S
O8 C7 1.227 . S
N9 Co6 2.121 . S
N9 C11 1.375 . S
N9 C12 1.313 . S
C10 C11 1.338 . S
C10 N13 1.377 . S
C10 H30 0.930 . S
C11 N9 1.375 . S
C11 C10 1.338 . S
C11 H15 0.931 . S
C12 N9 1.313 . S
C12 N13 1.344 . S
C12 H16 0.930 . S
N13 C10 1.377 . S
N13 C12 1.344 . S
O14 Co6 2.055 . S
O14 C18 1.253 . S
H15 C11 0.931 . S
H16 C12 0.930 . S
O17 Co6 2.039 . S
O17 C7 1.265 . S
C18 O14 1.253 . S
C18 O19 1.227 . S
O19 C18 1.227 . S
N20 Co6 2.140 . S
N20 C23 1.346 . S
N20 C24 1.345 . S
C21 C22 1.387 . S
C21 C25 1.391 . S
C22 C21 1.387 . S
C22 C23 1.369 . S
C22 H31 0.929 . S
C23 N20 1.346 . S
C23 C22 1.369 . S
C23 H26 0.928 . S
C24 N20 1.345 . S
C24 C25 1.371 . S
C24 H27 0.931 . S
C25 C21 1.391 . S
C25 C24 1.371 . S
C25 H32 0.930 . S
H26 C23 0.928 . S
H27 C24 0.931 . S
H28 C4 0.930 . S
H29 C1 0.930 . S
H30 C10 0.930 . S
H31 C22 0.929 . S
H32 C25 0.930 . S
C33 C34 1.351 . S
C33 N36 1.368 . S
C33 H38 0.931 . S
C34 C33 1.351 . S
C34 N35 1.373 . S
C34 H62 0.930 . S
N35 C34 1.373 . S
N35 C37 1.340 . S
N36 C33 1.368 . S
N36 C37 1.321 . S
N36 Co39 2.135 . S
C37 N35 1.340 . S
C37 N36 1.321 . S
C37 H61 0.930 . S
H38 C33 0.931 . S
Co39 N36 2.135 . S
Co39 N42 2.121 . S
Co39 O47 2.055 . S
Co39 O50 2.039 . S
Co39 N53 2.140 . S
C40 O41 1.227 . S
C40 O50 1.265 . S
O41 C40 1.227 . S
N42 Co39 2.121 . S
N42 C44 1.375 . S
N42 C45 1.313 . S
C43 C44 1.338 . S
C43 N46 1.377 . S
C43 H63 0.930 . S
C44 N42 1.375 . S
C44 C43 1.338 . S
C44 H48 0.931 . S
C45 N42 1.313 . S
C45 N46 1.344 . S
C45 H49 0.930 . S
N46 C43 1.377 . S
N46 C45 1.344 . S
O47 Co39 2.055 . S
O47 C51 1.253 . S
H48 C44 0.931 . S
H49 C45 0.930 . S
O50 Co39 2.039 . S
O50 C40 1.265 . S
C51 O47 1.253 . S
C51 O52 1.227 . S
O52 C51 1.227 . S
N53 Co39 2.140 . S
N53 C56 1.346 . S
N53 C57 1.345 . S
C54 C55 1.387 . S
C54 C58 1.391 . S
C55 C54 1.387 . S
C55 C56 1.369 . S
C55 H64 0.929 . S
C56 N53 1.346 . S
C56 C55 1.369 . S
C56 H59 0.928 . S
C57 N53 1.345 . S
C57 C58 1.371 . S
C57 H60 0.931 . S
C58 C54 1.391 . S
C58 C57 1.371 . S
C58 H65 0.930 . S
H59 C56 0.928 . S
H60 C57 0.931 . S
H61 C37 0.930 . S
H62 C34 0.930 . S
H63 C43 0.930 . S
H64 C55 0.929 . S
H65 C58 0.930 . S
C66 C67 1.351 . S
C66 N69 1.368 . S
C66 H71 0.931 . S
C67 C66 1.351 . S
C67 N68 1.373 . S
C67 H95 0.930 . S
N68 C67 1.373 . S
N68 C70 1.340 . S
N69 C66 1.368 . S
N69 C70 1.321 . S
N69 Co72 2.135 . S
C70 N68 1.340 . S
C70 N69 1.321 . S
C70 H94 0.930 . S
H71 C66 0.931 . S
Co72 N69 2.135 . S
Co72 N75 2.121 . S
Co72 O80 2.055 . S
Co72 O83 2.039 . S
Co72 N86 2.140 . S
C73 O74 1.227 . S
C73 O83 1.265 . S
O74 C73 1.227 . S
N75 Co72 2.121 . S
N75 C77 1.375 . S
N75 C78 1.313 . S
C76 C77 1.338 . S
C76 N79 1.377 . S
C76 H96 0.930 . S
C77 N75 1.375 . S
C77 C76 1.338 . S
C77 H81 0.931 . S
C78 N75 1.313 . S
C78 N79 1.344 . S
C78 H82 0.930 . S
N79 C76 1.377 . S
N79 C78 1.344 . S
O80 Co72 2.055 . S
O80 C84 1.253 . S
H81 C77 0.931 . S
H82 C78 0.930 . S
O83 Co72 2.039 . S
O83 C73 1.265 . S
C84 O80 1.253 . S
C84 O85 1.227 . S
O85 C84 1.227 . S
N86 Co72 2.140 . S
N86 C89 1.346 . S
N86 C90 1.345 . S
C87 C88 1.387 . S
C87 C91 1.391 . S
C88 C87 1.387 . S
C88 C89 1.369 . S
C88 H97 0.929 . S
C89 N86 1.346 . S
C89 C88 1.369 . S
C89 H92 0.928 . S
C90 N86 1.345 . S
C90 C91 1.371 . S
C90 H93 0.931 . S
C91 C87 1.391 . S
C91 C90 1.371 . S
C91 H98 0.930 . S
H92 C89 0.928 . S
H93 C90 0.931 . S
H94 C70 0.930 . S
H95 C67 0.930 . S
H96 C76 0.930 . S
H97 C88 0.929 . S
H98 C91 0.930 . S
C99 C100 1.351 . S
C99 N102 1.368 . S
C99 H104 0.931 . S
C100 C99 1.351 . S
C100 N101 1.373 . S
C100 H128 0.930 . S
N101 C100 1.373 . S
N101 C103 1.340 . S
N102 C99 1.368 . S
N102 C103 1.321 . S
N102 Co105 2.135 . S
C103 N101 1.340 . S
C103 N102 1.321 . S
C103 H127 0.930 . S
H104 C99 0.931 . S
Co105 N102 2.135 . S
Co105 N108 2.121 . S
Co105 O113 2.055 . S
Co105 O116 2.039 . S
Co105 N119 2.140 . S
C106 O107 1.227 . S
C106 O116 1.265 . S
O107 C106 1.227 . S
N108 Co105 2.121 . S
N108 C110 1.375 . S
N108 C111 1.313 . S
C109 C110 1.338 . S
C109 N112 1.377 . S
C109 H129 0.930 . S
C110 N108 1.375 . S
C110 C109 1.338 . S
C110 H114 0.931 . S
C111 N108 1.313 . S
C111 N112 1.344 . S
C111 H115 0.930 . S
N112 C109 1.377 . S
N112 C111 1.344 . S
O113 Co105 2.055 . S
O113 C117 1.253 . S
H114 C110 0.931 . S
H115 C111 0.930 . S
O116 Co105 2.039 . S
O116 C106 1.265 . S
C117 O113 1.253 . S
C117 O118 1.227 . S
O118 C117 1.227 . S
N119 Co105 2.140 . S
N119 C122 1.346 . S
N119 C123 1.345 . S
C120 C121 1.387 . S
C120 C124 1.391 . S
C121 C120 1.387 . S
C121 C122 1.369 . S
C121 H130 0.929 . S
C122 N119 1.346 . S
C122 C121 1.369 . S
C122 H125 0.928 . S
C123 N119 1.345 . S
C123 C124 1.371 . S
C123 H126 0.931 . S
C124 C120 1.391 . S
C124 C123 1.371 . S
C124 H131 0.930 . S
H125 C122 0.928 . S
H126 C123 0.931 . S
H127 C103 0.930 . S
H128 C100 0.930 . S
H129 C109 0.930 . S
H130 C121 0.929 . S
H131 C124 0.930 . S
C132 C133 1.351 . S
C132 N135 1.368 . S
C132 H137 0.931 . S
C133 C132 1.351 . S
C133 N134 1.373 . S
C133 H161 0.930 . S
N134 C133 1.373 . S
N134 C136 1.340 . S
N135 C132 1.368 . S
N135 C136 1.321 . S
N135 Co138 2.135 . S
C136 N134 1.340 . S
C136 N135 1.321 . S
C136 H160 0.930 . S
H137 C132 0.931 . S
Co138 N135 2.135 . S
Co138 N141 2.121 . S
Co138 O146 2.055 . S
Co138 O149 2.039 . S
Co138 N152 2.140 . S
C139 O140 1.227 . S
C139 O149 1.265 . S
O140 C139 1.227 . S
N141 Co138 2.121 . S
N141 C143 1.375 . S
N141 C144 1.313 . S
C142 C143 1.338 . S
C142 N145 1.377 . S
C142 H162 0.930 . S
C143 N141 1.375 . S
C143 C142 1.338 . S
C143 H147 0.931 . S
C144 N141 1.313 . S
C144 N145 1.344 . S
C144 H148 0.930 . S
N145 C142 1.377 . S
N145 C144 1.344 . S
O146 Co138 2.055 . S
O146 C150 1.253 . S
H147 C143 0.931 . S
H148 C144 0.930 . S
O149 Co138 2.039 . S
O149 C139 1.265 . S
C150 O146 1.253 . S
C150 O151 1.227 . S
O151 C150 1.227 . S
N152 Co138 2.140 . S
N152 C155 1.346 . S
N152 C156 1.345 . S
C153 C154 1.387 . S
C153 C157 1.391 . S
C154 C153 1.387 . S
C154 C155 1.369 . S
C154 H163 0.929 . S
C155 N152 1.346 . S
C155 C154 1.369 . S
C155 H158 0.928 . S
C156 N152 1.345 . S
C156 C157 1.371 . S
C156 H159 0.931 . S
C157 C153 1.391 . S
C157 C156 1.371 . S
C157 H164 0.930 . S
H158 C155 0.928 . S
H159 C156 0.931 . S
H160 C136 0.930 . S
H161 C133 0.930 . S
H162 C142 0.930 . S
H163 C154 0.929 . S
H164 C157 0.930 . S
C165 C166 1.351 . S
C165 N168 1.368 . S
C165 H170 0.931 . S
C166 C165 1.351 . S
C166 N167 1.373 . S
C166 H194 0.930 . S
N167 C166 1.373 . S
N167 C169 1.340 . S
N168 C165 1.368 . S
N168 C169 1.321 . S
N168 Co171 2.135 . S
C169 N167 1.340 . S
C169 N168 1.321 . S
C169 H193 0.930 . S
H170 C165 0.931 . S
Co171 N168 2.135 . S
Co171 N174 2.121 . S
Co171 O179 2.055 . S
Co171 O182 2.039 . S
Co171 N185 2.140 . S
C172 O173 1.227 . S
C172 O182 1.265 . S
O173 C172 1.227 . S
N174 Co171 2.121 . S
N174 C176 1.375 . S
N174 C177 1.313 . S
C175 C176 1.338 . S
C175 N178 1.377 . S
C175 H195 0.930 . S
C176 N174 1.375 . S
C176 C175 1.338 . S
C176 H180 0.931 . S
C177 N174 1.313 . S
C177 N178 1.344 . S
C177 H181 0.930 . S
N178 C175 1.377 . S
N178 C177 1.344 . S
O179 Co171 2.055 . S
O179 C183 1.253 . S
H180 C176 0.931 . S
H181 C177 0.930 . S
O182 Co171 2.039 . S
O182 C172 1.265 . S
C183 O179 1.253 . S
C183 O184 1.227 . S
O184 C183 1.227 . S
N185 Co171 2.140 . S
N185 C188 1.346 . S
N185 C189 1.345 . S
C186 C187 1.387 . S
C186 C190 1.391 . S
C187 C186 1.387 . S
C187 C188 1.369 . S
C187 H196 0.929 . S
C188 N185 1.346 . S
C188 C187 1.369 . S
C188 H191 0.928 . S
C189 N185 1.345 . S
C189 C190 1.371 . S
C189 H192 0.931 . S
C190 C186 1.391 . S
C190 C189 1.371 . S
C190 H197 0.930 . S
H191 C188 0.928 . S
H192 C189 0.931 . S
H193 C169 0.930 . S
H194 C166 0.930 . S
H195 C175 0.930 . S
H196 C187 0.929 . S
H197 C190 0.930 . S
C198 C199 1.351 . S
C198 N201 1.368 . S
C198 H203 0.931 . S
C199 C198 1.351 . S
C199 N200 1.373 . S
C199 H227 0.930 . S
N200 C199 1.373 . S
N200 C202 1.340 . S
N201 C198 1.368 . S
N201 C202 1.321 . S
N201 Co204 2.135 . S
C202 N200 1.340 . S
C202 N201 1.321 . S
C202 H226 0.930 . S
H203 C198 0.931 . S
Co204 N201 2.135 . S
Co204 N207 2.121 . S
Co204 O212 2.055 . S
Co204 O215 2.039 . S
Co204 N218 2.140 . S
C205 O206 1.227 . S
C205 O215 1.265 . S
O206 C205 1.227 . S
N207 Co204 2.121 . S
N207 C209 1.375 . S
N207 C210 1.313 . S
C208 C209 1.338 . S
C208 N211 1.377 . S
C208 H228 0.930 . S
C209 N207 1.375 . S
C209 C208 1.338 . S
C209 H213 0.931 . S
C210 N207 1.313 . S
C210 N211 1.344 . S
C210 H214 0.930 . S
N211 C208 1.377 . S
N211 C210 1.344 . S
O212 Co204 2.055 . S
O212 C216 1.253 . S
H213 C209 0.931 . S
H214 C210 0.930 . S
O215 Co204 2.039 . S
O215 C205 1.265 . S
C216 O212 1.253 . S
C216 O217 1.227 . S
O217 C216 1.227 . S
N218 Co204 2.140 . S
N218 C221 1.346 . S
N218 C222 1.345 . S
C219 C220 1.387 . S
C219 C223 1.391 . S
C220 C219 1.387 . S
C220 C221 1.369 . S
C220 H229 0.929 . S
C221 N218 1.346 . S
C221 C220 1.369 . S
C221 H224 0.928 . S
C222 N218 1.345 . S
C222 C223 1.371 . S
C222 H225 0.931 . S
C223 C219 1.391 . S
C223 C222 1.371 . S
C223 H230 0.930 . S
H224 C221 0.928 . S
H225 C222 0.931 . S
H226 C202 0.930 . S
H227 C199 0.930 . S
H228 C208 0.930 . S
H229 C220 0.929 . S
H230 C223 0.930 . S
C231 C232 1.351 . S
C231 N234 1.368 . S
C231 H236 0.931 . S
C232 C231 1.351 . S
C232 N233 1.373 . S
C232 H260 0.930 . S
N233 C232 1.373 . S
N233 C235 1.340 . S
N234 C231 1.368 . S
N234 C235 1.321 . S
N234 Co237 2.135 . S
C235 N233 1.340 . S
C235 N234 1.321 . S
C235 H259 0.930 . S
H236 C231 0.931 . S
Co237 N234 2.135 . S
Co237 N240 2.121 . S
Co237 O245 2.055 . S
Co237 O248 2.039 . S
Co237 N251 2.140 . S
C238 O239 1.227 . S
C238 O248 1.265 . S
O239 C238 1.227 . S
N240 Co237 2.121 . S
N240 C242 1.375 . S
N240 C243 1.313 . S
C241 C242 1.338 . S
C241 N244 1.377 . S
C241 H261 0.930 . S
C242 N240 1.375 . S
C242 C241 1.338 . S
C242 H246 0.931 . S
C243 N240 1.313 . S
C243 N244 1.344 . S
C243 H247 0.930 . S
N244 C241 1.377 . S
N244 C243 1.344 . S
O245 Co237 2.055 . S
O245 C249 1.253 . S
H246 C242 0.931 . S
H247 C243 0.930 . S
O248 Co237 2.039 . S
O248 C238 1.265 . S
C249 O245 1.253 . S
C249 O250 1.227 . S
O250 C249 1.227 . S
N251 Co237 2.140 . S
N251 C254 1.346 . S
N251 C255 1.345 . S
C252 C253 1.387 . S
C252 C256 1.391 . S
C253 C252 1.387 . S
C253 C254 1.369 . S
C253 H262 0.929 . S
C254 N251 1.346 . S
C254 C253 1.369 . S
C254 H257 0.928 . S
C255 N251 1.345 . S
C255 C256 1.371 . S
C255 H258 0.931 . S
C256 C252 1.391 . S
C256 C255 1.371 . S
C256 H263 0.930 . S
H257 C254 0.928 . S
H258 C255 0.931 . S
H259 C235 0.930 . S
H260 C232 0.930 . S
H261 C241 0.930 . S
H262 C253 0.929 . S
H263 C256 0.930 . S
H264 C272 0.929 . S
H265 C274 0.930 . S
H266 C276 0.930 . S
H267 C279 0.929 . S
H268 C282 0.930 . S
H269 C284 0.960 . S
H270 C284 0.960 . S
H271 C284 0.960 . S
C272 H264 0.929 . S
C272 C273 1.377 1_565 S
C272 C274 1.384 . S
C273 C272 1.377 1_545 S
C273 C279 1.390 . S
C274 H265 0.930 . S
C274 C272 1.384 . S
C274 C275 1.372 . S
C275 C274 1.372 . S
C275 C276 1.400 1_565 S
C275 C280 1.490 . S
C276 H266 0.930 . S
C276 C275 1.400 1_545 S
C276 C279 1.386 . S
H277 C293 0.930 . S
H278 C294 0.931 . S
C279 H267 0.929 . S
C279 C273 1.390 . S
C279 C276 1.386 . S
C280 C275 1.490 . S
C280 C282 1.395 . S
C280 C283 1.403 . S
H281 C287 0.930 . S
C282 H268 0.930 . S
C282 C280 1.395 . S
C282 C285 1.403 . S
C283 C280 1.403 . S
C283 C284 1.524 . S
C283 C287 1.400 . S
C284 H269 0.960 . S
C284 H270 0.960 . S
C284 H271 0.960 . S
C284 C283 1.524 . S
C285 C282 1.403 . S
C285 C286 1.392 . S
C285 C289 1.495 . S
C286 C285 1.392 . S
C286 C287 1.385 . S
C286 C288 1.478 . S
C287 H281 0.930 . S
C287 C283 1.400 . S
C287 C286 1.385 . S
C288 C286 1.478 . S
C288 C290 1.381 . S
C288 C294 1.383 . S
C289 C285 1.495 . S
C289 H295 0.959 . S
C289 H296 0.961 . S
C289 H297 0.960 . S
C290 C288 1.381 . S
C290 C291 1.394 . S
C290 H298 0.930 . S
C291 C290 1.394 . S
C291 C292 1.383 . S
C291 H299 0.929 . S
C292 C291 1.383 . S
C292 C293 1.377 . S
C293 H277 0.930 . S
C293 C292 1.377 . S
C293 C294 1.379 . S
C294 H278 0.931 . S
C294 C288 1.383 . S
C294 C293 1.379 . S
H295 C289 0.959 . S
H296 C289 0.961 . S
H297 C289 0.960 . S
H298 C290 0.930 . S
H299 C291 0.929 . S
H300 C308 0.929 . S
H301 C310 0.930 . S
H302 C312 0.930 . S
H303 C315 0.929 . S
H304 C318 0.930 . S
H305 C320 0.960 . S
H306 C320 0.960 . S
H307 C320 0.960 . S
C308 H300 0.929 . S
C308 C309 1.377 . S
C308 C310 1.384 . S
C309 C308 1.377 . S
C309 C315 1.390 . S
C310 H301 0.930 . S
C310 C308 1.384 . S
C310 C311 1.372 . S
C311 C310 1.372 . S
C311 C312 1.400 . S
C311 C316 1.490 . S
C312 H302 0.930 . S
C312 C311 1.400 . S
C312 C315 1.386 . S
H313 C329 0.930 . S
H314 C330 0.931 . S
C315 H303 0.929 . S
C315 C309 1.390 . S
C315 C312 1.386 . S
C316 C311 1.490 . S
C316 C318 1.395 . S
C316 C319 1.403 . S
H317 C323 0.930 . S
C318 H304 0.930 . S
C318 C316 1.395 . S
C318 C321 1.403 . S
C319 C316 1.403 . S
C319 C320 1.524 . S
C319 C323 1.400 . S
C320 H305 0.960 . S
C320 H306 0.960 . S
C320 H307 0.960 . S
C320 C319 1.524 . S
C321 C318 1.403 . S
C321 C322 1.392 . S
C321 C325 1.495 . S
C322 C321 1.392 . S
C322 C323 1.385 . S
C322 C324 1.478 . S
C323 H317 0.930 . S
C323 C319 1.400 . S
C323 C322 1.385 . S
C324 C322 1.478 . S
C324 C326 1.381 . S
C324 C330 1.383 1_655 S
C325 C321 1.495 . S
C325 H331 0.959 . S
C325 H332 0.961 . S
C325 H333 0.960 . S
C326 C324 1.381 . S
C326 C327 1.394 . S
C326 H334 0.930 . S
C327 C326 1.394 . S
C327 C328 1.383 1_655 S
C327 H335 0.929 . S
C328 C327 1.383 1_455 S
C328 C329 1.377 . S
C329 H313 0.930 . S
C329 C328 1.377 . S
C329 C330 1.379 . S
C330 H314 0.931 . S
C330 C324 1.383 1_455 S
C330 C329 1.379 . S
H331 C325 0.959 . S
H332 C325 0.961 . S
H333 C325 0.960 . S
H334 C326 0.930 . S
H335 C327 0.929 . S
H336 C344 0.929 . S
H337 C346 0.930 . S
H338 C348 0.930 . S
H339 C351 0.929 . S
H340 C354 0.930 . S
H341 C356 0.960 . S
H342 C356 0.960 1_565 S
H343 C356 0.960 1_565 S
C344 H336 0.929 . S
C344 C345 1.377 1_545 S
C344 C346 1.384 . S
C345 C344 1.377 1_565 S
C345 C351 1.390 . S
C346 H337 0.930 . S
C346 C344 1.384 . S
C346 C347 1.372 . S
C347 C346 1.372 . S
C347 C348 1.400 . S
C347 C352 1.490 . S
C348 H338 0.930 . S
C348 C347 1.400 . S
C348 C351 1.386 1_545 S
H349 C365 0.930 . S
H350 C366 0.931 . S
C351 H339 0.929 . S
C351 C345 1.390 . S
C351 C348 1.386 1_565 S
C352 C347 1.490 . S
C352 C354 1.395 . S
C352 C355 1.403 . S
H353 C359 0.930 . S
C354 H340 0.930 . S
C354 C352 1.395 . S
C354 C357 1.403 . S
C355 C352 1.403 . S
C355 C356 1.524 . S
C355 C359 1.400 . S
C356 H341 0.960 . S
C356 H342 0.960 1_545 S
C356 H343 0.960 1_545 S
C356 C355 1.524 . S
C357 C354 1.403 . S
C357 C358 1.392 . S
C357 C361 1.495 . S
C358 C357 1.392 . S
C358 C359 1.385 . S
C358 C360 1.478 . S
C359 H353 0.930 . S
C359 C355 1.400 . S
C359 C358 1.385 . S
C360 C358 1.478 . S
C360 C362 1.381 . S
C360 C366 1.383 . S
C361 C357 1.495 . S
C361 H367 0.959 . S
C361 H368 0.961 . S
C361 H369 0.960 . S
C362 C360 1.381 . S
C362 C363 1.394 . S
C362 H370 0.930 . S
C363 C362 1.394 . S
C363 C364 1.383 . S
C363 H371 0.929 . S
C364 C363 1.383 . S
C364 C365 1.377 . S
C365 H349 0.930 . S
C365 C364 1.377 . S
C365 C366 1.379 . S
C366 H350 0.931 . S
C366 C360 1.383 . S
C366 C365 1.379 . S
H367 C361 0.959 . S
H368 C361 0.961 . S
H369 C361 0.960 . S
H370 C362 0.930 . S
H371 C363 0.929 . S
H372 C380 0.929 . S
H373 C382 0.930 . S
H374 C384 0.930 . S
H375 C387 0.929 . S
H376 C390 0.930 . S
H377 C392 0.960 . S
H378 C392 0.960 . S
H379 C392 0.960 . S
C380 H372 0.929 . S
C380 C381 1.377 . S
C380 C382 1.384 . S
C381 C380 1.377 . S
C381 C387 1.390 . S
C382 H373 0.930 . S
C382 C380 1.384 . S
C382 C383 1.372 . S
C383 C382 1.372 . S
C383 C384 1.400 . S
C383 C388 1.490 . S
C384 H374 0.930 . S
C384 C383 1.400 . S
C384 C387 1.386 . S
H385 C401 0.930 . S
H386 C402 0.931 . S
C387 H375 0.929 . S
C387 C381 1.390 . S
C387 C384 1.386 . S
C388 C383 1.490 . S
C388 C390 1.395 . S
C388 C391 1.403 . S
H389 C395 0.930 . S
C390 H376 0.930 . S
C390 C388 1.395 . S
C390 C393 1.403 . S
C391 C388 1.403 . S
C391 C392 1.524 . S
C391 C395 1.400 . S
C392 H377 0.960 . S
C392 H378 0.960 . S
C392 H379 0.960 . S
C392 C391 1.524 . S
C393 C390 1.403 . S
C393 C394 1.392 . S
C393 C397 1.495 . S
C394 C393 1.392 . S
C394 C395 1.385 . S
C394 C396 1.478 . S
C395 H389 0.930 . S
C395 C391 1.400 . S
C395 C394 1.385 . S
C396 C394 1.478 . S
C396 C398 1.381 . S
C396 C402 1.383 1_455 S
C397 C393 1.495 . S
C397 H403 0.959 . S
C397 H404 0.961 . S
C397 H405 0.960 . S
C398 C396 1.381 . S
C398 C399 1.394 . S
C398 H406 0.930 . S
C399 C398 1.394 . S
C399 C400 1.383 1_455 S
C399 H407 0.929 . S
C400 C399 1.383 1_655 S
C400 C401 1.377 . S
C401 H385 0.930 . S
C401 C400 1.377 . S
C401 C402 1.379 . S
C402 H386 0.931 . S
C402 C396 1.383 1_655 S
C402 C401 1.379 . S
H403 C397 0.959 . S
H404 C397 0.961 . S
H405 C397 0.960 . S
H406 C398 0.930 . S
H407 C399 0.929 . S
H408 C416 0.929 . S
H409 C418 0.930 . S
H410 C420 0.930 . S
H411 C423 0.929 . S
H412 C426 0.930 . S
H413 C428 1.014 . S
H414 C428 0.929 1_556 S
H415 C428 0.951 1_556 S
C416 H408 0.929 . S
C416 C417 1.377 . S
C416 C418 1.384 . S
C417 C416 1.377 . S
C417 C423 1.390 . S
C418 H409 0.930 . S
C418 C416 1.384 . S
C418 C419 1.372 . S
C419 C418 1.372 . S
C419 C420 1.400 . S
C419 C424 1.490 . S
C420 H410 0.930 . S
C420 C419 1.400 . S
C420 C423 1.386 . S
H421 C437 0.930 . S
H422 C438 0.931 . S
C423 H411 0.929 . S
C423 C417 1.390 . S
C423 C420 1.386 . S
C424 C419 1.490 . S
C424 C426 1.395 . S
C424 C427 1.403 . S
H425 C431 0.930 . S
C426 H412 0.930 . S
C426 C424 1.395 . S
C426 C429 1.403 . S
C427 C424 1.403 . S
C427 C428 1.510 1_556 S
C427 C431 1.400 1_556 S
C428 H413 1.014 . S
C428 H414 0.929 1_554 S
C428 H415 0.951 1_554 S
C428 C427 1.510 1_554 S
C429 C426 1.403 . S
C429 C430 1.392 1_556 S
C429 C433 1.495 . S
C430 C429 1.392 1_554 S
C430 C431 1.385 . S
C430 C432 1.478 . S
C431 H425 0.930 . S
C431 C427 1.400 1_554 S
C431 C430 1.385 . S
C432 C430 1.478 . S
C432 C434 1.381 1_565 S
C432 C438 1.383 . S
C433 C429 1.495 . S
C433 H439 0.959 . S
C433 H440 0.961 . S
C433 H441 0.960 1_565 S
C434 C432 1.381 1_545 S
C434 C435 1.394 . S
C434 H442 0.930 . S
C435 C434 1.394 . S
C435 C436 1.383 . S
C435 H443 0.929 . S
C436 C435 1.383 . S
C436 C437 1.377 1_545 S
C437 H421 0.930 . S
C437 C436 1.377 1_565 S
C437 C438 1.379 . S
C438 H422 0.931 . S
C438 C432 1.383 . S
C438 C437 1.379 . S
H439 C433 0.959 . S
H440 C433 0.961 . S
H441 C433 0.960 1_545 S
H442 C434 0.930 . S
H443 C435 0.929 . S
H444 C452 0.929 . S
H445 C454 0.930 . S
H446 C456 0.930 . S
H447 C459 0.929 . S
H448 C462 0.930 . S
H449 C464 0.960 . S
H450 C464 0.960 . S
H451 C464 0.960 . S
C452 H444 0.929 . S
C452 C453 1.377 . S
C452 C454 1.384 . S
C453 C452 1.377 . S
C453 C459 1.390 . S
C454 H445 0.930 . S
C454 C452 1.384 . S
C454 C455 1.372 . S
C455 C454 1.372 . S
C455 C456 1.400 . S
C455 C460 1.490 . S
C456 H446 0.930 . S
C456 C455 1.400 . S
C456 C459 1.386 . S
H457 C473 0.930 . S
H458 C474 0.931 . S
C459 H447 0.929 . S
C459 C453 1.390 . S
C459 C456 1.386 . S
C460 C455 1.490 . S
C460 C462 1.395 . S
C460 C463 1.403 . S
H461 C467 0.930 . S
C462 H448 0.930 . S
C462 C460 1.395 . S
C462 C465 1.403 . S
C463 C460 1.403 . S
C463 C464 1.524 . S
C463 C467 1.400 1_554 S
C464 H449 0.960 . S
C464 H450 0.960 . S
C464 H451 0.960 . S
C464 C463 1.524 . S
C465 C462 1.403 . S
C465 C466 1.392 1_554 S
C465 C469 1.495 . S
C466 C465 1.392 1_556 S
C466 C467 1.385 . S
C466 C468 1.478 . S
C467 H461 0.930 . S
C467 C463 1.400 1_556 S
C467 C466 1.385 . S
C468 C466 1.478 . S
C468 C470 1.381 1_655 S
C468 C474 1.383 . S
C469 C465 1.495 . S
C469 H475 0.959 . S
C469 H476 0.961 1_554 S
C469 H477 0.960 . S
C470 C468 1.381 1_455 S
C470 C471 1.394 . S
C470 H478 0.930 . S
C471 C470 1.394 . S
C471 C472 1.383 . S
C471 H479 0.929 . S
C472 C471 1.383 . S
C472 C473 1.377 1_455 S
C473 H457 0.930 . S
C473 C472 1.377 1_655 S
C473 C474 1.379 . S
C474 H458 0.931 . S
C474 C468 1.383 . S
C474 C473 1.379 . S
H475 C469 0.959 . S
H476 C469 0.961 1_556 S
H477 C469 0.960 . S
H478 C470 0.930 . S
H479 C471 0.929 . S
H480 C488 0.929 . S
H481 C490 0.930 . S
H482 C492 0.930 . S
H483 C495 0.929 . S
H484 C498 0.930 . S
H485 C500 1.015 . S
H486 C500 0.959 . S
H487 C500 0.923 1_556 S
C488 H480 0.929 . S
C488 C489 1.377 . S
C488 C490 1.384 . S
C489 C488 1.377 . S
C489 C495 1.390 . S
C490 H481 0.930 . S
C490 C488 1.384 . S
C490 C491 1.372 . S
C491 C490 1.372 . S
C491 C492 1.400 . S
C491 C496 1.490 . S
C492 H482 0.930 . S
C492 C491 1.400 . S
C492 C495 1.386 . S
H493 C509 0.930 . S
H494 C510 0.931 . S
C495 H483 0.929 . S
C495 C489 1.390 . S
C495 C492 1.386 . S
C496 C491 1.490 . S
C496 C498 1.395 . S
C496 C499 1.403 . S
H497 C503 0.930 . S
C498 H484 0.930 . S
C498 C496 1.395 . S
C498 C501 1.403 . S
C499 C496 1.403 . S
C499 C500 1.510 1_556 S
C499 C503 1.400 1_556 S
C500 H485 1.015 . S
C500 H486 0.959 . S
C500 H487 0.923 1_554 S
C500 C499 1.510 1_554 S
C501 C498 1.403 . S
C501 C502 1.392 1_556 S
C501 C505 1.495 . S
C502 C501 1.392 1_554 S
C502 C503 1.385 . S
C502 C504 1.478 . S
C503 H497 0.930 . S
C503 C499 1.400 1_554 S
C503 C502 1.385 . S
C504 C502 1.478 . S
C504 C506 1.381 . S
C504 C510 1.383 . S
C505 C501 1.495 . S
C505 H511 0.959 . S
C505 H512 0.961 1_545 S
C505 H513 0.960 . S
C506 C504 1.381 . S
C506 C507 1.394 1_545 S
C506 H514 0.930 . S
C507 C506 1.394 1_565 S
C507 C508 1.383 . S
C507 H515 0.929 . S
C508 C507 1.383 . S
C508 C509 1.377 . S
C509 H493 0.930 . S
C509 C508 1.377 . S
C509 C510 1.379 1_565 S
C510 H494 0.931 . S
C510 C504 1.383 . S
C510 C509 1.379 1_545 S
H511 C505 0.959 . S
H512 C505 0.961 1_565 S
H513 C505 0.960 . S
H514 C506 0.930 . S
H515 C507 0.929 . S
H516 C524 0.929 . S
H517 C526 0.930 . S
H518 C528 0.930 . S
H519 C531 0.929 . S
H520 C534 0.930 . S
H521 C536 0.960 . S
H522 C536 0.960 . S
H523 C536 0.960 1_655 S
C524 H516 0.929 . S
C524 C525 1.377 1_455 S
C524 C526 1.384 . S
C525 C524 1.377 1_655 S
C525 C531 1.390 . S
C526 H517 0.930 . S
C526 C524 1.384 . S
C526 C527 1.372 . S
C527 C526 1.372 . S
C527 C528 1.400 1_455 S
C527 C532 1.490 . S
C528 H518 0.930 . S
C528 C527 1.400 1_655 S
C528 C531 1.386 . S
H529 C545 0.930 . S
H530 C546 0.931 . S
C531 H519 0.929 . S
C531 C525 1.390 . S
C531 C528 1.386 . S
C532 C527 1.490 . S
C532 C534 1.395 . S
C532 C535 1.403 1_556 S
H533 C539 0.930 . S
C534 H520 0.930 . S
C534 C532 1.395 . S
C534 C537 1.403 1_556 S
C535 C532 1.403 1_554 S
C535 C536 1.524 . S
C535 C539 1.400 . S
C536 H521 0.960 . S
C536 H522 0.960 . S
C536 H523 0.960 1_455 S
C536 C535 1.524 . S
C537 C534 1.403 1_554 S
C537 C538 1.392 . S
C537 C541 1.495 1_554 S
C538 C537 1.392 . S
C538 C539 1.385 . S
C538 C540 1.478 . S
C539 H533 0.930 . S
C539 C535 1.400 . S
C539 C538 1.385 . S
C540 C538 1.478 . S
C540 C542 1.381 . S
C540 C546 1.383 . S
C541 C537 1.495 1_556 S
C541 H547 0.959 . S
C541 H548 0.961 1_556 S
C541 H549 0.960 . S
C542 C540 1.381 . S
C542 C543 1.394 . S
C542 H550 0.930 . S
C543 C542 1.394 . S
C543 C544 1.383 . S
C543 H551 0.929 . S
C544 C543 1.383 . S
C544 C545 1.377 . S
C545 H529 0.930 . S
C545 C544 1.377 . S
C545 C546 1.379 . S
C546 H530 0.931 . S
C546 C540 1.383 . S
C546 C545 1.379 . S
H547 C541 0.959 . S
H548 C541 0.961 1_554 S
H549 C541 0.960 . S
H550 C542 0.930 . S
H551 C543 0.929 . S
H552 C560 0.929 . S
H553 C562 0.930 . S
H554 C564 0.930 . S
H555 C567 0.929 . S
H556 C570 0.930 . S
H557 C572 0.960 . S
H558 C572 0.960 . S
H559 C572 0.960 . S
C560 H552 0.929 . S
C560 C561 1.377 . S
C560 C562 1.384 . S
C561 C560 1.377 . S
C561 C567 1.390 . S
C562 H553 0.930 . S
C562 C560 1.384 . S
C562 C563 1.372 . S
C563 C562 1.372 . S
C563 C564 1.400 . S
C563 C568 1.490 . S
C564 H554 0.930 . S
C564 C563 1.400 . S
C564 C567 1.386 . S
H565 C581 0.930 . S
H566 C582 0.931 . S
C567 H555 0.929 . S
C567 C561 1.390 . S
C567 C564 1.386 . S
C568 C563 1.490 . S
C568 C570 1.395 . S
C568 C571 1.403 1_565 S
H569 C575 0.930 . S
C570 H556 0.930 . S
C570 C568 1.395 . S
C570 C573 1.403 . S
C571 C568 1.403 1_545 S
C571 C572 1.524 . S
C571 C575 1.400 . S
C572 H557 0.960 . S
C572 H558 0.960 . S
C572 H559 0.960 . S
C572 C571 1.524 . S
C573 C570 1.403 . S
C573 C574 1.392 1_565 S
C573 C577 1.495 . S
C574 C573 1.392 1_545 S
C574 C575 1.385 . S
C574 C576 1.478 . S
C575 H569 0.930 . S
C575 C571 1.400 . S
C575 C574 1.385 . S
C576 C574 1.478 . S
C576 C578 1.381 . S
C576 C582 1.383 . S
C577 C573 1.495 . S
C577 H583 0.959 . S
C577 H584 0.961 . S
C577 H585 0.960 . S
C578 C576 1.381 . S
C578 C579 1.394 . S
C578 H586 0.930 . S
C579 C578 1.394 . S
C579 C580 1.383 . S
C579 H587 0.929 . S
C580 C579 1.383 . S
C580 C581 1.377 . S
C581 H565 0.930 . S
C581 C580 1.377 . S
C581 C582 1.379 . S
C582 H566 0.931 . S
C582 C576 1.383 . S
C582 C581 1.379 . S
H583 C577 0.959 . S
H584 C577 0.961 . S
H585 C577 0.960 . S
H586 C578 0.930 . S
H587 C579 0.929 . S
H588 C596 0.929 . S
H589 C598 0.930 . S
H590 C600 0.930 . S
H591 C603 0.929 . S
H592 C606 0.930 . S
H593 C608 0.960 . S
H594 C608 0.960 . S
H595 C608 0.960 . S
C596 H588 0.929 . S
C596 C597 1.377 . S
C596 C598 1.384 . S
C597 C596 1.377 . S
C597 C603 1.390 . S
C598 H589 0.930 . S
C598 C596 1.384 . S
C598 C599 1.372 . S
C599 C598 1.372 . S
C599 C600 1.400 . S
C599 C604 1.490 . S
C600 H590 0.930 . S
C600 C599 1.400 . S
C600 C603 1.386 . S
H601 C617 0.930 . S
H602 C618 0.931 . S
C603 H591 0.929 . S
C603 C597 1.390 . S
C603 C600 1.386 . S
C604 C599 1.490 . S
C604 C606 1.395 1_455 S
C604 C607 1.403 . S
H605 C611 0.930 . S
C606 H592 0.930 . S
C606 C604 1.395 1_655 S
C606 C609 1.403 . S
C607 C604 1.403 . S
C607 C608 1.524 . S
C607 C611 1.400 . S
C608 H593 0.960 . S
C608 H594 0.960 . S
C608 H595 0.960 . S
C608 C607 1.524 . S
C609 C606 1.403 . S
C609 C610 1.392 . S
C609 C613 1.495 . S
C610 C609 1.392 . S
C610 C611 1.385 1_655 S
C610 C612 1.478 . S
C611 H605 0.930 . S
C611 C607 1.400 . S
C611 C610 1.385 1_455 S
C612 C610 1.478 . S
C612 C614 1.381 . S
C612 C618 1.383 . S
C613 C609 1.495 . S
C613 H619 0.959 . S
C613 H620 0.961 . S
C613 H621 0.960 . S
C614 C612 1.381 . S
C614 C615 1.394 . S
C614 H622 0.930 . S
C615 C614 1.394 . S
C615 C616 1.383 . S
C615 H623 0.929 . S
C616 C615 1.383 . S
C616 C617 1.377 . S
C617 H601 0.930 . S
C617 C616 1.377 . S
C617 C618 1.379 . S
C618 H602 0.931 . S
C618 C612 1.383 . S
C618 C617 1.379 . S
H619 C613 0.959 . S
H620 C613 0.961 . S
H621 C613 0.960 . S
H622 C614 0.930 . S
H623 C615 0.929 . S
H624 C632 0.929 . S
H625 C634 0.930 . S
H626 C636 0.930 . S
H627 C639 0.929 . S
H628 C642 0.930 . S
H629 C644 0.960 . S
H630 C644 0.960 . S
H631 C644 0.960 . S
C632 H624 0.929 . S
C632 C633 1.377 . S
C632 C634 1.384 . S
C633 C632 1.377 . S
C633 C639 1.390 . S
C634 H625 0.930 . S
C634 C632 1.384 . S
C634 C635 1.372 . S
C635 C634 1.372 . S
C635 C636 1.400 . S
C635 C640 1.490 . S
C636 H626 0.930 . S
C636 C635 1.400 . S
C636 C639 1.386 . S
H637 C653 0.930 . S
H638 C654 0.931 . S
C639 H627 0.929 . S
C639 C633 1.390 . S
C639 C636 1.386 . S
C640 C635 1.490 . S
C640 C642 1.395 . S
C640 C643 1.403 1_545 S
H641 C647 0.930 . S
C642 H628 0.930 . S
C642 C640 1.395 . S
C642 C645 1.403 . S
C643 C640 1.403 1_565 S
C643 C644 1.524 . S
C643 C647 1.400 . S
C644 H629 0.960 . S
C644 H630 0.960 . S
C644 H631 0.960 . S
C644 C643 1.524 . S
C645 C642 1.403 . S
C645 C646 1.392 1_545 S
C645 C649 1.495 . S
C646 C645 1.392 1_565 S
C646 C647 1.385 . S
C646 C648 1.478 . S
C647 H641 0.930 . S
C647 C643 1.400 . S
C647 C646 1.385 . S
C648 C646 1.478 . S
C648 C650 1.381 . S
C648 C654 1.383 . S
C649 C645 1.495 . S
C649 H655 0.959 . S
C649 H656 0.961 . S
C649 H657 0.960 . S
C650 C648 1.381 . S
C650 C651 1.394 . S
C650 H658 0.930 . S
C651 C650 1.394 . S
C651 C652 1.383 . S
C651 H659 0.929 . S
C652 C651 1.383 . S
C652 C653 1.377 . S
C653 H637 0.930 . S
C653 C652 1.377 . S
C653 C654 1.379 . S
C654 H638 0.931 . S
C654 C648 1.383 . S
C654 C653 1.379 . S
H655 C649 0.959 . S
H656 C649 0.961 . S
H657 C649 0.960 . S
H658 C650 0.930 . S
H659 C651 0.929 . S
H660 C668 0.929 . S
H661 C670 0.930 . S
H662 C672 0.930 . S
H663 C675 0.929 . S
H664 C678 0.930 . S
H665 C680 0.960 . S
H666 C680 0.960 . S
H667 C680 0.960 1_455 S
C668 H660 0.929 . S
C668 C669 1.377 . S
C668 C670 1.384 . S
C669 C668 1.377 . S
C669 C675 1.390 . S
C670 H661 0.930 . S
C670 C668 1.384 . S
C670 C671 1.372 . S
C671 C670 1.372 . S
C671 C672 1.400 . S
C671 C676 1.490 . S
C672 H662 0.930 . S
C672 C671 1.400 . S
C672 C675 1.386 . S
H673 C689 0.930 . S
H674 C690 0.931 . S
C675 H663 0.929 . S
C675 C669 1.390 . S
C675 C672 1.386 . S
C676 C671 1.490 . S
C676 C678 1.395 . S
C676 C679 1.398 1_455 S
H677 C683 0.930 . S
C678 H664 0.930 . S
C678 C676 1.395 . S
C678 C681 1.403 1_455 S
C679 C676 1.398 1_655 S
C679 C680 1.524 . S
C679 C683 1.404 . S
C680 H665 0.960 . S
C680 H666 0.960 . S
C680 H667 0.960 1_655 S
C680 C679 1.524 . S
C681 C678 1.403 1_655 S
C681 C682 1.392 . S
C681 C685 1.495 . S
C682 C681 1.392 . S
C682 C683 1.385 . S
C682 C684 1.478 . S
C683 H677 0.930 . S
C683 C679 1.404 . S
C683 C682 1.385 . S
C684 C682 1.478 . S
C684 C686 1.381 . S
C684 C690 1.383 . S
C685 C681 1.495 . S
C685 H691 0.956 1_655 S
C685 H692 0.958 1_655 S
C685 H693 0.966 . S
C686 C684 1.381 . S
C686 C687 1.394 . S
C686 H694 0.930 . S
C687 C686 1.394 . S
C687 C688 1.383 . S
C687 H695 0.929 . S
C688 C687 1.383 . S
C688 C689 1.377 . S
C689 H673 0.930 . S
C689 C688 1.377 . S
C689 C690 1.379 . S
C690 H674 0.931 . S
C690 C684 1.383 . S
C690 C689 1.379 . S
H691 C685 0.956 1_455 S
H692 C685 0.958 1_455 S
H693 C685 0.966 . S
H694 C686 0.930 . S
H695 C687 0.929 . S
H696 C704 0.929 . S
H697 C706 0.930 . S
H698 C708 0.930 1_565 S
H699 C711 0.918 1_565 S
H700 C714 0.930 . S
H701 C716 0.960 . S
H702 C716 0.948 1_545 S
H703 C716 0.960 . S
C704 H696 0.929 . S
C704 C705 1.377 . S
C704 C706 1.384 . S
C705 C704 1.377 . S
C705 C711 1.390 . S
C706 H697 0.930 . S
C706 C704 1.384 . S
C706 C707 1.372 . S
C707 C706 1.372 . S
C707 C708 1.400 . S
C707 C712 1.490 . S
C708 H698 0.930 1_545 S
C708 C707 1.400 . S
C708 C711 1.386 . S
H709 C725 0.930 . S
H710 C726 0.931 . S
C711 H699 0.918 1_545 S
C711 C705 1.390 . S
C711 C708 1.386 . S
C712 C707 1.490 . S
C712 C714 1.395 . S
C712 C715 1.403 1_545 S
H713 C719 0.930 . S
C714 H700 0.930 . S
C714 C712 1.395 . S
C714 C717 1.403 1_455 S
C715 C712 1.403 1_565 S
C715 C716 1.524 . S
C715 C719 1.400 1_455 S
C716 H701 0.960 . S
C716 H702 0.948 1_565 S
C716 H703 0.960 . S
C716 C715 1.524 . S
C717 C714 1.403 1_655 S
C717 C718 1.392 1_545 S
C717 C721 1.495 . S
C718 C717 1.392 1_565 S
C718 C719 1.385 . S
C718 C720 1.478 . S
C719 H713 0.930 . S
C719 C715 1.400 1_655 S
C719 C718 1.385 . S
C720 C718 1.478 . S
C720 C722 1.393 . S
C720 C726 1.383 . S
C721 C717 1.495 . S
C721 H727 0.959 . S
C721 H728 0.961 . S
C721 H729 0.960 . S
C722 C720 1.393 . S
C722 C723 1.402 . S
C722 H730 0.911 1_565 S
C723 C722 1.402 . S
C723 C724 1.383 . S
C723 H731 0.919 1_565 S
C724 C723 1.383 . S
C724 C725 1.377 . S
C725 H709 0.930 . S
C725 C724 1.377 . S
C725 C726 1.379 . S
C726 H710 0.931 . S
C726 C720 1.383 . S
C726 C725 1.379 . S
H727 C721 0.959 . S
H728 C721 0.961 . S
H729 C721 0.960 . S
H730 C722 0.911 1_545 S
H731 C723 0.919 1_545 S
H732 C740 0.929 . S
H733 C742 0.930 . S
H734 C744 0.930 1_655 S
H735 C747 0.929 . S
H736 C750 0.930 . S
H737 C752 0.960 . S
H738 C752 0.960 . S
H739 C752 0.960 . S
C740 H732 0.929 . S
C740 C741 1.377 . S
C740 C742 1.384 . S
C741 C740 1.377 . S
C741 C747 1.390 . S
C742 H733 0.930 . S
C742 C740 1.384 . S
C742 C743 1.372 . S
C743 C742 1.372 . S
C743 C744 1.400 . S
C743 C748 1.490 . S
C744 H734 0.930 1_455 S
C744 C743 1.400 . S
C744 C747 1.386 . S
H745 C761 0.930 . S
H746 C762 0.931 . S
C747 H735 0.929 . S
C747 C741 1.390 . S
C747 C744 1.386 . S
C748 C743 1.490 . S
C748 C750 1.395 . S
C748 C751 1.403 1_455 S
H749 C755 0.930 . S
C750 H736 0.930 . S
C750 C748 1.395 . S
C750 C753 1.403 1_565 S
C751 C748 1.403 1_655 S
C751 C752 1.524 . S
C751 C755 1.400 1_565 S
C752 H737 0.960 . S
C752 H738 0.960 . S
C752 H739 0.960 . S
C752 C751 1.524 . S
C753 C750 1.403 1_545 S
C753 C754 1.392 1_455 S
C753 C757 1.495 . S
C754 C753 1.392 1_655 S
C754 C755 1.385 . S
C754 C756 1.478 . S
C755 H749 0.930 . S
C755 C751 1.400 1_545 S
C755 C754 1.385 . S
C756 C754 1.478 . S
C756 C758 1.381 . S
C756 C762 1.383 . S
C757 C753 1.495 . S
C757 H763 0.959 . S
C757 H764 0.961 . S
C757 H765 0.960 . S
C758 C756 1.381 . S
C758 C759 1.394 . S
C758 H766 0.930 1_655 S
C759 C758 1.394 . S
C759 C760 1.383 . S
C759 H767 0.929 . S
C760 C759 1.383 . S
C760 C761 1.377 . S
C761 H745 0.930 . S
C761 C760 1.377 . S
C761 C762 1.379 . S
C762 H746 0.931 . S
C762 C756 1.383 . S
C762 C761 1.379 . S
H763 C757 0.959 . S
H764 C757 0.961 . S
H765 C757 0.960 . S
H766 C758 0.930 1_455 S
H767 C759 0.929 . S
H768 C776 0.929 . S
H769 C778 0.930 . S
H770 C780 0.930 . S
H771 C783 0.929 . S
H772 C786 0.930 . S
H773 C788 0.960 . S
H774 C788 0.960 . S
H775 C788 0.960 . S
C776 H768 0.929 . S
C776 C777 1.377 . S
C776 C778 1.384 . S
C777 C776 1.377 . S
C777 C783 1.390 . S
C778 H769 0.930 . S
C778 C776 1.384 . S
C778 C779 1.372 . S
C779 C778 1.372 . S
C779 C780 1.400 . S
C779 C784 1.490 . S
C780 H770 0.930 . S
C780 C779 1.400 . S
C780 C783 1.386 . S
H781 C797 0.930 . S
H782 C798 0.931 . S
C783 H771 0.929 . S
C783 C777 1.390 . S
C783 C780 1.386 . S
C784 C779 1.490 . S
C784 C786 1.395 . S
C784 C787 1.403 1_565 S
H785 C791 0.930 . S
C786 H772 0.930 . S
C786 C784 1.395 . S
C786 C789 1.403 1_455 S
C787 C784 1.403 1_545 S
C787 C788 1.524 . S
C787 C791 1.400 1_455 S
C788 H773 0.960 . S
C788 H774 0.960 . S
C788 H775 0.960 . S
C788 C787 1.524 . S
C789 C786 1.403 1_655 S
C789 C790 1.392 1_565 S
C789 C793 1.495 . S
C790 C789 1.392 1_545 S
C790 C791 1.385 . S
C790 C792 1.478 . S
C791 H785 0.930 . S
C791 C787 1.400 1_655 S
C791 C790 1.385 . S
C792 C790 1.478 . S
C792 C794 1.381 . S
C792 C798 1.383 . S
C793 C789 1.495 . S
C793 H799 0.959 . S
C793 H800 0.961 . S
C793 H801 0.960 . S
C794 C792 1.381 . S
C794 C795 1.394 . S
C794 H802 0.930 . S
C795 C794 1.394 . S
C795 C796 1.383 . S
C795 H803 0.929 . S
C796 C795 1.383 . S
C796 C797 1.377 . S
C797 H781 0.930 . S
C797 C796 1.377 . S
C797 C798 1.379 . S
C798 H782 0.931 . S
C798 C792 1.383 . S
C798 C797 1.379 . S
H799 C793 0.959 . S
H800 C793 0.961 . S
H801 C793 0.960 . S
H802 C794 0.930 . S
H803 C795 0.929 . S
H804 C812 0.929 . S
H805 C814 0.930 . S
H806 C816 0.930 1_455 S
H807 C819 0.941 . S
H808 C822 0.930 . S
H809 C824 0.960 . S
H810 C824 0.960 1_655 S
H811 C824 0.960 . S
C812 H804 0.929 . S
C812 C813 1.377 . S
C812 C814 1.384 . S
C813 C812 1.377 . S
C813 C819 1.390 . S
C814 H805 0.930 . S
C814 C812 1.384 . S
C814 C815 1.372 . S
C815 C814 1.372 . S
C815 C816 1.400 . S
C815 C820 1.490 . S
C816 H806 0.930 1_655 S
C816 C815 1.400 . S
C816 C819 1.386 . S
H817 C833 0.930 . S
H818 C834 0.931 . S
C819 H807 0.941 . S
C819 C813 1.390 . S
C819 C816 1.386 . S
C820 C815 1.490 . S
C820 C822 1.395 . S
C820 C823 1.392 1_655 S
H821 C827 0.930 . S
C822 H808 0.930 . S
C822 C820 1.395 . S
C822 C825 1.403 1_565 S
C823 C820 1.392 1_455 S
C823 C824 1.526 . S
C823 C827 1.409 1_565 S
C824 H809 0.960 . S
C824 H810 0.960 1_455 S
C824 H811 0.960 . S
C824 C823 1.526 . S
C825 C822 1.403 1_545 S
C825 C826 1.392 1_655 S
C825 C829 1.495 . S
C826 C825 1.392 1_455 S
C826 C827 1.385 . S
C826 C828 1.478 . S
C827 H821 0.930 . S
C827 C823 1.409 1_545 S
C827 C826 1.385 . S
C828 C826 1.478 . S
C828 C830 1.381 . S
C828 C834 1.383 . S
C829 C825 1.495 . S
C829 H835 0.959 . S
C829 H836 0.961 1_655 S
C829 H837 0.960 . S
C830 C828 1.381 . S
C830 C831 1.394 . S
C830 H838 0.930 1_455 S
C831 C830 1.394 . S
C831 C832 1.383 . S
C831 H839 0.922 1_455 S
C832 C831 1.383 . S
C832 C833 1.377 . S
C833 H817 0.930 . S
C833 C832 1.377 . S
C833 C834 1.379 . S
C834 H818 0.931 . S
C834 C828 1.383 . S
C834 C833 1.379 . S
H835 C829 0.959 . S
H836 C829 0.961 1_455 S
H837 C829 0.960 . S
H838 C830 0.930 1_655 S
H839 C831 0.922 1_655 S
H840 C848 0.929 . S
H841 C850 0.930 . S
H842 C852 0.930 . S
H843 C855 0.929 . S
H844 C858 0.930 . S
H845 C860 0.960 . S
H846 C860 0.960 . S
H847 C860 0.960 . S
C848 H840 0.929 . S
C848 C849 1.377 . S
C848 C850 1.384 . S
C849 C848 1.377 . S
C849 C855 1.390 . S
C850 H841 0.930 . S
C850 C848 1.384 . S
C850 C851 1.372 . S
C851 C850 1.372 . S
C851 C852 1.400 . S
C851 C856 1.490 . S
C852 H842 0.930 . S
C852 C851 1.400 . S
C852 C855 1.386 . S
H853 C869 0.930 . S
H854 C870 0.931 . S
C855 H843 0.929 . S
C855 C849 1.390 . S
C855 C852 1.386 . S
C856 C851 1.490 . S
C856 C858 1.395 . S
C856 C859 1.403 . S
H857 C863 0.930 . S
C858 H844 0.930 . S
C858 C856 1.395 . S
C858 C861 1.403 . S
C859 C856 1.403 . S
C859 C860 1.524 . S
C859 C863 1.400 . S
C860 H845 0.960 . S
C860 H846 0.960 . S
C860 H847 0.960 . S
C860 C859 1.524 . S
C861 C858 1.403 . S
C861 C862 1.392 . S
C861 C865 1.495 . S
C862 C861 1.392 . S
C862 C863 1.385 . S
C862 C864 1.478 . S
C863 H857 0.930 . S
C863 C859 1.400 . S
C863 C862 1.385 . S
C864 C862 1.478 . S
C864 C866 1.381 . S
C864 C870 1.383 . S
C865 C861 1.495 . S
C865 H871 0.959 . S
C865 H872 0.961 . S
C865 H873 0.960 . S
C866 C864 1.381 . S
C866 C867 1.394 . S
C866 H874 0.930 . S
C867 C866 1.394 . S
C867 C868 1.383 . S
C867 H875 0.929 . S
C868 C867 1.383 . S
C868 C869 1.377 . S
C869 H853 0.930 . S
C869 C868 1.377 . S
C869 C870 1.379 . S
C870 H854 0.931 . S
C870 C864 1.383 . S
C870 C869 1.379 . S
H871 C865 0.959 . S
H872 C865 0.961 . S
H873 C865 0.960 . S
H874 C866 0.930 . S
H875 C867 0.929 . S
H876 C884 0.929 . S
H877 C886 0.930 . S
H878 C888 0.930 . S
H879 C891 0.929 . S
H880 C894 0.930 . S
H881 C896 0.960 . S
H882 C896 0.960 . S
H883 C896 0.960 . S
C884 H876 0.929 . S
C884 C885 1.377 . S
C884 C886 1.384 . S
C885 C884 1.377 . S
C885 C891 1.390 . S
C886 H877 0.930 . S
C886 C884 1.384 . S
C886 C887 1.372 . S
C887 C886 1.372 . S
C887 C888 1.400 . S
C887 C892 1.490 . S
C888 H878 0.930 . S
C888 C887 1.400 . S
C888 C891 1.386 . S
H889 C905 0.930 . S
H890 C906 0.931 . S
C891 H879 0.929 . S
C891 C885 1.390 . S
C891 C888 1.386 . S
C892 C887 1.490 . S
C892 C894 1.395 . S
C892 C895 1.403 . S
H893 C899 0.930 . S
C894 H880 0.930 . S
C894 C892 1.395 . S
C894 C897 1.403 . S
C895 C892 1.403 . S
C895 C896 1.524 . S
C895 C899 1.400 . S
C896 H881 0.960 . S
C896 H882 0.960 . S
C896 H883 0.960 . S
C896 C895 1.524 . S
C897 C894 1.403 . S
C897 C898 1.392 . S
C897 C901 1.495 . S
C898 C897 1.392 . S
C898 C899 1.385 . S
C898 C900 1.478 . S
C899 H893 0.930 . S
C899 C895 1.400 . S
C899 C898 1.385 . S
C900 C898 1.478 . S
C900 C902 1.381 . S
C900 C906 1.383 . S
C901 C897 1.495 . S
C901 H907 0.959 . S
C901 H908 0.961 . S
C901 H909 0.960 . S
C902 C900 1.381 . S
C902 C903 1.394 . S
C902 H910 0.930 . S
C903 C902 1.394 . S
C903 C904 1.383 . S
C903 H911 0.929 . S
C904 C903 1.383 . S
C904 C905 1.377 . S
C905 H889 0.930 . S
C905 C904 1.377 . S
C905 C906 1.379 . S
C906 H890 0.931 . S
C906 C900 1.383 . S
C906 C905 1.379 . S
H907 C901 0.959 . S
H908 C901 0.961 . S
H909 C901 0.960 . S
H910 C902 0.930 . S
H911 C903 0.929 . S
H912 C920 0.929 . S
H913 C922 0.930 . S
H914 C924 0.930 . S
H915 C927 0.929 . S
H916 C930 0.930 . S
H917 C932 0.960 . S
H918 C932 0.960 . S
H919 C932 0.960 . S
C920 H912 0.929 . S
C920 C921 1.377 . S
C920 C922 1.384 . S
C921 C920 1.377 . S
C921 C927 1.390 . S
C922 H913 0.930 . S
C922 C920 1.384 . S
C922 C923 1.372 . S
C923 C922 1.372 . S
C923 C924 1.400 . S
C923 C928 1.490 . S
C924 H914 0.930 . S
C924 C923 1.400 . S
C924 C927 1.386 . S
H925 C941 0.930 . S
H926 C942 0.931 . S
C927 H915 0.929 . S
C927 C921 1.390 . S
C927 C924 1.386 . S
C928 C923 1.490 . S
C928 C930 1.395 . S
C928 C931 1.403 . S
H929 C935 0.930 . S
C930 H916 0.930 . S
C930 C928 1.395 . S
C930 C933 1.403 . S
C931 C928 1.403 . S
C931 C932 1.524 . S
C931 C935 1.400 . S
C932 H917 0.960 . S
C932 H918 0.960 . S
C932 H919 0.960 . S
C932 C931 1.524 . S
C933 C930 1.403 . S
C933 C934 1.392 . S
C933 C937 1.495 . S
C934 C933 1.392 . S
C934 C935 1.385 . S
C934 C936 1.478 . S
C935 H929 0.930 . S
C935 C931 1.400 . S
C935 C934 1.385 . S
C936 C934 1.478 . S
C936 C938 1.381 . S
C936 C942 1.383 . S
C937 C933 1.495 . S
C937 H943 0.959 . S
C937 H944 0.961 . S
C937 H945 0.960 . S
C938 C936 1.381 . S
C938 C939 1.394 . S
C938 H946 0.930 . S
C939 C938 1.394 . S
C939 C940 1.383 . S
C939 H947 0.929 . S
C940 C939 1.383 . S
C940 C941 1.377 . S
C941 H925 0.930 . S
C941 C940 1.377 . S
C941 C942 1.379 . S
C942 H926 0.931 . S
C942 C936 1.383 . S
C942 C941 1.379 . S
H943 C937 0.959 . S
H944 C937 0.961 . S
H945 C937 0.960 . S
H946 C938 0.930 . S
H947 C939 0.929 . S
H948 C956 0.929 . S
H949 C958 0.930 . S
H950 C960 0.930 . S
H951 C963 0.929 . S
H952 C966 0.930 . S
H953 C968 0.960 . S
H954 C968 0.960 . S
H955 C968 0.960 . S
C956 H948 0.929 . S
C956 C957 1.377 . S
C956 C958 1.384 . S
C957 C956 1.377 . S
C957 C963 1.390 . S
C958 H949 0.930 . S
C958 C956 1.384 . S
C958 C959 1.372 . S
C959 C958 1.372 . S
C959 C960 1.400 . S
C959 C964 1.490 . S
C960 H950 0.930 . S
C960 C959 1.400 . S
C960 C963 1.386 . S
H961 C977 0.930 . S
H962 C978 0.931 . S
C963 H951 0.929 . S
C963 C957 1.390 . S
C963 C960 1.386 . S
C964 C959 1.490 . S
C964 C966 1.395 . S
C964 C967 1.403 . S
H965 C971 0.930 . S
C966 H952 0.930 . S
C966 C964 1.395 . S
C966 C969 1.403 . S
C967 C964 1.403 . S
C967 C968 1.524 . S
C967 C971 1.400 . S
C968 H953 0.960 . S
C968 H954 0.960 . S
C968 H955 0.960 . S
C968 C967 1.524 . S
C969 C966 1.403 . S
C969 C970 1.392 . S
C969 C973 1.495 . S
C970 C969 1.392 . S
C970 C971 1.385 . S
C970 C972 1.478 . S
C971 H965 0.930 . S
C971 C967 1.400 . S
C971 C970 1.385 . S
C972 C970 1.478 . S
C972 C974 1.381 . S
C972 C978 1.383 . S
C973 C969 1.495 . S
C973 H979 0.959 . S
C973 H980 0.961 . S
C973 H981 0.960 . S
C974 C972 1.381 . S
C974 C975 1.394 . S
C974 H982 0.930 . S
C975 C974 1.394 . S
C975 C976 1.383 . S
C975 H983 0.929 . S
C976 C975 1.383 . S
C976 C977 1.377 . S
C977 H961 0.930 . S
C977 C976 1.377 . S
C977 C978 1.379 . S
C978 H962 0.931 . S
C978 C972 1.383 . S
C978 C977 1.379 . S
H979 C973 0.959 . S
H980 C973 0.961 . S
H981 C973 0.960 . S
H982 C974 0.930 . S
H983 C975 0.929 . S
C273 N2 0.658 . S
C292 C54 0.607 . S
C309 C87 0.715 . S
C328 N35 0.708 . S
C345 N68 0.654 . S
C364 C120 0.714 . S
C381 C21 0.705 . S
C400 N101 0.719 . S
C417 C252 0.680 . S
C436 N134 0.650 . S
C453 C153 0.707 . S
C472 N167 0.719 . S
C489 C186 0.692 . S
C508 N200 0.701 . S
C525 N233 0.652 . S
C544 C219 0.666 . S
C561 C84 1.497 . S
C580 C18 1.484 . S
C597 C51 1.499 . S
C616 C117 1.516 . S
C633 C150 1.504 . S
C652 C216 1.479 . S
C669 C183 1.498 . S
C688 C249 1.481 . S
C705 C7 0.597 . S
C724 C73 0.560 . S
C741 C40 0.579 . S
C760 C106 0.647 . S
C777 C205 0.591 . S
C796 C139 0.595 . S
C813 C238 0.593 . S
C832 C172 0.545 . S
C849 N13 1.653 . S
C868 N178 1.640 . S
C885 N211 1.659 . S
C904 N46 1.631 . S
C921 N244 1.652 . S
C940 N79 1.673 . S
C957 N112 1.664 . S
C976 N145 1.623 . S
