# Generated by pormake.
# Topology uma, (4)-cn, num edge types: 1
# Building blocks:
#     Node 0, Type 0, BuildingBlock: KOZSID_clean_sbu_0, # of connection points: 4
#     Node 1, Type 0, BuildingBlock: KOZSID_clean_sbu_0, # of connection points: 4
#     Node 2, Type 0, BuildingBlock: KOZSID_clean_sbu_0, # of connection points: 4
#     Node 3, Type 0, BuildingBlock: KOZSID_clean_sbu_0, # of connection points: 4
#     Node 4, Type 0, BuildingBlock: KOZSID_clean_sbu_0, # of connection points: 4
#     Node 5, Type 0, BuildingBlock: KOZSID_clean_sbu_0, # of connection points: 4
#     Node 6, Type 0, BuildingBlock: KOZSID_clean_sbu_0, # of connection points: 4
#     Node 7, Type 0, BuildingBlock: KOZSID_clean_sbu_0, # of connection points: 4
#     Node 8, Type 0, BuildingBlock: KOZSID_clean_sbu_0, # of connection points: 4
#     Node 9, Type 0, BuildingBlock: KOZSID_clean_sbu_0, # of connection points: 4
#     Node 10, Type 0, BuildingBlock: KOZSID_clean_sbu_0, # of connection points: 4
#     Node 11, Type 0, BuildingBlock: KOZSID_clean_sbu_0, # of connection points: 4
#     Node 12, Type 0, BuildingBlock: KOZSID_clean_sbu_0, # of connection points: 4
#     Node 13, Type 0, BuildingBlock: KOZSID_clean_sbu_0, # of connection points: 4
#     Node 14, Type 0, BuildingBlock: KOZSID_clean_sbu_0, # of connection points: 4
#     Node 15, Type 0, BuildingBlock: KOZSID_clean_sbu_0, # of connection points: 4
#     Node 16, Type 0, BuildingBlock: KOZSID_clean_sbu_0, # of connection points: 4
#     Node 17, Type 0, BuildingBlock: KOZSID_clean_sbu_0, # of connection points: 4
#     Node 18, Type 0, BuildingBlock: KOZSID_clean_sbu_0, # of connection points: 4
#     Node 19, Type 0, BuildingBlock: KOZSID_clean_sbu_0, # of connection points: 4
#     Node 20, Type 0, BuildingBlock: KOZSID_clean_sbu_0, # of connection points: 4
#     Node 21, Type 0, BuildingBlock: KOZSID_clean_sbu_0, # of connection points: 4
#     Node 22, Type 0, BuildingBlock: KOZSID_clean_sbu_0, # of connection points: 4
#     Node 23, Type 0, BuildingBlock: KOZSID_clean_sbu_0, # of connection points: 4
#     Node 24, Type 0, BuildingBlock: KOZSID_clean_sbu_0, # of connection points: 4
#     Node 25, Type 0, BuildingBlock: KOZSID_clean_sbu_0, # of connection points: 4
#     Node 26, Type 0, BuildingBlock: KOZSID_clean_sbu_0, # of connection points: 4
#     Node 27, Type 0, BuildingBlock: KOZSID_clean_sbu_0, # of connection points: 4
#     Node 28, Type 0, BuildingBlock: KOZSID_clean_sbu_0, # of connection points: 4
#     Node 29, Type 0, BuildingBlock: KOZSID_clean_sbu_0, # of connection points: 4
#     Node 30, Type 0, BuildingBlock: KOZSID_clean_sbu_0, # of connection points: 4
#     Node 31, Type 0, BuildingBlock: KOZSID_clean_sbu_0, # of connection points: 4
#     Node 32, Type 0, BuildingBlock: KOZSID_clean_sbu_0, # of connection points: 4
#     Node 33, Type 0, BuildingBlock: KOZSID_clean_sbu_0, # of connection points: 4
#     Node 34, Type 0, BuildingBlock: KOZSID_clean_sbu_0, # of connection points: 4
#     Node 35, Type 0, BuildingBlock: KOZSID_clean_sbu_0, # of connection points: 4
#     Edge 36, Type (0, 0), BuildingBlock: XUDNAN_clean_linker_2, # of connection points: 2
#     Edge 37, Type (0, 0), BuildingBlock: XUDNAN_clean_linker_2, # of connection points: 2
#     Edge 38, Type (0, 0), BuildingBlock: XUDNAN_clean_linker_2, # of connection points: 2
#     Edge 39, Type (0, 0), BuildingBlock: XUDNAN_clean_linker_2, # of connection points: 2
#     Edge 40, Type (0, 0), BuildingBlock: XUDNAN_clean_linker_2, # of connection points: 2
#     Edge 41, Type (0, 0), BuildingBlock: XUDNAN_clean_linker_2, # of connection points: 2
#     Edge 42, Type (0, 0), BuildingBlock: XUDNAN_clean_linker_2, # of connection points: 2
#     Edge 43, Type (0, 0), BuildingBlock: XUDNAN_clean_linker_2, # of connection points: 2
#     Edge 44, Type (0, 0), BuildingBlock: XUDNAN_clean_linker_2, # of connection points: 2
#     Edge 45, Type (0, 0), BuildingBlock: XUDNAN_clean_linker_2, # of connection points: 2
#     Edge 46, Type (0, 0), BuildingBlock: XUDNAN_clean_linker_2, # of connection points: 2
#     Edge 47, Type (0, 0), BuildingBlock: XUDNAN_clean_linker_2, # of connection points: 2
#     Edge 48, Type (0, 0), BuildingBlock: XUDNAN_clean_linker_2, # of connection points: 2
#     Edge 49, Type (0, 0), BuildingBlock: XUDNAN_clean_linker_2, # of connection points: 2
#     Edge 50, Type (0, 0), BuildingBlock: XUDNAN_clean_linker_2, # of connection points: 2
#     Edge 51, Type (0, 0), BuildingBlock: XUDNAN_clean_linker_2, # of connection points: 2
#     Edge 52, Type (0, 0), BuildingBlock: XUDNAN_clean_linker_2, # of connection points: 2
#     Edge 53, Type (0, 0), BuildingBlock: XUDNAN_clean_linker_2, # of connection points: 2
#     Edge 54, Type (0, 0), BuildingBlock: XUDNAN_clean_linker_2, # of connection points: 2
#     Edge 55, Type (0, 0), BuildingBlock: XUDNAN_clean_linker_2, # of connection points: 2
#     Edge 56, Type (0, 0), BuildingBlock: XUDNAN_clean_linker_2, # of connection points: 2
#     Edge 57, Type (0, 0), BuildingBlock: XUDNAN_clean_linker_2, # of connection points: 2
#     Edge 58, Type (0, 0), BuildingBlock: XUDNAN_clean_linker_2, # of connection points: 2
#     Edge 59, Type (0, 0), BuildingBlock: XUDNAN_clean_linker_2, # of connection points: 2
#     Edge 60, Type (0, 0), BuildingBlock: XUDNAN_clean_linker_2, # of connection points: 2
#     Edge 61, Type (0, 0), BuildingBlock: XUDNAN_clean_linker_2, # of connection points: 2
#     Edge 62, Type (0, 0), BuildingBlock: XUDNAN_clean_linker_2, # of connection points: 2
#     Edge 63, Type (0, 0), BuildingBlock: XUDNAN_clean_linker_2, # of connection points: 2
#     Edge 64, Type (0, 0), BuildingBlock: XUDNAN_clean_linker_2, # of connection points: 2
#     Edge 65, Type (0, 0), BuildingBlock: XUDNAN_clean_linker_2, # of connection points: 2
#     Edge 66, Type (0, 0), BuildingBlock: XUDNAN_clean_linker_2, # of connection points: 2
#     Edge 67, Type (0, 0), BuildingBlock: XUDNAN_clean_linker_2, # of connection points: 2
#     Edge 68, Type (0, 0), BuildingBlock: XUDNAN_clean_linker_2, # of connection points: 2
#     Edge 69, Type (0, 0), BuildingBlock: XUDNAN_clean_linker_2, # of connection points: 2
#     Edge 70, Type (0, 0), BuildingBlock: XUDNAN_clean_linker_2, # of connection points: 2
#     Edge 71, Type (0, 0), BuildingBlock: XUDNAN_clean_linker_2, # of connection points: 2
#     Edge 72, Type (0, 0), BuildingBlock: XUDNAN_clean_linker_2, # of connection points: 2
#     Edge 73, Type (0, 0), BuildingBlock: XUDNAN_clean_linker_2, # of connection points: 2
#     Edge 74, Type (0, 0), BuildingBlock: XUDNAN_clean_linker_2, # of connection points: 2
#     Edge 75, Type (0, 0), BuildingBlock: XUDNAN_clean_linker_2, # of connection points: 2
#     Edge 76, Type (0, 0), BuildingBlock: XUDNAN_clean_linker_2, # of connection points: 2
#     Edge 77, Type (0, 0), BuildingBlock: XUDNAN_clean_linker_2, # of connection points: 2
#     Edge 78, Type (0, 0), BuildingBlock: XUDNAN_clean_linker_2, # of connection points: 2
#     Edge 79, Type (0, 0), BuildingBlock: XUDNAN_clean_linker_2, # of connection points: 2
#     Edge 80, Type (0, 0), BuildingBlock: XUDNAN_clean_linker_2, # of connection points: 2
#     Edge 81, Type (0, 0), BuildingBlock: XUDNAN_clean_linker_2, # of connection points: 2
#     Edge 82, Type (0, 0), BuildingBlock: XUDNAN_clean_linker_2, # of connection points: 2
#     Edge 83, Type (0, 0), BuildingBlock: XUDNAN_clean_linker_2, # of connection points: 2
#     Edge 84, Type (0, 0), BuildingBlock: XUDNAN_clean_linker_2, # of connection points: 2
#     Edge 85, Type (0, 0), BuildingBlock: XUDNAN_clean_linker_2, # of connection points: 2
#     Edge 86, Type (0, 0), BuildingBlock: XUDNAN_clean_linker_2, # of connection points: 2
#     Edge 87, Type (0, 0), BuildingBlock: XUDNAN_clean_linker_2, # of connection points: 2
#     Edge 88, Type (0, 0), BuildingBlock: XUDNAN_clean_linker_2, # of connection points: 2
#     Edge 89, Type (0, 0), BuildingBlock: XUDNAN_clean_linker_2, # of connection points: 2
#     Edge 90, Type (0, 0), BuildingBlock: XUDNAN_clean_linker_2, # of connection points: 2
#     Edge 91, Type (0, 0), BuildingBlock: XUDNAN_clean_linker_2, # of connection points: 2
#     Edge 92, Type (0, 0), BuildingBlock: XUDNAN_clean_linker_2, # of connection points: 2
#     Edge 93, Type (0, 0), BuildingBlock: XUDNAN_clean_linker_2, # of connection points: 2
#     Edge 94, Type (0, 0), BuildingBlock: XUDNAN_clean_linker_2, # of connection points: 2
#     Edge 95, Type (0, 0), BuildingBlock: XUDNAN_clean_linker_2, # of connection points: 2
#     Edge 96, Type (0, 0), BuildingBlock: XUDNAN_clean_linker_2, # of connection points: 2
#     Edge 97, Type (0, 0), BuildingBlock: XUDNAN_clean_linker_2, # of connection points: 2
#     Edge 98, Type (0, 0), BuildingBlock: XUDNAN_clean_linker_2, # of connection points: 2
#     Edge 99, Type (0, 0), BuildingBlock: XUDNAN_clean_linker_2, # of connection points: 2
#     Edge 100, Type (0, 0), BuildingBlock: XUDNAN_clean_linker_2, # of connection points: 2
#     Edge 101, Type (0, 0), BuildingBlock: XUDNAN_clean_linker_2, # of connection points: 2
#     Edge 102, Type (0, 0), BuildingBlock: XUDNAN_clean_linker_2, # of connection points: 2
#     Edge 103, Type (0, 0), BuildingBlock: XUDNAN_clean_linker_2, # of connection points: 2
#     Edge 104, Type (0, 0), BuildingBlock: XUDNAN_clean_linker_2, # of connection points: 2
#     Edge 105, Type (0, 0), BuildingBlock: XUDNAN_clean_linker_2, # of connection points: 2
#     Edge 106, Type (0, 0), BuildingBlock: XUDNAN_clean_linker_2, # of connection points: 2
#     Edge 107, Type (0, 0), BuildingBlock: XUDNAN_clean_linker_2, # of connection points: 2
# Relax obj value: 0.141
# Max RMSD: 0.173
# Mean RMSD: 0.156
data_MOF--net-uma--node1-KOZSID_clean_sbu_0--edge1-XUDNAN_clean_linker_2
_symmetry_space_group_name_H-M    P1
_symmetry_Int_Tables_number       1
_symmetry_cell_setting            triclinic
loop_
_symmetry_equiv_pos_as_xyz
'x, y, z'
_cell_length_a     102.82253
_cell_length_b     106.8595
_cell_length_c     44.062541
_cell_angle_alpha  87.810246
_cell_angle_beta   90.02343
_cell_angle_gamma 118.78553
loop_
_atom_site_label
_atom_site_type_symbol
_atom_site_fract_x
_atom_site_fract_y
_atom_site_fract_z
_atom_type_partial_charge
C0 C 0.09295 0.37656 0.07835 0.0
C1 C 0.08738 0.367 0.10324 0.0
C2 C 0.08653 0.35441 0.09462 0.0
C3 C 0.09144 0.3568 0.0649 0.0
N4 N 0.09538 0.37015 0.05435 0.0
Co5 Co 0.10122 0.37732 0.0114 0.0
N6 N 0.09213 0.3577 0.99548 0.0
C7 C 0.08852 0.34576 0.01268 0.0
C8 C 0.08295 0.3337 0.99609 0.0
C9 C 0.08327 0.33835 0.9665 0.0
C10 C 0.08902 0.35307 0.96655 0.0
N11 N 0.10709 0.38465 0.96861 0.0
C12 C 0.10289 0.37791 0.94178 0.0
C13 C 0.11019 0.38748 0.91752 0.0
C14 C 0.11952 0.40038 0.92956 0.0
C15 C 0.11738 0.39813 0.96045 0.0
N16 N 0.10999 0.39676 0.02758 0.0
C17 C 0.12023 0.4088 0.01312 0.0
C18 C 0.12382 0.42074 0.02932 0.0
C19 C 0.1152 0.41587 0.05546 0.0
C20 C 0.10672 0.40118 0.05375 0.0
N21 N 0.12027 0.37722 0.01622 0.0
C22 C 0.14866 0.37917 0.01873 0.0
C23 C 0.14338 0.38422 0.0422 0.0
C24 C 0.12914 0.38308 0.04058 0.0
C25 C 0.13903 0.37254 0.99489 0.0
C26 C 0.12512 0.3718 0.99392 0.0
N27 N 0.08259 0.37761 1.00645 0.0
C28 C 0.0696 0.39076 0.99466 0.0
C29 C 0.05658 0.3796 1.00762 0.0
C30 C 0.05666 0.36713 0.01848 0.0
C31 C 0.06974 0.36634 0.01758 0.0
C32 C 0.08251 0.38954 0.99427 0.0
H33 H 0.06956 0.35677 0.02674 0.0
H34 H 0.09253 0.39844 0.98504 0.0
H35 H 0.12546 0.38725 0.05866 0.0
H36 H 0.11845 0.36707 0.97453 0.0
C37 C 0.08887 0.34612 0.0445 0.0
C38 C 0.09616 0.39169 0.07793 0.0
C39 C 0.09324 0.36232 0.93842 0.0
C40 C 0.12341 0.40868 0.98216 0.0
H41 H 0.0838 0.36861 0.12507 0.0
H42 H 0.08178 0.34438 0.10778 0.0
H43 H 0.07894 0.32278 1.00451 0.0
H44 H 0.08004 0.33169 0.94703 0.0
H45 H 0.1091 0.38532 0.8936 0.0
H46 H 0.12677 0.41029 0.91717 0.0
H47 H 0.13114 0.43177 0.02221 0.0
H48 H 0.11503 0.42237 0.07353 0.0
H49 H 0.1503 0.3894 0.06123 0.0
H50 H 0.14221 0.36799 0.97666 0.0
H51 H 0.06991 0.40048 0.98568 0.0
H52 H 0.04667 0.35805 0.02776 0.0
C53 C 0.62649 0.71109 0.07834 0.0
C54 C 0.63545 0.71573 0.10353 0.0
C55 C 0.64856 0.72732 0.09384 0.0
C56 C 0.64694 0.72928 0.06338 0.0
N57 N 0.63362 0.71964 0.05327 0.0
Co58 Co 0.62705 0.71926 1.01053 0.0
N59 N 0.64773 0.73104 0.994 0.0
C60 C 0.65956 0.73908 0.01083 0.0
C61 C 0.6725 0.74608 0.99389 0.0
C62 C 0.66855 0.74235 0.96448 0.0
C63 C 0.65333 0.73331 0.96495 0.0
N64 N 0.62046 0.71886 0.96785 0.0
C65 C 0.62818 0.72213 0.94089 0.0
C66 C 0.61894 0.72066 0.91679 0.0
C67 C 0.60507 0.71636 0.92904 0.0
C68 C 0.60656 0.71549 0.95992 0.0
N69 N 0.60648 0.70734 0.02723 0.0
C70 C 0.59409 0.70473 0.01218 0.0
C71 C 0.58142 0.69477 0.02722 0.0
C72 C 0.58611 0.69096 0.05341 0.0
C73 C 0.60149 0.69909 0.05359 0.0
N74 N 0.62566 0.73679 0.01611 0.0
C75 C 0.62229 0.76127 0.02205 0.0
C76 C 0.61735 0.75042 0.0451 0.0
C77 C 0.61913 0.73832 0.04171 0.0
C78 C 0.62925 0.75965 0.99629 0.0
C79 C 0.63084 0.74743 0.99381 0.0
N80 N 0.62824 0.70194 1.00482 0.0
C81 C 0.61711 0.67784 0.98836 0.0
C82 C 0.62885 0.67636 1.00049 0.0
C83 C 0.64046 0.688 0.01415 0.0
C84 C 0.64 0.70074 0.01587 0.0
C85 C 0.61697 0.69072 0.99095 0.0
H86 H 0.64907 0.70957 0.02638 0.0
H87 H 0.60764 0.6915 0.98204 0.0
H88 H 0.61505 0.73011 0.05968 0.0
H89 H 0.63605 0.74652 0.97343 0.0
C90 C 0.65835 0.73814 0.04268 0.0
C91 C 0.61092 0.69929 0.0797 0.0
C92 C 0.64442 0.72793 0.93732 0.0
C93 C 0.59494 0.70927 0.98156 0.0
H94 H 0.6328 0.71129 0.12659 0.0
H95 H 0.65831 0.73324 0.10722 0.0
H96 H 0.68357 0.75276 1.00204 0.0
H97 H 0.67605 0.74597 0.945 0.0
H98 H 0.62194 0.72267 0.89287 0.0
H99 H 0.59501 0.71373 0.91679 0.0
H100 H 0.57016 0.69007 0.01917 0.0
H101 H 0.5789 0.68283 0.06993 0.0
H102 H 0.61211 0.75122 0.06571 0.0
H103 H 0.63311 0.76755 0.97763 0.0
H104 H 0.60805 0.66907 0.97736 0.0
H105 H 0.64993 0.68731 0.02307 0.0
C106 C 0.29424 0.91322 0.09509 0.0
C107 C 0.28815 0.91503 0.12157 0.0
C108 C 0.27521 0.91505 0.11373 0.0
C109 C 0.27397 0.91314 0.08299 0.0
N110 N 0.28529 0.91188 0.07108 0.0
Co111 Co 0.28754 0.90909 0.02736 0.0
N112 N 0.27402 0.91658 0.01387 0.0
C113 C 0.26414 0.91763 0.03212 0.0
C114 C 0.25594 0.92283 0.01694 0.0
C115 C 0.26088 0.92505 0.98722 0.0
C116 C 0.27189 0.92111 0.9858 0.0
N117 N 0.28985 0.9063 0.98352 0.0
C118 C 0.28636 0.9115 0.95777 0.0
C119 C 0.28997 0.90658 0.93213 0.0
C120 C 0.29558 0.89784 0.94216 0.0
C121 C 0.29519 0.89793 0.97331 0.0
N122 N 0.30124 0.90187 0.04113 0.0
C123 C 0.30568 0.89436 0.02412 0.0
C124 C 0.31679 0.89259 0.03736 0.0
C125 C 0.31948 0.89936 0.06431 0.0
C126 C 0.30957 0.90466 0.06676 0.0
N127 N 0.27047 0.88956 0.0311 0.0
C128 C 0.24678 0.8613 0.03398 0.0
C129 C 0.2569 0.86648 0.05769 0.0
C130 C 0.26873 0.8806 0.0557 0.0
C131 C 0.24857 0.87067 1.00931 0.0
C132 C 0.2603 0.8847 1.00845 0.0
N133 N 0.30436 0.92823 0.02371 0.0
C134 C 0.33002 0.94368 1.01025 0.0
C135 C 0.32985 0.95451 0.02666 0.0
C136 C 0.31659 0.95227 0.04028 0.0
C137 C 0.30389 0.9391 0.03813 0.0
C138 C 0.31714 0.93054 1.00923 0.0
H139 H 0.29379 0.93755 0.04896 0.0
H140 H 0.31767 0.92214 0.99753 0.0
H141 H 0.27662 0.8842 0.07382 0.0
H142 H 0.26123 0.89153 0.98903 0.0
C143 C 0.26433 0.91544 0.06377 0.0
C144 C 0.30793 0.91183 0.09393 0.0
C145 C 0.27881 0.92032 0.95693 0.0
C146 C 0.30204 0.89249 0.99331 0.0
H147 H 0.29258 0.91624 0.14419 0.0
H148 H 0.26799 0.91695 0.12849 0.0
H149 H 0.24757 0.92502 0.02641 0.0
H150 H 0.25662 0.92882 0.96859 0.0
H151 H 0.28871 0.90899 0.90861 0.0
H152 H 0.29997 0.89253 0.92832 0.0
H153 H 0.32307 0.88798 0.02749 0.0
H154 H 0.32819 0.9006 0.0796 0.0
H155 H 0.25599 0.85953 0.07705 0.0
H156 H 0.24101 0.86712 0.99052 0.0
H157 H 0.3401 0.94525 0.99903 0.0
H158 H 0.31607 0.96064 0.05244 0.0
C159 C 0.38129 0.08914 0.92648 0.0
C160 C 0.37151 0.08359 0.90275 0.0
C161 C 0.35847 0.08312 0.91162 0.0
C162 C 0.36079 0.08817 0.9404 0.0
N163 N 0.37449 0.0918 0.95018 0.0
Co164 Co 0.38157 0.09796 0.99198 0.0
N165 N 0.36109 0.09003 1.0094 0.0
C166 C 0.34892 0.08668 0.99288 0.0
C167 C 0.33624 0.08169 1.01047 0.0
C168 C 0.34071 0.08207 0.03994 0.0
C169 C 0.35595 0.08727 0.03881 0.0
N170 N 0.38875 0.10411 0.03362 0.0
C171 C 0.38145 0.10035 0.06114 0.0
C172 C 0.39108 0.10772 0.08403 0.0
C173 C 0.40466 0.11649 0.07036 0.0
C174 C 0.40268 0.11402 0.03991 0.0
N175 N 0.40192 0.10563 0.97446 0.0
C176 C 0.41434 0.11553 0.98713 0.0
C177 C 0.42689 0.11873 0.97025 0.0
C178 C 0.422 0.11029 0.94551 0.0
C179 C 0.40669 0.10226 0.94867 0.0
N180 N 0.38217 0.11649 0.98317 0.0
C181 C 0.38526 0.14411 0.97359 0.0
C182 C 0.3901 0.138 0.95153 0.0
C183 C 0.3884 0.12422 0.95667 0.0
C184 C 0.37843 0.13581 1.00011 0.0
C185 C 0.37701 0.12215 1.00442 0.0
N186 N 0.38114 0.07984 1.00095 0.0
C187 C 0.3931 0.0667 0.02028 0.0
C188 C 0.38118 0.05401 0.01104 0.0
C189 C 0.36915 0.05443 0.99714 0.0
C190 C 0.3693 0.06744 0.99251 0.0
C191 C 0.3929 0.07955 0.01481 0.0
H192 H 0.35988 0.06747 0.98192 0.0
H193 H 0.40233 0.08925 0.02158 0.0
H194 H 0.39238 0.11991 0.93942 0.0
H195 H 0.37202 0.11633 0.02547 0.0
C196 C 0.3496 0.08641 0.96111 0.0
C197 C 0.39702 0.09221 0.92582 0.0
C198 C 0.36525 0.09091 0.06616 0.0
C199 C 0.41392 0.11922 0.01726 0.0
H200 H 0.37326 0.07985 0.88155 0.0
H201 H 0.34819 0.07862 0.89935 0.0
H202 H 0.325 0.07789 1.0028 0.0
H203 H 0.33361 0.07911 0.06 0.0
H204 H 0.38852 0.10699 0.10806 0.0
H205 H 0.41484 0.12355 0.08145 0.0
H206 H 0.4383 0.12584 0.97593 0.0
H207 H 0.42891 0.11003 0.92728 0.0
H208 H 0.39522 0.14384 0.93041 0.0
H209 H 0.37463 0.13999 0.01804 0.0
H210 H 0.40253 0.06671 0.03127 0.0
H211 H 0.35957 0.04473 0.99032 0.0
C212 C 0.9254 0.29433 0.94156 0.0
C213 C 0.93272 0.2914 0.91874 0.0
C214 C 0.9348 0.28029 0.92962 0.0
C215 C 0.92887 0.27711 0.95858 0.0
N216 N 0.92318 0.28554 0.96661 0.0
Co217 Co 0.91502 0.28536 1.00779 0.0
N218 N 0.92486 0.27509 0.02747 0.0
C219 C 0.9303 0.2678 0.01256 0.0
C220 C 0.93656 0.26179 0.03154 0.0
C221 C 0.93481 0.26536 0.06025 0.0
C222 C 0.92742 0.27331 0.05731 0.0
N223 N 0.90693 0.28533 0.0488 0.0
C224 C 0.91095 0.28281 0.07696 0.0
C225 C 0.9018 0.28354 0.09917 0.0
C226 C 0.89176 0.28652 0.08442 0.0
C227 C 0.89524 0.28743 0.05402 0.0
N228 N 0.90532 0.29564 0.98795 0.0
C229 C 0.89371 0.29647 0.99968 0.0
C230 C 0.88943 0.30445 0.98121 0.0
C231 C 0.89897 0.30889 0.95641 0.0
C232 C 0.90867 0.30346 0.96111 0.0
N233 N 0.89737 0.26691 1.00066 0.0
C234 C 0.871 0.24112 0.99219 0.0
C235 C 0.87878 0.24349 0.0194 0.0
C236 C 0.89184 0.25636 0.02316 0.0
C237 C 0.87695 0.25197 0.96913 0.0
C238 C 0.89011 0.26468 0.97374 0.0
N239 N 0.93225 0.30366 0.01495 0.0
C240 C 0.94234 0.32836 0.02677 0.0
C241 C 0.95641 0.33082 0.01802 0.0
C242 C 0.95836 0.31944 1.00887 0.0
C243 C 0.94611 0.3059 1.00752 0.0
C244 C 0.93036 0.31461 0.02529 0.0
H245 H 0.94778 0.29735 0.99963 0.0
H246 H 0.91952 0.31295 0.03163 0.0
H247 H 0.89737 0.25779 0.04452 0.0
H248 H 0.89429 0.27283 0.95565 0.0
C249 C 0.93148 0.26886 0.98075 0.0
C250 C 0.92024 0.30513 0.93874 0.0
C251 C 0.9222 0.27821 0.08328 0.0
C252 C 0.8893 0.29215 0.03021 0.0
H253 H 0.93657 0.29683 0.8968 0.0
H254 H 0.94085 0.27577 0.91844 0.0
H255 H 0.94224 0.25595 0.0252 0.0
H256 H 0.93854 0.26239 0.08087 0.0
H257 H 0.90217 0.28181 0.12345 0.0
H258 H 0.88317 0.28815 0.09473 0.0
H259 H 0.88086 0.30729 0.98583 0.0
H260 H 0.89882 0.31539 0.9371 0.0
H261 H 0.8749 0.23541 0.03774 0.0
H262 H 0.87137 0.25082 0.94776 0.0
H263 H 0.94059 0.33699 0.03422 0.0
H264 H 0.96924 0.3211 1.00221 0.0
C265 C 0.72499 0.63313 0.93689 0.0
C266 C 0.73059 0.64149 0.9103 0.0
C267 C 0.74322 0.65364 0.91782 0.0
C268 C 0.7448 0.65202 0.94846 0.0
N269 N 0.73398 0.63961 0.96057 0.0
Co270 Co 0.73272 0.63313 1.00386 0.0
N271 N 0.74552 0.65283 0.01754 0.0
C272 C 0.7548 0.66395 0.99922 0.0
C273 C 0.76266 0.67628 0.01456 0.0
C274 C 0.75813 0.67264 0.04444 0.0
C275 C 0.74769 0.65825 0.04578 0.0
N276 N 0.73155 0.62666 0.04732 0.0
C277 C 0.73488 0.63411 0.07334 0.0
C278 C 0.73218 0.62497 0.09858 0.0
C279 C 0.72728 0.61152 0.08796 0.0
C280 C 0.72717 0.61309 0.05687 0.0
N281 N 0.71967 0.61349 0.9897 0.0
C282 C 0.71632 0.60139 1.00597 0.0
C283 C 0.70572 0.58947 0.99243 0.0
C284 C 0.70221 0.5944 0.96606 0.0
C285 C 0.71104 0.60915 0.96444 0.0
N286 N 0.75044 0.63081 0.99769 0.0
C287 C 0.77576 0.62737 0.98841 0.0
C288 C 0.76455 0.62329 0.96668 0.0
C289 C 0.75202 0.62492 0.97187 0.0
C290 C 0.77391 0.63336 0.01486 0.0
C291 C 0.76132 0.63507 0.01892 0.0
N292 N 0.71518 0.6352 1.00969 0.0
C293 C 0.68919 0.62385 0.0225 0.0
C294 C 0.6879 0.63435 1.00514 0.0
C295 C 0.70063 0.64591 0.99219 0.0
C296 C 0.71427 0.64627 0.99524 0.0
C297 C 0.70297 0.62444 0.0244 0.0
H298 H 0.72393 0.65506 0.98444 0.0
H299 H 0.70354 0.61574 0.03628 0.0
H300 H 0.74359 0.62144 0.95482 0.0
H301 H 0.76038 0.63979 0.03943 0.0
C302 C 0.75433 0.66279 0.9675 0.0
C303 C 0.71157 0.61881 0.93844 0.0
C304 C 0.74135 0.64986 0.07462 0.0
C305 C 0.72054 0.60197 0.03651 0.0
H306 H 0.726 0.6391 0.88784 0.0
H307 H 0.75003 0.66281 0.90295 0.0
H308 H 0.77053 0.68674 1.00511 0.0
H309 H 0.76229 0.6797 0.0632 0.0
H310 H 0.73355 0.62767 0.12219 0.0
H311 H 0.72362 0.60168 0.10144 0.0
H312 H 0.70033 0.57858 1.00168 0.0
H313 H 0.69375 0.58777 0.95066 0.0
H314 H 0.76541 0.61894 0.94546 0.0
H315 H 0.78199 0.63654 0.03268 0.0
H316 H 0.67953 0.61493 0.03327 0.0
H317 H 0.69996 0.65443 0.97936 0.0
C318 C 0.8845 0.64299 0.95764 0.0
C319 C 0.8813 0.65247 0.94107 0.0
C320 C 0.89455 0.66316 0.92943 0.0
C321 C 0.90507 0.65963 0.93933 0.0
N322 N 0.89927 0.6474 0.9565 0.0
Co323 Co 0.91054 0.63835 0.97447 0.0
N324 N 0.92957 0.6565 0.97047 0.0
C325 C 0.93217 0.66789 0.95222 0.0
C326 C 0.94639 0.67894 0.9542 0.0
C327 C 0.95318 0.67414 0.97476 0.0
C328 C 0.94269 0.66034 0.98411 0.0
N329 N 0.9218 0.62925 0.99236 0.0
C330 C 0.93563 0.6353 1.00388 0.0
C331 C 0.93937 0.62493 0.01334 0.0
C332 C 0.92745 0.61196 1.00729 0.0
C333 C 0.91713 0.61512 0.99449 0.0
N334 N 0.89142 0.62024 0.97824 0.0
C335 C 0.88993 0.60705 0.98219 0.0
C336 C 0.87538 0.59665 0.98583 0.0
C337 C 0.86725 0.60373 0.98378 0.0
C338 C 0.87729 0.61813 0.97851 0.0
N339 N 0.91408 0.63322 0.93405 0.0
C340 C 0.91871 0.62065 0.88332 0.0
C341 C 0.90462 0.61904 0.89 0.0
C342 C 0.90259 0.62565 0.91515 0.0
C343 C 0.93057 0.62955 0.90117 0.0
C344 C 0.92803 0.63561 0.92642 0.0
N345 N 0.90738 0.64319 0.01522 0.0
C346 C 0.90308 0.63607 0.06821 0.0
C347 C 0.90903 0.65032 0.07613 0.0
C348 C 0.91276 0.66083 0.05267 0.0
C349 C 0.91169 0.65699 0.02226 0.0
C350 C 0.90253 0.63277 0.03788 0.0
H351 H 0.91514 0.66528 1.00456 0.0
H352 H 0.89899 0.62183 0.03306 0.0
H353 H 0.89159 0.62399 0.92025 0.0
H354 H 0.9373 0.64147 0.94078 0.0
C355 C 0.92046 0.66859 0.93747 0.0
C356 C 0.87317 0.62945 0.97214 0.0
C357 C 0.94588 0.65075 1.0037 0.0
C358 C 0.90233 0.60528 0.98867 0.0
H359 H 0.87053 0.6517 0.93755 0.0
H360 H 0.89633 0.67264 0.91628 0.0
H361 H 0.95112 0.68941 0.94285 0.0
H362 H 0.96458 0.68007 0.98177 0.0
H363 H 0.94968 0.62657 0.02321 0.0
H364 H 0.92629 0.60148 0.01248 0.0
H365 H 0.87121 0.58537 0.99109 0.0
H366 H 0.85532 0.59878 0.98626 0.0
H367 H 0.89516 0.61236 0.87648 0.0
H368 H 0.94162 0.63102 0.89698 0.0
H369 H 0.89952 0.62749 0.08542 0.0
H370 H 0.91723 0.67198 0.05767 0.0
C371 C 0.39492 0.29784 0.94358 0.0
C372 C 0.40913 0.30923 0.94669 0.0
C373 C 0.41376 0.30757 0.97505 0.0
C374 C 0.40212 0.29549 0.98801 0.0
N375 N 0.39049 0.28949 0.96947 0.0
Co376 Co 0.37085 0.27308 0.98017 0.0
N377 N 0.37444 0.27584 0.02403 0.0
C378 C 0.38777 0.28283 0.03698 0.0
C379 C 0.38673 0.2828 0.06806 0.0
C380 C 0.37181 0.27528 0.07494 0.0
C381 C 0.3646 0.27113 0.04752 0.0
N382 N 0.35114 0.25681 0.99086 0.0
C383 C 0.34313 0.25385 0.01709 0.0
C384 C 0.32975 0.24136 0.0152 0.0
C385 C 0.32953 0.23639 0.98666 0.0
C386 C 0.34276 0.2461 0.97276 0.0
N387 N 0.36761 0.27028 0.93625 0.0
C388 C 0.35786 0.25811 0.92355 0.0
C389 C 0.35799 0.25967 0.89238 0.0
C390 C 0.36844 0.27365 0.88538 0.0
C391 C 0.37408 0.27989 0.91274 0.0
N392 N 0.37927 0.25992 0.9812 0.0
C393 C 0.38637 0.23757 0.97698 0.0
C394 C 0.37813 0.23812 1.0018 0.0
C395 C 0.37475 0.24931 1.0035 0.0
C396 C 0.39172 0.24903 0.95525 0.0
C397 C 0.38816 0.26011 0.95789 0.0
N398 N 0.36184 0.2857 0.97887 0.0
C399 C 0.34262 0.29025 0.95919 0.0
C400 C 0.34627 0.30147 0.97882 0.0
C401 C 0.35863 0.30506 0.9975 0.0
C402 C 0.36643 0.29724 0.9967 0.0
C403 C 0.35001 0.28228 0.96047 0.0
H404 H 0.3759 0.30028 0.01108 0.0
H405 H 0.34583 0.27311 0.94668 0.0
H406 H 0.36792 0.24902 0.02237 0.0
H407 H 0.39203 0.26848 0.94028 0.0
C408 C 0.40043 0.29157 0.01908 0.0
C409 C 0.3859 0.29472 0.91596 0.0
C410 C 0.34856 0.26222 0.04443 0.0
C411 C 0.34667 0.24697 0.94174 0.0
H412 H 0.41552 0.3181 0.93093 0.0
H413 H 0.42397 0.3149 0.98569 0.0
H414 H 0.39565 0.2882 0.08374 0.0
H415 H 0.36684 0.27313 0.09749 0.0
H416 H 0.32115 0.23636 0.03263 0.0
H417 H 0.32055 0.22711 0.97691 0.0
H418 H 0.35074 0.25188 0.8767 0.0
H419 H 0.37145 0.27873 0.86287 0.0
H420 H 0.3741 0.22985 0.01974 0.0
H421 H 0.39812 0.24922 0.93558 0.0
H422 H 0.33389 0.28728 0.94285 0.0
H423 H 0.36216 0.31359 0.01316 0.0
C424 C 0.71174 0.10656 0.98023 0.0
C425 C 0.70202 0.11215 0.98043 0.0
C426 C 0.70421 0.11911 1.00703 0.0
C427 C 0.71498 0.11729 0.02178 0.0
N428 N 0.71963 0.10958 1.00602 0.0
Co429 Co 0.73428 0.10369 0.01954 0.0
N430 N 0.7313 0.10655 0.06246 0.0
C431 C 0.72554 0.1146 0.07257 0.0
C432 C 0.72493 0.11452 0.10373 0.0
C433 C 0.73073 0.10593 0.11369 0.0
C434 C 0.73457 0.10126 0.08791 0.0
N435 N 0.74909 0.09802 0.03313 0.0
C436 C 0.75091 0.09346 0.06109 0.0
C437 C 0.76271 0.09062 0.06095 0.0
C438 C 0.76843 0.09357 0.03169 0.0
C439 C 0.75984 0.09807 0.01566 0.0
N440 N 0.73709 0.10077 0.97658 0.0
C441 C 0.74891 0.10039 0.96463 0.0
C442 C 0.74742 0.09784 0.93411 0.0
C443 C 0.73384 0.09659 0.92667 0.0
C444 C 0.72776 0.0984 0.95315 0.0
N445 N 0.75023 0.12365 0.01484 0.0
C446 C 0.77544 0.15056 1.00367 0.0
C447 C 0.76381 0.145 0.98294 0.0
C448 C 0.75135 0.13162 0.98895 0.0
C449 C 0.77369 0.14265 0.03097 0.0
C450 C 0.76104 0.12929 0.03612 0.0
N451 N 0.71862 0.0837 0.02367 0.0
C452 C 0.71053 0.05903 0.01399 0.0
C453 C 0.69615 0.05516 0.02395 0.0
C454 C 0.69323 0.0658 0.03442 0.0
C455 C 0.70472 0.08002 0.0346 0.0
C456 C 0.7215 0.0733 0.01368 0.0
H457 H 0.7023 0.08806 0.0429 0.0
H458 H 0.73226 0.07592 1.00454 0.0
H459 H 0.74284 0.1275 0.97209 0.0
H460 H 0.76031 0.12328 0.05687 0.0
C461 C 0.71846 0.11976 0.0525 0.0
C462 C 0.71371 0.09886 0.95516 0.0
C463 C 0.74213 0.09261 0.08813 0.0
C464 C 0.75951 0.09963 0.98381 0.0
H465 H 0.69399 0.11116 0.96354 0.0
H466 H 0.698 0.12411 0.01541 0.0
H467 H 0.72025 0.11957 0.11758 0.0
H468 H 0.73201 0.10343 0.13716 0.0
H469 H 0.76674 0.08683 0.07994 0.0
H470 H 0.77735 0.09199 0.02294 0.0
H471 H 0.75495 0.0964 0.91931 0.0
H472 H 0.72896 0.09458 0.90441 0.0
H473 H 0.76441 0.15082 0.96185 0.0
H474 H 0.78232 0.14641 0.04772 0.0
H475 H 0.71316 0.05113 1.00541 0.0
H476 H 0.68219 0.06316 0.04231 0.0
C477 C 0.608 0.90059 0.04228 0.0
C478 C 0.59279 0.89567 0.04391 0.0
C479 C 0.58707 0.88919 0.01718 0.0
C480 C 0.59903 0.89058 1.00062 0.0
N481 N 0.6119 0.89758 0.01532 0.0
Co482 Co 0.63181 0.90241 0.99939 0.0
N483 N 0.62492 0.90011 0.95705 0.0
C484 C 0.61075 0.89282 0.94824 0.0
C485 C 0.60946 0.89303 0.91722 0.0
C486 C 0.62371 0.90089 0.90592 0.0
C487 C 0.63292 0.90503 0.93082 0.0
N488 N 0.65167 0.90703 0.9833 0.0
C489 C 0.65743 0.91135 0.9548 0.0
C490 C 0.67177 0.91334 0.95312 0.0
C491 C 0.67499 0.91008 0.98171 0.0
C492 C 0.66245 0.90626 0.9992 0.0
N493 N 0.63863 0.90475 0.04176 0.0
C494 C 0.65078 0.90435 0.05185 0.0
C495 C 0.65266 0.90644 0.08249 0.0
C496 C 0.64093 0.90821 0.09208 0.0
C497 C 0.63254 0.90712 0.06667 0.0
N498 N 0.62654 0.88207 1.00281 0.0
C499 C 0.62124 0.85366 1.01026 0.0
C500 C 0.628 0.8619 0.9836 0.0
C501 C 0.63047 0.87599 0.98027 0.0
C502 C 0.61693 0.85995 0.03279 0.0
C503 C 0.61964 0.87407 0.02864 0.0
N504 N 0.63731 0.92273 0.9965 0.0
C505 C 0.65513 0.94706 1.0062 0.0
C506 C 0.64492 0.95178 0.99846 0.0
C507 C 0.63091 0.94154 0.98854 0.0
C508 C 0.62741 0.92714 0.98734 0.0
C509 C 0.65106 0.9326 1.00553 0.0
H510 H 0.61657 0.91952 0.97973 0.0
H511 H 0.65906 0.92941 0.01292 0.0
H512 H 0.6358 0.88204 0.95958 0.0
H513 H 0.61642 0.87861 0.0467 0.0
C514 C 0.59908 0.8882 0.96957 0.0
C515 C 0.61832 0.90731 0.06712 0.0
C516 C 0.64917 0.91274 0.9289 0.0
C517 C 0.66131 0.90459 0.03109 0.0
H518 H 0.58647 0.89671 0.06231 0.0
H519 H 0.57567 0.88471 1.01006 0.0
H520 H 0.59935 0.88852 0.90436 0.0
H521 H 0.62696 0.90325 0.88215 0.0
H522 H 0.6791 0.91676 0.93334 0.0
H523 H 0.68543 0.91098 0.98909 0.0
H524 H 0.66177 0.90718 0.09603 0.0
H525 H 0.63876 0.91003 0.11508 0.0
H526 H 0.63132 0.85749 0.96529 0.0
H527 H 0.61179 0.85413 0.05392 0.0
H528 H 0.66629 0.95441 0.01292 0.0
H529 H 0.62251 0.94446 0.98239 0.0
C530 C 0.10509 0.70992 0.0866 0.0
C531 C 0.10987 0.69992 0.09169 0.0
C532 C 0.11668 0.69961 0.06513 0.0
C533 C 0.11568 0.70944 0.04553 0.0
N534 N 0.10884 0.71595 0.05833 0.0
Co535 Co 0.10495 0.73076 0.03902 0.0
N536 N 0.10678 0.72493 0.99786 0.0
C537 C 0.11172 0.71572 0.99114 0.0
C538 C 0.108 0.71072 0.96253 0.0
C539 C 0.10063 0.71746 0.9504 0.0
C540 C 0.10094 0.72689 0.97171 0.0
N541 N 0.10161 0.74601 0.01985 0.0
C542 C 0.09975 0.74865 0.99017 0.0
C543 C 0.10105 0.7622 0.98632 0.0
C544 C 0.10336 0.76791 0.01446 0.0
C545 C 0.10371 0.75779 0.034 0.0
N546 N 0.10251 0.73584 0.08062 0.0
C547 C 0.10353 0.74825 0.08863 0.0
C548 C 0.0995 0.74778 0.11865 0.0
C549 C 0.09567 0.73417 0.12989 0.0
C550 C 0.0976 0.72711 0.10604 0.0
N551 N 0.12644 0.74457 0.03869 0.0
C552 C 0.15593 0.76727 0.03798 0.0
C553 C 0.14921 0.75926 0.06494 0.0
C554 C 0.13454 0.74782 0.06472 0.0
C555 C 0.14765 0.76338 0.01144 0.0
C556 C 0.13309 0.75216 0.01227 0.0
N557 N 0.08351 0.71748 0.0391 0.0
C558 C 0.05871 0.71316 0.05005 0.0
C559 C 0.05273 0.69917 0.04054 0.0
C560 C 0.06246 0.69453 0.02977 0.0
C561 C 0.07785 0.70381 0.0296 0.0
C562 C 0.07401 0.72214 0.04879 0.0
H563 H 0.08515 0.69989 0.02212 0.0
H564 H 0.07814 0.7329 0.05592 0.0
H565 H 0.12965 0.74182 0.08575 0.0
H566 H 0.12709 0.75001 0.99141 0.0
C567 C 0.11675 0.70965 0.01389 0.0
C568 C 0.09588 0.7126 0.10781 0.0
C569 C 0.09806 0.73908 0.96508 0.0
C570 C 0.10475 0.75839 0.0659 0.0
H571 H 0.10791 0.6931 0.11187 0.0
H572 H 0.12061 0.69216 0.05993 0.0
H573 H 0.10961 0.7025 0.95234 0.0
H574 H 0.09582 0.7157 0.92812 0.0
H575 H 0.10093 0.76776 0.96541 0.0
H576 H 0.10471 0.77825 0.01993 0.0
H577 H 0.09854 0.75599 0.13049 0.0
H578 H 0.09186 0.72997 0.15278 0.0
H579 H 0.15524 0.76174 0.08595 0.0
H580 H 0.15226 0.76926 0.99008 0.0
H581 H 0.05156 0.71722 0.05813 0.0
H582 H 0.05824 0.68375 0.02228 0.0
C583 C 0.24209 0.36564 0.0646 0.0
C584 C 0.22963 0.35637 0.08201 0.0
C585 C 0.23286 0.34657 0.09619 0.0
C586 C 0.24696 0.3502 0.08644 0.0
N587 N 0.25276 0.36166 0.06695 0.0
Co588 Co 0.27229 0.36979 0.04557 0.0
N589 N 0.27324 0.35187 0.05252 0.0
C590 C 0.26558 0.34164 0.0741 0.0
C591 C 0.26912 0.33078 0.07476 0.0
C592 C 0.27975 0.3345 0.05234 0.0
C593 C 0.28203 0.34744 0.03908 0.0
N594 N 0.29181 0.37796 0.02408 0.0
C595 C 0.29883 0.37123 0.01222 0.0
C596 C 0.31229 0.38106 0.99873 0.0
C597 C 0.31378 0.39438 1.00293 0.0
C598 C 0.30116 0.39196 0.01855 0.0
N599 N 0.27122 0.38768 0.03917 0.0
C600 C 0.28275 0.40072 0.03271 0.0
C601 C 0.27843 0.41102 0.02907 0.0
C602 C 0.26327 0.40394 0.03354 0.0
C603 C 0.25917 0.38968 0.03955 0.0
N604 N 0.28258 0.37663 0.08393 0.0
C605 C 0.29879 0.38754 0.13664 0.0
C606 C 0.30337 0.381 0.11548 0.0
C607 C 0.29506 0.37548 0.08964 0.0
C608 C 0.28572 0.38829 0.13129 0.0
C609 C 0.27785 0.3829 0.10457 0.0
N610 N 0.26242 0.36309 1.00697 0.0
C611 C 0.26146 0.3674 0.9532 0.0
C612 C 0.25042 0.35324 0.95008 0.0
C613 C 0.24517 0.34422 0.97632 0.0
C614 C 0.25133 0.34935 1.00454 0.0
C615 C 0.26724 0.3721 0.98172 0.0
H616 H 0.24736 0.34213 0.02428 0.0
H617 H 0.27586 0.38301 0.98317 0.0
H618 H 0.29892 0.37039 0.07412 0.0
H619 H 0.26804 0.38391 0.10045 0.0
C620 C 0.25369 0.34155 0.0898 0.0
C621 C 0.24392 0.3784 0.04697 0.0
C622 C 0.29343 0.35573 0.01562 0.0
C623 C 0.29658 0.40216 0.02397 0.0
H624 H 0.21918 0.35638 0.0841 0.0
H625 H 0.22544 0.33737 0.11042 0.0
H626 H 0.26429 0.32114 0.0892 0.0
H627 H 0.28533 0.32848 0.04674 0.0
H628 H 0.32024 0.3789 0.98723 0.0
H629 H 0.32276 0.40455 0.99461 0.0
H630 H 0.28532 0.42218 0.02238 0.0
H631 H 0.25604 0.40868 0.03234 0.0
H632 H 0.31326 0.38 0.11905 0.0
H633 H 0.28181 0.39324 0.14729 0.0
H634 H 0.26566 0.37483 0.9337 0.0
H635 H 0.23668 0.33317 0.97498 0.0
C636 C 0.76388 0.7162 0.41104 0.0
C637 C 0.75993 0.70769 0.43766 0.0
C638 C 0.75934 0.69502 0.43075 0.0
C639 C 0.76312 0.69643 0.40047 0.0
N640 N 0.766 0.70919 0.3878 0.0
Co641 Co 0.77299 0.71547 0.34489 0.0
N642 N 0.76572 0.69554 0.33174 0.0
C643 C 0.76241 0.6842 0.3507 0.0
C644 C 0.75733 0.67169 0.33577 0.0
C645 C 0.75756 0.6754 0.30549 0.0
C646 C 0.76288 0.69006 0.30347 0.0
N647 N 0.77995 0.72165 0.30203 0.0
C648 C 0.77611 0.71416 0.2761 0.0
C649 C 0.78387 0.72295 0.25121 0.0
C650 C 0.79272 0.73632 0.26189 0.0
C651 C 0.78998 0.73499 0.29271 0.0
N652 N 0.77995 0.73531 0.35799 0.0
C653 C 0.78937 0.7472 0.34169 0.0
C654 C 0.79073 0.75941 0.35371 0.0
C655 C 0.78178 0.75496 0.3793 0.0
C656 C 0.77569 0.74018 0.38235 0.0
N657 N 0.7923 0.71688 0.35493 0.0
C658 C 0.81965 0.71822 0.36999 0.0
C659 C 0.81319 0.72442 0.3881 0.0
C660 C 0.79955 0.72351 0.3804 0.0
C661 C 0.81207 0.71155 0.34378 0.0
C662 C 0.7986 0.71113 0.33656 0.0
N663 N 0.75407 0.71417 0.3347 0.0
C664 C 0.74002 0.72334 0.3073 0.0
C665 C 0.72699 0.71085 0.31524 0.0
C666 C 0.72765 0.70042 0.33439 0.0
C667 C 0.7413 0.70229 0.34389 0.0
C668 C 0.75351 0.72477 0.31725 0.0
H669 H 0.74157 0.69395 0.35795 0.0
H670 H 0.7635 0.73428 0.31008 0.0
H671 H 0.79484 0.72817 0.3952 0.0
H672 H 0.7932 0.70599 0.31614 0.0
C673 C 0.76191 0.68544 0.38223 0.0
C674 C 0.76678 0.73126 0.4095 0.0
C675 C 0.76603 0.69859 0.27446 0.0
C676 C 0.79406 0.74628 0.31229 0.0
H677 H 0.7579 0.71037 0.45995 0.0
H678 H 0.75616 0.68574 0.44589 0.0
H679 H 0.75336 0.66103 0.34576 0.0
H680 H 0.75419 0.66811 0.28714 0.0
H681 H 0.78319 0.72001 0.2278 0.0
H682 H 0.79976 0.74599 0.24853 0.0
H683 H 0.79671 0.7702 0.34397 0.0
H684 H 0.77984 0.76193 0.39352 0.0
H685 H 0.81861 0.73004 0.40817 0.0
H686 H 0.8163 0.70639 0.32908 0.0
H687 H 0.73981 0.73162 0.29267 0.0
H688 H 0.71767 0.69072 0.34143 0.0
C689 C 0.29999 0.05348 0.41553 0.0
C690 C 0.30899 0.0594 0.4402 0.0
C691 C 0.32166 0.07112 0.42909 0.0
C692 C 0.31967 0.07186 0.39837 0.0
N693 N 0.30652 0.0614 0.38956 0.0
Co694 Co 0.29927 0.05907 0.34732 0.0
N695 N 0.31964 0.07058 0.32932 0.0
C696 C 0.3316 0.07951 0.34489 0.0
C697 C 0.34427 0.08633 0.32712 0.0
C698 C 0.33999 0.0816 0.29844 0.0
C699 C 0.32484 0.07216 0.30013 0.0
N700 N 0.29194 0.05678 0.3049 0.0
C701 C 0.29931 0.05968 0.27752 0.0
C702 C 0.28954 0.05705 0.25387 0.0
C703 C 0.27575 0.05255 0.26681 0.0
C704 C 0.27778 0.05268 0.29764 0.0
N705 N 0.27904 0.04736 0.36594 0.0
C706 C 0.26631 0.04405 0.35166 0.0
C707 C 0.25406 0.03441 0.36844 0.0
C708 C 0.25944 0.03148 0.39483 0.0
C709 C 0.27479 0.03966 0.39314 0.0
N710 N 0.29738 0.07654 0.3493 0.0
C711 C 0.29202 0.10001 0.34776 0.0
C712 C 0.28809 0.0907 0.37353 0.0
C713 C 0.29081 0.07897 0.37379 0.0
C714 C 0.2993 0.09771 0.32359 0.0
C715 C 0.30196 0.08609 0.32488 0.0
N716 N 0.30083 0.04176 0.34502 0.0
C717 C 0.28936 0.01695 0.33379 0.0
C718 C 0.30147 0.01601 0.34562 0.0
C719 C 0.31341 0.02831 0.35673 0.0
C720 C 0.31289 0.04111 0.35616 0.0
C721 C 0.28929 0.0299 0.3336 0.0
H722 H 0.32211 0.05044 0.36498 0.0
H723 H 0.27971 0.0302 0.3247 0.0
H724 H 0.28722 0.07163 0.39339 0.0
H725 H 0.30733 0.08462 0.30545 0.0
C726 C 0.33079 0.08005 0.37659 0.0
C727 C 0.28517 0.04057 0.41777 0.0
C728 C 0.31565 0.06642 0.27296 0.0
C729 C 0.26654 0.04725 0.32032 0.0
H730 H 0.30673 0.05555 0.4637 0.0
H731 H 0.33146 0.07782 0.44171 0.0
H732 H 0.35535 0.09373 0.33421 0.0
H733 H 0.34714 0.08502 0.27839 0.0
H734 H 0.29216 0.05851 0.22977 0.0
H735 H 0.26543 0.04929 0.25508 0.0
H736 H 0.24262 0.02924 0.3614 0.0
H737 H 0.25268 0.02382 0.41247 0.0
H738 H 0.2824 0.0921 0.3927 0.0
H739 H 0.30264 0.10472 0.30336 0.0
H740 H 0.27991 0.00769 0.32507 0.0
H741 H 0.32315 0.02809 0.36547 0.0
C742 C 0.96058 0.24594 0.42865 0.0
C743 C 0.9547 0.24824 0.45489 0.0
C744 C 0.94198 0.24862 0.44678 0.0
C745 C 0.94065 0.24644 0.41615 0.0
N746 N 0.95172 0.24468 0.40455 0.0
Co747 Co 0.95372 0.24124 0.36116 0.0
N748 N 0.94058 0.24907 0.34704 0.0
C749 C 0.93082 0.25049 0.36496 0.0
C750 C 0.9228 0.25575 0.34931 0.0
C751 C 0.92773 0.25761 0.31965 0.0
C752 C 0.93857 0.25343 0.31874 0.0
N753 N 0.95588 0.23793 0.31763 0.0
C754 C 0.95271 0.2432 0.29159 0.0
C755 C 0.95629 0.23803 0.26628 0.0
C756 C 0.96146 0.22902 0.27685 0.0
C757 C 0.96091 0.22923 0.30795 0.0
N758 N 0.96692 0.23355 0.37562 0.0
C759 C 0.97093 0.22554 0.3592 0.0
C760 C 0.98177 0.22345 0.37283 0.0
C761 C 0.98471 0.23051 0.39941 0.0
C762 C 0.9752 0.23631 0.40128 0.0
N763 N 0.93627 0.222 0.36557 0.0
C764 C 0.91192 0.19413 0.36903 0.0
C765 C 0.922 0.1992 0.39284 0.0
C766 C 0.93417 0.21314 0.39057 0.0
C767 C 0.91409 0.20343 0.344 0.0
C768 C 0.92614 0.21725 0.34283 0.0
N769 N 0.97088 0.26015 0.3566 0.0
C770 C 0.99644 0.27519 0.34173 0.0
C771 C 0.99608 0.28702 0.35336 0.0
C772 C 0.98272 0.28513 0.36611 0.0
C773 C 0.9703 0.27162 0.36765 0.0
C774 C 0.9837 0.26189 0.34336 0.0
H775 H 0.96025 0.27043 0.37796 0.0
H776 H 0.9843 0.25298 0.33425 0.0
H777 H 0.94202 0.21668 0.40877 0.0
H778 H 0.92735 0.22399 0.32308 0.0
C779 C 0.93107 0.24869 0.3967 0.0
C780 C 0.97388 0.24392 0.42794 0.0
C781 C 0.94547 0.25229 0.29021 0.0
C782 C 0.96736 0.22356 0.3284 0.0
H783 H 0.9591 0.24948 0.47754 0.0
H784 H 0.93493 0.25087 0.46129 0.0
H785 H 0.91458 0.25824 0.35844 0.0
H786 H 0.92358 0.26133 0.30074 0.0
H787 H 0.95531 0.24046 0.24263 0.0
H788 H 0.9657 0.22346 0.26339 0.0
H789 H 0.98774 0.21844 0.36339 0.0
H790 H 0.99333 0.23162 0.41482 0.0
H791 H 0.92078 0.1923 0.41251 0.0
H792 H 0.90655 0.19996 0.32515 0.0
H793 H 0.0065 0.27612 0.33173 0.0
H794 H 0.98174 0.29403 0.37457 0.0
C795 C 0.0419 0.42067 0.25582 0.0
C796 C 0.03129 0.41469 0.23364 0.0
C797 C 0.0185 0.41409 0.24457 0.0
C798 C 0.02181 0.4195 0.27298 0.0
N799 N 0.03589 0.42343 0.28065 0.0
Co800 Co 0.04451 0.43049 0.32098 0.0
N801 N 0.02466 0.42288 0.34133 0.0
C802 C 0.01191 0.41924 0.32673 0.0
C803 C 0.99987 0.41455 0.34613 0.0
C804 C 0.00539 0.41542 0.37477 0.0
C805 C 0.02057 0.42059 0.37134 0.0
N806 N 0.05315 0.43743 0.36131 0.0
C807 C 0.04682 0.43407 0.38979 0.0
C808 C 0.05725 0.44176 0.41121 0.0
C809 C 0.07035 0.45032 0.39562 0.0
C810 C 0.06731 0.44741 0.36556 0.0
N811 N 0.06426 0.43793 0.30041 0.0
C812 C 0.07713 0.44799 0.31132 0.0
C813 C 0.08909 0.45094 0.29275 0.0
C814 C 0.08337 0.44219 0.26867 0.0
C815 C 0.06816 0.43427 0.27386 0.0
N816 N 0.0447 0.4488 0.31162 0.0
C817 C 0.04548 0.47531 0.29912 0.0
C818 C 0.04072 0.46812 0.32759 0.0
C819 C 0.04038 0.45497 0.33331 0.0
C820 C 0.04982 0.46882 0.27702 0.0
C821 C 0.04936 0.45564 0.28369 0.0
N822 N 0.04444 0.41255 0.33036 0.0
C823 C 0.05759 0.39989 0.34523 0.0
C824 C 0.0451 0.38701 0.33911 0.0
C825 C 0.03219 0.38701 0.32934 0.0
C826 C 0.03209 0.39992 0.32503 0.0
C827 C 0.05698 0.41259 0.34093 0.0
H828 H 0.02213 0.39971 0.31681 0.0
H829 H 0.06675 0.42245 0.34559 0.0
H830 H 0.03659 0.44981 0.35546 0.0
H831 H 0.05285 0.45101 0.26623 0.0
C832 C 0.01139 0.41823 0.29509 0.0
C833 C 0.05771 0.42423 0.252 0.0
C834 C 0.03082 0.42459 0.39713 0.0
C835 C 0.07775 0.45217 0.34139 0.0
H836 H 0.03248 0.41091 0.21195 0.0
H837 H 0.00782 0.40943 0.23378 0.0
H838 H 0.98837 0.41057 0.34017 0.0
H839 H 0.999 0.41277 0.39579 0.0
H840 H 0.05556 0.44135 0.43554 0.0
H841 H 0.08093 0.4575 0.40521 0.0
H842 H 0.10069 0.4581 0.29686 0.0
H843 H 0.08966 0.44169 0.24951 0.0
H844 H 0.03701 0.47248 0.34533 0.0
H845 H 0.05374 0.47394 0.25475 0.0
H846 H 0.0677 0.40012 0.35299 0.0
H847 H 0.02234 0.37711 0.32453 0.0
C848 C 0.57853 0.62314 0.27361 0.0
C849 C 0.57869 0.61648 0.2473 0.0
C850 C 0.57717 0.60336 0.25615 0.0
C851 C 0.57604 0.6026 0.28732 0.0
N852 N 0.57672 0.61441 0.2986 0.0
Co853 Co 0.57564 0.61743 0.3428 0.0
N854 N 0.58102 0.60245 0.35591 0.0
C855 C 0.58051 0.59235 0.33785 0.0
C856 C 0.58484 0.58338 0.35227 0.0
C857 C 0.58802 0.58795 0.38137 0.0
C858 C 0.58529 0.59942 0.38343 0.0
N859 N 0.5745 0.62052 0.38697 0.0
C860 C 0.57906 0.61593 0.41216 0.0
C861 C 0.57515 0.62024 0.43838 0.0
C862 C 0.56791 0.62764 0.42942 0.0
C863 C 0.5677 0.62743 0.3983 0.0
N864 N 0.57058 0.63257 0.32942 0.0
C865 C 0.56474 0.6385 0.34759 0.0
C866 C 0.56429 0.65001 0.3338 0.0
C867 C 0.57017 0.6514 0.30518 0.0
C868 C 0.57361 0.64039 0.3025 0.0
N869 N 0.55452 0.6029 0.34404 0.0
C870 C 0.52521 0.58018 0.34228 0.0
C871 C 0.53092 0.59107 0.31932 0.0
C872 C 0.5455 0.60232 0.3207 0.0
C873 C 0.53443 0.58129 0.36668 0.0
C874 C 0.54895 0.59266 0.36714 0.0
N875 N 0.59645 0.63167 0.34098 0.0
C876 C 0.61515 0.65608 0.34554 0.0
C877 C 0.6242 0.65443 0.3239 0.0
C878 C 0.61931 0.64072 0.31297 0.0
C879 C 0.6058 0.62946 0.32283 0.0
C880 C 0.60122 0.64464 0.35336 0.0
H881 H 0.60246 0.61915 0.31386 0.0
H882 H 0.59407 0.64647 0.36831 0.0
H883 H 0.54961 0.61035 0.30238 0.0
H884 H 0.55573 0.59295 0.38599 0.0
C885 C 0.5776 0.5927 0.30673 0.0
C886 C 0.57915 0.63731 0.27386 0.0
C887 C 0.58552 0.60617 0.41254 0.0
C888 C 0.56321 0.63526 0.37892 0.0
H889 H 0.57984 0.62067 0.22413 0.0
H890 H 0.57762 0.59563 0.24163 0.0
H891 H 0.58587 0.57473 0.34262 0.0
H892 H 0.59172 0.58319 0.39913 0.0
H893 H 0.57703 0.61803 0.46166 0.0
H894 H 0.5636 0.63282 0.44388 0.0
H895 H 0.56114 0.65723 0.34406 0.0
H896 H 0.57207 0.65988 0.28871 0.0
H897 H 0.52435 0.59074 0.29985 0.0
H898 H 0.53051 0.5734 0.38538 0.0
H899 H 0.6185 0.66613 0.35606 0.0
H900 H 0.62541 0.63852 0.29598 0.0
C901 C 0.38753 0.95947 0.27211 0.0
C902 C 0.39242 0.96721 0.24462 0.0
C903 C 0.40431 0.98018 0.25083 0.0
C904 C 0.40619 0.97967 0.28163 0.0
N905 N 0.39628 0.96716 0.29516 0.0
Co906 Co 0.39544 0.96232 0.33948 0.0
N907 N 0.40676 0.98275 0.35038 0.0
C908 C 0.41494 0.99367 0.33053 0.0
C909 C 0.42174 0.00665 0.34383 0.0
C910 C 0.41782 0.00371 0.37406 0.0
C911 C 0.40889 0.98901 0.37775 0.0
N912 N 0.39463 0.9574 0.38387 0.0
C913 C 0.39797 0.96565 0.40865 0.0
C914 C 0.3964 0.95752 0.4351 0.0
C915 C 0.3921 0.94387 0.42663 0.0
C916 C 0.39131 0.94435 0.39553 0.0
N917 N 0.38379 0.94202 0.32818 0.0
C918 C 0.3812 0.93067 0.34655 0.0
C919 C 0.37098 0.91799 0.33499 0.0
C920 C 0.36692 0.92157 0.3077 0.0
C921 C 0.37519 0.93633 0.30337 0.0
N922 N 0.41419 0.96156 0.33587 0.0
C923 C 0.44049 0.95936 0.33488 0.0
C924 C 0.42955 0.95288 0.31291 0.0
C925 C 0.41652 0.95415 0.31375 0.0
C926 C 0.4381 0.96742 0.35636 0.0
C927 C 0.42498 0.96824 0.3567 0.0
N928 N 0.37696 0.96292 0.34337 0.0
C929 C 0.35154 0.95185 0.36074 0.0
C930 C 0.34965 0.96219 0.3442 0.0
C931 C 0.36166 0.97315 0.32798 0.0
C932 C 0.3753 0.97341 0.32812 0.0
C933 C 0.36532 0.95235 0.35985 0.0
H934 H 0.38444 0.98195 0.31552 0.0
H935 H 0.36644 0.94403 0.37208 0.0
H936 H 0.40821 0.94892 0.29687 0.0
H937 H 0.42358 0.97415 0.37439 0.0
C938 C 0.41467 0.99146 0.29927 0.0
C939 C 0.37511 0.94461 0.27519 0.0
C940 C 0.40425 0.98139 0.40796 0.0
C941 C 0.38547 0.93255 0.37701 0.0
H942 H 0.38785 0.9639 0.22241 0.0
H943 H 0.41033 0.98917 0.23496 0.0
H944 H 0.42858 0.01705 0.33282 0.0
H945 H 0.42147 0.01148 0.39152 0.0
H946 H 0.39842 0.96113 0.4581 0.0
H947 H 0.38954 0.93464 0.44147 0.0
H948 H 0.36609 0.90748 0.34618 0.0
H949 H 0.35839 0.91405 0.2935 0.0
H950 H 0.43083 0.94655 0.29573 0.0
H951 H 0.44629 0.97307 0.37326 0.0
H952 H 0.34244 0.9434 0.37389 0.0
H953 H 0.36051 0.9815 0.31554 0.0
C954 C 0.547 0.9692 0.29366 0.0
C955 C 0.54434 0.97869 0.27579 0.0
C956 C 0.55766 0.98855 0.26322 0.0
C957 C 0.56772 0.98468 0.27427 0.0
N958 N 0.56162 0.97275 0.29269 0.0
Co959 Co 0.5726 0.96457 0.31676 0.0
N960 N 0.59242 0.98081 0.30338 0.0
C961 C 0.59486 0.99155 0.28302 0.0
C962 C 0.60954 1.00139 0.27887 0.0
C963 C 0.61695 0.99671 0.29775 0.0
C964 C 0.60632 0.98413 0.31229 0.0
N965 N 0.58345 0.95658 0.34174 0.0
C966 C 0.59816 0.96221 0.34737 0.0
C967 C 0.60093 0.95323 0.36667 0.0
C968 C 0.58751 0.94166 0.37396 0.0
C969 C 0.57732 0.94417 0.3587 0.0
N970 N 0.55279 0.94825 0.32973 0.0
C971 C 0.55023 0.93636 0.3464 0.0
C972 C 0.53546 0.92715 0.35208 0.0
C973 C 0.52816 0.93368 0.33881 0.0
C974 C 0.53895 0.94662 0.32596 0.0
N975 N 0.57333 0.95378 0.2811 0.0
C976 C 0.57905 0.9398 0.23339 0.0
C977 C 0.57468 0.93338 0.26249 0.0
C978 C 0.57168 0.94032 0.2854 0.0
C979 C 0.57983 0.95317 0.22828 0.0
C980 C 0.57689 0.95987 0.25219 0.0
N981 N 0.57228 0.97526 0.35227 0.0
C982 C 0.57002 0.97612 0.40666 0.0
C983 C 0.57662 0.99102 0.40467 0.0
C984 C 0.57997 0.99778 0.37567 0.0
C985 C 0.57762 0.98973 0.34992 0.0
C986 C 0.5679 0.96851 0.38039 0.0
H987 H 0.58063 0.99544 0.32837 0.0
H988 H 0.56322 0.9572 0.38347 0.0
H989 H 0.56839 0.9346 0.30658 0.0
H990 H 0.57776 0.97004 0.24673 0.0
C991 C 0.58309 0.99288 0.27054 0.0
C992 C 0.53555 0.95741 0.31242 0.0
C993 C 0.60987 0.97601 0.3352 0.0
C994 C 0.56193 0.93515 0.35987 0.0
H995 H 0.53402 0.97889 0.27281 0.0
H996 H 0.55987 0.99787 0.24898 0.0
H997 H 0.61426 0.01111 0.26463 0.0
H998 H 0.62881 1.00219 0.30085 0.0
H999 H 0.61157 0.9549 0.37476 0.0
H1000 H 0.58541 0.93254 0.3888 0.0
H1001 H 0.53061 0.91723 0.36562 0.0
H1002 H 0.51628 0.92968 0.33953 0.0
H1003 H 0.57395 0.92312 0.26819 0.0
H1004 H 0.58274 0.95852 0.20601 0.0
H1005 H 0.56718 0.97034 0.4285 0.0
H1006 H 0.58472 0.00927 0.37286 0.0
C1007 C 0.06007 0.63033 0.26821 0.0
C1008 C 0.07505 0.6386 0.26076 0.0
C1009 C 0.08272 0.63643 0.28406 0.0
C1010 C 0.07205 0.62689 0.30424 0.0
N1011 N 0.05821 0.62293 0.29491 0.0
Co1012 Co 0.03967 0.60921 0.31653 0.0
N1013 N 0.04985 0.61224 0.35581 0.0
C1014 C 0.06458 0.61775 0.35932 0.0
C1015 C 0.06845 0.61844 0.38927 0.0
C1016 C 0.05532 0.61287 0.4055 0.0
C1017 C 0.0441 0.60903 0.38446 0.0
N1018 N 0.02109 0.59533 0.33808 0.0
C1019 C 0.01771 0.59332 0.3682 0.0
C1020 C 1.00347 0.58207 0.3735 0.0
C1021 C 0.99789 0.57685 0.34566 0.0
C1022 C 0.00899 0.58515 0.32495 0.0
N1023 N 0.0297 0.60648 0.27699 0.0
C1024 C 0.01651 0.5954 0.27027 0.0
C1025 C 0.01156 0.59746 0.24256 0.0
C1026 C 0.02231 0.61058 0.23132 0.0
C1027 C 0.03351 0.61579 0.25254 0.0
N1028 N 0.04394 0.59343 0.309 0.0
C1029 C 0.04662 0.56889 0.29751 0.0
C1030 C 0.04966 0.57958 0.27463 0.0
C1031 C 0.04824 0.59169 0.2808 0.0
C1032 C 0.04277 0.57118 0.32652 0.0
C1033 C 0.04159 0.58344 0.33178 0.0
N1034 N 0.03501 0.62459 0.32417 0.0
C1035 C 0.01683 0.63265 0.32522 0.0
C1036 C 0.02743 0.64611 0.3346 0.0
C1037 C 0.04201 0.64851 0.33876 0.0
C1038 C 0.04556 0.6376 0.33352 0.0
C1039 C 0.02083 0.62218 0.31998 0.0
H1040 H 0.0568 0.63966 0.33697 0.0
H1041 H 0.01233 0.61205 0.31261 0.0
H1042 H 0.05031 0.59951 0.26257 0.0
H1043 H 0.03827 0.58454 0.35426 0.0
C1044 C 0.07442 0.62391 0.33437 0.0
C1045 C 0.04786 0.62924 0.24909 0.0
C1046 C 0.02817 0.60096 0.39225 0.0
C1047 C 0.0076 0.58547 0.29326 0.0
H1048 H 0.07993 0.64556 0.24078 0.0
H1049 H 0.09464 0.64177 0.28669 0.0
H1050 H 0.07951 0.62278 0.39829 0.0
H1051 H 0.05413 0.61154 0.42999 0.0
H1052 H 0.99777 0.57798 0.39521 0.0
H1053 H 0.98687 0.56836 0.34106 0.0
H1054 H 1.00086 0.5908 0.23278 0.0
H1055 H 0.02152 0.61576 0.21043 0.0
H1056 H 0.053 0.57859 0.25195 0.0
H1057 H 0.04011 0.56333 0.34503 0.0
H1058 H 0.00535 0.63002 0.32239 0.0
H1059 H 0.05066 0.65874 0.34579 0.0
C1060 C 0.37221 0.44018 0.31536 0.0
C1061 C 0.36262 0.44584 0.31265 0.0
C1062 C 0.36399 0.45307 0.33869 0.0
C1063 C 0.37434 0.45142 0.35568 0.0
N1064 N 0.3795 0.44368 0.34174 0.0
Co1065 Co 0.39426 0.43848 0.35753 0.0
N1066 N 0.39002 0.44121 0.39969 0.0
C1067 C 0.3836 0.44895 0.40827 0.0
C1068 C 0.38232 0.449 0.43931 0.0
C1069 C 0.3884 0.44087 0.45077 0.0
C1070 C 0.39306 0.43631 0.42597 0.0
N1071 N 0.40927 0.43354 0.37335 0.0
C1072 C 0.41081 0.4294 0.4019 0.0
C1073 C 0.42298 0.42711 0.40339 0.0
C1074 C 0.42924 0.43004 0.37461 0.0
C1075 C 0.42057 0.43396 0.35719 0.0
N1076 N 0.39823 0.43567 0.31518 0.0
C1077 C 0.41043 0.43554 0.30469 0.0
C1078 C 0.40919 0.43201 0.27473 0.0
C1079 C 0.39536 0.42977 0.26617 0.0
C1080 C 0.38893 0.43216 0.2914 0.0
N1081 N 0.40967 0.45867 0.35361 0.0
C1082 C 0.43263 0.48715 0.34703 0.0
C1083 C 0.42222 0.48093 0.32411 0.0
C1084 C 0.41089 0.46672 0.32779 0.0
C1085 C 0.43113 0.47878 0.37344 0.0
C1086 C 0.41961 0.46467 0.37633 0.0
N1087 N 0.37907 0.4183 0.36113 0.0
C1088 C 0.37184 0.39379 0.35152 0.0
C1089 C 0.35713 0.38959 0.35962 0.0
C1090 C 0.35364 0.39997 0.36942 0.0
C1091 C 0.36485 0.41426 0.37049 0.0
C1092 C 0.38256 0.40814 0.35214 0.0
H1093 H 0.36195 0.42211 0.37803 0.0
H1094 H 0.39362 0.41104 0.34438 0.0
H1095 H 0.40319 0.46219 0.30958 0.0
H1096 H 0.41883 0.45857 0.39696 0.0
C1097 C 0.3769 0.45397 0.38673 0.0
C1098 C 0.37433 0.43159 0.29275 0.0
C1099 C 0.40138 0.42838 0.42795 0.0
C1100 C 0.42082 0.4353 0.32522 0.0
H1101 H 0.35525 0.44463 0.2941 0.0
H1102 H 0.35753 0.45811 0.3452 0.0
H1103 H 0.37716 0.45395 0.45208 0.0
H1104 H 0.38943 0.43869 0.47458 0.0
H1105 H 0.42691 0.42369 0.42314 0.0
H1106 H 0.43857 0.42882 0.36708 0.0
H1107 H 0.41694 0.43028 0.26128 0.0
H1108 H 0.39059 0.4265 0.24412 0.0
H1109 H 0.42295 0.48689 0.30316 0.0
H1110 H 0.43873 0.48314 0.39198 0.0
H1111 H 0.37495 0.3861 0.34359 0.0
H1112 H 0.34236 0.39708 0.37597 0.0
C1113 C 0.27275 0.23529 0.3742 0.0
C1114 C 0.25759 0.22995 0.37873 0.0
C1115 C 0.25086 0.22319 0.35284 0.0
C1116 C 0.26223 0.22484 0.3339 0.0
N1117 N 0.27564 0.23221 0.34636 0.0
Co1118 Co 0.29499 0.23762 0.3266 0.0
N1119 N 0.28637 0.23525 0.28568 0.0
C1120 C 0.27187 0.22763 0.27935 0.0
C1121 C 0.26921 0.22748 0.24881 0.0
C1122 C 0.28292 0.2354 0.23509 0.0
C1123 C 0.29321 0.23999 0.25817 0.0
N1124 N 0.31431 0.24276 0.30675 0.0
C1125 C 0.31884 0.24678 0.27741 0.0
C1126 C 0.3333 0.2493 0.27324 0.0
C1127 C 0.33777 0.24648 0.30088 0.0
C1128 C 0.32588 0.24247 0.32042 0.0
N1129 N 0.30344 0.24011 0.36764 0.0
C1130 C 0.31611 0.24012 0.37514 0.0
C1131 C 0.31922 0.24249 0.40541 0.0
C1132 C 0.30775 0.24404 0.41749 0.0
C1133 C 0.29829 0.24257 0.39382 0.0
N1134 N 0.29037 0.21743 0.3285 0.0
C1135 C 0.28585 0.18924 0.33153 0.0
C1136 C 0.29075 0.19769 0.30455 0.0
C1137 C 0.293 0.21168 0.30355 0.0
C1138 C 0.28317 0.1952 0.35702 0.0
C1139 C 0.28532 0.20924 0.35494 0.0
N1140 N 0.29988 0.25778 0.32504 0.0
C1141 C 0.31757 0.28222 0.33423 0.0
C1142 C 0.30685 0.28657 0.32909 0.0
C1143 C 0.29262 0.27613 0.32068 0.0
C1144 C 0.28943 0.26186 0.31847 0.0
C1145 C 0.31384 0.26789 0.33245 0.0
H1146 H 0.2784 0.25405 0.3122 0.0
H1147 H 0.32228 0.26497 0.33773 0.0
H1148 H 0.2971 0.21789 0.28254 0.0
H1149 H 0.28305 0.21352 0.37482 0.0
C1150 C 0.26108 0.22258 0.3027 0.0
C1151 C 0.28409 0.24267 0.39697 0.0
C1152 C 0.30936 0.2474 0.25297 0.0
C1153 C 0.32598 0.24078 0.35225 0.0
H1154 H 0.25194 0.23097 0.39842 0.0
H1155 H 0.23918 0.21844 0.34778 0.0
H1156 H 0.25858 0.2225 0.23783 0.0
H1157 H 0.2851 0.2373 0.21086 0.0
H1158 H 0.33992 0.25277 0.25247 0.0
H1159 H 0.3486 0.24774 0.30628 0.0
H1160 H 0.32899 0.24366 0.41703 0.0
H1161 H 0.30651 0.24608 0.4409 0.0
H1162 H 0.29308 0.19359 0.28434 0.0
H1163 H 0.27923 0.189 0.37826 0.0
H1164 H 0.32886 0.28978 0.33973 0.0
H1165 H 0.28388 0.27883 0.31651 0.0
C1166 C 0.76883 0.04558 0.42072 0.0
C1167 C 0.77505 0.03677 0.42685 0.0
C1168 C 0.78287 0.03729 0.40109 0.0
C1169 C 0.7811 0.04644 0.38084 0.0
N1170 N 0.77272 0.05168 0.39245 0.0
Co1171 Co 0.76758 0.06531 0.37166 0.0
N1172 N 0.77093 0.05978 0.33133 0.0
C1173 C 0.77918 0.05344 0.32555 0.0
C1174 C 0.77978 0.05122 0.2952 0.0
C1175 C 0.77149 0.05661 0.28115 0.0
C1176 C 0.76625 0.06182 0.30383 0.0
N1177 N 0.76259 0.07909 0.35075 0.0
C1178 C 0.75871 0.07966 0.32156 0.0
C1179 C 0.75607 0.09114 0.31635 0.0
C1180 C 0.75866 0.09803 0.34322 0.0
C1181 C 0.76266 0.09039 0.36335 0.0
N1182 N 0.76417 0.07054 0.41234 0.0
C1183 C 0.76377 0.08255 0.41872 0.0
C1184 C 0.75921 0.08223 0.44817 0.0
C1185 C 0.75661 0.06924 0.46085 0.0
C1186 C 0.76001 0.06236 0.43857 0.0
N1187 N 0.78856 0.08037 0.37204 0.0
C1188 C 0.81801 0.103 0.3717 0.0
C1189 C 0.8114 0.09463 0.39833 0.0
C1190 C 0.79672 0.08327 0.39794 0.0
C1191 C 0.80949 0.09978 0.34546 0.0
C1192 C 0.79491 0.08859 0.34613 0.0
N1193 N 0.74664 0.05064 0.37113 0.0
C1194 C 0.72109 0.04412 0.38093 0.0
C1195 C 0.71646 0.03017 0.3723 0.0
C1196 C 0.72725 0.02668 0.36246 0.0
C1197 C 0.74234 0.03707 0.36231 0.0
C1198 C 0.73609 0.05415 0.37994 0.0
H1199 H 0.75054 0.03415 0.35525 0.0
H1200 H 0.73915 0.06478 0.38659 0.0
H1201 H 0.79194 0.07689 0.41861 0.0
H1202 H 0.78873 0.08672 0.32552 0.0
C1203 C 0.78418 0.04787 0.34947 0.0
C1204 C 0.75969 0.04834 0.44229 0.0
C1205 C 0.75827 0.06994 0.29827 0.0
C1206 C 0.76367 0.09171 0.39501 0.0
H1207 H 0.7739 0.03052 0.44756 0.0
H1208 H 0.78845 0.03111 0.3971 0.0
H1209 H 0.78524 0.04596 0.28461 0.0
H1210 H 0.76975 0.05693 0.25697 0.0
H1211 H 0.75263 0.09421 0.29546 0.0
H1212 H 0.75713 0.10712 0.34783 0.0
H1213 H 0.7568 0.08994 0.45849 0.0
H1214 H 0.75218 0.0653 0.48349 0.0
H1215 H 0.8176 0.09667 0.4191 0.0
H1216 H 0.81403 0.10601 0.32443 0.0
H1217 H 0.7131 0.04732 0.38825 0.0
H1218 H 0.72409 0.01598 0.35559 0.0
C1219 C 0.91132 0.69892 0.40266 0.0
C1220 C 0.89852 0.68831 0.41713 0.0
C1221 C 0.90133 0.67745 0.42548 0.0
C1222 C 0.91554 0.68191 0.41543 0.0
N1223 N 0.92211 0.69506 0.40141 0.0
Co1224 Co 0.94224 0.70493 0.38083 0.0
N1225 N 0.94573 0.68829 0.39078 0.0
C1226 C 0.93662 0.6762 0.40714 0.0
C1227 C 0.94207 0.66682 0.41094 0.0
C1228 C 0.95554 0.67331 0.39628 0.0
C1229 C 0.95751 0.68633 0.38428 0.0
N1230 N 0.96218 0.71462 0.35953 0.0
C1231 C 0.97233 0.71009 0.35555 0.0
C1232 C 0.98468 0.72015 0.33902 0.0
C1233 C 0.98231 0.73147 0.33242 0.0
C1234 C 0.96868 0.72768 0.34516 0.0
N1235 N 0.93878 0.72163 0.37139 0.0
C1236 C 0.94843 0.73422 0.35735 0.0
C1237 C 0.94297 0.74361 0.3537 0.0
C1238 C 0.92892 0.73656 0.36587 0.0
C1239 C 0.92657 0.72318 0.37615 0.0
N1240 N 0.9519 0.71343 0.41963 0.0
C1241 C 0.97036 0.72281 0.47071 0.0
C1242 C 0.97334 0.73163 0.44447 0.0
C1243 C 0.96393 0.72686 0.41965 0.0
C1244 C 0.95711 0.7098 0.47186 0.0
C1245 C 0.94809 0.7054 0.44639 0.0
N1246 N 0.93304 0.6964 0.34201 0.0
C1247 C 0.93236 0.69847 0.28721 0.0
C1248 C 0.92456 0.68363 0.28556 0.0
C1249 C 0.91997 0.67537 0.31273 0.0
C1250 C 0.92417 0.68193 0.34049 0.0
C1251 C 0.93642 0.7046 0.31551 0.0
H1252 H 0.92058 0.67505 0.3604 0.0
H1253 H 0.94279 0.71596 0.31531 0.0
H1254 H 0.967 0.73403 0.4003 0.0
H1255 H 0.93836 0.69525 0.44858 0.0
C1256 C 0.92278 0.67375 0.41774 0.0
C1257 C 0.91248 0.71228 0.38987 0.0
C1258 C 0.97085 0.6965 0.36725 0.0
C1259 C 0.96196 0.73636 0.34525 0.0
H1260 H 0.88809 0.68826 0.42082 0.0
H1261 H 0.89376 0.66735 0.43683 0.0
H1262 H 0.93684 0.65646 0.42284 0.0
H1263 H 0.96307 0.66896 0.39467 0.0
H1264 H 0.99444 0.7194 0.33263 0.0
H1265 H 0.98971 0.74135 0.32012 0.0
H1266 H 0.94838 0.75416 0.34264 0.0
H1267 H 0.92119 0.74072 0.36662 0.0
H1268 H 0.98328 0.74192 0.44231 0.0
H1269 H 0.95384 0.70281 0.4921 0.0
H1270 H 0.93604 0.70532 0.26675 0.0
H1271 H 0.91352 0.66383 0.31256 0.0
C1272 C 0.42797 0.04108 0.74933 0.0
C1273 C 0.42194 0.03098 0.77325 0.0
C1274 C 0.42072 0.01847 0.76325 0.0
C1275 C 0.42586 0.02144 0.73369 0.0
N1276 N 0.43024 0.03506 0.72447 0.0
Co1277 Co 0.43691 0.04312 0.68233 0.0
N1278 N 0.42774 0.02388 0.66443 0.0
C1279 C 0.42359 0.01153 0.6805 0.0
C1280 C 0.41802 0.99985 0.66276 0.0
C1281 C 0.41889 0.00517 0.63358 0.0
C1282 C 0.42494 0.01988 0.63502 0.0
N1283 N 0.44364 0.05124 0.64023 0.0
C1284 C 0.43972 0.04511 0.61268 0.0
C1285 C 0.44754 0.05511 0.58942 0.0
C1286 C 0.45688 0.06765 0.60283 0.0
C1287 C 0.45425 0.06476 0.63351 0.0
N1288 N 0.44566 0.0622 0.70052 0.0
C1289 C 0.45615 0.07443 0.68712 0.0
C1290 C 0.45972 0.08608 0.70434 0.0
C1291 C 0.45087 0.08082 0.73012 0.0
C1292 C 0.44228 0.0662 0.72725 0.0
N1293 N 0.45566 0.04249 0.68787 0.0
C1294 C 0.48395 0.0443 0.69098 0.0
C1295 C 0.47835 0.04878 0.71493 0.0
C1296 C 0.46417 0.04776 0.71296 0.0
C1297 C 0.47466 0.03822 0.66638 0.0
C1298 C 0.46076 0.03749 0.66519 0.0
N1299 N 0.41865 0.04398 0.67649 0.0
C1300 C 0.40639 0.05745 0.66147 0.0
C1301 C 0.39294 0.04634 0.67275 0.0
C1302 C 0.39248 0.03386 0.68513 0.0
C1303 C 0.40545 0.03285 0.68655 0.0
C1304 C 0.41916 0.05609 0.66374 0.0
H1305 H 0.40484 0.02316 0.69619 0.0
H1306 H 0.42947 0.06495 0.65564 0.0
H1307 H 0.46028 0.05158 0.73133 0.0
H1308 H 0.45435 0.03319 0.64526 0.0
C1309 C 0.4234 0.01118 0.71233 0.0
C1310 C 0.43183 0.05635 0.75122 0.0
C1311 C 0.42968 0.02969 0.60773 0.0
C1312 C 0.45989 0.07483 0.65628 0.0
H1313 H 0.4184 0.0323 0.79544 0.0
H1314 H 0.41569 0.00819 0.77544 0.0
H1315 H 0.41364 0.98875 0.67017 0.0
H1316 H 0.41581 0.99893 0.61348 0.0
H1317 H 0.44673 0.05351 0.56526 0.0
H1318 H 0.46441 0.07776 0.59145 0.0
H1319 H 0.46727 0.09718 0.69823 0.0
H1320 H 0.45069 0.08702 0.74881 0.0
H1321 H 0.48503 0.0535 0.73454 0.0
H1322 H 0.47817 0.03417 0.64769 0.0
H1323 H 0.40706 0.06717 0.65149 0.0
H1324 H 0.38213 0.02489 0.69337 0.0
C1325 C 0.97121 0.38197 0.74851 0.0
C1326 C 0.98148 0.38532 0.77148 0.0
C1327 C 0.99459 0.39638 0.76033 0.0
C1328 C 0.99176 0.39914 0.73111 0.0
N1329 N 0.97769 0.39047 0.72309 0.0
Co1330 Co 0.96956 0.39052 0.68199 0.0
N1331 N 0.98967 0.40124 0.66233 0.0
C1332 C 1.00239 0.40861 0.67728 0.0
C1333 C 0.01466 0.41512 0.65835 0.0
C1334 C 0.00935 0.41181 0.62959 0.0
C1335 C 0.99405 0.40346 0.63247 0.0
N1336 N 0.96144 0.39062 0.64092 0.0
C1337 C 0.96809 0.39389 0.61273 0.0
C1338 C 0.95807 0.39301 0.5907 0.0
C1339 C 0.94486 0.38922 0.60555 0.0
C1340 C 0.94746 0.388 0.63582 0.0
N1341 N 0.94954 0.37962 0.70188 0.0
C1342 C 0.9369 0.3782 0.6899 0.0
C1343 C 0.92469 0.36997 0.70829 0.0
C1344 C 0.93 0.366 0.73343 0.0
C1345 C 0.94522 0.37199 0.72905 0.0
N1346 N 0.96982 0.40867 0.68968 0.0
C1347 C 0.96854 0.43403 0.69899 0.0
C1348 C 0.9743 0.43208 0.67181 0.0
C1349 C 0.97482 0.41941 0.66762 0.0
C1350 C 0.96366 0.423 0.72162 0.0
C1351 C 0.96446 0.4105 0.7166 0.0
N1352 N 0.96903 0.37252 0.67429 0.0
C1353 C 0.95541 0.34825 0.65899 0.0
C1354 C 0.96691 0.34578 0.66877 0.0
C1355 C 0.97971 0.35704 0.68034 0.0
C1356 C 0.9806 0.37037 0.68265 0.0
C1357 C 0.95666 0.3617 0.66215 0.0
H1358 H 0.99052 0.37886 0.69173 0.0
H1359 H 0.94745 0.36323 0.65535 0.0
H1360 H 0.97917 0.41831 0.64626 0.0
H1361 H 0.96053 0.40223 0.7344 0.0
C1362 C 1.00256 0.40754 0.70902 0.0
C1363 C 0.95531 0.3712 0.75223 0.0
C1364 C 0.98408 0.3992 0.60619 0.0
C1365 C 0.93674 0.38264 0.65951 0.0
H1366 H 0.97979 0.38023 0.7939 0.0
H1367 H 1.00514 0.40127 0.77164 0.0
H1368 H 0.02615 0.42126 0.66472 0.0
H1369 H 0.01598 0.41535 0.60881 0.0
H1370 H 0.96017 0.39511 0.56648 0.0
H1371 H 0.93451 0.38728 0.59536 0.0
H1372 H 0.9132 0.36676 0.70352 0.0
H1373 H 0.92344 0.3595 0.75283 0.0
H1374 H 0.97852 0.44033 0.65381 0.0
H1375 H 0.95897 0.42383 0.74295 0.0
H1376 H 0.94544 0.33979 0.64967 0.0
H1377 H 0.98898 0.35555 0.68743 0.0
C1378 C 0.62672 0.58414 0.7614 0.0
C1379 C 0.62049 0.5873 0.78592 0.0
C1380 C 0.60773 0.58708 0.77588 0.0
C1381 C 0.6067 0.58364 0.74593 0.0
N1382 N 0.61798 0.58164 0.73661 0.0
Co1383 Co 0.62011 0.57599 0.69524 0.0
N1384 N 0.60688 0.5829 0.67676 0.0
C1385 C 0.59717 0.5853 0.69261 0.0
C1386 C 0.58911 0.58963 0.67442 0.0
C1387 C 0.59391 0.58981 0.64524 0.0
C1388 C 0.6047 0.58556 0.64713 0.0
N1389 N 0.62222 0.57029 0.6538 0.0
C1390 C 0.61866 0.57374 0.62596 0.0
C1391 C 0.62191 0.56689 0.60339 0.0
C1392 C 0.62742 0.5588 0.61757 0.0
C1393 C 0.62729 0.56112 0.64799 0.0
N1394 N 0.63358 0.56945 0.71412 0.0
C1395 C 0.63764 0.56062 0.70125 0.0
C1396 C 0.64838 0.55928 0.71732 0.0
C1397 C 0.65123 0.56778 0.74179 0.0
C1398 C 0.64188 0.57376 0.73982 0.0
N1399 N 0.60276 0.55694 0.70333 0.0
C1400 C 0.57739 0.53 0.715 0.0
C1401 C 0.58864 0.53611 0.73654 0.0
C1402 C 0.60114 0.54952 0.73032 0.0
C1403 C 0.57937 0.53772 0.68732 0.0
C1404 C 0.59204 0.55101 0.68195 0.0
N1405 N 0.63718 0.59466 0.68718 0.0
C1406 C 0.66267 0.60889 0.67115 0.0
C1407 C 0.66261 0.62114 0.68096 0.0
C1408 C 0.64945 0.61996 0.69305 0.0
C1409 C 0.63683 0.60662 0.69584 0.0
C1410 C 0.64983 0.59575 0.67448 0.0
H1411 H 0.62686 0.60593 0.70548 0.0
H1412 H 0.65025 0.58643 0.66739 0.0
H1413 H 0.60948 0.55392 0.74747 0.0
H1414 H 0.59302 0.55656 0.66043 0.0
C1415 C 0.59724 0.58496 0.72454 0.0
C1416 C 0.64054 0.58297 0.76296 0.0
C1417 C 0.61115 0.58247 0.6202 0.0
C1418 C 0.63395 0.55681 0.67101 0.0
H1419 H 0.62477 0.5896 0.80865 0.0
H1420 H 0.60047 0.58977 0.78856 0.0
H1421 H 0.58088 0.59254 0.6815 0.0
H1422 H 0.58968 0.59242 0.62485 0.0
H1423 H 0.62035 0.56757 0.57921 0.0
H1424 H 0.63147 0.55237 0.60682 0.0
H1425 H 0.65429 0.55369 0.71083 0.0
H1426 H 0.65965 0.56959 0.75826 0.0
H1427 H 0.58788 0.53058 0.7581 0.0
H1428 H 0.57104 0.53371 0.67 0.0
H1429 H 0.67263 0.60942 0.66157 0.0
H1430 H 0.64887 0.62927 0.70017 0.0
C1431 C 0.71682 0.75969 0.59324 0.0
C1432 C 0.70859 0.75708 0.56699 0.0
C1433 C 0.69538 0.75651 0.57488 0.0
C1434 C 0.69623 0.75893 0.60538 0.0
N1435 N 0.70915 0.76099 0.61717 0.0
Co1436 Co 0.71469 0.76541 0.66034 0.0
N1437 N 0.69373 0.75764 0.67451 0.0
C1438 C 0.68242 0.75562 0.65637 0.0
C1439 C 0.66915 0.75039 0.67203 0.0
C1440 C 0.67234 0.74916 0.70193 0.0
C1441 C 0.68744 0.75368 0.70296 0.0
N1442 N 0.7202 0.76986 0.70358 0.0
C1443 C 0.71185 0.76506 0.72983 0.0
C1444 C 0.72062 0.77097 0.75479 0.0
C1445 C 0.73475 0.77989 0.74377 0.0
C1446 C 0.73393 0.77892 0.71277 0.0
N1447 N 0.73559 0.77288 0.64595 0.0
C1448 C 0.74761 0.78112 0.66214 0.0
C1449 C 0.76053 0.7829 0.64907 0.0
C1450 C 0.7564 0.77542 0.62301 0.0
C1451 C 0.74111 0.76972 0.62079 0.0
N1452 N 0.71629 0.78445 0.65324 0.0
C1453 C 0.71757 0.81123 0.64198 0.0
C1454 C 0.71087 0.80296 0.66864 0.0
C1455 C 0.71035 0.78969 0.6738 0.0
C1456 C 0.72389 0.80583 0.62142 0.0
C1457 C 0.72316 0.79251 0.62745 0.0
N1458 N 0.7132 0.74672 0.66725 0.0
C1459 C 0.72426 0.7324 0.68405 0.0
C1460 C 0.71311 0.72072 0.66995 0.0
C1461 C 0.70164 0.72199 0.6557 0.0
C1462 C 0.70181 0.73509 0.65489 0.0
C1463 C 0.72413 0.74539 0.68233 0.0
H1464 H 0.69296 0.73591 0.64352 0.0
H1465 H 0.7331 0.75441 0.69247 0.0
H1466 H 0.70493 0.78358 0.69436 0.0
H1467 H 0.72804 0.78868 0.61105 0.0
C1468 C 0.6844 0.75685 0.62463 0.0
C1469 C 0.73227 0.762 0.594 0.0
C1470 C 0.69557 0.7555 0.73163 0.0
C1471 C 0.74604 0.78395 0.69238 0.0
H1472 H 0.71178 0.75583 0.5444 0.0
H1473 H 0.68606 0.75409 0.5603 0.0
H1474 H 0.65836 0.7475 0.66278 0.0
H1475 H 0.66452 0.74564 0.72089 0.0
H1476 H 0.71727 0.76901 0.7785 0.0
H1477 H 0.74458 0.78581 0.75696 0.0
H1478 H 0.77152 0.78807 0.65852 0.0
H1479 H 0.7639 0.77403 0.60811 0.0
H1480 H 0.70569 0.80651 0.68514 0.0
H1481 H 0.72942 0.81185 0.60073 0.0
H1482 H 0.73312 0.73158 0.69564 0.0
H1483 H 0.69269 0.71295 0.64515 0.0
C1484 C 0.2543 0.96184 0.60894 0.0
C1485 C 0.25757 0.95602 0.58435 0.0
C1486 C 0.25805 0.94404 0.59532 0.0
C1487 C 0.25487 0.94306 0.62587 0.0
N1488 N 0.25238 0.95363 0.63473 0.0
Co1489 Co 0.24673 0.9555 0.67676 0.0
N1490 N 0.25464 0.94323 0.69513 0.0
C1491 C 0.25767 0.93432 0.67952 0.0
C1492 C 0.26317 0.92724 0.69746 0.0
C1493 C 0.26345 0.93182 0.72626 0.0
C1494 C 0.25791 0.94137 0.72449 0.0
N1495 N 0.24094 0.95727 0.71883 0.0
C1496 C 0.24506 0.95415 0.74637 0.0
C1497 C 0.23762 0.9566 0.76971 0.0
C1498 C 0.22864 0.96137 0.75635 0.0
C1499 C 0.23096 0.96152 0.72561 0.0
N1500 N 0.23916 0.96798 0.65802 0.0
C1501 C 0.22977 0.97146 0.67188 0.0
C1502 C 0.22775 0.98149 0.65521 0.0
C1503 C 0.23635 0.98447 0.62929 0.0
C1504 C 0.24308 0.9759 0.63109 0.0
N1505 N 0.22724 0.93849 0.67234 0.0
C1506 C 0.19964 0.91383 0.66537 0.0
C1507 C 0.20768 0.91577 0.69211 0.0
C1508 C 0.22138 0.9281 0.69513 0.0
C1509 C 0.20569 0.9247 0.64241 0.0
C1510 C 0.21943 0.93687 0.64632 0.0
N1511 N 0.26583 0.97239 0.68099 0.0
C1512 C 0.27948 0.99734 0.69113 0.0
C1513 C 0.29194 0.99819 0.6767 0.0
C1514 C 0.29148 0.98583 0.66608 0.0
C1515 C 0.27831 0.97293 0.66885 0.0
C1516 C 0.26647 0.9843 0.69294 0.0
H1517 H 0.27804 0.96354 0.66005 0.0
H1518 H 0.25677 0.98403 0.70283 0.0
H1519 H 0.22728 0.92913 0.7159 0.0
H1520 H 0.22377 0.94496 0.62814 0.0
C1521 C 0.257 0.93432 0.64767 0.0
C1522 C 0.25253 0.97484 0.60664 0.0
C1523 C 0.25479 0.94759 0.75127 0.0
C1524 C 0.226 0.9677 0.70282 0.0
H1525 H 0.2595 0.96004 0.56096 0.0
H1526 H 0.26104 0.93727 0.58273 0.0
H1527 H 0.26695 0.91992 0.69035 0.0
H1528 H 0.26723 0.92838 0.74616 0.0
H1529 H 0.23844 0.95492 0.79386 0.0
H1530 H 0.22159 0.96473 0.76778 0.0
H1531 H 0.22158 0.9868 0.66202 0.0
H1532 H 0.23771 0.99236 0.61182 0.0
H1533 H 0.20363 0.90766 0.7104 0.0
H1534 H 0.19985 0.92388 0.62151 0.0
H1535 H 0.27967 0.00675 0.7 0.0
H1536 H 0.30116 0.9862 0.65544 0.0
C1537 C 0.05414 0.29051 0.60486 0.0
C1538 C 0.0594 0.29797 0.57719 0.0
C1539 C 0.07158 0.31077 0.58325 0.0
C1540 C 0.07323 0.31043 0.61417 0.0
N1541 N 0.06291 0.29818 0.62786 0.0
Co1542 Co 0.06141 0.29363 0.67237 0.0
N1543 N 0.07317 0.3141 0.68261 0.0
C1544 C 0.08185 0.32476 0.66266 0.0
C1545 C 0.08887 0.33783 0.67555 0.0
C1546 C 0.08456 0.33522 0.70562 0.0
C1547 C 0.07518 0.3206 0.70964 0.0
N1548 N 0.0599 0.28898 0.71696 0.0
C1549 C 0.06315 0.29745 0.74134 0.0
C1550 C 0.06102 0.28945 0.76826 0.0
C1551 C 0.05646 0.27566 0.76049 0.0
C1552 C 0.05608 0.27593 0.72934 0.0
N1553 N 0.04939 0.2733 0.66172 0.0
C1554 C 0.04629 0.26198 0.68063 0.0
C1555 C 0.03588 0.24935 0.66922 0.0
C1556 C 0.03222 0.25293 0.6415 0.0
C1557 C 0.04091 0.26763 0.6368 0.0
N1558 N 0.07984 0.29221 0.67032 0.0
C1559 C 0.10596 0.28966 0.66998 0.0
C1560 C 0.09515 0.28337 0.64773 0.0
C1561 C 0.0822 0.28478 0.64828 0.0
C1562 C 0.10347 0.29757 0.69172 0.0
C1563 C 0.09045 0.29861 0.69165 0.0
N1564 N 0.04322 0.2949 0.67441 0.0
C1565 C 0.01729 0.28394 0.68795 0.0
C1566 C 0.01586 0.29397 0.66909 0.0
C1567 C 0.02842 0.30489 0.65419 0.0
C1568 C 0.04207 0.3053 0.65753 0.0
C1569 C 0.0311 0.28454 0.69014 0.0
H1570 H 0.0516 0.31375 0.64568 0.0
H1571 H 0.03183 0.27635 0.70378 0.0
H1572 H 0.07401 0.27972 0.63109 0.0
H1573 H 0.089 0.30455 0.70923 0.0
C1574 C 0.08183 0.32229 0.63157 0.0
C1575 C 0.04129 0.27591 0.6083 0.0
C1576 C 0.0699 0.31322 0.73994 0.0
C1577 C 0.0502 0.26397 0.71126 0.0
H1578 H 0.05486 0.29461 0.55497 0.0
H1579 H 0.07792 0.31959 0.56718 0.0
H1580 H 0.0961 0.34809 0.66437 0.0
H1581 H 0.08821 0.34313 0.72277 0.0
H1582 H 0.06286 0.29323 0.79112 0.0
H1583 H 0.05348 0.26648 0.7758 0.0
H1584 H 0.03059 0.23891 0.68077 0.0
H1585 H 0.02365 0.24548 0.62728 0.0
H1586 H 0.09647 0.27712 0.63042 0.0
H1587 H 0.11155 0.30302 0.70893 0.0
H1588 H 0.00778 0.27556 0.70029 0.0
H1589 H 0.0277 0.31308 0.64019 0.0
C1590 C 0.2127 0.30148 0.62795 0.0
C1591 C 0.20955 0.31092 0.61113 0.0
C1592 C 0.22279 0.32183 0.60065 0.0
C1593 C 0.23328 0.31858 0.61184 0.0
N1594 N 0.22756 0.30604 0.62815 0.0
Co1595 Co 0.23904 0.29847 0.65235 0.0
N1596 N 0.25845 0.31584 0.64157 0.0
C1597 C 0.26053 0.32693 0.62264 0.0
C1598 C 0.27511 0.33707 0.61844 0.0
C1599 C 0.28287 0.33205 0.63533 0.0
C1600 C 0.2725 0.31908 0.64889 0.0
N1601 N 0.25033 0.29118 0.678 0.0
C1602 C 0.26514 0.29695 0.68272 0.0
C1603 C 0.26824 0.2884 0.7026 0.0
C1604 C 0.25494 0.27676 0.71053 0.0
C1605 C 0.24449 0.27886 0.6952 0.0
N1606 N 0.21965 0.28084 0.66191 0.0
C1607 C 0.21769 0.26883 0.67729 0.0
C1608 C 0.20305 0.25869 0.681 0.0
C1609 C 0.19522 0.26471 0.66785 0.0
C1610 C 0.20555 0.27828 0.65704 0.0
N1611 N 0.24185 0.28919 0.61614 0.0
C1612 C 0.2483 0.27637 0.56713 0.0
C1613 C 0.24551 0.27023 0.59658 0.0
C1614 C 0.24214 0.27655 0.6201 0.0
C1615 C 0.24776 0.28918 0.56262 0.0
C1616 C 0.24452 0.29536 0.58728 0.0
N1617 N 0.23646 0.30757 0.68876 0.0
C1618 C 0.22794 0.30519 0.74086 0.0
C1619 C 0.234 0.31994 0.7424 0.0
C1620 C 0.24116 0.32849 0.71645 0.0
C1621 C 0.24204 0.32209 0.68977 0.0
C1622 C 0.22939 0.29932 0.71429 0.0
H1623 H 0.24736 0.32905 0.67032 0.0
H1624 H 0.22483 0.28803 0.71529 0.0
H1625 H 0.24006 0.271 0.64147 0.0
H1626 H 0.24433 0.30516 0.58252 0.0
C1627 C 0.24853 0.3277 0.60991 0.0
C1628 C 0.20144 0.28883 0.645 0.0
C1629 C 0.27664 0.31008 0.66776 0.0
C1630 C 0.22943 0.26871 0.69329 0.0
H1631 H 0.19891 0.31041 0.60758 0.0
H1632 H 0.22461 0.33139 0.58777 0.0
H1633 H 0.27957 0.34691 0.60467 0.0
H1634 H 0.29482 0.33728 0.63722 0.0
H1635 H 0.27904 0.29024 0.70996 0.0
H1636 H 0.25316 0.26758 0.72482 0.0
H1637 H 0.19856 0.24857 0.69375 0.0
H1638 H 0.18325 0.26 0.66768 0.0
H1639 H 0.24615 0.26057 0.60194 0.0
H1640 H 0.24971 0.29438 0.54025 0.0
H1641 H 0.22243 0.29817 0.76051 0.0
H1642 H 0.24593 0.34 0.71668 0.0
C1643 C 0.73039 0.96506 0.60764 0.0
C1644 C 0.74564 0.97365 0.60485 0.0
C1645 C 0.75158 0.97087 0.6306 0.0
C1646 C 0.73964 0.96075 0.64752 0.0
N1647 N 0.72669 0.95704 0.63378 0.0
Co1648 Co 0.70683 0.94305 0.64946 0.0
N1649 N 0.71384 0.94527 0.69155 0.0
C1650 C 0.72801 0.9503 0.69999 0.0
C1651 C 0.72938 0.95034 0.73102 0.0
C1652 C 0.71518 0.94494 0.74259 0.0
C1653 C 0.70593 0.94191 0.71785 0.0
N1654 N 0.68692 0.92892 0.66518 0.0
C1655 C 0.68121 0.92686 0.69375 0.0
C1656 C 0.66671 0.91577 0.69505 0.0
C1657 C 0.66342 0.91073 0.66617 0.0
C1658 C 0.67604 0.91901 0.64885 0.0
N1659 N 0.7001 0.94112 0.60703 0.0
C1660 C 0.68786 0.93011 0.59636 0.0
C1661 C 0.68542 0.9327 0.56664 0.0
C1662 C 0.69679 0.94614 0.55846 0.0
C1663 C 0.70567 0.95104 0.58366 0.0
N1664 N 0.71168 0.92745 0.6451 0.0
C1665 C 0.71557 0.90336 0.63675 0.0
C1666 C 0.72037 0.91458 0.61452 0.0
C1667 C 0.71831 0.92646 0.61908 0.0
C1668 C 0.7093 0.90486 0.66375 0.0
C1669 C 0.70754 0.91692 0.6675 0.0
N1670 N 0.70158 0.95829 0.65365 0.0
C1671 C 0.68422 0.96687 0.64307 0.0
C1672 C 0.69371 0.97996 0.65535 0.0
C1673 C 0.70713 0.98195 0.66763 0.0
C1674 C 0.71093 0.97096 0.66633 0.0
C1675 C 0.68825 0.95619 0.64273 0.0
H1676 H 0.72146 0.97274 0.67514 0.0
H1677 H 0.68061 0.94627 0.63305 0.0
H1678 H 0.72179 0.93471 0.60124 0.0
H1679 H 0.70237 0.91748 0.68831 0.0
C1680 C 0.7397 0.95698 0.67842 0.0
C1681 C 0.71958 0.96473 0.58547 0.0
C1682 C 0.68967 0.93483 0.71989 0.0
C1683 C 0.67722 0.91978 0.61684 0.0
H1684 H 0.75173 0.9813 0.58649 0.0
H1685 H 0.76311 0.97626 0.63701 0.0
H1686 H 0.73951 0.95428 0.74375 0.0
H1687 H 0.71199 0.94327 0.76642 0.0
H1688 H 0.6593 0.91176 0.71469 0.0
H1689 H 0.65286 0.90248 0.65851 0.0
H1690 H 0.6759 0.92612 0.55319 0.0
H1691 H 0.69806 0.95165 0.53672 0.0
H1692 H 0.7256 0.9142 0.59351 0.0
H1693 H 0.70525 0.89654 0.68159 0.0
H1694 H 0.67368 0.96488 0.63371 0.0
H1695 H 0.71472 0.99197 0.67742 0.0
C1696 C 0.04338 0.77399 0.64745 0.0
C1697 C 0.03199 0.77743 0.64521 0.0
C1698 C 0.03197 0.78386 0.67161 0.0
C1699 C 0.04324 0.78393 0.68852 0.0
N1700 N 0.05031 0.77799 0.67423 0.0
Co1701 Co 0.06659 0.77507 0.69074 0.0
N1702 N 0.06129 0.77657 0.73319 0.0
C1703 C 0.052 0.78142 0.74168 0.0
C1704 C 0.04774 0.77815 0.77165 0.0
C1705 C 0.05493 0.77101 0.78266 0.0
C1706 C 0.06385 0.77085 0.75911 0.0
N1707 N 0.08316 0.77263 0.70674 0.0
C1708 C 0.08599 0.77016 0.7357 0.0
C1709 C 0.10046 0.77234 0.73764 0.0
C1710 C 0.1065 0.77571 0.70876 0.0
C1711 C 0.09563 0.77578 0.69083 0.0
N1712 N 0.07163 0.77321 0.64856 0.0
C1713 C 0.08482 0.77527 0.63825 0.0
C1714 C 0.08461 0.77259 0.60789 0.0
C1715 C 0.07036 0.76863 0.59883 0.0
C1716 C 0.06272 0.76912 0.62426 0.0
N1717 N 0.08007 0.79582 0.68724 0.0
C1718 C 0.10388 0.82362 0.6765 0.0
C1719 C 0.09282 0.81709 0.65483 0.0
C1720 C 0.08107 0.80326 0.66061 0.0
C1721 C 0.10188 0.81634 0.70478 0.0
C1722 C 0.08984 0.80258 0.70979 0.0
N1723 N 0.05336 0.75436 0.69379 0.0
C1724 C 0.049 0.73054 0.68504 0.0
C1725 C 0.03385 0.72475 0.69259 0.0
C1726 C 0.02888 0.73426 0.70153 0.0
C1727 C 0.03881 0.7489 0.70245 0.0
C1728 C 0.05846 0.74529 0.68542 0.0
H1729 H 0.03459 0.75584 0.70947 0.0
H1730 H 0.06989 0.74939 0.67842 0.0
H1731 H 0.07321 0.7983 0.64284 0.0
H1732 H 0.089 0.79708 0.73133 0.0
C1733 C 0.0446 0.78547 0.71993 0.0
C1734 C 0.04747 0.76684 0.62445 0.0
C1735 C 0.07549 0.7664 0.76181 0.0
C1736 C 0.09598 0.77712 0.65888 0.0
H1737 H 0.02421 0.77519 0.62706 0.0
H1738 H 0.0239 0.787 0.6786 0.0
H1739 H 0.03933 0.77957 0.78344 0.0
H1740 H 0.05297 0.76593 0.80503 0.0
H1741 H 0.10617 0.77175 0.7578 0.0
H1742 H 0.11743 0.77769 0.70171 0.0
H1743 H 0.09351 0.77288 0.59426 0.0
H1744 H 0.06609 0.76581 0.57621 0.0
H1745 H 0.09346 0.82241 0.63303 0.0
H1746 H 0.10996 0.82084 0.72245 0.0
H1747 H 0.05366 0.72381 0.67879 0.0
H1748 H 0.01734 0.73057 0.7072 0.0
C1749 C 0.94536 0.56985 0.70854 0.0
C1750 C 0.93016 0.56482 0.70677 0.0
C1751 C 0.92581 0.55816 0.67976 0.0
C1752 C 0.93854 0.5596 0.66641 0.0
N1753 N 0.9506 0.56677 0.68336 0.0
Co1754 Co 0.97126 0.57191 0.67202 0.0
N1755 N 0.96645 0.5695 0.6284 0.0
C1756 C 0.95275 0.56212 0.6171 0.0
C1757 C 0.95279 0.56189 0.586 0.0
C1758 C 0.96744 0.56948 0.57721 0.0
C1759 C 0.97557 0.57397 0.60358 0.0
N1760 N 0.99188 0.57681 0.66078 0.0
C1761 C 0.99895 0.58064 0.6333 0.0
C1762 C 0.01346 0.58313 0.6358 0.0
C1763 C 0.01533 0.5804 0.66573 0.0
C1764 C 1.00195 0.5765 0.67993 0.0
N1765 N 0.97592 0.57443 0.71567 0.0
C1766 C 0.98759 0.57433 0.72918 0.0
C1767 C 0.98798 0.57668 0.75972 0.0
C1768 C 0.97577 0.57835 0.7656 0.0
C1769 C 0.96864 0.57696 0.73822 0.0
N1770 N 0.9663 0.55169 0.67684 0.0
C1771 C 0.96338 0.52434 0.68842 0.0
C1772 C 0.95729 0.53012 0.70853 0.0
C1773 C 0.9588 0.54373 0.70228 0.0
C1774 C 0.97019 0.53228 0.66151 0.0
C1775 C 0.9715 0.54584 0.65615 0.0
N1776 N 0.97653 0.59214 0.66772 0.0
C1777 C 0.9935 0.61655 0.67879 0.0
C1778 C 0.98355 0.62093 0.66774 0.0
C1779 C 0.97011 0.6107 0.6559 0.0
C1780 C 0.96693 0.59636 0.65559 0.0
C1781 C 0.98973 0.60216 0.67892 0.0
H1782 H 0.95655 0.58864 0.6463 0.0
H1783 H 0.99739 0.59912 0.68899 0.0
H1784 H 0.95436 0.54802 0.71864 0.0
H1785 H 0.9773 0.55182 0.63576 0.0
C1786 C 0.94015 0.55733 0.63591 0.0
C1787 C 0.95448 0.57707 0.73457 0.0
C1788 C 0.99187 0.58088 0.60433 0.0
C1789 C 0.99922 0.57486 0.71148 0.0
H1790 H 0.92294 0.56599 0.72291 0.0
H1791 H 0.91485 0.55363 0.67021 0.0
H1792 H 0.94331 0.55707 0.5714 0.0
H1793 H 0.97163 0.57119 0.55404 0.0
H1794 H 0.0218 0.58646 0.61789 0.0
H1795 H 0.0254 0.58161 0.67604 0.0
H1796 H 0.99647 0.57775 0.77554 0.0
H1797 H 0.97249 0.58037 0.78743 0.0
H1798 H 0.95161 0.5243 0.72929 0.0
H1799 H 0.97513 0.52837 0.64527 0.0
H1800 H 1.00392 0.62414 0.68843 0.0
H1801 H 0.96214 0.61374 0.64715 0.0
C1802 C 0.43609 0.37502 0.74017 0.0
C1803 C 0.44169 0.36549 0.73955 0.0
C1804 C 0.4504 0.36894 0.71369 0.0
C1805 C 0.4495 0.38016 0.69958 0.0
N1806 N 0.44076 0.38394 0.71513 0.0
Co1807 Co 0.43491 0.39831 0.70147 0.0
N1808 N 0.43963 0.39705 0.65872 0.0
C1809 C 0.44869 0.39221 0.64884 0.0
C1810 C 0.44975 0.39269 0.61766 0.0
C1811 C 0.44083 0.39822 0.60755 0.0
C1812 C 0.43481 0.40077 0.63324 0.0
N1813 N 0.42912 0.41272 0.6879 0.0
C1814 C 0.42515 0.41514 0.65993 0.0
C1815 C 0.42173 0.42621 0.66008 0.0
C1816 C 0.42374 0.43082 0.68936 0.0
C1817 C 0.42826 0.42234 0.70541 0.0
N1818 N 0.4302 0.39945 0.74423 0.0
C1819 C 0.42929 0.41036 0.75637 0.0
C1820 C 0.42535 0.40771 0.78673 0.0
C1821 C 0.4237 0.39433 0.79377 0.0
C1822 C 0.42666 0.38952 0.76722 0.0
N1823 N 0.4554 0.41379 0.70656 0.0
C1824 C 0.48339 0.43771 0.7162 0.0
C1825 C 0.47695 0.4261 0.73757 0.0
C1826 C 0.46304 0.4143 0.73231 0.0
C1827 C 0.47564 0.43669 0.68937 0.0
C1828 C 0.46179 0.42473 0.685 0.0
N1829 N 0.41444 0.38316 0.69636 0.0
C1830 C 0.3882 0.37478 0.70231 0.0
C1831 C 0.38484 0.36215 0.68775 0.0
C1832 C 0.39678 0.36026 0.67796 0.0
C1833 C 0.41145 0.37089 0.68232 0.0
C1834 C 0.40295 0.38501 0.70655 0.0
H1835 H 0.42038 0.36924 0.67419 0.0
H1836 H 0.40505 0.39456 0.71778 0.0
H1837 H 0.45829 0.4057 0.74944 0.0
H1838 H 0.45604 0.42458 0.66443 0.0
C1839 C 0.45338 0.38477 0.66903 0.0
C1840 C 0.42668 0.37583 0.76454 0.0
C1841 C 0.42532 0.40751 0.63303 0.0
C1842 C 0.42889 0.42106 0.73728 0.0
H1843 H 0.4395 0.35667 0.75521 0.0
H1844 H 0.45576 0.36318 0.70507 0.0
H1845 H 0.45571 0.38886 0.6039 0.0
H1846 H 0.43898 0.40016 0.58407 0.0
H1847 H 0.41814 0.43045 0.64114 0.0
H1848 H 0.42148 0.43892 0.69813 0.0
H1849 H 0.42311 0.41431 0.80158 0.0
H1850 H 0.42054 0.3887 0.81573 0.0
H1851 H 0.48255 0.42616 0.75841 0.0
H1852 H 0.47995 0.44532 0.67221 0.0
H1853 H 0.37954 0.37701 0.70981 0.0
H1854 H 0.39488 0.35064 0.66702 0.0
C1855 C 0.5777 0.03019 0.73007 0.0
C1856 C 0.56468 0.0194 0.74342 0.0
C1857 C 0.56783 0.00897 0.75418 0.0
C1858 C 0.58247 0.01383 0.74657 0.0
N1859 N 0.58874 0.02668 0.73171 0.0
Co1860 Co 0.60931 0.03708 0.71469 0.0
N1861 N 0.61132 0.01948 0.71636 0.0
C1862 C 0.6025 0.0073 0.73249 0.0
C1863 C 0.60629 0.99678 0.72866 0.0
C1864 C 0.61836 1.00276 0.70925 0.0
C1865 C 0.6214 0.01674 0.70254 0.0
N1866 N 0.62989 0.04762 0.69793 0.0
C1867 C 0.63869 0.04265 0.68648 0.0
C1868 C 0.65268 0.05386 0.67879 0.0
C1869 C 0.65261 0.06621 0.68597 0.0
C1870 C 0.63864 0.0619 0.69766 0.0
N1871 N 0.60711 0.05455 0.71304 0.0
C1872 C 0.61826 0.0681 0.71143 0.0
C1873 C 0.61326 0.07794 0.71044 0.0
C1874 C 0.59803 0.07005 0.71152 0.0
C1875 C 0.5946 0.05579 0.71303 0.0
N1876 N 0.61743 0.04147 0.75576 0.0
C1877 C 0.63432 0.05387 0.80694 0.0
C1878 C 0.62155 0.05502 0.80064 0.0
C1879 C 0.61304 0.04844 0.7753 0.0
C1880 C 0.63769 0.0454 0.78864 0.0
C1881 C 0.62924 0.03943 0.76316 0.0
N1882 N 0.60184 0.03301 0.67332 0.0
C1883 C 0.60426 0.0413 0.62106 0.0
C1884 C 0.59605 0.02725 0.61168 0.0
C1885 C 0.58975 0.01621 0.63426 0.0
C1886 C 0.59265 0.01935 0.66498 0.0
C1887 C 0.60717 0.04391 0.6517 0.0
H1888 H 0.58803 0.01065 0.68182 0.0
H1889 H 0.61433 0.05477 0.65765 0.0
H1890 H 0.60346 0.04975 0.77049 0.0
H1891 H 0.63304 0.03403 0.74841 0.0
C1892 C 0.58954 0.00545 0.74688 0.0
C1893 C 0.57946 0.04375 0.71651 0.0
C1894 C 0.63473 0.02748 0.6857 0.0
C1895 C 0.63281 0.07091 0.70508 0.0
H1896 H 0.55392 0.01883 0.74479 0.0
H1897 H 0.56008 0.99867 0.76452 0.0
H1898 H 0.60065 0.9859 0.738 0.0
H1899 H 0.62431 0.99744 0.7013 0.0
H1900 H 0.66207 0.05318 0.66962 0.0
H1901 H 0.66159 0.07704 0.68258 0.0
H1902 H 0.61984 0.08945 0.70785 0.0
H1903 H 0.59033 0.07425 0.71131 0.0
H1904 H 0.61848 0.06137 0.81454 0.0
H1905 H 0.64749 0.04428 0.79257 0.0
H1906 H 0.60891 0.05029 0.60476 0.0
H1907 H 0.58323 0.00517 0.62832 0.0
H1908 H 0.97615 0.34188 0.06237 0.0
H1909 H 0.96584 0.35074 0.97175 0.0
H1910 H 0.99119 0.37109 0.96513 0.0
H1911 H 0.00674 0.38167 0.07792 0.0
H1912 H 0.01736 0.37471 0.09789 0.0
H1913 H 0.99735 0.36513 0.10026 0.0
H1914 H 0.99761 0.34249 0.08213 0.0
H1915 H 0.01742 0.35193 0.07931 0.0
H1916 H 0.00677 0.3434 0.04654 0.0
H1917 H 0.01827 0.384 0.96184 0.0
H1918 H 0.04411 0.3884 0.96257 0.0
H1919 H 0.03768 0.37213 0.05596 0.0
C1920 C 0.97909 0.34877 0.04203 0.0
C1921 C 0.96923 0.34515 0.0178 0.0
C1922 C 0.97331 0.35373 0.99072 0.0
C1923 C 0.98765 0.3653 0.98688 0.0
C1924 C 0.99763 0.36812 1.01048 0.0
C1925 C 0.99341 0.36029 0.03794 0.0
C1926 C 0.00672 0.36332 0.05714 0.0
C1927 C 0.00706 0.37171 0.08494 0.0
C1928 C 0.00715 0.34947 0.06677 0.0
C1929 C 0.01909 0.3726 0.03477 0.0
C1930 C 0.01368 0.37579 1.0085 0.0
C1931 C 0.02272 0.38207 0.98267 0.0
C1932 C 0.03739 0.38451 0.98322 0.0
C1933 C 0.04274 0.38052 1.00931 0.0
C1934 C 0.03375 0.37528 0.03581 0.0
H1935 H 0.67014 0.63596 0.04794 0.0
H1936 H 0.67391 0.63159 0.95168 0.0
H1937 H 0.65192 0.63469 0.9426 0.0
H1938 H 0.62711 0.6218 0.05135 0.0
H1939 H 0.62985 0.6352 0.07799 0.0
H1940 H 0.64168 0.62706 0.07869 0.0
H1941 H 0.66483 0.65216 0.07322 0.0
H1942 H 0.65314 0.66027 0.07251 0.0
H1943 H 0.66619 0.66402 0.04164 0.0
H1944 H 0.63508 0.64466 0.94186 0.0
H1945 H 0.6266 0.66239 0.94879 0.0
H1946 H 0.63385 0.66133 0.04538 0.0
C1947 C 0.66575 0.63495 0.02528 0.0
C1948 C 0.67336 0.63339 1.00052 0.0
C1949 C 0.66797 0.63266 0.97084 0.0
C1950 C 0.65542 0.63425 0.9656 0.0
C1951 C 0.6485 0.63659 0.99031 0.0
C1952 C 0.65343 0.63685 0.01971 0.0
C1953 C 0.64648 0.64277 0.04115 0.0
C1954 C 0.63563 0.631 0.06362 0.0
C1955 C 0.65837 0.65556 0.05805 0.0
C1956 C 0.63825 0.64728 0.0187 0.0
C1957 C 0.63887 0.64294 0.98978 0.0
C1958 C 0.63407 0.64773 0.96449 0.0
C1959 C 0.62929 0.65781 0.96858 0.0
C1960 C 0.62964 0.6631 0.99761 0.0
C1961 C 0.63339 0.65722 0.02308 0.0
H1962 H 0.37508 0.03344 0.9708 0.0
H1963 H 0.38536 0.04332 0.06507 0.0
H1964 H 0.37854 0.01815 0.07745 0.0
H1965 H 0.34379 0.00427 0.98257 0.0
H1966 H 0.34514 0.99386 0.95269 0.0
H1967 H 0.35525 0.01298 0.94923 0.0
H1968 H 0.37989 0.01227 0.94202 0.0
H1969 H 0.36979 0.99301 0.94508 0.0
H1970 H 0.3851 1.00273 0.96975 0.0
H1971 H 0.36399 0.99193 0.08207 0.0
H1972 H 0.34449 0.96681 0.07776 0.0
H1973 H 0.34425 0.97352 0.98036 0.0
C1974 C 0.37649 0.03035 0.99375 0.0
C1975 C 0.38073 0.04016 0.01702 0.0
C1976 C 0.3823 0.0359 0.04693 0.0
C1977 C 0.37847 0.02165 0.05411 0.0
C1978 C 0.37342 0.01195 0.03094 0.0
C1979 C 0.37276 0.01619 1.00115 0.0
C1980 C 0.36476 1.0035 0.98143 0.0
C1981 C 0.35145 1.00367 0.9656 0.0
C1982 C 0.37553 1.00284 0.9582 0.0
C1983 C 0.3598 0.99147 1.00527 0.0
C1984 C 0.36522 0.99652 0.03357 0.0
C1985 C 0.36016 0.98774 0.05992 0.0
C1986 C 0.34905 0.97356 0.05735 0.0
C1987 C 0.34324 0.96839 0.02867 0.0
C1988 C 0.349 0.97726 1.0023 0.0
H1989 H 0.03415 0.68474 0.9944 0.0
H1990 H 0.03451 0.69287 0.09007 0.0
H1991 H 0.00707 0.67958 0.09209 0.0
H1992 H 1.00406 0.69029 0.9764 0.0
H1993 H 0.99614 0.67656 0.94906 0.0
H1994 H 0.01576 0.68511 0.95585 0.0
H1995 H 0.01399 0.66045 0.96852 0.0
H1996 H 0.99435 0.65181 0.96158 0.0
H1997 H 1.00098 0.6487 0.99744 0.0
H1998 H 0.97958 0.66719 0.08278 0.0
H1999 H 0.95412 0.65673 0.0624 0.0
H2000 H 0.97148 0.65691 0.97279 0.0
C2001 C 0.02842 0.68336 0.01589 0.0
C2002 C 0.03641 0.68968 0.04218 0.0
C2003 C 0.02856 0.68804 0.06975 0.0
C2004 C 0.01299 0.68049 0.07111 0.0
C2005 C 0.00539 0.67467 0.04466 0.0
C2006 C 0.01283 0.67597 0.01756 0.0
C2007 C 1.00201 0.66965 0.99195 0.0
C2008 C 1.00465 0.68109 0.96684 0.0
C2009 C 1.00288 0.65689 0.97912 0.0
C2010 C 0.98738 0.66483 1.00874 0.0
C2011 C 0.98955 0.6677 0.0392 0.0
C2012 C 0.97774 0.66476 0.05903 0.0
C2013 C 0.96335 0.65886 0.04736 0.0
C2014 C 0.96098 0.65608 0.01621 0.0
C2015 C 0.9731 0.65891 0.99678 0.0
H2016 H 0.35323 0.32855 0.9999 0.0
H2017 H 0.31685 0.29066 0.96265 0.0
H2018 H 0.30185 0.30255 0.96035 0.0
H2019 H 0.32869 0.33336 0.05045 0.0
H2020 H 0.33927 0.35259 0.04855 0.0
H2021 H 0.34844 0.3421 0.04304 0.0
H2022 H 0.3589 0.35555 0.99113 0.0
H2023 H 0.34952 0.36589 0.9963 0.0
H2024 H 0.3463 0.35569 0.96283 0.0
H2025 H 0.29013 0.31792 0.96192 0.0
H2026 H 0.28062 0.33399 0.97774 0.0
H2027 H 0.32222 0.3604 0.02161 0.0
C2028 C 0.34216 0.32266 0.99114 0.0
C2029 C 0.33684 0.30877 0.97981 0.0
C2030 C 0.32197 0.30159 0.96946 0.0
C2031 C 0.3131 0.30822 0.96836 0.0
C2032 C 0.31885 0.32192 0.97878 0.0
C2033 C 0.33282 0.32892 0.99093 0.0
C2034 C 0.33541 0.34284 1.00429 0.0
C2035 C 0.33811 0.34271 0.03862 0.0
C2036 C 0.3483 0.35576 0.98764 0.0
C2037 C 0.32066 0.34241 0.99783 0.0
C2038 C 0.31148 0.3304 0.98229 0.0
C2039 C 0.29721 0.32739 0.97405 0.0
C2040 C 0.29193 0.33661 0.9829 0.0
C2041 C 0.30078 0.34854 1.00028 0.0
C2042 C 0.31542 0.35161 1.00746 0.0
H2043 H 0.66437 0.97124 0.0383 0.0
H2044 H 0.63501 0.96778 0.96425 0.0
H2045 H 0.64257 0.99335 0.96761 0.0
H2046 H 0.66105 0.99809 0.08051 0.0
H2047 H 0.68047 0.00728 0.08945 0.0
H2048 H 0.67119 0.9883 0.08423 0.0
H2049 H 0.69066 0.99175 0.04276 0.0
H2050 H 0.70006 0.01069 0.04806 0.0
H2051 H 0.69392 0.00404 0.01084 0.0
H2052 H 0.65452 0.01999 0.97742 0.0
H2053 H 0.67155 0.04524 0.98906 0.0
H2054 H 0.69478 0.03136 0.05216 0.0
C2055 C 0.6595 0.97572 0.0225 0.0
C2056 C 0.64898 0.96722 1.00099 0.0
C2057 C 0.64282 0.97379 0.98143 0.0
C2058 C 0.64711 0.9884 0.98305 0.0
C2059 C 0.65769 0.99642 1.00417 0.0
C2060 C 0.6639 0.9903 0.02331 0.0
C2061 C 0.67606 1.00141 0.04202 0.0
C2062 C 0.67194 0.9986 0.07607 0.0
C2063 C 0.69106 1.00201 0.03551 0.0
C2064 C 0.67595 0.01483 0.03002 0.0
C2065 C 0.66504 0.01172 1.00872 0.0
C2066 C 0.66304 0.02249 0.99415 0.0
C2067 C 0.67268 0.03678 1.00094 0.0
C2068 C 0.68435 0.04015 0.02154 0.0
C2069 C 0.68583 0.02901 0.03655 0.0
H2070 H 0.70855 0.68785 0.28545 0.0
H2071 H 0.71314 0.72717 0.31938 0.0
H2072 H 0.68632 0.7185 0.31194 0.0
H2073 H 0.67426 0.67796 0.23483 0.0
H2074 H 0.667 0.6595 0.24727 0.0
H2075 H 0.68676 0.6709 0.24246 0.0
H2076 H 0.6904 0.66433 0.29793 0.0
H2077 H 0.67083 0.65316 0.30301 0.0
H2078 H 0.68074 0.66742 0.32844 0.0
H2079 H 0.65864 0.70335 0.31285 0.0
H2080 H 0.63356 0.68366 0.32423 0.0
H2081 H 0.64832 0.65344 0.29914 0.0
C2082 C 0.70394 0.69485 0.28985 0.0
C2083 C 0.71265 0.70806 0.30288 0.0
C2084 C 0.70652 0.71704 0.30897 0.0
C2085 C 0.69133 0.71219 0.30476 0.0
C2086 C 0.68265 0.69845 0.29435 0.0
C2087 C 0.68885 0.68996 0.28667 0.0
C2088 C 0.6772 0.67462 0.28326 0.0
C2089 C 0.67625 0.67051 0.24997 0.0
C2090 C 0.67996 0.66431 0.30444 0.0
C2091 C 0.66362 0.67549 0.29291 0.0
C2092 C 0.66676 0.68935 0.29762 0.0
C2093 C 0.65604 0.69247 0.30889 0.0
C2094 C 0.64185 0.68109 0.31598 0.0
C2095 C 0.63869 0.66669 0.3132 0.0
C2096 C 0.64981 0.66409 0.30092 0.0
H2097 H 0.3391 0.97061 0.39025 0.0
H2098 H 0.32985 0.9556 0.29898 0.0
H2099 H 0.31016 0.9625 0.29542 0.0
H2100 H 0.2992 0.9646 0.41085 0.0
H2101 H 0.3075 0.98104 0.43068 0.0
H2102 H 0.31621 0.96988 0.43095 0.0
H2103 H 0.34059 0.99149 0.41043 0.0
H2104 H 0.33198 1.0026 0.40946 0.0
H2105 H 0.3404 1.00067 0.37534 0.0
H2106 H 0.29776 0.97695 0.29562 0.0
H2107 H 0.2935 0.9976 0.29935 0.0
H2108 H 0.31092 0.00418 0.39042 0.0
C2109 C 0.33222 0.96803 0.37038 0.0
C2110 C 0.33553 0.96235 0.34515 0.0
C2111 C 0.32706 0.95968 0.31867 0.0
C2112 C 0.31587 0.96352 0.31658 0.0
C2113 C 0.31341 0.97002 0.34117 0.0
C2114 C 0.32122 0.97208 0.36785 0.0
C2115 C 0.31896 0.98203 0.38812 0.0
C2116 C 0.30992 0.9739 0.41685 0.0
C2117 C 0.33386 0.99495 0.39625 0.0
C2118 C 0.31002 0.9864 0.36736 0.0
C2119 C 0.30639 0.97891 0.34098 0.0
C2120 C 0.30004 0.98252 0.31659 0.0
C2121 C 0.29771 0.99431 0.31887 0.0
C2122 C 0.3019 1.00242 0.34522 0.0
C2123 C 0.30762 0.99809 0.37008 0.0
H2124 H 1.00526 0.30776 0.39504 0.0
H2125 H 0.01643 0.29897 0.30626 0.0
H2126 H 0.03586 0.32405 0.29944 0.0
H2127 H 1.00464 0.33738 0.37236 0.0
H2128 H 0.01202 0.34724 0.40615 0.0
H2129 H 1.00264 0.32809 0.40855 0.0
H2130 H 0.02579 0.32847 0.43289 0.0
H2131 H 0.03529 0.34774 0.4305 0.0
H2132 H 0.0436 0.3381 0.41365 0.0
H2133 H 0.04955 0.35038 0.2967 0.0
H2134 H 0.05521 0.37565 0.2974 0.0
H2135 H 0.0342 0.36774 0.38623 0.0
C2136 C 0.01204 0.31104 0.37447 0.0
C2137 C 0.00931 0.3014 0.35122 0.0
C2138 C 0.01846 0.30607 0.32467 0.0
C2139 C 0.02957 0.32033 0.3206 0.0
C2140 C 0.03144 0.32975 0.34333 0.0
C2141 C 0.02295 0.32526 0.36986 0.0
C2142 C 0.02509 0.33777 0.38819 0.0
C2143 C 0.01022 0.3376 0.39411 0.0
C2144 C 0.03291 0.33803 0.41808 0.0
C2145 C 0.03516 0.35001 0.36668 0.0
C2146 C 0.03919 0.3452 0.34148 0.0
C2147 C 0.04688 0.35434 0.3167 0.0
C2148 C 0.05005 0.36863 0.31722 0.0
C2149 C 0.04534 0.37345 0.34215 0.0
C2150 C 0.03826 0.36422 0.36748 0.0
H2151 H 0.63592 0.98197 0.30535 0.0
H2152 H 0.61812 0.98418 0.39286 0.0
H2153 H 0.64348 0.99579 0.41346 0.0
H2154 H 0.66672 0.97638 0.3334 0.0
H2155 H 0.67938 0.98774 0.30361 0.0
H2156 H 0.65975 0.97804 0.29676 0.0
H2157 H 0.66 1.0017 0.28043 0.0
H2158 H 0.67961 0.01145 0.28711 0.0
H2159 H 0.66717 0.01625 0.30592 0.0
H2160 H 0.67067 0.00889 0.42328 0.0
H2161 H 0.69798 0.0235 0.42137 0.0
H2162 H 0.69864 0.01359 0.32708 0.0
C2163 C 0.63742 0.98476 0.32894 0.0
C2164 C 0.62514 0.9822 0.34765 0.0
C2165 C 0.62743 0.98602 0.37833 0.0
C2166 C 0.64177 0.99259 0.39017 0.0
C2167 C 0.6537 0.99525 0.371 0.0
C2168 C 0.65171 0.99149 0.34102 0.0
C2169 C 0.66653 0.99663 0.32465 0.0
C2170 C 0.66819 0.98394 0.31398 0.0
C2171 C 0.66844 0.00713 0.29796 0.0
C2172 C 0.67718 0.00411 0.34995 0.0
C2173 C 0.6695 1.00301 0.37658 0.0
C2174 C 0.6768 0.00969 0.40267 0.0
C2175 C 0.6923 0.01797 0.40137 0.0
C2176 C 0.7004 0.01958 0.37417 0.0
C2177 C 0.69274 0.0123 0.34832 0.0
H2178 H 0.97349 0.68025 0.32392 0.0
H2179 H 0.99509 0.70431 0.40254 0.0
H2180 H 0.0137 0.69585 0.40012 0.0
H2181 H 0.97668 0.65012 0.34396 0.0
H2182 H 0.98011 0.64648 0.30604 0.0
H2183 H 0.96976 0.65582 0.3117 0.0
H2184 H 0.98821 0.67684 0.27628 0.0
H2185 H 0.99859 0.66751 0.27026 0.0
H2186 H 0.00778 0.68536 0.28397 0.0
H2187 H 0.02814 0.68249 0.39224 0.0
H2188 H 0.0374 0.66586 0.37933 0.0
H2189 H 0.00697 0.65136 0.3042 0.0
C2190 C 0.98242 0.68401 0.34001 0.0
C2191 C 0.98312 0.69306 0.36314 0.0
C2192 C 0.99462 0.69754 0.38443 0.0
C2193 C 1.00518 0.69277 0.38322 0.0
C2194 C 1.00408 0.6836 0.36042 0.0
C2195 C 0.99307 0.67939 0.33901 0.0
C2196 C 0.99373 0.6688 0.31805 0.0
C2197 C 0.97921 0.65446 0.32008 0.0
C2198 C 0.9973 0.675 0.28519 0.0
C2199 C 0.00654 0.66737 0.3315 0.0
C2200 C 0.01245 0.67605 0.35578 0.0
C2201 C 0.02376 0.67584 0.37291 0.0
C2202 C 0.02903 0.66639 0.36527 0.0
C2203 C 0.02297 0.65722 0.34071 0.0
C2204 C 0.01179 0.65805 0.32333 0.0
H2205 H 0.35631 0.36563 0.38567 0.0
H2206 H 0.33252 0.37972 0.32448 0.0
H2207 H 0.31559 0.35454 0.31226 0.0
H2208 H 0.35567 0.3391 0.34218 0.0
H2209 H 0.35283 0.32655 0.3733 0.0
H2210 H 0.36195 0.34539 0.37958 0.0
H2211 H 0.34262 0.34132 0.42184 0.0
H2212 H 0.33352 0.3224 0.41596 0.0
H2213 H 0.32311 0.33197 0.41356 0.0
H2214 H 0.30348 0.32795 0.30193 0.0
H2215 H 0.29607 0.30245 0.29736 0.0
H2216 H 0.32653 0.30571 0.36888 0.0
C2217 C 0.34729 0.36334 0.37029 0.0
C2218 C 0.3456 0.37453 0.35615 0.0
C2219 C 0.33382 0.37123 0.33585 0.0
C2220 C 0.32422 0.35698 0.3287 0.0
C2221 C 0.3264 0.34617 0.34251 0.0
C2222 C 0.33748 0.34919 0.36336 0.0
C2223 C 0.33786 0.33576 0.37429 0.0
C2224 C 0.35297 0.33677 0.36688 0.0
C2225 C 0.33405 0.33268 0.40844 0.0
C2226 C 0.32565 0.32477 0.35551 0.0
C2227 C 0.31913 0.33093 0.33735 0.0
C2228 C 0.3083 0.32298 0.31657 0.0
C2229 C 0.3041 0.30842 0.31424 0.0
C2230 C 0.31066 0.30186 0.33268 0.0
C2231 C 0.32139 0.31025 0.35395 0.0
H2232 H 0.31134 0.01188 0.72031 0.0
H2233 H 0.30334 0.01405 0.62448 0.0
H2234 H 0.32887 0.03391 0.61639 0.0
H2235 H 0.34182 0.05213 0.72686 0.0
H2236 H 0.35194 0.04656 0.75241 0.0
H2237 H 0.33191 0.03704 0.75308 0.0
H2238 H 0.33239 0.01337 0.74494 0.0
H2239 H 0.35223 0.02275 0.74414 0.0
H2240 H 0.34241 0.01218 0.71255 0.0
H2241 H 0.35582 0.04765 0.61583 0.0
H2242 H 0.38168 0.05261 0.62207 0.0
H2243 H 0.37309 0.04127 0.71807 0.0
C2244 C 0.31486 0.01718 0.69806 0.0
C2245 C 0.30559 0.01185 0.67308 0.0
C2246 C 0.31042 0.01833 0.64384 0.0
C2247 C 0.32482 0.02966 0.63917 0.0
C2248 C 0.33416 0.03426 0.66401 0.0
C2249 C 0.32932 0.02829 0.69306 0.0
C2250 C 0.34217 0.0326 0.71439 0.0
C2251 C 0.34194 0.04269 0.73808 0.0
C2252 C 0.3423 0.01945 0.72984 0.0
C2253 C 0.35501 0.0405 0.69212 0.0
C2254 C 0.3502 0.04202 0.66354 0.0
C2255 C 0.3598 0.04698 0.63825 0.0
C2256 C 0.37445 0.04974 0.64194 0.0
C2257 C 0.37917 0.04727 0.67055 0.0
C2258 C 0.36961 0.04334 0.6961 0.0
H2259 H 0.97133 0.3303 0.71343 0.0
H2260 H 0.96124 0.33029 0.61812 0.0
H2261 H 0.96613 0.3101 0.61129 0.0
H2262 H 1.00114 0.32845 0.70604 0.0
H2263 H 0.99931 0.31676 0.73827 0.0
H2264 H 0.98969 0.32693 0.73849 0.0
H2265 H 0.96466 0.30377 0.74786 0.0
H2266 H 0.97429 0.29343 0.74797 0.0
H2267 H 0.95913 0.28926 0.72259 0.0
H2268 H 0.97993 0.29688 0.6109 0.0
H2269 H 1.00012 0.29083 0.61775 0.0
H2270 H 1.00069 0.29811 0.71369 0.0
C2271 C 0.96949 0.32551 0.69153 0.0
C2272 C 0.96597 0.33169 0.66629 0.0
C2273 C 0.9638 0.3255 0.63774 0.0
C2274 C 0.9665 0.31401 0.63374 0.0
C2275 C 0.97102 0.30872 0.65869 0.0
C2276 C 0.97213 0.31405 0.68732 0.0
C2277 C 0.97982 0.30855 0.70902 0.0
C2278 C 0.99328 0.32091 0.72374 0.0
C2279 C 0.96881 0.29813 0.73329 0.0
C2280 C 0.98448 0.30077 0.68728 0.0
C2281 C 0.97883 0.30051 0.6586 0.0
C2282 C 0.98389 0.29642 0.63345 0.0
C2283 C 0.99539 0.29309 0.63743 0.0
C2284 C 1.00158 0.29381 0.66634 0.0
C2285 C 0.99563 0.29702 0.6917 0.0
H2286 H 0.70457 0.7014 0.71683 0.0
H2287 H 0.72002 0.7091 0.62327 0.0
H2288 H 0.71408 0.68384 0.62049 0.0
H2289 H 0.7137 0.67069 0.73679 0.0
H2290 H 0.69677 0.66147 0.75918 0.0
H2291 H 0.70691 0.68074 0.75728 0.0
H2292 H 0.68319 0.68134 0.73951 0.0
H2293 H 0.67307 0.6622 0.74094 0.0
H2294 H 0.67398 0.67204 0.70611 0.0
H2295 H 0.70094 0.65764 0.62349 0.0
H2296 H 0.68127 0.63262 0.63152 0.0
H2297 H 0.67373 0.64144 0.72315 0.0
C2298 C 0.70741 0.69782 0.69643 0.0
C2299 C 0.713 0.70699 0.67048 0.0
C2300 C 0.716 0.7021 0.64347 0.0
C2301 C 0.71273 0.68783 0.6418 0.0
C2302 C 0.70647 0.67872 0.66738 0.0
C2303 C 0.70398 0.68356 0.69438 0.0
C2304 C 0.69451 0.67127 0.71641 0.0
C2305 C 0.70352 0.67103 0.74405 0.0
C2306 C 0.68036 0.67175 0.72627 0.0
C2307 C 0.69097 0.65882 0.69665 0.0
C2308 C 0.69842 0.66329 0.6689 0.0
C2309 C 0.69541 0.65393 0.64545 0.0
C2310 C 0.6842 0.63976 0.65016 0.0
C2311 C 0.67605 0.63521 0.67793 0.0
C2312 C 0.67988 0.64472 0.70175 0.0
H2313 H 0.35976 0.35501 0.72323 0.0
H2314 H 0.37377 0.34503 0.63867 0.0
H2315 H 0.34767 0.32844 0.62762 0.0
H2316 H 0.32796 0.3198 0.74095 0.0
H2317 H 0.31669 0.32714 0.75491 0.0
H2318 H 0.33658 0.33692 0.75816 0.0
H2319 H 0.33718 0.35882 0.72941 0.0
H2320 H 0.31732 0.34914 0.72624 0.0
H2321 H 0.32888 0.35663 0.69258 0.0
H2322 H 0.31984 0.31439 0.62346 0.0
H2323 H 0.29258 0.30484 0.62588 0.0
H2324 H 0.29656 0.32474 0.71159 0.0
C2325 C 0.35744 0.34936 0.70237 0.0
C2326 C 0.36903 0.35138 0.68198 0.0
C2327 C 0.36528 0.34353 0.65513 0.0
C2328 C 0.35041 0.3341 0.64852 0.0
C2329 C 0.33932 0.33259 0.66887 0.0
C2330 C 0.34265 0.34004 0.69523 0.0
C2331 C 0.32863 0.33732 0.7122 0.0
C2332 C 0.3274 0.32985 0.74341 0.0
C2333 C 0.32797 0.35131 0.71527 0.0
C2334 C 0.31688 0.32741 0.69098 0.0
C2335 C 0.32328 0.32465 0.6663 0.0
C2336 C 0.31472 0.31632 0.64288 0.0
C2337 C 0.29928 0.3109 0.64445 0.0
C2338 C 0.29258 0.31387 0.66916 0.0
C2339 C 0.30146 0.32207 0.69287 0.0
H2340 H 0.68618 0.9909 0.70338 0.0
H2341 H 0.68994 0.99326 0.60522 0.0
H2342 H 0.67752 0.00814 0.60241 0.0
H2343 H 0.65067 0.98612 0.70708 0.0
H2344 H 0.65306 0.99663 0.73973 0.0
H2345 H 0.66454 0.9884 0.73461 0.0
H2346 H 0.6882 0.01301 0.73741 0.0
H2347 H 0.67678 0.02132 0.74295 0.0
H2348 H 0.69036 0.02765 0.71235 0.0
H2349 H 0.66152 0.01968 0.60988 0.0
H2350 H 0.64396 0.02776 0.62749 0.0
H2351 H 0.65083 0.01837 0.72073 0.0
C2352 C 0.68491 0.99509 0.68146 0.0
C2353 C 0.68925 0.99124 0.65452 0.0
C2354 C 0.68689 0.99635 0.62607 0.0
C2355 C 0.67983 0.00477 0.62428 0.0
C2356 C 0.6752 0.00801 0.65119 0.0
C2357 C 0.67779 1.00347 0.67929 0.0
C2358 C 0.67046 0.00729 0.70453 0.0
C2359 C 0.65901 0.99381 0.72253 0.0
C2360 C 0.68215 0.01795 0.72555 0.0
C2361 C 0.66297 0.01423 0.6862 0.0
C2362 C 0.66593 0.01465 0.65548 0.0
C2363 C 0.65933 0.01962 0.63392 0.0
C2364 C 0.64936 0.02414 0.64402 0.0
C2365 C 0.64604 0.02357 0.67531 0.0
C2366 C 0.65321 0.01887 0.69664 0.0
H2367 H 0.0356 0.70525 0.6551 0.0
H2368 H 0.00819 0.70805 0.72689 0.0
H2369 H 0.99096 0.68237 0.72386 0.0
H2370 H 0.00651 0.67799 0.61223 0.0
H2371 H 0.01707 0.66899 0.60448 0.0
H2372 H 0.02648 0.68797 0.60969 0.0
H2373 H 0.04202 0.68476 0.65258 0.0
H2374 H 0.03278 0.66582 0.64728 0.0
H2375 H 0.03265 0.67242 0.68425 0.0
H2376 H 0.97677 0.65593 0.71396 0.0
H2377 H 0.96869 0.63075 0.70212 0.0
H2378 H 0.0067 0.64487 0.64132 0.0
C2379 C 0.02609 0.70059 0.67048 0.0
C2380 C 0.02335 0.70901 0.691 0.0
C2381 C 0.0105 0.70217 0.71024 0.0
C2382 C 1.00061 0.68747 0.70886 0.0
C2383 C 1.00373 0.67958 0.68845 0.0
C2384 C 0.01628 0.68588 0.66994 0.0
C2385 C 0.01775 0.67484 0.65176 0.0
C2386 C 0.0169 0.67762 0.61751 0.0
C2387 C 0.03215 0.67444 0.65944 0.0
C2388 C 1.00416 0.66132 0.66323 0.0
C2389 C 0.99603 0.6643 0.68391 0.0
C2390 C 0.98305 0.65349 0.69775 0.0
C2391 C 0.97848 0.63925 0.69081 0.0
C2392 C 0.98702 0.63597 0.6707 0.0
C2393 C 0.99992 0.64716 0.65654 0.0
H2394 H 0.22219 0.37922 0.08331 0.0
H2395 H 0.23661 0.38235 0.98959 0.0
H2396 H 0.21482 0.38457 0.97265 0.0
H2397 H 0.18347 0.35646 0.06938 0.0
H2398 H 0.17705 0.36426 0.09727 0.0
H2399 H 0.19449 0.36435 0.10213 0.0
H2400 H 0.2078 0.39185 0.10612 0.0
H2401 H 0.1904 0.39185 0.10109 0.0
H2402 H 0.20597 0.40278 0.07602 0.0
H2403 H 0.19125 0.38586 0.96586 0.0
H2404 H 0.16688 0.38476 0.96878 0.0
H2405 H 0.16592 0.37816 0.06686 0.0
C2406 C 0.22063 0.38014 0.0592 0.0
C2407 C 0.23093 0.38028 0.03764 0.0
C2408 C 0.22881 0.38213 1.00641 0.0
C2409 C 0.21647 0.38339 0.99662 0.0
C2410 C 0.20627 0.38275 0.01836 0.0
C2411 C 0.20815 0.38108 0.04901 0.0
C2412 C 0.19507 0.37989 0.06749 0.0
C2413 C 0.18704 0.36538 0.0851 0.0
C2414 C 0.20011 0.39234 0.08895 0.0
C2415 C 0.18547 0.38103 0.04242 0.0
C2416 C 0.1923 0.38288 0.01434 0.0
C2417 C 0.18574 0.38426 0.98771 0.0
C2418 C 0.17175 0.38347 0.98965 0.0
C2419 C 0.16413 0.38104 0.018 0.0
C2420 C 0.17132 0.38005 0.0448 0.0
H2421 H 0.64066 0.7894 1.0021 0.0
H2422 H 0.59798 0.76189 0.04644 0.0
H2423 H 0.59328 0.78239 0.0487 0.0
H2424 H 0.64954 0.82103 0.04345 0.0
H2425 H 0.65802 0.83312 0.01099 0.0
H2426 H 0.65827 0.81637 0.0137 0.0
H2427 H 0.64579 0.80982 0.96137 0.0
H2428 H 0.64546 0.82652 0.95855 0.0
H2429 H 0.6285 0.80992 0.95536 0.0
H2430 H 0.59287 0.80584 0.04509 0.0
H2431 H 0.59694 0.83043 0.03651 0.0
H2432 H 0.63977 0.8428 0.99403 0.0
C2433 C 0.63028 0.78762 0.01219 0.0
C2434 C 0.61973 0.77391 0.02423 0.0
C2435 C 0.6064 0.77224 0.03755 0.0
C2436 C 0.60356 0.78383 0.03873 0.0
C2437 C 0.61413 0.79712 0.02649 0.0
C2438 C 0.62724 0.79908 0.01352 0.0
C2439 C 0.63671 0.81446 1.00177 0.0
C2440 C 0.65151 0.82167 0.01848 0.0
C2441 C 0.63926 0.81522 0.96721 0.0
C2442 C 0.62682 0.8208 1.00999 0.0
C2443 C 0.61387 0.81062 0.02429 0.0
C2444 C 0.60301 0.81391 0.03403 0.0
C2445 C 0.60548 0.82796 0.02918 0.0
C2446 C 0.6187 0.83867 0.01467 0.0
C2447 C 0.62946 0.83491 1.00489 0.0
H2448 H 0.1692 0.79035 0.07562 0.0
H2449 H 0.1777 0.77223 0.99649 0.0
H2450 H 0.20223 0.79358 0.98924 0.0
H2451 H 0.18565 0.82597 0.04577 0.0
H2452 H 0.19376 0.83431 0.08073 0.0
H2453 H 0.17732 0.81709 0.08175 0.0
H2454 H 0.19061 0.80652 0.11541 0.0
H2455 H 0.20708 0.82374 0.11463 0.0
H2456 H 0.2081 0.80829 0.10266 0.0
H2457 H 0.22472 0.81755 0.98725 0.0
H2458 H 0.24447 0.84249 0.9921 0.0
H2459 H 0.2226 0.84567 0.07324 0.0
C2460 C 0.17639 0.79076 0.05723 0.0
C2461 C 0.17146 0.77954 0.0366 0.0
C2462 C 0.18113 0.78066 0.01246 0.0
C2463 C 0.19513 0.79275 1.0082 0.0
C2464 C 0.1995 0.80375 0.02833 0.0
C2465 C 0.19052 0.80287 0.05256 0.0
C2466 C 0.19777 0.8166 0.06991 0.0
C2467 C 0.18804 0.82392 0.06951 0.0
C2468 C 0.20109 0.81361 0.1026 0.0
C2469 C 0.21206 0.82537 0.05132 0.0
C2470 C 0.21277 0.81766 0.02748 0.0
C2471 C 0.22439 0.82361 1.00608 0.0
C2472 C 0.23555 0.8378 1.00897 0.0
C2473 C 0.23517 0.84596 0.03316 0.0
C2474 C 0.22332 0.83959 0.05482 0.0
H2475 H 0.36757 0.20901 0.99296 0.0
H2476 H 0.41112 0.23738 0.95302 0.0
H2477 H 0.41518 0.21669 0.94629 0.0
H2478 H 0.3784 0.18595 0.03501 0.0
H2479 H 0.36115 0.16996 0.02908 0.0
H2480 H 0.36152 0.18697 0.03 0.0
H2481 H 0.34963 0.183 0.97698 0.0
H2482 H 0.34927 0.16601 0.97583 0.0
H2483 H 0.35841 0.17935 0.94567 0.0
H2484 H 0.41458 0.19265 0.94416 0.0
H2485 H 0.40972 0.16765 0.94842 0.0
H2486 H 0.36675 0.15495 0.99054 0.0
C2487 C 0.37806 0.21097 0.9831 0.0
C2488 C 0.389 0.225 0.97348 0.0
C2489 C 0.40242 0.22684 0.96018 0.0
C2490 C 0.40488 0.21512 0.9564 0.0
C2491 C 0.39386 0.2015 0.96607 0.0
C2492 C 0.38074 0.19939 0.97927 0.0
C2493 C 0.37074 0.1837 0.98807 0.0
C2494 C 0.36778 0.18152 0.02259 0.0
C2495 C 0.35615 0.17766 0.97059 0.0
C2496 C 0.3803 0.1773 0.97789 0.0
C2497 C 0.39357 0.18774 0.96511 0.0
C2498 C 0.4042 0.1844 0.95407 0.0
C2499 C 0.40127 0.1701 0.95639 0.0
C2500 C 0.38782 0.15918 0.96974 0.0
C2501 C 0.37721 0.16296 0.98046 0.0
H2502 H 0.8487 0.22479 0.0347 0.0
H2503 H 0.86119 0.22619 0.93995 0.0
H2504 H 0.83802 0.20381 0.93255 0.0
H2505 H 0.8329 0.18662 0.04696 0.0
H2506 H 0.81817 0.18494 0.07181 0.0
H2507 H 0.83554 0.20135 0.06956 0.0
H2508 H 0.82158 0.21545 0.05589 0.0
H2509 H 0.80416 0.19908 0.05803 0.0
H2510 H 0.80941 0.21039 0.02389 0.0
H2511 H 0.81357 0.18101 0.93537 0.0
H2512 H 0.78999 0.15932 0.94841 0.0
H2513 H 0.79329 0.17227 0.04156 0.0
C2514 C 0.84667 0.22037 0.0124 0.0
C2515 C 0.85689 0.22745 0.98787 0.0
C2516 C 0.85354 0.22126 0.95904 0.0
C2517 C 0.84041 0.20845 0.95462 0.0
C2518 C 0.83064 0.20182 0.97924 0.0
C2519 C 0.83362 0.20753 1.0076 0.0
C2520 C 0.82133 0.19814 0.03034 0.0
C2521 C 0.82735 0.19242 0.0562 0.0
C2522 C 0.81367 0.20625 0.04276 0.0
C2523 C 0.811 0.18622 1.01035 0.0
C2524 C 0.81658 0.1886 0.98093 0.0
C2525 C 0.80908 0.17909 0.95832 0.0
C2526 C 0.79558 0.16681 0.96594 0.0
C2527 C 0.7896 0.16403 0.99599 0.0
C2528 C 0.79752 0.17396 0.01842 0.0
H2529 H 0.8608 0.6434 1.00237 0.0
H2530 H 0.84997 0.60932 0.94056 0.0
H2531 H 0.82393 0.60448 0.93999 0.0
H2532 H 0.82591 0.62765 0.04522 0.0
H2533 H 0.82544 0.64424 0.0473 0.0
H2534 H 0.84299 0.64436 0.04477 0.0
H2535 H 0.85032 0.6615 0.99714 0.0
H2536 H 0.83281 0.66145 0.99954 0.0
H2537 H 0.83824 0.65652 0.96501 0.0
H2538 H 0.79891 0.603 0.94694 0.0
H2539 H 0.77726 0.60623 0.95683 0.0
H2540 H 0.80466 0.64323 1.00947 0.0
C2541 C 0.85285 0.63478 0.98912 0.0
C2542 C 0.85726 0.62627 0.97264 0.0
C2543 C 0.8467 0.6155 0.95453 0.0
C2544 C 0.8319 0.61277 0.95384 0.0
C2545 C 0.82785 0.62118 0.97071 0.0
C2546 C 0.83805 0.63211 0.98766 0.0
C2547 C 0.83097 0.64015 1.00206 0.0
C2548 C 0.83135 0.63903 0.03691 0.0
C2549 C 0.83853 0.65583 0.99023 0.0
C2550 C 0.81518 0.63194 0.99077 0.0
C2551 C 0.81363 0.62097 0.97296 0.0
C2552 C 0.80006 0.61171 0.96048 0.0
C2553 C 0.78778 0.61376 0.96604 0.0
C2554 C 0.78904 0.62518 0.98355 0.0
C2555 C 0.80306 0.63432 0.99615 0.0
H2556 H 0.84162 0.71841 0.33247 0.0
H2557 H 0.83019 0.71807 0.42763 0.0
H2558 H 0.85338 0.71839 0.44228 0.0
H2559 H 0.85595 0.69395 0.34397 0.0
H2560 H 0.8704 0.70256 0.31528 0.0
H2561 H 0.85345 0.70353 0.3119 0.0
H2562 H 0.86861 0.73117 0.30807 0.0
H2563 H 0.88561 0.73028 0.31165 0.0
H2564 H 0.88137 0.7405 0.33763 0.0
H2565 H 0.87776 0.71834 0.44717 0.0
H2566 H 0.90049 0.71604 0.44167 0.0
H2567 H 0.89533 0.71449 0.34409 0.0
C2568 C 0.84385 0.71832 0.35645 0.0
C2569 C 0.83392 0.71843 0.37874 0.0
C2570 C 0.83761 0.71844 0.40982 0.0
C2571 C 0.85079 0.7185 0.4185 0.0
C2572 C 0.86023 0.71839 0.39598 0.0
C2573 C 0.85687 0.71816 0.36559 0.0
C2574 C 0.86856 0.71729 0.34603 0.0
C2575 C 0.86168 0.70351 0.32825 0.0
C2576 C 0.87651 0.7306 0.32458 0.0
C2577 C 0.87894 0.71695 0.37019 0.0
C2578 C 0.87401 0.71779 0.39884 0.0
C2579 C 0.88169 0.71764 0.42485 0.0
C2580 C 0.89457 0.71636 0.42155 0.0
C2581 C 0.89956 0.71501 0.39254 0.0
C2582 C 0.89174 0.71552 0.36652 0.0
H2583 H 0.29563 0.17578 0.37361 0.0
H2584 H 0.27073 0.16892 0.29073 0.0
H2585 H 0.26807 0.14478 0.28864 0.0
H2586 H 0.31599 0.15865 0.35126 0.0
H2587 H 0.31578 0.15068 0.38818 0.0
H2588 H 0.31462 0.16697 0.38509 0.0
H2589 H 0.29023 0.15503 0.41719 0.0
H2590 H 0.29133 0.13869 0.42042 0.0
H2591 H 0.27493 0.13853 0.40544 0.0
H2592 H 0.26959 0.1223 0.29289 0.0
H2593 H 0.27531 0.10263 0.30317 0.0
H2594 H 0.29914 0.12322 0.38359 0.0
C2595 C 0.28936 0.16906 0.35541 0.0
C2596 C 0.28334 0.17425 0.33233 0.0
C2597 C 0.27549 0.16523 0.30854 0.0
C2598 C 0.27386 0.15146 0.30724 0.0
C2599 C 0.28014 0.14676 0.32992 0.0
C2600 C 0.28771 0.15522 0.35364 0.0
C2601 C 0.29411 0.14777 0.37399 0.0
C2602 C 0.31113 0.15654 0.37466 0.0
C2603 C 0.28724 0.14483 0.40617 0.0
C2604 C 0.28914 0.13393 0.35769 0.0
C2605 C 0.28101 0.1336 0.33244 0.0
C2606 C 0.2758 0.12236 0.31277 0.0
C2607 C 0.27912 0.11125 0.31876 0.0
C2608 C 0.28756 0.11134 0.34424 0.0
C2609 C 0.29245 0.12275 0.36424 0.0
H2610 H 0.83231 0.12573 0.40981 0.0
H2611 H 0.83922 0.10711 0.32973 0.0
H2612 H 0.86447 0.1275 0.32309 0.0
H2613 H 0.85075 0.16158 0.38077 0.0
H2614 H 0.85908 0.16941 0.41598 0.0
H2615 H 0.84199 0.15275 0.41651 0.0
H2616 H 0.854 0.14079 0.44993 0.0
H2617 H 0.87114 0.15745 0.44957 0.0
H2618 H 0.87102 0.14152 0.43719 0.0
H2619 H 0.88799 0.15055 0.32212 0.0
H2620 H 0.90873 0.17496 0.32739 0.0
H2621 H 0.88763 0.17934 0.40842 0.0
C2622 C 0.83929 0.12583 0.39131 0.0
C2623 C 0.83376 0.11476 0.37029 0.0
C2624 C 0.84315 0.11545 0.34601 0.0
C2625 C 0.85755 0.12698 0.34211 0.0
C2626 C 0.86255 0.13785 0.3627 0.0
C2627 C 0.85379 0.1374 0.38694 0.0
C2628 C 0.86173 0.15096 0.40466 0.0
C2629 C 0.85286 0.15916 0.40446 0.0
C2630 C 0.86464 0.14747 0.43728 0.0
C2631 C 0.87617 0.15915 0.38628 0.0
C2632 C 0.87636 0.15128 0.36227 0.0
C2633 C 0.88805 0.15673 0.34105 0.0
C2634 C 0.89978 0.17061 0.3442 0.0
C2635 C 0.89989 0.17898 0.36844 0.0
C2636 C 0.88798 0.17308 0.39 0.0
H2637 H 0.05297 0.49781 0.33721 0.0
H2638 H 0.03811 0.48458 0.24596 0.0
H2639 H 0.03775 0.50723 0.23506 0.0
H2640 H 0.03051 0.5145 0.3497 0.0
H2641 H 0.04439 0.52888 0.37068 0.0
H2642 H 0.04403 0.51185 0.37099 0.0
H2643 H 0.07139 0.5243 0.35186 0.0
H2644 H 0.07184 0.54137 0.35148 0.0
H2645 H 0.07659 0.53547 0.3175 0.0
H2646 H 0.038 0.53112 0.23468 0.0
H2647 H 0.03896 0.55407 0.24469 0.0
H2648 H 0.05424 0.55218 0.33585 0.0
C2649 C 0.04958 0.49961 0.31493 0.0
C2650 C 0.04561 0.48928 0.29243 0.0
C2651 C 0.04144 0.4923 0.2635 0.0
C2652 C 0.04111 0.50515 0.25712 0.0
C2653 C 0.04503 0.51503 0.27981 0.0
C2654 C 0.04923 0.51243 0.30812 0.0
C2655 C 0.05277 0.52475 0.32862 0.0
C2656 C 0.0423 0.51969 0.35665 0.0
C2657 C 0.06912 0.53189 0.33791 0.0
C2658 C 0.04975 0.53461 0.30755 0.0
C2659 C 0.04532 0.52882 0.27948 0.0
C2660 C 0.0416 0.5358 0.25651 0.0
C2661 C 0.04231 0.54897 0.26239 0.0
C2662 C 0.04677 0.5552 0.29105 0.0
C2663 C 0.05064 0.54782 0.31375 0.0
H2664 H 0.51558 0.55192 0.3602 0.0
H2665 H 0.49995 0.57999 0.32064 0.0
H2666 H 0.47486 0.55938 0.31694 0.0
H2667 H 0.49367 0.52163 0.31578 0.0
H2668 H 0.49003 0.5087 0.34657 0.0
H2669 H 0.50682 0.52563 0.34584 0.0
H2670 H 0.50025 0.53048 0.39932 0.0
H2671 H 0.48346 0.51355 0.40025 0.0
H2672 H 0.48259 0.52975 0.40588 0.0
H2673 H 0.45129 0.53551 0.31733 0.0
H2674 H 0.43114 0.51052 0.32293 0.0
H2675 H 0.46195 0.49807 0.36325 0.0
C2676 C 0.50688 0.55382 0.35107 0.0
C2677 C 0.50989 0.5677 0.34064 0.0
C2678 C 0.49811 0.56952 0.32836 0.0
C2679 C 0.48375 0.55785 0.32633 0.0
C2680 C 0.48123 0.54437 0.33674 0.0
C2681 C 0.49246 0.5423 0.34898 0.0
C2682 C 0.48681 0.52672 0.35865 0.0
C2683 C 0.49481 0.52029 0.34063 0.0
C2684 C 0.48837 0.52503 0.39307 0.0
C2685 C 0.47064 0.52034 0.35001 0.0
C2686 C 0.46765 0.53069 0.3373 0.0
C2687 C 0.45352 0.52733 0.32727 0.0
C2688 C 0.44215 0.51307 0.33038 0.0
C2689 C 0.44489 0.50226 0.34354 0.0
C2690 C 0.45939 0.50606 0.35344 0.0
H2691 H 0.45779 0.95763 0.28783 0.0
H2692 H 0.45413 0.95667 0.38625 0.0
H2693 H 0.47762 0.9561 0.39056 0.0
H2694 H 0.47327 0.93282 0.28678 0.0
H2695 H 0.48534 0.94196 0.25448 0.0
H2696 H 0.46803 0.9422 0.2587 0.0
H2697 H 0.48219 0.96987 0.25508 0.0
H2698 H 0.49955 0.96972 0.25117 0.0
H2699 H 0.49697 0.97942 0.28102 0.0
H2700 H 0.50238 0.95744 0.38488 0.0
H2701 H 0.52585 0.95823 0.36919 0.0
H2702 H 0.51288 0.95567 0.27502 0.0
C2703 C 0.4618 0.9571 0.3103 0.0
C2704 C 0.45412 0.95758 0.33666 0.0
C2705 C 0.45991 0.95684 0.36557 0.0
C2706 C 0.47324 0.95638 0.36835 0.0
C2707 C 0.4807 0.95636 0.34206 0.0
C2708 C 0.47511 0.95643 0.31357 0.0
C2709 C 0.48541 0.95615 0.2891 0.0
C2710 C 0.47754 0.94247 0.27121 0.0
C2711 C 0.49138 0.96959 0.26784 0.0
C2712 C 0.49771 0.95615 0.30835 0.0
C2713 C 0.49477 0.95638 0.33884 0.0
C2714 C 0.50472 0.95709 0.36109 0.0
C2715 C 0.51803 0.95754 0.35199 0.0
C2716 C 0.52128 0.95715 0.32094 0.0
C2717 C 0.51083 0.95624 0.2989 0.0
H2718 H 0.55645 0.0416 0.75342 0.0
H2719 H 0.57327 0.05067 0.66051 0.0
H2720 H 0.55153 0.05325 0.64474 0.0
H2721 H 0.5182 0.01967 0.73461 0.0
H2722 H 0.51099 0.02571 0.7647 0.0
H2723 H 0.52842 0.02572 0.76909 0.0
H2724 H 0.54127 0.05266 0.78001 0.0
H2725 H 0.52389 0.05275 0.7755 0.0
H2726 H 0.53993 0.06505 0.75293 0.0
H2727 H 0.52773 0.05412 0.63876 0.0
H2728 H 0.50307 0.05242 0.64202 0.0
H2729 H 0.50028 0.04106 0.7384 0.0
C2730 C 0.55545 0.04397 0.72971 0.0
C2731 C 0.5664 0.04565 0.70797 0.0
C2732 C 0.56495 0.04924 0.6774 0.0
C2733 C 0.55265 0.05072 0.66828 0.0
C2734 C 0.54184 0.04861 0.69005 0.0
C2735 C 0.54307 0.04527 0.72013 0.0
C2736 C 0.52952 0.04293 0.73863 0.0
C2737 C 0.5213 0.0276 0.75257 0.0
C2738 C 0.53392 0.05401 0.76322 0.0
C2739 C 0.52041 0.04534 0.71419 0.0
C2740 C 0.52786 0.04875 0.68644 0.0
C2741 C 0.52177 0.05137 0.66034 0.0
C2742 C 0.50764 0.05025 0.66243 0.0
C2743 C 0.49947 0.04636 0.69036 0.0
C2744 C 0.50616 0.0441 0.71671 0.0
H2745 H 0.96263 0.45045 0.65671 0.0
H2746 H 0.97271 0.44834 0.75191 0.0
H2747 H 0.97137 0.4704 0.75981 0.0
H2748 H 0.98474 0.48856 0.64619 0.0
H2749 H 0.97195 0.49036 0.62073 0.0
H2750 H 0.97302 0.47401 0.62279 0.0
H2751 H 0.9448 0.45967 0.63494 0.0
H2752 H 0.94365 0.47599 0.633 0.0
H2753 H 0.93723 0.46439 0.6667 0.0
H2754 H 0.96947 0.4931 0.75729 0.0
H2755 H 0.96792 0.51497 0.74424 0.0
H2756 H 0.95954 0.50274 0.65045 0.0
C2757 C 0.96467 0.45463 0.67922 0.0
C2758 C 0.9677 0.44746 0.70371 0.0
C2759 C 0.97008 0.45335 0.73283 0.0
C2760 C 0.96944 0.46597 0.73754 0.0
C2761 C 0.96644 0.47271 0.71293 0.0
C2762 C 0.96414 0.46728 0.68432 0.0
C2763 C 0.96145 0.4768 0.66157 0.0
C2764 C 0.97351 0.48279 0.63633 0.0
C2765 C 0.94586 0.46873 0.64828 0.0
C2766 C 0.96271 0.48849 0.68182 0.0
C2767 C 0.9655 0.48587 0.71141 0.0
C2768 C 0.96722 0.49521 0.73421 0.0
C2769 C 0.96619 0.50758 0.72659 0.0
C2770 C 0.9635 0.51064 0.69633 0.0
C2771 C 0.96169 0.50084 0.67376 0.0
H2772 H 0.56063 0.50875 0.67506 0.0
H2773 H 0.56237 0.51926 0.76977 0.0
H2774 H 0.53941 0.4966 0.78056 0.0
H2775 H 0.52115 0.49347 0.66876 0.0
H2776 H 0.51933 0.47972 0.64395 0.0
H2777 H 0.53637 0.49643 0.64386 0.0
H2778 H 0.55108 0.48284 0.65515 0.0
H2779 H 0.53408 0.46608 0.6553 0.0
H2780 H 0.54593 0.47058 0.68777 0.0
H2781 H 0.51559 0.47294 0.78095 0.0
H2782 H 0.49286 0.45059 0.77074 0.0
H2783 H 0.50622 0.45539 0.67567 0.0
C2784 C 0.55621 0.50638 0.6981 0.0
C2785 C 0.56356 0.51595 0.72156 0.0
C2786 C 0.55729 0.51214 0.75139 0.0
C2787 C 0.54413 0.49928 0.75776 0.0
C2788 C 0.53719 0.4902 0.73412 0.0
C2789 C 0.54301 0.49359 0.70486 0.0
C2790 C 0.53318 0.48211 0.68342 0.0
C2791 C 0.52715 0.48831 0.65853 0.0
C2792 C 0.54157 0.47498 0.6696 0.0
C2793 C 0.52086 0.47179 0.70513 0.0
C2794 C 0.52344 0.47663 0.7343 0.0
C2795 C 0.51354 0.46902 0.75821 0.0
C2796 C 0.50065 0.45622 0.75218 0.0
C2797 C 0.49762 0.45102 0.7224 0.0
C2798 C 0.50802 0.459 0.69868 0.0
H2799 H 0.72044 0.88583 0.67843 0.0
H2800 H 0.7122 0.88998 0.58282 0.0
H2801 H 0.71265 0.86761 0.57378 0.0
H2802 H 0.74476 0.87048 0.66862 0.0
H2803 H 0.73738 0.8584 0.70146 0.0
H2804 H 0.73714 0.87517 0.70034 0.0
H2805 H 0.70875 0.86171 0.71063 0.0
H2806 H 0.70889 0.84491 0.71173 0.0
H2807 H 0.69693 0.84783 0.68589 0.0
H2808 H 0.71319 0.84422 0.5751 0.0
H2809 H 0.71367 0.82171 0.58678 0.0
H2810 H 0.72111 0.83222 0.68167 0.0
C2811 C 0.71868 0.88207 0.65555 0.0
C2812 C 0.71641 0.88993 0.63133 0.0
C2813 C 0.71431 0.88451 0.60176 0.0
C2814 C 0.71442 0.87167 0.59638 0.0
C2815 C 0.71659 0.86421 0.62075 0.0
C2816 C 0.71868 0.8692 0.64977 0.0
C2817 C 0.72045 0.85894 0.67209 0.0
C2818 C 0.73585 0.86618 0.68647 0.0
C2819 C 0.70801 0.85299 0.69653 0.0
C2820 C 0.71892 0.84735 0.65111 0.0
C2821 C 0.71677 0.85066 0.62157 0.0
C2822 C 0.71497 0.84159 0.59814 0.0
C2823 C 0.71536 0.82882 0.60501 0.0
C2824 C 0.71752 0.8251 0.63514 0.0
C2825 C 0.71932 0.8346 0.65842 0.0
H2826 H 0.12117 0.84587 0.714 0.0
H2827 H 0.11879 0.83228 0.62151 0.0
H2828 H 0.14222 0.85402 0.60858 0.0
H2829 H 0.13758 0.88397 0.69556 0.0
H2830 H 0.14948 0.88902 0.72797 0.0
H2831 H 0.132 0.87272 0.72982 0.0
H2832 H 0.1456 0.85841 0.74474 0.0
H2833 H 0.16312 0.87466 0.74286 0.0
H2834 H 0.16045 0.85983 0.72061 0.0
H2835 H 0.16648 0.8768 0.60572 0.0
H2836 H 0.1898 0.899 0.61329 0.0
H2837 H 0.17704 0.89801 0.70767 0.0
C2838 C 0.12553 0.84743 0.691 0.0
C2839 C 0.11785 0.83729 0.66874 0.0
C2840 C 0.12408 0.83993 0.6389 0.0
C2841 C 0.13753 0.85224 0.63133 0.0
C2842 C 0.14479 0.86191 0.65378 0.0
C2843 C 0.13904 0.85968 0.68302 0.0
C2844 C 0.14933 0.87163 0.70301 0.0
C2845 C 0.14164 0.87982 0.71478 0.0
C2846 C 0.15496 0.86578 0.72936 0.0
C2847 C 0.1618 0.88084 0.68047 0.0
C2848 C 0.1589 0.87505 0.65219 0.0
C2849 C 0.16881 0.88149 0.62773 0.0
C2850 C 0.18202 0.89419 0.63223 0.0
C2851 C 0.18533 0.90042 0.66102 0.0
C2852 C 0.17498 0.89355 0.68541 0.0
H2853 H 0.17853 0.28693 0.60828 0.0
H2854 H 0.19125 0.28793 0.70233 0.0
H2855 H 0.16762 0.28666 0.71871 0.0
H2856 H 0.16274 0.31029 0.61667 0.0
H2857 H 0.14805 0.30125 0.59025 0.0
H2858 H 0.16532 0.30096 0.58599 0.0
H2859 H 0.15106 0.2733 0.58748 0.0
H2860 H 0.13374 0.2735 0.59191 0.0
H2861 H 0.13879 0.26369 0.61927 0.0
H2862 H 0.14292 0.28564 0.72493 0.0
H2863 H 0.11954 0.28652 0.7211 0.0
H2864 H 0.1234 0.28852 0.62262 0.0
C2865 C 0.17636 0.28698 0.63229 0.0
C2866 C 0.18681 0.28767 0.65409 0.0
C2867 C 0.18341 0.2874 0.68531 0.0
C2868 C 0.17003 0.28669 0.69479 0.0
C2869 C 0.16011 0.28634 0.67277 0.0
C2870 C 0.16314 0.28659 0.64214 0.0
C2871 C 0.15092 0.28694 0.6232 0.0
C2872 C 0.15713 0.30068 0.60282 0.0
C2873 C 0.14317 0.27356 0.60435 0.0
C2874 C 0.14059 0.2869 0.64796 0.0
C2875 C 0.14608 0.28638 0.67635 0.0
C2876 C 0.1386 0.2862 0.70281 0.0
C2877 C 0.12533 0.28683 0.70033 0.0
C2878 C 0.11961 0.28789 0.67155 0.0
C2879 C 0.12733 0.28768 0.645 0.0
H2880 H 0.07317 0.40888 0.24328 0.0
H2881 H 0.05576 0.43316 0.19361 0.0
H2882 H 0.06309 0.42716 0.14516 0.0
H2883 H 0.10554 0.41999 0.19192 0.0
H2884 H 0.10526 0.40299 0.19538 0.0
H2885 H 0.09841 0.40894 0.22626 0.0
H2886 H 0.07333 0.38559 0.22542 0.0
H2887 H 0.08005 0.37964 0.19434 0.0
H2888 H 0.06318 0.38074 0.1906 0.0
H2889 H 0.07119 0.41739 0.10106 0.0
H2890 H 0.08151 0.40679 0.06578 0.0
H2891 H 0.09647 0.39088 0.14262 0.0
C2892 C 0.07093 0.41295 0.22218 0.0
C2893 C 0.06335 0.42116 0.22255 0.0
C2894 C 0.06104 0.4265 0.19423 0.0
C2895 C 0.06525 0.42317 0.16644 0.0
C2896 C 0.07223 0.41473 0.16678 0.0
C2897 C 0.07534 0.40991 0.19395 0.0
C2898 C 0.0835 0.40144 0.18771 0.0
C2899 C 0.09911 0.40878 0.20111 0.0
C2900 C 0.07448 0.38593 0.20027 0.0
C2901 C 0.08429 0.40209 0.15292 0.0
C2902 C 0.07758 0.40972 0.14138 0.0
C2903 C 0.07654 0.41149 0.11002 0.0
C2904 C 0.08248 0.40541 0.09002 0.0
C2905 C 0.08959 0.39762 0.10091 0.0
C2906 C 0.09063 0.39618 0.13309 0.0
H2907 H 0.60304 0.64841 0.23107 0.0
H2908 H 0.56015 0.64572 0.24689 0.0
H2909 H 0.56439 0.66192 0.2023 0.0
H2910 H 0.62317 0.68477 0.20003 0.0
H2911 H 0.63262 0.68103 0.17017 0.0
H2912 H 0.627 0.67004 0.20479 0.0
H2913 H 0.61234 0.64749 0.17388 0.0
H2914 H 0.618 0.65841 0.13916 0.0
H2915 H 0.59857 0.64683 0.14769 0.0
H2916 H 0.57465 0.68098 0.15901 0.0
H2917 H 0.58686 0.69638 0.11355 0.0
H2918 H 0.62059 0.6831 0.1163 0.0
C2919 C 0.59455 0.65127 0.22521 0.0
C2920 C 0.58159 0.64636 0.24425 0.0
C2921 C 0.57059 0.64996 0.23446 0.0
C2922 C 0.57284 0.6591 0.20872 0.0
C2923 C 0.58591 0.6642 0.19136 0.0
C2924 C 0.59636 0.66001 0.19849 0.0
C2925 C 0.60879 0.66612 0.17408 0.0
C2926 C 0.62379 0.67608 0.18811 0.0
C2927 C 0.60947 0.65399 0.15773 0.0
C2928 C 0.60377 0.67453 0.15253 0.0
C2929 C 0.5907 0.67351 0.16355 0.0
C2930 C 0.58452 0.6813 0.14951 0.0
C2931 C 0.59147 0.68994 0.12317 0.0
C2932 C 0.6042 0.69038 0.10946 0.0
C2933 C 0.61057 0.6827 0.12514 0.0
H2934 H 0.32168 0.93607 0.12992 0.0
H2935 H 0.31492 0.89292 0.12517 0.0
H2936 H 0.33215 0.89724 0.16721 0.0
H2937 H 0.35977 0.95406 0.15403 0.0
H2938 H 0.35715 0.96466 0.18175 0.0
H2939 H 0.34534 0.95892 0.14925 0.0
H2940 H 0.32214 0.94709 0.18477 0.0
H2941 H 0.33388 0.95287 0.21738 0.0
H2942 H 0.32073 0.93422 0.21406 0.0
H2943 H 0.35296 0.90745 0.20601 0.0
H2944 H 0.37008 0.91991 0.24696 0.0
H2945 H 0.35896 0.95416 0.23796 0.0
C2946 C 0.32388 0.92754 0.13762 0.0
C2947 C 0.31762 0.91441 0.12213 0.0
C2948 C 0.32034 0.90343 0.13444 0.0
C2949 C 0.33002 0.90572 0.15886 0.0
C2950 C 0.33647 0.91889 0.17259 0.0
C2951 C 0.33306 0.92944 0.16325 0.0
C2952 C 0.34041 0.94203 0.18429 0.0
C2953 C 0.35131 0.95573 0.16625 0.0
C2954 C 0.32859 0.94418 0.20112 0.0
C2955 C 0.34866 0.93701 0.2064 0.0
C2956 C 0.3465 0.92376 0.19854 0.0
C2957 C 0.35409 0.91748 0.21328 0.0
C2958 C 0.36367 0.92458 0.23717 0.0
C2959 C 0.36518 0.93757 0.24797 0.0
C2960 C 0.3577 0.94397 0.23151 0.0
H2961 H 0.39629 0.09273 0.86099 0.0
H2962 H 0.41328 0.0786 0.93735 0.0
H2963 H 0.42472 0.0692 0.90174 0.0
H2964 H 0.38634 0.06083 0.81683 0.0
H2965 H 0.39106 0.07062 0.78071 0.0
H2966 H 0.38479 0.07688 0.81199 0.0
H2967 H 0.40861 0.10137 0.8065 0.0
H2968 H 0.41502 0.09514 0.77541 0.0
H2969 H 0.42649 0.10213 0.80804 0.0
H2970 H 0.43523 0.06186 0.85723 0.0
H2971 H 0.44155 0.05496 0.80876 0.0
H2972 H 0.41555 0.07095 0.7602 0.0
C2973 C 0.40197 0.08725 0.87044 0.0
C2974 C 0.40346 0.0862 0.9026 0.0
C2975 C 0.41182 0.07958 0.91318 0.0
C2976 C 0.41839 0.07417 0.89298 0.0
C2977 C 0.41652 0.07519 0.8617 0.0
C2978 C 0.40833 0.08139 0.85044 0.0
C2979 C 0.40763 0.08064 0.81574 0.0
C2980 C 0.3915 0.07171 0.80572 0.0
C2981 C 0.41487 0.09572 0.80053 0.0
C2982 C 0.41673 0.07311 0.80924 0.0
C2983 C 0.42191 0.07027 0.83617 0.0
C2984 C 0.43096 0.06383 0.83618 0.0
C2985 C 0.43449 0.05988 0.80838 0.0
C2986 C 0.42876 0.06193 0.78042 0.0
C2987 C 0.41996 0.06896 0.78104 0.0
H2988 H 0.92038 0.30324 0.87464 0.0
H2989 H 0.93189 0.33384 0.94514 0.0
H2990 H 0.9407 0.35349 0.90578 0.0
H2991 H 0.95317 0.32552 0.82651 0.0
H2992 H 0.94346 0.31965 0.79144 0.0
H2993 H 0.93734 0.30793 0.82498 0.0
H2994 H 0.9111 0.30531 0.81974 0.0
H2995 H 0.91718 0.31713 0.78635 0.0
H2996 H 0.90893 0.32108 0.8181 0.0
H2997 H 0.94812 0.37011 0.85812 0.0
H2998 H 0.95542 0.38234 0.80729 0.0
H2999 H 0.94154 0.34166 0.76665 0.0
C3000 C 0.9251 0.31408 0.88196 0.0
C3001 C 0.92567 0.31687 0.91352 0.0
C3002 C 0.93132 0.33129 0.92144 0.0
C3003 C 0.93639 0.34257 0.89911 0.0
C3004 C 0.93591 0.33949 0.86842 0.0
C3005 C 0.93054 0.32558 0.8598 0.0
C3006 C 0.93175 0.32529 0.82522 0.0
C3007 C 0.94204 0.31923 0.81652 0.0
C3008 C 0.91632 0.31669 0.81155 0.0
C3009 C 0.93862 0.34116 0.81571 0.0
C3010 C 0.94073 0.34911 0.84108 0.0
C3011 C 0.94663 0.36394 0.83827 0.0
C3012 C 0.95077 0.37084 0.80917 0.0
C3013 C 0.94935 0.36312 0.78276 0.0
C3014 C 0.94291 0.34796 0.78625 0.0
H3015 H 0.69798 0.59412 0.90189 0.0
H3016 H 0.69912 0.63462 0.91559 0.0
H3017 H 0.68264 0.63045 0.87202 0.0
H3018 H 0.69519 0.59312 0.8219 0.0
H3019 H 0.68157 0.57451 0.82054 0.0
H3020 H 0.69402 0.58068 0.85198 0.0
H3021 H 0.67177 0.57036 0.88995 0.0
H3022 H 0.65925 0.56388 0.85867 0.0
H3023 H 0.65743 0.57536 0.88529 0.0
H3024 H 0.66746 0.62271 0.82317 0.0
H3025 H 0.65144 0.61044 0.78039 0.0
H3026 H 0.65475 0.5724 0.80518 0.0
C3027 C 0.69432 0.60188 0.89689 0.0
C3028 C 0.69998 0.61475 0.91323 0.0
C3029 C 0.69524 0.62476 0.90383 0.0
C3030 C 0.68579 0.62247 0.87891 0.0
C3031 C 0.68053 0.6098 0.86344 0.0
C3032 C 0.68424 0.59945 0.8727 0.0
C3033 C 0.67621 0.58637 0.85318 0.0
C3034 C 0.68742 0.5835 0.83588 0.0
C3035 C 0.66553 0.57321 0.87295 0.0
C3036 C 0.66767 0.5911 0.83119 0.0
C3037 C 0.67066 0.60481 0.83715 0.0
C3038 C 0.66487 0.61186 0.81886 0.0
C3039 C 0.65569 0.60473 0.79441 0.0
C3040 C 0.65173 0.59037 0.78826 0.0
C3041 C 0.65785 0.58351 0.80754 0.0
H3042 H 0.94028 0.62961 0.83814 0.0
H3043 H 0.90252 0.59187 0.878 0.0
H3044 H 0.9081 0.57665 0.84545 0.0
H3045 H 0.93565 0.61653 0.76075 0.0
H3046 H 0.95536 0.62485 0.75333 0.0
H3047 H 0.94805 0.63269 0.77916 0.0
H3048 H 0.96545 0.6318 0.82078 0.0
H3049 H 0.97256 0.6237 0.79515 0.0
H3050 H 0.96461 0.61497 0.83145 0.0
H3051 H 0.91907 0.56543 0.81211 0.0
H3052 H 0.93225 0.55906 0.77376 0.0
H3053 H 0.96192 0.60397 0.75262 0.0
C3054 C 0.93308 0.61815 0.83964 0.0
C3055 C 0.92091 0.6119 0.86049 0.0
C3056 C 0.91175 0.59688 0.86189 0.0
C3057 C 0.91493 0.58815 0.84371 0.0
C3058 C 0.9272 0.59461 0.82392 0.0
C3059 C 0.93595 0.60928 0.82124 0.0
C3060 C 0.9483 0.61348 0.79769 0.0
C3061 C 0.94674 0.62241 0.77116 0.0
C3062 C 0.96364 0.62146 0.81214 0.0
C3063 C 0.94522 0.59887 0.7878 0.0
C3064 C 0.93311 0.58814 0.80358 0.0
C3065 C 0.9284 0.57374 0.79926 0.0
C3066 C 0.93595 0.57022 0.77757 0.0
C3067 C 0.94785 0.58103 0.76 0.0
C3068 C 0.95274 0.59553 0.76564 0.0
H3069 H 0.41196 0.31126 0.88271 0.0
H3070 H 0.36652 0.30292 0.89235 0.0
H3071 H 0.37156 0.32225 0.85352 0.0
H3072 H 0.42743 0.34967 0.88052 0.0
H3073 H 0.44239 0.35276 0.85473 0.0
H3074 H 0.43462 0.33726 0.8804 0.0
H3075 H 0.42932 0.32096 0.83483 0.0
H3076 H 0.43697 0.3364 0.80899 0.0
H3077 H 0.41838 0.32211 0.80395 0.0
H3078 H 0.382 0.34282 0.81309 0.0
H3079 H 0.39702 0.36336 0.77735 0.0
H3080 H 0.43658 0.36118 0.80315 0.0
C3081 C 0.40316 0.31373 0.87732 0.0
C3082 C 0.38895 0.30587 0.89129 0.0
C3083 C 0.37752 0.3089 0.88209 0.0
C3084 C 0.38031 0.31987 0.86015 0.0
C3085 C 0.39466 0.32788 0.84789 0.0
C3086 C 0.40593 0.32503 0.8565 0.0
C3087 C 0.42062 0.33578 0.84169 0.0
C3088 C 0.43193 0.34438 0.86577 0.0
C3089 C 0.42668 0.32836 0.82115 0.0
C3090 C 0.41587 0.34506 0.82315 0.0
C3091 C 0.4008 0.34019 0.8265 0.0
C3092 C 0.39382 0.34674 0.81049 0.0
C3093 C 0.40243 0.35842 0.79034 0.0
C3094 C 0.41789 0.36359 0.78666 0.0
C3095 C 0.42469 0.35706 0.80414 0.0
H3096 H 0.69438 0.07177 0.93787 0.0
H3097 H 0.70988 0.1165 0.91411 0.0
H3098 H 0.69036 0.10977 0.87559 0.0
H3099 H 0.68616 0.06008 0.85918 0.0
H3100 H 0.67022 0.04331 0.87045 0.0
H3101 H 0.68548 0.05174 0.89592 0.0
H3102 H 0.66727 0.05089 0.93728 0.0
H3103 H 0.65195 0.04281 0.9119 0.0
H3104 H 0.65586 0.05917 0.92957 0.0
H3105 H 0.66789 0.09823 0.84293 0.0
H3106 H 0.64685 0.08267 0.81115 0.0
H3107 H 0.64699 0.04529 0.85267 0.0
C3108 C 0.69372 0.08009 0.9242 0.0
C3109 C 0.70335 0.09466 0.92926 0.0
C3110 C 0.70238 0.1053 0.91081 0.0
C3111 C 0.69132 0.10157 0.889 0.0
C3112 C 0.68157 0.08712 0.88536 0.0
C3113 C 0.6829 0.07653 0.90181 0.0
C3114 C 0.67131 0.06181 0.89248 0.0
C3115 C 0.67874 0.05376 0.87868 0.0
C3116 C 0.66098 0.05316 0.91942 0.0
C3117 C 0.66312 0.0658 0.86865 0.0
C3118 C 0.6691 0.08046 0.86524 0.0
C3119 C 0.66319 0.08674 0.8452 0.0
C3120 C 0.65115 0.07782 0.82749 0.0
C3121 C 0.64525 0.0628 0.82959 0.0
C3122 C 0.65126 0.05674 0.8507 0.0
H3123 H 0.62359 0.93297 0.08973 0.0
H3124 H 0.59961 0.88719 0.10839 0.0
H3125 H 0.58671 0.89061 0.15208 0.0
H3126 H 0.62827 0.94244 0.17058 0.0
H3127 H 0.62621 0.9581 0.16341 0.0
H3128 H 0.63391 0.95206 0.1343 0.0
H3129 H 0.61393 0.95105 0.09725 0.0
H3130 H 0.60599 0.95685 0.12636 0.0
H3131 H 0.59457 0.94044 0.10782 0.0
H3132 H 0.57453 0.89867 0.18958 0.0
H3133 H 0.56655 0.91093 0.22495 0.0
H3134 H 0.60006 0.952 0.1862 0.0
C3135 C 0.61581 0.92374 0.10347 0.0
C3136 C 0.61243 0.90979 0.09579 0.0
C3137 C 0.60224 0.89792 0.11406 0.0
C3138 C 0.59484 0.89977 0.13874 0.0
C3139 C 0.59799 0.9136 0.1452 0.0
C3140 C 0.60848 0.92543 0.12864 0.0
C3141 C 0.60984 0.93911 0.14092 0.0
C3142 C 0.62549 0.94848 0.15303 0.0
C3143 C 0.60584 0.94735 0.11663 0.0
C3144 C 0.59829 0.93307 0.16656 0.0
C3145 C 0.59151 0.91833 0.16828 0.0
C3146 C 0.58003 0.91023 0.18902 0.0
C3147 C 0.57564 0.91736 0.20923 0.0
C3148 C 0.58289 0.93253 0.20924 0.0
C3149 C 0.59423 0.94043 0.18708 0.0
H3150 H 0.0616 0.65846 0.25309 0.0
H3151 H 0.04409 0.62535 0.18745 0.0
H3152 H 0.05031 0.64359 0.14619 0.0
H3153 H 0.0543 0.68563 0.21389 0.0
H3154 H 0.07221 0.70024 0.22257 0.0
H3155 H 0.0635 0.68468 0.24805 0.0
H3156 H 0.08674 0.68128 0.24416 0.0
H3157 H 0.09554 0.69689 0.21896 0.0
H3158 H 0.09352 0.68007 0.20726 0.0
H3159 H 0.05923 0.66517 0.11168 0.0
H3160 H 0.07489 0.68824 0.08481 0.0
H3161 H 0.09101 0.70802 0.17074 0.0
C3162 C 0.05869 0.65507 0.23007 0.0
C3163 C 0.05119 0.64032 0.22388 0.0
C3164 C 0.04851 0.63639 0.19325 0.0
C3165 C 0.05228 0.64675 0.16951 0.0
C3166 C 0.05938 0.66113 0.17644 0.0
C3167 C 0.06301 0.66535 0.20586 0.0
C3168 C 0.07293 0.68148 0.20639 0.0
C3169 C 0.06528 0.68842 0.22376 0.0
C3170 C 0.08808 0.68514 0.21999 0.0
C3171 C 0.07439 0.68564 0.17263 0.0
C3172 C 0.06606 0.67372 0.15601 0.0
C3173 C 0.06576 0.67457 0.12447 0.0
C3174 C 0.07464 0.68779 0.10937 0.0
C3175 C 0.084 0.70006 0.12553 0.0
C3176 C 0.08364 0.69901 0.15773 0.0
H3177 H 0.37264 0.43268 0.22996 0.0
H3178 H 0.34709 0.41101 0.3118 0.0
H3179 H 0.32475 0.3978 0.28119 0.0
H3180 H 0.34476 0.43652 0.19104 0.0
H3181 H 0.34935 0.4329 0.15408 0.0
H3182 H 0.36349 0.44043 0.18218 0.0
H3183 H 0.3694 0.41958 0.17746 0.0
H3184 H 0.35546 0.41213 0.14891 0.0
H3185 H 0.35463 0.40141 0.18222 0.0
H3186 H 0.30478 0.38819 0.24182 0.0
H3187 H 0.28937 0.38058 0.19589 0.0
H3188 H 0.32827 0.40709 0.13937 0.0
C3189 C 0.3625 0.42477 0.2413 0.0
C3190 C 0.36167 0.42258 0.27321 0.0
C3191 C 0.34797 0.41268 0.28733 0.0
C3192 C 0.33523 0.40519 0.27015 0.0
C3193 C 0.33635 0.40766 0.23875 0.0
C3194 C 0.34969 0.41702 0.22438 0.0
C3195 C 0.34789 0.41763 0.19028 0.0
C3196 C 0.35159 0.43277 0.17873 0.0
C3197 C 0.35741 0.41237 0.17375 0.0
C3198 C 0.33146 0.40725 0.18778 0.0
C3199 C 0.32496 0.40176 0.21603 0.0
C3200 C 0.30978 0.39232 0.21955 0.0
C3201 C 0.30109 0.38814 0.19344 0.0
C3202 C 0.30765 0.39324 0.16424 0.0
C3203 C 0.32301 0.40299 0.16149 0.0
H3204 H 0.7221 0.73794 0.55743 0.0
H3205 H 0.75808 0.78131 0.56264 0.0
H3206 H 0.7711 0.77737 0.52036 0.0
H3207 H 0.74222 0.72036 0.53106 0.0
H3208 H 0.72892 0.71008 0.50312 0.0
H3209 H 0.72292 0.71539 0.53636 0.0
H3210 H 0.7114 0.72757 0.50232 0.0
H3211 H 0.71726 0.72219 0.46898 0.0
H3212 H 0.72275 0.74077 0.47344 0.0
H3213 H 0.7819 0.76739 0.48126 0.0
H3214 H 0.78652 0.75541 0.43934 0.0
H3215 H 0.74096 0.72134 0.44689 0.0
C3216 C 0.73277 0.74661 0.54983 0.0
C3217 C 0.73951 0.75965 0.56566 0.0
C3218 C 0.75313 0.77082 0.55334 0.0
C3219 C 0.76056 0.76875 0.5287 0.0
C3220 C 0.75396 0.75568 0.51463 0.0
C3221 C 0.74004 0.745 0.52383 0.0
C3222 C 0.73474 0.73268 0.50206 0.0
C3223 C 0.73204 0.7188 0.51918 0.0
C3224 C 0.7207 0.73069 0.48573 0.0
C3225 C 0.74796 0.73799 0.4797 0.0
C3226 C 0.75908 0.75111 0.48815 0.0
C3227 C 0.77296 0.75749 0.4735 0.0
C3228 C 0.77542 0.75066 0.44907 0.0
C3229 C 0.76389 0.73789 0.43752 0.0
C3230 C 0.74997 0.73137 0.45389 0.0
H3231 H 0.26012 0.02756 0.45945 0.0
H3232 H 0.30238 0.02943 0.43975 0.0
H3233 H 0.29926 0.01452 0.48614 0.0
H3234 H 0.26043 0.02622 0.53964 0.0
H3235 H 0.24132 0.01276 0.54555 0.0
H3236 H 0.24686 0.02419 0.51157 0.0
H3237 H 0.23613 1.00214 0.47824 0.0
H3238 H 0.23024 0.99064 0.51212 0.0
H3239 H 0.24195 0.98881 0.4842 0.0
H3240 H 0.29259 1.00105 0.53811 0.0
H3241 H 0.28092 0.98615 0.58461 0.0
H3242 H 0.24025 0.98747 0.56475 0.0
C3243 C 0.26845 0.02436 0.46375 0.0
C3244 C 0.28153 0.02979 0.44487 0.0
C3245 C 0.29234 0.0257 0.45343 0.0
C3246 C 0.29066 0.01717 0.47995 0.0
C3247 C 0.27779 0.01214 0.49792 0.0
C3248 C 0.26661 0.01516 0.48962 0.0
C3249 C 0.25344 0.00749 0.51204 0.0
C3250 C 0.25033 0.01831 0.52815 0.0
C3251 C 0.23962 0.99662 0.49568 0.0
C3252 C 0.25908 0.99995 0.53448 0.0
C3253 C 0.27334 1.00314 0.52622 0.0
C3254 C 0.2813 0.99827 0.54427 0.0
C3255 C 0.27452 0.98974 0.57085 0.0
C3256 C 0.25959 0.98552 0.57938 0.0
C3257 C 0.25181 0.99077 0.5604 0.0
H3258 H 0.02584 0.28605 0.57077 0.0
H3259 H 0.03542 0.25083 0.58087 0.0
H3260 H 0.01797 0.23849 0.54031 0.0
H3261 H 0.98753 0.26699 0.54761 0.0
H3262 H 0.9893 0.27989 0.51809 0.0
H3263 H 1.00121 0.28551 0.55045 0.0
H3264 H 0.02435 0.29644 0.51473 0.0
H3265 H 0.0125 0.29094 0.48226 0.0
H3266 H 0.02645 0.28544 0.48721 0.0
H3267 H 0.99694 0.22855 0.5022 0.0
H3268 H 0.97977 0.22451 0.46019 0.0
H3269 H 0.98836 0.26833 0.46312 0.0
C3270 C 0.02418 0.27568 0.56462 0.0
C3271 C 0.03128 0.26897 0.58125 0.0
C3272 C 0.02928 0.25575 0.57089 0.0
C3273 C 0.01951 0.24871 0.54727 0.0
C3274 C 0.01226 0.25529 0.53238 0.0
C3275 C 0.01495 0.26876 0.53976 0.0
C3276 C 0.00698 0.27403 0.51749 0.0
C3277 C 0.99558 0.27677 0.53443 0.0
C3278 C 0.01824 0.28752 0.49934 0.0
C3279 C 0.99924 0.26134 0.49686 0.0
C3280 C 1.00215 0.25052 0.50662 0.0
C3281 C 0.99521 0.23723 0.49346 0.0
C3282 C 0.98557 0.23509 0.46906 0.0
C3283 C 0.98343 0.24634 0.45623 0.0
C3284 C 0.99014 0.25959 0.47122 0.0
H3285 H 0.28917 0.26866 0.41765 0.0
H3286 H 0.26799 0.22336 0.44197 0.0
H3287 H 0.25615 0.22722 0.48686 0.0
H3288 H 0.29631 0.2803 0.49739 0.0
H3289 H 0.29308 0.29526 0.48974 0.0
H3290 H 0.30034 0.28904 0.46012 0.0
H3291 H 0.27871 0.28609 0.42579 0.0
H3292 H 0.2712 0.29203 0.45546 0.0
H3293 H 0.25984 0.27498 0.43916 0.0
H3294 H 0.24419 0.23529 0.52441 0.0
H3295 H 0.23648 0.24757 0.56014 0.0
H3296 H 0.26742 0.28851 0.51652 0.0
C3297 C 0.2823 0.25967 0.43292 0.0
C3298 C 0.27937 0.24568 0.42649 0.0
C3299 C 0.27031 0.23411 0.44671 0.0
C3300 C 0.26349 0.2362 0.47206 0.0
C3301 C 0.26611 0.25 0.47726 0.0
C3302 C 0.27561 0.26163 0.45888 0.0
C3303 C 0.27664 0.27534 0.47031 0.0
C3304 C 0.29254 0.28559 0.47997 0.0
C3305 C 0.27128 0.28253 0.44624 0.0
C3306 C 0.26599 0.26952 0.49758 0.0
C3307 C 0.25993 0.25484 0.50069 0.0
C3308 C 0.24921 0.24682 0.52284 0.0
C3309 C 0.24497 0.25398 0.54323 0.0
C3310 C 0.25169 0.26914 0.54215 0.0
C3311 C 0.26212 0.27696 0.51836 0.0
H3312 H 0.72022 0.97019 0.52262 0.0
H3313 H 0.72765 0.99036 0.60915 0.0
H3314 H 0.73744 0.01392 0.58236 0.0
H3315 H 0.75098 0.99601 0.48334 0.0
H3316 H 0.74213 0.99539 0.44771 0.0
H3317 H 0.7347 0.97987 0.47325 0.0
H3318 H 0.70911 0.97904 0.47374 0.0
H3319 H 0.7164 0.99447 0.4478 0.0
H3320 H 0.70793 0.99471 0.48342 0.0
H3321 H 0.75086 0.03535 0.5465 0.0
H3322 H 0.76258 0.05299 0.50398 0.0
H3323 H 0.74181 0.0194 0.44005 0.0
C3324 C 0.72313 0.97941 0.53596 0.0
C3325 C 0.72285 0.97831 0.56814 0.0
C3326 C 0.72767 0.9909 0.58454 0.0
C3327 C 0.73327 0.00435 0.56952 0.0
C3328 C 0.73365 0.00511 0.53789 0.0
C3329 C 0.7283 0.99296 0.52124 0.0
C3330 C 0.73017 0.99688 0.48737 0.0
C3331 C 0.74008 0.99172 0.47203 0.0
C3332 C 0.715 0.99092 0.47219 0.0
C3333 C 0.73784 0.01309 0.48772 0.0
C3334 C 0.73993 0.01761 0.51713 0.0
C3335 C 0.74855 0.03201 0.52335 0.0
C3336 C 0.75494 0.04206 0.49893 0.0
C3337 C 0.75218 0.03783 0.46848 0.0
C3338 C 0.74355 0.02307 0.46303 0.0
H3339 H 0.03532 0.77549 0.57803 0.0
H3340 H 0.03534 0.73815 0.6198 0.0
H3341 H 0.01576 0.72268 0.58474 0.0
H3342 H 0.99608 0.75945 0.56973 0.0
H3343 H 0.99711 0.76862 0.53388 0.0
H3344 H 0.01179 0.77673 0.56071 0.0
H3345 H 0.03104 0.77908 0.51982 0.0
H3346 H 0.01642 0.77104 0.49281 0.0
H3347 H 0.02842 0.76343 0.50072 0.0
H3348 H 0.9956 0.71137 0.54608 0.0
H3349 H 0.97694 0.70495 0.50619 0.0
H3350 H 0.98898 0.74971 0.49183 0.0
C3351 C 0.03118 0.76405 0.57967 0.0
C3352 C 0.03665 0.75791 0.60167 0.0
C3353 C 0.03122 0.74297 0.603 0.0
C3354 C 0.0201 0.73414 0.58329 0.0
C3355 C 0.01458 0.74048 0.5624 0.0
C3356 C 0.01998 0.7551 0.5604 0.0
C3357 C 0.01186 0.75918 0.53663 0.0
C3358 C 1.00373 0.76642 0.55111 0.0
C3359 C 0.02258 0.76875 0.51097 0.0
C3360 C 1.00101 0.74458 0.52558 0.0
C3361 C 1.00279 0.73395 0.54065 0.0
C3362 C 0.99408 0.71961 0.53424 0.0
C3363 C 0.98336 0.71606 0.51169 0.0
C3364 C 0.98129 0.72677 0.4958 0.0
C3365 C 0.99027 0.74122 0.50316 0.0
H3366 H 0.06826 0.34633 0.90316 0.0
H3367 H 0.11589 0.36302 0.90459 0.0
H3368 H 0.11504 0.35258 0.85499 0.0
H3369 H 0.0597 0.31277 0.86854 0.0
H3370 H 0.04494 0.31228 0.84569 0.0
H3371 H 0.04917 0.32113 0.88121 0.0
H3372 H 0.05268 0.34435 0.85347 0.0
H3373 H 0.04846 0.33558 0.81787 0.0
H3374 H 0.06563 0.35192 0.82181 0.0
H3375 H 0.10916 0.34024 0.80467 0.0
H3376 H 0.0987 0.32696 0.75814 0.0
H3377 H 0.05467 0.31771 0.78762 0.0
C3378 C 0.0785 0.34781 0.89291 0.0
C3379 C 0.09224 0.35578 0.90777 0.0
C3380 C 0.10531 0.35724 0.89362 0.0
C3381 C 0.10491 0.35127 0.8654 0.0
C3382 C 0.0913 0.34365 0.85119 0.0
C3383 C 0.0783 0.34185 0.86448 0.0
C3384 C 0.06515 0.33304 0.84427 0.0
C3385 C 0.05408 0.31897 0.86093 0.0
C3386 C 0.05753 0.34174 0.83373 0.0
C3387 C 0.07278 0.33025 0.81757 0.0
C3388 C 0.08789 0.33649 0.82217 0.0
C3389 C 0.09735 0.3354 0.8009 0.0
C3390 C 0.09131 0.32785 0.77438 0.0
C3391 C 0.07589 0.32143 0.76874 0.0
C3392 C 0.06651 0.3226 0.79097 0.0
H3393 H 0.66367 0.75294 0.90294 0.0
H3394 H 0.64071 0.7068 0.89958 0.0
H3395 H 0.65115 0.70875 0.84785 0.0
H3396 H 0.65884 0.76025 0.824 0.0
H3397 H 0.67688 0.7758 0.81929 0.0
H3398 H 0.66781 0.77083 0.85614 0.0
H3399 H 0.69067 0.77014 0.87883 0.0
H3400 H 0.69982 0.77512 0.84203 0.0
H3401 H 0.69739 0.75912 0.8622 0.0
H3402 H 0.66416 0.71579 0.79531 0.0
H3403 H 0.67839 0.72717 0.74756 0.0
H3404 H 0.69315 0.76892 0.78364 0.0
C3405 C 0.66101 0.74324 0.89147 0.0
C3406 C 0.65148 0.72963 0.90588 0.0
C3407 C 0.64803 0.7173 0.88944 0.0
C3408 C 0.65394 0.71833 0.85992 0.0
C3409 C 0.66335 0.73183 0.84649 0.0
C3410 C 0.66686 0.7441 0.86176 0.0
C3411 C 0.67712 0.7573 0.8419 0.0
C3412 C 0.66972 0.7666 0.83492 0.0
C3413 C 0.69214 0.76593 0.85715 0.0
C3414 C 0.67885 0.7506 0.81317 0.0
C3415 C 0.67079 0.73586 0.81635 0.0
C3416 C 0.67054 0.72731 0.79283 0.0
C3417 C 0.67868 0.73388 0.76564 0.0
C3418 C 0.68719 0.74895 0.76167 0.0
C3419 C 0.68709 0.75737 0.78595 0.0
H3420 H 0.26277 0.90689 0.90526 0.0
H3421 H 0.28943 0.94866 0.94153 0.0
H3422 H 0.28628 0.96 0.89396 0.0
H3423 H 0.27633 0.91671 0.82703 0.0
H3424 H 0.25857 0.90555 0.81061 0.0
H3425 H 0.26288 0.90071 0.8474 0.0
H3426 H 0.23933 0.89988 0.87047 0.0
H3427 H 0.23494 0.9047 0.83374 0.0
H3428 H 0.23664 0.9153 0.86585 0.0
H3429 H 0.28035 0.96698 0.84114 0.0
H3430 H 0.27199 0.96882 0.7892 0.0
H3431 H 0.24856 0.92265 0.78656 0.0
C3432 C 0.26804 0.91843 0.90308 0.0
C3433 C 0.2766 0.92688 0.92729 0.0
C3434 C 0.28297 0.94193 0.92348 0.0
C3435 C 0.28122 0.94848 0.8964 0.0
C3436 C 0.27291 0.9399 0.87291 0.0
C3437 C 0.26635 0.92517 0.87603 0.0
C3438 C 0.25784 0.91843 0.84738 0.0
C3439 C 0.26429 0.90984 0.83221 0.0
C3440 C 0.2412 0.90902 0.85481 0.0
C3441 C 0.26065 0.9316 0.8276 0.0
C3442 C 0.2694 0.94389 0.84279 0.0
C3443 C 0.27353 0.95737 0.82919 0.0
C3444 C 0.26871 0.95834 0.79954 0.0
C3445 C 0.25981 0.94597 0.78318 0.0
C3446 C 0.25563 0.93239 0.79787 0.0
H3447 H 0.35142 0.06701 0.10681 0.0
H3448 H 0.36263 0.11155 0.09602 0.0
H3449 H 0.3509 0.10993 0.14614 0.0
H3450 H 0.31557 0.0546 0.14517 0.0
H3451 H 0.31747 0.04204 0.17076 0.0
H3452 H 0.32661 0.04654 0.13397 0.0
H3453 H 0.35182 0.05399 0.15941 0.0
H3454 H 0.34275 0.04948 0.19626 0.0
H3455 H 0.35803 0.06713 0.18813 0.0
H3456 H 0.33779 0.10355 0.19801 0.0
H3457 H 0.32513 0.09316 0.24763 0.0
H3458 H 0.32226 0.05262 0.22699 0.0
C3459 C 0.35142 0.07641 0.1151 0.0
C3460 C 0.35813 0.0895 0.09734 0.0
C3461 C 0.35774 0.10148 0.1091 0.0
C3462 C 0.35104 0.10063 0.13762 0.0
C3463 C 0.34461 0.08767 0.15462 0.0
C3464 C 0.34476 0.07575 0.14387 0.0
C3465 C 0.33715 0.06317 0.16705 0.0
C3466 C 0.32338 0.05086 0.15342 0.0
C3467 C 0.34809 0.05814 0.17838 0.0
C3468 C 0.33275 0.06986 0.19248 0.0
C3469 C 0.33713 0.08401 0.18465 0.0
C3470 C 0.33436 0.09248 0.20424 0.0
C3471 C 0.32712 0.08648 0.23247 0.0
C3472 C 0.32266 0.07208 0.24148 0.0
C3473 C 0.32547 0.06365 0.2209 0.0
H3474 H 0.93025 0.2386 0.23814 0.0
H3475 H 0.95532 0.28051 0.27489 0.0
H3476 H 0.95188 0.29156 0.2272 0.0
H3477 H 0.94467 0.24913 0.16049 0.0
H3478 H 0.92729 0.2374 0.14336 0.0
H3479 H 0.93157 0.2328 0.18043 0.0
H3480 H 0.90721 0.23069 0.20228 0.0
H3481 H 0.90287 0.23531 0.1653 0.0
H3482 H 0.90365 0.24559 0.19741 0.0
H3483 H 0.94563 0.29819 0.17446 0.0
H3484 H 0.93759 0.2997 0.12199 0.0
H3485 H 0.91669 0.25363 0.11841 0.0
C3486 C 0.93519 0.25012 0.236 0.0
C3487 C 0.94334 0.2587 0.26037 0.0
C3488 C 0.94919 0.2737 0.25667 0.0
C3489 C 0.94727 0.28007 0.22956 0.0
C3490 C 0.93935 0.27137 0.20591 0.0
C3491 C 0.93341 0.25669 0.20886 0.0
C3492 C 0.92539 0.24978 0.17993 0.0
C3493 C 0.93267 0.2418 0.16519 0.0
C3494 C 0.9088 0.23975 0.18664 0.0
C3495 C 0.92778 0.26281 0.16021 0.0
C3496 C 0.93583 0.27517 0.1757 0.0
C3497 C 0.93937 0.28854 0.16223 0.0
C3498 C 0.93474 0.28932 0.13234 0.0
C3499 C 0.92668 0.27687 0.11568 0.0
C3500 C 0.92304 0.26341 0.1302 0.0
H3501 H 0.77184 0.67914 0.24309 0.0
H3502 H 0.74792 0.70316 0.23556 0.0
H3503 H 0.73885 0.6932 0.18524 0.0
H3504 H 0.78295 0.68316 0.16379 0.0
H3505 H 0.78072 0.66542 0.16172 0.0
H3506 H 0.78515 0.6742 0.19731 0.0
H3507 H 0.76207 0.65283 0.22272 0.0
H3508 H 0.75756 0.64398 0.18718 0.0
H3509 H 0.74406 0.64714 0.20661 0.0
H3510 H 0.73247 0.68069 0.13447 0.0
H3511 H 0.72952 0.66702 0.08845 0.0
H3512 H 0.75734 0.6507 0.1275 0.0
C3513 C 0.76451 0.68214 0.23105 0.0
C3514 C 0.76041 0.69185 0.24389 0.0
C3515 C 0.75114 0.69572 0.22665 0.0
C3516 C 0.74592 0.69008 0.19791 0.0
C3517 C 0.75003 0.68049 0.18605 0.0
C3518 C 0.75915 0.67655 0.20209 0.0
C3519 C 0.76207 0.66621 0.18381 0.0
C3520 C 0.77871 0.67263 0.17621 0.0
C3521 C 0.75609 0.65168 0.20112 0.0
C3522 C 0.75321 0.66494 0.15507 0.0
C3523 C 0.74635 0.67329 0.15691 0.0
C3524 C 0.73775 0.67407 0.13306 0.0
C3525 C 0.7361 0.66623 0.10687 0.0
C3526 C 0.74289 0.65748 0.10419 0.0
C3527 C 0.75165 0.65695 0.12886 0.0
H3528 H 0.91518 0.69021 0.23123 0.0
H3529 H 0.92968 0.66168 0.27304 0.0
H3530 H 0.92753 0.65057 0.22406 0.0
H3531 H 0.88821 0.66418 0.18186 0.0
H3532 H 0.89202 0.67688 0.15051 0.0
H3533 H 0.89467 0.68274 0.18891 0.0
H3534 H 0.9219 0.7014 0.17526 0.0
H3535 H 0.91935 0.69554 0.13685 0.0
H3536 H 0.93409 0.69558 0.15908 0.0
H3537 H 0.92491 0.64317 0.17117 0.0
H3538 H 0.92018 0.63844 0.11715 0.0
H3539 H 0.90616 0.67081 0.10836 0.0
C3540 C 0.91787 0.68161 0.22999 0.0
C3541 C 0.92249 0.67673 0.25602 0.0
C3542 C 0.92587 0.66542 0.25356 0.0
C3543 C 0.9248 0.65912 0.22579 0.0
C3544 C 0.92026 0.66417 0.20062 0.0
C3545 C 0.91671 0.67505 0.20236 0.0
C3546 C 0.91189 0.6782 0.1717 0.0
C3547 C 0.89574 0.67532 0.17336 0.0
C3548 C 0.92244 0.6936 0.16004 0.0
C3549 C 0.91335 0.66741 0.15254 0.0
C3550 C 0.9183 0.65954 0.16981 0.0
C3551 C 0.92081 0.6491 0.15747 0.0
C3552 C 0.91796 0.64642 0.12673 0.0
C3553 C 0.91243 0.65399 0.10851 0.0
C3554 C 0.9103 0.66479 0.12162 0.0
H3555 H 0.32017 0.23477 0.21451 0.0
H3556 H 0.31056 0.26989 0.21971 0.0
H3557 H 0.31742 0.27625 0.16516 0.0
H3558 H 0.3522 0.25309 0.16348 0.0
H3559 H 0.34797 0.23723 0.14338 0.0
H3560 H 0.34233 0.23573 0.18262 0.0
H3561 H 0.31518 0.21858 0.16808 0.0
H3562 H 0.32071 0.22033 0.12867 0.0
H3563 H 0.30635 0.22442 0.13979 0.0
H3564 H 0.32573 0.27893 0.11023 0.0
H3565 H 0.33659 0.2788 0.06008 0.0
H3566 H 0.34044 0.24174 0.0903 0.0
C3567 C 0.3198 0.24396 0.2042 0.0
C3568 C 0.31517 0.25209 0.22128 0.0
C3569 C 0.31436 0.26376 0.20698 0.0
C3570 C 0.31812 0.26734 0.17603 0.0
C3571 C 0.32255 0.25907 0.15968 0.0
C3572 C 0.32354 0.24769 0.17334 0.0
C3573 C 0.32888 0.24068 0.15082 0.0
C3574 C 0.34373 0.24175 0.16066 0.0
C3575 C 0.31707 0.22508 0.1466 0.0
C3576 C 0.3308 0.24991 0.12237 0.0
C3577 C 0.32701 0.2604 0.12793 0.0
C3578 C 0.32855 0.27065 0.10554 0.0
C3579 C 0.33457 0.27043 0.07708 0.0
C3580 C 0.33886 0.26001 0.07125 0.0
C3581 C 0.33671 0.24948 0.09398 0.0
H3582 H 0.77115 0.09224 0.25605 0.0
H3583 H 0.73465 0.04925 0.26985 0.0
H3584 H 0.72717 0.04978 0.21645 0.0
H3585 H 0.75171 0.10572 0.20784 0.0
H3586 H 0.7678 0.11675 0.18412 0.0
H3587 H 0.77003 0.11279 0.22326 0.0
H3588 H 0.78724 0.10279 0.20622 0.0
H3589 H 0.78488 0.10652 0.16699 0.0
H3590 H 0.78056 0.08868 0.17967 0.0
H3591 H 0.72359 0.05527 0.16158 0.0
H3592 H 0.72371 0.06562 0.11009 0.0
H3593 H 0.76272 0.10489 0.13204 0.0
C3594 C 0.76146 0.08305 0.24784 0.0
C3595 C 0.75323 0.0708 0.26701 0.0
C3596 C 0.74088 0.05879 0.25547 0.0
C3597 C 0.73663 0.05899 0.22522 0.0
C3598 C 0.74496 0.07126 0.20681 0.0
C3599 C 0.75708 0.08309 0.21773 0.0
C3600 C 0.7641 0.09497 0.19338 0.0
C3601 C 0.76336 0.10835 0.20271 0.0
C3602 C 0.78015 0.09844 0.18614 0.0
C3603 C 0.75403 0.08801 0.16705 0.0
C3604 C 0.74307 0.07431 0.1752 0.0
C3605 C 0.73219 0.06594 0.15491 0.0
C3606 C 0.73236 0.07183 0.12575 0.0
C3607 C 0.74336 0.08587 0.11724 0.0
C3608 C 0.7544 0.094 0.138 0.0
H3609 H 0.67741 0.9117 0.76026 0.0
H3610 H 0.68689 0.95569 0.74749 0.0
H3611 H 0.67795 0.95507 0.8001 0.0
H3612 H 0.64379 0.8993 0.80767 0.0
H3613 H 0.64798 0.88764 0.83139 0.0
H3614 H 0.65432 0.89146 0.79232 0.0
H3615 H 0.68129 0.90013 0.80977 0.0
H3616 H 0.67507 0.89656 0.84891 0.0
H3617 H 0.68931 0.91415 0.83645 0.0
H3618 H 0.66856 0.94975 0.8546 0.0
H3619 H 0.65855 0.93981 0.90642 0.0
H3620 H 0.65569 0.89947 0.8841 0.0
C3621 C 0.67723 0.92105 0.76843 0.0
C3622 C 0.68245 0.93365 0.74983 0.0
C3623 C 0.68261 0.94588 0.76139 0.0
C3624 C 0.67764 0.94563 0.79121 0.0
C3625 C 0.67269 0.93308 0.8092 0.0
C3626 C 0.67236 0.92098 0.7982 0.0
C3627 C 0.66687 0.909 0.82245 0.0
C3628 C 0.65238 0.89609 0.81288 0.0
C3629 C 0.67885 0.90471 0.82982 0.0
C3630 C 0.6642 0.91624 0.84883 0.0
C3631 C 0.66762 0.93014 0.84072 0.0
C3632 C 0.66589 0.9389 0.8612 0.0
C3633 C 0.6603 0.93324 0.89054 0.0
C3634 C 0.65662 0.91903 0.89909 0.0
C3635 C 0.65869 0.91046 0.87807 0.0
H3636 H 0.07429 0.77271 0.82356 0.0
H3637 H 0.08405 0.74585 0.76633 0.0
H3638 H 0.09362 0.73858 0.81106 0.0
H3639 H 0.09782 0.78043 0.88211 0.0
H3640 H 0.08469 0.7757 0.9132 0.0
H3641 H 0.08082 0.78117 0.87665 0.0
H3642 H 0.05596 0.75762 0.87445 0.0
H3643 H 0.05944 0.75229 0.91156 0.0
H3644 H 0.05582 0.74076 0.88023 0.0
H3645 H 0.10847 0.74119 0.86078 0.0
H3646 H 0.11435 0.73972 0.91436 0.0
H3647 H 0.08033 0.75032 0.94121 0.0
C3648 C 0.07715 0.7644 0.82005 0.0
C3649 C 0.07834 0.76001 0.79058 0.0
C3650 C 0.08352 0.74992 0.78816 0.0
C3651 C 0.08894 0.74566 0.81346 0.0
C3652 C 0.08768 0.75036 0.84175 0.0
C3653 C 0.08065 0.75839 0.84551 0.0
C3654 C 0.07802 0.75947 0.87906 0.0
C3655 C 0.0858 0.77513 0.88827 0.0
C3656 C 0.06132 0.75209 0.88679 0.0
C3657 C 0.08533 0.75133 0.89336 0.0
C3658 C 0.09175 0.74714 0.87126 0.0
C3659 C 0.10229 0.74296 0.87842 0.0
C3660 C 0.10536 0.74192 0.90908 0.0
C3661 C 0.09664 0.74322 0.93252 0.0
C3662 C 0.08673 0.74846 0.92425 0.0
H3663 H 0.25686 0.34019 0.7744 0.0
H3664 H 0.2092 0.31255 0.77694 0.0
H3665 H 0.20797 0.31926 0.8295 0.0
H3666 H 0.263 0.33145 0.84788 0.0
H3667 H 0.2774 0.34906 0.85646 0.0
H3668 H 0.27442 0.34373 0.81773 0.0
H3669 H 0.27094 0.36557 0.80246 0.0
H3670 H 0.27409 0.37108 0.84114 0.0
H3671 H 0.25737 0.3684 0.82257 0.0
H3672 H 0.21222 0.32688 0.88343 0.0
H3673 H 0.22155 0.33594 0.93412 0.0
H3674 H 0.26649 0.35839 0.89692 0.0
C3675 C 0.24613 0.33596 0.78573 0.0
C3676 C 0.23309 0.32599 0.77158 0.0
C3677 C 0.21929 0.32028 0.7874 0.0
C3678 C 0.21849 0.32402 0.81723 0.0
C3679 C 0.23159 0.3335 0.83097 0.0
C3680 C 0.24515 0.33951 0.81567 0.0
C3681 C 0.25768 0.34861 0.83641 0.0
C3682 C 0.26877 0.34286 0.83981 0.0
C3683 C 0.26548 0.36435 0.82496 0.0
C3684 C 0.24908 0.34654 0.86582 0.0
C3685 C 0.23405 0.33784 0.86217 0.0
C3686 C 0.22396 0.33385 0.88648 0.0
C3687 C 0.22936 0.33894 0.91524 0.0
C3688 C 0.24473 0.34793 0.9195 0.0
C3689 C 0.25465 0.35176 0.89432 0.0
H3690 H 0.01695 0.40045 0.43682 0.0
H3691 H 0.0302 0.44556 0.42977 0.0
H3692 H 0.01934 0.4438 0.48094 0.0
H3693 H 0.98195 0.38899 0.47712 0.0
H3694 H 0.98336 0.3757 0.50123 0.0
H3695 H 0.99219 0.38039 0.46412 0.0
H3696 H 0.0174 0.38646 0.48811 0.0
H3697 H 0.00864 0.38172 0.52527 0.0
H3698 H 0.02439 0.39914 0.51772 0.0
H3699 H 0.00663 0.43712 0.53323 0.0
H3700 H 0.9942 0.42636 0.58288 0.0
H3701 H 0.98921 0.38547 0.55817 0.0
C3702 C 0.01765 0.40996 0.44623 0.0
C3703 C 0.02469 0.42325 0.42924 0.0
C3704 C 0.02513 0.43536 0.44233 0.0
C3705 C 0.0189 0.43442 0.47142 0.0
C3706 C 0.01211 0.42125 0.48762 0.0
C3707 C 0.01151 0.40922 0.47557 0.0
C3708 C 1.00364 0.39639 0.49804 0.0
C3709 C 0.98944 0.38467 0.4843 0.0
C3710 C 0.01414 0.39058 0.50787 0.0
C3711 C 0.99994 0.40306 0.52454 0.0
C3712 C 1.00488 0.41742 0.51786 0.0
C3713 C 1.00276 0.4259 0.53857 0.0
C3714 C 0.99563 0.41969 0.56678 0.0
C3715 C 0.99064 0.40507 0.57458 0.0
C3716 C 0.9928 0.39665 0.55292 0.0
H3717 H 0.62052 0.60638 0.57967 0.0
H3718 H 0.5891 0.5612 0.58898 0.0
H3719 H 0.57943 0.56231 0.53803 0.0
H3720 H 0.59615 0.617 0.53925 0.0
H3721 H 0.61059 0.63019 0.51451 0.0
H3722 H 0.61508 0.62596 0.55171 0.0
H3723 H 0.63432 0.62006 0.52767 0.0
H3724 H 0.62989 0.62427 0.49039 0.0
H3725 H 0.62857 0.60705 0.49873 0.0
H3726 H 0.57262 0.5684 0.48574 0.0
H3727 H 0.56975 0.57869 0.43661 0.0
H3728 H 0.60592 0.62 0.45856 0.0
C3729 C 0.61163 0.59673 0.57088 0.0
C3730 C 0.60567 0.58361 0.58851 0.0
C3731 C 0.59396 0.5713 0.57605 0.0
C3732 C 0.58837 0.57186 0.54703 0.0
C3733 C 0.59451 0.58486 0.53016 0.0
C3734 C 0.60592 0.5971 0.54158 0.0
C3735 C 0.61053 0.60968 0.51849 0.0
C3736 C 0.60794 0.6214 0.53179 0.0
C3737 C 0.62679 0.61562 0.50822 0.0
C3738 C 0.59998 0.60262 0.49237 0.0
C3739 C 0.59079 0.5883 0.49975 0.0
C3740 C 0.57992 0.57957 0.47973 0.0
C3741 C 0.57841 0.58551 0.45161 0.0
C3742 C 0.58782 0.6001 0.44291 0.0
C3743 C 0.59869 0.60876 0.46401 0.0
H3744 H 0.40438 0.01392 0.57308 0.0
H3745 H 0.45208 0.03103 0.57169 0.0
H3746 H 0.45072 0.0209 0.52151 0.0
H3747 H 0.39576 0.98066 0.53759 0.0
H3748 H 0.38059 0.97997 0.51585 0.0
H3749 H 0.38522 0.9888 0.55139 0.0
H3750 H 0.38807 0.01192 0.52435 0.0
H3751 H 0.38343 1.00315 0.48874 0.0
H3752 H 0.40055 0.01961 0.49199 0.0
H3753 H 0.44426 0.00865 0.47094 0.0
H3754 H 0.43327 0.99537 0.42466 0.0
H3755 H 0.38949 0.98551 0.45722 0.0
C3756 C 0.41454 0.01562 0.56204 0.0
C3757 C 0.42844 0.02364 0.57634 0.0
C3758 C 0.44138 0.0253 0.56118 0.0
C3759 C 0.44068 0.01948 0.53261 0.0
C3760 C 0.42691 0.01178 0.51905 0.0
C3761 C 0.41403 0.00979 0.53327 0.0
C3762 C 0.40063 1.00086 0.51372 0.0
C3763 C 0.38992 0.98673 0.53065 0.0
C3764 C 0.3927 0.0094 0.50413 0.0
C3765 C 0.40798 0.9982 0.4863 0.0
C3766 C 0.42316 0.00461 0.48997 0.0
C3767 C 0.43239 1.00367 0.46792 0.0
C3768 C 0.42604 0.9961 0.44154 0.0
C3769 C 0.41054 0.98949 0.43683 0.0
C3770 C 0.4014 0.99051 0.45986 0.0
H3771 H 0.56129 0.98521 0.4596 0.0
H3772 H 0.60247 0.01559 0.41344 0.0
H3773 H 0.61124 0.02849 0.46065 0.0
H3774 H 0.55824 0.01088 0.5082 0.0
H3775 H 0.55103 0.99836 0.54036 0.0
H3776 H 0.54745 0.992 0.50235 0.0
H3777 H 0.55874 0.97542 0.51516 0.0
H3778 H 0.56245 0.98179 0.55312 0.0
H3779 H 0.57733 0.98299 0.52943 0.0
H3780 H 0.61654 0.03688 0.51327 0.0
H3781 H 0.61759 0.04129 0.56764 0.0
H3782 H 0.57269 0.00609 0.58059 0.0
C3783 C 0.5721 0.99465 0.45935 0.0
C3784 C 0.58114 0.99943 0.43261 0.0
C3785 C 0.5952 0.01185 0.43334 0.0
C3786 C 0.60034 0.01921 0.46015 0.0
C3787 C 0.59128 0.01408 0.48612 0.0
C3788 C 0.57741 1.00217 0.48597 0.0
C3789 C 0.5701 0.99876 0.51736 0.0
C3790 C 0.55586 1.00008 0.51704 0.0
C3791 C 0.56698 0.98385 0.52947 0.0
C3792 C 0.58216 0.01047 0.53523 0.0
C3793 C 0.59425 0.01916 0.51666 0.0
C3794 C 0.60702 0.03034 0.52794 0.0
C3795 C 0.60744 0.03282 0.55897 0.0
C3796 C 0.5951 0.02428 0.57862 0.0
C3797 C 0.58231 0.01288 0.56639 0.0
H3798 H 0.99752 0.60145 0.55939 0.0
H3799 H 1.0033 0.56468 0.5824 0.0
H3800 H 0.01388 0.56631 0.53109 0.0
H3801 H 0.98576 0.59193 0.48438 0.0
H3802 H 0.99505 0.6099 0.46797 0.0
H3803 H 0.98926 0.6068 0.50736 0.0
H3804 H 0.01615 0.62396 0.5232 0.0
H3805 H 0.02201 0.62726 0.48382 0.0
H3806 H 0.03109 0.621 0.51058 0.0
H3807 H 0.02229 0.57091 0.47663 0.0
H3808 H 0.02891 0.57881 0.4226 0.0
H3809 H 0.01747 0.61244 0.43395 0.0
C3810 C 1.00141 0.59402 0.55373 0.0
C3811 C 1.00006 0.5832 0.57499 0.0
C3812 C 1.00471 0.57329 0.56665 0.0
C3813 C 0.0106 0.57408 0.53752 0.0
C3814 C 0.01166 0.58477 0.51691 0.0
C3815 C 0.00728 0.59462 0.52462 0.0
C3816 C 0.00895 0.6046 0.49766 0.0
C3817 C 0.99385 0.60322 0.48883 0.0
C3818 C 0.02022 0.62013 0.50421 0.0
C3819 C 0.01486 0.59876 0.47357 0.0
C3820 C 0.01634 0.58731 0.48523 0.0
C3821 C 0.02128 0.57992 0.46731 0.0
C3822 C 0.02496 0.58441 0.43674 0.0
C3823 C 0.02368 0.59618 0.42445 0.0
C3824 C 0.01853 0.60342 0.44302 0.0
H3825 H 0.42276 0.4416 0.47 0.0
H3826 H 0.38288 0.40209 0.45334 0.0
H3827 H 0.38411 0.39261 0.50498 0.0
H3828 H 0.44163 0.42596 0.51372 0.0
H3829 H 0.44958 0.44039 0.53946 0.0
H3830 H 0.44559 0.44372 0.50112 0.0
H3831 H 0.4295 0.45428 0.5218 0.0
H3832 H 0.43328 0.4508 0.56022 0.0
H3833 H 0.41437 0.44364 0.54808 0.0
H3834 H 0.38987 0.38753 0.55838 0.0
H3835 H 0.40003 0.38703 0.60924 0.0
H3836 H 0.4358 0.43009 0.59151 0.0
C3837 C 0.41443 0.4309 0.47727 0.0
C3838 C 0.40283 0.42242 0.4579 0.0
C3839 C 0.39192 0.40859 0.46799 0.0
C3840 C 0.39251 0.40319 0.49722 0.0
C3841 C 0.40404 0.41184 0.51602 0.0
C3842 C 0.41482 0.42539 0.50641 0.0
C3843 C 0.42596 0.43256 0.53108 0.0
C3844 C 0.44162 0.43585 0.52072 0.0
C3845 C 0.42576 0.44612 0.54087 0.0
C3846 C 0.41981 0.42092 0.55605 0.0
C3847 C 0.40714 0.40905 0.54693 0.0
C3848 C 0.3997 0.3968 0.56584 0.0
C3849 C 0.40547 0.39662 0.59464 0.0
C3850 C 0.41843 0.40862 0.60424 0.0
C3851 C 0.42565 0.42093 0.58479 0.0
loop_
_geom_bond_atom_site_label_1
_geom_bond_atom_site_label_2
_geom_bond_distance
_geom_bond_site_symmetry_2
_ccdc_geom_bond_type
C0 C1 1.443 . S
C0 N4 1.376 . S
C0 C38 1.389 . S
C1 C0 1.443 . S
C1 C2 1.340 . S
C1 H41 0.951 . S
C2 C1 1.340 . S
C2 C3 1.439 . S
C2 H42 0.950 . S
C3 C2 1.439 . S
C3 N4 1.374 . S
C3 C37 1.395 . S
N4 C0 1.376 . S
N4 C3 1.374 . S
N4 Co5 2.008 . S
Co5 N4 2.008 . S
Co5 N6 1.995 1_554 S
Co5 N11 2.008 1_554 S
Co5 N16 1.995 . S
Co5 N21 2.282 . S
Co5 N27 2.282 1_554 S
N6 Co5 1.995 1_556 S
N6 C7 1.376 1_556 S
N6 C10 1.383 . S
C7 N6 1.376 1_554 S
C7 C8 1.446 1_554 S
C7 C37 1.391 . S
C8 C7 1.446 1_556 S
C8 C9 1.339 . S
C8 H43 0.949 . S
C9 C8 1.339 . S
C9 C10 1.439 . S
C9 H44 0.950 . S
C10 N6 1.383 . S
C10 C9 1.439 . S
C10 C39 1.392 . S
N11 Co5 2.008 1_556 S
N11 C12 1.376 . S
N11 C15 1.374 . S
C12 N11 1.376 . S
C12 C13 1.443 . S
C12 C39 1.389 . S
C13 C12 1.443 . S
C13 C14 1.340 . S
C13 H45 0.951 . S
C14 C13 1.340 . S
C14 C15 1.439 . S
C14 H46 0.950 . S
C15 N11 1.374 . S
C15 C14 1.439 . S
C15 C40 1.395 . S
N16 Co5 1.995 . S
N16 C17 1.376 1_554 S
N16 C20 1.383 . S
C17 N16 1.376 1_556 S
C17 C18 1.446 1_556 S
C17 C40 1.391 . S
C18 C17 1.446 1_554 S
C18 C19 1.339 . S
C18 H47 0.949 . S
C19 C18 1.339 . S
C19 C20 1.439 . S
C19 H48 0.950 . S
C20 N16 1.383 . S
C20 C19 1.439 . S
C20 C38 1.392 . S
N21 Co5 2.282 . S
N21 C24 1.322 1_554 S
N21 C26 1.337 . S
C22 C23 1.386 . S
C22 C25 1.390 . S
C23 C22 1.386 . S
C23 C24 1.382 . S
C23 H49 0.950 . S
C24 N21 1.322 1_556 S
C24 C23 1.382 . S
C24 H35 0.952 . S
C25 C22 1.390 . S
C25 C26 1.381 1_556 S
C25 H50 0.949 1_556 S
C26 N21 1.337 . S
C26 C25 1.381 1_554 S
C26 H36 0.948 . S
N27 Co5 2.282 1_556 S
N27 C31 1.324 1_556 S
N27 C32 1.335 . S
C28 C29 1.393 . S
C28 C32 1.380 1_554 S
C28 H51 0.948 1_554 S
C29 C28 1.393 . S
C29 C30 1.386 . S
C30 C29 1.386 . S
C30 C31 1.382 . S
C30 H52 0.950 . S
C31 N27 1.324 1_554 S
C31 C30 1.382 . S
C31 H33 0.952 . S
C32 N27 1.335 . S
C32 C28 1.380 1_556 S
C32 H34 0.948 . S
H33 C31 0.952 . S
H34 C32 0.948 . S
H35 C24 0.952 . S
H36 C26 0.948 . S
C37 C3 1.395 . S
C37 C7 1.391 . S
C38 C0 1.389 . S
C38 C20 1.392 . S
C39 C10 1.392 . S
C39 C12 1.389 . S
C40 C15 1.395 . S
C40 C17 1.391 . S
H41 C1 0.951 . S
H42 C2 0.950 . S
H43 C8 0.949 . S
H44 C9 0.950 . S
H45 C13 0.951 . S
H46 C14 0.950 . S
H47 C18 0.949 . S
H48 C19 0.950 . S
H49 C23 0.950 . S
H50 C25 0.949 1_554 S
H51 C28 0.948 1_556 S
H52 C30 0.950 . S
C53 C54 1.443 . S
C53 N57 1.376 . S
C53 C91 1.389 . S
C54 C53 1.443 . S
C54 C55 1.340 . S
C54 H94 0.951 . S
C55 C54 1.340 . S
C55 C56 1.439 . S
C55 H95 0.950 . S
C56 C55 1.439 . S
C56 N57 1.374 . S
C56 C90 1.395 . S
N57 C53 1.376 . S
N57 C56 1.374 . S
N57 Co58 2.008 . S
Co58 N57 2.008 . S
Co58 N59 1.995 1_554 S
Co58 N64 2.008 1_554 S
Co58 N69 1.995 . S
Co58 N74 2.281 . S
Co58 N80 2.281 1_554 S
N59 Co58 1.995 1_556 S
N59 C60 1.367 1_556 S
N59 C63 1.383 . S
C60 N59 1.367 1_554 S
C60 C61 1.436 1_554 S
C60 C90 1.408 . S
C61 C60 1.436 1_556 S
C61 C62 1.339 . S
C61 H96 0.949 . S
C62 C61 1.339 . S
C62 C63 1.439 . S
C62 H97 0.950 . S
C63 N59 1.383 . S
C63 C62 1.439 . S
C63 C92 1.392 . S
N64 Co58 2.008 1_556 S
N64 C65 1.376 . S
N64 C68 1.374 . S
C65 N64 1.376 . S
C65 C66 1.443 . S
C65 C92 1.389 . S
C66 C65 1.443 . S
C66 C67 1.340 . S
C66 H98 0.951 . S
C67 C66 1.340 . S
C67 C68 1.439 . S
C67 H99 0.950 . S
C68 N64 1.374 . S
C68 C67 1.439 . S
C68 C93 1.395 . S
N69 Co58 1.995 . S
N69 C70 1.371 1_554 S
N69 C73 1.383 . S
C70 N69 1.371 1_556 S
C70 C71 1.441 1_556 S
C70 C93 1.399 . S
C71 C70 1.441 1_554 S
C71 C72 1.339 . S
C71 H100 0.949 . S
C72 C71 1.339 . S
C72 C73 1.439 . S
C72 H101 0.950 . S
C73 N69 1.383 . S
C73 C72 1.439 . S
C73 C91 1.392 . S
N74 Co58 2.281 . S
N74 C77 1.323 1_554 S
N74 C79 1.336 . S
C75 C76 1.386 . S
C75 C78 1.388 . S
C76 C75 1.386 . S
C76 C77 1.382 . S
C76 H102 0.950 . S
C77 N74 1.323 1_556 S
C77 C76 1.382 . S
C77 H88 0.952 . S
C78 C75 1.388 . S
C78 C79 1.382 1_556 S
C78 H103 0.950 . S
C79 N74 1.336 . S
C79 C78 1.382 1_554 S
C79 H89 0.948 . S
N80 Co58 2.281 1_556 S
N80 C84 1.325 1_556 S
N80 C85 1.335 . S
C81 C82 1.388 . S
C81 C85 1.382 1_554 S
C81 H104 0.950 . S
C82 C81 1.388 . S
C82 C83 1.386 . S
C83 C82 1.386 . S
C83 C84 1.382 . S
C83 H105 0.950 . S
C84 N80 1.325 1_554 S
C84 C83 1.382 . S
C84 H86 0.952 . S
C85 N80 1.335 . S
C85 C81 1.382 1_556 S
C85 H87 0.948 . S
H86 C84 0.952 . S
H87 C85 0.948 . S
H88 C77 0.952 . S
H89 C79 0.948 . S
C90 C56 1.395 . S
C90 C60 1.408 . S
C91 C53 1.389 . S
C91 C73 1.392 . S
C92 C63 1.392 . S
C92 C65 1.389 . S
C93 C68 1.395 . S
C93 C70 1.399 . S
H94 C54 0.951 . S
H95 C55 0.950 . S
H96 C61 0.949 . S
H97 C62 0.950 . S
H98 C66 0.951 . S
H99 C67 0.950 . S
H100 C71 0.949 . S
H101 C72 0.950 . S
H102 C76 0.950 . S
H103 C78 0.950 . S
H104 C81 0.950 . S
H105 C83 0.950 . S
C106 C107 1.443 . S
C106 N110 1.376 . S
C106 C144 1.389 . S
C107 C106 1.443 . S
C107 C108 1.340 . S
C107 H147 0.951 . S
C108 C107 1.340 . S
C108 C109 1.439 . S
C108 H148 0.950 . S
C109 C108 1.439 . S
C109 N110 1.374 . S
C109 C143 1.395 . S
N110 C106 1.376 . S
N110 C109 1.374 . S
N110 Co111 2.008 . S
Co111 N110 2.008 . S
Co111 N112 1.995 1_554 S
Co111 N117 2.008 1_554 S
Co111 N122 1.995 . S
Co111 N127 2.282 . S
Co111 N133 2.282 1_554 S
N112 Co111 1.995 1_556 S
N112 C113 1.376 1_556 S
N112 C116 1.383 . S
C113 N112 1.376 1_554 S
C113 C114 1.446 1_554 S
C113 C143 1.391 . S
C114 C113 1.446 1_556 S
C114 C115 1.339 . S
C114 H149 0.949 . S
C115 C114 1.339 . S
C115 C116 1.439 . S
C115 H150 0.950 . S
C116 N112 1.383 . S
C116 C115 1.439 . S
C116 C145 1.392 . S
N117 Co111 2.008 1_556 S
N117 C118 1.376 . S
N117 C121 1.374 . S
C118 N117 1.376 . S
C118 C119 1.443 . S
C118 C145 1.389 . S
C119 C118 1.443 . S
C119 C120 1.340 . S
C119 H151 0.951 . S
C120 C119 1.340 . S
C120 C121 1.439 . S
C120 H152 0.950 . S
C121 N117 1.374 . S
C121 C120 1.439 . S
C121 C146 1.395 . S
N122 Co111 1.995 . S
N122 C123 1.376 1_554 S
N122 C126 1.383 . S
C123 N122 1.376 1_556 S
C123 C124 1.446 1_556 S
C123 C146 1.391 . S
C124 C123 1.446 1_554 S
C124 C125 1.339 . S
C124 H153 0.949 . S
C125 C124 1.339 . S
C125 C126 1.439 . S
C125 H154 0.950 . S
C126 N122 1.383 . S
C126 C125 1.439 . S
C126 C144 1.392 . S
N127 Co111 2.282 . S
N127 C130 1.332 1_554 S
N127 C132 1.332 . S
C128 C129 1.386 . S
C128 C131 1.395 . S
C129 C128 1.386 . S
C129 C130 1.382 . S
C129 H155 0.950 . S
C130 N127 1.332 1_556 S
C130 C129 1.382 . S
C130 H141 0.952 . S
C131 C128 1.395 . S
C131 C132 1.378 1_556 S
C131 H156 0.948 1_556 S
C132 N127 1.332 . S
C132 C131 1.378 1_554 S
C132 H142 0.948 . S
N133 Co111 2.282 1_556 S
N133 C137 1.332 1_556 S
N133 C138 1.332 . S
C134 C135 1.397 . S
C134 C138 1.377 1_554 S
C134 H157 0.948 1_554 S
C135 C134 1.397 . S
C135 C136 1.386 . S
C136 C135 1.386 . S
C136 C137 1.382 . S
C136 H158 0.950 . S
C137 N133 1.332 1_554 S
C137 C136 1.382 . S
C137 H139 0.952 . S
C138 N133 1.332 . S
C138 C134 1.377 1_556 S
C138 H140 0.948 . S
H139 C137 0.952 . S
H140 C138 0.948 . S
H141 C130 0.952 . S
H142 C132 0.948 . S
C143 C109 1.395 . S
C143 C113 1.391 . S
C144 C106 1.389 . S
C144 C126 1.392 . S
C145 C116 1.392 . S
C145 C118 1.389 . S
C146 C121 1.395 . S
C146 C123 1.391 . S
H147 C107 0.951 . S
H148 C108 0.950 . S
H149 C114 0.949 . S
H150 C115 0.950 . S
H151 C119 0.951 . S
H152 C120 0.950 . S
H153 C124 0.949 . S
H154 C125 0.950 . S
H155 C129 0.950 . S
H156 C131 0.948 1_554 S
H157 C134 0.948 1_556 S
H158 C136 0.950 . S
C159 C160 1.443 . S
C159 N163 1.376 . S
C159 C197 1.389 . S
C160 C159 1.443 . S
C160 C161 1.340 . S
C160 H200 0.951 . S
C161 C160 1.340 . S
C161 C162 1.439 . S
C161 H201 0.950 . S
C162 C161 1.439 . S
C162 N163 1.374 . S
C162 C196 1.395 . S
N163 C159 1.376 . S
N163 C162 1.374 . S
N163 Co164 2.008 . S
Co164 N163 2.008 . S
Co164 N165 1.995 1_556 S
Co164 N170 2.008 1_556 S
Co164 N175 1.995 . S
Co164 N180 2.282 . S
Co164 N186 2.282 1_556 S
N165 Co164 1.995 1_554 S
N165 C166 1.376 1_554 S
N165 C169 1.383 . S
C166 N165 1.376 1_556 S
C166 C167 1.446 1_556 S
C166 C196 1.391 . S
C167 C166 1.446 1_554 S
C167 C168 1.339 . S
C167 H202 0.949 . S
C168 C167 1.339 . S
C168 C169 1.439 . S
C168 H203 0.950 . S
C169 N165 1.383 . S
C169 C168 1.439 . S
C169 C198 1.392 . S
N170 Co164 2.008 1_554 S
N170 C171 1.376 . S
N170 C174 1.374 . S
C171 N170 1.376 . S
C171 C172 1.443 . S
C171 C198 1.389 . S
C172 C171 1.443 . S
C172 C173 1.340 . S
C172 H204 0.951 . S
C173 C172 1.340 . S
C173 C174 1.439 . S
C173 H205 0.950 . S
C174 N170 1.374 . S
C174 C173 1.439 . S
C174 C199 1.395 . S
N175 Co164 1.995 . S
N175 C176 1.376 1_556 S
N175 C179 1.383 . S
C176 N175 1.376 1_554 S
C176 C177 1.446 1_554 S
C176 C199 1.391 . S
C177 C176 1.446 1_556 S
C177 C178 1.339 . S
C177 H206 0.949 . S
C178 C177 1.339 . S
C178 C179 1.439 . S
C178 H207 0.950 . S
C179 N175 1.383 . S
C179 C178 1.439 . S
C179 C197 1.392 . S
N180 Co164 2.282 . S
N180 C183 1.332 1_556 S
N180 C185 1.332 . S
C181 C182 1.386 . S
C181 C184 1.394 . S
C182 C181 1.386 . S
C182 C183 1.382 . S
C182 H208 0.950 . S
C183 N180 1.332 1_554 S
C183 C182 1.382 . S
C183 H194 0.952 . S
C184 C181 1.394 . S
C184 C185 1.378 1_554 S
C184 H209 0.948 1_554 S
C185 N180 1.332 . S
C185 C184 1.378 1_556 S
C185 H195 0.948 . S
N186 Co164 2.282 1_554 S
N186 C190 1.332 1_554 S
N186 C191 1.332 . S
C187 C188 1.397 . S
C187 C191 1.377 1_556 S
C187 H210 0.948 1_556 S
C188 C187 1.397 . S
C188 C189 1.386 . S
C189 C188 1.386 . S
C189 C190 1.382 . S
C189 H211 0.950 . S
C190 N186 1.332 1_556 S
C190 C189 1.382 . S
C190 H192 0.952 . S
C191 N186 1.332 . S
C191 C187 1.377 1_554 S
C191 H193 0.948 . S
H192 C190 0.952 . S
H193 C191 0.948 . S
H194 C183 0.952 . S
H195 C185 0.948 . S
C196 C162 1.395 . S
C196 C166 1.391 . S
C197 C159 1.389 . S
C197 C179 1.392 . S
C198 C169 1.392 . S
C198 C171 1.389 . S
C199 C174 1.395 . S
C199 C176 1.391 . S
H200 C160 0.951 . S
H201 C161 0.950 . S
H202 C167 0.949 . S
H203 C168 0.950 . S
H204 C172 0.951 . S
H205 C173 0.950 . S
H206 C177 0.949 . S
H207 C178 0.950 . S
H208 C182 0.950 . S
H209 C184 0.948 1_556 S
H210 C187 0.948 1_554 S
H211 C189 0.950 . S
C212 C213 1.443 . S
C212 N216 1.376 . S
C212 C250 1.389 . S
C213 C212 1.443 . S
C213 C214 1.340 . S
C213 H253 0.951 . S
C214 C213 1.340 . S
C214 C215 1.439 . S
C214 H254 0.950 . S
C215 C214 1.439 . S
C215 N216 1.374 . S
C215 C249 1.395 . S
N216 C212 1.376 . S
N216 C215 1.374 . S
N216 Co217 2.008 . S
Co217 N216 2.008 . S
Co217 N218 1.995 1_556 S
Co217 N223 2.008 1_556 S
Co217 N228 1.995 . S
Co217 N233 2.281 . S
Co217 N239 2.281 1_556 S
N218 Co217 1.995 1_554 S
N218 C219 1.368 1_554 S
N218 C222 1.383 . S
C219 N218 1.368 1_556 S
C219 C220 1.437 1_556 S
C219 C249 1.406 . S
C220 C219 1.437 1_554 S
C220 C221 1.339 . S
C220 H255 0.949 . S
C221 C220 1.339 . S
C221 C222 1.439 . S
C221 H256 0.950 . S
C222 N218 1.383 . S
C222 C221 1.439 . S
C222 C251 1.392 . S
N223 Co217 2.008 1_554 S
N223 C224 1.376 . S
N223 C227 1.374 . S
C224 N223 1.376 . S
C224 C225 1.443 . S
C224 C251 1.389 . S
C225 C224 1.443 . S
C225 C226 1.340 . S
C225 H257 0.951 . S
C226 C225 1.340 . S
C226 C227 1.439 . S
C226 H258 0.950 . S
C227 N223 1.374 . S
C227 C226 1.439 . S
C227 C252 1.395 . S
N228 Co217 1.995 . S
N228 C229 1.372 1_556 S
N228 C232 1.383 . S
C229 N228 1.372 1_554 S
C229 C230 1.442 1_554 S
C229 C252 1.398 . S
C230 C229 1.442 1_556 S
C230 C231 1.339 . S
C230 H259 0.949 . S
C231 C230 1.339 . S
C231 C232 1.439 . S
C231 H260 0.950 . S
C232 N228 1.383 . S
C232 C231 1.439 . S
C232 C250 1.392 . S
N233 Co217 2.281 . S
N233 C236 1.323 1_556 S
N233 C238 1.336 . S
C234 C235 1.386 . S
C234 C237 1.388 . S
C235 C234 1.386 . S
C235 C236 1.382 . S
C235 H261 0.950 . S
C236 N233 1.323 1_554 S
C236 C235 1.382 . S
C236 H247 0.952 . S
C237 C234 1.388 . S
C237 C238 1.382 1_554 S
C237 H262 0.950 . S
C238 N233 1.336 . S
C238 C237 1.382 1_556 S
C238 H248 0.948 . S
N239 Co217 2.281 1_554 S
N239 C243 1.325 1_554 S
N239 C244 1.335 . S
C240 C241 1.388 . S
C240 C244 1.382 1_556 S
C240 H263 0.950 . S
C241 C240 1.388 . S
C241 C242 1.386 . S
C242 C241 1.386 . S
C242 C243 1.382 . S
C242 H264 0.950 . S
C243 N239 1.325 1_556 S
C243 C242 1.382 . S
C243 H245 0.952 . S
C244 N239 1.335 . S
C244 C240 1.382 1_554 S
C244 H246 0.948 . S
H245 C243 0.952 . S
H246 C244 0.948 . S
H247 C236 0.952 . S
H248 C238 0.948 . S
C249 C215 1.395 . S
C249 C219 1.406 . S
C250 C212 1.389 . S
C250 C232 1.392 . S
C251 C222 1.392 . S
C251 C224 1.389 . S
C252 C227 1.395 . S
C252 C229 1.398 . S
H253 C213 0.951 . S
H254 C214 0.950 . S
H255 C220 0.949 . S
H256 C221 0.950 . S
H257 C225 0.951 . S
H258 C226 0.950 . S
H259 C230 0.949 . S
H260 C231 0.950 . S
H261 C235 0.950 . S
H262 C237 0.950 . S
H263 C240 0.950 . S
H264 C242 0.950 . S
C265 C266 1.443 . S
C265 N269 1.376 . S
C265 C303 1.389 . S
C266 C265 1.443 . S
C266 C267 1.340 . S
C266 H306 0.951 . S
C267 C266 1.340 . S
C267 C268 1.439 . S
C267 H307 0.950 . S
C268 C267 1.439 . S
C268 N269 1.374 . S
C268 C302 1.395 . S
N269 C265 1.376 . S
N269 C268 1.374 . S
N269 Co270 2.008 . S
Co270 N269 2.008 . S
Co270 N271 1.995 1_556 S
Co270 N276 2.008 1_556 S
Co270 N281 1.995 . S
Co270 N286 2.282 . S
Co270 N292 2.282 1_556 S
N271 Co270 1.995 1_554 S
N271 C272 1.376 1_554 S
N271 C275 1.383 . S
C272 N271 1.376 1_556 S
C272 C273 1.446 1_556 S
C272 C302 1.391 . S
C273 C272 1.446 1_554 S
C273 C274 1.339 . S
C273 H308 0.949 . S
C274 C273 1.339 . S
C274 C275 1.439 . S
C274 H309 0.950 . S
C275 N271 1.383 . S
C275 C274 1.439 . S
C275 C304 1.392 . S
N276 Co270 2.008 1_554 S
N276 C277 1.376 . S
N276 C280 1.374 . S
C277 N276 1.376 . S
C277 C278 1.443 . S
C277 C304 1.389 . S
C278 C277 1.443 . S
C278 C279 1.340 . S
C278 H310 0.951 . S
C279 C278 1.340 . S
C279 C280 1.439 . S
C279 H311 0.950 . S
C280 N276 1.374 . S
C280 C279 1.439 . S
C280 C305 1.395 . S
N281 Co270 1.995 . S
N281 C282 1.376 1_556 S
N281 C285 1.383 . S
C282 N281 1.376 1_554 S
C282 C283 1.446 1_554 S
C282 C305 1.391 . S
C283 C282 1.446 1_556 S
C283 C284 1.339 . S
C283 H312 0.949 . S
C284 C283 1.339 . S
C284 C285 1.439 . S
C284 H313 0.950 . S
C285 N281 1.383 . S
C285 C284 1.439 . S
C285 C303 1.392 . S
N286 Co270 2.282 . S
N286 C289 1.322 1_556 S
N286 C291 1.337 . S
C287 C288 1.386 . S
C287 C290 1.391 . S
C288 C287 1.386 . S
C288 C289 1.382 . S
C288 H314 0.950 . S
C289 N286 1.322 1_554 S
C289 C288 1.382 . S
C289 H300 0.952 . S
C290 C287 1.391 . S
C290 C291 1.381 1_554 S
C290 H315 0.949 1_554 S
C291 N286 1.337 . S
C291 C290 1.381 1_556 S
C291 H301 0.948 . S
N292 Co270 2.282 1_554 S
N292 C296 1.324 1_554 S
N292 C297 1.335 . S
C293 C294 1.393 . S
C293 C297 1.380 1_556 S
C293 H316 0.948 1_556 S
C294 C293 1.393 . S
C294 C295 1.386 . S
C295 C294 1.386 . S
C295 C296 1.382 . S
C295 H317 0.950 . S
C296 N292 1.324 1_556 S
C296 C295 1.382 . S
C296 H298 0.952 . S
C297 N292 1.335 . S
C297 C293 1.380 1_554 S
C297 H299 0.948 . S
H298 C296 0.952 . S
H299 C297 0.948 . S
H300 C289 0.952 . S
H301 C291 0.948 . S
C302 C268 1.395 . S
C302 C272 1.391 . S
C303 C265 1.389 . S
C303 C285 1.392 . S
C304 C275 1.392 . S
C304 C277 1.389 . S
C305 C280 1.395 . S
C305 C282 1.391 . S
H306 C266 0.951 . S
H307 C267 0.950 . S
H308 C273 0.949 . S
H309 C274 0.950 . S
H310 C278 0.951 . S
H311 C279 0.950 . S
H312 C283 0.949 . S
H313 C284 0.950 . S
H314 C288 0.950 . S
H315 C290 0.949 1_556 S
H316 C293 0.948 1_554 S
H317 C295 0.950 . S
C318 C319 1.443 . S
C318 N322 1.376 . S
C318 C356 1.389 1_556 S
C319 C318 1.443 . S
C319 C320 1.340 . S
C319 H359 0.951 . S
C320 C319 1.340 . S
C320 C321 1.439 . S
C320 H360 0.950 . S
C321 C320 1.439 . S
C321 N322 1.374 . S
C321 C355 1.395 . S
N322 C318 1.376 . S
N322 C321 1.374 . S
N322 Co323 2.008 . S
Co323 N322 2.008 . S
Co323 N324 1.995 . S
Co323 N329 2.008 1_556 S
Co323 N334 1.995 1_556 S
Co323 N339 2.282 . S
Co323 N345 2.282 1_556 S
N324 Co323 1.995 . S
N324 C325 1.376 . S
N324 C328 1.383 . S
C325 N324 1.376 . S
C325 C326 1.446 . S
C325 C355 1.391 . S
C326 C325 1.446 . S
C326 C327 1.339 . S
C326 H361 0.949 . S
C327 C326 1.339 . S
C327 C328 1.439 . S
C327 H362 0.950 . S
C328 N324 1.383 . S
C328 C327 1.439 . S
C328 C357 1.392 . S
N329 Co323 2.008 1_554 S
N329 C330 1.376 . S
N329 C333 1.374 . S
C330 N329 1.376 . S
C330 C331 1.443 . S
C330 C357 1.389 1_554 S
C331 C330 1.443 . S
C331 C332 1.340 . S
C331 H363 0.951 . S
C332 C331 1.340 . S
C332 C333 1.439 . S
C332 H364 0.950 . S
C333 N329 1.374 . S
C333 C332 1.439 . S
C333 C358 1.395 . S
N334 Co323 1.995 1_554 S
N334 C335 1.376 . S
N334 C338 1.383 . S
C335 N334 1.376 . S
C335 C336 1.446 . S
C335 C358 1.391 . S
C336 C335 1.446 . S
C336 C337 1.339 . S
C336 H365 0.949 . S
C337 C336 1.339 . S
C337 C338 1.439 . S
C337 H366 0.950 . S
C338 N334 1.383 . S
C338 C337 1.439 . S
C338 C356 1.392 . S
N339 Co323 2.282 . S
N339 C342 1.332 . S
N339 C344 1.332 . S
C340 C341 1.386 . S
C340 C343 1.388 . S
C341 C340 1.386 . S
C341 C342 1.382 . S
C341 H367 0.950 . S
C342 N339 1.332 . S
C342 C341 1.382 . S
C342 H353 0.952 . S
C343 C340 1.388 . S
C343 C344 1.382 . S
C343 H368 0.950 . S
C344 N339 1.332 . S
C344 C343 1.382 . S
C344 H354 0.948 . S
N345 Co323 2.282 1_554 S
N345 C349 1.332 . S
N345 C350 1.332 . S
C346 C347 1.388 . S
C346 C350 1.382 . S
C346 H369 0.950 . S
C347 C346 1.388 . S
C347 C348 1.386 . S
C348 C347 1.386 . S
C348 C349 1.382 . S
C348 H370 0.950 . S
C349 N345 1.332 . S
C349 C348 1.382 . S
C349 H351 0.952 . S
C350 N345 1.332 . S
C350 C346 1.382 . S
C350 H352 0.948 . S
H351 C349 0.952 . S
H352 C350 0.948 . S
H353 C342 0.952 . S
H354 C344 0.948 . S
C355 C321 1.395 . S
C355 C325 1.391 . S
C356 C318 1.389 1_554 S
C356 C338 1.392 . S
C357 C328 1.392 . S
C357 C330 1.389 1_556 S
C358 C333 1.395 . S
C358 C335 1.391 . S
H359 C319 0.951 . S
H360 C320 0.950 . S
H361 C326 0.949 . S
H362 C327 0.950 . S
H363 C331 0.951 . S
H364 C332 0.950 . S
H365 C336 0.949 . S
H366 C337 0.950 . S
H367 C341 0.950 . S
H368 C343 0.950 . S
H369 C346 0.950 . S
H370 C348 0.950 . S
C371 C372 1.443 . S
C371 N375 1.376 . S
C371 C409 1.389 . S
C372 C371 1.443 . S
C372 C373 1.340 . S
C372 H412 0.951 . S
C373 C372 1.340 . S
C373 C374 1.439 1_556 S
C373 H413 0.950 . S
C374 C373 1.439 1_554 S
C374 N375 1.374 1_554 S
C374 C408 1.395 . S
N375 C371 1.376 . S
N375 C374 1.374 1_556 S
N375 Co376 2.008 . S
Co376 N375 2.008 . S
Co376 N377 1.995 1_556 S
Co376 N382 2.008 1_556 S
Co376 N387 1.995 . S
Co376 N392 2.282 1_556 S
Co376 N398 2.282 . S
N377 Co376 1.995 1_554 S
N377 C378 1.376 . S
N377 C381 1.383 . S
C378 N377 1.376 . S
C378 C379 1.446 . S
C378 C408 1.391 . S
C379 C378 1.446 . S
C379 C380 1.339 . S
C379 H414 0.949 . S
C380 C379 1.339 . S
C380 C381 1.439 . S
C380 H415 0.950 . S
C381 N377 1.383 . S
C381 C380 1.439 . S
C381 C410 1.392 . S
N382 Co376 2.008 1_554 S
N382 C383 1.376 . S
N382 C386 1.374 1_554 S
C383 N382 1.376 . S
C383 C384 1.443 . S
C383 C410 1.389 . S
C384 C383 1.443 . S
C384 C385 1.340 . S
C384 H416 0.951 . S
C385 C384 1.340 . S
C385 C386 1.439 1_554 S
C385 H417 0.950 . S
C386 N382 1.374 1_556 S
C386 C385 1.439 1_556 S
C386 C411 1.395 . S
N387 Co376 1.995 . S
N387 C388 1.376 . S
N387 C391 1.383 . S
C388 N387 1.376 . S
C388 C389 1.446 . S
C388 C411 1.391 . S
C389 C388 1.446 . S
C389 C390 1.339 . S
C389 H418 0.949 . S
C390 C389 1.339 . S
C390 C391 1.439 . S
C390 H419 0.950 . S
C391 N387 1.383 . S
C391 C390 1.439 . S
C391 C409 1.392 . S
N392 Co376 2.282 1_554 S
N392 C395 1.332 1_554 S
N392 C397 1.332 . S
C393 C394 1.386 1_554 S
C393 C396 1.388 . S
C394 C393 1.386 1_556 S
C394 C395 1.382 . S
C394 H420 0.950 . S
C395 N392 1.332 1_556 S
C395 C394 1.382 . S
C395 H406 0.952 . S
C396 C393 1.388 . S
C396 C397 1.382 . S
C396 H421 0.950 . S
C397 N392 1.332 . S
C397 C396 1.382 . S
C397 H407 0.948 . S
N398 Co376 2.282 . S
N398 C402 1.332 1_556 S
N398 C403 1.332 . S
C399 C400 1.388 . S
C399 C403 1.382 . S
C399 H422 0.950 . S
C400 C399 1.388 . S
C400 C401 1.386 1_556 S
C401 C400 1.386 1_554 S
C401 C402 1.382 . S
C401 H423 0.950 . S
C402 N398 1.332 1_554 S
C402 C401 1.382 . S
C402 H404 0.952 . S
C403 N398 1.332 . S
C403 C399 1.382 . S
C403 H405 0.948 . S
H404 C402 0.952 . S
H405 C403 0.948 . S
H406 C395 0.952 . S
H407 C397 0.948 . S
C408 C374 1.395 . S
C408 C378 1.391 . S
C409 C371 1.389 . S
C409 C391 1.392 . S
C410 C381 1.392 . S
C410 C383 1.389 . S
C411 C386 1.395 . S
C411 C388 1.391 . S
H412 C372 0.951 . S
H413 C373 0.950 . S
H414 C379 0.949 . S
H415 C380 0.950 . S
H416 C384 0.951 . S
H417 C385 0.950 . S
H418 C389 0.949 . S
H419 C390 0.950 . S
H420 C394 0.950 . S
H421 C396 0.950 . S
H422 C399 0.950 . S
H423 C401 0.950 . S
C424 C425 1.443 . S
C424 N428 1.376 . S
C424 C462 1.389 . S
C425 C424 1.443 . S
C425 C426 1.340 . S
C425 H465 0.951 . S
C426 C425 1.340 . S
C426 C427 1.439 1_556 S
C426 H466 0.950 . S
C427 C426 1.439 1_554 S
C427 N428 1.374 1_554 S
C427 C461 1.395 . S
N428 C424 1.376 . S
N428 C427 1.374 1_556 S
N428 Co429 2.008 . S
Co429 N428 2.008 . S
Co429 N430 1.995 1_556 S
Co429 N435 2.008 1_556 S
Co429 N440 1.995 . S
Co429 N445 2.282 1_556 S
Co429 N451 2.281 . S
N430 Co429 1.995 1_554 S
N430 C431 1.376 . S
N430 C434 1.383 . S
C431 N430 1.376 . S
C431 C432 1.446 . S
C431 C461 1.391 . S
C432 C431 1.446 . S
C432 C433 1.339 . S
C432 H467 0.949 . S
C433 C432 1.339 . S
C433 C434 1.439 . S
C433 H468 0.950 . S
C434 N430 1.383 . S
C434 C433 1.439 . S
C434 C463 1.392 . S
N435 Co429 2.008 1_554 S
N435 C436 1.376 . S
N435 C439 1.374 1_554 S
C436 N435 1.376 . S
C436 C437 1.443 . S
C436 C463 1.389 . S
C437 C436 1.443 . S
C437 C438 1.340 . S
C437 H469 0.951 . S
C438 C437 1.340 . S
C438 C439 1.439 1_554 S
C438 H470 0.950 . S
C439 N435 1.374 1_556 S
C439 C438 1.439 1_556 S
C439 C464 1.395 . S
N440 Co429 1.995 . S
N440 C441 1.376 . S
N440 C444 1.383 . S
C441 N440 1.376 . S
C441 C442 1.446 . S
C441 C464 1.391 . S
C442 C441 1.446 . S
C442 C443 1.339 . S
C442 H471 0.949 . S
C443 C442 1.339 . S
C443 C444 1.439 . S
C443 H472 0.950 . S
C444 N440 1.383 . S
C444 C443 1.439 . S
C444 C462 1.392 . S
N445 Co429 2.282 1_554 S
N445 C448 1.324 1_554 S
N445 C450 1.343 . S
C446 C447 1.386 1_554 S
C446 C449 1.388 . S
C447 C446 1.386 1_556 S
C447 C448 1.382 . S
C447 H473 0.950 . S
C448 N445 1.324 1_556 S
C448 C447 1.382 . S
C448 H459 0.952 . S
C449 C446 1.388 . S
C449 C450 1.382 . S
C449 H474 0.950 . S
C450 N445 1.343 . S
C450 C449 1.382 . S
C450 H460 0.948 . S
N451 Co429 2.281 . S
N451 C455 1.320 1_556 S
N451 C456 1.349 . S
C452 C453 1.388 . S
C452 C456 1.382 . S
C452 H475 0.950 . S
C453 C452 1.388 . S
C453 C454 1.386 1_556 S
C454 C453 1.386 1_554 S
C454 C455 1.382 . S
C454 H476 0.950 . S
C455 N451 1.320 1_554 S
C455 C454 1.382 . S
C455 H457 0.952 . S
C456 N451 1.349 . S
C456 C452 1.382 . S
C456 H458 0.948 . S
H457 C455 0.952 . S
H458 C456 0.948 . S
H459 C448 0.952 . S
H460 C450 0.948 . S
C461 C427 1.395 . S
C461 C431 1.391 . S
C462 C424 1.389 . S
C462 C444 1.392 . S
C463 C434 1.392 . S
C463 C436 1.389 . S
C464 C439 1.395 . S
C464 C441 1.391 . S
H465 C425 0.951 . S
H466 C426 0.950 . S
H467 C432 0.949 . S
H468 C433 0.950 . S
H469 C437 0.951 . S
H470 C438 0.950 . S
H471 C442 0.949 . S
H472 C443 0.950 . S
H473 C447 0.950 . S
H474 C449 0.950 . S
H475 C452 0.950 . S
H476 C454 0.950 . S
C477 C478 1.443 . S
C477 N481 1.376 . S
C477 C515 1.389 . S
C478 C477 1.443 . S
C478 C479 1.340 . S
C478 H518 0.951 . S
C479 C478 1.340 . S
C479 C480 1.439 1_554 S
C479 H519 0.950 . S
C480 C479 1.439 1_556 S
C480 N481 1.374 1_556 S
C480 C514 1.395 . S
N481 C477 1.376 . S
N481 C480 1.374 1_554 S
N481 Co482 2.008 . S
Co482 N481 2.008 . S
Co482 N483 1.995 1_554 S
Co482 N488 2.008 1_554 S
Co482 N493 1.995 . S
Co482 N498 2.282 1_554 S
Co482 N504 2.281 . S
N483 Co482 1.995 1_556 S
N483 C484 1.376 . S
N483 C487 1.383 . S
C484 N483 1.376 . S
C484 C485 1.446 . S
C484 C514 1.391 . S
C485 C484 1.446 . S
C485 C486 1.339 . S
C485 H520 0.949 . S
C486 C485 1.339 . S
C486 C487 1.439 . S
C486 H521 0.950 . S
C487 N483 1.383 . S
C487 C486 1.439 . S
C487 C516 1.392 . S
N488 Co482 2.008 1_556 S
N488 C489 1.376 . S
N488 C492 1.374 1_556 S
C489 N488 1.376 . S
C489 C490 1.443 . S
C489 C516 1.389 . S
C490 C489 1.443 . S
C490 C491 1.340 . S
C490 H522 0.951 . S
C491 C490 1.340 . S
C491 C492 1.439 1_556 S
C491 H523 0.950 . S
C492 N488 1.374 1_554 S
C492 C491 1.439 1_554 S
C492 C517 1.395 . S
N493 Co482 1.995 . S
N493 C494 1.376 . S
N493 C497 1.383 . S
C494 N493 1.376 . S
C494 C495 1.446 . S
C494 C517 1.391 . S
C495 C494 1.446 . S
C495 C496 1.339 . S
C495 H524 0.949 . S
C496 C495 1.339 . S
C496 C497 1.439 . S
C496 H525 0.950 . S
C497 N493 1.383 . S
C497 C496 1.439 . S
C497 C515 1.392 . S
N498 Co482 2.282 1_556 S
N498 C501 1.324 1_556 S
N498 C503 1.344 . S
C499 C500 1.386 1_556 S
C499 C502 1.388 . S
C500 C499 1.386 1_554 S
C500 C501 1.382 . S
C500 H526 0.950 . S
C501 N498 1.324 1_554 S
C501 C500 1.382 . S
C501 H512 0.952 . S
C502 C499 1.388 . S
C502 C503 1.382 . S
C502 H527 0.950 . S
C503 N498 1.344 . S
C503 C502 1.382 . S
C503 H513 0.948 . S
N504 Co482 2.281 . S
N504 C508 1.320 1_554 S
N504 C509 1.350 . S
C505 C506 1.388 . S
C505 C509 1.382 . S
C505 H528 0.950 . S
C506 C505 1.388 . S
C506 C507 1.386 1_554 S
C507 C506 1.386 1_556 S
C507 C508 1.382 . S
C507 H529 0.950 . S
C508 N504 1.320 1_556 S
C508 C507 1.382 . S
C508 H510 0.952 . S
C509 N504 1.350 . S
C509 C505 1.382 . S
C509 H511 0.948 . S
H510 C508 0.952 . S
H511 C509 0.948 . S
H512 C501 0.952 . S
H513 C503 0.948 . S
C514 C480 1.395 . S
C514 C484 1.391 . S
C515 C477 1.389 . S
C515 C497 1.392 . S
C516 C487 1.392 . S
C516 C489 1.389 . S
C517 C492 1.395 . S
C517 C494 1.391 . S
H518 C478 0.951 . S
H519 C479 0.950 . S
H520 C485 0.949 . S
H521 C486 0.950 . S
H522 C490 0.951 . S
H523 C491 0.950 . S
H524 C495 0.949 . S
H525 C496 0.950 . S
H526 C500 0.950 . S
H527 C502 0.950 . S
H528 C505 0.950 . S
H529 C507 0.950 . S
C530 C531 1.443 . S
C530 N534 1.376 . S
C530 C568 1.389 . S
C531 C530 1.443 . S
C531 C532 1.340 . S
C531 H571 0.951 . S
C532 C531 1.340 . S
C532 C533 1.439 1_554 S
C532 H572 0.950 . S
C533 C532 1.439 1_556 S
C533 N534 1.374 1_556 S
C533 C567 1.395 . S
N534 C530 1.376 . S
N534 C533 1.374 1_554 S
N534 Co535 2.008 . S
Co535 N534 2.008 . S
Co535 N536 1.995 1_554 S
Co535 N541 2.008 1_554 S
Co535 N546 1.995 . S
Co535 N551 2.282 1_554 S
Co535 N557 2.282 . S
N536 Co535 1.995 1_556 S
N536 C537 1.376 . S
N536 C540 1.383 . S
C537 N536 1.376 . S
C537 C538 1.446 . S
C537 C567 1.391 . S
C538 C537 1.446 . S
C538 C539 1.339 . S
C538 H573 0.949 . S
C539 C538 1.339 . S
C539 C540 1.439 . S
C539 H574 0.950 . S
C540 N536 1.383 . S
C540 C539 1.439 . S
C540 C569 1.392 . S
N541 Co535 2.008 1_556 S
N541 C542 1.376 . S
N541 C545 1.374 1_556 S
C542 N541 1.376 . S
C542 C543 1.443 . S
C542 C569 1.389 . S
C543 C542 1.443 . S
C543 C544 1.340 . S
C543 H575 0.951 . S
C544 C543 1.340 . S
C544 C545 1.439 1_556 S
C544 H576 0.950 . S
C545 N541 1.374 1_554 S
C545 C544 1.439 1_554 S
C545 C570 1.395 . S
N546 Co535 1.995 . S
N546 C547 1.376 . S
N546 C550 1.383 . S
C547 N546 1.376 . S
C547 C548 1.446 . S
C547 C570 1.391 . S
C548 C547 1.446 . S
C548 C549 1.339 . S
C548 H577 0.949 . S
C549 C548 1.339 . S
C549 C550 1.439 . S
C549 H578 0.950 . S
C550 N546 1.383 . S
C550 C549 1.439 . S
C550 C568 1.392 . S
N551 Co535 2.282 1_556 S
N551 C554 1.332 1_556 S
N551 C556 1.332 . S
C552 C553 1.386 1_556 S
C552 C555 1.388 . S
C553 C552 1.386 1_554 S
C553 C554 1.382 . S
C553 H579 0.950 . S
C554 N551 1.332 1_554 S
C554 C553 1.382 . S
C554 H565 0.952 . S
C555 C552 1.388 . S
C555 C556 1.382 . S
C555 H580 0.950 . S
C556 N551 1.332 . S
C556 C555 1.382 . S
C556 H566 0.948 . S
N557 Co535 2.282 . S
N557 C561 1.332 1_554 S
N557 C562 1.332 . S
C558 C559 1.388 . S
C558 C562 1.382 . S
C558 H581 0.950 . S
C559 C558 1.388 . S
C559 C560 1.386 1_554 S
C560 C559 1.386 1_556 S
C560 C561 1.382 . S
C560 H582 0.950 . S
C561 N557 1.332 1_556 S
C561 C560 1.382 . S
C561 H563 0.952 . S
C562 N557 1.332 . S
C562 C558 1.382 . S
C562 H564 0.948 . S
H563 C561 0.952 . S
H564 C562 0.948 . S
H565 C554 0.952 . S
H566 C556 0.948 . S
C567 C533 1.395 . S
C567 C537 1.391 . S
C568 C530 1.389 . S
C568 C550 1.392 . S
C569 C540 1.392 . S
C569 C542 1.389 . S
C570 C545 1.395 . S
C570 C547 1.391 . S
H571 C531 0.951 . S
H572 C532 0.950 . S
H573 C538 0.949 . S
H574 C539 0.950 . S
H575 C543 0.951 . S
H576 C544 0.950 . S
H577 C548 0.949 . S
H578 C549 0.950 . S
H579 C553 0.950 . S
H580 C555 0.950 . S
H581 C558 0.950 . S
H582 C560 0.950 . S
C583 C584 1.443 . S
C583 N587 1.376 . S
C583 C621 1.389 1_554 S
C584 C583 1.443 . S
C584 C585 1.340 . S
C584 H624 0.951 . S
C585 C584 1.340 . S
C585 C586 1.439 . S
C585 H625 0.950 . S
C586 C585 1.439 . S
C586 N587 1.374 . S
C586 C620 1.395 . S
N587 C583 1.376 . S
N587 C586 1.374 . S
N587 Co588 2.008 . S
Co588 N587 2.008 . S
Co588 N589 1.995 . S
Co588 N594 2.008 1_554 S
Co588 N599 1.995 1_554 S
Co588 N604 2.282 . S
Co588 N610 2.282 1_554 S
N589 Co588 1.995 . S
N589 C590 1.376 . S
N589 C593 1.383 . S
C590 N589 1.376 . S
C590 C591 1.446 . S
C590 C620 1.391 . S
C591 C590 1.446 . S
C591 C592 1.339 . S
C591 H626 0.949 . S
C592 C591 1.339 . S
C592 C593 1.439 . S
C592 H627 0.950 . S
C593 N589 1.383 . S
C593 C592 1.439 . S
C593 C622 1.392 . S
N594 Co588 2.008 1_556 S
N594 C595 1.376 . S
N594 C598 1.374 . S
C595 N594 1.376 . S
C595 C596 1.443 . S
C595 C622 1.389 1_556 S
C596 C595 1.443 . S
C596 C597 1.340 . S
C596 H628 0.951 . S
C597 C596 1.340 . S
C597 C598 1.439 . S
C597 H629 0.950 . S
C598 N594 1.374 . S
C598 C597 1.439 . S
C598 C623 1.395 . S
N599 Co588 1.995 1_556 S
N599 C600 1.376 . S
N599 C603 1.383 . S
C600 N599 1.376 . S
C600 C601 1.446 . S
C600 C623 1.391 . S
C601 C600 1.446 . S
C601 C602 1.339 . S
C601 H630 0.949 . S
C602 C601 1.339 . S
C602 C603 1.439 . S
C602 H631 0.950 . S
C603 N599 1.383 . S
C603 C602 1.439 . S
C603 C621 1.392 . S
N604 Co588 2.282 . S
N604 C607 1.332 . S
N604 C609 1.332 . S
C605 C606 1.386 . S
C605 C608 1.388 . S
C606 C605 1.386 . S
C606 C607 1.382 . S
C606 H632 0.950 . S
C607 N604 1.332 . S
C607 C606 1.382 . S
C607 H618 0.952 . S
C608 C605 1.388 . S
C608 C609 1.382 . S
C608 H633 0.950 . S
C609 N604 1.332 . S
C609 C608 1.382 . S
C609 H619 0.948 . S
N610 Co588 2.282 1_556 S
N610 C614 1.332 . S
N610 C615 1.332 . S
C611 C612 1.388 . S
C611 C615 1.382 . S
C611 H634 0.950 . S
C612 C611 1.388 . S
C612 C613 1.386 . S
C613 C612 1.386 . S
C613 C614 1.382 . S
C613 H635 0.950 . S
C614 N610 1.332 . S
C614 C613 1.382 . S
C614 H616 0.952 . S
C615 N610 1.332 . S
C615 C611 1.382 . S
C615 H617 0.948 . S
H616 C614 0.952 . S
H617 C615 0.948 . S
H618 C607 0.952 . S
H619 C609 0.948 . S
C620 C586 1.395 . S
C620 C590 1.391 . S
C621 C583 1.389 1_556 S
C621 C603 1.392 . S
C622 C593 1.392 . S
C622 C595 1.389 1_554 S
C623 C598 1.395 . S
C623 C600 1.391 . S
H624 C584 0.951 . S
H625 C585 0.950 . S
H626 C591 0.949 . S
H627 C592 0.950 . S
H628 C596 0.951 . S
H629 C597 0.950 . S
H630 C601 0.949 . S
H631 C602 0.950 . S
H632 C606 0.950 . S
H633 C608 0.950 . S
H634 C611 0.950 . S
H635 C613 0.950 . S
C636 C637 1.443 . S
C636 N640 1.376 . S
C636 C674 1.389 . S
C637 C636 1.443 . S
C637 C638 1.340 . S
C637 H677 0.951 . S
C638 C637 1.340 . S
C638 C639 1.439 . S
C638 H678 0.950 . S
C639 C638 1.439 . S
C639 N640 1.374 . S
C639 C673 1.395 . S
N640 C636 1.376 . S
N640 C639 1.374 . S
N640 Co641 2.008 . S
Co641 N640 2.008 . S
Co641 N642 1.995 . S
Co641 N647 2.008 . S
Co641 N652 1.995 . S
Co641 N657 2.282 . S
Co641 N663 2.282 . S
N642 Co641 1.995 . S
N642 C643 1.376 . S
N642 C646 1.383 . S
C643 N642 1.376 . S
C643 C644 1.446 . S
C643 C673 1.391 . S
C644 C643 1.446 . S
C644 C645 1.339 . S
C644 H679 0.949 . S
C645 C644 1.339 . S
C645 C646 1.439 . S
C645 H680 0.950 . S
C646 N642 1.383 . S
C646 C645 1.439 . S
C646 C675 1.392 . S
N647 Co641 2.008 . S
N647 C648 1.376 . S
N647 C651 1.374 . S
C648 N647 1.376 . S
C648 C649 1.443 . S
C648 C675 1.389 . S
C649 C648 1.443 . S
C649 C650 1.340 . S
C649 H681 0.951 . S
C650 C649 1.340 . S
C650 C651 1.439 . S
C650 H682 0.950 . S
C651 N647 1.374 . S
C651 C650 1.439 . S
C651 C676 1.395 . S
N652 Co641 1.995 . S
N652 C653 1.376 . S
N652 C656 1.383 . S
C653 N652 1.376 . S
C653 C654 1.446 . S
C653 C676 1.391 . S
C654 C653 1.446 . S
C654 C655 1.339 . S
C654 H683 0.949 . S
C655 C654 1.339 . S
C655 C656 1.439 . S
C655 H684 0.950 . S
C656 N652 1.383 . S
C656 C655 1.439 . S
C656 C674 1.392 . S
N657 Co641 2.282 . S
N657 C660 1.332 . S
N657 C662 1.332 . S
C658 C659 1.386 . S
C658 C661 1.388 . S
C659 C658 1.386 . S
C659 C660 1.382 . S
C659 H685 0.950 . S
C660 N657 1.332 . S
C660 C659 1.382 . S
C660 H671 0.952 . S
C661 C658 1.388 . S
C661 C662 1.382 . S
C661 H686 0.950 . S
C662 N657 1.332 . S
C662 C661 1.382 . S
C662 H672 0.948 . S
N663 Co641 2.282 . S
N663 C667 1.332 . S
N663 C668 1.332 . S
C664 C665 1.388 . S
C664 C668 1.382 . S
C664 H687 0.950 . S
C665 C664 1.388 . S
C665 C666 1.386 . S
C666 C665 1.386 . S
C666 C667 1.382 . S
C666 H688 0.950 . S
C667 N663 1.332 . S
C667 C666 1.382 . S
C667 H669 0.952 . S
C668 N663 1.332 . S
C668 C664 1.382 . S
C668 H670 0.948 . S
H669 C667 0.952 . S
H670 C668 0.948 . S
H671 C660 0.952 . S
H672 C662 0.948 . S
C673 C639 1.395 . S
C673 C643 1.391 . S
C674 C636 1.389 . S
C674 C656 1.392 . S
C675 C646 1.392 . S
C675 C648 1.389 . S
C676 C651 1.395 . S
C676 C653 1.391 . S
H677 C637 0.951 . S
H678 C638 0.950 . S
H679 C644 0.949 . S
H680 C645 0.950 . S
H681 C649 0.951 . S
H682 C650 0.950 . S
H683 C654 0.949 . S
H684 C655 0.950 . S
H685 C659 0.950 . S
H686 C661 0.950 . S
H687 C664 0.950 . S
H688 C666 0.950 . S
C689 C690 1.443 . S
C689 N693 1.376 . S
C689 C727 1.389 . S
C690 C689 1.443 . S
C690 C691 1.340 . S
C690 H730 0.951 . S
C691 C690 1.340 . S
C691 C692 1.439 . S
C691 H731 0.950 . S
C692 C691 1.439 . S
C692 N693 1.374 . S
C692 C726 1.395 . S
N693 C689 1.376 . S
N693 C692 1.374 . S
N693 Co694 2.008 . S
Co694 N693 2.008 . S
Co694 N695 1.995 . S
Co694 N700 2.008 . S
Co694 N705 1.995 . S
Co694 N710 2.282 . S
Co694 N716 2.282 . S
N695 Co694 1.995 . S
N695 C696 1.376 . S
N695 C699 1.383 . S
C696 N695 1.376 . S
C696 C697 1.446 . S
C696 C726 1.391 . S
C697 C696 1.446 . S
C697 C698 1.339 . S
C697 H732 0.949 . S
C698 C697 1.339 . S
C698 C699 1.439 . S
C698 H733 0.950 . S
C699 N695 1.383 . S
C699 C698 1.439 . S
C699 C728 1.392 . S
N700 Co694 2.008 . S
N700 C701 1.376 . S
N700 C704 1.374 . S
C701 N700 1.376 . S
C701 C702 1.443 . S
C701 C728 1.389 . S
C702 C701 1.443 . S
C702 C703 1.340 . S
C702 H734 0.951 . S
C703 C702 1.340 . S
C703 C704 1.439 . S
C703 H735 0.950 . S
C704 N700 1.374 . S
C704 C703 1.439 . S
C704 C729 1.395 . S
N705 Co694 1.995 . S
N705 C706 1.376 . S
N705 C709 1.383 . S
C706 N705 1.376 . S
C706 C707 1.446 . S
C706 C729 1.391 . S
C707 C706 1.446 . S
C707 C708 1.339 . S
C707 H736 0.949 . S
C708 C707 1.339 . S
C708 C709 1.439 . S
C708 H737 0.950 . S
C709 N705 1.383 . S
C709 C708 1.439 . S
C709 C727 1.392 . S
N710 Co694 2.282 . S
N710 C713 1.332 . S
N710 C715 1.332 . S
C711 C712 1.386 . S
C711 C714 1.388 . S
C712 C711 1.386 . S
C712 C713 1.382 . S
C712 H738 0.950 . S
C713 N710 1.332 . S
C713 C712 1.382 . S
C713 H724 0.952 . S
C714 C711 1.388 . S
C714 C715 1.382 . S
C714 H739 0.950 . S
C715 N710 1.332 . S
C715 C714 1.382 . S
C715 H725 0.948 . S
N716 Co694 2.282 . S
N716 C720 1.332 . S
N716 C721 1.332 . S
C717 C718 1.373 . S
C717 C721 1.443 . S
C717 H740 0.908 1_545 S
C718 C717 1.373 . S
C718 C719 1.386 . S
C719 C718 1.386 . S
C719 C720 1.382 . S
C719 H741 0.950 . S
C720 N716 1.332 . S
C720 C719 1.382 . S
C720 H722 0.952 . S
C721 N716 1.332 . S
C721 C717 1.443 . S
C721 H723 0.948 . S
H722 C720 0.952 . S
H723 C721 0.948 . S
H724 C713 0.952 . S
H725 C715 0.948 . S
C726 C692 1.395 . S
C726 C696 1.391 . S
C727 C689 1.389 . S
C727 C709 1.392 . S
C728 C699 1.392 . S
C728 C701 1.389 . S
C729 C704 1.395 . S
C729 C706 1.391 . S
H730 C690 0.951 . S
H731 C691 0.950 . S
H732 C697 0.949 . S
H733 C698 0.950 . S
H734 C702 0.951 . S
H735 C703 0.950 . S
H736 C707 0.949 . S
H737 C708 0.950 . S
H738 C712 0.950 . S
H739 C714 0.950 . S
H740 C717 0.908 1_565 S
H741 C719 0.950 . S
C742 C743 1.443 . S
C742 N746 1.376 . S
C742 C780 1.389 . S
C743 C742 1.443 . S
C743 C744 1.340 . S
C743 H783 0.951 . S
C744 C743 1.340 . S
C744 C745 1.439 . S
C744 H784 0.950 . S
C745 C744 1.439 . S
C745 N746 1.374 . S
C745 C779 1.395 . S
N746 C742 1.376 . S
N746 C745 1.374 . S
N746 Co747 2.008 . S
Co747 N746 2.008 . S
Co747 N748 1.995 . S
Co747 N753 2.008 . S
Co747 N758 1.995 . S
Co747 N763 2.282 . S
Co747 N769 2.282 . S
N748 Co747 1.995 . S
N748 C749 1.376 . S
N748 C752 1.383 . S
C749 N748 1.376 . S
C749 C750 1.446 . S
C749 C779 1.391 . S
C750 C749 1.446 . S
C750 C751 1.339 . S
C750 H785 0.949 . S
C751 C750 1.339 . S
C751 C752 1.439 . S
C751 H786 0.950 . S
C752 N748 1.383 . S
C752 C751 1.439 . S
C752 C781 1.392 . S
N753 Co747 2.008 . S
N753 C754 1.376 . S
N753 C757 1.374 . S
C754 N753 1.376 . S
C754 C755 1.443 . S
C754 C781 1.389 . S
C755 C754 1.443 . S
C755 C756 1.340 . S
C755 H787 0.951 . S
C756 C755 1.340 . S
C756 C757 1.439 . S
C756 H788 0.950 . S
C757 N753 1.374 . S
C757 C756 1.439 . S
C757 C782 1.395 . S
N758 Co747 1.995 . S
N758 C759 1.376 . S
N758 C762 1.383 . S
C759 N758 1.376 . S
C759 C760 1.446 . S
C759 C782 1.391 . S
C760 C759 1.446 . S
C760 C761 1.339 . S
C760 H789 0.949 . S
C761 C760 1.339 . S
C761 C762 1.439 . S
C761 H790 0.950 . S
C762 N758 1.383 . S
C762 C761 1.439 . S
C762 C780 1.392 . S
N763 Co747 2.282 . S
N763 C766 1.332 . S
N763 C768 1.332 . S
C764 C765 1.386 . S
C764 C767 1.388 . S
C765 C764 1.386 . S
C765 C766 1.382 . S
C765 H791 0.950 . S
C766 N763 1.332 . S
C766 C765 1.382 . S
C766 H777 0.952 . S
C767 C764 1.388 . S
C767 C768 1.382 . S
C767 H792 0.950 . S
C768 N763 1.332 . S
C768 C767 1.382 . S
C768 H778 0.948 . S
N769 Co747 2.282 . S
N769 C773 1.332 . S
N769 C774 1.332 . S
C770 C771 1.388 . S
C770 C774 1.382 . S
C770 H793 0.950 1_655 S
C771 C770 1.388 . S
C771 C772 1.386 . S
C772 C771 1.386 . S
C772 C773 1.382 . S
C772 H794 0.950 . S
C773 N769 1.332 . S
C773 C772 1.382 . S
C773 H775 0.952 . S
C774 N769 1.332 . S
C774 C770 1.382 . S
C774 H776 0.948 . S
H775 C773 0.952 . S
H776 C774 0.948 . S
H777 C766 0.952 . S
H778 C768 0.948 . S
C779 C745 1.395 . S
C779 C749 1.391 . S
C780 C742 1.389 . S
C780 C762 1.392 . S
C781 C752 1.392 . S
C781 C754 1.389 . S
C782 C757 1.395 . S
C782 C759 1.391 . S
H783 C743 0.951 . S
H784 C744 0.950 . S
H785 C750 0.949 . S
H786 C751 0.950 . S
H787 C755 0.951 . S
H788 C756 0.950 . S
H789 C760 0.949 . S
H790 C761 0.950 . S
H791 C765 0.950 . S
H792 C767 0.950 . S
H793 C770 0.950 1_455 S
H794 C772 0.950 . S
C795 C796 1.443 . S
C795 N799 1.376 . S
C795 C833 1.389 . S
C796 C795 1.443 . S
C796 C797 1.340 . S
C796 H836 0.951 . S
C797 C796 1.340 . S
C797 C798 1.439 . S
C797 H837 0.950 . S
C798 C797 1.439 . S
C798 N799 1.374 . S
C798 C832 1.395 . S
N799 C795 1.376 . S
N799 C798 1.374 . S
N799 Co800 2.008 . S
Co800 N799 2.008 . S
Co800 N801 1.995 . S
Co800 N806 2.008 . S
Co800 N811 1.995 . S
Co800 N816 2.282 . S
Co800 N822 2.282 . S
N801 Co800 1.995 . S
N801 C802 1.376 . S
N801 C805 1.383 . S
C802 N801 1.376 . S
C802 C803 1.446 . S
C802 C832 1.391 . S
C803 C802 1.446 . S
C803 C804 1.339 . S
C803 H838 0.949 . S
C804 C803 1.339 . S
C804 C805 1.439 . S
C804 H839 0.950 . S
C805 N801 1.383 . S
C805 C804 1.439 . S
C805 C834 1.392 . S
N806 Co800 2.008 . S
N806 C807 1.376 . S
N806 C810 1.374 . S
C807 N806 1.376 . S
C807 C808 1.443 . S
C807 C834 1.389 . S
C808 C807 1.443 . S
C808 C809 1.340 . S
C808 H840 0.951 . S
C809 C808 1.340 . S
C809 C810 1.439 . S
C809 H841 0.950 . S
C810 N806 1.374 . S
C810 C809 1.439 . S
C810 C835 1.395 . S
N811 Co800 1.995 . S
N811 C812 1.376 . S
N811 C815 1.383 . S
C812 N811 1.376 . S
C812 C813 1.446 . S
C812 C835 1.391 . S
C813 C812 1.446 . S
C813 C814 1.339 . S
C813 H842 0.949 . S
C814 C813 1.339 . S
C814 C815 1.439 . S
C814 H843 0.950 . S
C815 N811 1.383 . S
C815 C814 1.439 . S
C815 C833 1.392 . S
N816 Co800 2.282 . S
N816 C819 1.332 . S
N816 C821 1.332 . S
C817 C818 1.386 . S
C817 C820 1.388 . S
C818 C817 1.386 . S
C818 C819 1.382 . S
C818 H844 0.950 . S
C819 N816 1.332 . S
C819 C818 1.382 . S
C819 H830 0.952 . S
C820 C817 1.388 . S
C820 C821 1.382 . S
C820 H845 0.950 . S
C821 N816 1.332 . S
C821 C820 1.382 . S
C821 H831 0.948 . S
N822 Co800 2.282 . S
N822 C826 1.332 . S
N822 C827 1.332 . S
C823 C824 1.388 . S
C823 C827 1.382 . S
C823 H846 0.950 . S
C824 C823 1.388 . S
C824 C825 1.386 . S
C825 C824 1.386 . S
C825 C826 1.382 . S
C825 H847 0.950 . S
C826 N822 1.332 . S
C826 C825 1.382 . S
C826 H828 0.952 . S
C827 N822 1.332 . S
C827 C823 1.382 . S
C827 H829 0.948 . S
H828 C826 0.952 . S
H829 C827 0.948 . S
H830 C819 0.952 . S
H831 C821 0.948 . S
C832 C798 1.395 . S
C832 C802 1.391 . S
C833 C795 1.389 . S
C833 C815 1.392 . S
C834 C805 1.392 . S
C834 C807 1.389 . S
C835 C810 1.395 . S
C835 C812 1.391 . S
H836 C796 0.951 . S
H837 C797 0.950 . S
H838 C803 0.949 . S
H839 C804 0.950 . S
H840 C808 0.951 . S
H841 C809 0.950 . S
H842 C813 0.949 . S
H843 C814 0.950 . S
H844 C818 0.950 . S
H845 C820 0.950 . S
H846 C823 0.950 . S
H847 C825 0.950 . S
C848 C849 1.443 . S
C848 N852 1.376 . S
C848 C886 1.389 . S
C849 C848 1.443 . S
C849 C850 1.340 . S
C849 H889 0.951 . S
C850 C849 1.340 . S
C850 C851 1.439 . S
C850 H890 0.950 . S
C851 C850 1.439 . S
C851 N852 1.374 . S
C851 C885 1.395 . S
N852 C848 1.376 . S
N852 C851 1.374 . S
N852 Co853 2.008 . S
Co853 N852 2.008 . S
Co853 N854 1.995 . S
Co853 N859 2.008 . S
Co853 N864 1.995 . S
Co853 N869 2.282 . S
Co853 N875 2.282 . S
N854 Co853 1.995 . S
N854 C855 1.376 . S
N854 C858 1.383 . S
C855 N854 1.376 . S
C855 C856 1.446 . S
C855 C885 1.391 . S
C856 C855 1.446 . S
C856 C857 1.339 . S
C856 H891 0.949 . S
C857 C856 1.339 . S
C857 C858 1.439 . S
C857 H892 0.950 . S
C858 N854 1.383 . S
C858 C857 1.439 . S
C858 C887 1.392 . S
N859 Co853 2.008 . S
N859 C860 1.376 . S
N859 C863 1.374 . S
C860 N859 1.376 . S
C860 C861 1.443 . S
C860 C887 1.389 . S
C861 C860 1.443 . S
C861 C862 1.340 . S
C861 H893 0.951 . S
C862 C861 1.340 . S
C862 C863 1.439 . S
C862 H894 0.950 . S
C863 N859 1.374 . S
C863 C862 1.439 . S
C863 C888 1.395 . S
N864 Co853 1.995 . S
N864 C865 1.376 . S
N864 C868 1.383 . S
C865 N864 1.376 . S
C865 C866 1.446 . S
C865 C888 1.391 . S
C866 C865 1.446 . S
C866 C867 1.339 . S
C866 H895 0.949 . S
C867 C866 1.339 . S
C867 C868 1.439 . S
C867 H896 0.950 . S
C868 N864 1.383 . S
C868 C867 1.439 . S
C868 C886 1.392 . S
N869 Co853 2.282 . S
N869 C872 1.332 . S
N869 C874 1.332 . S
C870 C871 1.386 . S
C870 C873 1.388 . S
C871 C870 1.386 . S
C871 C872 1.382 . S
C871 H897 0.950 . S
C872 N869 1.332 . S
C872 C871 1.382 . S
C872 H883 0.952 . S
C873 C870 1.388 . S
C873 C874 1.382 . S
C873 H898 0.950 . S
C874 N869 1.332 . S
C874 C873 1.382 . S
C874 H884 0.948 . S
N875 Co853 2.282 . S
N875 C879 1.332 . S
N875 C880 1.332 . S
C876 C877 1.388 . S
C876 C880 1.382 . S
C876 H899 0.950 . S
C877 C876 1.388 . S
C877 C878 1.386 . S
C878 C877 1.386 . S
C878 C879 1.382 . S
C878 H900 0.950 . S
C879 N875 1.332 . S
C879 C878 1.382 . S
C879 H881 0.952 . S
C880 N875 1.332 . S
C880 C876 1.382 . S
C880 H882 0.948 . S
H881 C879 0.952 . S
H882 C880 0.948 . S
H883 C872 0.952 . S
H884 C874 0.948 . S
C885 C851 1.395 . S
C885 C855 1.391 . S
C886 C848 1.389 . S
C886 C868 1.392 . S
C887 C858 1.392 . S
C887 C860 1.389 . S
C888 C863 1.395 . S
C888 C865 1.391 . S
H889 C849 0.951 . S
H890 C850 0.950 . S
H891 C856 0.949 . S
H892 C857 0.950 . S
H893 C861 0.951 . S
H894 C862 0.950 . S
H895 C866 0.949 . S
H896 C867 0.950 . S
H897 C871 0.950 . S
H898 C873 0.950 . S
H899 C876 0.950 . S
H900 C878 0.950 . S
C901 C902 1.443 . S
C901 N905 1.376 . S
C901 C939 1.389 . S
C902 C901 1.443 . S
C902 C903 1.340 . S
C902 H942 0.951 . S
C903 C902 1.340 . S
C903 C904 1.439 . S
C903 H943 0.950 . S
C904 C903 1.439 . S
C904 N905 1.374 . S
C904 C938 1.395 . S
N905 C901 1.376 . S
N905 C904 1.374 . S
N905 Co906 2.008 . S
Co906 N905 2.008 . S
Co906 N907 1.995 . S
Co906 N912 2.008 . S
Co906 N917 1.995 . S
Co906 N922 2.282 . S
Co906 N928 2.282 . S
N907 Co906 1.995 . S
N907 C908 1.376 . S
N907 C911 1.383 . S
C908 N907 1.376 . S
C908 C909 1.446 . S
C908 C938 1.391 . S
C909 C908 1.446 . S
C909 C910 1.339 . S
C909 H944 0.949 . S
C910 C909 1.339 . S
C910 C911 1.439 . S
C910 H945 0.950 . S
C911 N907 1.383 . S
C911 C910 1.439 . S
C911 C940 1.392 . S
N912 Co906 2.008 . S
N912 C913 1.376 . S
N912 C916 1.374 . S
C913 N912 1.376 . S
C913 C914 1.443 . S
C913 C940 1.389 . S
C914 C913 1.443 . S
C914 C915 1.340 . S
C914 H946 0.951 . S
C915 C914 1.340 . S
C915 C916 1.439 . S
C915 H947 0.950 . S
C916 N912 1.374 . S
C916 C915 1.439 . S
C916 C941 1.395 . S
N917 Co906 1.995 . S
N917 C918 1.376 . S
N917 C921 1.383 . S
C918 N917 1.376 . S
C918 C919 1.446 . S
C918 C941 1.391 . S
C919 C918 1.446 . S
C919 C920 1.339 . S
C919 H948 0.949 . S
C920 C919 1.339 . S
C920 C921 1.439 . S
C920 H949 0.950 . S
C921 N917 1.383 . S
C921 C920 1.439 . S
C921 C939 1.392 . S
N922 Co906 2.282 . S
N922 C925 1.332 . S
N922 C927 1.332 . S
C923 C924 1.386 . S
C923 C926 1.388 . S
C924 C923 1.386 . S
C924 C925 1.382 . S
C924 H950 0.950 . S
C925 N922 1.332 . S
C925 C924 1.382 . S
C925 H936 0.952 . S
C926 C923 1.388 . S
C926 C927 1.382 . S
C926 H951 0.950 . S
C927 N922 1.332 . S
C927 C926 1.382 . S
C927 H937 0.948 . S
N928 Co906 2.282 . S
N928 C932 1.332 . S
N928 C933 1.332 . S
C929 C930 1.388 . S
C929 C933 1.382 . S
C929 H952 0.950 . S
C930 C929 1.388 . S
C930 C931 1.386 . S
C931 C930 1.386 . S
C931 C932 1.382 . S
C931 H953 0.950 . S
C932 N928 1.332 . S
C932 C931 1.382 . S
C932 H934 0.952 . S
C933 N928 1.332 . S
C933 C929 1.382 . S
C933 H935 0.948 . S
H934 C932 0.952 . S
H935 C933 0.948 . S
H936 C925 0.952 . S
H937 C927 0.948 . S
C938 C904 1.395 . S
C938 C908 1.391 . S
C939 C901 1.389 . S
C939 C921 1.392 . S
C940 C911 1.392 . S
C940 C913 1.389 . S
C941 C916 1.395 . S
C941 C918 1.391 . S
H942 C902 0.951 . S
H943 C903 0.950 . S
H944 C909 0.949 . S
H945 C910 0.950 . S
H946 C914 0.951 . S
H947 C915 0.950 . S
H948 C919 0.949 . S
H949 C920 0.950 . S
H950 C924 0.950 . S
H951 C926 0.950 . S
H952 C929 0.950 . S
H953 C931 0.950 . S
C954 C955 1.443 . S
C954 N958 1.376 . S
C954 C992 1.389 . S
C955 C954 1.443 . S
C955 C956 1.340 . S
C955 H995 0.951 . S
C956 C955 1.340 . S
C956 C957 1.439 . S
C956 H996 0.950 . S
C957 C956 1.439 . S
C957 N958 1.374 . S
C957 C991 1.395 . S
N958 C954 1.376 . S
N958 C957 1.374 . S
N958 Co959 2.008 . S
Co959 N958 2.008 . S
Co959 N960 1.995 . S
Co959 N965 2.008 . S
Co959 N970 1.995 . S
Co959 N975 2.282 . S
Co959 N981 2.282 . S
N960 Co959 1.995 . S
N960 C961 1.376 . S
N960 C964 1.383 . S
C961 N960 1.376 . S
C961 C962 1.446 . S
C961 C991 1.391 . S
C962 C961 1.446 . S
C962 C963 1.339 . S
C962 H997 0.949 . S
C963 C962 1.339 . S
C963 C964 1.439 . S
C963 H998 0.950 . S
C964 N960 1.383 . S
C964 C963 1.439 . S
C964 C993 1.392 . S
N965 Co959 2.008 . S
N965 C966 1.376 . S
N965 C969 1.374 . S
C966 N965 1.376 . S
C966 C967 1.443 . S
C966 C993 1.389 . S
C967 C966 1.443 . S
C967 C968 1.340 . S
C967 H999 0.951 . S
C968 C967 1.340 . S
C968 C969 1.439 . S
C968 H1000 0.950 . S
C969 N965 1.374 . S
C969 C968 1.439 . S
C969 C994 1.395 . S
N970 Co959 1.995 . S
N970 C971 1.376 . S
N970 C974 1.383 . S
C971 N970 1.376 . S
C971 C972 1.446 . S
C971 C994 1.391 . S
C972 C971 1.446 . S
C972 C973 1.339 . S
C972 H1001 0.949 . S
C973 C972 1.339 . S
C973 C974 1.439 . S
C973 H1002 0.950 . S
C974 N970 1.383 . S
C974 C973 1.439 . S
C974 C992 1.392 . S
N975 Co959 2.282 . S
N975 C978 1.332 . S
N975 C980 1.332 . S
C976 C977 1.386 . S
C976 C979 1.388 . S
C977 C976 1.386 . S
C977 C978 1.382 . S
C977 H1003 0.950 . S
C978 N975 1.332 . S
C978 C977 1.382 . S
C978 H989 0.952 . S
C979 C976 1.388 . S
C979 C980 1.382 . S
C979 H1004 0.950 . S
C980 N975 1.332 . S
C980 C979 1.382 . S
C980 H990 0.948 . S
N981 Co959 2.282 . S
N981 C985 1.332 . S
N981 C986 1.332 . S
C982 C983 1.388 . S
C982 C986 1.382 . S
C982 H1005 0.950 . S
C983 C982 1.388 . S
C983 C984 1.386 . S
C984 C983 1.386 . S
C984 C985 1.382 . S
C984 H1006 0.950 . S
C985 N981 1.332 . S
C985 C984 1.382 . S
C985 H987 0.952 . S
C986 N981 1.332 . S
C986 C982 1.382 . S
C986 H988 0.948 . S
H987 C985 0.952 . S
H988 C986 0.948 . S
H989 C978 0.952 . S
H990 C980 0.948 . S
C991 C957 1.395 . S
C991 C961 1.391 . S
C992 C954 1.389 . S
C992 C974 1.392 . S
C993 C964 1.392 . S
C993 C966 1.389 . S
C994 C969 1.395 . S
C994 C971 1.391 . S
H995 C955 0.951 . S
H996 C956 0.950 . S
H997 C962 0.949 . S
H998 C963 0.950 . S
H999 C967 0.951 . S
H1000 C968 0.950 . S
H1001 C972 0.949 . S
H1002 C973 0.950 . S
H1003 C977 0.950 . S
H1004 C979 0.950 . S
H1005 C982 0.950 . S
H1006 C984 0.950 . S
C1007 C1008 1.443 . S
C1007 N1011 1.376 . S
C1007 C1045 1.389 . S
C1008 C1007 1.443 . S
C1008 C1009 1.340 . S
C1008 H1048 0.951 . S
C1009 C1008 1.340 . S
C1009 C1010 1.439 . S
C1009 H1049 0.950 . S
C1010 C1009 1.439 . S
C1010 N1011 1.374 . S
C1010 C1044 1.395 . S
N1011 C1007 1.376 . S
N1011 C1010 1.374 . S
N1011 Co1012 2.008 . S
Co1012 N1011 2.008 . S
Co1012 N1013 1.995 . S
Co1012 N1018 2.008 . S
Co1012 N1023 1.995 . S
Co1012 N1028 2.282 . S
Co1012 N1034 2.282 . S
N1013 Co1012 1.995 . S
N1013 C1014 1.376 . S
N1013 C1017 1.383 . S
C1014 N1013 1.376 . S
C1014 C1015 1.446 . S
C1014 C1044 1.391 . S
C1015 C1014 1.446 . S
C1015 C1016 1.339 . S
C1015 H1050 0.949 . S
C1016 C1015 1.339 . S
C1016 C1017 1.439 . S
C1016 H1051 0.950 . S
C1017 N1013 1.383 . S
C1017 C1016 1.439 . S
C1017 C1046 1.392 . S
N1018 Co1012 2.008 . S
N1018 C1019 1.376 . S
N1018 C1022 1.374 . S
C1019 N1018 1.376 . S
C1019 C1020 1.443 . S
C1019 C1046 1.389 . S
C1020 C1019 1.443 . S
C1020 C1021 1.340 . S
C1020 H1052 0.951 . S
C1021 C1020 1.340 . S
C1021 C1022 1.439 . S
C1021 H1053 0.950 . S
C1022 N1018 1.374 . S
C1022 C1021 1.439 . S
C1022 C1047 1.395 . S
N1023 Co1012 1.995 . S
N1023 C1024 1.376 . S
N1023 C1027 1.383 . S
C1024 N1023 1.376 . S
C1024 C1025 1.446 . S
C1024 C1047 1.391 . S
C1025 C1024 1.446 . S
C1025 C1026 1.339 . S
C1025 H1054 0.949 . S
C1026 C1025 1.339 . S
C1026 C1027 1.439 . S
C1026 H1055 0.950 . S
C1027 N1023 1.383 . S
C1027 C1026 1.439 . S
C1027 C1045 1.392 . S
N1028 Co1012 2.282 . S
N1028 C1031 1.332 . S
N1028 C1033 1.332 . S
C1029 C1030 1.386 . S
C1029 C1032 1.388 . S
C1030 C1029 1.386 . S
C1030 C1031 1.382 . S
C1030 H1056 0.950 . S
C1031 N1028 1.332 . S
C1031 C1030 1.382 . S
C1031 H1042 0.952 . S
C1032 C1029 1.388 . S
C1032 C1033 1.382 . S
C1032 H1057 0.950 . S
C1033 N1028 1.332 . S
C1033 C1032 1.382 . S
C1033 H1043 0.948 . S
N1034 Co1012 2.282 . S
N1034 C1038 1.332 . S
N1034 C1039 1.332 . S
C1035 C1036 1.388 . S
C1035 C1039 1.382 . S
C1035 H1058 0.950 . S
C1036 C1035 1.388 . S
C1036 C1037 1.386 . S
C1037 C1036 1.386 . S
C1037 C1038 1.382 . S
C1037 H1059 0.950 . S
C1038 N1034 1.332 . S
C1038 C1037 1.382 . S
C1038 H1040 0.952 . S
C1039 N1034 1.332 . S
C1039 C1035 1.382 . S
C1039 H1041 0.948 . S
H1040 C1038 0.952 . S
H1041 C1039 0.948 . S
H1042 C1031 0.952 . S
H1043 C1033 0.948 . S
C1044 C1010 1.395 . S
C1044 C1014 1.391 . S
C1045 C1007 1.389 . S
C1045 C1027 1.392 . S
C1046 C1017 1.392 . S
C1046 C1019 1.389 . S
C1047 C1022 1.395 . S
C1047 C1024 1.391 . S
H1048 C1008 0.951 . S
H1049 C1009 0.950 . S
H1050 C1015 0.949 . S
H1051 C1016 0.950 . S
H1052 C1020 0.951 . S
H1053 C1021 0.950 . S
H1054 C1025 0.949 . S
H1055 C1026 0.950 . S
H1056 C1030 0.950 . S
H1057 C1032 0.950 . S
H1058 C1035 0.950 . S
H1059 C1037 0.950 . S
C1060 C1061 1.443 . S
C1060 N1064 1.376 . S
C1060 C1098 1.389 . S
C1061 C1060 1.443 . S
C1061 C1062 1.340 . S
C1061 H1101 0.951 . S
C1062 C1061 1.340 . S
C1062 C1063 1.439 . S
C1062 H1102 0.950 . S
C1063 C1062 1.439 . S
C1063 N1064 1.374 . S
C1063 C1097 1.395 . S
N1064 C1060 1.376 . S
N1064 C1063 1.374 . S
N1064 Co1065 2.008 . S
Co1065 N1064 2.008 . S
Co1065 N1066 1.995 . S
Co1065 N1071 2.008 . S
Co1065 N1076 1.995 . S
Co1065 N1081 2.282 . S
Co1065 N1087 2.282 . S
N1066 Co1065 1.995 . S
N1066 C1067 1.376 . S
N1066 C1070 1.383 . S
C1067 N1066 1.376 . S
C1067 C1068 1.446 . S
C1067 C1097 1.391 . S
C1068 C1067 1.446 . S
C1068 C1069 1.339 . S
C1068 H1103 0.949 . S
C1069 C1068 1.339 . S
C1069 C1070 1.439 . S
C1069 H1104 0.950 . S
C1070 N1066 1.383 . S
C1070 C1069 1.439 . S
C1070 C1099 1.392 . S
N1071 Co1065 2.008 . S
N1071 C1072 1.376 . S
N1071 C1075 1.374 . S
C1072 N1071 1.376 . S
C1072 C1073 1.443 . S
C1072 C1099 1.389 . S
C1073 C1072 1.443 . S
C1073 C1074 1.340 . S
C1073 H1105 0.951 . S
C1074 C1073 1.340 . S
C1074 C1075 1.439 . S
C1074 H1106 0.950 . S
C1075 N1071 1.374 . S
C1075 C1074 1.439 . S
C1075 C1100 1.395 . S
N1076 Co1065 1.995 . S
N1076 C1077 1.376 . S
N1076 C1080 1.383 . S
C1077 N1076 1.376 . S
C1077 C1078 1.446 . S
C1077 C1100 1.391 . S
C1078 C1077 1.446 . S
C1078 C1079 1.339 . S
C1078 H1107 0.949 . S
C1079 C1078 1.339 . S
C1079 C1080 1.439 . S
C1079 H1108 0.950 . S
C1080 N1076 1.383 . S
C1080 C1079 1.439 . S
C1080 C1098 1.392 . S
N1081 Co1065 2.282 . S
N1081 C1084 1.332 . S
N1081 C1086 1.332 . S
C1082 C1083 1.386 . S
C1082 C1085 1.388 . S
C1083 C1082 1.386 . S
C1083 C1084 1.382 . S
C1083 H1109 0.950 . S
C1084 N1081 1.332 . S
C1084 C1083 1.382 . S
C1084 H1095 0.952 . S
C1085 C1082 1.388 . S
C1085 C1086 1.382 . S
C1085 H1110 0.950 . S
C1086 N1081 1.332 . S
C1086 C1085 1.382 . S
C1086 H1096 0.948 . S
N1087 Co1065 2.282 . S
N1087 C1091 1.332 . S
N1087 C1092 1.332 . S
C1088 C1089 1.388 . S
C1088 C1092 1.382 . S
C1088 H1111 0.950 . S
C1089 C1088 1.388 . S
C1089 C1090 1.386 . S
C1090 C1089 1.386 . S
C1090 C1091 1.382 . S
C1090 H1112 0.950 . S
C1091 N1087 1.332 . S
C1091 C1090 1.382 . S
C1091 H1093 0.952 . S
C1092 N1087 1.332 . S
C1092 C1088 1.382 . S
C1092 H1094 0.948 . S
H1093 C1091 0.952 . S
H1094 C1092 0.948 . S
H1095 C1084 0.952 . S
H1096 C1086 0.948 . S
C1097 C1063 1.395 . S
C1097 C1067 1.391 . S
C1098 C1060 1.389 . S
C1098 C1080 1.392 . S
C1099 C1070 1.392 . S
C1099 C1072 1.389 . S
C1100 C1075 1.395 . S
C1100 C1077 1.391 . S
H1101 C1061 0.951 . S
H1102 C1062 0.950 . S
H1103 C1068 0.949 . S
H1104 C1069 0.950 . S
H1105 C1073 0.951 . S
H1106 C1074 0.950 . S
H1107 C1078 0.949 . S
H1108 C1079 0.950 . S
H1109 C1083 0.950 . S
H1110 C1085 0.950 . S
H1111 C1088 0.950 . S
H1112 C1090 0.950 . S
C1113 C1114 1.443 . S
C1113 N1117 1.376 . S
C1113 C1151 1.389 . S
C1114 C1113 1.443 . S
C1114 C1115 1.340 . S
C1114 H1154 0.951 . S
C1115 C1114 1.340 . S
C1115 C1116 1.439 . S
C1115 H1155 0.950 . S
C1116 C1115 1.439 . S
C1116 N1117 1.374 . S
C1116 C1150 1.395 . S
N1117 C1113 1.376 . S
N1117 C1116 1.374 . S
N1117 Co1118 2.008 . S
Co1118 N1117 2.008 . S
Co1118 N1119 1.995 . S
Co1118 N1124 2.008 . S
Co1118 N1129 1.995 . S
Co1118 N1134 2.282 . S
Co1118 N1140 2.282 . S
N1119 Co1118 1.995 . S
N1119 C1120 1.376 . S
N1119 C1123 1.383 . S
C1120 N1119 1.376 . S
C1120 C1121 1.446 . S
C1120 C1150 1.391 . S
C1121 C1120 1.446 . S
C1121 C1122 1.339 . S
C1121 H1156 0.949 . S
C1122 C1121 1.339 . S
C1122 C1123 1.439 . S
C1122 H1157 0.950 . S
C1123 N1119 1.383 . S
C1123 C1122 1.439 . S
C1123 C1152 1.392 . S
N1124 Co1118 2.008 . S
N1124 C1125 1.376 . S
N1124 C1128 1.374 . S
C1125 N1124 1.376 . S
C1125 C1126 1.443 . S
C1125 C1152 1.389 . S
C1126 C1125 1.443 . S
C1126 C1127 1.340 . S
C1126 H1158 0.951 . S
C1127 C1126 1.340 . S
C1127 C1128 1.439 . S
C1127 H1159 0.950 . S
C1128 N1124 1.374 . S
C1128 C1127 1.439 . S
C1128 C1153 1.395 . S
N1129 Co1118 1.995 . S
N1129 C1130 1.376 . S
N1129 C1133 1.383 . S
C1130 N1129 1.376 . S
C1130 C1131 1.446 . S
C1130 C1153 1.391 . S
C1131 C1130 1.446 . S
C1131 C1132 1.339 . S
C1131 H1160 0.949 . S
C1132 C1131 1.339 . S
C1132 C1133 1.439 . S
C1132 H1161 0.950 . S
C1133 N1129 1.383 . S
C1133 C1132 1.439 . S
C1133 C1151 1.392 . S
N1134 Co1118 2.282 . S
N1134 C1137 1.332 . S
N1134 C1139 1.332 . S
C1135 C1136 1.386 . S
C1135 C1138 1.388 . S
C1136 C1135 1.386 . S
C1136 C1137 1.382 . S
C1136 H1162 0.950 . S
C1137 N1134 1.332 . S
C1137 C1136 1.382 . S
C1137 H1148 0.952 . S
C1138 C1135 1.388 . S
C1138 C1139 1.382 . S
C1138 H1163 0.950 . S
C1139 N1134 1.332 . S
C1139 C1138 1.382 . S
C1139 H1149 0.948 . S
N1140 Co1118 2.282 . S
N1140 C1144 1.332 . S
N1140 C1145 1.332 . S
C1141 C1142 1.388 . S
C1141 C1145 1.382 . S
C1141 H1164 0.950 . S
C1142 C1141 1.388 . S
C1142 C1143 1.386 . S
C1143 C1142 1.386 . S
C1143 C1144 1.382 . S
C1143 H1165 0.950 . S
C1144 N1140 1.332 . S
C1144 C1143 1.382 . S
C1144 H1146 0.952 . S
C1145 N1140 1.332 . S
C1145 C1141 1.382 . S
C1145 H1147 0.948 . S
H1146 C1144 0.952 . S
H1147 C1145 0.948 . S
H1148 C1137 0.952 . S
H1149 C1139 0.948 . S
C1150 C1116 1.395 . S
C1150 C1120 1.391 . S
C1151 C1113 1.389 . S
C1151 C1133 1.392 . S
C1152 C1123 1.392 . S
C1152 C1125 1.389 . S
C1153 C1128 1.395 . S
C1153 C1130 1.391 . S
H1154 C1114 0.951 . S
H1155 C1115 0.950 . S
H1156 C1121 0.949 . S
H1157 C1122 0.950 . S
H1158 C1126 0.951 . S
H1159 C1127 0.950 . S
H1160 C1131 0.949 . S
H1161 C1132 0.950 . S
H1162 C1136 0.950 . S
H1163 C1138 0.950 . S
H1164 C1141 0.950 . S
H1165 C1143 0.950 . S
C1166 C1167 1.443 . S
C1166 N1170 1.376 . S
C1166 C1204 1.389 . S
C1167 C1166 1.443 . S
C1167 C1168 1.340 . S
C1167 H1207 0.951 . S
C1168 C1167 1.340 . S
C1168 C1169 1.439 . S
C1168 H1208 1.035 . S
C1169 C1168 1.439 . S
C1169 N1170 1.374 . S
C1169 C1203 1.395 . S
N1170 C1166 1.376 . S
N1170 C1169 1.374 . S
N1170 Co1171 2.008 . S
Co1171 N1170 2.008 . S
Co1171 N1172 1.995 . S
Co1171 N1177 2.008 . S
Co1171 N1182 1.995 . S
Co1171 N1187 2.282 . S
Co1171 N1193 2.282 . S
N1172 Co1171 1.995 . S
N1172 C1173 1.376 . S
N1172 C1176 1.383 . S
C1173 N1172 1.376 . S
C1173 C1174 1.446 . S
C1173 C1203 1.391 . S
C1174 C1173 1.446 . S
C1174 C1175 1.339 . S
C1174 H1209 0.949 . S
C1175 C1174 1.339 . S
C1175 C1176 1.439 . S
C1175 H1210 0.950 . S
C1176 N1172 1.383 . S
C1176 C1175 1.439 . S
C1176 C1205 1.392 . S
N1177 Co1171 2.008 . S
N1177 C1178 1.376 . S
N1177 C1181 1.374 . S
C1178 N1177 1.376 . S
C1178 C1179 1.443 . S
C1178 C1205 1.389 . S
C1179 C1178 1.443 . S
C1179 C1180 1.340 . S
C1179 H1211 0.951 . S
C1180 C1179 1.340 . S
C1180 C1181 1.439 . S
C1180 H1212 0.950 . S
C1181 N1177 1.374 . S
C1181 C1180 1.439 . S
C1181 C1206 1.395 . S
N1182 Co1171 1.995 . S
N1182 C1183 1.376 . S
N1182 C1186 1.383 . S
C1183 N1182 1.376 . S
C1183 C1184 1.446 . S
C1183 C1206 1.391 . S
C1184 C1183 1.446 . S
C1184 C1185 1.339 . S
C1184 H1213 0.949 . S
C1185 C1184 1.339 . S
C1185 C1186 1.439 . S
C1185 H1214 0.950 . S
C1186 N1182 1.383 . S
C1186 C1185 1.439 . S
C1186 C1204 1.392 . S
N1187 Co1171 2.282 . S
N1187 C1190 1.332 . S
N1187 C1192 1.332 . S
C1188 C1189 1.386 . S
C1188 C1191 1.388 . S
C1189 C1188 1.386 . S
C1189 C1190 1.382 . S
C1189 H1215 0.950 . S
C1190 N1187 1.332 . S
C1190 C1189 1.382 . S
C1190 H1201 0.952 . S
C1191 C1188 1.388 . S
C1191 C1192 1.382 . S
C1191 H1216 0.950 . S
C1192 N1187 1.332 . S
C1192 C1191 1.382 . S
C1192 H1202 0.948 . S
N1193 Co1171 2.282 . S
N1193 C1197 1.332 . S
N1193 C1198 1.332 . S
C1194 C1195 1.388 . S
C1194 C1198 1.382 . S
C1194 H1217 0.950 . S
C1195 C1194 1.388 . S
C1195 C1196 1.386 . S
C1196 C1195 1.386 . S
C1196 C1197 1.382 . S
C1196 H1218 0.950 1_545 S
C1197 N1193 1.332 . S
C1197 C1196 1.382 . S
C1197 H1199 0.952 . S
C1198 N1193 1.332 . S
C1198 C1194 1.382 . S
C1198 H1200 0.948 . S
H1199 C1197 0.952 . S
H1200 C1198 0.948 . S
H1201 C1190 0.952 . S
H1202 C1192 0.948 . S
C1203 C1169 1.395 . S
C1203 C1173 1.391 . S
C1204 C1166 1.389 . S
C1204 C1186 1.392 . S
C1205 C1176 1.392 . S
C1205 C1178 1.389 . S
C1206 C1181 1.395 . S
C1206 C1183 1.391 . S
H1207 C1167 0.951 . S
H1208 C1168 1.035 . S
H1209 C1174 0.949 . S
H1210 C1175 0.950 . S
H1211 C1179 0.951 . S
H1212 C1180 0.950 . S
H1213 C1184 0.949 . S
H1214 C1185 0.950 . S
H1215 C1189 0.950 . S
H1216 C1191 0.950 . S
H1217 C1194 0.950 . S
H1218 C1196 0.950 1_565 S
C1219 C1220 1.443 . S
C1219 N1223 1.376 . S
C1219 C1257 1.389 . S
C1220 C1219 1.443 . S
C1220 C1221 1.340 . S
C1220 H1260 0.951 . S
C1221 C1220 1.340 . S
C1221 C1222 1.439 . S
C1221 H1261 0.950 . S
C1222 C1221 1.439 . S
C1222 N1223 1.374 . S
C1222 C1256 1.395 . S
N1223 C1219 1.376 . S
N1223 C1222 1.374 . S
N1223 Co1224 2.008 . S
Co1224 N1223 2.008 . S
Co1224 N1225 1.995 . S
Co1224 N1230 2.008 . S
Co1224 N1235 1.995 . S
Co1224 N1240 2.282 . S
Co1224 N1246 2.282 . S
N1225 Co1224 1.995 . S
N1225 C1226 1.376 . S
N1225 C1229 1.383 . S
C1226 N1225 1.376 . S
C1226 C1227 1.446 . S
C1226 C1256 1.391 . S
C1227 C1226 1.446 . S
C1227 C1228 1.339 . S
C1227 H1262 0.949 . S
C1228 C1227 1.339 . S
C1228 C1229 1.439 . S
C1228 H1263 0.950 . S
C1229 N1225 1.383 . S
C1229 C1228 1.439 . S
C1229 C1258 1.392 . S
N1230 Co1224 2.008 . S
N1230 C1231 1.376 . S
N1230 C1234 1.374 . S
C1231 N1230 1.376 . S
C1231 C1232 1.443 1_655 S
C1231 C1258 1.389 . S
C1232 C1231 1.443 1_455 S
C1232 C1233 1.361 . S
C1232 H1264 0.951 . S
C1233 C1232 1.361 . S
C1233 C1234 1.400 1_455 S
C1233 H1265 0.966 . S
C1234 N1230 1.374 . S
C1234 C1233 1.400 1_655 S
C1234 C1259 1.395 . S
N1235 Co1224 1.995 . S
N1235 C1236 1.376 . S
N1235 C1239 1.383 . S
C1236 N1235 1.376 . S
C1236 C1237 1.446 . S
C1236 C1259 1.391 . S
C1237 C1236 1.446 . S
C1237 C1238 1.339 . S
C1237 H1266 0.949 . S
C1238 C1237 1.339 . S
C1238 C1239 1.439 . S
C1238 H1267 0.950 . S
C1239 N1235 1.383 . S
C1239 C1238 1.439 . S
C1239 C1257 1.392 . S
N1240 Co1224 2.282 . S
N1240 C1243 1.332 . S
N1240 C1245 1.332 . S
C1241 C1242 1.386 . S
C1241 C1244 1.388 . S
C1242 C1241 1.386 . S
C1242 C1243 1.382 . S
C1242 H1268 0.950 . S
C1243 N1240 1.332 . S
C1243 C1242 1.382 . S
C1243 H1254 0.952 . S
C1244 C1241 1.388 . S
C1244 C1245 1.382 . S
C1244 H1269 0.950 . S
C1245 N1240 1.332 . S
C1245 C1244 1.382 . S
C1245 H1255 0.948 . S
N1246 Co1224 2.282 . S
N1246 C1250 1.332 . S
N1246 C1251 1.332 . S
C1247 C1248 1.388 . S
C1247 C1251 1.382 . S
C1247 H1270 0.950 . S
C1248 C1247 1.388 . S
C1248 C1249 1.386 . S
C1249 C1248 1.386 . S
C1249 C1250 1.382 . S
C1249 H1271 0.950 . S
C1250 N1246 1.332 . S
C1250 C1249 1.382 . S
C1250 H1252 0.952 . S
C1251 N1246 1.332 . S
C1251 C1247 1.382 . S
C1251 H1253 0.948 . S
H1252 C1250 0.952 . S
H1253 C1251 0.948 . S
H1254 C1243 0.952 . S
H1255 C1245 0.948 . S
C1256 C1222 1.395 . S
C1256 C1226 1.391 . S
C1257 C1219 1.389 . S
C1257 C1239 1.392 . S
C1258 C1229 1.392 . S
C1258 C1231 1.389 . S
C1259 C1234 1.395 . S
C1259 C1236 1.391 . S
H1260 C1220 0.951 . S
H1261 C1221 0.950 . S
H1262 C1227 0.949 . S
H1263 C1228 0.950 . S
H1264 C1232 0.951 . S
H1265 C1233 0.966 . S
H1266 C1237 0.949 . S
H1267 C1238 0.950 . S
H1268 C1242 0.950 . S
H1269 C1244 0.950 . S
H1270 C1247 0.950 . S
H1271 C1249 0.950 . S
C1272 C1273 1.443 . S
C1272 N1276 1.376 . S
C1272 C1310 1.389 . S
C1273 C1272 1.443 . S
C1273 C1274 1.340 . S
C1273 H1313 0.951 . S
C1274 C1273 1.340 . S
C1274 C1275 1.439 . S
C1274 H1314 0.950 . S
C1275 C1274 1.439 . S
C1275 N1276 1.374 . S
C1275 C1309 1.395 . S
N1276 C1272 1.376 . S
N1276 C1275 1.374 . S
N1276 Co1277 2.008 . S
Co1277 N1276 2.008 . S
Co1277 N1278 1.995 . S
Co1277 N1283 2.008 . S
Co1277 N1288 1.995 . S
Co1277 N1293 2.282 . S
Co1277 N1299 2.282 . S
N1278 Co1277 1.995 . S
N1278 C1279 1.376 . S
N1278 C1282 1.383 . S
C1279 N1278 1.376 . S
C1279 C1280 1.446 . S
C1279 C1309 1.391 . S
C1280 C1279 1.446 . S
C1280 C1281 1.339 . S
C1280 H1315 0.949 . S
C1281 C1280 1.339 . S
C1281 C1282 1.439 . S
C1281 H1316 0.950 . S
C1282 N1278 1.383 . S
C1282 C1281 1.439 . S
C1282 C1311 1.392 . S
N1283 Co1277 2.008 . S
N1283 C1284 1.376 . S
N1283 C1287 1.374 . S
C1284 N1283 1.376 . S
C1284 C1285 1.443 . S
C1284 C1311 1.389 . S
C1285 C1284 1.443 . S
C1285 C1286 1.340 . S
C1285 H1317 0.951 . S
C1286 C1285 1.340 . S
C1286 C1287 1.439 . S
C1286 H1318 0.950 . S
C1287 N1283 1.374 . S
C1287 C1286 1.439 . S
C1287 C1312 1.395 . S
N1288 Co1277 1.995 . S
N1288 C1289 1.376 . S
N1288 C1292 1.383 . S
C1289 N1288 1.376 . S
C1289 C1290 1.446 . S
C1289 C1312 1.391 . S
C1290 C1289 1.446 . S
C1290 C1291 1.339 . S
C1290 H1319 0.949 . S
C1291 C1290 1.339 . S
C1291 C1292 1.439 . S
C1291 H1320 0.950 . S
C1292 N1288 1.383 . S
C1292 C1291 1.439 . S
C1292 C1310 1.392 . S
N1293 Co1277 2.282 . S
N1293 C1296 1.332 . S
N1293 C1298 1.332 . S
C1294 C1295 1.386 . S
C1294 C1297 1.388 . S
C1295 C1294 1.386 . S
C1295 C1296 1.382 . S
C1295 H1321 0.950 . S
C1296 N1293 1.332 . S
C1296 C1295 1.382 . S
C1296 H1307 0.952 . S
C1297 C1294 1.388 . S
C1297 C1298 1.382 . S
C1297 H1322 0.950 . S
C1298 N1293 1.332 . S
C1298 C1297 1.382 . S
C1298 H1308 0.948 . S
N1299 Co1277 2.282 . S
N1299 C1303 1.332 . S
N1299 C1304 1.332 . S
C1300 C1301 1.388 . S
C1300 C1304 1.382 . S
C1300 H1323 0.950 . S
C1301 C1300 1.388 . S
C1301 C1302 1.386 . S
C1302 C1301 1.386 . S
C1302 C1303 1.382 . S
C1302 H1324 0.950 . S
C1303 N1299 1.332 . S
C1303 C1302 1.382 . S
C1303 H1305 0.952 . S
C1304 N1299 1.332 . S
C1304 C1300 1.382 . S
C1304 H1306 0.948 . S
H1305 C1303 0.952 . S
H1306 C1304 0.948 . S
H1307 C1296 0.952 . S
H1308 C1298 0.948 . S
C1309 C1275 1.395 . S
C1309 C1279 1.391 . S
C1310 C1272 1.389 . S
C1310 C1292 1.392 . S
C1311 C1282 1.392 . S
C1311 C1284 1.389 . S
C1312 C1287 1.395 . S
C1312 C1289 1.391 . S
H1313 C1273 0.951 . S
H1314 C1274 0.950 . S
H1315 C1280 0.949 . S
H1316 C1281 0.950 . S
H1317 C1285 0.951 . S
H1318 C1286 0.950 . S
H1319 C1290 0.949 . S
H1320 C1291 0.950 . S
H1321 C1295 0.950 . S
H1322 C1297 0.950 . S
H1323 C1300 0.950 . S
H1324 C1302 0.950 . S
C1325 C1326 1.443 . S
C1325 N1329 1.376 . S
C1325 C1363 1.389 . S
C1326 C1325 1.443 . S
C1326 C1327 1.340 . S
C1326 H1366 0.951 . S
C1327 C1326 1.340 . S
C1327 C1328 1.439 . S
C1327 H1367 0.950 . S
C1328 C1327 1.439 . S
C1328 N1329 1.374 . S
C1328 C1362 1.395 . S
N1329 C1325 1.376 . S
N1329 C1328 1.374 . S
N1329 Co1330 2.008 . S
Co1330 N1329 2.008 . S
Co1330 N1331 1.995 . S
Co1330 N1336 2.008 . S
Co1330 N1341 1.995 . S
Co1330 N1346 2.282 . S
Co1330 N1352 2.282 . S
N1331 Co1330 1.995 . S
N1331 C1332 1.376 . S
N1331 C1335 1.383 . S
C1332 N1331 1.376 . S
C1332 C1333 1.446 . S
C1332 C1362 1.391 . S
C1333 C1332 1.446 . S
C1333 C1334 1.339 . S
C1333 H1368 0.949 1_655 S
C1334 C1333 1.339 . S
C1334 C1335 1.439 . S
C1334 H1369 0.950 . S
C1335 N1331 1.383 . S
C1335 C1334 1.439 . S
C1335 C1364 1.392 . S
N1336 Co1330 2.008 . S
N1336 C1337 1.376 . S
N1336 C1340 1.374 . S
C1337 N1336 1.376 . S
C1337 C1338 1.443 . S
C1337 C1364 1.389 . S
C1338 C1337 1.443 . S
C1338 C1339 1.340 . S
C1338 H1370 0.951 . S
C1339 C1338 1.340 . S
C1339 C1340 1.439 . S
C1339 H1371 0.950 . S
C1340 N1336 1.374 . S
C1340 C1339 1.439 . S
C1340 C1365 1.395 . S
N1341 Co1330 1.995 . S
N1341 C1342 1.376 . S
N1341 C1345 1.383 . S
C1342 N1341 1.376 . S
C1342 C1343 1.446 . S
C1342 C1365 1.391 . S
C1343 C1342 1.446 . S
C1343 C1344 1.339 . S
C1343 H1372 0.949 . S
C1344 C1343 1.339 . S
C1344 C1345 1.439 . S
C1344 H1373 0.950 . S
C1345 N1341 1.383 . S
C1345 C1344 1.439 . S
C1345 C1363 1.392 . S
N1346 Co1330 2.282 . S
N1346 C1349 1.332 . S
N1346 C1351 1.332 . S
C1347 C1348 1.386 . S
C1347 C1350 1.388 . S
C1348 C1347 1.386 . S
C1348 C1349 1.382 . S
C1348 H1374 0.950 . S
C1349 N1346 1.332 . S
C1349 C1348 1.382 . S
C1349 H1360 0.952 . S
C1350 C1347 1.388 . S
C1350 C1351 1.382 . S
C1350 H1375 0.950 . S
C1351 N1346 1.332 . S
C1351 C1350 1.382 . S
C1351 H1361 0.948 . S
N1352 Co1330 2.282 . S
N1352 C1356 1.332 . S
N1352 C1357 1.332 . S
C1353 C1354 1.388 . S
C1353 C1357 1.382 . S
C1353 H1376 0.950 . S
C1354 C1353 1.388 . S
C1354 C1355 1.386 . S
C1355 C1354 1.386 . S
C1355 C1356 1.382 . S
C1355 H1377 0.950 . S
C1356 N1352 1.332 . S
C1356 C1355 1.382 . S
C1356 H1358 0.952 . S
C1357 N1352 1.332 . S
C1357 C1353 1.382 . S
C1357 H1359 0.948 . S
H1358 C1356 0.952 . S
H1359 C1357 0.948 . S
H1360 C1349 0.952 . S
H1361 C1351 0.948 . S
C1362 C1328 1.395 . S
C1362 C1332 1.391 . S
C1363 C1325 1.389 . S
C1363 C1345 1.392 . S
C1364 C1335 1.392 . S
C1364 C1337 1.389 . S
C1365 C1340 1.395 . S
C1365 C1342 1.391 . S
H1366 C1326 0.951 . S
H1367 C1327 0.950 . S
H1368 C1333 0.949 1_455 S
H1369 C1334 0.950 . S
H1370 C1338 0.951 . S
H1371 C1339 0.950 . S
H1372 C1343 0.949 . S
H1373 C1344 0.950 . S
H1374 C1348 0.950 . S
H1375 C1350 0.950 . S
H1376 C1353 0.950 . S
H1377 C1355 0.950 . S
C1378 C1379 1.443 . S
C1378 N1382 1.376 . S
C1378 C1416 1.389 . S
C1379 C1378 1.443 . S
C1379 C1380 1.340 . S
C1379 H1419 0.951 . S
C1380 C1379 1.340 . S
C1380 C1381 1.439 . S
C1380 H1420 0.950 . S
C1381 C1380 1.439 . S
C1381 N1382 1.374 . S
C1381 C1415 1.395 . S
N1382 C1378 1.376 . S
N1382 C1381 1.374 . S
N1382 Co1383 2.008 . S
Co1383 N1382 2.008 . S
Co1383 N1384 1.995 . S
Co1383 N1389 2.008 . S
Co1383 N1394 1.995 . S
Co1383 N1399 2.282 . S
Co1383 N1405 2.282 . S
N1384 Co1383 1.995 . S
N1384 C1385 1.376 . S
N1384 C1388 1.383 . S
C1385 N1384 1.376 . S
C1385 C1386 1.446 . S
C1385 C1415 1.391 . S
C1386 C1385 1.446 . S
C1386 C1387 1.339 . S
C1386 H1421 0.949 . S
C1387 C1386 1.339 . S
C1387 C1388 1.439 . S
C1387 H1422 0.950 . S
C1388 N1384 1.383 . S
C1388 C1387 1.439 . S
C1388 C1417 1.392 . S
N1389 Co1383 2.008 . S
N1389 C1390 1.376 . S
N1389 C1393 1.374 . S
C1390 N1389 1.376 . S
C1390 C1391 1.443 . S
C1390 C1417 1.389 . S
C1391 C1390 1.443 . S
C1391 C1392 1.340 . S
C1391 H1423 0.951 . S
C1392 C1391 1.340 . S
C1392 C1393 1.439 . S
C1392 H1424 0.950 . S
C1393 N1389 1.374 . S
C1393 C1392 1.439 . S
C1393 C1418 1.395 . S
N1394 Co1383 1.995 . S
N1394 C1395 1.376 . S
N1394 C1398 1.383 . S
C1395 N1394 1.376 . S
C1395 C1396 1.446 . S
C1395 C1418 1.391 . S
C1396 C1395 1.446 . S
C1396 C1397 1.339 . S
C1396 H1425 0.949 . S
C1397 C1396 1.339 . S
C1397 C1398 1.439 . S
C1397 H1426 0.950 . S
C1398 N1394 1.383 . S
C1398 C1397 1.439 . S
C1398 C1416 1.392 . S
N1399 Co1383 2.282 . S
N1399 C1402 1.332 . S
N1399 C1404 1.332 . S
C1400 C1401 1.386 . S
C1400 C1403 1.388 . S
C1401 C1400 1.386 . S
C1401 C1402 1.382 . S
C1401 H1427 0.950 . S
C1402 N1399 1.332 . S
C1402 C1401 1.382 . S
C1402 H1413 0.952 . S
C1403 C1400 1.388 . S
C1403 C1404 1.382 . S
C1403 H1428 0.950 . S
C1404 N1399 1.332 . S
C1404 C1403 1.382 . S
C1404 H1414 0.948 . S
N1405 Co1383 2.282 . S
N1405 C1409 1.332 . S
N1405 C1410 1.332 . S
C1406 C1407 1.388 . S
C1406 C1410 1.382 . S
C1406 H1429 0.950 . S
C1407 C1406 1.388 . S
C1407 C1408 1.386 . S
C1408 C1407 1.386 . S
C1408 C1409 1.382 . S
C1408 H1430 0.950 . S
C1409 N1405 1.332 . S
C1409 C1408 1.382 . S
C1409 H1411 0.952 . S
C1410 N1405 1.332 . S
C1410 C1406 1.382 . S
C1410 H1412 0.948 . S
H1411 C1409 0.952 . S
H1412 C1410 0.948 . S
H1413 C1402 0.952 . S
H1414 C1404 0.948 . S
C1415 C1381 1.395 . S
C1415 C1385 1.391 . S
C1416 C1378 1.389 . S
C1416 C1398 1.392 . S
C1417 C1388 1.392 . S
C1417 C1390 1.389 . S
C1418 C1393 1.395 . S
C1418 C1395 1.391 . S
H1419 C1379 0.951 . S
H1420 C1380 0.950 . S
H1421 C1386 0.949 . S
H1422 C1387 0.950 . S
H1423 C1391 0.951 . S
H1424 C1392 0.950 . S
H1425 C1396 0.949 . S
H1426 C1397 0.950 . S
H1427 C1401 0.950 . S
H1428 C1403 0.950 . S
H1429 C1406 0.950 . S
H1430 C1408 0.950 . S
C1431 C1432 1.443 . S
C1431 N1435 1.376 . S
C1431 C1469 1.389 . S
C1432 C1431 1.443 . S
C1432 C1433 1.340 . S
C1432 H1472 0.951 . S
C1433 C1432 1.340 . S
C1433 C1434 1.439 . S
C1433 H1473 0.950 . S
C1434 C1433 1.439 . S
C1434 N1435 1.374 . S
C1434 C1468 1.395 . S
N1435 C1431 1.376 . S
N1435 C1434 1.374 . S
N1435 Co1436 2.008 . S
Co1436 N1435 2.008 . S
Co1436 N1437 1.995 . S
Co1436 N1442 2.008 . S
Co1436 N1447 1.995 . S
Co1436 N1452 2.282 . S
Co1436 N1458 2.282 . S
N1437 Co1436 1.995 . S
N1437 C1438 1.376 . S
N1437 C1441 1.383 . S
C1438 N1437 1.376 . S
C1438 C1439 1.446 . S
C1438 C1468 1.391 . S
C1439 C1438 1.446 . S
C1439 C1440 1.339 . S
C1439 H1474 0.949 . S
C1440 C1439 1.339 . S
C1440 C1441 1.439 . S
C1440 H1475 0.950 . S
C1441 N1437 1.383 . S
C1441 C1440 1.439 . S
C1441 C1470 1.392 . S
N1442 Co1436 2.008 . S
N1442 C1443 1.376 . S
N1442 C1446 1.374 . S
C1443 N1442 1.376 . S
C1443 C1444 1.443 . S
C1443 C1470 1.389 . S
C1444 C1443 1.443 . S
C1444 C1445 1.340 . S
C1444 H1476 0.951 . S
C1445 C1444 1.340 . S
C1445 C1446 1.439 . S
C1445 H1477 0.950 . S
C1446 N1442 1.374 . S
C1446 C1445 1.439 . S
C1446 C1471 1.395 . S
N1447 Co1436 1.995 . S
N1447 C1448 1.376 . S
N1447 C1451 1.383 . S
C1448 N1447 1.376 . S
C1448 C1449 1.446 . S
C1448 C1471 1.391 . S
C1449 C1448 1.446 . S
C1449 C1450 1.339 . S
C1449 H1478 0.949 . S
C1450 C1449 1.339 . S
C1450 C1451 1.439 . S
C1450 H1479 0.950 . S
C1451 N1447 1.383 . S
C1451 C1450 1.439 . S
C1451 C1469 1.392 . S
N1452 Co1436 2.282 . S
N1452 C1455 1.332 . S
N1452 C1457 1.332 . S
C1453 C1454 1.386 . S
C1453 C1456 1.388 . S
C1454 C1453 1.386 . S
C1454 C1455 1.382 . S
C1454 H1480 0.950 . S
C1455 N1452 1.332 . S
C1455 C1454 1.382 . S
C1455 H1466 0.952 . S
C1456 C1453 1.388 . S
C1456 C1457 1.382 . S
C1456 H1481 0.950 . S
C1457 N1452 1.332 . S
C1457 C1456 1.382 . S
C1457 H1467 0.948 . S
N1458 Co1436 2.282 . S
N1458 C1462 1.332 . S
N1458 C1463 1.332 . S
C1459 C1460 1.388 . S
C1459 C1463 1.382 . S
C1459 H1482 0.950 . S
C1460 C1459 1.388 . S
C1460 C1461 1.386 . S
C1461 C1460 1.386 . S
C1461 C1462 1.382 . S
C1461 H1483 0.950 . S
C1462 N1458 1.332 . S
C1462 C1461 1.382 . S
C1462 H1464 0.952 . S
C1463 N1458 1.332 . S
C1463 C1459 1.382 . S
C1463 H1465 0.948 . S
H1464 C1462 0.952 . S
H1465 C1463 0.948 . S
H1466 C1455 0.952 . S
H1467 C1457 0.948 . S
C1468 C1434 1.395 . S
C1468 C1438 1.391 . S
C1469 C1431 1.389 . S
C1469 C1451 1.392 . S
C1470 C1441 1.392 . S
C1470 C1443 1.389 . S
C1471 C1446 1.395 . S
C1471 C1448 1.391 . S
H1472 C1432 0.951 . S
H1473 C1433 0.950 . S
H1474 C1439 0.949 . S
H1475 C1440 0.950 . S
H1476 C1444 0.951 . S
H1477 C1445 0.950 . S
H1478 C1449 0.949 . S
H1479 C1450 0.950 . S
H1480 C1454 0.950 . S
H1481 C1456 0.950 . S
H1482 C1459 0.950 . S
H1483 C1461 0.950 . S
C1484 C1485 1.443 . S
C1484 N1488 1.376 . S
C1484 C1522 1.389 . S
C1485 C1484 1.443 . S
C1485 C1486 1.340 . S
C1485 H1525 0.951 . S
C1486 C1485 1.340 . S
C1486 C1487 1.439 . S
C1486 H1526 0.950 . S
C1487 C1486 1.439 . S
C1487 N1488 1.374 . S
C1487 C1521 1.395 . S
N1488 C1484 1.376 . S
N1488 C1487 1.374 . S
N1488 Co1489 2.008 . S
Co1489 N1488 2.008 . S
Co1489 N1490 1.995 . S
Co1489 N1495 2.008 . S
Co1489 N1500 1.995 . S
Co1489 N1505 2.282 . S
Co1489 N1511 2.282 . S
N1490 Co1489 1.995 . S
N1490 C1491 1.376 . S
N1490 C1494 1.383 . S
C1491 N1490 1.376 . S
C1491 C1492 1.446 . S
C1491 C1521 1.391 . S
C1492 C1491 1.446 . S
C1492 C1493 1.339 . S
C1492 H1527 0.949 . S
C1493 C1492 1.339 . S
C1493 C1494 1.439 . S
C1493 H1528 0.950 . S
C1494 N1490 1.383 . S
C1494 C1493 1.439 . S
C1494 C1523 1.392 . S
N1495 Co1489 2.008 . S
N1495 C1496 1.376 . S
N1495 C1499 1.374 . S
C1496 N1495 1.376 . S
C1496 C1497 1.443 . S
C1496 C1523 1.389 . S
C1497 C1496 1.443 . S
C1497 C1498 1.340 . S
C1497 H1529 0.951 . S
C1498 C1497 1.340 . S
C1498 C1499 1.439 . S
C1498 H1530 0.950 . S
C1499 N1495 1.374 . S
C1499 C1498 1.439 . S
C1499 C1524 1.395 . S
N1500 Co1489 1.995 . S
N1500 C1501 1.376 . S
N1500 C1504 1.383 . S
C1501 N1500 1.376 . S
C1501 C1502 1.446 . S
C1501 C1524 1.391 . S
C1502 C1501 1.446 . S
C1502 C1503 1.339 . S
C1502 H1531 0.949 . S
C1503 C1502 1.339 . S
C1503 C1504 1.439 . S
C1503 H1532 0.950 . S
C1504 N1500 1.383 . S
C1504 C1503 1.439 . S
C1504 C1522 1.392 . S
N1505 Co1489 2.282 . S
N1505 C1508 1.332 . S
N1505 C1510 1.332 . S
C1506 C1507 1.386 . S
C1506 C1509 1.388 . S
C1507 C1506 1.386 . S
C1507 C1508 1.382 . S
C1507 H1533 0.950 . S
C1508 N1505 1.332 . S
C1508 C1507 1.382 . S
C1508 H1519 0.952 . S
C1509 C1506 1.388 . S
C1509 C1510 1.382 . S
C1509 H1534 0.950 . S
C1510 N1505 1.332 . S
C1510 C1509 1.382 . S
C1510 H1520 0.948 . S
N1511 Co1489 2.282 . S
N1511 C1515 1.332 . S
N1511 C1516 1.332 . S
C1512 C1513 1.436 . S
C1512 C1516 1.410 . S
C1512 H1535 0.879 1_565 S
C1513 C1512 1.436 . S
C1513 C1514 1.386 . S
C1514 C1513 1.386 . S
C1514 C1515 1.382 . S
C1514 H1536 0.950 . S
C1515 N1511 1.332 . S
C1515 C1514 1.382 . S
C1515 H1517 0.952 . S
C1516 N1511 1.332 . S
C1516 C1512 1.410 . S
C1516 H1518 0.948 . S
H1517 C1515 0.952 . S
H1518 C1516 0.948 . S
H1519 C1508 0.952 . S
H1520 C1510 0.948 . S
C1521 C1487 1.395 . S
C1521 C1491 1.391 . S
C1522 C1484 1.389 . S
C1522 C1504 1.392 . S
C1523 C1494 1.392 . S
C1523 C1496 1.389 . S
C1524 C1499 1.395 . S
C1524 C1501 1.391 . S
H1525 C1485 0.951 . S
H1526 C1486 0.950 . S
H1527 C1492 0.949 . S
H1528 C1493 0.950 . S
H1529 C1497 0.951 . S
H1530 C1498 0.950 . S
H1531 C1502 0.949 . S
H1532 C1503 0.950 . S
H1533 C1507 0.950 . S
H1534 C1509 0.950 . S
H1535 C1512 0.879 1_545 S
H1536 C1514 0.950 . S
C1537 C1538 1.443 . S
C1537 N1541 1.376 . S
C1537 C1575 1.389 . S
C1538 C1537 1.443 . S
C1538 C1539 1.340 . S
C1538 H1578 0.951 . S
C1539 C1538 1.340 . S
C1539 C1540 1.439 . S
C1539 H1579 0.950 . S
C1540 C1539 1.439 . S
C1540 N1541 1.374 . S
C1540 C1574 1.395 . S
N1541 C1537 1.376 . S
N1541 C1540 1.374 . S
N1541 Co1542 2.008 . S
Co1542 N1541 2.008 . S
Co1542 N1543 1.995 . S
Co1542 N1548 2.008 . S
Co1542 N1553 1.995 . S
Co1542 N1558 2.282 . S
Co1542 N1564 2.282 . S
N1543 Co1542 1.995 . S
N1543 C1544 1.376 . S
N1543 C1547 1.383 . S
C1544 N1543 1.376 . S
C1544 C1545 1.446 . S
C1544 C1574 1.391 . S
C1545 C1544 1.446 . S
C1545 C1546 1.339 . S
C1545 H1580 0.949 . S
C1546 C1545 1.339 . S
C1546 C1547 1.439 . S
C1546 H1581 0.950 . S
C1547 N1543 1.383 . S
C1547 C1546 1.439 . S
C1547 C1576 1.392 . S
N1548 Co1542 2.008 . S
N1548 C1549 1.376 . S
N1548 C1552 1.374 . S
C1549 N1548 1.376 . S
C1549 C1550 1.443 . S
C1549 C1576 1.389 . S
C1550 C1549 1.443 . S
C1550 C1551 1.340 . S
C1550 H1582 0.951 . S
C1551 C1550 1.340 . S
C1551 C1552 1.439 . S
C1551 H1583 0.950 . S
C1552 N1548 1.374 . S
C1552 C1551 1.439 . S
C1552 C1577 1.395 . S
N1553 Co1542 1.995 . S
N1553 C1554 1.376 . S
N1553 C1557 1.383 . S
C1554 N1553 1.376 . S
C1554 C1555 1.446 . S
C1554 C1577 1.391 . S
C1555 C1554 1.446 . S
C1555 C1556 1.339 . S
C1555 H1584 0.949 . S
C1556 C1555 1.339 . S
C1556 C1557 1.439 . S
C1556 H1585 0.950 . S
C1557 N1553 1.383 . S
C1557 C1556 1.439 . S
C1557 C1575 1.392 . S
N1558 Co1542 2.282 . S
N1558 C1561 1.332 . S
N1558 C1563 1.332 . S
C1559 C1560 1.386 . S
C1559 C1562 1.388 . S
C1560 C1559 1.386 . S
C1560 C1561 1.382 . S
C1560 H1586 0.950 . S
C1561 N1558 1.332 . S
C1561 C1560 1.382 . S
C1561 H1572 0.952 . S
C1562 C1559 1.388 . S
C1562 C1563 1.382 . S
C1562 H1587 0.950 . S
C1563 N1558 1.332 . S
C1563 C1562 1.382 . S
C1563 H1573 0.948 . S
N1564 Co1542 2.282 . S
N1564 C1568 1.332 . S
N1564 C1569 1.332 . S
C1565 C1566 1.388 . S
C1565 C1569 1.382 . S
C1565 H1588 0.950 1_455 S
C1566 C1565 1.388 . S
C1566 C1567 1.386 . S
C1567 C1566 1.386 . S
C1567 C1568 1.382 . S
C1567 H1589 0.950 . S
C1568 N1564 1.332 . S
C1568 C1567 1.382 . S
C1568 H1570 0.952 . S
C1569 N1564 1.332 . S
C1569 C1565 1.382 . S
C1569 H1571 0.948 . S
H1570 C1568 0.952 . S
H1571 C1569 0.948 . S
H1572 C1561 0.952 . S
H1573 C1563 0.948 . S
C1574 C1540 1.395 . S
C1574 C1544 1.391 . S
C1575 C1537 1.389 . S
C1575 C1557 1.392 . S
C1576 C1547 1.392 . S
C1576 C1549 1.389 . S
C1577 C1552 1.395 . S
C1577 C1554 1.391 . S
H1578 C1538 0.951 . S
H1579 C1539 0.950 . S
H1580 C1545 0.949 . S
H1581 C1546 0.950 . S
H1582 C1550 0.951 . S
H1583 C1551 0.950 . S
H1584 C1555 0.949 . S
H1585 C1556 0.950 . S
H1586 C1560 0.950 . S
H1587 C1562 0.950 . S
H1588 C1565 0.950 1_655 S
H1589 C1567 0.950 . S
C1590 C1591 1.443 . S
C1590 N1594 1.376 . S
C1590 C1628 1.389 . S
C1591 C1590 1.443 . S
C1591 C1592 1.340 . S
C1591 H1631 0.951 . S
C1592 C1591 1.340 . S
C1592 C1593 1.439 . S
C1592 H1632 0.950 . S
C1593 C1592 1.439 . S
C1593 N1594 1.374 . S
C1593 C1627 1.395 . S
N1594 C1590 1.376 . S
N1594 C1593 1.374 . S
N1594 Co1595 2.008 . S
Co1595 N1594 2.008 . S
Co1595 N1596 1.995 . S
Co1595 N1601 2.008 . S
Co1595 N1606 1.995 . S
Co1595 N1611 2.282 . S
Co1595 N1617 2.282 . S
N1596 Co1595 1.995 . S
N1596 C1597 1.376 . S
N1596 C1600 1.383 . S
C1597 N1596 1.376 . S
C1597 C1598 1.446 . S
C1597 C1627 1.391 . S
C1598 C1597 1.446 . S
C1598 C1599 1.339 . S
C1598 H1633 0.949 . S
C1599 C1598 1.339 . S
C1599 C1600 1.439 . S
C1599 H1634 0.950 . S
C1600 N1596 1.383 . S
C1600 C1599 1.439 . S
C1600 C1629 1.392 . S
N1601 Co1595 2.008 . S
N1601 C1602 1.376 . S
N1601 C1605 1.374 . S
C1602 N1601 1.376 . S
C1602 C1603 1.443 . S
C1602 C1629 1.389 . S
C1603 C1602 1.443 . S
C1603 C1604 1.340 . S
C1603 H1635 0.951 . S
C1604 C1603 1.340 . S
C1604 C1605 1.439 . S
C1604 H1636 0.950 . S
C1605 N1601 1.374 . S
C1605 C1604 1.439 . S
C1605 C1630 1.395 . S
N1606 Co1595 1.995 . S
N1606 C1607 1.376 . S
N1606 C1610 1.383 . S
C1607 N1606 1.376 . S
C1607 C1608 1.446 . S
C1607 C1630 1.391 . S
C1608 C1607 1.446 . S
C1608 C1609 1.339 . S
C1608 H1637 0.949 . S
C1609 C1608 1.339 . S
C1609 C1610 1.439 . S
C1609 H1638 0.950 . S
C1610 N1606 1.383 . S
C1610 C1609 1.439 . S
C1610 C1628 1.392 . S
N1611 Co1595 2.282 . S
N1611 C1614 1.332 . S
N1611 C1616 1.332 . S
C1612 C1613 1.386 . S
C1612 C1615 1.388 . S
C1613 C1612 1.386 . S
C1613 C1614 1.382 . S
C1613 H1639 0.950 . S
C1614 N1611 1.332 . S
C1614 C1613 1.382 . S
C1614 H1625 0.952 . S
C1615 C1612 1.388 . S
C1615 C1616 1.382 . S
C1615 H1640 0.950 . S
C1616 N1611 1.332 . S
C1616 C1615 1.382 . S
C1616 H1626 0.948 . S
N1617 Co1595 2.282 . S
N1617 C1621 1.332 . S
N1617 C1622 1.332 . S
C1618 C1619 1.388 . S
C1618 C1622 1.382 . S
C1618 H1641 0.950 . S
C1619 C1618 1.388 . S
C1619 C1620 1.386 . S
C1620 C1619 1.386 . S
C1620 C1621 1.382 . S
C1620 H1642 0.950 . S
C1621 N1617 1.332 . S
C1621 C1620 1.382 . S
C1621 H1623 0.952 . S
C1622 N1617 1.332 . S
C1622 C1618 1.382 . S
C1622 H1624 0.948 . S
H1623 C1621 0.952 . S
H1624 C1622 0.948 . S
H1625 C1614 0.952 . S
H1626 C1616 0.948 . S
C1627 C1593 1.395 . S
C1627 C1597 1.391 . S
C1628 C1590 1.389 . S
C1628 C1610 1.392 . S
C1629 C1600 1.392 . S
C1629 C1602 1.389 . S
C1630 C1605 1.395 . S
C1630 C1607 1.391 . S
H1631 C1591 0.951 . S
H1632 C1592 0.950 . S
H1633 C1598 0.949 . S
H1634 C1599 0.950 . S
H1635 C1603 0.951 . S
H1636 C1604 0.950 . S
H1637 C1608 0.949 . S
H1638 C1609 0.950 . S
H1639 C1613 0.950 . S
H1640 C1615 0.950 . S
H1641 C1618 0.950 . S
H1642 C1620 0.950 . S
C1643 C1644 1.443 . S
C1643 N1647 1.376 . S
C1643 C1681 1.389 . S
C1644 C1643 1.443 . S
C1644 C1645 1.340 . S
C1644 H1684 0.951 . S
C1645 C1644 1.340 . S
C1645 C1646 1.439 . S
C1645 H1685 0.988 . S
C1646 C1645 1.439 . S
C1646 N1647 1.374 . S
C1646 C1680 1.395 . S
N1647 C1643 1.376 . S
N1647 C1646 1.374 . S
N1647 Co1648 2.008 . S
Co1648 N1647 2.008 . S
Co1648 N1649 1.995 . S
Co1648 N1654 2.008 . S
Co1648 N1659 1.995 . S
Co1648 N1664 2.282 . S
Co1648 N1670 2.282 . S
N1649 Co1648 1.995 . S
N1649 C1650 1.376 . S
N1649 C1653 1.383 . S
C1650 N1649 1.376 . S
C1650 C1651 1.446 . S
C1650 C1680 1.391 . S
C1651 C1650 1.446 . S
C1651 C1652 1.339 . S
C1651 H1686 0.949 . S
C1652 C1651 1.339 . S
C1652 C1653 1.439 . S
C1652 H1687 0.950 . S
C1653 N1649 1.383 . S
C1653 C1652 1.439 . S
C1653 C1682 1.392 . S
N1654 Co1648 2.008 . S
N1654 C1655 1.376 . S
N1654 C1658 1.374 . S
C1655 N1654 1.376 . S
C1655 C1656 1.443 . S
C1655 C1682 1.389 . S
C1656 C1655 1.443 . S
C1656 C1657 1.340 . S
C1656 H1688 0.951 . S
C1657 C1656 1.340 . S
C1657 C1658 1.439 . S
C1657 H1689 0.950 . S
C1658 N1654 1.374 . S
C1658 C1657 1.439 . S
C1658 C1683 1.395 . S
N1659 Co1648 1.995 . S
N1659 C1660 1.376 . S
N1659 C1663 1.383 . S
C1660 N1659 1.376 . S
C1660 C1661 1.446 . S
C1660 C1683 1.391 . S
C1661 C1660 1.446 . S
C1661 C1662 1.339 . S
C1661 H1690 0.949 . S
C1662 C1661 1.339 . S
C1662 C1663 1.439 . S
C1662 H1691 0.950 . S
C1663 N1659 1.383 . S
C1663 C1662 1.439 . S
C1663 C1681 1.392 . S
N1664 Co1648 2.282 . S
N1664 C1667 1.332 . S
N1664 C1669 1.332 . S
C1665 C1666 1.386 . S
C1665 C1668 1.388 . S
C1666 C1665 1.386 . S
C1666 C1667 1.382 . S
C1666 H1692 0.950 . S
C1667 N1664 1.332 . S
C1667 C1666 1.382 . S
C1667 H1678 0.952 . S
C1668 C1665 1.388 . S
C1668 C1669 1.382 . S
C1668 H1693 0.950 . S
C1669 N1664 1.332 . S
C1669 C1668 1.382 . S
C1669 H1679 0.948 . S
N1670 Co1648 2.282 . S
N1670 C1674 1.332 . S
N1670 C1675 1.332 . S
C1671 C1672 1.388 . S
C1671 C1675 1.382 . S
C1671 H1694 0.950 . S
C1672 C1671 1.388 . S
C1672 C1673 1.386 . S
C1673 C1672 1.386 . S
C1673 C1674 1.382 . S
C1673 H1695 0.950 1_565 S
C1674 N1670 1.332 . S
C1674 C1673 1.382 . S
C1674 H1676 0.952 . S
C1675 N1670 1.332 . S
C1675 C1671 1.382 . S
C1675 H1677 0.948 . S
H1676 C1674 0.952 . S
H1677 C1675 0.948 . S
H1678 C1667 0.952 . S
H1679 C1669 0.948 . S
C1680 C1646 1.395 . S
C1680 C1650 1.391 . S
C1681 C1643 1.389 . S
C1681 C1663 1.392 . S
C1682 C1653 1.392 . S
C1682 C1655 1.389 . S
C1683 C1658 1.395 . S
C1683 C1660 1.391 . S
H1684 C1644 0.951 . S
H1685 C1645 0.988 . S
H1686 C1651 0.949 . S
H1687 C1652 0.950 . S
H1688 C1656 0.951 . S
H1689 C1657 0.950 . S
H1690 C1661 0.949 . S
H1691 C1662 0.950 . S
H1692 C1666 0.950 . S
H1693 C1668 0.950 . S
H1694 C1671 0.950 . S
H1695 C1673 0.950 1_545 S
C1696 C1697 1.443 . S
C1696 N1700 1.376 . S
C1696 C1734 1.389 . S
C1697 C1696 1.443 . S
C1697 C1698 1.340 . S
C1697 H1737 0.951 . S
C1698 C1697 1.340 . S
C1698 C1699 1.439 . S
C1698 H1738 0.950 1_455 S
C1699 C1698 1.439 . S
C1699 N1700 1.374 . S
C1699 C1733 1.395 . S
N1700 C1696 1.376 . S
N1700 C1699 1.374 . S
N1700 Co1701 2.008 . S
Co1701 N1700 2.008 . S
Co1701 N1702 1.995 . S
Co1701 N1707 2.008 . S
Co1701 N1712 1.995 . S
Co1701 N1717 2.282 . S
Co1701 N1723 2.282 . S
N1702 Co1701 1.995 . S
N1702 C1703 1.376 . S
N1702 C1706 1.383 . S
C1703 N1702 1.376 . S
C1703 C1704 1.446 . S
C1703 C1733 1.391 . S
C1704 C1703 1.446 . S
C1704 C1705 1.339 . S
C1704 H1739 0.949 . S
C1705 C1704 1.339 . S
C1705 C1706 1.439 . S
C1705 H1740 0.950 . S
C1706 N1702 1.383 . S
C1706 C1705 1.439 . S
C1706 C1735 1.392 . S
N1707 Co1701 2.008 . S
N1707 C1708 1.376 . S
N1707 C1711 1.374 . S
C1708 N1707 1.376 . S
C1708 C1709 1.443 . S
C1708 C1735 1.389 . S
C1709 C1708 1.443 . S
C1709 C1710 1.340 . S
C1709 H1741 0.951 . S
C1710 C1709 1.340 . S
C1710 C1711 1.439 . S
C1710 H1742 0.950 . S
C1711 N1707 1.374 . S
C1711 C1710 1.439 . S
C1711 C1736 1.395 . S
N1712 Co1701 1.995 . S
N1712 C1713 1.376 . S
N1712 C1716 1.383 . S
C1713 N1712 1.376 . S
C1713 C1714 1.446 . S
C1713 C1736 1.391 . S
C1714 C1713 1.446 . S
C1714 C1715 1.339 . S
C1714 H1743 0.949 . S
C1715 C1714 1.339 . S
C1715 C1716 1.439 . S
C1715 H1744 0.950 . S
C1716 N1712 1.383 . S
C1716 C1715 1.439 . S
C1716 C1734 1.392 . S
N1717 Co1701 2.282 . S
N1717 C1720 1.332 . S
N1717 C1722 1.332 . S
C1718 C1719 1.386 . S
C1718 C1721 1.388 . S
C1719 C1718 1.386 . S
C1719 C1720 1.382 . S
C1719 H1745 0.950 . S
C1720 N1717 1.332 . S
C1720 C1719 1.382 . S
C1720 H1731 0.952 . S
C1721 C1718 1.388 . S
C1721 C1722 1.382 . S
C1721 H1746 0.950 . S
C1722 N1717 1.332 . S
C1722 C1721 1.382 . S
C1722 H1732 0.948 . S
N1723 Co1701 2.282 . S
N1723 C1727 1.332 . S
N1723 C1728 1.332 . S
C1724 C1725 1.388 . S
C1724 C1728 1.382 . S
C1724 H1747 0.950 . S
C1725 C1724 1.388 . S
C1725 C1726 1.386 . S
C1726 C1725 1.386 . S
C1726 C1727 1.382 . S
C1726 H1748 0.950 1_455 S
C1727 N1723 1.332 . S
C1727 C1726 1.382 . S
C1727 H1729 0.952 . S
C1728 N1723 1.332 . S
C1728 C1724 1.382 . S
C1728 H1730 0.948 . S
H1729 C1727 0.952 . S
H1730 C1728 0.948 . S
H1731 C1720 0.952 . S
H1732 C1722 0.948 . S
C1733 C1699 1.395 . S
C1733 C1703 1.391 . S
C1734 C1696 1.389 . S
C1734 C1716 1.392 . S
C1735 C1706 1.392 . S
C1735 C1708 1.389 . S
C1736 C1711 1.395 . S
C1736 C1713 1.391 . S
H1737 C1697 0.951 . S
H1738 C1698 0.950 1_655 S
H1739 C1704 0.949 . S
H1740 C1705 0.950 . S
H1741 C1709 0.951 . S
H1742 C1710 0.950 . S
H1743 C1714 0.949 . S
H1744 C1715 0.950 . S
H1745 C1719 0.950 . S
H1746 C1721 0.950 . S
H1747 C1724 0.950 . S
H1748 C1726 0.950 1_655 S
C1749 C1750 1.443 . S
C1749 N1753 1.376 . S
C1749 C1787 1.389 . S
C1750 C1749 1.443 . S
C1750 C1751 1.340 . S
C1750 H1790 0.951 . S
C1751 C1750 1.340 . S
C1751 C1752 1.439 . S
C1751 H1791 0.950 . S
C1752 C1751 1.439 . S
C1752 N1753 1.374 . S
C1752 C1786 1.395 . S
N1753 C1749 1.376 . S
N1753 C1752 1.374 . S
N1753 Co1754 2.008 . S
Co1754 N1753 2.008 . S
Co1754 N1755 1.995 . S
Co1754 N1760 2.008 . S
Co1754 N1765 1.995 . S
Co1754 N1770 2.282 . S
Co1754 N1776 2.282 . S
N1755 Co1754 1.995 . S
N1755 C1756 1.376 . S
N1755 C1759 1.383 . S
C1756 N1755 1.376 . S
C1756 C1757 1.446 . S
C1756 C1786 1.391 . S
C1757 C1756 1.446 . S
C1757 C1758 1.339 . S
C1757 H1792 0.949 . S
C1758 C1757 1.339 . S
C1758 C1759 1.439 . S
C1758 H1793 0.950 . S
C1759 N1755 1.383 . S
C1759 C1758 1.439 . S
C1759 C1788 1.392 . S
N1760 Co1754 2.008 . S
N1760 C1761 1.376 . S
N1760 C1764 1.374 . S
C1761 N1760 1.376 . S
C1761 C1762 1.443 . S
C1761 C1788 1.389 . S
C1762 C1761 1.443 . S
C1762 C1763 1.340 . S
C1762 H1794 0.951 . S
C1763 C1762 1.340 . S
C1763 C1764 1.439 . S
C1763 H1795 0.950 . S
C1764 N1760 1.374 . S
C1764 C1763 1.439 . S
C1764 C1789 1.395 . S
N1765 Co1754 1.995 . S
N1765 C1766 1.376 . S
N1765 C1769 1.383 . S
C1766 N1765 1.376 . S
C1766 C1767 1.446 . S
C1766 C1789 1.391 . S
C1767 C1766 1.446 . S
C1767 C1768 1.339 . S
C1767 H1796 0.949 . S
C1768 C1767 1.339 . S
C1768 C1769 1.439 . S
C1768 H1797 0.950 . S
C1769 N1765 1.383 . S
C1769 C1768 1.439 . S
C1769 C1787 1.392 . S
N1770 Co1754 2.282 . S
N1770 C1773 1.332 . S
N1770 C1775 1.332 . S
C1771 C1772 1.386 . S
C1771 C1774 1.388 . S
C1772 C1771 1.386 . S
C1772 C1773 1.382 . S
C1772 H1798 0.950 . S
C1773 N1770 1.332 . S
C1773 C1772 1.382 . S
C1773 H1784 0.952 . S
C1774 C1771 1.388 . S
C1774 C1775 1.382 . S
C1774 H1799 0.950 . S
C1775 N1770 1.332 . S
C1775 C1774 1.382 . S
C1775 H1785 0.948 . S
N1776 Co1754 2.282 . S
N1776 C1780 1.332 . S
N1776 C1781 1.332 . S
C1777 C1778 1.388 . S
C1777 C1781 1.382 . S
C1777 H1800 0.950 . S
C1778 C1777 1.388 . S
C1778 C1779 1.386 . S
C1779 C1778 1.386 . S
C1779 C1780 1.382 . S
C1779 H1801 0.950 . S
C1780 N1776 1.332 . S
C1780 C1779 1.382 . S
C1780 H1782 0.952 . S
C1781 N1776 1.332 . S
C1781 C1777 1.382 . S
C1781 H1783 0.948 . S
H1782 C1780 0.952 . S
H1783 C1781 0.948 . S
H1784 C1773 0.952 . S
H1785 C1775 0.948 . S
C1786 C1752 1.395 . S
C1786 C1756 1.391 . S
C1787 C1749 1.389 . S
C1787 C1769 1.392 . S
C1788 C1759 1.392 . S
C1788 C1761 1.389 . S
C1789 C1764 1.395 . S
C1789 C1766 1.391 . S
H1790 C1750 0.951 . S
H1791 C1751 0.950 . S
H1792 C1757 0.949 . S
H1793 C1758 0.950 . S
H1794 C1762 0.951 . S
H1795 C1763 0.950 . S
H1796 C1767 0.949 . S
H1797 C1768 0.950 . S
H1798 C1772 0.950 . S
H1799 C1774 0.950 . S
H1800 C1777 0.950 . S
H1801 C1779 0.950 . S
C1802 C1803 1.443 . S
C1802 N1806 1.376 . S
C1802 C1840 1.389 . S
C1803 C1802 1.443 . S
C1803 C1804 1.340 . S
C1803 H1843 0.951 . S
C1804 C1803 1.340 . S
C1804 C1805 1.439 . S
C1804 H1844 0.950 . S
C1805 C1804 1.439 . S
C1805 N1806 1.374 . S
C1805 C1839 1.395 . S
N1806 C1802 1.376 . S
N1806 C1805 1.374 . S
N1806 Co1807 2.008 . S
Co1807 N1806 2.008 . S
Co1807 N1808 1.995 . S
Co1807 N1813 2.008 . S
Co1807 N1818 1.995 . S
Co1807 N1823 2.282 . S
Co1807 N1829 2.282 . S
N1808 Co1807 1.995 . S
N1808 C1809 1.376 . S
N1808 C1812 1.383 . S
C1809 N1808 1.376 . S
C1809 C1810 1.446 . S
C1809 C1839 1.391 . S
C1810 C1809 1.446 . S
C1810 C1811 1.339 . S
C1810 H1845 0.949 . S
C1811 C1810 1.339 . S
C1811 C1812 1.439 . S
C1811 H1846 0.950 . S
C1812 N1808 1.383 . S
C1812 C1811 1.439 . S
C1812 C1841 1.392 . S
N1813 Co1807 2.008 . S
N1813 C1814 1.376 . S
N1813 C1817 1.374 . S
C1814 N1813 1.376 . S
C1814 C1815 1.443 . S
C1814 C1841 1.389 . S
C1815 C1814 1.443 . S
C1815 C1816 1.340 . S
C1815 H1847 0.951 . S
C1816 C1815 1.340 . S
C1816 C1817 1.439 . S
C1816 H1848 0.950 . S
C1817 N1813 1.374 . S
C1817 C1816 1.439 . S
C1817 C1842 1.395 . S
N1818 Co1807 1.995 . S
N1818 C1819 1.376 . S
N1818 C1822 1.383 . S
C1819 N1818 1.376 . S
C1819 C1820 1.446 . S
C1819 C1842 1.391 . S
C1820 C1819 1.446 . S
C1820 C1821 1.339 . S
C1820 H1849 0.949 . S
C1821 C1820 1.339 . S
C1821 C1822 1.439 . S
C1821 H1850 0.950 . S
C1822 N1818 1.383 . S
C1822 C1821 1.439 . S
C1822 C1840 1.392 . S
N1823 Co1807 2.282 . S
N1823 C1826 1.332 . S
N1823 C1828 1.332 . S
C1824 C1825 1.386 . S
C1824 C1827 1.388 . S
C1825 C1824 1.386 . S
C1825 C1826 1.382 . S
C1825 H1851 0.950 . S
C1826 N1823 1.332 . S
C1826 C1825 1.382 . S
C1826 H1837 0.952 . S
C1827 C1824 1.388 . S
C1827 C1828 1.382 . S
C1827 H1852 0.950 . S
C1828 N1823 1.332 . S
C1828 C1827 1.382 . S
C1828 H1838 0.948 . S
N1829 Co1807 2.282 . S
N1829 C1833 1.332 . S
N1829 C1834 1.332 . S
C1830 C1831 1.388 . S
C1830 C1834 1.382 . S
C1830 H1853 0.950 . S
C1831 C1830 1.388 . S
C1831 C1832 1.386 . S
C1832 C1831 1.386 . S
C1832 C1833 1.382 . S
C1832 H1854 0.950 . S
C1833 N1829 1.332 . S
C1833 C1832 1.382 . S
C1833 H1835 0.952 . S
C1834 N1829 1.332 . S
C1834 C1830 1.382 . S
C1834 H1836 0.948 . S
H1835 C1833 0.952 . S
H1836 C1834 0.948 . S
H1837 C1826 0.952 . S
H1838 C1828 0.948 . S
C1839 C1805 1.395 . S
C1839 C1809 1.391 . S
C1840 C1802 1.389 . S
C1840 C1822 1.392 . S
C1841 C1812 1.392 . S
C1841 C1814 1.389 . S
C1842 C1817 1.395 . S
C1842 C1819 1.391 . S
H1843 C1803 0.951 . S
H1844 C1804 0.950 . S
H1845 C1810 0.949 . S
H1846 C1811 0.950 . S
H1847 C1815 0.951 . S
H1848 C1816 0.950 . S
H1849 C1820 0.949 . S
H1850 C1821 0.950 . S
H1851 C1825 0.950 . S
H1852 C1827 0.950 . S
H1853 C1830 0.950 . S
H1854 C1832 0.950 . S
C1855 C1856 1.443 . S
C1855 N1859 1.376 . S
C1855 C1893 1.389 . S
C1856 C1855 1.443 . S
C1856 C1857 1.340 . S
C1856 H1896 0.951 . S
C1857 C1856 1.340 . S
C1857 C1858 1.439 . S
C1857 H1897 0.950 . S
C1858 C1857 1.439 . S
C1858 N1859 1.374 . S
C1858 C1892 1.395 . S
N1859 C1855 1.376 . S
N1859 C1858 1.374 . S
N1859 Co1860 2.008 . S
Co1860 N1859 2.008 . S
Co1860 N1861 1.995 . S
Co1860 N1866 2.008 . S
Co1860 N1871 1.995 . S
Co1860 N1876 2.282 . S
Co1860 N1882 2.282 . S
N1861 Co1860 1.995 . S
N1861 C1862 1.376 . S
N1861 C1865 1.383 . S
C1862 N1861 1.376 . S
C1862 C1863 1.446 . S
C1862 C1892 1.391 . S
C1863 C1862 1.446 . S
C1863 C1864 1.339 . S
C1863 H1898 0.949 . S
C1864 C1863 1.339 . S
C1864 C1865 1.439 . S
C1864 H1899 0.950 . S
C1865 N1861 1.383 . S
C1865 C1864 1.439 . S
C1865 C1894 1.392 . S
N1866 Co1860 2.008 . S
N1866 C1867 1.376 . S
N1866 C1870 1.374 . S
C1867 N1866 1.376 . S
C1867 C1868 1.443 . S
C1867 C1894 1.389 . S
C1868 C1867 1.443 . S
C1868 C1869 1.340 . S
C1868 H1900 0.951 . S
C1869 C1868 1.340 . S
C1869 C1870 1.439 . S
C1869 H1901 0.950 . S
C1870 N1866 1.374 . S
C1870 C1869 1.439 . S
C1870 C1895 1.395 . S
N1871 Co1860 1.995 . S
N1871 C1872 1.376 . S
N1871 C1875 1.383 . S
C1872 N1871 1.376 . S
C1872 C1873 1.446 . S
C1872 C1895 1.391 . S
C1873 C1872 1.446 . S
C1873 C1874 1.339 . S
C1873 H1902 0.949 . S
C1874 C1873 1.339 . S
C1874 C1875 1.439 . S
C1874 H1903 0.950 . S
C1875 N1871 1.383 . S
C1875 C1874 1.439 . S
C1875 C1893 1.392 . S
N1876 Co1860 2.282 . S
N1876 C1879 1.332 . S
N1876 C1881 1.332 . S
C1877 C1878 1.386 . S
C1877 C1880 1.388 . S
C1878 C1877 1.386 . S
C1878 C1879 1.382 . S
C1878 H1904 0.950 . S
C1879 N1876 1.332 . S
C1879 C1878 1.382 . S
C1879 H1890 0.952 . S
C1880 C1877 1.388 . S
C1880 C1881 1.382 . S
C1880 H1905 0.950 . S
C1881 N1876 1.332 . S
C1881 C1880 1.382 . S
C1881 H1891 0.948 . S
N1882 Co1860 2.282 . S
N1882 C1886 1.332 . S
N1882 C1887 1.332 . S
C1883 C1884 1.388 . S
C1883 C1887 1.382 . S
C1883 H1906 0.950 . S
C1884 C1883 1.388 . S
C1884 C1885 1.386 . S
C1885 C1884 1.386 . S
C1885 C1886 1.382 . S
C1885 H1907 0.950 . S
C1886 N1882 1.332 . S
C1886 C1885 1.382 . S
C1886 H1888 0.952 . S
C1887 N1882 1.332 . S
C1887 C1883 1.382 . S
C1887 H1889 0.948 . S
H1888 C1886 0.952 . S
H1889 C1887 0.948 . S
H1890 C1879 0.952 . S
H1891 C1881 0.948 . S
C1892 C1858 1.395 . S
C1892 C1862 1.391 . S
C1893 C1855 1.389 . S
C1893 C1875 1.392 . S
C1894 C1865 1.392 . S
C1894 C1867 1.389 . S
C1895 C1870 1.395 . S
C1895 C1872 1.391 . S
H1896 C1856 0.951 . S
H1897 C1857 0.950 . S
H1898 C1863 0.949 . S
H1899 C1864 0.950 . S
H1900 C1868 0.951 . S
H1901 C1869 0.950 . S
H1902 C1873 0.949 . S
H1903 C1874 0.950 . S
H1904 C1878 0.950 . S
H1905 C1880 0.950 . S
H1906 C1883 0.950 . S
H1907 C1885 0.950 . S
H1908 C1920 0.930 . S
H1909 C1922 0.930 . S
H1910 C1923 0.930 . S
H1911 C1927 0.974 1_455 S
H1912 C1927 0.925 1_455 S
H1913 C1927 1.008 . S
H1914 C1928 0.960 . S
H1915 C1928 0.961 1_455 S
H1916 C1928 0.933 1_455 S
H1917 C1931 0.929 . S
H1918 C1932 0.931 . S
H1919 C1934 0.930 . S
C1920 H1908 0.930 . S
C1920 C1921 1.399 1_554 S
C1920 C1925 1.399 . S
C1921 C1920 1.399 1_556 S
C1921 C1922 1.376 . S
C1922 H1909 0.930 . S
C1922 C1921 1.376 . S
C1922 C1923 1.388 . S
C1923 H1910 0.930 . S
C1923 C1922 1.388 . S
C1923 C1924 1.390 . S
C1924 C1923 1.390 . S
C1924 C1925 1.394 1_556 S
C1924 C1930 1.465 1_655 S
C1925 C1920 1.399 . S
C1925 C1924 1.394 1_554 S
C1925 C1926 1.490 1_655 S
C1926 C1925 1.490 1_455 S
C1926 C1927 1.461 1_455 S
C1926 C1928 1.576 1_455 S
C1926 C1929 1.561 . S
C1927 H1911 0.974 1_655 S
C1927 H1912 0.925 1_655 S
C1927 H1913 1.008 . S
C1927 C1926 1.461 1_655 S
C1928 H1914 0.960 . S
C1928 H1915 0.961 1_655 S
C1928 H1916 0.933 1_655 S
C1928 C1926 1.576 1_655 S
C1929 C1926 1.561 . S
C1929 C1930 1.396 1_554 S
C1929 C1934 1.390 . S
C1930 C1924 1.465 1_455 S
C1930 C1929 1.396 1_556 S
C1930 C1931 1.399 . S
C1931 H1917 0.929 . S
C1931 C1930 1.399 . S
C1931 C1932 1.385 . S
C1932 H1918 0.931 . S
C1932 C1931 1.385 . S
C1932 C1933 1.389 1_556 S
C1933 C1932 1.389 1_554 S
C1933 C1934 1.387 . S
C1934 H1919 0.930 . S
C1934 C1929 1.390 . S
C1934 C1933 1.387 . S
H1935 C1947 0.930 . S
H1936 C1949 0.930 . S
H1937 C1950 0.930 . S
H1938 C1954 0.959 . S
H1939 C1954 0.959 . S
H1940 C1954 0.961 . S
H1941 C1955 0.960 . S
H1942 C1955 0.961 . S
H1943 C1955 0.959 . S
H1944 C1958 0.929 . S
H1945 C1959 0.931 . S
H1946 C1961 0.930 . S
C1947 H1935 0.930 . S
C1947 C1948 1.399 1_554 S
C1947 C1952 1.399 . S
C1948 C1947 1.399 1_556 S
C1948 C1949 1.376 . S
C1949 H1936 0.930 . S
C1949 C1948 1.376 . S
C1949 C1950 1.388 . S
C1950 H1937 0.930 . S
C1950 C1949 1.388 . S
C1950 C1951 1.390 . S
C1951 C1950 1.390 . S
C1951 C1952 1.394 1_556 S
C1951 C1957 1.465 . S
C1952 C1947 1.399 . S
C1952 C1951 1.394 1_554 S
C1952 C1953 1.516 . S
C1953 C1952 1.516 . S
C1953 C1954 1.502 . S
C1953 C1955 1.561 . S
C1953 C1956 1.526 . S
C1954 H1938 0.959 . S
C1954 H1939 0.959 . S
C1954 H1940 0.961 . S
C1954 C1953 1.502 . S
C1955 H1941 0.960 . S
C1955 H1942 0.961 . S
C1955 H1943 0.959 . S
C1955 C1953 1.561 . S
C1956 C1953 1.526 . S
C1956 C1957 1.396 1_554 S
C1956 C1961 1.390 . S
C1957 C1951 1.465 . S
C1957 C1956 1.396 1_556 S
C1957 C1958 1.399 . S
C1958 H1944 0.929 . S
C1958 C1957 1.399 . S
C1958 C1959 1.385 . S
C1959 H1945 0.931 . S
C1959 C1958 1.385 . S
C1959 C1960 1.389 1_556 S
C1960 C1959 1.389 1_554 S
C1960 C1961 1.387 . S
C1961 H1946 0.930 . S
C1961 C1956 1.390 . S
C1961 C1960 1.387 . S
H1962 C1974 0.930 . S
H1963 C1976 0.930 . S
H1964 C1977 0.930 . S
H1965 C1981 0.959 . S
H1966 C1981 0.959 . S
H1967 C1981 0.961 1_545 S
H1968 C1982 0.960 1_545 S
H1969 C1982 0.961 . S
H1970 C1982 0.959 . S
H1971 C1985 0.929 . S
H1972 C1986 0.931 . S
H1973 C1988 0.930 . S
C1974 H1962 0.930 . S
C1974 C1975 1.399 . S
C1974 C1979 1.399 . S
C1975 C1974 1.399 . S
C1975 C1976 1.376 1_556 S
C1976 H1963 0.930 . S
C1976 C1975 1.376 1_554 S
C1976 C1977 1.388 . S
C1977 H1964 0.930 . S
C1977 C1976 1.388 . S
C1977 C1978 1.390 . S
C1978 C1977 1.390 . S
C1978 C1979 1.394 1_554 S
C1978 C1984 1.465 1_545 S
C1979 C1974 1.399 . S
C1979 C1978 1.394 1_556 S
C1979 C1980 1.516 1_545 S
C1980 C1979 1.516 1_565 S
C1980 C1981 1.502 . S
C1980 C1982 1.561 . S
C1980 C1983 1.526 . S
C1981 H1965 0.959 . S
C1981 H1966 0.959 . S
C1981 H1967 0.961 1_565 S
C1981 C1980 1.502 . S
C1982 H1968 0.960 1_565 S
C1982 H1969 0.961 . S
C1982 H1970 0.959 . S
C1982 C1980 1.561 . S
C1983 C1980 1.526 . S
C1983 C1984 1.396 1_556 S
C1983 C1988 1.390 . S
C1984 C1978 1.465 1_565 S
C1984 C1983 1.396 1_554 S
C1984 C1985 1.399 . S
C1985 H1971 0.929 . S
C1985 C1984 1.399 . S
C1985 C1986 1.385 . S
C1986 H1972 0.931 . S
C1986 C1985 1.385 . S
C1986 C1987 1.389 . S
C1987 C1986 1.389 . S
C1987 C1988 1.387 1_554 S
C1988 H1973 0.930 . S
C1988 C1983 1.390 . S
C1988 C1987 1.387 1_556 S
H1989 C2001 0.930 . S
H1990 C2003 0.930 . S
H1991 C2004 0.940 . S
H1992 C2008 0.959 . S
H1993 C2008 0.959 . S
H1994 C2008 0.961 1_455 S
H1995 C2009 0.960 1_455 S
H1996 C2009 0.961 . S
H1997 C2009 0.959 . S
H1998 C2012 0.929 . S
H1999 C2013 0.931 . S
H2000 C2015 0.930 . S
C2001 H1989 0.930 . S
C2001 C2002 1.399 1_556 S
C2001 C2006 1.399 . S
C2002 C2001 1.399 1_554 S
C2002 C2003 1.376 . S
C2003 H1990 0.930 . S
C2003 C2002 1.376 . S
C2003 C2004 1.388 . S
C2004 H1991 0.940 . S
C2004 C2003 1.388 . S
C2004 C2005 1.390 1_455 S
C2005 C2004 1.390 1_655 S
C2005 C2006 1.394 1_654 S
C2005 C2011 1.465 . S
C2006 C2001 1.399 . S
C2006 C2005 1.394 1_456 S
C2006 C2007 1.516 1_455 S
C2007 C2006 1.516 1_655 S
C2007 C2008 1.502 . S
C2007 C2009 1.561 . S
C2007 C2010 1.526 . S
C2008 H1992 0.959 . S
C2008 H1993 0.959 . S
C2008 H1994 0.961 1_655 S
C2008 C2007 1.502 . S
C2009 H1995 0.960 1_655 S
C2009 H1996 0.961 . S
C2009 H1997 0.959 . S
C2009 C2007 1.561 . S
C2010 C2007 1.526 . S
C2010 C2011 1.396 1_556 S
C2010 C2015 1.390 . S
C2011 C2005 1.465 . S
C2011 C2010 1.396 1_554 S
C2011 C2012 1.399 . S
C2012 H1998 0.929 . S
C2012 C2011 1.399 . S
C2012 C2013 1.385 . S
C2013 H1999 0.931 . S
C2013 C2012 1.385 . S
C2013 C2014 1.389 1_554 S
C2014 C2013 1.389 1_556 S
C2014 C2015 1.387 . S
C2015 H2000 0.930 . S
C2015 C2010 1.390 . S
C2015 C2014 1.387 . S
H2016 C2028 0.930 . S
H2017 C2030 0.930 1_554 S
H2018 C2031 0.930 . S
H2019 C2035 0.959 1_554 S
H2020 C2035 0.959 . S
H2021 C2035 0.961 . S
H2022 C2036 0.960 . S
H2023 C2036 0.961 . S
H2024 C2036 0.959 . S
H2025 C2039 0.929 . S
H2026 C2040 0.931 . S
H2027 C2042 0.930 . S
C2028 H2016 0.930 . S
C2028 C2029 1.399 . S
C2028 C2033 1.399 . S
C2029 C2028 1.399 . S
C2029 C2030 1.376 . S
C2030 H2017 0.930 1_556 S
C2030 C2029 1.376 . S
C2030 C2031 1.388 1_556 S
C2031 H2018 0.930 . S
C2031 C2030 1.388 1_554 S
C2031 C2032 1.390 1_554 S
C2032 C2031 1.390 1_556 S
C2032 C2033 1.394 . S
C2032 C2038 1.465 1_556 S
C2033 C2028 1.399 . S
C2033 C2032 1.394 . S
C2033 C2034 1.516 . S
C2034 C2033 1.516 . S
C2034 C2035 1.502 . S
C2034 C2036 1.561 . S
C2034 C2037 1.526 . S
C2035 H2019 0.959 1_556 S
C2035 H2020 0.959 . S
C2035 H2021 0.961 . S
C2035 C2034 1.502 . S
C2036 H2022 0.960 . S
C2036 H2023 0.961 . S
C2036 H2024 0.959 . S
C2036 C2034 1.561 . S
C2037 C2034 1.526 . S
C2037 C2038 1.396 1_556 S
C2037 C2042 1.390 . S
C2038 C2032 1.465 1_554 S
C2038 C2037 1.396 1_554 S
C2038 C2039 1.399 . S
C2039 H2025 0.929 . S
C2039 C2038 1.399 . S
C2039 C2040 1.385 . S
C2040 H2026 0.931 . S
C2040 C2039 1.385 . S
C2040 C2041 1.389 . S
C2041 C2040 1.389 . S
C2041 C2042 1.387 1_554 S
C2042 H2027 0.930 . S
C2042 C2037 1.390 . S
C2042 C2041 1.387 1_556 S
H2043 C2055 0.930 . S
H2044 C2057 0.930 . S
H2045 C2058 0.930 . S
H2046 C2062 0.959 . S
H2047 C2062 0.959 . S
H2048 C2062 0.961 1_565 S
H2049 C2063 0.960 1_565 S
H2050 C2063 0.961 . S
H2051 C2063 0.959 . S
H2052 C2066 0.929 . S
H2053 C2067 0.931 . S
H2054 C2069 0.930 . S
C2055 H2043 0.930 . S
C2055 C2056 1.399 . S
C2055 C2060 1.399 . S
C2056 C2055 1.399 . S
C2056 C2057 1.376 1_554 S
C2057 H2044 0.930 . S
C2057 C2056 1.376 1_556 S
C2057 C2058 1.388 . S
C2058 H2045 0.930 . S
C2058 C2057 1.388 . S
C2058 C2059 1.390 . S
C2059 C2058 1.390 . S
C2059 C2060 1.394 1_556 S
C2059 C2065 1.465 1_565 S
C2060 C2055 1.399 . S
C2060 C2059 1.394 1_554 S
C2060 C2061 1.516 1_565 S
C2061 C2060 1.516 1_545 S
C2061 C2062 1.502 . S
C2061 C2063 1.561 . S
C2061 C2064 1.526 . S
C2062 H2046 0.959 . S
C2062 H2047 0.959 . S
C2062 H2048 0.961 1_545 S
C2062 C2061 1.502 . S
C2063 H2049 0.960 1_545 S
C2063 H2050 0.961 . S
C2063 H2051 0.959 . S
C2063 C2061 1.561 . S
C2064 C2061 1.526 . S
C2064 C2065 1.396 1_554 S
C2064 C2069 1.390 . S
C2065 C2059 1.465 1_545 S
C2065 C2064 1.396 1_556 S
C2065 C2066 1.399 . S
C2066 H2052 0.929 . S
C2066 C2065 1.399 . S
C2066 C2067 1.385 . S
C2067 H2053 0.931 . S
C2067 C2066 1.385 . S
C2067 C2068 1.389 . S
C2068 C2067 1.389 . S
C2068 C2069 1.387 1_556 S
C2069 H2054 0.930 . S
C2069 C2064 1.390 . S
C2069 C2068 1.387 1_554 S
H2070 C2082 0.930 . S
H2071 C2084 0.930 . S
H2072 C2085 0.930 . S
H2073 C2089 0.959 . S
H2074 C2089 0.959 . S
H2075 C2089 0.961 . S
H2076 C2090 0.960 . S
H2077 C2090 0.961 . S
H2078 C2090 0.959 . S
H2079 C2093 0.929 . S
H2080 C2094 0.931 . S
H2081 C2096 0.930 . S
C2082 H2070 0.930 . S
C2082 C2083 1.399 . S
C2082 C2087 1.399 . S
C2083 C2082 1.399 . S
C2083 C2084 1.376 . S
C2084 H2071 0.930 . S
C2084 C2083 1.376 . S
C2084 C2085 1.388 . S
C2085 H2072 0.930 . S
C2085 C2084 1.388 . S
C2085 C2086 1.390 . S
C2086 C2085 1.390 . S
C2086 C2087 1.394 . S
C2086 C2092 1.465 . S
C2087 C2082 1.399 . S
C2087 C2086 1.394 . S
C2087 C2088 1.516 . S
C2088 C2087 1.516 . S
C2088 C2089 1.502 . S
C2088 C2090 1.561 . S
C2088 C2091 1.526 . S
C2089 H2073 0.959 . S
C2089 H2074 0.959 . S
C2089 H2075 0.961 . S
C2089 C2088 1.502 . S
C2090 H2076 0.960 . S
C2090 H2077 0.961 . S
C2090 H2078 0.959 . S
C2090 C2088 1.561 . S
C2091 C2088 1.526 . S
C2091 C2092 1.396 . S
C2091 C2096 1.390 . S
C2092 C2086 1.465 . S
C2092 C2091 1.396 . S
C2092 C2093 1.399 . S
C2093 H2079 0.929 . S
C2093 C2092 1.399 . S
C2093 C2094 1.385 . S
C2094 H2080 0.931 . S
C2094 C2093 1.385 . S
C2094 C2095 1.389 . S
C2095 C2094 1.389 . S
C2095 C2096 1.387 . S
C2096 H2081 0.930 . S
C2096 C2091 1.390 . S
C2096 C2095 1.387 . S
H2097 C2109 0.930 . S
H2098 C2111 0.930 . S
H2099 C2112 0.930 . S
H2100 C2116 0.959 . S
H2101 C2116 0.959 . S
H2102 C2116 0.961 . S
H2103 C2117 0.960 . S
H2104 C2117 0.961 . S
H2105 C2117 0.959 . S
H2106 C2120 0.929 . S
H2107 C2121 0.897 1_545 S
H2108 C2123 0.930 . S
C2109 H2097 0.930 . S
C2109 C2110 1.399 . S
C2109 C2114 1.399 . S
C2110 C2109 1.399 . S
C2110 C2111 1.376 . S
C2111 H2098 0.930 . S
C2111 C2110 1.376 . S
C2111 C2112 1.388 . S
C2112 H2099 0.930 . S
C2112 C2111 1.388 . S
C2112 C2113 1.390 . S
C2113 C2112 1.390 . S
C2113 C2114 1.394 . S
C2113 C2119 1.465 . S
C2114 C2109 1.399 . S
C2114 C2113 1.394 . S
C2114 C2115 1.516 . S
C2115 C2114 1.516 . S
C2115 C2116 1.502 . S
C2115 C2117 1.561 . S
C2115 C2118 1.526 . S
C2116 H2100 0.959 . S
C2116 H2101 0.959 . S
C2116 H2102 0.961 . S
C2116 C2115 1.502 . S
C2117 H2103 0.960 . S
C2117 H2104 0.961 . S
C2117 H2105 0.959 . S
C2117 C2115 1.561 . S
C2118 C2115 1.526 . S
C2118 C2119 1.396 . S
C2118 C2123 1.390 . S
C2119 C2113 1.465 . S
C2119 C2118 1.396 . S
C2119 C2120 1.399 . S
C2120 H2106 0.929 . S
C2120 C2119 1.399 . S
C2120 C2121 1.426 . S
C2121 H2107 0.897 1_565 S
C2121 C2120 1.426 . S
C2121 C2122 1.384 . S
C2122 C2121 1.384 . S
C2122 C2123 1.387 . S
C2123 H2108 0.930 . S
C2123 C2118 1.390 . S
C2123 C2122 1.387 . S
H2124 C2136 0.934 . S
H2125 C2138 0.930 . S
H2126 C2139 0.930 . S
H2127 C2143 0.914 1_655 S
H2128 C2143 0.959 . S
H2129 C2143 0.961 1_655 S
H2130 C2144 0.960 . S
H2131 C2144 0.961 . S
H2132 C2144 0.959 . S
H2133 C2147 0.929 . S
H2134 C2148 0.931 . S
H2135 C2150 0.930 . S
C2136 H2124 0.934 . S
C2136 C2137 1.399 . S
C2136 C2141 1.399 . S
C2137 C2136 1.399 . S
C2137 C2138 1.376 . S
C2138 H2125 0.930 . S
C2138 C2137 1.376 . S
C2138 C2139 1.388 . S
C2139 H2126 0.930 . S
C2139 C2138 1.388 . S
C2139 C2140 1.390 . S
C2140 C2139 1.390 . S
C2140 C2141 1.394 . S
C2140 C2146 1.465 . S
C2141 C2136 1.399 . S
C2141 C2140 1.394 . S
C2141 C2142 1.516 . S
C2142 C2141 1.516 . S
C2142 C2143 1.502 . S
C2142 C2144 1.561 . S
C2142 C2145 1.526 . S
C2143 H2127 0.914 1_455 S
C2143 H2128 0.959 . S
C2143 H2129 0.961 1_455 S
C2143 C2142 1.502 . S
C2144 H2130 0.960 . S
C2144 H2131 0.961 . S
C2144 H2132 0.959 . S
C2144 C2142 1.561 . S
C2145 C2142 1.526 . S
C2145 C2146 1.396 . S
C2145 C2150 1.390 . S
C2146 C2140 1.465 . S
C2146 C2145 1.396 . S
C2146 C2147 1.399 . S
C2147 H2133 0.929 . S
C2147 C2146 1.399 . S
C2147 C2148 1.385 . S
C2148 H2134 0.931 . S
C2148 C2147 1.385 . S
C2148 C2149 1.389 . S
C2149 C2148 1.389 . S
C2149 C2150 1.387 . S
C2150 H2135 0.930 . S
C2150 C2145 1.390 . S
C2150 C2149 1.387 . S
H2151 C2163 0.930 . S
H2152 C2165 0.930 . S
H2153 C2166 0.930 . S
H2154 C2170 0.959 . S
H2155 C2170 0.959 . S
H2156 C2170 0.961 . S
H2157 C2171 0.960 . S
H2158 C2171 0.961 . S
H2159 C2171 0.959 . S
H2160 C2174 0.929 . S
H2161 C2175 0.947 . S
H2162 C2177 0.930 . S
C2163 H2151 0.930 . S
C2163 C2164 1.399 . S
C2163 C2168 1.399 . S
C2164 C2163 1.399 . S
C2164 C2165 1.376 . S
C2165 H2152 0.930 . S
C2165 C2164 1.376 . S
C2165 C2166 1.388 . S
C2166 H2153 0.930 . S
C2166 C2165 1.388 . S
C2166 C2167 1.390 . S
C2167 C2166 1.390 . S
C2167 C2168 1.394 . S
C2167 C2173 1.465 . S
C2168 C2163 1.399 . S
C2168 C2167 1.394 . S
C2168 C2169 1.516 . S
C2169 C2168 1.516 . S
C2169 C2170 1.502 . S
C2169 C2171 1.561 . S
C2169 C2172 1.526 . S
C2170 H2154 0.959 . S
C2170 H2155 0.959 . S
C2170 H2156 0.961 . S
C2170 C2169 1.502 . S
C2171 H2157 0.960 . S
C2171 H2158 0.961 . S
C2171 H2159 0.959 . S
C2171 C2169 1.561 . S
C2172 C2169 1.526 . S
C2172 C2173 1.396 . S
C2172 C2177 1.390 . S
C2173 C2167 1.465 . S
C2173 C2172 1.396 . S
C2173 C2174 1.399 . S
C2174 H2160 0.929 . S
C2174 C2173 1.399 . S
C2174 C2175 1.392 1_565 S
C2175 H2161 0.947 . S
C2175 C2174 1.392 1_545 S
C2175 C2176 1.369 1_545 S
C2176 C2175 1.369 1_565 S
C2176 C2177 1.387 . S
C2177 H2162 0.930 . S
C2177 C2172 1.390 . S
C2177 C2176 1.387 . S
H2178 C2190 0.930 . S
H2179 C2192 0.930 . S
H2180 C2193 0.930 . S
H2181 C2197 0.959 . S
H2182 C2197 0.959 . S
H2183 C2197 0.961 . S
H2184 C2198 0.960 . S
H2185 C2198 0.961 . S
H2186 C2198 0.959 . S
H2187 C2201 0.929 . S
H2188 C2202 0.931 . S
H2189 C2204 0.930 . S
C2190 H2178 0.930 . S
C2190 C2191 1.399 . S
C2190 C2195 1.399 1_655 S
C2191 C2190 1.399 . S
C2191 C2192 1.376 1_655 S
C2192 H2179 0.930 . S
C2192 C2191 1.376 1_455 S
C2192 C2193 1.388 . S
C2193 H2180 0.930 . S
C2193 C2192 1.388 . S
C2193 C2194 1.390 . S
C2194 C2193 1.390 . S
C2194 C2195 1.394 . S
C2194 C2200 1.465 . S
C2195 C2190 1.399 1_455 S
C2195 C2194 1.394 . S
C2195 C2196 1.516 . S
C2196 C2195 1.516 . S
C2196 C2197 1.502 1_455 S
C2196 C2198 1.561 . S
C2196 C2199 1.526 . S
C2197 H2181 0.959 . S
C2197 H2182 0.959 . S
C2197 H2183 0.961 . S
C2197 C2196 1.502 1_655 S
C2198 H2184 0.960 . S
C2198 H2185 0.961 . S
C2198 H2186 0.959 . S
C2198 C2196 1.561 . S
C2199 C2196 1.526 . S
C2199 C2200 1.396 . S
C2199 C2204 1.390 . S
C2200 C2194 1.465 . S
C2200 C2199 1.396 . S
C2200 C2201 1.399 . S
C2201 H2187 0.929 . S
C2201 C2200 1.399 . S
C2201 C2202 1.385 . S
C2202 H2188 0.931 . S
C2202 C2201 1.385 . S
C2202 C2203 1.389 . S
C2203 C2202 1.389 . S
C2203 C2204 1.387 . S
C2204 H2189 0.930 . S
C2204 C2199 1.390 . S
C2204 C2203 1.387 . S
H2205 C2217 0.930 . S
H2206 C2219 0.930 . S
H2207 C2220 0.930 . S
H2208 C2224 0.959 . S
H2209 C2224 0.959 . S
H2210 C2224 0.961 . S
H2211 C2225 0.960 . S
H2212 C2225 0.961 . S
H2213 C2225 0.959 . S
H2214 C2228 0.929 . S
H2215 C2229 0.931 . S
H2216 C2231 0.930 . S
C2217 H2205 0.930 . S
C2217 C2218 1.399 . S
C2217 C2222 1.399 . S
C2218 C2217 1.399 . S
C2218 C2219 1.376 . S
C2219 H2206 0.930 . S
C2219 C2218 1.376 . S
C2219 C2220 1.388 . S
C2220 H2207 0.930 . S
C2220 C2219 1.388 . S
C2220 C2221 1.390 . S
C2221 C2220 1.390 . S
C2221 C2222 1.394 . S
C2221 C2227 1.465 . S
C2222 C2217 1.399 . S
C2222 C2221 1.394 . S
C2222 C2223 1.516 . S
C2223 C2222 1.516 . S
C2223 C2224 1.502 . S
C2223 C2225 1.561 . S
C2223 C2226 1.526 . S
C2224 H2208 0.959 . S
C2224 H2209 0.959 . S
C2224 H2210 0.961 . S
C2224 C2223 1.502 . S
C2225 H2211 0.960 . S
C2225 H2212 0.961 . S
C2225 H2213 0.959 . S
C2225 C2223 1.561 . S
C2226 C2223 1.526 . S
C2226 C2227 1.396 . S
C2226 C2231 1.390 . S
C2227 C2221 1.465 . S
C2227 C2226 1.396 . S
C2227 C2228 1.399 . S
C2228 H2214 0.929 . S
C2228 C2227 1.399 . S
C2228 C2229 1.385 . S
C2229 H2215 0.931 . S
C2229 C2228 1.385 . S
C2229 C2230 1.389 . S
C2230 C2229 1.389 . S
C2230 C2231 1.387 . S
C2231 H2216 0.930 . S
C2231 C2226 1.390 . S
C2231 C2230 1.387 . S
H2232 C2244 0.930 . S
H2233 C2246 0.930 1_565 S
H2234 C2247 0.930 . S
H2235 C2251 0.959 . S
H2236 C2251 0.959 . S
H2237 C2251 0.961 . S
H2238 C2252 0.960 . S
H2239 C2252 0.961 . S
H2240 C2252 0.959 . S
H2241 C2255 0.929 . S
H2242 C2256 0.931 . S
H2243 C2258 0.930 . S
C2244 H2232 0.930 . S
C2244 C2245 1.399 . S
C2244 C2249 1.399 . S
C2245 C2244 1.399 . S
C2245 C2246 1.376 . S
C2246 H2233 0.930 1_545 S
C2246 C2245 1.376 . S
C2246 C2247 1.388 . S
C2247 H2234 0.930 . S
C2247 C2246 1.388 . S
C2247 C2248 1.390 . S
C2248 C2247 1.390 . S
C2248 C2249 1.394 . S
C2248 C2254 1.465 . S
C2249 C2244 1.399 . S
C2249 C2248 1.394 . S
C2249 C2250 1.516 . S
C2250 C2249 1.516 . S
C2250 C2251 1.502 . S
C2250 C2252 1.561 . S
C2250 C2253 1.526 . S
C2251 H2235 0.959 . S
C2251 H2236 0.959 . S
C2251 H2237 0.961 . S
C2251 C2250 1.502 . S
C2252 H2238 0.960 . S
C2252 H2239 0.961 . S
C2252 H2240 0.959 . S
C2252 C2250 1.561 . S
C2253 C2250 1.526 . S
C2253 C2254 1.396 . S
C2253 C2258 1.390 . S
C2254 C2248 1.465 . S
C2254 C2253 1.396 . S
C2254 C2255 1.399 . S
C2255 H2241 0.929 . S
C2255 C2254 1.399 . S
C2255 C2256 1.385 . S
C2256 H2242 0.931 . S
C2256 C2255 1.385 . S
C2256 C2257 1.389 . S
C2257 C2256 1.389 . S
C2257 C2258 1.387 . S
C2258 H2243 0.930 . S
C2258 C2253 1.390 . S
C2258 C2257 1.387 . S
H2259 C2271 0.930 . S
H2260 C2273 0.930 . S
H2261 C2274 0.930 . S
H2262 C2278 0.924 1_455 S
H2263 C2278 0.903 1_455 S
H2264 C2278 1.020 . S
H2265 C2279 0.960 . S
H2266 C2279 0.961 . S
H2267 C2279 0.959 . S
H2268 C2282 0.929 . S
H2269 C2283 0.931 . S
H2270 C2285 0.911 1_455 S
C2271 H2259 0.930 . S
C2271 C2272 1.399 . S
C2271 C2276 1.399 . S
C2272 C2271 1.399 . S
C2272 C2273 1.376 . S
C2273 H2260 0.930 . S
C2273 C2272 1.376 . S
C2273 C2274 1.388 . S
C2274 H2261 0.930 . S
C2274 C2273 1.388 . S
C2274 C2275 1.390 . S
C2275 C2274 1.390 . S
C2275 C2276 1.394 . S
C2275 C2281 1.465 . S
C2276 C2271 1.399 . S
C2276 C2275 1.394 . S
C2276 C2277 1.516 . S
C2277 C2276 1.516 . S
C2277 C2278 1.543 . S
C2277 C2279 1.561 . S
C2277 C2280 1.526 . S
C2278 H2262 0.924 1_655 S
C2278 H2263 0.903 1_655 S
C2278 H2264 1.020 . S
C2278 C2277 1.543 . S
C2279 H2265 0.960 . S
C2279 H2266 0.961 . S
C2279 H2267 0.959 . S
C2279 C2277 1.561 . S
C2280 C2277 1.526 . S
C2280 C2281 1.396 . S
C2280 C2285 1.435 . S
C2281 C2275 1.465 . S
C2281 C2280 1.396 . S
C2281 C2282 1.399 . S
C2282 H2268 0.929 . S
C2282 C2281 1.399 . S
C2282 C2283 1.385 . S
C2283 H2269 0.931 . S
C2283 C2282 1.385 . S
C2283 C2284 1.389 1_655 S
C2284 C2283 1.389 1_455 S
C2284 C2285 1.362 1_455 S
C2285 H2270 0.911 1_655 S
C2285 C2280 1.435 . S
C2285 C2284 1.362 1_655 S
H2286 C2298 0.930 . S
H2287 C2300 0.930 . S
H2288 C2301 0.930 . S
H2289 C2305 0.959 . S
H2290 C2305 0.959 . S
H2291 C2305 0.961 . S
H2292 C2306 0.960 . S
H2293 C2306 0.961 . S
H2294 C2306 0.959 . S
H2295 C2309 0.929 . S
H2296 C2310 0.931 . S
H2297 C2312 0.930 . S
C2298 H2286 0.930 . S
C2298 C2299 1.399 . S
C2298 C2303 1.399 . S
C2299 C2298 1.399 . S
C2299 C2300 1.376 . S
C2300 H2287 0.930 . S
C2300 C2299 1.376 . S
C2300 C2301 1.388 . S
C2301 H2288 0.930 . S
C2301 C2300 1.388 . S
C2301 C2302 1.390 . S
C2302 C2301 1.390 . S
C2302 C2303 1.394 . S
C2302 C2308 1.465 . S
C2303 C2298 1.399 . S
C2303 C2302 1.394 . S
C2303 C2304 1.516 . S
C2304 C2303 1.516 . S
C2304 C2305 1.502 . S
C2304 C2306 1.561 . S
C2304 C2307 1.526 . S
C2305 H2289 0.959 . S
C2305 H2290 0.959 . S
C2305 H2291 0.961 . S
C2305 C2304 1.502 . S
C2306 H2292 0.960 . S
C2306 H2293 0.961 . S
C2306 H2294 0.959 . S
C2306 C2304 1.561 . S
C2307 C2304 1.526 . S
C2307 C2308 1.396 . S
C2307 C2312 1.390 . S
C2308 C2302 1.465 . S
C2308 C2307 1.396 . S
C2308 C2309 1.399 . S
C2309 H2295 0.929 . S
C2309 C2308 1.399 . S
C2309 C2310 1.385 . S
C2310 H2296 0.931 . S
C2310 C2309 1.385 . S
C2310 C2311 1.389 . S
C2311 C2310 1.389 . S
C2311 C2312 1.387 . S
C2312 H2297 0.930 . S
C2312 C2307 1.390 . S
C2312 C2311 1.387 . S
H2313 C2325 0.930 . S
H2314 C2327 0.930 . S
H2315 C2328 0.930 . S
H2316 C2332 0.959 . S
H2317 C2332 0.959 . S
H2318 C2332 0.961 . S
H2319 C2333 0.960 . S
H2320 C2333 0.961 . S
H2321 C2333 0.959 . S
H2322 C2336 0.929 . S
H2323 C2337 0.931 . S
H2324 C2339 0.930 . S
C2325 H2313 0.930 . S
C2325 C2326 1.399 . S
C2325 C2330 1.399 . S
C2326 C2325 1.399 . S
C2326 C2327 1.376 . S
C2327 H2314 0.930 . S
C2327 C2326 1.376 . S
C2327 C2328 1.388 . S
C2328 H2315 0.930 . S
C2328 C2327 1.388 . S
C2328 C2329 1.390 . S
C2329 C2328 1.390 . S
C2329 C2330 1.394 . S
C2329 C2335 1.465 . S
C2330 C2325 1.399 . S
C2330 C2329 1.394 . S
C2330 C2331 1.516 . S
C2331 C2330 1.516 . S
C2331 C2332 1.502 . S
C2331 C2333 1.561 . S
C2331 C2334 1.526 . S
C2332 H2316 0.959 . S
C2332 H2317 0.959 . S
C2332 H2318 0.961 . S
C2332 C2331 1.502 . S
C2333 H2319 0.960 . S
C2333 H2320 0.961 . S
C2333 H2321 0.959 . S
C2333 C2331 1.561 . S
C2334 C2331 1.526 . S
C2334 C2335 1.396 . S
C2334 C2339 1.390 . S
C2335 C2329 1.465 . S
C2335 C2334 1.396 . S
C2335 C2336 1.399 . S
C2336 H2322 0.929 . S
C2336 C2335 1.399 . S
C2336 C2337 1.385 . S
C2337 H2323 0.931 . S
C2337 C2336 1.385 . S
C2337 C2338 1.389 . S
C2338 C2337 1.389 . S
C2338 C2339 1.387 . S
C2339 H2324 0.930 . S
C2339 C2334 1.390 . S
C2339 C2338 1.387 . S
H2340 C2352 0.930 . S
H2341 C2354 0.930 . S
H2342 C2355 0.930 . S
H2343 C2359 0.959 . S
H2344 C2359 0.959 . S
H2345 C2359 0.961 . S
H2346 C2360 0.960 . S
H2347 C2360 0.961 . S
H2348 C2360 0.959 . S
H2349 C2363 0.929 . S
H2350 C2364 0.931 . S
H2351 C2366 0.930 . S
C2352 H2340 0.930 . S
C2352 C2353 1.399 . S
C2352 C2357 1.399 . S
C2353 C2352 1.399 . S
C2353 C2354 1.376 . S
C2354 H2341 0.930 . S
C2354 C2353 1.376 . S
C2354 C2355 1.388 . S
C2355 H2342 0.930 . S
C2355 C2354 1.388 . S
C2355 C2356 1.390 . S
C2356 C2355 1.390 . S
C2356 C2357 1.394 . S
C2356 C2362 1.465 . S
C2357 C2352 1.399 . S
C2357 C2356 1.394 . S
C2357 C2358 1.516 . S
C2358 C2357 1.516 . S
C2358 C2359 1.502 . S
C2358 C2360 1.561 . S
C2358 C2361 1.526 . S
C2359 H2343 0.959 . S
C2359 H2344 0.959 . S
C2359 H2345 0.961 . S
C2359 C2358 1.502 . S
C2360 H2346 0.960 . S
C2360 H2347 0.961 . S
C2360 H2348 0.959 . S
C2360 C2358 1.561 . S
C2361 C2358 1.526 . S
C2361 C2362 1.396 . S
C2361 C2366 1.390 . S
C2362 C2356 1.465 . S
C2362 C2361 1.396 . S
C2362 C2363 1.399 . S
C2363 H2349 0.929 . S
C2363 C2362 1.399 . S
C2363 C2364 1.385 . S
C2364 H2350 0.931 . S
C2364 C2363 1.385 . S
C2364 C2365 1.389 . S
C2365 C2364 1.389 . S
C2365 C2366 1.387 . S
C2366 H2351 0.930 . S
C2366 C2361 1.390 . S
C2366 C2365 1.387 . S
H2367 C2379 0.930 . S
H2368 C2381 0.930 . S
H2369 C2382 0.930 . S
H2370 C2386 0.959 . S
H2371 C2386 0.959 . S
H2372 C2386 0.961 . S
H2373 C2387 0.960 1_455 S
H2374 C2387 0.961 . S
H2375 C2387 0.959 1_455 S
H2376 C2390 0.929 . S
H2377 C2391 0.931 . S
H2378 C2393 0.930 . S
C2379 H2367 0.930 . S
C2379 C2380 1.399 . S
C2379 C2384 1.399 . S
C2380 C2379 1.399 . S
C2380 C2381 1.376 . S
C2381 H2368 0.930 . S
C2381 C2380 1.376 . S
C2381 C2382 1.388 . S
C2382 H2369 0.930 . S
C2382 C2381 1.388 . S
C2382 C2383 1.390 . S
C2383 C2382 1.390 . S
C2383 C2384 1.394 . S
C2383 C2389 1.465 . S
C2384 C2379 1.399 . S
C2384 C2383 1.394 . S
C2384 C2385 1.516 . S
C2385 C2384 1.516 . S
C2385 C2386 1.502 . S
C2385 C2387 1.561 . S
C2385 C2388 1.526 . S
C2386 H2370 0.959 . S
C2386 H2371 0.959 . S
C2386 H2372 0.961 . S
C2386 C2385 1.502 . S
C2387 H2373 0.960 1_655 S
C2387 H2374 0.961 . S
C2387 H2375 0.959 1_655 S
C2387 C2385 1.561 . S
C2388 C2385 1.526 . S
C2388 C2389 1.396 . S
C2388 C2393 1.390 . S
C2389 C2383 1.465 . S
C2389 C2388 1.396 . S
C2389 C2390 1.399 . S
C2390 H2376 0.929 . S
C2390 C2389 1.399 . S
C2390 C2391 1.385 . S
C2391 H2377 0.931 . S
C2391 C2390 1.385 . S
C2391 C2392 1.389 . S
C2392 C2391 1.389 . S
C2392 C2393 1.387 . S
C2393 H2378 0.930 . S
C2393 C2388 1.390 . S
C2393 C2392 1.387 . S
H2394 C2406 0.930 . S
H2395 C2408 0.930 . S
H2396 C2409 0.930 . S
H2397 C2413 0.959 . S
H2398 C2413 0.959 . S
H2399 C2413 0.961 . S
H2400 C2414 0.953 1_554 S
H2401 C2414 0.961 1_554 S
H2402 C2414 0.959 . S
H2403 C2417 0.929 . S
H2404 C2418 0.931 . S
H2405 C2420 0.936 . S
C2406 H2394 0.930 . S
C2406 C2407 1.399 1_554 S
C2406 C2411 1.399 1_554 S
C2407 C2406 1.399 1_556 S
C2407 C2408 1.376 . S
C2408 H2395 0.930 . S
C2408 C2407 1.376 . S
C2408 C2409 1.388 . S
C2409 H2396 0.930 . S
C2409 C2408 1.388 . S
C2409 C2410 1.390 . S
C2410 C2409 1.390 . S
C2410 C2411 1.394 . S
C2410 C2416 1.465 . S
C2411 C2406 1.399 1_556 S
C2411 C2410 1.394 . S
C2411 C2412 1.516 1_556 S
C2412 C2411 1.516 1_554 S
C2412 C2413 1.502 . S
C2412 C2414 1.561 1_554 S
C2412 C2415 1.526 1_554 S
C2413 H2397 0.959 . S
C2413 H2398 0.959 . S
C2413 H2399 0.961 . S
C2413 C2412 1.502 . S
C2414 H2400 0.953 1_556 S
C2414 H2401 0.961 1_556 S
C2414 H2402 0.959 . S
C2414 C2412 1.561 1_556 S
C2415 C2412 1.526 1_556 S
C2415 C2416 1.396 . S
C2415 C2420 1.388 1_556 S
C2416 C2410 1.465 . S
C2416 C2415 1.396 . S
C2416 C2417 1.399 . S
C2417 H2403 0.929 . S
C2417 C2416 1.399 . S
C2417 C2418 1.385 . S
C2418 H2404 0.931 . S
C2418 C2417 1.385 . S
C2418 C2419 1.389 . S
C2419 C2418 1.389 . S
C2419 C2420 1.382 1_556 S
C2420 H2405 0.936 . S
C2420 C2415 1.388 1_554 S
C2420 C2419 1.382 1_554 S
H2421 C2433 0.930 . S
H2422 C2435 0.930 . S
H2423 C2436 0.930 . S
H2424 C2440 0.959 . S
H2425 C2440 0.959 . S
H2426 C2440 0.961 . S
H2427 C2441 0.960 . S
H2428 C2441 0.961 . S
H2429 C2441 0.959 . S
H2430 C2444 0.929 . S
H2431 C2445 0.931 . S
H2432 C2447 0.930 . S
C2433 H2421 0.930 . S
C2433 C2434 1.399 . S
C2433 C2438 1.399 . S
C2434 C2433 1.399 . S
C2434 C2435 1.376 1_556 S
C2435 H2422 0.930 . S
C2435 C2434 1.376 1_554 S
C2435 C2436 1.388 . S
C2436 H2423 0.930 . S
C2436 C2435 1.388 . S
C2436 C2437 1.390 1_554 S
C2437 C2436 1.390 1_556 S
C2437 C2438 1.394 . S
C2437 C2443 1.465 . S
C2438 C2433 1.399 . S
C2438 C2437 1.394 . S
C2438 C2439 1.516 . S
C2439 C2438 1.516 . S
C2439 C2440 1.502 . S
C2439 C2441 1.561 . S
C2439 C2442 1.526 . S
C2440 H2424 0.959 . S
C2440 H2425 0.959 . S
C2440 H2426 0.961 . S
C2440 C2439 1.502 . S
C2441 H2427 0.960 . S
C2441 H2428 0.961 . S
C2441 H2429 0.959 . S
C2441 C2439 1.561 . S
C2442 C2439 1.526 . S
C2442 C2443 1.396 . S
C2442 C2447 1.390 . S
C2443 C2437 1.465 . S
C2443 C2442 1.396 . S
C2443 C2444 1.399 1_556 S
C2444 H2430 0.929 . S
C2444 C2443 1.399 1_554 S
C2444 C2445 1.385 . S
C2445 H2431 0.931 . S
C2445 C2444 1.385 . S
C2445 C2446 1.389 1_554 S
C2446 C2445 1.389 1_556 S
C2446 C2447 1.387 . S
C2447 H2432 0.930 . S
C2447 C2442 1.390 . S
C2447 C2446 1.387 . S
H2448 C2460 0.930 . S
H2449 C2462 0.930 . S
H2450 C2463 0.930 . S
H2451 C2467 0.959 . S
H2452 C2467 0.959 . S
H2453 C2467 0.961 . S
H2454 C2468 0.960 . S
H2455 C2468 0.961 . S
H2456 C2468 0.959 . S
H2457 C2471 0.929 . S
H2458 C2472 0.931 . S
H2459 C2474 0.930 . S
C2460 H2448 0.930 . S
C2460 C2461 1.399 1_554 S
C2460 C2465 1.399 . S
C2461 C2460 1.399 1_556 S
C2461 C2462 1.376 . S
C2462 H2449 0.930 . S
C2462 C2461 1.376 . S
C2462 C2463 1.388 . S
C2463 H2450 0.930 . S
C2463 C2462 1.388 . S
C2463 C2464 1.390 . S
C2464 C2463 1.390 . S
C2464 C2465 1.394 1_556 S
C2464 C2470 1.465 . S
C2465 C2460 1.399 . S
C2465 C2464 1.394 1_554 S
C2465 C2466 1.516 . S
C2466 C2465 1.516 . S
C2466 C2467 1.502 . S
C2466 C2468 1.561 . S
C2466 C2469 1.526 . S
C2467 H2451 0.959 . S
C2467 H2452 0.959 . S
C2467 H2453 0.961 . S
C2467 C2466 1.502 . S
C2468 H2454 0.960 . S
C2468 H2455 0.961 . S
C2468 H2456 0.959 . S
C2468 C2466 1.561 . S
C2469 C2466 1.526 . S
C2469 C2470 1.396 1_554 S
C2469 C2474 1.390 . S
C2470 C2464 1.465 . S
C2470 C2469 1.396 1_556 S
C2470 C2471 1.399 . S
C2471 H2457 0.929 . S
C2471 C2470 1.399 . S
C2471 C2472 1.385 . S
C2472 H2458 0.931 . S
C2472 C2471 1.385 . S
C2472 C2473 1.389 . S
C2473 C2472 1.389 . S
C2473 C2474 1.387 1_556 S
C2474 H2459 0.930 . S
C2474 C2469 1.390 . S
C2474 C2473 1.387 1_554 S
H2475 C2487 0.930 . S
H2476 C2489 0.930 . S
H2477 C2490 0.930 . S
H2478 C2494 0.959 . S
H2479 C2494 0.959 . S
H2480 C2494 0.961 . S
H2481 C2495 0.960 . S
H2482 C2495 0.961 . S
H2483 C2495 0.959 . S
H2484 C2498 0.929 . S
H2485 C2499 0.931 . S
H2486 C2501 0.930 . S
C2487 H2475 0.930 . S
C2487 C2488 1.399 1_556 S
C2487 C2492 1.399 . S
C2488 C2487 1.399 1_554 S
C2488 C2489 1.376 . S
C2489 H2476 0.930 . S
C2489 C2488 1.376 . S
C2489 C2490 1.388 . S
C2490 H2477 0.930 . S
C2490 C2489 1.388 . S
C2490 C2491 1.390 . S
C2491 C2490 1.390 . S
C2491 C2492 1.394 1_554 S
C2491 C2497 1.465 . S
C2492 C2487 1.399 . S
C2492 C2491 1.394 1_556 S
C2492 C2493 1.516 . S
C2493 C2492 1.516 . S
C2493 C2494 1.502 . S
C2493 C2495 1.561 . S
C2493 C2496 1.526 . S
C2494 H2478 0.959 . S
C2494 H2479 0.959 . S
C2494 H2480 0.961 . S
C2494 C2493 1.502 . S
C2495 H2481 0.960 . S
C2495 H2482 0.961 . S
C2495 H2483 0.959 . S
C2495 C2493 1.561 . S
C2496 C2493 1.526 . S
C2496 C2497 1.396 1_556 S
C2496 C2501 1.390 . S
C2497 C2491 1.465 . S
C2497 C2496 1.396 1_554 S
C2497 C2498 1.399 . S
C2498 H2484 0.929 . S
C2498 C2497 1.399 . S
C2498 C2499 1.385 . S
C2499 H2485 0.931 . S
C2499 C2498 1.385 . S
C2499 C2500 1.389 . S
C2500 C2499 1.389 . S
C2500 C2501 1.387 1_554 S
C2501 H2486 0.930 . S
C2501 C2496 1.390 . S
C2501 C2500 1.387 1_556 S
H2502 C2514 0.930 . S
H2503 C2516 0.930 . S
H2504 C2517 0.930 . S
H2505 C2521 0.959 . S
H2506 C2521 0.959 . S
H2507 C2521 0.961 . S
H2508 C2522 0.960 . S
H2509 C2522 0.961 . S
H2510 C2522 0.959 . S
H2511 C2525 0.929 . S
H2512 C2526 0.931 . S
H2513 C2528 0.930 . S
C2514 H2502 0.930 . S
C2514 C2515 1.399 . S
C2514 C2519 1.399 . S
C2515 C2514 1.399 . S
C2515 C2516 1.376 1_554 S
C2516 H2503 0.930 . S
C2516 C2515 1.376 1_556 S
C2516 C2517 1.388 . S
C2517 H2504 0.930 . S
C2517 C2516 1.388 . S
C2517 C2518 1.390 . S
C2518 C2517 1.390 . S
C2518 C2519 1.394 1_556 S
C2518 C2524 1.465 . S
C2519 C2514 1.399 . S
C2519 C2518 1.394 1_554 S
C2519 C2520 1.516 . S
C2520 C2519 1.516 . S
C2520 C2521 1.502 . S
C2520 C2522 1.561 . S
C2520 C2523 1.526 . S
C2521 H2505 0.959 . S
C2521 H2506 0.959 . S
C2521 H2507 0.961 . S
C2521 C2520 1.502 . S
C2522 H2508 0.960 . S
C2522 H2509 0.961 . S
C2522 H2510 0.959 . S
C2522 C2520 1.561 . S
C2523 C2520 1.526 . S
C2523 C2524 1.396 1_554 S
C2523 C2528 1.390 . S
C2524 C2518 1.465 . S
C2524 C2523 1.396 1_556 S
C2524 C2525 1.399 . S
C2525 H2511 0.929 . S
C2525 C2524 1.399 . S
C2525 C2526 1.385 . S
C2526 H2512 0.931 . S
C2526 C2525 1.385 . S
C2526 C2527 1.389 1_556 S
C2527 C2526 1.389 1_554 S
C2527 C2528 1.387 . S
C2528 H2513 0.930 . S
C2528 C2523 1.390 . S
C2528 C2527 1.387 . S
H2529 C2541 0.930 . S
H2530 C2543 0.930 . S
H2531 C2544 0.930 . S
H2532 C2548 0.959 . S
H2533 C2548 0.959 . S
H2534 C2548 0.961 . S
H2535 C2549 0.960 . S
H2536 C2549 0.961 . S
H2537 C2549 0.959 . S
H2538 C2552 0.929 . S
H2539 C2553 0.931 . S
H2540 C2555 0.930 . S
C2541 H2529 0.930 . S
C2541 C2542 1.399 . S
C2541 C2546 1.399 . S
C2542 C2541 1.399 . S
C2542 C2543 1.376 1_554 S
C2543 H2530 0.930 . S
C2543 C2542 1.376 1_556 S
C2543 C2544 1.388 . S
C2544 H2531 0.930 . S
C2544 C2543 1.388 . S
C2544 C2545 1.390 . S
C2545 C2544 1.390 . S
C2545 C2546 1.394 1_556 S
C2545 C2551 1.465 . S
C2546 C2541 1.399 . S
C2546 C2545 1.394 1_554 S
C2546 C2547 1.516 . S
C2547 C2546 1.516 . S
C2547 C2548 1.502 . S
C2547 C2549 1.561 . S
C2547 C2550 1.526 . S
C2548 H2532 0.959 . S
C2548 H2533 0.959 . S
C2548 H2534 0.961 . S
C2548 C2547 1.502 . S
C2549 H2535 0.960 . S
C2549 H2536 0.961 . S
C2549 H2537 0.959 . S
C2549 C2547 1.561 . S
C2550 C2547 1.526 . S
C2550 C2551 1.396 1_554 S
C2550 C2555 1.390 . S
C2551 C2545 1.465 . S
C2551 C2550 1.396 1_556 S
C2551 C2552 1.399 . S
C2552 H2538 0.929 . S
C2552 C2551 1.399 . S
C2552 C2553 1.385 . S
C2553 H2539 0.931 . S
C2553 C2552 1.385 . S
C2553 C2554 1.389 1_556 S
C2554 C2553 1.389 1_554 S
C2554 C2555 1.387 . S
C2555 H2540 0.930 . S
C2555 C2550 1.390 . S
C2555 C2554 1.387 . S
H2556 C2568 0.930 . S
H2557 C2570 0.930 . S
H2558 C2571 0.930 . S
H2559 C2575 0.959 . S
H2560 C2575 0.959 . S
H2561 C2575 0.961 . S
H2562 C2576 0.960 . S
H2563 C2576 0.961 . S
H2564 C2576 0.959 . S
H2565 C2579 0.929 . S
H2566 C2580 0.931 . S
H2567 C2582 0.930 . S
C2568 H2556 0.930 . S
C2568 C2569 1.399 . S
C2568 C2573 1.399 . S
C2569 C2568 1.399 . S
C2569 C2570 1.376 . S
C2570 H2557 0.930 . S
C2570 C2569 1.376 . S
C2570 C2571 1.388 . S
C2571 H2558 0.930 . S
C2571 C2570 1.388 . S
C2571 C2572 1.390 . S
C2572 C2571 1.390 . S
C2572 C2573 1.394 . S
C2572 C2578 1.465 . S
C2573 C2568 1.399 . S
C2573 C2572 1.394 . S
C2573 C2574 1.516 . S
C2574 C2573 1.516 . S
C2574 C2575 1.502 . S
C2574 C2576 1.561 . S
C2574 C2577 1.526 . S
C2575 H2559 0.959 . S
C2575 H2560 0.959 . S
C2575 H2561 0.961 . S
C2575 C2574 1.502 . S
C2576 H2562 0.960 . S
C2576 H2563 0.961 . S
C2576 H2564 0.959 . S
C2576 C2574 1.561 . S
C2577 C2574 1.526 . S
C2577 C2578 1.396 . S
C2577 C2582 1.390 . S
C2578 C2572 1.465 . S
C2578 C2577 1.396 . S
C2578 C2579 1.399 . S
C2579 H2565 0.929 . S
C2579 C2578 1.399 . S
C2579 C2580 1.385 . S
C2580 H2566 0.931 . S
C2580 C2579 1.385 . S
C2580 C2581 1.389 . S
C2581 C2580 1.389 . S
C2581 C2582 1.387 . S
C2582 H2567 0.930 . S
C2582 C2577 1.390 . S
C2582 C2581 1.387 . S
H2583 C2595 0.930 . S
H2584 C2597 0.930 . S
H2585 C2598 0.930 . S
H2586 C2602 0.959 . S
H2587 C2602 0.959 . S
H2588 C2602 0.961 . S
H2589 C2603 0.960 . S
H2590 C2603 0.961 . S
H2591 C2603 0.959 . S
H2592 C2606 0.929 . S
H2593 C2607 0.931 . S
H2594 C2609 0.930 . S
C2595 H2583 0.930 . S
C2595 C2596 1.399 . S
C2595 C2600 1.399 . S
C2596 C2595 1.399 . S
C2596 C2597 1.376 . S
C2597 H2584 0.930 . S
C2597 C2596 1.376 . S
C2597 C2598 1.388 . S
C2598 H2585 0.930 . S
C2598 C2597 1.388 . S
C2598 C2599 1.390 . S
C2599 C2598 1.390 . S
C2599 C2600 1.394 . S
C2599 C2605 1.465 . S
C2600 C2595 1.399 . S
C2600 C2599 1.394 . S
C2600 C2601 1.516 . S
C2601 C2600 1.516 . S
C2601 C2602 1.502 . S
C2601 C2603 1.561 . S
C2601 C2604 1.526 . S
C2602 H2586 0.959 . S
C2602 H2587 0.959 . S
C2602 H2588 0.961 . S
C2602 C2601 1.502 . S
C2603 H2589 0.960 . S
C2603 H2590 0.961 . S
C2603 H2591 0.959 . S
C2603 C2601 1.561 . S
C2604 C2601 1.526 . S
C2604 C2605 1.396 . S
C2604 C2609 1.390 . S
C2605 C2599 1.465 . S
C2605 C2604 1.396 . S
C2605 C2606 1.399 . S
C2606 H2592 0.929 . S
C2606 C2605 1.399 . S
C2606 C2607 1.385 . S
C2607 H2593 0.931 . S
C2607 C2606 1.385 . S
C2607 C2608 1.389 . S
C2608 C2607 1.389 . S
C2608 C2609 1.387 . S
C2609 H2594 0.930 . S
C2609 C2604 1.390 . S
C2609 C2608 1.387 . S
H2610 C2622 0.930 . S
H2611 C2624 0.930 . S
H2612 C2625 0.930 . S
H2613 C2629 0.959 . S
H2614 C2629 0.959 . S
H2615 C2629 0.961 . S
H2616 C2630 0.960 . S
H2617 C2630 0.961 . S
H2618 C2630 0.959 . S
H2619 C2633 0.929 . S
H2620 C2634 0.931 . S
H2621 C2636 0.930 . S
C2622 H2610 0.930 . S
C2622 C2623 1.399 . S
C2622 C2627 1.399 . S
C2623 C2622 1.399 . S
C2623 C2624 1.376 . S
C2624 H2611 0.930 . S
C2624 C2623 1.376 . S
C2624 C2625 1.388 . S
C2625 H2612 0.930 . S
C2625 C2624 1.388 . S
C2625 C2626 1.390 . S
C2626 C2625 1.390 . S
C2626 C2627 1.394 . S
C2626 C2632 1.465 . S
C2627 C2622 1.399 . S
C2627 C2626 1.394 . S
C2627 C2628 1.516 . S
C2628 C2627 1.516 . S
C2628 C2629 1.502 . S
C2628 C2630 1.561 . S
C2628 C2631 1.526 . S
C2629 H2613 0.959 . S
C2629 H2614 0.959 . S
C2629 H2615 0.961 . S
C2629 C2628 1.502 . S
C2630 H2616 0.960 . S
C2630 H2617 0.961 . S
C2630 H2618 0.959 . S
C2630 C2628 1.561 . S
C2631 C2628 1.526 . S
C2631 C2632 1.396 . S
C2631 C2636 1.390 . S
C2632 C2626 1.465 . S
C2632 C2631 1.396 . S
C2632 C2633 1.399 . S
C2633 H2619 0.929 . S
C2633 C2632 1.399 . S
C2633 C2634 1.385 . S
C2634 H2620 0.931 . S
C2634 C2633 1.385 . S
C2634 C2635 1.389 . S
C2635 C2634 1.389 . S
C2635 C2636 1.387 . S
C2636 H2621 0.930 . S
C2636 C2631 1.390 . S
C2636 C2635 1.387 . S
H2637 C2649 0.930 . S
H2638 C2651 0.930 . S
H2639 C2652 0.930 . S
H2640 C2656 0.959 . S
H2641 C2656 0.959 . S
H2642 C2656 0.961 . S
H2643 C2657 0.960 . S
H2644 C2657 0.961 . S
H2645 C2657 0.959 . S
H2646 C2660 0.929 . S
H2647 C2661 0.931 . S
H2648 C2663 0.930 . S
C2649 H2637 0.930 . S
C2649 C2650 1.399 . S
C2649 C2654 1.399 . S
C2650 C2649 1.399 . S
C2650 C2651 1.376 . S
C2651 H2638 0.930 . S
C2651 C2650 1.376 . S
C2651 C2652 1.388 . S
C2652 H2639 0.930 . S
C2652 C2651 1.388 . S
C2652 C2653 1.390 . S
C2653 C2652 1.390 . S
C2653 C2654 1.394 . S
C2653 C2659 1.465 . S
C2654 C2649 1.399 . S
C2654 C2653 1.394 . S
C2654 C2655 1.516 . S
C2655 C2654 1.516 . S
C2655 C2656 1.502 . S
C2655 C2657 1.561 . S
C2655 C2658 1.526 . S
C2656 H2640 0.959 . S
C2656 H2641 0.959 . S
C2656 H2642 0.961 . S
C2656 C2655 1.502 . S
C2657 H2643 0.960 . S
C2657 H2644 0.961 . S
C2657 H2645 0.959 . S
C2657 C2655 1.561 . S
C2658 C2655 1.526 . S
C2658 C2659 1.396 . S
C2658 C2663 1.390 . S
C2659 C2653 1.465 . S
C2659 C2658 1.396 . S
C2659 C2660 1.399 . S
C2660 H2646 0.929 . S
C2660 C2659 1.399 . S
C2660 C2661 1.385 . S
C2661 H2647 0.931 . S
C2661 C2660 1.385 . S
C2661 C2662 1.389 . S
C2662 C2661 1.389 . S
C2662 C2663 1.387 . S
C2663 H2648 0.930 . S
C2663 C2658 1.390 . S
C2663 C2662 1.387 . S
H2664 C2676 0.930 . S
H2665 C2678 0.930 . S
H2666 C2679 0.930 . S
H2667 C2683 0.959 . S
H2668 C2683 0.959 . S
H2669 C2683 0.961 . S
H2670 C2684 0.960 . S
H2671 C2684 0.961 . S
H2672 C2684 0.959 . S
H2673 C2687 0.929 . S
H2674 C2688 0.931 . S
H2675 C2690 0.930 . S
C2676 H2664 0.930 . S
C2676 C2677 1.399 . S
C2676 C2681 1.399 . S
C2677 C2676 1.399 . S
C2677 C2678 1.376 . S
C2678 H2665 0.930 . S
C2678 C2677 1.376 . S
C2678 C2679 1.388 . S
C2679 H2666 0.930 . S
C2679 C2678 1.388 . S
C2679 C2680 1.390 . S
C2680 C2679 1.390 . S
C2680 C2681 1.394 . S
C2680 C2686 1.465 . S
C2681 C2676 1.399 . S
C2681 C2680 1.394 . S
C2681 C2682 1.516 . S
C2682 C2681 1.516 . S
C2682 C2683 1.502 . S
C2682 C2684 1.561 . S
C2682 C2685 1.526 . S
C2683 H2667 0.959 . S
C2683 H2668 0.959 . S
C2683 H2669 0.961 . S
C2683 C2682 1.502 . S
C2684 H2670 0.960 . S
C2684 H2671 0.961 . S
C2684 H2672 0.959 . S
C2684 C2682 1.561 . S
C2685 C2682 1.526 . S
C2685 C2686 1.396 . S
C2685 C2690 1.390 . S
C2686 C2680 1.465 . S
C2686 C2685 1.396 . S
C2686 C2687 1.399 . S
C2687 H2673 0.929 . S
C2687 C2686 1.399 . S
C2687 C2688 1.385 . S
C2688 H2674 0.931 . S
C2688 C2687 1.385 . S
C2688 C2689 1.389 . S
C2689 C2688 1.389 . S
C2689 C2690 1.387 . S
C2690 H2675 0.930 . S
C2690 C2685 1.390 . S
C2690 C2689 1.387 . S
H2691 C2703 0.930 . S
H2692 C2705 0.930 . S
H2693 C2706 0.930 . S
H2694 C2710 0.959 . S
H2695 C2710 0.959 . S
H2696 C2710 0.961 . S
H2697 C2711 0.960 . S
H2698 C2711 0.961 . S
H2699 C2711 0.959 . S
H2700 C2714 0.929 . S
H2701 C2715 0.931 . S
H2702 C2717 0.930 . S
C2703 H2691 0.930 . S
C2703 C2704 1.399 . S
C2703 C2708 1.399 . S
C2704 C2703 1.399 . S
C2704 C2705 1.376 . S
C2705 H2692 0.930 . S
C2705 C2704 1.376 . S
C2705 C2706 1.388 . S
C2706 H2693 0.930 . S
C2706 C2705 1.388 . S
C2706 C2707 1.390 . S
C2707 C2706 1.390 . S
C2707 C2708 1.394 . S
C2707 C2713 1.465 . S
C2708 C2703 1.399 . S
C2708 C2707 1.394 . S
C2708 C2709 1.516 . S
C2709 C2708 1.516 . S
C2709 C2710 1.502 . S
C2709 C2711 1.561 . S
C2709 C2712 1.526 . S
C2710 H2694 0.959 . S
C2710 H2695 0.959 . S
C2710 H2696 0.961 . S
C2710 C2709 1.502 . S
C2711 H2697 0.960 . S
C2711 H2698 0.961 . S
C2711 H2699 0.959 . S
C2711 C2709 1.561 . S
C2712 C2709 1.526 . S
C2712 C2713 1.396 . S
C2712 C2717 1.390 . S
C2713 C2707 1.465 . S
C2713 C2712 1.396 . S
C2713 C2714 1.399 . S
C2714 H2700 0.929 . S
C2714 C2713 1.399 . S
C2714 C2715 1.385 . S
C2715 H2701 0.931 . S
C2715 C2714 1.385 . S
C2715 C2716 1.389 . S
C2716 C2715 1.389 . S
C2716 C2717 1.387 . S
C2717 H2702 0.930 . S
C2717 C2712 1.390 . S
C2717 C2716 1.387 . S
H2718 C2730 0.930 . S
H2719 C2732 0.930 . S
H2720 C2733 0.930 . S
H2721 C2737 0.959 . S
H2722 C2737 0.959 . S
H2723 C2737 0.961 . S
H2724 C2738 0.960 . S
H2725 C2738 0.961 . S
H2726 C2738 0.959 . S
H2727 C2741 0.929 . S
H2728 C2742 0.931 . S
H2729 C2744 0.930 . S
C2730 H2718 0.930 . S
C2730 C2731 1.399 . S
C2730 C2735 1.399 . S
C2731 C2730 1.399 . S
C2731 C2732 1.376 . S
C2732 H2719 0.930 . S
C2732 C2731 1.376 . S
C2732 C2733 1.388 . S
C2733 H2720 0.930 . S
C2733 C2732 1.388 . S
C2733 C2734 1.390 . S
C2734 C2733 1.390 . S
C2734 C2735 1.394 . S
C2734 C2740 1.465 . S
C2735 C2730 1.399 . S
C2735 C2734 1.394 . S
C2735 C2736 1.516 . S
C2736 C2735 1.516 . S
C2736 C2737 1.502 . S
C2736 C2738 1.561 . S
C2736 C2739 1.526 . S
C2737 H2721 0.959 . S
C2737 H2722 0.959 . S
C2737 H2723 0.961 . S
C2737 C2736 1.502 . S
C2738 H2724 0.960 . S
C2738 H2725 0.961 . S
C2738 H2726 0.959 . S
C2738 C2736 1.561 . S
C2739 C2736 1.526 . S
C2739 C2740 1.396 . S
C2739 C2744 1.390 . S
C2740 C2734 1.465 . S
C2740 C2739 1.396 . S
C2740 C2741 1.399 . S
C2741 H2727 0.929 . S
C2741 C2740 1.399 . S
C2741 C2742 1.385 . S
C2742 H2728 0.931 . S
C2742 C2741 1.385 . S
C2742 C2743 1.389 . S
C2743 C2742 1.389 . S
C2743 C2744 1.387 . S
C2744 H2729 0.930 . S
C2744 C2739 1.390 . S
C2744 C2743 1.387 . S
H2745 C2757 0.930 . S
H2746 C2759 0.930 . S
H2747 C2760 0.930 . S
H2748 C2764 0.959 . S
H2749 C2764 0.959 . S
H2750 C2764 0.961 . S
H2751 C2765 0.960 . S
H2752 C2765 0.961 . S
H2753 C2765 0.959 . S
H2754 C2768 0.929 . S
H2755 C2769 0.931 . S
H2756 C2771 0.930 . S
C2757 H2745 0.930 . S
C2757 C2758 1.399 . S
C2757 C2762 1.399 . S
C2758 C2757 1.399 . S
C2758 C2759 1.376 . S
C2759 H2746 0.930 . S
C2759 C2758 1.376 . S
C2759 C2760 1.388 . S
C2760 H2747 0.930 . S
C2760 C2759 1.388 . S
C2760 C2761 1.390 . S
C2761 C2760 1.390 . S
C2761 C2762 1.394 . S
C2761 C2767 1.465 . S
C2762 C2757 1.399 . S
C2762 C2761 1.394 . S
C2762 C2763 1.516 . S
C2763 C2762 1.516 . S
C2763 C2764 1.502 . S
C2763 C2765 1.561 . S
C2763 C2766 1.526 . S
C2764 H2748 0.959 . S
C2764 H2749 0.959 . S
C2764 H2750 0.961 . S
C2764 C2763 1.502 . S
C2765 H2751 0.960 . S
C2765 H2752 0.961 . S
C2765 H2753 0.959 . S
C2765 C2763 1.561 . S
C2766 C2763 1.526 . S
C2766 C2767 1.396 . S
C2766 C2771 1.390 . S
C2767 C2761 1.465 . S
C2767 C2766 1.396 . S
C2767 C2768 1.399 . S
C2768 H2754 0.929 . S
C2768 C2767 1.399 . S
C2768 C2769 1.385 . S
C2769 H2755 0.931 . S
C2769 C2768 1.385 . S
C2769 C2770 1.389 . S
C2770 C2769 1.389 . S
C2770 C2771 1.387 . S
C2771 H2756 0.930 . S
C2771 C2766 1.390 . S
C2771 C2770 1.387 . S
H2772 C2784 0.930 . S
H2773 C2786 0.930 . S
H2774 C2787 0.930 . S
H2775 C2791 0.959 . S
H2776 C2791 0.959 . S
H2777 C2791 0.961 . S
H2778 C2792 0.960 . S
H2779 C2792 0.961 . S
H2780 C2792 0.959 . S
H2781 C2795 0.929 . S
H2782 C2796 0.931 . S
H2783 C2798 0.930 . S
C2784 H2772 0.930 . S
C2784 C2785 1.399 . S
C2784 C2789 1.399 . S
C2785 C2784 1.399 . S
C2785 C2786 1.376 . S
C2786 H2773 0.930 . S
C2786 C2785 1.376 . S
C2786 C2787 1.388 . S
C2787 H2774 0.930 . S
C2787 C2786 1.388 . S
C2787 C2788 1.390 . S
C2788 C2787 1.390 . S
C2788 C2789 1.394 . S
C2788 C2794 1.465 . S
C2789 C2784 1.399 . S
C2789 C2788 1.394 . S
C2789 C2790 1.516 . S
C2790 C2789 1.516 . S
C2790 C2791 1.502 . S
C2790 C2792 1.561 . S
C2790 C2793 1.526 . S
C2791 H2775 0.959 . S
C2791 H2776 0.959 . S
C2791 H2777 0.961 . S
C2791 C2790 1.502 . S
C2792 H2778 0.960 . S
C2792 H2779 0.961 . S
C2792 H2780 0.959 . S
C2792 C2790 1.561 . S
C2793 C2790 1.526 . S
C2793 C2794 1.396 . S
C2793 C2798 1.390 . S
C2794 C2788 1.465 . S
C2794 C2793 1.396 . S
C2794 C2795 1.399 . S
C2795 H2781 0.929 . S
C2795 C2794 1.399 . S
C2795 C2796 1.385 . S
C2796 H2782 0.931 . S
C2796 C2795 1.385 . S
C2796 C2797 1.389 . S
C2797 C2796 1.389 . S
C2797 C2798 1.387 . S
C2798 H2783 0.930 . S
C2798 C2793 1.390 . S
C2798 C2797 1.387 . S
H2799 C2811 0.930 . S
H2800 C2813 0.930 . S
H2801 C2814 0.930 . S
H2802 C2818 0.959 . S
H2803 C2818 0.959 . S
H2804 C2818 0.961 . S
H2805 C2819 0.960 . S
H2806 C2819 0.961 . S
H2807 C2819 0.959 . S
H2808 C2822 0.929 . S
H2809 C2823 0.931 . S
H2810 C2825 0.930 . S
C2811 H2799 0.930 . S
C2811 C2812 1.399 . S
C2811 C2816 1.399 . S
C2812 C2811 1.399 . S
C2812 C2813 1.376 . S
C2813 H2800 0.930 . S
C2813 C2812 1.376 . S
C2813 C2814 1.388 . S
C2814 H2801 0.930 . S
C2814 C2813 1.388 . S
C2814 C2815 1.390 . S
C2815 C2814 1.390 . S
C2815 C2816 1.394 . S
C2815 C2821 1.465 . S
C2816 C2811 1.399 . S
C2816 C2815 1.394 . S
C2816 C2817 1.516 . S
C2817 C2816 1.516 . S
C2817 C2818 1.502 . S
C2817 C2819 1.561 . S
C2817 C2820 1.526 . S
C2818 H2802 0.959 . S
C2818 H2803 0.959 . S
C2818 H2804 0.961 . S
C2818 C2817 1.502 . S
C2819 H2805 0.960 . S
C2819 H2806 0.961 . S
C2819 H2807 0.959 . S
C2819 C2817 1.561 . S
C2820 C2817 1.526 . S
C2820 C2821 1.396 . S
C2820 C2825 1.390 . S
C2821 C2815 1.465 . S
C2821 C2820 1.396 . S
C2821 C2822 1.399 . S
C2822 H2808 0.929 . S
C2822 C2821 1.399 . S
C2822 C2823 1.385 . S
C2823 H2809 0.931 . S
C2823 C2822 1.385 . S
C2823 C2824 1.389 . S
C2824 C2823 1.389 . S
C2824 C2825 1.387 . S
C2825 H2810 0.930 . S
C2825 C2820 1.390 . S
C2825 C2824 1.387 . S
H2826 C2838 0.930 . S
H2827 C2840 0.930 . S
H2828 C2841 0.930 . S
H2829 C2845 0.959 . S
H2830 C2845 0.959 . S
H2831 C2845 0.961 . S
H2832 C2846 0.960 . S
H2833 C2846 0.961 . S
H2834 C2846 0.959 . S
H2835 C2849 0.929 . S
H2836 C2850 0.931 . S
H2837 C2852 0.930 . S
C2838 H2826 0.930 . S
C2838 C2839 1.399 . S
C2838 C2843 1.399 . S
C2839 C2838 1.399 . S
C2839 C2840 1.376 . S
C2840 H2827 0.930 . S
C2840 C2839 1.376 . S
C2840 C2841 1.388 . S
C2841 H2828 0.930 . S
C2841 C2840 1.388 . S
C2841 C2842 1.390 . S
C2842 C2841 1.390 . S
C2842 C2843 1.394 . S
C2842 C2848 1.465 . S
C2843 C2838 1.399 . S
C2843 C2842 1.394 . S
C2843 C2844 1.516 . S
C2844 C2843 1.516 . S
C2844 C2845 1.502 . S
C2844 C2846 1.561 . S
C2844 C2847 1.526 . S
C2845 H2829 0.959 . S
C2845 H2830 0.959 . S
C2845 H2831 0.961 . S
C2845 C2844 1.502 . S
C2846 H2832 0.960 . S
C2846 H2833 0.961 . S
C2846 H2834 0.959 . S
C2846 C2844 1.561 . S
C2847 C2844 1.526 . S
C2847 C2848 1.396 . S
C2847 C2852 1.390 . S
C2848 C2842 1.465 . S
C2848 C2847 1.396 . S
C2848 C2849 1.399 . S
C2849 H2835 0.929 . S
C2849 C2848 1.399 . S
C2849 C2850 1.385 . S
C2850 H2836 0.931 . S
C2850 C2849 1.385 . S
C2850 C2851 1.389 . S
C2851 C2850 1.389 . S
C2851 C2852 1.387 . S
C2852 H2837 0.930 . S
C2852 C2847 1.390 . S
C2852 C2851 1.387 . S
H2853 C2865 0.930 . S
H2854 C2867 0.930 . S
H2855 C2868 0.930 . S
H2856 C2872 0.959 . S
H2857 C2872 0.959 . S
H2858 C2872 0.961 . S
H2859 C2873 0.960 . S
H2860 C2873 0.961 . S
H2861 C2873 0.959 . S
H2862 C2876 0.929 . S
H2863 C2877 0.931 . S
H2864 C2879 0.930 . S
C2865 H2853 0.930 . S
C2865 C2866 1.399 . S
C2865 C2870 1.399 . S
C2866 C2865 1.399 . S
C2866 C2867 1.376 . S
C2867 H2854 0.930 . S
C2867 C2866 1.376 . S
C2867 C2868 1.388 . S
C2868 H2855 0.930 . S
C2868 C2867 1.388 . S
C2868 C2869 1.390 . S
C2869 C2868 1.390 . S
C2869 C2870 1.394 . S
C2869 C2875 1.465 . S
C2870 C2865 1.399 . S
C2870 C2869 1.394 . S
C2870 C2871 1.516 . S
C2871 C2870 1.516 . S
C2871 C2872 1.502 . S
C2871 C2873 1.561 . S
C2871 C2874 1.526 . S
C2872 H2856 0.959 . S
C2872 H2857 0.959 . S
C2872 H2858 0.961 . S
C2872 C2871 1.502 . S
C2873 H2859 0.960 . S
C2873 H2860 0.961 . S
C2873 H2861 0.959 . S
C2873 C2871 1.561 . S
C2874 C2871 1.526 . S
C2874 C2875 1.396 . S
C2874 C2879 1.390 . S
C2875 C2869 1.465 . S
C2875 C2874 1.396 . S
C2875 C2876 1.399 . S
C2876 H2862 0.929 . S
C2876 C2875 1.399 . S
C2876 C2877 1.385 . S
C2877 H2863 0.931 . S
C2877 C2876 1.385 . S
C2877 C2878 1.389 . S
C2878 C2877 1.389 . S
C2878 C2879 1.387 . S
C2879 H2864 0.930 . S
C2879 C2874 1.390 . S
C2879 C2878 1.387 . S
H2880 C2892 0.930 . S
H2881 C2894 0.930 . S
H2882 C2895 0.930 . S
H2883 C2899 0.959 . S
H2884 C2899 0.959 . S
H2885 C2899 0.961 . S
H2886 C2900 0.960 . S
H2887 C2900 0.961 . S
H2888 C2900 0.959 . S
H2889 C2903 0.929 . S
H2890 C2904 0.931 . S
H2891 C2906 0.930 . S
C2892 H2880 0.930 . S
C2892 C2893 1.399 . S
C2892 C2897 1.399 . S
C2893 C2892 1.399 . S
C2893 C2894 1.376 . S
C2894 H2881 0.930 . S
C2894 C2893 1.376 . S
C2894 C2895 1.388 . S
C2895 H2882 0.930 . S
C2895 C2894 1.388 . S
C2895 C2896 1.390 . S
C2896 C2895 1.390 . S
C2896 C2897 1.394 . S
C2896 C2902 1.465 . S
C2897 C2892 1.399 . S
C2897 C2896 1.394 . S
C2897 C2898 1.516 . S
C2898 C2897 1.516 . S
C2898 C2899 1.502 . S
C2898 C2900 1.561 . S
C2898 C2901 1.526 . S
C2899 H2883 0.959 . S
C2899 H2884 0.959 . S
C2899 H2885 0.961 . S
C2899 C2898 1.502 . S
C2900 H2886 0.960 . S
C2900 H2887 0.961 . S
C2900 H2888 0.959 . S
C2900 C2898 1.561 . S
C2901 C2898 1.526 . S
C2901 C2902 1.396 . S
C2901 C2906 1.390 . S
C2902 C2896 1.465 . S
C2902 C2901 1.396 . S
C2902 C2903 1.399 . S
C2903 H2889 0.929 . S
C2903 C2902 1.399 . S
C2903 C2904 1.385 . S
C2904 H2890 0.931 . S
C2904 C2903 1.385 . S
C2904 C2905 1.389 . S
C2905 C2904 1.389 . S
C2905 C2906 1.387 . S
C2906 H2891 0.930 . S
C2906 C2901 1.390 . S
C2906 C2905 1.387 . S
H2907 C2919 0.930 . S
H2908 C2921 0.930 . S
H2909 C2922 0.930 . S
H2910 C2926 0.959 . S
H2911 C2926 0.959 . S
H2912 C2926 0.961 . S
H2913 C2927 0.960 . S
H2914 C2927 0.961 . S
H2915 C2927 0.959 . S
H2916 C2930 0.929 . S
H2917 C2931 0.931 . S
H2918 C2933 0.930 . S
C2919 H2907 0.930 . S
C2919 C2920 1.399 . S
C2919 C2924 1.399 . S
C2920 C2919 1.399 . S
C2920 C2921 1.376 . S
C2921 H2908 0.930 . S
C2921 C2920 1.376 . S
C2921 C2922 1.388 . S
C2922 H2909 0.930 . S
C2922 C2921 1.388 . S
C2922 C2923 1.390 . S
C2923 C2922 1.390 . S
C2923 C2924 1.394 . S
C2923 C2929 1.465 . S
C2924 C2919 1.399 . S
C2924 C2923 1.394 . S
C2924 C2925 1.516 . S
C2925 C2924 1.516 . S
C2925 C2926 1.502 . S
C2925 C2927 1.561 . S
C2925 C2928 1.526 . S
C2926 H2910 0.959 . S
C2926 H2911 0.959 . S
C2926 H2912 0.961 . S
C2926 C2925 1.502 . S
C2927 H2913 0.960 . S
C2927 H2914 0.961 . S
C2927 H2915 0.959 . S
C2927 C2925 1.561 . S
C2928 C2925 1.526 . S
C2928 C2929 1.396 . S
C2928 C2933 1.390 . S
C2929 C2923 1.465 . S
C2929 C2928 1.396 . S
C2929 C2930 1.399 . S
C2930 H2916 0.929 . S
C2930 C2929 1.399 . S
C2930 C2931 1.385 . S
C2931 H2917 0.931 . S
C2931 C2930 1.385 . S
C2931 C2932 1.389 . S
C2932 C2931 1.389 . S
C2932 C2933 1.387 . S
C2933 H2918 0.930 . S
C2933 C2928 1.390 . S
C2933 C2932 1.387 . S
H2934 C2946 0.930 . S
H2935 C2948 0.930 . S
H2936 C2949 0.930 . S
H2937 C2953 0.959 . S
H2938 C2953 0.959 . S
H2939 C2953 0.961 . S
H2940 C2954 0.960 . S
H2941 C2954 0.961 . S
H2942 C2954 0.959 . S
H2943 C2957 0.929 . S
H2944 C2958 0.931 . S
H2945 C2960 0.930 . S
C2946 H2934 0.930 . S
C2946 C2947 1.399 . S
C2946 C2951 1.399 . S
C2947 C2946 1.399 . S
C2947 C2948 1.376 . S
C2948 H2935 0.930 . S
C2948 C2947 1.376 . S
C2948 C2949 1.388 . S
C2949 H2936 0.930 . S
C2949 C2948 1.388 . S
C2949 C2950 1.390 . S
C2950 C2949 1.390 . S
C2950 C2951 1.394 . S
C2950 C2956 1.465 . S
C2951 C2946 1.399 . S
C2951 C2950 1.394 . S
C2951 C2952 1.516 . S
C2952 C2951 1.516 . S
C2952 C2953 1.502 . S
C2952 C2954 1.561 . S
C2952 C2955 1.526 . S
C2953 H2937 0.959 . S
C2953 H2938 0.959 . S
C2953 H2939 0.961 . S
C2953 C2952 1.502 . S
C2954 H2940 0.960 . S
C2954 H2941 0.961 . S
C2954 H2942 0.959 . S
C2954 C2952 1.561 . S
C2955 C2952 1.526 . S
C2955 C2956 1.396 . S
C2955 C2960 1.390 . S
C2956 C2950 1.465 . S
C2956 C2955 1.396 . S
C2956 C2957 1.399 . S
C2957 H2943 0.929 . S
C2957 C2956 1.399 . S
C2957 C2958 1.385 . S
C2958 H2944 0.931 . S
C2958 C2957 1.385 . S
C2958 C2959 1.389 . S
C2959 C2958 1.389 . S
C2959 C2960 1.387 . S
C2960 H2945 0.930 . S
C2960 C2955 1.390 . S
C2960 C2959 1.387 . S
H2961 C2973 0.930 . S
H2962 C2975 0.930 . S
H2963 C2976 0.930 . S
H2964 C2980 0.959 . S
H2965 C2980 0.959 . S
H2966 C2980 0.961 . S
H2967 C2981 0.960 . S
H2968 C2981 0.961 . S
H2969 C2981 0.959 . S
H2970 C2984 0.929 . S
H2971 C2985 0.931 . S
H2972 C2987 0.930 . S
C2973 H2961 0.930 . S
C2973 C2974 1.399 . S
C2973 C2978 1.399 . S
C2974 C2973 1.399 . S
C2974 C2975 1.376 . S
C2975 H2962 0.930 . S
C2975 C2974 1.376 . S
C2975 C2976 1.388 . S
C2976 H2963 0.930 . S
C2976 C2975 1.388 . S
C2976 C2977 1.390 . S
C2977 C2976 1.390 . S
C2977 C2978 1.394 . S
C2977 C2983 1.465 . S
C2978 C2973 1.399 . S
C2978 C2977 1.394 . S
C2978 C2979 1.516 . S
C2979 C2978 1.516 . S
C2979 C2980 1.502 . S
C2979 C2981 1.561 . S
C2979 C2982 1.526 . S
C2980 H2964 0.959 . S
C2980 H2965 0.959 . S
C2980 H2966 0.961 . S
C2980 C2979 1.502 . S
C2981 H2967 0.960 . S
C2981 H2968 0.961 . S
C2981 H2969 0.959 . S
C2981 C2979 1.561 . S
C2982 C2979 1.526 . S
C2982 C2983 1.396 . S
C2982 C2987 1.390 . S
C2983 C2977 1.465 . S
C2983 C2982 1.396 . S
C2983 C2984 1.399 . S
C2984 H2970 0.929 . S
C2984 C2983 1.399 . S
C2984 C2985 1.385 . S
C2985 H2971 0.931 . S
C2985 C2984 1.385 . S
C2985 C2986 1.389 . S
C2986 C2985 1.389 . S
C2986 C2987 1.387 . S
C2987 H2972 0.930 . S
C2987 C2982 1.390 . S
C2987 C2986 1.387 . S
H2988 C3000 0.930 . S
H2989 C3002 0.930 . S
H2990 C3003 0.930 . S
H2991 C3007 0.959 . S
H2992 C3007 0.959 . S
H2993 C3007 0.961 . S
H2994 C3008 0.960 . S
H2995 C3008 0.961 . S
H2996 C3008 0.959 . S
H2997 C3011 0.929 . S
H2998 C3012 0.931 . S
H2999 C3014 0.930 . S
C3000 H2988 0.930 . S
C3000 C3001 1.399 . S
C3000 C3005 1.399 . S
C3001 C3000 1.399 . S
C3001 C3002 1.376 . S
C3002 H2989 0.930 . S
C3002 C3001 1.376 . S
C3002 C3003 1.388 . S
C3003 H2990 0.930 . S
C3003 C3002 1.388 . S
C3003 C3004 1.390 . S
C3004 C3003 1.390 . S
C3004 C3005 1.394 . S
C3004 C3010 1.465 . S
C3005 C3000 1.399 . S
C3005 C3004 1.394 . S
C3005 C3006 1.516 . S
C3006 C3005 1.516 . S
C3006 C3007 1.502 . S
C3006 C3008 1.561 . S
C3006 C3009 1.526 . S
C3007 H2991 0.959 . S
C3007 H2992 0.959 . S
C3007 H2993 0.961 . S
C3007 C3006 1.502 . S
C3008 H2994 0.960 . S
C3008 H2995 0.961 . S
C3008 H2996 0.959 . S
C3008 C3006 1.561 . S
C3009 C3006 1.526 . S
C3009 C3010 1.396 . S
C3009 C3014 1.390 . S
C3010 C3004 1.465 . S
C3010 C3009 1.396 . S
C3010 C3011 1.399 . S
C3011 H2997 0.929 . S
C3011 C3010 1.399 . S
C3011 C3012 1.385 . S
C3012 H2998 0.931 . S
C3012 C3011 1.385 . S
C3012 C3013 1.389 . S
C3013 C3012 1.389 . S
C3013 C3014 1.387 . S
C3014 H2999 0.930 . S
C3014 C3009 1.390 . S
C3014 C3013 1.387 . S
H3015 C3027 0.930 . S
H3016 C3029 0.930 . S
H3017 C3030 0.930 . S
H3018 C3034 0.959 . S
H3019 C3034 0.959 . S
H3020 C3034 0.961 . S
H3021 C3035 0.960 . S
H3022 C3035 0.961 . S
H3023 C3035 0.959 . S
H3024 C3038 0.929 . S
H3025 C3039 0.931 . S
H3026 C3041 0.930 . S
C3027 H3015 0.930 . S
C3027 C3028 1.399 . S
C3027 C3032 1.399 . S
C3028 C3027 1.399 . S
C3028 C3029 1.376 . S
C3029 H3016 0.930 . S
C3029 C3028 1.376 . S
C3029 C3030 1.388 . S
C3030 H3017 0.930 . S
C3030 C3029 1.388 . S
C3030 C3031 1.390 . S
C3031 C3030 1.390 . S
C3031 C3032 1.394 . S
C3031 C3037 1.465 . S
C3032 C3027 1.399 . S
C3032 C3031 1.394 . S
C3032 C3033 1.516 . S
C3033 C3032 1.516 . S
C3033 C3034 1.502 . S
C3033 C3035 1.561 . S
C3033 C3036 1.526 . S
C3034 H3018 0.959 . S
C3034 H3019 0.959 . S
C3034 H3020 0.961 . S
C3034 C3033 1.502 . S
C3035 H3021 0.960 . S
C3035 H3022 0.961 . S
C3035 H3023 0.959 . S
C3035 C3033 1.561 . S
C3036 C3033 1.526 . S
C3036 C3037 1.396 . S
C3036 C3041 1.390 . S
C3037 C3031 1.465 . S
C3037 C3036 1.396 . S
C3037 C3038 1.399 . S
C3038 H3024 0.929 . S
C3038 C3037 1.399 . S
C3038 C3039 1.385 . S
C3039 H3025 0.931 . S
C3039 C3038 1.385 . S
C3039 C3040 1.389 . S
C3040 C3039 1.389 . S
C3040 C3041 1.387 . S
C3041 H3026 0.930 . S
C3041 C3036 1.390 . S
C3041 C3040 1.387 . S
H3042 C3054 0.930 . S
H3043 C3056 0.930 . S
H3044 C3057 0.930 . S
H3045 C3061 0.959 . S
H3046 C3061 0.959 . S
H3047 C3061 0.961 . S
H3048 C3062 0.960 . S
H3049 C3062 0.961 . S
H3050 C3062 0.959 . S
H3051 C3065 0.929 . S
H3052 C3066 0.931 . S
H3053 C3068 0.930 . S
C3054 H3042 0.930 . S
C3054 C3055 1.399 . S
C3054 C3059 1.399 . S
C3055 C3054 1.399 . S
C3055 C3056 1.376 . S
C3056 H3043 0.930 . S
C3056 C3055 1.376 . S
C3056 C3057 1.388 . S
C3057 H3044 0.930 . S
C3057 C3056 1.388 . S
C3057 C3058 1.390 . S
C3058 C3057 1.390 . S
C3058 C3059 1.394 . S
C3058 C3064 1.465 . S
C3059 C3054 1.399 . S
C3059 C3058 1.394 . S
C3059 C3060 1.516 . S
C3060 C3059 1.516 . S
C3060 C3061 1.502 . S
C3060 C3062 1.561 . S
C3060 C3063 1.526 . S
C3061 H3045 0.959 . S
C3061 H3046 0.959 . S
C3061 H3047 0.961 . S
C3061 C3060 1.502 . S
C3062 H3048 0.960 . S
C3062 H3049 0.961 . S
C3062 H3050 0.959 . S
C3062 C3060 1.561 . S
C3063 C3060 1.526 . S
C3063 C3064 1.396 . S
C3063 C3068 1.390 . S
C3064 C3058 1.465 . S
C3064 C3063 1.396 . S
C3064 C3065 1.399 . S
C3065 H3051 0.929 . S
C3065 C3064 1.399 . S
C3065 C3066 1.385 . S
C3066 H3052 0.931 . S
C3066 C3065 1.385 . S
C3066 C3067 1.389 . S
C3067 C3066 1.389 . S
C3067 C3068 1.387 . S
C3068 H3053 0.930 . S
C3068 C3063 1.390 . S
C3068 C3067 1.387 . S
H3069 C3081 0.930 . S
H3070 C3083 0.930 . S
H3071 C3084 0.930 . S
H3072 C3088 0.959 . S
H3073 C3088 0.959 . S
H3074 C3088 0.961 . S
H3075 C3089 0.960 . S
H3076 C3089 0.961 . S
H3077 C3089 0.959 . S
H3078 C3092 0.929 . S
H3079 C3093 0.931 . S
H3080 C3095 0.930 . S
C3081 H3069 0.930 . S
C3081 C3082 1.399 . S
C3081 C3086 1.399 . S
C3082 C3081 1.399 . S
C3082 C3083 1.376 . S
C3083 H3070 0.930 . S
C3083 C3082 1.376 . S
C3083 C3084 1.388 . S
C3084 H3071 0.930 . S
C3084 C3083 1.388 . S
C3084 C3085 1.390 . S
C3085 C3084 1.390 . S
C3085 C3086 1.394 . S
C3085 C3091 1.465 . S
C3086 C3081 1.399 . S
C3086 C3085 1.394 . S
C3086 C3087 1.516 . S
C3087 C3086 1.516 . S
C3087 C3088 1.502 . S
C3087 C3089 1.561 . S
C3087 C3090 1.526 . S
C3088 H3072 0.959 . S
C3088 H3073 0.959 . S
C3088 H3074 0.961 . S
C3088 C3087 1.502 . S
C3089 H3075 0.960 . S
C3089 H3076 0.961 . S
C3089 H3077 0.959 . S
C3089 C3087 1.561 . S
C3090 C3087 1.526 . S
C3090 C3091 1.396 . S
C3090 C3095 1.390 . S
C3091 C3085 1.465 . S
C3091 C3090 1.396 . S
C3091 C3092 1.399 . S
C3092 H3078 0.929 . S
C3092 C3091 1.399 . S
C3092 C3093 1.385 . S
C3093 H3079 0.931 . S
C3093 C3092 1.385 . S
C3093 C3094 1.389 . S
C3094 C3093 1.389 . S
C3094 C3095 1.387 . S
C3095 H3080 0.930 . S
C3095 C3090 1.390 . S
C3095 C3094 1.387 . S
H3096 C3108 0.930 . S
H3097 C3110 0.930 . S
H3098 C3111 0.930 . S
H3099 C3115 0.959 . S
H3100 C3115 0.959 . S
H3101 C3115 0.961 . S
H3102 C3116 0.960 . S
H3103 C3116 0.961 . S
H3104 C3116 0.959 . S
H3105 C3119 0.929 . S
H3106 C3120 0.931 . S
H3107 C3122 0.930 . S
C3108 H3096 0.930 . S
C3108 C3109 1.399 . S
C3108 C3113 1.399 . S
C3109 C3108 1.399 . S
C3109 C3110 1.376 . S
C3110 H3097 0.930 . S
C3110 C3109 1.376 . S
C3110 C3111 1.388 . S
C3111 H3098 0.930 . S
C3111 C3110 1.388 . S
C3111 C3112 1.390 . S
C3112 C3111 1.390 . S
C3112 C3113 1.394 . S
C3112 C3118 1.465 . S
C3113 C3108 1.399 . S
C3113 C3112 1.394 . S
C3113 C3114 1.516 . S
C3114 C3113 1.516 . S
C3114 C3115 1.502 . S
C3114 C3116 1.561 . S
C3114 C3117 1.526 . S
C3115 H3099 0.959 . S
C3115 H3100 0.959 . S
C3115 H3101 0.961 . S
C3115 C3114 1.502 . S
C3116 H3102 0.960 . S
C3116 H3103 0.961 . S
C3116 H3104 0.959 . S
C3116 C3114 1.561 . S
C3117 C3114 1.526 . S
C3117 C3118 1.396 . S
C3117 C3122 1.390 . S
C3118 C3112 1.465 . S
C3118 C3117 1.396 . S
C3118 C3119 1.399 . S
C3119 H3105 0.929 . S
C3119 C3118 1.399 . S
C3119 C3120 1.385 . S
C3120 H3106 0.931 . S
C3120 C3119 1.385 . S
C3120 C3121 1.389 . S
C3121 C3120 1.389 . S
C3121 C3122 1.387 . S
C3122 H3107 0.930 . S
C3122 C3117 1.390 . S
C3122 C3121 1.387 . S
H3123 C3135 0.930 . S
H3124 C3137 0.930 . S
H3125 C3138 0.930 . S
H3126 C3142 0.959 . S
H3127 C3142 0.959 . S
H3128 C3142 0.961 . S
H3129 C3143 0.960 . S
H3130 C3143 0.961 . S
H3131 C3143 0.959 . S
H3132 C3146 0.929 . S
H3133 C3147 0.931 . S
H3134 C3149 0.930 . S
C3135 H3123 0.930 . S
C3135 C3136 1.399 . S
C3135 C3140 1.399 . S
C3136 C3135 1.399 . S
C3136 C3137 1.376 . S
C3137 H3124 0.930 . S
C3137 C3136 1.376 . S
C3137 C3138 1.388 . S
C3138 H3125 0.930 . S
C3138 C3137 1.388 . S
C3138 C3139 1.390 . S
C3139 C3138 1.390 . S
C3139 C3140 1.394 . S
C3139 C3145 1.465 . S
C3140 C3135 1.399 . S
C3140 C3139 1.394 . S
C3140 C3141 1.516 . S
C3141 C3140 1.516 . S
C3141 C3142 1.502 . S
C3141 C3143 1.561 . S
C3141 C3144 1.526 . S
C3142 H3126 0.959 . S
C3142 H3127 0.959 . S
C3142 H3128 0.961 . S
C3142 C3141 1.502 . S
C3143 H3129 0.960 . S
C3143 H3130 0.961 . S
C3143 H3131 0.959 . S
C3143 C3141 1.561 . S
C3144 C3141 1.526 . S
C3144 C3145 1.396 . S
C3144 C3149 1.390 . S
C3145 C3139 1.465 . S
C3145 C3144 1.396 . S
C3145 C3146 1.399 . S
C3146 H3132 0.929 . S
C3146 C3145 1.399 . S
C3146 C3147 1.385 . S
C3147 H3133 0.931 . S
C3147 C3146 1.385 . S
C3147 C3148 1.389 . S
C3148 C3147 1.389 . S
C3148 C3149 1.387 . S
C3149 H3134 0.930 . S
C3149 C3144 1.390 . S
C3149 C3148 1.387 . S
H3150 C3162 0.930 . S
H3151 C3164 0.930 . S
H3152 C3165 0.930 . S
H3153 C3169 0.959 . S
H3154 C3169 0.959 . S
H3155 C3169 0.961 . S
H3156 C3170 0.960 . S
H3157 C3170 0.961 . S
H3158 C3170 0.959 . S
H3159 C3173 0.929 . S
H3160 C3174 0.931 . S
H3161 C3176 0.930 . S
C3162 H3150 0.930 . S
C3162 C3163 1.399 . S
C3162 C3167 1.399 . S
C3163 C3162 1.399 . S
C3163 C3164 1.376 . S
C3164 H3151 0.930 . S
C3164 C3163 1.376 . S
C3164 C3165 1.388 . S
C3165 H3152 0.930 . S
C3165 C3164 1.388 . S
C3165 C3166 1.390 . S
C3166 C3165 1.390 . S
C3166 C3167 1.394 . S
C3166 C3172 1.465 . S
C3167 C3162 1.399 . S
C3167 C3166 1.394 . S
C3167 C3168 1.516 . S
C3168 C3167 1.516 . S
C3168 C3169 1.502 . S
C3168 C3170 1.561 . S
C3168 C3171 1.526 . S
C3169 H3153 0.959 . S
C3169 H3154 0.959 . S
C3169 H3155 0.961 . S
C3169 C3168 1.502 . S
C3170 H3156 0.960 . S
C3170 H3157 0.961 . S
C3170 H3158 0.959 . S
C3170 C3168 1.561 . S
C3171 C3168 1.526 . S
C3171 C3172 1.396 . S
C3171 C3176 1.390 . S
C3172 C3166 1.465 . S
C3172 C3171 1.396 . S
C3172 C3173 1.399 . S
C3173 H3159 0.929 . S
C3173 C3172 1.399 . S
C3173 C3174 1.385 . S
C3174 H3160 0.931 . S
C3174 C3173 1.385 . S
C3174 C3175 1.389 . S
C3175 C3174 1.389 . S
C3175 C3176 1.387 . S
C3176 H3161 0.930 . S
C3176 C3171 1.390 . S
C3176 C3175 1.387 . S
H3177 C3189 0.930 . S
H3178 C3191 0.930 . S
H3179 C3192 0.930 . S
H3180 C3196 0.959 . S
H3181 C3196 0.959 . S
H3182 C3196 0.961 . S
H3183 C3197 0.960 . S
H3184 C3197 0.961 . S
H3185 C3197 0.959 . S
H3186 C3200 0.929 . S
H3187 C3201 0.931 . S
H3188 C3203 0.930 . S
C3189 H3177 0.930 . S
C3189 C3190 1.399 . S
C3189 C3194 1.399 . S
C3190 C3189 1.399 . S
C3190 C3191 1.376 . S
C3191 H3178 0.930 . S
C3191 C3190 1.376 . S
C3191 C3192 1.388 . S
C3192 H3179 0.930 . S
C3192 C3191 1.388 . S
C3192 C3193 1.390 . S
C3193 C3192 1.390 . S
C3193 C3194 1.394 . S
C3193 C3199 1.465 . S
C3194 C3189 1.399 . S
C3194 C3193 1.394 . S
C3194 C3195 1.516 . S
C3195 C3194 1.516 . S
C3195 C3196 1.502 . S
C3195 C3197 1.561 . S
C3195 C3198 1.526 . S
C3196 H3180 0.959 . S
C3196 H3181 0.959 . S
C3196 H3182 0.961 . S
C3196 C3195 1.502 . S
C3197 H3183 0.960 . S
C3197 H3184 0.961 . S
C3197 H3185 0.959 . S
C3197 C3195 1.561 . S
C3198 C3195 1.526 . S
C3198 C3199 1.396 . S
C3198 C3203 1.390 . S
C3199 C3193 1.465 . S
C3199 C3198 1.396 . S
C3199 C3200 1.399 . S
C3200 H3186 0.929 . S
C3200 C3199 1.399 . S
C3200 C3201 1.385 . S
C3201 H3187 0.931 . S
C3201 C3200 1.385 . S
C3201 C3202 1.389 . S
C3202 C3201 1.389 . S
C3202 C3203 1.387 . S
C3203 H3188 0.930 . S
C3203 C3198 1.390 . S
C3203 C3202 1.387 . S
H3204 C3216 0.930 . S
H3205 C3218 0.930 . S
H3206 C3219 0.930 . S
H3207 C3223 0.959 . S
H3208 C3223 0.959 . S
H3209 C3223 0.961 . S
H3210 C3224 0.960 . S
H3211 C3224 0.961 . S
H3212 C3224 0.959 . S
H3213 C3227 0.929 . S
H3214 C3228 0.931 . S
H3215 C3230 0.930 . S
C3216 H3204 0.930 . S
C3216 C3217 1.399 . S
C3216 C3221 1.399 . S
C3217 C3216 1.399 . S
C3217 C3218 1.376 . S
C3218 H3205 0.930 . S
C3218 C3217 1.376 . S
C3218 C3219 1.388 . S
C3219 H3206 0.930 . S
C3219 C3218 1.388 . S
C3219 C3220 1.390 . S
C3220 C3219 1.390 . S
C3220 C3221 1.394 . S
C3220 C3226 1.465 . S
C3221 C3216 1.399 . S
C3221 C3220 1.394 . S
C3221 C3222 1.516 . S
C3222 C3221 1.516 . S
C3222 C3223 1.502 . S
C3222 C3224 1.561 . S
C3222 C3225 1.526 . S
C3223 H3207 0.959 . S
C3223 H3208 0.959 . S
C3223 H3209 0.961 . S
C3223 C3222 1.502 . S
C3224 H3210 0.960 . S
C3224 H3211 0.961 . S
C3224 H3212 0.959 . S
C3224 C3222 1.561 . S
C3225 C3222 1.526 . S
C3225 C3226 1.396 . S
C3225 C3230 1.390 . S
C3226 C3220 1.465 . S
C3226 C3225 1.396 . S
C3226 C3227 1.399 . S
C3227 H3213 0.929 . S
C3227 C3226 1.399 . S
C3227 C3228 1.385 . S
C3228 H3214 0.931 . S
C3228 C3227 1.385 . S
C3228 C3229 1.389 . S
C3229 C3228 1.389 . S
C3229 C3230 1.387 . S
C3230 H3215 0.930 . S
C3230 C3225 1.390 . S
C3230 C3229 1.387 . S
H3231 C3243 0.930 . S
H3232 C3245 0.930 . S
H3233 C3246 0.930 . S
H3234 C3250 0.959 1_545 S
H3235 C3250 0.959 . S
H3236 C3250 0.961 . S
H3237 C3251 0.960 . S
H3238 C3251 0.961 . S
H3239 C3251 0.959 . S
H3240 C3254 0.932 . S
H3241 C3255 0.931 . S
H3242 C3257 0.930 . S
C3243 H3231 0.930 . S
C3243 C3244 1.399 . S
C3243 C3248 1.399 . S
C3244 C3243 1.399 . S
C3244 C3245 1.376 . S
C3245 H3232 0.930 . S
C3245 C3244 1.376 . S
C3245 C3246 1.388 . S
C3246 H3233 0.930 . S
C3246 C3245 1.388 . S
C3246 C3247 1.390 . S
C3247 C3246 1.390 . S
C3247 C3248 1.394 . S
C3247 C3253 1.439 1_545 S
C3248 C3243 1.399 . S
C3248 C3247 1.394 . S
C3248 C3249 1.516 1_545 S
C3249 C3248 1.516 1_565 S
C3249 C3250 1.502 . S
C3249 C3251 1.561 . S
C3249 C3252 1.526 . S
C3250 H3234 0.959 1_565 S
C3250 H3235 0.959 . S
C3250 H3236 0.961 . S
C3250 C3249 1.502 . S
C3251 H3237 0.960 . S
C3251 H3238 0.961 . S
C3251 H3239 0.959 . S
C3251 C3249 1.561 . S
C3252 C3249 1.526 . S
C3252 C3253 1.409 . S
C3252 C3257 1.390 . S
C3253 C3247 1.439 1_565 S
C3253 C3252 1.409 . S
C3253 C3254 1.426 1_565 S
C3254 H3240 0.932 . S
C3254 C3253 1.426 1_545 S
C3254 C3255 1.377 1_545 S
C3255 H3241 0.931 . S
C3255 C3254 1.377 1_565 S
C3255 C3256 1.389 . S
C3256 C3255 1.389 . S
C3256 C3257 1.387 . S
C3257 H3242 0.930 . S
C3257 C3252 1.390 . S
C3257 C3256 1.387 . S
H3258 C3270 0.930 . S
H3259 C3272 0.930 . S
H3260 C3273 0.930 . S
H3261 C3277 0.959 . S
H3262 C3277 0.959 . S
H3263 C3277 0.960 1_455 S
H3264 C3278 0.960 . S
H3265 C3278 0.961 . S
H3266 C3278 0.959 . S
H3267 C3281 0.929 . S
H3268 C3282 0.931 . S
H3269 C3284 0.930 . S
C3270 H3258 0.930 . S
C3270 C3271 1.399 . S
C3270 C3275 1.399 . S
C3271 C3270 1.399 . S
C3271 C3272 1.376 . S
C3272 H3259 0.930 . S
C3272 C3271 1.376 . S
C3272 C3273 1.388 . S
C3273 H3260 0.930 . S
C3273 C3272 1.388 . S
C3273 C3274 1.390 . S
C3274 C3273 1.390 . S
C3274 C3275 1.394 . S
C3274 C3280 1.465 1_455 S
C3275 C3270 1.399 . S
C3275 C3274 1.394 . S
C3275 C3276 1.516 . S
C3276 C3275 1.516 . S
C3276 C3277 1.502 1_455 S
C3276 C3278 1.561 . S
C3276 C3279 1.526 1_455 S
C3277 H3261 0.959 . S
C3277 H3262 0.959 . S
C3277 H3263 0.960 1_655 S
C3277 C3276 1.502 1_655 S
C3278 H3264 0.960 . S
C3278 H3265 0.961 . S
C3278 H3266 0.959 . S
C3278 C3276 1.561 . S
C3279 C3276 1.526 1_655 S
C3279 C3280 1.396 . S
C3279 C3284 1.390 . S
C3280 C3274 1.465 1_655 S
C3280 C3279 1.396 . S
C3280 C3281 1.399 . S
C3281 H3267 0.929 . S
C3281 C3280 1.399 . S
C3281 C3282 1.385 . S
C3282 H3268 0.931 . S
C3282 C3281 1.385 . S
C3282 C3283 1.389 . S
C3283 C3282 1.389 . S
C3283 C3284 1.387 . S
C3284 H3269 0.930 . S
C3284 C3279 1.390 . S
C3284 C3283 1.387 . S
H3285 C3297 0.930 . S
H3286 C3299 0.930 . S
H3287 C3300 0.930 . S
H3288 C3304 0.959 . S
H3289 C3304 0.959 . S
H3290 C3304 0.961 . S
H3291 C3305 0.960 . S
H3292 C3305 0.961 . S
H3293 C3305 0.959 . S
H3294 C3308 0.929 . S
H3295 C3309 0.931 . S
H3296 C3311 0.930 . S
C3297 H3285 0.930 . S
C3297 C3298 1.399 . S
C3297 C3302 1.399 . S
C3298 C3297 1.399 . S
C3298 C3299 1.376 . S
C3299 H3286 0.930 . S
C3299 C3298 1.376 . S
C3299 C3300 1.388 . S
C3300 H3287 0.930 . S
C3300 C3299 1.388 . S
C3300 C3301 1.390 . S
C3301 C3300 1.390 . S
C3301 C3302 1.394 . S
C3301 C3307 1.465 . S
C3302 C3297 1.399 . S
C3302 C3301 1.394 . S
C3302 C3303 1.516 . S
C3303 C3302 1.516 . S
C3303 C3304 1.502 . S
C3303 C3305 1.561 . S
C3303 C3306 1.526 . S
C3304 H3288 0.959 . S
C3304 H3289 0.959 . S
C3304 H3290 0.961 . S
C3304 C3303 1.502 . S
C3305 H3291 0.960 . S
C3305 H3292 0.961 . S
C3305 H3293 0.959 . S
C3305 C3303 1.561 . S
C3306 C3303 1.526 . S
C3306 C3307 1.396 . S
C3306 C3311 1.390 . S
C3307 C3301 1.465 . S
C3307 C3306 1.396 . S
C3307 C3308 1.399 . S
C3308 H3294 0.929 . S
C3308 C3307 1.399 . S
C3308 C3309 1.385 . S
C3309 H3295 0.931 . S
C3309 C3308 1.385 . S
C3309 C3310 1.389 . S
C3310 C3309 1.389 . S
C3310 C3311 1.387 . S
C3311 H3296 0.930 . S
C3311 C3306 1.390 . S
C3311 C3310 1.387 . S
H3312 C3324 0.930 . S
H3313 C3326 0.908 1_545 S
H3314 C3327 0.930 . S
H3315 C3331 0.959 . S
H3316 C3331 0.959 . S
H3317 C3331 0.961 . S
H3318 C3332 0.960 . S
H3319 C3332 0.961 . S
H3320 C3332 0.959 . S
H3321 C3335 0.929 . S
H3322 C3336 0.931 . S
H3323 C3338 0.930 1_565 S
C3324 H3312 0.930 . S
C3324 C3325 1.399 . S
C3324 C3329 1.399 . S
C3325 C3324 1.399 . S
C3325 C3326 1.376 . S
C3326 H3313 0.908 1_565 S
C3326 C3325 1.376 . S
C3326 C3327 1.388 1_565 S
C3327 H3314 0.930 . S
C3327 C3326 1.388 1_545 S
C3327 C3328 1.390 . S
C3328 C3327 1.390 . S
C3328 C3329 1.394 1_545 S
C3328 C3334 1.465 . S
C3329 C3324 1.399 . S
C3329 C3328 1.394 1_565 S
C3329 C3330 1.516 . S
C3330 C3329 1.516 . S
C3330 C3331 1.502 . S
C3330 C3332 1.561 . S
C3330 C3333 1.526 1_565 S
C3331 H3315 0.959 . S
C3331 H3316 0.959 . S
C3331 H3317 0.961 . S
C3331 C3330 1.502 . S
C3332 H3318 0.960 . S
C3332 H3319 0.961 . S
C3332 H3320 0.959 . S
C3332 C3330 1.561 . S
C3333 C3330 1.526 1_545 S
C3333 C3334 1.396 . S
C3333 C3338 1.389 . S
C3334 C3328 1.465 . S
C3334 C3333 1.396 . S
C3334 C3335 1.399 . S
C3335 H3321 0.929 . S
C3335 C3334 1.399 . S
C3335 C3336 1.385 . S
C3336 H3322 0.931 . S
C3336 C3335 1.385 . S
C3336 C3337 1.389 . S
C3337 C3336 1.389 . S
C3337 C3338 1.387 . S
C3338 H3323 0.930 1_545 S
C3338 C3333 1.389 . S
C3338 C3337 1.387 . S
H3339 C3351 0.930 . S
H3340 C3353 0.930 . S
H3341 C3354 0.930 . S
H3342 C3358 0.959 . S
H3343 C3358 0.959 . S
H3344 C3358 0.961 . S
H3345 C3359 0.960 . S
H3346 C3359 0.961 . S
H3347 C3359 0.959 . S
H3348 C3362 0.894 1_455 S
H3349 C3363 0.931 . S
H3350 C3365 0.930 . S
C3351 H3339 0.930 . S
C3351 C3352 1.399 . S
C3351 C3356 1.399 . S
C3352 C3351 1.399 . S
C3352 C3353 1.376 . S
C3353 H3340 0.930 . S
C3353 C3352 1.376 . S
C3353 C3354 1.388 . S
C3354 H3341 0.930 . S
C3354 C3353 1.388 . S
C3354 C3355 1.390 . S
C3355 C3354 1.390 . S
C3355 C3356 1.394 . S
C3355 C3361 1.465 . S
C3356 C3351 1.399 . S
C3356 C3355 1.394 . S
C3356 C3357 1.516 . S
C3357 C3356 1.516 . S
C3357 C3358 1.502 1_455 S
C3357 C3359 1.561 . S
C3357 C3360 1.526 1_455 S
C3358 H3342 0.959 . S
C3358 H3343 0.959 . S
C3358 H3344 0.961 . S
C3358 C3357 1.502 1_655 S
C3359 H3345 0.960 . S
C3359 H3346 0.961 . S
C3359 H3347 0.959 . S
C3359 C3357 1.561 . S
C3360 C3357 1.526 1_655 S
C3360 C3361 1.396 1_655 S
C3360 C3365 1.390 . S
C3361 C3355 1.465 . S
C3361 C3360 1.396 1_455 S
C3361 C3362 1.399 1_455 S
C3362 H3348 0.894 1_655 S
C3362 C3361 1.399 1_655 S
C3362 C3363 1.385 . S
C3363 H3349 0.931 . S
C3363 C3362 1.385 . S
C3363 C3364 1.389 . S
C3364 C3363 1.389 . S
C3364 C3365 1.387 . S
C3365 H3350 0.930 . S
C3365 C3360 1.390 . S
C3365 C3364 1.387 . S
H3366 C3378 0.930 . S
H3367 C3380 0.930 . S
H3368 C3381 0.930 . S
H3369 C3385 0.959 . S
H3370 C3385 0.959 . S
H3371 C3385 0.961 . S
H3372 C3386 0.960 . S
H3373 C3386 0.961 . S
H3374 C3386 0.959 . S
H3375 C3389 0.929 . S
H3376 C3390 0.931 . S
H3377 C3392 0.930 . S
C3378 H3366 0.930 . S
C3378 C3379 1.399 . S
C3378 C3383 1.399 . S
C3379 C3378 1.399 . S
C3379 C3380 1.376 . S
C3380 H3367 0.930 . S
C3380 C3379 1.376 . S
C3380 C3381 1.388 . S
C3381 H3368 0.930 . S
C3381 C3380 1.388 . S
C3381 C3382 1.390 . S
C3382 C3381 1.390 . S
C3382 C3383 1.394 . S
C3382 C3388 1.465 . S
C3383 C3378 1.399 . S
C3383 C3382 1.394 . S
C3383 C3384 1.516 . S
C3384 C3383 1.516 . S
C3384 C3385 1.502 . S
C3384 C3386 1.561 . S
C3384 C3387 1.526 . S
C3385 H3369 0.959 . S
C3385 H3370 0.959 . S
C3385 H3371 0.961 . S
C3385 C3384 1.502 . S
C3386 H3372 0.960 . S
C3386 H3373 0.961 . S
C3386 H3374 0.959 . S
C3386 C3384 1.561 . S
C3387 C3384 1.526 . S
C3387 C3388 1.396 . S
C3387 C3392 1.390 . S
C3388 C3382 1.465 . S
C3388 C3387 1.396 . S
C3388 C3389 1.399 . S
C3389 H3375 0.929 . S
C3389 C3388 1.399 . S
C3389 C3390 1.385 . S
C3390 H3376 0.931 . S
C3390 C3389 1.385 . S
C3390 C3391 1.389 . S
C3391 C3390 1.389 . S
C3391 C3392 1.387 . S
C3392 H3377 0.930 . S
C3392 C3387 1.390 . S
C3392 C3391 1.387 . S
H3393 C3405 0.930 . S
H3394 C3407 0.930 . S
H3395 C3408 0.930 . S
H3396 C3412 0.959 . S
H3397 C3412 0.959 . S
H3398 C3412 0.961 . S
H3399 C3413 0.960 . S
H3400 C3413 0.961 . S
H3401 C3413 0.959 . S
H3402 C3416 0.929 . S
H3403 C3417 0.931 . S
H3404 C3419 0.930 . S
C3405 H3393 0.930 . S
C3405 C3406 1.399 . S
C3405 C3410 1.399 . S
C3406 C3405 1.399 . S
C3406 C3407 1.376 . S
C3407 H3394 0.930 . S
C3407 C3406 1.376 . S
C3407 C3408 1.388 . S
C3408 H3395 0.930 . S
C3408 C3407 1.388 . S
C3408 C3409 1.390 . S
C3409 C3408 1.390 . S
C3409 C3410 1.394 . S
C3409 C3415 1.465 . S
C3410 C3405 1.399 . S
C3410 C3409 1.394 . S
C3410 C3411 1.516 . S
C3411 C3410 1.516 . S
C3411 C3412 1.502 . S
C3411 C3413 1.561 . S
C3411 C3414 1.526 . S
C3412 H3396 0.959 . S
C3412 H3397 0.959 . S
C3412 H3398 0.961 . S
C3412 C3411 1.502 . S
C3413 H3399 0.960 . S
C3413 H3400 0.961 . S
C3413 H3401 0.959 . S
C3413 C3411 1.561 . S
C3414 C3411 1.526 . S
C3414 C3415 1.396 . S
C3414 C3419 1.390 . S
C3415 C3409 1.465 . S
C3415 C3414 1.396 . S
C3415 C3416 1.399 . S
C3416 H3402 0.929 . S
C3416 C3415 1.399 . S
C3416 C3417 1.385 . S
C3417 H3403 0.931 . S
C3417 C3416 1.385 . S
C3417 C3418 1.389 . S
C3418 C3417 1.389 . S
C3418 C3419 1.387 . S
C3419 H3404 0.930 . S
C3419 C3414 1.390 . S
C3419 C3418 1.387 . S
H3420 C3432 0.930 . S
H3421 C3434 0.930 . S
H3422 C3435 0.930 . S
H3423 C3439 0.959 . S
H3424 C3439 0.959 . S
H3425 C3439 0.961 . S
H3426 C3440 0.960 . S
H3427 C3440 0.961 . S
H3428 C3440 0.959 . S
H3429 C3443 0.929 . S
H3430 C3444 0.931 . S
H3431 C3446 0.930 . S
C3432 H3420 0.930 . S
C3432 C3433 1.399 . S
C3432 C3437 1.399 . S
C3433 C3432 1.399 . S
C3433 C3434 1.376 . S
C3434 H3421 0.930 . S
C3434 C3433 1.376 . S
C3434 C3435 1.388 . S
C3435 H3422 0.930 . S
C3435 C3434 1.388 . S
C3435 C3436 1.390 . S
C3436 C3435 1.390 . S
C3436 C3437 1.394 . S
C3436 C3442 1.465 . S
C3437 C3432 1.399 . S
C3437 C3436 1.394 . S
C3437 C3438 1.516 . S
C3438 C3437 1.516 . S
C3438 C3439 1.502 . S
C3438 C3440 1.561 . S
C3438 C3441 1.526 . S
C3439 H3423 0.959 . S
C3439 H3424 0.959 . S
C3439 H3425 0.961 . S
C3439 C3438 1.502 . S
C3440 H3426 0.960 . S
C3440 H3427 0.961 . S
C3440 H3428 0.959 . S
C3440 C3438 1.561 . S
C3441 C3438 1.526 . S
C3441 C3442 1.396 . S
C3441 C3446 1.390 . S
C3442 C3436 1.465 . S
C3442 C3441 1.396 . S
C3442 C3443 1.399 . S
C3443 H3429 0.929 . S
C3443 C3442 1.399 . S
C3443 C3444 1.385 . S
C3444 H3430 0.931 . S
C3444 C3443 1.385 . S
C3444 C3445 1.389 . S
C3445 C3444 1.389 . S
C3445 C3446 1.387 . S
C3446 H3431 0.930 . S
C3446 C3441 1.390 . S
C3446 C3445 1.387 . S
H3447 C3459 0.930 . S
H3448 C3461 0.930 . S
H3449 C3462 0.930 . S
H3450 C3466 0.959 . S
H3451 C3466 0.959 . S
H3452 C3466 0.961 . S
H3453 C3467 0.960 . S
H3454 C3467 0.961 . S
H3455 C3467 0.959 . S
H3456 C3470 0.929 . S
H3457 C3471 0.931 . S
H3458 C3473 0.930 . S
C3459 H3447 0.930 . S
C3459 C3460 1.399 . S
C3459 C3464 1.399 . S
C3460 C3459 1.399 . S
C3460 C3461 1.376 . S
C3461 H3448 0.930 . S
C3461 C3460 1.376 . S
C3461 C3462 1.388 . S
C3462 H3449 0.930 . S
C3462 C3461 1.388 . S
C3462 C3463 1.390 . S
C3463 C3462 1.390 . S
C3463 C3464 1.394 . S
C3463 C3469 1.465 . S
C3464 C3459 1.399 . S
C3464 C3463 1.394 . S
C3464 C3465 1.516 . S
C3465 C3464 1.516 . S
C3465 C3466 1.502 . S
C3465 C3467 1.561 . S
C3465 C3468 1.526 . S
C3466 H3450 0.959 . S
C3466 H3451 0.959 . S
C3466 H3452 0.961 . S
C3466 C3465 1.502 . S
C3467 H3453 0.960 . S
C3467 H3454 0.961 . S
C3467 H3455 0.959 . S
C3467 C3465 1.561 . S
C3468 C3465 1.526 . S
C3468 C3469 1.396 . S
C3468 C3473 1.390 . S
C3469 C3463 1.465 . S
C3469 C3468 1.396 . S
C3469 C3470 1.399 . S
C3470 H3456 0.929 . S
C3470 C3469 1.399 . S
C3470 C3471 1.385 . S
C3471 H3457 0.931 . S
C3471 C3470 1.385 . S
C3471 C3472 1.389 . S
C3472 C3471 1.389 . S
C3472 C3473 1.387 . S
C3473 H3458 0.930 . S
C3473 C3468 1.390 . S
C3473 C3472 1.387 . S
H3474 C3486 0.930 . S
H3475 C3488 0.930 . S
H3476 C3489 0.930 . S
H3477 C3493 0.959 . S
H3478 C3493 0.959 . S
H3479 C3493 0.961 . S
H3480 C3494 0.960 . S
H3481 C3494 0.961 . S
H3482 C3494 0.959 . S
H3483 C3497 0.929 . S
H3484 C3498 0.931 . S
H3485 C3500 0.930 . S
C3486 H3474 0.930 . S
C3486 C3487 1.399 . S
C3486 C3491 1.399 . S
C3487 C3486 1.399 . S
C3487 C3488 1.376 . S
C3488 H3475 0.930 . S
C3488 C3487 1.376 . S
C3488 C3489 1.388 . S
C3489 H3476 0.930 . S
C3489 C3488 1.388 . S
C3489 C3490 1.390 . S
C3490 C3489 1.390 . S
C3490 C3491 1.394 . S
C3490 C3496 1.465 . S
C3491 C3486 1.399 . S
C3491 C3490 1.394 . S
C3491 C3492 1.516 . S
C3492 C3491 1.516 . S
C3492 C3493 1.502 . S
C3492 C3494 1.561 . S
C3492 C3495 1.526 . S
C3493 H3477 0.959 . S
C3493 H3478 0.959 . S
C3493 H3479 0.961 . S
C3493 C3492 1.502 . S
C3494 H3480 0.960 . S
C3494 H3481 0.961 . S
C3494 H3482 0.959 . S
C3494 C3492 1.561 . S
C3495 C3492 1.526 . S
C3495 C3496 1.396 . S
C3495 C3500 1.390 . S
C3496 C3490 1.465 . S
C3496 C3495 1.396 . S
C3496 C3497 1.399 . S
C3497 H3483 0.929 . S
C3497 C3496 1.399 . S
C3497 C3498 1.385 . S
C3498 H3484 0.931 . S
C3498 C3497 1.385 . S
C3498 C3499 1.389 . S
C3499 C3498 1.389 . S
C3499 C3500 1.387 . S
C3500 H3485 0.930 . S
C3500 C3495 1.390 . S
C3500 C3499 1.387 . S
H3501 C3513 0.930 . S
H3502 C3515 0.930 . S
H3503 C3516 0.930 . S
H3504 C3520 0.959 . S
H3505 C3520 0.959 . S
H3506 C3520 0.961 . S
H3507 C3521 0.960 . S
H3508 C3521 0.961 . S
H3509 C3521 0.959 . S
H3510 C3524 0.929 . S
H3511 C3525 0.931 . S
H3512 C3527 0.930 . S
C3513 H3501 0.930 . S
C3513 C3514 1.399 . S
C3513 C3518 1.399 . S
C3514 C3513 1.399 . S
C3514 C3515 1.376 . S
C3515 H3502 0.930 . S
C3515 C3514 1.376 . S
C3515 C3516 1.388 . S
C3516 H3503 0.930 . S
C3516 C3515 1.388 . S
C3516 C3517 1.390 . S
C3517 C3516 1.390 . S
C3517 C3518 1.394 . S
C3517 C3523 1.465 . S
C3518 C3513 1.399 . S
C3518 C3517 1.394 . S
C3518 C3519 1.516 . S
C3519 C3518 1.516 . S
C3519 C3520 1.502 . S
C3519 C3521 1.561 . S
C3519 C3522 1.526 . S
C3520 H3504 0.959 . S
C3520 H3505 0.959 . S
C3520 H3506 0.961 . S
C3520 C3519 1.502 . S
C3521 H3507 0.960 . S
C3521 H3508 0.961 . S
C3521 H3509 0.959 . S
C3521 C3519 1.561 . S
C3522 C3519 1.526 . S
C3522 C3523 1.396 . S
C3522 C3527 1.390 . S
C3523 C3517 1.465 . S
C3523 C3522 1.396 . S
C3523 C3524 1.399 . S
C3524 H3510 0.929 . S
C3524 C3523 1.399 . S
C3524 C3525 1.385 . S
C3525 H3511 0.931 . S
C3525 C3524 1.385 . S
C3525 C3526 1.389 . S
C3526 C3525 1.389 . S
C3526 C3527 1.387 . S
C3527 H3512 0.930 . S
C3527 C3522 1.390 . S
C3527 C3526 1.387 . S
H3528 C3540 0.930 . S
H3529 C3542 0.930 . S
H3530 C3543 0.930 . S
H3531 C3547 0.959 . S
H3532 C3547 0.959 . S
H3533 C3547 0.961 . S
H3534 C3548 0.960 . S
H3535 C3548 0.961 . S
H3536 C3548 0.959 . S
H3537 C3551 0.929 . S
H3538 C3552 0.931 . S
H3539 C3554 0.930 . S
C3540 H3528 0.930 . S
C3540 C3541 1.399 . S
C3540 C3545 1.399 . S
C3541 C3540 1.399 . S
C3541 C3542 1.376 . S
C3542 H3529 0.930 . S
C3542 C3541 1.376 . S
C3542 C3543 1.388 . S
C3543 H3530 0.930 . S
C3543 C3542 1.388 . S
C3543 C3544 1.390 . S
C3544 C3543 1.390 . S
C3544 C3545 1.394 . S
C3544 C3550 1.465 . S
C3545 C3540 1.399 . S
C3545 C3544 1.394 . S
C3545 C3546 1.516 . S
C3546 C3545 1.516 . S
C3546 C3547 1.502 . S
C3546 C3548 1.561 . S
C3546 C3549 1.526 . S
C3547 H3531 0.959 . S
C3547 H3532 0.959 . S
C3547 H3533 0.961 . S
C3547 C3546 1.502 . S
C3548 H3534 0.960 . S
C3548 H3535 0.961 . S
C3548 H3536 0.959 . S
C3548 C3546 1.561 . S
C3549 C3546 1.526 . S
C3549 C3550 1.396 . S
C3549 C3554 1.390 . S
C3550 C3544 1.465 . S
C3550 C3549 1.396 . S
C3550 C3551 1.399 . S
C3551 H3537 0.929 . S
C3551 C3550 1.399 . S
C3551 C3552 1.385 . S
C3552 H3538 0.931 . S
C3552 C3551 1.385 . S
C3552 C3553 1.389 . S
C3553 C3552 1.389 . S
C3553 C3554 1.387 . S
C3554 H3539 0.930 . S
C3554 C3549 1.390 . S
C3554 C3553 1.387 . S
H3555 C3567 0.930 . S
H3556 C3569 0.930 . S
H3557 C3570 0.930 . S
H3558 C3574 0.959 . S
H3559 C3574 0.959 . S
H3560 C3574 0.961 . S
H3561 C3575 0.960 . S
H3562 C3575 0.961 . S
H3563 C3575 0.959 . S
H3564 C3578 0.929 . S
H3565 C3579 0.931 . S
H3566 C3581 0.930 . S
C3567 H3555 0.930 . S
C3567 C3568 1.399 . S
C3567 C3572 1.399 . S
C3568 C3567 1.399 . S
C3568 C3569 1.376 . S
C3569 H3556 0.930 . S
C3569 C3568 1.376 . S
C3569 C3570 1.388 . S
C3570 H3557 0.930 . S
C3570 C3569 1.388 . S
C3570 C3571 1.390 . S
C3571 C3570 1.390 . S
C3571 C3572 1.394 . S
C3571 C3577 1.465 . S
C3572 C3567 1.399 . S
C3572 C3571 1.394 . S
C3572 C3573 1.516 . S
C3573 C3572 1.516 . S
C3573 C3574 1.502 . S
C3573 C3575 1.561 . S
C3573 C3576 1.526 . S
C3574 H3558 0.959 . S
C3574 H3559 0.959 . S
C3574 H3560 0.961 . S
C3574 C3573 1.502 . S
C3575 H3561 0.960 . S
C3575 H3562 0.961 . S
C3575 H3563 0.959 . S
C3575 C3573 1.561 . S
C3576 C3573 1.526 . S
C3576 C3577 1.396 . S
C3576 C3581 1.390 . S
C3577 C3571 1.465 . S
C3577 C3576 1.396 . S
C3577 C3578 1.399 . S
C3578 H3564 0.929 . S
C3578 C3577 1.399 . S
C3578 C3579 1.385 . S
C3579 H3565 0.931 . S
C3579 C3578 1.385 . S
C3579 C3580 1.389 . S
C3580 C3579 1.389 . S
C3580 C3581 1.387 . S
C3581 H3566 0.930 . S
C3581 C3576 1.390 . S
C3581 C3580 1.387 . S
H3582 C3594 0.930 . S
H3583 C3596 0.930 . S
H3584 C3597 0.930 . S
H3585 C3601 0.959 . S
H3586 C3601 0.959 . S
H3587 C3601 0.961 . S
H3588 C3602 0.960 . S
H3589 C3602 0.961 . S
H3590 C3602 0.959 . S
H3591 C3605 0.929 . S
H3592 C3606 0.931 . S
H3593 C3608 0.930 . S
C3594 H3582 0.930 . S
C3594 C3595 1.399 . S
C3594 C3599 1.399 . S
C3595 C3594 1.399 . S
C3595 C3596 1.376 . S
C3596 H3583 0.930 . S
C3596 C3595 1.376 . S
C3596 C3597 1.388 . S
C3597 H3584 0.930 . S
C3597 C3596 1.388 . S
C3597 C3598 1.390 . S
C3598 C3597 1.390 . S
C3598 C3599 1.394 . S
C3598 C3604 1.465 . S
C3599 C3594 1.399 . S
C3599 C3598 1.394 . S
C3599 C3600 1.516 . S
C3600 C3599 1.516 . S
C3600 C3601 1.502 . S
C3600 C3602 1.561 . S
C3600 C3603 1.526 . S
C3601 H3585 0.959 . S
C3601 H3586 0.959 . S
C3601 H3587 0.961 . S
C3601 C3600 1.502 . S
C3602 H3588 0.960 . S
C3602 H3589 0.961 . S
C3602 H3590 0.959 . S
C3602 C3600 1.561 . S
C3603 C3600 1.526 . S
C3603 C3604 1.396 . S
C3603 C3608 1.390 . S
C3604 C3598 1.465 . S
C3604 C3603 1.396 . S
C3604 C3605 1.399 . S
C3605 H3591 0.929 . S
C3605 C3604 1.399 . S
C3605 C3606 1.385 . S
C3606 H3592 0.931 . S
C3606 C3605 1.385 . S
C3606 C3607 1.389 . S
C3607 C3606 1.389 . S
C3607 C3608 1.387 . S
C3608 H3593 0.930 . S
C3608 C3603 1.390 . S
C3608 C3607 1.387 . S
H3609 C3621 0.930 . S
H3610 C3623 0.930 . S
H3611 C3624 0.930 . S
H3612 C3628 0.959 . S
H3613 C3628 0.959 . S
H3614 C3628 0.961 . S
H3615 C3629 0.960 . S
H3616 C3629 0.961 . S
H3617 C3629 0.959 . S
H3618 C3632 0.929 . S
H3619 C3633 0.931 . S
H3620 C3635 0.930 . S
C3621 H3609 0.930 . S
C3621 C3622 1.399 . S
C3621 C3626 1.399 . S
C3622 C3621 1.399 . S
C3622 C3623 1.376 . S
C3623 H3610 0.930 . S
C3623 C3622 1.376 . S
C3623 C3624 1.388 . S
C3624 H3611 0.930 . S
C3624 C3623 1.388 . S
C3624 C3625 1.390 . S
C3625 C3624 1.390 . S
C3625 C3626 1.394 . S
C3625 C3631 1.465 . S
C3626 C3621 1.399 . S
C3626 C3625 1.394 . S
C3626 C3627 1.516 . S
C3627 C3626 1.516 . S
C3627 C3628 1.502 . S
C3627 C3629 1.561 . S
C3627 C3630 1.526 . S
C3628 H3612 0.959 . S
C3628 H3613 0.959 . S
C3628 H3614 0.961 . S
C3628 C3627 1.502 . S
C3629 H3615 0.960 . S
C3629 H3616 0.961 . S
C3629 H3617 0.959 . S
C3629 C3627 1.561 . S
C3630 C3627 1.526 . S
C3630 C3631 1.396 . S
C3630 C3635 1.390 . S
C3631 C3625 1.465 . S
C3631 C3630 1.396 . S
C3631 C3632 1.399 . S
C3632 H3618 0.929 . S
C3632 C3631 1.399 . S
C3632 C3633 1.385 . S
C3633 H3619 0.931 . S
C3633 C3632 1.385 . S
C3633 C3634 1.389 . S
C3634 C3633 1.389 . S
C3634 C3635 1.387 . S
C3635 H3620 0.930 . S
C3635 C3630 1.390 . S
C3635 C3634 1.387 . S
H3636 C3648 0.930 . S
H3637 C3650 0.930 . S
H3638 C3651 0.930 . S
H3639 C3655 0.959 . S
H3640 C3655 0.959 . S
H3641 C3655 0.961 . S
H3642 C3656 0.960 . S
H3643 C3656 0.961 . S
H3644 C3656 0.959 . S
H3645 C3659 0.929 . S
H3646 C3660 0.931 . S
H3647 C3662 0.930 . S
C3648 H3636 0.930 . S
C3648 C3649 1.399 . S
C3648 C3653 1.399 . S
C3649 C3648 1.399 . S
C3649 C3650 1.376 . S
C3650 H3637 0.930 . S
C3650 C3649 1.376 . S
C3650 C3651 1.388 . S
C3651 H3638 0.930 . S
C3651 C3650 1.388 . S
C3651 C3652 1.390 . S
C3652 C3651 1.390 . S
C3652 C3653 1.394 . S
C3652 C3658 1.465 . S
C3653 C3648 1.399 . S
C3653 C3652 1.394 . S
C3653 C3654 1.516 . S
C3654 C3653 1.516 . S
C3654 C3655 1.502 . S
C3654 C3656 1.561 . S
C3654 C3657 1.526 . S
C3655 H3639 0.959 . S
C3655 H3640 0.959 . S
C3655 H3641 0.961 . S
C3655 C3654 1.502 . S
C3656 H3642 0.960 . S
C3656 H3643 0.961 . S
C3656 H3644 0.959 . S
C3656 C3654 1.561 . S
C3657 C3654 1.526 . S
C3657 C3658 1.396 . S
C3657 C3662 1.390 . S
C3658 C3652 1.465 . S
C3658 C3657 1.396 . S
C3658 C3659 1.399 . S
C3659 H3645 0.929 . S
C3659 C3658 1.399 . S
C3659 C3660 1.385 . S
C3660 H3646 0.931 . S
C3660 C3659 1.385 . S
C3660 C3661 1.389 . S
C3661 C3660 1.389 . S
C3661 C3662 1.387 . S
C3662 H3647 0.930 . S
C3662 C3657 1.390 . S
C3662 C3661 1.387 . S
H3663 C3675 0.930 . S
H3664 C3677 0.930 . S
H3665 C3678 0.930 . S
H3666 C3682 0.959 . S
H3667 C3682 0.959 . S
H3668 C3682 0.961 . S
H3669 C3683 0.960 . S
H3670 C3683 0.961 . S
H3671 C3683 0.959 . S
H3672 C3686 0.929 . S
H3673 C3687 0.931 . S
H3674 C3689 0.930 . S
C3675 H3663 0.930 . S
C3675 C3676 1.399 . S
C3675 C3680 1.399 . S
C3676 C3675 1.399 . S
C3676 C3677 1.376 . S
C3677 H3664 0.930 . S
C3677 C3676 1.376 . S
C3677 C3678 1.388 . S
C3678 H3665 0.930 . S
C3678 C3677 1.388 . S
C3678 C3679 1.390 . S
C3679 C3678 1.390 . S
C3679 C3680 1.394 . S
C3679 C3685 1.465 . S
C3680 C3675 1.399 . S
C3680 C3679 1.394 . S
C3680 C3681 1.516 . S
C3681 C3680 1.516 . S
C3681 C3682 1.502 . S
C3681 C3683 1.561 . S
C3681 C3684 1.526 . S
C3682 H3666 0.959 . S
C3682 H3667 0.959 . S
C3682 H3668 0.961 . S
C3682 C3681 1.502 . S
C3683 H3669 0.960 . S
C3683 H3670 0.961 . S
C3683 H3671 0.959 . S
C3683 C3681 1.561 . S
C3684 C3681 1.526 . S
C3684 C3685 1.396 . S
C3684 C3689 1.390 . S
C3685 C3679 1.465 . S
C3685 C3684 1.396 . S
C3685 C3686 1.399 . S
C3686 H3672 0.929 . S
C3686 C3685 1.399 . S
C3686 C3687 1.385 . S
C3687 H3673 0.931 . S
C3687 C3686 1.385 . S
C3687 C3688 1.389 . S
C3688 C3687 1.389 . S
C3688 C3689 1.387 . S
C3689 H3674 0.930 . S
C3689 C3684 1.390 . S
C3689 C3688 1.387 . S
H3690 C3702 0.930 . S
H3691 C3704 0.930 . S
H3692 C3705 0.930 . S
H3693 C3709 0.959 . S
H3694 C3709 0.959 . S
H3695 C3709 0.961 . S
H3696 C3710 0.960 . S
H3697 C3710 0.961 1_655 S
H3698 C3710 0.959 . S
H3699 C3713 0.933 . S
H3700 C3714 0.931 . S
H3701 C3716 0.930 . S
C3702 H3690 0.930 . S
C3702 C3703 1.399 . S
C3702 C3707 1.399 . S
C3703 C3702 1.399 . S
C3703 C3704 1.376 . S
C3704 H3691 0.930 . S
C3704 C3703 1.376 . S
C3704 C3705 1.388 . S
C3705 H3692 0.930 . S
C3705 C3704 1.388 . S
C3705 C3706 1.390 . S
C3706 C3705 1.390 . S
C3706 C3707 1.394 . S
C3706 C3712 1.465 1_455 S
C3707 C3702 1.399 . S
C3707 C3706 1.394 . S
C3707 C3708 1.516 1_455 S
C3708 C3707 1.516 1_655 S
C3708 C3709 1.502 . S
C3708 C3710 1.561 1_655 S
C3708 C3711 1.526 . S
C3709 H3693 0.959 . S
C3709 H3694 0.959 . S
C3709 H3695 0.961 . S
C3709 C3708 1.502 . S
C3710 H3696 0.960 . S
C3710 H3697 0.961 1_455 S
C3710 H3698 0.959 . S
C3710 C3708 1.561 1_455 S
C3711 C3708 1.526 . S
C3711 C3712 1.396 . S
C3711 C3716 1.390 . S
C3712 C3706 1.465 1_655 S
C3712 C3711 1.396 . S
C3712 C3713 1.399 . S
C3713 H3699 0.933 . S
C3713 C3712 1.399 . S
C3713 C3714 1.385 . S
C3714 H3700 0.931 . S
C3714 C3713 1.385 . S
C3714 C3715 1.389 . S
C3715 C3714 1.389 . S
C3715 C3716 1.387 . S
C3716 H3701 0.930 . S
C3716 C3711 1.390 . S
C3716 C3715 1.387 . S
H3717 C3729 0.930 . S
H3718 C3731 0.930 . S
H3719 C3732 0.930 . S
H3720 C3736 0.959 . S
H3721 C3736 0.959 . S
H3722 C3736 0.961 . S
H3723 C3737 0.960 . S
H3724 C3737 0.961 . S
H3725 C3737 0.959 . S
H3726 C3740 0.929 . S
H3727 C3741 0.931 . S
H3728 C3743 0.930 . S
C3729 H3717 0.930 . S
C3729 C3730 1.399 . S
C3729 C3734 1.399 . S
C3730 C3729 1.399 . S
C3730 C3731 1.376 . S
C3731 H3718 0.930 . S
C3731 C3730 1.376 . S
C3731 C3732 1.388 . S
C3732 H3719 0.930 . S
C3732 C3731 1.388 . S
C3732 C3733 1.390 . S
C3733 C3732 1.390 . S
C3733 C3734 1.394 . S
C3733 C3739 1.465 . S
C3734 C3729 1.399 . S
C3734 C3733 1.394 . S
C3734 C3735 1.516 . S
C3735 C3734 1.516 . S
C3735 C3736 1.502 . S
C3735 C3737 1.561 . S
C3735 C3738 1.526 . S
C3736 H3720 0.959 . S
C3736 H3721 0.959 . S
C3736 H3722 0.961 . S
C3736 C3735 1.502 . S
C3737 H3723 0.960 . S
C3737 H3724 0.961 . S
C3737 H3725 0.959 . S
C3737 C3735 1.561 . S
C3738 C3735 1.526 . S
C3738 C3739 1.396 . S
C3738 C3743 1.390 . S
C3739 C3733 1.465 . S
C3739 C3738 1.396 . S
C3739 C3740 1.399 . S
C3740 H3726 0.929 . S
C3740 C3739 1.399 . S
C3740 C3741 1.385 . S
C3741 H3727 0.931 . S
C3741 C3740 1.385 . S
C3741 C3742 1.389 . S
C3742 C3741 1.389 . S
C3742 C3743 1.387 . S
C3743 H3728 0.930 . S
C3743 C3738 1.390 . S
C3743 C3742 1.387 . S
H3744 C3756 0.930 . S
H3745 C3758 0.930 . S
H3746 C3759 0.930 1_565 S
H3747 C3763 0.959 . S
H3748 C3763 0.959 . S
H3749 C3763 0.961 . S
H3750 C3764 0.960 . S
H3751 C3764 0.961 . S
H3752 C3764 0.959 . S
H3753 C3767 0.929 . S
H3754 C3768 0.931 . S
H3755 C3770 0.930 . S
C3756 H3744 0.930 . S
C3756 C3757 1.399 . S
C3756 C3761 1.399 . S
C3757 C3756 1.399 . S
C3757 C3758 1.376 . S
C3758 H3745 0.930 . S
C3758 C3757 1.376 . S
C3758 C3759 1.388 . S
C3759 H3746 0.930 1_545 S
C3759 C3758 1.388 . S
C3759 C3760 1.390 . S
C3760 C3759 1.390 . S
C3760 C3761 1.394 . S
C3760 C3766 1.465 1_545 S
C3761 C3756 1.399 . S
C3761 C3760 1.394 . S
C3761 C3762 1.516 . S
C3762 C3761 1.516 . S
C3762 C3763 1.502 . S
C3762 C3764 1.561 . S
C3762 C3765 1.526 1_545 S
C3763 H3747 0.959 . S
C3763 H3748 0.959 . S
C3763 H3749 0.961 . S
C3763 C3762 1.502 . S
C3764 H3750 0.960 . S
C3764 H3751 0.961 . S
C3764 H3752 0.959 . S
C3764 C3762 1.561 . S
C3765 C3762 1.526 1_565 S
C3765 C3766 1.396 . S
C3765 C3770 1.390 . S
C3766 C3760 1.465 1_565 S
C3766 C3765 1.396 . S
C3766 C3767 1.399 . S
C3767 H3753 0.929 . S
C3767 C3766 1.399 . S
C3767 C3768 1.385 . S
C3768 H3754 0.931 . S
C3768 C3767 1.385 . S
C3768 C3769 1.389 . S
C3769 C3768 1.389 . S
C3769 C3770 1.387 . S
C3770 H3755 0.930 . S
C3770 C3765 1.390 . S
C3770 C3769 1.387 . S
H3771 C3783 0.930 . S
H3772 C3785 0.930 . S
H3773 C3786 0.930 . S
H3774 C3790 0.959 . S
H3775 C3790 0.959 . S
H3776 C3790 0.961 1_565 S
H3777 C3791 0.960 . S
H3778 C3791 0.961 . S
H3779 C3791 0.959 . S
H3780 C3794 0.929 . S
H3781 C3795 0.931 . S
H3782 C3797 0.930 . S
C3783 H3771 0.930 . S
C3783 C3784 1.399 . S
C3783 C3788 1.399 . S
C3784 C3783 1.399 . S
C3784 C3785 1.376 . S
C3785 H3772 0.930 . S
C3785 C3784 1.376 . S
C3785 C3786 1.388 . S
C3786 H3773 0.930 . S
C3786 C3785 1.388 . S
C3786 C3787 1.390 . S
C3787 C3786 1.390 . S
C3787 C3788 1.394 . S
C3787 C3793 1.465 1_565 S
C3788 C3783 1.399 . S
C3788 C3787 1.394 . S
C3788 C3789 1.516 . S
C3789 C3788 1.516 . S
C3789 C3790 1.502 1_565 S
C3789 C3791 1.561 . S
C3789 C3792 1.526 1_565 S
C3790 H3774 0.959 . S
C3790 H3775 0.959 . S
C3790 H3776 0.961 1_545 S
C3790 C3789 1.502 1_545 S
C3791 H3777 0.960 . S
C3791 H3778 0.961 . S
C3791 H3779 0.959 . S
C3791 C3789 1.561 . S
C3792 C3789 1.526 1_545 S
C3792 C3793 1.396 . S
C3792 C3797 1.390 . S
C3793 C3787 1.465 1_545 S
C3793 C3792 1.396 . S
C3793 C3794 1.399 . S
C3794 H3780 0.929 . S
C3794 C3793 1.399 . S
C3794 C3795 1.385 . S
C3795 H3781 0.931 . S
C3795 C3794 1.385 . S
C3795 C3796 1.389 . S
C3796 C3795 1.389 . S
C3796 C3797 1.387 . S
C3797 H3782 0.930 . S
C3797 C3792 1.390 . S
C3797 C3796 1.387 . S
H3798 C3810 0.930 . S
H3799 C3812 0.930 . S
H3800 C3813 0.930 . S
H3801 C3817 0.921 1_655 S
H3802 C3817 0.959 . S
H3803 C3817 0.918 1_655 S
H3804 C3818 0.960 . S
H3805 C3818 0.961 . S
H3806 C3818 0.959 . S
H3807 C3821 0.929 . S
H3808 C3822 0.931 . S
H3809 C3824 0.930 . S
C3810 H3798 0.930 . S
C3810 C3811 1.399 . S
C3810 C3815 1.399 . S
C3811 C3810 1.399 . S
C3811 C3812 1.376 . S
C3812 H3799 0.930 . S
C3812 C3811 1.376 . S
C3812 C3813 1.388 . S
C3813 H3800 0.930 . S
C3813 C3812 1.388 . S
C3813 C3814 1.390 . S
C3814 C3813 1.390 . S
C3814 C3815 1.394 . S
C3814 C3820 1.465 1_655 S
C3815 C3810 1.399 . S
C3815 C3814 1.394 . S
C3815 C3816 1.516 1_655 S
C3816 C3815 1.516 1_455 S
C3816 C3817 1.502 . S
C3816 C3818 1.561 . S
C3816 C3819 1.526 . S
C3817 H3801 0.921 1_455 S
C3817 H3802 0.959 . S
C3817 H3803 0.918 1_455 S
C3817 C3816 1.502 . S
C3818 H3804 0.960 . S
C3818 H3805 0.961 . S
C3818 H3806 0.959 . S
C3818 C3816 1.561 . S
C3819 C3816 1.526 . S
C3819 C3820 1.396 . S
C3819 C3824 1.390 . S
C3820 C3814 1.465 1_455 S
C3820 C3819 1.396 . S
C3820 C3821 1.399 . S
C3821 H3807 0.929 . S
C3821 C3820 1.399 . S
C3821 C3822 1.385 . S
C3822 H3808 0.931 . S
C3822 C3821 1.385 . S
C3822 C3823 1.389 . S
C3823 C3822 1.389 . S
C3823 C3824 1.387 . S
C3824 H3809 0.930 . S
C3824 C3819 1.390 . S
C3824 C3823 1.387 . S
H3825 C3837 0.930 . S
H3826 C3839 0.930 . S
H3827 C3840 0.930 . S
H3828 C3844 0.959 . S
H3829 C3844 0.959 . S
H3830 C3844 0.961 . S
H3831 C3845 0.960 . S
H3832 C3845 0.961 . S
H3833 C3845 0.959 . S
H3834 C3848 0.929 . S
H3835 C3849 0.931 . S
H3836 C3851 0.930 . S
C3837 H3825 0.930 . S
C3837 C3838 1.399 . S
C3837 C3842 1.399 . S
C3838 C3837 1.399 . S
C3838 C3839 1.376 . S
C3839 H3826 0.930 . S
C3839 C3838 1.376 . S
C3839 C3840 1.388 . S
C3840 H3827 0.930 . S
C3840 C3839 1.388 . S
C3840 C3841 1.390 . S
C3841 C3840 1.390 . S
C3841 C3842 1.394 . S
C3841 C3847 1.465 . S
C3842 C3837 1.399 . S
C3842 C3841 1.394 . S
C3842 C3843 1.516 . S
C3843 C3842 1.516 . S
C3843 C3844 1.502 . S
C3843 C3845 1.561 . S
C3843 C3846 1.526 . S
C3844 H3828 0.959 . S
C3844 H3829 0.959 . S
C3844 H3830 0.961 . S
C3844 C3843 1.502 . S
C3845 H3831 0.960 . S
C3845 H3832 0.961 . S
C3845 H3833 0.959 . S
C3845 C3843 1.561 . S
C3846 C3843 1.526 . S
C3846 C3847 1.396 . S
C3846 C3851 1.390 . S
C3847 C3841 1.465 . S
C3847 C3846 1.396 . S
C3847 C3848 1.399 . S
C3848 H3834 0.929 . S
C3848 C3847 1.399 . S
C3848 C3849 1.385 . S
C3849 H3835 0.931 . S
C3849 C3848 1.385 . S
C3849 C3850 1.389 . S
C3850 C3849 1.389 . S
C3850 C3851 1.387 . S
C3851 H3836 0.930 . S
C3851 C3846 1.390 . S
C3851 C3850 1.387 . S
C1921 C241 1.169 . S
C1933 C29 1.143 . S
C1948 C294 1.171 . S
C1960 C82 1.127 . S
C1975 C188 1.204 . S
C1987 C135 1.230 . S
C2002 C559 1.647 . S
C2014 C357 1.621 . S
C2029 C400 1.594 . S
C2041 C622 1.612 . S
C2056 C506 1.222 . S
C2068 C453 1.260 . S
C2083 C665 1.145 . S
C2095 C877 1.144 . S
C2110 C930 1.147 . S
C2122 C718 1.138 1_565 S
C2137 C771 1.186 1_455 S
C2149 C824 1.202 . S
C2164 C993 1.551 . S
C2176 C1195 1.554 1_565 S
C2191 C1258 1.663 . S
C2203 C1036 1.638 . S
C2218 C1089 1.290 . S
C2230 C1142 1.288 . S
C2245 C1513 1.149 1_545 S
C2257 C1301 1.145 . S
C2272 C1354 1.131 . S
C2284 C1566 1.137 . S
C2299 C1460 1.175 . S
C2311 C1407 1.158 . S
C2326 C1831 1.597 . S
C2338 C1629 1.640 . S
C2353 C1672 1.587 1_545 S
C2365 C1894 1.568 . S
C2380 C1725 1.293 1_655 S
C2392 C1778 1.296 . S
C2407 C621 1.787 . S
C2419 C22 1.782 . S
C2434 C75 1.699 . S
C2446 C499 1.703 . S
C2461 C552 1.892 . S
C2473 C128 1.891 . S
C2488 C393 1.891 . S
C2500 C181 1.888 . S
C2515 C234 1.691 . S
C2527 C446 1.698 . S
C2542 C356 1.780 . S
C2554 C287 1.783 . S
C2569 C658 1.866 . S
C2581 C1257 1.894 . S
C2596 C1135 1.879 . S
C2608 C711 1.875 . S
C2623 C1188 1.953 . S
C2635 C764 1.953 . S
C2650 C817 1.935 . S
C2662 C1029 1.941 . S
C2677 C870 1.781 . S
C2689 C1082 1.772 . S
C2704 C923 1.810 . S
C2716 C992 1.837 . S
C2731 C1893 1.839 . S
C2743 C1294 1.815 . S
C2758 C1347 1.772 . S
C2770 C1771 1.765 . S
C2785 C1400 1.936 . S
C2797 C1824 1.934 . S
C2812 C1665 1.928 . S
C2824 C1453 1.926 . S
C2839 C1718 1.845 . S
C2851 C1506 1.850 . S
C2866 C1628 1.908 . S
C2878 C1559 1.890 . S
C2893 C833 2.332 . S
C2905 C38 2.336 . S
C2920 C886 2.221 . S
C2932 C91 2.219 . S
C2947 C144 2.456 . S
C2959 C939 2.450 . S
C2974 C197 2.450 . S
C2986 C1310 2.435 . S
C3001 C250 2.223 . S
C3013 C1363 2.210 . S
C3028 C303 2.335 . S
C3040 C1416 2.323 . S
C3055 C340 1.719 . S
C3067 C1787 1.715 . S
C3082 C409 1.965 . S
C3094 C1840 1.957 . S
C3109 C462 1.468 . S
C3121 C1877 1.470 . S
C3136 C515 1.467 . S
C3148 C976 1.470 . S
C3163 C1045 1.973 . S
C3175 C568 1.977 . S
C3190 C1098 1.712 . S
C3202 C605 1.702 . S
C3217 C1469 2.719 . S
C3229 C674 2.720 . S
C3244 C727 2.589 . S
C3256 C1522 2.592 . S
C3271 C1575 2.720 . S
C3283 C780 2.722 . S
C3298 C1151 1.918 . S
C3310 C1612 1.916 . S
C3325 C1681 2.327 . S
C3337 C1204 2.329 . S
C3352 C1734 1.903 . S
C3364 C1241 1.894 . S
C3379 C39 2.276 . S
C3391 C1576 2.263 . S
C3406 C92 1.995 . S
C3418 C1470 2.007 . S
C3433 C145 1.916 . S
C3445 C1523 1.964 . S
C3460 C198 1.959 . S
C3472 C728 1.938 . S
C3487 C781 1.998 . S
C3499 C251 2.012 . S
C3514 C675 2.265 . S
C3526 C304 2.240 . S
C3541 C1248 1.340 . S
C3553 C347 1.387 . S
C3568 C1152 1.665 . S
C3580 C410 1.627 . S
C3595 C1205 1.769 . S
C3607 C463 1.709 . S
C3622 C1682 1.776 . S
C3634 C516 1.713 . S
C3649 C1735 1.619 . S
C3661 C569 1.681 . S
C3676 C1619 1.424 . S
C3688 C612 1.354 . S
C3703 C834 1.628 . S
C3715 C1364 1.601 . S
C3730 C1417 1.624 . S
C3742 C887 1.590 . S
C3757 C1311 2.003 . S
C3769 C940 2.023 . S
C3784 C983 0.958 . S
C3796 C1884 0.937 . S
C3811 C1788 1.429 . S
C3823 C1046 1.410 . S
C3838 C1099 1.372 . S
C3850 C1841 1.388 . S
