# Generated by pormake.
# Topology fci, (5)-cn, num edge types: 1
# Building blocks:
#     Node 0, Type 0, BuildingBlock: BEQFEK_clean_sbu_0, # of connection points: 5
#     Node 1, Type 0, BuildingBlock: BEQFEK_clean_sbu_0, # of connection points: 5
#     Node 2, Type 0, BuildingBlock: BEQFEK_clean_sbu_0, # of connection points: 5
#     Node 3, Type 0, BuildingBlock: BEQFEK_clean_sbu_0, # of connection points: 5
#     Node 4, Type 0, BuildingBlock: BEQFEK_clean_sbu_0, # of connection points: 5
#     Node 5, Type 0, BuildingBlock: BEQFEK_clean_sbu_0, # of connection points: 5
#     Node 6, Type 0, BuildingBlock: BEQFEK_clean_sbu_0, # of connection points: 5
#     Node 7, Type 0, BuildingBlock: BEQFEK_clean_sbu_0, # of connection points: 5
#     Node 8, Type 0, BuildingBlock: BEQFEK_clean_sbu_0, # of connection points: 5
#     Node 9, Type 0, BuildingBlock: BEQFEK_clean_sbu_0, # of connection points: 5
#     Node 10, Type 0, BuildingBlock: BEQFEK_clean_sbu_0, # of connection points: 5
#     Node 11, Type 0, BuildingBlock: BEQFEK_clean_sbu_0, # of connection points: 5
#     Node 12, Type 0, BuildingBlock: BEQFEK_clean_sbu_0, # of connection points: 5
#     Node 13, Type 0, BuildingBlock: BEQFEK_clean_sbu_0, # of connection points: 5
#     Node 14, Type 0, BuildingBlock: BEQFEK_clean_sbu_0, # of connection points: 5
#     Node 15, Type 0, BuildingBlock: BEQFEK_clean_sbu_0, # of connection points: 5
#     Node 16, Type 0, BuildingBlock: BEQFEK_clean_sbu_0, # of connection points: 5
#     Node 17, Type 0, BuildingBlock: BEQFEK_clean_sbu_0, # of connection points: 5
#     Node 18, Type 0, BuildingBlock: BEQFEK_clean_sbu_0, # of connection points: 5
#     Node 19, Type 0, BuildingBlock: BEQFEK_clean_sbu_0, # of connection points: 5
#     Node 20, Type 0, BuildingBlock: BEQFEK_clean_sbu_0, # of connection points: 5
#     Node 21, Type 0, BuildingBlock: BEQFEK_clean_sbu_0, # of connection points: 5
#     Node 22, Type 0, BuildingBlock: BEQFEK_clean_sbu_0, # of connection points: 5
#     Node 23, Type 0, BuildingBlock: BEQFEK_clean_sbu_0, # of connection points: 5
#     Edge 24, Type (0, 0), BuildingBlock: CIFDUS_clean_linker_0, # of connection points: 2
#     Edge 25, Type (0, 0), BuildingBlock: CIFDUS_clean_linker_0, # of connection points: 2
#     Edge 26, Type (0, 0), BuildingBlock: CIFDUS_clean_linker_0, # of connection points: 2
#     Edge 27, Type (0, 0), BuildingBlock: CIFDUS_clean_linker_0, # of connection points: 2
#     Edge 28, Type (0, 0), BuildingBlock: CIFDUS_clean_linker_0, # of connection points: 2
#     Edge 29, Type (0, 0), BuildingBlock: CIFDUS_clean_linker_0, # of connection points: 2
#     Edge 30, Type (0, 0), BuildingBlock: CIFDUS_clean_linker_0, # of connection points: 2
#     Edge 31, Type (0, 0), BuildingBlock: CIFDUS_clean_linker_0, # of connection points: 2
#     Edge 32, Type (0, 0), BuildingBlock: CIFDUS_clean_linker_0, # of connection points: 2
#     Edge 33, Type (0, 0), BuildingBlock: CIFDUS_clean_linker_0, # of connection points: 2
#     Edge 34, Type (0, 0), BuildingBlock: CIFDUS_clean_linker_0, # of connection points: 2
#     Edge 35, Type (0, 0), BuildingBlock: CIFDUS_clean_linker_0, # of connection points: 2
#     Edge 36, Type (0, 0), BuildingBlock: CIFDUS_clean_linker_0, # of connection points: 2
#     Edge 37, Type (0, 0), BuildingBlock: CIFDUS_clean_linker_0, # of connection points: 2
#     Edge 38, Type (0, 0), BuildingBlock: CIFDUS_clean_linker_0, # of connection points: 2
#     Edge 39, Type (0, 0), BuildingBlock: CIFDUS_clean_linker_0, # of connection points: 2
#     Edge 40, Type (0, 0), BuildingBlock: CIFDUS_clean_linker_0, # of connection points: 2
#     Edge 41, Type (0, 0), BuildingBlock: CIFDUS_clean_linker_0, # of connection points: 2
#     Edge 42, Type (0, 0), BuildingBlock: CIFDUS_clean_linker_0, # of connection points: 2
#     Edge 43, Type (0, 0), BuildingBlock: CIFDUS_clean_linker_0, # of connection points: 2
#     Edge 44, Type (0, 0), BuildingBlock: CIFDUS_clean_linker_0, # of connection points: 2
#     Edge 45, Type (0, 0), BuildingBlock: CIFDUS_clean_linker_0, # of connection points: 2
#     Edge 46, Type (0, 0), BuildingBlock: CIFDUS_clean_linker_0, # of connection points: 2
#     Edge 47, Type (0, 0), BuildingBlock: CIFDUS_clean_linker_0, # of connection points: 2
#     Edge 48, Type (0, 0), BuildingBlock: CIFDUS_clean_linker_0, # of connection points: 2
#     Edge 49, Type (0, 0), BuildingBlock: CIFDUS_clean_linker_0, # of connection points: 2
#     Edge 50, Type (0, 0), BuildingBlock: CIFDUS_clean_linker_0, # of connection points: 2
#     Edge 51, Type (0, 0), BuildingBlock: CIFDUS_clean_linker_0, # of connection points: 2
#     Edge 52, Type (0, 0), BuildingBlock: CIFDUS_clean_linker_0, # of connection points: 2
#     Edge 53, Type (0, 0), BuildingBlock: CIFDUS_clean_linker_0, # of connection points: 2
#     Edge 54, Type (0, 0), BuildingBlock: CIFDUS_clean_linker_0, # of connection points: 2
#     Edge 55, Type (0, 0), BuildingBlock: CIFDUS_clean_linker_0, # of connection points: 2
#     Edge 56, Type (0, 0), BuildingBlock: CIFDUS_clean_linker_0, # of connection points: 2
#     Edge 57, Type (0, 0), BuildingBlock: CIFDUS_clean_linker_0, # of connection points: 2
#     Edge 58, Type (0, 0), BuildingBlock: CIFDUS_clean_linker_0, # of connection points: 2
#     Edge 59, Type (0, 0), BuildingBlock: CIFDUS_clean_linker_0, # of connection points: 2
#     Edge 60, Type (0, 0), BuildingBlock: CIFDUS_clean_linker_0, # of connection points: 2
#     Edge 61, Type (0, 0), BuildingBlock: CIFDUS_clean_linker_0, # of connection points: 2
#     Edge 62, Type (0, 0), BuildingBlock: CIFDUS_clean_linker_0, # of connection points: 2
#     Edge 63, Type (0, 0), BuildingBlock: CIFDUS_clean_linker_0, # of connection points: 2
#     Edge 64, Type (0, 0), BuildingBlock: CIFDUS_clean_linker_0, # of connection points: 2
#     Edge 65, Type (0, 0), BuildingBlock: CIFDUS_clean_linker_0, # of connection points: 2
#     Edge 66, Type (0, 0), BuildingBlock: CIFDUS_clean_linker_0, # of connection points: 2
#     Edge 67, Type (0, 0), BuildingBlock: CIFDUS_clean_linker_0, # of connection points: 2
#     Edge 68, Type (0, 0), BuildingBlock: CIFDUS_clean_linker_0, # of connection points: 2
#     Edge 69, Type (0, 0), BuildingBlock: CIFDUS_clean_linker_0, # of connection points: 2
#     Edge 70, Type (0, 0), BuildingBlock: CIFDUS_clean_linker_0, # of connection points: 2
#     Edge 71, Type (0, 0), BuildingBlock: CIFDUS_clean_linker_0, # of connection points: 2
#     Edge 72, Type (0, 0), BuildingBlock: CIFDUS_clean_linker_0, # of connection points: 2
#     Edge 73, Type (0, 0), BuildingBlock: CIFDUS_clean_linker_0, # of connection points: 2
#     Edge 74, Type (0, 0), BuildingBlock: CIFDUS_clean_linker_0, # of connection points: 2
#     Edge 75, Type (0, 0), BuildingBlock: CIFDUS_clean_linker_0, # of connection points: 2
#     Edge 76, Type (0, 0), BuildingBlock: CIFDUS_clean_linker_0, # of connection points: 2
#     Edge 77, Type (0, 0), BuildingBlock: CIFDUS_clean_linker_0, # of connection points: 2
#     Edge 78, Type (0, 0), BuildingBlock: CIFDUS_clean_linker_0, # of connection points: 2
#     Edge 79, Type (0, 0), BuildingBlock: CIFDUS_clean_linker_0, # of connection points: 2
#     Edge 80, Type (0, 0), BuildingBlock: CIFDUS_clean_linker_0, # of connection points: 2
#     Edge 81, Type (0, 0), BuildingBlock: CIFDUS_clean_linker_0, # of connection points: 2
#     Edge 82, Type (0, 0), BuildingBlock: CIFDUS_clean_linker_0, # of connection points: 2
#     Edge 83, Type (0, 0), BuildingBlock: CIFDUS_clean_linker_0, # of connection points: 2
# Relax obj value: 0.891
# Max RMSD: 0.351
# Mean RMSD: 0.317
data_MOF--net-fci--node1-BEQFEK_clean_sbu_0--edge1-CIFDUS_clean_linker_0
_symmetry_space_group_name_H-M    P1
_symmetry_Int_Tables_number       1
_symmetry_cell_setting            triclinic
loop_
_symmetry_equiv_pos_as_xyz
'x, y, z'
_cell_length_a     48.769327
_cell_length_b     48.735499
_cell_length_c     48.753326
_cell_angle_alpha  89.210694
_cell_angle_beta   89.267373
_cell_angle_gamma 89.232878
loop_
_atom_site_label
_atom_site_type_symbol
_atom_site_fract_x
_atom_site_fract_y
_atom_site_fract_z
_atom_type_partial_charge
Co0 Co 0.19568 0.16803 0.59773 0.0
Co1 Co 0.23712 0.14783 0.55222 0.0
C2 C 0.21033 0.10922 0.59322 0.0
O3 O 0.19777 0.12886 0.60492 0.0
O4 O 0.22578 0.11318 0.57229 0.0
C5 C 0.16113 0.17327 0.64621 0.0
O6 O 0.16275 0.14636 0.64745 0.0
C7 C 0.29478 0.14141 0.53972 0.0
C8 C 0.29543 0.14554 0.49474 0.0
C9 C 0.31233 0.14682 0.51751 0.0
N10 N 0.26902 0.13945 0.53052 0.0
N11 N 0.2697 0.14053 0.50348 0.0
C12 C 0.30149 0.14125 0.56965 0.0
H13 H 0.28294 0.13712 0.58237 0.0
H14 H 0.31044 0.16103 0.57567 0.0
H15 H 0.31688 0.12481 0.57386 0.0
C16 C 0.23965 0.20509 0.60991 0.0
N17 N 0.23062 0.18288 0.59697 0.0
N18 N 0.24608 0.17809 0.57525 0.0
C19 C 0.26428 0.19869 0.57252 0.0
C20 C 0.26125 0.21594 0.59476 0.0
C21 C 0.22647 0.21665 0.6352 0.0
H22 H 0.21935 0.19973 0.64887 0.0
H23 H 0.24101 0.22955 0.64648 0.0
H24 H 0.20841 0.22942 0.62934 0.0
O25 O 0.17853 0.17625 0.56166 0.0
O26 O 0.20665 0.16082 0.52871 0.0
H27 H 0.27704 0.22805 0.54178 0.0
H28 H 0.30158 0.20161 0.54906 0.0
C29 C 0.27937 0.20578 0.54647 0.0
H30 H 0.27149 0.19409 0.529 0.0
H31 H 0.25232 0.14097 0.49122 0.0
O32 O 0.17308 0.18603 0.62664 0.0
C33 C 0.18442 0.17272 0.53633 0.0
Co34 Co 0.54958 0.42561 0.32 0.0
Co35 Co 0.5648 0.4712 0.27717 0.0
C36 C 0.60558 0.44668 0.31796 0.0
O37 O 0.58751 0.43173 0.32927 0.0
O38 O 0.60016 0.46188 0.29716 0.0
C39 C 0.5474 0.38153 0.35976 0.0
O40 O 0.57425 0.38089 0.3573 0.0
C41 C 0.57113 0.52964 0.27375 0.0
C42 C 0.56295 0.53947 0.2304 0.0
C43 C 0.56597 0.55146 0.2559 0.0
N44 N 0.57043 0.5061 0.25972 0.0
N45 N 0.56657 0.51214 0.23356 0.0
C46 C 0.57152 0.53075 0.30444 0.0
H47 H 0.57495 0.51004 0.31356 0.0
H48 H 0.55185 0.53948 0.31228 0.0
H49 H 0.58816 0.54442 0.31092 0.0
C50 C 0.50573 0.46371 0.33429 0.0
N51 N 0.52948 0.45814 0.32117 0.0
N52 N 0.53326 0.4759 0.30103 0.0
C53 C 0.51101 0.49275 0.2999 0.0
C54 C 0.49294 0.48567 0.32105 0.0
C55 C 0.49504 0.44724 0.35818 0.0
H56 H 0.48488 0.42864 0.35056 0.0
H57 H 0.51227 0.4406 0.37146 0.0
H58 H 0.48004 0.45935 0.37051 0.0
O59 O 0.54515 0.41062 0.28312 0.0
O60 O 0.55552 0.44152 0.25067 0.0
H61 H 0.51585 0.50522 0.2576 0.0
H62 H 0.4824 0.51237 0.27227 0.0
C63 C 0.50473 0.51177 0.27639 0.0
H64 H 0.51096 0.53278 0.28172 0.0
H65 H 0.56368 0.49757 0.21842 0.0
O66 O 0.53355 0.3988 0.34577 0.0
C67 C 0.54708 0.41775 0.25794 0.0
Co68 Co 0.3084 0.83201 0.09433 0.0
Co69 Co 0.25892 0.84857 0.05685 0.0
C70 C 0.2794 0.88479 0.10221 0.0
O71 O 0.29664 0.86662 0.10967 0.0
O72 O 0.26431 0.88142 0.08138 0.0
C73 C 0.35199 0.83238 0.13307 0.0
O74 O 0.35018 0.8591 0.12942 0.0
C75 C 0.19951 0.84948 0.05394 0.0
C76 C 0.1922 0.85067 0.00943 0.0
C77 C 0.17892 0.84699 0.03462 0.0
N78 N 0.22357 0.85336 0.0407 0.0
N79 N 0.21893 0.85499 0.01411 0.0
C80 C 0.19727 0.84484 0.08433 0.0
H81 H 0.21777 0.84496 0.09391 0.0
H82 H 0.18703 0.82511 0.08902 0.0
H83 H 0.18468 0.86157 0.09347 0.0
C84 C 0.27545 0.78274 0.10376 0.0
N85 N 0.27875 0.80811 0.09314 0.0
N86 N 0.2593 0.81352 0.07539 0.0
C87 C 0.24402 0.79081 0.07271 0.0
C88 C 0.25339 0.7707 0.091 0.0
C89 C 0.29308 0.77071 0.12591 0.0
H90 H 0.31202 0.76184 0.11655 0.0
H91 H 0.29909 0.78699 0.14025 0.0
H92 H 0.28219 0.75444 0.13766 0.0
O93 O 0.32384 0.83736 0.05652 0.0
O94 O 0.28884 0.847 0.02865 0.0
H95 H 0.22553 0.76482 0.04286 0.0
H96 H 0.20326 0.79082 0.05668 0.0
C97 C 0.22455 0.78645 0.04967 0.0
H98 H 0.22961 0.80006 0.03198 0.0
H99 H 0.23427 0.85687 0.99911 0.0
O100 O 0.33697 0.81688 0.11901 0.0
C101 C 0.31434 0.84247 0.03266 0.0
Co102 Co 0.92559 0.56167 0.82209 0.0
Co103 Co 0.9185 0.508 0.7881 0.0
C104 C 0.87953 0.52424 0.83386 0.0
O105 O 0.89338 0.54543 0.83853 0.0
O106 O 0.88584 0.508 0.81442 0.0
C107 C 0.9178 0.60606 0.85949 0.0
O108 O 0.89181 0.59965 0.85774 0.0
C109 C 0.92556 0.44895 0.78615 0.0
C110 C 0.9327 0.44195 0.74204 0.0
C111 C 0.93412 0.42909 0.76762 0.0
N112 N 0.92038 0.47244 0.77225 0.0
N113 N 0.92368 0.46786 0.74578 0.0
C114 C 0.92631 0.44703 0.81685 0.0
H115 H 0.92401 0.46762 0.82609 0.0
H116 H 0.94568 0.43716 0.82381 0.0
H117 H 0.90915 0.43404 0.82424 0.0
C118 C 0.9775 0.53398 0.83678 0.0
N119 N 0.95398 0.53534 0.82267 0.0
N120 N 0.95253 0.51411 0.80644 0.0
C121 C 0.97629 0.49966 0.80815 0.0
C122 C 0.99254 0.51127 0.82801 0.0
C123 C 0.98399 0.55275 0.85982 0.0
H124 H 0.99312 0.57181 0.85125 0.0
H125 H 0.96492 0.55838 0.87115 0.0
H126 H 0.99856 0.54305 0.87441 0.0
O127 O 0.91833 0.57439 0.78399 0.0
O128 O 0.91448 0.53674 0.75886 0.0
H129 H 0.97454 0.48027 0.76879 0.0
H130 H 0.0078 0.47913 0.78459 0.0
C131 C 0.98538 0.47787 0.78852 0.0
H132 H 0.98138 0.45729 0.79741 0.0
H133 H 0.92217 0.48302 0.73053 0.0
O134 O 0.93549 0.5933 0.84491 0.0
C135 C 0.91472 0.56278 0.76106 0.0
Co136 Co 0.68364 0.31432 0.4161 0.0
Co137 Co 0.73048 0.336 0.45304 0.0
C138 C 0.70277 0.37125 0.40951 0.0
O139 O 0.68808 0.35139 0.40246 0.0
O140 O 0.71956 0.36898 0.4293 0.0
C141 C 0.64178 0.30879 0.37567 0.0
O142 O 0.64039 0.33569 0.37666 0.0
C143 C 0.78903 0.34203 0.46041 0.0
C144 C 0.79169 0.34167 0.50546 0.0
C145 C 0.80755 0.33884 0.48174 0.0
N146 N 0.76363 0.34467 0.47116 0.0
N147 N 0.76548 0.3458 0.49809 0.0
C148 C 0.79476 0.33937 0.43026 0.0
H149 H 0.77544 0.34004 0.41849 0.0
H150 H 0.80633 0.32019 0.42581 0.0
H151 H 0.80775 0.35671 0.42332 0.0
C152 C 0.72511 0.27248 0.40279 0.0
N153 N 0.71757 0.29586 0.41526 0.0
N154 N 0.73617 0.30246 0.4332 0.0
C155 C 0.75513 0.28195 0.43435 0.0
C156 C 0.74915 0.26273 0.41456 0.0
C157 C 0.70947 0.26004 0.37994 0.0
H158 H 0.6925 0.24763 0.38873 0.0
H159 H 0.70049 0.27647 0.36675 0.0
H160 H 0.72287 0.2467 0.36712 0.0
O161 O 0.66843 0.31383 0.45423 0.0
O162 O 0.70192 0.32814 0.48109 0.0
H163 H 0.77416 0.25522 0.46414 0.0
H164 H 0.79568 0.2817 0.45108 0.0
C165 C 0.77441 0.27716 0.45768 0.0
H166 H 0.7685 0.2899 0.4755 0.0
H167 H 0.74865 0.34648 0.5115 0.0
O168 O 0.65792 0.29576 0.39163 0.0
C169 C 0.67779 0.31917 0.47786 0.0
Co170 Co 0.42847 0.93277 0.16994 0.0
Co171 Co 0.42477 0.97761 0.21518 0.0
C172 C 0.37564 0.95987 0.18228 0.0
O173 O 0.39028 0.94339 0.16835 0.0
O174 O 0.38566 0.97379 0.20164 0.0
C175 C 0.42006 0.89642 0.12463 0.0
O176 O 0.39419 0.90412 0.12631 0.0
C177 C 0.42744 0.03639 0.22055 0.0
C178 C 0.44342 0.04134 0.26218 0.0
C179 C 0.43855 0.0556 0.2378 0.0
N180 N 0.42649 0.01198 0.23376 0.0
N181 N 0.43509 0.01531 0.25906 0.0
C182 C 0.42274 0.03997 0.19041 0.0
H183 H 0.41402 0.02115 0.18164 0.0
H184 H 0.44236 0.04488 0.17977 0.0
H185 H 0.4084 0.05749 0.18686 0.0
C186 C 0.47289 0.96618 0.14913 0.0
N187 N 0.45073 0.96306 0.16548 0.0
N188 N 0.4522 0.97949 0.1865 0.0
C189 C 0.47647 0.99249 0.18502 0.0
C190 C 0.49021 0.98481 0.16111 0.0
C191 C 0.47793 0.95018 0.12352 0.0
H192 H 0.48682 0.92978 0.12898 0.0
H193 H 0.45827 0.94696 0.11289 0.0
H194 H 0.4923 0.96104 0.10942 0.0
O195 O 0.4382 0.91538 0.20524 0.0
O196 O 0.43544 0.94548 0.2392 0.0
H197 H 0.47944 0.00038 0.22823 0.0
H198 H 0.51131 0.00312 0.2094 0.0
C199 C 0.48888 0.00711 0.20854 0.0
H200 H 0.48561 0.02946 0.2056 0.0
H201 H 0.43797 0.99929 0.2732 0.0
O202 O 0.43718 0.90596 0.14129 0.0
C203 C 0.44086 0.92138 0.23042 0.0
Co204 Co 0.80221 0.66764 0.89489 0.0
Co205 Co 0.76034 0.65328 0.94227 0.0
C206 C 0.78259 0.61111 0.9023 0.0
O207 O 0.79629 0.62907 0.88935 0.0
O208 O 0.76865 0.61695 0.92376 0.0
C209 C 0.8391 0.66623 0.84866 0.0
O210 O 0.83875 0.63957 0.85293 0.0
C211 C 0.70301 0.64538 0.94598 0.0
C212 C 0.69103 0.66347 0.98545 0.0
C213 C 0.68046 0.65575 0.96037 0.0
N214 N 0.72571 0.64857 0.96088 0.0
N215 N 0.71829 0.65824 0.98508 0.0
C216 C 0.70349 0.6342 0.91747 0.0
H217 H 0.7135 0.64892 0.90314 0.0
H218 H 0.68247 0.6299 0.91034 0.0
H219 H 0.71575 0.61489 0.91713 0.0
C220 C 0.76091 0.70894 0.88104 0.0
N221 N 0.76888 0.68628 0.89497 0.0
N222 N 0.75354 0.68325 0.9171 0.0
C223 C 0.7364 0.70514 0.91892 0.0
C224 C 0.73996 0.72166 0.89579 0.0
C225 C 0.7746 0.71909 0.85527 0.0
H226 H 0.79338 0.73036 0.86062 0.0
H227 H 0.78073 0.70148 0.84227 0.0
H228 H 0.76079 0.73305 0.84353 0.0
O229 O 0.81954 0.67534 0.93035 0.0
O230 O 0.79161 0.66518 0.96562 0.0
H231 H 0.72328 0.73676 0.9469 0.0
H232 H 0.70092 0.7082 0.94504 0.0
C233 C 0.72269 0.7141 0.94502 0.0
H234 H 0.73312 0.70472 0.96294 0.0
H235 H 0.73204 0.66439 -5e-05 0.0
O236 O 0.82565 0.68189 0.8647 0.0
C237 C 0.8143 0.67449 0.95608 0.0
Co238 Co 0.05512 0.06454 0.67792 0.0
Co239 Co 0.06306 0.00999 0.71218 0.0
C240 C 0.10612 0.03274 0.67265 0.0
O241 O 0.09041 0.05177 0.664 0.0
O242 O 0.09885 0.01663 0.69209 0.0
C243 C 0.06147 0.11096 0.64174 0.0
O244 O 0.0877 0.10649 0.64601 0.0
C245 C 0.06423 0.95316 0.70053 0.0
C246 C 0.04828 0.9329 0.73791 0.0
C247 C 0.05395 0.92846 0.71029 0.0
N248 N 0.06349 0.97154 0.72082 0.0
N249 N 0.05489 0.95905 0.7435 0.0
C250 C 0.07249 0.96008 0.67154 0.0
H251 H 0.09305 0.96948 0.67134 0.0
H252 H 0.05785 0.97529 0.6627 0.0
H253 H 0.07341 0.94156 0.65856 0.0
C254 C 0.00585 0.03599 0.65979 0.0
N255 N 0.02929 0.03705 0.67399 0.0
N256 N 0.03082 0.01594 0.69088 0.0
C257 C 0.00728 0.00185 0.68959 0.0
C258 C 0.99092 0.01358 0.6693 0.0
C259 C 0.99861 0.05566 0.63708 0.0
H260 H 0.98812 0.07394 0.64587 0.0
H261 H 0.01748 0.0625 0.6262 0.0
H262 H 0.98487 0.04608 0.6221 0.0
O263 O 0.05783 0.074 0.71785 0.0
O264 O 0.06068 0.03545 0.74342 0.0
H265 H 0.00811 0.98545 0.73068 0.0
H266 H 0.97566 0.98206 0.71373 0.0
C267 C 0.99827 0.98128 0.71083 0.0
H268 H 0.00407 0.96039 0.70427 0.0
H269 H 0.05088 0.96899 0.76197 0.0
O270 O 0.04395 0.09675 0.65502 0.0
C271 C 0.05928 0.06159 0.74114 0.0
Co272 Co 0.60583 0.1864 0.18275 0.0
Co273 Co 0.55656 0.22301 0.1636 0.0
C274 C 0.6026 0.20548 0.12537 0.0
O275 O 0.6152 0.19394 0.14496 0.0
O276 O 0.57887 0.21616 0.12888 0.0
C277 C 0.65126 0.14993 0.18273 0.0
O278 O 0.64348 0.14615 0.15737 0.0
C279 C 0.54322 0.27929 0.15181 0.0
C280 C 0.49853 0.28186 0.15828 0.0
C281 C 0.52167 0.29803 0.15465 0.0
N282 N 0.53345 0.25375 0.15478 0.0
N283 N 0.50653 0.2553 0.15755 0.0
C284 C 0.57327 0.28546 0.15091 0.0
H285 H 0.5858 0.26632 0.15104 0.0
H286 H 0.57884 0.29822 0.16861 0.0
H287 H 0.57813 0.2972 0.13186 0.0
C288 C 0.61147 0.22901 0.22353 0.0
N289 N 0.59996 0.21918 0.20088 0.0
N290 N 0.57781 0.23359 0.1949 0.0
C291 C 0.57378 0.25245 0.21472 0.0
C292 C 0.59516 0.25036 0.23325 0.0
C293 C 0.63726 0.21752 0.23575 0.0
H294 H 0.63237 0.1987 0.24783 0.0
H295 H 0.65197 0.2118 0.21918 0.0
H296 H 0.64701 0.23255 0.24932 0.0
O297 O 0.57243 0.16413 0.18716 0.0
O298 O 0.53589 0.18911 0.17492 0.0
H299 H 0.53044 0.2588 0.20884 0.0
H300 H 0.54311 0.2711 0.24096 0.0
C301 C 0.54788 0.26883 0.21878 0.0
H302 H 0.55057 0.2897 0.20994 0.0
H303 H 0.494 0.23848 0.16154 0.0
O304 O 0.63726 0.16582 0.19811 0.0
C305 C 0.54653 0.16682 0.18439 0.0
Co306 Co 0.56394 0.81958 0.94448 0.0
Co307 Co 0.50888 0.79247 0.92642 0.0
C308 C 0.54023 0.83343 0.89054 0.0
O309 O 0.55834 0.83652 0.90863 0.0
O310 O 0.52043 0.81684 0.8941 0.0
C311 C 0.61199 0.85265 0.94958 0.0
O312 O 0.61105 0.85412 0.92268 0.0
C313 C 0.45063 0.80264 0.92236 0.0
C314 C 0.43284 0.76165 0.9283 0.0
C315 C 0.42591 0.78942 0.92757 0.0
N316 N 0.471 0.78378 0.92145 0.0
N317 N 0.46014 0.7592 0.92412 0.0
C318 C 0.45543 0.83284 0.9194 0.0
H319 H 0.46279 0.841 0.93907 0.0
H320 H 0.43637 0.84393 0.91336 0.0
H321 H 0.4716 0.83666 0.90368 0.0
C322 C 0.52913 0.83734 0.99059 0.0
N323 N 0.53256 0.82489 0.96631 0.0
N324 N 0.51059 0.81081 0.96078 0.0
C325 C 0.49324 0.81215 0.98253 0.0
C326 C 0.50408 0.82952 0.00183 0.0
C327 C 0.54924 0.85689 0.00216 0.0
H328 H 0.56543 0.8451 0.01316 0.0
H329 H 0.55907 0.86892 0.98534 0.0
H330 H 0.5391 0.87131 0.01661 0.0
O331 O 0.57164 0.77961 0.94163 0.0
O332 O 0.5329 0.75906 0.92974 0.0
H333 H 0.47258 0.77417 0.97577 0.0
H334 H 0.46689 0.78845 0.00933 0.0
C335 C 0.46946 0.79348 0.98718 0.0
H336 H 0.45042 0.80382 0.98026 0.0
H337 H 0.47154 0.74097 0.92542 0.0
O338 O 0.5949 0.8377 0.96252 0.0
C339 C 0.55819 0.7581 0.93627 0.0
Co340 Co 0.9002 0.80912 0.65827 0.0
Co341 Co 0.93565 0.75628 0.64558 0.0
C342 C 0.89753 0.78277 0.60422 0.0
O343 O 0.89008 0.80077 0.62134 0.0
O344 O 0.91557 0.76449 0.60998 0.0
C345 C 0.86185 0.85455 0.65519 0.0
O346 O 0.864 0.85117 0.62857 0.0
C347 C 0.93465 0.69702 0.64402 0.0
C348 C 0.97755 0.68504 0.65209 0.0
C349 C 0.95132 0.67445 0.6504 0.0
N350 N 0.95009 0.71967 0.64324 0.0
N351 N 0.9759 0.7123 0.64722 0.0
C352 C 0.90432 0.69761 0.63953 0.0
H353 H 0.89913 0.71319 0.62356 0.0
H354 H 0.8935 0.70368 0.65869 0.0
H355 H 0.89703 0.6772 0.6332 0.0
C356 C 0.88101 0.7748 0.70435 0.0
N357 N 0.89533 0.77815 0.68081 0.0
N358 N 0.91241 0.75736 0.67754 0.0
C359 C 0.91108 0.74115 0.70017 0.0
C360 C 0.8906 0.75119 0.71759 0.0
C361 C 0.85872 0.79405 0.7137 0.0
H362 H 0.86797 0.81152 0.72445 0.0
H363 H 0.84738 0.8023 0.69574 0.0
H364 H 0.84407 0.78358 0.7278 0.0
O365 O 0.93906 0.82031 0.65971 0.0
O366 O 0.96521 0.78317 0.65195 0.0
H367 H 0.95234 0.72511 0.69732 0.0
H368 H 0.93591 0.71995 0.73027 0.0
C369 C 0.93265 0.72034 0.70778 0.0
H370 H 0.92601 0.69971 0.70178 0.0
H371 H 0.992 0.72606 0.64876 0.0
O372 O 0.8762 0.83955 0.67121 0.0
C373 C 0.96254 0.80861 0.65747 0.0
Co374 Co 0.94003 0.17839 0.44331 0.0
Co375 Co 0.98876 0.21917 0.43615 0.0
C376 C 0.97405 0.17922 0.39234 0.0
O377 O 0.95488 0.16942 0.40715 0.0
O378 O 0.98849 0.19906 0.40037 0.0
C379 C 0.89823 0.13845 0.43464 0.0
O380 O 0.90263 0.14425 0.40857 0.0
C381 C 0.04699 0.22501 0.44056 0.0
C382 C 0.05142 0.26872 0.45042 0.0
C383 C 0.06578 0.24391 0.44967 0.0
N384 N 0.02272 0.23784 0.43716 0.0
N385 N 0.02568 0.26421 0.44206 0.0
C386 C 0.05053 0.19442 0.43953 0.0
H387 H 0.03079 0.18437 0.4353 0.0
H388 H 0.05894 0.1863 0.4591 0.0
H389 H 0.06532 0.18917 0.42288 0.0
C390 C 0.96988 0.1621 0.49285 0.0
N391 N 0.96787 0.17661 0.46929 0.0
N392 N 0.98671 0.19565 0.46834 0.0
C393 C 0.00035 0.19485 0.49234 0.0
C394 C 0.99048 0.17326 0.50846 0.0
C395 C 0.95237 0.13794 0.49989 0.0
H396 H 0.93248 0.14531 0.50852 0.0
H397 H 0.94822 0.12615 0.48113 0.0
H398 H 0.96247 0.12413 0.51508 0.0
O399 O 0.9235 0.21591 0.44414 0.0
O400 O 0.9575 0.24558 0.43757 0.0
H401 H 0.01413 0.23666 0.49117 0.0
H402 H 0.01631 0.21998 0.52433 0.0
C403 C 0.01882 0.21701 0.5019 0.0
H404 H 0.04048 0.21106 0.49792 0.0
H405 H 0.0096 0.27855 0.44222 0.0
O406 O 0.91135 0.15126 0.45274 0.0
C407 C 0.9322 0.24043 0.44163 0.0
Co408 Co 0.08758 0.29917 0.83449 0.0
Co409 Co 0.04504 0.25337 0.84952 0.0
C410 C 0.08292 0.27708 0.89124 0.0
O411 O 0.0938 0.29231 0.87301 0.0
O412 O 0.06308 0.26137 0.88579 0.0
C413 C 0.13019 0.33928 0.8369 0.0
O414 O 0.12619 0.33748 0.86355 0.0
C415 C 0.03927 0.19477 0.85576 0.0
C416 C 0.99663 0.18802 0.84344 0.0
C417 C 0.02124 0.17422 0.84844 0.0
N418 N 0.0263 0.21923 0.85372 0.0
N419 N 0.0005 0.21501 0.8473 0.0
C420 C 0.06874 0.1918 0.86367 0.0
H421 H 0.07356 0.20694 0.87963 0.0
H422 H 0.08216 0.19622 0.84567 0.0
H423 H 0.07324 0.17076 0.87155 0.0
C424 C 0.10623 0.25883 0.79415 0.0
N425 N 0.09039 0.26634 0.81562 0.0
N426 N 0.07045 0.24875 0.81922 0.0
C427 C 0.07178 0.23056 0.79858 0.0
C428 C 0.09497 0.23574 0.7826 0.0
C429 C 0.13135 0.27385 0.78493 0.0
H430 H 0.142 0.28215 0.80293 0.0
H431 H 0.14568 0.26018 0.77349 0.0
H432 H 0.12525 0.29132 0.7714 0.0
O433 O 0.05061 0.31537 0.82792 0.0
O434 O 0.01943 0.28408 0.83963 0.0
H435 H 0.04714 0.21192 0.76778 0.0
H436 H 0.05214 0.19168 0.79809 0.0
C437 C 0.04853 0.21279 0.79047 0.0
H438 H 0.02885 0.2208 0.79888 0.0
H439 H 0.98626 0.23063 0.84312 0.0
O440 O 0.11561 0.3252 0.82101 0.0
C441 C 0.0257 0.30791 0.83051 0.0
Co442 Co 0.42389 0.31856 0.55017 0.0
Co443 Co 0.47304 0.28375 0.57413 0.0
C444 C 0.44494 0.33009 0.605 0.0
O445 O 0.42879 0.3354 0.58544 0.0
O446 O 0.46208 0.31021 0.60398 0.0
C447 C 0.37189 0.34564 0.53389 0.0
O448 O 0.35892 0.32984 0.55169 0.0
C449 C 0.52921 0.29172 0.584 0.0
C450 C 0.54896 0.25268 0.57254 0.0
C451 C 0.55437 0.28031 0.5764 0.0
N452 N 0.50981 0.27249 0.58271 0.0
N453 N 0.52191 0.24877 0.57715 0.0
C454 C 0.52304 0.32124 0.59014 0.0
H455 H 0.50933 0.33016 0.57427 0.0
H456 H 0.54203 0.33343 0.59139 0.0
H457 H 0.51214 0.32251 0.61018 0.0
C458 C 0.46417 0.33039 0.50688 0.0
N459 N 0.45715 0.31897 0.53115 0.0
N460 N 0.47594 0.30094 0.53857 0.0
C461 C 0.4945 0.29861 0.51791 0.0
C462 C 0.48807 0.31769 0.49748 0.0
C463 C 0.44866 0.35371 0.4938 0.0
H464 H 0.43147 0.34551 0.48183 0.0
H465 H 0.44007 0.36727 0.50993 0.0
H466 H 0.46206 0.36605 0.47999 0.0
O467 O 0.41195 0.27946 0.55276 0.0
O468 O 0.44583 0.25394 0.571 0.0
H469 H 0.50638 0.2568 0.52641 0.0
H470 H 0.51635 0.26936 0.49282 0.0
C471 C 0.51399 0.27488 0.51475 0.0
H472 H 0.53442 0.28044 0.52219 0.0
H473 H 0.51143 0.23076 0.57313 0.0
O474 O 0.39758 0.34251 0.53018 0.0
C475 C 0.42186 0.25627 0.56076 0.0
Co476 Co 0.40203 0.68305 0.31603 0.0
Co477 Co 0.4498 0.7227 0.32885 0.0
C478 C 0.41005 0.70218 0.37234 0.0
O479 O 0.39703 0.68891 0.35473 0.0
O480 O 0.43148 0.71559 0.3659 0.0
C481 C 0.35499 0.64811 0.31916 0.0
O482 O 0.35849 0.64881 0.34581 0.0
C483 C 0.46118 0.77975 0.33639 0.0
C484 C 0.5049 0.78294 0.32517 0.0
C485 C 0.48149 0.79872 0.33052 0.0
N486 N 0.47181 0.75433 0.33368 0.0
N487 N 0.49825 0.7563 0.32802 0.0
C488 C 0.4311 0.78556 0.33989 0.0
H489 H 0.41947 0.76628 0.34241 0.0
H490 H 0.42327 0.7974 0.32196 0.0
H491 H 0.42764 0.79822 0.35838 0.0
C492 C 0.38853 0.72466 0.27507 0.0
N493 N 0.40276 0.71642 0.29716 0.0
N494 N 0.42447 0.73179 0.29981 0.0
C495 C 0.42543 0.74964 0.2783 0.0
C496 C 0.40257 0.74581 0.26206 0.0
C497 C 0.36268 0.71142 0.26605 0.0
H498 H 0.34986 0.70597 0.28423 0.0
H499 H 0.35072 0.72529 0.25234 0.0
H500 H 0.36791 0.69227 0.25498 0.0
O501 O 0.43637 0.66332 0.30727 0.0
O502 O 0.4719 0.68985 0.31625 0.0
H503 H 0.45243 0.76767 0.24785 0.0
H504 H 0.44704 0.78752 0.27812 0.0
C505 C 0.44994 0.76635 0.27049 0.0
H506 H 0.46882 0.75721 0.27934 0.0
H507 H 0.51111 0.73962 0.32355 0.0
O508 O 0.37145 0.66081 0.30323 0.0
C509 C 0.46212 0.66745 0.30741 0.0
Co510 Co 0.0583 0.67416 0.03749 0.0
Co511 Co 0.00839 0.71056 0.05584 0.0
C512 C 0.0326 0.66573 0.09204 0.0
O513 O 0.04997 0.65931 0.07362 0.0
O514 O 0.01576 0.68567 0.08874 0.0
C515 C 0.10454 0.63818 0.03597 0.0
O516 O 0.10531 0.64336 0.06232 0.0
C517 C 0.94983 0.70969 0.06258 0.0
C518 C 0.93723 0.75289 0.05674 0.0
C519 C 0.92695 0.72645 0.05882 0.0
N520 N 0.97237 0.72528 0.06209 0.0
N521 N 0.96467 0.75127 0.05961 0.0
C522 C 0.95065 0.67896 0.06159 0.0
H523 H 0.97203 0.67098 0.06156 0.0
H524 H 0.94007 0.67176 0.04305 0.0
H525 H 0.93958 0.67049 0.07976 0.0
C526 C 0.02248 0.6612 0.99214 0.0
N527 N 0.02707 0.67353 0.01609 0.0
N528 N 0.00699 0.69088 0.02166 0.0
C529 C 0.98949 0.69116 0.00032 0.0
C530 C 0.9986 0.67215 0.98109 0.0
C531 C 0.0405 0.63893 0.98064 0.0
H532 H 0.05837 0.64831 0.96995 0.0
H533 H 0.04822 0.62553 0.99749 0.0
H534 H 0.02928 0.62615 0.96597 0.0
O535 O 0.07149 0.71206 0.03795 0.0
O536 O 0.0373 0.73972 0.05163 0.0
H537 H 0.97098 0.73078 0.00754 0.0
H538 H 0.96447 0.71688 0.97415 0.0
C539 C 0.96682 0.71175 0.99626 0.0
H540 H 0.94725 0.70291 0.0037 0.0
H541 H 0.97821 0.76755 0.05727 0.0
O542 O 0.08684 0.65043 0.02118 0.0
C543 C 0.06204 0.73591 0.04336 0.0
Co544 Co 0.17446 0.59248 0.17118 0.0
Co545 Co 0.1577 0.55528 0.22192 0.0
C546 C 0.11783 0.59412 0.19456 0.0
O547 O 0.13609 0.60126 0.17732 0.0
O548 O 0.12262 0.5763 0.21331 0.0
C549 C 0.17303 0.63439 0.12924 0.0
O550 O 0.14649 0.63015 0.13011 0.0
C551 C 0.15227 0.55457 0.281 0.0
C552 C 0.16122 0.51148 0.29225 0.0
C553 C 0.15808 0.53747 0.30337 0.0
N554 N 0.15322 0.53964 0.258 0.0
N555 N 0.15772 0.5137 0.26492 0.0
C556 C 0.14678 0.58489 0.28097 0.0
H557 H 0.16588 0.59599 0.27575 0.0
H558 H 0.13904 0.59164 0.30133 0.0
H559 H 0.13152 0.59036 0.26507 0.0
C560 C 0.21634 0.61052 0.20883 0.0
N561 N 0.19342 0.59654 0.20379 0.0
N562 N 0.18917 0.57836 0.22348 0.0
C563 C 0.21062 0.57879 0.2407 0.0
C564 C 0.22816 0.59961 0.23237 0.0
C565 C 0.22673 0.63348 0.191 0.0
H566 H 0.23802 0.62482 0.17313 0.0
H567 H 0.20923 0.646 0.18325 0.0
H568 H 0.2406 0.64695 0.20243 0.0
O569 O 0.18018 0.5541 0.15908 0.0
O570 O 0.16622 0.52683 0.19362 0.0
H571 H 0.23991 0.55277 0.26174 0.0
H572 H 0.21021 0.56218 0.28151 0.0
C573 C 0.2174 0.55628 0.2608 0.0
H574 H 0.20758 0.53691 0.25491 0.0
H575 H 0.16064 0.49794 0.25087 0.0
O576 O 0.18883 0.61915 0.14358 0.0
C577 C 0.17627 0.53022 0.16946 0.0
Co578 Co 0.6862 0.91235 0.80906 0.0
Co579 Co 0.66511 0.95099 0.76195 0.0
C580 C 0.63 0.9067 0.78846 0.0
O581 O 0.64951 0.89923 0.80383 0.0
O582 O 0.6324 0.92675 0.77151 0.0
C583 C 0.6911 0.87141 0.85113 0.0
O584 O 0.66438 0.87475 0.85328 0.0
C585 C 0.66063 0.95858 0.70313 0.0
C586 C 0.65979 0.00363 0.69904 0.0
C587 C 0.66354 0.97981 0.68395 0.0
N588 N 0.65714 0.96948 0.72815 0.0
N589 N 0.65539 0.99641 0.72543 0.0
C590 C 0.66438 0.92841 0.69851 0.0
H591 H 0.66314 0.91673 0.71817 0.0
H592 H 0.68424 0.92399 0.68806 0.0
H593 H 0.64789 0.9213 0.68496 0.0
C594 C 0.72973 0.90063 0.76916 0.0
N595 N 0.70557 0.91252 0.77572 0.0
N596 N 0.69924 0.93128 0.75718 0.0
C597 C 0.72056 0.93344 0.73924 0.0
C598 C 0.74025 0.91366 0.74593 0.0
C599 C 0.74226 0.87721 0.78502 0.0
H600 H 0.75339 0.88534 0.80281 0.0
H601 H 0.72596 0.86338 0.79283 0.0
H602 H 0.75678 0.86518 0.77209 0.0
O603 O 0.68582 0.94977 0.82445 0.0
O604 O 0.67174 0.97825 0.79108 0.0
H605 H 0.74678 0.9639 0.72088 0.0
H606 H 0.72103 0.95145 0.6988 0.0
C607 C 0.72507 0.95741 0.72019 0.0
H608 H 0.71167 0.97499 0.72592 0.0
H609 H 0.65399 0.00991 0.74183 0.0
O610 O 0.70457 0.88669 0.83467 0.0
C611 C 0.68032 0.97387 0.81538 0.0
Co612 Co 0.8276 0.94306 0.55894 0.0
Co613 Co 0.79085 0.93331 0.508 0.0
C614 C 0.83373 0.89222 0.52655 0.0
O615 O 0.84047 0.90749 0.54612 0.0
O616 O 0.8145 0.89895 0.51025 0.0
C617 C 0.86528 0.93736 0.60326 0.0
O618 O 0.86133 0.911 0.60004 0.0
C619 C 0.78847 0.93748 0.44929 0.0
C620 C 0.74455 0.94513 0.44185 0.0
C621 C 0.77021 0.94589 0.4291 0.0
N622 N 0.77441 0.93319 0.47279 0.0
N623 N 0.74801 0.9367 0.46801 0.0
C624 C 0.8192 0.93792 0.44769 0.0
H625 H 0.82829 0.93375 0.46808 0.0
H626 H 0.82641 0.95799 0.43962 0.0
H627 H 0.82653 0.92186 0.43335 0.0
C628 C 0.84274 0.99245 0.52794 0.0
N629 N 0.82934 0.9686 0.53016 0.0
N630 N 0.81161 0.96676 0.51022 0.0
C631 C 0.81202 0.99055 0.49555 0.0
C632 C 0.83209 0.00737 0.50601 0.0
C633 C 0.86562 0.0003 0.54635 0.0
H634 H 0.85687 0.009 0.56552 0.0
H635 H 0.87812 0.98189 0.55179 0.0
H636 H 0.87914 0.01569 0.53633 0.0
O637 O 0.78942 0.94248 0.57305 0.0
O638 O 0.76233 0.93375 0.53779 0.0
H639 H 0.78605 0.0215 0.47703 0.0
H640 H 0.79867 0.99585 0.45411 0.0
C641 C 0.79075 0.99924 0.47519 0.0
H642 H 0.77162 0.98761 0.47853 0.0
H643 H 0.7327 0.93599 0.48314 0.0
O644 O 0.85202 0.95455 0.58857 0.0
C645 C 0.7657 0.93871 0.56316 0.0
Co646 Co 0.84778 0.10445 0.3138 0.0
Co647 Co 0.8622 0.06455 0.2654 0.0
C648 C 0.9044 0.10024 0.2913 0.0
O649 O 0.8865 0.10991 0.3077 0.0
O650 O 0.89855 0.08215 0.27374 0.0
C651 C 0.84855 0.14855 0.35321 0.0
O652 O 0.87504 0.14919 0.34804 0.0
C653 C 0.86192 0.05782 0.20595 0.0
C654 C 0.85672 0.01317 0.20289 0.0
C655 C 0.85535 0.03742 0.1876 0.0
N656 N 0.86563 0.04628 0.23092 0.0
N657 N 0.86367 0.01942 0.22865 0.0
C658 C 0.86101 0.08817 0.20066 0.0
H659 H 0.86551 0.09959 0.21958 0.0
H660 H 0.84073 0.0946 0.19259 0.0
H661 H 0.87657 0.09343 0.18471 0.0
C662 C 0.80551 0.12338 0.27686 0.0
N663 N 0.82891 0.10922 0.2811 0.0
N664 N 0.83155 0.08968 0.26292 0.0
C665 C 0.80854 0.08943 0.24778 0.0
C666 C 0.79157 0.11115 0.25573 0.0
C667 C 0.79622 0.14712 0.29395 0.0
H668 H 0.786 0.13933 0.31291 0.0
H669 H 0.81416 0.15934 0.29994 0.0
H670 H 0.78163 0.16058 0.28256 0.0
O671 O 0.84012 0.06687 0.32766 0.0
O672 O 0.8525 0.03758 0.29485 0.0
H673 H 0.77764 0.06125 0.23503 0.0
H674 H 0.80251 0.06983 0.20921 0.0
C675 C 0.79974 0.06533 0.23139 0.0
H676 H 0.81169 0.04666 0.23706 0.0
H677 H 0.8643 0.00564 0.24521 0.0
O678 O 0.83392 0.13097 0.34134 0.0
C679 C 0.84273 0.04247 0.31872 0.0
Co680 Co 0.67196 0.04357 0.07027 0.0
Co681 Co 0.71361 0.06105 0.02425 0.0
C682 C 0.66637 0.09742 0.04356 0.0
O683 O 0.65705 0.07873 0.05914 0.0
O684 O 0.68898 0.09431 0.03061 0.0
C685 C 0.63405 0.0454 0.11396 0.0
O686 O 0.64272 0.07078 0.11481 0.0
C687 C 0.71005 0.06983 0.96705 0.0
C688 C 0.74932 0.05472 0.95019 0.0
C689 C 0.7225 0.06119 0.94287 0.0
N690 N 0.72785 0.06699 0.98775 0.0
N691 N 0.7518 0.05913 0.97736 0.0
C692 C 0.68053 0.07804 0.97103 0.0
H693 H 0.67037 0.06365 0.98563 0.0
H694 H 0.66933 0.07878 0.95136 0.0
H695 H 0.67946 0.09884 0.97993 0.0
C696 C 0.66271 0.99745 0.03359 0.0
N697 N 0.67455 0.02128 0.03988 0.0
N698 N 0.6945 0.02657 0.02235 0.0
C699 C 0.69733 0.00498 0.00543 0.0
C700 C 0.67684 0.98615 0.01144 0.0
C701 C 0.63794 0.98644 0.04822 0.0
H702 H 0.64459 0.97341 0.06582 0.0
H703 H 0.62508 0.00356 0.05622 0.0
H704 H 0.62546 0.97394 0.03435 0.0
O705 O 0.70913 0.04581 0.08641 0.0
O706 O 0.74063 0.05741 0.05479 0.0
H707 H 0.74024 0.00972 0.99659 0.0
H708 H 0.72646 0.97724 0.9865 0.0
C709 C 0.72216 0.99961 0.98788 0.0
H710 H 0.71871 0.00756 0.96689 0.0
H711 H 0.7688 0.05366 0.98912 0.0
O712 O 0.64545 0.02881 0.0973 0.0
C713 C 0.73402 0.05054 0.07944 0.0
Co714 Co 0.30822 0.40273 0.68678 0.0
Co715 Co 0.32327 0.44515 0.73153 0.0
C716 C 0.36437 0.40468 0.7082 0.0
O717 O 0.34642 0.39488 0.69273 0.0
O718 O 0.35902 0.42465 0.72409 0.0
C719 C 0.30885 0.36039 0.64628 0.0
O720 O 0.33558 0.3634 0.64618 0.0
C721 C 0.32914 0.45255 0.78973 0.0
C722 C 0.31965 0.49648 0.79471 0.0
C723 C 0.3231 0.47207 0.80944 0.0
N724 N 0.32823 0.46459 0.76478 0.0
N725 N 0.32369 0.49113 0.76792 0.0
C726 C 0.33112 0.42211 0.79423 0.0
H727 H 0.33407 0.41132 0.7745 0.0
H728 H 0.31241 0.4145 0.80486 0.0
H729 H 0.34875 0.41731 0.80771 0.0
C730 C 0.26683 0.3867 0.72685 0.0
N731 N 0.28915 0.40114 0.71991 0.0
N732 N 0.29253 0.42103 0.73743 0.0
C733 C 0.27112 0.42077 0.75537 0.0
C734 C 0.25441 0.3988 0.74943 0.0
C735 C 0.25743 0.36219 0.71153 0.0
H736 H 0.27542 0.34989 0.70451 0.0
H737 H 0.24406 0.34902 0.72459 0.0
H738 H 0.24584 0.36917 0.69322 0.0
O739 O 0.30167 0.43915 0.67048 0.0
O740 O 0.31349 0.47091 0.70043 0.0
H741 H 0.27394 0.46288 0.76788 0.0
H742 H 0.24126 0.44719 0.77492 0.0
C743 C 0.26379 0.44364 0.77439 0.0
H744 H 0.27007 0.43786 0.79545 0.0
H745 H 0.32062 0.50503 0.75175 0.0
O746 O 0.29384 0.37541 0.66157 0.0
C747 C 0.30407 0.46415 0.67717 0.0
Co748 Co 0.32152 0.55568 0.41684 0.0
Co749 Co 0.28993 0.56731 0.47178 0.0
C750 C 0.33749 0.60139 0.45273 0.0
O751 O 0.34096 0.58627 0.43206 0.0
O752 O 0.3177 0.5977 0.46956 0.0
C753 C 0.35752 0.56166 0.37088 0.0
O754 O 0.35293 0.58792 0.375 0.0
C755 C 0.2899 0.56801 0.53115 0.0
C756 C 0.24601 0.56549 0.54219 0.0
C757 C 0.27208 0.56508 0.55345 0.0
N758 N 0.27511 0.56945 0.50808 0.0
N759 N 0.24883 0.56873 0.51482 0.0
C760 C 0.3206 0.56615 0.53113 0.0
H761 H 0.32875 0.56195 0.51025 0.0
H762 H 0.32783 0.54986 0.54551 0.0
H763 H 0.32887 0.58598 0.53798 0.0
C764 C 0.33048 0.50181 0.44302 0.0
N765 N 0.3196 0.52729 0.44316 0.0
N766 N 0.30619 0.53131 0.46639 0.0
C767 C 0.30751 0.50778 0.4815 0.0
C768 C 0.32341 0.48854 0.46737 0.0
C769 C 0.34732 0.49049 0.4198 0.0
H770 H 0.33604 0.49345 0.40035 0.0
H771 H 0.36679 0.50194 0.41798 0.0
H772 H 0.35192 0.46829 0.42276 0.0
O773 O 0.28435 0.56642 0.40504 0.0
O774 O 0.26029 0.5727 0.44378 0.0
H775 H 0.27523 0.51609 0.51078 0.0
H776 H 0.28924 0.48192 0.51296 0.0
C777 C 0.29433 0.50371 0.50913 0.0
H778 H 0.30877 0.50979 0.52523 0.0
H779 H 0.23294 0.56877 0.50069 0.0
O780 O 0.34444 0.54409 0.38526 0.0
C781 C 0.26193 0.57194 0.41762 0.0
Co782 Co 0.15432 0.43041 0.94372 0.0
Co783 Co 0.20272 0.41828 0.9839 0.0
C784 C 0.16068 0.3756 0.9691 0.0
O785 O 0.14723 0.39274 0.95463 0.0
O786 O 0.18297 0.38215 0.98058 0.0
C787 C 0.11019 0.42773 0.90569 0.0
O788 O 0.11481 0.40115 0.90742 0.0
C789 C 0.21461 0.41866 0.04145 0.0
C790 C 0.25895 0.42641 0.04184 0.0
C791 C 0.23557 0.42686 0.05855 0.0
N792 N 0.22488 0.41532 0.01596 0.0
N793 N 0.25165 0.41875 0.01655 0.0
C794 C 0.18446 0.41825 0.04789 0.0
H795 H 0.1726 0.41268 0.02957 0.0
H796 H 0.17731 0.43851 0.05547 0.0
H797 H 0.18043 0.40274 0.06425 0.0
C798 C 0.14349 0.47581 0.98056 0.0
N799 N 0.15671 0.4523 0.97439 0.0
N800 N 0.17896 0.44975 0.98919 0.0
C801 C 0.1814 0.47267 0.00422 0.0
C802 C 0.15875 0.48955 -0.0003 0.0
C803 C 0.1176 0.48541 0.96712 0.0
H804 H 0.12272 0.4953 0.9471 0.0
H805 H 0.10427 0.46764 0.96326 0.0
H806 H 0.1063 0.50041 0.9801 0.0
O807 O 0.18914 0.43429 0.92289 0.0
O808 O 0.22485 0.42608 0.94997 0.0
H809 H 0.22509 0.4694 0.01015 0.0
H810 H 0.21077 0.50339 0.01436 0.0
C811 C 0.20715 0.48118 0.01799 0.0
H812 H 0.20487 0.47801 0.04042 0.0
H813 H 0.2644 0.41881 0.9992 0.0
O814 O 0.12467 0.44387 0.91953 0.0
C815 C 0.21497 0.43294 0.92667 0.0
H816 H 0.33476 0.31607 0.62386 0.0
H817 H 0.25473 0.3532 0.6364 0.0
H818 H 0.23308 0.31247 0.61863 0.0
H819 H 0.23659 0.2649 0.60382 0.0
H820 H 0.31597 0.22621 0.59384 0.0
H821 H 0.33832 0.26922 0.60556 0.0
C822 C 0.31261 0.3154 0.62229 0.0
C823 C 0.29636 0.33746 0.63174 0.0
C824 C 0.30022 0.29161 0.61268 0.0
C825 C 0.26769 0.33635 0.62953 0.0
C826 C 0.25527 0.31307 0.61941 0.0
C827 C 0.25878 0.26591 0.60438 0.0
C828 C 0.2747 0.24244 0.59883 0.0
C829 C 0.27129 0.29033 0.61174 0.0
C830 C 0.3034 0.24411 0.59841 0.0
C831 C 0.31612 0.2686 0.6052 0.0
H832 H 0.3708 0.50976 0.35602 0.0
H833 H 0.39876 0.59329 0.34947 0.0
H834 H 0.44293 0.57719 0.33124 0.0
H835 H 0.47555 0.53883 0.32293 0.0
H836 H 0.44672 0.45565 0.32847 0.0
H837 H 0.40109 0.47213 0.3417 0.0
C838 C 0.38638 0.5245 0.3502 0.0
C839 C 0.38167 0.5526 0.35458 0.0
C840 C 0.41181 0.51511 0.34015 0.0
C841 C 0.40191 0.57148 0.34652 0.0
C842 C 0.42728 0.56229 0.33627 0.0
C843 C 0.45912 0.52441 0.32664 0.0
C844 C 0.46465 0.49607 0.32573 0.0
C845 C 0.43277 0.53408 0.33391 0.0
C846 C 0.44319 0.47754 0.33018 0.0
C847 C 0.41703 0.48695 0.33747 0.0
H848 H 0.20023 0.75511 0.09278 0.0
H849 H 0.28285 0.72284 0.0975 0.0
H850 H 0.26526 0.67724 0.10834 0.0
H851 H 0.22636 0.64724 0.11921 0.0
H852 H 0.14372 0.67893 0.111 0.0
H853 H 0.16141 0.72378 0.09754 0.0
C854 C 0.2144 0.738 0.09559 0.0
C855 C 0.2428 0.74252 0.09502 0.0
C856 C 0.20414 0.71168 0.10098 0.0
C857 C 0.26088 0.72014 0.09885 0.0
C858 C 0.25084 0.69397 0.10473 0.0
C859 C 0.21222 0.66385 0.11408 0.0
C860 C 0.18379 0.65982 0.11647 0.0
C861 C 0.22251 0.68962 0.10634 0.0
C862 C 0.16573 0.68146 0.10945 0.0
C863 C 0.17581 0.7072 0.1019 0.0
H864 H 0.1026 0.48036 0.88811 0.0
H865 H 0.06718 0.39976 0.88514 0.0
H866 H 0.02819 0.41846 0.85973 0.0
H867 H 0.0028 0.45814 0.84127 0.0
H868 H 0.03913 0.5383 0.84162 0.0
H869 H 0.07912 0.5194 0.86558 0.0
C870 C 0.0864 0.46688 0.88179 0.0
C871 C 0.0876 0.43878 0.88876 0.0
C872 C 0.06418 0.47771 0.86697 0.0
C873 C 0.06668 0.42148 0.88012 0.0
C874 C 0.04435 0.43216 0.86564 0.0
C875 C 0.01976 0.47136 0.84594 0.0
C876 C 0.01799 0.49959 0.83987 0.0
C877 C 0.04275 0.46028 0.85928 0.0
C878 C 0.03989 0.51656 0.84655 0.0
C879 C 0.06275 0.50576 0.86013 0.0
H880 H 0.80412 0.25687 0.40781 0.0
H881 H 0.7288 0.21159 0.40677 0.0
H882 H 0.75348 0.17133 0.38947 0.0
H883 H 0.79561 0.15056 0.37085 0.0
H884 H 0.87138 0.19525 0.37285 0.0
H885 H 0.84753 0.23392 0.39442 0.0
C886 C 0.79326 0.23799 0.40435 0.0
C887 C 0.76463 0.23732 0.4079 0.0
C888 C 0.80763 0.21489 0.39453 0.0
C889 C 0.75074 0.21279 0.40336 0.0
C890 C 0.76485 0.18974 0.39363 0.0
C891 C 0.807 0.16863 0.37625 0.0
C892 C 0.83512 0.17021 0.36979 0.0
C893 C 0.79316 0.19081 0.38844 0.0
C894 C 0.84965 0.1936 0.37735 0.0
C895 C 0.83602 0.21577 0.3896 0.0
H896 H 0.61241 0.99457 0.11905 0.0
H897 H 0.59743 0.07928 0.1401 0.0
H898 H 0.55156 0.06788 0.1569 0.0
H899 H 0.51437 0.03449 0.16194 0.0
H900 H 0.53057 0.94941 0.14371 0.0
H901 H 0.57703 0.96046 0.12872 0.0
C902 C 0.59924 0.01049 0.12761 0.0
C903 C 0.60822 0.03775 0.12804 0.0
C904 C 0.57288 0.00386 0.1371 0.0
C905 C 0.59101 0.05811 0.13946 0.0
C906 C 0.56469 0.05166 0.1489 0.0
C907 C 0.52819 0.01836 0.15496 0.0
C908 C 0.51878 0.99134 0.15311 0.0
C909 C 0.5552 0.02472 0.14722 0.0
C910 C 0.53692 0.97057 0.1442 0.0
C911 C 0.56364 0.9768 0.13601 0.0
H912 H 0.66667 0.82663 0.87369 0.0
H913 H 0.74599 0.86107 0.85508 0.0
H914 H 0.76831 0.81789 0.86843 0.0
H915 H 0.76508 0.76947 0.88242 0.0
H916 H 0.68584 0.73436 0.89877 0.0
H917 H 0.66359 0.77879 0.88958 0.0
C918 C 0.68886 0.82485 0.87296 0.0
C919 C 0.70464 0.84697 0.86328 0.0
C920 C 0.70151 0.79976 0.87996 0.0
C921 C 0.73338 0.84429 0.86237 0.0
C922 C 0.74616 0.81958 0.86988 0.0
C923 C 0.74293 0.77154 0.88361 0.0
C924 C 0.72696 0.7487 0.8906 0.0
C925 C 0.73039 0.797 0.87803 0.0
C926 C 0.6984 0.75175 0.89315 0.0
C927 C 0.68573 0.77709 0.88791 0.0
H928 H 0.87597 0.98978 0.6176 0.0
H929 H 0.9055 0.90633 0.62745 0.0
H930 H 0.9465 0.92267 0.64991 0.0
H931 H 0.97602 0.96084 0.66222 0.0
H932 H 0.94538 0.04404 0.65535 0.0
H933 H 0.903 0.02763 0.63545 0.0
C934 C 0.89124 0.97514 0.62491 0.0
C935 C 0.88789 0.94692 0.62046 0.0
C936 C 0.91482 0.98465 0.63773 0.0
C937 C 0.90766 0.92819 0.63042 0.0
C938 C 0.93122 0.93751 0.64312 0.0
C939 C 0.95987 0.97537 0.65694 0.0
C940 C 0.96412 0.00367 0.6597 0.0
C941 C 0.93531 0.96572 0.64622 0.0
C942 C 0.94302 0.02222 0.65256 0.0
C943 C 0.91866 0.01282 0.64145 0.0
H944 H 0.60534 0.22881 0.28353 0.0
H945 H 0.59144 0.30558 0.24072 0.0
H946 H 0.60119 0.33077 0.28258 0.0
H947 H 0.61854 0.33076 0.32978 0.0
H948 H 0.63541 0.2536 0.37124 0.0
H949 H 0.61973 0.22871 0.33145 0.0
C950 C 0.60457 0.25106 0.2834 0.0
C951 C 0.59834 0.26542 0.25908 0.0
C952 C 0.61086 0.26527 0.30723 0.0
C953 C 0.5964 0.29417 0.25927 0.0
C954 C 0.60208 0.30853 0.28313 0.0
C955 C 0.61837 0.30851 0.33028 0.0
C956 C 0.62836 0.29405 0.35334 0.0
C957 C 0.61003 0.29429 0.30703 0.0
C958 C 0.62802 0.26521 0.35366 0.0
C959 C 0.61912 0.25095 0.3309 0.0
H960 H 0.45097 0.84346 0.01161 0.0
H961 H 0.52901 0.83362 0.05148 0.0
H962 H 0.50929 0.85203 0.09383 0.0
H963 H 0.47075 0.87381 0.11824 0.0
H964 H 0.39201 0.88146 0.07911 0.0
H965 H 0.41094 0.85961 0.03818 0.0
C966 C 0.46351 0.84478 0.02973 0.0
C967 C 0.49154 0.83782 0.02828 0.0
C968 C 0.45192 0.85484 0.05412 0.0
C969 C 0.50758 0.83974 0.05187 0.0
C970 C 0.49628 0.85001 0.07613 0.0
C971 C 0.45762 0.87051 0.10083 0.0
C972 C 0.43017 0.87974 0.1015 0.0
C973 C 0.46862 0.85819 0.07727 0.0
C974 C 0.41331 0.87483 0.07901 0.0
C975 C 0.42413 0.8625 0.05551 0.0
H976 H 0.88433 0.69762 0.73119 0.0
H977 H 0.87869 0.77889 0.76495 0.0
H978 H 0.86259 0.75972 0.80872 0.0
H979 H 0.84902 0.71987 0.83693 0.0
H980 H 0.8585 0.63836 0.80418 0.0
H981 H 0.87542 0.65765 0.76089 0.0
C982 C 0.88004 0.71112 0.74826 0.0
C983 C 0.88216 0.73968 0.74464 0.0
C984 C 0.87174 0.69991 0.77361 0.0
C985 C 0.87631 0.75691 0.76689 0.0
C986 C 0.86743 0.74594 0.79203 0.0
C987 C 0.85497 0.70631 0.82037 0.0
C988 C 0.85219 0.67775 0.82366 0.0
C989 C 0.86481 0.71748 0.79552 0.0
C990 C 0.86031 0.66043 0.80216 0.0
C991 C 0.86987 0.67142 0.77731 0.0
H992 H 0.04251 0.16846 0.52715 0.0
H993 H 0.95805 0.1597 0.55264 0.0
H994 H 0.97256 0.14135 0.59709 0.0
H995 H 0.00926 0.12482 0.62738 0.0
H996 H 0.09383 0.13546 0.60261 0.0
H997 H 0.07924 0.15703 0.55966 0.0
C998 C 0.02729 0.16303 0.54263 0.0
C999 C 0.99926 0.16481 0.53639 0.0
C1000 C 0.0358 0.15295 0.56833 0.0
C1001 C 0.97977 0.15766 0.55663 0.0
C1002 C 0.98805 0.1474 0.58214 0.0
C1003 C 0.02452 0.1322 0.61278 0.0
C1004 C 0.05259 0.12817 0.6181 0.0
C1005 C 0.01602 0.14443 0.58801 0.0
C1006 C 0.07207 0.13813 0.59903 0.0
C1007 C 0.06376 0.15036 0.57436 0.0
H1008 H 0.13784 0.15285 0.69311 0.0
H1009 H 0.15358 0.22877 0.64933 0.0
H1010 H 0.13348 0.25475 0.68714 0.0
H1011 H 0.11273 0.25607 0.7333 0.0
H1012 H 0.0988 0.18046 0.77787 0.0
H1013 H 0.1163 0.15414 0.7389 0.0
C1014 C 0.13674 0.17506 0.69174 0.0
C1015 C 0.14732 0.1888 0.66844 0.0
C1016 C 0.12544 0.18994 0.71371 0.0
C1017 C 0.14567 0.21763 0.66704 0.0
C1018 C 0.1342 0.23254 0.68868 0.0
C1019 C 0.11382 0.23386 0.73454 0.0
C1020 C 0.10481 0.22019 0.75846 0.0
C1021 C 0.12434 0.21894 0.71224 0.0
C1022 C 0.10554 0.19137 0.75955 0.0
C1023 C 0.11568 0.17635 0.73736 0.0
H1024 H 0.46793 0.32773 0.44653 0.0
H1025 H 0.54337 0.32035 0.49111 0.0
H1026 H 0.56928 0.33591 0.45081 0.0
H1027 H 0.56963 0.3571 0.40477 0.0
H1028 H 0.49336 0.36865 0.3619 0.0
H1029 H 0.46854 0.34635 0.39962 0.0
C1030 C 0.49001 0.32969 0.44742 0.0
C1031 C 0.5037 0.32363 0.47194 0.0
C1032 C 0.50455 0.33964 0.42449 0.0
C1033 C 0.53241 0.32511 0.47251 0.0
C1034 C 0.54719 0.33416 0.44951 0.0
C1035 C 0.54765 0.35432 0.40352 0.0
C1036 C 0.5333 0.3647 0.38077 0.0
C1037 C 0.53337 0.34229 0.42565 0.0
C1038 C 0.50481 0.36104 0.37938 0.0
C1039 C 0.49059 0.34832 0.40092 0.0
H1040 H 0.40312 0.79976 0.24708 0.0
H1041 H 0.39026 0.71882 0.21546 0.0
H1042 H 0.37548 0.73852 0.17177 0.0
H1043 H 0.36249 0.77864 0.14406 0.0
H1044 H 0.37638 0.85993 0.17462 0.0
H1045 H 0.3953 0.84024 0.21682 0.0
C1046 C 0.39743 0.78652 0.23044 0.0
C1047 C 0.39686 0.75796 0.23471 0.0
C1048 C 0.38921 0.79803 0.20519 0.0
C1049 C 0.38983 0.74093 0.21296 0.0
C1050 C 0.38161 0.75215 0.1879 0.0
C1051 C 0.36997 0.79208 0.15978 0.0
C1052 C 0.3676 0.82068 0.15637 0.0
C1053 C 0.38056 0.78067 0.18404 0.0
C1054 C 0.37777 0.8378 0.17679 0.0
C1055 C 0.38847 0.82657 0.20102 0.0
H1056 H 0.96834 0.62762 0.86535 0.0
H1057 H 0.88796 0.62504 0.90334 0.0
H1058 H 0.90542 0.6478 0.94377 0.0
H1059 H 0.94494 0.66292 0.97056 0.0
H1060 H 0.02475 0.66691 0.93173 0.0
H1061 H 0.00615 0.6489 0.88946 0.0
C1062 C 0.95454 0.63239 0.8823 0.0
C1063 C 0.92704 0.62418 0.88154 0.0
C1064 C 0.96472 0.64529 0.90553 0.0
C1065 C 0.9093 0.63092 0.90348 0.0
C1066 C 0.91929 0.64381 0.9267 0.0
C1067 C 0.95808 0.66042 0.95263 0.0
C1068 C 0.9863 0.66546 0.95443 0.0
C1069 C 0.94717 0.65028 0.92829 0.0
C1070 C 0.00312 0.66227 0.93106 0.0
C1071 C 0.99247 0.65214 0.90685 0.0
H1072 H 0.34587 0.63703 0.26587 0.0
H1073 H 0.30931 0.63022 0.34676 0.0
H1074 H 0.26694 0.61378 0.32691 0.0
H1075 H 0.23916 0.6048 0.28628 0.0
H1076 H 0.27679 0.60921 0.20581 0.0
H1077 H 0.31976 0.62375 0.22581 0.0
C1078 C 0.3287 0.63177 0.2792 0.0
C1079 C 0.33058 0.63519 0.30768 0.0
C1080 C 0.30446 0.62238 0.26771 0.0
C1081 C 0.30832 0.6279 0.32473 0.0
C1082 C 0.28404 0.61862 0.31341 0.0
C1083 C 0.2569 0.6086 0.2732 0.0
C1084 C 0.25468 0.60666 0.24459 0.0
C1085 C 0.28171 0.61631 0.28489 0.0
C1086 C 0.27776 0.61154 0.22782 0.0
C1087 C 0.3024 0.61955 0.23925 0.0
H1088 H 0.75045 0.90981 0.6913 0.0
H1089 H 0.79006 0.90614 0.76986 0.0
H1090 H 0.83246 0.88977 0.74811 0.0
H1091 H 0.85641 0.87171 0.70762 0.0
H1092 H 0.81751 0.87661 0.62865 0.0
H1093 H 0.77702 0.89823 0.64954 0.0
C1094 C 0.76857 0.90603 0.70352 0.0
C1095 C 0.76698 0.90833 0.73219 0.0
C1096 C 0.79295 0.89681 0.69083 0.0
C1097 C 0.79058 0.90354 0.74784 0.0
C1098 C 0.81486 0.89436 0.73541 0.0
C1099 C 0.83923 0.87788 0.6949 0.0
C1100 C 0.83975 0.87209 0.66675 0.0
C1101 C 0.81598 0.89006 0.70706 0.0
C1102 C 0.81755 0.88063 0.65044 0.0
C1103 C 0.79431 0.89286 0.66239 0.0
H1104 H 0.84071 0.02477 0.45349 0.0
H1105 H 0.84076 0.05241 0.53713 0.0
H1106 H 0.85978 0.09631 0.52216 0.0
H1107 H 0.87987 0.1252 0.48582 0.0
H1108 H 0.87812 0.09858 0.40179 0.0
H1109 H 0.8555 0.05625 0.41628 0.0
C1110 C 0.84435 0.04064 0.46833 0.0
C1111 C 0.84001 0.03516 0.49643 0.0
C1112 C 0.85501 0.06596 0.45953 0.0
C1113 C 0.84478 0.05587 0.51547 0.0
C1114 C 0.85548 0.08102 0.50692 0.0
C1115 C 0.87427 0.11028 0.47063 0.0
C1116 C 0.88108 0.11483 0.44285 0.0
C1117 C 0.86133 0.08601 0.47908 0.0
C1118 C 0.87331 0.0955 0.42336 0.0
C1119 C 0.86046 0.07122 0.43163 0.0
H1120 H 0.77297 0.11169 0.2037 0.0
H1121 H 0.74634 0.12232 0.28764 0.0
H1122 H 0.70039 0.13485 0.27243 0.0
H1123 H 0.66824 0.14442 0.23518 0.0
H1124 H 0.69365 0.13027 0.15137 0.0
H1125 H 0.73936 0.11648 0.16669 0.0
C1126 C 0.75699 0.11641 0.21864 0.0
C1127 C 0.76324 0.11696 0.24666 0.0
C1128 C 0.73037 0.12273 0.2098 0.0
C1129 C 0.74236 0.12294 0.26586 0.0
C1130 C 0.71597 0.12975 0.25722 0.0
C1131 C 0.68373 0.13811 0.2203 0.0
C1132 C 0.67771 0.13863 0.19222 0.0
C1133 C 0.70986 0.13009 0.22922 0.0
C1134 C 0.69782 0.13007 0.17315 0.0
C1135 C 0.724 0.12232 0.18185 0.0
H1136 H 0.64046 0.89592 0.92898 0.0
H1137 H 0.62069 0.85351 0.00485 0.0
H1138 H 0.64164 0.89003 0.03085 0.0
H1139 H 0.66159 0.93613 0.03214 0.0
H1140 H 0.67807 0.97956 0.95627 0.0
H1141 H 0.66308 0.9404 0.93019 0.0
C1142 C 0.64113 0.8944 0.95118 0.0
C1143 C 0.62877 0.87215 0.96493 0.0
C1144 C 0.6525 0.91581 0.96604 0.0
C1145 C 0.62988 0.87052 0.99373 0.0
C1146 C 0.64177 0.89145 0.00865 0.0
C1147 C 0.66177 0.93702 0.00992 0.0
C1148 C 0.67043 0.96097 0.99616 0.0
C1149 C 0.65239 0.91459 0.99504 0.0
C1150 C 0.67147 0.96145 0.96735 0.0
C1151 C 0.66274 0.93907 0.95241 0.0
H1152 H 0.13892 0.35374 0.78379 0.0
H1153 H 0.17336 0.36058 0.86449 0.0
H1154 H 0.21436 0.38177 0.84463 0.0
H1155 H 0.24225 0.39401 0.80372 0.0
H1156 H 0.20672 0.3884 0.72348 0.0
H1157 H 0.16434 0.37088 0.74376 0.0
C1158 C 0.15528 0.36007 0.79708 0.0
C1159 C 0.15331 0.3552 0.82548 0.0
C1160 C 0.17874 0.37212 0.78557 0.0
C1161 C 0.17447 0.36394 0.84249 0.0
C1162 C 0.19797 0.37596 0.83116 0.0
C1163 C 0.22502 0.38936 0.7908 0.0
C1164 C 0.22776 0.39167 0.76216 0.0
C1165 C 0.2006 0.37952 0.80265 0.0
C1166 C 0.20533 0.38584 0.74555 0.0
C1167 C 0.18105 0.37601 0.75712 0.0
H1168 H 0.2974 0.44263 0.48712 0.0
H1169 H 0.37728 0.4768 0.47145 0.0
H1170 H 0.39915 0.43489 0.48887 0.0
H1171 H 0.39573 0.38963 0.50987 0.0
H1172 H 0.31648 0.35562 0.52914 0.0
H1173 H 0.29407 0.39659 0.50941 0.0
C1174 C 0.31956 0.44096 0.48794 0.0
C1175 C 0.33577 0.46277 0.4782 0.0
C1176 C 0.33203 0.41692 0.4986 0.0
C1177 C 0.36445 0.46017 0.47871 0.0
C1178 C 0.37694 0.43628 0.48873 0.0
C1179 C 0.37355 0.39092 0.50955 0.0
C1180 C 0.35783 0.36946 0.52078 0.0
C1181 C 0.36095 0.41463 0.49882 0.0
C1182 C 0.32907 0.37182 0.52056 0.0
C1183 C 0.31627 0.39526 0.50932 0.0
H1184 H 0.14638 0.53568 0.97069 0.0
H1185 H 0.161 0.50548 0.05277 0.0
H1186 H 0.14933 0.55068 0.07126 0.0
H1187 H 0.13009 0.59706 0.06426 0.0
H1188 H 0.11272 0.62605 0.98212 0.0
H1189 H 0.13043 0.58307 0.9634 0.0
C1190 C 0.14685 0.53904 0.99262 0.0
C1191 C 0.15384 0.51733 0.01047 0.0
C1192 C 0.13961 0.5648 0.00303 0.0
C1193 C 0.15543 0.522 0.03874 0.0
C1194 C 0.1487 0.54776 0.04928 0.0
C1195 C 0.13067 0.59418 0.04223 0.0
C1196 C 0.11988 0.61457 0.02461 0.0
C1197 C 0.1401 0.56911 0.03166 0.0
C1198 C 0.12074 0.61055 0.99612 0.0
C1199 C 0.13075 0.58595 0.9854 0.0
H1200 H 0.12327 0.02635 0.62037 0.0
H1201 H 0.15166 0.04168 0.70193 0.0
H1202 H 0.19357 0.06194 0.68306 0.0
H1203 H 0.21433 0.08649 0.64366 0.0
H1204 H 0.18566 0.07161 0.56213 0.0
H1205 H 0.15221 0.03901 0.58041 0.0
C1206 C 0.13936 0.03284 0.63392 0.0
C1207 C 0.13451 0.03289 0.66237 0.0
C1208 C 0.16311 0.04488 0.62286 0.0
C1209 C 0.15519 0.04139 0.67994 0.0
C1210 C 0.17897 0.05328 0.66913 0.0
C1211 C 0.2018 0.07486 0.62985 0.0
C1212 C 0.2021 0.0815 0.60172 0.0
C1213 C 0.18216 0.05678 0.64065 0.0
C1214 C 0.18581 0.06661 0.58385 0.0
C1215 C 0.16636 0.04833 0.59438 0.0
H1216 H 0.62338 0.45875 0.36836 0.0
H1217 H 0.6495 0.42531 0.2909 0.0
H1218 H 0.68889 0.40295 0.31288 0.0
H1219 H 0.70777 0.38376 0.35581 0.0
H1220 H 0.68109 0.41652 0.43338 0.0
H1221 H 0.65067 0.44918 0.4098 0.0
C1222 C 0.63852 0.44767 0.35616 0.0
C1223 C 0.63369 0.4435 0.32817 0.0
C1224 C 0.66077 0.43451 0.36909 0.0
C1225 C 0.65308 0.42894 0.31243 0.0
C1226 C 0.67538 0.41589 0.32509 0.0
C1227 C 0.69641 0.39913 0.36738 0.0
C1228 C 0.6965 0.39781 0.39621 0.0
C1229 C 0.67841 0.41721 0.35366 0.0
C1230 C 0.68154 0.41745 0.41116 0.0
C1231 C 0.66378 0.43578 0.39766 0.0
H1232 H 0.34982 0.97754 0.13681 0.0
H1233 H 0.33649 0.93804 0.21524 0.0
H1234 H 0.29652 0.91474 0.19748 0.0
H1235 H 0.27607 0.89534 0.15624 0.0
H1236 H 0.29089 0.93335 0.07731 0.0
H1237 H 0.31876 0.96828 0.09861 0.0
C1238 C 0.33709 0.96515 0.1504 0.0
C1239 C 0.34604 0.95928 0.17717 0.0
C1240 C 0.31477 0.95107 0.13966 0.0
C1241 C 0.32976 0.94299 0.19464 0.0
C1242 C 0.30718 0.92929 0.1843 0.0
C1243 C 0.28408 0.91227 0.144 0.0
C1244 C 0.28185 0.91166 0.11528 0.0
C1245 C 0.30091 0.93161 0.15633 0.0
C1246 C 0.29229 0.93351 0.09948 0.0
C1247 C 0.30865 0.9532 0.11163 0.0
H1248 H 0.80973 0.56784 0.9245 0.0
H1249 H 0.76188 0.59342 0.85495 0.0
H1250 H 0.78421 0.55851 0.82673 0.0
H1251 H 0.82718 0.53274 0.81897 0.0
H1252 H 0.87788 0.51085 0.88762 0.0
H1253 H 0.84437 0.53105 0.91923 0.0
C1254 C 0.80307 0.56453 0.90366 0.0
C1255 C 0.78442 0.58311 0.89166 0.0
C1256 C 0.81715 0.54537 0.88718 0.0
C1257 C 0.77618 0.57915 0.86453 0.0
C1258 C 0.78926 0.55945 0.84828 0.0
C1259 C 0.82992 0.53085 0.84098 0.0
C1260 C 0.8549 0.52061 0.85105 0.0
C1261 C 0.81128 0.54404 0.85884 0.0
C1262 C 0.85864 0.51859 0.87952 0.0
C1263 C 0.83969 0.53062 0.89756 0.0
H1264 H 0.68522 0.14833 0.05334 0.0
H1265 H 0.61243 0.10396 0.03381 0.0
H1266 H 0.58362 0.14154 0.05069 0.0
H1267 H 0.58009 0.17922 0.08333 0.0
H1268 H 0.65313 0.22037 0.10788 0.0
H1269 H 0.68074 0.19302 0.07603 0.0
C1270 C 0.66309 0.14763 0.05155 0.0
C1271 C 0.65084 0.12347 0.04275 0.0
C1272 C 0.64665 0.16873 0.06272 0.0
C1273 C 0.62217 0.12244 0.04074 0.0
C1274 C 0.6057 0.14382 0.0506 0.0
C1275 C 0.60177 0.18328 0.0804 0.0
C1276 C 0.61468 0.20147 0.09796 0.0
C1277 C 0.61773 0.16609 0.06348 0.0
C1278 C 0.64284 0.2064 0.09443 0.0
C1279 C 0.6587 0.1904 0.07657 0.0
H1280 H 0.55946 0.81757 0.8409 0.0
H1281 H 0.52948 0.88755 0.88564 0.0
H1282 H 0.5497 0.91857 0.85138 0.0
H1283 H 0.5853 0.92509 0.81577 0.0
H1284 H 0.61881 0.85492 0.77383 0.0
H1285 H 0.58739 0.82474 0.79893 0.0
C1286 C 0.55626 0.83958 0.84229 0.0
C1287 C 0.54286 0.85038 0.86548 0.0
C1288 C 0.56901 0.85728 0.82308 0.0
C1289 C 0.53945 0.87891 0.86767 0.0
C1290 C 0.55127 0.89663 0.84824 0.0
C1291 C 0.58454 0.90341 0.81108 0.0
C1292 C 0.60401 0.89221 0.79281 0.0
C1293 C 0.56742 0.88604 0.82675 0.0
C1294 C 0.6036 0.86398 0.78748 0.0
C1295 C 0.58594 0.84667 0.80219 0.0
H1296 H 0.91994 0.80845 0.5608 0.0
H1297 H 0.84734 0.76684 0.58859 0.0
H1298 H 0.81918 0.79547 0.55827 0.0
H1299 H 0.81452 0.84122 0.53638 0.0
H1300 H 0.88713 0.88571 0.51352 0.0
H1301 H 0.91601 0.84723 0.52857 0.0
C1302 C 0.8982 0.80452 0.55877 0.0
C1303 C 0.88564 0.78576 0.57686 0.0
C1304 C 0.88201 0.82244 0.54276 0.0
C1305 C 0.85742 0.78107 0.5746 0.0
C1306 C 0.84124 0.79788 0.55769 0.0
C1307 C 0.83659 0.84174 0.53336 0.0
C1308 C 0.84882 0.86608 0.52397 0.0
C1309 C 0.85309 0.82004 0.54346 0.0
C1310 C 0.87742 0.867 0.52062 0.0
C1311 C 0.89392 0.84511 0.5295 0.0
H1312 H 0.98468 0.12747 0.37632 0.0
H1313 H 0.96596 0.20879 0.34579 0.0
H1314 H 0.94872 0.18971 0.30331 0.0
H1315 H 0.92653 0.14988 0.28293 0.0
H1316 H 0.94383 0.06869 0.31444 0.0
H1317 H 0.97526 0.08741 0.34775 0.0
C1318 C 0.97819 0.14098 0.35968 0.0
C1319 C 0.9762 0.16936 0.36407 0.0
C1320 C 0.96776 0.12977 0.33565 0.0
C1321 C 0.96771 0.18686 0.34265 0.0
C1322 C 0.95755 0.1759 0.31852 0.0
C1323 C 0.93863 0.13623 0.29589 0.0
C1324 C 0.93274 0.10807 0.29661 0.0
C1325 C 0.95567 0.14735 0.31577 0.0
C1326 C 0.94821 0.09043 0.31351 0.0
C1327 C 0.96574 0.10123 0.33297 0.0
H1328 H 0.13365 0.27026 0.91129 0.0
H1329 H 0.05194 0.2974 0.93283 0.0
H1330 H 0.07035 0.32832 0.96685 0.0
H1331 H 0.10973 0.35677 0.97878 0.0
H1332 H 0.19148 0.33091 0.95564 0.0
H1333 H 0.17329 0.28986 0.9345 0.0
C1334 C 0.11988 0.28175 0.92467 0.0
C1335 C 0.09158 0.28191 0.91949 0.0
C1336 C 0.13077 0.30027 0.9433 0.0
C1337 C 0.07378 0.29688 0.93664 0.0
C1338 C 0.08439 0.31496 0.95572 0.0
C1339 C 0.12359 0.34138 0.97031 0.0
C1340 C 0.15178 0.34689 0.9683 0.0
C1341 C 0.11286 0.31828 0.95758 0.0
C1342 C 0.16971 0.32699 0.95741 0.0
C1343 C 0.15924 0.3037 0.945 0.0
H1344 H 0.40486 0.42479 0.67699 0.0
H1345 H 0.38336 0.35688 0.72983 0.0
H1346 H 0.41403 0.32645 0.70397 0.0
H1347 H 0.43511 0.31712 0.6586 0.0
H1348 H 0.45122 0.38468 0.60311 0.0
H1349 H 0.43516 0.41729 0.63746 0.0
C1350 C 0.40832 0.40373 0.6838 0.0
C1351 C 0.39202 0.39298 0.70511 0.0
C1352 C 0.42433 0.38603 0.66753 0.0
C1353 C 0.39604 0.36558 0.71358 0.0
C1354 C 0.41312 0.34804 0.69839 0.0
C1355 C 0.43614 0.33904 0.65464 0.0
C1356 C 0.44393 0.34865 0.62847 0.0
C1357 C 0.42562 0.35762 0.67409 0.0
C1358 C 0.44502 0.377 0.62319 0.0
C1359 C 0.43575 0.39562 0.64276 0.0
H1360 H 0.43181 0.66989 0.41153 0.0
H1361 H 0.36466 0.72539 0.39471 0.0
H1362 H 0.33554 0.70084 0.42762 0.0
H1363 H 0.3258 0.65556 0.44835 0.0
H1364 H 0.39195 0.59748 0.46029 0.0
H1365 H 0.42496 0.63093 0.44307 0.0
C1366 C 0.41138 0.67758 0.41648 0.0
C1367 C 0.40026 0.69922 0.40078 0.0
C1368 C 0.39426 0.66216 0.43404 0.0
C1369 C 0.37362 0.70883 0.40681 0.0
C1370 C 0.3568 0.69443 0.42525 0.0
C1371 C 0.34762 0.65092 0.44862 0.0
C1372 C 0.35656 0.62423 0.45537 0.0
C1373 C 0.36628 0.6698 0.43719 0.0
C1374 C 0.38476 0.61804 0.45521 0.0
C1375 C 0.40359 0.63706 0.44504 0.0
H1376 H 0.04625 0.68185 0.14298 0.0
H1377 H 0.02216 0.61189 0.09651 0.0
H1378 H 0.04067 0.58085 0.13155 0.0
H1379 H 0.07483 0.57458 0.16764 0.0
H1380 H 0.10283 0.64458 0.21155 0.0
H1381 H 0.07118 0.67454 0.18629 0.0
C1382 C 0.04384 0.65983 0.14138 0.0
C1383 C 0.03297 0.64904 0.11736 0.0
C1384 C 0.05575 0.6421 0.16105 0.0
C1385 C 0.03039 0.62051 0.115 0.0
C1386 C 0.04123 0.60277 0.1349 0.0
C1387 C 0.07269 0.5961 0.17278 0.0
C1388 C 0.09089 0.60743 0.19141 0.0
C1389 C 0.05557 0.61336 0.15702 0.0
C1390 C 0.08864 0.63545 0.19751 0.0
C1391 C 0.07089 0.65266 0.18268 0.0
H1392 H 0.35536 0.14611 0.55433 0.0
H1393 H 0.32525 0.18815 0.48187 0.0
H1394 H 0.35698 0.22505 0.48877 0.0
H1395 H 0.3889 0.24848 0.51806 0.0
H1396 H 0.41981 0.20805 0.59073 0.0
H1397 H 0.39135 0.16799 0.58167 0.0
C1398 C 0.35562 0.16333 0.54011 0.0
C1399 C 0.33695 0.16461 0.51825 0.0
C1400 C 0.37357 0.1852 0.5446 0.0
C1401 C 0.33895 0.18646 0.49913 0.0
C1402 C 0.35693 0.20792 0.5032 0.0
C1403 C 0.3894 0.23091 0.53198 0.0
C1404 C 0.40587 0.23141 0.55537 0.0
C1405 C 0.37347 0.20801 0.5264 0.0
C1406 C 0.40699 0.20821 0.57275 0.0
C1407 C 0.39079 0.18533 0.56752 0.0
H1408 H 0.51644 0.57052 0.24153 0.0
H1409 H 0.5865 0.59074 0.28977 0.0
H1410 H 0.56114 0.62988 0.30942 0.0
H1411 H 0.51722 0.65618 0.3153 0.0
H1412 H 0.4469 0.63178 0.2689 0.0
H1413 H 0.47403 0.59653 0.24639 0.0
C1414 C 0.5264 0.58388 0.25587 0.0
C1415 C 0.55328 0.57791 0.26411 0.0
C1416 C 0.51138 0.60537 0.26784 0.0
C1417 C 0.56575 0.595 0.28315 0.0
C1418 C 0.5512 0.61725 0.29447 0.0
C1419 C 0.50798 0.6432 0.30018 0.0
C1420 C 0.47997 0.64655 0.29406 0.0
C1421 C 0.5237 0.62228 0.28745 0.0
C1422 C 0.46827 0.6295 0.2744 0.0
C1423 C 0.48381 0.60936 0.2613 0.0
H1424 H 0.07384 0.78145 0.07389 0.0
H1425 H 0.09086 0.74195 0.99677 0.0
H1426 H 0.12625 0.77517 0.98585 0.0
H1427 H 0.15589 0.81158 0.0002 0.0
H1428 H 0.14094 0.85165 0.07736 0.0
H1429 H 0.10142 0.82225 0.08628 0.0
C1430 C 0.08498 0.78059 0.05453 0.0
C1431 C 0.07995 0.75921 0.03623 0.0
C1432 C 0.10602 0.79953 0.04858 0.0
C1433 C 0.09461 0.75811 0.01126 0.0
C1434 C 0.11487 0.77707 0.00499 0.0
C1435 C 0.14376 0.81437 0.01879 0.0
C1436 C 0.152 0.83329 0.03843 0.0
C1437 C 0.1213 0.79732 0.02382 0.0
C1438 C 0.1358 0.83656 0.0623 0.0
C1439 C 0.11301 0.81984 0.06733 0.0
H1440 H 0.02976 0.34444 0.789 0.0
H1441 H 0.973 0.31407 0.85035 0.0
H1442 H 0.93845 0.34803 0.83529 0.0
H1443 H 0.92552 0.38804 0.80578 0.0
H1444 H 0.9828 0.41638 0.74375 0.0
H1445 H 0.01579 0.38115 0.75758 0.0
C1446 C 0.00982 0.34524 0.7991 0.0
C1447 C 0.00403 0.32715 0.82102 0.0
C1448 C 0.9901 0.36433 0.79005 0.0
C1449 C 0.97792 0.32794 0.8335 0.0
C1450 C 0.95823 0.34735 0.82491 0.0
C1451 C 0.94515 0.38628 0.79522 0.0
C1452 C 0.95176 0.40491 0.77391 0.0
C1453 C 0.96421 0.36587 0.80336 0.0
C1454 C 0.97709 0.40218 0.76008 0.0
C1455 C 0.99611 0.3822 0.76813 0.0
H1456 H 0.85155 0.34296 0.44599 0.0
H1457 H 0.82001 0.29552 0.51464 0.0
H1458 H 0.85591 0.26128 0.50819 0.0
H1459 H 0.89367 0.24249 0.48096 0.0
H1460 H 0.92763 0.28941 0.41349 0.0
H1461 H 0.89317 0.32594 0.42119 0.0
C1462 C 0.85279 0.32527 0.45966 0.0
C1463 C 0.83289 0.32174 0.48054 0.0
C1464 C 0.87356 0.30529 0.45574 0.0
C1465 C 0.83507 0.29896 0.49847 0.0
C1466 C 0.85544 0.27911 0.49464 0.0
C1467 C 0.8935 0.26075 0.46795 0.0
C1468 C 0.91263 0.26317 0.4464 0.0
C1469 C 0.87428 0.2817 0.47295 0.0
C1470 C 0.91281 0.28714 0.43008 0.0
C1471 C 0.89318 0.30795 0.43451 0.0
H1472 H 0.49239 0.06426 0.24244 0.0
H1473 H 0.41841 0.10156 0.2112 0.0
H1474 H 0.44506 0.13971 0.19149 0.0
H1475 H 0.49016 0.16169 0.18227 0.0
H1476 H 0.56374 0.12046 0.21083 0.0
H1477 H 0.53657 0.08449 0.23178 0.0
C1478 C 0.48205 0.08093 0.23161 0.0
C1479 C 0.45352 0.08035 0.22851 0.0
C1480 C 0.49755 0.10191 0.2194 0.0
C1481 C 0.4404 0.10174 0.21395 0.0
C1482 C 0.45566 0.12342 0.20258 0.0
C1483 C 0.50022 0.14478 0.19296 0.0
C1484 C 0.52906 0.1441 0.19497 0.0
C1485 C 0.48438 0.12358 0.20491 0.0
C1486 C 0.54166 0.12181 0.20884 0.0
C1487 C 0.52613 0.10114 0.22104 0.0
H1488 H 0.59759 0.73691 0.90373 0.0
H1489 H 0.5519 0.72169 0.97831 0.0
H1490 H 0.58448 0.68512 0.99137 0.0
H1491 H 0.63007 0.6628 0.9845 0.0
H1492 H 0.67528 0.6801 0.90963 0.0
H1493 H 0.63865 0.70943 0.89347 0.0
C1494 C 0.5943 0.72483 0.92232 0.0
C1495 C 0.57246 0.73162 0.93996 0.0
C1496 C 0.61321 0.70418 0.92974 0.0
C1497 C 0.56846 0.71636 0.96427 0.0
C1498 C 0.58724 0.69569 0.97185 0.0
C1499 C 0.63148 0.67236 0.96432 0.0
C1500 C 0.65539 0.66854 0.94826 0.0
C1501 C 0.61033 0.69015 0.95521 0.0
C1502 C 0.65696 0.68143 0.92223 0.0
C1503 C 0.63609 0.69886 0.91303 0.0
H1504 H 0.05337 0.87288 0.71858 0.0
H1505 H 0.02253 0.93733 0.66523 0.0
H1506 H 0.99438 0.90495 0.64171 0.0
H1507 H 0.97368 0.85972 0.64001 0.0
H1508 H 0.00429 0.79404 0.69157 0.0
H1509 H 0.03742 0.82515 0.71176 0.0
C1510 C 0.04086 0.8796 0.70147 0.0
C1511 C 0.0403 0.90749 0.69367 0.0
C1512 C 0.02441 0.86068 0.68781 0.0
C1513 C 0.02387 0.916 0.67151 0.0
C1514 C 0.00744 0.8975 0.6581 0.0
C1515 C 0.98815 0.8521 0.65515 0.0
C1516 C 0.98663 0.82483 0.66443 0.0
C1517 C 0.00695 0.87001 0.66656 0.0
C1518 C 0.00536 0.81501 0.684 0.0
C1519 C 0.02406 0.83285 0.69574 0.0
H1520 H 0.49452 0.31949 0.1977 0.0
H1521 H 0.55505 0.33996 0.13586 0.0
H1522 H 0.56729 0.38095 0.16136 0.0
H1523 H 0.56454 0.40765 0.20476 0.0
H1524 H 0.50438 0.38447 0.26626 0.0
H1525 H 0.4881 0.34827 0.23728 0.0
C1526 C 0.50987 0.33327 0.18929 0.0
C1527 C 0.52429 0.3263 0.16525 0.0
C1528 C 0.5172 0.35624 0.20434 0.0
C1529 C 0.54414 0.34445 0.15476 0.0
C1530 C 0.55115 0.36791 0.16936 0.0
C1531 C 0.54764 0.39489 0.2115 0.0
C1532 C 0.53608 0.39841 0.23784 0.0
C1533 C 0.53853 0.37345 0.19479 0.0
C1534 C 0.51407 0.38181 0.24633 0.0
C1535 C 0.5046 0.36113 0.22973 0.0
H1536 H 0.41868 0.83546 0.95883 0.0
H1537 H 0.3746 0.76815 0.9245 0.0
H1538 H 0.33385 0.78125 0.95137 0.0
H1539 H 0.3131 0.80826 0.98933 0.0
H1540 H 0.35938 0.87328 0.02476 0.0
H1541 H 0.39651 0.86569 0.99134 0.0
C1542 C 0.40003 0.82423 0.95599 0.0
C1543 C 0.39984 0.80097 0.93915 0.0
C1544 C 0.37699 0.8315 0.97193 0.0
C1545 C 0.37538 0.78619 0.93718 0.0
C1546 C 0.35208 0.79362 0.95264 0.0
C1547 C 0.33109 0.82113 0.98918 0.0
C1548 C 0.33365 0.84136 0.00926 0.0
C1549 C 0.35296 0.8157 0.9708 0.0
C1550 C 0.35711 0.85765 0.00938 0.0
C1551 C 0.37836 0.85315 0.99048 0.0
H1552 H 0.94901 0.56339 0.71704 0.0
H1553 H 0.87687 0.60253 0.75127 0.0
H1554 H 0.87871 0.63819 0.71544 0.0
H1555 H 0.90533 0.66214 0.6808 0.0
H1556 H 0.98033 0.6263 0.64886 0.0
H1557 H 0.97306 0.58539 0.6776 0.0
C1558 C 0.93335 0.57938 0.71609 0.0
C1559 C 0.91273 0.58044 0.73647 0.0
C1560 C 0.93545 0.60064 0.69637 0.0
C1561 C 0.89281 0.60142 0.73561 0.0
C1562 C 0.89401 0.62186 0.71533 0.0
C1563 C 0.91967 0.64517 0.67907 0.0
C1564 C 0.94334 0.64744 0.6624 0.0
C1565 C 0.91589 0.6223 0.69639 0.0
C1566 C 0.96192 0.62514 0.66147 0.0
C1567 C 0.95784 0.6018 0.67802 0.0
H1568 H 0.10766 0.2077 0.43804 0.0
H1569 H 0.07857 0.26502 0.49887 0.0
H1570 H 0.11313 0.24829 0.53077 0.0
H1571 H 0.14869 0.21485 0.54296 0.0
H1572 H 0.17846 0.15711 0.4829 0.0
H1573 H 0.14613 0.1761 0.44929 0.0
C1574 C 0.10902 0.21656 0.45823 0.0
C1575 C 0.09029 0.23725 0.4662 0.0
C1576 C 0.12867 0.20644 0.47677 0.0
C1577 C 0.09278 0.24914 0.49214 0.0
C1578 C 0.11233 0.23937 0.51055 0.0
C1579 C 0.14809 0.20634 0.52254 0.0
C1580 C 0.16556 0.18429 0.51556 0.0
C1581 C 0.12983 0.21755 0.50335 0.0
C1582 C 0.16502 0.17395 0.48881 0.0
C1583 C 0.1466 0.18483 0.4696 0.0
H1584 H 0.0694 0.15569 0.82472 0.0
H1585 H 0.9872 0.13043 0.84567 0.0
H1586 H 0.99327 0.08997 0.81694 0.0
H1587 H 0.01937 0.06619 0.78005 0.0
H1588 H 0.09913 0.09575 0.75611 0.0
H1589 H 0.0968 0.13006 0.79219 0.0
C1590 C 0.05297 0.14114 0.82404 0.0
C1591 C 0.02777 0.14642 0.83752 0.0
C1592 C 0.05612 0.1188 0.80642 0.0
C1593 C 0.00681 0.12702 0.83551 0.0
C1594 C 0.01019 0.10396 0.81889 0.0
C1595 C 0.03642 0.07977 0.78334 0.0
C1596 C 0.05948 0.07852 0.7658 0.0
C1597 C 0.03435 0.1003 0.80333 0.0
C1598 C 0.08131 0.09641 0.76962 0.0
C1599 C 0.0799 0.11606 0.79012 0.0
H1600 H 0.60898 0.26695 0.57456 0.0
H1601 H 0.54972 0.32554 0.54292 0.0
H1602 H 0.58372 0.34473 0.5123 0.0
H1603 H 0.6282 0.3408 0.48918 0.0
H1604 H 0.68881 0.2836 0.5198 0.0
H1605 H 0.65656 0.26774 0.55558 0.0
C1606 C 0.60378 0.28434 0.56143 0.0
C1607 C 0.57684 0.29501 0.56175 0.0
C1608 C 0.62353 0.29513 0.54301 0.0
C1609 C 0.57037 0.31741 0.54429 0.0
C1610 C 0.58975 0.32818 0.52613 0.0
C1611 C 0.63443 0.32528 0.50411 0.0
C1612 C 0.66051 0.31319 0.50199 0.0
C1613 C 0.61604 0.31662 0.52465 0.0
C1614 C 0.66868 0.29318 0.52131 0.0
C1615 C 0.65023 0.28404 0.54161 0.0
H1616 H 0.49967 0.81848 0.28223 0.0
H1617 H 0.45115 0.84121 0.35299 0.0
H1618 H 0.43538 0.88305 0.32902 0.0
H1619 H 0.43193 0.91068 0.28561 0.0
H1620 H 0.47918 0.88461 0.2149 0.0
H1621 H 0.49898 0.84685 0.24117 0.0
C1622 C 0.48623 0.83292 0.29274 0.0
C1623 C 0.47645 0.8267 0.31924 0.0
C1624 C 0.47665 0.85624 0.27859 0.0
C1625 C 0.4587 0.84543 0.33241 0.0
C1626 C 0.44964 0.8693 0.31867 0.0
C1627 C 0.44678 0.89686 0.27619 0.0
C1628 C 0.45375 0.90022 0.24825 0.0
C1629 C 0.45783 0.87452 0.29138 0.0
C1630 C 0.47305 0.88219 0.23623 0.0
C1631 C 0.48454 0.86062 0.25125 0.0
H1632 H 0.90638 0.74326 0.01076 0.0
H1633 H 0.89047 0.68832 0.07885 0.0
H1634 H 0.8525 0.66793 0.05383 0.0
H1635 H 0.82626 0.66347 0.01048 0.0
H1636 H 0.84649 0.71684 0.94191 0.0
H1637 H 0.88021 0.7399 0.96907 0.0
C1638 C 0.89415 0.72729 0.02042 0.0
C1639 C 0.90098 0.71744 0.04663 0.0
C1640 C 0.87338 0.71499 0.00553 0.0
C1641 C 0.88545 0.69627 0.05865 0.0
C1642 C 0.86389 0.68452 0.04428 0.0
C1643 C 0.83797 0.68024 0.00167 0.0
C1644 C 0.83401 0.68817 0.9741 0.0
C1645 C 0.85806 0.69328 0.01736 0.0
C1646 C 0.84939 0.70995 0.96291 0.0
C1647 C 0.86862 0.72335 0.97847 0.0
H1648 H 0.18569 0.58375 0.31782 0.0
H1649 H 0.15549 0.50708 0.35065 0.0
H1650 H 0.18162 0.51375 0.3925 0.0
H1651 H 0.21894 0.53769 0.41601 0.0
H1652 H 0.25144 0.61187 0.38018 0.0
H1653 H 0.21764 0.61047 0.34358 0.0
C1654 C 0.18368 0.56892 0.33434 0.0
C1655 C 0.16832 0.54495 0.33092 0.0
C1656 C 0.19947 0.57245 0.35786 0.0
C1657 C 0.1671 0.52572 0.35267 0.0
C1658 C 0.18216 0.52947 0.37657 0.0
C1659 C 0.21784 0.55401 0.40069 0.0
C1660 C 0.23725 0.57507 0.40081 0.0
C1661 C 0.19927 0.55223 0.37892 0.0
C1662 C 0.23637 0.59572 0.38054 0.0
C1663 C 0.21727 0.59474 0.35951 0.0
H1664 H 0.75941 0.98038 0.59751 0.0
H1665 H 0.71842 0.90875 0.56876 0.0
H1666 H 0.68089 0.91651 0.60217 0.0
H1667 H 0.66181 0.94237 0.64192 0.0
H1668 H 0.7039 0.01452 0.6687 0.0
H1669 H 0.73832 0.00845 0.633 0.0
C1670 C 0.74218 0.96651 0.59851 0.0
C1671 C 0.74178 0.94376 0.58124 0.0
C1672 C 0.72077 0.97138 0.61723 0.0
C1673 C 0.71913 0.92629 0.58212 0.0
C1674 C 0.69777 0.93074 0.60119 0.0
C1675 C 0.67842 0.9568 0.63981 0.0
C1676 C 0.68045 0.97854 0.65843 0.0
C1677 C 0.69863 0.95301 0.61922 0.0
C1678 C 0.70167 0.99759 0.65479 0.0
C1679 C 0.72164 0.994 0.6345 0.0
H1680 H 0.79826 0.04505 0.35146 0.0
H1681 H 0.86142 0.98918 0.32315 0.0
H1682 H 0.84274 0.95273 0.353 0.0
H1683 H 0.80977 0.93799 0.38932 0.0
H1684 H 0.74644 0.99468 0.41601 0.0
H1685 H 0.76325 0.02927 0.38383 0.0
C1686 C 0.80799 0.02489 0.35186 0.0
C1687 C 0.8315 0.01988 0.33568 0.0
C1688 C 0.79686 0.00412 0.36849 0.0
C1689 C 0.84345 0.99351 0.33572 0.0
C1690 C 0.83275 0.97272 0.35272 0.0
C1691 C 0.79956 0.95783 0.38786 0.0
C1692 C 0.77715 0.96386 0.40534 0.0
C1693 C 0.80963 0.97792 0.36948 0.0
C1694 C 0.76365 0.98941 0.40275 0.0
C1695 C 0.77345 0.00937 0.38458 0.0
H1696 H 0.78669 0.0708 0.08215 0.0
H1697 H 0.72903 0.0178 0.1242 0.0
H1698 H 0.76215 0.00788 0.15964 0.0
H1699 H 0.80645 0.01488 0.17988 0.0
H1700 H 0.86449 0.06937 0.1412 0.0
H1701 H 0.83247 0.07799 0.10332 0.0
C1702 C 0.78151 0.05705 0.09904 0.0
C1703 C 0.75528 0.04522 0.10046 0.0
C1704 C 0.80072 0.05161 0.11997 0.0
C1705 C 0.74886 0.0275 0.1226 0.0
C1706 C 0.76785 0.02164 0.14292 0.0
C1707 C 0.81237 0.02828 0.16292 0.0
C1708 C 0.83789 0.0412 0.16313 0.0
C1709 C 0.79371 0.03363 0.14189 0.0
C1710 C 0.84493 0.05911 0.14141 0.0
C1711 C 0.8266 0.06406 0.11982 0.0
H1712 H 0.73555 0.06244 0.88798 0.0
H1713 H 0.67769 0.02882 0.94672 0.0
H1714 H 0.65749 0.00137 0.91161 0.0
H1715 H 0.65954 0.98238 0.86564 0.0
H1716 H 0.71538 0.01589 0.80532 0.0
H1717 H 0.73288 0.04791 0.83924 0.0
C1718 C 0.71818 0.04951 0.89284 0.0
C1719 C 0.70809 0.04802 0.91996 0.0
C1720 C 0.7064 0.03349 0.87229 0.0
C1721 C 0.68563 0.03099 0.92601 0.0
C1722 C 0.67413 0.01495 0.90595 0.0
C1723 C 0.67502 0.99724 0.85982 0.0
C1724 C 0.68621 0.99698 0.83327 0.0
C1725 C 0.68477 0.01549 0.87925 0.0
C1726 C 0.70634 0.01609 0.82574 0.0
C1727 C 0.7165 0.03416 0.84517 0.0
H1728 H 0.2704 0.42336 0.91855 0.0
H1729 H 0.20001 0.46537 0.88392 0.0
H1730 H 0.22826 0.48375 0.84706 0.0
H1731 H 0.27201 0.48691 0.82339 0.0
H1732 H 0.34231 0.4421 0.85363 0.0
H1733 H 0.31534 0.42631 0.8937 0.0
C1734 C 0.26134 0.43652 0.90291 0.0
C1735 C 0.23305 0.44279 0.90405 0.0
C1736 C 0.27774 0.44682 0.88113 0.0
C1737 C 0.22161 0.45985 0.88353 0.0
C1738 C 0.23778 0.47062 0.86244 0.0
C1739 C 0.28164 0.47419 0.83907 0.0
C1740 C 0.30913 0.46597 0.83587 0.0
C1741 C 0.26576 0.46421 0.861 0.0
C1742 C 0.32116 0.44884 0.85589 0.0
C1743 C 0.30569 0.43968 0.87862 0.0
H1744 H 0.32577 0.51338 0.65977 0.0
H1745 H 0.25595 0.46075 0.65191 0.0
H1746 H 0.23791 0.48992 0.61535 0.0
H1747 H 0.24463 0.52652 0.58195 0.0
H1748 H 0.31467 0.57911 0.58723 0.0
H1749 H 0.32989 0.55408 0.62839 0.0
C1750 C 0.30639 0.50875 0.65032 0.0
C1751 C 0.29233 0.48486 0.65822 0.0
C1752 C 0.29637 0.52534 0.6286 0.0
C1753 C 0.26728 0.47889 0.64585 0.0
C1754 C 0.25692 0.49554 0.62496 0.0
C1755 C 0.26293 0.53297 0.59239 0.0
C1756 C 0.27886 0.55417 0.58113 0.0
C1757 C 0.2717 0.51827 0.6156 0.0
C1758 C 0.30246 0.56227 0.59503 0.0
C1759 C 0.31112 0.54802 0.61862 0.0
H1760 H 0.19994 0.42178 0.10288 0.0
H1761 H 0.26332 0.47344 0.06853 0.0
H1762 H 0.25097 0.50937 0.1005 0.0
H1763 H 0.21906 0.52843 0.13426 0.0
H1764 H 0.15533 0.47807 0.16945 0.0
H1765 H 0.17038 0.43964 0.14055 0.0
C1766 C 0.21105 0.44086 0.10239 0.0
C1767 C 0.232 0.44506 0.08264 0.0
C1768 C 0.20339 0.46195 0.12056 0.0
C1769 C 0.24702 0.4695 0.0833 0.0
C1770 C 0.23976 0.49032 0.10139 0.0
C1771 C 0.20842 0.50904 0.13563 0.0
C1772 C 0.18575 0.50623 0.15347 0.0
C1773 C 0.2174 0.48713 0.11937 0.0
C1774 C 0.17268 0.48077 0.15563 0.0
C1775 C 0.18131 0.45883 0.13915 0.0
loop_
_geom_bond_atom_site_label_1
_geom_bond_atom_site_label_2
_geom_bond_distance
_geom_bond_site_symmetry_2
_ccdc_geom_bond_type
Co0 O3 1.970 . S
Co0 N17 1.989 . S
Co0 O25 1.967 . S
Co0 O32 1.920 . S
Co1 O4 1.966 . S
Co1 N10 2.022 . S
Co1 N18 1.993 . S
Co1 O26 1.941 . S
C2 O3 1.258 . S
C2 O4 1.263 . S
O3 Co0 1.970 . S
O3 C2 1.258 . S
O4 Co1 1.966 . S
O4 C2 1.263 . S
C5 O6 1.235 . S
C5 O32 1.289 . S
O6 C5 1.235 . S
C7 C9 1.400 . S
C7 N10 1.351 . S
C7 C12 1.501 . S
C8 C9 1.387 . S
C8 N11 1.341 . S
C9 C7 1.400 . S
C9 C8 1.387 . S
N10 Co1 2.022 . S
N10 C7 1.351 . S
N10 N11 1.365 . S
N11 C8 1.341 . S
N11 N10 1.365 . S
N11 H31 0.862 . S
C12 C7 1.501 . S
C12 H13 0.961 . S
C12 H14 0.961 . S
C12 H15 0.960 . S
H13 C12 0.961 . S
H14 C12 0.961 . S
H15 C12 0.960 . S
C16 N17 1.342 . S
C16 C20 1.401 . S
C16 C21 1.499 . S
N17 Co0 1.989 . S
N17 C16 1.342 . S
N17 N18 1.388 . S
N18 Co1 1.993 . S
N18 N17 1.388 . S
N18 C19 1.346 . S
C19 N18 1.346 . S
C19 C20 1.396 . S
C19 C29 1.510 . S
C20 C16 1.401 . S
C20 C19 1.396 . S
C21 C16 1.499 . S
C21 H22 0.959 . S
C21 H23 0.960 . S
C21 H24 0.961 . S
H22 C21 0.959 . S
H23 C21 0.960 . S
H24 C21 0.961 . S
O25 Co0 1.967 . S
O25 C33 1.258 . S
O26 Co1 1.941 . S
O26 C33 1.266 . S
H27 C29 0.959 . S
H28 C29 0.961 . S
C29 C19 1.510 . S
C29 H27 0.959 . S
C29 H28 0.961 . S
C29 H30 0.960 . S
H30 C29 0.960 . S
H31 N11 0.862 . S
O32 Co0 1.920 . S
O32 C5 1.289 . S
C33 O25 1.258 . S
C33 O26 1.266 . S
Co34 O37 1.970 . S
Co34 N51 1.989 . S
Co34 O59 1.967 . S
Co34 O66 1.920 . S
Co35 O38 1.966 . S
Co35 N44 2.022 . S
Co35 N52 1.993 . S
Co35 O60 1.941 . S
C36 O37 1.258 . S
C36 O38 1.263 . S
O37 Co34 1.970 . S
O37 C36 1.258 . S
O38 Co35 1.966 . S
O38 C36 1.263 . S
C39 O40 1.235 . S
C39 O66 1.289 . S
O40 C39 1.235 . S
C41 C43 1.400 . S
C41 N44 1.351 . S
C41 C46 1.501 . S
C42 C43 1.387 . S
C42 N45 1.341 . S
C43 C41 1.400 . S
C43 C42 1.387 . S
N44 Co35 2.022 . S
N44 C41 1.351 . S
N44 N45 1.365 . S
N45 C42 1.341 . S
N45 N44 1.365 . S
N45 H65 0.862 . S
C46 C41 1.501 . S
C46 H47 0.961 . S
C46 H48 0.961 . S
C46 H49 0.960 . S
H47 C46 0.961 . S
H48 C46 0.961 . S
H49 C46 0.960 . S
C50 N51 1.342 . S
C50 C54 1.401 . S
C50 C55 1.499 . S
N51 Co34 1.989 . S
N51 C50 1.342 . S
N51 N52 1.388 . S
N52 Co35 1.993 . S
N52 N51 1.388 . S
N52 C53 1.346 . S
C53 N52 1.346 . S
C53 C54 1.396 . S
C53 C63 1.510 . S
C54 C50 1.401 . S
C54 C53 1.396 . S
C55 C50 1.499 . S
C55 H56 0.959 . S
C55 H57 0.960 . S
C55 H58 0.961 . S
H56 C55 0.959 . S
H57 C55 0.960 . S
H58 C55 0.961 . S
O59 Co34 1.967 . S
O59 C67 1.258 . S
O60 Co35 1.941 . S
O60 C67 1.266 . S
H61 C63 0.959 . S
H62 C63 0.961 . S
C63 C53 1.510 . S
C63 H61 0.959 . S
C63 H62 0.961 . S
C63 H64 0.960 . S
H64 C63 0.960 . S
H65 N45 0.862 . S
O66 Co34 1.920 . S
O66 C39 1.289 . S
C67 O59 1.258 . S
C67 O60 1.266 . S
Co68 O71 1.970 . S
Co68 N85 1.989 . S
Co68 O93 1.967 . S
Co68 O100 1.920 . S
Co69 O72 1.966 . S
Co69 N78 2.022 . S
Co69 N86 1.993 . S
Co69 O94 1.941 . S
C70 O71 1.258 . S
C70 O72 1.263 . S
O71 Co68 1.970 . S
O71 C70 1.258 . S
O72 Co69 1.966 . S
O72 C70 1.263 . S
C73 O74 1.235 . S
C73 O100 1.289 . S
O74 C73 1.235 . S
C75 C77 1.400 . S
C75 N78 1.351 . S
C75 C80 1.501 . S
C76 C77 1.387 . S
C76 N79 1.341 . S
C77 C75 1.400 . S
C77 C76 1.387 . S
N78 Co69 2.022 . S
N78 C75 1.351 . S
N78 N79 1.365 . S
N79 C76 1.341 . S
N79 N78 1.365 . S
N79 H99 0.862 . S
C80 C75 1.501 . S
C80 H81 0.961 . S
C80 H82 0.961 . S
C80 H83 0.960 . S
H81 C80 0.961 . S
H82 C80 0.961 . S
H83 C80 0.960 . S
C84 N85 1.342 . S
C84 C88 1.401 . S
C84 C89 1.499 . S
N85 Co68 1.989 . S
N85 C84 1.342 . S
N85 N86 1.388 . S
N86 Co69 1.993 . S
N86 N85 1.388 . S
N86 C87 1.346 . S
C87 N86 1.346 . S
C87 C88 1.396 . S
C87 C97 1.510 . S
C88 C84 1.401 . S
C88 C87 1.396 . S
C89 C84 1.499 . S
C89 H90 0.959 . S
C89 H91 0.960 . S
C89 H92 0.961 . S
H90 C89 0.959 . S
H91 C89 0.960 . S
H92 C89 0.961 . S
O93 Co68 1.967 . S
O93 C101 1.258 . S
O94 Co69 1.941 . S
O94 C101 1.266 . S
H95 C97 0.959 . S
H96 C97 0.961 . S
C97 C87 1.510 . S
C97 H95 0.959 . S
C97 H96 0.961 . S
C97 H98 0.960 . S
H98 C97 0.960 . S
H99 N79 0.862 . S
O100 Co68 1.920 . S
O100 C73 1.289 . S
C101 O93 1.258 . S
C101 O94 1.266 . S
Co102 O105 1.970 . S
Co102 N119 1.989 1_655 S
Co102 O127 1.967 . S
Co102 O134 1.920 1_655 S
Co103 O106 1.966 . S
Co103 N112 2.022 . S
Co103 N120 1.993 1_655 S
Co103 O128 1.941 . S
C104 O105 1.258 . S
C104 O106 1.263 . S
O105 Co102 1.970 . S
O105 C104 1.258 . S
O106 Co103 1.966 . S
O106 C104 1.263 . S
C107 O108 1.235 . S
C107 O134 1.289 . S
O108 C107 1.235 . S
C109 C111 1.400 . S
C109 N112 1.351 . S
C109 C114 1.501 . S
C110 C111 1.387 1_455 S
C110 N113 1.341 . S
C111 C109 1.400 . S
C111 C110 1.387 1_655 S
N112 Co103 2.022 . S
N112 C109 1.351 . S
N112 N113 1.365 1_655 S
N113 C110 1.341 . S
N113 N112 1.365 1_455 S
N113 H133 0.862 . S
C114 C109 1.501 . S
C114 H115 0.961 . S
C114 H116 0.961 . S
C114 H117 0.960 . S
H115 C114 0.961 . S
H116 C114 0.961 . S
H117 C114 0.960 . S
C118 N119 1.342 . S
C118 C122 1.401 . S
C118 C123 1.499 . S
N119 Co102 1.989 1_455 S
N119 C118 1.342 . S
N119 N120 1.388 . S
N120 Co103 1.993 1_455 S
N120 N119 1.388 . S
N120 C121 1.346 . S
C121 N120 1.346 . S
C121 C122 1.396 . S
C121 C131 1.510 . S
C122 C118 1.401 . S
C122 C121 1.396 . S
C123 C118 1.499 . S
C123 H124 0.959 . S
C123 H125 0.960 . S
C123 H126 0.961 . S
H124 C123 0.959 . S
H125 C123 0.960 . S
H126 C123 0.961 . S
O127 Co102 1.967 . S
O127 C135 1.258 . S
O128 Co103 1.941 . S
O128 C135 1.266 . S
H129 C131 0.959 . S
H130 C131 0.961 . S
C131 C121 1.510 . S
C131 H129 0.959 . S
C131 H130 0.961 . S
C131 H132 0.960 . S
H132 C131 0.960 . S
H133 N113 0.862 . S
O134 Co102 1.920 1_455 S
O134 C107 1.289 . S
C135 O127 1.258 . S
C135 O128 1.266 . S
Co136 O139 1.970 . S
Co136 N153 1.989 . S
Co136 O161 1.967 . S
Co136 O168 1.920 . S
Co137 O140 1.966 . S
Co137 N146 2.022 . S
Co137 N154 1.993 . S
Co137 O162 1.941 . S
C138 O139 1.258 . S
C138 O140 1.263 . S
O139 Co136 1.970 . S
O139 C138 1.258 . S
O140 Co137 1.966 . S
O140 C138 1.263 . S
C141 O142 1.235 . S
C141 O168 1.289 . S
O142 C141 1.235 . S
C143 C145 1.400 . S
C143 N146 1.351 . S
C143 C148 1.501 . S
C144 C145 1.387 . S
C144 N147 1.341 . S
C145 C143 1.400 . S
C145 C144 1.387 . S
N146 Co137 2.022 . S
N146 C143 1.351 . S
N146 N147 1.365 . S
N147 C144 1.341 . S
N147 N146 1.365 . S
N147 H167 0.862 . S
C148 C143 1.501 . S
C148 H149 0.961 . S
C148 H150 0.961 . S
C148 H151 0.960 . S
H149 C148 0.961 . S
H150 C148 0.961 . S
H151 C148 0.960 . S
C152 N153 1.342 . S
C152 C156 1.401 . S
C152 C157 1.499 . S
N153 Co136 1.989 . S
N153 C152 1.342 . S
N153 N154 1.388 . S
N154 Co137 1.993 . S
N154 N153 1.388 . S
N154 C155 1.346 . S
C155 N154 1.346 . S
C155 C156 1.396 . S
C155 C165 1.510 . S
C156 C152 1.401 . S
C156 C155 1.396 . S
C157 C152 1.499 . S
C157 H158 0.959 . S
C157 H159 0.960 . S
C157 H160 0.961 . S
H158 C157 0.959 . S
H159 C157 0.960 . S
H160 C157 0.961 . S
O161 Co136 1.967 . S
O161 C169 1.258 . S
O162 Co137 1.941 . S
O162 C169 1.266 . S
H163 C165 0.959 . S
H164 C165 0.961 . S
C165 C155 1.510 . S
C165 H163 0.959 . S
C165 H164 0.961 . S
C165 H166 0.960 . S
H166 C165 0.960 . S
H167 N147 0.862 . S
O168 Co136 1.920 . S
O168 C141 1.289 . S
C169 O161 1.258 . S
C169 O162 1.266 . S
Co170 O173 1.970 . S
Co170 N187 1.989 . S
Co170 O195 1.967 . S
Co170 O202 1.920 . S
Co171 O174 1.966 . S
Co171 N180 2.022 1_565 S
Co171 N188 1.993 . S
Co171 O196 1.941 . S
C172 O173 1.258 . S
C172 O174 1.263 . S
O173 Co170 1.970 . S
O173 C172 1.258 . S
O174 Co171 1.966 . S
O174 C172 1.263 . S
C175 O176 1.235 . S
C175 O202 1.289 . S
O176 C175 1.235 . S
C177 C179 1.400 . S
C177 N180 1.351 . S
C177 C182 1.501 . S
C178 C179 1.387 . S
C178 N181 1.341 . S
C179 C177 1.400 . S
C179 C178 1.387 . S
N180 Co171 2.022 1_545 S
N180 C177 1.351 . S
N180 N181 1.365 . S
N181 C178 1.341 . S
N181 N180 1.365 . S
N181 H201 0.862 . S
C182 C177 1.501 . S
C182 H183 0.961 . S
C182 H184 0.961 . S
C182 H185 0.960 . S
H183 C182 0.961 . S
H184 C182 0.961 . S
H185 C182 0.960 . S
C186 N187 1.342 . S
C186 C190 1.401 . S
C186 C191 1.499 . S
N187 Co170 1.989 . S
N187 C186 1.342 . S
N187 N188 1.388 . S
N188 Co171 1.993 . S
N188 N187 1.388 . S
N188 C189 1.346 . S
C189 N188 1.346 . S
C189 C190 1.396 . S
C189 C199 1.510 1_565 S
C190 C186 1.401 . S
C190 C189 1.396 . S
C191 C186 1.499 . S
C191 H192 0.959 . S
C191 H193 0.960 . S
C191 H194 0.961 . S
H192 C191 0.959 . S
H193 C191 0.960 . S
H194 C191 0.961 . S
O195 Co170 1.967 . S
O195 C203 1.258 . S
O196 Co171 1.941 . S
O196 C203 1.266 . S
H197 C199 0.959 . S
H198 C199 0.961 . S
C199 C189 1.510 1_545 S
C199 H197 0.959 . S
C199 H198 0.961 . S
C199 H200 0.960 . S
H200 C199 0.960 . S
H201 N181 0.862 . S
O202 Co170 1.920 . S
O202 C175 1.289 . S
C203 O195 1.258 . S
C203 O196 1.266 . S
Co204 O207 1.970 . S
Co204 N221 1.989 . S
Co204 O229 1.967 . S
Co204 O236 1.920 . S
Co205 O208 1.966 . S
Co205 N214 2.022 . S
Co205 N222 1.993 . S
Co205 O230 1.941 . S
C206 O207 1.258 . S
C206 O208 1.263 . S
O207 Co204 1.970 . S
O207 C206 1.258 . S
O208 Co205 1.966 . S
O208 C206 1.263 . S
C209 O210 1.235 . S
C209 O236 1.289 . S
O210 C209 1.235 . S
C211 C213 1.400 . S
C211 N214 1.351 . S
C211 C216 1.501 . S
C212 C213 1.387 . S
C212 N215 1.341 . S
C213 C211 1.400 . S
C213 C212 1.387 . S
N214 Co205 2.022 . S
N214 C211 1.351 . S
N214 N215 1.365 . S
N215 C212 1.341 . S
N215 N214 1.365 . S
N215 H235 0.862 . S
C216 C211 1.501 . S
C216 H217 0.961 . S
C216 H218 0.961 . S
C216 H219 0.960 . S
H217 C216 0.961 . S
H218 C216 0.961 . S
H219 C216 0.960 . S
C220 N221 1.342 . S
C220 C224 1.401 . S
C220 C225 1.499 . S
N221 Co204 1.989 . S
N221 C220 1.342 . S
N221 N222 1.388 . S
N222 Co205 1.993 . S
N222 N221 1.388 . S
N222 C223 1.346 . S
C223 N222 1.346 . S
C223 C224 1.396 . S
C223 C233 1.510 . S
C224 C220 1.401 . S
C224 C223 1.396 . S
C225 C220 1.499 . S
C225 H226 0.959 . S
C225 H227 0.960 . S
C225 H228 0.961 . S
H226 C225 0.959 . S
H227 C225 0.960 . S
H228 C225 0.961 . S
O229 Co204 1.967 . S
O229 C237 1.258 . S
O230 Co205 1.941 . S
O230 C237 1.266 . S
H231 C233 0.959 . S
H232 C233 0.961 . S
C233 C223 1.510 . S
C233 H231 0.959 . S
C233 H232 0.961 . S
C233 H234 0.960 . S
H234 C233 0.960 . S
H235 N215 0.862 . S
O236 Co204 1.920 . S
O236 C209 1.289 . S
C237 O229 1.258 . S
C237 O230 1.266 . S
Co238 O241 1.970 . S
Co238 N255 1.989 1_455 S
Co238 O263 1.967 . S
Co238 O270 1.920 1_455 S
Co239 O242 1.966 . S
Co239 N248 2.022 1_545 S
Co239 N256 1.993 1_455 S
Co239 O264 1.941 . S
C240 O241 1.258 . S
C240 O242 1.263 . S
O241 Co238 1.970 . S
O241 C240 1.258 . S
O242 Co239 1.966 . S
O242 C240 1.263 . S
C243 O244 1.232 1_655 S
C243 O270 1.289 . S
O244 C243 1.232 1_455 S
C245 C247 1.400 . S
C245 N248 1.351 . S
C245 C250 1.501 . S
C246 C247 1.387 1_655 S
C246 N249 1.341 . S
C247 C245 1.400 . S
C247 C246 1.387 1_455 S
N248 Co239 2.022 1_565 S
N248 C245 1.351 . S
N248 N249 1.365 1_455 S
N249 C246 1.341 . S
N249 N248 1.365 1_655 S
N249 H269 0.862 . S
C250 C245 1.501 . S
C250 H251 0.961 . S
C250 H252 0.961 . S
C250 H253 0.960 . S
H251 C250 0.961 . S
H252 C250 0.961 . S
H253 C250 0.960 . S
C254 N255 1.342 . S
C254 C258 1.401 . S
C254 C259 1.499 . S
N255 Co238 1.989 1_655 S
N255 C254 1.342 . S
N255 N256 1.388 . S
N256 Co239 1.993 1_655 S
N256 N255 1.388 . S
N256 C257 1.346 . S
C257 N256 1.346 . S
C257 C258 1.396 . S
C257 C267 1.510 1_545 S
C258 C254 1.401 . S
C258 C257 1.396 . S
C259 C254 1.499 . S
C259 H260 0.959 . S
C259 H261 0.960 . S
C259 H262 0.961 . S
H260 C259 0.959 . S
H261 C259 0.960 . S
H262 C259 0.961 . S
O263 Co238 1.967 . S
O263 C271 1.258 . S
O264 Co239 1.941 . S
O264 C271 1.266 . S
H265 C267 0.959 . S
H266 C267 0.961 . S
C267 C257 1.510 1_565 S
C267 H265 0.959 . S
C267 H266 0.961 . S
C267 H268 0.960 . S
H268 C267 0.960 . S
H269 N249 0.862 . S
O270 Co238 1.920 1_655 S
O270 C243 1.289 . S
C271 O263 1.258 . S
C271 O264 1.266 . S
Co272 O275 1.970 . S
Co272 N289 1.989 . S
Co272 O297 1.967 . S
Co272 O304 1.920 . S
Co273 O276 1.966 . S
Co273 N282 2.022 . S
Co273 N290 1.993 . S
Co273 O298 1.941 . S
C274 O275 1.258 . S
C274 O276 1.263 . S
O275 Co272 1.970 . S
O275 C274 1.258 . S
O276 Co273 1.966 . S
O276 C274 1.263 . S
C277 O278 1.235 . S
C277 O304 1.289 . S
O278 C277 1.235 . S
C279 C281 1.400 . S
C279 N282 1.351 . S
C279 C284 1.501 . S
C280 C281 1.387 . S
C280 N283 1.341 . S
C281 C279 1.400 . S
C281 C280 1.387 . S
N282 Co273 2.022 . S
N282 C279 1.351 . S
N282 N283 1.365 . S
N283 C280 1.341 . S
N283 N282 1.365 . S
N283 H303 0.862 . S
C284 C279 1.501 . S
C284 H285 0.961 . S
C284 H286 0.961 . S
C284 H287 0.960 . S
H285 C284 0.961 . S
H286 C284 0.961 . S
H287 C284 0.960 . S
C288 N289 1.342 . S
C288 C292 1.401 . S
C288 C293 1.499 . S
N289 Co272 1.989 . S
N289 C288 1.342 . S
N289 N290 1.388 . S
N290 Co273 1.993 . S
N290 N289 1.388 . S
N290 C291 1.346 . S
C291 N290 1.346 . S
C291 C292 1.396 . S
C291 C301 1.510 . S
C292 C288 1.401 . S
C292 C291 1.396 . S
C293 C288 1.499 . S
C293 H294 0.959 . S
C293 H295 0.960 . S
C293 H296 0.961 . S
H294 C293 0.959 . S
H295 C293 0.960 . S
H296 C293 0.961 . S
O297 Co272 1.967 . S
O297 C305 1.258 . S
O298 Co273 1.941 . S
O298 C305 1.266 . S
H299 C301 0.959 . S
H300 C301 0.961 . S
C301 C291 1.510 . S
C301 H299 0.959 . S
C301 H300 0.961 . S
C301 H302 0.960 . S
H302 C301 0.960 . S
H303 N283 0.862 . S
O304 Co272 1.920 . S
O304 C277 1.289 . S
C305 O297 1.258 . S
C305 O298 1.266 . S
Co306 O309 1.970 . S
Co306 N323 1.989 1_556 S
Co306 O331 1.967 . S
Co306 O338 1.920 1_556 S
Co307 O310 1.966 . S
Co307 N316 2.022 . S
Co307 N324 1.993 1_556 S
Co307 O332 1.941 . S
C308 O309 1.258 . S
C308 O310 1.263 . S
O309 Co306 1.970 . S
O309 C308 1.258 . S
O310 Co307 1.966 . S
O310 C308 1.263 . S
C311 O312 1.235 . S
C311 O338 1.289 . S
O312 C311 1.235 . S
C313 C315 1.400 . S
C313 N316 1.351 . S
C313 C318 1.501 . S
C314 C315 1.387 1_554 S
C314 N317 1.341 . S
C315 C313 1.400 . S
C315 C314 1.387 1_556 S
N316 Co307 2.022 . S
N316 C313 1.351 . S
N316 N317 1.365 1_556 S
N317 C314 1.341 . S
N317 N316 1.365 1_554 S
N317 H337 0.862 . S
C318 C313 1.501 . S
C318 H319 0.961 . S
C318 H320 0.961 . S
C318 H321 0.960 . S
H319 C318 0.961 . S
H320 C318 0.961 . S
H321 C318 0.960 . S
C322 N323 1.342 . S
C322 C326 1.401 . S
C322 C327 1.499 . S
N323 Co306 1.989 1_554 S
N323 C322 1.342 . S
N323 N324 1.388 . S
N324 Co307 1.993 1_554 S
N324 N323 1.388 . S
N324 C325 1.346 . S
C325 N324 1.346 . S
C325 C326 1.396 . S
C325 C335 1.510 . S
C326 C322 1.401 . S
C326 C325 1.396 . S
C327 C322 1.499 . S
C327 H328 0.959 . S
C327 H329 0.960 . S
C327 H330 0.961 . S
H328 C327 0.959 . S
H329 C327 0.960 . S
H330 C327 0.961 . S
O331 Co306 1.967 . S
O331 C339 1.258 . S
O332 Co307 1.941 . S
O332 C339 1.266 . S
H333 C335 0.959 . S
H334 C335 0.961 . S
C335 C325 1.510 . S
C335 H333 0.959 . S
C335 H334 0.961 . S
C335 H336 0.960 . S
H336 C335 0.960 . S
H337 N317 0.862 . S
O338 Co306 1.920 1_554 S
O338 C311 1.289 . S
C339 O331 1.258 . S
C339 O332 1.266 . S
Co340 O343 1.970 . S
Co340 N357 1.989 . S
Co340 O365 1.967 . S
Co340 O372 1.920 . S
Co341 O344 1.966 . S
Co341 N350 2.022 . S
Co341 N358 1.993 . S
Co341 O366 1.941 . S
C342 O343 1.258 . S
C342 O344 1.263 . S
O343 Co340 1.970 . S
O343 C342 1.258 . S
O344 Co341 1.966 . S
O344 C342 1.263 . S
C345 O346 1.235 . S
C345 O372 1.289 . S
O346 C345 1.235 . S
C347 C349 1.400 . S
C347 N350 1.351 . S
C347 C352 1.501 . S
C348 C349 1.387 . S
C348 N351 1.341 . S
C349 C347 1.400 . S
C349 C348 1.387 . S
N350 Co341 2.022 . S
N350 C347 1.351 . S
N350 N351 1.365 . S
N351 C348 1.341 . S
N351 N350 1.365 . S
N351 H371 0.862 . S
C352 C347 1.501 . S
C352 H353 0.961 . S
C352 H354 0.961 . S
C352 H355 0.960 . S
H353 C352 0.961 . S
H354 C352 0.961 . S
H355 C352 0.960 . S
C356 N357 1.342 . S
C356 C360 1.401 . S
C356 C361 1.499 . S
N357 Co340 1.989 . S
N357 C356 1.342 . S
N357 N358 1.388 . S
N358 Co341 1.993 . S
N358 N357 1.388 . S
N358 C359 1.346 . S
C359 N358 1.346 . S
C359 C360 1.396 . S
C359 C369 1.510 . S
C360 C356 1.401 . S
C360 C359 1.396 . S
C361 C356 1.499 . S
C361 H362 0.959 . S
C361 H363 0.960 . S
C361 H364 0.961 . S
H362 C361 0.959 . S
H363 C361 0.960 . S
H364 C361 0.961 . S
O365 Co340 1.967 . S
O365 C373 1.258 . S
O366 Co341 1.941 . S
O366 C373 1.266 . S
H367 C369 0.959 . S
H368 C369 0.961 . S
C369 C359 1.510 . S
C369 H367 0.959 . S
C369 H368 0.961 . S
C369 H370 0.960 . S
H370 C369 0.960 . S
H371 N351 0.862 . S
O372 Co340 1.920 . S
O372 C345 1.289 . S
C373 O365 1.258 . S
C373 O366 1.266 . S
Co374 O377 1.970 . S
Co374 N391 1.989 . S
Co374 O399 1.967 . S
Co374 O406 1.920 . S
Co375 O378 1.966 . S
Co375 N384 2.022 1_655 S
Co375 N392 1.993 . S
Co375 O400 1.941 . S
C376 O377 1.258 . S
C376 O378 1.263 . S
O377 Co374 1.970 . S
O377 C376 1.258 . S
O378 Co375 1.966 . S
O378 C376 1.263 . S
C379 O380 1.235 . S
C379 O406 1.289 . S
O380 C379 1.235 . S
C381 C383 1.400 . S
C381 N384 1.351 . S
C381 C386 1.501 . S
C382 C383 1.387 . S
C382 N385 1.341 . S
C383 C381 1.400 . S
C383 C382 1.387 . S
N384 Co375 2.022 1_455 S
N384 C381 1.351 . S
N384 N385 1.365 . S
N385 C382 1.341 . S
N385 N384 1.365 . S
N385 H405 0.862 . S
C386 C381 1.501 . S
C386 H387 0.961 . S
C386 H388 0.961 . S
C386 H389 0.960 . S
H387 C386 0.961 . S
H388 C386 0.961 . S
H389 C386 0.960 . S
C390 N391 1.342 . S
C390 C394 1.401 . S
C390 C395 1.499 . S
N391 Co374 1.989 . S
N391 C390 1.342 . S
N391 N392 1.388 . S
N392 Co375 1.993 . S
N392 N391 1.388 . S
N392 C393 1.346 . S
C393 N392 1.346 . S
C393 C394 1.396 . S
C393 C403 1.510 1_655 S
C394 C390 1.401 . S
C394 C393 1.396 . S
C395 C390 1.499 . S
C395 H396 0.959 . S
C395 H397 0.960 . S
C395 H398 0.961 . S
H396 C395 0.959 . S
H397 C395 0.960 . S
H398 C395 0.961 . S
O399 Co374 1.967 . S
O399 C407 1.258 . S
O400 Co375 1.941 . S
O400 C407 1.266 . S
H401 C403 0.959 . S
H402 C403 0.961 . S
C403 C393 1.510 1_455 S
C403 H401 0.959 . S
C403 H402 0.961 . S
C403 H404 0.960 . S
H404 C403 0.960 . S
H405 N385 0.862 . S
O406 Co374 1.920 . S
O406 C379 1.289 . S
C407 O399 1.258 . S
C407 O400 1.266 . S
Co408 O411 1.970 . S
Co408 N425 1.989 . S
Co408 O433 1.967 . S
Co408 O440 1.920 . S
Co409 O412 1.966 . S
Co409 N418 2.022 . S
Co409 N426 1.993 . S
Co409 O434 1.941 . S
C410 O411 1.258 . S
C410 O412 1.263 . S
O411 Co408 1.970 . S
O411 C410 1.258 . S
O412 Co409 1.966 . S
O412 C410 1.263 . S
C413 O414 1.235 . S
C413 O440 1.289 . S
O414 C413 1.235 . S
C415 C417 1.400 . S
C415 N418 1.351 . S
C415 C420 1.501 . S
C416 C417 1.387 . S
C416 N419 1.341 . S
C417 C415 1.400 . S
C417 C416 1.387 . S
N418 Co409 2.022 . S
N418 C415 1.351 . S
N418 N419 1.365 . S
N419 C416 1.341 . S
N419 N418 1.365 . S
N419 H439 0.862 . S
C420 C415 1.501 . S
C420 H421 0.961 . S
C420 H422 0.961 . S
C420 H423 0.960 . S
H421 C420 0.961 . S
H422 C420 0.961 . S
H423 C420 0.960 . S
C424 N425 1.342 . S
C424 C428 1.401 . S
C424 C429 1.499 . S
N425 Co408 1.989 . S
N425 C424 1.342 . S
N425 N426 1.388 . S
N426 Co409 1.993 . S
N426 N425 1.388 . S
N426 C427 1.346 . S
C427 N426 1.346 . S
C427 C428 1.396 . S
C427 C437 1.510 . S
C428 C424 1.401 . S
C428 C427 1.396 . S
C429 C424 1.499 . S
C429 H430 0.959 . S
C429 H431 0.960 . S
C429 H432 0.961 . S
H430 C429 0.959 . S
H431 C429 0.960 . S
H432 C429 0.961 . S
O433 Co408 1.967 . S
O433 C441 1.258 . S
O434 Co409 1.941 . S
O434 C441 1.266 . S
H435 C437 0.959 . S
H436 C437 0.961 . S
C437 C427 1.510 . S
C437 H435 0.959 . S
C437 H436 0.961 . S
C437 H438 0.960 . S
H438 C437 0.960 . S
H439 N419 0.862 . S
O440 Co408 1.920 . S
O440 C413 1.289 . S
C441 O433 1.258 . S
C441 O434 1.266 . S
Co442 O445 1.970 . S
Co442 N459 1.989 . S
Co442 O467 1.967 . S
Co442 O474 1.920 . S
Co443 O446 1.966 . S
Co443 N452 2.022 . S
Co443 N460 1.993 . S
Co443 O468 1.941 . S
C444 O445 1.258 . S
C444 O446 1.263 . S
O445 Co442 1.970 . S
O445 C444 1.258 . S
O446 Co443 1.966 . S
O446 C444 1.263 . S
C447 O448 1.235 . S
C447 O474 1.289 . S
O448 C447 1.235 . S
C449 C451 1.400 . S
C449 N452 1.351 . S
C449 C454 1.501 . S
C450 C451 1.387 . S
C450 N453 1.341 . S
C451 C449 1.400 . S
C451 C450 1.387 . S
N452 Co443 2.022 . S
N452 C449 1.351 . S
N452 N453 1.365 . S
N453 C450 1.341 . S
N453 N452 1.365 . S
N453 H473 0.862 . S
C454 C449 1.501 . S
C454 H455 0.961 . S
C454 H456 0.961 . S
C454 H457 0.960 . S
H455 C454 0.961 . S
H456 C454 0.961 . S
H457 C454 0.960 . S
C458 N459 1.342 . S
C458 C462 1.401 . S
C458 C463 1.499 . S
N459 Co442 1.989 . S
N459 C458 1.342 . S
N459 N460 1.388 . S
N460 Co443 1.993 . S
N460 N459 1.388 . S
N460 C461 1.346 . S
C461 N460 1.346 . S
C461 C462 1.396 . S
C461 C471 1.510 . S
C462 C458 1.401 . S
C462 C461 1.396 . S
C463 C458 1.499 . S
C463 H464 0.959 . S
C463 H465 0.960 . S
C463 H466 0.961 . S
H464 C463 0.959 . S
H465 C463 0.960 . S
H466 C463 0.961 . S
O467 Co442 1.967 . S
O467 C475 1.258 . S
O468 Co443 1.941 . S
O468 C475 1.266 . S
H469 C471 0.959 . S
H470 C471 0.961 . S
C471 C461 1.510 . S
C471 H469 0.959 . S
C471 H470 0.961 . S
C471 H472 0.960 . S
H472 C471 0.960 . S
H473 N453 0.862 . S
O474 Co442 1.920 . S
O474 C447 1.289 . S
C475 O467 1.258 . S
C475 O468 1.266 . S
Co476 O479 1.970 . S
Co476 N493 1.989 . S
Co476 O501 1.967 . S
Co476 O508 1.920 . S
Co477 O480 1.966 . S
Co477 N486 2.022 . S
Co477 N494 1.993 . S
Co477 O502 1.941 . S
C478 O479 1.258 . S
C478 O480 1.263 . S
O479 Co476 1.970 . S
O479 C478 1.258 . S
O480 Co477 1.966 . S
O480 C478 1.263 . S
C481 O482 1.235 . S
C481 O508 1.289 . S
O482 C481 1.235 . S
C483 C485 1.400 . S
C483 N486 1.351 . S
C483 C488 1.501 . S
C484 C485 1.387 . S
C484 N487 1.341 . S
C485 C483 1.400 . S
C485 C484 1.387 . S
N486 Co477 2.022 . S
N486 C483 1.351 . S
N486 N487 1.365 . S
N487 C484 1.341 . S
N487 N486 1.365 . S
N487 H507 0.862 . S
C488 C483 1.501 . S
C488 H489 0.961 . S
C488 H490 0.961 . S
C488 H491 0.960 . S
H489 C488 0.961 . S
H490 C488 0.961 . S
H491 C488 0.960 . S
C492 N493 1.342 . S
C492 C496 1.401 . S
C492 C497 1.499 . S
N493 Co476 1.989 . S
N493 C492 1.342 . S
N493 N494 1.388 . S
N494 Co477 1.993 . S
N494 N493 1.388 . S
N494 C495 1.346 . S
C495 N494 1.346 . S
C495 C496 1.396 . S
C495 C505 1.510 . S
C496 C492 1.401 . S
C496 C495 1.396 . S
C497 C492 1.499 . S
C497 H498 0.959 . S
C497 H499 0.960 . S
C497 H500 0.961 . S
H498 C497 0.959 . S
H499 C497 0.960 . S
H500 C497 0.961 . S
O501 Co476 1.967 . S
O501 C509 1.258 . S
O502 Co477 1.941 . S
O502 C509 1.266 . S
H503 C505 0.959 . S
H504 C505 0.961 . S
C505 C495 1.510 . S
C505 H503 0.959 . S
C505 H504 0.961 . S
C505 H506 0.960 . S
H506 C505 0.960 . S
H507 N487 0.862 . S
O508 Co476 1.920 . S
O508 C481 1.289 . S
C509 O501 1.258 . S
C509 O502 1.266 . S
Co510 O513 1.970 . S
Co510 N527 1.989 1_554 S
Co510 O535 1.967 . S
Co510 O542 1.920 1_554 S
Co511 O514 1.966 . S
Co511 N520 2.022 1_455 S
Co511 N528 1.993 1_554 S
Co511 O536 1.941 . S
C512 O513 1.258 . S
C512 O514 1.263 . S
O513 Co510 1.970 . S
O513 C512 1.258 . S
O514 Co511 1.966 . S
O514 C512 1.263 . S
C515 O516 1.232 1_556 S
C515 O542 1.289 . S
O516 C515 1.232 1_554 S
C517 C519 1.400 . S
C517 N520 1.351 . S
C517 C522 1.501 . S
C518 C519 1.387 1_556 S
C518 N521 1.341 . S
C519 C517 1.400 . S
C519 C518 1.387 1_554 S
N520 Co511 2.022 1_655 S
N520 C517 1.351 . S
N520 N521 1.365 1_554 S
N521 C518 1.341 . S
N521 N520 1.365 1_556 S
N521 H541 0.862 . S
C522 C517 1.501 . S
C522 H523 0.961 . S
C522 H524 0.961 . S
C522 H525 0.960 . S
H523 C522 0.961 . S
H524 C522 0.961 . S
H525 C522 0.960 . S
C526 N527 1.342 . S
C526 C530 1.401 . S
C526 C531 1.499 . S
N527 Co510 1.989 1_556 S
N527 C526 1.342 . S
N527 N528 1.388 . S
N528 Co511 1.993 1_556 S
N528 N527 1.388 . S
N528 C529 1.346 . S
C529 N528 1.346 . S
C529 C530 1.396 . S
C529 C539 1.510 1_455 S
C530 C526 1.401 . S
C530 C529 1.396 . S
C531 C526 1.499 . S
C531 H532 0.959 . S
C531 H533 0.960 . S
C531 H534 0.961 . S
H532 C531 0.959 . S
H533 C531 0.960 . S
H534 C531 0.961 . S
O535 Co510 1.967 . S
O535 C543 1.258 . S
O536 Co511 1.941 . S
O536 C543 1.266 . S
H537 C539 0.959 . S
H538 C539 0.961 . S
C539 C529 1.510 1_655 S
C539 H537 0.959 . S
C539 H538 0.961 . S
C539 H540 0.960 . S
H540 C539 0.960 . S
H541 N521 0.862 . S
O542 Co510 1.920 1_556 S
O542 C515 1.289 . S
C543 O535 1.258 . S
C543 O536 1.266 . S
Co544 O547 1.970 . S
Co544 N561 1.989 . S
Co544 O569 1.967 . S
Co544 O576 1.920 . S
Co545 O548 1.966 . S
Co545 N554 2.022 . S
Co545 N562 1.993 . S
Co545 O570 1.941 . S
C546 O547 1.258 . S
C546 O548 1.263 . S
O547 Co544 1.970 . S
O547 C546 1.258 . S
O548 Co545 1.966 . S
O548 C546 1.263 . S
C549 O550 1.235 . S
C549 O576 1.289 . S
O550 C549 1.235 . S
C551 C553 1.400 . S
C551 N554 1.351 . S
C551 C556 1.501 . S
C552 C553 1.387 . S
C552 N555 1.341 . S
C553 C551 1.400 . S
C553 C552 1.387 . S
N554 Co545 2.022 . S
N554 C551 1.351 . S
N554 N555 1.365 . S
N555 C552 1.341 . S
N555 N554 1.365 . S
N555 H575 0.862 . S
C556 C551 1.501 . S
C556 H557 0.961 . S
C556 H558 0.961 . S
C556 H559 0.960 . S
H557 C556 0.961 . S
H558 C556 0.961 . S
H559 C556 0.960 . S
C560 N561 1.342 . S
C560 C564 1.401 . S
C560 C565 1.499 . S
N561 Co544 1.989 . S
N561 C560 1.342 . S
N561 N562 1.388 . S
N562 Co545 1.993 . S
N562 N561 1.388 . S
N562 C563 1.346 . S
C563 N562 1.346 . S
C563 C564 1.396 . S
C563 C573 1.510 . S
C564 C560 1.401 . S
C564 C563 1.396 . S
C565 C560 1.499 . S
C565 H566 0.959 . S
C565 H567 0.960 . S
C565 H568 0.961 . S
H566 C565 0.959 . S
H567 C565 0.960 . S
H568 C565 0.961 . S
O569 Co544 1.967 . S
O569 C577 1.258 . S
O570 Co545 1.941 . S
O570 C577 1.266 . S
H571 C573 0.959 . S
H572 C573 0.961 . S
C573 C563 1.510 . S
C573 H571 0.959 . S
C573 H572 0.961 . S
C573 H574 0.960 . S
H574 C573 0.960 . S
H575 N555 0.862 . S
O576 Co544 1.920 . S
O576 C549 1.289 . S
C577 O569 1.258 . S
C577 O570 1.266 . S
Co578 O581 1.970 . S
Co578 N595 1.989 . S
Co578 O603 1.967 . S
Co578 O610 1.920 . S
Co579 O582 1.966 . S
Co579 N588 2.022 . S
Co579 N596 1.993 . S
Co579 O604 1.941 . S
C580 O581 1.258 . S
C580 O582 1.263 . S
O581 Co578 1.970 . S
O581 C580 1.258 . S
O582 Co579 1.966 . S
O582 C580 1.263 . S
C583 O584 1.235 . S
C583 O610 1.289 . S
O584 C583 1.235 . S
C585 C587 1.400 . S
C585 N588 1.351 . S
C585 C590 1.501 . S
C586 C587 1.387 . S
C586 N589 1.341 . S
C587 C585 1.400 . S
C587 C586 1.387 . S
N588 Co579 2.022 . S
N588 C585 1.351 . S
N588 N589 1.365 . S
N589 C586 1.341 . S
N589 N588 1.365 . S
N589 H609 0.862 . S
C590 C585 1.501 . S
C590 H591 0.961 . S
C590 H592 0.961 . S
C590 H593 0.960 . S
H591 C590 0.961 . S
H592 C590 0.961 . S
H593 C590 0.960 . S
C594 N595 1.342 . S
C594 C598 1.401 . S
C594 C599 1.499 . S
N595 Co578 1.989 . S
N595 C594 1.342 . S
N595 N596 1.388 . S
N596 Co579 1.993 . S
N596 N595 1.388 . S
N596 C597 1.346 . S
C597 N596 1.346 . S
C597 C598 1.396 . S
C597 C607 1.510 . S
C598 C594 1.401 . S
C598 C597 1.396 . S
C599 C594 1.499 . S
C599 H600 0.959 . S
C599 H601 0.960 . S
C599 H602 0.961 . S
H600 C599 0.959 . S
H601 C599 0.960 . S
H602 C599 0.961 . S
O603 Co578 1.967 . S
O603 C611 1.258 . S
O604 Co579 1.941 . S
O604 C611 1.266 . S
H605 C607 0.959 . S
H606 C607 0.961 . S
C607 C597 1.510 . S
C607 H605 0.959 . S
C607 H606 0.961 . S
C607 H608 0.960 . S
H608 C607 0.960 . S
H609 N589 0.862 . S
O610 Co578 1.920 . S
O610 C583 1.289 . S
C611 O603 1.258 . S
C611 O604 1.266 . S
Co612 O615 1.970 . S
Co612 N629 1.989 1_565 S
Co612 O637 1.967 . S
Co612 O644 1.920 1_565 S
Co613 O616 1.966 . S
Co613 N622 2.022 . S
Co613 N630 1.993 1_565 S
Co613 O638 1.941 . S
C614 O615 1.258 . S
C614 O616 1.263 . S
O615 Co612 1.970 . S
O615 C614 1.258 . S
O616 Co613 1.966 . S
O616 C614 1.263 . S
C617 O618 1.235 . S
C617 O644 1.289 . S
O618 C617 1.235 . S
C619 C621 1.400 . S
C619 N622 1.351 . S
C619 C624 1.501 . S
C620 C621 1.387 1_545 S
C620 N623 1.341 . S
C621 C619 1.400 . S
C621 C620 1.387 1_565 S
N622 Co613 2.022 . S
N622 C619 1.351 . S
N622 N623 1.365 1_565 S
N623 C620 1.341 . S
N623 N622 1.365 1_545 S
N623 H643 0.862 . S
C624 C619 1.501 . S
C624 H625 0.961 . S
C624 H626 0.961 . S
C624 H627 0.960 . S
H625 C624 0.961 . S
H626 C624 0.961 . S
H627 C624 0.960 . S
C628 N629 1.342 . S
C628 C632 1.401 . S
C628 C633 1.499 . S
N629 Co612 1.989 1_545 S
N629 C628 1.342 . S
N629 N630 1.388 . S
N630 Co613 1.993 1_545 S
N630 N629 1.388 . S
N630 C631 1.346 . S
C631 N630 1.346 . S
C631 C632 1.396 . S
C631 C641 1.510 . S
C632 C628 1.401 . S
C632 C631 1.396 . S
C633 C628 1.499 . S
C633 H634 0.959 . S
C633 H635 0.960 . S
C633 H636 0.961 . S
H634 C633 0.959 . S
H635 C633 0.960 . S
H636 C633 0.961 . S
O637 Co612 1.967 . S
O637 C645 1.258 . S
O638 Co613 1.941 . S
O638 C645 1.266 . S
H639 C641 0.959 . S
H640 C641 0.961 . S
C641 C631 1.510 . S
C641 H639 0.959 . S
C641 H640 0.961 . S
C641 H642 0.960 . S
H642 C641 0.960 . S
H643 N623 0.862 . S
O644 Co612 1.920 1_545 S
O644 C617 1.289 . S
C645 O637 1.258 . S
C645 O638 1.266 . S
Co646 O649 1.970 . S
Co646 N663 1.989 . S
Co646 O671 1.967 . S
Co646 O678 1.920 . S
Co647 O650 1.966 . S
Co647 N656 2.022 . S
Co647 N664 1.993 . S
Co647 O672 1.941 . S
C648 O649 1.258 . S
C648 O650 1.263 . S
O649 Co646 1.970 . S
O649 C648 1.258 . S
O650 Co647 1.966 . S
O650 C648 1.263 . S
C651 O652 1.235 . S
C651 O678 1.289 . S
O652 C651 1.235 . S
C653 C655 1.400 . S
C653 N656 1.351 . S
C653 C658 1.501 . S
C654 C655 1.387 . S
C654 N657 1.341 . S
C655 C653 1.400 . S
C655 C654 1.387 . S
N656 Co647 2.022 . S
N656 C653 1.351 . S
N656 N657 1.365 . S
N657 C654 1.341 . S
N657 N656 1.365 . S
N657 H677 0.862 . S
C658 C653 1.501 . S
C658 H659 0.961 . S
C658 H660 0.961 . S
C658 H661 0.960 . S
H659 C658 0.961 . S
H660 C658 0.961 . S
H661 C658 0.960 . S
C662 N663 1.342 . S
C662 C666 1.401 . S
C662 C667 1.499 . S
N663 Co646 1.989 . S
N663 C662 1.342 . S
N663 N664 1.388 . S
N664 Co647 1.993 . S
N664 N663 1.388 . S
N664 C665 1.346 . S
C665 N664 1.346 . S
C665 C666 1.396 . S
C665 C675 1.510 . S
C666 C662 1.401 . S
C666 C665 1.396 . S
C667 C662 1.499 . S
C667 H668 0.959 . S
C667 H669 0.960 . S
C667 H670 0.961 . S
H668 C667 0.959 . S
H669 C667 0.960 . S
H670 C667 0.961 . S
O671 Co646 1.967 . S
O671 C679 1.258 . S
O672 Co647 1.941 . S
O672 C679 1.266 . S
H673 C675 0.959 . S
H674 C675 0.961 . S
C675 C665 1.510 . S
C675 H673 0.959 . S
C675 H674 0.961 . S
C675 H676 0.960 . S
H676 C675 0.960 . S
H677 N657 0.862 . S
O678 Co646 1.920 . S
O678 C651 1.289 . S
C679 O671 1.258 . S
C679 O672 1.266 . S
Co680 O683 1.970 . S
Co680 N697 1.989 1_545 S
Co680 O705 1.967 . S
Co680 O712 1.920 1_545 S
Co681 O684 1.966 . S
Co681 N690 2.022 1_554 S
Co681 N698 1.993 1_545 S
Co681 O706 1.941 . S
C682 O683 1.258 . S
C682 O684 1.263 . S
O683 Co680 1.970 . S
O683 C682 1.258 . S
O684 Co681 1.966 . S
O684 C682 1.263 . S
C685 O686 1.232 1_565 S
C685 O712 1.289 . S
O686 C685 1.232 1_545 S
C687 C689 1.400 . S
C687 N690 1.351 . S
C687 C692 1.501 . S
C688 C689 1.387 1_565 S
C688 N691 1.341 . S
C689 C687 1.400 . S
C689 C688 1.387 1_545 S
N690 Co681 2.022 1_556 S
N690 C687 1.351 . S
N690 N691 1.365 1_545 S
N691 C688 1.341 . S
N691 N690 1.365 1_565 S
N691 H711 0.862 . S
C692 C687 1.501 . S
C692 H693 0.961 . S
C692 H694 0.961 . S
C692 H695 0.960 . S
H693 C692 0.961 . S
H694 C692 0.961 . S
H695 C692 0.960 . S
C696 N697 1.342 . S
C696 C700 1.401 . S
C696 C701 1.499 . S
N697 Co680 1.989 1_565 S
N697 C696 1.342 . S
N697 N698 1.388 . S
N698 Co681 1.993 1_565 S
N698 N697 1.388 . S
N698 C699 1.346 . S
C699 N698 1.346 . S
C699 C700 1.396 . S
C699 C709 1.510 1_554 S
C700 C696 1.401 . S
C700 C699 1.396 . S
C701 C696 1.499 . S
C701 H702 0.959 . S
C701 H703 0.960 . S
C701 H704 0.961 . S
H702 C701 0.959 . S
H703 C701 0.960 . S
H704 C701 0.961 . S
O705 Co680 1.967 . S
O705 C713 1.258 . S
O706 Co681 1.941 . S
O706 C713 1.266 . S
H707 C709 0.959 . S
H708 C709 0.961 . S
C709 C699 1.510 1_556 S
C709 H707 0.959 . S
C709 H708 0.961 . S
C709 H710 0.960 . S
H710 C709 0.960 . S
H711 N691 0.862 . S
O712 Co680 1.920 1_565 S
O712 C685 1.289 . S
C713 O705 1.258 . S
C713 O706 1.266 . S
Co714 O717 1.970 . S
Co714 N731 1.989 . S
Co714 O739 1.967 . S
Co714 O746 1.920 . S
Co715 O718 1.966 . S
Co715 N724 2.022 . S
Co715 N732 1.993 . S
Co715 O740 1.941 . S
C716 O717 1.258 . S
C716 O718 1.263 . S
O717 Co714 1.970 . S
O717 C716 1.258 . S
O718 Co715 1.966 . S
O718 C716 1.263 . S
C719 O720 1.235 . S
C719 O746 1.289 . S
O720 C719 1.235 . S
C721 C723 1.400 . S
C721 N724 1.351 . S
C721 C726 1.501 . S
C722 C723 1.387 . S
C722 N725 1.341 . S
C723 C721 1.400 . S
C723 C722 1.387 . S
N724 Co715 2.022 . S
N724 C721 1.351 . S
N724 N725 1.365 . S
N725 C722 1.341 . S
N725 N724 1.365 . S
N725 H745 0.862 . S
C726 C721 1.501 . S
C726 H727 0.961 . S
C726 H728 0.961 . S
C726 H729 0.960 . S
H727 C726 0.961 . S
H728 C726 0.961 . S
H729 C726 0.960 . S
C730 N731 1.342 . S
C730 C734 1.401 . S
C730 C735 1.499 . S
N731 Co714 1.989 . S
N731 C730 1.342 . S
N731 N732 1.388 . S
N732 Co715 1.993 . S
N732 N731 1.388 . S
N732 C733 1.346 . S
C733 N732 1.346 . S
C733 C734 1.396 . S
C733 C743 1.510 . S
C734 C730 1.401 . S
C734 C733 1.396 . S
C735 C730 1.499 . S
C735 H736 0.959 . S
C735 H737 0.960 . S
C735 H738 0.961 . S
H736 C735 0.959 . S
H737 C735 0.960 . S
H738 C735 0.961 . S
O739 Co714 1.967 . S
O739 C747 1.258 . S
O740 Co715 1.941 . S
O740 C747 1.266 . S
H741 C743 0.959 . S
H742 C743 0.961 . S
C743 C733 1.510 . S
C743 H741 0.959 . S
C743 H742 0.961 . S
C743 H744 0.960 . S
H744 C743 0.960 . S
H745 N725 0.862 . S
O746 Co714 1.920 . S
O746 C719 1.289 . S
C747 O739 1.258 . S
C747 O740 1.266 . S
Co748 O751 1.970 . S
Co748 N765 1.989 . S
Co748 O773 1.967 . S
Co748 O780 1.920 . S
Co749 O752 1.966 . S
Co749 N758 2.022 . S
Co749 N766 1.993 . S
Co749 O774 1.941 . S
C750 O751 1.258 . S
C750 O752 1.263 . S
O751 Co748 1.970 . S
O751 C750 1.258 . S
O752 Co749 1.966 . S
O752 C750 1.263 . S
C753 O754 1.235 . S
C753 O780 1.289 . S
O754 C753 1.235 . S
C755 C757 1.400 . S
C755 N758 1.351 . S
C755 C760 1.501 . S
C756 C757 1.387 . S
C756 N759 1.341 . S
C757 C755 1.400 . S
C757 C756 1.387 . S
N758 Co749 2.022 . S
N758 C755 1.351 . S
N758 N759 1.365 . S
N759 C756 1.341 . S
N759 N758 1.365 . S
N759 H779 0.862 . S
C760 C755 1.501 . S
C760 H761 0.961 . S
C760 H762 0.961 . S
C760 H763 0.960 . S
H761 C760 0.961 . S
H762 C760 0.961 . S
H763 C760 0.960 . S
C764 N765 1.342 . S
C764 C768 1.401 . S
C764 C769 1.499 . S
N765 Co748 1.989 . S
N765 C764 1.342 . S
N765 N766 1.388 . S
N766 Co749 1.993 . S
N766 N765 1.388 . S
N766 C767 1.346 . S
C767 N766 1.346 . S
C767 C768 1.396 . S
C767 C777 1.510 . S
C768 C764 1.401 . S
C768 C767 1.396 . S
C769 C764 1.499 . S
C769 H770 0.959 . S
C769 H771 0.960 . S
C769 H772 0.961 . S
H770 C769 0.959 . S
H771 C769 0.960 . S
H772 C769 0.961 . S
O773 Co748 1.967 . S
O773 C781 1.258 . S
O774 Co749 1.941 . S
O774 C781 1.266 . S
H775 C777 0.959 . S
H776 C777 0.961 . S
C777 C767 1.510 . S
C777 H775 0.959 . S
C777 H776 0.961 . S
C777 H778 0.960 . S
H778 C777 0.960 . S
H779 N759 0.862 . S
O780 Co748 1.920 . S
O780 C753 1.289 . S
C781 O773 1.258 . S
C781 O774 1.266 . S
Co782 O785 1.970 . S
Co782 N799 1.989 . S
Co782 O807 1.967 . S
Co782 O814 1.920 . S
Co783 O786 1.966 . S
Co783 N792 2.022 1_556 S
Co783 N800 1.993 . S
Co783 O808 1.941 . S
C784 O785 1.258 . S
C784 O786 1.263 . S
O785 Co782 1.970 . S
O785 C784 1.258 . S
O786 Co783 1.966 . S
O786 C784 1.263 . S
C787 O788 1.235 . S
C787 O814 1.289 . S
O788 C787 1.235 . S
C789 C791 1.400 . S
C789 N792 1.351 . S
C789 C794 1.501 . S
C790 C791 1.387 . S
C790 N793 1.341 . S
C791 C789 1.400 . S
C791 C790 1.387 . S
N792 Co783 2.022 1_554 S
N792 C789 1.351 . S
N792 N793 1.365 . S
N793 C790 1.341 . S
N793 N792 1.365 . S
N793 H813 0.862 . S
C794 C789 1.501 . S
C794 H795 0.961 . S
C794 H796 0.961 . S
C794 H797 0.960 . S
H795 C794 0.961 . S
H796 C794 0.961 . S
H797 C794 0.960 . S
C798 N799 1.342 . S
C798 C802 1.401 . S
C798 C803 1.499 . S
N799 Co782 1.989 . S
N799 C798 1.342 . S
N799 N800 1.388 . S
N800 Co783 1.993 . S
N800 N799 1.388 . S
N800 C801 1.346 . S
C801 N800 1.346 . S
C801 C802 1.396 . S
C801 C811 1.510 1_556 S
C802 C798 1.401 . S
C802 C801 1.396 . S
C803 C798 1.499 . S
C803 H804 0.959 . S
C803 H805 0.960 . S
C803 H806 0.961 . S
H804 C803 0.959 . S
H805 C803 0.960 . S
H806 C803 0.961 . S
O807 Co782 1.967 . S
O807 C815 1.258 . S
O808 Co783 1.941 . S
O808 C815 1.266 . S
H809 C811 0.959 . S
H810 C811 0.961 . S
C811 C801 1.510 1_554 S
C811 H809 0.959 . S
C811 H810 0.961 . S
C811 H812 0.960 . S
H812 C811 0.960 . S
H813 N793 0.862 . S
O814 Co782 1.920 . S
O814 C787 1.289 . S
C815 O807 1.258 . S
C815 O808 1.266 . S
H816 C822 0.930 . S
H817 C825 0.930 . S
H818 C826 0.930 . S
H819 C827 0.930 . S
H820 C830 0.930 . S
H821 C831 0.930 . S
C822 H816 0.930 . S
C822 C823 1.355 . S
C822 C824 1.415 . S
C823 C822 1.355 . S
C823 C825 1.419 . S
C824 C822 1.415 . S
C824 C829 1.425 . S
C824 C831 1.409 . S
C825 H817 0.930 . S
C825 C823 1.419 . S
C825 C826 1.362 . S
C826 H818 0.930 . S
C826 C825 1.362 . S
C826 C829 1.409 . S
C827 H819 0.930 . S
C827 C828 1.355 . S
C827 C829 1.415 . S
C828 C827 1.355 . S
C828 C830 1.419 . S
C829 C824 1.425 . S
C829 C826 1.409 . S
C829 C827 1.415 . S
C830 H820 0.930 . S
C830 C828 1.419 . S
C830 C831 1.362 . S
C831 H821 0.930 . S
C831 C824 1.409 . S
C831 C830 1.362 . S
H832 C838 0.930 . S
H833 C841 0.930 . S
H834 C842 0.930 . S
H835 C843 0.930 . S
H836 C846 0.930 . S
H837 C847 0.930 . S
C838 H832 0.930 . S
C838 C839 1.355 . S
C838 C840 1.415 . S
C839 C838 1.355 . S
C839 C841 1.419 . S
C840 C838 1.415 . S
C840 C845 1.425 . S
C840 C847 1.409 . S
C841 H833 0.930 . S
C841 C839 1.419 . S
C841 C842 1.362 . S
C842 H834 0.930 . S
C842 C841 1.362 . S
C842 C845 1.409 . S
C843 H835 0.930 . S
C843 C844 1.355 . S
C843 C845 1.415 . S
C844 C843 1.355 . S
C844 C846 1.419 . S
C845 C840 1.425 . S
C845 C842 1.409 . S
C845 C843 1.415 . S
C846 H836 0.930 . S
C846 C844 1.419 . S
C846 C847 1.362 . S
C847 H837 0.930 . S
C847 C840 1.409 . S
C847 C846 1.362 . S
H848 C854 0.930 . S
H849 C857 0.930 . S
H850 C858 0.930 . S
H851 C859 0.930 . S
H852 C862 0.930 . S
H853 C863 0.930 . S
C854 H848 0.930 . S
C854 C855 1.355 . S
C854 C856 1.415 . S
C855 C854 1.355 . S
C855 C857 1.419 . S
C856 C854 1.415 . S
C856 C861 1.425 . S
C856 C863 1.409 . S
C857 H849 0.930 . S
C857 C855 1.419 . S
C857 C858 1.362 . S
C858 H850 0.930 . S
C858 C857 1.362 . S
C858 C861 1.409 . S
C859 H851 0.930 . S
C859 C860 1.355 . S
C859 C861 1.415 . S
C860 C859 1.355 . S
C860 C862 1.419 . S
C861 C856 1.425 . S
C861 C858 1.409 . S
C861 C859 1.415 . S
C862 H852 0.930 . S
C862 C860 1.419 . S
C862 C863 1.362 . S
C863 H853 0.930 . S
C863 C856 1.409 . S
C863 C862 1.362 . S
H864 C870 0.930 . S
H865 C873 0.930 . S
H866 C874 0.930 . S
H867 C875 0.930 . S
H868 C878 0.930 . S
H869 C879 0.930 . S
C870 H864 0.930 . S
C870 C871 1.355 . S
C870 C872 1.415 . S
C871 C870 1.355 . S
C871 C873 1.419 . S
C872 C870 1.415 . S
C872 C877 1.425 . S
C872 C879 1.409 . S
C873 H865 0.930 . S
C873 C871 1.419 . S
C873 C874 1.362 . S
C874 H866 0.930 . S
C874 C873 1.362 . S
C874 C877 1.409 . S
C875 H867 0.930 . S
C875 C876 1.355 . S
C875 C877 1.415 . S
C876 C875 1.355 . S
C876 C878 1.419 . S
C877 C872 1.425 . S
C877 C874 1.409 . S
C877 C875 1.415 . S
C878 H868 0.930 . S
C878 C876 1.419 . S
C878 C879 1.362 . S
C879 H869 0.930 . S
C879 C872 1.409 . S
C879 C878 1.362 . S
H880 C886 0.930 . S
H881 C889 0.930 . S
H882 C890 0.930 . S
H883 C891 0.930 . S
H884 C894 0.930 . S
H885 C895 0.930 . S
C886 H880 0.930 . S
C886 C887 1.355 . S
C886 C888 1.415 . S
C887 C886 1.355 . S
C887 C889 1.419 . S
C888 C886 1.415 . S
C888 C893 1.425 . S
C888 C895 1.409 . S
C889 H881 0.930 . S
C889 C887 1.419 . S
C889 C890 1.362 . S
C890 H882 0.930 . S
C890 C889 1.362 . S
C890 C893 1.409 . S
C891 H883 0.930 . S
C891 C892 1.355 . S
C891 C893 1.415 . S
C892 C891 1.355 . S
C892 C894 1.419 . S
C893 C888 1.425 . S
C893 C890 1.409 . S
C893 C891 1.415 . S
C894 H884 0.930 . S
C894 C892 1.419 . S
C894 C895 1.362 . S
C895 H885 0.930 . S
C895 C888 1.409 . S
C895 C894 1.362 . S
H896 C902 0.930 . S
H897 C905 0.930 . S
H898 C906 0.930 . S
H899 C907 0.930 . S
H900 C910 0.930 . S
H901 C911 0.930 . S
C902 H896 0.930 . S
C902 C903 1.355 . S
C902 C904 1.415 . S
C903 C902 1.355 . S
C903 C905 1.419 . S
C904 C902 1.415 . S
C904 C909 1.425 . S
C904 C911 1.409 . S
C905 H897 0.930 . S
C905 C903 1.419 . S
C905 C906 1.362 . S
C906 H898 0.930 . S
C906 C905 1.362 . S
C906 C909 1.409 . S
C907 H899 0.930 . S
C907 C908 1.355 . S
C907 C909 1.415 . S
C908 C907 1.355 . S
C908 C910 1.419 . S
C909 C904 1.425 . S
C909 C906 1.409 . S
C909 C907 1.415 . S
C910 H900 0.930 . S
C910 C908 1.419 . S
C910 C911 1.362 . S
C911 H901 0.930 . S
C911 C904 1.409 . S
C911 C910 1.362 . S
H912 C918 0.930 . S
H913 C921 0.930 . S
H914 C922 0.930 . S
H915 C923 0.930 . S
H916 C926 0.930 . S
H917 C927 0.930 . S
C918 H912 0.930 . S
C918 C919 1.355 . S
C918 C920 1.415 . S
C919 C918 1.355 . S
C919 C921 1.419 . S
C920 C918 1.415 . S
C920 C925 1.425 . S
C920 C927 1.409 . S
C921 H913 0.930 . S
C921 C919 1.419 . S
C921 C922 1.362 . S
C922 H914 0.930 . S
C922 C921 1.362 . S
C922 C925 1.409 . S
C923 H915 0.930 . S
C923 C924 1.355 . S
C923 C925 1.415 . S
C924 C923 1.355 . S
C924 C926 1.419 . S
C925 C920 1.425 . S
C925 C922 1.409 . S
C925 C923 1.415 . S
C926 H916 0.930 . S
C926 C924 1.419 . S
C926 C927 1.362 . S
C927 H917 0.930 . S
C927 C920 1.409 . S
C927 C926 1.362 . S
H928 C934 0.930 . S
H929 C937 0.930 . S
H930 C938 0.930 . S
H931 C939 0.930 . S
H932 C942 0.930 . S
H933 C943 0.930 . S
C934 H928 0.930 . S
C934 C935 1.355 . S
C934 C936 1.415 . S
C935 C934 1.355 . S
C935 C937 1.419 1_545 S
C936 C934 1.415 . S
C936 C941 1.425 . S
C936 C943 1.409 . S
C937 H929 0.930 . S
C937 C935 1.419 1_565 S
C937 C938 1.362 . S
C938 H930 0.930 . S
C938 C937 1.362 . S
C938 C941 1.409 1_565 S
C939 H931 0.930 . S
C939 C940 1.355 . S
C939 C941 1.415 . S
C940 C939 1.355 . S
C940 C942 1.419 . S
C941 C936 1.425 . S
C941 C938 1.409 1_545 S
C941 C939 1.415 . S
C942 H932 0.930 . S
C942 C940 1.419 . S
C942 C943 1.362 . S
C943 H933 0.930 . S
C943 C936 1.409 . S
C943 C942 1.362 . S
H944 C950 0.930 . S
H945 C953 0.930 . S
H946 C954 0.930 . S
H947 C955 0.930 . S
H948 C958 0.930 . S
H949 C959 0.930 . S
C950 H944 0.930 . S
C950 C951 1.355 . S
C950 C952 1.415 . S
C951 C950 1.355 . S
C951 C953 1.419 . S
C952 C950 1.415 . S
C952 C957 1.425 . S
C952 C959 1.409 . S
C953 H945 0.930 . S
C953 C951 1.419 . S
C953 C954 1.362 . S
C954 H946 0.930 . S
C954 C953 1.362 . S
C954 C957 1.409 . S
C955 H947 0.930 . S
C955 C956 1.355 . S
C955 C957 1.415 . S
C956 C955 1.355 . S
C956 C958 1.419 . S
C957 C952 1.425 . S
C957 C954 1.409 . S
C957 C955 1.415 . S
C958 H948 0.930 . S
C958 C956 1.419 . S
C958 C959 1.362 . S
C959 H949 0.930 . S
C959 C952 1.409 . S
C959 C958 1.362 . S
H960 C966 0.930 . S
H961 C969 0.930 . S
H962 C970 0.930 . S
H963 C971 0.930 . S
H964 C974 0.930 . S
H965 C975 0.930 . S
C966 H960 0.930 . S
C966 C967 1.355 . S
C966 C968 1.415 . S
C967 C966 1.355 . S
C967 C969 1.419 . S
C968 C966 1.415 . S
C968 C973 1.425 . S
C968 C975 1.409 . S
C969 H961 0.930 . S
C969 C967 1.419 . S
C969 C970 1.362 . S
C970 H962 0.930 . S
C970 C969 1.362 . S
C970 C973 1.409 . S
C971 H963 0.930 . S
C971 C972 1.355 . S
C971 C973 1.415 . S
C972 C971 1.355 . S
C972 C974 1.419 . S
C973 C968 1.425 . S
C973 C970 1.409 . S
C973 C971 1.415 . S
C974 H964 0.930 . S
C974 C972 1.419 . S
C974 C975 1.362 . S
C975 H965 0.930 . S
C975 C968 1.409 . S
C975 C974 1.362 . S
H976 C982 0.930 . S
H977 C985 0.930 . S
H978 C986 0.930 . S
H979 C987 0.930 . S
H980 C990 0.930 . S
H981 C991 0.930 . S
C982 H976 0.930 . S
C982 C983 1.355 . S
C982 C984 1.415 . S
C983 C982 1.355 . S
C983 C985 1.419 . S
C984 C982 1.415 . S
C984 C989 1.425 . S
C984 C991 1.409 . S
C985 H977 0.930 . S
C985 C983 1.419 . S
C985 C986 1.362 . S
C986 H978 0.930 . S
C986 C985 1.362 . S
C986 C989 1.409 . S
C987 H979 0.930 . S
C987 C988 1.355 . S
C987 C989 1.415 . S
C988 C987 1.355 . S
C988 C990 1.419 . S
C989 C984 1.425 . S
C989 C986 1.409 . S
C989 C987 1.415 . S
C990 H980 0.930 . S
C990 C988 1.419 . S
C990 C991 1.362 . S
C991 H981 0.930 . S
C991 C984 1.409 . S
C991 C990 1.362 . S
H992 C998 0.930 . S
H993 C1001 0.944 . S
H994 C1002 0.930 . S
H995 C1003 0.930 . S
H996 C1006 0.930 . S
H997 C1007 0.930 . S
C998 H992 0.930 . S
C998 C999 1.355 . S
C998 C1000 1.415 . S
C999 C998 1.355 . S
C999 C1001 1.419 . S
C1000 C998 1.415 . S
C1000 C1005 1.425 . S
C1000 C1007 1.409 . S
C1001 H993 0.944 . S
C1001 C999 1.419 . S
C1001 C1002 1.362 1_655 S
C1002 H994 0.930 . S
C1002 C1001 1.362 1_455 S
C1002 C1005 1.409 1_455 S
C1003 H995 0.930 . S
C1003 C1004 1.355 1_455 S
C1003 C1005 1.415 1_455 S
C1004 C1003 1.355 1_655 S
C1004 C1006 1.419 . S
C1005 C1000 1.425 . S
C1005 C1002 1.409 1_655 S
C1005 C1003 1.415 1_655 S
C1006 H996 0.930 . S
C1006 C1004 1.419 . S
C1006 C1007 1.362 . S
C1007 H997 0.930 . S
C1007 C1000 1.409 . S
C1007 C1006 1.362 . S
H1008 C1014 0.930 . S
H1009 C1017 0.930 . S
H1010 C1018 0.930 . S
H1011 C1019 0.930 . S
H1012 C1022 0.930 . S
H1013 C1023 0.930 . S
C1014 H1008 0.930 . S
C1014 C1015 1.355 . S
C1014 C1016 1.415 . S
C1015 C1014 1.355 . S
C1015 C1017 1.419 . S
C1016 C1014 1.415 . S
C1016 C1021 1.425 . S
C1016 C1023 1.409 . S
C1017 H1009 0.930 . S
C1017 C1015 1.419 . S
C1017 C1018 1.362 . S
C1018 H1010 0.930 . S
C1018 C1017 1.362 . S
C1018 C1021 1.409 . S
C1019 H1011 0.930 . S
C1019 C1020 1.355 . S
C1019 C1021 1.415 . S
C1020 C1019 1.355 . S
C1020 C1022 1.419 . S
C1021 C1016 1.425 . S
C1021 C1018 1.409 . S
C1021 C1019 1.415 . S
C1022 H1012 0.930 . S
C1022 C1020 1.419 . S
C1022 C1023 1.362 . S
C1023 H1013 0.930 . S
C1023 C1016 1.409 . S
C1023 C1022 1.362 . S
H1024 C1030 0.930 . S
H1025 C1033 0.930 . S
H1026 C1034 0.930 . S
H1027 C1035 0.930 . S
H1028 C1038 0.930 . S
H1029 C1039 0.930 . S
C1030 H1024 0.930 . S
C1030 C1031 1.355 . S
C1030 C1032 1.415 . S
C1031 C1030 1.355 . S
C1031 C1033 1.419 . S
C1032 C1030 1.415 . S
C1032 C1037 1.425 . S
C1032 C1039 1.409 . S
C1033 H1025 0.930 . S
C1033 C1031 1.419 . S
C1033 C1034 1.362 . S
C1034 H1026 0.930 . S
C1034 C1033 1.362 . S
C1034 C1037 1.409 . S
C1035 H1027 0.930 . S
C1035 C1036 1.355 . S
C1035 C1037 1.415 . S
C1036 C1035 1.355 . S
C1036 C1038 1.419 . S
C1037 C1032 1.425 . S
C1037 C1034 1.409 . S
C1037 C1035 1.415 . S
C1038 H1028 0.930 . S
C1038 C1036 1.419 . S
C1038 C1039 1.362 . S
C1039 H1029 0.930 . S
C1039 C1032 1.409 . S
C1039 C1038 1.362 . S
H1040 C1046 0.930 . S
H1041 C1049 0.930 . S
H1042 C1050 0.930 . S
H1043 C1051 0.930 . S
H1044 C1054 0.930 . S
H1045 C1055 0.930 . S
C1046 H1040 0.930 . S
C1046 C1047 1.355 . S
C1046 C1048 1.415 . S
C1047 C1046 1.355 . S
C1047 C1049 1.419 . S
C1048 C1046 1.415 . S
C1048 C1053 1.425 . S
C1048 C1055 1.409 . S
C1049 H1041 0.930 . S
C1049 C1047 1.419 . S
C1049 C1050 1.362 . S
C1050 H1042 0.930 . S
C1050 C1049 1.362 . S
C1050 C1053 1.409 . S
C1051 H1043 0.930 . S
C1051 C1052 1.355 . S
C1051 C1053 1.415 . S
C1052 C1051 1.355 . S
C1052 C1054 1.419 . S
C1053 C1048 1.425 . S
C1053 C1050 1.409 . S
C1053 C1051 1.415 . S
C1054 H1044 0.930 . S
C1054 C1052 1.419 . S
C1054 C1055 1.362 . S
C1055 H1045 0.930 . S
C1055 C1048 1.409 . S
C1055 C1054 1.362 . S
H1056 C1062 0.930 . S
H1057 C1065 0.930 . S
H1058 C1066 0.930 . S
H1059 C1067 0.930 . S
H1060 C1070 0.930 . S
H1061 C1071 0.930 . S
C1062 H1056 0.930 . S
C1062 C1063 1.355 . S
C1062 C1064 1.415 . S
C1063 C1062 1.355 . S
C1063 C1065 1.419 1_455 S
C1064 C1062 1.415 . S
C1064 C1069 1.425 . S
C1064 C1071 1.409 . S
C1065 H1057 0.930 . S
C1065 C1063 1.419 1_655 S
C1065 C1066 1.362 . S
C1066 H1058 0.930 . S
C1066 C1065 1.362 . S
C1066 C1069 1.409 1_655 S
C1067 H1059 0.930 . S
C1067 C1068 1.355 . S
C1067 C1069 1.415 . S
C1068 C1067 1.355 . S
C1068 C1070 1.419 . S
C1069 C1064 1.425 . S
C1069 C1066 1.409 1_455 S
C1069 C1067 1.415 . S
C1070 H1060 0.930 . S
C1070 C1068 1.419 . S
C1070 C1071 1.362 . S
C1071 H1061 0.930 . S
C1071 C1064 1.409 . S
C1071 C1070 1.362 . S
H1072 C1078 0.930 . S
H1073 C1081 0.930 . S
H1074 C1082 0.930 . S
H1075 C1083 0.930 . S
H1076 C1086 0.930 . S
H1077 C1087 0.930 . S
C1078 H1072 0.930 . S
C1078 C1079 1.355 . S
C1078 C1080 1.415 . S
C1079 C1078 1.355 . S
C1079 C1081 1.419 . S
C1080 C1078 1.415 . S
C1080 C1085 1.425 . S
C1080 C1087 1.409 . S
C1081 H1073 0.930 . S
C1081 C1079 1.419 . S
C1081 C1082 1.362 . S
C1082 H1074 0.930 . S
C1082 C1081 1.362 . S
C1082 C1085 1.409 . S
C1083 H1075 0.930 . S
C1083 C1084 1.355 . S
C1083 C1085 1.415 . S
C1084 C1083 1.355 . S
C1084 C1086 1.419 . S
C1085 C1080 1.425 . S
C1085 C1082 1.409 . S
C1085 C1083 1.415 . S
C1086 H1076 0.930 . S
C1086 C1084 1.419 . S
C1086 C1087 1.362 . S
C1087 H1077 0.930 . S
C1087 C1080 1.409 . S
C1087 C1086 1.362 . S
H1088 C1094 0.930 . S
H1089 C1097 0.930 . S
H1090 C1098 0.930 . S
H1091 C1099 0.930 . S
H1092 C1102 0.930 . S
H1093 C1103 0.930 . S
C1094 H1088 0.930 . S
C1094 C1095 1.355 . S
C1094 C1096 1.415 . S
C1095 C1094 1.355 . S
C1095 C1097 1.419 . S
C1096 C1094 1.415 . S
C1096 C1101 1.425 . S
C1096 C1103 1.409 . S
C1097 H1089 0.930 . S
C1097 C1095 1.419 . S
C1097 C1098 1.362 . S
C1098 H1090 0.930 . S
C1098 C1097 1.362 . S
C1098 C1101 1.409 . S
C1099 H1091 0.930 . S
C1099 C1100 1.355 . S
C1099 C1101 1.415 . S
C1100 C1099 1.355 . S
C1100 C1102 1.419 . S
C1101 C1096 1.425 . S
C1101 C1098 1.409 . S
C1101 C1099 1.415 . S
C1102 H1092 0.930 . S
C1102 C1100 1.419 . S
C1102 C1103 1.362 . S
C1103 H1093 0.930 . S
C1103 C1096 1.409 . S
C1103 C1102 1.362 . S
H1104 C1110 0.930 . S
H1105 C1113 0.930 . S
H1106 C1114 0.930 . S
H1107 C1115 0.930 . S
H1108 C1118 0.930 . S
H1109 C1119 0.930 . S
C1110 H1104 0.930 . S
C1110 C1111 1.355 . S
C1110 C1112 1.415 . S
C1111 C1110 1.355 . S
C1111 C1113 1.419 . S
C1112 C1110 1.415 . S
C1112 C1117 1.425 . S
C1112 C1119 1.409 . S
C1113 H1105 0.930 . S
C1113 C1111 1.419 . S
C1113 C1114 1.362 . S
C1114 H1106 0.930 . S
C1114 C1113 1.362 . S
C1114 C1117 1.409 . S
C1115 H1107 0.930 . S
C1115 C1116 1.355 . S
C1115 C1117 1.415 . S
C1116 C1115 1.355 . S
C1116 C1118 1.419 . S
C1117 C1112 1.425 . S
C1117 C1114 1.409 . S
C1117 C1115 1.415 . S
C1118 H1108 0.930 . S
C1118 C1116 1.419 . S
C1118 C1119 1.362 . S
C1119 H1109 0.930 . S
C1119 C1112 1.409 . S
C1119 C1118 1.362 . S
H1120 C1126 0.930 . S
H1121 C1129 0.930 . S
H1122 C1130 0.930 . S
H1123 C1131 0.930 . S
H1124 C1134 0.930 . S
H1125 C1135 0.930 . S
C1126 H1120 0.930 . S
C1126 C1127 1.355 . S
C1126 C1128 1.415 . S
C1127 C1126 1.355 . S
C1127 C1129 1.419 . S
C1128 C1126 1.415 . S
C1128 C1133 1.425 . S
C1128 C1135 1.409 . S
C1129 H1121 0.930 . S
C1129 C1127 1.419 . S
C1129 C1130 1.362 . S
C1130 H1122 0.930 . S
C1130 C1129 1.362 . S
C1130 C1133 1.409 . S
C1131 H1123 0.930 . S
C1131 C1132 1.355 . S
C1131 C1133 1.415 . S
C1132 C1131 1.355 . S
C1132 C1134 1.419 . S
C1133 C1128 1.425 . S
C1133 C1130 1.409 . S
C1133 C1131 1.415 . S
C1134 H1124 0.930 . S
C1134 C1132 1.419 . S
C1134 C1135 1.362 . S
C1135 H1125 0.930 . S
C1135 C1128 1.409 . S
C1135 C1134 1.362 . S
H1136 C1142 0.930 . S
H1137 C1145 0.930 . S
H1138 C1146 0.930 . S
H1139 C1147 0.930 . S
H1140 C1150 0.930 . S
H1141 C1151 0.930 . S
C1142 H1136 0.930 . S
C1142 C1143 1.355 . S
C1142 C1144 1.415 . S
C1143 C1142 1.355 . S
C1143 C1145 1.419 1_554 S
C1144 C1142 1.415 . S
C1144 C1149 1.425 . S
C1144 C1151 1.409 . S
C1145 H1137 0.930 . S
C1145 C1143 1.419 1_556 S
C1145 C1146 1.362 . S
C1146 H1138 0.930 . S
C1146 C1145 1.362 . S
C1146 C1149 1.409 1_556 S
C1147 H1139 0.930 . S
C1147 C1148 1.355 . S
C1147 C1149 1.415 . S
C1148 C1147 1.355 . S
C1148 C1150 1.419 . S
C1149 C1144 1.425 . S
C1149 C1146 1.409 1_554 S
C1149 C1147 1.415 . S
C1150 H1140 0.930 . S
C1150 C1148 1.419 . S
C1150 C1151 1.362 . S
C1151 H1141 0.930 . S
C1151 C1144 1.409 . S
C1151 C1150 1.362 . S
H1152 C1158 0.930 . S
H1153 C1161 0.930 . S
H1154 C1162 0.930 . S
H1155 C1163 0.930 . S
H1156 C1166 0.930 . S
H1157 C1167 0.930 . S
C1158 H1152 0.930 . S
C1158 C1159 1.355 . S
C1158 C1160 1.415 . S
C1159 C1158 1.355 . S
C1159 C1161 1.419 . S
C1160 C1158 1.415 . S
C1160 C1165 1.425 . S
C1160 C1167 1.409 . S
C1161 H1153 0.930 . S
C1161 C1159 1.419 . S
C1161 C1162 1.362 . S
C1162 H1154 0.930 . S
C1162 C1161 1.362 . S
C1162 C1165 1.409 . S
C1163 H1155 0.930 . S
C1163 C1164 1.355 . S
C1163 C1165 1.415 . S
C1164 C1163 1.355 . S
C1164 C1166 1.419 . S
C1165 C1160 1.425 . S
C1165 C1162 1.409 . S
C1165 C1163 1.415 . S
C1166 H1156 0.930 . S
C1166 C1164 1.419 . S
C1166 C1167 1.362 . S
C1167 H1157 0.930 . S
C1167 C1160 1.409 . S
C1167 C1166 1.362 . S
H1168 C1174 0.930 . S
H1169 C1177 0.930 . S
H1170 C1178 0.930 . S
H1171 C1179 0.930 . S
H1172 C1182 0.930 . S
H1173 C1183 0.930 . S
C1174 H1168 0.930 . S
C1174 C1175 1.355 . S
C1174 C1176 1.415 . S
C1175 C1174 1.355 . S
C1175 C1177 1.419 . S
C1176 C1174 1.415 . S
C1176 C1181 1.425 . S
C1176 C1183 1.409 . S
C1177 H1169 0.930 . S
C1177 C1175 1.419 . S
C1177 C1178 1.362 . S
C1178 H1170 0.930 . S
C1178 C1177 1.362 . S
C1178 C1181 1.409 . S
C1179 H1171 0.930 . S
C1179 C1180 1.355 . S
C1179 C1181 1.415 . S
C1180 C1179 1.355 . S
C1180 C1182 1.419 . S
C1181 C1176 1.425 . S
C1181 C1178 1.409 . S
C1181 C1179 1.415 . S
C1182 H1172 0.930 . S
C1182 C1180 1.419 . S
C1182 C1183 1.362 . S
C1183 H1173 0.930 . S
C1183 C1176 1.409 . S
C1183 C1182 1.362 . S
H1184 C1190 0.930 . S
H1185 C1193 0.930 . S
H1186 C1194 0.930 . S
H1187 C1195 0.930 . S
H1188 C1198 0.930 . S
H1189 C1199 0.930 . S
C1190 H1184 0.930 . S
C1190 C1191 1.355 . S
C1190 C1192 1.415 . S
C1191 C1190 1.355 . S
C1191 C1193 1.419 . S
C1192 C1190 1.415 . S
C1192 C1197 1.425 . S
C1192 C1199 1.409 . S
C1193 H1185 0.930 . S
C1193 C1191 1.419 . S
C1193 C1194 1.362 . S
C1194 H1186 0.930 . S
C1194 C1193 1.362 . S
C1194 C1197 1.409 . S
C1195 H1187 0.930 . S
C1195 C1196 1.355 . S
C1195 C1197 1.415 . S
C1196 C1195 1.355 . S
C1196 C1198 1.419 . S
C1197 C1192 1.425 . S
C1197 C1194 1.409 . S
C1197 C1195 1.415 . S
C1198 H1188 0.930 . S
C1198 C1196 1.419 . S
C1198 C1199 1.362 . S
C1199 H1189 0.930 . S
C1199 C1192 1.409 . S
C1199 C1198 1.362 . S
H1200 C1206 0.930 . S
H1201 C1209 0.930 . S
H1202 C1210 0.930 . S
H1203 C1211 0.930 . S
H1204 C1214 0.930 . S
H1205 C1215 0.930 . S
C1206 H1200 0.930 . S
C1206 C1207 1.355 . S
C1206 C1208 1.415 . S
C1207 C1206 1.355 . S
C1207 C1209 1.419 . S
C1208 C1206 1.415 . S
C1208 C1213 1.425 . S
C1208 C1215 1.409 . S
C1209 H1201 0.930 . S
C1209 C1207 1.419 . S
C1209 C1210 1.362 . S
C1210 H1202 0.930 . S
C1210 C1209 1.362 . S
C1210 C1213 1.409 . S
C1211 H1203 0.930 . S
C1211 C1212 1.355 . S
C1211 C1213 1.415 . S
C1212 C1211 1.355 . S
C1212 C1214 1.419 . S
C1213 C1208 1.425 . S
C1213 C1210 1.409 . S
C1213 C1211 1.415 . S
C1214 H1204 0.930 . S
C1214 C1212 1.419 . S
C1214 C1215 1.362 . S
C1215 H1205 0.930 . S
C1215 C1208 1.409 . S
C1215 C1214 1.362 . S
H1216 C1222 0.930 . S
H1217 C1225 0.930 . S
H1218 C1226 0.930 . S
H1219 C1227 0.930 . S
H1220 C1230 0.930 . S
H1221 C1231 0.930 . S
C1222 H1216 0.930 . S
C1222 C1223 1.355 . S
C1222 C1224 1.415 . S
C1223 C1222 1.355 . S
C1223 C1225 1.419 . S
C1224 C1222 1.415 . S
C1224 C1229 1.425 . S
C1224 C1231 1.409 . S
C1225 H1217 0.930 . S
C1225 C1223 1.419 . S
C1225 C1226 1.362 . S
C1226 H1218 0.930 . S
C1226 C1225 1.362 . S
C1226 C1229 1.409 . S
C1227 H1219 0.930 . S
C1227 C1228 1.355 . S
C1227 C1229 1.415 . S
C1228 C1227 1.355 . S
C1228 C1230 1.419 . S
C1229 C1224 1.425 . S
C1229 C1226 1.409 . S
C1229 C1227 1.415 . S
C1230 H1220 0.930 . S
C1230 C1228 1.419 . S
C1230 C1231 1.362 . S
C1231 H1221 0.930 . S
C1231 C1224 1.409 . S
C1231 C1230 1.362 . S
H1232 C1238 0.930 . S
H1233 C1241 0.930 . S
H1234 C1242 0.930 . S
H1235 C1243 0.930 . S
H1236 C1246 0.930 . S
H1237 C1247 0.930 . S
C1238 H1232 0.930 . S
C1238 C1239 1.355 . S
C1238 C1240 1.415 . S
C1239 C1238 1.355 . S
C1239 C1241 1.419 . S
C1240 C1238 1.415 . S
C1240 C1245 1.425 . S
C1240 C1247 1.409 . S
C1241 H1233 0.930 . S
C1241 C1239 1.419 . S
C1241 C1242 1.362 . S
C1242 H1234 0.930 . S
C1242 C1241 1.362 . S
C1242 C1245 1.409 . S
C1243 H1235 0.930 . S
C1243 C1244 1.355 . S
C1243 C1245 1.415 . S
C1244 C1243 1.355 . S
C1244 C1246 1.419 . S
C1245 C1240 1.425 . S
C1245 C1242 1.409 . S
C1245 C1243 1.415 . S
C1246 H1236 0.930 . S
C1246 C1244 1.419 . S
C1246 C1247 1.362 . S
C1247 H1237 0.930 . S
C1247 C1240 1.409 . S
C1247 C1246 1.362 . S
H1248 C1254 0.930 . S
H1249 C1257 0.930 . S
H1250 C1258 0.930 . S
H1251 C1259 0.930 . S
H1252 C1262 0.930 . S
H1253 C1263 0.930 . S
C1254 H1248 0.930 . S
C1254 C1255 1.355 . S
C1254 C1256 1.415 . S
C1255 C1254 1.355 . S
C1255 C1257 1.419 . S
C1256 C1254 1.415 . S
C1256 C1261 1.425 . S
C1256 C1263 1.409 . S
C1257 H1249 0.930 . S
C1257 C1255 1.419 . S
C1257 C1258 1.362 . S
C1258 H1250 0.930 . S
C1258 C1257 1.362 . S
C1258 C1261 1.409 . S
C1259 H1251 0.930 . S
C1259 C1260 1.355 . S
C1259 C1261 1.415 . S
C1260 C1259 1.355 . S
C1260 C1262 1.419 . S
C1261 C1256 1.425 . S
C1261 C1258 1.409 . S
C1261 C1259 1.415 . S
C1262 H1252 0.930 . S
C1262 C1260 1.419 . S
C1262 C1263 1.362 . S
C1263 H1253 0.930 . S
C1263 C1256 1.409 . S
C1263 C1262 1.362 . S
H1264 C1270 0.930 . S
H1265 C1273 0.930 . S
H1266 C1274 0.930 . S
H1267 C1275 0.930 . S
H1268 C1278 0.930 . S
H1269 C1279 0.930 . S
C1270 H1264 0.930 . S
C1270 C1271 1.355 . S
C1270 C1272 1.415 . S
C1271 C1270 1.355 . S
C1271 C1273 1.419 . S
C1272 C1270 1.415 . S
C1272 C1277 1.425 . S
C1272 C1279 1.409 . S
C1273 H1265 0.930 . S
C1273 C1271 1.419 . S
C1273 C1274 1.362 . S
C1274 H1266 0.930 . S
C1274 C1273 1.362 . S
C1274 C1277 1.409 . S
C1275 H1267 0.930 . S
C1275 C1276 1.355 . S
C1275 C1277 1.415 . S
C1276 C1275 1.355 . S
C1276 C1278 1.419 . S
C1277 C1272 1.425 . S
C1277 C1274 1.409 . S
C1277 C1275 1.415 . S
C1278 H1268 0.930 . S
C1278 C1276 1.419 . S
C1278 C1279 1.362 . S
C1279 H1269 0.930 . S
C1279 C1272 1.409 . S
C1279 C1278 1.362 . S
H1280 C1286 0.930 . S
H1281 C1289 0.930 . S
H1282 C1290 0.930 . S
H1283 C1291 0.930 . S
H1284 C1294 0.930 . S
H1285 C1295 0.930 . S
C1286 H1280 0.930 . S
C1286 C1287 1.355 . S
C1286 C1288 1.415 . S
C1287 C1286 1.355 . S
C1287 C1289 1.419 . S
C1288 C1286 1.415 . S
C1288 C1293 1.425 . S
C1288 C1295 1.409 . S
C1289 H1281 0.930 . S
C1289 C1287 1.419 . S
C1289 C1290 1.362 . S
C1290 H1282 0.930 . S
C1290 C1289 1.362 . S
C1290 C1293 1.409 . S
C1291 H1283 0.930 . S
C1291 C1292 1.355 . S
C1291 C1293 1.415 . S
C1292 C1291 1.355 . S
C1292 C1294 1.419 . S
C1293 C1288 1.425 . S
C1293 C1290 1.409 . S
C1293 C1291 1.415 . S
C1294 H1284 0.930 . S
C1294 C1292 1.419 . S
C1294 C1295 1.362 . S
C1295 H1285 0.930 . S
C1295 C1288 1.409 . S
C1295 C1294 1.362 . S
H1296 C1302 0.930 . S
H1297 C1305 0.930 . S
H1298 C1306 0.930 . S
H1299 C1307 0.930 . S
H1300 C1310 0.930 . S
H1301 C1311 0.930 . S
C1302 H1296 0.930 . S
C1302 C1303 1.355 . S
C1302 C1304 1.415 . S
C1303 C1302 1.355 . S
C1303 C1305 1.419 . S
C1304 C1302 1.415 . S
C1304 C1309 1.425 . S
C1304 C1311 1.409 . S
C1305 H1297 0.930 . S
C1305 C1303 1.419 . S
C1305 C1306 1.362 . S
C1306 H1298 0.930 . S
C1306 C1305 1.362 . S
C1306 C1309 1.409 . S
C1307 H1299 0.930 . S
C1307 C1308 1.355 . S
C1307 C1309 1.415 . S
C1308 C1307 1.355 . S
C1308 C1310 1.419 . S
C1309 C1304 1.425 . S
C1309 C1306 1.409 . S
C1309 C1307 1.415 . S
C1310 H1300 0.930 . S
C1310 C1308 1.419 . S
C1310 C1311 1.362 . S
C1311 H1301 0.930 . S
C1311 C1304 1.409 . S
C1311 C1310 1.362 . S
H1312 C1318 0.930 . S
H1313 C1321 0.930 . S
H1314 C1322 0.930 . S
H1315 C1323 0.930 . S
H1316 C1326 0.930 . S
H1317 C1327 0.930 . S
C1318 H1312 0.930 . S
C1318 C1319 1.355 . S
C1318 C1320 1.415 . S
C1319 C1318 1.355 . S
C1319 C1321 1.419 . S
C1320 C1318 1.415 . S
C1320 C1325 1.425 . S
C1320 C1327 1.409 . S
C1321 H1313 0.930 . S
C1321 C1319 1.419 . S
C1321 C1322 1.362 . S
C1322 H1314 0.930 . S
C1322 C1321 1.362 . S
C1322 C1325 1.409 . S
C1323 H1315 0.930 . S
C1323 C1324 1.355 . S
C1323 C1325 1.415 . S
C1324 C1323 1.355 . S
C1324 C1326 1.419 . S
C1325 C1320 1.425 . S
C1325 C1322 1.409 . S
C1325 C1323 1.415 . S
C1326 H1316 0.930 . S
C1326 C1324 1.419 . S
C1326 C1327 1.362 . S
C1327 H1317 0.930 . S
C1327 C1320 1.409 . S
C1327 C1326 1.362 . S
H1328 C1334 0.930 . S
H1329 C1337 0.930 . S
H1330 C1338 0.930 . S
H1331 C1339 0.930 . S
H1332 C1342 0.930 . S
H1333 C1343 0.930 . S
C1334 H1328 0.930 . S
C1334 C1335 1.355 . S
C1334 C1336 1.415 . S
C1335 C1334 1.355 . S
C1335 C1337 1.419 . S
C1336 C1334 1.415 . S
C1336 C1341 1.425 . S
C1336 C1343 1.409 . S
C1337 H1329 0.930 . S
C1337 C1335 1.419 . S
C1337 C1338 1.362 . S
C1338 H1330 0.930 . S
C1338 C1337 1.362 . S
C1338 C1341 1.409 . S
C1339 H1331 0.930 . S
C1339 C1340 1.355 . S
C1339 C1341 1.415 . S
C1340 C1339 1.355 . S
C1340 C1342 1.419 . S
C1341 C1336 1.425 . S
C1341 C1338 1.409 . S
C1341 C1339 1.415 . S
C1342 H1332 0.930 . S
C1342 C1340 1.419 . S
C1342 C1343 1.362 . S
C1343 H1333 0.930 . S
C1343 C1336 1.409 . S
C1343 C1342 1.362 . S
H1344 C1350 0.930 . S
H1345 C1353 0.930 . S
H1346 C1354 0.930 . S
H1347 C1355 0.930 . S
H1348 C1358 0.930 . S
H1349 C1359 0.930 . S
C1350 H1344 0.930 . S
C1350 C1351 1.355 . S
C1350 C1352 1.415 . S
C1351 C1350 1.355 . S
C1351 C1353 1.419 . S
C1352 C1350 1.415 . S
C1352 C1357 1.425 . S
C1352 C1359 1.409 . S
C1353 H1345 0.930 . S
C1353 C1351 1.419 . S
C1353 C1354 1.362 . S
C1354 H1346 0.930 . S
C1354 C1353 1.362 . S
C1354 C1357 1.409 . S
C1355 H1347 0.930 . S
C1355 C1356 1.355 . S
C1355 C1357 1.415 . S
C1356 C1355 1.355 . S
C1356 C1358 1.419 . S
C1357 C1352 1.425 . S
C1357 C1354 1.409 . S
C1357 C1355 1.415 . S
C1358 H1348 0.930 . S
C1358 C1356 1.419 . S
C1358 C1359 1.362 . S
C1359 H1349 0.930 . S
C1359 C1352 1.409 . S
C1359 C1358 1.362 . S
H1360 C1366 0.930 . S
H1361 C1369 0.930 . S
H1362 C1370 0.930 . S
H1363 C1371 0.930 . S
H1364 C1374 0.930 . S
H1365 C1375 0.930 . S
C1366 H1360 0.930 . S
C1366 C1367 1.355 . S
C1366 C1368 1.415 . S
C1367 C1366 1.355 . S
C1367 C1369 1.419 . S
C1368 C1366 1.415 . S
C1368 C1373 1.425 . S
C1368 C1375 1.409 . S
C1369 H1361 0.930 . S
C1369 C1367 1.419 . S
C1369 C1370 1.362 . S
C1370 H1362 0.930 . S
C1370 C1369 1.362 . S
C1370 C1373 1.409 . S
C1371 H1363 0.930 . S
C1371 C1372 1.355 . S
C1371 C1373 1.415 . S
C1372 C1371 1.355 . S
C1372 C1374 1.419 . S
C1373 C1368 1.425 . S
C1373 C1370 1.409 . S
C1373 C1371 1.415 . S
C1374 H1364 0.930 . S
C1374 C1372 1.419 . S
C1374 C1375 1.362 . S
C1375 H1365 0.930 . S
C1375 C1368 1.409 . S
C1375 C1374 1.362 . S
H1376 C1382 0.930 . S
H1377 C1385 0.930 . S
H1378 C1386 0.930 . S
H1379 C1387 0.930 . S
H1380 C1390 0.930 . S
H1381 C1391 0.930 . S
C1382 H1376 0.930 . S
C1382 C1383 1.355 . S
C1382 C1384 1.415 . S
C1383 C1382 1.355 . S
C1383 C1385 1.419 . S
C1384 C1382 1.415 . S
C1384 C1389 1.425 . S
C1384 C1391 1.409 . S
C1385 H1377 0.930 . S
C1385 C1383 1.419 . S
C1385 C1386 1.362 . S
C1386 H1378 0.930 . S
C1386 C1385 1.362 . S
C1386 C1389 1.409 . S
C1387 H1379 0.930 . S
C1387 C1388 1.355 . S
C1387 C1389 1.415 . S
C1388 C1387 1.355 . S
C1388 C1390 1.419 . S
C1389 C1384 1.425 . S
C1389 C1386 1.409 . S
C1389 C1387 1.415 . S
C1390 H1380 0.930 . S
C1390 C1388 1.419 . S
C1390 C1391 1.362 . S
C1391 H1381 0.930 . S
C1391 C1384 1.409 . S
C1391 C1390 1.362 . S
H1392 C1398 0.930 . S
H1393 C1401 0.930 . S
H1394 C1402 0.930 . S
H1395 C1403 0.930 . S
H1396 C1406 0.930 . S
H1397 C1407 0.930 . S
C1398 H1392 0.930 . S
C1398 C1399 1.355 . S
C1398 C1400 1.415 . S
C1399 C1398 1.355 . S
C1399 C1401 1.419 . S
C1400 C1398 1.415 . S
C1400 C1405 1.425 . S
C1400 C1407 1.409 . S
C1401 H1393 0.930 . S
C1401 C1399 1.419 . S
C1401 C1402 1.362 . S
C1402 H1394 0.930 . S
C1402 C1401 1.362 . S
C1402 C1405 1.409 . S
C1403 H1395 0.930 . S
C1403 C1404 1.355 . S
C1403 C1405 1.415 . S
C1404 C1403 1.355 . S
C1404 C1406 1.419 . S
C1405 C1400 1.425 . S
C1405 C1402 1.409 . S
C1405 C1403 1.415 . S
C1406 H1396 0.930 . S
C1406 C1404 1.419 . S
C1406 C1407 1.362 . S
C1407 H1397 0.930 . S
C1407 C1400 1.409 . S
C1407 C1406 1.362 . S
H1408 C1414 0.930 . S
H1409 C1417 0.930 . S
H1410 C1418 0.930 . S
H1411 C1419 0.930 . S
H1412 C1422 0.930 . S
H1413 C1423 0.930 . S
C1414 H1408 0.930 . S
C1414 C1415 1.355 . S
C1414 C1416 1.415 . S
C1415 C1414 1.355 . S
C1415 C1417 1.419 . S
C1416 C1414 1.415 . S
C1416 C1421 1.425 . S
C1416 C1423 1.409 . S
C1417 H1409 0.930 . S
C1417 C1415 1.419 . S
C1417 C1418 1.362 . S
C1418 H1410 0.930 . S
C1418 C1417 1.362 . S
C1418 C1421 1.409 . S
C1419 H1411 0.930 . S
C1419 C1420 1.355 . S
C1419 C1421 1.415 . S
C1420 C1419 1.355 . S
C1420 C1422 1.419 . S
C1421 C1416 1.425 . S
C1421 C1418 1.409 . S
C1421 C1419 1.415 . S
C1422 H1412 0.930 . S
C1422 C1420 1.419 . S
C1422 C1423 1.362 . S
C1423 H1413 0.930 . S
C1423 C1416 1.409 . S
C1423 C1422 1.362 . S
H1424 C1430 0.930 . S
H1425 C1433 0.943 . S
H1426 C1434 0.930 . S
H1427 C1435 0.930 . S
H1428 C1438 0.930 . S
H1429 C1439 0.930 . S
C1430 H1424 0.930 . S
C1430 C1431 1.355 . S
C1430 C1432 1.415 . S
C1431 C1430 1.355 . S
C1431 C1433 1.408 1_554 S
C1432 C1430 1.415 . S
C1432 C1437 1.425 . S
C1432 C1439 1.409 . S
C1433 H1425 0.943 . S
C1433 C1431 1.408 1_556 S
C1433 C1434 1.363 . S
C1434 H1426 0.930 . S
C1434 C1433 1.363 . S
C1434 C1437 1.409 1_556 S
C1435 H1427 0.930 . S
C1435 C1436 1.355 . S
C1435 C1437 1.415 . S
C1436 C1435 1.355 . S
C1436 C1438 1.419 . S
C1437 C1432 1.425 . S
C1437 C1434 1.409 1_554 S
C1437 C1435 1.415 . S
C1438 H1428 0.930 . S
C1438 C1436 1.419 . S
C1438 C1439 1.362 . S
C1439 H1429 0.930 . S
C1439 C1432 1.409 . S
C1439 C1438 1.362 . S
H1440 C1446 0.930 . S
H1441 C1449 0.930 . S
H1442 C1450 0.930 1_655 S
H1443 C1451 0.930 . S
H1444 C1454 0.930 . S
H1445 C1455 0.930 . S
C1446 H1440 0.930 . S
C1446 C1447 1.355 . S
C1446 C1448 1.415 . S
C1447 C1446 1.355 . S
C1447 C1449 1.419 . S
C1448 C1446 1.415 . S
C1448 C1453 1.425 . S
C1448 C1455 1.409 . S
C1449 H1441 0.930 . S
C1449 C1447 1.419 . S
C1449 C1450 1.362 . S
C1450 H1442 0.930 1_455 S
C1450 C1449 1.362 . S
C1450 C1453 1.409 . S
C1451 H1443 0.930 . S
C1451 C1452 1.355 . S
C1451 C1453 1.415 1_655 S
C1452 C1451 1.355 . S
C1452 C1454 1.419 1_655 S
C1453 C1448 1.425 . S
C1453 C1450 1.409 . S
C1453 C1451 1.415 1_455 S
C1454 H1444 0.930 . S
C1454 C1452 1.419 1_455 S
C1454 C1455 1.362 . S
C1455 H1445 0.930 . S
C1455 C1448 1.409 . S
C1455 C1454 1.362 . S
H1456 C1462 0.930 . S
H1457 C1465 0.930 . S
H1458 C1466 0.930 . S
H1459 C1467 0.930 . S
H1460 C1470 0.930 . S
H1461 C1471 0.930 . S
C1462 H1456 0.930 . S
C1462 C1463 1.355 . S
C1462 C1464 1.415 . S
C1463 C1462 1.355 . S
C1463 C1465 1.419 . S
C1464 C1462 1.415 . S
C1464 C1469 1.425 . S
C1464 C1471 1.409 . S
C1465 H1457 0.930 . S
C1465 C1463 1.419 . S
C1465 C1466 1.362 . S
C1466 H1458 0.930 . S
C1466 C1465 1.362 . S
C1466 C1469 1.409 . S
C1467 H1459 0.930 . S
C1467 C1468 1.355 . S
C1467 C1469 1.415 . S
C1468 C1467 1.355 . S
C1468 C1470 1.419 . S
C1469 C1464 1.425 . S
C1469 C1466 1.409 . S
C1469 C1467 1.415 . S
C1470 H1460 0.930 . S
C1470 C1468 1.419 . S
C1470 C1471 1.362 . S
C1471 H1461 0.930 . S
C1471 C1464 1.409 . S
C1471 C1470 1.362 . S
H1472 C1478 0.930 . S
H1473 C1481 0.930 . S
H1474 C1482 0.930 . S
H1475 C1483 0.930 . S
H1476 C1486 0.930 . S
H1477 C1487 0.930 . S
C1478 H1472 0.930 . S
C1478 C1479 1.355 . S
C1478 C1480 1.415 . S
C1479 C1478 1.355 . S
C1479 C1481 1.419 . S
C1480 C1478 1.415 . S
C1480 C1485 1.425 . S
C1480 C1487 1.409 . S
C1481 H1473 0.930 . S
C1481 C1479 1.419 . S
C1481 C1482 1.362 . S
C1482 H1474 0.930 . S
C1482 C1481 1.362 . S
C1482 C1485 1.409 . S
C1483 H1475 0.930 . S
C1483 C1484 1.355 . S
C1483 C1485 1.415 . S
C1484 C1483 1.355 . S
C1484 C1486 1.419 . S
C1485 C1480 1.425 . S
C1485 C1482 1.409 . S
C1485 C1483 1.415 . S
C1486 H1476 0.930 . S
C1486 C1484 1.419 . S
C1486 C1487 1.362 . S
C1487 H1477 0.930 . S
C1487 C1480 1.409 . S
C1487 C1486 1.362 . S
H1488 C1494 0.930 . S
H1489 C1497 0.930 . S
H1490 C1498 0.930 . S
H1491 C1499 0.930 1_554 S
H1492 C1502 0.930 . S
H1493 C1503 0.930 . S
C1494 H1488 0.930 . S
C1494 C1495 1.355 . S
C1494 C1496 1.415 . S
C1495 C1494 1.355 . S
C1495 C1497 1.419 1_556 S
C1496 C1494 1.415 . S
C1496 C1501 1.425 . S
C1496 C1503 1.409 . S
C1497 H1489 0.930 . S
C1497 C1495 1.419 1_554 S
C1497 C1498 1.362 . S
C1498 H1490 0.930 . S
C1498 C1497 1.362 . S
C1498 C1501 1.409 1_554 S
C1499 H1491 0.930 1_556 S
C1499 C1500 1.355 . S
C1499 C1501 1.415 . S
C1500 C1499 1.355 . S
C1500 C1502 1.419 . S
C1501 C1496 1.425 . S
C1501 C1498 1.409 1_556 S
C1501 C1499 1.415 . S
C1502 H1492 0.930 . S
C1502 C1500 1.419 . S
C1502 C1503 1.362 . S
C1503 H1493 0.930 . S
C1503 C1496 1.409 . S
C1503 C1502 1.362 . S
H1504 C1510 0.930 . S
H1505 C1513 0.930 . S
H1506 C1514 0.918 1_455 S
H1507 C1515 0.930 . S
H1508 C1518 0.930 . S
H1509 C1519 0.930 . S
C1510 H1504 0.930 . S
C1510 C1511 1.355 1_655 S
C1510 C1512 1.415 . S
C1511 C1510 1.355 1_455 S
C1511 C1513 1.419 . S
C1512 C1510 1.415 . S
C1512 C1517 1.425 . S
C1512 C1519 1.409 . S
C1513 H1505 0.930 . S
C1513 C1511 1.419 . S
C1513 C1514 1.347 1_455 S
C1514 H1506 0.918 1_655 S
C1514 C1513 1.347 1_655 S
C1514 C1517 1.438 . S
C1515 H1507 0.930 . S
C1515 C1516 1.355 . S
C1515 C1517 1.415 . S
C1516 C1515 1.355 . S
C1516 C1518 1.419 . S
C1517 C1512 1.425 . S
C1517 C1514 1.438 . S
C1517 C1515 1.415 . S
C1518 H1508 0.930 . S
C1518 C1516 1.419 . S
C1518 C1519 1.362 . S
C1519 H1509 0.930 . S
C1519 C1512 1.409 . S
C1519 C1518 1.362 . S
H1520 C1526 0.930 . S
H1521 C1529 0.930 . S
H1522 C1530 0.930 . S
H1523 C1531 0.930 . S
H1524 C1534 0.930 . S
H1525 C1535 0.930 . S
C1526 H1520 0.930 . S
C1526 C1527 1.355 . S
C1526 C1528 1.415 . S
C1527 C1526 1.355 . S
C1527 C1529 1.419 . S
C1528 C1526 1.415 . S
C1528 C1533 1.425 . S
C1528 C1535 1.409 . S
C1529 H1521 0.930 . S
C1529 C1527 1.419 . S
C1529 C1530 1.362 . S
C1530 H1522 0.930 . S
C1530 C1529 1.362 . S
C1530 C1533 1.409 . S
C1531 H1523 0.930 . S
C1531 C1532 1.355 . S
C1531 C1533 1.415 . S
C1532 C1531 1.355 . S
C1532 C1534 1.419 . S
C1533 C1528 1.425 . S
C1533 C1530 1.409 . S
C1533 C1531 1.415 . S
C1534 H1524 0.930 . S
C1534 C1532 1.419 . S
C1534 C1535 1.362 . S
C1535 H1525 0.930 . S
C1535 C1528 1.409 . S
C1535 C1534 1.362 . S
H1536 C1542 0.930 . S
H1537 C1545 0.930 . S
H1538 C1546 0.924 1_556 S
H1539 C1547 0.930 . S
H1540 C1550 0.930 . S
H1541 C1551 0.930 . S
C1542 H1536 0.930 . S
C1542 C1543 1.355 1_554 S
C1542 C1544 1.415 . S
C1543 C1542 1.355 1_556 S
C1543 C1545 1.419 . S
C1544 C1542 1.415 . S
C1544 C1549 1.425 . S
C1544 C1551 1.409 . S
C1545 H1537 0.930 . S
C1545 C1543 1.419 . S
C1545 C1546 1.362 1_556 S
C1546 H1538 0.924 1_554 S
C1546 C1545 1.362 1_554 S
C1546 C1549 1.409 . S
C1547 H1539 0.930 . S
C1547 C1548 1.355 . S
C1547 C1549 1.415 . S
C1548 C1547 1.355 . S
C1548 C1550 1.419 . S
C1549 C1544 1.425 . S
C1549 C1546 1.409 . S
C1549 C1547 1.415 . S
C1550 H1540 0.930 . S
C1550 C1548 1.419 . S
C1550 C1551 1.362 . S
C1551 H1541 0.930 . S
C1551 C1544 1.409 . S
C1551 C1550 1.362 . S
H1552 C1558 0.930 1_455 S
H1553 C1561 0.930 . S
H1554 C1562 0.930 . S
H1555 C1563 0.930 . S
H1556 C1566 0.930 . S
H1557 C1567 0.910 1_455 S
C1558 H1552 0.930 1_655 S
C1558 C1559 1.355 . S
C1558 C1560 1.415 . S
C1559 C1558 1.355 . S
C1559 C1561 1.419 . S
C1560 C1558 1.415 . S
C1560 C1565 1.425 . S
C1560 C1567 1.422 . S
C1561 H1553 0.930 . S
C1561 C1559 1.419 . S
C1561 C1562 1.362 . S
C1562 H1554 0.930 . S
C1562 C1561 1.362 . S
C1562 C1565 1.409 . S
C1563 H1555 0.930 . S
C1563 C1564 1.355 . S
C1563 C1565 1.415 . S
C1564 C1563 1.355 . S
C1564 C1566 1.419 . S
C1565 C1560 1.425 . S
C1565 C1562 1.409 . S
C1565 C1563 1.415 . S
C1566 H1556 0.930 . S
C1566 C1564 1.419 . S
C1566 C1567 1.371 . S
C1567 H1557 0.910 1_655 S
C1567 C1560 1.422 . S
C1567 C1566 1.371 . S
H1568 C1574 0.930 . S
H1569 C1577 0.930 . S
H1570 C1578 0.930 . S
H1571 C1579 0.930 . S
H1572 C1582 0.930 . S
H1573 C1583 0.930 . S
C1574 H1568 0.930 . S
C1574 C1575 1.355 . S
C1574 C1576 1.415 . S
C1575 C1574 1.355 . S
C1575 C1577 1.419 . S
C1576 C1574 1.415 . S
C1576 C1581 1.425 . S
C1576 C1583 1.409 . S
C1577 H1569 0.930 . S
C1577 C1575 1.419 . S
C1577 C1578 1.362 . S
C1578 H1570 0.930 . S
C1578 C1577 1.362 . S
C1578 C1581 1.409 . S
C1579 H1571 0.930 . S
C1579 C1580 1.355 . S
C1579 C1581 1.415 . S
C1580 C1579 1.355 . S
C1580 C1582 1.419 . S
C1581 C1576 1.425 . S
C1581 C1578 1.409 . S
C1581 C1579 1.415 . S
C1582 H1572 0.930 . S
C1582 C1580 1.419 . S
C1582 C1583 1.362 . S
C1583 H1573 0.930 . S
C1583 C1576 1.409 . S
C1583 C1582 1.362 . S
H1584 C1590 0.930 . S
H1585 C1593 0.930 . S
H1586 C1594 0.930 . S
H1587 C1595 0.930 . S
H1588 C1598 0.930 . S
H1589 C1599 0.930 . S
C1590 H1584 0.930 . S
C1590 C1591 1.355 . S
C1590 C1592 1.415 . S
C1591 C1590 1.355 . S
C1591 C1593 1.419 1_455 S
C1592 C1590 1.415 . S
C1592 C1597 1.425 1_455 S
C1592 C1599 1.409 . S
C1593 H1585 0.930 . S
C1593 C1591 1.419 1_655 S
C1593 C1594 1.362 . S
C1594 H1586 0.930 . S
C1594 C1593 1.362 . S
C1594 C1597 1.409 . S
C1595 H1587 0.930 . S
C1595 C1596 1.355 1_655 S
C1595 C1597 1.415 . S
C1596 C1595 1.355 1_455 S
C1596 C1598 1.419 . S
C1597 C1592 1.425 1_655 S
C1597 C1594 1.409 . S
C1597 C1595 1.415 . S
C1598 H1588 0.930 . S
C1598 C1596 1.419 . S
C1598 C1599 1.362 . S
C1599 H1589 0.930 . S
C1599 C1592 1.409 . S
C1599 C1598 1.362 . S
H1600 C1606 0.930 . S
H1601 C1609 0.930 . S
H1602 C1610 0.930 . S
H1603 C1611 0.930 . S
H1604 C1614 0.930 . S
H1605 C1615 0.930 . S
C1606 H1600 0.930 . S
C1606 C1607 1.355 . S
C1606 C1608 1.415 . S
C1607 C1606 1.355 . S
C1607 C1609 1.419 . S
C1608 C1606 1.415 . S
C1608 C1613 1.425 . S
C1608 C1615 1.409 . S
C1609 H1601 0.930 . S
C1609 C1607 1.419 . S
C1609 C1610 1.362 . S
C1610 H1602 0.930 . S
C1610 C1609 1.362 . S
C1610 C1613 1.409 . S
C1611 H1603 0.930 . S
C1611 C1612 1.355 . S
C1611 C1613 1.415 . S
C1612 C1611 1.355 . S
C1612 C1614 1.419 . S
C1613 C1608 1.425 . S
C1613 C1610 1.409 . S
C1613 C1611 1.415 . S
C1614 H1604 0.930 . S
C1614 C1612 1.419 . S
C1614 C1615 1.362 . S
C1615 H1605 0.930 . S
C1615 C1608 1.409 . S
C1615 C1614 1.362 . S
H1616 C1622 0.930 . S
H1617 C1625 0.930 . S
H1618 C1626 0.930 . S
H1619 C1627 0.930 . S
H1620 C1630 0.930 . S
H1621 C1631 0.930 . S
C1622 H1616 0.930 . S
C1622 C1623 1.355 . S
C1622 C1624 1.415 . S
C1623 C1622 1.355 . S
C1623 C1625 1.419 . S
C1624 C1622 1.415 . S
C1624 C1629 1.425 . S
C1624 C1631 1.409 . S
C1625 H1617 0.930 . S
C1625 C1623 1.419 . S
C1625 C1626 1.362 . S
C1626 H1618 0.930 . S
C1626 C1625 1.362 . S
C1626 C1629 1.409 . S
C1627 H1619 0.930 . S
C1627 C1628 1.355 . S
C1627 C1629 1.415 . S
C1628 C1627 1.355 . S
C1628 C1630 1.419 . S
C1629 C1624 1.425 . S
C1629 C1626 1.409 . S
C1629 C1627 1.415 . S
C1630 H1620 0.930 . S
C1630 C1628 1.419 . S
C1630 C1631 1.362 . S
C1631 H1621 0.930 . S
C1631 C1624 1.409 . S
C1631 C1630 1.362 . S
H1632 C1638 0.930 . S
H1633 C1641 0.930 . S
H1634 C1642 0.930 . S
H1635 C1643 0.930 . S
H1636 C1646 0.930 . S
H1637 C1647 0.930 . S
C1638 H1632 0.930 . S
C1638 C1639 1.355 1_556 S
C1638 C1640 1.415 . S
C1639 C1638 1.355 1_554 S
C1639 C1641 1.419 . S
C1640 C1638 1.415 . S
C1640 C1645 1.425 . S
C1640 C1647 1.409 . S
C1641 H1633 0.930 . S
C1641 C1639 1.419 . S
C1641 C1642 1.362 . S
C1642 H1634 0.930 . S
C1642 C1641 1.362 . S
C1642 C1645 1.409 1_554 S
C1643 H1635 0.930 . S
C1643 C1644 1.355 . S
C1643 C1645 1.415 . S
C1644 C1643 1.355 . S
C1644 C1646 1.419 . S
C1645 C1640 1.425 . S
C1645 C1642 1.409 1_556 S
C1645 C1643 1.415 . S
C1646 H1636 0.930 . S
C1646 C1644 1.419 . S
C1646 C1647 1.362 . S
C1647 H1637 0.930 . S
C1647 C1640 1.409 . S
C1647 C1646 1.362 . S
H1648 C1654 0.930 . S
H1649 C1657 0.930 . S
H1650 C1658 0.930 . S
H1651 C1659 0.930 . S
H1652 C1662 0.930 . S
H1653 C1663 0.930 . S
C1654 H1648 0.930 . S
C1654 C1655 1.355 . S
C1654 C1656 1.415 . S
C1655 C1654 1.355 . S
C1655 C1657 1.419 . S
C1656 C1654 1.415 . S
C1656 C1661 1.425 . S
C1656 C1663 1.409 . S
C1657 H1649 0.930 . S
C1657 C1655 1.419 . S
C1657 C1658 1.362 . S
C1658 H1650 0.930 . S
C1658 C1657 1.362 . S
C1658 C1661 1.409 . S
C1659 H1651 0.930 . S
C1659 C1660 1.355 . S
C1659 C1661 1.415 . S
C1660 C1659 1.355 . S
C1660 C1662 1.419 . S
C1661 C1656 1.425 . S
C1661 C1658 1.409 . S
C1661 C1659 1.415 . S
C1662 H1652 0.930 . S
C1662 C1660 1.419 . S
C1662 C1663 1.362 . S
C1663 H1653 0.930 . S
C1663 C1656 1.409 . S
C1663 C1662 1.362 . S
H1664 C1670 0.930 . S
H1665 C1673 0.928 1_545 S
H1666 C1674 0.930 . S
H1667 C1675 0.930 . S
H1668 C1678 0.930 . S
H1669 C1679 0.930 . S
C1670 H1664 0.930 . S
C1670 C1671 1.355 . S
C1670 C1672 1.415 . S
C1671 C1670 1.355 . S
C1671 C1673 1.419 . S
C1672 C1670 1.415 . S
C1672 C1677 1.425 . S
C1672 C1679 1.409 . S
C1673 H1665 0.928 1_565 S
C1673 C1671 1.419 . S
C1673 C1674 1.362 . S
C1674 H1666 0.930 . S
C1674 C1673 1.362 . S
C1674 C1677 1.409 . S
C1675 H1667 0.930 . S
C1675 C1676 1.355 . S
C1675 C1677 1.415 . S
C1676 C1675 1.355 . S
C1676 C1678 1.419 . S
C1677 C1672 1.425 . S
C1677 C1674 1.409 . S
C1677 C1675 1.415 . S
C1678 H1668 0.930 . S
C1678 C1676 1.419 . S
C1678 C1679 1.362 . S
C1679 H1669 0.930 . S
C1679 C1672 1.409 . S
C1679 C1678 1.362 . S
H1680 C1686 0.930 . S
H1681 C1689 0.930 . S
H1682 C1690 0.930 . S
H1683 C1691 0.930 . S
H1684 C1694 0.930 . S
H1685 C1695 0.930 . S
C1686 H1680 0.930 . S
C1686 C1687 1.355 . S
C1686 C1688 1.415 . S
C1687 C1686 1.355 . S
C1687 C1689 1.419 . S
C1688 C1686 1.415 . S
C1688 C1693 1.425 . S
C1688 C1695 1.409 . S
C1689 H1681 0.930 . S
C1689 C1687 1.419 . S
C1689 C1690 1.362 1_545 S
C1690 H1682 0.930 . S
C1690 C1689 1.362 1_565 S
C1690 C1693 1.409 1_565 S
C1691 H1683 0.930 . S
C1691 C1692 1.371 . S
C1691 C1693 1.415 1_565 S
C1692 C1691 1.371 . S
C1692 C1694 1.376 1_565 S
C1693 C1688 1.425 . S
C1693 C1690 1.409 1_545 S
C1693 C1691 1.415 1_545 S
C1694 H1684 0.930 . S
C1694 C1692 1.376 1_545 S
C1694 C1695 1.362 . S
C1695 H1685 0.930 . S
C1695 C1688 1.409 . S
C1695 C1694 1.362 . S
H1696 C1702 0.930 . S
H1697 C1705 0.930 . S
H1698 C1706 0.930 . S
H1699 C1707 0.930 1_565 S
H1700 C1710 0.930 . S
H1701 C1711 0.930 . S
C1702 H1696 0.930 . S
C1702 C1703 1.355 . S
C1702 C1704 1.415 . S
C1703 C1702 1.355 . S
C1703 C1705 1.419 1_545 S
C1704 C1702 1.415 . S
C1704 C1709 1.425 . S
C1704 C1711 1.409 . S
C1705 H1697 0.930 . S
C1705 C1703 1.419 1_565 S
C1705 C1706 1.362 . S
C1706 H1698 0.930 . S
C1706 C1705 1.362 . S
C1706 C1709 1.409 1_565 S
C1707 H1699 0.930 1_545 S
C1707 C1708 1.355 . S
C1707 C1709 1.415 . S
C1708 C1707 1.355 . S
C1708 C1710 1.419 . S
C1709 C1704 1.425 . S
C1709 C1706 1.409 1_545 S
C1709 C1707 1.415 . S
C1710 H1700 0.930 . S
C1710 C1708 1.419 . S
C1710 C1711 1.362 . S
C1711 H1701 0.930 . S
C1711 C1704 1.409 . S
C1711 C1710 1.362 . S
H1712 C1718 0.930 . S
H1713 C1721 0.930 1_545 S
H1714 C1722 0.930 . S
H1715 C1723 0.930 . S
H1716 C1726 0.930 . S
H1717 C1727 0.930 . S
C1718 H1712 0.930 . S
C1718 C1719 1.355 1_565 S
C1718 C1720 1.415 . S
C1719 C1718 1.355 1_545 S
C1719 C1721 1.419 1_545 S
C1720 C1718 1.415 . S
C1720 C1725 1.425 . S
C1720 C1727 1.409 . S
C1721 H1713 0.930 1_565 S
C1721 C1719 1.419 1_565 S
C1721 C1722 1.362 . S
C1722 H1714 0.930 . S
C1722 C1721 1.362 . S
C1722 C1725 1.409 . S
C1723 H1715 0.930 . S
C1723 C1724 1.355 . S
C1723 C1725 1.415 . S
C1724 C1723 1.355 . S
C1724 C1726 1.419 . S
C1725 C1720 1.425 . S
C1725 C1722 1.409 . S
C1725 C1723 1.415 . S
C1726 H1716 0.930 . S
C1726 C1724 1.419 . S
C1726 C1727 1.362 . S
C1727 H1717 0.930 . S
C1727 C1720 1.409 . S
C1727 C1726 1.362 . S
H1728 C1734 0.930 . S
H1729 C1737 0.930 . S
H1730 C1738 0.930 . S
H1731 C1739 0.930 . S
H1732 C1742 0.930 . S
H1733 C1743 0.930 . S
C1734 H1728 0.930 . S
C1734 C1735 1.355 . S
C1734 C1736 1.415 . S
C1735 C1734 1.355 . S
C1735 C1737 1.419 . S
C1736 C1734 1.415 . S
C1736 C1741 1.425 . S
C1736 C1743 1.409 . S
C1737 H1729 0.930 . S
C1737 C1735 1.419 . S
C1737 C1738 1.362 . S
C1738 H1730 0.930 . S
C1738 C1737 1.362 . S
C1738 C1741 1.409 . S
C1739 H1731 0.930 . S
C1739 C1740 1.355 . S
C1739 C1741 1.415 . S
C1740 C1739 1.355 . S
C1740 C1742 1.419 . S
C1741 C1736 1.425 . S
C1741 C1738 1.409 . S
C1741 C1739 1.415 . S
C1742 H1732 0.930 . S
C1742 C1740 1.419 . S
C1742 C1743 1.362 . S
C1743 H1733 0.930 . S
C1743 C1736 1.409 . S
C1743 C1742 1.362 . S
H1744 C1750 0.930 . S
H1745 C1753 0.930 . S
H1746 C1754 0.930 . S
H1747 C1755 0.930 . S
H1748 C1758 0.930 . S
H1749 C1759 0.930 . S
C1750 H1744 0.930 . S
C1750 C1751 1.355 . S
C1750 C1752 1.415 . S
C1751 C1750 1.355 . S
C1751 C1753 1.419 . S
C1752 C1750 1.415 . S
C1752 C1757 1.425 . S
C1752 C1759 1.409 . S
C1753 H1745 0.930 . S
C1753 C1751 1.419 . S
C1753 C1754 1.362 . S
C1754 H1746 0.930 . S
C1754 C1753 1.362 . S
C1754 C1757 1.409 . S
C1755 H1747 0.930 . S
C1755 C1756 1.355 . S
C1755 C1757 1.415 . S
C1756 C1755 1.355 . S
C1756 C1758 1.419 . S
C1757 C1752 1.425 . S
C1757 C1754 1.409 . S
C1757 C1755 1.415 . S
C1758 H1748 0.930 . S
C1758 C1756 1.419 . S
C1758 C1759 1.362 . S
C1759 H1749 0.930 . S
C1759 C1752 1.409 . S
C1759 C1758 1.362 . S
H1760 C1766 0.930 . S
H1761 C1769 0.930 . S
H1762 C1770 0.930 . S
H1763 C1771 0.930 . S
H1764 C1774 0.930 . S
H1765 C1775 0.930 . S
C1766 H1760 0.930 . S
C1766 C1767 1.355 . S
C1766 C1768 1.415 . S
C1767 C1766 1.355 . S
C1767 C1769 1.419 . S
C1768 C1766 1.415 . S
C1768 C1773 1.425 . S
C1768 C1775 1.409 . S
C1769 H1761 0.930 . S
C1769 C1767 1.419 . S
C1769 C1770 1.362 . S
C1770 H1762 0.930 . S
C1770 C1769 1.362 . S
C1770 C1773 1.409 . S
C1771 H1763 0.930 . S
C1771 C1772 1.355 . S
C1771 C1773 1.415 . S
C1772 C1771 1.355 . S
C1772 C1774 1.419 . S
C1773 C1768 1.425 . S
C1773 C1770 1.409 . S
C1773 C1771 1.415 . S
C1774 H1764 0.930 . S
C1774 C1772 1.419 . S
C1774 C1775 1.362 . S
C1775 H1765 0.930 . S
C1775 C1768 1.409 . S
C1775 C1774 1.362 . S
C823 C719 0.887 . S
C828 C20 0.907 . S
C839 C753 0.752 . S
C844 C54 0.807 . S
C855 C88 0.894 . S
C860 C549 0.858 . S
C871 C787 0.733 . S
C876 C122 0.833 . S
C887 C156 0.828 . S
C892 C651 0.764 . S
C903 C685 0.726 . S
C908 C190 0.844 . S
C919 C583 0.841 . S
C924 C224 0.832 . S
C935 C617 0.601 . S
C940 C258 0.716 . S
C951 C292 0.886 . S
C956 C141 0.925 . S
C967 C326 0.832 . S
C972 C175 0.741 . S
C983 C360 0.805 . S
C988 C209 0.821 . S
C999 C394 0.846 . S
C1004 C243 0.717 . S
C1015 C5 0.904 . S
C1020 C428 0.910 . S
C1031 C462 0.777 . S
C1036 C39 0.806 . S
C1047 C496 0.792 . S
C1052 C73 0.838 . S
C1063 C107 0.602 . S
C1068 C530 0.716 . S
C1079 C481 0.863 . S
C1084 C564 0.886 . S
C1095 C598 0.838 . S
C1100 C345 0.769 . S
C1111 C632 0.820 . S
C1116 C379 0.761 . S
C1127 C666 0.891 . S
C1132 C277 0.863 . S
C1143 C311 0.750 . S
C1148 C700 0.633 . S
C1159 C413 0.761 . S
C1164 C734 0.834 . S
C1175 C768 0.759 . S
C1180 C447 0.841 . S
C1191 C802 0.771 . S
C1196 C515 0.869 . S
C1207 C240 2.239 . S
C1212 C2 1.930 . S
C1223 C36 2.008 . S
C1228 C138 1.748 . S
C1239 C172 2.177 . S
C1244 C70 1.904 . S
C1255 C206 1.992 . S
C1260 C104 2.211 . S
C1271 C682 2.201 . S
C1276 C274 1.999 . S
C1287 C308 2.210 . S
C1292 C580 2.023 . S
C1303 C342 1.952 . S
C1308 C614 2.223 . S
C1319 C376 2.176 . S
C1324 C648 1.902 . S
C1335 C410 1.968 . S
C1340 C784 2.163 . S
C1351 C716 1.752 . S
C1356 C444 1.998 . S
C1367 C478 1.837 . S
C1372 C750 1.962 . S
C1383 C512 2.201 . S
C1388 C546 2.003 . S
C1399 C9 1.356 . S
C1404 C475 1.854 . S
C1415 C43 1.747 . S
C1420 C509 1.923 . S
C1431 C543 1.611 . S
C1436 C77 1.295 . S
C1447 C441 1.805 . S
C1452 C111 1.631 . S
C1463 C145 1.193 . S
C1468 C407 1.604 . S
C1479 C179 1.746 . S
C1484 C305 1.929 . S
C1495 C339 1.721 . S
C1500 C213 1.260 . S
C1511 C247 1.684 . S
C1516 C373 1.833 . S
C1527 C281 1.491 . S
C1532 C67 1.846 . S
C1543 C315 1.655 . S
C1548 C101 1.802 . S
C1559 C135 1.714 . S
C1564 C349 1.294 . S
C1575 C383 1.648 . S
C1580 C33 1.903 . S
C1591 C417 1.244 . S
C1596 C271 1.615 . S
C1607 C451 1.692 . S
C1612 C169 1.902 . S
C1623 C485 1.330 . S
C1628 C203 1.592 . S
C1639 C519 1.717 . S
C1644 C237 1.849 . S
C1655 C553 1.465 . S
C1660 C781 1.849 . S
C1671 C645 1.719 . S
C1676 C587 1.262 . S
C1687 C679 1.794 . S
C1692 C621 1.597 . S
C1703 C713 1.612 . S
C1708 C655 1.283 . S
C1719 C689 1.657 . S
C1724 C611 1.828 . S
C1735 C815 1.590 . S
C1740 C723 1.329 . S
C1751 C747 1.907 . S
C1756 C757 1.715 . S
C1767 C791 1.659 . S
C1772 C577 1.917 . S
