# Generated by pormake.
# Topology wji, (4)-cn, num edge types: 1
# Building blocks:
#     Node 0, Type 0, BuildingBlock: KUFVIS_clean_sbu_0, # of connection points: 4
#     Node 1, Type 0, BuildingBlock: KUFVIS_clean_sbu_0, # of connection points: 4
#     Node 2, Type 0, BuildingBlock: KUFVIS_clean_sbu_0, # of connection points: 4
#     Node 3, Type 0, BuildingBlock: KUFVIS_clean_sbu_0, # of connection points: 4
#     Node 4, Type 0, BuildingBlock: KUFVIS_clean_sbu_0, # of connection points: 4
#     Node 5, Type 0, BuildingBlock: KUFVIS_clean_sbu_0, # of connection points: 4
#     Node 6, Type 0, BuildingBlock: KUFVIS_clean_sbu_0, # of connection points: 4
#     Node 7, Type 0, BuildingBlock: KUFVIS_clean_sbu_0, # of connection points: 4
#     Node 8, Type 0, BuildingBlock: KUFVIS_clean_sbu_0, # of connection points: 4
#     Node 9, Type 0, BuildingBlock: KUFVIS_clean_sbu_0, # of connection points: 4
#     Node 10, Type 0, BuildingBlock: KUFVIS_clean_sbu_0, # of connection points: 4
#     Node 11, Type 0, BuildingBlock: KUFVIS_clean_sbu_0, # of connection points: 4
#     Edge 12, Type (0, 0), BuildingBlock: KIFKEQ_clean_linker_1, # of connection points: 2
#     Edge 13, Type (0, 0), BuildingBlock: KIFKEQ_clean_linker_1, # of connection points: 2
#     Edge 14, Type (0, 0), BuildingBlock: KIFKEQ_clean_linker_1, # of connection points: 2
#     Edge 15, Type (0, 0), BuildingBlock: KIFKEQ_clean_linker_1, # of connection points: 2
#     Edge 16, Type (0, 0), BuildingBlock: KIFKEQ_clean_linker_1, # of connection points: 2
#     Edge 17, Type (0, 0), BuildingBlock: KIFKEQ_clean_linker_1, # of connection points: 2
#     Edge 18, Type (0, 0), BuildingBlock: KIFKEQ_clean_linker_1, # of connection points: 2
#     Edge 19, Type (0, 0), BuildingBlock: KIFKEQ_clean_linker_1, # of connection points: 2
#     Edge 20, Type (0, 0), BuildingBlock: KIFKEQ_clean_linker_1, # of connection points: 2
#     Edge 21, Type (0, 0), BuildingBlock: KIFKEQ_clean_linker_1, # of connection points: 2
#     Edge 22, Type (0, 0), BuildingBlock: KIFKEQ_clean_linker_1, # of connection points: 2
#     Edge 23, Type (0, 0), BuildingBlock: KIFKEQ_clean_linker_1, # of connection points: 2
#     Edge 24, Type (0, 0), BuildingBlock: KIFKEQ_clean_linker_1, # of connection points: 2
#     Edge 25, Type (0, 0), BuildingBlock: KIFKEQ_clean_linker_1, # of connection points: 2
#     Edge 26, Type (0, 0), BuildingBlock: KIFKEQ_clean_linker_1, # of connection points: 2
#     Edge 27, Type (0, 0), BuildingBlock: KIFKEQ_clean_linker_1, # of connection points: 2
#     Edge 28, Type (0, 0), BuildingBlock: KIFKEQ_clean_linker_1, # of connection points: 2
#     Edge 29, Type (0, 0), BuildingBlock: KIFKEQ_clean_linker_1, # of connection points: 2
#     Edge 30, Type (0, 0), BuildingBlock: KIFKEQ_clean_linker_1, # of connection points: 2
#     Edge 31, Type (0, 0), BuildingBlock: KIFKEQ_clean_linker_1, # of connection points: 2
#     Edge 32, Type (0, 0), BuildingBlock: KIFKEQ_clean_linker_1, # of connection points: 2
#     Edge 33, Type (0, 0), BuildingBlock: KIFKEQ_clean_linker_1, # of connection points: 2
#     Edge 34, Type (0, 0), BuildingBlock: KIFKEQ_clean_linker_1, # of connection points: 2
#     Edge 35, Type (0, 0), BuildingBlock: KIFKEQ_clean_linker_1, # of connection points: 2
# Relax obj value: 0.184
# Max RMSD: 0.113
# Mean RMSD: 0.113
data_MOF--net-wji--node1-KUFVIS_clean_sbu_0--edge1-KIFKEQ_clean_linker_1
_symmetry_space_group_name_H-M    P1
_symmetry_Int_Tables_number       1
_symmetry_cell_setting            triclinic
loop_
_symmetry_equiv_pos_as_xyz
'x, y, z'
_cell_length_a     57.572525
_cell_length_b     57.557275
_cell_length_c     23.556664
_cell_angle_alpha  89.99936
_cell_angle_beta   89.988973
_cell_angle_gamma 120.0351
loop_
_atom_site_label
_atom_site_type_symbol
_atom_site_fract_x
_atom_site_fract_y
_atom_site_fract_z
_atom_type_partial_charge
Mn0 Mn 0.42679 0.32909 0.43435 0.0
Mn1 Mn 0.43739 0.39239 0.42924 0.0
C2 C 0.40129 0.34145 0.48875 0.0
C3 C 0.43418 0.29621 0.47586 0.0
C4 C 0.4068 0.35126 0.33855 0.0
O5 O 0.46499 0.35011 0.40402 0.0
O6 O 0.46848 0.39085 0.39657 0.0
C7 C 0.48398 0.4196 0.50686 0.0
N8 N 0.45837 0.41274 0.49281 0.0
C9 C 0.45752 0.44214 0.56438 0.0
C10 C 0.48399 0.44974 0.57906 0.0
C11 C 0.49716 0.43817 0.55063 0.0
C12 C 0.44535 0.42338 0.5207 0.0
H13 H 0.49449 0.41134 0.48434 0.0
C14 C 0.47805 0.37506 0.39167 0.0
O15 O 0.42543 0.29373 0.4241 0.0
O16 O 0.4395 0.31804 0.50233 0.0
N17 N 0.40941 0.39708 0.46112 0.0
C18 C 0.38359 0.38681 0.44342 0.0
C19 C 0.36699 0.39484 0.47038 0.0
C20 C 0.37731 0.41382 0.5144 0.0
C21 C 0.40402 0.42427 0.53161 0.0
C22 C 0.41936 0.41496 0.50416 0.0
H23 H 0.37571 0.37246 0.40936 0.0
O24 O 0.39171 0.31657 0.47386 0.0
O25 O 0.42501 0.35844 0.46969 0.0
O26 O 0.41074 0.33272 0.35781 0.0
O27 O 0.41537 0.37385 0.36281 0.0
C28 C 0.41607 0.44365 0.5747 0.0
C29 C 0.44285 0.45272 0.59074 0.0
H30 H 0.49448 0.4645 0.61191 0.0
H31 H 0.51758 0.44391 0.56174 0.0
H32 H 0.34638 0.38662 0.45689 0.0
H33 H 0.36455 0.4202 0.53472 0.0
H34 H 0.40491 0.45169 0.5959 0.0
H35 H 0.45195 0.46787 0.62335 0.0
Mn36 Mn 0.10249 0.42458 0.60918 0.0
Mn37 Mn 0.051 0.437 0.6067 0.0
C38 C 0.0643 0.39878 0.66312 0.0
C39 C 0.14281 0.43178 0.65036 0.0
C40 C 0.06347 0.4104 0.5096 0.0
O41 O 0.12 0.46326 0.57949 0.0
O42 O 0.08465 0.47012 0.58639 0.0
C43 C 0.06468 0.4769 0.69837 0.0
N44 N 0.04764 0.45232 0.67588 0.0
C45 C 0.01378 0.44424 0.74541 0.0
C46 C 0.03083 0.46962 0.76879 0.0
C47 C 0.05651 0.48588 0.74561 0.0
C48 C 0.02299 0.43641 0.69826 0.0
H49 H 0.08418 0.48973 0.6798 0.0
C50 C 0.1094 0.47819 0.57627 0.0
O51 O 0.13625 0.42287 0.59875 0.0
O52 O 0.12644 0.43723 0.67699 0.0
N53 N 0.01759 0.40619 0.62691 0.0
C54 C 1.00398 0.38199 0.60021 0.0
C55 C 0.97868 0.3626 0.62066 0.0
C56 C 0.96749 0.36845 0.6677 0.0
C57 C 0.98187 0.39353 0.69429 0.0
C58 C 1.00722 0.41184 0.67275 0.0
H59 H 0.01237 0.37751 0.56367 0.0
O60 O 0.07964 0.38926 0.64827 0.0
O61 O 0.0714 0.42264 0.64456 0.0
O62 O 0.08273 0.40884 0.53273 0.0
O63 O 0.05154 0.42132 0.53348 0.0
C64 C 0.97204 0.40111 0.74125 0.0
C65 C 0.98792 0.4265 0.76656 0.0
H66 H 0.02441 0.4769 0.8044 0.0
H67 H 0.06978 0.50547 0.76354 0.0
H68 H 0.96774 0.34327 0.59993 0.0
H69 H 0.94787 0.35353 0.68307 0.0
H70 H 0.95235 0.38752 0.75846 0.0
H71 H 0.98003 0.43205 0.80243 0.0
Mn72 Mn 0.6852 0.1002 0.77107 0.0
Mn73 Mn 0.62173 0.04782 0.765 0.0
C74 C 0.67267 0.06192 0.82481 0.0
C75 C 0.71759 0.1406 0.81335 0.0
C76 C 0.66222 0.06136 0.67059 0.0
O77 O 0.66384 0.11725 0.74027 0.0
O78 O 0.62188 0.08119 0.74378 0.0
C79 C 0.59386 0.06073 0.85437 0.0
N80 N 0.60202 0.04401 0.83289 0.0
C81 C 0.57587 0.00995 0.90179 0.0
C82 C 0.56691 0.02667 0.92414 0.0
C83 C 0.57619 0.05228 0.90077 0.0
C84 C 0.59342 0.01943 0.85548 0.0
H85 H 0.60044 0.08018 0.83567 0.0
C86 C 0.63833 0.10617 0.73507 0.0
O87 O 0.72049 0.13425 0.76194 0.0
O88 O 0.69559 0.12395 0.8392 0.0
N89 N 0.61947 0.01466 0.7861 0.0
C90 C 0.63077 1.00145 0.76064 0.0
C91 C 0.62506 0.97628 0.7815 0.0
C92 C 0.60748 0.9648 0.82766 0.0
C93 C 0.59606 0.97878 0.853 0.0
C94 C 0.60293 1.00402 0.83112 0.0
H95 H 0.64408 0.01006 0.72479 0.0
O96 O 0.69766 0.07757 0.81115 0.0
O97 O 0.65589 0.06869 0.80497 0.0
O98 O 0.6824 0.081 0.69459 0.0
O99 O 0.63906 0.04875 0.69296 0.0
C100 C 0.57811 0.96866 0.89905 0.0
C101 C 0.5679 0.98417 0.9232 0.0
H102 H 0.55285 0.02005 0.95913 0.0
H103 H 0.5694 0.06531 0.91791 0.0
H104 H 0.634 0.96564 0.76176 0.0
H105 H 0.60294 0.94528 0.84336 0.0
H106 H 0.57214 0.94904 0.91648 0.0
H107 H 0.55408 0.97606 0.9584 0.0
Mn108 Mn 0.589 0.68177 0.93664 0.0
Mn109 Mn 0.57851 0.61848 0.93284 0.0
C110 C 0.61409 0.6695 0.99267 0.0
C111 C 0.58116 0.71463 0.97698 0.0
C112 C 0.60969 0.65956 0.84229 0.0
O113 O 0.55109 0.66072 0.90466 0.0
O114 O 0.54753 0.61989 0.89925 0.0
C115 C 0.5316 0.59135 0.00975 0.0
N116 N 0.55725 0.59817 0.99619 0.0
C117 C 0.55782 0.56883 0.06825 0.0
C118 C 0.53131 0.56129 0.08251 0.0
C119 C 0.51827 0.57285 0.05356 0.0
C120 C 0.57015 0.58754 0.02457 0.0
H121 H 0.5212 0.59961 0.98683 0.0
C122 C 0.53804 0.63569 0.89302 0.0
O123 O 0.59072 0.71724 0.92591 0.0
O124 O 0.57533 0.69264 0.00338 0.0
N125 N 0.60638 0.6139 0.96568 0.0
C126 C 0.63232 0.62429 0.94871 0.0
C127 C 0.64881 0.61629 0.97623 0.0
C128 C 0.63828 0.59724 0.0201 0.0
C129 C 0.61147 0.58672 0.03664 0.0
C130 C 0.59622 0.59599 0.00863 0.0
H131 H 0.64037 0.63873 0.91485 0.0
O132 O 0.62369 0.69437 0.97772 0.0
O133 O 0.59054 0.65244 0.97295 0.0
O134 O 0.60582 0.67821 0.86114 0.0
O135 O 0.6008 0.63695 0.86663 0.0
C136 C 0.59922 0.56731 0.07964 0.0
C137 C 0.57237 0.55824 0.0951 0.0
H138 H 0.52073 0.54662 0.11548 0.0
H139 H 0.49782 0.56716 0.06434 0.0
H140 H 0.66951 0.6246 0.96331 0.0
H141 H 0.65096 0.5909 0.04088 0.0
H142 H 0.61029 0.55929 0.10124 0.0
H143 H 0.56312 0.54309 0.12764 0.0
Mn144 Mn 0.91303 0.58651 0.10789 0.0
Mn145 Mn 0.96525 0.5752 0.10282 0.0
C146 C 0.95167 0.61302 0.15994 0.0
C147 C 0.87309 0.57926 0.15074 0.0
C148 C 0.95131 0.60092 0.00657 0.0
O149 O 0.89568 0.5476 0.0799 0.0
O150 O 0.93175 0.54177 0.0831 0.0
C151 C 0.95261 0.53535 0.19412 0.0
N152 N 0.96924 0.56004 0.17162 0.0
C153 C 1.00353 0.56864 0.24037 0.0
C154 C 0.98692 0.54314 0.2637 0.0
C155 C 0.96123 0.52656 0.24094 0.0
C156 C 0.9939 0.57626 0.19361 0.0
H157 H 0.9331 0.52227 0.17587 0.0
C158 C 0.90672 0.53313 0.07511 0.0
O159 O 0.87878 0.58734 0.09845 0.0
O160 O 0.89002 0.57455 0.17718 0.0
N161 N 0.99852 0.60631 0.1225 0.0
C162 C 0.0117 0.63053 0.09579 0.0
C163 C 0.03693 0.65022 0.1159 0.0
C164 C 0.04851 0.64464 0.16263 0.0
C165 C 0.03457 0.61952 0.18925 0.0
C166 C 0.00926 0.60091 0.16806 0.0
H167 H 1.003 0.63482 0.05952 0.0
O168 O 0.93603 0.62224 0.14541 0.0
O169 O 0.9447 0.58916 0.14168 0.0
O170 O 0.93173 0.6017 0.03025 0.0
O171 O 0.96408 0.59078 0.02992 0.0
C172 C 0.04479 0.61218 0.23589 0.0
C173 C 0.02937 0.58671 0.26118 0.0
H174 H 0.99368 0.536 0.29896 0.0
H175 H 0.94829 0.50688 0.25885 0.0
H176 H 0.04754 0.66957 0.09517 0.0
H177 H 0.06808 0.65979 0.17774 0.0
H178 H 0.06446 0.62603 0.25285 0.0
H179 H 0.03757 0.58135 0.29678 0.0
Mn180 Mn 0.33129 0.91124 0.27158 0.0
Mn181 Mn 0.39539 0.96242 0.26961 0.0
C182 C 0.34391 0.94934 0.32599 0.0
C183 C 0.29803 0.87092 0.31262 0.0
C184 C 0.35649 0.95049 0.17244 0.0
O185 O 0.35221 0.89357 0.24153 0.0
O186 O 0.39457 0.92869 0.24885 0.0
C187 C 0.42115 0.94814 0.36113 0.0
N188 N 0.41391 0.96543 0.33883 0.0
C189 C 0.4398 0.99899 0.40876 0.0
C190 C 0.44784 0.98169 0.43199 0.0
C191 C 0.43821 0.95604 0.40851 0.0
C192 C 0.42282 0.99004 0.36152 0.0
H193 H 0.41433 0.92867 0.34234 0.0
C194 C 0.37772 0.904 0.2384 0.0
O195 O 0.29566 0.87759 0.26113 0.0
O196 O 0.31993 0.88718 0.33916 0.0
N197 N 0.39828 0.9959 0.29025 0.0
C198 C 0.38793 0.00975 0.26372 0.0
C199 C 0.39406 0.03507 0.28446 0.0
C200 C 0.41108 0.04603 0.3316 0.0
C201 C 0.42153 0.0314 0.35802 0.0
C202 C 0.41427 0.00605 0.33621 0.0
H203 H 0.37508 1.00154 0.22709 0.0
O204 O 0.31904 0.93417 0.31104 0.0
O205 O 0.36055 0.94214 0.30724 0.0
O206 O 0.33553 0.93125 0.19534 0.0
O207 O 0.37932 0.96222 0.19643 0.0
C208 C 0.43893 0.04099 0.40503 0.0
C209 C 0.44818 0.02487 0.43016 0.0
H210 H 0.46146 0.98789 0.4677 0.0
H211 H 0.44429 0.94257 0.42632 0.0
H212 H 0.38587 0.04621 0.26386 0.0
H213 H 0.41596 0.06567 0.34719 0.0
H214 H 0.44521 0.06069 0.42243 0.0
H215 H 0.46161 0.03259 0.46606 0.0
Mn216 Mn 0.68458 0.58679 0.39496 0.0
Mn217 Mn 0.62124 0.57604 0.39817 0.0
C218 C 0.67235 0.61199 0.33921 0.0
C219 C 0.71771 0.57944 0.35473 0.0
C220 C 0.66195 0.60714 0.48919 0.0
O221 O 0.66355 0.54869 0.42581 0.0
O222 O 0.62281 0.54522 0.43235 0.0
C223 C 0.59462 0.52901 0.32142 0.0
N224 N 0.60117 0.55461 0.3348 0.0
C225 C 0.57179 0.55479 0.26238 0.0
C226 C 0.56454 0.52834 0.24829 0.0
C227 C 0.57625 0.51551 0.2775 0.0
C228 C 0.59041 0.56731 0.30613 0.0
H229 H 0.60299 0.51877 0.34453 0.0
C230 C 0.63859 0.53569 0.43803 0.0
O231 O 0.71996 0.58834 0.40631 0.0
O232 O 0.69596 0.57392 0.32775 0.0
N233 N 0.61647 0.60371 0.36485 0.0
C234 C 0.62664 0.62966 0.38156 0.0
C235 C 0.61847 0.64595 0.35375 0.0
C236 C 0.59945 0.63521 0.30986 0.0
C237 C 0.58916 0.60839 0.29358 0.0
C238 C 0.59862 0.59336 0.32184 0.0
H239 H 0.64106 0.63788 0.41542 0.0
O240 O 0.69716 0.62172 0.35473 0.0
O241 O 0.65533 0.58832 0.35847 0.0
O242 O 0.68054 0.60303 0.4709 0.0
O243 O 0.63952 0.59852 0.46426 0.0
C244 C 0.5698 0.59593 0.2506 0.0
C245 C 0.561 0.56911 0.23533 0.0
H246 H 0.54998 0.51764 0.21521 0.0
H247 H 0.57079 0.49511 0.26686 0.0
H248 H 0.62661 0.66666 0.36646 0.0
H249 H 0.59296 0.64773 0.28887 0.0
H250 H 0.56162 0.60682 0.22883 0.0
H251 H 0.54589 0.55969 0.20279 0.0
Mn252 Mn 0.10337 0.68504 0.56502 0.0
Mn253 Mn 0.05129 0.62141 0.57174 0.0
C254 C 0.06504 0.67209 0.51122 0.0
C255 C 0.14358 0.71754 0.52234 0.0
C256 C 0.06441 0.66211 0.66543 0.0
O257 O 0.12071 0.66405 0.59629 0.0
O258 O 0.08477 0.62199 0.5939 0.0
C259 C 0.06491 0.59365 0.48343 0.0
N260 N 0.04791 0.60158 0.50431 0.0
C261 C 0.01417 0.57495 0.43527 0.0
C262 C 0.03118 0.56623 0.41352 0.0
C263 C 0.05677 0.57586 0.43727 0.0
C264 C 0.02336 0.59266 0.48132 0.0
H265 H 0.08434 0.6005 0.50242 0.0
C266 C 0.10973 0.63859 0.60237 0.0
O267 O 0.13725 0.72051 0.57371 0.0
O268 O 0.12705 0.6954 0.4968 0.0
N269 N 0.01805 0.61871 0.54985 0.0
C270 C 1.00453 0.62983 0.5747 0.0
C271 C 0.97932 0.62375 0.55342 0.0
C272 C 0.96812 0.60598 0.50748 0.0
C273 C 0.98241 0.59475 0.48277 0.0
C274 C 1.00767 0.60199 0.50503 0.0
H275 H 0.01293 0.64327 0.6104 0.0
O276 O 0.08051 0.69714 0.52467 0.0
O277 O 0.07199 0.65549 0.53138 0.0
O278 O 0.08415 0.68225 0.64152 0.0
O279 O 0.05181 0.63891 0.64325 0.0
C280 C 0.97257 0.5766 0.43703 0.0
C281 C 0.98836 0.5666 0.41352 0.0
H282 H 0.02482 0.55209 0.37872 0.0
H283 H 0.07002 0.56925 0.42059 0.0
H284 H 0.96845 0.63254 0.57269 0.0
H285 H 0.94856 0.60114 0.49147 0.0
H286 H 0.95293 0.57032 0.41935 0.0
H287 H 0.98045 0.5526 0.3786 0.0
Mn288 Mn 0.42539 0.1016 0.72896 0.0
Mn289 Mn 0.43491 0.04829 0.73836 0.0
C290 C 0.3989 0.06289 0.67704 0.0
C291 C 0.43371 0.14161 0.68461 0.0
C292 C 0.40835 0.06323 0.83084 0.0
O293 O 0.46391 0.11837 0.75865 0.0
O294 O 0.4683 0.08142 0.76049 0.0
C295 C 0.4765 0.06055 0.65118 0.0
N296 N 0.45132 0.04413 0.67164 0.0
C297 C 0.44361 0.00985 0.60352 0.0
C298 C 0.4696 0.02625 0.58229 0.0
C299 C 0.48599 0.05182 0.60576 0.0
C300 C 0.43528 0.0196 0.64889 0.0
H301 H 0.48941 0.07997 0.66998 0.0
C302 C 0.4776 0.10669 0.76666 0.0
O303 O 0.42517 0.13622 0.73665 0.0
O304 O 0.43829 0.12433 0.65926 0.0
N305 N 0.40393 0.01533 0.71648 0.0
C306 C 0.37915 1.0024 0.74088 0.0
C307 C 0.35965 0.97732 0.71971 0.0
C308 C 0.36597 0.96562 0.67434 0.0
C309 C 0.39165 0.9793 0.6501 0.0
C310 C 0.41006 1.00448 0.67221 0.0
H311 H 0.37429 0.01119 0.77611 0.0
O312 O 0.38994 0.07891 0.69012 0.0
O313 O 0.42241 0.06945 0.69687 0.0
O314 O 0.40934 0.08357 0.80662 0.0
O315 O 0.41781 0.04952 0.80911 0.0
C316 C 0.39972 0.96893 0.60495 0.0
C317 C 0.42573 0.98412 0.58192 0.0
H318 H 0.47725 0.01941 0.5481 0.0
H319 H 0.50605 0.0646 0.58947 0.0
H320 H 0.33987 0.96692 0.73862 0.0
H321 H 0.35096 0.94616 0.65842 0.0
H322 H 0.38605 0.94935 0.5874 0.0
H323 H 0.43164 0.9758 0.54746 0.0
Mn324 Mn 0.33116 0.42404 0.89282 0.0
Mn325 Mn 0.39446 0.43463 0.89444 0.0
C326 C 0.34323 0.39928 0.83519 0.0
C327 C 0.29807 0.43197 0.85407 0.0
C328 C 0.35383 0.40291 0.98533 0.0
O329 O 0.35226 0.46182 0.92547 0.0
O330 O 0.39308 0.46534 0.92971 0.0
C331 C 0.42102 0.48202 0.81857 0.0
N332 N 0.4145 0.45636 0.83136 0.0
C333 C 0.44387 0.45653 0.7585 0.0
C334 C 0.45107 0.48303 0.74495 0.0
C335 C 0.43936 0.49571 0.7747 0.0
C336 C 0.42525 0.4438 0.80216 0.0
H337 H 0.41263 0.49214 0.84211 0.0
C338 C 0.37731 0.47479 0.93688 0.0
O339 O 0.29569 0.42219 0.90485 0.0
O340 O 0.31996 0.43797 0.82706 0.0
N341 N 0.39907 0.40708 0.86001 0.0
C342 C 0.38872 0.38099 0.87583 0.0
C343 C 0.39687 0.36482 0.84739 0.0
C344 C 0.41601 0.37582 0.80375 0.0
C345 C 0.42642 0.40275 0.78829 0.0
C346 C 0.41699 0.41766 0.81717 0.0
H347 H 0.37416 0.37257 0.90937 0.0
O348 O 0.31844 0.38954 0.85083 0.0
O349 O 0.36034 0.42275 0.85518 0.0
O350 O 0.33513 0.40696 0.96757 0.0
O351 O 0.37628 0.41184 0.96025 0.0
C352 C 0.44584 0.41544 0.7455 0.0
C353 C 0.45468 0.44235 0.73094 0.0
H354 H 0.46558 0.49385 0.71184 0.0
H355 H 0.44479 0.51615 0.76449 0.0
H356 H 0.38859 0.344 0.85939 0.0
H357 H 0.42246 0.36338 0.78225 0.0
H358 H 0.45402 0.40465 0.72329 0.0
H359 H 0.46982 0.45194 0.69853 0.0
Mn360 Mn 0.91191 0.32561 0.06738 0.0
Mn361 Mn 0.96471 0.38885 0.0756 0.0
C362 C 0.95018 0.33841 0.01338 0.0
C363 C 0.87149 0.29361 0.02459 0.0
C364 C 0.95106 0.34735 0.1677 0.0
O365 O 0.89504 0.34687 0.09943 0.0
O366 O 0.9315 0.38861 0.0989 0.0
C367 C 0.95146 0.41776 0.98926 0.0
N368 N 0.96825 0.40935 0.00912 0.0
C369 C 1.00208 0.43637 0.94052 0.0
C370 C 0.98529 0.44557 0.91983 0.0
C371 C 0.95975 0.43599 0.94386 0.0
C372 C 0.99274 0.41823 0.98583 0.0
H373 H 0.93208 0.41095 0.00849 0.0
C374 C 0.90641 0.3723 0.1067 0.0
O375 O 0.8778 0.29036 0.07575 0.0
O376 O 0.88819 0.31576 0.99924 0.0
N377 N 0.99772 0.39128 0.05262 0.0
C378 C 0.01102 0.37968 0.07634 0.0
C379 C 0.03613 0.38568 0.05458 0.0
C380 C 0.04747 0.40387 0.00935 0.0
C381 C 0.0334 0.4156 0.98581 0.0
C382 C 0.00822 0.40841 0.00847 0.0
H383 H 1.00251 0.36592 0.11149 0.0
O384 O 0.93445 0.31334 0.02629 0.0
O385 O 0.94354 0.35513 0.03422 0.0
O386 O 0.9309 0.3277 0.14371 0.0
O387 O 0.96412 0.37065 0.14613 0.0
C388 C 0.0434 0.43418 0.94086 0.0
C389 C 0.02782 0.44466 0.91844 0.0
H390 H 0.99179 0.46005 0.88563 0.0
H391 H 0.94667 0.44297 0.928 0.0
H392 H 0.04682 0.3765 0.07294 0.0
H393 H 0.06695 0.40865 0.99298 0.0
H394 H 0.063 0.44044 0.92292 0.0
H395 H 0.03585 0.45899 0.8841 0.0
Mn396 Mn 0.59009 0.90943 0.22888 0.0
Mn397 Mn 0.57808 0.96118 0.23456 0.0
C398 C 0.61563 0.94785 0.17535 0.0
C399 C 0.58253 0.86924 0.18634 0.0
C400 C 0.60518 0.94811 0.32946 0.0
O401 O 0.55161 0.89191 0.25959 0.0
O402 O 0.54506 0.92754 0.25548 0.0
C403 C 0.53747 0.94776 0.14459 0.0
N404 N 0.56221 0.96475 0.16641 0.0
C405 C 0.5699 0.99868 0.09739 0.0
C406 C 0.54436 0.98169 0.07466 0.0
C407 C 0.5282 0.95601 0.09794 0.0
C408 C 0.57802 0.9894 0.14393 0.0
H409 H 0.52473 0.92826 0.1632 0.0
C410 C 0.53689 0.90267 0.26453 0.0
O411 O 0.59171 0.87557 0.2378 0.0
O412 O 0.57701 0.88577 0.16061 0.0
N413 N 0.60878 0.99459 0.21383 0.0
C414 C 0.63319 0.00809 0.23966 0.0
C415 C 0.65248 0.03338 0.21899 0.0
C416 C 0.64632 0.04468 0.17261 0.0
C417 C 0.62102 0.03041 0.1469 0.0
C418 C 0.60281 1.00507 0.16863 0.0
H419 H 0.63792 0.9996 0.27567 0.0
O420 O 0.62519 0.9324 0.18906 0.0
O421 O 0.59195 0.94076 0.19493 0.0
O422 O 0.60623 0.92873 0.30549 0.0
O423 O 0.59437 0.96042 0.30682 0.0
C424 C 0.61314 0.04033 0.1006 0.0
C425 C 0.58755 0.02455 0.07608 0.0
H426 H 0.53688 0.98814 0.03946 0.0
H427 H 0.50849 0.94277 0.08052 0.0
H428 H 0.67198 0.04424 0.23903 0.0
H429 H 0.66117 0.06429 0.15706 0.0
H430 H 0.62666 0.06002 0.08326 0.0
H431 H 0.58178 0.0325 0.0407 0.0
H432 H 0.34733 0.41468 0.09471 0.0
H433 H 0.35423 0.35614 0.9932 0.0
H434 H 0.35486 0.39527 0.1807 0.0
H435 H 0.36216 0.33705 0.07825 0.0
H436 H 0.42108 0.34795 0.22959 0.0
H437 H 0.40149 0.35499 0.14344 0.0
H438 H 0.33888 0.35522 0.24399 0.0
H439 H 0.35822 0.34768 0.32938 0.0
C440 C 0.34952 0.39711 0.09097 0.0
C441 C 0.35032 0.38701 0.03726 0.0
C442 C 0.35402 0.38606 0.14009 0.0
C443 C 0.35959 0.36485 0.13623 0.0
C444 C 0.3585 0.35368 0.08268 0.0
C445 C 0.35385 0.36459 0.0339 0.0
C446 C 0.40255 0.34843 0.23279 0.0
C447 C 0.39117 0.34728 0.28608 0.0
C448 C 0.39139 0.35267 0.18359 0.0
C449 C 0.3688 0.35609 0.18695 0.0
C450 C 0.35652 0.35317 0.24 0.0
C451 C 0.36754 0.34873 0.28889 0.0
H452 H 0.05267 0.43403 0.42345 0.0
H453 H 0.04764 0.35929 0.47112 0.0
H454 H 0.02263 0.41199 0.34391 0.0
H455 H 0.0173 0.33693 0.3901 0.0
H456 H 0.98461 0.32788 0.19001 0.0
H457 H 0.01435 0.3401 0.27312 0.0
H458 H 0.97174 0.37567 0.35114 0.0
H459 H 0.94235 0.36358 0.26848 0.0
C460 C 0.04576 0.41299 0.41577 0.0
C461 C 0.05259 0.39842 0.45335 0.0
C462 C 0.02827 0.40028 0.37064 0.0
C463 C 0.01706 0.3726 0.36171 0.0
C464 C 0.02551 0.35827 0.39634 0.0
C465 C 0.04311 0.3711 0.44217 0.0
C466 C 0.98079 0.33704 0.22633 0.0
C467 C 0.96087 0.34434 0.22346 0.0
C468 C 0.99797 0.34427 0.27357 0.0
C469 C 0.99563 0.35923 0.3181 0.0
C470 C 0.9742 0.3644 0.31713 0.0
C471 C 0.95709 0.35713 0.27025 0.0
H472 H 0.65816 0.97193 0.36061 0.0
H473 H 0.57931 0.94984 0.42262 0.0
H474 H 0.67836 1.00237 0.44232 0.0
H475 H 0.59919 0.97991 0.50334 0.0
H476 H 0.63735 0.06225 0.57499 0.0
H477 H 0.62688 0.0323 0.4939 0.0
H478 H 0.67872 1.00478 0.56049 0.0
H479 H 0.68928 0.03512 0.64239 0.0
C480 C 0.64519 0.97262 0.39307 0.0
C481 C 0.61717 0.95827 0.38587 0.0
C482 C 0.65673 0.99026 0.43935 0.0
C483 C 0.64033 0.99392 0.47843 0.0
C484 C 0.61234 0.97786 0.47337 0.0
C485 C 0.60093 0.96034 0.42764 0.0
C486 C 0.64744 0.0507 0.57106 0.0
C487 C 0.66446 0.05134 0.61438 0.0
C488 C 0.64115 0.03325 0.52511 0.0
C489 C 0.65157 0.01582 0.52148 0.0
C490 C 0.67042 0.01799 0.56226 0.0
C491 C 0.67671 0.03556 0.60869 0.0
H492 H 0.66714 0.59433 0.59849 0.0
H493 H 0.66326 0.65472 0.49751 0.0
H494 H 0.65989 0.61391 0.68453 0.0
H495 H 0.65552 0.67396 0.58265 0.0
H496 H 0.59624 0.6639 0.73318 0.0
H497 H 0.61572 0.6566 0.64711 0.0
H498 H 0.67688 0.65399 0.74837 0.0
H499 H 0.65771 0.66182 0.83361 0.0
C500 C 0.66568 0.61232 0.59493 0.0
C501 C 0.66567 0.62294 0.54135 0.0
C502 C 0.66133 0.62347 0.64406 0.0
C503 C 0.65667 0.64528 0.64034 0.0
C504 C 0.6585 0.6569 0.58695 0.0
C505 C 0.66304 0.64591 0.53815 0.0
C506 C 0.61445 0.66283 0.73658 0.0
C507 C 0.62543 0.66337 0.79003 0.0
C508 C 0.62554 0.65845 0.68743 0.0
C509 C 0.64765 0.65427 0.691 0.0
C510 C 0.6596 0.65661 0.74422 0.0
C511 C 0.64865 0.6612 0.79305 0.0
H512 H 0.06869 0.64043 0.76294 0.0
H513 H 0.0347 0.68572 0.69147 0.0
H514 H 0.03869 0.62864 0.84439 0.0
H515 H 1.00434 0.67384 0.77362 0.0
H516 H 0.97115 0.65318 0.97248 0.0
H517 H 1.00152 0.67459 0.89112 0.0
H518 H 0.98682 0.59693 0.83564 0.0
H519 H 0.95682 0.57586 0.91593 0.0
C520 C 0.05564 0.64891 0.76608 0.0
C521 C 0.05438 0.66441 0.72155 0.0
C522 C 0.03816 0.64182 0.81222 0.0
C523 C 0.01882 0.6499 0.8148 0.0
C524 C 0.01905 0.66736 0.77273 0.0
C525 C 0.03662 0.67442 0.72614 0.0
C526 C 0.97354 0.64069 0.94132 0.0
C527 C 0.96143 0.61283 0.95002 0.0
C528 C 0.99115 0.65295 0.89526 0.0
C529 C 0.997 0.63747 0.85789 0.0
C530 C 0.98312 0.60944 0.86436 0.0
C531 C 0.96564 0.59731 0.90984 0.0
H532 H 0.43352 0.07102 0.9311 0.0
H533 H 0.35514 0.03131 0.85406 0.0
H534 H 0.41563 0.04166 0.01373 0.0
H535 H 0.33703 1.00159 0.93712 0.0
H536 H 0.32238 0.96786 0.13464 0.0
H537 H 0.33123 0.99855 0.05384 0.0
H538 H 0.39924 0.99047 0.00644 0.0
H539 H 0.39038 0.96011 0.0858 0.0
C540 C 0.41216 0.05689 0.93321 0.0
C541 C 0.39562 0.05379 0.88681 0.0
C542 C 0.40197 0.03978 0.98006 0.0
C543 C 0.37502 0.01902 0.98139 0.0
C544 C 0.35783 0.01744 0.9373 0.0
C545 C 0.36813 0.03462 0.8901 0.0
C546 C 0.3385 0.97186 0.10545 0.0
C547 C 0.35562 0.9615 0.11621 0.0
C548 C 0.34377 0.98966 0.05975 0.0
C549 C 0.36636 0.99744 0.02486 0.0
C550 C 0.38207 0.98536 0.03338 0.0
C551 C 0.37678 0.96768 0.07837 0.0
H552 H 0.59941 0.50463 0.51353 0.0
H553 H 0.64544 0.50083 0.37298 0.0
H554 H 0.56546 0.45763 0.49786 0.0
H555 H 0.61076 0.45416 0.35567 0.0
H556 H 0.51252 0.36845 0.45843 0.0
H557 H 0.55913 0.40313 0.47629 0.0
H558 H 0.55645 0.44795 0.33233 0.0
H559 H 0.5095 0.41401 0.31607 0.0
C560 C 0.60294 0.49333 0.48127 0.0
C561 C 0.62515 0.50629 0.44485 0.0
C562 C 0.58347 0.46651 0.47206 0.0
C563 C 0.58559 0.45245 0.42549 0.0
C564 C 0.6089 0.46457 0.39216 0.0
C565 C 0.62883 0.49118 0.40249 0.0
C566 C 0.52234 0.38495 0.4287 0.0
C567 C 0.50747 0.38849 0.38559 0.0
C568 C 0.54891 0.40488 0.43933 0.0
C569 C 0.56124 0.42806 0.40561 0.0
C570 C 0.54741 0.43004 0.35843 0.0
C571 C 0.52062 0.41057 0.3489 0.0
H572 H 0.10801 0.50952 0.49209 0.0
H573 H 0.14654 0.51214 0.65068 0.0
H574 H 0.12193 0.55697 0.50212 0.0
H575 H 0.15972 0.55951 0.66197 0.0
H576 H 0.14778 0.64209 0.53016 0.0
H577 H 0.16085 0.6078 0.51951 0.0
H578 H 0.12071 0.57139 0.67685 0.0
H579 H 0.1069 0.60501 0.6862 0.0
C580 C 0.12073 0.52069 0.5275 0.0
C581 C 0.12659 0.50739 0.57014 0.0
C582 C 0.12862 0.54782 0.53346 0.0
C583 C 0.14182 0.56187 0.58299 0.0
C584 C 0.14972 0.54917 0.62328 0.0
C585 C 0.14241 0.52217 0.61654 0.0
C586 C 0.14307 0.62762 0.56396 0.0
C587 C 0.12662 0.62629 0.60936 0.0
C588 C 0.15032 0.60788 0.55757 0.0
C589 C 0.14175 0.58695 0.59728 0.0
C590 C 0.12791 0.58749 0.64598 0.0
C591 C 0.12007 0.60677 0.65155 0.0
H592 H 0.51228 0.14477 0.69443 0.0
H593 H 0.50854 0.10245 0.84824 0.0
H594 H 0.55943 0.15728 0.68214 0.0
H595 H 0.55582 0.1158 0.83732 0.0
H596 H 0.64175 0.1436 0.8089 0.0
H597 H 0.60724 0.15623 0.82154 0.0
H598 H 0.57057 0.11708 0.66364 0.0
H599 H 0.60438 0.10361 0.65234 0.0
C600 C 0.52202 0.13958 0.72741 0.0
C601 C 0.50695 0.1229 0.77263 0.0
C602 C 0.54889 0.14653 0.72007 0.0
C603 C 0.56122 0.13751 0.75876 0.0
C604 C 0.54692 0.12334 0.80728 0.0
C605 C 0.5199 0.11576 0.81372 0.0
C606 C 0.62717 0.13902 0.77542 0.0
C607 C 0.62584 0.12295 0.72926 0.0
C608 C 0.60731 0.14602 0.78295 0.0
C609 C 0.58628 0.13762 0.74359 0.0
C610 C 0.58676 0.12414 0.69423 0.0
C611 C 0.60616 0.11652 0.68754 0.0
H612 H 0.50697 0.59669 0.81723 0.0
H613 H 0.50324 0.64222 0.95884 0.0
H614 H 0.46004 0.56258 0.83302 0.0
H615 H 0.45663 0.60738 0.97626 0.0
H616 H 0.37049 0.50999 0.87309 0.0
H617 H 0.40529 0.55668 0.85629 0.0
H618 H 0.4507 0.55245 0.99734 0.0
H619 H 0.41663 0.50543 0.01247 0.0
C620 C 0.4957 0.60009 0.84975 0.0
C621 C 0.50865 0.62222 0.88637 0.0
C622 C 0.46891 0.58052 0.85905 0.0
C623 C 0.45488 0.58245 0.90591 0.0
C624 C 0.46701 0.60567 0.93953 0.0
C625 C 0.49358 0.6257 0.92913 0.0
C626 C 0.38715 0.51948 0.90251 0.0
C627 C 0.39081 0.50416 0.94439 0.0
C628 C 0.40715 0.5461 0.89245 0.0
C629 C 0.43052 0.55801 0.92559 0.0
C630 C 0.43265 0.54373 0.97171 0.0
C631 C 0.4131 0.5169 0.98063 0.0
H632 H 0.8678 0.36839 0.03567 0.0
H633 H 0.91052 0.40714 0.18897 0.0
H634 H 0.85508 0.40288 0.02393 0.0
H635 H 0.89699 0.44094 0.17862 0.0
H636 H 0.90866 0.50128 0.99272 0.0
H637 H 0.89502 0.45396 0.00457 0.0
H638 H 0.857 0.4523 0.16355 0.0
H639 H 0.86982 0.49949 0.15039 0.0
C640 C 0.87301 0.38329 0.06872 0.0
C641 C 0.88988 0.38502 0.11358 0.0
C642 C 0.86594 0.40314 0.06169 0.0
C643 C 0.87507 0.42455 0.10031 0.0
C644 C 0.88937 0.42447 0.14861 0.0
C645 C 0.89705 0.40509 0.15475 0.0
C646 C 0.89597 0.49032 0.02834 0.0
C647 C 0.88991 0.50381 0.07017 0.0
C648 C 0.88824 0.46327 0.03533 0.0
C649 C 0.87502 0.44952 0.0851 0.0
C650 C 0.867 0.46241 0.12466 0.0
C651 C 0.87411 0.4893 0.11685 0.0
H652 H 0.41055 0.90555 0.15433 0.0
H653 H 0.37388 0.86627 0.31192 0.0
H654 H 0.4437 0.89116 0.16404 0.0
H655 H 0.40768 0.85258 0.32289 0.0
H656 H 0.5026 0.86514 0.19112 0.0
H657 H 0.45529 0.85217 0.18019 0.0
H658 H 0.45852 0.89093 0.33916 0.0
H659 H 0.5059 0.90462 0.34884 0.0
C660 C 0.40875 0.89257 0.18942 0.0
C661 C 0.38951 0.88665 0.2319 0.0
C662 C 0.42776 0.8844 0.1952 0.0
C663 C 0.42831 0.87084 0.2444 0.0
C664 C 0.40759 0.86287 0.28446 0.0
C665 C 0.38813 0.87048 0.2779 0.0
C666 C 0.49273 0.86954 0.22518 0.0
C667 C 0.5077 0.88559 0.27117 0.0
C668 C 0.46576 0.86234 0.21864 0.0
C669 C 0.45328 0.8706 0.25873 0.0
C670 C 0.4675 0.88398 0.30797 0.0
C671 C 0.49459 0.89174 0.31373 0.0
H672 H 0.32418 0.34666 0.80586 0.0
H673 H 0.37461 0.42809 0.7482 0.0
H674 H 0.33546 0.33013 0.71941 0.0
H675 H 0.38657 0.41182 0.66435 0.0
H676 H 0.3485 0.3228 0.51632 0.0
H677 H 0.33162 0.33434 0.60193 0.0
H678 H 0.41303 0.38517 0.65867 0.0
H679 H 0.42963 0.37294 0.57585 0.0
C680 C 0.33774 0.36091 0.7749 0.0
C681 C 0.34953 0.38862 0.78452 0.0
C682 C 0.34401 0.35152 0.72561 0.0
C683 C 0.36203 0.36982 0.68574 0.0
C684 C 0.37287 0.3974 0.6947 0.0
C685 C 0.36635 0.40668 0.74309 0.0
C686 C 0.36261 0.33638 0.54744 0.0
C687 C 0.39035 0.34798 0.53863 0.0
C688 C 0.35302 0.34282 0.59622 0.0
C689 C 0.37116 0.36083 0.63633 0.0
C690 C 0.39874 0.37152 0.62809 0.0
C691 C 0.40821 0.36482 0.58028 0.0
H692 H 0.98481 0.32075 0.98234 0.0
H693 H 0.95224 0.3702 0.92788 0.0
H694 H 0.01215 0.33276 0.8949 0.0
H695 H 0.98036 0.3833 0.84385 0.0
H696 H 0.06272 0.42676 0.75271 0.0
H697 H 0.03443 0.41006 0.83634 0.0
H698 H 1.00131 0.32889 0.77573 0.0
H699 H 0.02877 0.346 0.68878 0.0
C700 C 0.98377 0.33436 0.95207 0.0
C701 C 0.96744 0.34559 0.96284 0.0
C702 C 0.99917 0.34105 0.9022 0.0
C703 C 0.99832 0.35902 0.86298 0.0
C704 C 0.98144 0.36953 0.87343 0.0
C705 C 0.96576 0.36244 0.92213 0.0
C706 C 0.04884 0.40541 0.7563 0.0
C707 C 0.04682 0.38776 0.71312 0.0
C708 C 0.03309 0.39585 0.80475 0.0
C709 C 0.01581 0.36828 0.81244 0.0
C710 C 0.0146 0.35028 0.77061 0.0
C711 C 0.03006 0.36001 0.72101 0.0
H712 H 0.66816 0.98337 0.14754 0.0
H713 H 0.58679 0.94943 0.08747 0.0
H714 H 0.68439 0.01079 0.06034 0.0
H715 H 0.60265 0.97766 0.00364 0.0
H716 H 0.64187 0.06005 0.91221 0.0
H717 H 0.62957 0.03195 0.99623 0.0
H718 H 0.67908 0.99965 0.94088 0.0
H719 H 0.69025 0.02696 0.85351 0.0
C720 C 0.65383 0.98207 0.11611 0.0
C721 C 0.62618 0.96532 0.12519 0.0
C722 C 0.66306 0.99752 0.06638 0.0
C723 C 0.64465 0.99629 0.02559 0.0
C724 C 0.61717 0.97902 0.03443 0.0
C725 C 0.6081 0.96329 0.08301 0.0
C726 C 0.64955 0.04641 0.91703 0.0
C727 C 0.66585 0.04457 0.87516 0.0
C728 C 0.64292 0.03075 0.96571 0.0
C729 C 0.65339 0.01374 0.97496 0.0
C730 C 0.67082 0.01272 0.93452 0.0
C731 C 0.67703 0.0281 0.88468 0.0
H732 H 0.58561 0.63784 0.07957 0.0
H733 H 0.66681 0.68847 0.02086 0.0
H734 H 0.6022 0.62582 0.16278 0.0
H735 H 0.68366 0.67715 0.10678 0.0
H736 H 0.64119 0.58328 0.25199 0.0
H737 H 0.62907 0.59955 0.16844 0.0
H738 H 0.67954 0.6812 0.22432 0.0
H739 H 0.691 0.66466 0.31054 0.0
C740 C 0.60704 0.64611 0.08427 0.0
C741 C 0.62494 0.66302 0.04275 0.0
C742 C 0.6165 0.63955 0.1323 0.0
C743 C 0.6441 0.65046 0.14087 0.0
C744 C 0.66225 0.66852 0.10086 0.0
C745 C 0.65268 0.67482 0.05188 0.0
C746 C 0.64928 0.60468 0.24716 0.0
C747 C 0.66598 0.62271 0.28875 0.0
C748 C 0.64265 0.61396 0.19894 0.0
C749 C 0.65325 0.64151 0.19029 0.0
C750 C 0.67115 0.65982 0.23032 0.0
C751 C 0.67754 0.65042 0.27946 0.0
H752 H 0.02984 0.68922 0.48152 0.0
H753 H 0.06366 0.64126 0.42436 0.0
H754 H 1.00274 0.6777 0.39382 0.0
H755 H 0.03581 0.62866 0.33995 0.0
H756 H 0.95342 0.58484 0.24888 0.0
H757 H 0.9815 0.6013 0.33274 0.0
H758 H 0.01407 0.6827 0.27404 0.0
H759 H 0.98677 0.66586 0.18678 0.0
C760 C 0.0312 0.67603 0.4506 0.0
C761 C 0.04781 0.66506 0.46066 0.0
C762 C 0.01595 0.66963 0.40057 0.0
C763 C 0.01725 0.65224 0.36045 0.0
C764 C 0.0344 0.64199 0.37022 0.0
C765 C 0.04991 0.64878 0.41912 0.0
C766 C 0.96712 0.6062 0.25291 0.0
C767 C 0.96903 0.62401 0.21015 0.0
C768 C 0.98277 0.61562 0.30151 0.0
C769 C 0.99984 0.64317 0.30978 0.0
C770 C 1.00094 0.66131 0.26843 0.0
C771 C 0.98557 0.65174 0.21867 0.0
H772 H 0.37312 0.95022 0.41563 0.0
H773 H 0.32713 0.98514 0.35232 0.0
H774 H 0.38471 0.97811 0.49989 0.0
H775 H 0.33757 0.01228 0.43976 0.0
H776 H 0.34632 0.02863 0.64663 0.0
H777 H 0.33052 1.00125 0.55925 0.0
H778 H 0.41262 0.03224 0.50727 0.0
H779 H 0.42812 0.06039 0.5911 0.0
C780 C 0.36583 0.96422 0.4195 0.0
C781 C 0.35043 0.96663 0.37633 0.0
C782 C 0.37202 0.97975 0.4683 0.0
C783 C 0.36199 0.99722 0.47627 0.0
C784 C 0.34544 0.99882 0.43444 0.0
C785 C 0.33968 0.98355 0.38455 0.0
C786 C 0.36082 0.02948 0.61617 0.0
C787 C 0.38844 0.04559 0.6266 0.0
C788 C 0.35185 0.01406 0.56634 0.0
C789 C 0.37047 0.01467 0.52688 0.0
C790 C 0.39793 0.03134 0.53703 0.0
C791 C 0.40678 0.04704 0.58563 0.0
H792 H 0.4452 0.25884 0.43049 0.0
H793 H 0.42726 0.28451 0.58817 0.0
H794 H 0.44821 0.22334 0.48043 0.0
H795 H 0.42776 0.24789 0.63767 0.0
H796 H 0.44647 0.19072 0.72795 0.0
H797 H 0.44964 0.22906 0.6772 0.0
H798 H 0.42698 0.18274 0.52158 0.0
H799 H 0.42634 0.14566 0.57194 0.0
C800 C 0.44163 0.25666 0.47584 0.0
C801 C 0.43615 0.27452 0.50544 0.0
C802 C 0.44307 0.23607 0.50473 0.0
C803 C 0.43817 0.23224 0.56377 0.0
C804 C 0.43245 0.25022 0.59285 0.0
C805 C 0.43188 0.27124 0.56428 0.0
C806 C 0.44247 0.189 0.68275 0.0
C807 C 0.43625 0.16527 0.65391 0.0
C808 C 0.44397 0.21092 0.65341 0.0
C809 C 0.43833 0.20938 0.59467 0.0
C810 C 0.4321 0.18539 0.56618 0.0
C811 C 0.43149 0.16385 0.59522 0.0
H812 H 0.24849 0.41872 0.89666 0.0
H813 H 0.29822 0.45072 0.74754 0.0
H814 H 0.21177 0.41992 0.84715 0.0
H815 H 0.26179 0.45229 0.69847 0.0
H816 H 0.18043 0.42044 0.60757 0.0
H817 H 0.21827 0.4218 0.65761 0.0
H818 H 0.19754 0.44998 0.8087 0.0
H819 H 0.15957 0.44824 0.75899 0.0
C820 C 0.2517 0.42629 0.85358 0.0
C821 C 0.27631 0.43458 0.82614 0.0
C822 C 0.23067 0.42707 0.82517 0.0
C823 C 0.23371 0.43608 0.76856 0.0
C824 C 0.25853 0.44483 0.74164 0.0
C825 C 0.27953 0.44412 0.77003 0.0
C826 C 0.18406 0.4271 0.65133 0.0
C827 C 0.16693 0.43421 0.67918 0.0
C828 C 0.20584 0.42798 0.68005 0.0
C829 C 0.21099 0.43593 0.7374 0.0
C830 C 0.19402 0.44339 0.76489 0.0
C831 C 0.17232 0.44258 0.73617 0.0
H832 H 0.85482 0.29493 0.91655 0.0
H833 H 0.83368 0.2442 0.06481 0.0
H834 H 0.81691 0.25931 0.86528 0.0
H835 H 0.79598 0.20836 0.01322 0.0
H836 H 0.71668 0.15743 0.92138 0.0
H837 H 0.75255 0.19518 0.97241 0.0
H838 H 0.80315 0.21576 0.82397 0.0
H839 H 0.76702 0.17819 0.77258 0.0
C840 C 0.84201 0.2762 0.93835 0.0
C841 C 0.84733 0.27245 0.99487 0.0
C842 C 0.82035 0.25567 0.90874 0.0
C843 C 0.80337 0.23083 0.93486 0.0
C844 C 0.8084 0.22729 0.99183 0.0
C845 C 0.83011 0.24783 0.02143 0.0
C846 C 0.73538 0.17012 0.89941 0.0
C847 C 0.73894 0.16473 0.84281 0.0
C848 C 0.75606 0.19169 0.92888 0.0
C849 C 0.78089 0.20852 0.90257 0.0
C850 C 0.78424 0.20345 0.84551 0.0
C851 C 0.76354 0.18181 0.81603 0.0
H852 H 0.56542 0.85285 0.07781 0.0
H853 H 0.59395 0.83139 0.22722 0.0
H854 H 0.56331 0.81499 0.02679 0.0
H855 H 0.59224 0.79368 0.17586 0.0
H856 H 0.5941 0.76434 0.93566 0.0
H857 H 0.59311 0.80086 0.98653 0.0
H858 H 0.56156 0.75031 0.1347 0.0
H859 H 0.56293 0.71407 0.08426 0.0
C860 C 0.57117 0.83999 0.09991 0.0
C861 C 0.57985 0.84519 0.15671 0.0
C862 C 0.57014 0.81836 0.07043 0.0
C863 C 0.57771 0.80127 0.09697 0.0
C864 C 0.58597 0.80621 0.15415 0.0
C865 C 0.58706 0.82792 0.18362 0.0
C866 C 0.58675 0.76096 0.97892 0.0
C867 C 0.57864 0.73627 0.00581 0.0
C868 C 0.5861 0.78188 0.00811 0.0
C869 C 0.57738 0.77864 0.06497 0.0
C870 C 0.56879 0.75373 0.09136 0.0
C871 C 0.56939 0.73284 0.06218 0.0
H872 H 0.72979 0.58612 0.24258 0.0
H873 H 0.7551 0.5688 0.40141 0.0
H874 H 0.76666 0.58568 0.19409 0.0
H875 H 0.79086 0.56585 0.35251 0.0
H876 H 0.86876 0.58749 0.26278 0.0
H877 H 0.83156 0.58715 0.31191 0.0
H878 H 0.78578 0.56381 0.15563 0.0
H879 H 0.82424 0.56668 0.10602 0.0
C880 C 0.74304 0.58165 0.26695 0.0
C881 C 0.73958 0.57752 0.32581 0.0
C882 C 0.76421 0.58112 0.23896 0.0
C883 C 0.78217 0.5756 0.26867 0.0
C884 C 0.77816 0.57084 0.32774 0.0
C885 C 0.75742 0.57224 0.35603 0.0
C886 C 0.85067 0.58229 0.23906 0.0
C887 C 0.84943 0.57721 0.18052 0.0
C888 C 0.82907 0.58183 0.26741 0.0
C889 C 0.80516 0.57545 0.2384 0.0
C890 C 0.80383 0.56958 0.17979 0.0
C891 C 0.82583 0.57092 0.15111 0.0
H892 H 0.16003 0.71672 0.41387 0.0
H893 H 0.18126 0.76693 0.56295 0.0
H894 H 0.19782 0.75256 0.36271 0.0
H895 H 0.21886 0.803 0.51148 0.0
H896 H 0.29842 0.85353 0.42021 0.0
H897 H 0.26223 0.81586 0.47064 0.0
H898 H 0.21187 0.79644 0.32211 0.0
H899 H 0.24838 0.83401 0.27121 0.0
C900 C 0.17283 0.73539 0.43586 0.0
C901 C 0.1676 0.73892 0.49262 0.0
C902 C 0.19441 0.75604 0.40631 0.0
C903 C 0.2114 0.78079 0.43273 0.0
C904 C 0.20641 0.78414 0.48986 0.0
C905 C 0.18477 0.76348 0.5194 0.0
C906 C 0.2797 0.84113 0.39806 0.0
C907 C 0.27633 0.84684 0.34157 0.0
C908 C 0.25884 0.81961 0.42722 0.0
C909 C 0.23399 0.80313 0.40073 0.0
C910 C 0.23079 0.80851 0.34378 0.0
C911 C 0.2517 0.83012 0.31458 0.0
loop_
_geom_bond_atom_site_label_1
_geom_bond_atom_site_label_2
_geom_bond_distance
_geom_bond_site_symmetry_2
_ccdc_geom_bond_type
Mn0 O5 2.095 . S
Mn0 O15 2.162 . S
Mn0 O16 2.297 . S
Mn0 O24 2.385 . S
Mn0 O25 2.209 . S
Mn0 O26 2.094 . S
Mn1 O6 2.121 . S
Mn1 N8 2.257 . S
Mn1 N17 2.282 . S
Mn1 O25 2.215 . S
Mn1 O27 2.117 . S
C2 O24 1.234 . S
C2 O25 1.283 . S
C3 O15 1.281 . S
C3 O16 1.236 . S
C4 O26 1.240 . S
C4 O27 1.264 . S
O5 Mn0 2.095 . S
O5 C14 1.250 . S
O6 Mn1 2.121 . S
O6 C14 1.258 . S
C7 N8 1.326 . S
C7 C11 1.460 . S
C7 H13 0.929 . S
N8 Mn1 2.257 . S
N8 C7 1.326 . S
N8 C12 1.362 . S
C9 C10 1.258 . S
C9 C12 1.431 . S
C9 C29 1.449 . S
C10 C9 1.258 . S
C10 C11 1.477 . S
C10 H30 0.931 . S
C11 C7 1.460 . S
C11 C10 1.477 . S
C11 H31 0.930 . S
C12 N8 1.362 . S
C12 C9 1.431 . S
C12 C22 1.476 . S
H13 C7 0.929 . S
C14 O5 1.250 . S
C14 O6 1.258 . S
O15 Mn0 2.162 . S
O15 C3 1.281 . S
O16 Mn0 2.297 . S
O16 C3 1.236 . S
N17 Mn1 2.282 . S
N17 C18 1.328 . S
N17 C22 1.318 . S
C18 N17 1.328 . S
C18 C19 1.457 . S
C18 H23 0.929 . S
C19 C18 1.457 . S
C19 C20 1.291 . S
C19 H32 0.931 . S
C20 C19 1.291 . S
C20 C21 1.373 . S
C20 H33 0.929 . S
C21 C20 1.373 . S
C21 C22 1.396 . S
C21 C28 1.403 . S
C22 C12 1.476 . S
C22 N17 1.318 . S
C22 C21 1.396 . S
H23 C18 0.929 . S
O24 Mn0 2.385 . S
O24 C2 1.234 . S
O25 Mn0 2.209 . S
O25 Mn1 2.215 . S
O25 C2 1.283 . S
O26 Mn0 2.094 . S
O26 C4 1.240 . S
O27 Mn1 2.117 . S
O27 C4 1.264 . S
C28 C21 1.403 . S
C28 C29 1.399 . S
C28 H34 0.929 . S
C29 C9 1.449 . S
C29 C28 1.399 . S
C29 H35 0.930 . S
H30 C10 0.931 . S
H31 C11 0.930 . S
H32 C19 0.931 . S
H33 C20 0.929 . S
H34 C28 0.929 . S
H35 C29 0.930 . S
Mn36 O41 2.095 . S
Mn36 O51 2.162 . S
Mn36 O52 2.297 . S
Mn36 O60 2.385 . S
Mn36 O61 2.209 . S
Mn36 O62 2.094 . S
Mn37 O42 2.121 . S
Mn37 N44 2.257 . S
Mn37 N53 2.282 . S
Mn37 O61 2.215 . S
Mn37 O63 2.117 . S
C38 O60 1.234 . S
C38 O61 1.283 . S
C39 O51 1.281 . S
C39 O52 1.236 . S
C40 O62 1.240 . S
C40 O63 1.264 . S
O41 Mn36 2.095 . S
O41 C50 1.250 . S
O42 Mn37 2.121 . S
O42 C50 1.258 . S
C43 N44 1.326 . S
C43 C47 1.460 . S
C43 H49 0.929 . S
N44 Mn37 2.257 . S
N44 C43 1.326 . S
N44 C48 1.362 . S
C45 C46 1.254 . S
C45 C48 1.431 1_655 S
C45 C65 1.449 . S
C46 C45 1.254 . S
C46 C47 1.460 1_655 S
C46 H66 0.952 . S
C47 C43 1.460 . S
C47 C46 1.460 1_455 S
C47 H67 0.930 . S
C48 N44 1.362 . S
C48 C45 1.431 1_455 S
C48 C58 1.476 1_455 S
H49 C43 0.929 . S
C50 O41 1.250 . S
C50 O42 1.258 . S
O51 Mn36 2.162 . S
O51 C39 1.281 . S
O52 Mn36 2.297 . S
O52 C39 1.236 . S
N53 Mn37 2.282 . S
N53 C54 1.328 1_455 S
N53 C58 1.318 1_455 S
C54 N53 1.328 1_655 S
C54 C55 1.457 . S
C54 H59 0.929 1_655 S
C55 C54 1.457 . S
C55 C56 1.291 . S
C55 H68 0.931 . S
C56 C55 1.291 . S
C56 C57 1.373 . S
C56 H69 0.929 . S
C57 C56 1.373 . S
C57 C58 1.396 . S
C57 C64 1.403 . S
C58 C48 1.476 1_655 S
C58 N53 1.318 1_655 S
C58 C57 1.396 . S
H59 C54 0.929 1_455 S
O60 Mn36 2.385 . S
O60 C38 1.234 . S
O61 Mn36 2.209 . S
O61 Mn37 2.215 . S
O61 C38 1.283 . S
O62 Mn36 2.094 . S
O62 C40 1.240 . S
O63 Mn37 2.117 . S
O63 C40 1.264 . S
C64 C57 1.403 . S
C64 C65 1.399 . S
C64 H70 0.929 . S
C65 C45 1.449 . S
C65 C64 1.399 . S
C65 H71 0.930 . S
H66 C46 0.952 . S
H67 C47 0.930 . S
H68 C55 0.931 . S
H69 C56 0.929 . S
H70 C64 0.929 . S
H71 C65 0.930 . S
Mn72 O77 2.095 . S
Mn72 O87 2.162 . S
Mn72 O88 2.297 . S
Mn72 O96 2.385 . S
Mn72 O97 2.209 . S
Mn72 O98 2.094 . S
Mn73 O78 2.121 . S
Mn73 N80 2.257 . S
Mn73 N89 2.282 . S
Mn73 O97 2.215 . S
Mn73 O99 2.117 . S
C74 O96 1.234 . S
C74 O97 1.283 . S
C75 O87 1.281 . S
C75 O88 1.236 . S
C76 O98 1.240 . S
C76 O99 1.264 . S
O77 Mn72 2.095 . S
O77 C86 1.250 . S
O78 Mn73 2.121 . S
O78 C86 1.258 . S
C79 N80 1.326 . S
C79 C83 1.460 . S
C79 H85 0.929 . S
N80 Mn73 2.257 . S
N80 C79 1.326 . S
N80 C84 1.362 . S
C81 C82 1.279 . S
C81 C84 1.431 1_565 S
C81 C101 1.449 . S
C82 C81 1.279 . S
C82 C83 1.449 1_565 S
C82 H102 0.938 . S
C83 C79 1.460 . S
C83 C82 1.449 1_545 S
C83 H103 0.930 . S
C84 N80 1.362 . S
C84 C81 1.431 1_545 S
C84 C94 1.476 1_545 S
H85 C79 0.929 . S
C86 O77 1.250 . S
C86 O78 1.258 . S
O87 Mn72 2.162 . S
O87 C75 1.281 . S
O88 Mn72 2.297 . S
O88 C75 1.236 . S
N89 Mn73 2.282 . S
N89 C90 1.328 1_545 S
N89 C94 1.318 1_545 S
C90 N89 1.328 1_565 S
C90 C91 1.457 . S
C90 H95 0.929 1_565 S
C91 C90 1.457 . S
C91 C92 1.291 . S
C91 H104 0.931 . S
C92 C91 1.291 . S
C92 C93 1.373 . S
C92 H105 0.929 . S
C93 C92 1.373 . S
C93 C94 1.396 . S
C93 C100 1.403 . S
C94 C84 1.476 1_565 S
C94 N89 1.318 1_565 S
C94 C93 1.396 . S
H95 C90 0.929 1_545 S
O96 Mn72 2.385 . S
O96 C74 1.234 . S
O97 Mn72 2.209 . S
O97 Mn73 2.215 . S
O97 C74 1.283 . S
O98 Mn72 2.094 . S
O98 C76 1.240 . S
O99 Mn73 2.117 . S
O99 C76 1.264 . S
C100 C93 1.403 . S
C100 C101 1.399 . S
C100 H106 0.929 . S
C101 C81 1.449 . S
C101 C100 1.399 . S
C101 H107 0.930 . S
H102 C82 0.938 . S
H103 C83 0.930 . S
H104 C91 0.931 . S
H105 C92 0.929 . S
H106 C100 0.929 . S
H107 C101 0.930 . S
Mn108 O113 2.095 . S
Mn108 O123 2.162 . S
Mn108 O124 2.308 . S
Mn108 O132 2.385 . S
Mn108 O133 2.209 . S
Mn108 O134 2.094 . S
Mn109 O114 2.121 . S
Mn109 N116 2.257 1_556 S
Mn109 N125 2.282 . S
Mn109 O133 2.215 . S
Mn109 O135 2.117 . S
C110 O132 1.234 1_554 S
C110 O133 1.283 1_554 S
C111 O123 1.281 . S
C111 O124 1.243 . S
C112 O134 1.240 . S
C112 O135 1.264 . S
O113 Mn108 2.095 . S
O113 C122 1.250 . S
O114 Mn109 2.121 . S
O114 C122 1.258 . S
C115 N116 1.326 . S
C115 C119 1.460 . S
C115 H121 0.929 . S
N116 Mn109 2.257 1_554 S
N116 C115 1.326 . S
N116 C120 1.362 . S
C117 C118 1.258 . S
C117 C120 1.431 . S
C117 C137 1.449 . S
C118 C117 1.258 . S
C118 C119 1.477 . S
C118 H138 0.931 . S
C119 C115 1.460 . S
C119 C118 1.477 . S
C119 H139 0.930 . S
C120 N116 1.362 . S
C120 C117 1.431 . S
C120 C130 1.471 1_554 S
H121 C115 0.929 . S
C122 O113 1.250 . S
C122 O114 1.258 . S
O123 Mn108 2.162 . S
O123 C111 1.281 . S
O124 Mn108 2.308 . S
O124 C111 1.243 . S
N125 Mn109 2.282 . S
N125 C126 1.328 . S
N125 C130 1.328 . S
C126 N125 1.328 . S
C126 C127 1.457 . S
C126 H131 0.929 . S
C127 C126 1.457 . S
C127 C128 1.291 . S
C127 H140 0.931 . S
C128 C127 1.291 . S
C128 C129 1.373 1_556 S
C128 H141 0.929 1_556 S
C129 C128 1.373 1_554 S
C129 C130 1.391 1_554 S
C129 C136 1.403 . S
C130 C120 1.471 1_556 S
C130 N125 1.328 . S
C130 C129 1.391 1_556 S
H131 C126 0.929 . S
O132 Mn108 2.385 . S
O132 C110 1.234 1_556 S
O133 Mn108 2.209 . S
O133 Mn109 2.215 . S
O133 C110 1.283 1_556 S
O134 Mn108 2.094 . S
O134 C112 1.240 . S
O135 Mn109 2.117 . S
O135 C112 1.264 . S
C136 C129 1.403 . S
C136 C137 1.399 . S
C136 H142 0.929 . S
C137 C117 1.449 . S
C137 C136 1.399 . S
C137 H143 0.930 . S
H138 C118 0.931 . S
H139 C119 0.930 . S
H140 C127 0.931 . S
H141 C128 0.929 1_554 S
H142 C136 0.929 . S
H143 C137 0.930 . S
Mn144 O149 2.095 . S
Mn144 O159 2.162 . S
Mn144 O160 2.297 . S
Mn144 O168 2.385 . S
Mn144 O169 2.209 . S
Mn144 O170 2.094 . S
Mn145 O150 2.121 . S
Mn145 N152 2.257 . S
Mn145 N161 2.282 . S
Mn145 O169 2.215 . S
Mn145 O171 2.117 . S
C146 O168 1.234 . S
C146 O169 1.283 . S
C147 O159 1.281 . S
C147 O160 1.236 . S
C148 O170 1.244 . S
C148 O171 1.270 . S
O149 Mn144 2.095 . S
O149 C158 1.250 . S
O150 Mn145 2.121 . S
O150 C158 1.258 . S
C151 N152 1.326 . S
C151 C155 1.460 . S
C151 H157 0.929 . S
N152 Mn145 2.257 . S
N152 C151 1.326 . S
N152 C156 1.362 . S
C153 C154 1.254 . S
C153 C156 1.431 1_455 S
C153 C173 1.449 . S
C154 C153 1.254 . S
C154 C155 1.460 1_455 S
C154 H174 0.951 . S
C155 C151 1.460 . S
C155 C154 1.460 1_655 S
C155 H175 0.930 . S
C156 N152 1.362 . S
C156 C153 1.431 1_655 S
C156 C166 1.476 1_655 S
H157 C151 0.929 . S
C158 O149 1.250 . S
C158 O150 1.258 . S
O159 Mn144 2.162 . S
O159 C147 1.281 . S
O160 Mn144 2.297 . S
O160 C147 1.236 . S
N161 Mn145 2.282 . S
N161 C162 1.328 1_655 S
N161 C166 1.318 1_655 S
C162 N161 1.328 1_455 S
C162 C163 1.457 . S
C162 H167 0.929 1_455 S
C163 C162 1.457 . S
C163 C164 1.291 . S
C163 H176 0.931 . S
C164 C163 1.291 . S
C164 C165 1.373 . S
C164 H177 0.929 . S
C165 C164 1.373 . S
C165 C166 1.396 . S
C165 C172 1.403 . S
C166 C156 1.476 1_455 S
C166 N161 1.318 1_455 S
C166 C165 1.396 . S
H167 C162 0.929 1_655 S
O168 Mn144 2.385 . S
O168 C146 1.234 . S
O169 Mn144 2.209 . S
O169 Mn145 2.215 . S
O169 C146 1.283 . S
O170 Mn144 2.094 . S
O170 C148 1.244 . S
O171 Mn145 2.117 . S
O171 C148 1.270 . S
C172 C165 1.403 . S
C172 C173 1.399 . S
C172 H178 0.929 . S
C173 C153 1.449 . S
C173 C172 1.399 . S
C173 H179 0.930 . S
H174 C154 0.951 . S
H175 C155 0.930 . S
H176 C163 0.931 . S
H177 C164 0.929 . S
H178 C172 0.929 . S
H179 C173 0.930 . S
Mn180 O185 2.095 . S
Mn180 O195 2.162 . S
Mn180 O196 2.297 . S
Mn180 O204 2.385 . S
Mn180 O205 2.209 . S
Mn180 O206 2.094 . S
Mn181 O186 2.121 . S
Mn181 N188 2.257 . S
Mn181 N197 2.282 . S
Mn181 O205 2.215 . S
Mn181 O207 2.117 . S
C182 O204 1.234 . S
C182 O205 1.283 . S
C183 O195 1.281 . S
C183 O196 1.236 . S
C184 O206 1.240 . S
C184 O207 1.264 . S
O185 Mn180 2.095 . S
O185 C194 1.250 . S
O186 Mn181 2.121 . S
O186 C194 1.258 . S
C187 N188 1.326 . S
C187 C191 1.460 . S
C187 H193 0.929 . S
N188 Mn181 2.257 . S
N188 C187 1.326 . S
N188 C192 1.362 . S
C189 C190 1.279 . S
C189 C192 1.431 1_545 S
C189 C209 1.449 . S
C190 C189 1.279 . S
C190 C191 1.449 1_545 S
C190 H210 0.938 . S
C191 C187 1.460 . S
C191 C190 1.449 1_565 S
C191 H211 0.930 . S
C192 N188 1.362 . S
C192 C189 1.431 1_565 S
C192 C202 1.476 1_565 S
H193 C187 0.929 . S
C194 O185 1.250 . S
C194 O186 1.258 . S
O195 Mn180 2.162 . S
O195 C183 1.281 . S
O196 Mn180 2.297 . S
O196 C183 1.236 . S
N197 Mn181 2.282 . S
N197 C198 1.328 1_565 S
N197 C202 1.318 1_565 S
C198 N197 1.328 1_545 S
C198 C199 1.457 . S
C198 H203 0.929 1_545 S
C199 C198 1.457 . S
C199 C200 1.291 . S
C199 H212 0.931 . S
C200 C199 1.291 . S
C200 C201 1.373 . S
C200 H213 0.929 . S
C201 C200 1.373 . S
C201 C202 1.396 . S
C201 C208 1.403 . S
C202 C192 1.476 1_545 S
C202 N197 1.318 1_545 S
C202 C201 1.396 . S
H203 C198 0.929 1_565 S
O204 Mn180 2.385 . S
O204 C182 1.234 . S
O205 Mn180 2.209 . S
O205 Mn181 2.215 . S
O205 C182 1.283 . S
O206 Mn180 2.094 . S
O206 C184 1.240 . S
O207 Mn181 2.117 . S
O207 C184 1.264 . S
C208 C201 1.403 . S
C208 C209 1.399 . S
C208 H214 0.929 . S
C209 C189 1.449 . S
C209 C208 1.399 . S
C209 H215 0.930 . S
H210 C190 0.938 . S
H211 C191 0.930 . S
H212 C199 0.931 . S
H213 C200 0.929 . S
H214 C208 0.929 . S
H215 C209 0.930 . S
Mn216 O221 2.095 . S
Mn216 O231 2.162 . S
Mn216 O232 2.297 . S
Mn216 O240 2.385 . S
Mn216 O241 2.209 . S
Mn216 O242 2.094 . S
Mn217 O222 2.121 . S
Mn217 N224 2.257 . S
Mn217 N233 2.282 . S
Mn217 O241 2.215 . S
Mn217 O243 2.117 . S
C218 O240 1.234 . S
C218 O241 1.283 . S
C219 O231 1.281 . S
C219 O232 1.236 . S
C220 O242 1.240 . S
C220 O243 1.264 . S
O221 Mn216 2.095 . S
O221 C230 1.250 . S
O222 Mn217 2.121 . S
O222 C230 1.258 . S
C223 N224 1.326 . S
C223 C227 1.460 . S
C223 H229 0.929 . S
N224 Mn217 2.257 . S
N224 C223 1.326 . S
N224 C228 1.362 . S
C225 C226 1.258 . S
C225 C228 1.431 . S
C225 C245 1.449 . S
C226 C225 1.258 . S
C226 C227 1.477 . S
C226 H246 0.931 . S
C227 C223 1.460 . S
C227 C226 1.477 . S
C227 H247 0.930 . S
C228 N224 1.362 . S
C228 C225 1.431 . S
C228 C238 1.476 . S
H229 C223 0.929 . S
C230 O221 1.250 . S
C230 O222 1.258 . S
O231 Mn216 2.162 . S
O231 C219 1.281 . S
O232 Mn216 2.297 . S
O232 C219 1.236 . S
N233 Mn217 2.282 . S
N233 C234 1.328 . S
N233 C238 1.318 . S
C234 N233 1.328 . S
C234 C235 1.457 . S
C234 H239 0.929 . S
C235 C234 1.457 . S
C235 C236 1.291 . S
C235 H248 0.931 . S
C236 C235 1.291 . S
C236 C237 1.373 . S
C236 H249 0.929 . S
C237 C236 1.373 . S
C237 C238 1.396 . S
C237 C244 1.403 . S
C238 C228 1.476 . S
C238 N233 1.318 . S
C238 C237 1.396 . S
H239 C234 0.929 . S
O240 Mn216 2.385 . S
O240 C218 1.234 . S
O241 Mn216 2.209 . S
O241 Mn217 2.215 . S
O241 C218 1.283 . S
O242 Mn216 2.094 . S
O242 C220 1.240 . S
O243 Mn217 2.117 . S
O243 C220 1.264 . S
C244 C237 1.403 . S
C244 C245 1.399 . S
C244 H250 0.929 . S
C245 C225 1.449 . S
C245 C244 1.399 . S
C245 H251 0.930 . S
H246 C226 0.931 . S
H247 C227 0.930 . S
H248 C235 0.931 . S
H249 C236 0.929 . S
H250 C244 0.929 . S
H251 C245 0.930 . S
Mn252 O257 2.095 . S
Mn252 O267 2.162 . S
Mn252 O268 2.297 . S
Mn252 O276 2.385 . S
Mn252 O277 2.209 . S
Mn252 O278 2.094 . S
Mn253 O258 2.121 . S
Mn253 N260 2.257 . S
Mn253 N269 2.282 . S
Mn253 O277 2.215 . S
Mn253 O279 2.117 . S
C254 O276 1.234 . S
C254 O277 1.283 . S
C255 O267 1.281 . S
C255 O268 1.236 . S
C256 O278 1.240 . S
C256 O279 1.264 . S
O257 Mn252 2.095 . S
O257 C266 1.250 . S
O258 Mn253 2.121 . S
O258 C266 1.258 . S
C259 N260 1.326 . S
C259 C263 1.460 . S
C259 H265 0.929 . S
N260 Mn253 2.257 . S
N260 C259 1.326 . S
N260 C264 1.362 . S
C261 C262 1.279 . S
C261 C264 1.431 1_655 S
C261 C281 1.449 . S
C262 C261 1.279 . S
C262 C263 1.449 1_655 S
C262 H282 0.938 . S
C263 C259 1.460 . S
C263 C262 1.449 1_455 S
C263 H283 0.930 . S
C264 N260 1.362 . S
C264 C261 1.431 1_455 S
C264 C274 1.476 1_455 S
H265 C259 0.929 . S
C266 O257 1.250 . S
C266 O258 1.258 . S
O267 Mn252 2.162 . S
O267 C255 1.281 . S
O268 Mn252 2.297 . S
O268 C255 1.236 . S
N269 Mn253 2.282 . S
N269 C270 1.328 1_455 S
N269 C274 1.318 1_455 S
C270 N269 1.328 1_655 S
C270 C271 1.457 . S
C270 H275 0.929 1_655 S
C271 C270 1.457 . S
C271 C272 1.291 . S
C271 H284 0.931 . S
C272 C271 1.291 . S
C272 C273 1.373 . S
C272 H285 0.929 . S
C273 C272 1.373 . S
C273 C274 1.396 . S
C273 C280 1.403 . S
C274 C264 1.476 1_655 S
C274 N269 1.318 1_655 S
C274 C273 1.396 . S
H275 C270 0.929 1_455 S
O276 Mn252 2.385 . S
O276 C254 1.234 . S
O277 Mn252 2.209 . S
O277 Mn253 2.215 . S
O277 C254 1.283 . S
O278 Mn252 2.094 . S
O278 C256 1.240 . S
O279 Mn253 2.117 . S
O279 C256 1.264 . S
C280 C273 1.403 . S
C280 C281 1.399 . S
C280 H286 0.929 . S
C281 C261 1.449 . S
C281 C280 1.399 . S
C281 H287 0.930 . S
H282 C262 0.938 . S
H283 C263 0.930 . S
H284 C271 0.931 . S
H285 C272 0.929 . S
H286 C280 0.929 . S
H287 C281 0.930 . S
Mn288 O293 2.095 . S
Mn288 O303 2.162 . S
Mn288 O304 2.297 . S
Mn288 O312 2.385 . S
Mn288 O313 2.209 . S
Mn288 O314 2.094 . S
Mn289 O294 2.121 . S
Mn289 N296 2.257 . S
Mn289 N305 2.282 . S
Mn289 O313 2.215 . S
Mn289 O315 2.117 . S
C290 O312 1.234 . S
C290 O313 1.283 . S
C291 O303 1.281 . S
C291 O304 1.236 . S
C292 O314 1.240 . S
C292 O315 1.264 . S
O293 Mn288 2.095 . S
O293 C302 1.250 . S
O294 Mn289 2.121 . S
O294 C302 1.258 . S
C295 N296 1.326 . S
C295 C299 1.460 . S
C295 H301 0.929 . S
N296 Mn289 2.257 . S
N296 C295 1.326 . S
N296 C300 1.362 . S
C297 C298 1.254 . S
C297 C300 1.431 1_565 S
C297 C317 1.449 . S
C298 C297 1.254 . S
C298 C299 1.460 1_565 S
C298 H318 0.951 . S
C299 C295 1.460 . S
C299 C298 1.460 1_545 S
C299 H319 0.930 . S
C300 N296 1.362 . S
C300 C297 1.431 1_545 S
C300 C310 1.476 1_545 S
H301 C295 0.929 . S
C302 O293 1.250 . S
C302 O294 1.258 . S
O303 Mn288 2.162 . S
O303 C291 1.281 . S
O304 Mn288 2.297 . S
O304 C291 1.236 . S
N305 Mn289 2.282 . S
N305 C306 1.328 1_545 S
N305 C310 1.318 1_545 S
C306 N305 1.328 1_565 S
C306 C307 1.457 . S
C306 H311 0.929 1_565 S
C307 C306 1.457 . S
C307 C308 1.291 . S
C307 H320 0.931 . S
C308 C307 1.291 . S
C308 C309 1.373 . S
C308 H321 0.929 . S
C309 C308 1.373 . S
C309 C310 1.396 . S
C309 C316 1.403 . S
C310 C300 1.476 1_565 S
C310 N305 1.318 1_565 S
C310 C309 1.396 . S
H311 C306 0.929 1_545 S
O312 Mn288 2.385 . S
O312 C290 1.234 . S
O313 Mn288 2.209 . S
O313 Mn289 2.215 . S
O313 C290 1.283 . S
O314 Mn288 2.094 . S
O314 C292 1.240 . S
O315 Mn289 2.117 . S
O315 C292 1.264 . S
C316 C309 1.403 . S
C316 C317 1.399 . S
C316 H322 0.929 . S
C317 C297 1.449 . S
C317 C316 1.399 . S
C317 H323 0.930 . S
H318 C298 0.951 . S
H319 C299 0.930 . S
H320 C307 0.931 . S
H321 C308 0.929 . S
H322 C316 0.929 . S
H323 C317 0.930 . S
Mn324 O329 2.095 . S
Mn324 O339 2.162 . S
Mn324 O340 2.297 . S
Mn324 O348 2.385 . S
Mn324 O349 2.209 . S
Mn324 O350 2.094 . S
Mn325 O330 2.121 . S
Mn325 N332 2.257 . S
Mn325 N341 2.282 . S
Mn325 O349 2.215 . S
Mn325 O351 2.117 . S
C326 O348 1.234 . S
C326 O349 1.283 . S
C327 O339 1.281 . S
C327 O340 1.236 . S
C328 O350 1.245 . S
C328 O351 1.270 . S
O329 Mn324 2.095 . S
O329 C338 1.250 . S
O330 Mn325 2.121 . S
O330 C338 1.258 . S
C331 N332 1.326 . S
C331 C335 1.460 . S
C331 H337 0.929 . S
N332 Mn325 2.257 . S
N332 C331 1.326 . S
N332 C336 1.362 . S
C333 C334 1.258 . S
C333 C336 1.431 . S
C333 C353 1.449 . S
C334 C333 1.258 . S
C334 C335 1.477 . S
C334 H354 0.931 . S
C335 C331 1.460 . S
C335 C334 1.477 . S
C335 H355 0.930 . S
C336 N332 1.362 . S
C336 C333 1.431 . S
C336 C346 1.476 . S
H337 C331 0.929 . S
C338 O329 1.250 . S
C338 O330 1.258 . S
O339 Mn324 2.162 . S
O339 C327 1.281 . S
O340 Mn324 2.297 . S
O340 C327 1.236 . S
N341 Mn325 2.282 . S
N341 C342 1.328 . S
N341 C346 1.318 . S
C342 N341 1.328 . S
C342 C343 1.457 . S
C342 H347 0.929 . S
C343 C342 1.457 . S
C343 C344 1.291 . S
C343 H356 0.931 . S
C344 C343 1.291 . S
C344 C345 1.373 . S
C344 H357 0.929 . S
C345 C344 1.373 . S
C345 C346 1.396 . S
C345 C352 1.403 . S
C346 C336 1.476 . S
C346 N341 1.318 . S
C346 C345 1.396 . S
H347 C342 0.929 . S
O348 Mn324 2.385 . S
O348 C326 1.234 . S
O349 Mn324 2.209 . S
O349 Mn325 2.215 . S
O349 C326 1.283 . S
O350 Mn324 2.094 . S
O350 C328 1.245 . S
O351 Mn325 2.117 . S
O351 C328 1.270 . S
C352 C345 1.403 . S
C352 C353 1.399 . S
C352 H358 0.929 . S
C353 C333 1.449 . S
C353 C352 1.399 . S
C353 H359 0.930 . S
H354 C334 0.931 . S
H355 C335 0.930 . S
H356 C343 0.931 . S
H357 C344 0.929 . S
H358 C352 0.929 . S
H359 C353 0.930 . S
Mn360 O365 2.095 . S
Mn360 O375 2.162 . S
Mn360 O376 2.308 . S
Mn360 O384 2.385 . S
Mn360 O385 2.209 . S
Mn360 O386 2.094 . S
Mn361 O366 2.121 . S
Mn361 N368 2.257 1_554 S
Mn361 N377 2.282 . S
Mn361 O385 2.215 . S
Mn361 O387 2.117 . S
C362 O384 1.234 1_556 S
C362 O385 1.283 1_556 S
C363 O375 1.281 . S
C363 O376 1.243 . S
C364 O386 1.240 . S
C364 O387 1.264 . S
O365 Mn360 2.095 . S
O365 C374 1.250 . S
O366 Mn361 2.121 . S
O366 C374 1.258 . S
C367 N368 1.326 . S
C367 C371 1.460 . S
C367 H373 0.929 . S
N368 Mn361 2.257 1_556 S
N368 C367 1.326 . S
N368 C372 1.362 . S
C369 C370 1.279 . S
C369 C372 1.431 1_455 S
C369 C389 1.449 . S
C370 C369 1.279 . S
C370 C371 1.449 1_455 S
C370 H390 0.938 . S
C371 C367 1.460 . S
C371 C370 1.449 1_655 S
C371 H391 0.930 . S
C372 N368 1.362 . S
C372 C369 1.431 1_655 S
C372 C382 1.471 1_656 S
H373 C367 0.929 . S
C374 O365 1.250 . S
C374 O366 1.258 . S
O375 Mn360 2.162 . S
O375 C363 1.281 . S
O376 Mn360 2.308 . S
O376 C363 1.243 . S
N377 Mn361 2.282 . S
N377 C378 1.328 1_655 S
N377 C382 1.328 1_655 S
C378 N377 1.328 1_455 S
C378 C379 1.457 . S
C378 H383 0.929 1_455 S
C379 C378 1.457 . S
C379 C380 1.291 . S
C379 H392 0.931 . S
C380 C379 1.291 . S
C380 C381 1.373 1_554 S
C380 H393 0.929 1_554 S
C381 C380 1.373 1_556 S
C381 C382 1.391 1_556 S
C381 C388 1.403 . S
C382 C372 1.471 1_454 S
C382 N377 1.328 1_455 S
C382 C381 1.391 1_554 S
H383 C378 0.929 1_655 S
O384 Mn360 2.385 . S
O384 C362 1.234 1_554 S
O385 Mn360 2.209 . S
O385 Mn361 2.215 . S
O385 C362 1.283 1_554 S
O386 Mn360 2.094 . S
O386 C364 1.240 . S
O387 Mn361 2.117 . S
O387 C364 1.264 . S
C388 C381 1.403 . S
C388 C389 1.399 . S
C388 H394 0.929 . S
C389 C369 1.449 . S
C389 C388 1.399 . S
C389 H395 0.930 . S
H390 C370 0.938 . S
H391 C371 0.930 . S
H392 C379 0.931 . S
H393 C380 0.929 1_556 S
H394 C388 0.929 . S
H395 C389 0.930 . S
Mn396 O401 2.095 . S
Mn396 O411 2.162 . S
Mn396 O412 2.297 . S
Mn396 O420 2.385 . S
Mn396 O421 2.209 . S
Mn396 O422 2.094 . S
Mn397 O402 2.121 . S
Mn397 N404 2.257 . S
Mn397 N413 2.282 . S
Mn397 O421 2.215 . S
Mn397 O423 2.117 . S
C398 O420 1.234 . S
C398 O421 1.283 . S
C399 O411 1.281 . S
C399 O412 1.236 . S
C400 O422 1.240 . S
C400 O423 1.264 . S
O401 Mn396 2.095 . S
O401 C410 1.250 . S
O402 Mn397 2.121 . S
O402 C410 1.258 . S
C403 N404 1.326 . S
C403 C407 1.460 . S
C403 H409 0.929 . S
N404 Mn397 2.257 . S
N404 C403 1.326 . S
N404 C408 1.362 . S
C405 C406 1.254 . S
C405 C408 1.431 1_545 S
C405 C425 1.449 . S
C406 C405 1.254 . S
C406 C407 1.460 1_545 S
C406 H426 0.952 . S
C407 C403 1.460 . S
C407 C406 1.460 1_565 S
C407 H427 0.930 . S
C408 N404 1.362 . S
C408 C405 1.431 1_565 S
C408 C418 1.476 1_565 S
H409 C403 0.929 . S
C410 O401 1.250 . S
C410 O402 1.258 . S
O411 Mn396 2.162 . S
O411 C399 1.281 . S
O412 Mn396 2.297 . S
O412 C399 1.236 . S
N413 Mn397 2.282 . S
N413 C414 1.328 1_565 S
N413 C418 1.318 1_565 S
C414 N413 1.328 1_545 S
C414 C415 1.457 . S
C414 H419 0.929 1_545 S
C415 C414 1.457 . S
C415 C416 1.291 . S
C415 H428 0.931 . S
C416 C415 1.291 . S
C416 C417 1.373 . S
C416 H429 0.929 . S
C417 C416 1.373 . S
C417 C418 1.396 . S
C417 C424 1.403 . S
C418 C408 1.476 1_545 S
C418 N413 1.318 1_545 S
C418 C417 1.396 . S
H419 C414 0.929 1_565 S
O420 Mn396 2.385 . S
O420 C398 1.234 . S
O421 Mn396 2.209 . S
O421 Mn397 2.215 . S
O421 C398 1.283 . S
O422 Mn396 2.094 . S
O422 C400 1.240 . S
O423 Mn397 2.117 . S
O423 C400 1.264 . S
C424 C417 1.403 . S
C424 C425 1.399 . S
C424 H430 0.929 . S
C425 C405 1.449 . S
C425 C424 1.399 . S
C425 H431 0.930 . S
H426 C406 0.952 . S
H427 C407 0.930 . S
H428 C415 0.931 . S
H429 C416 0.929 . S
H430 C424 0.929 . S
H431 C425 0.930 . S
H432 C440 0.950 . S
H433 C445 0.950 . S
H434 C442 0.950 . S
H435 C444 0.950 . S
H436 C446 0.950 . S
H437 C448 0.950 . S
H438 C450 0.950 . S
H439 C451 0.950 . S
C440 H432 0.950 . S
C440 C441 1.386 . S
C440 C442 1.391 . S
C441 C440 1.386 . S
C441 C445 1.393 . S
C442 H434 0.950 . S
C442 C440 1.391 . S
C442 C443 1.400 . S
C443 C442 1.400 . S
C443 C444 1.398 . S
C443 C449 1.491 . S
C444 H435 0.950 . S
C444 C443 1.398 . S
C444 C445 1.391 . S
C445 H433 0.950 . S
C445 C441 1.393 . S
C445 C444 1.391 . S
C446 H436 0.950 . S
C446 C447 1.386 . S
C446 C448 1.391 . S
C447 C446 1.386 . S
C447 C451 1.393 . S
C448 H437 0.950 . S
C448 C446 1.391 . S
C448 C449 1.400 . S
C449 C443 1.491 . S
C449 C448 1.400 . S
C449 C450 1.398 . S
C450 H438 0.950 . S
C450 C449 1.398 . S
C450 C451 1.391 . S
C451 H439 0.950 . S
C451 C447 1.393 . S
C451 C450 1.391 . S
H452 C460 0.950 . S
H453 C465 0.950 . S
H454 C462 0.950 1_655 S
H455 C464 0.950 . S
H456 C466 0.950 . S
H457 C468 0.950 1_455 S
H458 C470 0.950 . S
H459 C471 0.950 . S
C460 H452 0.950 . S
C460 C461 1.386 . S
C460 C462 1.391 . S
C461 C460 1.386 . S
C461 C465 1.393 . S
C462 H454 0.950 1_455 S
C462 C460 1.391 . S
C462 C463 1.400 . S
C463 C462 1.400 . S
C463 C464 1.398 . S
C463 C469 1.491 1_455 S
C464 H455 0.950 . S
C464 C463 1.398 . S
C464 C465 1.391 . S
C465 H453 0.950 . S
C465 C461 1.393 . S
C465 C464 1.391 . S
C466 H456 0.950 . S
C466 C467 1.386 . S
C466 C468 1.391 . S
C467 C466 1.386 . S
C467 C471 1.393 . S
C468 H457 0.950 1_655 S
C468 C466 1.391 . S
C468 C469 1.400 . S
C469 C463 1.491 1_655 S
C469 C468 1.400 . S
C469 C470 1.398 . S
C470 H458 0.950 . S
C470 C469 1.398 . S
C470 C471 1.391 . S
C471 H459 0.950 . S
C471 C467 1.393 . S
C471 C470 1.391 . S
H472 C480 0.950 . S
H473 C485 0.950 . S
H474 C482 0.950 . S
H475 C484 0.950 1_545 S
H476 C486 0.950 . S
H477 C488 0.950 . S
H478 C490 0.950 1_565 S
H479 C491 0.950 . S
C480 H472 0.950 . S
C480 C481 1.386 . S
C480 C482 1.391 . S
C481 C480 1.386 . S
C481 C485 1.393 . S
C482 H474 0.950 . S
C482 C480 1.391 . S
C482 C483 1.400 . S
C483 C482 1.400 . S
C483 C484 1.398 . S
C483 C489 1.491 1_565 S
C484 H475 0.950 1_565 S
C484 C483 1.398 . S
C484 C485 1.391 . S
C485 H473 0.950 . S
C485 C481 1.393 . S
C485 C484 1.391 . S
C486 H476 0.950 . S
C486 C487 1.386 . S
C486 C488 1.391 . S
C487 C486 1.386 . S
C487 C491 1.393 . S
C488 H477 0.950 . S
C488 C486 1.391 . S
C488 C489 1.400 . S
C489 C483 1.491 1_545 S
C489 C488 1.400 . S
C489 C490 1.398 . S
C490 H478 0.950 1_545 S
C490 C489 1.398 . S
C490 C491 1.391 . S
C491 H479 0.950 . S
C491 C487 1.393 . S
C491 C490 1.391 . S
H492 C500 0.950 . S
H493 C505 0.950 . S
H494 C502 0.950 . S
H495 C504 0.950 . S
H496 C506 0.950 . S
H497 C508 0.950 . S
H498 C510 0.950 . S
H499 C511 0.950 . S
C500 H492 0.950 . S
C500 C501 1.386 . S
C500 C502 1.391 . S
C501 C500 1.386 . S
C501 C505 1.393 . S
C502 H494 0.950 . S
C502 C500 1.391 . S
C502 C503 1.400 . S
C503 C502 1.400 . S
C503 C504 1.398 . S
C503 C509 1.491 . S
C504 H495 0.950 . S
C504 C503 1.398 . S
C504 C505 1.391 . S
C505 H493 0.950 . S
C505 C501 1.393 . S
C505 C504 1.391 . S
C506 H496 0.950 . S
C506 C507 1.386 . S
C506 C508 1.391 . S
C507 C506 1.386 . S
C507 C511 1.393 . S
C508 H497 0.950 . S
C508 C506 1.391 . S
C508 C509 1.400 . S
C509 C503 1.491 . S
C509 C508 1.400 . S
C509 C510 1.398 . S
C510 H498 0.950 . S
C510 C509 1.398 . S
C510 C511 1.391 . S
C511 H499 0.950 . S
C511 C507 1.393 . S
C511 C510 1.391 . S
H512 C520 0.950 . S
H513 C525 0.950 . S
H514 C522 0.950 . S
H515 C524 0.950 . S
H516 C526 0.950 . S
H517 C528 0.950 . S
H518 C530 0.950 . S
H519 C531 0.950 . S
C520 H512 0.950 . S
C520 C521 1.386 . S
C520 C522 1.391 . S
C521 C520 1.386 . S
C521 C525 1.393 . S
C522 H514 0.950 . S
C522 C520 1.391 . S
C522 C523 1.400 . S
C523 C522 1.400 . S
C523 C524 1.398 . S
C523 C529 1.491 1_455 S
C524 H515 0.950 . S
C524 C523 1.398 . S
C524 C525 1.391 . S
C525 H513 0.950 . S
C525 C521 1.393 . S
C525 C524 1.391 . S
C526 H516 0.950 . S
C526 C527 1.386 . S
C526 C528 1.391 . S
C527 C526 1.386 . S
C527 C531 1.393 . S
C528 H517 0.950 . S
C528 C526 1.391 . S
C528 C529 1.400 . S
C529 C523 1.491 1_655 S
C529 C528 1.400 . S
C529 C530 1.398 . S
C530 H518 0.950 . S
C530 C529 1.398 . S
C530 C531 1.391 . S
C531 H519 0.950 . S
C531 C527 1.393 . S
C531 C530 1.391 . S
H532 C540 0.950 . S
H533 C545 0.950 . S
H534 C542 0.950 1_554 S
H535 C544 0.950 1_565 S
H536 C546 0.950 . S
H537 C548 0.950 1_556 S
H538 C550 0.950 1_545 S
H539 C551 0.950 . S
C540 H532 0.950 . S
C540 C541 1.386 . S
C540 C542 1.391 . S
C541 C540 1.386 . S
C541 C545 1.393 . S
C542 H534 0.950 1_556 S
C542 C540 1.391 . S
C542 C543 1.400 . S
C543 C542 1.400 . S
C543 C544 1.398 . S
C543 C549 1.491 1_546 S
C544 H535 0.950 1_545 S
C544 C543 1.398 . S
C544 C545 1.391 . S
C545 H533 0.950 . S
C545 C541 1.393 . S
C545 C544 1.391 . S
C546 H536 0.950 . S
C546 C547 1.386 . S
C546 C548 1.391 . S
C547 C546 1.386 . S
C547 C551 1.393 . S
C548 H537 0.950 1_554 S
C548 C546 1.391 . S
C548 C549 1.400 . S
C549 C543 1.491 1_564 S
C549 C548 1.400 . S
C549 C550 1.398 . S
C550 H538 0.950 1_565 S
C550 C549 1.398 . S
C550 C551 1.391 . S
C551 H539 0.950 . S
C551 C547 1.393 . S
C551 C550 1.391 . S
H552 C560 0.950 . S
H553 C565 0.950 . S
H554 C562 0.950 . S
H555 C564 0.950 . S
H556 C566 0.950 . S
H557 C568 0.950 . S
H558 C570 0.950 . S
H559 C571 0.950 . S
C560 H552 0.950 . S
C560 C561 1.386 . S
C560 C562 1.391 . S
C561 C560 1.386 . S
C561 C565 1.393 . S
C562 H554 0.950 . S
C562 C560 1.391 . S
C562 C563 1.400 . S
C563 C562 1.400 . S
C563 C564 1.398 . S
C563 C569 1.491 . S
C564 H555 0.950 . S
C564 C563 1.398 . S
C564 C565 1.391 . S
C565 H553 0.950 . S
C565 C561 1.393 . S
C565 C564 1.391 . S
C566 H556 0.950 . S
C566 C567 1.386 . S
C566 C568 1.391 . S
C567 C566 1.386 . S
C567 C571 1.393 . S
C568 H557 0.950 . S
C568 C566 1.391 . S
C568 C569 1.400 . S
C569 C563 1.491 . S
C569 C568 1.400 . S
C569 C570 1.398 . S
C570 H558 0.950 . S
C570 C569 1.398 . S
C570 C571 1.391 . S
C571 H559 0.950 . S
C571 C567 1.393 . S
C571 C570 1.391 . S
H572 C580 0.950 . S
H573 C585 0.950 . S
H574 C582 0.950 . S
H575 C584 0.950 . S
H576 C586 0.950 . S
H577 C588 0.950 . S
H578 C590 0.950 . S
H579 C591 0.950 . S
C580 H572 0.950 . S
C580 C581 1.386 . S
C580 C582 1.391 . S
C581 C580 1.386 . S
C581 C585 1.393 . S
C582 H574 0.950 . S
C582 C580 1.391 . S
C582 C583 1.400 . S
C583 C582 1.400 . S
C583 C584 1.398 . S
C583 C589 1.491 . S
C584 H575 0.950 . S
C584 C583 1.398 . S
C584 C585 1.391 . S
C585 H573 0.950 . S
C585 C581 1.393 . S
C585 C584 1.391 . S
C586 H576 0.950 . S
C586 C587 1.386 . S
C586 C588 1.391 . S
C587 C586 1.386 . S
C587 C591 1.393 . S
C588 H577 0.950 . S
C588 C586 1.391 . S
C588 C589 1.400 . S
C589 C583 1.491 . S
C589 C588 1.400 . S
C589 C590 1.398 . S
C590 H578 0.950 . S
C590 C589 1.398 . S
C590 C591 1.391 . S
C591 H579 0.950 . S
C591 C587 1.393 . S
C591 C590 1.391 . S
H592 C600 0.950 . S
H593 C605 0.950 . S
H594 C602 0.950 . S
H595 C604 0.950 . S
H596 C606 0.950 . S
H597 C608 0.950 . S
H598 C610 0.950 . S
H599 C611 0.950 . S
C600 H592 0.950 . S
C600 C601 1.386 . S
C600 C602 1.391 . S
C601 C600 1.386 . S
C601 C605 1.393 . S
C602 H594 0.950 . S
C602 C600 1.391 . S
C602 C603 1.400 . S
C603 C602 1.400 . S
C603 C604 1.398 . S
C603 C609 1.491 . S
C604 H595 0.950 . S
C604 C603 1.398 . S
C604 C605 1.391 . S
C605 H593 0.950 . S
C605 C601 1.393 . S
C605 C604 1.391 . S
C606 H596 0.950 . S
C606 C607 1.386 . S
C606 C608 1.391 . S
C607 C606 1.386 . S
C607 C611 1.393 . S
C608 H597 0.950 . S
C608 C606 1.391 . S
C608 C609 1.400 . S
C609 C603 1.491 . S
C609 C608 1.400 . S
C609 C610 1.398 . S
C610 H598 0.950 . S
C610 C609 1.398 . S
C610 C611 1.391 . S
C611 H599 0.950 . S
C611 C607 1.393 . S
C611 C610 1.391 . S
H612 C620 0.950 . S
H613 C625 0.950 . S
H614 C622 0.950 . S
H615 C624 0.950 . S
H616 C626 0.950 . S
H617 C628 0.950 . S
H618 C630 0.950 . S
H619 C631 0.950 . S
C620 H612 0.950 . S
C620 C621 1.386 . S
C620 C622 1.391 . S
C621 C620 1.386 . S
C621 C625 1.393 . S
C622 H614 0.950 . S
C622 C620 1.391 . S
C622 C623 1.400 . S
C623 C622 1.400 . S
C623 C624 1.398 . S
C623 C629 1.491 . S
C624 H615 0.950 . S
C624 C623 1.398 . S
C624 C625 1.391 . S
C625 H613 0.950 . S
C625 C621 1.393 . S
C625 C624 1.391 . S
C626 H616 0.950 . S
C626 C627 1.386 . S
C626 C628 1.391 . S
C627 C626 1.386 . S
C627 C631 1.393 . S
C628 H617 0.950 . S
C628 C626 1.391 . S
C628 C629 1.400 . S
C629 C623 1.491 . S
C629 C628 1.400 . S
C629 C630 1.398 . S
C630 H618 0.950 . S
C630 C629 1.398 . S
C630 C631 1.391 . S
C631 H619 0.950 . S
C631 C627 1.393 . S
C631 C630 1.391 . S
H632 C640 0.950 . S
H633 C645 0.950 . S
H634 C642 0.950 . S
H635 C644 0.950 . S
H636 C646 0.950 . S
H637 C648 0.950 . S
H638 C650 0.950 . S
H639 C651 0.950 . S
C640 H632 0.950 . S
C640 C641 1.386 . S
C640 C642 1.391 . S
C641 C640 1.386 . S
C641 C645 1.393 . S
C642 H634 0.950 . S
C642 C640 1.391 . S
C642 C643 1.400 . S
C643 C642 1.400 . S
C643 C644 1.398 . S
C643 C649 1.491 . S
C644 H635 0.950 . S
C644 C643 1.398 . S
C644 C645 1.391 . S
C645 H633 0.950 . S
C645 C641 1.393 . S
C645 C644 1.391 . S
C646 H636 0.950 . S
C646 C647 1.386 . S
C646 C648 1.391 . S
C647 C646 1.386 . S
C647 C651 1.393 . S
C648 H637 0.950 . S
C648 C646 1.391 . S
C648 C649 1.400 . S
C649 C643 1.491 . S
C649 C648 1.400 . S
C649 C650 1.398 . S
C650 H638 0.950 . S
C650 C649 1.398 . S
C650 C651 1.391 . S
C651 H639 0.950 . S
C651 C647 1.393 . S
C651 C650 1.391 . S
H652 C660 0.950 . S
H653 C665 0.950 . S
H654 C662 0.950 . S
H655 C664 0.950 . S
H656 C666 0.950 . S
H657 C668 0.950 . S
H658 C670 0.950 . S
H659 C671 0.950 . S
C660 H652 0.950 . S
C660 C661 1.386 . S
C660 C662 1.391 . S
C661 C660 1.386 . S
C661 C665 1.393 . S
C662 H654 0.950 . S
C662 C660 1.391 . S
C662 C663 1.400 . S
C663 C662 1.400 . S
C663 C664 1.398 . S
C663 C669 1.491 . S
C664 H655 0.950 . S
C664 C663 1.398 . S
C664 C665 1.391 . S
C665 H653 0.950 . S
C665 C661 1.393 . S
C665 C664 1.391 . S
C666 H656 0.950 . S
C666 C667 1.386 . S
C666 C668 1.391 . S
C667 C666 1.386 . S
C667 C671 1.393 . S
C668 H657 0.950 . S
C668 C666 1.391 . S
C668 C669 1.400 . S
C669 C663 1.491 . S
C669 C668 1.400 . S
C669 C670 1.398 . S
C670 H658 0.950 . S
C670 C669 1.398 . S
C670 C671 1.391 . S
C671 H659 0.950 . S
C671 C667 1.393 . S
C671 C670 1.391 . S
H672 C680 0.950 . S
H673 C685 0.950 . S
H674 C682 0.950 . S
H675 C684 0.950 . S
H676 C686 0.950 . S
H677 C688 0.950 . S
H678 C690 0.950 . S
H679 C691 0.950 . S
C680 H672 0.950 . S
C680 C681 1.386 . S
C680 C682 1.391 . S
C681 C680 1.386 . S
C681 C685 1.393 . S
C682 H674 0.950 . S
C682 C680 1.391 . S
C682 C683 1.400 . S
C683 C682 1.400 . S
C683 C684 1.398 . S
C683 C689 1.491 . S
C684 H675 0.950 . S
C684 C683 1.398 . S
C684 C685 1.391 . S
C685 H673 0.950 . S
C685 C681 1.393 . S
C685 C684 1.391 . S
C686 H676 0.950 . S
C686 C687 1.386 . S
C686 C688 1.391 . S
C687 C686 1.386 . S
C687 C691 1.393 . S
C688 H677 0.950 . S
C688 C686 1.391 . S
C688 C689 1.400 . S
C689 C683 1.491 . S
C689 C688 1.400 . S
C689 C690 1.398 . S
C690 H678 0.950 . S
C690 C689 1.398 . S
C690 C691 1.391 . S
C691 H679 0.950 . S
C691 C687 1.393 . S
C691 C690 1.391 . S
H692 C700 0.950 . S
H693 C705 0.950 . S
H694 C702 0.950 . S
H695 C704 0.947 1_455 S
H696 C706 0.950 . S
H697 C708 0.950 . S
H698 C710 0.947 1_655 S
H699 C711 0.950 . S
C700 H692 0.950 . S
C700 C701 1.386 . S
C700 C702 1.391 . S
C701 C700 1.386 . S
C701 C705 1.393 . S
C702 H694 0.950 . S
C702 C700 1.391 . S
C702 C703 1.400 . S
C703 C702 1.400 . S
C703 C704 1.398 . S
C703 C709 1.491 1_655 S
C704 H695 0.947 1_655 S
C704 C703 1.398 . S
C704 C705 1.391 . S
C705 H693 0.950 . S
C705 C701 1.393 . S
C705 C704 1.391 . S
C706 H696 0.950 . S
C706 C707 1.386 . S
C706 C708 1.391 . S
C707 C706 1.386 . S
C707 C711 1.393 . S
C708 H697 0.950 . S
C708 C706 1.391 . S
C708 C709 1.400 . S
C709 C703 1.491 1_455 S
C709 C708 1.400 . S
C709 C710 1.398 . S
C710 H698 0.947 1_455 S
C710 C709 1.398 . S
C710 C711 1.391 . S
C711 H699 0.950 . S
C711 C707 1.393 . S
C711 C710 1.391 . S
H712 C720 0.950 . S
H713 C725 0.950 . S
H714 C722 0.950 1_556 S
H715 C724 0.950 1_545 S
H716 C726 0.950 . S
H717 C728 0.950 1_554 S
H718 C730 0.950 1_565 S
H719 C731 0.950 . S
C720 H712 0.950 . S
C720 C721 1.386 . S
C720 C722 1.391 . S
C721 C720 1.386 . S
C721 C725 1.393 . S
C722 H714 0.950 1_554 S
C722 C720 1.391 . S
C722 C723 1.400 . S
C723 C722 1.400 . S
C723 C724 1.398 . S
C723 C729 1.491 1_564 S
C724 H715 0.950 1_565 S
C724 C723 1.398 . S
C724 C725 1.391 . S
C725 H713 0.950 . S
C725 C721 1.393 . S
C725 C724 1.391 . S
C726 H716 0.950 . S
C726 C727 1.386 . S
C726 C728 1.391 . S
C727 C726 1.386 . S
C727 C731 1.393 . S
C728 H717 0.950 1_556 S
C728 C726 1.391 . S
C728 C729 1.400 . S
C729 C723 1.491 1_546 S
C729 C728 1.400 . S
C729 C730 1.398 . S
C730 H718 0.950 1_545 S
C730 C729 1.398 . S
C730 C731 1.391 . S
C731 H719 0.950 . S
C731 C727 1.393 . S
C731 C730 1.391 . S
H732 C740 0.950 . S
H733 C745 0.950 . S
H734 C742 0.950 . S
H735 C744 0.950 . S
H736 C746 0.950 . S
H737 C748 0.950 . S
H738 C750 0.950 . S
H739 C751 0.950 . S
C740 H732 0.950 . S
C740 C741 1.386 . S
C740 C742 1.391 . S
C741 C740 1.386 . S
C741 C745 1.393 . S
C742 H734 0.950 . S
C742 C740 1.391 . S
C742 C743 1.400 . S
C743 C742 1.400 . S
C743 C744 1.398 . S
C743 C749 1.491 . S
C744 H735 0.950 . S
C744 C743 1.398 . S
C744 C745 1.391 . S
C745 H733 0.950 . S
C745 C741 1.393 . S
C745 C744 1.391 . S
C746 H736 0.950 . S
C746 C747 1.386 . S
C746 C748 1.391 . S
C747 C746 1.386 . S
C747 C751 1.393 . S
C748 H737 0.950 . S
C748 C746 1.391 . S
C748 C749 1.400 . S
C749 C743 1.491 . S
C749 C748 1.400 . S
C749 C750 1.398 . S
C750 H738 0.950 . S
C750 C749 1.398 . S
C750 C751 1.391 . S
C751 H739 0.950 . S
C751 C747 1.393 . S
C751 C750 1.391 . S
H752 C760 0.950 . S
H753 C765 0.950 . S
H754 C762 0.950 . S
H755 C764 0.950 . S
H756 C766 0.950 . S
H757 C768 0.950 . S
H758 C770 0.950 . S
H759 C771 0.950 . S
C760 H752 0.950 . S
C760 C761 1.386 . S
C760 C762 1.391 . S
C761 C760 1.386 . S
C761 C765 1.393 . S
C762 H754 0.950 . S
C762 C760 1.391 . S
C762 C763 1.400 . S
C763 C762 1.400 . S
C763 C764 1.398 . S
C763 C769 1.491 1_455 S
C764 H755 0.950 . S
C764 C763 1.398 . S
C764 C765 1.391 . S
C765 H753 0.950 . S
C765 C761 1.393 . S
C765 C764 1.391 . S
C766 H756 0.950 . S
C766 C767 1.386 . S
C766 C768 1.391 . S
C767 C766 1.386 . S
C767 C771 1.393 . S
C768 H757 0.950 . S
C768 C766 1.391 . S
C768 C769 1.400 . S
C769 C763 1.491 1_655 S
C769 C768 1.400 . S
C769 C770 1.398 . S
C770 H758 0.950 . S
C770 C769 1.398 . S
C770 C771 1.391 . S
C771 H759 0.950 . S
C771 C767 1.393 . S
C771 C770 1.391 . S
H772 C780 0.950 . S
H773 C785 0.950 . S
H774 C782 0.950 1_545 S
H775 C784 0.950 . S
H776 C786 0.950 . S
H777 C788 0.950 1_565 S
H778 C790 0.950 . S
H779 C791 0.950 . S
C780 H772 0.950 . S
C780 C781 1.386 . S
C780 C782 1.391 . S
C781 C780 1.386 . S
C781 C785 1.393 . S
C782 H774 0.950 1_565 S
C782 C780 1.391 . S
C782 C783 1.400 . S
C783 C782 1.400 . S
C783 C784 1.398 . S
C783 C789 1.491 1_565 S
C784 H775 0.950 . S
C784 C783 1.398 . S
C784 C785 1.391 . S
C785 H773 0.950 . S
C785 C781 1.393 . S
C785 C784 1.391 . S
C786 H776 0.950 . S
C786 C787 1.386 . S
C786 C788 1.391 . S
C787 C786 1.386 . S
C787 C791 1.393 . S
C788 H777 0.950 1_545 S
C788 C786 1.391 . S
C788 C789 1.400 . S
C789 C783 1.491 1_545 S
C789 C788 1.400 . S
C789 C790 1.398 . S
C790 H778 0.950 . S
C790 C789 1.398 . S
C790 C791 1.391 . S
C791 H779 0.950 . S
C791 C787 1.393 . S
C791 C790 1.391 . S
H792 C800 0.950 . S
H793 C805 0.950 . S
H794 C802 0.950 . S
H795 C804 0.950 . S
H796 C806 0.950 . S
H797 C808 0.950 . S
H798 C810 0.950 . S
H799 C811 0.950 . S
C800 H792 0.950 . S
C800 C801 1.386 . S
C800 C802 1.391 . S
C801 C800 1.386 . S
C801 C805 1.393 . S
C802 H794 0.950 . S
C802 C800 1.391 . S
C802 C803 1.400 . S
C803 C802 1.400 . S
C803 C804 1.398 . S
C803 C809 1.491 . S
C804 H795 0.950 . S
C804 C803 1.398 . S
C804 C805 1.391 . S
C805 H793 0.950 . S
C805 C801 1.393 . S
C805 C804 1.391 . S
C806 H796 0.950 . S
C806 C807 1.386 . S
C806 C808 1.391 . S
C807 C806 1.386 . S
C807 C811 1.393 . S
C808 H797 0.950 . S
C808 C806 1.391 . S
C808 C809 1.400 . S
C809 C803 1.491 . S
C809 C808 1.400 . S
C809 C810 1.398 . S
C810 H798 0.950 . S
C810 C809 1.398 . S
C810 C811 1.391 . S
C811 H799 0.950 . S
C811 C807 1.393 . S
C811 C810 1.391 . S
H812 C820 0.950 . S
H813 C825 0.950 . S
H814 C822 0.950 . S
H815 C824 0.950 . S
H816 C826 0.950 . S
H817 C828 0.950 . S
H818 C830 0.950 . S
H819 C831 0.950 . S
C820 H812 0.950 . S
C820 C821 1.386 . S
C820 C822 1.391 . S
C821 C820 1.386 . S
C821 C825 1.393 . S
C822 H814 0.950 . S
C822 C820 1.391 . S
C822 C823 1.400 . S
C823 C822 1.400 . S
C823 C824 1.398 . S
C823 C829 1.491 . S
C824 H815 0.950 . S
C824 C823 1.398 . S
C824 C825 1.391 . S
C825 H813 0.950 . S
C825 C821 1.393 . S
C825 C824 1.391 . S
C826 H816 0.950 . S
C826 C827 1.386 . S
C826 C828 1.391 . S
C827 C826 1.386 . S
C827 C831 1.393 . S
C828 H817 0.950 . S
C828 C826 1.391 . S
C828 C829 1.400 . S
C829 C823 1.491 . S
C829 C828 1.400 . S
C829 C830 1.398 . S
C830 H818 0.950 . S
C830 C829 1.398 . S
C830 C831 1.391 . S
C831 H819 0.950 . S
C831 C827 1.393 . S
C831 C830 1.391 . S
H832 C840 0.950 . S
H833 C845 0.950 . S
H834 C842 0.950 . S
H835 C844 0.950 . S
H836 C846 0.950 . S
H837 C848 0.950 . S
H838 C850 0.950 . S
H839 C851 0.950 . S
C840 H832 0.950 . S
C840 C841 1.386 1_556 S
C840 C842 1.391 . S
C841 C840 1.386 1_554 S
C841 C845 1.393 . S
C842 H834 0.950 . S
C842 C840 1.391 . S
C842 C843 1.400 . S
C843 C842 1.400 . S
C843 C844 1.398 . S
C843 C849 1.491 . S
C844 H835 0.950 . S
C844 C843 1.398 . S
C844 C845 1.391 1_556 S
C845 H833 0.950 . S
C845 C841 1.393 . S
C845 C844 1.391 1_554 S
C846 H836 0.950 . S
C846 C847 1.386 . S
C846 C848 1.391 . S
C847 C846 1.386 . S
C847 C851 1.393 . S
C848 H837 0.950 . S
C848 C846 1.391 . S
C848 C849 1.400 . S
C849 C843 1.491 . S
C849 C848 1.400 . S
C849 C850 1.398 . S
C850 H838 0.950 . S
C850 C849 1.398 . S
C850 C851 1.391 . S
C851 H839 0.950 . S
C851 C847 1.393 . S
C851 C850 1.391 . S
H852 C860 0.950 . S
H853 C865 0.950 . S
H854 C862 0.950 . S
H855 C864 0.950 . S
H856 C866 0.956 . S
H857 C868 0.950 . S
H858 C870 0.950 . S
H859 C871 0.950 . S
C860 H852 0.950 . S
C860 C861 1.386 . S
C860 C862 1.391 . S
C861 C860 1.386 . S
C861 C865 1.393 . S
C862 H854 0.950 . S
C862 C860 1.391 . S
C862 C863 1.400 . S
C863 C862 1.400 . S
C863 C864 1.398 . S
C863 C869 1.491 . S
C864 H855 0.950 . S
C864 C863 1.398 . S
C864 C865 1.391 . S
C865 H853 0.950 . S
C865 C861 1.393 . S
C865 C864 1.391 . S
C866 H856 0.956 . S
C866 C867 1.386 1_554 S
C866 C868 1.391 . S
C867 C866 1.386 1_556 S
C867 C871 1.393 1_556 S
C868 H857 0.950 . S
C868 C866 1.391 . S
C868 C869 1.400 . S
C869 C863 1.491 . S
C869 C868 1.400 . S
C869 C870 1.398 . S
C870 H858 0.950 . S
C870 C869 1.398 . S
C870 C871 1.391 . S
C871 H859 0.950 . S
C871 C867 1.393 1_554 S
C871 C870 1.391 . S
H872 C880 0.950 . S
H873 C885 0.950 . S
H874 C882 0.950 . S
H875 C884 0.950 . S
H876 C886 0.950 . S
H877 C888 0.950 . S
H878 C890 0.950 . S
H879 C891 0.950 . S
C880 H872 0.950 . S
C880 C881 1.386 . S
C880 C882 1.391 . S
C881 C880 1.386 . S
C881 C885 1.393 . S
C882 H874 0.950 . S
C882 C880 1.391 . S
C882 C883 1.400 . S
C883 C882 1.400 . S
C883 C884 1.398 . S
C883 C889 1.491 . S
C884 H875 0.950 . S
C884 C883 1.398 . S
C884 C885 1.391 . S
C885 H873 0.950 . S
C885 C881 1.393 . S
C885 C884 1.391 . S
C886 H876 0.950 . S
C886 C887 1.386 . S
C886 C888 1.391 . S
C887 C886 1.386 . S
C887 C891 1.393 . S
C888 H877 0.950 . S
C888 C886 1.391 . S
C888 C889 1.400 . S
C889 C883 1.491 . S
C889 C888 1.400 . S
C889 C890 1.398 . S
C890 H878 0.950 . S
C890 C889 1.398 . S
C890 C891 1.391 . S
C891 H879 0.950 . S
C891 C887 1.393 . S
C891 C890 1.391 . S
H892 C900 0.950 . S
H893 C905 0.950 . S
H894 C902 0.950 . S
H895 C904 0.950 . S
H896 C906 0.950 . S
H897 C908 0.950 . S
H898 C910 0.950 . S
H899 C911 0.950 . S
C900 H892 0.950 . S
C900 C901 1.386 . S
C900 C902 1.391 . S
C901 C900 1.386 . S
C901 C905 1.393 . S
C902 H894 0.950 . S
C902 C900 1.391 . S
C902 C903 1.400 . S
C903 C902 1.400 . S
C903 C904 1.398 . S
C903 C909 1.491 . S
C904 H895 0.950 . S
C904 C903 1.398 . S
C904 C905 1.391 . S
C905 H893 0.950 . S
C905 C901 1.393 . S
C905 C904 1.391 . S
C906 H896 0.950 . S
C906 C907 1.386 . S
C906 C908 1.391 . S
C907 C906 1.386 . S
C907 C911 1.393 . S
C908 H897 0.950 . S
C908 C906 1.391 . S
C908 C909 1.400 . S
C909 C903 1.491 . S
C909 C908 1.400 . S
C909 C910 1.398 . S
C910 H898 0.950 . S
C910 C909 1.398 . S
C910 C911 1.391 . S
C911 H899 0.950 . S
C911 C907 1.393 . S
C911 C910 1.391 . S
C441 C328 1.453 1_554 S
C447 C4 1.451 . S
C461 C40 1.464 . S
C467 C364 1.469 . S
C481 C400 1.456 . S
C487 C76 1.450 . S
C501 C220 1.458 . S
C507 C112 1.450 . S
C521 C256 1.467 . S
C527 C148 1.457 1_556 S
C541 C292 1.469 . S
C547 C184 1.458 . S
C561 C230 1.377 . S
C567 C14 1.384 . S
C581 C50 1.381 . S
C587 C266 1.380 . S
C601 C302 1.400 . S
C607 C86 1.363 . S
C621 C122 1.377 . S
C627 C338 1.383 . S
C641 C374 1.378 . S
C647 C158 1.387 . S
C661 C194 1.386 . S
C667 C410 1.374 . S
C681 C326 1.387 . S
C687 C2 1.385 . S
C701 C362 1.386 . S
C707 C38 1.387 . S
C721 C398 1.385 . S
C727 C74 1.387 . S
C741 C110 1.385 . S
C747 C218 1.387 . S
C761 C254 1.386 . S
C767 C146 1.387 . S
C781 C182 1.386 . S
C787 C290 1.385 . S
C801 C3 1.195 . S
C807 C291 1.195 . S
C821 C327 1.203 . S
C827 C39 1.203 . S
C841 C363 1.197 . S
C847 C75 1.197 . S
C861 C399 1.194 . S
C867 C111 1.194 . S
C881 C219 1.206 . S
C887 C147 1.206 . S
C901 C255 1.199 . S
C907 C183 1.199 . S
