# Generated by pormake.
# Topology why, (6)-cn, num edge types: 1
# Building blocks:
#     Node 0, Type 0, BuildingBlock: BETFAJ_clean_sbu_0, # of connection points: 6
#     Node 1, Type 0, BuildingBlock: BETFAJ_clean_sbu_0, # of connection points: 6
#     Node 2, Type 0, BuildingBlock: BETFAJ_clean_sbu_0, # of connection points: 6
#     Node 3, Type 0, BuildingBlock: BETFAJ_clean_sbu_0, # of connection points: 6
#     Node 4, Type 0, BuildingBlock: BETFAJ_clean_sbu_0, # of connection points: 6
#     Node 5, Type 0, BuildingBlock: BETFAJ_clean_sbu_0, # of connection points: 6
#     Node 6, Type 0, BuildingBlock: BETFAJ_clean_sbu_0, # of connection points: 6
#     Node 7, Type 0, BuildingBlock: BETFAJ_clean_sbu_0, # of connection points: 6
#     Node 8, Type 0, BuildingBlock: BETFAJ_clean_sbu_0, # of connection points: 6
#     Node 9, Type 0, BuildingBlock: BETFAJ_clean_sbu_0, # of connection points: 6
#     Node 10, Type 0, BuildingBlock: BETFAJ_clean_sbu_0, # of connection points: 6
#     Node 11, Type 0, BuildingBlock: BETFAJ_clean_sbu_0, # of connection points: 6
#     Node 12, Type 0, BuildingBlock: BETFAJ_clean_sbu_0, # of connection points: 6
#     Node 13, Type 0, BuildingBlock: BETFAJ_clean_sbu_0, # of connection points: 6
#     Node 14, Type 0, BuildingBlock: BETFAJ_clean_sbu_0, # of connection points: 6
#     Node 15, Type 0, BuildingBlock: BETFAJ_clean_sbu_0, # of connection points: 6
#     Edge 16, Type (0, 0), BuildingBlock: XUDNAN_clean_linker_2, # of connection points: 2
#     Edge 17, Type (0, 0), BuildingBlock: XUDNAN_clean_linker_2, # of connection points: 2
#     Edge 18, Type (0, 0), BuildingBlock: XUDNAN_clean_linker_2, # of connection points: 2
#     Edge 19, Type (0, 0), BuildingBlock: XUDNAN_clean_linker_2, # of connection points: 2
#     Edge 20, Type (0, 0), BuildingBlock: XUDNAN_clean_linker_2, # of connection points: 2
#     Edge 21, Type (0, 0), BuildingBlock: XUDNAN_clean_linker_2, # of connection points: 2
#     Edge 22, Type (0, 0), BuildingBlock: XUDNAN_clean_linker_2, # of connection points: 2
#     Edge 23, Type (0, 0), BuildingBlock: XUDNAN_clean_linker_2, # of connection points: 2
#     Edge 24, Type (0, 0), BuildingBlock: XUDNAN_clean_linker_2, # of connection points: 2
#     Edge 25, Type (0, 0), BuildingBlock: XUDNAN_clean_linker_2, # of connection points: 2
#     Edge 26, Type (0, 0), BuildingBlock: XUDNAN_clean_linker_2, # of connection points: 2
#     Edge 27, Type (0, 0), BuildingBlock: XUDNAN_clean_linker_2, # of connection points: 2
#     Edge 28, Type (0, 0), BuildingBlock: XUDNAN_clean_linker_2, # of connection points: 2
#     Edge 29, Type (0, 0), BuildingBlock: XUDNAN_clean_linker_2, # of connection points: 2
#     Edge 30, Type (0, 0), BuildingBlock: XUDNAN_clean_linker_2, # of connection points: 2
#     Edge 31, Type (0, 0), BuildingBlock: XUDNAN_clean_linker_2, # of connection points: 2
#     Edge 32, Type (0, 0), BuildingBlock: XUDNAN_clean_linker_2, # of connection points: 2
#     Edge 33, Type (0, 0), BuildingBlock: XUDNAN_clean_linker_2, # of connection points: 2
#     Edge 34, Type (0, 0), BuildingBlock: XUDNAN_clean_linker_2, # of connection points: 2
#     Edge 35, Type (0, 0), BuildingBlock: XUDNAN_clean_linker_2, # of connection points: 2
#     Edge 36, Type (0, 0), BuildingBlock: XUDNAN_clean_linker_2, # of connection points: 2
#     Edge 37, Type (0, 0), BuildingBlock: XUDNAN_clean_linker_2, # of connection points: 2
#     Edge 38, Type (0, 0), BuildingBlock: XUDNAN_clean_linker_2, # of connection points: 2
#     Edge 39, Type (0, 0), BuildingBlock: XUDNAN_clean_linker_2, # of connection points: 2
#     Edge 40, Type (0, 0), BuildingBlock: XUDNAN_clean_linker_2, # of connection points: 2
#     Edge 41, Type (0, 0), BuildingBlock: XUDNAN_clean_linker_2, # of connection points: 2
#     Edge 42, Type (0, 0), BuildingBlock: XUDNAN_clean_linker_2, # of connection points: 2
#     Edge 43, Type (0, 0), BuildingBlock: XUDNAN_clean_linker_2, # of connection points: 2
#     Edge 44, Type (0, 0), BuildingBlock: XUDNAN_clean_linker_2, # of connection points: 2
#     Edge 45, Type (0, 0), BuildingBlock: XUDNAN_clean_linker_2, # of connection points: 2
#     Edge 46, Type (0, 0), BuildingBlock: XUDNAN_clean_linker_2, # of connection points: 2
#     Edge 47, Type (0, 0), BuildingBlock: XUDNAN_clean_linker_2, # of connection points: 2
#     Edge 48, Type (0, 0), BuildingBlock: XUDNAN_clean_linker_2, # of connection points: 2
#     Edge 49, Type (0, 0), BuildingBlock: XUDNAN_clean_linker_2, # of connection points: 2
#     Edge 50, Type (0, 0), BuildingBlock: XUDNAN_clean_linker_2, # of connection points: 2
#     Edge 51, Type (0, 0), BuildingBlock: XUDNAN_clean_linker_2, # of connection points: 2
#     Edge 52, Type (0, 0), BuildingBlock: XUDNAN_clean_linker_2, # of connection points: 2
#     Edge 53, Type (0, 0), BuildingBlock: XUDNAN_clean_linker_2, # of connection points: 2
#     Edge 54, Type (0, 0), BuildingBlock: XUDNAN_clean_linker_2, # of connection points: 2
#     Edge 55, Type (0, 0), BuildingBlock: XUDNAN_clean_linker_2, # of connection points: 2
#     Edge 56, Type (0, 0), BuildingBlock: XUDNAN_clean_linker_2, # of connection points: 2
#     Edge 57, Type (0, 0), BuildingBlock: XUDNAN_clean_linker_2, # of connection points: 2
#     Edge 58, Type (0, 0), BuildingBlock: XUDNAN_clean_linker_2, # of connection points: 2
#     Edge 59, Type (0, 0), BuildingBlock: XUDNAN_clean_linker_2, # of connection points: 2
#     Edge 60, Type (0, 0), BuildingBlock: XUDNAN_clean_linker_2, # of connection points: 2
#     Edge 61, Type (0, 0), BuildingBlock: XUDNAN_clean_linker_2, # of connection points: 2
#     Edge 62, Type (0, 0), BuildingBlock: XUDNAN_clean_linker_2, # of connection points: 2
#     Edge 63, Type (0, 0), BuildingBlock: XUDNAN_clean_linker_2, # of connection points: 2
# Relax obj value: 0.423
# Max RMSD: 0.230
# Mean RMSD: 0.230
data_MOF--net-why--node1-BETFAJ_clean_sbu_0--edge1-XUDNAN_clean_linker_2
_symmetry_space_group_name_H-M    P1
_symmetry_Int_Tables_number       1
_symmetry_cell_setting            triclinic
loop_
_symmetry_equiv_pos_as_xyz
'x, y, z'
_cell_length_a     49.312195
_cell_length_b     49.93836
_cell_length_c     38.774774
_cell_angle_alpha  89.96771
_cell_angle_beta   89.75648
_cell_angle_gamma 90.309913
loop_
_atom_site_label
_atom_site_type_symbol
_atom_site_fract_x
_atom_site_fract_y
_atom_site_fract_z
_atom_type_partial_charge
Sm0 Sm 0.49356 0.21536 0.05832 0.0
Sm1 Sm 0.4699 0.24163 0.10326 0.0
C2 C 0.52662 0.19255 0.01315 0.0
C3 C 0.53948 0.20039 0.98033 0.0
C4 C 0.56668 0.19384 0.97419 0.0
C5 C 0.57874 0.1997 0.94237 0.0
C6 C 0.56365 0.21196 0.91615 0.0
C7 C 0.53671 0.2194 0.92277 0.0
C8 C 0.52476 0.21387 0.95471 0.0
C9 C 0.48007 0.17822 0.11368 0.0
C10 C 0.53125 0.26644 0.09124 0.0
C11 C 0.43946 0.26064 0.15353 0.0
C12 C 0.42835 0.28787 0.15555 0.0
C13 C 0.43343 0.30368 0.1847 0.0
C14 C 0.42689 0.33086 0.18459 0.0
C15 C 0.41507 0.34261 0.15536 0.0
C16 C 0.40954 0.32668 0.12644 0.0
C17 C 0.41631 0.29961 0.12641 0.0
C18 C 0.47833 0.27759 0.05064 0.0
C19 C 0.42928 0.22229 0.03722 0.0
O20 O 0.50035 0.18941 0.01286 0.0
O21 O 0.53525 0.20481 0.04076 0.0
O22 O 0.49116 0.20142 0.11708 0.0
O23 O 0.47349 0.17647 0.08149 0.0
O24 O 0.52819 0.25024 0.06424 0.0
O25 O 0.51181 0.2641 0.11487 0.0
O26 O 0.4298 0.24525 0.1293 0.0
O27 O 0.46576 0.25937 0.15562 0.0
O28 O 0.4715 0.2535 0.04615 0.0
O29 O 0.47943 0.28374 0.08293 0.0
O30 O 0.43003 0.2298 0.07027 0.0
O31 O 0.45337 0.21679 0.02357 0.0
H32 H 0.57839 0.18363 0.99372 0.0
H33 H 0.59948 0.19357 0.93775 0.0
H34 H 0.52476 0.22904 0.90298 0.0
H35 H 0.50386 0.21958 0.95906 0.0
H36 H 0.44311 0.29515 0.20717 0.0
H37 H 0.43086 0.34265 0.20748 0.0
H38 H 0.4004 0.33528 0.10364 0.0
H39 H 0.41277 0.28808 0.10318 0.0
Sm40 Sm 0.7364 0.73462 0.30519 0.0
Sm41 Sm 0.70684 0.71241 0.34996 0.0
C42 C 0.76106 0.76591 0.25923 0.0
C43 C 0.7537 0.77861 0.22599 0.0
C44 C 0.75454 0.76393 0.19507 0.0
C45 C 0.74776 0.77597 0.16377 0.0
C46 C 0.74002 0.80302 0.16252 0.0
C47 C 0.73916 0.81771 0.19346 0.0
C48 C 0.746 0.80566 0.22481 0.0
C49 C 0.772 0.72043 0.36169 0.0
C50 C 0.68409 0.77358 0.33554 0.0
C51 C 0.68497 0.68338 0.39989 0.0
C52 C 0.65661 0.67452 0.40242 0.0
C53 C 0.64422 0.67099 0.43461 0.0
C54 C 0.61665 0.66448 0.43665 0.0
C55 C 0.60102 0.66168 0.40647 0.0
C56 C 0.61359 0.66537 0.37428 0.0
C57 C 0.64112 0.67169 0.37228 0.0
C58 C 0.67335 0.72143 0.29493 0.0
C59 C 0.72753 0.67092 0.28508 0.0
O60 O 0.76311 0.73988 0.25948 0.0
O61 O 0.74936 0.77509 0.28707 0.0
O62 O 0.7487 0.73187 0.36453 0.0
O63 O 0.77452 0.71433 0.32944 0.0
O64 O 0.70256 0.76982 0.31068 0.0
O65 O 0.68328 0.75413 0.35896 0.0
O66 O 0.69895 0.67298 0.37469 0.0
O67 O 0.6887 0.70914 0.4025 0.0
O68 O 0.69746 0.71354 0.29234 0.0
O69 O 0.66564 0.72327 0.32669 0.0
O70 O 0.7186 0.67234 0.3177 0.0
O71 O 0.73453 0.69436 0.27136 0.0
H72 H 0.76059 0.74312 0.1949 0.0
H73 H 0.74915 0.76416 0.14042 0.0
H74 H 0.73304 0.8385 0.19351 0.0
H75 H 0.74525 0.81755 0.24815 0.0
H76 H 0.6558 0.67334 0.4581 0.0
H77 H 0.60771 0.66118 0.46187 0.0
H78 H 0.60214 0.66347 0.35062 0.0
H79 H 0.65027 0.67455 0.3471 0.0
Sm80 Sm 0.21386 0.97406 0.56048 0.0
Sm81 Sm 0.24039 0.94181 0.60563 0.0
C82 C 0.18151 0.99747 0.51534 0.0
C83 C 0.16926 0.99051 0.48187 0.0
C84 C 0.14095 0.98873 0.47915 0.0
C85 C 0.1289 0.98184 0.44784 0.0
C86 C 0.14495 0.97677 0.41852 0.0
C87 C 0.17333 0.97855 0.42131 0.0
C88 C 0.18537 0.98533 0.45266 0.0
C89 C 0.22588 1.00577 0.62067 0.0
C90 C 0.1777 0.92017 0.5938 0.0
C91 C 0.26701 0.92354 0.6598 0.0
C92 C 0.25954 0.90458 0.68708 0.0
C93 C 0.27576 0.90236 0.71636 0.0
C94 C 0.26931 0.88357 0.74178 0.0
C95 C 0.24641 0.86677 0.73835 0.0
C96 C 0.22972 0.8697 0.70935 0.0
C97 C 0.23624 0.88849 0.68391 0.0
C98 C 0.22923 0.9142 0.54618 0.0
C99 C 0.28039 0.96707 0.54199 0.0
O100 O 0.20773 1.00126 0.51599 0.0
O101 O 0.17253 0.98416 0.5421 0.0
O102 O 0.21715 0.98132 0.62013 0.0
O103 O 0.22961 1.01276 0.58889 0.0
O104 O 0.17969 0.93834 0.56832 0.0
O105 O 0.19804 0.92018 0.61622 0.0
O106 O 0.26948 0.91341 0.62897 0.0
O107 O 0.25376 0.94609 0.66 0.0
O108 O 0.23751 0.93794 0.54814 0.0
O109 O 0.22847 0.90279 0.57632 0.0
O110 O 0.27972 0.95782 0.57442 0.0
O111 O 0.25625 0.97328 0.52852 0.0
H112 H 0.12812 0.99257 0.50133 0.0
H113 H 0.10701 0.98028 0.44671 0.0
H114 H 0.18627 0.97515 0.39914 0.0
H115 H 0.20728 0.9865 0.45391 0.0
H116 H 0.29376 0.9147 0.71918 0.0
H117 H 0.28302 0.88143 0.76335 0.0
H118 H 0.21199 0.85707 0.70599 0.0
H119 H 0.22342 0.89005 0.66143 0.0
Sm120 Sm 0.9749 0.45362 0.80873 0.0
Sm121 Sm 1.00538 0.4767 0.85323 0.0
C122 C 0.94983 0.42096 0.76513 0.0
C123 C 0.95692 0.40486 0.7346 0.0
C124 C 0.94172 0.40758 0.70435 0.0
C125 C 0.94807 0.39246 0.67512 0.0
C126 C 0.96967 0.37417 0.67571 0.0
C127 C 0.98483 0.37148 0.70616 0.0
C128 C 0.97863 0.38676 0.73524 0.0
C129 C 0.94221 0.46361 0.86931 0.0
C130 C 1.02775 0.41598 0.8394 0.0
C131 C 1.01662 0.51041 0.90377 0.0
C132 C 1.02165 0.53934 0.90337 0.0
C133 C 1.01427 0.55487 0.93187 0.0
C134 C 1.01812 0.58258 0.93118 0.0
C135 C 1.02932 0.59515 0.90186 0.0
C136 C 1.03589 0.57955 0.87292 0.0
C137 C 1.03206 0.55185 0.87366 0.0
C138 C 1.03838 0.46895 0.79794 0.0
C139 C 0.98305 0.51759 0.78814 0.0
O140 O 0.95037 0.44691 0.76134 0.0
O141 O 0.95979 0.41325 0.79462 0.0
O142 O 0.96616 0.45354 0.86822 0.0
O143 O 0.93647 0.47074 0.83808 0.0
O144 O 1.01044 0.42035 0.81351 0.0
O145 O 1.02712 0.43445 0.86424 0.0
O146 O 0.99196 0.50337 0.89567 0.0
O147 O 1.03494 0.49546 0.88905 0.0
O148 O 1.01373 0.47586 0.79541 0.0
O149 O 1.04649 0.46745 0.82969 0.0
O150 O 0.99468 0.51605 0.81917 0.0
O151 O 0.97371 0.49446 0.77592 0.0
H152 H 0.92496 0.4215 0.70328 0.0
H153 H 0.93625 0.39538 0.65197 0.0
H154 H 1.00134 0.35732 0.70773 0.0
H155 H 0.99078 0.38427 0.75821 0.0
H156 H 1.00582 0.54554 0.95478 0.0
H157 H 1.01337 0.594 0.95415 0.0
H158 H 1.04452 0.58871 0.85 0.0
H159 H 1.03743 0.5402 0.85111 0.0
Sm160 Sm 0.74268 0.94567 0.89785 0.0
Sm161 Sm 0.71841 0.97213 0.94473 0.0
C162 C 0.7686 0.93162 0.84074 0.0
C163 C 0.76105 0.91311 0.81312 0.0
C164 C 0.77746 0.91077 0.78386 0.0
C165 C 0.77065 0.89249 0.75808 0.0
C166 C 0.74715 0.87639 0.76108 0.0
C167 C 0.73032 0.87948 0.79007 0.0
C168 C 0.73728 0.89765 0.81592 0.0
C169 C 0.73337 0.9101 0.95046 0.0
C170 C 0.78326 0.96593 0.96352 0.0
C171 C 0.6864 0.99534 0.99081 0.0
C172 C 0.67163 0.98665 0.02166 0.0
C173 C 0.66764 0.95932 0.02855 0.0
C174 C 0.65321 0.95129 0.05789 0.0
C175 C 0.64289 0.97052 0.08084 0.0
C176 C 0.64742 0.99785 0.07407 0.0
C177 C 0.66166 1.00584 0.04463 0.0
C178 C 0.73209 1.0092 0.88966 0.0
C179 C 0.68038 0.92198 0.90948 0.0
O180 O 0.77321 0.92072 0.87066 0.0
O181 O 0.7537 0.953 0.84306 0.0
O182 O 0.74105 0.93403 0.95469 0.0
O183 O 0.73106 0.9039 0.91808 0.0
O184 O 0.78248 0.95938 0.93002 0.0
O185 O 0.7592 0.97032 0.97793 0.0
O186 O 0.71275 0.99515 0.99316 0.0
O187 O 0.6777 0.98572 0.96156 0.0
O188 O 0.72071 0.98609 0.88652 0.0
O189 O 0.73869 1.01098 0.92183 0.0
O190 O 0.6836 0.93746 0.93725 0.0
O191 O 0.69997 0.92457 0.88598 0.0
H192 H 0.79585 0.92261 0.78133 0.0
H193 H 0.7845 0.89017 0.73655 0.0
H194 H 0.71216 0.86741 0.79316 0.0
H195 H 0.72437 0.89924 0.8384 0.0
H196 H 0.67556 0.94424 0.01117 0.0
H197 H 0.65018 0.93011 0.0627 0.0
H198 H 0.6394 1.01307 0.09114 0.0
H199 H 0.66472 1.027 0.03966 0.0
Sm200 Sm 0.50835 0.47685 0.65263 0.0
Sm201 Sm 0.47931 0.45506 0.69899 0.0
C202 C 0.52185 0.50483 0.5971 0.0
C203 C 0.50973 0.52513 0.57444 0.0
C204 C 0.48726 0.51942 0.55335 0.0
C205 C 0.47813 0.53842 0.52956 0.0
C206 C 0.49122 0.5634 0.52674 0.0
C207 C 0.51274 0.5694 0.54926 0.0
C208 C 0.52189 0.55047 0.57273 0.0
C209 C 0.5429 0.46846 0.70637 0.0
C210 C 0.48767 0.51885 0.71665 0.0
C211 C 0.45437 0.4246 0.74547 0.0
C212 C 0.46167 0.41143 0.77831 0.0
C213 C 0.45659 0.42438 0.80983 0.0
C214 C 0.46346 0.4122 0.84095 0.0
C215 C 0.47535 0.3867 0.84131 0.0
C216 C 0.48031 0.37364 0.80984 0.0
C217 C 0.47354 0.38588 0.77863 0.0
C218 C 0.44346 0.46878 0.64288 0.0
C219 C 0.53131 0.41587 0.66862 0.0
O220 O 0.512 0.48054 0.59576 0.0
O221 O 0.52762 0.51245 0.62837 0.0
O222 O 0.51869 0.47615 0.7099 0.0
O223 O 0.55005 0.46633 0.67425 0.0
O224 O 0.49475 0.51712 0.68331 0.0
O225 O 0.4823 0.49554 0.73169 0.0
O226 O 0.45354 0.4507 0.74568 0.0
O227 O 0.46516 0.41512 0.71721 0.0
O228 O 0.46642 0.4568 0.64039 0.0
O229 O 0.44133 0.47579 0.67486 0.0
O230 O 0.51285 0.4198 0.69343 0.0
O231 O 0.5323 0.43515 0.64486 0.0
H232 H 0.4773 0.50004 0.55437 0.0
H233 H 0.46159 0.53322 0.5125 0.0
H234 H 0.52385 0.58811 0.54731 0.0
H235 H 0.53925 0.55531 0.58865 0.0
H236 H 0.44719 0.44392 0.81051 0.0
H237 H 0.45892 0.42256 0.86481 0.0
H238 H 0.48957 0.35403 0.80933 0.0
H239 H 0.47762 0.37531 0.7548 0.0
Sm240 Sm 0.97505 0.24202 0.4016 0.0
Sm241 Sm 1.00117 0.20971 0.44299 0.0
C242 C 0.96048 0.25932 0.34019 0.0
C243 C 0.94372 0.24847 0.31246 0.0
C244 C 0.94607 0.25916 0.27926 0.0
C245 C 0.9284 0.25079 0.2534 0.0
C246 C 0.90804 0.23169 0.26052 0.0
C247 C 0.90714 0.21955 0.29321 0.0
C248 C 0.92497 0.22783 0.31902 0.0
C249 C 0.97876 0.26757 0.46341 0.0
C250 C 0.93417 0.22031 0.46256 0.0
C251 C 1.02303 0.1811 0.49329 0.0
C252 C 1.03567 0.18776 0.52633 0.0
C253 C 1.03307 0.21356 0.54018 0.0
C254 C 1.04583 0.22012 0.57115 0.0
C255 C 1.06149 0.20101 0.58863 0.0
C256 C 1.06415 0.17522 0.57445 0.0
C257 C 1.0513 0.16866 0.54351 0.0
C258 C 0.99289 0.1804 0.37978 0.0
C259 C 1.03943 0.26336 0.41432 0.0
O260 O 0.98315 0.24657 0.34567 0.0
O261 O 0.9477 0.26586 0.3686 0.0
O262 O 0.99747 0.25392 0.4499 0.0
O263 O 0.95786 0.26992 0.44324 0.0
O264 O 0.93439 0.23037 0.43072 0.0
O265 O 0.9581 0.21165 0.47425 0.0
O266 O 0.99706 0.18568 0.49098 0.0
O267 O 1.03644 0.18896 0.46604 0.0
O268 O 0.97564 0.1954 0.39548 0.0
O269 O 1.01518 0.18196 0.39706 0.0
O270 O 1.03876 0.24131 0.43426 0.0
O271 O 1.01646 0.26819 0.39754 0.0
H272 H 0.96075 0.27483 0.27375 0.0
H273 H 0.92934 0.26084 0.22865 0.0
H274 H 0.89162 0.20483 0.29933 0.0
H275 H 0.92336 0.21898 0.34448 0.0
H276 H 1.0213 0.22864 0.52694 0.0
H277 H 1.04367 0.24024 0.58121 0.0
H278 H 1.07584 0.16001 0.58753 0.0
H279 H 1.0536 0.14871 0.53297 0.0
Sm280 Sm 0.20972 0.71093 0.15615 0.0
Sm281 Sm 0.23937 0.73572 0.20108 0.0
C282 C 0.19425 0.6852 0.09991 0.0
C283 C 0.17469 0.69144 0.07238 0.0
C284 C 0.18408 0.6998 0.03982 0.0
C285 C 0.16579 0.70575 0.01355 0.0
C286 C 0.13773 0.70317 0.0192 0.0
C287 C 0.12838 0.69551 0.05211 0.0
C288 C 0.14664 0.68975 0.07841 0.0
C289 C 0.17675 0.72038 0.2113 0.0
C290 C 0.23301 0.67151 0.22164 0.0
C291 C 0.26275 0.76866 0.24569 0.0
C292 C 0.25362 0.78451 0.27553 0.0
C293 C 0.23595 0.77366 0.30053 0.0
C294 C 0.22727 0.78928 0.32835 0.0
C295 C 0.2357 0.81609 0.33126 0.0
C296 C 0.25327 0.82687 0.30612 0.0
C297 C 0.2622 0.81118 0.27859 0.0
C298 C 0.27467 0.72168 0.14461 0.0
C299 C 0.18612 0.77229 0.16933 0.0
O300 O 0.1845 0.67985 0.13049 0.0
O301 O 0.21579 0.70044 0.10107 0.0
O302 O 0.20117 0.71308 0.21353 0.0
O303 O 0.16853 0.72204 0.17955 0.0
O304 O 0.22231 0.67154 0.18986 0.0
O305 O 0.24077 0.69531 0.23351 0.0
O306 O 0.26247 0.74268 0.24923 0.0
O307 O 0.25398 0.77642 0.2156 0.0
O308 O 0.251 0.73241 0.1423 0.0
O309 O 0.27801 0.71633 0.17693 0.0
O310 O 0.20423 0.76927 0.19458 0.0
O311 O 0.18591 0.7525 0.14623 0.0
H312 H 0.20562 0.70146 0.03454 0.0
H313 H 0.17363 0.71165 0.98852 0.0
H314 H 0.10695 0.69267 0.0572 0.0
H315 H 0.13869 0.68349 0.10324 0.0
H316 H 0.22875 0.75318 0.29852 0.0
H317 H 0.21366 0.78058 0.34731 0.0
H318 H 0.26037 0.84738 0.30798 0.0
H319 H 0.27577 0.81992 0.25956 0.0
Sm320 Sm 0.99949 0.71173 0.5601 0.0
Sm321 Sm 0.96768 0.7415 0.6012 0.0
C322 C 1.03612 0.68875 0.51997 0.0
C323 C 1.05399 0.69843 0.49242 0.0
C324 C 1.05212 0.72502 0.48102 0.0
C325 C 1.06589 0.7332 0.45127 0.0
C326 C 1.08176 0.7149 0.4326 0.0
C327 C 1.08465 0.68864 0.4452 0.0
C328 C 1.07075 0.68045 0.47488 0.0
C329 C 0.98358 0.67896 0.61832 0.0
C330 C 1.03005 0.76819 0.59465 0.0
C331 C 0.93588 0.75654 0.65206 0.0
C332 C 0.90628 0.76053 0.65289 0.0
C333 C 0.88829 0.73928 0.64542 0.0
C334 C 0.86034 0.7435 0.64482 0.0
C335 C 0.84992 0.76907 0.65117 0.0
C336 C 0.8679 0.79031 0.65841 0.0
C337 C 0.89581 0.78605 0.65935 0.0
C338 C 0.97131 0.76628 0.53832 0.0
C339 C 0.93482 0.71581 0.53306 0.0
O340 O 1.01032 0.68973 0.51264 0.0
O341 O 1.04149 0.69705 0.55119 0.0
O342 O 0.99171 0.70347 0.61869 0.0
O343 O 0.98155 0.67249 0.58619 0.0
O344 O 1.0319 0.7482 0.57152 0.0
O345 O 1.00697 0.76872 0.61295 0.0
O346 O 0.9439 0.73181 0.64797 0.0
O347 O 0.95003 0.77375 0.63382 0.0
O348 O 0.99046 0.75514 0.55392 0.0
O349 O 0.94907 0.76564 0.55633 0.0
O350 O 0.93149 0.72446 0.56537 0.0
O351 O 0.96034 0.71079 0.52362 0.0
H352 H 1.03913 0.7391 0.49432 0.0
H353 H 1.06352 0.75362 0.44234 0.0
H354 H 1.0965 0.67403 0.43115 0.0
H355 H 1.0722 0.65981 0.48327 0.0
H356 H 0.89571 0.71935 0.63995 0.0
H357 H 0.84687 0.72682 0.63942 0.0
H358 H 0.86032 0.81013 0.66425 0.0
H359 H 0.90922 0.80271 0.66506 0.0
Sm360 Sm 0.23342 0.23262 0.80733 0.0
Sm361 Sm 0.20371 0.20997 0.8533 0.0
C362 C 0.25834 0.26401 0.76179 0.0
C363 C 0.25363 0.27553 0.72752 0.0
C364 C 0.2277 0.2836 0.7169 0.0
C365 C 0.22399 0.29438 0.68392 0.0
C366 C 0.24608 0.29684 0.66108 0.0
C367 C 0.27192 0.2887 0.67195 0.0
C368 C 0.27563 0.27818 0.70487 0.0
C369 C 0.26681 0.22417 0.86739 0.0
C370 C 0.18084 0.27052 0.83899 0.0
C371 C 0.19422 0.17678 0.90502 0.0
C372 C 0.19311 0.14726 0.90621 0.0
C373 C 0.2144 0.13296 0.92145 0.0
C374 C 0.21432 0.10499 0.92125 0.0
C375 C 0.19278 1.09074 0.90615 0.0
C376 C 0.17174 0.10514 0.89036 0.0
C377 C 0.17194 0.13306 0.89029 0.0
C378 C 0.17022 0.21689 0.79872 0.0
C379 C 0.22531 0.16829 0.78853 0.0
O380 O 0.26165 0.23815 0.76301 0.0
O381 O 0.2436 0.27308 0.78721 0.0
O382 O 0.24276 0.23399 0.86654 0.0
O383 O 0.27233 0.21659 0.83628 0.0
O384 O 0.19816 0.26616 0.81292 0.0
O385 O 0.18146 0.25207 0.8639 0.0
O386 O 0.2181 0.18702 0.89857 0.0
O387 O 0.17487 0.18907 0.88855 0.0
O388 O 0.19481 0.20983 0.79578 0.0
O389 O 0.16238 0.21906 0.83064 0.0
O390 O 0.21487 0.17006 0.82036 0.0
O391 O 0.23335 0.19151 0.77501 0.0
H392 H 0.21038 0.28151 0.734 0.0
H393 H 0.20387 0.3004 0.67608 0.0
H394 H 0.28938 0.29074 0.65508 0.0
H395 H 0.29576 0.27207 0.71266 0.0
H396 H 0.23114 0.14343 0.93354 0.0
H397 H 0.23087 0.09453 0.93351 0.0
H398 H 0.15446 0.09492 0.87922 0.0
H399 H 0.15535 0.14344 0.878 0.0
Sm400 Sm 0.71567 0.47163 0.06019 0.0
Sm401 Sm 0.73978 0.44476 0.10493 0.0
C402 C 0.685 0.49588 0.01385 0.0
C403 C 0.67058 0.48837 0.98197 0.0
C404 C 0.68158 0.49622 0.95006 0.0
C405 C 0.66937 0.48831 0.91938 0.0
C406 C 0.64564 0.47269 0.91991 0.0
C407 C 0.63407 0.4654 0.95175 0.0
C408 C 0.64654 0.47305 0.98261 0.0
C409 C 0.72733 0.50733 0.11804 0.0
C410 C 0.67952 0.41727 0.08949 0.0
C411 C 0.75844 0.42231 0.16163 0.0
C412 C 0.76977 0.39529 0.16646 0.0
C413 C 0.75417 0.37563 0.18337 0.0
C414 C 0.76245 0.34896 0.18357 0.0
C415 C 0.78676 0.34143 0.16727 0.0
C416 C 0.80271 0.36128 0.15112 0.0
C417 C 0.79425 0.38789 0.15055 0.0
C418 C 0.74639 0.4144 0.04684 0.0
C419 C 0.78053 0.46681 0.04191 0.0
O420 O 0.71141 0.4949 0.01206 0.0
O421 O 0.6755 0.48698 0.04327 0.0
O422 O 0.71719 0.48373 0.11892 0.0
O423 O 0.73405 0.51127 0.08616 0.0
O424 O 0.67947 0.43796 0.06743 0.0
O425 O 0.70143 0.41579 0.10901 0.0
O426 O 0.77267 0.43951 0.14358 0.0
O427 O 0.73283 0.42261 0.15365 0.0
O428 O 0.72487 0.42727 0.05343 0.0
O429 O 0.76426 0.41704 0.07085 0.0
O430 O 0.77957 0.46202 0.07585 0.0
O431 O 0.75655 0.46934 0.02712 0.0
H432 H 0.69989 0.50828 0.94879 0.0
H433 H 0.67838 0.49463 0.89516 0.0
H434 H 0.61571 0.45341 0.95273 0.0
H435 H 0.63752 0.46676 0.00683 0.0
H436 H 0.73506 0.38075 0.19552 0.0
H437 H 0.74963 0.3342 0.19614 0.0
H438 H 0.82193 0.35637 0.13917 0.0
H439 H 0.80667 0.40251 0.13708 0.0
Sm440 Sm 0.47249 0.95064 0.30782 0.0
Sm441 Sm 0.50519 0.9783 0.34827 0.0
C442 C 0.44697 0.91646 0.26651 0.0
C443 C 0.45236 0.9048 0.2324 0.0
C444 C 0.46821 0.91869 0.20815 0.0
C445 C 0.47376 0.90737 0.17603 0.0
C446 C 0.46292 0.88219 0.16707 0.0
C447 C 0.4469 0.86838 0.19153 0.0
C448 C 0.44183 0.87954 0.22399 0.0
C449 C 0.44203 0.96307 0.36905 0.0
C450 C 0.52859 0.91702 0.33793 0.0
C451 C 0.51717 1.01367 0.39665 0.0
C452 C 0.52093 1.04279 0.39731 0.0
C453 C 0.51371 1.05696 0.42703 0.0
C454 C 0.51689 1.0847 0.42819 0.0
C455 C 0.5274 0.09872 0.39958 0.0
C456 C 0.53381 1.08452 0.36937 0.0
C457 C 0.53046 1.05672 0.36818 0.0
C458 C 0.53406 0.96728 0.29039 0.0
C459 C 0.47948 1.0148 0.28166 0.0
O460 O 0.44224 0.94213 0.26709 0.0
O461 O 0.46295 0.90889 0.29138 0.0
O462 O 0.46671 0.95446 0.36758 0.0
O463 O 0.43444 0.96696 0.33764 0.0
O464 O 0.50915 0.91867 0.31401 0.0
O465 O 0.52926 0.93736 0.36034 0.0
O466 O 0.49248 1.00563 0.39028 0.0
O467 O 0.53553 0.9997 0.3804 0.0
O468 O 0.50921 0.97341 0.29051 0.0
O469 O 0.54524 0.96948 0.32058 0.0
O470 O 0.49332 1.01595 0.31121 0.0
O471 O 0.46988 0.99056 0.27345 0.0
H472 H 0.47625 0.93839 0.21398 0.0
H473 H 0.4866 0.91843 0.15827 0.0
H474 H 0.43782 0.84918 0.18543 0.0
H475 H 0.42945 0.86858 0.2424 0.0
H476 H 0.50598 1.04651 0.44955 0.0
H477 H 0.51228 0.09501 0.45206 0.0
H478 H 0.54195 0.09484 0.347 0.0
H479 H 0.53564 1.04611 0.34472 0.0
Sm480 Sm 0.24693 0.44678 0.40605 0.0
Sm481 Sm 0.21569 0.47226 0.44297 0.0
C482 C 0.26543 0.43474 0.34407 0.0
C483 C 0.28229 0.44755 0.31714 0.0
C484 C 0.27041 0.45601 0.28615 0.0
C485 C 0.28665 0.46447 0.25856 0.0
C486 C 0.31508 0.46419 0.26132 0.0
C487 C 0.3267 0.45799 0.29342 0.0
C488 C 0.3105 0.44976 0.32101 0.0
C489 C 0.24552 0.41511 0.46247 0.0
C490 C 0.28147 0.46859 0.47091 0.0
C491 C 0.18809 0.49952 0.49029 0.0
C492 C 0.17422 0.49399 0.52351 0.0
C493 C 0.18818 0.49708 0.55478 0.0
C494 C 0.17529 0.49158 0.58613 0.0
C495 C 0.14809 0.48299 0.58699 0.0
C496 C 0.13394 0.48041 0.55578 0.0
C497 C 0.14685 0.48589 0.52437 0.0
C498 C 0.22633 0.50506 0.38277 0.0
C499 C 0.18459 0.41707 0.41299 0.0
O500 O 0.24137 0.44492 0.34933 0.0
O501 O 0.27752 0.42751 0.37254 0.0
O502 O 0.22489 0.42828 0.45252 0.0
O503 O 0.26661 0.41791 0.44252 0.0
O504 O 0.28538 0.45972 0.43905 0.0
O505 O 0.25565 0.47389 0.47912 0.0
O506 O 0.21448 0.49788 0.48983 0.0
O507 O 0.17714 0.48952 0.46256 0.0
O508 O 0.24335 0.49313 0.40224 0.0
O509 O 0.20266 0.49664 0.39268 0.0
O510 O 0.18125 0.4382 0.43345 0.0
O511 O 0.20908 0.41599 0.39826 0.0
H512 H 0.24866 0.45481 0.28264 0.0
H513 H 0.27705 0.46943 0.23432 0.0
H514 H 0.34849 0.45716 0.29657 0.0
H515 H 0.3203 0.4437 0.34469 0.0
H516 H 0.20913 0.50371 0.55507 0.0
H517 H 0.1866 0.49426 0.60977 0.0
H518 H 0.11302 0.4737 0.55559 0.0
H519 H 0.13541 0.48359 0.50077 0.0
Sm520 Sm 1.0089 0.97701 0.14855 0.0
Sm521 Sm 0.97766 0.95382 0.19445 0.0
C522 C 1.02589 1.00086 0.09148 0.0
C523 C 1.04673 0.99359 0.06621 0.0
C524 C 1.04437 1.00219 0.03203 0.0
C525 C 1.06427 0.99552 0.00787 0.0
C526 C 1.08683 0.98017 0.01762 0.0
C527 C 1.08851 0.97063 0.05162 0.0
C528 C 1.06849 0.97716 0.07571 0.0
C529 C 1.04125 0.9681 0.20385 0.0
C530 C 0.98551 1.01812 0.21222 0.0
C531 C 0.95108 0.9229 0.23887 0.0
C532 C 0.95717 0.9075 0.27013 0.0
C533 C 0.9391 0.90822 0.29807 0.0
C534 C 0.9445 0.89364 0.32798 0.0
C535 C 0.96803 0.87796 0.33033 0.0
C536 C 0.98611 0.87735 0.30218 0.0
C537 C 0.98083 0.89211 0.27244 0.0
C538 C 0.94505 0.96503 0.13449 0.0
C539 C 1.03086 0.9155 0.16556 0.0
O540 O 1.03444 1.00756 0.12211 0.0
O541 O 1.00491 0.9849 0.09247 0.0
O542 O 1.01684 0.97572 0.20621 0.0
O543 O 1.04954 0.96589 0.17215 0.0
O544 O 0.99379 1.0169 0.17921 0.0
O545 O 0.9795 0.99466 0.22659 0.0
O546 O 0.95225 0.94891 0.24165 0.0
O547 O 0.96158 0.91414 0.21006 0.0
O548 O 0.96886 0.95471 0.1353 0.0
O549 O 0.93928 0.97164 0.16593 0.0
O550 O 1.01211 0.91933 0.19012 0.0
O551 O 1.03205 0.93471 0.14164 0.0
H552 H 1.02746 1.01452 0.02422 0.0
H553 H 1.06271 1.0036 0.98203 0.0
H554 H 0.10572 0.95886 0.05978 0.0
H555 H 1.07029 0.96984 0.1019 0.0
H556 H 0.92083 0.92013 0.29678 0.0
H557 H 0.93038 0.89491 0.34938 0.0
H558 H 1.00422 0.86519 0.30289 0.0
H559 H 0.99517 0.89133 0.25124 0.0
Sm560 Sm 0.47189 0.74279 0.90128 0.0
Sm561 Sm 0.50047 0.71616 0.94192 0.0
C562 C 0.43422 0.74966 0.85388 0.0
C563 C 0.40451 0.75323 0.85488 0.0
C564 C 0.38689 0.73124 0.85986 0.0
C565 C 0.3588 0.73482 0.86017 0.0
C566 C 0.34783 0.76043 0.85567 0.0
C567 C 0.36549 0.78242 0.85125 0.0
C568 C 0.39349 0.77884 0.85076 0.0
C569 C 0.48057 0.77745 0.95401 0.0
C570 C 0.43663 0.72008 0.97089 0.0
C571 C 0.53694 0.69501 0.98365 0.0
C572 C 0.54934 0.70314 0.01662 0.0
C573 C 0.53426 0.70254 0.04745 0.0
C574 C 0.54599 0.71072 0.07836 0.0
C575 C 0.57302 0.71977 0.07916 0.0
C576 C 0.58808 0.72043 0.0483 0.0
C577 C 0.57637 0.71209 0.01736 0.0
C578 C 0.4897 0.682 0.88332 0.0
C579 C 0.53273 0.77006 0.90708 0.0
O580 O 0.44321 0.72616 0.86304 0.0
O581 O 0.44913 0.76931 0.86564 0.0
O582 O 0.47646 0.75253 0.95848 0.0
O583 O 0.47932 0.78461 0.92182 0.0
O584 O 0.4345 0.73194 0.94021 0.0
O585 O 0.46162 0.71229 0.97885 0.0
O586 O 0.51127 0.68856 0.98439 0.0
O587 O 0.54342 0.70935 0.95666 0.0
O588 O 0.49774 0.70657 0.88292 0.0
O589 O 0.48495 0.67623 0.91529 0.0
O590 O 0.5319 0.75342 0.93394 0.0
O591 O 0.51224 0.76695 0.88496 0.0
H592 H 0.39472 0.71118 0.8631 0.0
H593 H 0.34565 0.71754 0.86337 0.0
H594 H 0.35767 0.80234 0.84671 0.0
H595 H 0.40651 0.7961 0.84663 0.0
H596 H 0.51338 0.6957 0.04786 0.0
H597 H 0.53398 0.70942 0.10175 0.0
H598 H 0.60888 0.72751 0.04801 0.0
H599 H 0.58843 0.71277 0.99395 0.0
Sm600 Sm 0.71278 0.20978 0.6568 0.0
Sm601 Sm 0.73963 0.23731 0.69667 0.0
C602 C 0.69757 0.1964 0.5938 0.0
C603 C 0.67576 0.20279 0.56942 0.0
C604 C 0.68265 0.21189 0.53628 0.0
C605 C 0.66252 0.2163 0.51177 0.0
C606 C 0.63513 0.21143 0.51989 0.0
C607 C 0.6282 0.20373 0.55375 0.0
C608 C 0.64834 0.19952 0.57834 0.0
C609 C 0.68052 0.20913 0.71325 0.0
C610 C 0.73352 0.17205 0.72039 0.0
C611 C 0.76924 0.26206 0.74428 0.0
C612 C 0.76553 0.27484 0.77805 0.0
C613 C 0.73963 0.28122 0.79078 0.0
C614 C 0.73678 0.29336 0.82319 0.0
C615 C 0.75978 0.29899 0.84333 0.0
C616 C 0.78561 0.29269 0.83017 0.0
C617 C 0.78842 0.28074 0.79786 0.0
C618 C 0.77182 0.23039 0.6349 0.0
C619 C 0.68566 0.27191 0.66954 0.0
O620 O 0.69134 0.18221 0.62111 0.0
O621 O 0.71467 0.21582 0.60021 0.0
O622 O 0.69473 0.22949 0.70487 0.0
O623 O 0.68226 0.1894 0.6915 0.0
O624 O 0.72436 0.16995 0.68823 0.0
O625 O 0.74 0.19685 0.73019 0.0
O626 O 0.76595 0.23615 0.74314 0.0
O627 O 0.75852 0.27419 0.71793 0.0
O628 O 0.76 0.21221 0.65289 0.0
O629 O 0.76255 0.25292 0.64642 0.0
O630 O 0.70533 0.27125 0.6929 0.0
O631 O 0.68487 0.2501 0.64954 0.0
H632 H 0.7037 0.21487 0.52905 0.0
H633 H 0.66848 0.2225 0.48604 0.0
H634 H 0.60736 0.1994 0.56079 0.0
H635 H 0.64246 0.19288 0.60391 0.0
H636 H 0.7217 0.27671 0.77575 0.0
H637 H 0.71665 0.29784 0.83278 0.0
H638 H 0.80373 0.29714 0.84484 0.0
H639 H 0.80854 0.27605 0.78835 0.0
H640 H 0.55999 0.30063 0.04089 0.0
H641 H 0.55598 0.28453 0.15058 0.0
H642 H 0.59098 0.31918 0.16058 0.0
H643 H 0.63364 0.31653 0.03564 0.0
H644 H 0.63012 0.34387 0.00566 0.0
H645 H 0.60555 0.31698 0.00605 0.0
H646 H 0.5671 0.35106 0.01496 0.0
H647 H 0.59156 0.37805 0.01458 0.0
H648 H 0.56872 0.37408 0.05067 0.0
H649 H 0.62939 0.35597 0.15963 0.0
H650 H 0.66298 0.39171 0.14864 0.0
H651 H 0.64258 0.39028 0.04007 0.0
C652 C 0.56664 0.30404 0.06708 0.0
C653 C 0.55459 0.28833 0.09491 0.0
C654 C 0.56419 0.29509 0.12845 0.0
C655 C 0.58445 0.31516 0.13447 0.0
C656 C 0.5957 0.32998 0.10697 0.0
C657 C 0.58687 0.32494 0.07379 0.0
C658 C 0.60176 0.345 0.04921 0.0
C659 C 0.61877 0.32968 0.02253 0.0
C660 C 0.58106 0.36312 0.03126 0.0
C661 C 0.62044 0.36176 0.07347 0.0
C662 C 0.61659 0.3523 0.1067 0.0
C663 C 0.632 0.36343 0.13361 0.0
C664 C 0.65142 0.38418 0.12699 0.0
C665 C 0.65617 0.39535 0.0936 0.0
C666 C 0.63983 0.38345 0.06634 0.0
H667 H 0.65052 0.80312 0.3865 0.0
H668 H 0.66364 0.7964 0.2763 0.0
H669 H 0.62727 0.82919 0.26634 0.0
H670 H 0.57644 0.81364 0.38454 0.0
H671 H 0.57569 0.83868 0.41799 0.0
H672 H 0.60218 0.81392 0.41742 0.0
H673 H 0.63833 0.85135 0.41739 0.0
H674 H 0.61194 0.87622 0.41806 0.0
H675 H 0.63741 0.87692 0.38459 0.0
H676 H 0.58567 0.86272 0.2671 0.0
H677 H 0.54922 0.89513 0.27833 0.0
H678 H 0.563 0.88745 0.38817 0.0
C679 C 0.64596 0.80851 0.36014 0.0
C680 C 0.66121 0.796 0.33218 0.0
C681 C 0.65348 0.8048 0.29859 0.0
C682 C 0.63229 0.82375 0.29256 0.0
C683 C 0.618 0.83548 0.32018 0.0
C684 C 0.6249 0.82852 0.35353 0.0
C685 C 0.60682 0.8454 0.37847 0.0
C686 C 0.58925 0.8268 0.40097 0.0
C687 C 0.62469 0.86355 0.40099 0.0
C688 C 0.58863 0.8626 0.35423 0.0
C689 C 0.59536 0.85599 0.32061 0.0
C690 C 0.58086 0.86793 0.2935 0.0
C691 C 0.55964 0.88672 0.30029 0.0
C692 C 0.55207 0.8952 0.33417 0.0
C693 C 0.56752 0.88246 0.36162 0.0
H694 H 0.15042 0.88403 0.5445 0.0
H695 H 0.15033 0.90491 0.65287 0.0
H696 H 0.11477 0.87085 0.66365 0.0
H697 H 1.07689 0.86763 0.53662 0.0
H698 H 1.08165 0.83899 0.50903 0.0
H699 H 0.10611 0.86599 0.5086 0.0
H700 H 0.14428 0.83263 0.52211 0.0
H701 H 0.11995 0.80552 0.52253 0.0
H702 H 0.14135 0.81123 0.5594 0.0
H703 H 1.07598 0.83377 0.66339 0.0
H704 H 1.04313 0.79714 0.65318 0.0
H705 H 1.06846 0.79393 0.54617 0.0
C706 C 0.1427 0.88186 0.57052 0.0
C707 C 0.15374 0.89882 0.59769 0.0
C708 C 0.14284 0.89348 0.63115 0.0
C709 C 0.12226 0.87372 0.63763 0.0
C710 C 0.11198 0.85767 0.61077 0.0
C711 C 0.12215 0.86125 0.57775 0.0
C712 C 0.10832 0.84001 0.55402 0.0
C713 C 1.0923 0.85398 0.52534 0.0
C714 C 0.12975 0.82124 0.53857 0.0
C715 C 1.08873 0.82424 0.5785 0.0
C716 C 1.09111 0.83522 0.61111 0.0
C717 C 1.07455 0.82513 0.63787 0.0
C718 C 1.05555 0.80386 0.63173 0.0
C719 C 1.05242 0.79112 0.59904 0.0
C720 C 1.06989 0.80203 0.57197 0.0
H721 H 1.06134 0.38629 0.89011 0.0
H722 H 1.04787 0.39315 0.78007 0.0
H723 H 1.08357 0.35983 0.76952 0.0
H724 H 0.13542 0.37494 0.88634 0.0
H725 H 0.13614 0.34996 0.91989 0.0
H726 H 0.10998 0.37507 0.91988 0.0
H727 H 1.07335 0.3381 0.92099 0.0
H728 H 1.09941 0.31288 0.92109 0.0
H729 H 1.07362 0.31245 0.88829 0.0
H730 H 0.12398 0.32542 0.76936 0.0
H731 H 0.15985 0.29229 0.77971 0.0
H732 H 0.14789 0.30101 0.88993 0.0
C733 C 1.06573 0.38087 0.86367 0.0
C734 C 1.05056 0.39355 0.83595 0.0
C735 C 1.05801 0.38466 0.80222 0.0
C736 C 1.07881 0.36539 0.79581 0.0
C737 C 1.09302 0.35349 0.82318 0.0
C738 C 1.08649 0.36061 0.85667 0.0
C739 C 0.10456 0.34356 0.88123 0.0
C740 C 0.12259 0.36198 0.90316 0.0
C741 C 1.08667 0.32569 0.90429 0.0
C742 C 0.12227 0.3261 0.85658 0.0
C743 C 0.11527 0.33266 0.82311 0.0
C744 C 0.12912 0.32031 0.79564 0.0
C745 C 0.15001 0.30116 0.80193 0.0
C746 C 0.15794 0.29285 0.83566 0.0
C747 C 0.14313 0.30598 0.86349 0.0
H748 H 0.6501 0.88783 0.95859 0.0
H749 H 0.65687 0.90399 0.84914 0.0
H750 H 0.62192 0.86956 0.8377 0.0
H751 H 0.64134 0.81452 0.94836 0.0
H752 H 0.61769 0.81064 0.98361 0.0
H753 H 0.64223 0.83756 0.9841 0.0
H754 H 0.60369 0.87174 0.99159 0.0
H755 H 0.57904 0.84493 0.99107 0.0
H756 H 0.57628 0.87227 0.96096 0.0
H757 H 0.58297 0.83238 0.83721 0.0
H758 H 0.54937 0.79629 0.84732 0.0
H759 H 0.56776 0.79836 0.95641 0.0
C760 C 0.64407 0.88451 0.93213 0.0
C761 C 0.6569 0.90023 0.90486 0.0
C762 C 0.64804 0.8935 0.87093 0.0
C763 C 0.6278 0.87352 0.86407 0.0
C764 C 0.61575 0.8587 0.89106 0.0
C765 C 0.62387 0.86372 0.92458 0.0
C766 C 0.60838 0.84371 0.94858 0.0
C767 C 0.62861 0.82553 0.9673 0.0
C768 C 0.59081 0.85908 0.97462 0.0
C769 C 0.5902 0.82699 0.92366 0.0
C770 C 0.59473 0.83638 0.89055 0.0
C771 C 0.57984 0.82503 0.86319 0.0
C772 C 0.56037 0.80409 0.86927 0.0
C773 C 0.55508 0.79303 0.90258 0.0
C774 C 0.57083 0.80523 0.93021 0.0
H775 H 0.56669 0.38769 0.61846 0.0
H776 H 0.54902 0.39115 0.72793 0.0
H777 H 0.58444 0.35756 0.73863 0.0
H778 H 0.57914 0.31385 0.61712 0.0
H779 H 0.60614 0.31541 0.58569 0.0
H780 H 0.57997 0.34052 0.58577 0.0
H781 H 0.61632 0.37756 0.59059 0.0
H782 H 0.64259 0.35256 0.59058 0.0
H783 H 0.64048 0.37644 0.62532 0.0
H784 H 0.62523 0.32341 0.73903 0.0
H785 H 0.66195 0.29103 0.72868 0.0
H786 H 0.65365 0.30295 0.61854 0.0
C787 C 0.57006 0.38142 0.64479 0.0
C788 C 0.55381 0.3932 0.67231 0.0
C789 C 0.55999 0.38332 0.70593 0.0
C790 C 0.58062 0.3639 0.71241 0.0
C791 C 0.59589 0.35287 0.6852 0.0
C792 C 0.59058 0.361 0.6518 0.0
C793 C 0.60963 0.34482 0.6273 0.0
C794 C 0.59271 0.32764 0.60247 0.0
C795 C 0.62836 0.36399 0.60723 0.0
C796 C 0.62649 0.32665 0.65188 0.0
C797 C 0.61825 0.33214 0.68529 0.0
C798 C 0.63128 0.31909 0.71277 0.0
C799 C 0.65262 0.30037 0.70651 0.0
C800 C 0.66175 0.29316 0.67279 0.0
C801 C 0.64779 0.30695 0.64495 0.0
H802 H 1.04369 0.32047 0.39798 0.0
H803 H 1.09311 0.2544 0.43275 0.0
H804 H 0.13292 0.28468 0.43503 0.0
H805 H 1.09648 0.35508 0.34591 0.0
H806 H 1.08648 0.38841 0.3582 0.0
H807 H 1.06177 0.36164 0.3578 0.0
H808 H 1.04989 0.37137 0.42135 0.0
H809 H 1.07454 0.39817 0.42192 0.0
H810 H 1.07642 0.37152 0.45319 0.0
H811 H 0.17025 0.32347 0.43138 0.0
H812 H 0.19784 0.36483 0.42756 0.0
H813 H 0.12599 0.40956 0.4005 0.0
C814 C 1.06288 0.31212 0.40587 0.0
C815 C 1.06427 0.28383 0.41467 0.0
C816 C 1.09042 0.27514 0.42544 0.0
C817 C 0.1136 0.29258 0.42683 0.0
C818 C 0.11152 0.31989 0.41803 0.0
C819 C 1.08657 0.32975 0.40814 0.0
C820 C 1.08989 0.36035 0.40134 0.0
C821 C 1.08324 0.36676 0.36357 0.0
C822 C 1.07159 0.37631 0.42591 0.0
C823 C 0.12034 0.36623 0.40885 0.0
C824 C 0.13243 0.34229 0.4179 0.0
C825 C 0.16048 0.34208 0.42456 0.0
C826 C 0.17635 0.36613 0.42217 0.0
C827 C 0.16511 0.3916 0.41387 0.0
C828 C 0.13609 0.39113 0.40729 0.0
H829 H 0.1546 0.80336 0.11799 0.0
H830 H 0.16269 0.79252 0.22833 0.0
H831 H 0.12558 0.82457 0.23799 0.0
H832 H 0.141 0.87691 0.12397 0.0
H833 H 0.11719 0.87757 0.08885 0.0
H834 H 0.14363 0.85277 0.08959 0.0
H835 H 0.10775 0.81529 0.08461 0.0
H836 H 1.0812 0.83999 0.08395 0.0
H837 H 1.08046 0.81357 0.11564 0.0
H838 H 1.0838 0.85777 0.23671 0.0
H839 H 1.04794 0.89073 0.22523 0.0
H840 H 1.06712 0.88755 0.11614 0.0
C841 C 0.14872 0.80763 0.14431 0.0
C842 C 0.16272 0.79416 0.17241 0.0
C843 C 0.15343 0.80163 0.20597 0.0
C844 C 0.13182 0.82015 0.21182 0.0
C845 C 0.11873 0.83283 0.18409 0.0
C846 C 0.12725 0.82725 0.15082 0.0
C847 C 0.11034 0.8451 0.12588 0.0
C848 C 0.12916 0.86422 0.10586 0.0
C849 C 1.09397 0.82744 0.10102 0.0
C850 C 1.09094 0.86119 0.15001 0.0
C851 C 1.09605 0.85324 0.18354 0.0
C852 C 1.08022 0.86403 0.2104 0.0
C853 C 1.05933 0.88308 0.20346 0.0
C854 C 1.05348 0.89295 0.16973 0.0
C855 C 1.07024 0.88135 0.14256 0.0
H856 H 0.32402 0.21307 0.86812 0.0
H857 H 0.25947 0.23803 0.93677 0.0
H858 H 0.29227 0.23965 0.98507 0.0
H859 H 0.36083 0.17139 0.92987 0.0
H860 H 0.39415 0.18112 0.91506 0.0
H861 H 0.36587 0.1818 0.88577 0.0
H862 H 0.37576 0.23155 0.87241 0.0
H863 H 0.40411 0.23097 0.90163 0.0
H864 H 0.37761 0.25529 0.90734 0.0
H865 H 0.33404 0.23817 0.02856 0.0
H866 H 0.37749 0.23502 0.05967 0.0
H867 H 0.41759 0.21185 0.96472 0.0
C868 C 0.31659 0.21893 0.89329 0.0
C869 C 0.28814 0.2254 0.89758 0.0
C870 C 0.28042 0.23295 0.93164 0.0
C871 C 0.29927 0.2339 0.95966 0.0
C872 C 0.32681 0.22744 0.9545 0.0
C873 C 0.33549 0.22022 0.92187 0.0
C874 C 0.3664 0.2146 0.92324 0.0
C875 C 0.37216 0.1855 0.91285 0.0
C876 C 0.38189 0.23426 0.89974 0.0
C877 C 0.37384 0.21942 0.96155 0.0
C878 C 0.35053 0.22684 0.97906 0.0
C879 C 0.3521 0.23235 0.01457 0.0
C880 C 0.37736 0.23042 0.03239 0.0
C881 C 0.40209 0.22298 0.0158 0.0
C882 C 0.39972 0.21744 0.97925 0.0
H883 H 0.73929 0.56444 0.11741 0.0
H884 H 0.71272 0.50171 0.18713 0.0
H885 H 0.71046 0.53481 0.23457 0.0
H886 H 0.78075 0.60209 0.17977 0.0
H887 H 0.77135 0.63474 0.16417 0.0
H888 H 0.77106 0.60642 0.13534 0.0
H889 H 0.72102 0.61575 0.12062 0.0
H890 H 0.7212 0.64411 0.1494 0.0
H891 H 0.69633 0.61787 0.15492 0.0
H892 H 0.71105 0.57658 0.27723 0.0
H893 H 0.71377 0.61988 0.30778 0.0
H894 H 0.73948 0.65843 0.21291 0.0
C895 C 0.73299 0.55747 0.14264 0.0
C896 C 0.72624 0.52935 0.1474 0.0
C897 C 0.71808 0.52232 0.18156 0.0
C898 C 0.71673 0.54137 0.20914 0.0
C899 C 0.72343 0.56851 0.20357 0.0
C900 C 0.73134 0.57661 0.17091 0.0
C901 C 0.73716 0.60724 0.17199 0.0
C902 C 0.76685 0.61297 0.16222 0.0
C903 C 0.71779 0.62213 0.14777 0.0
C904 C 0.73161 0.61511 0.21012 0.0
C905 C 0.72365 0.59228 0.22779 0.0
C906 C 0.71732 0.59428 0.26313 0.0
C907 C 0.71899 0.61946 0.28064 0.0
C908 C 0.72703 0.64374 0.26396 0.0
C909 C 0.7334 0.64093 0.22755 0.0
H910 H 0.38508 0.97367 0.37113 0.0
H911 H 0.45053 0.9517 0.43943 0.0
H912 H 0.418 0.95109 0.48856 0.0
H913 H 0.34852 1.01701 0.43191 0.0
H914 H 0.31522 1.00676 0.41801 0.0
H915 H 0.34342 1.00557 0.38831 0.0
H916 H 0.3338 0.95553 0.37703 0.0
H917 H 0.30555 0.95658 0.40665 0.0
H918 H 0.33223 0.93255 0.41287 0.0
H919 H 0.37601 0.95284 0.53278 0.0
H920 H 0.33253 0.95597 0.56427 0.0
H921 H 0.29204 0.97671 0.46907 0.0
C922 C 0.39281 0.96871 0.3964 0.0
C923 C 0.42138 0.96271 0.40029 0.0
C924 C 0.42948 0.95638 0.43455 0.0
C925 C 0.41077 0.95601 0.46303 0.0
C926 C 0.38307 0.96196 0.45817 0.0
C927 C 0.37414 0.96817 0.42541 0.0
C928 C 0.3432 0.97363 0.42705 0.0
C929 C 0.33724 1.00245 0.41562 0.0
C930 C 0.32778 0.95337 0.40455 0.0
C931 C 0.33591 0.96966 0.46564 0.0
C932 C 0.35937 0.96293 0.48309 0.0
C933 C 0.35787 0.95815 0.51881 0.0
C934 C 0.33257 0.96006 0.53686 0.0
C935 C 0.30769 0.96684 0.52035 0.0
C936 C 0.31001 0.97172 0.4836 0.0
H937 H 0.97397 0.62198 0.61884 0.0
H938 H 0.99469 0.6866 0.68848 0.0
H939 H 0.99647 0.65407 0.73678 0.0
H940 H 0.93119 0.58376 0.67939 0.0
H941 H 0.94235 0.55134 0.6649 0.0
H942 H 0.94286 0.57941 0.63564 0.0
H943 H 0.99376 0.57165 0.62388 0.0
H944 H 0.9934 0.54357 0.65314 0.0
H945 H 1.01707 0.5707 0.65956 0.0
H946 H 0.99678 0.61227 0.77999 0.0
H947 H 0.99461 0.56903 0.81085 0.0
H948 H 0.97278 0.52926 0.7156 0.0
C949 C 0.97887 0.6295 0.64424 0.0
C950 C 0.98417 0.65789 0.64874 0.0
C951 C 0.99048 0.66572 0.68314 0.0
C952 C 0.99155 0.647 0.71117 0.0
C953 C 0.98631 0.61952 0.70577 0.0
C954 C 0.98003 0.61079 0.67291 0.0
C955 C 0.97522 0.58004 0.67415 0.0
C956 C 0.94618 0.57323 0.66283 0.0
C957 C 0.99609 0.56564 0.65131 0.0
C958 C 0.97946 0.57273 0.71261 0.0
C959 C 0.98606 0.59593 0.73031 0.0
C960 C 0.99145 0.59433 0.76586 0.0
C961 C 0.99014 0.56919 0.78355 0.0
C962 C 0.98321 0.54463 0.76685 0.0
C963 C 0.97781 0.54702 0.73026 0.0
H964 H 0.79441 0.97488 0.03625 0.0
H965 H 0.83569 0.95564 0.94067 0.0
H966 H 0.87913 0.95316 0.97204 0.0
H967 H 0.84928 1.01637 0.07313 0.0
H968 H 0.84428 1.00475 0.11673 0.0
H969 H 0.81623 1.00501 0.08706 0.0
H970 H 0.80803 0.95468 0.09822 0.0
H971 H 0.83607 0.95425 0.12791 0.0
H972 H 0.83541 0.93142 0.09193 0.0
H973 H 0.9207 0.95178 0.01602 0.0
H974 H 0.95313 0.95319 0.06472 0.0
H975 H 0.8874 0.97445 0.13367 0.0
C976 C 0.81254 0.9703 0.02164 0.0
C977 C 0.81051 0.96564 0.98484 0.0
C978 C 0.83556 0.95951 0.96813 0.0
C979 C 0.8608 0.95798 0.98612 0.0
C980 C 0.86201 0.96259 0.02189 0.0
C981 C 0.83838 0.96875 0.03949 0.0
C982 C 0.84543 0.97284 0.07807 0.0
C983 C 0.83837 1.00144 0.08943 0.0
C984 C 0.83033 0.95207 0.10037 0.0
C985 C 0.87651 0.96827 0.07952 0.0
C986 C 0.8856 0.96216 0.04668 0.0
C987 C 0.91337 0.9567 0.04157 0.0
C988 C 0.932 0.95752 0.06984 0.0
C989 C 0.92385 0.96401 0.10411 0.0
C990 C 0.89518 0.96948 0.10835 0.0
H991 H 0.4808 0.62499 0.88398 0.0
H992 H 0.50036 0.68909 0.81274 0.0
H993 H 0.50149 0.65616 0.76484 0.0
H994 H 0.52386 0.57371 0.84269 0.0
H995 H 0.50051 0.54648 0.85048 0.0
H996 H 0.50111 0.57488 0.87917 0.0
H997 H 0.44997 0.58205 0.86909 0.0
H998 H 0.44926 0.55369 0.84034 0.0
H999 H 0.43758 0.58587 0.82569 0.0
H1000 H 0.50037 0.61396 0.72199 0.0
H1001 H 0.49782 0.57033 0.69198 0.0
H1002 H 0.47933 0.53137 0.78917 0.0
C1003 C 0.48536 0.63232 0.85832 0.0
C1004 C 0.49048 0.66068 0.85323 0.0
C1005 C 0.49633 0.66823 0.81853 0.0
C1006 C 0.497 0.64929 0.79072 0.0
C1007 C 0.4919 0.62183 0.7967 0.0
C1008 C 0.48626 0.61336 0.82993 0.0
C1009 C 0.48172 0.58258 0.82943 0.0
C1010 C 0.50306 0.56858 0.85179 0.0
C1011 C 0.45292 0.57563 0.8419 0.0
C1012 C 0.48542 0.57493 0.79096 0.0
C1013 C 0.49134 0.59801 0.77255 0.0
C1014 C 0.4957 0.59609 0.73671 0.0
C1015 C 0.49415 0.57074 0.71952 0.0
C1016 C 0.48816 0.54628 0.73708 0.0
C1017 C 0.48377 0.54902 0.77391 0.0
H1018 H 0.82566 0.20555 0.63107 0.0
H1019 H 0.76932 0.25153 0.56983 0.0
H1020 H 0.80252 0.25267 0.52196 0.0
H1021 H 0.88665 0.24217 0.60047 0.0
H1022 H 0.90861 0.21344 0.60009 0.0
H1023 H 0.88018 0.2146 0.62946 0.0
H1024 H 0.86241 0.16978 0.60511 0.0
H1025 H 0.89081 0.16853 0.57569 0.0
H1026 H 0.85667 0.16656 0.55941 0.0
H1027 H 0.84291 0.24907 0.47818 0.0
H1028 H 0.88535 0.2433 0.44557 0.0
H1029 H 0.92032 0.20172 0.53279 0.0
C1030 C 0.81998 0.21546 0.60738 0.0
C1031 C 0.79348 0.2279 0.60495 0.0
C1032 C 0.78846 0.24135 0.57323 0.0
C1033 C 0.80759 0.24217 0.54547 0.0
C1034 C 0.83309 0.22995 0.54864 0.0
C1035 C 0.83952 0.21699 0.57903 0.0
C1036 C 0.86918 0.20669 0.57574 0.0
C1037 C 0.88723 0.22 0.60308 0.0
C1038 C 0.86981 0.17606 0.57922 0.0
C1039 C 0.87821 0.21544 0.53889 0.0
C1040 C 0.85675 0.22877 0.52389 0.0
C1041 C 0.8596 0.23865 0.49014 0.0
C1042 C 0.88431 0.23513 0.47141 0.0
C1043 C 0.9074 0.22185 0.48528 0.0
C1044 C 0.90375 0.21191 0.52025 0.0
H1045 H 0.19152 0.53401 0.33567 0.0
H1046 H 0.27399 0.53437 0.37363 0.0
H1047 H 0.28395 0.57446 0.3381 0.0
H1048 H 0.20886 0.55509 0.24666 0.0
H1049 H 0.17931 0.57573 0.24115 0.0
H1050 H 0.17808 0.5474 0.26999 0.0
H1051 H 0.16283 0.57827 0.31969 0.0
H1052 H 0.164 0.60667 0.29095 0.0
H1053 H 0.18311 0.60721 0.33045 0.0
H1054 H 0.28476 0.61817 0.29902 0.0
H1055 H 0.27752 0.65618 0.25928 0.0
H1056 H 0.19574 0.62808 0.24029 0.0
C1057 C 0.21179 0.54239 0.3366 0.0
C1058 C 0.23188 0.53002 0.35863 0.0
C1059 C 0.25794 0.54249 0.35786 0.0
C1060 C 0.26383 0.56572 0.33743 0.0
C1061 C 0.24378 0.57726 0.31643 0.0
C1062 C 0.21823 0.56574 0.31557 0.0
C1063 C 0.20055 0.58196 0.28997 0.0
C1064 C 0.19113 0.56397 0.26017 0.0
C1065 C 0.17616 0.59424 0.30889 0.0
C1066 C 0.21992 0.60429 0.27655 0.0
C1067 C 0.2447 0.60128 0.29272 0.0
C1068 C 0.26544 0.62007 0.28614 0.0
C1069 C 0.26111 0.64197 0.26306 0.0
C1070 C 0.23635 0.6458 0.24491 0.0
C1071 C 0.2154 0.6261 0.25228 0.0
H1072 H 0.78439 0.74077 0.43302 0.0
H1073 H 0.8189 0.69408 0.34944 0.0
H1074 H 0.86059 0.68835 0.38251 0.0
H1075 H 0.84937 0.774 0.45796 0.0
H1076 H 0.84322 0.7729 0.50378 0.0
H1077 H 0.81507 0.77401 0.47426 0.0
H1078 H 0.79536 0.731 0.50166 0.0
H1079 H 0.82352 0.72981 0.53116 0.0
H1080 H 0.81607 0.70142 0.50405 0.0
H1081 H 0.90123 0.68743 0.42395 0.0
H1082 H 0.93538 0.69077 0.46986 0.0
H1083 H 0.87908 0.73691 0.5318 0.0
C1084 C 0.80057 0.7292 0.42156 0.0
C1085 C 0.797 0.71794 0.38722 0.0
C1086 C 0.81978 0.70321 0.37473 0.0
C1087 C 0.84414 0.69972 0.3937 0.0
C1088 C 0.84702 0.71089 0.4266 0.0
C1089 C 0.82585 0.72536 0.44074 0.0
C1090 C 0.83521 0.73509 0.47706 0.0
C1091 C 0.83573 0.76583 0.47835 0.0
C1092 C 0.8164 0.72366 0.50517 0.0
C1093 C 0.86447 0.72374 0.48093 0.0
C1094 C 0.87063 0.70998 0.45104 0.0
C1095 C 0.89625 0.6981 0.4474 0.0
C1096 C 0.9159 0.70011 0.47417 0.0
C1097 C 0.91101 0.71376 0.50584 0.0
C1098 C 0.88427 0.72581 0.50876 0.0
H1099 H 0.23595 0.15581 0.7163 0.0
H1100 H 0.21316 0.11704 0.81217 0.0
H1101 H 0.21093 1.07352 0.78196 0.0
H1102 H 0.19211 0.11436 0.66075 0.0
H1103 H 0.21581 0.11311 0.62528 0.0
H1104 H 0.21607 0.14129 0.65432 0.0
H1105 H 0.26677 0.13336 0.66667 0.0
H1106 H 0.26666 0.10514 0.63768 0.0
H1107 H 0.27766 0.10097 0.68162 0.0
H1108 H 0.21103 1.03119 0.73898 0.0
H1109 H 0.21322 0.99835 0.69097 0.0
H1110 H 0.23559 1.0625 0.6211 0.0
C1111 C 0.23066 0.13822 0.73123 0.0
C1112 C 0.22501 0.141 0.76777 0.0
C1113 C 0.21784 0.11661 0.78486 0.0
C1114 C 0.21647 1.0913 0.76755 0.0
C1115 C 0.22211 1.08933 0.73201 0.0
C1116 C 0.22903 0.11236 0.714 0.0
C1117 C 0.23371 0.10471 0.6757 0.0
C1118 C 0.21322 0.11924 0.65264 0.0
C1119 C 0.26294 0.11146 0.66476 0.0
C1120 C 0.22874 1.074 0.67489 0.0
C1121 C 0.22196 1.06553 0.70778 0.0
C1122 C 0.21637 1.03808 0.71336 0.0
C1123 C 0.21767 1.01918 0.6855 0.0
C1124 C 0.2246 1.02679 0.65113 0.0
C1125 C 0.23021 1.05512 0.64648 0.0
H1126 H 0.79195 0.47546 0.96922 0.0
H1127 H 0.83291 0.45644 0.06466 0.0
H1128 H 0.87638 0.45335 0.0329 0.0
H1129 H 0.83234 0.43166 0.91332 0.0
H1130 H 0.83335 0.45448 0.87729 0.0
H1131 H 0.80531 0.45533 0.90725 0.0
H1132 H 0.81425 0.50554 0.91826 0.0
H1133 H 0.84229 0.50485 0.88829 0.0
H1134 H 0.84745 0.51641 0.93181 0.0
H1135 H 0.91798 0.45106 0.98829 0.0
H1136 H 0.95035 0.45183 0.93912 0.0
H1137 H 0.88481 0.47374 0.87092 0.0
C1138 C 0.81002 0.47081 0.98372 0.0
C1139 C 0.80791 0.4664 0.02058 0.0
C1140 C 0.83287 0.46019 0.03716 0.0
C1141 C 0.85812 0.45828 0.01895 0.0
C1142 C 0.85941 0.46266 0.9831 0.0
C1143 C 0.83585 0.46899 0.96567 0.0
C1144 C 0.84295 0.47294 0.927 0.0
C1145 C 0.82756 0.45239 0.9049 0.0
C1146 C 0.83633 0.50164 0.91566 0.0
C1147 C 0.87393 0.46793 0.92525 0.0
C1148 C 0.88298 0.46183 0.95802 0.0
C1149 C 0.91068 0.45598 0.9628 0.0
C1150 C 0.92927 0.45643 0.93427 0.0
C1151 C 0.92114 0.46289 0.90005 0.0
C1152 C 0.89256 0.46875 0.89617 0.0
H1153 H 0.50337 1.0692 0.27904 0.0
H1154 H 0.44979 1.01642 0.22191 0.0
H1155 H 0.44477 1.051 0.17733 0.0
H1156 H 0.46761 0.1326 0.25707 0.0
H1157 H 0.49796 0.15252 0.25205 0.0
H1158 H 0.49775 0.12405 0.28071 0.0
H1159 H 0.53872 0.10432 0.24835 0.0
H1160 H 0.53908 0.1327 0.21956 0.0
H1161 H 0.53683 0.09923 0.20239 0.0
H1162 H 0.44513 1.09146 0.13626 0.0
H1163 H 0.45067 0.13298 0.10325 0.0
H1164 H 0.50406 0.16442 0.18232 0.0
C1165 C 0.49038 1.06485 0.25732 0.0
C1166 C 0.47685 1.03891 0.25531 0.0
C1167 C 0.46048 1.0352 0.22545 0.0
C1168 C 0.45745 1.05512 0.19943 0.0
C1169 C 0.47085 1.07991 0.2021 0.0
C1170 C 0.48707 1.08503 0.23034 0.0
C1171 C 0.49925 0.11374 0.22585 0.0
C1172 C 0.49011 0.13181 0.25571 0.0
C1173 C 0.53033 0.11243 0.22394 0.0
C1174 C 0.48738 0.12384 0.19098 0.0
C1175 C 0.47106 0.10359 0.17809 0.0
C1176 C 0.4579 0.10723 0.1465 0.0
C1177 C 0.46127 0.13144 0.12756 0.0
C1178 C 0.47774 0.15329 0.13891 0.0
C1179 C 0.49101 0.14896 0.17191 0.0
H1180 H 0.33832 0.4511 0.47168 0.0
H1181 H 0.27871 0.49128 0.53553 0.0
H1182 H 0.31236 0.49526 0.58198 0.0
H1183 H 0.37043 0.4135 0.54272 0.0
H1184 H 0.40465 0.41664 0.52664 0.0
H1185 H 0.37652 0.41712 0.49707 0.0
H1186 H 0.393 0.46257 0.4731 0.0
H1187 H 0.42118 0.46221 0.5026 0.0
H1188 H 0.39827 0.4902 0.50226 0.0
H1189 H 0.35282 0.4955 0.62374 0.0
H1190 H 0.39475 0.49136 0.65675 0.0
H1191 H 0.43256 0.45006 0.57078 0.0
C1192 C 0.33226 0.46096 0.4953 0.0
C1193 C 0.30477 0.47108 0.49865 0.0
C1194 C 0.2988 0.48337 0.53095 0.0
C1195 C 0.31815 0.48574 0.55801 0.0
C1196 C 0.34453 0.47569 0.55393 0.0
C1197 C 0.35177 0.46343 0.52335 0.0
C1198 C 0.38178 0.45408 0.52672 0.0
C1199 C 0.38345 0.42351 0.52305 0.0
C1200 C 0.39962 0.46809 0.49954 0.0
C1201 C 0.39018 0.46292 0.56371 0.0
C1202 C 0.36803 0.47545 0.57851 0.0
C1203 C 0.37003 0.48561 0.61204 0.0
C1204 C 0.39452 0.48307 0.63096 0.0
C1205 C 0.41822 0.47025 0.61776 0.0
C1206 C 0.41556 0.46002 0.58282 0.0
H1207 H 1.00012 0.12308 0.37999 0.0
H1208 H 0.9741 0.18698 0.3126 0.0
H1209 H 0.9702 0.15442 0.26451 0.0
H1210 H 1.03787 1.08225 0.3183 0.0
H1211 H 1.02523 1.05101 0.33564 0.0
H1212 H 1.02728 1.08012 0.36281 0.0
H1213 H 0.97622 1.07304 0.37685 0.0
H1214 H 0.97479 1.04481 0.34792 0.0
H1215 H 0.95203 1.07255 0.34212 0.0
H1216 H 0.97294 0.11311 0.21987 0.0
H1217 H 0.97529 1.06986 0.18873 0.0
H1218 H 0.99396 1.02975 0.28469 0.0
C1219 C 0.99331 0.13035 0.35522 0.0
C1220 C 0.98744 0.15858 0.35116 0.0
C1221 C 0.9786 0.16615 0.31761 0.0
C1222 C 0.97649 0.14745 0.28964 0.0
C1223 C 0.98257 0.12011 0.2945 0.0
C1224 C 0.99013 0.11149 0.32696 0.0
C1225 C 0.99385 1.08066 0.32582 0.0
C1226 C 1.02281 1.0731 0.33624 0.0
C1227 C 0.97299 1.06695 0.34961 0.0
C1228 C 0.98838 1.07328 0.28759 0.0
C1229 C 0.9821 0.09652 0.26992 0.0
C1230 C 0.97743 0.09504 0.23412 0.0
C1231 C 0.97888 1.06995 0.21626 0.0
C1232 C 0.98439 1.04525 0.23325 0.0
C1233 C 0.98917 1.04754 0.27003 0.0
H1234 H 0.28667 0.74368 0.07396 0.0
H1235 H 0.32088 0.69397 0.1545 0.0
H1236 H 0.36233 0.6887 0.12041 0.0
H1237 H 0.31791 0.70604 0.00036 0.0
H1238 H 0.3255 0.73521 0.97461 0.0
H1239 H 0.29735 0.73561 0.00448 0.0
H1240 H 0.31727 0.77764 0.03371 0.0
H1241 H 0.34545 0.77732 0.0039 0.0
H1242 H 0.35155 0.77697 0.0497 0.0
H1243 H 0.40261 0.68853 0.0785 0.0
H1244 H 0.43678 0.693 0.03251 0.0
H1245 H 0.38123 0.74213 0.97384 0.0
C1246 C 0.30271 0.73149 0.08447 0.0
C1247 C 0.29921 0.71926 0.11829 0.0
C1248 C 0.32178 0.70382 0.12964 0.0
C1249 C 0.34598 0.7006 0.11008 0.0
C1250 C 0.34886 0.71278 0.07776 0.0
C1251 C 0.32784 0.72793 0.06469 0.0
C1252 C 0.33723 0.73876 0.0288 0.0
C1253 C 0.31836 0.72829 0.00036 0.0
C1254 C 0.3379 0.76951 0.02903 0.0
C1255 C 0.36641 0.72735 0.02405 0.0
C1256 C 0.37239 0.71246 0.05304 0.0
C1257 C 0.3978 0.70011 0.05576 0.0
C1258 C 0.41747 0.7028 0.02895 0.0
C1259 C 0.41281 0.71772 -0.0018 0.0
C1260 C 0.38627 0.73022 -0.00379 0.0
H1261 H 0.71314 0.11605 0.72073 0.0
H1262 H 0.75871 0.17234 0.7833 0.0
H1263 H 0.76273 0.13832 0.8287 0.0
H1264 H 0.67622 1.08436 0.79376 0.0
H1265 H 0.67731 1.05073 0.77696 0.0
H1266 H 0.67796 1.07892 0.74785 0.0
H1267 H 0.72229 1.06155 0.7207 0.0
H1268 H 0.72176 1.03331 0.74973 0.0
H1269 H 0.75105 1.05502 0.74793 0.0
H1270 H 0.76238 0.09804 0.86989 0.0
H1271 H 0.75744 1.05639 0.90266 0.0
H1272 H 0.71151 1.02139 0.8186 0.0
C1273 C 0.72421 0.12129 0.74381 0.0
C1274 C 0.7358 0.14806 0.74704 0.0
C1275 C 0.74959 0.1529 0.77872 0.0
C1276 C 0.75202 0.13331 0.80524 0.0
C1277 C 0.74054 0.10771 0.80135 0.0
C1278 C 0.7268 0.10147 0.7714 0.0
C1279 C 0.71616 1.07208 0.77497 0.0
C1280 C 0.68506 1.07148 0.77326 0.0
C1281 C 0.72854 1.05444 0.74663 0.0
C1282 C 0.72606 1.06292 0.81127 0.0
C1283 C 0.74012 1.08419 0.82561 0.0
C1284 C 0.75134 1.08149 0.85854 0.0
C1285 C 0.74832 1.05717 0.87733 0.0
C1286 C 0.73403 1.0343 0.86459 0.0
C1287 C 0.72272 1.03769 0.83023 0.0
H1288 H 0.61279 0.23366 0.89691 0.0
H1289 H 0.54072 0.19476 0.85665 0.0
H1290 H 0.56169 0.19324 0.79881 0.0
H1291 H 0.62774 0.27396 0.81721 0.0
H1292 H 0.66385 0.27034 0.8223 0.0
H1293 H 0.64207 0.27109 0.85974 0.0
H1294 H 0.66169 0.2256 0.87967 0.0
H1295 H 0.68328 0.22469 0.84218 0.0
H1296 H 0.66034 0.19726 0.85091 0.0
H1297 H 0.59252 0.18945 0.74857 0.0
H1298 H 0.62998 0.18832 0.70616 0.0
H1299 H 0.68122 0.23284 0.77665 0.0
C1300 C 0.6013 0.22536 0.87567 0.0
C1301 C 0.57514 0.21442 0.88103 0.0
C1302 C 0.56065 0.20355 0.85285 0.0
C1303 C 0.57241 0.20253 0.82 0.0
C1304 C 0.59845 0.21293 0.81566 0.0
C1305 C 0.61257 0.22466 0.84247 0.0
C1306 C 0.6407 0.23339 0.83096 0.0
C1307 C 0.64376 0.26402 0.83265 0.0
C1308 C 0.6628 0.21939 0.85219 0.0
C1309 C 0.64054 0.22365 0.79398 0.0
C1310 C 0.61594 0.2119 0.78577 0.0
C1311 C 0.61164 0.19916 0.75432 0.0
C1312 C 0.63304 0.19844 0.73055 0.0
C1313 C 0.6582 0.21072 0.73823 0.0
C1314 C 0.66191 0.22378 0.7701 0.0
H1315 H 0.75364 0.85384 0.14071 0.0
H1316 H 0.71205 0.78136 0.10802 0.0
H1317 H 0.70453 0.80143 0.0507 0.0
H1318 H 0.70912 0.90043 0.09367 0.0
H1319 H 0.73671 0.92296 0.08362 0.0
H1320 H 0.73748 0.90337 0.12265 0.0
H1321 H 0.78419 0.88421 0.10446 0.0
H1322 H 0.78336 0.90356 0.06533 0.0
H1323 H 0.78758 0.86776 0.06329 0.0
H1324 H 0.7041 0.82827 0.99571 0.0
H1325 H 0.70951 0.86073 0.94786 0.0
H1326 H 0.74962 0.91619 0.01727 0.0
C1327 C 0.74245 0.84235 0.1218 0.0
C1328 C 0.7336 0.81591 0.1289 0.0
C1329 C 0.71946 0.80145 0.10307 0.0
C1330 C 0.7149 0.81275 0.0705 0.0
C1331 C 0.72432 0.83865 0.06421 0.0
C1332 C 0.73755 0.8534 0.08924 0.0
C1333 C 0.74617 0.88061 0.07563 0.0
C1334 C 0.73149 0.90317 0.09505 0.0
C1335 C 0.77716 0.88422 0.07727 0.0
C1336 C 0.73642 0.87853 0.03876 0.0
C1337 C 0.72373 0.85425 0.03271 0.0
C1338 C 0.71385 0.84741 0.00021 0.0
C1339 C 0.71714 0.86586 0.97319 0.0
C1340 C 0.73008 0.8908 0.97894 0.0
C1341 C 0.73959 0.89725 0.01221 0.0
H1342 H 1.03759 0.99271 0.26654 0.0
H1343 H 1.08606 0.93696 0.20715 0.0
H1344 H 0.11659 0.93089 0.25696 0.0
H1345 H 1.09646 1.02461 0.30647 0.0
H1346 H 1.07744 1.03143 0.34525 0.0
H1347 H 1.06036 1.02911 0.30431 0.0
H1348 H 1.02861 0.99295 0.3328 0.0
H1349 H 1.04763 0.99426 0.37232 0.0
H1350 H 1.04349 0.96286 0.34998 0.0
H1351 H 0.14175 0.93116 0.31321 0.0
H1352 H 0.16189 0.94018 0.37025 0.0
H1353 H 1.09913 0.99886 0.3907 0.0
C1354 C 1.05449 0.97904 0.26426 0.0
C1355 C 1.05936 0.96491 0.23345 0.0
C1356 C 1.08199 0.94773 0.23083 0.0
C1357 C 1.09935 0.94413 0.25894 0.0
C1358 C 1.09408 0.9584 0.28906 0.0
C1359 C 1.07248 0.97584 0.29169 0.0
C1360 C 1.07264 0.99047 0.3258 0.0
C1361 C 1.07697 1.0207 0.32016 0.0
C1362 C 1.04654 0.98478 0.34644 0.0
C1363 C 1.09716 0.97789 0.34245 0.0
C1364 C 0.10926 0.95945 0.32084 0.0
C1365 C 0.13254 0.94564 0.33032 0.0
C1366 C 0.14392 0.95104 0.36266 0.0
C1367 C 0.13214 0.97027 0.38497 0.0
C1368 C 0.10837 0.98371 0.37459 0.0
H1369 H 0.93978 0.29042 0.50399 0.0
H1370 H 1.02672 0.27941 0.49439 0.0
H1371 H 1.0338 0.30534 0.54778 0.0
H1372 H 0.94121 0.3574 0.53712 0.0
H1373 H 0.91359 0.35212 0.567 0.0
H1374 H 0.91531 0.33287 0.5278 0.0
H1375 H 0.9133 0.28886 0.56323 0.0
H1376 H 0.91149 0.30796 0.60256 0.0
H1377 H 0.93774 0.28337 0.59689 0.0
H1378 H 1.03161 0.3337 0.60066 0.0
H1379 H 1.02025 0.36087 0.65168 0.0
H1380 H 0.9345 0.35113 0.62918 0.0
C1381 C 0.96028 0.29369 0.51309 0.0
C1382 C 0.98273 0.28328 0.49503 0.0
C1383 C 1.00926 0.2874 0.50787 0.0
C1384 C 1.01349 0.30208 0.53812 0.0
C1385 C 0.99095 0.31219 0.55535 0.0
C1386 C 0.96485 0.308 0.54354 0.0
C1387 C 0.94415 0.32047 0.5675 0.0
C1388 C 0.92759 0.342 0.54873 0.0
C1389 C 0.92558 0.29888 0.58349 0.0
C1390 C 0.96275 0.33276 0.59423 0.0
C1391 C 0.98964 0.32775 0.58668 0.0
C1392 C 1.01061 0.33753 0.60711 0.0
C1393 C 1.00393 0.35281 0.63617 0.0
C1394 C 0.97647 0.35803 0.64469 0.0
C1395 C 0.95569 0.34777 0.6233 0.0
H1396 H 0.6471 0.98892 0.147 0.0
H1397 H 0.6012 0.93434 0.08239 0.0
H1398 H 0.57047 0.92441 0.13132 0.0
H1399 H 0.63941 0.95026 0.22835 0.0
H1400 H 0.63644 0.98022 0.25395 0.0
H1401 H 0.6566 0.98053 0.21506 0.0
H1402 H 0.62855 1.02045 0.19204 0.0
H1403 H 0.60822 1.02015 0.23066 0.0
H1404 H 0.59219 1.01729 0.18913 0.0
H1405 H 0.54166 0.9249 0.18448 0.0
H1406 H 0.51835 0.93373 0.24 0.0
H1407 H 0.58337 0.98708 0.27037 0.0
C1408 C 0.63082 0.97457 0.14338 0.0
C1409 C 0.62646 0.96234 0.11105 0.0
C1410 C 0.60502 0.94364 0.10714 0.0
C1411 C 0.58746 0.93795 0.13471 0.0
C1412 C 0.59192 0.95086 0.16604 0.0
C1413 C 0.61328 0.96851 0.17068 0.0
C1414 C 0.61275 0.9808 0.20634 0.0
C1415 C 0.63779 0.97244 0.22716 0.0
C1416 C 0.61027 1.01148 0.2044 0.0
C1417 C 0.5872 0.96806 0.22063 0.0
C1418 C 0.57555 0.95076 0.197 0.0
C1419 C 0.55076 0.93813 0.2033 0.0
C1420 C 0.53749 0.94351 0.23449 0.0
C1421 C 0.54904 0.9612 0.25877 0.0
C1422 C 0.5744 0.97323 0.25215 0.0
H1423 H 0.46557 0.33451 0.85977 0.0
H1424 H 0.49888 0.40937 0.89811 0.0
H1425 H 0.5054 0.38868 0.95532 0.0
H1426 H 0.4286 0.31717 0.93319 0.0
H1427 H 0.43532 0.28176 0.9311 0.0
H1428 H 0.43556 0.30147 0.89225 0.0
H1429 H 0.48444 0.28564 0.87845 0.0
H1430 H 0.48414 0.26564 0.91716 0.0
H1431 H 0.5107 0.29 0.9102 0.0
H1432 H 0.50495 0.3612 0.00918 0.0
H1433 H 0.49866 0.32811 0.05598 0.0
H1434 H 0.46656 0.27086 0.98232 0.0
C1435 C 0.47484 0.34635 0.87996 0.0
C1436 C 0.48167 0.37356 0.87457 0.0
C1437 C 0.49322 0.38857 0.90185 0.0
C1438 C 0.49717 0.37696 0.93432 0.0
C1439 C 0.48965 0.35028 0.93898 0.0
C1440 C 0.47898 0.33505 0.91251 0.0
C1441 C 0.47141 0.30717 0.92479 0.0
C1442 C 0.44092 0.30159 0.92006 0.0
C1443 C 0.48871 0.28586 0.90656 0.0
C1444 C 0.47873 0.30943 0.96253 0.0
C1445 C 0.48944 0.33437 0.97011 0.0
C1446 C 0.49677 0.34155 0.00353 0.0
C1447 C 0.49297 0.32272 0.02992 0.0
C1448 C 0.48197 0.29712 0.02265 0.0
C1449 C 0.47502 0.29034 0.9885 0.0
H1450 H 0.17707 0.1982 0.73267 0.0
H1451 H 0.12061 0.23983 0.79969 0.0
H1452 H 1.08758 0.24223 0.75218 0.0
H1453 H 0.16011 0.23421 0.65345 0.0
H1454 H 0.16324 0.20489 0.62666 0.0
H1455 H 0.18325 0.20795 0.66525 0.0
H1456 H 0.1643 0.16258 0.6872 0.0
H1457 H 0.14421 0.15932 0.64878 0.0
H1458 H 0.12812 0.15776 0.69057 0.0
H1459 H 1.06011 0.23864 0.69878 0.0
H1460 H 1.03921 0.22842 0.64258 0.0
H1461 H 0.11305 0.18858 0.60997 0.0
C1462 C 0.15783 0.208 0.73714 0.0
C1463 C 0.15123 0.21876 0.76973 0.0
C1464 C 0.12587 0.23129 0.77488 0.0
C1465 C 0.10706 0.23287 0.74806 0.0
C1466 C 0.11395 0.22174 0.71633 0.0
C1467 C 0.13868 0.20953 0.71068 0.0
C1468 C 0.14046 0.19819 0.67452 0.0
C1469 C 0.1631 0.21215 0.65375 0.0
C1470 C 0.1445 0.16765 0.67534 0.0
C1471 C 0.11266 0.20551 0.66103 0.0
C1472 C 1.09786 0.21936 0.68546 0.0
C1473 C 1.07152 0.22798 0.67929 0.0
C1474 C 1.05987 0.22218 0.64727 0.0
C1475 C 1.07451 0.20777 0.62191 0.0
C1476 C 1.1013 0.19946 0.62895 0.0
H1477 H 0.23096 0.86087 0.52786 0.0
H1478 H 0.21201 0.94017 0.48971 0.0
H1479 H 0.20457 0.92185 0.43159 0.0
H1480 H 0.26994 0.84216 0.45871 0.0
H1481 H 0.25927 0.8076 0.45702 0.0
H1482 H 0.25769 0.82559 0.49711 0.0
H1483 H 0.20649 0.81429 0.50278 0.0
H1484 H 0.20795 0.79607 0.46266 0.0
H1485 H 0.18383 0.82275 0.46815 0.0
H1486 H 0.20583 0.89706 0.3769 0.0
H1487 H 0.21617 0.86698 0.3282 0.0
H1488 H 0.23536 0.80334 0.40013 0.0
C1489 C 0.22445 0.87409 0.50739 0.0
C1490 C 0.22193 0.90185 0.51306 0.0
C1491 C 0.21405 0.91882 0.48569 0.0
C1492 C 0.2096 0.90858 0.45267 0.0
C1493 C 0.21315 0.88127 0.44743 0.0
C1494 C 0.22027 0.86415 0.47396 0.0
C1495 C 0.22582 0.83625 0.46032 0.0
C1496 C 0.25491 0.8274 0.46879 0.0
C1497 C 0.20477 0.81615 0.47431 0.0
C1498 C 0.22216 0.84081 0.42193 0.0
C1499 C 0.21423 0.86679 0.41524 0.0
C1500 C 0.21162 0.87652 0.38176 0.0
C1501 C 0.21773 0.85939 0.35429 0.0
C1502 C 0.22653 0.8329 0.36047 0.0
C1503 C 0.22819 0.82336 0.39473 0.0
H1504 H 0.13248 0.70368 0.40734 0.0
H1505 H 1.0566 0.74196 0.3807 0.0
H1506 H 1.07369 0.74995 0.32165 0.0
H1507 H 0.17624 0.74734 0.35437 0.0
H1508 H 0.19856 0.72044 0.34221 0.0
H1509 H 0.18146 0.71965 0.38338 0.0
H1510 H 0.16078 0.67325 0.3689 0.0
H1511 H 0.17782 0.6736 0.32778 0.0
H1512 H 0.14156 0.66912 0.32979 0.0
H1513 H 1.09703 0.74937 0.26401 0.0
H1514 H 0.12652 0.74299 0.21287 0.0
H1515 H 0.18738 0.70609 0.27761 0.0
C1516 C 0.11962 0.71404 0.38917 0.0
C1517 C 1.09328 0.7223 0.39858 0.0
C1518 C 1.07702 0.73585 0.37417 0.0
C1519 C 1.08648 0.74034 0.34053 0.0
C1520 C 0.11231 0.73138 0.33186 0.0
C1521 C 0.1288 0.71881 0.35558 0.0
C1522 C 0.15536 0.71031 0.33939 0.0
C1523 C 0.17934 0.72533 0.35581 0.0
C1524 C 0.15908 0.67977 0.3416 0.0
C1525 C 0.15085 0.71931 0.30264 0.0
C1526 C 0.12595 0.73149 0.2988 0.0
C1527 C 0.11672 0.74017 0.26676 0.0
C1528 C 0.13347 0.73632 0.2379 0.0
C1529 C 0.15909 0.72408 0.24148 0.0
C1530 C 0.16791 0.71567 0.27426 0.0
H1531 H 0.21937 0.34272 0.64222 0.0
H1532 H 0.26588 0.2764 0.60111 0.0
H1533 H 0.26606 0.29769 0.54377 0.0
H1534 H 0.17882 0.35553 0.56147 0.0
H1535 H 0.1799 0.39127 0.56793 0.0
H1536 H 0.17976 0.36902 0.60457 0.0
H1537 H 0.22383 0.39151 0.62673 0.0
H1538 H 0.2242 0.41357 0.59006 0.0
H1539 H 0.25323 0.39293 0.59895 0.0
H1540 H 0.26771 0.32849 0.49447 0.0
H1541 H 0.2682 0.36643 0.45383 0.0
H1542 H 0.21875 0.41269 0.52452 0.0
C1543 C 0.2288 0.33234 0.62083 0.0
C1544 C 0.24266 0.30796 0.62599 0.0
C1545 C 0.25536 0.2952 0.59767 0.0
C1546 C 0.25541 0.30703 0.565 0.0
C1547 C 0.2424 0.33149 0.56097 0.0
C1548 C 0.22899 0.34392 0.58789 0.0
C1549 C 0.21856 0.37119 0.57703 0.0
C1550 C 0.1874 0.37178 0.57779 0.0
C1551 C 0.23069 0.39361 0.59953 0.0
C1552 C 0.22928 0.37256 0.54036 0.0
C1553 C 0.24276 0.34928 0.53166 0.0
C1554 C 0.25669 0.34657 0.50059 0.0
C1555 C 0.25703 0.36826 0.47783 0.0
C1556 C 0.24334 0.39223 0.48611 0.0
C1557 C 0.22888 0.39429 0.51746 0.0
H1558 H 0.53289 0.47761 0.77469 0.0
H1559 H 0.59428 0.44896 0.70339 0.0
H1560 H 0.62565 0.4419 0.75202 0.0
H1561 H 0.57617 0.51445 0.82762 0.0
H1562 H 0.55896 0.50638 0.86743 0.0
H1563 H 0.54048 0.50642 0.82755 0.0
H1564 H 0.52504 0.45745 0.83882 0.0
H1565 H 0.5436 0.45722 0.87877 0.0
H1566 H 0.5501 0.43204 0.84655 0.0
H1567 H 0.65144 0.44182 0.80692 0.0
H1568 H 0.67068 0.44979 0.86473 0.0
H1569 H 0.5926 0.47828 0.90072 0.0
C1570 C 0.55287 0.46962 0.76942 0.0
C1571 C 0.56137 0.464 0.73541 0.0
C1572 C 0.58757 0.45361 0.72933 0.0
C1573 C 0.6054 0.44934 0.75677 0.0
C1574 C 0.59656 0.45538 0.79003 0.0
C1575 C 0.5709 0.46524 0.79651 0.0
C1576 C 0.56703 0.47169 0.83436 0.0
C1577 C 0.56028 0.5015 0.83952 0.0
C1578 C 0.54515 0.45351 0.85057 0.0
C1579 C 0.59496 0.46498 0.8479 0.0
C1580 C 0.61149 0.45517 0.82197 0.0
C1581 C 0.63865 0.44916 0.82756 0.0
C1582 C 0.64941 0.45385 0.86034 0.0
C1583 C 0.63305 0.46457 0.88701 0.0
C1584 C 0.60535 0.46961 0.88089 0.0
H1585 H 0.47903 0.76774 0.02376 0.0
H1586 H 0.4822 0.83161 0.94779 0.0
H1587 H 0.47982 0.86513 0.99429 0.0
H1588 H 0.43201 0.79815 0.08031 0.0
H1589 H 0.44796 0.78686 0.11941 0.0
H1590 H 0.4514 0.76766 0.08036 0.0
H1591 H 0.50376 0.77022 0.08526 0.0
H1592 H 0.50051 0.78931 0.12447 0.0
H1593 H 0.52014 0.80244 0.08892 0.0
H1594 H 0.47342 0.89146 0.04778 0.0
H1595 H 0.46595 0.90962 0.10587 0.0
H1596 H 0.46972 0.82913 0.14837 0.0
C1597 C 0.47944 0.78879 0.01702 0.0
C1598 C 0.48059 0.79715 0.98223 0.0
C1599 C 0.48117 0.82481 0.9743 0.0
C1600 C 0.47987 0.844 0.00051 0.0
C1601 C 0.47831 0.83517 0.0345 0.0
C1602 C 0.47838 0.80828 0.04294 0.0
C1603 C 0.47609 0.8043 0.08161 0.0
C1604 C 0.45033 0.7883 0.09096 0.0
C1605 C 0.50164 0.79077 0.0959 0.0
C1606 C 0.47408 0.83319 0.09341 0.0
C1607 C 0.47546 0.85058 0.06576 0.0
C1608 C 0.47283 0.87812 0.06977 0.0
C1609 C 0.46877 0.88825 0.10301 0.0
C1610 C 0.4676 0.87093 0.132 0.0
C1611 C 0.47039 0.84299 0.12691 0.0
H1612 H 1.09641 0.49591 0.60833 0.0
H1613 H 0.16963 0.45538 0.64108 0.0
H1614 H 0.14854 0.44606 0.6976 0.0
H1615 H 1.08111 0.52704 0.68801 0.0
H1616 H 1.04491 0.52249 0.685 0.0
H1617 H 1.06511 0.52509 0.64636 0.0
H1618 H 1.04606 0.47956 0.62514 0.0
H1619 H 1.0257 0.47693 0.66371 0.0
H1620 H 1.04878 0.45044 0.65239 0.0
H1621 H 0.12091 0.44295 0.75101 0.0
H1622 H 1.0878 0.44581 0.79867 0.0
H1623 H 1.03159 0.48709 0.73146 0.0
C1624 C 0.10784 0.48473 0.62722 0.0
C1625 C 0.13475 0.47651 0.62037 0.0
C1626 C 0.14918 0.46226 0.64595 0.0
C1627 C 0.1373 0.45668 0.67802 0.0
C1628 C 0.11091 0.46532 0.68406 0.0
C1629 C 1.09625 0.47893 0.65941 0.0
C1630 C 1.06842 0.48652 0.67302 0.0
C1631 C 1.06469 0.5171 0.6731 0.0
C1632 C 1.04591 0.47252 0.65233 0.0
C1633 C 1.07003 0.47549 0.70936 0.0
C1634 C 1.0947 0.46324 0.71504 0.0
C1635 C 1.10146 0.45233 0.74687 0.0
C1636 C 1.08259 0.45416 0.77378 0.0
C1637 C 1.05728 0.46672 0.76865 0.0
C1638 C 1.05077 0.47724 0.73593 0.0
H1639 H 0.93175 0.85021 0.37121 0.0
H1640 H 1.01727 0.87041 0.36124 0.0
H1641 H 1.02713 0.84338 0.41279 0.0
H1642 H 0.92948 0.8543 0.46421 0.0
H1643 H 0.90589 0.8268 0.46877 0.0
H1644 H 0.90551 0.84715 0.43041 0.0
H1645 H 0.91171 0.80463 0.39291 0.0
H1646 H 0.91221 0.78422 0.43122 0.0
H1647 H 0.94001 0.78283 0.40096 0.0
H1648 H 1.02807 0.81371 0.46411 0.0
H1649 H 1.0197 0.7849 0.51464 0.0
H1650 H 0.93328 0.78592 0.49381 0.0
C1651 C 0.95252 0.84921 0.38003 0.0
C1652 C 0.97377 0.86229 0.36195 0.0
C1653 C 1.00072 0.86015 0.37419 0.0
C1654 C 1.00652 0.84499 0.40358 0.0
C1655 C 0.98513 0.83229 0.4206 0.0
C1656 C 0.95865 0.83436 0.40952 0.0
C1657 C 0.93941 0.81904 0.43297 0.0
C1658 C 0.91887 0.83796 0.45011 0.0
C1659 C 0.92499 0.79633 0.41333 0.0
C1660 C 0.95927 0.80807 0.45897 0.0
C1661 C 0.98555 0.8158 0.4511 0.0
C1662 C 1.00759 0.80766 0.47069 0.0
C1663 C 1.00262 0.79126 0.49926 0.0
C1664 C 0.97583 0.78343 0.50809 0.0
C1665 C 0.95389 0.79194 0.48773 0.0
H1666 H 0.62449 0.70848 0.10119 0.0
H1667 H 0.54993 0.74765 0.13259 0.0
H1668 H 0.5689 0.75491 0.1906 0.0
H1669 H 0.63655 0.67391 0.17571 0.0
H1670 H 0.67282 0.67855 0.17623 0.0
H1671 H 0.65492 0.67912 0.13594 0.0
H1672 H 0.67473 0.72619 0.12224 0.0
H1673 H 0.69302 0.72561 0.16238 0.0
H1674 H 0.67051 0.75293 0.15297 0.0
H1675 H 0.5935 0.753 0.24658 0.0
H1676 H 0.62369 0.74476 0.29614 0.0
H1677 H 0.68299 0.70891 0.22753 0.0
C1678 C 0.61244 0.71933 0.11988 0.0
C1679 C 0.58564 0.72731 0.11243 0.0
C1680 C 0.57034 0.74092 0.13791 0.0
C1681 C 0.58101 0.74536 0.17083 0.0
C1682 C 0.60716 0.73649 0.17761 0.0
C1683 C 0.62289 0.72419 0.15272 0.0
C1684 C 0.6499 0.7154 0.16718 0.0
C1685 C 0.65375 0.68495 0.16355 0.0
C1686 C 0.67343 0.73096 0.15019 0.0
C1687 C 0.64628 0.72349 0.20447 0.0
C1688 C 0.62162 0.73588 0.20988 0.0
C1689 C 0.61303 0.74369 0.24261 0.0
C1690 C 0.63016 0.73874 0.27057 0.0
C1691 C 0.65549 0.72617 0.26546 0.0
C1692 C 0.66373 0.71869 0.232 0.0
H1693 H 0.72034 0.40999 0.98419 0.0
H1694 H 0.77746 0.37014 0.0516 0.0
H1695 H 0.78338 0.3344 0.00871 0.0
H1696 H 0.68993 0.34882 0.94632 0.0
H1697 H 0.68777 0.36308 0.90371 0.0
H1698 H 0.68546 0.3844 0.9411 0.0
H1699 H 0.72518 0.41337 0.91788 0.0
H1700 H 0.72768 0.39223 0.88044 0.0
H1701 H 0.75697 0.39766 0.90726 0.0
H1702 H 0.78554 0.30455 0.95851 0.0
H1703 H 0.78563 0.28289 0.9015 0.0
H1704 H 0.72862 0.34201 0.86403 0.0
C1705 C 0.73368 0.39344 0.98999 0.0
C1706 C 0.74829 0.39266 0.02126 0.0
C1707 C 0.76606 0.3711 0.02781 0.0
C1708 C 0.76946 0.35061 0.0037 0.0
C1709 C 0.75511 0.35203 0.97296 0.0
C1710 C 0.73767 0.37287 0.9658 0.0
C1711 C 0.72651 0.37041 0.92947 0.0
C1712 C 0.69558 0.36644 0.93021 0.0
C1713 C 0.73458 0.39487 0.90747 0.0
C1714 C 0.74085 0.34523 0.91731 0.0
C1715 C 0.75692 0.33487 0.94312 0.0
C1716 C 0.77297 0.31236 0.93807 0.0
C1717 C 0.77301 0.3003 0.90555 0.0
C1718 C 0.75728 0.31084 0.8783 0.0
C1719 C 0.74061 0.33335 0.8845 0.0
H1720 H 0.3661 0.36252 0.13832 0.0
H1721 H 0.44511 0.38591 0.17612 0.0
H1722 H 0.42787 0.43111 0.18893 0.0
H1723 H 0.3426 0.43496 0.11005 0.0
H1724 H 0.30888 0.42706 0.12515 0.0
H1725 H 0.3294 0.40143 0.10542 0.0
H1726 H 0.32289 0.3714 0.1594 0.0
H1727 H 0.30232 0.39658 0.17871 0.0
H1728 H 0.33179 0.38453 0.20123 0.0
H1729 H 0.4005 0.46698 0.21315 0.0
H1730 H 0.36619 0.48584 0.25225 0.0
H1731 H 0.30394 0.43943 0.20087 0.0
C1732 C 0.38001 0.37772 0.14753 0.0
C1733 C 0.40684 0.371 0.15606 0.0
C1734 C 0.42444 0.39084 0.16938 0.0
C1735 C 0.41487 0.41665 0.17628 0.0
C1736 C 0.38769 0.42232 0.16961 0.0
C1737 C 0.37052 0.40337 0.15517 0.0
C1738 C 0.34116 0.41175 0.15812 0.0
C1739 C 0.32985 0.41925 0.12257 0.0
C1740 C 0.32358 0.3898 0.17545 0.0
C1741 C 0.34424 0.43638 0.18057 0.0
C1742 C 0.37127 0.44318 0.185 0.0
C1743 C 0.37929 0.46227 0.20922 0.0
C1744 C 0.35965 0.47283 0.23151 0.0
C1745 C 0.33247 0.46368 0.22997 0.0
C1746 C 0.32444 0.44713 0.2023 0.0
H1747 H 0.56273 0.67811 0.45275 0.0
H1748 H 0.57496 0.62483 0.36611 0.0
H1749 H 0.53137 0.60293 0.37836 0.0
H1750 H 0.54753 0.63461 0.50781 0.0
H1751 H 0.52139 0.65162 0.53186 0.0
H1752 H 0.5456 0.67069 0.50781 0.0
H1753 H 0.50664 0.69376 0.47472 0.0
H1754 H 0.48211 0.67431 0.49882 0.0
H1755 H 0.48178 0.67378 0.45235 0.0
H1756 H 0.49885 0.57683 0.41045 0.0
H1757 H 0.48479 0.54902 0.45936 0.0
H1758 H 0.48937 0.61786 0.52674 0.0
C1759 C 0.55557 0.6625 0.43567 0.0
C1760 C 0.57223 0.65308 0.4087 0.0
C1761 C 0.56241 0.63267 0.3867 0.0
C1762 C 0.53749 0.62015 0.39342 0.0
C1763 C 0.52241 0.62841 0.422 0.0
C1764 C 0.53085 0.6496 0.44246 0.0
C1765 C 0.51473 0.65074 0.47574 0.0
C1766 C 0.53343 0.65191 0.50761 0.0
C1767 C 0.49514 0.67456 0.47536 0.0
C1768 C 0.49926 0.62451 0.47334 0.0
C1769 C 0.50259 0.61278 0.44119 0.0
C1770 C 0.49527 0.58614 0.43524 0.0
C1771 C 0.48711 0.57038 0.46331 0.0
C1772 C 0.48651 0.58134 0.4969 0.0
C1773 C 0.48984 0.60921 0.50116 0.0
H1774 H 0.25219 0.86746 0.80815 0.0
H1775 H 0.23338 0.81493 0.72277 0.0
H1776 H 0.24248 0.77587 0.75903 0.0
H1777 H 0.30723 0.84326 0.82704 0.0
H1778 H 0.30679 0.84462 0.87354 0.0
H1779 H 0.28564 0.8666 0.84955 0.0
H1780 H 0.24331 0.84879 0.88207 0.0
H1781 H 0.26463 0.8266 0.90659 0.0
H1782 H 0.23616 0.81336 0.88297 0.0
H1783 H 0.27054 0.74613 0.79194 0.0
H1784 H 0.31349 0.73051 0.8162 0.0
H1785 H 0.31661 0.79995 0.88268 0.0
C1786 C 0.24875 0.8476 0.79786 0.0
C1787 C 0.2424 0.84419 0.76273 0.0
C1788 C 0.23796 0.81809 0.74976 0.0
C1789 C 0.24308 0.79567 0.77034 0.0
C1790 C 0.25242 0.79965 0.8039 0.0
C1791 C 0.2545 0.8251 0.81801 0.0
C1792 C 0.27109 0.8248 0.8508 0.0
C1793 C 0.29404 0.84602 0.85008 0.0
C1794 C 0.25269 0.8286 0.88248 0.0
C1795 C 0.28188 0.7965 0.84948 0.0
C1796 C 0.26945 0.78175 0.82366 0.0
C1797 C 0.27968 0.75705 0.81304 0.0
C1798 C 0.3042 0.74825 0.827 0.0
C1799 C 0.31833 0.76427 0.85107 0.0
C1800 C 0.30595 0.78747 0.86432 0.0
H1801 H 0.14511 0.68239 0.95541 0.0
H1802 H 1.0863 0.72427 0.01821 0.0
H1803 H 1.05022 0.71112 0.97793 0.0
H1804 H 0.10442 0.68993 0.8667 0.0
H1805 H 0.11584 0.65693 0.85497 0.0
H1806 H 0.13797 0.6792 0.87848 0.0
H1807 H 0.14404 0.64273 0.92516 0.0
H1808 H 0.12192 0.6207 0.90238 0.0
H1809 H 0.11446 0.62914 0.94664 0.0
H1810 H 1.02038 0.68057 0.9471 0.0
H1811 H 1.00068 0.63774 0.92771 0.0
H1812 H 1.07786 0.61569 0.88284 0.0
C1813 C 0.12496 0.69029 0.95937 0.0
C1814 C 0.11844 0.70408 0.99 0.0
C1815 C 1.09168 0.71341 0.99502 0.0
C1816 C 1.07108 0.70624 0.97201 0.0
C1817 C 1.07766 0.69022 0.94375 0.0
C1818 C 0.10424 0.68305 0.9367 0.0
C1819 C 0.10552 0.66126 0.9096 0.0
C1820 C 0.11658 0.67251 0.87541 0.0
C1821 C 0.12242 0.63706 0.92175 0.0
C1822 C 1.0757 0.65447 0.90655 0.0
C1823 C 1.05982 0.67229 0.92499 0.0
C1824 C 1.03241 0.66712 0.93148 0.0
C1825 C 1.0214 0.64263 0.92065 0.0
C1826 C 1.03784 0.62356 0.90375 0.0
C1827 C 1.06474 0.63032 0.89483 0.0
H1828 H 0.75428 0.87736 0.69146 0.0
H1829 H 0.73148 0.82501 0.77574 0.0
H1830 H 0.74035 0.78591 0.7396 0.0
H1831 H 0.74038 0.82302 0.61558 0.0
H1832 H 0.76999 0.83591 0.59365 0.0
H1833 H 0.74775 0.8584 0.61651 0.0
H1834 H 0.78866 0.87615 0.65136 0.0
H1835 H 0.81069 0.85387 0.62906 0.0
H1836 H 0.80901 0.85284 0.67555 0.0
H1837 H 0.76906 0.75573 0.70852 0.0
H1838 H 0.81317 0.73962 0.68783 0.0
H1839 H 0.82118 0.80927 0.62231 0.0
C1840 C 0.74994 0.85756 0.70146 0.0
C1841 C 0.74263 0.85418 0.73636 0.0
C1842 C 0.73688 0.82819 0.74895 0.0
C1843 C 0.74187 0.80572 0.72841 0.0
C1844 C 0.75251 0.80955 0.69533 0.0
C1845 C 0.75577 0.835 0.68145 0.0
C1846 C 0.77387 0.83444 0.64979 0.0
C1847 C 0.75698 0.83815 0.61694 0.0
C1848 C 0.79692 0.85551 0.65167 0.0
C1849 C 0.78433 0.80606 0.65212 0.0
C1850 C 0.77024 0.79141 0.67682 0.0
C1851 C 0.77956 0.76659 0.68829 0.0
C1852 C 0.80474 0.75754 0.67644 0.0
C1853 C 0.82041 0.77349 0.65374 0.0
C1854 C 0.80921 0.79689 0.63958 0.0
H1855 H 0.78324 0.30767 0.22224 0.0
H1856 H 0.81355 0.31251 0.11739 0.0
H1857 H 0.83929 0.27102 0.12636 0.0
H1858 H 0.83789 0.29502 0.25998 0.0
H1859 H 0.82624 0.27125 0.29189 0.0
H1860 H 0.80286 0.29434 0.27364 0.0
H1861 H 0.77205 0.25498 0.25438 0.0
H1862 H 0.79568 0.23153 0.27272 0.0
H1863 H 0.78584 0.2285 0.22817 0.0
H1864 H 0.87221 0.24047 0.15147 0.0
H1865 H 0.90846 0.22512 0.19016 0.0
H1866 H 0.8556 0.2368 0.27807 0.0
C1867 C 0.79403 0.29917 0.20055 0.0
C1868 C 0.7966 0.31344 0.16931 0.0
C1869 C 0.81164 0.30213 0.14182 0.0
C1870 C 0.826 0.2783 0.14651 0.0
C1871 C 0.8246 0.26563 0.17855 0.0
C1872 C 0.80838 0.27536 0.20491 0.0
C1873 C 0.81425 0.26145 0.23871 0.0
C1874 C 0.82074 0.28173 0.26766 0.0
C1875 C 0.79054 0.24301 0.24909 0.0
C1876 C 0.83879 0.24521 0.22833 0.0
C1877 C 0.84367 0.24682 0.19317 0.0
C1878 C 0.86809 0.23813 0.17874 0.0
C1879 C 0.88865 0.22947 0.20088 0.0
C1880 C 0.88462 0.22969 0.23698 0.0
C1881 C 0.85878 0.23567 0.25047 0.0
H1882 H 0.20413 1.06255 0.96402 0.0
H1883 H 0.17328 1.05324 0.86038 0.0
H1884 H 0.15351 1.00968 0.87644 0.0
H1885 H 0.2092 0.98338 0.98336 0.0
H1886 H 0.19935 0.99034 0.02725 0.0
H1887 H 0.22132 1.01331 0.00433 0.0
H1888 H 0.18813 1.05183 0.01792 0.0
H1889 H 0.16618 1.02926 0.04027 0.0
H1890 H 0.15313 1.04878 0.00492 0.0
H1891 H 0.1229 0.98001 0.90741 0.0
H1892 H 1.08736 0.96685 0.94897 0.0
H1893 H 0.13855 0.99235 0.03313 0.0
C1894 C 0.1948 1.0505 0.94413 0.0
C1895 C 0.18987 1.0614 0.91121 0.0
C1896 C 0.17691 1.04542 0.88601 0.0
C1897 C 0.16588 1.02045 0.89484 0.0
C1898 C 0.16854 1.01143 0.92873 0.0
C1899 C 0.18361 1.02559 0.95278 0.0
C1900 C 0.17874 1.015 0.98891 0.0
C1901 C 0.20363 0.99958 0.0017 0.0
C1902 C 0.17103 1.03755 0.01439 0.0
C1903 C 0.15534 0.99603 0.98212 0.0
C1904 C 0.15073 0.99306 0.94708 0.0
C1905 C 0.12694 0.98121 0.93477 0.0
C1906 C 0.10672 0.97392 0.95852 0.0
C1907 C 0.11045 0.97854 0.99413 0.0
C1908 C 0.1357 0.98792 0.00606 0.0
H1909 H 0.64145 0.18959 0.45645 0.0
H1910 H 0.58192 0.22789 0.52207 0.0
H1911 H 0.54556 0.21251 0.48332 0.0
H1912 H 0.59996 0.19572 0.36992 0.0
H1913 H 0.61238 0.16327 0.35731 0.0
H1914 H 0.63385 0.18582 0.38137 0.0
H1915 H 0.64103 0.1489 0.42727 0.0
H1916 H 0.6196 0.12654 0.40384 0.0
H1917 H 0.61188 0.13407 0.44828 0.0
H1918 H 0.51637 0.18178 0.45094 0.0
H1919 H 0.49774 0.13941 0.4283 0.0
H1920 H 0.5756 0.12109 0.38243 0.0
C1921 C 0.62095 0.1962 0.46147 0.0
C1922 C 0.6145 0.2099 0.49221 0.0
C1923 C 0.5873 0.21727 0.49869 0.0
C1924 C 0.56653 0.20883 0.47659 0.0
C1925 C 0.57335 0.19342 0.44783 0.0
C1926 C 0.60008 0.1877 0.43977 0.0
C1927 C 0.60199 0.16644 0.41205 0.0
C1928 C 0.61267 0.17855 0.37815 0.0
C1929 C 0.61961 0.14261 0.42361 0.0
C1930 C 0.5724 0.15874 0.4089 0.0
C1931 C 0.55604 0.17533 0.42853 0.0
C1932 C 0.52877 0.16927 0.43452 0.0
C1933 C 0.51837 0.14507 0.42177 0.0
C1934 C 0.53529 0.12717 0.40352 0.0
C1935 C 0.56209 0.13486 0.39539 0.0
loop_
_geom_bond_atom_site_label_1
_geom_bond_atom_site_label_2
_geom_bond_distance
_geom_bond_site_symmetry_2
_ccdc_geom_bond_type
Sm0 C2 2.846 . S
Sm0 O20 2.543 . S
Sm0 O21 2.450 . S
Sm0 O22 2.681 1_556 S
Sm0 O23 2.464 1_556 S
Sm0 O24 2.396 1_556 S
Sm0 O28 2.386 1_556 S
Sm0 O31 2.408 . S
Sm1 C11 2.846 . S
Sm1 O22 2.386 . S
Sm1 O25 2.408 . S
Sm1 O26 2.543 . S
Sm1 O27 2.450 . S
Sm1 O28 2.681 . S
Sm1 O29 2.464 . S
Sm1 O30 2.396 . S
C2 Sm0 2.846 . S
C2 C3 1.506 . S
C2 O20 1.261 . S
C2 O21 1.242 . S
C3 C2 1.506 . S
C3 C4 1.358 . S
C3 C8 1.382 . S
C4 C3 1.358 . S
C4 C5 1.385 . S
C4 H32 0.930 . S
C5 C4 1.385 . S
C5 C6 1.395 . S
C5 H33 0.929 . S
C6 C5 1.395 . S
C6 C7 1.335 . S
C7 C6 1.335 . S
C7 C8 1.398 . S
C7 H34 0.930 . S
C8 C3 1.382 . S
C8 C7 1.398 . S
C8 H35 0.929 . S
C9 O22 1.271 . S
C9 O23 1.251 . S
C10 O24 1.252 . S
C10 O25 1.272 . S
C11 Sm1 2.846 . S
C11 C12 1.506 . S
C11 O26 1.261 . S
C11 O27 1.242 . S
C12 C11 1.506 . S
C12 C13 1.358 . S
C12 C17 1.382 . S
C13 C12 1.358 . S
C13 C14 1.385 . S
C13 H36 0.930 . S
C14 C13 1.385 . S
C14 C15 1.395 . S
C14 H37 0.929 . S
C15 C14 1.395 . S
C15 C16 1.335 . S
C16 C15 1.335 . S
C16 C17 1.398 . S
C16 H38 0.930 . S
C17 C12 1.382 . S
C17 C16 1.398 . S
C17 H39 0.929 . S
C18 O28 1.271 1_556 S
C18 O29 1.251 1_556 S
C19 O30 1.252 . S
C19 O31 1.272 1_554 S
O20 Sm0 2.543 . S
O20 C2 1.261 . S
O21 Sm0 2.450 . S
O21 C2 1.242 . S
O22 Sm0 2.681 1_554 S
O22 Sm1 2.386 . S
O22 C9 1.271 . S
O23 Sm0 2.464 1_554 S
O23 C9 1.251 . S
O24 Sm0 2.396 1_554 S
O24 C10 1.252 . S
O25 Sm1 2.408 . S
O25 C10 1.272 . S
O26 Sm1 2.543 . S
O26 C11 1.261 . S
O27 Sm1 2.450 . S
O27 C11 1.242 . S
O28 Sm0 2.386 1_554 S
O28 Sm1 2.681 . S
O28 C18 1.271 1_554 S
O29 Sm1 2.464 . S
O29 C18 1.251 1_554 S
O30 Sm1 2.396 . S
O30 C19 1.252 . S
O31 Sm0 2.408 . S
O31 C19 1.272 1_556 S
H32 C4 0.930 . S
H33 C5 0.929 . S
H34 C7 0.930 . S
H35 C8 0.929 . S
H36 C13 0.930 . S
H37 C14 0.929 . S
H38 C16 0.930 . S
H39 C17 0.929 . S
Sm40 C42 2.846 . S
Sm40 O60 2.543 . S
Sm40 O61 2.450 . S
Sm40 O62 2.681 . S
Sm40 O63 2.464 . S
Sm40 O64 2.396 . S
Sm40 O68 2.386 . S
Sm40 O71 2.408 . S
Sm41 C51 2.846 . S
Sm41 O62 2.386 . S
Sm41 O65 2.408 . S
Sm41 O66 2.543 . S
Sm41 O67 2.450 . S
Sm41 O68 2.681 . S
Sm41 O69 2.464 . S
Sm41 O70 2.396 . S
C42 Sm40 2.846 . S
C42 C43 1.506 . S
C42 O60 1.261 . S
C42 O61 1.242 . S
C43 C42 1.506 . S
C43 C44 1.358 . S
C43 C48 1.382 . S
C44 C43 1.358 . S
C44 C45 1.385 . S
C44 H72 0.930 . S
C45 C44 1.385 . S
C45 C46 1.395 . S
C45 H73 0.929 . S
C46 C45 1.395 . S
C46 C47 1.335 . S
C47 C46 1.335 . S
C47 C48 1.398 . S
C47 H74 0.930 . S
C48 C43 1.382 . S
C48 C47 1.398 . S
C48 H75 0.929 . S
C49 O62 1.271 . S
C49 O63 1.251 . S
C50 O64 1.252 . S
C50 O65 1.272 . S
C51 Sm41 2.846 . S
C51 C52 1.506 . S
C51 O66 1.261 . S
C51 O67 1.242 . S
C52 C51 1.506 . S
C52 C53 1.358 . S
C52 C57 1.382 . S
C53 C52 1.358 . S
C53 C54 1.385 . S
C53 H76 0.930 . S
C54 C53 1.385 . S
C54 C55 1.395 . S
C54 H77 0.929 . S
C55 C54 1.395 . S
C55 C56 1.335 . S
C56 C55 1.335 . S
C56 C57 1.398 . S
C56 H78 0.930 . S
C57 C52 1.382 . S
C57 C56 1.398 . S
C57 H79 0.929 . S
C58 O68 1.271 . S
C58 O69 1.251 . S
C59 O70 1.252 . S
C59 O71 1.272 . S
O60 Sm40 2.543 . S
O60 C42 1.261 . S
O61 Sm40 2.450 . S
O61 C42 1.242 . S
O62 Sm40 2.681 . S
O62 Sm41 2.386 . S
O62 C49 1.271 . S
O63 Sm40 2.464 . S
O63 C49 1.251 . S
O64 Sm40 2.396 . S
O64 C50 1.252 . S
O65 Sm41 2.408 . S
O65 C50 1.272 . S
O66 Sm41 2.543 . S
O66 C51 1.261 . S
O67 Sm41 2.450 . S
O67 C51 1.242 . S
O68 Sm40 2.386 . S
O68 Sm41 2.681 . S
O68 C58 1.271 . S
O69 Sm41 2.464 . S
O69 C58 1.251 . S
O70 Sm41 2.396 . S
O70 C59 1.252 . S
O71 Sm40 2.408 . S
O71 C59 1.272 . S
H72 C44 0.930 . S
H73 C45 0.929 . S
H74 C47 0.930 . S
H75 C48 0.929 . S
H76 C53 0.930 . S
H77 C54 0.929 . S
H78 C56 0.930 . S
H79 C57 0.929 . S
Sm80 C82 2.846 . S
Sm80 O100 2.543 . S
Sm80 O101 2.450 . S
Sm80 O102 2.681 . S
Sm80 O103 2.464 . S
Sm80 O104 2.396 . S
Sm80 O108 2.386 . S
Sm80 O111 2.408 . S
Sm81 C91 2.846 . S
Sm81 O102 2.386 . S
Sm81 O105 2.408 . S
Sm81 O106 2.543 . S
Sm81 O107 2.450 . S
Sm81 O108 2.681 . S
Sm81 O109 2.464 . S
Sm81 O110 2.396 . S
C82 Sm80 2.846 . S
C82 C83 1.506 . S
C82 O100 1.261 . S
C82 O101 1.242 . S
C83 C82 1.506 . S
C83 C84 1.358 . S
C83 C88 1.382 . S
C84 C83 1.358 . S
C84 C85 1.385 . S
C84 H112 0.930 . S
C85 C84 1.385 . S
C85 C86 1.395 . S
C85 H113 0.929 . S
C86 C85 1.395 . S
C86 C87 1.335 . S
C87 C86 1.335 . S
C87 C88 1.398 . S
C87 H114 0.930 . S
C88 C83 1.382 . S
C88 C87 1.398 . S
C88 H115 0.929 . S
C89 O102 1.271 . S
C89 O103 1.251 . S
C90 O104 1.252 . S
C90 O105 1.272 . S
C91 Sm81 2.846 . S
C91 C92 1.506 . S
C91 O106 1.261 . S
C91 O107 1.242 . S
C92 C91 1.506 . S
C92 C93 1.358 . S
C92 C97 1.382 . S
C93 C92 1.358 . S
C93 C94 1.385 . S
C93 H116 0.930 . S
C94 C93 1.385 . S
C94 C95 1.395 . S
C94 H117 0.929 . S
C95 C94 1.395 . S
C95 C96 1.335 . S
C96 C95 1.335 . S
C96 C97 1.398 . S
C96 H118 0.930 . S
C97 C92 1.382 . S
C97 C96 1.398 . S
C97 H119 0.929 . S
C98 O108 1.271 . S
C98 O109 1.251 . S
C99 O110 1.252 . S
C99 O111 1.272 . S
O100 Sm80 2.543 . S
O100 C82 1.261 . S
O101 Sm80 2.450 . S
O101 C82 1.242 . S
O102 Sm80 2.681 . S
O102 Sm81 2.386 . S
O102 C89 1.271 . S
O103 Sm80 2.464 . S
O103 C89 1.251 . S
O104 Sm80 2.396 . S
O104 C90 1.252 . S
O105 Sm81 2.408 . S
O105 C90 1.272 . S
O106 Sm81 2.543 . S
O106 C91 1.261 . S
O107 Sm81 2.450 . S
O107 C91 1.242 . S
O108 Sm80 2.386 . S
O108 Sm81 2.681 . S
O108 C98 1.271 . S
O109 Sm81 2.464 . S
O109 C98 1.251 . S
O110 Sm81 2.396 . S
O110 C99 1.252 . S
O111 Sm80 2.408 . S
O111 C99 1.272 . S
H112 C84 0.930 . S
H113 C85 0.929 . S
H114 C87 0.930 . S
H115 C88 0.929 . S
H116 C93 0.930 . S
H117 C94 0.929 . S
H118 C96 0.930 . S
H119 C97 0.929 . S
Sm120 C122 2.846 . S
Sm120 O140 2.543 . S
Sm120 O141 2.450 . S
Sm120 O142 2.681 . S
Sm120 O143 2.464 . S
Sm120 O144 2.396 . S
Sm120 O148 2.386 . S
Sm120 O151 2.408 . S
Sm121 C131 2.846 . S
Sm121 O142 2.386 . S
Sm121 O145 2.408 . S
Sm121 O146 2.543 . S
Sm121 O147 2.450 . S
Sm121 O148 2.681 . S
Sm121 O149 2.464 . S
Sm121 O150 2.396 . S
C122 Sm120 2.846 . S
C122 C123 1.506 . S
C122 O140 1.261 . S
C122 O141 1.242 . S
C123 C122 1.506 . S
C123 C124 1.358 . S
C123 C128 1.382 . S
C124 C123 1.358 . S
C124 C125 1.385 . S
C124 H152 0.930 . S
C125 C124 1.385 . S
C125 C126 1.395 . S
C125 H153 0.929 . S
C126 C125 1.395 . S
C126 C127 1.335 . S
C127 C126 1.335 . S
C127 C128 1.398 . S
C127 H154 0.930 . S
C128 C123 1.382 . S
C128 C127 1.398 . S
C128 H155 0.929 . S
C129 O142 1.271 . S
C129 O143 1.251 . S
C130 O144 1.252 . S
C130 O145 1.272 . S
C131 Sm121 2.846 . S
C131 C132 1.506 . S
C131 O146 1.261 . S
C131 O147 1.242 . S
C132 C131 1.506 . S
C132 C133 1.358 . S
C132 C137 1.382 . S
C133 C132 1.358 . S
C133 C134 1.385 . S
C133 H156 0.930 . S
C134 C133 1.385 . S
C134 C135 1.395 . S
C134 H157 0.929 . S
C135 C134 1.395 . S
C135 C136 1.335 . S
C136 C135 1.335 . S
C136 C137 1.398 . S
C136 H158 0.930 . S
C137 C132 1.382 . S
C137 C136 1.398 . S
C137 H159 0.929 . S
C138 O148 1.271 . S
C138 O149 1.251 . S
C139 O150 1.252 . S
C139 O151 1.272 . S
O140 Sm120 2.543 . S
O140 C122 1.261 . S
O141 Sm120 2.450 . S
O141 C122 1.242 . S
O142 Sm120 2.681 . S
O142 Sm121 2.386 . S
O142 C129 1.271 . S
O143 Sm120 2.464 . S
O143 C129 1.251 . S
O144 Sm120 2.396 . S
O144 C130 1.252 . S
O145 Sm121 2.408 . S
O145 C130 1.272 . S
O146 Sm121 2.543 . S
O146 C131 1.261 . S
O147 Sm121 2.450 . S
O147 C131 1.242 . S
O148 Sm120 2.386 . S
O148 Sm121 2.681 . S
O148 C138 1.271 . S
O149 Sm121 2.464 . S
O149 C138 1.251 . S
O150 Sm121 2.396 . S
O150 C139 1.252 . S
O151 Sm120 2.408 . S
O151 C139 1.272 . S
H152 C124 0.930 . S
H153 C125 0.929 . S
H154 C127 0.930 . S
H155 C128 0.929 . S
H156 C133 0.930 . S
H157 C134 0.929 . S
H158 C136 0.930 . S
H159 C137 0.929 . S
Sm160 C162 2.846 . S
Sm160 O180 2.543 . S
Sm160 O181 2.450 . S
Sm160 O182 2.681 . S
Sm160 O183 2.464 . S
Sm160 O184 2.396 . S
Sm160 O188 2.386 . S
Sm160 O191 2.408 . S
Sm161 C171 2.846 . S
Sm161 O182 2.386 1_554 S
Sm161 O185 2.408 . S
Sm161 O186 2.543 . S
Sm161 O187 2.450 . S
Sm161 O188 2.681 1_554 S
Sm161 O189 2.464 1_554 S
Sm161 O190 2.396 1_554 S
C162 Sm160 2.846 . S
C162 C163 1.506 . S
C162 O180 1.261 . S
C162 O181 1.242 . S
C163 C162 1.506 . S
C163 C164 1.358 . S
C163 C168 1.382 . S
C164 C163 1.358 . S
C164 C165 1.385 . S
C164 H192 0.930 . S
C165 C164 1.385 . S
C165 C166 1.395 . S
C165 H193 0.929 . S
C166 C165 1.395 . S
C166 C167 1.335 . S
C167 C166 1.335 . S
C167 C168 1.398 . S
C167 H194 0.930 . S
C168 C163 1.382 . S
C168 C167 1.398 . S
C168 H195 0.929 . S
C169 O182 1.271 1_554 S
C169 O183 1.251 1_554 S
C170 O184 1.252 . S
C170 O185 1.272 1_556 S
C171 Sm161 2.846 . S
C171 C172 1.506 . S
C171 O186 1.261 . S
C171 O187 1.242 . S
C172 C171 1.506 . S
C172 C173 1.358 . S
C172 C177 1.382 . S
C173 C172 1.358 . S
C173 C174 1.385 . S
C173 H196 0.930 . S
C174 C173 1.385 . S
C174 C175 1.395 . S
C174 H197 0.929 . S
C175 C174 1.395 . S
C175 C176 1.335 . S
C176 C175 1.335 . S
C176 C177 1.398 . S
C176 H198 0.930 . S
C177 C172 1.382 . S
C177 C176 1.398 . S
C177 H199 0.929 . S
C178 O188 1.271 . S
C178 O189 1.251 . S
C179 O190 1.252 . S
C179 O191 1.272 . S
O180 Sm160 2.543 . S
O180 C162 1.261 . S
O181 Sm160 2.450 . S
O181 C162 1.242 . S
O182 Sm160 2.681 . S
O182 Sm161 2.386 1_556 S
O182 C169 1.271 1_556 S
O183 Sm160 2.464 . S
O183 C169 1.251 1_556 S
O184 Sm160 2.396 . S
O184 C170 1.252 . S
O185 Sm161 2.408 . S
O185 C170 1.272 1_554 S
O186 Sm161 2.543 . S
O186 C171 1.261 . S
O187 Sm161 2.450 . S
O187 C171 1.242 . S
O188 Sm160 2.386 . S
O188 Sm161 2.681 1_556 S
O188 C178 1.271 . S
O189 Sm161 2.464 1_556 S
O189 C178 1.251 . S
O190 Sm161 2.396 1_556 S
O190 C179 1.252 . S
O191 Sm160 2.408 . S
O191 C179 1.272 . S
H192 C164 0.930 . S
H193 C165 0.929 . S
H194 C167 0.930 . S
H195 C168 0.929 . S
H196 C173 0.930 . S
H197 C174 0.929 . S
H198 C176 0.930 . S
H199 C177 0.929 . S
Sm200 C202 2.846 . S
Sm200 O220 2.543 . S
Sm200 O221 2.450 . S
Sm200 O222 2.681 . S
Sm200 O223 2.464 . S
Sm200 O224 2.396 . S
Sm200 O228 2.386 . S
Sm200 O231 2.408 . S
Sm201 C211 2.846 . S
Sm201 O222 2.386 . S
Sm201 O225 2.408 . S
Sm201 O226 2.543 . S
Sm201 O227 2.450 . S
Sm201 O228 2.681 . S
Sm201 O229 2.464 . S
Sm201 O230 2.396 . S
C202 Sm200 2.846 . S
C202 C203 1.506 . S
C202 O220 1.261 . S
C202 O221 1.242 . S
C203 C202 1.506 . S
C203 C204 1.358 . S
C203 C208 1.382 . S
C204 C203 1.358 . S
C204 C205 1.385 . S
C204 H232 0.930 . S
C205 C204 1.385 . S
C205 C206 1.395 . S
C205 H233 0.929 . S
C206 C205 1.395 . S
C206 C207 1.335 . S
C207 C206 1.335 . S
C207 C208 1.398 . S
C207 H234 0.930 . S
C208 C203 1.382 . S
C208 C207 1.398 . S
C208 H235 0.929 . S
C209 O222 1.271 . S
C209 O223 1.251 . S
C210 O224 1.252 . S
C210 O225 1.272 . S
C211 Sm201 2.846 . S
C211 C212 1.506 . S
C211 O226 1.261 . S
C211 O227 1.242 . S
C212 C211 1.506 . S
C212 C213 1.358 . S
C212 C217 1.382 . S
C213 C212 1.358 . S
C213 C214 1.385 . S
C213 H236 0.930 . S
C214 C213 1.385 . S
C214 C215 1.395 . S
C214 H237 0.929 . S
C215 C214 1.395 . S
C215 C216 1.335 . S
C216 C215 1.335 . S
C216 C217 1.398 . S
C216 H238 0.930 . S
C217 C212 1.382 . S
C217 C216 1.398 . S
C217 H239 0.929 . S
C218 O228 1.271 . S
C218 O229 1.251 . S
C219 O230 1.252 . S
C219 O231 1.272 . S
O220 Sm200 2.543 . S
O220 C202 1.261 . S
O221 Sm200 2.450 . S
O221 C202 1.242 . S
O222 Sm200 2.681 . S
O222 Sm201 2.386 . S
O222 C209 1.271 . S
O223 Sm200 2.464 . S
O223 C209 1.251 . S
O224 Sm200 2.396 . S
O224 C210 1.252 . S
O225 Sm201 2.408 . S
O225 C210 1.272 . S
O226 Sm201 2.543 . S
O226 C211 1.261 . S
O227 Sm201 2.450 . S
O227 C211 1.242 . S
O228 Sm200 2.386 . S
O228 Sm201 2.681 . S
O228 C218 1.271 . S
O229 Sm201 2.464 . S
O229 C218 1.251 . S
O230 Sm201 2.396 . S
O230 C219 1.252 . S
O231 Sm200 2.408 . S
O231 C219 1.272 . S
H232 C204 0.930 . S
H233 C205 0.929 . S
H234 C207 0.930 . S
H235 C208 0.929 . S
H236 C213 0.930 . S
H237 C214 0.929 . S
H238 C216 0.930 . S
H239 C217 0.929 . S
Sm240 C242 2.846 . S
Sm240 O260 2.543 . S
Sm240 O261 2.450 . S
Sm240 O262 2.681 . S
Sm240 O263 2.464 . S
Sm240 O264 2.396 . S
Sm240 O268 2.386 . S
Sm240 O271 2.408 . S
Sm241 C251 2.846 . S
Sm241 O262 2.386 . S
Sm241 O265 2.408 . S
Sm241 O266 2.543 . S
Sm241 O267 2.450 . S
Sm241 O268 2.681 . S
Sm241 O269 2.464 . S
Sm241 O270 2.396 . S
C242 Sm240 2.846 . S
C242 C243 1.506 . S
C242 O260 1.261 . S
C242 O261 1.242 . S
C243 C242 1.506 . S
C243 C244 1.358 . S
C243 C248 1.382 . S
C244 C243 1.358 . S
C244 C245 1.385 . S
C244 H272 0.930 . S
C245 C244 1.385 . S
C245 C246 1.395 . S
C245 H273 0.929 . S
C246 C245 1.395 . S
C246 C247 1.335 . S
C247 C246 1.335 . S
C247 C248 1.398 . S
C247 H274 0.930 . S
C248 C243 1.382 . S
C248 C247 1.398 . S
C248 H275 0.929 . S
C249 O262 1.271 . S
C249 O263 1.251 . S
C250 O264 1.252 . S
C250 O265 1.272 . S
C251 Sm241 2.846 . S
C251 C252 1.506 . S
C251 O266 1.261 . S
C251 O267 1.242 . S
C252 C251 1.506 . S
C252 C253 1.358 . S
C252 C257 1.382 . S
C253 C252 1.358 . S
C253 C254 1.385 . S
C253 H276 0.930 . S
C254 C253 1.385 . S
C254 C255 1.395 . S
C254 H277 0.929 . S
C255 C254 1.395 . S
C255 C256 1.335 . S
C256 C255 1.335 . S
C256 C257 1.398 . S
C256 H278 0.930 . S
C257 C252 1.382 . S
C257 C256 1.398 . S
C257 H279 0.929 . S
C258 O268 1.271 . S
C258 O269 1.251 . S
C259 O270 1.252 . S
C259 O271 1.272 . S
O260 Sm240 2.543 . S
O260 C242 1.261 . S
O261 Sm240 2.450 . S
O261 C242 1.242 . S
O262 Sm240 2.681 . S
O262 Sm241 2.386 . S
O262 C249 1.271 . S
O263 Sm240 2.464 . S
O263 C249 1.251 . S
O264 Sm240 2.396 . S
O264 C250 1.252 . S
O265 Sm241 2.408 . S
O265 C250 1.272 . S
O266 Sm241 2.543 . S
O266 C251 1.261 . S
O267 Sm241 2.450 . S
O267 C251 1.242 . S
O268 Sm240 2.386 . S
O268 Sm241 2.681 . S
O268 C258 1.271 . S
O269 Sm241 2.464 . S
O269 C258 1.251 . S
O270 Sm241 2.396 . S
O270 C259 1.252 . S
O271 Sm240 2.408 . S
O271 C259 1.272 . S
H272 C244 0.930 . S
H273 C245 0.929 . S
H274 C247 0.930 . S
H275 C248 0.929 . S
H276 C253 0.930 . S
H277 C254 0.929 . S
H278 C256 0.930 . S
H279 C257 0.929 . S
Sm280 C282 2.846 . S
Sm280 O300 2.543 . S
Sm280 O301 2.450 . S
Sm280 O302 2.681 . S
Sm280 O303 2.464 . S
Sm280 O304 2.396 . S
Sm280 O308 2.386 . S
Sm280 O311 2.408 . S
Sm281 C291 2.846 . S
Sm281 O302 2.386 . S
Sm281 O305 2.408 . S
Sm281 O306 2.543 . S
Sm281 O307 2.450 . S
Sm281 O308 2.681 . S
Sm281 O309 2.464 . S
Sm281 O310 2.396 . S
C282 Sm280 2.846 . S
C282 C283 1.506 . S
C282 O300 1.261 . S
C282 O301 1.242 . S
C283 C282 1.506 . S
C283 C284 1.358 . S
C283 C288 1.382 . S
C284 C283 1.358 . S
C284 C285 1.385 . S
C284 H312 0.930 . S
C285 C284 1.385 . S
C285 C286 1.395 . S
C285 H313 0.929 . S
C286 C285 1.395 . S
C286 C287 1.335 . S
C287 C286 1.335 . S
C287 C288 1.398 . S
C287 H314 0.930 . S
C288 C283 1.382 . S
C288 C287 1.398 . S
C288 H315 0.929 . S
C289 O302 1.271 . S
C289 O303 1.251 . S
C290 O304 1.252 . S
C290 O305 1.272 . S
C291 Sm281 2.846 . S
C291 C292 1.506 . S
C291 O306 1.261 . S
C291 O307 1.242 . S
C292 C291 1.506 . S
C292 C293 1.358 . S
C292 C297 1.382 . S
C293 C292 1.358 . S
C293 C294 1.385 . S
C293 H316 0.930 . S
C294 C293 1.385 . S
C294 C295 1.395 . S
C294 H317 0.929 . S
C295 C294 1.395 . S
C295 C296 1.335 . S
C296 C295 1.335 . S
C296 C297 1.398 . S
C296 H318 0.930 . S
C297 C292 1.382 . S
C297 C296 1.398 . S
C297 H319 0.929 . S
C298 O308 1.271 . S
C298 O309 1.251 . S
C299 O310 1.252 . S
C299 O311 1.272 . S
O300 Sm280 2.543 . S
O300 C282 1.261 . S
O301 Sm280 2.450 . S
O301 C282 1.242 . S
O302 Sm280 2.681 . S
O302 Sm281 2.386 . S
O302 C289 1.271 . S
O303 Sm280 2.464 . S
O303 C289 1.251 . S
O304 Sm280 2.396 . S
O304 C290 1.252 . S
O305 Sm281 2.408 . S
O305 C290 1.272 . S
O306 Sm281 2.543 . S
O306 C291 1.261 . S
O307 Sm281 2.450 . S
O307 C291 1.242 . S
O308 Sm280 2.386 . S
O308 Sm281 2.681 . S
O308 C298 1.271 . S
O309 Sm281 2.464 . S
O309 C298 1.251 . S
O310 Sm281 2.396 . S
O310 C299 1.252 . S
O311 Sm280 2.408 . S
O311 C299 1.272 . S
H312 C284 0.930 . S
H313 C285 0.929 . S
H314 C287 0.930 . S
H315 C288 0.929 . S
H316 C293 0.930 . S
H317 C294 0.929 . S
H318 C296 0.930 . S
H319 C297 0.929 . S
Sm320 C322 2.846 . S
Sm320 O340 2.543 . S
Sm320 O341 2.450 . S
Sm320 O342 2.681 . S
Sm320 O343 2.464 . S
Sm320 O344 2.396 . S
Sm320 O348 2.386 . S
Sm320 O351 2.408 . S
Sm321 C331 2.846 . S
Sm321 O342 2.386 . S
Sm321 O345 2.408 . S
Sm321 O346 2.543 . S
Sm321 O347 2.450 . S
Sm321 O348 2.681 . S
Sm321 O349 2.464 . S
Sm321 O350 2.396 . S
C322 Sm320 2.846 . S
C322 C323 1.506 . S
C322 O340 1.261 . S
C322 O341 1.242 . S
C323 C322 1.506 . S
C323 C324 1.358 . S
C323 C328 1.382 . S
C324 C323 1.358 . S
C324 C325 1.385 . S
C324 H352 0.930 . S
C325 C324 1.385 . S
C325 C326 1.395 . S
C325 H353 0.929 . S
C326 C325 1.395 . S
C326 C327 1.335 . S
C327 C326 1.335 . S
C327 C328 1.398 . S
C327 H354 0.930 . S
C328 C323 1.382 . S
C328 C327 1.398 . S
C328 H355 0.929 . S
C329 O342 1.271 . S
C329 O343 1.251 . S
C330 O344 1.252 . S
C330 O345 1.272 . S
C331 Sm321 2.846 . S
C331 C332 1.506 . S
C331 O346 1.261 . S
C331 O347 1.242 . S
C332 C331 1.506 . S
C332 C333 1.358 . S
C332 C337 1.382 . S
C333 C332 1.358 . S
C333 C334 1.385 . S
C333 H356 0.930 . S
C334 C333 1.385 . S
C334 C335 1.395 . S
C334 H357 0.929 . S
C335 C334 1.395 . S
C335 C336 1.335 . S
C336 C335 1.335 . S
C336 C337 1.398 . S
C336 H358 0.930 . S
C337 C332 1.382 . S
C337 C336 1.398 . S
C337 H359 0.929 . S
C338 O348 1.271 . S
C338 O349 1.251 . S
C339 O350 1.252 . S
C339 O351 1.272 . S
O340 Sm320 2.543 . S
O340 C322 1.261 . S
O341 Sm320 2.450 . S
O341 C322 1.242 . S
O342 Sm320 2.681 . S
O342 Sm321 2.386 . S
O342 C329 1.271 . S
O343 Sm320 2.464 . S
O343 C329 1.251 . S
O344 Sm320 2.396 . S
O344 C330 1.252 . S
O345 Sm321 2.408 . S
O345 C330 1.272 . S
O346 Sm321 2.543 . S
O346 C331 1.261 . S
O347 Sm321 2.450 . S
O347 C331 1.242 . S
O348 Sm320 2.386 . S
O348 Sm321 2.681 . S
O348 C338 1.271 . S
O349 Sm321 2.464 . S
O349 C338 1.251 . S
O350 Sm321 2.396 . S
O350 C339 1.252 . S
O351 Sm320 2.408 . S
O351 C339 1.272 . S
H352 C324 0.930 . S
H353 C325 0.929 . S
H354 C327 0.930 . S
H355 C328 0.929 . S
H356 C333 0.930 . S
H357 C334 0.929 . S
H358 C336 0.930 . S
H359 C337 0.929 . S
Sm360 C362 2.846 . S
Sm360 O380 2.543 . S
Sm360 O381 2.450 . S
Sm360 O382 2.681 . S
Sm360 O383 2.464 . S
Sm360 O384 2.396 . S
Sm360 O388 2.386 . S
Sm360 O391 2.408 . S
Sm361 C371 2.846 . S
Sm361 O382 2.386 . S
Sm361 O385 2.408 . S
Sm361 O386 2.543 . S
Sm361 O387 2.450 . S
Sm361 O388 2.681 . S
Sm361 O389 2.464 . S
Sm361 O390 2.396 . S
C362 Sm360 2.846 . S
C362 C363 1.506 . S
C362 O380 1.261 . S
C362 O381 1.242 . S
C363 C362 1.506 . S
C363 C364 1.358 . S
C363 C368 1.382 . S
C364 C363 1.358 . S
C364 C365 1.385 . S
C364 H392 0.930 . S
C365 C364 1.385 . S
C365 C366 1.395 . S
C365 H393 0.929 . S
C366 C365 1.395 . S
C366 C367 1.335 . S
C367 C366 1.335 . S
C367 C368 1.398 . S
C367 H394 0.930 . S
C368 C363 1.382 . S
C368 C367 1.398 . S
C368 H395 0.929 . S
C369 O382 1.271 . S
C369 O383 1.251 . S
C370 O384 1.252 . S
C370 O385 1.272 . S
C371 Sm361 2.846 . S
C371 C372 1.506 . S
C371 O386 1.261 . S
C371 O387 1.242 . S
C372 C371 1.506 . S
C372 C373 1.358 . S
C372 C377 1.382 . S
C373 C372 1.358 . S
C373 C374 1.385 . S
C373 H396 0.930 . S
C374 C373 1.385 . S
C374 C375 1.395 . S
C374 H397 0.929 . S
C375 C374 1.395 . S
C375 C376 1.335 . S
C376 C375 1.335 . S
C376 C377 1.398 . S
C376 H398 0.930 . S
C377 C372 1.382 . S
C377 C376 1.398 . S
C377 H399 0.929 . S
C378 O388 1.271 . S
C378 O389 1.251 . S
C379 O390 1.252 . S
C379 O391 1.272 . S
O380 Sm360 2.543 . S
O380 C362 1.261 . S
O381 Sm360 2.450 . S
O381 C362 1.242 . S
O382 Sm360 2.681 . S
O382 Sm361 2.386 . S
O382 C369 1.271 . S
O383 Sm360 2.464 . S
O383 C369 1.251 . S
O384 Sm360 2.396 . S
O384 C370 1.252 . S
O385 Sm361 2.408 . S
O385 C370 1.272 . S
O386 Sm361 2.543 . S
O386 C371 1.261 . S
O387 Sm361 2.450 . S
O387 C371 1.242 . S
O388 Sm360 2.386 . S
O388 Sm361 2.681 . S
O388 C378 1.271 . S
O389 Sm361 2.464 . S
O389 C378 1.251 . S
O390 Sm361 2.396 . S
O390 C379 1.252 . S
O391 Sm360 2.408 . S
O391 C379 1.272 . S
H392 C364 0.930 . S
H393 C365 0.929 . S
H394 C367 0.930 . S
H395 C368 0.929 . S
H396 C373 0.930 . S
H397 C374 0.929 . S
H398 C376 0.930 . S
H399 C377 0.929 . S
Sm400 C402 2.846 . S
Sm400 O420 2.543 . S
Sm400 O421 2.450 . S
Sm400 O422 2.681 1_556 S
Sm400 O423 2.464 1_556 S
Sm400 O424 2.396 1_556 S
Sm400 O428 2.386 1_556 S
Sm400 O431 2.408 . S
Sm401 C411 2.846 . S
Sm401 O422 2.386 . S
Sm401 O425 2.408 . S
Sm401 O426 2.543 . S
Sm401 O427 2.450 . S
Sm401 O428 2.681 . S
Sm401 O429 2.464 . S
Sm401 O430 2.396 . S
C402 Sm400 2.846 . S
C402 C403 1.506 . S
C402 O420 1.261 . S
C402 O421 1.242 . S
C403 C402 1.506 . S
C403 C404 1.358 . S
C403 C408 1.382 . S
C404 C403 1.358 . S
C404 C405 1.385 . S
C404 H432 0.930 . S
C405 C404 1.385 . S
C405 C406 1.395 . S
C405 H433 0.929 . S
C406 C405 1.395 . S
C406 C407 1.335 . S
C407 C406 1.335 . S
C407 C408 1.398 . S
C407 H434 0.930 . S
C408 C403 1.382 . S
C408 C407 1.398 . S
C408 H435 0.929 . S
C409 O422 1.271 . S
C409 O423 1.251 . S
C410 O424 1.252 . S
C410 O425 1.272 . S
C411 Sm401 2.846 . S
C411 C412 1.506 . S
C411 O426 1.261 . S
C411 O427 1.242 . S
C412 C411 1.506 . S
C412 C413 1.358 . S
C412 C417 1.382 . S
C413 C412 1.358 . S
C413 C414 1.385 . S
C413 H436 0.930 . S
C414 C413 1.385 . S
C414 C415 1.395 . S
C414 H437 0.929 . S
C415 C414 1.395 . S
C415 C416 1.335 . S
C416 C415 1.335 . S
C416 C417 1.398 . S
C416 H438 0.930 . S
C417 C412 1.382 . S
C417 C416 1.398 . S
C417 H439 0.929 . S
C418 O428 1.271 1_556 S
C418 O429 1.251 1_556 S
C419 O430 1.252 . S
C419 O431 1.272 1_554 S
O420 Sm400 2.543 . S
O420 C402 1.261 . S
O421 Sm400 2.450 . S
O421 C402 1.242 . S
O422 Sm400 2.681 1_554 S
O422 Sm401 2.386 . S
O422 C409 1.271 . S
O423 Sm400 2.464 1_554 S
O423 C409 1.251 . S
O424 Sm400 2.396 1_554 S
O424 C410 1.252 . S
O425 Sm401 2.408 . S
O425 C410 1.272 . S
O426 Sm401 2.543 . S
O426 C411 1.261 . S
O427 Sm401 2.450 . S
O427 C411 1.242 . S
O428 Sm400 2.386 1_554 S
O428 Sm401 2.681 . S
O428 C418 1.271 1_554 S
O429 Sm401 2.464 . S
O429 C418 1.251 1_554 S
O430 Sm401 2.396 . S
O430 C419 1.252 . S
O431 Sm400 2.408 . S
O431 C419 1.272 1_556 S
H432 C404 0.930 . S
H433 C405 0.929 . S
H434 C407 0.930 . S
H435 C408 0.929 . S
H436 C413 0.930 . S
H437 C414 0.929 . S
H438 C416 0.930 . S
H439 C417 0.929 . S
Sm440 C442 2.846 . S
Sm440 O460 2.543 . S
Sm440 O461 2.450 . S
Sm440 O462 2.681 . S
Sm440 O463 2.464 . S
Sm440 O464 2.396 . S
Sm440 O468 2.386 . S
Sm440 O471 2.408 . S
Sm441 C451 2.846 . S
Sm441 O462 2.386 . S
Sm441 O465 2.408 . S
Sm441 O466 2.543 . S
Sm441 O467 2.450 . S
Sm441 O468 2.681 . S
Sm441 O469 2.464 . S
Sm441 O470 2.396 . S
C442 Sm440 2.846 . S
C442 C443 1.506 . S
C442 O460 1.261 . S
C442 O461 1.242 . S
C443 C442 1.506 . S
C443 C444 1.358 . S
C443 C448 1.382 . S
C444 C443 1.358 . S
C444 C445 1.385 . S
C444 H472 0.930 . S
C445 C444 1.385 . S
C445 C446 1.395 . S
C445 H473 0.929 . S
C446 C445 1.395 . S
C446 C447 1.335 . S
C447 C446 1.335 . S
C447 C448 1.398 . S
C447 H474 0.930 . S
C448 C443 1.382 . S
C448 C447 1.398 . S
C448 H475 0.929 . S
C449 O462 1.271 . S
C449 O463 1.251 . S
C450 O464 1.252 . S
C450 O465 1.272 . S
C451 Sm441 2.846 . S
C451 C452 1.506 . S
C451 O466 1.261 . S
C451 O467 1.242 . S
C452 C451 1.506 . S
C452 C453 1.358 . S
C452 C457 1.382 . S
C453 C452 1.358 . S
C453 C454 1.385 . S
C453 H476 0.930 . S
C454 C453 1.385 . S
C454 C455 1.395 . S
C454 H477 0.929 . S
C455 C454 1.395 . S
C455 C456 1.335 . S
C456 C455 1.335 . S
C456 C457 1.398 . S
C456 H478 0.930 . S
C457 C452 1.382 . S
C457 C456 1.398 . S
C457 H479 0.929 . S
C458 O468 1.271 . S
C458 O469 1.251 . S
C459 O470 1.252 . S
C459 O471 1.272 . S
O460 Sm440 2.543 . S
O460 C442 1.261 . S
O461 Sm440 2.450 . S
O461 C442 1.242 . S
O462 Sm440 2.681 . S
O462 Sm441 2.386 . S
O462 C449 1.271 . S
O463 Sm440 2.464 . S
O463 C449 1.251 . S
O464 Sm440 2.396 . S
O464 C450 1.252 . S
O465 Sm441 2.408 . S
O465 C450 1.272 . S
O466 Sm441 2.543 . S
O466 C451 1.261 . S
O467 Sm441 2.450 . S
O467 C451 1.242 . S
O468 Sm440 2.386 . S
O468 Sm441 2.681 . S
O468 C458 1.271 . S
O469 Sm441 2.464 . S
O469 C458 1.251 . S
O470 Sm441 2.396 . S
O470 C459 1.252 . S
O471 Sm440 2.408 . S
O471 C459 1.272 . S
H472 C444 0.930 . S
H473 C445 0.929 . S
H474 C447 0.930 . S
H475 C448 0.929 . S
H476 C453 0.930 . S
H477 C454 0.929 . S
H478 C456 0.930 . S
H479 C457 0.929 . S
Sm480 C482 2.846 . S
Sm480 O500 2.543 . S
Sm480 O501 2.450 . S
Sm480 O502 2.681 . S
Sm480 O503 2.464 . S
Sm480 O504 2.396 . S
Sm480 O508 2.386 . S
Sm480 O511 2.408 . S
Sm481 C491 2.846 . S
Sm481 O502 2.386 . S
Sm481 O505 2.408 . S
Sm481 O506 2.543 . S
Sm481 O507 2.450 . S
Sm481 O508 2.681 . S
Sm481 O509 2.464 . S
Sm481 O510 2.396 . S
C482 Sm480 2.846 . S
C482 C483 1.506 . S
C482 O500 1.261 . S
C482 O501 1.242 . S
C483 C482 1.506 . S
C483 C484 1.358 . S
C483 C488 1.382 . S
C484 C483 1.358 . S
C484 C485 1.385 . S
C484 H512 0.930 . S
C485 C484 1.385 . S
C485 C486 1.395 . S
C485 H513 0.929 . S
C486 C485 1.395 . S
C486 C487 1.335 . S
C487 C486 1.335 . S
C487 C488 1.398 . S
C487 H514 0.930 . S
C488 C483 1.382 . S
C488 C487 1.398 . S
C488 H515 0.929 . S
C489 O502 1.271 . S
C489 O503 1.251 . S
C490 O504 1.252 . S
C490 O505 1.272 . S
C491 Sm481 2.846 . S
C491 C492 1.506 . S
C491 O506 1.261 . S
C491 O507 1.242 . S
C492 C491 1.506 . S
C492 C493 1.358 . S
C492 C497 1.382 . S
C493 C492 1.358 . S
C493 C494 1.385 . S
C493 H516 0.930 . S
C494 C493 1.385 . S
C494 C495 1.395 . S
C494 H517 0.929 . S
C495 C494 1.395 . S
C495 C496 1.335 . S
C496 C495 1.335 . S
C496 C497 1.398 . S
C496 H518 0.930 . S
C497 C492 1.382 . S
C497 C496 1.398 . S
C497 H519 0.929 . S
C498 O508 1.271 . S
C498 O509 1.251 . S
C499 O510 1.252 . S
C499 O511 1.272 . S
O500 Sm480 2.543 . S
O500 C482 1.261 . S
O501 Sm480 2.450 . S
O501 C482 1.242 . S
O502 Sm480 2.681 . S
O502 Sm481 2.386 . S
O502 C489 1.271 . S
O503 Sm480 2.464 . S
O503 C489 1.251 . S
O504 Sm480 2.396 . S
O504 C490 1.252 . S
O505 Sm481 2.408 . S
O505 C490 1.272 . S
O506 Sm481 2.543 . S
O506 C491 1.261 . S
O507 Sm481 2.450 . S
O507 C491 1.242 . S
O508 Sm480 2.386 . S
O508 Sm481 2.681 . S
O508 C498 1.271 . S
O509 Sm481 2.464 . S
O509 C498 1.251 . S
O510 Sm481 2.396 . S
O510 C499 1.252 . S
O511 Sm480 2.408 . S
O511 C499 1.272 . S
H512 C484 0.930 . S
H513 C485 0.929 . S
H514 C487 0.930 . S
H515 C488 0.929 . S
H516 C493 0.930 . S
H517 C494 0.929 . S
H518 C496 0.930 . S
H519 C497 0.929 . S
Sm520 C522 2.846 . S
Sm520 O540 2.543 . S
Sm520 O541 2.450 . S
Sm520 O542 2.681 . S
Sm520 O543 2.464 . S
Sm520 O544 2.396 . S
Sm520 O548 2.386 . S
Sm520 O551 2.408 . S
Sm521 C531 2.846 . S
Sm521 O542 2.386 . S
Sm521 O545 2.408 . S
Sm521 O546 2.543 . S
Sm521 O547 2.450 . S
Sm521 O548 2.681 . S
Sm521 O549 2.464 . S
Sm521 O550 2.396 . S
C522 Sm520 2.846 . S
C522 C523 1.506 . S
C522 O540 1.261 . S
C522 O541 1.242 . S
C523 C522 1.506 . S
C523 C524 1.358 . S
C523 C528 1.382 . S
C524 C523 1.358 . S
C524 C525 1.385 . S
C524 H552 0.930 . S
C525 C524 1.385 . S
C525 C526 1.395 . S
C525 H553 0.929 . S
C526 C525 1.395 . S
C526 C527 1.335 . S
C527 C526 1.335 . S
C527 C528 1.398 . S
C527 H554 0.930 . S
C528 C523 1.382 . S
C528 C527 1.398 . S
C528 H555 0.929 . S
C529 O542 1.271 . S
C529 O543 1.251 . S
C530 O544 1.252 . S
C530 O545 1.272 . S
C531 Sm521 2.846 . S
C531 C532 1.506 . S
C531 O546 1.261 . S
C531 O547 1.242 . S
C532 C531 1.506 . S
C532 C533 1.358 . S
C532 C537 1.382 . S
C533 C532 1.358 . S
C533 C534 1.385 . S
C533 H556 0.930 . S
C534 C533 1.385 . S
C534 C535 1.395 . S
C534 H557 0.929 . S
C535 C534 1.395 . S
C535 C536 1.335 . S
C536 C535 1.335 . S
C536 C537 1.398 . S
C536 H558 0.930 . S
C537 C532 1.382 . S
C537 C536 1.398 . S
C537 H559 0.929 . S
C538 O548 1.271 . S
C538 O549 1.251 . S
C539 O550 1.252 . S
C539 O551 1.272 . S
O540 Sm520 2.543 . S
O540 C522 1.261 . S
O541 Sm520 2.450 . S
O541 C522 1.242 . S
O542 Sm520 2.681 . S
O542 Sm521 2.386 . S
O542 C529 1.271 . S
O543 Sm520 2.464 . S
O543 C529 1.251 . S
O544 Sm520 2.396 . S
O544 C530 1.252 . S
O545 Sm521 2.408 . S
O545 C530 1.272 . S
O546 Sm521 2.543 . S
O546 C531 1.261 . S
O547 Sm521 2.450 . S
O547 C531 1.242 . S
O548 Sm520 2.386 . S
O548 Sm521 2.681 . S
O548 C538 1.271 . S
O549 Sm521 2.464 . S
O549 C538 1.251 . S
O550 Sm521 2.396 . S
O550 C539 1.252 . S
O551 Sm520 2.408 . S
O551 C539 1.272 . S
H552 C524 0.930 . S
H553 C525 0.929 . S
H554 C527 0.930 . S
H555 C528 0.929 . S
H556 C533 0.930 . S
H557 C534 0.929 . S
H558 C536 0.930 . S
H559 C537 0.929 . S
Sm560 C562 2.846 . S
Sm560 O580 2.543 . S
Sm560 O581 2.450 . S
Sm560 O582 2.681 . S
Sm560 O583 2.464 . S
Sm560 O584 2.396 . S
Sm560 O588 2.386 . S
Sm560 O591 2.408 . S
Sm561 C571 2.846 . S
Sm561 O582 2.386 1_554 S
Sm561 O585 2.408 . S
Sm561 O586 2.543 . S
Sm561 O587 2.450 . S
Sm561 O588 2.681 1_554 S
Sm561 O589 2.464 1_554 S
Sm561 O590 2.396 1_554 S
C562 Sm560 2.846 . S
C562 C563 1.506 . S
C562 O580 1.261 . S
C562 O581 1.242 . S
C563 C562 1.506 . S
C563 C564 1.358 . S
C563 C568 1.382 . S
C564 C563 1.358 . S
C564 C565 1.385 . S
C564 H592 0.930 . S
C565 C564 1.385 . S
C565 C566 1.395 . S
C565 H593 0.929 . S
C566 C565 1.395 . S
C566 C567 1.335 . S
C567 C566 1.335 . S
C567 C568 1.398 . S
C567 H594 0.930 . S
C568 C563 1.382 . S
C568 C567 1.398 . S
C568 H595 0.929 . S
C569 O582 1.271 1_554 S
C569 O583 1.251 1_554 S
C570 O584 1.252 . S
C570 O585 1.272 1_556 S
C571 Sm561 2.846 . S
C571 C572 1.506 . S
C571 O586 1.261 . S
C571 O587 1.242 . S
C572 C571 1.506 . S
C572 C573 1.358 . S
C572 C577 1.382 . S
C573 C572 1.358 . S
C573 C574 1.385 . S
C573 H596 0.930 . S
C574 C573 1.385 . S
C574 C575 1.395 . S
C574 H597 0.929 . S
C575 C574 1.395 . S
C575 C576 1.335 . S
C576 C575 1.335 . S
C576 C577 1.398 . S
C576 H598 0.930 . S
C577 C572 1.382 . S
C577 C576 1.398 . S
C577 H599 0.929 . S
C578 O588 1.271 . S
C578 O589 1.251 . S
C579 O590 1.252 . S
C579 O591 1.272 . S
O580 Sm560 2.543 . S
O580 C562 1.261 . S
O581 Sm560 2.450 . S
O581 C562 1.242 . S
O582 Sm560 2.681 . S
O582 Sm561 2.386 1_556 S
O582 C569 1.271 1_556 S
O583 Sm560 2.464 . S
O583 C569 1.251 1_556 S
O584 Sm560 2.396 . S
O584 C570 1.252 . S
O585 Sm561 2.408 . S
O585 C570 1.272 1_554 S
O586 Sm561 2.543 . S
O586 C571 1.261 . S
O587 Sm561 2.450 . S
O587 C571 1.242 . S
O588 Sm560 2.386 . S
O588 Sm561 2.681 1_556 S
O588 C578 1.271 . S
O589 Sm561 2.464 1_556 S
O589 C578 1.251 . S
O590 Sm561 2.396 1_556 S
O590 C579 1.252 . S
O591 Sm560 2.408 . S
O591 C579 1.272 . S
H592 C564 0.930 . S
H593 C565 0.929 . S
H594 C567 0.930 . S
H595 C568 0.929 . S
H596 C573 0.930 . S
H597 C574 0.929 . S
H598 C576 0.930 . S
H599 C577 0.929 . S
Sm600 C602 2.846 . S
Sm600 O620 2.543 . S
Sm600 O621 2.450 . S
Sm600 O622 2.681 . S
Sm600 O623 2.464 . S
Sm600 O624 2.396 . S
Sm600 O628 2.386 . S
Sm600 O631 2.408 . S
Sm601 C611 2.846 . S
Sm601 O622 2.386 . S
Sm601 O625 2.408 . S
Sm601 O626 2.543 . S
Sm601 O627 2.450 . S
Sm601 O628 2.681 . S
Sm601 O629 2.464 . S
Sm601 O630 2.396 . S
C602 Sm600 2.846 . S
C602 C603 1.506 . S
C602 O620 1.261 . S
C602 O621 1.242 . S
C603 C602 1.506 . S
C603 C604 1.358 . S
C603 C608 1.382 . S
C604 C603 1.358 . S
C604 C605 1.385 . S
C604 H632 0.930 . S
C605 C604 1.385 . S
C605 C606 1.395 . S
C605 H633 0.929 . S
C606 C605 1.395 . S
C606 C607 1.335 . S
C607 C606 1.335 . S
C607 C608 1.398 . S
C607 H634 0.930 . S
C608 C603 1.382 . S
C608 C607 1.398 . S
C608 H635 0.929 . S
C609 O622 1.271 . S
C609 O623 1.251 . S
C610 O624 1.252 . S
C610 O625 1.272 . S
C611 Sm601 2.846 . S
C611 C612 1.506 . S
C611 O626 1.261 . S
C611 O627 1.242 . S
C612 C611 1.506 . S
C612 C613 1.358 . S
C612 C617 1.382 . S
C613 C612 1.358 . S
C613 C614 1.385 . S
C613 H636 0.930 . S
C614 C613 1.385 . S
C614 C615 1.395 . S
C614 H637 0.929 . S
C615 C614 1.395 . S
C615 C616 1.335 . S
C616 C615 1.335 . S
C616 C617 1.398 . S
C616 H638 0.930 . S
C617 C612 1.382 . S
C617 C616 1.398 . S
C617 H639 0.929 . S
C618 O628 1.271 . S
C618 O629 1.251 . S
C619 O630 1.252 . S
C619 O631 1.272 . S
O620 Sm600 2.543 . S
O620 C602 1.261 . S
O621 Sm600 2.450 . S
O621 C602 1.242 . S
O622 Sm600 2.681 . S
O622 Sm601 2.386 . S
O622 C609 1.271 . S
O623 Sm600 2.464 . S
O623 C609 1.251 . S
O624 Sm600 2.396 . S
O624 C610 1.252 . S
O625 Sm601 2.408 . S
O625 C610 1.272 . S
O626 Sm601 2.543 . S
O626 C611 1.261 . S
O627 Sm601 2.450 . S
O627 C611 1.242 . S
O628 Sm600 2.386 . S
O628 Sm601 2.681 . S
O628 C618 1.271 . S
O629 Sm601 2.464 . S
O629 C618 1.251 . S
O630 Sm601 2.396 . S
O630 C619 1.252 . S
O631 Sm600 2.408 . S
O631 C619 1.272 . S
H632 C604 0.930 . S
H633 C605 0.929 . S
H634 C607 0.930 . S
H635 C608 0.929 . S
H636 C613 0.930 . S
H637 C614 0.929 . S
H638 C616 0.930 . S
H639 C617 0.929 . S
H640 C652 0.930 . S
H641 C654 0.930 . S
H642 C655 0.930 . S
H643 C659 0.959 1_554 S
H644 C659 0.959 . S
H645 C659 0.961 . S
H646 C660 0.960 . S
H647 C660 0.961 . S
H648 C660 0.959 . S
H649 C663 0.929 . S
H650 C664 0.931 . S
H651 C666 0.930 . S
C652 H640 0.930 . S
C652 C653 1.399 . S
C652 C657 1.399 . S
C653 C652 1.399 . S
C653 C654 1.376 . S
C654 H641 0.930 . S
C654 C653 1.376 . S
C654 C655 1.388 . S
C655 H642 0.930 . S
C655 C654 1.388 . S
C655 C656 1.390 . S
C656 C655 1.390 . S
C656 C657 1.394 . S
C656 C662 1.465 . S
C657 C652 1.399 . S
C657 C656 1.394 . S
C657 C658 1.516 . S
C658 C657 1.516 . S
C658 C659 1.502 1_554 S
C658 C660 1.561 1_554 S
C658 C661 1.526 . S
C659 H643 0.959 1_556 S
C659 H644 0.959 . S
C659 H645 0.961 . S
C659 C658 1.502 1_556 S
C660 H646 0.960 . S
C660 H647 0.961 . S
C660 H648 0.959 . S
C660 C658 1.561 1_556 S
C661 C658 1.526 . S
C661 C662 1.396 . S
C661 C666 1.390 . S
C662 C656 1.465 . S
C662 C661 1.396 . S
C662 C663 1.399 . S
C663 H649 0.929 . S
C663 C662 1.399 . S
C663 C664 1.385 . S
C664 H650 0.931 . S
C664 C663 1.385 . S
C664 C665 1.389 . S
C665 C664 1.389 . S
C665 C666 1.387 . S
C666 H651 0.930 . S
C666 C661 1.390 . S
C666 C665 1.387 . S
H667 C679 0.930 . S
H668 C681 0.930 . S
H669 C682 0.930 . S
H670 C686 0.959 . S
H671 C686 0.959 . S
H672 C686 0.961 . S
H673 C687 0.960 . S
H674 C687 0.961 . S
H675 C687 0.959 . S
H676 C690 0.929 . S
H677 C691 0.931 . S
H678 C693 0.930 . S
C679 H667 0.930 . S
C679 C680 1.399 . S
C679 C684 1.399 . S
C680 C679 1.399 . S
C680 C681 1.376 . S
C681 H668 0.930 . S
C681 C680 1.376 . S
C681 C682 1.388 . S
C682 H669 0.930 . S
C682 C681 1.388 . S
C682 C683 1.390 . S
C683 C682 1.390 . S
C683 C684 1.394 . S
C683 C689 1.465 . S
C684 C679 1.399 . S
C684 C683 1.394 . S
C684 C685 1.516 . S
C685 C684 1.516 . S
C685 C686 1.502 . S
C685 C687 1.561 . S
C685 C688 1.526 . S
C686 H670 0.959 . S
C686 H671 0.959 . S
C686 H672 0.961 . S
C686 C685 1.502 . S
C687 H673 0.960 . S
C687 H674 0.961 . S
C687 H675 0.959 . S
C687 C685 1.561 . S
C688 C685 1.526 . S
C688 C689 1.396 . S
C688 C693 1.390 . S
C689 C683 1.465 . S
C689 C688 1.396 . S
C689 C690 1.399 . S
C690 H676 0.929 . S
C690 C689 1.399 . S
C690 C691 1.385 . S
C691 H677 0.931 . S
C691 C690 1.385 . S
C691 C692 1.389 . S
C692 C691 1.389 . S
C692 C693 1.387 . S
C693 H678 0.930 . S
C693 C688 1.390 . S
C693 C692 1.387 . S
H694 C706 0.930 . S
H695 C708 0.930 . S
H696 C709 0.930 . S
H697 C713 0.959 . S
H698 C713 0.959 . S
H699 C713 0.961 . S
H700 C714 0.960 . S
H701 C714 0.961 1_655 S
H702 C714 0.959 . S
H703 C717 0.929 . S
H704 C718 0.931 . S
H705 C720 0.930 . S
C706 H694 0.930 . S
C706 C707 1.399 . S
C706 C711 1.399 . S
C707 C706 1.399 . S
C707 C708 1.376 . S
C708 H695 0.930 . S
C708 C707 1.376 . S
C708 C709 1.388 . S
C709 H696 0.930 . S
C709 C708 1.388 . S
C709 C710 1.390 . S
C710 C709 1.390 . S
C710 C711 1.394 . S
C710 C716 1.465 1_455 S
C711 C706 1.399 . S
C711 C710 1.394 . S
C711 C712 1.516 1_455 S
C712 C711 1.516 1_655 S
C712 C713 1.502 . S
C712 C714 1.561 1_655 S
C712 C715 1.526 . S
C713 H697 0.959 . S
C713 H698 0.959 . S
C713 H699 0.961 . S
C713 C712 1.502 . S
C714 H700 0.960 . S
C714 H701 0.961 1_455 S
C714 H702 0.959 . S
C714 C712 1.561 1_455 S
C715 C712 1.526 . S
C715 C716 1.396 . S
C715 C720 1.390 . S
C716 C710 1.465 1_655 S
C716 C715 1.396 . S
C716 C717 1.399 . S
C717 H703 0.929 . S
C717 C716 1.399 . S
C717 C718 1.385 . S
C718 H704 0.931 . S
C718 C717 1.385 . S
C718 C719 1.389 . S
C719 C718 1.389 . S
C719 C720 1.387 . S
C720 H705 0.930 . S
C720 C715 1.390 . S
C720 C719 1.387 . S
H721 C733 0.930 . S
H722 C735 0.930 . S
H723 C736 0.930 . S
H724 C740 0.959 . S
H725 C740 0.959 . S
H726 C740 0.961 . S
H727 C741 0.960 . S
H728 C741 0.961 . S
H729 C741 0.959 . S
H730 C744 0.929 . S
H731 C745 0.931 . S
H732 C747 0.930 . S
C733 H721 0.930 . S
C733 C734 1.399 . S
C733 C738 1.399 . S
C734 C733 1.399 . S
C734 C735 1.376 . S
C735 H722 0.930 . S
C735 C734 1.376 . S
C735 C736 1.388 . S
C736 H723 0.930 . S
C736 C735 1.388 . S
C736 C737 1.390 . S
C737 C736 1.390 . S
C737 C738 1.394 . S
C737 C743 1.465 1_655 S
C738 C733 1.399 . S
C738 C737 1.394 . S
C738 C739 1.503 1_655 S
C739 C738 1.503 1_455 S
C739 C740 1.513 . S
C739 C741 1.550 1_455 S
C739 C742 1.538 . S
C740 H724 0.959 . S
C740 H725 0.959 . S
C740 H726 0.961 . S
C740 C739 1.513 . S
C741 H727 0.960 . S
C741 H728 0.961 . S
C741 H729 0.959 . S
C741 C739 1.550 1_655 S
C742 C739 1.538 . S
C742 C743 1.396 . S
C742 C747 1.390 . S
C743 C737 1.465 1_455 S
C743 C742 1.396 . S
C743 C744 1.399 . S
C744 H730 0.929 . S
C744 C743 1.399 . S
C744 C745 1.385 . S
C745 H731 0.931 . S
C745 C744 1.385 . S
C745 C746 1.389 . S
C746 C745 1.389 . S
C746 C747 1.387 . S
C747 H732 0.930 . S
C747 C742 1.390 . S
C747 C746 1.387 . S
H748 C760 0.930 . S
H749 C762 0.930 . S
H750 C763 0.930 . S
H751 C767 0.959 . S
H752 C767 0.959 . S
H753 C767 0.961 . S
H754 C768 0.960 . S
H755 C768 0.961 . S
H756 C768 0.959 . S
H757 C771 0.929 . S
H758 C772 0.931 . S
H759 C774 0.930 . S
C760 H748 0.930 . S
C760 C761 1.399 . S
C760 C765 1.399 . S
C761 C760 1.399 . S
C761 C762 1.376 . S
C762 H749 0.930 . S
C762 C761 1.376 . S
C762 C763 1.388 . S
C763 H750 0.930 . S
C763 C762 1.388 . S
C763 C764 1.390 . S
C764 C763 1.390 . S
C764 C765 1.394 . S
C764 C770 1.465 . S
C765 C760 1.399 . S
C765 C764 1.394 . S
C765 C766 1.516 . S
C766 C765 1.516 . S
C766 C767 1.502 . S
C766 C768 1.561 1_556 S
C766 C769 1.526 . S
C767 H751 0.959 . S
C767 H752 0.959 . S
C767 H753 0.961 . S
C767 C766 1.502 . S
C768 H754 0.960 . S
C768 H755 0.961 . S
C768 H756 0.959 . S
C768 C766 1.561 1_554 S
C769 C766 1.526 . S
C769 C770 1.396 . S
C769 C774 1.390 . S
C770 C764 1.465 . S
C770 C769 1.396 . S
C770 C771 1.399 . S
C771 H757 0.929 . S
C771 C770 1.399 . S
C771 C772 1.385 . S
C772 H758 0.931 . S
C772 C771 1.385 . S
C772 C773 1.389 . S
C773 C772 1.389 . S
C773 C774 1.387 . S
C774 H759 0.930 . S
C774 C769 1.390 . S
C774 C773 1.387 . S
H775 C787 0.930 . S
H776 C789 0.930 . S
H777 C790 0.930 . S
H778 C794 0.959 . S
H779 C794 0.959 . S
H780 C794 0.961 . S
H781 C795 0.960 . S
H782 C795 0.961 . S
H783 C795 0.959 . S
H784 C798 0.929 . S
H785 C799 0.931 . S
H786 C801 0.930 . S
C787 H775 0.930 . S
C787 C788 1.399 . S
C787 C792 1.399 . S
C788 C787 1.399 . S
C788 C789 1.376 . S
C789 H776 0.930 . S
C789 C788 1.376 . S
C789 C790 1.388 . S
C790 H777 0.930 . S
C790 C789 1.388 . S
C790 C791 1.390 . S
C791 C790 1.390 . S
C791 C792 1.394 . S
C791 C797 1.465 . S
C792 C787 1.399 . S
C792 C791 1.394 . S
C792 C793 1.516 . S
C793 C792 1.516 . S
C793 C794 1.502 . S
C793 C795 1.561 . S
C793 C796 1.526 . S
C794 H778 0.959 . S
C794 H779 0.959 . S
C794 H780 0.961 . S
C794 C793 1.502 . S
C795 H781 0.960 . S
C795 H782 0.961 . S
C795 H783 0.959 . S
C795 C793 1.561 . S
C796 C793 1.526 . S
C796 C797 1.396 . S
C796 C801 1.390 . S
C797 C791 1.465 . S
C797 C796 1.396 . S
C797 C798 1.399 . S
C798 H784 0.929 . S
C798 C797 1.399 . S
C798 C799 1.385 . S
C799 H785 0.931 . S
C799 C798 1.385 . S
C799 C800 1.389 . S
C800 C799 1.389 . S
C800 C801 1.387 . S
C801 H786 0.930 . S
C801 C796 1.390 . S
C801 C800 1.387 . S
H802 C814 0.930 . S
H803 C816 0.930 . S
H804 C817 0.930 . S
H805 C821 0.959 . S
H806 C821 0.959 . S
H807 C821 0.961 . S
H808 C822 0.960 . S
H809 C822 0.961 . S
H810 C822 0.959 . S
H811 C825 0.929 . S
H812 C826 0.931 . S
H813 C828 0.930 . S
C814 H802 0.930 . S
C814 C815 1.399 . S
C814 C819 1.399 . S
C815 C814 1.399 . S
C815 C816 1.376 . S
C816 H803 0.930 . S
C816 C815 1.376 . S
C816 C817 1.388 . S
C817 H804 0.930 . S
C817 C816 1.388 . S
C817 C818 1.390 . S
C818 C817 1.390 . S
C818 C819 1.394 . S
C818 C824 1.465 1_655 S
C819 C814 1.399 . S
C819 C818 1.394 . S
C819 C820 1.516 1_655 S
C820 C819 1.516 1_455 S
C820 C821 1.502 . S
C820 C822 1.561 1_455 S
C820 C823 1.526 . S
C821 H805 0.959 . S
C821 H806 0.959 . S
C821 H807 0.961 . S
C821 C820 1.502 . S
C822 H808 0.960 . S
C822 H809 0.961 . S
C822 H810 0.959 . S
C822 C820 1.561 1_655 S
C823 C820 1.526 . S
C823 C824 1.396 . S
C823 C828 1.390 . S
C824 C818 1.465 1_455 S
C824 C823 1.396 . S
C824 C825 1.399 . S
C825 H811 0.929 . S
C825 C824 1.399 . S
C825 C826 1.385 . S
C826 H812 0.931 . S
C826 C825 1.385 . S
C826 C827 1.389 . S
C827 C826 1.389 . S
C827 C828 1.387 . S
C828 H813 0.930 . S
C828 C823 1.390 . S
C828 C827 1.387 . S
H829 C841 0.930 . S
H830 C843 0.930 . S
H831 C844 0.930 . S
H832 C848 0.959 . S
H833 C848 0.959 . S
H834 C848 0.961 . S
H835 C849 0.960 1_455 S
H836 C849 0.961 . S
H837 C849 0.959 . S
H838 C852 0.929 . S
H839 C853 0.931 . S
H840 C855 0.930 . S
C841 H829 0.930 . S
C841 C842 1.399 . S
C841 C846 1.399 . S
C842 C841 1.399 . S
C842 C843 1.376 . S
C843 H830 0.930 . S
C843 C842 1.376 . S
C843 C844 1.388 . S
C844 H831 0.930 . S
C844 C843 1.388 . S
C844 C845 1.390 . S
C845 C844 1.390 . S
C845 C846 1.394 . S
C845 C851 1.465 1_455 S
C846 C841 1.399 . S
C846 C845 1.394 . S
C846 C847 1.516 . S
C847 C846 1.516 . S
C847 C848 1.502 . S
C847 C849 1.561 1_455 S
C847 C850 1.526 1_455 S
C848 H832 0.959 . S
C848 H833 0.959 . S
C848 H834 0.961 . S
C848 C847 1.502 . S
C849 H835 0.960 1_655 S
C849 H836 0.961 . S
C849 H837 0.959 . S
C849 C847 1.561 1_655 S
C850 C847 1.526 1_655 S
C850 C851 1.396 . S
C850 C855 1.390 . S
C851 C845 1.465 1_655 S
C851 C850 1.396 . S
C851 C852 1.399 . S
C852 H838 0.929 . S
C852 C851 1.399 . S
C852 C853 1.385 . S
C853 H839 0.931 . S
C853 C852 1.385 . S
C853 C854 1.389 . S
C854 C853 1.389 . S
C854 C855 1.387 . S
C855 H840 0.930 . S
C855 C850 1.390 . S
C855 C854 1.387 . S
H856 C868 0.930 . S
H857 C870 0.930 . S
H858 C871 0.930 . S
H859 C875 0.959 . S
H860 C875 0.959 . S
H861 C875 0.961 . S
H862 C876 0.960 . S
H863 C876 0.961 . S
H864 C876 0.959 . S
H865 C879 0.929 . S
H866 C880 0.931 . S
H867 C882 0.930 . S
C868 H856 0.930 . S
C868 C869 1.399 . S
C868 C873 1.399 . S
C869 C868 1.399 . S
C869 C870 1.376 . S
C870 H857 0.930 . S
C870 C869 1.376 . S
C870 C871 1.388 . S
C871 H858 0.930 . S
C871 C870 1.388 . S
C871 C872 1.390 . S
C872 C871 1.390 . S
C872 C873 1.394 . S
C872 C878 1.465 . S
C873 C868 1.399 . S
C873 C872 1.394 . S
C873 C874 1.516 . S
C874 C873 1.516 . S
C874 C875 1.502 . S
C874 C876 1.561 . S
C874 C877 1.526 . S
C875 H859 0.959 . S
C875 H860 0.959 . S
C875 H861 0.961 . S
C875 C874 1.502 . S
C876 H862 0.960 . S
C876 H863 0.961 . S
C876 H864 0.959 . S
C876 C874 1.561 . S
C877 C874 1.526 . S
C877 C878 1.396 . S
C877 C882 1.390 . S
C878 C872 1.465 . S
C878 C877 1.396 . S
C878 C879 1.399 . S
C879 H865 0.929 . S
C879 C878 1.399 . S
C879 C880 1.385 . S
C880 H866 0.931 . S
C880 C879 1.385 . S
C880 C881 1.389 . S
C881 C880 1.389 . S
C881 C882 1.387 . S
C882 H867 0.930 . S
C882 C877 1.390 . S
C882 C881 1.387 . S
H883 C895 0.930 . S
H884 C897 0.930 . S
H885 C898 0.930 . S
H886 C902 0.959 . S
H887 C902 0.959 . S
H888 C902 0.961 . S
H889 C903 0.960 . S
H890 C903 0.961 . S
H891 C903 0.959 . S
H892 C906 0.929 . S
H893 C907 0.931 . S
H894 C909 0.930 . S
C895 H883 0.930 . S
C895 C896 1.399 . S
C895 C900 1.399 . S
C896 C895 1.399 . S
C896 C897 1.376 . S
C897 H884 0.930 . S
C897 C896 1.376 . S
C897 C898 1.388 . S
C898 H885 0.930 . S
C898 C897 1.388 . S
C898 C899 1.390 . S
C899 C898 1.390 . S
C899 C900 1.394 . S
C899 C905 1.465 . S
C900 C895 1.399 . S
C900 C899 1.394 . S
C900 C901 1.516 . S
C901 C900 1.516 . S
C901 C902 1.502 . S
C901 C903 1.561 . S
C901 C904 1.526 . S
C902 H886 0.959 . S
C902 H887 0.959 . S
C902 H888 0.961 . S
C902 C901 1.502 . S
C903 H889 0.960 . S
C903 H890 0.961 . S
C903 H891 0.959 . S
C903 C901 1.561 . S
C904 C901 1.526 . S
C904 C905 1.396 . S
C904 C909 1.390 . S
C905 C899 1.465 . S
C905 C904 1.396 . S
C905 C906 1.399 . S
C906 H892 0.929 . S
C906 C905 1.399 . S
C906 C907 1.385 . S
C907 H893 0.931 . S
C907 C906 1.385 . S
C907 C908 1.389 . S
C908 C907 1.389 . S
C908 C909 1.387 . S
C909 H894 0.930 . S
C909 C904 1.390 . S
C909 C908 1.387 . S
H910 C922 0.930 . S
H911 C924 0.930 . S
H912 C925 0.930 . S
H913 C929 0.959 . S
H914 C929 0.959 . S
H915 C929 0.961 . S
H916 C930 0.960 . S
H917 C930 0.961 . S
H918 C930 0.959 . S
H919 C933 0.929 . S
H920 C934 0.931 . S
H921 C936 0.930 . S
C922 H910 0.930 . S
C922 C923 1.399 . S
C922 C927 1.399 . S
C923 C922 1.399 . S
C923 C924 1.376 . S
C924 H911 0.930 . S
C924 C923 1.376 . S
C924 C925 1.388 . S
C925 H912 0.930 . S
C925 C924 1.388 . S
C925 C926 1.390 . S
C926 C925 1.390 . S
C926 C927 1.394 . S
C926 C932 1.465 . S
C927 C922 1.399 . S
C927 C926 1.394 . S
C927 C928 1.516 . S
C928 C927 1.516 . S
C928 C929 1.502 . S
C928 C930 1.561 . S
C928 C931 1.526 . S
C929 H913 0.959 . S
C929 H914 0.959 . S
C929 H915 0.961 . S
C929 C928 1.502 . S
C930 H916 0.960 . S
C930 H917 0.961 . S
C930 H918 0.959 . S
C930 C928 1.561 . S
C931 C928 1.526 . S
C931 C932 1.396 . S
C931 C936 1.390 . S
C932 C926 1.465 . S
C932 C931 1.396 . S
C932 C933 1.399 . S
C933 H919 0.929 . S
C933 C932 1.399 . S
C933 C934 1.385 . S
C934 H920 0.931 . S
C934 C933 1.385 . S
C934 C935 1.389 . S
C935 C934 1.389 . S
C935 C936 1.387 . S
C936 H921 0.930 . S
C936 C931 1.390 . S
C936 C935 1.387 . S
H937 C949 0.930 . S
H938 C951 0.930 . S
H939 C952 0.930 . S
H940 C956 0.959 . S
H941 C956 0.959 . S
H942 C956 0.961 . S
H943 C957 0.960 . S
H944 C957 0.961 . S
H945 C957 0.959 . S
H946 C960 0.929 . S
H947 C961 0.931 . S
H948 C963 0.930 . S
C949 H937 0.930 . S
C949 C950 1.399 . S
C949 C954 1.399 . S
C950 C949 1.399 . S
C950 C951 1.376 . S
C951 H938 0.930 . S
C951 C950 1.376 . S
C951 C952 1.388 . S
C952 H939 0.930 . S
C952 C951 1.388 . S
C952 C953 1.390 . S
C953 C952 1.390 . S
C953 C954 1.394 . S
C953 C959 1.465 . S
C954 C949 1.399 . S
C954 C953 1.394 . S
C954 C955 1.516 . S
C955 C954 1.516 . S
C955 C956 1.502 . S
C955 C957 1.561 . S
C955 C958 1.526 . S
C956 H940 0.959 . S
C956 H941 0.959 . S
C956 H942 0.961 . S
C956 C955 1.502 . S
C957 H943 0.960 . S
C957 H944 0.961 . S
C957 H945 0.959 . S
C957 C955 1.561 . S
C958 C955 1.526 . S
C958 C959 1.396 . S
C958 C963 1.390 . S
C959 C953 1.465 . S
C959 C958 1.396 . S
C959 C960 1.399 . S
C960 H946 0.929 . S
C960 C959 1.399 . S
C960 C961 1.385 . S
C961 H947 0.931 . S
C961 C960 1.385 . S
C961 C962 1.389 . S
C962 C961 1.389 . S
C962 C963 1.387 . S
C963 H948 0.930 . S
C963 C958 1.390 . S
C963 C962 1.387 . S
H964 C976 0.930 . S
H965 C978 0.930 . S
H966 C979 0.930 . S
H967 C983 0.959 . S
H968 C983 0.959 . S
H969 C983 0.961 . S
H970 C984 0.960 . S
H971 C984 0.961 . S
H972 C984 0.959 . S
H973 C987 0.929 . S
H974 C988 0.931 . S
H975 C990 0.930 . S
C976 H964 0.930 . S
C976 C977 1.399 . S
C976 C981 1.399 . S
C977 C976 1.399 . S
C977 C978 1.376 . S
C978 H965 0.930 . S
C978 C977 1.376 . S
C978 C979 1.388 . S
C979 H966 0.930 . S
C979 C978 1.388 . S
C979 C980 1.390 . S
C980 C979 1.390 . S
C980 C981 1.394 . S
C980 C986 1.465 . S
C981 C976 1.399 . S
C981 C980 1.394 . S
C981 C982 1.516 . S
C982 C981 1.516 . S
C982 C983 1.502 . S
C982 C984 1.561 . S
C982 C985 1.526 . S
C983 H967 0.959 . S
C983 H968 0.959 . S
C983 H969 0.961 . S
C983 C982 1.502 . S
C984 H970 0.960 . S
C984 H971 0.961 . S
C984 H972 0.959 . S
C984 C982 1.561 . S
C985 C982 1.526 . S
C985 C986 1.396 . S
C985 C990 1.390 . S
C986 C980 1.465 . S
C986 C985 1.396 . S
C986 C987 1.399 . S
C987 H973 0.929 . S
C987 C986 1.399 . S
C987 C988 1.385 . S
C988 H974 0.931 . S
C988 C987 1.385 . S
C988 C989 1.389 . S
C989 C988 1.389 . S
C989 C990 1.387 . S
C990 H975 0.930 . S
C990 C985 1.390 . S
C990 C989 1.387 . S
H991 C1003 0.930 . S
H992 C1005 0.930 . S
H993 C1006 0.930 . S
H994 C1010 0.959 . S
H995 C1010 0.959 . S
H996 C1010 0.961 . S
H997 C1011 0.960 . S
H998 C1011 0.961 . S
H999 C1011 0.959 . S
H1000 C1014 0.929 . S
H1001 C1015 0.931 . S
H1002 C1017 0.930 . S
C1003 H991 0.930 . S
C1003 C1004 1.399 . S
C1003 C1008 1.399 . S
C1004 C1003 1.399 . S
C1004 C1005 1.376 . S
C1005 H992 0.930 . S
C1005 C1004 1.376 . S
C1005 C1006 1.388 . S
C1006 H993 0.930 . S
C1006 C1005 1.388 . S
C1006 C1007 1.390 . S
C1007 C1006 1.390 . S
C1007 C1008 1.394 . S
C1007 C1013 1.465 . S
C1008 C1003 1.399 . S
C1008 C1007 1.394 . S
C1008 C1009 1.516 . S
C1009 C1008 1.516 . S
C1009 C1010 1.502 . S
C1009 C1011 1.561 . S
C1009 C1012 1.526 . S
C1010 H994 0.959 . S
C1010 H995 0.959 . S
C1010 H996 0.961 . S
C1010 C1009 1.502 . S
C1011 H997 0.960 . S
C1011 H998 0.961 . S
C1011 H999 0.959 . S
C1011 C1009 1.561 . S
C1012 C1009 1.526 . S
C1012 C1013 1.396 . S
C1012 C1017 1.390 . S
C1013 C1007 1.465 . S
C1013 C1012 1.396 . S
C1013 C1014 1.399 . S
C1014 H1000 0.929 . S
C1014 C1013 1.399 . S
C1014 C1015 1.385 . S
C1015 H1001 0.931 . S
C1015 C1014 1.385 . S
C1015 C1016 1.389 . S
C1016 C1015 1.389 . S
C1016 C1017 1.387 . S
C1017 H1002 0.930 . S
C1017 C1012 1.390 . S
C1017 C1016 1.387 . S
H1018 C1030 0.930 . S
H1019 C1032 0.930 . S
H1020 C1033 0.930 . S
H1021 C1037 0.959 . S
H1022 C1037 0.959 . S
H1023 C1037 0.961 . S
H1024 C1038 0.960 . S
H1025 C1038 0.961 . S
H1026 C1038 0.959 . S
H1027 C1041 0.929 . S
H1028 C1042 0.931 . S
H1029 C1044 0.930 . S
C1030 H1018 0.930 . S
C1030 C1031 1.399 . S
C1030 C1035 1.399 . S
C1031 C1030 1.399 . S
C1031 C1032 1.376 . S
C1032 H1019 0.930 . S
C1032 C1031 1.376 . S
C1032 C1033 1.388 . S
C1033 H1020 0.930 . S
C1033 C1032 1.388 . S
C1033 C1034 1.390 . S
C1034 C1033 1.390 . S
C1034 C1035 1.394 . S
C1034 C1040 1.465 . S
C1035 C1030 1.399 . S
C1035 C1034 1.394 . S
C1035 C1036 1.516 . S
C1036 C1035 1.516 . S
C1036 C1037 1.502 . S
C1036 C1038 1.561 . S
C1036 C1039 1.526 . S
C1037 H1021 0.959 . S
C1037 H1022 0.959 . S
C1037 H1023 0.961 . S
C1037 C1036 1.502 . S
C1038 H1024 0.960 . S
C1038 H1025 0.961 . S
C1038 H1026 0.959 . S
C1038 C1036 1.561 . S
C1039 C1036 1.526 . S
C1039 C1040 1.396 . S
C1039 C1044 1.390 . S
C1040 C1034 1.465 . S
C1040 C1039 1.396 . S
C1040 C1041 1.399 . S
C1041 H1027 0.929 . S
C1041 C1040 1.399 . S
C1041 C1042 1.385 . S
C1042 H1028 0.931 . S
C1042 C1041 1.385 . S
C1042 C1043 1.389 . S
C1043 C1042 1.389 . S
C1043 C1044 1.387 . S
C1044 H1029 0.930 . S
C1044 C1039 1.390 . S
C1044 C1043 1.387 . S
H1045 C1057 0.930 . S
H1046 C1059 0.930 . S
H1047 C1060 0.930 . S
H1048 C1064 0.959 . S
H1049 C1064 0.959 . S
H1050 C1064 0.961 . S
H1051 C1065 0.960 . S
H1052 C1065 0.961 . S
H1053 C1065 0.959 . S
H1054 C1068 0.929 . S
H1055 C1069 0.931 . S
H1056 C1071 0.930 . S
C1057 H1045 0.930 . S
C1057 C1058 1.399 . S
C1057 C1062 1.399 . S
C1058 C1057 1.399 . S
C1058 C1059 1.376 . S
C1059 H1046 0.930 . S
C1059 C1058 1.376 . S
C1059 C1060 1.388 . S
C1060 H1047 0.930 . S
C1060 C1059 1.388 . S
C1060 C1061 1.390 . S
C1061 C1060 1.390 . S
C1061 C1062 1.394 . S
C1061 C1067 1.465 . S
C1062 C1057 1.399 . S
C1062 C1061 1.394 . S
C1062 C1063 1.516 . S
C1063 C1062 1.516 . S
C1063 C1064 1.502 . S
C1063 C1065 1.561 . S
C1063 C1066 1.526 . S
C1064 H1048 0.959 . S
C1064 H1049 0.959 . S
C1064 H1050 0.961 . S
C1064 C1063 1.502 . S
C1065 H1051 0.960 . S
C1065 H1052 0.961 . S
C1065 H1053 0.959 . S
C1065 C1063 1.561 . S
C1066 C1063 1.526 . S
C1066 C1067 1.396 . S
C1066 C1071 1.390 . S
C1067 C1061 1.465 . S
C1067 C1066 1.396 . S
C1067 C1068 1.399 . S
C1068 H1054 0.929 . S
C1068 C1067 1.399 . S
C1068 C1069 1.385 . S
C1069 H1055 0.931 . S
C1069 C1068 1.385 . S
C1069 C1070 1.389 . S
C1070 C1069 1.389 . S
C1070 C1071 1.387 . S
C1071 H1056 0.930 . S
C1071 C1066 1.390 . S
C1071 C1070 1.387 . S
H1072 C1084 0.930 . S
H1073 C1086 0.930 . S
H1074 C1087 0.930 . S
H1075 C1091 0.959 . S
H1076 C1091 0.959 . S
H1077 C1091 0.961 . S
H1078 C1092 0.960 . S
H1079 C1092 0.961 . S
H1080 C1092 0.959 . S
H1081 C1095 0.929 . S
H1082 C1096 0.931 . S
H1083 C1098 0.930 . S
C1084 H1072 0.930 . S
C1084 C1085 1.399 . S
C1084 C1089 1.399 . S
C1085 C1084 1.399 . S
C1085 C1086 1.376 . S
C1086 H1073 0.930 . S
C1086 C1085 1.376 . S
C1086 C1087 1.388 . S
C1087 H1074 0.930 . S
C1087 C1086 1.388 . S
C1087 C1088 1.390 . S
C1088 C1087 1.390 . S
C1088 C1089 1.394 . S
C1088 C1094 1.465 . S
C1089 C1084 1.399 . S
C1089 C1088 1.394 . S
C1089 C1090 1.516 . S
C1090 C1089 1.516 . S
C1090 C1091 1.502 . S
C1090 C1092 1.561 . S
C1090 C1093 1.526 . S
C1091 H1075 0.959 . S
C1091 H1076 0.959 . S
C1091 H1077 0.961 . S
C1091 C1090 1.502 . S
C1092 H1078 0.960 . S
C1092 H1079 0.961 . S
C1092 H1080 0.959 . S
C1092 C1090 1.561 . S
C1093 C1090 1.526 . S
C1093 C1094 1.396 . S
C1093 C1098 1.390 . S
C1094 C1088 1.465 . S
C1094 C1093 1.396 . S
C1094 C1095 1.399 . S
C1095 H1081 0.929 . S
C1095 C1094 1.399 . S
C1095 C1096 1.385 . S
C1096 H1082 0.931 . S
C1096 C1095 1.385 . S
C1096 C1097 1.389 . S
C1097 C1096 1.389 . S
C1097 C1098 1.387 . S
C1098 H1083 0.930 . S
C1098 C1093 1.390 . S
C1098 C1097 1.387 . S
H1099 C1111 0.930 . S
H1100 C1113 0.930 . S
H1101 C1114 0.930 . S
H1102 C1118 0.959 1_565 S
H1103 C1118 0.959 1_565 S
H1104 C1118 0.961 . S
H1105 C1119 0.960 . S
H1106 C1119 0.962 . S
H1107 C1119 0.961 . S
H1108 C1122 0.929 . S
H1109 C1123 0.931 . S
H1110 C1125 0.930 . S
C1111 H1099 0.930 . S
C1111 C1112 1.399 . S
C1111 C1116 1.399 . S
C1112 C1111 1.399 . S
C1112 C1113 1.376 . S
C1113 H1100 0.930 . S
C1113 C1112 1.376 . S
C1113 C1114 1.388 1_545 S
C1114 H1101 0.930 . S
C1114 C1113 1.388 1_565 S
C1114 C1115 1.390 . S
C1115 C1114 1.390 . S
C1115 C1116 1.394 1_565 S
C1115 C1121 1.465 . S
C1116 C1111 1.399 . S
C1116 C1115 1.394 1_545 S
C1116 C1117 1.516 1_545 S
C1117 C1116 1.516 1_565 S
C1117 C1118 1.502 1_565 S
C1117 C1119 1.561 1_565 S
C1117 C1120 1.526 . S
C1118 H1102 0.959 1_545 S
C1118 H1103 0.959 1_545 S
C1118 H1104 0.961 . S
C1118 C1117 1.502 1_545 S
C1119 H1105 0.960 . S
C1119 H1106 0.962 . S
C1119 H1107 0.961 . S
C1119 C1117 1.561 1_545 S
C1120 C1117 1.526 . S
C1120 C1121 1.396 . S
C1120 C1125 1.390 . S
C1121 C1115 1.465 . S
C1121 C1120 1.396 . S
C1121 C1122 1.399 . S
C1122 H1108 0.929 . S
C1122 C1121 1.399 . S
C1122 C1123 1.385 . S
C1123 H1109 0.931 . S
C1123 C1122 1.385 . S
C1123 C1124 1.389 . S
C1124 C1123 1.389 . S
C1124 C1125 1.387 . S
C1125 H1110 0.930 . S
C1125 C1120 1.390 . S
C1125 C1124 1.387 . S
H1126 C1138 0.930 . S
H1127 C1140 0.930 . S
H1128 C1141 0.930 . S
H1129 C1145 0.959 . S
H1130 C1145 0.959 . S
H1131 C1145 0.961 . S
H1132 C1146 0.960 . S
H1133 C1146 0.961 . S
H1134 C1146 0.959 . S
H1135 C1149 0.929 . S
H1136 C1150 0.931 . S
H1137 C1152 0.930 . S
C1138 H1126 0.930 . S
C1138 C1139 1.399 . S
C1138 C1143 1.399 . S
C1139 C1138 1.399 . S
C1139 C1140 1.376 . S
C1140 H1127 0.930 . S
C1140 C1139 1.376 . S
C1140 C1141 1.388 . S
C1141 H1128 0.930 . S
C1141 C1140 1.388 . S
C1141 C1142 1.390 . S
C1142 C1141 1.390 . S
C1142 C1143 1.394 . S
C1142 C1148 1.465 . S
C1143 C1138 1.399 . S
C1143 C1142 1.394 . S
C1143 C1144 1.516 . S
C1144 C1143 1.516 . S
C1144 C1145 1.502 . S
C1144 C1146 1.561 . S
C1144 C1147 1.526 . S
C1145 H1129 0.959 . S
C1145 H1130 0.959 . S
C1145 H1131 0.961 . S
C1145 C1144 1.502 . S
C1146 H1132 0.960 . S
C1146 H1133 0.961 . S
C1146 H1134 0.959 . S
C1146 C1144 1.561 . S
C1147 C1144 1.526 . S
C1147 C1148 1.396 . S
C1147 C1152 1.390 . S
C1148 C1142 1.465 . S
C1148 C1147 1.396 . S
C1148 C1149 1.399 . S
C1149 H1135 0.929 . S
C1149 C1148 1.399 . S
C1149 C1150 1.385 . S
C1150 H1136 0.931 . S
C1150 C1149 1.385 . S
C1150 C1151 1.389 . S
C1151 C1150 1.389 . S
C1151 C1152 1.387 . S
C1152 H1137 0.930 . S
C1152 C1147 1.390 . S
C1152 C1151 1.387 . S
H1153 C1165 0.930 . S
H1154 C1167 0.930 . S
H1155 C1168 0.930 . S
H1156 C1172 0.959 . S
H1157 C1172 0.959 . S
H1158 C1172 0.961 . S
H1159 C1173 0.960 . S
H1160 C1173 0.961 . S
H1161 C1173 0.959 . S
H1162 C1176 0.929 . S
H1163 C1177 0.931 . S
H1164 C1179 0.930 . S
C1165 H1153 0.930 . S
C1165 C1166 1.399 . S
C1165 C1170 1.399 1_565 S
C1166 C1165 1.399 . S
C1166 C1167 1.376 . S
C1167 H1154 0.930 . S
C1167 C1166 1.376 . S
C1167 C1168 1.388 . S
C1168 H1155 0.930 . S
C1168 C1167 1.388 . S
C1168 C1169 1.390 1_565 S
C1169 C1168 1.390 1_545 S
C1169 C1170 1.394 . S
C1169 C1175 1.465 . S
C1170 C1165 1.399 1_545 S
C1170 C1169 1.394 . S
C1170 C1171 1.516 . S
C1171 C1170 1.516 . S
C1171 C1172 1.502 . S
C1171 C1173 1.561 . S
C1171 C1174 1.526 . S
C1172 H1156 0.959 . S
C1172 H1157 0.959 . S
C1172 H1158 0.961 . S
C1172 C1171 1.502 . S
C1173 H1159 0.960 . S
C1173 H1160 0.961 . S
C1173 H1161 0.959 . S
C1173 C1171 1.561 . S
C1174 C1171 1.526 . S
C1174 C1175 1.396 . S
C1174 C1179 1.390 . S
C1175 C1169 1.465 . S
C1175 C1174 1.396 . S
C1175 C1176 1.399 . S
C1176 H1162 0.929 . S
C1176 C1175 1.399 . S
C1176 C1177 1.385 . S
C1177 H1163 0.931 . S
C1177 C1176 1.385 . S
C1177 C1178 1.389 . S
C1178 C1177 1.389 . S
C1178 C1179 1.387 . S
C1179 H1164 0.930 . S
C1179 C1174 1.390 . S
C1179 C1178 1.387 . S
H1180 C1192 0.930 . S
H1181 C1194 0.930 . S
H1182 C1195 0.930 . S
H1183 C1199 0.959 . S
H1184 C1199 0.959 . S
H1185 C1199 0.961 . S
H1186 C1200 0.960 . S
H1187 C1200 0.961 . S
H1188 C1200 0.959 . S
H1189 C1203 0.929 . S
H1190 C1204 0.931 . S
H1191 C1206 0.930 . S
C1192 H1180 0.930 . S
C1192 C1193 1.399 . S
C1192 C1197 1.399 . S
C1193 C1192 1.399 . S
C1193 C1194 1.376 . S
C1194 H1181 0.930 . S
C1194 C1193 1.376 . S
C1194 C1195 1.388 . S
C1195 H1182 0.930 . S
C1195 C1194 1.388 . S
C1195 C1196 1.390 . S
C1196 C1195 1.390 . S
C1196 C1197 1.394 . S
C1196 C1202 1.465 . S
C1197 C1192 1.399 . S
C1197 C1196 1.394 . S
C1197 C1198 1.516 . S
C1198 C1197 1.516 . S
C1198 C1199 1.502 . S
C1198 C1200 1.561 . S
C1198 C1201 1.526 . S
C1199 H1183 0.959 . S
C1199 H1184 0.959 . S
C1199 H1185 0.961 . S
C1199 C1198 1.502 . S
C1200 H1186 0.960 . S
C1200 H1187 0.961 . S
C1200 H1188 0.959 . S
C1200 C1198 1.561 . S
C1201 C1198 1.526 . S
C1201 C1202 1.396 . S
C1201 C1206 1.390 . S
C1202 C1196 1.465 . S
C1202 C1201 1.396 . S
C1202 C1203 1.399 . S
C1203 H1189 0.929 . S
C1203 C1202 1.399 . S
C1203 C1204 1.385 . S
C1204 H1190 0.931 . S
C1204 C1203 1.385 . S
C1204 C1205 1.389 . S
C1205 C1204 1.389 . S
C1205 C1206 1.387 . S
C1206 H1191 0.930 . S
C1206 C1201 1.390 . S
C1206 C1205 1.387 . S
H1207 C1219 0.930 . S
H1208 C1221 0.930 . S
H1209 C1222 0.930 . S
H1210 C1226 0.959 . S
H1211 C1226 0.959 . S
H1212 C1226 0.961 . S
H1213 C1227 0.960 . S
H1214 C1227 0.961 . S
H1215 C1227 0.959 . S
H1216 C1230 0.929 . S
H1217 C1231 0.931 . S
H1218 C1233 0.930 . S
C1219 H1207 0.930 . S
C1219 C1220 1.399 . S
C1219 C1224 1.399 . S
C1220 C1219 1.399 . S
C1220 C1221 1.376 . S
C1221 H1208 0.930 . S
C1221 C1220 1.376 . S
C1221 C1222 1.388 . S
C1222 H1209 0.930 . S
C1222 C1221 1.388 . S
C1222 C1223 1.390 . S
C1223 C1222 1.390 . S
C1223 C1224 1.394 . S
C1223 C1229 1.465 . S
C1224 C1219 1.399 . S
C1224 C1223 1.394 . S
C1224 C1225 1.516 . S
C1225 C1224 1.516 . S
C1225 C1226 1.502 . S
C1225 C1227 1.561 . S
C1225 C1228 1.526 . S
C1226 H1210 0.959 . S
C1226 H1211 0.959 . S
C1226 H1212 0.961 . S
C1226 C1225 1.502 . S
C1227 H1213 0.960 . S
C1227 H1214 0.961 . S
C1227 H1215 0.959 . S
C1227 C1225 1.561 . S
C1228 C1225 1.526 . S
C1228 C1229 1.396 . S
C1228 C1233 1.390 1_545 S
C1229 C1223 1.465 . S
C1229 C1228 1.396 . S
C1229 C1230 1.399 1_545 S
C1230 H1216 0.929 . S
C1230 C1229 1.399 1_565 S
C1230 C1231 1.385 . S
C1231 H1217 0.931 . S
C1231 C1230 1.385 . S
C1231 C1232 1.389 . S
C1232 C1231 1.389 . S
C1232 C1233 1.387 . S
C1233 H1218 0.930 . S
C1233 C1228 1.390 1_565 S
C1233 C1232 1.387 . S
H1234 C1246 0.930 . S
H1235 C1248 0.930 . S
H1236 C1249 0.930 . S
H1237 C1253 0.959 . S
H1238 C1253 0.959 . S
H1239 C1253 0.961 . S
H1240 C1254 0.960 . S
H1241 C1254 0.961 1_556 S
H1242 C1254 0.959 . S
H1243 C1257 0.929 . S
H1244 C1258 0.931 . S
H1245 C1260 0.961 . S
C1246 H1234 0.930 . S
C1246 C1247 1.399 . S
C1246 C1251 1.399 . S
C1247 C1246 1.399 . S
C1247 C1248 1.376 . S
C1248 H1235 0.930 . S
C1248 C1247 1.376 . S
C1248 C1249 1.388 . S
C1249 H1236 0.930 . S
C1249 C1248 1.388 . S
C1249 C1250 1.390 . S
C1250 C1249 1.390 . S
C1250 C1251 1.394 . S
C1250 C1256 1.465 . S
C1251 C1246 1.399 . S
C1251 C1250 1.394 . S
C1251 C1252 1.516 . S
C1252 C1251 1.516 . S
C1252 C1253 1.502 . S
C1252 C1254 1.561 . S
C1252 C1255 1.526 . S
C1253 H1237 0.959 . S
C1253 H1238 0.959 . S
C1253 H1239 0.961 . S
C1253 C1252 1.502 . S
C1254 H1240 0.960 . S
C1254 H1241 0.961 1_554 S
C1254 H1242 0.959 . S
C1254 C1252 1.561 . S
C1255 C1252 1.526 . S
C1255 C1256 1.396 . S
C1255 C1260 1.390 . S
C1256 C1250 1.465 . S
C1256 C1255 1.396 . S
C1256 C1257 1.399 . S
C1257 H1243 0.929 . S
C1257 C1256 1.399 . S
C1257 C1258 1.385 . S
C1258 H1244 0.931 . S
C1258 C1257 1.385 . S
C1258 C1259 1.389 . S
C1259 C1258 1.389 . S
C1259 C1260 1.387 . S
C1260 H1245 0.961 . S
C1260 C1255 1.390 . S
C1260 C1259 1.387 . S
H1261 C1273 0.930 . S
H1262 C1275 0.930 . S
H1263 C1276 0.930 . S
H1264 C1280 0.959 . S
H1265 C1280 0.959 . S
H1266 C1280 0.961 . S
H1267 C1281 0.960 . S
H1268 C1281 0.961 . S
H1269 C1281 0.959 . S
H1270 C1284 0.929 . S
H1271 C1285 0.931 . S
H1272 C1287 0.930 . S
C1273 H1261 0.930 . S
C1273 C1274 1.399 . S
C1273 C1278 1.399 1_545 S
C1274 C1273 1.399 . S
C1274 C1275 1.376 . S
C1275 H1262 0.930 . S
C1275 C1274 1.376 . S
C1275 C1276 1.388 . S
C1276 H1263 0.930 . S
C1276 C1275 1.388 . S
C1276 C1277 1.390 1_545 S
C1277 C1276 1.390 1_565 S
C1277 C1278 1.394 . S
C1277 C1283 1.465 . S
C1278 C1273 1.399 1_565 S
C1278 C1277 1.394 . S
C1278 C1279 1.516 . S
C1279 C1278 1.516 . S
C1279 C1280 1.502 . S
C1279 C1281 1.561 . S
C1279 C1282 1.526 . S
C1280 H1264 0.959 . S
C1280 H1265 0.959 . S
C1280 H1266 0.961 . S
C1280 C1279 1.502 . S
C1281 H1267 0.960 . S
C1281 H1268 0.961 . S
C1281 H1269 0.959 . S
C1281 C1279 1.561 . S
C1282 C1279 1.526 . S
C1282 C1283 1.396 . S
C1282 C1287 1.390 . S
C1283 C1277 1.465 . S
C1283 C1282 1.396 . S
C1283 C1284 1.399 . S
C1284 H1270 0.929 . S
C1284 C1283 1.399 . S
C1284 C1285 1.385 . S
C1285 H1271 0.931 . S
C1285 C1284 1.385 . S
C1285 C1286 1.389 . S
C1286 C1285 1.389 . S
C1286 C1287 1.387 . S
C1287 H1272 0.930 . S
C1287 C1282 1.390 . S
C1287 C1286 1.387 . S
H1288 C1300 0.930 . S
H1289 C1302 0.930 . S
H1290 C1303 0.930 . S
H1291 C1307 0.959 . S
H1292 C1307 0.959 . S
H1293 C1307 0.961 . S
H1294 C1308 0.960 . S
H1295 C1308 0.961 . S
H1296 C1308 0.959 . S
H1297 C1311 0.929 . S
H1298 C1312 0.931 . S
H1299 C1314 0.930 . S
C1300 H1288 0.930 . S
C1300 C1301 1.399 . S
C1300 C1305 1.399 . S
C1301 C1300 1.399 . S
C1301 C1302 1.376 . S
C1302 H1289 0.930 . S
C1302 C1301 1.376 . S
C1302 C1303 1.388 . S
C1303 H1290 0.930 . S
C1303 C1302 1.388 . S
C1303 C1304 1.390 . S
C1304 C1303 1.390 . S
C1304 C1305 1.394 . S
C1304 C1310 1.465 . S
C1305 C1300 1.399 . S
C1305 C1304 1.394 . S
C1305 C1306 1.516 . S
C1306 C1305 1.516 . S
C1306 C1307 1.502 . S
C1306 C1308 1.561 . S
C1306 C1309 1.526 . S
C1307 H1291 0.959 . S
C1307 H1292 0.959 . S
C1307 H1293 0.961 . S
C1307 C1306 1.502 . S
C1308 H1294 0.960 . S
C1308 H1295 0.961 . S
C1308 H1296 0.959 . S
C1308 C1306 1.561 . S
C1309 C1306 1.526 . S
C1309 C1310 1.396 . S
C1309 C1314 1.390 . S
C1310 C1304 1.465 . S
C1310 C1309 1.396 . S
C1310 C1311 1.399 . S
C1311 H1297 0.929 . S
C1311 C1310 1.399 . S
C1311 C1312 1.385 . S
C1312 H1298 0.931 . S
C1312 C1311 1.385 . S
C1312 C1313 1.389 . S
C1313 C1312 1.389 . S
C1313 C1314 1.387 . S
C1314 H1299 0.930 . S
C1314 C1309 1.390 . S
C1314 C1313 1.387 . S
H1315 C1327 0.930 . S
H1316 C1329 0.930 . S
H1317 C1330 0.930 . S
H1318 C1334 0.959 . S
H1319 C1334 0.959 . S
H1320 C1334 0.961 . S
H1321 C1335 0.960 . S
H1322 C1335 0.961 . S
H1323 C1335 0.959 . S
H1324 C1338 0.929 . S
H1325 C1339 0.931 . S
H1326 C1341 0.930 . S
C1327 H1315 0.930 . S
C1327 C1328 1.399 . S
C1327 C1332 1.399 . S
C1328 C1327 1.399 . S
C1328 C1329 1.376 . S
C1329 H1316 0.930 . S
C1329 C1328 1.376 . S
C1329 C1330 1.388 . S
C1330 H1317 0.930 . S
C1330 C1329 1.388 . S
C1330 C1331 1.390 . S
C1331 C1330 1.390 . S
C1331 C1332 1.394 . S
C1331 C1337 1.465 . S
C1332 C1327 1.399 . S
C1332 C1331 1.394 . S
C1332 C1333 1.516 . S
C1333 C1332 1.516 . S
C1333 C1334 1.502 . S
C1333 C1335 1.561 . S
C1333 C1336 1.526 . S
C1334 H1318 0.959 . S
C1334 H1319 0.959 . S
C1334 H1320 0.961 . S
C1334 C1333 1.502 . S
C1335 H1321 0.960 . S
C1335 H1322 0.961 . S
C1335 H1323 0.959 . S
C1335 C1333 1.561 . S
C1336 C1333 1.526 . S
C1336 C1337 1.396 . S
C1336 C1341 1.390 . S
C1337 C1331 1.465 . S
C1337 C1336 1.396 . S
C1337 C1338 1.399 . S
C1338 H1324 0.929 . S
C1338 C1337 1.399 . S
C1338 C1339 1.385 . S
C1339 H1325 0.931 . S
C1339 C1338 1.385 . S
C1339 C1340 1.389 . S
C1340 C1339 1.389 . S
C1340 C1341 1.387 . S
C1341 H1326 0.930 . S
C1341 C1336 1.390 . S
C1341 C1340 1.387 . S
H1342 C1354 0.930 . S
H1343 C1356 0.930 . S
H1344 C1357 0.930 . S
H1345 C1361 0.959 . S
H1346 C1361 0.959 . S
H1347 C1361 0.961 . S
H1348 C1362 0.960 . S
H1349 C1362 0.961 . S
H1350 C1362 0.959 . S
H1351 C1365 0.929 . S
H1352 C1366 0.931 . S
H1353 C1368 0.930 . S
C1354 H1342 0.930 . S
C1354 C1355 1.399 . S
C1354 C1359 1.399 . S
C1355 C1354 1.399 . S
C1355 C1356 1.376 . S
C1356 H1343 0.930 . S
C1356 C1355 1.376 . S
C1356 C1357 1.388 . S
C1357 H1344 0.930 . S
C1357 C1356 1.388 . S
C1357 C1358 1.390 . S
C1358 C1357 1.390 . S
C1358 C1359 1.394 . S
C1358 C1364 1.465 . S
C1359 C1354 1.399 . S
C1359 C1358 1.394 . S
C1359 C1360 1.516 . S
C1360 C1359 1.516 . S
C1360 C1361 1.502 . S
C1360 C1362 1.561 . S
C1360 C1363 1.526 . S
C1361 H1345 0.959 . S
C1361 H1346 0.959 . S
C1361 H1347 0.961 . S
C1361 C1360 1.502 . S
C1362 H1348 0.960 . S
C1362 H1349 0.961 . S
C1362 H1350 0.959 . S
C1362 C1360 1.561 . S
C1363 C1360 1.526 . S
C1363 C1364 1.396 . S
C1363 C1368 1.390 . S
C1364 C1358 1.465 . S
C1364 C1363 1.396 . S
C1364 C1365 1.399 . S
C1365 H1351 0.929 . S
C1365 C1364 1.399 . S
C1365 C1366 1.385 1_655 S
C1366 H1352 0.931 . S
C1366 C1365 1.385 1_455 S
C1366 C1367 1.389 . S
C1367 C1366 1.389 . S
C1367 C1368 1.387 1_455 S
C1368 H1353 0.930 . S
C1368 C1363 1.390 . S
C1368 C1367 1.387 1_655 S
H1369 C1381 0.930 . S
H1370 C1383 0.930 . S
H1371 C1384 0.930 . S
H1372 C1388 0.959 . S
H1373 C1388 0.959 . S
H1374 C1388 0.961 . S
H1375 C1389 0.960 . S
H1376 C1389 0.961 . S
H1377 C1389 0.959 . S
H1378 C1392 0.929 . S
H1379 C1393 0.931 . S
H1380 C1395 0.930 . S
C1381 H1369 0.930 . S
C1381 C1382 1.399 . S
C1381 C1386 1.399 . S
C1382 C1381 1.399 . S
C1382 C1383 1.376 . S
C1383 H1370 0.930 . S
C1383 C1382 1.376 . S
C1383 C1384 1.388 . S
C1384 H1371 0.930 . S
C1384 C1383 1.388 . S
C1384 C1385 1.390 . S
C1385 C1384 1.390 . S
C1385 C1386 1.394 . S
C1385 C1391 1.465 . S
C1386 C1381 1.399 . S
C1386 C1385 1.394 . S
C1386 C1387 1.516 . S
C1387 C1386 1.516 . S
C1387 C1388 1.502 . S
C1387 C1389 1.561 . S
C1387 C1390 1.526 . S
C1388 H1372 0.959 . S
C1388 H1373 0.959 . S
C1388 H1374 0.961 . S
C1388 C1387 1.502 . S
C1389 H1375 0.960 . S
C1389 H1376 0.961 . S
C1389 H1377 0.959 . S
C1389 C1387 1.561 . S
C1390 C1387 1.526 . S
C1390 C1391 1.396 . S
C1390 C1395 1.390 . S
C1391 C1385 1.465 . S
C1391 C1390 1.396 . S
C1391 C1392 1.399 . S
C1392 H1378 0.929 . S
C1392 C1391 1.399 . S
C1392 C1393 1.385 . S
C1393 H1379 0.931 . S
C1393 C1392 1.385 . S
C1393 C1394 1.389 . S
C1394 C1393 1.389 . S
C1394 C1395 1.387 . S
C1395 H1380 0.930 . S
C1395 C1390 1.390 . S
C1395 C1394 1.387 . S
H1396 C1408 0.930 . S
H1397 C1410 0.930 . S
H1398 C1411 0.930 . S
H1399 C1415 0.959 . S
H1400 C1415 0.959 . S
H1401 C1415 0.961 . S
H1402 C1416 0.960 . S
H1403 C1416 0.961 . S
H1404 C1416 0.959 . S
H1405 C1419 0.929 . S
H1406 C1420 0.931 . S
H1407 C1422 0.930 . S
C1408 H1396 0.930 . S
C1408 C1409 1.399 . S
C1408 C1413 1.399 . S
C1409 C1408 1.399 . S
C1409 C1410 1.376 . S
C1410 H1397 0.930 . S
C1410 C1409 1.376 . S
C1410 C1411 1.388 . S
C1411 H1398 0.930 . S
C1411 C1410 1.388 . S
C1411 C1412 1.390 . S
C1412 C1411 1.390 . S
C1412 C1413 1.394 . S
C1412 C1418 1.465 . S
C1413 C1408 1.399 . S
C1413 C1412 1.394 . S
C1413 C1414 1.516 . S
C1414 C1413 1.516 . S
C1414 C1415 1.502 . S
C1414 C1416 1.561 . S
C1414 C1417 1.526 . S
C1415 H1399 0.959 . S
C1415 H1400 0.959 . S
C1415 H1401 0.961 . S
C1415 C1414 1.502 . S
C1416 H1402 0.960 . S
C1416 H1403 0.961 . S
C1416 H1404 0.959 . S
C1416 C1414 1.561 . S
C1417 C1414 1.526 . S
C1417 C1418 1.396 . S
C1417 C1422 1.390 . S
C1418 C1412 1.465 . S
C1418 C1417 1.396 . S
C1418 C1419 1.399 . S
C1419 H1405 0.929 . S
C1419 C1418 1.399 . S
C1419 C1420 1.385 . S
C1420 H1406 0.931 . S
C1420 C1419 1.385 . S
C1420 C1421 1.389 . S
C1421 C1420 1.389 . S
C1421 C1422 1.387 . S
C1422 H1407 0.930 . S
C1422 C1417 1.390 . S
C1422 C1421 1.387 . S
H1423 C1435 0.930 . S
H1424 C1437 0.930 . S
H1425 C1438 0.930 . S
H1426 C1442 0.959 . S
H1427 C1442 0.959 . S
H1428 C1442 0.961 . S
H1429 C1443 0.960 . S
H1430 C1443 0.961 . S
H1431 C1443 0.959 . S
H1432 C1446 0.929 . S
H1433 C1447 0.931 . S
H1434 C1449 0.930 . S
C1435 H1423 0.930 . S
C1435 C1436 1.399 . S
C1435 C1440 1.399 . S
C1436 C1435 1.399 . S
C1436 C1437 1.376 . S
C1437 H1424 0.930 . S
C1437 C1436 1.376 . S
C1437 C1438 1.388 . S
C1438 H1425 0.930 . S
C1438 C1437 1.388 . S
C1438 C1439 1.390 . S
C1439 C1438 1.390 . S
C1439 C1440 1.394 . S
C1439 C1445 1.465 . S
C1440 C1435 1.399 . S
C1440 C1439 1.394 . S
C1440 C1441 1.516 . S
C1441 C1440 1.516 . S
C1441 C1442 1.502 . S
C1441 C1443 1.561 . S
C1441 C1444 1.526 . S
C1442 H1426 0.959 . S
C1442 H1427 0.959 . S
C1442 H1428 0.961 . S
C1442 C1441 1.502 . S
C1443 H1429 0.960 . S
C1443 H1430 0.961 . S
C1443 H1431 0.959 . S
C1443 C1441 1.561 . S
C1444 C1441 1.526 . S
C1444 C1445 1.396 . S
C1444 C1449 1.390 . S
C1445 C1439 1.465 . S
C1445 C1444 1.396 . S
C1445 C1446 1.399 . S
C1446 H1432 0.929 . S
C1446 C1445 1.399 . S
C1446 C1447 1.385 . S
C1447 H1433 0.931 . S
C1447 C1446 1.385 . S
C1447 C1448 1.389 . S
C1448 C1447 1.389 . S
C1448 C1449 1.387 . S
C1449 H1434 0.930 . S
C1449 C1444 1.390 . S
C1449 C1448 1.387 . S
H1450 C1462 0.930 . S
H1451 C1464 0.930 . S
H1452 C1465 0.930 . S
H1453 C1469 0.959 . S
H1454 C1469 0.959 . S
H1455 C1469 0.961 . S
H1456 C1470 0.960 . S
H1457 C1470 0.961 . S
H1458 C1470 0.959 . S
H1459 C1473 0.929 . S
H1460 C1474 0.931 . S
H1461 C1476 0.930 . S
C1462 H1450 0.930 . S
C1462 C1463 1.399 . S
C1462 C1467 1.399 . S
C1463 C1462 1.399 . S
C1463 C1464 1.376 . S
C1464 H1451 0.930 . S
C1464 C1463 1.376 . S
C1464 C1465 1.388 . S
C1465 H1452 0.930 . S
C1465 C1464 1.388 . S
C1465 C1466 1.390 . S
C1466 C1465 1.390 . S
C1466 C1467 1.394 . S
C1466 C1472 1.465 . S
C1467 C1462 1.399 . S
C1467 C1466 1.394 . S
C1467 C1468 1.516 . S
C1468 C1467 1.516 . S
C1468 C1469 1.502 . S
C1468 C1470 1.561 . S
C1468 C1471 1.526 . S
C1469 H1453 0.959 . S
C1469 H1454 0.959 . S
C1469 H1455 0.961 . S
C1469 C1468 1.502 . S
C1470 H1456 0.960 . S
C1470 H1457 0.961 . S
C1470 H1458 0.959 . S
C1470 C1468 1.561 . S
C1471 C1468 1.526 . S
C1471 C1472 1.396 . S
C1471 C1476 1.390 . S
C1472 C1466 1.465 . S
C1472 C1471 1.396 . S
C1472 C1473 1.399 1_455 S
C1473 H1459 0.929 . S
C1473 C1472 1.399 1_655 S
C1473 C1474 1.385 . S
C1474 H1460 0.931 . S
C1474 C1473 1.385 . S
C1474 C1475 1.389 . S
C1475 C1474 1.389 . S
C1475 C1476 1.387 1_655 S
C1476 H1461 0.930 . S
C1476 C1471 1.390 . S
C1476 C1475 1.387 1_455 S
H1477 C1489 0.930 . S
H1478 C1491 0.930 . S
H1479 C1492 0.930 . S
H1480 C1496 0.959 . S
H1481 C1496 0.959 . S
H1482 C1496 0.961 . S
H1483 C1497 0.960 . S
H1484 C1497 0.961 . S
H1485 C1497 0.959 . S
H1486 C1500 0.929 . S
H1487 C1501 0.931 . S
H1488 C1503 0.930 . S
C1489 H1477 0.930 . S
C1489 C1490 1.399 . S
C1489 C1494 1.399 . S
C1490 C1489 1.399 . S
C1490 C1491 1.376 . S
C1491 H1478 0.930 . S
C1491 C1490 1.376 . S
C1491 C1492 1.388 . S
C1492 H1479 0.930 . S
C1492 C1491 1.388 . S
C1492 C1493 1.390 . S
C1493 C1492 1.390 . S
C1493 C1494 1.394 . S
C1493 C1499 1.465 . S
C1494 C1489 1.399 . S
C1494 C1493 1.394 . S
C1494 C1495 1.516 . S
C1495 C1494 1.516 . S
C1495 C1496 1.502 . S
C1495 C1497 1.561 . S
C1495 C1498 1.526 . S
C1496 H1480 0.959 . S
C1496 H1481 0.959 . S
C1496 H1482 0.961 . S
C1496 C1495 1.502 . S
C1497 H1483 0.960 . S
C1497 H1484 0.961 . S
C1497 H1485 0.959 . S
C1497 C1495 1.561 . S
C1498 C1495 1.526 . S
C1498 C1499 1.396 . S
C1498 C1503 1.390 . S
C1499 C1493 1.465 . S
C1499 C1498 1.396 . S
C1499 C1500 1.399 . S
C1500 H1486 0.929 . S
C1500 C1499 1.399 . S
C1500 C1501 1.385 . S
C1501 H1487 0.931 . S
C1501 C1500 1.385 . S
C1501 C1502 1.389 . S
C1502 C1501 1.389 . S
C1502 C1503 1.387 . S
C1503 H1488 0.930 . S
C1503 C1498 1.390 . S
C1503 C1502 1.387 . S
H1504 C1516 0.918 1_655 S
H1505 C1518 0.930 . S
H1506 C1519 0.930 . S
H1507 C1523 0.959 1_655 S
H1508 C1523 0.959 . S
H1509 C1523 0.961 . S
H1510 C1524 0.960 . S
H1511 C1524 0.961 . S
H1512 C1524 0.959 . S
H1513 C1527 0.929 . S
H1514 C1528 0.931 . S
H1515 C1530 0.930 . S
C1516 H1504 0.918 1_455 S
C1516 C1517 1.388 1_455 S
C1516 C1521 1.399 . S
C1517 C1516 1.388 1_655 S
C1517 C1518 1.360 1_655 S
C1518 H1505 0.930 . S
C1518 C1517 1.360 1_455 S
C1518 C1519 1.388 . S
C1519 H1506 0.930 . S
C1519 C1518 1.388 . S
C1519 C1520 1.390 . S
C1520 C1519 1.390 . S
C1520 C1521 1.394 . S
C1520 C1526 1.465 . S
C1521 C1516 1.399 . S
C1521 C1520 1.394 . S
C1521 C1522 1.516 . S
C1522 C1521 1.516 . S
C1522 C1523 1.502 . S
C1522 C1524 1.561 . S
C1522 C1525 1.526 . S
C1523 H1507 0.959 1_455 S
C1523 H1508 0.959 . S
C1523 H1509 0.961 . S
C1523 C1522 1.502 . S
C1524 H1510 0.960 . S
C1524 H1511 0.961 . S
C1524 H1512 0.959 . S
C1524 C1522 1.561 . S
C1525 C1522 1.526 . S
C1525 C1526 1.396 . S
C1525 C1530 1.390 . S
C1526 C1520 1.465 . S
C1526 C1525 1.396 . S
C1526 C1527 1.399 . S
C1527 H1513 0.929 . S
C1527 C1526 1.399 . S
C1527 C1528 1.385 . S
C1528 H1514 0.931 . S
C1528 C1527 1.385 . S
C1528 C1529 1.389 . S
C1529 C1528 1.389 . S
C1529 C1530 1.387 . S
C1530 H1515 0.930 . S
C1530 C1525 1.390 . S
C1530 C1529 1.387 . S
H1531 C1543 0.930 . S
H1532 C1545 0.930 . S
H1533 C1546 0.930 . S
H1534 C1550 0.959 . S
H1535 C1550 0.959 . S
H1536 C1550 0.961 . S
H1537 C1551 0.960 . S
H1538 C1551 0.961 . S
H1539 C1551 0.959 . S
H1540 C1554 0.929 . S
H1541 C1555 0.931 . S
H1542 C1557 0.930 . S
C1543 H1531 0.930 . S
C1543 C1544 1.399 . S
C1543 C1548 1.399 . S
C1544 C1543 1.399 . S
C1544 C1545 1.376 . S
C1545 H1532 0.930 . S
C1545 C1544 1.376 . S
C1545 C1546 1.388 . S
C1546 H1533 0.930 . S
C1546 C1545 1.388 . S
C1546 C1547 1.390 . S
C1547 C1546 1.390 . S
C1547 C1548 1.394 . S
C1547 C1553 1.465 . S
C1548 C1543 1.399 . S
C1548 C1547 1.394 . S
C1548 C1549 1.516 . S
C1549 C1548 1.516 . S
C1549 C1550 1.502 . S
C1549 C1551 1.561 . S
C1549 C1552 1.526 . S
C1550 H1534 0.959 . S
C1550 H1535 0.959 . S
C1550 H1536 0.961 . S
C1550 C1549 1.502 . S
C1551 H1537 0.960 . S
C1551 H1538 0.961 . S
C1551 H1539 0.959 . S
C1551 C1549 1.561 . S
C1552 C1549 1.526 . S
C1552 C1553 1.396 . S
C1552 C1557 1.390 . S
C1553 C1547 1.465 . S
C1553 C1552 1.396 . S
C1553 C1554 1.399 . S
C1554 H1540 0.929 . S
C1554 C1553 1.399 . S
C1554 C1555 1.385 . S
C1555 H1541 0.931 . S
C1555 C1554 1.385 . S
C1555 C1556 1.389 . S
C1556 C1555 1.389 . S
C1556 C1557 1.387 . S
C1557 H1542 0.930 . S
C1557 C1552 1.390 . S
C1557 C1556 1.387 . S
H1558 C1570 0.930 . S
H1559 C1572 0.930 . S
H1560 C1573 0.930 . S
H1561 C1577 0.959 . S
H1562 C1577 0.959 . S
H1563 C1577 0.961 . S
H1564 C1578 0.960 . S
H1565 C1578 0.961 . S
H1566 C1578 0.959 . S
H1567 C1581 0.929 . S
H1568 C1582 0.931 . S
H1569 C1584 0.930 . S
C1570 H1558 0.930 . S
C1570 C1571 1.399 . S
C1570 C1575 1.399 . S
C1571 C1570 1.399 . S
C1571 C1572 1.376 . S
C1572 H1559 0.930 . S
C1572 C1571 1.376 . S
C1572 C1573 1.388 . S
C1573 H1560 0.930 . S
C1573 C1572 1.388 . S
C1573 C1574 1.390 . S
C1574 C1573 1.390 . S
C1574 C1575 1.394 . S
C1574 C1580 1.465 . S
C1575 C1570 1.399 . S
C1575 C1574 1.394 . S
C1575 C1576 1.516 . S
C1576 C1575 1.516 . S
C1576 C1577 1.502 . S
C1576 C1578 1.561 . S
C1576 C1579 1.526 . S
C1577 H1561 0.959 . S
C1577 H1562 0.959 . S
C1577 H1563 0.961 . S
C1577 C1576 1.502 . S
C1578 H1564 0.960 . S
C1578 H1565 0.961 . S
C1578 H1566 0.959 . S
C1578 C1576 1.561 . S
C1579 C1576 1.526 . S
C1579 C1580 1.396 . S
C1579 C1584 1.390 . S
C1580 C1574 1.465 . S
C1580 C1579 1.396 . S
C1580 C1581 1.399 . S
C1581 H1567 0.929 . S
C1581 C1580 1.399 . S
C1581 C1582 1.385 . S
C1582 H1568 0.931 . S
C1582 C1581 1.385 . S
C1582 C1583 1.389 . S
C1583 C1582 1.389 . S
C1583 C1584 1.387 . S
C1584 H1569 0.930 . S
C1584 C1579 1.390 . S
C1584 C1583 1.387 . S
H1585 C1597 0.930 . S
H1586 C1599 0.930 1_556 S
H1587 C1600 0.930 . S
H1588 C1604 0.959 . S
H1589 C1604 0.959 . S
H1590 C1604 0.961 . S
H1591 C1605 0.960 . S
H1592 C1605 0.961 . S
H1593 C1605 0.959 . S
H1594 C1608 0.929 . S
H1595 C1609 0.931 . S
H1596 C1611 0.930 . S
C1597 H1585 0.930 . S
C1597 C1598 1.399 . S
C1597 C1602 1.399 . S
C1598 C1597 1.399 . S
C1598 C1599 1.376 . S
C1599 H1586 0.930 1_554 S
C1599 C1598 1.376 . S
C1599 C1600 1.388 . S
C1600 H1587 0.930 . S
C1600 C1599 1.388 . S
C1600 C1601 1.390 . S
C1601 C1600 1.390 . S
C1601 C1602 1.394 . S
C1601 C1607 1.465 . S
C1602 C1597 1.399 . S
C1602 C1601 1.394 . S
C1602 C1603 1.516 . S
C1603 C1602 1.516 . S
C1603 C1604 1.502 . S
C1603 C1605 1.561 . S
C1603 C1606 1.526 . S
C1604 H1588 0.959 . S
C1604 H1589 0.959 . S
C1604 H1590 0.961 . S
C1604 C1603 1.502 . S
C1605 H1591 0.960 . S
C1605 H1592 0.961 . S
C1605 H1593 0.959 . S
C1605 C1603 1.561 . S
C1606 C1603 1.526 . S
C1606 C1607 1.396 . S
C1606 C1611 1.390 . S
C1607 C1601 1.465 . S
C1607 C1606 1.396 . S
C1607 C1608 1.399 . S
C1608 H1594 0.929 . S
C1608 C1607 1.399 . S
C1608 C1609 1.385 . S
C1609 H1595 0.931 . S
C1609 C1608 1.385 . S
C1609 C1610 1.389 . S
C1610 C1609 1.389 . S
C1610 C1611 1.387 . S
C1611 H1596 0.930 . S
C1611 C1606 1.390 . S
C1611 C1610 1.387 . S
H1612 C1624 0.930 . S
H1613 C1626 0.946 . S
H1614 C1627 0.930 . S
H1615 C1631 0.992 . S
H1616 C1631 0.959 . S
H1617 C1631 0.961 . S
H1618 C1632 0.960 . S
H1619 C1632 0.961 . S
H1620 C1632 0.959 . S
H1621 C1635 0.929 . S
H1622 C1636 0.931 . S
H1623 C1638 0.930 . S
C1624 H1612 0.930 . S
C1624 C1625 1.399 1_655 S
C1624 C1629 1.399 . S
C1625 C1624 1.399 1_455 S
C1625 C1626 1.376 1_455 S
C1626 H1613 0.946 . S
C1626 C1625 1.376 1_655 S
C1626 C1627 1.388 . S
C1627 H1614 0.930 . S
C1627 C1626 1.388 . S
C1627 C1628 1.390 . S
C1628 C1627 1.390 . S
C1628 C1629 1.394 . S
C1628 C1634 1.465 . S
C1629 C1624 1.399 . S
C1629 C1628 1.394 . S
C1629 C1630 1.516 . S
C1630 C1629 1.516 . S
C1630 C1631 1.502 . S
C1630 C1632 1.561 . S
C1630 C1633 1.526 . S
C1631 H1615 0.992 . S
C1631 H1616 0.959 . S
C1631 H1617 0.961 . S
C1631 C1630 1.502 . S
C1632 H1618 0.960 . S
C1632 H1619 0.961 . S
C1632 H1620 0.959 . S
C1632 C1630 1.561 . S
C1633 C1630 1.526 . S
C1633 C1634 1.396 . S
C1633 C1638 1.390 . S
C1634 C1628 1.465 . S
C1634 C1633 1.396 . S
C1634 C1635 1.399 . S
C1635 H1621 0.929 . S
C1635 C1634 1.399 . S
C1635 C1636 1.385 . S
C1636 H1622 0.931 . S
C1636 C1635 1.385 . S
C1636 C1637 1.389 . S
C1637 C1636 1.389 . S
C1637 C1638 1.387 . S
C1638 H1623 0.930 . S
C1638 C1633 1.390 . S
C1638 C1637 1.387 . S
H1639 C1651 0.930 . S
H1640 C1653 0.930 . S
H1641 C1654 0.930 . S
H1642 C1658 0.959 . S
H1643 C1658 0.959 . S
H1644 C1658 0.961 . S
H1645 C1659 0.960 . S
H1646 C1659 0.961 . S
H1647 C1659 0.959 . S
H1648 C1662 0.929 . S
H1649 C1663 0.931 . S
H1650 C1665 0.930 . S
C1651 H1639 0.930 . S
C1651 C1652 1.399 . S
C1651 C1656 1.399 . S
C1652 C1651 1.399 . S
C1652 C1653 1.376 . S
C1653 H1640 0.930 . S
C1653 C1652 1.376 . S
C1653 C1654 1.388 . S
C1654 H1641 0.930 . S
C1654 C1653 1.388 . S
C1654 C1655 1.390 . S
C1655 C1654 1.390 . S
C1655 C1656 1.394 . S
C1655 C1661 1.465 . S
C1656 C1651 1.399 . S
C1656 C1655 1.394 . S
C1656 C1657 1.516 . S
C1657 C1656 1.516 . S
C1657 C1658 1.502 . S
C1657 C1659 1.561 . S
C1657 C1660 1.526 . S
C1658 H1642 0.959 . S
C1658 H1643 0.959 . S
C1658 H1644 0.961 . S
C1658 C1657 1.502 . S
C1659 H1645 0.960 . S
C1659 H1646 0.961 . S
C1659 H1647 0.959 . S
C1659 C1657 1.561 . S
C1660 C1657 1.526 . S
C1660 C1661 1.396 . S
C1660 C1665 1.390 . S
C1661 C1655 1.465 . S
C1661 C1660 1.396 . S
C1661 C1662 1.399 . S
C1662 H1648 0.929 . S
C1662 C1661 1.399 . S
C1662 C1663 1.385 . S
C1663 H1649 0.931 . S
C1663 C1662 1.385 . S
C1663 C1664 1.389 . S
C1664 C1663 1.389 . S
C1664 C1665 1.387 . S
C1665 H1650 0.930 . S
C1665 C1660 1.390 . S
C1665 C1664 1.387 . S
H1666 C1678 0.930 . S
H1667 C1680 0.930 . S
H1668 C1681 0.930 . S
H1669 C1685 0.959 . S
H1670 C1685 0.959 . S
H1671 C1685 0.961 . S
H1672 C1686 0.960 . S
H1673 C1686 0.961 . S
H1674 C1686 0.959 . S
H1675 C1689 0.929 . S
H1676 C1690 0.931 . S
H1677 C1692 0.930 . S
C1678 H1666 0.930 . S
C1678 C1679 1.399 . S
C1678 C1683 1.399 . S
C1679 C1678 1.399 . S
C1679 C1680 1.376 . S
C1680 H1667 0.930 . S
C1680 C1679 1.376 . S
C1680 C1681 1.388 . S
C1681 H1668 0.930 . S
C1681 C1680 1.388 . S
C1681 C1682 1.390 . S
C1682 C1681 1.390 . S
C1682 C1683 1.394 . S
C1682 C1688 1.465 . S
C1683 C1678 1.399 . S
C1683 C1682 1.394 . S
C1683 C1684 1.516 . S
C1684 C1683 1.516 . S
C1684 C1685 1.502 . S
C1684 C1686 1.561 . S
C1684 C1687 1.526 . S
C1685 H1669 0.959 . S
C1685 H1670 0.959 . S
C1685 H1671 0.961 . S
C1685 C1684 1.502 . S
C1686 H1672 0.960 . S
C1686 H1673 0.961 . S
C1686 H1674 0.959 . S
C1686 C1684 1.561 . S
C1687 C1684 1.526 . S
C1687 C1688 1.396 . S
C1687 C1692 1.390 . S
C1688 C1682 1.465 . S
C1688 C1687 1.396 . S
C1688 C1689 1.399 . S
C1689 H1675 0.929 . S
C1689 C1688 1.399 . S
C1689 C1690 1.385 . S
C1690 H1676 0.931 . S
C1690 C1689 1.385 . S
C1690 C1691 1.389 . S
C1691 C1690 1.389 . S
C1691 C1692 1.387 . S
C1692 H1677 0.930 . S
C1692 C1687 1.390 . S
C1692 C1691 1.387 . S
H1693 C1705 0.930 . S
H1694 C1707 0.930 . S
H1695 C1708 0.930 . S
H1696 C1712 0.959 . S
H1697 C1712 0.959 . S
H1698 C1712 0.961 . S
H1699 C1713 0.960 . S
H1700 C1713 0.961 . S
H1701 C1713 0.959 . S
H1702 C1716 0.929 . S
H1703 C1717 0.931 . S
H1704 C1719 0.930 . S
C1705 H1693 0.930 . S
C1705 C1706 1.399 . S
C1705 C1710 1.399 . S
C1706 C1705 1.399 . S
C1706 C1707 1.376 1_556 S
C1707 H1694 0.930 . S
C1707 C1706 1.376 1_554 S
C1707 C1708 1.388 1_554 S
C1708 H1695 0.930 . S
C1708 C1707 1.388 1_556 S
C1708 C1709 1.390 . S
C1709 C1708 1.390 . S
C1709 C1710 1.394 . S
C1709 C1715 1.465 . S
C1710 C1705 1.399 . S
C1710 C1709 1.394 . S
C1710 C1711 1.516 . S
C1711 C1710 1.516 . S
C1711 C1712 1.502 . S
C1711 C1713 1.561 . S
C1711 C1714 1.526 . S
C1712 H1696 0.959 . S
C1712 H1697 0.959 . S
C1712 H1698 0.961 . S
C1712 C1711 1.502 . S
C1713 H1699 0.960 . S
C1713 H1700 0.961 . S
C1713 H1701 0.959 . S
C1713 C1711 1.561 . S
C1714 C1711 1.526 . S
C1714 C1715 1.396 . S
C1714 C1719 1.390 . S
C1715 C1709 1.465 . S
C1715 C1714 1.396 . S
C1715 C1716 1.399 . S
C1716 H1702 0.929 . S
C1716 C1715 1.399 . S
C1716 C1717 1.385 . S
C1717 H1703 0.931 . S
C1717 C1716 1.385 . S
C1717 C1718 1.389 . S
C1718 C1717 1.389 . S
C1718 C1719 1.387 . S
C1719 H1704 0.930 . S
C1719 C1714 1.390 . S
C1719 C1718 1.387 . S
H1720 C1732 0.930 . S
H1721 C1734 0.930 . S
H1722 C1735 0.930 . S
H1723 C1739 0.959 . S
H1724 C1739 0.959 . S
H1725 C1739 0.961 . S
H1726 C1740 0.960 . S
H1727 C1740 0.961 . S
H1728 C1740 0.959 . S
H1729 C1743 0.929 . S
H1730 C1744 0.931 . S
H1731 C1746 0.930 . S
C1732 H1720 0.930 . S
C1732 C1733 1.399 . S
C1732 C1737 1.399 . S
C1733 C1732 1.399 . S
C1733 C1734 1.376 . S
C1734 H1721 0.930 . S
C1734 C1733 1.376 . S
C1734 C1735 1.388 . S
C1735 H1722 0.930 . S
C1735 C1734 1.388 . S
C1735 C1736 1.390 . S
C1736 C1735 1.390 . S
C1736 C1737 1.394 . S
C1736 C1742 1.465 . S
C1737 C1732 1.399 . S
C1737 C1736 1.394 . S
C1737 C1738 1.516 . S
C1738 C1737 1.516 . S
C1738 C1739 1.502 . S
C1738 C1740 1.561 . S
C1738 C1741 1.526 . S
C1739 H1723 0.959 . S
C1739 H1724 0.959 . S
C1739 H1725 0.961 . S
C1739 C1738 1.502 . S
C1740 H1726 0.960 . S
C1740 H1727 0.961 . S
C1740 H1728 0.959 . S
C1740 C1738 1.561 . S
C1741 C1738 1.526 . S
C1741 C1742 1.396 . S
C1741 C1746 1.390 . S
C1742 C1736 1.465 . S
C1742 C1741 1.396 . S
C1742 C1743 1.399 . S
C1743 H1729 0.929 . S
C1743 C1742 1.399 . S
C1743 C1744 1.385 . S
C1744 H1730 0.931 . S
C1744 C1743 1.385 . S
C1744 C1745 1.389 . S
C1745 C1744 1.389 . S
C1745 C1746 1.387 . S
C1746 H1731 0.930 . S
C1746 C1741 1.390 . S
C1746 C1745 1.387 . S
H1747 C1759 0.930 . S
H1748 C1761 0.930 . S
H1749 C1762 0.930 . S
H1750 C1766 0.959 . S
H1751 C1766 0.959 . S
H1752 C1766 0.961 . S
H1753 C1767 0.960 . S
H1754 C1767 0.961 . S
H1755 C1767 0.959 . S
H1756 C1770 0.929 . S
H1757 C1771 0.931 . S
H1758 C1773 0.930 . S
C1759 H1747 0.930 . S
C1759 C1760 1.399 . S
C1759 C1764 1.399 . S
C1760 C1759 1.399 . S
C1760 C1761 1.376 . S
C1761 H1748 0.930 . S
C1761 C1760 1.376 . S
C1761 C1762 1.388 . S
C1762 H1749 0.930 . S
C1762 C1761 1.388 . S
C1762 C1763 1.390 . S
C1763 C1762 1.390 . S
C1763 C1764 1.394 . S
C1763 C1769 1.465 . S
C1764 C1759 1.399 . S
C1764 C1763 1.394 . S
C1764 C1765 1.516 . S
C1765 C1764 1.516 . S
C1765 C1766 1.502 . S
C1765 C1767 1.561 . S
C1765 C1768 1.526 . S
C1766 H1750 0.959 . S
C1766 H1751 0.959 . S
C1766 H1752 0.961 . S
C1766 C1765 1.502 . S
C1767 H1753 0.960 . S
C1767 H1754 0.961 . S
C1767 H1755 0.959 . S
C1767 C1765 1.561 . S
C1768 C1765 1.526 . S
C1768 C1769 1.396 . S
C1768 C1773 1.390 . S
C1769 C1763 1.465 . S
C1769 C1768 1.396 . S
C1769 C1770 1.399 . S
C1770 H1756 0.929 . S
C1770 C1769 1.399 . S
C1770 C1771 1.385 . S
C1771 H1757 0.931 . S
C1771 C1770 1.385 . S
C1771 C1772 1.389 . S
C1772 C1771 1.389 . S
C1772 C1773 1.387 . S
C1773 H1758 0.930 . S
C1773 C1768 1.390 . S
C1773 C1772 1.387 . S
H1774 C1786 0.930 . S
H1775 C1788 0.930 . S
H1776 C1789 0.930 . S
H1777 C1793 0.959 . S
H1778 C1793 0.959 . S
H1779 C1793 0.961 . S
H1780 C1794 0.960 . S
H1781 C1794 0.961 . S
H1782 C1794 0.959 . S
H1783 C1797 0.929 . S
H1784 C1798 0.931 . S
H1785 C1800 0.930 . S
C1786 H1774 0.930 . S
C1786 C1787 1.399 . S
C1786 C1791 1.399 . S
C1787 C1786 1.399 . S
C1787 C1788 1.376 . S
C1788 H1775 0.930 . S
C1788 C1787 1.376 . S
C1788 C1789 1.388 . S
C1789 H1776 0.930 . S
C1789 C1788 1.388 . S
C1789 C1790 1.390 . S
C1790 C1789 1.390 . S
C1790 C1791 1.394 . S
C1790 C1796 1.465 . S
C1791 C1786 1.399 . S
C1791 C1790 1.394 . S
C1791 C1792 1.516 . S
C1792 C1791 1.516 . S
C1792 C1793 1.502 . S
C1792 C1794 1.561 . S
C1792 C1795 1.526 . S
C1793 H1777 0.959 . S
C1793 H1778 0.959 . S
C1793 H1779 0.961 . S
C1793 C1792 1.502 . S
C1794 H1780 0.960 . S
C1794 H1781 0.961 . S
C1794 H1782 0.959 . S
C1794 C1792 1.561 . S
C1795 C1792 1.526 . S
C1795 C1796 1.396 . S
C1795 C1800 1.390 . S
C1796 C1790 1.465 . S
C1796 C1795 1.396 . S
C1796 C1797 1.399 . S
C1797 H1783 0.929 . S
C1797 C1796 1.399 . S
C1797 C1798 1.385 . S
C1798 H1784 0.931 . S
C1798 C1797 1.385 . S
C1798 C1799 1.389 . S
C1799 C1798 1.389 . S
C1799 C1800 1.387 . S
C1800 H1785 0.930 . S
C1800 C1795 1.390 . S
C1800 C1799 1.387 . S
H1801 C1813 0.930 . S
H1802 C1815 0.930 . S
H1803 C1816 0.930 1_655 S
H1804 C1820 0.959 . S
H1805 C1820 0.959 . S
H1806 C1820 0.961 . S
H1807 C1821 0.985 . S
H1808 C1821 0.951 1_656 S
H1809 C1821 0.935 1_655 S
H1810 C1824 0.929 1_554 S
H1811 C1825 0.931 . S
H1812 C1827 0.930 . S
C1813 H1801 0.930 . S
C1813 C1814 1.399 . S
C1813 C1818 1.399 . S
C1814 C1813 1.399 . S
C1814 C1815 1.376 . S
C1815 H1802 0.930 . S
C1815 C1814 1.376 . S
C1815 C1816 1.388 . S
C1816 H1803 0.930 1_455 S
C1816 C1815 1.388 . S
C1816 C1817 1.390 . S
C1817 C1816 1.390 . S
C1817 C1818 1.394 . S
C1817 C1823 1.465 1_454 S
C1818 C1813 1.399 . S
C1818 C1817 1.394 . S
C1818 C1819 1.516 1_554 S
C1819 C1818 1.516 1_556 S
C1819 C1820 1.502 . S
C1819 C1821 1.572 1_556 S
C1819 C1822 1.526 1_455 S
C1820 H1804 0.959 . S
C1820 H1805 0.959 . S
C1820 H1806 0.961 . S
C1820 C1819 1.502 . S
C1821 H1807 0.985 . S
C1821 H1808 0.951 1_454 S
C1821 H1809 0.935 1_455 S
C1821 C1819 1.572 1_554 S
C1822 C1819 1.526 1_655 S
C1822 C1823 1.396 . S
C1822 C1827 1.390 . S
C1823 C1817 1.465 1_656 S
C1823 C1822 1.396 . S
C1823 C1824 1.399 . S
C1824 H1810 0.929 1_556 S
C1824 C1823 1.399 . S
C1824 C1825 1.385 . S
C1825 H1811 0.931 . S
C1825 C1824 1.385 . S
C1825 C1826 1.389 . S
C1826 C1825 1.389 . S
C1826 C1827 1.387 . S
C1827 H1812 0.930 . S
C1827 C1822 1.390 . S
C1827 C1826 1.387 . S
H1828 C1840 0.930 . S
H1829 C1842 0.930 . S
H1830 C1843 0.930 . S
H1831 C1847 0.959 . S
H1832 C1847 0.959 . S
H1833 C1847 0.961 . S
H1834 C1848 0.960 . S
H1835 C1848 0.961 . S
H1836 C1848 0.959 . S
H1837 C1851 0.929 . S
H1838 C1852 0.931 . S
H1839 C1854 0.930 . S
C1840 H1828 0.930 . S
C1840 C1841 1.399 . S
C1840 C1845 1.399 . S
C1841 C1840 1.399 . S
C1841 C1842 1.376 . S
C1842 H1829 0.930 . S
C1842 C1841 1.376 . S
C1842 C1843 1.388 . S
C1843 H1830 0.930 . S
C1843 C1842 1.388 . S
C1843 C1844 1.390 . S
C1844 C1843 1.390 . S
C1844 C1845 1.394 . S
C1844 C1850 1.465 . S
C1845 C1840 1.399 . S
C1845 C1844 1.394 . S
C1845 C1846 1.516 . S
C1846 C1845 1.516 . S
C1846 C1847 1.502 . S
C1846 C1848 1.561 . S
C1846 C1849 1.526 . S
C1847 H1831 0.959 . S
C1847 H1832 0.959 . S
C1847 H1833 0.961 . S
C1847 C1846 1.502 . S
C1848 H1834 0.960 . S
C1848 H1835 0.961 . S
C1848 H1836 0.959 . S
C1848 C1846 1.561 . S
C1849 C1846 1.526 . S
C1849 C1850 1.396 . S
C1849 C1854 1.390 . S
C1850 C1844 1.465 . S
C1850 C1849 1.396 . S
C1850 C1851 1.399 . S
C1851 H1837 0.929 . S
C1851 C1850 1.399 . S
C1851 C1852 1.385 . S
C1852 H1838 0.931 . S
C1852 C1851 1.385 . S
C1852 C1853 1.389 . S
C1853 C1852 1.389 . S
C1853 C1854 1.387 . S
C1854 H1839 0.930 . S
C1854 C1849 1.390 . S
C1854 C1853 1.387 . S
H1855 C1867 0.930 . S
H1856 C1869 0.930 . S
H1857 C1870 0.930 . S
H1858 C1874 0.959 . S
H1859 C1874 0.959 . S
H1860 C1874 0.961 . S
H1861 C1875 0.960 . S
H1862 C1875 0.961 . S
H1863 C1875 0.959 . S
H1864 C1878 0.929 . S
H1865 C1879 0.931 . S
H1866 C1881 0.930 . S
C1867 H1855 0.930 . S
C1867 C1868 1.399 . S
C1867 C1872 1.399 . S
C1868 C1867 1.399 . S
C1868 C1869 1.376 . S
C1869 H1856 0.930 . S
C1869 C1868 1.376 . S
C1869 C1870 1.388 . S
C1870 H1857 0.930 . S
C1870 C1869 1.388 . S
C1870 C1871 1.390 . S
C1871 C1870 1.390 . S
C1871 C1872 1.394 . S
C1871 C1877 1.465 . S
C1872 C1867 1.399 . S
C1872 C1871 1.394 . S
C1872 C1873 1.516 . S
C1873 C1872 1.516 . S
C1873 C1874 1.502 . S
C1873 C1875 1.561 . S
C1873 C1876 1.526 . S
C1874 H1858 0.959 . S
C1874 H1859 0.959 . S
C1874 H1860 0.961 . S
C1874 C1873 1.502 . S
C1875 H1861 0.960 . S
C1875 H1862 0.961 . S
C1875 H1863 0.959 . S
C1875 C1873 1.561 . S
C1876 C1873 1.526 . S
C1876 C1877 1.396 . S
C1876 C1881 1.390 . S
C1877 C1871 1.465 . S
C1877 C1876 1.396 . S
C1877 C1878 1.399 . S
C1878 H1864 0.929 . S
C1878 C1877 1.399 . S
C1878 C1879 1.385 . S
C1879 H1865 0.931 . S
C1879 C1878 1.385 . S
C1879 C1880 1.389 . S
C1880 C1879 1.389 . S
C1880 C1881 1.387 . S
C1881 H1866 0.930 . S
C1881 C1876 1.390 . S
C1881 C1880 1.387 . S
H1882 C1894 0.930 . S
H1883 C1896 0.930 . S
H1884 C1897 0.930 . S
H1885 C1901 0.959 . S
H1886 C1901 0.959 . S
H1887 C1901 0.961 . S
H1888 C1902 0.960 1_455 S
H1889 C1902 0.961 1_554 S
H1890 C1902 0.959 . S
H1891 C1905 0.915 1_556 S
H1892 C1906 0.931 . S
H1893 C1908 0.930 . S
C1894 H1882 0.930 . S
C1894 C1895 1.399 . S
C1894 C1899 1.399 . S
C1895 C1894 1.399 . S
C1895 C1896 1.376 1_545 S
C1896 H1883 0.930 . S
C1896 C1895 1.376 1_565 S
C1896 C1897 1.388 . S
C1897 H1884 0.930 . S
C1897 C1896 1.388 . S
C1897 C1898 1.390 . S
C1898 C1897 1.390 . S
C1898 C1899 1.394 1_565 S
C1898 C1904 1.465 1_456 S
C1899 C1894 1.399 . S
C1899 C1898 1.394 1_545 S
C1899 C1900 1.516 1_556 S
C1900 C1899 1.516 1_554 S
C1900 C1901 1.502 . S
C1900 C1902 1.561 1_454 S
C1900 C1903 1.526 1_455 S
C1901 H1885 0.959 . S
C1901 H1886 0.959 . S
C1901 H1887 0.961 . S
C1901 C1900 1.502 . S
C1902 H1888 0.960 1_655 S
C1902 H1889 0.961 1_556 S
C1902 H1890 0.959 . S
C1902 C1900 1.561 1_656 S
C1903 C1900 1.526 1_655 S
C1903 C1904 1.396 1_545 S
C1903 C1908 1.390 . S
C1904 C1898 1.465 1_654 S
C1904 C1903 1.396 1_565 S
C1904 C1905 1.399 . S
C1905 H1891 0.915 1_554 S
C1905 C1904 1.399 . S
C1905 C1906 1.385 . S
C1906 H1892 0.931 . S
C1906 C1905 1.385 . S
C1906 C1907 1.389 . S
C1907 C1906 1.389 . S
C1907 C1908 1.387 1_565 S
C1908 H1893 0.930 . S
C1908 C1903 1.390 . S
C1908 C1907 1.387 1_545 S
H1909 C1921 0.930 . S
H1910 C1923 0.930 . S
H1911 C1924 0.930 . S
H1912 C1928 0.959 . S
H1913 C1928 0.959 . S
H1914 C1928 0.961 . S
H1915 C1929 0.960 . S
H1916 C1929 0.961 . S
H1917 C1929 0.959 . S
H1918 C1932 0.929 . S
H1919 C1933 0.931 . S
H1920 C1935 0.930 . S
C1921 H1909 0.930 . S
C1921 C1922 1.399 1_565 S
C1921 C1926 1.399 . S
C1922 C1921 1.399 1_545 S
C1922 C1923 1.376 . S
C1923 H1910 0.930 . S
C1923 C1922 1.376 . S
C1923 C1924 1.388 . S
C1924 H1911 0.930 . S
C1924 C1923 1.388 . S
C1924 C1925 1.390 . S
C1925 C1924 1.390 . S
C1925 C1926 1.394 1_545 S
C1925 C1931 1.465 . S
C1926 C1921 1.399 . S
C1926 C1925 1.394 1_565 S
C1926 C1927 1.516 . S
C1927 C1926 1.516 . S
C1927 C1928 1.502 . S
C1927 C1929 1.561 . S
C1927 C1930 1.526 . S
C1928 H1912 0.959 . S
C1928 H1913 0.959 . S
C1928 H1914 0.961 . S
C1928 C1927 1.502 . S
C1929 H1915 0.960 . S
C1929 H1916 0.961 . S
C1929 H1917 0.959 . S
C1929 C1927 1.561 . S
C1930 C1927 1.526 . S
C1930 C1931 1.396 1_565 S
C1930 C1935 1.390 . S
C1931 C1925 1.465 . S
C1931 C1930 1.396 1_545 S
C1931 C1932 1.399 . S
C1932 H1918 0.929 . S
C1932 C1931 1.399 . S
C1932 C1933 1.385 . S
C1933 H1919 0.931 . S
C1933 C1932 1.385 . S
C1933 C1934 1.389 1_545 S
C1934 C1933 1.389 1_565 S
C1934 C1935 1.387 . S
C1935 H1920 0.930 . S
C1935 C1930 1.390 . S
C1935 C1934 1.387 . S
C653 C10 3.301 . S
C665 C410 3.323 . S
C680 C50 3.324 . S
C692 C450 3.311 . S
C707 C90 3.302 . S
C719 C330 3.321 . S
C734 C130 3.324 . S
C746 C370 3.312 . S
C761 C179 3.329 . S
C773 C579 3.301 . S
C788 C219 3.303 . S
C800 C619 3.324 . S
C815 C259 3.306 . S
C827 C499 3.321 . S
C842 C299 3.302 . S
C854 C539 3.325 . S
C869 C369 3.734 . S
C881 C19 3.683 1_556 S
C896 C409 3.739 . S
C908 C59 3.689 . S
C923 C449 3.759 . S
C935 C99 3.714 . S
C950 C329 3.751 . S
C962 C139 3.703 . S
C977 C170 3.678 1_554 S
C989 C538 3.737 . S
C1004 C578 3.755 . S
C1016 C210 3.714 . S
C1031 C618 3.746 . S
C1043 C250 3.687 . S
C1058 C498 3.756 . S
C1070 C290 3.714 . S
C1085 C49 3.750 . S
C1097 C339 3.703 . S
C1112 C379 3.714 . S
C1124 C89 3.760 . S
C1139 C419 3.700 1_556 S
C1151 C129 3.749 . S
C1166 C459 3.677 . S
C1178 C9 3.730 . S
C1193 C490 3.703 . S
C1205 C218 3.741 . S
C1220 C258 3.739 . S
C1232 C530 3.680 . S
C1247 C298 3.732 . S
C1259 C570 3.677 1_554 S
C1274 C610 3.695 . S
C1286 C178 3.735 . S
C1301 C6 0.536 . S
C1313 C609 0.133 . S
C1328 C46 0.335 . S
C1340 C169 0.321 . S
C1355 C529 0.091 . S
C1367 C86 0.424 . S
C1382 C249 0.161 . S
C1394 C126 0.535 . S
C1409 C175 0.458 . S
C1421 C458 0.319 . S
C1436 C215 0.369 . S
C1448 C18 0.314 . S
C1463 C378 0.256 . S
C1475 C255 0.261 . S
C1490 C98 0.312 . S
C1502 C295 0.489 . S
C1517 C326 0.562 . S
C1529 C289 0.100 . S
C1544 C366 0.408 . S
C1556 C489 0.108 . S
C1571 C209 0.320 . S
C1583 C406 0.299 . S
C1598 C569 0.308 . S
C1610 C446 0.267 . S
C1625 C495 0.415 . S
C1637 C138 0.321 . S
C1652 C535 0.535 . S
C1664 C338 0.261 . S
C1679 C575 0.398 . S
C1691 C58 0.319 . S
C1706 C418 0.080 . S
C1718 C615 0.349 . S
C1733 C15 1.614 . S
C1745 C486 1.659 . S
C1760 C55 1.656 . S
C1772 C206 1.588 . S
C1787 C95 1.582 . S
C1799 C566 1.662 . S
C1814 C286 1.585 . S
C1826 C135 1.679 . S
C1841 C166 1.678 . S
C1853 C335 1.590 . S
C1868 C415 1.576 . S
C1880 C246 1.670 . S
C1895 C375 1.650 . S
C1907 C526 1.593 . S
C1922 C606 1.581 . S
C1934 C455 1.681 . S
