# Generated by pormake.
# Topology qtz-x, (6)-cn, num edge types: 1
# Building blocks:
#     Node 0, Type 0, BuildingBlock: GEDQOX_clean_sbu_0, # of connection points: 6
#     Node 1, Type 0, BuildingBlock: GEDQOX_clean_sbu_0, # of connection points: 6
#     Node 2, Type 0, BuildingBlock: GEDQOX_clean_sbu_0, # of connection points: 6
#     Edge 3, Type (0, 0), BuildingBlock: XIVTED_clean_linker_0, # of connection points: 2
#     Edge 4, Type (0, 0), BuildingBlock: XIVTED_clean_linker_0, # of connection points: 2
#     Edge 5, Type (0, 0), BuildingBlock: XIVTED_clean_linker_0, # of connection points: 2
#     Edge 6, Type (0, 0), BuildingBlock: XIVTED_clean_linker_0, # of connection points: 2
#     Edge 7, Type (0, 0), BuildingBlock: XIVTED_clean_linker_0, # of connection points: 2
#     Edge 8, Type (0, 0), BuildingBlock: XIVTED_clean_linker_0, # of connection points: 2
#     Edge 9, Type (0, 0), BuildingBlock: XIVTED_clean_linker_0, # of connection points: 2
#     Edge 10, Type (0, 0), BuildingBlock: XIVTED_clean_linker_0, # of connection points: 2
#     Edge 11, Type (0, 0), BuildingBlock: XIVTED_clean_linker_0, # of connection points: 2
# Relax obj value: 0.219
# Max RMSD: 0.266
# Mean RMSD: 0.236
data_MOF--net-qtz-x--node1-GEDQOX_clean_sbu_0--edge1-XIVTED_clean_linker_0
_symmetry_space_group_name_H-M    P1
_symmetry_Int_Tables_number       1
_symmetry_cell_setting            triclinic
loop_
_symmetry_equiv_pos_as_xyz
'x, y, z'
_cell_length_a     14.701189
_cell_length_b     14.883147
_cell_length_c     54.039125
_cell_angle_alpha  67.920401
_cell_angle_beta   115.36975
_cell_angle_gamma 121.33301
loop_
_atom_site_label
_atom_site_type_symbol
_atom_site_fract_x
_atom_site_fract_y
_atom_site_fract_z
_atom_type_partial_charge
Nd0 Nd 0.26908 0.76318 0.19028 0.0
Nd1 Nd 1.04577 0.61853 0.19842 0.0
C2 C 0.4337 0.91439 0.16937 0.0
C3 C 0.45137 0.93472 0.14244 0.0
C4 C 0.36589 0.93586 0.11718 0.0
C5 C 0.3754 0.93635 0.09249 0.0
C6 C 0.47105 0.93667 0.09239 0.0
C7 C 0.5594 0.94228 0.11739 0.0
C8 C 0.54936 0.9408 0.14217 0.0
C9 C 0.21683 0.54868 0.1998 0.0
C10 C 1.05193 0.69007 0.13527 0.0
C11 C 0.88074 0.46267 0.21889 0.0
C12 C 0.85585 0.43064 0.24558 0.0
C13 C 0.83453 0.32589 0.26116 0.0
C14 C 0.81815 0.29584 0.28731 0.0
C15 C 0.82203 0.36983 0.29848 0.0
C16 C 0.84136 0.47432 0.28252 0.0
C17 C 0.85863 0.50453 0.25647 0.0
C18 C 0.09749 0.83281 0.18891 0.0
C19 C 0.26861 0.69459 0.25314 0.0
O20 O 0.35153 0.92931 0.16819 0.0
O21 O 0.4384 0.8268 0.18691 0.0
O22 O 0.31446 0.6197 0.21052 0.0
O23 O 0.15146 0.59198 0.18426 0.0
O24 O 0.15132 0.76372 0.14539 0.0
O25 O 0.99308 0.61267 0.15201 0.0
O26 O 0.96543 0.45115 0.2204 0.0
O27 O 0.87671 0.55186 0.20224 0.0
O28 O 0.99965 0.76151 0.17835 0.0
O29 O 0.16298 0.78961 0.20447 0.0
O30 O 0.16765 0.62019 0.24373 0.0
O31 O 0.32303 0.77244 0.23571 0.0
H32 H 0.28921 0.9315 0.11661 0.0
H33 H 0.3052 0.93113 0.07382 0.0
H34 H 0.63557 0.94542 0.118 0.0
H35 H 0.61663 0.94051 0.16133 0.0
H36 H 0.83274 0.26766 0.25331 0.0
H37 H 0.80531 0.21525 0.29906 0.0
H38 H 0.84317 0.53315 0.29011 0.0
H39 H 0.87541 0.58616 0.24504 0.0
Nd40 Nd 0.75137 0.94649 0.55176 0.0
Nd41 Nd 0.858 0.2046 0.55599 0.0
C42 C 0.7166 0.77002 0.54138 0.0
C43 C 0.67835 0.73932 0.51422 0.0
C44 C 0.75012 0.78591 0.49764 0.0
C45 C 0.70894 0.77003 0.47026 0.0
C46 C 0.59495 0.70745 0.45871 0.0
C47 C 0.5245 0.65635 0.47584 0.0
C48 C 0.56582 0.67172 0.50327 0.0
C49 C 0.59206 0.00566 0.5465 0.0
C50 C 0.77687 0.14419 0.49503 0.0
C51 C 0.88723 0.38717 0.56173 0.0
C52 C 0.88828 0.42067 0.5842 0.0
C53 C 0.84039 0.34355 0.6052 0.0
C54 C 0.86088 0.37243 0.6295 0.0
C55 C 0.93051 0.47893 0.63333 0.0
C56 C 0.97331 0.55707 0.61151 0.0
C57 C 0.95252 0.52798 0.58718 0.0
C58 C 1.01689 0.14757 0.55989 0.0
C59 C 0.8266 0.00601 0.6122 0.0
O60 O 0.81616 0.84823 0.54798 0.0
O61 O 0.64304 0.77692 0.54725 0.0
O62 O 0.56878 0.91025 0.54522 0.0
O63 O 0.69465 0.06218 0.5495 0.0
O64 O 0.75542 0.04202 0.50703 0.0
O65 O 0.80861 0.21865 0.50865 0.0
O66 O 0.79122 0.31984 0.54827 0.0
O67 O 0.96903 0.36226 0.56822 0.0
O68 O 1.0399 0.24274 0.56126 0.0
O69 O 0.9147 0.09003 0.55744 0.0
O70 O 0.83755 0.10538 0.59939 0.0
O71 O 0.80904 0.93468 0.59948 0.0
H72 H 0.83755 0.83771 0.50541 0.0
H73 H 0.76635 0.80855 0.45798 0.0
H74 H 0.4362 0.60816 0.46772 0.0
H75 H 0.5084 0.63428 0.51553 0.0
H76 H 0.79146 0.26015 0.6034 0.0
H77 H 0.82502 0.31061 0.64566 0.0
H78 H 1.02797 0.63957 0.61385 0.0
H79 H 0.99141 0.5883 0.57132 0.0
Nd80 Nd 0.97867 0.76157 0.88158 0.0
Nd81 Nd 0.79489 0.83127 0.86397 0.0
C82 C 0.15308 0.74425 0.88473 0.0
C83 C 0.1715 0.7137 0.86476 0.0
C84 C 0.23812 0.79325 0.84752 0.0
C85 C 0.23548 0.77027 0.82433 0.0
C86 C 0.16689 0.66703 0.81811 0.0
C87 C 0.10796 0.5854 0.83675 0.0
C88 C 0.1102 0.60842 0.85982 0.0
C89 C 0.77097 0.59581 0.87941 0.0
C90 C 0.85211 0.82361 0.81376 0.0
C91 C 0.61864 0.84964 0.85951 0.0
C92 C 0.57095 0.83987 0.88001 0.0
C93 C 0.55915 0.75395 0.90304 0.0
C94 C 0.52964 0.7536 0.92444 0.0
C95 C 0.51279 0.83982 0.92351 0.0
C96 C 0.51869 0.92283 0.89967 0.0
C97 C 0.5474 0.92268 0.87812 0.0
C98 C 1.00302 -0.00411 0.86555 0.0
C99 C 0.92233 0.76957 0.93122 0.0
O100 O 0.1461 0.83591 0.87614 0.0
O101 O 0.07807 0.66889 0.89728 0.0
O102 O 0.86122 0.59114 0.89821 0.0
O103 O 0.79278 0.68284 0.8618 0.0
O104 O 0.93735 0.80629 0.83334 0.0
O105 O 0.77682 0.82742 0.82007 0.0
O106 O 0.61356 0.7616 0.85779 0.0
O107 O 0.71506 0.93158 0.85892 0.0
O108 O 0.91294 -0.00048 0.84636 0.0
O109 O 0.98085 0.91011 0.88357 0.0
O110 O 0.8286 0.77059 0.91212 0.0
O111 O 1.00449 0.78311 0.92402 0.0
H112 H 0.28715 0.87482 0.851 0.0
H113 H 0.28359 0.83431 0.81064 0.0
H114 H 1.05409 0.50509 0.83254 0.0
H115 H 1.05843 0.54483 0.87276 0.0
H116 H 0.57672 0.68882 0.90509 0.0
H117 H 0.52335 0.68712 0.94216 0.0
H118 H 0.50686 -0.00921 0.89825 0.0
H119 H 0.55601 -0.01027 0.86053 0.0
H120 H 0.28812 -0.01705 0.21662 0.0
H121 H 1.02617 0.39876 0.172 0.0
H122 H 0.95358 0.9274 0.16323 0.0
H123 H 0.36034 0.45369 0.22557 0.0
H124 H 0.99732 0.22539 0.16879 0.0
H125 H 0.31676 0.15618 0.21985 0.0
C126 C 0.22087 0.0075 0.20546 0.0
C127 C 0.11824 0.94058 0.18967 0.0
C128 C 0.07692 0.27516 0.18131 0.0
C129 C 0.1501 0.13867 0.19339 0.0
C130 C 0.0933 0.37405 0.1832 0.0
C131 C 0.1959 0.44083 0.19904 0.0
C132 C 0.16382 0.24263 0.19534 0.0
C133 C 0.27996 0.40478 0.21311 0.0
C134 C 0.23712 0.10631 0.20737 0.0
C135 C 1.034 -0.02357 0.17566 0.0
N136 N 0.26218 0.3084 0.21088 0.0
N137 N 1.05168 0.07277 0.17789 0.0
H138 H 0.63042 0.16879 0.5675 0.0
H139 H 0.97933 -0.00046 0.53363 0.0
H140 H 0.36684 0.90347 0.52787 0.0
H141 H 0.24165 0.24052 0.58169 0.0
H142 H 0.11948 0.96563 0.53018 0.0
H143 H 0.49012 0.20319 0.57085 0.0
C144 C 0.54317 0.11938 0.559 0.0
C145 C 0.51037 0.03456 0.54698 0.0
C146 C 0.1465 0.02502 0.54181 0.0
C147 C 0.34878 0.07097 0.55129 0.0
C148 C 0.06604 0.04269 0.54421 0.0
C149 C 0.09844 0.11987 0.55883 0.0
C150 C 0.26054 0.0862 0.55382 0.0
C151 C 0.21296 0.17906 0.57055 0.0
C152 C 0.46287 0.13794 0.5612 0.0
C153 C 0.39582 0.97023 0.53716 0.0
N154 N 0.2897 0.16104 0.56782 0.0
N155 N 0.31938 -0.01026 0.53949 0.0
H156 H 1.06219 0.18944 0.82977 0.0
H157 H 0.71144 0.40315 0.91549 0.0
H158 H 0.19977 0.00337 0.90504 0.0
H159 H 0.57495 0.58637 0.83922 0.0
H160 H 0.52461 0.25615 0.91218 0.0
H161 H 0.24909 0.33616 0.83298 0.0
C162 C 0.1319 0.17953 0.84696 0.0
C163 C 0.11567 0.08438 0.8672 0.0
C164 C 0.53536 0.32848 0.89616 0.0
C165 C 0.32981 0.25168 0.87102 0.0
C166 C 0.64199 0.41236 0.89805 0.0
C167 C 0.65845 0.50693 0.87761 0.0
C168 C 0.44441 0.33931 0.87368 0.0
C169 C 0.56571 0.51484 0.85547 0.0
C170 C 0.23858 0.26327 0.8488 0.0
C171 C 0.20874 0.07558 0.88903 0.0
N172 N 0.46263 0.43212 0.85409 0.0
N173 N 0.31185 0.15821 0.89036 0.0
H174 H 0.61696 0.78308 0.97867 0.0
H175 H 0.38566 0.01874 1.03705 0.0
H176 H 0.38078 0.9172 0.92515 0.0
H177 H 0.56437 0.82413 0.08918 0.0
H178 H 0.38779 -0.01035 0.99571 0.0
H179 H 0.60286 0.80392 1.01918 0.0
C180 C 0.56066 0.81545 0.97538 0.0
C181 C 0.4993 0.84761 0.94831 0.0
C182 C 0.42665 0.95359 1.01623 0.0
C183 C 0.48521 0.87456 0.99497 0.0
C184 C 0.42528 0.96986 0.0399 0.0
C185 C 0.4756 0.92447 0.06683 0.0
C186 C 0.47942 0.89216 1.01944 0.0
C187 C 0.52674 0.86299 0.06902 0.0
C188 C 0.55345 0.82822 0.99862 0.0
C189 C 0.43046 0.89213 0.94555 0.0
N190 N 0.52751 0.84898 0.0457 0.0
N191 N 0.42555 0.90462 0.96858 0.0
H192 H 0.6869 0.01512 0.45748 0.0
H193 H 0.92857 0.4939 0.33834 0.0
H194 H 0.85551 0.34847 0.46399 0.0
H195 H 0.68609 0.17488 0.32389 0.0
H196 H 0.90859 0.44102 0.38495 0.0
H197 H 0.6916 0.07058 0.40923 0.0
C198 C 0.72423 0.10008 0.44876 0.0
C199 C 0.7709 0.17724 0.46497 0.0
C200 C 0.85933 0.38277 0.37151 0.0
C201 C 0.77762 0.24114 0.4096 0.0
C202 C 0.87015 0.41305 0.34475 0.0
C203 C 0.80883 0.33901 0.32689 0.0
C204 C 0.78751 0.2772 0.3808 0.0
C205 C 0.73658 0.23454 0.33691 0.0
C206 C 0.72679 0.13162 0.42114 0.0
C207 C 0.81808 0.28605 0.45237 0.0
N208 N 0.72837 0.20675 0.36316 0.0
N209 N 0.82102 0.31465 0.42555 0.0
H210 H 0.95434 0.77177 0.79231 0.0
H211 H 0.77757 0.09228 0.63851 0.0
H212 H 0.72992 0.91556 0.76725 0.0
H213 H 0.87735 0.84542 0.65375 0.0
H214 H 0.77942 0.04196 0.68702 0.0
H215 H 0.94439 0.809 0.74316 0.0
C216 C 0.90271 0.81087 0.77651 0.0
C217 C 0.84279 0.84069 0.78398 0.0
C218 C 0.8007 -0.00154 0.67982 0.0
C219 C 0.83289 0.88489 0.72779 0.0
C220 C 0.80055 0.02769 0.65209 0.0
C221 C 0.82797 -0.02654 0.64194 0.0
C222 C 0.83005 0.9151 0.69795 0.0
C223 C 0.85547 0.88932 0.66062 0.0
C224 C 0.89699 0.83174 0.74847 0.0
C225 C 0.77718 0.89079 0.76254 0.0
N226 N 0.85679 0.86327 0.68783 0.0
N227 N 0.77494 0.91223 0.73553 0.0
H228 H 0.10814 0.77734 0.97534 0.0
H229 H 0.84549 0.64955 0.09478 0.0
H230 H 0.76887 0.72442 0.95594 0.0
H231 H 0.18632 0.72452 0.10809 0.0
H232 H 0.80769 0.66493 0.04444 0.0
H233 H 0.13181 0.7496 1.02453 0.0
C234 C 1.03823 0.75965 0.98138 0.0
C235 C 0.93628 0.75323 0.96131 0.0
C236 C 0.89059 0.67777 0.05849 0.0
C237 C 0.96283 0.72058 1.01823 0.0
C238 C 0.91181 0.66839 0.08715 0.0
C239 C 1.01965 0.68775 0.10545 0.0
C240 C 0.97772 0.70527 0.04841 0.0
C241 C 0.10273 0.71176 0.09459 0.0
C242 C 1.05181 0.74366 1.00963 0.0
C243 C 0.84906 0.73026 0.97065 0.0
N244 N 0.08018 0.72006 0.06696 0.0
N245 N 0.86426 0.7147 0.99845 0.0
H246 H 0.46322 0.84617 0.27923 0.0
H247 H 0.427 0.53414 0.43434 0.0
H248 H 0.18966 0.54192 0.29648 0.0
H249 H 0.65592 0.86513 0.41403 0.0
H250 H 0.3475 0.52853 0.38454 0.0
H251 H 0.54407 0.8467 0.32912 0.0
C252 C 0.42019 0.77913 0.29349 0.0
C253 C 0.31931 0.6938 0.28355 0.0
C254 C 0.41538 0.60219 0.39105 0.0
C255 C 0.41206 0.69401 0.34097 0.0
C256 C 0.46068 0.6057 0.4195 0.0
C257 C 0.54878 0.70025 0.42859 0.0
C258 C 0.4587 0.69366 0.37145 0.0
C259 C 0.5897 0.78976 0.40825 0.0
C260 C 0.46643 0.77969 0.32204 0.0
C261 C 0.26752 0.60941 0.30315 0.0
N262 N 0.54442 0.78417 0.38074 0.0
N263 N 0.31455 0.61157 0.33093 0.0
H264 H 0.13381 0.79525 0.76643 0.0
H265 H 0.98547 0.36103 0.68554 0.0
H266 H 0.15049 0.49106 0.8078 0.0
H267 H 0.95832 0.66058 0.64373 0.0
H268 H 1.05016 0.40957 0.73042 0.0
H269 H 0.07888 0.75184 0.72134 0.0
C270 C 0.12782 0.72008 0.76605 0.0
C271 C 0.1468 0.64665 0.79095 0.0
C272 C 1.02992 0.46471 0.71146 0.0
C273 C 0.08199 0.5956 0.73931 0.0
C274 C 0.99185 0.43658 0.68577 0.0
C275 C 0.96556 0.50649 0.66074 0.0
C276 C 1.0422 0.56369 0.71227 0.0
C277 C 0.97834 0.60451 0.66245 0.0
C278 C 0.09538 0.6949 0.74027 0.0
C279 C 0.13565 0.54958 0.78913 0.0
N280 N 1.01564 0.63014 0.68776 0.0
N281 N 0.10366 0.52678 0.76376 0.0
loop_
_geom_bond_atom_site_label_1
_geom_bond_atom_site_label_2
_geom_bond_distance
_geom_bond_site_symmetry_2
_ccdc_geom_bond_type
Nd0 C2 2.836 . S
Nd0 O20 2.500 . S
Nd0 O21 2.492 . S
Nd0 O22 2.487 . S
Nd0 O23 2.682 1_455 S
Nd0 O24 2.410 1_455 S
Nd0 O29 2.414 . S
Nd0 O31 2.424 . S
Nd1 C11 2.836 . S
Nd1 O23 2.414 . S
Nd1 O25 2.424 . S
Nd1 O26 2.500 . S
Nd1 O27 2.492 . S
Nd1 O28 2.487 . S
Nd1 O29 2.682 1_655 S
Nd1 O30 2.410 1_655 S
C2 Nd0 2.836 . S
C2 C3 1.498 . S
C2 O20 1.258 . S
C2 O21 1.239 . S
C3 C2 1.498 . S
C3 C4 1.366 . S
C3 C8 1.407 . S
C4 C3 1.366 . S
C4 C5 1.392 1_565 S
C4 H32 0.930 . S
C5 C4 1.392 1_545 S
C5 C6 1.398 1_545 S
C5 H33 0.929 . S
C6 C5 1.398 1_565 S
C6 C7 1.352 . S
C7 C6 1.352 . S
C7 C8 1.384 . S
C7 H34 0.930 . S
C8 C3 1.407 . S
C8 C7 1.384 . S
C8 H35 0.929 . S
C9 O22 1.241 . S
C9 O23 1.273 1_455 S
C10 O24 1.251 . S
C10 O25 1.268 . S
C11 Nd1 2.836 . S
C11 C12 1.498 . S
C11 O26 1.258 . S
C11 O27 1.239 . S
C12 C11 1.498 . S
C12 C13 1.366 . S
C12 C17 1.407 . S
C13 C12 1.366 . S
C13 C14 1.392 . S
C13 H36 0.930 . S
C14 C13 1.392 . S
C14 C15 1.398 . S
C14 H37 0.929 . S
C15 C14 1.398 . S
C15 C16 1.352 . S
C16 C15 1.352 . S
C16 C17 1.384 . S
C16 H38 0.930 . S
C17 C12 1.407 . S
C17 C16 1.384 . S
C17 H39 0.929 . S
C18 O28 1.241 . S
C18 O29 1.273 1_655 S
C19 O30 1.251 . S
C19 O31 1.268 . S
O20 Nd0 2.500 . S
O20 C2 1.258 . S
O21 Nd0 2.492 . S
O21 C2 1.239 . S
O22 Nd0 2.487 . S
O22 C9 1.241 . S
O23 Nd0 2.682 1_655 S
O23 Nd1 2.414 . S
O23 C9 1.273 1_655 S
O24 Nd0 2.410 1_655 S
O24 C10 1.251 . S
O25 Nd1 2.424 . S
O25 C10 1.268 . S
O26 Nd1 2.500 . S
O26 C11 1.258 . S
O27 Nd1 2.492 . S
O27 C11 1.239 . S
O28 Nd1 2.487 . S
O28 C18 1.241 . S
O29 Nd0 2.414 . S
O29 Nd1 2.682 1_455 S
O29 C18 1.273 1_455 S
O30 Nd1 2.410 1_455 S
O30 C19 1.251 . S
O31 Nd0 2.424 . S
O31 C19 1.268 . S
H32 C4 0.930 . S
H33 C5 0.929 . S
H34 C7 0.930 . S
H35 C8 0.929 . S
H36 C13 0.930 . S
H37 C14 0.929 . S
H38 C16 0.930 . S
H39 C17 0.929 . S
Nd40 C42 2.836 . S
Nd40 O60 2.500 . S
Nd40 O61 2.492 . S
Nd40 O62 2.487 . S
Nd40 O63 2.682 1_565 S
Nd40 O64 2.410 1_565 S
Nd40 O69 2.414 . S
Nd40 O71 2.424 . S
Nd41 C51 2.836 . S
Nd41 O63 2.414 . S
Nd41 O65 2.424 . S
Nd41 O66 2.500 . S
Nd41 O67 2.492 . S
Nd41 O68 2.487 . S
Nd41 O69 2.682 1_545 S
Nd41 O70 2.410 . S
C42 Nd40 2.836 . S
C42 C43 1.498 . S
C42 O60 1.258 . S
C42 O61 1.239 . S
C43 C42 1.498 . S
C43 C44 1.366 . S
C43 C48 1.407 . S
C44 C43 1.366 . S
C44 C45 1.392 . S
C44 H72 0.930 . S
C45 C44 1.392 . S
C45 C46 1.398 . S
C45 H73 0.929 . S
C46 C45 1.398 . S
C46 C47 1.352 . S
C47 C46 1.352 . S
C47 C48 1.384 . S
C47 H74 0.930 . S
C48 C43 1.407 . S
C48 C47 1.384 . S
C48 H75 0.929 . S
C49 O62 1.241 . S
C49 O63 1.273 1_565 S
C50 O64 1.251 . S
C50 O65 1.268 . S
C51 Nd41 2.836 . S
C51 C52 1.498 . S
C51 O66 1.258 . S
C51 O67 1.239 . S
C52 C51 1.498 . S
C52 C53 1.366 . S
C52 C57 1.407 1_655 S
C53 C52 1.366 . S
C53 C54 1.392 . S
C53 H76 0.930 . S
C54 C53 1.392 . S
C54 C55 1.398 1_655 S
C54 H77 0.929 . S
C55 C54 1.398 1_455 S
C55 C56 1.352 . S
C56 C55 1.352 . S
C56 C57 1.384 . S
C56 H78 0.930 . S
C57 C52 1.407 1_455 S
C57 C56 1.384 . S
C57 H79 0.929 . S
C58 O68 1.241 . S
C58 O69 1.273 1_545 S
C59 O70 1.251 1_565 S
C59 O71 1.268 . S
O60 Nd40 2.500 . S
O60 C42 1.258 . S
O61 Nd40 2.492 . S
O61 C42 1.239 . S
O62 Nd40 2.487 . S
O62 C49 1.241 . S
O63 Nd40 2.682 1_545 S
O63 Nd41 2.414 . S
O63 C49 1.273 1_545 S
O64 Nd40 2.410 1_545 S
O64 C50 1.251 . S
O65 Nd41 2.424 . S
O65 C50 1.268 . S
O66 Nd41 2.500 . S
O66 C51 1.258 . S
O67 Nd41 2.492 . S
O67 C51 1.239 . S
O68 Nd41 2.487 . S
O68 C58 1.241 . S
O69 Nd40 2.414 . S
O69 Nd41 2.682 1_565 S
O69 C58 1.273 1_565 S
O70 Nd41 2.410 . S
O70 C59 1.251 1_545 S
O71 Nd40 2.424 . S
O71 C59 1.268 . S
H72 C44 0.930 . S
H73 C45 0.929 . S
H74 C47 0.930 . S
H75 C48 0.929 . S
H76 C53 0.930 . S
H77 C54 0.929 . S
H78 C56 0.930 . S
H79 C57 0.929 . S
Nd80 C82 2.839 . S
Nd80 O100 2.500 1_655 S
Nd80 O101 2.492 . S
Nd80 O102 2.487 . S
Nd80 O103 2.682 . S
Nd80 O104 2.410 . S
Nd80 O109 2.414 1_565 S
Nd80 O111 2.424 . S
Nd81 C91 2.836 . S
Nd81 O103 2.414 1_545 S
Nd81 O105 2.424 . S
Nd81 O106 2.500 1_545 S
Nd81 O107 2.492 . S
Nd81 O108 2.487 1_655 S
Nd81 O109 2.682 . S
Nd81 O110 2.410 1_545 S
C82 Nd80 2.839 . S
C82 C83 1.495 1_655 S
C82 O100 1.258 1_655 S
C82 O101 1.241 . S
C83 C82 1.495 1_455 S
C83 C84 1.366 . S
C83 C88 1.407 1_455 S
C84 C83 1.366 . S
C84 C85 1.392 . S
C84 H112 0.930 . S
C85 C84 1.392 . S
C85 C86 1.398 . S
C85 H113 0.929 . S
C86 C85 1.398 . S
C86 C87 1.352 . S
C87 C86 1.352 . S
C87 C88 1.384 1_455 S
C87 H114 0.930 1_455 S
C88 C83 1.407 1_655 S
C88 C87 1.384 1_655 S
C88 H115 0.929 . S
C89 O102 1.241 . S
C89 O103 1.273 . S
C90 O104 1.251 . S
C90 O105 1.268 1_565 S
C91 Nd81 2.836 . S
C91 C92 1.498 . S
C91 O106 1.258 1_545 S
C91 O107 1.239 . S
C92 C91 1.498 . S
C92 C93 1.366 1_545 S
C92 C97 1.407 . S
C93 C92 1.366 1_565 S
C93 C94 1.392 1_565 S
C93 H116 0.930 . S
C94 C93 1.392 1_545 S
C94 C95 1.398 . S
C94 H117 0.929 1_545 S
C95 C94 1.398 . S
C95 C96 1.352 . S
C96 C95 1.352 . S
C96 C97 1.384 . S
C96 H118 0.930 . S
C97 C92 1.407 . S
C97 C96 1.384 . S
C97 H119 0.929 . S
C98 O108 1.241 . S
C98 O109 1.273 1_455 S
C99 O110 1.251 . S
C99 O111 1.268 . S
O100 Nd80 2.500 1_455 S
O100 C82 1.258 1_455 S
O101 Nd80 2.492 . S
O101 C82 1.241 . S
O102 Nd80 2.487 . S
O102 C89 1.241 . S
O103 Nd80 2.682 . S
O103 Nd81 2.414 1_565 S
O103 C89 1.273 . S
O104 Nd80 2.410 . S
O104 C90 1.251 . S
O105 Nd81 2.424 . S
O105 C90 1.268 1_545 S
O106 Nd81 2.500 1_565 S
O106 C91 1.258 1_565 S
O107 Nd81 2.492 . S
O107 C91 1.239 . S
O108 Nd81 2.487 1_455 S
O108 C98 1.241 . S
O109 Nd80 2.414 1_545 S
O109 Nd81 2.682 . S
O109 C98 1.273 1_655 S
O110 Nd81 2.410 1_565 S
O110 C99 1.251 . S
O111 Nd80 2.424 . S
O111 C99 1.268 . S
H112 C84 0.930 . S
H113 C85 0.929 . S
H114 C87 0.930 1_655 S
H115 C88 0.929 . S
H116 C93 0.930 . S
H117 C94 0.929 1_565 S
H118 C96 0.930 . S
H119 C97 0.929 . S
H120 C126 0.930 . S
H121 C130 0.930 . S
H122 C135 0.929 . S
H123 C133 0.929 . S
H124 C128 0.929 . S
H125 C134 0.929 . S
C126 H120 0.930 . S
C126 C127 1.365 . S
C126 C134 1.378 1_565 S
C127 C126 1.365 . S
C127 C135 1.432 1_465 S
C128 H124 0.929 . S
C128 C130 1.378 . S
C128 C132 1.351 . S
C129 C132 1.457 1_455 S
C129 C134 1.351 . S
C129 N137 1.429 1_455 S
C130 H121 0.930 . S
C130 C128 1.378 . S
C130 C131 1.366 . S
C131 C130 1.366 . S
C131 C133 1.433 1_655 S
C132 C128 1.351 . S
C132 C129 1.457 1_655 S
C132 N136 1.428 1_655 S
C133 H123 0.929 . S
C133 C131 1.433 1_455 S
C133 N136 1.384 . S
C134 H125 0.929 . S
C134 C126 1.378 1_545 S
C134 C129 1.351 . S
C135 H122 0.929 . S
C135 C127 1.432 1_645 S
C135 N137 1.384 . S
N136 C132 1.428 1_455 S
N136 C133 1.384 . S
N137 C129 1.429 1_655 S
N137 C135 1.384 . S
H138 C144 0.930 . S
H139 C148 0.930 1_655 S
H140 C153 0.929 . S
H141 C151 0.929 . S
H142 C146 0.929 . S
H143 C152 0.929 . S
C144 H138 0.930 . S
C144 C145 1.367 . S
C144 C152 1.378 . S
C145 C144 1.367 . S
C145 C153 1.433 1_545 S
C146 H142 0.929 . S
C146 C148 1.378 . S
C146 C150 1.350 1_565 S
C147 C150 1.463 . S
C147 C152 1.350 . S
C147 N155 1.427 1_545 S
C148 H139 0.930 1_455 S
C148 C146 1.378 . S
C148 C149 1.367 1_565 S
C149 C148 1.367 1_545 S
C149 C151 1.433 . S
C150 C146 1.350 1_545 S
C150 C147 1.463 . S
C150 N154 1.427 . S
C151 H141 0.929 . S
C151 C149 1.433 . S
C151 N154 1.384 . S
C152 H143 0.929 . S
C152 C144 1.378 . S
C152 C147 1.350 . S
C153 H140 0.929 . S
C153 C145 1.433 1_565 S
C153 N155 1.384 . S
N154 C150 1.427 . S
N154 C151 1.384 . S
N155 C147 1.427 1_565 S
N155 C153 1.384 . S
H156 C162 0.930 . S
H157 C166 0.930 . S
H158 C171 0.929 . S
H159 C169 0.929 . S
H160 C164 0.929 . S
H161 C170 0.929 . S
C162 H156 0.930 . S
C162 C163 1.367 . S
C162 C170 1.378 . S
C163 C162 1.367 . S
C163 C171 1.433 . S
C164 H160 0.929 . S
C164 C166 1.378 . S
C164 C168 1.350 . S
C165 C168 1.463 . S
C165 C170 1.350 . S
C165 N173 1.427 . S
C166 H157 0.930 . S
C166 C164 1.378 . S
C166 C167 1.367 . S
C167 C166 1.367 . S
C167 C169 1.433 . S
C168 C164 1.350 . S
C168 C165 1.463 . S
C168 N172 1.427 . S
C169 H159 0.929 . S
C169 C167 1.433 . S
C169 N172 1.384 . S
C170 H161 0.929 . S
C170 C162 1.378 . S
C170 C165 1.350 . S
C171 H158 0.929 . S
C171 C163 1.433 . S
C171 N173 1.384 . S
N172 C168 1.427 . S
N172 C169 1.384 . S
N173 C165 1.427 . S
N173 C171 1.384 . S
H174 C180 0.930 1_565 S
H175 C184 0.930 . S
H176 C189 0.929 . S
H177 C187 0.929 . S
H178 C182 0.929 . S
H179 C188 0.929 . S
C180 H174 0.930 1_545 S
C180 C181 1.367 . S
C180 C188 1.378 1_545 S
C181 C180 1.367 . S
C181 C189 1.433 . S
C182 H178 0.929 . S
C182 C184 1.378 1_556 S
C182 C186 1.350 . S
C183 C186 1.463 . S
C183 C188 1.350 1_545 S
C183 N191 1.427 . S
C184 H175 0.930 . S
C184 C182 1.378 1_554 S
C184 C185 1.367 1_545 S
C185 C184 1.367 1_565 S
C185 C187 1.433 . S
C186 C182 1.350 . S
C186 C183 1.463 . S
C186 N190 1.427 1_545 S
C187 H177 0.929 . S
C187 C185 1.433 . S
C187 N190 1.384 1_554 S
C188 H179 0.929 . S
C188 C180 1.378 1_565 S
C188 C183 1.350 1_565 S
C189 H176 0.929 . S
C189 C181 1.433 . S
C189 N191 1.384 . S
N190 C186 1.427 1_565 S
N190 C187 1.384 1_556 S
N191 C183 1.427 . S
N191 C189 1.384 . S
H192 C198 0.930 . S
H193 C202 0.930 . S
H194 C207 0.929 . S
H195 C205 0.929 . S
H196 C200 0.929 . S
H197 C206 0.929 . S
C198 H192 0.930 . S
C198 C199 1.367 . S
C198 C206 1.378 . S
C199 C198 1.367 . S
C199 C207 1.433 . S
C200 H196 0.929 . S
C200 C202 1.378 . S
C200 C204 1.350 . S
C201 C204 1.463 . S
C201 C206 1.350 . S
C201 N209 1.427 . S
C202 H193 0.930 . S
C202 C200 1.378 . S
C202 C203 1.367 . S
C203 C202 1.367 . S
C203 C205 1.433 . S
C204 C200 1.350 . S
C204 C201 1.463 . S
C204 N208 1.427 . S
C205 H195 0.929 . S
C205 C203 1.433 . S
C205 N208 1.384 . S
C206 H197 0.929 . S
C206 C198 1.378 . S
C206 C201 1.350 . S
C207 H194 0.929 . S
C207 C199 1.433 . S
C207 N209 1.384 . S
N208 C204 1.427 . S
N208 C205 1.384 . S
N209 C201 1.427 . S
N209 C207 1.384 . S
H210 C216 0.930 . S
H211 C220 0.930 . S
H212 C225 0.929 . S
H213 C223 0.929 . S
H214 C218 0.929 . S
H215 C224 0.929 . S
C216 H210 0.930 . S
C216 C217 1.367 . S
C216 C224 1.378 . S
C217 C216 1.367 . S
C217 C225 1.433 1_565 S
C218 H214 0.929 . S
C218 C220 1.378 . S
C218 C222 1.350 1_545 S
C219 C222 1.463 . S
C219 C224 1.350 . S
C219 N227 1.427 1_565 S
C220 H211 0.930 . S
C220 C218 1.378 . S
C220 C221 1.367 1_545 S
C221 C220 1.367 1_565 S
C221 C223 1.433 . S
C222 C218 1.350 1_565 S
C222 C219 1.463 . S
C222 N226 1.427 . S
C223 H213 0.929 . S
C223 C221 1.433 . S
C223 N226 1.384 . S
C224 H215 0.929 . S
C224 C216 1.378 . S
C224 C219 1.350 . S
C225 H212 0.929 . S
C225 C217 1.433 1_545 S
C225 N227 1.384 . S
N226 C222 1.427 . S
N226 C223 1.384 . S
N227 C219 1.427 1_545 S
N227 C225 1.384 . S
H228 C234 0.930 . S
H229 C238 0.930 . S
H230 C243 0.929 . S
H231 C241 0.929 . S
H232 C236 0.929 . S
H233 C242 0.929 . S
C234 H228 0.930 . S
C234 C235 1.367 . S
C234 C242 1.378 . S
C235 C234 1.367 . S
C235 C243 1.433 . S
C236 H232 0.929 . S
C236 C238 1.378 . S
C236 C240 1.350 . S
C237 C240 1.463 1_556 S
C237 C242 1.350 . S
C237 N245 1.427 . S
C238 H229 0.930 . S
C238 C236 1.378 . S
C238 C239 1.367 . S
C239 C238 1.367 . S
C239 C241 1.433 . S
C240 C236 1.350 . S
C240 C237 1.463 1_554 S
C240 N244 1.427 . S
C241 H231 0.929 . S
C241 C239 1.433 . S
C241 N244 1.384 . S
C242 H233 0.929 . S
C242 C234 1.378 . S
C242 C237 1.350 . S
C243 H230 0.929 . S
C243 C235 1.433 . S
C243 N245 1.384 . S
N244 C240 1.427 . S
N244 C241 1.384 . S
N245 C237 1.427 . S
N245 C243 1.384 . S
H246 C252 0.930 . S
H247 C256 0.930 . S
H248 C261 0.929 . S
H249 C259 0.929 . S
H250 C254 0.929 . S
H251 C260 0.929 . S
C252 H246 0.930 . S
C252 C253 1.367 . S
C252 C260 1.378 . S
C253 C252 1.367 . S
C253 C261 1.433 . S
C254 H250 0.929 . S
C254 C256 1.378 . S
C254 C258 1.350 . S
C255 C258 1.463 . S
C255 C260 1.350 . S
C255 N263 1.427 . S
C256 H247 0.930 . S
C256 C254 1.378 . S
C256 C257 1.367 . S
C257 C256 1.367 . S
C257 C259 1.433 . S
C258 C254 1.350 . S
C258 C255 1.463 . S
C258 N262 1.427 . S
C259 H249 0.929 . S
C259 C257 1.433 . S
C259 N262 1.384 . S
C260 H251 0.929 . S
C260 C252 1.378 . S
C260 C255 1.350 . S
C261 H248 0.929 . S
C261 C253 1.433 . S
C261 N263 1.384 . S
N262 C258 1.427 . S
N262 C259 1.384 . S
N263 C255 1.427 . S
N263 C261 1.384 . S
H264 C270 0.930 . S
H265 C274 0.930 . S
H266 C279 0.929 . S
H267 C277 0.929 . S
H268 C272 0.929 . S
H269 C278 0.929 . S
C270 H264 0.930 . S
C270 C271 1.367 . S
C270 C278 1.378 . S
C271 C270 1.367 . S
C271 C279 1.433 . S
C272 H268 0.929 . S
C272 C274 1.378 . S
C272 C276 1.350 . S
C273 C276 1.463 . S
C273 C278 1.350 . S
C273 N281 1.427 . S
C274 H265 0.930 . S
C274 C272 1.378 . S
C274 C275 1.367 . S
C275 C274 1.367 . S
C275 C277 1.433 . S
C276 C272 1.350 . S
C276 C273 1.463 . S
C276 N280 1.427 . S
C277 H267 0.929 . S
C277 C275 1.433 . S
C277 N280 1.384 . S
C278 H269 0.929 . S
C278 C270 1.378 . S
C278 C273 1.350 . S
C279 H266 0.929 . S
C279 C271 1.433 . S
C279 N281 1.384 . S
N280 C276 1.427 . S
N280 C277 1.384 . S
N281 C273 1.427 . S
N281 C279 1.384 . S
C127 C18 1.525 1_455 S
C131 C9 1.524 1_655 S
C145 C49 1.635 1_545 S
C149 C58 1.635 1_455 S
C163 C98 1.315 . S
C167 C89 1.315 . S
C181 C95 0.998 . S
C185 C6 1.019 . S
C199 C50 2.026 . S
C203 C15 1.984 . S
C217 C90 2.470 . S
C221 C59 2.473 . S
C235 C99 2.364 . S
C239 C10 2.313 . S
C253 C19 1.670 . S
C257 C46 1.592 . S
C271 C86 0.972 . S
C275 C55 0.981 . S
