# Generated by pormake.
# Topology pcl, (4)-cn, num edge types: 1
# Building blocks:
#     Node 0, Type 0, BuildingBlock: GALJAG_clean_sbu_0, # of connection points: 4
#     Node 1, Type 0, BuildingBlock: GALJAG_clean_sbu_0, # of connection points: 4
#     Node 2, Type 0, BuildingBlock: GALJAG_clean_sbu_0, # of connection points: 4
#     Node 3, Type 0, BuildingBlock: GALJAG_clean_sbu_0, # of connection points: 4
#     Node 4, Type 0, BuildingBlock: GALJAG_clean_sbu_0, # of connection points: 4
#     Node 5, Type 0, BuildingBlock: GALJAG_clean_sbu_0, # of connection points: 4
#     Node 6, Type 0, BuildingBlock: GALJAG_clean_sbu_0, # of connection points: 4
#     Node 7, Type 0, BuildingBlock: GALJAG_clean_sbu_0, # of connection points: 4
#     Node 8, Type 0, BuildingBlock: GALJAG_clean_sbu_0, # of connection points: 4
#     Node 9, Type 0, BuildingBlock: GALJAG_clean_sbu_0, # of connection points: 4
#     Node 10, Type 0, BuildingBlock: GALJAG_clean_sbu_0, # of connection points: 4
#     Node 11, Type 0, BuildingBlock: GALJAG_clean_sbu_0, # of connection points: 4
#     Node 12, Type 0, BuildingBlock: GALJAG_clean_sbu_0, # of connection points: 4
#     Node 13, Type 0, BuildingBlock: GALJAG_clean_sbu_0, # of connection points: 4
#     Node 14, Type 0, BuildingBlock: GALJAG_clean_sbu_0, # of connection points: 4
#     Node 15, Type 0, BuildingBlock: GALJAG_clean_sbu_0, # of connection points: 4
#     Edge 16, Type (0, 0), BuildingBlock: AJUNOK_clean_linker_0, # of connection points: 2
#     Edge 17, Type (0, 0), BuildingBlock: AJUNOK_clean_linker_0, # of connection points: 2
#     Edge 18, Type (0, 0), BuildingBlock: AJUNOK_clean_linker_0, # of connection points: 2
#     Edge 19, Type (0, 0), BuildingBlock: AJUNOK_clean_linker_0, # of connection points: 2
#     Edge 20, Type (0, 0), BuildingBlock: AJUNOK_clean_linker_0, # of connection points: 2
#     Edge 21, Type (0, 0), BuildingBlock: AJUNOK_clean_linker_0, # of connection points: 2
#     Edge 22, Type (0, 0), BuildingBlock: AJUNOK_clean_linker_0, # of connection points: 2
#     Edge 23, Type (0, 0), BuildingBlock: AJUNOK_clean_linker_0, # of connection points: 2
#     Edge 24, Type (0, 0), BuildingBlock: AJUNOK_clean_linker_0, # of connection points: 2
#     Edge 25, Type (0, 0), BuildingBlock: AJUNOK_clean_linker_0, # of connection points: 2
#     Edge 26, Type (0, 0), BuildingBlock: AJUNOK_clean_linker_0, # of connection points: 2
#     Edge 27, Type (0, 0), BuildingBlock: AJUNOK_clean_linker_0, # of connection points: 2
#     Edge 28, Type (0, 0), BuildingBlock: AJUNOK_clean_linker_0, # of connection points: 2
#     Edge 29, Type (0, 0), BuildingBlock: AJUNOK_clean_linker_0, # of connection points: 2
#     Edge 30, Type (0, 0), BuildingBlock: AJUNOK_clean_linker_0, # of connection points: 2
#     Edge 31, Type (0, 0), BuildingBlock: AJUNOK_clean_linker_0, # of connection points: 2
#     Edge 32, Type (0, 0), BuildingBlock: AJUNOK_clean_linker_0, # of connection points: 2
#     Edge 33, Type (0, 0), BuildingBlock: AJUNOK_clean_linker_0, # of connection points: 2
#     Edge 34, Type (0, 0), BuildingBlock: AJUNOK_clean_linker_0, # of connection points: 2
#     Edge 35, Type (0, 0), BuildingBlock: AJUNOK_clean_linker_0, # of connection points: 2
#     Edge 36, Type (0, 0), BuildingBlock: AJUNOK_clean_linker_0, # of connection points: 2
#     Edge 37, Type (0, 0), BuildingBlock: AJUNOK_clean_linker_0, # of connection points: 2
#     Edge 38, Type (0, 0), BuildingBlock: AJUNOK_clean_linker_0, # of connection points: 2
#     Edge 39, Type (0, 0), BuildingBlock: AJUNOK_clean_linker_0, # of connection points: 2
#     Edge 40, Type (0, 0), BuildingBlock: AJUNOK_clean_linker_0, # of connection points: 2
#     Edge 41, Type (0, 0), BuildingBlock: AJUNOK_clean_linker_0, # of connection points: 2
#     Edge 42, Type (0, 0), BuildingBlock: AJUNOK_clean_linker_0, # of connection points: 2
#     Edge 43, Type (0, 0), BuildingBlock: AJUNOK_clean_linker_0, # of connection points: 2
#     Edge 44, Type (0, 0), BuildingBlock: AJUNOK_clean_linker_0, # of connection points: 2
#     Edge 45, Type (0, 0), BuildingBlock: AJUNOK_clean_linker_0, # of connection points: 2
#     Edge 46, Type (0, 0), BuildingBlock: AJUNOK_clean_linker_0, # of connection points: 2
#     Edge 47, Type (0, 0), BuildingBlock: AJUNOK_clean_linker_0, # of connection points: 2
# Relax obj value: 0.122
# Max RMSD: 0.108
# Mean RMSD: 0.092
data_MOF--net-pcl--node1-GALJAG_clean_sbu_0--edge1-AJUNOK_clean_linker_0
_symmetry_space_group_name_H-M    P1
_symmetry_Int_Tables_number       1
_symmetry_cell_setting            triclinic
loop_
_symmetry_equiv_pos_as_xyz
'x, y, z'
_cell_length_a     39.200769
_cell_length_b     29.834733
_cell_length_c     32.517646
_cell_angle_alpha  90.154517
_cell_angle_beta   89.929679
_cell_angle_gamma 90.074217
loop_
_atom_site_label
_atom_site_type_symbol
_atom_site_fract_x
_atom_site_fract_y
_atom_site_fract_z
_atom_type_partial_charge
In0 In 0.13225 0.3299 0.08336 0.0
O1 O 0.15533 0.27168 0.0463 0.0
O2 O 0.18716 0.32662 0.0624 0.0
C3 C 0.06452 0.31253 0.0848 0.0
C4 C 0.15215 0.32042 0.16204 0.0
C5 C 0.12888 0.40931 0.0447 0.0
O6 O 0.08437 0.29199 0.06054 0.0
O7 O 0.07914 0.34012 0.10828 0.0
O8 O 0.13339 0.40595 0.08294 0.0
O9 O 0.12605 0.37245 0.0259 0.0
C10 C 0.18466 0.28937 0.0444 0.0
O11 O 0.15566 0.35626 0.14203 0.0
O12 O 0.13868 0.28856 0.1421 0.0
In13 In 0.87235 0.66687 0.57164 0.0
O14 O 0.847 0.72701 0.54013 0.0
O15 O 0.81731 0.66876 0.55124 0.0
C16 C 0.93863 0.69247 0.56719 0.0
C17 C 0.85271 0.67015 0.65071 0.0
C18 C 0.8767 0.58635 0.5344 0.0
O19 O 0.9188 0.69464 0.53678 0.0
O20 O 0.92471 0.67916 0.59986 0.0
O21 O 0.87643 0.59052 0.57301 0.0
O22 O 0.87538 0.62276 0.51498 0.0
C23 C 0.81841 0.7077 0.53659 0.0
O24 O 0.85354 0.63431 0.62999 0.0
O25 O 0.862 0.70489 0.63142 0.0
In26 In 0.13176 0.65491 0.91367 0.0
O27 O 0.15368 0.62613 0.85493 0.0
O28 O 0.13935 0.6948 0.85444 0.0
C29 C 0.12987 0.57823 0.95689 0.0
C30 C 0.18253 0.69931 0.95216 0.0
C31 C 0.06379 0.66983 0.90944 0.0
O32 O 0.1368 0.57937 0.91904 0.0
O33 O 0.12399 0.61594 0.973 0.0
O34 O 0.08311 0.69441 0.931 0.0
O35 O 0.07901 0.63929 0.88995 0.0
C36 C 0.15134 0.6619 0.83459 0.0
O37 O 0.15226 0.71389 0.95153 0.0
O38 O 0.18698 0.66313 0.93284 0.0
In39 In 0.86906 0.33144 0.41843 0.0
O40 O 0.84414 0.35297 0.35902 0.0
O41 O 0.8664 0.28815 0.36025 0.0
C42 C 0.86991 0.41204 0.45533 0.0
C43 C 0.8195 0.28823 0.46002 0.0
C44 C 0.93753 0.32285 0.41798 0.0
O45 O 0.86372 0.40687 0.41757 0.0
O46 O 0.87468 0.37615 0.475 0.0
O47 O 0.91884 0.2949 0.43669 0.0
O48 O 0.92148 0.35259 0.39868 0.0
C49 C 0.85078 0.31744 0.33958 0.0
O50 O 0.84994 0.27424 0.45932 0.0
O51 O 0.81441 0.32336 0.43954 0.0
In52 In 0.84734 0.65269 0.90844 0.0
O53 O 0.82519 0.70803 0.94946 0.0
O54 O 0.79087 0.66318 0.92005 0.0
C55 C 0.91548 0.66644 0.90947 0.0
C56 C 0.84492 0.57412 0.94893 0.0
C57 C 0.83643 0.66425 0.82744 0.0
O58 O 0.89522 0.69286 0.9277 0.0
O59 O 0.9012 0.63399 0.89155 0.0
O60 O 0.83056 0.62787 0.84583 0.0
O61 O 0.84681 0.69568 0.85037 0.0
C62 C 0.79457 0.69598 0.9441 0.0
O63 O 0.83892 0.5774 0.91097 0.0
O64 O 0.85195 0.61068 0.96661 0.0
In65 In 0.15462 0.33196 0.42035 0.0
O66 O 0.16748 0.40593 0.42567 0.0
O67 O 0.14893 0.37286 0.47909 0.0
C68 C 0.16535 0.32109 0.33909 0.0
C69 C 0.20503 0.28526 0.45665 0.0
C70 C 0.08601 0.32568 0.42182 0.0
O71 O 0.17288 0.35654 0.35826 0.0
O72 O 0.15311 0.29031 0.36126 0.0
O73 O 0.10455 0.29451 0.4358 0.0
O74 O 0.10227 0.35835 0.40711 0.0
C75 C 0.15905 0.40902 0.46307 0.0
O76 O 0.174 0.2742 0.46015 0.0
O77 O 0.21029 0.31887 0.43416 0.0
In78 In 0.84832 0.32927 0.08172 0.0
O79 O 0.84093 0.40484 0.07714 0.0
O80 O 0.85235 0.36878 0.02236 0.0
C81 C 0.83758 0.3167 0.16251 0.0
C82 C 0.79487 0.28597 0.04795 0.0
C83 C 0.91637 0.3156 0.08092 0.0
O84 O 0.83181 0.35353 0.14475 0.0
O85 O 0.84765 0.2856 0.13905 0.0
O86 O 0.8963 0.29027 0.06108 0.0
O87 O 0.90197 0.34704 0.10015 0.0
C88 C 0.84594 0.40617 0.0388 0.0
O89 O 0.82526 0.27263 0.04323 0.0
O90 O 0.79172 0.32017 0.07045 0.0
In91 In 0.15208 0.66605 0.57613 0.0
O92 O 0.14276 0.59049 0.57868 0.0
O93 O 0.16545 0.61741 0.52484 0.0
C94 C 0.16449 0.66678 0.65741 0.0
C95 C 0.20338 0.71344 0.54187 0.0
C96 C 0.08606 0.69168 0.56608 0.0
O97 O 0.16416 0.6312 0.63628 0.0
O98 O 0.15949 0.70225 0.63716 0.0
O99 O 0.10265 0.69836 0.59858 0.0
O100 O 0.10307 0.67337 0.53781 0.0
C101 C 0.15502 0.583 0.54342 0.0
O102 O 0.1724 0.72343 0.53669 0.0
O103 O 0.2083 0.68072 0.5655 0.0
In104 In 0.63327 0.82537 0.07345 0.0
O105 O 0.65473 0.85026 0.13395 0.0
O106 O 0.6324 0.78546 0.13363 0.0
C107 C 0.63964 0.90379 0.03387 0.0
C108 C 0.68273 0.7787 0.03447 0.0
C109 C 0.5646 0.81859 0.06755 0.0
O110 O 0.64156 0.90063 0.0725 0.0
O111 O 0.63485 0.86716 0.01521 0.0
O112 O 0.58368 0.78521 0.06072 0.0
O113 O 0.58016 0.85354 0.07846 0.0
C114 C 0.64712 0.81576 0.15423 0.0
O115 O 0.65144 0.76979 0.02976 0.0
O116 O 0.68871 0.80996 0.05955 0.0
In117 In 0.37029 0.16009 0.58068 0.0
O118 O 0.34768 0.21779 0.54307 0.0
O119 O 0.31486 0.16538 0.56298 0.0
C120 C 0.43818 0.17504 0.58424 0.0
C121 C 0.3524 0.17154 0.6598 0.0
C122 C 0.37102 0.08244 0.5387 0.0
O123 O 0.41922 0.19741 0.56044 0.0
O124 O 0.42274 0.14621 0.6055 0.0
O125 O 0.36489 0.08438 0.57676 0.0
O126 O 0.37714 0.11971 0.522 0.0
C127 C 0.31781 0.20156 0.54348 0.0
O128 O 0.34952 0.13459 0.64111 0.0
O129 O 0.36398 0.20329 0.63822 0.0
In130 In 0.63342 0.15798 0.9179 0.0
O131 O 0.65857 0.13682 0.85859 0.0
O132 O 0.63408 0.20018 0.85882 0.0
C133 C 0.63816 0.07735 0.95397 0.0
C134 C 0.68241 0.20298 0.95918 0.0
C135 C 0.56458 0.16417 0.92022 0.0
O136 O 0.64106 0.08287 0.9157 0.0
O137 O 0.63297 0.11284 0.97431 0.0
O138 O 0.58332 0.19538 0.93391 0.0
O139 O 0.58068 0.13182 0.90467 0.0
C140 C 0.65098 0.17151 0.83871 0.0
O141 O 0.65129 0.21378 0.96181 0.0
O142 O 0.68833 0.17056 0.9354 0.0
In143 In 0.36867 0.83307 0.41278 0.0
O144 O 0.34679 0.77917 0.45556 0.0
O145 O 0.3128 0.82527 0.42745 0.0
C146 C 0.43679 0.82156 0.41395 0.0
C147 C 0.35386 0.81897 0.33304 0.0
C148 C 0.36809 0.91258 0.45157 0.0
O149 O 0.41697 0.79323 0.43039 0.0
O150 O 0.42198 0.85401 0.39693 0.0
O151 O 0.36346 0.90872 0.41334 0.0
O152 O 0.37257 0.87609 0.47037 0.0
C153 C 0.31637 0.79261 0.45149 0.0
O154 O 0.34771 0.85529 0.3515 0.0
O155 O 0.36718 0.78896 0.35514 0.0
In156 In 0.34707 0.15939 0.91821 0.0
O157 O 0.33423 0.08516 0.91971 0.0
O158 O 0.34662 0.11732 0.97628 0.0
C159 C 0.33852 0.17242 0.83693 0.0
C160 C 0.29688 0.20682 0.9547 0.0
C161 C 0.4159 0.16347 0.92326 0.0
O162 O 0.32992 0.13677 0.85495 0.0
O163 O 0.35058 0.20233 0.86029 0.0
O164 O 0.39743 0.19606 0.93451 0.0
O165 O 0.39952 0.13027 0.90973 0.0
C166 C 0.33831 0.0815 0.95808 0.0
O167 O 0.32808 0.21595 0.96007 0.0
O168 O 0.29134 0.17494 0.93011 0.0
In169 In 0.65338 0.8325 0.41284 0.0
O170 O 0.66313 0.90768 0.41637 0.0
O171 O 0.65142 0.87313 0.47181 0.0
C172 C 0.66169 0.81863 0.33157 0.0
C173 C 0.70475 0.78746 0.44864 0.0
C174 C 0.58509 0.82331 0.41674 0.0
O175 O 0.66986 0.85488 0.34912 0.0
O176 O 0.65063 0.78866 0.35544 0.0
O177 O 0.60478 0.79338 0.43062 0.0
O178 O 0.60006 0.85689 0.40171 0.0
C179 C 0.6585 0.90994 0.45478 0.0
O180 O 0.67387 0.77627 0.45325 0.0
O181 O 0.70951 0.82029 0.42497 0.0
In182 In 0.34815 0.82795 0.07383 0.0
O183 O 0.33762 0.90256 0.07664 0.0
O184 O 0.34436 0.87289 0.01759 0.0
C185 C 0.3424 0.81582 0.15561 0.0
C186 C 0.29581 0.78284 0.03902 0.0
C187 C 0.41645 0.82085 0.06351 0.0
O188 O 0.33285 0.85095 0.13757 0.0
O189 O 0.3543 0.78592 0.13213 0.0
O190 O 0.39704 0.78726 0.05907 0.0
O191 O 0.40129 0.85657 0.07293 0.0
C192 C 0.33877 0.90812 0.03819 0.0
O193 O 0.3265 0.77548 0.0291 0.0
O194 O 0.29204 0.81138 0.06722 0.0
In195 In 0.65421 0.15928 0.58164 0.0
O196 O 0.66263 0.08401 0.58029 0.0
O197 O 0.6502 0.11592 0.52397 0.0
C198 C 0.66557 0.17312 0.66215 0.0
C199 C 0.70695 0.2034 0.54702 0.0
C200 C 0.58612 0.17205 0.58215 0.0
O201 O 0.673 0.13701 0.64396 0.0
O202 O 0.65324 0.20319 0.63929 0.0
O203 O 0.60555 0.19629 0.56041 0.0
O204 O 0.60109 0.14172 0.60201 0.0
C205 C 0.65723 0.07983 0.54226 0.0
O206 O 0.67637 0.21575 0.542 0.0
O207 O 0.71051 0.16984 0.56998 0.0
C208 C 0.00787 0.33233 0.11386 0.0
C209 C 0.02682 0.30804 0.0846 0.0
C210 C 0.9723 0.3334 0.11268 0.0
C211 C 0.9539 0.31003 0.08234 0.0
H212 H 0.0206 0.35172 0.13752 0.0
H213 H 0.95914 0.35339 0.13559 0.0
S214 S 0.99097 0.23908 -0.00016 0.0
N215 N 0.02445 0.25832 0.02522 0.0
N216 N 0.95712 0.26007 0.02327 0.0
C217 C 0.97229 0.28411 0.05372 0.0
C218 C 0.00883 0.28319 0.05478 0.0
C219 C 0.99466 0.70734 0.60057 0.0
C220 C 0.97589 0.69979 0.5644 0.0
C221 C 0.03037 0.70737 0.60021 0.0
C222 C 0.04874 0.69909 0.56377 0.0
H223 H 0.98166 0.71182 0.62971 0.0
H224 H 0.04358 0.71177 0.62919 0.0
S225 S 0.01168 0.68115 0.46007 0.0
N226 N 0.97824 0.68719 0.49052 0.0
N227 N 0.04549 0.68642 0.48996 0.0
C228 C 0.03033 0.6937 0.52697 0.0
C229 C 0.99386 0.6943 0.52725 0.0
C230 C 0.97215 0.64398 0.88221 0.0
C231 C 0.9531 0.67162 0.90873 0.0
C232 C 0.00775 0.64503 0.88197 0.0
C233 C 0.02607 0.67367 0.90834 0.0
H234 H 0.9595 0.62066 0.86166 0.0
H235 H 0.02097 0.62235 0.86134 0.0
S236 S 0.98849 0.7546 0.98244 0.0
N237 N 0.95514 0.73003 0.961 0.0
N238 N 0.02248 0.73187 0.96072 0.0
C239 C 0.00747 0.70262 0.93424 0.0
C240 C 0.97091 0.70163 0.93439 0.0
C241 C 0.0299 0.28552 0.43127 0.0
C242 C 0.04817 0.32503 0.42239 0.0
C243 C 0.99398 0.28476 0.43029 0.0
C244 C 0.97527 0.32342 0.42016 0.0
H245 H 0.0434 0.25489 0.43848 0.0
H246 H 0.98083 0.25362 0.43682 0.0
S247 S 0.01084 0.43647 0.39873 0.0
N248 N 0.04454 0.40452 0.40618 0.0
N249 N 0.97765 0.40298 0.40413 0.0
C250 C 0.99329 0.36331 0.41236 0.0
C251 C 0.02957 0.36415 0.41353 0.0
C252 C 0.47215 0.77871 0.06422 0.0
C253 C 0.45414 0.81926 0.05995 0.0
C254 C 0.50809 0.77818 0.06547 0.0
C255 C 0.52702 0.81819 0.06264 0.0
H256 H 0.45843 0.74746 0.06802 0.0
H257 H 0.52102 0.74653 0.07004 0.0
S258 S 0.4921 0.93218 0.04495 0.0
N259 N 0.45817 0.89964 0.04848 0.0
N260 N 0.52513 0.89866 0.05099 0.0
C261 C 0.50926 0.85851 0.05627 0.0
C262 C 0.47296 0.85903 0.05488 0.0
C263 C 0.53016 0.19798 0.55269 0.0
C264 C 0.54865 0.1777 0.5847 0.0
C265 C 0.49424 0.19887 0.55331 0.0
C266 C 0.47579 0.17963 0.58602 0.0
H267 H 0.54342 0.21167 0.52631 0.0
H268 H 0.48087 0.21314 0.52732 0.0
S269 S 0.51251 0.12887 0.68024 0.0
N270 N 0.54593 0.1425 0.65201 0.0
N271 N 0.47893 0.14429 0.65325 0.0
C272 C 0.49417 0.16168 0.61924 0.0
C273 C 0.53047 0.16068 0.61855 0.0
C274 C 0.50825 0.2036 0.93014 0.0
C275 C 0.52677 0.16394 0.92286 0.0
C276 C 0.47231 0.20338 0.93103 0.0
C277 C 0.45375 0.16346 0.92482 0.0
H278 H 0.52156 0.23511 0.9344 0.0
H279 H 0.45902 0.23476 0.93586 0.0
S280 S 0.49034 0.04984 0.90906 0.0
N281 N 0.52379 0.08323 0.91236 0.0
N282 N 0.45685 0.08278 0.91419 0.0
C283 C 0.47212 0.12344 0.91891 0.0
C284 C 0.50845 0.12369 0.91789 0.0
C285 C 0.49318 0.85595 0.4001 0.0
C286 C 0.4745 0.81928 0.41527 0.0
C287 C 0.52871 0.85653 0.40104 0.0
C288 C 0.54738 0.82042 0.41709 0.0
H289 H 0.48031 0.88493 0.38748 0.0
H290 H 0.54158 0.88585 0.38897 0.0
S291 S 0.51095 0.7157 0.46018 0.0
N292 N 0.47727 0.74545 0.44665 0.0
N293 N 0.54462 0.74644 0.44825 0.0
C294 C 0.52921 0.78324 0.4323 0.0
C295 C 0.49267 0.7827 0.43144 0.0
C296 C 0.14747 0.28217 0.23017 0.0
C297 C 0.16032 0.31768 0.20635 0.0
C298 C 0.15076 0.28231 0.27312 0.0
C299 C 0.16704 0.31795 0.29371 0.0
H300 H 0.13347 0.25502 0.21578 0.0
H301 H 0.13914 0.25526 0.29035 0.0
S302 S 0.20941 0.41564 0.24488 0.0
N303 N 0.19314 0.38697 0.2061 0.0
N304 N 0.19932 0.38722 0.28664 0.0
C305 C 0.18188 0.35218 0.27 0.0
C306 C 0.17851 0.35206 0.22635 0.0
C307 C 0.85311 0.70735 0.71972 0.0
C308 C 0.84395 0.67056 0.69495 0.0
C309 C 0.84896 0.70601 0.76255 0.0
C310 C 0.83538 0.6679 0.78207 0.0
H311 H 0.8649 0.73668 0.70619 0.0
H312 H 0.85778 0.73434 0.78055 0.0
S313 S 0.80287 0.5653 0.73035 0.0
N314 N 0.81744 0.59683 0.69256 0.0
N315 N 0.80949 0.59436 0.77286 0.0
C316 C 0.82415 0.63204 0.75735 0.0
C317 C 0.8285 0.63334 0.71384 0.0
C318 C 0.15323 0.70362 0.76808 0.0
C319 C 0.15936 0.66397 0.79014 0.0
C320 C 0.15671 0.70488 0.7252 0.0
C321 C 0.16629 0.66647 0.70282 0.0
H322 H 0.14454 0.73356 0.78381 0.0
H323 H 0.15042 0.7357 0.70941 0.0
S324 S 0.18928 0.55576 0.74641 0.0
N325 N 0.17858 0.58645 0.78671 0.0
N326 N 0.18487 0.58883 0.70617 0.0
C327 C 0.17429 0.6273 0.72468 0.0
C328 C 0.17089 0.62605 0.76834 0.0
C329 C 0.82469 0.3487 0.23155 0.0
C330 C 0.83646 0.31243 0.20781 0.0
C331 C 0.82803 0.3489 0.27434 0.0
C332 C 0.84339 0.31292 0.29515 0.0
H333 H 0.81388 0.37799 0.21691 0.0
H334 H 0.81961 0.37836 0.29103 0.0
S335 S 0.87513 0.20768 0.24768 0.0
N336 N 0.86151 0.23782 0.20849 0.0
N337 N 0.86791 0.23833 0.28914 0.0
C338 C 0.85354 0.27529 0.27208 0.0
C339 C 0.85003 0.27501 0.22835 0.0
C340 C 0.6734 0.84951 0.26189 0.0
C341 C 0.66152 0.8139 0.28625 0.0
C342 C 0.66955 0.84896 0.21914 0.0
C343 C 0.65361 0.8128 0.19897 0.0
H344 H 0.68491 0.87879 0.27598 0.0
H345 H 0.67839 0.87778 0.20195 0.0
S346 S 0.62048 0.70948 0.24826 0.0
N347 N 0.63504 0.74005 0.28685 0.0
N348 N 0.62777 0.73909 0.20632 0.0
C349 C 0.64292 0.77603 0.2227 0.0
C350 C 0.6469 0.77655 0.26638 0.0
C351 C 0.32703 0.13946 0.76795 0.0
C352 C 0.33794 0.1763 0.7916 0.0
C353 C 0.33059 0.13914 0.72518 0.0
C354 C 0.34508 0.17571 0.70426 0.0
H355 H 0.31676 0.10981 0.78263 0.0
H356 H 0.32282 0.10932 0.70855 0.0
S357 S 0.37451 0.28235 0.75142 0.0
N358 N 0.36145 0.25183 0.79071 0.0
N359 N 0.36803 0.25128 0.71006 0.0
C360 C 0.3544 0.21382 0.72723 0.0
C361 C 0.35085 0.21411 0.77096 0.0
C362 C 0.64283 0.20878 0.77056 0.0
C363 C 0.65918 0.17606 0.79453 0.0
C364 C 0.64667 0.20941 0.72766 0.0
C365 C 0.66692 0.17729 0.70737 0.0
H366 H 0.62576 0.2328 0.78475 0.0
H367 H 0.63227 0.23376 0.71018 0.0
S368 S 0.71937 0.08915 0.7567 0.0
N369 N 0.69959 0.11415 0.79526 0.0
N370 N 0.70659 0.11529 0.71481 0.0
C371 C 0.68518 0.14637 0.73125 0.0
C372 C 0.68135 0.14577 0.77481 0.0
C373 C 0.32833 0.84759 0.2243 0.0
C374 C 0.34214 0.81226 0.20096 0.0
C375 C 0.33117 0.8484 0.2671 0.0
C376 C 0.3479 0.81388 0.28839 0.0
H377 H 0.31604 0.87568 0.20937 0.0
H378 H 0.32092 0.87705 0.28349 0.0
S379 S 0.38607 0.71179 0.24202 0.0
N380 N 0.37132 0.74033 0.20242 0.0
N381 N 0.37663 0.74183 0.2832 0.0
C382 C 0.36045 0.77722 0.26569 0.0
C383 C 0.35758 0.77642 0.22189 0.0
C384 C 0.23554 0.21155 0.97519 0.0
C385 C 0.2688 0.22941 0.97712 0.0
C386 C 0.20857 0.23085 -0.00269 0.0
C387 C 0.21372 0.26897 0.022 0.0
H388 H 0.23027 0.18206 0.95675 0.0
H389 H 0.18347 0.21584 0.99484 0.0
S390 S 0.29585 0.32913 0.0372 0.0
N391 N 0.30531 0.28759 0.00557 0.0
N392 N 0.25469 0.32416 0.04691 0.0
C393 C 0.24682 0.28739 0.02402 0.0
C394 C 0.27433 0.26754 0.00165 0.0
C395 C 0.7932 0.7669 0.49176 0.0
C396 C 0.78888 0.72788 0.5153 0.0
C397 C 0.76592 0.78545 0.46986 0.0
C398 C 0.7332 0.76592 0.47094 0.0
H399 H 0.81793 0.78303 0.48983 0.0
H400 H 0.77053 0.81559 0.45219 0.0
S401 S 0.7083 0.66377 0.52852 0.0
N402 N 0.74925 0.67038 0.53867 0.0
N403 N 0.69799 0.70552 0.49776 0.0
C404 C 0.72846 0.72704 0.49456 0.0
C405 C 0.75629 0.70797 0.51667 0.0
C406 C 0.27182 0.72657 0.98974 0.0
C407 C 0.26642 0.76166 0.0179 0.0
C408 C 0.2445 0.70682 0.9686 0.0
C409 C 0.21075 0.7217 0.97445 0.0
H410 H 0.29733 0.71413 0.98398 0.0
H411 H 0.24998 0.67974 0.94735 0.0
S412 S 0.18285 0.81281 0.04462 0.0
N413 N 0.22462 0.81058 0.05055 0.0
N414 N 0.17344 0.77366 0.0105 0.0
C415 C 0.20497 0.75688 0.00239 0.0
C416 C 0.23275 0.77676 0.02422 0.0
C417 C 0.73086 0.26193 0.50027 0.0
C418 C 0.73628 0.22512 0.52629 0.0
C419 C 0.75799 0.28202 0.47912 0.0
C420 C 0.79162 0.266 0.48301 0.0
H421 H 0.70543 0.27526 0.49594 0.0
H422 H 0.75242 0.31023 0.45934 0.0
S423 S 0.81967 0.17097 0.548 0.0
N424 N 0.77806 0.17379 0.55536 0.0
N425 N 0.82893 0.21155 0.51543 0.0
C426 C 0.79749 0.22941 0.50915 0.0
C427 C 0.76987 0.209 0.53084 0.0
C428 C 0.7445 0.77003 0.01744 0.0
C429 C 0.71048 0.75637 0.01121 0.0
C430 C 0.7714 0.75077 0.99523 0.0
C431 C 0.76543 0.717 0.9659 0.0
H432 H 0.75051 0.79599 0.03964 0.0
H433 H 0.79712 0.76232 0.00136 0.0
S434 S 0.68097 0.66942 0.93758 0.0
N435 N 0.67226 0.70715 0.97329 0.0
N436 N 0.72277 0.6708 0.93154 0.0
C437 C 0.7315 0.70304 0.95923 0.0
C438 C 0.70407 0.72272 0.98188 0.0
C439 C 0.29369 0.26025 0.49715 0.0
C440 C 0.28859 0.22231 0.5219 0.0
C441 C 0.26655 0.27989 0.47582 0.0
C442 C 0.23319 0.26248 0.4785 0.0
H443 H 0.31887 0.27488 0.49406 0.0
H444 H 0.27181 0.30921 0.45727 0.0
S445 S 0.20619 0.16343 0.53914 0.0
N446 N 0.24753 0.16783 0.5478 0.0
N447 N 0.19661 0.20495 0.50779 0.0
C448 C 0.22771 0.22451 0.50309 0.0
C449 C 0.25537 0.20439 0.52476 0.0
C450 C 0.77089 0.22875 -0.00015 0.0
C451 C 0.76543 0.26477 0.02696 0.0
C452 C 0.74384 0.20931 0.97812 0.0
C453 C 0.71016 0.22503 0.9826 0.0
H454 H 0.79633 0.21562 0.99501 0.0
H455 H 0.7495 0.18169 0.95754 0.0
S456 S 0.68198 0.31813 0.05034 0.0
N457 N 0.7236 0.31519 0.05756 0.0
N458 N 0.67276 0.27844 0.01665 0.0
C459 C 0.70421 0.2608 0.00985 0.0
C460 C 0.73183 0.28069 0.03205 0.0
C461 C 0.26547 0.72105 0.5259 0.0
C462 C 0.23171 0.73563 0.5197 0.0
C463 C 0.29268 0.7394 0.50357 0.0
C464 C 0.28718 0.77307 0.47418 0.0
H465 H 0.27099 0.69489 0.54794 0.0
H466 H 0.31819 0.72708 0.50943 0.0
S467 S 0.2036 0.82321 0.44641 0.0
N468 N 0.19433 0.78596 0.48215 0.0
N469 N 0.24533 0.8205 0.44018 0.0
C470 C 0.25355 0.78819 0.46784 0.0
C471 C 0.22587 0.7695 0.49061 0.0
C472 C 0.13095 0.49482 0.95907 0.0
C473 C 0.12878 0.53589 0.98023 0.0
C474 C 0.13043 0.45405 0.9802 0.0
C475 C 0.12805 0.45284 0.02331 0.0
H476 H 0.13309 0.49404 0.92586 0.0
H477 H 0.13239 0.4233 0.96257 0.0
S478 S 0.12094 0.55098 0.09318 0.0
N479 N 0.12343 0.57289 0.04671 0.0
N480 N 0.12276 0.49617 0.08651 0.0
C481 C 0.12558 0.49363 0.0449 0.0
C482 C 0.12585 0.53519 0.02333 0.0
C483 C 0.87471 0.50274 0.5369 0.0
C484 C 0.8766 0.54229 0.51356 0.0
C485 C 0.87271 0.46067 0.51782 0.0
C486 C 0.87233 0.4567 0.47474 0.0
H487 H 0.87435 0.50422 0.57019 0.0
H488 H 0.87103 0.43113 0.53702 0.0
S489 S 0.87896 0.5498 0.39962 0.0
N490 N 0.87957 0.57466 0.445 0.0
N491 N 0.87564 0.49568 0.40921 0.0
C492 C 0.87485 0.49591 0.45102 0.0
C493 C 0.87706 0.53869 0.47042 0.0
C494 C 0.84597 0.48976 0.03587 0.0
C495 C 0.84486 0.44836 0.01514 0.0
C496 C 0.84591 0.53025 0.01418 0.0
C497 C 0.84432 0.53085 0.97097 0.0
H498 H 0.84737 0.49096 0.06913 0.0
H499 H 0.84711 0.56129 0.03147 0.0
S500 S 0.8398 0.43151 0.90217 0.0
N501 N 0.84143 0.41036 0.94898 0.0
N502 N 0.84093 0.48644 0.90821 0.0
C503 C 0.84266 0.48968 0.94986 0.0
C504 C 0.84305 0.44844 0.97195 0.0
C505 C 0.1703 0.49119 0.46501 0.0
C506 C 0.15932 0.45226 0.4854 0.0
C507 C 0.16911 0.53311 0.48428 0.0
C508 C 0.15683 0.53784 0.52472 0.0
H509 H 0.17955 0.48947 0.43363 0.0
H510 H 0.17757 0.5621 0.46705 0.0
S511 S 0.12626 0.4461 0.5923 0.0
N512 N 0.13668 0.42083 0.54884 0.0
N513 N 0.13442 0.49981 0.5851 0.0
C514 C 0.14631 0.49912 0.54583 0.0
C515 C 0.14758 0.45629 0.52617 0.0
C516 C 0.63963 0.02918 0.01647 0.0
C517 C 0.6399 0.03273 0.97338 0.0
C518 C 0.64026 0.9873 0.03571 0.0
C519 C 0.64095 0.9474 0.01258 0.0
H520 H 0.63871 0.05895 0.03558 0.0
H521 H 0.63964 0.98627 0.069 0.0
S522 S 0.64279 0.93836 0.89875 0.0
N523 N 0.64167 0.99275 0.90803 0.0
N524 N 0.64266 0.91402 0.94427 0.0
C525 C 0.64166 0.95043 0.96946 0.0
C526 C 0.6412 0.99311 0.94983 0.0
C527 C 0.36776 0.95802 0.51596 0.0
C528 C 0.36874 0.95636 0.47277 0.0
C529 C 0.36848 -0.001 0.53697 0.0
C530 C 0.37057 0.0398 0.51557 0.0
H531 H 0.36622 0.92745 0.53378 0.0
H532 H 0.36754 -0.00141 0.57026 0.0
S533 S 0.37428 0.05373 0.40225 0.0
N534 N 0.3721 -0.00098 0.40921 0.0
N535 N 0.37376 0.07609 0.44873 0.0
C536 C 0.37178 0.03865 0.47235 0.0
C537 C 0.37075 -0.0031 0.45094 0.0
C538 C 0.33526 0.95621 0.97571 0.0
C539 C 0.33592 0.95271 0.01882 0.0
C540 C 0.33499 -0.00193 0.95639 0.0
C541 C 0.33569 0.03801 0.97944 0.0
H542 H 0.33548 0.92639 0.95663 0.0
H543 H 0.33515 -0.00096 0.92309 0.0
S544 S 0.33539 0.04733 0.09326 0.0
N545 N 0.33554 0.99289 0.0841 0.0
N546 N 0.33533 0.07157 0.04769 0.0
C547 C 0.3354 0.03507 0.02258 0.0
C548 C 0.33542 0.99241 0.04229 0.0
C549 C 0.65706 0.03451 0.47759 0.0
C550 C 0.65874 0.03613 0.52078 0.0
C551 C 0.65776 0.99356 0.45645 0.0
C552 C 0.65977 0.95269 0.47774 0.0
H553 H 0.65508 0.0651 0.45989 0.0
H554 H 0.65605 0.99395 0.4232 0.0
S555 S 0.66606 0.93854 0.59083 0.0
N556 N 0.66362 0.99325 0.58408 0.0
N557 N 0.66456 0.91631 0.54433 0.0
C558 C 0.66192 0.9538 0.52089 0.0
C559 C 0.66152 -0.00448 0.54242 0.0
loop_
_geom_bond_atom_site_label_1
_geom_bond_atom_site_label_2
_geom_bond_distance
_geom_bond_site_symmetry_2
_ccdc_geom_bond_type
In0 O1 2.294 . S
In0 O2 2.326 . S
In0 O6 2.266 . S
In0 O7 2.326 . S
In0 O8 2.266 . S
In0 O9 2.326 . S
In0 O11 2.294 . S
In0 O12 2.326 . S
O1 In0 2.294 . S
O1 C10 1.240 . S
O2 In0 2.326 . S
O2 C10 1.252 . S
C3 O6 1.252 . S
C3 O7 1.260 . S
C4 O11 1.240 . S
C4 O12 1.252 . S
C5 O8 1.252 . S
C5 O9 1.260 . S
O6 In0 2.266 . S
O6 C3 1.252 . S
O7 In0 2.326 . S
O7 C3 1.260 . S
O8 In0 2.266 . S
O8 C5 1.252 . S
O9 In0 2.326 . S
O9 C5 1.260 . S
C10 O1 1.240 . S
C10 O2 1.252 . S
O11 In0 2.294 . S
O11 C4 1.240 . S
O12 In0 2.326 . S
O12 C4 1.252 . S
In13 O14 2.294 . S
In13 O15 2.326 . S
In13 O19 2.266 . S
In13 O20 2.326 . S
In13 O21 2.266 . S
In13 O22 2.326 . S
In13 O24 2.294 . S
In13 O25 2.326 . S
O14 In13 2.294 . S
O14 C23 1.240 . S
O15 In13 2.326 . S
O15 C23 1.252 . S
C16 O19 1.252 . S
C16 O20 1.260 . S
C17 O24 1.240 . S
C17 O25 1.252 . S
C18 O21 1.252 . S
C18 O22 1.260 . S
O19 In13 2.266 . S
O19 C16 1.252 . S
O20 In13 2.326 . S
O20 C16 1.260 . S
O21 In13 2.266 . S
O21 C18 1.252 . S
O22 In13 2.326 . S
O22 C18 1.260 . S
C23 O14 1.240 . S
C23 O15 1.252 . S
O24 In13 2.294 . S
O24 C17 1.240 . S
O25 In13 2.326 . S
O25 C17 1.252 . S
In26 O27 2.294 . S
In26 O28 2.326 . S
In26 O32 2.266 . S
In26 O33 2.326 . S
In26 O34 2.266 . S
In26 O35 2.326 . S
In26 O37 2.294 . S
In26 O38 2.326 . S
O27 In26 2.294 . S
O27 C36 1.240 . S
O28 In26 2.326 . S
O28 C36 1.252 . S
C29 O32 1.252 . S
C29 O33 1.260 . S
C30 O37 1.240 . S
C30 O38 1.252 . S
C31 O34 1.252 . S
C31 O35 1.260 . S
O32 In26 2.266 . S
O32 C29 1.252 . S
O33 In26 2.326 . S
O33 C29 1.260 . S
O34 In26 2.266 . S
O34 C31 1.252 . S
O35 In26 2.326 . S
O35 C31 1.260 . S
C36 O27 1.240 . S
C36 O28 1.252 . S
O37 In26 2.294 . S
O37 C30 1.240 . S
O38 In26 2.326 . S
O38 C30 1.252 . S
In39 O40 2.294 . S
In39 O41 2.326 . S
In39 O45 2.266 . S
In39 O46 2.326 . S
In39 O47 2.266 . S
In39 O48 2.326 . S
In39 O50 2.294 . S
In39 O51 2.326 . S
O40 In39 2.294 . S
O40 C49 1.240 . S
O41 In39 2.326 . S
O41 C49 1.252 . S
C42 O45 1.252 . S
C42 O46 1.260 . S
C43 O50 1.240 . S
C43 O51 1.252 . S
C44 O47 1.252 . S
C44 O48 1.260 . S
O45 In39 2.266 . S
O45 C42 1.252 . S
O46 In39 2.326 . S
O46 C42 1.260 . S
O47 In39 2.266 . S
O47 C44 1.252 . S
O48 In39 2.326 . S
O48 C44 1.260 . S
C49 O40 1.240 . S
C49 O41 1.252 . S
O50 In39 2.294 . S
O50 C43 1.240 . S
O51 In39 2.326 . S
O51 C43 1.252 . S
In52 O53 2.294 . S
In52 O54 2.326 . S
In52 O58 2.266 . S
In52 O59 2.326 . S
In52 O60 2.266 . S
In52 O61 2.326 . S
In52 O63 2.294 . S
In52 O64 2.326 . S
O53 In52 2.294 . S
O53 C62 1.240 . S
O54 In52 2.326 . S
O54 C62 1.252 . S
C55 O58 1.252 . S
C55 O59 1.260 . S
C56 O63 1.240 . S
C56 O64 1.252 . S
C57 O60 1.252 . S
C57 O61 1.260 . S
O58 In52 2.266 . S
O58 C55 1.252 . S
O59 In52 2.326 . S
O59 C55 1.260 . S
O60 In52 2.266 . S
O60 C57 1.252 . S
O61 In52 2.326 . S
O61 C57 1.260 . S
C62 O53 1.240 . S
C62 O54 1.252 . S
O63 In52 2.294 . S
O63 C56 1.240 . S
O64 In52 2.326 . S
O64 C56 1.252 . S
In65 O66 2.294 . S
In65 O67 2.326 . S
In65 O71 2.266 . S
In65 O72 2.326 . S
In65 O73 2.266 . S
In65 O74 2.326 . S
In65 O76 2.294 . S
In65 O77 2.326 . S
O66 In65 2.294 . S
O66 C75 1.240 . S
O67 In65 2.326 . S
O67 C75 1.252 . S
C68 O71 1.252 . S
C68 O72 1.260 . S
C69 O76 1.240 . S
C69 O77 1.252 . S
C70 O73 1.252 . S
C70 O74 1.260 . S
O71 In65 2.266 . S
O71 C68 1.252 . S
O72 In65 2.326 . S
O72 C68 1.260 . S
O73 In65 2.266 . S
O73 C70 1.252 . S
O74 In65 2.326 . S
O74 C70 1.260 . S
C75 O66 1.240 . S
C75 O67 1.252 . S
O76 In65 2.294 . S
O76 C69 1.240 . S
O77 In65 2.326 . S
O77 C69 1.252 . S
In78 O79 2.294 . S
In78 O80 2.326 . S
In78 O84 2.266 . S
In78 O85 2.326 . S
In78 O86 2.266 . S
In78 O87 2.326 . S
In78 O89 2.294 . S
In78 O90 2.326 . S
O79 In78 2.294 . S
O79 C88 1.240 . S
O80 In78 2.326 . S
O80 C88 1.252 . S
C81 O84 1.252 . S
C81 O85 1.260 . S
C82 O89 1.240 . S
C82 O90 1.252 . S
C83 O86 1.252 . S
C83 O87 1.260 . S
O84 In78 2.266 . S
O84 C81 1.252 . S
O85 In78 2.326 . S
O85 C81 1.260 . S
O86 In78 2.266 . S
O86 C83 1.252 . S
O87 In78 2.326 . S
O87 C83 1.260 . S
C88 O79 1.240 . S
C88 O80 1.252 . S
O89 In78 2.294 . S
O89 C82 1.240 . S
O90 In78 2.326 . S
O90 C82 1.252 . S
In91 O92 2.294 . S
In91 O93 2.326 . S
In91 O97 2.266 . S
In91 O98 2.326 . S
In91 O99 2.266 . S
In91 O100 2.326 . S
In91 O102 2.294 . S
In91 O103 2.326 . S
O92 In91 2.294 . S
O92 C101 1.240 . S
O93 In91 2.326 . S
O93 C101 1.252 . S
C94 O97 1.252 . S
C94 O98 1.260 . S
C95 O102 1.240 . S
C95 O103 1.252 . S
C96 O99 1.252 . S
C96 O100 1.260 . S
O97 In91 2.266 . S
O97 C94 1.252 . S
O98 In91 2.326 . S
O98 C94 1.260 . S
O99 In91 2.266 . S
O99 C96 1.252 . S
O100 In91 2.326 . S
O100 C96 1.260 . S
C101 O92 1.240 . S
C101 O93 1.252 . S
O102 In91 2.294 . S
O102 C95 1.240 . S
O103 In91 2.326 . S
O103 C95 1.252 . S
In104 O105 2.294 . S
In104 O106 2.326 . S
In104 O110 2.266 . S
In104 O111 2.326 . S
In104 O112 2.266 . S
In104 O113 2.326 . S
In104 O115 2.294 . S
In104 O116 2.326 . S
O105 In104 2.294 . S
O105 C114 1.240 . S
O106 In104 2.326 . S
O106 C114 1.252 . S
C107 O110 1.252 . S
C107 O111 1.260 . S
C108 O115 1.240 . S
C108 O116 1.252 . S
C109 O112 1.252 . S
C109 O113 1.260 . S
O110 In104 2.266 . S
O110 C107 1.252 . S
O111 In104 2.326 . S
O111 C107 1.260 . S
O112 In104 2.266 . S
O112 C109 1.252 . S
O113 In104 2.326 . S
O113 C109 1.260 . S
C114 O105 1.240 . S
C114 O106 1.252 . S
O115 In104 2.294 . S
O115 C108 1.240 . S
O116 In104 2.326 . S
O116 C108 1.252 . S
In117 O118 2.294 . S
In117 O119 2.326 . S
In117 O123 2.266 . S
In117 O124 2.326 . S
In117 O125 2.266 . S
In117 O126 2.326 . S
In117 O128 2.294 . S
In117 O129 2.326 . S
O118 In117 2.294 . S
O118 C127 1.240 . S
O119 In117 2.326 . S
O119 C127 1.252 . S
C120 O123 1.252 . S
C120 O124 1.260 . S
C121 O128 1.240 . S
C121 O129 1.252 . S
C122 O125 1.252 . S
C122 O126 1.260 . S
O123 In117 2.266 . S
O123 C120 1.252 . S
O124 In117 2.326 . S
O124 C120 1.260 . S
O125 In117 2.266 . S
O125 C122 1.252 . S
O126 In117 2.326 . S
O126 C122 1.260 . S
C127 O118 1.240 . S
C127 O119 1.252 . S
O128 In117 2.294 . S
O128 C121 1.240 . S
O129 In117 2.326 . S
O129 C121 1.252 . S
In130 O131 2.294 . S
In130 O132 2.326 . S
In130 O136 2.266 . S
In130 O137 2.326 . S
In130 O138 2.266 . S
In130 O139 2.326 . S
In130 O141 2.294 . S
In130 O142 2.326 . S
O131 In130 2.294 . S
O131 C140 1.240 . S
O132 In130 2.326 . S
O132 C140 1.252 . S
C133 O136 1.252 . S
C133 O137 1.260 . S
C134 O141 1.240 . S
C134 O142 1.252 . S
C135 O138 1.252 . S
C135 O139 1.260 . S
O136 In130 2.266 . S
O136 C133 1.252 . S
O137 In130 2.326 . S
O137 C133 1.260 . S
O138 In130 2.266 . S
O138 C135 1.252 . S
O139 In130 2.326 . S
O139 C135 1.260 . S
C140 O131 1.240 . S
C140 O132 1.252 . S
O141 In130 2.294 . S
O141 C134 1.240 . S
O142 In130 2.326 . S
O142 C134 1.252 . S
In143 O144 2.294 . S
In143 O145 2.326 . S
In143 O149 2.266 . S
In143 O150 2.326 . S
In143 O151 2.266 . S
In143 O152 2.326 . S
In143 O154 2.294 . S
In143 O155 2.326 . S
O144 In143 2.294 . S
O144 C153 1.240 . S
O145 In143 2.326 . S
O145 C153 1.252 . S
C146 O149 1.252 . S
C146 O150 1.260 . S
C147 O154 1.240 . S
C147 O155 1.252 . S
C148 O151 1.252 . S
C148 O152 1.260 . S
O149 In143 2.266 . S
O149 C146 1.252 . S
O150 In143 2.326 . S
O150 C146 1.260 . S
O151 In143 2.266 . S
O151 C148 1.252 . S
O152 In143 2.326 . S
O152 C148 1.260 . S
C153 O144 1.240 . S
C153 O145 1.252 . S
O154 In143 2.294 . S
O154 C147 1.240 . S
O155 In143 2.326 . S
O155 C147 1.252 . S
In156 O157 2.294 . S
In156 O158 2.326 . S
In156 O162 2.266 . S
In156 O163 2.326 . S
In156 O164 2.266 . S
In156 O165 2.326 . S
In156 O167 2.294 . S
In156 O168 2.326 . S
O157 In156 2.294 . S
O157 C166 1.240 . S
O158 In156 2.326 . S
O158 C166 1.252 . S
C159 O162 1.252 . S
C159 O163 1.260 . S
C160 O167 1.240 . S
C160 O168 1.252 . S
C161 O164 1.252 . S
C161 O165 1.260 . S
O162 In156 2.266 . S
O162 C159 1.252 . S
O163 In156 2.326 . S
O163 C159 1.260 . S
O164 In156 2.266 . S
O164 C161 1.252 . S
O165 In156 2.326 . S
O165 C161 1.260 . S
C166 O157 1.240 . S
C166 O158 1.252 . S
O167 In156 2.294 . S
O167 C160 1.240 . S
O168 In156 2.326 . S
O168 C160 1.252 . S
In169 O170 2.294 . S
In169 O171 2.326 . S
In169 O175 2.266 . S
In169 O176 2.326 . S
In169 O177 2.266 . S
In169 O178 2.326 . S
In169 O180 2.294 . S
In169 O181 2.326 . S
O170 In169 2.294 . S
O170 C179 1.240 . S
O171 In169 2.326 . S
O171 C179 1.252 . S
C172 O175 1.252 . S
C172 O176 1.260 . S
C173 O180 1.240 . S
C173 O181 1.252 . S
C174 O177 1.252 . S
C174 O178 1.260 . S
O175 In169 2.266 . S
O175 C172 1.252 . S
O176 In169 2.326 . S
O176 C172 1.260 . S
O177 In169 2.266 . S
O177 C174 1.252 . S
O178 In169 2.326 . S
O178 C174 1.260 . S
C179 O170 1.240 . S
C179 O171 1.252 . S
O180 In169 2.294 . S
O180 C173 1.240 . S
O181 In169 2.326 . S
O181 C173 1.252 . S
In182 O183 2.294 . S
In182 O184 2.326 . S
In182 O188 2.266 . S
In182 O189 2.326 . S
In182 O190 2.266 . S
In182 O191 2.326 . S
In182 O193 2.294 . S
In182 O194 2.326 . S
O183 In182 2.294 . S
O183 C192 1.240 . S
O184 In182 2.326 . S
O184 C192 1.252 . S
C185 O188 1.252 . S
C185 O189 1.260 . S
C186 O193 1.240 . S
C186 O194 1.252 . S
C187 O190 1.252 . S
C187 O191 1.260 . S
O188 In182 2.266 . S
O188 C185 1.252 . S
O189 In182 2.326 . S
O189 C185 1.260 . S
O190 In182 2.266 . S
O190 C187 1.252 . S
O191 In182 2.326 . S
O191 C187 1.260 . S
C192 O183 1.240 . S
C192 O184 1.252 . S
O193 In182 2.294 . S
O193 C186 1.240 . S
O194 In182 2.326 . S
O194 C186 1.252 . S
In195 O196 2.294 . S
In195 O197 2.326 . S
In195 O201 2.266 . S
In195 O202 2.326 . S
In195 O203 2.266 . S
In195 O204 2.326 . S
In195 O206 2.294 . S
In195 O207 2.326 . S
O196 In195 2.294 . S
O196 C205 1.240 . S
O197 In195 2.326 . S
O197 C205 1.252 . S
C198 O201 1.252 . S
C198 O202 1.260 . S
C199 O206 1.240 . S
C199 O207 1.252 . S
C200 O203 1.252 . S
C200 O204 1.260 . S
O201 In195 2.266 . S
O201 C198 1.252 . S
O202 In195 2.326 . S
O202 C198 1.260 . S
O203 In195 2.266 . S
O203 C200 1.252 . S
O204 In195 2.326 . S
O204 C200 1.260 . S
C205 O196 1.240 . S
C205 O197 1.252 . S
O206 In195 2.294 . S
O206 C199 1.240 . S
O207 In195 2.326 . S
O207 C199 1.252 . S
C208 C209 1.369 1_655 S
C208 C210 1.419 . S
C208 H212 0.933 . S
C209 C208 1.369 1_455 S
C209 C218 1.429 1_455 S
C210 C208 1.419 . S
C210 C211 1.363 . S
C210 H213 0.929 . S
C211 C210 1.363 . S
C211 C217 1.428 . S
H212 C208 0.933 . S
H213 C210 0.929 . S
S214 N215 1.613 1_556 S
S214 N216 1.610 1_556 S
N215 S214 1.613 1_554 S
N215 C218 1.350 . S
N216 S214 1.610 1_554 S
N216 C217 1.351 . S
C217 C211 1.428 . S
C217 N216 1.351 . S
C217 C218 1.434 . S
C218 C209 1.429 1_655 S
C218 N215 1.350 . S
C218 C217 1.434 . S
C219 C220 1.369 1_455 S
C219 C221 1.419 . S
C219 H223 0.945 . S
C220 C219 1.369 1_655 S
C220 C229 1.429 1_655 S
C221 C219 1.419 . S
C221 C222 1.363 . S
C221 H224 0.929 . S
C222 C221 1.363 . S
C222 C228 1.428 . S
H223 C219 0.945 . S
H224 C221 0.929 . S
S225 N226 1.613 . S
S225 N227 1.610 . S
N226 S225 1.613 . S
N226 C229 1.350 . S
N227 S225 1.610 . S
N227 C228 1.351 . S
C228 C222 1.428 . S
C228 N227 1.351 . S
C228 C229 1.434 . S
C229 C220 1.429 1_455 S
C229 N226 1.350 . S
C229 C228 1.434 . S
C230 C231 1.369 . S
C230 C232 1.419 . S
C230 H234 0.930 . S
C231 C230 1.369 . S
C231 C240 1.429 . S
C232 C230 1.419 . S
C232 C233 1.363 1_655 S
C232 H235 0.946 . S
C233 C232 1.363 1_455 S
C233 C239 1.428 1_455 S
H234 C230 0.930 . S
H235 C232 0.946 . S
S236 N237 1.613 . S
S236 N238 1.610 . S
N237 S236 1.613 . S
N237 C240 1.350 . S
N238 S236 1.610 . S
N238 C239 1.351 . S
C239 C233 1.428 1_655 S
C239 N238 1.351 . S
C239 C240 1.434 . S
C240 C231 1.429 . S
C240 N237 1.350 . S
C240 C239 1.434 . S
C241 C242 1.369 . S
C241 C243 1.419 . S
C241 H245 0.930 . S
C242 C241 1.369 . S
C242 C251 1.429 . S
C243 C241 1.419 . S
C243 C244 1.363 1_455 S
C243 H246 0.929 . S
C244 C243 1.363 1_655 S
C244 C250 1.428 1_655 S
H245 C241 0.930 . S
H246 C243 0.929 . S
S247 N248 1.613 . S
S247 N249 1.610 . S
N248 S247 1.613 . S
N248 C251 1.350 . S
N249 S247 1.610 . S
N249 C250 1.351 . S
C250 C244 1.428 1_455 S
C250 N249 1.351 . S
C250 C251 1.434 . S
C251 C242 1.429 . S
C251 N248 1.350 . S
C251 C250 1.434 . S
C252 C253 1.369 . S
C252 C254 1.419 . S
C252 H256 0.930 . S
C253 C252 1.369 . S
C253 C262 1.429 . S
C254 C252 1.419 . S
C254 C255 1.363 . S
C254 H257 0.929 . S
C255 C254 1.363 . S
C255 C261 1.428 . S
H256 C252 0.930 . S
H257 C254 0.929 . S
S258 N259 1.613 . S
S258 N260 1.610 . S
N259 S258 1.613 . S
N259 C262 1.350 . S
N260 S258 1.610 . S
N260 C261 1.351 . S
C261 C255 1.428 . S
C261 N260 1.351 . S
C261 C262 1.434 . S
C262 C253 1.429 . S
C262 N259 1.350 . S
C262 C261 1.434 . S
C263 C264 1.369 . S
C263 C265 1.419 . S
C263 H267 0.930 . S
C264 C263 1.369 . S
C264 C273 1.429 . S
C265 C263 1.419 . S
C265 C266 1.363 . S
C265 H268 0.929 . S
C266 C265 1.363 . S
C266 C272 1.428 . S
H267 C263 0.930 . S
H268 C265 0.929 . S
S269 N270 1.613 . S
S269 N271 1.610 . S
N270 S269 1.613 . S
N270 C273 1.350 . S
N271 S269 1.610 . S
N271 C272 1.351 . S
C272 C266 1.428 . S
C272 N271 1.351 . S
C272 C273 1.434 . S
C273 C264 1.429 . S
C273 N270 1.350 . S
C273 C272 1.434 . S
C274 C275 1.369 . S
C274 C276 1.419 . S
C274 H278 0.930 . S
C275 C274 1.369 . S
C275 C284 1.429 . S
C276 C274 1.419 . S
C276 C277 1.363 . S
C276 H279 0.929 . S
C277 C276 1.363 . S
C277 C283 1.428 . S
H278 C274 0.930 . S
H279 C276 0.929 . S
S280 N281 1.613 . S
S280 N282 1.610 . S
N281 S280 1.613 . S
N281 C284 1.350 . S
N282 S280 1.610 . S
N282 C283 1.351 . S
C283 C277 1.428 . S
C283 N282 1.351 . S
C283 C284 1.434 . S
C284 C275 1.429 . S
C284 N281 1.350 . S
C284 C283 1.434 . S
C285 C286 1.369 . S
C285 C287 1.419 . S
C285 H289 0.930 . S
C286 C285 1.369 . S
C286 C295 1.429 . S
C287 C285 1.419 . S
C287 C288 1.363 . S
C287 H290 0.929 . S
C288 C287 1.363 . S
C288 C294 1.428 . S
H289 C285 0.930 . S
H290 C287 0.929 . S
S291 N292 1.613 . S
S291 N293 1.610 . S
N292 S291 1.613 . S
N292 C295 1.350 . S
N293 S291 1.610 . S
N293 C294 1.351 . S
C294 C288 1.428 . S
C294 N293 1.351 . S
C294 C295 1.434 . S
C295 C286 1.429 . S
C295 N292 1.350 . S
C295 C294 1.434 . S
C296 C297 1.369 . S
C296 C298 1.419 . S
C296 H300 0.930 . S
C297 C296 1.369 . S
C297 C306 1.429 . S
C298 C296 1.419 . S
C298 C299 1.363 . S
C298 H301 0.929 . S
C299 C298 1.363 . S
C299 C305 1.428 . S
H300 C296 0.930 . S
H301 C298 0.929 . S
S302 N303 1.613 . S
S302 N304 1.610 . S
N303 S302 1.613 . S
N303 C306 1.350 . S
N304 S302 1.610 . S
N304 C305 1.351 . S
C305 C299 1.428 . S
C305 N304 1.351 . S
C305 C306 1.434 . S
C306 C297 1.429 . S
C306 N303 1.350 . S
C306 C305 1.434 . S
C307 C308 1.369 . S
C307 C309 1.419 . S
C307 H311 0.930 . S
C308 C307 1.369 . S
C308 C317 1.429 . S
C309 C307 1.419 . S
C309 C310 1.363 . S
C309 H312 0.929 . S
C310 C309 1.363 . S
C310 C316 1.428 . S
H311 C307 0.930 . S
H312 C309 0.929 . S
S313 N314 1.613 . S
S313 N315 1.610 . S
N314 S313 1.613 . S
N314 C317 1.350 . S
N315 S313 1.610 . S
N315 C316 1.351 . S
C316 C310 1.428 . S
C316 N315 1.351 . S
C316 C317 1.434 . S
C317 C308 1.429 . S
C317 N314 1.350 . S
C317 C316 1.434 . S
C318 C319 1.369 . S
C318 C320 1.419 . S
C318 H322 0.930 . S
C319 C318 1.369 . S
C319 C328 1.429 . S
C320 C318 1.419 . S
C320 C321 1.363 . S
C320 H323 0.929 . S
C321 C320 1.363 . S
C321 C327 1.428 . S
H322 C318 0.930 . S
H323 C320 0.929 . S
S324 N325 1.613 . S
S324 N326 1.610 . S
N325 S324 1.613 . S
N325 C328 1.350 . S
N326 S324 1.610 . S
N326 C327 1.351 . S
C327 C321 1.428 . S
C327 N326 1.351 . S
C327 C328 1.434 . S
C328 C319 1.429 . S
C328 N325 1.350 . S
C328 C327 1.434 . S
C329 C330 1.369 . S
C329 C331 1.419 . S
C329 H333 0.930 . S
C330 C329 1.369 . S
C330 C339 1.429 . S
C331 C329 1.419 . S
C331 C332 1.363 . S
C331 H334 0.929 . S
C332 C331 1.363 . S
C332 C338 1.428 . S
H333 C329 0.930 . S
H334 C331 0.929 . S
S335 N336 1.613 . S
S335 N337 1.610 . S
N336 S335 1.613 . S
N336 C339 1.350 . S
N337 S335 1.610 . S
N337 C338 1.351 . S
C338 C332 1.428 . S
C338 N337 1.351 . S
C338 C339 1.434 . S
C339 C330 1.429 . S
C339 N336 1.350 . S
C339 C338 1.434 . S
C340 C341 1.369 . S
C340 C342 1.419 . S
C340 H344 0.930 . S
C341 C340 1.369 . S
C341 C350 1.429 . S
C342 C340 1.419 . S
C342 C343 1.363 . S
C342 H345 0.929 . S
C343 C342 1.363 . S
C343 C349 1.428 . S
H344 C340 0.930 . S
H345 C342 0.929 . S
S346 N347 1.613 . S
S346 N348 1.610 . S
N347 S346 1.613 . S
N347 C350 1.350 . S
N348 S346 1.610 . S
N348 C349 1.351 . S
C349 C343 1.428 . S
C349 N348 1.351 . S
C349 C350 1.434 . S
C350 C341 1.429 . S
C350 N347 1.350 . S
C350 C349 1.434 . S
C351 C352 1.369 . S
C351 C353 1.419 . S
C351 H355 0.930 . S
C352 C351 1.369 . S
C352 C361 1.429 . S
C353 C351 1.419 . S
C353 C354 1.363 . S
C353 H356 0.929 . S
C354 C353 1.363 . S
C354 C360 1.428 . S
H355 C351 0.930 . S
H356 C353 0.929 . S
S357 N358 1.613 . S
S357 N359 1.610 . S
N358 S357 1.613 . S
N358 C361 1.350 . S
N359 S357 1.610 . S
N359 C360 1.351 . S
C360 C354 1.428 . S
C360 N359 1.351 . S
C360 C361 1.434 . S
C361 C352 1.429 . S
C361 N358 1.350 . S
C361 C360 1.434 . S
C362 C363 1.369 . S
C362 C364 1.419 . S
C362 H366 0.930 . S
C363 C362 1.369 . S
C363 C372 1.429 . S
C364 C362 1.419 . S
C364 C365 1.363 . S
C364 H367 0.929 . S
C365 C364 1.363 . S
C365 C371 1.428 . S
H366 C362 0.930 . S
H367 C364 0.929 . S
S368 N369 1.613 . S
S368 N370 1.610 . S
N369 S368 1.613 . S
N369 C372 1.350 . S
N370 S368 1.610 . S
N370 C371 1.351 . S
C371 C365 1.428 . S
C371 N370 1.351 . S
C371 C372 1.434 . S
C372 C363 1.429 . S
C372 N369 1.350 . S
C372 C371 1.434 . S
C373 C374 1.369 . S
C373 C375 1.419 . S
C373 H377 0.930 . S
C374 C373 1.369 . S
C374 C383 1.429 . S
C375 C373 1.419 . S
C375 C376 1.363 . S
C375 H378 0.929 . S
C376 C375 1.363 . S
C376 C382 1.428 . S
H377 C373 0.930 . S
H378 C375 0.929 . S
S379 N380 1.613 . S
S379 N381 1.610 . S
N380 S379 1.613 . S
N380 C383 1.350 . S
N381 S379 1.610 . S
N381 C382 1.351 . S
C382 C376 1.428 . S
C382 N381 1.351 . S
C382 C383 1.434 . S
C383 C374 1.429 . S
C383 N380 1.350 . S
C383 C382 1.434 . S
C384 C385 1.369 1_554 S
C384 C386 1.419 . S
C384 H388 0.930 . S
C385 C384 1.369 1_556 S
C385 C394 1.429 . S
C386 C384 1.419 . S
C386 C387 1.363 . S
C386 H389 0.929 . S
C387 C386 1.363 . S
C387 C393 1.428 1_554 S
H388 C384 0.930 . S
H389 C386 0.929 . S
S390 N391 1.613 . S
S390 N392 1.610 . S
N391 S390 1.613 . S
N391 C394 1.350 . S
N392 S390 1.610 . S
N392 C393 1.351 . S
C393 C387 1.428 1_556 S
C393 N392 1.351 . S
C393 C394 1.434 . S
C394 C385 1.429 . S
C394 N391 1.350 . S
C394 C393 1.434 . S
C395 C396 1.369 . S
C395 C397 1.419 . S
C395 H399 0.930 . S
C396 C395 1.369 . S
C396 C405 1.429 . S
C397 C395 1.419 . S
C397 C398 1.363 . S
C397 H400 0.929 . S
C398 C397 1.363 . S
C398 C404 1.428 . S
H399 C395 0.930 . S
H400 C397 0.929 . S
S401 N402 1.613 . S
S401 N403 1.610 . S
N402 S401 1.613 . S
N402 C405 1.350 . S
N403 S401 1.610 . S
N403 C404 1.351 . S
C404 C398 1.428 . S
C404 N403 1.351 . S
C404 C405 1.434 . S
C405 C396 1.429 . S
C405 N402 1.350 . S
C405 C404 1.434 . S
C406 C407 1.369 1_556 S
C406 C408 1.419 . S
C406 H410 0.930 . S
C407 C406 1.369 1_554 S
C407 C416 1.429 . S
C408 C406 1.419 . S
C408 C409 1.363 . S
C408 H411 0.929 . S
C409 C408 1.363 . S
C409 C415 1.428 1_556 S
H410 C406 0.930 . S
H411 C408 0.929 . S
S412 N413 1.613 . S
S412 N414 1.610 . S
N413 S412 1.613 . S
N413 C416 1.350 . S
N414 S412 1.610 . S
N414 C415 1.351 . S
C415 C409 1.428 1_554 S
C415 N414 1.351 . S
C415 C416 1.434 . S
C416 C407 1.429 . S
C416 N413 1.350 . S
C416 C415 1.434 . S
C417 C418 1.369 . S
C417 C419 1.419 . S
C417 H421 0.930 . S
C418 C417 1.369 . S
C418 C427 1.429 . S
C419 C417 1.419 . S
C419 C420 1.363 . S
C419 H422 0.929 . S
C420 C419 1.363 . S
C420 C426 1.428 . S
H421 C417 0.930 . S
H422 C419 0.929 . S
S423 N424 1.613 . S
S423 N425 1.610 . S
N424 S423 1.613 . S
N424 C427 1.350 . S
N425 S423 1.610 . S
N425 C426 1.351 . S
C426 C420 1.428 . S
C426 N425 1.351 . S
C426 C427 1.434 . S
C427 C418 1.429 . S
C427 N424 1.350 . S
C427 C426 1.434 . S
C428 C429 1.353 1_556 S
C428 C430 1.434 . S
C428 H432 0.931 . S
C429 C428 1.353 1_554 S
C429 C438 1.429 . S
C430 C428 1.434 . S
C430 C431 1.363 . S
C430 H433 0.929 . S
C431 C430 1.363 . S
C431 C437 1.446 . S
H432 C428 0.931 . S
H433 C430 0.929 . S
S434 N435 1.613 . S
S434 N436 1.610 . S
N435 S434 1.613 . S
N435 C438 1.350 . S
N436 S434 1.610 . S
N436 C437 1.348 1_554 S
C437 C431 1.446 . S
C437 N436 1.348 1_556 S
C437 C438 1.417 1_556 S
C438 C429 1.429 . S
C438 N435 1.350 . S
C438 C437 1.417 1_554 S
C439 C440 1.369 . S
C439 C441 1.419 . S
C439 H443 0.930 . S
C440 C439 1.369 . S
C440 C449 1.429 . S
C441 C439 1.419 . S
C441 C442 1.363 . S
C441 H444 0.929 . S
C442 C441 1.363 . S
C442 C448 1.428 . S
H443 C439 0.930 . S
H444 C441 0.929 . S
S445 N446 1.613 . S
S445 N447 1.610 . S
N446 S445 1.613 . S
N446 C449 1.350 . S
N447 S445 1.610 . S
N447 C448 1.351 . S
C448 C442 1.428 . S
C448 N447 1.351 . S
C448 C449 1.434 . S
C449 C440 1.429 . S
C449 N446 1.350 . S
C449 C448 1.434 . S
C450 C451 1.369 1_556 S
C450 C452 1.419 . S
C450 H454 0.930 . S
C451 C450 1.369 1_554 S
C451 C460 1.429 . S
C452 C450 1.419 . S
C452 C453 1.363 . S
C452 H455 0.929 . S
C453 C452 1.363 . S
C453 C459 1.428 1_556 S
H454 C450 0.930 . S
H455 C452 0.929 . S
S456 N457 1.613 . S
S456 N458 1.610 . S
N457 S456 1.613 . S
N457 C460 1.350 . S
N458 S456 1.610 . S
N458 C459 1.351 . S
C459 C453 1.428 1_554 S
C459 N458 1.351 . S
C459 C460 1.434 . S
C460 C451 1.429 . S
C460 N457 1.350 . S
C460 C459 1.434 . S
C461 C462 1.369 . S
C461 C463 1.419 . S
C461 H465 0.930 . S
C462 C461 1.369 . S
C462 C471 1.429 . S
C463 C461 1.419 . S
C463 C464 1.363 . S
C463 H466 0.929 . S
C464 C463 1.363 . S
C464 C470 1.428 . S
H465 C461 0.930 . S
H466 C463 0.929 . S
S467 N468 1.613 . S
S467 N469 1.610 . S
N468 S467 1.613 . S
N468 C471 1.350 . S
N469 S467 1.610 . S
N469 C470 1.351 . S
C470 C464 1.428 . S
C470 N469 1.351 . S
C470 C471 1.434 . S
C471 C462 1.429 . S
C471 N468 1.350 . S
C471 C470 1.434 . S
C472 C473 1.369 . S
C472 C474 1.419 . S
C472 H476 0.930 . S
C473 C472 1.369 . S
C473 C482 1.429 1_556 S
C474 C472 1.419 . S
C474 C475 1.363 1_556 S
C474 H477 0.929 . S
C475 C474 1.363 1_554 S
C475 C481 1.428 . S
H476 C472 0.930 . S
H477 C474 0.929 . S
S478 N479 1.613 . S
S478 N480 1.610 . S
N479 S478 1.613 . S
N479 C482 1.350 . S
N480 S478 1.610 . S
N480 C481 1.351 . S
C481 C475 1.428 . S
C481 N480 1.351 . S
C481 C482 1.434 . S
C482 C473 1.429 1_554 S
C482 N479 1.350 . S
C482 C481 1.434 . S
C483 C484 1.369 . S
C483 C485 1.419 . S
C483 H487 0.930 . S
C484 C483 1.369 . S
C484 C493 1.429 . S
C485 C483 1.419 . S
C485 C486 1.363 . S
C485 H488 0.929 . S
C486 C485 1.363 . S
C486 C492 1.428 . S
H487 C483 0.930 . S
H488 C485 0.929 . S
S489 N490 1.613 . S
S489 N491 1.610 . S
N490 S489 1.613 . S
N490 C493 1.350 . S
N491 S489 1.610 . S
N491 C492 1.351 . S
C492 C486 1.428 . S
C492 N491 1.351 . S
C492 C493 1.434 . S
C493 C484 1.429 . S
C493 N490 1.350 . S
C493 C492 1.434 . S
C494 C495 1.369 . S
C494 C496 1.419 . S
C494 H498 0.930 . S
C495 C494 1.369 . S
C495 C504 1.429 1_554 S
C496 C494 1.419 . S
C496 C497 1.363 1_554 S
C496 H499 0.929 . S
C497 C496 1.363 1_556 S
C497 C503 1.428 . S
H498 C494 0.930 . S
H499 C496 0.929 . S
S500 N501 1.613 . S
S500 N502 1.610 . S
N501 S500 1.613 . S
N501 C504 1.350 . S
N502 S500 1.610 . S
N502 C503 1.351 . S
C503 C497 1.428 . S
C503 N502 1.351 . S
C503 C504 1.434 . S
C504 C495 1.429 1_556 S
C504 N501 1.350 . S
C504 C503 1.434 . S
C505 C506 1.369 . S
C505 C507 1.419 . S
C505 H509 0.930 . S
C506 C505 1.369 . S
C506 C515 1.429 . S
C507 C505 1.419 . S
C507 C508 1.363 . S
C507 H510 0.929 . S
C508 C507 1.363 . S
C508 C514 1.428 . S
H509 C505 0.930 . S
H510 C507 0.929 . S
S511 N512 1.613 . S
S511 N513 1.610 . S
N512 S511 1.613 . S
N512 C515 1.350 . S
N513 S511 1.610 . S
N513 C514 1.351 . S
C514 C508 1.428 . S
C514 N513 1.351 . S
C514 C515 1.434 . S
C515 C506 1.429 . S
C515 N512 1.350 . S
C515 C514 1.434 . S
C516 C517 1.369 1_554 S
C516 C518 1.419 1_545 S
C516 H520 0.930 . S
C517 C516 1.369 1_556 S
C517 C526 1.429 . S
C518 C516 1.419 1_565 S
C518 C519 1.363 . S
C518 H521 0.929 . S
C519 C518 1.363 . S
C519 C525 1.428 1_554 S
H520 C516 0.930 . S
H521 C518 0.929 . S
S522 N523 1.613 1_565 S
S522 N524 1.610 . S
N523 S522 1.613 1_545 S
N523 C526 1.350 . S
N524 S522 1.610 . S
N524 C525 1.351 . S
C525 C519 1.428 1_556 S
C525 N524 1.351 . S
C525 C526 1.434 1_565 S
C526 C517 1.429 . S
C526 N523 1.350 . S
C526 C525 1.434 1_545 S
C527 C528 1.369 . S
C527 C529 1.419 1_565 S
C527 H531 0.930 . S
C528 C527 1.369 . S
C528 C537 1.429 . S
C529 C527 1.419 1_545 S
C529 C530 1.363 . S
C529 H532 0.929 . S
C530 C529 1.363 . S
C530 C536 1.428 . S
H531 C527 0.930 . S
H532 C529 0.929 . S
S533 N534 1.613 1_545 S
S533 N535 1.610 . S
N534 S533 1.613 1_565 S
N534 C537 1.350 . S
N535 S533 1.610 . S
N535 C536 1.351 . S
C536 C530 1.428 . S
C536 N535 1.351 . S
C536 C537 1.434 1_545 S
C537 C528 1.429 . S
C537 N534 1.350 . S
C537 C536 1.434 1_565 S
C538 C539 1.369 1_556 S
C538 C540 1.419 1_565 S
C538 H542 0.930 . S
C539 C538 1.369 1_554 S
C539 C548 1.429 . S
C540 C538 1.419 1_545 S
C540 C541 1.363 . S
C540 H543 0.929 . S
C541 C540 1.363 . S
C541 C547 1.428 1_556 S
H542 C538 0.930 . S
H543 C540 0.929 . S
S544 N545 1.613 1_545 S
S544 N546 1.610 . S
N545 S544 1.613 1_565 S
N545 C548 1.350 . S
N546 S544 1.610 . S
N546 C547 1.351 . S
C547 C541 1.428 1_554 S
C547 N546 1.351 . S
C547 C548 1.434 1_545 S
C548 C539 1.429 . S
C548 N545 1.350 . S
C548 C547 1.434 1_565 S
C549 C550 1.369 . S
C549 C551 1.419 1_545 S
C549 H553 0.930 . S
C550 C549 1.369 . S
C550 C559 1.429 . S
C551 C549 1.419 1_565 S
C551 C552 1.363 . S
C551 H554 0.929 . S
C552 C551 1.363 . S
C552 C558 1.428 . S
H553 C549 0.930 . S
H554 C551 0.929 . S
S555 N556 1.613 1_565 S
S555 N557 1.610 . S
N556 S555 1.613 1_545 S
N556 C559 1.350 . S
N557 S555 1.610 . S
N557 C558 1.351 . S
C558 C552 1.428 . S
C558 N557 1.351 . S
C558 C559 1.434 1_565 S
C559 C550 1.429 . S
C559 N556 1.350 . S
C559 C558 1.434 1_545 S
C209 C3 1.480 . S
C211 C83 1.477 . S
C220 C16 1.479 . S
C222 C96 1.476 . S
C231 C55 1.478 . S
C233 C31 1.480 . S
C242 C70 1.476 . S
C244 C44 1.479 . S
C253 C187 1.476 . S
C255 C109 1.479 . S
C264 C200 1.476 . S
C266 C120 1.478 . S
C275 C135 1.478 . S
C277 C161 1.476 . S
C286 C146 1.480 . S
C288 C174 1.478 . S
C297 C4 1.576 . S
C299 C68 1.580 . S
C308 C17 1.579 . S
C310 C57 1.583 . S
C319 C36 1.579 . S
C321 C94 1.583 . S
C330 C81 1.583 . S
C332 C49 1.580 . S
C341 C172 1.581 . S
C343 C114 1.580 . S
C352 C159 1.581 . S
C354 C121 1.580 . S
C363 C140 1.578 . S
C365 C198 1.583 . S
C374 C185 1.580 . S
C376 C147 1.580 . S
C385 C160 1.508 . S
C387 C10 1.508 . S
C396 C23 1.509 . S
C398 C173 1.505 . S
C407 C186 1.509 . S
C409 C30 1.508 . S
C418 C199 1.509 . S
C420 C43 1.508 . S
C429 C108 1.512 . S
C431 C62 1.504 . S
C440 C127 1.509 . S
C442 C69 1.505 . S
C451 C82 1.508 . S
C453 C134 1.508 . S
C462 C95 1.503 . S
C464 C153 1.511 . S
C473 C29 1.703 . S
C475 C5 1.699 . S
C484 C18 1.702 . S
C486 C42 1.700 . S
C495 C88 1.436 . S
C497 C56 1.433 . S
C506 C75 1.434 . S
C508 C101 1.434 . S
C517 C133 1.699 . S
C519 C107 1.701 . S
C528 C148 1.699 . S
C530 C122 1.702 . S
C539 C192 1.432 . S
C541 C166 1.436 . S
C550 C205 1.433 . S
C552 C179 1.437 . S
