# Generated by pormake.
# Topology umw, (4)-cn, num edge types: 1
# Building blocks:
#     Node 0, Type 0, BuildingBlock: ICAMEG_clean_sbu_1, # of connection points: 4
#     Node 1, Type 0, BuildingBlock: ICAMEG_clean_sbu_1, # of connection points: 4
#     Node 2, Type 0, BuildingBlock: ICAMEG_clean_sbu_1, # of connection points: 4
#     Node 3, Type 0, BuildingBlock: ICAMEG_clean_sbu_1, # of connection points: 4
#     Node 4, Type 0, BuildingBlock: ICAMEG_clean_sbu_1, # of connection points: 4
#     Node 5, Type 0, BuildingBlock: ICAMEG_clean_sbu_1, # of connection points: 4
#     Node 6, Type 0, BuildingBlock: ICAMEG_clean_sbu_1, # of connection points: 4
#     Node 7, Type 0, BuildingBlock: ICAMEG_clean_sbu_1, # of connection points: 4
#     Edge 8, Type (0, 0), BuildingBlock: TEMPAE_clean_linker_10, # of connection points: 2
#     Edge 9, Type (0, 0), BuildingBlock: TEMPAE_clean_linker_10, # of connection points: 2
#     Edge 10, Type (0, 0), BuildingBlock: TEMPAE_clean_linker_10, # of connection points: 2
#     Edge 11, Type (0, 0), BuildingBlock: TEMPAE_clean_linker_10, # of connection points: 2
#     Edge 12, Type (0, 0), BuildingBlock: TEMPAE_clean_linker_10, # of connection points: 2
#     Edge 13, Type (0, 0), BuildingBlock: TEMPAE_clean_linker_10, # of connection points: 2
#     Edge 14, Type (0, 0), BuildingBlock: TEMPAE_clean_linker_10, # of connection points: 2
#     Edge 15, Type (0, 0), BuildingBlock: TEMPAE_clean_linker_10, # of connection points: 2
#     Edge 16, Type (0, 0), BuildingBlock: TEMPAE_clean_linker_10, # of connection points: 2
#     Edge 17, Type (0, 0), BuildingBlock: TEMPAE_clean_linker_10, # of connection points: 2
#     Edge 18, Type (0, 0), BuildingBlock: TEMPAE_clean_linker_10, # of connection points: 2
#     Edge 19, Type (0, 0), BuildingBlock: TEMPAE_clean_linker_10, # of connection points: 2
#     Edge 20, Type (0, 0), BuildingBlock: TEMPAE_clean_linker_10, # of connection points: 2
#     Edge 21, Type (0, 0), BuildingBlock: TEMPAE_clean_linker_10, # of connection points: 2
#     Edge 22, Type (0, 0), BuildingBlock: TEMPAE_clean_linker_10, # of connection points: 2
#     Edge 23, Type (0, 0), BuildingBlock: TEMPAE_clean_linker_10, # of connection points: 2
# Relax obj value: 0.119
# Max RMSD: 0.128
# Mean RMSD: 0.128
data_MOF--net-umw--node1-ICAMEG_clean_sbu_1--edge1-TEMPAE_clean_linker_10
_symmetry_space_group_name_H-M    P1
_symmetry_Int_Tables_number       1
_symmetry_cell_setting            triclinic
loop_
_symmetry_equiv_pos_as_xyz
'x, y, z'
_cell_length_a     43.323292
_cell_length_b     43.317714
_cell_length_c     29.1124
_cell_angle_alpha  89.982854
_cell_angle_beta   90.01228
_cell_angle_gamma 90.035
loop_
_atom_site_label
_atom_site_type_symbol
_atom_site_fract_x
_atom_site_fract_y
_atom_site_fract_z
_atom_type_partial_charge
Co0 Co 0.46678 0.17955 0.30559 0.0
Co1 Co 0.40153 0.1682 0.37097 0.0
O2 O 0.42386 0.18878 0.32126 0.0
C3 C 0.43752 0.17056 0.21428 0.0
O4 O 0.41914 0.14956 0.2319 0.0
C5 C 0.39427 0.23464 0.39196 0.0
O6 O 0.42342 0.23851 0.38117 0.0
O7 O 0.43554 0.17686 0.41482 0.0
O8 O 0.47817 0.1744 0.37125 0.0
H9 H 0.39036 0.0958 0.5048 0.0
H10 H 0.43764 0.2363 0.26859 0.0
O11 O 0.45684 0.18482 0.23937 0.0
H12 H 0.52667 0.27242 0.35949 0.0
H13 H 0.56484 0.19391 0.21523 0.0
H14 H 0.51299 0.1334 0.33625 0.0
H15 H 0.51555 0.2168 0.35234 0.0
H16 H 0.51132 0.20585 0.23791 0.0
O17 O 0.38171 0.20815 0.3888 0.0
H18 H 0.418 0.12162 0.44143 0.0
H19 H 0.33721 0.17211 0.40708 0.0
H20 H 0.56665 0.12092 0.31501 0.0
H21 H 0.44813 0.29213 0.27445 0.0
H22 H 0.59292 0.15127 0.25404 0.0
H23 H 0.49286 0.31051 0.32032 0.0
O24 O 0.45757 0.13453 0.30165 0.0
H25 H 0.32556 0.19583 0.24731 0.0
H26 H 0.3648 0.11225 0.34641 0.0
H27 H 0.32337 0.10111 0.29072 0.0
H28 H 0.30341 0.1431 0.24076 0.0
H29 H 0.36719 0.20588 0.30323 0.0
H30 H 0.30879 0.14707 0.47036 0.0
H31 H 0.33535 0.10851 0.5196 0.0
O32 O 0.4207 0.1277 0.35487 0.0
C33 C 0.46475 0.176 0.41004 0.0
C34 C 0.3785 0.11248 0.48348 0.0
C35 C 0.33273 0.14129 0.46419 0.0
N36 N 0.37916 0.14812 0.42035 0.0
C37 C 0.394 0.1271 0.44747 0.0
C38 C 0.34896 0.15543 0.42846 0.0
C39 C 0.34765 0.11965 0.4918 0.0
C40 C 0.45734 0.2441 0.28821 0.0
N41 N 0.476 0.2233 0.30998 0.0
C42 C 0.46308 0.27575 0.29157 0.0
C43 C 0.48815 0.28605 0.31738 0.0
C44 C 0.50711 0.26469 0.33941 0.0
C45 C 0.50064 0.23322 0.33534 0.0
C46 C 0.55368 0.1806 0.24196 0.0
C47 C 0.52436 0.1469 0.31 0.0
C48 C 0.52336 0.18722 0.25491 0.0
N49 N 0.50915 0.17055 0.28874 0.0
C50 C 0.55471 0.13965 0.29799 0.0
C51 C 0.56942 0.15666 0.26375 0.0
C52 C 0.4404 0.11722 0.3263 0.0
C53 C 0.334 0.17736 0.26897 0.0
C54 C 0.35632 0.13062 0.32467 0.0
C55 C 0.33281 0.12419 0.29328 0.0
C56 C 0.32161 0.14776 0.26528 0.0
N57 N 0.36829 0.15973 0.32818 0.0
C58 C 0.35749 0.18294 0.30078 0.0
Co59 Co 0.82577 0.4631 0.55838 0.0
Co60 Co 0.83418 0.39224 0.60952 0.0
O61 O 0.81318 0.42024 0.56729 0.0
C62 C 0.82543 0.44198 0.46167 0.0
O63 O 0.845 0.42001 0.47252 0.0
C64 C 0.76941 0.38741 0.64167 0.0
O65 O 0.76909 0.41762 0.64543 0.0
O66 O 0.83039 0.42253 0.66066 0.0
O67 O 0.83664 0.46768 0.62404 0.0
H68 H 0.91123 0.36333 0.73117 0.0
H69 H 0.76395 0.44252 0.52713 0.0
O70 O 0.81498 0.46006 0.49226 0.0
H71 H 0.7442 0.52556 0.63917 0.0
H72 H 0.8157 0.56971 0.49101 0.0
H73 H 0.87864 0.50153 0.58908 0.0
H74 H 0.79749 0.51045 0.61977 0.0
H75 H 0.79976 0.51587 0.50507 0.0
O76 O 0.79343 0.37365 0.62687 0.0
H77 H 0.88499 0.39851 0.6772 0.0
H78 H 0.82655 0.32563 0.63275 0.0
H79 H 0.89525 0.55529 0.57632 0.0
H80 H 0.71027 0.45711 0.54521 0.0
H81 H 0.86369 0.58979 0.52693 0.0
H82 H 0.70014 0.49885 0.6017 0.0
O83 O 0.86903 0.45027 0.54537 0.0
H84 H 0.79556 0.33053 0.47519 0.0
H85 H 0.88596 0.3546 0.57176 0.0
H86 H 0.89149 0.3181 0.5073 0.0
H87 H 0.84605 0.30578 0.45857 0.0
H88 H 0.79113 0.36713 0.53978 0.0
H89 H 0.85195 0.28973 0.68659 0.0
H90 H 0.89471 0.3085 0.73613 0.0
O91 O 0.87536 0.41009 0.59317 0.0
C92 C 0.8351 0.45158 0.66045 0.0
C93 C 0.89269 0.35485 0.70967 0.0
C94 C 0.85939 0.31355 0.68469 0.0
N95 N 0.85445 0.36407 0.65159 0.0
C96 C 0.87781 0.37464 0.67895 0.0
C97 C 0.84505 0.334 0.65435 0.0
C98 C 0.88339 0.3241 0.71246 0.0
C99 C 0.75972 0.46089 0.55143 0.0
N100 N 0.78382 0.47572 0.57217 0.0
C101 C 0.72928 0.46898 0.56166 0.0
C102 C 0.72361 0.49237 0.5934 0.0
C103 C 0.74832 0.50736 0.61445 0.0
C104 C 0.77845 0.49865 0.6034 0.0
C105 C 0.82958 0.55494 0.51273 0.0
C106 C 0.86462 0.51647 0.56791 0.0
C107 C 0.8207 0.52442 0.52078 0.0
N108 N 0.83806 0.50566 0.54832 0.0
C109 C 0.87421 0.54686 0.56065 0.0
C110 C 0.85651 0.56619 0.53289 0.0
C111 C 0.88607 0.43074 0.56621 0.0
C112 C 0.81551 0.33565 0.49624 0.0
C113 C 0.86611 0.34946 0.5506 0.0
C114 C 0.86936 0.32871 0.51422 0.0
C115 C 0.84385 0.3218 0.48691 0.0
N116 N 0.83821 0.36287 0.55962 0.0
C117 C 0.81312 0.35628 0.53293 0.0
Co118 Co 0.52727 0.82566 0.82748 0.0
Co119 Co 0.60713 0.82792 0.83489 0.0
O120 O 0.56847 0.81224 0.80851 0.0
C121 C 0.5272 0.84027 0.72866 0.0
O122 O 0.55476 0.85237 0.73412 0.0
C123 C 0.61022 0.76155 0.85611 0.0
O124 O 0.58111 0.76365 0.86819 0.0
O125 O 0.59147 0.82355 0.89889 0.0
O126 O 0.5397 0.82409 0.89263 0.0
H127 H 0.67211 0.89375 0.93914 0.0
H128 H 0.53345 0.77203 0.76507 0.0
O129 O 0.51349 0.82755 0.7623 0.0
H130 H 0.48172 0.73167 0.90355 0.0
H131 H 0.41109 0.82627 0.82191 0.0
H132 H 0.50351 0.86986 0.89665 0.0
H133 H 0.49556 0.78675 0.89783 0.0
H134 H 0.46318 0.8097 0.79827 0.0
O135 O 0.62393 0.78486 0.83877 0.0
H136 H 0.62348 0.87403 0.90621 0.0
H137 H 0.67353 0.81367 0.81877 0.0
H138 H 0.45184 0.88675 0.92181 0.0
H139 H 0.51964 0.71681 0.76911 0.0
H140 H 0.40518 0.86493 0.88428 0.0
H141 H 0.4937 0.6963 0.83881 0.0
O142 O 0.53955 0.86996 0.82406 0.0
H143 H 0.62761 0.79232 0.6736 0.0
H144 H 0.63799 0.87864 0.78295 0.0
H145 H 0.65638 0.88505 0.70332 0.0
H146 H 0.65125 0.84167 0.64805 0.0
H147 H 0.60931 0.78699 0.7535 0.0
H148 H 0.72272 0.83243 0.85115 0.0
H149 H 0.7222 0.87289 0.91161 0.0
O150 O 0.59118 0.8711 0.8329 0.0
C151 C 0.56444 0.82298 0.9159 0.0
C152 C 0.67265 0.87624 0.91264 0.0
C153 C 0.70105 0.84179 0.8633 0.0
N154 N 0.64569 0.84307 0.86016 0.0
C155 C 0.64519 0.8651 0.89371 0.0
C156 C 0.67313 0.83124 0.84514 0.0
C157 C 0.70074 0.86449 0.89722 0.0
C158 C 0.52186 0.76331 0.79529 0.0
N159 N 0.51517 0.78261 0.83102 0.0
C160 C 0.51422 0.73201 0.79747 0.0
C161 C 0.4997 0.72051 0.83662 0.0
C162 C 0.49298 0.74034 0.87296 0.0
C163 C 0.50093 0.7715 0.86955 0.0
C164 C 0.43124 0.83593 0.83854 0.0
C165 C 0.4833 0.86014 0.88033 0.0
C166 C 0.4608 0.82672 0.82519 0.0
N167 N 0.48635 0.8387 0.84621 0.0
C168 C 0.45411 0.86985 0.89464 0.0
C169 C 0.42794 0.85761 0.87355 0.0
C170 C 0.5651 0.88437 0.82819 0.0
C171 C 0.63004 0.81136 0.6974 0.0
C172 C 0.63563 0.85968 0.75906 0.0
C173 C 0.64614 0.86343 0.71405 0.0
C174 C 0.64327 0.83907 0.68307 0.0
N175 N 0.62272 0.83241 0.77285 0.0
C176 C 0.61983 0.80843 0.74269 0.0
Co177 Co 0.16944 0.53132 0.07899 0.0
Co178 Co 0.17348 0.61066 0.08653 0.0
O179 O 0.18803 0.57101 0.06262 0.0
C180 C 0.16638 0.53033 0.97811 0.0
O181 O 0.15471 0.55826 0.98043 0.0
C182 C 0.23893 0.61203 0.11421 0.0
O183 O 0.23485 0.58409 0.13062 0.0
O184 O 0.17535 0.59523 0.15081 0.0
O185 O 0.16347 0.54493 0.14341 0.0
H186 H 0.10817 0.68002 0.18491 0.0
H187 H 0.23026 0.53227 0.0324 0.0
O188 O 0.17469 0.51647 0.01459 0.0
H189 H 0.24852 0.48115 0.18136 0.0
H190 H 0.16083 0.41542 0.07567 0.0
H191 H 0.11552 0.51195 0.13487 0.0
H192 H 0.19636 0.49865 0.15986 0.0
H193 H 0.18401 0.4658 0.0563 0.0
O194 O 0.21719 0.62543 0.09244 0.0
H195 H 0.12627 0.63009 0.1544 0.0
H196 H 0.19158 0.6761 0.06982 0.0
H197 H 0.09179 0.46207 0.15545 0.0
H198 H 0.28279 0.51474 0.05228 0.0
H199 H 0.11446 0.41334 0.12577 0.0
H200 H 0.29218 0.48908 0.12731 0.0
O201 O 0.12753 0.54666 0.06359 0.0
H202 H 0.21462 0.62751 0.92722 0.0
H203 H 0.12594 0.64349 0.0307 0.0
H204 H 0.12278 0.66131 0.95035 0.0
H205 H 0.16736 0.65337 0.89803 0.0
H206 H 0.21668 0.60982 0.00777 0.0
H207 H 0.17446 0.72652 0.09982 0.0
H208 H 0.13235 0.72869 0.15762 0.0
O209 O 0.12939 0.59697 0.08225 0.0
C210 C 0.16822 0.569 0.1674 0.0
C211 C 0.12643 0.67938 0.15958 0.0
C212 C 0.16367 0.70548 0.11186 0.0
N213 N 0.15965 0.65021 0.10992 0.0
C214 C 0.13668 0.65119 0.14203 0.0
C215 C 0.17329 0.67686 0.09504 0.0
C216 C 0.14004 0.70668 0.14429 0.0
C217 C 0.23414 0.52081 0.06489 0.0
N218 N 0.21026 0.51633 0.09478 0.0
C219 C 0.26394 0.51106 0.07605 0.0
C220 C 0.2692 0.4967 0.11818 0.0
C221 C 0.24472 0.49225 0.14853 0.0
C222 C 0.21524 0.50228 0.1362 0.0
C223 C 0.15077 0.43649 0.08888 0.0
C224 C 0.12564 0.49084 0.12203 0.0
C225 C 0.16375 0.46508 0.07794 0.0
N226 N 0.15126 0.49177 0.09469 0.0
C227 C 0.11205 0.46267 0.13371 0.0
C228 C 0.12476 0.43534 0.117 0.0
C229 C 0.11462 0.57261 0.071 0.0
C230 C 0.19507 0.63117 0.94972 0.0
C231 C 0.1454 0.63989 0.0081 0.0
C232 C 0.14351 0.65009 0.96267 0.0
C233 C 0.16854 0.64564 0.93334 0.0
N234 N 0.17152 0.62574 0.02389 0.0
C235 C 0.19616 0.62132 -0.00462 0.0
Co236 Co 0.46368 0.82217 0.3207 0.0
Co237 Co 0.39658 0.83392 0.25913 0.0
O238 O 0.42008 0.81426 0.30837 0.0
C239 C 0.43836 0.83909 0.41214 0.0
O240 O 0.42067 0.85999 0.39282 0.0
C241 C 0.38954 0.76771 0.23561 0.0
O242 O 0.41973 0.76529 0.23739 0.0
O243 O 0.4296 0.82527 0.21325 0.0
O244 O 0.47333 0.82251 0.25433 0.0
H245 H 0.38127 0.90416 0.12365 0.0
H246 H 0.43171 0.7697 0.3655 0.0
O247 O 0.45539 0.82164 0.38788 0.0
H248 H 0.51742 0.72308 0.27836 0.0
H249 H 0.56326 0.80825 0.40754 0.0
H250 H 0.51157 0.86304 0.2805 0.0
H251 H 0.50975 0.77947 0.27849 0.0
H252 H 0.50854 0.79807 0.38976 0.0
O253 O 0.37649 0.7934 0.24442 0.0
H254 H 0.41076 0.87966 0.18627 0.0
H255 H 0.33144 0.82886 0.2269 0.0
H256 H 0.56643 0.87364 0.29678 0.0
H257 H 0.43869 0.71319 0.36669 0.0
H258 H 0.59262 0.84618 0.36074 0.0
H259 H 0.48175 0.68952 0.32279 0.0
O260 O 0.45709 0.8678 0.31884 0.0
H261 H 0.32369 0.80778 0.3876 0.0
H262 H 0.36048 0.89008 0.28408 0.0
H263 H 0.32038 0.90189 0.34154 0.0
H264 H 0.30165 0.86055 0.39373 0.0
H265 H 0.36398 0.79705 0.32989 0.0
H266 H 0.30115 0.85262 0.16446 0.0
H267 H 0.32604 0.89066 0.11242 0.0
O268 O 0.41604 0.8746 0.27274 0.0
C269 C 0.45887 0.82284 0.21636 0.0
C270 C 0.37013 0.8877 0.14619 0.0
C271 C 0.32517 0.85874 0.16906 0.0
N272 N 0.37277 0.85306 0.21043 0.0
C273 C 0.38669 0.87382 0.1818 0.0
C274 C 0.34246 0.84532 0.2043 0.0
C275 C 0.33916 0.88009 0.13988 0.0
C276 C 0.45062 0.75958 0.34654 0.0
N277 N 0.47032 0.77788 0.32198 0.0
C278 C 0.4544 0.72757 0.34725 0.0
C279 C 0.47855 0.7143 0.32257 0.0
C280 C 0.49855 0.73311 0.29761 0.0
C281 C 0.49404 0.76503 0.29767 0.0
C282 C 0.55212 0.82032 0.37952 0.0
C283 C 0.52286 0.85082 0.30817 0.0
C284 C 0.52111 0.81471 0.36935 0.0
N285 N 0.50692 0.82978 0.33389 0.0
C286 C 0.55391 0.85699 0.31732 0.0
C287 C 0.56858 0.8416 0.35324 0.0
C288 C 0.43834 0.88506 0.29674 0.0
C289 C 0.3316 0.82597 0.36498 0.0
C290 C 0.35254 0.87199 0.30678 0.0
C291 C 0.32977 0.8788 0.33918 0.0
C292 C 0.31927 0.85559 0.36843 0.0
N293 N 0.36444 0.84286 0.30351 0.0
C294 C 0.35433 0.82 0.33215 0.0
Co295 Co 0.17946 0.46512 0.57217 0.0
Co296 Co 0.17226 0.40038 0.50453 0.0
O297 O 0.19041 0.4225 0.55664 0.0
C298 C 0.16695 0.43765 0.66436 0.0
O299 O 0.1451 0.42021 0.64691 0.0
C300 C 0.23968 0.39292 0.49019 0.0
O301 O 0.24373 0.42161 0.50326 0.0
O302 O 0.18266 0.43485 0.46232 0.0
O303 O 0.17608 0.47676 0.50633 0.0
H304 H 0.10637 0.39016 0.3633 0.0
H305 H 0.23581 0.43758 0.61298 0.0
O306 O 0.18304 0.45515 0.63875 0.0
H307 H 0.27203 0.52825 0.5258 0.0
H308 H 0.18791 0.56315 0.66431 0.0
H309 H 0.13303 0.51013 0.53858 0.0
H310 H 0.21665 0.51525 0.52857 0.0
H311 H 0.2022 0.51014 0.64205 0.0
O312 O 0.2129 0.38085 0.49007 0.0
H313 H 0.129 0.4173 0.42975 0.0
H314 H 0.17803 0.33633 0.46775 0.0
H315 H 0.11826 0.56328 0.55937 0.0
H316 H 0.29138 0.44998 0.61159 0.0
H317 H 0.14576 0.59014 0.6227 0.0
H318 H 0.30982 0.49554 0.56761 0.0
O319 O 0.13466 0.45454 0.57271 0.0
H320 H 0.19494 0.32346 0.6291 0.0
H321 H 0.11562 0.36298 0.52277 0.0
H322 H 0.10242 0.3209 0.57635 0.0
H323 H 0.14226 0.30079 0.62992 0.0
H324 H 0.20707 0.36574 0.57519 0.0
H325 H 0.15618 0.30841 0.40145 0.0
H326 H 0.11996 0.33532 0.34879 0.0
O327 O 0.13096 0.41904 0.51689 0.0
C328 C 0.18027 0.46394 0.46753 0.0
C329 C 0.12204 0.37815 0.38609 0.0
C330 C 0.15002 0.33228 0.40747 0.0
N331 N 0.15458 0.37834 0.45284 0.0
C332 C 0.13485 0.39337 0.42385 0.0
C333 C 0.16236 0.34823 0.44491 0.0
C334 C 0.1297 0.34739 0.37795 0.0
C335 C 0.24362 0.45762 0.59416 0.0
N336 N 0.22299 0.47569 0.57097 0.0
C337 C 0.27513 0.46445 0.59333 0.0
C338 C 0.28546 0.48999 0.56858 0.0
C339 C 0.26428 0.50833 0.54507 0.0
C340 C 0.23295 0.50078 0.54663 0.0
C341 C 0.17582 0.55173 0.63656 0.0
C342 C 0.1453 0.52175 0.56591 0.0
C343 C 0.18377 0.52168 0.62384 0.0
N344 N 0.16866 0.50714 0.58873 0.0
C345 C 0.13675 0.55181 0.57764 0.0
C346 C 0.15217 0.56686 0.6132 0.0
C347 C 0.11883 0.43767 0.54556 0.0
C348 C 0.1774 0.33197 0.60585 0.0
C349 C 0.13306 0.35445 0.54611 0.0
C350 C 0.12546 0.33056 0.57629 0.0
C351 C 0.14783 0.31928 0.60632 0.0
N352 N 0.16215 0.36669 0.54575 0.0
C353 C 0.18417 0.35583 0.57517 0.0
Co354 Co 0.52881 0.17281 0.79993 0.0
Co355 Co 0.6083 0.17337 0.79364 0.0
O356 O 0.56911 0.1902 0.8158 0.0
C357 C 0.52756 0.17241 0.90056 0.0
O358 O 0.55525 0.16015 0.8987 0.0
C359 C 0.61216 0.23812 0.76273 0.0
O360 O 0.58418 0.23464 0.74616 0.0
O361 O 0.59344 0.17398 0.72904 0.0
O362 O 0.5426 0.16455 0.73614 0.0
H363 H 0.67571 0.10249 0.70097 0.0
H364 H 0.53185 0.23475 0.84292 0.0
O365 O 0.51385 0.18028 0.86376 0.0
H366 H 0.48255 0.25101 0.69211 0.0
H367 H 0.41266 0.16891 0.802 0.0
H368 H 0.50761 0.1183 0.74687 0.0
H369 H 0.49781 0.19881 0.71696 0.0
H370 H 0.46381 0.19055 0.82081 0.0
O371 O 0.62479 0.21629 0.78529 0.0
H372 H 0.62633 0.12339 0.72941 0.0
H373 H 0.67426 0.18942 0.8103 0.0
H374 H 0.45695 0.09606 0.72688 0.0
H375 H 0.51657 0.28737 0.81966 0.0
H376 H 0.40901 0.1214 0.75453 0.0
H377 H 0.49184 0.29575 0.74369 0.0
O378 O 0.54229 0.1308 0.81817 0.0
H379 H 0.62563 0.21846 0.95044 0.0
H380 H 0.63878 0.12624 0.8531 0.0
H381 H 0.65584 0.12474 0.93391 0.0
H382 H 0.64933 0.17111 0.98315 0.0
H383 H 0.60864 0.21885 0.86953 0.0
H384 H 0.72416 0.16949 0.78234 0.0
H385 H 0.72509 0.1256 0.72745 0.0
O386 O 0.59282 0.12997 0.80053 0.0
C387 C 0.56706 0.16751 0.7124 0.0
C388 C 0.67561 0.12152 0.72505 0.0
C389 C 0.70281 0.15915 0.77067 0.0
N390 N 0.64743 0.15731 0.77192 0.0
C391 C 0.64773 0.13335 0.74142 0.0
C392 C 0.67448 0.17036 0.78633 0.0
C393 C 0.70331 0.13452 0.73988 0.0
C394 C 0.52079 0.23821 0.81004 0.0
N395 N 0.51558 0.21374 0.78148 0.0
C396 C 0.51231 0.26805 0.79696 0.0
C397 C 0.49847 0.27274 0.75429 0.0
C398 C 0.49326 0.24766 0.72534 0.0
C399 C 0.50203 0.21815 0.73957 0.0
C400 C 0.43338 0.15769 0.78968 0.0
C401 C 0.48686 0.12957 0.75879 0.0
C402 C 0.4624 0.16979 0.80031 0.0
N403 N 0.48866 0.15582 0.78468 0.0
C404 C 0.45823 0.11682 0.74747 0.0
C405 C 0.43135 0.13104 0.76303 0.0
C406 C 0.56776 0.11665 0.81242 0.0
C407 C 0.62867 0.19814 0.9293 0.0
C408 C 0.63579 0.14648 0.87435 0.0
C409 C 0.64556 0.14552 0.92005 0.0
C410 C 0.64192 0.17155 0.94765 0.0
N411 N 0.62283 0.17266 0.85662 0.0
C412 C 0.6192 0.19828 0.88343 0.0
Co413 Co 0.82754 0.53572 0.05342 0.0
Co414 Co 0.82547 0.61292 0.02725 0.0
O415 O 0.80843 0.57649 0.05778 0.0
C416 C 0.82175 0.54252 0.15371 0.0
O417 O 0.83548 0.56946 0.15009 0.0
C418 C 0.76157 0.61311 0.99189 0.0
O419 O 0.76563 0.58404 0.98062 0.0
O420 O 0.82643 0.59098 0.9673 0.0
O421 O 0.84 0.54313 0.98891 0.0
H422 H 0.89771 0.67001 0.92217 0.0
H423 H 0.76285 0.54101 0.08562 0.0
O424 O 0.81571 0.52678 0.11802 0.0
H425 H 0.75817 0.47629 0.94642 0.0
H426 H 0.83355 0.42123 0.08205 0.0
H427 H 0.88609 0.51152 0.01464 0.0
H428 H 0.80807 0.49568 0.97515 0.0
H429 H 0.8096 0.47281 0.08553 0.0
O430 O 0.78271 0.62775 0.01318 0.0
H431 H 0.87652 0.6242 0.96144 0.0
H432 H 0.80876 0.67966 0.02687 0.0
H433 H 0.91071 0.46032 0.01002 0.0
H434 H 0.71245 0.52175 0.05839 0.0
H435 H 0.88441 0.41472 0.0439 0.0
H436 H 0.7099 0.48924 0.98821 0.0
O437 O 0.86785 0.55258 0.07422 0.0
H438 H 0.77699 0.64684 0.17555 0.0
H439 H 0.87105 0.65034 0.08028 0.0
H440 H 0.87065 0.6764 0.1556 0.0
H441 H 0.82334 0.6748 0.20375 0.0
H442 H 0.7785 0.62086 0.10014 0.0
H443 H 0.82895 0.72604 0.98789 0.0
H444 H 0.87386 0.7214 0.9353 0.0
O445 O 0.86876 0.59898 0.03978 0.0
C446 C 0.83593 0.56381 0.95856 0.0
C447 C 0.87823 0.67236 0.94519 0.0
C448 C 0.83962 0.7038 0.98203 0.0
N449 N 0.84173 0.64932 -0.0031 0.0
C450 C 0.86623 0.64652 0.96767 0.0
C451 C 0.82826 0.67746 0.00395 0.0
C452 C 0.86481 0.70118 0.95252 0.0
C453 C 0.76194 0.5266 0.05534 0.0
N454 N 0.78837 0.51936 0.03217 0.0
C455 C 0.73333 0.51587 0.03997 0.0
C456 C 0.73191 0.49767 0.00055 0.0
C457 C 0.75898 0.4904 0.97708 0.0
C458 C 0.78717 0.50152 0.99347 0.0
C459 C 0.8452 0.44091 0.06707 0.0
C460 C 0.87439 0.49177 0.02919 0.0
C461 C 0.83179 0.47019 0.06901 0.0
N462 N 0.84631 0.49513 0.04998 0.0
C463 C 0.8885 0.46284 0.02659 0.0
C464 C 0.87374 0.43727 0.04565 0.0
C465 C 0.88204 0.5767 0.06061 0.0
C466 C 0.79771 0.64777 0.15483 0.0
C467 C 0.85041 0.64945 0.10111 0.0
C468 C 0.8503 0.66431 0.14368 0.0
C469 C 0.82374 0.66342 0.17066 0.0
N470 N 0.82476 0.63422 0.0858 0.0
C471 C 0.79866 0.6332 0.11206 0.0
C472 C 0.47252 0.18583 0.49374 0.0
C473 C 0.48439 0.17608 0.45143 0.0
C474 C 0.49076 0.18498 0.53344 0.0
C475 C 0.52136 0.17359 0.53075 0.0
C476 C 0.53368 0.16429 0.48804 0.0
C477 C 0.5151 0.16586 0.44877 0.0
C478 C 0.47703 0.19554 0.57849 0.0
C479 C 0.56602 0.15157 0.48412 0.0
C480 C 0.56993 0.19133 0.63538 0.0
C481 C 0.5631 0.16569 0.66272 0.0
C482 C 0.55797 0.19358 0.59074 0.0
C483 C 0.53937 0.16931 0.57345 0.0
C484 C 0.53493 0.14216 0.59968 0.0
C485 C 0.54655 0.14087 0.6444 0.0
C486 C 0.56288 0.22299 0.56393 0.0
C487 C 0.5158 0.11552 0.58203 0.0
H488 H 0.44893 0.19405 0.49589 0.0
H489 H 0.52444 0.15824 0.41616 0.0
H490 H 0.47487 0.1756 0.60221 0.0
H491 H 0.49242 0.21267 0.59519 0.0
H492 H 0.45384 0.20606 0.57403 0.0
H493 H 0.57293 0.14761 0.44785 0.0
H494 H 0.58283 0.16757 0.50022 0.0
H495 H 0.56751 0.12932 0.50289 0.0
H496 H 0.58237 0.21066 0.65017 0.0
H497 H 0.54128 0.12116 0.66602 0.0
H498 H 0.54117 0.23657 0.56385 0.0
H499 H 0.56877 0.21787 0.52765 0.0
H500 H 0.58146 0.23748 0.57904 0.0
H501 H 0.49109 0.12223 0.58151 0.0
H502 H 0.51827 0.09462 0.60386 0.0
H503 H 0.52251 0.10958 0.54634 0.0
C504 C 0.85399 0.49674 0.70454 0.0
C505 C 0.83827 0.4684 0.70406 0.0
C506 C 0.85532 0.51472 0.74428 0.0
C507 C 0.84036 0.50417 0.78438 0.0
C508 C 0.82483 0.47537 0.78447 0.0
C509 C 0.82415 0.45762 0.74419 0.0
C510 C 0.87258 0.54504 0.74326 0.0
C511 C 0.80854 0.46358 0.82686 0.0
C512 C 0.86422 0.53323 0.90107 0.0
C513 C 0.84037 0.55398 0.911 0.0
C514 C 0.86521 0.51777 0.85904 0.0
C515 C 0.8415 0.523 0.82662 0.0
C516 C 0.81827 0.54523 0.83548 0.0
C517 C 0.81811 0.56074 0.87774 0.0
C518 C 0.89068 0.49469 0.85037 0.0
C519 C 0.7926 0.55124 0.80155 0.0
H520 H 0.86522 0.50501 0.67364 0.0
H521 H 0.81181 0.43584 0.74372 0.0
H522 H 0.85667 0.56427 0.75172 0.0
H523 H 0.89105 0.54499 0.76966 0.0
H524 H 0.8832 0.54972 0.70923 0.0
H525 H 0.79717 0.44092 0.821 0.0
H526 H 0.82526 0.46111 0.85549 0.0
H527 H 0.79079 0.48046 0.838 0.0
H528 H 0.88144 0.52816 0.92705 0.0
H529 H 0.79947 0.57651 0.88592 0.0
H530 H 0.90171 0.49912 0.81662 0.0
H531 H 0.88085 0.47105 0.84924 0.0
H532 H 0.90875 0.49538 0.87745 0.0
H533 H 0.80226 0.55645 0.76712 0.0
H534 H 0.77758 0.57072 0.81231 0.0
H535 H 0.77814 0.53022 0.79807 0.0
C536 C 0.50926 0.81405 0.17698 0.0
C537 C 0.47754 0.82064 0.17404 0.0
C538 C 0.52774 0.8129 0.13765 0.0
C539 C 0.51429 0.81882 0.09441 0.0
C540 C 0.48233 0.82536 0.09098 0.0
C541 C 0.46426 0.82604 0.1309 0.0
C542 C 0.56167 0.80552 0.1424 0.0
C543 C 0.46729 0.83198 0.04518 0.0
C544 C 0.56066 0.84641 0.99253 0.0
C545 C 0.56048 0.81993 0.96524 0.0
C546 C 0.54724 0.84595 0.0363 0.0
C547 C 0.53352 0.81832 0.05247 0.0
C548 C 0.53557 0.79092 0.02621 0.0
C549 C 0.54887 0.79215 0.98249 0.0
C550 C 0.54542 0.8756 0.0634 0.0
C551 C 0.52154 0.76096 0.04257 0.0
H552 H 0.51984 0.80991 0.21011 0.0
H553 H 0.43986 0.8313 0.12834 0.0
H554 H 0.56755 0.78506 0.12122 0.0
H555 H 0.57572 0.8251 0.12945 0.0
H556 H 0.5684 0.8008 0.17856 0.0
H557 H 0.44221 0.83686 0.04852 0.0
H558 H 0.47858 0.85214 0.0287 0.0
H559 H 0.47032 0.81198 0.02182 0.0
H560 H 0.56912 0.86796 0.97828 0.0
H561 H 0.54836 0.77191 0.96054 0.0
H562 H 0.55229 0.87168 0.09963 0.0
H563 H 0.52122 0.88401 0.06358 0.0
H564 H 0.56034 0.89396 0.04862 0.0
H565 H 0.52801 0.75635 0.0788 0.0
H566 H 0.52888 0.74105 0.02113 0.0
H567 H 0.496 0.76264 0.04111 0.0
C568 C 0.19043 0.47243 0.38393 0.0
C569 C 0.18115 0.48409 0.42662 0.0
C570 C 0.18959 0.49102 0.34455 0.0
C571 C 0.1788 0.5218 0.34798 0.0
C572 C 0.17032 0.53401 0.39113 0.0
C573 C 0.17178 0.51506 0.43002 0.0
C574 C 0.19922 0.47737 0.29899 0.0
C575 C 0.15835 0.56659 0.39591 0.0
C576 C 0.19432 0.57086 0.24292 0.0
C577 C 0.16784 0.56457 0.2171 0.0
C578 C 0.19768 0.55847 0.28717 0.0
C579 C 0.17371 0.53999 0.30563 0.0
C580 C 0.14582 0.53605 0.28101 0.0
C581 C 0.14339 0.54812 0.23666 0.0
C582 C 0.22783 0.56291 0.31228 0.0
C583 C 0.11948 0.51705 0.29993 0.0
H584 H 0.19799 0.44866 0.38111 0.0
H585 H 0.16462 0.52435 0.46288 0.0
H586 H 0.17881 0.4754 0.27613 0.0
H587 H 0.21611 0.49272 0.28166 0.0
H588 H 0.20967 0.4541 0.30287 0.0
H589 H 0.15554 0.57351 0.43242 0.0
H590 H 0.17417 0.58315 0.37885 0.0
H591 H 0.13561 0.56851 0.3786 0.0
H592 H 0.21335 0.58323 0.22719 0.0
H593 H 0.123 0.54329 0.21623 0.0
H594 H 0.24118 0.54106 0.31122 0.0
H595 H 0.22374 0.56858 0.34892 0.0
H596 H 0.24209 0.58146 0.2966 0.0
H597 H 0.12607 0.4923 0.30015 0.0
H598 H 0.09812 0.51962 0.27915 0.0
H599 H 0.11437 0.5238 0.33589 0.0
C600 C 0.35233 0.25562 0.44099 0.0
C601 C 0.37564 0.26083 0.40858 0.0
C602 C 0.33314 0.27968 0.45573 0.0
C603 C 0.33669 0.30948 0.43642 0.0
C604 C 0.36063 0.31502 0.40427 0.0
C605 C 0.38019 0.29065 0.39122 0.0
C606 C 0.30846 0.27294 0.491 0.0
C607 C 0.36459 0.34623 0.38198 0.0
C608 C 0.26165 0.35414 0.43685 0.0
C609 C 0.26589 0.37423 0.47399 0.0
C610 C 0.2853 0.33433 0.42255 0.0
C611 C 0.31352 0.3338 0.44708 0.0
C612 C 0.31819 0.35461 0.48404 0.0
C613 C 0.29439 0.37501 0.49662 0.0
C614 C 0.27964 0.3132 0.38214 0.0
C615 C 0.3476 0.35415 0.51181 0.0
H616 H 0.34906 0.2326 0.45485 0.0
H617 H 0.39817 0.2946 0.36598 0.0
H618 H 0.30929 0.29027 0.51903 0.0
H619 H 0.28536 0.27454 0.47476 0.0
H620 H 0.31096 0.24955 0.50623 0.0
H621 H 0.38576 0.34745 0.36052 0.0
H622 H 0.34431 0.35117 0.35987 0.0
H623 H 0.36566 0.36463 0.4084 0.0
H624 H 0.23965 0.35382 0.41905 0.0
H625 H 0.29752 0.39049 0.52552 0.0
H626 H 0.27805 0.28896 0.39422 0.0
H627 H 0.29919 0.31451 0.35758 0.0
H628 H 0.25798 0.31899 0.36362 0.0
H629 H 0.34911 0.33207 0.53104 0.0
H630 H 0.34874 0.37351 0.53676 0.0
H631 H 0.36803 0.35536 0.48893 0.0
C632 C 0.74066 0.3375 0.64548 0.0
C633 C 0.74278 0.36878 0.65756 0.0
C634 C 0.71701 0.31874 0.66289 0.0
C635 C 0.6951 0.3314 0.69365 0.0
C636 C 0.69663 0.36314 0.70515 0.0
C637 C 0.72037 0.38152 0.6867 0.0
C638 C 0.71595 0.28511 0.64921 0.0
C639 C 0.67387 0.3774 0.73814 0.0
C640 C 0.62273 0.28312 0.71106 0.0
C641 C 0.63102 0.26519 0.74928 0.0
C642 C 0.64281 0.30575 0.6936 0.0
C643 C 0.67164 0.31084 0.71527 0.0
C644 C 0.67926 0.29409 0.75549 0.0
C645 C 0.65897 0.27133 0.77182 0.0
C646 C 0.63394 0.32289 0.65042 0.0
C647 C 0.70955 0.29914 0.78006 0.0
H648 H 0.75774 0.32753 0.62269 0.0
H649 H 0.72192 0.40565 0.69632 0.0
H650 H 0.71999 0.27039 0.67981 0.0
H651 H 0.6928 0.27919 0.6355 0.0
H652 H 0.73355 0.27932 0.62282 0.0
H653 H 0.67701 0.40276 0.74135 0.0
H654 H 0.64989 0.37268 0.72679 0.0
H655 H 0.67668 0.36682 0.77261 0.0
H656 H 0.60123 0.27843 0.69333 0.0
H657 H 0.66542 0.25772 0.80157 0.0
H658 H 0.64909 0.31545 0.62175 0.0
H659 H 0.63735 0.34809 0.65497 0.0
H660 H 0.60956 0.3186 0.64044 0.0
H661 H 0.72882 0.29095 0.75812 0.0
H662 H 0.71058 0.28666 0.81337 0.0
H663 H 0.71331 0.32411 0.78648 0.0
C664 C 0.71691 0.61875 0.9378 0.0
C665 C 0.73456 0.63041 0.97431 0.0
C666 C 0.69408 0.63689 0.91663 0.0
C667 C 0.68859 0.66724 0.93273 0.0
C668 C 0.70527 0.6785 0.97107 0.0
C669 C 0.72813 0.66003 0.99123 0.0
C670 C 0.67689 0.62414 0.8757 0.0
C671 C 0.69985 0.71058 0.98972 0.0
C672 C 0.65924 0.73113 0.85516 0.0
C673 C 0.62861 0.73428 0.87001 0.0
C674 C 0.67853 0.70825 0.87355 0.0
C675 C 0.66701 0.68817 0.90793 0.0
C676 C 0.63566 0.69016 0.9213 0.0
C677 C 0.61678 0.71311 0.902 0.0
C678 C 0.71172 0.70662 0.85789 0.0
C679 C 0.62254 0.66928 0.95795 0.0
H680 H 0.72183 0.59593 0.92438 0.0
H681 H 0.74153 0.66912 0.01964 0.0
H682 H 0.65166 0.62726 0.88012 0.0
H683 H 0.68373 0.63703 0.84437 0.0
H684 H 0.68173 0.59924 0.87012 0.0
H685 H 0.71307 0.71499 0.02176 0.0
H686 H 0.70681 0.72796 0.9637 0.0
H687 H 0.67495 0.71411 -0.00312 0.0
H688 H 0.66851 0.74725 0.83022 0.0
H689 H 0.59314 0.71537 0.91374 0.0
H690 H 0.71793 0.68257 0.84866 0.0
H691 H 0.72716 0.71383 0.88636 0.0
H692 H 0.71625 0.72176 0.82781 0.0
H693 H 0.62844 0.64484 0.95076 0.0
H694 H 0.59705 0.67139 0.96077 0.0
H695 H 0.63289 0.67529 0.99166 0.0
C696 C 0.28281 0.62256 0.16778 0.0
C697 C 0.26631 0.63029 0.12793 0.0
C698 C 0.30539 0.64252 0.18566 0.0
C699 C 0.312 0.67056 0.16264 0.0
C700 C 0.29676 0.6775 0.12084 0.0
C701 C 0.27389 0.65743 0.10423 0.0
C702 C 0.32078 0.63447 0.23063 0.0
C703 C 0.30354 0.70687 0.09476 0.0
C704 C 0.33873 0.74083 0.22962 0.0
C705 C 0.37045 0.74134 0.22012 0.0
C706 C 0.31972 0.71731 0.21239 0.0
C707 C 0.33261 0.69399 0.1842 0.0
C708 C 0.36474 0.69401 0.17522 0.0
C709 C 0.38335 0.71756 0.19367 0.0
C710 C 0.28567 0.71782 0.22355 0.0
C711 C 0.37924 0.66984 0.14478 0.0
H712 H 0.2769 0.60173 0.18649 0.0
H713 H 0.26132 0.66343 0.07328 0.0
H714 H 0.34619 0.63688 0.22774 0.0
H715 H 0.31296 0.65077 0.25762 0.0
H716 H 0.31529 0.61059 0.24195 0.0
H717 H 0.29228 0.7072 0.06047 0.0
H718 H 0.29514 0.727 0.11471 0.0
H719 H 0.3288 0.70976 0.09009 0.0
H720 H 0.32866 0.75903 0.25033 0.0
H721 H 0.40783 0.71794 0.18599 0.0
H722 H 0.27844 0.69527 0.23811 0.0
H723 H 0.27214 0.72154 0.19166 0.0
H724 H 0.27968 0.73631 0.24842 0.0
H725 H 0.37337 0.64637 0.15731 0.0
H726 H 0.40477 0.67207 0.14319 0.0
H727 H 0.36985 0.67194 0.10945 0.0
C728 C 0.46381 0.93266 0.32881 0.0
C729 C 0.44195 0.91913 0.29943 0.0
C730 C 0.46625 0.96494 0.33268 0.0
C731 C 0.44644 0.98411 0.3065 0.0
C732 C 0.42493 0.97061 0.27594 0.0
C733 C 0.42293 0.93838 0.27281 0.0
C734 C 0.48945 0.97852 0.36569 0.0
C735 C 0.40338 0.99019 0.24737 0.0
C736 C 0.42514 0.0638 0.35001 0.0
C737 C 0.44307 0.08315 0.3219 0.0
C738 C 0.42665 0.0316 0.34605 0.0
C739 C 0.44656 0.0182 0.31313 0.0
C740 C 0.46516 0.03745 0.28515 0.0
C741 C 0.46322 0.06971 0.28987 0.0
C742 C 0.4064 0.01192 0.37655 0.0
C743 C 0.48665 0.02397 0.24962 0.0
H744 H 0.47868 0.91807 0.34942 0.0
H745 H 0.40609 0.92832 0.2497 0.0
H746 H 0.5041 0.99578 0.34787 0.0
H747 H 0.47718 0.99075 0.39375 0.0
H748 H 0.50459 0.96062 0.38114 0.0
H749 H 0.38924 0.97617 0.22332 0.0
H750 H 0.3876 0.00325 0.27024 0.0
H751 H 0.41672 0.00734 0.22719 0.0
H752 H 0.40961 0.07377 0.37511 0.0
H753 H 0.47727 0.08437 0.2681 0.0
H754 H 0.42065 0.99488 0.39551 0.0
H755 H 0.38976 0.99874 0.35521 0.0
H756 H 0.39322 0.02588 0.40184 0.0
H757 H 0.50232 0.0069 0.26582 0.0
H758 H 0.5008 0.04195 0.23236 0.0
H759 H 0.47306 0.01153 0.22314 0.0
C760 C 0.93375 0.45614 0.5344 0.0
C761 C 0.92013 0.43276 0.56099 0.0
C762 C 0.96602 0.45886 0.53116 0.0
C763 C 0.98512 0.43777 0.55511 0.0
C764 C 0.97154 0.41413 0.58191 0.0
C765 C 0.93931 0.41188 0.58444 0.0
C766 C 0.9797 0.48426 0.50205 0.0
C767 C 0.99107 0.39113 0.60792 0.0
C768 C 0.06698 0.42241 0.51511 0.0
C769 C 0.08458 0.43915 0.54715 0.0
C770 C 0.03466 0.42246 0.51664 0.0
C771 C 0.01934 0.43958 0.55112 0.0
C772 C 0.03682 0.45703 0.58306 0.0
C773 C 0.06924 0.45666 0.58066 0.0
C774 C 0.01691 0.40358 0.48189 0.0
C775 C 0.02127 0.47552 0.62041 0.0
H776 H 0.91922 0.47248 0.5163 0.0
H777 H 0.92918 0.39375 0.60521 0.0
H778 H 0.99512 0.49895 0.52324 0.0
H779 H 0.994 0.47413 0.47429 0.0
H780 H 0.96171 0.49913 0.48623 0.0
H781 H 0.97691 0.37456 0.62805 0.0
H782 H 0.00567 0.3779 0.58358 0.0
H783 H 0.00683 0.40341 0.63178 0.0
H784 H 0.07845 0.40893 0.48882 0.0
H785 H 0.08255 0.46972 0.6055 0.0
H786 H 0.99978 0.41829 0.46393 0.0
H787 H 0.00392 0.38501 0.49968 0.0
H788 H 0.03223 0.3928 0.45584 0.0
H789 H 0.00413 0.49157 0.60522 0.0
H790 H 0.03802 0.4891 0.64107 0.0
H791 H 0.00853 0.45976 0.64374 0.0
C792 C 0.58613 0.93509 0.85376 0.0
C793 C 0.56465 0.91843 0.82761 0.0
C794 C 0.58623 0.96745 0.85362 0.0
C795 C 0.56493 0.98352 0.82557 0.0
C796 C 0.54323 0.9668 0.79894 0.0
C797 C 0.54306 0.93441 0.80082 0.0
C798 C 0.60917 0.98444 0.88343 0.0
C799 C 0.5207 0.98311 0.7677 0.0
C800 C 0.54783 0.06819 0.8484 0.0
C801 C 0.56789 0.08275 0.81744 0.0
C802 C 0.54701 0.03588 0.85207 0.0
C803 C 0.56601 0.01779 0.82306 0.0
C804 C 0.58618 0.03243 0.79158 0.0
C805 C 0.58719 0.06475 0.78963 0.0
C806 C 0.5259 0.02111 0.887 0.0
C807 C 0.60626 0.01395 0.75931 0.0
H808 H 0.60264 0.9228 0.87489 0.0
H809 H 0.52656 0.92153 0.78035 0.0
H810 H 0.62521 0.99799 0.86163 0.0
H811 H 0.59694 1.00102 0.90606 0.0
H812 H 0.62298 0.96852 0.9052 0.0
H813 H 0.50541 0.96673 0.74911 0.0
H814 H 0.50612 0.99919 0.78785 0.0
H815 H 0.53349 0.99714 0.74209 0.0
H816 H 0.53299 0.08211 0.87008 0.0
H817 H 0.60243 0.07594 0.76526 0.0
H818 H 0.53941 0.00584 0.91009 0.0
H819 H 0.50855 0.00646 0.86939 0.0
H820 H 0.51357 0.03848 0.90823 0.0
H821 H 0.62223 0.99907 0.7792 0.0
H822 H 0.62013 0.0289 0.73615 0.0
H823 H 0.59167 0.99851 0.73799 0.0
C824 C 0.93345 0.59642 0.03554 0.0
C825 C 0.91603 0.57784 0.06536 0.0
C826 C 0.96578 0.59588 0.03637 0.0
C827 C 0.98113 0.57685 0.06856 0.0
C828 C 0.96374 0.55873 0.09974 0.0
C829 C 0.93135 0.55915 0.0974 0.0
C830 C 0.98348 0.61508 0.00194 0.0
C831 C 0.97935 0.53873 0.13529 0.0
C832 C 0.06367 0.5525 0.04355 0.0
C833 C 0.08054 0.57422 0.06895 0.0
C834 C 0.03128 0.55321 0.04287 0.0
C835 C 0.01543 0.57572 0.0691 0.0
C836 C 0.03234 0.59755 0.09505 0.0
C837 C 0.06469 0.59676 0.09423 0.0
C838 C 0.01402 0.53001 0.01388 0.0
C839 C 0.01626 0.62152 0.12413 0.0
H840 H 0.92185 0.61071 0.01036 0.0
H841 H 0.91802 0.54481 0.12062 0.0
H842 H 0.99916 0.63128 0.01999 0.0
H843 H 0.99806 0.59984 0.98032 0.0
H844 H 0.96801 0.62862 0.97913 0.0
H845 H 0.96253 0.52727 0.15851 0.0
H846 H 0.99332 0.52067 0.11807 0.0
H847 H 0.9954 0.55285 0.15632 0.0
H848 H 0.07581 0.53508 0.02384 0.0
H849 H 0.07755 0.61341 0.11436 0.0
H850 H 0.99909 0.5422 0.98877 0.0
H851 H 0.99871 0.51579 0.03592 0.0
H852 H 0.0298 0.51439 0.99482 0.0
H853 H 0.00175 0.63657 0.10213 0.0
H854 H 0.03281 0.63628 0.14334 0.0
H855 H 1.00067 0.61005 0.1491 0.0
C856 C 0.52523 0.16487 0.98553 0.0
C857 C 0.51102 0.17462 0.94483 0.0
C858 C 0.5092 0.16524 0.02733 0.0
C859 C 0.47821 0.17566 0.02841 0.0
C860 C 0.46378 0.18579 0.98756 0.0
C861 C 0.48038 0.18518 0.94621 0.0
C862 C 0.52542 0.15442 0.07037 0.0
C863 C 0.43085 0.19719 0.98753 0.0
C864 C 0.43509 0.1494 0.13462 0.0
C865 C 0.44065 0.17427 0.1642 0.0
C866 C 0.44549 0.15024 0.08895 0.0
C867 C 0.46148 0.17665 0.07283 0.0
C868 C 0.46459 0.20283 0.10146 0.0
C869 C 0.45419 0.20128 0.14688 0.0
C870 C 0.44159 0.12196 0.05924 0.0
C871 C 0.48112 0.23159 0.0854 0.0
H872 H 0.54887 0.15667 0.98475 0.0
H873 H 0.46917 0.19272 0.91486 0.0
H874 H 0.52617 0.17338 0.09597 0.0
H875 H 0.51244 0.13502 0.08609 0.0
H876 H 0.54942 0.14665 0.06354 0.0
H877 H 0.42293 0.20406 0.9527 0.0
H878 H 0.41527 0.17891 0.00077 0.0
H879 H 0.42859 0.21733 0.01081 0.0
H880 H 0.42469 0.12847 0.14798 0.0
H881 H 0.45821 0.22069 0.16965 0.0
H882 H 0.46425 0.11034 0.05516 0.0
H883 H 0.43343 0.12845 0.02445 0.0
H884 H 0.42507 0.10519 0.07439 0.0
H885 H 0.5062 0.22678 0.08259 0.0
H886 H 0.47787 0.25122 0.10947 0.0
H887 H 0.47287 0.2386 0.05087 0.0
C888 C 0.80064 0.50002 0.20212 0.0
C889 C 0.81705 0.52792 0.199 0.0
C890 C 0.79915 0.48358 0.24347 0.0
C891 C 0.81447 0.49531 0.28258 0.0
C892 C 0.83015 0.52398 0.28017 0.0
C893 C 0.83117 0.54004 0.23834 0.0
C894 C 0.7819 0.45328 0.24496 0.0
C895 C 0.84662 0.53725 0.32142 0.0
C896 C 0.79443 0.46951 0.40287 0.0
C897 C 0.81943 0.45017 0.41337 0.0
C898 C 0.79168 0.48322 0.35956 0.0
C899 C 0.81456 0.47749 0.32605 0.0
C900 C 0.83871 0.45634 0.33537 0.0
C901 C 0.8408 0.44277 0.37904 0.0
C902 C 0.76534 0.50527 0.35068 0.0
C903 C 0.86342 0.44958 0.30023 0.0
H904 H 0.78947 0.49059 0.17188 0.0
H905 H 0.84392 0.56152 0.23614 0.0
H906 H 0.79823 0.4342 0.25237 0.0
H907 H 0.7646 0.45356 0.27305 0.0
H908 H 0.76988 0.44818 0.21211 0.0
H909 H 0.85708 0.56016 0.31412 0.0
H910 H 0.8303 0.53973 0.35055 0.0
H911 H 0.86515 0.52126 0.33263 0.0
H912 H 0.77767 0.47506 0.42928 0.0
H913 H 0.86019 0.42792 0.38709 0.0
H914 H 0.75396 0.49986 0.31751 0.0
H915 H 0.77442 0.52917 0.34822 0.0
H916 H 0.74773 0.50454 0.37839 0.0
H917 H 0.85284 0.4432 0.26685 0.0
H918 H 0.879 0.43062 0.31132 0.0
H919 H 0.87751 0.47063 0.29441 0.0
C920 C 0.52677 0.85223 0.64456 0.0
C921 C 0.51123 0.842 0.6839 0.0
C922 C 0.51177 0.85316 0.60186 0.0
C923 C 0.48049 0.8438 0.59865 0.0
C924 C 0.46445 0.83431 0.63848 0.0
C925 C 0.48004 0.83342 0.68059 0.0
C926 C 0.52964 0.86329 0.55994 0.0
C927 C 0.43108 0.82429 0.6364 0.0
C928 C 0.4388 0.86546 0.48853 0.0
C929 C 0.44344 0.83879 0.4622 0.0
C930 C 0.44975 0.86714 0.5339 0.0
C931 C 0.46545 0.8415 0.55302 0.0
C932 C 0.46837 0.8139 0.52748 0.0
C933 C 0.4573 0.81289 0.4824 0.0
C934 C 0.44605 0.89686 0.56037 0.0
C935 C 0.48468 0.78594 0.54683 0.0
H936 H 0.55081 0.859 0.64693 0.0
H937 H 0.46771 0.82579 0.71094 0.0
H938 H 0.53166 0.84374 0.53551 0.0
H939 H 0.51717 0.88212 0.54197 0.0
H940 H 0.55322 0.8715 0.56866 0.0
H941 H 0.42124 0.81997 0.67105 0.0
H942 H 0.41694 0.84214 0.61896 0.0
H943 H 0.42909 0.80279 0.61592 0.0
H944 H 0.42824 0.88558 0.47294 0.0
H945 H 0.46069 0.79212 0.46222 0.0
H946 H 0.46894 0.90797 0.56472 0.0
H947 H 0.4368 0.89219 0.59522 0.0
H948 H 0.43046 0.91337 0.54263 0.0
H949 H 0.50942 0.79143 0.55246 0.0
H950 H 0.48315 0.76565 0.5236 0.0
H951 H 0.47471 0.77955 0.5806 0.0
C952 C 0.17851 0.48317 0.93199 0.0
C953 C 0.16802 0.51384 0.93368 0.0
C954 C 0.17907 0.46674 0.89051 0.0
C955 C 0.16899 0.48133 0.84976 0.0
C956 C 0.15849 0.51229 0.85116 0.0
C957 C 0.15813 0.52818 0.89313 0.0
C958 C 0.19054 0.43382 0.89026 0.0
C959 C 0.14771 0.52867 0.80824 0.0
C960 C 0.19617 0.45648 0.73218 0.0
C961 C 0.1696 0.44229 0.71443 0.0
C962 C 0.19688 0.46777 0.77719 0.0
C963 C 0.17036 0.46479 0.80514 0.0
C964 C 0.14429 0.44841 0.78864 0.0
C965 C 0.14424 0.43723 0.74334 0.0
C966 C 0.22526 0.48477 0.79363 0.0
C967 C 0.11568 0.44459 0.81767 0.0
H968 H 0.18615 0.47185 0.96319 0.0
H969 H 0.14997 0.55182 0.89414 0.0
H970 H 0.17251 0.4183 0.87615 0.0
H971 H 0.21102 0.43183 0.86759 0.0
H972 H 0.19694 0.4256 0.92514 0.0
H973 H 0.13975 0.55258 0.81531 0.0
H974 H 0.16676 0.52969 0.78281 0.0
H975 H 0.12847 0.51563 0.79219 0.0
H976 H 0.21597 0.46017 0.71005 0.0
H977 H 0.12363 0.42636 0.72975 0.0
H978 H 0.2323 0.47642 0.82809 0.0
H979 H 0.21996 0.50974 0.79682 0.0
H980 H 0.24504 0.48207 0.7697 0.0
H981 H 0.12182 0.43629 0.85254 0.0
H982 H 0.09898 0.42818 0.80208 0.0
H983 H 0.10415 0.4673 0.82168 0.0
loop_
_geom_bond_atom_site_label_1
_geom_bond_atom_site_label_2
_geom_bond_distance
_geom_bond_site_symmetry_2
_ccdc_geom_bond_type
Co0 O2 2.143 . S
Co0 O8 2.074 . S
Co0 O11 2.093 . S
Co0 O24 2.097 . S
Co0 N41 2.151 . S
Co0 N49 2.214 . S
Co1 O2 2.160 . S
Co1 O7 2.058 . S
Co1 O17 2.057 . S
Co1 O32 2.037 . S
Co1 N36 2.145 . S
Co1 N57 2.257 . S
O2 Co0 2.143 . S
O2 Co1 2.160 . S
C3 O4 1.278 . S
C3 O11 1.224 . S
O4 C3 1.278 . S
C5 O6 1.245 . S
C5 O17 1.232 . S
O6 C5 1.245 . S
O7 Co1 2.058 . S
O7 C33 1.269 . S
O8 Co0 2.074 . S
O8 C33 1.257 . S
H9 C34 0.930 . S
H10 C40 0.930 . S
O11 Co0 2.093 . S
O11 C3 1.224 . S
H12 C44 0.929 . S
H13 C46 0.930 . S
H14 C47 0.930 . S
H15 C45 0.929 . S
H16 C48 0.928 . S
O17 Co1 2.057 . S
O17 C5 1.232 . S
H18 C37 0.929 . S
H19 C38 0.929 . S
H20 C50 0.931 . S
H21 C42 0.929 . S
H22 C51 0.930 . S
H23 C43 0.931 . S
O24 Co0 2.097 . S
O24 C52 1.214 . S
H25 C53 0.929 . S
H26 C54 0.929 . S
H27 C55 0.930 . S
H28 C56 0.929 . S
H29 C58 0.930 . S
H30 C35 0.930 . S
H31 C39 0.930 . S
O32 Co1 2.037 . S
O32 C52 1.234 . S
C33 O7 1.269 . S
C33 O8 1.257 . S
C34 H9 0.930 . S
C34 C37 1.388 . S
C34 C39 1.418 . S
C35 H30 0.930 . S
C35 C38 1.404 . S
C35 C39 1.353 . S
N36 Co1 2.145 . S
N36 C37 1.397 . S
N36 C38 1.334 . S
C37 H18 0.929 . S
C37 C34 1.388 . S
C37 N36 1.397 . S
C38 H19 0.929 . S
C38 C35 1.404 . S
C38 N36 1.334 . S
C39 H31 0.930 . S
C39 C34 1.418 . S
C39 C35 1.353 . S
C40 H10 0.930 . S
C40 N41 1.330 . S
C40 C42 1.446 . S
N41 Co0 2.151 . S
N41 C40 1.330 . S
N41 C45 1.418 . S
C42 H21 0.929 . S
C42 C40 1.446 . S
C42 C43 1.332 . S
C43 H23 0.931 . S
C43 C42 1.332 . S
C43 C44 1.267 . S
C44 H12 0.929 . S
C44 C43 1.267 . S
C44 C45 1.251 . S
C45 H15 0.929 . S
C45 N41 1.418 . S
C45 C44 1.251 . S
C46 H13 0.930 . S
C46 C48 1.406 . S
C46 C51 1.261 . S
C47 H14 0.930 . S
C47 N49 1.325 . S
C47 C50 1.357 . S
C48 H16 0.928 . S
C48 C46 1.406 . S
C48 N49 1.261 . S
N49 Co0 2.214 . S
N49 C47 1.325 . S
N49 C48 1.261 . S
C50 H20 0.931 . S
C50 C47 1.357 . S
C50 C51 1.312 . S
C51 H22 0.930 . S
C51 C46 1.261 . S
C51 C50 1.312 . S
C52 O24 1.214 . S
C52 O32 1.234 . S
C53 H25 0.929 . S
C53 C56 1.391 . S
C53 C58 1.391 . S
C54 H26 0.929 . S
C54 C55 1.390 . S
C54 N57 1.391 . S
C55 H27 0.930 . S
C55 C54 1.390 . S
C55 C56 1.392 . S
C56 H28 0.929 . S
C56 C53 1.391 . S
C56 C55 1.392 . S
N57 Co1 2.257 . S
N57 C54 1.391 . S
N57 C58 1.388 . S
C58 H29 0.930 . S
C58 C53 1.391 . S
C58 N57 1.388 . S
Co59 O61 2.143 . S
Co59 O67 2.074 . S
Co59 O70 2.093 . S
Co59 O83 2.097 . S
Co59 N100 2.151 . S
Co59 N108 2.214 . S
Co60 O61 2.160 . S
Co60 O66 2.058 . S
Co60 O76 2.057 . S
Co60 O91 2.037 . S
Co60 N95 2.145 . S
Co60 N116 2.257 . S
O61 Co59 2.143 . S
O61 Co60 2.160 . S
C62 O63 1.278 . S
C62 O70 1.224 . S
O63 C62 1.278 . S
C64 O65 1.245 . S
C64 O76 1.232 . S
O65 C64 1.245 . S
O66 Co60 2.058 . S
O66 C92 1.269 . S
O67 Co59 2.074 . S
O67 C92 1.257 . S
H68 C93 0.930 . S
H69 C99 0.930 . S
O70 Co59 2.093 . S
O70 C62 1.224 . S
H71 C103 0.929 . S
H72 C105 0.930 . S
H73 C106 0.930 . S
H74 C104 0.929 . S
H75 C107 0.928 . S
O76 Co60 2.057 . S
O76 C64 1.232 . S
H77 C96 0.929 . S
H78 C97 0.929 . S
H79 C109 0.931 . S
H80 C101 0.929 . S
H81 C110 0.930 . S
H82 C102 0.931 . S
O83 Co59 2.097 . S
O83 C111 1.214 . S
H84 C112 0.929 . S
H85 C113 0.929 . S
H86 C114 0.930 . S
H87 C115 0.929 . S
H88 C117 0.930 . S
H89 C94 0.930 . S
H90 C98 0.930 . S
O91 Co60 2.037 . S
O91 C111 1.234 . S
C92 O66 1.269 . S
C92 O67 1.257 . S
C93 H68 0.930 . S
C93 C96 1.388 . S
C93 C98 1.418 . S
C94 H89 0.930 . S
C94 C97 1.404 . S
C94 C98 1.353 . S
N95 Co60 2.145 . S
N95 C96 1.397 . S
N95 C97 1.334 . S
C96 H77 0.929 . S
C96 C93 1.388 . S
C96 N95 1.397 . S
C97 H78 0.929 . S
C97 C94 1.404 . S
C97 N95 1.334 . S
C98 H90 0.930 . S
C98 C93 1.418 . S
C98 C94 1.353 . S
C99 H69 0.930 . S
C99 N100 1.330 . S
C99 C101 1.446 . S
N100 Co59 2.151 . S
N100 C99 1.330 . S
N100 C104 1.418 . S
C101 H80 0.929 . S
C101 C99 1.446 . S
C101 C102 1.332 . S
C102 H82 0.931 . S
C102 C101 1.332 . S
C102 C103 1.267 . S
C103 H71 0.929 . S
C103 C102 1.267 . S
C103 C104 1.251 . S
C104 H74 0.929 . S
C104 N100 1.418 . S
C104 C103 1.251 . S
C105 H72 0.930 . S
C105 C107 1.406 . S
C105 C110 1.261 . S
C106 H73 0.930 . S
C106 N108 1.325 . S
C106 C109 1.357 . S
C107 H75 0.928 . S
C107 C105 1.406 . S
C107 N108 1.261 . S
N108 Co59 2.214 . S
N108 C106 1.325 . S
N108 C107 1.261 . S
C109 H79 0.931 . S
C109 C106 1.357 . S
C109 C110 1.312 . S
C110 H81 0.930 . S
C110 C105 1.261 . S
C110 C109 1.312 . S
C111 O83 1.214 . S
C111 O91 1.234 . S
C112 H84 0.929 . S
C112 C115 1.391 . S
C112 C117 1.391 . S
C113 H85 0.929 . S
C113 C114 1.390 . S
C113 N116 1.391 . S
C114 H86 0.930 . S
C114 C113 1.390 . S
C114 C115 1.392 . S
C115 H87 0.929 . S
C115 C112 1.391 . S
C115 C114 1.392 . S
N116 Co60 2.257 . S
N116 C113 1.391 . S
N116 C117 1.388 . S
C117 H88 0.930 . S
C117 C112 1.391 . S
C117 N116 1.388 . S
Co118 O120 2.143 . S
Co118 O126 2.074 . S
Co118 O129 2.093 . S
Co118 O142 2.097 . S
Co118 N159 2.151 . S
Co118 N167 2.214 . S
Co119 O120 2.160 . S
Co119 O125 2.058 . S
Co119 O135 2.057 . S
Co119 O150 2.037 . S
Co119 N154 2.145 . S
Co119 N175 2.257 . S
O120 Co118 2.143 . S
O120 Co119 2.160 . S
C121 O122 1.278 . S
C121 O129 1.224 . S
O122 C121 1.278 . S
C123 O124 1.245 . S
C123 O135 1.232 . S
O124 C123 1.245 . S
O125 Co119 2.058 . S
O125 C151 1.269 . S
O126 Co118 2.074 . S
O126 C151 1.257 . S
H127 C152 0.930 . S
H128 C158 0.930 . S
O129 Co118 2.093 . S
O129 C121 1.224 . S
H130 C162 0.929 . S
H131 C164 0.930 . S
H132 C165 0.930 . S
H133 C163 0.929 . S
H134 C166 0.928 . S
O135 Co119 2.057 . S
O135 C123 1.232 . S
H136 C155 0.929 . S
H137 C156 0.929 . S
H138 C168 0.931 . S
H139 C160 0.929 . S
H140 C169 0.930 . S
H141 C161 0.931 . S
O142 Co118 2.097 . S
O142 C170 1.214 . S
H143 C171 0.929 . S
H144 C172 0.929 . S
H145 C173 0.930 . S
H146 C174 0.929 . S
H147 C176 0.930 . S
H148 C153 0.930 . S
H149 C157 0.930 . S
O150 Co119 2.037 . S
O150 C170 1.234 . S
C151 O125 1.269 . S
C151 O126 1.257 . S
C152 H127 0.930 . S
C152 C155 1.388 . S
C152 C157 1.418 . S
C153 H148 0.930 . S
C153 C156 1.404 . S
C153 C157 1.353 . S
N154 Co119 2.145 . S
N154 C155 1.397 . S
N154 C156 1.334 . S
C155 H136 0.929 . S
C155 C152 1.388 . S
C155 N154 1.397 . S
C156 H137 0.929 . S
C156 C153 1.404 . S
C156 N154 1.334 . S
C157 H149 0.930 . S
C157 C152 1.418 . S
C157 C153 1.353 . S
C158 H128 0.930 . S
C158 N159 1.330 . S
C158 C160 1.446 . S
N159 Co118 2.151 . S
N159 C158 1.330 . S
N159 C163 1.418 . S
C160 H139 0.929 . S
C160 C158 1.446 . S
C160 C161 1.332 . S
C161 H141 0.931 . S
C161 C160 1.332 . S
C161 C162 1.267 . S
C162 H130 0.929 . S
C162 C161 1.267 . S
C162 C163 1.251 . S
C163 H133 0.929 . S
C163 N159 1.418 . S
C163 C162 1.251 . S
C164 H131 0.930 . S
C164 C166 1.406 . S
C164 C169 1.261 . S
C165 H132 0.930 . S
C165 N167 1.325 . S
C165 C168 1.357 . S
C166 H134 0.928 . S
C166 C164 1.406 . S
C166 N167 1.261 . S
N167 Co118 2.214 . S
N167 C165 1.325 . S
N167 C166 1.261 . S
C168 H138 0.931 . S
C168 C165 1.357 . S
C168 C169 1.312 . S
C169 H140 0.930 . S
C169 C164 1.261 . S
C169 C168 1.312 . S
C170 O142 1.214 . S
C170 O150 1.234 . S
C171 H143 0.929 . S
C171 C174 1.391 . S
C171 C176 1.391 . S
C172 H144 0.929 . S
C172 C173 1.390 . S
C172 N175 1.391 . S
C173 H145 0.930 . S
C173 C172 1.390 . S
C173 C174 1.392 . S
C174 H146 0.929 . S
C174 C171 1.391 . S
C174 C173 1.392 . S
N175 Co119 2.257 . S
N175 C172 1.391 . S
N175 C176 1.388 . S
C176 H147 0.930 . S
C176 C171 1.391 . S
C176 N175 1.388 . S
Co177 O179 2.143 . S
Co177 O185 2.074 . S
Co177 O188 2.093 1_554 S
Co177 O201 2.097 . S
Co177 N218 2.151 . S
Co177 N226 2.214 . S
Co178 O179 2.160 . S
Co178 O184 2.058 . S
Co178 O194 2.057 . S
Co178 O209 2.037 . S
Co178 N213 2.145 . S
Co178 N234 2.257 . S
O179 Co177 2.143 . S
O179 Co178 2.160 . S
C180 O181 1.278 . S
C180 O188 1.224 . S
O181 C180 1.278 . S
C182 O183 1.245 . S
C182 O194 1.232 . S
O183 C182 1.245 . S
O184 Co178 2.058 . S
O184 C210 1.269 . S
O185 Co177 2.074 . S
O185 C210 1.257 . S
H186 C211 0.930 . S
H187 C217 0.930 . S
O188 Co177 2.093 1_556 S
O188 C180 1.224 . S
H189 C221 0.929 . S
H190 C223 0.930 . S
H191 C224 0.930 . S
H192 C222 0.929 . S
H193 C225 0.928 . S
O194 Co178 2.057 . S
O194 C182 1.232 . S
H195 C214 0.929 . S
H196 C215 0.929 . S
H197 C227 0.931 . S
H198 C219 0.929 . S
H199 C228 0.930 . S
H200 C220 0.931 . S
O201 Co177 2.097 . S
O201 C229 1.214 . S
H202 C230 0.929 . S
H203 C231 0.929 . S
H204 C232 0.930 . S
H205 C233 0.929 . S
H206 C235 0.930 . S
H207 C212 0.930 . S
H208 C216 0.930 . S
O209 Co178 2.037 . S
O209 C229 1.234 . S
C210 O184 1.269 . S
C210 O185 1.257 . S
C211 H186 0.930 . S
C211 C214 1.388 . S
C211 C216 1.418 . S
C212 H207 0.930 . S
C212 C215 1.404 . S
C212 C216 1.353 . S
N213 Co178 2.145 . S
N213 C214 1.397 . S
N213 C215 1.334 . S
C214 H195 0.929 . S
C214 C211 1.388 . S
C214 N213 1.397 . S
C215 H196 0.929 . S
C215 C212 1.404 . S
C215 N213 1.334 . S
C216 H208 0.930 . S
C216 C211 1.418 . S
C216 C212 1.353 . S
C217 H187 0.930 . S
C217 N218 1.330 . S
C217 C219 1.446 . S
N218 Co177 2.151 . S
N218 C217 1.330 . S
N218 C222 1.418 . S
C219 H198 0.929 . S
C219 C217 1.446 . S
C219 C220 1.332 . S
C220 H200 0.931 . S
C220 C219 1.332 . S
C220 C221 1.267 . S
C221 H189 0.929 . S
C221 C220 1.267 . S
C221 C222 1.251 . S
C222 H192 0.929 . S
C222 N218 1.418 . S
C222 C221 1.251 . S
C223 H190 0.930 . S
C223 C225 1.406 . S
C223 C228 1.261 . S
C224 H191 0.930 . S
C224 N226 1.325 . S
C224 C227 1.357 . S
C225 H193 0.928 . S
C225 C223 1.406 . S
C225 N226 1.261 . S
N226 Co177 2.214 . S
N226 C224 1.325 . S
N226 C225 1.261 . S
C227 H197 0.931 . S
C227 C224 1.357 . S
C227 C228 1.312 . S
C228 H199 0.930 . S
C228 C223 1.261 . S
C228 C227 1.312 . S
C229 O201 1.214 . S
C229 O209 1.234 . S
C230 H202 0.929 . S
C230 C233 1.391 . S
C230 C235 1.391 1_556 S
C231 H203 0.929 . S
C231 C232 1.390 . S
C231 N234 1.391 . S
C232 H204 0.930 . S
C232 C231 1.390 . S
C232 C233 1.392 1_554 S
C233 H205 0.929 . S
C233 C230 1.391 . S
C233 C232 1.392 1_556 S
N234 Co178 2.257 . S
N234 C231 1.391 . S
N234 C235 1.388 . S
C235 H206 0.930 . S
C235 C230 1.391 1_554 S
C235 N234 1.388 . S
Co236 O238 2.143 . S
Co236 O244 2.074 . S
Co236 O247 2.093 . S
Co236 O260 2.097 . S
Co236 N277 2.151 . S
Co236 N285 2.214 . S
Co237 O238 2.160 . S
Co237 O243 2.058 . S
Co237 O253 2.057 . S
Co237 O268 2.037 . S
Co237 N272 2.145 . S
Co237 N293 2.257 . S
O238 Co236 2.143 . S
O238 Co237 2.160 . S
C239 O240 1.278 . S
C239 O247 1.224 . S
O240 C239 1.278 . S
C241 O242 1.245 . S
C241 O253 1.232 . S
O242 C241 1.245 . S
O243 Co237 2.058 . S
O243 C269 1.269 . S
O244 Co236 2.074 . S
O244 C269 1.257 . S
H245 C270 0.930 . S
H246 C276 0.930 . S
O247 Co236 2.093 . S
O247 C239 1.224 . S
H248 C280 0.929 . S
H249 C282 0.930 . S
H250 C283 0.930 . S
H251 C281 0.929 . S
H252 C284 0.928 . S
O253 Co237 2.057 . S
O253 C241 1.232 . S
H254 C273 0.929 . S
H255 C274 0.929 . S
H256 C286 0.931 . S
H257 C278 0.929 . S
H258 C287 0.930 . S
H259 C279 0.931 . S
O260 Co236 2.097 . S
O260 C288 1.214 . S
H261 C289 0.929 . S
H262 C290 0.929 . S
H263 C291 0.930 . S
H264 C292 0.929 . S
H265 C294 0.930 . S
H266 C271 0.930 . S
H267 C275 0.930 . S
O268 Co237 2.037 . S
O268 C288 1.234 . S
C269 O243 1.269 . S
C269 O244 1.257 . S
C270 H245 0.930 . S
C270 C273 1.388 . S
C270 C275 1.418 . S
C271 H266 0.930 . S
C271 C274 1.404 . S
C271 C275 1.353 . S
N272 Co237 2.145 . S
N272 C273 1.397 . S
N272 C274 1.334 . S
C273 H254 0.929 . S
C273 C270 1.388 . S
C273 N272 1.397 . S
C274 H255 0.929 . S
C274 C271 1.404 . S
C274 N272 1.334 . S
C275 H267 0.930 . S
C275 C270 1.418 . S
C275 C271 1.353 . S
C276 H246 0.930 . S
C276 N277 1.330 . S
C276 C278 1.446 . S
N277 Co236 2.151 . S
N277 C276 1.330 . S
N277 C281 1.418 . S
C278 H257 0.929 . S
C278 C276 1.446 . S
C278 C279 1.332 . S
C279 H259 0.931 . S
C279 C278 1.332 . S
C279 C280 1.267 . S
C280 H248 0.929 . S
C280 C279 1.267 . S
C280 C281 1.251 . S
C281 H251 0.929 . S
C281 N277 1.418 . S
C281 C280 1.251 . S
C282 H249 0.930 . S
C282 C284 1.406 . S
C282 C287 1.261 . S
C283 H250 0.930 . S
C283 N285 1.325 . S
C283 C286 1.357 . S
C284 H252 0.928 . S
C284 C282 1.406 . S
C284 N285 1.261 . S
N285 Co236 2.214 . S
N285 C283 1.325 . S
N285 C284 1.261 . S
C286 H256 0.931 . S
C286 C283 1.357 . S
C286 C287 1.312 . S
C287 H258 0.930 . S
C287 C282 1.261 . S
C287 C286 1.312 . S
C288 O260 1.214 . S
C288 O268 1.234 . S
C289 H261 0.929 . S
C289 C292 1.391 . S
C289 C294 1.391 . S
C290 H262 0.929 . S
C290 C291 1.390 . S
C290 N293 1.391 . S
C291 H263 0.930 . S
C291 C290 1.390 . S
C291 C292 1.392 . S
C292 H264 0.929 . S
C292 C289 1.391 . S
C292 C291 1.392 . S
N293 Co237 2.257 . S
N293 C290 1.391 . S
N293 C294 1.388 . S
C294 H265 0.930 . S
C294 C289 1.391 . S
C294 N293 1.388 . S
Co295 O297 2.143 . S
Co295 O303 2.074 . S
Co295 O306 2.093 . S
Co295 O319 2.097 . S
Co295 N336 2.151 . S
Co295 N344 2.214 . S
Co296 O297 2.160 . S
Co296 O302 2.058 . S
Co296 O312 2.057 . S
Co296 O327 2.037 . S
Co296 N331 2.145 . S
Co296 N352 2.257 . S
O297 Co295 2.143 . S
O297 Co296 2.160 . S
C298 O299 1.278 . S
C298 O306 1.224 . S
O299 C298 1.278 . S
C300 O301 1.245 . S
C300 O312 1.232 . S
O301 C300 1.245 . S
O302 Co296 2.058 . S
O302 C328 1.269 . S
O303 Co295 2.074 . S
O303 C328 1.257 . S
H304 C329 0.930 . S
H305 C335 0.930 . S
O306 Co295 2.093 . S
O306 C298 1.224 . S
H307 C339 0.929 . S
H308 C341 0.930 . S
H309 C342 0.930 . S
H310 C340 0.929 . S
H311 C343 0.928 . S
O312 Co296 2.057 . S
O312 C300 1.232 . S
H313 C332 0.929 . S
H314 C333 0.929 . S
H315 C345 0.931 . S
H316 C337 0.929 . S
H317 C346 0.930 . S
H318 C338 0.931 . S
O319 Co295 2.097 . S
O319 C347 1.214 . S
H320 C348 0.929 . S
H321 C349 0.929 . S
H322 C350 0.930 . S
H323 C351 0.929 . S
H324 C353 0.930 . S
H325 C330 0.930 . S
H326 C334 0.930 . S
O327 Co296 2.037 . S
O327 C347 1.234 . S
C328 O302 1.269 . S
C328 O303 1.257 . S
C329 H304 0.930 . S
C329 C332 1.388 . S
C329 C334 1.418 . S
C330 H325 0.930 . S
C330 C333 1.404 . S
C330 C334 1.353 . S
N331 Co296 2.145 . S
N331 C332 1.397 . S
N331 C333 1.334 . S
C332 H313 0.929 . S
C332 C329 1.388 . S
C332 N331 1.397 . S
C333 H314 0.929 . S
C333 C330 1.404 . S
C333 N331 1.334 . S
C334 H326 0.930 . S
C334 C329 1.418 . S
C334 C330 1.353 . S
C335 H305 0.930 . S
C335 N336 1.330 . S
C335 C337 1.446 . S
N336 Co295 2.151 . S
N336 C335 1.330 . S
N336 C340 1.418 . S
C337 H316 0.929 . S
C337 C335 1.446 . S
C337 C338 1.332 . S
C338 H318 0.931 . S
C338 C337 1.332 . S
C338 C339 1.267 . S
C339 H307 0.929 . S
C339 C338 1.267 . S
C339 C340 1.251 . S
C340 H310 0.929 . S
C340 N336 1.418 . S
C340 C339 1.251 . S
C341 H308 0.930 . S
C341 C343 1.406 . S
C341 C346 1.261 . S
C342 H309 0.930 . S
C342 N344 1.325 . S
C342 C345 1.357 . S
C343 H311 0.928 . S
C343 C341 1.406 . S
C343 N344 1.261 . S
N344 Co295 2.214 . S
N344 C342 1.325 . S
N344 C343 1.261 . S
C345 H315 0.931 . S
C345 C342 1.357 . S
C345 C346 1.312 . S
C346 H317 0.930 . S
C346 C341 1.261 . S
C346 C345 1.312 . S
C347 O319 1.214 . S
C347 O327 1.234 . S
C348 H320 0.929 . S
C348 C351 1.391 . S
C348 C353 1.391 . S
C349 H321 0.929 . S
C349 C350 1.390 . S
C349 N352 1.391 . S
C350 H322 0.930 . S
C350 C349 1.390 . S
C350 C351 1.392 . S
C351 H323 0.929 . S
C351 C348 1.391 . S
C351 C350 1.392 . S
N352 Co296 2.257 . S
N352 C349 1.391 . S
N352 C353 1.388 . S
C353 H324 0.930 . S
C353 C348 1.391 . S
C353 N352 1.388 . S
Co354 O356 2.143 . S
Co354 O362 2.074 . S
Co354 O365 2.093 . S
Co354 O378 2.097 . S
Co354 N395 2.151 . S
Co354 N403 2.214 . S
Co355 O356 2.160 . S
Co355 O361 2.058 . S
Co355 O371 2.057 . S
Co355 O386 2.037 . S
Co355 N390 2.145 . S
Co355 N411 2.257 . S
O356 Co354 2.143 . S
O356 Co355 2.160 . S
C357 O358 1.278 . S
C357 O365 1.224 . S
O358 C357 1.278 . S
C359 O360 1.245 . S
C359 O371 1.232 . S
O360 C359 1.245 . S
O361 Co355 2.058 . S
O361 C387 1.269 . S
O362 Co354 2.074 . S
O362 C387 1.257 . S
H363 C388 0.930 . S
H364 C394 0.930 . S
O365 Co354 2.093 . S
O365 C357 1.224 . S
H366 C398 0.929 . S
H367 C400 0.930 . S
H368 C401 0.930 . S
H369 C399 0.929 . S
H370 C402 0.928 . S
O371 Co355 2.057 . S
O371 C359 1.232 . S
H372 C391 0.929 . S
H373 C392 0.929 . S
H374 C404 0.931 . S
H375 C396 0.929 . S
H376 C405 0.930 . S
H377 C397 0.931 . S
O378 Co354 2.097 . S
O378 C406 1.214 . S
H379 C407 0.929 . S
H380 C408 0.929 . S
H381 C409 0.930 . S
H382 C410 0.929 . S
H383 C412 0.930 . S
H384 C389 0.930 . S
H385 C393 0.930 . S
O386 Co355 2.037 . S
O386 C406 1.234 . S
C387 O361 1.269 . S
C387 O362 1.257 . S
C388 H363 0.930 . S
C388 C391 1.388 . S
C388 C393 1.418 . S
C389 H384 0.930 . S
C389 C392 1.404 . S
C389 C393 1.353 . S
N390 Co355 2.145 . S
N390 C391 1.397 . S
N390 C392 1.334 . S
C391 H372 0.929 . S
C391 C388 1.388 . S
C391 N390 1.397 . S
C392 H373 0.929 . S
C392 C389 1.404 . S
C392 N390 1.334 . S
C393 H385 0.930 . S
C393 C388 1.418 . S
C393 C389 1.353 . S
C394 H364 0.930 . S
C394 N395 1.330 . S
C394 C396 1.446 . S
N395 Co354 2.151 . S
N395 C394 1.330 . S
N395 C399 1.418 . S
C396 H375 0.929 . S
C396 C394 1.446 . S
C396 C397 1.332 . S
C397 H377 0.931 . S
C397 C396 1.332 . S
C397 C398 1.267 . S
C398 H366 0.929 . S
C398 C397 1.267 . S
C398 C399 1.251 . S
C399 H369 0.929 . S
C399 N395 1.418 . S
C399 C398 1.251 . S
C400 H367 0.930 . S
C400 C402 1.406 . S
C400 C405 1.261 . S
C401 H368 0.930 . S
C401 N403 1.325 . S
C401 C404 1.357 . S
C402 H370 0.928 . S
C402 C400 1.406 . S
C402 N403 1.261 . S
N403 Co354 2.214 . S
N403 C401 1.325 . S
N403 C402 1.261 . S
C404 H374 0.931 . S
C404 C401 1.357 . S
C404 C405 1.312 . S
C405 H376 0.930 . S
C405 C400 1.261 . S
C405 C404 1.312 . S
C406 O378 1.214 . S
C406 O386 1.234 . S
C407 H379 0.929 . S
C407 C410 1.391 . S
C407 C412 1.391 . S
C408 H380 0.929 . S
C408 C409 1.390 . S
C408 N411 1.391 . S
C409 H381 0.930 . S
C409 C408 1.390 . S
C409 C410 1.392 . S
C410 H382 0.929 . S
C410 C407 1.391 . S
C410 C409 1.392 . S
N411 Co355 2.257 . S
N411 C408 1.391 . S
N411 C412 1.388 . S
C412 H383 0.930 . S
C412 C407 1.391 . S
C412 N411 1.388 . S
Co413 O415 2.143 . S
Co413 O421 2.074 1_554 S
Co413 O424 2.093 . S
Co413 O437 2.097 . S
Co413 N454 2.151 . S
Co413 N462 2.214 . S
Co414 O415 2.160 . S
Co414 O420 2.058 1_554 S
Co414 O430 2.057 . S
Co414 O445 2.037 . S
Co414 N449 2.145 1_554 S
Co414 N470 2.257 . S
O415 Co413 2.143 . S
O415 Co414 2.160 . S
C416 O417 1.278 . S
C416 O424 1.224 . S
O417 C416 1.278 . S
C418 O419 1.245 . S
C418 O430 1.232 . S
O419 C418 1.245 . S
O420 Co414 2.058 1_556 S
O420 C446 1.269 . S
O421 Co413 2.074 1_556 S
O421 C446 1.257 . S
H422 C447 0.930 . S
H423 C453 0.930 . S
O424 Co413 2.093 . S
O424 C416 1.224 . S
H425 C457 0.929 . S
H426 C459 0.930 . S
H427 C460 0.930 . S
H428 C458 0.929 . S
H429 C461 0.928 . S
O430 Co414 2.057 . S
O430 C418 1.232 . S
H431 C450 0.929 . S
H432 C451 0.929 . S
H433 C463 0.931 . S
H434 C455 0.929 . S
H435 C464 0.930 . S
H436 C456 0.931 . S
O437 Co413 2.097 . S
O437 C465 1.214 . S
H438 C466 0.929 . S
H439 C467 0.929 . S
H440 C468 0.930 . S
H441 C469 0.929 . S
H442 C471 0.930 . S
H443 C448 0.930 . S
H444 C452 0.930 . S
O445 Co414 2.037 . S
O445 C465 1.234 . S
C446 O420 1.269 . S
C446 O421 1.257 . S
C447 H422 0.930 . S
C447 C450 1.388 . S
C447 C452 1.418 . S
C448 H443 0.930 . S
C448 C451 1.404 . S
C448 C452 1.353 . S
N449 Co414 2.145 1_556 S
N449 C450 1.397 . S
N449 C451 1.334 . S
C450 H431 0.929 . S
C450 C447 1.388 . S
C450 N449 1.397 . S
C451 H432 0.929 . S
C451 C448 1.404 . S
C451 N449 1.334 . S
C452 H444 0.930 . S
C452 C447 1.418 . S
C452 C448 1.353 . S
C453 H423 0.930 . S
C453 N454 1.330 . S
C453 C455 1.446 . S
N454 Co413 2.151 . S
N454 C453 1.330 . S
N454 C458 1.418 . S
C455 H434 0.929 . S
C455 C453 1.446 . S
C455 C456 1.332 . S
C456 H436 0.931 . S
C456 C455 1.332 . S
C456 C457 1.267 . S
C457 H425 0.929 . S
C457 C456 1.267 . S
C457 C458 1.251 . S
C458 H428 0.929 . S
C458 N454 1.418 . S
C458 C457 1.251 . S
C459 H426 0.930 . S
C459 C461 1.406 . S
C459 C464 1.261 . S
C460 H427 0.930 . S
C460 N462 1.325 . S
C460 C463 1.357 . S
C461 H429 0.928 . S
C461 C459 1.406 . S
C461 N462 1.261 . S
N462 Co413 2.214 . S
N462 C460 1.325 . S
N462 C461 1.261 . S
C463 H433 0.931 . S
C463 C460 1.357 . S
C463 C464 1.312 . S
C464 H435 0.930 . S
C464 C459 1.261 . S
C464 C463 1.312 . S
C465 O437 1.214 . S
C465 O445 1.234 . S
C466 H438 0.929 . S
C466 C469 1.391 . S
C466 C471 1.391 . S
C467 H439 0.929 . S
C467 C468 1.390 . S
C467 N470 1.391 . S
C468 H440 0.930 . S
C468 C467 1.390 . S
C468 C469 1.392 . S
C469 H441 0.929 . S
C469 C466 1.391 . S
C469 C468 1.392 . S
N470 Co414 2.257 . S
N470 C467 1.391 . S
N470 C471 1.388 . S
C471 H442 0.930 . S
C471 C466 1.391 . S
C471 N470 1.388 . S
C472 C473 1.391 . S
C472 C474 1.394 . S
C472 H488 0.931 . S
C473 C472 1.391 . S
C473 C477 1.376 . S
C474 C472 1.394 . S
C474 C475 1.369 . S
C474 C478 1.531 . S
C475 C474 1.369 . S
C475 C476 1.410 . S
C475 C483 1.503 . S
C476 C475 1.410 . S
C476 C477 1.392 . S
C476 C479 1.511 . S
C477 C473 1.376 . S
C477 C476 1.392 . S
C477 H489 0.929 . S
C478 C474 1.531 . S
C478 H490 0.960 . S
C478 H491 0.962 . S
C478 H492 0.960 . S
C479 C476 1.511 . S
C479 H493 0.961 . S
C479 H494 0.961 . S
C479 H495 0.961 . S
C480 C481 1.370 . S
C480 C482 1.363 . S
C480 H496 0.931 . S
C481 C480 1.370 . S
C481 C485 1.408 . S
C482 C480 1.363 . S
C482 C483 1.370 . S
C482 C486 1.524 . S
C483 C475 1.503 . S
C483 C482 1.370 . S
C483 C484 1.403 . S
C484 C483 1.403 . S
C484 C485 1.404 . S
C484 C487 1.539 . S
C485 C481 1.408 . S
C485 C484 1.404 . S
C485 H497 0.930 . S
C486 C482 1.524 . S
C486 H498 0.956 . S
C486 H499 0.961 . S
C486 H500 0.961 . S
C487 C484 1.539 . S
C487 H501 0.958 . S
C487 H502 0.961 . S
C487 H503 0.960 . S
H488 C472 0.931 . S
H489 C477 0.929 . S
H490 C478 0.960 . S
H491 C478 0.962 . S
H492 C478 0.960 . S
H493 C479 0.961 . S
H494 C479 0.961 . S
H495 C479 0.961 . S
H496 C480 0.931 . S
H497 C485 0.930 . S
H498 C486 0.956 . S
H499 C486 0.961 . S
H500 C486 0.961 . S
H501 C487 0.958 . S
H502 C487 0.961 . S
H503 C487 0.960 . S
C504 C505 1.391 . S
C504 C506 1.394 . S
C504 H520 0.931 . S
C505 C504 1.391 . S
C505 C509 1.376 . S
C506 C504 1.394 . S
C506 C507 1.369 . S
C506 C510 1.531 . S
C507 C506 1.369 . S
C507 C508 1.410 . S
C507 C515 1.503 . S
C508 C507 1.410 . S
C508 C509 1.392 . S
C508 C511 1.511 . S
C509 C505 1.376 . S
C509 C508 1.392 . S
C509 H521 0.929 . S
C510 C506 1.531 . S
C510 H522 0.960 . S
C510 H523 0.962 . S
C510 H524 0.960 . S
C511 C508 1.511 . S
C511 H525 0.961 . S
C511 H526 0.961 . S
C511 H527 0.961 . S
C512 C513 1.370 . S
C512 C514 1.363 . S
C512 H528 0.931 . S
C513 C512 1.370 . S
C513 C517 1.408 . S
C514 C512 1.363 . S
C514 C515 1.370 . S
C514 C518 1.524 . S
C515 C507 1.503 . S
C515 C514 1.370 . S
C515 C516 1.403 . S
C516 C515 1.403 . S
C516 C517 1.404 . S
C516 C519 1.539 . S
C517 C513 1.408 . S
C517 C516 1.404 . S
C517 H529 0.930 . S
C518 C514 1.524 . S
C518 H530 0.956 . S
C518 H531 0.961 . S
C518 H532 0.961 . S
C519 C516 1.539 . S
C519 H533 0.958 . S
C519 H534 0.961 . S
C519 H535 0.960 . S
H520 C504 0.931 . S
H521 C509 0.929 . S
H522 C510 0.960 . S
H523 C510 0.962 . S
H524 C510 0.960 . S
H525 C511 0.961 . S
H526 C511 0.961 . S
H527 C511 0.961 . S
H528 C512 0.931 . S
H529 C517 0.930 . S
H530 C518 0.956 . S
H531 C518 0.961 . S
H532 C518 0.961 . S
H533 C519 0.958 . S
H534 C519 0.961 . S
H535 C519 0.960 . S
C536 C537 1.391 . S
C536 C538 1.394 . S
C536 H552 0.931 . S
C537 C536 1.391 . S
C537 C541 1.376 . S
C538 C536 1.394 . S
C538 C539 1.369 . S
C538 C542 1.531 . S
C539 C538 1.369 . S
C539 C540 1.410 . S
C539 C547 1.503 . S
C540 C539 1.410 . S
C540 C541 1.392 . S
C540 C543 1.511 . S
C541 C537 1.376 . S
C541 C540 1.392 . S
C541 H553 0.929 . S
C542 C538 1.531 . S
C542 H554 0.960 . S
C542 H555 0.962 . S
C542 H556 0.960 . S
C543 C540 1.511 . S
C543 H557 0.961 . S
C543 H558 0.961 . S
C543 H559 0.961 . S
C544 C545 1.370 . S
C544 C546 1.363 1_556 S
C544 H560 0.931 . S
C545 C544 1.370 . S
C545 C549 1.408 . S
C546 C544 1.363 1_554 S
C546 C547 1.370 . S
C546 C550 1.524 . S
C547 C539 1.503 . S
C547 C546 1.370 . S
C547 C548 1.403 . S
C548 C547 1.403 . S
C548 C549 1.404 1_554 S
C548 C551 1.539 . S
C549 C545 1.408 . S
C549 C548 1.404 1_556 S
C549 H561 0.930 . S
C550 C546 1.524 . S
C550 H562 0.956 . S
C550 H563 0.961 . S
C550 H564 0.961 . S
C551 C548 1.539 . S
C551 H565 0.958 . S
C551 H566 0.961 1_554 S
C551 H567 0.960 . S
H552 C536 0.931 . S
H553 C541 0.929 . S
H554 C542 0.960 . S
H555 C542 0.962 . S
H556 C542 0.960 . S
H557 C543 0.961 . S
H558 C543 0.961 . S
H559 C543 0.961 . S
H560 C544 0.931 . S
H561 C549 0.930 . S
H562 C550 0.956 . S
H563 C550 0.961 . S
H564 C550 0.961 . S
H565 C551 0.958 . S
H566 C551 0.961 1_556 S
H567 C551 0.960 . S
C568 C569 1.391 . S
C568 C570 1.394 . S
C568 H584 0.931 . S
C569 C568 1.391 . S
C569 C573 1.376 . S
C570 C568 1.394 . S
C570 C571 1.369 . S
C570 C574 1.531 . S
C571 C570 1.369 . S
C571 C572 1.410 . S
C571 C579 1.503 . S
C572 C571 1.410 . S
C572 C573 1.392 . S
C572 C575 1.511 . S
C573 C569 1.376 . S
C573 C572 1.392 . S
C573 H585 0.929 . S
C574 C570 1.531 . S
C574 H586 0.960 . S
C574 H587 0.962 . S
C574 H588 0.960 . S
C575 C572 1.511 . S
C575 H589 0.961 . S
C575 H590 0.961 . S
C575 H591 0.961 . S
C576 C577 1.370 . S
C576 C578 1.363 . S
C576 H592 0.931 . S
C577 C576 1.370 . S
C577 C581 1.408 . S
C578 C576 1.363 . S
C578 C579 1.370 . S
C578 C582 1.524 . S
C579 C571 1.503 . S
C579 C578 1.370 . S
C579 C580 1.403 . S
C580 C579 1.403 . S
C580 C581 1.404 . S
C580 C583 1.539 . S
C581 C577 1.408 . S
C581 C580 1.404 . S
C581 H593 0.930 . S
C582 C578 1.524 . S
C582 H594 0.956 . S
C582 H595 0.961 . S
C582 H596 0.961 . S
C583 C580 1.539 . S
C583 H597 0.958 . S
C583 H598 0.961 . S
C583 H599 0.960 . S
H584 C568 0.931 . S
H585 C573 0.929 . S
H586 C574 0.960 . S
H587 C574 0.962 . S
H588 C574 0.960 . S
H589 C575 0.961 . S
H590 C575 0.961 . S
H591 C575 0.961 . S
H592 C576 0.931 . S
H593 C581 0.930 . S
H594 C582 0.956 . S
H595 C582 0.961 . S
H596 C582 0.961 . S
H597 C583 0.958 . S
H598 C583 0.961 . S
H599 C583 0.960 . S
C600 C601 1.391 . S
C600 C602 1.394 . S
C600 H616 0.931 . S
C601 C600 1.391 . S
C601 C605 1.376 . S
C602 C600 1.394 . S
C602 C603 1.369 . S
C602 C606 1.531 . S
C603 C602 1.369 . S
C603 C604 1.410 . S
C603 C611 1.503 . S
C604 C603 1.410 . S
C604 C605 1.392 . S
C604 C607 1.511 . S
C605 C601 1.376 . S
C605 C604 1.392 . S
C605 H617 0.929 . S
C606 C602 1.531 . S
C606 H618 0.960 . S
C606 H619 0.962 . S
C606 H620 0.960 . S
C607 C604 1.511 . S
C607 H621 0.961 . S
C607 H622 0.961 . S
C607 H623 0.961 . S
C608 C609 1.370 . S
C608 C610 1.363 . S
C608 H624 0.931 . S
C609 C608 1.370 . S
C609 C613 1.408 . S
C610 C608 1.363 . S
C610 C611 1.370 . S
C610 C614 1.524 . S
C611 C603 1.503 . S
C611 C610 1.370 . S
C611 C612 1.403 . S
C612 C611 1.403 . S
C612 C613 1.404 . S
C612 C615 1.539 . S
C613 C609 1.408 . S
C613 C612 1.404 . S
C613 H625 0.930 . S
C614 C610 1.524 . S
C614 H626 0.956 . S
C614 H627 0.961 . S
C614 H628 0.961 . S
C615 C612 1.539 . S
C615 H629 0.958 . S
C615 H630 0.961 . S
C615 H631 0.960 . S
H616 C600 0.931 . S
H617 C605 0.929 . S
H618 C606 0.960 . S
H619 C606 0.962 . S
H620 C606 0.960 . S
H621 C607 0.961 . S
H622 C607 0.961 . S
H623 C607 0.961 . S
H624 C608 0.931 . S
H625 C613 0.930 . S
H626 C614 0.956 . S
H627 C614 0.961 . S
H628 C614 0.961 . S
H629 C615 0.958 . S
H630 C615 0.961 . S
H631 C615 0.960 . S
C632 C633 1.391 . S
C632 C634 1.394 . S
C632 H648 0.931 . S
C633 C632 1.391 . S
C633 C637 1.376 . S
C634 C632 1.394 . S
C634 C635 1.369 . S
C634 C638 1.531 . S
C635 C634 1.369 . S
C635 C636 1.410 . S
C635 C643 1.503 . S
C636 C635 1.410 . S
C636 C637 1.392 . S
C636 C639 1.511 . S
C637 C633 1.376 . S
C637 C636 1.392 . S
C637 H649 0.929 . S
C638 C634 1.531 . S
C638 H650 0.960 . S
C638 H651 0.962 . S
C638 H652 0.960 . S
C639 C636 1.511 . S
C639 H653 0.961 . S
C639 H654 0.961 . S
C639 H655 0.961 . S
C640 C641 1.370 . S
C640 C642 1.363 . S
C640 H656 0.931 . S
C641 C640 1.370 . S
C641 C645 1.408 . S
C642 C640 1.363 . S
C642 C643 1.370 . S
C642 C646 1.524 . S
C643 C635 1.503 . S
C643 C642 1.370 . S
C643 C644 1.403 . S
C644 C643 1.403 . S
C644 C645 1.404 . S
C644 C647 1.539 . S
C645 C641 1.408 . S
C645 C644 1.404 . S
C645 H657 0.930 . S
C646 C642 1.524 . S
C646 H658 0.956 . S
C646 H659 0.961 . S
C646 H660 0.961 . S
C647 C644 1.539 . S
C647 H661 0.958 . S
C647 H662 0.961 . S
C647 H663 0.960 . S
H648 C632 0.931 . S
H649 C637 0.929 . S
H650 C638 0.960 . S
H651 C638 0.962 . S
H652 C638 0.960 . S
H653 C639 0.961 . S
H654 C639 0.961 . S
H655 C639 0.961 . S
H656 C640 0.931 . S
H657 C645 0.930 . S
H658 C646 0.956 . S
H659 C646 0.961 . S
H660 C646 0.961 . S
H661 C647 0.958 . S
H662 C647 0.961 . S
H663 C647 0.960 . S
C664 C665 1.391 1_556 S
C664 C666 1.394 . S
C664 H680 0.931 . S
C665 C664 1.391 1_554 S
C665 C669 1.376 . S
C666 C664 1.394 . S
C666 C667 1.369 . S
C666 C670 1.531 . S
C667 C666 1.369 . S
C667 C668 1.410 . S
C667 C675 1.503 . S
C668 C667 1.410 . S
C668 C669 1.392 1_556 S
C668 C671 1.511 1_556 S
C669 C665 1.376 . S
C669 C668 1.392 1_554 S
C669 H681 0.929 . S
C670 C666 1.531 . S
C670 H682 0.960 . S
C670 H683 0.962 . S
C670 H684 0.960 . S
C671 C668 1.511 1_554 S
C671 H685 0.961 . S
C671 H686 0.961 1_554 S
C671 H687 0.961 . S
C672 C673 1.370 . S
C672 C674 1.363 . S
C672 H688 0.931 . S
C673 C672 1.370 . S
C673 C677 1.408 . S
C674 C672 1.363 . S
C674 C675 1.370 . S
C674 C678 1.524 . S
C675 C667 1.503 . S
C675 C674 1.370 . S
C675 C676 1.403 . S
C676 C675 1.403 . S
C676 C677 1.404 . S
C676 C679 1.543 . S
C677 C673 1.408 . S
C677 C676 1.404 . S
C677 H689 0.930 . S
C678 C674 1.524 . S
C678 H690 0.956 . S
C678 H691 0.961 . S
C678 H692 0.961 . S
C679 C676 1.543 . S
C679 H693 0.959 . S
C679 H694 0.960 1_556 S
C679 H695 0.957 1_556 S
H680 C664 0.931 . S
H681 C669 0.929 . S
H682 C670 0.960 . S
H683 C670 0.962 . S
H684 C670 0.960 . S
H685 C671 0.961 . S
H686 C671 0.961 1_556 S
H687 C671 0.961 . S
H688 C672 0.931 . S
H689 C677 0.930 . S
H690 C678 0.956 . S
H691 C678 0.961 . S
H692 C678 0.961 . S
H693 C679 0.959 . S
H694 C679 0.960 1_554 S
H695 C679 0.957 1_554 S
C696 C697 1.391 . S
C696 C698 1.394 . S
C696 H712 0.931 . S
C697 C696 1.391 . S
C697 C701 1.376 . S
C698 C696 1.394 . S
C698 C699 1.369 . S
C698 C702 1.531 . S
C699 C698 1.369 . S
C699 C700 1.410 . S
C699 C707 1.503 . S
C700 C699 1.410 . S
C700 C701 1.392 . S
C700 C703 1.511 . S
C701 C697 1.376 . S
C701 C700 1.392 . S
C701 H713 0.929 . S
C702 C698 1.531 . S
C702 H714 0.960 . S
C702 H715 0.962 . S
C702 H716 0.960 . S
C703 C700 1.511 . S
C703 H717 0.961 . S
C703 H718 0.961 . S
C703 H719 0.961 . S
C704 C705 1.370 . S
C704 C706 1.363 . S
C704 H720 0.931 . S
C705 C704 1.370 . S
C705 C709 1.408 . S
C706 C704 1.363 . S
C706 C707 1.370 . S
C706 C710 1.524 . S
C707 C699 1.503 . S
C707 C706 1.370 . S
C707 C708 1.403 . S
C708 C707 1.403 . S
C708 C709 1.404 . S
C708 C711 1.539 . S
C709 C705 1.408 . S
C709 C708 1.404 . S
C709 H721 0.930 . S
C710 C706 1.524 . S
C710 H722 0.956 . S
C710 H723 0.961 . S
C710 H724 0.961 . S
C711 C708 1.539 . S
C711 H725 0.958 . S
C711 H726 0.961 . S
C711 H727 0.960 . S
H712 C696 0.931 . S
H713 C701 0.929 . S
H714 C702 0.960 . S
H715 C702 0.962 . S
H716 C702 0.960 . S
H717 C703 0.961 . S
H718 C703 0.961 . S
H719 C703 0.961 . S
H720 C704 0.931 . S
H721 C709 0.930 . S
H722 C710 0.956 . S
H723 C710 0.961 . S
H724 C710 0.961 . S
H725 C711 0.958 . S
H726 C711 0.961 . S
H727 C711 0.960 . S
C728 C729 1.391 . S
C728 C730 1.394 . S
C728 H744 0.931 . S
C729 C728 1.391 . S
C729 C733 1.376 . S
C730 C728 1.394 . S
C730 C731 1.369 . S
C730 C734 1.531 . S
C731 C730 1.369 . S
C731 C732 1.410 . S
C731 C739 1.503 1_565 S
C732 C731 1.410 . S
C732 C733 1.392 . S
C732 C735 1.511 . S
C733 C729 1.376 . S
C733 C732 1.392 . S
C733 H745 0.929 . S
C734 C730 1.531 . S
C734 H746 0.960 1_565 S
C734 H747 0.962 . S
C734 H748 0.960 . S
C735 C732 1.511 . S
C735 H749 0.961 . S
C735 H750 0.961 1_565 S
C735 H751 0.961 . S
C736 C737 1.370 . S
C736 C738 1.363 . S
C736 H752 0.931 . S
C737 C736 1.370 . S
C737 C741 1.408 . S
C738 C736 1.363 . S
C738 C739 1.370 . S
C738 C742 1.524 . S
C739 C731 1.503 1_545 S
C739 C738 1.370 . S
C739 C740 1.403 . S
C740 C739 1.403 . S
C740 C741 1.404 . S
C740 C743 1.539 . S
C741 C737 1.408 . S
C741 C740 1.404 . S
C741 H753 0.930 . S
C742 C738 1.524 . S
C742 H754 0.956 1_545 S
C742 H755 0.961 1_545 S
C742 H756 0.961 . S
C743 C740 1.539 . S
C743 H757 0.958 . S
C743 H758 0.961 . S
C743 H759 0.960 . S
H744 C728 0.931 . S
H745 C733 0.929 . S
H746 C734 0.960 1_545 S
H747 C734 0.962 . S
H748 C734 0.960 . S
H749 C735 0.961 . S
H750 C735 0.961 1_545 S
H751 C735 0.961 . S
H752 C736 0.931 . S
H753 C741 0.930 . S
H754 C742 0.956 1_565 S
H755 C742 0.961 1_565 S
H756 C742 0.961 . S
H757 C743 0.958 . S
H758 C743 0.961 . S
H759 C743 0.960 . S
C760 C761 1.391 . S
C760 C762 1.394 . S
C760 H776 0.931 . S
C761 C760 1.391 . S
C761 C765 1.376 . S
C762 C760 1.394 . S
C762 C763 1.369 . S
C762 C766 1.531 . S
C763 C762 1.369 . S
C763 C764 1.410 . S
C763 C771 1.503 1_655 S
C764 C763 1.410 . S
C764 C765 1.392 . S
C764 C767 1.511 . S
C765 C761 1.376 . S
C765 C764 1.392 . S
C765 H777 0.929 . S
C766 C762 1.531 . S
C766 H778 0.960 . S
C766 H779 0.962 . S
C766 H780 0.960 . S
C767 C764 1.511 . S
C767 H781 0.961 . S
C767 H782 0.961 1_655 S
C767 H783 0.961 . S
C768 C769 1.370 . S
C768 C770 1.363 . S
C768 H784 0.931 . S
C769 C768 1.370 . S
C769 C773 1.408 . S
C770 C768 1.363 . S
C770 C771 1.370 . S
C770 C774 1.524 . S
C771 C763 1.503 1_455 S
C771 C770 1.370 . S
C771 C772 1.403 . S
C772 C771 1.403 . S
C772 C773 1.404 . S
C772 C775 1.539 . S
C773 C769 1.408 . S
C773 C772 1.404 . S
C773 H785 0.930 . S
C774 C770 1.524 . S
C774 H786 0.951 1_455 S
C774 H787 0.961 . S
C774 H788 0.961 . S
C775 C772 1.539 . S
C775 H789 0.958 . S
C775 H790 0.961 . S
C775 H791 0.988 . S
H776 C760 0.931 . S
H777 C765 0.929 . S
H778 C766 0.960 . S
H779 C766 0.962 . S
H780 C766 0.960 . S
H781 C767 0.961 . S
H782 C767 0.961 1_455 S
H783 C767 0.961 . S
H784 C768 0.931 . S
H785 C773 0.930 . S
H786 C774 0.951 1_655 S
H787 C774 0.961 . S
H788 C774 0.961 . S
H789 C775 0.958 . S
H790 C775 0.961 . S
H791 C775 0.988 . S
C792 C793 1.391 . S
C792 C794 1.394 . S
C792 H808 0.931 . S
C793 C792 1.391 . S
C793 C797 1.376 . S
C794 C792 1.394 . S
C794 C795 1.369 . S
C794 C798 1.531 . S
C795 C794 1.369 . S
C795 C796 1.410 . S
C795 C803 1.503 1_565 S
C796 C795 1.410 . S
C796 C797 1.392 . S
C796 C799 1.511 . S
C797 C793 1.376 . S
C797 C796 1.392 . S
C797 H809 0.929 . S
C798 C794 1.531 . S
C798 H810 0.960 1_565 S
C798 H811 0.962 . S
C798 H812 0.960 . S
C799 C796 1.511 . S
C799 H813 0.961 . S
C799 H814 0.961 1_565 S
C799 H815 0.961 . S
C800 C801 1.370 . S
C800 C802 1.363 . S
C800 H816 0.931 . S
C801 C800 1.370 . S
C801 C805 1.408 . S
C802 C800 1.363 . S
C802 C803 1.370 . S
C802 C806 1.524 . S
C803 C795 1.503 1_545 S
C803 C802 1.370 . S
C803 C804 1.403 . S
C804 C803 1.403 . S
C804 C805 1.404 . S
C804 C807 1.539 . S
C805 C801 1.408 . S
C805 C804 1.404 . S
C805 H817 0.930 . S
C806 C802 1.524 . S
C806 H818 0.956 . S
C806 H819 0.961 . S
C806 H820 0.961 . S
C807 C804 1.539 . S
C807 H821 0.958 . S
C807 H822 0.961 . S
C807 H823 0.960 1_545 S
H808 C792 0.931 . S
H809 C797 0.929 . S
H810 C798 0.960 1_545 S
H811 C798 0.962 . S
H812 C798 0.960 . S
H813 C799 0.961 . S
H814 C799 0.961 1_545 S
H815 C799 0.961 . S
H816 C800 0.931 . S
H817 C805 0.930 . S
H818 C806 0.956 . S
H819 C806 0.961 . S
H820 C806 0.961 . S
H821 C807 0.958 . S
H822 C807 0.961 . S
H823 C807 0.960 1_565 S
C824 C825 1.391 . S
C824 C826 1.394 . S
C824 H840 0.931 1_554 S
C825 C824 1.391 . S
C825 C829 1.376 . S
C826 C824 1.394 . S
C826 C827 1.369 . S
C826 C830 1.531 1_554 S
C827 C826 1.369 . S
C827 C828 1.410 . S
C827 C835 1.503 1_655 S
C828 C827 1.410 . S
C828 C829 1.392 . S
C828 C831 1.511 . S
C829 C825 1.376 . S
C829 C828 1.392 . S
C829 H841 0.929 . S
C830 C826 1.531 1_556 S
C830 H842 0.960 1_655 S
C830 H843 0.962 . S
C830 H844 0.960 . S
C831 C828 1.511 . S
C831 H845 0.961 . S
C831 H846 0.961 . S
C831 H847 0.961 . S
C832 C833 1.370 . S
C832 C834 1.363 . S
C832 H848 0.931 . S
C833 C832 1.370 . S
C833 C837 1.408 . S
C834 C832 1.363 . S
C834 C835 1.370 . S
C834 C838 1.524 . S
C835 C827 1.503 1_455 S
C835 C834 1.370 . S
C835 C836 1.403 . S
C836 C835 1.403 . S
C836 C837 1.404 . S
C836 C839 1.539 . S
C837 C833 1.408 . S
C837 C836 1.404 . S
C837 H849 0.930 . S
C838 C834 1.524 . S
C838 H850 0.954 1_455 S
C838 H851 0.961 1_455 S
C838 H852 0.961 . S
C839 C836 1.539 . S
C839 H853 0.958 1_554 S
C839 H854 0.961 . S
C839 H855 0.960 . S
H840 C824 0.931 1_556 S
H841 C829 0.929 . S
H842 C830 0.960 1_455 S
H843 C830 0.962 . S
H844 C830 0.960 . S
H845 C831 0.961 . S
H846 C831 0.961 . S
H847 C831 0.961 . S
H848 C832 0.931 . S
H849 C837 0.930 . S
H850 C838 0.954 1_655 S
H851 C838 0.961 1_655 S
H852 C838 0.961 . S
H853 C839 0.958 1_556 S
H854 C839 0.961 . S
H855 C839 0.960 . S
C856 C857 1.391 . S
C856 C858 1.394 1_556 S
C856 H872 0.931 . S
C857 C856 1.391 . S
C857 C861 1.376 . S
C858 C856 1.394 1_554 S
C858 C859 1.369 . S
C858 C862 1.531 . S
C859 C858 1.369 . S
C859 C860 1.410 . S
C859 C867 1.503 . S
C860 C859 1.410 . S
C860 C861 1.392 1_554 S
C860 C863 1.511 . S
C861 C857 1.376 . S
C861 C860 1.392 1_556 S
C861 H873 0.929 . S
C862 C858 1.531 . S
C862 H874 0.960 . S
C862 H875 0.962 . S
C862 H876 0.960 . S
C863 C860 1.511 . S
C863 H877 0.961 1_554 S
C863 H878 0.961 . S
C863 H879 0.961 . S
C864 C865 1.370 . S
C864 C866 1.363 . S
C864 H880 0.931 . S
C865 C864 1.370 . S
C865 C869 1.408 . S
C866 C864 1.363 . S
C866 C867 1.370 . S
C866 C870 1.524 . S
C867 C859 1.503 . S
C867 C866 1.370 . S
C867 C868 1.403 . S
C868 C867 1.403 . S
C868 C869 1.404 . S
C868 C871 1.539 . S
C869 C865 1.408 . S
C869 C868 1.404 . S
C869 H881 0.930 . S
C870 C866 1.524 . S
C870 H882 0.956 . S
C870 H883 0.961 . S
C870 H884 0.961 . S
C871 C868 1.539 . S
C871 H885 0.958 . S
C871 H886 0.961 . S
C871 H887 0.960 . S
H872 C856 0.931 . S
H873 C861 0.929 . S
H874 C862 0.960 . S
H875 C862 0.962 . S
H876 C862 0.960 . S
H877 C863 0.961 1_556 S
H878 C863 0.961 . S
H879 C863 0.961 . S
H880 C864 0.931 . S
H881 C869 0.930 . S
H882 C870 0.956 . S
H883 C870 0.961 . S
H884 C870 0.961 . S
H885 C871 0.958 . S
H886 C871 0.961 . S
H887 C871 0.960 . S
C888 C889 1.391 . S
C888 C890 1.394 . S
C888 H904 0.931 . S
C889 C888 1.391 . S
C889 C893 1.376 . S
C890 C888 1.394 . S
C890 C891 1.369 . S
C890 C894 1.531 . S
C891 C890 1.369 . S
C891 C892 1.410 . S
C891 C899 1.503 . S
C892 C891 1.410 . S
C892 C893 1.392 . S
C892 C895 1.511 . S
C893 C889 1.376 . S
C893 C892 1.392 . S
C893 H905 0.929 . S
C894 C890 1.531 . S
C894 H906 0.960 . S
C894 H907 0.962 . S
C894 H908 0.960 . S
C895 C892 1.511 . S
C895 H909 0.961 . S
C895 H910 0.961 . S
C895 H911 0.961 . S
C896 C897 1.370 . S
C896 C898 1.363 . S
C896 H912 0.931 . S
C897 C896 1.370 . S
C897 C901 1.408 . S
C898 C896 1.363 . S
C898 C899 1.370 . S
C898 C902 1.524 . S
C899 C891 1.503 . S
C899 C898 1.370 . S
C899 C900 1.403 . S
C900 C899 1.403 . S
C900 C901 1.404 . S
C900 C903 1.539 . S
C901 C897 1.408 . S
C901 C900 1.404 . S
C901 H913 0.930 . S
C902 C898 1.524 . S
C902 H914 0.956 . S
C902 H915 0.961 . S
C902 H916 0.961 . S
C903 C900 1.539 . S
C903 H917 0.958 . S
C903 H918 0.961 . S
C903 H919 0.960 . S
H904 C888 0.931 . S
H905 C893 0.929 . S
H906 C894 0.960 . S
H907 C894 0.962 . S
H908 C894 0.960 . S
H909 C895 0.961 . S
H910 C895 0.961 . S
H911 C895 0.961 . S
H912 C896 0.931 . S
H913 C901 0.930 . S
H914 C902 0.956 . S
H915 C902 0.961 . S
H916 C902 0.961 . S
H917 C903 0.958 . S
H918 C903 0.961 . S
H919 C903 0.960 . S
C920 C921 1.391 . S
C920 C922 1.394 . S
C920 H936 0.931 . S
C921 C920 1.391 . S
C921 C925 1.376 . S
C922 C920 1.394 . S
C922 C923 1.369 . S
C922 C926 1.531 . S
C923 C922 1.369 . S
C923 C924 1.410 . S
C923 C931 1.503 . S
C924 C923 1.410 . S
C924 C925 1.392 . S
C924 C927 1.511 . S
C925 C921 1.376 . S
C925 C924 1.392 . S
C925 H937 0.929 . S
C926 C922 1.531 . S
C926 H938 0.960 . S
C926 H939 0.962 . S
C926 H940 0.960 . S
C927 C924 1.511 . S
C927 H941 0.961 . S
C927 H942 0.961 . S
C927 H943 0.961 . S
C928 C929 1.370 . S
C928 C930 1.363 . S
C928 H944 0.931 . S
C929 C928 1.370 . S
C929 C933 1.408 . S
C930 C928 1.363 . S
C930 C931 1.370 . S
C930 C934 1.524 . S
C931 C923 1.503 . S
C931 C930 1.370 . S
C931 C932 1.403 . S
C932 C931 1.403 . S
C932 C933 1.404 . S
C932 C935 1.539 . S
C933 C929 1.408 . S
C933 C932 1.404 . S
C933 H945 0.930 . S
C934 C930 1.524 . S
C934 H946 0.956 . S
C934 H947 0.961 . S
C934 H948 0.961 . S
C935 C932 1.539 . S
C935 H949 0.958 . S
C935 H950 0.961 . S
C935 H951 0.960 . S
H936 C920 0.931 . S
H937 C925 0.929 . S
H938 C926 0.960 . S
H939 C926 0.962 . S
H940 C926 0.960 . S
H941 C927 0.961 . S
H942 C927 0.961 . S
H943 C927 0.961 . S
H944 C928 0.931 . S
H945 C933 0.930 . S
H946 C934 0.956 . S
H947 C934 0.961 . S
H948 C934 0.961 . S
H949 C935 0.958 . S
H950 C935 0.961 . S
H951 C935 0.960 . S
C952 C953 1.391 . S
C952 C954 1.394 . S
C952 H968 0.931 . S
C953 C952 1.391 . S
C953 C957 1.376 . S
C954 C952 1.394 . S
C954 C955 1.369 . S
C954 C958 1.531 . S
C955 C954 1.369 . S
C955 C956 1.410 . S
C955 C963 1.503 . S
C956 C955 1.410 . S
C956 C957 1.392 . S
C956 C959 1.511 . S
C957 C953 1.376 . S
C957 C956 1.392 . S
C957 H969 0.929 . S
C958 C954 1.531 . S
C958 H970 0.960 . S
C958 H971 0.962 . S
C958 H972 0.960 . S
C959 C956 1.511 . S
C959 H973 0.961 . S
C959 H974 0.961 . S
C959 H975 0.961 . S
C960 C961 1.370 . S
C960 C962 1.363 . S
C960 H976 0.931 . S
C961 C960 1.370 . S
C961 C965 1.408 . S
C962 C960 1.363 . S
C962 C963 1.370 . S
C962 C966 1.524 . S
C963 C955 1.503 . S
C963 C962 1.370 . S
C963 C964 1.403 . S
C964 C963 1.403 . S
C964 C965 1.404 . S
C964 C967 1.539 . S
C965 C961 1.408 . S
C965 C964 1.404 . S
C965 H977 0.930 . S
C966 C962 1.524 . S
C966 H978 0.956 . S
C966 H979 0.961 . S
C966 H980 0.961 . S
C967 C964 1.539 . S
C967 H981 0.958 . S
C967 H982 0.961 . S
C967 H983 0.960 . S
H968 C952 0.931 . S
H969 C957 0.929 . S
H970 C958 0.960 . S
H971 C958 0.962 . S
H972 C958 0.960 . S
H973 C959 0.961 . S
H974 C959 0.961 . S
H975 C959 0.961 . S
H976 C960 0.931 . S
H977 C965 0.930 . S
H978 C966 0.956 . S
H979 C966 0.961 . S
H980 C966 0.961 . S
H981 C967 0.958 . S
H982 C967 0.961 . S
H983 C967 0.960 . S
C473 C33 0.873 . S
C481 C387 0.865 . S
C505 C92 0.879 . S
C513 C446 0.864 . S
C537 C269 0.857 . S
C545 C151 0.873 . S
C569 C328 0.870 . S
C577 C210 0.866 . S
C601 C5 1.612 . S
C609 C300 1.644 . S
C633 C64 1.614 . S
C641 C359 1.643 . S
C665 C418 1.650 . S
C673 C123 1.627 . S
C697 C182 1.651 . S
C705 C241 1.627 . S
C729 C288 1.625 . S
C737 C52 1.616 . S
C761 C111 1.617 . S
C769 C347 1.621 . S
C793 C170 1.605 . S
C801 C406 1.624 . S
C825 C465 1.619 . S
C833 C229 1.617 . S
C857 C357 1.360 . S
C865 C3 1.356 . S
C889 C416 1.315 . S
C897 C62 1.334 . S
C921 C121 1.358 . S
C929 C239 1.356 . S
C953 C180 1.314 . S
C961 C298 1.335 . S
