# Generated by pormake.
# Topology und, (4)-cn, num edge types: 1
# Building blocks:
#     Node 0, Type 0, BuildingBlock: ICAMEG_clean_sbu_1, # of connection points: 4
#     Node 1, Type 0, BuildingBlock: ICAMEG_clean_sbu_1, # of connection points: 4
#     Node 2, Type 0, BuildingBlock: ICAMEG_clean_sbu_1, # of connection points: 4
#     Node 3, Type 0, BuildingBlock: ICAMEG_clean_sbu_1, # of connection points: 4
#     Node 4, Type 0, BuildingBlock: ICAMEG_clean_sbu_1, # of connection points: 4
#     Node 5, Type 0, BuildingBlock: ICAMEG_clean_sbu_1, # of connection points: 4
#     Node 6, Type 0, BuildingBlock: ICAMEG_clean_sbu_1, # of connection points: 4
#     Node 7, Type 0, BuildingBlock: ICAMEG_clean_sbu_1, # of connection points: 4
#     Node 8, Type 0, BuildingBlock: ICAMEG_clean_sbu_1, # of connection points: 4
#     Node 9, Type 0, BuildingBlock: ICAMEG_clean_sbu_1, # of connection points: 4
#     Node 10, Type 0, BuildingBlock: ICAMEG_clean_sbu_1, # of connection points: 4
#     Node 11, Type 0, BuildingBlock: ICAMEG_clean_sbu_1, # of connection points: 4
#     Node 12, Type 0, BuildingBlock: ICAMEG_clean_sbu_1, # of connection points: 4
#     Node 13, Type 0, BuildingBlock: ICAMEG_clean_sbu_1, # of connection points: 4
#     Node 14, Type 0, BuildingBlock: ICAMEG_clean_sbu_1, # of connection points: 4
#     Node 15, Type 0, BuildingBlock: ICAMEG_clean_sbu_1, # of connection points: 4
#     Edge 16, Type (0, 0), BuildingBlock: UVAHIK_clean_linker_0, # of connection points: 2
#     Edge 17, Type (0, 0), BuildingBlock: UVAHIK_clean_linker_0, # of connection points: 2
#     Edge 18, Type (0, 0), BuildingBlock: UVAHIK_clean_linker_0, # of connection points: 2
#     Edge 19, Type (0, 0), BuildingBlock: UVAHIK_clean_linker_0, # of connection points: 2
#     Edge 20, Type (0, 0), BuildingBlock: UVAHIK_clean_linker_0, # of connection points: 2
#     Edge 21, Type (0, 0), BuildingBlock: UVAHIK_clean_linker_0, # of connection points: 2
#     Edge 22, Type (0, 0), BuildingBlock: UVAHIK_clean_linker_0, # of connection points: 2
#     Edge 23, Type (0, 0), BuildingBlock: UVAHIK_clean_linker_0, # of connection points: 2
#     Edge 24, Type (0, 0), BuildingBlock: UVAHIK_clean_linker_0, # of connection points: 2
#     Edge 25, Type (0, 0), BuildingBlock: UVAHIK_clean_linker_0, # of connection points: 2
#     Edge 26, Type (0, 0), BuildingBlock: UVAHIK_clean_linker_0, # of connection points: 2
#     Edge 27, Type (0, 0), BuildingBlock: UVAHIK_clean_linker_0, # of connection points: 2
#     Edge 28, Type (0, 0), BuildingBlock: UVAHIK_clean_linker_0, # of connection points: 2
#     Edge 29, Type (0, 0), BuildingBlock: UVAHIK_clean_linker_0, # of connection points: 2
#     Edge 30, Type (0, 0), BuildingBlock: UVAHIK_clean_linker_0, # of connection points: 2
#     Edge 31, Type (0, 0), BuildingBlock: UVAHIK_clean_linker_0, # of connection points: 2
#     Edge 32, Type (0, 0), BuildingBlock: UVAHIK_clean_linker_0, # of connection points: 2
#     Edge 33, Type (0, 0), BuildingBlock: UVAHIK_clean_linker_0, # of connection points: 2
#     Edge 34, Type (0, 0), BuildingBlock: UVAHIK_clean_linker_0, # of connection points: 2
#     Edge 35, Type (0, 0), BuildingBlock: UVAHIK_clean_linker_0, # of connection points: 2
#     Edge 36, Type (0, 0), BuildingBlock: UVAHIK_clean_linker_0, # of connection points: 2
#     Edge 37, Type (0, 0), BuildingBlock: UVAHIK_clean_linker_0, # of connection points: 2
#     Edge 38, Type (0, 0), BuildingBlock: UVAHIK_clean_linker_0, # of connection points: 2
#     Edge 39, Type (0, 0), BuildingBlock: UVAHIK_clean_linker_0, # of connection points: 2
#     Edge 40, Type (0, 0), BuildingBlock: UVAHIK_clean_linker_0, # of connection points: 2
#     Edge 41, Type (0, 0), BuildingBlock: UVAHIK_clean_linker_0, # of connection points: 2
#     Edge 42, Type (0, 0), BuildingBlock: UVAHIK_clean_linker_0, # of connection points: 2
#     Edge 43, Type (0, 0), BuildingBlock: UVAHIK_clean_linker_0, # of connection points: 2
#     Edge 44, Type (0, 0), BuildingBlock: UVAHIK_clean_linker_0, # of connection points: 2
#     Edge 45, Type (0, 0), BuildingBlock: UVAHIK_clean_linker_0, # of connection points: 2
#     Edge 46, Type (0, 0), BuildingBlock: UVAHIK_clean_linker_0, # of connection points: 2
#     Edge 47, Type (0, 0), BuildingBlock: UVAHIK_clean_linker_0, # of connection points: 2
# Relax obj value: 0.022
# Max RMSD: 0.082
# Mean RMSD: 0.082
data_MOF--net-und--node1-ICAMEG_clean_sbu_1--edge1-UVAHIK_clean_linker_0
_symmetry_space_group_name_H-M    P1
_symmetry_Int_Tables_number       1
_symmetry_cell_setting            triclinic
loop_
_symmetry_equiv_pos_as_xyz
'x, y, z'
_cell_length_a     83.523256
_cell_length_b     83.536785
_cell_length_c     28.590124
_cell_angle_alpha  90.018679
_cell_angle_beta   90.014846
_cell_angle_gamma 90.179575
loop_
_atom_site_label
_atom_site_type_symbol
_atom_site_fract_x
_atom_site_fract_y
_atom_site_fract_z
_atom_type_partial_charge
Co0 Co 0.27188 0.33238 0.00717 0.0
Co1 Co 0.23091 0.33169 0.00159 0.0
O2 O 0.25125 0.34363 0.00391 0.0
C3 C 0.27726 0.35939 0.93923 0.0
O4 O 0.26208 0.3593 0.92759 0.0
C5 C 0.22493 0.35858 0.06904 0.0
O6 O 0.23989 0.35814 0.08289 0.0
O7 O 0.23657 0.32052 0.0607 0.0
O8 O 0.26227 0.31486 0.04629 0.0
H9 H 0.19678 0.28222 0.01301 0.0
H10 H 0.27079 0.36661 0.03467 0.0
O11 O 0.28265 0.34945 0.96901 0.0
H12 H 0.2904 0.33804 0.17414 0.0
H13 H 0.33179 0.32832 0.02376 0.0
H14 H 0.28159 0.29844 0.99737 0.0
H15 H 0.28408 0.32329 0.10178 0.0
H16 H 0.30591 0.34242 0.02147 0.0
O17 O 0.2198 0.34883 0.03824 0.0
H18 H 0.22203 0.29758 0.01416 0.0
H19 H 0.19665 0.34055 0.98661 0.0
H20 H 0.3072 0.28387 0.99976 0.0
H21 H 0.27726 0.38187 0.10605 0.0
H22 H 0.33255 0.29883 0.01304 0.0
H23 H 0.28707 0.36757 0.17655 0.0
O24 O 0.2665 0.32046 0.94898 0.0
H25 H 0.22394 0.38003 0.89901 0.0
H26 H 0.21907 0.32128 0.90766 0.0
H27 H 0.21231 0.33511 0.8342 0.0
H28 H 0.21466 0.36472 0.82957 0.0
H29 H 0.23088 0.36568 0.97153 0.0
H30 H 0.17112 0.32566 0.98552 0.0
H31 H 0.17108 0.29627 0.99859 0.0
O32 O 0.24095 0.3141 0.96394 0.0
C33 C 0.24938 0.31285 0.06954 0.0
C34 C 0.19664 0.29501 0.00713 0.0
C35 C 0.18224 0.3194 0.99175 0.0
N36 N 0.21084 0.31993 1.00013 0.0
C37 C 0.21091 0.30378 0.00764 0.0
C38 C 0.19674 0.32777 0.99251 0.0
C39 C 0.18223 0.30291 0.99908 0.0
C40 C 0.27524 0.36031 0.06497 0.0
N41 N 0.27706 0.34407 0.06395 0.0
C42 C 0.2788 0.36901 0.1054 0.0
C43 C 0.28427 0.36098 0.14498 0.0
C44 C 0.28612 0.34441 0.14367 0.0
C45 C 0.28244 0.33611 0.10263 0.0
C46 C 0.32083 0.32167 0.01803 0.0
C47 C 0.29255 0.30503 0.00339 0.0
C48 C 0.30613 0.32959 0.0166 0.0
N49 N 0.29222 0.32125 0.0096 0.0
C50 C 0.30703 0.29671 0.00461 0.0
C51 C 0.32124 0.30512 0.01202 0.0
C52 C 0.25388 0.31231 0.94074 0.0
C53 C 0.22284 0.36713 0.9006 0.0
C54 C 0.22032 0.33414 0.90583 0.0
C55 C 0.21637 0.34192 0.86418 0.0
C56 C 0.21767 0.35853 0.86163 0.0
N57 N 0.22543 0.34265 0.94389 0.0
C58 C 0.22668 0.35894 0.94167 0.0
Co59 Co 0.92255 0.9866 0.2437 0.0
Co60 Co 0.92637 0.02731 0.24634 0.0
O61 O 0.91308 0.00796 0.2465 0.0
C62 C 0.90532 0.96987 0.32022 0.0
O63 O 0.91937 0.96665 0.33854 0.0
C64 C 0.9 0.03421 0.17863 0.0
O65 O 0.90072 0.01942 0.16338 0.0
O66 O 0.93667 0.02028 0.18706 0.0
O67 O 0.94058 0.99429 0.20287 0.0
H68 H 0.97784 0.05801 0.22858 0.0
H69 H 0.88827 0.99029 0.21864 0.0
O70 O 0.90442 0.97849 0.28353 0.0
H71 H 0.91392 0.96775 0.07806 0.0
H72 H 0.92122 0.92647 0.22781 0.0
H73 H 0.95541 0.97387 0.25397 0.0
H74 H 0.92978 0.97323 0.14899 0.0
H75 H 0.90949 0.95352 0.22971 0.0
O76 O 0.90955 0.03908 0.21031 0.0
H77 H 0.96088 0.03381 0.23075 0.0
H78 H 0.91987 0.06219 0.25877 0.0
H79 H 0.96765 0.94705 0.25225 0.0
H80 H 0.87191 0.98469 0.14873 0.0
H81 H 0.95051 0.92311 0.2391 0.0
H82 H 0.88474 0.97341 0.07768 0.0
O83 O 0.93548 0.99157 0.30059 0.0
H84 H 0.87964 0.03665 0.35343 0.0
H85 H 0.93834 0.03997 0.33773 0.0
H86 H 0.92565 0.04789 0.41201 0.0
H87 H 0.89608 0.04631 0.42017 0.0
H88 H 0.89284 0.02868 0.27989 0.0
H89 H 0.93638 0.08671 0.25654 0.0
H90 H 0.96559 0.0847 0.24155 0.0
O91 O 0.94355 0.01648 0.28348 0.0
C92 C 0.9434 0.00688 0.1788 0.0
C93 C 0.96513 0.05904 0.23528 0.0
C94 C 0.94186 0.07514 0.25091 0.0
N95 N 0.93943 0.04656 0.2452 0.0
C96 C 0.95547 0.04537 0.23665 0.0
C97 C 0.93257 0.06122 0.25202 0.0
C98 C 0.95825 0.07401 0.24251 0.0
C99 C 0.89392 0.98518 0.1881 0.0
N100 N 0.90997 0.98207 0.18803 0.0
C101 C 0.8846 0.98212 0.1485 0.0
C102 C 0.89182 0.97583 0.10862 0.0
C103 C 0.90819 0.97268 0.10879 0.0
C104 C 0.91713 0.97589 0.14901 0.0
C105 C 0.92882 0.93681 0.23352 0.0
C106 C 0.94788 0.96352 0.24816 0.0
C107 C 0.92225 0.95216 0.23463 0.0
N108 N 0.93177 0.96527 0.24184 0.0
C109 C 0.95487 0.94836 0.24724 0.0
C110 C 0.94525 0.93493 0.23987 0.0
C111 C 0.94453 0.00367 0.30762 0.0
C112 C 0.89253 0.03743 0.35027 0.0
C113 C 0.92548 0.03917 0.34105 0.0
C114 C 0.91836 0.04371 0.38318 0.0
C115 C 0.90176 0.04283 0.38772 0.0
N116 N 0.91633 0.03393 0.3044 0.0
C117 C 0.90007 0.03298 0.30867 0.0
Co118 Co 0.23272 0.67577 0.50371 0.0
Co119 Co 0.27372 0.676 0.50458 0.0
O120 O 0.25325 0.66424 0.50396 0.0
C121 C 0.22806 0.64808 0.43728 0.0
O122 O 0.24349 0.64734 0.42931 0.0
C123 C 0.27858 0.64813 0.57014 0.0
O124 O 0.26319 0.64735 0.57888 0.0
O125 O 0.2671 0.68721 0.56277 0.0
O126 O 0.24187 0.69335 0.5436 0.0
H127 H 0.30793 0.72527 0.52097 0.0
H128 H 0.23274 0.64165 0.5328 0.0
O129 O 0.22235 0.65867 0.46458 0.0
H130 H 0.21115 0.67127 0.6678 0.0
H131 H 0.17266 0.68075 0.51112 0.0
H132 H 0.22369 0.70978 0.49116 0.0
H133 H 0.219 0.68553 0.59593 0.0
H134 H 0.19833 0.66628 0.51324 0.0
O135 O 0.28418 0.65882 0.5429 0.0
H136 H 0.28259 0.71006 0.51851 0.0
H137 H 0.30815 0.66694 0.49452 0.0
H138 H 0.19829 0.72473 0.48917 0.0
H139 H 0.22474 0.62687 0.60367 0.0
H140 H 0.17253 0.7102 0.4992 0.0
H141 H 0.21393 0.64171 0.67196 0.0
O142 O 0.23929 0.68731 0.44599 0.0
H143 H 0.28199 0.62764 0.40276 0.0
H144 H 0.28734 0.68632 0.41268 0.0
H145 H 0.29524 0.67247 0.34023 0.0
H146 H 0.29265 0.6429 0.33497 0.0
H147 H 0.27392 0.642 0.47421 0.0
H148 H 0.33375 0.68167 0.49708 0.0
H149 H 0.33375 0.71107 0.51019 0.0
O150 O 0.26448 0.69367 0.46543 0.0
C151 C 0.25426 0.69513 0.56924 0.0
C152 C 0.30808 0.71247 0.5151 0.0
C153 C 0.32258 0.688 0.50175 0.0
N154 N 0.29386 0.68764 0.50607 0.0
C155 C 0.29377 0.7038 0.51358 0.0
C156 C 0.30803 0.67972 0.50044 0.0
C157 C 0.32257 0.7045 0.50909 0.0
C158 C 0.22787 0.64818 0.56209 0.0
N159 N 0.22637 0.66444 0.56011 0.0
C160 C 0.22344 0.63975 0.60226 0.0
C161 C 0.2174 0.64808 0.64059 0.0
C162 C 0.21587 0.66467 0.63831 0.0
C163 C 0.22043 0.67269 0.59757 0.0
C164 C 0.18381 0.68722 0.50678 0.0
C165 C 0.21254 0.70338 0.49578 0.0
C166 C 0.19839 0.67909 0.50784 0.0
N167 N 0.21252 0.68719 0.50263 0.0
C168 C 0.19819 0.71191 0.49451 0.0
C169 C 0.18374 0.70374 0.50011 0.0
C170 C 0.25209 0.6954 0.43982 0.0
C171 C 0.2832 0.64052 0.40463 0.0
C172 C 0.28598 0.67348 0.41055 0.0
C173 C 0.29057 0.66569 0.36949 0.0
C174 C 0.28915 0.64909 0.36659 0.0
N175 N 0.28011 0.665 0.44771 0.0
C176 C 0.27873 0.64873 0.44513 0.0
Co177 Co 0.58238 0.02129 0.75312 0.0
Co178 Co 0.58057 0.98032 0.7576 0.0
O179 O 0.59303 1.00035 0.75588 0.0
C180 C 0.61137 0.02614 0.81553 0.0
O181 O 0.61385 0.01068 0.81824 0.0
C182 C 0.60686 0.97392 0.68891 0.0
O183 O 0.60592 0.9887 0.67371 0.0
O184 O 0.56963 0.98639 0.69849 0.0
O185 O 0.56473 0.01224 0.71322 0.0
H186 H 0.53034 0.94737 0.74449 0.0
H187 H 0.61657 0.01872 0.72447 0.0
O188 O 0.59956 0.03163 0.79241 0.0
H189 H 0.58854 0.04082 0.58739 0.0
H190 H 0.57974 0.08136 0.7389 0.0
H191 H 0.54865 0.03173 0.76238 0.0
H192 H 0.57372 0.03457 0.65961 0.0
H193 H 0.59324 0.05516 0.74047 0.0
O194 O 0.59755 0.96896 0.72104 0.0
H195 H 0.54628 0.97227 0.74419 0.0
H196 H 0.58861 0.94585 0.77201 0.0
H197 H 0.53466 0.05768 0.76063 0.0
H198 H 0.6319 0.02509 0.65334 0.0
H199 H 0.55024 0.08274 0.74882 0.0
H200 H 0.61787 0.03617 0.58397 0.0
O201 O 0.57022 0.01599 0.81095 0.0
H202 H 0.62851 0.97184 0.86091 0.0
H203 H 0.56966 0.96865 0.85119 0.0
H204 H 0.58315 0.96148 0.92486 0.0
H205 H 0.6128 0.963 0.93005 0.0
H206 H 0.6145 0.97915 0.78811 0.0
H207 H 0.57314 0.92066 0.77227 0.0
H208 H 0.54377 0.92133 0.75862 0.0
O209 O 0.56314 0.99069 0.79511 0.0
C210 C 0.56235 0.99944 0.68979 0.0
C211 C 0.54312 0.94693 0.75062 0.0
C212 C 0.56714 0.93194 0.76616 0.0
N213 N 0.56834 0.96054 0.7584 0.0
C214 C 0.55221 0.96099 0.75059 0.0
C215 C 0.57584 0.94624 0.76587 0.0
C216 C 0.55067 0.93232 0.75851 0.0
C217 C 0.6104 0.02379 0.69488 0.0
N218 N 0.59427 0.0264 0.69657 0.0
C219 C 0.61914 0.02726 0.65447 0.0
C220 C 0.61126 0.03344 0.61553 0.0
C221 C 0.5948 0.03603 0.61741 0.0
C222 C 0.58646 0.0324 0.6584 0.0
C223 C 0.57282 0.07053 0.74399 0.0
C224 C 0.5555 0.04257 0.75698 0.0
C225 C 0.5804 0.05565 0.74503 0.0
N226 N 0.57172 0.0419 0.7512 0.0
C227 C 0.54752 0.05724 0.75613 0.0
C228 C 0.55627 0.07129 0.74954 0.0
C229 C 0.56171 0.00357 0.81874 0.0
C230 C 0.61558 0.97114 0.85911 0.0
C231 C 0.58254 0.96955 0.85327 0.0
C232 C 0.59013 0.96537 0.89504 0.0
C233 C 0.60676 0.9662 0.8979 0.0
N234 N 0.59127 0.97445 0.81541 0.0
C235 C 0.60758 0.97522 0.81791 0.0
Co236 Co 0.7358 0.67314 1.00039 0.0
Co237 Co 0.77657 0.67646 0.0031 0.0
O238 O 0.75706 0.66344 0.0032 0.0
C239 C 0.71895 0.656 0.07687 0.0
O240 O 0.71581 0.67005 0.09533 0.0
C241 C 0.78299 0.65054 0.93384 0.0
O242 O 0.76829 0.65194 0.9182 0.0
O243 O 0.76964 0.68695 0.94403 0.0
O244 O 0.74367 0.69108 0.95961 0.0
H245 H 0.80795 0.72754 0.9861 0.0
H246 H 0.73925 0.63884 0.97522 0.0
O247 O 0.72755 0.65509 0.04015 0.0
H248 H 0.71698 0.66472 0.83465 0.0
H249 H 0.67567 0.67234 0.98439 0.0
H250 H 0.72337 0.70612 0.01061 0.0
H251 H 0.72251 0.6805 0.90569 0.0
H252 H 0.70262 0.66037 0.98638 0.0
O253 O 0.78804 0.65956 0.96658 0.0
H254 H 0.78351 0.7109 0.98815 0.0
H255 H 0.81138 0.66945 0.01503 0.0
H256 H 0.69665 0.71859 0.0088 0.0
H257 H 0.7336 0.62256 0.90518 0.0
H258 H 0.67256 0.70166 0.99561 0.0
H259 H 0.72246 0.63551 0.83414 0.0
O260 O 0.74088 0.68606 0.05723 0.0
H261 H 0.7854 0.62935 0.10911 0.0
H262 H 0.78949 0.68803 0.09462 0.0
H263 H 0.7973 0.67506 0.16858 0.0
H264 H 0.79534 0.6455 0.17612 0.0
H265 H 0.77754 0.64284 0.03591 0.0
H266 H 0.83612 0.68562 0.01289 0.0
H267 H 0.83449 0.7149 0.99854 0.0
O268 O 0.76599 0.69369 0.04065 0.0
C269 C 0.75629 0.69376 0.93558 0.0
C270 C 0.80881 0.7148 0.99252 0.0
C271 C 0.82462 0.69127 0.00749 0.0
N272 N 0.796 0.68924 0.00203 0.0
C273 C 0.79501 0.70532 0.99383 0.0
C274 C 0.81057 0.68217 0.00855 0.0
C275 C 0.8237 0.7077 0.99946 0.0
C276 C 0.7342 0.64454 0.94469 0.0
N277 N 0.73117 0.66061 0.9447 0.0
C278 C 0.73111 0.63527 0.90502 0.0
C279 C 0.72489 0.64255 0.86514 0.0
C280 C 0.72184 0.65893 0.86538 0.0
C281 C 0.72508 0.66783 0.90567 0.0
C282 C 0.68607 0.67985 0.99012 0.0
C283 C 0.71295 0.69867 0.00479 0.0
C284 C 0.70136 0.67314 0.99129 0.0
N285 N 0.71457 0.68255 0.9985 0.0
C286 C 0.69785 0.7058 0.00382 0.0
C287 C 0.68434 0.6963 0.99643 0.0
C288 C 0.75311 0.69493 0.06439 0.0
C289 C 0.78634 0.64224 0.10622 0.0
C290 C 0.78851 0.67518 0.09769 0.0
C291 C 0.793 0.66789 0.13962 0.0
C292 C 0.7919 0.6513 0.14382 0.0
N293 N 0.78311 0.6662 0.0609 0.0
C294 C 0.78195 0.64994 0.06482 0.0
Co295 Co 0.08126 0.02186 0.74942 0.0
Co296 Co 0.07977 0.98113 0.74028 0.0
O297 O 0.09215 1.00114 0.74371 0.0
C298 C 0.10932 0.0279 0.68478 0.0
O299 O 0.11069 0.01259 0.67561 0.0
C300 C 0.10615 0.97344 0.80764 0.0
O301 O 0.10408 0.98726 0.82857 0.0
O302 O 0.06937 0.98625 0.80113 0.0
O303 O 0.06375 0.01204 0.78812 0.0
H304 H 0.02991 0.94764 0.7537 0.0
H305 H 0.11542 0.01903 0.77686 0.0
O306 O 0.09833 0.03296 0.71183 0.0
H307 H 0.08767 0.03859 0.91776 0.0
H308 H 0.07802 0.08159 0.77227 0.0
H309 H 0.04742 0.03211 0.74164 0.0
H310 H 0.0727 0.03362 0.84489 0.0
H311 H 0.09178 0.05558 0.76689 0.0
O312 O 0.09729 0.96941 0.77338 0.0
H313 H 0.0457 0.97261 0.75588 0.0
H314 H 0.0878 0.947 0.72006 0.0
H315 H 0.03317 0.05785 0.74715 0.0
H316 H 0.1309 0.02408 0.84877 0.0
H317 H 0.04849 0.08283 0.76258 0.0
H318 H 0.11701 0.03388 0.91999 0.0
O319 O 0.06908 0.01727 0.691 0.0
H320 H 0.12664 0.97455 0.63175 0.0
H321 H 0.06794 0.9708 0.64624 0.0
H322 H 0.08069 0.96484 0.57055 0.0
H323 H 0.11026 0.96664 0.56296 0.0
H324 H 0.11337 0.9807 0.70661 0.0
H325 H 0.07249 0.92173 0.71784 0.0
H326 H 0.04331 0.92195 0.73456 0.0
O327 O 0.06189 0.99194 0.70581 0.0
C328 C 0.0618 0.99905 0.81096 0.0
C329 C 0.04261 0.94739 0.74625 0.0
C330 C 0.06651 0.93285 0.72619 0.0
N331 N 0.06765 0.96129 0.73791 0.0
C332 C 0.05161 0.9615 0.74736 0.0
C333 C 0.07513 0.94719 0.72763 0.0
C334 C 0.05014 0.93298 0.73555 0.0
C335 C 0.10931 0.0235 0.80744 0.0
N336 N 0.09318 0.02614 0.80644 0.0
C337 C 0.11813 0.02625 0.84819 0.0
C338 C 0.11033 0.03172 0.88816 0.0
C339 C 0.09386 0.03435 0.88694 0.0
C340 C 0.08544 0.03146 0.84558 0.0
C341 C 0.07121 0.07078 0.76561 0.0
C342 C 0.05416 0.04291 0.74857 0.0
C343 C 0.07893 0.05602 0.7624 0.0
N344 N 0.0704 0.04231 0.75424 0.0
C345 C 0.04603 0.05746 0.75156 0.0
C346 C 0.05464 0.07147 0.76018 0.0
C347 C 0.06047 0.00495 0.68278 0.0
C348 C 0.11374 0.97373 0.6346 0.0
C349 C 0.08079 0.97183 0.64313 0.0
C350 C 0.08795 0.96833 0.60022 0.0
C351 C 0.10455 0.96931 0.596 0.0
N352 N 0.08988 0.97623 0.68081 0.0
C353 C 0.10616 0.97714 0.67697 0.0
Co354 Co 0.7713 0.33313 0.49936 0.0
Co355 Co 0.73026 0.332 0.50293 0.0
O356 O 0.75051 0.34413 0.50174 0.0
C357 C 0.77626 0.36157 0.56356 0.0
O358 O 0.76078 0.36368 0.56776 0.0
C359 C 0.72446 0.35861 0.4347 0.0
O360 O 0.73941 0.35789 0.42087 0.0
O361 O 0.73634 0.32097 0.44397 0.0
O362 O 0.7621 0.31567 0.45907 0.0
H363 H 0.69662 0.28225 0.48909 0.0
H364 H 0.76961 0.36743 0.47163 0.0
O365 O 0.78177 0.35011 0.539 0.0
H366 H 0.79119 0.33929 0.33398 0.0
H367 H 0.83136 0.32963 0.48637 0.0
H368 H 0.78122 0.29925 0.50855 0.0
H369 H 0.78449 0.3244 0.40575 0.0
H370 H 0.80535 0.3435 0.48748 0.0
O371 O 0.71922 0.34911 0.46596 0.0
H372 H 0.72175 0.29784 0.48939 0.0
H373 H 0.69586 0.34054 0.51641 0.0
H374 H 0.80697 0.28489 0.50728 0.0
H375 H 0.77645 0.38281 0.40093 0.0
H376 H 0.83228 0.3001 0.49612 0.0
H377 H 0.78726 0.36873 0.3313 0.0
O378 O 0.76567 0.32097 0.55688 0.0
H379 H 0.72209 0.38011 0.60576 0.0
H380 H 0.71812 0.32131 0.59624 0.0
H381 H 0.71086 0.33495 0.66961 0.0
H382 H 0.71277 0.36457 0.67469 0.0
H383 H 0.7295 0.36595 0.5333 0.0
H384 H 0.67045 0.32543 0.51605 0.0
H385 H 0.67073 0.29606 0.5025 0.0
O386 O 0.74025 0.31443 0.54078 0.0
C387 C 0.74931 0.31352 0.43538 0.0
C388 C 0.69635 0.29504 0.49517 0.0
C389 C 0.68166 0.31928 0.51025 0.0
N390 N 0.7103 0.32006 0.50324 0.0
C391 C 0.71054 0.30392 0.49548 0.0
C392 C 0.69608 0.32777 0.51031 0.0
C393 C 0.68182 0.3028 0.50266 0.0
C394 C 0.77454 0.36122 0.44186 0.0
N395 N 0.77674 0.34503 0.44312 0.0
C396 C 0.77829 0.37 0.40173 0.0
C397 C 0.78432 0.36209 0.36264 0.0
C398 C 0.78651 0.34557 0.3641 0.0
C399 C 0.78262 0.33719 0.40483 0.0
C400 C 0.82041 0.32286 0.49117 0.0
C401 C 0.79217 0.30594 0.50343 0.0
C402 C 0.80564 0.33066 0.49194 0.0
N403 N 0.79175 0.32218 0.49776 0.0
C404 C 0.80672 0.29775 0.50285 0.0
C405 C 0.82092 0.30629 0.49663 0.0
C406 C 0.75309 0.3127 0.56444 0.0
C407 C 0.72121 0.36719 0.604 0.0
C408 C 0.71919 0.33418 0.59829 0.0
C409 C 0.71496 0.34185 0.63988 0.0
C410 C 0.716 0.35847 0.64267 0.0
N411 N 0.72436 0.34281 0.56054 0.0
C412 C 0.72534 0.35911 0.56298 0.0
Co413 Co 0.42325 0.98751 0.25763 0.0
Co414 Co 0.42721 0.02819 0.25246 0.0
O415 O 0.41388 0.00888 0.25353 0.0
C416 C 0.40583 0.97039 0.18211 0.0
O417 O 0.41982 0.96696 0.16374 0.0
C418 C 0.40124 0.03546 0.32081 0.0
O419 O 0.40238 0.02086 0.33731 0.0
O420 O 0.43761 0.02156 0.31196 0.0
O421 O 0.44133 0.99541 0.29794 0.0
H422 H 0.47875 0.05892 0.26774 0.0
H423 H 0.38901 0.99164 0.28255 0.0
O424 O 0.40506 0.97923 0.21838 0.0
H425 H 0.41457 0.96996 0.4244 0.0
H426 H 0.42158 0.92753 0.27711 0.0
H427 H 0.45604 0.97453 0.2482 0.0
H428 H 0.43043 0.97478 0.35309 0.0
H429 H 0.41 0.95462 0.27354 0.0
O430 O 0.41045 0.04018 0.28813 0.0
H431 H 0.46175 0.03473 0.2671 0.0
H432 H 0.42072 0.06299 0.23835 0.0
H433 H 0.46812 0.94766 0.25159 0.0
H434 H 0.37265 0.9867 0.35285 0.0
H435 H 0.45085 0.92392 0.26614 0.0
H436 H 0.38544 0.97585 0.42453 0.0
O437 O 0.43621 0.992 0.20046 0.0
H438 H 0.38028 0.03696 0.1456 0.0
H439 H 0.43902 0.04018 0.1602 0.0
H440 H 0.42621 0.04765 0.08569 0.0
H441 H 0.39662 0.04611 0.07808 0.0
H442 H 0.39361 0.02944 0.21937 0.0
H443 H 0.43726 0.0875 0.23905 0.0
H444 H 0.4665 0.08555 0.25362 0.0
O445 O 0.44429 0.01706 0.21567 0.0
C446 C 0.44425 0.00818 0.32111 0.0
C447 C 0.46603 0.05992 0.2612 0.0
C448 C 0.44274 0.07596 0.24516 0.0
N449 N 0.44028 0.04742 0.25236 0.0
C450 C 0.45635 0.04626 0.26069 0.0
C451 C 0.43343 0.06204 0.24493 0.0
C452 C 0.45915 0.07486 0.25333 0.0
C453 C 0.39464 0.98671 0.31337 0.0
N454 N 0.41066 0.98347 0.31357 0.0
C455 C 0.38532 0.98403 0.35318 0.0
C456 C 0.39251 0.97798 0.39342 0.0
C457 C 0.40886 0.97469 0.39339 0.0
C458 C 0.4178 0.97753 0.35294 0.0
C459 C 0.42924 0.93778 0.27079 0.0
C460 C 0.44845 0.96427 0.25461 0.0
C461 C 0.42275 0.95315 0.26873 0.0
N462 N 0.43235 0.96616 0.26077 0.0
C463 C 0.45536 0.94908 0.25647 0.0
C464 C 0.44566 0.93576 0.26463 0.0
C465 C 0.44527 0.00403 0.19258 0.0
C466 C 0.39318 0.03771 0.14852 0.0
C467 C 0.42615 0.0394 0.15713 0.0
C468 C 0.41896 0.04369 0.11487 0.0
C469 C 0.40236 0.04283 0.11063 0.0
N470 N 0.41707 0.03444 0.19419 0.0
C471 C 0.40079 0.03351 0.19024 0.0
Co472 Co 0.77478 0.82956 0.50683 0.0
Co473 Co 0.73406 0.83199 0.49861 0.0
O474 O 0.75511 0.84234 0.50439 0.0
C475 C 0.78321 0.85574 0.43956 0.0
O476 O 0.76965 0.85343 0.41728 0.0
C477 C 0.72902 0.86073 0.56177 0.0
O478 O 0.74447 0.86321 0.56527 0.0
O479 O 0.73846 0.81927 0.55607 0.0
O480 O 0.76358 0.81169 0.54048 0.0
H481 H 0.69668 0.78475 0.49889 0.0
H482 H 0.77622 0.86292 0.54232 0.0
O483 O 0.78684 0.84708 0.47456 0.0
H484 H 0.79143 0.82908 0.6763 0.0
H485 H 0.83404 0.82101 0.52755 0.0
H486 H 0.78238 0.79544 0.4893 0.0
H487 H 0.78504 0.81694 0.59999 0.0
H488 H 0.80917 0.83682 0.52661 0.0
O489 O 0.72357 0.849 0.53801 0.0
H490 H 0.72287 0.79834 0.50428 0.0
H491 H 0.70059 0.84342 0.48326 0.0
H492 H 0.80695 0.77916 0.49018 0.0
H493 H 0.78277 0.87559 0.61786 0.0
H494 H 0.83303 0.79194 0.50942 0.0
H495 H 0.79037 0.85862 0.68561 0.0
O496 O 0.76924 0.81966 0.44561 0.0
H497 H 0.73354 0.88211 0.40087 0.0
H498 H 0.72144 0.82432 0.40355 0.0
H499 H 0.71667 0.83972 0.33145 0.0
H500 H 0.72265 0.86886 0.32983 0.0
H501 H 0.73834 0.86623 0.47195 0.0
H502 H 0.67415 0.83032 0.47807 0.0
H503 H 0.67209 0.80076 0.4857 0.0
O504 O 0.74327 0.81457 0.45841 0.0
C505 C 0.75057 0.81035 0.56354 0.0
C506 C 0.69743 0.79763 0.49538 0.0
C507 C 0.68479 0.8232 0.48375 0.0
N508 N 0.71329 0.82164 0.49376 0.0
C509 C 0.71223 0.80539 0.49829 0.0
C510 C 0.69979 0.83056 0.48684 0.0
C511 C 0.68364 0.80662 0.48802 0.0
C512 C 0.77958 0.85545 0.57154 0.0
N513 N 0.78006 0.83919 0.56677 0.0
C514 C 0.78325 0.8627 0.61428 0.0
C515 C 0.78749 0.85317 0.65229 0.0
C516 C 0.78807 0.8366 0.64711 0.0
C517 C 0.78432 0.82978 0.60385 0.0
C518 C 0.82275 0.8153 0.51916 0.0
C519 C 0.79367 0.80108 0.49788 0.0
C520 C 0.80863 0.8242 0.51845 0.0
N521 N 0.79431 0.81705 0.50813 0.0
C522 C 0.80755 0.79181 0.49824 0.0
C523 C 0.82217 0.79899 0.50901 0.0
C524 C 0.7562 0.81248 0.4354 0.0
C525 C 0.73077 0.86944 0.40124 0.0
C526 C 0.7241 0.83699 0.4032 0.0
C527 C 0.72135 0.84565 0.36224 0.0
C528 C 0.7247 0.862 0.36136 0.0
N529 N 0.72995 0.84439 0.44235 0.0
C530 C 0.73336 0.86039 0.44159 0.0
Co531 Co 0.42339 0.48351 0.75663 0.0
Co532 Co 0.42323 0.52451 0.75883 0.0
O533 O 0.41168 0.50393 0.75768 0.0
C534 C 0.39573 0.47804 0.82255 0.0
O535 O 0.39506 0.49335 0.83246 0.0
C536 C 0.39591 0.52953 0.69165 0.0
O537 O 0.39569 0.51425 0.68118 0.0
O538 O 0.43473 0.51848 0.70055 0.0
O539 O 0.44099 0.49313 0.71783 0.0
H540 H 0.47221 0.55932 0.74642 0.0
H541 H 0.38933 0.48348 0.72692 0.0
O542 O 0.40629 0.47269 0.79455 0.0
H543 H 0.41942 0.46334 0.59087 0.0
H544 H 0.42887 0.42359 0.74484 0.0
H545 H 0.45746 0.47465 0.76922 0.0
H546 H 0.43347 0.47071 0.66358 0.0
H547 H 0.4142 0.44915 0.74431 0.0
O548 O 0.4061 0.53507 0.72059 0.0
H549 H 0.45725 0.53382 0.74676 0.0
H550 H 0.41377 0.55875 0.77084 0.0
H551 H 0.47261 0.44936 0.76966 0.0
H552 H 0.37476 0.47595 0.65521 0.0
H553 H 0.4583 0.42358 0.75739 0.0
H554 H 0.38983 0.46587 0.5864 0.0
O555 O 0.43478 0.48967 0.81502 0.0
H556 H 0.37435 0.53146 0.85928 0.0
H557 H 0.43303 0.53749 0.85204 0.0
H558 H 0.41878 0.54468 0.92446 0.0
H559 H 0.3892 0.54175 0.92836 0.0
H560 H 0.38912 0.52411 0.78784 0.0
H561 H 0.42825 0.58451 0.7704 0.0
H562 H 0.4577 0.5849 0.75831 0.0
O563 O 0.44084 0.51513 0.79797 0.0
C564 C 0.44273 0.50576 0.69322 0.0
C565 C 0.45939 0.5593 0.75186 0.0
C566 C 0.43471 0.57344 0.76526 0.0
N567 N 0.43467 0.54477 0.75914 0.0
C568 C 0.45086 0.54489 0.75218 0.0
C569 C 0.42657 0.55881 0.76537 0.0
C570 C 0.45123 0.57365 0.75849 0.0
C571 C 0.39596 0.47893 0.69739 0.0
N572 N 0.41224 0.47756 0.69955 0.0
C573 C 0.38765 0.47476 0.65675 0.0
C574 C 0.39612 0.46914 0.61813 0.0
C575 C 0.41271 0.46774 0.62059 0.0
C576 C 0.42062 0.47202 0.66181 0.0
C577 C 0.43524 0.43474 0.75015 0.0
C578 C 0.45116 0.46349 0.76364 0.0
C579 C 0.427 0.44926 0.74999 0.0
N580 N 0.43498 0.4634 0.75643 0.0
C581 C 0.45979 0.4492 0.76402 0.0
C582 C 0.45176 0.43475 0.75718 0.0
C583 C 0.44272 0.50248 0.8224 0.0
C584 C 0.38724 0.53281 0.858 0.0
C585 C 0.42019 0.53599 0.85358 0.0
C586 C 0.41217 0.54018 0.89463 0.0
C587 C 0.39558 0.53856 0.89677 0.0
N588 N 0.41193 0.53033 0.81569 0.0
C589 C 0.39566 0.52875 0.81753 0.0
Co590 Co 0.73075 0.17648 0.00373 0.0
Co591 Co 0.77173 0.17595 0.99821 0.0
O592 O 0.75106 0.16462 0.00159 0.0
C593 C 0.72467 0.14964 0.93613 0.0
O594 O 0.7395 0.15053 0.92129 0.0
C595 C 0.77725 0.14797 0.06328 0.0
O596 O 0.76183 0.14626 0.07026 0.0
O597 O 0.76635 0.18797 0.05614 0.0
O598 O 0.74083 0.19423 0.04096 0.0
H599 H 0.80704 0.22471 0.00471 0.0
H600 H 0.73045 0.14255 0.0344 0.0
O601 O 0.71961 0.15917 0.96752 0.0
H602 H 0.71234 0.17344 0.17137 0.0
H603 H 0.67098 0.18225 0.01998 0.0
H604 H 0.7219 0.21051 0.9904 0.0
H605 H 0.71907 0.1871 0.09757 0.0
H606 H 0.69649 0.16749 0.01907 0.0
O607 O 0.78258 0.15908 0.037 0.0
H608 H 0.78143 0.20997 0.00728 0.0
H609 H 0.80578 0.16609 0.9843 0.0
H610 H 0.69666 0.22575 0.99135 0.0
H611 H 0.72354 0.12837 0.10728 0.0
H612 H 0.67096 0.21161 0.00624 0.0
H613 H 0.7145 0.14385 0.17655 0.0
O614 O 0.7364 0.18753 0.94437 0.0
H615 H 0.77675 0.12637 0.89948 0.0
H616 H 0.78418 0.18492 0.90382 0.0
H617 H 0.79051 0.17013 0.83162 0.0
H618 H 0.78688 0.14062 0.82918 0.0
H619 H 0.77028 0.14166 0.97065 0.0
H620 H 0.83166 0.18035 0.98185 0.0
H621 H 0.83239 0.20988 0.9919 0.0
O622 O 0.76214 0.1933 0.95865 0.0
C623 C 0.75376 0.19611 0.06418 0.0
C624 C 0.80687 0.21184 1.00014 0.0
C625 C 0.82069 0.18695 0.98737 0.0
N626 N 0.79208 0.1872 0.99562 0.0
C627 C 0.7924 0.20344 0.00146 0.0
C628 C 0.806 0.17894 0.9889 0.0
C629 C 0.82109 0.20352 0.993 0.0
C630 C 0.72639 0.14937 0.06421 0.0
N631 N 0.72527 0.16565 0.06171 0.0
C632 C 0.72255 0.14127 0.10548 0.0
C633 C 0.7175 0.14996 0.14434 0.0
C634 C 0.71632 0.16657 0.14149 0.0
C635 C 0.72025 0.17425 0.09965 0.0
C636 C 0.6821 0.18855 0.01353 0.0
C637 C 0.71078 0.20428 0.99712 0.0
C638 C 0.69659 0.18025 0.01287 0.0
N639 N 0.7107 0.18815 0.00499 0.0
C640 C 0.69652 0.21297 0.99751 0.0
C641 C 0.6821 0.20502 0.00583 0.0
C642 C 0.74924 0.19522 0.93537 0.0
C643 C 0.77844 0.13921 0.90016 0.0
C644 C 0.78243 0.1721 0.90299 0.0
C645 C 0.78611 0.16378 0.86203 0.0
C646 C 0.78409 0.14722 0.8607 0.0
N647 N 0.77691 0.16417 0.94162 0.0
C648 C 0.77489 0.14793 0.94052 0.0
Co649 Co 0.08113 0.52501 0.25106 0.0
Co650 Co 0.08185 0.48402 0.25531 0.0
O651 O 0.0931 0.50475 0.25285 0.0
C652 C 0.10824 0.53103 0.31811 0.0
O653 O 0.10816 0.51595 0.33084 0.0
C654 C 0.10939 0.479 0.18874 0.0
O655 O 0.11009 0.49435 0.17958 0.0
O656 O 0.07001 0.48955 0.19721 0.0
O657 O 0.06356 0.51497 0.21299 0.0
H658 H 0.0333 0.44849 0.24631 0.0
H659 H 0.11515 0.52549 0.22116 0.0
O660 O 0.09822 0.53616 0.28814 0.0
H661 H 0.08459 0.54418 0.08423 0.0
H662 H 0.07501 0.5848 0.2367 0.0
H663 H 0.04699 0.53359 0.26373 0.0
H664 H 0.07074 0.53705 0.15742 0.0
H665 H 0.08994 0.55938 0.23709 0.0
O666 O 0.09892 0.47346 0.21679 0.0
H667 H 0.04791 0.47418 0.24494 0.0
H668 H 0.09184 0.44998 0.26847 0.0
H669 H 0.03158 0.55872 0.26328 0.0
H670 H 0.12952 0.5328 0.14893 0.0
H671 H 0.04561 0.58457 0.24968 0.0
H672 H 0.11421 0.54215 0.07969 0.0
O673 O 0.06992 0.51907 0.30992 0.0
H674 H 0.13123 0.47851 0.35457 0.0
H675 H 0.07265 0.47135 0.34931 0.0
H676 H 0.08729 0.46478 0.42157 0.0
H677 H 0.11682 0.46828 0.42448 0.0
H678 H 0.11607 0.48523 0.28332 0.0
H679 H 0.07771 0.42403 0.26973 0.0
H680 H 0.04821 0.42318 0.25879 0.0
O681 O 0.0643 0.49338 0.29464 0.0
C682 C 0.06185 0.50213 0.18928 0.0
C683 C 0.04614 0.44871 0.25126 0.0
C684 C 0.07107 0.43498 0.26435 0.0
N685 N 0.07069 0.46361 0.25695 0.0
C686 C 0.05448 0.46323 0.25062 0.0
C687 C 0.07901 0.44972 0.2635 0.0
C688 C 0.05452 0.43451 0.25822 0.0
C689 C 0.10841 0.5297 0.19139 0.0
N690 N 0.09211 0.53078 0.19356 0.0
C691 C 0.11661 0.53376 0.15048 0.0
C692 C 0.10801 0.53897 0.11162 0.0
C693 C 0.09139 0.54009 0.11412 0.0
C694 C 0.0836 0.53593 0.15561 0.0
C695 C 0.06876 0.57361 0.24259 0.0
C696 C 0.05317 0.54477 0.25757 0.0
C697 C 0.07716 0.55918 0.24295 0.0
N698 N 0.06933 0.54499 0.25013 0.0
C699 C 0.04439 0.55897 0.25745 0.0
C700 C 0.05226 0.57347 0.24986 0.0
C701 C 0.06225 0.50617 0.31828 0.0
C702 C 0.11837 0.47689 0.35371 0.0
C703 C 0.08546 0.47307 0.35039 0.0
C704 C 0.09371 0.46925 0.39136 0.0
C705 C 0.11028 0.47118 0.39294 0.0
N706 N 0.09348 0.47868 0.31202 0.0
C707 C 0.10972 0.4806 0.31333 0.0
Co708 Co 0.2315 0.17566 0.50234 0.0
Co709 Co 0.27256 0.17579 0.50615 0.0
O710 O 0.25204 0.16413 0.50393 0.0
C711 C 0.22621 0.14847 0.56955 0.0
O712 O 0.24138 0.1487 0.58136 0.0
C713 C 0.27804 0.14812 0.44016 0.0
O714 O 0.26263 0.14666 0.43254 0.0
O715 O 0.2667 0.18757 0.44828 0.0
O716 O 0.24111 0.19337 0.46394 0.0
H717 H 0.30709 0.22505 0.49709 0.0
H718 H 0.23164 0.14159 0.47286 0.0
O719 O 0.22077 0.15841 0.53987 0.0
H720 H 0.21212 0.17155 0.3358 0.0
H721 H 0.17156 0.1805 0.48876 0.0
H722 H 0.22224 0.20962 0.51477 0.0
H723 H 0.2191 0.18565 0.40873 0.0
H724 H 0.19729 0.16611 0.48898 0.0
O725 O 0.28341 0.15899 0.46721 0.0
H726 H 0.28169 0.20992 0.49599 0.0
H727 H 0.30683 0.16648 0.51868 0.0
H728 H 0.19679 0.2245 0.51448 0.0
H729 H 0.22449 0.12697 0.4009 0.0
H730 H 0.17121 0.20992 0.50139 0.0
H731 H 0.21474 0.14197 0.33158 0.0
O732 O 0.23731 0.18707 0.56102 0.0
H733 H 0.27933 0.12647 0.60497 0.0
H734 H 0.28521 0.18518 0.60001 0.0
H735 H 0.29226 0.17064 0.67204 0.0
H736 H 0.28941 0.14105 0.67479 0.0
H737 H 0.27211 0.14152 0.53397 0.0
H738 H 0.3325 0.18113 0.51967 0.0
H739 H 0.33273 0.21064 0.50901 0.0
O740 O 0.26292 0.19309 0.5458 0.0
C741 C 0.25392 0.19543 0.44038 0.0
C742 C 0.30714 0.2122 0.50192 0.0
C743 C 0.3214 0.18755 0.51453 0.0
N744 N 0.29275 0.18735 0.50761 0.0
C745 C 0.29279 0.20357 0.50143 0.0
C746 C 0.30682 0.17931 0.51384 0.0
C747 C 0.32152 0.2041 0.50856 0.0
C748 C 0.22724 0.1482 0.44306 0.0
N749 N 0.22586 0.16447 0.44506 0.0
C750 C 0.22329 0.13986 0.4023 0.0
C751 C 0.21784 0.14828 0.3634 0.0
C752 C 0.2164 0.16488 0.36572 0.0
C753 C 0.22047 0.17282 0.40706 0.0
C754 C 0.18263 0.18699 0.49442 0.0
C755 C 0.21117 0.2032 0.50883 0.0
C756 C 0.19724 0.1789 0.49468 0.0
N757 N 0.21128 0.18703 0.50157 0.0
C758 C 0.19679 0.21169 0.5088 0.0
C759 C 0.18244 0.2035 0.50149 0.0
C760 C 0.2501 0.19494 0.56942 0.0
C761 C 0.28067 0.13936 0.60416 0.0
C762 C 0.28377 0.17233 0.60102 0.0
C763 C 0.28787 0.16415 0.64186 0.0
C764 C 0.28629 0.14755 0.64336 0.0
N765 N 0.27825 0.16422 0.56268 0.0
C766 C 0.27669 0.14794 0.56391 0.0
Co767 Co 0.57836 0.52595 0.26313 0.0
Co768 Co 0.58026 0.48526 0.25382 0.0
O769 O 0.59092 0.50614 0.25982 0.0
C770 C 0.60444 0.53429 0.19544 0.0
O771 O 0.60194 0.52082 0.17288 0.0
C772 C 0.60898 0.47959 0.31654 0.0
O773 O 0.6112 0.495 0.32238 0.0
O774 O 0.56788 0.48964 0.31197 0.0
O775 O 0.56047 0.51484 0.29694 0.0
H776 H 0.53251 0.44851 0.25493 0.0
H777 H 0.61185 0.52688 0.29775 0.0
O778 O 0.5959 0.53791 0.23072 0.0
H779 H 0.57859 0.54205 0.43305 0.0
H780 H 0.57056 0.58522 0.28572 0.0
H781 H 0.54427 0.53399 0.24671 0.0
H782 H 0.56614 0.53602 0.35691 0.0
H783 H 0.58608 0.56017 0.28369 0.0
O784 O 0.59734 0.4744 0.29195 0.0
H785 H 0.54649 0.47448 0.26068 0.0
H786 H 0.59115 0.4517 0.23673 0.0
H787 H 0.52828 0.55874 0.24868 0.0
H788 H 0.62482 0.53308 0.37309 0.0
H789 H 0.54142 0.5846 0.26831 0.0
H790 H 0.60815 0.54065 0.44151 0.0
O791 O 0.5682 0.52072 0.20201 0.0
H792 H 0.62996 0.48435 0.15444 0.0
H793 H 0.57199 0.47316 0.15853 0.0
H794 H 0.58705 0.46847 0.08574 0.0
H795 H 0.61627 0.47401 0.08341 0.0
H796 H 0.61441 0.48908 0.22624 0.0
H797 H 0.57766 0.42548 0.23114 0.0
H798 H 0.54812 0.42377 0.24005 0.0
O799 O 0.56276 0.49483 0.21469 0.0
C800 C 0.5591 0.50181 0.31992 0.0
C801 C 0.54539 0.44911 0.25085 0.0
C802 C 0.57073 0.43618 0.23756 0.0
N803 N 0.5696 0.46464 0.24874 0.0
C804 C 0.55337 0.46379 0.25397 0.0
C805 C 0.5783 0.45106 0.24089 0.0
C806 C 0.55415 0.43523 0.24255 0.0
C807 C 0.60451 0.53025 0.32725 0.0
N808 N 0.58824 0.53093 0.32295 0.0
C809 C 0.61192 0.53371 0.36988 0.0
C810 C 0.60257 0.53794 0.40826 0.0
C811 C 0.58598 0.5387 0.40356 0.0
C812 C 0.57899 0.53516 0.36039 0.0
C813 C 0.56469 0.57403 0.27716 0.0
C814 C 0.55007 0.54518 0.25545 0.0
C815 C 0.57342 0.55981 0.27583 0.0
N816 N 0.56608 0.54561 0.26531 0.0
C817 C 0.54096 0.55917 0.25644 0.0
C818 C 0.54834 0.57367 0.26741 0.0
C819 C 0.56078 0.50781 0.19187 0.0
C820 C 0.61725 0.48179 0.1551 0.0
C821 C 0.58469 0.47563 0.15785 0.0
C822 C 0.59317 0.47292 0.11651 0.0
C823 C 0.60956 0.47602 0.11523 0.0
N824 N 0.59233 0.4812 0.19695 0.0
C825 C 0.60839 0.48435 0.19583 0.0
Co826 Co 0.27376 0.83142 0.99677 0.0
Co827 Co 0.23338 0.83174 0.01153 0.0
O828 O 0.25368 0.84327 0.00376 0.0
C829 C 0.28261 0.85713 0.06535 0.0
O830 O 0.26961 0.85415 0.08966 0.0
C831 C 0.22517 0.85746 0.94234 0.0
O832 O 0.23859 0.85487 0.9197 0.0
O833 O 0.23711 0.82035 0.95117 0.0
O834 O 0.26267 0.81351 0.96298 0.0
H835 H 0.19793 0.78304 0.00852 0.0
H836 H 0.27203 0.86507 0.96456 0.0
O837 O 0.28574 0.84903 0.02881 0.0
H838 H 0.28721 0.83388 0.82507 0.0
H839 H 0.33282 0.82569 0.9653 0.0
H840 H 0.28312 0.79748 0.00934 0.0
H841 H 0.28314 0.82051 0.90099 0.0
H842 H 0.30736 0.84038 0.97195 0.0
O843 O 0.22165 0.8492 0.9783 0.0
H844 H 0.22338 0.79785 1.00092 0.0
H845 H 0.19998 0.84128 0.03618 0.0
H846 H 0.30829 0.78231 0.00272 0.0
H847 H 0.2762 0.87897 0.88942 0.0
H848 H 0.33338 0.79643 0.98056 0.0
H849 H 0.2838 0.86334 0.81896 0.0
O850 O 0.26983 0.82052 0.0578 0.0
H851 H 0.23218 0.88012 0.11587 0.0
H852 H 0.22376 0.82173 0.108 0.0
H853 H 0.22006 0.83576 0.18307 0.0
H854 H 0.22423 0.86518 0.18732 0.0
H855 H 0.23593 0.86558 0.04159 0.0
H856 H 0.17425 0.82697 0.04374 0.0
H857 H 0.17313 0.79762 0.03006 0.0
O858 O 0.24413 0.81397 0.04645 0.0
C859 C 0.24942 0.812 0.94117 0.0
C860 C 0.19827 0.79583 0.01465 0.0
C861 C 0.18498 0.82048 0.03435 0.0
N862 N 0.21319 0.8204 0.01825 0.0
C863 C 0.21266 0.80427 0.01047 0.0
C864 C 0.19958 0.82853 0.02986 0.0
C865 C 0.18436 0.80401 0.0267 0.0
C866 C 0.27547 0.85821 0.93415 0.0
N867 N 0.27735 0.842 0.93722 0.0
C868 C 0.27776 0.86613 0.89166 0.0
C869 C 0.28199 0.85735 0.85212 0.0
C870 C 0.2839 0.84083 0.85551 0.0
C871 C 0.28151 0.83331 0.89858 0.0
C872 C 0.32196 0.8194 0.97496 0.0
C873 C 0.29397 0.80371 0.99952 0.0
C874 C 0.30751 0.82767 0.97893 0.0
N875 N 0.29374 0.81979 0.99086 0.0
C876 C 0.30819 0.79505 0.9959 0.0
C877 C 0.32227 0.80298 0.9835 0.0
C878 C 0.25736 0.8124 0.06828 0.0
C879 C 0.23029 0.8673 0.11444 0.0
C880 C 0.22569 0.83452 0.10959 0.0
C881 C 0.22352 0.8424 0.15218 0.0
C882 C 0.22585 0.85891 0.15453 0.0
N883 N 0.23003 0.84283 0.07039 0.0
C884 C 0.23234 0.85902 0.07244 0.0
Co885 Co 0.92578 0.48127 0.75572 0.0
Co886 Co 0.92465 0.52222 0.75063 0.0
O887 O 0.91363 0.5014 0.75372 0.0
C888 C 0.8992 0.47494 0.68765 0.0
O889 O 0.9002 0.48972 0.67241 0.0
C890 C 0.89577 0.5275 0.81298 0.0
O891 O 0.8931 0.51207 0.81637 0.0
O892 O 0.93668 0.51691 0.8086 0.0
O893 O 0.94341 0.49155 0.79295 0.0
H894 H 0.97295 0.55814 0.7579 0.0
H895 H 0.89187 0.4805 0.78652 0.0
O896 O 0.90859 0.46996 0.71949 0.0
H897 H 0.92308 0.46274 0.92329 0.0
H898 H 0.93234 0.42158 0.77144 0.0
H899 H 0.95993 0.47288 0.74222 0.0
H900 H 0.9366 0.46964 0.8494 0.0
H901 H 0.91724 0.44689 0.77079 0.0
O902 O 0.90763 0.53281 0.78956 0.0
H903 H 0.95855 0.53234 0.75999 0.0
H904 H 0.91436 0.55616 0.73725 0.0
H905 H 0.9755 0.44785 0.7429 0.0
H906 H 0.87782 0.47346 0.85953 0.0
H907 H 0.9617 0.42196 0.75761 0.0
H908 H 0.89346 0.46458 0.92868 0.0
O909 O 0.93674 0.48713 0.6964 0.0
H910 H 0.87524 0.52644 0.65059 0.0
H911 H 0.93359 0.53515 0.65687 0.0
H912 H 0.91891 0.54142 0.58447 0.0
H913 H 0.88949 0.53716 0.58104 0.0
H914 H 0.89042 0.52003 0.72191 0.0
H915 H 0.92828 0.58222 0.73532 0.0
H916 H 0.9578 0.58332 0.74549 0.0
O917 O 0.94216 0.51291 0.71105 0.0
C918 C 0.94502 0.50445 0.81647 0.0
C919 C 0.9601 0.55781 0.75329 0.0
C920 C 0.93502 0.57133 0.74068 0.0
N921 N 0.93565 0.54271 0.74841 0.0
C922 C 0.95187 0.54323 0.75433 0.0
C923 C 0.9272 0.55653 0.74192 0.0
C924 C 0.95158 0.57194 0.74637 0.0
C925 C 0.89876 0.47655 0.81632 0.0
N926 N 0.91505 0.47561 0.8137 0.0
C927 C 0.89073 0.47262 0.85764 0.0
C928 C 0.89951 0.46766 0.89644 0.0
C929 C 0.91613 0.46665 0.89346 0.0
C930 C 0.92374 0.47068 0.85157 0.0
C931 C 0.9385 0.43279 0.76507 0.0
C932 C 0.95385 0.46167 0.74887 0.0
C933 C 0.93001 0.44716 0.76456 0.0
N934 N 0.93772 0.46138 0.75678 0.0
C935 C 0.96272 0.44754 0.74911 0.0
C936 C 0.95497 0.43301 0.75732 0.0
C937 C 0.94427 0.50008 0.6876 0.0
C938 C 0.88804 0.52844 0.65172 0.0
C939 C 0.92082 0.53314 0.65565 0.0
C940 C 0.91255 0.53678 0.61456 0.0
C941 C 0.89605 0.53441 0.61268 0.0
N942 N 0.91288 0.52733 0.69392 0.0
C943 C 0.8967 0.52494 0.69223 0.0
C944 C 0.26345 0.29191 0.1169 0.0
C945 C 0.24948 0.30075 0.10763 0.0
C946 C 0.26379 0.28058 0.15273 0.0
C947 C 0.24352 0.26879 0.26214 0.0
H948 H 0.2655 0.22852 0.24217 0.0
C949 C 0.23983 0.21666 0.39415 0.0
C950 C 0.25378 0.20771 0.40278 0.0
C951 C 0.23942 0.22805 0.35847 0.0
C952 C 0.25949 0.23978 0.24855 0.0
H953 H 0.22483 0.3044 0.12893 0.0
H954 H 0.22541 0.28446 0.19146 0.0
H955 H 0.26415 0.24808 0.17904 0.0
H956 H 0.27833 0.20398 0.38068 0.0
H957 H 0.27765 0.22403 0.31856 0.0
H958 H 0.23888 0.2605 0.33167 0.0
C959 C 0.23617 0.2865 0.17116 0.0
C960 C 0.25869 0.25099 0.21231 0.0
C961 C 0.23581 0.29788 0.13515 0.0
C962 C 0.26737 0.21057 0.37493 0.0
C963 C 0.26695 0.22202 0.33913 0.0
C964 C 0.24433 0.25758 0.2984 0.0
C965 C 0.25018 0.27771 0.18034 0.0
C966 C 0.25071 0.26565 0.21866 0.0
C967 C 0.25295 0.23088 0.33043 0.0
C968 C 0.25233 0.24293 0.29206 0.0
H969 H 0.27424 0.29375 0.09656 0.0
H970 H 0.27485 0.2742 0.15922 0.0
H971 H 0.23751 0.28005 0.26848 0.0
H972 H 0.22911 0.21484 0.41479 0.0
H973 H 0.22837 0.23448 0.35238 0.0
C974 C 0.95809 0.98997 0.37554 0.0
C975 C 0.95675 0.0032 0.34537 0.0
C976 C 0.96926 0.99007 0.41214 0.0
C977 C 0.99339 0.01793 0.48477 0.0
H978 H 0.01815 0.98008 0.51401 0.0
C979 C 0.0466 0.01874 0.61558 0.0
C980 C 0.04812 0.00545 0.64538 0.0
C981 C 0.03533 0.01865 0.57922 0.0
C982 C 0.01121 0.99072 0.50665 0.0
H983 H 0.96652 0.02675 0.32963 0.0
H984 H 0.9859 0.02681 0.39272 0.0
H985 H 0.99869 0.97921 0.45047 0.0
H986 H 0.03859 0.98178 0.66083 0.0
H987 H 0.01902 0.98175 0.59826 0.0
H988 H 0.0059 0.02943 0.54096 0.0
C989 C 0.97814 0.01648 0.38876 0.0
C990 C 1.00004 0.9902 0.47022 0.0
C991 C 0.96704 0.01638 0.35228 0.0
C992 C 0.03792 0.99221 0.63843 0.0
C993 C 0.02671 0.99212 0.60224 0.0
C994 C 0.00456 0.01844 0.52122 0.0
C995 C 0.97932 0.00341 0.41941 0.0
C996 C 0.99101 0.00381 0.45876 0.0
C997 C 0.02535 0.00526 0.57188 0.0
C998 C 0.0136 0.00484 0.53266 0.0
H999 H 0.95038 0.97962 0.37128 0.0
H1000 H 0.9698 0.97984 0.43532 0.0
H1001 H 0.98646 0.02857 0.47735 0.0
H1002 H 0.05425 0.02913 0.61988 0.0
H1003 H 0.03467 0.02893 0.55626 0.0
C1004 C 0.26651 0.70961 0.63791 0.0
C1005 C 0.25353 0.7072 0.60737 0.0
C1006 C 0.2655 0.72083 0.67422 0.0
C1007 C 0.24292 0.75665 0.7128 0.0
H1008 H 0.2601 0.74587 0.83467 0.0
C1009 C 0.2349 0.7976 0.87584 0.0
C1010 C 0.2486 0.79963 0.90387 0.0
C1011 C 0.23467 0.78608 0.84009 0.0
C1012 C 0.25534 0.74912 0.80076 0.0
H1013 H 0.22933 0.71491 0.59107 0.0
H1014 H 0.22758 0.73421 0.65434 0.0
H1015 H 0.26183 0.72653 0.77107 0.0
H1016 H 0.27276 0.79094 0.91622 0.0
H1017 H 0.27235 0.77122 0.85433 0.0
H1018 H 0.23652 0.7793 0.74254 0.0
C1019 C 0.2386 0.72757 0.65001 0.0
C1020 C 0.25638 0.73804 0.76425 0.0
C1021 C 0.23959 0.71638 0.61384 0.0
C1022 C 0.26195 0.78978 0.89554 0.0
C1023 C 0.2617 0.77832 0.86011 0.0
C1024 C 0.24188 0.76775 0.74936 0.0
C1025 C 0.25151 0.72991 0.68077 0.0
C1026 C 0.25028 0.7417 0.71971 0.0
C1027 C 0.2481 0.7763 0.83188 0.0
C1028 C 0.24821 0.76417 0.79369 0.0
H1029 H 0.27745 0.70282 0.63389 0.0
H1030 H 0.27576 0.72248 0.69693 0.0
H1031 H 0.23824 0.75993 0.6788 0.0
H1032 H 0.22441 0.80496 0.88129 0.0
H1033 H 0.22395 0.78473 0.81914 0.0
C1034 C 0.45909 0.98956 0.12643 0.0
C1035 C 0.4576 0.00314 0.15516 0.0
C1036 C 0.47045 0.98922 0.09034 0.0
C1037 C 0.50784 0.00909 0.04985 0.0
H1038 H 0.496 0.99177 0.92888 0.0
C1039 C 0.54771 0.01728 0.88578 0.0
C1040 C 0.54948 0.00388 0.85648 0.0
C1041 C 0.53644 0.01717 0.92208 0.0
C1042 C 0.49956 0.99651 0.96258 0.0
H1043 H 0.46715 0.02695 0.16854 0.0
H1044 H 0.48662 0.02638 0.10583 0.0
H1045 H 0.47678 0.99099 0.99307 0.0
H1046 H 0.54052 0.9799 0.84229 0.0
H1047 H 0.52112 0.97971 0.90545 0.0
H1048 H 0.5306 0.01466 0.01934 0.0
C1049 C 0.47919 0.0159 0.11136 0.0
C1050 C 0.48854 0.99603 0.99943 0.0
C1051 C 0.46788 0.01625 0.14725 0.0
C1052 C 0.53956 0.99046 0.86406 0.0
C1053 C 0.52831 0.99037 0.90019 0.0
C1054 C 0.51884 0.00959 0.01301 0.0
C1055 C 0.48061 1.00242 0.08232 0.0
C1056 C 0.49252 1.00236 0.0435 0.0
C1057 C 0.52664 0.00368 0.92981 0.0
C1058 C 0.51484 0.00334 0.96887 0.0
H1059 H 0.45143 0.97922 0.13157 0.0
H1060 H 0.47136 0.97856 0.06893 0.0
H1061 H 0.51141 0.01385 0.08353 0.0
H1062 H 0.55508 0.02784 0.8809 0.0
H1063 H 0.53532 0.0277 0.94391 0.0
C1064 C 0.27175 0.79797 0.13359 0.0
C1065 C 0.25799 0.80019 0.10601 0.0
C1066 C 0.27186 0.78651 0.16947 0.0
C1067 C 0.25065 0.74987 0.20941 0.0
H1068 H 0.26839 0.7604 0.33088 0.0
C1069 C 0.23972 0.71005 0.3718 0.0
C1070 C 0.25277 0.70758 0.40201 0.0
C1071 C 0.2407 0.72135 0.3357 0.0
C1072 C 0.26353 0.75719 0.29702 0.0
H1073 H 0.23356 0.79194 0.09473 0.0
H1074 H 0.23377 0.7723 0.15683 0.0
H1075 H 0.27017 0.77981 0.26727 0.0
H1076 H 0.27704 0.71532 0.418 0.0
H1077 H 0.27875 0.73472 0.35505 0.0
H1078 H 0.24396 0.72729 0.23903 0.0
C1079 C 0.24456 0.77922 0.15057 0.0
C1080 C 0.26459 0.76832 0.26053 0.0
C1081 C 0.24443 0.79062 0.11503 0.0
C1082 C 0.26673 0.71682 0.39548 0.0
C1083 C 0.2677 0.72807 0.35948 0.0
C1084 C 0.2496 0.73875 0.24582 0.0
C1085 C 0.25824 0.77698 0.17826 0.0
C1086 C 0.25804 0.76484 0.21639 0.0
C1087 C 0.25473 0.73046 0.32901 0.0
C1088 C 0.25593 0.7423 0.29019 0.0
H1089 H 0.28241 0.80511 0.1276 0.0
H1090 H 0.28264 0.78499 0.19002 0.0
H1091 H 0.24571 0.74669 0.17562 0.0
H1092 H 0.22876 0.70323 0.3759 0.0
H1093 H 0.2304 0.72304 0.31326 0.0
C1094 C 0.46394 0.99273 0.36951 0.0
C1095 C 0.45625 0.0073 0.35941 0.0
C1096 C 0.47532 0.99177 0.4052 0.0
C1097 C 0.4891 0.01206 0.51275 0.0
H1098 H 0.52774 0.98732 0.493 0.0
C1099 C 0.54206 0.01424 0.64186 0.0
C1100 C 0.5502 0.9999 0.65182 0.0
C1101 C 0.53058 0.01487 0.60641 0.0
C1102 C 0.51693 0.99411 0.49933 0.0
H1103 H 0.45464 0.03232 0.37917 0.0
H1104 H 0.4746 0.03064 0.44138 0.0
H1105 H 0.50787 0.98919 0.43073 0.0
H1106 H 0.55246 0.97493 0.63213 0.0
H1107 H 0.53226 0.97601 0.5704 0.0
H1108 H 0.49812 0.01696 0.58134 0.0
C1109 C 0.47165 0.01991 0.42188 0.0
C1110 C 0.50553 0.99521 0.46359 0.0
C1111 C 0.46025 0.02089 0.38605 0.0
C1112 C 0.5465 0.98619 0.62533 0.0
C1113 C 0.53497 0.98683 0.58977 0.0
C1114 C 0.50047 0.01095 0.5485 0.0
C1115 C 0.47934 0.00533 0.43182 0.0
C1116 C 0.49149 0.00422 0.46982 0.0
C1117 C 0.52685 1.00118 0.57994 0.0
C1118 C 0.51456 1.002 0.54221 0.0
H1119 H 0.46119 0.98198 0.34986 0.0
H1120 H 0.48084 0.9803 0.4123 0.0
H1121 H 0.4783 0.01888 0.51903 0.0
H1122 H 0.54454 0.02507 0.66139 0.0
H1123 H 0.52477 0.02619 0.59938 0.0
C1124 C 0.26415 0.21613 0.61623 0.0
C1125 C 0.25024 0.20703 0.60754 0.0
C1126 C 0.26454 0.22744 0.65218 0.0
C1127 C 0.2447 0.23866 0.76269 0.0
H1128 H 0.26594 0.27943 0.74243 0.0
C1129 C 0.24025 0.29066 0.89469 0.0
C1130 C 0.25401 0.3 0.90322 0.0
C1131 C 0.24006 0.27923 0.85906 0.0
C1132 C 0.26015 0.26803 0.74889 0.0
H1133 H 0.22576 0.2029 0.62995 0.0
H1134 H 0.22643 0.22278 0.69265 0.0
H1135 H 0.26466 0.2599 0.67912 0.0
H1136 H 0.27846 0.30441 0.88094 0.0
H1137 H 0.27814 0.2843 0.81881 0.0
H1138 H 0.24019 0.24678 0.83244 0.0
C1139 C 0.23711 0.22097 0.67183 0.0
C1140 C 0.25938 0.25684 0.71255 0.0
C1141 C 0.23669 0.20962 0.63572 0.0
C1142 C 0.26764 0.29749 0.87529 0.0
C1143 C 0.26743 0.28602 0.8395 0.0
C1144 C 0.24547 0.24985 0.79904 0.0
C1145 C 0.25105 0.23001 0.68048 0.0
C1146 C 0.25164 0.24201 0.71898 0.0
C1147 C 0.25361 0.27677 0.83093 0.0
C1148 C 0.25318 0.26469 0.79257 0.0
H1149 H 0.27484 0.21452 0.59537 0.0
H1150 H 0.27555 0.23401 0.65822 0.0
H1151 H 0.23888 0.22727 0.76911 0.0
H1152 H 0.22951 0.29219 0.91538 0.0
H1153 H 0.22914 0.27251 0.85307 0.0
C1154 C 0.04628 0.98511 0.87504 0.0
C1155 C 0.04969 0.99901 0.84908 0.0
C1156 C 0.03467 0.98536 0.91049 0.0
C1157 C 0.99951 0.00862 0.95129 0.0
H1158 H 0.0071 0.98734 0.06964 0.0
C1159 C 0.95932 0.01918 0.11307 0.0
C1160 C 0.9554 0.00577 0.14054 0.0
C1161 C 0.97071 0.01799 0.07729 0.0
C1162 C 0.00471 0.99321 0.0366 0.0
H1163 H 0.0435 0.02411 0.84052 0.0
H1164 H 0.02364 0.02452 0.90215 0.0
H1165 H 0.02706 0.98554 0.00751 0.0
H1166 H 0.96051 0.98055 0.15168 0.0
H1167 H 0.98014 0.97852 0.08928 0.0
H1168 H 0.97723 0.01637 0.98037 0.0
C1169 C 0.02971 0.01336 0.89481 0.0
C1170 C 0.01615 0.99215 1.00095 0.0
C1171 C 0.04124 0.01312 0.85956 0.0
C1172 C 0.96318 0.99117 0.13135 0.0
C1173 C 0.97456 0.99 0.09568 0.0
C1174 C 0.9881 0.0097 0.9869 0.0
C1175 C 0.02619 0.99949 0.92063 0.0
C1176 C 0.01375 0.99994 0.95796 0.0
C1177 C 0.97847 0.00339 0.06818 0.0
C1178 C 0.99058 1.00209 0.03011 0.0
H1179 H 0.0525 0.97402 0.86785 0.0
H1180 H 0.03216 0.97442 0.92948 0.0
H1181 H 0.99712 0.01454 0.91832 0.0
H1182 H 0.95365 0.03063 0.11925 0.0
H1183 H 0.97358 0.02859 0.05715 0.0
C1184 C 0.76837 0.70845 0.8672 0.0
C1185 C 0.75524 0.70554 0.89682 0.0
C1186 C 0.76717 0.71947 0.83049 0.0
C1187 C 0.74396 0.75444 0.79034 0.0
H1188 H 0.7617 0.74381 0.66904 0.0
C1189 C 0.73619 0.79573 0.62853 0.0
C1190 C 0.74978 0.79771 0.60004 0.0
C1191 C 0.73598 0.78409 0.66387 0.0
C1192 C 0.75681 0.74705 0.7028 0.0
H1193 H 0.73055 0.71212 0.91097 0.0
H1194 H 0.72854 0.73123 0.84714 0.0
H1195 H 0.7635 0.72456 0.73283 0.0
H1196 H 0.77372 0.78872 0.58622 0.0
H1197 H 0.77342 0.76887 0.64776 0.0
H1198 H 0.73747 0.77703 0.76052 0.0
C1199 C 0.73978 0.72507 0.85247 0.0
C1200 C 0.75786 0.736 0.73937 0.0
C1201 C 0.74094 0.71401 0.88896 0.0
C1202 C 0.76302 0.78763 0.60737 0.0
C1203 C 0.76282 0.77608 0.64257 0.0
C1204 C 0.74297 0.76554 0.75378 0.0
C1205 C 0.75286 0.72791 0.82272 0.0
C1206 C 0.75154 0.7396 0.78366 0.0
C1207 C 0.74934 0.77416 0.67141 0.0
C1208 C 0.7495 0.76203 0.70963 0.0
H1209 H 0.77958 0.7022 0.87225 0.0
H1210 H 0.77753 0.72153 0.80849 0.0
H1211 H 0.7391 0.75764 0.82419 0.0
H1212 H 0.72576 0.80323 0.62378 0.0
H1213 H 0.72532 0.78281 0.68512 0.0
C1214 C 0.73616 0.29859 0.36895 0.0
C1215 C 0.7497 0.30152 0.39701 0.0
C1216 C 0.73676 0.28731 0.33272 0.0
C1217 C 0.75957 0.25201 0.2916 0.0
H1218 H 0.7399 0.26162 0.17209 0.0
C1219 C 0.76761 0.21118 0.12919 0.0
C1220 C 0.75393 0.20849 0.10152 0.0
C1221 C 0.76744 0.22271 0.16483 0.0
C1222 C 0.74532 0.25866 0.20539 0.0
H1223 H 0.77447 0.29471 0.40879 0.0
H1224 H 0.77548 0.27528 0.34572 0.0
H1225 H 0.73853 0.28114 0.23535 0.0
H1226 H 0.72938 0.21605 0.08964 0.0
H1227 H 0.72907 0.23581 0.15174 0.0
H1228 H 0.7663 0.2295 0.26173 0.0
C1229 C 0.76435 0.28156 0.35196 0.0
C1230 C 0.74451 0.26986 0.24169 0.0
C1231 C 0.76378 0.29283 0.38802 0.0
C1232 C 0.74016 0.21772 0.11014 0.0
C1233 C 0.74 0.22919 0.14565 0.0
C1234 C 0.76036 0.2408 0.25531 0.0
C1235 C 0.75087 0.27865 0.32382 0.0
C1236 C 0.7516 0.26667 0.28527 0.0
C1237 C 0.75361 0.23183 0.17353 0.0
C1238 C 0.7532 0.24396 0.21177 0.0
H1239 H 0.7251 0.305 0.37493 0.0
H1240 H 0.72609 0.28522 0.31203 0.0
H1241 H 0.76498 0.24907 0.32492 0.0
H1242 H 0.77844 0.20436 0.12344 0.0
H1243 H 0.77819 0.22457 0.18529 0.0
C1244 C 0.73574 0.20995 0.86929 0.0
C1245 C 0.74936 0.20726 0.8971 0.0
C1246 C 0.73612 0.22128 0.83317 0.0
C1247 C 0.75845 0.25705 0.79221 0.0
H1248 H 0.73904 0.24713 0.67246 0.0
C1249 C 0.76674 0.2978 0.62991 0.0
C1250 C 0.75316 0.30033 0.60181 0.0
C1251 C 0.76648 0.28631 0.6656 0.0
C1252 C 0.74438 0.25017 0.70583 0.0
H1253 H 0.77407 0.21454 0.90854 0.0
H1254 H 0.7747 0.23404 0.84571 0.0
H1255 H 0.73773 0.2276 0.73571 0.0
H1256 H 0.72868 0.29252 0.5892 0.0
H1257 H 0.72821 0.27281 0.65142 0.0
H1258 H 0.76505 0.27963 0.76243 0.0
C1259 C 0.76367 0.22754 0.85205 0.0
C1260 C 0.74361 0.23897 0.74212 0.0
C1261 C 0.76332 0.21624 0.88798 0.0
C1262 C 0.7394 0.29098 0.61005 0.0
C1263 C 0.73914 0.27954 0.64563 0.0
C1264 C 0.7592 0.26826 0.75594 0.0
C1265 C 0.7501 0.23022 0.82417 0.0
C1266 C 0.75064 0.24226 0.78576 0.0
C1267 C 0.75265 0.27706 0.67395 0.0
C1268 C 0.75217 0.26498 0.71229 0.0
H1269 H 0.72478 0.20331 0.87539 0.0
H1270 H 0.72539 0.22318 0.81263 0.0
H1271 H 0.7638 0.26007 0.82559 0.0
H1272 H 0.77758 0.30472 0.62447 0.0
H1273 H 0.77718 0.28457 0.6864 0.0
C1274 C 0.76625 0.71697 0.10997 0.0
C1275 C 0.75268 0.70732 0.10171 0.0
C1276 C 0.76632 0.72831 0.14579 0.0
C1277 C 0.74009 0.75253 0.22105 0.0
H1278 H 0.77807 0.75619 0.2985 0.0
C1279 C 0.74179 0.79206 0.38662 0.0
C1280 C 0.75591 0.80067 0.39651 0.0
C1281 C 0.74133 0.78081 0.35052 0.0
C1282 C 0.76745 0.75549 0.27684 0.0
H1283 H 0.72839 0.70238 0.12444 0.0
H1284 H 0.72853 0.72231 0.18725 0.0
H1285 H 0.77707 0.73622 0.23641 0.0
H1286 H 0.78065 0.80415 0.37568 0.0
H1287 H 0.77978 0.78464 0.31207 0.0
H1288 H 0.7305 0.77188 0.2612 0.0
C1289 C 0.73911 0.72102 0.16571 0.0
C1290 C 0.76686 0.744 0.2413 0.0
C1291 C 0.73905 0.70955 0.12984 0.0
C1292 C 0.76958 0.79774 0.36914 0.0
C1293 C 0.7691 0.78647 0.33284 0.0
C1294 C 0.7407 0.76407 0.2565 0.0
C1295 C 0.75282 0.73042 0.17432 0.0
C1296 C 0.75319 0.7424 0.21289 0.0
C1297 C 0.75496 0.77785 0.32309 0.0
C1298 C 0.7544 0.76571 0.28486 0.0
H1299 H 0.77694 0.71577 0.08887 0.0
H1300 H 0.77696 0.73555 0.15087 0.0
H1301 H 0.72947 0.75175 0.19939 0.0
H1302 H 0.73102 0.79389 0.407 0.0
H1303 H 0.73032 0.77424 0.34463 0.0
C1304 C 0.54575 0.52152 0.12665 0.0
C1305 C 0.54882 0.50773 0.15337 0.0
C1306 C 0.53433 0.52119 0.09069 0.0
C1307 C 0.4989 0.49837 0.04953 0.0
H1308 H 0.50777 0.51868 0.93043 0.0
C1309 C 0.45799 0.48933 0.888 0.0
C1310 C 0.45499 0.50285 0.86006 0.0
C1311 C 0.46951 0.48993 0.9236 0.0
C1312 C 0.50501 0.51309 0.96365 0.0
H1313 H 0.54221 0.48274 0.16283 0.0
H1314 H 0.52258 0.4822 0.1004 0.0
H1315 H 0.52753 0.5202 0.99313 0.0
H1316 H 0.46194 0.52759 0.84776 0.0
H1317 H 0.48169 0.52864 0.9099 0.0
H1318 H 0.47638 0.49129 0.0202 0.0
C1319 C 0.52882 0.49333 0.10748 0.0
C1320 C 0.51635 0.51399 0.99961 0.0
C1321 C 0.5402 0.49364 0.14319 0.0
C1322 C 0.46386 0.51692 0.86848 0.0
C1323 C 0.47532 0.51751 0.904 0.0
C1324 C 0.48755 0.4975 0.01362 0.0
C1325 C 0.52569 0.50709 0.08084 0.0
C1326 C 0.51346 0.50658 0.04294 0.0
C1327 C 0.47831 0.50404 0.93207 0.0
C1328 C 0.49047 0.50483 0.97018 0.0
H1329 H 0.55212 0.53259 0.13357 0.0
H1330 H 0.53211 0.53204 0.07106 0.0
H1331 H 0.49617 0.49274 0.08272 0.0
H1332 H 0.45146 0.47827 0.88238 0.0
H1333 H 0.47164 0.47926 0.94416 0.0
C1334 C 0.04703 0.51946 0.38377 0.0
C1335 C 0.0501 0.50585 0.35623 0.0
C1336 C 0.03559 0.51889 0.41959 0.0
C1337 C 0.0136 0.49034 0.49553 0.0
H1338 H 0.9846 0.5259 0.51417 0.0
C1339 C 0.95942 0.48679 0.62199 0.0
C1340 C 0.95633 0.50042 0.64942 0.0
C1341 C 0.97081 0.48736 0.58603 0.0
C1342 C 0.99271 0.51593 0.50976 0.0
H1343 H 0.04329 0.48102 0.3447 0.0
H1344 H 0.02343 0.48014 0.40653 0.0
H1345 H 0.00473 0.52733 0.45254 0.0
H1346 H 0.96303 0.5253 0.66057 0.0
H1347 H 0.98281 0.52618 0.59854 0.0
H1348 H 1.0016 0.47894 0.55278 0.0
C1349 C 0.03002 0.49117 0.40103 0.0
C1350 C 0.00427 0.51676 0.47444 0.0
C1351 C 0.04139 0.49173 0.36529 0.0
C1352 C 0.96496 0.51457 0.64008 0.0
C1353 C 0.97628 0.51513 0.60422 0.0
C1354 C 1.00204 0.4895 0.53086 0.0
C1355 C 0.02699 0.50472 0.42874 0.0
C1356 C 0.01485 0.50397 0.46685 0.0
C1357 C 0.97934 0.50156 0.57664 0.0
C1358 C 0.99146 0.50229 0.53847 0.0
H1359 H 0.05349 0.53053 0.3778 0.0
H1360 H 0.03365 0.52951 0.44056 0.0
H1361 H 0.02171 0.48036 0.49111 0.0
H1362 H 0.95303 0.47569 0.62817 0.0
H1363 H 0.97277 0.47672 0.56517 0.0
C1364 C 0.04738 0.48853 0.12275 0.0
C1365 C 0.04965 0.50202 0.15146 0.0
C1366 C 0.03606 0.48877 0.08658 0.0
C1367 C 0.99981 0.51024 0.04598 0.0
H1368 H 0.01063 0.49193 0.92553 0.0
C1369 C 0.95951 0.51829 0.88258 0.0
C1370 C 0.95732 0.50473 0.85405 0.0
C1371 C 0.9709 0.51819 0.91859 0.0
C1372 C 0.00734 0.49696 0.95909 0.0
H1373 H 0.04155 0.52632 0.16467 0.0
H1374 H 0.02209 0.52673 0.10169 0.0
H1375 H 0.02996 0.49082 0.98934 0.0
H1376 H 0.96562 0.4805 0.84097 0.0
H1377 H 0.98517 0.48033 0.90368 0.0
H1378 H 0.97718 0.51637 0.01575 0.0
C1379 C 0.02891 0.5159 0.10734 0.0
C1380 C 0.01843 0.4963 0.9957 0.0
C1381 C 0.0402 0.51568 0.14336 0.0
C1382 C 0.96691 0.49118 0.86214 0.0
C1383 C 0.97825 0.4911 0.898 0.0
C1384 C 0.98871 0.5109 0.00936 0.0
C1385 C 0.02671 0.50248 0.0784 0.0
C1386 C 0.0148 0.50293 0.03962 0.0
C1387 C 0.98038 0.50457 0.92679 0.0
C1388 C 0.99233 0.50425 0.96546 0.0
H1389 H 0.05438 0.47779 0.12805 0.0
H1390 H 0.03453 0.47816 0.06527 0.0
H1391 H 0.99652 0.51527 0.07954 0.0
H1392 H 0.9524 0.52895 0.87727 0.0
H1393 H 0.97237 0.52885 0.93977 0.0
C1394 C 0.45689 0.51849 0.62475 0.0
C1395 C 0.45481 0.5054 0.65508 0.0
C1396 C 0.46805 0.51778 0.58823 0.0
C1397 C 0.50429 0.49608 0.54902 0.0
H1398 H 0.49272 0.5125 0.42686 0.0
C1399 C 0.54489 0.48768 0.38609 0.0
C1400 C 0.5466 0.5011 0.35682 0.0
C1401 C 0.53341 0.48758 0.42189 0.0
C1402 C 0.49621 0.50798 0.46086 0.0
H1403 H 0.46307 0.48134 0.67085 0.0
H1404 H 0.48229 0.48013 0.60736 0.0
H1405 H 0.47358 0.51413 0.49102 0.0
H1406 H 0.5373 0.52486 0.34205 0.0
H1407 H 0.51766 0.52471 0.40425 0.0
H1408 H 0.52696 0.49002 0.51892 0.0
C1409 C 0.47543 0.491 0.61195 0.0
C1410 C 0.48524 0.50895 0.49767 0.0
C1411 C 0.46428 0.49168 0.64827 0.0
C1412 C 0.5364 0.51428 0.3638 0.0
C1413 C 0.52499 0.51418 0.39939 0.0
C1414 C 0.51529 0.49513 0.5122 0.0
C1415 C 0.47743 0.504 0.58136 0.0
C1416 C 0.48916 0.50306 0.54225 0.0
C1417 C 0.52336 0.50087 0.42904 0.0
C1418 C 0.51141 0.50115 0.46771 0.0
H1419 H 0.44985 0.52926 0.62901 0.0
H1420 H 0.46944 0.52809 0.56561 0.0
H1421 H 0.50777 0.49159 0.58306 0.0
H1422 H 0.55249 0.47731 0.38165 0.0
H1423 H 0.53234 0.47706 0.44382 0.0
C1424 C 0.1182 0.4515 0.16676 0.0
C1425 C 0.12166 0.46793 0.17032 0.0
C1426 C 0.13002 0.44068 0.1532 0.0
C1427 C 0.17268 0.43373 0.15708 0.0
H1428 H 0.16425 0.4023 0.06034 0.0
C1429 C 0.2198 0.38626 0.10008 0.0
C1430 C 0.21398 0.37127 0.08554 0.0
C1431 C 0.20916 0.39876 0.11007 0.0
C1432 C 0.16676 0.4108 0.088 0.0
H1433 H 0.1402 0.48593 0.16233 0.0
H1434 H 0.16109 0.46681 0.13954 0.0
H1435 H 0.14452 0.42293 0.07671 0.0
H1436 H 0.19251 0.35732 0.07257 0.0
H1437 H 0.17405 0.37868 0.09205 0.0
H1438 H 0.19461 0.42124 0.16991 0.0
C1439 C 0.14913 0.46243 0.14684 0.0
C1440 C 0.15548 0.42271 0.097 0.0
C1441 C 0.13717 0.47335 0.15949 0.0
C1442 C 0.19736 0.36881 0.08318 0.0
C1443 C 0.18677 0.38115 0.09388 0.0
C1444 C 0.1839 0.42162 0.14861 0.0
C1445 C 0.14565 0.44599 0.14375 0.0
C1446 C 0.15825 0.43419 0.13189 0.0
C1447 C 0.19248 0.39644 0.10632 0.0
C1448 C 0.18099 0.40985 0.11433 0.0
H1449 H 0.10635 0.44697 0.17494 0.0
H1450 H 0.12704 0.42806 0.15138 0.0
H1451 H 0.17503 0.44238 0.18448 0.0
H1452 H 0.23256 0.38852 0.10185 0.0
H1453 H 0.21405 0.41036 0.1192 0.0
C1454 C 0.79082 0.87941 0.38919 0.0
C1455 C 0.79435 0.86882 0.42598 0.0
C1456 C 0.80141 0.89193 0.378 0.0
C1457 C 0.83494 0.91568 0.42849 0.0
H1458 H 0.84572 0.92479 0.29936 0.0
C1459 C 0.89172 0.95075 0.37518 0.0
C1460 C 0.89085 0.9612 0.33675 0.0
C1461 C 0.87861 0.94114 0.38729 0.0
C1462 C 0.84267 0.92258 0.3356 0.0
H1463 H 0.8119 0.86306 0.47948 0.0
H1464 H 0.83021 0.88452 0.4597 0.0
H1465 H 0.82521 0.90481 0.31708 0.0
H1466 H 0.87525 0.97011 0.28189 0.0
H1467 H 0.85241 0.95342 0.30328 0.0
H1468 H 0.85261 0.93319 0.44708 0.0
C1469 C 0.8192 0.88342 0.43993 0.0
C1470 C 0.83089 0.91112 0.34574 0.0
C1471 C 0.8087 0.87098 0.45101 0.0
C1472 C 0.87637 0.9622 0.31171 0.0
C1473 C 0.8633 0.95253 0.3237 0.0
C1474 C 0.84671 0.9271 0.41837 0.0
C1475 C 0.81568 0.89413 0.40353 0.0
C1476 C 0.82709 0.90733 0.39234 0.0
C1477 C 0.86434 0.9417 0.36118 0.0
C1478 C 0.85091 0.93051 0.37184 0.0
H1479 H 0.77986 0.87812 0.36929 0.0
H1480 H 0.79831 0.90002 0.34985 0.0
H1481 H 0.83208 0.91331 0.46478 0.0
H1482 H 0.90267 0.94964 0.39517 0.0
H1483 H 0.87989 0.93283 0.41611 0.0
C1484 C 0.30613 0.63868 0.58908 0.0
C1485 C 0.28961 0.63558 0.58721 0.0
C1486 C 0.31692 0.62652 0.59995 0.0
C1487 C 0.32012 0.58513 0.64808 0.0
H1488 H 0.36095 0.58654 0.58353 0.0
C1489 C 0.36833 0.53481 0.66001 0.0
C1490 C 0.38354 0.54049 0.67323 0.0
C1491 C 0.35624 0.54556 0.64715 0.0
C1492 C 0.3496 0.58599 0.60179 0.0
H1493 H 0.27139 0.61733 0.59632 0.0
H1494 H 0.29029 0.59587 0.61412 0.0
H1495 H 0.3409 0.60684 0.56711 0.0
H1496 H 0.39815 0.56179 0.68193 0.0
H1497 H 0.37726 0.58042 0.65823 0.0
H1498 H 0.32895 0.564 0.68206 0.0
C1499 C 0.29492 0.60782 0.60808 0.0
C1500 C 0.33812 0.59771 0.59275 0.0
C1501 C 0.28406 0.6201 0.59785 0.0
C1502 C 0.38656 0.55704 0.67192 0.0
C1503 C 0.37462 0.56772 0.65824 0.0
C1504 C 0.33157 0.57325 0.65663 0.0
C1505 C 0.31154 0.61081 0.60843 0.0
C1506 C 0.32333 0.59766 0.61645 0.0
C1507 C 0.35928 0.56213 0.64631 0.0
C1508 C 0.34652 0.57374 0.63415 0.0
H1509 H 0.31077 0.65053 0.58153 0.0
H1510 H 0.32954 0.62947 0.60131 0.0
H1511 H 0.30897 0.58473 0.66731 0.0
H1512 H 0.36563 0.52212 0.66105 0.0
H1513 H 0.34452 0.54095 0.63791 0.0
C1514 C 0.69717 0.13865 0.92426 0.0
C1515 C 0.7138 0.13678 0.91973 0.0
C1516 C 0.68674 0.12613 0.91326 0.0
C1517 C 0.68412 0.08649 0.85342 0.0
H1518 H 0.6459 0.08258 0.92971 0.0
C1519 C 0.63943 0.03297 0.84043 0.0
C1520 C 0.62341 0.03759 0.83386 0.0
C1521 C 0.65107 0.04432 0.85289 0.0
C1522 C 0.65651 0.08354 0.9081 0.0
H1523 H 0.73256 0.12036 0.89926 0.0
H1524 H 0.71435 0.0982 0.88126 0.0
H1525 H 0.6652 0.10371 0.94637 0.0
H1526 H 0.60695 0.05759 0.83663 0.0
H1527 H 0.62715 0.07724 0.85964 0.0
H1528 H 0.67538 0.06598 0.81588 0.0
C1529 C 0.70931 0.1095 0.89241 0.0
C1530 C 0.66755 0.09574 0.91733 0.0
C1531 C 0.71978 0.12218 0.90277 0.0
C1532 C 0.61918 0.05365 0.8415 0.0
C1533 C 0.63073 0.0649 0.85476 0.0
C1534 C 0.67315 0.07412 0.84464 0.0
C1535 C 0.69264 0.11123 0.89822 0.0
C1536 C 0.68138 0.0976 0.88961 0.0
C1537 C 0.64683 0.06042 0.85992 0.0
C1538 C 0.65912 0.07268 0.87145 0.0
H1539 H 0.69218 0.14982 0.93675 0.0
H1540 H 0.674 0.12816 0.91682 0.0
H1541 H 0.6945 0.08758 0.831 0.0
H1542 H 0.64308 0.02071 0.83445 0.0
H1543 H 0.66339 0.04054 0.8569 0.0
C1544 C 0.11824 0.5587 0.33299 0.0
C1545 C 0.12088 0.54212 0.3346 0.0
C1546 C 0.13054 0.56946 0.34357 0.0
C1547 C 0.17121 0.57281 0.39682 0.0
H1548 H 0.1719 0.61236 0.32577 0.0
C1549 C 0.22256 0.62021 0.40815 0.0
C1550 C 0.21708 0.6357 0.41865 0.0
C1551 C 0.2117 0.60813 0.39546 0.0
C1552 C 0.17186 0.60136 0.34585 0.0
H1553 H 0.13842 0.52377 0.34949 0.0
H1554 H 0.16014 0.54257 0.3667 0.0
H1555 H 0.15136 0.59238 0.30972 0.0
H1556 H 0.19605 0.65081 0.4226 0.0
H1557 H 0.17725 0.6299 0.39912 0.0
H1558 H 0.19203 0.58189 0.43223 0.0
C1559 C 0.14845 0.5473 0.35821 0.0
C1560 C 0.16 0.58993 0.33701 0.0
C1561 C 0.13601 0.5365 0.34831 0.0
C1562 C 0.20064 0.63899 0.41469 0.0
C1563 C 0.18988 0.62704 0.40115 0.0
C1564 C 0.18325 0.58418 0.40516 0.0
C1565 C 0.14594 0.56395 0.35517 0.0
C1566 C 0.15928 0.57562 0.36302 0.0
C1567 C 0.19525 0.61144 0.39206 0.0
C1568 C 0.1835 0.59869 0.3803 0.0
H1569 H 0.10666 0.56341 0.32303 0.0
H1570 H 0.12794 0.58214 0.34228 0.0
H1571 H 0.17102 0.56204 0.41786 0.0
H1572 H 0.23514 0.61729 0.41129 0.0
H1573 H 0.21614 0.5962 0.38842 0.0
C1574 C 0.63404 0.96892 0.65412 0.0
C1575 C 0.61949 0.963 0.67177 0.0
C1576 C 0.64652 0.95839 0.64291 0.0
C1577 C 0.65987 0.91645 0.66609 0.0
H1578 H 0.68931 0.92458 0.56395 0.0
C1579 C 0.70145 0.86839 0.58726 0.0
C1580 C 0.71756 0.87266 0.58021 0.0
C1581 C 0.69024 0.87986 0.60094 0.0
C1582 C 0.68125 0.92226 0.59287 0.0
H1583 H 0.60627 0.94144 0.68922 0.0
H1584 H 0.62756 0.92316 0.66774 0.0
H1585 H 0.66794 0.9437 0.58036 0.0
H1586 H 0.73457 0.89232 0.58215 0.0
H1587 H 0.71482 0.91248 0.60524 0.0
H1588 H 0.67286 0.8947 0.67726 0.0
C1589 C 0.62974 0.93589 0.6643 0.0
C1590 C 0.66902 0.93323 0.60242 0.0
C1591 C 0.61743 0.94638 0.67619 0.0
C1592 C 0.72227 0.88864 0.58767 0.0
C1593 C 0.71097 0.9002 0.6005 0.0
C1594 C 0.67192 0.9054 0.65605 0.0
C1595 C 0.64461 0.94172 0.64852 0.0
C1596 C 0.65805 0.9304 0.63893 0.0
C1597 C 0.69483 0.89592 0.60705 0.0
C1598 C 0.68266 0.90813 0.61918 0.0
H1599 H 0.636 0.98169 0.65068 0.0
H1600 H 0.65781 0.96339 0.63126 0.0
H1601 H 0.65201 0.91401 0.69535 0.0
H1602 H 0.69744 0.85619 0.58171 0.0
H1603 H 0.67787 0.87626 0.60547 0.0
C1604 C 0.38637 0.45036 0.84056 0.0
C1605 C 0.38322 0.46686 0.83928 0.0
C1606 C 0.37423 0.43942 0.85102 0.0
C1607 C 0.33278 0.43569 0.89864 0.0
H1608 H 0.3344 0.3951 0.83287 0.0
C1609 C 0.28254 0.38699 0.90769 0.0
C1610 C 0.28824 0.37187 0.92119 0.0
C1611 C 0.29329 0.39921 0.89534 0.0
C1612 C 0.3338 0.40639 0.85145 0.0
H1613 H 0.36493 0.48488 0.84903 0.0
H1614 H 0.34351 0.46572 0.86604 0.0
H1615 H 0.35468 0.41539 0.81733 0.0
H1616 H 0.30958 0.35751 0.93092 0.0
H1617 H 0.32822 0.37861 0.908 0.0
H1618 H 0.31159 0.42656 0.93198 0.0
C1619 C 0.35546 0.46122 0.85989 0.0
C1620 C 0.3455 0.418 0.84293 0.0
C1621 C 0.36773 0.47223 0.85011 0.0
C1622 C 0.30482 0.36904 0.92066 0.0
C1623 C 0.3155 0.3811 0.90744 0.0
C1624 C 0.3209 0.42411 0.90662 0.0
C1625 C 0.35849 0.44463 0.85963 0.0
C1626 C 0.34537 0.4327 0.86709 0.0
C1627 C 0.30988 0.39636 0.89527 0.0
C1628 C 0.32148 0.40925 0.88368 0.0
H1629 H 0.39823 0.44586 0.83284 0.0
H1630 H 0.37721 0.42682 0.85193 0.0
H1631 H 0.33231 0.44677 0.91822 0.0
H1632 H 0.26983 0.38954 0.90817 0.0
H1633 H 0.28867 0.41087 0.88591 0.0
C1634 C 0.80495 0.13997 0.08605 0.0
C1635 C 0.78868 0.13595 0.08123 0.0
C1636 C 0.81613 0.12839 0.09898 0.0
C1637 C 0.82447 0.08597 0.09122 0.0
H1638 H 0.85523 0.0942 0.18991 0.0
C1639 C 0.87246 0.03926 0.14662 0.0
C1640 C 0.88725 0.04515 0.16258 0.0
C1641 C 0.85985 0.04979 0.13688 0.0
C1642 C 0.84693 0.09177 0.16169 0.0
H1643 H 0.77135 0.11666 0.08639 0.0
H1644 H 0.79109 0.09625 0.1081 0.0
H1645 H 0.83421 0.11359 0.17426 0.0
H1646 H 0.90074 0.06668 0.17841 0.0
H1647 H 0.87921 0.085 0.15933 0.0
H1648 H 0.83751 0.06448 0.07716 0.0
C1649 C 0.79507 0.10844 0.10226 0.0
C1650 C 0.83479 0.10285 0.15308 0.0
C1651 C 0.78379 0.12013 0.09022 0.0
C1652 C 0.88941 0.06177 0.16666 0.0
C1653 C 0.87697 0.07228 0.15618 0.0
C1654 C 0.83679 0.07497 0.09929 0.0
C1655 C 0.81135 0.11247 0.10652 0.0
C1656 C 0.82352 0.10013 0.11757 0.0
C1657 C 0.86186 0.06646 0.14224 0.0
C1658 C 0.84831 0.0778 0.13435 0.0
H1659 H 0.80909 0.15205 0.07928 0.0
H1660 H 0.82863 0.13179 0.10174 0.0
H1661 H 0.81599 0.08367 0.06331 0.0
H1662 H 0.87041 0.02649 0.14353 0.0
H1663 H 0.8484 0.04481 0.12662 0.0
C1664 C 0.81036 0.63959 0.92068 0.0
C1665 C 0.79369 0.63788 0.91595 0.0
C1666 C 0.82063 0.62729 0.9071 0.0
C1667 C 0.82318 0.58421 0.89526 0.0
H1668 H 0.86027 0.59333 0.81816 0.0
C1669 C 0.86768 0.53475 0.83578 0.0
C1670 C 0.88382 0.53913 0.83023 0.0
C1671 C 0.85611 0.54635 0.84607 0.0
C1672 C 0.85014 0.59057 0.84039 0.0
H1673 H 0.7747 0.62195 0.89316 0.0
H1674 H 0.79278 0.60017 0.87022 0.0
H1675 H 0.84106 0.61444 0.83448 0.0
H1676 H 0.90064 0.5589 0.83363 0.0
H1677 H 0.88074 0.5789 0.85369 0.0
H1678 H 0.83252 0.56051 0.90282 0.0
C1679 C 0.79781 0.61115 0.8841 0.0
C1680 C 0.83906 0.60267 0.84933 0.0
C1681 C 0.7875 0.62363 0.89688 0.0
C1682 C 0.88826 0.55518 0.83727 0.0
C1683 C 0.87679 0.56669 0.84827 0.0
C1684 C 0.83442 0.57212 0.88692 0.0
C1685 C 0.81447 0.61288 0.88924 0.0
C1686 C 0.82554 0.59966 0.87713 0.0
C1687 C 0.86048 0.56255 0.85165 0.0
C1688 C 0.84816 0.57518 0.85973 0.0
H1689 H 0.81549 0.65043 0.93525 0.0
H1690 H 0.83341 0.62889 0.91172 0.0
H1691 H 0.81293 0.58162 0.9172 0.0
H1692 H 0.86387 0.52249 0.83016 0.0
H1693 H 0.84369 0.54267 0.848 0.0
C1694 C 0.19873 0.13857 0.58796 0.0
C1695 C 0.21533 0.13587 0.58737 0.0
C1696 C 0.18814 0.1264 0.60102 0.0
C1697 C 0.18312 0.08333 0.60123 0.0
H1698 H 0.1493 0.09151 0.69082 0.0
C1699 C 0.13721 0.0344 0.65754 0.0
C1700 C 0.12163 0.03943 0.66864 0.0
C1701 C 0.14925 0.04566 0.64788 0.0
C1702 C 0.15849 0.08905 0.66512 0.0
H1703 H 0.23387 0.11832 0.60012 0.0
H1704 H 0.2152 0.09681 0.62209 0.0
H1705 H 0.1693 0.11209 0.67532 0.0
H1706 H 0.10624 0.06013 0.67587 0.0
H1707 H 0.12688 0.07962 0.65704 0.0
H1708 H 0.17201 0.06054 0.58948 0.0
C1709 C 0.21049 0.10845 0.61283 0.0
C1710 C 0.17004 0.10083 0.65663 0.0
C1711 C 0.22115 0.12077 0.60065 0.0
C1712 C 0.11818 0.05588 0.66791 0.0
C1713 C 0.1301 0.06708 0.65758 0.0
C1714 C 0.17141 0.07159 0.60918 0.0
C1715 C 0.19388 0.11116 0.61296 0.0
C1716 C 0.18239 0.09815 0.62435 0.0
C1717 C 0.14591 0.06219 0.64853 0.0
C1718 C 0.15881 0.07437 0.64089 0.0
H1719 H 0.19388 0.15008 0.57787 0.0
H1720 H 0.1754 0.12879 0.60053 0.0
H1721 H 0.19245 0.08102 0.57581 0.0
H1722 H 0.14027 0.02181 0.65818 0.0
H1723 H 0.16128 0.0414 0.64145 0.0
C1724 C 0.69693 0.36873 0.41869 0.0
C1725 C 0.71358 0.37113 0.41672 0.0
C1726 C 0.68642 0.38084 0.40525 0.0
C1727 C 0.68238 0.42395 0.39919 0.0
H1728 H 0.64695 0.41485 0.31563 0.0
C1729 C 0.63702 0.47281 0.34127 0.0
C1730 C 0.62114 0.468 0.33286 0.0
C1731 C 0.64885 0.46143 0.35114 0.0
C1732 C 0.6566 0.41758 0.33965 0.0
H1733 H 0.73229 0.3881 0.39898 0.0
H1734 H 0.71376 0.40955 0.37634 0.0
H1735 H 0.66668 0.39419 0.33164 0.0
H1736 H 0.60505 0.4476 0.33057 0.0
H1737 H 0.62537 0.42794 0.34985 0.0
H1738 H 0.67203 0.44713 0.40883 0.0
C1739 C 0.70895 0.39817 0.38792 0.0
C1740 C 0.66798 0.40575 0.34843 0.0
C1741 C 0.71952 0.38588 0.40051 0.0
C1742 C 0.61721 0.45168 0.33646 0.0
C1743 C 0.62894 0.44037 0.34703 0.0
C1744 C 0.67083 0.43575 0.39099 0.0
C1745 C 0.69229 0.39575 0.39033 0.0
C1746 C 0.68092 0.40876 0.37853 0.0
C1747 C 0.64502 0.44501 0.35345 0.0
C1748 C 0.65767 0.43268 0.36144 0.0
H1749 H 0.69199 0.35749 0.43103 0.0
H1750 H 0.67365 0.37869 0.40775 0.0
H1751 H 0.69217 0.42652 0.42294 0.0
H1752 H 0.64045 0.48528 0.33835 0.0
H1753 H 0.66108 0.4655 0.35543 0.0
C1754 C 0.39184 0.95141 0.12747 0.0
C1755 C 0.39125 0.96177 0.16617 0.0
C1756 C 0.37861 0.9419 0.11577 0.0
C1757 C 0.34302 0.92325 0.16869 0.0
H1758 H 0.33114 0.91502 0.03985 0.0
C1759 C 0.2907 0.8804 0.1168 0.0
C1760 C 0.2938 0.87019 0.07877 0.0
C1761 C 0.30137 0.89286 0.12791 0.0
C1762 C 0.33437 0.9171 0.07604 0.0
H1763 H 0.37603 0.9706 0.22203 0.0
H1764 H 0.353 0.95405 0.20144 0.0
H1765 H 0.35196 0.93464 0.0572 0.0
H1766 H 0.3107 0.86505 0.02299 0.0
H1767 H 0.32916 0.88636 0.04266 0.0
H1768 H 0.32568 0.90541 0.18746 0.0
C1769 C 0.36375 0.95318 0.18044 0.0
C1770 C 0.3463 0.92837 0.08595 0.0
C1771 C 0.37694 0.96277 0.19197 0.0
C1772 C 0.30782 0.87268 0.05241 0.0
C1773 C 0.3184 0.88504 0.06345 0.0
C1774 C 0.3311 0.91191 0.15877 0.0
C1775 C 0.36451 0.94246 0.14263 0.0
C1776 C 0.35095 0.93141 0.13233 0.0
C1777 C 0.3153 0.89538 0.1011 0.0
C1778 C 0.32684 0.90848 0.11225 0.0
H1779 H 0.40267 0.95031 0.10691 0.0
H1780 H 0.37965 0.93367 0.08666 0.0
H1781 H 0.34643 0.9252 0.20481 0.0
H1782 H 0.28001 0.87884 0.13774 0.0
H1783 H 0.29859 0.90066 0.15704 0.0
C1784 C 0.80376 0.36945 0.58932 0.0
C1785 C 0.78764 0.37359 0.58228 0.0
C1786 C 0.81494 0.38101 0.60303 0.0
C1787 C 0.82393 0.42341 0.59461 0.0
H1788 H 0.85338 0.41533 0.69662 0.0
C1789 C 0.87183 0.47003 0.65381 0.0
C1790 C 0.88639 0.46407 0.67104 0.0
C1791 C 0.85918 0.45955 0.6432 0.0
C1792 C 0.84545 0.41772 0.66751 0.0
H1793 H 0.77058 0.39308 0.5843 0.0
H1794 H 0.7903 0.41342 0.60744 0.0
H1795 H 0.83235 0.396 0.67926 0.0
H1796 H 0.89943 0.44247 0.68832 0.0
H1797 H 0.87784 0.42427 0.66789 0.0
H1798 H 0.83737 0.44481 0.58148 0.0
C1799 C 0.79417 0.40117 0.60269 0.0
C1800 C 0.8333 0.40667 0.65789 0.0
C1801 C 0.78289 0.38951 0.58984 0.0
C1802 C 0.88828 0.44744 0.67562 0.0
C1803 C 0.87579 0.437 0.66433 0.0
C1804 C 0.83626 0.43439 0.60374 0.0
C1805 C 0.81032 0.39702 0.60918 0.0
C1806 C 0.8225 0.40933 0.62115 0.0
C1807 C 0.86092 0.44288 0.649 0.0
C1808 C 0.84732 0.43161 0.64003 0.0
H1809 H 0.8078 0.35729 0.58369 0.0
H1810 H 0.82732 0.37751 0.6075 0.0
H1811 H 0.81583 0.42567 0.56579 0.0
H1812 H 0.87 0.4828 0.65027 0.0
H1813 H 0.8479 0.46458 0.63185 0.0
C1814 C 0.28454 0.12034 0.41264 0.0
C1815 C 0.28942 0.13617 0.4216 0.0
C1816 C 0.29582 0.10872 0.40007 0.0
C1817 C 0.33514 0.10326 0.34714 0.0
H1818 H 0.3391 0.06538 0.42459 0.0
C1819 C 0.39025 0.06292 0.33146 0.0
C1820 C 0.38842 0.04632 0.33685 0.0
C1821 C 0.37772 0.0733 0.34218 0.0
C1822 C 0.33803 0.07572 0.40202 0.0
H1823 H 0.30975 0.15237 0.42294 0.0
H1824 H 0.32928 0.13223 0.39942 0.0
H1825 H 0.31743 0.08433 0.43916 0.0
H1826 H 0.37209 0.02753 0.35837 0.0
H1827 H 0.3499 0.0456 0.37565 0.0
H1828 H 0.35535 0.09469 0.30913 0.0
C1829 C 0.31681 0.12877 0.40268 0.0
C1830 C 0.32562 0.08659 0.41051 0.0
C1831 C 0.30564 0.14027 0.41619 0.0
C1832 C 0.37388 0.0403 0.35425 0.0
C1833 C 0.36117 0.0507 0.36422 0.0
C1834 C 0.34735 0.0923 0.33809 0.0
C1835 C 0.31207 0.11283 0.39519 0.0
C1836 C 0.32424 0.10058 0.38362 0.0
C1837 C 0.36285 0.06735 0.35765 0.0
C1838 C 0.34919 0.07852 0.36597 0.0
H1839 H 0.27214 0.11682 0.41695 0.0
H1840 H 0.29188 0.09651 0.39431 0.0
H1841 H 0.33422 0.11389 0.32559 0.0
H1842 H 0.40139 0.06793 0.31856 0.0
H1843 H 0.37972 0.08603 0.33806 0.0
C1844 C 0.62808 0.54183 0.14482 0.0
C1845 C 0.61758 0.54535 0.18185 0.0
C1846 C 0.64066 0.55234 0.13366 0.0
C1847 C 0.66474 0.58557 0.18451 0.0
H1848 H 0.67363 0.59669 0.0555 0.0
C1849 C 0.69982 0.64239 0.13178 0.0
C1850 C 0.71024 0.64155 0.09329 0.0
C1851 C 0.69018 0.62929 0.14378 0.0
C1852 C 0.67147 0.59353 0.09171 0.0
H1853 H 0.61206 0.56281 0.23581 0.0
H1854 H 0.63362 0.58099 0.21608 0.0
H1855 H 0.65359 0.5762 0.07306 0.0
H1856 H 0.7191 0.62601 0.03823 0.0
H1857 H 0.70236 0.60318 0.0594 0.0
H1858 H 0.68234 0.60312 0.20323 0.0
C1859 C 0.6324 0.57004 0.1961 0.0
C1860 C 0.65999 0.58178 0.10175 0.0
C1861 C 0.6199 0.55962 0.20716 0.0
C1862 C 0.7112 0.62711 0.06808 0.0
C1863 C 0.70151 0.61404 0.07996 0.0
C1864 C 0.67617 0.59733 0.17449 0.0
C1865 C 0.64301 0.56652 0.15947 0.0
C1866 C 0.65627 0.57787 0.14832 0.0
C1867 C 0.6907 0.61506 0.11749 0.0
C1868 C 0.6795 0.60164 0.12801 0.0
H1869 H 0.62666 0.53092 0.12471 0.0
H1870 H 0.64867 0.54925 0.10532 0.0
H1871 H 0.66242 0.58261 0.22077 0.0
H1872 H 0.69874 0.65333 0.15189 0.0
H1873 H 0.68189 0.63054 0.17266 0.0
C1874 C 0.21779 0.88122 0.89213 0.0
C1875 C 0.21382 0.87009 0.92721 0.0
C1876 C 0.20684 0.89315 0.87907 0.0
C1877 C 0.16358 0.90159 0.88006 0.0
H1878 H 0.17583 0.94602 0.86276 0.0
C1879 C 0.12032 0.94724 0.80075 0.0
C1880 C 0.11908 0.96235 0.82223 0.0
C1881 C 0.13242 0.93664 0.81333 0.0
C1882 C 0.17224 0.93367 0.86776 0.0
H1883 H 0.19525 0.8629 0.97618 0.0
H1884 H 0.17641 0.88345 0.95344 0.0
H1885 H 0.19618 0.9262 0.88432 0.0
H1886 H 0.12986 0.97819 0.8735 0.0
H1887 H 0.15112 0.95946 0.8958 0.0
H1888 H 0.13971 0.90891 0.86407 0.0
C1889 C 0.18786 0.88296 0.93574 0.0
C1890 C 0.1839 0.92231 0.87956 0.0
C1891 C 0.19875 0.87119 0.94891 0.0
C1892 C 0.13042 0.96663 0.85646 0.0
C1893 C 0.14266 0.95596 0.86896 0.0
C1894 C 0.152 0.91287 0.86804 0.0
C1895 C 0.1917 0.89404 0.90054 0.0
C1896 C 0.17966 0.90615 0.88609 0.0
C1897 C 0.14369 0.94079 0.84772 0.0
C1898 C 0.15616 0.92904 0.86171 0.0
H1899 H 0.22932 0.88075 0.87489 0.0
H1900 H 0.21011 0.90148 0.85165 0.0
H1901 H 0.15993 0.88923 0.88441 0.0
H1902 H 0.1119 0.94352 0.77403 0.0
H1903 H 0.13301 0.92516 0.79576 0.0
loop_
_geom_bond_atom_site_label_1
_geom_bond_atom_site_label_2
_geom_bond_distance
_geom_bond_site_symmetry_2
_ccdc_geom_bond_type
Co0 O2 2.143 . S
Co0 O8 2.074 . S
Co0 O11 2.093 1_554 S
Co0 O24 2.097 1_554 S
Co0 N41 2.151 . S
Co0 N49 2.214 . S
Co1 O2 2.160 1_556 S
Co1 O7 2.058 1_556 S
Co1 O17 2.057 1_556 S
Co1 O32 2.037 . S
Co1 N36 2.145 . S
Co1 N57 2.257 . S
O2 Co0 2.143 . S
O2 Co1 2.160 1_554 S
C3 O4 1.278 . S
C3 O11 1.224 . S
O4 C3 1.278 . S
C5 O6 1.245 . S
C5 O17 1.232 . S
O6 C5 1.245 . S
O7 Co1 2.058 1_554 S
O7 C33 1.269 . S
O8 Co0 2.074 . S
O8 C33 1.257 . S
H9 C34 0.930 . S
H10 C40 0.930 . S
O11 Co0 2.093 1_556 S
O11 C3 1.224 . S
H12 C44 0.929 . S
H13 C46 0.930 . S
H14 C47 0.930 . S
H15 C45 0.929 . S
H16 C48 0.928 . S
O17 Co1 2.057 1_554 S
O17 C5 1.232 . S
H18 C37 0.929 . S
H19 C38 0.929 1_554 S
H20 C50 0.931 . S
H21 C42 0.929 . S
H22 C51 0.930 . S
H23 C43 0.931 . S
O24 Co0 2.097 1_556 S
O24 C52 1.214 . S
H25 C53 0.929 . S
H26 C54 0.929 . S
H27 C55 0.930 . S
H28 C56 0.929 . S
H29 C58 0.930 . S
H30 C35 0.930 1_554 S
H31 C39 0.930 . S
O32 Co1 2.037 . S
O32 C52 1.234 . S
C33 O7 1.269 . S
C33 O8 1.257 . S
C34 H9 0.930 . S
C34 C37 1.388 . S
C34 C39 1.418 . S
C35 H30 0.930 1_556 S
C35 C38 1.404 . S
C35 C39 1.353 . S
N36 Co1 2.145 . S
N36 C37 1.397 . S
N36 C38 1.334 . S
C37 H18 0.929 . S
C37 C34 1.388 . S
C37 N36 1.397 . S
C38 H19 0.929 1_556 S
C38 C35 1.404 . S
C38 N36 1.334 . S
C39 H31 0.930 . S
C39 C34 1.418 . S
C39 C35 1.353 . S
C40 H10 0.930 . S
C40 N41 1.330 . S
C40 C42 1.446 . S
N41 Co0 2.151 . S
N41 C40 1.330 . S
N41 C45 1.418 . S
C42 H21 0.929 . S
C42 C40 1.446 . S
C42 C43 1.332 . S
C43 H23 0.931 . S
C43 C42 1.332 . S
C43 C44 1.267 . S
C44 H12 0.929 . S
C44 C43 1.267 . S
C44 C45 1.251 . S
C45 H15 0.929 . S
C45 N41 1.418 . S
C45 C44 1.251 . S
C46 H13 0.930 . S
C46 C48 1.406 . S
C46 C51 1.261 . S
C47 H14 0.930 . S
C47 N49 1.325 1_556 S
C47 C50 1.357 . S
C48 H16 0.928 . S
C48 C46 1.406 . S
C48 N49 1.261 . S
N49 Co0 2.214 . S
N49 C47 1.325 1_554 S
N49 C48 1.261 . S
C50 H20 0.931 . S
C50 C47 1.357 . S
C50 C51 1.312 1_556 S
C51 H22 0.930 . S
C51 C46 1.261 . S
C51 C50 1.312 1_554 S
C52 O24 1.214 . S
C52 O32 1.234 . S
C53 H25 0.929 . S
C53 C56 1.391 . S
C53 C58 1.391 . S
C54 H26 0.929 . S
C54 C55 1.390 . S
C54 N57 1.391 . S
C55 H27 0.930 . S
C55 C54 1.390 . S
C55 C56 1.392 . S
C56 H28 0.929 . S
C56 C53 1.391 . S
C56 C55 1.392 . S
N57 Co1 2.257 . S
N57 C54 1.391 . S
N57 C58 1.388 . S
C58 H29 0.930 . S
C58 C53 1.391 . S
C58 N57 1.388 . S
Co59 O61 2.145 1_565 S
Co59 O67 2.074 . S
Co59 O70 2.093 . S
Co59 O83 2.097 . S
Co59 N100 2.151 . S
Co59 N108 2.214 . S
Co60 O61 2.157 . S
Co60 O66 2.058 . S
Co60 O76 2.057 . S
Co60 O91 2.037 . S
Co60 N95 2.145 . S
Co60 N116 2.257 . S
O61 Co59 2.145 1_545 S
O61 Co60 2.157 . S
C62 O63 1.278 . S
C62 O70 1.224 . S
O63 C62 1.278 . S
C64 O65 1.245 . S
C64 O76 1.232 . S
O65 C64 1.245 . S
O66 Co60 2.058 . S
O66 C92 1.269 . S
O67 Co59 2.074 . S
O67 C92 1.257 1_565 S
H68 C93 0.930 . S
H69 C99 0.930 . S
O70 Co59 2.093 . S
O70 C62 1.224 . S
H71 C103 0.929 . S
H72 C105 0.930 . S
H73 C106 0.930 . S
H74 C104 0.929 . S
H75 C107 0.928 . S
O76 Co60 2.057 . S
O76 C64 1.232 . S
H77 C96 0.929 . S
H78 C97 0.929 . S
H79 C109 0.931 . S
H80 C101 0.929 . S
H81 C110 0.930 . S
H82 C102 0.931 . S
O83 Co59 2.097 . S
O83 C111 1.214 . S
H84 C112 0.929 . S
H85 C113 0.929 . S
H86 C114 0.930 . S
H87 C115 0.929 . S
H88 C117 0.930 . S
H89 C94 0.930 . S
H90 C98 0.930 . S
O91 Co60 2.037 . S
O91 C111 1.234 1_545 S
C92 O66 1.269 . S
C92 O67 1.257 1_545 S
C93 H68 0.930 . S
C93 C96 1.388 . S
C93 C98 1.418 . S
C94 H89 0.930 . S
C94 C97 1.404 . S
C94 C98 1.353 . S
N95 Co60 2.145 . S
N95 C96 1.397 . S
N95 C97 1.334 . S
C96 H77 0.929 . S
C96 C93 1.388 . S
C96 N95 1.397 . S
C97 H78 0.929 . S
C97 C94 1.404 . S
C97 N95 1.334 . S
C98 H90 0.930 . S
C98 C93 1.418 . S
C98 C94 1.353 . S
C99 H69 0.930 . S
C99 N100 1.330 . S
C99 C101 1.446 . S
N100 Co59 2.151 . S
N100 C99 1.330 . S
N100 C104 1.418 . S
C101 H80 0.929 . S
C101 C99 1.446 . S
C101 C102 1.332 . S
C102 H82 0.931 . S
C102 C101 1.332 . S
C102 C103 1.267 . S
C103 H71 0.929 . S
C103 C102 1.267 . S
C103 C104 1.251 . S
C104 H74 0.929 . S
C104 N100 1.418 . S
C104 C103 1.251 . S
C105 H72 0.930 . S
C105 C107 1.406 . S
C105 C110 1.261 . S
C106 H73 0.930 . S
C106 N108 1.325 . S
C106 C109 1.357 . S
C107 H75 0.928 . S
C107 C105 1.406 . S
C107 N108 1.261 . S
N108 Co59 2.214 . S
N108 C106 1.325 . S
N108 C107 1.261 . S
C109 H79 0.931 . S
C109 C106 1.357 . S
C109 C110 1.312 . S
C110 H81 0.930 . S
C110 C105 1.261 . S
C110 C109 1.312 . S
C111 O83 1.214 . S
C111 O91 1.234 1_565 S
C112 H84 0.929 . S
C112 C115 1.391 . S
C112 C117 1.391 . S
C113 H85 0.929 . S
C113 C114 1.390 . S
C113 N116 1.391 . S
C114 H86 0.930 . S
C114 C113 1.390 . S
C114 C115 1.392 . S
C115 H87 0.929 . S
C115 C112 1.391 . S
C115 C114 1.392 . S
N116 Co60 2.257 . S
N116 C113 1.391 . S
N116 C117 1.388 . S
C117 H88 0.930 . S
C117 C112 1.391 . S
C117 N116 1.388 . S
Co118 O120 2.143 . S
Co118 O126 2.074 . S
Co118 O129 2.093 . S
Co118 O142 2.097 . S
Co118 N159 2.151 . S
Co118 N167 2.214 . S
Co119 O120 2.160 . S
Co119 O125 2.058 . S
Co119 O135 2.057 . S
Co119 O150 2.037 . S
Co119 N154 2.145 . S
Co119 N175 2.257 . S
O120 Co118 2.143 . S
O120 Co119 2.160 . S
C121 O122 1.278 . S
C121 O129 1.224 . S
O122 C121 1.278 . S
C123 O124 1.245 . S
C123 O135 1.232 . S
O124 C123 1.245 . S
O125 Co119 2.058 . S
O125 C151 1.269 . S
O126 Co118 2.074 . S
O126 C151 1.257 . S
H127 C152 0.930 . S
H128 C158 0.930 . S
O129 Co118 2.093 . S
O129 C121 1.224 . S
H130 C162 0.929 . S
H131 C164 0.930 . S
H132 C165 0.930 . S
H133 C163 0.929 . S
H134 C166 0.928 . S
O135 Co119 2.057 . S
O135 C123 1.232 . S
H136 C155 0.929 . S
H137 C156 0.929 . S
H138 C168 0.931 . S
H139 C160 0.929 . S
H140 C169 0.930 . S
H141 C161 0.931 . S
O142 Co118 2.097 . S
O142 C170 1.214 . S
H143 C171 0.929 . S
H144 C172 0.929 . S
H145 C173 0.930 . S
H146 C174 0.929 . S
H147 C176 0.930 . S
H148 C153 0.930 . S
H149 C157 0.930 . S
O150 Co119 2.037 . S
O150 C170 1.234 . S
C151 O125 1.269 . S
C151 O126 1.257 . S
C152 H127 0.930 . S
C152 C155 1.388 . S
C152 C157 1.418 . S
C153 H148 0.930 . S
C153 C156 1.404 . S
C153 C157 1.353 . S
N154 Co119 2.145 . S
N154 C155 1.397 . S
N154 C156 1.334 . S
C155 H136 0.929 . S
C155 C152 1.388 . S
C155 N154 1.397 . S
C156 H137 0.929 . S
C156 C153 1.404 . S
C156 N154 1.334 . S
C157 H149 0.930 . S
C157 C152 1.418 . S
C157 C153 1.353 . S
C158 H128 0.930 . S
C158 N159 1.330 . S
C158 C160 1.446 . S
N159 Co118 2.151 . S
N159 C158 1.330 . S
N159 C163 1.418 . S
C160 H139 0.929 . S
C160 C158 1.446 . S
C160 C161 1.332 . S
C161 H141 0.931 . S
C161 C160 1.332 . S
C161 C162 1.267 . S
C162 H130 0.929 . S
C162 C161 1.267 . S
C162 C163 1.251 . S
C163 H133 0.929 . S
C163 N159 1.418 . S
C163 C162 1.251 . S
C164 H131 0.930 . S
C164 C166 1.406 . S
C164 C169 1.261 . S
C165 H132 0.930 . S
C165 N167 1.325 . S
C165 C168 1.357 . S
C166 H134 0.928 . S
C166 C164 1.406 . S
C166 N167 1.261 . S
N167 Co118 2.214 . S
N167 C165 1.325 . S
N167 C166 1.261 . S
C168 H138 0.931 . S
C168 C165 1.357 . S
C168 C169 1.312 . S
C169 H140 0.930 . S
C169 C164 1.261 . S
C169 C168 1.312 . S
C170 O142 1.214 . S
C170 O150 1.234 . S
C171 H143 0.929 . S
C171 C174 1.391 . S
C171 C176 1.391 . S
C172 H144 0.929 . S
C172 C173 1.390 . S
C172 N175 1.391 . S
C173 H145 0.930 . S
C173 C172 1.390 . S
C173 C174 1.392 . S
C174 H146 0.929 . S
C174 C171 1.391 . S
C174 C173 1.392 . S
N175 Co119 2.257 . S
N175 C172 1.391 . S
N175 C176 1.388 . S
C176 H147 0.930 . S
C176 C171 1.391 . S
C176 N175 1.388 . S
Co177 O179 2.143 . S
Co177 O185 2.074 . S
Co177 O188 2.093 . S
Co177 O201 2.097 . S
Co177 N218 2.151 . S
Co177 N226 2.214 . S
Co178 O179 2.160 1_565 S
Co178 O184 2.058 . S
Co178 O194 2.057 . S
Co178 O209 2.037 . S
Co178 N213 2.145 . S
Co178 N234 2.257 . S
O179 Co177 2.143 . S
O179 Co178 2.160 1_545 S
C180 O181 1.278 . S
C180 O188 1.224 . S
O181 C180 1.278 . S
C182 O183 1.245 . S
C182 O194 1.232 . S
O183 C182 1.245 . S
O184 Co178 2.058 . S
O184 C210 1.269 . S
O185 Co177 2.074 . S
O185 C210 1.257 1_545 S
H186 C211 0.930 . S
H187 C217 0.930 . S
O188 Co177 2.093 . S
O188 C180 1.224 . S
H189 C221 0.929 . S
H190 C223 0.930 . S
H191 C224 0.930 . S
H192 C222 0.929 . S
H193 C225 0.928 . S
O194 Co178 2.057 . S
O194 C182 1.232 . S
H195 C214 0.929 . S
H196 C215 0.929 . S
H197 C227 0.931 . S
H198 C219 0.929 . S
H199 C228 0.930 . S
H200 C220 0.931 . S
O201 Co177 2.097 . S
O201 C229 1.214 . S
H202 C230 0.929 . S
H203 C231 0.929 . S
H204 C232 0.930 . S
H205 C233 0.929 . S
H206 C235 0.930 . S
H207 C212 0.930 . S
H208 C216 0.930 . S
O209 Co178 2.037 . S
O209 C229 1.234 1_565 S
C210 O184 1.269 . S
C210 O185 1.257 1_565 S
C211 H186 0.930 . S
C211 C214 1.388 . S
C211 C216 1.418 . S
C212 H207 0.930 . S
C212 C215 1.404 . S
C212 C216 1.353 . S
N213 Co178 2.145 . S
N213 C214 1.397 . S
N213 C215 1.334 . S
C214 H195 0.929 . S
C214 C211 1.388 . S
C214 N213 1.397 . S
C215 H196 0.929 . S
C215 C212 1.404 . S
C215 N213 1.334 . S
C216 H208 0.930 . S
C216 C211 1.418 . S
C216 C212 1.353 . S
C217 H187 0.930 . S
C217 N218 1.330 . S
C217 C219 1.446 . S
N218 Co177 2.151 . S
N218 C217 1.330 . S
N218 C222 1.418 . S
C219 H198 0.929 . S
C219 C217 1.446 . S
C219 C220 1.332 . S
C220 H200 0.931 . S
C220 C219 1.332 . S
C220 C221 1.267 . S
C221 H189 0.929 . S
C221 C220 1.267 . S
C221 C222 1.251 . S
C222 H192 0.929 . S
C222 N218 1.418 . S
C222 C221 1.251 . S
C223 H190 0.930 . S
C223 C225 1.406 . S
C223 C228 1.261 . S
C224 H191 0.930 . S
C224 N226 1.325 . S
C224 C227 1.357 . S
C225 H193 0.928 . S
C225 C223 1.406 . S
C225 N226 1.261 . S
N226 Co177 2.214 . S
N226 C224 1.325 . S
N226 C225 1.261 . S
C227 H197 0.931 . S
C227 C224 1.357 . S
C227 C228 1.312 . S
C228 H199 0.930 . S
C228 C223 1.261 . S
C228 C227 1.312 . S
C229 O201 1.214 . S
C229 O209 1.234 1_545 S
C230 H202 0.929 . S
C230 C233 1.391 . S
C230 C235 1.391 . S
C231 H203 0.929 . S
C231 C232 1.390 . S
C231 N234 1.391 . S
C232 H204 0.930 . S
C232 C231 1.390 . S
C232 C233 1.392 . S
C233 H205 0.929 . S
C233 C230 1.391 . S
C233 C232 1.392 . S
N234 Co178 2.257 . S
N234 C231 1.391 . S
N234 C235 1.388 . S
C235 H206 0.930 . S
C235 C230 1.391 . S
C235 N234 1.388 . S
Co236 O238 2.143 . S
Co236 O244 2.074 . S
Co236 O247 2.093 1_556 S
Co236 O260 2.097 1_556 S
Co236 N277 2.151 . S
Co236 N285 2.214 . S
Co237 O238 2.160 1_554 S
Co237 O243 2.058 1_554 S
Co237 O253 2.057 1_554 S
Co237 O268 2.037 . S
Co237 N272 2.145 . S
Co237 N293 2.257 . S
O238 Co236 2.143 . S
O238 Co237 2.160 1_556 S
C239 O240 1.278 . S
C239 O247 1.224 . S
O240 C239 1.278 . S
C241 O242 1.245 . S
C241 O253 1.232 . S
O242 C241 1.245 . S
O243 Co237 2.058 1_556 S
O243 C269 1.269 . S
O244 Co236 2.074 . S
O244 C269 1.257 . S
H245 C270 0.930 . S
H246 C276 0.930 . S
O247 Co236 2.093 1_554 S
O247 C239 1.224 . S
H248 C280 0.929 . S
H249 C282 0.930 . S
H250 C283 0.930 . S
H251 C281 0.929 . S
H252 C284 0.928 . S
O253 Co237 2.057 1_556 S
O253 C241 1.232 . S
H254 C273 0.929 . S
H255 C274 0.929 1_556 S
H256 C286 0.931 . S
H257 C278 0.929 . S
H258 C287 0.930 . S
H259 C279 0.931 . S
O260 Co236 2.097 1_554 S
O260 C288 1.214 . S
H261 C289 0.929 . S
H262 C290 0.929 . S
H263 C291 0.930 . S
H264 C292 0.929 . S
H265 C294 0.930 . S
H266 C271 0.931 . S
H267 C275 0.930 . S
O268 Co237 2.037 . S
O268 C288 1.234 . S
C269 O243 1.269 . S
C269 O244 1.257 . S
C270 H245 0.930 . S
C270 C273 1.388 . S
C270 C275 1.418 . S
C271 H266 0.931 . S
C271 C274 1.404 . S
C271 C275 1.353 . S
N272 Co237 2.145 . S
N272 C273 1.397 . S
N272 C274 1.334 . S
C273 H254 0.929 . S
C273 C270 1.388 . S
C273 N272 1.397 . S
C274 H255 0.929 1_554 S
C274 C271 1.404 . S
C274 N272 1.334 . S
C275 H267 0.930 . S
C275 C270 1.418 . S
C275 C271 1.353 . S
C276 H246 0.930 . S
C276 N277 1.330 . S
C276 C278 1.446 . S
N277 Co236 2.151 . S
N277 C276 1.330 . S
N277 C281 1.418 . S
C278 H257 0.929 . S
C278 C276 1.446 . S
C278 C279 1.332 . S
C279 H259 0.931 . S
C279 C278 1.332 . S
C279 C280 1.267 . S
C280 H248 0.929 . S
C280 C279 1.267 . S
C280 C281 1.251 . S
C281 H251 0.929 . S
C281 N277 1.418 . S
C281 C280 1.251 . S
C282 H249 0.930 . S
C282 C284 1.406 . S
C282 C287 1.264 . S
C283 H250 0.930 . S
C283 N285 1.325 1_554 S
C283 C286 1.357 . S
C284 H252 0.928 . S
C284 C282 1.406 . S
C284 N285 1.262 . S
N285 Co236 2.214 . S
N285 C283 1.325 1_556 S
N285 C284 1.262 . S
C286 H256 0.931 . S
C286 C283 1.357 . S
C286 C287 1.310 1_554 S
C287 H258 0.930 . S
C287 C282 1.264 . S
C287 C286 1.310 1_556 S
C288 O260 1.214 . S
C288 O268 1.234 . S
C289 H261 0.929 . S
C289 C292 1.391 . S
C289 C294 1.391 . S
C290 H262 0.929 . S
C290 C291 1.390 . S
C290 N293 1.391 . S
C291 H263 0.930 . S
C291 C290 1.390 . S
C291 C292 1.392 . S
C292 H264 0.929 . S
C292 C289 1.391 . S
C292 C291 1.392 . S
N293 Co237 2.257 . S
N293 C290 1.391 . S
N293 C294 1.388 . S
C294 H265 0.930 . S
C294 C289 1.391 . S
C294 N293 1.388 . S
Co295 O297 2.143 . S
Co295 O303 2.074 . S
Co295 O306 2.093 . S
Co295 O319 2.097 . S
Co295 N336 2.151 . S
Co295 N344 2.214 . S
Co296 O297 2.160 1_565 S
Co296 O302 2.058 . S
Co296 O312 2.057 . S
Co296 O327 2.037 . S
Co296 N331 2.145 . S
Co296 N352 2.257 . S
O297 Co295 2.143 . S
O297 Co296 2.160 1_545 S
C298 O299 1.278 . S
C298 O306 1.224 . S
O299 C298 1.278 . S
C300 O301 1.245 . S
C300 O312 1.232 . S
O301 C300 1.245 . S
O302 Co296 2.058 . S
O302 C328 1.269 . S
O303 Co295 2.074 . S
O303 C328 1.257 1_545 S
H304 C329 0.930 . S
H305 C335 0.930 . S
O306 Co295 2.093 . S
O306 C298 1.224 . S
H307 C339 0.929 . S
H308 C341 0.930 . S
H309 C342 0.930 . S
H310 C340 0.929 . S
H311 C343 0.928 . S
O312 Co296 2.057 . S
O312 C300 1.232 . S
H313 C332 0.929 . S
H314 C333 0.929 . S
H315 C345 0.931 . S
H316 C337 0.929 . S
H317 C346 0.930 . S
H318 C338 0.931 . S
O319 Co295 2.097 . S
O319 C347 1.214 . S
H320 C348 0.929 . S
H321 C349 0.929 . S
H322 C350 0.930 . S
H323 C351 0.929 . S
H324 C353 0.930 . S
H325 C330 0.930 . S
H326 C334 0.930 . S
O327 Co296 2.037 . S
O327 C347 1.234 1_565 S
C328 O302 1.269 . S
C328 O303 1.257 1_565 S
C329 H304 0.930 . S
C329 C332 1.388 . S
C329 C334 1.418 . S
C330 H325 0.930 . S
C330 C333 1.404 . S
C330 C334 1.353 . S
N331 Co296 2.145 . S
N331 C332 1.397 . S
N331 C333 1.334 . S
C332 H313 0.929 . S
C332 C329 1.388 . S
C332 N331 1.397 . S
C333 H314 0.929 . S
C333 C330 1.404 . S
C333 N331 1.334 . S
C334 H326 0.930 . S
C334 C329 1.418 . S
C334 C330 1.353 . S
C335 H305 0.930 . S
C335 N336 1.330 . S
C335 C337 1.446 . S
N336 Co295 2.151 . S
N336 C335 1.330 . S
N336 C340 1.418 . S
C337 H316 0.929 . S
C337 C335 1.446 . S
C337 C338 1.332 . S
C338 H318 0.931 . S
C338 C337 1.332 . S
C338 C339 1.267 . S
C339 H307 0.929 . S
C339 C338 1.267 . S
C339 C340 1.251 . S
C340 H310 0.929 . S
C340 N336 1.418 . S
C340 C339 1.251 . S
C341 H308 0.930 . S
C341 C343 1.406 . S
C341 C346 1.261 . S
C342 H309 0.930 . S
C342 N344 1.325 . S
C342 C345 1.357 . S
C343 H311 0.928 . S
C343 C341 1.406 . S
C343 N344 1.261 . S
N344 Co295 2.214 . S
N344 C342 1.325 . S
N344 C343 1.261 . S
C345 H315 0.931 . S
C345 C342 1.357 . S
C345 C346 1.312 . S
C346 H317 0.930 . S
C346 C341 1.261 . S
C346 C345 1.312 . S
C347 O319 1.214 . S
C347 O327 1.234 1_545 S
C348 H320 0.929 . S
C348 C351 1.391 . S
C348 C353 1.391 . S
C349 H321 0.929 . S
C349 C350 1.390 . S
C349 N352 1.391 . S
C350 H322 0.930 . S
C350 C349 1.390 . S
C350 C351 1.392 . S
C351 H323 0.929 . S
C351 C348 1.391 . S
C351 C350 1.392 . S
N352 Co296 2.257 . S
N352 C349 1.391 . S
N352 C353 1.388 . S
C353 H324 0.930 . S
C353 C348 1.391 . S
C353 N352 1.388 . S
Co354 O356 2.143 . S
Co354 O362 2.074 . S
Co354 O365 2.093 . S
Co354 O378 2.097 . S
Co354 N395 2.151 . S
Co354 N403 2.214 . S
Co355 O356 2.160 . S
Co355 O361 2.058 . S
Co355 O371 2.057 . S
Co355 O386 2.037 . S
Co355 N390 2.145 . S
Co355 N411 2.257 . S
O356 Co354 2.143 . S
O356 Co355 2.160 . S
C357 O358 1.278 . S
C357 O365 1.224 . S
O358 C357 1.278 . S
C359 O360 1.245 . S
C359 O371 1.232 . S
O360 C359 1.245 . S
O361 Co355 2.058 . S
O361 C387 1.269 . S
O362 Co354 2.074 . S
O362 C387 1.257 . S
H363 C388 0.930 . S
H364 C394 0.930 . S
O365 Co354 2.093 . S
O365 C357 1.224 . S
H366 C398 0.929 . S
H367 C400 0.930 . S
H368 C401 0.930 . S
H369 C399 0.929 . S
H370 C402 0.928 . S
O371 Co355 2.057 . S
O371 C359 1.232 . S
H372 C391 0.929 . S
H373 C392 0.929 . S
H374 C404 0.931 . S
H375 C396 0.929 . S
H376 C405 0.930 . S
H377 C397 0.931 . S
O378 Co354 2.097 . S
O378 C406 1.214 . S
H379 C407 0.929 . S
H380 C408 0.929 . S
H381 C409 0.930 . S
H382 C410 0.929 . S
H383 C412 0.930 . S
H384 C389 0.930 . S
H385 C393 0.930 . S
O386 Co355 2.037 . S
O386 C406 1.234 . S
C387 O361 1.269 . S
C387 O362 1.257 . S
C388 H363 0.930 . S
C388 C391 1.388 . S
C388 C393 1.418 . S
C389 H384 0.930 . S
C389 C392 1.404 . S
C389 C393 1.353 . S
N390 Co355 2.145 . S
N390 C391 1.397 . S
N390 C392 1.334 . S
C391 H372 0.929 . S
C391 C388 1.388 . S
C391 N390 1.397 . S
C392 H373 0.929 . S
C392 C389 1.404 . S
C392 N390 1.334 . S
C393 H385 0.930 . S
C393 C388 1.418 . S
C393 C389 1.353 . S
C394 H364 0.930 . S
C394 N395 1.330 . S
C394 C396 1.446 . S
N395 Co354 2.151 . S
N395 C394 1.330 . S
N395 C399 1.418 . S
C396 H375 0.929 . S
C396 C394 1.446 . S
C396 C397 1.332 . S
C397 H377 0.931 . S
C397 C396 1.332 . S
C397 C398 1.267 . S
C398 H366 0.929 . S
C398 C397 1.267 . S
C398 C399 1.251 . S
C399 H369 0.929 . S
C399 N395 1.418 . S
C399 C398 1.251 . S
C400 H367 0.930 . S
C400 C402 1.406 . S
C400 C405 1.261 . S
C401 H368 0.930 . S
C401 N403 1.325 . S
C401 C404 1.357 . S
C402 H370 0.928 . S
C402 C400 1.406 . S
C402 N403 1.261 . S
N403 Co354 2.214 . S
N403 C401 1.325 . S
N403 C402 1.261 . S
C404 H374 0.931 . S
C404 C401 1.357 . S
C404 C405 1.312 . S
C405 H376 0.930 . S
C405 C400 1.261 . S
C405 C404 1.312 . S
C406 O378 1.214 . S
C406 O386 1.234 . S
C407 H379 0.929 . S
C407 C410 1.391 . S
C407 C412 1.391 . S
C408 H380 0.929 . S
C408 C409 1.390 . S
C408 N411 1.391 . S
C409 H381 0.930 . S
C409 C408 1.390 . S
C409 C410 1.392 . S
C410 H382 0.929 . S
C410 C407 1.391 . S
C410 C409 1.392 . S
N411 Co355 2.257 . S
N411 C408 1.391 . S
N411 C412 1.388 . S
C412 H383 0.930 . S
C412 C407 1.391 . S
C412 N411 1.388 . S
Co413 O415 2.145 1_565 S
Co413 O421 2.074 . S
Co413 O424 2.093 . S
Co413 O437 2.097 . S
Co413 N454 2.151 . S
Co413 N462 2.214 . S
Co414 O415 2.157 . S
Co414 O420 2.058 . S
Co414 O430 2.057 . S
Co414 O445 2.037 . S
Co414 N449 2.145 . S
Co414 N470 2.257 . S
O415 Co413 2.145 1_545 S
O415 Co414 2.157 . S
C416 O417 1.278 . S
C416 O424 1.224 . S
O417 C416 1.278 . S
C418 O419 1.245 . S
C418 O430 1.232 . S
O419 C418 1.245 . S
O420 Co414 2.058 . S
O420 C446 1.269 . S
O421 Co413 2.074 . S
O421 C446 1.257 1_565 S
H422 C447 0.930 . S
H423 C453 0.930 . S
O424 Co413 2.093 . S
O424 C416 1.224 . S
H425 C457 0.929 . S
H426 C459 0.930 . S
H427 C460 0.930 . S
H428 C458 0.929 . S
H429 C461 0.928 . S
O430 Co414 2.057 . S
O430 C418 1.232 . S
H431 C450 0.929 . S
H432 C451 0.929 . S
H433 C463 0.931 . S
H434 C455 0.929 . S
H435 C464 0.930 . S
H436 C456 0.931 . S
O437 Co413 2.097 . S
O437 C465 1.214 . S
H438 C466 0.929 . S
H439 C467 0.929 . S
H440 C468 0.930 . S
H441 C469 0.929 . S
H442 C471 0.930 . S
H443 C448 0.930 . S
H444 C452 0.930 . S
O445 Co414 2.037 . S
O445 C465 1.234 1_545 S
C446 O420 1.269 . S
C446 O421 1.257 1_545 S
C447 H422 0.930 . S
C447 C450 1.388 . S
C447 C452 1.418 . S
C448 H443 0.930 . S
C448 C451 1.404 . S
C448 C452 1.353 . S
N449 Co414 2.145 . S
N449 C450 1.397 . S
N449 C451 1.334 . S
C450 H431 0.929 . S
C450 C447 1.388 . S
C450 N449 1.397 . S
C451 H432 0.929 . S
C451 C448 1.404 . S
C451 N449 1.334 . S
C452 H444 0.930 . S
C452 C447 1.418 . S
C452 C448 1.353 . S
C453 H423 0.930 . S
C453 N454 1.330 . S
C453 C455 1.446 . S
N454 Co413 2.151 . S
N454 C453 1.330 . S
N454 C458 1.418 . S
C455 H434 0.929 . S
C455 C453 1.446 . S
C455 C456 1.332 . S
C456 H436 0.931 . S
C456 C455 1.332 . S
C456 C457 1.267 . S
C457 H425 0.929 . S
C457 C456 1.267 . S
C457 C458 1.251 . S
C458 H428 0.929 . S
C458 N454 1.418 . S
C458 C457 1.251 . S
C459 H426 0.930 . S
C459 C461 1.406 . S
C459 C464 1.261 . S
C460 H427 0.930 . S
C460 N462 1.325 . S
C460 C463 1.357 . S
C461 H429 0.928 . S
C461 C459 1.406 . S
C461 N462 1.261 . S
N462 Co413 2.214 . S
N462 C460 1.325 . S
N462 C461 1.261 . S
C463 H433 0.931 . S
C463 C460 1.357 . S
C463 C464 1.312 . S
C464 H435 0.930 . S
C464 C459 1.261 . S
C464 C463 1.312 . S
C465 O437 1.214 . S
C465 O445 1.234 1_565 S
C466 H438 0.929 . S
C466 C469 1.391 . S
C466 C471 1.391 . S
C467 H439 0.929 . S
C467 C468 1.390 . S
C467 N470 1.391 . S
C468 H440 0.930 . S
C468 C467 1.390 . S
C468 C469 1.392 . S
C469 H441 0.929 . S
C469 C466 1.391 . S
C469 C468 1.392 . S
N470 Co414 2.257 . S
N470 C467 1.391 . S
N470 C471 1.388 . S
C471 H442 0.930 . S
C471 C466 1.391 . S
C471 N470 1.388 . S
Co472 O474 2.143 . S
Co472 O480 2.074 . S
Co472 O483 2.093 . S
Co472 O496 2.097 . S
Co472 N513 2.151 . S
Co472 N521 2.214 . S
Co473 O474 2.160 . S
Co473 O479 2.058 . S
Co473 O489 2.057 . S
Co473 O504 2.037 . S
Co473 N508 2.145 . S
Co473 N529 2.257 . S
O474 Co472 2.143 . S
O474 Co473 2.160 . S
C475 O476 1.278 . S
C475 O483 1.224 . S
O476 C475 1.278 . S
C477 O478 1.245 . S
C477 O489 1.232 . S
O478 C477 1.245 . S
O479 Co473 2.058 . S
O479 C505 1.269 . S
O480 Co472 2.074 . S
O480 C505 1.257 . S
H481 C506 0.930 . S
H482 C512 0.930 . S
O483 Co472 2.093 . S
O483 C475 1.224 . S
H484 C516 0.929 . S
H485 C518 0.930 . S
H486 C519 0.930 . S
H487 C517 0.929 . S
H488 C520 0.928 . S
O489 Co473 2.057 . S
O489 C477 1.232 . S
H490 C509 0.929 . S
H491 C510 0.929 . S
H492 C522 0.931 . S
H493 C514 0.929 . S
H494 C523 0.930 . S
H495 C515 0.931 . S
O496 Co472 2.097 . S
O496 C524 1.214 . S
H497 C525 0.929 . S
H498 C526 0.929 . S
H499 C527 0.930 . S
H500 C528 0.929 . S
H501 C530 0.930 . S
H502 C507 0.930 . S
H503 C511 0.930 . S
O504 Co473 2.037 . S
O504 C524 1.234 . S
C505 O479 1.269 . S
C505 O480 1.257 . S
C506 H481 0.930 . S
C506 C509 1.388 . S
C506 C511 1.418 . S
C507 H502 0.930 . S
C507 C510 1.404 . S
C507 C511 1.353 . S
N508 Co473 2.145 . S
N508 C509 1.397 . S
N508 C510 1.334 . S
C509 H490 0.929 . S
C509 C506 1.388 . S
C509 N508 1.397 . S
C510 H491 0.929 . S
C510 C507 1.404 . S
C510 N508 1.334 . S
C511 H503 0.930 . S
C511 C506 1.418 . S
C511 C507 1.353 . S
C512 H482 0.930 . S
C512 N513 1.330 . S
C512 C514 1.446 . S
N513 Co472 2.151 . S
N513 C512 1.330 . S
N513 C517 1.418 . S
C514 H493 0.929 . S
C514 C512 1.446 . S
C514 C515 1.332 . S
C515 H495 0.931 . S
C515 C514 1.332 . S
C515 C516 1.267 . S
C516 H484 0.929 . S
C516 C515 1.267 . S
C516 C517 1.251 . S
C517 H487 0.929 . S
C517 N513 1.418 . S
C517 C516 1.251 . S
C518 H485 0.930 . S
C518 C520 1.406 . S
C518 C523 1.261 . S
C519 H486 0.930 . S
C519 N521 1.325 . S
C519 C522 1.357 . S
C520 H488 0.928 . S
C520 C518 1.406 . S
C520 N521 1.261 . S
N521 Co472 2.214 . S
N521 C519 1.325 . S
N521 C520 1.261 . S
C522 H492 0.931 . S
C522 C519 1.357 . S
C522 C523 1.312 . S
C523 H494 0.930 . S
C523 C518 1.261 . S
C523 C522 1.312 . S
C524 O496 1.214 . S
C524 O504 1.234 . S
C525 H497 0.929 . S
C525 C528 1.391 . S
C525 C530 1.391 . S
C526 H498 0.929 . S
C526 C527 1.390 . S
C526 N529 1.391 . S
C527 H499 0.930 . S
C527 C526 1.390 . S
C527 C528 1.392 . S
C528 H500 0.929 . S
C528 C525 1.391 . S
C528 C527 1.392 . S
N529 Co473 2.257 . S
N529 C526 1.391 . S
N529 C530 1.388 . S
C530 H501 0.930 . S
C530 C525 1.391 . S
C530 N529 1.388 . S
Co531 O533 2.143 . S
Co531 O539 2.074 . S
Co531 O542 2.093 . S
Co531 O555 2.097 . S
Co531 N572 2.151 . S
Co531 N580 2.214 . S
Co532 O533 2.160 . S
Co532 O538 2.058 . S
Co532 O548 2.057 . S
Co532 O563 2.037 . S
Co532 N567 2.145 . S
Co532 N588 2.257 . S
O533 Co531 2.143 . S
O533 Co532 2.160 . S
C534 O535 1.278 . S
C534 O542 1.224 . S
O535 C534 1.278 . S
C536 O537 1.245 . S
C536 O548 1.232 . S
O537 C536 1.245 . S
O538 Co532 2.058 . S
O538 C564 1.269 . S
O539 Co531 2.074 . S
O539 C564 1.257 . S
H540 C565 0.930 . S
H541 C571 0.930 . S
O542 Co531 2.093 . S
O542 C534 1.224 . S
H543 C575 0.929 . S
H544 C577 0.930 . S
H545 C578 0.930 . S
H546 C576 0.929 . S
H547 C579 0.928 . S
O548 Co532 2.057 . S
O548 C536 1.232 . S
H549 C568 0.929 . S
H550 C569 0.929 . S
H551 C581 0.931 . S
H552 C573 0.929 . S
H553 C582 0.930 . S
H554 C574 0.931 . S
O555 Co531 2.097 . S
O555 C583 1.214 . S
H556 C584 0.929 . S
H557 C585 0.929 . S
H558 C586 0.930 . S
H559 C587 0.929 . S
H560 C589 0.930 . S
H561 C566 0.930 . S
H562 C570 0.930 . S
O563 Co532 2.037 . S
O563 C583 1.234 . S
C564 O538 1.269 . S
C564 O539 1.257 . S
C565 H540 0.930 . S
C565 C568 1.388 . S
C565 C570 1.418 . S
C566 H561 0.930 . S
C566 C569 1.404 . S
C566 C570 1.353 . S
N567 Co532 2.145 . S
N567 C568 1.397 . S
N567 C569 1.334 . S
C568 H549 0.929 . S
C568 C565 1.388 . S
C568 N567 1.397 . S
C569 H550 0.929 . S
C569 C566 1.404 . S
C569 N567 1.334 . S
C570 H562 0.930 . S
C570 C565 1.418 . S
C570 C566 1.353 . S
C571 H541 0.930 . S
C571 N572 1.330 . S
C571 C573 1.446 . S
N572 Co531 2.151 . S
N572 C571 1.330 . S
N572 C576 1.418 . S
C573 H552 0.929 . S
C573 C571 1.446 . S
C573 C574 1.332 . S
C574 H554 0.931 . S
C574 C573 1.332 . S
C574 C575 1.267 . S
C575 H543 0.929 . S
C575 C574 1.267 . S
C575 C576 1.251 . S
C576 H546 0.929 . S
C576 N572 1.418 . S
C576 C575 1.251 . S
C577 H544 0.930 . S
C577 C579 1.406 . S
C577 C582 1.261 . S
C578 H545 0.930 . S
C578 N580 1.325 . S
C578 C581 1.357 . S
C579 H547 0.928 . S
C579 C577 1.406 . S
C579 N580 1.261 . S
N580 Co531 2.214 . S
N580 C578 1.325 . S
N580 C579 1.261 . S
C581 H551 0.931 . S
C581 C578 1.357 . S
C581 C582 1.312 . S
C582 H553 0.930 . S
C582 C577 1.261 . S
C582 C581 1.312 . S
C583 O555 1.214 . S
C583 O563 1.234 . S
C584 H556 0.929 . S
C584 C587 1.391 . S
C584 C589 1.391 . S
C585 H557 0.929 . S
C585 C586 1.390 . S
C585 N588 1.391 . S
C586 H558 0.930 . S
C586 C585 1.390 . S
C586 C587 1.392 . S
C587 H559 0.929 . S
C587 C584 1.391 . S
C587 C586 1.392 . S
N588 Co532 2.257 . S
N588 C585 1.391 . S
N588 C589 1.388 . S
C589 H560 0.930 . S
C589 C584 1.391 . S
C589 N588 1.388 . S
Co590 O592 2.143 . S
Co590 O598 2.074 . S
Co590 O601 2.093 1_554 S
Co590 O614 2.097 1_554 S
Co590 N631 2.151 . S
Co590 N639 2.214 . S
Co591 O592 2.160 1_556 S
Co591 O597 2.058 1_556 S
Co591 O607 2.057 1_556 S
Co591 O622 2.037 . S
Co591 N626 2.145 . S
Co591 N647 2.257 . S
O592 Co590 2.143 . S
O592 Co591 2.160 1_554 S
C593 O594 1.278 . S
C593 O601 1.224 . S
O594 C593 1.278 . S
C595 O596 1.245 . S
C595 O607 1.232 . S
O596 C595 1.245 . S
O597 Co591 2.058 1_554 S
O597 C623 1.269 . S
O598 Co590 2.074 . S
O598 C623 1.257 . S
H599 C624 0.930 . S
H600 C630 0.930 . S
O601 Co590 2.093 1_556 S
O601 C593 1.224 . S
H602 C634 0.929 . S
H603 C636 0.930 . S
H604 C637 0.930 . S
H605 C635 0.929 . S
H606 C638 0.928 . S
O607 Co591 2.057 1_554 S
O607 C595 1.232 . S
H608 C627 0.929 . S
H609 C628 0.929 1_554 S
H610 C640 0.931 . S
H611 C632 0.929 . S
H612 C641 0.930 . S
H613 C633 0.931 . S
O614 Co590 2.097 1_556 S
O614 C642 1.214 . S
H615 C643 0.929 . S
H616 C644 0.929 . S
H617 C645 0.930 . S
H618 C646 0.929 . S
H619 C648 0.930 . S
H620 C625 0.930 1_554 S
H621 C629 0.930 . S
O622 Co591 2.037 . S
O622 C642 1.234 . S
C623 O597 1.269 . S
C623 O598 1.257 . S
C624 H599 0.930 . S
C624 C627 1.388 . S
C624 C629 1.418 . S
C625 H620 0.930 1_556 S
C625 C628 1.404 . S
C625 C629 1.353 . S
N626 Co591 2.145 . S
N626 C627 1.397 . S
N626 C628 1.334 . S
C627 H608 0.929 . S
C627 C624 1.388 . S
C627 N626 1.397 . S
C628 H609 0.929 1_556 S
C628 C625 1.404 . S
C628 N626 1.334 . S
C629 H621 0.930 . S
C629 C624 1.418 . S
C629 C625 1.353 . S
C630 H600 0.930 . S
C630 N631 1.330 . S
C630 C632 1.446 . S
N631 Co590 2.151 . S
N631 C630 1.330 . S
N631 C635 1.418 . S
C632 H611 0.929 . S
C632 C630 1.446 . S
C632 C633 1.332 . S
C633 H613 0.931 . S
C633 C632 1.332 . S
C633 C634 1.267 . S
C634 H602 0.929 . S
C634 C633 1.267 . S
C634 C635 1.251 . S
C635 H605 0.929 . S
C635 N631 1.418 . S
C635 C634 1.251 . S
C636 H603 0.930 . S
C636 C638 1.406 . S
C636 C641 1.261 . S
C637 H604 0.930 . S
C637 N639 1.325 1_556 S
C637 C640 1.357 . S
C638 H606 0.928 . S
C638 C636 1.406 . S
C638 N639 1.261 . S
N639 Co590 2.214 . S
N639 C637 1.325 1_554 S
N639 C638 1.261 . S
C640 H610 0.931 . S
C640 C637 1.357 . S
C640 C641 1.312 1_556 S
C641 H612 0.930 . S
C641 C636 1.261 . S
C641 C640 1.312 1_554 S
C642 O614 1.214 . S
C642 O622 1.234 . S
C643 H615 0.929 . S
C643 C646 1.391 . S
C643 C648 1.391 . S
C644 H616 0.929 . S
C644 C645 1.390 . S
C644 N647 1.391 . S
C645 H617 0.930 . S
C645 C644 1.390 . S
C645 C646 1.392 . S
C646 H618 0.929 . S
C646 C643 1.391 . S
C646 C645 1.392 . S
N647 Co591 2.257 . S
N647 C644 1.391 . S
N647 C648 1.388 . S
C648 H619 0.930 . S
C648 C643 1.391 . S
C648 N647 1.388 . S
Co649 O651 2.143 . S
Co649 O657 2.074 . S
Co649 O660 2.093 . S
Co649 O673 2.097 . S
Co649 N690 2.151 . S
Co649 N698 2.214 . S
Co650 O651 2.160 . S
Co650 O656 2.058 . S
Co650 O666 2.057 . S
Co650 O681 2.037 . S
Co650 N685 2.145 . S
Co650 N706 2.257 . S
O651 Co649 2.143 . S
O651 Co650 2.160 . S
C652 O653 1.278 . S
C652 O660 1.224 . S
O653 C652 1.278 . S
C654 O655 1.245 . S
C654 O666 1.232 . S
O655 C654 1.245 . S
O656 Co650 2.058 . S
O656 C682 1.269 . S
O657 Co649 2.074 . S
O657 C682 1.257 . S
H658 C683 0.930 . S
H659 C689 0.930 . S
O660 Co649 2.093 . S
O660 C652 1.224 . S
H661 C693 0.929 . S
H662 C695 0.930 . S
H663 C696 0.930 . S
H664 C694 0.929 . S
H665 C697 0.928 . S
O666 Co650 2.057 . S
O666 C654 1.232 . S
H667 C686 0.929 . S
H668 C687 0.929 . S
H669 C699 0.931 . S
H670 C691 0.929 . S
H671 C700 0.930 . S
H672 C692 0.931 . S
O673 Co649 2.097 . S
O673 C701 1.214 . S
H674 C702 0.929 . S
H675 C703 0.929 . S
H676 C704 0.930 . S
H677 C705 0.929 . S
H678 C707 0.930 . S
H679 C684 0.930 . S
H680 C688 0.930 . S
O681 Co650 2.037 . S
O681 C701 1.234 . S
C682 O656 1.269 . S
C682 O657 1.257 . S
C683 H658 0.930 . S
C683 C686 1.388 . S
C683 C688 1.418 . S
C684 H679 0.930 . S
C684 C687 1.404 . S
C684 C688 1.353 . S
N685 Co650 2.145 . S
N685 C686 1.397 . S
N685 C687 1.334 . S
C686 H667 0.929 . S
C686 C683 1.388 . S
C686 N685 1.397 . S
C687 H668 0.929 . S
C687 C684 1.404 . S
C687 N685 1.334 . S
C688 H680 0.930 . S
C688 C683 1.418 . S
C688 C684 1.353 . S
C689 H659 0.930 . S
C689 N690 1.330 . S
C689 C691 1.446 . S
N690 Co649 2.151 . S
N690 C689 1.330 . S
N690 C694 1.418 . S
C691 H670 0.929 . S
C691 C689 1.446 . S
C691 C692 1.332 . S
C692 H672 0.931 . S
C692 C691 1.332 . S
C692 C693 1.267 . S
C693 H661 0.929 . S
C693 C692 1.267 . S
C693 C694 1.251 . S
C694 H664 0.929 . S
C694 N690 1.418 . S
C694 C693 1.251 . S
C695 H662 0.930 . S
C695 C697 1.406 . S
C695 C700 1.261 . S
C696 H663 0.930 . S
C696 N698 1.325 . S
C696 C699 1.357 . S
C697 H665 0.928 . S
C697 C695 1.406 . S
C697 N698 1.261 . S
N698 Co649 2.214 . S
N698 C696 1.325 . S
N698 C697 1.261 . S
C699 H669 0.931 . S
C699 C696 1.357 . S
C699 C700 1.312 . S
C700 H671 0.930 . S
C700 C695 1.261 . S
C700 C699 1.312 . S
C701 O673 1.214 . S
C701 O681 1.234 . S
C702 H674 0.929 . S
C702 C705 1.391 . S
C702 C707 1.391 . S
C703 H675 0.929 . S
C703 C704 1.390 . S
C703 N706 1.391 . S
C704 H676 0.930 . S
C704 C703 1.390 . S
C704 C705 1.392 . S
C705 H677 0.929 . S
C705 C702 1.391 . S
C705 C704 1.392 . S
N706 Co650 2.257 . S
N706 C703 1.391 . S
N706 C707 1.388 . S
C707 H678 0.930 . S
C707 C702 1.391 . S
C707 N706 1.388 . S
Co708 O710 2.143 . S
Co708 O716 2.074 . S
Co708 O719 2.093 . S
Co708 O732 2.097 . S
Co708 N749 2.151 . S
Co708 N757 2.214 . S
Co709 O710 2.160 . S
Co709 O715 2.058 . S
Co709 O725 2.057 . S
Co709 O740 2.037 . S
Co709 N744 2.145 . S
Co709 N765 2.257 . S
O710 Co708 2.143 . S
O710 Co709 2.160 . S
C711 O712 1.278 . S
C711 O719 1.224 . S
O712 C711 1.278 . S
C713 O714 1.245 . S
C713 O725 1.232 . S
O714 C713 1.245 . S
O715 Co709 2.058 . S
O715 C741 1.269 . S
O716 Co708 2.074 . S
O716 C741 1.257 . S
H717 C742 0.930 . S
H718 C748 0.930 . S
O719 Co708 2.093 . S
O719 C711 1.224 . S
H720 C752 0.929 . S
H721 C754 0.930 . S
H722 C755 0.930 . S
H723 C753 0.929 . S
H724 C756 0.928 . S
O725 Co709 2.057 . S
O725 C713 1.232 . S
H726 C745 0.929 . S
H727 C746 0.929 . S
H728 C758 0.931 . S
H729 C750 0.929 . S
H730 C759 0.930 . S
H731 C751 0.931 . S
O732 Co708 2.097 . S
O732 C760 1.214 . S
H733 C761 0.929 . S
H734 C762 0.929 . S
H735 C763 0.930 . S
H736 C764 0.929 . S
H737 C766 0.930 . S
H738 C743 0.930 . S
H739 C747 0.930 . S
O740 Co709 2.037 . S
O740 C760 1.234 . S
C741 O715 1.269 . S
C741 O716 1.257 . S
C742 H717 0.930 . S
C742 C745 1.388 . S
C742 C747 1.418 . S
C743 H738 0.930 . S
C743 C746 1.404 . S
C743 C747 1.353 . S
N744 Co709 2.145 . S
N744 C745 1.397 . S
N744 C746 1.334 . S
C745 H726 0.929 . S
C745 C742 1.388 . S
C745 N744 1.397 . S
C746 H727 0.929 . S
C746 C743 1.404 . S
C746 N744 1.334 . S
C747 H739 0.930 . S
C747 C742 1.418 . S
C747 C743 1.353 . S
C748 H718 0.930 . S
C748 N749 1.330 . S
C748 C750 1.446 . S
N749 Co708 2.151 . S
N749 C748 1.330 . S
N749 C753 1.418 . S
C750 H729 0.929 . S
C750 C748 1.446 . S
C750 C751 1.332 . S
C751 H731 0.931 . S
C751 C750 1.332 . S
C751 C752 1.267 . S
C752 H720 0.929 . S
C752 C751 1.267 . S
C752 C753 1.251 . S
C753 H723 0.929 . S
C753 N749 1.418 . S
C753 C752 1.251 . S
C754 H721 0.930 . S
C754 C756 1.406 . S
C754 C759 1.261 . S
C755 H722 0.930 . S
C755 N757 1.325 . S
C755 C758 1.357 . S
C756 H724 0.928 . S
C756 C754 1.406 . S
C756 N757 1.261 . S
N757 Co708 2.214 . S
N757 C755 1.325 . S
N757 C756 1.261 . S
C758 H728 0.931 . S
C758 C755 1.357 . S
C758 C759 1.312 . S
C759 H730 0.930 . S
C759 C754 1.261 . S
C759 C758 1.312 . S
C760 O732 1.214 . S
C760 O740 1.234 . S
C761 H733 0.929 . S
C761 C764 1.391 . S
C761 C766 1.391 . S
C762 H734 0.929 . S
C762 C763 1.390 . S
C762 N765 1.391 . S
C763 H735 0.930 . S
C763 C762 1.390 . S
C763 C764 1.392 . S
C764 H736 0.929 . S
C764 C761 1.391 . S
C764 C763 1.392 . S
N765 Co709 2.257 . S
N765 C762 1.391 . S
N765 C766 1.388 . S
C766 H737 0.930 . S
C766 C761 1.391 . S
C766 N765 1.388 . S
Co767 O769 2.143 . S
Co767 O775 2.074 . S
Co767 O778 2.093 . S
Co767 O791 2.097 . S
Co767 N808 2.151 . S
Co767 N816 2.214 . S
Co768 O769 2.160 . S
Co768 O774 2.058 . S
Co768 O784 2.057 . S
Co768 O799 2.037 . S
Co768 N803 2.145 . S
Co768 N824 2.257 . S
O769 Co767 2.143 . S
O769 Co768 2.160 . S
C770 O771 1.278 . S
C770 O778 1.224 . S
O771 C770 1.278 . S
C772 O773 1.245 . S
C772 O784 1.232 . S
O773 C772 1.245 . S
O774 Co768 2.058 . S
O774 C800 1.269 . S
O775 Co767 2.074 . S
O775 C800 1.257 . S
H776 C801 0.930 . S
H777 C807 0.930 . S
O778 Co767 2.093 . S
O778 C770 1.224 . S
H779 C811 0.929 . S
H780 C813 0.930 . S
H781 C814 0.930 . S
H782 C812 0.929 . S
H783 C815 0.928 . S
O784 Co768 2.057 . S
O784 C772 1.232 . S
H785 C804 0.929 . S
H786 C805 0.929 . S
H787 C817 0.931 . S
H788 C809 0.929 . S
H789 C818 0.930 . S
H790 C810 0.931 . S
O791 Co767 2.097 . S
O791 C819 1.214 . S
H792 C820 0.929 . S
H793 C821 0.929 . S
H794 C822 0.930 . S
H795 C823 0.929 . S
H796 C825 0.930 . S
H797 C802 0.930 . S
H798 C806 0.930 . S
O799 Co768 2.037 . S
O799 C819 1.234 . S
C800 O774 1.269 . S
C800 O775 1.257 . S
C801 H776 0.930 . S
C801 C804 1.388 . S
C801 C806 1.418 . S
C802 H797 0.930 . S
C802 C805 1.404 . S
C802 C806 1.353 . S
N803 Co768 2.145 . S
N803 C804 1.397 . S
N803 C805 1.334 . S
C804 H785 0.929 . S
C804 C801 1.388 . S
C804 N803 1.397 . S
C805 H786 0.929 . S
C805 C802 1.404 . S
C805 N803 1.334 . S
C806 H798 0.930 . S
C806 C801 1.418 . S
C806 C802 1.353 . S
C807 H777 0.930 . S
C807 N808 1.330 . S
C807 C809 1.446 . S
N808 Co767 2.151 . S
N808 C807 1.330 . S
N808 C812 1.418 . S
C809 H788 0.929 . S
C809 C807 1.446 . S
C809 C810 1.332 . S
C810 H790 0.931 . S
C810 C809 1.332 . S
C810 C811 1.267 . S
C811 H779 0.929 . S
C811 C810 1.267 . S
C811 C812 1.251 . S
C812 H782 0.929 . S
C812 N808 1.418 . S
C812 C811 1.251 . S
C813 H780 0.930 . S
C813 C815 1.406 . S
C813 C818 1.261 . S
C814 H781 0.930 . S
C814 N816 1.325 . S
C814 C817 1.357 . S
C815 H783 0.928 . S
C815 C813 1.406 . S
C815 N816 1.261 . S
N816 Co767 2.214 . S
N816 C814 1.325 . S
N816 C815 1.261 . S
C817 H787 0.931 . S
C817 C814 1.357 . S
C817 C818 1.312 . S
C818 H789 0.930 . S
C818 C813 1.261 . S
C818 C817 1.312 . S
C819 O791 1.214 . S
C819 O799 1.234 . S
C820 H792 0.929 . S
C820 C823 1.391 . S
C820 C825 1.391 . S
C821 H793 0.929 . S
C821 C822 1.390 . S
C821 N824 1.391 . S
C822 H794 0.930 . S
C822 C821 1.390 . S
C822 C823 1.392 . S
C823 H795 0.929 . S
C823 C820 1.391 . S
C823 C822 1.392 . S
N824 Co768 2.257 . S
N824 C821 1.391 . S
N824 C825 1.388 . S
C825 H796 0.930 . S
C825 C820 1.391 . S
C825 N824 1.388 . S
Co826 O828 2.143 . S
Co826 O834 2.074 . S
Co826 O837 2.093 1_556 S
Co826 O850 2.097 1_556 S
Co826 N867 2.151 . S
Co826 N875 2.214 . S
Co827 O828 2.160 1_554 S
Co827 O833 2.058 1_554 S
Co827 O843 2.057 1_554 S
Co827 O858 2.037 . S
Co827 N862 2.145 . S
Co827 N883 2.257 . S
O828 Co826 2.143 . S
O828 Co827 2.160 1_556 S
C829 O830 1.278 . S
C829 O837 1.224 . S
O830 C829 1.278 . S
C831 O832 1.245 . S
C831 O843 1.232 . S
O832 C831 1.245 . S
O833 Co827 2.058 1_556 S
O833 C859 1.269 . S
O834 Co826 2.074 . S
O834 C859 1.257 . S
H835 C860 0.930 . S
H836 C866 0.930 . S
O837 Co826 2.093 1_554 S
O837 C829 1.224 . S
H838 C870 0.929 . S
H839 C872 0.930 . S
H840 C873 0.930 . S
H841 C871 0.929 . S
H842 C874 0.928 . S
O843 Co827 2.057 1_556 S
O843 C831 1.232 . S
H844 C863 0.929 . S
H845 C864 0.929 1_556 S
H846 C876 0.931 . S
H847 C868 0.929 . S
H848 C877 0.930 . S
H849 C869 0.931 . S
O850 Co826 2.097 1_554 S
O850 C878 1.214 . S
H851 C879 0.929 . S
H852 C880 0.929 . S
H853 C881 0.930 . S
H854 C882 0.929 . S
H855 C884 0.930 . S
H856 C861 0.931 . S
H857 C865 0.930 . S
O858 Co827 2.037 . S
O858 C878 1.234 . S
C859 O833 1.269 . S
C859 O834 1.257 . S
C860 H835 0.930 . S
C860 C863 1.388 . S
C860 C865 1.418 . S
C861 H856 0.931 . S
C861 C864 1.404 . S
C861 C865 1.353 . S
N862 Co827 2.145 . S
N862 C863 1.397 . S
N862 C864 1.334 . S
C863 H844 0.929 . S
C863 C860 1.388 . S
C863 N862 1.397 . S
C864 H845 0.929 1_554 S
C864 C861 1.404 . S
C864 N862 1.334 . S
C865 H857 0.930 . S
C865 C860 1.418 . S
C865 C861 1.353 . S
C866 H836 0.930 . S
C866 N867 1.330 . S
C866 C868 1.446 . S
N867 Co826 2.151 . S
N867 C866 1.330 . S
N867 C871 1.418 . S
C868 H847 0.929 . S
C868 C866 1.446 . S
C868 C869 1.332 . S
C869 H849 0.931 . S
C869 C868 1.332 . S
C869 C870 1.267 . S
C870 H838 0.929 . S
C870 C869 1.267 . S
C870 C871 1.251 . S
C871 H841 0.929 . S
C871 N867 1.418 . S
C871 C870 1.251 . S
C872 H839 0.930 . S
C872 C874 1.406 . S
C872 C877 1.264 . S
C873 H840 0.930 . S
C873 N875 1.325 1_554 S
C873 C876 1.357 . S
C874 H842 0.928 . S
C874 C872 1.406 . S
C874 N875 1.262 . S
N875 Co826 2.214 . S
N875 C873 1.325 1_556 S
N875 C874 1.262 . S
C876 H846 0.931 . S
C876 C873 1.357 . S
C876 C877 1.310 1_554 S
C877 H848 0.930 . S
C877 C872 1.264 . S
C877 C876 1.310 1_556 S
C878 O850 1.214 . S
C878 O858 1.234 . S
C879 H851 0.929 . S
C879 C882 1.391 . S
C879 C884 1.391 . S
C880 H852 0.929 . S
C880 C881 1.390 . S
C880 N883 1.391 . S
C881 H853 0.930 . S
C881 C880 1.390 . S
C881 C882 1.392 . S
C882 H854 0.929 . S
C882 C879 1.391 . S
C882 C881 1.392 . S
N883 Co827 2.257 . S
N883 C880 1.391 . S
N883 C884 1.388 . S
C884 H855 0.930 . S
C884 C879 1.391 . S
C884 N883 1.388 . S
Co885 O887 2.143 . S
Co885 O893 2.074 . S
Co885 O896 2.093 . S
Co885 O909 2.097 . S
Co885 N926 2.151 . S
Co885 N934 2.214 . S
Co886 O887 2.160 . S
Co886 O892 2.058 . S
Co886 O902 2.057 . S
Co886 O917 2.037 . S
Co886 N921 2.145 . S
Co886 N942 2.257 . S
O887 Co885 2.143 . S
O887 Co886 2.160 . S
C888 O889 1.278 . S
C888 O896 1.224 . S
O889 C888 1.278 . S
C890 O891 1.245 . S
C890 O902 1.232 . S
O891 C890 1.245 . S
O892 Co886 2.058 . S
O892 C918 1.269 . S
O893 Co885 2.074 . S
O893 C918 1.257 . S
H894 C919 0.930 . S
H895 C925 0.930 . S
O896 Co885 2.093 . S
O896 C888 1.224 . S
H897 C929 0.929 . S
H898 C931 0.930 . S
H899 C932 0.930 . S
H900 C930 0.929 . S
H901 C933 0.928 . S
O902 Co886 2.057 . S
O902 C890 1.232 . S
H903 C922 0.929 . S
H904 C923 0.929 . S
H905 C935 0.931 . S
H906 C927 0.929 . S
H907 C936 0.930 . S
H908 C928 0.931 . S
O909 Co885 2.097 . S
O909 C937 1.214 . S
H910 C938 0.929 . S
H911 C939 0.929 . S
H912 C940 0.930 . S
H913 C941 0.929 . S
H914 C943 0.930 . S
H915 C920 0.930 . S
H916 C924 0.930 . S
O917 Co886 2.037 . S
O917 C937 1.234 . S
C918 O892 1.269 . S
C918 O893 1.257 . S
C919 H894 0.930 . S
C919 C922 1.388 . S
C919 C924 1.418 . S
C920 H915 0.930 . S
C920 C923 1.404 . S
C920 C924 1.353 . S
N921 Co886 2.145 . S
N921 C922 1.397 . S
N921 C923 1.334 . S
C922 H903 0.929 . S
C922 C919 1.388 . S
C922 N921 1.397 . S
C923 H904 0.929 . S
C923 C920 1.404 . S
C923 N921 1.334 . S
C924 H916 0.930 . S
C924 C919 1.418 . S
C924 C920 1.353 . S
C925 H895 0.930 . S
C925 N926 1.330 . S
C925 C927 1.446 . S
N926 Co885 2.151 . S
N926 C925 1.330 . S
N926 C930 1.418 . S
C927 H906 0.929 . S
C927 C925 1.446 . S
C927 C928 1.332 . S
C928 H908 0.931 . S
C928 C927 1.332 . S
C928 C929 1.267 . S
C929 H897 0.929 . S
C929 C928 1.267 . S
C929 C930 1.251 . S
C930 H900 0.929 . S
C930 N926 1.418 . S
C930 C929 1.251 . S
C931 H898 0.930 . S
C931 C933 1.406 . S
C931 C936 1.261 . S
C932 H899 0.930 . S
C932 N934 1.325 . S
C932 C935 1.357 . S
C933 H901 0.928 . S
C933 C931 1.406 . S
C933 N934 1.261 . S
N934 Co885 2.214 . S
N934 C932 1.325 . S
N934 C933 1.261 . S
C935 H905 0.931 . S
C935 C932 1.357 . S
C935 C936 1.312 . S
C936 H907 0.930 . S
C936 C931 1.261 . S
C936 C935 1.312 . S
C937 O909 1.214 . S
C937 O917 1.234 . S
C938 H910 0.929 . S
C938 C941 1.391 . S
C938 C943 1.391 . S
C939 H911 0.929 . S
C939 C940 1.390 . S
C939 N942 1.391 . S
C940 H912 0.930 . S
C940 C939 1.390 . S
C940 C941 1.392 . S
C941 H913 0.929 . S
C941 C938 1.391 . S
C941 C940 1.392 . S
N942 Co886 2.257 . S
N942 C939 1.391 . S
N942 C943 1.388 . S
C943 H914 0.930 . S
C943 C938 1.391 . S
C943 N942 1.388 . S
C944 C945 1.349 . S
C944 C946 1.327 . S
C944 H969 0.950 . S
C945 C944 1.349 . S
C945 C961 1.349 . S
C946 C944 1.327 . S
C946 C965 1.429 . S
C946 H970 0.950 . S
C947 C964 1.574 . S
C947 C966 1.368 . S
C947 H971 0.949 . S
H948 C952 0.949 . S
C949 C950 1.349 . S
C949 C951 1.327 . S
C949 H972 0.950 . S
C950 C949 1.349 . S
C950 C962 1.349 . S
C951 C949 1.327 . S
C951 C967 1.429 . S
C951 H973 0.950 . S
C952 H948 0.949 . S
C952 C960 1.574 . S
C952 C968 1.368 . S
H953 C961 0.950 . S
H954 C959 0.950 . S
H955 C960 0.949 . S
H956 C962 0.950 . S
H957 C963 0.950 . S
H958 C964 0.949 . S
C959 H954 0.950 . S
C959 C961 1.327 . S
C959 C965 1.429 . S
C960 C952 1.574 . S
C960 H955 0.949 . S
C960 C966 1.368 . S
C961 C945 1.349 . S
C961 H953 0.950 . S
C961 C959 1.327 . S
C962 C950 1.349 . S
C962 H956 0.950 . S
C962 C963 1.327 . S
C963 H957 0.950 . S
C963 C962 1.327 . S
C963 C967 1.429 . S
C964 C947 1.574 . S
C964 H958 0.949 . S
C964 C968 1.368 . S
C965 C946 1.429 . S
C965 C959 1.429 . S
C965 C966 1.523 . S
C966 C947 1.368 . S
C966 C960 1.368 . S
C966 C965 1.523 . S
C967 C951 1.429 . S
C967 C963 1.429 . S
C967 C968 1.523 . S
C968 C952 1.368 . S
C968 C964 1.368 . S
C968 C967 1.523 . S
H969 C944 0.950 . S
H970 C946 0.950 . S
H971 C947 0.949 . S
H972 C949 0.950 . S
H973 C951 0.950 . S
C974 C975 1.400 . S
C974 C976 1.327 . S
C974 H999 0.950 . S
C975 C974 1.400 . S
C975 C991 1.297 1_565 S
C976 C974 1.327 . S
C976 C995 1.433 1_565 S
C976 H1000 0.950 . S
C977 C994 1.573 . S
C977 C996 1.399 . S
C977 H1001 0.949 . S
H978 C982 0.949 . S
C979 C980 1.349 . S
C979 C981 1.327 . S
C979 H1002 0.950 . S
C980 C979 1.349 . S
C980 C992 1.349 1_545 S
C981 C979 1.327 . S
C981 C997 1.429 . S
C981 H1003 0.950 . S
C982 H978 0.949 . S
C982 C990 1.573 . S
C982 C998 1.368 1_565 S
H983 C991 0.950 . S
H984 C989 0.950 . S
H985 C990 0.949 1_655 S
H986 C992 0.950 . S
H987 C993 0.950 . S
H988 C994 0.949 1_455 S
C989 H984 0.950 . S
C989 C991 1.327 . S
C989 C995 1.425 . S
C990 C982 1.573 . S
C990 H985 0.949 1_455 S
C990 C996 1.339 1_465 S
C991 C975 1.297 1_545 S
C991 H983 0.950 . S
C991 C989 1.327 . S
C992 C980 1.349 1_565 S
C992 H986 0.950 . S
C992 C993 1.327 . S
C993 H987 0.950 . S
C993 C992 1.327 . S
C993 C997 1.429 1_565 S
C994 C977 1.573 . S
C994 H988 0.949 1_655 S
C994 C998 1.369 1_655 S
C995 C976 1.433 1_545 S
C995 C989 1.425 . S
C995 C996 1.522 . S
C996 C977 1.399 . S
C996 C990 1.339 1_645 S
C996 C995 1.522 . S
C997 C981 1.429 . S
C997 C993 1.429 1_545 S
C997 C998 1.523 . S
C998 C982 1.368 1_545 S
C998 C994 1.369 1_455 S
C998 C997 1.523 . S
H999 C974 0.950 . S
H1000 C976 0.950 . S
H1001 C977 0.949 . S
H1002 C979 0.950 . S
H1003 C981 0.950 . S
C1004 C1005 1.349 . S
C1004 C1006 1.327 . S
C1004 H1029 0.950 . S
C1005 C1004 1.349 . S
C1005 C1021 1.349 . S
C1006 C1004 1.327 . S
C1006 C1025 1.429 . S
C1006 H1030 0.950 . S
C1007 C1024 1.574 . S
C1007 C1026 1.368 . S
C1007 H1031 0.949 . S
H1008 C1012 0.949 . S
C1009 C1010 1.349 . S
C1009 C1011 1.327 . S
C1009 H1032 0.950 . S
C1010 C1009 1.349 . S
C1010 C1022 1.349 . S
C1011 C1009 1.327 . S
C1011 C1027 1.429 . S
C1011 H1033 0.950 . S
C1012 H1008 0.949 . S
C1012 C1020 1.574 . S
C1012 C1028 1.368 . S
H1013 C1021 0.950 . S
H1014 C1019 0.950 . S
H1015 C1020 0.949 . S
H1016 C1022 0.950 . S
H1017 C1023 0.950 . S
H1018 C1024 0.949 . S
C1019 H1014 0.950 . S
C1019 C1021 1.327 . S
C1019 C1025 1.429 . S
C1020 C1012 1.574 . S
C1020 H1015 0.949 . S
C1020 C1026 1.368 . S
C1021 C1005 1.349 . S
C1021 H1013 0.950 . S
C1021 C1019 1.327 . S
C1022 C1010 1.349 . S
C1022 H1016 0.950 . S
C1022 C1023 1.327 . S
C1023 H1017 0.950 . S
C1023 C1022 1.327 . S
C1023 C1027 1.429 . S
C1024 C1007 1.574 . S
C1024 H1018 0.949 . S
C1024 C1028 1.368 . S
C1025 C1006 1.429 . S
C1025 C1019 1.429 . S
C1025 C1026 1.523 . S
C1026 C1007 1.368 . S
C1026 C1020 1.368 . S
C1026 C1025 1.523 . S
C1027 C1011 1.429 . S
C1027 C1023 1.429 . S
C1027 C1028 1.523 . S
C1028 C1012 1.368 . S
C1028 C1024 1.368 . S
C1028 C1027 1.523 . S
H1029 C1004 0.950 . S
H1030 C1006 0.950 . S
H1031 C1007 0.949 . S
H1032 C1009 0.950 . S
H1033 C1011 0.950 . S
C1034 C1035 1.399 . S
C1034 C1036 1.327 . S
C1034 H1059 0.950 . S
C1035 C1034 1.399 . S
C1035 C1051 1.298 1_565 S
C1036 C1034 1.327 . S
C1036 C1055 1.432 1_565 S
C1036 H1060 0.950 . S
C1037 C1054 1.559 1_554 S
C1037 C1056 1.399 . S
C1037 H1061 0.949 . S
H1038 C1042 0.949 . S
C1039 C1040 1.349 . S
C1039 C1041 1.327 . S
C1039 H1062 0.950 . S
C1040 C1039 1.349 . S
C1040 C1052 1.349 1_545 S
C1041 C1039 1.327 . S
C1041 C1057 1.429 . S
C1041 H1063 0.950 . S
C1042 H1038 0.949 . S
C1042 C1050 1.574 1_556 S
C1042 C1058 1.368 1_565 S
H1043 C1051 0.950 . S
H1044 C1049 0.950 . S
H1045 C1050 0.949 . S
H1046 C1052 0.950 . S
H1047 C1053 0.950 . S
H1048 C1054 0.950 . S
C1049 H1044 0.950 . S
C1049 C1051 1.327 . S
C1049 C1055 1.425 . S
C1050 C1042 1.574 1_554 S
C1050 H1045 0.949 . S
C1050 C1056 1.339 1_565 S
C1051 C1035 1.298 1_545 S
C1051 H1043 0.950 . S
C1051 C1049 1.327 . S
C1052 C1040 1.349 1_565 S
C1052 H1046 0.950 . S
C1052 C1053 1.327 . S
C1053 H1047 0.950 . S
C1053 C1052 1.327 . S
C1053 C1057 1.429 1_565 S
C1054 C1037 1.559 1_556 S
C1054 H1048 0.950 . S
C1054 C1058 1.382 . S
C1055 C1036 1.432 1_545 S
C1055 C1049 1.425 . S
C1055 C1056 1.522 . S
C1056 C1037 1.399 . S
C1056 C1050 1.339 1_545 S
C1056 C1055 1.522 . S
C1057 C1041 1.429 . S
C1057 C1053 1.429 1_545 S
C1057 C1058 1.523 . S
C1058 C1042 1.368 1_545 S
C1058 C1054 1.382 . S
C1058 C1057 1.523 . S
H1059 C1034 0.950 . S
H1060 C1036 0.950 . S
H1061 C1037 0.949 . S
H1062 C1039 0.950 . S
H1063 C1041 0.950 . S
C1064 C1065 1.349 . S
C1064 C1066 1.327 . S
C1064 H1089 0.950 . S
C1065 C1064 1.349 . S
C1065 C1081 1.349 . S
C1066 C1064 1.327 . S
C1066 C1085 1.429 . S
C1066 H1090 0.950 . S
C1067 C1084 1.574 . S
C1067 C1086 1.368 . S
C1067 H1091 0.949 . S
H1068 C1072 0.949 . S
C1069 C1070 1.349 . S
C1069 C1071 1.327 . S
C1069 H1092 0.950 . S
C1070 C1069 1.349 . S
C1070 C1082 1.349 . S
C1071 C1069 1.327 . S
C1071 C1087 1.429 . S
C1071 H1093 0.950 . S
C1072 H1068 0.949 . S
C1072 C1080 1.574 . S
C1072 C1088 1.368 . S
H1073 C1081 0.950 . S
H1074 C1079 0.950 . S
H1075 C1080 0.949 . S
H1076 C1082 0.950 . S
H1077 C1083 0.950 . S
H1078 C1084 0.949 . S
C1079 H1074 0.950 . S
C1079 C1081 1.327 . S
C1079 C1085 1.429 . S
C1080 C1072 1.574 . S
C1080 H1075 0.949 . S
C1080 C1086 1.368 . S
C1081 C1065 1.349 . S
C1081 H1073 0.950 . S
C1081 C1079 1.327 . S
C1082 C1070 1.349 . S
C1082 H1076 0.950 . S
C1082 C1083 1.327 . S
C1083 H1077 0.950 . S
C1083 C1082 1.327 . S
C1083 C1087 1.429 . S
C1084 C1067 1.574 . S
C1084 H1078 0.949 . S
C1084 C1088 1.368 . S
C1085 C1066 1.429 . S
C1085 C1079 1.429 . S
C1085 C1086 1.523 . S
C1086 C1067 1.368 . S
C1086 C1080 1.368 . S
C1086 C1085 1.523 . S
C1087 C1071 1.429 . S
C1087 C1083 1.429 . S
C1087 C1088 1.523 . S
C1088 C1072 1.368 . S
C1088 C1084 1.368 . S
C1088 C1087 1.523 . S
H1089 C1064 0.950 . S
H1090 C1066 0.950 . S
H1091 C1067 0.949 . S
H1092 C1069 0.950 . S
H1093 C1071 0.950 . S
C1094 C1095 1.349 1_565 S
C1094 C1096 1.327 . S
C1094 H1119 0.950 . S
C1095 C1094 1.349 1_545 S
C1095 C1111 1.349 . S
C1096 C1094 1.327 . S
C1096 C1115 1.429 1_565 S
C1096 H1120 0.950 . S
C1097 C1114 1.574 . S
C1097 C1116 1.368 . S
C1097 H1121 0.949 . S
H1098 C1102 0.949 . S
C1099 C1100 1.349 1_545 S
C1099 C1101 1.327 . S
C1099 H1122 0.950 . S
C1100 C1099 1.349 1_565 S
C1100 C1112 1.349 . S
C1101 C1099 1.327 . S
C1101 C1117 1.433 1_545 S
C1101 H1123 0.950 . S
C1102 H1098 0.949 . S
C1102 C1110 1.574 . S
C1102 C1118 1.341 1_565 S
H1103 C1111 0.950 . S
H1104 C1109 0.950 . S
H1105 C1110 0.949 . S
H1106 C1112 0.950 . S
H1107 C1113 0.950 . S
H1108 C1114 0.949 . S
C1109 H1104 0.950 . S
C1109 C1111 1.327 . S
C1109 C1115 1.429 . S
C1110 C1102 1.574 . S
C1110 H1105 0.949 . S
C1110 C1116 1.368 1_565 S
C1111 C1095 1.349 . S
C1111 H1103 0.950 . S
C1111 C1109 1.327 . S
C1112 C1100 1.349 . S
C1112 H1106 0.950 . S
C1112 C1113 1.327 . S
C1113 H1107 0.950 . S
C1113 C1112 1.327 . S
C1113 C1117 1.424 . S
C1114 C1097 1.574 . S
C1114 H1108 0.949 . S
C1114 C1118 1.397 . S
C1115 C1096 1.429 1_545 S
C1115 C1109 1.429 . S
C1115 C1116 1.523 . S
C1116 C1097 1.368 . S
C1116 C1110 1.368 1_545 S
C1116 C1115 1.523 . S
C1117 C1101 1.433 1_565 S
C1117 C1113 1.424 . S
C1117 C1118 1.522 1_565 S
C1118 C1102 1.341 1_545 S
C1118 C1114 1.397 . S
C1118 C1117 1.522 1_545 S
H1119 C1094 0.950 . S
H1120 C1096 0.950 . S
H1121 C1097 0.949 . S
H1122 C1099 0.950 . S
H1123 C1101 0.950 . S
C1124 C1125 1.349 . S
C1124 C1126 1.327 . S
C1124 H1149 0.950 . S
C1125 C1124 1.349 . S
C1125 C1141 1.349 . S
C1126 C1124 1.327 . S
C1126 C1145 1.429 . S
C1126 H1150 0.950 . S
C1127 C1144 1.574 . S
C1127 C1146 1.368 . S
C1127 H1151 0.949 . S
H1128 C1132 0.949 . S
C1129 C1130 1.349 . S
C1129 C1131 1.327 . S
C1129 H1152 0.950 . S
C1130 C1129 1.349 . S
C1130 C1142 1.349 . S
C1131 C1129 1.327 . S
C1131 C1147 1.429 . S
C1131 H1153 0.950 . S
C1132 H1128 0.949 . S
C1132 C1140 1.574 . S
C1132 C1148 1.368 . S
H1133 C1141 0.950 . S
H1134 C1139 0.950 . S
H1135 C1140 0.949 . S
H1136 C1142 0.950 . S
H1137 C1143 0.950 . S
H1138 C1144 0.949 . S
C1139 H1134 0.950 . S
C1139 C1141 1.327 . S
C1139 C1145 1.429 . S
C1140 C1132 1.574 . S
C1140 H1135 0.949 . S
C1140 C1146 1.368 . S
C1141 C1125 1.349 . S
C1141 H1133 0.950 . S
C1141 C1139 1.327 . S
C1142 C1130 1.349 . S
C1142 H1136 0.950 . S
C1142 C1143 1.327 . S
C1143 H1137 0.950 . S
C1143 C1142 1.327 . S
C1143 C1147 1.429 . S
C1144 C1127 1.574 . S
C1144 H1138 0.949 . S
C1144 C1148 1.368 . S
C1145 C1126 1.429 . S
C1145 C1139 1.429 . S
C1145 C1146 1.523 . S
C1146 C1127 1.368 . S
C1146 C1140 1.368 . S
C1146 C1145 1.523 . S
C1147 C1131 1.429 . S
C1147 C1143 1.429 . S
C1147 C1148 1.523 . S
C1148 C1132 1.368 . S
C1148 C1144 1.368 . S
C1148 C1147 1.523 . S
H1149 C1124 0.950 . S
H1150 C1126 0.950 . S
H1151 C1127 0.949 . S
H1152 C1129 0.950 . S
H1153 C1131 0.950 . S
C1154 C1155 1.349 . S
C1154 C1156 1.327 . S
C1154 H1179 0.950 . S
C1155 C1154 1.349 . S
C1155 C1171 1.349 1_565 S
C1156 C1154 1.327 . S
C1156 C1175 1.424 . S
C1156 H1180 0.950 . S
C1157 C1174 1.541 1_456 S
C1157 C1176 1.428 . S
C1157 H1181 0.953 . S
H1158 C1162 0.953 . S
C1159 C1160 1.349 . S
C1159 C1161 1.327 . S
C1159 H1182 0.950 . S
C1160 C1159 1.349 . S
C1160 C1172 1.349 1_545 S
C1161 C1159 1.327 . S
C1161 C1177 1.429 . S
C1161 H1183 0.950 . S
C1162 H1158 0.953 . S
C1162 C1170 1.542 1_654 S
C1162 C1178 1.398 1_565 S
H1163 C1171 0.950 . S
H1164 C1169 0.950 . S
H1165 C1170 0.949 . S
H1166 C1172 0.950 . S
H1167 C1173 0.950 . S
H1168 C1174 0.949 . S
C1169 H1164 0.950 . S
C1169 C1171 1.327 . S
C1169 C1175 1.433 1_545 S
C1170 C1162 1.542 1_456 S
C1170 H1165 0.949 . S
C1170 C1176 1.340 1_565 S
C1171 C1155 1.349 1_545 S
C1171 H1163 0.950 . S
C1171 C1169 1.327 . S
C1172 C1160 1.349 1_565 S
C1172 H1166 0.950 . S
C1172 C1173 1.327 . S
C1173 H1167 0.950 . S
C1173 C1172 1.327 . S
C1173 C1177 1.429 1_565 S
C1174 C1157 1.541 1_654 S
C1174 H1168 0.949 . S
C1174 C1178 1.368 . S
C1175 C1156 1.424 . S
C1175 C1169 1.433 1_565 S
C1175 C1176 1.522 1_565 S
C1176 C1157 1.428 . S
C1176 C1170 1.340 1_545 S
C1176 C1175 1.522 1_545 S
C1177 C1161 1.429 . S
C1177 C1173 1.429 1_545 S
C1177 C1178 1.523 . S
C1178 C1162 1.398 1_545 S
C1178 C1174 1.368 . S
C1178 C1177 1.523 . S
H1179 C1154 0.950 . S
H1180 C1156 0.950 . S
H1181 C1157 0.953 . S
H1182 C1159 0.950 . S
H1183 C1161 0.950 . S
C1184 C1185 1.349 . S
C1184 C1186 1.327 . S
C1184 H1209 0.950 . S
C1185 C1184 1.349 . S
C1185 C1201 1.349 . S
C1186 C1184 1.327 . S
C1186 C1205 1.429 . S
C1186 H1210 0.950 . S
C1187 C1204 1.574 . S
C1187 C1206 1.368 . S
C1187 H1211 0.949 . S
H1188 C1192 0.949 . S
C1189 C1190 1.349 . S
C1189 C1191 1.327 . S
C1189 H1212 0.950 . S
C1190 C1189 1.349 . S
C1190 C1202 1.349 . S
C1191 C1189 1.327 . S
C1191 C1207 1.429 . S
C1191 H1213 0.950 . S
C1192 H1188 0.949 . S
C1192 C1200 1.574 . S
C1192 C1208 1.368 . S
H1193 C1201 0.950 . S
H1194 C1199 0.950 . S
H1195 C1200 0.949 . S
H1196 C1202 0.950 . S
H1197 C1203 0.950 . S
H1198 C1204 0.949 . S
C1199 H1194 0.950 . S
C1199 C1201 1.327 . S
C1199 C1205 1.429 . S
C1200 C1192 1.574 . S
C1200 H1195 0.949 . S
C1200 C1206 1.368 . S
C1201 C1185 1.349 . S
C1201 H1193 0.950 . S
C1201 C1199 1.327 . S
C1202 C1190 1.349 . S
C1202 H1196 0.950 . S
C1202 C1203 1.327 . S
C1203 H1197 0.950 . S
C1203 C1202 1.327 . S
C1203 C1207 1.429 . S
C1204 C1187 1.574 . S
C1204 H1198 0.949 . S
C1204 C1208 1.368 . S
C1205 C1186 1.429 . S
C1205 C1199 1.429 . S
C1205 C1206 1.523 . S
C1206 C1187 1.368 . S
C1206 C1200 1.368 . S
C1206 C1205 1.523 . S
C1207 C1191 1.429 . S
C1207 C1203 1.429 . S
C1207 C1208 1.523 . S
C1208 C1192 1.368 . S
C1208 C1204 1.368 . S
C1208 C1207 1.523 . S
H1209 C1184 0.950 . S
H1210 C1186 0.950 . S
H1211 C1187 0.949 . S
H1212 C1189 0.950 . S
H1213 C1191 0.950 . S
C1214 C1215 1.349 . S
C1214 C1216 1.327 . S
C1214 H1239 0.950 . S
C1215 C1214 1.349 . S
C1215 C1231 1.349 . S
C1216 C1214 1.327 . S
C1216 C1235 1.429 . S
C1216 H1240 0.950 . S
C1217 C1234 1.574 . S
C1217 C1236 1.368 . S
C1217 H1241 0.949 . S
H1218 C1222 0.949 . S
C1219 C1220 1.349 . S
C1219 C1221 1.327 . S
C1219 H1242 0.950 . S
C1220 C1219 1.349 . S
C1220 C1232 1.349 . S
C1221 C1219 1.327 . S
C1221 C1237 1.429 . S
C1221 H1243 0.950 . S
C1222 H1218 0.949 . S
C1222 C1230 1.574 . S
C1222 C1238 1.368 . S
H1223 C1231 0.950 . S
H1224 C1229 0.950 . S
H1225 C1230 0.949 . S
H1226 C1232 0.950 . S
H1227 C1233 0.950 . S
H1228 C1234 0.949 . S
C1229 H1224 0.950 . S
C1229 C1231 1.327 . S
C1229 C1235 1.429 . S
C1230 C1222 1.574 . S
C1230 H1225 0.949 . S
C1230 C1236 1.368 . S
C1231 C1215 1.349 . S
C1231 H1223 0.950 . S
C1231 C1229 1.327 . S
C1232 C1220 1.349 . S
C1232 H1226 0.950 . S
C1232 C1233 1.327 . S
C1233 H1227 0.950 . S
C1233 C1232 1.327 . S
C1233 C1237 1.429 . S
C1234 C1217 1.574 . S
C1234 H1228 0.949 . S
C1234 C1238 1.368 . S
C1235 C1216 1.429 . S
C1235 C1229 1.429 . S
C1235 C1236 1.523 . S
C1236 C1217 1.368 . S
C1236 C1230 1.368 . S
C1236 C1235 1.523 . S
C1237 C1221 1.429 . S
C1237 C1233 1.429 . S
C1237 C1238 1.523 . S
C1238 C1222 1.368 . S
C1238 C1234 1.368 . S
C1238 C1237 1.523 . S
H1239 C1214 0.950 . S
H1240 C1216 0.950 . S
H1241 C1217 0.949 . S
H1242 C1219 0.950 . S
H1243 C1221 0.950 . S
C1244 C1245 1.349 . S
C1244 C1246 1.327 . S
C1244 H1269 0.950 . S
C1245 C1244 1.349 . S
C1245 C1261 1.349 . S
C1246 C1244 1.327 . S
C1246 C1265 1.429 . S
C1246 H1270 0.950 . S
C1247 C1264 1.574 . S
C1247 C1266 1.368 . S
C1247 H1271 0.949 . S
H1248 C1252 0.949 . S
C1249 C1250 1.349 . S
C1249 C1251 1.327 . S
C1249 H1272 0.950 . S
C1250 C1249 1.349 . S
C1250 C1262 1.349 . S
C1251 C1249 1.327 . S
C1251 C1267 1.429 . S
C1251 H1273 0.950 . S
C1252 H1248 0.949 . S
C1252 C1260 1.574 . S
C1252 C1268 1.368 . S
H1253 C1261 0.950 . S
H1254 C1259 0.950 . S
H1255 C1260 0.949 . S
H1256 C1262 0.950 . S
H1257 C1263 0.950 . S
H1258 C1264 0.949 . S
C1259 H1254 0.950 . S
C1259 C1261 1.327 . S
C1259 C1265 1.429 . S
C1260 C1252 1.574 . S
C1260 H1255 0.949 . S
C1260 C1266 1.368 . S
C1261 C1245 1.349 . S
C1261 H1253 0.950 . S
C1261 C1259 1.327 . S
C1262 C1250 1.349 . S
C1262 H1256 0.950 . S
C1262 C1263 1.327 . S
C1263 H1257 0.950 . S
C1263 C1262 1.327 . S
C1263 C1267 1.429 . S
C1264 C1247 1.574 . S
C1264 H1258 0.949 . S
C1264 C1268 1.368 . S
C1265 C1246 1.429 . S
C1265 C1259 1.429 . S
C1265 C1266 1.523 . S
C1266 C1247 1.368 . S
C1266 C1260 1.368 . S
C1266 C1265 1.523 . S
C1267 C1251 1.429 . S
C1267 C1263 1.429 . S
C1267 C1268 1.523 . S
C1268 C1252 1.368 . S
C1268 C1264 1.368 . S
C1268 C1267 1.523 . S
H1269 C1244 0.950 . S
H1270 C1246 0.950 . S
H1271 C1247 0.949 . S
H1272 C1249 0.950 . S
H1273 C1251 0.950 . S
C1274 C1275 1.349 . S
C1274 C1276 1.327 . S
C1274 H1299 0.950 . S
C1275 C1274 1.349 . S
C1275 C1291 1.349 . S
C1276 C1274 1.327 . S
C1276 C1295 1.429 . S
C1276 H1300 0.950 . S
C1277 C1294 1.574 . S
C1277 C1296 1.368 . S
C1277 H1301 0.949 . S
H1278 C1282 0.949 . S
C1279 C1280 1.349 . S
C1279 C1281 1.327 . S
C1279 H1302 0.950 . S
C1280 C1279 1.349 . S
C1280 C1292 1.349 . S
C1281 C1279 1.327 . S
C1281 C1297 1.429 . S
C1281 H1303 0.950 . S
C1282 H1278 0.949 . S
C1282 C1290 1.574 . S
C1282 C1298 1.368 . S
H1283 C1291 0.950 . S
H1284 C1289 0.950 . S
H1285 C1290 0.949 . S
H1286 C1292 0.950 . S
H1287 C1293 0.950 . S
H1288 C1294 0.949 . S
C1289 H1284 0.950 . S
C1289 C1291 1.327 . S
C1289 C1295 1.429 . S
C1290 C1282 1.574 . S
C1290 H1285 0.949 . S
C1290 C1296 1.368 . S
C1291 C1275 1.349 . S
C1291 H1283 0.950 . S
C1291 C1289 1.327 . S
C1292 C1280 1.349 . S
C1292 H1286 0.950 . S
C1292 C1293 1.327 . S
C1293 H1287 0.950 . S
C1293 C1292 1.327 . S
C1293 C1297 1.429 . S
C1294 C1277 1.574 . S
C1294 H1288 0.949 . S
C1294 C1298 1.368 . S
C1295 C1276 1.429 . S
C1295 C1289 1.429 . S
C1295 C1296 1.523 . S
C1296 C1277 1.368 . S
C1296 C1290 1.368 . S
C1296 C1295 1.523 . S
C1297 C1281 1.429 . S
C1297 C1293 1.429 . S
C1297 C1298 1.523 . S
C1298 C1282 1.368 . S
C1298 C1294 1.368 . S
C1298 C1297 1.523 . S
H1299 C1274 0.950 . S
H1300 C1276 0.950 . S
H1301 C1277 0.949 . S
H1302 C1279 0.950 . S
H1303 C1281 0.950 . S
C1304 C1305 1.349 . S
C1304 C1306 1.327 . S
C1304 H1329 0.950 . S
C1305 C1304 1.349 . S
C1305 C1321 1.349 . S
C1306 C1304 1.327 . S
C1306 C1325 1.429 . S
C1306 H1330 0.950 . S
C1307 C1324 1.584 . S
C1307 C1326 1.368 . S
C1307 H1331 0.949 . S
H1308 C1312 0.949 . S
C1309 C1310 1.349 . S
C1309 C1311 1.327 . S
C1309 H1332 0.950 . S
C1310 C1309 1.349 . S
C1310 C1322 1.349 . S
C1311 C1309 1.327 . S
C1311 C1327 1.429 . S
C1311 H1333 0.950 . S
C1312 H1308 0.949 . S
C1312 C1320 1.574 1_556 S
C1312 C1328 1.368 . S
H1313 C1321 0.950 . S
H1314 C1319 0.950 . S
H1315 C1320 0.949 . S
H1316 C1322 0.950 . S
H1317 C1323 0.950 . S
H1318 C1324 0.949 1_556 S
C1319 H1314 0.950 . S
C1319 C1321 1.327 . S
C1319 C1325 1.429 . S
C1320 C1312 1.574 1_554 S
C1320 H1315 0.949 . S
C1320 C1326 1.368 . S
C1321 C1305 1.349 . S
C1321 H1313 0.950 . S
C1321 C1319 1.327 . S
C1322 C1310 1.349 . S
C1322 H1316 0.950 . S
C1322 C1323 1.327 . S
C1323 H1317 0.950 . S
C1323 C1322 1.327 . S
C1323 C1327 1.429 . S
C1324 C1307 1.584 . S
C1324 H1318 0.949 1_554 S
C1324 C1328 1.359 1_554 S
C1325 C1306 1.429 . S
C1325 C1319 1.429 . S
C1325 C1326 1.523 . S
C1326 C1307 1.368 . S
C1326 C1320 1.368 . S
C1326 C1325 1.523 . S
C1327 C1311 1.429 . S
C1327 C1323 1.429 . S
C1327 C1328 1.523 . S
C1328 C1312 1.368 . S
C1328 C1324 1.359 1_556 S
C1328 C1327 1.523 . S
H1329 C1304 0.950 . S
H1330 C1306 0.950 . S
H1331 C1307 0.949 . S
H1332 C1309 0.950 . S
H1333 C1311 0.950 . S
C1334 C1335 1.349 . S
C1334 C1336 1.327 . S
C1334 H1359 0.950 . S
C1335 C1334 1.349 . S
C1335 C1351 1.349 . S
C1336 C1334 1.327 . S
C1336 C1355 1.429 . S
C1336 H1360 0.950 . S
C1337 C1354 1.575 1_455 S
C1337 C1356 1.368 . S
C1337 H1361 0.949 . S
H1338 C1342 0.949 . S
C1339 C1340 1.349 . S
C1339 C1341 1.327 . S
C1339 H1362 0.950 . S
C1340 C1339 1.349 . S
C1340 C1352 1.349 . S
C1341 C1339 1.327 . S
C1341 C1357 1.429 . S
C1341 H1363 0.950 . S
C1342 H1338 0.949 . S
C1342 C1350 1.575 1_655 S
C1342 C1358 1.368 . S
H1343 C1351 0.950 . S
H1344 C1349 0.950 . S
H1345 C1350 0.949 . S
H1346 C1352 0.950 . S
H1347 C1353 0.950 . S
H1348 C1354 0.949 . S
C1349 H1344 0.950 . S
C1349 C1351 1.327 . S
C1349 C1355 1.429 . S
C1350 C1342 1.575 1_455 S
C1350 H1345 0.949 . S
C1350 C1356 1.367 . S
C1351 C1335 1.349 . S
C1351 H1343 0.950 . S
C1351 C1349 1.327 . S
C1352 C1340 1.349 . S
C1352 H1346 0.950 . S
C1352 C1353 1.327 . S
C1353 H1347 0.950 . S
C1353 C1352 1.327 . S
C1353 C1357 1.429 . S
C1354 C1337 1.575 1_655 S
C1354 H1348 0.949 . S
C1354 C1358 1.367 . S
C1355 C1336 1.429 . S
C1355 C1349 1.429 . S
C1355 C1356 1.523 . S
C1356 C1337 1.368 . S
C1356 C1350 1.367 . S
C1356 C1355 1.523 . S
C1357 C1341 1.429 . S
C1357 C1353 1.429 . S
C1357 C1358 1.523 . S
C1358 C1342 1.368 . S
C1358 C1354 1.367 . S
C1358 C1357 1.523 . S
H1359 C1334 0.950 . S
H1360 C1336 0.950 . S
H1361 C1337 0.949 . S
H1362 C1339 0.950 . S
H1363 C1341 0.950 . S
C1364 C1365 1.349 . S
C1364 C1366 1.327 . S
C1364 H1389 0.950 . S
C1365 C1364 1.349 . S
C1365 C1381 1.349 . S
C1366 C1364 1.327 . S
C1366 C1385 1.429 . S
C1366 H1390 0.950 . S
C1367 C1384 1.554 1_454 S
C1367 C1386 1.368 . S
C1367 H1391 0.949 . S
H1368 C1372 0.949 . S
C1369 C1370 1.349 . S
C1369 C1371 1.327 . S
C1369 H1392 0.950 . S
C1370 C1369 1.349 . S
C1370 C1382 1.349 . S
C1371 C1369 1.327 . S
C1371 C1387 1.429 . S
C1371 H1393 0.950 . S
C1372 H1368 0.949 . S
C1372 C1380 1.554 1_656 S
C1372 C1388 1.368 . S
H1373 C1381 0.950 . S
H1374 C1379 0.950 . S
H1375 C1380 0.948 . S
H1376 C1382 0.950 . S
H1377 C1383 0.950 . S
H1378 C1384 0.948 . S
C1379 H1374 0.950 . S
C1379 C1381 1.327 . S
C1379 C1385 1.429 . S
C1380 C1372 1.554 1_454 S
C1380 H1375 0.948 . S
C1380 C1386 1.387 . S
C1381 C1365 1.349 . S
C1381 H1373 0.950 . S
C1381 C1379 1.327 . S
C1382 C1370 1.349 . S
C1382 H1376 0.950 . S
C1382 C1383 1.327 . S
C1383 H1377 0.950 . S
C1383 C1382 1.327 . S
C1383 C1387 1.429 . S
C1384 C1367 1.554 1_656 S
C1384 H1378 0.948 . S
C1384 C1388 1.387 . S
C1385 C1366 1.429 . S
C1385 C1379 1.429 . S
C1385 C1386 1.523 . S
C1386 C1367 1.368 . S
C1386 C1380 1.387 . S
C1386 C1385 1.523 . S
C1387 C1371 1.429 . S
C1387 C1383 1.429 . S
C1387 C1388 1.523 . S
C1388 C1372 1.368 . S
C1388 C1384 1.387 . S
C1388 C1387 1.523 . S
H1389 C1364 0.950 . S
H1390 C1366 0.950 . S
H1391 C1367 0.949 . S
H1392 C1369 0.950 . S
H1393 C1371 0.950 . S
C1394 C1395 1.349 . S
C1394 C1396 1.327 . S
C1394 H1419 0.950 . S
C1395 C1394 1.349 . S
C1395 C1411 1.349 . S
C1396 C1394 1.327 . S
C1396 C1415 1.429 . S
C1396 H1420 0.950 . S
C1397 C1414 1.574 . S
C1397 C1416 1.368 . S
C1397 H1421 0.949 . S
H1398 C1402 0.949 . S
C1399 C1400 1.349 . S
C1399 C1401 1.327 . S
C1399 H1422 0.950 . S
C1400 C1399 1.349 . S
C1400 C1412 1.349 . S
C1401 C1399 1.327 . S
C1401 C1417 1.429 . S
C1401 H1423 0.950 . S
C1402 H1398 0.949 . S
C1402 C1410 1.574 . S
C1402 C1418 1.368 . S
H1403 C1411 0.950 . S
H1404 C1409 0.950 . S
H1405 C1410 0.949 . S
H1406 C1412 0.950 . S
H1407 C1413 0.950 . S
H1408 C1414 0.949 . S
C1409 H1404 0.950 . S
C1409 C1411 1.327 . S
C1409 C1415 1.429 . S
C1410 C1402 1.574 . S
C1410 H1405 0.949 . S
C1410 C1416 1.368 . S
C1411 C1395 1.349 . S
C1411 H1403 0.950 . S
C1411 C1409 1.327 . S
C1412 C1400 1.349 . S
C1412 H1406 0.950 . S
C1412 C1413 1.327 . S
C1413 H1407 0.950 . S
C1413 C1412 1.327 . S
C1413 C1417 1.429 . S
C1414 C1397 1.574 . S
C1414 H1408 0.949 . S
C1414 C1418 1.368 . S
C1415 C1396 1.429 . S
C1415 C1409 1.429 . S
C1415 C1416 1.523 . S
C1416 C1397 1.368 . S
C1416 C1410 1.368 . S
C1416 C1415 1.523 . S
C1417 C1401 1.429 . S
C1417 C1413 1.429 . S
C1417 C1418 1.523 . S
C1418 C1402 1.368 . S
C1418 C1414 1.368 . S
C1418 C1417 1.523 . S
H1419 C1394 0.950 . S
H1420 C1396 0.950 . S
H1421 C1397 0.949 . S
H1422 C1399 0.950 . S
H1423 C1401 0.950 . S
C1424 C1425 1.349 . S
C1424 C1426 1.327 . S
C1424 H1449 0.950 . S
C1425 C1424 1.349 . S
C1425 C1441 1.349 . S
C1426 C1424 1.327 . S
C1426 C1445 1.429 . S
C1426 H1450 0.950 . S
C1427 C1444 1.574 . S
C1427 C1446 1.368 . S
C1427 H1451 0.949 . S
H1428 C1432 0.949 . S
C1429 C1430 1.349 . S
C1429 C1431 1.327 . S
C1429 H1452 0.950 . S
C1430 C1429 1.349 . S
C1430 C1442 1.349 . S
C1431 C1429 1.327 . S
C1431 C1447 1.429 . S
C1431 H1453 0.950 . S
C1432 H1428 0.949 . S
C1432 C1440 1.574 . S
C1432 C1448 1.368 . S
H1433 C1441 0.950 . S
H1434 C1439 0.950 . S
H1435 C1440 0.949 . S
H1436 C1442 0.950 . S
H1437 C1443 0.950 . S
H1438 C1444 0.949 . S
C1439 H1434 0.950 . S
C1439 C1441 1.327 . S
C1439 C1445 1.429 . S
C1440 C1432 1.574 . S
C1440 H1435 0.949 . S
C1440 C1446 1.368 . S
C1441 C1425 1.349 . S
C1441 H1433 0.950 . S
C1441 C1439 1.327 . S
C1442 C1430 1.349 . S
C1442 H1436 0.950 . S
C1442 C1443 1.327 . S
C1443 H1437 0.950 . S
C1443 C1442 1.327 . S
C1443 C1447 1.429 . S
C1444 C1427 1.574 . S
C1444 H1438 0.949 . S
C1444 C1448 1.368 . S
C1445 C1426 1.429 . S
C1445 C1439 1.429 . S
C1445 C1446 1.523 . S
C1446 C1427 1.368 . S
C1446 C1440 1.368 . S
C1446 C1445 1.523 . S
C1447 C1431 1.429 . S
C1447 C1443 1.429 . S
C1447 C1448 1.523 . S
C1448 C1432 1.368 . S
C1448 C1444 1.368 . S
C1448 C1447 1.523 . S
H1449 C1424 0.950 . S
H1450 C1426 0.950 . S
H1451 C1427 0.949 . S
H1452 C1429 0.950 . S
H1453 C1431 0.950 . S
C1454 C1455 1.349 . S
C1454 C1456 1.327 . S
C1454 H1479 0.950 . S
C1455 C1454 1.349 . S
C1455 C1471 1.349 . S
C1456 C1454 1.327 . S
C1456 C1475 1.429 . S
C1456 H1480 0.950 . S
C1457 C1474 1.574 . S
C1457 C1476 1.368 . S
C1457 H1481 0.949 . S
H1458 C1462 0.949 . S
C1459 C1460 1.349 . S
C1459 C1461 1.327 . S
C1459 H1482 0.950 . S
C1460 C1459 1.349 . S
C1460 C1472 1.349 . S
C1461 C1459 1.327 . S
C1461 C1477 1.429 . S
C1461 H1483 0.950 . S
C1462 H1458 0.949 . S
C1462 C1470 1.574 . S
C1462 C1478 1.368 . S
H1463 C1471 0.950 . S
H1464 C1469 0.950 . S
H1465 C1470 0.949 . S
H1466 C1472 0.950 . S
H1467 C1473 0.950 . S
H1468 C1474 0.949 . S
C1469 H1464 0.950 . S
C1469 C1471 1.327 . S
C1469 C1475 1.429 . S
C1470 C1462 1.574 . S
C1470 H1465 0.949 . S
C1470 C1476 1.368 . S
C1471 C1455 1.349 . S
C1471 H1463 0.950 . S
C1471 C1469 1.327 . S
C1472 C1460 1.349 . S
C1472 H1466 0.950 . S
C1472 C1473 1.327 . S
C1473 H1467 0.950 . S
C1473 C1472 1.327 . S
C1473 C1477 1.429 . S
C1474 C1457 1.574 . S
C1474 H1468 0.949 . S
C1474 C1478 1.368 . S
C1475 C1456 1.429 . S
C1475 C1469 1.429 . S
C1475 C1476 1.523 . S
C1476 C1457 1.368 . S
C1476 C1470 1.368 . S
C1476 C1475 1.523 . S
C1477 C1461 1.429 . S
C1477 C1473 1.429 . S
C1477 C1478 1.523 . S
C1478 C1462 1.368 . S
C1478 C1474 1.368 . S
C1478 C1477 1.523 . S
H1479 C1454 0.950 . S
H1480 C1456 0.950 . S
H1481 C1457 0.949 . S
H1482 C1459 0.950 . S
H1483 C1461 0.950 . S
C1484 C1485 1.349 . S
C1484 C1486 1.327 . S
C1484 H1509 0.950 . S
C1485 C1484 1.349 . S
C1485 C1501 1.349 . S
C1486 C1484 1.327 . S
C1486 C1505 1.429 . S
C1486 H1510 0.950 . S
C1487 C1504 1.574 . S
C1487 C1506 1.368 . S
C1487 H1511 0.949 . S
H1488 C1492 0.949 . S
C1489 C1490 1.349 . S
C1489 C1491 1.327 . S
C1489 H1512 0.950 . S
C1490 C1489 1.349 . S
C1490 C1502 1.349 . S
C1491 C1489 1.327 . S
C1491 C1507 1.429 . S
C1491 H1513 0.950 . S
C1492 H1488 0.949 . S
C1492 C1500 1.574 . S
C1492 C1508 1.368 . S
H1493 C1501 0.950 . S
H1494 C1499 0.950 . S
H1495 C1500 0.949 . S
H1496 C1502 0.950 . S
H1497 C1503 0.950 . S
H1498 C1504 0.949 . S
C1499 H1494 0.950 . S
C1499 C1501 1.327 . S
C1499 C1505 1.429 . S
C1500 C1492 1.574 . S
C1500 H1495 0.949 . S
C1500 C1506 1.368 . S
C1501 C1485 1.349 . S
C1501 H1493 0.950 . S
C1501 C1499 1.327 . S
C1502 C1490 1.349 . S
C1502 H1496 0.950 . S
C1502 C1503 1.327 . S
C1503 H1497 0.950 . S
C1503 C1502 1.327 . S
C1503 C1507 1.429 . S
C1504 C1487 1.574 . S
C1504 H1498 0.949 . S
C1504 C1508 1.368 . S
C1505 C1486 1.429 . S
C1505 C1499 1.429 . S
C1505 C1506 1.523 . S
C1506 C1487 1.368 . S
C1506 C1500 1.368 . S
C1506 C1505 1.523 . S
C1507 C1491 1.429 . S
C1507 C1503 1.429 . S
C1507 C1508 1.523 . S
C1508 C1492 1.368 . S
C1508 C1504 1.368 . S
C1508 C1507 1.523 . S
H1509 C1484 0.950 . S
H1510 C1486 0.950 . S
H1511 C1487 0.949 . S
H1512 C1489 0.950 . S
H1513 C1491 0.950 . S
C1514 C1515 1.349 . S
C1514 C1516 1.327 . S
C1514 H1539 0.950 . S
C1515 C1514 1.349 . S
C1515 C1531 1.349 . S
C1516 C1514 1.327 . S
C1516 C1535 1.429 . S
C1516 H1540 0.950 . S
C1517 C1534 1.574 . S
C1517 C1536 1.368 . S
C1517 H1541 0.949 . S
H1518 C1522 0.949 . S
C1519 C1520 1.349 . S
C1519 C1521 1.327 . S
C1519 H1542 0.950 . S
C1520 C1519 1.349 . S
C1520 C1532 1.349 . S
C1521 C1519 1.327 . S
C1521 C1537 1.429 . S
C1521 H1543 0.950 . S
C1522 H1518 0.949 . S
C1522 C1530 1.574 . S
C1522 C1538 1.368 . S
H1523 C1531 0.950 . S
H1524 C1529 0.950 . S
H1525 C1530 0.949 . S
H1526 C1532 0.950 . S
H1527 C1533 0.950 . S
H1528 C1534 0.949 . S
C1529 H1524 0.950 . S
C1529 C1531 1.327 . S
C1529 C1535 1.429 . S
C1530 C1522 1.574 . S
C1530 H1525 0.949 . S
C1530 C1536 1.368 . S
C1531 C1515 1.349 . S
C1531 H1523 0.950 . S
C1531 C1529 1.327 . S
C1532 C1520 1.349 . S
C1532 H1526 0.950 . S
C1532 C1533 1.327 . S
C1533 H1527 0.950 . S
C1533 C1532 1.327 . S
C1533 C1537 1.429 . S
C1534 C1517 1.574 . S
C1534 H1528 0.949 . S
C1534 C1538 1.368 . S
C1535 C1516 1.429 . S
C1535 C1529 1.429 . S
C1535 C1536 1.523 . S
C1536 C1517 1.368 . S
C1536 C1530 1.368 . S
C1536 C1535 1.523 . S
C1537 C1521 1.429 . S
C1537 C1533 1.429 . S
C1537 C1538 1.523 . S
C1538 C1522 1.368 . S
C1538 C1534 1.368 . S
C1538 C1537 1.523 . S
H1539 C1514 0.950 . S
H1540 C1516 0.950 . S
H1541 C1517 0.949 . S
H1542 C1519 0.950 . S
H1543 C1521 0.950 . S
C1544 C1545 1.349 . S
C1544 C1546 1.327 . S
C1544 H1569 0.950 . S
C1545 C1544 1.349 . S
C1545 C1561 1.349 . S
C1546 C1544 1.327 . S
C1546 C1565 1.429 . S
C1546 H1570 0.950 . S
C1547 C1564 1.574 . S
C1547 C1566 1.368 . S
C1547 H1571 0.949 . S
H1548 C1552 0.949 . S
C1549 C1550 1.349 . S
C1549 C1551 1.327 . S
C1549 H1572 0.950 . S
C1550 C1549 1.349 . S
C1550 C1562 1.349 . S
C1551 C1549 1.327 . S
C1551 C1567 1.429 . S
C1551 H1573 0.950 . S
C1552 H1548 0.949 . S
C1552 C1560 1.574 . S
C1552 C1568 1.368 . S
H1553 C1561 0.950 . S
H1554 C1559 0.950 . S
H1555 C1560 0.949 . S
H1556 C1562 0.950 . S
H1557 C1563 0.950 . S
H1558 C1564 0.949 . S
C1559 H1554 0.950 . S
C1559 C1561 1.327 . S
C1559 C1565 1.429 . S
C1560 C1552 1.574 . S
C1560 H1555 0.949 . S
C1560 C1566 1.368 . S
C1561 C1545 1.349 . S
C1561 H1553 0.950 . S
C1561 C1559 1.327 . S
C1562 C1550 1.349 . S
C1562 H1556 0.950 . S
C1562 C1563 1.327 . S
C1563 H1557 0.950 . S
C1563 C1562 1.327 . S
C1563 C1567 1.429 . S
C1564 C1547 1.574 . S
C1564 H1558 0.949 . S
C1564 C1568 1.368 . S
C1565 C1546 1.429 . S
C1565 C1559 1.429 . S
C1565 C1566 1.523 . S
C1566 C1547 1.368 . S
C1566 C1560 1.368 . S
C1566 C1565 1.523 . S
C1567 C1551 1.429 . S
C1567 C1563 1.429 . S
C1567 C1568 1.523 . S
C1568 C1552 1.368 . S
C1568 C1564 1.368 . S
C1568 C1567 1.523 . S
H1569 C1544 0.950 . S
H1570 C1546 0.950 . S
H1571 C1547 0.949 . S
H1572 C1549 0.950 . S
H1573 C1551 0.950 . S
C1574 C1575 1.349 . S
C1574 C1576 1.327 . S
C1574 H1599 0.950 . S
C1575 C1574 1.349 . S
C1575 C1591 1.349 . S
C1576 C1574 1.327 . S
C1576 C1595 1.429 . S
C1576 H1600 0.950 . S
C1577 C1594 1.574 . S
C1577 C1596 1.368 . S
C1577 H1601 0.949 . S
H1578 C1582 0.949 . S
C1579 C1580 1.349 . S
C1579 C1581 1.327 . S
C1579 H1602 0.950 . S
C1580 C1579 1.349 . S
C1580 C1592 1.349 . S
C1581 C1579 1.327 . S
C1581 C1597 1.429 . S
C1581 H1603 0.950 . S
C1582 H1578 0.949 . S
C1582 C1590 1.574 . S
C1582 C1598 1.368 . S
H1583 C1591 0.950 . S
H1584 C1589 0.950 . S
H1585 C1590 0.949 . S
H1586 C1592 0.950 . S
H1587 C1593 0.950 . S
H1588 C1594 0.949 . S
C1589 H1584 0.950 . S
C1589 C1591 1.327 . S
C1589 C1595 1.429 . S
C1590 C1582 1.574 . S
C1590 H1585 0.949 . S
C1590 C1596 1.368 . S
C1591 C1575 1.349 . S
C1591 H1583 0.950 . S
C1591 C1589 1.327 . S
C1592 C1580 1.349 . S
C1592 H1586 0.950 . S
C1592 C1593 1.327 . S
C1593 H1587 0.950 . S
C1593 C1592 1.327 . S
C1593 C1597 1.429 . S
C1594 C1577 1.574 . S
C1594 H1588 0.949 . S
C1594 C1598 1.368 . S
C1595 C1576 1.429 . S
C1595 C1589 1.429 . S
C1595 C1596 1.523 . S
C1596 C1577 1.368 . S
C1596 C1590 1.368 . S
C1596 C1595 1.523 . S
C1597 C1581 1.429 . S
C1597 C1593 1.429 . S
C1597 C1598 1.523 . S
C1598 C1582 1.368 . S
C1598 C1594 1.368 . S
C1598 C1597 1.523 . S
H1599 C1574 0.950 . S
H1600 C1576 0.950 . S
H1601 C1577 0.949 . S
H1602 C1579 0.950 . S
H1603 C1581 0.950 . S
C1604 C1605 1.349 . S
C1604 C1606 1.327 . S
C1604 H1629 0.950 . S
C1605 C1604 1.349 . S
C1605 C1621 1.349 . S
C1606 C1604 1.327 . S
C1606 C1625 1.429 . S
C1606 H1630 0.950 . S
C1607 C1624 1.574 . S
C1607 C1626 1.368 . S
C1607 H1631 0.949 . S
H1608 C1612 0.949 . S
C1609 C1610 1.349 . S
C1609 C1611 1.327 . S
C1609 H1632 0.950 . S
C1610 C1609 1.349 . S
C1610 C1622 1.349 . S
C1611 C1609 1.327 . S
C1611 C1627 1.429 . S
C1611 H1633 0.950 . S
C1612 H1608 0.949 . S
C1612 C1620 1.574 . S
C1612 C1628 1.368 . S
H1613 C1621 0.950 . S
H1614 C1619 0.950 . S
H1615 C1620 0.949 . S
H1616 C1622 0.950 . S
H1617 C1623 0.950 . S
H1618 C1624 0.949 . S
C1619 H1614 0.950 . S
C1619 C1621 1.327 . S
C1619 C1625 1.429 . S
C1620 C1612 1.574 . S
C1620 H1615 0.949 . S
C1620 C1626 1.368 . S
C1621 C1605 1.349 . S
C1621 H1613 0.950 . S
C1621 C1619 1.327 . S
C1622 C1610 1.349 . S
C1622 H1616 0.950 . S
C1622 C1623 1.327 . S
C1623 H1617 0.950 . S
C1623 C1622 1.327 . S
C1623 C1627 1.429 . S
C1624 C1607 1.574 . S
C1624 H1618 0.949 . S
C1624 C1628 1.368 . S
C1625 C1606 1.429 . S
C1625 C1619 1.429 . S
C1625 C1626 1.523 . S
C1626 C1607 1.368 . S
C1626 C1620 1.368 . S
C1626 C1625 1.523 . S
C1627 C1611 1.429 . S
C1627 C1623 1.429 . S
C1627 C1628 1.523 . S
C1628 C1612 1.368 . S
C1628 C1624 1.368 . S
C1628 C1627 1.523 . S
H1629 C1604 0.950 . S
H1630 C1606 0.950 . S
H1631 C1607 0.949 . S
H1632 C1609 0.950 . S
H1633 C1611 0.950 . S
C1634 C1635 1.349 . S
C1634 C1636 1.327 . S
C1634 H1659 0.950 . S
C1635 C1634 1.349 . S
C1635 C1651 1.349 . S
C1636 C1634 1.327 . S
C1636 C1655 1.429 . S
C1636 H1660 0.950 . S
C1637 C1654 1.574 . S
C1637 C1656 1.368 . S
C1637 H1661 0.949 . S
H1638 C1642 0.949 . S
C1639 C1640 1.349 . S
C1639 C1641 1.327 . S
C1639 H1662 0.950 . S
C1640 C1639 1.349 . S
C1640 C1652 1.349 . S
C1641 C1639 1.327 . S
C1641 C1657 1.429 . S
C1641 H1663 0.950 . S
C1642 H1638 0.949 . S
C1642 C1650 1.574 . S
C1642 C1658 1.368 . S
H1643 C1651 0.950 . S
H1644 C1649 0.950 . S
H1645 C1650 0.949 . S
H1646 C1652 0.950 . S
H1647 C1653 0.950 . S
H1648 C1654 0.949 . S
C1649 H1644 0.950 . S
C1649 C1651 1.327 . S
C1649 C1655 1.429 . S
C1650 C1642 1.574 . S
C1650 H1645 0.949 . S
C1650 C1656 1.368 . S
C1651 C1635 1.349 . S
C1651 H1643 0.950 . S
C1651 C1649 1.327 . S
C1652 C1640 1.349 . S
C1652 H1646 0.950 . S
C1652 C1653 1.327 . S
C1653 H1647 0.950 . S
C1653 C1652 1.327 . S
C1653 C1657 1.429 . S
C1654 C1637 1.574 . S
C1654 H1648 0.949 . S
C1654 C1658 1.368 . S
C1655 C1636 1.429 . S
C1655 C1649 1.429 . S
C1655 C1656 1.523 . S
C1656 C1637 1.368 . S
C1656 C1650 1.368 . S
C1656 C1655 1.523 . S
C1657 C1641 1.429 . S
C1657 C1653 1.429 . S
C1657 C1658 1.523 . S
C1658 C1642 1.368 . S
C1658 C1654 1.368 . S
C1658 C1657 1.523 . S
H1659 C1634 0.950 . S
H1660 C1636 0.950 . S
H1661 C1637 0.949 . S
H1662 C1639 0.950 . S
H1663 C1641 0.950 . S
C1664 C1665 1.349 . S
C1664 C1666 1.327 . S
C1664 H1689 0.950 . S
C1665 C1664 1.349 . S
C1665 C1681 1.349 . S
C1666 C1664 1.327 . S
C1666 C1685 1.429 . S
C1666 H1690 0.950 . S
C1667 C1684 1.574 . S
C1667 C1686 1.368 . S
C1667 H1691 0.949 . S
H1668 C1672 0.949 . S
C1669 C1670 1.349 . S
C1669 C1671 1.327 . S
C1669 H1692 0.950 . S
C1670 C1669 1.349 . S
C1670 C1682 1.349 . S
C1671 C1669 1.327 . S
C1671 C1687 1.429 . S
C1671 H1693 0.950 . S
C1672 H1668 0.949 . S
C1672 C1680 1.574 . S
C1672 C1688 1.368 . S
H1673 C1681 0.950 . S
H1674 C1679 0.950 . S
H1675 C1680 0.949 . S
H1676 C1682 0.950 . S
H1677 C1683 0.950 . S
H1678 C1684 0.949 . S
C1679 H1674 0.950 . S
C1679 C1681 1.327 . S
C1679 C1685 1.429 . S
C1680 C1672 1.574 . S
C1680 H1675 0.949 . S
C1680 C1686 1.368 . S
C1681 C1665 1.349 . S
C1681 H1673 0.950 . S
C1681 C1679 1.327 . S
C1682 C1670 1.349 . S
C1682 H1676 0.950 . S
C1682 C1683 1.327 . S
C1683 H1677 0.950 . S
C1683 C1682 1.327 . S
C1683 C1687 1.429 . S
C1684 C1667 1.574 . S
C1684 H1678 0.949 . S
C1684 C1688 1.368 . S
C1685 C1666 1.429 . S
C1685 C1679 1.429 . S
C1685 C1686 1.523 . S
C1686 C1667 1.368 . S
C1686 C1680 1.368 . S
C1686 C1685 1.523 . S
C1687 C1671 1.429 . S
C1687 C1683 1.429 . S
C1687 C1688 1.523 . S
C1688 C1672 1.368 . S
C1688 C1684 1.368 . S
C1688 C1687 1.523 . S
H1689 C1664 0.950 . S
H1690 C1666 0.950 . S
H1691 C1667 0.949 . S
H1692 C1669 0.950 . S
H1693 C1671 0.950 . S
C1694 C1695 1.349 . S
C1694 C1696 1.327 . S
C1694 H1719 0.950 . S
C1695 C1694 1.349 . S
C1695 C1711 1.349 . S
C1696 C1694 1.327 . S
C1696 C1715 1.429 . S
C1696 H1720 0.950 . S
C1697 C1714 1.574 . S
C1697 C1716 1.368 . S
C1697 H1721 0.949 . S
H1698 C1702 0.949 . S
C1699 C1700 1.349 . S
C1699 C1701 1.327 . S
C1699 H1722 0.950 . S
C1700 C1699 1.349 . S
C1700 C1712 1.349 . S
C1701 C1699 1.327 . S
C1701 C1717 1.429 . S
C1701 H1723 0.950 . S
C1702 H1698 0.949 . S
C1702 C1710 1.574 . S
C1702 C1718 1.368 . S
H1703 C1711 0.950 . S
H1704 C1709 0.950 . S
H1705 C1710 0.949 . S
H1706 C1712 0.950 . S
H1707 C1713 0.950 . S
H1708 C1714 0.949 . S
C1709 H1704 0.950 . S
C1709 C1711 1.327 . S
C1709 C1715 1.429 . S
C1710 C1702 1.574 . S
C1710 H1705 0.949 . S
C1710 C1716 1.368 . S
C1711 C1695 1.349 . S
C1711 H1703 0.950 . S
C1711 C1709 1.327 . S
C1712 C1700 1.349 . S
C1712 H1706 0.950 . S
C1712 C1713 1.327 . S
C1713 H1707 0.950 . S
C1713 C1712 1.327 . S
C1713 C1717 1.429 . S
C1714 C1697 1.574 . S
C1714 H1708 0.949 . S
C1714 C1718 1.368 . S
C1715 C1696 1.429 . S
C1715 C1709 1.429 . S
C1715 C1716 1.523 . S
C1716 C1697 1.368 . S
C1716 C1710 1.368 . S
C1716 C1715 1.523 . S
C1717 C1701 1.429 . S
C1717 C1713 1.429 . S
C1717 C1718 1.523 . S
C1718 C1702 1.368 . S
C1718 C1714 1.368 . S
C1718 C1717 1.523 . S
H1719 C1694 0.950 . S
H1720 C1696 0.950 . S
H1721 C1697 0.949 . S
H1722 C1699 0.950 . S
H1723 C1701 0.950 . S
C1724 C1725 1.349 . S
C1724 C1726 1.327 . S
C1724 H1749 0.950 . S
C1725 C1724 1.349 . S
C1725 C1741 1.349 . S
C1726 C1724 1.327 . S
C1726 C1745 1.429 . S
C1726 H1750 0.950 . S
C1727 C1744 1.574 . S
C1727 C1746 1.368 . S
C1727 H1751 0.949 . S
H1728 C1732 0.949 . S
C1729 C1730 1.349 . S
C1729 C1731 1.327 . S
C1729 H1752 0.950 . S
C1730 C1729 1.349 . S
C1730 C1742 1.349 . S
C1731 C1729 1.327 . S
C1731 C1747 1.429 . S
C1731 H1753 0.950 . S
C1732 H1728 0.949 . S
C1732 C1740 1.574 . S
C1732 C1748 1.368 . S
H1733 C1741 0.950 . S
H1734 C1739 0.950 . S
H1735 C1740 0.949 . S
H1736 C1742 0.950 . S
H1737 C1743 0.950 . S
H1738 C1744 0.949 . S
C1739 H1734 0.950 . S
C1739 C1741 1.327 . S
C1739 C1745 1.429 . S
C1740 C1732 1.574 . S
C1740 H1735 0.949 . S
C1740 C1746 1.368 . S
C1741 C1725 1.349 . S
C1741 H1733 0.950 . S
C1741 C1739 1.327 . S
C1742 C1730 1.349 . S
C1742 H1736 0.950 . S
C1742 C1743 1.327 . S
C1743 H1737 0.950 . S
C1743 C1742 1.327 . S
C1743 C1747 1.429 . S
C1744 C1727 1.574 . S
C1744 H1738 0.949 . S
C1744 C1748 1.368 . S
C1745 C1726 1.429 . S
C1745 C1739 1.429 . S
C1745 C1746 1.523 . S
C1746 C1727 1.368 . S
C1746 C1740 1.368 . S
C1746 C1745 1.523 . S
C1747 C1731 1.429 . S
C1747 C1743 1.429 . S
C1747 C1748 1.523 . S
C1748 C1732 1.368 . S
C1748 C1744 1.368 . S
C1748 C1747 1.523 . S
H1749 C1724 0.950 . S
H1750 C1726 0.950 . S
H1751 C1727 0.949 . S
H1752 C1729 0.950 . S
H1753 C1731 0.950 . S
C1754 C1755 1.349 . S
C1754 C1756 1.327 . S
C1754 H1779 0.950 . S
C1755 C1754 1.349 . S
C1755 C1771 1.349 . S
C1756 C1754 1.327 . S
C1756 C1775 1.429 . S
C1756 H1780 0.950 . S
C1757 C1774 1.574 . S
C1757 C1776 1.368 . S
C1757 H1781 0.949 . S
H1758 C1762 0.949 . S
C1759 C1760 1.349 . S
C1759 C1761 1.327 . S
C1759 H1782 0.950 . S
C1760 C1759 1.349 . S
C1760 C1772 1.349 . S
C1761 C1759 1.327 . S
C1761 C1777 1.429 . S
C1761 H1783 0.950 . S
C1762 H1758 0.949 . S
C1762 C1770 1.574 . S
C1762 C1778 1.368 . S
H1763 C1771 0.950 . S
H1764 C1769 0.950 . S
H1765 C1770 0.949 . S
H1766 C1772 0.950 . S
H1767 C1773 0.950 . S
H1768 C1774 0.949 . S
C1769 H1764 0.950 . S
C1769 C1771 1.327 . S
C1769 C1775 1.429 . S
C1770 C1762 1.574 . S
C1770 H1765 0.949 . S
C1770 C1776 1.368 . S
C1771 C1755 1.349 . S
C1771 H1763 0.950 . S
C1771 C1769 1.327 . S
C1772 C1760 1.349 . S
C1772 H1766 0.950 . S
C1772 C1773 1.327 . S
C1773 H1767 0.950 . S
C1773 C1772 1.327 . S
C1773 C1777 1.429 . S
C1774 C1757 1.574 . S
C1774 H1768 0.949 . S
C1774 C1778 1.368 . S
C1775 C1756 1.429 . S
C1775 C1769 1.429 . S
C1775 C1776 1.523 . S
C1776 C1757 1.368 . S
C1776 C1770 1.368 . S
C1776 C1775 1.523 . S
C1777 C1761 1.429 . S
C1777 C1773 1.429 . S
C1777 C1778 1.523 . S
C1778 C1762 1.368 . S
C1778 C1774 1.368 . S
C1778 C1777 1.523 . S
H1779 C1754 0.950 . S
H1780 C1756 0.950 . S
H1781 C1757 0.949 . S
H1782 C1759 0.950 . S
H1783 C1761 0.950 . S
C1784 C1785 1.349 . S
C1784 C1786 1.327 . S
C1784 H1809 0.950 . S
C1785 C1784 1.349 . S
C1785 C1801 1.349 . S
C1786 C1784 1.327 . S
C1786 C1805 1.429 . S
C1786 H1810 0.950 . S
C1787 C1804 1.574 . S
C1787 C1806 1.368 . S
C1787 H1811 0.949 . S
H1788 C1792 0.949 . S
C1789 C1790 1.349 . S
C1789 C1791 1.327 . S
C1789 H1812 0.950 . S
C1790 C1789 1.349 . S
C1790 C1802 1.349 . S
C1791 C1789 1.327 . S
C1791 C1807 1.429 . S
C1791 H1813 0.950 . S
C1792 H1788 0.949 . S
C1792 C1800 1.574 . S
C1792 C1808 1.368 . S
H1793 C1801 0.950 . S
H1794 C1799 0.950 . S
H1795 C1800 0.949 . S
H1796 C1802 0.950 . S
H1797 C1803 0.950 . S
H1798 C1804 0.949 . S
C1799 H1794 0.950 . S
C1799 C1801 1.327 . S
C1799 C1805 1.429 . S
C1800 C1792 1.574 . S
C1800 H1795 0.949 . S
C1800 C1806 1.368 . S
C1801 C1785 1.349 . S
C1801 H1793 0.950 . S
C1801 C1799 1.327 . S
C1802 C1790 1.349 . S
C1802 H1796 0.950 . S
C1802 C1803 1.327 . S
C1803 H1797 0.950 . S
C1803 C1802 1.327 . S
C1803 C1807 1.429 . S
C1804 C1787 1.574 . S
C1804 H1798 0.949 . S
C1804 C1808 1.368 . S
C1805 C1786 1.429 . S
C1805 C1799 1.429 . S
C1805 C1806 1.523 . S
C1806 C1787 1.368 . S
C1806 C1800 1.368 . S
C1806 C1805 1.523 . S
C1807 C1791 1.429 . S
C1807 C1803 1.429 . S
C1807 C1808 1.523 . S
C1808 C1792 1.368 . S
C1808 C1804 1.368 . S
C1808 C1807 1.523 . S
H1809 C1784 0.950 . S
H1810 C1786 0.950 . S
H1811 C1787 0.949 . S
H1812 C1789 0.950 . S
H1813 C1791 0.950 . S
C1814 C1815 1.349 . S
C1814 C1816 1.327 . S
C1814 H1839 0.950 . S
C1815 C1814 1.349 . S
C1815 C1831 1.349 . S
C1816 C1814 1.327 . S
C1816 C1835 1.429 . S
C1816 H1840 0.950 . S
C1817 C1834 1.574 . S
C1817 C1836 1.368 . S
C1817 H1841 0.949 . S
H1818 C1822 0.949 . S
C1819 C1820 1.349 . S
C1819 C1821 1.327 . S
C1819 H1842 0.950 . S
C1820 C1819 1.349 . S
C1820 C1832 1.349 . S
C1821 C1819 1.327 . S
C1821 C1837 1.429 . S
C1821 H1843 0.950 . S
C1822 H1818 0.949 . S
C1822 C1830 1.574 . S
C1822 C1838 1.368 . S
H1823 C1831 0.950 . S
H1824 C1829 0.950 . S
H1825 C1830 0.949 . S
H1826 C1832 0.950 . S
H1827 C1833 0.950 . S
H1828 C1834 0.949 . S
C1829 H1824 0.950 . S
C1829 C1831 1.327 . S
C1829 C1835 1.429 . S
C1830 C1822 1.574 . S
C1830 H1825 0.949 . S
C1830 C1836 1.368 . S
C1831 C1815 1.349 . S
C1831 H1823 0.950 . S
C1831 C1829 1.327 . S
C1832 C1820 1.349 . S
C1832 H1826 0.950 . S
C1832 C1833 1.327 . S
C1833 H1827 0.950 . S
C1833 C1832 1.327 . S
C1833 C1837 1.429 . S
C1834 C1817 1.574 . S
C1834 H1828 0.949 . S
C1834 C1838 1.368 . S
C1835 C1816 1.429 . S
C1835 C1829 1.429 . S
C1835 C1836 1.523 . S
C1836 C1817 1.368 . S
C1836 C1830 1.368 . S
C1836 C1835 1.523 . S
C1837 C1821 1.429 . S
C1837 C1833 1.429 . S
C1837 C1838 1.523 . S
C1838 C1822 1.368 . S
C1838 C1834 1.368 . S
C1838 C1837 1.523 . S
H1839 C1814 0.950 . S
H1840 C1816 0.950 . S
H1841 C1817 0.949 . S
H1842 C1819 0.950 . S
H1843 C1821 0.950 . S
C1844 C1845 1.349 . S
C1844 C1846 1.327 . S
C1844 H1869 0.950 . S
C1845 C1844 1.349 . S
C1845 C1861 1.349 . S
C1846 C1844 1.327 . S
C1846 C1865 1.429 . S
C1846 H1870 0.950 . S
C1847 C1864 1.574 . S
C1847 C1866 1.368 . S
C1847 H1871 0.949 . S
H1848 C1852 0.949 . S
C1849 C1850 1.349 . S
C1849 C1851 1.327 . S
C1849 H1872 0.950 . S
C1850 C1849 1.349 . S
C1850 C1862 1.349 . S
C1851 C1849 1.327 . S
C1851 C1867 1.429 . S
C1851 H1873 0.950 . S
C1852 H1848 0.949 . S
C1852 C1860 1.574 . S
C1852 C1868 1.368 . S
H1853 C1861 0.950 . S
H1854 C1859 0.950 . S
H1855 C1860 0.949 . S
H1856 C1862 0.950 . S
H1857 C1863 0.950 . S
H1858 C1864 0.949 . S
C1859 H1854 0.950 . S
C1859 C1861 1.327 . S
C1859 C1865 1.429 . S
C1860 C1852 1.574 . S
C1860 H1855 0.949 . S
C1860 C1866 1.368 . S
C1861 C1845 1.349 . S
C1861 H1853 0.950 . S
C1861 C1859 1.327 . S
C1862 C1850 1.349 . S
C1862 H1856 0.950 . S
C1862 C1863 1.327 . S
C1863 H1857 0.950 . S
C1863 C1862 1.327 . S
C1863 C1867 1.429 . S
C1864 C1847 1.574 . S
C1864 H1858 0.949 . S
C1864 C1868 1.368 . S
C1865 C1846 1.429 . S
C1865 C1859 1.429 . S
C1865 C1866 1.523 . S
C1866 C1847 1.368 . S
C1866 C1860 1.368 . S
C1866 C1865 1.523 . S
C1867 C1851 1.429 . S
C1867 C1863 1.429 . S
C1867 C1868 1.523 . S
C1868 C1852 1.368 . S
C1868 C1864 1.368 . S
C1868 C1867 1.523 . S
H1869 C1844 0.950 . S
H1870 C1846 0.950 . S
H1871 C1847 0.949 . S
H1872 C1849 0.950 . S
H1873 C1851 0.950 . S
C1874 C1875 1.349 . S
C1874 C1876 1.327 . S
C1874 H1899 0.950 . S
C1875 C1874 1.349 . S
C1875 C1891 1.349 . S
C1876 C1874 1.327 . S
C1876 C1895 1.429 . S
C1876 H1900 0.950 . S
C1877 C1894 1.574 . S
C1877 C1896 1.368 . S
C1877 H1901 0.949 . S
H1878 C1882 0.949 . S
C1879 C1880 1.349 . S
C1879 C1881 1.327 . S
C1879 H1902 0.950 . S
C1880 C1879 1.349 . S
C1880 C1892 1.349 . S
C1881 C1879 1.327 . S
C1881 C1897 1.429 . S
C1881 H1903 0.950 . S
C1882 H1878 0.949 . S
C1882 C1890 1.574 . S
C1882 C1898 1.368 . S
H1883 C1891 0.950 . S
H1884 C1889 0.950 . S
H1885 C1890 0.949 . S
H1886 C1892 0.950 . S
H1887 C1893 0.950 . S
H1888 C1894 0.949 . S
C1889 H1884 0.950 . S
C1889 C1891 1.327 . S
C1889 C1895 1.429 . S
C1890 C1882 1.574 . S
C1890 H1885 0.949 . S
C1890 C1896 1.368 . S
C1891 C1875 1.349 . S
C1891 H1883 0.950 . S
C1891 C1889 1.327 . S
C1892 C1880 1.349 . S
C1892 H1886 0.950 . S
C1892 C1893 1.327 . S
C1893 H1887 0.950 . S
C1893 C1892 1.327 . S
C1893 C1897 1.429 . S
C1894 C1877 1.574 . S
C1894 H1888 0.949 . S
C1894 C1898 1.368 . S
C1895 C1876 1.429 . S
C1895 C1889 1.429 . S
C1895 C1896 1.523 . S
C1896 C1877 1.368 . S
C1896 C1890 1.368 . S
C1896 C1895 1.523 . S
C1897 C1881 1.429 . S
C1897 C1893 1.429 . S
C1897 C1898 1.523 . S
C1898 C1882 1.368 . S
C1898 C1894 1.368 . S
C1898 C1897 1.523 . S
H1899 C1874 0.950 . S
H1900 C1876 0.950 . S
H1901 C1877 0.949 . S
H1902 C1879 0.950 . S
H1903 C1881 0.950 . S
C945 C33 1.695 . S
C950 C741 1.695 . S
C975 C111 1.690 . S
C980 C347 1.689 . S
C1005 C151 1.695 . S
C1010 C859 1.695 . S
C1035 C465 1.690 . S
C1040 C229 1.689 . S
C1065 C878 1.689 . S
C1070 C170 1.689 . S
C1095 C446 1.695 . S
C1100 C210 1.695 . S
C1125 C760 1.689 . S
C1130 C52 1.689 . S
C1155 C328 1.695 . S
C1160 C92 1.695 . S
C1185 C269 1.695 . S
C1190 C505 1.695 . S
C1215 C387 1.695 . S
C1220 C623 1.695 . S
C1245 C642 1.688 . S
C1250 C406 1.688 . S
C1275 C288 1.689 . S
C1280 C524 1.689 . S
C1305 C819 1.689 . S
C1310 C583 1.689 . S
C1335 C701 1.689 . S
C1340 C937 1.689 . S
C1365 C682 1.695 . S
C1370 C918 1.695 . S
C1395 C564 1.695 . S
C1400 C800 1.695 . S
C1425 C654 1.480 . S
C1430 C5 1.480 . S
C1455 C475 1.477 . S
C1460 C62 1.477 . S
C1485 C123 1.480 . S
C1490 C536 1.480 . S
C1515 C593 1.477 . S
C1520 C180 1.477 . S
C1545 C652 1.477 . S
C1550 C121 1.477 . S
C1575 C182 1.480 . S
C1580 C477 1.480 . S
C1605 C534 1.477 . S
C1610 C3 1.477 . S
C1635 C595 1.480 . S
C1640 C64 1.480 . S
C1665 C241 1.480 . S
C1670 C890 1.480 . S
C1695 C711 1.476 . S
C1700 C298 1.476 . S
C1725 C359 1.480 . S
C1730 C772 1.480 . S
C1755 C416 1.476 . S
C1760 C829 1.476 . S
C1785 C357 1.477 . S
C1790 C888 1.477 . S
C1815 C713 1.480 . S
C1820 C418 1.480 . S
C1845 C770 1.477 . S
C1850 C239 1.477 . S
C1875 C831 1.480 . S
C1880 C300 1.480 . S
