# Generated by pormake.
# Topology uki, (4)-cn, num edge types: 1
# Building blocks:
#     Node 0, Type 0, BuildingBlock: QUQFOY_clean_sbu_1, # of connection points: 4
#     Node 1, Type 0, BuildingBlock: QUQFOY_clean_sbu_1, # of connection points: 4
#     Node 2, Type 0, BuildingBlock: QUQFOY_clean_sbu_1, # of connection points: 4
#     Node 3, Type 0, BuildingBlock: QUQFOY_clean_sbu_1, # of connection points: 4
#     Node 4, Type 0, BuildingBlock: QUQFOY_clean_sbu_1, # of connection points: 4
#     Node 5, Type 0, BuildingBlock: QUQFOY_clean_sbu_1, # of connection points: 4
#     Node 6, Type 0, BuildingBlock: QUQFOY_clean_sbu_1, # of connection points: 4
#     Node 7, Type 0, BuildingBlock: QUQFOY_clean_sbu_1, # of connection points: 4
#     Node 8, Type 0, BuildingBlock: QUQFOY_clean_sbu_1, # of connection points: 4
#     Node 9, Type 0, BuildingBlock: QUQFOY_clean_sbu_1, # of connection points: 4
#     Node 10, Type 0, BuildingBlock: QUQFOY_clean_sbu_1, # of connection points: 4
#     Node 11, Type 0, BuildingBlock: QUQFOY_clean_sbu_1, # of connection points: 4
#     Node 12, Type 0, BuildingBlock: QUQFOY_clean_sbu_1, # of connection points: 4
#     Node 13, Type 0, BuildingBlock: QUQFOY_clean_sbu_1, # of connection points: 4
#     Node 14, Type 0, BuildingBlock: QUQFOY_clean_sbu_1, # of connection points: 4
#     Node 15, Type 0, BuildingBlock: QUQFOY_clean_sbu_1, # of connection points: 4
#     Edge 16, Type (0, 0), BuildingBlock: CIFDUS_clean_linker_0, # of connection points: 2
#     Edge 17, Type (0, 0), BuildingBlock: CIFDUS_clean_linker_0, # of connection points: 2
#     Edge 18, Type (0, 0), BuildingBlock: CIFDUS_clean_linker_0, # of connection points: 2
#     Edge 19, Type (0, 0), BuildingBlock: CIFDUS_clean_linker_0, # of connection points: 2
#     Edge 20, Type (0, 0), BuildingBlock: CIFDUS_clean_linker_0, # of connection points: 2
#     Edge 21, Type (0, 0), BuildingBlock: CIFDUS_clean_linker_0, # of connection points: 2
#     Edge 22, Type (0, 0), BuildingBlock: CIFDUS_clean_linker_0, # of connection points: 2
#     Edge 23, Type (0, 0), BuildingBlock: CIFDUS_clean_linker_0, # of connection points: 2
#     Edge 24, Type (0, 0), BuildingBlock: CIFDUS_clean_linker_0, # of connection points: 2
#     Edge 25, Type (0, 0), BuildingBlock: CIFDUS_clean_linker_0, # of connection points: 2
#     Edge 26, Type (0, 0), BuildingBlock: CIFDUS_clean_linker_0, # of connection points: 2
#     Edge 27, Type (0, 0), BuildingBlock: CIFDUS_clean_linker_0, # of connection points: 2
#     Edge 28, Type (0, 0), BuildingBlock: CIFDUS_clean_linker_0, # of connection points: 2
#     Edge 29, Type (0, 0), BuildingBlock: CIFDUS_clean_linker_0, # of connection points: 2
#     Edge 30, Type (0, 0), BuildingBlock: CIFDUS_clean_linker_0, # of connection points: 2
#     Edge 31, Type (0, 0), BuildingBlock: CIFDUS_clean_linker_0, # of connection points: 2
#     Edge 32, Type (0, 0), BuildingBlock: CIFDUS_clean_linker_0, # of connection points: 2
#     Edge 33, Type (0, 0), BuildingBlock: CIFDUS_clean_linker_0, # of connection points: 2
#     Edge 34, Type (0, 0), BuildingBlock: CIFDUS_clean_linker_0, # of connection points: 2
#     Edge 35, Type (0, 0), BuildingBlock: CIFDUS_clean_linker_0, # of connection points: 2
#     Edge 36, Type (0, 0), BuildingBlock: CIFDUS_clean_linker_0, # of connection points: 2
#     Edge 37, Type (0, 0), BuildingBlock: CIFDUS_clean_linker_0, # of connection points: 2
#     Edge 38, Type (0, 0), BuildingBlock: CIFDUS_clean_linker_0, # of connection points: 2
#     Edge 39, Type (0, 0), BuildingBlock: CIFDUS_clean_linker_0, # of connection points: 2
#     Edge 40, Type (0, 0), BuildingBlock: CIFDUS_clean_linker_0, # of connection points: 2
#     Edge 41, Type (0, 0), BuildingBlock: CIFDUS_clean_linker_0, # of connection points: 2
#     Edge 42, Type (0, 0), BuildingBlock: CIFDUS_clean_linker_0, # of connection points: 2
#     Edge 43, Type (0, 0), BuildingBlock: CIFDUS_clean_linker_0, # of connection points: 2
#     Edge 44, Type (0, 0), BuildingBlock: CIFDUS_clean_linker_0, # of connection points: 2
#     Edge 45, Type (0, 0), BuildingBlock: CIFDUS_clean_linker_0, # of connection points: 2
#     Edge 46, Type (0, 0), BuildingBlock: CIFDUS_clean_linker_0, # of connection points: 2
#     Edge 47, Type (0, 0), BuildingBlock: CIFDUS_clean_linker_0, # of connection points: 2
# Relax obj value: 0.033
# Max RMSD: 0.127
# Mean RMSD: 0.127
data_MOF--net-uki--node1-QUQFOY_clean_sbu_1--edge1-CIFDUS_clean_linker_0
_symmetry_space_group_name_H-M    P1
_symmetry_Int_Tables_number       1
_symmetry_cell_setting            triclinic
loop_
_symmetry_equiv_pos_as_xyz
'x, y, z'
_cell_length_a     28.695396
_cell_length_b     28.733326
_cell_length_c     63.584151
_cell_angle_alpha  89.915931
_cell_angle_beta   89.955144
_cell_angle_gamma 89.920862
loop_
_atom_site_label
_atom_site_type_symbol
_atom_site_fract_x
_atom_site_fract_y
_atom_site_fract_z
_atom_type_partial_charge
O0 O 0.13631 0.29572 0.29333 0.0
Cd1 Cd 0.10912 0.26579 0.32011 0.0
Cd2 Cd 0.08555 0.19987 0.29119 0.0
O3 O 0.1312 0.23556 0.27184 0.0
O4 O 0.14427 0.29468 0.34385 0.0
O5 O 0.14771 0.2195 0.33657 0.0
C6 C 0.16185 0.25423 0.34779 0.0
C7 C 0.07478 0.1201 0.28856 0.0
C8 C 0.14419 0.27693 0.27562 0.0
C9 C 0.00894 0.25776 0.31132 0.0
O10 O 0.02232 0.23033 0.29692 0.0
O11 O 0.03807 0.27542 0.32409 0.0
O12 O 0.0659 0.14743 0.27305 0.0
O13 O 0.09369 0.13751 0.3052 0.0
O14 O 0.30482 0.87867 0.73716 0.0
Cd15 Cd 0.27958 0.9077 0.70975 0.0
Cd16 Cd 0.21027 0.93091 0.73822 0.0
O17 O 0.24301 0.88349 0.75789 0.0
O18 O 0.31759 0.87648 0.6875 0.0
O19 O 0.2415 0.86705 0.69014 0.0
C20 C 0.28027 0.85609 0.68103 0.0
C21 C 0.1298 0.94313 0.73705 0.0
C22 C 0.28456 0.87003 0.7545 0.0
C23 C 0.27277 0.00717 0.72041 0.0
O24 O 0.2441 0.99285 0.73417 0.0
O25 O 0.28975 0.97907 0.70696 0.0
O26 O 0.15374 0.95229 0.75365 0.0
O27 O 0.15096 0.92296 0.72159 0.0
O28 O 0.88381 0.70256 0.30069 0.0
Cd29 Cd 0.91824 0.72721 0.32696 0.0
Cd30 Cd 0.93352 0.79803 0.29879 0.0
O31 O 0.88656 0.76411 0.27979 0.0
O32 O 0.89131 0.69035 0.35064 0.0
O33 O 0.88022 0.76609 0.34726 0.0
C34 C 0.87119 0.72782 0.35717 0.0
C35 C 0.94334 0.87823 0.29906 0.0
C36 C 0.873 0.72293 0.28361 0.0
C37 C 0.01609 0.74046 0.3138 0.0
O38 O 0.998 0.76901 0.30098 0.0
O39 O 0.99083 0.71984 0.32738 0.0
O40 O 0.95057 0.85399 0.28238 0.0
O41 O 0.92537 0.85749 0.31518 0.0
O42 O 0.69897 0.11343 0.73792 0.0
Cd43 Cd 0.73078 0.08965 0.71089 0.0
Cd44 Cd 0.79693 0.06758 0.74115 0.0
O45 O 0.75788 0.11102 0.7603 0.0
O46 O 0.69473 0.12103 0.68797 0.0
O47 O 0.76944 0.13452 0.69333 0.0
C48 C 0.7317 0.14416 0.68313 0.0
C49 C 0.87753 0.05845 0.74468 0.0
C50 C 0.71596 0.12164 0.75597 0.0
C51 C 0.74108 0.98985 0.72034 0.0
O52 O 0.76697 1.00447 0.7351 0.0
O53 O 0.72489 0.0181 0.70672 0.0
O54 O 0.84947 0.04852 0.75981 0.0
O55 O 0.86032 0.07709 0.7279 0.0
O56 O 0.13625 0.21431 0.98891 0.0
Cd57 Cd 0.10107 0.23732 0.96262 0.0
Cd58 Cd 0.07625 0.30411 0.99255 0.0
O59 O 0.12586 0.2723 1.01132 0.0
O60 O 0.13053 0.19963 0.93977 0.0
O61 O 0.138 0.27589 0.94157 0.0
C62 C 0.14921 0.23717 0.93256 0.0
C63 C 0.06252 0.38413 0.99179 0.0
C64 C 0.14384 0.23323 1.00662 0.0
C65 C 1.00145 0.2392 0.97564 0.0
O66 O 0.01511 0.26881 0.98906 0.0
O67 O 0.02968 0.22309 0.96198 0.0
O68 O 0.05458 0.3597 1.0084 0.0
O69 O 0.0822 0.36371 0.976 0.0
O70 O 0.21524 0.87795 0.05269 0.0
Cd71 Cd 0.24277 0.91589 0.07713 0.0
Cd72 Cd 0.30196 0.94057 0.04426 0.0
O73 O 0.267 0.88987 0.02747 0.0
O74 O 0.21365 0.88537 0.10218 0.0
O75 O 0.28931 0.8829 0.09591 0.0
C76 C 0.25421 0.86939 0.10711 0.0
C77 C 0.38184 0.95327 0.0416 0.0
C78 C 0.23019 0.87039 0.0342 0.0
C79 C 0.23962 0.015 0.06322 0.0
O80 O 0.26697 1.00162 0.04874 0.0
O81 O 0.22653 0.98684 0.07756 0.0
O82 O 0.35455 0.9597 0.02579 0.0
O83 O 0.36429 0.93631 0.05868 0.0
O84 O 0.87257 0.80474 0.99379 0.0
Cd85 Cd 0.90696 0.77801 0.968 0.0
Cd86 Cd 0.93118 0.71384 0.99971 0.0
O87 O 0.88212 0.74901 1.01747 0.0
O88 O 0.87938 0.81519 0.9445 0.0
O89 O 0.86862 0.73952 0.9475 0.0
C90 C 0.85931 0.77797 0.93781 0.0
C91 C 0.94317 0.63373 1.00203 0.0
C92 C 0.86486 0.78785 1.01193 0.0
C93 C 0.00686 0.77502 0.98093 0.0
O94 O 0.99291 0.7476 0.99526 0.0
O95 O 0.97873 0.78975 0.96691 0.0
O96 O 0.95029 0.66066 1.01787 0.0
O97 O 0.92585 0.65176 0.98513 0.0
O98 O 0.8016 0.14534 0.05291 0.0
Cd99 Cd 0.7789 0.11124 0.07959 0.0
Cd100 Cd 0.71201 0.08502 0.04988 0.0
O101 O 0.74419 0.13286 0.03039 0.0
O102 O 0.81644 0.1421 0.10206 0.0
O103 O 0.73991 0.14823 0.10042 0.0
C104 C 0.7786 0.16038 0.10922 0.0
C105 C 0.63183 0.07203 0.05067 0.0
C106 C 0.78299 0.15148 0.03499 0.0
C107 C 0.77699 0.01107 0.06774 0.0
O108 O 0.74705 0.02399 0.05427 0.0
O109 O 0.79347 0.04002 0.08094 0.0
O110 O 0.65638 0.06281 0.03423 0.0
O111 O 0.65224 0.0925 0.06622 0.0
O112 O 0.64466 0.79322 0.79723 0.0
Cd113 Cd 0.60612 0.7737 0.82316 0.0
Cd114 Cd 0.57457 0.71154 0.79316 0.0
O115 O 0.6243 0.74056 0.77366 0.0
O116 O 0.64093 0.80388 0.8467 0.0
O117 O 0.6355 0.72759 0.84334 0.0
C118 C 0.65292 0.76297 0.85309 0.0
C119 C 0.55781 0.63245 0.79411 0.0
C120 C 0.64827 0.77573 0.77896 0.0
C121 C 0.50583 0.78127 0.81114 0.0
O122 O 0.51567 0.74984 0.79788 0.0
O123 O 0.53664 0.79601 0.82392 0.0
O124 O 0.54924 0.65735 0.77769 0.0
O125 O 0.57959 0.65182 0.80957 0.0
O126 O 0.80712 0.39863 0.24461 0.0
Cd127 Cd 0.76586 0.42086 0.22014 0.0
Cd128 Cd 0.70586 0.41924 0.25059 0.0
O129 O 0.75105 0.37371 0.26547 0.0
O130 O 0.7918 0.39261 0.19389 0.0
O131 O 0.72187 0.37547 0.2065 0.0
C132 C 0.75422 0.36799 0.19273 0.0
C133 C 0.62522 0.41694 0.25154 0.0
C134 C 0.79412 0.37765 0.26119 0.0
C135 C 0.74427 0.51198 0.2361 0.0
O136 O 0.72653 0.48743 0.25067 0.0
O137 O 0.75907 0.49267 0.21937 0.0
O138 O 0.64918 0.42176 0.26851 0.0
O139 O 0.64714 0.40838 0.23422 0.0
O140 O 0.36811 0.2151 0.79419 0.0
Cd141 Cd 0.40448 0.24374 0.81887 0.0
Cd142 Cd 0.42632 0.30544 0.78689 0.0
O143 O 0.37814 0.26852 0.76954 0.0
O144 O 0.37364 0.21518 0.84398 0.0
O145 O 0.37029 0.2905 0.83702 0.0
C146 C 0.35698 0.2557 0.84846 0.0
C147 C 0.43482 0.38556 0.78454 0.0
C148 C 0.36029 0.23057 0.77581 0.0
C149 C 0.5041 0.24717 0.80566 0.0
O150 O 0.48959 0.27471 0.7915 0.0
O151 O 0.47628 0.23088 0.81946 0.0
O152 O 0.44281 0.35902 0.76864 0.0
O153 O 0.41835 0.36697 0.80149 0.0
O154 O 0.21572 0.63054 0.24616 0.0
Cd155 Cd 0.23395 0.60365 0.21722 0.0
Cd156 Cd 0.29984 0.56075 0.24447 0.0
O157 O 0.26786 0.59958 0.2677 0.0
O158 O 0.19522 0.64224 0.19768 0.0
O159 O 0.27195 0.64371 0.19705 0.0
C160 C 0.23287 0.65965 0.18997 0.0
C161 C 0.37909 0.54271 0.24453 0.0
C162 C 0.23248 0.62525 0.26451 0.0
C163 C 0.22946 0.49999 0.22169 0.0
O164 O 0.26264 0.50479 0.23464 0.0
O165 O 0.21261 0.5351 0.21208 0.0
O166 O 0.35165 0.52821 0.25914 0.0
O167 O 0.36227 0.57101 0.23066 0.0
O168 O 0.63955 0.7116 0.4959 0.0
Cd169 Cd 0.60964 0.73599 0.46852 0.0
Cd170 Cd 0.57367 0.79756 0.49706 0.0
O171 O 0.61295 0.76228 0.51913 0.0
O172 O 0.64814 0.70578 0.44612 0.0
O173 O 0.64512 0.78198 0.45042 0.0
C174 C 0.66263 0.74653 0.44071 0.0
C175 C 0.56444 0.87783 0.49631 0.0
C176 C 0.63681 0.72636 0.5147 0.0
C177 C 0.50652 0.73387 0.47468 0.0
O178 O 0.51384 0.76504 0.48836 0.0
O179 O 0.54013 0.71711 0.46398 0.0
O180 O 0.54898 0.85317 0.51173 0.0
O181 O 0.58878 0.8572 0.48196 0.0
O182 O 0.71199 0.38046 0.54848 0.0
Cd183 Cd 0.74155 0.41046 0.57471 0.0
Cd184 Cd 0.81042 0.42271 0.546 0.0
O185 O 0.77617 0.3707 0.52978 0.0
O186 O 0.7125 0.37821 0.59933 0.0
O187 O 0.78738 0.37192 0.59138 0.0
C188 C 0.75255 0.35927 0.60298 0.0
C189 C 0.88984 0.4369 0.5422 0.0
C190 C 0.73292 0.36375 0.53258 0.0
C191 C 0.75362 0.50616 0.5611 0.0
O192 O 0.77876 0.48641 0.54731 0.0
O193 O 0.7364 0.48266 0.57619 0.0
O194 O 0.86191 0.43882 0.52643 0.0
O195 O 0.87363 0.42212 0.55994 0.0
O196 O 0.37692 0.29748 0.49006 0.0
Cd197 Cd 0.41223 0.27215 0.46422 0.0
Cd198 Cd 0.44139 0.21037 0.49669 0.0
O199 O 0.39545 0.24741 0.51514 0.0
O200 O 0.38364 0.30979 0.44111 0.0
O201 O 0.37569 0.23366 0.44302 0.0
C202 C 0.36524 0.27234 0.43378 0.0
C203 C 0.45244 0.13079 0.50088 0.0
C204 C 0.37379 0.28345 0.50897 0.0
C205 C 0.51367 0.27214 0.47596 0.0
O206 O 0.50253 0.2431 0.49012 0.0
O207 O 0.48334 0.28748 0.46305 0.0
O208 O 0.46209 0.15955 0.51573 0.0
O209 O 0.43359 0.14681 0.48391 0.0
O210 O 0.30167 0.62688 0.54259 0.0
Cd211 Cd 0.27067 0.59823 0.56888 0.0
Cd212 Cd 0.20286 0.59615 0.54243 0.0
O213 O 0.2372 0.64864 0.52645 0.0
O214 O 0.29942 0.62799 0.59415 0.0
O215 O 0.22552 0.63803 0.58508 0.0
C216 C 0.25988 0.64843 0.59736 0.0
C217 C 0.12311 0.58577 0.54579 0.0
C218 C 0.28137 0.64883 0.52785 0.0
C219 C 0.25375 0.50688 0.55264 0.0
O220 O 0.23139 0.53125 0.53939 0.0
O221 O 0.27022 0.52594 0.56908 0.0
O222 O 0.14316 0.58512 0.52765 0.0
O223 O 0.14751 0.59864 0.56183 0.0
H224 H 0.10142 0.3408 0.25159 0.0
H225 H 0.23492 0.27774 0.26379 0.0
H226 H 0.2735 0.33816 0.24283 0.0
H227 H 0.2698 0.41616 0.22728 0.0
H228 H 0.1366 0.48179 0.21681 0.0
H229 H 0.09689 0.41225 0.22996 0.0
C230 C 0.1388 0.33969 0.24901 0.0
C231 C 0.16562 0.30535 0.25909 0.0
C232 C 0.16058 0.37502 0.23733 0.0
C233 C 0.21391 0.30393 0.25599 0.0
C234 C 0.23584 0.33854 0.24413 0.0
C235 C 0.23201 0.41456 0.22719 0.0
C236 C 0.20611 0.45423 0.22144 0.0
C237 C 0.20968 0.37533 0.23557 0.0
C238 C 0.15727 0.45169 0.22115 0.0
C239 C 0.1346 0.41218 0.22898 0.0
H240 H 0.42612 0.74005 0.79891 0.0
H241 H 0.48195 0.87217 0.81866 0.0
H242 H 0.41182 0.91164 0.80569 0.0
H243 H 0.34234 0.90939 0.7826 0.0
H244 H 0.28947 0.77733 0.76146 0.0
H245 H 0.35042 0.73666 0.78125 0.0
C246 C 0.42235 0.77738 0.80089 0.0
C247 C 0.45938 0.80332 0.80942 0.0
C248 C 0.38268 0.79975 0.79289 0.0
C249 C 0.45393 0.85149 0.81215 0.0
C250 C 0.41404 0.87408 0.80452 0.0
C251 C 0.34335 0.87165 0.78304 0.0
C252 C 0.31156 0.84608 0.77085 0.0
C253 C 0.37928 0.84876 0.79398 0.0
C254 C 0.31335 0.79738 0.77102 0.0
C255 C 0.3484 0.77427 0.78216 0.0
H256 H 0.81406 0.56774 0.22109 0.0
H257 H 0.69416 0.56703 0.26209 0.0
H258 H 0.72053 0.63848 0.27873 0.0
H259 H 0.7853 0.69132 0.28642 0.0
H260 H 0.90543 0.69338 0.24589 0.0
H261 H 0.87145 0.63169 0.22414 0.0
C262 C 0.79292 0.58421 0.23311 0.0
C263 C 0.75281 0.56163 0.24068 0.0
C264 C 0.80885 0.62504 0.243 0.0
C265 C 0.72565 0.58337 0.25626 0.0
C266 C 0.74079 0.62412 0.26588 0.0
C267 C 0.80313 0.67922 0.27239 0.0
C268 C 0.84758 0.6963 0.26767 0.0
C269 C 0.78354 0.64375 0.26015 0.0
C270 C 0.87088 0.68061 0.24961 0.0
C271 C 0.85162 0.64516 0.23731 0.0
H272 H 0.53774 0.15905 0.80926 0.0
H273 H 0.57903 0.30068 0.79711 0.0
H274 H 0.65409 0.27414 0.78357 0.0
H275 H 0.70112 0.21017 0.76887 0.0
H276 H 0.65755 0.06854 0.77868 0.0
H277 H 0.59082 0.09503 0.7995 0.0
C278 C 0.56397 0.18402 0.80441 0.0
C279 C 0.55299 0.23164 0.80409 0.0
C280 C 0.60638 0.16834 0.79578 0.0
C281 C 0.58685 0.26377 0.79743 0.0
C282 C 0.62962 0.24862 0.78952 0.0
C283 C 0.67779 0.1853 0.77622 0.0
C284 C 0.68402 0.13767 0.77249 0.0
C285 C 0.63881 0.20092 0.78764 0.0
C286 C 0.65333 0.10545 0.78163 0.0
C287 C 0.61508 0.1206 0.79339 0.0
H288 H 0.27991 0.08887 0.04461 0.0
H289 H 0.15486 0.04725 0.07719 0.0
H290 H 0.11573 0.11863 0.06545 0.0
H291 H 0.11313 0.18462 0.04024 0.0
H292 H 0.23686 0.22102 1.00559 0.0
H293 H 0.28086 0.16041 0.02395 0.0
C294 C 0.24439 0.09592 0.04956 0.0
C295 C 0.22 0.06251 0.06142 0.0
C296 C 0.22187 0.13601 0.04217 0.0
C297 C 0.17432 0.07238 0.06801 0.0
C298 C 0.15184 0.113 0.06112 0.0
C299 C 0.15016 0.18024 0.0374 0.0
C300 C 0.17216 0.20727 0.02185 0.0
C301 C 0.17463 0.14394 0.0474 0.0
C302 C 0.21969 0.20085 1.01774 0.0
C303 C 0.24463 0.16597 0.02808 0.0
H304 H 0.18325 0.89646 0.99924 0.0
H305 H 0.2115 0.77941 0.0397 0.0
H306 H 0.1487 0.73532 0.02314 0.0
H307 H 0.07817 0.73556 1.00196 0.0
H308 H 0.04369 0.85516 0.96392 0.0
H309 H 0.117 0.89246 0.97422 0.0
C310 C 0.17651 0.8607 1.00381 0.0
C311 C 0.20192 0.84075 0.02045 0.0
C312 C 0.13879 0.83646 0.99489 0.0
C313 C 0.19249 0.79498 0.02675 0.0
C314 C 0.15641 0.77002 1.01741 0.0
C315 C 0.08702 0.76947 0.99558 0.0
C316 C 0.05511 0.79296 0.98253 0.0
C317 C 0.12809 0.79122 1.00219 0.0
C318 C 0.06752 0.83643 0.97408 0.0
C319 C 0.10928 0.85791 0.98011 0.0
H320 H 0.89801 0.83718 0.04474 0.0
H321 H 0.77237 0.80408 1.01093 0.0
H322 H 0.7308 0.86654 0.02915 0.0
H323 H 0.73429 0.93797 0.04965 0.0
H324 H 0.86165 0.97679 0.08101 0.0
H325 H 0.89829 0.9041 0.06937 0.0
C326 C 0.86111 0.84282 0.04202 0.0
C327 C 0.83784 0.81609 0.02679 0.0
C328 C 0.83811 0.88017 0.05188 0.0
C329 C 0.7905 0.82406 0.02282 0.0
C330 C 0.76695 0.85994 0.0331 0.0
C331 C 0.76981 0.93015 0.05433 0.0
C332 C 0.79552 0.96311 0.06585 0.0
C333 C 0.79098 0.88941 0.04692 0.0
C334 C 0.84117 0.9521 0.07209 0.0
C335 C 0.86224 0.91072 0.06526 0.0
H336 H 0.83006 0.11784 1.00152 0.0
H337 H 0.79747 0.24409 0.03489 0.0
H338 H 0.85824 0.28561 1.01551 0.0
H339 H 0.92878 0.28199 0.99423 0.0
H340 H 0.96718 0.1542 0.96319 0.0
H341 H 0.89543 0.11742 0.97593 0.0
C342 C 0.83532 0.15485 1.00387 0.0
C343 C 0.80929 0.1783 1.01933 0.0
C344 C 0.87181 0.17786 0.99333 0.0
C345 C 0.81687 0.22581 0.02282 0.0
C346 C 0.85182 0.24933 1.01189 0.0
C347 C 0.92101 0.24635 0.98985 0.0
C348 C 0.95365 0.22056 0.97811 0.0
C349 C 0.88081 0.22514 0.99786 0.0
C350 C 0.94272 0.17474 0.97226 0.0
C351 C 0.90189 0.1536 0.97972 0.0
H352 H 0.6211 0.81667 0.74267 0.0
H353 H 0.74047 0.79176 0.78217 0.0
H354 H 0.78481 0.85066 0.76298 0.0
H355 H 0.78368 0.91909 0.74043 0.0
H356 H 0.66135 0.95141 0.70383 0.0
H357 H 0.62455 0.87913 0.71576 0.0
C358 C 0.65739 0.82307 0.74644 0.0
C359 C 0.67786 0.80002 0.76364 0.0
C360 C 0.68177 0.85885 0.73605 0.0
C361 C 0.72442 0.80904 0.76886 0.0
C362 C 0.74955 0.84291 0.758 0.0
C363 C 0.74939 0.90978 0.73462 0.0
C364 C 0.72485 0.94103 0.72164 0.0
C365 C 0.72773 0.86962 0.74237 0.0
C366 C 0.68088 0.9281 0.71392 0.0
C367 C 0.65964 0.88698 0.72094 0.0
H368 H 0.97898 0.34632 0.31082 0.0
H369 H 0.93146 0.20442 0.30811 0.0
H370 H 0.85525 0.23026 0.29532 0.0
H371 H 0.8079 0.29214 0.27868 0.0
H372 H 0.8609 0.43231 0.27716 0.0
H373 H 0.92865 0.40885 0.29784 0.0
C374 C 0.9512 0.32139 0.30823 0.0
C375 C 0.96033 0.27376 0.31052 0.0
C376 C 0.90873 0.33628 0.29957 0.0
C377 C 0.92474 0.2414 0.30658 0.0
C378 C 0.88143 0.25612 0.29904 0.0
C379 C 0.83386 0.31749 0.28337 0.0
C380 C 0.82996 0.36364 0.27641 0.0
C381 C 0.87383 0.30328 0.29449 0.0
C382 C 0.86376 0.39642 0.28229 0.0
C383 C 0.90241 0.38307 0.29409 0.0
H384 H 0.23017 0.07763 0.74066 0.0
H385 H 0.35377 0.04529 0.70485 0.0
H386 H 0.38918 0.11878 0.71605 0.0
H387 H 0.39009 0.18443 0.74135 0.0
H388 H 0.26914 0.21032 0.77978 0.0
H389 H 0.22721 0.14748 0.76215 0.0
C390 C 0.26455 0.087 0.73494 0.0
C391 C 0.28969 0.05564 0.72228 0.0
C392 C 0.28523 0.12808 0.74213 0.0
C393 C 0.33378 0.0687 0.71469 0.0
C394 C 0.35417 0.11055 0.72125 0.0
C395 C 0.35402 0.17712 0.74525 0.0
C396 C 0.33227 0.20186 0.76161 0.0
C397 C 0.33102 0.13943 0.73573 0.0
C398 C 0.28607 0.19177 0.76706 0.0
C399 C 0.26234 0.15572 0.7571 0.0
H400 H 0.06356 0.65971 0.32308 0.0
H401 H 0.08124 0.79812 0.29784 0.0
H402 H 0.15639 0.77652 0.2832 0.0
H403 H 0.20835 0.71437 0.27123 0.0
H404 H 0.19306 0.57603 0.29626 0.0
H405 H 0.12653 0.60145 0.31759 0.0
C406 C 0.08464 0.68546 0.31501 0.0
C407 C 0.06624 0.73001 0.31103 0.0
C408 C 0.12804 0.67263 0.30631 0.0
C409 C 0.09412 0.76319 0.30068 0.0
C410 C 0.13715 0.75092 0.29224 0.0
C411 C 0.19155 0.69039 0.28203 0.0
C412 C 0.20516 0.64359 0.28223 0.0
C413 C 0.15319 0.70513 0.29397 0.0
C414 C 0.18323 0.61246 0.2961 0.0
C415 C 0.14485 0.62686 0.30808 0.0
H416 H 0.67511 0.55547 0.57216 0.0
H417 H 0.80987 0.56899 0.54259 0.0
H418 H 0.78789 0.64424 0.5282 0.0
H419 H 0.72564 0.69811 0.51825 0.0
H420 H 0.59085 0.68692 0.5475 0.0
H421 H 0.61747 0.61955 0.56799 0.0
C422 C 0.70005 0.57566 0.56316 0.0
C423 C 0.74357 0.55619 0.558 0.0
C424 C 0.68693 0.61906 0.55459 0.0
C425 C 0.77572 0.58281 0.54639 0.0
C426 C 0.76321 0.62586 0.5381 0.0
C427 C 0.70278 0.68188 0.52971 0.0
C428 C 0.65656 0.69701 0.53142 0.0
C429 C 0.71818 0.64313 0.54119 0.0
C430 C 0.62685 0.67588 0.54616 0.0
C431 C 0.64191 0.63707 0.55768 0.0
H432 H 0.67716 0.39991 0.50283 0.0
H433 H 0.72596 0.27024 0.5288 0.0
H434 H 0.66587 0.2279 0.50927 0.0
H435 H 0.59168 0.23028 0.49023 0.0
H436 H 0.54066 0.36039 0.46533 0.0
H437 H 0.61038 0.40009 0.47826 0.0
C438 C 0.67535 0.36223 0.5036 0.0
C439 C 0.70549 0.33788 0.5171 0.0
C440 C 0.64026 0.33845 0.49262 0.0
C441 C 0.70307 0.28929 0.51832 0.0
C442 C 0.66861 0.26526 0.50727 0.0
C443 C 0.5965 0.2671 0.4871 0.0
C444 C 0.56079 0.2926 0.47719 0.0
C445 C 0.63585 0.28977 0.49513 0.0
C446 C 0.56764 0.34006 0.47294 0.0
C447 C 0.60724 0.36285 0.48057 0.0
H448 H 0.32113 0.44794 0.56831 0.0
H449 H 0.20597 0.45483 0.52469 0.0
H450 H 0.22933 0.38134 0.5092 0.0
H451 H 0.28959 0.3225 0.50392 0.0
H452 H 0.4044 0.31279 0.54725 0.0
H453 H 0.37377 0.37919 0.56718 0.0
C454 C 0.30054 0.43269 0.5558 0.0
C455 C 0.26269 0.45755 0.5473 0.0
C456 C 0.31435 0.39009 0.54673 0.0
C457 C 0.236 0.43706 0.53122 0.0
C458 C 0.24926 0.39493 0.5223 0.0
C459 C 0.30703 0.33413 0.51812 0.0
C460 C 0.34915 0.31336 0.52409 0.0
C461 C 0.28949 0.37229 0.52929 0.0
C462 C 0.37163 0.32831 0.54249 0.0
C463 C 0.35439 0.36655 0.55374 0.0
H464 H 0.42422 0.77628 0.4824 0.0
H465 H 0.48486 0.64274 0.46785 0.0
H466 H 0.41459 0.60377 0.48062 0.0
H467 H 0.34422 0.60781 0.50282 0.0
H468 H 0.28406 0.74102 0.51796 0.0
H469 H 0.34581 0.78038 0.49801 0.0
C470 C 0.42132 0.7387 0.48136 0.0
C471 C 0.45987 0.71229 0.47457 0.0
C472 C 0.38142 0.71663 0.48929 0.0
C473 C 0.45566 0.66376 0.47302 0.0
C474 C 0.41573 0.64147 0.4806 0.0
C475 C 0.34406 0.64541 0.50118 0.0
C476 C 0.31038 0.6718 0.51191 0.0
C477 C 0.37969 0.6675 0.48985 0.0
C478 C 0.30986 0.72031 0.50974 0.0
C479 C 0.34524 0.74268 0.49846 0.0
H480 H 0.31554 0.20119 0.41555 0.0
H481 H 0.33634 0.34994 0.41306 0.0
H482 H 0.27503 0.3572 0.38689 0.0
H483 H 0.2141 0.32232 0.36527 0.0
H484 H 0.19362 0.17369 0.36624 0.0
H485 H 0.2558 0.16548 0.39243 0.0
C486 C 0.30692 0.2351 0.40914 0.0
C487 C 0.33066 0.27493 0.41639 0.0
C488 C 0.27129 0.2392 0.39393 0.0
C489 C 0.31887 0.31861 0.40786 0.0
C490 C 0.28358 0.32291 0.3929 0.0
C491 C 0.22301 0.28809 0.37126 0.0
C492 C 0.19884 0.24875 0.36395 0.0
C493 C 0.25924 0.28359 0.38599 0.0
C494 C 0.21148 0.20461 0.37167 0.0
C495 C 0.24712 0.1999 0.38662 0.0
H496 H 0.32932 0.69681 0.61618 0.0
H497 H 0.17969 0.68371 0.61463 0.0
H498 H 0.17229 0.74716 0.64013 0.0
H499 H 0.20871 0.80699 0.66285 0.0
H500 H 0.3585 0.82125 0.66268 0.0
H501 H 0.36526 0.7573 0.63782 0.0
C502 C 0.29506 0.70752 0.62155 0.0
C503 C 0.25516 0.68515 0.61366 0.0
C504 C 0.29104 0.7447 0.6358 0.0
C505 C 0.21102 0.70013 0.62053 0.0
C506 C 0.20676 0.73654 0.63507 0.0
C507 C 0.24279 0.79628 0.65727 0.0
C508 C 0.283 0.81911 0.6647 0.0
C509 C 0.24656 0.75928 0.64277 0.0
C510 C 0.32687 0.80462 0.65726 0.0
C511 C 0.33087 0.7678 0.64306 0.0
H512 H 0.71969 0.67911 0.42574 0.0
H513 H 0.69062 0.8259 0.42014 0.0
H514 H 0.75377 0.83386 0.39439 0.0
H515 H 0.81678 0.79841 0.37298 0.0
H516 H 0.84591 0.65168 0.3799 0.0
H517 H 0.78371 0.64469 0.40572 0.0
C518 C 0.72693 0.71287 0.41883 0.0
C519 C 0.70007 0.75175 0.42472 0.0
C520 C 0.76368 0.7173 0.40434 0.0
C521 C 0.71055 0.79533 0.41581 0.0
C522 C 0.74675 0.79991 0.40112 0.0
C523 C 0.8098 0.76503 0.38029 0.0
C524 C 0.83615 0.72564 0.3744 0.0
C525 C 0.7736 0.76108 0.39523 0.0
C526 C 0.82641 0.68264 0.38405 0.0
C527 C 0.79062 0.67849 0.39881 0.0
H528 H 0.80317 0.19803 0.66755 0.0
H529 H 0.65446 0.17715 0.66336 0.0
H530 H 0.64785 0.24271 0.6393 0.0
H531 H 0.6835 0.30636 0.61946 0.0
H532 H 0.8323 0.32622 0.62168 0.0
H533 H 0.83956 0.26123 0.64652 0.0
C534 C 0.76938 0.20769 0.66128 0.0
C535 C 0.7294 0.18247 0.66734 0.0
C536 C 0.76571 0.24562 0.64719 0.0
C537 C 0.68591 0.19561 0.65899 0.0
C538 C 0.68199 0.23335 0.64525 0.0
C539 C 0.71753 0.29681 0.62551 0.0
C540 C 0.75723 0.32154 0.61889 0.0
C541 C 0.72153 0.25875 0.63933 0.0
C542 C 0.80113 0.30798 0.6266 0.0
C543 C 0.80529 0.2707 0.64077 0.0
H544 H 0.20119 0.30825 0.91542 0.0
H545 H 0.17886 0.15984 0.91192 0.0
H546 H 0.24208 0.15262 0.88664 0.0
H547 H 0.30451 0.18749 0.86582 0.0
H548 H 0.32636 0.33587 0.86763 0.0
H549 H 0.26309 0.34391 0.89334 0.0
C550 C 0.2099 0.27442 0.90898 0.0
C551 C 0.18507 0.23467 0.91566 0.0
C552 C 0.24667 0.27035 0.8943 0.0
C553 C 0.19709 0.1911 0.90714 0.0
C554 C 0.2335 0.18682 0.8927 0.0
C555 C 0.2958 0.22162 0.87195 0.0
C556 C 0.3206 0.26094 0.86497 0.0
C557 C 0.25878 0.22606 0.88631 0.0
C558 C 0.3081 0.30495 0.87283 0.0
C559 C 0.27178 0.30958 0.88749 0.0
H560 H 0.30495 0.70849 0.17179 0.0
H561 H 0.15483 0.69816 0.17314 0.0
H562 H 0.14854 0.76335 0.14889 0.0
H563 H 0.18484 0.82294 0.127 0.0
H564 H 0.33465 0.83335 0.12417 0.0
H565 H 0.34176 0.76912 0.1494 0.0
C566 C 0.2709 0.72039 0.16669 0.0
C567 C 0.23045 0.69815 0.17432 0.0
C568 C 0.26738 0.75829 0.15259 0.0
C569 C 0.18662 0.7143 0.16756 0.0
C570 C 0.1829 0.75181 0.1537 0.0
C571 C 0.21914 0.81159 0.13203 0.0
C572 C 0.25914 0.83329 0.12377 0.0
C573 C 0.22295 0.77411 0.14615 0.0
C574 C 0.30323 0.81752 0.13033 0.0
C575 C 0.30732 0.78061 0.1447 0.0
H576 H 0.80267 0.70866 0.92247 0.0
H577 H 0.83614 0.85418 0.91471 0.0
H578 H 0.77444 0.8624 0.88877 0.0
H579 H 0.71025 0.82934 0.86858 0.0
H580 H 0.67684 0.6837 0.87488 0.0
H581 H 0.73873 0.67465 0.90116 0.0
C582 C 0.79673 0.74203 0.91496 0.0
C583 C 0.82422 0.78071 0.92062 0.0
C584 C 0.76077 0.74671 0.89993 0.0
C585 C 0.81575 0.82374 0.91074 0.0
C586 C 0.78025 0.8286 0.89591 0.0
C587 C 0.71615 0.79562 0.8758 0.0
C588 C 0.68852 0.75738 0.8699 0.0
C589 C 0.75229 0.79051 0.89053 0.0
C590 C 0.69734 0.71382 0.87921 0.0
C591 C 0.73288 0.7086 0.89419 0.0
H592 H 0.70598 0.20471 0.12923 0.0
H593 H 0.85623 0.19927 0.12615 0.0
H594 H 0.8616 0.26377 0.15075 0.0
H595 H 0.8243 0.32285 0.17278 0.0
H596 H 0.67454 0.3269 0.17787 0.0
H597 H 0.66834 0.26236 0.15283 0.0
C598 C 0.73986 0.21741 0.13407 0.0
C599 C 0.78061 0.19698 0.12575 0.0
C600 C 0.74285 0.25471 0.14846 0.0
C601 C 0.82422 0.214 0.13227 0.0
C602 C 0.82741 0.25117 0.14631 0.0
C603 C 0.79025 0.30988 0.16829 0.0
C604 C 0.74993 0.3301 0.17697 0.0
C605 C 0.78703 0.27206 0.15436 0.0
C606 C 0.70613 0.31216 0.17132 0.0
C607 C 0.70259 0.27516 0.15704 0.0
H608 H 0.98473 0.92711 0.26794 0.0
H609 H 0.9454 0.93604 0.33335 0.0
H610 H 0.98709 0.01 0.33645 0.0
H611 H 0.03569 0.07164 0.32051 0.0
H612 H 0.0723 0.06281 0.25485 0.0
H613 H 0.03192 0.98823 0.25206 0.0
C614 C 0.98477 0.94538 0.28285 0.0
C615 C 0.96182 0.92614 0.30037 0.0
C616 C 0.00935 0.98725 0.28459 0.0
C617 C 0.96242 0.9503 0.31957 0.0
C618 C 0.98668 0.99232 0.32141 0.0
C619 C 0.0356 0.05275 0.30575 0.0
C620 C 0.05756 0.07198 0.28799 0.0
C621 C 0.0108 0.01078 0.30408 0.0
C622 C 0.0561 0.04815 0.26876 0.0
C623 C 0.03267 0.00585 0.26712 0.0
H624 H 0.931 0.02293 0.71339 0.0
H625 H 0.93276 0.05831 0.77925 0.0
H626 H 0.01051 0.02426 0.78285 0.0
H627 H 0.07684 0.98266 0.76755 0.0
H628 H 0.07403 0.94323 0.70209 0.0
H629 H 0.99737 0.9796 0.69815 0.0
C630 C 0.94891 0.02389 0.7284 0.0
C631 C 0.92672 0.04378 0.74596 0.0
C632 C 0.99286 1.0026 0.73053 0.0
C633 C 0.94952 0.04365 0.76549 0.0
C634 C 0.99376 0.02388 0.76758 0.0
C635 C 0.05937 0.98164 0.75243 0.0
C636 C 0.08116 0.96009 0.73516 0.0
C637 C 0.01548 1.00274 0.75027 0.0
C638 C 0.05793 0.95921 0.7157 0.0
C639 C 0.01425 0.98037 0.71339 0.0
H640 H 0.02294 0.43509 0.02288 0.0
H641 H 0.06096 0.4413 0.95725 0.0
H642 H 0.02357 0.51759 0.95413 0.0
H643 H 0.9796 0.58255 0.97015 0.0
H644 H 0.94507 0.57698 0.03612 0.0
H645 H 0.98058 0.49985 0.0389 0.0
C646 C 0.02342 0.45321 1.0079 0.0
C647 C 0.04487 0.43251 0.99034 0.0
C648 C 1.00169 0.49682 1.00621 0.0
C649 C 0.04505 0.45657 0.97107 0.0
C650 C 0.02332 0.50003 0.96923 0.0
C651 C 0.9792 0.56399 0.98502 0.0
C652 C 0.95917 0.58496 1.00285 0.0
C653 C 1.00116 0.52032 0.98666 0.0
C654 C 0.95992 0.56123 0.02216 0.0
C655 C 0.98048 0.51734 0.02379 0.0
H656 H 0.43328 0.99067 0.0731 0.0
H657 H 0.4381 0.95465 1.00732 0.0
H658 H 0.51523 0.98997 1.00417 0.0
H659 H 0.58037 0.03229 0.01986 0.0
H660 H 0.57482 0.07183 0.08527 0.0
H661 H 0.49839 0.03492 0.08872 0.0
C662 C 0.45167 0.98993 0.05819 0.0
C663 C 0.43052 0.9695 0.04053 0.0
C664 C 0.49533 0.01177 0.05633 0.0
C665 C 0.454 0.96982 0.02116 0.0
C666 C 0.4979 0.99026 1.01932 0.0
C667 C 0.56234 0.03322 0.03485 0.0
C668 C 0.58329 0.0549 0.05226 0.0
C669 C 0.51865 0.01177 0.03674 0.0
C670 C 0.55936 0.05571 0.07156 0.0
C671 C 0.51582 0.03425 0.07359 0.0
H672 H 0.47304 0.43547 0.81617 0.0
H673 H 0.4331 0.44359 0.75091 0.0
H674 H 0.46899 0.52045 0.74801 0.0
H675 H 0.51401 0.58367 0.7636 0.0
H676 H 0.55775 0.57464 0.82842 0.0
H677 H 0.51902 0.49918 0.83182 0.0
C678 C 0.47143 0.45461 0.80147 0.0
C679 C 0.44988 0.43447 0.78385 0.0
C680 C 0.49373 0.49797 0.79972 0.0
C681 C 0.4491 0.45881 0.76471 0.0
C682 C 0.46991 0.5025 0.76301 0.0
C683 C 0.51538 0.56514 0.77846 0.0
C684 C 0.53889 0.58471 0.79571 0.0
C685 C 0.49293 0.52204 0.78032 0.0
C686 C 0.54024 0.56018 0.81484 0.0
C687 C 0.51776 0.51722 0.81685 0.0
H688 H 0.57924 0.46586 0.22188 0.0
H689 H 0.56155 0.3994 0.28217 0.0
H690 H 0.48357 0.43331 0.28542 0.0
H691 H 0.42265 0.48514 0.27201 0.0
H692 H 0.44207 0.55581 0.2127 0.0
H693 H 0.51781 0.51785 0.20837 0.0
C694 C 0.55774 0.45792 0.23546 0.0
C695 C 0.57549 0.4295 0.2516 0.0
C696 C 0.51395 0.4793 0.23763 0.0
C697 C 0.54812 0.42064 0.26945 0.0
C698 C 0.50385 0.44039 0.27139 0.0
C699 C 0.44351 0.4925 0.25817 0.0
C700 C 0.4268 0.5235 0.24275 0.0
C701 C 0.48685 0.47052 0.25578 0.0
C702 C 0.45428 0.53248 0.2249 0.0
C703 C 0.49741 0.51046 0.22233 0.0
H704 H 0.49213 0.07757 0.47077 0.0
H705 H 0.4484 0.07642 0.53564 0.0
H706 H 0.48126 0.99844 0.54022 0.0
H707 H 0.52326 0.93145 0.52592 0.0
H708 H 0.57137 0.93384 0.46161 0.0
H709 H 0.5371 0.01113 0.45677 0.0
C710 C 0.48919 0.05975 0.48577 0.0
C711 C 0.46716 0.08196 0.50275 0.0
C712 C 0.50982 0.01578 0.48849 0.0
C713 C 0.46472 0.05947 0.52232 0.0
C714 C 0.48378 0.01515 0.52497 0.0
C715 C 0.52664 0.94902 0.51089 0.0
C716 C 0.54981 0.92694 0.49415 0.0
C717 C 0.50677 0.99321 0.50822 0.0
C718 C 0.55402 0.95024 0.4748 0.0
C719 C 0.53404 0.99423 0.47196 0.0
H720 H 0.93947 0.48041 0.57275 0.0
H721 H 0.94307 0.44293 0.50709 0.0
H722 H 0.01354 0.48915 0.50213 0.0
H723 H 0.07275 0.54131 0.5161 0.0
H724 H 0.07019 0.57986 0.58167 0.0
H725 H 0.99973 0.53323 0.58688 0.0
C726 C 0.95635 0.48161 0.55749 0.0
C727 C 0.93658 0.45778 0.54036 0.0
C728 C 0.99616 0.50943 0.5546 0.0
C729 C 0.95799 0.46058 0.52054 0.0
C730 C 0.99798 0.48735 0.51765 0.0
C731 C 0.05652 0.54015 0.5315 0.0
C732 C 0.07656 0.56439 0.54843 0.0
C733 C 0.01691 0.51244 0.53448 0.0
C734 C 0.05523 0.56193 0.56832 0.0
C735 C 0.01524 0.53487 0.57135 0.0
loop_
_geom_bond_atom_site_label_1
_geom_bond_atom_site_label_2
_geom_bond_distance
_geom_bond_site_symmetry_2
_ccdc_geom_bond_type
O0 Cd1 2.223 . S
O0 C8 1.315 . S
Cd1 O0 2.223 . S
Cd1 O4 2.297 . S
Cd1 O5 2.439 . S
Cd1 O11 2.240 . S
Cd2 O3 2.240 . S
Cd2 O10 2.223 . S
Cd2 O12 2.297 . S
Cd2 O13 2.439 . S
O3 Cd2 2.240 . S
O3 C8 1.279 . S
O4 Cd1 2.297 . S
O4 C6 1.247 . S
O5 Cd1 2.439 . S
O5 C6 1.208 . S
C6 O4 1.247 . S
C6 O5 1.208 . S
C7 O12 1.247 . S
C7 O13 1.208 . S
C8 O0 1.315 . S
C8 O3 1.279 . S
C9 O10 1.315 . S
C9 O11 1.279 . S
O10 Cd2 2.223 . S
O10 C9 1.315 . S
O11 Cd1 2.240 . S
O11 C9 1.279 . S
O12 Cd2 2.297 . S
O12 C7 1.247 . S
O13 Cd2 2.439 . S
O13 C7 1.208 . S
O14 Cd15 2.223 . S
O14 C22 1.315 . S
Cd15 O14 2.223 . S
Cd15 O18 2.297 . S
Cd15 O19 2.439 . S
Cd15 O25 2.240 . S
Cd16 O17 2.240 . S
Cd16 O24 2.223 . S
Cd16 O26 2.297 . S
Cd16 O27 2.439 . S
O17 Cd16 2.240 . S
O17 C22 1.279 . S
O18 Cd15 2.297 . S
O18 C20 1.247 . S
O19 Cd15 2.439 . S
O19 C20 1.208 . S
C20 O18 1.247 . S
C20 O19 1.208 . S
C21 O26 1.247 . S
C21 O27 1.208 . S
C22 O14 1.315 . S
C22 O17 1.279 . S
C23 O24 1.315 . S
C23 O25 1.279 . S
O24 Cd16 2.223 . S
O24 C23 1.315 . S
O25 Cd15 2.240 . S
O25 C23 1.279 . S
O26 Cd16 2.297 . S
O26 C21 1.247 . S
O27 Cd16 2.439 . S
O27 C21 1.208 . S
O28 Cd29 2.223 . S
O28 C36 1.315 . S
Cd29 O28 2.223 . S
Cd29 O32 2.297 . S
Cd29 O33 2.439 . S
Cd29 O39 2.240 . S
Cd30 O31 2.240 . S
Cd30 O38 2.223 . S
Cd30 O40 2.297 . S
Cd30 O41 2.439 . S
O31 Cd30 2.240 . S
O31 C36 1.279 . S
O32 Cd29 2.297 . S
O32 C34 1.247 . S
O33 Cd29 2.439 . S
O33 C34 1.208 . S
C34 O32 1.247 . S
C34 O33 1.208 . S
C35 O40 1.247 . S
C35 O41 1.208 . S
C36 O28 1.315 . S
C36 O31 1.279 . S
C37 O38 1.315 . S
C37 O39 1.279 . S
O38 Cd30 2.223 . S
O38 C37 1.315 . S
O39 Cd29 2.240 . S
O39 C37 1.279 . S
O40 Cd30 2.297 . S
O40 C35 1.247 . S
O41 Cd30 2.439 . S
O41 C35 1.208 . S
O42 Cd43 2.223 . S
O42 C50 1.315 . S
Cd43 O42 2.223 . S
Cd43 O46 2.297 . S
Cd43 O47 2.439 . S
Cd43 O53 2.240 . S
Cd44 O45 2.240 . S
Cd44 O52 2.223 . S
Cd44 O54 2.297 . S
Cd44 O55 2.439 . S
O45 Cd44 2.240 . S
O45 C50 1.279 . S
O46 Cd43 2.297 . S
O46 C48 1.247 . S
O47 Cd43 2.439 . S
O47 C48 1.208 . S
C48 O46 1.247 . S
C48 O47 1.208 . S
C49 O54 1.247 . S
C49 O55 1.208 . S
C50 O42 1.315 . S
C50 O45 1.279 . S
C51 O52 1.315 . S
C51 O53 1.279 . S
O52 Cd44 2.223 . S
O52 C51 1.315 . S
O53 Cd43 2.240 . S
O53 C51 1.279 . S
O54 Cd44 2.297 . S
O54 C49 1.247 . S
O55 Cd44 2.439 . S
O55 C49 1.208 . S
O56 Cd57 2.223 . S
O56 C64 1.315 . S
Cd57 O56 2.223 . S
Cd57 O60 2.297 . S
Cd57 O61 2.439 . S
Cd57 O67 2.240 . S
Cd58 O59 2.240 . S
Cd58 O66 2.223 . S
Cd58 O68 2.297 . S
Cd58 O69 2.439 . S
O59 Cd58 2.240 . S
O59 C64 1.279 . S
O60 Cd57 2.297 . S
O60 C62 1.247 . S
O61 Cd57 2.439 . S
O61 C62 1.208 . S
C62 O60 1.247 . S
C62 O61 1.208 . S
C63 O68 1.247 . S
C63 O69 1.208 . S
C64 O56 1.315 . S
C64 O59 1.279 . S
C65 O66 1.315 . S
C65 O67 1.279 . S
O66 Cd58 2.223 . S
O66 C65 1.315 . S
O67 Cd57 2.240 . S
O67 C65 1.279 . S
O68 Cd58 2.297 . S
O68 C63 1.247 . S
O69 Cd58 2.439 . S
O69 C63 1.208 . S
O70 Cd71 2.223 . S
O70 C78 1.315 . S
Cd71 O70 2.223 . S
Cd71 O74 2.297 . S
Cd71 O75 2.439 . S
Cd71 O81 2.240 . S
Cd72 O73 2.240 . S
Cd72 O80 2.223 . S
Cd72 O82 2.297 . S
Cd72 O83 2.439 . S
O73 Cd72 2.240 . S
O73 C78 1.279 . S
O74 Cd71 2.297 . S
O74 C76 1.247 . S
O75 Cd71 2.439 . S
O75 C76 1.208 . S
C76 O74 1.247 . S
C76 O75 1.208 . S
C77 O82 1.247 . S
C77 O83 1.208 . S
C78 O70 1.315 . S
C78 O73 1.279 . S
C79 O80 1.315 . S
C79 O81 1.279 . S
O80 Cd72 2.223 . S
O80 C79 1.315 . S
O81 Cd71 2.240 . S
O81 C79 1.279 . S
O82 Cd72 2.297 . S
O82 C77 1.247 . S
O83 Cd72 2.439 . S
O83 C77 1.208 . S
O84 Cd85 2.223 . S
O84 C92 1.315 . S
Cd85 O84 2.223 . S
Cd85 O88 2.297 . S
Cd85 O89 2.439 . S
Cd85 O95 2.240 . S
Cd86 O87 2.240 . S
Cd86 O94 2.223 . S
Cd86 O96 2.297 . S
Cd86 O97 2.439 . S
O87 Cd86 2.240 . S
O87 C92 1.279 . S
O88 Cd85 2.297 . S
O88 C90 1.247 . S
O89 Cd85 2.439 . S
O89 C90 1.208 . S
C90 O88 1.247 . S
C90 O89 1.208 . S
C91 O96 1.247 . S
C91 O97 1.208 . S
C92 O84 1.315 . S
C92 O87 1.279 . S
C93 O94 1.315 . S
C93 O95 1.279 . S
O94 Cd86 2.223 . S
O94 C93 1.315 . S
O95 Cd85 2.240 . S
O95 C93 1.279 . S
O96 Cd86 2.297 . S
O96 C91 1.247 . S
O97 Cd86 2.439 . S
O97 C91 1.208 . S
O98 Cd99 2.223 . S
O98 C106 1.315 . S
Cd99 O98 2.223 . S
Cd99 O102 2.297 . S
Cd99 O103 2.439 . S
Cd99 O109 2.240 . S
Cd100 O101 2.240 . S
Cd100 O108 2.223 . S
Cd100 O110 2.297 . S
Cd100 O111 2.439 . S
O101 Cd100 2.240 . S
O101 C106 1.279 . S
O102 Cd99 2.297 . S
O102 C104 1.247 . S
O103 Cd99 2.439 . S
O103 C104 1.208 . S
C104 O102 1.247 . S
C104 O103 1.208 . S
C105 O110 1.247 . S
C105 O111 1.208 . S
C106 O98 1.315 . S
C106 O101 1.279 . S
C107 O108 1.315 . S
C107 O109 1.279 . S
O108 Cd100 2.223 . S
O108 C107 1.315 . S
O109 Cd99 2.240 . S
O109 C107 1.279 . S
O110 Cd100 2.297 . S
O110 C105 1.247 . S
O111 Cd100 2.439 . S
O111 C105 1.208 . S
O112 Cd113 2.223 . S
O112 C120 1.315 . S
Cd113 O112 2.223 . S
Cd113 O116 2.297 . S
Cd113 O117 2.439 . S
Cd113 O123 2.240 . S
Cd114 O115 2.240 . S
Cd114 O122 2.223 . S
Cd114 O124 2.297 . S
Cd114 O125 2.439 . S
O115 Cd114 2.240 . S
O115 C120 1.279 . S
O116 Cd113 2.297 . S
O116 C118 1.247 . S
O117 Cd113 2.439 . S
O117 C118 1.208 . S
C118 O116 1.247 . S
C118 O117 1.208 . S
C119 O124 1.247 . S
C119 O125 1.208 . S
C120 O112 1.315 . S
C120 O115 1.279 . S
C121 O122 1.315 . S
C121 O123 1.279 . S
O122 Cd114 2.223 . S
O122 C121 1.315 . S
O123 Cd113 2.240 . S
O123 C121 1.279 . S
O124 Cd114 2.297 . S
O124 C119 1.247 . S
O125 Cd114 2.439 . S
O125 C119 1.208 . S
O126 Cd127 2.223 . S
O126 C134 1.315 . S
Cd127 O126 2.223 . S
Cd127 O130 2.297 . S
Cd127 O131 2.439 . S
Cd127 O137 2.240 . S
Cd128 O129 2.240 . S
Cd128 O136 2.223 . S
Cd128 O138 2.297 . S
Cd128 O139 2.439 . S
O129 Cd128 2.240 . S
O129 C134 1.279 . S
O130 Cd127 2.297 . S
O130 C132 1.247 . S
O131 Cd127 2.439 . S
O131 C132 1.208 . S
C132 O130 1.247 . S
C132 O131 1.208 . S
C133 O138 1.247 . S
C133 O139 1.208 . S
C134 O126 1.315 . S
C134 O129 1.279 . S
C135 O136 1.315 . S
C135 O137 1.279 . S
O136 Cd128 2.223 . S
O136 C135 1.315 . S
O137 Cd127 2.240 . S
O137 C135 1.279 . S
O138 Cd128 2.297 . S
O138 C133 1.247 . S
O139 Cd128 2.439 . S
O139 C133 1.208 . S
O140 Cd141 2.223 . S
O140 C148 1.315 . S
Cd141 O140 2.223 . S
Cd141 O144 2.297 . S
Cd141 O145 2.439 . S
Cd141 O151 2.240 . S
Cd142 O143 2.240 . S
Cd142 O150 2.223 . S
Cd142 O152 2.297 . S
Cd142 O153 2.439 . S
O143 Cd142 2.240 . S
O143 C148 1.279 . S
O144 Cd141 2.297 . S
O144 C146 1.247 . S
O145 Cd141 2.439 . S
O145 C146 1.208 . S
C146 O144 1.247 . S
C146 O145 1.208 . S
C147 O152 1.247 . S
C147 O153 1.208 . S
C148 O140 1.315 . S
C148 O143 1.279 . S
C149 O150 1.315 . S
C149 O151 1.279 . S
O150 Cd142 2.223 . S
O150 C149 1.315 . S
O151 Cd141 2.240 . S
O151 C149 1.279 . S
O152 Cd142 2.297 . S
O152 C147 1.247 . S
O153 Cd142 2.439 . S
O153 C147 1.208 . S
O154 Cd155 2.223 . S
O154 C162 1.315 . S
Cd155 O154 2.223 . S
Cd155 O158 2.297 . S
Cd155 O159 2.439 . S
Cd155 O165 2.240 . S
Cd156 O157 2.240 . S
Cd156 O164 2.223 . S
Cd156 O166 2.297 . S
Cd156 O167 2.439 . S
O157 Cd156 2.240 . S
O157 C162 1.279 . S
O158 Cd155 2.297 . S
O158 C160 1.247 . S
O159 Cd155 2.439 . S
O159 C160 1.208 . S
C160 O158 1.247 . S
C160 O159 1.208 . S
C161 O166 1.247 . S
C161 O167 1.208 . S
C162 O154 1.315 . S
C162 O157 1.279 . S
C163 O164 1.315 . S
C163 O165 1.279 . S
O164 Cd156 2.223 . S
O164 C163 1.315 . S
O165 Cd155 2.240 . S
O165 C163 1.279 . S
O166 Cd156 2.297 . S
O166 C161 1.247 . S
O167 Cd156 2.439 . S
O167 C161 1.208 . S
O168 Cd169 2.223 . S
O168 C176 1.315 . S
Cd169 O168 2.223 . S
Cd169 O172 2.297 . S
Cd169 O173 2.439 . S
Cd169 O179 2.240 . S
Cd170 O171 2.240 . S
Cd170 O178 2.223 . S
Cd170 O180 2.297 . S
Cd170 O181 2.439 . S
O171 Cd170 2.240 . S
O171 C176 1.279 . S
O172 Cd169 2.297 . S
O172 C174 1.247 . S
O173 Cd169 2.439 . S
O173 C174 1.208 . S
C174 O172 1.247 . S
C174 O173 1.208 . S
C175 O180 1.247 . S
C175 O181 1.208 . S
C176 O168 1.315 . S
C176 O171 1.279 . S
C177 O178 1.315 . S
C177 O179 1.279 . S
O178 Cd170 2.223 . S
O178 C177 1.315 . S
O179 Cd169 2.240 . S
O179 C177 1.279 . S
O180 Cd170 2.297 . S
O180 C175 1.247 . S
O181 Cd170 2.439 . S
O181 C175 1.208 . S
O182 Cd183 2.223 . S
O182 C190 1.315 . S
Cd183 O182 2.223 . S
Cd183 O186 2.297 . S
Cd183 O187 2.439 . S
Cd183 O193 2.240 . S
Cd184 O185 2.240 . S
Cd184 O192 2.223 . S
Cd184 O194 2.297 . S
Cd184 O195 2.439 . S
O185 Cd184 2.240 . S
O185 C190 1.279 . S
O186 Cd183 2.297 . S
O186 C188 1.247 . S
O187 Cd183 2.439 . S
O187 C188 1.208 . S
C188 O186 1.247 . S
C188 O187 1.208 . S
C189 O194 1.247 . S
C189 O195 1.208 . S
C190 O182 1.315 . S
C190 O185 1.279 . S
C191 O192 1.315 . S
C191 O193 1.279 . S
O192 Cd184 2.223 . S
O192 C191 1.315 . S
O193 Cd183 2.240 . S
O193 C191 1.279 . S
O194 Cd184 2.297 . S
O194 C189 1.247 . S
O195 Cd184 2.439 . S
O195 C189 1.208 . S
O196 Cd197 2.223 . S
O196 C204 1.315 . S
Cd197 O196 2.223 . S
Cd197 O200 2.297 . S
Cd197 O201 2.439 . S
Cd197 O207 2.240 . S
Cd198 O199 2.240 . S
Cd198 O206 2.223 . S
Cd198 O208 2.297 . S
Cd198 O209 2.439 . S
O199 Cd198 2.240 . S
O199 C204 1.279 . S
O200 Cd197 2.297 . S
O200 C202 1.247 . S
O201 Cd197 2.439 . S
O201 C202 1.208 . S
C202 O200 1.247 . S
C202 O201 1.208 . S
C203 O208 1.247 . S
C203 O209 1.208 . S
C204 O196 1.315 . S
C204 O199 1.279 . S
C205 O206 1.315 . S
C205 O207 1.279 . S
O206 Cd198 2.223 . S
O206 C205 1.315 . S
O207 Cd197 2.240 . S
O207 C205 1.279 . S
O208 Cd198 2.297 . S
O208 C203 1.247 . S
O209 Cd198 2.439 . S
O209 C203 1.208 . S
O210 Cd211 2.223 . S
O210 C218 1.315 . S
Cd211 O210 2.223 . S
Cd211 O214 2.297 . S
Cd211 O215 2.439 . S
Cd211 O221 2.240 . S
Cd212 O213 2.240 . S
Cd212 O220 2.223 . S
Cd212 O222 2.297 . S
Cd212 O223 2.439 . S
O213 Cd212 2.240 . S
O213 C218 1.279 . S
O214 Cd211 2.297 . S
O214 C216 1.247 . S
O215 Cd211 2.439 . S
O215 C216 1.208 . S
C216 O214 1.247 . S
C216 O215 1.208 . S
C217 O222 1.247 . S
C217 O223 1.208 . S
C218 O210 1.315 . S
C218 O213 1.279 . S
C219 O220 1.315 . S
C219 O221 1.279 . S
O220 Cd212 2.223 . S
O220 C219 1.315 . S
O221 Cd211 2.240 . S
O221 C219 1.279 . S
O222 Cd212 2.297 . S
O222 C217 1.247 . S
O223 Cd212 2.439 . S
O223 C217 1.208 . S
H224 C230 0.930 . S
H225 C233 0.930 . S
H226 C234 0.930 . S
H227 C235 0.930 . S
H228 C238 0.930 . S
H229 C239 0.930 . S
C230 H224 0.930 . S
C230 C231 1.355 . S
C230 C232 1.415 . S
C231 C230 1.355 . S
C231 C233 1.419 . S
C232 C230 1.415 . S
C232 C237 1.425 . S
C232 C239 1.409 . S
C233 H225 0.930 . S
C233 C231 1.419 . S
C233 C234 1.362 . S
C234 H226 0.930 . S
C234 C233 1.362 . S
C234 C237 1.409 . S
C235 H227 0.930 . S
C235 C236 1.355 . S
C235 C237 1.415 . S
C236 C235 1.355 . S
C236 C238 1.419 . S
C237 C232 1.425 . S
C237 C234 1.409 . S
C237 C235 1.415 . S
C238 H228 0.930 . S
C238 C236 1.419 . S
C238 C239 1.362 . S
C239 H229 0.930 . S
C239 C232 1.409 . S
C239 C238 1.362 . S
H240 C246 0.930 . S
H241 C249 0.930 . S
H242 C250 0.930 . S
H243 C251 0.930 . S
H244 C254 0.930 . S
H245 C255 0.930 . S
C246 H240 0.930 . S
C246 C247 1.355 . S
C246 C248 1.415 . S
C247 C246 1.355 . S
C247 C249 1.419 . S
C248 C246 1.415 . S
C248 C253 1.425 . S
C248 C255 1.409 . S
C249 H241 0.930 . S
C249 C247 1.419 . S
C249 C250 1.362 . S
C250 H242 0.930 . S
C250 C249 1.362 . S
C250 C253 1.409 . S
C251 H243 0.930 . S
C251 C252 1.355 . S
C251 C253 1.415 . S
C252 C251 1.355 . S
C252 C254 1.419 . S
C253 C248 1.425 . S
C253 C250 1.409 . S
C253 C251 1.415 . S
C254 H244 0.930 . S
C254 C252 1.419 . S
C254 C255 1.362 . S
C255 H245 0.930 . S
C255 C248 1.409 . S
C255 C254 1.362 . S
H256 C262 0.930 . S
H257 C265 0.930 . S
H258 C266 0.930 . S
H259 C267 0.930 . S
H260 C270 0.930 . S
H261 C271 0.930 . S
C262 H256 0.930 . S
C262 C263 1.355 . S
C262 C264 1.415 . S
C263 C262 1.355 . S
C263 C265 1.419 . S
C264 C262 1.415 . S
C264 C269 1.425 . S
C264 C271 1.409 . S
C265 H257 0.930 . S
C265 C263 1.419 . S
C265 C266 1.362 . S
C266 H258 0.930 . S
C266 C265 1.362 . S
C266 C269 1.409 . S
C267 H259 0.930 . S
C267 C268 1.355 . S
C267 C269 1.415 . S
C268 C267 1.355 . S
C268 C270 1.419 . S
C269 C264 1.425 . S
C269 C266 1.409 . S
C269 C267 1.415 . S
C270 H260 0.930 . S
C270 C268 1.419 . S
C270 C271 1.362 . S
C271 H261 0.930 . S
C271 C264 1.409 . S
C271 C270 1.362 . S
H272 C278 0.930 . S
H273 C281 0.930 . S
H274 C282 0.930 . S
H275 C283 0.930 . S
H276 C286 0.930 . S
H277 C287 0.930 . S
C278 H272 0.930 . S
C278 C279 1.355 . S
C278 C280 1.415 . S
C279 C278 1.355 . S
C279 C281 1.419 . S
C280 C278 1.415 . S
C280 C285 1.425 . S
C280 C287 1.409 . S
C281 H273 0.930 . S
C281 C279 1.419 . S
C281 C282 1.362 . S
C282 H274 0.930 . S
C282 C281 1.362 . S
C282 C285 1.409 . S
C283 H275 0.930 . S
C283 C284 1.355 . S
C283 C285 1.415 . S
C284 C283 1.355 . S
C284 C286 1.419 . S
C285 C280 1.425 . S
C285 C282 1.409 . S
C285 C283 1.415 . S
C286 H276 0.930 . S
C286 C284 1.419 . S
C286 C287 1.362 . S
C287 H277 0.930 . S
C287 C280 1.409 . S
C287 C286 1.362 . S
H288 C294 0.930 1_556 S
H289 C297 0.930 . S
H290 C298 0.930 . S
H291 C299 0.930 . S
H292 C302 0.930 . S
H293 C303 0.930 . S
C294 H288 0.930 1_554 S
C294 C295 1.355 . S
C294 C296 1.415 1_554 S
C295 C294 1.355 . S
C295 C297 1.419 . S
C296 C294 1.415 1_556 S
C296 C301 1.425 1_556 S
C296 C303 1.409 . S
C297 H289 0.930 . S
C297 C295 1.419 . S
C297 C298 1.362 . S
C298 H290 0.930 . S
C298 C297 1.362 . S
C298 C301 1.409 . S
C299 H291 0.930 . S
C299 C300 1.355 1_554 S
C299 C301 1.415 . S
C300 C299 1.355 1_556 S
C300 C302 1.419 . S
C301 C296 1.425 1_554 S
C301 C298 1.409 . S
C301 C299 1.415 . S
C302 H292 0.930 . S
C302 C300 1.419 . S
C302 C303 1.362 . S
C303 H293 0.930 . S
C303 C296 1.409 . S
C303 C302 1.362 . S
H304 C310 0.930 . S
H305 C313 0.930 . S
H306 C314 0.930 . S
H307 C315 0.953 . S
H308 C318 0.930 . S
H309 C319 0.930 . S
C310 H304 0.930 . S
C310 C311 1.355 1_556 S
C310 C312 1.415 . S
C311 C310 1.355 1_554 S
C311 C313 1.419 . S
C312 C310 1.415 . S
C312 C317 1.425 1_556 S
C312 C319 1.409 . S
C313 H305 0.930 . S
C313 C311 1.419 . S
C313 C314 1.362 . S
C314 H306 0.930 . S
C314 C313 1.362 . S
C314 C317 1.409 . S
C315 H307 0.953 . S
C315 C316 1.328 1_554 S
C315 C317 1.420 . S
C316 C315 1.328 1_556 S
C316 C318 1.419 . S
C317 C312 1.425 1_554 S
C317 C314 1.409 . S
C317 C315 1.420 . S
C318 H308 0.930 . S
C318 C316 1.419 . S
C318 C319 1.362 . S
C319 H309 0.930 . S
C319 C312 1.409 . S
C319 C318 1.362 . S
H320 C326 0.930 . S
H321 C329 0.930 . S
H322 C330 0.930 . S
H323 C331 0.930 . S
H324 C334 0.930 1_545 S
H325 C335 0.930 . S
C326 H320 0.930 . S
C326 C327 1.355 . S
C326 C328 1.415 . S
C327 C326 1.355 . S
C327 C329 1.419 1_556 S
C328 C326 1.415 . S
C328 C333 1.425 1_556 S
C328 C335 1.409 . S
C329 H321 0.930 . S
C329 C327 1.419 1_554 S
C329 C330 1.362 . S
C330 H322 0.930 . S
C330 C329 1.362 . S
C330 C333 1.409 . S
C331 H323 0.930 . S
C331 C332 1.355 . S
C331 C333 1.415 . S
C332 C331 1.355 . S
C332 C334 1.419 1_554 S
C333 C328 1.425 1_554 S
C333 C330 1.409 . S
C333 C331 1.415 . S
C334 H324 0.930 1_565 S
C334 C332 1.419 1_556 S
C334 C335 1.362 . S
C335 H325 0.930 . S
C335 C328 1.409 . S
C335 C334 1.362 . S
H336 C342 0.930 . S
H337 C345 0.930 . S
H338 C346 0.930 . S
H339 C347 0.909 1_554 S
H340 C350 0.930 . S
H341 C351 0.930 . S
C342 H336 0.930 . S
C342 C343 1.355 1_556 S
C342 C344 1.415 . S
C343 C342 1.355 1_554 S
C343 C345 1.419 . S
C344 C342 1.415 . S
C344 C349 1.425 1_556 S
C344 C351 1.409 . S
C345 H337 0.930 . S
C345 C343 1.419 . S
C345 C346 1.362 . S
C346 H338 0.930 . S
C346 C345 1.362 . S
C346 C349 1.409 . S
C347 H339 0.909 1_556 S
C347 C348 1.380 . S
C347 C349 1.410 1_556 S
C348 C347 1.380 . S
C348 C350 1.419 . S
C349 C344 1.425 1_554 S
C349 C346 1.409 . S
C349 C347 1.410 1_554 S
C350 H340 0.930 . S
C350 C348 1.419 . S
C350 C351 1.362 . S
C351 H341 0.930 . S
C351 C344 1.409 . S
C351 C350 1.362 . S
H352 C358 0.930 . S
H353 C361 0.930 . S
H354 C362 0.930 . S
H355 C363 0.930 . S
H356 C366 0.930 . S
H357 C367 0.930 . S
C358 H352 0.930 . S
C358 C359 1.355 . S
C358 C360 1.415 . S
C359 C358 1.355 . S
C359 C361 1.419 . S
C360 C358 1.415 . S
C360 C365 1.425 . S
C360 C367 1.409 . S
C361 H353 0.930 . S
C361 C359 1.419 . S
C361 C362 1.362 . S
C362 H354 0.930 . S
C362 C361 1.362 . S
C362 C365 1.409 . S
C363 H355 0.930 . S
C363 C364 1.355 . S
C363 C365 1.415 . S
C364 C363 1.355 . S
C364 C366 1.419 . S
C365 C360 1.425 . S
C365 C362 1.409 . S
C365 C363 1.415 . S
C366 H356 0.930 . S
C366 C364 1.419 . S
C366 C367 1.362 . S
C367 H357 0.930 . S
C367 C360 1.409 . S
C367 C366 1.362 . S
H368 C374 0.930 . S
H369 C377 0.930 . S
H370 C378 0.930 . S
H371 C379 0.930 . S
H372 C382 0.930 . S
H373 C383 0.930 . S
C374 H368 0.930 . S
C374 C375 1.355 . S
C374 C376 1.415 . S
C375 C374 1.355 . S
C375 C377 1.419 . S
C376 C374 1.415 . S
C376 C381 1.425 . S
C376 C383 1.409 . S
C377 H369 0.930 . S
C377 C375 1.419 . S
C377 C378 1.362 . S
C378 H370 0.930 . S
C378 C377 1.362 . S
C378 C381 1.409 . S
C379 H371 0.930 . S
C379 C380 1.355 . S
C379 C381 1.415 . S
C380 C379 1.355 . S
C380 C382 1.419 . S
C381 C376 1.425 . S
C381 C378 1.409 . S
C381 C379 1.415 . S
C382 H372 0.930 . S
C382 C380 1.419 . S
C382 C383 1.362 . S
C383 H373 0.930 . S
C383 C376 1.409 . S
C383 C382 1.362 . S
H384 C390 0.930 . S
H385 C393 0.930 1_565 S
H386 C394 0.930 . S
H387 C395 0.930 . S
H388 C398 0.930 . S
H389 C399 0.930 . S
C390 H384 0.930 . S
C390 C391 1.355 . S
C390 C392 1.415 . S
C391 C390 1.355 . S
C391 C393 1.419 . S
C392 C390 1.415 . S
C392 C397 1.425 . S
C392 C399 1.409 . S
C393 H385 0.930 1_545 S
C393 C391 1.419 . S
C393 C394 1.362 . S
C394 H386 0.930 . S
C394 C393 1.362 . S
C394 C397 1.409 . S
C395 H387 0.930 . S
C395 C396 1.355 . S
C395 C397 1.415 . S
C396 C395 1.355 . S
C396 C398 1.419 . S
C397 C392 1.425 . S
C397 C394 1.409 . S
C397 C395 1.415 . S
C398 H388 0.930 . S
C398 C396 1.419 . S
C398 C399 1.362 . S
C399 H389 0.930 . S
C399 C392 1.409 . S
C399 C398 1.362 . S
H400 C406 0.930 . S
H401 C409 0.930 . S
H402 C410 0.930 . S
H403 C411 0.930 . S
H404 C414 0.930 . S
H405 C415 0.930 . S
C406 H400 0.930 . S
C406 C407 1.355 . S
C406 C408 1.415 . S
C407 C406 1.355 . S
C407 C409 1.419 . S
C408 C406 1.415 . S
C408 C413 1.425 . S
C408 C415 1.409 . S
C409 H401 0.930 . S
C409 C407 1.419 . S
C409 C410 1.362 . S
C410 H402 0.930 . S
C410 C409 1.362 . S
C410 C413 1.409 . S
C411 H403 0.930 . S
C411 C412 1.355 . S
C411 C413 1.415 . S
C412 C411 1.355 . S
C412 C414 1.419 . S
C413 C408 1.425 . S
C413 C410 1.409 . S
C413 C411 1.415 . S
C414 H404 0.930 . S
C414 C412 1.419 . S
C414 C415 1.362 . S
C415 H405 0.930 . S
C415 C408 1.409 . S
C415 C414 1.362 . S
H416 C422 0.930 . S
H417 C425 0.930 . S
H418 C426 0.930 . S
H419 C427 0.930 . S
H420 C430 0.930 . S
H421 C431 0.930 . S
C422 H416 0.930 . S
C422 C423 1.355 . S
C422 C424 1.415 . S
C423 C422 1.355 . S
C423 C425 1.419 . S
C424 C422 1.415 . S
C424 C429 1.425 . S
C424 C431 1.409 . S
C425 H417 0.930 . S
C425 C423 1.419 . S
C425 C426 1.362 . S
C426 H418 0.930 . S
C426 C425 1.362 . S
C426 C429 1.409 . S
C427 H419 0.930 . S
C427 C428 1.355 . S
C427 C429 1.415 . S
C428 C427 1.355 . S
C428 C430 1.419 . S
C429 C424 1.425 . S
C429 C426 1.409 . S
C429 C427 1.415 . S
C430 H420 0.930 . S
C430 C428 1.419 . S
C430 C431 1.362 . S
C431 H421 0.930 . S
C431 C424 1.409 . S
C431 C430 1.362 . S
H432 C438 0.930 . S
H433 C441 0.930 . S
H434 C442 0.930 . S
H435 C443 0.930 . S
H436 C446 0.930 . S
H437 C447 0.930 . S
C438 H432 0.930 . S
C438 C439 1.355 . S
C438 C440 1.415 . S
C439 C438 1.355 . S
C439 C441 1.419 . S
C440 C438 1.415 . S
C440 C445 1.425 . S
C440 C447 1.409 . S
C441 H433 0.930 . S
C441 C439 1.419 . S
C441 C442 1.362 . S
C442 H434 0.930 . S
C442 C441 1.362 . S
C442 C445 1.409 . S
C443 H435 0.930 . S
C443 C444 1.355 . S
C443 C445 1.415 . S
C444 C443 1.355 . S
C444 C446 1.419 . S
C445 C440 1.425 . S
C445 C442 1.409 . S
C445 C443 1.415 . S
C446 H436 0.930 . S
C446 C444 1.419 . S
C446 C447 1.362 . S
C447 H437 0.930 . S
C447 C440 1.409 . S
C447 C446 1.362 . S
H448 C454 0.930 . S
H449 C457 0.930 . S
H450 C458 0.930 . S
H451 C459 0.930 . S
H452 C462 0.930 . S
H453 C463 0.930 . S
C454 H448 0.930 . S
C454 C455 1.355 . S
C454 C456 1.415 . S
C455 C454 1.355 . S
C455 C457 1.419 . S
C456 C454 1.415 . S
C456 C461 1.425 . S
C456 C463 1.409 . S
C457 H449 0.930 . S
C457 C455 1.419 . S
C457 C458 1.362 . S
C458 H450 0.930 . S
C458 C457 1.362 . S
C458 C461 1.409 . S
C459 H451 0.930 . S
C459 C460 1.355 . S
C459 C461 1.415 . S
C460 C459 1.355 . S
C460 C462 1.419 . S
C461 C456 1.425 . S
C461 C458 1.409 . S
C461 C459 1.415 . S
C462 H452 0.930 . S
C462 C460 1.419 . S
C462 C463 1.362 . S
C463 H453 0.930 . S
C463 C456 1.409 . S
C463 C462 1.362 . S
H464 C470 0.930 . S
H465 C473 0.930 . S
H466 C474 0.930 . S
H467 C475 0.930 . S
H468 C478 0.930 . S
H469 C479 0.930 . S
C470 H464 0.930 . S
C470 C471 1.355 . S
C470 C472 1.415 . S
C471 C470 1.355 . S
C471 C473 1.419 . S
C472 C470 1.415 . S
C472 C477 1.425 . S
C472 C479 1.409 . S
C473 H465 0.930 . S
C473 C471 1.419 . S
C473 C474 1.362 . S
C474 H466 0.930 . S
C474 C473 1.362 . S
C474 C477 1.409 . S
C475 H467 0.930 . S
C475 C476 1.355 . S
C475 C477 1.415 . S
C476 C475 1.355 . S
C476 C478 1.419 . S
C477 C472 1.425 . S
C477 C474 1.409 . S
C477 C475 1.415 . S
C478 H468 0.930 . S
C478 C476 1.419 . S
C478 C479 1.362 . S
C479 H469 0.930 . S
C479 C472 1.409 . S
C479 C478 1.362 . S
H480 C486 0.930 . S
H481 C489 0.930 . S
H482 C490 0.930 . S
H483 C491 0.930 . S
H484 C494 0.930 . S
H485 C495 0.930 . S
C486 H480 0.930 . S
C486 C487 1.355 . S
C486 C488 1.415 . S
C487 C486 1.355 . S
C487 C489 1.419 . S
C488 C486 1.415 . S
C488 C493 1.425 . S
C488 C495 1.409 . S
C489 H481 0.930 . S
C489 C487 1.419 . S
C489 C490 1.362 . S
C490 H482 0.930 . S
C490 C489 1.362 . S
C490 C493 1.409 . S
C491 H483 0.930 . S
C491 C492 1.355 . S
C491 C493 1.415 . S
C492 C491 1.355 . S
C492 C494 1.419 . S
C493 C488 1.425 . S
C493 C490 1.409 . S
C493 C491 1.415 . S
C494 H484 0.930 . S
C494 C492 1.419 . S
C494 C495 1.362 . S
C495 H485 0.930 . S
C495 C488 1.409 . S
C495 C494 1.362 . S
H496 C502 0.930 . S
H497 C505 0.930 . S
H498 C506 0.930 . S
H499 C507 0.930 . S
H500 C510 0.930 . S
H501 C511 0.930 . S
C502 H496 0.930 . S
C502 C503 1.355 . S
C502 C504 1.415 . S
C503 C502 1.355 . S
C503 C505 1.419 . S
C504 C502 1.415 . S
C504 C509 1.425 . S
C504 C511 1.409 . S
C505 H497 0.930 . S
C505 C503 1.419 . S
C505 C506 1.362 . S
C506 H498 0.930 . S
C506 C505 1.362 . S
C506 C509 1.409 . S
C507 H499 0.930 . S
C507 C508 1.355 . S
C507 C509 1.415 . S
C508 C507 1.355 . S
C508 C510 1.419 . S
C509 C504 1.425 . S
C509 C506 1.409 . S
C509 C507 1.415 . S
C510 H500 0.930 . S
C510 C508 1.419 . S
C510 C511 1.362 . S
C511 H501 0.930 . S
C511 C504 1.409 . S
C511 C510 1.362 . S
H512 C518 0.930 . S
H513 C521 0.930 . S
H514 C522 0.930 . S
H515 C523 0.930 . S
H516 C526 0.930 . S
H517 C527 0.930 . S
C518 H512 0.930 . S
C518 C519 1.355 . S
C518 C520 1.415 . S
C519 C518 1.355 . S
C519 C521 1.419 . S
C520 C518 1.415 . S
C520 C525 1.425 . S
C520 C527 1.409 . S
C521 H513 0.930 . S
C521 C519 1.419 . S
C521 C522 1.362 . S
C522 H514 0.930 . S
C522 C521 1.362 . S
C522 C525 1.409 . S
C523 H515 0.930 . S
C523 C524 1.355 . S
C523 C525 1.415 . S
C524 C523 1.355 . S
C524 C526 1.419 . S
C525 C520 1.425 . S
C525 C522 1.409 . S
C525 C523 1.415 . S
C526 H516 0.930 . S
C526 C524 1.419 . S
C526 C527 1.362 . S
C527 H517 0.930 . S
C527 C520 1.409 . S
C527 C526 1.362 . S
H528 C534 0.930 . S
H529 C537 0.930 . S
H530 C538 0.930 . S
H531 C539 0.930 . S
H532 C542 0.930 . S
H533 C543 0.930 . S
C534 H528 0.930 . S
C534 C535 1.355 . S
C534 C536 1.415 . S
C535 C534 1.355 . S
C535 C537 1.419 . S
C536 C534 1.415 . S
C536 C541 1.425 . S
C536 C543 1.409 . S
C537 H529 0.930 . S
C537 C535 1.419 . S
C537 C538 1.362 . S
C538 H530 0.930 . S
C538 C537 1.362 . S
C538 C541 1.409 . S
C539 H531 0.930 . S
C539 C540 1.355 . S
C539 C541 1.415 . S
C540 C539 1.355 . S
C540 C542 1.419 . S
C541 C536 1.425 . S
C541 C538 1.409 . S
C541 C539 1.415 . S
C542 H532 0.930 . S
C542 C540 1.419 . S
C542 C543 1.362 . S
C543 H533 0.930 . S
C543 C536 1.409 . S
C543 C542 1.362 . S
H544 C550 0.930 . S
H545 C553 0.930 . S
H546 C554 0.930 . S
H547 C555 0.930 . S
H548 C558 0.930 . S
H549 C559 0.930 . S
C550 H544 0.930 . S
C550 C551 1.355 . S
C550 C552 1.415 . S
C551 C550 1.355 . S
C551 C553 1.419 . S
C552 C550 1.415 . S
C552 C557 1.425 . S
C552 C559 1.409 . S
C553 H545 0.930 . S
C553 C551 1.419 . S
C553 C554 1.362 . S
C554 H546 0.930 . S
C554 C553 1.362 . S
C554 C557 1.409 . S
C555 H547 0.930 . S
C555 C556 1.355 . S
C555 C557 1.415 . S
C556 C555 1.355 . S
C556 C558 1.419 . S
C557 C552 1.425 . S
C557 C554 1.409 . S
C557 C555 1.415 . S
C558 H548 0.930 . S
C558 C556 1.419 . S
C558 C559 1.362 . S
C559 H549 0.930 . S
C559 C552 1.409 . S
C559 C558 1.362 . S
H560 C566 0.930 . S
H561 C569 0.930 . S
H562 C570 0.930 . S
H563 C571 0.930 . S
H564 C574 0.930 . S
H565 C575 0.930 . S
C566 H560 0.930 . S
C566 C567 1.355 . S
C566 C568 1.415 . S
C567 C566 1.355 . S
C567 C569 1.419 . S
C568 C566 1.415 . S
C568 C573 1.425 . S
C568 C575 1.409 . S
C569 H561 0.930 . S
C569 C567 1.419 . S
C569 C570 1.362 . S
C570 H562 0.930 . S
C570 C569 1.362 . S
C570 C573 1.409 . S
C571 H563 0.930 . S
C571 C572 1.355 . S
C571 C573 1.415 . S
C572 C571 1.355 . S
C572 C574 1.419 . S
C573 C568 1.425 . S
C573 C570 1.409 . S
C573 C571 1.415 . S
C574 H564 0.930 . S
C574 C572 1.419 . S
C574 C575 1.362 . S
C575 H565 0.930 . S
C575 C568 1.409 . S
C575 C574 1.362 . S
H576 C582 0.930 . S
H577 C585 0.930 . S
H578 C586 0.930 . S
H579 C587 0.930 . S
H580 C590 0.930 . S
H581 C591 0.930 . S
C582 H576 0.930 . S
C582 C583 1.355 . S
C582 C584 1.415 . S
C583 C582 1.355 . S
C583 C585 1.419 . S
C584 C582 1.415 . S
C584 C589 1.425 . S
C584 C591 1.409 . S
C585 H577 0.930 . S
C585 C583 1.419 . S
C585 C586 1.362 . S
C586 H578 0.930 . S
C586 C585 1.362 . S
C586 C589 1.409 . S
C587 H579 0.930 . S
C587 C588 1.355 . S
C587 C589 1.415 . S
C588 C587 1.355 . S
C588 C590 1.419 . S
C589 C584 1.425 . S
C589 C586 1.409 . S
C589 C587 1.415 . S
C590 H580 0.930 . S
C590 C588 1.419 . S
C590 C591 1.362 . S
C591 H581 0.930 . S
C591 C584 1.409 . S
C591 C590 1.362 . S
H592 C598 0.930 . S
H593 C601 0.930 . S
H594 C602 0.930 . S
H595 C603 0.930 . S
H596 C606 0.930 . S
H597 C607 0.930 . S
C598 H592 0.930 . S
C598 C599 1.355 . S
C598 C600 1.415 . S
C599 C598 1.355 . S
C599 C601 1.419 . S
C600 C598 1.415 . S
C600 C605 1.425 . S
C600 C607 1.409 . S
C601 H593 0.930 . S
C601 C599 1.419 . S
C601 C602 1.362 . S
C602 H594 0.930 . S
C602 C601 1.362 . S
C602 C605 1.409 . S
C603 H595 0.930 . S
C603 C604 1.355 . S
C603 C605 1.415 . S
C604 C603 1.355 . S
C604 C606 1.419 . S
C605 C600 1.425 . S
C605 C602 1.409 . S
C605 C603 1.415 . S
C606 H596 0.930 . S
C606 C604 1.419 . S
C606 C607 1.362 . S
C607 H597 0.930 . S
C607 C600 1.409 . S
C607 C606 1.362 . S
H608 C614 0.930 . S
H609 C617 0.930 . S
H610 C618 0.930 . S
H611 C619 0.930 . S
H612 C622 0.930 . S
H613 C623 0.930 . S
C614 H608 0.930 . S
C614 C615 1.355 . S
C614 C616 1.415 1_565 S
C615 C614 1.355 . S
C615 C617 1.419 1_655 S
C616 C614 1.415 1_545 S
C616 C621 1.425 1_645 S
C616 C623 1.409 . S
C617 H609 0.930 . S
C617 C615 1.419 1_455 S
C617 C618 1.362 . S
C618 H610 0.930 . S
C618 C617 1.362 . S
C618 C621 1.409 . S
C619 H611 0.930 . S
C619 C620 1.355 . S
C619 C621 1.415 1_545 S
C620 C619 1.355 . S
C620 C622 1.419 1_455 S
C621 C616 1.425 1_465 S
C621 C618 1.409 . S
C621 C619 1.415 1_565 S
C622 H612 0.930 . S
C622 C620 1.419 1_655 S
C622 C623 1.362 . S
C623 H613 0.930 . S
C623 C616 1.409 . S
C623 C622 1.362 . S
H624 C630 0.930 . S
H625 C633 0.930 . S
H626 C634 0.930 . S
H627 C635 0.930 . S
H628 C638 0.930 . S
H629 C639 0.930 . S
C630 H624 0.930 . S
C630 C631 1.355 . S
C630 C632 1.415 . S
C631 C630 1.355 . S
C631 C633 1.419 . S
C632 C630 1.415 . S
C632 C637 1.425 1_645 S
C632 C639 1.409 1_655 S
C633 H625 0.930 . S
C633 C631 1.419 . S
C633 C634 1.362 1_545 S
C634 H626 0.930 . S
C634 C633 1.362 1_565 S
C634 C637 1.409 1_655 S
C635 H627 0.930 . S
C635 C636 1.355 . S
C635 C637 1.415 . S
C636 C635 1.355 . S
C636 C638 1.419 . S
C637 C632 1.425 1_465 S
C637 C634 1.409 1_455 S
C637 C635 1.415 . S
C638 H628 0.930 . S
C638 C636 1.419 . S
C638 C639 1.362 1_565 S
C639 H629 0.930 . S
C639 C632 1.409 1_455 S
C639 C638 1.362 1_545 S
H640 C646 0.929 . S
H641 C649 0.930 . S
H642 C650 0.930 . S
H643 C651 0.929 . S
H644 C654 0.930 . S
H645 C655 0.930 . S
C646 H640 0.929 . S
C646 C647 1.355 1_655 S
C646 C648 1.415 . S
C647 C646 1.355 1_455 S
C647 C649 1.419 . S
C648 C646 1.415 . S
C648 C653 1.425 1_655 S
C648 C655 1.409 . S
C649 H641 0.930 . S
C649 C647 1.419 . S
C649 C650 1.362 . S
C650 H642 0.930 . S
C650 C649 1.362 . S
C650 C653 1.409 . S
C651 H643 0.929 . S
C651 C652 1.355 1_455 S
C651 C653 1.415 . S
C652 C651 1.355 1_655 S
C652 C654 1.419 . S
C653 C648 1.425 1_455 S
C653 C650 1.409 . S
C653 C651 1.415 . S
C654 H644 0.930 . S
C654 C652 1.419 . S
C654 C655 1.362 . S
C655 H645 0.930 . S
C655 C648 1.409 . S
C655 C654 1.362 . S
H656 C662 0.930 . S
H657 C665 0.930 . S
H658 C666 0.930 . S
H659 C667 0.930 . S
H660 C670 0.930 . S
H661 C671 0.930 . S
C662 H656 0.930 . S
C662 C663 1.355 . S
C662 C664 1.415 . S
C663 C662 1.355 . S
C663 C665 1.419 1_565 S
C664 C662 1.415 . S
C664 C669 1.425 1_565 S
C664 C671 1.409 . S
C665 H657 0.930 . S
C665 C663 1.419 1_545 S
C665 C666 1.362 . S
C666 H658 0.930 . S
C666 C665 1.362 . S
C666 C669 1.409 . S
C667 H659 0.930 . S
C667 C668 1.355 . S
C667 C669 1.415 . S
C668 C667 1.355 . S
C668 C670 1.419 1_545 S
C669 C664 1.425 1_545 S
C669 C666 1.409 . S
C669 C667 1.415 . S
C670 H660 0.930 . S
C670 C668 1.419 1_565 S
C670 C671 1.362 . S
C671 H661 0.930 . S
C671 C664 1.409 . S
C671 C670 1.362 . S
H672 C678 0.930 . S
H673 C681 0.930 . S
H674 C682 0.930 . S
H675 C683 0.930 . S
H676 C686 0.930 . S
H677 C687 0.930 . S
C678 H672 0.930 . S
C678 C679 1.355 . S
C678 C680 1.415 . S
C679 C678 1.355 . S
C679 C681 1.419 . S
C680 C678 1.415 . S
C680 C685 1.425 . S
C680 C687 1.409 . S
C681 H673 0.930 . S
C681 C679 1.419 . S
C681 C682 1.362 . S
C682 H674 0.930 . S
C682 C681 1.362 . S
C682 C685 1.409 . S
C683 H675 0.930 . S
C683 C684 1.355 . S
C683 C685 1.415 . S
C684 C683 1.355 . S
C684 C686 1.419 . S
C685 C680 1.425 . S
C685 C682 1.409 . S
C685 C683 1.415 . S
C686 H676 0.930 . S
C686 C684 1.419 . S
C686 C687 1.362 . S
C687 H677 0.930 . S
C687 C680 1.409 . S
C687 C686 1.362 . S
H688 C694 0.930 . S
H689 C697 0.930 . S
H690 C698 0.930 . S
H691 C699 0.930 . S
H692 C702 0.930 . S
H693 C703 0.930 . S
C694 H688 0.930 . S
C694 C695 1.355 . S
C694 C696 1.415 . S
C695 C694 1.355 . S
C695 C697 1.419 . S
C696 C694 1.415 . S
C696 C701 1.425 . S
C696 C703 1.409 . S
C697 H689 0.930 . S
C697 C695 1.419 . S
C697 C698 1.362 . S
C698 H690 0.930 . S
C698 C697 1.362 . S
C698 C701 1.409 . S
C699 H691 0.930 . S
C699 C700 1.355 . S
C699 C701 1.415 . S
C700 C699 1.355 . S
C700 C702 1.419 . S
C701 C696 1.425 . S
C701 C698 1.409 . S
C701 C699 1.415 . S
C702 H692 0.930 . S
C702 C700 1.419 . S
C702 C703 1.362 . S
C703 H693 0.930 . S
C703 C696 1.409 . S
C703 C702 1.362 . S
H704 C710 0.930 . S
H705 C713 0.930 . S
H706 C714 0.930 1_565 S
H707 C715 0.930 . S
H708 C718 0.930 . S
H709 C719 0.930 1_545 S
C710 H704 0.930 . S
C710 C711 1.355 . S
C710 C712 1.415 . S
C711 C710 1.355 . S
C711 C713 1.419 . S
C712 C710 1.415 . S
C712 C717 1.425 1_545 S
C712 C719 1.409 1_545 S
C713 H705 0.930 . S
C713 C711 1.419 . S
C713 C714 1.362 . S
C714 H706 0.930 1_545 S
C714 C713 1.362 . S
C714 C717 1.409 1_545 S
C715 H707 0.930 . S
C715 C716 1.355 . S
C715 C717 1.415 . S
C716 C715 1.355 . S
C716 C718 1.419 . S
C717 C712 1.425 1_565 S
C717 C714 1.409 1_565 S
C717 C715 1.415 . S
C718 H708 0.930 . S
C718 C716 1.419 . S
C718 C719 1.362 . S
C719 H709 0.930 1_565 S
C719 C712 1.409 1_565 S
C719 C718 1.362 . S
H720 C726 0.930 . S
H721 C729 0.930 . S
H722 C730 0.930 . S
H723 C731 0.930 . S
H724 C734 0.930 . S
H725 C735 0.930 . S
C726 H720 0.930 . S
C726 C727 1.355 . S
C726 C728 1.415 1_655 S
C727 C726 1.355 . S
C727 C729 1.419 . S
C728 C726 1.415 1_455 S
C728 C733 1.425 1_455 S
C728 C735 1.409 . S
C729 H721 0.930 . S
C729 C727 1.419 . S
C729 C730 1.362 . S
C730 H722 0.930 . S
C730 C729 1.362 . S
C730 C733 1.409 . S
C731 H723 0.930 . S
C731 C732 1.355 . S
C731 C733 1.415 1_455 S
C732 C731 1.355 . S
C732 C734 1.419 . S
C733 C728 1.425 1_655 S
C733 C730 1.409 . S
C733 C731 1.415 1_655 S
C734 H724 0.930 . S
C734 C732 1.419 . S
C734 C735 1.362 . S
C735 H725 0.930 . S
C735 C728 1.409 . S
C735 C734 1.362 . S
C231 C8 1.344 . S
C236 C163 1.340 . S
C247 C121 1.357 . S
C252 C22 1.256 . S
C263 C135 1.316 . S
C268 C36 1.342 . S
C279 C149 1.343 . S
C284 C50 1.256 . S
C295 C79 1.367 1_545 S
C300 C64 1.268 . S
C311 C78 1.255 . S
C316 C93 1.346 1_455 S
C327 C92 1.346 . S
C332 C107 1.323 1_565 S
C343 C106 1.260 . S
C348 C65 1.362 1_655 S
C359 C120 1.283 . S
C364 C51 1.370 1_565 S
C375 C9 1.316 1_655 S
C380 C134 1.285 . S
C391 C23 1.352 1_545 S
C396 C148 1.335 . S
C407 C37 1.310 1_455 S
C412 C162 1.304 . S
C423 C191 1.311 . S
C428 C176 1.302 . S
C439 C190 1.271 . S
C444 C205 1.368 . S
C455 C219 1.309 . S
C460 C204 1.327 . S
C471 C177 1.350 . S
C476 C218 1.255 . S
C487 C202 1.454 . S
C492 C6 1.486 . S
C503 C216 1.489 . S
C508 C20 1.476 . S
C519 C174 1.484 . S
C524 C34 1.483 . S
C535 C48 1.454 . S
C540 C188 1.483 . S
C551 C62 1.470 . S
C556 C146 1.492 . S
C567 C160 1.478 . S
C572 C76 1.487 . S
C583 C90 1.464 . S
C588 C118 1.494 . S
C599 C104 1.455 . S
C604 C132 1.480 . S
C615 C35 1.412 . S
C620 C7 1.415 . S
C631 C49 1.407 . S
C636 C21 1.425 . S
C647 C63 1.443 . S
C652 C91 1.426 . S
C663 C77 1.418 . S
C668 C105 1.411 . S
C679 C147 1.436 . S
C684 C119 1.438 . S
C695 C133 1.430 . S
C700 C161 1.442 . S
C711 C203 1.420 . S
C716 C175 1.444 . S
C727 C189 1.409 . S
C732 C217 1.420 . S
