# Generated by pormake.
# Topology uki, (4)-cn, num edge types: 1
# Building blocks:
#     Node 0, Type 0, BuildingBlock: QUQFOY_clean_sbu_3, # of connection points: 4
#     Node 1, Type 0, BuildingBlock: QUQFOY_clean_sbu_3, # of connection points: 4
#     Node 2, Type 0, BuildingBlock: QUQFOY_clean_sbu_3, # of connection points: 4
#     Node 3, Type 0, BuildingBlock: QUQFOY_clean_sbu_3, # of connection points: 4
#     Node 4, Type 0, BuildingBlock: QUQFOY_clean_sbu_3, # of connection points: 4
#     Node 5, Type 0, BuildingBlock: QUQFOY_clean_sbu_3, # of connection points: 4
#     Node 6, Type 0, BuildingBlock: QUQFOY_clean_sbu_3, # of connection points: 4
#     Node 7, Type 0, BuildingBlock: QUQFOY_clean_sbu_3, # of connection points: 4
#     Node 8, Type 0, BuildingBlock: QUQFOY_clean_sbu_3, # of connection points: 4
#     Node 9, Type 0, BuildingBlock: QUQFOY_clean_sbu_3, # of connection points: 4
#     Node 10, Type 0, BuildingBlock: QUQFOY_clean_sbu_3, # of connection points: 4
#     Node 11, Type 0, BuildingBlock: QUQFOY_clean_sbu_3, # of connection points: 4
#     Node 12, Type 0, BuildingBlock: QUQFOY_clean_sbu_3, # of connection points: 4
#     Node 13, Type 0, BuildingBlock: QUQFOY_clean_sbu_3, # of connection points: 4
#     Node 14, Type 0, BuildingBlock: QUQFOY_clean_sbu_3, # of connection points: 4
#     Node 15, Type 0, BuildingBlock: QUQFOY_clean_sbu_3, # of connection points: 4
#     Edge 16, Type (0, 0), BuildingBlock: EZIPEK_clean_linker_0, # of connection points: 2
#     Edge 17, Type (0, 0), BuildingBlock: EZIPEK_clean_linker_0, # of connection points: 2
#     Edge 18, Type (0, 0), BuildingBlock: EZIPEK_clean_linker_0, # of connection points: 2
#     Edge 19, Type (0, 0), BuildingBlock: EZIPEK_clean_linker_0, # of connection points: 2
#     Edge 20, Type (0, 0), BuildingBlock: EZIPEK_clean_linker_0, # of connection points: 2
#     Edge 21, Type (0, 0), BuildingBlock: EZIPEK_clean_linker_0, # of connection points: 2
#     Edge 22, Type (0, 0), BuildingBlock: EZIPEK_clean_linker_0, # of connection points: 2
#     Edge 23, Type (0, 0), BuildingBlock: EZIPEK_clean_linker_0, # of connection points: 2
#     Edge 24, Type (0, 0), BuildingBlock: EZIPEK_clean_linker_0, # of connection points: 2
#     Edge 25, Type (0, 0), BuildingBlock: EZIPEK_clean_linker_0, # of connection points: 2
#     Edge 26, Type (0, 0), BuildingBlock: EZIPEK_clean_linker_0, # of connection points: 2
#     Edge 27, Type (0, 0), BuildingBlock: EZIPEK_clean_linker_0, # of connection points: 2
#     Edge 28, Type (0, 0), BuildingBlock: EZIPEK_clean_linker_0, # of connection points: 2
#     Edge 29, Type (0, 0), BuildingBlock: EZIPEK_clean_linker_0, # of connection points: 2
#     Edge 30, Type (0, 0), BuildingBlock: EZIPEK_clean_linker_0, # of connection points: 2
#     Edge 31, Type (0, 0), BuildingBlock: EZIPEK_clean_linker_0, # of connection points: 2
#     Edge 32, Type (0, 0), BuildingBlock: EZIPEK_clean_linker_0, # of connection points: 2
#     Edge 33, Type (0, 0), BuildingBlock: EZIPEK_clean_linker_0, # of connection points: 2
#     Edge 34, Type (0, 0), BuildingBlock: EZIPEK_clean_linker_0, # of connection points: 2
#     Edge 35, Type (0, 0), BuildingBlock: EZIPEK_clean_linker_0, # of connection points: 2
#     Edge 36, Type (0, 0), BuildingBlock: EZIPEK_clean_linker_0, # of connection points: 2
#     Edge 37, Type (0, 0), BuildingBlock: EZIPEK_clean_linker_0, # of connection points: 2
#     Edge 38, Type (0, 0), BuildingBlock: EZIPEK_clean_linker_0, # of connection points: 2
#     Edge 39, Type (0, 0), BuildingBlock: EZIPEK_clean_linker_0, # of connection points: 2
#     Edge 40, Type (0, 0), BuildingBlock: EZIPEK_clean_linker_0, # of connection points: 2
#     Edge 41, Type (0, 0), BuildingBlock: EZIPEK_clean_linker_0, # of connection points: 2
#     Edge 42, Type (0, 0), BuildingBlock: EZIPEK_clean_linker_0, # of connection points: 2
#     Edge 43, Type (0, 0), BuildingBlock: EZIPEK_clean_linker_0, # of connection points: 2
#     Edge 44, Type (0, 0), BuildingBlock: EZIPEK_clean_linker_0, # of connection points: 2
#     Edge 45, Type (0, 0), BuildingBlock: EZIPEK_clean_linker_0, # of connection points: 2
#     Edge 46, Type (0, 0), BuildingBlock: EZIPEK_clean_linker_0, # of connection points: 2
#     Edge 47, Type (0, 0), BuildingBlock: EZIPEK_clean_linker_0, # of connection points: 2
# Relax obj value: 0.094
# Max RMSD: 0.199
# Mean RMSD: 0.197
data_MOF--net-uki--node1-QUQFOY_clean_sbu_3--edge1-EZIPEK_clean_linker_0
_symmetry_space_group_name_H-M    P1
_symmetry_Int_Tables_number       1
_symmetry_cell_setting            triclinic
loop_
_symmetry_equiv_pos_as_xyz
'x, y, z'
_cell_length_a     24.200559
_cell_length_b     23.632009
_cell_length_c     55.525727
_cell_angle_alpha  89.917067
_cell_angle_beta   89.599587
_cell_angle_gamma 89.675175
loop_
_atom_site_label
_atom_site_type_symbol
_atom_site_fract_x
_atom_site_fract_y
_atom_site_fract_z
_atom_type_partial_charge
C0 C 0.02195 0.07592 0.26153 0.0
O1 O 0.01955 0.10565 0.24251 0.0
Cd2 Cd 0.03426 0.2053 0.24043 0.0
O3 O 0.03832 0.0968 0.28135 0.0
Cd4 Cd 0.06457 0.19053 0.29667 0.0
C5 C 0.93144 0.22061 0.2824 0.0
O6 O 0.11234 0.23324 0.26278 0.0
O7 O 0.07665 0.29053 0.28921 0.0
O8 O 0.147 0.15239 0.31622 0.0
C9 C 0.1074 0.28326 0.27086 0.0
O10 O 0.94993 0.23094 0.26133 0.0
C11 C 0.13746 0.17545 0.33648 0.0
O12 O 0.96293 0.20199 0.29905 0.0
O13 O 0.09187 0.20208 0.33893 0.0
C14 C 0.20425 0.78179 0.767 0.0
O15 O 0.16048 0.7952 0.77825 0.0
Cd16 Cd 0.11343 0.87422 0.76062 0.0
O17 O 0.21227 0.79888 0.74552 0.0
Cd18 Cd 0.16892 0.85164 0.7122 0.0
C19 C 0.22456 0.9556 0.74272 0.0
O20 O 0.07053 0.86455 0.72202 0.0
O21 O 0.11061 0.93012 0.70083 0.0
O22 O 0.15789 0.76908 0.68676 0.0
C23 C 0.0665 0.91007 0.70977 0.0
O24 O 0.18407 0.94678 0.75701 0.0
C25 C 0.18533 0.78848 0.66903 0.0
O26 O 0.23307 0.92433 0.72439 0.0
O27 O 0.20715 0.83695 0.67152 0.0
C28 C 0.91471 0.85937 0.25654 0.0
O29 O 0.90341 0.83506 0.23688 0.0
Cd30 Cd 0.89988 0.7347 0.23938 0.0
O31 O 0.90905 0.83374 0.27654 0.0
Cd32 Cd 0.87487 0.74332 0.29245 0.0
C33 C 0.00514 0.71779 0.28113 0.0
O34 O 0.82428 0.69373 0.261 0.0
O35 O 0.87778 0.64349 0.28382 0.0
O36 O 0.79172 0.78591 0.31031 0.0
C37 C 0.8388 0.64518 0.26869 0.0
O38 O -0.01316 0.71523 0.25971 0.0
C39 C 0.79705 0.76237 0.33073 0.0
O40 O -0.02645 0.72971 0.2989 0.0
O41 O 0.84011 0.73221 0.33397 0.0
C42 C 0.7346 0.1689 0.76209 0.0
O43 O 0.77897 0.15407 0.77237 0.0
Cd44 Cd 0.8263 0.07406 0.75549 0.0
O45 O 0.72434 0.153 0.74068 0.0
Cd46 Cd 0.76385 0.10123 0.70574 0.0
C47 C 0.70997 -0.00284 0.73812 0.0
O48 O 0.86054 0.08576 0.71551 0.0
O49 O 0.8226 0.02459 0.6917 0.0
O50 O 0.77529 0.18475 0.68079 0.0
C51 C 0.86537 0.04162 0.7025 0.0
O52 O 0.75092 0.00601 0.75191 0.0
C53 C 0.74728 0.16637 0.66321 0.0
O54 O 0.70107 0.02797 0.71965 0.0
O55 O 0.72425 0.11843 0.66575 0.0
C56 C 0.02565 0.37448 0.98503 0.0
O57 O 0.03405 0.34742 0.00442 0.0
Cd58 Cd 0.04224 0.24756 0.00231 0.0
O59 O 0.03474 0.35215 0.96451 0.0
Cd60 Cd 0.06981 0.26525 0.94546 0.0
C61 C 0.93952 0.23525 0.95873 0.0
O62 O 0.11859 0.22022 0.97822 0.0
O63 O 0.08311 0.16476 0.95147 0.0
O64 O 0.15044 0.30935 0.92626 0.0
C65 C 0.11324 0.17064 0.96988 0.0
O66 O 0.95784 0.23021 0.98007 0.0
C67 C 0.14253 0.28691 0.9058 0.0
O68 O -0.02929 0.24914 0.94111 0.0
O69 O 0.09871 0.25811 0.90324 0.0
C70 C 0.21755 0.79548 0.97796 0.0
O71 O 0.26061 0.80683 0.96581 0.0
Cd72 Cd 0.31866 0.87975 0.98165 0.0
O73 O 0.21291 0.81092 -0.00019 0.0
Cd74 Cd 0.26284 0.85676 0.03292 0.0
C75 C 0.21347 0.96701 0.00367 0.0
O76 O 0.3592 0.87098 0.02073 0.0
O77 O 0.3223 0.93111 0.04593 0.0
O78 O 0.27677 0.77177 0.05667 0.0
C79 C 0.36412 0.91513 0.03381 0.0
O80 O 0.25097 0.95441 0.98835 0.0
C81 C 0.24918 0.78878 0.07485 0.0
O82 O 0.20473 0.93698 0.0224 0.0
O83 O 0.22604 0.83715 0.0734 0.0
C84 C 0.9111 0.58804 0.98054 0.0
O85 O 0.90818 0.61722 -0.00036 0.0
Cd86 Cd 0.88942 0.71625 -0.00094 0.0
O87 O 0.8973 0.60889 0.96036 0.0
Cd88 Cd 0.86797 0.70084 0.94474 0.0
C89 C -0.00269 0.73529 0.96022 0.0
O90 O 0.81269 0.74775 0.97567 0.0
O91 O 0.86138 0.80101 0.95185 0.0
O92 O 0.78763 0.65826 0.92584 0.0
C93 C 0.82258 0.79674 0.96722 0.0
O94 O -0.02426 0.74479 0.9808 0.0
C95 C 0.79605 0.67963 0.90517 0.0
O96 O -0.03104 0.71515 0.94294 0.0
O97 O 0.83981 0.70861 0.90226 0.0
C98 C 0.72027 0.17592 0.98031 0.0
O99 O 0.67767 0.16784 0.96767 0.0
Cd100 Cd 0.60834 0.10175 0.98165 0.0
O101 O 0.72277 0.15652 0.00161 0.0
Cd102 Cd 0.66485 0.10537 0.03071 0.0
C103 C 0.69947 -0.00308 0.99492 0.0
O104 O 0.56589 0.10175 0.02083 0.0
O105 O 0.6032 0.0304 0.03984 0.0
O106 O 0.65658 0.18228 0.05913 0.0
C107 C 0.56031 0.05363 0.03119 0.0
O108 O 0.65835 0.01284 0.98238 0.0
C109 C 0.68265 0.15781 0.07602 0.0
O110 O 0.7156 0.02565 0.01303 0.0
O111 O 0.70255 0.10878 0.07175 0.0
C112 C 0.51854 0.58372 0.75415 0.0
O113 O 0.51421 0.61525 0.73577 0.0
Cd114 Cd 0.52507 0.71529 0.73755 0.0
O115 O 0.53479 0.60349 0.77415 0.0
Cd116 Cd 0.55643 0.69713 0.79059 0.0
C117 C 0.42258 0.72335 0.77953 0.0
O118 O 0.60308 0.75057 0.75898 0.0
O119 O 0.55437 0.79877 0.78472 0.0
O120 O 0.64405 0.66969 0.80887 0.0
C121 C 0.5908 0.79833 0.76815 0.0
O122 O 0.43965 0.73652 0.75853 0.0
C123 C 0.62972 0.68118 0.83036 0.0
O124 O 0.45548 0.70362 0.79534 0.0
O125 O 0.58003 0.69756 0.83365 0.0
C126 C 0.71099 0.27304 0.26615 0.0
O127 O 0.66638 0.28415 0.27724 0.0
Cd128 Cd 0.61478 0.36033 0.25959 0.0
O129 O 0.71799 0.28935 0.24449 0.0
Cd130 Cd 0.67015 0.3375 0.21086 0.0
C131 C 0.72234 0.44503 0.23987 0.0
O132 O 0.57189 0.35177 0.22106 0.0
O133 O 0.61236 0.41554 0.19895 0.0
O134 O 0.65795 0.25395 0.18599 0.0
C135 C 0.56837 0.39711 0.2086 0.0
O136 O 0.68294 0.4347 0.25455 0.0
C137 C 0.68511 0.27267 0.16804 0.0
O138 O 0.73182 0.41349 0.2217 0.0
O139 O 0.70756 0.32092 0.17022 0.0
C140 C 0.42112 0.36213 0.75188 0.0
O141 O 0.4108 0.3337 0.73314 0.0
Cd142 Cd 0.41319 0.23462 0.73975 0.0
O143 O 0.41668 0.34006 0.77272 0.0
Cd144 Cd 0.38776 0.25178 0.79284 0.0
C145 C 0.51934 0.23114 0.78176 0.0
O146 O 0.33722 0.19827 0.76268 0.0
O147 O 0.3883 0.14965 0.78701 0.0
O148 O 0.30391 0.29224 0.8112 0.0
C149 C 0.35012 0.15037 0.77146 0.0
O150 O 0.50142 0.2246 0.76044 0.0
C151 C 0.3143 0.27537 0.83242 0.0
O152 O 0.48686 0.24346 0.79913 0.0
O153 O 0.36033 0.25026 0.83563 0.0
C154 C 0.22252 0.65474 0.25954 0.0
O155 O 0.26679 0.64499 0.2709 0.0
Cd156 Cd 0.32305 0.56941 0.25546 0.0
O157 O 0.2161 0.63651 0.2382 0.0
Cd158 Cd 0.2659 0.58939 0.20475 0.0
C159 C 0.21719 0.48147 0.23597 0.0
O160 O 0.36266 0.57739 0.21607 0.0
O161 O 0.32744 0.51491 0.19193 0.0
O162 O 0.27725 0.67389 0.18051 0.0
C163 C 0.36895 0.53268 0.20342 0.0
O164 O 0.25508 0.49454 0.25076 0.0
C165 C 0.25035 0.65582 0.16255 0.0
O166 O 0.20836 0.51029 0.21693 0.0
O167 O 0.22867 0.60702 0.16435 0.0
C168 C 0.52063 0.86933 0.4803 0.0
O169 O 0.51982 0.84068 0.4996 0.0
Cd170 Cd 0.53175 0.74066 0.50039 0.0
O171 O 0.53391 0.84652 0.46035 0.0
Cd172 Cd 0.5547 0.75087 0.44546 0.0
C173 C 0.42299 0.72636 0.46227 0.0
O174 O 0.60684 0.70289 0.47701 0.0
O175 O 0.55718 0.65044 0.45368 0.0
O176 O 0.63868 0.78049 0.42458 0.0
C177 C 0.59513 0.6538 0.46928 0.0
O178 O 0.4434 0.7181 0.48305 0.0
C179 C 0.62461 0.76342 0.40387 0.0
O180 O 0.45303 0.74216 0.44453 0.0
O181 O 0.57617 0.74317 0.40193 0.0
C182 C 0.73752 0.28204 0.47374 0.0
O183 O 0.78276 0.29424 0.46347 0.0
Cd184 Cd 0.83043 0.37181 0.48131 0.0
O185 O 0.72733 0.29904 0.49507 0.0
Cd186 Cd 0.77058 0.34962 0.52919 0.0
C187 C 0.71987 0.4567 0.49842 0.0
O188 O 0.86961 0.3617 0.52046 0.0
O189 O 0.82851 0.4267 0.54179 0.0
O190 O 0.77973 0.26699 0.55493 0.0
C191 C 0.87293 0.40692 0.53288 0.0
O192 O 0.76102 0.44666 0.48459 0.0
C193 C 0.75144 0.28703 0.57233 0.0
O194 O 0.70922 0.42518 0.51648 0.0
O195 O 0.72972 0.33567 0.56942 0.0
C196 C 0.42445 0.09287 0.48375 0.0
O197 O 0.41418 0.11961 0.50303 0.0
Cd198 Cd 0.41769 0.21905 0.49806 0.0
O199 O 0.42 0.11697 0.46334 0.0
Cd200 Cd 0.38987 0.20744 0.4452 0.0
C201 C 0.52207 0.22433 0.45454 0.0
O202 O 0.34135 0.25928 0.47694 0.0
O203 O 0.3914 0.30901 0.4525 0.0
O204 O 0.30542 0.16698 0.42843 0.0
C205 C 0.3542 0.30766 0.46871 0.0
O206 O 0.5049 0.22904 0.47618 0.0
C207 C 0.31244 0.18676 0.40737 0.0
O208 O 0.48888 0.21441 0.43737 0.0
O209 O 0.35692 0.21382 0.40338 0.0
C210 C 0.2046 0.66934 0.48096 0.0
O211 O 0.16029 0.65678 0.47025 0.0
Cd212 Cd 0.11212 0.57664 0.48641 0.0
O213 O 0.21342 0.65185 0.5023 0.0
Cd214 Cd 0.17267 0.59967 0.53659 0.0
C215 C 0.22923 0.49928 0.50307 0.0
O216 O 0.07643 0.58391 0.52648 0.0
O217 O 0.11578 0.52152 0.54964 0.0
O218 O 0.15972 0.68289 0.56149 0.0
C219 C 0.07267 0.53876 0.53898 0.0
O220 O 0.18816 0.50862 0.48933 0.0
C221 C 0.18779 0.66449 0.57913 0.0
O222 O 0.2372 0.52854 0.522 0.0
O223 O 0.21115 0.61641 0.57675 0.0
C224 C 0.10183 0.38014 0.25265 0.0
C225 C 0.13395 0.33174 0.25873 0.0
C226 C 0.2165 0.37779 0.24269 0.0
C227 C 0.18631 0.42909 0.24067 0.0
N228 N 0.10125 0.48149 0.24609 0.0
N229 N 0.22386 0.28749 0.26281 0.0
C230 C 0.12905 0.43097 0.24606 0.0
C231 C 0.1918 0.33097 0.25439 0.0
N232 N 0.04546 0.37707 0.25252 0.0
N233 N 0.26873 0.37381 0.23326 0.0
H234 H 0.20808 0.25312 0.27235 0.0
H235 H 0.26689 0.2882 0.26239 0.0
H236 H 0.28776 0.40724 0.22419 0.0
H237 H 0.29071 0.33584 0.23222 0.0
H238 H 0.02022 0.40958 0.24615 0.0
H239 H 0.02413 0.33986 0.25637 0.0
H240 H 0.06105 0.48611 0.25266 0.0
H241 H 0.11974 0.51967 0.24129 0.0
C242 C 0.32835 0.69101 0.76823 0.0
C243 C 0.36213 0.72387 0.78366 0.0
C244 C 0.28158 0.77897 0.79681 0.0
C245 C 0.24991 0.75114 0.77895 0.0
N246 N 0.23551 0.669 0.75474 0.0
N247 N 0.36942 0.78646 0.81765 0.0
C248 C 0.27091 0.70268 0.76723 0.0
C249 C 0.338 0.76314 0.79992 0.0
N250 N 0.3518 0.65092 0.75358 0.0
N251 N 0.25892 0.823 0.80946 0.0
H252 H 0.41117 0.77685 0.81979 0.0
H253 H 0.35362 0.81192 0.83135 0.0
H254 H 0.21726 0.83387 0.80851 0.0
H255 H 0.28128 0.84981 0.82053 0.0
H256 H 0.33072 0.63 0.74001 0.0
H257 H 0.39355 0.64007 0.75431 0.0
H258 H 0.24673 0.63044 0.74705 0.0
H259 H 0.19316 0.67765 0.7541 0.0
C260 C 0.76663 0.53785 0.2288 0.0
C261 C 0.75893 0.49289 0.24538 0.0
C262 C 0.80019 0.54894 0.27728 0.0
C263 C 0.81239 0.59238 0.26035 0.0
N264 N 0.82122 0.61976 0.21846 0.0
N265 N 0.78469 0.44902 0.2829 0.0
C266 C 0.79978 0.58449 0.2356 0.0
C267 C 0.7811 0.49632 0.26882 0.0
N268 N 0.74061 0.53748 0.20704 0.0
N269 N 0.80336 0.55849 0.30151 0.0
H270 H 0.77304 0.40916 0.27676 0.0
H271 H 0.80512 0.4484 0.29937 0.0
H272 H 0.81353 0.59742 0.30895 0.0
H273 H 0.78955 0.5294 0.3143 0.0
H274 H 0.74025 0.57229 0.19549 0.0
H275 H 0.71546 0.50445 0.20142 0.0
H276 H 0.81708 0.61251 0.20005 0.0
H277 H 0.8485 0.65227 0.22245 0.0
C278 C 0.60254 0.17821 0.79645 0.0
C279 C 0.57955 0.2268 0.78538 0.0
C280 C 0.66845 0.24941 0.76668 0.0
C281 C 0.68994 0.19784 0.77571 0.0
N282 N 0.68528 0.12494 0.80619 0.0
N283 N 0.59358 0.31833 0.76759 0.0
C284 C 0.65976 0.16652 0.7932 0.0
C285 C 0.61384 0.2659 0.77313 0.0
N286 N 0.56905 0.14122 0.8085 0.0
N287 N 0.69951 0.28093 0.75109 0.0
H288 H 0.55372 0.33104 0.7726 0.0
H289 H 0.61747 0.35057 0.76021 0.0
H290 H 0.74072 0.27096 0.74722 0.0
H291 H 0.68421 0.31551 0.74154 0.0
H292 H 0.58186 0.10126 0.81417 0.0
H293 H 0.52728 0.14943 0.81176 0.0
H294 H 0.66644 0.10391 0.82052 0.0
H295 H 0.72706 0.11517 0.8043 0.0
C296 C 0.12723 0.02221 0.99475 0.0
C297 C 0.18423 0.02102 0.00024 0.0
C298 C 0.19433 0.11908 0.98719 0.0
C299 C 0.13693 0.12107 0.98227 0.0
N300 N 0.04628 0.08059 0.98792 0.0
N301 N 0.26795 0.07182 0.00871 0.0
C302 C 0.10248 0.07447 0.98811 0.0
C303 C 0.21635 0.07083 -0.00115 0.0
N304 N 0.09745 0.97326 0.99466 0.0
N305 N 0.22853 0.16121 0.97931 0.0
H306 H 0.28488 0.03714 0.01776 0.0
H307 H 0.29133 0.10853 0.01013 0.0
H308 H 0.21474 0.19662 0.96985 0.0
H309 H 0.27146 0.15846 0.98015 0.0
H310 H 0.0574 0.97075 0.98801 0.0
H311 H 0.11412 0.93424 -0.0003 0.0
H312 H 0.01934 0.04944 0.99406 0.0
H313 H 0.02673 0.11897 0.98404 0.0
C314 C 0.13573 0.80407 0.95068 0.0
C315 C 0.16871 0.77047 0.96634 0.0
C316 C 0.09193 0.70582 0.97309 0.0
C317 C 0.05804 0.74063 0.95826 0.0
N318 N 0.05067 0.81316 0.92796 0.0
N319 N 0.18467 0.6818 0.98624 0.0
C320 C 0.08125 0.78613 0.94512 0.0
C321 C 0.14886 0.71849 0.97532 0.0
N322 N 0.15471 0.85521 0.94271 0.0
N323 N 0.06905 0.6626 0.9861 0.0
H324 H 0.22668 0.69067 0.98794 0.0
H325 H 0.17414 0.64084 0.99138 0.0
H326 H 0.02764 0.6513 0.98476 0.0
H327 H 0.09012 0.64003 -0.00069 0.0
H328 H 0.13003 0.88495 0.93397 0.0
H329 H 0.19455 0.86962 0.94599 0.0
H330 H 0.0669 0.84325 0.91621 0.0
H331 H 0.01011 0.8019 0.92407 0.0
C332 C 0.78001 0.859 -0.00083 0.0
C333 C 0.79006 0.8471 0.97448 0.0
C334 C 0.7447 0.93595 0.96323 0.0
C335 C 0.72964 0.94489 0.98777 0.0
N336 N 0.72047 0.90629 0.02794 0.0
N337 N 0.77024 0.86814 0.9327 0.0
C338 C 0.74367 0.90394 0.00545 0.0
C339 C 0.76905 0.88378 0.95642 0.0
N340 N 0.80699 0.82937 0.0167 0.0
N341 N 0.738 -0.02232 0.94638 0.0
H342 H 0.78745 0.83035 0.92655 0.0
H343 H 0.7491 0.89016 0.91931 0.0
H344 H 0.71969 0.01671 0.94984 0.0
H345 H 0.75533 -0.02455 0.92917 0.0
H346 H 0.8051 0.8404 0.03485 0.0
H347 H 0.83598 0.79787 0.01294 0.0
H348 H 0.72538 0.87424 0.04068 0.0
H349 H 0.69129 0.93676 0.03298 0.0
C350 C 0.78519 0.25097 0.96509 0.0
C351 C 0.77258 0.19304 0.9685 0.0
C352 C 0.86494 0.1661 0.95396 0.0
C353 C 0.88054 0.2233 0.95515 0.0
N354 N 0.85712 0.32164 0.95975 0.0
N355 N 0.80018 0.09466 0.9667 0.0
C356 C 0.84077 0.2664 0.95963 0.0
C357 C 0.8121 0.15029 0.96263 0.0
N358 N 0.74437 0.29075 0.96753 0.0
N359 N 0.90139 0.12699 0.94494 0.0
H360 H 0.76172 0.08136 0.97284 0.0
H361 H 0.82917 0.06205 0.96557 0.0
H362 H 0.94055 0.13819 0.9386 0.0
H363 H 0.89118 0.08501 0.94159 0.0
H364 H 0.74961 0.33347 0.96365 0.0
H365 H 0.70374 0.28011 0.97193 0.0
H366 H 0.83212 0.35517 0.96533 0.0
H367 H 0.89705 0.33368 0.95478 0.0
C368 C 0.63415 0.89242 0.77688 0.0
C369 C 0.61704 0.85152 0.75978 0.0
C370 C 0.66015 0.90712 0.72754 0.0
C371 C 0.67239 0.95021 0.74441 0.0
N372 N 0.65485 -0.00904 0.78356 0.0
N373 N 0.59961 0.82964 0.71796 0.0
C374 C 0.654 0.94517 0.76858 0.0
C375 C 0.62571 0.8617 0.7348 0.0
N376 N 0.63515 0.88004 0.80093 0.0
N377 N 0.68338 0.90755 0.70504 0.0
H378 H 0.57125 0.79839 0.72248 0.0
H379 H 0.60101 0.83882 0.6996 0.0
H380 H 0.71028 0.9389 0.69906 0.0
H381 H 0.68004 0.8737 0.69313 0.0
H382 H 0.65208 0.90718 0.81365 0.0
H383 H 0.62552 0.84034 0.80791 0.0
H384 H 0.6375 -0.0095 0.8008 0.0
H385 H 0.66699 0.03099 0.77768 0.0
C386 C 0.83859 0.18607 0.27011 0.0
C387 C 0.87057 0.22107 0.28546 0.0
C388 C 0.78802 0.27598 0.2963 0.0
C389 C 0.75823 0.24574 0.27849 0.0
N390 N 0.74751 0.16129 0.2553 0.0
N391 N 0.87431 0.28779 0.31807 0.0
C392 C 0.78115 0.19679 0.26782 0.0
C393 C 0.84452 0.26175 0.30048 0.0
N394 N 0.86386 0.14453 0.25682 0.0
N395 N 0.76339 0.32042 0.30797 0.0
H396 H 0.91602 0.27915 0.32095 0.0
H397 H 0.85734 0.31484 0.33092 0.0
H398 H 0.72175 0.33061 0.30606 0.0
H399 H 0.78401 0.3483 0.31919 0.0
H400 H 0.84451 0.12185 0.24327 0.0
H401 H 0.90546 0.13398 0.25872 0.0
H402 H 0.76003 0.12231 0.24842 0.0
H403 H 0.70512 0.16891 0.25378 0.0
C404 C 0.28445 0.00435 0.77229 0.0
C405 C 0.2632 0.00158 0.74864 0.0
C406 C 0.31145 0.08908 0.7386 0.0
C407 C 0.32308 0.09749 0.7634 0.0
N408 N 0.3104 0.06592 0.8047 0.0
N409 N 0.25 0.04615 0.70986 0.0
C410 C 0.30723 0.05572 0.78053 0.0
C411 C 0.2751 0.04508 0.73183 0.0
N412 N 0.28376 0.95758 0.78678 0.0
N413 N 0.33673 0.12135 0.72139 0.0
H414 H 0.2221 0.01549 0.70429 0.0
H415 H 0.25305 0.08041 0.69809 0.0
H416 H 0.36669 0.1512 0.72546 0.0
H417 H 0.33309 0.11348 0.703 0.0
H418 H 0.30334 0.95609 0.80344 0.0
H419 H 0.2693 0.91849 0.78091 0.0
H420 H 0.29393 0.03864 0.81762 0.0
H421 H 0.32366 0.10404 0.8119 0.0
C422 C 0.08271 0.651 0.28914 0.0
C423 C 0.06457 0.70695 0.28452 0.0
C424 C 0.15638 0.73315 0.26965 0.0
C425 C 0.17335 0.67616 0.27254 0.0
N426 N 0.15922 0.58424 0.29044 0.0
N427 N 0.08561 0.80464 0.27715 0.0
C428 C 0.13871 0.63634 0.28436 0.0
C429 C 0.10227 0.7493 0.27716 0.0
N430 N 0.0454 0.6113 0.29658 0.0
N431 N 0.19115 0.77082 0.25875 0.0
H432 H 0.04607 0.81689 0.28279 0.0
H433 H 0.11176 0.83847 0.27356 0.0
H434 H 0.23177 0.76032 0.25404 0.0
H435 H 0.17947 0.8115 0.2536 0.0
H436 H 0.05378 0.5681 0.29732 0.0
H437 H 0.00471 0.62163 0.30121 0.0
H438 H 0.13768 0.55481 0.30076 0.0
H439 H 0.19982 0.57184 0.28675 0.0
C440 C 0.66399 0.50934 0.4683 0.0
C441 C 0.68298 0.50453 0.49227 0.0
C442 C 0.63554 0.59315 0.50235 0.0
C443 C 0.62497 0.60241 0.4775 0.0
N444 N 0.64234 0.57404 0.4362 0.0
N445 N 0.69458 0.54709 0.53148 0.0
C446 C 0.64263 0.56172 0.46025 0.0
C447 C 0.67079 0.54774 0.50924 0.0
N448 N 0.66522 0.46354 0.45331 0.0
N449 N 0.61037 0.62597 0.51947 0.0
H450 H 0.72168 0.51538 0.53711 0.0
H451 H 0.69142 0.58085 0.54347 0.0
H452 H 0.58203 0.65773 0.51529 0.0
H453 H 0.61286 0.6174 0.53785 0.0
H454 H 0.64732 0.46383 0.43629 0.0
H455 H 0.67826 0.42361 0.45902 0.0
H456 H 0.65955 0.54725 0.42323 0.0
H457 H 0.63132 0.61361 0.42946 0.0
C458 C 0.66257 0.28787 0.44322 0.0
C459 C 0.69237 0.25497 0.46023 0.0
C460 C 0.61642 0.18748 0.46189 0.0
C461 C 0.58225 0.22787 0.45034 0.0
N462 N 0.57217 0.31524 0.42843 0.0
N463 N 0.70121 0.17017 0.48386 0.0
C464 C 0.60543 0.27702 0.4399 0.0
C465 C 0.6707 0.20304 0.46862 0.0
N466 N 0.68841 0.33007 0.43075 0.0
N467 N 0.59633 0.13468 0.4665 0.0
H468 H 0.7422 0.17952 0.48797 0.0
H469 H 0.68552 0.13512 0.49294 0.0
H470 H 0.55671 0.12273 0.46125 0.0
H471 H 0.62031 0.10162 0.47324 0.0
H472 H 0.66996 0.35229 0.41671 0.0
H473 H 0.7301 0.33937 0.43286 0.0
H474 H 0.58511 0.35544 0.42325 0.0
H475 H 0.5305 0.30765 0.42512 0.0
C476 C 0.28211 0.40944 0.51159 0.0
C477 C 0.26892 0.4547 0.49585 0.0
C478 C 0.31165 0.40408 0.4622 0.0
C479 C 0.32836 0.36027 0.4782 0.0
N480 N 0.345 0.33211 0.51944 0.0
N481 N 0.28734 0.50299 0.45836 0.0
C482 C 0.31836 0.36617 0.50334 0.0
C483 C 0.28912 0.4546 0.47185 0.0
N484 N 0.25821 0.40589 0.5339 0.0
N485 N 0.31359 0.39659 0.4378 0.0
H486 H 0.27284 0.5414 0.46526 0.0
H487 H 0.30602 0.50635 0.44145 0.0
H488 H 0.32645 0.35921 0.42958 0.0
H489 H 0.29653 0.42552 0.42573 0.0
H490 H 0.26223 0.37033 0.54489 0.0
H491 H 0.23037 0.43588 0.54057 0.0
H492 H 0.34245 0.33805 0.53802 0.0
H493 H 0.37501 0.30279 0.51424 0.0
C494 C 0.33671 0.68078 0.44664 0.0
C495 C 0.36212 0.72393 0.46027 0.0
C496 C 0.27389 0.74637 0.48012 0.0
C497 C 0.25006 0.69943 0.46842 0.0
N498 N 0.25153 0.63588 0.43441 0.0
N499 N 0.35318 0.80767 0.48479 0.0
C500 C 0.27894 0.67163 0.44943 0.0
C501 C 0.32981 0.76036 0.47515 0.0
N502 N 0.36834 0.64591 0.43249 0.0
N503 N 0.24341 0.77548 0.49686 0.0
H504 H 0.39461 0.81787 0.48212 0.0
H505 H 0.33113 0.83882 0.49402 0.0
H506 H 0.20132 0.76794 0.49952 0.0
H507 H 0.2595 0.80576 0.5084 0.0
H508 H 0.35363 0.60904 0.42462 0.0
H509 H 0.41053 0.65205 0.42971 0.0
H510 H 0.26937 0.61789 0.4191 0.0
H511 H 0.20925 0.62867 0.43574 0.0
C512 C 0.24351 0.23377 0.38017 0.0
C513 C 0.26799 0.1832 0.38905 0.0
C514 C 0.20177 0.12721 0.36573 0.0
C515 C 0.18111 0.17774 0.35516 0.0
N516 N 0.19081 0.27828 0.34845 0.0
N517 N 0.27588 0.08151 0.38789 0.0
C518 C 0.20427 0.23082 0.36132 0.0
C519 C 0.24851 0.12973 0.38122 0.0
N520 N 0.25577 0.28466 0.39046 0.0
N521 N 0.17568 0.07708 0.36151 0.0
H522 H 0.31043 0.08185 0.39902 0.0
H523 H 0.2674 0.04174 0.38083 0.0
H524 H 0.14137 0.07387 0.35034 0.0
H525 H 0.18499 0.03968 0.37059 0.0
H526 H 0.23453 0.32199 0.38654 0.0
H527 H 0.28329 0.28881 0.40469 0.0
H528 H 0.21125 0.31667 0.35038 0.0
H529 H 0.16306 0.27823 0.33417 0.0
C530 C 0.13746 0.70796 0.61401 0.0
C531 C 0.18841 0.69563 0.6023 0.0
C532 C 0.23842 0.7406 0.63543 0.0
C533 C 0.18719 0.75778 0.64577 0.0
N534 N 0.08835 0.76882 0.6419 0.0
N535 N 0.2872 0.7074 0.59977 0.0
C536 C 0.13679 0.74456 0.63422 0.0
C537 C 0.23897 0.71383 0.61244 0.0
N538 N 0.08983 0.68277 0.60652 0.0
N539 N 0.28629 0.74794 0.64794 0.0
H540 H 0.28911 0.68827 0.58286 0.0
H541 H 0.32447 0.72519 0.60505 0.0
H542 H 0.28743 0.76711 0.66483 0.0
H543 H 0.32413 0.73086 0.64252 0.0
H544 H 0.05266 0.68561 0.61604 0.0
H545 H 0.08851 0.65417 0.59225 0.0
H546 H 0.0514 0.76534 0.63252 0.0
H547 H 0.08604 0.79728 0.65622 0.0
C548 C 0.67886 0.71356 0.37107 0.0
C549 C 0.66482 0.76444 0.3834 0.0
C550 C 0.73947 0.81399 0.36178 0.0
C551 C 0.75133 0.76387 0.3487 0.0
N552 N 0.72357 0.67047 0.33647 0.0
N553 N 0.67379 0.8657 0.38674 0.0
C554 C 0.7184 0.715 0.35204 0.0
C555 C 0.69292 0.81548 0.37767 0.0
N556 N 0.65677 0.66312 0.37826 0.0
N557 N 0.77354 0.85964 0.3595 0.0
H558 H 0.63886 0.86855 0.3978 0.0
H559 H 0.68902 0.90496 0.38148 0.0
H560 H 0.8074 0.86016 0.34776 0.0
H561 H 0.77083 0.89525 0.37048 0.0
H562 H 0.67093 0.6241 0.37197 0.0
H563 H 0.62751 0.65946 0.39197 0.0
H564 H 0.69658 0.63628 0.33635 0.0
H565 H 0.75142 0.67026 0.32206 0.0
C566 C 0.79819 0.2082 0.62821 0.0
C567 C 0.74703 0.19688 0.63985 0.0
C568 C 0.69764 0.24098 0.60612 0.0
C569 C 0.74906 0.25716 0.59582 0.0
N570 N 0.84778 0.2676 0.60008 0.0
N571 N 0.64819 0.20961 0.64188 0.0
C572 C 0.79922 0.244 0.60772 0.0
C573 C 0.69666 0.21514 0.62935 0.0
N574 N 0.84571 0.18276 0.63605 0.0
N575 N 0.65002 0.24838 0.59338 0.0
H576 H 0.64601 0.19115 0.65893 0.0
H577 H 0.61098 0.22748 0.63631 0.0
H578 H 0.64924 0.26689 0.57633 0.0
H579 H 0.61206 0.232 0.59881 0.0
H580 H 0.88302 0.18484 0.62662 0.0
H581 H 0.84682 0.15465 0.65054 0.0
H582 H 0.88448 0.26419 0.60968 0.0
H583 H 0.85037 0.29555 0.58557 0.0
C584 C 0.20316 0.33512 0.87484 0.0
C585 C 0.18716 0.28537 0.88733 0.0
C586 C 0.25261 0.2293 0.86322 0.0
C587 C 0.2719 0.2795 0.85192 0.0
N588 N 0.27185 0.38139 0.8496 0.0
N589 N 0.20577 0.18773 0.89749 0.0
C590 C 0.24884 0.33286 0.85843 0.0
C591 C 0.21456 0.23324 0.88271 0.0
N592 N 0.17375 0.38405 0.87817 0.0
N593 N 0.26822 0.17745 0.85455 0.0
H594 H 0.17869 0.18869 0.91219 0.0
H595 H 0.22935 0.15076 0.89662 0.0
H596 H 0.29484 0.17223 0.83992 0.0
H597 H 0.25044 0.13969 0.86031 0.0
H598 H 0.17939 0.42027 0.86777 0.0
H599 H 0.14062 0.3871 0.89024 0.0
H600 H 0.26062 0.42171 0.85544 0.0
H601 H 0.30572 0.38128 0.83788 0.0
C602 C 0.29943 0.70294 0.12829 0.0
C603 C 0.24884 0.68861 0.13977 0.0
C604 C 0.19757 0.73613 0.10745 0.0
C605 C 0.2483 0.7553 0.09746 0.0
N606 N 0.34691 0.76715 0.10139 0.0
N607 N 0.14972 0.6983 0.14244 0.0
C608 C 0.2991 0.74153 0.10871 0.0
C609 C 0.19777 0.70692 0.12993 0.0
N610 N 0.34773 0.67791 0.13543 0.0
N611 N 0.14951 0.74398 0.09507 0.0
H612 H 0.1483 0.67726 0.15896 0.0
H613 H 0.11198 0.71601 0.13748 0.0
H614 H 0.14782 0.76491 0.07854 0.0
H615 H 0.11215 0.72568 0.10015 0.0
H616 H 0.38485 0.68225 0.12601 0.0
H617 H 0.34977 0.64811 0.14928 0.0
H618 H 0.38402 0.76324 0.11067 0.0
H619 H 0.34847 0.79699 0.08755 0.0
C620 C 0.75122 0.63376 0.86934 0.0
C621 C 0.75247 0.67789 0.88655 0.0
C622 C 0.67545 0.72538 0.86636 0.0
C623 C 0.67054 0.67885 0.85033 0.0
N624 N 0.69647 0.58285 0.84018 0.0
N625 N 0.70597 0.75693 0.90542 0.0
C626 C 0.70651 0.6313 0.85278 0.0
C627 C 0.71147 0.72092 0.88632 0.0
N628 N 0.79282 0.59446 0.86872 0.0
N629 N 0.64853 0.77528 0.86187 0.0
H630 H 0.73037 0.75372 0.92076 0.0
H631 H 0.67339 0.7857 0.90714 0.0
H632 H 0.62418 0.78218 0.84675 0.0
H633 H 0.65547 0.81201 0.87174 0.0
H634 H 0.79739 0.56482 0.85498 0.0
H635 H 0.82513 0.59422 0.88108 0.0
H636 H 0.71816 0.54522 0.84289 0.0
H637 H 0.66265 0.57837 0.82882 0.0
C638 C 0.63421 0.19636 0.11234 0.0
C639 C 0.68468 0.18379 0.10029 0.0
C640 C 0.73621 0.22367 0.13417 0.0
C641 C 0.6856 0.2419 0.14477 0.0
N642 N 0.58689 0.2555 0.14145 0.0
N643 N 0.7839 0.19128 0.09808 0.0
C644 C 0.63467 0.23082 0.13321 0.0
C645 C 0.73587 0.19876 0.1108 0.0
N646 N 0.58582 0.17376 0.10428 0.0
N647 N 0.7843 0.22853 0.14674 0.0
H648 H 0.78523 0.17303 0.08099 0.0
H649 H 0.82183 0.20705 0.10362 0.0
H650 H 0.78598 0.24636 0.1639 0.0
H651 H 0.82163 0.21069 0.1411 0.0
H652 H 0.54871 0.17654 0.11384 0.0
H653 H 0.58375 0.14723 0.08932 0.0
H654 H 0.54973 0.25388 0.13212 0.0
H655 H 0.58531 0.28244 0.1563 0.0
C656 C 0.91598 0.95994 0.26962 0.0
C657 C 0.94102 0.91544 0.25645 0.0
C658 C 0.01973 -0.02381 0.24639 0.0
C659 C -0.00318 0.01912 0.26128 0.0
N660 N 0.92715 0.04866 0.29038 0.0
N661 N 0.02127 0.87677 0.23597 0.0
C662 C 0.94632 0.00996 0.274 0.0
C663 C -0.00597 0.92234 0.24567 0.0
N664 N 0.86217 0.95527 0.27707 0.0
N665 N 0.06625 -0.01324 0.23304 0.0
H666 H 0.00469 0.8362 0.23543 0.0
H667 H 0.06241 0.87784 0.23038 0.0
H668 H 0.0888 0.02406 0.23453 0.0
H669 H 0.08081 0.95987 0.21955 0.0
H670 H 0.8394 -0.01124 0.28431 0.0
H671 H 0.83839 0.91942 0.27382 0.0
H672 H 0.89457 0.04064 0.30223 0.0
H673 H 0.94568 0.08751 0.29352 0.0
C674 C 0.94924 -0.00243 0.68297 0.0
C675 C 0.91513 0.00524 0.70357 0.0
C676 C -0.01839 0.95427 0.72825 0.0
C677 C 0.01362 0.94154 0.70746 0.0
N678 N 0.02116 0.941 0.66401 0.0
N679 N 0.88976 0.97239 0.7432 0.0
C680 C -0.00443 0.96034 0.68444 0.0
C681 C 0.92852 -0.02197 0.72545 0.0
N682 N 0.93811 0.02654 0.66224 0.0
N683 N 0.00278 0.94723 0.75075 0.0
H684 H 0.84878 -0.01591 0.74055 0.0
H685 H 0.89657 0.94904 0.75886 0.0
H686 H 0.04368 0.93584 0.75358 0.0
H687 H -0.01795 0.96036 0.76631 0.0
H688 H 0.9649 0.0272 0.64748 0.0
H689 H 0.904 0.05341 0.66049 0.0
H690 H 0.00645 0.94916 0.64676 0.0
H691 H 0.05388 0.91209 0.66432 0.0
C692 C 0.94357 0.43467 -0.00437 0.0
C693 C -0.00212 0.42995 0.98584 0.0
C694 C -0.00874 0.52557 0.96954 0.0
C695 C 0.93911 0.53248 0.9813 0.0
N696 N 0.8682 0.49635 0.00785 0.0
N697 N 0.07777 0.47374 0.96797 0.0
C698 C 0.91629 0.48799 -0.00475 0.0
C699 C 0.02293 0.47622 0.97405 0.0
N700 N 0.9166 0.38765 0.00387 0.0
N701 N 0.01067 0.56555 0.95384 0.0
H702 H 0.10249 0.43835 0.9714 0.0
H703 H 0.10005 0.50853 0.96181 0.0
H704 H -0.00888 0.60403 0.95058 0.0
H705 H 0.04476 0.55891 0.94262 0.0
H706 H 0.87492 0.38753 0.00865 0.0
H707 H 0.93403 0.34724 0.00388 0.0
H708 H 0.85341 0.46803 0.02073 0.0
H709 H 0.8445 0.5332 0.00647 0.0
C710 C 0.44433 0.9605 0.05448 0.0
C711 C 0.41393 0.95116 0.03313 0.0
C712 C 0.47977 0.00828 0.01031 0.0
C713 C 0.50736 0.02236 0.03192 0.0
N714 N 0.50888 0.02087 0.07538 0.0
N715 N 0.39302 -0.01785 0.99276 0.0
C716 C 0.48753 0.0011 0.0543 0.0
C717 C 0.42872 -0.02028 0.01162 0.0
N718 N 0.43299 0.92959 0.07472 0.0
N719 N 0.50347 0.01878 0.98842 0.0
H720 H 0.35343 0.96566 0.99386 0.0
H721 H 0.40005 0.00686 0.97748 0.0
H722 H 0.54276 0.03552 0.98662 0.0
H723 H 0.48696 0.0043 0.97228 0.0
H724 H 0.45752 0.93041 0.09006 0.0
H725 H 0.40178 0.89934 0.07547 0.0
H726 H 0.49247 0.01097 0.09225 0.0
H727 H 0.53954 0.05169 0.07593 0.0
C728 C 0.49451 0.42957 0.73778 0.0
C729 C 0.44339 0.41991 0.74989 0.0
C730 C 0.4453 0.51518 0.76676 0.0
C731 C 0.49447 0.52646 0.75335 0.0
N732 N 0.56169 0.49775 0.72344 0.0
N733 N 0.36389 0.4568 0.77098 0.0
C734 C 0.51748 0.4848 0.73785 0.0
C735 C 0.41703 0.46371 0.76297 0.0
N736 N 0.52293 0.38548 0.72751 0.0
N737 N 0.42549 0.55316 0.7833 0.0
H738 H 0.34147 0.41991 0.768 0.0
H739 H 0.34008 0.48945 0.7783 0.0
H740 H 0.44212 0.59307 0.78599 0.0
H741 H 0.39429 0.54363 0.79565 0.0
H742 H 0.56313 0.38884 0.72089 0.0
H743 H 0.50867 0.34398 0.72744 0.0
H744 H 0.57585 0.47161 0.7096 0.0
H745 H 0.58235 0.53629 0.72432 0.0
C746 C 0.48883 0.44804 0.22835 0.0
C747 C 0.51661 0.43074 0.20705 0.0
C748 C 0.45081 0.48647 0.1832 0.0
C749 C 0.4198 0.4977 0.20446 0.0
N750 N 0.40031 0.47128 0.24562 0.0
N751 N 0.51804 0.42523 0.1636 0.0
C752 C 0.43611 0.47333 0.2266 0.0
C753 C 0.49595 0.44765 0.18423 0.0
N754 N 0.5138 0.44371 0.25021 0.0
N755 N 0.43803 0.51375 0.16224 0.0
H756 H 0.55013 0.39557 0.16366 0.0
H757 H 0.50109 0.43186 0.14663 0.0
H758 H 0.4053 0.54248 0.16088 0.0
H759 H 0.46268 0.51155 0.14681 0.0
H760 H 0.49625 0.45985 0.26599 0.0
H761 H 0.5549 0.43165 0.25191 0.0
H762 H 0.40927 0.44996 0.2616 0.0
H763 H 0.35923 0.48356 0.24401 0.0
C764 C 0.49883 0.02454 0.49607 0.0
C765 C 0.44727 0.03494 0.48468 0.0
C766 C 0.44815 0.93955 0.46777 0.0
C767 C 0.49768 0.92746 0.48062 0.0
N768 N 0.56739 0.95591 0.50893 0.0
N769 N 0.36733 -0.00018 0.46413 0.0
C770 C 0.5219 0.96911 0.49552 0.0
C771 C 0.42049 -0.00824 0.47172 0.0
N772 N 0.52739 0.06822 0.50618 0.0
N773 N 0.42723 0.90155 0.45171 0.0
H774 H 0.34533 0.03727 0.46718 0.0
H775 H 0.34304 0.96774 0.45705 0.0
H776 H 0.44268 0.86085 0.44919 0.0
H777 H 0.39601 0.91162 0.4396 0.0
H778 H 0.56775 0.06455 0.51236 0.0
H779 H 0.51299 0.10983 0.50657 0.0
H780 H 0.58239 -0.01835 0.52258 0.0
H781 H 0.58881 0.91767 0.50729 0.0
C782 C 0.94551 0.45465 0.55786 0.0
C783 C 0.92504 0.43915 0.53487 0.0
C784 C 0.00701 0.47915 0.51586 0.0
C785 C 0.02308 0.50262 0.5381 0.0
N786 N 0.00484 0.51765 0.58038 0.0
N787 N 0.9292 0.4533 0.49179 0.0
C788 C -0.00838 0.49168 0.55923 0.0
C789 C 0.95381 0.45586 0.51376 0.0
N790 N 0.92213 0.43272 0.57829 0.0
N791 N 0.04332 0.47653 0.49701 0.0
H792 H 0.88763 0.44369 0.48996 0.0
H793 H 0.94763 0.46893 0.47612 0.0
H794 H 0.08465 0.4874 0.49893 0.0
H795 H 0.03435 0.45608 0.48088 0.0
H796 H 0.93872 0.43822 0.59538 0.0
H797 H 0.88903 0.40466 0.57795 0.0
H798 H -0.02006 0.51588 0.59574 0.0
H799 H 0.03856 0.54464 0.58202 0.0
loop_
_geom_bond_atom_site_label_1
_geom_bond_atom_site_label_2
_geom_bond_distance
_geom_bond_site_symmetry_2
_ccdc_geom_bond_type
C0 O1 1.306 . S
C0 O3 1.160 . S
O1 C0 1.306 . S
O1 Cd2 2.228 . S
Cd2 O1 2.228 . S
Cd2 O6 2.273 . S
Cd2 O10 2.277 . S
O3 C0 1.160 . S
O3 Cd4 2.203 . S
Cd4 O3 2.203 . S
Cd4 O6 2.411 . S
Cd4 O7 2.333 . S
Cd4 O8 2.352 . S
Cd4 O12 2.277 . S
Cd4 O13 2.356 . S
C5 O10 1.209 1_655 S
C5 O12 1.226 1_655 S
O6 Cd2 2.273 . S
O6 Cd4 2.411 . S
O6 C9 1.320 . S
O7 Cd4 2.333 . S
O7 C9 1.214 . S
O8 Cd4 2.352 . S
O8 C11 1.258 . S
C9 O6 1.320 . S
C9 O7 1.214 . S
O10 Cd2 2.277 . S
O10 C5 1.209 1_455 S
C11 O8 1.258 . S
C11 O13 1.282 . S
O12 Cd4 2.277 . S
O12 C5 1.226 1_455 S
O13 Cd4 2.356 . S
O13 C11 1.282 . S
C14 O15 1.306 . S
C14 O17 1.160 . S
O15 C14 1.306 . S
O15 Cd16 2.228 . S
Cd16 O15 2.228 . S
Cd16 O20 2.273 . S
Cd16 O24 2.277 . S
O17 C14 1.160 . S
O17 Cd18 2.203 . S
Cd18 O17 2.203 . S
Cd18 O20 2.411 . S
Cd18 O21 2.333 . S
Cd18 O22 2.352 . S
Cd18 O26 2.277 . S
Cd18 O27 2.356 . S
C19 O24 1.209 1_545 S
C19 O26 1.226 1_545 S
O20 Cd16 2.273 . S
O20 Cd18 2.411 . S
O20 C23 1.320 . S
O21 Cd18 2.333 . S
O21 C23 1.214 . S
O22 Cd18 2.352 . S
O22 C25 1.258 . S
C23 O20 1.320 . S
C23 O21 1.214 . S
O24 Cd16 2.277 . S
O24 C19 1.209 1_565 S
C25 O22 1.258 . S
C25 O27 1.282 . S
O26 Cd18 2.277 . S
O26 C19 1.226 1_565 S
O27 Cd18 2.356 . S
O27 C25 1.282 . S
C28 O29 1.306 . S
C28 O31 1.160 . S
O29 C28 1.306 . S
O29 Cd30 2.228 . S
Cd30 O29 2.228 . S
Cd30 O34 2.273 . S
Cd30 O38 2.277 . S
O31 C28 1.160 . S
O31 Cd32 2.203 . S
Cd32 O31 2.203 . S
Cd32 O34 2.411 . S
Cd32 O35 2.333 . S
Cd32 O36 2.352 . S
Cd32 O40 2.277 . S
Cd32 O41 2.356 . S
C33 O38 1.209 1_455 S
C33 O40 1.226 1_455 S
O34 Cd30 2.273 . S
O34 Cd32 2.411 . S
O34 C37 1.320 . S
O35 Cd32 2.333 . S
O35 C37 1.214 . S
O36 Cd32 2.352 . S
O36 C39 1.258 . S
C37 O34 1.320 . S
C37 O35 1.214 . S
O38 Cd30 2.277 . S
O38 C33 1.209 1_655 S
C39 O36 1.258 . S
C39 O41 1.282 . S
O40 Cd32 2.277 . S
O40 C33 1.226 1_655 S
O41 Cd32 2.356 . S
O41 C39 1.282 . S
C42 O43 1.306 . S
C42 O45 1.160 . S
O43 C42 1.306 . S
O43 Cd44 2.228 . S
Cd44 O43 2.228 . S
Cd44 O48 2.273 . S
Cd44 O52 2.277 . S
O45 C42 1.160 . S
O45 Cd46 2.203 . S
Cd46 O45 2.203 . S
Cd46 O48 2.411 . S
Cd46 O49 2.333 . S
Cd46 O50 2.352 . S
Cd46 O54 2.277 . S
Cd46 O55 2.356 . S
C47 O52 1.209 1_565 S
C47 O54 1.226 1_565 S
O48 Cd44 2.273 . S
O48 Cd46 2.411 . S
O48 C51 1.320 . S
O49 Cd46 2.333 . S
O49 C51 1.214 . S
O50 Cd46 2.352 . S
O50 C53 1.258 . S
C51 O48 1.320 . S
C51 O49 1.214 . S
O52 Cd44 2.277 . S
O52 C47 1.209 1_545 S
C53 O50 1.258 . S
C53 O55 1.282 . S
O54 Cd46 2.277 . S
O54 C47 1.226 1_545 S
O55 Cd46 2.356 . S
O55 C53 1.282 . S
C56 O57 1.306 . S
C56 O59 1.160 . S
O57 C56 1.306 . S
O57 Cd58 2.228 1_556 S
Cd58 O57 2.228 1_554 S
Cd58 O62 2.273 1_554 S
Cd58 O66 2.277 1_554 S
O59 C56 1.160 . S
O59 Cd60 2.203 . S
Cd60 O59 2.203 . S
Cd60 O62 2.411 . S
Cd60 O63 2.333 . S
Cd60 O64 2.352 . S
Cd60 O68 2.277 . S
Cd60 O69 2.356 . S
C61 O66 1.209 1_655 S
C61 O68 1.226 1_655 S
O62 Cd58 2.273 1_556 S
O62 Cd60 2.411 . S
O62 C65 1.320 . S
O63 Cd60 2.333 . S
O63 C65 1.214 . S
O64 Cd60 2.352 . S
O64 C67 1.258 . S
C65 O62 1.320 . S
C65 O63 1.214 . S
O66 Cd58 2.277 1_556 S
O66 C61 1.209 1_455 S
C67 O64 1.258 . S
C67 O69 1.282 . S
O68 Cd60 2.277 . S
O68 C61 1.226 1_455 S
O69 Cd60 2.356 . S
O69 C67 1.282 . S
C70 O71 1.306 1_554 S
C70 O73 1.160 . S
O71 C70 1.306 1_556 S
O71 Cd72 2.228 . S
Cd72 O71 2.228 . S
Cd72 O76 2.273 1_556 S
Cd72 O80 2.277 1_556 S
O73 C70 1.160 . S
O73 Cd74 2.203 . S
Cd74 O73 2.203 . S
Cd74 O76 2.411 . S
Cd74 O77 2.333 . S
Cd74 O78 2.352 . S
Cd74 O82 2.277 . S
Cd74 O83 2.356 . S
C75 O80 1.209 1_545 S
C75 O82 1.226 1_545 S
O76 Cd72 2.273 1_554 S
O76 Cd74 2.411 . S
O76 C79 1.320 . S
O77 Cd74 2.333 . S
O77 C79 1.214 . S
O78 Cd74 2.352 . S
O78 C81 1.258 . S
C79 O76 1.320 . S
C79 O77 1.214 . S
O80 Cd72 2.277 1_554 S
O80 C75 1.209 1_565 S
C81 O78 1.258 . S
C81 O83 1.282 . S
O82 Cd74 2.277 . S
O82 C75 1.226 1_565 S
O83 Cd74 2.356 . S
O83 C81 1.282 . S
C84 O85 1.306 . S
C84 O87 1.160 . S
O85 C84 1.306 . S
O85 Cd86 2.228 1_556 S
Cd86 O85 2.228 1_554 S
Cd86 O90 2.273 1_554 S
Cd86 O94 2.277 1_554 S
O87 C84 1.160 . S
O87 Cd88 2.203 . S
Cd88 O87 2.203 . S
Cd88 O90 2.411 . S
Cd88 O91 2.333 . S
Cd88 O92 2.352 . S
Cd88 O96 2.277 . S
Cd88 O97 2.356 . S
C89 O94 1.209 1_455 S
C89 O96 1.226 1_455 S
O90 Cd86 2.273 1_556 S
O90 Cd88 2.411 . S
O90 C93 1.320 . S
O91 Cd88 2.333 . S
O91 C93 1.214 . S
O92 Cd88 2.352 . S
O92 C95 1.258 . S
C93 O90 1.320 . S
C93 O91 1.214 . S
O94 Cd86 2.277 1_556 S
O94 C89 1.209 1_655 S
C95 O92 1.258 . S
C95 O97 1.282 . S
O96 Cd88 2.277 . S
O96 C89 1.226 1_655 S
O97 Cd88 2.356 . S
O97 C95 1.282 . S
C98 O99 1.306 1_554 S
C98 O101 1.160 . S
O99 C98 1.306 1_556 S
O99 Cd100 2.228 . S
Cd100 O99 2.228 . S
Cd100 O104 2.273 1_556 S
Cd100 O108 2.277 1_556 S
O101 C98 1.160 . S
O101 Cd102 2.203 . S
Cd102 O101 2.203 . S
Cd102 O104 2.411 . S
Cd102 O105 2.333 . S
Cd102 O106 2.352 . S
Cd102 O110 2.277 . S
Cd102 O111 2.356 . S
C103 O108 1.209 1_565 S
C103 O110 1.226 1_565 S
O104 Cd100 2.273 1_554 S
O104 Cd102 2.411 . S
O104 C107 1.320 . S
O105 Cd102 2.333 . S
O105 C107 1.214 . S
O106 Cd102 2.352 . S
O106 C109 1.258 . S
C107 O104 1.320 . S
C107 O105 1.214 . S
O108 Cd100 2.277 1_554 S
O108 C103 1.209 1_545 S
C109 O106 1.258 . S
C109 O111 1.282 . S
O110 Cd102 2.277 . S
O110 C103 1.226 1_545 S
O111 Cd102 2.356 . S
O111 C109 1.282 . S
C112 O113 1.306 . S
C112 O115 1.160 . S
O113 C112 1.306 . S
O113 Cd114 2.228 . S
Cd114 O113 2.228 . S
Cd114 O118 2.273 . S
Cd114 O122 2.277 . S
O115 C112 1.160 . S
O115 Cd116 2.203 . S
Cd116 O115 2.203 . S
Cd116 O118 2.411 . S
Cd116 O119 2.333 . S
Cd116 O120 2.352 . S
Cd116 O124 2.277 . S
Cd116 O125 2.356 . S
C117 O122 1.209 . S
C117 O124 1.226 . S
O118 Cd114 2.273 . S
O118 Cd116 2.411 . S
O118 C121 1.320 . S
O119 Cd116 2.333 . S
O119 C121 1.214 . S
O120 Cd116 2.352 . S
O120 C123 1.258 . S
C121 O118 1.320 . S
C121 O119 1.214 . S
O122 Cd114 2.277 . S
O122 C117 1.209 . S
C123 O120 1.258 . S
C123 O125 1.282 . S
O124 Cd116 2.277 . S
O124 C117 1.226 . S
O125 Cd116 2.356 . S
O125 C123 1.282 . S
C126 O127 1.306 . S
C126 O129 1.160 . S
O127 C126 1.306 . S
O127 Cd128 2.228 . S
Cd128 O127 2.228 . S
Cd128 O132 2.273 . S
Cd128 O136 2.277 . S
O129 C126 1.160 . S
O129 Cd130 2.203 . S
Cd130 O129 2.203 . S
Cd130 O132 2.411 . S
Cd130 O133 2.333 . S
Cd130 O134 2.352 . S
Cd130 O138 2.277 . S
Cd130 O139 2.356 . S
C131 O136 1.209 . S
C131 O138 1.226 . S
O132 Cd128 2.273 . S
O132 Cd130 2.411 . S
O132 C135 1.320 . S
O133 Cd130 2.333 . S
O133 C135 1.214 . S
O134 Cd130 2.352 . S
O134 C137 1.258 . S
C135 O132 1.320 . S
C135 O133 1.214 . S
O136 Cd128 2.277 . S
O136 C131 1.209 . S
C137 O134 1.258 . S
C137 O139 1.282 . S
O138 Cd130 2.277 . S
O138 C131 1.226 . S
O139 Cd130 2.356 . S
O139 C137 1.282 . S
C140 O141 1.306 . S
C140 O143 1.160 . S
O141 C140 1.306 . S
O141 Cd142 2.228 . S
Cd142 O141 2.228 . S
Cd142 O146 2.273 . S
Cd142 O150 2.277 . S
O143 C140 1.160 . S
O143 Cd144 2.203 . S
Cd144 O143 2.203 . S
Cd144 O146 2.411 . S
Cd144 O147 2.333 . S
Cd144 O148 2.352 . S
Cd144 O152 2.277 . S
Cd144 O153 2.356 . S
C145 O150 1.209 . S
C145 O152 1.226 . S
O146 Cd142 2.273 . S
O146 Cd144 2.411 . S
O146 C149 1.320 . S
O147 Cd144 2.333 . S
O147 C149 1.214 . S
O148 Cd144 2.352 . S
O148 C151 1.258 . S
C149 O146 1.320 . S
C149 O147 1.214 . S
O150 Cd142 2.277 . S
O150 C145 1.209 . S
C151 O148 1.258 . S
C151 O153 1.282 . S
O152 Cd144 2.277 . S
O152 C145 1.226 . S
O153 Cd144 2.356 . S
O153 C151 1.282 . S
C154 O155 1.306 . S
C154 O157 1.160 . S
O155 C154 1.306 . S
O155 Cd156 2.228 . S
Cd156 O155 2.228 . S
Cd156 O160 2.273 . S
Cd156 O164 2.277 . S
O157 C154 1.160 . S
O157 Cd158 2.203 . S
Cd158 O157 2.203 . S
Cd158 O160 2.411 . S
Cd158 O161 2.333 . S
Cd158 O162 2.352 . S
Cd158 O166 2.277 . S
Cd158 O167 2.356 . S
C159 O164 1.209 . S
C159 O166 1.226 . S
O160 Cd156 2.273 . S
O160 Cd158 2.411 . S
O160 C163 1.320 . S
O161 Cd158 2.333 . S
O161 C163 1.214 . S
O162 Cd158 2.352 . S
O162 C165 1.258 . S
C163 O160 1.320 . S
C163 O161 1.214 . S
O164 Cd156 2.277 . S
O164 C159 1.209 . S
C165 O162 1.258 . S
C165 O167 1.282 . S
O166 Cd158 2.277 . S
O166 C159 1.226 . S
O167 Cd158 2.356 . S
O167 C165 1.282 . S
C168 O169 1.306 . S
C168 O171 1.160 . S
O169 C168 1.306 . S
O169 Cd170 2.228 . S
Cd170 O169 2.228 . S
Cd170 O174 2.273 . S
Cd170 O178 2.277 . S
O171 C168 1.160 . S
O171 Cd172 2.203 . S
Cd172 O171 2.203 . S
Cd172 O174 2.411 . S
Cd172 O175 2.333 . S
Cd172 O176 2.352 . S
Cd172 O180 2.277 . S
Cd172 O181 2.356 . S
C173 O178 1.209 . S
C173 O180 1.226 . S
O174 Cd170 2.273 . S
O174 Cd172 2.411 . S
O174 C177 1.320 . S
O175 Cd172 2.333 . S
O175 C177 1.214 . S
O176 Cd172 2.352 . S
O176 C179 1.258 . S
C177 O174 1.320 . S
C177 O175 1.214 . S
O178 Cd170 2.277 . S
O178 C173 1.209 . S
C179 O176 1.258 . S
C179 O181 1.282 . S
O180 Cd172 2.277 . S
O180 C173 1.226 . S
O181 Cd172 2.356 . S
O181 C179 1.282 . S
C182 O183 1.306 . S
C182 O185 1.160 . S
O183 C182 1.306 . S
O183 Cd184 2.228 . S
Cd184 O183 2.228 . S
Cd184 O188 2.273 . S
Cd184 O192 2.277 . S
O185 C182 1.160 . S
O185 Cd186 2.203 . S
Cd186 O185 2.203 . S
Cd186 O188 2.411 . S
Cd186 O189 2.333 . S
Cd186 O190 2.352 . S
Cd186 O194 2.277 . S
Cd186 O195 2.356 . S
C187 O192 1.209 . S
C187 O194 1.226 . S
O188 Cd184 2.273 . S
O188 Cd186 2.411 . S
O188 C191 1.320 . S
O189 Cd186 2.333 . S
O189 C191 1.214 . S
O190 Cd186 2.352 . S
O190 C193 1.258 . S
C191 O188 1.320 . S
C191 O189 1.214 . S
O192 Cd184 2.277 . S
O192 C187 1.209 . S
C193 O190 1.258 . S
C193 O195 1.282 . S
O194 Cd186 2.277 . S
O194 C187 1.226 . S
O195 Cd186 2.356 . S
O195 C193 1.282 . S
C196 O197 1.306 . S
C196 O199 1.160 . S
O197 C196 1.306 . S
O197 Cd198 2.228 . S
Cd198 O197 2.228 . S
Cd198 O202 2.273 . S
Cd198 O206 2.277 . S
O199 C196 1.160 . S
O199 Cd200 2.203 . S
Cd200 O199 2.203 . S
Cd200 O202 2.411 . S
Cd200 O203 2.333 . S
Cd200 O204 2.352 . S
Cd200 O208 2.277 . S
Cd200 O209 2.356 . S
C201 O206 1.209 . S
C201 O208 1.226 . S
O202 Cd198 2.273 . S
O202 Cd200 2.411 . S
O202 C205 1.320 . S
O203 Cd200 2.333 . S
O203 C205 1.214 . S
O204 Cd200 2.352 . S
O204 C207 1.258 . S
C205 O202 1.320 . S
C205 O203 1.214 . S
O206 Cd198 2.277 . S
O206 C201 1.209 . S
C207 O204 1.258 . S
C207 O209 1.282 . S
O208 Cd200 2.277 . S
O208 C201 1.226 . S
O209 Cd200 2.356 . S
O209 C207 1.282 . S
C210 O211 1.306 . S
C210 O213 1.160 . S
O211 C210 1.306 . S
O211 Cd212 2.228 . S
Cd212 O211 2.228 . S
Cd212 O216 2.273 . S
Cd212 O220 2.277 . S
O213 C210 1.160 . S
O213 Cd214 2.203 . S
Cd214 O213 2.203 . S
Cd214 O216 2.411 . S
Cd214 O217 2.333 . S
Cd214 O218 2.352 . S
Cd214 O222 2.277 . S
Cd214 O223 2.356 . S
C215 O220 1.209 . S
C215 O222 1.226 . S
O216 Cd212 2.273 . S
O216 Cd214 2.411 . S
O216 C219 1.320 . S
O217 Cd214 2.333 . S
O217 C219 1.214 . S
O218 Cd214 2.352 . S
O218 C221 1.258 . S
C219 O216 1.320 . S
C219 O217 1.214 . S
O220 Cd212 2.277 . S
O220 C215 1.209 . S
C221 O218 1.258 . S
C221 O223 1.282 . S
O222 Cd214 2.277 . S
O222 C215 1.226 . S
O223 Cd214 2.356 . S
O223 C221 1.282 . S
C224 C225 1.363 . S
C224 C230 1.379 . S
C224 N232 1.356 . S
C225 C224 1.363 . S
C225 C231 1.363 . S
C226 C227 1.363 . S
C226 C231 1.379 . S
C226 N233 1.356 . S
C227 C226 1.363 . S
C227 C230 1.363 . S
N228 C230 1.356 . S
N228 H240 0.984 . S
N228 H241 0.985 . S
N229 C231 1.356 . S
N229 H234 0.984 . S
N229 H235 0.985 . S
C230 C224 1.379 . S
C230 C227 1.363 . S
C230 N228 1.356 . S
C231 C225 1.363 . S
C231 C226 1.379 . S
C231 N229 1.356 . S
N232 C224 1.356 . S
N232 H238 0.984 . S
N232 H239 0.984 . S
N233 C226 1.356 . S
N233 H236 0.984 . S
N233 H237 0.985 . S
H234 N229 0.984 . S
H235 N229 0.985 . S
H236 N233 0.984 . S
H237 N233 0.985 . S
H238 N232 0.984 . S
H239 N232 0.984 . S
H240 N228 0.984 . S
H241 N228 0.985 . S
C242 C243 1.363 . S
C242 C248 1.379 . S
C242 N250 1.356 . S
C243 C242 1.363 . S
C243 C249 1.363 . S
C244 C245 1.363 . S
C244 C249 1.379 . S
C244 N251 1.356 . S
C245 C244 1.363 . S
C245 C248 1.363 . S
N246 C248 1.356 . S
N246 H258 0.984 . S
N246 H259 0.985 . S
N247 C249 1.356 . S
N247 H252 0.984 . S
N247 H253 0.985 . S
C248 C242 1.379 . S
C248 C245 1.363 . S
C248 N246 1.356 . S
C249 C243 1.363 . S
C249 C244 1.379 . S
C249 N247 1.356 . S
N250 C242 1.356 . S
N250 H256 0.984 . S
N250 H257 0.984 . S
N251 C244 1.356 . S
N251 H254 0.984 . S
N251 H255 0.985 . S
H252 N247 0.984 . S
H253 N247 0.985 . S
H254 N251 0.984 . S
H255 N251 0.985 . S
H256 N250 0.984 . S
H257 N250 0.984 . S
H258 N246 0.984 . S
H259 N246 0.985 . S
C260 C261 1.363 . S
C260 C266 1.379 . S
C260 N268 1.356 . S
C261 C260 1.363 . S
C261 C267 1.363 . S
C262 C263 1.363 . S
C262 C267 1.379 . S
C262 N269 1.356 . S
C263 C262 1.363 . S
C263 C266 1.363 . S
N264 C266 1.356 . S
N264 H276 0.984 . S
N264 H277 0.985 . S
N265 C267 1.356 . S
N265 H270 0.984 . S
N265 H271 0.985 . S
C266 C260 1.379 . S
C266 C263 1.363 . S
C266 N264 1.356 . S
C267 C261 1.363 . S
C267 C262 1.379 . S
C267 N265 1.356 . S
N268 C260 1.356 . S
N268 H274 0.984 . S
N268 H275 0.984 . S
N269 C262 1.356 . S
N269 H272 0.984 . S
N269 H273 0.985 . S
H270 N265 0.984 . S
H271 N265 0.985 . S
H272 N269 0.984 . S
H273 N269 0.985 . S
H274 N268 0.984 . S
H275 N268 0.984 . S
H276 N264 0.984 . S
H277 N264 0.985 . S
C278 C279 1.363 . S
C278 C284 1.379 . S
C278 N286 1.356 . S
C279 C278 1.363 . S
C279 C285 1.363 . S
C280 C281 1.363 . S
C280 C285 1.379 . S
C280 N287 1.356 . S
C281 C280 1.363 . S
C281 C284 1.363 . S
N282 C284 1.356 . S
N282 H294 0.984 . S
N282 H295 0.985 . S
N283 C285 1.356 . S
N283 H288 0.984 . S
N283 H289 0.985 . S
C284 C278 1.379 . S
C284 C281 1.363 . S
C284 N282 1.356 . S
C285 C279 1.363 . S
C285 C280 1.379 . S
C285 N283 1.356 . S
N286 C278 1.356 . S
N286 H292 0.984 . S
N286 H293 0.984 . S
N287 C280 1.356 . S
N287 H290 0.984 . S
N287 H291 0.985 . S
H288 N283 0.984 . S
H289 N283 0.985 . S
H290 N287 0.984 . S
H291 N287 0.985 . S
H292 N286 0.984 . S
H293 N286 0.984 . S
H294 N282 0.984 . S
H295 N282 0.985 . S
C296 C297 1.352 1_556 S
C296 C302 1.384 . S
C296 N304 1.359 . S
C297 C296 1.352 1_554 S
C297 C303 1.363 . S
C298 C299 1.337 1_554 S
C298 C303 1.379 . S
C298 N305 1.356 . S
C299 C298 1.337 1_556 S
C299 C302 1.376 . S
N300 C302 1.356 . S
N300 H312 0.984 . S
N300 H313 0.985 . S
N301 C303 1.356 . S
N301 H306 0.984 . S
N301 H307 0.985 . S
C302 C296 1.384 . S
C302 C299 1.376 . S
C302 N300 1.356 . S
C303 C297 1.363 . S
C303 C298 1.379 . S
C303 N301 1.356 . S
N304 C296 1.359 . S
N304 H310 0.983 1_545 S
N304 H311 0.984 1_546 S
N305 C298 1.356 . S
N305 H308 0.984 . S
N305 H309 0.985 . S
H306 N301 0.984 . S
H307 N301 0.985 . S
H308 N305 0.984 . S
H309 N305 0.985 . S
H310 N304 0.983 1_565 S
H311 N304 0.984 1_564 S
H312 N300 0.984 . S
H313 N300 0.985 . S
C314 C315 1.363 . S
C314 C320 1.379 . S
C314 N322 1.356 . S
C315 C314 1.363 . S
C315 C321 1.363 . S
C316 C317 1.363 . S
C316 C321 1.379 . S
C316 N323 1.356 . S
C317 C316 1.363 . S
C317 C320 1.363 . S
N318 C320 1.356 . S
N318 H330 0.984 . S
N318 H331 0.985 1_455 S
N319 C321 1.346 1_554 S
N319 H324 0.998 . S
N319 H325 0.984 . S
C320 C314 1.379 . S
C320 C317 1.363 . S
C320 N318 1.356 . S
C321 C315 1.363 . S
C321 C316 1.379 . S
C321 N319 1.346 1_556 S
N322 C314 1.356 . S
N322 H328 0.984 . S
N322 H329 0.984 1_556 S
N323 C316 1.356 . S
N323 H326 0.984 . S
N323 H327 0.985 . S
H324 N319 0.998 . S
H325 N319 0.984 . S
H326 N323 0.984 . S
H327 N323 0.985 . S
H328 N322 0.984 . S
H329 N322 0.984 1_554 S
H330 N318 0.984 . S
H331 N318 0.985 1_655 S
C332 C333 1.326 1_554 S
C332 C338 1.379 . S
C332 N340 1.356 . S
C333 C332 1.326 1_556 S
C333 C339 1.386 . S
C334 C335 1.363 1_556 S
C334 C339 1.379 . S
C334 N341 1.356 . S
C335 C334 1.363 1_554 S
C335 C338 1.363 . S
N336 C338 1.356 . S
N336 H348 0.984 . S
N336 H349 0.985 . S
N337 C339 1.356 . S
N337 H342 0.984 . S
N337 H343 0.985 . S
C338 C332 1.379 . S
C338 C335 1.363 . S
C338 N336 1.356 . S
C339 C333 1.386 . S
C339 C334 1.379 . S
C339 N337 1.356 . S
N340 C332 1.356 . S
N340 H346 0.984 . S
N340 H347 0.984 . S
N341 C334 1.356 . S
N341 H344 0.984 1_565 S
N341 H345 0.985 . S
H342 N337 0.984 . S
H343 N337 0.985 . S
H344 N341 0.984 1_545 S
H345 N341 0.985 . S
H346 N340 0.984 . S
H347 N340 0.984 . S
H348 N336 0.984 . S
H349 N336 0.985 . S
C350 C351 1.363 . S
C350 C356 1.379 . S
C350 N358 1.363 . S
C351 C350 1.363 . S
C351 C357 1.363 . S
C352 C353 1.363 . S
C352 C357 1.379 . S
C352 N359 1.356 . S
C353 C352 1.363 . S
C353 C356 1.363 . S
N354 C356 1.356 . S
N354 H366 0.984 . S
N354 H367 0.985 . S
N355 C357 1.356 1_554 S
N355 H360 0.985 . S
N355 H361 0.983 1_554 S
C356 C350 1.379 . S
C356 C353 1.363 . S
C356 N354 1.356 . S
C357 C351 1.363 . S
C357 C352 1.379 . S
C357 N355 1.356 1_556 S
N358 C350 1.363 . S
N358 H364 0.987 . S
N358 H365 0.976 1_556 S
N359 C352 1.356 . S
N359 H362 0.984 1_655 S
N359 H363 0.985 . S
H360 N355 0.985 . S
H361 N355 0.983 1_556 S
H362 N359 0.984 1_455 S
H363 N359 0.985 . S
H364 N358 0.987 . S
H365 N358 0.976 1_554 S
H366 N354 0.984 . S
H367 N354 0.985 . S
C368 C369 1.363 . S
C368 C374 1.379 . S
C368 N376 1.356 . S
C369 C368 1.363 . S
C369 C375 1.363 . S
C370 C371 1.363 . S
C370 C375 1.379 . S
C370 N377 1.356 . S
C371 C370 1.363 . S
C371 C374 1.363 . S
N372 C374 1.356 . S
N372 H384 0.984 . S
N372 H385 0.985 1_565 S
N373 C375 1.356 . S
N373 H378 0.984 . S
N373 H379 0.985 . S
C374 C368 1.379 . S
C374 C371 1.363 . S
C374 N372 1.356 . S
C375 C369 1.363 . S
C375 C370 1.379 . S
C375 N373 1.356 . S
N376 C368 1.356 . S
N376 H382 0.984 . S
N376 H383 0.984 . S
N377 C370 1.356 . S
N377 H380 0.984 . S
N377 H381 0.985 . S
H378 N373 0.984 . S
H379 N373 0.985 . S
H380 N377 0.984 . S
H381 N377 0.985 . S
H382 N376 0.984 . S
H383 N376 0.984 . S
H384 N372 0.984 . S
H385 N372 0.985 1_545 S
C386 C387 1.363 . S
C386 C392 1.379 . S
C386 N394 1.356 . S
C387 C386 1.363 . S
C387 C393 1.363 . S
C388 C389 1.363 . S
C388 C393 1.379 . S
C388 N395 1.356 . S
C389 C388 1.363 . S
C389 C392 1.363 . S
N390 C392 1.356 . S
N390 H402 0.984 . S
N390 H403 0.985 . S
N391 C393 1.356 . S
N391 H396 0.984 . S
N391 H397 0.985 . S
C392 C386 1.379 . S
C392 C389 1.363 . S
C392 N390 1.356 . S
C393 C387 1.363 . S
C393 C388 1.379 . S
C393 N391 1.356 . S
N394 C386 1.356 . S
N394 H400 0.984 . S
N394 H401 0.984 1_655 S
N395 C388 1.356 . S
N395 H398 0.984 . S
N395 H399 0.985 . S
H396 N391 0.984 . S
H397 N391 0.985 . S
H398 N395 0.984 . S
H399 N395 0.985 . S
H400 N394 0.984 . S
H401 N394 0.984 1_455 S
H402 N390 0.984 . S
H403 N390 0.985 . S
C404 C405 1.363 . S
C404 C410 1.379 . S
C404 N412 1.356 . S
C405 C404 1.363 . S
C405 C411 1.363 . S
C406 C407 1.363 . S
C406 C411 1.379 . S
C406 N413 1.356 . S
C407 C406 1.363 . S
C407 C410 1.363 . S
N408 C410 1.356 . S
N408 H420 0.984 . S
N408 H421 0.985 . S
N409 C411 1.356 . S
N409 H414 0.984 . S
N409 H415 0.985 . S
C410 C404 1.379 . S
C410 C407 1.363 . S
C410 N408 1.356 . S
C411 C405 1.363 . S
C411 C406 1.379 . S
C411 N409 1.356 . S
N412 C404 1.356 . S
N412 H418 0.984 . S
N412 H419 0.984 1_545 S
N413 C406 1.356 . S
N413 H416 0.984 . S
N413 H417 0.985 . S
H414 N409 0.984 . S
H415 N409 0.985 . S
H416 N413 0.984 . S
H417 N413 0.985 . S
H418 N412 0.984 . S
H419 N412 0.984 1_565 S
H420 N408 0.984 . S
H421 N408 0.985 . S
C422 C423 1.363 . S
C422 C428 1.379 . S
C422 N430 1.356 . S
C423 C422 1.363 . S
C423 C429 1.363 . S
C424 C425 1.363 . S
C424 C429 1.379 . S
C424 N431 1.356 . S
C425 C424 1.363 . S
C425 C428 1.363 . S
N426 C428 1.356 . S
N426 H438 0.984 . S
N426 H439 0.985 . S
N427 C429 1.356 . S
N427 H432 0.984 . S
N427 H433 0.985 . S
C428 C422 1.379 . S
C428 C425 1.363 . S
C428 N426 1.356 . S
C429 C423 1.363 . S
C429 C424 1.379 . S
C429 N427 1.356 . S
N430 C422 1.356 . S
N430 H436 0.984 . S
N430 H437 0.984 1_455 S
N431 C424 1.356 . S
N431 H434 0.984 . S
N431 H435 0.985 . S
H432 N427 0.984 . S
H433 N427 0.985 . S
H434 N431 0.984 . S
H435 N431 0.985 . S
H436 N430 0.984 . S
H437 N430 0.984 1_655 S
H438 N426 0.984 . S
H439 N426 0.985 . S
C440 C441 1.363 . S
C440 C446 1.379 . S
C440 N448 1.356 . S
C441 C440 1.363 . S
C441 C447 1.363 . S
C442 C443 1.363 . S
C442 C447 1.379 . S
C442 N449 1.356 . S
C443 C442 1.363 . S
C443 C446 1.363 . S
N444 C446 1.356 . S
N444 H456 0.984 . S
N444 H457 0.985 . S
N445 C447 1.356 . S
N445 H450 0.984 . S
N445 H451 0.985 . S
C446 C440 1.379 . S
C446 C443 1.363 . S
C446 N444 1.356 . S
C447 C441 1.363 . S
C447 C442 1.379 . S
C447 N445 1.356 . S
N448 C440 1.356 . S
N448 H454 0.984 . S
N448 H455 0.984 . S
N449 C442 1.356 . S
N449 H452 0.984 . S
N449 H453 0.985 . S
H450 N445 0.984 . S
H451 N445 0.985 . S
H452 N449 0.984 . S
H453 N449 0.985 . S
H454 N448 0.984 . S
H455 N448 0.984 . S
H456 N444 0.984 . S
H457 N444 0.985 . S
C458 C459 1.363 . S
C458 C464 1.379 . S
C458 N466 1.356 . S
C459 C458 1.363 . S
C459 C465 1.363 . S
C460 C461 1.363 . S
C460 C465 1.379 . S
C460 N467 1.356 . S
C461 C460 1.363 . S
C461 C464 1.363 . S
N462 C464 1.356 . S
N462 H474 0.984 . S
N462 H475 0.985 . S
N463 C465 1.356 . S
N463 H468 0.984 . S
N463 H469 0.985 . S
C464 C458 1.379 . S
C464 C461 1.363 . S
C464 N462 1.356 . S
C465 C459 1.363 . S
C465 C460 1.379 . S
C465 N463 1.356 . S
N466 C458 1.356 . S
N466 H472 0.984 . S
N466 H473 0.984 . S
N467 C460 1.356 . S
N467 H470 0.984 . S
N467 H471 0.985 . S
H468 N463 0.984 . S
H469 N463 0.985 . S
H470 N467 0.984 . S
H471 N467 0.985 . S
H472 N466 0.984 . S
H473 N466 0.984 . S
H474 N462 0.984 . S
H475 N462 0.985 . S
C476 C477 1.363 . S
C476 C482 1.379 . S
C476 N484 1.356 . S
C477 C476 1.363 . S
C477 C483 1.363 . S
C478 C479 1.363 . S
C478 C483 1.379 . S
C478 N485 1.356 . S
C479 C478 1.363 . S
C479 C482 1.363 . S
N480 C482 1.356 . S
N480 H492 0.984 . S
N480 H493 0.985 . S
N481 C483 1.356 . S
N481 H486 0.984 . S
N481 H487 0.985 . S
C482 C476 1.379 . S
C482 C479 1.363 . S
C482 N480 1.356 . S
C483 C477 1.363 . S
C483 C478 1.379 . S
C483 N481 1.356 . S
N484 C476 1.356 . S
N484 H490 0.984 . S
N484 H491 0.984 . S
N485 C478 1.356 . S
N485 H488 0.984 . S
N485 H489 0.985 . S
H486 N481 0.984 . S
H487 N481 0.985 . S
H488 N485 0.984 . S
H489 N485 0.985 . S
H490 N484 0.984 . S
H491 N484 0.984 . S
H492 N480 0.984 . S
H493 N480 0.985 . S
C494 C495 1.363 . S
C494 C500 1.379 . S
C494 N502 1.356 . S
C495 C494 1.363 . S
C495 C501 1.363 . S
C496 C497 1.363 . S
C496 C501 1.379 . S
C496 N503 1.356 . S
C497 C496 1.363 . S
C497 C500 1.363 . S
N498 C500 1.356 . S
N498 H510 0.984 . S
N498 H511 0.985 . S
N499 C501 1.356 . S
N499 H504 0.984 . S
N499 H505 0.985 . S
C500 C494 1.379 . S
C500 C497 1.363 . S
C500 N498 1.356 . S
C501 C495 1.363 . S
C501 C496 1.379 . S
C501 N499 1.356 . S
N502 C494 1.356 . S
N502 H508 0.984 . S
N502 H509 0.984 . S
N503 C496 1.356 . S
N503 H506 0.984 . S
N503 H507 0.985 . S
H504 N499 0.984 . S
H505 N499 0.985 . S
H506 N503 0.984 . S
H507 N503 0.985 . S
H508 N502 0.984 . S
H509 N502 0.984 . S
H510 N498 0.984 . S
H511 N498 0.985 . S
C512 C513 1.363 . S
C512 C518 1.379 . S
C512 N520 1.356 . S
C513 C512 1.363 . S
C513 C519 1.363 . S
C514 C515 1.363 . S
C514 C519 1.379 . S
C514 N521 1.356 . S
C515 C514 1.363 . S
C515 C518 1.363 . S
N516 C518 1.356 . S
N516 H528 0.984 . S
N516 H529 0.985 . S
N517 C519 1.356 . S
N517 H522 0.984 . S
N517 H523 0.985 . S
C518 C512 1.379 . S
C518 C515 1.363 . S
C518 N516 1.356 . S
C519 C513 1.363 . S
C519 C514 1.379 . S
C519 N517 1.356 . S
N520 C512 1.356 . S
N520 H526 0.984 . S
N520 H527 0.984 . S
N521 C514 1.356 . S
N521 H524 0.984 . S
N521 H525 0.985 . S
H522 N517 0.984 . S
H523 N517 0.985 . S
H524 N521 0.984 . S
H525 N521 0.985 . S
H526 N520 0.984 . S
H527 N520 0.984 . S
H528 N516 0.984 . S
H529 N516 0.985 . S
C530 C531 1.363 . S
C530 C536 1.379 . S
C530 N538 1.356 . S
C531 C530 1.363 . S
C531 C537 1.363 . S
C532 C533 1.363 . S
C532 C537 1.379 . S
C532 N539 1.356 . S
C533 C532 1.363 . S
C533 C536 1.363 . S
N534 C536 1.356 . S
N534 H546 0.984 . S
N534 H547 0.985 . S
N535 C537 1.356 . S
N535 H540 0.984 . S
N535 H541 0.985 . S
C536 C530 1.379 . S
C536 C533 1.363 . S
C536 N534 1.356 . S
C537 C531 1.363 . S
C537 C532 1.379 . S
C537 N535 1.356 . S
N538 C530 1.356 . S
N538 H544 0.984 . S
N538 H545 0.984 . S
N539 C532 1.356 . S
N539 H542 0.984 . S
N539 H543 0.985 . S
H540 N535 0.984 . S
H541 N535 0.985 . S
H542 N539 0.984 . S
H543 N539 0.985 . S
H544 N538 0.984 . S
H545 N538 0.984 . S
H546 N534 0.984 . S
H547 N534 0.985 . S
C548 C549 1.363 . S
C548 C554 1.379 . S
C548 N556 1.356 . S
C549 C548 1.363 . S
C549 C555 1.363 . S
C550 C551 1.363 . S
C550 C555 1.379 . S
C550 N557 1.356 . S
C551 C550 1.363 . S
C551 C554 1.363 . S
N552 C554 1.356 . S
N552 H564 0.984 . S
N552 H565 0.985 . S
N553 C555 1.356 . S
N553 H558 0.984 . S
N553 H559 0.985 . S
C554 C548 1.379 . S
C554 C551 1.363 . S
C554 N552 1.356 . S
C555 C549 1.363 . S
C555 C550 1.379 . S
C555 N553 1.356 . S
N556 C548 1.356 . S
N556 H562 0.984 . S
N556 H563 0.984 . S
N557 C550 1.356 . S
N557 H560 0.984 . S
N557 H561 0.985 . S
H558 N553 0.984 . S
H559 N553 0.985 . S
H560 N557 0.984 . S
H561 N557 0.985 . S
H562 N556 0.984 . S
H563 N556 0.984 . S
H564 N552 0.984 . S
H565 N552 0.985 . S
C566 C567 1.363 . S
C566 C572 1.379 . S
C566 N574 1.356 . S
C567 C566 1.363 . S
C567 C573 1.363 . S
C568 C569 1.363 . S
C568 C573 1.379 . S
C568 N575 1.356 . S
C569 C568 1.363 . S
C569 C572 1.363 . S
N570 C572 1.356 . S
N570 H582 0.984 . S
N570 H583 0.985 . S
N571 C573 1.356 . S
N571 H576 0.984 . S
N571 H577 0.985 . S
C572 C566 1.379 . S
C572 C569 1.363 . S
C572 N570 1.356 . S
C573 C567 1.363 . S
C573 C568 1.379 . S
C573 N571 1.356 . S
N574 C566 1.356 . S
N574 H580 0.984 . S
N574 H581 0.984 . S
N575 C568 1.356 . S
N575 H578 0.984 . S
N575 H579 0.985 . S
H576 N571 0.984 . S
H577 N571 0.985 . S
H578 N575 0.984 . S
H579 N575 0.985 . S
H580 N574 0.984 . S
H581 N574 0.984 . S
H582 N570 0.984 . S
H583 N570 0.985 . S
C584 C585 1.363 . S
C584 C590 1.379 . S
C584 N592 1.356 . S
C585 C584 1.363 . S
C585 C591 1.363 . S
C586 C587 1.363 . S
C586 C591 1.379 . S
C586 N593 1.356 . S
C587 C586 1.363 . S
C587 C590 1.363 . S
N588 C590 1.356 . S
N588 H600 0.984 . S
N588 H601 0.985 . S
N589 C591 1.356 . S
N589 H594 0.984 . S
N589 H595 0.985 . S
C590 C584 1.379 . S
C590 C587 1.363 . S
C590 N588 1.356 . S
C591 C585 1.363 . S
C591 C586 1.379 . S
C591 N589 1.356 . S
N592 C584 1.356 . S
N592 H598 0.984 . S
N592 H599 0.984 . S
N593 C586 1.356 . S
N593 H596 0.984 . S
N593 H597 0.985 . S
H594 N589 0.984 . S
H595 N589 0.985 . S
H596 N593 0.984 . S
H597 N593 0.985 . S
H598 N592 0.984 . S
H599 N592 0.984 . S
H600 N588 0.984 . S
H601 N588 0.985 . S
C602 C603 1.363 . S
C602 C608 1.379 . S
C602 N610 1.356 . S
C603 C602 1.363 . S
C603 C609 1.363 . S
C604 C605 1.363 . S
C604 C609 1.379 . S
C604 N611 1.356 . S
C605 C604 1.363 . S
C605 C608 1.363 . S
N606 C608 1.356 . S
N606 H618 0.984 . S
N606 H619 0.985 . S
N607 C609 1.356 . S
N607 H612 0.984 . S
N607 H613 0.985 . S
C608 C602 1.379 . S
C608 C605 1.363 . S
C608 N606 1.356 . S
C609 C603 1.363 . S
C609 C604 1.379 . S
C609 N607 1.356 . S
N610 C602 1.356 . S
N610 H616 0.984 . S
N610 H617 0.984 . S
N611 C604 1.356 . S
N611 H614 0.984 . S
N611 H615 0.985 . S
H612 N607 0.984 . S
H613 N607 0.985 . S
H614 N611 0.984 . S
H615 N611 0.985 . S
H616 N610 0.984 . S
H617 N610 0.984 . S
H618 N606 0.984 . S
H619 N606 0.985 . S
C620 C621 1.363 . S
C620 C626 1.379 . S
C620 N628 1.356 . S
C621 C620 1.363 . S
C621 C627 1.363 . S
C622 C623 1.363 . S
C622 C627 1.379 . S
C622 N629 1.356 . S
C623 C622 1.363 . S
C623 C626 1.363 . S
N624 C626 1.356 . S
N624 H636 0.984 . S
N624 H637 0.985 . S
N625 C627 1.356 . S
N625 H630 0.984 . S
N625 H631 0.985 . S
C626 C620 1.379 . S
C626 C623 1.363 . S
C626 N624 1.356 . S
C627 C621 1.363 . S
C627 C622 1.379 . S
C627 N625 1.356 . S
N628 C620 1.356 . S
N628 H634 0.984 . S
N628 H635 0.984 . S
N629 C622 1.356 . S
N629 H632 0.984 . S
N629 H633 0.985 . S
H630 N625 0.984 . S
H631 N625 0.985 . S
H632 N629 0.984 . S
H633 N629 0.985 . S
H634 N628 0.984 . S
H635 N628 0.984 . S
H636 N624 0.984 . S
H637 N624 0.985 . S
C638 C639 1.363 . S
C638 C644 1.379 . S
C638 N646 1.356 . S
C639 C638 1.363 . S
C639 C645 1.363 . S
C640 C641 1.363 . S
C640 C645 1.379 . S
C640 N647 1.356 . S
C641 C640 1.363 . S
C641 C644 1.363 . S
N642 C644 1.356 . S
N642 H654 0.984 . S
N642 H655 0.985 . S
N643 C645 1.356 . S
N643 H648 0.984 . S
N643 H649 0.985 . S
C644 C638 1.379 . S
C644 C641 1.363 . S
C644 N642 1.356 . S
C645 C639 1.363 . S
C645 C640 1.379 . S
C645 N643 1.356 . S
N646 C638 1.356 . S
N646 H652 0.984 . S
N646 H653 0.984 . S
N647 C640 1.356 . S
N647 H650 0.984 . S
N647 H651 0.985 . S
H648 N643 0.984 . S
H649 N643 0.985 . S
H650 N647 0.984 . S
H651 N647 0.985 . S
H652 N646 0.984 . S
H653 N646 0.984 . S
H654 N642 0.984 . S
H655 N642 0.985 . S
C656 C657 1.361 1_545 S
C656 C662 1.380 1_655 S
C656 N664 1.356 1_545 S
C657 C656 1.361 1_565 S
C657 C663 1.363 . S
C658 C659 1.361 1_565 S
C658 C663 1.380 1_455 S
C658 N665 1.356 1_565 S
C659 C658 1.361 1_545 S
C659 C662 1.363 . S
N660 C662 1.356 . S
N660 H672 0.984 1_455 S
N660 H673 0.985 . S
N661 C663 1.356 . S
N661 H666 0.984 . S
N661 H667 0.985 1_655 S
C662 C656 1.380 1_455 S
C662 C659 1.363 . S
C662 N660 1.356 . S
C663 C657 1.363 . S
C663 C658 1.380 1_655 S
C663 N661 1.356 . S
N664 C656 1.356 1_565 S
N664 H670 0.984 1_565 S
N664 H671 0.984 . S
N665 C658 1.356 1_545 S
N665 H668 0.984 . S
N665 H669 0.985 1_545 S
H666 N661 0.984 . S
H667 N661 0.985 1_455 S
H668 N665 0.984 . S
H669 N665 0.985 1_565 S
H670 N664 0.984 1_545 S
H671 N664 0.984 . S
H672 N660 0.984 1_655 S
H673 N660 0.985 . S
C674 C675 1.363 . S
C674 C680 1.379 1_545 S
C674 N682 1.356 . S
C675 C674 1.363 . S
C675 C681 1.363 1_655 S
C676 C677 1.363 . S
C676 C681 1.379 1_565 S
C676 N683 1.356 . S
C677 C676 1.363 . S
C677 C680 1.363 1_455 S
N678 C680 1.356 1_455 S
N678 H690 0.984 1_455 S
N678 H691 0.985 . S
N679 C681 1.356 1_655 S
N679 H684 0.984 . S
N679 H685 0.985 1_655 S
C680 C674 1.379 1_565 S
C680 C677 1.363 1_655 S
C680 N678 1.356 1_655 S
C681 C675 1.363 1_455 S
C681 C676 1.379 1_545 S
C681 N679 1.356 1_455 S
N682 C674 1.356 . S
N682 H688 0.984 1_545 S
N682 H689 0.984 . S
N683 C676 1.356 . S
N683 H686 0.984 . S
N683 H687 0.985 1_565 S
H684 N679 0.984 . S
H685 N679 0.985 1_455 S
H686 N683 0.984 . S
H687 N683 0.985 1_545 S
H688 N682 0.984 1_565 S
H689 N682 0.984 . S
H690 N678 0.984 1_655 S
H691 N678 0.985 . S
C692 C693 1.363 . S
C692 C698 1.379 1_455 S
C692 N700 1.356 1_556 S
C693 C692 1.363 . S
C693 C699 1.363 . S
C694 C695 1.363 . S
C694 C699 1.379 1_655 S
C694 N701 1.356 . S
C695 C694 1.363 . S
C695 C698 1.363 . S
N696 C698 1.356 1_554 S
N696 H708 0.984 . S
N696 H709 0.978 1_554 S
N697 C699 1.356 . S
N697 H702 0.984 . S
N697 H703 0.985 . S
C698 C692 1.379 1_655 S
C698 C695 1.363 . S
C698 N696 1.356 1_556 S
C699 C693 1.363 . S
C699 C694 1.379 1_455 S
C699 N697 1.356 . S
N700 C692 1.356 1_554 S
N700 H706 0.984 1_455 S
N700 H707 0.978 1_554 S
N701 C694 1.356 . S
N701 H704 0.984 . S
N701 H705 0.985 1_655 S
H702 N697 0.984 . S
H703 N697 0.985 . S
H704 N701 0.984 . S
H705 N701 0.985 1_455 S
H706 N700 0.984 1_655 S
H707 N700 0.978 1_556 S
H708 N696 0.984 . S
H709 N696 0.978 1_556 S
C710 C711 1.363 . S
C710 C716 1.379 1_565 S
C710 N718 1.356 . S
C711 C710 1.363 . S
C711 C717 1.363 . S
C712 C713 1.363 . S
C712 C717 1.379 1_545 S
C712 N719 1.356 1_554 S
C713 C712 1.363 . S
C713 C716 1.363 . S
N714 C716 1.356 . S
N714 H726 0.984 . S
N714 H727 0.985 . S
N715 C717 1.356 1_556 S
N715 H720 0.983 . S
N715 H721 0.985 . S
C716 C710 1.379 1_545 S
C716 C713 1.363 . S
C716 N714 1.356 . S
C717 C711 1.363 . S
C717 C712 1.379 1_565 S
C717 N715 1.356 1_554 S
N718 C710 1.356 . S
N718 H724 0.984 1_565 S
N718 H725 0.984 . S
N719 C712 1.356 1_556 S
N719 H722 0.983 . S
N719 H723 0.985 1_545 S
H720 N715 0.983 . S
H721 N715 0.985 . S
H722 N719 0.983 . S
H723 N719 0.985 1_565 S
H724 N718 0.984 1_545 S
H725 N718 0.984 . S
H726 N714 0.984 . S
H727 N714 0.985 . S
C728 C729 1.363 . S
C728 C734 1.379 . S
C728 N736 1.356 . S
C729 C728 1.363 . S
C729 C735 1.363 . S
C730 C731 1.363 . S
C730 C735 1.379 . S
C730 N737 1.356 . S
C731 C730 1.363 . S
C731 C734 1.363 . S
N732 C734 1.356 . S
N732 H744 0.984 . S
N732 H745 0.985 . S
N733 C735 1.356 . S
N733 H738 0.984 . S
N733 H739 0.985 . S
C734 C728 1.379 . S
C734 C731 1.363 . S
C734 N732 1.356 . S
C735 C729 1.363 . S
C735 C730 1.379 . S
C735 N733 1.356 . S
N736 C728 1.356 . S
N736 H742 0.984 . S
N736 H743 0.984 . S
N737 C730 1.356 . S
N737 H740 0.984 . S
N737 H741 0.985 . S
H738 N733 0.984 . S
H739 N733 0.985 . S
H740 N737 0.984 . S
H741 N737 0.985 . S
H742 N736 0.984 . S
H743 N736 0.984 . S
H744 N732 0.984 . S
H745 N732 0.985 . S
C746 C747 1.363 . S
C746 C752 1.379 . S
C746 N754 1.356 . S
C747 C746 1.363 . S
C747 C753 1.363 . S
C748 C749 1.363 . S
C748 C753 1.379 . S
C748 N755 1.356 . S
C749 C748 1.363 . S
C749 C752 1.363 . S
N750 C752 1.356 . S
N750 H762 0.984 . S
N750 H763 0.985 . S
N751 C753 1.356 . S
N751 H756 0.984 . S
N751 H757 0.985 . S
C752 C746 1.379 . S
C752 C749 1.363 . S
C752 N750 1.356 . S
C753 C747 1.363 . S
C753 C748 1.379 . S
C753 N751 1.356 . S
N754 C746 1.356 . S
N754 H760 0.984 . S
N754 H761 0.984 . S
N755 C748 1.356 . S
N755 H758 0.984 . S
N755 H759 0.985 . S
H756 N751 0.984 . S
H757 N751 0.985 . S
H758 N755 0.984 . S
H759 N755 0.985 . S
H760 N754 0.984 . S
H761 N754 0.984 . S
H762 N750 0.984 . S
H763 N750 0.985 . S
C764 C765 1.363 . S
C764 C770 1.380 . S
C764 N772 1.356 . S
C765 C764 1.363 . S
C765 C771 1.361 1_545 S
C766 C767 1.363 . S
C766 C771 1.380 . S
C766 N773 1.356 . S
C767 C766 1.363 . S
C767 C770 1.361 1_565 S
N768 C770 1.356 1_565 S
N768 H780 0.984 1_565 S
N768 H781 0.985 . S
N769 C771 1.356 1_545 S
N769 H774 0.984 . S
N769 H775 0.985 1_545 S
C770 C764 1.380 . S
C770 C767 1.361 1_545 S
C770 N768 1.356 1_545 S
C771 C765 1.361 1_565 S
C771 C766 1.380 . S
C771 N769 1.356 1_565 S
N772 C764 1.356 . S
N772 H778 0.984 . S
N772 H779 0.984 . S
N773 C766 1.356 . S
N773 H776 0.984 . S
N773 H777 0.985 . S
H774 N769 0.984 . S
H775 N769 0.985 1_565 S
H776 N773 0.984 . S
H777 N773 0.985 . S
H778 N772 0.984 . S
H779 N772 0.984 . S
H780 N768 0.984 1_545 S
H781 N768 0.985 . S
C782 C783 1.363 . S
C782 C788 1.379 . S
C782 N790 1.356 . S
C783 C782 1.363 . S
C783 C789 1.363 1_655 S
C784 C785 1.363 . S
C784 C789 1.379 . S
C784 N791 1.356 . S
C785 C784 1.363 . S
C785 C788 1.363 1_455 S
N786 C788 1.356 1_455 S
N786 H798 0.984 1_455 S
N786 H799 0.985 . S
N787 C789 1.356 1_655 S
N787 H792 0.984 . S
N787 H793 0.985 1_655 S
C788 C782 1.379 . S
C788 C785 1.363 1_655 S
C788 N786 1.356 1_655 S
C789 C783 1.363 1_455 S
C789 C784 1.379 . S
C789 N787 1.356 1_455 S
N790 C782 1.356 . S
N790 H796 0.984 . S
N790 H797 0.984 . S
N791 C784 1.356 . S
N791 H794 0.984 . S
N791 H795 0.985 . S
H792 N787 0.984 . S
H793 N787 0.985 1_455 S
H794 N791 0.984 . S
H795 N791 0.985 . S
H796 N790 0.984 . S
H797 N790 0.984 . S
H798 N786 0.984 1_655 S
H799 N786 0.985 . S
C225 C9 1.284 . S
C227 C159 1.332 . S
C243 C117 1.352 . S
C245 C14 1.311 . S
C261 C131 1.332 . S
C263 C37 1.284 . S
C279 C145 1.352 . S
C281 C42 1.311 . S
C297 C75 1.332 . S
C299 C65 1.306 . S
C315 C70 1.311 1_556 S
C317 C89 1.352 . S
C333 C93 1.306 . S
C335 C103 1.332 . S
C351 C98 1.311 1_556 S
C353 C61 1.352 . S
C369 C121 1.284 . S
C371 C47 1.332 . S
C387 C5 1.352 . S
C389 C126 1.311 . S
C405 C19 1.332 . S
C407 C149 1.284 . S
C423 C33 1.352 . S
C425 C154 1.311 . S
C441 C187 1.332 . S
C443 C177 1.284 . S
C459 C182 1.311 . S
C461 C201 1.352 . S
C477 C215 1.332 . S
C479 C205 1.284 . S
C495 C173 1.352 . S
C497 C210 1.311 . S
C513 C207 1.550 . S
C515 C11 1.550 . S
C531 C221 1.588 . S
C533 C25 1.588 . S
C549 C179 1.550 . S
C551 C39 1.550 . S
C567 C53 1.588 . S
C569 C193 1.588 . S
C585 C67 1.550 . S
C587 C151 1.550 . S
C603 C165 1.588 . S
C605 C81 1.588 . S
C621 C95 1.550 . S
C623 C123 1.550 . S
C639 C109 1.588 . S
C641 C137 1.588 . S
C657 C28 1.371 . S
C659 C0 1.371 . S
C675 C51 1.397 . S
C677 C23 1.397 . S
C693 C56 1.371 . S
C695 C84 1.371 . S
C711 C79 1.397 . S
C713 C107 1.397 . S
C729 C140 1.371 . S
C731 C112 1.371 . S
C747 C135 1.397 . S
C749 C163 1.397 . S
C765 C196 1.371 . S
C767 C168 1.371 . S
C783 C191 1.397 . S
C785 C219 1.397 . S
