# Generated by pormake.
# Topology snz, (6)-cn, num edge types: 1
# Building blocks:
#     Node 0, Type 0, BuildingBlock: BETDEL_clean_sbu_0, # of connection points: 6
#     Node 1, Type 0, BuildingBlock: BETDEL_clean_sbu_0, # of connection points: 6
#     Node 2, Type 0, BuildingBlock: BETDEL_clean_sbu_0, # of connection points: 6
#     Node 3, Type 0, BuildingBlock: BETDEL_clean_sbu_0, # of connection points: 6
#     Node 4, Type 0, BuildingBlock: BETDEL_clean_sbu_0, # of connection points: 6
#     Node 5, Type 0, BuildingBlock: BETDEL_clean_sbu_0, # of connection points: 6
#     Node 6, Type 0, BuildingBlock: BETDEL_clean_sbu_0, # of connection points: 6
#     Node 7, Type 0, BuildingBlock: BETDEL_clean_sbu_0, # of connection points: 6
#     Node 8, Type 0, BuildingBlock: BETDEL_clean_sbu_0, # of connection points: 6
#     Edge 9, Type (0, 0), BuildingBlock: TEMPAE_clean_linker_10, # of connection points: 2
#     Edge 10, Type (0, 0), BuildingBlock: TEMPAE_clean_linker_10, # of connection points: 2
#     Edge 11, Type (0, 0), BuildingBlock: TEMPAE_clean_linker_10, # of connection points: 2
#     Edge 12, Type (0, 0), BuildingBlock: TEMPAE_clean_linker_10, # of connection points: 2
#     Edge 13, Type (0, 0), BuildingBlock: TEMPAE_clean_linker_10, # of connection points: 2
#     Edge 14, Type (0, 0), BuildingBlock: TEMPAE_clean_linker_10, # of connection points: 2
#     Edge 15, Type (0, 0), BuildingBlock: TEMPAE_clean_linker_10, # of connection points: 2
#     Edge 16, Type (0, 0), BuildingBlock: TEMPAE_clean_linker_10, # of connection points: 2
#     Edge 17, Type (0, 0), BuildingBlock: TEMPAE_clean_linker_10, # of connection points: 2
#     Edge 18, Type (0, 0), BuildingBlock: TEMPAE_clean_linker_10, # of connection points: 2
#     Edge 19, Type (0, 0), BuildingBlock: TEMPAE_clean_linker_10, # of connection points: 2
#     Edge 20, Type (0, 0), BuildingBlock: TEMPAE_clean_linker_10, # of connection points: 2
#     Edge 21, Type (0, 0), BuildingBlock: TEMPAE_clean_linker_10, # of connection points: 2
#     Edge 22, Type (0, 0), BuildingBlock: TEMPAE_clean_linker_10, # of connection points: 2
#     Edge 23, Type (0, 0), BuildingBlock: TEMPAE_clean_linker_10, # of connection points: 2
#     Edge 24, Type (0, 0), BuildingBlock: TEMPAE_clean_linker_10, # of connection points: 2
#     Edge 25, Type (0, 0), BuildingBlock: TEMPAE_clean_linker_10, # of connection points: 2
#     Edge 26, Type (0, 0), BuildingBlock: TEMPAE_clean_linker_10, # of connection points: 2
#     Edge 27, Type (0, 0), BuildingBlock: TEMPAE_clean_linker_10, # of connection points: 2
#     Edge 28, Type (0, 0), BuildingBlock: TEMPAE_clean_linker_10, # of connection points: 2
#     Edge 29, Type (0, 0), BuildingBlock: TEMPAE_clean_linker_10, # of connection points: 2
#     Edge 30, Type (0, 0), BuildingBlock: TEMPAE_clean_linker_10, # of connection points: 2
#     Edge 31, Type (0, 0), BuildingBlock: TEMPAE_clean_linker_10, # of connection points: 2
#     Edge 32, Type (0, 0), BuildingBlock: TEMPAE_clean_linker_10, # of connection points: 2
#     Edge 33, Type (0, 0), BuildingBlock: TEMPAE_clean_linker_10, # of connection points: 2
#     Edge 34, Type (0, 0), BuildingBlock: TEMPAE_clean_linker_10, # of connection points: 2
#     Edge 35, Type (0, 0), BuildingBlock: TEMPAE_clean_linker_10, # of connection points: 2
# Relax obj value: 0.181
# Max RMSD: 0.228
# Mean RMSD: 0.174
data_MOF--net-snz--node1-BETDEL_clean_sbu_0--edge1-TEMPAE_clean_linker_10
_symmetry_space_group_name_H-M    P1
_symmetry_Int_Tables_number       1
_symmetry_cell_setting            triclinic
loop_
_symmetry_equiv_pos_as_xyz
'x, y, z'
_cell_length_a     52.606775
_cell_length_b     53.772816
_cell_length_c     14.876137
_cell_angle_alpha  92.093096
_cell_angle_beta   92.421399
_cell_angle_gamma 120.08844
loop_
_atom_site_label
_atom_site_type_symbol
_atom_site_fract_x
_atom_site_fract_y
_atom_site_fract_z
_atom_type_partial_charge
Dy0 Dy 0.07592 0.47186 0.03299 0.0
C1 C 0.99199 0.50488 0.94097 0.0
C2 C 0.11259 0.45284 0.09493 0.0
Dy3 Dy 0.02592 0.48331 1.0063 0.0
O4 O 0.10134 0.46461 0.14501 0.0
O5 O 0.104 0.4517 0.01107 0.0
O6 O 0.09332 0.4899 0.90069 0.0
O7 O 0.04795 0.46892 0.91404 0.0
C8 C 0.06793 0.48345 0.86195 0.0
C9 C 0.03473 0.47227 0.17722 0.0
O10 O 1.00242 0.43716 0.95643 0.0
O11 O 0.03565 0.42735 0.03044 0.0
O12 O 0.98883 0.49291 0.01722 0.0
O13 O 0.01316 0.50452 0.90072 0.0
O14 O 0.00888 0.46415 0.13828 0.0
O15 O 0.0543 0.48702 0.12446 0.0
O16 O 0.10225 0.51945 0.06606 0.0
O17 O 0.06482 0.52816 0.02127 0.0
C18 C 0.01 0.41863 0.98517 0.0
C19 C 0.09244 0.53738 0.05045 0.0
Dy20 Dy 0.60558 0.5336 0.07189 0.0
C21 C 0.57574 0.41904 0.97876 0.0
C22 C 0.62403 0.58824 0.14083 0.0
Dy23 Dy 0.59634 0.47472 0.04296 0.0
O24 O 0.59885 0.57152 0.09672 0.0
O25 O 0.63905 0.57521 0.14703 0.0
O26 O 0.58925 0.53407 0.93033 0.0
O27 O 0.60985 0.51025 0.95389 0.0
C28 C 0.59556 0.51559 0.89486 0.0
C29 C 0.60824 0.49517 0.21786 0.0
O30 O 0.64369 0.49904 0.01306 0.0
O31 O 0.65209 0.54179 0.08334 0.0
O32 O 0.58672 0.42926 0.06044 0.0
O33 O 0.57671 0.43936 0.93229 0.0
O34 O 0.61777 0.47923 0.182 0.0
O35 O 0.59189 0.49812 0.15994 0.0
O36 O 0.55869 0.50856 0.10683 0.0
O37 O 0.54979 0.46602 0.03513 0.0
C38 C 0.66196 0.52584 0.04549 0.0
C39 C 0.54015 0.48198 0.07364 0.0
Dy40 Dy 0.54477 0.00301 0.09388 0.0
C41 C 0.66139 0.08212 0.02584 0.0
C42 C 0.48892 0.96554 0.13929 0.0
Dy43 Dy 0.60617 0.05246 0.08677 0.0
O44 O 0.51277 0.97405 0.19033 0.0
O45 O 0.49553 0.97734 0.06274 0.0
O46 O 0.54768 0.98627 0.9554 0.0
O47 O 0.56888 0.0307 0.98636 0.0
C48 C 0.56464 0.01155 0.92624 0.0
C49 C 0.58801 0.04511 0.25611 0.0
O50 O 0.58076 0.07418 0.04743 0.0
O51 O 0.53887 0.04142 0.11301 0.0
O52 O 0.65172 0.09208 0.0888 0.0
O53 O 0.6407 0.05668 0.99556 0.0
O54 O 0.60761 0.06974 0.22811 0.0
O55 O 0.58194 0.02549 0.19516 0.0
O56 O 0.56706 0.97784 0.11919 0.0
O57 O 0.61375 0.01483 0.09461 0.0
C58 C 0.55435 0.06629 0.07595 0.0
C59 C 0.59541 0.98771 0.11153 0.0
Dy60 Dy 0.77783 0.84807 0.42083 0.0
C61 C 0.68976 0.87618 0.32969 0.0
C62 C 0.81372 0.8281 0.48208 0.0
Dy63 Dy 0.7271 0.85822 0.39294 0.0
O64 O 0.81309 0.83653 0.40179 0.0
O65 O 0.79523 0.8312 0.52941 0.0
O66 O 0.79503 0.86602 0.2882 0.0
O67 O 0.74963 0.84425 0.30132 0.0
C68 C 0.76951 0.85889 0.24903 0.0
C69 C 0.73618 0.84731 0.56391 0.0
O70 O 0.70296 0.81145 0.35081 0.0
O71 O 0.73872 0.80298 0.41375 0.0
O72 O 0.69588 0.87492 0.41428 0.0
O73 O 0.7037 0.86731 0.28032 0.0
O74 O 0.7102 0.83809 0.52406 0.0
O75 O 0.75563 0.86264 0.51167 0.0
O76 O 0.80139 0.89492 0.4651 0.0
O77 O 0.76614 0.90319 0.39735 0.0
C78 C 0.71203 0.79367 0.37539 0.0
C79 C 0.79247 0.9128 0.43919 0.0
Dy80 Dy 0.22307 0.85958 0.34833 0.0
C81 C 0.20069 0.74679 0.25799 0.0
C82 C 0.24209 0.91496 0.41239 0.0
Dy83 Dy 0.21598 0.80117 0.32226 0.0
O84 O 0.23031 0.90429 0.33163 0.0
O85 O 0.24277 0.89523 0.45805 0.0
O86 O 0.20213 0.85441 0.20855 0.0
O87 O 0.2289 0.83652 0.23362 0.0
C88 C 0.21254 0.83902 0.17431 0.0
C89 C 0.22715 0.8216 0.49698 0.0
O90 O 0.26364 0.82634 0.29707 0.0
O91 O 0.27025 0.86983 0.35463 0.0
O92 O 0.20841 0.75664 0.3415 0.0
O93 O 0.2013 0.76663 0.20954 0.0
O94 O 0.23602 0.80501 0.46194 0.0
O95 O 0.21092 0.82461 0.43828 0.0
O96 O 0.17567 0.83403 0.37746 0.0
O97 O 0.16875 0.791 0.3136 0.0
C98 C 0.28102 0.85384 0.32355 0.0
C99 C 0.15811 0.80672 0.3483 0.0
Dy100 Dy 0.21373 0.28962 0.28939 0.0
C101 C 0.33001 0.37803 0.23978 0.0
C102 C 0.15582 0.25475 0.32254 0.0
Dy103 Dy 0.27445 0.33992 0.2858 0.0
O104 O 0.17801 0.256 0.36861 0.0
O105 O 0.16531 0.2717 0.25715 0.0
O106 O 0.2172 0.27347 0.15112 0.0
O107 O 0.23769 0.31786 0.18334 0.0
C108 C 0.23394 0.29894 0.12295 0.0
C109 C 0.25454 0.3315 0.45303 0.0
O110 O 0.24986 0.36299 0.26014 0.0
O111 O 0.20765 0.32767 0.31747 0.0
O112 O 0.32263 0.3711 0.32116 0.0
O113 O 0.307 0.36432 0.18363 0.0
O114 O 0.27263 0.3566 0.42467 0.0
O115 O 0.24999 0.31213 0.39299 0.0
O116 O 0.23806 0.26633 0.31877 0.0
O117 O 0.28248 0.30256 0.27405 0.0
C118 C 0.22311 0.35363 0.28704 0.0
C119 C 0.26578 0.27612 0.30002 0.0
Dy120 Dy 0.42304 0.16628 0.61299 0.0
C121 C 0.37716 0.18871 0.91563 0.0
C122 C 0.44665 0.16684 0.4525 0.0
Dy123 Dy 0.39089 0.16977 0.76365 0.0
O124 O 0.46122 0.17986 0.52799 0.0
O125 O 0.41955 0.14952 0.47059 0.0
O126 O 0.46525 0.19967 0.68666 0.0
O127 O 0.42737 0.20274 0.69656 0.0
C128 C 0.45415 0.21392 0.72323 0.0
C129 C 0.35887 0.12187 0.65546 0.0
O130 O 0.37607 0.19107 0.66731 0.0
O131 O 0.39213 0.1783 0.5414 0.0
O132 O 0.39215 0.20449 0.85278 0.0
O133 O 0.36949 0.162 0.89511 0.0
O134 O 0.34772 0.13529 0.69817 0.0
O135 O 0.38595 0.13312 0.67874 0.0
O136 O 0.43085 0.13844 0.70272 0.0
O137 O 0.42421 0.15975 0.83004 0.0
C138 C 0.37743 0.18947 0.57937 0.0
C139 C 0.43435 0.1441 0.79104 0.0
Dy140 Dy 0.92694 0.1716 0.7759 0.0
C141 C 0.86633 0.1465 0.4357 0.0
C142 C 0.96306 0.17782 0.92209 0.0
Dy143 Dy 0.89357 0.16773 0.60259 0.0
O144 O 0.94904 0.19191 0.91189 0.0
O145 O 0.95855 0.16194 0.8488 0.0
O146 O 0.89519 0.12432 0.78714 0.0
O147 O 0.908 0.14011 0.66093 0.0
C148 C 0.89199 0.11795 0.70123 0.0
C149 C 0.91215 0.21669 0.70383 0.0
O150 O 0.85743 0.14923 0.69628 0.0
O151 O 0.88676 0.17001 0.82876 0.0
O152 O 0.88407 0.17365 0.45987 0.0
O153 O 0.86133 0.13174 0.50659 0.0
O154 O 0.88795 0.2047 0.65168 0.0
O155 O 0.92609 0.20357 0.6927 0.0
O156 O 0.96437 0.18992 0.68618 0.0
O157 O 0.93715 0.17923 0.54887 0.0
C158 C 0.8606 0.15681 0.78344 0.0
C159 C 0.96243 0.1885 0.59691 0.0
Dy160 Dy 0.88961 0.65401 0.61074 0.0
C161 C 0.9518 0.70497 0.94668 0.0
C162 C 0.85585 0.64358 0.45534 0.0
Dy163 Dy 0.92785 0.68412 0.77544 0.0
O164 O 0.86005 0.66203 0.52064 0.0
O165 O 0.87067 0.63081 0.47478 0.0
O166 O 0.88125 0.61116 0.65249 0.0
O167 O 0.9225 0.6483 0.68809 0.0
C168 C 0.90652 0.6217 0.69832 0.0
C169 C 0.90806 0.7146 0.68789 0.0
O170 O 0.96305 0.69195 0.68472 0.0
O171 O 0.93347 0.68549 0.55648 0.0
O172 O 0.95405 0.72028 0.87917 0.0
O173 O 0.94169 0.67871 0.91387 0.0
O174 O 0.93444 0.72574 0.72523 0.0
O175 O 0.89354 0.68827 0.70191 0.0
O176 O 0.85423 0.6395 0.70534 0.0
O177 O 0.88519 0.65269 0.83474 0.0
C178 C 0.95996 0.69515 0.59799 0.0
C179 C 0.85846 0.63931 0.79315 0.0
C180 C 0.04864 0.49454 0.72015 0.0
C181 C 0.06268 0.48125 0.76185 0.0
C182 C 0.04435 0.49317 0.62522 0.0
C183 C 0.05375 0.47756 0.57017 0.0
C184 C 0.06759 0.46375 0.61249 0.0
C185 C 0.07222 0.46609 0.70739 0.0
C186 C 0.03012 0.50881 0.58381 0.0
C187 C 0.07734 0.44627 0.55751 0.0
C188 C 0.01813 0.45302 0.32874 0.0
C189 C 0.04024 0.47277 0.27696 0.0
C190 C 0.02242 0.45397 0.4235 0.0
C191 C 0.0492 0.47573 0.46865 0.0
C192 C 0.0716 0.49577 0.41645 0.0
C193 C 0.06703 0.4938 0.32153 0.0
C194 C 0.9982 0.43162 0.47538 0.0
C195 C 0.10025 0.51971 0.46107 0.0
H196 H 0.04165 0.50666 0.76162 0.0
H197 H 0.08301 0.45569 0.7393 0.0
H198 H 0.04514 0.52455 0.53759 0.0
H199 H 0.00966 0.49331 0.54301 0.0
H200 H 0.02456 0.52044 0.63545 0.0
H201 H 0.08682 0.43603 0.60045 0.0
H202 H 0.05837 0.42917 0.51465 0.0
H203 H 0.09412 0.46022 0.51172 0.0
H204 H 0.99741 0.43665 0.29493 0.0
H205 H 0.08418 0.5093 0.28232 0.0
H206 H 0.99013 0.4422 0.52233 0.0
H207 H 0.00687 0.42039 0.51682 0.0
H208 H 0.97928 0.41533 0.43033 0.0
H209 H 0.0958 0.53299 0.50969 0.0
H210 H 0.11521 0.53395 0.41153 0.0
H211 H 0.11175 0.51057 0.49983 0.0
C212 C 0.59503 0.48722 0.75542 0.0
C213 C 0.59777 0.51248 0.7959 0.0
C214 C 0.59636 0.48394 0.66143 0.0
C215 C 0.60196 0.50702 0.60672 0.0
C216 C 0.60561 0.53291 0.64795 0.0
C217 C 0.60286 0.53508 0.74136 0.0
C218 C 0.59123 0.45555 0.62053 0.0
C219 C 0.61276 0.55851 0.59352 0.0
C220 C 0.63165 0.50669 0.37587 0.0
C221 C 0.60697 0.49891 0.31685 0.0
C222 C 0.63053 0.50996 0.46998 0.0
C223 C 0.6037 0.50405 0.50647 0.0
C224 C 0.57855 0.49563 0.44679 0.0
C225 C 0.58066 0.49377 0.35288 0.0
C226 C 0.6582 0.52011 0.53027 0.0
C227 C 0.54921 0.48808 0.48214 0.0
H228 H 0.59114 0.46972 0.79688 0.0
H229 H 0.60538 0.55484 0.77218 0.0
H230 H 0.57305 0.44692 0.56681 0.0
H231 H 0.61122 0.45872 0.58857 0.0
H232 H 0.5856 0.43925 0.67135 0.0
H233 H 0.61673 0.57765 0.63635 0.0
H234 H 0.63264 0.56431 0.55631 0.0
H235 H 0.59438 0.553 0.54268 0.0
H236 H 0.65203 0.51075 0.34818 0.0
H237 H 0.5614 0.48742 0.30756 0.0
H238 H 0.65507 0.50334 0.57696 0.0
H239 H 0.66299 0.53967 0.57224 0.0
H240 H 0.6776 0.52517 0.49131 0.0
H241 H 0.54291 0.47106 0.53063 0.0
H242 H 0.53141 0.48036 0.42734 0.0
H243 H 0.55085 0.50717 0.51906 0.0
C244 C 0.57317 0.99815 0.77096 0.0
C245 C 0.56882 0.01673 0.82854 0.0
C246 C 0.57662 0.00251 0.67808 0.0
C247 C 0.57446 0.02535 0.64051 0.0
C248 C 0.56955 0.04388 0.69848 0.0
C249 C 0.56739 0.03971 0.79169 0.0
C250 C 0.58294 0.98285 0.6203 0.0
C251 C 0.56607 0.0679 0.66184 0.0
C252 C 0.60838 0.0549 0.41768 0.0
C253 C 0.58432 0.03986 0.35395 0.0
C254 C 0.60562 0.04995 0.51027 0.0
C255 C 0.57782 0.03017 0.54121 0.0
C256 C 0.55331 0.01523 0.47701 0.0
C257 C 0.55698 0.0199 0.38431 0.0
C258 C 0.63262 0.06568 0.57494 0.0
C259 C 0.52305 0.99465 0.50636 0.0
H260 H 0.57437 0.9804 0.79899 0.0
H261 H 0.5637 0.054 0.83547 0.0
H262 H 0.56498 0.97107 0.56668 0.0
H263 H 0.60358 0.99576 0.58639 0.0
H264 H 0.58519 0.96689 0.66009 0.0
H265 H 0.56071 0.07939 0.71454 0.0
H266 H 0.58668 0.08371 0.63264 0.0
H267 H 0.54831 0.0591 0.60674 0.0
H268 H 0.62966 0.0702 0.39479 0.0
H269 H 0.53823 0.00849 0.33576 0.0
H270 H 0.63579 0.04997 0.61314 0.0
H271 H 0.62969 0.07972 0.62477 0.0
H272 H 0.65289 0.07919 0.53991 0.0
H273 H 0.52336 0.97691 0.54122 0.0
H274 H 0.50616 0.98514 0.4487 0.0
H275 H 0.51642 0.00606 0.55529 0.0
C276 C 0.76668 0.87143 0.70944 0.0
C277 C 0.74162 0.84818 0.66378 0.0
C278 C 0.77107 0.87351 0.80441 0.0
C279 C 0.75046 0.85132 0.85556 0.0
C280 C 0.72551 0.8274 0.80928 0.0
C281 C 0.72115 0.82639 0.71448 0.0
C282 C 0.79755 0.89981 0.85017 0.0
C283 C 0.70342 0.80275 0.85993 0.0
C284 C 0.7774 0.84534 0.09346 0.0
C285 C 0.76427 0.85678 0.14881 0.0
C286 C 0.77267 0.84294 0.99857 0.0
C287 C 0.75507 0.85306 0.95708 0.0
C288 C 0.74207 0.865 0.01298 0.0
C289 C 0.74653 0.86637 0.10787 0.0
C290 C 0.78632 0.82931 0.9427 0.0
C291 C 0.72382 0.87681 0.97253 0.0
H292 H 0.7825 0.88852 0.67101 0.0
H293 H 0.70179 0.80831 0.67975 0.0
H294 H 0.7903 0.9105 0.89974 0.0
H295 H 0.81175 0.89342 0.888 0.0
H296 H 0.81094 0.91566 0.80142 0.0
H297 H 0.68597 0.78512 0.81407 0.0
H298 H 0.71476 0.79385 0.90082 0.0
H299 H 0.69283 0.81056 0.90729 0.0
H300 H 0.79105 0.83776 0.12462 0.0
H301 H 0.73679 0.87572 0.14995 0.0
H302 H 0.8019 0.84512 0.89781 0.0
H303 H 0.76897 0.81095 0.89889 0.0
H304 H 0.79836 0.8214 0.98502 0.0
H305 H 0.73714 0.894 0.92739 0.0
H306 H 0.71563 0.88583 0.02478 0.0
H307 H 0.70463 0.85959 0.93077 0.0
C308 C 0.23166 0.85038 0.64032 0.0
C309 C 0.22457 0.82404 0.59588 0.0
C310 C 0.23004 0.85288 0.73449 0.0
C311 C 0.22009 0.8282 0.78536 0.0
C312 C 0.2123 0.8014 0.74006 0.0
C313 C 0.21513 0.79977 0.64648 0.0
C314 C 0.23947 0.88208 0.77974 0.0
C315 C 0.20066 0.77431 0.79032 0.0
C316 C 0.23896 0.83633 0.04051 0.0
C317 C 0.2139 0.83487 0.07537 0.0
C318 C 0.24146 0.83467 0.94668 0.0
C319 C 0.21789 0.83038 0.8857 0.0
C320 C 0.19218 0.82806 0.92093 0.0
C321 C 0.19074 0.83087 0.01502 0.0
C322 C 0.26964 0.83814 0.91281 0.0
C323 C 0.16609 0.82247 0.85916 0.0
H324 H 0.23923 0.86923 0.60191 0.0
H325 H 0.20939 0.77928 0.61236 0.0
H326 H 0.22073 0.88158 0.81277 0.0
H327 H 0.25719 0.8877 0.83327 0.0
H328 H 0.24761 0.89931 0.73143 0.0
H329 H 0.19431 0.75496 0.74482 0.0
H330 H 0.21757 0.77656 0.84221 0.0
H331 H 0.18113 0.77083 0.82599 0.0
H332 H 0.25709 0.83972 0.08669 0.0
H333 H 0.1713 0.82967 0.04158 0.0
H334 H 0.27915 0.85619 0.86769 0.0
H335 H 0.26503 0.81838 0.87254 0.0
H336 H 0.28633 0.84245 0.96864 0.0
H337 H 0.17246 0.84061 0.81517 0.0
H338 H 0.1472 0.81976 0.89702 0.0
H339 H 0.15881 0.80276 0.81449 0.0
C340 C 0.27525 0.34244 0.61389 0.0
C341 C 0.25122 0.32641 0.55078 0.0
C342 C 0.27294 0.33768 0.70655 0.0
C343 C 0.24556 0.31717 0.73809 0.0
C344 C 0.22106 0.30125 0.6745 0.0
C345 C 0.22435 0.30563 0.58157 0.0
C346 C 0.29998 0.35438 0.77061 0.0
C347 C 0.19119 0.27992 0.70473 0.0
C348 C 0.24307 0.28617 0.96809 0.0
C349 C 0.23799 0.30427 0.02549 0.0
C350 C 0.24609 0.2904 0.87512 0.0
C351 C 0.24269 0.31253 0.8374 0.0
C352 C 0.23709 0.33059 0.89523 0.0
C353 C 0.23542 0.32662 0.98856 0.0
C354 C 0.25325 0.27135 0.8174 0.0
C355 C 0.23231 0.35381 0.85828 0.0
H356 H 0.29618 0.35833 0.5904 0.0
H357 H 0.2057 0.29331 0.53311 0.0
H358 H 0.29648 0.36808 0.82022 0.0
H359 H 0.30406 0.33928 0.80912 0.0
H360 H 0.31995 0.36839 0.73501 0.0
H361 H 0.17409 0.27019 0.64767 0.0
H362 H 0.19232 0.2624 0.73834 0.0
H363 H 0.18427 0.29074 0.75493 0.0
H364 H 0.24513 0.2689 0.99631 0.0
H365 H 0.23114 0.34049 0.03233 0.0
H366 H 0.27353 0.28479 0.78244 0.0
H367 H 0.23519 0.25883 0.76463 0.0
H368 H 0.25658 0.25606 0.85746 0.0
H369 H 0.25251 0.37007 0.82832 0.0
H370 H 0.22651 0.36493 0.91099 0.0
H371 H 0.21437 0.34432 0.80371 0.0
C372 C 0.4494 0.17532 0.28999 0.0
C373 C 0.45032 0.18505 0.37863 0.0
C374 C 0.44119 0.18695 0.2195 0.0
C375 C 0.43172 0.20689 0.24029 0.0
C376 C 0.43556 0.21882 0.32903 0.0
C377 C 0.44588 0.20836 0.39717 0.0
C378 C 0.4392 0.17535 0.12395 0.0
C379 C 0.42484 0.23935 0.35387 0.0
C380 C 0.40693 0.22714 0.03131 0.0
C381 C 0.38145 0.20049 0.00838 0.0
C382 C 0.42307 0.23148 0.11302 0.0
C383 C 0.41181 0.20948 0.1739 0.0
C384 C 0.38261 0.18594 0.15908 0.0
C385 C 0.36769 0.18152 0.07502 0.0
C386 C 0.45381 0.25719 0.12534 0.0
C387 C 0.36925 0.16266 0.22464 0.0
H388 H 0.45292 0.15736 0.27638 0.0
H389 H 0.44658 0.21573 0.46661 0.0
H390 H 0.44773 0.19312 0.07768 0.0
H391 H 0.45171 0.16385 0.11823 0.0
H392 H 0.41587 0.15992 0.10146 0.0
H393 H 0.40044 0.22787 0.34446 0.0
H394 H 0.43146 0.24823 0.42502 0.0
H395 H 0.43342 0.25746 0.30906 0.0
H396 H 0.41701 0.24242 0.9802 0.0
H397 H 0.34744 0.16133 0.05763 0.0
H398 H 0.46427 0.26034 0.19421 0.0
H399 H 0.45333 0.27698 0.10942 0.0
H400 H 0.46781 0.25444 0.0767 0.0
H401 H 0.37641 0.14673 0.2116 0.0
H402 H 0.34483 0.15099 0.21642 0.0
H403 H 0.37659 0.17171 0.29516 0.0
C404 C 0.87113 0.14853 0.27188 0.0
C405 C 0.87076 0.13521 0.35083 0.0
C406 C 0.88852 0.14877 0.20297 0.0
C407 C 0.90736 0.13725 0.21734 0.0
C408 C 0.90455 0.12112 0.29278 0.0
C409 C 0.88505 0.11915 0.35673 0.0
C410 C 0.88871 0.1637 0.11877 0.0
C411 C 0.92358 0.108 0.31177 0.0
C412 C 0.94714 0.13716 0.01511 0.0
C413 C 0.96438 0.16707 0.00979 0.0
C414 C 0.92935 0.12607 0.08711 0.0
C415 C 0.93189 0.14534 0.15868 0.0
C416 C 0.95518 0.17439 0.16352 0.0
C417 C 0.97069 0.18528 0.08697 0.0
C418 C 0.90558 0.09467 0.08068 0.0
C419 C 0.96099 0.19499 0.24373 0.0
H420 H 0.85986 0.16072 0.26718 0.0
H421 H 0.88441 0.10844 0.41757 0.0
H422 H 0.90753 0.18611 0.12483 0.0
H423 H 0.89115 0.15248 0.05849 0.0
H424 H 0.86825 0.16476 0.10832 0.0
H425 H 0.93192 0.11251 0.38379 0.0
H426 H 0.90993 0.08429 0.29912 0.0
H427 H 0.94268 0.11578 0.26976 0.0
H428 H 0.94326 0.1229 0.95619 0.0
H429 H 0.98481 0.20835 0.08379 0.0
H430 H 0.88388 0.09229 0.09403 0.0
H431 H 0.91082 0.08319 0.13198 0.0
H432 H 0.90356 0.08391 0.01343 0.0
H433 H 0.94989 0.20752 0.23024 0.0
H434 H 0.98495 0.21062 0.25525 0.0
H435 H 0.95283 0.18358 0.30598 0.0
C436 C 0.85111 0.63083 0.29342 0.0
C437 C 0.84791 0.64685 0.36323 0.0
C438 C 0.86219 0.64361 0.21342 0.0
C439 C 0.86997 0.67272 0.20546 0.0
C440 C 0.86064 0.68638 0.26787 0.0
C441 C 0.84858 0.67261 0.34577 0.0
C442 C 0.87065 0.62793 0.14573 0.0
C443 C 0.86753 0.71706 0.26166 0.0
C444 C 0.94374 0.70586 0.10918 0.0
C445 C 0.93584 0.70765 0.02031 0.0
C446 C 0.92294 0.69797 0.17392 0.0
C447 C 0.89346 0.68996 0.14642 0.0
C448 C 0.88614 0.69392 0.05812 0.0
C449 C 0.90787 0.70378 0.99668 0.0
C450 C 0.9317 0.69543 0.26958 0.0
C451 C 0.85479 0.68449 0.02574 0.0
H452 H 0.84942 0.61033 0.30621 0.0
H453 H 0.84471 0.68443 0.39896 0.0
H454 H 0.86709 0.63285 0.07627 0.0
H455 H 0.89439 0.63518 0.1576 0.0
H456 H 0.8581 0.60431 0.15189 0.0
H457 H 0.88491 0.73099 0.31493 0.0
H458 H 0.87522 0.72575 0.19554 0.0
H459 H 0.84764 0.71847 0.27464 0.0
H460 H 0.96534 0.70878 0.12659 0.0
H461 H 0.90187 0.70505 0.927 0.0
H462 H 0.92127 0.67244 0.28459 0.0
H463 H 0.92399 0.70611 0.3176 0.0
H464 H 0.95588 0.70511 0.28118 0.0
H465 H 0.84099 0.66073 0.02703 0.0
H466 H 0.85315 0.69053 0.95598 0.0
H467 H 0.84537 0.69408 0.07126 0.0
C468 C 0.17828 0.35861 0.28191 0.0
C469 C 0.20874 0.37111 0.27447 0.0
C470 C 0.16346 0.3733 0.25839 0.0
C471 C 0.1795 0.40138 0.22775 0.0
C472 C 0.21045 0.41469 0.22433 0.0
C473 C 0.22468 0.39933 0.24716 0.0
C474 C 0.13041 0.3582 0.26231 0.0
C475 C 0.22838 0.44476 0.1933 0.0
C476 C 0.13771 0.42456 0.06959 0.0
C477 C 0.13089 0.44096 0.1285 0.0
C478 C 0.15377 0.41183 0.10098 0.0
C479 C 0.16356 0.4159 0.19338 0.0
C480 C 0.15728 0.433 0.25281 0.0
C481 C 0.14082 0.44519 0.21972 0.0
C482 C 0.1597 0.39349 0.03554 0.0
C483 C 0.16763 0.43813 0.35146 0.0
H484 H 0.16569 0.33679 0.30264 0.0
H485 H 0.24822 0.40922 0.24151 0.0
H486 H 0.12409 0.37179 0.30248 0.0
H487 H 0.11988 0.35468 0.19322 0.0
H488 H 0.1214 0.33701 0.29226 0.0
H489 H 0.25244 0.45307 0.20268 0.0
H490 H 0.2226 0.44482 0.12076 0.0
H491 H 0.22324 0.45974 0.23075 0.0
H492 H 0.12997 0.4212 0.99906 0.0
H493 H 0.13561 0.45793 0.26537 0.0
H494 H 0.1495 0.37115 0.05728 0.0
H495 H 0.18374 0.40193 0.03509 0.0
H496 H 0.15091 0.39277 0.96568 0.0
H497 H 0.15733 0.41739 0.38416 0.0
H498 H 0.16214 0.45306 0.38784 0.0
H499 H 0.19183 0.44724 0.35898 0.0
C500 C 0.61446 0.62606 0.2047 0.0
C501 C 0.63445 0.6178 0.17735 0.0
C502 C 0.62445 0.65409 0.24194 0.0
C503 C 0.65501 0.67446 0.24835 0.0
C504 C 0.67517 0.66622 0.21903 0.0
C505 C 0.66465 0.63779 0.18556 0.0
C506 C 0.60242 0.66178 0.27554 0.0
C507 C 0.70783 0.68753 0.22184 0.0
C508 C 0.68146 0.75443 0.25887 0.0
C509 C 0.6938 0.76285 0.34764 0.0
C510 C 0.66811 0.72554 0.22601 0.0
C511 C 0.66611 0.70454 0.28459 0.0
C512 C 0.67695 0.71279 0.37601 0.0
C513 C 0.69133 0.74204 0.40595 0.0
C514 C 0.65787 0.71784 0.12734 0.0
C515 C 0.67426 0.6909 0.44135 0.0
H516 H 0.59109 0.6104 0.19895 0.0
H517 H 0.68004 0.63133 0.16382 0.0
H518 H 0.60825 0.66981 0.34749 0.0
H519 H 0.60306 0.67939 0.23735 0.0
H520 H 0.57957 0.64313 0.26892 0.0
H521 H 0.72033 0.678 0.19224 0.0
H522 H 0.71188 0.70651 0.18436 0.0
H523 H 0.71664 0.69541 0.29252 0.0
H524 H 0.68386 0.77071 0.21354 0.0
H525 H 0.70093 0.7487 0.47466 0.0
H526 H 0.63462 0.70013 0.11931 0.0
H527 H 0.67128 0.71002 0.09394 0.0
H528 H 0.65982 0.73648 0.09185 0.0
H529 H 0.65147 0.67222 0.4364 0.0
H530 H 0.68008 0.70019 0.51217 0.0
H531 H 0.68915 0.68267 0.42421 0.0
C532 C 0.45466 0.93452 0.25048 0.0
C533 C 0.45887 0.94673 0.16689 0.0
C534 C 0.42626 0.91776 0.27997 0.0
C535 C 0.4016 0.9134 0.22478 0.0
C536 C 0.40575 0.92535 0.1396 0.0
C537 C 0.43439 0.94181 0.11151 0.0
C538 C 0.42271 0.90519 0.37081 0.0
C539 C 0.38 0.92135 0.07912 0.0
C540 C 0.32429 0.85315 0.26173 0.0
C541 C 0.31277 0.86819 0.30742 0.0
C542 C 0.35347 0.86741 0.23658 0.0
C543 C 0.37151 0.89742 0.25749 0.0
C544 C 0.36036 0.91251 0.30645 0.0
C545 C 0.33118 0.89772 0.33098 0.0
C546 C 0.36467 0.85057 0.18498 0.0
C547 C 0.37892 0.94453 0.33013 0.0
H548 H 0.47361 0.9383 0.29337 0.0
H549 H 0.43765 0.95132 0.04694 0.0
H550 H 0.41296 0.91451 0.41609 0.0
H551 H 0.40734 0.88157 0.36352 0.0
H552 H 0.444 0.9094 0.40353 0.0
H553 H 0.3869 0.93128 0.0138 0.0
H554 H 0.36384 0.89808 0.06533 0.0
H555 H 0.36852 0.93117 0.1135 0.0
H556 H 0.31029 0.83035 0.24315 0.0
H557 H 0.32258 0.90956 0.36652 0.0
H558 H 0.38573 0.85436 0.218 0.0
H559 H 0.36916 0.85805 0.11584 0.0
H560 H 0.34865 0.82705 0.17982 0.0
H561 H 0.39988 0.94962 0.36724 0.0
H562 H 0.36743 0.95281 0.37206 0.0
H563 H 0.38465 0.95621 0.26745 0.0
C564 C 0.55216 0.10578 0.99684 0.0
C565 C 0.53957 0.08295 0.05372 0.0
C566 C 0.53609 0.11831 0.963 0.0
C567 C 0.50671 0.10771 0.98626 0.0
C568 C 0.4946 0.08595 0.04811 0.0
C569 C 0.51115 0.07389 0.08116 0.0
C570 C 0.55002 0.14185 0.89852 0.0
C571 C 0.46347 0.07416 0.07521 0.0
C572 C 0.46673 0.14846 0.92701 0.0
C573 C 0.45138 0.13398 0.84489 0.0
C574 C 0.48509 0.14043 0.97376 0.0
C575 C 0.48762 0.11698 0.93837 0.0
C576 C 0.47171 0.10201 0.85627 0.0
C577 C 0.45399 0.11079 0.81042 0.0
C578 C 0.50182 0.15713 0.06066 0.0
C579 C 0.47358 0.07679 0.81622 0.0
H580 H 0.57409 0.11305 0.97538 0.0
H581 H 0.50122 0.05644 0.12567 0.0
H582 H 0.53916 0.13349 0.82987 0.0
H583 H 0.54686 0.16013 0.91878 0.0
H584 H 0.57397 0.14999 0.89536 0.0
H585 H 0.45816 0.05906 0.12971 0.0
H586 H 0.45998 0.09199 0.0984 0.0
H587 H 0.44776 0.06255 0.01591 0.0
H588 H 0.46515 0.16667 0.95325 0.0
H589 H 0.44216 0.09946 0.74704 0.0
H590 H 0.5024 0.17803 0.06911 0.0
H591 H 0.52478 0.16138 0.06364 0.0
H592 H 0.491 0.14423 0.11836 0.0
H593 H 0.49668 0.08379 0.80213 0.0
H594 H 0.45949 0.06719 0.75256 0.0
H595 H 0.46674 0.05983 0.8651 0.0
C596 C 0.90636 0.25374 0.79183 0.0
C597 C 0.92471 0.24503 0.75337 0.0
C598 C 0.91827 0.28092 0.83825 0.0
C599 C 0.94911 0.30015 0.84284 0.0
C600 C 0.96767 0.29129 0.80397 0.0
C601 C 0.95526 0.2636 0.76129 0.0
C602 C 0.89789 0.28914 0.88182 0.0
C603 C 1.00054 0.31139 0.80467 0.0
C604 C 0.97819 0.38065 0.86614 0.0
C605 C 0.99165 0.38796 0.95383 0.0
C606 C 0.96386 0.35206 0.82974 0.0
C607 C 0.962 0.3301 0.88356 0.0
C608 C 0.97424 0.3372 0.97392 0.0
C609 C 0.98952 0.3662 1.00741 0.0
C610 C 0.95207 0.34564 0.73218 0.0
C611 C 0.97179 0.31428 0.03443 0.0
H612 H 0.88273 0.23914 0.78653 0.0
H613 H 0.96942 0.25682 0.73123 0.0
H614 H 0.90575 0.29697 0.95322 0.0
H615 H 0.89788 0.30702 0.84697 0.0
H616 H 0.8749 0.27081 0.8796 0.0
H617 H 0.0118 0.30124 0.77069 0.0
H618 H 0.00516 0.33103 0.77012 0.0
H619 H 0.01022 0.31837 0.87498 0.0
H620 H 0.98022 0.39753 0.82414 0.0
H621 H 0.99989 0.37188 0.07533 0.0
H622 H 0.92834 0.32911 0.72665 0.0
H623 H 0.96368 0.33674 0.69375 0.0
H624 H 0.9549 0.36511 0.69997 0.0
H625 H 0.9487 0.29619 0.0317 0.0
H626 H 0.97914 0.32281 0.10565 0.0
H627 H 0.98551 0.30538 0.01075 0.0
C628 C 0.80667 0.6245 0.81927 0.0
C629 C 0.8322 0.62375 0.84464 0.0
C630 C 0.78049 0.60809 0.8614 0.0
C631 C 0.77971 0.5902 0.93003 0.0
C632 C 0.80553 0.5895 0.95643 0.0
C633 C 0.83163 0.60651 0.9137 0.0
C634 C 0.75344 0.60936 0.83066 0.0
C635 C 0.80544 0.57048 0.02864 0.0
C636 C 0.71399 0.56667 0.07137 0.0
C637 C 0.69357 0.53992 0.02747 0.0
C638 C 0.74289 0.58248 0.0444 0.0
C639 C 0.75137 0.57151 0.97081 0.0
C640 C 0.73138 0.5438 0.92973 0.0
C641 C 0.7028 0.52826 0.959 0.0
C642 C 0.76386 0.61161 0.09137 0.0
C643 C 0.73956 0.53133 0.85102 0.0
H644 H 0.80713 0.63783 0.76566 0.0
H645 H 0.85126 0.60552 0.93187 0.0
H646 H 0.73578 0.5877 0.80346 0.0
H647 H 0.74492 0.61577 0.88868 0.0
H648 H 0.75792 0.62482 0.77771 0.0
H649 H 0.8257 0.56889 0.03127 0.0
H650 H 0.80377 0.57939 0.09516 0.0
H651 H 0.78609 0.54845 0.01728 0.0
H652 H 0.70713 0.57572 0.12499 0.0
H653 H 0.6872 0.50764 0.9246 0.0
H654 H 0.7681 0.62874 0.0448 0.0
H655 H 0.78534 0.61332 0.11019 0.0
H656 H 0.75501 0.61577 0.15306 0.0
H657 H 0.74197 0.54402 0.79153 0.0
H658 H 0.7227 0.50847 0.8325 0.0
H659 H 0.76104 0.5327 0.86681 0.0
C660 C 0.94483 0.61692 0.78859 0.0
C661 C 0.91712 0.60393 0.74138 0.0
C662 C 0.95566 0.60017 0.82621 0.0
C663 C 0.93844 0.56972 0.81557 0.0
C664 C 0.91013 0.55653 0.76981 0.0
C665 C 0.89974 0.57381 0.73367 0.0
C666 C 0.98582 0.61506 0.87541 0.0
C667 C 0.89118 0.52416 0.75653 0.0
C668 C 0.98028 0.52918 0.82067 0.0
C669 C 0.97634 0.51948 0.9079 0.0
C670 C 0.96762 0.54509 0.78941 0.0
C671 C 0.95083 0.55173 0.84719 0.0
C672 C 0.94637 0.54159 0.93503 0.0
C673 C 0.95909 0.52541 0.96425 0.0
C674 C 0.97263 0.55518 0.69495 0.0
C675 C 0.92881 0.54844 0.99877 0.0
H676 H 0.9582 0.64022 0.7953 0.0
H677 H 0.87823 0.56369 0.69755 0.0
H678 H 0.98463 0.60673 0.94318 0.0
H679 H 1.00087 0.61038 0.8378 0.0
H680 H 0.99549 0.63879 0.8834 0.0
H681 H 0.8691 0.51728 0.7236 0.0
H682 H 0.90223 0.51554 0.71412 0.0
H683 H 0.8883 0.51433 0.82232 0.0
H684 H 0.99361 0.52459 0.77692 0.0
H685 H 0.95618 0.51806 0.03195 0.0
H686 H 0.98485 0.57906 0.69766 0.0
H687 H 0.95121 0.54765 0.6566 0.0
H688 H 0.98531 0.54726 0.65747 0.0
H689 H 0.93958 0.5721 0.01272 0.0
H690 H 0.92668 0.53828 0.06383 0.0
H691 H 0.90644 0.54097 0.96735 0.0
C692 C 0.55318 0.36685 1.00682 0.0
C693 C 0.56069 0.38841 0.94615 0.0
C694 C 0.53621 0.33757 0.97725 0.0
C695 C 0.52665 0.32978 0.88477 0.0
C696 C 0.53503 0.35157 0.82295 0.0
C697 C 0.55179 0.38061 0.85452 0.0
C698 C 0.52746 0.31528 0.04616 0.0
C699 C 0.52589 0.34422 0.72353 0.0
C700 C 0.50281 0.25484 0.78325 0.0
C701 C 0.47218 0.24265 0.7711 0.0
C702 C 0.52075 0.2829 0.82251 0.0
C703 C 0.5077 0.29899 0.85176 0.0
C704 C 0.47665 0.28625 0.84362 0.0
C705 C 0.45927 0.25837 0.80206 0.0
C706 C 0.55373 0.29562 0.83066 0.0
C707 C 0.46184 0.30231 0.8772 0.0
H708 H 0.55977 0.37286 0.07794 0.0
H709 H 0.55761 0.39728 0.80746 0.0
H710 H 0.50538 0.30972 0.06745 0.0
H711 H 0.52618 0.29523 0.01837 0.0
H712 H 0.54306 0.32363 0.10707 0.0
H713 H 0.53527 0.36364 0.68391 0.0
H714 H 0.53311 0.32941 0.69663 0.0
H715 H 0.50152 0.33288 0.71312 0.0
H716 H 0.51291 0.24271 0.75992 0.0
H717 H 0.43567 0.24914 0.79241 0.0
H718 H 0.56228 0.303 0.90185 0.0
H719 H 0.56435 0.31475 0.7901 0.0
H720 H 0.56039 0.27998 0.80734 0.0
H721 H 0.469 0.30979 0.94915 0.0
H722 H 0.43744 0.2888 0.87059 0.0
H723 H 0.46853 0.32169 0.83868 0.0
C724 C 0.82995 0.14092 0.91689 0.0
C725 C 0.83385 0.15046 0.82952 0.0
C726 C 0.8031 0.13193 0.95658 0.0
C727 C 0.77998 0.1332 0.90825 0.0
C728 C 0.7845 0.14421 0.8217 0.0
C729 C 0.81122 0.15236 0.78305 0.0
C730 C 0.79904 0.11996 0.04845 0.0
C731 C 0.76065 0.14625 0.76815 0.0
C732 C 0.70022 0.07936 0.94434 0.0
C733 C 0.6919 0.09577 0.99762 0.0
C734 C 0.72902 0.09109 0.91744 0.0
C735 C 0.75004 0.12021 0.94306 0.0
C736 C 0.74183 0.13694 0.99724 0.0
C737 C 0.71284 0.12442 0.02459 0.0
C738 C 0.73686 0.07231 0.86086 0.0
C739 C 0.7635 0.16815 0.02477 0.0
H740 H 0.84732 0.13913 0.95222 0.0
H741 H 0.81432 0.15999 0.71567 0.0
H742 H 0.77955 0.09792 0.04526 0.0
H743 H 0.81857 0.11904 0.07514 0.0
H744 H 0.79488 0.13352 0.0967 0.0
H745 H 0.76871 0.15809 0.70639 0.0
H746 H 0.74213 0.12429 0.74775 0.0
H747 H 0.75178 0.15725 0.8101 0.0
H748 H 0.6842 0.05709 0.92404 0.0
H749 H 0.70647 0.13712 0.06605 0.0
H750 H 0.75635 0.07244 0.89306 0.0
H751 H 0.7428 0.08097 0.79358 0.0
H752 H 0.71846 0.04966 0.85119 0.0
H753 H 0.78332 0.17015 0.06131 0.0
H754 H 0.75391 0.17805 0.06856 0.0
H755 H 0.77089 0.18055 0.96383 0.0
C756 C 0.63829 0.98047 0.14251 0.0
C757 C 0.60769 0.96885 0.13184 0.0
C758 C 0.65036 0.96378 0.17126 0.0
C759 C 0.6314 0.93464 0.18887 0.0
C760 C 0.60053 0.92244 0.17491 0.0
C761 C 0.58903 0.93972 0.14695 0.0
C762 C 0.68341 0.97764 0.18568 0.0
C763 C 0.57964 0.89133 0.19177 0.0
C764 C 0.6669 0.88824 0.20115 0.0
C765 C 0.67237 0.88876 0.29442 0.0
C766 C 0.65265 0.90227 0.16578 0.0
C767 C 0.64399 0.91739 0.22523 0.0
C768 C 0.64882 0.91733 0.31966 0.0
C769 C 0.66286 0.90287 0.35317 0.0
C770 C 0.64764 0.90159 0.06481 0.0
C771 C 0.64011 0.9334 0.3852 0.0
H772 H 0.65294 0.00294 0.13115 0.0
H773 H 0.56536 0.93049 0.1385 0.0
H774 H 0.6896 0.9775 0.25782 0.0
H775 H 0.6912 0.96517 0.14616 0.0
H776 H 0.69513 1.00025 0.16588 0.0
H777 H 0.55637 0.88459 0.17197 0.0
H778 H 0.58563 0.87709 0.15374 0.0
H779 H 0.58143 0.88799 0.26439 0.0
H780 H 0.67423 0.87728 0.1556 0.0
H781 H 0.66718 0.90334 0.4253 0.0
H782 H 0.66077 0.92364 0.04167 0.0
H783 H 0.62413 0.89408 0.04616 0.0
H784 H 0.6539 0.88729 0.02819 0.0
H785 H 0.65273 0.95679 0.3749 0.0
H786 H 0.64424 0.9302 0.45654 0.0
H787 H 0.61641 0.92625 0.37283 0.0
C788 C 0.18359 0.69551 0.28557 0.0
C789 C 0.19034 0.71685 0.22456 0.0
C790 C 0.1707 0.66642 0.25513 0.0
C791 C 0.16492 0.65864 0.16137 0.0
C792 C 0.17331 0.68037 0.09936 0.0
C793 C 0.18567 0.70924 0.13179 0.0
C794 C 0.16166 0.64391 0.32352 0.0
C795 C 0.16799 0.673 0.9989 0.0
C796 C 0.14238 0.58142 0.08511 0.0
C797 C 0.11165 0.56862 0.07436 0.0
C798 C 0.16022 0.61095 0.11128 0.0
C799 C 0.1469 0.62774 0.12901 0.0
C800 C 0.11591 0.61486 0.11804 0.0
C801 C 0.09875 0.58561 0.09006 0.0
C802 C 0.19324 0.62413 0.1205 0.0
C803 C 0.10074 0.63182 0.13781 0.0
H804 H 0.18723 0.7014 0.35739 0.0
H805 H 0.19112 0.72579 0.08451 0.0
H806 H 0.13726 0.63086 0.32125 0.0
H807 H 0.16986 0.62899 0.30728 0.0
H808 H 0.17002 0.65361 0.39328 0.0
H809 H 0.17922 0.69247 0.95988 0.0
H810 H 0.17577 0.65798 0.97922 0.0
H811 H 0.14401 0.66197 0.97974 0.0
H812 H 0.15247 0.56842 0.07281 0.0
H813 H 0.07501 0.57589 0.0829 0.0
H814 H 0.20153 0.63209 0.19151 0.0
H815 H 0.20381 0.64297 0.07873 0.0
H816 H 0.20024 0.60854 0.09975 0.0
H817 H 0.10622 0.64074 0.20895 0.0
H818 H 0.0764 0.6185 0.12638 0.0
H819 H 0.10865 0.6503 0.09452 0.0
C820 C 0.49046 0.43847 0.08113 0.0
C821 C 0.50849 0.46855 0.08947 0.0
C822 C 0.46106 0.4251 0.10336 0.0
C823 C 0.4492 0.44222 0.13322 0.0
C824 C 0.46696 0.47263 0.13887 0.0
C825 C 0.49651 0.48545 0.11766 0.0
C826 C 0.44296 0.39259 0.09759 0.0
C827 C 0.4549 0.49157 0.16898 0.0
C828 C 0.36568 0.40391 0.12464 0.0
C829 C 0.36035 0.39658 0.21406 0.0
C830 C 0.39457 0.41977 0.09792 0.0
C831 C 0.41858 0.42809 0.16204 0.0
C832 C 0.41325 0.42131 0.25296 0.0
C833 C 0.38415 0.40576 0.27799 0.0
C834 C 0.39939 0.42694 1.00067 0.0
C835 C 0.43825 0.42951 0.32311 0.0
H836 H 0.49957 0.42522 0.05992 0.0
H837 H 0.51028 0.50871 0.12383 0.0
H838 H 0.4361 0.38494 0.16548 0.0
H839 H 0.42262 0.38506 0.0533 0.0
H840 H 0.45527 0.38242 0.0711 0.0
H841 H 0.47093 0.51481 0.16382 0.0
H842 H 0.43442 0.48582 0.12762 0.0
H843 H 0.4491 0.48803 0.24003 0.0
H844 H 0.34725 0.39688 0.0752 0.0
H845 H 0.38003 0.40005 0.34716 0.0
H846 H 0.40954 0.41534 0.96897 0.0
H847 H 0.41487 0.45033 0.99664 0.0
H848 H 0.37852 0.42094 0.96099 0.0
H849 H 0.45046 0.41839 0.30484 0.0
H850 H 0.43042 0.42373 0.39159 0.0
H851 H 0.45406 0.453 0.32526 0.0
C852 C 0.91293 0.76156 0.64986 0.0
C853 C 0.89523 0.73164 0.65318 0.0
C854 C 0.9009 0.77833 0.62114 0.0
C855 C 0.87055 0.76477 0.59364 0.0
C856 C 0.85272 0.73446 0.59495 0.0
C857 C 0.8652 0.71832 0.62596 0.0
C858 C 0.92057 0.8106 0.62182 0.0
C859 C 0.82039 0.71909 0.56438 0.0
C860 C 0.83098 0.80763 0.60196 0.0
C861 C 0.83011 0.81383 0.51162 0.0
C862 C 0.84462 0.7922 0.62991 0.0
C863 C 0.85725 0.78234 0.56559 0.0
C864 C 0.85666 0.78882 0.47436 0.0
C865 C 0.84332 0.80473 0.44859 0.0
C866 C 0.84514 0.78609 0.72803 0.0
C867 C 0.86947 0.77831 0.40365 0.0
H868 H 0.93615 0.77197 0.67115 0.0
H869 H 0.85132 0.69528 0.62989 0.0
H870 H 0.92013 0.81794 0.55336 0.0
H871 H 0.91229 0.82136 0.66734 0.0
H872 H 0.94375 0.81779 0.6445 0.0
H873 H 0.80996 0.69531 0.56526 0.0
H874 H 0.80862 0.72635 0.6088 0.0
H875 H 0.81744 0.72453 0.49491 0.0
H876 H 0.82076 0.81465 0.65079 0.0
H877 H 0.8425 0.80934 0.37854 0.0
H878 H 0.86811 0.79398 0.75475 0.0
H879 H 0.83254 0.76251 0.73499 0.0
H880 H 0.83555 0.79637 0.77016 0.0
H881 H 0.89344 0.78772 0.41981 0.0
H882 H 0.86602 0.78397 0.33489 0.0
H883 H 0.85925 0.75458 0.40364 0.0
C884 C 0.3543 0.07839 0.5725 0.0
C885 C 0.34083 0.09279 0.60993 0.0
C886 C 0.33737 0.04994 0.53504 0.0
C887 C 0.30626 0.03552 0.53569 0.0
C888 C 0.29255 0.05031 0.57103 0.0
C889 C 0.31001 0.07883 0.60733 0.0
C890 C 0.35281 0.03503 0.49711 0.0
C891 C 0.2595 0.03568 0.57337 0.0
C892 C 0.26096 0.96675 0.38452 0.0
C893 C 0.25619 0.9456 0.44461 0.0
C894 C 0.27699 0.99617 0.41326 0.0
C895 C 0.28821 0.00448 0.50436 0.0
C896 C 0.28267 0.98307 0.56573 0.0
C897 C 0.26685 0.9539 0.53497 0.0
C898 C 0.28261 0.01835 0.34574 0.0
C899 C 0.29395 0.99098 0.6636 0.0
H900 H 0.37812 0.08922 0.57384 0.0
H901 H 0.29951 0.08994 0.63589 0.0
H902 H 0.34902 0.01686 0.53841 0.0
H903 H 0.34364 0.02586 0.42747 0.0
H904 H 0.37694 0.04983 0.49595 0.0
H905 H 0.25219 0.05064 0.59846 0.0
H906 H 0.24875 0.02655 0.50505 0.0
H907 H 0.25167 0.0175 0.6179 0.0
H908 H 0.25288 0.96036 0.31445 0.0
H909 H 0.26319 0.93756 0.58158 0.0
H910 H 0.30663 0.03183 0.3388 0.0
H911 H 0.27477 0.03295 0.36976 0.0
H912 H 0.27154 0.00837 0.27821 0.0
H913 H 0.31837 0.00359 0.6687 0.0
H914 H 0.28672 0.97173 0.70331 0.0
H915 H 0.28612 0.00479 0.69452 0.0
C916 C 0.0167 0.21939 0.5891 0.0
C917 C 0.98958 0.19743 0.54983 0.0
C918 C 0.04289 0.22763 0.54692 0.0
C919 C 0.04201 0.21302 0.46461 0.0
C920 C 0.01463 0.19074 0.42473 0.0
C921 C 0.98867 0.18338 0.46751 0.0
C922 C 0.07149 0.25207 0.59037 0.0
C923 C 0.01288 0.17427 0.3381 0.0
C924 C 0.1072 0.25192 0.32147 0.0
C925 C 0.12544 0.24135 0.35092 0.0
C926 C 0.07972 0.24248 0.35659 0.0
C927 C 0.06985 0.22129 0.42066 0.0
C928 C 0.0876 0.20948 0.44715 0.0
C929 C 0.11546 0.22003 0.41305 0.0
C930 C 0.0619 0.25619 0.3283 0.0
C931 C 0.07752 0.18633 0.51351 0.0
H932 H 0.01741 0.23037 0.65257 0.0
H933 H 0.96773 0.16605 0.43794 0.0
H934 H 0.08676 0.24415 0.60826 0.0
H935 H 0.08236 0.269 0.54211 0.0
H936 H 0.06822 0.26198 0.65238 0.0
H937 H 0.98985 0.15815 0.31456 0.0
H938 H 0.023 0.18926 0.28419 0.0
H939 H 0.02547 0.16298 0.34817 0.0
H940 H 0.11503 0.26865 0.27407 0.0
H941 H 0.12958 0.21187 0.4358 0.0
H942 H 0.05884 0.26716 0.38801 0.0
H943 H 0.0397 0.23945 0.3 0.0
H944 H 0.07258 0.27221 0.27718 0.0
H945 H 0.07677 0.19534 0.58095 0.0
H946 H 0.09239 0.17729 0.51974 0.0
H947 H 0.05492 0.16856 0.4926 0.0
C948 C 0.34752 0.18755 0.44026 0.0
C949 C 0.36216 0.201 0.52396 0.0
C950 C 0.3309 0.19726 0.39184 0.0
C951 C 0.32921 0.22115 0.42794 0.0
C952 C 0.34447 0.23502 0.51187 0.0
C953 C 0.36059 0.22471 0.55883 0.0
C954 C 0.31527 0.18185 0.30243 0.0
C955 C 0.34333 0.26052 0.55311 0.0
C956 C 0.30847 0.26766 0.2926 0.0
C957 C 0.2799 0.25863 0.31862 0.0
C958 C 0.32409 0.25427 0.32251 0.0
C959 C 0.31101 0.23152 0.38064 0.0
C960 C 0.28148 0.221 0.40195 0.0
C961 C 0.26625 0.23462 0.37055 0.0
C962 C 0.35517 0.26543 0.29578 0.0
C963 C 0.2665 0.19631 0.46194 0.0
H964 H 0.34813 0.1688 0.41437 0.0
H965 H 0.37193 0.23519 0.6236 0.0
H966 H 0.29447 0.18205 0.28915 0.0
H967 H 0.32986 0.19283 0.2478 0.0
H968 H 0.31012 0.15911 0.29921 0.0
H969 H 0.35689 0.26922 0.61803 0.0
H970 H 0.3513 0.278 0.50585 0.0
H971 H 0.32024 0.25414 0.56527 0.0
H972 H 0.31912 0.28591 0.25137 0.0
H973 H 0.24415 0.22731 0.39062 0.0
H974 H 0.35779 0.24732 0.26947 0.0
H975 H 0.37084 0.27581 0.35593 0.0
H976 H 0.36123 0.2814 0.24369 0.0
H977 H 0.2688 0.17787 0.43705 0.0
H978 H 0.24272 0.18891 0.46539 0.0
H979 H 0.27728 0.2031 0.53119 0.0
C980 C 0.83439 0.95399 0.53182 0.0
C981 C 0.81025 0.94389 0.46832 0.0
C982 C 0.84891 0.98257 0.56888 0.0
C983 C 0.83909 1.0015 0.54177 0.0
C984 C 0.81551 0.99177 0.47514 0.0
C985 C 0.80138 0.96311 0.4393 0.0
C986 C 0.87446 0.99241 0.63818 0.0
C987 C 0.80475 0.01146 0.44333 0.0
C988 C 0.85522 0.06556 0.7006 0.0
C989 C 0.87834 0.0883 0.66027 0.0
C990 C 0.84223 0.03717 0.66271 0.0
C991 C 0.85314 0.0314 0.58391 0.0
C992 C 0.87706 0.05428 0.54448 0.0
C993 C 0.88908 0.08254 0.58238 0.0
C994 C 0.81668 0.01337 0.70654 0.0
C995 C 0.88981 0.04913 0.46165 0.0
H996 H 0.84143 0.93935 0.55483 0.0
H997 H 0.78286 0.9556 0.38993 0.0
H998 H 0.89418 0.01165 0.61607 0.0
H999 H 0.86908 0.99883 0.70319 0.0
H1000 H 0.88007 0.97538 0.64977 0.0
H1001 H 0.78634 1.00067 0.39036 0.0
H1002 H 0.79718 0.01909 0.50106 0.0
H1003 H 0.82307 0.03074 0.41598 0.0
H1004 H 0.84702 0.07006 0.7611 0.0
H1005 H 0.90734 0.10009 0.55204 0.0
H1006 H 0.82204 0.99667 0.72549 0.0
H1007 H 0.79703 0.00278 0.65796 0.0
H1008 H 0.81095 0.0214 0.76784 0.0
H1009 H 0.9128 0.06671 0.45599 0.0
H1010 H 0.87625 0.04816 0.40097 0.0
H1011 H 0.88972 0.02847 0.46196 0.0
C1012 C 0.98716 0.72448 0.47045 0.0
C1013 C 0.98696 0.71055 0.5485 0.0
C1014 C 0.01342 0.74097 0.42774 0.0
C1015 C 0.03995 0.74323 0.46355 0.0
C1016 C 0.03969 0.72882 0.54162 0.0
C1017 C 0.01328 0.71277 0.58311 0.0
C1018 C 0.01274 0.75601 0.34473 0.0
C1019 C 0.06747 0.73074 0.58243 0.0
C1020 C 0.10707 0.76376 0.33089 0.0
C1021 C 0.12638 0.79214 0.36571 0.0
C1022 C 0.07815 0.74813 0.35776 0.0
C1023 C 0.06834 0.76105 0.4216 0.0
C1024 C 0.08713 0.79022 0.45287 0.0
C1025 C 0.11586 0.80544 0.42431 0.0
C1026 C 0.05862 0.71726 0.32156 0.0
C1027 C 0.07745 0.80487 0.52052 0.0
H1028 H 0.96698 0.72323 0.44439 0.0
H1029 H 0.01331 0.70202 0.64334 0.0
H1030 H 0.03157 0.77843 0.34822 0.0
H1031 H 0.01468 0.74446 0.28445 0.0
H1032 H 0.99198 0.75658 0.33531 0.0
H1033 H 0.06345 0.71796 0.64262 0.0
H1034 H 0.07718 0.7229 0.53183 0.0
H1035 H 0.08403 0.75354 0.60255 0.0
H1036 H 0.11483 0.75335 0.28481 0.0
H1037 H 0.13052 0.82737 0.45146 0.0
H1038 H 0.03671 0.71356 0.297 0.0
H1039 H 0.05509 0.70266 0.37648 0.0
H1040 H 0.06832 0.71132 0.26563 0.0
H1041 H 0.05563 0.80178 0.49792 0.0
H1042 H 0.09343 0.82833 0.53129 0.0
H1043 H 0.07509 0.79501 0.58614 0.0
loop_
_geom_bond_atom_site_label_1
_geom_bond_atom_site_label_2
_geom_bond_distance
_geom_bond_site_symmetry_2
_ccdc_geom_bond_type
Dy0 O4 2.398 1_554 S
Dy0 O5 2.491 . S
Dy0 O6 2.403 1_554 S
Dy0 O7 2.664 1_554 S
Dy0 O11 2.326 1_554 S
Dy0 O15 2.310 . S
Dy0 O16 2.351 . S
C1 O12 1.185 1_556 S
C1 O13 1.355 . S
C2 O4 1.185 1_554 S
C2 O5 1.355 . S
Dy3 O7 2.310 1_654 S
Dy3 O10 2.351 1_554 S
Dy3 O12 2.398 . S
Dy3 O13 2.491 1_554 S
Dy3 O14 2.403 . S
Dy3 O15 2.664 1_655 S
Dy3 O17 2.326 1_655 S
O4 Dy0 2.398 1_556 S
O4 C2 1.185 1_556 S
O5 Dy0 2.491 . S
O5 C2 1.355 . S
O6 Dy0 2.403 1_556 S
O6 C8 1.254 . S
O7 Dy0 2.664 1_556 S
O7 Dy3 2.310 1_456 S
O7 C8 1.268 . S
C8 O6 1.254 . S
C8 O7 1.268 . S
C9 O14 1.254 1_455 S
C9 O15 1.268 . S
O10 Dy3 2.351 1_556 S
O10 C18 1.249 . S
O11 Dy0 2.326 1_556 S
O11 C18 1.267 1_455 S
O12 C1 1.185 1_554 S
O12 Dy3 2.398 . S
O13 C1 1.355 . S
O13 Dy3 2.491 1_556 S
O14 Dy3 2.403 . S
O14 C9 1.254 1_655 S
O15 Dy0 2.310 . S
O15 Dy3 2.664 1_455 S
O15 C9 1.268 . S
O16 Dy0 2.351 . S
O16 C19 1.249 . S
O17 Dy3 2.326 1_455 S
O17 C19 1.267 . S
C18 O10 1.249 . S
C18 O11 1.267 1_655 S
C19 O16 1.249 . S
C19 O17 1.267 . S
Dy20 O24 2.398 . S
Dy20 O25 2.491 . S
Dy20 O26 2.403 1_554 S
Dy20 O27 2.664 . S
Dy20 O31 2.326 . S
Dy20 O35 2.310 . S
Dy20 O36 2.351 . S
C21 O32 1.185 . S
C21 O33 1.355 1_554 S
C22 O24 1.185 . S
C22 O25 1.355 . S
Dy23 O27 2.310 . S
Dy23 O30 2.351 . S
Dy23 O32 2.398 . S
Dy23 O33 2.491 1_554 S
Dy23 O34 2.403 . S
Dy23 O35 2.664 . S
Dy23 O37 2.326 . S
O24 Dy20 2.398 . S
O24 C22 1.185 . S
O25 Dy20 2.491 . S
O25 C22 1.355 . S
O26 Dy20 2.403 1_556 S
O26 C28 1.254 . S
O27 Dy20 2.664 . S
O27 Dy23 2.310 . S
O27 C28 1.268 1_554 S
C28 O26 1.254 . S
C28 O27 1.268 1_556 S
C29 O34 1.254 . S
C29 O35 1.268 . S
O30 Dy23 2.351 . S
O30 C38 1.249 . S
O31 Dy20 2.326 . S
O31 C38 1.267 . S
O32 C21 1.185 . S
O32 Dy23 2.398 . S
O33 C21 1.355 1_556 S
O33 Dy23 2.491 1_556 S
O34 Dy23 2.403 . S
O34 C29 1.254 . S
O35 Dy20 2.310 . S
O35 Dy23 2.664 . S
O35 C29 1.268 . S
O36 Dy20 2.351 . S
O36 C39 1.249 . S
O37 Dy23 2.326 . S
O37 C39 1.267 . S
C38 O30 1.249 . S
C38 O31 1.267 . S
C39 O36 1.249 . S
C39 O37 1.267 . S
Dy40 O44 2.398 1_545 S
Dy40 O45 2.491 . S
Dy40 O46 2.403 . S
Dy40 O47 2.664 . S
Dy40 O51 2.326 . S
Dy40 O55 2.310 . S
Dy40 O56 2.351 . S
C41 O52 1.185 . S
C41 O53 1.355 . S
C42 O44 1.199 . S
C42 O45 1.349 1_565 S
Dy43 O47 2.310 . S
Dy43 O50 2.351 . S
Dy43 O52 2.398 . S
Dy43 O53 2.491 . S
Dy43 O54 2.403 . S
Dy43 O55 2.664 . S
Dy43 O57 2.326 . S
O44 Dy40 2.398 1_565 S
O44 C42 1.199 . S
O45 Dy40 2.491 . S
O45 C42 1.349 1_545 S
O46 Dy40 2.403 . S
O46 C48 1.254 . S
O47 Dy40 2.664 . S
O47 Dy43 2.310 . S
O47 C48 1.268 . S
C48 O46 1.254 . S
C48 O47 1.268 . S
C49 O54 1.254 . S
C49 O55 1.268 . S
O50 Dy43 2.351 . S
O50 C58 1.249 . S
O51 Dy40 2.326 . S
O51 C58 1.267 . S
O52 C41 1.185 . S
O52 Dy43 2.398 . S
O53 C41 1.355 . S
O53 Dy43 2.491 . S
O54 Dy43 2.403 . S
O54 C49 1.254 . S
O55 Dy40 2.310 . S
O55 Dy43 2.664 . S
O55 C49 1.268 . S
O56 Dy40 2.351 . S
O56 C59 1.249 . S
O57 Dy43 2.326 . S
O57 C59 1.267 . S
C58 O50 1.249 . S
C58 O51 1.267 . S
C59 O56 1.249 . S
C59 O57 1.267 . S
Dy60 O64 2.398 . S
Dy60 O65 2.491 . S
Dy60 O66 2.403 . S
Dy60 O67 2.664 . S
Dy60 O71 2.326 . S
Dy60 O75 2.310 . S
Dy60 O76 2.351 . S
C61 O72 1.185 . S
C61 O73 1.355 . S
C62 O64 1.185 . S
C62 O65 1.355 . S
Dy63 O67 2.310 . S
Dy63 O70 2.351 . S
Dy63 O72 2.398 . S
Dy63 O73 2.491 . S
Dy63 O74 2.403 . S
Dy63 O75 2.664 . S
Dy63 O77 2.326 . S
O64 Dy60 2.398 . S
O64 C62 1.185 . S
O65 Dy60 2.491 . S
O65 C62 1.355 . S
O66 Dy60 2.403 . S
O66 C68 1.254 . S
O67 Dy60 2.664 . S
O67 Dy63 2.310 . S
O67 C68 1.268 . S
C68 O66 1.254 . S
C68 O67 1.268 . S
C69 O74 1.254 . S
C69 O75 1.268 . S
O70 Dy63 2.351 . S
O70 C78 1.249 . S
O71 Dy60 2.326 . S
O71 C78 1.267 . S
O72 C61 1.185 . S
O72 Dy63 2.398 . S
O73 C61 1.355 . S
O73 Dy63 2.491 . S
O74 Dy63 2.403 . S
O74 C69 1.254 . S
O75 Dy60 2.310 . S
O75 Dy63 2.664 . S
O75 C69 1.268 . S
O76 Dy60 2.351 . S
O76 C79 1.249 . S
O77 Dy63 2.326 . S
O77 C79 1.267 . S
C78 O70 1.249 . S
C78 O71 1.267 . S
C79 O76 1.249 . S
C79 O77 1.267 . S
Dy80 O84 2.398 . S
Dy80 O85 2.491 . S
Dy80 O86 2.403 . S
Dy80 O87 2.664 . S
Dy80 O91 2.326 . S
Dy80 O95 2.310 . S
Dy80 O96 2.351 . S
C81 O92 1.185 . S
C81 O93 1.355 . S
C82 O84 1.185 . S
C82 O85 1.355 . S
Dy83 O87 2.310 . S
Dy83 O90 2.351 . S
Dy83 O92 2.398 . S
Dy83 O93 2.491 . S
Dy83 O94 2.403 . S
Dy83 O95 2.664 . S
Dy83 O97 2.326 . S
O84 Dy80 2.398 . S
O84 C82 1.185 . S
O85 Dy80 2.491 . S
O85 C82 1.355 . S
O86 Dy80 2.403 . S
O86 C88 1.254 . S
O87 Dy80 2.664 . S
O87 Dy83 2.310 . S
O87 C88 1.268 . S
C88 O86 1.254 . S
C88 O87 1.268 . S
C89 O94 1.254 . S
C89 O95 1.268 . S
O90 Dy83 2.351 . S
O90 C98 1.249 . S
O91 Dy80 2.326 . S
O91 C98 1.267 . S
O92 C81 1.185 . S
O92 Dy83 2.398 . S
O93 C81 1.355 . S
O93 Dy83 2.491 . S
O94 Dy83 2.403 . S
O94 C89 1.254 . S
O95 Dy80 2.310 . S
O95 Dy83 2.664 . S
O95 C89 1.268 . S
O96 Dy80 2.351 . S
O96 C99 1.249 . S
O97 Dy83 2.326 . S
O97 C99 1.267 . S
C98 O90 1.249 . S
C98 O91 1.267 . S
C99 O96 1.249 . S
C99 O97 1.267 . S
Dy100 O104 2.398 . S
Dy100 O105 2.491 . S
Dy100 O106 2.403 . S
Dy100 O107 2.664 . S
Dy100 O111 2.326 . S
Dy100 O115 2.310 . S
Dy100 O116 2.351 . S
C101 O112 1.185 . S
C101 O113 1.355 . S
C102 O104 1.185 . S
C102 O105 1.355 . S
Dy103 O107 2.310 . S
Dy103 O110 2.351 . S
Dy103 O112 2.398 . S
Dy103 O113 2.491 . S
Dy103 O114 2.403 . S
Dy103 O115 2.664 . S
Dy103 O117 2.326 . S
O104 Dy100 2.398 . S
O104 C102 1.185 . S
O105 Dy100 2.491 . S
O105 C102 1.355 . S
O106 Dy100 2.403 . S
O106 C108 1.254 . S
O107 Dy100 2.664 . S
O107 Dy103 2.310 . S
O107 C108 1.268 . S
C108 O106 1.254 . S
C108 O107 1.268 . S
C109 O114 1.254 . S
C109 O115 1.268 . S
O110 Dy103 2.351 . S
O110 C118 1.249 . S
O111 Dy100 2.326 . S
O111 C118 1.267 . S
O112 C101 1.185 . S
O112 Dy103 2.398 . S
O113 C101 1.355 . S
O113 Dy103 2.491 . S
O114 Dy103 2.403 . S
O114 C109 1.254 . S
O115 Dy100 2.310 . S
O115 Dy103 2.664 . S
O115 C109 1.268 . S
O116 Dy100 2.351 . S
O116 C119 1.249 . S
O117 Dy103 2.326 . S
O117 C119 1.267 . S
C118 O110 1.249 . S
C118 O111 1.267 . S
C119 O116 1.249 . S
C119 O117 1.267 . S
Dy120 O124 2.398 . S
Dy120 O125 2.491 . S
Dy120 O126 2.403 . S
Dy120 O127 2.664 . S
Dy120 O131 2.326 . S
Dy120 O135 2.310 . S
Dy120 O136 2.351 . S
C121 O132 1.185 . S
C121 O133 1.355 . S
C122 O124 1.185 . S
C122 O125 1.355 . S
Dy123 O127 2.310 . S
Dy123 O130 2.351 . S
Dy123 O132 2.398 . S
Dy123 O133 2.491 . S
Dy123 O134 2.403 . S
Dy123 O135 2.664 . S
Dy123 O137 2.326 . S
O124 Dy120 2.398 . S
O124 C122 1.185 . S
O125 Dy120 2.491 . S
O125 C122 1.355 . S
O126 Dy120 2.403 . S
O126 C128 1.254 . S
O127 Dy120 2.664 . S
O127 Dy123 2.310 . S
O127 C128 1.268 . S
C128 O126 1.254 . S
C128 O127 1.268 . S
C129 O134 1.254 . S
C129 O135 1.268 . S
O130 Dy123 2.351 . S
O130 C138 1.249 . S
O131 Dy120 2.326 . S
O131 C138 1.267 . S
O132 C121 1.185 . S
O132 Dy123 2.398 . S
O133 C121 1.355 . S
O133 Dy123 2.491 . S
O134 Dy123 2.403 . S
O134 C129 1.254 . S
O135 Dy120 2.310 . S
O135 Dy123 2.664 . S
O135 C129 1.268 . S
O136 Dy120 2.351 . S
O136 C139 1.249 . S
O137 Dy123 2.326 . S
O137 C139 1.267 . S
C138 O130 1.249 . S
C138 O131 1.267 . S
C139 O136 1.249 . S
C139 O137 1.267 . S
Dy140 O144 2.398 . S
Dy140 O145 2.491 . S
Dy140 O146 2.403 . S
Dy140 O147 2.664 . S
Dy140 O151 2.326 . S
Dy140 O155 2.310 . S
Dy140 O156 2.351 . S
C141 O152 1.185 . S
C141 O153 1.355 . S
C142 O144 1.185 . S
C142 O145 1.355 . S
Dy143 O147 2.310 . S
Dy143 O150 2.351 . S
Dy143 O152 2.398 . S
Dy143 O153 2.491 . S
Dy143 O154 2.403 . S
Dy143 O155 2.664 . S
Dy143 O157 2.326 . S
O144 Dy140 2.398 . S
O144 C142 1.185 . S
O145 Dy140 2.491 . S
O145 C142 1.355 . S
O146 Dy140 2.403 . S
O146 C148 1.254 . S
O147 Dy140 2.664 . S
O147 Dy143 2.310 . S
O147 C148 1.268 . S
C148 O146 1.254 . S
C148 O147 1.268 . S
C149 O154 1.254 . S
C149 O155 1.268 . S
O150 Dy143 2.351 . S
O150 C158 1.249 . S
O151 Dy140 2.326 . S
O151 C158 1.267 . S
O152 C141 1.185 . S
O152 Dy143 2.398 . S
O153 C141 1.355 . S
O153 Dy143 2.491 . S
O154 Dy143 2.403 . S
O154 C149 1.254 . S
O155 Dy140 2.310 . S
O155 Dy143 2.664 . S
O155 C149 1.268 . S
O156 Dy140 2.351 . S
O156 C159 1.249 . S
O157 Dy143 2.326 . S
O157 C159 1.267 . S
C158 O150 1.249 . S
C158 O151 1.267 . S
C159 O156 1.249 . S
C159 O157 1.267 . S
Dy160 O164 2.398 . S
Dy160 O165 2.491 . S
Dy160 O166 2.403 . S
Dy160 O167 2.664 . S
Dy160 O171 2.326 . S
Dy160 O175 2.310 . S
Dy160 O176 2.351 . S
C161 O172 1.185 . S
C161 O173 1.355 . S
C162 O164 1.185 . S
C162 O165 1.355 . S
Dy163 O167 2.310 . S
Dy163 O170 2.351 . S
Dy163 O172 2.398 . S
Dy163 O173 2.491 . S
Dy163 O174 2.403 . S
Dy163 O175 2.664 . S
Dy163 O177 2.326 . S
O164 Dy160 2.398 . S
O164 C162 1.185 . S
O165 Dy160 2.491 . S
O165 C162 1.355 . S
O166 Dy160 2.403 . S
O166 C168 1.254 . S
O167 Dy160 2.664 . S
O167 Dy163 2.310 . S
O167 C168 1.268 . S
C168 O166 1.254 . S
C168 O167 1.268 . S
C169 O174 1.254 . S
C169 O175 1.268 . S
O170 Dy163 2.351 . S
O170 C178 1.249 . S
O171 Dy160 2.326 . S
O171 C178 1.267 . S
O172 C161 1.185 . S
O172 Dy163 2.398 . S
O173 C161 1.355 . S
O173 Dy163 2.491 . S
O174 Dy163 2.403 . S
O174 C169 1.254 . S
O175 Dy160 2.310 . S
O175 Dy163 2.664 . S
O175 C169 1.268 . S
O176 Dy160 2.351 . S
O176 C179 1.249 . S
O177 Dy163 2.326 . S
O177 C179 1.267 . S
C178 O170 1.249 . S
C178 O171 1.267 . S
C179 O176 1.249 . S
C179 O177 1.267 . S
C180 C181 1.391 . S
C180 C182 1.394 . S
C180 H196 0.931 . S
C181 C180 1.391 . S
C181 C185 1.376 . S
C182 C180 1.394 . S
C182 C183 1.369 . S
C182 C186 1.531 . S
C183 C182 1.369 . S
C183 C184 1.410 . S
C183 C191 1.503 . S
C184 C183 1.410 . S
C184 C185 1.392 . S
C184 C187 1.511 . S
C185 C181 1.376 . S
C185 C184 1.392 . S
C185 H197 0.929 . S
C186 C182 1.531 . S
C186 H198 0.960 . S
C186 H199 0.962 . S
C186 H200 0.960 . S
C187 C184 1.511 . S
C187 H201 0.961 . S
C187 H202 0.961 . S
C187 H203 0.961 . S
C188 C189 1.370 1_655 S
C188 C190 1.363 1_655 S
C188 H204 0.931 . S
C189 C188 1.370 1_455 S
C189 C193 1.408 . S
C190 C188 1.363 1_455 S
C190 C191 1.370 . S
C190 C194 1.524 1_455 S
C191 C183 1.503 . S
C191 C190 1.370 . S
C191 C192 1.403 . S
C192 C191 1.403 . S
C192 C193 1.404 . S
C192 C195 1.539 . S
C193 C189 1.408 . S
C193 C192 1.404 . S
C193 H205 0.930 . S
C194 C190 1.524 1_655 S
C194 H206 0.956 . S
C194 H207 0.961 . S
C194 H208 0.961 . S
C195 C192 1.539 . S
C195 H209 0.958 . S
C195 H210 0.961 . S
C195 H211 0.960 . S
H196 C180 0.931 . S
H197 C185 0.929 . S
H198 C186 0.960 . S
H199 C186 0.962 . S
H200 C186 0.960 . S
H201 C187 0.961 . S
H202 C187 0.961 . S
H203 C187 0.961 . S
H204 C188 0.931 . S
H205 C193 0.930 . S
H206 C194 0.956 . S
H207 C194 0.961 . S
H208 C194 0.961 . S
H209 C195 0.958 . S
H210 C195 0.961 . S
H211 C195 0.960 . S
C212 C213 1.391 . S
C212 C214 1.394 . S
C212 H228 0.931 . S
C213 C212 1.391 . S
C213 C217 1.376 . S
C214 C212 1.394 . S
C214 C215 1.369 . S
C214 C218 1.531 . S
C215 C214 1.369 . S
C215 C216 1.410 . S
C215 C223 1.503 . S
C216 C215 1.410 . S
C216 C217 1.392 . S
C216 C219 1.511 . S
C217 C213 1.376 . S
C217 C216 1.392 . S
C217 H229 0.929 . S
C218 C214 1.531 . S
C218 H230 0.960 . S
C218 H231 0.962 . S
C218 H232 0.960 . S
C219 C216 1.511 . S
C219 H233 0.961 . S
C219 H234 0.961 . S
C219 H235 0.961 . S
C220 C221 1.370 . S
C220 C222 1.363 . S
C220 H236 0.931 . S
C221 C220 1.370 . S
C221 C225 1.408 . S
C222 C220 1.363 . S
C222 C223 1.370 . S
C222 C226 1.524 . S
C223 C215 1.503 . S
C223 C222 1.370 . S
C223 C224 1.403 . S
C224 C223 1.403 . S
C224 C225 1.404 . S
C224 C227 1.539 . S
C225 C221 1.408 . S
C225 C224 1.404 . S
C225 H237 0.930 . S
C226 C222 1.524 . S
C226 H238 0.956 . S
C226 H239 0.961 . S
C226 H240 0.961 . S
C227 C224 1.539 . S
C227 H241 0.958 . S
C227 H242 0.961 . S
C227 H243 0.960 . S
H228 C212 0.931 . S
H229 C217 0.929 . S
H230 C218 0.960 . S
H231 C218 0.962 . S
H232 C218 0.960 . S
H233 C219 0.961 . S
H234 C219 0.961 . S
H235 C219 0.961 . S
H236 C220 0.931 . S
H237 C225 0.930 . S
H238 C226 0.956 . S
H239 C226 0.961 . S
H240 C226 0.961 . S
H241 C227 0.958 . S
H242 C227 0.961 . S
H243 C227 0.960 . S
C244 C245 1.391 . S
C244 C246 1.394 . S
C244 H260 0.931 1_545 S
C245 C244 1.391 . S
C245 C249 1.376 . S
C246 C244 1.394 . S
C246 C247 1.369 . S
C246 C250 1.531 1_545 S
C247 C246 1.369 . S
C247 C248 1.410 . S
C247 C255 1.503 . S
C248 C247 1.410 . S
C248 C249 1.392 . S
C248 C251 1.511 . S
C249 C245 1.376 . S
C249 C248 1.392 . S
C249 H261 0.929 . S
C250 C246 1.531 1_565 S
C250 H262 0.960 . S
C250 H263 0.962 . S
C250 H264 0.960 . S
C251 C248 1.511 . S
C251 H265 0.961 . S
C251 H266 0.961 . S
C251 H267 0.961 . S
C252 C253 1.370 . S
C252 C254 1.363 . S
C252 H268 0.931 . S
C253 C252 1.370 . S
C253 C257 1.408 . S
C254 C252 1.363 . S
C254 C255 1.370 . S
C254 C258 1.524 . S
C255 C247 1.503 . S
C255 C254 1.370 . S
C255 C256 1.403 . S
C256 C255 1.403 . S
C256 C257 1.404 . S
C256 C259 1.539 . S
C257 C253 1.408 . S
C257 C256 1.404 . S
C257 H269 0.930 . S
C258 C254 1.524 . S
C258 H270 0.956 . S
C258 H271 0.961 . S
C258 H272 0.961 . S
C259 C256 1.539 . S
C259 H273 0.958 . S
C259 H274 0.961 . S
C259 H275 0.960 . S
H260 C244 0.931 1_565 S
H261 C249 0.929 . S
H262 C250 0.960 . S
H263 C250 0.962 . S
H264 C250 0.960 . S
H265 C251 0.961 . S
H266 C251 0.961 . S
H267 C251 0.961 . S
H268 C252 0.931 . S
H269 C257 0.930 . S
H270 C258 0.956 . S
H271 C258 0.961 . S
H272 C258 0.961 . S
H273 C259 0.958 . S
H274 C259 0.961 . S
H275 C259 0.960 . S
C276 C277 1.391 . S
C276 C278 1.394 . S
C276 H292 0.931 . S
C277 C276 1.391 . S
C277 C281 1.376 . S
C278 C276 1.394 . S
C278 C279 1.369 . S
C278 C282 1.531 . S
C279 C278 1.369 . S
C279 C280 1.410 . S
C279 C287 1.503 . S
C280 C279 1.410 . S
C280 C281 1.392 . S
C280 C283 1.511 . S
C281 C277 1.376 . S
C281 C280 1.392 . S
C281 H293 0.929 . S
C282 C278 1.531 . S
C282 H294 0.960 . S
C282 H295 0.962 . S
C282 H296 0.960 . S
C283 C280 1.511 . S
C283 H297 0.961 . S
C283 H298 0.961 . S
C283 H299 0.961 . S
C284 C285 1.370 . S
C284 C286 1.363 1_554 S
C284 H300 0.931 . S
C285 C284 1.370 . S
C285 C289 1.408 . S
C286 C284 1.363 1_556 S
C286 C287 1.370 . S
C286 C290 1.524 . S
C287 C279 1.503 . S
C287 C286 1.370 . S
C287 C288 1.403 . S
C288 C287 1.403 . S
C288 C289 1.404 1_556 S
C288 C291 1.539 . S
C289 C285 1.408 . S
C289 C288 1.404 1_554 S
C289 H301 0.930 . S
C290 C286 1.524 . S
C290 H302 0.956 . S
C290 H303 0.961 . S
C290 H304 0.961 . S
C291 C288 1.539 . S
C291 H305 0.958 . S
C291 H306 0.961 . S
C291 H307 0.960 . S
H292 C276 0.931 . S
H293 C281 0.929 . S
H294 C282 0.960 . S
H295 C282 0.962 . S
H296 C282 0.960 . S
H297 C283 0.961 . S
H298 C283 0.961 . S
H299 C283 0.961 . S
H300 C284 0.931 . S
H301 C289 0.930 . S
H302 C290 0.956 . S
H303 C290 0.961 . S
H304 C290 0.961 . S
H305 C291 0.958 . S
H306 C291 0.961 . S
H307 C291 0.960 . S
C308 C309 1.391 . S
C308 C310 1.394 . S
C308 H324 0.931 . S
C309 C308 1.391 . S
C309 C313 1.376 . S
C310 C308 1.394 . S
C310 C311 1.369 . S
C310 C314 1.531 . S
C311 C310 1.369 . S
C311 C312 1.410 . S
C311 C319 1.503 . S
C312 C311 1.410 . S
C312 C313 1.392 . S
C312 C315 1.511 . S
C313 C309 1.376 . S
C313 C312 1.392 . S
C313 H325 0.929 . S
C314 C310 1.531 . S
C314 H326 0.960 . S
C314 H327 0.962 . S
C314 H328 0.960 . S
C315 C312 1.511 . S
C315 H329 0.961 . S
C315 H330 0.961 . S
C315 H331 0.961 . S
C316 C317 1.370 . S
C316 C318 1.363 . S
C316 H332 0.931 . S
C317 C316 1.370 . S
C317 C321 1.408 . S
C318 C316 1.363 . S
C318 C319 1.370 . S
C318 C322 1.524 . S
C319 C311 1.503 . S
C319 C318 1.370 . S
C319 C320 1.403 . S
C320 C319 1.403 . S
C320 C321 1.404 . S
C320 C323 1.539 . S
C321 C317 1.408 . S
C321 C320 1.404 . S
C321 H333 0.930 . S
C322 C318 1.524 . S
C322 H334 0.956 . S
C322 H335 0.961 . S
C322 H336 0.961 . S
C323 C320 1.539 . S
C323 H337 0.958 . S
C323 H338 0.961 . S
C323 H339 0.960 . S
H324 C308 0.931 . S
H325 C313 0.929 . S
H326 C314 0.960 . S
H327 C314 0.962 . S
H328 C314 0.960 . S
H329 C315 0.961 . S
H330 C315 0.961 . S
H331 C315 0.961 . S
H332 C316 0.931 . S
H333 C321 0.930 . S
H334 C322 0.956 . S
H335 C322 0.961 . S
H336 C322 0.961 . S
H337 C323 0.958 . S
H338 C323 0.961 . S
H339 C323 0.960 . S
C340 C341 1.391 . S
C340 C342 1.394 . S
C340 H356 0.931 . S
C341 C340 1.391 . S
C341 C345 1.376 . S
C342 C340 1.394 . S
C342 C343 1.369 . S
C342 C346 1.531 . S
C343 C342 1.369 . S
C343 C344 1.410 . S
C343 C351 1.503 . S
C344 C343 1.410 . S
C344 C345 1.392 . S
C344 C347 1.511 . S
C345 C341 1.376 . S
C345 C344 1.392 . S
C345 H357 0.929 . S
C346 C342 1.531 . S
C346 H358 0.960 . S
C346 H359 0.962 . S
C346 H360 0.960 . S
C347 C344 1.511 . S
C347 H361 0.961 . S
C347 H362 0.961 . S
C347 H363 0.961 . S
C348 C349 1.370 . S
C348 C350 1.363 . S
C348 H364 0.931 . S
C349 C348 1.370 . S
C349 C353 1.408 . S
C350 C348 1.363 . S
C350 C351 1.370 . S
C350 C354 1.524 . S
C351 C343 1.503 . S
C351 C350 1.370 . S
C351 C352 1.403 . S
C352 C351 1.403 . S
C352 C353 1.404 . S
C352 C355 1.539 . S
C353 C349 1.408 . S
C353 C352 1.404 . S
C353 H365 0.930 . S
C354 C350 1.524 . S
C354 H366 0.956 . S
C354 H367 0.961 . S
C354 H368 0.961 . S
C355 C352 1.539 . S
C355 H369 0.958 . S
C355 H370 0.961 . S
C355 H371 0.960 . S
H356 C340 0.931 . S
H357 C345 0.929 . S
H358 C346 0.960 . S
H359 C346 0.962 . S
H360 C346 0.960 . S
H361 C347 0.961 . S
H362 C347 0.961 . S
H363 C347 0.961 . S
H364 C348 0.931 . S
H365 C353 0.930 . S
H366 C354 0.956 . S
H367 C354 0.961 . S
H368 C354 0.961 . S
H369 C355 0.958 . S
H370 C355 0.961 . S
H371 C355 0.960 . S
C372 C373 1.391 . S
C372 C374 1.394 . S
C372 H388 0.931 . S
C373 C372 1.391 . S
C373 C377 1.376 . S
C374 C372 1.394 . S
C374 C375 1.369 . S
C374 C378 1.531 . S
C375 C374 1.369 . S
C375 C376 1.410 . S
C375 C383 1.503 . S
C376 C375 1.410 . S
C376 C377 1.392 . S
C376 C379 1.511 . S
C377 C373 1.376 . S
C377 C376 1.392 . S
C377 H389 0.929 . S
C378 C374 1.531 . S
C378 H390 0.960 . S
C378 H391 0.962 . S
C378 H392 0.960 . S
C379 C376 1.511 . S
C379 H393 0.961 . S
C379 H394 0.961 . S
C379 H395 0.961 . S
C380 C381 1.370 . S
C380 C382 1.363 1_556 S
C380 H396 0.931 . S
C381 C380 1.370 . S
C381 C385 1.408 1_556 S
C382 C380 1.363 1_554 S
C382 C383 1.370 . S
C382 C386 1.524 . S
C383 C375 1.503 . S
C383 C382 1.370 . S
C383 C384 1.403 . S
C384 C383 1.403 . S
C384 C385 1.404 . S
C384 C387 1.539 . S
C385 C381 1.408 1_554 S
C385 C384 1.404 . S
C385 H397 0.930 1_554 S
C386 C382 1.524 . S
C386 H398 0.956 . S
C386 H399 0.961 . S
C386 H400 0.961 . S
C387 C384 1.539 . S
C387 H401 0.958 . S
C387 H402 0.961 . S
C387 H403 0.960 . S
H388 C372 0.931 . S
H389 C377 0.929 . S
H390 C378 0.960 . S
H391 C378 0.962 . S
H392 C378 0.960 . S
H393 C379 0.961 . S
H394 C379 0.961 . S
H395 C379 0.961 . S
H396 C380 0.931 . S
H397 C385 0.930 1_556 S
H398 C386 0.956 . S
H399 C386 0.961 . S
H400 C386 0.961 . S
H401 C387 0.958 . S
H402 C387 0.961 . S
H403 C387 0.960 . S
C404 C405 1.391 . S
C404 C406 1.394 . S
C404 H420 0.931 . S
C405 C404 1.391 . S
C405 C409 1.376 . S
C406 C404 1.394 . S
C406 C407 1.369 . S
C406 C410 1.531 . S
C407 C406 1.369 . S
C407 C408 1.410 . S
C407 C415 1.503 . S
C408 C407 1.410 . S
C408 C409 1.392 . S
C408 C411 1.511 . S
C409 C405 1.376 . S
C409 C408 1.392 . S
C409 H421 0.929 . S
C410 C406 1.531 . S
C410 H422 0.960 . S
C410 H423 0.962 . S
C410 H424 0.960 . S
C411 C408 1.511 . S
C411 H425 0.961 . S
C411 H426 0.961 . S
C411 H427 0.961 . S
C412 C413 1.370 1_554 S
C412 C414 1.363 . S
C412 H428 0.931 1_554 S
C413 C412 1.370 1_556 S
C413 C417 1.408 . S
C414 C412 1.363 . S
C414 C415 1.370 . S
C414 C418 1.524 . S
C415 C407 1.503 . S
C415 C414 1.370 . S
C415 C416 1.403 . S
C416 C415 1.403 . S
C416 C417 1.404 1_554 S
C416 C419 1.539 . S
C417 C413 1.408 . S
C417 C416 1.404 1_556 S
C417 H429 0.930 . S
C418 C414 1.524 . S
C418 H430 0.956 . S
C418 H431 0.961 . S
C418 H432 0.961 . S
C419 C416 1.539 . S
C419 H433 0.958 . S
C419 H434 0.961 . S
C419 H435 0.960 . S
H420 C404 0.931 . S
H421 C409 0.929 . S
H422 C410 0.960 . S
H423 C410 0.962 . S
H424 C410 0.960 . S
H425 C411 0.961 . S
H426 C411 0.961 . S
H427 C411 0.961 . S
H428 C412 0.931 1_556 S
H429 C417 0.930 . S
H430 C418 0.956 . S
H431 C418 0.961 . S
H432 C418 0.961 . S
H433 C419 0.958 . S
H434 C419 0.961 . S
H435 C419 0.960 . S
C436 C437 1.391 . S
C436 C438 1.394 . S
C436 H452 0.931 . S
C437 C436 1.391 . S
C437 C441 1.376 . S
C438 C436 1.394 . S
C438 C439 1.369 . S
C438 C442 1.531 . S
C439 C438 1.369 . S
C439 C440 1.410 . S
C439 C447 1.503 . S
C440 C439 1.410 . S
C440 C441 1.392 . S
C440 C443 1.511 . S
C441 C437 1.376 . S
C441 C440 1.392 . S
C441 H453 0.929 . S
C442 C438 1.531 . S
C442 H454 0.960 . S
C442 H455 0.962 . S
C442 H456 0.960 . S
C443 C440 1.511 . S
C443 H457 0.961 . S
C443 H458 0.961 . S
C443 H459 0.961 . S
C444 C445 1.370 1_554 S
C444 C446 1.363 . S
C444 H460 0.931 . S
C445 C444 1.370 1_556 S
C445 C449 1.408 . S
C446 C444 1.363 . S
C446 C447 1.370 . S
C446 C450 1.524 . S
C447 C439 1.503 . S
C447 C446 1.370 . S
C447 C448 1.403 . S
C448 C447 1.403 . S
C448 C449 1.404 1_554 S
C448 C451 1.539 . S
C449 C445 1.408 . S
C449 C448 1.404 1_556 S
C449 H461 0.930 . S
C450 C446 1.524 . S
C450 H462 0.956 . S
C450 H463 0.961 . S
C450 H464 0.961 . S
C451 C448 1.539 . S
C451 H465 0.958 . S
C451 H466 0.961 . S
C451 H467 0.960 . S
H452 C436 0.931 . S
H453 C441 0.929 . S
H454 C442 0.960 . S
H455 C442 0.962 . S
H456 C442 0.960 . S
H457 C443 0.961 . S
H458 C443 0.961 . S
H459 C443 0.961 . S
H460 C444 0.931 . S
H461 C449 0.930 . S
H462 C450 0.956 . S
H463 C450 0.961 . S
H464 C450 0.961 . S
H465 C451 0.958 . S
H466 C451 0.961 . S
H467 C451 0.960 . S
C468 C469 1.391 . S
C468 C470 1.394 . S
C468 H484 0.931 . S
C469 C468 1.391 . S
C469 C473 1.376 . S
C470 C468 1.394 . S
C470 C471 1.369 . S
C470 C474 1.531 . S
C471 C470 1.369 . S
C471 C472 1.410 . S
C471 C479 1.503 . S
C472 C471 1.410 . S
C472 C473 1.392 . S
C472 C475 1.511 . S
C473 C469 1.376 . S
C473 C472 1.392 . S
C473 H485 0.929 . S
C474 C470 1.531 . S
C474 H486 0.960 . S
C474 H487 0.962 . S
C474 H488 0.960 . S
C475 C472 1.511 . S
C475 H489 0.961 1_554 S
C475 H490 0.961 1_554 S
C475 H491 0.961 . S
C476 C477 1.370 . S
C476 C478 1.363 . S
C476 H492 0.931 . S
C477 C476 1.370 . S
C477 C481 1.408 . S
C478 C476 1.363 . S
C478 C479 1.370 . S
C478 C482 1.524 . S
C479 C471 1.503 . S
C479 C478 1.370 . S
C479 C480 1.403 . S
C480 C479 1.403 . S
C480 C481 1.404 . S
C480 C483 1.539 . S
C481 C477 1.408 . S
C481 C480 1.404 . S
C481 H493 0.930 . S
C482 C478 1.524 . S
C482 H494 0.956 . S
C482 H495 0.961 1_554 S
C482 H496 0.961 1_554 S
C483 C480 1.539 . S
C483 H497 0.958 . S
C483 H498 0.961 . S
C483 H499 0.960 . S
H484 C468 0.931 . S
H485 C473 0.929 . S
H486 C474 0.960 . S
H487 C474 0.962 . S
H488 C474 0.960 . S
H489 C475 0.961 1_556 S
H490 C475 0.961 1_556 S
H491 C475 0.961 . S
H492 C476 0.931 . S
H493 C481 0.930 . S
H494 C482 0.956 . S
H495 C482 0.961 1_556 S
H496 C482 0.961 1_556 S
H497 C483 0.958 . S
H498 C483 0.961 . S
H499 C483 0.960 . S
C500 C501 1.391 . S
C500 C502 1.394 . S
C500 H516 0.931 . S
C501 C500 1.391 . S
C501 C505 1.376 . S
C502 C500 1.394 . S
C502 C503 1.369 . S
C502 C506 1.531 . S
C503 C502 1.369 . S
C503 C504 1.410 . S
C503 C511 1.503 . S
C504 C503 1.410 . S
C504 C505 1.392 . S
C504 C507 1.511 . S
C505 C501 1.376 . S
C505 C504 1.392 . S
C505 H517 0.929 . S
C506 C502 1.531 . S
C506 H518 0.960 . S
C506 H519 0.962 . S
C506 H520 0.960 . S
C507 C504 1.511 . S
C507 H521 0.961 . S
C507 H522 0.961 . S
C507 H523 0.961 . S
C508 C509 1.370 . S
C508 C510 1.363 . S
C508 H524 0.931 . S
C509 C508 1.370 . S
C509 C513 1.408 . S
C510 C508 1.363 . S
C510 C511 1.370 . S
C510 C514 1.524 . S
C511 C503 1.503 . S
C511 C510 1.370 . S
C511 C512 1.403 . S
C512 C511 1.403 . S
C512 C513 1.404 . S
C512 C515 1.539 . S
C513 C509 1.408 . S
C513 C512 1.404 . S
C513 H525 0.930 . S
C514 C510 1.524 . S
C514 H526 0.956 . S
C514 H527 0.961 . S
C514 H528 0.961 . S
C515 C512 1.539 . S
C515 H529 0.958 . S
C515 H530 0.961 . S
C515 H531 0.960 . S
H516 C500 0.931 . S
H517 C505 0.929 . S
H518 C506 0.960 . S
H519 C506 0.962 . S
H520 C506 0.960 . S
H521 C507 0.961 . S
H522 C507 0.961 . S
H523 C507 0.961 . S
H524 C508 0.931 . S
H525 C513 0.930 . S
H526 C514 0.956 . S
H527 C514 0.961 . S
H528 C514 0.961 . S
H529 C515 0.958 . S
H530 C515 0.961 . S
H531 C515 0.960 . S
C532 C533 1.391 . S
C532 C534 1.394 . S
C532 H548 0.931 . S
C533 C532 1.391 . S
C533 C537 1.376 . S
C534 C532 1.394 . S
C534 C535 1.369 . S
C534 C538 1.531 . S
C535 C534 1.369 . S
C535 C536 1.410 . S
C535 C543 1.503 . S
C536 C535 1.410 . S
C536 C537 1.392 . S
C536 C539 1.511 . S
C537 C533 1.376 . S
C537 C536 1.392 . S
C537 H549 0.929 1_565 S
C538 C534 1.531 . S
C538 H550 0.960 . S
C538 H551 0.962 . S
C538 H552 0.960 . S
C539 C536 1.511 . S
C539 H553 0.961 1_565 S
C539 H554 0.961 . S
C539 H555 0.961 . S
C540 C541 1.370 . S
C540 C542 1.363 . S
C540 H556 0.931 . S
C541 C540 1.370 . S
C541 C545 1.408 . S
C542 C540 1.363 . S
C542 C543 1.370 . S
C542 C546 1.524 . S
C543 C535 1.503 . S
C543 C542 1.370 . S
C543 C544 1.403 . S
C544 C543 1.403 . S
C544 C545 1.404 . S
C544 C547 1.539 . S
C545 C541 1.408 . S
C545 C544 1.404 . S
C545 H557 0.930 . S
C546 C542 1.524 . S
C546 H558 0.956 . S
C546 H559 0.961 . S
C546 H560 0.961 . S
C547 C544 1.539 . S
C547 H561 0.958 . S
C547 H562 0.961 . S
C547 H563 0.960 . S
H548 C532 0.931 . S
H549 C537 0.929 1_545 S
H550 C538 0.960 . S
H551 C538 0.962 . S
H552 C538 0.960 . S
H553 C539 0.961 1_545 S
H554 C539 0.961 . S
H555 C539 0.961 . S
H556 C540 0.931 . S
H557 C545 0.930 . S
H558 C546 0.956 . S
H559 C546 0.961 . S
H560 C546 0.961 . S
H561 C547 0.958 . S
H562 C547 0.961 . S
H563 C547 0.960 . S
C564 C565 1.391 . S
C564 C566 1.394 . S
C564 H580 0.931 . S
C565 C564 1.391 . S
C565 C569 1.376 . S
C566 C564 1.394 . S
C566 C567 1.369 . S
C566 C570 1.531 . S
C567 C566 1.369 . S
C567 C568 1.410 1_554 S
C567 C575 1.503 1_554 S
C568 C567 1.410 1_556 S
C568 C569 1.392 1_556 S
C568 C571 1.511 . S
C569 C565 1.376 . S
C569 C568 1.392 1_554 S
C569 H581 0.929 . S
C570 C566 1.531 . S
C570 H582 0.960 . S
C570 H583 0.962 . S
C570 H584 0.960 . S
C571 C568 1.511 . S
C571 H585 0.961 . S
C571 H586 0.961 . S
C571 H587 0.961 . S
C572 C573 1.370 . S
C572 C574 1.363 . S
C572 H588 0.931 . S
C573 C572 1.370 . S
C573 C577 1.408 . S
C574 C572 1.363 . S
C574 C575 1.370 . S
C574 C578 1.524 . S
C575 C567 1.503 1_556 S
C575 C574 1.370 . S
C575 C576 1.403 . S
C576 C575 1.403 . S
C576 C577 1.404 . S
C576 C579 1.539 . S
C577 C573 1.408 . S
C577 C576 1.404 . S
C577 H589 0.930 . S
C578 C574 1.524 . S
C578 H590 0.956 1_556 S
C578 H591 0.961 . S
C578 H592 0.961 . S
C579 C576 1.539 . S
C579 H593 0.958 . S
C579 H594 0.961 . S
C579 H595 0.960 . S
H580 C564 0.931 . S
H581 C569 0.929 . S
H582 C570 0.960 . S
H583 C570 0.962 . S
H584 C570 0.960 . S
H585 C571 0.961 . S
H586 C571 0.961 . S
H587 C571 0.961 . S
H588 C572 0.931 . S
H589 C577 0.930 . S
H590 C578 0.956 1_554 S
H591 C578 0.961 . S
H592 C578 0.961 . S
H593 C579 0.958 . S
H594 C579 0.961 . S
H595 C579 0.960 . S
C596 C597 1.391 . S
C596 C598 1.394 . S
C596 H612 0.931 . S
C597 C596 1.391 . S
C597 C601 1.376 . S
C598 C596 1.394 . S
C598 C599 1.369 . S
C598 C602 1.531 . S
C599 C598 1.369 . S
C599 C600 1.410 . S
C599 C607 1.503 . S
C600 C599 1.410 . S
C600 C601 1.392 . S
C600 C603 1.511 . S
C601 C597 1.376 . S
C601 C600 1.392 . S
C601 H613 0.929 . S
C602 C598 1.531 . S
C602 H614 0.960 . S
C602 H615 0.962 . S
C602 H616 0.960 . S
C603 C600 1.511 . S
C603 H617 0.961 1_655 S
C603 H618 0.961 1_655 S
C603 H619 0.961 . S
C604 C605 1.370 . S
C604 C606 1.363 . S
C604 H620 0.931 1_655 S
C605 C604 1.370 . S
C605 C609 1.408 1_556 S
C606 C604 1.363 . S
C606 C607 1.370 . S
C606 C610 1.524 . S
C607 C599 1.503 . S
C607 C606 1.370 . S
C607 C608 1.403 . S
C608 C607 1.403 . S
C608 C609 1.404 1_556 S
C608 C611 1.539 1_556 S
C609 C605 1.408 1_554 S
C609 C608 1.404 1_554 S
C609 H621 0.930 . S
C610 C606 1.524 . S
C610 H622 0.956 . S
C610 H623 0.961 . S
C610 H624 0.961 1_655 S
C611 C608 1.539 1_554 S
C611 H625 0.958 . S
C611 H626 0.961 . S
C611 H627 0.960 . S
H612 C596 0.931 . S
H613 C601 0.929 . S
H614 C602 0.960 . S
H615 C602 0.962 . S
H616 C602 0.960 . S
H617 C603 0.961 1_455 S
H618 C603 0.961 1_455 S
H619 C603 0.961 . S
H620 C604 0.931 1_455 S
H621 C609 0.930 . S
H622 C610 0.956 . S
H623 C610 0.961 . S
H624 C610 0.961 1_455 S
H625 C611 0.958 . S
H626 C611 0.961 . S
H627 C611 0.960 . S
C628 C629 1.391 . S
C628 C630 1.394 . S
C628 H644 0.931 . S
C629 C628 1.391 . S
C629 C633 1.376 . S
C630 C628 1.394 . S
C630 C631 1.369 . S
C630 C634 1.531 . S
C631 C630 1.369 . S
C631 C632 1.410 . S
C631 C639 1.503 . S
C632 C631 1.410 . S
C632 C633 1.392 . S
C632 C635 1.511 . S
C633 C629 1.376 . S
C633 C632 1.392 . S
C633 H645 0.929 . S
C634 C630 1.531 . S
C634 H646 0.960 . S
C634 H647 0.962 . S
C634 H648 0.960 . S
C635 C632 1.511 . S
C635 H649 0.961 1_556 S
C635 H650 0.961 1_556 S
C635 H651 0.961 . S
C636 C637 1.370 . S
C636 C638 1.363 . S
C636 H652 0.931 . S
C637 C636 1.370 . S
C637 C641 1.408 1_554 S
C638 C636 1.363 . S
C638 C639 1.370 1_554 S
C638 C642 1.524 . S
C639 C631 1.503 . S
C639 C638 1.370 1_556 S
C639 C640 1.403 . S
C640 C639 1.403 . S
C640 C641 1.404 . S
C640 C643 1.539 . S
C641 C637 1.408 1_556 S
C641 C640 1.404 . S
C641 H653 0.930 . S
C642 C638 1.524 . S
C642 H654 0.956 . S
C642 H655 0.961 . S
C642 H656 0.961 . S
C643 C640 1.539 . S
C643 H657 0.958 . S
C643 H658 0.961 . S
C643 H659 0.960 . S
H644 C628 0.931 . S
H645 C633 0.929 . S
H646 C634 0.960 . S
H647 C634 0.962 . S
H648 C634 0.960 . S
H649 C635 0.961 1_554 S
H650 C635 0.961 1_554 S
H651 C635 0.961 . S
H652 C636 0.931 . S
H653 C641 0.930 . S
H654 C642 0.956 . S
H655 C642 0.961 . S
H656 C642 0.961 . S
H657 C643 0.958 . S
H658 C643 0.961 . S
H659 C643 0.960 . S
C660 C661 1.391 . S
C660 C662 1.394 . S
C660 H676 0.931 . S
C661 C660 1.391 . S
C661 C665 1.376 . S
C662 C660 1.394 . S
C662 C663 1.369 . S
C662 C666 1.531 . S
C663 C662 1.369 . S
C663 C664 1.410 . S
C663 C671 1.503 . S
C664 C663 1.410 . S
C664 C665 1.392 . S
C664 C667 1.511 . S
C665 C661 1.376 . S
C665 C664 1.392 . S
C665 H677 0.929 . S
C666 C662 1.531 . S
C666 H678 0.960 . S
C666 H679 0.962 . S
C666 H680 0.972 . S
C667 C664 1.511 . S
C667 H681 0.961 . S
C667 H682 0.961 . S
C667 H683 0.961 1_556 S
C668 C669 1.370 . S
C668 C670 1.363 . S
C668 H684 0.931 . S
C669 C668 1.370 . S
C669 C673 1.408 . S
C670 C668 1.363 . S
C670 C671 1.370 . S
C670 C674 1.524 . S
C671 C663 1.503 . S
C671 C670 1.370 . S
C671 C672 1.403 . S
C672 C671 1.403 . S
C672 C673 1.404 . S
C672 C675 1.539 . S
C673 C669 1.408 . S
C673 C672 1.404 . S
C673 H685 0.930 1_556 S
C674 C670 1.524 . S
C674 H686 0.956 . S
C674 H687 0.961 . S
C674 H688 0.961 . S
C675 C672 1.539 . S
C675 H689 0.958 1_655 S
C675 H690 0.961 1_556 S
C675 H691 0.960 . S
H676 C660 0.931 . S
H677 C665 0.929 . S
H678 C666 0.960 . S
H679 C666 0.962 . S
H680 C666 0.972 . S
H681 C667 0.961 . S
H682 C667 0.961 . S
H683 C667 0.961 1_554 S
H684 C668 0.931 . S
H685 C673 0.930 1_554 S
H686 C674 0.956 . S
H687 C674 0.961 . S
H688 C674 0.961 . S
H689 C675 0.958 1_455 S
H690 C675 0.961 1_554 S
H691 C675 0.960 . S
C692 C693 1.391 . S
C692 C694 1.394 . S
C692 H708 0.931 . S
C693 C692 1.391 . S
C693 C697 1.376 1_554 S
C694 C692 1.394 . S
C694 C695 1.369 1_554 S
C694 C698 1.531 . S
C695 C694 1.369 1_556 S
C695 C696 1.410 . S
C695 C703 1.503 . S
C696 C695 1.410 . S
C696 C697 1.392 . S
C696 C699 1.511 . S
C697 C693 1.376 1_556 S
C697 C696 1.392 . S
C697 H709 0.929 . S
C698 C694 1.531 . S
C698 H710 0.960 . S
C698 H711 0.962 1_554 S
C698 H712 0.960 . S
C699 C696 1.511 . S
C699 H713 0.961 . S
C699 H714 0.961 . S
C699 H715 0.961 . S
C700 C701 1.370 . S
C700 C702 1.363 . S
C700 H716 0.931 . S
C701 C700 1.370 . S
C701 C705 1.408 . S
C702 C700 1.363 . S
C702 C703 1.370 . S
C702 C706 1.524 . S
C703 C695 1.503 . S
C703 C702 1.370 . S
C703 C704 1.403 . S
C704 C703 1.403 . S
C704 C705 1.404 . S
C704 C707 1.539 . S
C705 C701 1.408 . S
C705 C704 1.404 . S
C705 H717 0.930 . S
C706 C702 1.524 . S
C706 H718 0.956 . S
C706 H719 0.961 . S
C706 H720 0.961 . S
C707 C704 1.539 . S
C707 H721 0.958 1_556 S
C707 H722 0.961 . S
C707 H723 0.960 . S
H708 C692 0.931 . S
H709 C697 0.929 . S
H710 C698 0.960 . S
H711 C698 0.962 1_556 S
H712 C698 0.960 . S
H713 C699 0.961 . S
H714 C699 0.961 . S
H715 C699 0.961 . S
H716 C700 0.931 . S
H717 C705 0.930 . S
H718 C706 0.956 . S
H719 C706 0.961 . S
H720 C706 0.961 . S
H721 C707 0.958 1_554 S
H722 C707 0.961 . S
H723 C707 0.960 . S
C724 C725 1.391 . S
C724 C726 1.394 . S
C724 H740 0.931 . S
C725 C724 1.391 . S
C725 C729 1.376 . S
C726 C724 1.394 . S
C726 C727 1.369 . S
C726 C730 1.531 1_556 S
C727 C726 1.369 . S
C727 C728 1.410 . S
C727 C735 1.503 . S
C728 C727 1.410 . S
C728 C729 1.392 . S
C728 C731 1.511 . S
C729 C725 1.376 . S
C729 C728 1.392 . S
C729 H741 0.929 . S
C730 C726 1.531 1_554 S
C730 H742 0.960 . S
C730 H743 0.962 . S
C730 H744 0.960 . S
C731 C728 1.511 . S
C731 H745 0.961 . S
C731 H746 0.961 . S
C731 H747 0.961 . S
C732 C733 1.370 . S
C732 C734 1.363 . S
C732 H748 0.931 . S
C733 C732 1.370 . S
C733 C737 1.408 . S
C734 C732 1.363 . S
C734 C735 1.370 1_554 S
C734 C738 1.524 . S
C735 C727 1.503 . S
C735 C734 1.370 1_556 S
C735 C736 1.402 1_556 S
C736 C735 1.402 1_554 S
C736 C737 1.406 . S
C736 C739 1.537 1_554 S
C737 C733 1.408 . S
C737 C736 1.406 . S
C737 H749 0.930 . S
C738 C734 1.524 . S
C738 H750 0.956 . S
C738 H751 0.961 1_554 S
C738 H752 0.961 . S
C739 C736 1.537 1_556 S
C739 H753 0.958 . S
C739 H754 0.961 . S
C739 H755 0.960 . S
H740 C724 0.931 . S
H741 C729 0.929 . S
H742 C730 0.960 . S
H743 C730 0.962 . S
H744 C730 0.960 . S
H745 C731 0.961 . S
H746 C731 0.961 . S
H747 C731 0.961 . S
H748 C732 0.931 . S
H749 C737 0.930 . S
H750 C738 0.956 . S
H751 C738 0.961 1_556 S
H752 C738 0.961 . S
H753 C739 0.958 . S
H754 C739 0.961 . S
H755 C739 0.960 . S
C756 C757 1.391 . S
C756 C758 1.394 . S
C756 H772 0.931 . S
C757 C756 1.391 . S
C757 C761 1.376 1_545 S
C758 C756 1.394 . S
C758 C759 1.369 1_545 S
C758 C762 1.531 . S
C759 C758 1.369 1_565 S
C759 C760 1.410 . S
C759 C767 1.503 . S
C760 C759 1.410 . S
C760 C761 1.392 . S
C760 C763 1.511 . S
C761 C757 1.376 1_565 S
C761 C760 1.392 . S
C761 H773 0.929 . S
C762 C758 1.531 . S
C762 H774 0.960 . S
C762 H775 0.962 . S
C762 H776 0.960 . S
C763 C760 1.511 . S
C763 H777 0.961 . S
C763 H778 0.961 . S
C763 H779 0.961 . S
C764 C765 1.370 . S
C764 C766 1.363 . S
C764 H780 0.931 . S
C765 C764 1.370 . S
C765 C769 1.408 . S
C766 C764 1.363 . S
C766 C767 1.370 . S
C766 C770 1.524 . S
C767 C759 1.503 . S
C767 C766 1.370 . S
C767 C768 1.403 . S
C768 C767 1.403 . S
C768 C769 1.404 . S
C768 C771 1.539 . S
C769 C765 1.408 . S
C769 C768 1.404 . S
C769 H781 0.930 . S
C770 C766 1.524 . S
C770 H782 0.956 . S
C770 H783 0.961 . S
C770 H784 0.961 . S
C771 C768 1.539 . S
C771 H785 0.958 . S
C771 H786 0.961 . S
C771 H787 0.960 . S
H772 C756 0.931 . S
H773 C761 0.929 . S
H774 C762 0.960 . S
H775 C762 0.962 . S
H776 C762 0.960 . S
H777 C763 0.961 . S
H778 C763 0.961 . S
H779 C763 0.961 . S
H780 C764 0.931 . S
H781 C769 0.930 . S
H782 C770 0.956 . S
H783 C770 0.961 . S
H784 C770 0.961 . S
H785 C771 0.958 . S
H786 C771 0.961 . S
H787 C771 0.960 . S
C788 C789 1.391 . S
C788 C790 1.394 . S
C788 H804 0.931 . S
C789 C788 1.391 . S
C789 C793 1.376 . S
C790 C788 1.394 . S
C790 C791 1.369 . S
C790 C794 1.531 . S
C791 C790 1.369 . S
C791 C792 1.410 . S
C791 C799 1.503 . S
C792 C791 1.410 . S
C792 C793 1.392 . S
C792 C795 1.511 . S
C793 C789 1.376 . S
C793 C792 1.392 . S
C793 H805 0.929 . S
C794 C790 1.531 . S
C794 H806 0.960 . S
C794 H807 0.962 . S
C794 H808 0.960 . S
C795 C792 1.511 . S
C795 H809 0.961 . S
C795 H810 0.961 . S
C795 H811 0.961 . S
C796 C797 1.370 . S
C796 C798 1.363 . S
C796 H812 0.931 1_554 S
C797 C796 1.370 . S
C797 C801 1.408 . S
C798 C796 1.363 . S
C798 C799 1.370 . S
C798 C802 1.524 . S
C799 C791 1.503 . S
C799 C798 1.370 . S
C799 C800 1.403 . S
C800 C799 1.403 . S
C800 C801 1.404 . S
C800 C803 1.539 . S
C801 C797 1.408 . S
C801 C800 1.404 . S
C801 H813 0.930 . S
C802 C798 1.524 . S
C802 H814 0.956 . S
C802 H815 0.961 1_554 S
C802 H816 0.961 1_554 S
C803 C800 1.539 . S
C803 H817 0.958 . S
C803 H818 0.961 . S
C803 H819 0.960 . S
H804 C788 0.931 . S
H805 C793 0.929 . S
H806 C794 0.960 . S
H807 C794 0.962 . S
H808 C794 0.960 . S
H809 C795 0.961 . S
H810 C795 0.961 . S
H811 C795 0.961 . S
H812 C796 0.931 1_556 S
H813 C801 0.930 . S
H814 C802 0.956 . S
H815 C802 0.961 1_556 S
H816 C802 0.961 1_556 S
H817 C803 0.958 . S
H818 C803 0.961 . S
H819 C803 0.960 . S
C820 C821 1.391 . S
C820 C822 1.394 . S
C820 H836 0.931 . S
C821 C820 1.391 . S
C821 C825 1.376 . S
C822 C820 1.394 . S
C822 C823 1.369 . S
C822 C826 1.531 . S
C823 C822 1.369 . S
C823 C824 1.410 . S
C823 C831 1.503 . S
C824 C823 1.410 . S
C824 C825 1.392 . S
C824 C827 1.511 . S
C825 C821 1.376 . S
C825 C824 1.392 . S
C825 H837 0.929 . S
C826 C822 1.531 . S
C826 H838 0.960 . S
C826 H839 0.962 . S
C826 H840 0.960 . S
C827 C824 1.511 . S
C827 H841 0.961 1_554 S
C827 H842 0.961 . S
C827 H843 0.961 . S
C828 C829 1.370 . S
C828 C830 1.363 . S
C828 H844 0.931 . S
C829 C828 1.370 . S
C829 C833 1.408 . S
C830 C828 1.363 . S
C830 C831 1.370 . S
C830 C834 1.524 . S
C831 C823 1.503 . S
C831 C830 1.370 . S
C831 C832 1.403 . S
C832 C831 1.403 . S
C832 C833 1.404 . S
C832 C835 1.539 . S
C833 C829 1.408 . S
C833 C832 1.404 . S
C833 H845 0.930 . S
C834 C830 1.524 . S
C834 H846 0.956 . S
C834 H847 0.961 . S
C834 H848 0.961 . S
C835 C832 1.539 . S
C835 H849 0.958 . S
C835 H850 0.961 . S
C835 H851 0.960 . S
H836 C820 0.931 . S
H837 C825 0.929 . S
H838 C826 0.960 . S
H839 C826 0.962 . S
H840 C826 0.960 . S
H841 C827 0.961 1_556 S
H842 C827 0.961 . S
H843 C827 0.961 . S
H844 C828 0.931 . S
H845 C833 0.930 . S
H846 C834 0.956 . S
H847 C834 0.961 . S
H848 C834 0.961 . S
H849 C835 0.958 . S
H850 C835 0.961 . S
H851 C835 0.960 . S
C852 C853 1.391 . S
C852 C854 1.394 . S
C852 H868 0.931 . S
C853 C852 1.391 . S
C853 C857 1.376 . S
C854 C852 1.394 . S
C854 C855 1.369 . S
C854 C858 1.531 . S
C855 C854 1.369 . S
C855 C856 1.410 . S
C855 C863 1.503 . S
C856 C855 1.410 . S
C856 C857 1.392 . S
C856 C859 1.511 . S
C857 C853 1.376 . S
C857 C856 1.392 . S
C857 H869 0.929 . S
C858 C854 1.531 . S
C858 H870 0.960 . S
C858 H871 0.962 . S
C858 H872 0.960 . S
C859 C856 1.511 . S
C859 H873 0.961 . S
C859 H874 0.961 . S
C859 H875 0.961 . S
C860 C861 1.370 . S
C860 C862 1.363 . S
C860 H876 0.931 . S
C861 C860 1.370 . S
C861 C865 1.408 . S
C862 C860 1.363 . S
C862 C863 1.370 . S
C862 C866 1.524 . S
C863 C855 1.503 . S
C863 C862 1.370 . S
C863 C864 1.403 . S
C864 C863 1.403 . S
C864 C865 1.404 . S
C864 C867 1.539 . S
C865 C861 1.408 . S
C865 C864 1.404 . S
C865 H877 0.930 . S
C866 C862 1.524 . S
C866 H878 0.956 . S
C866 H879 0.961 . S
C866 H880 0.961 . S
C867 C864 1.539 . S
C867 H881 0.958 . S
C867 H882 0.961 . S
C867 H883 0.960 . S
H868 C852 0.931 . S
H869 C857 0.929 . S
H870 C858 0.960 . S
H871 C858 0.962 . S
H872 C858 0.960 . S
H873 C859 0.961 . S
H874 C859 0.961 . S
H875 C859 0.961 . S
H876 C860 0.931 . S
H877 C865 0.930 . S
H878 C866 0.956 . S
H879 C866 0.961 . S
H880 C866 0.961 . S
H881 C867 0.958 . S
H882 C867 0.961 . S
H883 C867 0.960 . S
C884 C885 1.391 . S
C884 C886 1.394 . S
C884 H900 0.931 . S
C885 C884 1.391 . S
C885 C889 1.376 . S
C886 C884 1.394 . S
C886 C887 1.369 . S
C886 C890 1.531 . S
C887 C886 1.369 . S
C887 C888 1.410 . S
C887 C895 1.503 . S
C888 C887 1.410 . S
C888 C889 1.392 . S
C888 C891 1.511 . S
C889 C885 1.376 . S
C889 C888 1.392 . S
C889 H901 0.929 . S
C890 C886 1.531 . S
C890 H902 0.960 . S
C890 H903 0.962 . S
C890 H904 0.960 . S
C891 C888 1.511 . S
C891 H905 0.961 . S
C891 H906 0.961 . S
C891 H907 0.961 . S
C892 C893 1.370 . S
C892 C894 1.363 1_565 S
C892 H908 0.931 . S
C893 C892 1.370 . S
C893 C897 1.408 . S
C894 C892 1.363 1_545 S
C894 C895 1.370 . S
C894 C898 1.524 . S
C895 C887 1.503 . S
C895 C894 1.370 . S
C895 C896 1.403 1_545 S
C896 C895 1.403 1_565 S
C896 C897 1.404 . S
C896 C899 1.539 . S
C897 C893 1.408 . S
C897 C896 1.404 . S
C897 H909 0.930 . S
C898 C894 1.524 . S
C898 H910 0.956 . S
C898 H911 0.961 . S
C898 H912 0.961 . S
C899 C896 1.539 . S
C899 H913 0.958 . S
C899 H914 0.961 . S
C899 H915 0.960 1_565 S
H900 C884 0.931 . S
H901 C889 0.929 . S
H902 C890 0.960 . S
H903 C890 0.962 . S
H904 C890 0.960 . S
H905 C891 0.961 . S
H906 C891 0.961 . S
H907 C891 0.961 . S
H908 C892 0.931 . S
H909 C897 0.930 . S
H910 C898 0.956 . S
H911 C898 0.961 . S
H912 C898 0.961 . S
H913 C899 0.958 . S
H914 C899 0.961 . S
H915 C899 0.960 1_545 S
C916 C917 1.391 1_455 S
C916 C918 1.394 . S
C916 H932 0.931 . S
C917 C916 1.391 1_655 S
C917 C921 1.376 . S
C918 C916 1.394 . S
C918 C919 1.369 . S
C918 C922 1.531 . S
C919 C918 1.369 . S
C919 C920 1.410 . S
C919 C927 1.503 . S
C920 C919 1.410 . S
C920 C921 1.392 1_455 S
C920 C923 1.511 1_455 S
C921 C917 1.376 . S
C921 C920 1.392 1_655 S
C921 H933 0.929 . S
C922 C918 1.531 . S
C922 H934 0.960 . S
C922 H935 0.962 . S
C922 H936 0.960 . S
C923 C920 1.511 1_655 S
C923 H937 0.961 . S
C923 H938 0.961 1_655 S
C923 H939 0.961 1_655 S
C924 C925 1.370 . S
C924 C926 1.363 . S
C924 H940 0.931 . S
C925 C924 1.370 . S
C925 C929 1.408 . S
C926 C924 1.363 . S
C926 C927 1.370 . S
C926 C930 1.524 . S
C927 C919 1.503 . S
C927 C926 1.370 . S
C927 C928 1.403 . S
C928 C927 1.403 . S
C928 C929 1.404 . S
C928 C931 1.539 . S
C929 C925 1.408 . S
C929 C928 1.404 . S
C929 H941 0.930 . S
C930 C926 1.524 . S
C930 H942 0.956 . S
C930 H943 0.961 . S
C930 H944 0.961 . S
C931 C928 1.539 . S
C931 H945 0.958 . S
C931 H946 0.961 . S
C931 H947 0.960 . S
H932 C916 0.931 . S
H933 C921 0.929 . S
H934 C922 0.960 . S
H935 C922 0.962 . S
H936 C922 0.960 . S
H937 C923 0.961 . S
H938 C923 0.961 1_455 S
H939 C923 0.961 1_455 S
H940 C924 0.931 . S
H941 C929 0.930 . S
H942 C930 0.956 . S
H943 C930 0.961 . S
H944 C930 0.961 . S
H945 C931 0.958 . S
H946 C931 0.961 . S
H947 C931 0.960 . S
C948 C949 1.391 . S
C948 C950 1.394 . S
C948 H964 0.931 . S
C949 C948 1.391 . S
C949 C953 1.376 . S
C950 C948 1.394 . S
C950 C951 1.369 . S
C950 C954 1.531 . S
C951 C950 1.369 . S
C951 C952 1.410 . S
C951 C959 1.503 . S
C952 C951 1.410 . S
C952 C953 1.392 . S
C952 C955 1.511 . S
C953 C949 1.376 . S
C953 C952 1.392 . S
C953 H965 0.929 . S
C954 C950 1.531 . S
C954 H966 0.960 . S
C954 H967 0.962 . S
C954 H968 0.960 . S
C955 C952 1.511 . S
C955 H969 0.961 . S
C955 H970 0.961 . S
C955 H971 0.961 . S
C956 C957 1.370 . S
C956 C958 1.363 . S
C956 H972 0.931 . S
C957 C956 1.370 . S
C957 C961 1.408 . S
C958 C956 1.363 . S
C958 C959 1.370 . S
C958 C962 1.524 . S
C959 C951 1.503 . S
C959 C958 1.370 . S
C959 C960 1.403 . S
C960 C959 1.403 . S
C960 C961 1.404 . S
C960 C963 1.539 . S
C961 C957 1.408 . S
C961 C960 1.404 . S
C961 H973 0.930 . S
C962 C958 1.524 . S
C962 H974 0.956 . S
C962 H975 0.961 . S
C962 H976 0.961 . S
C963 C960 1.539 . S
C963 H977 0.958 . S
C963 H978 0.961 . S
C963 H979 0.960 . S
H964 C948 0.931 . S
H965 C953 0.929 . S
H966 C954 0.960 . S
H967 C954 0.962 . S
H968 C954 0.960 . S
H969 C955 0.961 . S
H970 C955 0.961 . S
H971 C955 0.961 . S
H972 C956 0.931 . S
H973 C961 0.930 . S
H974 C962 0.956 . S
H975 C962 0.961 . S
H976 C962 0.961 . S
H977 C963 0.958 . S
H978 C963 0.961 . S
H979 C963 0.960 . S
C980 C981 1.391 . S
C980 C982 1.394 . S
C980 H996 0.931 . S
C981 C980 1.391 . S
C981 C985 1.376 . S
C982 C980 1.394 . S
C982 C983 1.369 1_565 S
C982 C986 1.531 1_565 S
C983 C982 1.369 1_545 S
C983 C984 1.410 1_545 S
C983 C991 1.503 . S
C984 C983 1.410 1_565 S
C984 C985 1.392 . S
C984 C987 1.511 1_565 S
C985 C981 1.376 . S
C985 C984 1.392 . S
C985 H997 0.929 . S
C986 C982 1.531 1_545 S
C986 H998 0.960 . S
C986 H999 0.962 . S
C986 H1000 0.960 . S
C987 C984 1.511 1_545 S
C987 H1001 0.961 1_545 S
C987 H1002 0.961 . S
C987 H1003 0.961 . S
C988 C989 1.370 . S
C988 C990 1.363 . S
C988 H1004 0.931 . S
C989 C988 1.370 . S
C989 C993 1.408 . S
C990 C988 1.363 . S
C990 C991 1.370 . S
C990 C994 1.524 . S
C991 C983 1.503 . S
C991 C990 1.370 . S
C991 C992 1.403 . S
C992 C991 1.403 . S
C992 C993 1.404 . S
C992 C995 1.539 . S
C993 C989 1.408 . S
C993 C992 1.404 . S
C993 H1005 0.930 . S
C994 C990 1.524 . S
C994 H1006 0.956 . S
C994 H1007 0.953 1_545 S
C994 H1008 0.961 . S
C995 C992 1.539 . S
C995 H1009 0.958 . S
C995 H1010 0.961 . S
C995 H1011 0.960 . S
H996 C980 0.931 . S
H997 C985 0.929 . S
H998 C986 0.960 . S
H999 C986 0.962 . S
H1000 C986 0.960 . S
H1001 C987 0.961 1_565 S
H1002 C987 0.961 . S
H1003 C987 0.961 . S
H1004 C988 0.931 . S
H1005 C993 0.930 . S
H1006 C994 0.956 . S
H1007 C994 0.953 1_565 S
H1008 C994 0.961 . S
H1009 C995 0.958 . S
H1010 C995 0.961 . S
H1011 C995 0.960 . S
C1012 C1013 1.391 . S
C1012 C1014 1.394 1_655 S
C1012 H1028 0.931 . S
C1013 C1012 1.391 . S
C1013 C1017 1.376 1_655 S
C1014 C1012 1.394 1_455 S
C1014 C1015 1.369 . S
C1014 C1018 1.531 . S
C1015 C1014 1.369 . S
C1015 C1016 1.410 . S
C1015 C1023 1.503 . S
C1016 C1015 1.410 . S
C1016 C1017 1.392 . S
C1016 C1019 1.511 . S
C1017 C1013 1.376 1_455 S
C1017 C1016 1.392 . S
C1017 H1029 0.929 . S
C1018 C1014 1.531 . S
C1018 H1030 0.960 . S
C1018 H1031 0.962 . S
C1018 H1032 0.960 . S
C1019 C1016 1.511 . S
C1019 H1033 0.961 . S
C1019 H1034 0.961 . S
C1019 H1035 0.961 . S
C1020 C1021 1.370 . S
C1020 C1022 1.363 . S
C1020 H1036 0.931 . S
C1021 C1020 1.370 . S
C1021 C1025 1.408 . S
C1022 C1020 1.363 . S
C1022 C1023 1.370 . S
C1022 C1026 1.524 . S
C1023 C1015 1.503 . S
C1023 C1022 1.370 . S
C1023 C1024 1.403 . S
C1024 C1023 1.403 . S
C1024 C1025 1.404 . S
C1024 C1027 1.539 . S
C1025 C1021 1.408 . S
C1025 C1024 1.404 . S
C1025 H1037 0.930 . S
C1026 C1022 1.524 . S
C1026 H1038 0.956 . S
C1026 H1039 0.961 . S
C1026 H1040 0.961 . S
C1027 C1024 1.539 . S
C1027 H1041 0.958 . S
C1027 H1042 0.961 . S
C1027 H1043 0.960 . S
H1028 C1012 0.931 . S
H1029 C1017 0.929 . S
H1030 C1018 0.960 . S
H1031 C1018 0.962 . S
H1032 C1018 0.960 . S
H1033 C1019 0.961 . S
H1034 C1019 0.961 . S
H1035 C1019 0.961 . S
H1036 C1020 0.931 . S
H1037 C1025 0.930 . S
H1038 C1026 0.956 . S
H1039 C1026 0.961 . S
H1040 C1026 0.961 . S
H1041 C1027 0.958 . S
H1042 C1027 0.961 . S
H1043 C1027 0.960 . S
C181 C8 1.636 . S
C189 C9 1.652 . S
C213 C28 1.689 . S
C221 C29 1.679 . S
C245 C48 1.690 1_556 S
C253 C49 1.713 . S
C277 C69 1.627 . S
C285 C68 1.655 . S
C309 C89 1.675 . S
C317 C88 1.685 1_556 S
C341 C109 1.709 . S
C349 C108 1.705 1_556 S
C373 C122 0.396 . S
C381 C121 0.480 . S
C405 C141 0.527 . S
C413 C142 0.399 . S
C437 C162 0.425 . S
C445 C161 0.465 . S
C469 C118 1.802 . S
C477 C2 1.796 . S
C501 C22 1.781 . S
C509 C78 1.804 . S
C533 C42 1.853 . S
C541 C98 1.883 . S
C565 C58 1.625 . S
C573 C139 1.751 . S
C597 C149 1.284 . S
C605 C18 1.255 . S
C629 C179 1.701 . S
C637 C38 1.585 . S
C661 C168 1.303 . S
C669 C1 1.289 . S
C693 C21 1.334 . S
C701 C128 1.333 . S
C725 C158 1.782 . S
C733 C41 1.715 . S
C757 C59 1.780 . S
C765 C61 1.802 . S
C789 C81 1.802 . S
C797 C19 1.791 . S
C821 C39 1.865 . S
C829 C101 1.851 . S
C853 C169 1.283 . S
C861 C62 1.288 . S
C885 C129 1.314 . S
C893 C82 1.304 . S
C917 C159 1.780 . S
C925 C102 1.714 . S
C949 C138 1.735 . S
C957 C119 1.627 . S
C981 C79 1.275 . S
C989 C148 1.286 . S
C1013 C178 1.696 . S
C1021 C99 1.579 . S
