# Generated by pormake.
# Topology uki, (4)-cn, num edge types: 1
# Building blocks:
#     Node 0, Type 0, BuildingBlock: KOZSID_clean_sbu_0, # of connection points: 4
#     Node 1, Type 0, BuildingBlock: KOZSID_clean_sbu_0, # of connection points: 4
#     Node 2, Type 0, BuildingBlock: KOZSID_clean_sbu_0, # of connection points: 4
#     Node 3, Type 0, BuildingBlock: KOZSID_clean_sbu_0, # of connection points: 4
#     Node 4, Type 0, BuildingBlock: KOZSID_clean_sbu_0, # of connection points: 4
#     Node 5, Type 0, BuildingBlock: KOZSID_clean_sbu_0, # of connection points: 4
#     Node 6, Type 0, BuildingBlock: KOZSID_clean_sbu_0, # of connection points: 4
#     Node 7, Type 0, BuildingBlock: KOZSID_clean_sbu_0, # of connection points: 4
#     Node 8, Type 0, BuildingBlock: KOZSID_clean_sbu_0, # of connection points: 4
#     Node 9, Type 0, BuildingBlock: KOZSID_clean_sbu_0, # of connection points: 4
#     Node 10, Type 0, BuildingBlock: KOZSID_clean_sbu_0, # of connection points: 4
#     Node 11, Type 0, BuildingBlock: KOZSID_clean_sbu_0, # of connection points: 4
#     Node 12, Type 0, BuildingBlock: KOZSID_clean_sbu_0, # of connection points: 4
#     Node 13, Type 0, BuildingBlock: KOZSID_clean_sbu_0, # of connection points: 4
#     Node 14, Type 0, BuildingBlock: KOZSID_clean_sbu_0, # of connection points: 4
#     Node 15, Type 0, BuildingBlock: KOZSID_clean_sbu_0, # of connection points: 4
#     Edge 16, Type (0, 0), BuildingBlock: ZUJKAS_clean_linker_0, # of connection points: 2
#     Edge 17, Type (0, 0), BuildingBlock: ZUJKAS_clean_linker_0, # of connection points: 2
#     Edge 18, Type (0, 0), BuildingBlock: ZUJKAS_clean_linker_0, # of connection points: 2
#     Edge 19, Type (0, 0), BuildingBlock: ZUJKAS_clean_linker_0, # of connection points: 2
#     Edge 20, Type (0, 0), BuildingBlock: ZUJKAS_clean_linker_0, # of connection points: 2
#     Edge 21, Type (0, 0), BuildingBlock: ZUJKAS_clean_linker_0, # of connection points: 2
#     Edge 22, Type (0, 0), BuildingBlock: ZUJKAS_clean_linker_0, # of connection points: 2
#     Edge 23, Type (0, 0), BuildingBlock: ZUJKAS_clean_linker_0, # of connection points: 2
#     Edge 24, Type (0, 0), BuildingBlock: ZUJKAS_clean_linker_0, # of connection points: 2
#     Edge 25, Type (0, 0), BuildingBlock: ZUJKAS_clean_linker_0, # of connection points: 2
#     Edge 26, Type (0, 0), BuildingBlock: ZUJKAS_clean_linker_0, # of connection points: 2
#     Edge 27, Type (0, 0), BuildingBlock: ZUJKAS_clean_linker_0, # of connection points: 2
#     Edge 28, Type (0, 0), BuildingBlock: ZUJKAS_clean_linker_0, # of connection points: 2
#     Edge 29, Type (0, 0), BuildingBlock: ZUJKAS_clean_linker_0, # of connection points: 2
#     Edge 30, Type (0, 0), BuildingBlock: ZUJKAS_clean_linker_0, # of connection points: 2
#     Edge 31, Type (0, 0), BuildingBlock: ZUJKAS_clean_linker_0, # of connection points: 2
#     Edge 32, Type (0, 0), BuildingBlock: ZUJKAS_clean_linker_0, # of connection points: 2
#     Edge 33, Type (0, 0), BuildingBlock: ZUJKAS_clean_linker_0, # of connection points: 2
#     Edge 34, Type (0, 0), BuildingBlock: ZUJKAS_clean_linker_0, # of connection points: 2
#     Edge 35, Type (0, 0), BuildingBlock: ZUJKAS_clean_linker_0, # of connection points: 2
#     Edge 36, Type (0, 0), BuildingBlock: ZUJKAS_clean_linker_0, # of connection points: 2
#     Edge 37, Type (0, 0), BuildingBlock: ZUJKAS_clean_linker_0, # of connection points: 2
#     Edge 38, Type (0, 0), BuildingBlock: ZUJKAS_clean_linker_0, # of connection points: 2
#     Edge 39, Type (0, 0), BuildingBlock: ZUJKAS_clean_linker_0, # of connection points: 2
#     Edge 40, Type (0, 0), BuildingBlock: ZUJKAS_clean_linker_0, # of connection points: 2
#     Edge 41, Type (0, 0), BuildingBlock: ZUJKAS_clean_linker_0, # of connection points: 2
#     Edge 42, Type (0, 0), BuildingBlock: ZUJKAS_clean_linker_0, # of connection points: 2
#     Edge 43, Type (0, 0), BuildingBlock: ZUJKAS_clean_linker_0, # of connection points: 2
#     Edge 44, Type (0, 0), BuildingBlock: ZUJKAS_clean_linker_0, # of connection points: 2
#     Edge 45, Type (0, 0), BuildingBlock: ZUJKAS_clean_linker_0, # of connection points: 2
#     Edge 46, Type (0, 0), BuildingBlock: ZUJKAS_clean_linker_0, # of connection points: 2
#     Edge 47, Type (0, 0), BuildingBlock: ZUJKAS_clean_linker_0, # of connection points: 2
# Relax obj value: 0.118
# Max RMSD: 0.241
# Mean RMSD: 0.241
data_MOF--net-uki--node1-KOZSID_clean_sbu_0--edge1-ZUJKAS_clean_linker_0
_symmetry_space_group_name_H-M    P1
_symmetry_Int_Tables_number       1
_symmetry_cell_setting            triclinic
loop_
_symmetry_equiv_pos_as_xyz
'x, y, z'
_cell_length_a     46.986298
_cell_length_b     46.908889
_cell_length_c     112.95802
_cell_angle_alpha  89.989837
_cell_angle_beta   90.038028
_cell_angle_gamma 89.969594
loop_
_atom_site_label
_atom_site_type_symbol
_atom_site_fract_x
_atom_site_fract_y
_atom_site_fract_z
_atom_type_partial_charge
C0 C 0.16366 0.22378 0.32047 0.0
C1 C 0.18679 0.20681 0.31748 0.0
C2 C 0.18031 0.19407 0.30689 0.0
C3 C 0.15379 0.20406 0.30392 0.0
N4 N 0.1433 0.22256 0.31192 0.0
Co5 Co 0.10565 0.24188 0.31089 0.0
N6 N 0.10169 0.23326 0.29374 0.0
C7 C 0.11668 0.21357 0.28773 0.0
C8 C 0.10951 0.21248 0.27595 0.0
C9 C 0.08857 0.23259 0.27449 0.0
C10 C 0.084 0.24481 0.28552 0.0
N11 N 0.06798 0.261 0.30998 0.0
C12 C 0.05313 0.27028 0.30043 0.0
C13 C 0.0272 0.28191 0.30385 0.0
C14 C 0.02587 0.27974 0.31593 0.0
C15 C 0.0509 0.2669 0.31922 0.0
N16 N 0.10941 0.25053 0.32804 0.0
C17 C 0.0879 0.25769 0.33533 0.0
C18 C 0.0964 0.26141 0.34685 0.0
C19 C 0.12504 0.25601 0.34685 0.0
C20 C 0.13248 0.24934 0.33527 0.0
N21 N 0.12452 0.27799 0.30679 0.0
C22 C 0.14722 0.32966 0.29824 0.0
C23 C 0.1262 0.32947 0.30709 0.0
C24 C 0.11534 0.30345 0.31131 0.0
C25 C 0.15717 0.30331 0.29411 0.0
C26 C 0.14561 0.27794 0.29845 0.0
N27 N 0.0867 0.20542 0.31464 0.0
C28 C 0.08622 0.15979 0.32461 0.0
C29 C 0.06312 0.15052 0.31769 0.0
C30 C 0.05142 0.17 0.30961 0.0
C31 C 0.0634 0.19711 0.30824 0.0
C32 C 0.09759 0.18723 0.32297 0.0
H33 H 0.05412 0.21106 0.30172 0.0
H34 H 0.11573 0.19337 0.32824 0.0
H35 H 0.09898 0.30393 0.31801 0.0
H36 H 0.15316 0.25826 0.2947 0.0
C37 C 0.14013 0.20014 0.293 0.0
C38 C 0.16087 0.23914 0.3318 0.0
C39 C 0.06162 0.26595 0.28805 0.0
C40 C 0.06098 0.26422 0.33081 0.0
H41 H 0.20625 0.20378 0.32244 0.0
H42 H 0.19379 0.17998 0.30177 0.0
H43 H 0.11909 0.19942 0.26913 0.0
H44 H 0.07788 0.23762 0.26626 0.0
H45 H 0.01076 0.29068 0.29821 0.0
H46 H 1.00905 0.28741 0.32165 0.0
H47 H 0.08346 0.26782 0.35431 0.0
H48 H 0.13872 0.25634 0.35456 0.0
H49 H 0.11807 0.34926 0.31068 0.0
H50 H 0.1731 0.30218 0.2872 0.0
H51 H 0.09614 0.14567 0.33098 0.0
H52 H 0.03314 0.16435 0.30427 0.0
C53 C 0.27295 0.96768 0.71419 0.0
C54 C 0.28455 0.99389 0.71111 0.0
C55 C 0.28268 0.99596 0.69903 0.0
C56 C 0.27005 0.97106 0.69542 0.0
N57 N 0.264 0.95339 0.70446 0.0
Co58 Co 0.24526 0.91562 0.70311 0.0
N59 N 0.25466 0.91277 0.68601 0.0
C60 C 0.26185 0.93474 0.67894 0.0
C61 C 0.26616 0.92677 0.6674 0.0
C62 C 0.26114 0.89802 0.66715 0.0
C63 C 0.25408 0.88998 0.67862 0.0
N64 N 0.22626 0.8779 0.70164 0.0
C65 C 0.22812 0.85789 0.69297 0.0
C66 C 0.21119 0.8345 0.69563 0.0
C67 C 0.19783 0.84046 0.70614 0.0
C68 C 0.20744 0.86697 0.70939 0.0
N69 N 0.23594 0.91865 0.72022 0.0
C70 C 0.21603 0.90339 0.72595 0.0
C71 C 0.21443 0.91003 0.73778 0.0
C72 C 0.23448 0.9309 0.73955 0.0
C73 C 0.24717 0.93591 0.72866 0.0
N74 N 0.20893 0.93454 0.69924 0.0
C75 C 0.15396 0.95751 0.69605 0.0
C76 C 0.17278 0.9689 0.70445 0.0
C77 C 0.2 0.95728 0.70587 0.0
C78 C 0.16391 0.93516 0.68888 0.0
C79 C 0.19137 0.92404 0.69061 0.0
N80 N 0.28123 0.89674 0.70732 0.0
C81 C 0.30611 0.86339 0.71985 0.0
C82 C 0.3325 0.87386 0.71607 0.0
C83 C 0.33261 0.89549 0.70746 0.0
C84 C 0.30677 0.90641 0.70311 0.0
C85 C 0.28092 0.87508 0.71542 0.0
H86 H 0.30744 0.92322 0.6966 0.0
H87 H 0.26116 0.86717 0.71892 0.0
H88 H 0.21351 0.96628 0.7126 0.0
H89 H 0.19801 0.90634 0.68518 0.0
C90 C 0.2679 0.96156 0.68373 0.0
C91 C 0.2685 0.95826 0.72645 0.0
C92 C 0.24409 0.86129 0.68182 0.0
C93 C 0.20292 0.88012 0.72039 0.0
H94 H 0.29319 1.00996 0.71697 0.0
H95 H 0.2905 0.01314 0.69352 0.0
H96 H 0.27274 0.94013 0.66008 0.0
H97 H 0.26198 0.88467 0.65934 0.0
H98 H 0.2086 0.81518 0.69052 0.0
H99 H 0.18362 0.82665 0.71103 0.0
H100 H 0.20109 0.90013 0.74442 0.0
H101 H 0.23915 0.94124 0.74789 0.0
H102 H 0.16646 0.98659 0.71002 0.0
H103 H 0.15025 0.92558 0.68226 0.0
H104 H 0.3048 0.84696 0.72657 0.0
H105 H 0.35249 0.90404 0.70417 0.0
C106 C 0.85488 0.78647 0.32325 0.0
C107 C 0.82766 0.7943 0.31973 0.0
C108 C 0.82748 0.79397 0.30762 0.0
C109 C 0.85448 0.78595 0.30441 0.0
N110 N 0.87188 0.7815 0.31371 0.0
Co111 Co 0.91239 0.76849 0.31276 0.0
N112 N 0.91466 0.77665 0.29541 0.0
C113 C 0.89233 0.78183 0.28823 0.0
C114 C 0.89991 0.78571 0.27662 0.0
C115 C 0.92882 0.78232 0.27638 0.0
C116 C 0.93727 0.77646 0.2879 0.0
N117 N 0.95291 0.75557 0.3119 0.0
C118 C 0.97242 0.75799 0.30308 0.0
C119 C 0.9982 0.74571 0.30632 0.0
C120 C 0.99463 0.73483 0.31743 0.0
C121 C 0.96703 0.74106 0.32037 0.0
N122 N 0.91001 0.76 0.33007 0.0
C123 C 0.92908 0.74487 0.3364 0.0
C124 C 0.92232 0.74258 0.34816 0.0
C125 C 0.89718 0.75688 0.34938 0.0
C126 C 0.88984 0.7669 0.33821 0.0
N127 N 0.89935 0.72949 0.30902 0.0
C128 C 0.87686 0.67733 0.30086 0.0
C129 C 0.90206 0.68849 0.29616 0.0
C130 C 0.91284 0.71431 0.30033 0.0
C131 C 0.8638 0.69233 0.31015 0.0
C132 C 0.87553 0.71814 0.31418 0.0
N133 N 0.92541 0.80763 0.31615 0.0
C134 C 0.95848 0.84028 0.32541 0.0
C135 C 0.94766 0.86323 0.31879 0.0
C136 C 0.92466 0.85772 0.3112 0.0
C137 C 0.91393 0.83004 0.31003 0.0
C138 C 0.94708 0.81277 0.32397 0.0
H139 H 0.89665 0.82678 0.30394 0.0
H140 H 0.95633 0.7956 0.329 0.0
H141 H 0.93164 0.72233 0.29612 0.0
H142 H 0.86483 0.72922 0.32124 0.0
C143 C 0.86499 0.78519 0.29286 0.0
C144 C 0.8626 0.78098 0.33565 0.0
C145 C 0.96638 0.76778 0.291 0.0
C146 C 0.95468 0.73617 0.33137 0.0
H147 H 0.80961 0.7991 0.32534 0.0
H148 H 0.80986 0.79926 0.30185 0.0
H149 H 0.88609 0.7906 0.26922 0.0
H150 H 0.94212 0.78329 0.26856 0.0
H151 H 0.01736 0.74398 0.30106 0.0
H152 H 0.01036 0.72392 0.32277 0.0
H153 H 0.93457 0.73238 0.35509 0.0
H154 H 0.88547 0.7594 0.35756 0.0
H155 H 0.9129 0.67798 0.28891 0.0
H156 H 0.84453 0.68434 0.31422 0.0
H157 H 0.97623 0.84328 0.33139 0.0
H158 H 0.91497 0.8747 0.3061 0.0
C159 C 0.7451 0.05495 0.71336 0.0
C160 C 0.73318 0.02887 0.7103 0.0
C161 C 0.7351 0.02668 0.69823 0.0
C162 C 0.748 0.05142 0.6946 0.0
N163 N 0.75418 0.06911 0.70362 0.0
Co164 Co 0.77301 0.10684 0.70222 0.0
N165 N 0.7638 0.10953 0.68509 0.0
C166 C 0.75657 0.0875 0.67806 0.0
C167 C 0.75247 0.09531 0.66648 0.0
C168 C 0.75767 0.12401 0.66616 0.0
C169 C 0.76461 0.1322 0.67763 0.0
N170 N 0.79208 0.14453 0.70072 0.0
C171 C 0.7904 0.16444 0.69199 0.0
C172 C 0.80731 0.18785 0.69467 0.0
C173 C 0.82049 0.18199 0.70523 0.0
C174 C 0.81081 0.15553 0.70851 0.0
N175 N 0.78218 0.10397 0.71936 0.0
C176 C 0.80213 0.1192 0.72509 0.0
C177 C 0.80382 0.11248 0.73691 0.0
C178 C 0.78378 0.0916 0.73868 0.0
C179 C 0.77096 0.08673 0.7278 0.0
N180 N 0.80935 0.08781 0.69848 0.0
C181 C 0.86426 0.0646 0.69545 0.0
C182 C 0.84529 0.05332 0.70381 0.0
C183 C 0.81811 0.06507 0.70514 0.0
C184 C 0.8545 0.08696 0.68824 0.0
C185 C 0.82706 0.09821 0.68988 0.0
N186 N 0.73704 0.12581 0.70632 0.0
C187 C 0.71203 0.15897 0.71887 0.0
C188 C 0.68567 0.14851 0.71503 0.0
C189 C 0.68566 0.12703 0.70636 0.0
C190 C 0.71154 0.11618 0.70204 0.0
C191 C 0.73726 0.1474 0.71445 0.0
H192 H 0.71094 0.09944 0.6955 0.0
H193 H 0.75699 0.1553 0.718 0.0
H194 H 0.80448 0.05615 0.71185 0.0
H195 H 0.82055 0.11591 0.68442 0.0
C196 C 0.75029 0.06079 0.68289 0.0
C197 C 0.74963 0.0644 0.7256 0.0
C198 C 0.77469 0.16091 0.68078 0.0
C199 C 0.81526 0.14244 0.71952 0.0
H200 H 0.72428 0.01298 0.71617 0.0
H201 H 0.7271 1.00955 0.69274 0.0
H202 H 0.74593 0.08187 0.65918 0.0
H203 H 0.75704 0.13723 0.65831 0.0
H204 H 0.81001 0.20709 0.68952 0.0
H205 H 0.83468 0.19582 0.71013 0.0
H206 H 0.81726 0.12227 0.74355 0.0
H207 H 0.77921 0.08108 0.74699 0.0
H208 H 0.85145 0.03562 0.7094 0.0
H209 H 0.86827 0.09645 0.68164 0.0
H210 H 0.71328 0.17528 0.72564 0.0
H211 H 0.66582 0.11851 0.703 0.0
C212 C 0.16181 0.2895 0.94203 0.0
C213 C 0.18456 0.30753 0.94435 0.0
C214 C 0.17861 0.32111 0.95482 0.0
C215 C 0.15261 0.31075 0.95831 0.0
N216 N 0.14197 0.29125 0.95076 0.0
Co217 Co 0.1043 0.27226 0.95234 0.0
N218 N 0.1011 0.28258 0.96935 0.0
C219 C 0.11614 0.303 0.97489 0.0
C220 C 0.10921 0.30551 0.98666 0.0
C221 C 0.08839 0.2855 0.9886 0.0
C222 C 0.08376 0.2719 0.97787 0.0
N223 N 0.0666 0.25341 0.95384 0.0
C224 C 0.05233 0.24499 0.96365 0.0
C225 C 0.02643 0.23264 0.96067 0.0
C226 C 0.0245 0.23349 0.94857 0.0
C227 C 0.0492 0.24627 0.94485 0.0
N228 N 0.1073 0.26191 0.93531 0.0
C229 C 0.08568 0.25311 0.92837 0.0
C230 C 0.09399 0.24684 0.91704 0.0
C231 C 0.12257 0.25238 0.91674 0.0
C232 C 0.1301 0.26213 0.92793 0.0
N233 N 0.1232 0.23652 0.9569 0.0
C234 C 0.14595 0.18554 0.96608 0.0
C235 C 0.12473 0.18508 0.95731 0.0
C236 C 0.11383 0.21075 0.95277 0.0
C237 C 0.15614 0.21216 0.96979 0.0
C238 C 0.14453 0.2372 0.96514 0.0
N239 N 0.08533 0.30837 0.9481 0.0
C240 C 0.08502 0.35311 0.93749 0.0
C241 C 0.06199 0.36301 0.94426 0.0
C242 C 0.05029 0.34442 0.95267 0.0
C243 C 0.06221 0.31739 0.95445 0.0
C244 C 0.09617 0.32574 0.93947 0.0
H245 H 0.05314 0.30416 0.96127 0.0
H246 H 0.11404 0.31896 0.93419 0.0
H247 H 0.09729 0.20975 0.94617 0.0
H248 H 0.15224 0.25718 0.96855 0.0
C249 C 0.13933 0.31593 0.96922 0.0
C250 C 0.15842 0.27357 0.93088 0.0
C251 C 0.06158 0.25033 0.97586 0.0
C252 C 0.05896 0.24715 0.93319 0.0
H253 H 0.20322 0.31097 0.93893 0.0
H254 H 0.19192 0.33632 0.95943 0.0
H255 H 0.11881 0.31947 0.99315 0.0
H256 H 0.07775 0.28148 0.99693 0.0
H257 H 0.01054 0.22402 0.96661 0.0
H258 H 1.00765 0.22476 0.94314 0.0
H259 H 0.08104 0.23838 0.90993 0.0
H260 H 0.13617 0.24973 0.90909 0.0
H261 H 0.11644 0.16505 0.95403 0.0
H262 H 0.17226 0.21376 0.97662 0.0
H263 H 0.0945 0.36646 0.93074 0.0
H264 H 0.03264 0.35103 0.95819 0.0
C265 C 0.2458 0.96588 0.05172 0.0
C266 C 0.23368 0.99175 0.05495 0.0
C267 C 0.23483 0.99311 0.06706 0.0
C268 C 0.24757 0.96814 0.07054 0.0
N269 N 0.25439 0.95111 0.06139 0.0
Co270 Co 0.27339 0.9134 0.06253 0.0
N271 N 0.26313 0.90947 0.07952 0.0
C272 C 0.25538 0.93098 0.08673 0.0
C273 C 0.25072 0.92241 0.09817 0.0
C274 C 0.25612 0.89374 0.09822 0.0
C275 C 0.26374 0.88633 0.08673 0.0
N276 N 0.29246 0.87562 0.06377 0.0
C277 C 0.29042 0.85513 0.07225 0.0
C278 C 0.30759 0.83197 0.06948 0.0
C279 C 0.32131 0.83858 0.05912 0.0
C280 C 0.31167 0.86521 0.05606 0.0
N281 N 0.28376 0.91766 0.04557 0.0
C282 C 0.30414 0.90289 0.03988 0.0
C283 C 0.30641 0.91032 0.02816 0.0
C284 C 0.28631 0.93116 0.0264 0.0
C285 C 0.27291 0.93538 0.0372 0.0
N286 N 0.3094 0.93224 0.06695 0.0
C287 C 0.36414 0.95515 0.0708 0.0
C288 C 0.34538 0.96749 0.0626 0.0
C289 C 0.3183 0.95579 0.06082 0.0
C290 C 0.35431 0.93175 0.07739 0.0
C291 C 0.3269 0.92081 0.07541 0.0
N292 N 0.2378 0.89464 0.05776 0.0
C293 C 0.21372 0.86394 0.04389 0.0
C294 C 0.18712 0.87341 0.04785 0.0
C295 C 0.18642 0.89264 0.05738 0.0
C296 C 0.21202 0.90308 0.06218 0.0
C297 C 0.23861 0.87457 0.04899 0.0
H298 H 0.21097 0.91869 0.06919 0.0
H299 H 0.25858 0.86724 0.04547 0.0
H300 H 0.30496 0.96533 0.05415 0.0
H301 H 0.32022 0.90258 0.08051 0.0
C302 C 0.24924 0.95799 0.08215 0.0
C303 C 0.25112 0.95729 0.03942 0.0
C304 C 0.27423 0.8579 0.08338 0.0
C305 C 0.31688 0.87919 0.04529 0.0
H306 H 0.22518 1.00808 0.04917 0.0
H307 H 0.22649 1.00987 0.07266 0.0
H308 H 0.24371 0.93534 0.10555 0.0
H309 H 0.25519 0.88003 0.10592 0.0
H310 H 0.31016 0.81244 0.07446 0.0
H311 H 0.3359 0.82516 0.05423 0.0
H312 H 0.32017 0.90089 0.02155 0.0
H313 H 0.28202 0.94196 0.01812 0.0
H314 H 0.35191 0.98544 0.05723 0.0
H315 H 0.36776 0.92176 0.08398 0.0
H316 H 0.21534 0.84864 0.03674 0.0
H317 H 0.16632 0.90045 0.06077 0.0
C318 C 0.85545 0.72791 0.94264 0.0
C319 C 0.83197 0.71109 0.94526 0.0
C320 C 0.8379 0.69735 0.9557 0.0
C321 C 0.86448 0.70663 0.95895 0.0
N322 N 0.8755 0.72561 0.95127 0.0
Co323 Co 0.9134 0.74421 0.95279 0.0
N324 N 0.9166 0.73426 0.96984 0.0
C325 C 0.90097 0.71453 0.97553 0.0
C326 C 0.90723 0.71293 0.98739 0.0
C327 C 0.92825 0.73276 0.98924 0.0
C328 C 0.93388 0.74525 0.97835 0.0
N329 N 0.95134 0.76251 0.95417 0.0
C330 C 0.96602 0.77076 0.96391 0.0
C331 C 0.99246 0.78171 0.9608 0.0
C332 C 0.99421 0.78031 0.94871 0.0
C333 C 0.96894 0.7685 0.94511 0.0
N334 N 0.91037 0.75428 0.93575 0.0
C335 C 0.93227 0.76152 0.92868 0.0
C336 C 0.92423 0.76633 0.91718 0.0
C337 C 0.89549 0.76158 0.91695 0.0
C338 C 0.88753 0.75416 0.92839 0.0
N339 N 0.89498 0.78026 0.95726 0.0
C340 C 0.87353 0.83137 0.96688 0.0
C341 C 0.89476 0.83172 0.9581 0.0
C342 C 0.90503 0.80597 0.95336 0.0
C343 C 0.86226 0.80484 0.97013 0.0
C344 C 0.8733 0.77977 0.96533 0.0
N345 N 0.93186 0.70778 0.94866 0.0
C346 C 0.93179 0.66306 0.93804 0.0
C347 C 0.95472 0.65293 0.94483 0.0
C348 C 0.96651 0.67138 0.95328 0.0
C349 C 0.95483 0.6985 0.95506 0.0
C350 C 0.92086 0.69051 0.94002 0.0
H351 H 0.96398 0.71163 0.96189 0.0
H352 H 0.90304 0.69746 0.93474 0.0
H353 H 0.92182 0.8068 0.94685 0.0
H354 H 0.86484 0.75991 0.96851 0.0
C355 C 0.8776 0.70179 0.96992 0.0
C356 C 0.85885 0.74418 0.93155 0.0
C357 C 0.95673 0.76617 0.97619 0.0
C358 C 0.95921 0.76696 0.93344 0.0
H359 H 0.81259 0.70884 0.94017 0.0
H360 H 0.82402 0.68313 0.96055 0.0
H361 H 0.89691 0.69986 0.99401 0.0
H362 H 0.93815 0.73746 0.99766 0.0
H363 H 1.00896 0.78955 0.96664 0.0
H364 H 0.01148 0.78782 0.9432 0.0
H365 H 0.93756 0.77299 0.90987 0.0
H366 H 0.88208 0.76278 0.90917 0.0
H367 H 0.90418 0.8516 0.95522 0.0
H368 H 0.84525 0.80324 0.97656 0.0
H369 H 0.92222 0.64984 0.93127 0.0
H370 H 0.98407 0.66458 0.95882 0.0
C371 C 0.7716 0.05217 0.05046 0.0
C372 C 0.78411 0.02623 0.05333 0.0
C373 C 0.78349 0.02411 0.06542 0.0
C374 C 0.77068 0.04874 0.06925 0.0
N375 N 0.76329 0.06626 0.06033 0.0
Co376 Co 0.74435 0.10392 0.06198 0.0
N377 N 0.75517 0.10683 0.07896 0.0
C378 C 0.76422 0.08515 0.08582 0.0
C379 C 0.77071 0.09341 0.09715 0.0
C380 C 0.76507 0.12202 0.09751 0.0
C381 C 0.75505 0.12962 0.08637 0.0
N382 N 0.7252 0.14153 0.0637 0.0
C383 C 0.72712 0.16135 0.07244 0.0
C384 C 0.7089 0.18406 0.07025 0.0
C385 C 0.69501 0.17808 0.05985 0.0
C386 C 0.7054 0.15212 0.05627 0.0
N387 N 0.73361 0.10084 0.04502 0.0
C388 C 0.71297 0.11582 0.03959 0.0
C389 C 0.71031 0.10904 0.0278 0.0
C390 C 0.73046 0.0884 0.02573 0.0
C391 C 0.74429 0.08372 0.03641 0.0
N392 N 0.7085 0.08475 0.06635 0.0
C393 C 0.65403 0.06137 0.07032 0.0
C394 C 0.67241 0.04976 0.06181 0.0
C395 C 0.69935 0.06169 0.05997 0.0
C396 C 0.6641 0.08429 0.07713 0.0
C397 C 0.69138 0.09546 0.07509 0.0
N398 N 0.7798 0.12303 0.05727 0.0
C399 C 0.80335 0.15607 0.0442 0.0
C400 C 0.83016 0.1453 0.04737 0.0
C401 C 0.83112 0.12413 0.05618 0.0
C402 C 0.80576 0.11345 0.06106 0.0
C403 C 0.77866 0.14464 0.04916 0.0
H404 H 0.80714 0.09671 0.06759 0.0
H405 H 0.75853 0.15272 0.04608 0.0
H406 H 0.71242 0.05272 0.05307 0.0
H407 H 0.69827 0.11327 0.08039 0.0
C408 C 0.7701 0.05842 0.08094 0.0
C409 C 0.76614 0.06174 0.0383 0.0
C410 C 0.74346 0.15796 0.08349 0.0
C411 C 0.70002 0.13889 0.04535 0.0
H412 H 0.79273 0.01047 0.04732 0.0
H413 H 0.79243 1.0072 0.07078 0.0
H414 H 0.77935 0.0804 0.1042 0.0
H415 H 0.76781 0.1356 0.10517 0.0
H416 H 0.70556 0.2027 0.07572 0.0
H417 H 0.67962 0.19137 0.05534 0.0
H418 H 0.69617 0.11865 0.02137 0.0
H419 H 0.73444 0.07792 0.01736 0.0
H420 H 0.66567 0.0322 0.05626 0.0
H421 H 0.65095 0.09369 0.08396 0.0
H422 H 0.80128 0.173 0.03774 0.0
H423 H 0.8512 0.11503 0.05899 0.0
C424 C 0.66293 0.72933 0.82213 0.0
C425 C 0.68615 0.71215 0.81949 0.0
C426 C 0.67999 0.69856 0.80904 0.0
C427 C 0.65355 0.70829 0.8058 0.0
N428 N 0.64283 0.72741 0.8135 0.0
Co429 Co 0.60523 0.74663 0.81201 0.0
N430 N 0.60191 0.73685 0.79495 0.0
C431 C 0.61706 0.71674 0.78927 0.0
C432 C 0.6103 0.71487 0.77746 0.0
C433 C 0.58948 0.73495 0.77564 0.0
C434 C 0.58457 0.74792 0.78649 0.0
N435 N 0.56756 0.76555 0.81065 0.0
C436 C 0.55311 0.77425 0.80092 0.0
C437 C 0.52704 0.78605 0.80402 0.0
C438 C 0.52521 0.78459 0.81612 0.0
C439 C 0.55011 0.77198 0.81971 0.0
N440 N 0.6084 0.75651 0.82906 0.0
C441 C 0.58662 0.76409 0.83614 0.0
C442 C 0.59475 0.76867 0.84765 0.0
C443 C 0.62342 0.76342 0.84787 0.0
C444 C 0.63125 0.75595 0.83642 0.0
N445 N 0.62414 0.78244 0.80757 0.0
C446 C 0.64566 0.8333 0.79777 0.0
C447 C 0.62463 0.83388 0.80663 0.0
C448 C 0.61434 0.80825 0.81147 0.0
C449 C 0.65679 0.80665 0.79456 0.0
C450 C 0.64572 0.78171 0.79946 0.0
N451 N 0.58624 0.71045 0.81608 0.0
C452 C 0.58564 0.66548 0.82653 0.0
C453 C 0.5632 0.65552 0.81943 0.0
C454 C 0.55172 0.67432 0.81104 0.0
C455 C 0.56339 0.70151 0.80953 0.0
C456 C 0.5968 0.69293 0.82473 0.0
H457 H 0.55434 0.71497 0.80278 0.0
H458 H 0.61457 0.6996 0.8301 0.0
H459 H 0.59767 0.80928 0.81802 0.0
H460 H 0.65399 0.76173 0.79629 0.0
C461 C 0.64028 0.70361 0.79485 0.0
C462 C 0.65979 0.74561 0.83322 0.0
C463 C 0.56222 0.76932 0.78865 0.0
C464 C 0.55981 0.77015 0.83139 0.0
H465 H 0.70549 0.70955 0.82457 0.0
H466 H 0.69363 0.68411 0.80419 0.0
H467 H 0.62008 0.70133 0.77085 0.0
H468 H 0.57908 0.73945 0.76729 0.0
H469 H 0.51087 0.79453 0.79817 0.0
H470 H 0.50818 0.79264 0.82163 0.0
H471 H 0.58156 0.77555 0.85496 0.0
H472 H 0.63686 0.76435 0.85564 0.0
H473 H 0.61532 0.85383 0.80948 0.0
H474 H 0.67367 0.80487 0.78808 0.0
H475 H 0.59528 0.65184 0.83315 0.0
H476 H 0.53394 0.66802 0.80553 0.0
C477 C 0.76959 0.46523 0.21489 0.0
C478 C 0.78118 0.49176 0.21231 0.0
C479 C 0.78063 0.49456 0.20024 0.0
C480 C 0.76873 0.46975 0.19614 0.0
N481 N 0.76183 0.45147 0.20485 0.0
Co482 Co 0.74371 0.41356 0.20275 0.0
N483 N 0.75457 0.41202 0.18574 0.0
C484 C 0.76318 0.43433 0.17915 0.0
C485 C 0.76991 0.42696 0.16774 0.0
C486 C 0.76489 0.39828 0.16704 0.0
C487 C 0.75495 0.38974 0.17807 0.0
N488 N 0.72531 0.37573 0.20056 0.0
C489 C 0.72755 0.3566 0.19157 0.0
C490 C 0.70978 0.33341 0.19348 0.0
C491 C 0.69589 0.33834 0.20396 0.0
C492 C 0.7058 0.3642 0.20786 0.0
N493 N 0.73296 0.41522 0.21976 0.0
C494 C 0.7128 0.3993 0.22502 0.0
C495 C 0.71015 0.40502 0.23689 0.0
C496 C 0.72976 0.42599 0.23922 0.0
C497 C 0.74324 0.43199 0.22858 0.0
N498 N 0.7075 0.43235 0.1986 0.0
C499 C 0.65284 0.45553 0.1946 0.0
C500 C 0.67049 0.46593 0.20365 0.0
C501 C 0.69759 0.4543 0.20543 0.0
C502 C 0.66381 0.43384 0.18732 0.0
C503 C 0.69105 0.42261 0.18945 0.0
N504 N 0.77957 0.39483 0.20722 0.0
C505 C 0.80409 0.36112 0.21973 0.0
C506 C 0.8306 0.37203 0.21629 0.0
C507 C 0.83094 0.39405 0.20786 0.0
C508 C 0.80525 0.40497 0.20337 0.0
C509 C 0.77902 0.37275 0.21513 0.0
H510 H 0.80615 0.42213 0.19703 0.0
H511 H 0.75912 0.36442 0.21832 0.0
H512 H 0.71017 0.46261 0.21262 0.0
H513 H 0.69849 0.40559 0.18384 0.0
C514 C 0.7684 0.46085 0.18434 0.0
C515 C 0.76431 0.45484 0.22694 0.0
C516 C 0.74383 0.36102 0.18059 0.0
C517 C 0.7003 0.37644 0.21896 0.0
H518 H 0.78904 0.50752 0.21849 0.0
H519 H 0.78896 0.51211 0.19507 0.0
H520 H 0.7783 0.44061 0.16085 0.0
H521 H 0.76795 0.38528 0.15924 0.0
H522 H 0.70676 0.31511 0.18779 0.0
H523 H 0.68081 0.32442 0.20832 0.0
H524 H 0.69638 0.39451 0.24321 0.0
H525 H 0.7336 0.43577 0.24774 0.0
H526 H 0.6632 0.48238 0.20965 0.0
H527 H 0.65145 0.42539 0.18003 0.0
H528 H 0.80256 0.34438 0.22629 0.0
H529 H 0.85088 0.40293 0.20479 0.0
C530 C 0.35871 0.29064 0.82321 0.0
C531 C 0.33568 0.30846 0.82103 0.0
C532 C 0.34096 0.32185 0.81046 0.0
C533 C 0.36685 0.3116 0.80677 0.0
N534 N 0.37807 0.29237 0.8143 0.0
Co535 Co 0.4158 0.27361 0.81245 0.0
N536 N 0.41794 0.28344 0.79535 0.0
C537 C 0.40225 0.30344 0.78984 0.0
C538 C 0.40822 0.30542 0.77797 0.0
C539 C 0.42912 0.28555 0.77592 0.0
C540 C 0.43486 0.2726 0.7867 0.0
N541 N 0.45359 0.25507 0.81069 0.0
C542 C 0.46756 0.24667 0.80079 0.0
C543 C 0.49392 0.23506 0.80362 0.0
C544 C 0.49639 0.23623 0.81569 0.0
C545 C 0.47158 0.24853 0.81955 0.0
N546 N 0.41379 0.26371 0.82955 0.0
C547 C 0.43587 0.25535 0.83633 0.0
C548 C 0.4282 0.24927 0.84777 0.0
C549 C 0.39957 0.25444 0.84829 0.0
C550 C 0.39135 0.26382 0.83712 0.0
N551 N 0.39699 0.2376 0.80824 0.0
C552 C 0.37433 0.18624 0.79945 0.0
C553 C 0.3961 0.18615 0.80798 0.0
C554 C 0.40694 0.21202 0.81234 0.0
C555 C 0.36354 0.21267 0.7958 0.0
C556 C 0.3751 0.23791 0.80026 0.0
N557 N 0.43465 0.30999 0.81632 0.0
C558 C 0.43551 0.35485 0.82684 0.0
C559 C 0.45735 0.36512 0.8195 0.0
C560 C 0.46843 0.34653 0.81095 0.0
C561 C 0.45695 0.31923 0.80954 0.0
C562 C 0.42452 0.32731 0.82512 0.0
H563 H 0.46568 0.30592 0.80267 0.0
H564 H 0.40722 0.3204 0.83069 0.0
H565 H 0.42392 0.21131 0.81876 0.0
H566 H 0.36692 0.25774 0.79687 0.0
C567 C 0.37935 0.31643 0.79568 0.0
C568 C 0.36274 0.2748 0.83435 0.0
C569 C 0.45764 0.25153 0.78863 0.0
C570 C 0.46242 0.24963 0.8313 0.0
H571 H 0.31726 0.31183 0.82661 0.0
H572 H 0.32723 0.33679 0.8059 0.0
H573 H 0.39792 0.31892 0.77148 0.0
H574 H 0.43904 0.28121 0.76746 0.0
H575 H 0.50982 0.2268 0.7976 0.0
H576 H 0.51374 0.22811 0.82102 0.0
H577 H 0.44163 0.24116 0.8548 0.0
H578 H 0.38639 0.25182 0.85606 0.0
H579 H 0.40488 0.16626 0.81121 0.0
H580 H 0.34697 0.21399 0.78915 0.0
H581 H 0.42619 0.36832 0.83359 0.0
H582 H 0.48575 0.35309 0.80524 0.0
C583 C 0.24425 0.55467 0.21473 0.0
C584 C 0.23138 0.52909 0.21159 0.0
C585 C 0.23206 0.52761 0.19949 0.0
C586 C 0.2453 0.55219 0.19591 0.0
N587 N 0.25285 0.56917 0.20499 0.0
Co588 Co 0.27325 0.6061 0.20361 0.0
N589 N 0.26288 0.60994 0.18662 0.0
C590 C 0.25421 0.58856 0.17953 0.0
C591 C 0.24958 0.59702 0.16807 0.0
C592 C 0.25594 0.62549 0.16788 0.0
C593 C 0.26406 0.63288 0.17931 0.0
N594 N 0.29383 0.643 0.20209 0.0
C595 C 0.29233 0.66334 0.19352 0.0
C596 C 0.31042 0.68588 0.19612 0.0
C597 C 0.32412 0.67903 0.20647 0.0
C598 C 0.31357 0.65288 0.20969 0.0
N599 N 0.2836 0.60202 0.2206 0.0
C600 C 0.3045 0.61632 0.22617 0.0
C601 C 0.30676 0.60918 0.23793 0.0
C602 C 0.28615 0.58896 0.23983 0.0
C603 C 0.27248 0.58475 0.22908 0.0
N604 N 0.30844 0.58571 0.19925 0.0
C605 C 0.36264 0.5614 0.19568 0.0
C606 C 0.34389 0.55038 0.20417 0.0
C607 C 0.31699 0.56261 0.20575 0.0
C608 C 0.35295 0.58395 0.18856 0.0
C609 C 0.32588 0.59578 0.19048 0.0
N610 N 0.23856 0.62657 0.2083 0.0
C611 C 0.21629 0.66073 0.22127 0.0
C612 C 0.18915 0.65277 0.21734 0.0
C613 C 0.18742 0.63176 0.20847 0.0
C614 C 0.21236 0.61904 0.20404 0.0
C615 C 0.24049 0.64756 0.21666 0.0
H616 H 0.21045 0.6027 0.19736 0.0
H617 H 0.2608 0.65388 0.22018 0.0
H618 H 0.30352 0.55387 0.21255 0.0
H619 H 0.31952 0.61374 0.18514 0.0
C620 C 0.24716 0.56196 0.18426 0.0
C621 C 0.25043 0.56298 0.22701 0.0
C622 C 0.27553 0.66101 0.18252 0.0
C623 C 0.31819 0.6392 0.22057 0.0
H624 H 0.22281 0.51293 0.21742 0.0
H625 H 0.22324 0.51096 0.19396 0.0
H626 H 0.24193 0.58419 0.16077 0.0
H627 H 0.25528 0.63906 0.16014 0.0
H628 H 0.31352 0.70522 0.19107 0.0
H629 H 0.33922 0.69206 0.21127 0.0
H630 H 0.32097 0.6183 0.24445 0.0
H631 H 0.28179 0.57845 0.24816 0.0
H632 H 0.35008 0.53256 0.20971 0.0
H633 H 0.3666 0.59318 0.18185 0.0
H634 H 0.21898 0.6764 0.22822 0.0
H635 H 0.16701 0.62508 0.205 0.0
C636 C 0.66361 0.79712 0.44422 0.0
C637 C 0.68656 0.81441 0.44712 0.0
C638 C 0.67986 0.82764 0.45758 0.0
C639 C 0.65338 0.8176 0.46057 0.0
N640 N 0.64314 0.79861 0.45271 0.0
Co641 Co 0.60558 0.77917 0.4538 0.0
N642 N 0.6013 0.7887 0.47085 0.0
C643 C 0.61607 0.80878 0.47673 0.0
C644 C 0.6087 0.81046 0.48847 0.0
C645 C 0.58787 0.7903 0.49005 0.0
C646 C 0.58358 0.77747 0.47912 0.0
N647 N 0.56798 0.75999 0.45477 0.0
C648 C 0.55307 0.75111 0.46435 0.0
C649 C 0.52727 0.73914 0.46097 0.0
C650 C 0.52609 0.74067 0.44887 0.0
C651 C 0.55107 0.75349 0.44554 0.0
N652 N 0.60968 0.76955 0.43675 0.0
C653 C 0.58832 0.76181 0.42946 0.0
C654 C 0.59701 0.7575 0.41802 0.0
C655 C 0.6256 0.76312 0.41804 0.0
C656 C 0.63283 0.77052 0.42957 0.0
N657 N 0.62454 0.74337 0.45832 0.0
C658 C 0.64646 0.69236 0.46792 0.0
C659 C 0.62587 0.69189 0.45887 0.0
C660 C 0.61535 0.71759 0.45415 0.0
C661 C 0.65685 0.71904 0.47149 0.0
C662 C 0.6456 0.74405 0.46667 0.0
N663 N 0.58654 0.81533 0.44963 0.0
C664 C 0.58617 0.86031 0.43917 0.0
C665 C 0.56286 0.86995 0.44587 0.0
C666 C 0.55113 0.85106 0.45417 0.0
C667 C 0.56316 0.82405 0.45588 0.0
C668 C 0.59753 0.83301 0.44114 0.0
H669 H 0.55394 0.81056 0.46258 0.0
H670 H 0.61568 0.82651 0.43596 0.0
H671 H 0.59905 0.7166 0.44743 0.0
H672 H 0.65339 0.764 0.47006 0.0
C673 C 0.63953 0.82204 0.47141 0.0
C674 C 0.66107 0.78125 0.433 0.0
C675 C 0.56146 0.756 0.47671 0.0
C676 C 0.56135 0.75548 0.43396 0.0
H677 H 0.70605 0.81735 0.44218 0.0
H678 H 0.69314 0.8421 0.4626 0.0
H679 H 0.61809 0.82394 0.4952 0.0
H680 H 0.57707 0.78565 0.49828 0.0
H681 H 0.51087 0.7305 0.46666 0.0
H682 H 0.50942 0.73254 0.44318 0.0
H683 H 0.58421 0.7506 0.41058 0.0
H684 H 0.63936 0.76249 0.41037 0.0
H685 H 0.61712 0.67193 0.45574 0.0
H686 H 0.67334 0.72077 0.47815 0.0
H687 H 0.59572 0.87379 0.43249 0.0
H688 H 0.53332 0.85739 0.45965 0.0
C689 C 0.74535 0.46546 0.55022 0.0
C690 C 0.73167 0.49057 0.55341 0.0
C691 C 0.73188 0.49165 0.56553 0.0
C692 C 0.74559 0.46725 0.56906 0.0
N693 N 0.75388 0.4508 0.55993 0.0
Co694 Co 0.77459 0.414 0.56118 0.0
N695 N 0.76343 0.40925 0.57803 0.0
C696 C 0.75418 0.43021 0.58522 0.0
C697 C 0.74911 0.42114 0.59656 0.0
C698 C 0.75579 0.39274 0.59657 0.0
C699 C 0.76452 0.38598 0.58515 0.0
N700 N 0.79541 0.37719 0.56255 0.0
C701 C 0.79368 0.3564 0.57092 0.0
C702 C 0.81215 0.33418 0.56831 0.0
C703 C 0.82635 0.34169 0.55816 0.0
C704 C 0.81568 0.36791 0.55506 0.0
N705 N 0.78577 0.41902 0.54435 0.0
C706 C 0.80723 0.40538 0.53887 0.0
C707 C 0.81015 0.41337 0.52723 0.0
C708 C 0.78933 0.43342 0.52531 0.0
C709 C 0.77484 0.43658 0.53593 0.0
N710 N 0.80937 0.43443 0.56604 0.0
C711 C 0.86322 0.45895 0.57026 0.0
C712 C 0.84436 0.47085 0.56199 0.0
C713 C 0.81771 0.45835 0.56003 0.0
C714 C 0.85383 0.43529 0.57679 0.0
C715 C 0.82685 0.42356 0.57463 0.0
N716 N 0.74032 0.39352 0.55598 0.0
C717 C 0.71907 0.36026 0.54234 0.0
C718 C 0.69165 0.36849 0.5458 0.0
C719 C 0.6892 0.38861 0.55498 0.0
C720 C 0.71379 0.40083 0.55996 0.0
C721 C 0.7429 0.37294 0.54748 0.0
H722 H 0.71136 0.41679 0.56676 0.0
H723 H 0.76348 0.36661 0.54426 0.0
H724 H 0.80432 0.46751 0.55328 0.0
H725 H 0.82056 0.40508 0.57967 0.0
C726 C 0.747 0.45695 0.58065 0.0
C727 C 0.75211 0.45761 0.53796 0.0
C728 C 0.77637 0.3581 0.5818 0.0
C729 C 0.82085 0.38229 0.54438 0.0
H730 H 0.72278 0.50661 0.54759 0.0
H731 H 0.72232 0.50782 0.57108 0.0
H732 H 0.74096 0.43354 0.6039 0.0
H733 H 0.75489 0.37879 0.60419 0.0
H734 H 0.81524 0.31465 0.57324 0.0
H735 H 0.84189 0.32908 0.55341 0.0
H736 H 0.82494 0.40492 0.52078 0.0
H737 H 0.78535 0.44452 0.51708 0.0
H738 H 0.85055 0.48902 0.55667 0.0
H739 H 0.86735 0.42565 0.58345 0.0
H740 H 0.72222 0.34429 0.53554 0.0
H741 H 0.66849 0.39564 0.558 0.0
C742 C 0.35419 0.2333 0.44186 0.0
C743 C 0.32709 0.22516 0.44538 0.0
C744 C 0.32709 0.22514 0.4575 0.0
C745 C 0.35405 0.23328 0.4607 0.0
N746 N 0.37127 0.23817 0.45139 0.0
Co747 Co 0.41169 0.2514 0.45232 0.0
N748 N 0.41436 0.24259 0.4696 0.0
C749 C 0.39222 0.2369 0.4768 0.0
C750 C 0.40007 0.2324 0.48835 0.0
C751 C 0.42896 0.23593 0.48853 0.0
C752 C 0.43713 0.24256 0.47705 0.0
N753 N 0.4521 0.26462 0.45315 0.0
C754 C 0.4718 0.26214 0.46192 0.0
C755 C 0.49727 0.27508 0.45871 0.0
C756 C 0.49332 0.28634 0.44769 0.0
C757 C 0.46582 0.27973 0.44477 0.0
N758 N 0.40891 0.2605 0.43507 0.0
C759 C 0.42766 0.27613 0.4288 0.0
C760 C 0.42068 0.27874 0.41707 0.0
C761 C 0.39576 0.26412 0.41581 0.0
C762 C 0.38874 0.25359 0.42693 0.0
N763 N 0.39843 0.29016 0.45634 0.0
C764 C 0.37593 0.34218 0.46466 0.0
C765 C 0.40103 0.33081 0.46939 0.0
C766 C 0.41183 0.30507 0.46514 0.0
C767 C 0.36292 0.32742 0.45529 0.0
C768 C 0.37463 0.30166 0.4512 0.0
N769 N 0.42493 0.21249 0.44863 0.0
C770 C 0.45773 0.18039 0.43892 0.0
C771 C 0.4468 0.15697 0.44521 0.0
C772 C 0.42417 0.16208 0.45302 0.0
C773 C 0.41361 0.18974 0.45457 0.0
C774 C 0.44648 0.20782 0.44071 0.0
H775 H 0.39662 0.19267 0.46082 0.0
H776 H 0.45556 0.22529 0.43582 0.0
H777 H 0.43061 0.29692 0.46934 0.0
H778 H 0.36396 0.29076 0.44407 0.0
C779 C 0.3648 0.23361 0.47223 0.0
C780 C 0.36175 0.23905 0.42946 0.0
C781 C 0.46611 0.25171 0.47395 0.0
C782 C 0.45319 0.28495 0.43384 0.0
H783 H 0.30904 0.22032 0.43978 0.0
H784 H 0.30961 0.21947 0.46327 0.0
H785 H 0.38645 0.22699 0.49574 0.0
H786 H 0.44243 0.23456 0.49629 0.0
H787 H 0.51649 0.27708 0.46392 0.0
H788 H 0.50875 0.2978 0.4424 0.0
H789 H 0.43269 0.28935 0.41018 0.0
H790 H 0.38397 0.26172 0.40764 0.0
H791 H 0.41182 0.34109 0.47671 0.0
H792 H 0.34372 0.33557 0.4512 0.0
H793 H 0.47489 0.17762 0.43262 0.0
H794 H 0.41509 0.14497 0.45822 0.0
C795 C 0.26981 0.55733 0.55045 0.0
C796 C 0.28146 0.53111 0.55351 0.0
C797 C 0.28014 0.5292 0.5656 0.0
C798 C 0.26778 0.55421 0.56925 0.0
N799 N 0.26138 0.5718 0.56022 0.0
Co800 Co 0.24287 0.6097 0.56162 0.0
N801 N 0.25293 0.61264 0.57866 0.0
C802 C 0.26029 0.59069 0.58572 0.0
C803 C 0.26503 0.59871 0.59723 0.0
C804 C 0.26012 0.62748 0.59747 0.0
C805 C 0.25269 0.63548 0.58603 0.0
N806 N 0.22419 0.6476 0.56314 0.0
C807 C 0.22651 0.66768 0.57177 0.0
C808 C 0.20967 0.6912 0.56916 0.0
C809 C 0.1959 0.68526 0.55874 0.0
C810 C 0.20517 0.65863 0.55548 0.0
N811 N 0.23278 0.60654 0.54459 0.0
C812 C 0.21273 0.6219 0.53896 0.0
C813 C 0.21051 0.6151 0.52717 0.0
C814 C 0.23029 0.59401 0.5253 0.0
C815 C 0.24344 0.58904 0.53611 0.0
N816 N 0.2066 0.59104 0.56576 0.0
C817 C 0.15209 0.56765 0.56962 0.0
C818 C 0.17069 0.55585 0.56124 0.0
C819 C 0.19763 0.56781 0.55944 0.0
C820 C 0.16187 0.5909 0.57631 0.0
C821 C 0.18918 0.60208 0.57432 0.0
N822 N 0.27879 0.62829 0.55716 0.0
C823 C 0.30349 0.66133 0.54445 0.0
C824 C 0.32995 0.65093 0.54822 0.0
C825 C 0.33018 0.62945 0.55689 0.0
C826 C 0.3044 0.61864 0.56133 0.0
C827 C 0.27836 0.64977 0.54897 0.0
H828 H 0.30517 0.60197 0.5679 0.0
H829 H 0.25854 0.65766 0.54551 0.0
H830 H 0.21087 0.55863 0.55266 0.0
H831 H 0.1959 0.62009 0.57955 0.0
C832 C 0.2661 0.56382 0.58094 0.0
C833 C 0.26471 0.56656 0.53821 0.0
C834 C 0.24277 0.66422 0.58285 0.0
C835 C 0.20007 0.64538 0.54455 0.0
H836 H 0.28972 0.5149 0.54762 0.0
H837 H 0.28811 0.51203 0.57109 0.0
H838 H 0.27182 0.58538 0.60452 0.0
H839 H 0.26128 0.64088 0.60526 0.0
H840 H 0.20741 0.71058 0.57426 0.0
H841 H 0.18159 0.69914 0.55391 0.0
H842 H 0.19695 0.62501 0.52061 0.0
H843 H 0.23448 0.5835 0.51696 0.0
H844 H 0.16415 0.53806 0.55577 0.0
H845 H 0.14849 0.6005 0.58302 0.0
H846 H 0.30208 0.67764 0.53768 0.0
H847 H 0.3501 0.62096 0.56019 0.0
H848 H 0.20217 0.34306 0.29212 0.0
H849 H 0.21931 0.38536 0.2817 0.0
H850 H 0.13429 0.41996 0.28153 0.0
H851 H 0.11698 0.37766 0.29201 0.0
H852 H 0.20396 0.40346 0.25983 0.0
H853 H 0.17963 0.48854 0.29236 0.0
H854 H 0.17914 0.4512 0.29622 0.0
H855 H 0.14949 0.46692 0.28853 0.0
C856 C 0.18709 0.35973 0.28995 0.0
C857 C 0.15813 0.35682 0.29293 0.0
C858 C 0.19697 0.384 0.284 0.0
C859 C 0.17824 0.40615 0.2809 0.0
C860 C 0.14938 0.40359 0.28404 0.0
H861 H 0.19679 0.55715 0.23596 0.0
H862 H 0.17933 0.51998 0.24952 0.0
C863 C 0.13947 0.37931 0.29005 0.0
C864 C 0.18871 0.43087 0.27373 0.0
H865 H 0.19408 0.5037 0.27318 0.0
C866 C 0.20193 0.42534 0.26281 0.0
C867 C 0.18596 0.45955 0.27753 0.0
C868 C 0.17303 0.46699 0.28935 0.0
C869 C 0.21213 0.44751 0.25556 0.0
C870 C 0.20956 0.47615 0.25938 0.0
C871 C 0.19615 0.48178 0.27025 0.0
C872 C 0.22057 0.5004 0.25212 0.0
C873 C 0.22502 0.44005 0.24373 0.0
C874 C 0.24968 0.50238 0.24935 0.0
C875 C 0.25963 0.52364 0.24167 0.0
C876 C 0.24075 0.5436 0.23672 0.0
C877 C 0.21182 0.54229 0.23982 0.0
C878 C 0.20185 0.52101 0.24752 0.0
H879 H 0.21888 0.41828 0.24081 0.0
H880 H 0.21839 0.45553 0.23681 0.0
H881 H 0.24856 0.44074 0.24445 0.0
H882 H 0.26463 0.48701 0.25289 0.0
H883 H 0.28193 0.52385 0.23924 0.0
H884 H 0.5237 0.73841 0.77594 0.0
H885 H 0.48783 0.75636 0.76197 0.0
H886 H 0.52068 0.84157 0.76628 0.0
H887 H 0.55675 0.82347 0.78017 0.0
H888 H 0.44621 0.79654 0.76757 0.0
H889 H 0.51233 0.83521 0.73017 0.0
H890 H 0.5258 0.81091 0.74125 0.0
H891 H 0.52272 0.84829 0.74448 0.0
C892 C 0.52373 0.76082 0.77361 0.0
C893 C 0.54336 0.7795 0.77888 0.0
C894 C 0.50312 0.77111 0.76571 0.0
C895 C 0.50173 0.80029 0.76291 0.0
C896 C 0.52168 0.8189 0.76805 0.0
H897 H 0.37922 0.90433 0.72349 0.0
H898 H 0.42074 0.88661 0.73445 0.0
C899 C 0.54226 0.8086 0.77599 0.0
C900 C 0.47807 0.81142 0.75538 0.0
H901 H 0.46322 0.84713 0.72967 0.0
C902 C 0.44995 0.80745 0.75925 0.0
C903 C 0.48289 0.82595 0.74457 0.0
C904 C 0.51254 0.8302 0.73978 0.0
C905 C 0.42662 0.81781 0.75273 0.0
C906 C 0.43135 0.832 0.74183 0.0
C907 C 0.4595 0.83619 0.73798 0.0
C908 C 0.40729 0.8425 0.73434 0.0
C909 C 0.3971 0.81407 0.75776 0.0
C910 C 0.38632 0.82356 0.73024 0.0
C911 C 0.3626 0.83363 0.724 0.0
C912 C 0.35935 0.86289 0.72155 0.0
C913 C 0.38108 0.88166 0.72515 0.0
C914 C 0.40479 0.87157 0.73147 0.0
H915 H 0.39765 0.81044 0.76748 0.0
H916 H 0.3836 0.833 0.75594 0.0
H917 H 0.38695 0.7952 0.75361 0.0
H918 H 0.3881 0.80094 0.73202 0.0
H919 H 0.34658 0.81847 0.72118 0.0
H920 H 0.81817 0.45916 0.23561 0.0
H921 H 0.83621 0.49371 0.25014 0.0
H922 H 0.75128 0.52693 0.25468 0.0
H923 H 0.73331 0.49212 0.24029 0.0
H924 H 0.83442 0.55122 0.24781 0.0
H925 H 0.7771 0.52095 0.2888 0.0
H926 H 0.7791 0.49777 0.27607 0.0
H927 H 0.75404 0.52676 0.27636 0.0
C928 C 0.80333 0.47333 0.24 0.0
C929 C 0.7743 0.47258 0.23709 0.0
C930 C 0.81362 0.49318 0.24823 0.0
C931 C 0.79508 0.51272 0.25369 0.0
C932 C 0.76593 0.51164 0.25088 0.0
H933 H 0.82047 0.66652 0.29604 0.0
H934 H 0.80046 0.62589 0.2852 0.0
C935 C 0.75565 0.49175 0.24267 0.0
C936 C 0.80661 0.53569 0.26151 0.0
H937 H 0.80112 0.56574 0.28904 0.0
C938 C 0.82729 0.55419 0.25686 0.0
C939 C 0.79716 0.53985 0.27329 0.0
C940 C 0.77582 0.52014 0.27898 0.0
C941 C 0.83843 0.57686 0.26356 0.0
C942 C 0.82909 0.58098 0.27535 0.0
C943 C 0.80833 0.56258 0.28001 0.0
C944 C 0.84077 0.60429 0.28292 0.0
C945 C 0.85967 0.59666 0.25783 0.0
C946 C 0.86992 0.60522 0.28564 0.0
C947 C 0.88139 0.62833 0.29186 0.0
C948 C 0.86397 0.65106 0.2956 0.0
C949 C 0.83451 0.64937 0.29338 0.0
C950 C 0.82304 0.6262 0.28712 0.0
H951 H 0.85903 0.59517 0.24801 0.0
H952 H 0.85566 0.61913 0.26043 0.0
H953 H 0.88144 0.5908 0.26077 0.0
H954 H 0.88394 0.58826 0.28275 0.0
H955 H 0.90406 0.62858 0.2936 0.0
H956 H 0.46381 0.19738 0.78023 0.0
H957 H 0.49983 0.17983 0.76619 0.0
H958 H 0.53008 0.26576 0.76119 0.0
H959 H 0.49437 0.28318 0.77531 0.0
H960 H 0.51321 0.19388 0.74195 0.0
H961 H 0.60082 0.22186 0.77281 0.0
H962 H 0.56405 0.22061 0.7774 0.0
H963 H 0.57728 0.25085 0.76933 0.0
C964 C 0.4778 0.2125 0.77591 0.0
C965 C 0.47609 0.24164 0.77868 0.0
C966 C 0.49841 0.20249 0.76793 0.0
C967 C 0.51792 0.22141 0.76273 0.0
C968 C 0.51551 0.2507 0.76519 0.0
H969 H 0.67171 0.20366 0.72069 0.0
H970 H 0.62995 0.22072 0.73147 0.0
C971 C 0.49491 0.26069 0.77314 0.0
C972 C 0.54163 0.21047 0.7552 0.0
H973 H 0.61419 0.20605 0.75374 0.0
C974 C 0.5353 0.19646 0.74453 0.0
C975 C 0.57048 0.2137 0.75858 0.0
C976 C 0.57868 0.22733 0.7702 0.0
C977 C 0.55701 0.18629 0.73701 0.0
C978 C 0.58589 0.1897 0.74037 0.0
C979 C 0.59213 0.20353 0.7511 0.0
C980 C 0.6101 0.17927 0.73295 0.0
C981 C 0.54883 0.17266 0.72541 0.0
C982 C 0.61293 0.15024 0.73006 0.0
C983 C 0.63688 0.14039 0.72384 0.0
C984 C 0.65873 0.15929 0.7205 0.0
C985 C 0.65551 0.18842 0.72321 0.0
C986 C 0.63156 0.19824 0.72937 0.0
H987 H 0.52694 0.17876 0.72266 0.0
H988 H 0.56388 0.17874 0.71827 0.0
H989 H 0.54942 0.14914 0.7264 0.0
H990 H 0.59709 0.135 0.73293 0.0
H991 H 0.63883 0.11777 0.72209 0.0
H992 H 0.28084 0.99741 0.02704 0.0
H993 H 0.26188 0.03304 0.01317 0.0
H994 H 0.1783 0.99591 0.01653 0.0
H995 H 0.19727 0.9606 0.03056 0.0
H996 H 0.23421 0.02989 0.99167 0.0
H997 H 0.16331 0.07824 0.02542 0.0
H998 H 0.19063 0.05278 0.02919 0.0
H999 H 0.15732 0.04088 0.02309 0.0
C1000 C 0.25854 0.99661 0.02461 0.0
C1001 C 0.24053 0.97611 0.02971 0.0
C1002 C 0.24768 0.01702 0.01675 0.0
C1003 C 0.21853 0.01754 0.01392 0.0
C1004 C 0.20072 0.99638 0.01873 0.0
H1005 H 0.11535 0.13855 0.97307 0.0
H1006 H 0.13261 0.09643 0.98374 0.0
C1007 C 0.21158 0.97602 0.02663 0.0
C1008 C 0.20677 0.04068 1.00625 0.0
H1009 H 0.15933 0.09608 1.00591 0.0
C1010 C 0.21782 0.04434 0.99479 0.0
C1011 C 0.1854 0.05968 0.01029 0.0
C1012 C 0.17362 0.05796 0.0227 0.0
C1013 C 0.20798 0.0662 0.98727 0.0
C1014 C 0.18675 0.08526 0.99134 0.0
C1015 C 0.17548 0.08142 1.00275 0.0
C1016 C 0.17662 0.10993 0.98412 0.0
C1017 C 0.22019 0.0685 0.97495 0.0
C1018 C 0.19555 0.13161 0.98073 0.0
C1019 C 0.18575 0.15569 0.9746 0.0
C1020 C 0.15673 0.15876 0.97173 0.0
C1021 C 0.13788 0.13677 0.97497 0.0
C1022 C 0.14769 0.11273 0.98115 0.0
H1023 H 0.22998 0.0481 0.97205 0.0
H1024 H 0.20354 0.07471 0.96846 0.0
H1025 H 0.23699 0.0851 0.97488 0.0
H1026 H 0.21786 0.13027 0.98307 0.0
H1027 H 0.20093 0.17206 0.9722 0.0
H1028 H 0.13694 0.85386 0.05754 0.0
H1029 H 0.09519 0.83501 0.04698 0.0
H1030 H 0.13563 0.85375 0.01361 0.0
H1031 H 0.17739 0.87177 0.02407 0.0
H1032 H 0.05721 0.85651 0.03156 0.0
H1033 H 0.11745 0.77118 0.009 0.0
H1034 H 0.13263 0.7921 0.0208 0.0
H1035 H 0.13209 0.80563 1.00587 0.0
C1036 C 0.13682 0.85401 0.04796 0.0
C1037 C 0.16069 0.86386 0.04165 0.0
C1038 C 0.11297 0.84319 0.04191 0.0
C1039 C 0.11247 0.84215 0.02946 0.0
C1040 C 0.13578 0.85329 0.0232 0.0
H1041 H 0.9669 0.82138 0.98239 0.0
H1042 H 1.00299 0.83945 0.99616 0.0
C1043 C 0.15965 0.86374 0.0292 0.0
C1044 C 0.08782 0.82939 0.02294 0.0
H1045 H 0.07115 0.7812 1.00131 0.0
C1046 C 0.06023 0.83986 0.02502 0.0
C1047 C 0.09146 0.8072 0.01456 0.0
C1048 C 0.11996 0.79316 0.01251 0.0
C1049 C 0.03648 0.82947 0.0187 0.0
C1050 C 0.04044 0.8085 0.00981 0.0
C1051 C 0.06793 0.79747 0.008 0.0
C1052 C 0.01667 0.79775 1.00215 0.0
C1053 C 1.00738 0.84082 0.0218 0.0
C1054 C 0.01245 0.76826 1.00066 0.0
C1055 C 0.99219 0.75796 0.99261 0.0
C1056 C 0.97531 0.77689 0.98599 0.0
C1057 C 0.97911 0.80635 0.98761 0.0
C1058 C 0.99967 0.81667 0.99554 0.0
H1059 H 1.00668 0.84868 0.03108 0.0
H1060 H 1.00227 0.85906 0.01592 0.0
H1061 H 0.99072 0.82426 0.02068 0.0
H1062 H 0.02538 0.75311 1.00552 0.0
H1063 H 0.99041 0.73517 0.99126 0.0
H1064 H 0.8589 0.83789 0.99023 0.0
H1065 H 0.84112 0.88016 1.00023 0.0
H1066 H 0.85022 0.92862 0.96802 0.0
H1067 H 0.86657 0.88571 0.95767 0.0
H1068 H 0.86504 0.92949 1.00486 0.0
H1069 H 0.77001 0.94922 0.97686 0.0
H1070 H 0.79055 0.91682 0.97587 0.0
H1071 H 0.80291 0.94886 0.96879 0.0
C1072 C 0.85662 0.85731 0.98513 0.0
C1073 C 0.86375 0.85801 0.97301 0.0
C1074 C 0.84669 0.88167 0.99094 0.0
C1075 C 0.84374 0.90764 0.98488 0.0
C1076 C 0.85156 0.90875 0.97286 0.0
H1077 H 0.8178 0.06345 0.02736 0.0
H1078 H 0.83736 0.02869 0.01325 0.0
C1079 C 0.86132 0.88421 0.96698 0.0
C1080 C 0.83296 0.93332 0.99134 0.0
H1081 H 0.77992 0.98339 0.99169 0.0
C1082 C 0.84648 0.94132 1.00194 0.0
C1083 C 0.8085 0.94866 0.98765 0.0
C1084 C 0.79195 0.94036 0.97674 0.0
C1085 C 0.83613 0.96376 0.009 0.0
C1086 C 0.81198 0.97944 1.00521 0.0
C1087 C 0.7986 0.97167 0.99455 0.0
C1088 C 0.79928 1.0027 0.01257 0.0
C1089 C 0.85052 0.96957 0.02071 0.0
C1090 C 0.77086 1.00073 0.01639 0.0
C1091 C 0.75955 0.02093 0.02423 0.0
C1092 C 0.77639 0.04356 0.02836 0.0
C1093 C 0.80438 0.04629 0.02419 0.0
C1094 C 0.81563 0.02623 0.01626 0.0
H1095 H 0.86346 0.9511 0.02371 0.0
H1096 H 0.86501 0.98808 0.01974 0.0
H1097 H 0.83468 0.97463 0.02769 0.0
H1098 H 0.75775 0.9829 0.01369 0.0
H1099 H 0.73803 0.01821 0.02747 0.0
H1100 H 0.88446 0.15289 0.0564 0.0
H1101 H 0.92702 0.16924 0.0459 0.0
H1102 H 0.87803 0.17802 0.01382 0.0
H1103 H 0.83604 0.16021 0.02399 0.0
H1104 H 0.92721 0.15382 0.00912 0.0
H1105 H 0.94763 0.24932 0.03677 0.0
H1106 H 0.94729 0.21659 0.04499 0.0
H1107 H 0.91525 0.22888 0.0379 0.0
C1108 C 0.88274 0.15808 0.04709 0.0
C1109 C 0.85649 0.15548 0.04114 0.0
C1110 C 0.90709 0.16785 0.04112 0.0
C1111 C 0.90575 0.17554 0.02909 0.0
C1112 C 0.87971 0.17253 0.02312 0.0
H1113 H 0.01826 0.27935 0.98638 0.0
H1114 H 0.9823 0.26041 1.00004 0.0
C1115 C 0.85551 0.16259 0.02902 0.0
C1116 C 0.93134 0.18612 0.02254 0.0
H1117 H 0.98196 0.2386 0.02208 0.0
C1118 C 0.93921 0.17232 0.01199 0.0
C1119 C 0.9469 0.21051 0.02616 0.0
C1120 C 0.93873 0.22739 0.037 0.0
C1121 C 0.96179 0.18227 1.00493 0.0
C1122 C 0.97775 0.20629 0.00867 0.0
C1123 C 0.97004 0.22 0.01926 0.0
C1124 C 1.00131 0.21846 1.00134 0.0
C1125 C 0.96753 0.16756 0.99328 0.0
C1126 C 0.0246 0.20161 0.9978 0.0
C1127 C 0.04503 0.21242 0.98994 0.0
C1128 C 0.04292 0.24046 0.9857 0.0
C1129 C 0.0205 0.25778 0.98968 0.0
C1130 C 0.99993 0.24691 0.99745 0.0
H1131 H 0.94891 0.15489 0.99027 0.0
H1132 H 0.97296 0.18321 0.98627 0.0
H1133 H 0.98574 0.15272 0.99436 0.0
H1134 H 0.02661 0.17984 1.00088 0.0
H1135 H 0.06203 0.19864 0.98689 0.0
H1136 H 0.65996 0.83929 0.77435 0.0
H1137 H 0.67719 0.88144 0.76409 0.0
H1138 H 0.6683 0.93064 0.79611 0.0
H1139 H 0.65256 0.88789 0.80671 0.0
H1140 H 0.65273 0.93039 0.7593 0.0
H1141 H 0.748 0.95186 0.78691 0.0
H1142 H 0.72783 0.91929 0.78813 0.0
H1143 H 0.7153 0.95141 0.7951 0.0
C1144 C 0.6622 0.85884 0.77935 0.0
C1145 C 0.65529 0.8598 0.79149 0.0
C1146 C 0.6718 0.88314 0.77339 0.0
C1147 C 0.67463 0.90928 0.77932 0.0
C1148 C 0.66706 0.91064 0.79137 0.0
H1149 H 0.69768 0.0649 0.73637 0.0
H1150 H 0.67868 0.02976 0.75046 0.0
C1151 C 0.65764 0.88617 0.79739 0.0
C1152 C 0.68498 0.93492 0.77271 0.0
H1153 H 0.73725 0.98572 0.77203 0.0
C1154 C 0.67116 0.94252 0.76213 0.0
C1155 C 0.70928 0.95066 0.77627 0.0
C1156 C 0.72617 0.94279 0.78715 0.0
C1157 C 0.68106 0.96497 0.75496 0.0
C1158 C 0.70503 0.98107 0.75862 0.0
C1159 C 0.71871 0.97368 0.76926 0.0
C1160 C 0.71722 1.00442 0.75116 0.0
C1161 C 0.66637 0.97036 0.74328 0.0
C1162 C 0.74567 1.00292 0.74734 0.0
C1163 C 0.75665 0.02332 0.73952 0.0
C1164 C 0.73943 0.0457 0.73539 0.0
C1165 C 0.71137 0.04792 0.73952 0.0
C1166 C 0.70045 0.02764 0.74744 0.0
H1167 H 0.65373 0.95162 0.74036 0.0
H1168 H 0.65155 0.98864 0.74424 0.0
H1169 H 0.682 0.97559 0.73623 0.0
H1170 H 0.75912 0.98533 0.75006 0.0
H1171 H 0.77825 0.02103 0.73631 0.0
H1172 H 0.05471 0.32052 0.28019 0.0
H1173 H 0.01775 0.33871 0.2667 0.0
H1174 H 0.98682 0.25307 0.26155 0.0
H1175 H 0.02345 0.23502 0.27513 0.0
H1176 H 1.00322 0.32573 0.24262 0.0
H1177 H 0.91666 0.29653 0.27374 0.0
H1178 H 0.95361 0.29739 0.27811 0.0
H1179 H 0.93991 0.26758 0.2699 0.0
C1180 C 0.04031 0.30562 0.27598 0.0
C1181 C 0.04214 0.27637 0.27853 0.0
C1182 C 0.01917 0.31599 0.26831 0.0
C1183 C 0.99924 0.29732 0.26321 0.0
C1184 C 1.00168 0.26795 0.26548 0.0
H1185 H 0.84448 0.31666 0.22173 0.0
H1186 H 0.88626 0.29921 0.23242 0.0
C1187 C 0.0228 0.2576 0.27313 0.0
C1188 C 0.97525 0.30858 0.2559 0.0
H1189 H 0.90263 0.31293 0.2548 0.0
C1190 C 0.98123 0.32303 0.24529 0.0
C1191 C 0.94651 0.30516 0.2594 0.0
C1192 C 0.93868 0.29106 0.27095 0.0
C1193 C 0.95926 0.33347 0.23795 0.0
C1194 C 0.9305 0.32989 0.24142 0.0
C1195 C 0.9246 0.3156 0.25208 0.0
C1196 C 0.90607 0.34062 0.23419 0.0
C1197 C 0.96708 0.34758 0.22641 0.0
C1198 C 0.90315 0.36977 0.23153 0.0
C1199 C 0.87918 0.37985 0.22539 0.0
C1200 C 0.85738 0.36106 0.22187 0.0
C1201 C 0.86062 0.33183 0.2244 0.0
C1202 C 0.8846 0.32178 0.23049 0.0
H1203 H 0.98889 0.34166 0.22352 0.0
H1204 H 0.95183 0.34174 0.21929 0.0
H1205 H 0.96644 0.37106 0.22755 0.0
H1206 H 0.91901 0.3849 0.23451 0.0
H1207 H 0.87723 0.40253 0.22379 0.0
H1208 H 0.23884 0.99733 0.73941 0.0
H1209 H 0.25805 0.03274 0.75329 0.0
H1210 H 0.34197 0.99693 0.7489 0.0
H1211 H 0.32274 0.96186 0.73485 0.0
H1212 H 0.28707 0.0295 0.77449 0.0
H1213 H 0.35508 0.07967 0.74018 0.0
H1214 H 0.32794 0.05388 0.73661 0.0
H1215 H 0.36181 0.04235 0.74229 0.0
C1216 C 0.26128 0.99674 0.74162 0.0
C1217 C 0.27931 0.97671 0.73622 0.0
C1218 C 0.27228 0.01704 0.7495 0.0
C1219 C 0.30158 0.01789 0.75202 0.0
C1220 C 0.31941 0.99714 0.74694 0.0
H1221 H 0.40523 0.13972 0.79214 0.0
H1222 H 0.38801 0.09742 0.7816 0.0
C1223 C 0.30841 0.97691 0.73902 0.0
C1224 C 0.31344 0.04102 0.75967 0.0
H1225 H 0.35998 0.09713 0.7597 0.0
C1226 C 0.30303 0.04426 0.77125 0.0
C1227 C 0.33424 0.06043 0.75546 0.0
C1228 C 0.34527 0.05917 0.74293 0.0
C1229 C 0.31296 0.06612 0.77874 0.0
C1230 C 0.33363 0.08558 0.77451 0.0
C1231 C 0.34426 0.08216 0.76298 0.0
C1232 C 0.34378 0.11027 0.78171 0.0
C1233 C 0.30146 0.06799 0.79118 0.0
C1234 C 0.32471 0.13161 0.78533 0.0
C1235 C 0.33449 0.15578 0.79139 0.0
C1236 C 0.36363 0.15928 0.79394 0.0
C1237 C 0.38263 0.1376 0.79049 0.0
C1238 C 0.37283 0.11347 0.78438 0.0
H1239 H 0.29217 0.0474 0.79412 0.0
H1240 H 0.31838 0.07433 0.79752 0.0
H1241 H 0.2844 0.08434 0.79149 0.0
H1242 H 0.30229 0.12996 0.78322 0.0
H1243 H 0.3192 0.17192 0.79396 0.0
H1244 H 0.01477 0.79466 0.28334 0.0
H1245 H 0.05028 0.77645 0.2692 0.0
H1246 H 0.99884 0.70158 0.2635 0.0
H1247 H 0.96346 0.71981 0.27758 0.0
H1248 H 0.05697 0.69031 0.26923 0.0
H1249 H 0.04743 0.76866 0.23257 0.0
H1250 H 0.05163 0.78363 0.24712 0.0
H1251 H 0.01999 0.76393 0.24359 0.0
C1252 C 0.01088 0.77464 0.27885 0.0
C1253 C 0.98632 0.75877 0.2814 0.0
C1254 C 0.03111 0.76424 0.27078 0.0
C1255 C 0.02712 0.73775 0.26518 0.0
C1256 C 1.00232 0.72212 0.26764 0.0
H1257 H 0.13809 0.62682 0.22271 0.0
H1258 H 0.09761 0.64707 0.23343 0.0
C1259 C 0.98208 0.73258 0.27563 0.0
C1260 C 0.04955 0.7254 0.25736 0.0
H1261 H 0.08565 0.73577 0.23143 0.0
C1262 C 0.06313 0.70014 0.26092 0.0
C1263 C 0.05771 0.73831 0.24656 0.0
C1264 C 0.04334 0.76502 0.24213 0.0
C1265 C 0.08505 0.6878 0.25415 0.0
C1266 C 0.09317 0.70058 0.24329 0.0
C1267 C 0.07944 0.72582 0.2397 0.0
C1268 C 0.11659 0.68874 0.23578 0.0
C1269 C 0.09997 0.66173 0.25895 0.0
C1270 C 0.14018 0.70574 0.23291 0.0
C1271 C 0.16312 0.69439 0.22655 0.0
C1272 C 0.16317 0.66565 0.2229 0.0
C1273 C 0.13892 0.64901 0.22533 0.0
C1274 C 0.11586 0.66047 0.23163 0.0
H1275 H 0.09683 0.65944 0.26865 0.0
H1276 H 0.09112 0.64243 0.25463 0.0
H1277 H 0.12318 0.66254 0.25713 0.0
H1278 H 0.14121 0.72769 0.23586 0.0
H1279 H 0.18104 0.70813 0.22463 0.0
H1280 H 0.78052 0.50248 0.52824 0.0
H1281 H 0.76148 0.53905 0.51483 0.0
H1282 H 0.68214 0.49303 0.51274 0.0
H1283 H 0.70102 0.45698 0.52647 0.0
H1284 H 0.7409 0.54038 0.49259 0.0
H1285 H 0.65478 0.56961 0.52385 0.0
H1286 H 0.68337 0.54589 0.5279 0.0
H1287 H 0.65371 0.53296 0.51936 0.0
C1288 C 0.75921 0.50001 0.52472 0.0
C1289 C 0.74227 0.47688 0.52827 0.0
C1290 C 0.74827 0.52093 0.5171 0.0
C1291 C 0.72011 0.51922 0.51291 0.0
C1292 C 0.70366 0.4953 0.51604 0.0
H1293 H 0.65521 0.63859 0.4584 0.0
H1294 H 0.67166 0.59553 0.46861 0.0
C1295 C 0.71453 0.47451 0.52376 0.0
C1296 C 0.70782 0.54303 0.50571 0.0
H1297 H 0.65428 0.59251 0.50523 0.0
C1298 C 0.7219 0.55172 0.49533 0.0
C1299 C 0.68325 0.55824 0.50935 0.0
C1300 C 0.66803 0.55144 0.52078 0.0
C1301 C 0.71225 0.5751 0.48857 0.0
C1302 C 0.68735 0.58993 0.49209 0.0
C1303 C 0.67318 0.58109 0.50242 0.0
C1304 C 0.6766 0.61579 0.48571 0.0
C1305 C 0.72949 0.5843 0.47798 0.0
C1306 C 0.67276 0.64143 0.49193 0.0
C1307 C 0.6628 0.66591 0.48618 0.0
C1308 C 0.65647 0.66564 0.47397 0.0
C1309 C 0.65981 0.63977 0.46778 0.0
C1310 C 0.66963 0.61513 0.47359 0.0
H1311 H 0.75155 0.57578 0.47832 0.0
H1312 H 0.7193 0.57608 0.4698 0.0
H1313 H 0.73056 0.6079 0.47736 0.0
H1314 H 0.67766 0.64259 0.50129 0.0
H1315 H 0.65982 0.68504 0.49139 0.0
H1316 H 0.63973 0.35209 0.5551 0.0
H1317 H 0.59893 0.33169 0.54447 0.0
H1318 H 0.64536 0.33742 0.51165 0.0
H1319 H 0.68558 0.35856 0.52207 0.0
H1320 H 0.59092 0.3562 0.50926 0.0
H1321 H 0.59179 0.25069 0.53156 0.0
H1322 H 0.58913 0.28075 0.54135 0.0
H1323 H 0.62092 0.27559 0.53277 0.0
C1324 C 0.64118 0.34917 0.54561 0.0
C1325 C 0.66619 0.35669 0.5395 0.0
C1326 C 0.61793 0.33718 0.53955 0.0
C1327 C 0.6192 0.33244 0.52726 0.0
C1328 C 0.64387 0.34055 0.52114 0.0
H1329 H 0.5177 0.22806 0.47964 0.0
H1330 H 0.55366 0.2472 0.49336 0.0
C1331 C 0.66702 0.35247 0.52715 0.0
C1332 C 0.59486 0.31959 0.52062 0.0
H1333 H 0.55455 0.25914 0.51786 0.0
C1334 C 0.58291 0.33503 0.51119 0.0
C1335 C 0.5846 0.29177 0.523 0.0
C1336 C 0.59737 0.27355 0.53265 0.0
C1337 C 0.56114 0.32352 0.50409 0.0
C1338 C 0.55052 0.2959 0.50659 0.0
C1339 C 0.56247 0.28039 0.51601 0.0
C1340 C 0.52768 0.28258 0.49925 0.0
C1341 C 0.55032 0.34075 0.49373 0.0
C1342 C 0.50077 0.29548 0.49827 0.0
C1343 C 0.48034 0.28458 0.49045 0.0
C1344 C 0.48625 0.26036 0.48356 0.0
C1345 C 0.51261 0.24662 0.48494 0.0
C1346 C 0.53312 0.25759 0.49274 0.0
H1347 H 0.56535 0.35802 0.49125 0.0
H1348 H 0.54675 0.32698 0.48588 0.0
H1349 H 0.52974 0.35077 0.49615 0.0
H1350 H 0.49583 0.31445 0.50333 0.0
H1351 H 0.46022 0.29565 0.48949 0.0
H1352 H 0.23414 0.5275 0.5256 0.0
H1353 H 0.25243 0.49186 0.51158 0.0
H1354 H 0.33671 0.52724 0.51518 0.0
H1355 H 0.31842 0.56255 0.52935 0.0
H1356 H 0.28085 0.4948 0.49004 0.0
H1357 H 0.34916 0.44433 0.52419 0.0
H1358 H 0.32219 0.47027 0.52781 0.0
H1359 H 0.3561 0.48161 0.52213 0.0
C1360 C 0.25645 0.52793 0.52318 0.0
C1361 C 0.27487 0.5479 0.5284 0.0
C1362 C 0.26691 0.50753 0.51523 0.0
C1363 C 0.29605 0.50651 0.51245 0.0
C1364 C 0.31426 0.5272 0.51735 0.0
H1365 H 0.40337 0.39041 0.47237 0.0
H1366 H 0.38321 0.43084 0.48313 0.0
C1367 C 0.3038 0.54754 0.52533 0.0
C1368 C 0.3075 0.48324 0.50479 0.0
H1369 H 0.35462 0.42764 0.50454 0.0
C1370 C 0.29694 0.48007 0.49322 0.0
C1371 C 0.32837 0.46384 0.50894 0.0
C1372 C 0.33945 0.46492 0.52148 0.0
C1373 C 0.30713 0.45852 0.48562 0.0
C1374 C 0.32818 0.43932 0.48975 0.0
C1375 C 0.33862 0.44243 0.50133 0.0
C1376 C 0.33977 0.41575 0.48229 0.0
C1377 C 0.29569 0.45685 0.47316 0.0
C1378 C 0.32208 0.39379 0.47809 0.0
C1379 C 0.3336 0.37048 0.47195 0.0
C1380 C 0.36312 0.36849 0.46994 0.0
C1381 C 0.38061 0.39096 0.47388 0.0
C1382 C 0.3691 0.4142 0.48001 0.0
H1383 H 0.28541 0.47714 0.47042 0.0
H1384 H 0.31291 0.45169 0.46678 0.0
H1385 H 0.27947 0.43971 0.47268 0.0
H1386 H 0.29946 0.39416 0.47993 0.0
H1387 H 0.31952 0.35344 0.46921 0.0
H1388 H 0.5221 0.78662 0.4891 0.0
H1389 H 0.48576 0.76844 0.50277 0.0
H1390 H 0.51932 0.68342 0.49868 0.0
H1391 H 0.55585 0.70175 0.48508 0.0
H1392 H 0.44456 0.72802 0.49692 0.0
H1393 H 0.50974 0.68975 0.53473 0.0
H1394 H 0.52341 0.7141 0.52373 0.0
H1395 H 0.52064 0.67671 0.52048 0.0
C1396 C 0.52216 0.7642 0.49141 0.0
C1397 C 0.54214 0.74565 0.48629 0.0
C1398 C 0.50129 0.75378 0.49914 0.0
C1399 C 0.49997 0.72459 0.50193 0.0
C1400 C 0.52024 0.7061 0.49692 0.0
H1401 H 0.3769 0.62048 0.54099 0.0
H1402 H 0.41852 0.63813 0.53012 0.0
C1403 C 0.54108 0.71653 0.48915 0.0
C1404 C 0.47612 0.71334 0.50932 0.0
H1405 H 0.46067 0.67772 0.53498 0.0
C1406 C 0.4481 0.71717 0.50528 0.0
C1407 C 0.48069 0.69887 0.52016 0.0
C1408 C 0.51021 0.69476 0.52512 0.0
C1409 C 0.42462 0.70675 0.51168 0.0
C1410 C 0.42909 0.69266 0.52263 0.0
C1411 C 0.45715 0.68859 0.52663 0.0
C1412 C 0.40485 0.68219 0.53001 0.0
C1413 C 0.39524 0.71035 0.50647 0.0
C1414 C 0.38369 0.70112 0.53395 0.0
C1415 C 0.3599 0.69109 0.54015 0.0
C1416 C 0.35677 0.66187 0.5427 0.0
C1417 C 0.37865 0.64311 0.53924 0.0
C1418 C 0.40243 0.65317 0.53297 0.0
H1419 H 0.39607 0.71384 0.49675 0.0
H1420 H 0.38175 0.69141 0.50827 0.0
H1421 H 0.38491 0.72926 0.51051 0.0
H1422 H 0.38539 0.72371 0.53211 0.0
H1423 H 0.34378 0.70624 0.54287 0.0
H1424 H 0.33284 0.28316 0.41929 0.0
H1425 H 0.29899 0.28153 0.40272 0.0
H1426 H 0.30661 0.18997 0.40163 0.0
H1427 H 0.34068 0.19168 0.41821 0.0
H1428 H 0.30961 0.25877 0.37962 0.0
H1429 H 0.21942 0.20368 0.40167 0.0
H1430 H 0.24776 0.22061 0.40989 0.0
H1431 H 0.25353 0.18658 0.40302 0.0
C1432 C 0.32708 0.26269 0.41555 0.0
C1433 C 0.33943 0.23754 0.41998 0.0
C1434 C 0.30779 0.26177 0.40608 0.0
C1435 C 0.30004 0.23563 0.40092 0.0
C1436 C 0.31192 0.21038 0.40552 0.0
H1437 H 0.1827 0.19231 0.34319 0.0
H1438 H 0.21761 0.19111 0.35937 0.0
C1439 C 0.33141 0.21133 0.41497 0.0
C1440 C 0.2804 0.23508 0.39048 0.0
H1441 H 0.21488 0.21238 0.38116 0.0
C1442 C 0.28887 0.24865 0.37996 0.0
C1443 C 0.25339 0.22174 0.39086 0.0
C1444 C 0.24275 0.20748 0.40197 0.0
C1445 C 0.27134 0.24899 0.36982 0.0
C1446 C 0.24405 0.2361 0.37024 0.0
C1447 C 0.23569 0.22233 0.38076 0.0
C1448 C 0.22379 0.23682 0.35996 0.0
C1449 C 0.28263 0.2626 0.35867 0.0
C1450 C 0.21534 0.26286 0.35483 0.0
C1451 C 0.19575 0.26348 0.34543 0.0
C1452 C 0.18395 0.23812 0.34099 0.0
C1453 C 0.19208 0.21212 0.3462 0.0
C1454 C 0.21182 0.21147 0.35553 0.0
H1455 H 0.30627 0.26313 0.35862 0.0
H1456 H 0.27525 0.25104 0.35066 0.0
H1457 H 0.27494 0.28493 0.35815 0.0
H1458 H 0.22341 0.28283 0.35825 0.0
H1459 H 0.1893 0.28385 0.34179 0.0
H1460 H 0.19723 0.68624 0.59495 0.0
H1461 H 0.19775 0.7203 0.61143 0.0
H1462 H 0.28928 0.7248 0.60926 0.0
H1463 H 0.28856 0.69158 0.59247 0.0
H1464 H 0.22048 0.71549 0.63285 0.0
H1465 H 0.27105 0.80804 0.6109 0.0
H1466 H 0.25801 0.77775 0.6027 0.0
H1467 H 0.29221 0.77632 0.60988 0.0
C1468 C 0.21735 0.69519 0.59778 0.0
C1469 C 0.24279 0.68695 0.59219 0.0
C1470 C 0.2177 0.71443 0.60729 0.0
C1471 C 0.24351 0.72575 0.61153 0.0
C1472 C 0.26898 0.71724 0.60599 0.0
H1473 H 0.28945 0.83356 0.672 0.0
H1474 H 0.28939 0.79996 0.65527 0.0
C1475 C 0.26861 0.69815 0.59642 0.0
C1476 C 0.24379 0.74527 0.62205 0.0
H1477 H 0.26707 0.81029 0.63191 0.0
C1478 C 0.23053 0.73629 0.63258 0.0
C1479 C 0.2569 0.7725 0.62182 0.0
C1480 C 0.27009 0.78438 0.61069 0.0
C1481 C 0.2304 0.75343 0.64284 0.0
C1482 C 0.24371 0.78049 0.64262 0.0
C1483 C 0.25701 0.7895 0.63212 0.0
C1484 C 0.24363 0.79997 0.6531 0.0
C1485 C 0.21645 0.7422 0.65392 0.0
C1486 C 0.218 0.81132 0.65746 0.0
C1487 C 0.21805 0.83054 0.66699 0.0
C1488 C 0.24371 0.83861 0.67246 0.0
C1489 C 0.26935 0.82724 0.66811 0.0
C1490 C 0.26932 0.80819 0.65852 0.0
H1491 H 0.21316 0.71877 0.65353 0.0
H1492 H 0.22946 0.74729 0.66186 0.0
H1493 H 0.19535 0.7525 0.655 0.0
H1494 H 0.19795 0.80587 0.6533 0.0
H1495 H 0.19806 0.83965 0.66991 0.0
H1496 H 0.69047 0.73677 0.42327 0.0
H1497 H 0.72468 0.73801 0.40679 0.0
H1498 H 0.71627 0.82942 0.40499 0.0
H1499 H 0.68189 0.82812 0.42135 0.0
H1500 H 0.71458 0.76009 0.38348 0.0
H1501 H 0.80355 0.81707 0.40557 0.0
H1502 H 0.77532 0.79996 0.41376 0.0
H1503 H 0.76925 0.8338 0.40676 0.0
C1504 C 0.69636 0.75713 0.41948 0.0
C1505 C 0.68409 0.78241 0.4238 0.0
C1506 C 0.71578 0.75784 0.41003 0.0
C1507 C 0.72349 0.78386 0.40473 0.0
C1508 C 0.71124 0.80914 0.40907 0.0
H1509 H 0.84014 0.82814 0.34661 0.0
H1510 H 0.80521 0.82954 0.36286 0.0
C1511 C 0.69167 0.80841 0.41845 0.0
C1512 C 0.74329 0.7844 0.39434 0.0
H1513 H 0.80818 0.80879 0.38501 0.0
C1514 C 0.73509 0.77066 0.38383 0.0
C1515 C 0.76995 0.79844 0.39471 0.0
C1516 C 0.78027 0.813 0.40582 0.0
C1517 C 0.75258 0.77081 0.37369 0.0
C1518 C 0.77955 0.78439 0.3741 0.0
C1519 C 0.78761 0.79835 0.38461 0.0
C1520 C 0.79996 0.78373 0.36389 0.0
C1521 C 0.74157 0.75697 0.36253 0.0
C1522 C 0.80885 0.75762 0.35899 0.0
C1523 C 0.82851 0.75689 0.34966 0.0
C1524 C 0.84024 0.78221 0.34512 0.0
C1525 C 0.83138 0.80835 0.34994 0.0
C1526 C 0.81152 0.8091 0.35925 0.0
H1527 H 0.71793 0.75618 0.36243 0.0
H1528 H 0.74889 0.76852 0.35451 0.0
H1529 H 0.74949 0.73471 0.36208 0.0
H1530 H 0.80098 0.73768 0.36252 0.0
H1531 H 0.83504 0.73645 0.34611 0.0
H1532 H 0.72973 0.18858 0.67059 0.0
H1533 H 0.73028 0.22112 0.65353 0.0
H1534 H 0.8219 0.2159 0.65245 0.0
H1535 H 0.82117 0.18252 0.66916 0.0
H1536 H 0.75258 0.27273 0.64958 0.0
H1537 H 0.80369 0.19642 0.61883 0.0
H1538 H 0.79067 0.18584 0.63319 0.0
H1539 H 0.82481 0.20294 0.63177 0.0
C1540 C 0.74995 0.19465 0.66675 0.0
C1541 C 0.77542 0.18337 0.67131 0.0
C1542 C 0.75029 0.21318 0.65698 0.0
C1543 C 0.7761 0.2207 0.65148 0.0
C1544 C 0.80162 0.21001 0.65628 0.0
H1545 H 0.8221 0.33753 0.5943 0.0
H1546 H 0.82174 0.30355 0.61087 0.0
C1547 C 0.80126 0.19129 0.66597 0.0
C1548 C 0.77626 0.23965 0.64076 0.0
H1549 H 0.79961 0.24436 0.61207 0.0
C1550 C 0.76273 0.26638 0.64137 0.0
C1551 C 0.78938 0.23152 0.62995 0.0
C1552 C 0.8027 0.20251 0.62833 0.0
C1553 C 0.76247 0.28525 0.63164 0.0
C1554 C 0.77591 0.27724 0.62093 0.0
C1555 C 0.7894 0.25057 0.62029 0.0
C1556 C 0.77628 0.2964 0.61034 0.0
C1557 C 0.74828 0.31392 0.63297 0.0
C1558 C 0.75098 0.30322 0.60431 0.0
C1559 C 0.75126 0.32225 0.59471 0.0
C1560 C 0.77683 0.33481 0.59091 0.0
C1561 C 0.8022 0.32762 0.59683 0.0
C1562 C 0.80196 0.3084 0.60636 0.0
H1563 H 0.74396 0.3192 0.64238 0.0
H1564 H 0.7617 0.331 0.62907 0.0
H1565 H 0.7277 0.31374 0.62814 0.0
H1566 H 0.73094 0.29409 0.60713 0.0
H1567 H 0.73136 0.32775 0.59043 0.0
H1568 H 0.15622 0.30466 0.91044 0.0
H1569 H 0.19046 0.30527 0.89409 0.0
H1570 H 0.24601 0.2497 0.91394 0.0
H1571 H 0.21092 0.24805 0.93008 0.0
H1572 H 0.24233 0.3226 0.89141 0.0
H1573 H 0.24275 0.2061 0.88375 0.0
H1574 H 0.21773 0.22302 0.89359 0.0
H1575 H 0.25333 0.21512 0.89853 0.0
C1576 C 0.17569 0.29244 0.91125 0.0
C1577 C 0.18064 0.27575 0.92139 0.0
C1578 C 0.19534 0.29285 0.90192 0.0
C1579 C 0.22066 0.27688 0.90253 0.0
C1580 C 0.22628 0.26139 0.91298 0.0
H1581 H 0.36514 0.30544 0.85492 0.0
H1582 H 0.33081 0.30616 0.87121 0.0
C1583 C 0.20639 0.26068 0.92227 0.0
C1584 C 0.24102 0.27676 0.89228 0.0
H1585 H 0.27781 0.23295 0.87346 0.0
C1586 C 0.24997 0.30294 0.88748 0.0
C1587 C 0.25072 0.25121 0.88689 0.0
C1588 C 0.24041 0.22229 0.89086 0.0
C1589 C 0.26844 0.30432 0.87766 0.0
C1590 C 0.27922 0.27878 0.87263 0.0
C1591 C 0.26994 0.2526 0.87732 0.0
C1592 C 0.30012 0.27867 0.86257 0.0
C1593 C 0.27549 0.33324 0.8726 0.0
C1594 C 0.295 0.26239 0.8523 0.0
C1595 C 0.31505 0.26145 0.84307 0.0
C1596 C 0.34071 0.27665 0.84393 0.0
C1597 C 0.34561 0.29333 0.85407 0.0
C1598 C 0.32579 0.294 0.86334 0.0
H1599 H 0.25862 0.34908 0.87466 0.0
H1600 H 0.2956 0.34102 0.8766 0.0
H1601 H 0.27822 0.33231 0.86284 0.0
H1602 H 0.27547 0.25032 0.85143 0.0
H1603 H 0.31069 0.24856 0.83533 0.0
H1604 H 0.23072 0.69057 0.17318 0.0
H1605 H 0.23085 0.72331 0.1562 0.0
H1606 H 0.32209 0.71516 0.15372 0.0
H1607 H 0.32174 0.68156 0.17036 0.0
H1608 H 0.25428 0.77415 0.15185 0.0
H1609 H 0.30041 0.69628 0.12042 0.0
H1610 H 0.28835 0.68613 0.13497 0.0
H1611 H 0.32282 0.70223 0.13302 0.0
C1612 C 0.2508 0.69608 0.16907 0.0
C1613 C 0.27625 0.68386 0.17322 0.0
C1614 C 0.25088 0.71472 0.15933 0.0
C1615 C 0.27641 0.72144 0.15344 0.0
C1616 C 0.30198 0.7099 0.15785 0.0
H1617 H 0.32043 0.83621 0.09523 0.0
H1618 H 0.32063 0.80257 0.11192 0.0
C1619 C 0.30186 0.69106 0.16751 0.0
C1620 C 0.2762 0.74037 0.14272 0.0
H1621 H 0.29701 0.74426 0.11367 0.0
C1622 C 0.26349 0.76747 0.1435 0.0
C1623 C 0.28809 0.73182 0.13172 0.0
C1624 C 0.30042 0.70243 0.12992 0.0
C1625 C 0.26285 0.78628 0.13375 0.0
C1626 C 0.27505 0.77784 0.12284 0.0
C1627 C 0.28774 0.7508 0.12203 0.0
C1628 C 0.27496 0.7969 0.11222 0.0
C1629 C 0.24959 0.81535 0.13526 0.0
C1630 C 0.24931 0.80447 0.10661 0.0
C1631 C 0.24923 0.82331 0.09694 0.0
C1632 C 0.27479 0.83494 0.09264 0.0
C1633 C 0.30048 0.82704 0.09815 0.0
C1634 C 0.30058 0.808 0.10775 0.0
H1635 H 0.24637 0.82083 0.14473 0.0
H1636 H 0.26306 0.83202 0.1311 0.0
H1637 H 0.22854 0.81567 0.1308 0.0
H1638 H 0.22928 0.79603 0.1098 0.0
H1639 H 0.22912 0.82936 0.09297 0.0
H1640 H 0.83129 0.78996 0.9219 0.0
H1641 H 0.79742 0.79038 0.90526 0.0
H1642 H 0.80285 0.6988 0.90301 0.0
H1643 H 0.83691 0.69844 0.91951 0.0
H1644 H 0.80699 0.7683 0.88176 0.0
H1645 H 0.71593 0.71452 0.90369 0.0
H1646 H 0.74472 0.7306 0.91193 0.0
H1647 H 0.74957 0.69651 0.90498 0.0
C1648 C 0.82483 0.76993 0.91796 0.0
C1649 C 0.83614 0.74412 0.9222 0.0
C1650 C 0.80562 0.77017 0.90842 0.0
C1651 C 0.79716 0.74459 0.90297 0.0
C1652 C 0.80848 0.71878 0.90721 0.0
H1653 H 0.68151 0.6997 0.84525 0.0
H1654 H 0.71591 0.69977 0.86161 0.0
C1655 C 0.82786 0.71856 0.91668 0.0
C1656 C 0.77741 0.74494 0.89256 0.0
H1657 H 0.71207 0.72225 0.88306 0.0
C1658 C 0.78617 0.75836 0.88206 0.0
C1659 C 0.75031 0.73179 0.89288 0.0
C1660 C 0.73935 0.71771 0.90399 0.0
C1661 C 0.76889 0.7585 0.87183 0.0
C1662 C 0.74162 0.74555 0.87217 0.0
C1663 C 0.73288 0.73218 0.88271 0.0
C1664 C 0.7218 0.74555 0.86173 0.0
C1665 C 0.78052 0.77177 0.86067 0.0
C1666 C 0.7134 0.77119 0.85626 0.0
C1667 C 0.69411 0.77107 0.84675 0.0
C1668 C 0.68259 0.74536 0.84253 0.0
C1669 C 0.69069 0.71976 0.84808 0.0
C1670 C 0.71014 0.71984 0.85752 0.0
H1671 H 0.80416 0.77253 0.86077 0.0
H1672 H 0.77357 0.75984 0.85269 0.0
H1673 H 0.77264 0.79401 0.85995 0.0
H1674 H 0.72122 0.79142 0.85951 0.0
H1675 H 0.68766 0.79115 0.84284 0.0
H1676 H 0.71291 0.15562 0.10403 0.0
H1677 H 0.71213 0.19012 0.1203 0.0
H1678 H 0.76762 0.24561 0.10044 0.0
H1679 H 0.76936 0.21026 0.08435 0.0
H1680 H 0.78517 0.24301 0.12253 0.0
H1681 H 0.66927 0.26258 0.12371 0.0
H1682 H 0.67724 0.2255 0.1256 0.0
H1683 H 0.68598 0.24301 0.11187 0.0
C1684 C 0.72487 0.17525 0.10316 0.0
C1685 C 0.74144 0.18018 0.093 0.0
C1686 C 0.7242 0.19514 0.11241 0.0
C1687 C 0.73944 0.22088 0.11162 0.0
C1688 C 0.75561 0.22602 0.10133 0.0
H1689 H 0.71372 0.36432 0.15992 0.0
H1690 H 0.71343 0.33063 0.14334 0.0
C1691 C 0.75654 0.20591 0.09211 0.0
C1692 C 0.73941 0.24179 0.12168 0.0
H1693 H 0.69576 0.27871 0.14049 0.0
C1694 C 0.76558 0.25093 0.12639 0.0
C1695 C 0.71394 0.25263 0.12671 0.0
C1696 C 0.68506 0.24566 0.12162 0.0
C1697 C 0.76701 0.27007 0.136 0.0
C1698 C 0.74153 0.27982 0.14139 0.0
C1699 C 0.71536 0.27103 0.13656 0.0
C1700 C 0.74145 0.29999 0.15172 0.0
C1701 C 0.7959 0.2802 0.14004 0.0
C1702 C 0.75671 0.29396 0.16218 0.0
C1703 C 0.75724 0.31354 0.1716 0.0
C1704 C 0.74227 0.33939 0.17083 0.0
C1705 C 0.72592 0.34479 0.16064 0.0
C1706 C 0.72566 0.32545 0.15118 0.0
H1707 H 0.81209 0.2779 0.13294 0.0
H1708 H 0.79526 0.30287 0.14284 0.0
H1709 H 0.80297 0.26709 0.14768 0.0
H1710 H 0.76826 0.27411 0.16307 0.0
H1711 H 0.76958 0.30863 0.17945 0.0
H1712 H 0.95618 0.9015 0.30072 0.0
H1713 H 0.97608 0.94949 0.30178 0.0
H1714 H 0.9884 0.93986 0.33938 0.0
H1715 H 0.96834 0.89169 0.33842 0.0
H1716 H 0.95726 0.99614 0.31404 0.0
H1717 H 0.06626 0.96798 0.329 0.0
H1718 H 0.04161 0.94172 0.32341 0.0
H1719 H 0.03829 0.95471 0.33831 0.0
C1720 C 0.96293 0.90954 0.30926 0.0
C1721 C 0.96048 0.89252 0.3195 0.0
C1722 C 0.9745 0.93705 0.30983 0.0
C1723 C 0.98415 0.94836 0.32062 0.0
C1724 C 0.98176 0.93151 0.33088 0.0
H1725 H 0.05693 0.11669 0.3376 0.0
H1726 H 0.03768 0.06816 0.3388 0.0
C1727 C 0.9702 0.90389 0.33032 0.0
C1728 C 0.99583 0.97806 0.32108 0.0
H1729 H 0.0552 0.01717 0.32791 0.0
C1730 C 0.97869 1.00067 0.31707 0.0
C1731 C 0.02377 0.9842 0.32509 0.0
C1732 C 0.0437 0.96089 0.3291 0.0
C1733 C 0.9886 0.02901 0.31695 0.0
C1734 C 0.01669 0.03509 0.32076 0.0
C1735 C 0.03369 0.0126 0.32498 0.0
C1736 C 0.029 0.06448 0.32005 0.0
C1737 C 0.96867 0.05227 0.31288 0.0
C1738 C 0.03116 0.07851 0.3091 0.0
C1739 C 0.04226 0.10618 0.30838 0.0
C1740 C 0.05168 0.12067 0.31859 0.0
C1741 C 0.05007 0.10631 0.32953 0.0
C1742 C 0.03894 0.07853 0.33024 0.0
H1743 H 0.94604 0.0456 0.31356 0.0
H1744 H 0.97168 0.07202 0.31815 0.0
H1745 H 0.97311 0.05729 0.30346 0.0
H1746 H 0.02439 0.06795 0.30105 0.0
H1747 H 0.0438 0.11606 0.29974 0.0
H1748 H 0.89996 0.04925 0.71358 0.0
H1749 H 0.94855 0.03103 0.71239 0.0
H1750 H 0.94536 0.03658 0.67431 0.0
H1751 H 0.89661 0.05502 0.67544 0.0
H1752 H 0.96911 0.98309 0.70222 0.0
H1753 H 0.01942 0.07717 0.68106 0.0
H1754 H 0.98402 0.07833 0.68722 0.0
H1755 H 0.99 0.06271 0.6729 0.0
C1756 C 0.90946 0.0465 0.70493 0.0
C1757 C 0.89417 0.05362 0.69461 0.0
C1758 C 0.9374 0.03616 0.70426 0.0
C1759 C 0.95096 0.03273 0.69327 0.0
C1760 C 0.93575 0.03965 0.68293 0.0
H1761 H 0.12166 0.96682 0.67599 0.0
H1762 H 0.07235 0.98397 0.67481 0.0
C1763 C 0.90777 0.05015 0.68359 0.0
C1764 C 0.98066 0.02121 0.69275 0.0
H1765 H 0.04845 0.03628 0.68353 0.0
C1766 C 0.98642 0.99478 0.69813 0.0
C1767 C 1.0034 0.03631 0.68739 0.0
C1768 C 0.99906 0.06532 0.6819 0.0
C1769 C 0.01404 0.98313 0.6983 0.0
C1770 C 0.0368 0.99839 0.69309 0.0
C1771 C 0.03104 0.02455 0.68751 0.0
C1772 C 0.06684 0.98801 0.69374 0.0
C1773 C 0.01858 0.95437 0.70399 0.0
C1774 C 0.08037 0.98486 0.70475 0.0
C1775 C 0.1085 0.97507 0.70546 0.0
C1776 C 0.12396 0.96823 0.69515 0.0
C1777 C 0.1104 0.97157 0.68411 0.0
C1778 C 0.08223 0.98154 0.68341 0.0
H1779 H 0.99838 0.94218 0.70468 0.0
H1780 H 0.0342 0.9415 0.6989 0.0
H1781 H 0.02706 0.95743 0.71307 0.0
H1782 H 0.06917 0.99007 0.71284 0.0
H1783 H 0.11801 0.9725 0.71413 0.0
H1784 H 1.00628 0.38104 0.94432 0.0
H1785 H 0.98822 0.42992 0.94321 0.0
H1786 H 0.07415 0.46145 0.9405 0.0
H1787 H 0.0923 0.41261 0.94144 0.0
H1788 H 0.99604 0.47372 0.95787 0.0
H1789 H 0.03773 0.50451 0.91386 0.0
H1790 H 0.03777 0.46807 0.91897 0.0
H1791 H 0.06516 0.49238 0.92369 0.0
C1792 C 0.02136 0.39836 0.94343 0.0
C1793 C 0.05079 0.39276 0.94291 0.0
C1794 C 0.01098 0.42636 0.94277 0.0
C1795 C 0.0297 0.44956 0.94157 0.0
C1796 C 0.05911 0.44403 0.94106 0.0
H1797 H 0.01029 0.63437 0.94503 0.0
H1798 H 0.02786 0.58522 0.94407 0.0
C1799 C 0.0695 0.416 0.94163 0.0
C1800 C 0.0185 0.47947 0.94143 0.0
H1801 H 0.01947 0.54216 0.92586 0.0
C1802 C 1.00102 0.48855 0.95081 0.0
C1803 C 0.02492 0.49906 0.93224 0.0
C1804 C 0.04218 0.49047 0.92156 0.0
C1805 C 0.99031 0.51658 0.95136 0.0
C1806 C 0.99697 0.53618 0.94225 0.0
C1807 C 0.0144 0.52718 0.93286 0.0
C1808 C 0.98618 0.56614 0.94238 0.0
C1809 C 0.97243 0.52522 0.96186 0.0
C1810 C 0.9569 0.57193 0.94152 0.0
C1811 C 0.94676 0.60005 0.94205 0.0
C1812 C 0.96567 0.62309 0.94348 0.0
C1813 C 0.99506 0.61721 0.94408 0.0
C1814 C 1.00517 0.58909 0.94347 0.0
H1815 H 0.97438 0.50982 0.96929 0.0
H1816 H 0.97864 0.54671 0.96507 0.0
H1817 H 0.94974 0.52611 0.95916 0.0
H1818 H 0.94182 0.55464 0.94053 0.0
H1819 H 0.92402 0.60366 0.94165 0.0
H1820 H 0.38283 0.01077 0.07097 0.0
H1821 H 0.43199 0.02813 0.07171 0.0
H1822 H 0.46242 0.94169 0.07428 0.0
H1823 H 0.41339 0.92409 0.07336 0.0
H1824 H 0.47566 0.01902 0.08943 0.0
H1825 H 0.50615 0.97517 0.04555 0.0
H1826 H 0.46951 0.97922 0.05006 0.0
H1827 H 0.4904 0.9501 0.05564 0.0
C1828 C 0.39996 0.9954 0.07166 0.0
C1829 C 0.39402 0.96596 0.07205 0.0
C1830 C 0.42808 1.0054 0.07214 0.0
C1831 C 0.451 0.98624 0.07289 0.0
C1832 C 0.44516 0.9569 0.07354 0.0
H1833 H 0.63582 1.00563 0.07005 0.0
H1834 H 0.587 0.98773 0.0713 0.0
C1835 C 0.41704 0.94688 0.07314 0.0
C1836 C 0.48095 0.99694 0.07289 0.0
H1837 H 0.54276 0.99618 0.0569 0.0
C1838 C 0.49034 0.01409 0.08231 0.0
C1839 C 0.50017 0.99045 0.06363 0.0
C1840 C 0.49111 0.97292 0.05308 0.0
C1841 C 0.51847 0.02448 0.08282 0.0
C1842 C 0.53768 0.01822 0.07349 0.0
C1843 C 0.52821 1.00103 0.06408 0.0
C1844 C 0.56758 0.02932 0.07324 0.0
C1845 C 0.52749 0.04143 0.09354 0.0
C1846 C 0.57322 0.05873 0.07385 0.0
C1847 C 0.60122 0.06903 0.0732 0.0
C1848 C 0.62433 0.05023 0.07173 0.0
C1849 C 0.61862 0.02079 0.07109 0.0
C1850 C 0.59064 0.0105 0.07184 0.0
H1851 H 0.51372 0.03683 0.1013 0.0
H1852 H 0.54992 0.03682 0.09598 0.0
H1853 H 0.52561 0.06451 0.09153 0.0
H1854 H 0.5559 0.07385 0.07458 0.0
H1855 H 0.60467 0.09185 0.07349 0.0
H1856 H 0.46734 0.39725 0.83957 0.0
H1857 H 0.48421 0.44672 0.84072 0.0
H1858 H 0.48849 0.45048 0.80265 0.0
H1859 H 0.47117 0.40151 0.8014 0.0
H1860 H 0.53574 0.47104 0.83175 0.0
H1861 H 0.44088 0.52106 0.81121 0.0
H1862 H 0.4406 0.48507 0.81688 0.0
H1863 H 0.45593 0.49258 0.80263 0.0
C1864 C 0.47163 0.40868 0.83143 0.0
C1865 C 0.46785 0.39523 0.82039 0.0
C1866 C 0.48144 0.43694 0.83211 0.0
C1867 C 0.48731 0.45253 0.82177 0.0
C1868 C 0.48373 0.43912 0.81075 0.0
H1869 H 0.54757 0.61948 0.80146 0.0
H1870 H 0.52949 0.57083 0.80285 0.0
C1871 C 0.47409 0.41091 0.81007 0.0
C1872 C 0.49756 0.48265 0.8224 0.0
H1873 H 0.4818 0.55044 0.81334 0.0
C1874 C 0.52384 0.48847 0.82783 0.0
C1875 C 0.48208 0.50544 0.81728 0.0
C1876 C 0.45318 0.50087 0.81176 0.0
C1877 C 0.5355 0.51618 0.82789 0.0
C1878 C 0.5202 0.53892 0.82259 0.0
C1879 C 0.49365 0.53312 0.81737 0.0
C1880 C 0.53165 0.56866 0.82196 0.0
C1881 C 0.56462 0.52058 0.83322 0.0
C1882 C 0.53879 0.58402 0.83224 0.0
C1883 C 0.5492 0.61205 0.83147 0.0
C1884 C 0.55236 0.62554 0.8204 0.0
C1885 C 0.54504 0.61008 0.81015 0.0
C1886 C 0.53479 0.58211 0.81092 0.0
H1887 H 0.57649 0.5002 0.83407 0.0
H1888 H 0.57744 0.53557 0.8278 0.0
H1889 H 0.56227 0.5298 0.84221 0.0
H1890 H 0.53596 0.5745 0.84089 0.0
H1891 H 0.55423 0.62335 0.83956 0.0
H1892 H 0.60475 0.42616 0.18767 0.0
H1893 H 0.55601 0.44382 0.18604 0.0
H1894 H 0.5837 0.52706 0.19736 0.0
H1895 H 0.63269 0.51014 0.19829 0.0
H1896 H 0.52142 0.46289 0.20232 0.0
H1897 H 0.53594 0.54962 0.1698 0.0
H1898 H 0.56334 0.52364 0.17278 0.0
H1899 H 0.55889 0.55406 0.18234 0.0
C1900 C 0.60072 0.44843 0.18953 0.0
C1901 C 0.62302 0.46663 0.19308 0.0
C1902 C 0.57264 0.45846 0.1887 0.0
C1903 C 0.56598 0.48696 0.1914 0.0
C1904 C 0.58815 0.50519 0.19494 0.0
H1905 H 0.39951 0.548 0.2136 0.0
H1906 H 0.448 0.52962 0.21214 0.0
C1907 C 0.61627 0.49526 0.19566 0.0
C1908 C 0.53574 0.49716 0.19113 0.0
H1909 H 0.49239 0.5504 0.18084 0.0
C1910 C 0.5151 0.48191 0.19753 0.0
C1911 C 0.5271 0.52172 0.18473 0.0
C1912 C 0.54743 0.53801 0.17692 0.0
C1913 C 0.4865 0.49083 0.19798 0.0
C1914 C 0.47821 0.51631 0.19215 0.0
C1915 C 0.49865 0.53113 0.18547 0.0
C1916 C 0.44861 0.52802 0.19299 0.0
C1917 C 0.46539 0.47248 0.20455 0.0
C1918 C 0.43287 0.53449 0.18272 0.0
C1919 C 0.40509 0.54543 0.18354 0.0
C1920 C 0.39234 0.55009 0.19465 0.0
C1921 C 0.40834 0.54405 0.20489 0.0
C1922 C 0.43614 0.53342 0.20407 0.0
H1923 H 0.47264 0.44995 0.20503 0.0
H1924 H 0.46324 0.48044 0.21376 0.0
H1925 H 0.44411 0.473 0.20027 0.0
H1926 H 0.44197 0.53076 0.17405 0.0
H1927 H 0.39343 0.5498 0.17547 0.0
H1928 H 0.50305 0.1415 0.44245 0.0
H1929 H 0.52316 0.09342 0.4412 0.0
H1930 H 0.43911 0.05754 0.44443 0.0
H1931 H 0.41874 0.10539 0.44523 0.0
H1932 H 0.52165 0.0505 0.45752 0.0
H1933 H 0.46926 0.01365 0.41636 0.0
H1934 H 0.46964 0.05064 0.42075 0.0
H1935 H 0.44449 0.02631 0.42724 0.0
C1936 C 0.48872 0.12343 0.44266 0.0
C1937 C 0.45916 0.12757 0.44391 0.0
C1938 C 0.50032 0.09586 0.44204 0.0
C1939 C 0.4827 0.07167 0.44255 0.0
C1940 C 0.45321 0.07572 0.44376 0.0
H1941 H 0.50702 0.88789 0.44661 0.0
H1942 H 0.48872 0.93669 0.44571 0.0
C1943 C 0.44159 0.10324 0.44438 0.0
C1944 C 0.49521 0.04228 0.44234 0.0
H1945 H 0.49215 0.97799 0.42802 0.0
C1946 C 0.51537 0.03475 0.451 0.0
C1947 C 0.48705 0.02154 0.43386 0.0
C1948 C 0.46664 0.02847 0.42395 0.0
C1949 C 0.52695 1.00705 0.45161 0.0
C1950 C 0.51858 0.98624 0.4432 0.0
C1951 C 0.49858 0.99381 0.43449 0.0
C1952 C 0.52995 0.95641 0.44343 0.0
C1953 C 0.5474 1.00007 0.4615 0.0
C1954 C 0.55924 0.95097 0.44222 0.0
C1955 C 0.56983 0.923 0.44279 0.0
C1956 C 0.5514 0.89968 0.44454 0.0
C1957 C 0.52198 0.90521 0.44545 0.0
C1958 C 0.51142 0.93317 0.44486 0.0
H1959 H 0.546 0.01576 0.46884 0.0
H1960 H 0.54327 0.97845 0.46511 0.0
H1961 H 0.56948 1.00052 0.45802 0.0
H1962 H 0.57399 0.9684 0.44088 0.0
H1963 H 0.59259 0.91976 0.44213 0.0
H1964 H 0.91304 0.42889 0.57279 0.0
H1965 H 0.96169 0.44745 0.57385 0.0
H1966 H 0.92952 0.5333 0.57142 0.0
H1967 H 0.88076 0.51496 0.57052 0.0
H1968 H 0.98918 0.48213 0.55642 0.0
H1969 H 0.98458 0.53663 0.60001 0.0
H1970 H 0.95895 0.50998 0.59559 0.0
H1971 H 0.95645 0.54563 0.58988 0.0
C1972 C 0.91622 0.45176 0.57269 0.0
C1973 C 0.89283 0.47039 0.57161 0.0
C1974 C 0.94412 0.46233 0.57321 0.0
C1975 C 0.94935 0.49181 0.57284 0.0
C1976 C 0.92608 0.5105 0.5719 0.0
H1977 H 0.10229 0.59771 0.57241 0.0
H1978 H 0.05363 0.5791 0.57331 0.0
C1979 C 0.89817 0.49994 0.57129 0.0
C1980 C 0.97917 0.50288 0.57288 0.0
H1981 H 0.02594 0.54434 0.58847 0.0
C1982 C 0.99727 0.4956 0.56346 0.0
C1983 C 0.98971 0.52066 0.58201 0.0
C1984 C 0.97156 0.52857 0.59251 0.0
C1985 C 0.02536 0.506 0.5628 0.0
C1986 C 0.03607 0.52358 0.572 0.0
C1987 C 0.01791 0.53085 0.58142 0.0
C1988 C 0.06593 0.53476 0.57194 0.0
C1989 C 0.04293 0.4987 0.55204 0.0
C1990 C 0.08932 0.51613 0.57119 0.0
C1991 C 0.11719 0.52673 0.57063 0.0
C1992 C 0.12248 0.55627 0.57099 0.0
C1993 C 0.0991 0.57485 0.57219 0.0
C1994 C 0.0712 0.56422 0.57266 0.0
H1995 H 0.0293 0.49265 0.5444 0.0
H1996 H 0.05661 0.51688 0.54936 0.0
H1997 H 0.05684 0.48025 0.55412 0.0
H1998 H 0.08604 0.49329 0.571 0.0
H1999 H 0.13464 0.51174 0.56994 0.0
loop_
_geom_bond_atom_site_label_1
_geom_bond_atom_site_label_2
_geom_bond_distance
_geom_bond_site_symmetry_2
_ccdc_geom_bond_type
C0 C1 1.443 . S
C0 N4 1.376 . S
C0 C38 1.389 . S
C1 C0 1.443 . S
C1 C2 1.340 . S
C1 H41 0.951 . S
C2 C1 1.340 . S
C2 C3 1.439 . S
C2 H42 0.950 . S
C3 C2 1.439 . S
C3 N4 1.374 . S
C3 C37 1.395 . S
N4 C0 1.376 . S
N4 C3 1.374 . S
N4 Co5 2.008 . S
Co5 N4 2.008 . S
Co5 N6 1.995 . S
Co5 N11 2.008 . S
Co5 N16 1.995 . S
Co5 N21 2.282 . S
Co5 N27 2.282 . S
N6 Co5 1.995 . S
N6 C7 1.376 . S
N6 C10 1.383 . S
C7 N6 1.376 . S
C7 C8 1.446 . S
C7 C37 1.391 . S
C8 C7 1.446 . S
C8 C9 1.339 . S
C8 H43 0.949 . S
C9 C8 1.339 . S
C9 C10 1.439 . S
C9 H44 0.950 . S
C10 N6 1.383 . S
C10 C9 1.439 . S
C10 C39 1.392 . S
N11 Co5 2.008 . S
N11 C12 1.376 . S
N11 C15 1.374 . S
C12 N11 1.376 . S
C12 C13 1.449 . S
C12 C39 1.389 . S
C13 C12 1.449 . S
C13 C14 1.341 . S
C13 H45 0.946 1_455 S
C14 C13 1.341 . S
C14 C15 1.439 . S
C14 H46 0.950 1_455 S
C15 N11 1.374 . S
C15 C14 1.439 . S
C15 C40 1.395 . S
N16 Co5 1.995 . S
N16 C17 1.376 . S
N16 C20 1.383 . S
C17 N16 1.376 . S
C17 C18 1.446 . S
C17 C40 1.391 . S
C18 C17 1.446 . S
C18 C19 1.339 . S
C18 H47 0.949 . S
C19 C18 1.339 . S
C19 C20 1.439 . S
C19 H48 0.950 . S
C20 N16 1.383 . S
C20 C19 1.439 . S
C20 C38 1.392 . S
N21 Co5 2.282 . S
N21 C24 1.332 . S
N21 C26 1.332 . S
C22 C23 1.386 . S
C22 C25 1.388 . S
C23 C22 1.386 . S
C23 C24 1.382 . S
C23 H49 0.950 . S
C24 N21 1.332 . S
C24 C23 1.382 . S
C24 H35 0.952 . S
C25 C22 1.388 . S
C25 C26 1.382 . S
C25 H50 0.950 . S
C26 N21 1.332 . S
C26 C25 1.382 . S
C26 H36 0.948 . S
N27 Co5 2.282 . S
N27 C31 1.332 . S
N27 C32 1.332 . S
C28 C29 1.388 . S
C28 C32 1.382 . S
C28 H51 0.950 . S
C29 C28 1.388 . S
C29 C30 1.386 . S
C30 C29 1.386 . S
C30 C31 1.382 . S
C30 H52 0.950 . S
C31 N27 1.332 . S
C31 C30 1.382 . S
C31 H33 0.952 . S
C32 N27 1.332 . S
C32 C28 1.382 . S
C32 H34 0.948 . S
H33 C31 0.952 . S
H34 C32 0.948 . S
H35 C24 0.952 . S
H36 C26 0.948 . S
C37 C3 1.395 . S
C37 C7 1.391 . S
C38 C0 1.389 . S
C38 C20 1.392 . S
C39 C10 1.392 . S
C39 C12 1.389 . S
C40 C15 1.395 . S
C40 C17 1.391 . S
H41 C1 0.951 . S
H42 C2 0.950 . S
H43 C8 0.949 . S
H44 C9 0.950 . S
H45 C13 0.946 1_655 S
H46 C14 0.950 1_655 S
H47 C18 0.949 . S
H48 C19 0.950 . S
H49 C23 0.950 . S
H50 C25 0.950 . S
H51 C28 0.950 . S
H52 C30 0.950 . S
C53 C54 1.449 . S
C53 N57 1.376 . S
C53 C91 1.389 . S
C54 C53 1.449 . S
C54 C55 1.341 . S
C54 H94 0.946 1_565 S
C55 C54 1.341 . S
C55 C56 1.439 . S
C55 H95 0.950 1_565 S
C56 C55 1.439 . S
C56 N57 1.374 . S
C56 C90 1.395 . S
N57 C53 1.376 . S
N57 C56 1.374 . S
N57 Co58 2.008 . S
Co58 N57 2.008 . S
Co58 N59 1.995 . S
Co58 N64 2.008 . S
Co58 N69 1.995 . S
Co58 N74 2.282 . S
Co58 N80 2.282 . S
N59 Co58 1.995 . S
N59 C60 1.376 . S
N59 C63 1.383 . S
C60 N59 1.376 . S
C60 C61 1.446 . S
C60 C90 1.391 . S
C61 C60 1.446 . S
C61 C62 1.339 . S
C61 H96 0.949 . S
C62 C61 1.339 . S
C62 C63 1.439 . S
C62 H97 0.950 . S
C63 N59 1.383 . S
C63 C62 1.439 . S
C63 C92 1.392 . S
N64 Co58 2.008 . S
N64 C65 1.376 . S
N64 C68 1.374 . S
C65 N64 1.376 . S
C65 C66 1.443 . S
C65 C92 1.389 . S
C66 C65 1.443 . S
C66 C67 1.340 . S
C66 H98 0.951 . S
C67 C66 1.340 . S
C67 C68 1.439 . S
C67 H99 0.950 . S
C68 N64 1.374 . S
C68 C67 1.439 . S
C68 C93 1.395 . S
N69 Co58 1.995 . S
N69 C70 1.376 . S
N69 C73 1.383 . S
C70 N69 1.376 . S
C70 C71 1.446 . S
C70 C93 1.391 . S
C71 C70 1.446 . S
C71 C72 1.339 . S
C71 H100 0.949 . S
C72 C71 1.339 . S
C72 C73 1.439 . S
C72 H101 0.950 . S
C73 N69 1.383 . S
C73 C72 1.439 . S
C73 C91 1.392 . S
N74 Co58 2.282 . S
N74 C77 1.332 . S
N74 C79 1.332 . S
C75 C76 1.386 . S
C75 C78 1.388 . S
C76 C75 1.386 . S
C76 C77 1.382 . S
C76 H102 0.950 . S
C77 N74 1.332 . S
C77 C76 1.382 . S
C77 H88 0.952 . S
C78 C75 1.388 . S
C78 C79 1.382 . S
C78 H103 0.950 . S
C79 N74 1.332 . S
C79 C78 1.382 . S
C79 H89 0.948 . S
N80 Co58 2.282 . S
N80 C84 1.332 . S
N80 C85 1.332 . S
C81 C82 1.388 . S
C81 C85 1.382 . S
C81 H104 0.950 . S
C82 C81 1.388 . S
C82 C83 1.386 . S
C83 C82 1.386 . S
C83 C84 1.382 . S
C83 H105 0.950 . S
C84 N80 1.332 . S
C84 C83 1.382 . S
C84 H86 0.952 . S
C85 N80 1.332 . S
C85 C81 1.382 . S
C85 H87 0.948 . S
H86 C84 0.952 . S
H87 C85 0.948 . S
H88 C77 0.952 . S
H89 C79 0.948 . S
C90 C56 1.395 . S
C90 C60 1.391 . S
C91 C53 1.389 . S
C91 C73 1.392 . S
C92 C63 1.392 . S
C92 C65 1.389 . S
C93 C68 1.395 . S
C93 C70 1.391 . S
H94 C54 0.946 1_545 S
H95 C55 0.950 1_545 S
H96 C61 0.949 . S
H97 C62 0.950 . S
H98 C66 0.951 . S
H99 C67 0.950 . S
H100 C71 0.949 . S
H101 C72 0.950 . S
H102 C76 0.950 . S
H103 C78 0.950 . S
H104 C81 0.950 . S
H105 C83 0.950 . S
C106 C107 1.443 . S
C106 N110 1.376 . S
C106 C144 1.389 . S
C107 C106 1.443 . S
C107 C108 1.340 . S
C107 H147 0.951 . S
C108 C107 1.340 . S
C108 C109 1.439 . S
C108 H148 0.950 . S
C109 C108 1.439 . S
C109 N110 1.374 . S
C109 C143 1.395 . S
N110 C106 1.376 . S
N110 C109 1.374 . S
N110 Co111 2.008 . S
Co111 N110 2.008 . S
Co111 N112 1.995 . S
Co111 N117 2.008 . S
Co111 N122 1.995 . S
Co111 N127 2.282 . S
Co111 N133 2.282 . S
N112 Co111 1.995 . S
N112 C113 1.376 . S
N112 C116 1.383 . S
C113 N112 1.376 . S
C113 C114 1.446 . S
C113 C143 1.391 . S
C114 C113 1.446 . S
C114 C115 1.339 . S
C114 H149 0.949 . S
C115 C114 1.339 . S
C115 C116 1.439 . S
C115 H150 0.950 . S
C116 N112 1.383 . S
C116 C115 1.439 . S
C116 C145 1.392 . S
N117 Co111 2.008 . S
N117 C118 1.376 . S
N117 C121 1.374 . S
C118 N117 1.376 . S
C118 C119 1.449 . S
C118 C145 1.389 . S
C119 C118 1.449 . S
C119 C120 1.341 . S
C119 H151 0.946 1_655 S
C120 C119 1.341 . S
C120 C121 1.439 . S
C120 H152 0.950 1_655 S
C121 N117 1.374 . S
C121 C120 1.439 . S
C121 C146 1.395 . S
N122 Co111 1.995 . S
N122 C123 1.376 . S
N122 C126 1.383 . S
C123 N122 1.376 . S
C123 C124 1.446 . S
C123 C146 1.391 . S
C124 C123 1.446 . S
C124 C125 1.339 . S
C124 H153 0.949 . S
C125 C124 1.339 . S
C125 C126 1.439 . S
C125 H154 0.950 . S
C126 N122 1.383 . S
C126 C125 1.439 . S
C126 C144 1.392 . S
N127 Co111 2.282 . S
N127 C130 1.332 . S
N127 C132 1.332 . S
C128 C129 1.386 . S
C128 C131 1.388 . S
C129 C128 1.386 . S
C129 C130 1.382 . S
C129 H155 0.950 . S
C130 N127 1.332 . S
C130 C129 1.382 . S
C130 H141 0.952 . S
C131 C128 1.388 . S
C131 C132 1.382 . S
C131 H156 0.950 . S
C132 N127 1.332 . S
C132 C131 1.382 . S
C132 H142 0.948 . S
N133 Co111 2.282 . S
N133 C137 1.332 . S
N133 C138 1.332 . S
C134 C135 1.388 . S
C134 C138 1.382 . S
C134 H157 0.950 . S
C135 C134 1.388 . S
C135 C136 1.386 . S
C136 C135 1.386 . S
C136 C137 1.382 . S
C136 H158 0.950 . S
C137 N133 1.332 . S
C137 C136 1.382 . S
C137 H139 0.952 . S
C138 N133 1.332 . S
C138 C134 1.382 . S
C138 H140 0.948 . S
H139 C137 0.952 . S
H140 C138 0.948 . S
H141 C130 0.952 . S
H142 C132 0.948 . S
C143 C109 1.395 . S
C143 C113 1.391 . S
C144 C106 1.389 . S
C144 C126 1.392 . S
C145 C116 1.392 . S
C145 C118 1.389 . S
C146 C121 1.395 . S
C146 C123 1.391 . S
H147 C107 0.951 . S
H148 C108 0.950 . S
H149 C114 0.949 . S
H150 C115 0.950 . S
H151 C119 0.946 1_455 S
H152 C120 0.950 1_455 S
H153 C124 0.949 . S
H154 C125 0.950 . S
H155 C129 0.950 . S
H156 C131 0.950 . S
H157 C134 0.950 . S
H158 C136 0.950 . S
C159 C160 1.449 . S
C159 N163 1.376 . S
C159 C197 1.389 . S
C160 C159 1.449 . S
C160 C161 1.341 . S
C160 H200 0.946 1_545 S
C161 C160 1.341 . S
C161 C162 1.439 . S
C161 H201 0.950 1_545 S
C162 C161 1.439 . S
C162 N163 1.374 . S
C162 C196 1.395 . S
N163 C159 1.376 . S
N163 C162 1.374 . S
N163 Co164 2.008 . S
Co164 N163 2.008 . S
Co164 N165 1.995 . S
Co164 N170 2.008 . S
Co164 N175 1.995 . S
Co164 N180 2.282 . S
Co164 N186 2.282 . S
N165 Co164 1.995 . S
N165 C166 1.376 . S
N165 C169 1.383 . S
C166 N165 1.376 . S
C166 C167 1.446 . S
C166 C196 1.391 . S
C167 C166 1.446 . S
C167 C168 1.339 . S
C167 H202 0.949 . S
C168 C167 1.339 . S
C168 C169 1.439 . S
C168 H203 0.950 . S
C169 N165 1.383 . S
C169 C168 1.439 . S
C169 C198 1.392 . S
N170 Co164 2.008 . S
N170 C171 1.376 . S
N170 C174 1.374 . S
C171 N170 1.376 . S
C171 C172 1.443 . S
C171 C198 1.389 . S
C172 C171 1.443 . S
C172 C173 1.340 . S
C172 H204 0.951 . S
C173 C172 1.340 . S
C173 C174 1.439 . S
C173 H205 0.950 . S
C174 N170 1.374 . S
C174 C173 1.439 . S
C174 C199 1.395 . S
N175 Co164 1.995 . S
N175 C176 1.376 . S
N175 C179 1.383 . S
C176 N175 1.376 . S
C176 C177 1.446 . S
C176 C199 1.391 . S
C177 C176 1.446 . S
C177 C178 1.339 . S
C177 H206 0.949 . S
C178 C177 1.339 . S
C178 C179 1.439 . S
C178 H207 0.950 . S
C179 N175 1.383 . S
C179 C178 1.439 . S
C179 C197 1.392 . S
N180 Co164 2.282 . S
N180 C183 1.332 . S
N180 C185 1.332 . S
C181 C182 1.386 . S
C181 C184 1.388 . S
C182 C181 1.386 . S
C182 C183 1.382 . S
C182 H208 0.950 . S
C183 N180 1.332 . S
C183 C182 1.382 . S
C183 H194 0.952 . S
C184 C181 1.388 . S
C184 C185 1.382 . S
C184 H209 0.950 . S
C185 N180 1.332 . S
C185 C184 1.382 . S
C185 H195 0.948 . S
N186 Co164 2.282 . S
N186 C190 1.332 . S
N186 C191 1.332 . S
C187 C188 1.388 . S
C187 C191 1.382 . S
C187 H210 0.950 . S
C188 C187 1.388 . S
C188 C189 1.386 . S
C189 C188 1.386 . S
C189 C190 1.382 . S
C189 H211 0.950 . S
C190 N186 1.332 . S
C190 C189 1.382 . S
C190 H192 0.952 . S
C191 N186 1.332 . S
C191 C187 1.382 . S
C191 H193 0.948 . S
H192 C190 0.952 . S
H193 C191 0.948 . S
H194 C183 0.952 . S
H195 C185 0.948 . S
C196 C162 1.395 . S
C196 C166 1.391 . S
C197 C159 1.389 . S
C197 C179 1.392 . S
C198 C169 1.392 . S
C198 C171 1.389 . S
C199 C174 1.395 . S
C199 C176 1.391 . S
H200 C160 0.946 1_565 S
H201 C161 0.950 1_565 S
H202 C167 0.949 . S
H203 C168 0.950 . S
H204 C172 0.951 . S
H205 C173 0.950 . S
H206 C177 0.949 . S
H207 C178 0.950 . S
H208 C182 0.950 . S
H209 C184 0.950 . S
H210 C187 0.950 . S
H211 C189 0.950 . S
C212 C213 1.443 . S
C212 N216 1.376 . S
C212 C250 1.389 . S
C213 C212 1.443 . S
C213 C214 1.340 . S
C213 H253 0.951 . S
C214 C213 1.340 . S
C214 C215 1.439 . S
C214 H254 0.950 . S
C215 C214 1.439 . S
C215 N216 1.374 . S
C215 C249 1.395 . S
N216 C212 1.376 . S
N216 C215 1.374 . S
N216 Co217 2.008 . S
Co217 N216 2.008 . S
Co217 N218 1.995 . S
Co217 N223 2.008 . S
Co217 N228 1.995 . S
Co217 N233 2.282 . S
Co217 N239 2.282 . S
N218 Co217 1.995 . S
N218 C219 1.376 . S
N218 C222 1.383 . S
C219 N218 1.376 . S
C219 C220 1.446 . S
C219 C249 1.391 . S
C220 C219 1.446 . S
C220 C221 1.339 . S
C220 H255 0.949 . S
C221 C220 1.339 . S
C221 C222 1.439 . S
C221 H256 0.950 . S
C222 N218 1.383 . S
C222 C221 1.439 . S
C222 C251 1.392 . S
N223 Co217 2.008 . S
N223 C224 1.376 . S
N223 C227 1.374 . S
C224 N223 1.376 . S
C224 C225 1.449 . S
C224 C251 1.389 . S
C225 C224 1.449 . S
C225 C226 1.341 . S
C225 H257 0.946 1_455 S
C226 C225 1.341 . S
C226 C227 1.439 . S
C226 H258 0.950 1_455 S
C227 N223 1.374 . S
C227 C226 1.439 . S
C227 C252 1.395 . S
N228 Co217 1.995 . S
N228 C229 1.376 . S
N228 C232 1.383 . S
C229 N228 1.376 . S
C229 C230 1.446 . S
C229 C252 1.391 . S
C230 C229 1.446 . S
C230 C231 1.339 . S
C230 H259 0.949 . S
C231 C230 1.339 . S
C231 C232 1.439 . S
C231 H260 0.950 . S
C232 N228 1.383 . S
C232 C231 1.439 . S
C232 C250 1.392 . S
N233 Co217 2.282 . S
N233 C236 1.332 . S
N233 C238 1.332 . S
C234 C235 1.386 . S
C234 C237 1.388 . S
C235 C234 1.386 . S
C235 C236 1.382 . S
C235 H261 0.950 . S
C236 N233 1.332 . S
C236 C235 1.382 . S
C236 H247 0.952 . S
C237 C234 1.388 . S
C237 C238 1.382 . S
C237 H262 0.950 . S
C238 N233 1.332 . S
C238 C237 1.382 . S
C238 H248 0.948 . S
N239 Co217 2.282 . S
N239 C243 1.332 . S
N239 C244 1.332 . S
C240 C241 1.388 . S
C240 C244 1.382 . S
C240 H263 0.950 . S
C241 C240 1.388 . S
C241 C242 1.386 . S
C242 C241 1.386 . S
C242 C243 1.382 . S
C242 H264 0.950 . S
C243 N239 1.332 . S
C243 C242 1.382 . S
C243 H245 0.952 . S
C244 N239 1.332 . S
C244 C240 1.382 . S
C244 H246 0.948 . S
H245 C243 0.952 . S
H246 C244 0.948 . S
H247 C236 0.952 . S
H248 C238 0.948 . S
C249 C215 1.395 . S
C249 C219 1.391 . S
C250 C212 1.389 . S
C250 C232 1.392 . S
C251 C222 1.392 . S
C251 C224 1.389 . S
C252 C227 1.395 . S
C252 C229 1.391 . S
H253 C213 0.951 . S
H254 C214 0.950 . S
H255 C220 0.949 . S
H256 C221 0.950 . S
H257 C225 0.946 1_655 S
H258 C226 0.950 1_655 S
H259 C230 0.949 . S
H260 C231 0.950 . S
H261 C235 0.950 . S
H262 C237 0.950 . S
H263 C240 0.950 . S
H264 C242 0.950 . S
C265 C266 1.449 . S
C265 N269 1.376 . S
C265 C303 1.389 . S
C266 C265 1.449 . S
C266 C267 1.341 . S
C266 H306 0.946 1_565 S
C267 C266 1.341 . S
C267 C268 1.439 . S
C267 H307 0.950 1_565 S
C268 C267 1.439 . S
C268 N269 1.374 . S
C268 C302 1.395 . S
N269 C265 1.376 . S
N269 C268 1.374 . S
N269 Co270 2.008 . S
Co270 N269 2.008 . S
Co270 N271 1.995 . S
Co270 N276 2.008 . S
Co270 N281 1.995 . S
Co270 N286 2.282 . S
Co270 N292 2.282 . S
N271 Co270 1.995 . S
N271 C272 1.376 . S
N271 C275 1.383 . S
C272 N271 1.376 . S
C272 C273 1.446 . S
C272 C302 1.391 . S
C273 C272 1.446 . S
C273 C274 1.339 . S
C273 H308 0.949 . S
C274 C273 1.339 . S
C274 C275 1.439 . S
C274 H309 0.950 . S
C275 N271 1.383 . S
C275 C274 1.439 . S
C275 C304 1.392 . S
N276 Co270 2.008 . S
N276 C277 1.376 . S
N276 C280 1.374 . S
C277 N276 1.376 . S
C277 C278 1.443 . S
C277 C304 1.389 . S
C278 C277 1.443 . S
C278 C279 1.340 . S
C278 H310 0.951 . S
C279 C278 1.340 . S
C279 C280 1.439 . S
C279 H311 0.950 . S
C280 N276 1.374 . S
C280 C279 1.439 . S
C280 C305 1.395 . S
N281 Co270 1.995 . S
N281 C282 1.376 . S
N281 C285 1.383 . S
C282 N281 1.376 . S
C282 C283 1.446 . S
C282 C305 1.391 . S
C283 C282 1.446 . S
C283 C284 1.339 . S
C283 H312 0.949 . S
C284 C283 1.339 . S
C284 C285 1.439 . S
C284 H313 0.950 . S
C285 N281 1.383 . S
C285 C284 1.439 . S
C285 C303 1.392 . S
N286 Co270 2.282 . S
N286 C289 1.332 . S
N286 C291 1.332 . S
C287 C288 1.386 . S
C287 C290 1.388 . S
C288 C287 1.386 . S
C288 C289 1.382 . S
C288 H314 0.950 . S
C289 N286 1.332 . S
C289 C288 1.382 . S
C289 H300 0.952 . S
C290 C287 1.388 . S
C290 C291 1.382 . S
C290 H315 0.950 . S
C291 N286 1.332 . S
C291 C290 1.382 . S
C291 H301 0.948 . S
N292 Co270 2.282 . S
N292 C296 1.332 . S
N292 C297 1.332 . S
C293 C294 1.388 . S
C293 C297 1.382 . S
C293 H316 0.950 . S
C294 C293 1.388 . S
C294 C295 1.386 . S
C295 C294 1.386 . S
C295 C296 1.382 . S
C295 H317 0.950 . S
C296 N292 1.332 . S
C296 C295 1.382 . S
C296 H298 0.952 . S
C297 N292 1.332 . S
C297 C293 1.382 . S
C297 H299 0.948 . S
H298 C296 0.952 . S
H299 C297 0.948 . S
H300 C289 0.952 . S
H301 C291 0.948 . S
C302 C268 1.395 . S
C302 C272 1.391 . S
C303 C265 1.389 . S
C303 C285 1.392 . S
C304 C275 1.392 . S
C304 C277 1.389 . S
C305 C280 1.395 . S
C305 C282 1.391 . S
H306 C266 0.946 1_545 S
H307 C267 0.950 1_545 S
H308 C273 0.949 . S
H309 C274 0.950 . S
H310 C278 0.951 . S
H311 C279 0.950 . S
H312 C283 0.949 . S
H313 C284 0.950 . S
H314 C288 0.950 . S
H315 C290 0.950 . S
H316 C293 0.950 . S
H317 C295 0.950 . S
C318 C319 1.443 . S
C318 N322 1.376 . S
C318 C356 1.389 . S
C319 C318 1.443 . S
C319 C320 1.340 . S
C319 H359 0.951 . S
C320 C319 1.340 . S
C320 C321 1.439 . S
C320 H360 0.950 . S
C321 C320 1.439 . S
C321 N322 1.374 . S
C321 C355 1.395 . S
N322 C318 1.376 . S
N322 C321 1.374 . S
N322 Co323 2.008 . S
Co323 N322 2.008 . S
Co323 N324 1.995 . S
Co323 N329 2.008 . S
Co323 N334 1.995 . S
Co323 N339 2.282 . S
Co323 N345 2.282 . S
N324 Co323 1.995 . S
N324 C325 1.376 . S
N324 C328 1.383 . S
C325 N324 1.376 . S
C325 C326 1.446 . S
C325 C355 1.391 . S
C326 C325 1.446 . S
C326 C327 1.339 . S
C326 H361 0.949 . S
C327 C326 1.339 . S
C327 C328 1.439 . S
C327 H362 0.950 . S
C328 N324 1.383 . S
C328 C327 1.439 . S
C328 C357 1.392 . S
N329 Co323 2.008 . S
N329 C330 1.376 . S
N329 C333 1.374 . S
C330 N329 1.376 . S
C330 C331 1.449 . S
C330 C357 1.389 . S
C331 C330 1.449 . S
C331 C332 1.341 . S
C331 H363 0.946 1_655 S
C332 C331 1.341 . S
C332 C333 1.439 . S
C332 H364 0.950 1_655 S
C333 N329 1.374 . S
C333 C332 1.439 . S
C333 C358 1.395 . S
N334 Co323 1.995 . S
N334 C335 1.376 . S
N334 C338 1.383 . S
C335 N334 1.376 . S
C335 C336 1.446 . S
C335 C358 1.391 . S
C336 C335 1.446 . S
C336 C337 1.339 . S
C336 H365 0.949 . S
C337 C336 1.339 . S
C337 C338 1.439 . S
C337 H366 0.950 . S
C338 N334 1.383 . S
C338 C337 1.439 . S
C338 C356 1.392 . S
N339 Co323 2.282 . S
N339 C342 1.332 . S
N339 C344 1.332 . S
C340 C341 1.386 . S
C340 C343 1.388 . S
C341 C340 1.386 . S
C341 C342 1.382 . S
C341 H367 0.950 . S
C342 N339 1.332 . S
C342 C341 1.382 . S
C342 H353 0.952 . S
C343 C340 1.388 . S
C343 C344 1.382 . S
C343 H368 0.950 . S
C344 N339 1.332 . S
C344 C343 1.382 . S
C344 H354 0.948 . S
N345 Co323 2.282 . S
N345 C349 1.332 . S
N345 C350 1.332 . S
C346 C347 1.388 . S
C346 C350 1.382 . S
C346 H369 0.950 . S
C347 C346 1.388 . S
C347 C348 1.386 . S
C348 C347 1.386 . S
C348 C349 1.382 . S
C348 H370 0.950 . S
C349 N345 1.332 . S
C349 C348 1.382 . S
C349 H351 0.952 . S
C350 N345 1.332 . S
C350 C346 1.382 . S
C350 H352 0.948 . S
H351 C349 0.952 . S
H352 C350 0.948 . S
H353 C342 0.952 . S
H354 C344 0.948 . S
C355 C321 1.395 . S
C355 C325 1.391 . S
C356 C318 1.389 . S
C356 C338 1.392 . S
C357 C328 1.392 . S
C357 C330 1.389 . S
C358 C333 1.395 . S
C358 C335 1.391 . S
H359 C319 0.951 . S
H360 C320 0.950 . S
H361 C326 0.949 . S
H362 C327 0.950 . S
H363 C331 0.946 1_455 S
H364 C332 0.950 1_455 S
H365 C336 0.949 . S
H366 C337 0.950 . S
H367 C341 0.950 . S
H368 C343 0.950 . S
H369 C346 0.950 . S
H370 C348 0.950 . S
C371 C372 1.449 . S
C371 N375 1.376 . S
C371 C409 1.389 . S
C372 C371 1.449 . S
C372 C373 1.341 . S
C372 H412 0.946 1_545 S
C373 C372 1.341 . S
C373 C374 1.439 . S
C373 H413 0.950 1_545 S
C374 C373 1.439 . S
C374 N375 1.374 . S
C374 C408 1.395 . S
N375 C371 1.376 . S
N375 C374 1.374 . S
N375 Co376 2.008 . S
Co376 N375 2.008 . S
Co376 N377 1.995 . S
Co376 N382 2.008 . S
Co376 N387 1.995 . S
Co376 N392 2.282 . S
Co376 N398 2.282 . S
N377 Co376 1.995 . S
N377 C378 1.376 . S
N377 C381 1.383 . S
C378 N377 1.376 . S
C378 C379 1.446 . S
C378 C408 1.391 . S
C379 C378 1.446 . S
C379 C380 1.339 . S
C379 H414 0.949 . S
C380 C379 1.339 . S
C380 C381 1.439 . S
C380 H415 0.950 . S
C381 N377 1.383 . S
C381 C380 1.439 . S
C381 C410 1.392 . S
N382 Co376 2.008 . S
N382 C383 1.376 . S
N382 C386 1.374 . S
C383 N382 1.376 . S
C383 C384 1.443 . S
C383 C410 1.389 . S
C384 C383 1.443 . S
C384 C385 1.340 . S
C384 H416 0.951 . S
C385 C384 1.340 . S
C385 C386 1.439 . S
C385 H417 0.950 . S
C386 N382 1.374 . S
C386 C385 1.439 . S
C386 C411 1.395 . S
N387 Co376 1.995 . S
N387 C388 1.376 . S
N387 C391 1.383 . S
C388 N387 1.376 . S
C388 C389 1.446 . S
C388 C411 1.391 . S
C389 C388 1.446 . S
C389 C390 1.339 . S
C389 H418 0.949 . S
C390 C389 1.339 . S
C390 C391 1.439 . S
C390 H419 0.950 . S
C391 N387 1.383 . S
C391 C390 1.439 . S
C391 C409 1.392 . S
N392 Co376 2.282 . S
N392 C395 1.332 . S
N392 C397 1.332 . S
C393 C394 1.386 . S
C393 C396 1.388 . S
C394 C393 1.386 . S
C394 C395 1.382 . S
C394 H420 0.950 . S
C395 N392 1.332 . S
C395 C394 1.382 . S
C395 H406 0.952 . S
C396 C393 1.388 . S
C396 C397 1.382 . S
C396 H421 0.950 . S
C397 N392 1.332 . S
C397 C396 1.382 . S
C397 H407 0.948 . S
N398 Co376 2.282 . S
N398 C402 1.332 . S
N398 C403 1.332 . S
C399 C400 1.388 . S
C399 C403 1.382 . S
C399 H422 0.950 . S
C400 C399 1.388 . S
C400 C401 1.386 . S
C401 C400 1.386 . S
C401 C402 1.382 . S
C401 H423 0.950 . S
C402 N398 1.332 . S
C402 C401 1.382 . S
C402 H404 0.952 . S
C403 N398 1.332 . S
C403 C399 1.382 . S
C403 H405 0.948 . S
H404 C402 0.952 . S
H405 C403 0.948 . S
H406 C395 0.952 . S
H407 C397 0.948 . S
C408 C374 1.395 . S
C408 C378 1.391 . S
C409 C371 1.389 . S
C409 C391 1.392 . S
C410 C381 1.392 . S
C410 C383 1.389 . S
C411 C386 1.395 . S
C411 C388 1.391 . S
H412 C372 0.946 1_565 S
H413 C373 0.950 1_565 S
H414 C379 0.949 . S
H415 C380 0.950 . S
H416 C384 0.951 . S
H417 C385 0.950 . S
H418 C389 0.949 . S
H419 C390 0.950 . S
H420 C394 0.950 . S
H421 C396 0.950 . S
H422 C399 0.950 . S
H423 C401 0.950 . S
C424 C425 1.443 . S
C424 N428 1.376 . S
C424 C462 1.389 . S
C425 C424 1.443 . S
C425 C426 1.340 . S
C425 H465 0.951 . S
C426 C425 1.340 . S
C426 C427 1.439 . S
C426 H466 0.950 . S
C427 C426 1.439 . S
C427 N428 1.374 . S
C427 C461 1.395 . S
N428 C424 1.376 . S
N428 C427 1.374 . S
N428 Co429 2.008 . S
Co429 N428 2.008 . S
Co429 N430 1.995 . S
Co429 N435 2.008 . S
Co429 N440 1.995 . S
Co429 N445 2.282 . S
Co429 N451 2.282 . S
N430 Co429 1.995 . S
N430 C431 1.376 . S
N430 C434 1.383 . S
C431 N430 1.376 . S
C431 C432 1.446 . S
C431 C461 1.391 . S
C432 C431 1.446 . S
C432 C433 1.339 . S
C432 H467 0.949 . S
C433 C432 1.339 . S
C433 C434 1.439 . S
C433 H468 0.950 . S
C434 N430 1.383 . S
C434 C433 1.439 . S
C434 C463 1.392 . S
N435 Co429 2.008 . S
N435 C436 1.376 . S
N435 C439 1.374 . S
C436 N435 1.376 . S
C436 C437 1.443 . S
C436 C463 1.389 . S
C437 C436 1.443 . S
C437 C438 1.340 . S
C437 H469 0.951 . S
C438 C437 1.340 . S
C438 C439 1.439 . S
C438 H470 0.950 . S
C439 N435 1.374 . S
C439 C438 1.439 . S
C439 C464 1.395 . S
N440 Co429 1.995 . S
N440 C441 1.376 . S
N440 C444 1.383 . S
C441 N440 1.376 . S
C441 C442 1.446 . S
C441 C464 1.391 . S
C442 C441 1.446 . S
C442 C443 1.339 . S
C442 H471 0.949 . S
C443 C442 1.339 . S
C443 C444 1.439 . S
C443 H472 0.950 . S
C444 N440 1.383 . S
C444 C443 1.439 . S
C444 C462 1.392 . S
N445 Co429 2.282 . S
N445 C448 1.332 . S
N445 C450 1.332 . S
C446 C447 1.386 . S
C446 C449 1.388 . S
C447 C446 1.386 . S
C447 C448 1.382 . S
C447 H473 0.950 . S
C448 N445 1.332 . S
C448 C447 1.382 . S
C448 H459 0.952 . S
C449 C446 1.388 . S
C449 C450 1.382 . S
C449 H474 0.950 . S
C450 N445 1.332 . S
C450 C449 1.382 . S
C450 H460 0.948 . S
N451 Co429 2.282 . S
N451 C455 1.332 . S
N451 C456 1.332 . S
C452 C453 1.388 . S
C452 C456 1.382 . S
C452 H475 0.950 . S
C453 C452 1.388 . S
C453 C454 1.386 . S
C454 C453 1.386 . S
C454 C455 1.382 . S
C454 H476 0.950 . S
C455 N451 1.332 . S
C455 C454 1.382 . S
C455 H457 0.952 . S
C456 N451 1.332 . S
C456 C452 1.382 . S
C456 H458 0.948 . S
H457 C455 0.952 . S
H458 C456 0.948 . S
H459 C448 0.952 . S
H460 C450 0.948 . S
C461 C427 1.395 . S
C461 C431 1.391 . S
C462 C424 1.389 . S
C462 C444 1.392 . S
C463 C434 1.392 . S
C463 C436 1.389 . S
C464 C439 1.395 . S
C464 C441 1.391 . S
H465 C425 0.951 . S
H466 C426 0.950 . S
H467 C432 0.949 . S
H468 C433 0.950 . S
H469 C437 0.951 . S
H470 C438 0.950 . S
H471 C442 0.949 . S
H472 C443 0.950 . S
H473 C447 0.950 . S
H474 C449 0.950 . S
H475 C452 0.950 . S
H476 C454 0.950 . S
C477 C478 1.443 . S
C477 N481 1.376 . S
C477 C515 1.389 . S
C478 C477 1.443 . S
C478 C479 1.340 . S
C478 H518 0.951 . S
C479 C478 1.340 . S
C479 C480 1.439 . S
C479 H519 0.950 . S
C480 C479 1.439 . S
C480 N481 1.374 . S
C480 C514 1.395 . S
N481 C477 1.376 . S
N481 C480 1.374 . S
N481 Co482 2.008 . S
Co482 N481 2.008 . S
Co482 N483 1.995 . S
Co482 N488 2.008 . S
Co482 N493 1.995 . S
Co482 N498 2.282 . S
Co482 N504 2.282 . S
N483 Co482 1.995 . S
N483 C484 1.376 . S
N483 C487 1.383 . S
C484 N483 1.376 . S
C484 C485 1.446 . S
C484 C514 1.391 . S
C485 C484 1.446 . S
C485 C486 1.339 . S
C485 H520 0.949 . S
C486 C485 1.339 . S
C486 C487 1.439 . S
C486 H521 0.950 . S
C487 N483 1.383 . S
C487 C486 1.439 . S
C487 C516 1.392 . S
N488 Co482 2.008 . S
N488 C489 1.376 . S
N488 C492 1.374 . S
C489 N488 1.376 . S
C489 C490 1.443 . S
C489 C516 1.389 . S
C490 C489 1.443 . S
C490 C491 1.340 . S
C490 H522 0.951 . S
C491 C490 1.340 . S
C491 C492 1.439 . S
C491 H523 0.950 . S
C492 N488 1.374 . S
C492 C491 1.439 . S
C492 C517 1.395 . S
N493 Co482 1.995 . S
N493 C494 1.376 . S
N493 C497 1.383 . S
C494 N493 1.376 . S
C494 C495 1.446 . S
C494 C517 1.391 . S
C495 C494 1.446 . S
C495 C496 1.339 . S
C495 H524 0.949 . S
C496 C495 1.339 . S
C496 C497 1.439 . S
C496 H525 0.950 . S
C497 N493 1.383 . S
C497 C496 1.439 . S
C497 C515 1.392 . S
N498 Co482 2.282 . S
N498 C501 1.332 . S
N498 C503 1.332 . S
C499 C500 1.386 . S
C499 C502 1.388 . S
C500 C499 1.386 . S
C500 C501 1.382 . S
C500 H526 0.950 . S
C501 N498 1.332 . S
C501 C500 1.382 . S
C501 H512 0.952 . S
C502 C499 1.388 . S
C502 C503 1.382 . S
C502 H527 0.950 . S
C503 N498 1.332 . S
C503 C502 1.382 . S
C503 H513 0.948 . S
N504 Co482 2.282 . S
N504 C508 1.332 . S
N504 C509 1.332 . S
C505 C506 1.388 . S
C505 C509 1.382 . S
C505 H528 0.950 . S
C506 C505 1.388 . S
C506 C507 1.386 . S
C507 C506 1.386 . S
C507 C508 1.382 . S
C507 H529 0.950 . S
C508 N504 1.332 . S
C508 C507 1.382 . S
C508 H510 0.952 . S
C509 N504 1.332 . S
C509 C505 1.382 . S
C509 H511 0.948 . S
H510 C508 0.952 . S
H511 C509 0.948 . S
H512 C501 0.952 . S
H513 C503 0.948 . S
C514 C480 1.395 . S
C514 C484 1.391 . S
C515 C477 1.389 . S
C515 C497 1.392 . S
C516 C487 1.392 . S
C516 C489 1.389 . S
C517 C492 1.395 . S
C517 C494 1.391 . S
H518 C478 0.951 . S
H519 C479 0.950 . S
H520 C485 0.949 . S
H521 C486 0.950 . S
H522 C490 0.951 . S
H523 C491 0.950 . S
H524 C495 0.949 . S
H525 C496 0.950 . S
H526 C500 0.950 . S
H527 C502 0.950 . S
H528 C505 0.950 . S
H529 C507 0.950 . S
C530 C531 1.443 . S
C530 N534 1.376 . S
C530 C568 1.389 . S
C531 C530 1.443 . S
C531 C532 1.340 . S
C531 H571 0.951 . S
C532 C531 1.340 . S
C532 C533 1.439 . S
C532 H572 0.950 . S
C533 C532 1.439 . S
C533 N534 1.374 . S
C533 C567 1.395 . S
N534 C530 1.376 . S
N534 C533 1.374 . S
N534 Co535 2.008 . S
Co535 N534 2.008 . S
Co535 N536 1.995 . S
Co535 N541 2.008 . S
Co535 N546 1.995 . S
Co535 N551 2.282 . S
Co535 N557 2.282 . S
N536 Co535 1.995 . S
N536 C537 1.376 . S
N536 C540 1.383 . S
C537 N536 1.376 . S
C537 C538 1.446 . S
C537 C567 1.391 . S
C538 C537 1.446 . S
C538 C539 1.339 . S
C538 H573 0.949 . S
C539 C538 1.339 . S
C539 C540 1.439 . S
C539 H574 0.950 . S
C540 N536 1.383 . S
C540 C539 1.439 . S
C540 C569 1.392 . S
N541 Co535 2.008 . S
N541 C542 1.376 . S
N541 C545 1.374 . S
C542 N541 1.376 . S
C542 C543 1.443 . S
C542 C569 1.389 . S
C543 C542 1.443 . S
C543 C544 1.340 . S
C543 H575 0.951 . S
C544 C543 1.340 . S
C544 C545 1.439 . S
C544 H576 0.950 . S
C545 N541 1.374 . S
C545 C544 1.439 . S
C545 C570 1.395 . S
N546 Co535 1.995 . S
N546 C547 1.376 . S
N546 C550 1.383 . S
C547 N546 1.376 . S
C547 C548 1.446 . S
C547 C570 1.391 . S
C548 C547 1.446 . S
C548 C549 1.339 . S
C548 H577 0.949 . S
C549 C548 1.339 . S
C549 C550 1.439 . S
C549 H578 0.950 . S
C550 N546 1.383 . S
C550 C549 1.439 . S
C550 C568 1.392 . S
N551 Co535 2.282 . S
N551 C554 1.332 . S
N551 C556 1.332 . S
C552 C553 1.386 . S
C552 C555 1.388 . S
C553 C552 1.386 . S
C553 C554 1.382 . S
C553 H579 0.950 . S
C554 N551 1.332 . S
C554 C553 1.382 . S
C554 H565 0.952 . S
C555 C552 1.388 . S
C555 C556 1.382 . S
C555 H580 0.950 . S
C556 N551 1.332 . S
C556 C555 1.382 . S
C556 H566 0.948 . S
N557 Co535 2.282 . S
N557 C561 1.332 . S
N557 C562 1.332 . S
C558 C559 1.388 . S
C558 C562 1.382 . S
C558 H581 0.950 . S
C559 C558 1.388 . S
C559 C560 1.386 . S
C560 C559 1.386 . S
C560 C561 1.382 . S
C560 H582 0.950 . S
C561 N557 1.332 . S
C561 C560 1.382 . S
C561 H563 0.952 . S
C562 N557 1.332 . S
C562 C558 1.382 . S
C562 H564 0.948 . S
H563 C561 0.952 . S
H564 C562 0.948 . S
H565 C554 0.952 . S
H566 C556 0.948 . S
C567 C533 1.395 . S
C567 C537 1.391 . S
C568 C530 1.389 . S
C568 C550 1.392 . S
C569 C540 1.392 . S
C569 C542 1.389 . S
C570 C545 1.395 . S
C570 C547 1.391 . S
H571 C531 0.951 . S
H572 C532 0.950 . S
H573 C538 0.949 . S
H574 C539 0.950 . S
H575 C543 0.951 . S
H576 C544 0.950 . S
H577 C548 0.949 . S
H578 C549 0.950 . S
H579 C553 0.950 . S
H580 C555 0.950 . S
H581 C558 0.950 . S
H582 C560 0.950 . S
C583 C584 1.443 . S
C583 N587 1.376 . S
C583 C621 1.389 . S
C584 C583 1.443 . S
C584 C585 1.340 . S
C584 H624 0.951 . S
C585 C584 1.340 . S
C585 C586 1.439 . S
C585 H625 0.950 . S
C586 C585 1.439 . S
C586 N587 1.374 . S
C586 C620 1.395 . S
N587 C583 1.376 . S
N587 C586 1.374 . S
N587 Co588 2.008 . S
Co588 N587 2.008 . S
Co588 N589 1.995 . S
Co588 N594 2.008 . S
Co588 N599 1.995 . S
Co588 N604 2.282 . S
Co588 N610 2.282 . S
N589 Co588 1.995 . S
N589 C590 1.376 . S
N589 C593 1.383 . S
C590 N589 1.376 . S
C590 C591 1.446 . S
C590 C620 1.391 . S
C591 C590 1.446 . S
C591 C592 1.339 . S
C591 H626 0.949 . S
C592 C591 1.339 . S
C592 C593 1.439 . S
C592 H627 0.950 . S
C593 N589 1.383 . S
C593 C592 1.439 . S
C593 C622 1.392 . S
N594 Co588 2.008 . S
N594 C595 1.376 . S
N594 C598 1.374 . S
C595 N594 1.376 . S
C595 C596 1.443 . S
C595 C622 1.389 . S
C596 C595 1.443 . S
C596 C597 1.340 . S
C596 H628 0.951 . S
C597 C596 1.340 . S
C597 C598 1.439 . S
C597 H629 0.950 . S
C598 N594 1.374 . S
C598 C597 1.439 . S
C598 C623 1.395 . S
N599 Co588 1.995 . S
N599 C600 1.376 . S
N599 C603 1.383 . S
C600 N599 1.376 . S
C600 C601 1.446 . S
C600 C623 1.391 . S
C601 C600 1.446 . S
C601 C602 1.339 . S
C601 H630 0.949 . S
C602 C601 1.339 . S
C602 C603 1.439 . S
C602 H631 0.950 . S
C603 N599 1.383 . S
C603 C602 1.439 . S
C603 C621 1.392 . S
N604 Co588 2.282 . S
N604 C607 1.332 . S
N604 C609 1.332 . S
C605 C606 1.386 . S
C605 C608 1.388 . S
C606 C605 1.386 . S
C606 C607 1.382 . S
C606 H632 0.950 . S
C607 N604 1.332 . S
C607 C606 1.382 . S
C607 H618 0.952 . S
C608 C605 1.388 . S
C608 C609 1.382 . S
C608 H633 0.950 . S
C609 N604 1.332 . S
C609 C608 1.382 . S
C609 H619 0.948 . S
N610 Co588 2.282 . S
N610 C614 1.332 . S
N610 C615 1.332 . S
C611 C612 1.388 . S
C611 C615 1.382 . S
C611 H634 0.950 . S
C612 C611 1.388 . S
C612 C613 1.386 . S
C613 C612 1.386 . S
C613 C614 1.382 . S
C613 H635 0.950 . S
C614 N610 1.332 . S
C614 C613 1.382 . S
C614 H616 0.952 . S
C615 N610 1.332 . S
C615 C611 1.382 . S
C615 H617 0.948 . S
H616 C614 0.952 . S
H617 C615 0.948 . S
H618 C607 0.952 . S
H619 C609 0.948 . S
C620 C586 1.395 . S
C620 C590 1.391 . S
C621 C583 1.389 . S
C621 C603 1.392 . S
C622 C593 1.392 . S
C622 C595 1.389 . S
C623 C598 1.395 . S
C623 C600 1.391 . S
H624 C584 0.951 . S
H625 C585 0.950 . S
H626 C591 0.949 . S
H627 C592 0.950 . S
H628 C596 0.951 . S
H629 C597 0.950 . S
H630 C601 0.949 . S
H631 C602 0.950 . S
H632 C606 0.950 . S
H633 C608 0.950 . S
H634 C611 0.950 . S
H635 C613 0.950 . S
C636 C637 1.443 . S
C636 N640 1.376 . S
C636 C674 1.389 . S
C637 C636 1.443 . S
C637 C638 1.340 . S
C637 H677 0.951 . S
C638 C637 1.340 . S
C638 C639 1.439 . S
C638 H678 0.950 . S
C639 C638 1.439 . S
C639 N640 1.374 . S
C639 C673 1.395 . S
N640 C636 1.376 . S
N640 C639 1.374 . S
N640 Co641 2.008 . S
Co641 N640 2.008 . S
Co641 N642 1.995 . S
Co641 N647 2.008 . S
Co641 N652 1.995 . S
Co641 N657 2.282 . S
Co641 N663 2.282 . S
N642 Co641 1.995 . S
N642 C643 1.376 . S
N642 C646 1.383 . S
C643 N642 1.376 . S
C643 C644 1.446 . S
C643 C673 1.391 . S
C644 C643 1.446 . S
C644 C645 1.339 . S
C644 H679 0.949 . S
C645 C644 1.339 . S
C645 C646 1.439 . S
C645 H680 0.950 . S
C646 N642 1.383 . S
C646 C645 1.439 . S
C646 C675 1.392 . S
N647 Co641 2.008 . S
N647 C648 1.376 . S
N647 C651 1.374 . S
C648 N647 1.376 . S
C648 C649 1.443 . S
C648 C675 1.389 . S
C649 C648 1.443 . S
C649 C650 1.340 . S
C649 H681 0.951 . S
C650 C649 1.340 . S
C650 C651 1.439 . S
C650 H682 0.950 . S
C651 N647 1.374 . S
C651 C650 1.439 . S
C651 C676 1.395 . S
N652 Co641 1.995 . S
N652 C653 1.376 . S
N652 C656 1.383 . S
C653 N652 1.376 . S
C653 C654 1.446 . S
C653 C676 1.391 . S
C654 C653 1.446 . S
C654 C655 1.339 . S
C654 H683 0.949 . S
C655 C654 1.339 . S
C655 C656 1.439 . S
C655 H684 0.950 . S
C656 N652 1.383 . S
C656 C655 1.439 . S
C656 C674 1.392 . S
N657 Co641 2.282 . S
N657 C660 1.332 . S
N657 C662 1.332 . S
C658 C659 1.386 . S
C658 C661 1.388 . S
C659 C658 1.386 . S
C659 C660 1.382 . S
C659 H685 0.950 . S
C660 N657 1.332 . S
C660 C659 1.382 . S
C660 H671 0.952 . S
C661 C658 1.388 . S
C661 C662 1.382 . S
C661 H686 0.950 . S
C662 N657 1.332 . S
C662 C661 1.382 . S
C662 H672 0.948 . S
N663 Co641 2.282 . S
N663 C667 1.332 . S
N663 C668 1.332 . S
C664 C665 1.388 . S
C664 C668 1.382 . S
C664 H687 0.950 . S
C665 C664 1.388 . S
C665 C666 1.386 . S
C666 C665 1.386 . S
C666 C667 1.382 . S
C666 H688 0.950 . S
C667 N663 1.332 . S
C667 C666 1.382 . S
C667 H669 0.952 . S
C668 N663 1.332 . S
C668 C664 1.382 . S
C668 H670 0.948 . S
H669 C667 0.952 . S
H670 C668 0.948 . S
H671 C660 0.952 . S
H672 C662 0.948 . S
C673 C639 1.395 . S
C673 C643 1.391 . S
C674 C636 1.389 . S
C674 C656 1.392 . S
C675 C646 1.392 . S
C675 C648 1.389 . S
C676 C651 1.395 . S
C676 C653 1.391 . S
H677 C637 0.951 . S
H678 C638 0.950 . S
H679 C644 0.949 . S
H680 C645 0.950 . S
H681 C649 0.951 . S
H682 C650 0.950 . S
H683 C654 0.949 . S
H684 C655 0.950 . S
H685 C659 0.950 . S
H686 C661 0.950 . S
H687 C664 0.950 . S
H688 C666 0.950 . S
C689 C690 1.443 . S
C689 N693 1.376 . S
C689 C727 1.389 . S
C690 C689 1.443 . S
C690 C691 1.340 . S
C690 H730 0.951 . S
C691 C690 1.340 . S
C691 C692 1.439 . S
C691 H731 0.950 . S
C692 C691 1.439 . S
C692 N693 1.374 . S
C692 C726 1.395 . S
N693 C689 1.376 . S
N693 C692 1.374 . S
N693 Co694 2.008 . S
Co694 N693 2.008 . S
Co694 N695 1.995 . S
Co694 N700 2.008 . S
Co694 N705 1.995 . S
Co694 N710 2.282 . S
Co694 N716 2.282 . S
N695 Co694 1.995 . S
N695 C696 1.376 . S
N695 C699 1.383 . S
C696 N695 1.376 . S
C696 C697 1.446 . S
C696 C726 1.391 . S
C697 C696 1.446 . S
C697 C698 1.339 . S
C697 H732 0.949 . S
C698 C697 1.339 . S
C698 C699 1.439 . S
C698 H733 0.950 . S
C699 N695 1.383 . S
C699 C698 1.439 . S
C699 C728 1.392 . S
N700 Co694 2.008 . S
N700 C701 1.376 . S
N700 C704 1.374 . S
C701 N700 1.376 . S
C701 C702 1.443 . S
C701 C728 1.389 . S
C702 C701 1.443 . S
C702 C703 1.340 . S
C702 H734 0.951 . S
C703 C702 1.340 . S
C703 C704 1.439 . S
C703 H735 0.950 . S
C704 N700 1.374 . S
C704 C703 1.439 . S
C704 C729 1.395 . S
N705 Co694 1.995 . S
N705 C706 1.376 . S
N705 C709 1.383 . S
C706 N705 1.376 . S
C706 C707 1.446 . S
C706 C729 1.391 . S
C707 C706 1.446 . S
C707 C708 1.339 . S
C707 H736 0.949 . S
C708 C707 1.339 . S
C708 C709 1.439 . S
C708 H737 0.950 . S
C709 N705 1.383 . S
C709 C708 1.439 . S
C709 C727 1.392 . S
N710 Co694 2.282 . S
N710 C713 1.332 . S
N710 C715 1.332 . S
C711 C712 1.386 . S
C711 C714 1.388 . S
C712 C711 1.386 . S
C712 C713 1.382 . S
C712 H738 0.950 . S
C713 N710 1.332 . S
C713 C712 1.382 . S
C713 H724 0.952 . S
C714 C711 1.388 . S
C714 C715 1.382 . S
C714 H739 0.950 . S
C715 N710 1.332 . S
C715 C714 1.382 . S
C715 H725 0.948 . S
N716 Co694 2.282 . S
N716 C720 1.332 . S
N716 C721 1.332 . S
C717 C718 1.388 . S
C717 C721 1.382 . S
C717 H740 0.950 . S
C718 C717 1.388 . S
C718 C719 1.386 . S
C719 C718 1.386 . S
C719 C720 1.382 . S
C719 H741 0.950 . S
C720 N716 1.332 . S
C720 C719 1.382 . S
C720 H722 0.952 . S
C721 N716 1.332 . S
C721 C717 1.382 . S
C721 H723 0.948 . S
H722 C720 0.952 . S
H723 C721 0.948 . S
H724 C713 0.952 . S
H725 C715 0.948 . S
C726 C692 1.395 . S
C726 C696 1.391 . S
C727 C689 1.389 . S
C727 C709 1.392 . S
C728 C699 1.392 . S
C728 C701 1.389 . S
C729 C704 1.395 . S
C729 C706 1.391 . S
H730 C690 0.951 . S
H731 C691 0.950 . S
H732 C697 0.949 . S
H733 C698 0.950 . S
H734 C702 0.951 . S
H735 C703 0.950 . S
H736 C707 0.949 . S
H737 C708 0.950 . S
H738 C712 0.950 . S
H739 C714 0.950 . S
H740 C717 0.950 . S
H741 C719 0.950 . S
C742 C743 1.443 . S
C742 N746 1.376 . S
C742 C780 1.389 . S
C743 C742 1.443 . S
C743 C744 1.340 . S
C743 H783 0.951 . S
C744 C743 1.340 . S
C744 C745 1.439 . S
C744 H784 0.950 . S
C745 C744 1.439 . S
C745 N746 1.374 . S
C745 C779 1.395 . S
N746 C742 1.376 . S
N746 C745 1.374 . S
N746 Co747 2.008 . S
Co747 N746 2.008 . S
Co747 N748 1.995 . S
Co747 N753 2.008 . S
Co747 N758 1.995 . S
Co747 N763 2.282 . S
Co747 N769 2.282 . S
N748 Co747 1.995 . S
N748 C749 1.376 . S
N748 C752 1.383 . S
C749 N748 1.376 . S
C749 C750 1.446 . S
C749 C779 1.391 . S
C750 C749 1.446 . S
C750 C751 1.339 . S
C750 H785 0.949 . S
C751 C750 1.339 . S
C751 C752 1.439 . S
C751 H786 0.950 . S
C752 N748 1.383 . S
C752 C751 1.439 . S
C752 C781 1.392 . S
N753 Co747 2.008 . S
N753 C754 1.376 . S
N753 C757 1.374 . S
C754 N753 1.376 . S
C754 C755 1.443 . S
C754 C781 1.389 . S
C755 C754 1.443 . S
C755 C756 1.340 . S
C755 H787 0.951 . S
C756 C755 1.340 . S
C756 C757 1.439 . S
C756 H788 0.950 . S
C757 N753 1.374 . S
C757 C756 1.439 . S
C757 C782 1.395 . S
N758 Co747 1.995 . S
N758 C759 1.376 . S
N758 C762 1.383 . S
C759 N758 1.376 . S
C759 C760 1.446 . S
C759 C782 1.391 . S
C760 C759 1.446 . S
C760 C761 1.339 . S
C760 H789 0.949 . S
C761 C760 1.339 . S
C761 C762 1.439 . S
C761 H790 0.950 . S
C762 N758 1.383 . S
C762 C761 1.439 . S
C762 C780 1.392 . S
N763 Co747 2.282 . S
N763 C766 1.332 . S
N763 C768 1.332 . S
C764 C765 1.386 . S
C764 C767 1.388 . S
C765 C764 1.386 . S
C765 C766 1.382 . S
C765 H791 0.950 . S
C766 N763 1.332 . S
C766 C765 1.382 . S
C766 H777 0.952 . S
C767 C764 1.388 . S
C767 C768 1.382 . S
C767 H792 0.950 . S
C768 N763 1.332 . S
C768 C767 1.382 . S
C768 H778 0.948 . S
N769 Co747 2.282 . S
N769 C773 1.332 . S
N769 C774 1.332 . S
C770 C771 1.388 . S
C770 C774 1.382 . S
C770 H793 0.950 . S
C771 C770 1.388 . S
C771 C772 1.386 . S
C772 C771 1.386 . S
C772 C773 1.382 . S
C772 H794 0.950 . S
C773 N769 1.332 . S
C773 C772 1.382 . S
C773 H775 0.952 . S
C774 N769 1.332 . S
C774 C770 1.382 . S
C774 H776 0.948 . S
H775 C773 0.952 . S
H776 C774 0.948 . S
H777 C766 0.952 . S
H778 C768 0.948 . S
C779 C745 1.395 . S
C779 C749 1.391 . S
C780 C742 1.389 . S
C780 C762 1.392 . S
C781 C752 1.392 . S
C781 C754 1.389 . S
C782 C757 1.395 . S
C782 C759 1.391 . S
H783 C743 0.951 . S
H784 C744 0.950 . S
H785 C750 0.949 . S
H786 C751 0.950 . S
H787 C755 0.951 . S
H788 C756 0.950 . S
H789 C760 0.949 . S
H790 C761 0.950 . S
H791 C765 0.950 . S
H792 C767 0.950 . S
H793 C770 0.950 . S
H794 C772 0.950 . S
C795 C796 1.443 . S
C795 N799 1.376 . S
C795 C833 1.389 . S
C796 C795 1.443 . S
C796 C797 1.340 . S
C796 H836 0.951 . S
C797 C796 1.340 . S
C797 C798 1.439 . S
C797 H837 0.950 . S
C798 C797 1.439 . S
C798 N799 1.374 . S
C798 C832 1.395 . S
N799 C795 1.376 . S
N799 C798 1.374 . S
N799 Co800 2.008 . S
Co800 N799 2.008 . S
Co800 N801 1.995 . S
Co800 N806 2.008 . S
Co800 N811 1.995 . S
Co800 N816 2.282 . S
Co800 N822 2.282 . S
N801 Co800 1.995 . S
N801 C802 1.376 . S
N801 C805 1.383 . S
C802 N801 1.376 . S
C802 C803 1.446 . S
C802 C832 1.391 . S
C803 C802 1.446 . S
C803 C804 1.339 . S
C803 H838 0.949 . S
C804 C803 1.339 . S
C804 C805 1.439 . S
C804 H839 0.950 . S
C805 N801 1.383 . S
C805 C804 1.439 . S
C805 C834 1.392 . S
N806 Co800 2.008 . S
N806 C807 1.376 . S
N806 C810 1.374 . S
C807 N806 1.376 . S
C807 C808 1.443 . S
C807 C834 1.389 . S
C808 C807 1.443 . S
C808 C809 1.340 . S
C808 H840 0.951 . S
C809 C808 1.340 . S
C809 C810 1.439 . S
C809 H841 0.950 . S
C810 N806 1.374 . S
C810 C809 1.439 . S
C810 C835 1.395 . S
N811 Co800 1.995 . S
N811 C812 1.376 . S
N811 C815 1.383 . S
C812 N811 1.376 . S
C812 C813 1.446 . S
C812 C835 1.391 . S
C813 C812 1.446 . S
C813 C814 1.339 . S
C813 H842 0.949 . S
C814 C813 1.339 . S
C814 C815 1.439 . S
C814 H843 0.950 . S
C815 N811 1.383 . S
C815 C814 1.439 . S
C815 C833 1.392 . S
N816 Co800 2.282 . S
N816 C819 1.332 . S
N816 C821 1.332 . S
C817 C818 1.386 . S
C817 C820 1.388 . S
C818 C817 1.386 . S
C818 C819 1.382 . S
C818 H844 0.950 . S
C819 N816 1.332 . S
C819 C818 1.382 . S
C819 H830 0.952 . S
C820 C817 1.388 . S
C820 C821 1.382 . S
C820 H845 0.950 . S
C821 N816 1.332 . S
C821 C820 1.382 . S
C821 H831 0.948 . S
N822 Co800 2.282 . S
N822 C826 1.332 . S
N822 C827 1.332 . S
C823 C824 1.388 . S
C823 C827 1.382 . S
C823 H846 0.950 . S
C824 C823 1.388 . S
C824 C825 1.386 . S
C825 C824 1.386 . S
C825 C826 1.382 . S
C825 H847 0.950 . S
C826 N822 1.332 . S
C826 C825 1.382 . S
C826 H828 0.952 . S
C827 N822 1.332 . S
C827 C823 1.382 . S
C827 H829 0.948 . S
H828 C826 0.952 . S
H829 C827 0.948 . S
H830 C819 0.952 . S
H831 C821 0.948 . S
C832 C798 1.395 . S
C832 C802 1.391 . S
C833 C795 1.389 . S
C833 C815 1.392 . S
C834 C805 1.392 . S
C834 C807 1.389 . S
C835 C810 1.395 . S
C835 C812 1.391 . S
H836 C796 0.951 . S
H837 C797 0.950 . S
H838 C803 0.949 . S
H839 C804 0.950 . S
H840 C808 0.951 . S
H841 C809 0.950 . S
H842 C813 0.949 . S
H843 C814 0.950 . S
H844 C818 0.950 . S
H845 C820 0.950 . S
H846 C823 0.950 . S
H847 C825 0.950 . S
H848 C856 0.929 . S
H849 C858 0.930 . S
H850 C860 0.930 . S
H851 C863 0.929 . S
H852 C866 0.930 . S
H853 C868 0.960 . S
H854 C868 0.960 . S
H855 C868 0.960 . S
C856 H848 0.929 . S
C856 C857 1.377 . S
C856 C858 1.384 . S
C857 C856 1.377 . S
C857 C863 1.390 . S
C858 H849 0.930 . S
C858 C856 1.384 . S
C858 C859 1.372 . S
C859 C858 1.372 . S
C859 C860 1.400 . S
C859 C864 1.490 . S
C860 H850 0.930 . S
C860 C859 1.400 . S
C860 C863 1.386 . S
H861 C877 0.930 . S
H862 C878 0.931 . S
C863 H851 0.929 . S
C863 C857 1.390 . S
C863 C860 1.386 . S
C864 C859 1.490 . S
C864 C866 1.395 . S
C864 C867 1.403 . S
H865 C871 0.930 . S
C866 H852 0.930 . S
C866 C864 1.395 . S
C866 C869 1.403 . S
C867 C864 1.403 . S
C867 C868 1.524 . S
C867 C871 1.400 . S
C868 H853 0.960 . S
C868 H854 0.960 . S
C868 H855 0.960 . S
C868 C867 1.524 . S
C869 C866 1.403 . S
C869 C870 1.392 . S
C869 C873 1.495 . S
C870 C869 1.392 . S
C870 C871 1.385 . S
C870 C872 1.478 . S
C871 H865 0.930 . S
C871 C867 1.400 . S
C871 C870 1.385 . S
C872 C870 1.478 . S
C872 C874 1.381 . S
C872 C878 1.383 . S
C873 C869 1.495 . S
C873 H879 0.959 . S
C873 H880 0.961 . S
C873 H881 0.960 . S
C874 C872 1.381 . S
C874 C875 1.394 . S
C874 H882 0.930 . S
C875 C874 1.394 . S
C875 C876 1.383 . S
C875 H883 0.929 . S
C876 C875 1.383 . S
C876 C877 1.377 . S
C877 H861 0.930 . S
C877 C876 1.377 . S
C877 C878 1.379 . S
C878 H862 0.931 . S
C878 C872 1.383 . S
C878 C877 1.379 . S
H879 C873 0.959 . S
H880 C873 0.961 . S
H881 C873 0.960 . S
H882 C874 0.930 . S
H883 C875 0.929 . S
H884 C892 0.929 . S
H885 C894 0.930 . S
H886 C896 0.930 . S
H887 C899 0.929 . S
H888 C902 0.930 . S
H889 C904 0.960 . S
H890 C904 0.960 . S
H891 C904 0.960 . S
C892 H884 0.929 . S
C892 C893 1.377 . S
C892 C894 1.384 . S
C893 C892 1.377 . S
C893 C899 1.390 . S
C894 H885 0.930 . S
C894 C892 1.384 . S
C894 C895 1.372 . S
C895 C894 1.372 . S
C895 C896 1.400 . S
C895 C900 1.490 . S
C896 H886 0.930 . S
C896 C895 1.400 . S
C896 C899 1.386 . S
H897 C913 0.930 . S
H898 C914 0.931 . S
C899 H887 0.929 . S
C899 C893 1.390 . S
C899 C896 1.386 . S
C900 C895 1.490 . S
C900 C902 1.395 . S
C900 C903 1.403 . S
H901 C907 0.930 . S
C902 H888 0.930 . S
C902 C900 1.395 . S
C902 C905 1.403 . S
C903 C900 1.403 . S
C903 C904 1.524 . S
C903 C907 1.400 . S
C904 H889 0.960 . S
C904 H890 0.960 . S
C904 H891 0.960 . S
C904 C903 1.524 . S
C905 C902 1.403 . S
C905 C906 1.392 . S
C905 C909 1.495 . S
C906 C905 1.392 . S
C906 C907 1.385 . S
C906 C908 1.478 . S
C907 H901 0.930 . S
C907 C903 1.400 . S
C907 C906 1.385 . S
C908 C906 1.478 . S
C908 C910 1.381 . S
C908 C914 1.383 . S
C909 C905 1.495 . S
C909 H915 0.959 . S
C909 H916 0.961 . S
C909 H917 0.960 . S
C910 C908 1.381 . S
C910 C911 1.394 . S
C910 H918 0.930 . S
C911 C910 1.394 . S
C911 C912 1.383 . S
C911 H919 0.929 . S
C912 C911 1.383 . S
C912 C913 1.377 . S
C913 H897 0.930 . S
C913 C912 1.377 . S
C913 C914 1.379 . S
C914 H898 0.931 . S
C914 C908 1.383 . S
C914 C913 1.379 . S
H915 C909 0.959 . S
H916 C909 0.961 . S
H917 C909 0.960 . S
H918 C910 0.930 . S
H919 C911 0.929 . S
H920 C928 0.929 . S
H921 C930 0.930 . S
H922 C932 0.930 . S
H923 C935 0.929 . S
H924 C938 0.930 . S
H925 C940 0.960 . S
H926 C940 0.960 . S
H927 C940 0.960 . S
C928 H920 0.929 . S
C928 C929 1.377 . S
C928 C930 1.384 . S
C929 C928 1.377 . S
C929 C935 1.390 . S
C930 H921 0.930 . S
C930 C928 1.384 . S
C930 C931 1.372 . S
C931 C930 1.372 . S
C931 C932 1.400 . S
C931 C936 1.490 . S
C932 H922 0.930 . S
C932 C931 1.400 . S
C932 C935 1.386 . S
H933 C949 0.930 . S
H934 C950 0.931 . S
C935 H923 0.929 . S
C935 C929 1.390 . S
C935 C932 1.386 . S
C936 C931 1.490 . S
C936 C938 1.395 . S
C936 C939 1.403 . S
H937 C943 0.930 . S
C938 H924 0.930 . S
C938 C936 1.395 . S
C938 C941 1.403 . S
C939 C936 1.403 . S
C939 C940 1.524 . S
C939 C943 1.400 . S
C940 H925 0.960 . S
C940 H926 0.960 . S
C940 H927 0.960 . S
C940 C939 1.524 . S
C941 C938 1.403 . S
C941 C942 1.392 . S
C941 C945 1.495 . S
C942 C941 1.392 . S
C942 C943 1.385 . S
C942 C944 1.478 . S
C943 H937 0.930 . S
C943 C939 1.400 . S
C943 C942 1.385 . S
C944 C942 1.478 . S
C944 C946 1.381 . S
C944 C950 1.383 . S
C945 C941 1.495 . S
C945 H951 0.959 . S
C945 H952 0.961 . S
C945 H953 0.960 . S
C946 C944 1.381 . S
C946 C947 1.394 . S
C946 H954 0.930 . S
C947 C946 1.394 . S
C947 C948 1.383 . S
C947 H955 0.929 . S
C948 C947 1.383 . S
C948 C949 1.377 . S
C949 H933 0.930 . S
C949 C948 1.377 . S
C949 C950 1.379 . S
C950 H934 0.931 . S
C950 C944 1.383 . S
C950 C949 1.379 . S
H951 C945 0.959 . S
H952 C945 0.961 . S
H953 C945 0.960 . S
H954 C946 0.930 . S
H955 C947 0.929 . S
H956 C964 0.929 . S
H957 C966 0.930 . S
H958 C968 0.930 . S
H959 C971 0.929 . S
H960 C974 0.930 . S
H961 C976 0.960 . S
H962 C976 0.960 . S
H963 C976 0.960 . S
C964 H956 0.929 . S
C964 C965 1.377 . S
C964 C966 1.384 . S
C965 C964 1.377 . S
C965 C971 1.390 . S
C966 H957 0.930 . S
C966 C964 1.384 . S
C966 C967 1.372 . S
C967 C966 1.372 . S
C967 C968 1.400 . S
C967 C972 1.490 . S
C968 H958 0.930 . S
C968 C967 1.400 . S
C968 C971 1.386 . S
H969 C985 0.930 . S
H970 C986 0.931 . S
C971 H959 0.929 . S
C971 C965 1.390 . S
C971 C968 1.386 . S
C972 C967 1.490 . S
C972 C974 1.395 . S
C972 C975 1.403 . S
H973 C979 0.930 . S
C974 H960 0.930 . S
C974 C972 1.395 . S
C974 C977 1.403 . S
C975 C972 1.403 . S
C975 C976 1.524 . S
C975 C979 1.400 . S
C976 H961 0.960 . S
C976 H962 0.960 . S
C976 H963 0.960 . S
C976 C975 1.524 . S
C977 C974 1.403 . S
C977 C978 1.392 . S
C977 C981 1.495 . S
C978 C977 1.392 . S
C978 C979 1.385 . S
C978 C980 1.478 . S
C979 H973 0.930 . S
C979 C975 1.400 . S
C979 C978 1.385 . S
C980 C978 1.478 . S
C980 C982 1.381 . S
C980 C986 1.383 . S
C981 C977 1.495 . S
C981 H987 0.959 . S
C981 H988 0.961 . S
C981 H989 0.960 . S
C982 C980 1.381 . S
C982 C983 1.394 . S
C982 H990 0.930 . S
C983 C982 1.394 . S
C983 C984 1.383 . S
C983 H991 0.929 . S
C984 C983 1.383 . S
C984 C985 1.377 . S
C985 H969 0.930 . S
C985 C984 1.377 . S
C985 C986 1.379 . S
C986 H970 0.931 . S
C986 C980 1.383 . S
C986 C985 1.379 . S
H987 C981 0.959 . S
H988 C981 0.961 . S
H989 C981 0.960 . S
H990 C982 0.930 . S
H991 C983 0.929 . S
H992 C1000 0.929 . S
H993 C1002 0.930 . S
H994 C1004 0.930 . S
H995 C1007 0.929 . S
H996 C1010 0.930 . S
H997 C1012 0.960 . S
H998 C1012 0.960 . S
H999 C1012 0.960 . S
C1000 H992 0.929 . S
C1000 C1001 1.349 1_545 S
C1000 C1002 1.384 . S
C1001 C1000 1.349 1_565 S
C1001 C1007 1.399 . S
C1002 H993 0.930 . S
C1002 C1000 1.384 . S
C1002 C1003 1.372 . S
C1003 C1002 1.372 . S
C1003 C1004 1.400 . S
C1003 C1008 1.490 . S
C1004 H994 0.930 . S
C1004 C1003 1.400 . S
C1004 C1007 1.386 1_545 S
H1005 C1021 0.930 . S
H1006 C1022 0.931 . S
C1007 H995 0.929 . S
C1007 C1001 1.399 . S
C1007 C1004 1.386 1_565 S
C1008 C1003 1.490 . S
C1008 C1010 1.395 1_554 S
C1008 C1011 1.403 . S
H1009 C1015 0.944 . S
C1010 H996 0.930 . S
C1010 C1008 1.395 1_556 S
C1010 C1013 1.403 . S
C1011 C1008 1.403 . S
C1011 C1012 1.524 . S
C1011 C1015 1.400 1_554 S
C1012 H997 0.960 . S
C1012 H998 0.960 . S
C1012 H999 0.960 . S
C1012 C1011 1.524 . S
C1013 C1010 1.403 . S
C1013 C1014 1.392 . S
C1013 C1017 1.495 . S
C1014 C1013 1.392 . S
C1014 C1015 1.385 . S
C1014 C1016 1.478 . S
C1015 H1009 0.944 . S
C1015 C1011 1.400 1_556 S
C1015 C1014 1.385 . S
C1016 C1014 1.478 . S
C1016 C1018 1.381 . S
C1016 C1022 1.383 . S
C1017 C1013 1.495 . S
C1017 H1023 0.959 . S
C1017 H1024 0.961 . S
C1017 H1025 0.960 . S
C1018 C1016 1.381 . S
C1018 C1019 1.394 . S
C1018 H1026 0.930 . S
C1019 C1018 1.394 . S
C1019 C1020 1.383 . S
C1019 H1027 0.929 . S
C1020 C1019 1.383 . S
C1020 C1021 1.377 . S
C1021 H1005 0.930 . S
C1021 C1020 1.377 . S
C1021 C1022 1.379 . S
C1022 H1006 0.931 . S
C1022 C1016 1.383 . S
C1022 C1021 1.379 . S
H1023 C1017 0.959 . S
H1024 C1017 0.961 . S
H1025 C1017 0.960 . S
H1026 C1018 0.930 . S
H1027 C1019 0.929 . S
H1028 C1036 0.929 . S
H1029 C1038 0.930 . S
H1030 C1040 0.930 . S
H1031 C1043 0.929 . S
H1032 C1046 0.930 . S
H1033 C1048 0.960 . S
H1034 C1048 0.960 1_554 S
H1035 C1048 0.960 . S
C1036 H1028 0.929 . S
C1036 C1037 1.377 . S
C1036 C1038 1.384 . S
C1037 C1036 1.377 . S
C1037 C1043 1.390 . S
C1038 H1029 0.930 . S
C1038 C1036 1.384 . S
C1038 C1039 1.372 . S
C1039 C1038 1.372 . S
C1039 C1040 1.400 . S
C1039 C1044 1.490 . S
C1040 H1030 0.930 . S
C1040 C1039 1.400 . S
C1040 C1043 1.386 . S
H1041 C1057 0.930 . S
H1042 C1058 0.931 . S
C1043 H1031 0.929 . S
C1043 C1037 1.390 . S
C1043 C1040 1.386 . S
C1044 C1039 1.490 . S
C1044 C1046 1.395 . S
C1044 C1047 1.403 . S
H1045 C1051 0.930 . S
C1046 H1032 0.930 . S
C1046 C1044 1.395 . S
C1046 C1049 1.403 . S
C1047 C1044 1.403 . S
C1047 C1048 1.524 1_554 S
C1047 C1051 1.400 1_554 S
C1048 H1033 0.960 . S
C1048 H1034 0.960 1_556 S
C1048 H1035 0.960 . S
C1048 C1047 1.524 1_556 S
C1049 C1046 1.403 . S
C1049 C1050 1.392 1_554 S
C1049 C1053 1.495 . S
C1050 C1049 1.392 1_556 S
C1050 C1051 1.385 . S
C1050 C1052 1.478 . S
C1051 H1045 0.930 . S
C1051 C1047 1.400 1_556 S
C1051 C1050 1.385 . S
C1052 C1050 1.478 . S
C1052 C1054 1.381 . S
C1052 C1058 1.383 . S
C1053 C1049 1.495 . S
C1053 H1059 0.964 . S
C1053 H1060 0.961 1_455 S
C1053 H1061 0.960 1_455 S
C1054 C1052 1.381 . S
C1054 C1055 1.394 1_455 S
C1054 H1062 0.930 . S
C1055 C1054 1.394 1_655 S
C1055 C1056 1.383 . S
C1055 H1063 0.929 . S
C1056 C1055 1.383 . S
C1056 C1057 1.377 1_655 S
C1057 H1041 0.930 . S
C1057 C1056 1.377 1_455 S
C1057 C1058 1.379 . S
C1058 H1042 0.931 . S
C1058 C1052 1.383 . S
C1058 C1057 1.379 . S
H1059 C1053 0.964 . S
H1060 C1053 0.961 1_655 S
H1061 C1053 0.960 1_655 S
H1062 C1054 0.930 . S
H1063 C1055 0.929 . S
H1064 C1072 0.929 . S
H1065 C1074 0.930 . S
H1066 C1076 0.930 . S
H1067 C1079 0.929 . S
H1068 C1082 0.930 . S
H1069 C1084 0.960 . S
H1070 C1084 0.960 . S
H1071 C1084 0.960 . S
C1072 H1064 0.929 . S
C1072 C1073 1.377 . S
C1072 C1074 1.384 . S
C1073 C1072 1.377 . S
C1073 C1079 1.390 . S
C1074 H1065 0.930 . S
C1074 C1072 1.384 . S
C1074 C1075 1.372 . S
C1075 C1074 1.372 . S
C1075 C1076 1.400 . S
C1075 C1080 1.490 . S
C1076 H1066 0.930 . S
C1076 C1075 1.400 . S
C1076 C1079 1.386 . S
H1077 C1093 0.930 . S
H1078 C1094 0.931 1_545 S
C1079 H1067 0.929 . S
C1079 C1073 1.390 . S
C1079 C1076 1.386 . S
C1080 C1075 1.490 . S
C1080 C1082 1.395 1_556 S
C1080 C1083 1.403 . S
H1081 C1087 0.930 . S
C1082 H1068 0.930 . S
C1082 C1080 1.395 1_554 S
C1082 C1085 1.403 . S
C1083 C1080 1.403 . S
C1083 C1084 1.524 . S
C1083 C1087 1.400 . S
C1084 H1069 0.960 . S
C1084 H1070 0.960 . S
C1084 H1071 0.960 . S
C1084 C1083 1.524 . S
C1085 C1082 1.403 . S
C1085 C1086 1.392 . S
C1085 C1089 1.495 . S
C1086 C1085 1.392 . S
C1086 C1087 1.385 1_554 S
C1086 C1088 1.478 . S
C1087 H1081 0.930 . S
C1087 C1083 1.400 . S
C1087 C1086 1.385 1_556 S
C1088 C1086 1.478 . S
C1088 C1090 1.381 . S
C1088 C1094 1.383 . S
C1089 C1085 1.495 . S
C1089 H1095 0.959 . S
C1089 H1096 0.961 . S
C1089 H1097 0.960 . S
C1090 C1088 1.381 . S
C1090 C1091 1.394 . S
C1090 H1098 0.930 . S
C1091 C1090 1.394 . S
C1091 C1092 1.359 1_565 S
C1091 H1099 0.929 . S
C1092 C1091 1.359 1_545 S
C1092 C1093 1.386 . S
C1093 H1077 0.930 . S
C1093 C1092 1.386 . S
C1093 C1094 1.379 1_545 S
C1094 H1078 0.931 1_565 S
C1094 C1088 1.383 . S
C1094 C1093 1.379 1_565 S
H1095 C1089 0.959 . S
H1096 C1089 0.961 . S
H1097 C1089 0.960 . S
H1098 C1090 0.930 . S
H1099 C1091 0.929 . S
H1100 C1108 0.929 . S
H1101 C1110 0.930 . S
H1102 C1112 0.930 . S
H1103 C1115 0.929 . S
H1104 C1118 0.930 . S
H1105 C1120 0.960 . S
H1106 C1120 0.960 . S
H1107 C1120 0.960 . S
C1108 H1100 0.929 . S
C1108 C1109 1.377 . S
C1108 C1110 1.384 . S
C1109 C1108 1.377 . S
C1109 C1115 1.390 . S
C1110 H1101 0.930 . S
C1110 C1108 1.384 . S
C1110 C1111 1.372 . S
C1111 C1110 1.372 . S
C1111 C1112 1.400 . S
C1111 C1116 1.490 . S
C1112 H1102 0.930 . S
C1112 C1111 1.400 . S
C1112 C1115 1.386 . S
H1113 C1129 0.930 . S
H1114 C1130 0.931 . S
C1115 H1103 0.929 . S
C1115 C1109 1.390 . S
C1115 C1112 1.386 . S
C1116 C1111 1.490 . S
C1116 C1118 1.395 . S
C1116 C1119 1.403 . S
H1117 C1123 0.942 . S
C1118 H1104 0.930 . S
C1118 C1116 1.395 . S
C1118 C1121 1.403 1_554 S
C1119 C1116 1.403 . S
C1119 C1120 1.524 . S
C1119 C1123 1.366 1_554 S
C1120 H1105 0.960 . S
C1120 H1106 0.960 . S
C1120 H1107 0.960 . S
C1120 C1119 1.524 . S
C1121 C1118 1.403 1_556 S
C1121 C1122 1.392 . S
C1121 C1125 1.495 . S
C1122 C1121 1.392 . S
C1122 C1123 1.410 . S
C1122 C1124 1.478 . S
C1123 H1117 0.942 . S
C1123 C1119 1.366 1_556 S
C1123 C1122 1.410 . S
C1124 C1122 1.478 . S
C1124 C1126 1.381 . S
C1124 C1130 1.383 . S
C1125 C1121 1.495 . S
C1125 H1131 0.959 . S
C1125 H1132 0.961 . S
C1125 H1133 0.960 . S
C1126 C1124 1.381 . S
C1126 C1127 1.394 1_655 S
C1126 H1134 0.930 1_655 S
C1127 C1126 1.394 1_455 S
C1127 C1128 1.383 . S
C1127 H1135 0.929 . S
C1128 C1127 1.383 . S
C1128 C1129 1.377 1_455 S
C1129 H1113 0.930 . S
C1129 C1128 1.377 1_655 S
C1129 C1130 1.379 . S
C1130 H1114 0.931 . S
C1130 C1124 1.383 . S
C1130 C1129 1.379 . S
H1131 C1125 0.959 . S
H1132 C1125 0.961 . S
H1133 C1125 0.960 . S
H1134 C1126 0.930 1_455 S
H1135 C1127 0.929 . S
H1136 C1144 0.929 . S
H1137 C1146 0.930 . S
H1138 C1148 0.930 . S
H1139 C1151 0.929 . S
H1140 C1154 0.930 . S
H1141 C1156 0.960 . S
H1142 C1156 0.960 . S
H1143 C1156 0.960 . S
C1144 H1136 0.929 . S
C1144 C1145 1.377 . S
C1144 C1146 1.384 . S
C1145 C1144 1.377 . S
C1145 C1151 1.390 . S
C1146 H1137 0.930 . S
C1146 C1144 1.384 . S
C1146 C1147 1.372 . S
C1147 C1146 1.372 . S
C1147 C1148 1.400 . S
C1147 C1152 1.490 . S
C1148 H1138 0.930 . S
C1148 C1147 1.400 . S
C1148 C1151 1.386 . S
H1149 C1165 0.930 . S
H1150 C1166 0.931 . S
C1151 H1139 0.929 . S
C1151 C1145 1.390 . S
C1151 C1148 1.386 . S
C1152 C1147 1.490 . S
C1152 C1154 1.395 . S
C1152 C1155 1.403 . S
H1153 C1159 0.930 . S
C1154 H1140 0.930 . S
C1154 C1152 1.395 . S
C1154 C1157 1.403 . S
C1155 C1152 1.403 . S
C1155 C1156 1.524 . S
C1155 C1159 1.400 . S
C1156 H1141 0.960 . S
C1156 H1142 0.960 . S
C1156 H1143 0.960 . S
C1156 C1155 1.524 . S
C1157 C1154 1.403 . S
C1157 C1158 1.392 . S
C1157 C1161 1.495 . S
C1158 C1157 1.392 . S
C1158 C1159 1.385 . S
C1158 C1160 1.478 . S
C1159 H1153 0.930 . S
C1159 C1155 1.400 . S
C1159 C1158 1.385 . S
C1160 C1158 1.478 . S
C1160 C1162 1.381 . S
C1160 C1166 1.383 . S
C1161 C1157 1.495 . S
C1161 H1167 0.959 . S
C1161 H1168 0.961 . S
C1161 H1169 0.960 . S
C1162 C1160 1.381 . S
C1162 C1163 1.394 . S
C1162 H1170 0.930 . S
C1163 C1162 1.394 . S
C1163 C1164 1.383 1_565 S
C1163 H1171 0.929 . S
C1164 C1163 1.383 1_545 S
C1164 C1165 1.377 . S
C1165 H1149 0.930 . S
C1165 C1164 1.377 . S
C1165 C1166 1.379 1_545 S
C1166 H1150 0.931 . S
C1166 C1160 1.383 . S
C1166 C1165 1.379 1_565 S
H1167 C1161 0.959 . S
H1168 C1161 0.961 . S
H1169 C1161 0.960 . S
H1170 C1162 0.930 . S
H1171 C1163 0.929 . S
H1172 C1180 0.948 . S
H1173 C1182 0.930 . S
H1174 C1184 0.930 . S
H1175 C1187 0.929 . S
H1176 C1190 0.930 . S
H1177 C1192 0.960 . S
H1178 C1192 0.960 . S
H1179 C1192 0.960 . S
C1180 H1172 0.948 . S
C1180 C1181 1.377 . S
C1180 C1182 1.366 1_455 S
C1181 C1180 1.377 . S
C1181 C1187 1.366 1_455 S
C1182 H1173 0.930 . S
C1182 C1180 1.366 1_655 S
C1182 C1183 1.372 . S
C1183 C1182 1.372 . S
C1183 C1184 1.400 . S
C1183 C1188 1.490 . S
C1184 H1174 0.930 . S
C1184 C1183 1.400 . S
C1184 C1187 1.386 . S
H1185 C1201 0.930 . S
H1186 C1202 0.931 . S
C1187 H1175 0.929 . S
C1187 C1181 1.366 1_655 S
C1187 C1184 1.386 . S
C1188 C1183 1.490 . S
C1188 C1190 1.395 . S
C1188 C1191 1.403 . S
H1189 C1195 0.930 . S
C1190 H1176 0.930 . S
C1190 C1188 1.395 . S
C1190 C1193 1.403 . S
C1191 C1188 1.403 . S
C1191 C1192 1.524 . S
C1191 C1195 1.400 . S
C1192 H1177 0.960 . S
C1192 H1178 0.960 . S
C1192 H1179 0.960 . S
C1192 C1191 1.524 . S
C1193 C1190 1.403 . S
C1193 C1194 1.392 . S
C1193 C1197 1.495 . S
C1194 C1193 1.392 . S
C1194 C1195 1.385 . S
C1194 C1196 1.478 . S
C1195 H1189 0.930 . S
C1195 C1191 1.400 . S
C1195 C1194 1.385 . S
C1196 C1194 1.478 . S
C1196 C1198 1.381 . S
C1196 C1202 1.383 . S
C1197 C1193 1.495 . S
C1197 H1203 0.959 . S
C1197 H1204 0.961 . S
C1197 H1205 0.960 . S
C1198 C1196 1.381 . S
C1198 C1199 1.394 . S
C1198 H1206 0.930 . S
C1199 C1198 1.394 . S
C1199 C1200 1.383 . S
C1199 H1207 0.929 . S
C1200 C1199 1.383 . S
C1200 C1201 1.377 . S
C1201 H1185 0.930 . S
C1201 C1200 1.377 . S
C1201 C1202 1.379 . S
C1202 H1186 0.931 . S
C1202 C1196 1.383 . S
C1202 C1201 1.379 . S
H1203 C1197 0.959 . S
H1204 C1197 0.961 . S
H1205 C1197 0.960 . S
H1206 C1198 0.930 . S
H1207 C1199 0.929 . S
H1208 C1216 0.929 . S
H1209 C1218 0.930 . S
H1210 C1220 0.930 . S
H1211 C1223 0.929 . S
H1212 C1226 0.930 . S
H1213 C1228 0.960 . S
H1214 C1228 0.960 . S
H1215 C1228 0.960 . S
C1216 H1208 0.929 . S
C1216 C1217 1.348 1_545 S
C1216 C1218 1.384 . S
C1217 C1216 1.348 1_565 S
C1217 C1223 1.400 . S
C1218 H1209 0.930 . S
C1218 C1216 1.384 . S
C1218 C1219 1.372 . S
C1219 C1218 1.372 . S
C1219 C1220 1.400 . S
C1219 C1224 1.490 . S
C1220 H1210 0.930 . S
C1220 C1219 1.400 . S
C1220 C1223 1.386 1_545 S
H1221 C1237 0.930 . S
H1222 C1238 0.931 . S
C1223 H1211 0.929 . S
C1223 C1217 1.400 . S
C1223 C1220 1.386 1_565 S
C1224 C1219 1.490 . S
C1224 C1226 1.395 . S
C1224 C1227 1.403 . S
H1225 C1231 0.930 . S
C1226 H1212 0.930 . S
C1226 C1224 1.395 . S
C1226 C1229 1.403 . S
C1227 C1224 1.403 . S
C1227 C1228 1.524 . S
C1227 C1231 1.400 . S
C1228 H1213 0.960 . S
C1228 H1214 0.960 . S
C1228 H1215 0.960 . S
C1228 C1227 1.524 . S
C1229 C1226 1.403 . S
C1229 C1230 1.392 . S
C1229 C1233 1.495 . S
C1230 C1229 1.392 . S
C1230 C1231 1.385 . S
C1230 C1232 1.478 . S
C1231 H1225 0.930 . S
C1231 C1227 1.400 . S
C1231 C1230 1.385 . S
C1232 C1230 1.478 . S
C1232 C1234 1.381 . S
C1232 C1238 1.383 . S
C1233 C1229 1.495 . S
C1233 H1239 0.959 . S
C1233 H1240 0.961 . S
C1233 H1241 0.960 . S
C1234 C1232 1.381 . S
C1234 C1235 1.394 . S
C1234 H1242 0.930 . S
C1235 C1234 1.394 . S
C1235 C1236 1.383 . S
C1235 H1243 0.929 . S
C1236 C1235 1.383 . S
C1236 C1237 1.377 . S
C1237 H1221 0.930 . S
C1237 C1236 1.377 . S
C1237 C1238 1.379 . S
C1238 H1222 0.931 . S
C1238 C1232 1.383 . S
C1238 C1237 1.379 . S
H1239 C1233 0.959 . S
H1240 C1233 0.961 . S
H1241 C1233 0.960 . S
H1242 C1234 0.930 . S
H1243 C1235 0.929 . S
H1244 C1252 0.929 . S
H1245 C1254 0.930 . S
H1246 C1256 0.930 1_655 S
H1247 C1259 0.929 . S
H1248 C1262 0.930 . S
H1249 C1264 0.960 . S
H1250 C1264 0.960 . S
H1251 C1264 0.960 . S
C1252 H1244 0.929 . S
C1252 C1253 1.339 1_455 S
C1252 C1254 1.384 . S
C1253 C1252 1.339 1_655 S
C1253 C1259 1.406 . S
C1254 H1245 0.930 . S
C1254 C1252 1.384 . S
C1254 C1255 1.372 . S
C1255 C1254 1.372 . S
C1255 C1256 1.400 . S
C1255 C1260 1.490 . S
C1256 H1246 0.930 1_455 S
C1256 C1255 1.400 . S
C1256 C1259 1.386 1_455 S
H1257 C1273 0.930 . S
H1258 C1274 0.931 . S
C1259 H1247 0.929 . S
C1259 C1253 1.406 . S
C1259 C1256 1.386 1_655 S
C1260 C1255 1.490 . S
C1260 C1262 1.395 . S
C1260 C1263 1.403 . S
H1261 C1267 0.930 . S
C1262 H1248 0.930 . S
C1262 C1260 1.395 . S
C1262 C1265 1.403 . S
C1263 C1260 1.403 . S
C1263 C1264 1.524 . S
C1263 C1267 1.400 . S
C1264 H1249 0.960 . S
C1264 H1250 0.960 . S
C1264 H1251 0.960 . S
C1264 C1263 1.524 . S
C1265 C1262 1.403 . S
C1265 C1266 1.392 . S
C1265 C1269 1.495 . S
C1266 C1265 1.392 . S
C1266 C1267 1.385 . S
C1266 C1268 1.478 . S
C1267 H1261 0.930 . S
C1267 C1263 1.400 . S
C1267 C1266 1.385 . S
C1268 C1266 1.478 . S
C1268 C1270 1.381 . S
C1268 C1274 1.383 . S
C1269 C1265 1.495 . S
C1269 H1275 0.959 . S
C1269 H1276 0.961 . S
C1269 H1277 0.960 . S
C1270 C1268 1.381 . S
C1270 C1271 1.394 . S
C1270 H1278 0.930 . S
C1271 C1270 1.394 . S
C1271 C1272 1.383 . S
C1271 H1279 0.929 . S
C1272 C1271 1.383 . S
C1272 C1273 1.377 . S
C1273 H1257 0.930 . S
C1273 C1272 1.377 . S
C1273 C1274 1.379 . S
C1274 H1258 0.931 . S
C1274 C1268 1.383 . S
C1274 C1273 1.379 . S
H1275 C1269 0.959 . S
H1276 C1269 0.961 . S
H1277 C1269 0.960 . S
H1278 C1270 0.930 . S
H1279 C1271 0.929 . S
H1280 C1288 0.929 . S
H1281 C1290 0.930 . S
H1282 C1292 0.930 . S
H1283 C1295 0.929 . S
H1284 C1298 0.930 . S
H1285 C1300 0.960 . S
H1286 C1300 0.960 . S
H1287 C1300 0.960 . S
C1288 H1280 0.929 . S
C1288 C1289 1.377 . S
C1288 C1290 1.384 . S
C1289 C1288 1.377 . S
C1289 C1295 1.390 . S
C1290 H1281 0.930 . S
C1290 C1288 1.384 . S
C1290 C1291 1.372 . S
C1291 C1290 1.372 . S
C1291 C1292 1.400 . S
C1291 C1296 1.490 . S
C1292 H1282 0.930 . S
C1292 C1291 1.400 . S
C1292 C1295 1.386 . S
H1293 C1309 0.930 . S
H1294 C1310 0.931 . S
C1295 H1283 0.929 . S
C1295 C1289 1.390 . S
C1295 C1292 1.386 . S
C1296 C1291 1.490 . S
C1296 C1298 1.395 . S
C1296 C1299 1.403 . S
H1297 C1303 0.930 . S
C1298 H1284 0.930 . S
C1298 C1296 1.395 . S
C1298 C1301 1.403 . S
C1299 C1296 1.403 . S
C1299 C1300 1.524 . S
C1299 C1303 1.400 . S
C1300 H1285 0.960 . S
C1300 H1286 0.960 . S
C1300 H1287 0.960 . S
C1300 C1299 1.524 . S
C1301 C1298 1.403 . S
C1301 C1302 1.392 . S
C1301 C1305 1.495 . S
C1302 C1301 1.392 . S
C1302 C1303 1.385 . S
C1302 C1304 1.478 . S
C1303 H1297 0.930 . S
C1303 C1299 1.400 . S
C1303 C1302 1.385 . S
C1304 C1302 1.478 . S
C1304 C1306 1.381 . S
C1304 C1310 1.383 . S
C1305 C1301 1.495 . S
C1305 H1311 0.959 . S
C1305 H1312 0.961 . S
C1305 H1313 0.960 . S
C1306 C1304 1.381 . S
C1306 C1307 1.394 . S
C1306 H1314 0.930 . S
C1307 C1306 1.394 . S
C1307 C1308 1.383 . S
C1307 H1315 0.929 . S
C1308 C1307 1.383 . S
C1308 C1309 1.377 . S
C1309 H1293 0.930 . S
C1309 C1308 1.377 . S
C1309 C1310 1.379 . S
C1310 H1294 0.931 . S
C1310 C1304 1.383 . S
C1310 C1309 1.379 . S
H1311 C1305 0.959 . S
H1312 C1305 0.961 . S
H1313 C1305 0.960 . S
H1314 C1306 0.930 . S
H1315 C1307 0.929 . S
H1316 C1324 0.929 . S
H1317 C1326 0.930 . S
H1318 C1328 0.930 . S
H1319 C1331 0.929 . S
H1320 C1334 0.930 . S
H1321 C1336 0.960 . S
H1322 C1336 0.960 . S
H1323 C1336 0.960 . S
C1324 H1316 0.929 . S
C1324 C1325 1.377 . S
C1324 C1326 1.384 . S
C1325 C1324 1.377 . S
C1325 C1331 1.390 . S
C1326 H1317 0.930 . S
C1326 C1324 1.384 . S
C1326 C1327 1.372 . S
C1327 C1326 1.372 . S
C1327 C1328 1.400 . S
C1327 C1332 1.490 . S
C1328 H1318 0.930 . S
C1328 C1327 1.400 . S
C1328 C1331 1.386 . S
H1329 C1345 0.930 . S
H1330 C1346 0.931 . S
C1331 H1319 0.929 . S
C1331 C1325 1.390 . S
C1331 C1328 1.386 . S
C1332 C1327 1.490 . S
C1332 C1334 1.395 . S
C1332 C1335 1.403 . S
H1333 C1339 0.930 . S
C1334 H1320 0.930 . S
C1334 C1332 1.395 . S
C1334 C1337 1.403 . S
C1335 C1332 1.403 . S
C1335 C1336 1.524 . S
C1335 C1339 1.400 . S
C1336 H1321 0.960 . S
C1336 H1322 0.960 . S
C1336 H1323 0.960 . S
C1336 C1335 1.524 . S
C1337 C1334 1.403 . S
C1337 C1338 1.392 . S
C1337 C1341 1.495 . S
C1338 C1337 1.392 . S
C1338 C1339 1.385 . S
C1338 C1340 1.478 . S
C1339 H1333 0.930 . S
C1339 C1335 1.400 . S
C1339 C1338 1.385 . S
C1340 C1338 1.478 . S
C1340 C1342 1.381 . S
C1340 C1346 1.383 . S
C1341 C1337 1.495 . S
C1341 H1347 0.959 . S
C1341 H1348 0.961 . S
C1341 H1349 0.960 . S
C1342 C1340 1.381 . S
C1342 C1343 1.394 . S
C1342 H1350 0.930 . S
C1343 C1342 1.394 . S
C1343 C1344 1.383 . S
C1343 H1351 0.929 . S
C1344 C1343 1.383 . S
C1344 C1345 1.377 . S
C1345 H1329 0.930 . S
C1345 C1344 1.377 . S
C1345 C1346 1.379 . S
C1346 H1330 0.931 . S
C1346 C1340 1.383 . S
C1346 C1345 1.379 . S
H1347 C1341 0.959 . S
H1348 C1341 0.961 . S
H1349 C1341 0.960 . S
H1350 C1342 0.930 . S
H1351 C1343 0.929 . S
H1352 C1360 0.929 . S
H1353 C1362 0.930 . S
H1354 C1364 0.930 . S
H1355 C1367 0.929 . S
H1356 C1370 0.930 . S
H1357 C1372 0.960 . S
H1358 C1372 0.960 . S
H1359 C1372 0.960 . S
C1360 H1352 0.929 . S
C1360 C1361 1.377 . S
C1360 C1362 1.384 . S
C1361 C1360 1.377 . S
C1361 C1367 1.390 . S
C1362 H1353 0.930 . S
C1362 C1360 1.384 . S
C1362 C1363 1.372 . S
C1363 C1362 1.372 . S
C1363 C1364 1.400 . S
C1363 C1368 1.490 . S
C1364 H1354 0.930 . S
C1364 C1363 1.400 . S
C1364 C1367 1.386 . S
H1365 C1381 0.930 . S
H1366 C1382 0.931 . S
C1367 H1355 0.929 . S
C1367 C1361 1.390 . S
C1367 C1364 1.386 . S
C1368 C1363 1.490 . S
C1368 C1370 1.395 . S
C1368 C1371 1.403 . S
H1369 C1375 0.930 . S
C1370 H1356 0.930 . S
C1370 C1368 1.395 . S
C1370 C1373 1.403 . S
C1371 C1368 1.403 . S
C1371 C1372 1.524 . S
C1371 C1375 1.400 . S
C1372 H1357 0.960 . S
C1372 H1358 0.960 . S
C1372 H1359 0.960 . S
C1372 C1371 1.524 . S
C1373 C1370 1.403 . S
C1373 C1374 1.392 . S
C1373 C1377 1.495 . S
C1374 C1373 1.392 . S
C1374 C1375 1.385 . S
C1374 C1376 1.478 . S
C1375 H1369 0.930 . S
C1375 C1371 1.400 . S
C1375 C1374 1.385 . S
C1376 C1374 1.478 . S
C1376 C1378 1.381 . S
C1376 C1382 1.383 . S
C1377 C1373 1.495 . S
C1377 H1383 0.959 . S
C1377 H1384 0.961 . S
C1377 H1385 0.960 . S
C1378 C1376 1.381 . S
C1378 C1379 1.394 . S
C1378 H1386 0.930 . S
C1379 C1378 1.394 . S
C1379 C1380 1.383 . S
C1379 H1387 0.929 . S
C1380 C1379 1.383 . S
C1380 C1381 1.377 . S
C1381 H1365 0.930 . S
C1381 C1380 1.377 . S
C1381 C1382 1.379 . S
C1382 H1366 0.931 . S
C1382 C1376 1.383 . S
C1382 C1381 1.379 . S
H1383 C1377 0.959 . S
H1384 C1377 0.961 . S
H1385 C1377 0.960 . S
H1386 C1378 0.930 . S
H1387 C1379 0.929 . S
H1388 C1396 0.929 . S
H1389 C1398 0.930 . S
H1390 C1400 0.930 . S
H1391 C1403 0.929 . S
H1392 C1406 0.930 . S
H1393 C1408 0.960 . S
H1394 C1408 0.960 . S
H1395 C1408 0.960 . S
C1396 H1388 0.929 . S
C1396 C1397 1.377 . S
C1396 C1398 1.384 . S
C1397 C1396 1.377 . S
C1397 C1403 1.390 . S
C1398 H1389 0.930 . S
C1398 C1396 1.384 . S
C1398 C1399 1.372 . S
C1399 C1398 1.372 . S
C1399 C1400 1.400 . S
C1399 C1404 1.490 . S
C1400 H1390 0.930 . S
C1400 C1399 1.400 . S
C1400 C1403 1.386 . S
H1401 C1417 0.930 . S
H1402 C1418 0.931 . S
C1403 H1391 0.929 . S
C1403 C1397 1.390 . S
C1403 C1400 1.386 . S
C1404 C1399 1.490 . S
C1404 C1406 1.395 . S
C1404 C1407 1.403 . S
H1405 C1411 0.930 . S
C1406 H1392 0.930 . S
C1406 C1404 1.395 . S
C1406 C1409 1.403 . S
C1407 C1404 1.403 . S
C1407 C1408 1.524 . S
C1407 C1411 1.400 . S
C1408 H1393 0.960 . S
C1408 H1394 0.960 . S
C1408 H1395 0.960 . S
C1408 C1407 1.524 . S
C1409 C1406 1.403 . S
C1409 C1410 1.392 . S
C1409 C1413 1.495 . S
C1410 C1409 1.392 . S
C1410 C1411 1.385 . S
C1410 C1412 1.478 . S
C1411 H1405 0.930 . S
C1411 C1407 1.400 . S
C1411 C1410 1.385 . S
C1412 C1410 1.478 . S
C1412 C1414 1.381 . S
C1412 C1418 1.383 . S
C1413 C1409 1.495 . S
C1413 H1419 0.959 . S
C1413 H1420 0.961 . S
C1413 H1421 0.960 . S
C1414 C1412 1.381 . S
C1414 C1415 1.394 . S
C1414 H1422 0.930 . S
C1415 C1414 1.394 . S
C1415 C1416 1.383 . S
C1415 H1423 0.929 . S
C1416 C1415 1.383 . S
C1416 C1417 1.377 . S
C1417 H1401 0.930 . S
C1417 C1416 1.377 . S
C1417 C1418 1.379 . S
C1418 H1402 0.931 . S
C1418 C1412 1.383 . S
C1418 C1417 1.379 . S
H1419 C1413 0.959 . S
H1420 C1413 0.961 . S
H1421 C1413 0.960 . S
H1422 C1414 0.930 . S
H1423 C1415 0.929 . S
H1424 C1432 0.929 . S
H1425 C1434 0.930 . S
H1426 C1436 0.930 . S
H1427 C1439 0.929 . S
H1428 C1442 0.930 . S
H1429 C1444 0.960 . S
H1430 C1444 0.960 . S
H1431 C1444 0.960 . S
C1432 H1424 0.929 . S
C1432 C1433 1.377 . S
C1432 C1434 1.384 . S
C1433 C1432 1.377 . S
C1433 C1439 1.390 . S
C1434 H1425 0.930 . S
C1434 C1432 1.384 . S
C1434 C1435 1.372 . S
C1435 C1434 1.372 . S
C1435 C1436 1.400 . S
C1435 C1440 1.490 . S
C1436 H1426 0.930 . S
C1436 C1435 1.400 . S
C1436 C1439 1.386 . S
H1437 C1453 0.930 . S
H1438 C1454 0.931 . S
C1439 H1427 0.929 . S
C1439 C1433 1.390 . S
C1439 C1436 1.386 . S
C1440 C1435 1.490 . S
C1440 C1442 1.395 . S
C1440 C1443 1.403 . S
H1441 C1447 0.930 . S
C1442 H1428 0.930 . S
C1442 C1440 1.395 . S
C1442 C1445 1.403 . S
C1443 C1440 1.403 . S
C1443 C1444 1.524 . S
C1443 C1447 1.400 . S
C1444 H1429 0.960 . S
C1444 H1430 0.960 . S
C1444 H1431 0.960 . S
C1444 C1443 1.524 . S
C1445 C1442 1.403 . S
C1445 C1446 1.392 . S
C1445 C1449 1.495 . S
C1446 C1445 1.392 . S
C1446 C1447 1.385 . S
C1446 C1448 1.478 . S
C1447 H1441 0.930 . S
C1447 C1443 1.400 . S
C1447 C1446 1.385 . S
C1448 C1446 1.478 . S
C1448 C1450 1.381 . S
C1448 C1454 1.383 . S
C1449 C1445 1.495 . S
C1449 H1455 0.959 . S
C1449 H1456 0.961 . S
C1449 H1457 0.960 . S
C1450 C1448 1.381 . S
C1450 C1451 1.394 . S
C1450 H1458 0.930 . S
C1451 C1450 1.394 . S
C1451 C1452 1.383 . S
C1451 H1459 0.929 . S
C1452 C1451 1.383 . S
C1452 C1453 1.377 . S
C1453 H1437 0.930 . S
C1453 C1452 1.377 . S
C1453 C1454 1.379 . S
C1454 H1438 0.931 . S
C1454 C1448 1.383 . S
C1454 C1453 1.379 . S
H1455 C1449 0.959 . S
H1456 C1449 0.961 . S
H1457 C1449 0.960 . S
H1458 C1450 0.930 . S
H1459 C1451 0.929 . S
H1460 C1468 0.929 . S
H1461 C1470 0.930 . S
H1462 C1472 0.930 . S
H1463 C1475 0.929 . S
H1464 C1478 0.930 . S
H1465 C1480 0.960 . S
H1466 C1480 0.960 . S
H1467 C1480 0.960 . S
C1468 H1460 0.929 . S
C1468 C1469 1.377 . S
C1468 C1470 1.384 . S
C1469 C1468 1.377 . S
C1469 C1475 1.390 . S
C1470 H1461 0.930 . S
C1470 C1468 1.384 . S
C1470 C1471 1.372 . S
C1471 C1470 1.372 . S
C1471 C1472 1.400 . S
C1471 C1476 1.490 . S
C1472 H1462 0.930 . S
C1472 C1471 1.400 . S
C1472 C1475 1.386 . S
H1473 C1489 0.930 . S
H1474 C1490 0.931 . S
C1475 H1463 0.929 . S
C1475 C1469 1.390 . S
C1475 C1472 1.386 . S
C1476 C1471 1.490 . S
C1476 C1478 1.395 . S
C1476 C1479 1.403 . S
H1477 C1483 0.930 . S
C1478 H1464 0.930 . S
C1478 C1476 1.395 . S
C1478 C1481 1.403 . S
C1479 C1476 1.403 . S
C1479 C1480 1.524 . S
C1479 C1483 1.400 . S
C1480 H1465 0.960 . S
C1480 H1466 0.960 . S
C1480 H1467 0.960 . S
C1480 C1479 1.524 . S
C1481 C1478 1.403 . S
C1481 C1482 1.392 . S
C1481 C1485 1.495 . S
C1482 C1481 1.392 . S
C1482 C1483 1.385 . S
C1482 C1484 1.478 . S
C1483 H1477 0.930 . S
C1483 C1479 1.400 . S
C1483 C1482 1.385 . S
C1484 C1482 1.478 . S
C1484 C1486 1.381 . S
C1484 C1490 1.383 . S
C1485 C1481 1.495 . S
C1485 H1491 0.959 . S
C1485 H1492 0.961 . S
C1485 H1493 0.960 . S
C1486 C1484 1.381 . S
C1486 C1487 1.394 . S
C1486 H1494 0.930 . S
C1487 C1486 1.394 . S
C1487 C1488 1.383 . S
C1487 H1495 0.929 . S
C1488 C1487 1.383 . S
C1488 C1489 1.377 . S
C1489 H1473 0.930 . S
C1489 C1488 1.377 . S
C1489 C1490 1.379 . S
C1490 H1474 0.931 . S
C1490 C1484 1.383 . S
C1490 C1489 1.379 . S
H1491 C1485 0.959 . S
H1492 C1485 0.961 . S
H1493 C1485 0.960 . S
H1494 C1486 0.930 . S
H1495 C1487 0.929 . S
H1496 C1504 0.929 . S
H1497 C1506 0.930 . S
H1498 C1508 0.930 . S
H1499 C1511 0.929 . S
H1500 C1514 0.930 . S
H1501 C1516 0.960 . S
H1502 C1516 0.960 . S
H1503 C1516 0.960 . S
C1504 H1496 0.929 . S
C1504 C1505 1.377 . S
C1504 C1506 1.384 . S
C1505 C1504 1.377 . S
C1505 C1511 1.390 . S
C1506 H1497 0.930 . S
C1506 C1504 1.384 . S
C1506 C1507 1.372 . S
C1507 C1506 1.372 . S
C1507 C1508 1.400 . S
C1507 C1512 1.490 . S
C1508 H1498 0.930 . S
C1508 C1507 1.400 . S
C1508 C1511 1.386 . S
H1509 C1525 0.930 . S
H1510 C1526 0.931 . S
C1511 H1499 0.929 . S
C1511 C1505 1.390 . S
C1511 C1508 1.386 . S
C1512 C1507 1.490 . S
C1512 C1514 1.395 . S
C1512 C1515 1.403 . S
H1513 C1519 0.930 . S
C1514 H1500 0.930 . S
C1514 C1512 1.395 . S
C1514 C1517 1.403 . S
C1515 C1512 1.403 . S
C1515 C1516 1.524 . S
C1515 C1519 1.400 . S
C1516 H1501 0.960 . S
C1516 H1502 0.960 . S
C1516 H1503 0.960 . S
C1516 C1515 1.524 . S
C1517 C1514 1.403 . S
C1517 C1518 1.392 . S
C1517 C1521 1.495 . S
C1518 C1517 1.392 . S
C1518 C1519 1.385 . S
C1518 C1520 1.478 . S
C1519 H1513 0.930 . S
C1519 C1515 1.400 . S
C1519 C1518 1.385 . S
C1520 C1518 1.478 . S
C1520 C1522 1.381 . S
C1520 C1526 1.383 . S
C1521 C1517 1.495 . S
C1521 H1527 0.959 . S
C1521 H1528 0.961 . S
C1521 H1529 0.960 . S
C1522 C1520 1.381 . S
C1522 C1523 1.394 . S
C1522 H1530 0.930 . S
C1523 C1522 1.394 . S
C1523 C1524 1.383 . S
C1523 H1531 0.929 . S
C1524 C1523 1.383 . S
C1524 C1525 1.377 . S
C1525 H1509 0.930 . S
C1525 C1524 1.377 . S
C1525 C1526 1.379 . S
C1526 H1510 0.931 . S
C1526 C1520 1.383 . S
C1526 C1525 1.379 . S
H1527 C1521 0.959 . S
H1528 C1521 0.961 . S
H1529 C1521 0.960 . S
H1530 C1522 0.930 . S
H1531 C1523 0.929 . S
H1532 C1540 0.929 . S
H1533 C1542 0.930 . S
H1534 C1544 0.930 . S
H1535 C1547 0.929 . S
H1536 C1550 0.930 . S
H1537 C1552 0.960 . S
H1538 C1552 0.960 . S
H1539 C1552 0.960 . S
C1540 H1532 0.929 . S
C1540 C1541 1.377 . S
C1540 C1542 1.384 . S
C1541 C1540 1.377 . S
C1541 C1547 1.390 . S
C1542 H1533 0.930 . S
C1542 C1540 1.384 . S
C1542 C1543 1.372 . S
C1543 C1542 1.372 . S
C1543 C1544 1.400 . S
C1543 C1548 1.490 . S
C1544 H1534 0.930 . S
C1544 C1543 1.400 . S
C1544 C1547 1.386 . S
H1545 C1561 0.930 . S
H1546 C1562 0.931 . S
C1547 H1535 0.929 . S
C1547 C1541 1.390 . S
C1547 C1544 1.386 . S
C1548 C1543 1.490 . S
C1548 C1550 1.395 . S
C1548 C1551 1.403 . S
H1549 C1555 0.930 . S
C1550 H1536 0.930 . S
C1550 C1548 1.395 . S
C1550 C1553 1.403 . S
C1551 C1548 1.403 . S
C1551 C1552 1.524 . S
C1551 C1555 1.400 . S
C1552 H1537 0.960 . S
C1552 H1538 0.960 . S
C1552 H1539 0.960 . S
C1552 C1551 1.524 . S
C1553 C1550 1.403 . S
C1553 C1554 1.392 . S
C1553 C1557 1.495 . S
C1554 C1553 1.392 . S
C1554 C1555 1.385 . S
C1554 C1556 1.478 . S
C1555 H1549 0.930 . S
C1555 C1551 1.400 . S
C1555 C1554 1.385 . S
C1556 C1554 1.478 . S
C1556 C1558 1.381 . S
C1556 C1562 1.383 . S
C1557 C1553 1.495 . S
C1557 H1563 0.959 . S
C1557 H1564 0.961 . S
C1557 H1565 0.960 . S
C1558 C1556 1.381 . S
C1558 C1559 1.394 . S
C1558 H1566 0.930 . S
C1559 C1558 1.394 . S
C1559 C1560 1.383 . S
C1559 H1567 0.929 . S
C1560 C1559 1.383 . S
C1560 C1561 1.377 . S
C1561 H1545 0.930 . S
C1561 C1560 1.377 . S
C1561 C1562 1.379 . S
C1562 H1546 0.931 . S
C1562 C1556 1.383 . S
C1562 C1561 1.379 . S
H1563 C1557 0.959 . S
H1564 C1557 0.961 . S
H1565 C1557 0.960 . S
H1566 C1558 0.930 . S
H1567 C1559 0.929 . S
H1568 C1576 0.929 . S
H1569 C1578 0.930 . S
H1570 C1580 0.930 . S
H1571 C1583 0.929 . S
H1572 C1586 0.930 . S
H1573 C1588 0.960 . S
H1574 C1588 0.960 . S
H1575 C1588 0.960 . S
C1576 H1568 0.929 . S
C1576 C1577 1.377 . S
C1576 C1578 1.384 . S
C1577 C1576 1.377 . S
C1577 C1583 1.390 . S
C1578 H1569 0.930 . S
C1578 C1576 1.384 . S
C1578 C1579 1.372 . S
C1579 C1578 1.372 . S
C1579 C1580 1.400 . S
C1579 C1584 1.490 . S
C1580 H1570 0.930 . S
C1580 C1579 1.400 . S
C1580 C1583 1.386 . S
H1581 C1597 0.930 . S
H1582 C1598 0.931 . S
C1583 H1571 0.929 . S
C1583 C1577 1.390 . S
C1583 C1580 1.386 . S
C1584 C1579 1.490 . S
C1584 C1586 1.395 . S
C1584 C1587 1.403 . S
H1585 C1591 0.930 . S
C1586 H1572 0.930 . S
C1586 C1584 1.395 . S
C1586 C1589 1.403 . S
C1587 C1584 1.403 . S
C1587 C1588 1.524 . S
C1587 C1591 1.400 . S
C1588 H1573 0.960 . S
C1588 H1574 0.960 . S
C1588 H1575 0.960 . S
C1588 C1587 1.524 . S
C1589 C1586 1.403 . S
C1589 C1590 1.392 . S
C1589 C1593 1.495 . S
C1590 C1589 1.392 . S
C1590 C1591 1.385 . S
C1590 C1592 1.478 . S
C1591 H1585 0.930 . S
C1591 C1587 1.400 . S
C1591 C1590 1.385 . S
C1592 C1590 1.478 . S
C1592 C1594 1.381 . S
C1592 C1598 1.383 . S
C1593 C1589 1.495 . S
C1593 H1599 0.959 . S
C1593 H1600 0.961 . S
C1593 H1601 0.960 . S
C1594 C1592 1.381 . S
C1594 C1595 1.394 . S
C1594 H1602 0.930 . S
C1595 C1594 1.394 . S
C1595 C1596 1.383 . S
C1595 H1603 0.929 . S
C1596 C1595 1.383 . S
C1596 C1597 1.377 . S
C1597 H1581 0.930 . S
C1597 C1596 1.377 . S
C1597 C1598 1.379 . S
C1598 H1582 0.931 . S
C1598 C1592 1.383 . S
C1598 C1597 1.379 . S
H1599 C1593 0.959 . S
H1600 C1593 0.961 . S
H1601 C1593 0.960 . S
H1602 C1594 0.930 . S
H1603 C1595 0.929 . S
H1604 C1612 0.929 . S
H1605 C1614 0.930 . S
H1606 C1616 0.930 . S
H1607 C1619 0.929 . S
H1608 C1622 0.930 . S
H1609 C1624 0.960 . S
H1610 C1624 0.960 . S
H1611 C1624 0.960 . S
C1612 H1604 0.929 . S
C1612 C1613 1.377 . S
C1612 C1614 1.384 . S
C1613 C1612 1.377 . S
C1613 C1619 1.390 . S
C1614 H1605 0.930 . S
C1614 C1612 1.384 . S
C1614 C1615 1.372 . S
C1615 C1614 1.372 . S
C1615 C1616 1.400 . S
C1615 C1620 1.490 . S
C1616 H1606 0.930 . S
C1616 C1615 1.400 . S
C1616 C1619 1.386 . S
H1617 C1633 0.930 . S
H1618 C1634 0.931 . S
C1619 H1607 0.929 . S
C1619 C1613 1.390 . S
C1619 C1616 1.386 . S
C1620 C1615 1.490 . S
C1620 C1622 1.395 . S
C1620 C1623 1.403 . S
H1621 C1627 0.930 . S
C1622 H1608 0.930 . S
C1622 C1620 1.395 . S
C1622 C1625 1.403 . S
C1623 C1620 1.403 . S
C1623 C1624 1.524 . S
C1623 C1627 1.400 . S
C1624 H1609 0.960 . S
C1624 H1610 0.960 . S
C1624 H1611 0.960 . S
C1624 C1623 1.524 . S
C1625 C1622 1.403 . S
C1625 C1626 1.392 . S
C1625 C1629 1.495 . S
C1626 C1625 1.392 . S
C1626 C1627 1.385 . S
C1626 C1628 1.478 . S
C1627 H1621 0.930 . S
C1627 C1623 1.400 . S
C1627 C1626 1.385 . S
C1628 C1626 1.478 . S
C1628 C1630 1.381 . S
C1628 C1634 1.383 . S
C1629 C1625 1.495 . S
C1629 H1635 0.959 . S
C1629 H1636 0.961 . S
C1629 H1637 0.960 . S
C1630 C1628 1.381 . S
C1630 C1631 1.394 . S
C1630 H1638 0.930 . S
C1631 C1630 1.394 . S
C1631 C1632 1.383 . S
C1631 H1639 0.929 . S
C1632 C1631 1.383 . S
C1632 C1633 1.377 . S
C1633 H1617 0.930 . S
C1633 C1632 1.377 . S
C1633 C1634 1.379 . S
C1634 H1618 0.931 . S
C1634 C1628 1.383 . S
C1634 C1633 1.379 . S
H1635 C1629 0.959 . S
H1636 C1629 0.961 . S
H1637 C1629 0.960 . S
H1638 C1630 0.930 . S
H1639 C1631 0.929 . S
H1640 C1648 0.929 . S
H1641 C1650 0.930 . S
H1642 C1652 0.930 . S
H1643 C1655 0.929 . S
H1644 C1658 0.930 . S
H1645 C1660 0.960 . S
H1646 C1660 0.960 . S
H1647 C1660 0.960 . S
C1648 H1640 0.929 . S
C1648 C1649 1.377 . S
C1648 C1650 1.384 . S
C1649 C1648 1.377 . S
C1649 C1655 1.390 . S
C1650 H1641 0.930 . S
C1650 C1648 1.384 . S
C1650 C1651 1.372 . S
C1651 C1650 1.372 . S
C1651 C1652 1.400 . S
C1651 C1656 1.490 . S
C1652 H1642 0.930 . S
C1652 C1651 1.400 . S
C1652 C1655 1.386 . S
H1653 C1669 0.930 . S
H1654 C1670 0.931 . S
C1655 H1643 0.929 . S
C1655 C1649 1.390 . S
C1655 C1652 1.386 . S
C1656 C1651 1.490 . S
C1656 C1658 1.395 . S
C1656 C1659 1.403 . S
H1657 C1663 0.930 . S
C1658 H1644 0.930 . S
C1658 C1656 1.395 . S
C1658 C1661 1.403 . S
C1659 C1656 1.403 . S
C1659 C1660 1.524 . S
C1659 C1663 1.400 . S
C1660 H1645 0.960 . S
C1660 H1646 0.960 . S
C1660 H1647 0.960 . S
C1660 C1659 1.524 . S
C1661 C1658 1.403 . S
C1661 C1662 1.392 . S
C1661 C1665 1.495 . S
C1662 C1661 1.392 . S
C1662 C1663 1.385 . S
C1662 C1664 1.478 . S
C1663 H1657 0.930 . S
C1663 C1659 1.400 . S
C1663 C1662 1.385 . S
C1664 C1662 1.478 . S
C1664 C1666 1.381 . S
C1664 C1670 1.383 . S
C1665 C1661 1.495 . S
C1665 H1671 0.959 . S
C1665 H1672 0.961 . S
C1665 H1673 0.960 . S
C1666 C1664 1.381 . S
C1666 C1667 1.394 . S
C1666 H1674 0.930 . S
C1667 C1666 1.394 . S
C1667 C1668 1.383 . S
C1667 H1675 0.929 . S
C1668 C1667 1.383 . S
C1668 C1669 1.377 . S
C1669 H1653 0.930 . S
C1669 C1668 1.377 . S
C1669 C1670 1.379 . S
C1670 H1654 0.931 . S
C1670 C1664 1.383 . S
C1670 C1669 1.379 . S
H1671 C1665 0.959 . S
H1672 C1665 0.961 . S
H1673 C1665 0.960 . S
H1674 C1666 0.930 . S
H1675 C1667 0.929 . S
H1676 C1684 0.929 . S
H1677 C1686 0.930 . S
H1678 C1688 0.930 . S
H1679 C1691 0.929 . S
H1680 C1694 0.930 . S
H1681 C1696 0.960 . S
H1682 C1696 0.960 . S
H1683 C1696 0.960 . S
C1684 H1676 0.929 . S
C1684 C1685 1.377 . S
C1684 C1686 1.384 . S
C1685 C1684 1.377 . S
C1685 C1691 1.390 . S
C1686 H1677 0.930 . S
C1686 C1684 1.384 . S
C1686 C1687 1.372 . S
C1687 C1686 1.372 . S
C1687 C1688 1.400 . S
C1687 C1692 1.490 . S
C1688 H1678 0.930 . S
C1688 C1687 1.400 . S
C1688 C1691 1.386 . S
H1689 C1705 0.930 . S
H1690 C1706 0.931 . S
C1691 H1679 0.929 . S
C1691 C1685 1.390 . S
C1691 C1688 1.386 . S
C1692 C1687 1.490 . S
C1692 C1694 1.395 . S
C1692 C1695 1.403 . S
H1693 C1699 0.930 . S
C1694 H1680 0.930 . S
C1694 C1692 1.395 . S
C1694 C1697 1.403 . S
C1695 C1692 1.403 . S
C1695 C1696 1.524 . S
C1695 C1699 1.400 . S
C1696 H1681 0.960 . S
C1696 H1682 0.960 . S
C1696 H1683 0.960 . S
C1696 C1695 1.524 . S
C1697 C1694 1.403 . S
C1697 C1698 1.392 . S
C1697 C1701 1.495 . S
C1698 C1697 1.392 . S
C1698 C1699 1.385 . S
C1698 C1700 1.478 . S
C1699 H1693 0.930 . S
C1699 C1695 1.400 . S
C1699 C1698 1.385 . S
C1700 C1698 1.478 . S
C1700 C1702 1.381 . S
C1700 C1706 1.383 . S
C1701 C1697 1.495 . S
C1701 H1707 0.959 . S
C1701 H1708 0.961 . S
C1701 H1709 0.960 . S
C1702 C1700 1.381 . S
C1702 C1703 1.394 . S
C1702 H1710 0.930 . S
C1703 C1702 1.394 . S
C1703 C1704 1.383 . S
C1703 H1711 0.929 . S
C1704 C1703 1.383 . S
C1704 C1705 1.377 . S
C1705 H1689 0.930 . S
C1705 C1704 1.377 . S
C1705 C1706 1.379 . S
C1706 H1690 0.931 . S
C1706 C1700 1.383 . S
C1706 C1705 1.379 . S
H1707 C1701 0.959 . S
H1708 C1701 0.961 . S
H1709 C1701 0.960 . S
H1710 C1702 0.930 . S
H1711 C1703 0.929 . S
H1712 C1720 0.929 . S
H1713 C1722 0.930 . S
H1714 C1724 0.930 . S
H1715 C1727 0.929 . S
H1716 C1730 0.930 . S
H1717 C1732 0.960 . S
H1718 C1732 0.960 . S
H1719 C1732 0.960 . S
C1720 H1712 0.929 . S
C1720 C1721 1.377 . S
C1720 C1722 1.384 . S
C1721 C1720 1.377 . S
C1721 C1727 1.390 . S
C1722 H1713 0.930 . S
C1722 C1720 1.384 . S
C1722 C1723 1.372 . S
C1723 C1722 1.372 . S
C1723 C1724 1.400 . S
C1723 C1728 1.490 . S
C1724 H1714 0.930 . S
C1724 C1723 1.400 . S
C1724 C1727 1.386 . S
H1725 C1741 0.930 . S
H1726 C1742 0.931 . S
C1727 H1715 0.929 . S
C1727 C1721 1.390 . S
C1727 C1724 1.386 . S
C1728 C1723 1.490 . S
C1728 C1730 1.395 . S
C1728 C1731 1.403 1_655 S
H1729 C1735 0.930 . S
C1730 H1716 0.930 . S
C1730 C1728 1.395 . S
C1730 C1733 1.403 1_565 S
C1731 C1728 1.403 1_455 S
C1731 C1732 1.524 . S
C1731 C1735 1.400 1_565 S
C1732 H1717 0.960 . S
C1732 H1718 0.960 . S
C1732 H1719 0.960 . S
C1732 C1731 1.524 . S
C1733 C1730 1.403 1_545 S
C1733 C1734 1.392 1_655 S
C1733 C1737 1.495 . S
C1734 C1733 1.392 1_455 S
C1734 C1735 1.385 . S
C1734 C1736 1.478 . S
C1735 H1729 0.930 . S
C1735 C1731 1.400 1_545 S
C1735 C1734 1.385 . S
C1736 C1734 1.478 . S
C1736 C1738 1.381 . S
C1736 C1742 1.383 . S
C1737 C1733 1.495 . S
C1737 H1743 0.959 . S
C1737 H1744 0.961 . S
C1737 H1745 0.960 . S
C1738 C1736 1.381 . S
C1738 C1739 1.394 . S
C1738 H1746 0.930 . S
C1739 C1738 1.394 . S
C1739 C1740 1.383 . S
C1739 H1747 0.929 . S
C1740 C1739 1.383 . S
C1740 C1741 1.377 . S
C1741 H1725 0.930 . S
C1741 C1740 1.377 . S
C1741 C1742 1.379 . S
C1742 H1726 0.931 . S
C1742 C1736 1.383 . S
C1742 C1741 1.379 . S
H1743 C1737 0.959 . S
H1744 C1737 0.961 . S
H1745 C1737 0.960 . S
H1746 C1738 0.930 . S
H1747 C1739 0.929 . S
H1748 C1756 0.929 . S
H1749 C1758 0.930 . S
H1750 C1760 0.930 . S
H1751 C1763 0.929 . S
H1752 C1766 0.930 . S
H1753 C1768 0.960 1_455 S
H1754 C1768 0.960 . S
H1755 C1768 0.960 . S
C1756 H1748 0.929 . S
C1756 C1757 1.377 . S
C1756 C1758 1.384 . S
C1757 C1756 1.377 . S
C1757 C1763 1.390 . S
C1758 H1749 0.930 . S
C1758 C1756 1.384 . S
C1758 C1759 1.372 . S
C1759 C1758 1.372 . S
C1759 C1760 1.400 . S
C1759 C1764 1.490 . S
C1760 H1750 0.930 . S
C1760 C1759 1.400 . S
C1760 C1763 1.386 . S
H1761 C1777 0.930 . S
H1762 C1778 0.931 . S
C1763 H1751 0.929 . S
C1763 C1757 1.390 . S
C1763 C1760 1.386 . S
C1764 C1759 1.490 . S
C1764 C1766 1.395 1_545 S
C1764 C1767 1.403 . S
H1765 C1771 0.930 . S
C1766 H1752 0.930 . S
C1766 C1764 1.395 1_565 S
C1766 C1769 1.403 1_655 S
C1767 C1764 1.403 . S
C1767 C1768 1.524 . S
C1767 C1771 1.400 1_655 S
C1768 H1753 0.960 1_655 S
C1768 H1754 0.960 . S
C1768 H1755 0.960 . S
C1768 C1767 1.524 . S
C1769 C1766 1.403 1_455 S
C1769 C1770 1.392 . S
C1769 C1773 1.495 . S
C1770 C1769 1.392 . S
C1770 C1771 1.385 1_565 S
C1770 C1772 1.478 . S
C1771 H1765 0.930 . S
C1771 C1767 1.400 1_455 S
C1771 C1770 1.385 1_545 S
C1772 C1770 1.478 . S
C1772 C1774 1.381 . S
C1772 C1778 1.383 . S
C1773 C1769 1.495 . S
C1773 H1779 0.959 1_455 S
C1773 H1780 0.961 . S
C1773 H1781 0.960 . S
C1774 C1772 1.381 . S
C1774 C1775 1.394 . S
C1774 H1782 0.930 . S
C1775 C1774 1.394 . S
C1775 C1776 1.383 . S
C1775 H1783 0.929 . S
C1776 C1775 1.383 . S
C1776 C1777 1.377 . S
C1777 H1761 0.930 . S
C1777 C1776 1.377 . S
C1777 C1778 1.379 . S
C1778 H1762 0.931 . S
C1778 C1772 1.383 . S
C1778 C1777 1.379 . S
H1779 C1773 0.959 1_655 S
H1780 C1773 0.961 . S
H1781 C1773 0.960 . S
H1782 C1774 0.930 . S
H1783 C1775 0.929 . S
H1784 C1792 0.929 1_655 S
H1785 C1794 0.930 . S
H1786 C1796 0.930 . S
H1787 C1799 0.929 . S
H1788 C1802 0.930 . S
H1789 C1804 0.960 . S
H1790 C1804 0.960 . S
H1791 C1804 0.960 . S
C1792 H1784 0.929 1_455 S
C1792 C1793 1.377 . S
C1792 C1794 1.384 1_455 S
C1793 C1792 1.377 . S
C1793 C1799 1.390 . S
C1794 H1785 0.930 . S
C1794 C1792 1.384 1_655 S
C1794 C1795 1.372 1_655 S
C1795 C1794 1.372 1_455 S
C1795 C1796 1.400 . S
C1795 C1800 1.490 . S
C1796 H1786 0.930 . S
C1796 C1795 1.400 . S
C1796 C1799 1.386 . S
H1797 C1813 0.930 1_455 S
H1798 C1814 0.931 1_455 S
C1799 H1787 0.929 . S
C1799 C1793 1.390 . S
C1799 C1796 1.386 . S
C1800 C1795 1.490 . S
C1800 C1802 1.395 1_455 S
C1800 C1803 1.403 . S
H1801 C1807 0.930 . S
C1802 H1788 0.930 . S
C1802 C1800 1.395 1_655 S
C1802 C1805 1.403 . S
C1803 C1800 1.403 . S
C1803 C1804 1.524 . S
C1803 C1807 1.400 . S
C1804 H1789 0.960 . S
C1804 H1790 0.960 . S
C1804 H1791 0.960 . S
C1804 C1803 1.524 . S
C1805 C1802 1.403 . S
C1805 C1806 1.392 . S
C1805 C1809 1.495 . S
C1806 C1805 1.392 . S
C1806 C1807 1.385 1_655 S
C1806 C1808 1.478 . S
C1807 H1801 0.930 . S
C1807 C1803 1.400 . S
C1807 C1806 1.385 1_455 S
C1808 C1806 1.478 . S
C1808 C1810 1.381 . S
C1808 C1814 1.383 . S
C1809 C1805 1.495 . S
C1809 H1815 0.959 . S
C1809 H1816 0.961 . S
C1809 H1817 0.960 . S
C1810 C1808 1.381 . S
C1810 C1811 1.394 . S
C1810 H1818 0.930 . S
C1811 C1810 1.394 . S
C1811 C1812 1.383 . S
C1811 H1819 0.929 . S
C1812 C1811 1.383 . S
C1812 C1813 1.377 . S
C1813 H1797 0.930 1_655 S
C1813 C1812 1.377 . S
C1813 C1814 1.379 . S
C1814 H1798 0.931 1_655 S
C1814 C1808 1.383 . S
C1814 C1813 1.379 . S
H1815 C1809 0.959 . S
H1816 C1809 0.961 . S
H1817 C1809 0.960 . S
H1818 C1810 0.930 . S
H1819 C1811 0.929 . S
H1820 C1828 0.929 1_545 S
H1821 C1830 0.930 . S
H1822 C1832 0.930 . S
H1823 C1835 0.929 . S
H1824 C1838 0.930 . S
H1825 C1840 0.960 . S
H1826 C1840 0.960 . S
H1827 C1840 0.960 . S
C1828 H1820 0.929 1_565 S
C1828 C1829 1.377 . S
C1828 C1830 1.384 1_565 S
C1829 C1828 1.377 . S
C1829 C1835 1.390 . S
C1830 H1821 0.930 . S
C1830 C1828 1.384 1_545 S
C1830 C1831 1.372 1_545 S
C1831 C1830 1.372 1_565 S
C1831 C1832 1.400 . S
C1831 C1836 1.490 . S
C1832 H1822 0.930 . S
C1832 C1831 1.400 . S
C1832 C1835 1.386 . S
H1833 C1849 0.930 1_565 S
H1834 C1850 0.931 1_565 S
C1835 H1823 0.929 . S
C1835 C1829 1.390 . S
C1835 C1832 1.386 . S
C1836 C1831 1.490 . S
C1836 C1838 1.395 1_565 S
C1836 C1839 1.403 . S
H1837 C1843 0.930 . S
C1838 H1824 0.930 . S
C1838 C1836 1.395 1_545 S
C1838 C1841 1.403 . S
C1839 C1836 1.403 . S
C1839 C1840 1.524 . S
C1839 C1843 1.400 . S
C1840 H1825 0.960 . S
C1840 H1826 0.960 . S
C1840 H1827 0.960 . S
C1840 C1839 1.524 . S
C1841 C1838 1.403 . S
C1841 C1842 1.392 . S
C1841 C1845 1.495 . S
C1842 C1841 1.392 . S
C1842 C1843 1.385 1_545 S
C1842 C1844 1.478 . S
C1843 H1837 0.930 . S
C1843 C1839 1.400 . S
C1843 C1842 1.385 1_565 S
C1844 C1842 1.478 . S
C1844 C1846 1.381 . S
C1844 C1850 1.383 . S
C1845 C1841 1.495 . S
C1845 H1851 0.959 . S
C1845 H1852 0.961 . S
C1845 H1853 0.960 . S
C1846 C1844 1.381 . S
C1846 C1847 1.394 . S
C1846 H1854 0.930 . S
C1847 C1846 1.394 . S
C1847 C1848 1.383 . S
C1847 H1855 0.929 . S
C1848 C1847 1.383 . S
C1848 C1849 1.377 . S
C1849 H1833 0.930 1_545 S
C1849 C1848 1.377 . S
C1849 C1850 1.379 . S
C1850 H1834 0.931 1_545 S
C1850 C1844 1.383 . S
C1850 C1849 1.379 . S
H1851 C1845 0.959 . S
H1852 C1845 0.961 . S
H1853 C1845 0.960 . S
H1854 C1846 0.930 . S
H1855 C1847 0.929 . S
H1856 C1864 0.929 . S
H1857 C1866 0.930 . S
H1858 C1868 0.930 . S
H1859 C1871 0.929 . S
H1860 C1874 0.930 . S
H1861 C1876 0.960 . S
H1862 C1876 0.960 . S
H1863 C1876 0.960 . S
C1864 H1856 0.929 . S
C1864 C1865 1.377 . S
C1864 C1866 1.384 . S
C1865 C1864 1.377 . S
C1865 C1871 1.390 . S
C1866 H1857 0.930 . S
C1866 C1864 1.384 . S
C1866 C1867 1.372 . S
C1867 C1866 1.372 . S
C1867 C1868 1.400 . S
C1867 C1872 1.490 . S
C1868 H1858 0.930 . S
C1868 C1867 1.400 . S
C1868 C1871 1.386 . S
H1869 C1885 0.930 . S
H1870 C1886 0.931 . S
C1871 H1859 0.929 . S
C1871 C1865 1.390 . S
C1871 C1868 1.386 . S
C1872 C1867 1.490 . S
C1872 C1874 1.395 . S
C1872 C1875 1.403 . S
H1873 C1879 0.930 . S
C1874 H1860 0.930 . S
C1874 C1872 1.395 . S
C1874 C1877 1.403 . S
C1875 C1872 1.403 . S
C1875 C1876 1.524 . S
C1875 C1879 1.400 . S
C1876 H1861 0.960 . S
C1876 H1862 0.960 . S
C1876 H1863 0.960 . S
C1876 C1875 1.524 . S
C1877 C1874 1.403 . S
C1877 C1878 1.392 . S
C1877 C1881 1.495 . S
C1878 C1877 1.392 . S
C1878 C1879 1.385 . S
C1878 C1880 1.478 . S
C1879 H1873 0.930 . S
C1879 C1875 1.400 . S
C1879 C1878 1.385 . S
C1880 C1878 1.478 . S
C1880 C1882 1.381 . S
C1880 C1886 1.383 . S
C1881 C1877 1.495 . S
C1881 H1887 0.959 . S
C1881 H1888 0.961 . S
C1881 H1889 0.960 . S
C1882 C1880 1.381 . S
C1882 C1883 1.394 . S
C1882 H1890 0.930 . S
C1883 C1882 1.394 . S
C1883 C1884 1.383 . S
C1883 H1891 0.929 . S
C1884 C1883 1.383 . S
C1884 C1885 1.377 . S
C1885 H1869 0.930 . S
C1885 C1884 1.377 . S
C1885 C1886 1.379 . S
C1886 H1870 0.931 . S
C1886 C1880 1.383 . S
C1886 C1885 1.379 . S
H1887 C1881 0.959 . S
H1888 C1881 0.961 . S
H1889 C1881 0.960 . S
H1890 C1882 0.930 . S
H1891 C1883 0.929 . S
H1892 C1900 0.929 . S
H1893 C1902 0.930 . S
H1894 C1904 0.930 . S
H1895 C1907 0.929 . S
H1896 C1910 0.930 . S
H1897 C1912 0.960 . S
H1898 C1912 0.960 . S
H1899 C1912 0.960 . S
C1900 H1892 0.929 . S
C1900 C1901 1.377 . S
C1900 C1902 1.384 . S
C1901 C1900 1.377 . S
C1901 C1907 1.390 . S
C1902 H1893 0.930 . S
C1902 C1900 1.384 . S
C1902 C1903 1.372 . S
C1903 C1902 1.372 . S
C1903 C1904 1.400 . S
C1903 C1908 1.490 . S
C1904 H1894 0.930 . S
C1904 C1903 1.400 . S
C1904 C1907 1.386 . S
H1905 C1921 0.930 . S
H1906 C1922 0.931 . S
C1907 H1895 0.929 . S
C1907 C1901 1.390 . S
C1907 C1904 1.386 . S
C1908 C1903 1.490 . S
C1908 C1910 1.395 . S
C1908 C1911 1.403 . S
H1909 C1915 0.930 . S
C1910 H1896 0.930 . S
C1910 C1908 1.395 . S
C1910 C1913 1.403 . S
C1911 C1908 1.403 . S
C1911 C1912 1.524 . S
C1911 C1915 1.400 . S
C1912 H1897 0.960 . S
C1912 H1898 0.960 . S
C1912 H1899 0.960 . S
C1912 C1911 1.524 . S
C1913 C1910 1.403 . S
C1913 C1914 1.392 . S
C1913 C1917 1.495 . S
C1914 C1913 1.392 . S
C1914 C1915 1.385 . S
C1914 C1916 1.478 . S
C1915 H1909 0.930 . S
C1915 C1911 1.400 . S
C1915 C1914 1.385 . S
C1916 C1914 1.478 . S
C1916 C1918 1.381 . S
C1916 C1922 1.383 . S
C1917 C1913 1.495 . S
C1917 H1923 0.959 . S
C1917 H1924 0.961 . S
C1917 H1925 0.960 . S
C1918 C1916 1.381 . S
C1918 C1919 1.394 . S
C1918 H1926 0.930 . S
C1919 C1918 1.394 . S
C1919 C1920 1.383 . S
C1919 H1927 0.929 . S
C1920 C1919 1.383 . S
C1920 C1921 1.377 . S
C1921 H1905 0.930 . S
C1921 C1920 1.377 . S
C1921 C1922 1.379 . S
C1922 H1906 0.931 . S
C1922 C1916 1.383 . S
C1922 C1921 1.379 . S
H1923 C1917 0.959 . S
H1924 C1917 0.961 . S
H1925 C1917 0.960 . S
H1926 C1918 0.930 . S
H1927 C1919 0.929 . S
H1928 C1936 0.929 . S
H1929 C1938 0.930 . S
H1930 C1940 0.930 . S
H1931 C1943 0.929 . S
H1932 C1946 0.930 . S
H1933 C1948 0.960 . S
H1934 C1948 0.960 . S
H1935 C1948 0.960 . S
C1936 H1928 0.929 . S
C1936 C1937 1.377 . S
C1936 C1938 1.384 . S
C1937 C1936 1.377 . S
C1937 C1943 1.390 . S
C1938 H1929 0.930 . S
C1938 C1936 1.384 . S
C1938 C1939 1.372 . S
C1939 C1938 1.372 . S
C1939 C1940 1.400 . S
C1939 C1944 1.490 . S
C1940 H1930 0.930 . S
C1940 C1939 1.400 . S
C1940 C1943 1.386 . S
H1941 C1957 0.930 . S
H1942 C1958 0.931 . S
C1943 H1931 0.929 . S
C1943 C1937 1.390 . S
C1943 C1940 1.386 . S
C1944 C1939 1.490 . S
C1944 C1946 1.395 . S
C1944 C1947 1.403 . S
H1945 C1951 0.930 . S
C1946 H1932 0.930 . S
C1946 C1944 1.395 . S
C1946 C1949 1.403 1_545 S
C1947 C1944 1.403 . S
C1947 C1948 1.524 . S
C1947 C1951 1.400 1_545 S
C1948 H1933 0.960 . S
C1948 H1934 0.960 . S
C1948 H1935 0.960 . S
C1948 C1947 1.524 . S
C1949 C1946 1.403 1_565 S
C1949 C1950 1.392 . S
C1949 C1953 1.495 . S
C1950 C1949 1.392 . S
C1950 C1951 1.385 . S
C1950 C1952 1.478 . S
C1951 H1945 0.930 . S
C1951 C1947 1.400 1_565 S
C1951 C1950 1.385 . S
C1952 C1950 1.478 . S
C1952 C1954 1.381 . S
C1952 C1958 1.383 . S
C1953 C1949 1.495 . S
C1953 H1959 0.980 . S
C1953 H1960 0.961 . S
C1953 H1961 0.960 . S
C1954 C1952 1.381 . S
C1954 C1955 1.394 . S
C1954 H1962 0.930 . S
C1955 C1954 1.394 . S
C1955 C1956 1.383 . S
C1955 H1963 0.929 . S
C1956 C1955 1.383 . S
C1956 C1957 1.377 . S
C1957 H1941 0.930 . S
C1957 C1956 1.377 . S
C1957 C1958 1.379 . S
C1958 H1942 0.931 . S
C1958 C1952 1.383 . S
C1958 C1957 1.379 . S
H1959 C1953 0.980 . S
H1960 C1953 0.961 . S
H1961 C1953 0.960 . S
H1962 C1954 0.930 . S
H1963 C1955 0.929 . S
H1964 C1972 0.929 . S
H1965 C1974 0.930 . S
H1966 C1976 0.930 . S
H1967 C1979 0.929 . S
H1968 C1982 0.930 . S
H1969 C1984 0.960 . S
H1970 C1984 0.960 . S
H1971 C1984 0.960 . S
C1972 H1964 0.929 . S
C1972 C1973 1.377 . S
C1972 C1974 1.384 . S
C1973 C1972 1.377 . S
C1973 C1979 1.390 . S
C1974 H1965 0.930 . S
C1974 C1972 1.384 . S
C1974 C1975 1.372 . S
C1975 C1974 1.372 . S
C1975 C1976 1.400 . S
C1975 C1980 1.490 . S
C1976 H1966 0.930 . S
C1976 C1975 1.400 . S
C1976 C1979 1.386 . S
H1977 C1993 0.930 . S
H1978 C1994 0.931 . S
C1979 H1967 0.929 . S
C1979 C1973 1.390 . S
C1979 C1976 1.386 . S
C1980 C1975 1.490 . S
C1980 C1982 1.395 . S
C1980 C1983 1.403 . S
H1981 C1987 0.930 . S
C1982 H1968 0.930 . S
C1982 C1980 1.395 . S
C1982 C1985 1.403 1_655 S
C1983 C1980 1.403 . S
C1983 C1984 1.524 . S
C1983 C1987 1.400 1_655 S
C1984 H1969 0.960 . S
C1984 H1970 0.960 . S
C1984 H1971 0.960 . S
C1984 C1983 1.524 . S
C1985 C1982 1.403 1_455 S
C1985 C1986 1.392 . S
C1985 C1989 1.495 . S
C1986 C1985 1.392 . S
C1986 C1987 1.385 . S
C1986 C1988 1.478 . S
C1987 H1981 0.930 . S
C1987 C1983 1.400 1_455 S
C1987 C1986 1.385 . S
C1988 C1986 1.478 . S
C1988 C1990 1.381 . S
C1988 C1994 1.383 . S
C1989 C1985 1.495 . S
C1989 H1995 0.959 . S
C1989 H1996 0.961 . S
C1989 H1997 0.960 . S
C1990 C1988 1.381 . S
C1990 C1991 1.394 . S
C1990 H1998 0.930 . S
C1991 C1990 1.394 . S
C1991 C1992 1.383 . S
C1991 H1999 0.929 . S
C1992 C1991 1.383 . S
C1992 C1993 1.377 . S
C1993 H1977 0.930 . S
C1993 C1992 1.377 . S
C1993 C1994 1.379 . S
C1994 H1978 0.931 . S
C1994 C1988 1.383 . S
C1994 C1993 1.379 . S
H1995 C1989 0.959 . S
H1996 C1989 0.961 . S
H1997 C1989 0.960 . S
H1998 C1990 0.930 . S
H1999 C1991 0.929 . S
C857 C22 1.675 . S
C876 C621 1.717 . S
C893 C463 1.717 . S
C912 C82 1.652 . S
C929 C515 1.717 . S
C948 C128 1.682 . S
C965 C569 1.716 . S
C984 C188 1.689 . S
C1001 C303 1.738 . S
C1020 C234 1.675 . S
C1037 C294 1.672 . S
C1056 C357 1.708 . S
C1073 C340 1.671 . S
C1092 C409 1.726 . S
C1109 C400 1.677 . S
C1128 C251 1.707 . S
C1145 C446 1.670 . S
C1164 C197 1.707 . S
C1181 C39 1.742 . S
C1200 C506 1.691 . S
C1217 C91 1.738 . S
C1236 C552 1.673 . S
C1253 C145 1.742 . S
C1272 C612 1.663 . S
C1289 C727 1.716 . S
C1308 C658 1.654 . S
C1325 C718 1.676 . S
C1344 C781 1.706 . S
C1361 C833 1.716 . S
C1380 C764 1.654 . S
C1397 C675 1.716 . S
C1416 C824 1.653 . S
C1433 C780 2.180 . S
C1452 C38 2.171 . S
C1469 C834 2.183 . S
C1488 C92 2.175 . S
C1505 C674 2.179 . S
C1524 C144 2.173 . S
C1541 C198 2.180 . S
C1560 C728 2.182 . S
C1577 C250 2.180 . S
C1596 C568 2.182 . S
C1613 C622 2.183 . S
C1632 C304 2.168 . S
C1649 C356 2.180 . S
C1668 C462 2.171 . S
C1685 C410 2.184 . S
C1704 C516 2.166 . S
C1721 C135 2.047 . S
C1740 C29 2.043 . S
C1757 C181 2.047 . S
C1776 C75 2.040 . S
C1793 C241 2.052 . S
C1812 C347 2.034 . S
C1829 C287 2.046 . S
C1848 C393 2.055 . S
C1865 C559 2.052 . S
C1884 C453 2.042 . S
C1901 C499 2.052 . S
C1920 C605 2.042 . S
C1937 C771 2.052 . S
C1956 C665 2.032 . S
C1973 C711 2.052 . S
C1992 C817 2.037 . S
