# Generated by pormake.
# Topology rho, (4)-cn, num edge types: 1
# Building blocks:
#     Node 0, Type 0, BuildingBlock: GALJAG_clean_sbu_0, # of connection points: 4
#     Node 1, Type 0, BuildingBlock: GALJAG_clean_sbu_0, # of connection points: 4
#     Node 2, Type 0, BuildingBlock: GALJAG_clean_sbu_0, # of connection points: 4
#     Node 3, Type 0, BuildingBlock: GALJAG_clean_sbu_0, # of connection points: 4
#     Node 4, Type 0, BuildingBlock: GALJAG_clean_sbu_0, # of connection points: 4
#     Node 5, Type 0, BuildingBlock: GALJAG_clean_sbu_0, # of connection points: 4
#     Node 6, Type 0, BuildingBlock: GALJAG_clean_sbu_0, # of connection points: 4
#     Node 7, Type 0, BuildingBlock: GALJAG_clean_sbu_0, # of connection points: 4
#     Node 8, Type 0, BuildingBlock: GALJAG_clean_sbu_0, # of connection points: 4
#     Node 9, Type 0, BuildingBlock: GALJAG_clean_sbu_0, # of connection points: 4
#     Node 10, Type 0, BuildingBlock: GALJAG_clean_sbu_0, # of connection points: 4
#     Node 11, Type 0, BuildingBlock: GALJAG_clean_sbu_0, # of connection points: 4
#     Node 12, Type 0, BuildingBlock: GALJAG_clean_sbu_0, # of connection points: 4
#     Node 13, Type 0, BuildingBlock: GALJAG_clean_sbu_0, # of connection points: 4
#     Node 14, Type 0, BuildingBlock: GALJAG_clean_sbu_0, # of connection points: 4
#     Node 15, Type 0, BuildingBlock: GALJAG_clean_sbu_0, # of connection points: 4
#     Node 16, Type 0, BuildingBlock: GALJAG_clean_sbu_0, # of connection points: 4
#     Node 17, Type 0, BuildingBlock: GALJAG_clean_sbu_0, # of connection points: 4
#     Node 18, Type 0, BuildingBlock: GALJAG_clean_sbu_0, # of connection points: 4
#     Node 19, Type 0, BuildingBlock: GALJAG_clean_sbu_0, # of connection points: 4
#     Node 20, Type 0, BuildingBlock: GALJAG_clean_sbu_0, # of connection points: 4
#     Node 21, Type 0, BuildingBlock: GALJAG_clean_sbu_0, # of connection points: 4
#     Node 22, Type 0, BuildingBlock: GALJAG_clean_sbu_0, # of connection points: 4
#     Node 23, Type 0, BuildingBlock: GALJAG_clean_sbu_0, # of connection points: 4
#     Node 24, Type 0, BuildingBlock: GALJAG_clean_sbu_0, # of connection points: 4
#     Node 25, Type 0, BuildingBlock: GALJAG_clean_sbu_0, # of connection points: 4
#     Node 26, Type 0, BuildingBlock: GALJAG_clean_sbu_0, # of connection points: 4
#     Node 27, Type 0, BuildingBlock: GALJAG_clean_sbu_0, # of connection points: 4
#     Node 28, Type 0, BuildingBlock: GALJAG_clean_sbu_0, # of connection points: 4
#     Node 29, Type 0, BuildingBlock: GALJAG_clean_sbu_0, # of connection points: 4
#     Node 30, Type 0, BuildingBlock: GALJAG_clean_sbu_0, # of connection points: 4
#     Node 31, Type 0, BuildingBlock: GALJAG_clean_sbu_0, # of connection points: 4
#     Node 32, Type 0, BuildingBlock: GALJAG_clean_sbu_0, # of connection points: 4
#     Node 33, Type 0, BuildingBlock: GALJAG_clean_sbu_0, # of connection points: 4
#     Node 34, Type 0, BuildingBlock: GALJAG_clean_sbu_0, # of connection points: 4
#     Node 35, Type 0, BuildingBlock: GALJAG_clean_sbu_0, # of connection points: 4
#     Node 36, Type 0, BuildingBlock: GALJAG_clean_sbu_0, # of connection points: 4
#     Node 37, Type 0, BuildingBlock: GALJAG_clean_sbu_0, # of connection points: 4
#     Node 38, Type 0, BuildingBlock: GALJAG_clean_sbu_0, # of connection points: 4
#     Node 39, Type 0, BuildingBlock: GALJAG_clean_sbu_0, # of connection points: 4
#     Node 40, Type 0, BuildingBlock: GALJAG_clean_sbu_0, # of connection points: 4
#     Node 41, Type 0, BuildingBlock: GALJAG_clean_sbu_0, # of connection points: 4
#     Node 42, Type 0, BuildingBlock: GALJAG_clean_sbu_0, # of connection points: 4
#     Node 43, Type 0, BuildingBlock: GALJAG_clean_sbu_0, # of connection points: 4
#     Node 44, Type 0, BuildingBlock: GALJAG_clean_sbu_0, # of connection points: 4
#     Node 45, Type 0, BuildingBlock: GALJAG_clean_sbu_0, # of connection points: 4
#     Node 46, Type 0, BuildingBlock: GALJAG_clean_sbu_0, # of connection points: 4
#     Node 47, Type 0, BuildingBlock: GALJAG_clean_sbu_0, # of connection points: 4
#     Edge 48, Type (0, 0), BuildingBlock: KIFKEQ_clean_linker_1, # of connection points: 2
#     Edge 49, Type (0, 0), BuildingBlock: KIFKEQ_clean_linker_1, # of connection points: 2
#     Edge 50, Type (0, 0), BuildingBlock: KIFKEQ_clean_linker_1, # of connection points: 2
#     Edge 51, Type (0, 0), BuildingBlock: KIFKEQ_clean_linker_1, # of connection points: 2
#     Edge 52, Type (0, 0), BuildingBlock: KIFKEQ_clean_linker_1, # of connection points: 2
#     Edge 53, Type (0, 0), BuildingBlock: KIFKEQ_clean_linker_1, # of connection points: 2
#     Edge 54, Type (0, 0), BuildingBlock: KIFKEQ_clean_linker_1, # of connection points: 2
#     Edge 55, Type (0, 0), BuildingBlock: KIFKEQ_clean_linker_1, # of connection points: 2
#     Edge 56, Type (0, 0), BuildingBlock: KIFKEQ_clean_linker_1, # of connection points: 2
#     Edge 57, Type (0, 0), BuildingBlock: KIFKEQ_clean_linker_1, # of connection points: 2
#     Edge 58, Type (0, 0), BuildingBlock: KIFKEQ_clean_linker_1, # of connection points: 2
#     Edge 59, Type (0, 0), BuildingBlock: KIFKEQ_clean_linker_1, # of connection points: 2
#     Edge 60, Type (0, 0), BuildingBlock: KIFKEQ_clean_linker_1, # of connection points: 2
#     Edge 61, Type (0, 0), BuildingBlock: KIFKEQ_clean_linker_1, # of connection points: 2
#     Edge 62, Type (0, 0), BuildingBlock: KIFKEQ_clean_linker_1, # of connection points: 2
#     Edge 63, Type (0, 0), BuildingBlock: KIFKEQ_clean_linker_1, # of connection points: 2
#     Edge 64, Type (0, 0), BuildingBlock: KIFKEQ_clean_linker_1, # of connection points: 2
#     Edge 65, Type (0, 0), BuildingBlock: KIFKEQ_clean_linker_1, # of connection points: 2
#     Edge 66, Type (0, 0), BuildingBlock: KIFKEQ_clean_linker_1, # of connection points: 2
#     Edge 67, Type (0, 0), BuildingBlock: KIFKEQ_clean_linker_1, # of connection points: 2
#     Edge 68, Type (0, 0), BuildingBlock: KIFKEQ_clean_linker_1, # of connection points: 2
#     Edge 69, Type (0, 0), BuildingBlock: KIFKEQ_clean_linker_1, # of connection points: 2
#     Edge 70, Type (0, 0), BuildingBlock: KIFKEQ_clean_linker_1, # of connection points: 2
#     Edge 71, Type (0, 0), BuildingBlock: KIFKEQ_clean_linker_1, # of connection points: 2
#     Edge 72, Type (0, 0), BuildingBlock: KIFKEQ_clean_linker_1, # of connection points: 2
#     Edge 73, Type (0, 0), BuildingBlock: KIFKEQ_clean_linker_1, # of connection points: 2
#     Edge 74, Type (0, 0), BuildingBlock: KIFKEQ_clean_linker_1, # of connection points: 2
#     Edge 75, Type (0, 0), BuildingBlock: KIFKEQ_clean_linker_1, # of connection points: 2
#     Edge 76, Type (0, 0), BuildingBlock: KIFKEQ_clean_linker_1, # of connection points: 2
#     Edge 77, Type (0, 0), BuildingBlock: KIFKEQ_clean_linker_1, # of connection points: 2
#     Edge 78, Type (0, 0), BuildingBlock: KIFKEQ_clean_linker_1, # of connection points: 2
#     Edge 79, Type (0, 0), BuildingBlock: KIFKEQ_clean_linker_1, # of connection points: 2
#     Edge 80, Type (0, 0), BuildingBlock: KIFKEQ_clean_linker_1, # of connection points: 2
#     Edge 81, Type (0, 0), BuildingBlock: KIFKEQ_clean_linker_1, # of connection points: 2
#     Edge 82, Type (0, 0), BuildingBlock: KIFKEQ_clean_linker_1, # of connection points: 2
#     Edge 83, Type (0, 0), BuildingBlock: KIFKEQ_clean_linker_1, # of connection points: 2
#     Edge 84, Type (0, 0), BuildingBlock: KIFKEQ_clean_linker_1, # of connection points: 2
#     Edge 85, Type (0, 0), BuildingBlock: KIFKEQ_clean_linker_1, # of connection points: 2
#     Edge 86, Type (0, 0), BuildingBlock: KIFKEQ_clean_linker_1, # of connection points: 2
#     Edge 87, Type (0, 0), BuildingBlock: KIFKEQ_clean_linker_1, # of connection points: 2
#     Edge 88, Type (0, 0), BuildingBlock: KIFKEQ_clean_linker_1, # of connection points: 2
#     Edge 89, Type (0, 0), BuildingBlock: KIFKEQ_clean_linker_1, # of connection points: 2
#     Edge 90, Type (0, 0), BuildingBlock: KIFKEQ_clean_linker_1, # of connection points: 2
#     Edge 91, Type (0, 0), BuildingBlock: KIFKEQ_clean_linker_1, # of connection points: 2
#     Edge 92, Type (0, 0), BuildingBlock: KIFKEQ_clean_linker_1, # of connection points: 2
#     Edge 93, Type (0, 0), BuildingBlock: KIFKEQ_clean_linker_1, # of connection points: 2
#     Edge 94, Type (0, 0), BuildingBlock: KIFKEQ_clean_linker_1, # of connection points: 2
#     Edge 95, Type (0, 0), BuildingBlock: KIFKEQ_clean_linker_1, # of connection points: 2
#     Edge 96, Type (0, 0), BuildingBlock: KIFKEQ_clean_linker_1, # of connection points: 2
#     Edge 97, Type (0, 0), BuildingBlock: KIFKEQ_clean_linker_1, # of connection points: 2
#     Edge 98, Type (0, 0), BuildingBlock: KIFKEQ_clean_linker_1, # of connection points: 2
#     Edge 99, Type (0, 0), BuildingBlock: KIFKEQ_clean_linker_1, # of connection points: 2
#     Edge 100, Type (0, 0), BuildingBlock: KIFKEQ_clean_linker_1, # of connection points: 2
#     Edge 101, Type (0, 0), BuildingBlock: KIFKEQ_clean_linker_1, # of connection points: 2
#     Edge 102, Type (0, 0), BuildingBlock: KIFKEQ_clean_linker_1, # of connection points: 2
#     Edge 103, Type (0, 0), BuildingBlock: KIFKEQ_clean_linker_1, # of connection points: 2
#     Edge 104, Type (0, 0), BuildingBlock: KIFKEQ_clean_linker_1, # of connection points: 2
#     Edge 105, Type (0, 0), BuildingBlock: KIFKEQ_clean_linker_1, # of connection points: 2
#     Edge 106, Type (0, 0), BuildingBlock: KIFKEQ_clean_linker_1, # of connection points: 2
#     Edge 107, Type (0, 0), BuildingBlock: KIFKEQ_clean_linker_1, # of connection points: 2
#     Edge 108, Type (0, 0), BuildingBlock: KIFKEQ_clean_linker_1, # of connection points: 2
#     Edge 109, Type (0, 0), BuildingBlock: KIFKEQ_clean_linker_1, # of connection points: 2
#     Edge 110, Type (0, 0), BuildingBlock: KIFKEQ_clean_linker_1, # of connection points: 2
#     Edge 111, Type (0, 0), BuildingBlock: KIFKEQ_clean_linker_1, # of connection points: 2
#     Edge 112, Type (0, 0), BuildingBlock: KIFKEQ_clean_linker_1, # of connection points: 2
#     Edge 113, Type (0, 0), BuildingBlock: KIFKEQ_clean_linker_1, # of connection points: 2
#     Edge 114, Type (0, 0), BuildingBlock: KIFKEQ_clean_linker_1, # of connection points: 2
#     Edge 115, Type (0, 0), BuildingBlock: KIFKEQ_clean_linker_1, # of connection points: 2
#     Edge 116, Type (0, 0), BuildingBlock: KIFKEQ_clean_linker_1, # of connection points: 2
#     Edge 117, Type (0, 0), BuildingBlock: KIFKEQ_clean_linker_1, # of connection points: 2
#     Edge 118, Type (0, 0), BuildingBlock: KIFKEQ_clean_linker_1, # of connection points: 2
#     Edge 119, Type (0, 0), BuildingBlock: KIFKEQ_clean_linker_1, # of connection points: 2
#     Edge 120, Type (0, 0), BuildingBlock: KIFKEQ_clean_linker_1, # of connection points: 2
#     Edge 121, Type (0, 0), BuildingBlock: KIFKEQ_clean_linker_1, # of connection points: 2
#     Edge 122, Type (0, 0), BuildingBlock: KIFKEQ_clean_linker_1, # of connection points: 2
#     Edge 123, Type (0, 0), BuildingBlock: KIFKEQ_clean_linker_1, # of connection points: 2
#     Edge 124, Type (0, 0), BuildingBlock: KIFKEQ_clean_linker_1, # of connection points: 2
#     Edge 125, Type (0, 0), BuildingBlock: KIFKEQ_clean_linker_1, # of connection points: 2
#     Edge 126, Type (0, 0), BuildingBlock: KIFKEQ_clean_linker_1, # of connection points: 2
#     Edge 127, Type (0, 0), BuildingBlock: KIFKEQ_clean_linker_1, # of connection points: 2
#     Edge 128, Type (0, 0), BuildingBlock: KIFKEQ_clean_linker_1, # of connection points: 2
#     Edge 129, Type (0, 0), BuildingBlock: KIFKEQ_clean_linker_1, # of connection points: 2
#     Edge 130, Type (0, 0), BuildingBlock: KIFKEQ_clean_linker_1, # of connection points: 2
#     Edge 131, Type (0, 0), BuildingBlock: KIFKEQ_clean_linker_1, # of connection points: 2
#     Edge 132, Type (0, 0), BuildingBlock: KIFKEQ_clean_linker_1, # of connection points: 2
#     Edge 133, Type (0, 0), BuildingBlock: KIFKEQ_clean_linker_1, # of connection points: 2
#     Edge 134, Type (0, 0), BuildingBlock: KIFKEQ_clean_linker_1, # of connection points: 2
#     Edge 135, Type (0, 0), BuildingBlock: KIFKEQ_clean_linker_1, # of connection points: 2
#     Edge 136, Type (0, 0), BuildingBlock: KIFKEQ_clean_linker_1, # of connection points: 2
#     Edge 137, Type (0, 0), BuildingBlock: KIFKEQ_clean_linker_1, # of connection points: 2
#     Edge 138, Type (0, 0), BuildingBlock: KIFKEQ_clean_linker_1, # of connection points: 2
#     Edge 139, Type (0, 0), BuildingBlock: KIFKEQ_clean_linker_1, # of connection points: 2
#     Edge 140, Type (0, 0), BuildingBlock: KIFKEQ_clean_linker_1, # of connection points: 2
#     Edge 141, Type (0, 0), BuildingBlock: KIFKEQ_clean_linker_1, # of connection points: 2
#     Edge 142, Type (0, 0), BuildingBlock: KIFKEQ_clean_linker_1, # of connection points: 2
#     Edge 143, Type (0, 0), BuildingBlock: KIFKEQ_clean_linker_1, # of connection points: 2
# Relax obj value: 0.062
# Max RMSD: 0.056
# Mean RMSD: 0.055
data_MOF--net-rho--node1-GALJAG_clean_sbu_0--edge1-KIFKEQ_clean_linker_1
_symmetry_space_group_name_H-M    P1
_symmetry_Int_Tables_number       1
_symmetry_cell_setting            triclinic
loop_
_symmetry_equiv_pos_as_xyz
'x, y, z'
_cell_length_a     74.127006
_cell_length_b     74.109244
_cell_length_c     74.113635
_cell_angle_alpha  90.083168
_cell_angle_beta   90.046714
_cell_angle_gamma 90.174709
loop_
_atom_site_label
_atom_site_type_symbol
_atom_site_fract_x
_atom_site_fract_y
_atom_site_fract_z
_atom_type_partial_charge
In0 In 0.10476 0.25133 0.39711 0.0
O1 O 0.1116 0.26617 0.42337 0.0
O2 O 0.10153 0.23929 0.42497 0.0
C3 C 0.11278 0.27622 0.37183 0.0
C4 C 0.13002 0.2261 0.39103 0.0
C5 C 0.06861 0.2491 0.39353 0.0
O6 O 0.11291 0.27988 0.38847 0.0
O7 O 0.10881 0.26009 0.36808 0.0
O8 O 0.07891 0.23659 0.38832 0.0
O9 O 0.07658 0.26257 0.40024 0.0
C10 C 0.10696 0.25312 0.43333 0.0
O11 O 0.11356 0.22353 0.38736 0.0
O12 O 0.13367 0.24139 0.39765 0.0
In13 In 0.75044 0.10405 0.39149 0.0
O14 O 0.76544 0.07751 0.3863 0.0
O15 O 0.73812 0.07624 0.3949 0.0
C16 C 0.77607 0.12813 0.38225 0.0
C17 C 0.72605 0.11028 0.36536 0.0
C18 C 0.74761 0.10983 0.42741 0.0
O19 O 0.77932 0.11146 0.38364 0.0
O20 O 0.75991 0.13251 0.38521 0.0
O21 O 0.73402 0.11001 0.41714 0.0
O22 O 0.76236 0.10684 0.41955 0.0
C23 C 0.75205 0.06771 0.39025 0.0
O24 O 0.72402 0.11612 0.38126 0.0
O25 O 0.74042 0.10158 0.3627 0.0
In26 In 0.89548 0.74962 0.39561 0.0
O27 O 0.88775 0.77894 0.38995 0.0
O28 O 0.86676 0.75935 0.39138 0.0
C29 C 0.93156 0.75131 0.39095 0.0
C30 C 0.89152 0.7476 0.43176 0.0
C31 C 0.88822 0.72385 0.37093 0.0
O32 O 0.92113 0.76327 0.38478 0.0
O33 O 0.92375 0.73871 0.39929 0.0
O34 O 0.88894 0.7205 0.38763 0.0
O35 O 0.89099 0.74013 0.3668 0.0
C36 C 0.87103 0.77568 0.38913 0.0
O37 O 0.88477 0.73594 0.42127 0.0
O38 O 0.9001 0.76006 0.42399 0.0
In39 In 0.24875 0.89612 0.39339 0.0
O40 O 0.23422 0.92234 0.3861 0.0
O41 O 0.26101 0.924 0.39635 0.0
C42 C 0.2235 0.87116 0.38502 0.0
C43 C 0.27447 0.89003 0.36855 0.0
C44 C 0.25037 0.89251 0.4296 0.0
O45 O 0.22015 0.88785 0.38501 0.0
O46 O 0.23954 0.86719 0.38899 0.0
O47 O 0.26284 0.88698 0.41942 0.0
O48 O 0.23727 0.89965 0.4215 0.0
C49 C 0.24734 0.93231 0.39059 0.0
O50 O 0.27675 0.88645 0.38507 0.0
O51 O 0.25919 0.89642 0.36464 0.0
In52 In 0.10154 0.74941 0.60224 0.0
O53 O 0.07599 0.76463 0.61057 0.0
O54 O 0.0736 0.73706 0.60283 0.0
C55 C 0.12653 0.77505 0.60888 0.0
C56 C 0.10888 0.72389 0.62692 0.0
C57 C 0.10328 0.747 0.56589 0.0
O58 O 0.10983 0.77833 0.60928 0.0
O59 O 0.13052 0.75894 0.60517 0.0
O60 O 0.11199 0.73645 0.57602 0.0
O61 O 0.09402 0.7586 0.5741 0.0
C62 C 0.06572 0.75121 0.60799 0.0
O63 O 0.10779 0.72038 0.61026 0.0
O64 O 0.10646 0.74025 0.63102 0.0
In65 In 0.2489 0.10272 0.60398 0.0
O66 O 0.22037 0.11052 0.61276 0.0
O67 O 0.23879 0.13148 0.6059 0.0
C68 C 0.24716 0.06661 0.60815 0.0
C69 C 0.25124 0.10623 0.56779 0.0
C70 C 0.27419 0.11036 0.62893 0.0
O71 O 0.23362 0.07662 0.61063 0.0
O72 O 0.26142 0.07485 0.60382 0.0
O73 O 0.27779 0.10931 0.61231 0.0
O74 O 0.25785 0.10767 0.6329 0.0
C75 C 0.22311 0.12726 0.61099 0.0
O76 O 0.26249 0.11353 0.57832 0.0
O77 O 0.23904 0.09726 0.57552 0.0
In78 In 0.89636 0.24879 0.60313 0.0
O79 O 0.89116 0.27822 0.61063 0.0
O80 O 0.88766 0.25838 0.631 0.0
C81 C 0.89705 0.2521 0.56688 0.0
C82 C 0.93165 0.24479 0.61105 0.0
C83 C 0.87042 0.2235 0.607 0.0
O84 O 0.88804 0.2626 0.5768 0.0
O85 O 0.90568 0.2401 0.57525 0.0
O86 O 0.88593 0.22172 0.61383 0.0
O87 O 0.86806 0.23801 0.59846 0.0
C88 C 0.88727 0.27488 0.62686 0.0
O89 O 0.9208 0.23162 0.61118 0.0
O90 O 0.92464 0.25975 0.60709 0.0
In91 In 0.74934 0.89541 0.60487 0.0
O92 O 0.73366 0.88968 0.57877 0.0
O93 O 0.76174 0.89534 0.57696 0.0
C94 C 0.72467 0.88854 0.63056 0.0
C95 C 0.77412 0.87034 0.61335 0.0
C96 C 0.75104 0.9317 0.60679 0.0
O97 O 0.72226 0.88397 0.61429 0.0
O98 O 0.73955 0.89623 0.63375 0.0
O99 O 0.76474 0.92195 0.60948 0.0
O100 O 0.73679 0.92314 0.60309 0.0
C101 C 0.74732 0.89156 0.56875 0.0
O102 O 0.77682 0.88698 0.61604 0.0
O103 O 0.75893 0.86649 0.60666 0.0
In104 In 0.39536 0.10189 0.24949 0.0
O105 O 0.3869 0.11147 0.27752 0.0
O106 O 0.36647 0.1024 0.25939 0.0
C107 C 0.43166 0.1045 0.25135 0.0
C108 C 0.39133 0.06581 0.24811 0.0
C109 C 0.38781 0.12702 0.22431 0.0
O110 O 0.42158 0.11099 0.26344 0.0
O111 O 0.42342 0.09688 0.23856 0.0
O112 O 0.38724 0.11033 0.2209 0.0
O113 O 0.39197 0.13091 0.24034 0.0
C114 C 0.37032 0.10846 0.27486 0.0
O115 O 0.38797 0.07577 0.23469 0.0
O116 O 0.39664 0.07409 0.26204 0.0
In117 In 0.89477 0.39571 0.24939 0.0
O118 O 0.92072 0.38472 0.23661 0.0
O119 O 0.9229 0.40125 0.25998 0.0
C120 C 0.87072 0.3884 0.22313 0.0
C121 C 0.88765 0.37129 0.27532 0.0
C122 C 0.89011 0.43176 0.25068 0.0
O123 O 0.88745 0.38948 0.22006 0.0
O124 O 0.86625 0.39087 0.23936 0.0
O125 O 0.88373 0.42144 0.26267 0.0
O126 O 0.89855 0.42384 0.23823 0.0
C127 C 0.93095 0.39228 0.24799 0.0
O128 O 0.88838 0.38801 0.27859 0.0
O129 O 0.89043 0.36702 0.25908 0.0
In130 In 0.60432 0.89519 0.2474 0.0
O131 O 0.61324 0.88405 0.27481 0.0
O132 O 0.63224 0.89906 0.25943 0.0
C133 C 0.56875 0.88775 0.24996 0.0
C134 C 0.60426 0.93144 0.24352 0.0
C135 C 0.6139 0.87108 0.22188 0.0
O136 O 0.57867 0.88941 0.26374 0.0
O137 O 0.57681 0.88972 0.23512 0.0
O138 O 0.61076 0.88742 0.21828 0.0
O139 O 0.61259 0.86706 0.23837 0.0
C140 C 0.62901 0.89045 0.27374 0.0
O141 O 0.61375 0.92132 0.23367 0.0
O142 O 0.59488 0.92328 0.25512 0.0
In143 In 0.1029 0.60221 0.24975 0.0
O144 O 0.1112 0.57611 0.26412 0.0
O145 O 0.09724 0.57409 0.23913 0.0
C146 C 0.11118 0.62741 0.27467 0.0
C147 C 0.1277 0.60894 0.22399 0.0
C148 C 0.06681 0.60601 0.24823 0.0
O149 O 0.1131 0.61074 0.27763 0.0
O150 O 0.10531 0.63125 0.25917 0.0
O151 O 0.07671 0.60784 0.23448 0.0
O152 O 0.07515 0.60243 0.26263 0.0
C153 C 0.10458 0.56594 0.2521 0.0
O154 O 0.11133 0.61326 0.22217 0.0
O155 O 0.13145 0.60142 0.23877 0.0
In156 In 0.39673 0.89375 0.74681 0.0
O157 O 0.38658 0.88548 0.77474 0.0
O158 O 0.39651 0.86503 0.7572 0.0
C159 C 0.39347 0.92992 0.74884 0.0
C160 C 0.43286 0.89022 0.74613 0.0
C161 C 0.37231 0.88636 0.7208 0.0
O162 O 0.38748 0.91964 0.76104 0.0
O163 O 0.40081 0.92193 0.73575 0.0
O164 O 0.38897 0.88763 0.71751 0.0
O165 O 0.3681 0.88862 0.73712 0.0
C166 C 0.38996 0.86894 0.77242 0.0
O167 O 0.42288 0.88342 0.73405 0.0
O168 O 0.42458 0.89867 0.75835 0.0
In169 In 0.10323 0.39614 0.74744 0.0
O170 O 0.10902 0.42238 0.73194 0.0
O171 O 0.10421 0.42399 0.76012 0.0
C172 C 0.1107 0.37093 0.72239 0.0
C173 C 0.12778 0.38776 0.77286 0.0
C174 C 0.06694 0.39323 0.74909 0.0
O175 O 0.11424 0.38745 0.72001 0.0
O176 O 0.10362 0.36722 0.73743 0.0
O177 O 0.07696 0.38908 0.76222 0.0
O178 O 0.07522 0.39881 0.73534 0.0
C179 C 0.10769 0.4323 0.74573 0.0
O180 O 0.11106 0.38809 0.77611 0.0
O181 O 0.13203 0.39138 0.75677 0.0
In182 In 0.60326 0.10231 0.74809 0.0
O183 O 0.61173 0.07665 0.76294 0.0
O184 O 0.60165 0.07418 0.73614 0.0
C185 C 0.61027 0.12735 0.7737 0.0
C186 C 0.62803 0.10899 0.72237 0.0
C187 C 0.56692 0.10443 0.74597 0.0
O188 O 0.61033 0.11065 0.777 0.0
O189 O 0.60696 0.13134 0.75751 0.0
O190 O 0.57705 0.1114 0.73417 0.0
O191 O 0.57512 0.09662 0.75861 0.0
C192 C 0.60773 0.06631 0.74995 0.0
O193 O 0.61138 0.11157 0.71984 0.0
O194 O 0.63212 0.10334 0.7379 0.0
In195 In 0.89217 0.60162 0.74817 0.0
O196 O 0.91831 0.61192 0.7614 0.0
O197 O 0.92042 0.59389 0.73925 0.0
C198 C 0.86771 0.60988 0.77365 0.0
C199 C 0.88603 0.62651 0.72239 0.0
C200 C 0.88564 0.56584 0.74674 0.0
O201 O 0.88436 0.60863 0.77706 0.0
O202 O 0.86347 0.60718 0.75735 0.0
O203 O 0.88456 0.57573 0.7329 0.0
O204 O 0.88987 0.57403 0.76107 0.0
C205 C 0.92853 0.60327 0.75091 0.0
O206 O 0.88436 0.6098 0.71939 0.0
O207 O 0.89063 0.63051 0.73829 0.0
In208 In 0.24883 0.39336 0.10202 0.0
O209 O 0.27667 0.3852 0.11238 0.0
O210 O 0.25835 0.36441 0.10464 0.0
C211 C 0.25154 0.42964 0.10374 0.0
C212 C 0.24712 0.38906 0.06592 0.0
C213 C 0.22339 0.38676 0.12719 0.0
O214 O 0.26375 0.41942 0.10973 0.0
O215 O 0.23822 0.42155 0.09686 0.0
O216 O 0.22153 0.38182 0.11097 0.0
O217 O 0.23803 0.39477 0.13058 0.0
C218 C 0.27381 0.36848 0.11054 0.0
O219 O 0.23324 0.38826 0.07578 0.0
O220 O 0.26167 0.39198 0.07428 0.0
In221 In 0.24772 0.60369 0.89387 0.0
O222 O 0.26355 0.57771 0.88841 0.0
O223 O 0.23532 0.57573 0.89311 0.0
C224 C 0.27287 0.6293 0.88777 0.0
C225 C 0.22293 0.61221 0.86872 0.0
C226 C 0.24495 0.60469 0.93012 0.0
O227 O 0.27489 0.61317 0.88261 0.0
O228 O 0.25813 0.63243 0.89565 0.0
O229 O 0.23174 0.60824 0.91996 0.0
O230 O 0.25933 0.60071 0.92197 0.0
C231 C 0.24986 0.56761 0.88979 0.0
O232 O 0.22043 0.61521 0.88531 0.0
O233 O 0.23799 0.60529 0.86491 0.0
In234 In 0.39262 0.24661 0.89621 0.0
O235 O 0.38324 0.23308 0.92241 0.0
O236 O 0.40066 0.25582 0.92429 0.0
C237 C 0.38297 0.22084 0.87236 0.0
C238 C 0.36803 0.2727 0.89051 0.0
C239 C 0.4284 0.24897 0.8898 0.0
O240 O 0.38614 0.2174 0.88873 0.0
O241 O 0.3844 0.23727 0.86814 0.0
O242 O 0.41838 0.26272 0.89016 0.0
O243 O 0.42033 0.23422 0.89246 0.0
C244 C 0.39176 0.24388 0.93251 0.0
O245 O 0.38389 0.27373 0.88437 0.0
O246 O 0.36466 0.25855 0.89933 0.0
In247 In 0.75046 0.3926 0.89765 0.0
O248 O 0.77823 0.38251 0.88865 0.0
O249 O 0.76016 0.39205 0.86859 0.0
C250 C 0.75326 0.38974 0.93377 0.0
C251 C 0.7493 0.42888 0.89551 0.0
C252 C 0.72395 0.36842 0.89097 0.0
O253 O 0.76501 0.38328 0.92326 0.0
O254 O 0.74014 0.39728 0.92602 0.0
O255 O 0.72198 0.3851 0.88821 0.0
O256 O 0.73925 0.36403 0.89693 0.0
C257 C 0.7755 0.38568 0.87215 0.0
O258 O 0.73662 0.41901 0.88969 0.0
O259 O 0.76246 0.42042 0.90215 0.0
In260 In 0.60334 0.74597 0.89543 0.0
O261 O 0.6118 0.71773 0.88605 0.0
O262 O 0.6322 0.73597 0.89477 0.0
C263 C 0.56717 0.74473 0.89184 0.0
C264 C 0.60579 0.74753 0.93165 0.0
C265 C 0.61082 0.77173 0.87088 0.0
O266 O 0.5772 0.73224 0.88602 0.0
O267 O 0.57542 0.75763 0.89934 0.0
O268 O 0.61318 0.77417 0.88757 0.0
O269 O 0.60496 0.7563 0.86665 0.0
C270 C 0.62839 0.72045 0.88891 0.0
O271 O 0.61176 0.75998 0.92163 0.0
O272 O 0.59869 0.73442 0.92336 0.0
In273 In 0.74822 0.60343 0.10348 0.0
O274 O 0.76348 0.59647 0.07747 0.0
O275 O 0.74745 0.62008 0.07762 0.0
C276 C 0.77611 0.61083 0.12577 0.0
C277 C 0.72074 0.62591 0.11104 0.0
C278 C 0.73797 0.56883 0.10961 0.0
O279 O 0.77848 0.60481 0.11 0.0
O280 O 0.75985 0.61312 0.1301 0.0
O281 O 0.73434 0.57702 0.09517 0.0
O282 O 0.74635 0.57821 0.12108 0.0
C283 C 0.75756 0.60977 0.06871 0.0
O284 O 0.7181 0.60977 0.10615 0.0
O285 O 0.73709 0.63054 0.11206 0.0
In286 In 0.39318 0.74762 0.10258 0.0
O287 O 0.3821 0.77472 0.11222 0.0
O288 O 0.39445 0.75744 0.13153 0.0
C289 C 0.3891 0.75016 0.06647 0.0
C290 C 0.42942 0.74568 0.10475 0.0
C291 C 0.36831 0.72235 0.1107 0.0
O292 O 0.38728 0.76365 0.07673 0.0
O293 O 0.39279 0.73564 0.07445 0.0
O294 O 0.38502 0.71907 0.11085 0.0
O295 O 0.36425 0.7384 0.10678 0.0
C296 C 0.38686 0.77234 0.12842 0.0
O297 O 0.41939 0.73248 0.10877 0.0
O298 O 0.42117 0.75962 0.09966 0.0
In299 In 0.60347 0.25196 0.10109 0.0
O300 O 0.57713 0.26516 0.11035 0.0
O301 O 0.57553 0.24332 0.09183 0.0
C302 C 0.62656 0.27868 0.11004 0.0
C303 C 0.60916 0.22637 0.12637 0.0
C304 C 0.61009 0.24896 0.06542 0.0
O305 O 0.60984 0.28127 0.10811 0.0
O306 O 0.63153 0.26255 0.10779 0.0
O307 O 0.60877 0.2353 0.07553 0.0
O308 O 0.60826 0.2639 0.07335 0.0
C309 C 0.56718 0.25488 0.10106 0.0
O310 O 0.61592 0.22534 0.11077 0.0
O311 O 0.5998 0.24027 0.12912 0.0
In312 In 0.89377 0.74999 0.60325 0.0
O313 O 0.88779 0.73395 0.57739 0.0
O314 O 0.88977 0.7625 0.57564 0.0
C315 C 0.88878 0.7237 0.62786 0.0
C316 C 0.87006 0.77559 0.61332 0.0
C317 C 0.93003 0.7532 0.60408 0.0
O318 O 0.88197 0.72281 0.61225 0.0
O319 O 0.89783 0.73781 0.63094 0.0
O320 O 0.91985 0.76364 0.61286 0.0
O321 O 0.92191 0.7414 0.59486 0.0
C322 C 0.88726 0.74778 0.56746 0.0
O323 O 0.88638 0.7791 0.60991 0.0
O324 O 0.8658 0.75915 0.61188 0.0
In325 In 0.24922 0.8945 0.60149 0.0
O326 O 0.23479 0.92041 0.61029 0.0
O327 O 0.25894 0.9228 0.59503 0.0
C328 C 0.22421 0.86928 0.60934 0.0
C329 C 0.27506 0.88827 0.62638 0.0
C330 C 0.25078 0.89016 0.56545 0.0
O331 O 0.22125 0.88594 0.61132 0.0
O332 O 0.23983 0.86544 0.6038 0.0
O333 O 0.26469 0.88935 0.57529 0.0
O334 O 0.23627 0.89314 0.57382 0.0
C335 C 0.24623 0.93075 0.60302 0.0
O336 O 0.27683 0.88359 0.61009 0.0
O337 O 0.26029 0.89582 0.63001 0.0
In338 In 0.10113 0.24779 0.60497 0.0
O339 O 0.11084 0.26221 0.57939 0.0
O340 O 0.08993 0.24277 0.57681 0.0
C341 C 0.11095 0.2748 0.62732 0.0
C342 C 0.1263 0.22186 0.60917 0.0
C343 C 0.06635 0.2418 0.61413 0.0
O344 O 0.10445 0.27762 0.61182 0.0
O345 O 0.11273 0.25836 0.6314 0.0
O346 O 0.07427 0.25665 0.6167 0.0
O347 O 0.07603 0.2297 0.6071 0.0
C348 C 0.10023 0.25384 0.56901 0.0
O349 O 0.11154 0.22153 0.61764 0.0
O350 O 0.12825 0.23517 0.59881 0.0
In351 In 0.74725 0.10379 0.59931 0.0
O352 O 0.76086 0.07811 0.6099 0.0
O353 O 0.73684 0.07545 0.59443 0.0
C354 C 0.77317 0.12844 0.606 0.0
C355 C 0.72147 0.11056 0.62406 0.0
C356 C 0.74582 0.10784 0.56318 0.0
O357 O 0.77622 0.11168 0.6064 0.0
O358 O 0.75709 0.13267 0.60241 0.0
O359 O 0.73379 0.11423 0.57342 0.0
O360 O 0.75836 0.09965 0.57121 0.0
C361 C 0.7493 0.06764 0.60293 0.0
O362 O 0.718 0.10948 0.60741 0.0
O363 O 0.73785 0.1084 0.6281 0.0
In364 In 0.89668 0.24915 0.39459 0.0
O365 O 0.88531 0.27654 0.38613 0.0
O366 O 0.89583 0.25922 0.36578 0.0
C367 C 0.89489 0.2513 0.43087 0.0
C368 C 0.9328 0.24736 0.39105 0.0
C369 C 0.87138 0.22419 0.38673 0.0
O370 O 0.89166 0.2647 0.42088 0.0
O371 O 0.89887 0.23702 0.42255 0.0
O372 O 0.88778 0.22208 0.38263 0.0
O373 O 0.86784 0.23888 0.39458 0.0
C374 C 0.88876 0.27421 0.36959 0.0
O375 O 0.9229 0.23351 0.38975 0.0
O376 O 0.92448 0.26185 0.39411 0.0
In377 In 0.74851 0.8955 0.39663 0.0
O378 O 0.73501 0.88581 0.4227 0.0
O379 O 0.75943 0.9009 0.42463 0.0
C380 C 0.72293 0.88813 0.3717 0.0
C381 C 0.77429 0.87059 0.39095 0.0
C382 C 0.75051 0.93167 0.39321 0.0
O383 O 0.71945 0.88879 0.38836 0.0
O384 O 0.73924 0.8909 0.36776 0.0
O385 O 0.76262 0.92139 0.38706 0.0
O386 O 0.73753 0.92366 0.40076 0.0
C387 C 0.74689 0.89279 0.43281 0.0
O388 O 0.77672 0.88709 0.3874 0.0
O389 O 0.75888 0.86676 0.39709 0.0
In390 In 0.10307 0.74918 0.39346 0.0
O391 O 0.11045 0.72012 0.38654 0.0
O392 O 0.11072 0.7395 0.36538 0.0
C393 C 0.10417 0.74723 0.42981 0.0
C394 C 0.0672 0.75151 0.38716 0.0
C395 C 0.12862 0.77426 0.3871 0.0
O396 O 0.1094 0.73442 0.41989 0.0
O397 O 0.09834 0.76079 0.42141 0.0
O398 O 0.11274 0.77573 0.38106 0.0
O399 O 0.13153 0.76012 0.3961 0.0
C400 C 0.11295 0.72327 0.36999 0.0
O401 O 0.07723 0.76529 0.38769 0.0
O402 O 0.07528 0.7368 0.38964 0.0
In403 In 0.24966 0.10456 0.39645 0.0
O404 O 0.26485 0.11276 0.42216 0.0
O405 O 0.237 0.10601 0.42418 0.0
C406 C 0.2756 0.11075 0.37176 0.0
C407 C 0.22437 0.12926 0.38862 0.0
C408 C 0.24676 0.06824 0.39449 0.0
O409 O 0.27874 0.11129 0.38851 0.0
O410 O 0.25947 0.10722 0.3676 0.0
O411 O 0.23655 0.07854 0.38562 0.0
O412 O 0.25823 0.07626 0.40416 0.0
C413 C 0.25121 0.11087 0.43221 0.0
O414 O 0.22073 0.11264 0.39 0.0
O415 O 0.24076 0.13331 0.39096 0.0
In416 In 0.60412 0.89403 0.75204 0.0
O417 O 0.60997 0.8863 0.78126 0.0
O418 O 0.61059 0.86561 0.76129 0.0
C419 C 0.60582 0.93043 0.75404 0.0
C420 C 0.56844 0.88729 0.74998 0.0
C421 C 0.62888 0.88754 0.7263 0.0
O422 O 0.61466 0.92046 0.7646 0.0
O423 O 0.59627 0.92205 0.74273 0.0
O424 O 0.61216 0.88616 0.72331 0.0
O425 O 0.63301 0.8921 0.74218 0.0
C426 C 0.61225 0.86977 0.77773 0.0
O427 O 0.57873 0.8856 0.7365 0.0
O428 O 0.5762 0.89216 0.76434 0.0
In429 In 0.1007 0.60434 0.74943 0.0
O430 O 0.11047 0.61302 0.72156 0.0
O431 O 0.10042 0.63322 0.73936 0.0
C432 C 0.10449 0.56816 0.74722 0.0
C433 C 0.0645 0.60721 0.75062 0.0
C434 C 0.12535 0.6128 0.77493 0.0
O435 O 0.11034 0.57859 0.73509 0.0
O436 O 0.09699 0.576 0.76028 0.0
O437 O 0.1087 0.61183 0.77835 0.0
O438 O 0.12945 0.60966 0.75873 0.0
C439 C 0.10692 0.62951 0.72406 0.0
O440 O 0.07437 0.6115 0.76387 0.0
O441 O 0.07291 0.60162 0.73693 0.0
In442 In 0.39479 0.10221 0.74998 0.0
O443 O 0.42076 0.10779 0.73405 0.0
O444 O 0.42289 0.10205 0.76206 0.0
C445 C 0.36914 0.10985 0.72546 0.0
C446 C 0.38637 0.12688 0.77528 0.0
C447 C 0.39227 0.06592 0.75138 0.0
O448 O 0.38552 0.11398 0.72303 0.0
O449 O 0.36582 0.10218 0.74028 0.0
O450 O 0.39052 0.07564 0.76529 0.0
O451 O 0.39535 0.07451 0.73704 0.0
C452 C 0.43095 0.10579 0.74756 0.0
O453 O 0.38344 0.11023 0.77751 0.0
O454 O 0.39335 0.13096 0.7603 0.0
In455 In 0.89453 0.39431 0.7498 0.0
O456 O 0.88379 0.41975 0.73584 0.0
O457 O 0.89663 0.42252 0.76136 0.0
C458 C 0.88858 0.3696 0.72376 0.0
C459 C 0.87086 0.38566 0.77607 0.0
C460 C 0.93086 0.39273 0.75071 0.0
O461 O 0.88496 0.38611 0.72159 0.0
O462 O 0.89505 0.36568 0.73901 0.0
O463 O 0.92114 0.38456 0.7621 0.0
O464 O 0.92224 0.4015 0.73898 0.0
C465 C 0.88893 0.43022 0.74831 0.0
O466 O 0.88745 0.38796 0.77917 0.0
O467 O 0.86633 0.38749 0.75978 0.0
In468 In 0.60355 0.1038 0.2457 0.0
O469 O 0.57784 0.11044 0.2616 0.0
O470 O 0.57533 0.1036 0.23387 0.0
C471 C 0.62931 0.11101 0.27032 0.0
C472 C 0.61099 0.12912 0.22076 0.0
C473 C 0.6062 0.06749 0.24362 0.0
O474 O 0.6127 0.11259 0.27377 0.0
O475 O 0.63286 0.10598 0.25444 0.0
O476 O 0.61002 0.07756 0.23043 0.0
O477 O 0.60121 0.07574 0.25761 0.0
C478 C 0.56748 0.10801 0.24828 0.0
O479 O 0.61166 0.11244 0.21725 0.0
O480 O 0.6068 0.13292 0.23683 0.0
In481 In 0.89452 0.60333 0.24869 0.0
O482 O 0.92099 0.61184 0.23516 0.0
O483 O 0.92239 0.59584 0.25888 0.0
C484 C 0.87062 0.6117 0.22264 0.0
C485 C 0.88853 0.62872 0.27411 0.0
C486 C 0.88859 0.56748 0.25058 0.0
O487 O 0.88742 0.61157 0.21986 0.0
O488 O 0.86599 0.60802 0.23861 0.0
O489 O 0.88797 0.57749 0.26439 0.0
O490 O 0.89215 0.57558 0.23606 0.0
C491 C 0.93085 0.604 0.2466 0.0
O492 O 0.88318 0.61263 0.27593 0.0
O493 O 0.89659 0.63191 0.25949 0.0
In494 In 0.39719 0.8937 0.24904 0.0
O495 O 0.38675 0.91967 0.23585 0.0
O496 O 0.40295 0.92187 0.25943 0.0
C497 C 0.38944 0.86905 0.22346 0.0
C498 C 0.37243 0.88743 0.27487 0.0
C499 C 0.43318 0.88869 0.25029 0.0
O500 O 0.39032 0.88573 0.22004 0.0
O501 O 0.39237 0.86493 0.23971 0.0
O502 O 0.42288 0.88312 0.26269 0.0
O503 O 0.42527 0.89654 0.23745 0.0
C504 C 0.3942 0.92992 0.2473 0.0
O505 O 0.38914 0.88767 0.27823 0.0
O506 O 0.36836 0.89019 0.25858 0.0
In507 In 0.10316 0.39388 0.24809 0.0
O508 O 0.11559 0.38492 0.2748 0.0
O509 O 0.10202 0.36525 0.25875 0.0
C510 C 0.10742 0.43004 0.25048 0.0
C511 C 0.0669 0.39112 0.24673 0.0
C512 C 0.12738 0.38503 0.22251 0.0
O513 O 0.10857 0.41991 0.2641 0.0
O514 O 0.10428 0.42193 0.23586 0.0
O515 O 0.11066 0.38575 0.2193 0.0
O516 O 0.13176 0.38852 0.23859 0.0
C517 C 0.1105 0.36871 0.27313 0.0
O518 O 0.07671 0.38721 0.23338 0.0
O519 O 0.07537 0.39644 0.26051 0.0
In520 In 0.75045 0.60137 0.89796 0.0
O521 O 0.72115 0.60833 0.89142 0.0
O522 O 0.74048 0.62962 0.89163 0.0
C523 C 0.74878 0.565 0.89627 0.0
C524 C 0.75515 0.60715 0.93373 0.0
C525 C 0.77388 0.6084 0.87114 0.0
O526 O 0.73518 0.57478 0.89332 0.0
O527 O 0.76297 0.57356 0.90017 0.0
O528 O 0.7764 0.61394 0.88709 0.0
O529 O 0.75948 0.59956 0.86878 0.0
C530 C 0.72423 0.62499 0.88947 0.0
O531 O 0.76819 0.60703 0.92281 0.0
O532 O 0.73995 0.60445 0.92661 0.0
In533 In 0.74807 0.39916 0.10412 0.0
O534 O 0.72872 0.42312 0.10724 0.0
O535 O 0.7568 0.42771 0.11088 0.0
C536 C 0.71986 0.37687 0.11066 0.0
C537 C 0.77401 0.3919 0.12844 0.0
C538 C 0.75744 0.39544 0.06894 0.0
O539 O 0.71858 0.39048 0.10055 0.0
O540 O 0.73522 0.37469 0.11757 0.0
O541 O 0.75564 0.41047 0.07661 0.0
O542 O 0.75502 0.38205 0.07912 0.0
C543 C 0.74115 0.43431 0.11064 0.0
O544 O 0.77624 0.38906 0.11176 0.0
O545 O 0.75877 0.39814 0.13266 0.0
In546 In 0.60172 0.74759 0.1035 0.0
O547 O 0.6074 0.76282 0.07726 0.0
O548 O 0.6037 0.73436 0.07599 0.0
C549 C 0.60874 0.77352 0.12816 0.0
C550 C 0.62589 0.72191 0.11191 0.0
C551 C 0.56541 0.74527 0.10443 0.0
O552 O 0.61351 0.77496 0.11188 0.0
O553 O 0.60055 0.75907 0.1319 0.0
O554 O 0.57535 0.73417 0.11265 0.0
O555 O 0.57379 0.7574 0.09595 0.0
C556 C 0.60676 0.7488 0.06754 0.0
O557 O 0.60909 0.71906 0.11248 0.0
O558 O 0.63036 0.73773 0.10745 0.0
In559 In 0.24673 0.601 0.10224 0.0
O560 O 0.21759 0.60724 0.11 0.0
O561 O 0.23768 0.60887 0.13045 0.0
C562 C 0.24313 0.60108 0.06601 0.0
C563 C 0.24982 0.56532 0.10864 0.0
C564 C 0.27244 0.6263 0.10734 0.0
O565 O 0.23275 0.61 0.07614 0.0
O566 O 0.25511 0.59224 0.07417 0.0
O567 O 0.27365 0.61068 0.11403 0.0
O568 O 0.25835 0.62904 0.09822 0.0
C569 C 0.22122 0.61027 0.12639 0.0
O570 O 0.26343 0.57555 0.10753 0.0
O571 O 0.23485 0.57315 0.10684 0.0
In572 In 0.39499 0.2492 0.10424 0.0
O573 O 0.38884 0.23288 0.07856 0.0
O574 O 0.39266 0.26118 0.07621 0.0
C575 C 0.38922 0.22414 0.12986 0.0
C576 C 0.37071 0.27454 0.11355 0.0
C577 C 0.43128 0.25174 0.10513 0.0
O578 O 0.3833 0.22237 0.11395 0.0
O579 O 0.39782 0.23858 0.13279 0.0
O580 O 0.42124 0.26442 0.11044 0.0
O581 O 0.423 0.23795 0.0995 0.0
C582 C 0.3895 0.24645 0.0683 0.0
O583 O 0.3873 0.27804 0.11182 0.0
O584 O 0.36647 0.25826 0.11087 0.0
In585 In 0.24927 0.39545 0.89388 0.0
O586 O 0.2348 0.3865 0.91976 0.0
O587 O 0.26089 0.39831 0.92198 0.0
C588 C 0.2238 0.38951 0.8686 0.0
C589 C 0.27466 0.37057 0.8863 0.0
C590 C 0.25086 0.43167 0.89152 0.0
O591 O 0.22137 0.38552 0.885 0.0
O592 O 0.23903 0.39629 0.86508 0.0
O593 O 0.26279 0.42166 0.88459 0.0
O594 O 0.23829 0.42337 0.89946 0.0
C595 C 0.24751 0.39154 0.93 0.0
O596 O 0.27822 0.38723 0.88703 0.0
O597 O 0.25835 0.36661 0.8891 0.0
In598 In 0.60044 0.24989 0.89381 0.0
O599 O 0.61054 0.22206 0.88515 0.0
O600 O 0.59945 0.23933 0.8651 0.0
C601 C 0.60521 0.248 0.92985 0.0
C602 C 0.56419 0.25117 0.89129 0.0
C603 C 0.62495 0.27571 0.88593 0.0
O604 O 0.6098 0.23528 0.91947 0.0
O605 O 0.59836 0.26143 0.92202 0.0
O606 O 0.6084 0.27917 0.88789 0.0
O607 O 0.62898 0.25929 0.88761 0.0
C608 C 0.60639 0.22424 0.86875 0.0
O609 O 0.5742 0.26304 0.88423 0.0
O610 O 0.57249 0.23883 0.89953 0.0
In611 In 0.39563 0.74939 0.89435 0.0
O612 O 0.38974 0.77847 0.88632 0.0
O613 O 0.38994 0.75845 0.86566 0.0
C614 C 0.39358 0.75208 0.93068 0.0
C615 C 0.43144 0.74712 0.88835 0.0
C616 C 0.37036 0.72397 0.88783 0.0
O617 O 0.38556 0.76297 0.92037 0.0
O618 O 0.40249 0.74007 0.92267 0.0
O619 O 0.38702 0.72078 0.88638 0.0
O620 O 0.36655 0.73989 0.89244 0.0
C621 C 0.388 0.77489 0.86973 0.0
O622 O 0.42114 0.73357 0.88696 0.0
O623 O 0.42364 0.76161 0.89257 0.0
H624 H 0.12976 0.37207 0.30449 0.0
H625 H 0.09757 0.33438 0.27364 0.0
H626 H 0.13314 0.34958 0.32836 0.0
H627 H 0.10039 0.31223 0.29757 0.0
H628 H 0.11861 0.27019 0.33615 0.0
H629 H 0.12084 0.29245 0.31214 0.0
H630 H 0.11532 0.33528 0.3514 0.0
H631 H 0.11379 0.31291 0.37551 0.0
C632 C 0.12346 0.35897 0.30281 0.0
C633 C 0.11341 0.35497 0.28722 0.0
C634 C 0.1253 0.34613 0.31651 0.0
C635 C 0.11706 0.32907 0.3149 0.0
C636 C 0.10722 0.32507 0.29915 0.0
C637 C 0.10548 0.33783 0.28546 0.0
C638 C 0.11809 0.28437 0.33966 0.0
C639 C 0.11587 0.28984 0.35766 0.0
C640 C 0.11926 0.29714 0.32589 0.0
C641 C 0.11799 0.31567 0.32978 0.0
C642 C 0.11649 0.32114 0.34791 0.0
C643 C 0.11552 0.30834 0.36173 0.0
H644 H 0.69542 0.13078 0.3665 0.0
H645 H 0.72576 0.09498 0.33203 0.0
H646 H 0.67231 0.13353 0.34314 0.0
H647 H 0.70251 0.09713 0.30905 0.0
H648 H 0.66548 0.11387 0.26473 0.0
H649 H 0.68919 0.11625 0.28738 0.0
H650 H 0.64887 0.11607 0.32952 0.0
H651 H 0.62516 0.11445 0.30674 0.0
C652 C 0.69714 0.12352 0.35393 0.0
C653 C 0.71237 0.11267 0.35108 0.0
C654 C 0.68386 0.125 0.34059 0.0
C655 C 0.68551 0.11555 0.32418 0.0
C656 C 0.70091 0.10488 0.32134 0.0
C657 C 0.71422 0.10354 0.33458 0.0
C658 C 0.6617 0.11453 0.27884 0.0
C659 C 0.6435 0.11385 0.284 0.0
C660 C 0.67528 0.11578 0.29184 0.0
C661 C 0.67098 0.11613 0.31032 0.0
C662 C 0.6527 0.11603 0.31543 0.0
C663 C 0.6391 0.11499 0.30239 0.0
H664 H 0.8886 0.68725 0.37546 0.0
H665 H 0.88135 0.72869 0.33522 0.0
H666 H 0.88684 0.66415 0.35199 0.0
H667 H 0.87893 0.70568 0.31187 0.0
H668 H 0.9013 0.66309 0.27355 0.0
H669 H 0.89925 0.68579 0.2971 0.0
H670 H 0.86826 0.64887 0.32998 0.0
H671 H 0.87083 0.62584 0.30644 0.0
C672 C 0.88633 0.69139 0.36164 0.0
C673 C 0.88531 0.70975 0.35713 0.0
C674 C 0.88522 0.67816 0.34819 0.0
C675 C 0.88293 0.68305 0.32999 0.0
C676 C 0.88111 0.70143 0.32567 0.0
C677 C 0.88239 0.71463 0.33907 0.0
C678 C 0.89395 0.65983 0.28575 0.0
C679 C 0.88625 0.64268 0.28816 0.0
C680 C 0.89266 0.67291 0.29923 0.0
C681 C 0.88352 0.66921 0.31544 0.0
C682 C 0.87556 0.6521 0.31775 0.0
C683 C 0.87694 0.63895 0.30424 0.0
H684 H 0.3766 0.88948 0.31146 0.0
H685 H 0.33688 0.88001 0.26984 0.0
H686 H 0.35288 0.88856 0.3343 0.0
H687 H 0.3133 0.87832 0.2926 0.0
H688 H 0.27392 0.90117 0.33366 0.0
H689 H 0.29782 0.89883 0.31141 0.0
H690 H 0.33111 0.87069 0.35011 0.0
H691 H 0.30726 0.87369 0.37267 0.0
C692 C 0.36284 0.88689 0.30725 0.0
C693 C 0.35853 0.88501 0.28889 0.0
C694 C 0.34924 0.88626 0.32033 0.0
C695 C 0.33112 0.88356 0.31529 0.0
C696 C 0.32703 0.88087 0.29694 0.0
C697 C 0.34055 0.88172 0.2839 0.0
C698 C 0.2863 0.8944 0.3374 0.0
C699 C 0.28874 0.88763 0.3549 0.0
C700 C 0.29999 0.89293 0.32459 0.0
C701 C 0.31641 0.88448 0.3289 0.0
C702 C 0.31874 0.87747 0.34638 0.0
C703 C 0.30505 0.87908 0.35927 0.0
H704 H 0.12316 0.62571 0.69115 0.0
H705 H 0.09629 0.66455 0.72522 0.0
H706 H 0.12628 0.64853 0.66758 0.0
H707 H 0.09877 0.68709 0.70159 0.0
H708 H 0.11708 0.72885 0.66236 0.0
H709 H 0.11915 0.70599 0.68583 0.0
H710 H 0.1081 0.66445 0.64627 0.0
H711 H 0.10678 0.68735 0.6227 0.0
C712 C 0.11793 0.63913 0.69359 0.0
C713 C 0.10948 0.64336 0.71 0.0
C714 C 0.11962 0.65217 0.68006 0.0
C715 C 0.11278 0.66968 0.68266 0.0
C716 C 0.10451 0.67389 0.69921 0.0
C717 C 0.10296 0.66091 0.71274 0.0
C718 C 0.1153 0.71481 0.65867 0.0
C719 C 0.11164 0.70987 0.64075 0.0
C720 C 0.11637 0.70171 0.67214 0.0
C721 C 0.11356 0.68337 0.66802 0.0
C722 C 0.11051 0.67841 0.64993 0.0
C723 C 0.10965 0.69152 0.63642 0.0
H724 H 0.26905 0.11812 0.66446 0.0
H725 H 0.31075 0.10961 0.62472 0.0
H726 H 0.29191 0.12098 0.68793 0.0
H727 H 0.33364 0.11173 0.64827 0.0
H728 H 0.3722 0.12735 0.69309 0.0
H729 H 0.34907 0.13037 0.66976 0.0
H730 H 0.31146 0.10105 0.7034 0.0
H731 H 0.33426 0.09864 0.72677 0.0
C732 C 0.28313 0.1169 0.66075 0.0
C733 C 0.28813 0.1135 0.64281 0.0
C734 C 0.29624 0.11843 0.6742 0.0
C735 C 0.31463 0.11638 0.67005 0.0
C736 C 0.31964 0.11359 0.65195 0.0
C737 C 0.30651 0.11225 0.63845 0.0
C738 C 0.35891 0.12175 0.69552 0.0
C739 C 0.35503 0.11274 0.71172 0.0
C740 C 0.34569 0.12338 0.68213 0.0
C741 C 0.32839 0.11594 0.68466 0.0
C742 C 0.3245 0.10724 0.70107 0.0
C743 C 0.33764 0.10573 0.71445 0.0
H744 H 0.87562 0.27078 0.66145 0.0
H745 H 0.89177 0.31121 0.62274 0.0
H746 H 0.87326 0.29395 0.68469 0.0
H747 H 0.88999 0.33435 0.64611 0.0
H748 H 0.87424 0.37423 0.69002 0.0
H749 H 0.87103 0.3515 0.66626 0.0
H750 H 0.89444 0.31154 0.70159 0.0
H751 H 0.89715 0.33402 0.72533 0.0
C752 C 0.87856 0.28465 0.65789 0.0
C753 C 0.88401 0.28918 0.64034 0.0
C754 C 0.87732 0.29792 0.67123 0.0
C755 C 0.88167 0.31599 0.66734 0.0
C756 C 0.8864 0.32061 0.64955 0.0
C757 C 0.8875 0.30734 0.63617 0.0
C758 C 0.87855 0.36054 0.6927 0.0
C759 C 0.88597 0.35589 0.70951 0.0
C760 C 0.8768 0.34755 0.67908 0.0
C761 C 0.88245 0.32968 0.68201 0.0
C762 C 0.88964 0.32506 0.69895 0.0
C763 C 0.89133 0.338 0.71253 0.0
H764 H 0.69279 0.86987 0.6283 0.0
H765 H 0.72542 0.90179 0.66468 0.0
H766 H 0.66962 0.86702 0.6516 0.0
H767 H 0.70217 0.89962 0.68758 0.0
H768 H 0.66482 0.88246 0.73116 0.0
H769 H 0.68804 0.87999 0.70812 0.0
H770 H 0.6473 0.8847 0.66659 0.0
H771 H 0.62399 0.88633 0.68978 0.0
C772 C 0.695 0.87625 0.64128 0.0
C773 C 0.7109 0.88602 0.6447 0.0
C774 C 0.6817 0.87472 0.65459 0.0
C775 C 0.68401 0.88306 0.67151 0.0
C776 C 0.70005 0.89268 0.67488 0.0
C777 C 0.71336 0.89405 0.66168 0.0
C778 C 0.66083 0.88279 0.7171 0.0
C779 C 0.64265 0.88474 0.71224 0.0
C780 C 0.67414 0.88148 0.70388 0.0
C781 C 0.6696 0.88241 0.68547 0.0
C782 C 0.65129 0.88376 0.68062 0.0
C783 C 0.63793 0.88481 0.69389 0.0
H784 H 0.37407 0.12492 0.30773 0.0
H785 H 0.33539 0.09741 0.27378 0.0
H786 H 0.35121 0.12798 0.33128 0.0
H787 H 0.31286 0.09973 0.2974 0.0
H788 H 0.27082 0.11777 0.33614 0.0
H789 H 0.29378 0.11973 0.31279 0.0
H790 H 0.33519 0.11041 0.35283 0.0
H791 H 0.31214 0.10933 0.37631 0.0
C792 C 0.36069 0.11953 0.30533 0.0
C793 C 0.35649 0.11096 0.28893 0.0
C794 C 0.34762 0.12117 0.31884 0.0
C795 C 0.33014 0.11413 0.31627 0.0
C796 C 0.32601 0.10567 0.29976 0.0
C797 C 0.33899 0.10421 0.28623 0.0
C798 C 0.28485 0.11633 0.33995 0.0
C799 C 0.28971 0.11326 0.35799 0.0
C800 C 0.29803 0.11732 0.32656 0.0
C801 C 0.31636 0.11497 0.33084 0.0
C802 C 0.32124 0.11247 0.34903 0.0
C803 C 0.30804 0.11174 0.36249 0.0
H804 H 0.89885 0.27308 0.33442 0.0
H805 H 0.87242 0.3071 0.37363 0.0
H806 H 0.89642 0.29678 0.31203 0.0
H807 H 0.86934 0.33079 0.3509 0.0
H808 H 0.88959 0.37563 0.3119 0.0
H809 H 0.88769 0.35209 0.33486 0.0
H810 H 0.87618 0.31265 0.29333 0.0
H811 H 0.87885 0.33602 0.27046 0.0
C812 C 0.89224 0.28556 0.33817 0.0
C813 C 0.88586 0.28825 0.35579 0.0
C814 C 0.89072 0.29914 0.32527 0.0
C815 C 0.88261 0.31572 0.3296 0.0
C816 C 0.87585 0.31828 0.34716 0.0
C817 C 0.87751 0.30468 0.36015 0.0
C818 C 0.8865 0.36194 0.30776 0.0
C819 C 0.8846 0.35759 0.28941 0.0
C820 C 0.8853 0.34846 0.3209 0.0
C821 C 0.88198 0.33041 0.31595 0.0
C822 C 0.87919 0.32631 0.29762 0.0
C823 C 0.88062 0.33972 0.2845 0.0
H824 H 0.68629 0.88785 0.37603 0.0
H825 H 0.72807 0.88267 0.33579 0.0
H826 H 0.66337 0.88687 0.35232 0.0
H827 H 0.70525 0.88114 0.31219 0.0
H828 H 0.6628 0.90471 0.27458 0.0
H829 H 0.68516 0.90228 0.29842 0.0
H830 H 0.64867 0.86876 0.32922 0.0
H831 H 0.62599 0.87163 0.30539 0.0
C832 C 0.69054 0.8862 0.36215 0.0
C833 C 0.70895 0.88552 0.35773 0.0
C834 C 0.67742 0.88556 0.34857 0.0
C835 C 0.68248 0.88414 0.33033 0.0
C836 C 0.7009 0.88265 0.32606 0.0
C837 C 0.71398 0.88341 0.33959 0.0
C838 C 0.65955 0.89676 0.2864 0.0
C839 C 0.64264 0.88837 0.28812 0.0
C840 C 0.67243 0.89525 0.30004 0.0
C841 C 0.66877 0.88522 0.31571 0.0
C842 C 0.65186 0.87672 0.3174 0.0
C843 C 0.63891 0.87828 0.30373 0.0
H844 H 0.126 0.62315 0.30823 0.0
H845 H 0.10387 0.66321 0.27228 0.0
H846 H 0.12993 0.64623 0.33152 0.0
H847 H 0.10709 0.68602 0.29558 0.0
H848 H 0.12445 0.72729 0.33536 0.0
H849 H 0.12741 0.70391 0.31241 0.0
H850 H 0.11181 0.66357 0.35156 0.0
H851 H 0.10966 0.68691 0.37464 0.0
C852 C 0.12203 0.63689 0.30531 0.0
C853 C 0.11459 0.64138 0.28848 0.0
C854 C 0.12418 0.65009 0.31867 0.0
C855 C 0.11881 0.66801 0.31548 0.0
C856 C 0.11171 0.67248 0.29846 0.0
C857 C 0.10971 0.65935 0.2851 0.0
C858 C 0.12192 0.71338 0.33909 0.0
C859 C 0.11668 0.70891 0.35672 0.0
C860 C 0.12349 0.69998 0.32592 0.0
C861 C 0.11958 0.68186 0.33003 0.0
C862 C 0.1151 0.67734 0.34791 0.0
C863 C 0.11376 0.69072 0.36115 0.0
H864 H 0.33683 0.87835 0.7255 0.0
H865 H 0.37677 0.88807 0.68422 0.0
H866 H 0.31345 0.87631 0.70251 0.0
H867 H 0.35324 0.88667 0.66116 0.0
H868 H 0.30763 0.8713 0.62256 0.0
H869 H 0.33138 0.86827 0.6453 0.0
H870 H 0.29837 0.89733 0.68355 0.0
H871 H 0.27462 0.89984 0.66114 0.0
C872 C 0.34061 0.87999 0.71148 0.0
C873 C 0.35858 0.88352 0.70665 0.0
C874 C 0.32719 0.87893 0.6983 0.0
C875 C 0.3314 0.88158 0.67999 0.0
C876 C 0.34953 0.88442 0.67511 0.0
C877 C 0.36301 0.88532 0.68832 0.0
C878 C 0.30546 0.87689 0.6359 0.0
C879 C 0.28928 0.88578 0.64009 0.0
C880 C 0.31908 0.87525 0.64888 0.0
C881 C 0.31678 0.8825 0.66628 0.0
C882 C 0.30049 0.89126 0.67043 0.0
C883 C 0.2869 0.89282 0.65752 0.0
H884 H 0.12358 0.37566 0.68812 0.0
H885 H 0.10464 0.33485 0.72516 0.0
H886 H 0.12678 0.35272 0.66458 0.0
H887 H 0.10749 0.31209 0.70168 0.0
H888 H 0.12602 0.27198 0.66074 0.0
H889 H 0.12899 0.29562 0.68349 0.0
H890 H 0.10656 0.33427 0.64614 0.0
H891 H 0.10401 0.31071 0.62326 0.0
C892 C 0.12022 0.36179 0.69126 0.0
C893 C 0.11381 0.35704 0.70845 0.0
C894 C 0.12196 0.34868 0.67777 0.0
C895 C 0.11738 0.33058 0.68125 0.0
C896 C 0.1114 0.32584 0.69861 0.0
C897 C 0.10963 0.33892 0.71204 0.0
C898 C 0.12196 0.28559 0.65732 0.0
C899 C 0.11464 0.28948 0.64029 0.0
C900 C 0.12357 0.2991 0.67038 0.0
C901 C 0.11782 0.31679 0.6667 0.0
C902 C 0.11126 0.32084 0.64937 0.0
C903 C 0.10971 0.30732 0.63628 0.0
H904 H 0.68494 0.10729 0.62024 0.0
H905 H 0.72647 0.11967 0.65925 0.0
H906 H 0.66221 0.10861 0.64402 0.0
H907 H 0.70378 0.12179 0.68287 0.0
H908 H 0.66341 0.09958 0.72352 0.0
H909 H 0.6856 0.10174 0.69954 0.0
H910 H 0.64588 0.12671 0.66495 0.0
H911 H 0.62341 0.12384 0.68889 0.0
C912 C 0.68914 0.11061 0.63385 0.0
C913 C 0.70746 0.11319 0.63795 0.0
C914 C 0.67612 0.11147 0.64748 0.0
C915 C 0.68115 0.11513 0.66545 0.0
C916 C 0.69944 0.1185 0.6693 0.0
C917 C 0.71245 0.11741 0.65574 0.0
C918 C 0.65944 0.10563 0.71084 0.0
C919 C 0.64167 0.1115 0.70807 0.0
C920 C 0.67221 0.107 0.69709 0.0
C921 C 0.6676 0.11447 0.68026 0.0
C922 C 0.64986 0.12067 0.67763 0.0
C923 C 0.63701 0.11914 0.69137 0.0
H924 H 0.90478 0.72214 0.66074 0.0
H925 H 0.8684 0.69281 0.62575 0.0
H926 H 0.90242 0.69845 0.68317 0.0
H927 H 0.86556 0.66913 0.6486 0.0
H928 H 0.88356 0.62171 0.68584 0.0
H929 H 0.88279 0.64519 0.6627 0.0
H930 H 0.88179 0.68604 0.70438 0.0
H931 H 0.88322 0.66268 0.72734 0.0
C932 C 0.89612 0.71068 0.65792 0.0
C933 C 0.88675 0.70934 0.6415 0.0
C934 C 0.89465 0.69713 0.67086 0.0
C935 C 0.88366 0.68193 0.66778 0.0
C936 C 0.87424 0.68059 0.65134 0.0
C937 C 0.87579 0.69417 0.6383 0.0
C938 C 0.88302 0.63572 0.69 0.0
C939 C 0.88367 0.6404 0.70836 0.0
C940 C 0.88249 0.64917 0.67676 0.0
C941 C 0.88246 0.66752 0.68167 0.0
C942 C 0.88225 0.67207 0.7001 0.0
C943 C 0.88296 0.65868 0.71327 0.0
H944 H 0.30696 0.3732 0.12615 0.0
H945 H 0.27212 0.33272 0.1026 0.0
H946 H 0.33049 0.35056 0.13024 0.0
H947 H 0.29571 0.31033 0.10594 0.0
H948 H 0.33577 0.26966 0.12371 0.0
H949 H 0.31233 0.29249 0.12622 0.0
H950 H 0.35127 0.33384 0.11255 0.0
H951 H 0.37482 0.31103 0.11087 0.0
C952 C 0.30434 0.35945 0.12189 0.0
C953 C 0.28774 0.35472 0.11403 0.0
C954 C 0.31784 0.3465 0.12413 0.0
C955 C 0.31506 0.32858 0.1184 0.0
C956 C 0.29827 0.32387 0.11084 0.0
C957 C 0.28475 0.33675 0.10878 0.0
C958 C 0.33934 0.28367 0.1215 0.0
C959 C 0.35706 0.28858 0.11696 0.0
C960 C 0.32589 0.29676 0.12281 0.0
C961 C 0.32981 0.31502 0.11933 0.0
C962 C 0.34775 0.31997 0.11551 0.0
C963 C 0.36126 0.30688 0.11444 0.0
H964 H 0.37465 0.68739 0.88599 0.0
H965 H 0.33438 0.72928 0.8835 0.0
H966 H 0.35095 0.66449 0.88433 0.0
H967 H 0.31076 0.70654 0.88104 0.0
H968 H 0.27293 0.66304 0.90205 0.0
H969 H 0.29657 0.68568 0.90034 0.0
H970 H 0.32813 0.65015 0.86656 0.0
H971 H 0.30456 0.62711 0.86892 0.0
C972 C 0.36074 0.69168 0.88478 0.0
C973 C 0.35631 0.71008 0.88508 0.0
C974 C 0.34715 0.67857 0.88372 0.0
C975 C 0.32889 0.68364 0.88274 0.0
C976 C 0.32462 0.70212 0.88223 0.0
C977 C 0.33816 0.71517 0.88353 0.0
C978 C 0.28486 0.66009 0.89417 0.0
C979 C 0.28691 0.6433 0.88563 0.0
C980 C 0.2984 0.67314 0.89306 0.0
C981 C 0.31427 0.66982 0.88323 0.0
C982 C 0.31619 0.65309 0.87443 0.0
C983 C 0.30266 0.63993 0.87568 0.0
H984 H 0.26933 0.33469 0.8807 0.0
H985 H 0.31131 0.37487 0.88618 0.0
H986 H 0.29202 0.31105 0.87944 0.0
H987 H 0.33409 0.35112 0.88546 0.0
H988 H 0.37135 0.30404 0.87122 0.0
H989 H 0.3488 0.32782 0.86768 0.0
H990 H 0.31181 0.29747 0.90105 0.0
H991 H 0.33405 0.27367 0.90416 0.0
C992 C 0.28344 0.33847 0.88154 0.0
C993 C 0.28856 0.3566 0.88369 0.0
C994 C 0.29644 0.32491 0.88093 0.0
C995 C 0.31487 0.32916 0.88262 0.0
C996 C 0.32003 0.34739 0.88401 0.0
C997 C 0.30699 0.361 0.8845 0.0
C998 C 0.35835 0.30246 0.87769 0.0
C999 C 0.35445 0.28701 0.88795 0.0
C1000 C 0.34547 0.3161 0.87574 0.0
C1001 C 0.32847 0.31453 0.88402 0.0
C1002 C 0.32462 0.29899 0.89419 0.0
C1003 C 0.33743 0.28538 0.89609 0.0
H1004 H 0.62125 0.31216 0.88999 0.0
H1005 H 0.65997 0.27099 0.87618 0.0
H1006 H 0.64516 0.33488 0.88942 0.0
H1007 H 0.68373 0.29369 0.87489 0.0
H1008 H 0.72436 0.33282 0.89964 0.0
H1009 H 0.70015 0.31092 0.8963 0.0
H1010 H 0.66651 0.35174 0.8719 0.0
H1011 H 0.69071 0.37389 0.87586 0.0
C1012 C 0.63481 0.30804 0.88647 0.0
C1013 C 0.63881 0.2898 0.88331 0.0
C1014 C 0.64851 0.32106 0.88606 0.0
C1015 C 0.66644 0.3161 0.88232 0.0
C1016 C 0.67017 0.29794 0.87826 0.0
C1017 C 0.65654 0.28493 0.87886 0.0
C1018 C 0.71183 0.33711 0.89348 0.0
C1019 C 0.70941 0.35507 0.88804 0.0
C1020 C 0.69797 0.32451 0.89143 0.0
C1021 C 0.68136 0.32951 0.88374 0.0
C1022 C 0.67904 0.34747 0.87806 0.0
C1023 C 0.69292 0.36014 0.88024 0.0
H1024 H 0.72826 0.65992 0.87901 0.0
H1025 H 0.68781 0.62011 0.89242 0.0
H1026 H 0.70491 0.68275 0.87605 0.0
H1027 H 0.66442 0.64311 0.89023 0.0
H1028 H 0.6244 0.68665 0.87436 0.0
H1029 H 0.64745 0.66325 0.87163 0.0
H1030 H 0.68649 0.69921 0.89611 0.0
H1031 H 0.66376 0.72259 0.89817 0.0
C1032 C 0.71434 0.65606 0.88128 0.0
C1033 C 0.70985 0.6383 0.88609 0.0
C1034 C 0.70095 0.66916 0.8797 0.0
C1035 C 0.68277 0.66487 0.88317 0.0
C1036 C 0.67823 0.64689 0.8873 0.0
C1037 C 0.69164 0.63371 0.88866 0.0
C1038 C 0.63798 0.68954 0.87898 0.0
C1039 C 0.64229 0.70643 0.88646 0.0
C1040 C 0.65116 0.67612 0.87752 0.0
C1041 C 0.66887 0.67932 0.88362 0.0
C1042 C 0.67313 0.69634 0.89092 0.0
C1043 C 0.66004 0.70974 0.89224 0.0
H1044 H 0.66226 0.72474 0.10853 0.0
H1045 H 0.61996 0.68677 0.1217 0.0
H1046 H 0.68446 0.70084 0.1106 0.0
H1047 H 0.64238 0.66277 0.12437 0.0
H1048 H 0.68508 0.62232 0.10226 0.0
H1049 H 0.66161 0.64524 0.1049 0.0
H1050 H 0.69976 0.68122 0.13071 0.0
H1051 H 0.72326 0.6586 0.12742 0.0
C1052 C 0.65775 0.71131 0.11217 0.0
C1053 C 0.63938 0.70761 0.1149 0.0
C1054 C 0.67051 0.6976 0.11348 0.0
C1055 C 0.66523 0.67985 0.11769 0.0
C1056 C 0.64687 0.67624 0.12089 0.0
C1057 C 0.63405 0.69 0.11948 0.0
C1058 C 0.68834 0.63507 0.10865 0.0
C1059 C 0.70601 0.63879 0.11442 0.0
C1060 C 0.67489 0.64818 0.11027 0.0
C1061 C 0.67885 0.66517 0.11783 0.0
C1062 C 0.69634 0.66845 0.12443 0.0
C1063 C 0.70979 0.65546 0.12263 0.0
H1064 H 0.33214 0.72706 0.11455 0.0
H1065 H 0.37322 0.6859 0.11296 0.0
H1066 H 0.30888 0.70384 0.11605 0.0
H1067 H 0.34991 0.66258 0.11386 0.0
H1068 H 0.3032 0.62468 0.12779 0.0
H1069 H 0.32634 0.64806 0.13121 0.0
H1070 H 0.29642 0.68265 0.09512 0.0
H1071 H 0.27323 0.65961 0.09216 0.0
C1072 C 0.33619 0.71303 0.11462 0.0
C1073 C 0.35447 0.70828 0.11349 0.0
C1074 C 0.32286 0.69971 0.11536 0.0
C1075 C 0.3275 0.68133 0.11481 0.0
C1076 C 0.34586 0.67659 0.11444 0.0
C1077 C 0.35922 0.68995 0.11384 0.0
C1078 C 0.30158 0.63734 0.12069 0.0
C1079 C 0.28642 0.64034 0.10972 0.0
C1080 C 0.31485 0.65069 0.12258 0.0
C1081 C 0.31321 0.66727 0.1135 0.0
C1082 C 0.29797 0.6702 0.1026 0.0
C1083 C 0.28472 0.65693 0.10078 0.0
H1084 H 0.68668 0.37677 0.09461 0.0
H1085 H 0.71959 0.34749 0.13268 0.0
H1086 H 0.6634 0.35352 0.09683 0.0
H1087 H 0.69617 0.32447 0.13523 0.0
H1088 H 0.66305 0.27624 0.11343 0.0
H1089 H 0.68473 0.30087 0.11571 0.0
H1090 H 0.64104 0.33935 0.11634 0.0
H1091 H 0.61931 0.31463 0.11367 0.0
C1092 C 0.6888 0.36551 0.10366 0.0
C1093 C 0.705 0.36385 0.11334 0.0
C1094 C 0.67543 0.35224 0.10502 0.0
C1095 C 0.67798 0.33707 0.11612 0.0
C1096 C 0.69392 0.33582 0.12633 0.0
C1097 C 0.70729 0.34905 0.12493 0.0
C1098 C 0.65806 0.28995 0.11425 0.0
C1099 C 0.6395 0.29352 0.11328 0.0
C1100 C 0.67048 0.30407 0.11566 0.0
C1101 C 0.66462 0.32209 0.11616 0.0
C1102 C 0.64599 0.32563 0.11574 0.0
C1103 C 0.63355 0.31147 0.11433 0.0
H1104 H 0.62332 0.83516 0.77292 0.0
H1105 H 0.60825 0.87345 0.81416 0.0
H1106 H 0.62591 0.81162 0.79566 0.0
H1107 H 0.61009 0.84975 0.83689 0.0
H1108 H 0.60281 0.77033 0.83514 0.0
H1109 H 0.60547 0.79433 0.81304 0.0
H1110 H 0.62858 0.82937 0.85369 0.0
H1111 H 0.62527 0.80537 0.87605 0.0
C1112 C 0.62061 0.83854 0.78689 0.0
C1113 C 0.61544 0.85607 0.79178 0.0
C1114 C 0.62198 0.82503 0.79991 0.0
C1115 C 0.61796 0.82869 0.8181 0.0
C1116 C 0.61346 0.84646 0.82306 0.0
C1117 C 0.6123 0.86003 0.81003 0.0
C1118 C 0.60858 0.78311 0.83934 0.0
C1119 C 0.61377 0.786 0.85733 0.0
C1120 C 0.61024 0.79687 0.82662 0.0
C1121 C 0.61729 0.81382 0.83154 0.0
C1122 C 0.62288 0.81657 0.84949 0.0
C1123 C 0.62109 0.8028 0.86227 0.0
H1124 H 0.19014 0.62862 0.87284 0.0
H1125 H 0.22413 0.60261 0.83337 0.0
H1126 H 0.16641 0.63186 0.85015 0.0
H1127 H 0.20038 0.60517 0.81099 0.0
H1128 H 0.16048 0.62197 0.76969 0.0
H1129 H 0.18408 0.62502 0.79236 0.0
H1130 H 0.14515 0.61354 0.83427 0.0
H1131 H 0.12141 0.61131 0.81154 0.0
C1132 C 0.19255 0.62367 0.8593 0.0
C1133 C 0.20897 0.61536 0.85487 0.0
C1134 C 0.17893 0.62541 0.84633 0.0
C1135 C 0.18143 0.61876 0.82871 0.0
C1136 C 0.19804 0.61077 0.82429 0.0
C1137 C 0.21166 0.60917 0.83717 0.0
C1138 C 0.15695 0.62032 0.78377 0.0
C1139 C 0.13917 0.61625 0.78886 0.0
C1140 C 0.17049 0.62195 0.79678 0.0
C1141 C 0.16661 0.61927 0.81516 0.0
C1142 C 0.14863 0.61588 0.82028 0.0
C1143 C 0.13502 0.61449 0.80725 0.0
H1144 H 0.39414 0.16269 0.77394 0.0
H1145 H 0.37064 0.12192 0.80832 0.0
H1146 H 0.39044 0.185 0.79765 0.0
H1147 H 0.36637 0.14448 0.83204 0.0
H1148 H 0.38647 0.18442 0.87638 0.0
H1149 H 0.38466 0.16149 0.85282 0.0
H1150 H 0.36921 0.20236 0.81427 0.0
H1151 H 0.37168 0.22533 0.8377 0.0
C1152 C 0.38793 0.15856 0.78651 0.0
C1153 C 0.38276 0.14055 0.78932 0.0
C1154 C 0.38567 0.1714 0.80008 0.0
C1155 C 0.37806 0.16657 0.81678 0.0
C1156 C 0.37246 0.14861 0.81942 0.0
C1157 C 0.37482 0.13571 0.80582 0.0
C1158 C 0.38246 0.18844 0.86292 0.0
C1159 C 0.37943 0.20667 0.8588 0.0
C1160 C 0.38132 0.17528 0.84942 0.0
C1161 C 0.377 0.1801 0.83158 0.0
C1162 C 0.37298 0.19824 0.82777 0.0
C1163 C 0.37429 0.21139 0.84121 0.0
H1164 H 0.87565 0.38866 0.8125 0.0
H1165 H 0.83589 0.3752 0.77202 0.0
H1166 H 0.85258 0.38653 0.83587 0.0
H1167 H 0.81297 0.37236 0.79536 0.0
H1168 H 0.77332 0.3949 0.83676 0.0
H1169 H 0.79663 0.39261 0.81389 0.0
H1170 H 0.83231 0.36776 0.85271 0.0
H1171 H 0.80901 0.37066 0.87586 0.0
C1172 C 0.86204 0.3849 0.80866 0.0
C1173 C 0.8575 0.38229 0.79044 0.0
C1174 C 0.84883 0.38359 0.82205 0.0
C1175 C 0.83084 0.37946 0.8175 0.0
C1176 C 0.82657 0.37598 0.79932 0.0
C1177 C 0.83973 0.37749 0.78594 0.0
C1178 C 0.78609 0.38883 0.84039 0.0
C1179 C 0.78937 0.38301 0.85811 0.0
C1180 C 0.79945 0.38739 0.82723 0.0
C1181 C 0.81638 0.37995 0.83141 0.0
C1182 C 0.81951 0.37377 0.84908 0.0
C1183 C 0.80614 0.37532 0.86231 0.0
H1184 H 0.62968 0.19571 0.12457 0.0
H1185 H 0.5937 0.22526 0.15953 0.0
H1186 H 0.63262 0.17224 0.14759 0.0
H1187 H 0.59616 0.20176 0.18216 0.0
H1188 H 0.61448 0.16526 0.22619 0.0
H1189 H 0.61643 0.18888 0.20347 0.0
H1190 H 0.61501 0.14846 0.16137 0.0
H1191 H 0.61369 0.12478 0.18422 0.0
C1192 C 0.62242 0.19718 0.13717 0.0
C1193 C 0.61148 0.21231 0.14027 0.0
C1194 C 0.62402 0.18371 0.1503 0.0
C1195 C 0.61467 0.18512 0.16677 0.0
C1196 C 0.60384 0.20036 0.16982 0.0
C1197 C 0.60231 0.2138 0.15677 0.0
C1198 C 0.61478 0.16142 0.21209 0.0
C1199 C 0.61378 0.1432 0.20696 0.0
C1200 C 0.61579 0.17495 0.19905 0.0
C1201 C 0.61562 0.1706 0.18057 0.0
C1202 C 0.61531 0.1523 0.17547 0.0
C1203 C 0.61446 0.13873 0.18855 0.0
H1204 H 0.8341 0.60987 0.22532 0.0
H1205 H 0.87703 0.61971 0.18718 0.0
H1206 H 0.81206 0.61176 0.20114 0.0
H1207 H 0.85483 0.62217 0.16288 0.0
H1208 H 0.81131 0.6002 0.12297 0.0
H1209 H 0.83476 0.60268 0.14604 0.0
H1210 H 0.7978 0.63173 0.18049 0.0
H1211 H 0.7743 0.62866 0.15774 0.0
C1212 C 0.8388 0.61273 0.21178 0.0
C1213 C 0.85728 0.61459 0.20813 0.0
C1214 C 0.82615 0.61394 0.1979 0.0
C1215 C 0.83165 0.61714 0.18003 0.0
C1216 C 0.85015 0.61946 0.17645 0.0
C1217 C 0.86285 0.61818 0.19037 0.0
C1218 C 0.80831 0.60726 0.13541 0.0
C1219 C 0.79095 0.61405 0.13867 0.0
C1220 C 0.82176 0.60878 0.1486 0.0
C1221 C 0.81811 0.61724 0.16522 0.0
C1222 C 0.80096 0.62478 0.16802 0.0
C1223 C 0.78751 0.62311 0.15495 0.0
H1224 H 0.36984 0.80497 0.12577 0.0
H1225 H 0.39923 0.77112 0.1629 0.0
H1226 H 0.36785 0.82846 0.14888 0.0
H1227 H 0.39782 0.79464 0.18568 0.0
H1228 H 0.38165 0.83356 0.22856 0.0
H1229 H 0.37832 0.81017 0.2057 0.0
H1230 H 0.38709 0.84987 0.1639 0.0
H1231 H 0.38972 0.87339 0.18686 0.0
C1232 C 0.37582 0.80254 0.13889 0.0
C1233 C 0.38468 0.78623 0.14255 0.0
C1234 C 0.37479 0.81602 0.15208 0.0
C1235 C 0.38268 0.81347 0.16916 0.0
C1236 C 0.3913 0.79699 0.17282 0.0
C1237 C 0.39222 0.78352 0.15971 0.0
C1238 C 0.38269 0.8373 0.21448 0.0
C1239 C 0.38609 0.85525 0.20948 0.0
C1240 C 0.38088 0.82389 0.20137 0.0
C1241 C 0.38266 0.82807 0.18295 0.0
C1242 C 0.38547 0.84618 0.17794 0.0
C1243 C 0.38708 0.85965 0.19108 0.0
H1244 H 0.19121 0.36869 0.12404 0.0
H1245 H 0.22399 0.39889 0.16174 0.0
H1246 H 0.16784 0.36532 0.14711 0.0
H1247 H 0.20061 0.39607 0.18446 0.0
H1248 H 0.16298 0.37766 0.22719 0.0
H1249 H 0.18615 0.37527 0.20406 0.0
H1250 H 0.14576 0.38332 0.16275 0.0
H1251 H 0.12248 0.38502 0.18596 0.0
C1252 C 0.19342 0.37457 0.13725 0.0
C1253 C 0.20941 0.38404 0.1411 0.0
C1254 C 0.18001 0.37273 0.15043 0.0
C1255 C 0.18235 0.38037 0.16768 0.0
C1256 C 0.19847 0.38968 0.17148 0.0
C1257 C 0.21185 0.39143 0.15838 0.0
C1258 C 0.15903 0.37868 0.21315 0.0
C1259 C 0.14097 0.38169 0.20837 0.0
C1260 C 0.17232 0.37743 0.19989 0.0
C1261 C 0.16788 0.37938 0.18154 0.0
C1262 C 0.14966 0.38161 0.17673 0.0
C1263 C 0.13631 0.38268 0.19002 0.0
H1264 H 0.77222 0.59541 0.83685 0.0
H1265 H 0.80535 0.62774 0.87243 0.0
H1266 H 0.79482 0.59814 0.81326 0.0
H1267 H 0.82784 0.63096 0.84855 0.0
H1268 H 0.87283 0.6106 0.8101 0.0
H1269 H 0.84978 0.61242 0.83348 0.0
H1270 H 0.80876 0.61843 0.79245 0.0
H1271 H 0.83177 0.61601 0.7691 0.0
C1272 C 0.78424 0.60332 0.83954 0.0
C1273 C 0.78707 0.61128 0.8565 0.0
C1274 C 0.79716 0.605 0.82595 0.0
C1275 C 0.81317 0.61478 0.82898 0.0
C1276 C 0.81578 0.62314 0.84585 0.0
C1277 C 0.80286 0.62138 0.85949 0.0
C1278 C 0.8589 0.6125 0.80611 0.0
C1279 C 0.85406 0.61298 0.7878 0.0
C1280 C 0.84569 0.61365 0.8195 0.0
C1281 C 0.82738 0.61543 0.81485 0.0
C1282 C 0.82269 0.61671 0.7965 0.0
C1283 C 0.83587 0.61542 0.78312 0.0
H1284 H 0.37412 0.87319 0.80551 0.0
H1285 H 0.39977 0.83369 0.77125 0.0
H1286 H 0.37083 0.85048 0.82919 0.0
H1287 H 0.39711 0.81127 0.79495 0.0
H1288 H 0.3788 0.76998 0.83451 0.0
H1289 H 0.37653 0.79284 0.81105 0.0
H1290 H 0.38917 0.83427 0.85025 0.0
H1291 H 0.39072 0.8114 0.87383 0.0
C1292 C 0.37902 0.85965 0.80305 0.0
C1293 C 0.38721 0.8552 0.78655 0.0
C1294 C 0.37724 0.84667 0.81663 0.0
C1295 C 0.38369 0.82902 0.814 0.0
C1296 C 0.39166 0.8246 0.79736 0.0
C1297 C 0.39332 0.83751 0.78379 0.0
C1298 C 0.38088 0.784 0.83813 0.0
C1299 C 0.38508 0.78891 0.85595 0.0
C1300 C 0.37969 0.7971 0.82468 0.0
C1301 C 0.3829 0.81539 0.82869 0.0
C1302 C 0.38645 0.82035 0.84669 0.0
C1303 C 0.38744 0.80724 0.86019 0.0
H1304 H 0.2248 0.40145 0.834 0.0
H1305 H 0.19127 0.37215 0.87159 0.0
H1306 H 0.20149 0.3989 0.81112 0.0
H1307 H 0.16803 0.36892 0.84837 0.0
H1308 H 0.12296 0.38791 0.80937 0.0
H1309 H 0.14624 0.38651 0.8326 0.0
H1310 H 0.18671 0.37872 0.79135 0.0
H1311 H 0.16351 0.38091 0.76818 0.0
C1312 C 0.2125 0.39424 0.83729 0.0
C1313 C 0.20983 0.38704 0.85459 0.0
C1314 C 0.19916 0.39263 0.82411 0.0
C1315 C 0.18286 0.38361 0.82782 0.0
C1316 C 0.18031 0.37615 0.84509 0.0
C1317 C 0.19365 0.3779 0.85837 0.0
C1318 C 0.13682 0.38572 0.80532 0.0
C1319 C 0.14147 0.38471 0.78698 0.0
C1320 C 0.15017 0.38482 0.81863 0.0
C1321 C 0.16842 0.38271 0.81387 0.0
C1322 C 0.17287 0.3808 0.79551 0.0
C1323 C 0.15957 0.38193 0.78222 0.0
H1324 H 0.61626 0.16325 0.76892 0.0
H1325 H 0.60956 0.12279 0.81025 0.0
H1326 H 0.61766 0.18667 0.79196 0.0
H1327 H 0.61019 0.14628 0.83336 0.0
H1328 H 0.62398 0.19198 0.8721 0.0
H1329 H 0.62742 0.16855 0.84912 0.0
H1330 H 0.59713 0.20115 0.81148 0.0
H1331 H 0.59434 0.22466 0.83414 0.0
C1332 C 0.61512 0.15938 0.78296 0.0
C1333 C 0.61268 0.14123 0.7878 0.0
C1334 C 0.6158 0.1728 0.79618 0.0
C1335 C 0.61378 0.16842 0.81454 0.0
C1336 C 0.61196 0.15015 0.81939 0.0
C1337 C 0.6115 0.13669 0.80615 0.0
C1338 C 0.61819 0.19413 0.85885 0.0
C1339 C 0.60892 0.21014 0.8549 0.0
C1340 C 0.62007 0.18068 0.84571 0.0
C1341 C 0.6126 0.18294 0.8284 0.0
C1342 C 0.6034 0.19905 0.82451 0.0
C1343 C 0.60167 0.21251 0.83756 0.0
H1344 H 0.83557 0.37887 0.22728 0.0
H1345 H 0.87538 0.39153 0.1867 0.0
H1346 H 0.81241 0.37685 0.20407 0.0
H1347 H 0.85206 0.3903 0.16345 0.0
H1348 H 0.8072 0.37634 0.12372 0.0
H1349 H 0.8309 0.37258 0.1464 0.0
H1350 H 0.79664 0.3979 0.18621 0.0
H1351 H 0.77296 0.401 0.16386 0.0
C1352 C 0.83936 0.38118 0.21336 0.0
C1353 C 0.85721 0.38553 0.20879 0.0
C1354 C 0.82608 0.38013 0.20005 0.0
C1355 C 0.83028 0.38371 0.1819 0.0
C1356 C 0.84834 0.38733 0.17725 0.0
C1357 C 0.8617 0.38814 0.19058 0.0
C1358 C 0.80475 0.38093 0.13738 0.0
C1359 C 0.78825 0.38894 0.14204 0.0
C1360 C 0.81834 0.37888 0.15034 0.0
C1361 C 0.81568 0.38488 0.16817 0.0
C1362 C 0.79907 0.39275 0.17275 0.0
C1363 C 0.7855 0.39467 0.15988 0.0
H1364 H 0.62309 0.83586 0.2267 0.0
H1365 H 0.61158 0.87519 0.18534 0.0
H1366 H 0.62463 0.81226 0.20383 0.0
H1367 H 0.6126 0.85149 0.16248 0.0
H1368 H 0.62629 0.80578 0.12375 0.0
H1369 H 0.63068 0.82953 0.14631 0.0
H1370 H 0.60248 0.79702 0.18567 0.0
H1371 H 0.59852 0.77328 0.16336 0.0
C1372 C 0.62104 0.83948 0.21269 0.0
C1373 C 0.61706 0.85733 0.20781 0.0
C1374 C 0.62181 0.82594 0.1996 0.0
C1375 C 0.61848 0.82993 0.18135 0.0
C1376 C 0.61535 0.84797 0.17639 0.0
C1377 C 0.61469 0.86154 0.18949 0.0
C1378 C 0.62116 0.80371 0.13727 0.0
C1379 C 0.61204 0.78771 0.14179 0.0
C1380 C 0.62361 0.81733 0.15016 0.0
C1381 C 0.61697 0.81518 0.16781 0.0
C1382 C 0.60806 0.79902 0.17232 0.0
C1383 C 0.60566 0.78545 0.15948 0.0
H1384 H 0.12333 0.62526 0.19116 0.0
H1385 H 0.1629 0.59891 0.22478 0.0
H1386 H 0.14589 0.62864 0.16731 0.0
H1387 H 0.18518 0.60181 0.20095 0.0
H1388 H 0.22621 0.62046 0.16133 0.0
H1389 H 0.20345 0.62302 0.18487 0.0
H1390 H 0.16189 0.60973 0.14607 0.0
H1391 H 0.18467 0.60774 0.12241 0.0
C1392 C 0.13685 0.62025 0.19346 0.0
C1393 C 0.14136 0.6118 0.2098 0.0
C1394 C 0.14974 0.6221 0.17979 0.0
C1395 C 0.16736 0.61552 0.18222 0.0
C1396 C 0.17185 0.60733 0.19871 0.0
C1397 C 0.15903 0.60554 0.21235 0.0
C1398 C 0.21218 0.61833 0.15779 0.0
C1399 C 0.20722 0.61374 0.14009 0.0
C1400 C 0.19914 0.61969 0.1713 0.0
C1401 C 0.18086 0.61633 0.16742 0.0
C1402 C 0.17582 0.61253 0.14951 0.0
C1403 C 0.18888 0.61131 0.13596 0.0
H1404 H 0.40376 0.22386 0.16352 0.0
H1405 H 0.36957 0.19288 0.12776 0.0
H1406 H 0.40143 0.20033 0.18619 0.0
H1407 H 0.36671 0.16944 0.15077 0.0
H1408 H 0.3859 0.12266 0.18773 0.0
H1409 H 0.3845 0.14634 0.1649 0.0
H1410 H 0.38132 0.18662 0.20704 0.0
H1411 H 0.3834 0.16301 0.22974 0.0
C1412 C 0.39555 0.21209 0.1606 0.0
C1413 C 0.38688 0.21018 0.14386 0.0
C1414 C 0.3941 0.19864 0.17366 0.0
C1415 C 0.38381 0.18299 0.17036 0.0
C1416 C 0.3749 0.18121 0.15368 0.0
C1417 C 0.37646 0.19467 0.14054 0.0
C1418 C 0.38473 0.13658 0.19206 0.0
C1419 C 0.38495 0.14103 0.21048 0.0
C1420 C 0.38383 0.15015 0.179 0.0
C1421 C 0.383 0.16842 0.18412 0.0
C1422 C 0.38238 0.17273 0.2026 0.0
C1423 C 0.38345 0.1592 0.21562 0.0
H1424 H 0.87426 0.81203 0.61025 0.0
H1425 H 0.83556 0.771 0.6251 0.0
H1426 H 0.85099 0.83503 0.613 0.0
H1427 H 0.81242 0.79404 0.62855 0.0
H1428 H 0.77191 0.8346 0.6055 0.0
H1429 H 0.79534 0.81198 0.60835 0.0
H1430 H 0.83099 0.85181 0.632 0.0
H1431 H 0.80755 0.8747 0.62853 0.0
C1432 C 0.86085 0.80799 0.61446 0.0
C1433 C 0.85665 0.78972 0.61725 0.0
C1434 C 0.84752 0.82119 0.61615 0.0
C1435 C 0.82975 0.81638 0.62082 0.0
C1436 C 0.82585 0.79817 0.62454 0.0
C1437 C 0.83913 0.78498 0.62267 0.0
C1438 C 0.78469 0.83851 0.61146 0.0
C1439 C 0.78794 0.85644 0.61669 0.0
C1440 C 0.79811 0.82549 0.61324 0.0
C1441 C 0.81509 0.83004 0.62042 0.0
C1442 C 0.81815 0.8479 0.62618 0.0
C1443 C 0.80471 0.86098 0.62429 0.0
H1444 H 0.83625 0.22507 0.39705 0.0
H1445 H 0.87503 0.19204 0.36886 0.0
H1446 H 0.81352 0.20171 0.39328 0.0
H1447 H 0.85201 0.16872 0.36453 0.0
H1448 H 0.81258 0.12342 0.38341 0.0
H1449 H 0.83577 0.14682 0.38215 0.0
H1450 H 0.79471 0.18684 0.37193 0.0
H1451 H 0.77155 0.16354 0.37388 0.0
C1452 C 0.83984 0.21288 0.38981 0.0
C1453 C 0.85743 0.21035 0.3833 0.0
C1454 C 0.82676 0.19952 0.38752 0.0
C1455 C 0.83089 0.18333 0.37853 0.0
C1456 C 0.84842 0.18094 0.37169 0.0
C1457 C 0.86158 0.19432 0.37408 0.0
C1458 C 0.80857 0.13719 0.38066 0.0
C1459 C 0.79027 0.14172 0.37896 0.0
C1460 C 0.82186 0.1506 0.37985 0.0
C1461 C 0.8171 0.16877 0.37717 0.0
C1462 C 0.79882 0.17306 0.37445 0.0
C1463 C 0.78555 0.1597 0.37544 0.0
H1464 H 0.77308 0.83562 0.40178 0.0
H1465 H 0.80756 0.8745 0.37535 0.0
H1466 H 0.79669 0.8131 0.39967 0.0
H1467 H 0.83114 0.85166 0.37258 0.0
H1468 H 0.87565 0.81219 0.39171 0.0
H1469 H 0.8523 0.83534 0.39064 0.0
H1470 H 0.81231 0.79427 0.37927 0.0
H1471 H 0.83551 0.77118 0.3811 0.0
C1472 C 0.78566 0.83928 0.39529 0.0
C1473 C 0.78848 0.85682 0.38874 0.0
C1474 C 0.79919 0.82631 0.39395 0.0
C1475 C 0.81584 0.83049 0.38586 0.0
C1476 C 0.81857 0.84802 0.37908 0.0
C1477 C 0.80504 0.86108 0.38057 0.0
C1478 C 0.86188 0.80818 0.38884 0.0
C1479 C 0.85735 0.78989 0.38667 0.0
C1480 C 0.8485 0.82144 0.38813 0.0
C1481 C 0.83036 0.81667 0.38505 0.0
C1482 C 0.82604 0.7984 0.3821 0.0
C1483 C 0.83936 0.78517 0.38303 0.0
H1484 H 0.16247 0.77468 0.40114 0.0
H1485 H 0.1264 0.80533 0.36726 0.0
H1486 H 0.18522 0.79814 0.39835 0.0
H1487 H 0.1495 0.82875 0.36398 0.0
H1488 H 0.18695 0.8756 0.38328 0.0
H1489 H 0.16398 0.85196 0.38179 0.0
H1490 H 0.20584 0.81167 0.37773 0.0
H1491 H 0.2287 0.83523 0.37986 0.0
C1492 C 0.15949 0.78636 0.3929 0.0
C1493 C 0.14264 0.78819 0.38445 0.0
C1494 C 0.1726 0.79978 0.39118 0.0
C1495 C 0.16925 0.81532 0.38086 0.0
C1496 C 0.15245 0.81704 0.37217 0.0
C1497 C 0.13926 0.8036 0.37397 0.0
C1498 C 0.1912 0.8617 0.38187 0.0
C1499 C 0.20959 0.85722 0.38189 0.0
C1500 C 0.17804 0.84815 0.38092 0.0
C1501 C 0.18306 0.82988 0.37985 0.0
C1502 C 0.2015 0.82556 0.37897 0.0
C1503 C 0.21461 0.83906 0.38007 0.0
H1504 H 0.18785 0.12505 0.39058 0.0
H1505 H 0.22941 0.16469 0.38038 0.0
H1506 H 0.16502 0.14861 0.38926 0.0
H1507 H 0.20658 0.18818 0.37834 0.0
H1508 H 0.16512 0.22738 0.40164 0.0
H1509 H 0.18773 0.20387 0.39888 0.0
H1510 H 0.14913 0.16991 0.37107 0.0
H1511 H 0.12627 0.19333 0.37445 0.0
C1512 C 0.19206 0.13876 0.38772 0.0
C1513 C 0.2104 0.14309 0.38576 0.0
C1514 C 0.17897 0.15227 0.38686 0.0
C1515 C 0.18396 0.17035 0.38386 0.0
C1516 C 0.20229 0.17448 0.38108 0.0
C1517 C 0.21537 0.16101 0.38213 0.0
C1518 C 0.16149 0.21493 0.39485 0.0
C1519 C 0.14392 0.21215 0.38834 0.0
C1520 C 0.1745 0.20148 0.39313 0.0
C1521 C 0.17029 0.18497 0.38471 0.0
C1522 C 0.15277 0.18235 0.37784 0.0
C1523 C 0.1397 0.19579 0.37969 0.0
H1524 H 0.22731 0.16365 0.61213 0.0
H1525 H 0.18691 0.1217 0.61579 0.0
H1526 H 0.20386 0.18648 0.61377 0.0
H1527 H 0.16327 0.14462 0.61689 0.0
H1528 H 0.12627 0.19233 0.63143 0.0
H1529 H 0.14982 0.16935 0.63413 0.0
H1530 H 0.18106 0.19683 0.59327 0.0
H1531 H 0.15793 0.21981 0.59093 0.0
C1532 C 0.2134 0.15932 0.61335 0.0
C1533 C 0.20891 0.14091 0.61365 0.0
C1534 C 0.19994 0.1724 0.61419 0.0
C1535 C 0.18167 0.16737 0.61518 0.0
C1536 C 0.17722 0.14894 0.61623 0.0
C1537 C 0.19074 0.13581 0.61552 0.0
C1538 C 0.13823 0.19343 0.62311 0.0
C1539 C 0.1403 0.20787 0.61102 0.0
C1540 C 0.15166 0.18026 0.62459 0.0
C1541 C 0.16738 0.18133 0.61402 0.0
C1542 C 0.16932 0.19578 0.6019 0.0
C1543 C 0.15598 0.2089 0.60046 0.0
H1544 H 0.80958 0.12314 0.60833 0.0
H1545 H 0.7689 0.16471 0.60953 0.0
H1546 H 0.83315 0.14618 0.60994 0.0
H1547 H 0.79234 0.18769 0.61174 0.0
H1548 H 0.83759 0.22356 0.5907 0.0
H1549 H 0.81429 0.20049 0.59204 0.0
H1550 H 0.84741 0.16911 0.62828 0.0
H1551 H 0.87107 0.19212 0.62646 0.0
C1552 C 0.80569 0.13719 0.60921 0.0
C1553 C 0.78742 0.14216 0.60863 0.0
C1554 C 0.81918 0.15039 0.61023 0.0
C1555 C 0.81465 0.16881 0.6108 0.0
C1556 C 0.79632 0.17366 0.61092 0.0
C1557 C 0.78287 0.16049 0.60977 0.0
C1558 C 0.83989 0.21178 0.59901 0.0
C1559 C 0.85615 0.20963 0.60847 0.0
C1560 C 0.82646 0.19858 0.59989 0.0
C1561 C 0.82891 0.18297 0.61035 0.0
C1562 C 0.84516 0.18089 0.61995 0.0
C1563 C 0.85867 0.19409 0.61899 0.0
H1564 H 0.22578 0.83401 0.59958 0.0
H1565 H 0.19096 0.87319 0.62485 0.0
H1566 H 0.20202 0.81151 0.60137 0.0
H1567 H 0.16726 0.85036 0.62748 0.0
H1568 H 0.12261 0.81163 0.6073 0.0
H1569 H 0.14632 0.83443 0.60939 0.0
H1570 H 0.18539 0.79257 0.62025 0.0
H1571 H 0.16182 0.76985 0.61719 0.0
C1572 C 0.21312 0.83771 0.60584 0.0
C1573 C 0.2102 0.85536 0.61202 0.0
C1574 C 0.19948 0.82475 0.60699 0.0
C1575 C 0.18265 0.82905 0.61461 0.0
C1576 C 0.17992 0.84663 0.62127 0.0
C1577 C 0.19353 0.85969 0.61989 0.0
C1578 C 0.13626 0.80738 0.61025 0.0
C1579 C 0.14044 0.789 0.61187 0.0
C1580 C 0.14986 0.82044 0.61157 0.0
C1581 C 0.16787 0.81538 0.61482 0.0
C1582 C 0.1718 0.79698 0.61727 0.0
C1583 C 0.15827 0.78394 0.61564 0.0
H1584 H 0.11373 0.28246 0.45488 0.0
H1585 H 0.10028 0.22574 0.4567 0.0
H1586 H 0.11174 0.28399 0.48782 0.0
H1587 H 0.09873 0.22713 0.48942 0.0
H1588 H 0.07718 0.23873 0.54475 0.0
H1589 H 0.07903 0.23964 0.51199 0.0
H1590 H 0.12633 0.27369 0.51561 0.0
H1591 H 0.12418 0.27313 0.54854 0.0
C1592 C 0.11053 0.27031 0.46233 0.0
C1593 C 0.10705 0.25401 0.45323 0.0
C1594 C 0.10943 0.27116 0.48117 0.0
C1595 C 0.10486 0.25573 0.49123 0.0
C1596 C 0.10186 0.23936 0.48207 0.0
C1597 C 0.10289 0.23853 0.46331 0.0
C1598 C 0.08788 0.24654 0.53856 0.0
C1599 C 0.1006 0.25577 0.54919 0.0
C1600 C 0.08903 0.24696 0.51978 0.0
C1601 C 0.10299 0.25652 0.51118 0.0
C1602 C 0.11537 0.26627 0.52182 0.0
C1603 C 0.11417 0.26591 0.54066 0.0
H1604 H 0.76928 0.09307 0.53937 0.0
H1605 H 0.7214 0.12604 0.54211 0.0
H1606 H 0.76893 0.09506 0.50672 0.0
H1607 H 0.7213 0.12846 0.50912 0.0
H1608 H 0.71745 0.10958 0.44881 0.0
H1609 H 0.71645 0.11036 0.48183 0.0
H1610 H 0.77442 0.11656 0.48335 0.0
H1611 H 0.77543 0.11521 0.4506 0.0
C1612 C 0.75874 0.10088 0.53298 0.0
C1613 C 0.7454 0.10945 0.54331 0.0
C1614 C 0.75861 0.10213 0.51423 0.0
C1615 C 0.7452 0.11208 0.50528 0.0
C1616 C 0.73175 0.1206 0.5156 0.0
C1617 C 0.73186 0.1193 0.53447 0.0
C1618 C 0.72993 0.11126 0.45626 0.0
C1619 C 0.74653 0.11211 0.44717 0.0
C1620 C 0.72935 0.11179 0.47515 0.0
C1621 C 0.74538 0.11327 0.48525 0.0
C1622 C 0.76187 0.11496 0.47602 0.0
C1623 C 0.76244 0.11429 0.45724 0.0
H1624 H 0.8726 0.72313 0.45217 0.0
H1625 H 0.90641 0.77055 0.45616 0.0
H1626 H 0.86957 0.72267 0.48509 0.0
H1627 H 0.90376 0.76987 0.48879 0.0
H1628 H 0.88224 0.77591 0.5446 0.0
H1629 H 0.88157 0.77531 0.5118 0.0
H1630 H 0.88734 0.71731 0.51259 0.0
H1631 H 0.88754 0.7179 0.54562 0.0
C1632 C 0.87941 0.7334 0.46007 0.0
C1633 C 0.88967 0.74692 0.4516 0.0
C1634 C 0.87774 0.7331 0.47891 0.0
C1635 C 0.88629 0.74633 0.48956 0.0
C1636 C 0.89667 0.75971 0.481 0.0
C1637 C 0.8983 0.76002 0.46227 0.0
C1638 C 0.88319 0.763 0.5378 0.0
C1639 C 0.88511 0.74697 0.54766 0.0
C1640 C 0.88291 0.76266 0.51899 0.0
C1641 C 0.88469 0.74629 0.50956 0.0
C1642 C 0.88586 0.73014 0.51944 0.0
C1643 C 0.88605 0.73047 0.53834 0.0
H1644 H 0.22673 0.9069 0.45349 0.0
H1645 H 0.2753 0.875 0.45052 0.0
H1646 H 0.22744 0.90516 0.48617 0.0
H1647 H 0.27573 0.8727 0.48347 0.0
H1648 H 0.28037 0.89086 0.5434 0.0
H1649 H 0.28069 0.89044 0.51041 0.0
H1650 H 0.22266 0.8844 0.51002 0.0
H1651 H 0.22234 0.8855 0.5428 0.0
C1652 C 0.23749 0.89936 0.45985 0.0
C1653 C 0.25094 0.89106 0.44946 0.0
C1654 C 0.23783 0.89825 0.47861 0.0
C1655 C 0.25155 0.88864 0.48749 0.0
C1656 C 0.26506 0.88033 0.47708 0.0
C1657 C 0.26477 0.88156 0.45822 0.0
C1658 C 0.26772 0.88934 0.5362 0.0
C1659 C 0.25132 0.88841 0.54562 0.0
C1660 C 0.2679 0.889 0.51732 0.0
C1661 C 0.25168 0.8876 0.50753 0.0
C1662 C 0.23537 0.88595 0.51708 0.0
C1663 C 0.23518 0.88647 0.53589 0.0
H1664 H 0.08121 0.76443 0.5426 0.0
H1665 H 0.12599 0.72733 0.54431 0.0
H1666 H 0.08163 0.76361 0.50987 0.0
H1667 H 0.12691 0.727 0.51128 0.0
H1668 H 0.11111 0.71815 0.45149 0.0
H1669 H 0.11105 0.71732 0.48449 0.0
H1670 H 0.09945 0.77445 0.48577 0.0
H1671 H 0.09883 0.77505 0.45302 0.0
C1672 C 0.09125 0.75617 0.53594 0.0
C1673 C 0.10364 0.74602 0.546 0.0
C1674 C 0.09157 0.75579 0.51715 0.0
C1675 C 0.10445 0.74542 0.50789 0.0
C1676 C 0.11672 0.73503 0.51797 0.0
C1677 C 0.11627 0.73528 0.53687 0.0
C1678 C 0.10854 0.73049 0.45889 0.0
C1679 C 0.10482 0.74662 0.44971 0.0
C1680 C 0.10862 0.73005 0.47778 0.0
C1681 C 0.10509 0.74578 0.48782 0.0
C1682 C 0.10179 0.76198 0.47852 0.0
C1683 C 0.10155 0.76236 0.45972 0.0
H1684 H 0.22271 0.11321 0.455 0.0
H1685 H 0.28096 0.1134 0.45403 0.0
H1686 H 0.22319 0.11385 0.48779 0.0
H1687 H 0.2815 0.11345 0.48706 0.0
H1688 H 0.27435 0.12692 0.54758 0.0
H1689 H 0.27469 0.13015 0.51468 0.0
H1690 H 0.23038 0.0923 0.51066 0.0
H1691 H 0.22977 0.0895 0.54327 0.0
C1692 C 0.23564 0.11344 0.46183 0.0
C1693 C 0.2518 0.11307 0.45199 0.0
C1694 C 0.23592 0.11369 0.48063 0.0
C1695 C 0.25238 0.11337 0.49007 0.0
C1696 C 0.26859 0.11378 0.48021 0.0
C1697 C 0.2683 0.11368 0.46131 0.0
C1698 C 0.2647 0.11934 0.5396 0.0
C1699 C 0.25198 0.10803 0.54797 0.0
C1700 C 0.26493 0.12113 0.52078 0.0
C1701 C 0.25245 0.11162 0.51004 0.0
C1702 C 0.23992 0.10015 0.51851 0.0
C1703 C 0.23965 0.09843 0.53722 0.0
H1704 H 0.91827 0.23342 0.54359 0.0
H1705 H 0.87605 0.27341 0.54531 0.0
H1706 H 0.91777 0.23418 0.51079 0.0
H1707 H 0.87511 0.2738 0.51233 0.0
H1708 H 0.89089 0.2811 0.45242 0.0
H1709 H 0.89174 0.28224 0.48542 0.0
H1710 H 0.89834 0.22433 0.487 0.0
H1711 H 0.89802 0.22331 0.45424 0.0
C1712 C 0.90884 0.24236 0.53693 0.0
C1713 C 0.89713 0.25329 0.547 0.0
C1714 C 0.90846 0.24271 0.51812 0.0
C1715 C 0.89625 0.25389 0.5089 0.0
C1716 C 0.88478 0.26513 0.519 0.0
C1717 C 0.88525 0.26486 0.53788 0.0
C1718 C 0.89248 0.26865 0.45988 0.0
C1719 C 0.8945 0.25214 0.45078 0.0
C1720 C 0.8929 0.26928 0.47876 0.0
C1721 C 0.89527 0.2534 0.48887 0.0
C1722 C 0.89689 0.23687 0.47967 0.0
C1723 C 0.89658 0.23627 0.46087 0.0
H1724 H 0.72351 0.87346 0.45402 0.0
H1725 H 0.76885 0.91012 0.45648 0.0
H1726 H 0.72321 0.87178 0.48702 0.0
H1727 H 0.76823 0.90893 0.48919 0.0
H1728 H 0.71747 0.8898 0.54696 0.0
H1729 H 0.71682 0.88938 0.51394 0.0
H1730 H 0.77512 0.88863 0.51302 0.0
H1731 H 0.77571 0.88967 0.54578 0.0
C1732 C 0.73334 0.8812 0.46162 0.0
C1733 C 0.74627 0.89182 0.4527 0.0
C1734 C 0.73311 0.88033 0.4805 0.0
C1735 C 0.74579 0.8901 0.49077 0.0
C1736 C 0.75853 0.9009 0.48174 0.0
C1737 C 0.75882 0.90168 0.46296 0.0
C1738 C 0.7301 0.88946 0.53964 0.0
C1739 C 0.74664 0.88996 0.54891 0.0
C1740 C 0.72975 0.88913 0.52075 0.0
C1741 C 0.74592 0.88919 0.51081 0.0
C1742 C 0.76241 0.88903 0.52021 0.0
C1743 C 0.76276 0.88951 0.539 0.0
H1744 H 0.45301 0.12409 0.2745 0.0
H1745 H 0.45517 0.08731 0.2293 0.0
H1746 H 0.48599 0.12644 0.27419 0.0
H1747 H 0.48785 0.08912 0.22935 0.0
H1748 H 0.54382 0.10935 0.2204 0.0
H1749 H 0.51107 0.10982 0.22175 0.0
H1750 H 0.51347 0.10978 0.28004 0.0
H1751 H 0.54645 0.11 0.2786 0.0
C1752 C 0.46054 0.11643 0.2646 0.0
C1753 C 0.45154 0.10563 0.25184 0.0
C1754 C 0.47941 0.1177 0.26447 0.0
C1755 C 0.48958 0.10812 0.25162 0.0
C1756 C 0.48048 0.09705 0.23914 0.0
C1757 C 0.46171 0.0959 0.23919 0.0
C1758 C 0.53736 0.10957 0.23351 0.0
C1759 C 0.54766 0.1095 0.24939 0.0
C1760 C 0.51857 0.10972 0.2343 0.0
C1761 C 0.5096 0.10954 0.25101 0.0
C1762 C 0.51993 0.11002 0.26694 0.0
C1763 C 0.53881 0.11007 0.26614 0.0
H1764 H 0.88784 0.5456 0.28035 0.0
H1765 H 0.88384 0.54478 0.22222 0.0
H1766 H 0.88679 0.51259 0.28079 0.0
H1767 H 0.88217 0.51203 0.22265 0.0
H1768 H 0.90518 0.45576 0.22759 0.0
H1769 H 0.9032 0.48841 0.2282 0.0
H1770 H 0.8688 0.48552 0.27519 0.0
H1771 H 0.87125 0.45255 0.27484 0.0
C1772 C 0.88646 0.53837 0.26771 0.0
C1773 C 0.88616 0.54772 0.25124 0.0
C1774 C 0.88576 0.51948 0.26796 0.0
C1775 C 0.88464 0.50965 0.25173 0.0
C1776 C 0.88349 0.51914 0.23536 0.0
C1777 C 0.88435 0.53793 0.23511 0.0
C1778 C 0.89713 0.46205 0.23803 0.0
C1779 C 0.88833 0.4516 0.25114 0.0
C1780 C 0.89589 0.4808 0.23832 0.0
C1781 C 0.88569 0.48961 0.25164 0.0
C1782 C 0.87686 0.47916 0.26481 0.0
C1783 C 0.87818 0.4603 0.26457 0.0
H1784 H 0.54684 0.88983 0.27963 0.0
H1785 H 0.54624 0.87915 0.22234 0.0
H1786 H 0.51387 0.88833 0.28018 0.0
H1787 H 0.51349 0.87712 0.22293 0.0
H1788 H 0.45715 0.90094 0.22552 0.0
H1789 H 0.48978 0.89876 0.22617 0.0
H1790 H 0.48692 0.8695 0.2765 0.0
H1791 H 0.45397 0.87211 0.27603 0.0
C1792 C 0.53967 0.88686 0.26723 0.0
C1793 C 0.54907 0.88483 0.25091 0.0
C1794 C 0.5208 0.88592 0.26755 0.0
C1795 C 0.51102 0.88285 0.25155 0.0
C1796 C 0.52057 0.87993 0.23542 0.0
C1797 C 0.53935 0.881 0.23509 0.0
C1798 C 0.46344 0.89397 0.2367 0.0
C1799 C 0.45299 0.88668 0.25072 0.0
C1800 C 0.48218 0.8926 0.23702 0.0
C1801 C 0.49099 0.88382 0.25131 0.0
C1802 C 0.48055 0.87645 0.26535 0.0
C1803 C 0.4617 0.87786 0.26505 0.0
H1804 H 0.12306 0.54479 0.27612 0.0
H1805 H 0.08786 0.54221 0.22972 0.0
H1806 H 0.12507 0.51181 0.27623 0.0
H1807 H 0.08938 0.5095 0.23013 0.0
H1808 H 0.11005 0.4534 0.22245 0.0
H1809 H 0.11044 0.48618 0.22351 0.0
H1810 H 0.10771 0.48446 0.28174 0.0
H1811 H 0.10792 0.45146 0.28064 0.0
C1812 C 0.11567 0.53717 0.26605 0.0
C1813 C 0.10541 0.54605 0.25284 0.0
C1814 C 0.11675 0.5183 0.26615 0.0
C1815 C 0.10753 0.508 0.25308 0.0
C1816 C 0.097 0.51699 0.24013 0.0
C1817 C 0.09602 0.53576 0.23997 0.0
C1818 C 0.10966 0.46001 0.23549 0.0
C1819 C 0.10883 0.44989 0.25146 0.0
C1820 C 0.10976 0.47882 0.2361 0.0
C1821 C 0.10883 0.48798 0.2527 0.0
C1822 C 0.10854 0.47784 0.26874 0.0
C1823 C 0.10859 0.45895 0.26812 0.0
H1824 H 0.45406 0.87009 0.7235 0.0
H1825 H 0.45642 0.9067 0.76885 0.0
H1826 H 0.48696 0.86725 0.72426 0.0
H1827 H 0.48906 0.90435 0.76929 0.0
H1828 H 0.54503 0.88466 0.77799 0.0
H1829 H 0.51227 0.88353 0.77675 0.0
H1830 H 0.51437 0.88419 0.71846 0.0
H1831 H 0.54733 0.88467 0.71977 0.0
C1832 C 0.46162 0.87757 0.73356 0.0
C1833 C 0.4527 0.88855 0.74616 0.0
C1834 C 0.48044 0.87601 0.73396 0.0
C1835 C 0.49066 0.88545 0.74693 0.0
C1836 C 0.48163 0.89655 0.75938 0.0
C1837 C 0.4629 0.89802 0.75904 0.0
C1838 C 0.5385 0.88438 0.76491 0.0
C1839 C 0.5487 0.88491 0.74898 0.0
C1840 C 0.51971 0.88385 0.76419 0.0
C1841 C 0.51066 0.88407 0.74751 0.0
C1842 C 0.52091 0.8839 0.73153 0.0
C1843 C 0.53978 0.88425 0.73227 0.0
H1844 H 0.11108 0.45494 0.77431 0.0
H1845 H 0.10815 0.45442 0.71612 0.0
H1846 H 0.11187 0.48771 0.77414 0.0
H1847 H 0.10829 0.48746 0.71592 0.0
H1848 H 0.12311 0.54767 0.72265 0.0
H1849 H 0.12555 0.51472 0.72184 0.0
H1850 H 0.0909 0.51118 0.7686 0.0
H1851 H 0.089 0.54383 0.76971 0.0
C1852 C 0.11059 0.46187 0.76145 0.0
C1853 C 0.1094 0.45215 0.74523 0.0
C1854 C 0.11093 0.48067 0.76135 0.0
C1855 C 0.10985 0.49026 0.74503 0.0
C1856 C 0.10924 0.48051 0.72872 0.0
C1857 C 0.10908 0.4616 0.72882 0.0
C1858 C 0.11609 0.53978 0.73275 0.0
C1859 C 0.10597 0.54831 0.74631 0.0
C1860 C 0.1174 0.52093 0.73224 0.0
C1861 C 0.10855 0.51029 0.74525 0.0
C1862 C 0.09825 0.51892 0.75862 0.0
C1863 C 0.09705 0.53767 0.7592 0.0
H1864 H 0.45233 0.10776 0.71745 0.0
H1865 H 0.45436 0.10716 0.77568 0.0
H1866 H 0.48534 0.10799 0.71637 0.0
H1867 H 0.48711 0.10802 0.77467 0.0
H1868 H 0.5434 0.08662 0.76758 0.0
H1869 H 0.5107 0.08772 0.76716 0.0
H1870 H 0.51251 0.12536 0.72269 0.0
H1871 H 0.54552 0.12377 0.72278 0.0
C1872 C 0.45983 0.10789 0.73 0.0
C1873 C 0.4508 0.10725 0.74664 0.0
C1874 C 0.47872 0.10811 0.72939 0.0
C1875 C 0.4889 0.1078 0.74543 0.0
C1876 C 0.47974 0.10781 0.76204 0.0
C1877 C 0.46095 0.10743 0.76264 0.0
C1878 C 0.53685 0.09514 0.7577 0.0
C1879 C 0.54702 0.10518 0.74527 0.0
C1880 C 0.51807 0.09587 0.75753 0.0
C1881 C 0.50894 0.10681 0.74504 0.0
C1882 C 0.51911 0.11671 0.73242 0.0
C1883 C 0.538 0.11587 0.73251 0.0
H1884 H 0.88031 0.54365 0.77531 0.0
H1885 H 0.88533 0.5435 0.71728 0.0
H1886 H 0.87886 0.51088 0.77534 0.0
H1887 H 0.88461 0.51049 0.71729 0.0
H1888 H 0.87057 0.45036 0.72329 0.0
H1889 H 0.86741 0.48324 0.72258 0.0
H1890 H 0.89989 0.48735 0.7709 0.0
H1891 H 0.90247 0.45476 0.7719 0.0
C1892 C 0.88108 0.53657 0.76254 0.0
C1893 C 0.88311 0.54609 0.74631 0.0
C1894 C 0.88036 0.51777 0.76255 0.0
C1895 C 0.88194 0.508 0.74634 0.0
C1896 C 0.88325 0.51757 0.73 0.0
C1897 C 0.88375 0.53647 0.72998 0.0
C1898 C 0.87691 0.45835 0.73379 0.0
C1899 C 0.8867 0.45001 0.74769 0.0
C1900 C 0.87519 0.47717 0.73333 0.0
C1901 C 0.88328 0.48797 0.74675 0.0
C1902 C 0.89311 0.4795 0.76057 0.0
C1903 C 0.89471 0.46078 0.76108 0.0
H1904 H 0.27998 0.54419 0.10622 0.0
H1905 H 0.22245 0.54179 0.1151 0.0
H1906 H 0.28116 0.5112 0.10579 0.0
H1907 H 0.22366 0.509 0.11517 0.0
H1908 H 0.22765 0.4536 0.08988 0.0
H1909 H 0.22811 0.48627 0.09244 0.0
H1910 H 0.27743 0.48347 0.12343 0.0
H1911 H 0.27717 0.45055 0.12047 0.0
C1912 C 0.26766 0.53661 0.10838 0.0
C1913 C 0.2511 0.54553 0.1105 0.0
C1914 C 0.26833 0.51773 0.10819 0.0
C1915 C 0.25246 0.50746 0.11018 0.0
C1916 C 0.23607 0.51648 0.11316 0.0
C1917 C 0.23538 0.53528 0.11324 0.0
C1918 C 0.23862 0.45993 0.09722 0.0
C1919 C 0.25234 0.44952 0.10503 0.0
C1920 C 0.23881 0.47867 0.09881 0.0
C1921 C 0.25269 0.48749 0.10834 0.0
C1922 C 0.2666 0.47709 0.11594 0.0
C1923 C 0.26643 0.45826 0.11429 0.0
H1924 H 0.2798 0.54605 0.88877 0.0
H1925 H 0.22158 0.54441 0.8873 0.0
H1926 H 0.28059 0.51303 0.88854 0.0
H1927 H 0.22232 0.51164 0.88648 0.0
H1928 H 0.22852 0.4552 0.90839 0.0
H1929 H 0.22898 0.48793 0.90709 0.0
H1930 H 0.27461 0.48602 0.87085 0.0
H1931 H 0.27445 0.45304 0.87263 0.0
C1932 C 0.2672 0.53863 0.88817 0.0
C1933 C 0.25063 0.54776 0.88823 0.0
C1934 C 0.26764 0.51973 0.88795 0.0
C1935 C 0.25151 0.50967 0.8877 0.0
C1936 C 0.23499 0.51893 0.88711 0.0
C1937 C 0.23456 0.53773 0.88747 0.0
C1938 C 0.23866 0.46174 0.90014 0.0
C1939 C 0.25141 0.45156 0.89056 0.0
C1940 C 0.23886 0.48053 0.89929 0.0
C1941 C 0.25172 0.48963 0.88871 0.0
C1942 C 0.2646 0.47944 0.87923 0.0
C1943 C 0.26446 0.46057 0.88017 0.0
H1944 H 0.45148 0.22099 0.88494 0.0
H1945 H 0.44994 0.27906 0.88971 0.0
H1946 H 0.48426 0.22199 0.88377 0.0
H1947 H 0.48292 0.28005 0.88905 0.0
H1948 H 0.54286 0.27513 0.87297 0.0
H1949 H 0.5099 0.27497 0.8708 0.0
H1950 H 0.50791 0.22792 0.90513 0.0
H1951 H 0.54063 0.22784 0.90691 0.0
C1952 C 0.45817 0.23399 0.88569 0.0
C1953 C 0.44817 0.24994 0.88756 0.0
C1954 C 0.47697 0.23456 0.88513 0.0
C1955 C 0.48624 0.25108 0.88658 0.0
C1956 C 0.4762 0.26712 0.8878 0.0
C1957 C 0.45732 0.26655 0.88825 0.0
C1958 C 0.53533 0.26476 0.88 0.0
C1959 C 0.54431 0.25146 0.89005 0.0
C1960 C 0.51647 0.26471 0.87883 0.0
C1961 C 0.50626 0.25135 0.88768 0.0
C1962 C 0.51533 0.23818 0.89783 0.0
C1963 C 0.53411 0.23821 0.89897 0.0
H1964 H 0.77746 0.5424 0.89491 0.0
H1965 H 0.71922 0.54279 0.89505 0.0
H1966 H 0.77725 0.50965 0.89362 0.0
H1967 H 0.71891 0.5098 0.89456 0.0
H1968 H 0.72531 0.45052 0.87768 0.0
H1969 H 0.72492 0.48351 0.8769 0.0
H1970 H 0.77124 0.48487 0.9124 0.0
H1971 H 0.77202 0.45213 0.9125 0.0
C1972 C 0.76459 0.53544 0.8948 0.0
C1973 C 0.74836 0.54512 0.89519 0.0
C1974 C 0.76445 0.51663 0.89417 0.0
C1975 C 0.74806 0.507 0.8942 0.0
C1976 C 0.73178 0.51674 0.89434 0.0
C1977 C 0.73194 0.53564 0.89473 0.0
C1978 C 0.73542 0.45794 0.88523 0.0
C1979 C 0.74876 0.44878 0.89505 0.0
C1980 C 0.73514 0.47683 0.8849 0.0
C1981 C 0.74811 0.48691 0.89451 0.0
C1982 C 0.76128 0.47762 0.90449 0.0
C1983 C 0.76167 0.45881 0.90466 0.0
H1984 H 0.4527 0.71698 0.88758 0.0
H1985 H 0.45476 0.77512 0.88441 0.0
H1986 H 0.48568 0.71592 0.88735 0.0
H1987 H 0.48752 0.7741 0.88349 0.0
H1988 H 0.546 0.72062 0.87325 0.0
H1989 H 0.51309 0.72086 0.87039 0.0
H1990 H 0.51087 0.76816 0.90452 0.0
H1991 H 0.54352 0.76822 0.90683 0.0
C1992 C 0.46021 0.72949 0.88652 0.0
C1993 C 0.45121 0.74613 0.88622 0.0
C1994 C 0.47909 0.7289 0.88632 0.0
C1995 C 0.48929 0.74494 0.88566 0.0
C1996 C 0.48014 0.7615 0.88449 0.0
C1997 C 0.46135 0.76209 0.88489 0.0
C1998 C 0.53841 0.73107 0.88007 0.0
C1999 C 0.54731 0.74445 0.89019 0.0
C2000 C 0.51957 0.73117 0.87851 0.0
C2001 C 0.50931 0.74462 0.8871 0.0
C2002 C 0.51832 0.75784 0.89736 0.0
C2003 C 0.53706 0.75781 0.89881 0.0
H2004 H 0.72157 0.54548 0.08616 0.0
H2005 H 0.74649 0.54825 0.13881 0.0
H2006 H 0.71972 0.51266 0.08869 0.0
H2007 H 0.74447 0.51549 0.1414 0.0
H2008 H 0.76499 0.45911 0.12332 0.0
H2009 H 0.7612 0.49164 0.12516 0.0
H2010 H 0.70655 0.48632 0.10552 0.0
H2011 H 0.7104 0.45351 0.10362 0.0
C2012 C 0.72632 0.53911 0.09841 0.0
C2013 C 0.73436 0.54939 0.1122 0.0
C2014 C 0.72518 0.52033 0.0999 0.0
C2015 C 0.73211 0.5115 0.11517 0.0
C2016 C 0.73925 0.52191 0.12936 0.0
C2017 C 0.74034 0.54067 0.1279 0.0
C2018 C 0.75209 0.46484 0.11958 0.0
C2019 C 0.73801 0.4538 0.11325 0.0
C2020 C 0.74987 0.48347 0.12076 0.0
C2021 C 0.73356 0.49154 0.11551 0.0
C2022 C 0.7193 0.48047 0.10956 0.0
C2023 C 0.72147 0.46172 0.10856 0.0
H2024 H 0.54372 0.72402 0.12554 0.0
H2025 H 0.54225 0.76449 0.0837 0.0
H2026 H 0.51071 0.72372 0.12642 0.0
H2027 H 0.5095 0.76376 0.08406 0.0
H2028 H 0.45268 0.77387 0.10209 0.0
H2029 H 0.48543 0.7732 0.1028 0.0
H2030 H 0.48398 0.7153 0.10972 0.0
H2031 H 0.45098 0.71613 0.10967 0.0
C2032 C 0.53633 0.73273 0.11644 0.0
C2033 C 0.54552 0.74438 0.10466 0.0
C2034 C 0.51744 0.73249 0.11687 0.0
C2035 C 0.50743 0.74383 0.10542 0.0
C2036 C 0.51674 0.75516 0.09337 0.0
C2037 C 0.53554 0.7555 0.09307 0.0
C2038 C 0.45934 0.761 0.10381 0.0
C2039 C 0.4493 0.74504 0.10571 0.0
C2040 C 0.47814 0.76059 0.1041 0.0
C2041 C 0.48738 0.74417 0.10608 0.0
C2042 C 0.4773 0.7282 0.10831 0.0
C2043 C 0.45842 0.72864 0.10819 0.0
H2044 H 0.54568 0.27424 0.12396 0.0
H2045 H 0.54383 0.23748 0.07872 0.0
H2046 H 0.51273 0.27397 0.12539 0.0
H2047 H 0.51106 0.23768 0.07968 0.0
H2048 H 0.4549 0.22454 0.09884 0.0
H2049 H 0.48763 0.22607 0.09817 0.0
H2050 H 0.48544 0.28311 0.11027 0.0
H2051 H 0.45251 0.28137 0.11156 0.0
C2052 C 0.53821 0.26628 0.1142 0.0
C2053 C 0.54729 0.25577 0.10132 0.0
C2054 C 0.51934 0.26618 0.11496 0.0
C2055 C 0.50922 0.25566 0.10276 0.0
C2056 C 0.5184 0.2456 0.08956 0.0
C2057 C 0.5372 0.24558 0.08892 0.0
C2058 C 0.4614 0.2374 0.1014 0.0
C2059 C 0.45116 0.25285 0.10519 0.0
C2060 C 0.48018 0.23832 0.10089 0.0
C2061 C 0.48921 0.25476 0.10395 0.0
C2062 C 0.47895 0.2702 0.10799 0.0
C2063 C 0.46009 0.26924 0.10865 0.0
H2064 H 0.61101 0.72013 0.04511 0.0
H2065 H 0.60668 0.77823 0.04528 0.0
H2066 H 0.61218 0.72018 0.01233 0.0
H2067 H 0.6072 0.77829 0.0123 0.0
H2068 H 0.62336 0.77232 0.95277 0.0
H2069 H 0.62518 0.77291 0.98572 0.0
H2070 H 0.59173 0.72508 0.98812 0.0
H2071 H 0.59046 0.7242 0.95538 0.0
C2072 C 0.6103 0.73293 0.03811 0.0
C2073 C 0.60864 0.74917 0.04773 0.0
C2074 C 0.61085 0.73296 0.0193 0.0
C2075 C 0.60954 0.74922 0.00964 0.0
C2076 C 0.60838 0.76554 0.0193 0.0
C2077 C 0.608 0.76551 0.03819 0.0
C2078 C 0.61646 0.76193 0.96039 0.0
C2079 C 0.60684 0.74818 0.95153 0.0
C2080 C 0.61742 0.76231 0.97925 0.0
C2081 C 0.6087 0.74898 0.98959 0.0
C2082 C 0.59895 0.73534 0.98062 0.0
C2083 C 0.5981 0.7349 0.96183 0.0
H2084 H 0.21493 0.60883 0.95129 0.0
H2085 H 0.27259 0.601 0.95383 0.0
H2086 H 0.2134 0.60773 0.98428 0.0
H2087 H 0.27118 0.60043 0.98656 0.0
H2088 H 0.26133 0.57975 0.04252 0.0
H2089 H 0.2607 0.58065 0.00976 0.0
H2090 H 0.22189 0.62402 0.01165 0.0
H2091 H 0.22215 0.62272 0.04466 0.0
C2092 C 0.22726 0.60701 0.9589 0.0
C2093 C 0.24385 0.60486 0.95001 0.0
C2094 C 0.22641 0.60647 0.97777 0.0
C2095 C 0.24215 0.60381 0.98806 0.0
C2096 C 0.25875 0.60208 0.97907 0.0
C2097 C 0.25958 0.60252 0.96029 0.0
C2098 C 0.25259 0.58943 0.03596 0.0
C2099 C 0.24188 0.60125 0.04613 0.0
C2100 C 0.25231 0.59003 0.01717 0.0
C2101 C 0.24143 0.60258 0.00806 0.0
C2102 C 0.23035 0.61413 0.01824 0.0
C2103 C 0.23055 0.61344 0.03713 0.0
H2104 H 0.38748 0.21608 0.04722 0.0
H2105 H 0.38777 0.27431 0.04466 0.0
H2106 H 0.38751 0.21465 0.0142 0.0
H2107 H 0.38739 0.2729 0.01189 0.0
H2108 H 0.41047 0.26478 0.95614 0.0
H2109 H 0.40891 0.26456 0.98889 0.0
H2110 H 0.36976 0.22128 0.98679 0.0
H2111 H 0.37163 0.22126 0.95379 0.0
C2112 C 0.38731 0.22854 0.0396 0.0
C2113 C 0.38779 0.2453 0.04849 0.0
C2114 C 0.38727 0.22773 0.02072 0.0
C2115 C 0.38769 0.24366 0.01043 0.0
C2116 C 0.38747 0.26038 0.01941 0.0
C2117 C 0.38757 0.26119 0.0382 0.0
C2118 C 0.40155 0.25517 0.96264 0.0
C2119 C 0.3911 0.24309 0.95241 0.0
C2120 C 0.40057 0.25513 0.98142 0.0
C2121 C 0.38904 0.24306 0.99045 0.0
C2122 C 0.37883 0.23069 0.98023 0.0
C2123 C 0.37984 0.23072 0.96136 0.0
H2124 H 0.76052 0.42281 0.04481 0.0
H2125 H 0.76045 0.36463 0.04863 0.0
H2126 H 0.76104 0.42064 0.01202 0.0
H2127 H 0.76103 0.36251 0.01559 0.0
H2128 H 0.77731 0.37058 0.95431 0.0
H2129 H 0.78051 0.37127 0.9873 0.0
H2130 H 0.73647 0.4091 0.99067 0.0
H2131 H 0.73316 0.40832 0.958 0.0
C2132 C 0.76087 0.40955 0.03865 0.0
C2133 C 0.76027 0.39388 0.04927 0.0
C2134 C 0.76109 0.40833 0.01988 0.0
C2135 C 0.76084 0.39142 0.01131 0.0
C2136 C 0.76125 0.37571 0.0219 0.0
C2137 C 0.76088 0.37693 0.04076 0.0
C2138 C 0.7683 0.37897 0.96215 0.0
C2139 C 0.75501 0.38942 0.95361 0.0
C2140 C 0.77011 0.37932 0.98098 0.0
C2141 C 0.75885 0.39037 0.99146 0.0
C2142 C 0.74549 0.40066 0.98288 0.0
C2143 C 0.74353 0.40012 0.96419 0.0
H2144 H 0.59393 0.27297 0.95409 0.0
H2145 H 0.62124 0.2217 0.95035 0.0
H2146 H 0.59689 0.27234 0.98667 0.0
H2147 H 0.62469 0.22127 0.98323 0.0
H2148 H 0.60676 0.21911 0.04383 0.0
H2149 H 0.60699 0.21825 0.01082 0.0
H2150 H 0.61928 0.27529 0.00967 0.0
H2151 H 0.61846 0.2762 0.04246 0.0
C2152 C 0.60072 0.26161 0.96024 0.0
C2153 C 0.60739 0.2474 0.94966 0.0
C2154 C 0.60255 0.26131 0.97895 0.0
C2155 C 0.61121 0.24685 0.98759 0.0
C2156 C 0.61786 0.23256 0.97701 0.0
C2157 C 0.61596 0.23283 0.95819 0.0
C2158 C 0.6097 0.23139 0.03647 0.0
C2159 C 0.61237 0.24776 0.04567 0.0
C2160 C 0.6099 0.23089 0.01758 0.0
C2161 C 0.61289 0.24676 0.00759 0.0
C2162 C 0.61649 0.26291 0.01692 0.0
C2163 C 0.61613 0.26342 0.03572 0.0
H2164 H 0.77819 0.58896 0.04629 0.0
H2165 H 0.74344 0.63565 0.04688 0.0
H2166 H 0.77949 0.59037 0.01334 0.0
H2167 H 0.7448 0.63706 0.01403 0.0
H2168 H 0.72873 0.61348 0.95824 0.0
H2169 H 0.73167 0.61624 0.99084 0.0
H2170 H 0.78932 0.60932 0.98642 0.0
H2171 H 0.78637 0.60657 0.95355 0.0
C2172 C 0.77111 0.5997 0.03941 0.0
C2173 C 0.76057 0.61208 0.04914 0.0
C2174 C 0.77191 0.60055 0.02056 0.0
C2175 C 0.76209 0.61372 0.01113 0.0
C2176 C 0.7523 0.62663 0.02094 0.0
C2177 C 0.75159 0.62585 0.03975 0.0
C2178 C 0.74206 0.61268 0.96418 0.0
C2179 C 0.75732 0.60977 0.95337 0.0
C2180 C 0.74376 0.61439 0.98285 0.0
C2181 C 0.76074 0.61306 0.99117 0.0
C2182 C 0.77607 0.61033 0.98035 0.0
C2183 C 0.77439 0.60883 0.96158 0.0
H2184 H 0.41212 0.73166 0.95465 0.0
H2185 H 0.37274 0.77439 0.95158 0.0
H2186 H 0.41013 0.73205 0.98735 0.0
H2187 H 0.37037 0.7745 0.98456 0.0
H2188 H 0.3867 0.78036 0.04527 0.0
H2189 H 0.38725 0.78163 0.01225 0.0
H2190 H 0.38878 0.72338 0.01011 0.0
H2191 H 0.38872 0.72217 0.04287 0.0
C2192 C 0.40297 0.74111 0.96098 0.0
C2193 C 0.39251 0.75293 0.95056 0.0
C2194 C 0.40173 0.74126 0.97974 0.0
C2195 C 0.38991 0.75315 0.98857 0.0
C2196 C 0.37967 0.76524 0.97816 0.0
C2197 C 0.38096 0.76513 0.9593 0.0
C2198 C 0.38703 0.76786 0.03768 0.0
C2199 C 0.38785 0.75118 0.04662 0.0
C2200 C 0.38728 0.76858 0.01879 0.0
C2201 C 0.3883 0.75261 0.00855 0.0
C2202 C 0.38842 0.73595 0.01758 0.0
C2203 C 0.38827 0.73524 0.03637 0.0
H2204 H 0.2175 0.39009 0.04386 0.0
H2205 H 0.27542 0.38416 0.04325 0.0
H2206 H 0.21711 0.38974 0.01086 0.0
H2207 H 0.27503 0.38309 0.01046 0.0
H2208 H 0.27144 0.4055 0.95396 0.0
H2209 H 0.27067 0.40379 0.98663 0.0
H2210 H 0.22164 0.37215 0.98384 0.0
H2211 H 0.22213 0.37445 0.95088 0.0
C2212 C 0.2301 0.38846 0.03666 0.0
C2213 C 0.24651 0.38735 0.04608 0.0
C2214 C 0.22988 0.38816 0.01777 0.0
C2215 C 0.24606 0.3866 0.00797 0.0
C2216 C 0.26236 0.38477 0.01753 0.0
C2217 C 0.26259 0.38527 0.03634 0.0
C2218 C 0.2605 0.39814 0.96029 0.0
C2219 C 0.24687 0.39007 0.94986 0.0
C2220 C 0.26012 0.39704 0.97906 0.0
C2221 C 0.24619 0.38767 0.98792 0.0
C2222 C 0.23249 0.3796 0.97747 0.0
C2223 C 0.2328 0.38083 0.95861 0.0
H2224 H 0.04268 0.61301 0.77985 0.0
H2225 H 0.04145 0.60338 0.72238 0.0
H2226 H 0.00969 0.61235 0.78059 0.0
H2227 H 0.00867 0.60334 0.72295 0.0
H2228 H 0.95237 0.58252 0.7325 0.0
H2229 H 0.9851 0.58409 0.73311 0.0
H2230 H 0.98251 0.62793 0.77156 0.0
H2231 H 0.94955 0.6259 0.77136 0.0
C2232 C 0.03534 0.61096 0.76736 0.0
C2233 C 0.04461 0.60808 0.75109 0.0
C2234 C 0.01646 0.61067 0.76776 0.0
C2235 C 0.0065 0.60759 0.75186 0.0
C2236 C 0.01587 0.6053 0.73553 0.0
C2237 C 0.03468 0.60544 0.73516 0.0
C2238 C 0.95877 0.59247 0.74113 0.0
C2239 C 0.94841 0.60413 0.75183 0.0
C2240 C 0.97756 0.59347 0.74138 0.0
C2241 C 0.98647 0.60629 0.75222 0.0
C2242 C 0.97609 0.61781 0.76316 0.0
C2243 C 0.95723 0.61671 0.76299 0.0
H2244 H 0.40952 0.95393 0.72637 0.0
H2245 H 0.37541 0.95077 0.77348 0.0
H2246 H 0.40858 0.98663 0.72772 0.0
H2247 H 0.3739 0.98376 0.77451 0.0
H2248 H 0.38952 0.04354 0.72253 0.0
H2249 H 0.38848 0.01078 0.72239 0.0
H2250 H 0.39169 0.01046 0.78064 0.0
H2251 H 0.39204 0.04348 0.78075 0.0
C2252 C 0.40166 0.96026 0.73694 0.0
C2253 C 0.39248 0.9498 0.74978 0.0
C2254 C 0.40102 0.97904 0.73766 0.0
C2255 C 0.39101 0.98787 0.75112 0.0
C2256 C 0.38186 0.9774 0.76405 0.0
C2257 C 0.38262 0.95852 0.76341 0.0
C2258 C 0.38993 0.03648 0.73532 0.0
C2259 C 0.391 0.04604 0.75165 0.0
C2260 C 0.38944 0.01768 0.73524 0.0
C2261 C 0.39025 0.00793 0.75149 0.0
C2262 C 0.39091 0.01753 0.76788 0.0
C2263 C 0.39121 0.03643 0.76796 0.0
H2264 H 0.04372 0.39593 0.72088 0.0
H2265 H 0.04534 0.38753 0.7785 0.0
H2266 H 0.01096 0.39473 0.72152 0.0
H2267 H 0.01237 0.38704 0.77932 0.0
H2268 H 0.95282 0.37131 0.77125 0.0
H2269 H 0.9858 0.37038 0.77098 0.0
H2270 H 0.98658 0.41283 0.73103 0.0
H2271 H 0.95382 0.41323 0.73085 0.0
C2272 C 0.03704 0.39391 0.73372 0.0
C2273 C 0.04707 0.39193 0.74966 0.0
C2274 C 0.01823 0.39334 0.73412 0.0
C2275 C 0.00896 0.391 0.75051 0.0
C2276 C 0.01904 0.3887 0.76644 0.0
C2277 C 0.03793 0.38908 0.766 0.0
C2278 C 0.9601 0.3804 0.76241 0.0
C2279 C 0.95077 0.39227 0.751 0.0
C2280 C 0.97899 0.37995 0.76232 0.0
C2281 C 0.98889 0.39145 0.7509 0.0
C2282 C 0.97945 0.40348 0.7397 0.0
C2283 C 0.96064 0.40381 0.73968 0.0
H2284 H 0.58469 0.95363 0.73535 0.0
H2285 H 0.62864 0.95216 0.7736 0.0
H2286 H 0.58609 0.98635 0.73498 0.0
H2287 H 0.63047 0.98516 0.77283 0.0
H2288 H 0.61448 0.04548 0.77967 0.0
H2289 H 0.61459 0.01251 0.78131 0.0
H2290 H 0.60519 0.00967 0.72381 0.0
H2291 H 0.60449 0.04242 0.72233 0.0
C2292 C 0.59473 0.96033 0.74363 0.0
C2293 C 0.60661 0.95034 0.75444 0.0
C2294 C 0.59563 0.97911 0.74332 0.0
C2295 C 0.60856 0.98841 0.75369 0.0
C2296 C 0.62029 0.97842 0.76476 0.0
C2297 C 0.6193 0.95954 0.76516 0.0
C2298 C 0.61254 0.03775 0.7674 0.0
C2299 C 0.6093 0.04649 0.7509 0.0
C2300 C 0.61269 0.01888 0.76831 0.0
C2301 C 0.60968 0.00843 0.75273 0.0
C2302 C 0.60711 0.01727 0.73615 0.0
C2303 C 0.60682 0.03606 0.73527 0.0
H2304 H 0.95481 0.41139 0.26818 0.0
H2305 H 0.95193 0.371 0.2262 0.0
H2306 H 0.98749 0.41035 0.26723 0.0
H2307 H 0.98492 0.36943 0.22566 0.0
H2308 H 0.04466 0.38661 0.21751 0.0
H2309 H 0.01165 0.38619 0.21738 0.0
H2310 H 0.01161 0.3913 0.2755 0.0
H2311 H 0.04435 0.39243 0.27549 0.0
C2312 C 0.96119 0.40214 0.25885 0.0
C2313 C 0.95082 0.39122 0.24732 0.0
C2314 C 0.97997 0.40145 0.25838 0.0
C2315 C 0.98889 0.38967 0.2465 0.0
C2316 C 0.97849 0.37877 0.23486 0.0
C2317 C 0.95962 0.37958 0.23524 0.0
C2318 C 0.03753 0.38759 0.23022 0.0
C2319 C 0.04703 0.38975 0.24648 0.0
C2320 C 0.01863 0.38725 0.23017 0.0
C2321 C 0.00894 0.3889 0.24641 0.0
C2322 C 0.01858 0.39045 0.26269 0.0
C2323 C 0.03738 0.39099 0.26271 0.0
H2324 H 0.60229 0.04419 0.27155 0.0
H2325 H 0.61193 0.04587 0.21411 0.0
H2326 H 0.6023 0.01143 0.27067 0.0
H2327 H 0.61142 0.01283 0.21309 0.0
H2328 H 0.62646 0.95278 0.223 0.0
H2329 H 0.62761 0.98579 0.22242 0.0
H2330 H 0.5831 0.98775 0.26001 0.0
H2331 H 0.58234 0.95499 0.26096 0.0
C2332 C 0.60437 0.03753 0.2587 0.0
C2333 C 0.60701 0.04759 0.24288 0.0
C2334 C 0.60425 0.01873 0.25816 0.0
C2335 C 0.60662 0.00947 0.24177 0.0
C2336 C 0.60966 0.01954 0.22596 0.0
C2337 C 0.60987 0.03844 0.22652 0.0
C2338 C 0.6169 0.96032 0.23107 0.0
C2339 C 0.60441 0.95133 0.24214 0.0
C2340 C 0.6175 0.97921 0.23068 0.0
C2341 C 0.60558 0.98943 0.24132 0.0
C2342 C 0.59277 0.98033 0.25196 0.0
C2343 C 0.59224 0.96153 0.25242 0.0
H2344 H 0.04358 0.60639 0.27659 0.0
H2345 H 0.04522 0.60831 0.21837 0.0
H2346 H 0.01078 0.60678 0.27572 0.0
H2347 H 0.01226 0.60813 0.21743 0.0
H2348 H 0.95247 0.62377 0.22408 0.0
H2349 H 0.98543 0.6254 0.22423 0.0
H2350 H 0.98691 0.58662 0.26772 0.0
H2351 H 0.95414 0.58545 0.2679 0.0
C2352 C 0.03691 0.60688 0.26359 0.0
C2353 C 0.04695 0.60722 0.24755 0.0
C2354 C 0.0181 0.60698 0.26308 0.0
C2355 C 0.00886 0.60726 0.2465 0.0
C2356 C 0.01893 0.60804 0.23043 0.0
C2357 C 0.03781 0.60807 0.23096 0.0
C2358 C 0.95989 0.6156 0.23363 0.0
C2359 C 0.95075 0.60455 0.24603 0.0
C2360 C 0.97876 0.61647 0.23367 0.0
C2361 C 0.98883 0.60624 0.24608 0.0
C2362 C 0.9796 0.59498 0.25824 0.0
C2363 C 0.9608 0.5942 0.25826 0.0
H2364 H 0.392 0.04285 0.27658 0.0
H2365 H 0.38718 0.04401 0.21852 0.0
H2366 H 0.39125 0.01007 0.27602 0.0
H2367 H 0.38711 0.01101 0.21784 0.0
H2368 H 0.37295 0.95084 0.22545 0.0
H2369 H 0.37071 0.9838 0.22544 0.0
H2370 H 0.41107 0.98652 0.26751 0.0
H2371 H 0.4128 0.95384 0.2679 0.0
C2372 C 0.39081 0.03606 0.26367 0.0
C2373 C 0.38979 0.04596 0.24758 0.0
C2374 C 0.3905 0.01726 0.26333 0.0
C2375 C 0.38939 0.00786 0.24686 0.0
C2376 C 0.38784 0.0178 0.23077 0.0
C2377 C 0.38797 0.03669 0.23114 0.0
C2378 C 0.38128 0.95855 0.23469 0.0
C2379 C 0.39296 0.94979 0.24675 0.0
C2380 C 0.38008 0.97741 0.23463 0.0
C2381 C 0.39059 0.98783 0.24659 0.0
C2382 C 0.40245 0.97896 0.25842 0.0
C2383 C 0.40354 0.96019 0.25856 0.0
H2384 H 0.72825 0.04331 0.58539 0.0
H2385 H 0.77254 0.04715 0.62312 0.0
H2386 H 0.72946 0.01064 0.58696 0.0
H2387 H 0.7734 0.01419 0.62521 0.0
H2388 H 0.78054 0.95405 0.60861 0.0
H2389 H 0.7807 0.98709 0.60826 0.0
H2390 H 0.72239 0.987 0.60736 0.0
H2391 H 0.72231 0.95423 0.60706 0.0
C2392 C 0.73817 0.03714 0.59416 0.0
C2393 C 0.75024 0.04778 0.6042 0.0
C2394 C 0.7388 0.01838 0.59515 0.0
C2395 C 0.7514 0.00975 0.60637 0.0
C2396 C 0.76361 0.0204 0.61633 0.0
C2397 C 0.76306 0.03926 0.61523 0.0
C2398 C 0.7678 0.96116 0.60839 0.0
C2399 C 0.75143 0.9516 0.60767 0.0
C2400 C 0.76787 0.98007 0.60829 0.0
C2401 C 0.75156 0.98971 0.60758 0.0
C2402 C 0.73522 0.98004 0.60746 0.0
C2403 C 0.73516 0.96123 0.60739 0.0
H2404 H 0.72332 0.04501 0.39101 0.0
H2405 H 0.78147 0.04556 0.38765 0.0
H2406 H 0.72339 0.01225 0.39052 0.0
H2407 H 0.78167 0.01254 0.38795 0.0
H2408 H 0.77369 0.95257 0.3733 0.0
H2409 H 0.77441 0.98556 0.37152 0.0
H2410 H 0.73058 0.98827 0.40989 0.0
H2411 H 0.72943 0.95559 0.41102 0.0
C2412 C 0.73615 0.03808 0.39029 0.0
C2413 C 0.75239 0.04781 0.3895 0.0
C2414 C 0.73621 0.01927 0.39012 0.0
C2415 C 0.75255 0.00969 0.38945 0.0
C2416 C 0.76883 0.01946 0.38832 0.0
C2417 C 0.76874 0.03836 0.38826 0.0
C2418 C 0.76421 0.9603 0.38127 0.0
C2419 C 0.75141 0.95154 0.39218 0.0
C2420 C 0.76467 0.97918 0.38035 0.0
C2421 C 0.75245 0.98962 0.39044 0.0
C2422 C 0.7399 0.98073 0.40157 0.0
C2423 C 0.73931 0.96195 0.40232 0.0
H2424 H 0.95583 0.72746 0.40427 0.0
H2425 H 0.95204 0.7765 0.37309 0.0
H2426 H 0.98844 0.72823 0.40159 0.0
H2427 H 0.98495 0.77707 0.37 0.0
H2428 H 0.04535 0.78125 0.38854 0.0
H2429 H 0.01233 0.7817 0.388 0.0
H2430 H 0.01165 0.72399 0.37952 0.0
H2431 H 0.04444 0.72352 0.38061 0.0
C2432 C 0.96198 0.73836 0.39671 0.0
C2433 C 0.95137 0.75191 0.38887 0.0
C2434 C 0.9807 0.73873 0.39505 0.0
C2435 C 0.98933 0.75263 0.38543 0.0
C2436 C 0.97873 0.76625 0.37759 0.0
C2437 C 0.9599 0.76588 0.37928 0.0
C2438 C 0.0381 0.76872 0.38639 0.0
C2439 C 0.04743 0.75232 0.38484 0.0
C2440 C 0.0192 0.76898 0.386 0.0
C2441 C 0.00934 0.75284 0.38397 0.0
C2442 C 0.0188 0.7366 0.38155 0.0
C2443 C 0.0376 0.73634 0.38207 0.0
H2444 H 0.26431 0.04439 0.41589 0.0
H2445 H 0.22694 0.04724 0.37125 0.0
H2446 H 0.26368 0.01167 0.41434 0.0
H2447 H 0.22672 0.01425 0.36927 0.0
H2448 H 0.21814 0.95393 0.38408 0.0
H2449 H 0.21723 0.98693 0.38471 0.0
H2450 H 0.2746 0.98833 0.39519 0.0
H2451 H 0.27534 0.95555 0.39515 0.0
C2452 C 0.25601 0.03799 0.40566 0.0
C2453 C 0.24575 0.04836 0.39362 0.0
C2454 C 0.25574 0.01921 0.40469 0.0
C2455 C 0.24534 0.01031 0.39152 0.0
C2456 C 0.23479 0.02068 0.37964 0.0
C2457 C 0.23497 0.03956 0.38071 0.0
C2458 C 0.23054 0.96135 0.38644 0.0
C2459 C 0.24678 0.9522 0.38972 0.0
C2460 C 0.23004 0.98024 0.38672 0.0
C2461 C 0.24581 0.99029 0.3902 0.0
C2462 C 0.26212 0.98103 0.3929 0.0
C2463 C 0.26258 0.96223 0.39276 0.0
H2464 H 0.04787 0.22383 0.37604 0.0
H2465 H 0.04457 0.27217 0.40848 0.0
H2466 H 0.01491 0.2229 0.37399 0.0
H2467 H 0.01191 0.27093 0.40702 0.0
H2468 H 0.95542 0.27586 0.38701 0.0
H2469 H 0.98817 0.2757 0.38618 0.0
H2470 H 0.98791 0.21762 0.3916 0.0
H2471 H 0.95489 0.21779 0.39172 0.0
C2472 C 0.0401 0.23418 0.38278 0.0
C2473 C 0.04876 0.24814 0.3923 0.0
C2474 C 0.02124 0.23361 0.3817 0.0
C2475 C 0.01074 0.24693 0.39021 0.0
C2476 C 0.01953 0.2607 0.39993 0.0
C2477 C 0.03829 0.26135 0.40087 0.0
C2478 C 0.96235 0.26304 0.38791 0.0
C2479 C 0.95264 0.24685 0.38957 0.0
C2480 C 0.98114 0.26294 0.38755 0.0
C2481 C 0.99071 0.24667 0.3891 0.0
C2482 C 0.98097 0.23038 0.39025 0.0
C2483 C 0.96207 0.23047 0.39042 0.0
H2484 H 0.21725 0.04497 0.61068 0.0
H2485 H 0.27542 0.04341 0.60806 0.0
H2486 H 0.21626 0.01198 0.60977 0.0
H2487 H 0.27452 0.01063 0.60776 0.0
H2488 H 0.2669 0.95487 0.58481 0.0
H2489 H 0.26635 0.98758 0.58686 0.0
H2490 H 0.22321 0.98441 0.62595 0.0
H2491 H 0.22341 0.95147 0.62341 0.0
C2492 C 0.22981 0.03756 0.61017 0.0
C2493 C 0.2464 0.04673 0.60927 0.0
C2494 C 0.22926 0.01868 0.60971 0.0
C2495 C 0.2453 0.00864 0.60846 0.0
C2496 C 0.26188 0.01791 0.60827 0.0
C2497 C 0.26242 0.03672 0.60857 0.0
C2498 C 0.25726 0.96114 0.59381 0.0
C2499 C 0.24526 0.95062 0.60401 0.0
C2500 C 0.25702 0.97991 0.59509 0.0
C2501 C 0.2449 0.98864 0.60676 0.0
C2502 C 0.23265 0.97812 0.61676 0.0
C2503 C 0.2328 0.95927 0.61536 0.0
H2504 H 0.95649 0.27169 0.61235 0.0
H2505 H 0.95095 0.21388 0.61735 0.0
H2506 H 0.9889 0.2691 0.61588 0.0
H2507 H 0.98367 0.21126 0.62133 0.0
H2508 H 0.04384 0.21544 0.60127 0.0
H2509 H 0.01092 0.21478 0.60315 0.0
H2510 H 0.0122 0.26223 0.63712 0.0
H2511 H 0.04494 0.2632 0.63469 0.0
C2512 C 0.9622 0.25842 0.61443 0.0
C2513 C 0.95119 0.24298 0.61451 0.0
C2514 C 0.98081 0.25693 0.61662 0.0
C2515 C 0.98891 0.23997 0.61899 0.0
C2516 C 0.97785 0.22451 0.6194 0.0
C2517 C 0.95914 0.22601 0.61721 0.0
C2518 C 0.03705 0.22553 0.60937 0.0
C2519 C 0.04688 0.23952 0.61761 0.0
C2520 C 0.01821 0.22512 0.61052 0.0
C2521 C 0.0089 0.23863 0.62005 0.0
C2522 C 0.01891 0.25188 0.62929 0.0
C2523 C 0.03767 0.25239 0.62799 0.0
H2524 H 0.04216 0.72315 0.60723 0.0
H2525 H 0.04459 0.78116 0.61244 0.0
H2526 H 0.0094 0.72433 0.60728 0.0
H2527 H 0.01159 0.78243 0.61198 0.0
H2528 H 0.95101 0.77462 0.62583 0.0
H2529 H 0.98395 0.77456 0.62826 0.0
H2530 H 0.98662 0.734 0.58639 0.0
H2531 H 0.95391 0.73376 0.58432 0.0
C2532 C 0.03566 0.73617 0.60843 0.0
C2533 C 0.04591 0.75207 0.60969 0.0
C2534 C 0.01688 0.73686 0.60833 0.0
C2535 C 0.00787 0.7535 0.60933 0.0
C2536 C 0.01812 0.76939 0.61126 0.0
C2537 C 0.037 0.76868 0.61147 0.0
C2538 C 0.95869 0.76576 0.61713 0.0
C2539 C 0.94991 0.75412 0.60496 0.0
C2540 C 0.97754 0.76576 0.61848 0.0
C2541 C 0.9879 0.75413 0.60767 0.0
C2542 C 0.97904 0.74283 0.59522 0.0
C2543 C 0.96028 0.74278 0.59393 0.0
loop_
_geom_bond_atom_site_label_1
_geom_bond_atom_site_label_2
_geom_bond_distance
_geom_bond_site_symmetry_2
_ccdc_geom_bond_type
In0 O1 2.294 . S
In0 O2 2.326 . S
In0 O6 2.266 . S
In0 O7 2.326 . S
In0 O8 2.266 . S
In0 O9 2.326 . S
In0 O11 2.294 . S
In0 O12 2.326 . S
O1 In0 2.294 . S
O1 C10 1.240 . S
O2 In0 2.326 . S
O2 C10 1.252 . S
C3 O6 1.252 . S
C3 O7 1.260 . S
C4 O11 1.240 . S
C4 O12 1.252 . S
C5 O8 1.252 . S
C5 O9 1.260 . S
O6 In0 2.266 . S
O6 C3 1.252 . S
O7 In0 2.326 . S
O7 C3 1.260 . S
O8 In0 2.266 . S
O8 C5 1.252 . S
O9 In0 2.326 . S
O9 C5 1.260 . S
C10 O1 1.240 . S
C10 O2 1.252 . S
O11 In0 2.294 . S
O11 C4 1.240 . S
O12 In0 2.326 . S
O12 C4 1.252 . S
In13 O14 2.294 . S
In13 O15 2.326 . S
In13 O19 2.266 . S
In13 O20 2.326 . S
In13 O21 2.266 . S
In13 O22 2.326 . S
In13 O24 2.294 . S
In13 O25 2.326 . S
O14 In13 2.294 . S
O14 C23 1.240 . S
O15 In13 2.326 . S
O15 C23 1.252 . S
C16 O19 1.252 . S
C16 O20 1.260 . S
C17 O24 1.240 . S
C17 O25 1.252 . S
C18 O21 1.252 . S
C18 O22 1.260 . S
O19 In13 2.266 . S
O19 C16 1.252 . S
O20 In13 2.326 . S
O20 C16 1.260 . S
O21 In13 2.266 . S
O21 C18 1.252 . S
O22 In13 2.326 . S
O22 C18 1.260 . S
C23 O14 1.240 . S
C23 O15 1.252 . S
O24 In13 2.294 . S
O24 C17 1.240 . S
O25 In13 2.326 . S
O25 C17 1.252 . S
In26 O27 2.294 . S
In26 O28 2.326 . S
In26 O32 2.266 . S
In26 O33 2.326 . S
In26 O34 2.266 . S
In26 O35 2.326 . S
In26 O37 2.294 . S
In26 O38 2.326 . S
O27 In26 2.294 . S
O27 C36 1.240 . S
O28 In26 2.326 . S
O28 C36 1.252 . S
C29 O32 1.252 . S
C29 O33 1.260 . S
C30 O37 1.240 . S
C30 O38 1.252 . S
C31 O34 1.252 . S
C31 O35 1.260 . S
O32 In26 2.266 . S
O32 C29 1.252 . S
O33 In26 2.326 . S
O33 C29 1.260 . S
O34 In26 2.266 . S
O34 C31 1.252 . S
O35 In26 2.326 . S
O35 C31 1.260 . S
C36 O27 1.240 . S
C36 O28 1.252 . S
O37 In26 2.294 . S
O37 C30 1.240 . S
O38 In26 2.326 . S
O38 C30 1.252 . S
In39 O40 2.294 . S
In39 O41 2.326 . S
In39 O45 2.266 . S
In39 O46 2.326 . S
In39 O47 2.266 . S
In39 O48 2.326 . S
In39 O50 2.294 . S
In39 O51 2.326 . S
O40 In39 2.294 . S
O40 C49 1.240 . S
O41 In39 2.326 . S
O41 C49 1.252 . S
C42 O45 1.252 . S
C42 O46 1.260 . S
C43 O50 1.240 . S
C43 O51 1.252 . S
C44 O47 1.252 . S
C44 O48 1.260 . S
O45 In39 2.266 . S
O45 C42 1.252 . S
O46 In39 2.326 . S
O46 C42 1.260 . S
O47 In39 2.266 . S
O47 C44 1.252 . S
O48 In39 2.326 . S
O48 C44 1.260 . S
C49 O40 1.240 . S
C49 O41 1.252 . S
O50 In39 2.294 . S
O50 C43 1.240 . S
O51 In39 2.326 . S
O51 C43 1.252 . S
In52 O53 2.294 . S
In52 O54 2.326 . S
In52 O58 2.266 . S
In52 O59 2.326 . S
In52 O60 2.266 . S
In52 O61 2.326 . S
In52 O63 2.294 . S
In52 O64 2.326 . S
O53 In52 2.294 . S
O53 C62 1.240 . S
O54 In52 2.326 . S
O54 C62 1.252 . S
C55 O58 1.252 . S
C55 O59 1.260 . S
C56 O63 1.240 . S
C56 O64 1.252 . S
C57 O60 1.252 . S
C57 O61 1.260 . S
O58 In52 2.266 . S
O58 C55 1.252 . S
O59 In52 2.326 . S
O59 C55 1.260 . S
O60 In52 2.266 . S
O60 C57 1.252 . S
O61 In52 2.326 . S
O61 C57 1.260 . S
C62 O53 1.240 . S
C62 O54 1.252 . S
O63 In52 2.294 . S
O63 C56 1.240 . S
O64 In52 2.326 . S
O64 C56 1.252 . S
In65 O66 2.294 . S
In65 O67 2.326 . S
In65 O71 2.266 . S
In65 O72 2.326 . S
In65 O73 2.266 . S
In65 O74 2.326 . S
In65 O76 2.294 . S
In65 O77 2.326 . S
O66 In65 2.294 . S
O66 C75 1.240 . S
O67 In65 2.326 . S
O67 C75 1.252 . S
C68 O71 1.252 . S
C68 O72 1.260 . S
C69 O76 1.240 . S
C69 O77 1.252 . S
C70 O73 1.252 . S
C70 O74 1.260 . S
O71 In65 2.266 . S
O71 C68 1.252 . S
O72 In65 2.326 . S
O72 C68 1.260 . S
O73 In65 2.266 . S
O73 C70 1.252 . S
O74 In65 2.326 . S
O74 C70 1.260 . S
C75 O66 1.240 . S
C75 O67 1.252 . S
O76 In65 2.294 . S
O76 C69 1.240 . S
O77 In65 2.326 . S
O77 C69 1.252 . S
In78 O79 2.294 . S
In78 O80 2.326 . S
In78 O84 2.266 . S
In78 O85 2.326 . S
In78 O86 2.266 . S
In78 O87 2.326 . S
In78 O89 2.294 . S
In78 O90 2.326 . S
O79 In78 2.294 . S
O79 C88 1.240 . S
O80 In78 2.326 . S
O80 C88 1.252 . S
C81 O84 1.252 . S
C81 O85 1.260 . S
C82 O89 1.240 . S
C82 O90 1.252 . S
C83 O86 1.252 . S
C83 O87 1.260 . S
O84 In78 2.266 . S
O84 C81 1.252 . S
O85 In78 2.326 . S
O85 C81 1.260 . S
O86 In78 2.266 . S
O86 C83 1.252 . S
O87 In78 2.326 . S
O87 C83 1.260 . S
C88 O79 1.240 . S
C88 O80 1.252 . S
O89 In78 2.294 . S
O89 C82 1.240 . S
O90 In78 2.326 . S
O90 C82 1.252 . S
In91 O92 2.294 . S
In91 O93 2.326 . S
In91 O97 2.266 . S
In91 O98 2.326 . S
In91 O99 2.266 . S
In91 O100 2.326 . S
In91 O102 2.294 . S
In91 O103 2.326 . S
O92 In91 2.294 . S
O92 C101 1.240 . S
O93 In91 2.326 . S
O93 C101 1.252 . S
C94 O97 1.252 . S
C94 O98 1.260 . S
C95 O102 1.240 . S
C95 O103 1.252 . S
C96 O99 1.252 . S
C96 O100 1.260 . S
O97 In91 2.266 . S
O97 C94 1.252 . S
O98 In91 2.326 . S
O98 C94 1.260 . S
O99 In91 2.266 . S
O99 C96 1.252 . S
O100 In91 2.326 . S
O100 C96 1.260 . S
C101 O92 1.240 . S
C101 O93 1.252 . S
O102 In91 2.294 . S
O102 C95 1.240 . S
O103 In91 2.326 . S
O103 C95 1.252 . S
In104 O105 2.294 . S
In104 O106 2.326 . S
In104 O110 2.266 . S
In104 O111 2.326 . S
In104 O112 2.266 . S
In104 O113 2.326 . S
In104 O115 2.294 . S
In104 O116 2.326 . S
O105 In104 2.294 . S
O105 C114 1.240 . S
O106 In104 2.326 . S
O106 C114 1.252 . S
C107 O110 1.252 . S
C107 O111 1.260 . S
C108 O115 1.240 . S
C108 O116 1.252 . S
C109 O112 1.252 . S
C109 O113 1.260 . S
O110 In104 2.266 . S
O110 C107 1.252 . S
O111 In104 2.326 . S
O111 C107 1.260 . S
O112 In104 2.266 . S
O112 C109 1.252 . S
O113 In104 2.326 . S
O113 C109 1.260 . S
C114 O105 1.240 . S
C114 O106 1.252 . S
O115 In104 2.294 . S
O115 C108 1.240 . S
O116 In104 2.326 . S
O116 C108 1.252 . S
In117 O118 2.294 . S
In117 O119 2.326 . S
In117 O123 2.266 . S
In117 O124 2.326 . S
In117 O125 2.266 . S
In117 O126 2.326 . S
In117 O128 2.294 . S
In117 O129 2.326 . S
O118 In117 2.294 . S
O118 C127 1.240 . S
O119 In117 2.326 . S
O119 C127 1.252 . S
C120 O123 1.252 . S
C120 O124 1.260 . S
C121 O128 1.240 . S
C121 O129 1.252 . S
C122 O125 1.252 . S
C122 O126 1.260 . S
O123 In117 2.266 . S
O123 C120 1.252 . S
O124 In117 2.326 . S
O124 C120 1.260 . S
O125 In117 2.266 . S
O125 C122 1.252 . S
O126 In117 2.326 . S
O126 C122 1.260 . S
C127 O118 1.240 . S
C127 O119 1.252 . S
O128 In117 2.294 . S
O128 C121 1.240 . S
O129 In117 2.326 . S
O129 C121 1.252 . S
In130 O131 2.294 . S
In130 O132 2.326 . S
In130 O136 2.266 . S
In130 O137 2.326 . S
In130 O138 2.266 . S
In130 O139 2.326 . S
In130 O141 2.294 . S
In130 O142 2.326 . S
O131 In130 2.294 . S
O131 C140 1.240 . S
O132 In130 2.326 . S
O132 C140 1.252 . S
C133 O136 1.252 . S
C133 O137 1.260 . S
C134 O141 1.240 . S
C134 O142 1.252 . S
C135 O138 1.252 . S
C135 O139 1.260 . S
O136 In130 2.266 . S
O136 C133 1.252 . S
O137 In130 2.326 . S
O137 C133 1.260 . S
O138 In130 2.266 . S
O138 C135 1.252 . S
O139 In130 2.326 . S
O139 C135 1.260 . S
C140 O131 1.240 . S
C140 O132 1.252 . S
O141 In130 2.294 . S
O141 C134 1.240 . S
O142 In130 2.326 . S
O142 C134 1.252 . S
In143 O144 2.294 . S
In143 O145 2.326 . S
In143 O149 2.266 . S
In143 O150 2.326 . S
In143 O151 2.266 . S
In143 O152 2.326 . S
In143 O154 2.294 . S
In143 O155 2.326 . S
O144 In143 2.294 . S
O144 C153 1.240 . S
O145 In143 2.326 . S
O145 C153 1.252 . S
C146 O149 1.252 . S
C146 O150 1.260 . S
C147 O154 1.240 . S
C147 O155 1.252 . S
C148 O151 1.252 . S
C148 O152 1.260 . S
O149 In143 2.266 . S
O149 C146 1.252 . S
O150 In143 2.326 . S
O150 C146 1.260 . S
O151 In143 2.266 . S
O151 C148 1.252 . S
O152 In143 2.326 . S
O152 C148 1.260 . S
C153 O144 1.240 . S
C153 O145 1.252 . S
O154 In143 2.294 . S
O154 C147 1.240 . S
O155 In143 2.326 . S
O155 C147 1.252 . S
In156 O157 2.294 . S
In156 O158 2.326 . S
In156 O162 2.266 . S
In156 O163 2.326 . S
In156 O164 2.266 . S
In156 O165 2.326 . S
In156 O167 2.294 . S
In156 O168 2.326 . S
O157 In156 2.294 . S
O157 C166 1.240 . S
O158 In156 2.326 . S
O158 C166 1.252 . S
C159 O162 1.252 . S
C159 O163 1.260 . S
C160 O167 1.240 . S
C160 O168 1.252 . S
C161 O164 1.252 . S
C161 O165 1.260 . S
O162 In156 2.266 . S
O162 C159 1.252 . S
O163 In156 2.326 . S
O163 C159 1.260 . S
O164 In156 2.266 . S
O164 C161 1.252 . S
O165 In156 2.326 . S
O165 C161 1.260 . S
C166 O157 1.240 . S
C166 O158 1.252 . S
O167 In156 2.294 . S
O167 C160 1.240 . S
O168 In156 2.326 . S
O168 C160 1.252 . S
In169 O170 2.294 . S
In169 O171 2.326 . S
In169 O175 2.266 . S
In169 O176 2.326 . S
In169 O177 2.266 . S
In169 O178 2.326 . S
In169 O180 2.294 . S
In169 O181 2.326 . S
O170 In169 2.294 . S
O170 C179 1.240 . S
O171 In169 2.326 . S
O171 C179 1.252 . S
C172 O175 1.252 . S
C172 O176 1.260 . S
C173 O180 1.240 . S
C173 O181 1.252 . S
C174 O177 1.252 . S
C174 O178 1.260 . S
O175 In169 2.266 . S
O175 C172 1.252 . S
O176 In169 2.326 . S
O176 C172 1.260 . S
O177 In169 2.266 . S
O177 C174 1.252 . S
O178 In169 2.326 . S
O178 C174 1.260 . S
C179 O170 1.240 . S
C179 O171 1.252 . S
O180 In169 2.294 . S
O180 C173 1.240 . S
O181 In169 2.326 . S
O181 C173 1.252 . S
In182 O183 2.294 . S
In182 O184 2.326 . S
In182 O188 2.266 . S
In182 O189 2.326 . S
In182 O190 2.266 . S
In182 O191 2.326 . S
In182 O193 2.294 . S
In182 O194 2.326 . S
O183 In182 2.294 . S
O183 C192 1.240 . S
O184 In182 2.326 . S
O184 C192 1.252 . S
C185 O188 1.252 . S
C185 O189 1.260 . S
C186 O193 1.240 . S
C186 O194 1.252 . S
C187 O190 1.252 . S
C187 O191 1.260 . S
O188 In182 2.266 . S
O188 C185 1.252 . S
O189 In182 2.326 . S
O189 C185 1.260 . S
O190 In182 2.266 . S
O190 C187 1.252 . S
O191 In182 2.326 . S
O191 C187 1.260 . S
C192 O183 1.240 . S
C192 O184 1.252 . S
O193 In182 2.294 . S
O193 C186 1.240 . S
O194 In182 2.326 . S
O194 C186 1.252 . S
In195 O196 2.294 . S
In195 O197 2.326 . S
In195 O201 2.266 . S
In195 O202 2.326 . S
In195 O203 2.266 . S
In195 O204 2.326 . S
In195 O206 2.294 . S
In195 O207 2.326 . S
O196 In195 2.294 . S
O196 C205 1.240 . S
O197 In195 2.326 . S
O197 C205 1.252 . S
C198 O201 1.252 . S
C198 O202 1.260 . S
C199 O206 1.240 . S
C199 O207 1.252 . S
C200 O203 1.252 . S
C200 O204 1.260 . S
O201 In195 2.266 . S
O201 C198 1.252 . S
O202 In195 2.326 . S
O202 C198 1.260 . S
O203 In195 2.266 . S
O203 C200 1.252 . S
O204 In195 2.326 . S
O204 C200 1.260 . S
C205 O196 1.240 . S
C205 O197 1.252 . S
O206 In195 2.294 . S
O206 C199 1.240 . S
O207 In195 2.326 . S
O207 C199 1.252 . S
In208 O209 2.294 . S
In208 O210 2.326 . S
In208 O214 2.266 . S
In208 O215 2.326 . S
In208 O216 2.266 . S
In208 O217 2.326 . S
In208 O219 2.294 . S
In208 O220 2.326 . S
O209 In208 2.294 . S
O209 C218 1.240 . S
O210 In208 2.326 . S
O210 C218 1.252 . S
C211 O214 1.252 . S
C211 O215 1.260 . S
C212 O219 1.240 . S
C212 O220 1.252 . S
C213 O216 1.252 . S
C213 O217 1.260 . S
O214 In208 2.266 . S
O214 C211 1.252 . S
O215 In208 2.326 . S
O215 C211 1.260 . S
O216 In208 2.266 . S
O216 C213 1.252 . S
O217 In208 2.326 . S
O217 C213 1.260 . S
C218 O209 1.240 . S
C218 O210 1.252 . S
O219 In208 2.294 . S
O219 C212 1.240 . S
O220 In208 2.326 . S
O220 C212 1.252 . S
In221 O222 2.294 . S
In221 O223 2.326 . S
In221 O227 2.266 . S
In221 O228 2.326 . S
In221 O229 2.266 . S
In221 O230 2.326 . S
In221 O232 2.294 . S
In221 O233 2.326 . S
O222 In221 2.294 . S
O222 C231 1.240 . S
O223 In221 2.326 . S
O223 C231 1.252 . S
C224 O227 1.252 . S
C224 O228 1.260 . S
C225 O232 1.240 . S
C225 O233 1.252 . S
C226 O229 1.252 . S
C226 O230 1.260 . S
O227 In221 2.266 . S
O227 C224 1.252 . S
O228 In221 2.326 . S
O228 C224 1.260 . S
O229 In221 2.266 . S
O229 C226 1.252 . S
O230 In221 2.326 . S
O230 C226 1.260 . S
C231 O222 1.240 . S
C231 O223 1.252 . S
O232 In221 2.294 . S
O232 C225 1.240 . S
O233 In221 2.326 . S
O233 C225 1.252 . S
In234 O235 2.294 . S
In234 O236 2.326 . S
In234 O240 2.266 . S
In234 O241 2.326 . S
In234 O242 2.266 . S
In234 O243 2.326 . S
In234 O245 2.294 . S
In234 O246 2.326 . S
O235 In234 2.294 . S
O235 C244 1.240 . S
O236 In234 2.326 . S
O236 C244 1.252 . S
C237 O240 1.252 . S
C237 O241 1.260 . S
C238 O245 1.240 . S
C238 O246 1.252 . S
C239 O242 1.252 . S
C239 O243 1.260 . S
O240 In234 2.266 . S
O240 C237 1.252 . S
O241 In234 2.326 . S
O241 C237 1.260 . S
O242 In234 2.266 . S
O242 C239 1.252 . S
O243 In234 2.326 . S
O243 C239 1.260 . S
C244 O235 1.240 . S
C244 O236 1.252 . S
O245 In234 2.294 . S
O245 C238 1.240 . S
O246 In234 2.326 . S
O246 C238 1.252 . S
In247 O248 2.294 . S
In247 O249 2.326 . S
In247 O253 2.266 . S
In247 O254 2.326 . S
In247 O255 2.266 . S
In247 O256 2.326 . S
In247 O258 2.294 . S
In247 O259 2.326 . S
O248 In247 2.294 . S
O248 C257 1.240 . S
O249 In247 2.326 . S
O249 C257 1.252 . S
C250 O253 1.252 . S
C250 O254 1.260 . S
C251 O258 1.240 . S
C251 O259 1.252 . S
C252 O255 1.252 . S
C252 O256 1.260 . S
O253 In247 2.266 . S
O253 C250 1.252 . S
O254 In247 2.326 . S
O254 C250 1.260 . S
O255 In247 2.266 . S
O255 C252 1.252 . S
O256 In247 2.326 . S
O256 C252 1.260 . S
C257 O248 1.240 . S
C257 O249 1.252 . S
O258 In247 2.294 . S
O258 C251 1.240 . S
O259 In247 2.326 . S
O259 C251 1.252 . S
In260 O261 2.294 . S
In260 O262 2.326 . S
In260 O266 2.266 . S
In260 O267 2.326 . S
In260 O268 2.266 . S
In260 O269 2.326 . S
In260 O271 2.294 . S
In260 O272 2.326 . S
O261 In260 2.294 . S
O261 C270 1.240 . S
O262 In260 2.326 . S
O262 C270 1.252 . S
C263 O266 1.252 . S
C263 O267 1.260 . S
C264 O271 1.240 . S
C264 O272 1.252 . S
C265 O268 1.252 . S
C265 O269 1.260 . S
O266 In260 2.266 . S
O266 C263 1.252 . S
O267 In260 2.326 . S
O267 C263 1.260 . S
O268 In260 2.266 . S
O268 C265 1.252 . S
O269 In260 2.326 . S
O269 C265 1.260 . S
C270 O261 1.240 . S
C270 O262 1.252 . S
O271 In260 2.294 . S
O271 C264 1.240 . S
O272 In260 2.326 . S
O272 C264 1.252 . S
In273 O274 2.294 . S
In273 O275 2.326 . S
In273 O279 2.266 . S
In273 O280 2.326 . S
In273 O281 2.266 . S
In273 O282 2.326 . S
In273 O284 2.294 . S
In273 O285 2.326 . S
O274 In273 2.294 . S
O274 C283 1.240 . S
O275 In273 2.326 . S
O275 C283 1.252 . S
C276 O279 1.252 . S
C276 O280 1.260 . S
C277 O284 1.240 . S
C277 O285 1.252 . S
C278 O281 1.252 . S
C278 O282 1.260 . S
O279 In273 2.266 . S
O279 C276 1.252 . S
O280 In273 2.326 . S
O280 C276 1.260 . S
O281 In273 2.266 . S
O281 C278 1.252 . S
O282 In273 2.326 . S
O282 C278 1.260 . S
C283 O274 1.240 . S
C283 O275 1.252 . S
O284 In273 2.294 . S
O284 C277 1.240 . S
O285 In273 2.326 . S
O285 C277 1.252 . S
In286 O287 2.294 . S
In286 O288 2.326 . S
In286 O292 2.266 . S
In286 O293 2.326 . S
In286 O294 2.266 . S
In286 O295 2.326 . S
In286 O297 2.294 . S
In286 O298 2.326 . S
O287 In286 2.294 . S
O287 C296 1.240 . S
O288 In286 2.326 . S
O288 C296 1.252 . S
C289 O292 1.252 . S
C289 O293 1.260 . S
C290 O297 1.240 . S
C290 O298 1.252 . S
C291 O294 1.252 . S
C291 O295 1.260 . S
O292 In286 2.266 . S
O292 C289 1.252 . S
O293 In286 2.326 . S
O293 C289 1.260 . S
O294 In286 2.266 . S
O294 C291 1.252 . S
O295 In286 2.326 . S
O295 C291 1.260 . S
C296 O287 1.240 . S
C296 O288 1.252 . S
O297 In286 2.294 . S
O297 C290 1.240 . S
O298 In286 2.326 . S
O298 C290 1.252 . S
In299 O300 2.294 . S
In299 O301 2.326 . S
In299 O305 2.266 . S
In299 O306 2.326 . S
In299 O307 2.266 . S
In299 O308 2.326 . S
In299 O310 2.294 . S
In299 O311 2.326 . S
O300 In299 2.294 . S
O300 C309 1.240 . S
O301 In299 2.326 . S
O301 C309 1.252 . S
C302 O305 1.252 . S
C302 O306 1.260 . S
C303 O310 1.240 . S
C303 O311 1.252 . S
C304 O307 1.252 . S
C304 O308 1.260 . S
O305 In299 2.266 . S
O305 C302 1.252 . S
O306 In299 2.326 . S
O306 C302 1.260 . S
O307 In299 2.266 . S
O307 C304 1.252 . S
O308 In299 2.326 . S
O308 C304 1.260 . S
C309 O300 1.240 . S
C309 O301 1.252 . S
O310 In299 2.294 . S
O310 C303 1.240 . S
O311 In299 2.326 . S
O311 C303 1.252 . S
In312 O313 2.294 . S
In312 O314 2.326 . S
In312 O318 2.266 . S
In312 O319 2.326 . S
In312 O320 2.266 . S
In312 O321 2.326 . S
In312 O323 2.294 . S
In312 O324 2.326 . S
O313 In312 2.294 . S
O313 C322 1.240 . S
O314 In312 2.326 . S
O314 C322 1.252 . S
C315 O318 1.252 . S
C315 O319 1.260 . S
C316 O323 1.240 . S
C316 O324 1.252 . S
C317 O320 1.252 . S
C317 O321 1.260 . S
O318 In312 2.266 . S
O318 C315 1.252 . S
O319 In312 2.326 . S
O319 C315 1.260 . S
O320 In312 2.266 . S
O320 C317 1.252 . S
O321 In312 2.326 . S
O321 C317 1.260 . S
C322 O313 1.240 . S
C322 O314 1.252 . S
O323 In312 2.294 . S
O323 C316 1.240 . S
O324 In312 2.326 . S
O324 C316 1.252 . S
In325 O326 2.294 . S
In325 O327 2.326 . S
In325 O331 2.266 . S
In325 O332 2.326 . S
In325 O333 2.266 . S
In325 O334 2.326 . S
In325 O336 2.294 . S
In325 O337 2.326 . S
O326 In325 2.294 . S
O326 C335 1.240 . S
O327 In325 2.326 . S
O327 C335 1.252 . S
C328 O331 1.252 . S
C328 O332 1.260 . S
C329 O336 1.240 . S
C329 O337 1.252 . S
C330 O333 1.252 . S
C330 O334 1.260 . S
O331 In325 2.266 . S
O331 C328 1.252 . S
O332 In325 2.326 . S
O332 C328 1.260 . S
O333 In325 2.266 . S
O333 C330 1.252 . S
O334 In325 2.326 . S
O334 C330 1.260 . S
C335 O326 1.240 . S
C335 O327 1.252 . S
O336 In325 2.294 . S
O336 C329 1.240 . S
O337 In325 2.326 . S
O337 C329 1.252 . S
In338 O339 2.294 . S
In338 O340 2.326 . S
In338 O344 2.266 . S
In338 O345 2.326 . S
In338 O346 2.266 . S
In338 O347 2.326 . S
In338 O349 2.294 . S
In338 O350 2.326 . S
O339 In338 2.294 . S
O339 C348 1.240 . S
O340 In338 2.326 . S
O340 C348 1.252 . S
C341 O344 1.252 . S
C341 O345 1.260 . S
C342 O349 1.240 . S
C342 O350 1.252 . S
C343 O346 1.252 . S
C343 O347 1.260 . S
O344 In338 2.266 . S
O344 C341 1.252 . S
O345 In338 2.326 . S
O345 C341 1.260 . S
O346 In338 2.266 . S
O346 C343 1.252 . S
O347 In338 2.326 . S
O347 C343 1.260 . S
C348 O339 1.240 . S
C348 O340 1.252 . S
O349 In338 2.294 . S
O349 C342 1.240 . S
O350 In338 2.326 . S
O350 C342 1.252 . S
In351 O352 2.294 . S
In351 O353 2.326 . S
In351 O357 2.266 . S
In351 O358 2.326 . S
In351 O359 2.266 . S
In351 O360 2.326 . S
In351 O362 2.294 . S
In351 O363 2.326 . S
O352 In351 2.294 . S
O352 C361 1.240 . S
O353 In351 2.326 . S
O353 C361 1.252 . S
C354 O357 1.252 . S
C354 O358 1.260 . S
C355 O362 1.240 . S
C355 O363 1.252 . S
C356 O359 1.252 . S
C356 O360 1.260 . S
O357 In351 2.266 . S
O357 C354 1.252 . S
O358 In351 2.326 . S
O358 C354 1.260 . S
O359 In351 2.266 . S
O359 C356 1.252 . S
O360 In351 2.326 . S
O360 C356 1.260 . S
C361 O352 1.240 . S
C361 O353 1.252 . S
O362 In351 2.294 . S
O362 C355 1.240 . S
O363 In351 2.326 . S
O363 C355 1.252 . S
In364 O365 2.294 . S
In364 O366 2.326 . S
In364 O370 2.266 . S
In364 O371 2.326 . S
In364 O372 2.266 . S
In364 O373 2.326 . S
In364 O375 2.294 . S
In364 O376 2.326 . S
O365 In364 2.294 . S
O365 C374 1.240 . S
O366 In364 2.326 . S
O366 C374 1.252 . S
C367 O370 1.252 . S
C367 O371 1.260 . S
C368 O375 1.240 . S
C368 O376 1.252 . S
C369 O372 1.252 . S
C369 O373 1.260 . S
O370 In364 2.266 . S
O370 C367 1.252 . S
O371 In364 2.326 . S
O371 C367 1.260 . S
O372 In364 2.266 . S
O372 C369 1.252 . S
O373 In364 2.326 . S
O373 C369 1.260 . S
C374 O365 1.240 . S
C374 O366 1.252 . S
O375 In364 2.294 . S
O375 C368 1.240 . S
O376 In364 2.326 . S
O376 C368 1.252 . S
In377 O378 2.294 . S
In377 O379 2.326 . S
In377 O383 2.266 . S
In377 O384 2.326 . S
In377 O385 2.266 . S
In377 O386 2.326 . S
In377 O388 2.294 . S
In377 O389 2.326 . S
O378 In377 2.294 . S
O378 C387 1.240 . S
O379 In377 2.326 . S
O379 C387 1.252 . S
C380 O383 1.252 . S
C380 O384 1.260 . S
C381 O388 1.240 . S
C381 O389 1.252 . S
C382 O385 1.252 . S
C382 O386 1.260 . S
O383 In377 2.266 . S
O383 C380 1.252 . S
O384 In377 2.326 . S
O384 C380 1.260 . S
O385 In377 2.266 . S
O385 C382 1.252 . S
O386 In377 2.326 . S
O386 C382 1.260 . S
C387 O378 1.240 . S
C387 O379 1.252 . S
O388 In377 2.294 . S
O388 C381 1.240 . S
O389 In377 2.326 . S
O389 C381 1.252 . S
In390 O391 2.294 . S
In390 O392 2.326 . S
In390 O396 2.266 . S
In390 O397 2.326 . S
In390 O398 2.266 . S
In390 O399 2.326 . S
In390 O401 2.294 . S
In390 O402 2.326 . S
O391 In390 2.294 . S
O391 C400 1.240 . S
O392 In390 2.326 . S
O392 C400 1.252 . S
C393 O396 1.252 . S
C393 O397 1.260 . S
C394 O401 1.240 . S
C394 O402 1.252 . S
C395 O398 1.252 . S
C395 O399 1.260 . S
O396 In390 2.266 . S
O396 C393 1.252 . S
O397 In390 2.326 . S
O397 C393 1.260 . S
O398 In390 2.266 . S
O398 C395 1.252 . S
O399 In390 2.326 . S
O399 C395 1.260 . S
C400 O391 1.240 . S
C400 O392 1.252 . S
O401 In390 2.294 . S
O401 C394 1.240 . S
O402 In390 2.326 . S
O402 C394 1.252 . S
In403 O404 2.294 . S
In403 O405 2.326 . S
In403 O409 2.266 . S
In403 O410 2.326 . S
In403 O411 2.266 . S
In403 O412 2.326 . S
In403 O414 2.294 . S
In403 O415 2.326 . S
O404 In403 2.294 . S
O404 C413 1.240 . S
O405 In403 2.326 . S
O405 C413 1.252 . S
C406 O409 1.252 . S
C406 O410 1.260 . S
C407 O414 1.240 . S
C407 O415 1.252 . S
C408 O411 1.252 . S
C408 O412 1.260 . S
O409 In403 2.266 . S
O409 C406 1.252 . S
O410 In403 2.326 . S
O410 C406 1.260 . S
O411 In403 2.266 . S
O411 C408 1.252 . S
O412 In403 2.326 . S
O412 C408 1.260 . S
C413 O404 1.240 . S
C413 O405 1.252 . S
O414 In403 2.294 . S
O414 C407 1.240 . S
O415 In403 2.326 . S
O415 C407 1.252 . S
In416 O417 2.294 . S
In416 O418 2.326 . S
In416 O422 2.266 . S
In416 O423 2.326 . S
In416 O424 2.266 . S
In416 O425 2.326 . S
In416 O427 2.294 . S
In416 O428 2.326 . S
O417 In416 2.294 . S
O417 C426 1.240 . S
O418 In416 2.326 . S
O418 C426 1.252 . S
C419 O422 1.252 . S
C419 O423 1.260 . S
C420 O427 1.240 . S
C420 O428 1.252 . S
C421 O424 1.252 . S
C421 O425 1.260 . S
O422 In416 2.266 . S
O422 C419 1.252 . S
O423 In416 2.326 . S
O423 C419 1.260 . S
O424 In416 2.266 . S
O424 C421 1.252 . S
O425 In416 2.326 . S
O425 C421 1.260 . S
C426 O417 1.240 . S
C426 O418 1.252 . S
O427 In416 2.294 . S
O427 C420 1.240 . S
O428 In416 2.326 . S
O428 C420 1.252 . S
In429 O430 2.294 . S
In429 O431 2.326 . S
In429 O435 2.266 . S
In429 O436 2.326 . S
In429 O437 2.266 . S
In429 O438 2.326 . S
In429 O440 2.294 . S
In429 O441 2.326 . S
O430 In429 2.294 . S
O430 C439 1.240 . S
O431 In429 2.326 . S
O431 C439 1.252 . S
C432 O435 1.252 . S
C432 O436 1.260 . S
C433 O440 1.240 . S
C433 O441 1.252 . S
C434 O437 1.252 . S
C434 O438 1.260 . S
O435 In429 2.266 . S
O435 C432 1.252 . S
O436 In429 2.326 . S
O436 C432 1.260 . S
O437 In429 2.266 . S
O437 C434 1.252 . S
O438 In429 2.326 . S
O438 C434 1.260 . S
C439 O430 1.240 . S
C439 O431 1.252 . S
O440 In429 2.294 . S
O440 C433 1.240 . S
O441 In429 2.326 . S
O441 C433 1.252 . S
In442 O443 2.294 . S
In442 O444 2.326 . S
In442 O448 2.266 . S
In442 O449 2.326 . S
In442 O450 2.266 . S
In442 O451 2.326 . S
In442 O453 2.294 . S
In442 O454 2.326 . S
O443 In442 2.294 . S
O443 C452 1.240 . S
O444 In442 2.326 . S
O444 C452 1.252 . S
C445 O448 1.252 . S
C445 O449 1.260 . S
C446 O453 1.240 . S
C446 O454 1.252 . S
C447 O450 1.252 . S
C447 O451 1.260 . S
O448 In442 2.266 . S
O448 C445 1.252 . S
O449 In442 2.326 . S
O449 C445 1.260 . S
O450 In442 2.266 . S
O450 C447 1.252 . S
O451 In442 2.326 . S
O451 C447 1.260 . S
C452 O443 1.240 . S
C452 O444 1.252 . S
O453 In442 2.294 . S
O453 C446 1.240 . S
O454 In442 2.326 . S
O454 C446 1.252 . S
In455 O456 2.294 . S
In455 O457 2.326 . S
In455 O461 2.266 . S
In455 O462 2.326 . S
In455 O463 2.266 . S
In455 O464 2.326 . S
In455 O466 2.294 . S
In455 O467 2.326 . S
O456 In455 2.294 . S
O456 C465 1.240 . S
O457 In455 2.326 . S
O457 C465 1.252 . S
C458 O461 1.252 . S
C458 O462 1.260 . S
C459 O466 1.240 . S
C459 O467 1.252 . S
C460 O463 1.252 . S
C460 O464 1.260 . S
O461 In455 2.266 . S
O461 C458 1.252 . S
O462 In455 2.326 . S
O462 C458 1.260 . S
O463 In455 2.266 . S
O463 C460 1.252 . S
O464 In455 2.326 . S
O464 C460 1.260 . S
C465 O456 1.240 . S
C465 O457 1.252 . S
O466 In455 2.294 . S
O466 C459 1.240 . S
O467 In455 2.326 . S
O467 C459 1.252 . S
In468 O469 2.294 . S
In468 O470 2.326 . S
In468 O474 2.266 . S
In468 O475 2.326 . S
In468 O476 2.266 . S
In468 O477 2.326 . S
In468 O479 2.294 . S
In468 O480 2.326 . S
O469 In468 2.294 . S
O469 C478 1.240 . S
O470 In468 2.326 . S
O470 C478 1.252 . S
C471 O474 1.252 . S
C471 O475 1.260 . S
C472 O479 1.240 . S
C472 O480 1.252 . S
C473 O476 1.252 . S
C473 O477 1.260 . S
O474 In468 2.266 . S
O474 C471 1.252 . S
O475 In468 2.326 . S
O475 C471 1.260 . S
O476 In468 2.266 . S
O476 C473 1.252 . S
O477 In468 2.326 . S
O477 C473 1.260 . S
C478 O469 1.240 . S
C478 O470 1.252 . S
O479 In468 2.294 . S
O479 C472 1.240 . S
O480 In468 2.326 . S
O480 C472 1.252 . S
In481 O482 2.294 . S
In481 O483 2.326 . S
In481 O487 2.266 . S
In481 O488 2.326 . S
In481 O489 2.266 . S
In481 O490 2.326 . S
In481 O492 2.294 . S
In481 O493 2.326 . S
O482 In481 2.294 . S
O482 C491 1.240 . S
O483 In481 2.326 . S
O483 C491 1.252 . S
C484 O487 1.252 . S
C484 O488 1.260 . S
C485 O492 1.240 . S
C485 O493 1.252 . S
C486 O489 1.252 . S
C486 O490 1.260 . S
O487 In481 2.266 . S
O487 C484 1.252 . S
O488 In481 2.326 . S
O488 C484 1.260 . S
O489 In481 2.266 . S
O489 C486 1.252 . S
O490 In481 2.326 . S
O490 C486 1.260 . S
C491 O482 1.240 . S
C491 O483 1.252 . S
O492 In481 2.294 . S
O492 C485 1.240 . S
O493 In481 2.326 . S
O493 C485 1.252 . S
In494 O495 2.294 . S
In494 O496 2.326 . S
In494 O500 2.266 . S
In494 O501 2.326 . S
In494 O502 2.266 . S
In494 O503 2.326 . S
In494 O505 2.294 . S
In494 O506 2.326 . S
O495 In494 2.294 . S
O495 C504 1.240 . S
O496 In494 2.326 . S
O496 C504 1.252 . S
C497 O500 1.252 . S
C497 O501 1.260 . S
C498 O505 1.240 . S
C498 O506 1.252 . S
C499 O502 1.252 . S
C499 O503 1.260 . S
O500 In494 2.266 . S
O500 C497 1.252 . S
O501 In494 2.326 . S
O501 C497 1.260 . S
O502 In494 2.266 . S
O502 C499 1.252 . S
O503 In494 2.326 . S
O503 C499 1.260 . S
C504 O495 1.240 . S
C504 O496 1.252 . S
O505 In494 2.294 . S
O505 C498 1.240 . S
O506 In494 2.326 . S
O506 C498 1.252 . S
In507 O508 2.294 . S
In507 O509 2.326 . S
In507 O513 2.266 . S
In507 O514 2.326 . S
In507 O515 2.266 . S
In507 O516 2.326 . S
In507 O518 2.294 . S
In507 O519 2.326 . S
O508 In507 2.294 . S
O508 C517 1.240 . S
O509 In507 2.326 . S
O509 C517 1.252 . S
C510 O513 1.252 . S
C510 O514 1.260 . S
C511 O518 1.240 . S
C511 O519 1.252 . S
C512 O515 1.252 . S
C512 O516 1.260 . S
O513 In507 2.266 . S
O513 C510 1.252 . S
O514 In507 2.326 . S
O514 C510 1.260 . S
O515 In507 2.266 . S
O515 C512 1.252 . S
O516 In507 2.326 . S
O516 C512 1.260 . S
C517 O508 1.240 . S
C517 O509 1.252 . S
O518 In507 2.294 . S
O518 C511 1.240 . S
O519 In507 2.326 . S
O519 C511 1.252 . S
In520 O521 2.294 . S
In520 O522 2.326 . S
In520 O526 2.266 . S
In520 O527 2.326 . S
In520 O528 2.266 . S
In520 O529 2.326 . S
In520 O531 2.294 . S
In520 O532 2.326 . S
O521 In520 2.294 . S
O521 C530 1.240 . S
O522 In520 2.326 . S
O522 C530 1.252 . S
C523 O526 1.252 . S
C523 O527 1.260 . S
C524 O531 1.240 . S
C524 O532 1.252 . S
C525 O528 1.252 . S
C525 O529 1.260 . S
O526 In520 2.266 . S
O526 C523 1.252 . S
O527 In520 2.326 . S
O527 C523 1.260 . S
O528 In520 2.266 . S
O528 C525 1.252 . S
O529 In520 2.326 . S
O529 C525 1.260 . S
C530 O521 1.240 . S
C530 O522 1.252 . S
O531 In520 2.294 . S
O531 C524 1.240 . S
O532 In520 2.326 . S
O532 C524 1.252 . S
In533 O534 2.294 . S
In533 O535 2.326 . S
In533 O539 2.266 . S
In533 O540 2.326 . S
In533 O541 2.266 . S
In533 O542 2.326 . S
In533 O544 2.294 . S
In533 O545 2.326 . S
O534 In533 2.294 . S
O534 C543 1.240 . S
O535 In533 2.326 . S
O535 C543 1.252 . S
C536 O539 1.252 . S
C536 O540 1.260 . S
C537 O544 1.240 . S
C537 O545 1.252 . S
C538 O541 1.252 . S
C538 O542 1.260 . S
O539 In533 2.266 . S
O539 C536 1.252 . S
O540 In533 2.326 . S
O540 C536 1.260 . S
O541 In533 2.266 . S
O541 C538 1.252 . S
O542 In533 2.326 . S
O542 C538 1.260 . S
C543 O534 1.240 . S
C543 O535 1.252 . S
O544 In533 2.294 . S
O544 C537 1.240 . S
O545 In533 2.326 . S
O545 C537 1.252 . S
In546 O547 2.294 . S
In546 O548 2.326 . S
In546 O552 2.266 . S
In546 O553 2.326 . S
In546 O554 2.266 . S
In546 O555 2.326 . S
In546 O557 2.294 . S
In546 O558 2.326 . S
O547 In546 2.294 . S
O547 C556 1.240 . S
O548 In546 2.326 . S
O548 C556 1.252 . S
C549 O552 1.252 . S
C549 O553 1.260 . S
C550 O557 1.240 . S
C550 O558 1.252 . S
C551 O554 1.252 . S
C551 O555 1.260 . S
O552 In546 2.266 . S
O552 C549 1.252 . S
O553 In546 2.326 . S
O553 C549 1.260 . S
O554 In546 2.266 . S
O554 C551 1.252 . S
O555 In546 2.326 . S
O555 C551 1.260 . S
C556 O547 1.240 . S
C556 O548 1.252 . S
O557 In546 2.294 . S
O557 C550 1.240 . S
O558 In546 2.326 . S
O558 C550 1.252 . S
In559 O560 2.294 . S
In559 O561 2.326 . S
In559 O565 2.266 . S
In559 O566 2.326 . S
In559 O567 2.266 . S
In559 O568 2.326 . S
In559 O570 2.294 . S
In559 O571 2.326 . S
O560 In559 2.294 . S
O560 C569 1.240 . S
O561 In559 2.326 . S
O561 C569 1.252 . S
C562 O565 1.252 . S
C562 O566 1.260 . S
C563 O570 1.240 . S
C563 O571 1.252 . S
C564 O567 1.252 . S
C564 O568 1.260 . S
O565 In559 2.266 . S
O565 C562 1.252 . S
O566 In559 2.326 . S
O566 C562 1.260 . S
O567 In559 2.266 . S
O567 C564 1.252 . S
O568 In559 2.326 . S
O568 C564 1.260 . S
C569 O560 1.240 . S
C569 O561 1.252 . S
O570 In559 2.294 . S
O570 C563 1.240 . S
O571 In559 2.326 . S
O571 C563 1.252 . S
In572 O573 2.294 . S
In572 O574 2.326 . S
In572 O578 2.266 . S
In572 O579 2.326 . S
In572 O580 2.266 . S
In572 O581 2.326 . S
In572 O583 2.294 . S
In572 O584 2.326 . S
O573 In572 2.294 . S
O573 C582 1.240 . S
O574 In572 2.326 . S
O574 C582 1.252 . S
C575 O578 1.252 . S
C575 O579 1.260 . S
C576 O583 1.240 . S
C576 O584 1.252 . S
C577 O580 1.252 . S
C577 O581 1.260 . S
O578 In572 2.266 . S
O578 C575 1.252 . S
O579 In572 2.326 . S
O579 C575 1.260 . S
O580 In572 2.266 . S
O580 C577 1.252 . S
O581 In572 2.326 . S
O581 C577 1.260 . S
C582 O573 1.240 . S
C582 O574 1.252 . S
O583 In572 2.294 . S
O583 C576 1.240 . S
O584 In572 2.326 . S
O584 C576 1.252 . S
In585 O586 2.294 . S
In585 O587 2.326 . S
In585 O591 2.266 . S
In585 O592 2.326 . S
In585 O593 2.266 . S
In585 O594 2.326 . S
In585 O596 2.294 . S
In585 O597 2.326 . S
O586 In585 2.294 . S
O586 C595 1.240 . S
O587 In585 2.326 . S
O587 C595 1.252 . S
C588 O591 1.252 . S
C588 O592 1.260 . S
C589 O596 1.240 . S
C589 O597 1.252 . S
C590 O593 1.252 . S
C590 O594 1.260 . S
O591 In585 2.266 . S
O591 C588 1.252 . S
O592 In585 2.326 . S
O592 C588 1.260 . S
O593 In585 2.266 . S
O593 C590 1.252 . S
O594 In585 2.326 . S
O594 C590 1.260 . S
C595 O586 1.240 . S
C595 O587 1.252 . S
O596 In585 2.294 . S
O596 C589 1.240 . S
O597 In585 2.326 . S
O597 C589 1.252 . S
In598 O599 2.294 . S
In598 O600 2.326 . S
In598 O604 2.266 . S
In598 O605 2.326 . S
In598 O606 2.266 . S
In598 O607 2.326 . S
In598 O609 2.294 . S
In598 O610 2.326 . S
O599 In598 2.294 . S
O599 C608 1.240 . S
O600 In598 2.326 . S
O600 C608 1.252 . S
C601 O604 1.252 . S
C601 O605 1.260 . S
C602 O609 1.240 . S
C602 O610 1.252 . S
C603 O606 1.252 . S
C603 O607 1.260 . S
O604 In598 2.266 . S
O604 C601 1.252 . S
O605 In598 2.326 . S
O605 C601 1.260 . S
O606 In598 2.266 . S
O606 C603 1.252 . S
O607 In598 2.326 . S
O607 C603 1.260 . S
C608 O599 1.240 . S
C608 O600 1.252 . S
O609 In598 2.294 . S
O609 C602 1.240 . S
O610 In598 2.326 . S
O610 C602 1.252 . S
In611 O612 2.294 . S
In611 O613 2.326 . S
In611 O617 2.266 . S
In611 O618 2.326 . S
In611 O619 2.266 . S
In611 O620 2.326 . S
In611 O622 2.294 . S
In611 O623 2.326 . S
O612 In611 2.294 . S
O612 C621 1.240 . S
O613 In611 2.326 . S
O613 C621 1.252 . S
C614 O617 1.252 . S
C614 O618 1.260 . S
C615 O622 1.240 . S
C615 O623 1.252 . S
C616 O619 1.252 . S
C616 O620 1.260 . S
O617 In611 2.266 . S
O617 C614 1.252 . S
O618 In611 2.326 . S
O618 C614 1.260 . S
O619 In611 2.266 . S
O619 C616 1.252 . S
O620 In611 2.326 . S
O620 C616 1.260 . S
C621 O612 1.240 . S
C621 O613 1.252 . S
O622 In611 2.294 . S
O622 C615 1.240 . S
O623 In611 2.326 . S
O623 C615 1.252 . S
H624 C632 0.950 . S
H625 C637 0.950 . S
H626 C634 0.950 . S
H627 C636 0.950 . S
H628 C638 0.950 . S
H629 C640 0.950 . S
H630 C642 0.950 . S
H631 C643 0.950 . S
C632 H624 0.950 . S
C632 C633 1.386 . S
C632 C634 1.391 . S
C633 C632 1.386 . S
C633 C637 1.393 . S
C634 H626 0.950 . S
C634 C632 1.391 . S
C634 C635 1.400 . S
C635 C634 1.400 . S
C635 C636 1.398 . S
C635 C641 1.491 . S
C636 H627 0.950 . S
C636 C635 1.398 . S
C636 C637 1.391 . S
C637 H625 0.950 . S
C637 C633 1.393 . S
C637 C636 1.391 . S
C638 H628 0.950 . S
C638 C639 1.386 . S
C638 C640 1.391 . S
C639 C638 1.386 . S
C639 C643 1.393 . S
C640 H629 0.950 . S
C640 C638 1.391 . S
C640 C641 1.400 . S
C641 C635 1.491 . S
C641 C640 1.400 . S
C641 C642 1.398 . S
C642 H630 0.950 . S
C642 C641 1.398 . S
C642 C643 1.391 . S
C643 H631 0.950 . S
C643 C639 1.393 . S
C643 C642 1.391 . S
H644 C652 0.950 . S
H645 C657 0.950 . S
H646 C654 0.950 . S
H647 C656 0.950 . S
H648 C658 0.950 . S
H649 C660 0.950 . S
H650 C662 0.950 . S
H651 C663 0.950 . S
C652 H644 0.950 . S
C652 C653 1.386 . S
C652 C654 1.391 . S
C653 C652 1.386 . S
C653 C657 1.393 . S
C654 H646 0.950 . S
C654 C652 1.391 . S
C654 C655 1.400 . S
C655 C654 1.400 . S
C655 C656 1.398 . S
C655 C661 1.491 . S
C656 H647 0.950 . S
C656 C655 1.398 . S
C656 C657 1.391 . S
C657 H645 0.950 . S
C657 C653 1.393 . S
C657 C656 1.391 . S
C658 H648 0.950 . S
C658 C659 1.386 . S
C658 C660 1.391 . S
C659 C658 1.386 . S
C659 C663 1.393 . S
C660 H649 0.950 . S
C660 C658 1.391 . S
C660 C661 1.400 . S
C661 C655 1.491 . S
C661 C660 1.400 . S
C661 C662 1.398 . S
C662 H650 0.950 . S
C662 C661 1.398 . S
C662 C663 1.391 . S
C663 H651 0.950 . S
C663 C659 1.393 . S
C663 C662 1.391 . S
H664 C672 0.950 . S
H665 C677 0.950 . S
H666 C674 0.950 . S
H667 C676 0.950 . S
H668 C678 0.950 . S
H669 C680 0.950 . S
H670 C682 0.950 . S
H671 C683 0.950 . S
C672 H664 0.950 . S
C672 C673 1.386 . S
C672 C674 1.391 . S
C673 C672 1.386 . S
C673 C677 1.393 . S
C674 H666 0.950 . S
C674 C672 1.391 . S
C674 C675 1.400 . S
C675 C674 1.400 . S
C675 C676 1.398 . S
C675 C681 1.491 . S
C676 H667 0.950 . S
C676 C675 1.398 . S
C676 C677 1.391 . S
C677 H665 0.950 . S
C677 C673 1.393 . S
C677 C676 1.391 . S
C678 H668 0.950 . S
C678 C679 1.386 . S
C678 C680 1.391 . S
C679 C678 1.386 . S
C679 C683 1.393 . S
C680 H669 0.950 . S
C680 C678 1.391 . S
C680 C681 1.400 . S
C681 C675 1.491 . S
C681 C680 1.400 . S
C681 C682 1.398 . S
C682 H670 0.950 . S
C682 C681 1.398 . S
C682 C683 1.391 . S
C683 H671 0.950 . S
C683 C679 1.393 . S
C683 C682 1.391 . S
H684 C692 0.950 . S
H685 C697 0.950 . S
H686 C694 0.950 . S
H687 C696 0.950 . S
H688 C698 0.950 . S
H689 C700 0.950 . S
H690 C702 0.950 . S
H691 C703 0.950 . S
C692 H684 0.950 . S
C692 C693 1.386 . S
C692 C694 1.391 . S
C693 C692 1.386 . S
C693 C697 1.393 . S
C694 H686 0.950 . S
C694 C692 1.391 . S
C694 C695 1.400 . S
C695 C694 1.400 . S
C695 C696 1.398 . S
C695 C701 1.491 . S
C696 H687 0.950 . S
C696 C695 1.398 . S
C696 C697 1.391 . S
C697 H685 0.950 . S
C697 C693 1.393 . S
C697 C696 1.391 . S
C698 H688 0.950 . S
C698 C699 1.386 . S
C698 C700 1.391 . S
C699 C698 1.386 . S
C699 C703 1.393 . S
C700 H689 0.950 . S
C700 C698 1.391 . S
C700 C701 1.400 . S
C701 C695 1.491 . S
C701 C700 1.400 . S
C701 C702 1.398 . S
C702 H690 0.950 . S
C702 C701 1.398 . S
C702 C703 1.391 . S
C703 H691 0.950 . S
C703 C699 1.393 . S
C703 C702 1.391 . S
H704 C712 0.950 . S
H705 C717 0.950 . S
H706 C714 0.950 . S
H707 C716 0.950 . S
H708 C718 0.950 . S
H709 C720 0.950 . S
H710 C722 0.950 . S
H711 C723 0.950 . S
C712 H704 0.950 . S
C712 C713 1.386 . S
C712 C714 1.391 . S
C713 C712 1.386 . S
C713 C717 1.393 . S
C714 H706 0.950 . S
C714 C712 1.391 . S
C714 C715 1.400 . S
C715 C714 1.400 . S
C715 C716 1.398 . S
C715 C721 1.491 . S
C716 H707 0.950 . S
C716 C715 1.398 . S
C716 C717 1.391 . S
C717 H705 0.950 . S
C717 C713 1.393 . S
C717 C716 1.391 . S
C718 H708 0.950 . S
C718 C719 1.386 . S
C718 C720 1.391 . S
C719 C718 1.386 . S
C719 C723 1.393 . S
C720 H709 0.950 . S
C720 C718 1.391 . S
C720 C721 1.400 . S
C721 C715 1.491 . S
C721 C720 1.400 . S
C721 C722 1.398 . S
C722 H710 0.950 . S
C722 C721 1.398 . S
C722 C723 1.391 . S
C723 H711 0.950 . S
C723 C719 1.393 . S
C723 C722 1.391 . S
H724 C732 0.950 . S
H725 C737 0.950 . S
H726 C734 0.950 . S
H727 C736 0.950 . S
H728 C738 0.950 . S
H729 C740 0.950 . S
H730 C742 0.950 . S
H731 C743 0.950 . S
C732 H724 0.950 . S
C732 C733 1.386 . S
C732 C734 1.391 . S
C733 C732 1.386 . S
C733 C737 1.393 . S
C734 H726 0.950 . S
C734 C732 1.391 . S
C734 C735 1.400 . S
C735 C734 1.400 . S
C735 C736 1.398 . S
C735 C741 1.491 . S
C736 H727 0.950 . S
C736 C735 1.398 . S
C736 C737 1.391 . S
C737 H725 0.950 . S
C737 C733 1.393 . S
C737 C736 1.391 . S
C738 H728 0.950 . S
C738 C739 1.386 . S
C738 C740 1.391 . S
C739 C738 1.386 . S
C739 C743 1.393 . S
C740 H729 0.950 . S
C740 C738 1.391 . S
C740 C741 1.400 . S
C741 C735 1.491 . S
C741 C740 1.400 . S
C741 C742 1.398 . S
C742 H730 0.950 . S
C742 C741 1.398 . S
C742 C743 1.391 . S
C743 H731 0.950 . S
C743 C739 1.393 . S
C743 C742 1.391 . S
H744 C752 0.950 . S
H745 C757 0.950 . S
H746 C754 0.950 . S
H747 C756 0.950 . S
H748 C758 0.950 . S
H749 C760 0.950 . S
H750 C762 0.950 . S
H751 C763 0.950 . S
C752 H744 0.950 . S
C752 C753 1.386 . S
C752 C754 1.391 . S
C753 C752 1.386 . S
C753 C757 1.393 . S
C754 H746 0.950 . S
C754 C752 1.391 . S
C754 C755 1.400 . S
C755 C754 1.400 . S
C755 C756 1.398 . S
C755 C761 1.491 . S
C756 H747 0.950 . S
C756 C755 1.398 . S
C756 C757 1.391 . S
C757 H745 0.950 . S
C757 C753 1.393 . S
C757 C756 1.391 . S
C758 H748 0.950 . S
C758 C759 1.386 . S
C758 C760 1.391 . S
C759 C758 1.386 . S
C759 C763 1.393 . S
C760 H749 0.950 . S
C760 C758 1.391 . S
C760 C761 1.400 . S
C761 C755 1.491 . S
C761 C760 1.400 . S
C761 C762 1.398 . S
C762 H750 0.950 . S
C762 C761 1.398 . S
C762 C763 1.391 . S
C763 H751 0.950 . S
C763 C759 1.393 . S
C763 C762 1.391 . S
H764 C772 0.950 . S
H765 C777 0.950 . S
H766 C774 0.950 . S
H767 C776 0.950 . S
H768 C778 0.950 . S
H769 C780 0.950 . S
H770 C782 0.950 . S
H771 C783 0.950 . S
C772 H764 0.950 . S
C772 C773 1.386 . S
C772 C774 1.391 . S
C773 C772 1.386 . S
C773 C777 1.393 . S
C774 H766 0.950 . S
C774 C772 1.391 . S
C774 C775 1.400 . S
C775 C774 1.400 . S
C775 C776 1.398 . S
C775 C781 1.491 . S
C776 H767 0.950 . S
C776 C775 1.398 . S
C776 C777 1.391 . S
C777 H765 0.950 . S
C777 C773 1.393 . S
C777 C776 1.391 . S
C778 H768 0.950 . S
C778 C779 1.386 . S
C778 C780 1.391 . S
C779 C778 1.386 . S
C779 C783 1.393 . S
C780 H769 0.950 . S
C780 C778 1.391 . S
C780 C781 1.400 . S
C781 C775 1.491 . S
C781 C780 1.400 . S
C781 C782 1.398 . S
C782 H770 0.950 . S
C782 C781 1.398 . S
C782 C783 1.391 . S
C783 H771 0.950 . S
C783 C779 1.393 . S
C783 C782 1.391 . S
H784 C792 0.950 . S
H785 C797 0.950 . S
H786 C794 0.950 . S
H787 C796 0.950 . S
H788 C798 0.950 . S
H789 C800 0.950 . S
H790 C802 0.950 . S
H791 C803 0.950 . S
C792 H784 0.950 . S
C792 C793 1.386 . S
C792 C794 1.391 . S
C793 C792 1.386 . S
C793 C797 1.393 . S
C794 H786 0.950 . S
C794 C792 1.391 . S
C794 C795 1.400 . S
C795 C794 1.400 . S
C795 C796 1.398 . S
C795 C801 1.491 . S
C796 H787 0.950 . S
C796 C795 1.398 . S
C796 C797 1.391 . S
C797 H785 0.950 . S
C797 C793 1.393 . S
C797 C796 1.391 . S
C798 H788 0.950 . S
C798 C799 1.386 . S
C798 C800 1.391 . S
C799 C798 1.386 . S
C799 C803 1.393 . S
C800 H789 0.950 . S
C800 C798 1.391 . S
C800 C801 1.400 . S
C801 C795 1.491 . S
C801 C800 1.400 . S
C801 C802 1.398 . S
C802 H790 0.950 . S
C802 C801 1.398 . S
C802 C803 1.391 . S
C803 H791 0.950 . S
C803 C799 1.393 . S
C803 C802 1.391 . S
H804 C812 0.950 . S
H805 C817 0.950 . S
H806 C814 0.950 . S
H807 C816 0.950 . S
H808 C818 0.950 . S
H809 C820 0.950 . S
H810 C822 0.950 . S
H811 C823 0.950 . S
C812 H804 0.950 . S
C812 C813 1.386 . S
C812 C814 1.391 . S
C813 C812 1.386 . S
C813 C817 1.393 . S
C814 H806 0.950 . S
C814 C812 1.391 . S
C814 C815 1.400 . S
C815 C814 1.400 . S
C815 C816 1.398 . S
C815 C821 1.491 . S
C816 H807 0.950 . S
C816 C815 1.398 . S
C816 C817 1.391 . S
C817 H805 0.950 . S
C817 C813 1.393 . S
C817 C816 1.391 . S
C818 H808 0.950 . S
C818 C819 1.386 . S
C818 C820 1.391 . S
C819 C818 1.386 . S
C819 C823 1.393 . S
C820 H809 0.950 . S
C820 C818 1.391 . S
C820 C821 1.400 . S
C821 C815 1.491 . S
C821 C820 1.400 . S
C821 C822 1.398 . S
C822 H810 0.950 . S
C822 C821 1.398 . S
C822 C823 1.391 . S
C823 H811 0.950 . S
C823 C819 1.393 . S
C823 C822 1.391 . S
H824 C832 0.950 . S
H825 C837 0.950 . S
H826 C834 0.950 . S
H827 C836 0.950 . S
H828 C838 0.950 . S
H829 C840 0.950 . S
H830 C842 0.950 . S
H831 C843 0.950 . S
C832 H824 0.950 . S
C832 C833 1.386 . S
C832 C834 1.391 . S
C833 C832 1.386 . S
C833 C837 1.393 . S
C834 H826 0.950 . S
C834 C832 1.391 . S
C834 C835 1.400 . S
C835 C834 1.400 . S
C835 C836 1.398 . S
C835 C841 1.491 . S
C836 H827 0.950 . S
C836 C835 1.398 . S
C836 C837 1.391 . S
C837 H825 0.950 . S
C837 C833 1.393 . S
C837 C836 1.391 . S
C838 H828 0.950 . S
C838 C839 1.386 . S
C838 C840 1.391 . S
C839 C838 1.386 . S
C839 C843 1.393 . S
C840 H829 0.950 . S
C840 C838 1.391 . S
C840 C841 1.400 . S
C841 C835 1.491 . S
C841 C840 1.400 . S
C841 C842 1.398 . S
C842 H830 0.950 . S
C842 C841 1.398 . S
C842 C843 1.391 . S
C843 H831 0.950 . S
C843 C839 1.393 . S
C843 C842 1.391 . S
H844 C852 0.950 . S
H845 C857 0.950 . S
H846 C854 0.950 . S
H847 C856 0.950 . S
H848 C858 0.950 . S
H849 C860 0.950 . S
H850 C862 0.950 . S
H851 C863 0.950 . S
C852 H844 0.950 . S
C852 C853 1.386 . S
C852 C854 1.391 . S
C853 C852 1.386 . S
C853 C857 1.393 . S
C854 H846 0.950 . S
C854 C852 1.391 . S
C854 C855 1.400 . S
C855 C854 1.400 . S
C855 C856 1.398 . S
C855 C861 1.491 . S
C856 H847 0.950 . S
C856 C855 1.398 . S
C856 C857 1.391 . S
C857 H845 0.950 . S
C857 C853 1.393 . S
C857 C856 1.391 . S
C858 H848 0.950 . S
C858 C859 1.386 . S
C858 C860 1.391 . S
C859 C858 1.386 . S
C859 C863 1.393 . S
C860 H849 0.950 . S
C860 C858 1.391 . S
C860 C861 1.400 . S
C861 C855 1.491 . S
C861 C860 1.400 . S
C861 C862 1.398 . S
C862 H850 0.950 . S
C862 C861 1.398 . S
C862 C863 1.391 . S
C863 H851 0.950 . S
C863 C859 1.393 . S
C863 C862 1.391 . S
H864 C872 0.950 . S
H865 C877 0.950 . S
H866 C874 0.950 . S
H867 C876 0.950 . S
H868 C878 0.950 . S
H869 C880 0.950 . S
H870 C882 0.950 . S
H871 C883 0.950 . S
C872 H864 0.950 . S
C872 C873 1.386 . S
C872 C874 1.391 . S
C873 C872 1.386 . S
C873 C877 1.393 . S
C874 H866 0.950 . S
C874 C872 1.391 . S
C874 C875 1.400 . S
C875 C874 1.400 . S
C875 C876 1.398 . S
C875 C881 1.491 . S
C876 H867 0.950 . S
C876 C875 1.398 . S
C876 C877 1.391 . S
C877 H865 0.950 . S
C877 C873 1.393 . S
C877 C876 1.391 . S
C878 H868 0.950 . S
C878 C879 1.386 . S
C878 C880 1.391 . S
C879 C878 1.386 . S
C879 C883 1.393 . S
C880 H869 0.950 . S
C880 C878 1.391 . S
C880 C881 1.400 . S
C881 C875 1.491 . S
C881 C880 1.400 . S
C881 C882 1.398 . S
C882 H870 0.950 . S
C882 C881 1.398 . S
C882 C883 1.391 . S
C883 H871 0.950 . S
C883 C879 1.393 . S
C883 C882 1.391 . S
H884 C892 0.950 . S
H885 C897 0.950 . S
H886 C894 0.950 . S
H887 C896 0.950 . S
H888 C898 0.950 . S
H889 C900 0.950 . S
H890 C902 0.950 . S
H891 C903 0.950 . S
C892 H884 0.950 . S
C892 C893 1.386 . S
C892 C894 1.391 . S
C893 C892 1.386 . S
C893 C897 1.393 . S
C894 H886 0.950 . S
C894 C892 1.391 . S
C894 C895 1.400 . S
C895 C894 1.400 . S
C895 C896 1.398 . S
C895 C901 1.491 . S
C896 H887 0.950 . S
C896 C895 1.398 . S
C896 C897 1.391 . S
C897 H885 0.950 . S
C897 C893 1.393 . S
C897 C896 1.391 . S
C898 H888 0.950 . S
C898 C899 1.386 . S
C898 C900 1.391 . S
C899 C898 1.386 . S
C899 C903 1.393 . S
C900 H889 0.950 . S
C900 C898 1.391 . S
C900 C901 1.400 . S
C901 C895 1.491 . S
C901 C900 1.400 . S
C901 C902 1.398 . S
C902 H890 0.950 . S
C902 C901 1.398 . S
C902 C903 1.391 . S
C903 H891 0.950 . S
C903 C899 1.393 . S
C903 C902 1.391 . S
H904 C912 0.950 . S
H905 C917 0.950 . S
H906 C914 0.950 . S
H907 C916 0.950 . S
H908 C918 0.950 . S
H909 C920 0.950 . S
H910 C922 0.950 . S
H911 C923 0.950 . S
C912 H904 0.950 . S
C912 C913 1.386 . S
C912 C914 1.391 . S
C913 C912 1.386 . S
C913 C917 1.393 . S
C914 H906 0.950 . S
C914 C912 1.391 . S
C914 C915 1.400 . S
C915 C914 1.400 . S
C915 C916 1.398 . S
C915 C921 1.491 . S
C916 H907 0.950 . S
C916 C915 1.398 . S
C916 C917 1.391 . S
C917 H905 0.950 . S
C917 C913 1.393 . S
C917 C916 1.391 . S
C918 H908 0.950 . S
C918 C919 1.386 . S
C918 C920 1.391 . S
C919 C918 1.386 . S
C919 C923 1.393 . S
C920 H909 0.950 . S
C920 C918 1.391 . S
C920 C921 1.400 . S
C921 C915 1.491 . S
C921 C920 1.400 . S
C921 C922 1.398 . S
C922 H910 0.950 . S
C922 C921 1.398 . S
C922 C923 1.391 . S
C923 H911 0.950 . S
C923 C919 1.393 . S
C923 C922 1.391 . S
H924 C932 0.950 . S
H925 C937 0.950 . S
H926 C934 0.950 . S
H927 C936 0.950 . S
H928 C938 0.950 . S
H929 C940 0.950 . S
H930 C942 0.950 . S
H931 C943 0.950 . S
C932 H924 0.950 . S
C932 C933 1.386 . S
C932 C934 1.391 . S
C933 C932 1.386 . S
C933 C937 1.393 . S
C934 H926 0.950 . S
C934 C932 1.391 . S
C934 C935 1.400 . S
C935 C934 1.400 . S
C935 C936 1.398 . S
C935 C941 1.491 . S
C936 H927 0.950 . S
C936 C935 1.398 . S
C936 C937 1.391 . S
C937 H925 0.950 . S
C937 C933 1.393 . S
C937 C936 1.391 . S
C938 H928 0.950 . S
C938 C939 1.386 . S
C938 C940 1.391 . S
C939 C938 1.386 . S
C939 C943 1.393 . S
C940 H929 0.950 . S
C940 C938 1.391 . S
C940 C941 1.400 . S
C941 C935 1.491 . S
C941 C940 1.400 . S
C941 C942 1.398 . S
C942 H930 0.950 . S
C942 C941 1.398 . S
C942 C943 1.391 . S
C943 H931 0.950 . S
C943 C939 1.393 . S
C943 C942 1.391 . S
H944 C952 0.950 . S
H945 C957 0.950 . S
H946 C954 0.950 . S
H947 C956 0.950 . S
H948 C958 0.950 . S
H949 C960 0.950 . S
H950 C962 0.950 . S
H951 C963 0.950 . S
C952 H944 0.950 . S
C952 C953 1.386 . S
C952 C954 1.391 . S
C953 C952 1.386 . S
C953 C957 1.393 . S
C954 H946 0.950 . S
C954 C952 1.391 . S
C954 C955 1.400 . S
C955 C954 1.400 . S
C955 C956 1.398 . S
C955 C961 1.491 . S
C956 H947 0.950 . S
C956 C955 1.398 . S
C956 C957 1.391 . S
C957 H945 0.950 . S
C957 C953 1.393 . S
C957 C956 1.391 . S
C958 H948 0.950 . S
C958 C959 1.386 . S
C958 C960 1.391 . S
C959 C958 1.386 . S
C959 C963 1.393 . S
C960 H949 0.950 . S
C960 C958 1.391 . S
C960 C961 1.400 . S
C961 C955 1.491 . S
C961 C960 1.400 . S
C961 C962 1.398 . S
C962 H950 0.950 . S
C962 C961 1.398 . S
C962 C963 1.391 . S
C963 H951 0.950 . S
C963 C959 1.393 . S
C963 C962 1.391 . S
H964 C972 0.950 . S
H965 C977 0.950 . S
H966 C974 0.950 . S
H967 C976 0.950 . S
H968 C978 0.950 . S
H969 C980 0.950 . S
H970 C982 0.950 . S
H971 C983 0.950 . S
C972 H964 0.950 . S
C972 C973 1.386 . S
C972 C974 1.391 . S
C973 C972 1.386 . S
C973 C977 1.393 . S
C974 H966 0.950 . S
C974 C972 1.391 . S
C974 C975 1.400 . S
C975 C974 1.400 . S
C975 C976 1.398 . S
C975 C981 1.491 . S
C976 H967 0.950 . S
C976 C975 1.398 . S
C976 C977 1.391 . S
C977 H965 0.950 . S
C977 C973 1.393 . S
C977 C976 1.391 . S
C978 H968 0.950 . S
C978 C979 1.386 . S
C978 C980 1.391 . S
C979 C978 1.386 . S
C979 C983 1.393 . S
C980 H969 0.950 . S
C980 C978 1.391 . S
C980 C981 1.400 . S
C981 C975 1.491 . S
C981 C980 1.400 . S
C981 C982 1.398 . S
C982 H970 0.950 . S
C982 C981 1.398 . S
C982 C983 1.391 . S
C983 H971 0.950 . S
C983 C979 1.393 . S
C983 C982 1.391 . S
H984 C992 0.950 . S
H985 C997 0.950 . S
H986 C994 0.950 . S
H987 C996 0.950 . S
H988 C998 0.950 . S
H989 C1000 0.950 . S
H990 C1002 0.950 . S
H991 C1003 0.950 . S
C992 H984 0.950 . S
C992 C993 1.386 . S
C992 C994 1.391 . S
C993 C992 1.386 . S
C993 C997 1.393 . S
C994 H986 0.950 . S
C994 C992 1.391 . S
C994 C995 1.400 . S
C995 C994 1.400 . S
C995 C996 1.398 . S
C995 C1001 1.491 . S
C996 H987 0.950 . S
C996 C995 1.398 . S
C996 C997 1.391 . S
C997 H985 0.950 . S
C997 C993 1.393 . S
C997 C996 1.391 . S
C998 H988 0.950 . S
C998 C999 1.386 . S
C998 C1000 1.391 . S
C999 C998 1.386 . S
C999 C1003 1.393 . S
C1000 H989 0.950 . S
C1000 C998 1.391 . S
C1000 C1001 1.400 . S
C1001 C995 1.491 . S
C1001 C1000 1.400 . S
C1001 C1002 1.398 . S
C1002 H990 0.950 . S
C1002 C1001 1.398 . S
C1002 C1003 1.391 . S
C1003 H991 0.950 . S
C1003 C999 1.393 . S
C1003 C1002 1.391 . S
H1004 C1012 0.950 . S
H1005 C1017 0.950 . S
H1006 C1014 0.950 . S
H1007 C1016 0.950 . S
H1008 C1018 0.950 . S
H1009 C1020 0.950 . S
H1010 C1022 0.950 . S
H1011 C1023 0.950 . S
C1012 H1004 0.950 . S
C1012 C1013 1.386 . S
C1012 C1014 1.391 . S
C1013 C1012 1.386 . S
C1013 C1017 1.393 . S
C1014 H1006 0.950 . S
C1014 C1012 1.391 . S
C1014 C1015 1.400 . S
C1015 C1014 1.400 . S
C1015 C1016 1.398 . S
C1015 C1021 1.491 . S
C1016 H1007 0.950 . S
C1016 C1015 1.398 . S
C1016 C1017 1.391 . S
C1017 H1005 0.950 . S
C1017 C1013 1.393 . S
C1017 C1016 1.391 . S
C1018 H1008 0.950 . S
C1018 C1019 1.386 . S
C1018 C1020 1.391 . S
C1019 C1018 1.386 . S
C1019 C1023 1.393 . S
C1020 H1009 0.950 . S
C1020 C1018 1.391 . S
C1020 C1021 1.400 . S
C1021 C1015 1.491 . S
C1021 C1020 1.400 . S
C1021 C1022 1.398 . S
C1022 H1010 0.950 . S
C1022 C1021 1.398 . S
C1022 C1023 1.391 . S
C1023 H1011 0.950 . S
C1023 C1019 1.393 . S
C1023 C1022 1.391 . S
H1024 C1032 0.950 . S
H1025 C1037 0.950 . S
H1026 C1034 0.950 . S
H1027 C1036 0.950 . S
H1028 C1038 0.950 . S
H1029 C1040 0.950 . S
H1030 C1042 0.950 . S
H1031 C1043 0.950 . S
C1032 H1024 0.950 . S
C1032 C1033 1.386 . S
C1032 C1034 1.391 . S
C1033 C1032 1.386 . S
C1033 C1037 1.393 . S
C1034 H1026 0.950 . S
C1034 C1032 1.391 . S
C1034 C1035 1.400 . S
C1035 C1034 1.400 . S
C1035 C1036 1.398 . S
C1035 C1041 1.491 . S
C1036 H1027 0.950 . S
C1036 C1035 1.398 . S
C1036 C1037 1.391 . S
C1037 H1025 0.950 . S
C1037 C1033 1.393 . S
C1037 C1036 1.391 . S
C1038 H1028 0.950 . S
C1038 C1039 1.386 . S
C1038 C1040 1.391 . S
C1039 C1038 1.386 . S
C1039 C1043 1.393 . S
C1040 H1029 0.950 . S
C1040 C1038 1.391 . S
C1040 C1041 1.400 . S
C1041 C1035 1.491 . S
C1041 C1040 1.400 . S
C1041 C1042 1.398 . S
C1042 H1030 0.950 . S
C1042 C1041 1.398 . S
C1042 C1043 1.391 . S
C1043 H1031 0.950 . S
C1043 C1039 1.393 . S
C1043 C1042 1.391 . S
H1044 C1052 0.950 . S
H1045 C1057 0.950 . S
H1046 C1054 0.950 . S
H1047 C1056 0.950 . S
H1048 C1058 0.950 . S
H1049 C1060 0.950 . S
H1050 C1062 0.950 . S
H1051 C1063 0.950 . S
C1052 H1044 0.950 . S
C1052 C1053 1.386 . S
C1052 C1054 1.391 . S
C1053 C1052 1.386 . S
C1053 C1057 1.393 . S
C1054 H1046 0.950 . S
C1054 C1052 1.391 . S
C1054 C1055 1.400 . S
C1055 C1054 1.400 . S
C1055 C1056 1.398 . S
C1055 C1061 1.491 . S
C1056 H1047 0.950 . S
C1056 C1055 1.398 . S
C1056 C1057 1.391 . S
C1057 H1045 0.950 . S
C1057 C1053 1.393 . S
C1057 C1056 1.391 . S
C1058 H1048 0.950 . S
C1058 C1059 1.386 . S
C1058 C1060 1.391 . S
C1059 C1058 1.386 . S
C1059 C1063 1.393 . S
C1060 H1049 0.950 . S
C1060 C1058 1.391 . S
C1060 C1061 1.400 . S
C1061 C1055 1.491 . S
C1061 C1060 1.400 . S
C1061 C1062 1.398 . S
C1062 H1050 0.950 . S
C1062 C1061 1.398 . S
C1062 C1063 1.391 . S
C1063 H1051 0.950 . S
C1063 C1059 1.393 . S
C1063 C1062 1.391 . S
H1064 C1072 0.950 . S
H1065 C1077 0.950 . S
H1066 C1074 0.950 . S
H1067 C1076 0.950 . S
H1068 C1078 0.950 . S
H1069 C1080 0.950 . S
H1070 C1082 0.950 . S
H1071 C1083 0.950 . S
C1072 H1064 0.950 . S
C1072 C1073 1.386 . S
C1072 C1074 1.391 . S
C1073 C1072 1.386 . S
C1073 C1077 1.393 . S
C1074 H1066 0.950 . S
C1074 C1072 1.391 . S
C1074 C1075 1.400 . S
C1075 C1074 1.400 . S
C1075 C1076 1.398 . S
C1075 C1081 1.491 . S
C1076 H1067 0.950 . S
C1076 C1075 1.398 . S
C1076 C1077 1.391 . S
C1077 H1065 0.950 . S
C1077 C1073 1.393 . S
C1077 C1076 1.391 . S
C1078 H1068 0.950 . S
C1078 C1079 1.386 . S
C1078 C1080 1.391 . S
C1079 C1078 1.386 . S
C1079 C1083 1.393 . S
C1080 H1069 0.950 . S
C1080 C1078 1.391 . S
C1080 C1081 1.400 . S
C1081 C1075 1.491 . S
C1081 C1080 1.400 . S
C1081 C1082 1.398 . S
C1082 H1070 0.950 . S
C1082 C1081 1.398 . S
C1082 C1083 1.391 . S
C1083 H1071 0.950 . S
C1083 C1079 1.393 . S
C1083 C1082 1.391 . S
H1084 C1092 0.950 . S
H1085 C1097 0.950 . S
H1086 C1094 0.950 . S
H1087 C1096 0.950 . S
H1088 C1098 0.950 . S
H1089 C1100 0.950 . S
H1090 C1102 0.950 . S
H1091 C1103 0.950 . S
C1092 H1084 0.950 . S
C1092 C1093 1.386 . S
C1092 C1094 1.391 . S
C1093 C1092 1.386 . S
C1093 C1097 1.393 . S
C1094 H1086 0.950 . S
C1094 C1092 1.391 . S
C1094 C1095 1.400 . S
C1095 C1094 1.400 . S
C1095 C1096 1.398 . S
C1095 C1101 1.491 . S
C1096 H1087 0.950 . S
C1096 C1095 1.398 . S
C1096 C1097 1.391 . S
C1097 H1085 0.950 . S
C1097 C1093 1.393 . S
C1097 C1096 1.391 . S
C1098 H1088 0.950 . S
C1098 C1099 1.386 . S
C1098 C1100 1.391 . S
C1099 C1098 1.386 . S
C1099 C1103 1.393 . S
C1100 H1089 0.950 . S
C1100 C1098 1.391 . S
C1100 C1101 1.400 . S
C1101 C1095 1.491 . S
C1101 C1100 1.400 . S
C1101 C1102 1.398 . S
C1102 H1090 0.950 . S
C1102 C1101 1.398 . S
C1102 C1103 1.391 . S
C1103 H1091 0.950 . S
C1103 C1099 1.393 . S
C1103 C1102 1.391 . S
H1104 C1112 0.950 . S
H1105 C1117 0.950 . S
H1106 C1114 0.950 . S
H1107 C1116 0.950 . S
H1108 C1118 0.950 . S
H1109 C1120 0.950 . S
H1110 C1122 0.950 . S
H1111 C1123 0.950 . S
C1112 H1104 0.950 . S
C1112 C1113 1.386 . S
C1112 C1114 1.391 . S
C1113 C1112 1.386 . S
C1113 C1117 1.393 . S
C1114 H1106 0.950 . S
C1114 C1112 1.391 . S
C1114 C1115 1.400 . S
C1115 C1114 1.400 . S
C1115 C1116 1.398 . S
C1115 C1121 1.491 . S
C1116 H1107 0.950 . S
C1116 C1115 1.398 . S
C1116 C1117 1.391 . S
C1117 H1105 0.950 . S
C1117 C1113 1.393 . S
C1117 C1116 1.391 . S
C1118 H1108 0.950 . S
C1118 C1119 1.386 . S
C1118 C1120 1.391 . S
C1119 C1118 1.386 . S
C1119 C1123 1.393 . S
C1120 H1109 0.950 . S
C1120 C1118 1.391 . S
C1120 C1121 1.400 . S
C1121 C1115 1.491 . S
C1121 C1120 1.400 . S
C1121 C1122 1.398 . S
C1122 H1110 0.950 . S
C1122 C1121 1.398 . S
C1122 C1123 1.391 . S
C1123 H1111 0.950 . S
C1123 C1119 1.393 . S
C1123 C1122 1.391 . S
H1124 C1132 0.950 . S
H1125 C1137 0.950 . S
H1126 C1134 0.950 . S
H1127 C1136 0.950 . S
H1128 C1138 0.950 . S
H1129 C1140 0.950 . S
H1130 C1142 0.950 . S
H1131 C1143 0.950 . S
C1132 H1124 0.950 . S
C1132 C1133 1.386 . S
C1132 C1134 1.391 . S
C1133 C1132 1.386 . S
C1133 C1137 1.393 . S
C1134 H1126 0.950 . S
C1134 C1132 1.391 . S
C1134 C1135 1.400 . S
C1135 C1134 1.400 . S
C1135 C1136 1.398 . S
C1135 C1141 1.491 . S
C1136 H1127 0.950 . S
C1136 C1135 1.398 . S
C1136 C1137 1.391 . S
C1137 H1125 0.950 . S
C1137 C1133 1.393 . S
C1137 C1136 1.391 . S
C1138 H1128 0.950 . S
C1138 C1139 1.386 . S
C1138 C1140 1.391 . S
C1139 C1138 1.386 . S
C1139 C1143 1.393 . S
C1140 H1129 0.950 . S
C1140 C1138 1.391 . S
C1140 C1141 1.400 . S
C1141 C1135 1.491 . S
C1141 C1140 1.400 . S
C1141 C1142 1.398 . S
C1142 H1130 0.950 . S
C1142 C1141 1.398 . S
C1142 C1143 1.391 . S
C1143 H1131 0.950 . S
C1143 C1139 1.393 . S
C1143 C1142 1.391 . S
H1144 C1152 0.950 . S
H1145 C1157 0.950 . S
H1146 C1154 0.950 . S
H1147 C1156 0.950 . S
H1148 C1158 0.950 . S
H1149 C1160 0.950 . S
H1150 C1162 0.950 . S
H1151 C1163 0.950 . S
C1152 H1144 0.950 . S
C1152 C1153 1.386 . S
C1152 C1154 1.391 . S
C1153 C1152 1.386 . S
C1153 C1157 1.393 . S
C1154 H1146 0.950 . S
C1154 C1152 1.391 . S
C1154 C1155 1.400 . S
C1155 C1154 1.400 . S
C1155 C1156 1.398 . S
C1155 C1161 1.491 . S
C1156 H1147 0.950 . S
C1156 C1155 1.398 . S
C1156 C1157 1.391 . S
C1157 H1145 0.950 . S
C1157 C1153 1.393 . S
C1157 C1156 1.391 . S
C1158 H1148 0.950 . S
C1158 C1159 1.386 . S
C1158 C1160 1.391 . S
C1159 C1158 1.386 . S
C1159 C1163 1.393 . S
C1160 H1149 0.950 . S
C1160 C1158 1.391 . S
C1160 C1161 1.400 . S
C1161 C1155 1.491 . S
C1161 C1160 1.400 . S
C1161 C1162 1.398 . S
C1162 H1150 0.950 . S
C1162 C1161 1.398 . S
C1162 C1163 1.391 . S
C1163 H1151 0.950 . S
C1163 C1159 1.393 . S
C1163 C1162 1.391 . S
H1164 C1172 0.950 . S
H1165 C1177 0.950 . S
H1166 C1174 0.950 . S
H1167 C1176 0.950 . S
H1168 C1178 0.950 . S
H1169 C1180 0.950 . S
H1170 C1182 0.950 . S
H1171 C1183 0.950 . S
C1172 H1164 0.950 . S
C1172 C1173 1.386 . S
C1172 C1174 1.391 . S
C1173 C1172 1.386 . S
C1173 C1177 1.393 . S
C1174 H1166 0.950 . S
C1174 C1172 1.391 . S
C1174 C1175 1.400 . S
C1175 C1174 1.400 . S
C1175 C1176 1.398 . S
C1175 C1181 1.491 . S
C1176 H1167 0.950 . S
C1176 C1175 1.398 . S
C1176 C1177 1.391 . S
C1177 H1165 0.950 . S
C1177 C1173 1.393 . S
C1177 C1176 1.391 . S
C1178 H1168 0.950 . S
C1178 C1179 1.386 . S
C1178 C1180 1.391 . S
C1179 C1178 1.386 . S
C1179 C1183 1.393 . S
C1180 H1169 0.950 . S
C1180 C1178 1.391 . S
C1180 C1181 1.400 . S
C1181 C1175 1.491 . S
C1181 C1180 1.400 . S
C1181 C1182 1.398 . S
C1182 H1170 0.950 . S
C1182 C1181 1.398 . S
C1182 C1183 1.391 . S
C1183 H1171 0.950 . S
C1183 C1179 1.393 . S
C1183 C1182 1.391 . S
H1184 C1192 0.950 . S
H1185 C1197 0.950 . S
H1186 C1194 0.950 . S
H1187 C1196 0.950 . S
H1188 C1198 0.950 . S
H1189 C1200 0.950 . S
H1190 C1202 0.950 . S
H1191 C1203 0.950 . S
C1192 H1184 0.950 . S
C1192 C1193 1.386 . S
C1192 C1194 1.391 . S
C1193 C1192 1.386 . S
C1193 C1197 1.393 . S
C1194 H1186 0.950 . S
C1194 C1192 1.391 . S
C1194 C1195 1.400 . S
C1195 C1194 1.400 . S
C1195 C1196 1.398 . S
C1195 C1201 1.491 . S
C1196 H1187 0.950 . S
C1196 C1195 1.398 . S
C1196 C1197 1.391 . S
C1197 H1185 0.950 . S
C1197 C1193 1.393 . S
C1197 C1196 1.391 . S
C1198 H1188 0.950 . S
C1198 C1199 1.386 . S
C1198 C1200 1.391 . S
C1199 C1198 1.386 . S
C1199 C1203 1.393 . S
C1200 H1189 0.950 . S
C1200 C1198 1.391 . S
C1200 C1201 1.400 . S
C1201 C1195 1.491 . S
C1201 C1200 1.400 . S
C1201 C1202 1.398 . S
C1202 H1190 0.950 . S
C1202 C1201 1.398 . S
C1202 C1203 1.391 . S
C1203 H1191 0.950 . S
C1203 C1199 1.393 . S
C1203 C1202 1.391 . S
H1204 C1212 0.950 . S
H1205 C1217 0.950 . S
H1206 C1214 0.950 . S
H1207 C1216 0.950 . S
H1208 C1218 0.950 . S
H1209 C1220 0.950 . S
H1210 C1222 0.950 . S
H1211 C1223 0.950 . S
C1212 H1204 0.950 . S
C1212 C1213 1.386 . S
C1212 C1214 1.391 . S
C1213 C1212 1.386 . S
C1213 C1217 1.393 . S
C1214 H1206 0.950 . S
C1214 C1212 1.391 . S
C1214 C1215 1.400 . S
C1215 C1214 1.400 . S
C1215 C1216 1.398 . S
C1215 C1221 1.491 . S
C1216 H1207 0.950 . S
C1216 C1215 1.398 . S
C1216 C1217 1.391 . S
C1217 H1205 0.950 . S
C1217 C1213 1.393 . S
C1217 C1216 1.391 . S
C1218 H1208 0.950 . S
C1218 C1219 1.386 . S
C1218 C1220 1.391 . S
C1219 C1218 1.386 . S
C1219 C1223 1.393 . S
C1220 H1209 0.950 . S
C1220 C1218 1.391 . S
C1220 C1221 1.400 . S
C1221 C1215 1.491 . S
C1221 C1220 1.400 . S
C1221 C1222 1.398 . S
C1222 H1210 0.950 . S
C1222 C1221 1.398 . S
C1222 C1223 1.391 . S
C1223 H1211 0.950 . S
C1223 C1219 1.393 . S
C1223 C1222 1.391 . S
H1224 C1232 0.950 . S
H1225 C1237 0.950 . S
H1226 C1234 0.950 . S
H1227 C1236 0.950 . S
H1228 C1238 0.950 . S
H1229 C1240 0.950 . S
H1230 C1242 0.950 . S
H1231 C1243 0.950 . S
C1232 H1224 0.950 . S
C1232 C1233 1.386 . S
C1232 C1234 1.391 . S
C1233 C1232 1.386 . S
C1233 C1237 1.393 . S
C1234 H1226 0.950 . S
C1234 C1232 1.391 . S
C1234 C1235 1.400 . S
C1235 C1234 1.400 . S
C1235 C1236 1.398 . S
C1235 C1241 1.491 . S
C1236 H1227 0.950 . S
C1236 C1235 1.398 . S
C1236 C1237 1.391 . S
C1237 H1225 0.950 . S
C1237 C1233 1.393 . S
C1237 C1236 1.391 . S
C1238 H1228 0.950 . S
C1238 C1239 1.386 . S
C1238 C1240 1.391 . S
C1239 C1238 1.386 . S
C1239 C1243 1.393 . S
C1240 H1229 0.950 . S
C1240 C1238 1.391 . S
C1240 C1241 1.400 . S
C1241 C1235 1.491 . S
C1241 C1240 1.400 . S
C1241 C1242 1.398 . S
C1242 H1230 0.950 . S
C1242 C1241 1.398 . S
C1242 C1243 1.391 . S
C1243 H1231 0.950 . S
C1243 C1239 1.393 . S
C1243 C1242 1.391 . S
H1244 C1252 0.950 . S
H1245 C1257 0.950 . S
H1246 C1254 0.950 . S
H1247 C1256 0.950 . S
H1248 C1258 0.950 . S
H1249 C1260 0.950 . S
H1250 C1262 0.950 . S
H1251 C1263 0.950 . S
C1252 H1244 0.950 . S
C1252 C1253 1.386 . S
C1252 C1254 1.391 . S
C1253 C1252 1.386 . S
C1253 C1257 1.393 . S
C1254 H1246 0.950 . S
C1254 C1252 1.391 . S
C1254 C1255 1.400 . S
C1255 C1254 1.400 . S
C1255 C1256 1.398 . S
C1255 C1261 1.491 . S
C1256 H1247 0.950 . S
C1256 C1255 1.398 . S
C1256 C1257 1.391 . S
C1257 H1245 0.950 . S
C1257 C1253 1.393 . S
C1257 C1256 1.391 . S
C1258 H1248 0.950 . S
C1258 C1259 1.386 . S
C1258 C1260 1.391 . S
C1259 C1258 1.386 . S
C1259 C1263 1.393 . S
C1260 H1249 0.950 . S
C1260 C1258 1.391 . S
C1260 C1261 1.400 . S
C1261 C1255 1.491 . S
C1261 C1260 1.400 . S
C1261 C1262 1.398 . S
C1262 H1250 0.950 . S
C1262 C1261 1.398 . S
C1262 C1263 1.391 . S
C1263 H1251 0.950 . S
C1263 C1259 1.393 . S
C1263 C1262 1.391 . S
H1264 C1272 0.950 . S
H1265 C1277 0.950 . S
H1266 C1274 0.950 . S
H1267 C1276 0.950 . S
H1268 C1278 0.950 . S
H1269 C1280 0.950 . S
H1270 C1282 0.950 . S
H1271 C1283 0.950 . S
C1272 H1264 0.950 . S
C1272 C1273 1.386 . S
C1272 C1274 1.391 . S
C1273 C1272 1.386 . S
C1273 C1277 1.393 . S
C1274 H1266 0.950 . S
C1274 C1272 1.391 . S
C1274 C1275 1.400 . S
C1275 C1274 1.400 . S
C1275 C1276 1.398 . S
C1275 C1281 1.491 . S
C1276 H1267 0.950 . S
C1276 C1275 1.398 . S
C1276 C1277 1.391 . S
C1277 H1265 0.950 . S
C1277 C1273 1.393 . S
C1277 C1276 1.391 . S
C1278 H1268 0.950 . S
C1278 C1279 1.386 . S
C1278 C1280 1.391 . S
C1279 C1278 1.386 . S
C1279 C1283 1.393 . S
C1280 H1269 0.950 . S
C1280 C1278 1.391 . S
C1280 C1281 1.400 . S
C1281 C1275 1.491 . S
C1281 C1280 1.400 . S
C1281 C1282 1.398 . S
C1282 H1270 0.950 . S
C1282 C1281 1.398 . S
C1282 C1283 1.391 . S
C1283 H1271 0.950 . S
C1283 C1279 1.393 . S
C1283 C1282 1.391 . S
H1284 C1292 0.950 . S
H1285 C1297 0.950 . S
H1286 C1294 0.950 . S
H1287 C1296 0.950 . S
H1288 C1298 0.950 . S
H1289 C1300 0.950 . S
H1290 C1302 0.950 . S
H1291 C1303 0.950 . S
C1292 H1284 0.950 . S
C1292 C1293 1.386 . S
C1292 C1294 1.391 . S
C1293 C1292 1.386 . S
C1293 C1297 1.393 . S
C1294 H1286 0.950 . S
C1294 C1292 1.391 . S
C1294 C1295 1.400 . S
C1295 C1294 1.400 . S
C1295 C1296 1.398 . S
C1295 C1301 1.491 . S
C1296 H1287 0.950 . S
C1296 C1295 1.398 . S
C1296 C1297 1.391 . S
C1297 H1285 0.950 . S
C1297 C1293 1.393 . S
C1297 C1296 1.391 . S
C1298 H1288 0.950 . S
C1298 C1299 1.386 . S
C1298 C1300 1.391 . S
C1299 C1298 1.386 . S
C1299 C1303 1.393 . S
C1300 H1289 0.950 . S
C1300 C1298 1.391 . S
C1300 C1301 1.400 . S
C1301 C1295 1.491 . S
C1301 C1300 1.400 . S
C1301 C1302 1.398 . S
C1302 H1290 0.950 . S
C1302 C1301 1.398 . S
C1302 C1303 1.391 . S
C1303 H1291 0.950 . S
C1303 C1299 1.393 . S
C1303 C1302 1.391 . S
H1304 C1312 0.950 . S
H1305 C1317 0.950 . S
H1306 C1314 0.950 . S
H1307 C1316 0.950 . S
H1308 C1318 0.950 . S
H1309 C1320 0.950 . S
H1310 C1322 0.950 . S
H1311 C1323 0.950 . S
C1312 H1304 0.950 . S
C1312 C1313 1.386 . S
C1312 C1314 1.391 . S
C1313 C1312 1.386 . S
C1313 C1317 1.393 . S
C1314 H1306 0.950 . S
C1314 C1312 1.391 . S
C1314 C1315 1.400 . S
C1315 C1314 1.400 . S
C1315 C1316 1.398 . S
C1315 C1321 1.491 . S
C1316 H1307 0.950 . S
C1316 C1315 1.398 . S
C1316 C1317 1.391 . S
C1317 H1305 0.950 . S
C1317 C1313 1.393 . S
C1317 C1316 1.391 . S
C1318 H1308 0.950 . S
C1318 C1319 1.386 . S
C1318 C1320 1.391 . S
C1319 C1318 1.386 . S
C1319 C1323 1.393 . S
C1320 H1309 0.950 . S
C1320 C1318 1.391 . S
C1320 C1321 1.400 . S
C1321 C1315 1.491 . S
C1321 C1320 1.400 . S
C1321 C1322 1.398 . S
C1322 H1310 0.950 . S
C1322 C1321 1.398 . S
C1322 C1323 1.391 . S
C1323 H1311 0.950 . S
C1323 C1319 1.393 . S
C1323 C1322 1.391 . S
H1324 C1332 0.950 . S
H1325 C1337 0.950 . S
H1326 C1334 0.950 . S
H1327 C1336 0.950 . S
H1328 C1338 0.950 . S
H1329 C1340 0.950 . S
H1330 C1342 0.950 . S
H1331 C1343 0.950 . S
C1332 H1324 0.950 . S
C1332 C1333 1.386 . S
C1332 C1334 1.391 . S
C1333 C1332 1.386 . S
C1333 C1337 1.393 . S
C1334 H1326 0.950 . S
C1334 C1332 1.391 . S
C1334 C1335 1.400 . S
C1335 C1334 1.400 . S
C1335 C1336 1.398 . S
C1335 C1341 1.491 . S
C1336 H1327 0.950 . S
C1336 C1335 1.398 . S
C1336 C1337 1.391 . S
C1337 H1325 0.950 . S
C1337 C1333 1.393 . S
C1337 C1336 1.391 . S
C1338 H1328 0.950 . S
C1338 C1339 1.386 . S
C1338 C1340 1.391 . S
C1339 C1338 1.386 . S
C1339 C1343 1.393 . S
C1340 H1329 0.950 . S
C1340 C1338 1.391 . S
C1340 C1341 1.400 . S
C1341 C1335 1.491 . S
C1341 C1340 1.400 . S
C1341 C1342 1.398 . S
C1342 H1330 0.950 . S
C1342 C1341 1.398 . S
C1342 C1343 1.391 . S
C1343 H1331 0.950 . S
C1343 C1339 1.393 . S
C1343 C1342 1.391 . S
H1344 C1352 0.950 . S
H1345 C1357 0.950 . S
H1346 C1354 0.950 . S
H1347 C1356 0.950 . S
H1348 C1358 0.950 . S
H1349 C1360 0.950 . S
H1350 C1362 0.950 . S
H1351 C1363 0.950 . S
C1352 H1344 0.950 . S
C1352 C1353 1.386 . S
C1352 C1354 1.391 . S
C1353 C1352 1.386 . S
C1353 C1357 1.393 . S
C1354 H1346 0.950 . S
C1354 C1352 1.391 . S
C1354 C1355 1.400 . S
C1355 C1354 1.400 . S
C1355 C1356 1.398 . S
C1355 C1361 1.491 . S
C1356 H1347 0.950 . S
C1356 C1355 1.398 . S
C1356 C1357 1.391 . S
C1357 H1345 0.950 . S
C1357 C1353 1.393 . S
C1357 C1356 1.391 . S
C1358 H1348 0.950 . S
C1358 C1359 1.386 . S
C1358 C1360 1.391 . S
C1359 C1358 1.386 . S
C1359 C1363 1.393 . S
C1360 H1349 0.950 . S
C1360 C1358 1.391 . S
C1360 C1361 1.400 . S
C1361 C1355 1.491 . S
C1361 C1360 1.400 . S
C1361 C1362 1.398 . S
C1362 H1350 0.950 . S
C1362 C1361 1.398 . S
C1362 C1363 1.391 . S
C1363 H1351 0.950 . S
C1363 C1359 1.393 . S
C1363 C1362 1.391 . S
H1364 C1372 0.950 . S
H1365 C1377 0.950 . S
H1366 C1374 0.950 . S
H1367 C1376 0.950 . S
H1368 C1378 0.950 . S
H1369 C1380 0.950 . S
H1370 C1382 0.950 . S
H1371 C1383 0.950 . S
C1372 H1364 0.950 . S
C1372 C1373 1.386 . S
C1372 C1374 1.391 . S
C1373 C1372 1.386 . S
C1373 C1377 1.393 . S
C1374 H1366 0.950 . S
C1374 C1372 1.391 . S
C1374 C1375 1.400 . S
C1375 C1374 1.400 . S
C1375 C1376 1.398 . S
C1375 C1381 1.491 . S
C1376 H1367 0.950 . S
C1376 C1375 1.398 . S
C1376 C1377 1.391 . S
C1377 H1365 0.950 . S
C1377 C1373 1.393 . S
C1377 C1376 1.391 . S
C1378 H1368 0.950 . S
C1378 C1379 1.386 . S
C1378 C1380 1.391 . S
C1379 C1378 1.386 . S
C1379 C1383 1.393 . S
C1380 H1369 0.950 . S
C1380 C1378 1.391 . S
C1380 C1381 1.400 . S
C1381 C1375 1.491 . S
C1381 C1380 1.400 . S
C1381 C1382 1.398 . S
C1382 H1370 0.950 . S
C1382 C1381 1.398 . S
C1382 C1383 1.391 . S
C1383 H1371 0.950 . S
C1383 C1379 1.393 . S
C1383 C1382 1.391 . S
H1384 C1392 0.950 . S
H1385 C1397 0.950 . S
H1386 C1394 0.950 . S
H1387 C1396 0.950 . S
H1388 C1398 0.950 . S
H1389 C1400 0.950 . S
H1390 C1402 0.950 . S
H1391 C1403 0.950 . S
C1392 H1384 0.950 . S
C1392 C1393 1.386 . S
C1392 C1394 1.391 . S
C1393 C1392 1.386 . S
C1393 C1397 1.393 . S
C1394 H1386 0.950 . S
C1394 C1392 1.391 . S
C1394 C1395 1.400 . S
C1395 C1394 1.400 . S
C1395 C1396 1.398 . S
C1395 C1401 1.491 . S
C1396 H1387 0.950 . S
C1396 C1395 1.398 . S
C1396 C1397 1.391 . S
C1397 H1385 0.950 . S
C1397 C1393 1.393 . S
C1397 C1396 1.391 . S
C1398 H1388 0.950 . S
C1398 C1399 1.386 . S
C1398 C1400 1.391 . S
C1399 C1398 1.386 . S
C1399 C1403 1.393 . S
C1400 H1389 0.950 . S
C1400 C1398 1.391 . S
C1400 C1401 1.400 . S
C1401 C1395 1.491 . S
C1401 C1400 1.400 . S
C1401 C1402 1.398 . S
C1402 H1390 0.950 . S
C1402 C1401 1.398 . S
C1402 C1403 1.391 . S
C1403 H1391 0.950 . S
C1403 C1399 1.393 . S
C1403 C1402 1.391 . S
H1404 C1412 0.950 . S
H1405 C1417 0.950 . S
H1406 C1414 0.950 . S
H1407 C1416 0.950 . S
H1408 C1418 0.950 . S
H1409 C1420 0.950 . S
H1410 C1422 0.950 . S
H1411 C1423 0.950 . S
C1412 H1404 0.950 . S
C1412 C1413 1.386 . S
C1412 C1414 1.391 . S
C1413 C1412 1.386 . S
C1413 C1417 1.393 . S
C1414 H1406 0.950 . S
C1414 C1412 1.391 . S
C1414 C1415 1.400 . S
C1415 C1414 1.400 . S
C1415 C1416 1.398 . S
C1415 C1421 1.491 . S
C1416 H1407 0.950 . S
C1416 C1415 1.398 . S
C1416 C1417 1.391 . S
C1417 H1405 0.950 . S
C1417 C1413 1.393 . S
C1417 C1416 1.391 . S
C1418 H1408 0.950 . S
C1418 C1419 1.386 . S
C1418 C1420 1.391 . S
C1419 C1418 1.386 . S
C1419 C1423 1.393 . S
C1420 H1409 0.950 . S
C1420 C1418 1.391 . S
C1420 C1421 1.400 . S
C1421 C1415 1.491 . S
C1421 C1420 1.400 . S
C1421 C1422 1.398 . S
C1422 H1410 0.950 . S
C1422 C1421 1.398 . S
C1422 C1423 1.391 . S
C1423 H1411 0.950 . S
C1423 C1419 1.393 . S
C1423 C1422 1.391 . S
H1424 C1432 0.950 . S
H1425 C1437 0.950 . S
H1426 C1434 0.950 . S
H1427 C1436 0.950 . S
H1428 C1438 0.950 . S
H1429 C1440 0.950 . S
H1430 C1442 0.950 . S
H1431 C1443 0.950 . S
C1432 H1424 0.950 . S
C1432 C1433 1.386 . S
C1432 C1434 1.391 . S
C1433 C1432 1.386 . S
C1433 C1437 1.393 . S
C1434 H1426 0.950 . S
C1434 C1432 1.391 . S
C1434 C1435 1.400 . S
C1435 C1434 1.400 . S
C1435 C1436 1.398 . S
C1435 C1441 1.491 . S
C1436 H1427 0.950 . S
C1436 C1435 1.398 . S
C1436 C1437 1.391 . S
C1437 H1425 0.950 . S
C1437 C1433 1.393 . S
C1437 C1436 1.391 . S
C1438 H1428 0.950 . S
C1438 C1439 1.386 . S
C1438 C1440 1.391 . S
C1439 C1438 1.386 . S
C1439 C1443 1.393 . S
C1440 H1429 0.950 . S
C1440 C1438 1.391 . S
C1440 C1441 1.400 . S
C1441 C1435 1.491 . S
C1441 C1440 1.400 . S
C1441 C1442 1.398 . S
C1442 H1430 0.950 . S
C1442 C1441 1.398 . S
C1442 C1443 1.391 . S
C1443 H1431 0.950 . S
C1443 C1439 1.393 . S
C1443 C1442 1.391 . S
H1444 C1452 0.950 . S
H1445 C1457 0.950 . S
H1446 C1454 0.950 . S
H1447 C1456 0.950 . S
H1448 C1458 0.950 . S
H1449 C1460 0.950 . S
H1450 C1462 0.950 . S
H1451 C1463 0.950 . S
C1452 H1444 0.950 . S
C1452 C1453 1.386 . S
C1452 C1454 1.391 . S
C1453 C1452 1.386 . S
C1453 C1457 1.393 . S
C1454 H1446 0.950 . S
C1454 C1452 1.391 . S
C1454 C1455 1.400 . S
C1455 C1454 1.400 . S
C1455 C1456 1.398 . S
C1455 C1461 1.491 . S
C1456 H1447 0.950 . S
C1456 C1455 1.398 . S
C1456 C1457 1.391 . S
C1457 H1445 0.950 . S
C1457 C1453 1.393 . S
C1457 C1456 1.391 . S
C1458 H1448 0.950 . S
C1458 C1459 1.386 . S
C1458 C1460 1.391 . S
C1459 C1458 1.386 . S
C1459 C1463 1.393 . S
C1460 H1449 0.950 . S
C1460 C1458 1.391 . S
C1460 C1461 1.400 . S
C1461 C1455 1.491 . S
C1461 C1460 1.400 . S
C1461 C1462 1.398 . S
C1462 H1450 0.950 . S
C1462 C1461 1.398 . S
C1462 C1463 1.391 . S
C1463 H1451 0.950 . S
C1463 C1459 1.393 . S
C1463 C1462 1.391 . S
H1464 C1472 0.950 . S
H1465 C1477 0.950 . S
H1466 C1474 0.950 . S
H1467 C1476 0.950 . S
H1468 C1478 0.950 . S
H1469 C1480 0.950 . S
H1470 C1482 0.950 . S
H1471 C1483 0.950 . S
C1472 H1464 0.950 . S
C1472 C1473 1.386 . S
C1472 C1474 1.391 . S
C1473 C1472 1.386 . S
C1473 C1477 1.393 . S
C1474 H1466 0.950 . S
C1474 C1472 1.391 . S
C1474 C1475 1.400 . S
C1475 C1474 1.400 . S
C1475 C1476 1.398 . S
C1475 C1481 1.491 . S
C1476 H1467 0.950 . S
C1476 C1475 1.398 . S
C1476 C1477 1.391 . S
C1477 H1465 0.950 . S
C1477 C1473 1.393 . S
C1477 C1476 1.391 . S
C1478 H1468 0.950 . S
C1478 C1479 1.386 . S
C1478 C1480 1.391 . S
C1479 C1478 1.386 . S
C1479 C1483 1.393 . S
C1480 H1469 0.950 . S
C1480 C1478 1.391 . S
C1480 C1481 1.400 . S
C1481 C1475 1.491 . S
C1481 C1480 1.400 . S
C1481 C1482 1.398 . S
C1482 H1470 0.950 . S
C1482 C1481 1.398 . S
C1482 C1483 1.391 . S
C1483 H1471 0.950 . S
C1483 C1479 1.393 . S
C1483 C1482 1.391 . S
H1484 C1492 0.950 . S
H1485 C1497 0.950 . S
H1486 C1494 0.950 . S
H1487 C1496 0.950 . S
H1488 C1498 0.950 . S
H1489 C1500 0.950 . S
H1490 C1502 0.950 . S
H1491 C1503 0.950 . S
C1492 H1484 0.950 . S
C1492 C1493 1.386 . S
C1492 C1494 1.391 . S
C1493 C1492 1.386 . S
C1493 C1497 1.393 . S
C1494 H1486 0.950 . S
C1494 C1492 1.391 . S
C1494 C1495 1.400 . S
C1495 C1494 1.400 . S
C1495 C1496 1.398 . S
C1495 C1501 1.491 . S
C1496 H1487 0.950 . S
C1496 C1495 1.398 . S
C1496 C1497 1.391 . S
C1497 H1485 0.950 . S
C1497 C1493 1.393 . S
C1497 C1496 1.391 . S
C1498 H1488 0.950 . S
C1498 C1499 1.386 . S
C1498 C1500 1.391 . S
C1499 C1498 1.386 . S
C1499 C1503 1.393 . S
C1500 H1489 0.950 . S
C1500 C1498 1.391 . S
C1500 C1501 1.400 . S
C1501 C1495 1.491 . S
C1501 C1500 1.400 . S
C1501 C1502 1.398 . S
C1502 H1490 0.950 . S
C1502 C1501 1.398 . S
C1502 C1503 1.391 . S
C1503 H1491 0.950 . S
C1503 C1499 1.393 . S
C1503 C1502 1.391 . S
H1504 C1512 0.950 . S
H1505 C1517 0.950 . S
H1506 C1514 0.950 . S
H1507 C1516 0.950 . S
H1508 C1518 0.950 . S
H1509 C1520 0.950 . S
H1510 C1522 0.950 . S
H1511 C1523 0.950 . S
C1512 H1504 0.950 . S
C1512 C1513 1.386 . S
C1512 C1514 1.391 . S
C1513 C1512 1.386 . S
C1513 C1517 1.393 . S
C1514 H1506 0.950 . S
C1514 C1512 1.391 . S
C1514 C1515 1.400 . S
C1515 C1514 1.400 . S
C1515 C1516 1.398 . S
C1515 C1521 1.491 . S
C1516 H1507 0.950 . S
C1516 C1515 1.398 . S
C1516 C1517 1.391 . S
C1517 H1505 0.950 . S
C1517 C1513 1.393 . S
C1517 C1516 1.391 . S
C1518 H1508 0.950 . S
C1518 C1519 1.386 . S
C1518 C1520 1.391 . S
C1519 C1518 1.386 . S
C1519 C1523 1.393 . S
C1520 H1509 0.950 . S
C1520 C1518 1.391 . S
C1520 C1521 1.400 . S
C1521 C1515 1.491 . S
C1521 C1520 1.400 . S
C1521 C1522 1.398 . S
C1522 H1510 0.950 . S
C1522 C1521 1.398 . S
C1522 C1523 1.391 . S
C1523 H1511 0.950 . S
C1523 C1519 1.393 . S
C1523 C1522 1.391 . S
H1524 C1532 0.950 . S
H1525 C1537 0.950 . S
H1526 C1534 0.950 . S
H1527 C1536 0.950 . S
H1528 C1538 0.950 . S
H1529 C1540 0.950 . S
H1530 C1542 0.950 . S
H1531 C1543 0.950 . S
C1532 H1524 0.950 . S
C1532 C1533 1.386 . S
C1532 C1534 1.391 . S
C1533 C1532 1.386 . S
C1533 C1537 1.393 . S
C1534 H1526 0.950 . S
C1534 C1532 1.391 . S
C1534 C1535 1.400 . S
C1535 C1534 1.400 . S
C1535 C1536 1.398 . S
C1535 C1541 1.491 . S
C1536 H1527 0.950 . S
C1536 C1535 1.398 . S
C1536 C1537 1.391 . S
C1537 H1525 0.950 . S
C1537 C1533 1.393 . S
C1537 C1536 1.391 . S
C1538 H1528 0.950 . S
C1538 C1539 1.386 . S
C1538 C1540 1.391 . S
C1539 C1538 1.386 . S
C1539 C1543 1.393 . S
C1540 H1529 0.950 . S
C1540 C1538 1.391 . S
C1540 C1541 1.400 . S
C1541 C1535 1.491 . S
C1541 C1540 1.400 . S
C1541 C1542 1.398 . S
C1542 H1530 0.950 . S
C1542 C1541 1.398 . S
C1542 C1543 1.391 . S
C1543 H1531 0.950 . S
C1543 C1539 1.393 . S
C1543 C1542 1.391 . S
H1544 C1552 0.950 . S
H1545 C1557 0.950 . S
H1546 C1554 0.950 . S
H1547 C1556 0.950 . S
H1548 C1558 0.950 . S
H1549 C1560 0.950 . S
H1550 C1562 0.950 . S
H1551 C1563 0.950 . S
C1552 H1544 0.950 . S
C1552 C1553 1.386 . S
C1552 C1554 1.391 . S
C1553 C1552 1.386 . S
C1553 C1557 1.393 . S
C1554 H1546 0.950 . S
C1554 C1552 1.391 . S
C1554 C1555 1.400 . S
C1555 C1554 1.400 . S
C1555 C1556 1.398 . S
C1555 C1561 1.491 . S
C1556 H1547 0.950 . S
C1556 C1555 1.398 . S
C1556 C1557 1.391 . S
C1557 H1545 0.950 . S
C1557 C1553 1.393 . S
C1557 C1556 1.391 . S
C1558 H1548 0.950 . S
C1558 C1559 1.386 . S
C1558 C1560 1.391 . S
C1559 C1558 1.386 . S
C1559 C1563 1.393 . S
C1560 H1549 0.950 . S
C1560 C1558 1.391 . S
C1560 C1561 1.400 . S
C1561 C1555 1.491 . S
C1561 C1560 1.400 . S
C1561 C1562 1.398 . S
C1562 H1550 0.950 . S
C1562 C1561 1.398 . S
C1562 C1563 1.391 . S
C1563 H1551 0.950 . S
C1563 C1559 1.393 . S
C1563 C1562 1.391 . S
H1564 C1572 0.950 . S
H1565 C1577 0.950 . S
H1566 C1574 0.950 . S
H1567 C1576 0.950 . S
H1568 C1578 0.950 . S
H1569 C1580 0.950 . S
H1570 C1582 0.950 . S
H1571 C1583 0.950 . S
C1572 H1564 0.950 . S
C1572 C1573 1.386 . S
C1572 C1574 1.391 . S
C1573 C1572 1.386 . S
C1573 C1577 1.393 . S
C1574 H1566 0.950 . S
C1574 C1572 1.391 . S
C1574 C1575 1.400 . S
C1575 C1574 1.400 . S
C1575 C1576 1.398 . S
C1575 C1581 1.491 . S
C1576 H1567 0.950 . S
C1576 C1575 1.398 . S
C1576 C1577 1.391 . S
C1577 H1565 0.950 . S
C1577 C1573 1.393 . S
C1577 C1576 1.391 . S
C1578 H1568 0.950 . S
C1578 C1579 1.386 . S
C1578 C1580 1.391 . S
C1579 C1578 1.386 . S
C1579 C1583 1.393 . S
C1580 H1569 0.950 . S
C1580 C1578 1.391 . S
C1580 C1581 1.400 . S
C1581 C1575 1.491 . S
C1581 C1580 1.400 . S
C1581 C1582 1.398 . S
C1582 H1570 0.950 . S
C1582 C1581 1.398 . S
C1582 C1583 1.391 . S
C1583 H1571 0.950 . S
C1583 C1579 1.393 . S
C1583 C1582 1.391 . S
H1584 C1592 0.950 . S
H1585 C1597 0.950 . S
H1586 C1594 0.950 . S
H1587 C1596 0.950 . S
H1588 C1598 0.950 . S
H1589 C1600 0.950 . S
H1590 C1602 0.950 . S
H1591 C1603 0.950 . S
C1592 H1584 0.950 . S
C1592 C1593 1.386 . S
C1592 C1594 1.391 . S
C1593 C1592 1.386 . S
C1593 C1597 1.393 . S
C1594 H1586 0.950 . S
C1594 C1592 1.391 . S
C1594 C1595 1.400 . S
C1595 C1594 1.400 . S
C1595 C1596 1.398 . S
C1595 C1601 1.491 . S
C1596 H1587 0.950 . S
C1596 C1595 1.398 . S
C1596 C1597 1.391 . S
C1597 H1585 0.950 . S
C1597 C1593 1.393 . S
C1597 C1596 1.391 . S
C1598 H1588 0.950 . S
C1598 C1599 1.386 . S
C1598 C1600 1.391 . S
C1599 C1598 1.386 . S
C1599 C1603 1.393 . S
C1600 H1589 0.950 . S
C1600 C1598 1.391 . S
C1600 C1601 1.400 . S
C1601 C1595 1.491 . S
C1601 C1600 1.400 . S
C1601 C1602 1.398 . S
C1602 H1590 0.950 . S
C1602 C1601 1.398 . S
C1602 C1603 1.391 . S
C1603 H1591 0.950 . S
C1603 C1599 1.393 . S
C1603 C1602 1.391 . S
H1604 C1612 0.950 . S
H1605 C1617 0.950 . S
H1606 C1614 0.950 . S
H1607 C1616 0.950 . S
H1608 C1618 0.950 . S
H1609 C1620 0.950 . S
H1610 C1622 0.950 . S
H1611 C1623 0.950 . S
C1612 H1604 0.950 . S
C1612 C1613 1.386 . S
C1612 C1614 1.391 . S
C1613 C1612 1.386 . S
C1613 C1617 1.393 . S
C1614 H1606 0.950 . S
C1614 C1612 1.391 . S
C1614 C1615 1.400 . S
C1615 C1614 1.400 . S
C1615 C1616 1.398 . S
C1615 C1621 1.491 . S
C1616 H1607 0.950 . S
C1616 C1615 1.398 . S
C1616 C1617 1.391 . S
C1617 H1605 0.950 . S
C1617 C1613 1.393 . S
C1617 C1616 1.391 . S
C1618 H1608 0.950 . S
C1618 C1619 1.386 . S
C1618 C1620 1.391 . S
C1619 C1618 1.386 . S
C1619 C1623 1.393 . S
C1620 H1609 0.950 . S
C1620 C1618 1.391 . S
C1620 C1621 1.400 . S
C1621 C1615 1.491 . S
C1621 C1620 1.400 . S
C1621 C1622 1.398 . S
C1622 H1610 0.950 . S
C1622 C1621 1.398 . S
C1622 C1623 1.391 . S
C1623 H1611 0.950 . S
C1623 C1619 1.393 . S
C1623 C1622 1.391 . S
H1624 C1632 0.950 . S
H1625 C1637 0.950 . S
H1626 C1634 0.950 . S
H1627 C1636 0.950 . S
H1628 C1638 0.950 . S
H1629 C1640 0.950 . S
H1630 C1642 0.950 . S
H1631 C1643 0.950 . S
C1632 H1624 0.950 . S
C1632 C1633 1.386 . S
C1632 C1634 1.391 . S
C1633 C1632 1.386 . S
C1633 C1637 1.393 . S
C1634 H1626 0.950 . S
C1634 C1632 1.391 . S
C1634 C1635 1.400 . S
C1635 C1634 1.400 . S
C1635 C1636 1.398 . S
C1635 C1641 1.491 . S
C1636 H1627 0.950 . S
C1636 C1635 1.398 . S
C1636 C1637 1.391 . S
C1637 H1625 0.950 . S
C1637 C1633 1.393 . S
C1637 C1636 1.391 . S
C1638 H1628 0.950 . S
C1638 C1639 1.386 . S
C1638 C1640 1.391 . S
C1639 C1638 1.386 . S
C1639 C1643 1.393 . S
C1640 H1629 0.950 . S
C1640 C1638 1.391 . S
C1640 C1641 1.400 . S
C1641 C1635 1.491 . S
C1641 C1640 1.400 . S
C1641 C1642 1.398 . S
C1642 H1630 0.950 . S
C1642 C1641 1.398 . S
C1642 C1643 1.391 . S
C1643 H1631 0.950 . S
C1643 C1639 1.393 . S
C1643 C1642 1.391 . S
H1644 C1652 0.950 . S
H1645 C1657 0.950 . S
H1646 C1654 0.950 . S
H1647 C1656 0.950 . S
H1648 C1658 0.950 . S
H1649 C1660 0.950 . S
H1650 C1662 0.950 . S
H1651 C1663 0.950 . S
C1652 H1644 0.950 . S
C1652 C1653 1.386 . S
C1652 C1654 1.391 . S
C1653 C1652 1.386 . S
C1653 C1657 1.393 . S
C1654 H1646 0.950 . S
C1654 C1652 1.391 . S
C1654 C1655 1.400 . S
C1655 C1654 1.400 . S
C1655 C1656 1.398 . S
C1655 C1661 1.491 . S
C1656 H1647 0.950 . S
C1656 C1655 1.398 . S
C1656 C1657 1.391 . S
C1657 H1645 0.950 . S
C1657 C1653 1.393 . S
C1657 C1656 1.391 . S
C1658 H1648 0.950 . S
C1658 C1659 1.386 . S
C1658 C1660 1.391 . S
C1659 C1658 1.386 . S
C1659 C1663 1.393 . S
C1660 H1649 0.950 . S
C1660 C1658 1.391 . S
C1660 C1661 1.400 . S
C1661 C1655 1.491 . S
C1661 C1660 1.400 . S
C1661 C1662 1.398 . S
C1662 H1650 0.950 . S
C1662 C1661 1.398 . S
C1662 C1663 1.391 . S
C1663 H1651 0.950 . S
C1663 C1659 1.393 . S
C1663 C1662 1.391 . S
H1664 C1672 0.950 . S
H1665 C1677 0.950 . S
H1666 C1674 0.950 . S
H1667 C1676 0.950 . S
H1668 C1678 0.950 . S
H1669 C1680 0.950 . S
H1670 C1682 0.950 . S
H1671 C1683 0.950 . S
C1672 H1664 0.950 . S
C1672 C1673 1.386 . S
C1672 C1674 1.391 . S
C1673 C1672 1.386 . S
C1673 C1677 1.393 . S
C1674 H1666 0.950 . S
C1674 C1672 1.391 . S
C1674 C1675 1.400 . S
C1675 C1674 1.400 . S
C1675 C1676 1.398 . S
C1675 C1681 1.491 . S
C1676 H1667 0.950 . S
C1676 C1675 1.398 . S
C1676 C1677 1.391 . S
C1677 H1665 0.950 . S
C1677 C1673 1.393 . S
C1677 C1676 1.391 . S
C1678 H1668 0.950 . S
C1678 C1679 1.386 . S
C1678 C1680 1.391 . S
C1679 C1678 1.386 . S
C1679 C1683 1.393 . S
C1680 H1669 0.950 . S
C1680 C1678 1.391 . S
C1680 C1681 1.400 . S
C1681 C1675 1.491 . S
C1681 C1680 1.400 . S
C1681 C1682 1.398 . S
C1682 H1670 0.950 . S
C1682 C1681 1.398 . S
C1682 C1683 1.391 . S
C1683 H1671 0.950 . S
C1683 C1679 1.393 . S
C1683 C1682 1.391 . S
H1684 C1692 0.950 . S
H1685 C1697 0.950 . S
H1686 C1694 0.950 . S
H1687 C1696 0.950 . S
H1688 C1698 0.950 . S
H1689 C1700 0.950 . S
H1690 C1702 0.950 . S
H1691 C1703 0.950 . S
C1692 H1684 0.950 . S
C1692 C1693 1.386 . S
C1692 C1694 1.391 . S
C1693 C1692 1.386 . S
C1693 C1697 1.393 . S
C1694 H1686 0.950 . S
C1694 C1692 1.391 . S
C1694 C1695 1.400 . S
C1695 C1694 1.400 . S
C1695 C1696 1.398 . S
C1695 C1701 1.491 . S
C1696 H1687 0.950 . S
C1696 C1695 1.398 . S
C1696 C1697 1.391 . S
C1697 H1685 0.950 . S
C1697 C1693 1.393 . S
C1697 C1696 1.391 . S
C1698 H1688 0.950 . S
C1698 C1699 1.386 . S
C1698 C1700 1.391 . S
C1699 C1698 1.386 . S
C1699 C1703 1.393 . S
C1700 H1689 0.950 . S
C1700 C1698 1.391 . S
C1700 C1701 1.400 . S
C1701 C1695 1.491 . S
C1701 C1700 1.400 . S
C1701 C1702 1.398 . S
C1702 H1690 0.950 . S
C1702 C1701 1.398 . S
C1702 C1703 1.391 . S
C1703 H1691 0.950 . S
C1703 C1699 1.393 . S
C1703 C1702 1.391 . S
H1704 C1712 0.950 . S
H1705 C1717 0.950 . S
H1706 C1714 0.950 . S
H1707 C1716 0.950 . S
H1708 C1718 0.950 . S
H1709 C1720 0.950 . S
H1710 C1722 0.950 . S
H1711 C1723 0.950 . S
C1712 H1704 0.950 . S
C1712 C1713 1.386 . S
C1712 C1714 1.391 . S
C1713 C1712 1.386 . S
C1713 C1717 1.393 . S
C1714 H1706 0.950 . S
C1714 C1712 1.391 . S
C1714 C1715 1.400 . S
C1715 C1714 1.400 . S
C1715 C1716 1.398 . S
C1715 C1721 1.491 . S
C1716 H1707 0.950 . S
C1716 C1715 1.398 . S
C1716 C1717 1.391 . S
C1717 H1705 0.950 . S
C1717 C1713 1.393 . S
C1717 C1716 1.391 . S
C1718 H1708 0.950 . S
C1718 C1719 1.386 . S
C1718 C1720 1.391 . S
C1719 C1718 1.386 . S
C1719 C1723 1.393 . S
C1720 H1709 0.950 . S
C1720 C1718 1.391 . S
C1720 C1721 1.400 . S
C1721 C1715 1.491 . S
C1721 C1720 1.400 . S
C1721 C1722 1.398 . S
C1722 H1710 0.950 . S
C1722 C1721 1.398 . S
C1722 C1723 1.391 . S
C1723 H1711 0.950 . S
C1723 C1719 1.393 . S
C1723 C1722 1.391 . S
H1724 C1732 0.950 . S
H1725 C1737 0.950 . S
H1726 C1734 0.950 . S
H1727 C1736 0.950 . S
H1728 C1738 0.950 . S
H1729 C1740 0.950 . S
H1730 C1742 0.950 . S
H1731 C1743 0.950 . S
C1732 H1724 0.950 . S
C1732 C1733 1.386 . S
C1732 C1734 1.391 . S
C1733 C1732 1.386 . S
C1733 C1737 1.393 . S
C1734 H1726 0.950 . S
C1734 C1732 1.391 . S
C1734 C1735 1.400 . S
C1735 C1734 1.400 . S
C1735 C1736 1.398 . S
C1735 C1741 1.491 . S
C1736 H1727 0.950 . S
C1736 C1735 1.398 . S
C1736 C1737 1.391 . S
C1737 H1725 0.950 . S
C1737 C1733 1.393 . S
C1737 C1736 1.391 . S
C1738 H1728 0.950 . S
C1738 C1739 1.386 . S
C1738 C1740 1.391 . S
C1739 C1738 1.386 . S
C1739 C1743 1.393 . S
C1740 H1729 0.950 . S
C1740 C1738 1.391 . S
C1740 C1741 1.400 . S
C1741 C1735 1.491 . S
C1741 C1740 1.400 . S
C1741 C1742 1.398 . S
C1742 H1730 0.950 . S
C1742 C1741 1.398 . S
C1742 C1743 1.391 . S
C1743 H1731 0.950 . S
C1743 C1739 1.393 . S
C1743 C1742 1.391 . S
H1744 C1752 0.950 . S
H1745 C1757 0.950 . S
H1746 C1754 0.950 . S
H1747 C1756 0.950 . S
H1748 C1758 0.950 . S
H1749 C1760 0.950 . S
H1750 C1762 0.950 . S
H1751 C1763 0.950 . S
C1752 H1744 0.950 . S
C1752 C1753 1.386 . S
C1752 C1754 1.391 . S
C1753 C1752 1.386 . S
C1753 C1757 1.393 . S
C1754 H1746 0.950 . S
C1754 C1752 1.391 . S
C1754 C1755 1.400 . S
C1755 C1754 1.400 . S
C1755 C1756 1.398 . S
C1755 C1761 1.491 . S
C1756 H1747 0.950 . S
C1756 C1755 1.398 . S
C1756 C1757 1.391 . S
C1757 H1745 0.950 . S
C1757 C1753 1.393 . S
C1757 C1756 1.391 . S
C1758 H1748 0.950 . S
C1758 C1759 1.386 . S
C1758 C1760 1.391 . S
C1759 C1758 1.386 . S
C1759 C1763 1.393 . S
C1760 H1749 0.950 . S
C1760 C1758 1.391 . S
C1760 C1761 1.400 . S
C1761 C1755 1.491 . S
C1761 C1760 1.400 . S
C1761 C1762 1.398 . S
C1762 H1750 0.950 . S
C1762 C1761 1.398 . S
C1762 C1763 1.391 . S
C1763 H1751 0.950 . S
C1763 C1759 1.393 . S
C1763 C1762 1.391 . S
H1764 C1772 0.950 . S
H1765 C1777 0.950 . S
H1766 C1774 0.950 . S
H1767 C1776 0.950 . S
H1768 C1778 0.950 . S
H1769 C1780 0.950 . S
H1770 C1782 0.950 . S
H1771 C1783 0.950 . S
C1772 H1764 0.950 . S
C1772 C1773 1.386 . S
C1772 C1774 1.391 . S
C1773 C1772 1.386 . S
C1773 C1777 1.393 . S
C1774 H1766 0.950 . S
C1774 C1772 1.391 . S
C1774 C1775 1.400 . S
C1775 C1774 1.400 . S
C1775 C1776 1.398 . S
C1775 C1781 1.491 . S
C1776 H1767 0.950 . S
C1776 C1775 1.398 . S
C1776 C1777 1.391 . S
C1777 H1765 0.950 . S
C1777 C1773 1.393 . S
C1777 C1776 1.391 . S
C1778 H1768 0.950 . S
C1778 C1779 1.386 . S
C1778 C1780 1.391 . S
C1779 C1778 1.386 . S
C1779 C1783 1.393 . S
C1780 H1769 0.950 . S
C1780 C1778 1.391 . S
C1780 C1781 1.400 . S
C1781 C1775 1.491 . S
C1781 C1780 1.400 . S
C1781 C1782 1.398 . S
C1782 H1770 0.950 . S
C1782 C1781 1.398 . S
C1782 C1783 1.391 . S
C1783 H1771 0.950 . S
C1783 C1779 1.393 . S
C1783 C1782 1.391 . S
H1784 C1792 0.950 . S
H1785 C1797 0.950 . S
H1786 C1794 0.950 . S
H1787 C1796 0.950 . S
H1788 C1798 0.950 . S
H1789 C1800 0.950 . S
H1790 C1802 0.950 . S
H1791 C1803 0.950 . S
C1792 H1784 0.950 . S
C1792 C1793 1.386 . S
C1792 C1794 1.391 . S
C1793 C1792 1.386 . S
C1793 C1797 1.393 . S
C1794 H1786 0.950 . S
C1794 C1792 1.391 . S
C1794 C1795 1.400 . S
C1795 C1794 1.400 . S
C1795 C1796 1.398 . S
C1795 C1801 1.491 . S
C1796 H1787 0.950 . S
C1796 C1795 1.398 . S
C1796 C1797 1.391 . S
C1797 H1785 0.950 . S
C1797 C1793 1.393 . S
C1797 C1796 1.391 . S
C1798 H1788 0.950 . S
C1798 C1799 1.386 . S
C1798 C1800 1.391 . S
C1799 C1798 1.386 . S
C1799 C1803 1.393 . S
C1800 H1789 0.950 . S
C1800 C1798 1.391 . S
C1800 C1801 1.400 . S
C1801 C1795 1.491 . S
C1801 C1800 1.400 . S
C1801 C1802 1.398 . S
C1802 H1790 0.950 . S
C1802 C1801 1.398 . S
C1802 C1803 1.391 . S
C1803 H1791 0.950 . S
C1803 C1799 1.393 . S
C1803 C1802 1.391 . S
H1804 C1812 0.950 . S
H1805 C1817 0.950 . S
H1806 C1814 0.950 . S
H1807 C1816 0.950 . S
H1808 C1818 0.950 . S
H1809 C1820 0.950 . S
H1810 C1822 0.950 . S
H1811 C1823 0.950 . S
C1812 H1804 0.950 . S
C1812 C1813 1.386 . S
C1812 C1814 1.391 . S
C1813 C1812 1.386 . S
C1813 C1817 1.393 . S
C1814 H1806 0.950 . S
C1814 C1812 1.391 . S
C1814 C1815 1.400 . S
C1815 C1814 1.400 . S
C1815 C1816 1.398 . S
C1815 C1821 1.491 . S
C1816 H1807 0.950 . S
C1816 C1815 1.398 . S
C1816 C1817 1.391 . S
C1817 H1805 0.950 . S
C1817 C1813 1.393 . S
C1817 C1816 1.391 . S
C1818 H1808 0.950 . S
C1818 C1819 1.386 . S
C1818 C1820 1.391 . S
C1819 C1818 1.386 . S
C1819 C1823 1.393 . S
C1820 H1809 0.950 . S
C1820 C1818 1.391 . S
C1820 C1821 1.400 . S
C1821 C1815 1.491 . S
C1821 C1820 1.400 . S
C1821 C1822 1.398 . S
C1822 H1810 0.950 . S
C1822 C1821 1.398 . S
C1822 C1823 1.391 . S
C1823 H1811 0.950 . S
C1823 C1819 1.393 . S
C1823 C1822 1.391 . S
H1824 C1832 0.950 . S
H1825 C1837 0.950 . S
H1826 C1834 0.950 . S
H1827 C1836 0.950 . S
H1828 C1838 0.950 . S
H1829 C1840 0.950 . S
H1830 C1842 0.950 . S
H1831 C1843 0.950 . S
C1832 H1824 0.950 . S
C1832 C1833 1.386 . S
C1832 C1834 1.391 . S
C1833 C1832 1.386 . S
C1833 C1837 1.393 . S
C1834 H1826 0.950 . S
C1834 C1832 1.391 . S
C1834 C1835 1.400 . S
C1835 C1834 1.400 . S
C1835 C1836 1.398 . S
C1835 C1841 1.491 . S
C1836 H1827 0.950 . S
C1836 C1835 1.398 . S
C1836 C1837 1.391 . S
C1837 H1825 0.950 . S
C1837 C1833 1.393 . S
C1837 C1836 1.391 . S
C1838 H1828 0.950 . S
C1838 C1839 1.386 . S
C1838 C1840 1.391 . S
C1839 C1838 1.386 . S
C1839 C1843 1.393 . S
C1840 H1829 0.950 . S
C1840 C1838 1.391 . S
C1840 C1841 1.400 . S
C1841 C1835 1.491 . S
C1841 C1840 1.400 . S
C1841 C1842 1.398 . S
C1842 H1830 0.950 . S
C1842 C1841 1.398 . S
C1842 C1843 1.391 . S
C1843 H1831 0.950 . S
C1843 C1839 1.393 . S
C1843 C1842 1.391 . S
H1844 C1852 0.950 . S
H1845 C1857 0.950 . S
H1846 C1854 0.950 . S
H1847 C1856 0.950 . S
H1848 C1858 0.950 . S
H1849 C1860 0.950 . S
H1850 C1862 0.950 . S
H1851 C1863 0.950 . S
C1852 H1844 0.950 . S
C1852 C1853 1.386 . S
C1852 C1854 1.391 . S
C1853 C1852 1.386 . S
C1853 C1857 1.393 . S
C1854 H1846 0.950 . S
C1854 C1852 1.391 . S
C1854 C1855 1.400 . S
C1855 C1854 1.400 . S
C1855 C1856 1.398 . S
C1855 C1861 1.491 . S
C1856 H1847 0.950 . S
C1856 C1855 1.398 . S
C1856 C1857 1.391 . S
C1857 H1845 0.950 . S
C1857 C1853 1.393 . S
C1857 C1856 1.391 . S
C1858 H1848 0.950 . S
C1858 C1859 1.386 . S
C1858 C1860 1.391 . S
C1859 C1858 1.386 . S
C1859 C1863 1.393 . S
C1860 H1849 0.950 . S
C1860 C1858 1.391 . S
C1860 C1861 1.400 . S
C1861 C1855 1.491 . S
C1861 C1860 1.400 . S
C1861 C1862 1.398 . S
C1862 H1850 0.950 . S
C1862 C1861 1.398 . S
C1862 C1863 1.391 . S
C1863 H1851 0.950 . S
C1863 C1859 1.393 . S
C1863 C1862 1.391 . S
H1864 C1872 0.950 . S
H1865 C1877 0.950 . S
H1866 C1874 0.950 . S
H1867 C1876 0.950 . S
H1868 C1878 0.950 . S
H1869 C1880 0.950 . S
H1870 C1882 0.950 . S
H1871 C1883 0.950 . S
C1872 H1864 0.950 . S
C1872 C1873 1.386 . S
C1872 C1874 1.391 . S
C1873 C1872 1.386 . S
C1873 C1877 1.393 . S
C1874 H1866 0.950 . S
C1874 C1872 1.391 . S
C1874 C1875 1.400 . S
C1875 C1874 1.400 . S
C1875 C1876 1.398 . S
C1875 C1881 1.491 . S
C1876 H1867 0.950 . S
C1876 C1875 1.398 . S
C1876 C1877 1.391 . S
C1877 H1865 0.950 . S
C1877 C1873 1.393 . S
C1877 C1876 1.391 . S
C1878 H1868 0.950 . S
C1878 C1879 1.386 . S
C1878 C1880 1.391 . S
C1879 C1878 1.386 . S
C1879 C1883 1.393 . S
C1880 H1869 0.950 . S
C1880 C1878 1.391 . S
C1880 C1881 1.400 . S
C1881 C1875 1.491 . S
C1881 C1880 1.400 . S
C1881 C1882 1.398 . S
C1882 H1870 0.950 . S
C1882 C1881 1.398 . S
C1882 C1883 1.391 . S
C1883 H1871 0.950 . S
C1883 C1879 1.393 . S
C1883 C1882 1.391 . S
H1884 C1892 0.950 . S
H1885 C1897 0.950 . S
H1886 C1894 0.950 . S
H1887 C1896 0.950 . S
H1888 C1898 0.950 . S
H1889 C1900 0.950 . S
H1890 C1902 0.950 . S
H1891 C1903 0.950 . S
C1892 H1884 0.950 . S
C1892 C1893 1.386 . S
C1892 C1894 1.391 . S
C1893 C1892 1.386 . S
C1893 C1897 1.393 . S
C1894 H1886 0.950 . S
C1894 C1892 1.391 . S
C1894 C1895 1.400 . S
C1895 C1894 1.400 . S
C1895 C1896 1.398 . S
C1895 C1901 1.491 . S
C1896 H1887 0.950 . S
C1896 C1895 1.398 . S
C1896 C1897 1.391 . S
C1897 H1885 0.950 . S
C1897 C1893 1.393 . S
C1897 C1896 1.391 . S
C1898 H1888 0.950 . S
C1898 C1899 1.386 . S
C1898 C1900 1.391 . S
C1899 C1898 1.386 . S
C1899 C1903 1.393 . S
C1900 H1889 0.950 . S
C1900 C1898 1.391 . S
C1900 C1901 1.400 . S
C1901 C1895 1.491 . S
C1901 C1900 1.400 . S
C1901 C1902 1.398 . S
C1902 H1890 0.950 . S
C1902 C1901 1.398 . S
C1902 C1903 1.391 . S
C1903 H1891 0.950 . S
C1903 C1899 1.393 . S
C1903 C1902 1.391 . S
H1904 C1912 0.950 . S
H1905 C1917 0.950 . S
H1906 C1914 0.950 . S
H1907 C1916 0.950 . S
H1908 C1918 0.950 . S
H1909 C1920 0.950 . S
H1910 C1922 0.950 . S
H1911 C1923 0.950 . S
C1912 H1904 0.950 . S
C1912 C1913 1.386 . S
C1912 C1914 1.391 . S
C1913 C1912 1.386 . S
C1913 C1917 1.393 . S
C1914 H1906 0.950 . S
C1914 C1912 1.391 . S
C1914 C1915 1.400 . S
C1915 C1914 1.400 . S
C1915 C1916 1.398 . S
C1915 C1921 1.491 . S
C1916 H1907 0.950 . S
C1916 C1915 1.398 . S
C1916 C1917 1.391 . S
C1917 H1905 0.950 . S
C1917 C1913 1.393 . S
C1917 C1916 1.391 . S
C1918 H1908 0.950 . S
C1918 C1919 1.386 . S
C1918 C1920 1.391 . S
C1919 C1918 1.386 . S
C1919 C1923 1.393 . S
C1920 H1909 0.950 . S
C1920 C1918 1.391 . S
C1920 C1921 1.400 . S
C1921 C1915 1.491 . S
C1921 C1920 1.400 . S
C1921 C1922 1.398 . S
C1922 H1910 0.950 . S
C1922 C1921 1.398 . S
C1922 C1923 1.391 . S
C1923 H1911 0.950 . S
C1923 C1919 1.393 . S
C1923 C1922 1.391 . S
H1924 C1932 0.950 . S
H1925 C1937 0.950 . S
H1926 C1934 0.950 . S
H1927 C1936 0.950 . S
H1928 C1938 0.950 . S
H1929 C1940 0.950 . S
H1930 C1942 0.950 . S
H1931 C1943 0.950 . S
C1932 H1924 0.950 . S
C1932 C1933 1.386 . S
C1932 C1934 1.391 . S
C1933 C1932 1.386 . S
C1933 C1937 1.393 . S
C1934 H1926 0.950 . S
C1934 C1932 1.391 . S
C1934 C1935 1.400 . S
C1935 C1934 1.400 . S
C1935 C1936 1.398 . S
C1935 C1941 1.491 . S
C1936 H1927 0.950 . S
C1936 C1935 1.398 . S
C1936 C1937 1.391 . S
C1937 H1925 0.950 . S
C1937 C1933 1.393 . S
C1937 C1936 1.391 . S
C1938 H1928 0.950 . S
C1938 C1939 1.386 . S
C1938 C1940 1.391 . S
C1939 C1938 1.386 . S
C1939 C1943 1.393 . S
C1940 H1929 0.950 . S
C1940 C1938 1.391 . S
C1940 C1941 1.400 . S
C1941 C1935 1.491 . S
C1941 C1940 1.400 . S
C1941 C1942 1.398 . S
C1942 H1930 0.950 . S
C1942 C1941 1.398 . S
C1942 C1943 1.391 . S
C1943 H1931 0.950 . S
C1943 C1939 1.393 . S
C1943 C1942 1.391 . S
H1944 C1952 0.950 . S
H1945 C1957 0.950 . S
H1946 C1954 0.950 . S
H1947 C1956 0.950 . S
H1948 C1958 0.950 . S
H1949 C1960 0.950 . S
H1950 C1962 0.950 . S
H1951 C1963 0.950 . S
C1952 H1944 0.950 . S
C1952 C1953 1.386 . S
C1952 C1954 1.391 . S
C1953 C1952 1.386 . S
C1953 C1957 1.393 . S
C1954 H1946 0.950 . S
C1954 C1952 1.391 . S
C1954 C1955 1.400 . S
C1955 C1954 1.400 . S
C1955 C1956 1.398 . S
C1955 C1961 1.491 . S
C1956 H1947 0.950 . S
C1956 C1955 1.398 . S
C1956 C1957 1.391 . S
C1957 H1945 0.950 . S
C1957 C1953 1.393 . S
C1957 C1956 1.391 . S
C1958 H1948 0.950 . S
C1958 C1959 1.386 . S
C1958 C1960 1.391 . S
C1959 C1958 1.386 . S
C1959 C1963 1.393 . S
C1960 H1949 0.950 . S
C1960 C1958 1.391 . S
C1960 C1961 1.400 . S
C1961 C1955 1.491 . S
C1961 C1960 1.400 . S
C1961 C1962 1.398 . S
C1962 H1950 0.950 . S
C1962 C1961 1.398 . S
C1962 C1963 1.391 . S
C1963 H1951 0.950 . S
C1963 C1959 1.393 . S
C1963 C1962 1.391 . S
H1964 C1972 0.950 . S
H1965 C1977 0.950 . S
H1966 C1974 0.950 . S
H1967 C1976 0.950 . S
H1968 C1978 0.950 . S
H1969 C1980 0.950 . S
H1970 C1982 0.950 . S
H1971 C1983 0.950 . S
C1972 H1964 0.950 . S
C1972 C1973 1.386 . S
C1972 C1974 1.391 . S
C1973 C1972 1.386 . S
C1973 C1977 1.393 . S
C1974 H1966 0.950 . S
C1974 C1972 1.391 . S
C1974 C1975 1.400 . S
C1975 C1974 1.400 . S
C1975 C1976 1.398 . S
C1975 C1981 1.491 . S
C1976 H1967 0.950 . S
C1976 C1975 1.398 . S
C1976 C1977 1.391 . S
C1977 H1965 0.950 . S
C1977 C1973 1.393 . S
C1977 C1976 1.391 . S
C1978 H1968 0.950 . S
C1978 C1979 1.386 . S
C1978 C1980 1.391 . S
C1979 C1978 1.386 . S
C1979 C1983 1.393 . S
C1980 H1969 0.950 . S
C1980 C1978 1.391 . S
C1980 C1981 1.400 . S
C1981 C1975 1.491 . S
C1981 C1980 1.400 . S
C1981 C1982 1.398 . S
C1982 H1970 0.950 . S
C1982 C1981 1.398 . S
C1982 C1983 1.391 . S
C1983 H1971 0.950 . S
C1983 C1979 1.393 . S
C1983 C1982 1.391 . S
H1984 C1992 0.950 . S
H1985 C1997 0.950 . S
H1986 C1994 0.950 . S
H1987 C1996 0.950 . S
H1988 C1998 0.950 . S
H1989 C2000 0.950 . S
H1990 C2002 0.950 . S
H1991 C2003 0.950 . S
C1992 H1984 0.950 . S
C1992 C1993 1.386 . S
C1992 C1994 1.391 . S
C1993 C1992 1.386 . S
C1993 C1997 1.393 . S
C1994 H1986 0.950 . S
C1994 C1992 1.391 . S
C1994 C1995 1.400 . S
C1995 C1994 1.400 . S
C1995 C1996 1.398 . S
C1995 C2001 1.491 . S
C1996 H1987 0.950 . S
C1996 C1995 1.398 . S
C1996 C1997 1.391 . S
C1997 H1985 0.950 . S
C1997 C1993 1.393 . S
C1997 C1996 1.391 . S
C1998 H1988 0.950 . S
C1998 C1999 1.386 . S
C1998 C2000 1.391 . S
C1999 C1998 1.386 . S
C1999 C2003 1.393 . S
C2000 H1989 0.950 . S
C2000 C1998 1.391 . S
C2000 C2001 1.400 . S
C2001 C1995 1.491 . S
C2001 C2000 1.400 . S
C2001 C2002 1.398 . S
C2002 H1990 0.950 . S
C2002 C2001 1.398 . S
C2002 C2003 1.391 . S
C2003 H1991 0.950 . S
C2003 C1999 1.393 . S
C2003 C2002 1.391 . S
H2004 C2012 0.950 . S
H2005 C2017 0.950 . S
H2006 C2014 0.950 . S
H2007 C2016 0.950 . S
H2008 C2018 0.950 . S
H2009 C2020 0.950 . S
H2010 C2022 0.950 . S
H2011 C2023 0.950 . S
C2012 H2004 0.950 . S
C2012 C2013 1.386 . S
C2012 C2014 1.391 . S
C2013 C2012 1.386 . S
C2013 C2017 1.393 . S
C2014 H2006 0.950 . S
C2014 C2012 1.391 . S
C2014 C2015 1.400 . S
C2015 C2014 1.400 . S
C2015 C2016 1.398 . S
C2015 C2021 1.491 . S
C2016 H2007 0.950 . S
C2016 C2015 1.398 . S
C2016 C2017 1.391 . S
C2017 H2005 0.950 . S
C2017 C2013 1.393 . S
C2017 C2016 1.391 . S
C2018 H2008 0.950 . S
C2018 C2019 1.386 . S
C2018 C2020 1.391 . S
C2019 C2018 1.386 . S
C2019 C2023 1.393 . S
C2020 H2009 0.950 . S
C2020 C2018 1.391 . S
C2020 C2021 1.400 . S
C2021 C2015 1.491 . S
C2021 C2020 1.400 . S
C2021 C2022 1.398 . S
C2022 H2010 0.950 . S
C2022 C2021 1.398 . S
C2022 C2023 1.391 . S
C2023 H2011 0.950 . S
C2023 C2019 1.393 . S
C2023 C2022 1.391 . S
H2024 C2032 0.950 . S
H2025 C2037 0.950 . S
H2026 C2034 0.950 . S
H2027 C2036 0.950 . S
H2028 C2038 0.950 . S
H2029 C2040 0.950 . S
H2030 C2042 0.950 . S
H2031 C2043 0.950 . S
C2032 H2024 0.950 . S
C2032 C2033 1.386 . S
C2032 C2034 1.391 . S
C2033 C2032 1.386 . S
C2033 C2037 1.393 . S
C2034 H2026 0.950 . S
C2034 C2032 1.391 . S
C2034 C2035 1.400 . S
C2035 C2034 1.400 . S
C2035 C2036 1.398 . S
C2035 C2041 1.491 . S
C2036 H2027 0.950 . S
C2036 C2035 1.398 . S
C2036 C2037 1.391 . S
C2037 H2025 0.950 . S
C2037 C2033 1.393 . S
C2037 C2036 1.391 . S
C2038 H2028 0.950 . S
C2038 C2039 1.386 . S
C2038 C2040 1.391 . S
C2039 C2038 1.386 . S
C2039 C2043 1.393 . S
C2040 H2029 0.950 . S
C2040 C2038 1.391 . S
C2040 C2041 1.400 . S
C2041 C2035 1.491 . S
C2041 C2040 1.400 . S
C2041 C2042 1.398 . S
C2042 H2030 0.950 . S
C2042 C2041 1.398 . S
C2042 C2043 1.391 . S
C2043 H2031 0.950 . S
C2043 C2039 1.393 . S
C2043 C2042 1.391 . S
H2044 C2052 0.950 . S
H2045 C2057 0.950 . S
H2046 C2054 0.950 . S
H2047 C2056 0.950 . S
H2048 C2058 0.950 . S
H2049 C2060 0.950 . S
H2050 C2062 0.950 . S
H2051 C2063 0.950 . S
C2052 H2044 0.950 . S
C2052 C2053 1.386 . S
C2052 C2054 1.391 . S
C2053 C2052 1.386 . S
C2053 C2057 1.393 . S
C2054 H2046 0.950 . S
C2054 C2052 1.391 . S
C2054 C2055 1.400 . S
C2055 C2054 1.400 . S
C2055 C2056 1.398 . S
C2055 C2061 1.491 . S
C2056 H2047 0.950 . S
C2056 C2055 1.398 . S
C2056 C2057 1.391 . S
C2057 H2045 0.950 . S
C2057 C2053 1.393 . S
C2057 C2056 1.391 . S
C2058 H2048 0.950 . S
C2058 C2059 1.386 . S
C2058 C2060 1.391 . S
C2059 C2058 1.386 . S
C2059 C2063 1.393 . S
C2060 H2049 0.950 . S
C2060 C2058 1.391 . S
C2060 C2061 1.400 . S
C2061 C2055 1.491 . S
C2061 C2060 1.400 . S
C2061 C2062 1.398 . S
C2062 H2050 0.950 . S
C2062 C2061 1.398 . S
C2062 C2063 1.391 . S
C2063 H2051 0.950 . S
C2063 C2059 1.393 . S
C2063 C2062 1.391 . S
H2064 C2072 0.950 . S
H2065 C2077 0.950 . S
H2066 C2074 0.950 . S
H2067 C2076 0.950 . S
H2068 C2078 0.950 . S
H2069 C2080 0.950 . S
H2070 C2082 0.950 . S
H2071 C2083 0.950 . S
C2072 H2064 0.950 . S
C2072 C2073 1.386 . S
C2072 C2074 1.391 . S
C2073 C2072 1.386 . S
C2073 C2077 1.393 . S
C2074 H2066 0.950 . S
C2074 C2072 1.391 . S
C2074 C2075 1.400 . S
C2075 C2074 1.400 . S
C2075 C2076 1.398 . S
C2075 C2081 1.491 1_554 S
C2076 H2067 0.950 . S
C2076 C2075 1.398 . S
C2076 C2077 1.391 . S
C2077 H2065 0.950 . S
C2077 C2073 1.393 . S
C2077 C2076 1.391 . S
C2078 H2068 0.950 . S
C2078 C2079 1.386 . S
C2078 C2080 1.391 . S
C2079 C2078 1.386 . S
C2079 C2083 1.393 . S
C2080 H2069 0.950 . S
C2080 C2078 1.391 . S
C2080 C2081 1.400 . S
C2081 C2075 1.491 1_556 S
C2081 C2080 1.400 . S
C2081 C2082 1.398 . S
C2082 H2070 0.950 . S
C2082 C2081 1.398 . S
C2082 C2083 1.391 . S
C2083 H2071 0.950 . S
C2083 C2079 1.393 . S
C2083 C2082 1.391 . S
H2084 C2092 0.950 . S
H2085 C2097 0.950 . S
H2086 C2094 0.950 . S
H2087 C2096 0.950 . S
H2088 C2098 0.950 . S
H2089 C2100 0.950 . S
H2090 C2102 0.950 . S
H2091 C2103 0.950 . S
C2092 H2084 0.950 . S
C2092 C2093 1.386 . S
C2092 C2094 1.391 . S
C2093 C2092 1.386 . S
C2093 C2097 1.393 . S
C2094 H2086 0.950 . S
C2094 C2092 1.391 . S
C2094 C2095 1.400 . S
C2095 C2094 1.400 . S
C2095 C2096 1.398 . S
C2095 C2101 1.491 1_556 S
C2096 H2087 0.950 . S
C2096 C2095 1.398 . S
C2096 C2097 1.391 . S
C2097 H2085 0.950 . S
C2097 C2093 1.393 . S
C2097 C2096 1.391 . S
C2098 H2088 0.950 . S
C2098 C2099 1.386 . S
C2098 C2100 1.391 . S
C2099 C2098 1.386 . S
C2099 C2103 1.393 . S
C2100 H2089 0.950 . S
C2100 C2098 1.391 . S
C2100 C2101 1.400 . S
C2101 C2095 1.491 1_554 S
C2101 C2100 1.400 . S
C2101 C2102 1.398 . S
C2102 H2090 0.950 . S
C2102 C2101 1.398 . S
C2102 C2103 1.391 . S
C2103 H2091 0.950 . S
C2103 C2099 1.393 . S
C2103 C2102 1.391 . S
H2104 C2112 0.950 . S
H2105 C2117 0.950 . S
H2106 C2114 0.950 . S
H2107 C2116 0.950 . S
H2108 C2118 0.950 . S
H2109 C2120 0.950 . S
H2110 C2122 0.950 . S
H2111 C2123 0.950 . S
C2112 H2104 0.950 . S
C2112 C2113 1.386 . S
C2112 C2114 1.391 . S
C2113 C2112 1.386 . S
C2113 C2117 1.393 . S
C2114 H2106 0.950 . S
C2114 C2112 1.391 . S
C2114 C2115 1.400 . S
C2115 C2114 1.400 . S
C2115 C2116 1.398 . S
C2115 C2121 1.491 1_554 S
C2116 H2107 0.950 . S
C2116 C2115 1.398 . S
C2116 C2117 1.391 . S
C2117 H2105 0.950 . S
C2117 C2113 1.393 . S
C2117 C2116 1.391 . S
C2118 H2108 0.950 . S
C2118 C2119 1.386 . S
C2118 C2120 1.391 . S
C2119 C2118 1.386 . S
C2119 C2123 1.393 . S
C2120 H2109 0.950 . S
C2120 C2118 1.391 . S
C2120 C2121 1.400 . S
C2121 C2115 1.491 1_556 S
C2121 C2120 1.400 . S
C2121 C2122 1.398 . S
C2122 H2110 0.950 . S
C2122 C2121 1.398 . S
C2122 C2123 1.391 . S
C2123 H2111 0.950 . S
C2123 C2119 1.393 . S
C2123 C2122 1.391 . S
H2124 C2132 0.950 . S
H2125 C2137 0.950 . S
H2126 C2134 0.950 . S
H2127 C2136 0.950 . S
H2128 C2138 0.950 . S
H2129 C2140 0.950 . S
H2130 C2142 0.950 . S
H2131 C2143 0.950 . S
C2132 H2124 0.950 . S
C2132 C2133 1.386 . S
C2132 C2134 1.391 . S
C2133 C2132 1.386 . S
C2133 C2137 1.393 . S
C2134 H2126 0.950 . S
C2134 C2132 1.391 . S
C2134 C2135 1.400 . S
C2135 C2134 1.400 . S
C2135 C2136 1.398 . S
C2135 C2141 1.491 1_554 S
C2136 H2127 0.950 . S
C2136 C2135 1.398 . S
C2136 C2137 1.391 . S
C2137 H2125 0.950 . S
C2137 C2133 1.393 . S
C2137 C2136 1.391 . S
C2138 H2128 0.950 . S
C2138 C2139 1.386 . S
C2138 C2140 1.391 . S
C2139 C2138 1.386 . S
C2139 C2143 1.393 . S
C2140 H2129 0.950 . S
C2140 C2138 1.391 . S
C2140 C2141 1.400 . S
C2141 C2135 1.491 1_556 S
C2141 C2140 1.400 . S
C2141 C2142 1.398 . S
C2142 H2130 0.950 . S
C2142 C2141 1.398 . S
C2142 C2143 1.391 . S
C2143 H2131 0.950 . S
C2143 C2139 1.393 . S
C2143 C2142 1.391 . S
H2144 C2152 0.950 . S
H2145 C2157 0.950 . S
H2146 C2154 0.950 . S
H2147 C2156 0.950 . S
H2148 C2158 0.950 . S
H2149 C2160 0.950 . S
H2150 C2162 0.950 . S
H2151 C2163 0.950 . S
C2152 H2144 0.950 . S
C2152 C2153 1.386 . S
C2152 C2154 1.391 . S
C2153 C2152 1.386 . S
C2153 C2157 1.393 . S
C2154 H2146 0.950 . S
C2154 C2152 1.391 . S
C2154 C2155 1.400 . S
C2155 C2154 1.400 . S
C2155 C2156 1.398 . S
C2155 C2161 1.491 1_556 S
C2156 H2147 0.950 . S
C2156 C2155 1.398 . S
C2156 C2157 1.391 . S
C2157 H2145 0.950 . S
C2157 C2153 1.393 . S
C2157 C2156 1.391 . S
C2158 H2148 0.950 . S
C2158 C2159 1.386 . S
C2158 C2160 1.391 . S
C2159 C2158 1.386 . S
C2159 C2163 1.393 . S
C2160 H2149 0.950 . S
C2160 C2158 1.391 . S
C2160 C2161 1.400 . S
C2161 C2155 1.491 1_554 S
C2161 C2160 1.400 . S
C2161 C2162 1.398 . S
C2162 H2150 0.950 . S
C2162 C2161 1.398 . S
C2162 C2163 1.391 . S
C2163 H2151 0.950 . S
C2163 C2159 1.393 . S
C2163 C2162 1.391 . S
H2164 C2172 0.950 . S
H2165 C2177 0.950 . S
H2166 C2174 0.950 . S
H2167 C2176 0.950 . S
H2168 C2178 0.950 . S
H2169 C2180 0.950 . S
H2170 C2182 0.950 . S
H2171 C2183 0.950 . S
C2172 H2164 0.950 . S
C2172 C2173 1.386 . S
C2172 C2174 1.391 . S
C2173 C2172 1.386 . S
C2173 C2177 1.393 . S
C2174 H2166 0.950 . S
C2174 C2172 1.391 . S
C2174 C2175 1.400 . S
C2175 C2174 1.400 . S
C2175 C2176 1.398 . S
C2175 C2181 1.491 1_554 S
C2176 H2167 0.950 . S
C2176 C2175 1.398 . S
C2176 C2177 1.391 . S
C2177 H2165 0.950 . S
C2177 C2173 1.393 . S
C2177 C2176 1.391 . S
C2178 H2168 0.950 . S
C2178 C2179 1.386 . S
C2178 C2180 1.391 . S
C2179 C2178 1.386 . S
C2179 C2183 1.393 . S
C2180 H2169 0.950 . S
C2180 C2178 1.391 . S
C2180 C2181 1.400 . S
C2181 C2175 1.491 1_556 S
C2181 C2180 1.400 . S
C2181 C2182 1.398 . S
C2182 H2170 0.950 . S
C2182 C2181 1.398 . S
C2182 C2183 1.391 . S
C2183 H2171 0.950 . S
C2183 C2179 1.393 . S
C2183 C2182 1.391 . S
H2184 C2192 0.950 . S
H2185 C2197 0.950 . S
H2186 C2194 0.950 . S
H2187 C2196 0.950 . S
H2188 C2198 0.950 . S
H2189 C2200 0.950 . S
H2190 C2202 0.950 . S
H2191 C2203 0.950 . S
C2192 H2184 0.950 . S
C2192 C2193 1.386 . S
C2192 C2194 1.391 . S
C2193 C2192 1.386 . S
C2193 C2197 1.393 . S
C2194 H2186 0.950 . S
C2194 C2192 1.391 . S
C2194 C2195 1.400 . S
C2195 C2194 1.400 . S
C2195 C2196 1.398 . S
C2195 C2201 1.491 1_556 S
C2196 H2187 0.950 . S
C2196 C2195 1.398 . S
C2196 C2197 1.391 . S
C2197 H2185 0.950 . S
C2197 C2193 1.393 . S
C2197 C2196 1.391 . S
C2198 H2188 0.950 . S
C2198 C2199 1.386 . S
C2198 C2200 1.391 . S
C2199 C2198 1.386 . S
C2199 C2203 1.393 . S
C2200 H2189 0.950 . S
C2200 C2198 1.391 . S
C2200 C2201 1.400 . S
C2201 C2195 1.491 1_554 S
C2201 C2200 1.400 . S
C2201 C2202 1.398 . S
C2202 H2190 0.950 . S
C2202 C2201 1.398 . S
C2202 C2203 1.391 . S
C2203 H2191 0.950 . S
C2203 C2199 1.393 . S
C2203 C2202 1.391 . S
H2204 C2212 0.950 . S
H2205 C2217 0.950 . S
H2206 C2214 0.950 . S
H2207 C2216 0.950 . S
H2208 C2218 0.950 . S
H2209 C2220 0.950 . S
H2210 C2222 0.950 . S
H2211 C2223 0.950 . S
C2212 H2204 0.950 . S
C2212 C2213 1.386 . S
C2212 C2214 1.391 . S
C2213 C2212 1.386 . S
C2213 C2217 1.393 . S
C2214 H2206 0.950 . S
C2214 C2212 1.391 . S
C2214 C2215 1.400 . S
C2215 C2214 1.400 . S
C2215 C2216 1.398 . S
C2215 C2221 1.491 1_554 S
C2216 H2207 0.950 . S
C2216 C2215 1.398 . S
C2216 C2217 1.391 . S
C2217 H2205 0.950 . S
C2217 C2213 1.393 . S
C2217 C2216 1.391 . S
C2218 H2208 0.950 . S
C2218 C2219 1.386 . S
C2218 C2220 1.391 . S
C2219 C2218 1.386 . S
C2219 C2223 1.393 . S
C2220 H2209 0.950 . S
C2220 C2218 1.391 . S
C2220 C2221 1.400 . S
C2221 C2215 1.491 1_556 S
C2221 C2220 1.400 . S
C2221 C2222 1.398 . S
C2222 H2210 0.950 . S
C2222 C2221 1.398 . S
C2222 C2223 1.391 . S
C2223 H2211 0.950 . S
C2223 C2219 1.393 . S
C2223 C2222 1.391 . S
H2224 C2232 0.950 . S
H2225 C2237 0.950 . S
H2226 C2234 0.950 . S
H2227 C2236 0.950 . S
H2228 C2238 0.950 . S
H2229 C2240 0.950 . S
H2230 C2242 0.950 . S
H2231 C2243 0.950 . S
C2232 H2224 0.950 . S
C2232 C2233 1.386 . S
C2232 C2234 1.391 . S
C2233 C2232 1.386 . S
C2233 C2237 1.393 . S
C2234 H2226 0.950 . S
C2234 C2232 1.391 . S
C2234 C2235 1.400 . S
C2235 C2234 1.400 . S
C2235 C2236 1.398 . S
C2235 C2241 1.491 1_455 S
C2236 H2227 0.950 . S
C2236 C2235 1.398 . S
C2236 C2237 1.391 . S
C2237 H2225 0.950 . S
C2237 C2233 1.393 . S
C2237 C2236 1.391 . S
C2238 H2228 0.950 . S
C2238 C2239 1.386 . S
C2238 C2240 1.391 . S
C2239 C2238 1.386 . S
C2239 C2243 1.393 . S
C2240 H2229 0.950 . S
C2240 C2238 1.391 . S
C2240 C2241 1.400 . S
C2241 C2235 1.491 1_655 S
C2241 C2240 1.400 . S
C2241 C2242 1.398 . S
C2242 H2230 0.950 . S
C2242 C2241 1.398 . S
C2242 C2243 1.391 . S
C2243 H2231 0.950 . S
C2243 C2239 1.393 . S
C2243 C2242 1.391 . S
H2244 C2252 0.950 . S
H2245 C2257 0.950 . S
H2246 C2254 0.950 . S
H2247 C2256 0.950 . S
H2248 C2258 0.950 . S
H2249 C2260 0.950 . S
H2250 C2262 0.950 . S
H2251 C2263 0.950 . S
C2252 H2244 0.950 . S
C2252 C2253 1.386 . S
C2252 C2254 1.391 . S
C2253 C2252 1.386 . S
C2253 C2257 1.393 . S
C2254 H2246 0.950 . S
C2254 C2252 1.391 . S
C2254 C2255 1.400 . S
C2255 C2254 1.400 . S
C2255 C2256 1.398 . S
C2255 C2261 1.491 1_565 S
C2256 H2247 0.950 . S
C2256 C2255 1.398 . S
C2256 C2257 1.391 . S
C2257 H2245 0.950 . S
C2257 C2253 1.393 . S
C2257 C2256 1.391 . S
C2258 H2248 0.950 . S
C2258 C2259 1.386 . S
C2258 C2260 1.391 . S
C2259 C2258 1.386 . S
C2259 C2263 1.393 . S
C2260 H2249 0.950 . S
C2260 C2258 1.391 . S
C2260 C2261 1.400 . S
C2261 C2255 1.491 1_545 S
C2261 C2260 1.400 . S
C2261 C2262 1.398 . S
C2262 H2250 0.950 . S
C2262 C2261 1.398 . S
C2262 C2263 1.391 . S
C2263 H2251 0.950 . S
C2263 C2259 1.393 . S
C2263 C2262 1.391 . S
H2264 C2272 0.950 . S
H2265 C2277 0.950 . S
H2266 C2274 0.950 . S
H2267 C2276 0.950 . S
H2268 C2278 0.950 . S
H2269 C2280 0.950 . S
H2270 C2282 0.950 . S
H2271 C2283 0.950 . S
C2272 H2264 0.950 . S
C2272 C2273 1.386 . S
C2272 C2274 1.391 . S
C2273 C2272 1.386 . S
C2273 C2277 1.393 . S
C2274 H2266 0.950 . S
C2274 C2272 1.391 . S
C2274 C2275 1.400 . S
C2275 C2274 1.400 . S
C2275 C2276 1.398 . S
C2275 C2281 1.491 1_455 S
C2276 H2267 0.950 . S
C2276 C2275 1.398 . S
C2276 C2277 1.391 . S
C2277 H2265 0.950 . S
C2277 C2273 1.393 . S
C2277 C2276 1.391 . S
C2278 H2268 0.950 . S
C2278 C2279 1.386 . S
C2278 C2280 1.391 . S
C2279 C2278 1.386 . S
C2279 C2283 1.393 . S
C2280 H2269 0.950 . S
C2280 C2278 1.391 . S
C2280 C2281 1.400 . S
C2281 C2275 1.491 1_655 S
C2281 C2280 1.400 . S
C2281 C2282 1.398 . S
C2282 H2270 0.950 . S
C2282 C2281 1.398 . S
C2282 C2283 1.391 . S
C2283 H2271 0.950 . S
C2283 C2279 1.393 . S
C2283 C2282 1.391 . S
H2284 C2292 0.950 . S
H2285 C2297 0.950 . S
H2286 C2294 0.950 . S
H2287 C2296 0.950 . S
H2288 C2298 0.950 . S
H2289 C2300 0.950 . S
H2290 C2302 0.950 . S
H2291 C2303 0.950 . S
C2292 H2284 0.950 . S
C2292 C2293 1.386 . S
C2292 C2294 1.391 . S
C2293 C2292 1.386 . S
C2293 C2297 1.393 . S
C2294 H2286 0.950 . S
C2294 C2292 1.391 . S
C2294 C2295 1.400 . S
C2295 C2294 1.400 . S
C2295 C2296 1.398 . S
C2295 C2301 1.491 1_565 S
C2296 H2287 0.950 . S
C2296 C2295 1.398 . S
C2296 C2297 1.391 . S
C2297 H2285 0.950 . S
C2297 C2293 1.393 . S
C2297 C2296 1.391 . S
C2298 H2288 0.950 . S
C2298 C2299 1.386 . S
C2298 C2300 1.391 . S
C2299 C2298 1.386 . S
C2299 C2303 1.393 . S
C2300 H2289 0.950 . S
C2300 C2298 1.391 . S
C2300 C2301 1.400 . S
C2301 C2295 1.491 1_545 S
C2301 C2300 1.400 . S
C2301 C2302 1.398 . S
C2302 H2290 0.950 . S
C2302 C2301 1.398 . S
C2302 C2303 1.391 . S
C2303 H2291 0.950 . S
C2303 C2299 1.393 . S
C2303 C2302 1.391 . S
H2304 C2312 0.950 . S
H2305 C2317 0.950 . S
H2306 C2314 0.950 . S
H2307 C2316 0.950 . S
H2308 C2318 0.950 . S
H2309 C2320 0.950 . S
H2310 C2322 0.950 . S
H2311 C2323 0.950 . S
C2312 H2304 0.950 . S
C2312 C2313 1.386 . S
C2312 C2314 1.391 . S
C2313 C2312 1.386 . S
C2313 C2317 1.393 . S
C2314 H2306 0.950 . S
C2314 C2312 1.391 . S
C2314 C2315 1.400 . S
C2315 C2314 1.400 . S
C2315 C2316 1.398 . S
C2315 C2321 1.491 1_655 S
C2316 H2307 0.950 . S
C2316 C2315 1.398 . S
C2316 C2317 1.391 . S
C2317 H2305 0.950 . S
C2317 C2313 1.393 . S
C2317 C2316 1.391 . S
C2318 H2308 0.950 . S
C2318 C2319 1.386 . S
C2318 C2320 1.391 . S
C2319 C2318 1.386 . S
C2319 C2323 1.393 . S
C2320 H2309 0.950 . S
C2320 C2318 1.391 . S
C2320 C2321 1.400 . S
C2321 C2315 1.491 1_455 S
C2321 C2320 1.400 . S
C2321 C2322 1.398 . S
C2322 H2310 0.950 . S
C2322 C2321 1.398 . S
C2322 C2323 1.391 . S
C2323 H2311 0.950 . S
C2323 C2319 1.393 . S
C2323 C2322 1.391 . S
H2324 C2332 0.950 . S
H2325 C2337 0.950 . S
H2326 C2334 0.950 . S
H2327 C2336 0.950 . S
H2328 C2338 0.950 . S
H2329 C2340 0.950 . S
H2330 C2342 0.950 . S
H2331 C2343 0.950 . S
C2332 H2324 0.950 . S
C2332 C2333 1.386 . S
C2332 C2334 1.391 . S
C2333 C2332 1.386 . S
C2333 C2337 1.393 . S
C2334 H2326 0.950 . S
C2334 C2332 1.391 . S
C2334 C2335 1.400 . S
C2335 C2334 1.400 . S
C2335 C2336 1.398 . S
C2335 C2341 1.491 1_545 S
C2336 H2327 0.950 . S
C2336 C2335 1.398 . S
C2336 C2337 1.391 . S
C2337 H2325 0.950 . S
C2337 C2333 1.393 . S
C2337 C2336 1.391 . S
C2338 H2328 0.950 . S
C2338 C2339 1.386 . S
C2338 C2340 1.391 . S
C2339 C2338 1.386 . S
C2339 C2343 1.393 . S
C2340 H2329 0.950 . S
C2340 C2338 1.391 . S
C2340 C2341 1.400 . S
C2341 C2335 1.491 1_565 S
C2341 C2340 1.400 . S
C2341 C2342 1.398 . S
C2342 H2330 0.950 . S
C2342 C2341 1.398 . S
C2342 C2343 1.391 . S
C2343 H2331 0.950 . S
C2343 C2339 1.393 . S
C2343 C2342 1.391 . S
H2344 C2352 0.950 . S
H2345 C2357 0.950 . S
H2346 C2354 0.950 . S
H2347 C2356 0.950 . S
H2348 C2358 0.950 . S
H2349 C2360 0.950 . S
H2350 C2362 0.950 . S
H2351 C2363 0.950 . S
C2352 H2344 0.950 . S
C2352 C2353 1.386 . S
C2352 C2354 1.391 . S
C2353 C2352 1.386 . S
C2353 C2357 1.393 . S
C2354 H2346 0.950 . S
C2354 C2352 1.391 . S
C2354 C2355 1.400 . S
C2355 C2354 1.400 . S
C2355 C2356 1.398 . S
C2355 C2361 1.491 1_455 S
C2356 H2347 0.950 . S
C2356 C2355 1.398 . S
C2356 C2357 1.391 . S
C2357 H2345 0.950 . S
C2357 C2353 1.393 . S
C2357 C2356 1.391 . S
C2358 H2348 0.950 . S
C2358 C2359 1.386 . S
C2358 C2360 1.391 . S
C2359 C2358 1.386 . S
C2359 C2363 1.393 . S
C2360 H2349 0.950 . S
C2360 C2358 1.391 . S
C2360 C2361 1.400 . S
C2361 C2355 1.491 1_655 S
C2361 C2360 1.400 . S
C2361 C2362 1.398 . S
C2362 H2350 0.950 . S
C2362 C2361 1.398 . S
C2362 C2363 1.391 . S
C2363 H2351 0.950 . S
C2363 C2359 1.393 . S
C2363 C2362 1.391 . S
H2364 C2372 0.950 . S
H2365 C2377 0.950 . S
H2366 C2374 0.950 . S
H2367 C2376 0.950 . S
H2368 C2378 0.950 . S
H2369 C2380 0.950 . S
H2370 C2382 0.950 . S
H2371 C2383 0.950 . S
C2372 H2364 0.950 . S
C2372 C2373 1.386 . S
C2372 C2374 1.391 . S
C2373 C2372 1.386 . S
C2373 C2377 1.393 . S
C2374 H2366 0.950 . S
C2374 C2372 1.391 . S
C2374 C2375 1.400 . S
C2375 C2374 1.400 . S
C2375 C2376 1.398 . S
C2375 C2381 1.491 1_545 S
C2376 H2367 0.950 . S
C2376 C2375 1.398 . S
C2376 C2377 1.391 . S
C2377 H2365 0.950 . S
C2377 C2373 1.393 . S
C2377 C2376 1.391 . S
C2378 H2368 0.950 . S
C2378 C2379 1.386 . S
C2378 C2380 1.391 . S
C2379 C2378 1.386 . S
C2379 C2383 1.393 . S
C2380 H2369 0.950 . S
C2380 C2378 1.391 . S
C2380 C2381 1.400 . S
C2381 C2375 1.491 1_565 S
C2381 C2380 1.400 . S
C2381 C2382 1.398 . S
C2382 H2370 0.950 . S
C2382 C2381 1.398 . S
C2382 C2383 1.391 . S
C2383 H2371 0.950 . S
C2383 C2379 1.393 . S
C2383 C2382 1.391 . S
H2384 C2392 0.950 . S
H2385 C2397 0.950 . S
H2386 C2394 0.950 . S
H2387 C2396 0.950 . S
H2388 C2398 0.950 . S
H2389 C2400 0.950 . S
H2390 C2402 0.950 . S
H2391 C2403 0.950 . S
C2392 H2384 0.950 . S
C2392 C2393 1.386 . S
C2392 C2394 1.391 . S
C2393 C2392 1.386 . S
C2393 C2397 1.393 . S
C2394 H2386 0.950 . S
C2394 C2392 1.391 . S
C2394 C2395 1.400 . S
C2395 C2394 1.400 . S
C2395 C2396 1.398 . S
C2395 C2401 1.491 1_545 S
C2396 H2387 0.950 . S
C2396 C2395 1.398 . S
C2396 C2397 1.391 . S
C2397 H2385 0.950 . S
C2397 C2393 1.393 . S
C2397 C2396 1.391 . S
C2398 H2388 0.950 . S
C2398 C2399 1.386 . S
C2398 C2400 1.391 . S
C2399 C2398 1.386 . S
C2399 C2403 1.393 . S
C2400 H2389 0.950 . S
C2400 C2398 1.391 . S
C2400 C2401 1.400 . S
C2401 C2395 1.491 1_565 S
C2401 C2400 1.400 . S
C2401 C2402 1.398 . S
C2402 H2390 0.950 . S
C2402 C2401 1.398 . S
C2402 C2403 1.391 . S
C2403 H2391 0.950 . S
C2403 C2399 1.393 . S
C2403 C2402 1.391 . S
H2404 C2412 0.950 . S
H2405 C2417 0.950 . S
H2406 C2414 0.950 . S
H2407 C2416 0.950 . S
H2408 C2418 0.950 . S
H2409 C2420 0.950 . S
H2410 C2422 0.950 . S
H2411 C2423 0.950 . S
C2412 H2404 0.950 . S
C2412 C2413 1.386 . S
C2412 C2414 1.391 . S
C2413 C2412 1.386 . S
C2413 C2417 1.393 . S
C2414 H2406 0.950 . S
C2414 C2412 1.391 . S
C2414 C2415 1.400 . S
C2415 C2414 1.400 . S
C2415 C2416 1.398 . S
C2415 C2421 1.491 1_545 S
C2416 H2407 0.950 . S
C2416 C2415 1.398 . S
C2416 C2417 1.391 . S
C2417 H2405 0.950 . S
C2417 C2413 1.393 . S
C2417 C2416 1.391 . S
C2418 H2408 0.950 . S
C2418 C2419 1.386 . S
C2418 C2420 1.391 . S
C2419 C2418 1.386 . S
C2419 C2423 1.393 . S
C2420 H2409 0.950 . S
C2420 C2418 1.391 . S
C2420 C2421 1.400 . S
C2421 C2415 1.491 1_565 S
C2421 C2420 1.400 . S
C2421 C2422 1.398 . S
C2422 H2410 0.950 . S
C2422 C2421 1.398 . S
C2422 C2423 1.391 . S
C2423 H2411 0.950 . S
C2423 C2419 1.393 . S
C2423 C2422 1.391 . S
H2424 C2432 0.950 . S
H2425 C2437 0.950 . S
H2426 C2434 0.950 . S
H2427 C2436 0.950 . S
H2428 C2438 0.950 . S
H2429 C2440 0.950 . S
H2430 C2442 0.950 . S
H2431 C2443 0.950 . S
C2432 H2424 0.950 . S
C2432 C2433 1.386 . S
C2432 C2434 1.391 . S
C2433 C2432 1.386 . S
C2433 C2437 1.393 . S
C2434 H2426 0.950 . S
C2434 C2432 1.391 . S
C2434 C2435 1.400 . S
C2435 C2434 1.400 . S
C2435 C2436 1.398 . S
C2435 C2441 1.491 1_655 S
C2436 H2427 0.950 . S
C2436 C2435 1.398 . S
C2436 C2437 1.391 . S
C2437 H2425 0.950 . S
C2437 C2433 1.393 . S
C2437 C2436 1.391 . S
C2438 H2428 0.950 . S
C2438 C2439 1.386 . S
C2438 C2440 1.391 . S
C2439 C2438 1.386 . S
C2439 C2443 1.393 . S
C2440 H2429 0.950 . S
C2440 C2438 1.391 . S
C2440 C2441 1.400 . S
C2441 C2435 1.491 1_455 S
C2441 C2440 1.400 . S
C2441 C2442 1.398 . S
C2442 H2430 0.950 . S
C2442 C2441 1.398 . S
C2442 C2443 1.391 . S
C2443 H2431 0.950 . S
C2443 C2439 1.393 . S
C2443 C2442 1.391 . S
H2444 C2452 0.950 . S
H2445 C2457 0.950 . S
H2446 C2454 0.950 . S
H2447 C2456 0.950 . S
H2448 C2458 0.950 . S
H2449 C2460 0.950 . S
H2450 C2462 0.950 . S
H2451 C2463 0.950 . S
C2452 H2444 0.950 . S
C2452 C2453 1.386 . S
C2452 C2454 1.391 . S
C2453 C2452 1.386 . S
C2453 C2457 1.393 . S
C2454 H2446 0.950 . S
C2454 C2452 1.391 . S
C2454 C2455 1.400 . S
C2455 C2454 1.400 . S
C2455 C2456 1.398 . S
C2455 C2461 1.491 1_545 S
C2456 H2447 0.950 . S
C2456 C2455 1.398 . S
C2456 C2457 1.391 . S
C2457 H2445 0.950 . S
C2457 C2453 1.393 . S
C2457 C2456 1.391 . S
C2458 H2448 0.950 . S
C2458 C2459 1.386 . S
C2458 C2460 1.391 . S
C2459 C2458 1.386 . S
C2459 C2463 1.393 . S
C2460 H2449 0.950 . S
C2460 C2458 1.391 . S
C2460 C2461 1.400 . S
C2461 C2455 1.491 1_565 S
C2461 C2460 1.400 . S
C2461 C2462 1.398 . S
C2462 H2450 0.950 . S
C2462 C2461 1.398 . S
C2462 C2463 1.391 . S
C2463 H2451 0.950 . S
C2463 C2459 1.393 . S
C2463 C2462 1.391 . S
H2464 C2472 0.950 . S
H2465 C2477 0.950 . S
H2466 C2474 0.950 . S
H2467 C2476 0.950 . S
H2468 C2478 0.950 . S
H2469 C2480 0.950 . S
H2470 C2482 0.950 . S
H2471 C2483 0.950 . S
C2472 H2464 0.950 . S
C2472 C2473 1.386 . S
C2472 C2474 1.391 . S
C2473 C2472 1.386 . S
C2473 C2477 1.393 . S
C2474 H2466 0.950 . S
C2474 C2472 1.391 . S
C2474 C2475 1.400 . S
C2475 C2474 1.400 . S
C2475 C2476 1.398 . S
C2475 C2481 1.491 1_455 S
C2476 H2467 0.950 . S
C2476 C2475 1.398 . S
C2476 C2477 1.391 . S
C2477 H2465 0.950 . S
C2477 C2473 1.393 . S
C2477 C2476 1.391 . S
C2478 H2468 0.950 . S
C2478 C2479 1.386 . S
C2478 C2480 1.391 . S
C2479 C2478 1.386 . S
C2479 C2483 1.393 . S
C2480 H2469 0.950 . S
C2480 C2478 1.391 . S
C2480 C2481 1.400 . S
C2481 C2475 1.491 1_655 S
C2481 C2480 1.400 . S
C2481 C2482 1.398 . S
C2482 H2470 0.950 . S
C2482 C2481 1.398 . S
C2482 C2483 1.391 . S
C2483 H2471 0.950 . S
C2483 C2479 1.393 . S
C2483 C2482 1.391 . S
H2484 C2492 0.950 . S
H2485 C2497 0.950 . S
H2486 C2494 0.950 . S
H2487 C2496 0.950 . S
H2488 C2498 0.950 . S
H2489 C2500 0.950 . S
H2490 C2502 0.950 . S
H2491 C2503 0.950 . S
C2492 H2484 0.950 . S
C2492 C2493 1.386 . S
C2492 C2494 1.391 . S
C2493 C2492 1.386 . S
C2493 C2497 1.393 . S
C2494 H2486 0.950 . S
C2494 C2492 1.391 . S
C2494 C2495 1.400 . S
C2495 C2494 1.400 . S
C2495 C2496 1.398 . S
C2495 C2501 1.491 1_545 S
C2496 H2487 0.950 . S
C2496 C2495 1.398 . S
C2496 C2497 1.391 . S
C2497 H2485 0.950 . S
C2497 C2493 1.393 . S
C2497 C2496 1.391 . S
C2498 H2488 0.950 . S
C2498 C2499 1.386 . S
C2498 C2500 1.391 . S
C2499 C2498 1.386 . S
C2499 C2503 1.393 . S
C2500 H2489 0.950 . S
C2500 C2498 1.391 . S
C2500 C2501 1.400 . S
C2501 C2495 1.491 1_565 S
C2501 C2500 1.400 . S
C2501 C2502 1.398 . S
C2502 H2490 0.950 . S
C2502 C2501 1.398 . S
C2502 C2503 1.391 . S
C2503 H2491 0.950 . S
C2503 C2499 1.393 . S
C2503 C2502 1.391 . S
H2504 C2512 0.950 . S
H2505 C2517 0.950 . S
H2506 C2514 0.950 . S
H2507 C2516 0.950 . S
H2508 C2518 0.950 . S
H2509 C2520 0.950 . S
H2510 C2522 0.950 . S
H2511 C2523 0.950 . S
C2512 H2504 0.950 . S
C2512 C2513 1.386 . S
C2512 C2514 1.391 . S
C2513 C2512 1.386 . S
C2513 C2517 1.393 . S
C2514 H2506 0.950 . S
C2514 C2512 1.391 . S
C2514 C2515 1.400 . S
C2515 C2514 1.400 . S
C2515 C2516 1.398 . S
C2515 C2521 1.491 1_655 S
C2516 H2507 0.950 . S
C2516 C2515 1.398 . S
C2516 C2517 1.391 . S
C2517 H2505 0.950 . S
C2517 C2513 1.393 . S
C2517 C2516 1.391 . S
C2518 H2508 0.950 . S
C2518 C2519 1.386 . S
C2518 C2520 1.391 . S
C2519 C2518 1.386 . S
C2519 C2523 1.393 . S
C2520 H2509 0.950 . S
C2520 C2518 1.391 . S
C2520 C2521 1.400 . S
C2521 C2515 1.491 1_455 S
C2521 C2520 1.400 . S
C2521 C2522 1.398 . S
C2522 H2510 0.950 . S
C2522 C2521 1.398 . S
C2522 C2523 1.391 . S
C2523 H2511 0.950 . S
C2523 C2519 1.393 . S
C2523 C2522 1.391 . S
H2524 C2532 0.950 . S
H2525 C2537 0.950 . S
H2526 C2534 0.950 . S
H2527 C2536 0.950 . S
H2528 C2538 0.950 . S
H2529 C2540 0.950 . S
H2530 C2542 0.950 . S
H2531 C2543 0.950 . S
C2532 H2524 0.950 . S
C2532 C2533 1.386 . S
C2532 C2534 1.391 . S
C2533 C2532 1.386 . S
C2533 C2537 1.393 . S
C2534 H2526 0.950 . S
C2534 C2532 1.391 . S
C2534 C2535 1.400 . S
C2535 C2534 1.400 . S
C2535 C2536 1.398 . S
C2535 C2541 1.491 1_455 S
C2536 H2527 0.950 . S
C2536 C2535 1.398 . S
C2536 C2537 1.391 . S
C2537 H2525 0.950 . S
C2537 C2533 1.393 . S
C2537 C2536 1.391 . S
C2538 H2528 0.950 . S
C2538 C2539 1.386 . S
C2538 C2540 1.391 . S
C2539 C2538 1.386 . S
C2539 C2543 1.393 . S
C2540 H2529 0.950 . S
C2540 C2538 1.391 . S
C2540 C2541 1.400 . S
C2541 C2535 1.491 1_655 S
C2541 C2540 1.400 . S
C2541 C2542 1.398 . S
C2542 H2530 0.950 . S
C2542 C2541 1.398 . S
C2542 C2543 1.391 . S
C2543 H2531 0.950 . S
C2543 C2539 1.393 . S
C2543 C2542 1.391 . S
C633 C517 1.383 . S
C639 C3 1.388 . S
C653 C17 1.387 . S
C659 C471 1.382 . S
C673 C31 1.383 . S
C679 C485 1.381 . S
C693 C498 1.375 . S
C699 C43 1.382 . S
C713 C439 1.373 . S
C719 C56 1.378 . S
C733 C70 1.389 . S
C739 C445 1.391 . S
C753 C88 1.376 . S
C759 C458 1.383 . S
C773 C94 1.393 . S
C779 C421 1.392 . S
C793 C114 1.389 . S
C799 C406 1.384 . S
C813 C374 1.382 . S
C819 C121 1.374 . S
C833 C380 1.379 . S
C839 C140 1.385 . S
C853 C146 1.387 . S
C859 C400 1.380 . S
C873 C161 1.377 . S
C879 C329 1.380 . S
C893 C172 1.390 . S
C899 C341 1.389 . S
C913 C355 1.370 . S
C919 C186 1.372 . S
C933 C315 1.390 . S
C939 C199 1.381 . S
C953 C218 1.386 . S
C959 C576 1.378 . S
C973 C616 1.384 . S
C979 C224 1.387 . S
C993 C589 1.379 . S
C999 C238 1.375 . S
C1013 C603 1.383 . S
C1019 C252 1.388 . S
C1033 C530 1.383 . S
C1039 C270 1.379 . S
C1053 C550 1.384 . S
C1059 C277 1.382 . S
C1073 C291 1.383 . S
C1079 C564 1.384 . S
C1093 C536 1.383 . S
C1099 C302 1.385 . S
C1113 C426 1.384 . S
C1119 C265 1.388 . S
C1133 C225 1.385 . S
C1139 C434 1.380 . S
C1153 C446 1.382 . S
C1159 C237 1.380 . S
C1173 C459 1.370 . S
C1179 C257 1.377 . S
C1193 C303 1.375 . S
C1199 C472 1.367 . S
C1213 C484 1.391 . S
C1219 C276 1.388 . S
C1233 C296 1.380 . S
C1239 C497 1.375 . S
C1253 C213 1.393 . S
C1259 C512 1.392 . S
C1273 C525 1.396 . S
C1279 C198 1.390 . S
C1293 C166 1.383 . S
C1299 C621 1.375 . S
C1313 C588 1.383 . S
C1319 C173 1.382 . S
C1333 C185 1.381 . S
C1339 C608 1.386 . S
C1353 C120 1.377 . S
C1359 C537 1.379 . S
C1373 C135 1.388 . S
C1379 C549 1.392 . S
C1393 C147 1.375 . S
C1399 C569 1.368 . S
C1413 C575 1.396 . S
C1419 C109 1.390 . S
C1433 C316 1.377 . S
C1439 C95 1.382 . S
C1453 C369 1.389 . S
C1459 C16 1.384 . S
C1473 C381 1.378 . S
C1479 C36 1.377 . S
C1493 C395 1.389 . S
C1499 C42 1.383 . S
C1513 C407 1.375 . S
C1519 C4 1.383 . S
C1533 C75 1.380 . S
C1539 C342 1.386 . S
C1553 C354 1.382 . S
C1559 C83 1.387 . S
C1573 C328 1.385 . S
C1579 C55 1.384 . S
C1593 C10 1.562 . S
C1599 C348 1.566 . S
C1613 C356 1.572 . S
C1619 C18 1.577 . S
C1633 C30 1.565 . S
C1639 C322 1.561 . S
C1653 C44 1.578 . S
C1659 C330 1.572 . S
C1673 C57 1.579 . S
C1679 C393 1.572 . S
C1693 C413 1.562 . S
C1699 C69 1.567 . S
C1713 C81 1.579 . S
C1719 C367 1.571 . S
C1733 C387 1.562 . S
C1739 C101 1.566 . S
C1753 C107 1.564 . S
C1759 C478 1.571 . S
C1773 C486 1.576 . S
C1779 C122 1.578 . S
C1793 C133 1.573 . S
C1799 C499 1.581 . S
C1813 C153 1.566 . S
C1819 C510 1.570 . S
C1833 C160 1.560 . S
C1839 C420 1.565 . S
C1853 C179 1.570 . S
C1859 C432 1.569 . S
C1873 C452 1.571 . S
C1879 C187 1.572 . S
C1893 C200 1.570 . S
C1899 C465 1.570 . S
C1913 C563 1.572 . S
C1919 C211 1.566 . S
C1933 C231 1.568 . S
C1939 C590 1.571 . S
C1953 C239 1.569 . S
C1959 C602 1.570 . S
C1973 C523 1.565 . S
C1979 C251 1.573 . S
C1993 C615 1.577 . S
C1999 C263 1.569 . S
C2013 C278 1.561 . S
C2019 C543 1.569 . S
C2033 C551 1.569 . S
C2039 C290 1.565 . S
C2053 C309 1.569 . S
C2059 C577 1.570 . S
C2073 C556 1.562 . S
C2079 C264 1.567 . S
C2093 C226 1.571 . S
C2099 C562 1.579 . S
C2113 C582 1.564 . S
C2119 C244 1.564 . S
C2133 C538 1.578 . S
C2139 C250 1.572 . S
C2153 C601 1.576 . S
C2159 C304 1.574 . S
C2173 C283 1.563 . S
C2179 C524 1.568 . S
C2193 C614 1.574 . S
C2199 C289 1.576 . S
C2213 C212 1.561 . S
C2219 C595 1.566 . S
C2233 C433 1.560 . S
C2239 C205 1.560 . S
C2253 C159 1.575 . S
C2259 C447 1.578 . S
C2273 C174 1.582 . S
C2279 C460 1.576 . S
C2293 C419 1.566 . S
C2299 C192 1.569 . S
C2313 C127 1.565 . S
C2319 C511 1.560 . S
C2333 C473 1.567 . S
C2339 C134 1.575 . S
C2353 C148 1.571 . S
C2359 C491 1.572 . S
C2373 C108 1.565 . S
C2379 C504 1.560 . S
C2393 C361 1.570 . S
C2399 C96 1.570 . S
C2413 C23 1.573 . S
C2419 C382 1.564 . S
C2433 C29 1.572 . S
C2439 C394 1.568 . S
C2453 C408 1.571 . S
C2459 C49 1.575 . S
C2473 C5 1.570 . S
C2479 C368 1.576 . S
C2493 C68 1.562 . S
C2499 C335 1.569 . S
C2513 C82 1.569 . S
C2519 C343 1.563 . S
C2533 C62 1.576 . S
C2539 C317 1.570 . S
