# Generated by pormake.
# Topology rho, (4)-cn, num edge types: 1
# Building blocks:
#     Node 0, Type 0, BuildingBlock: NAHDIM_clean_sbu_0, # of connection points: 4
#     Node 1, Type 0, BuildingBlock: NAHDIM_clean_sbu_0, # of connection points: 4
#     Node 2, Type 0, BuildingBlock: NAHDIM_clean_sbu_0, # of connection points: 4
#     Node 3, Type 0, BuildingBlock: NAHDIM_clean_sbu_0, # of connection points: 4
#     Node 4, Type 0, BuildingBlock: NAHDIM_clean_sbu_0, # of connection points: 4
#     Node 5, Type 0, BuildingBlock: NAHDIM_clean_sbu_0, # of connection points: 4
#     Node 6, Type 0, BuildingBlock: NAHDIM_clean_sbu_0, # of connection points: 4
#     Node 7, Type 0, BuildingBlock: NAHDIM_clean_sbu_0, # of connection points: 4
#     Node 8, Type 0, BuildingBlock: NAHDIM_clean_sbu_0, # of connection points: 4
#     Node 9, Type 0, BuildingBlock: NAHDIM_clean_sbu_0, # of connection points: 4
#     Node 10, Type 0, BuildingBlock: NAHDIM_clean_sbu_0, # of connection points: 4
#     Node 11, Type 0, BuildingBlock: NAHDIM_clean_sbu_0, # of connection points: 4
#     Node 12, Type 0, BuildingBlock: NAHDIM_clean_sbu_0, # of connection points: 4
#     Node 13, Type 0, BuildingBlock: NAHDIM_clean_sbu_0, # of connection points: 4
#     Node 14, Type 0, BuildingBlock: NAHDIM_clean_sbu_0, # of connection points: 4
#     Node 15, Type 0, BuildingBlock: NAHDIM_clean_sbu_0, # of connection points: 4
#     Node 16, Type 0, BuildingBlock: NAHDIM_clean_sbu_0, # of connection points: 4
#     Node 17, Type 0, BuildingBlock: NAHDIM_clean_sbu_0, # of connection points: 4
#     Node 18, Type 0, BuildingBlock: NAHDIM_clean_sbu_0, # of connection points: 4
#     Node 19, Type 0, BuildingBlock: NAHDIM_clean_sbu_0, # of connection points: 4
#     Node 20, Type 0, BuildingBlock: NAHDIM_clean_sbu_0, # of connection points: 4
#     Node 21, Type 0, BuildingBlock: NAHDIM_clean_sbu_0, # of connection points: 4
#     Node 22, Type 0, BuildingBlock: NAHDIM_clean_sbu_0, # of connection points: 4
#     Node 23, Type 0, BuildingBlock: NAHDIM_clean_sbu_0, # of connection points: 4
#     Node 24, Type 0, BuildingBlock: NAHDIM_clean_sbu_0, # of connection points: 4
#     Node 25, Type 0, BuildingBlock: NAHDIM_clean_sbu_0, # of connection points: 4
#     Node 26, Type 0, BuildingBlock: NAHDIM_clean_sbu_0, # of connection points: 4
#     Node 27, Type 0, BuildingBlock: NAHDIM_clean_sbu_0, # of connection points: 4
#     Node 28, Type 0, BuildingBlock: NAHDIM_clean_sbu_0, # of connection points: 4
#     Node 29, Type 0, BuildingBlock: NAHDIM_clean_sbu_0, # of connection points: 4
#     Node 30, Type 0, BuildingBlock: NAHDIM_clean_sbu_0, # of connection points: 4
#     Node 31, Type 0, BuildingBlock: NAHDIM_clean_sbu_0, # of connection points: 4
#     Node 32, Type 0, BuildingBlock: NAHDIM_clean_sbu_0, # of connection points: 4
#     Node 33, Type 0, BuildingBlock: NAHDIM_clean_sbu_0, # of connection points: 4
#     Node 34, Type 0, BuildingBlock: NAHDIM_clean_sbu_0, # of connection points: 4
#     Node 35, Type 0, BuildingBlock: NAHDIM_clean_sbu_0, # of connection points: 4
#     Node 36, Type 0, BuildingBlock: NAHDIM_clean_sbu_0, # of connection points: 4
#     Node 37, Type 0, BuildingBlock: NAHDIM_clean_sbu_0, # of connection points: 4
#     Node 38, Type 0, BuildingBlock: NAHDIM_clean_sbu_0, # of connection points: 4
#     Node 39, Type 0, BuildingBlock: NAHDIM_clean_sbu_0, # of connection points: 4
#     Node 40, Type 0, BuildingBlock: NAHDIM_clean_sbu_0, # of connection points: 4
#     Node 41, Type 0, BuildingBlock: NAHDIM_clean_sbu_0, # of connection points: 4
#     Node 42, Type 0, BuildingBlock: NAHDIM_clean_sbu_0, # of connection points: 4
#     Node 43, Type 0, BuildingBlock: NAHDIM_clean_sbu_0, # of connection points: 4
#     Node 44, Type 0, BuildingBlock: NAHDIM_clean_sbu_0, # of connection points: 4
#     Node 45, Type 0, BuildingBlock: NAHDIM_clean_sbu_0, # of connection points: 4
#     Node 46, Type 0, BuildingBlock: NAHDIM_clean_sbu_0, # of connection points: 4
#     Node 47, Type 0, BuildingBlock: NAHDIM_clean_sbu_0, # of connection points: 4
#     Edge 48, Type (0, 0), BuildingBlock: CIFDUS_clean_linker_0, # of connection points: 2
#     Edge 49, Type (0, 0), BuildingBlock: CIFDUS_clean_linker_0, # of connection points: 2
#     Edge 50, Type (0, 0), BuildingBlock: CIFDUS_clean_linker_0, # of connection points: 2
#     Edge 51, Type (0, 0), BuildingBlock: CIFDUS_clean_linker_0, # of connection points: 2
#     Edge 52, Type (0, 0), BuildingBlock: CIFDUS_clean_linker_0, # of connection points: 2
#     Edge 53, Type (0, 0), BuildingBlock: CIFDUS_clean_linker_0, # of connection points: 2
#     Edge 54, Type (0, 0), BuildingBlock: CIFDUS_clean_linker_0, # of connection points: 2
#     Edge 55, Type (0, 0), BuildingBlock: CIFDUS_clean_linker_0, # of connection points: 2
#     Edge 56, Type (0, 0), BuildingBlock: CIFDUS_clean_linker_0, # of connection points: 2
#     Edge 57, Type (0, 0), BuildingBlock: CIFDUS_clean_linker_0, # of connection points: 2
#     Edge 58, Type (0, 0), BuildingBlock: CIFDUS_clean_linker_0, # of connection points: 2
#     Edge 59, Type (0, 0), BuildingBlock: CIFDUS_clean_linker_0, # of connection points: 2
#     Edge 60, Type (0, 0), BuildingBlock: CIFDUS_clean_linker_0, # of connection points: 2
#     Edge 61, Type (0, 0), BuildingBlock: CIFDUS_clean_linker_0, # of connection points: 2
#     Edge 62, Type (0, 0), BuildingBlock: CIFDUS_clean_linker_0, # of connection points: 2
#     Edge 63, Type (0, 0), BuildingBlock: CIFDUS_clean_linker_0, # of connection points: 2
#     Edge 64, Type (0, 0), BuildingBlock: CIFDUS_clean_linker_0, # of connection points: 2
#     Edge 65, Type (0, 0), BuildingBlock: CIFDUS_clean_linker_0, # of connection points: 2
#     Edge 66, Type (0, 0), BuildingBlock: CIFDUS_clean_linker_0, # of connection points: 2
#     Edge 67, Type (0, 0), BuildingBlock: CIFDUS_clean_linker_0, # of connection points: 2
#     Edge 68, Type (0, 0), BuildingBlock: CIFDUS_clean_linker_0, # of connection points: 2
#     Edge 69, Type (0, 0), BuildingBlock: CIFDUS_clean_linker_0, # of connection points: 2
#     Edge 70, Type (0, 0), BuildingBlock: CIFDUS_clean_linker_0, # of connection points: 2
#     Edge 71, Type (0, 0), BuildingBlock: CIFDUS_clean_linker_0, # of connection points: 2
#     Edge 72, Type (0, 0), BuildingBlock: CIFDUS_clean_linker_0, # of connection points: 2
#     Edge 73, Type (0, 0), BuildingBlock: CIFDUS_clean_linker_0, # of connection points: 2
#     Edge 74, Type (0, 0), BuildingBlock: CIFDUS_clean_linker_0, # of connection points: 2
#     Edge 75, Type (0, 0), BuildingBlock: CIFDUS_clean_linker_0, # of connection points: 2
#     Edge 76, Type (0, 0), BuildingBlock: CIFDUS_clean_linker_0, # of connection points: 2
#     Edge 77, Type (0, 0), BuildingBlock: CIFDUS_clean_linker_0, # of connection points: 2
#     Edge 78, Type (0, 0), BuildingBlock: CIFDUS_clean_linker_0, # of connection points: 2
#     Edge 79, Type (0, 0), BuildingBlock: CIFDUS_clean_linker_0, # of connection points: 2
#     Edge 80, Type (0, 0), BuildingBlock: CIFDUS_clean_linker_0, # of connection points: 2
#     Edge 81, Type (0, 0), BuildingBlock: CIFDUS_clean_linker_0, # of connection points: 2
#     Edge 82, Type (0, 0), BuildingBlock: CIFDUS_clean_linker_0, # of connection points: 2
#     Edge 83, Type (0, 0), BuildingBlock: CIFDUS_clean_linker_0, # of connection points: 2
#     Edge 84, Type (0, 0), BuildingBlock: CIFDUS_clean_linker_0, # of connection points: 2
#     Edge 85, Type (0, 0), BuildingBlock: CIFDUS_clean_linker_0, # of connection points: 2
#     Edge 86, Type (0, 0), BuildingBlock: CIFDUS_clean_linker_0, # of connection points: 2
#     Edge 87, Type (0, 0), BuildingBlock: CIFDUS_clean_linker_0, # of connection points: 2
#     Edge 88, Type (0, 0), BuildingBlock: CIFDUS_clean_linker_0, # of connection points: 2
#     Edge 89, Type (0, 0), BuildingBlock: CIFDUS_clean_linker_0, # of connection points: 2
#     Edge 90, Type (0, 0), BuildingBlock: CIFDUS_clean_linker_0, # of connection points: 2
#     Edge 91, Type (0, 0), BuildingBlock: CIFDUS_clean_linker_0, # of connection points: 2
#     Edge 92, Type (0, 0), BuildingBlock: CIFDUS_clean_linker_0, # of connection points: 2
#     Edge 93, Type (0, 0), BuildingBlock: CIFDUS_clean_linker_0, # of connection points: 2
#     Edge 94, Type (0, 0), BuildingBlock: CIFDUS_clean_linker_0, # of connection points: 2
#     Edge 95, Type (0, 0), BuildingBlock: CIFDUS_clean_linker_0, # of connection points: 2
#     Edge 96, Type (0, 0), BuildingBlock: CIFDUS_clean_linker_0, # of connection points: 2
#     Edge 97, Type (0, 0), BuildingBlock: CIFDUS_clean_linker_0, # of connection points: 2
#     Edge 98, Type (0, 0), BuildingBlock: CIFDUS_clean_linker_0, # of connection points: 2
#     Edge 99, Type (0, 0), BuildingBlock: CIFDUS_clean_linker_0, # of connection points: 2
#     Edge 100, Type (0, 0), BuildingBlock: CIFDUS_clean_linker_0, # of connection points: 2
#     Edge 101, Type (0, 0), BuildingBlock: CIFDUS_clean_linker_0, # of connection points: 2
#     Edge 102, Type (0, 0), BuildingBlock: CIFDUS_clean_linker_0, # of connection points: 2
#     Edge 103, Type (0, 0), BuildingBlock: CIFDUS_clean_linker_0, # of connection points: 2
#     Edge 104, Type (0, 0), BuildingBlock: CIFDUS_clean_linker_0, # of connection points: 2
#     Edge 105, Type (0, 0), BuildingBlock: CIFDUS_clean_linker_0, # of connection points: 2
#     Edge 106, Type (0, 0), BuildingBlock: CIFDUS_clean_linker_0, # of connection points: 2
#     Edge 107, Type (0, 0), BuildingBlock: CIFDUS_clean_linker_0, # of connection points: 2
#     Edge 108, Type (0, 0), BuildingBlock: CIFDUS_clean_linker_0, # of connection points: 2
#     Edge 109, Type (0, 0), BuildingBlock: CIFDUS_clean_linker_0, # of connection points: 2
#     Edge 110, Type (0, 0), BuildingBlock: CIFDUS_clean_linker_0, # of connection points: 2
#     Edge 111, Type (0, 0), BuildingBlock: CIFDUS_clean_linker_0, # of connection points: 2
#     Edge 112, Type (0, 0), BuildingBlock: CIFDUS_clean_linker_0, # of connection points: 2
#     Edge 113, Type (0, 0), BuildingBlock: CIFDUS_clean_linker_0, # of connection points: 2
#     Edge 114, Type (0, 0), BuildingBlock: CIFDUS_clean_linker_0, # of connection points: 2
#     Edge 115, Type (0, 0), BuildingBlock: CIFDUS_clean_linker_0, # of connection points: 2
#     Edge 116, Type (0, 0), BuildingBlock: CIFDUS_clean_linker_0, # of connection points: 2
#     Edge 117, Type (0, 0), BuildingBlock: CIFDUS_clean_linker_0, # of connection points: 2
#     Edge 118, Type (0, 0), BuildingBlock: CIFDUS_clean_linker_0, # of connection points: 2
#     Edge 119, Type (0, 0), BuildingBlock: CIFDUS_clean_linker_0, # of connection points: 2
#     Edge 120, Type (0, 0), BuildingBlock: CIFDUS_clean_linker_0, # of connection points: 2
#     Edge 121, Type (0, 0), BuildingBlock: CIFDUS_clean_linker_0, # of connection points: 2
#     Edge 122, Type (0, 0), BuildingBlock: CIFDUS_clean_linker_0, # of connection points: 2
#     Edge 123, Type (0, 0), BuildingBlock: CIFDUS_clean_linker_0, # of connection points: 2
#     Edge 124, Type (0, 0), BuildingBlock: CIFDUS_clean_linker_0, # of connection points: 2
#     Edge 125, Type (0, 0), BuildingBlock: CIFDUS_clean_linker_0, # of connection points: 2
#     Edge 126, Type (0, 0), BuildingBlock: CIFDUS_clean_linker_0, # of connection points: 2
#     Edge 127, Type (0, 0), BuildingBlock: CIFDUS_clean_linker_0, # of connection points: 2
#     Edge 128, Type (0, 0), BuildingBlock: CIFDUS_clean_linker_0, # of connection points: 2
#     Edge 129, Type (0, 0), BuildingBlock: CIFDUS_clean_linker_0, # of connection points: 2
#     Edge 130, Type (0, 0), BuildingBlock: CIFDUS_clean_linker_0, # of connection points: 2
#     Edge 131, Type (0, 0), BuildingBlock: CIFDUS_clean_linker_0, # of connection points: 2
#     Edge 132, Type (0, 0), BuildingBlock: CIFDUS_clean_linker_0, # of connection points: 2
#     Edge 133, Type (0, 0), BuildingBlock: CIFDUS_clean_linker_0, # of connection points: 2
#     Edge 134, Type (0, 0), BuildingBlock: CIFDUS_clean_linker_0, # of connection points: 2
#     Edge 135, Type (0, 0), BuildingBlock: CIFDUS_clean_linker_0, # of connection points: 2
#     Edge 136, Type (0, 0), BuildingBlock: CIFDUS_clean_linker_0, # of connection points: 2
#     Edge 137, Type (0, 0), BuildingBlock: CIFDUS_clean_linker_0, # of connection points: 2
#     Edge 138, Type (0, 0), BuildingBlock: CIFDUS_clean_linker_0, # of connection points: 2
#     Edge 139, Type (0, 0), BuildingBlock: CIFDUS_clean_linker_0, # of connection points: 2
#     Edge 140, Type (0, 0), BuildingBlock: CIFDUS_clean_linker_0, # of connection points: 2
#     Edge 141, Type (0, 0), BuildingBlock: CIFDUS_clean_linker_0, # of connection points: 2
#     Edge 142, Type (0, 0), BuildingBlock: CIFDUS_clean_linker_0, # of connection points: 2
#     Edge 143, Type (0, 0), BuildingBlock: CIFDUS_clean_linker_0, # of connection points: 2
# Relax obj value: 0.179
# Max RMSD: 0.215
# Mean RMSD: 0.203
data_MOF--net-rho--node1-NAHDIM_clean_sbu_0--edge1-CIFDUS_clean_linker_0
_symmetry_space_group_name_H-M    P1
_symmetry_Int_Tables_number       1
_symmetry_cell_setting            triclinic
loop_
_symmetry_equiv_pos_as_xyz
'x, y, z'
_cell_length_a     62.287613
_cell_length_b     62.504343
_cell_length_c     62.433776
_cell_angle_alpha  90.282614
_cell_angle_beta   90.543001
_cell_angle_gamma 91.944346
loop_
_atom_site_label
_atom_site_type_symbol
_atom_site_fract_x
_atom_site_fract_y
_atom_site_fract_z
_atom_type_partial_charge
C0 C 0.13543 0.23395 0.39193 0.0
O1 O 0.14189 0.25417 0.3927 0.0
O2 O 0.09817 0.27329 0.37148 0.0
Zn3 Zn 0.09579 0.2537 0.39678 0.0
O4 O 0.10376 0.26867 0.42435 0.0
C5 C 0.0515 0.24445 0.38452 0.0
O6 O 0.05783 0.25193 0.36591 0.0
O7 O 0.11546 0.2293 0.39306 0.0
C8 C 0.09159 0.28236 0.43251 0.0
O9 O 0.07452 0.28807 0.42169 0.0
C10 C 0.10821 0.2913 0.37112 0.0
O11 O 0.11834 0.29838 0.38844 0.0
O12 O 0.06514 0.24298 0.39965 0.0
C13 C 0.72928 0.09875 0.35122 0.0
O14 O 0.74871 0.09588 0.34394 0.0
O15 O 0.77572 0.11456 0.38241 0.0
Zn16 Zn 0.75194 0.0936 0.39005 0.0
O17 O 0.76033 0.06317 0.38572 0.0
C18 C 0.75126 0.11274 0.43253 0.0
O19 O 0.76274 0.12823 0.42359 0.0
O20 O 0.72634 0.09872 0.37133 0.0
C21 C 0.76936 0.05313 0.40079 0.0
O22 O 0.77458 0.06341 0.4186 0.0
C23 C 0.79512 0.11 0.37907 0.0
O24 O 0.80078 0.08998 0.38011 0.0
O25 O 0.74438 0.09704 0.4211 0.0
C26 C 0.85539 0.77583 0.40091 0.0
O27 O 0.84994 0.75583 0.40523 0.0
O28 O 0.88536 0.73293 0.38341 0.0
Zn29 Zn 0.89515 0.75701 0.40286 0.0
O30 O 0.89431 0.74844 0.43376 0.0
C31 C 0.93291 0.76309 0.37697 0.0
O32 O 0.92009 0.75546 0.36173 0.0
O33 O 0.87515 0.78101 0.39885 0.0
C34 C 0.91009 0.73966 0.44279 0.0
O35 O 0.92693 0.73506 0.43135 0.0
C36 C 0.88471 0.71317 0.38805 0.0
O37 O 0.89057 0.70711 0.40729 0.0
O38 O 0.92543 0.76596 0.39559 0.0
C39 C 0.28576 0.86374 0.35627 0.0
O40 O 0.27454 0.84566 0.35804 0.0
O41 O 0.23097 0.85856 0.36926 0.0
Zn42 Zn 0.2509 0.88222 0.38014 0.0
O43 O 0.23982 0.91117 0.37266 0.0
C44 C 0.23757 0.87174 0.4222 0.0
O45 O 0.22042 0.86563 0.41108 0.0
O46 O 0.2792 0.88048 0.3654 0.0
C47 C 0.22708 0.92169 0.3841 0.0
O48 O 0.21961 0.91323 0.40186 0.0
C49 C 0.21333 0.86139 0.35948 0.0
O50 O 0.20778 0.88093 0.35485 0.0
O51 O 0.25376 0.87961 0.41235 0.0
C52 C 0.11161 0.71308 0.61853 0.0
O53 O 0.11149 0.73239 0.62693 0.0
O54 O 0.12603 0.75932 0.58689 0.0
Zn55 Zn 0.10136 0.73799 0.58327 0.0
O56 O 0.07436 0.74832 0.5967 0.0
C57 C 0.11286 0.72868 0.54028 0.0
O58 O 0.13195 0.72803 0.54936 0.0
O59 O 0.10824 0.71089 0.59853 0.0
C60 C 0.06205 0.7622 0.589 0.0
O61 O 0.06703 0.77152 0.57081 0.0
C62 C 0.12602 0.77582 0.59886 0.0
O63 O 0.10884 0.77984 0.61003 0.0
O64 O 0.09671 0.73236 0.55185 0.0
C65 C 0.21413 0.12543 0.62889 0.0
O66 O 0.22988 0.12345 0.6428 0.0
O67 O 0.26288 0.09886 0.62315 0.0
Zn68 Zn 0.23778 0.09548 0.60292 0.0
O69 O 0.24614 0.10366 0.57308 0.0
C70 C 0.23436 0.0507 0.61456 0.0
O71 O 0.24699 0.05696 0.63052 0.0
O72 O 0.21408 0.11454 0.61164 0.0
C73 C 0.25734 0.09134 0.56184 0.0
O74 O 0.26476 0.07397 0.57061 0.0
C75 C 0.27897 0.11158 0.62052 0.0
O76 O 0.27988 0.12369 0.6034 0.0
O77 O 0.22763 0.06456 0.60152 0.0
C78 C 0.8833 0.28053 0.63748 0.0
O79 O 0.88659 0.26264 0.6478 0.0
O80 O 0.86905 0.22962 0.61653 0.0
Zn81 Zn 0.8892 0.25187 0.60391 0.0
O82 O 0.92 0.24576 0.61102 0.0
C83 C 0.87806 0.2358 0.56208 0.0
O84 O 0.87505 0.2181 0.57304 0.0
O85 O 0.88319 0.28023 0.61715 0.0
C86 C 0.93342 0.24007 0.59708 0.0
O87 O 0.92696 0.2371 0.57717 0.0
C88 C 0.87445 0.2107 0.6209 0.0
O89 O 0.89443 0.20533 0.618 0.0
O90 O 0.88432 0.25281 0.57187 0.0
C91 C 0.74631 0.8504 0.61873 0.0
O92 O 0.72648 0.84289 0.62075 0.0
O93 O 0.70106 0.88555 0.62255 0.0
Zn94 Zn 0.72517 0.88683 0.60138 0.0
O95 O 0.71554 0.87677 0.57218 0.0
C96 C 0.73475 0.93165 0.61202 0.0
O97 O 0.72644 0.92676 0.63071 0.0
O98 O 0.74956 0.86904 0.61116 0.0
C99 C 0.70358 0.88862 0.5611 0.0
O100 O 0.69635 0.90609 0.56987 0.0
C101 C 0.6838 0.87437 0.61993 0.0
O102 O 0.68114 0.86267 0.60251 0.0
O103 O 0.73598 0.91719 0.59777 0.0
C104 C 0.358 0.12138 0.29325 0.0
O105 O 0.35091 0.11617 0.27398 0.0
O106 O 0.39118 0.14477 0.24845 0.0
Zn107 Zn 0.3958 0.1213 0.26969 0.0
O108 O 0.38677 0.09292 0.25671 0.0
C109 C 0.44065 0.13519 0.27201 0.0
O110 O 0.4333 0.15317 0.26454 0.0
O111 O 0.37799 0.12536 0.29599 0.0
C112 C 0.39636 0.08515 0.24075 0.0
O113 O 0.41232 0.09622 0.23208 0.0
C114 C 0.37817 0.14309 0.23268 0.0
O115 O 0.36624 0.12549 0.23027 0.0
O116 O 0.42743 0.11993 0.27644 0.0
C117 C 0.86724 0.37416 0.27506 0.0
O118 O 0.85053 0.3746 0.26208 0.0
O119 O 0.8706 0.37813 0.21794 0.0
Zn120 Zn 0.89082 0.39246 0.23914 0.0
O121 O 0.92149 0.38673 0.23197 0.0
C122 C 0.88858 0.43691 0.25337 0.0
O123 O 0.89605 0.42994 0.27172 0.0
O124 O 0.88541 0.38123 0.26863 0.0
C125 C 0.93353 0.39983 0.22174 0.0
O126 O 0.92569 0.41786 0.21495 0.0
C127 C 0.87539 0.3769 0.19825 0.0
O128 O 0.89447 0.38381 0.19206 0.0
O129 O 0.88551 0.42385 0.23791 0.0
C130 C 0.61215 0.84779 0.21801 0.0
O131 O 0.60989 0.84151 0.23794 0.0
O132 O 0.61721 0.8813 0.2641 0.0
Zn133 Zn 0.60071 0.88683 0.23709 0.0
O134 O 0.56915 0.88161 0.24145 0.0
C135 C 0.62422 0.92673 0.2297 0.0
O136 O 0.641 0.91534 0.23428 0.0
O137 O 0.60972 0.86737 0.21355 0.0
C138 C 0.55797 0.89616 0.24952 0.0
O139 O 0.5675 0.91425 0.25571 0.0
C140 C 0.60927 0.87263 0.28074 0.0
O141 O 0.58895 0.86626 0.2807 0.0
O142 O 0.60568 0.91763 0.22919 0.0
C143 C 0.10843 0.61556 0.19373 0.0
O144 O 0.09982 0.63165 0.20373 0.0
O145 O 0.0898 0.61217 0.24718 0.0
Zn146 Zn 0.08409 0.59029 0.22404 0.0
O147 O 0.08901 0.56057 0.23453 0.0
C148 C 0.04249 0.6081 0.21766 0.0
O149 O 0.05217 0.62536 0.22571 0.0
O150 O 0.10363 0.59653 0.19948 0.0
C151 C 0.07557 0.55144 0.24697 0.0
O152 O 0.05909 0.56212 0.25366 0.0
C153 C 0.09749 0.60893 0.26575 0.0
O154 O 0.10282 0.58954 0.27123 0.0
O155 O 0.05323 0.59144 0.21472 0.0
C156 C 0.36038 0.85455 0.80055 0.0
O157 O 0.34343 0.85628 0.78807 0.0
O158 O 0.36149 0.87148 0.7462 0.0
Zn159 Zn 0.38218 0.8818 0.7692 0.0
O160 O 0.41288 0.87851 0.76045 0.0
C161 C 0.35852 0.92023 0.77482 0.0
O162 O 0.34193 0.9071 0.77128 0.0
O163 O 0.37782 0.86442 0.79573 0.0
C164 C 0.42342 0.89306 0.75052 0.0
O165 O 0.41373 0.9105 0.74479 0.0
C166 C 0.366 0.87072 0.72641 0.0
O167 O 0.38551 0.87616 0.72022 0.0
O168 O 0.37727 0.91284 0.7752 0.0
C169 C 0.14036 0.38794 0.78087 0.0
O170 O 0.14599 0.39588 0.76223 0.0
O171 O 0.10394 0.361 0.73682 0.0
Zn172 Zn 0.10064 0.3844 0.7586 0.0
O173 O 0.10647 0.41309 0.74509 0.0
C174 C 0.0597 0.3662 0.77202 0.0
O175 O 0.06953 0.34803 0.77009 0.0
O176 O 0.12108 0.38119 0.78341 0.0
C177 C 0.09306 0.42109 0.73221 0.0
O178 O 0.07535 0.41009 0.72724 0.0
C179 C 0.11669 0.36282 0.72112 0.0
O180 O 0.12872 0.38037 0.71923 0.0
O181 O 0.0701 0.38366 0.76859 0.0
C182 C 0.61037 0.13013 0.68443 0.0
O183 O 0.6101 0.14529 0.69906 0.0
O184 O 0.59276 0.12847 0.73722 0.0
Zn185 Zn 0.58563 0.10562 0.71541 0.0
O186 O 0.59676 0.0776 0.72535 0.0
C187 C 0.5421 0.11908 0.71431 0.0
O188 O 0.55157 0.13794 0.71756 0.0
O189 O 0.60007 0.11256 0.68764 0.0
C190 C 0.58864 0.06729 0.74095 0.0
O191 O 0.57233 0.07517 0.75118 0.0
C192 C 0.60666 0.12695 0.7521 0.0
O193 O 0.61751 0.10939 0.75389 0.0
O194 O 0.55358 0.10282 0.71203 0.0
C195 C 0.89319 0.64617 0.7217 0.0
O196 O 0.90125 0.64974 0.74097 0.0
O197 O 0.87697 0.6075 0.76371 0.0
Zn198 Zn 0.89527 0.6045 0.7376 0.0
O199 O 0.9266 0.60796 0.74493 0.0
C200 C 0.87372 0.56358 0.72863 0.0
O201 O 0.85731 0.57252 0.73774 0.0
O202 O 0.8884 0.62702 0.71607 0.0
C203 C 0.93642 0.5927 0.75356 0.0
O204 O 0.92547 0.57525 0.75895 0.0
C205 C 0.88358 0.61462 0.78179 0.0
O206 O 0.90376 0.62108 0.78414 0.0
O207 O 0.89088 0.57471 0.72573 0.0
C208 C 0.3079 0.37955 0.13537 0.0
O209 O 0.297 0.38528 0.15226 0.0
O210 O 0.25264 0.3908 0.13397 0.0
Zn211 Zn 0.27404 0.3999 0.11169 0.0
O212 O 0.26369 0.39218 0.08193 0.0
C213 C 0.2873 0.44285 0.0992 0.0
O214 O 0.29496 0.43308 0.08238 0.0
O215 O 0.3014 0.38483 0.11685 0.0
C216 C 0.2499 0.4029 0.07186 0.0
O217 O 0.24123 0.41921 0.08145 0.0
C218 C 0.23461 0.38131 0.13034 0.0
O219 O 0.22892 0.37639 0.11056 0.0
O220 O 0.27847 0.43178 0.1139 0.0
C221 C 0.22436 0.61061 0.84068 0.0
O222 O 0.24426 0.60844 0.83442 0.0
O223 O 0.26828 0.626 0.87894 0.0
Zn224 Zn 0.24459 0.60353 0.88035 0.0
O225 O 0.25479 0.57455 0.87216 0.0
C226 C 0.23345 0.61852 0.9223 0.0
O227 O 0.23782 0.63735 0.91381 0.0
O228 O 0.22034 0.61007 0.86057 0.0
C229 C 0.26559 0.56364 0.88525 0.0
O230 O 0.27124 0.57214 0.90384 0.0
C231 C 0.28667 0.62303 0.87107 0.0
O232 O 0.29063 0.60448 0.86222 0.0
O233 O 0.23451 0.60186 0.9107 0.0
C234 C 0.35886 0.27177 0.8852 0.0
O235 O 0.35532 0.25739 0.87005 0.0
O236 O 0.38021 0.21906 0.88116 0.0
Zn237 Zn 0.38635 0.24013 0.90505 0.0
O238 O 0.3771 0.22891 0.93363 0.0
C239 C 0.42954 0.2491 0.89043 0.0
O240 O 0.42029 0.24847 0.87142 0.0
O241 O 0.37148 0.26768 0.90063 0.0
C242 C 0.38818 0.21555 0.94379 0.0
O243 O 0.40494 0.20749 0.93446 0.0
C244 C 0.37034 0.20111 0.88347 0.0
O245 O 0.36281 0.19581 0.90237 0.0
O246 O 0.4181 0.24623 0.90696 0.0
C247 C 0.76302 0.39518 0.86121 0.0
O248 O 0.75846 0.37855 0.87335 0.0
O249 O 0.69953 0.39725 0.86691 0.0
Zn250 Zn 0.72481 0.41356 0.87949 0.0
O251 O 0.71978 0.44499 0.88203 0.0
C252 C 0.74572 0.40557 0.92081 0.0
O253 O 0.75943 0.42108 0.91559 0.0
O254 O 0.7507 0.41094 0.86117 0.0
C255 C 0.71569 0.45466 0.89938 0.0
O256 O 0.71276 0.44353 0.91697 0.0
C257 C 0.68094 0.40003 0.87439 0.0
O258 O 0.67839 0.41536 0.88853 0.0
O259 O 0.73035 0.40042 0.90811 0.0
C260 C 0.65671 0.72621 0.89125 0.0
O261 O 0.66073 0.74604 0.89757 0.0
O262 O 0.61621 0.76559 0.87377 0.0
Zn263 Zn 0.61437 0.74068 0.89392 0.0
O264 O 0.61751 0.74982 0.92468 0.0
C265 C 0.5729 0.72884 0.87499 0.0
O266 O 0.58032 0.73947 0.85837 0.0
O267 O 0.63735 0.71999 0.8878 0.0
C268 C 0.60148 0.75706 0.93445 0.0
O269 O 0.58367 0.76023 0.92364 0.0
C270 C 0.61973 0.78503 0.87917 0.0
O271 O 0.62343 0.78989 0.89939 0.0
O272 O 0.58509 0.72642 0.89116 0.0
C273 C 0.71157 0.61536 0.10852 0.0
O274 O 0.73153 0.62216 0.10574 0.0
O275 O 0.75413 0.58287 0.12929 0.0
Zn276 Zn 0.7333 0.57747 0.10487 0.0
O277 O 0.74646 0.58699 0.0771 0.0
C278 C 0.72564 0.5344 0.1198 0.0
O279 O 0.73071 0.54327 0.13837 0.0
O280 O 0.70749 0.59533 0.10925 0.0
C281 C 0.76179 0.57804 0.0677 0.0
O282 O 0.77015 0.56102 0.07625 0.0
C283 C 0.77041 0.59562 0.12821 0.0
O284 O 0.77441 0.60579 0.11025 0.0
O285 O 0.72514 0.54606 0.10318 0.0
C286 C 0.372 0.78025 0.14284 0.0
O287 O 0.35572 0.7666 0.14534 0.0
O288 O 0.36798 0.72473 0.12643 0.0
Zn289 Zn 0.39121 0.74601 0.11814 0.0
O290 O 0.4205 0.73511 0.12467 0.0
C291 C 0.37184 0.74919 0.07596 0.0
O292 O 0.35371 0.74746 0.0865 0.0
O293 O 0.38819 0.77466 0.13221 0.0
C294 C 0.42796 0.72081 0.11255 0.0
O295 O 0.41572 0.71262 0.09712 0.0
C296 C 0.37058 0.70844 0.13815 0.0
O297 O 0.38946 0.70544 0.14698 0.0
O298 O 0.38952 0.74954 0.08628 0.0
C299 C 0.6287 0.18783 0.10612 0.0
O300 O 0.64165 0.20476 0.10814 0.0
O301 O 0.62733 0.23856 0.08134 0.0
Zn302 Zn 0.60751 0.21347 0.07414 0.0
O303 O 0.57761 0.22099 0.08185 0.0
C304 C 0.62446 0.21306 0.0313 0.0
O305 O 0.64187 0.22074 0.04104 0.0
O306 O 0.61414 0.1876 0.09172 0.0
C307 C 0.56759 0.23589 0.07283 0.0
O308 O 0.57701 0.24702 0.05756 0.0
C309 C 0.62371 0.25145 0.09659 0.0
O310 O 0.60672 0.24808 0.10859 0.0
O311 O 0.60812 0.20783 0.04241 0.0
C312 C 0.85495 0.78733 0.62187 0.0
O313 O 0.85057 0.76667 0.6231 0.0
O314 O 0.89225 0.74642 0.6299 0.0
Zn315 Zn 0.89474 0.77109 0.60926 0.0
O316 O 0.88772 0.76114 0.57934 0.0
C317 C 0.94007 0.77568 0.62006 0.0
O318 O 0.9349 0.76207 0.63527 0.0
O319 O 0.87382 0.79368 0.61678 0.0
C320 C 0.90126 0.75041 0.56911 0.0
O321 O 0.91904 0.74497 0.57884 0.0
C322 C 0.88349 0.72836 0.62501 0.0
O323 O 0.87534 0.72534 0.60571 0.0
O324 O 0.9253 0.78281 0.60816 0.0
C325 C 0.2825 0.86879 0.62961 0.0
O326 O 0.26294 0.86885 0.63728 0.0
O327 O 0.23421 0.86264 0.60002 0.0
Zn328 Zn 0.25932 0.88278 0.59374 0.0
O329 O 0.25367 0.91263 0.60382 0.0
C330 C 0.24858 0.87796 0.54958 0.0
O331 O 0.2298 0.87356 0.55821 0.0
O332 O 0.28536 0.87359 0.61006 0.0
C333 C 0.24089 0.92525 0.59478 0.0
O334 O 0.22999 0.91873 0.57771 0.0
C335 C 0.21801 0.86719 0.61118 0.0
O336 O 0.21736 0.88605 0.62047 0.0
O337 O 0.26452 0.88272 0.56178 0.0
C338 C 0.13156 0.219 0.61715 0.0
O339 O 0.13271 0.23282 0.63308 0.0
O340 O 0.11079 0.27186 0.61922 0.0
Zn341 Zn 0.10598 0.25082 0.5951 0.0
O342 O 0.11619 0.26287 0.56713 0.0
C343 C 0.06114 0.24351 0.60659 0.0
O344 O 0.06803 0.24726 0.62626 0.0
O345 O 0.12115 0.22352 0.60027 0.0
C346 C 0.10557 0.27713 0.55773 0.0
O347 O 0.089 0.28509 0.56747 0.0
C348 C 0.12571 0.28622 0.61922 0.0
O349 O 0.13885 0.28747 0.6029 0.0
O350 O 0.07448 0.244 0.59134 0.0
C351 C 0.71733 0.13386 0.61844 0.0
O352 O 0.73395 0.14738 0.61872 0.0
O353 O 0.77211 0.11998 0.6129 0.0
Zn354 Zn 0.74684 0.10322 0.60069 0.0
O355 O 0.74741 0.07244 0.60981 0.0
C356 C 0.75311 0.12313 0.55992 0.0
O357 O 0.75935 0.13941 0.57212 0.0
O358 O 0.71949 0.11494 0.61145 0.0
C359 C 0.75328 0.05755 0.59749 0.0
O360 O 0.76004 0.06234 0.57817 0.0
C361 C 0.791 0.11296 0.61258 0.0
O362 O 0.79402 0.09368 0.60496 0.0
O363 O 0.747 0.10566 0.56865 0.0
C364 C 0.8538 0.28976 0.36814 0.0
O365 O 0.83849 0.27516 0.37121 0.0
O366 O 0.86086 0.23597 0.38232 0.0
Zn367 Zn 0.88073 0.26049 0.39144 0.0
O368 O 0.91121 0.25491 0.38317 0.0
C369 C 0.87332 0.24907 0.43515 0.0
O370 O 0.86793 0.23069 0.42599 0.0
O371 O 0.8724 0.287 0.37599 0.0
C372 C 0.92442 0.24584 0.3955 0.0
O373 O 0.91799 0.23913 0.41436 0.0
C374 C 0.86714 0.21741 0.3776 0.0
O375 O 0.88778 0.21377 0.37783 0.0
O376 O 0.8792 0.26477 0.42348 0.0
C377 C 0.7528 0.84861 0.39912 0.0
O378 O 0.73248 0.84302 0.40181 0.0
O379 O 0.71454 0.88557 0.37513 0.0
Zn380 Zn 0.73504 0.88959 0.39977 0.0
O381 O 0.72053 0.88572 0.42807 0.0
C382 C 0.75095 0.92854 0.38058 0.0
O383 O 0.74629 0.91796 0.36281 0.0
O384 O 0.75809 0.86833 0.39754 0.0
C385 C 0.70744 0.89912 0.43517 0.0
O386 O 0.70238 0.91543 0.42316 0.0
C387 C 0.69582 0.87694 0.37568 0.0
O388 O 0.68834 0.86943 0.39386 0.0
O389 O 0.74794 0.91939 0.39848 0.0
C390 C 0.09576 0.71671 0.33451 0.0
O391 O 0.09028 0.73583 0.32827 0.0
O392 O 0.11836 0.76212 0.36597 0.0
Zn393 Zn 0.09687 0.73889 0.37378 0.0
O394 O 0.06688 0.74932 0.3712 0.0
C395 C 0.11996 0.72889 0.41288 0.0
O396 O 0.13705 0.73127 0.40082 0.0
O397 O 0.09982 0.7137 0.35422 0.0
C398 C 0.05992 0.762 0.38529 0.0
O399 O 0.07287 0.76866 0.40086 0.0
C400 C 0.11366 0.7788 0.35561 0.0
O401 O 0.09374 0.7813 0.34926 0.0
O402 O 0.10147 0.73075 0.40449 0.0
C403 C 0.20661 0.1303 0.39483 0.0
O404 O 0.22715 0.1357 0.39613 0.0
O405 O 0.24651 0.09528 0.37598 0.0
Zn406 Zn 0.2247 0.08999 0.39908 0.0
O407 O 0.23802 0.09422 0.42823 0.0
C408 C 0.21614 0.04759 0.38139 0.0
O409 O 0.22507 0.0559 0.36421 0.0
O410 O 0.20095 0.1106 0.39562 0.0
C411 C 0.25074 0.0805 0.43555 0.0
O412 O 0.25581 0.06428 0.42334 0.0
C413 C 0.26493 0.10423 0.37895 0.0
O414 O 0.27071 0.11068 0.39828 0.0
O415 O 0.21346 0.05946 0.39766 0.0
C416 C 0.59696 0.86121 0.77997 0.0
O417 O 0.59117 0.85569 0.76036 0.0
O418 O 0.61018 0.89833 0.7371 0.0
Zn419 Zn 0.58992 0.90133 0.76174 0.0
O420 O 0.55937 0.89512 0.75253 0.0
C421 C 0.60597 0.94498 0.7662 0.0
O422 O 0.62226 0.93775 0.75545 0.0
O423 O 0.59782 0.88094 0.78502 0.0
C424 C 0.55008 0.9086 0.74076 0.0
O425 O 0.56123 0.92531 0.73375 0.0
C426 C 0.60612 0.88829 0.71971 0.0
O427 O 0.58726 0.87858 0.7169 0.0
O428 O 0.59108 0.93192 0.77196 0.0
C429 C 0.10806 0.62588 0.71104 0.0
O430 O 0.106 0.62951 0.73166 0.0
O431 O 0.12235 0.59142 0.75127 0.0
Zn432 Zn 0.10118 0.58507 0.72741 0.0
O433 O 0.07096 0.58786 0.73763 0.0
C434 C 0.12161 0.54489 0.72051 0.0
O435 O 0.13854 0.55554 0.7282 0.0
O436 O 0.10658 0.60669 0.70423 0.0
C437 C 0.06149 0.57268 0.74767 0.0
O438 O 0.07198 0.55529 0.75194 0.0
C439 C 0.1176 0.59642 0.77035 0.0
O440 O 0.09734 0.59738 0.77579 0.0
O441 O 0.10431 0.5547 0.71746 0.0
C442 C 0.38103 0.13014 0.77789 0.0
O443 O 0.38826 0.13587 0.759 0.0
O444 O 0.35934 0.09108 0.7352 0.0
Zn445 Zn 0.38225 0.08939 0.75786 0.0
O446 O 0.41123 0.09607 0.74525 0.0
C447 C 0.36555 0.04746 0.76994 0.0
O448 O 0.34706 0.05537 0.76434 0.0
O449 O 0.3769 0.11043 0.78145 0.0
C450 C 0.4205 0.08208 0.73415 0.0
O451 O 0.41067 0.06345 0.73064 0.0
C452 C 0.36144 0.10231 0.71839 0.0
O453 O 0.37928 0.1137 0.71551 0.0
O454 O 0.38247 0.05936 0.76918 0.0
C455 C 0.86836 0.3827 0.79135 0.0
O456 O 0.8772 0.36512 0.78466 0.0
O457 O 0.88899 0.37843 0.73889 0.0
Zn458 Zn 0.89428 0.40349 0.75856 0.0
O459 O 0.88853 0.43144 0.74416 0.0
C460 C 0.93435 0.38613 0.77191 0.0
O461 O 0.9232 0.36799 0.77001 0.0
O462 O 0.87395 0.40053 0.78305 0.0
C463 C 0.90257 0.44145 0.73309 0.0
O464 O 0.9212 0.43276 0.72988 0.0
C465 C 0.88533 0.3791 0.71887 0.0
O466 O 0.88451 0.39771 0.70927 0.0
O467 O 0.92507 0.40361 0.76852 0.0
C468 C 0.62668 0.12142 0.21425 0.0
O469 O 0.64033 0.12153 0.23041 0.0
O470 O 0.6226 0.09968 0.26549 0.0
Zn471 Zn 0.60002 0.09526 0.24252 0.0
O472 O 0.57104 0.10462 0.25241 0.0
C473 C 0.61488 0.05343 0.23279 0.0
O474 O 0.63373 0.06344 0.23439 0.0
O475 O 0.60865 0.11143 0.21596 0.0
C476 C 0.55891 0.09173 0.26283 0.0
O477 O 0.56583 0.07268 0.26754 0.0
C478 C 0.61921 0.10263 0.2853 0.0
O479 O 0.59939 0.10346 0.29216 0.0
O480 O 0.59799 0.06394 0.23536 0.0
C481 C 0.86577 0.6455 0.28119 0.0
O482 O 0.86385 0.65291 0.26163 0.0
O483 O 0.85567 0.61179 0.23462 0.0
Zn484 Zn 0.8775 0.60834 0.25815 0.0
O485 O 0.90691 0.61764 0.24822 0.0
C486 C 0.87229 0.56296 0.25274 0.0
O487 O 0.86451 0.56897 0.23417 0.0
O488 O 0.87077 0.62615 0.28379 0.0
C489 C 0.91649 0.60732 0.2338 0.0
O490 O 0.90659 0.59075 0.22464 0.0
C491 C 0.85884 0.62334 0.21818 0.0
O492 O 0.87674 0.63493 0.2167 0.0
O493 O 0.8785 0.57718 0.26626 0.0
C494 C 0.36798 0.89716 0.26478 0.0
O495 O 0.37485 0.88073 0.25392 0.0
O496 O 0.38257 0.89928 0.20951 0.0
Zn497 Zn 0.38952 0.92189 0.23183 0.0
O498 O 0.38385 0.95178 0.22206 0.0
C499 C 0.43097 0.90434 0.24215 0.0
O500 O 0.42097 0.88572 0.23906 0.0
O501 O 0.37222 0.91601 0.25816 0.0
C502 C 0.39766 0.96219 0.21102 0.0
O503 O 0.41456 0.95236 0.20404 0.0
C504 C 0.3955 0.89557 0.19442 0.0
O505 O 0.41299 0.90773 0.19258 0.0
O506 O 0.42068 0.9214 0.24002 0.0
C507 C 0.13778 0.37505 0.21215 0.0
O508 O 0.14447 0.38064 0.23147 0.0
O509 O 0.10346 0.36736 0.25855 0.0
Zn510 Zn 0.09855 0.3841 0.23163 0.0
O511 O 0.10457 0.41543 0.23674 0.0
C512 C 0.05518 0.3657 0.22868 0.0
O513 O 0.06321 0.34986 0.23958 0.0
O514 O 0.11776 0.37454 0.20811 0.0
C515 C 0.09167 0.4259 0.24805 0.0
O516 O 0.0754 0.41565 0.25709 0.0
C517 C 0.11413 0.37454 0.27465 0.0
O518 O 0.12306 0.39387 0.27394 0.0
O519 O 0.06752 0.38116 0.22291 0.0
C520 C 0.75948 0.65493 0.90472 0.0
O521 O 0.77932 0.66042 0.91026 0.0
O522 O 0.7984 0.61359 0.88735 0.0
Zn523 Zn 0.77449 0.61189 0.90858 0.0
O524 O 0.78433 0.61268 0.93924 0.0
C525 C 0.75256 0.57649 0.88653 0.0
O526 O 0.75694 0.58766 0.86924 0.0
O527 O 0.75403 0.63523 0.90307 0.0
C528 C 0.79422 0.59684 0.94668 0.0
O529 O 0.80028 0.58189 0.93339 0.0
C530 C 0.81721 0.6216 0.89028 0.0
O531 O 0.82268 0.62968 0.90909 0.0
O532 O 0.75844 0.58387 0.90471 0.0
C533 C 0.76954 0.36414 0.12714 0.0
O534 O 0.74946 0.36256 0.13336 0.0
O535 O 0.728 0.34975 0.08767 0.0
Zn536 Zn 0.74898 0.37485 0.088 0.0
O537 O 0.73542 0.40192 0.09772 0.0
C538 C 0.75322 0.36913 0.04231 0.0
O539 O 0.74046 0.35237 0.04573 0.0
O540 O 0.77351 0.36898 0.10781 0.0
C541 C 0.72396 0.41219 0.08462 0.0
O542 O 0.7196 0.40379 0.06568 0.0
C543 C 0.71073 0.34817 0.09825 0.0
O544 O 0.70546 0.36391 0.11098 0.0
O545 O 0.75979 0.38048 0.05815 0.0
C546 C 0.63337 0.71351 0.10262 0.0
O547 O 0.6385 0.73373 0.09899 0.0
O548 O 0.60148 0.75555 0.11914 0.0
Zn549 Zn 0.59304 0.73129 0.09928 0.0
O550 O 0.59476 0.74075 0.06864 0.0
C551 C 0.55477 0.72449 0.12413 0.0
O552 O 0.56709 0.73275 0.13946 0.0
O553 O 0.61365 0.7078 0.10366 0.0
C554 C 0.57926 0.74972 0.05931 0.0
O555 O 0.56167 0.75321 0.07005 0.0
C556 C 0.60542 0.7748 0.1136 0.0
O557 O 0.60431 0.78001 0.09328 0.0
O558 O 0.56271 0.72151 0.10571 0.0
C559 C 0.20535 0.61508 0.11148 0.0
O560 O 0.21294 0.6344 0.10702 0.0
O561 O 0.26124 0.62561 0.09923 0.0
Zn562 Zn 0.24253 0.60112 0.08837 0.0
O563 O 0.25743 0.57333 0.09159 0.0
C564 C 0.23416 0.62439 0.04958 0.0
O565 O 0.23641 0.64109 0.06237 0.0
O566 O 0.21531 0.59892 0.10501 0.0
C567 C 0.27009 0.56625 0.0776 0.0
O568 O 0.27435 0.57779 0.06053 0.0
C569 C 0.27523 0.62401 0.114 0.0
O570 O 0.27781 0.60539 0.12318 0.0
O571 O 0.23577 0.60573 0.0573 0.0
C572 C 0.38763 0.2843 0.12239 0.0
O573 O 0.39261 0.27521 0.14062 0.0
O574 O 0.39364 0.22792 0.12859 0.0
Zn575 Zn 0.40357 0.24557 0.10366 0.0
O576 O 0.39439 0.23164 0.07594 0.0
C577 C 0.44744 0.23675 0.1151 0.0
O578 O 0.43822 0.2236 0.12884 0.0
O579 O 0.39114 0.27461 0.10491 0.0
C580 C 0.40374 0.21527 0.06897 0.0
O581 O 0.41868 0.20669 0.08082 0.0
C582 C 0.37775 0.21465 0.12779 0.0
O583 O 0.36662 0.21238 0.10991 0.0
O584 O 0.4358 0.24825 0.10333 0.0
C585 C 0.27552 0.3654 0.88082 0.0
O586 O 0.26108 0.36991 0.8662 0.0
O587 O 0.22855 0.39389 0.88559 0.0
Zn588 Zn 0.25324 0.39628 0.90643 0.0
O589 O 0.24396 0.39171 0.93681 0.0
C590 C 0.26611 0.43714 0.88822 0.0
O591 O 0.25848 0.42846 0.87038 0.0
O592 O 0.2753 0.3749 0.89887 0.0
C593 C 0.23236 0.4054 0.94581 0.0
O594 O 0.22513 0.42127 0.93437 0.0
C595 C 0.21073 0.38381 0.88823 0.0
O596 O 0.20691 0.37407 0.90647 0.0
O597 O 0.26614 0.42606 0.90521 0.0
C598 C 0.60171 0.22923 0.82789 0.0
O599 O 0.59306 0.24772 0.82403 0.0
O600 O 0.61748 0.27381 0.86275 0.0
Zn601 Zn 0.6006 0.24675 0.8691 0.0
O602 O 0.56889 0.25156 0.86707 0.0
C603 C 0.6268 0.23862 0.90658 0.0
O604 O 0.64206 0.24789 0.89518 0.0
O605 O 0.60719 0.22483 0.84697 0.0
C606 C 0.55734 0.25405 0.8835 0.0
O607 O 0.56644 0.25427 0.90257 0.0
C608 C 0.61066 0.29223 0.86716 0.0
O609 O 0.59182 0.29382 0.87619 0.0
O610 O 0.60807 0.23615 0.89852 0.0
C611 C 0.38607 0.7666 0.88752 0.0
O612 O 0.36986 0.75303 0.89069 0.0
O613 O 0.38906 0.71189 0.89981 0.0
Zn614 Zn 0.41098 0.73447 0.90884 0.0
O615 O 0.44065 0.72637 0.9005 0.0
C616 C 0.39223 0.74063 0.95027 0.0
O617 O 0.37424 0.73972 0.93909 0.0
O618 O 0.4047 0.76203 0.89417 0.0
C619 C 0.45212 0.71453 0.91208 0.0
O620 O 0.44416 0.70669 0.92992 0.0
C621 C 0.39267 0.69663 0.88697 0.0
O622 O 0.41201 0.69478 0.87909 0.0
O623 O 0.40996 0.73879 0.94066 0.0
H624 H 0.09686 0.33473 0.28109 0.0
H625 H 0.13521 0.38489 0.31216 0.0
H626 H 0.13709 0.36344 0.34471 0.0
H627 H 0.12725 0.33065 0.36454 0.0
H628 H 0.08866 0.28083 0.33311 0.0
H629 H 0.08753 0.302 0.30053 0.0
C630 C 0.1057 0.34099 0.29494 0.0
C631 C 0.11585 0.3614 0.29418 0.0
C632 C 0.10665 0.32865 0.31358 0.0
C633 C 0.12723 0.36923 0.3123 0.0
C634 C 0.1283 0.35698 0.33094 0.0
C635 C 0.11863 0.32441 0.35055 0.0
C636 C 0.10804 0.30419 0.35132 0.0
C637 C 0.11797 0.33671 0.33179 0.0
C638 C 0.09696 0.29635 0.33302 0.0
C639 C 0.09628 0.30844 0.31434 0.0
H640 H 0.68716 0.10354 0.36096 0.0
H641 H 0.73037 0.09868 0.30759 0.0
H642 H 0.70019 0.10032 0.28259 0.0
H643 H 0.66158 0.10175 0.27585 0.0
H644 H 0.61807 0.10626 0.329 0.0
H645 H 0.64841 0.10627 0.35411 0.0
C646 C 0.68999 0.10295 0.34386 0.0
C647 C 0.711 0.10088 0.33619 0.0
C648 C 0.67254 0.10379 0.32953 0.0
C649 C 0.71438 0.10019 0.31397 0.0
C650 C 0.69713 0.10112 0.29963 0.0
C651 C 0.65868 0.10283 0.29292 0.0
C652 C 0.63756 0.10389 0.30052 0.0
C653 C 0.67614 0.1027 0.30724 0.0
C654 C 0.63416 0.10538 0.3227 0.0
C655 C 0.6515 0.10536 0.33708 0.0
H656 H 0.86966 0.72094 0.34809 0.0
H657 H 0.88691 0.66956 0.3902 0.0
H658 H 0.88069 0.6437 0.36113 0.0
H659 H 0.87315 0.63618 0.3231 0.0
H660 H 0.8567 0.68788 0.281 0.0
H661 H 0.85963 0.71311 0.31088 0.0
C662 C 0.87192 0.70407 0.351 0.0
C663 C 0.87898 0.69722 0.37122 0.0
C664 C 0.86853 0.68936 0.3342 0.0
C665 C 0.88159 0.67527 0.37475 0.0
C666 C 0.87808 0.66048 0.35812 0.0
C667 C 0.86996 0.65292 0.32049 0.0
C668 C 0.86493 0.66016 0.29979 0.0
C669 C 0.87196 0.66741 0.33768 0.0
C670 C 0.86074 0.68189 0.29673 0.0
C671 C 0.86246 0.69635 0.3138 0.0
H672 H 0.35172 0.85947 0.28061 0.0
H673 H 0.35469 0.92765 0.29252 0.0
H674 H 0.33124 0.92289 0.32324 0.0
H675 H 0.30802 0.8999 0.34512 0.0
H676 H 0.30355 0.83188 0.3327 0.0
H677 H 0.32978 0.83604 0.30399 0.0
C678 C 0.34737 0.87326 0.29002 0.0
C679 C 0.3548 0.8939 0.28414 0.0
C680 C 0.33363 0.87046 0.30757 0.0
C681 C 0.34905 0.9116 0.29655 0.0
C682 C 0.33566 0.9089 0.31416 0.0
C683 C 0.31294 0.8859 0.33634 0.0
C684 C 0.30371 0.86563 0.34097 0.0
C685 C 0.32759 0.88847 0.31959 0.0
C686 C 0.31034 0.84769 0.32942 0.0
C687 C 0.32527 0.85007 0.31294 0.0
H688 H 0.10866 0.62485 0.66731 0.0
H689 H 0.11452 0.66786 0.72158 0.0
H690 H 0.11762 0.69837 0.69763 0.0
H691 H 0.11674 0.71308 0.66158 0.0
H692 H 0.11003 0.67066 0.60698 0.0
H693 H 0.10945 0.63968 0.63079 0.0
C694 C 0.11076 0.64088 0.67388 0.0
C695 C 0.11119 0.64405 0.69621 0.0
C696 C 0.11236 0.65848 0.65999 0.0
C697 C 0.11397 0.66494 0.70446 0.0
C698 C 0.11577 0.68244 0.69078 0.0
C699 C 0.11532 0.69707 0.65482 0.0
C700 C 0.11329 0.69421 0.63255 0.0
C701 C 0.11469 0.67942 0.66856 0.0
C702 C 0.11156 0.67332 0.62409 0.0
C703 C 0.11116 0.6556 0.63769 0.0
H704 H 0.28031 0.09015 0.65808 0.0
H705 H 0.31674 0.13533 0.61957 0.0
H706 H 0.34548 0.1366 0.64656 0.0
H707 H 0.36029 0.12462 0.68101 0.0
H708 H 0.3234 0.07948 0.71923 0.0
H709 H 0.29479 0.07852 0.69236 0.0
C710 C 0.29452 0.1003 0.65553 0.0
C711 C 0.29638 0.1126 0.6368 0.0
C712 C 0.31091 0.10097 0.67107 0.0
C713 C 0.3149 0.12569 0.63384 0.0
C714 C 0.33134 0.12642 0.64926 0.0
C715 C 0.34599 0.11459 0.68347 0.0
C716 C 0.34404 0.10213 0.70211 0.0
C717 C 0.32952 0.11409 0.66793 0.0
C718 C 0.32536 0.08924 0.70505 0.0
C719 C 0.30897 0.08866 0.68968 0.0
H720 H 0.883 0.28581 0.6805 0.0
H721 H 0.87925 0.32086 0.62126 0.0
H722 H 0.87852 0.35455 0.64127 0.0
H723 H 0.88078 0.3741 0.67561 0.0
H724 H 0.88506 0.33855 0.73459 0.0
H725 H 0.88369 0.30503 0.71458 0.0
C726 C 0.8819 0.30079 0.67192 0.0
C727 C 0.88132 0.30082 0.64943 0.0
C728 C 0.88167 0.32004 0.68348 0.0
C729 C 0.87978 0.32039 0.63859 0.0
C730 C 0.8794 0.33966 0.65002 0.0
C731 C 0.88127 0.35901 0.68408 0.0
C732 C 0.88316 0.35888 0.70655 0.0
C733 C 0.88063 0.3397 0.67247 0.0
C734 C 0.88373 0.33917 0.71729 0.0
C735 C 0.88295 0.31995 0.70588 0.0
H736 H 0.68526 0.89583 0.65779 0.0
H737 H 0.64447 0.85339 0.61927 0.0
H738 H 0.61674 0.85397 0.64669 0.0
H739 H 0.60412 0.86659 0.68168 0.0
H740 H 0.64538 0.90887 0.71996 0.0
H741 H 0.67284 0.90824 0.69251 0.0
C742 C 0.67031 0.88668 0.65534 0.0
C743 C 0.66696 0.87459 0.63649 0.0
C744 C 0.6545 0.88705 0.67114 0.0
C745 C 0.64749 0.86283 0.63364 0.0
C746 C 0.63161 0.86316 0.64931 0.0
C747 C 0.61911 0.87567 0.68401 0.0
C748 C 0.62264 0.88774 0.70287 0.0
C749 C 0.63494 0.87523 0.66814 0.0
C750 C 0.6422 0.8994 0.70563 0.0
C751 C 0.65795 0.89908 0.68993 0.0
H752 H 0.31596 0.10912 0.29248 0.0
H753 H 0.36656 0.13241 0.33512 0.0
H754 H 0.34201 0.1297 0.36543 0.0
H755 H 0.30643 0.11962 0.37988 0.0
H756 H 0.25642 0.09552 0.33688 0.0
H757 H 0.28058 0.09966 0.30664 0.0
C758 C 0.32164 0.11374 0.30837 0.0
C759 C 0.34307 0.12094 0.31153 0.0
C760 C 0.30758 0.1119 0.32568 0.0
C761 C 0.35014 0.12679 0.33225 0.0
C762 C 0.33612 0.12522 0.34959 0.0
C763 C 0.3008 0.11534 0.36389 0.0
C764 C 0.27965 0.10723 0.36069 0.0
C765 C 0.31485 0.11761 0.34651 0.0
C766 C 0.27263 0.10174 0.33984 0.0
C767 C 0.28643 0.10411 0.32251 0.0
H768 H 0.88178 0.32263 0.35949 0.0
H769 H 0.81878 0.29662 0.34251 0.0
H770 H 0.8163 0.32242 0.31337 0.0
H771 H 0.83392 0.34936 0.29017 0.0
H772 H 0.89752 0.37412 0.30676 0.0
H773 H 0.89775 0.3519 0.33869 0.0
C774 C 0.86736 0.32275 0.34961 0.0
C775 C 0.85065 0.30749 0.35296 0.0
C776 C 0.86623 0.33729 0.33267 0.0
C777 C 0.83197 0.30809 0.34018 0.0
C778 C 0.83057 0.32278 0.32345 0.0
C779 C 0.84768 0.35014 0.30095 0.0
C780 C 0.86581 0.36312 0.2959 0.0
C781 C 0.8479 0.337 0.31914 0.0
C782 C 0.88347 0.36405 0.31011 0.0
C783 C 0.88364 0.35134 0.32838 0.0
H784 H 0.65417 0.8624 0.37109 0.0
H785 H 0.70765 0.88988 0.33585 0.0
H786 H 0.68575 0.89024 0.30342 0.0
H787 H 0.65139 0.8839 0.28525 0.0
H788 H 0.59743 0.85681 0.31993 0.0
H789 H 0.61964 0.85507 0.35236 0.0
C790 C 0.66105 0.86837 0.35629 0.0
C791 C 0.68249 0.87617 0.35596 0.0
C792 C 0.64831 0.86865 0.3376 0.0
C793 C 0.69117 0.88384 0.33663 0.0
C794 C 0.67867 0.88406 0.31803 0.0
C795 C 0.64444 0.87753 0.29986 0.0
C796 C 0.62276 0.87058 0.30018 0.0
C797 C 0.65721 0.87669 0.31838 0.0
C798 C 0.61409 0.86231 0.31925 0.0
C799 C 0.62676 0.86133 0.33781 0.0
H800 H 0.08993 0.65062 0.25814 0.0
H801 H 0.10964 0.60767 0.30802 0.0
H802 H 0.11141 0.63741 0.33366 0.0
H803 H 0.10627 0.67541 0.34207 0.0
H804 H 0.08644 0.71797 0.29185 0.0
H805 H 0.08587 0.68847 0.26618 0.0
C806 C 0.09468 0.64771 0.27461 0.0
C807 C 0.09955 0.62693 0.28117 0.0
C808 C 0.0956 0.6648 0.28922 0.0
C809 C 0.10578 0.62352 0.30254 0.0
C810 C 0.10676 0.6405 0.31722 0.0
C811 C 0.10189 0.67825 0.32549 0.0
C812 C 0.09632 0.69886 0.31893 0.0
C813 C 0.10154 0.66118 0.31076 0.0
C814 C 0.09076 0.70227 0.29737 0.0
C815 C 0.09041 0.68541 0.28266 0.0
H816 H 0.36884 0.87213 0.68292 0.0
H817 H 0.32427 0.85885 0.73414 0.0
H818 H 0.29482 0.85508 0.70829 0.0
H819 H 0.28123 0.85866 0.67171 0.0
H820 H 0.32536 0.87287 0.6204 0.0
H821 H 0.35551 0.87288 0.64574 0.0
C822 C 0.35273 0.86817 0.68842 0.0
C823 C 0.34875 0.86603 0.71046 0.0
C824 C 0.33577 0.86628 0.67348 0.0
C825 C 0.32779 0.86077 0.71728 0.0
C826 C 0.3109 0.85862 0.70252 0.0
C827 C 0.29745 0.86154 0.66599 0.0
C828 C 0.301 0.86601 0.64424 0.0
C829 C 0.31463 0.86184 0.68065 0.0
C830 C 0.32216 0.8695 0.63709 0.0
C831 C 0.33941 0.86958 0.65158 0.0
H832 H 0.14188 0.36156 0.68575 0.0
H833 H 0.09196 0.32597 0.71912 0.0
H834 H 0.09084 0.29892 0.69084 0.0
H835 H 0.10305 0.28599 0.65613 0.0
H836 H 0.15293 0.32138 0.62257 0.0
H837 H 0.15507 0.34784 0.65151 0.0
C838 C 0.13082 0.34784 0.6869 0.0
C839 C 0.11696 0.34588 0.70449 0.0
C840 C 0.13019 0.33233 0.67053 0.0
C841 C 0.10279 0.32794 0.70575 0.0
C842 C 0.1021 0.31245 0.68956 0.0
C843 C 0.11444 0.29945 0.65514 0.0
C844 C 0.12772 0.30176 0.63714 0.0
C845 C 0.11557 0.3146 0.67179 0.0
C846 C 0.14249 0.31923 0.63622 0.0
C847 C 0.14371 0.33439 0.65275 0.0
H848 H 0.67916 0.11215 0.61506 0.0
H849 H 0.70962 0.16814 0.64441 0.0
H850 H 0.67737 0.17385 0.66545 0.0
H851 H 0.64263 0.16 0.67889 0.0
H852 H 0.61309 0.10313 0.65024 0.0
H853 H 0.64278 0.10092 0.62528 0.0
C854 C 0.67867 0.12577 0.62586 0.0
C855 C 0.69688 0.13946 0.62849 0.0
C856 C 0.66029 0.12872 0.63811 0.0
C857 C 0.69586 0.15725 0.64223 0.0
C858 C 0.67746 0.16048 0.65432 0.0
C859 C 0.64246 0.14738 0.6669 0.0
C860 C 0.62586 0.13154 0.66668 0.0
C861 C 0.65986 0.14589 0.65291 0.0
C862 C 0.62581 0.11537 0.65095 0.0
C863 C 0.64282 0.11405 0.6367 0.0
H864 H 0.89569 0.73053 0.66684 0.0
H865 H 0.86967 0.6868 0.61874 0.0
H866 H 0.86964 0.65762 0.64461 0.0
H867 H 0.87806 0.64431 0.68061 0.0
H868 H 0.90401 0.68827 0.72856 0.0
H869 H 0.90288 0.71756 0.70302 0.0
C870 C 0.88997 0.71463 0.662 0.0
C871 C 0.8828 0.71084 0.64085 0.0
C872 C 0.88998 0.69795 0.67693 0.0
C873 C 0.87531 0.69017 0.63491 0.0
C874 C 0.8753 0.67346 0.64969 0.0
C875 C 0.88336 0.66031 0.68551 0.0
C876 C 0.8912 0.66404 0.70645 0.0
C877 C 0.88274 0.67713 0.6707 0.0
C878 C 0.89795 0.6849 0.71254 0.0
C879 C 0.89734 0.70169 0.69793 0.0
H880 H 0.33247 0.36437 0.10352 0.0
H881 H 0.3229 0.36064 0.17182 0.0
H882 H 0.34848 0.33192 0.17416 0.0
H883 H 0.37073 0.30552 0.15619 0.0
H884 H 0.3789 0.30878 0.08765 0.0
H885 H 0.35675 0.34011 0.0861 0.0
C886 C 0.33613 0.35747 0.11899 0.0
C887 C 0.32557 0.36446 0.13742 0.0
C888 C 0.35047 0.34073 0.12015 0.0
C889 C 0.3307 0.35547 0.15734 0.0
C890 C 0.34527 0.33899 0.15869 0.0
C891 C 0.36788 0.31325 0.14096 0.0
C892 C 0.37624 0.30466 0.12204 0.0
C893 C 0.35481 0.33111 0.1401 0.0
C894 C 0.37246 0.31491 0.10244 0.0
C895 C 0.3598 0.33284 0.10151 0.0
H896 H 0.35038 0.69972 0.89559 0.0
H897 H 0.39555 0.65885 0.86498 0.0
H898 H 0.3665 0.63283 0.85639 0.0
H899 H 0.32847 0.62114 0.85884 0.0
H900 H 0.28362 0.66238 0.88955 0.0
H901 H 0.3124 0.68886 0.89667 0.0
C902 C 0.35391 0.68513 0.88702 0.0
C903 C 0.37512 0.68115 0.88109 0.0
C904 C 0.33719 0.67031 0.88212 0.0
C905 C 0.37936 0.66228 0.86978 0.0
C906 C 0.36276 0.64739 0.86488 0.0
C907 C 0.32496 0.63599 0.86695 0.0
C908 C 0.30393 0.63969 0.87374 0.0
C909 C 0.34163 0.65116 0.87113 0.0
C910 C 0.29966 0.65905 0.88418 0.0
C911 C 0.31612 0.67422 0.88832 0.0
H912 H 0.30978 0.35567 0.90554 0.0
H913 H 0.27588 0.33688 0.84746 0.0
H914 H 0.29962 0.30689 0.84286 0.0
H915 H 0.32852 0.28468 0.85669 0.0
H916 H 0.36209 0.3038 0.91492 0.0
H917 H 0.34003 0.33504 0.91796 0.0
C918 C 0.30764 0.3451 0.8918 0.0
C919 C 0.29095 0.34838 0.877 0.0
C920 C 0.32125 0.32789 0.8893 0.0
C921 C 0.28856 0.33467 0.85915 0.0
C922 C 0.3021 0.31748 0.85653 0.0
C923 C 0.33114 0.29578 0.86993 0.0
C924 C 0.34679 0.29174 0.88565 0.0
C925 C 0.31828 0.31373 0.8717 0.0
C926 C 0.35006 0.30639 0.90265 0.0
C927 C 0.33743 0.32428 0.90445 0.0
H928 H 0.60357 0.33318 0.87954 0.0
H929 H 0.64908 0.29446 0.84658 0.0
H930 H 0.67375 0.32537 0.84351 0.0
H931 H 0.68384 0.36228 0.85316 0.0
H932 H 0.63924 0.40075 0.88761 0.0
H933 H 0.61263 0.37113 0.88674 0.0
C934 C 0.61879 0.33156 0.87148 0.0
C935 C 0.62457 0.31148 0.86354 0.0
C936 C 0.63308 0.34933 0.87005 0.0
C937 C 0.64431 0.30967 0.85305 0.0
C938 C 0.65844 0.32735 0.85126 0.0
C939 C 0.66818 0.36435 0.86018 0.0
C940 C 0.66363 0.38364 0.87063 0.0
C941 C 0.6532 0.34711 0.86013 0.0
C942 C 0.64322 0.38602 0.87959 0.0
C943 C 0.62802 0.36906 0.87918 0.0
H944 H 0.71846 0.64859 0.89055 0.0
H945 H 0.76412 0.69819 0.91113 0.0
H946 H 0.73659 0.7249 0.90748 0.0
H947 H 0.69909 0.73377 0.90031 0.0
H948 H 0.6535 0.68392 0.88012 0.0
H949 H 0.6816 0.65772 0.88161 0.0
C950 C 0.72245 0.66526 0.89417 0.0
C951 C 0.74327 0.67135 0.90129 0.0
C952 C 0.70656 0.68048 0.89213 0.0
C953 C 0.7482 0.69304 0.9057 0.0
C954 C 0.73246 0.70833 0.90364 0.0
C955 C 0.69532 0.71721 0.89607 0.0
C956 C 0.67418 0.71081 0.89027 0.0
C957 C 0.71151 0.70217 0.89714 0.0
C958 C 0.66961 0.68929 0.88473 0.0
C959 C 0.68566 0.67427 0.88561 0.0
H960 H 0.6284 0.67035 0.10804 0.0
H961 H 0.67661 0.72125 0.10205 0.0
H962 H 0.70489 0.69539 0.10426 0.0
H963 H 0.71598 0.65847 0.10668 0.0
H964 H 0.66822 0.60715 0.11216 0.0
H965 H 0.6397 0.63312 0.11151 0.0
C966 C 0.64509 0.67579 0.10731 0.0
C967 C 0.65036 0.6977 0.10479 0.0
C968 C 0.66135 0.6608 0.10848 0.0
C969 C 0.67207 0.70448 0.1039 0.0
C970 C 0.68829 0.68971 0.10517 0.0
C971 C 0.69934 0.65291 0.10783 0.0
C972 C 0.69423 0.6309 0.10938 0.0
C973 C 0.6831 0.66784 0.10727 0.0
C974 C 0.67259 0.62402 0.11092 0.0
C975 C 0.65627 0.63885 0.11051 0.0
H976 H 0.33084 0.70957 0.1203 0.0
H977 H 0.37159 0.66942 0.15793 0.0
H978 H 0.34472 0.64006 0.15525 0.0
H979 H 0.31111 0.6249 0.13943 0.0
H980 H 0.27133 0.66513 0.10078 0.0
H981 H 0.2964 0.69536 0.10673 0.0
C982 C 0.3338 0.69449 0.12814 0.0
C983 C 0.35331 0.69164 0.1391 0.0
C984 C 0.31853 0.67761 0.12619 0.0
C985 C 0.35676 0.67202 0.14929 0.0
C986 C 0.34143 0.65519 0.14769 0.0
C987 C 0.30781 0.64034 0.13251 0.0
C988 C 0.28949 0.64267 0.11949 0.0
C989 C 0.32248 0.65765 0.13575 0.0
C990 C 0.28542 0.66281 0.11069 0.0
C991 C 0.29974 0.68014 0.11409 0.0
H992 H 0.67448 0.33758 0.12058 0.0
H993 H 0.71553 0.31496 0.07051 0.0
H994 H 0.69247 0.28302 0.06595 0.0
H995 H 0.66053 0.2617 0.07566 0.0
H996 H 0.6193 0.2838 0.12576 0.0
H997 H 0.64264 0.31568 0.13085 0.0
C998 C 0.67838 0.32566 0.10868 0.0
C999 C 0.69669 0.32872 0.09589 0.0
C1000 C 0.66505 0.30721 0.10614 0.0
C1001 C 0.70155 0.31305 0.0806 0.0
C1002 C 0.68837 0.29475 0.07795 0.0
C1003 C 0.65663 0.27345 0.08774 0.0
C1004 C 0.63816 0.27039 0.10026 0.0
C1005 C 0.67007 0.2917 0.09057 0.0
C1006 C 0.63342 0.28576 0.11589 0.0
C1007 C 0.64674 0.30402 0.11879 0.0
H1008 H 0.60931 0.86696 0.82171 0.0
H1009 H 0.59554 0.81801 0.77397 0.0
H1010 H 0.60229 0.7903 0.80024 0.0
H1011 H 0.61089 0.77986 0.83684 0.0
H1012 H 0.62438 0.82843 0.88498 0.0
H1013 H 0.6191 0.85638 0.85837 0.0
C1014 C 0.60785 0.85023 0.81703 0.0
C1015 C 0.60182 0.84459 0.79591 0.0
C1016 C 0.61171 0.8343 0.83226 0.0
C1017 C 0.60009 0.82284 0.79012 0.0
C1018 C 0.60395 0.80695 0.80513 0.0
C1019 C 0.61281 0.79655 0.84155 0.0
C1020 C 0.61795 0.80203 0.86291 0.0
C1021 C 0.6096 0.81249 0.82626 0.0
C1022 C 0.6204 0.82375 0.86866 0.0
C1023 C 0.61734 0.83975 0.85346 0.0
H1024 H 0.18144 0.61091 0.84842 0.0
H1025 H 0.22752 0.61053 0.79716 0.0
H1026 H 0.19841 0.60686 0.77089 0.0
H1027 H 0.16016 0.6016 0.76261 0.0
H1028 H 0.1139 0.60169 0.81367 0.0
H1029 H 0.14289 0.60765 0.83991 0.0
C1030 C 0.18513 0.61024 0.83149 0.0
C1031 C 0.20664 0.61083 0.82479 0.0
C1032 C 0.16832 0.60789 0.81646 0.0
C1033 C 0.21111 0.61002 0.80278 0.0
C1034 C 0.19448 0.60785 0.78773 0.0
C1035 C 0.15638 0.60297 0.77947 0.0
C1036 C 0.13493 0.60099 0.7862 0.0
C1037 C 0.17307 0.60638 0.79442 0.0
C1038 C 0.1303 0.60306 0.80808 0.0
C1039 C 0.14686 0.60646 0.82309 0.0
H1040 H 0.36459 0.12408 0.81777 0.0
H1041 H 0.39247 0.17259 0.77651 0.0
H1042 H 0.39068 0.19899 0.80524 0.0
H1043 H 0.38269 0.20798 0.84243 0.0
H1044 H 0.35482 0.15965 0.88389 0.0
H1045 H 0.35497 0.13357 0.85463 0.0
C1046 C 0.37019 0.14045 0.81503 0.0
C1047 C 0.37879 0.14629 0.79505 0.0
C1048 C 0.36914 0.15559 0.83164 0.0
C1049 C 0.38584 0.16761 0.79173 0.0
C1050 C 0.38484 0.18274 0.80817 0.0
C1051 C 0.37653 0.19177 0.84507 0.0
C1052 C 0.36889 0.18575 0.86537 0.0
C1053 C 0.37675 0.17685 0.82824 0.0
C1054 C 0.36084 0.16472 0.86844 0.0
C1055 C 0.36097 0.14976 0.85173 0.0
H1056 H 0.84245 0.41478 0.80217 0.0
H1057 H 0.85364 0.34818 0.81456 0.0
H1058 H 0.82222 0.34619 0.8378 0.0
H1059 H 0.7908 0.36319 0.85354 0.0
H1060 H 0.77953 0.42955 0.83965 0.0
H1061 H 0.81175 0.43171 0.81799 0.0
C1062 C 0.83817 0.39984 0.81006 0.0
C1063 C 0.85038 0.38167 0.80663 0.0
C1064 C 0.81995 0.39871 0.82302 0.0
C1065 C 0.84449 0.36242 0.81692 0.0
C1066 C 0.8265 0.36125 0.83017 0.0
C1067 C 0.79543 0.37812 0.8458 0.0
C1068 C 0.7827 0.39613 0.84817 0.0
C1069 C 0.81397 0.37926 0.83315 0.0
C1070 C 0.78892 0.41537 0.83802 0.0
C1071 C 0.8074 0.41667 0.82565 0.0
H1072 H 0.6547 0.18542 0.14125 0.0
H1073 H 0.60151 0.15272 0.1087 0.0
H1074 H 0.59696 0.12853 0.13894 0.0
H1075 H 0.60594 0.11872 0.17584 0.0
H1076 H 0.65902 0.15137 0.20852 0.0
H1077 H 0.66574 0.17347 0.17698 0.0
C1078 C 0.6423 0.17282 0.14062 0.0
C1079 C 0.62832 0.17109 0.12282 0.0
C1080 C 0.63957 0.1591 0.1582 0.0
C1081 C 0.61244 0.15454 0.12224 0.0
C1082 C 0.60974 0.14073 0.13958 0.0
C1083 C 0.61905 0.1306 0.17603 0.0
C1084 C 0.63177 0.1336 0.1946 0.0
C1085 C 0.62284 0.14324 0.15786 0.0
C1086 C 0.6489 0.14882 0.19447 0.0
C1087 C 0.65275 0.16149 0.17645 0.0
H1088 H 0.82258 0.5982 0.21514 0.0
H1089 H 0.8605 0.64535 0.18043 0.0
H1090 H 0.83625 0.64116 0.14958 0.0
H1091 H 0.80501 0.62319 0.1321 0.0
H1092 H 0.76751 0.57578 0.16694 0.0
H1093 H 0.79099 0.58101 0.19811 0.0
C1094 C 0.8255 0.6077 0.2009 0.0
C1095 C 0.84336 0.62204 0.20009 0.0
C1096 C 0.81166 0.60506 0.18319 0.0
C1097 C 0.84688 0.63418 0.18148 0.0
C1098 C 0.83305 0.63176 0.16381 0.0
C1099 C 0.80195 0.61401 0.14651 0.0
C1100 C 0.78458 0.59906 0.14713 0.0
C1101 C 0.81553 0.61707 0.16441 0.0
C1102 C 0.78079 0.58737 0.16598 0.0
C1103 C 0.7942 0.59035 0.18384 0.0
H1104 H 0.40073 0.81317 0.13668 0.0
H1105 H 0.34319 0.79571 0.1714 0.0
H1106 H 0.34455 0.83056 0.18939 0.0
H1107 H 0.36326 0.86512 0.19672 0.0
H1108 H 0.42096 0.8822 0.16204 0.0
H1109 H 0.41818 0.84838 0.14243 0.0
C1110 C 0.38842 0.81698 0.14813 0.0
C1111 C 0.372 0.80176 0.15284 0.0
C1112 C 0.38932 0.83697 0.15842 0.0
C1113 C 0.35606 0.80709 0.16753 0.0
C1114 C 0.35683 0.82701 0.17785 0.0
C1115 C 0.37512 0.86155 0.18472 0.0
C1116 C 0.39238 0.87614 0.18098 0.0
C1117 C 0.37355 0.84196 0.17362 0.0
C1118 C 0.40755 0.87126 0.16532 0.0
C1119 C 0.40602 0.85188 0.15412 0.0
H1120 H 0.19216 0.36949 0.12784 0.0
H1121 H 0.24334 0.38493 0.17304 0.0
H1122 H 0.21805 0.38244 0.20253 0.0
H1123 H 0.18116 0.37873 0.2152 0.0
H1124 H 0.12955 0.36458 0.17016 0.0
H1125 H 0.15532 0.36347 0.14094 0.0
C1126 C 0.19782 0.37206 0.14417 0.0
C1127 C 0.21956 0.37759 0.1482 0.0
C1128 C 0.18311 0.37094 0.16108 0.0
C1129 C 0.22664 0.38086 0.16945 0.0
C1130 C 0.2122 0.37943 0.18635 0.0
C1131 C 0.17553 0.37518 0.19904 0.0
C1132 C 0.15345 0.37195 0.19485 0.0
C1133 C 0.19035 0.37494 0.1823 0.0
C1134 C 0.14646 0.36726 0.17381 0.0
C1135 C 0.16118 0.36667 0.15708 0.0
H1136 H 0.80947 0.60823 0.84955 0.0
H1137 H 0.85937 0.63588 0.89054 0.0
H1138 H 0.88436 0.63636 0.86051 0.0
H1139 H 0.89197 0.62872 0.82258 0.0
H1140 H 0.84154 0.60119 0.78206 0.0
H1141 H 0.81684 0.60095 0.81203 0.0
C1142 C 0.82582 0.61437 0.852 0.0
C1143 C 0.83254 0.62198 0.8723 0.0
C1144 C 0.84001 0.61465 0.83473 0.0
C1145 C 0.85377 0.62992 0.87509 0.0
C1146 C 0.86807 0.6302 0.85792 0.0
C1147 C 0.87557 0.6227 0.8203 0.0
C1148 C 0.86866 0.61498 0.80008 0.0
C1149 C 0.86136 0.62259 0.83766 0.0
C1150 C 0.84733 0.60725 0.79742 0.0
C1151 C 0.83316 0.60708 0.81456 0.0
H1152 H 0.3926 0.84787 0.8289 0.0
H1153 H 0.32775 0.82678 0.81261 0.0
H1154 H 0.32933 0.79863 0.83957 0.0
H1155 H 0.35035 0.7781 0.86544 0.0
H1156 H 0.4156 0.79891 0.88058 0.0
H1157 H 0.41255 0.82914 0.85642 0.0
C1158 C 0.37871 0.83726 0.83134 0.0
C1159 C 0.36018 0.83928 0.81857 0.0
C1160 C 0.37985 0.82095 0.84657 0.0
C1161 C 0.34226 0.82552 0.82214 0.0
C1162 C 0.34318 0.80936 0.8375 0.0
C1163 C 0.36381 0.78938 0.86364 0.0
C1164 C 0.38324 0.78609 0.87462 0.0
C1165 C 0.36208 0.80663 0.84946 0.0
C1166 C 0.40052 0.80092 0.87217 0.0
C1167 C 0.3988 0.81824 0.85834 0.0
H1168 H 0.21647 0.39766 0.84763 0.0
H1169 H 0.16942 0.36718 0.88879 0.0
H1170 H 0.14349 0.36542 0.85908 0.0
H1171 H 0.13418 0.37291 0.82143 0.0
H1172 H 0.18182 0.4031 0.78064 0.0
H1173 H 0.20754 0.4045 0.81026 0.0
C1174 C 0.20054 0.39065 0.85018 0.0
C1175 C 0.19487 0.38265 0.87044 0.0
C1176 C 0.18582 0.38959 0.83307 0.0
C1177 C 0.17419 0.37349 0.87336 0.0
C1178 C 0.15936 0.37247 0.85638 0.0
C1179 C 0.15021 0.37973 0.81901 0.0
C1180 C 0.15602 0.38792 0.79883 0.0
C1181 C 0.165 0.38051 0.83616 0.0
C1182 C 0.17688 0.39668 0.79597 0.0
C1183 C 0.19162 0.39753 0.81292 0.0
H1184 H 0.59284 0.16733 0.7484 0.0
H1185 H 0.62743 0.12613 0.79086 0.0
H1186 H 0.62999 0.15468 0.81778 0.0
H1187 H 0.6205 0.1906 0.82995 0.0
H1188 H 0.58607 0.23162 0.78712 0.0
H1189 H 0.5855 0.20385 0.75957 0.0
C1190 C 0.60102 0.1646 0.76352 0.0
C1191 C 0.60972 0.14458 0.76774 0.0
C1192 C 0.60242 0.18102 0.77885 0.0
C1193 C 0.62054 0.1414 0.78726 0.0
C1194 C 0.62196 0.15768 0.80267 0.0
C1195 C 0.613 0.19351 0.81454 0.0
C1196 C 0.60316 0.21307 0.81068 0.0
C1197 C 0.61267 0.17745 0.79875 0.0
C1198 C 0.59369 0.21668 0.79055 0.0
C1199 C 0.5933 0.20079 0.77479 0.0
H1200 H 0.8336 0.36561 0.2056 0.0
H1201 H 0.87949 0.37483 0.15478 0.0
H1202 H 0.85083 0.36989 0.12813 0.0
H1203 H 0.81242 0.36637 0.1194 0.0
H1204 H 0.76645 0.35803 0.17028 0.0
H1205 H 0.79554 0.35908 0.19674 0.0
C1206 C 0.8374 0.36627 0.18869 0.0
C1207 C 0.85862 0.37085 0.18221 0.0
C1208 C 0.82081 0.36376 0.17346 0.0
C1209 C 0.86327 0.37149 0.16023 0.0
C1210 C 0.84688 0.36873 0.14496 0.0
C1211 C 0.80876 0.36457 0.13626 0.0
C1212 C 0.78728 0.3624 0.14286 0.0
C1213 C 0.82553 0.36542 0.15142 0.0
C1214 C 0.78284 0.35988 0.16475 0.0
C1215 C 0.79946 0.36051 0.17992 0.0
H1216 H 0.61316 0.85492 0.17505 0.0
H1217 H 0.61669 0.80479 0.2222 0.0
H1218 H 0.61643 0.77788 0.1938 0.0
H1219 H 0.61228 0.76843 0.15595 0.0
H1220 H 0.60808 0.81829 0.10863 0.0
H1221 H 0.61169 0.84549 0.1368 0.0
C1222 C 0.61412 0.83813 0.17912 0.0
C1223 C 0.6147 0.83187 0.20073 0.0
C1224 C 0.61369 0.82269 0.16271 0.0
C1225 C 0.61607 0.81006 0.20571 0.0
C1226 C 0.61588 0.79463 0.18948 0.0
C1227 C 0.6123 0.78525 0.15174 0.0
C1228 C 0.60966 0.79132 0.13025 0.0
C1229 C 0.6142 0.80075 0.16799 0.0
C1230 C 0.60998 0.81318 0.12507 0.0
C1231 C 0.612 0.82875 0.14117 0.0
H1232 H 0.12857 0.58575 0.17038 0.0
H1233 H 0.12521 0.65403 0.17979 0.0
H1234 H 0.15431 0.66003 0.15429 0.0
H1235 H 0.18199 0.6457 0.1308 0.0
H1236 H 0.18532 0.57728 0.12217 0.0
H1237 H 0.15488 0.57159 0.14587 0.0
C1238 C 0.13408 0.60198 0.16679 0.0
C1239 C 0.12483 0.6194 0.1771 0.0
C1240 C 0.1509 0.6053 0.15232 0.0
C1241 C 0.1321 0.64031 0.17213 0.0
C1242 C 0.14878 0.64376 0.15758 0.0
C1243 C 0.17597 0.62956 0.134 0.0
C1244 C 0.18604 0.61196 0.12483 0.0
C1245 C 0.1585 0.62635 0.14781 0.0
C1246 C 0.17798 0.59114 0.1291 0.0
C1247 C 0.16056 0.58784 0.14266 0.0
H1248 H 0.39585 0.21767 0.16735 0.0
H1249 H 0.3492 0.18048 0.13001 0.0
H1250 H 0.34406 0.15575 0.15988 0.0
H1251 H 0.35474 0.14338 0.19564 0.0
H1252 H 0.40183 0.18059 0.2325 0.0
H1253 H 0.40473 0.2067 0.20375 0.0
C1254 C 0.38444 0.20424 0.16575 0.0
C1255 C 0.37309 0.2008 0.1464 0.0
C1256 C 0.3817 0.19004 0.18287 0.0
C1257 C 0.35821 0.18345 0.14471 0.0
C1258 C 0.3553 0.16927 0.16176 0.0
C1259 C 0.36549 0.15731 0.19748 0.0
C1260 C 0.37819 0.1599 0.21612 0.0
C1261 C 0.36725 0.17221 0.18078 0.0
C1262 C 0.39195 0.1781 0.21827 0.0
C1263 C 0.39366 0.19305 0.20183 0.0
H1264 H 0.81341 0.77855 0.63235 0.0
H1265 H 0.85727 0.83064 0.61558 0.0
H1266 H 0.82757 0.85515 0.61468 0.0
H1267 H 0.78887 0.86109 0.61581 0.0
H1268 H 0.74499 0.80878 0.63193 0.0
H1269 H 0.77508 0.78509 0.63606 0.0
C1270 C 0.81654 0.7953 0.62869 0.0
C1271 C 0.83751 0.80268 0.62382 0.0
C1272 C 0.79938 0.80924 0.62795 0.0
C1273 C 0.84128 0.82449 0.6193 0.0
C1274 C 0.82429 0.83852 0.61871 0.0
C1275 C 0.78587 0.84455 0.6204 0.0
C1276 C 0.76467 0.83668 0.62331 0.0
C1277 C 0.80322 0.83096 0.62255 0.0
C1278 C 0.76112 0.81525 0.62945 0.0
C1279 C 0.77832 0.80166 0.63178 0.0
H1280 H 0.87464 0.17486 0.37413 0.0
H1281 H 0.82363 0.21999 0.37451 0.0
H1282 H 0.79692 0.1906 0.3735 0.0
H1283 H 0.78802 0.15233 0.37517 0.0
H1284 H 0.83873 0.10691 0.37567 0.0
H1285 H 0.86558 0.13625 0.3735 0.0
C1286 C 0.85768 0.17828 0.37374 0.0
C1287 C 0.85116 0.1996 0.37458 0.0
C1288 C 0.84235 0.16128 0.37346 0.0
C1289 C 0.82912 0.20373 0.37403 0.0
C1290 C 0.8138 0.18694 0.37348 0.0
C1291 C 0.80494 0.14878 0.37466 0.0
C1292 C 0.81136 0.12746 0.3758 0.0
C1293 C 0.82025 0.16568 0.37364 0.0
C1294 C 0.83334 0.12319 0.37492 0.0
C1295 C 0.84871 0.13995 0.37372 0.0
H1296 H 0.79581 0.85509 0.39408 0.0
H1297 H 0.74698 0.8054 0.40354 0.0
H1298 H 0.77445 0.77851 0.40444 0.0
H1299 H 0.81227 0.76922 0.40347 0.0
H1300 H 0.86119 0.81883 0.39417 0.0
H1301 H 0.83364 0.84566 0.39223 0.0
C1302 C 0.79115 0.83837 0.39627 0.0
C1303 C 0.76938 0.83228 0.39882 0.0
C1304 C 0.80702 0.82299 0.39685 0.0
C1305 C 0.76362 0.81054 0.40158 0.0
C1306 C 0.77932 0.79514 0.40211 0.0
C1307 C 0.81694 0.78589 0.40097 0.0
C1308 C 0.83876 0.79202 0.39905 0.0
C1309 C 0.80106 0.80121 0.39992 0.0
C1310 C 0.8445 0.81368 0.39573 0.0
C1311 C 0.82877 0.82904 0.39464 0.0
H1312 H 0.15648 0.77658 0.36284 0.0
H1313 H 0.10815 0.81924 0.34039 0.0
H1314 H 0.13526 0.84827 0.33774 0.0
H1315 H 0.17211 0.86219 0.34458 0.0
H1316 H 0.22009 0.81932 0.36751 0.0
H1317 H 0.19368 0.78969 0.36694 0.0
C1318 C 0.15187 0.79219 0.35723 0.0
C1319 C 0.13028 0.79581 0.35208 0.0
C1320 C 0.16746 0.8088 0.35587 0.0
C1321 C 0.12464 0.81605 0.34457 0.0
C1322 C 0.14013 0.83267 0.34309 0.0
C1323 C 0.17686 0.84631 0.34919 0.0
C1324 C 0.19799 0.84306 0.3563 0.0
C1325 C 0.16151 0.82933 0.34909 0.0
C1326 C 0.2039 0.82234 0.36212 0.0
C1327 C 0.1888 0.80537 0.36186 0.0
H1328 H 0.21402 0.17314 0.3918 0.0
H1329 H 0.16281 0.12492 0.39408 0.0
H1330 H 0.13621 0.15274 0.39265 0.0
H1331 H 0.12757 0.19081 0.39187 0.0
H1332 H 0.179 0.23885 0.38983 0.0
H1333 H 0.20543 0.21097 0.38997 0.0
C1334 C 0.19705 0.16867 0.39193 0.0
C1335 C 0.19043 0.14699 0.39315 0.0
C1336 C 0.18187 0.18471 0.39117 0.0
C1337 C 0.16835 0.14151 0.3932 0.0
C1338 C 0.15312 0.1574 0.39239 0.0
C1339 C 0.14455 0.19518 0.39136 0.0
C1340 C 0.15128 0.2169 0.39093 0.0
C1341 C 0.15971 0.17907 0.39154 0.0
C1342 C 0.17336 0.22227 0.39023 0.0
C1343 C 0.18851 0.20634 0.39032 0.0
H1344 H 0.18082 0.13411 0.60246 0.0
H1345 H 0.21149 0.15434 0.66182 0.0
H1346 H 0.18752 0.1844 0.66426 0.0
H1347 H 0.15976 0.20649 0.648 0.0
H1348 H 0.13007 0.18636 0.58808 0.0
H1349 H 0.15175 0.15469 0.5875 0.0
C1350 C 0.18216 0.14495 0.61607 0.0
C1351 C 0.19807 0.14208 0.63182 0.0
C1352 C 0.1686 0.16234 0.6172 0.0
C1353 C 0.19945 0.15622 0.6494 0.0
C1354 C 0.18579 0.17346 0.65078 0.0
C1355 C 0.15789 0.19507 0.63492 0.0
C1356 C 0.14346 0.19894 0.61801 0.0
C1357 C 0.17061 0.17693 0.63453 0.0
C1358 C 0.14119 0.18392 0.60122 0.0
C1359 C 0.15357 0.16577 0.60086 0.0
H1360 H 0.78987 0.15401 0.62667 0.0
H1361 H 0.83378 0.10461 0.61039 0.0
H1362 H 0.86409 0.13021 0.6143 0.0
H1363 H 0.87757 0.16746 0.61823 0.0
H1364 H 0.8332 0.21697 0.63283 0.0
H1365 H 0.80367 0.19039 0.63395 0.0
C1366 C 0.80609 0.14874 0.62424 0.0
C1367 C 0.80952 0.1275 0.61794 0.0
C1368 C 0.82336 0.1636 0.62609 0.0
C1369 C 0.83066 0.12092 0.61507 0.0
C1370 C 0.84801 0.13556 0.61725 0.0
C1371 C 0.86151 0.17238 0.62206 0.0
C1372 C 0.85754 0.19418 0.62519 0.0
C1373 C 0.84448 0.15708 0.62215 0.0
C1374 C 0.83664 0.2003 0.63013 0.0
C1375 C 0.81973 0.18512 0.63073 0.0
H1376 H 0.21351 0.82865 0.59125 0.0
H1377 H 0.18083 0.87118 0.63372 0.0
H1378 H 0.1496 0.84641 0.63409 0.0
H1379 H 0.13121 0.81315 0.62143 0.0
H1380 H 0.16411 0.77117 0.57852 0.0
H1381 H 0.19561 0.79532 0.57929 0.0
C1382 C 0.19962 0.8325 0.60071 0.0
C1383 C 0.19951 0.85177 0.61241 0.0
C1384 C 0.18171 0.81832 0.6007 0.0
C1385 C 0.18134 0.85646 0.62454 0.0
C1386 C 0.16346 0.84232 0.62473 0.0
C1387 C 0.14529 0.80925 0.6123 0.0
C1388 C 0.14523 0.79039 0.59989 0.0
C1389 C 0.1634 0.82328 0.61272 0.0
C1390 C 0.16364 0.78559 0.58817 0.0
C1391 C 0.1817 0.79939 0.5886 0.0
H1392 H 0.12391 0.27165 0.45949 0.0
H1393 H 0.06539 0.30669 0.45689 0.0
H1394 H 0.06631 0.31084 0.49579 0.0
H1395 H 0.08088 0.30008 0.53064 0.0
H1396 H 0.13851 0.26362 0.53309 0.0
H1397 H 0.1409 0.26474 0.49415 0.0
C1398 C 0.11153 0.28051 0.46737 0.0
C1399 C 0.09439 0.28849 0.45531 0.0
C1400 C 0.11188 0.28241 0.48976 0.0
C1401 C 0.07866 0.30017 0.46578 0.0
C1402 C 0.07912 0.30249 0.48805 0.0
C1403 C 0.0942 0.29272 0.5227 0.0
C1404 C 0.10927 0.28146 0.53475 0.0
C1405 C 0.09521 0.29298 0.50025 0.0
C1406 C 0.12652 0.27217 0.5242 0.0
C1407 C 0.12788 0.27275 0.50191 0.0
H1408 H 0.73683 0.09453 0.53063 0.0
H1409 H 0.77015 0.15603 0.53622 0.0
H1410 H 0.77168 0.15869 0.49725 0.0
H1411 H 0.76461 0.14302 0.46164 0.0
H1412 H 0.73117 0.08153 0.4562 0.0
H1413 H 0.7285 0.07954 0.49507 0.0
C1414 C 0.7444 0.10854 0.52334 0.0
C1415 C 0.75347 0.12499 0.53633 0.0
C1416 C 0.74518 0.11001 0.50095 0.0
C1417 C 0.76307 0.14311 0.5266 0.0
C1418 C 0.76397 0.14465 0.50432 0.0
C1419 C 0.7566 0.12925 0.46894 0.0
C1420 C 0.74819 0.11243 0.456 0.0
C1421 C 0.7552 0.12813 0.49133 0.0
C1422 C 0.73782 0.09472 0.46575 0.0
C1423 C 0.73632 0.09352 0.488 0.0
H1424 H 0.87865 0.74917 0.47077 0.0
H1425 H 0.94229 0.72406 0.46768 0.0
H1426 H 0.94437 0.72338 0.50674 0.0
H1427 H 0.92938 0.73283 0.54161 0.0
H1428 H 0.86616 0.75895 0.54449 0.0
H1429 H 0.86263 0.75613 0.50563 0.0
C1430 C 0.89291 0.74333 0.4786 0.0
C1431 C 0.91037 0.73689 0.4663 0.0
C1432 C 0.89413 0.74327 0.50104 0.0
C1433 C 0.92865 0.72923 0.47675 0.0
C1434 C 0.92988 0.72888 0.4991 0.0
C1435 C 0.91471 0.73767 0.53378 0.0
C1436 C 0.89815 0.74629 0.54593 0.0
C1437 C 0.91291 0.73631 0.51139 0.0
C1438 C 0.87923 0.7524 0.53551 0.0
C1439 C 0.8772 0.75083 0.51328 0.0
H1440 H 0.26925 0.88433 0.45074 0.0
H1441 H 0.20493 0.85637 0.44688 0.0
H1442 H 0.203 0.85557 0.48573 0.0
H1443 H 0.2189 0.86354 0.52071 0.0
H1444 H 0.28317 0.89128 0.5255 0.0
H1445 H 0.2858 0.89135 0.48637 0.0
C1446 C 0.25487 0.87799 0.45842 0.0
C1447 C 0.23724 0.87052 0.44586 0.0
C1448 C 0.2538 0.87757 0.48092 0.0
C1449 C 0.21873 0.8623 0.45608 0.0
C1450 C 0.21757 0.86183 0.47834 0.0
C1451 C 0.23352 0.86961 0.51326 0.0
C1452 C 0.25076 0.87751 0.52601 0.0
C1453 C 0.23491 0.86958 0.49089 0.0
C1454 C 0.26964 0.88513 0.51604 0.0
C1455 C 0.27114 0.8852 0.49367 0.0
H1456 H 0.1445 0.7244 0.51096 0.0
H1457 H 0.07572 0.72851 0.51667 0.0
H1458 H 0.07183 0.72756 0.47776 0.0
H1459 H 0.08802 0.72753 0.4422 0.0
H1460 H 0.15686 0.72435 0.43631 0.0
H1461 H 0.1606 0.72282 0.47525 0.0
C1462 C 0.12863 0.72493 0.50372 0.0
C1463 C 0.11044 0.72664 0.51674 0.0
C1464 C 0.12651 0.72461 0.4813 0.0
C1465 C 0.09001 0.72728 0.50705 0.0
C1466 C 0.08776 0.72676 0.48478 0.0
C1467 C 0.10386 0.72632 0.44939 0.0
C1468 C 0.12214 0.72616 0.43633 0.0
C1469 C 0.10592 0.72571 0.47177 0.0
C1470 C 0.14251 0.72457 0.44596 0.0
C1471 C 0.14468 0.72373 0.46824 0.0
H1472 H 0.24343 0.11193 0.4645 0.0
H1473 H 0.27329 0.05096 0.45778 0.0
H1474 H 0.2802 0.05011 0.49631 0.0
H1475 H 0.27429 0.06483 0.53222 0.0
H1476 H 0.2435 0.12535 0.53886 0.0
H1477 H 0.2407 0.12831 0.50003 0.0
C1478 C 0.25167 0.09856 0.4714 0.0
C1479 C 0.25754 0.0814 0.45831 0.0
C1480 C 0.25533 0.09803 0.49359 0.0
C1481 C 0.26844 0.06432 0.4675 0.0
C1482 C 0.27236 0.06379 0.48956 0.0
C1483 C 0.26726 0.07884 0.52518 0.0
C1484 C 0.25885 0.09469 0.53846 0.0
C1485 C 0.26535 0.08028 0.50282 0.0
C1486 C 0.24992 0.11279 0.52904 0.0
C1487 C 0.24825 0.11449 0.50682 0.0
H1488 H 0.88572 0.26844 0.53398 0.0
H1489 H 0.86319 0.20243 0.53737 0.0
H1490 H 0.85897 0.20111 0.49858 0.0
H1491 H 0.86268 0.21814 0.4637 0.0
H1492 H 0.88562 0.28394 0.45971 0.0
H1493 H 0.88852 0.28591 0.49876 0.0
C1494 C 0.8798 0.2538 0.52623 0.0
C1495 C 0.87487 0.23554 0.53858 0.0
C1496 C 0.87749 0.25309 0.50383 0.0
C1497 C 0.8672 0.2167 0.52828 0.0
C1498 C 0.86476 0.21592 0.50608 0.0
C1499 C 0.86823 0.23297 0.47133 0.0
C1500 C 0.874 0.25083 0.45878 0.0
C1501 C 0.87002 0.23394 0.4937 0.0
C1502 C 0.8811 0.26993 0.46898 0.0
C1503 C 0.8828 0.27106 0.49132 0.0
H1504 H 0.71518 0.86758 0.4637 0.0
H1505 H 0.6843 0.92808 0.45748 0.0
H1506 H 0.67789 0.92877 0.49599 0.0
H1507 H 0.68497 0.91435 0.53178 0.0
H1508 H 0.71705 0.85448 0.53795 0.0
H1509 H 0.71879 0.85129 0.49906 0.0
C1510 C 0.7068 0.8808 0.4707 0.0
C1511 C 0.70056 0.89793 0.45777 0.0
C1512 C 0.7035 0.88129 0.49288 0.0
C1513 C 0.68946 0.91478 0.46708 0.0
C1514 C 0.68584 0.91522 0.48913 0.0
C1515 C 0.69202 0.90042 0.52464 0.0
C1516 C 0.70116 0.88486 0.53778 0.0
C1517 C 0.69338 0.89889 0.50225 0.0
C1518 C 0.71009 0.86683 0.52823 0.0
C1519 C 0.71116 0.86501 0.50597 0.0
H1520 H 0.46084 0.0993 0.28442 0.0
H1521 H 0.47306 0.16297 0.25988 0.0
H1522 H 0.51105 0.15555 0.25601 0.0
H1523 H 0.54024 0.1301 0.25703 0.0
H1524 H 0.52782 0.06633 0.28126 0.0
H1525 H 0.49051 0.07475 0.28786 0.0
C1526 C 0.47183 0.11165 0.27845 0.0
C1527 C 0.46403 0.1316 0.27228 0.0
C1528 C 0.49362 0.10722 0.27603 0.0
C1529 C 0.47857 0.14744 0.26468 0.0
C1530 C 0.50031 0.14319 0.26238 0.0
C1531 C 0.52942 0.11808 0.2639 0.0
C1532 C 0.53679 0.09754 0.26842 0.0
C1533 C 0.50792 0.12299 0.26758 0.0
C1534 C 0.52258 0.08224 0.2775 0.0
C1535 C 0.50121 0.08702 0.28127 0.0
H1536 H 0.86428 0.52976 0.22553 0.0
H1537 H 0.88737 0.54462 0.28948 0.0
H1538 H 0.89412 0.5068 0.29553 0.0
H1539 H 0.89436 0.46963 0.2822 0.0
H1540 H 0.87175 0.45544 0.21789 0.0
H1541 H 0.86398 0.49293 0.2125 0.0
C1542 C 0.87068 0.52476 0.24086 0.0
C1543 C 0.87533 0.54001 0.257 0.0
C1544 C 0.87472 0.50311 0.24414 0.0
C1545 C 0.88366 0.53321 0.27675 0.0
C1546 C 0.88756 0.51159 0.28022 0.0
C1547 C 0.8877 0.47473 0.26703 0.0
C1548 C 0.88371 0.45972 0.25048 0.0
C1549 C 0.88331 0.49642 0.26395 0.0
C1550 C 0.87505 0.46662 0.23091 0.0
C1551 C 0.87056 0.48808 0.22779 0.0
H1552 H 0.5292 0.92671 0.2576 0.0
H1553 H 0.53367 0.85961 0.24222 0.0
H1554 H 0.49456 0.85589 0.23994 0.0
H1555 H 0.45925 0.8722 0.24014 0.0
H1556 H 0.45509 0.93966 0.25411 0.0
H1557 H 0.49393 0.94267 0.25918 0.0
C1558 C 0.52163 0.91122 0.25397 0.0
C1559 C 0.53433 0.8935 0.25 0.0
C1560 C 0.49919 0.90927 0.2523 0.0
C1561 C 0.52426 0.87354 0.24524 0.0
C1562 C 0.5019 0.8714 0.24391 0.0
C1563 C 0.46682 0.88752 0.24449 0.0
C1564 C 0.4543 0.90568 0.24664 0.0
C1565 C 0.48922 0.88923 0.24707 0.0
C1566 C 0.46436 0.92543 0.25222 0.0
C1567 C 0.48658 0.92719 0.25514 0.0
H1568 H 0.10691 0.52491 0.23469 0.0
H1569 H 0.048 0.52627 0.2705 0.0
H1570 H 0.04877 0.4876 0.27552 0.0
H1571 H 0.06459 0.45313 0.26725 0.0
H1572 H 0.12304 0.4518 0.23069 0.0
H1573 H 0.12408 0.49078 0.22863 0.0
C1574 C 0.09433 0.51681 0.24377 0.0
C1575 C 0.0773 0.52846 0.252 0.0
C1576 C 0.09472 0.49455 0.24638 0.0
C1577 C 0.06123 0.51769 0.26387 0.0
C1578 C 0.06163 0.49556 0.26672 0.0
C1579 C 0.07769 0.46136 0.25903 0.0
C1580 C 0.09358 0.44953 0.24896 0.0
C1581 C 0.07806 0.48377 0.25766 0.0
C1582 C 0.11051 0.46048 0.23847 0.0
C1583 C 0.11111 0.48279 0.23724 0.0
H1584 H 0.4507 0.92113 0.73038 0.0
H1585 H 0.44873 0.86069 0.76363 0.0
H1586 H 0.48774 0.8593 0.76187 0.0
H1587 H 0.52253 0.8766 0.75358 0.0
H1588 H 0.52463 0.93727 0.72076 0.0
H1589 H 0.48546 0.93704 0.71947 0.0
C1590 C 0.45877 0.90755 0.73706 0.0
C1591 C 0.4468 0.89118 0.74733 0.0
C1592 C 0.48126 0.90691 0.73616 0.0
C1593 C 0.45753 0.8736 0.75574 0.0
C1594 C 0.47987 0.87279 0.75478 0.0
C1595 C 0.51445 0.88967 0.74592 0.0
C1596 C 0.52652 0.90703 0.7375 0.0
C1597 C 0.49192 0.88957 0.74544 0.0
C1598 C 0.51576 0.92374 0.72748 0.0
C1599 C 0.49333 0.92367 0.72679 0.0
H1600 H 0.12934 0.44626 0.73594 0.0
H1601 H 0.0641 0.44607 0.71194 0.0
H1602 H 0.06804 0.48417 0.70391 0.0
H1603 H 0.08873 0.51815 0.70716 0.0
H1604 H 0.15382 0.51839 0.73162 0.0
H1605 H 0.15128 0.47959 0.73568 0.0
C1606 C 0.11604 0.4545 0.72875 0.0
C1607 C 0.09635 0.4434 0.72485 0.0
C1608 C 0.11836 0.47643 0.72431 0.0
C1609 C 0.07939 0.45424 0.71524 0.0
C1610 C 0.08161 0.47606 0.71069 0.0
C1611 C 0.10249 0.5097 0.71308 0.0
C1612 C 0.12133 0.52122 0.71936 0.0
C1613 C 0.10083 0.48742 0.71566 0.0
C1614 C 0.13906 0.50997 0.7268 0.0
C1615 C 0.13761 0.48777 0.72922 0.0
H1616 H 0.44337 0.11988 0.73482 0.0
H1617 H 0.44761 0.05336 0.71693 0.0
H1618 H 0.48534 0.05931 0.70776 0.0
H1619 H 0.5177 0.08279 0.70722 0.0
H1620 H 0.51344 0.14932 0.72513 0.0
H1621 H 0.47508 0.14397 0.73169 0.0
C1622 C 0.4525 0.10671 0.72878 0.0
C1623 C 0.44275 0.08616 0.72678 0.0
C1624 C 0.4742 0.11022 0.72359 0.0
C1625 C 0.45474 0.06932 0.7187 0.0
C1626 C 0.47634 0.07269 0.7135 0.0
C1627 C 0.50835 0.09618 0.71237 0.0
C1628 C 0.51849 0.11637 0.71588 0.0
C1629 C 0.48633 0.09298 0.71624 0.0
C1630 C 0.50609 0.13358 0.72237 0.0
C1631 C 0.48415 0.13053 0.7262 0.0
H1632 H 0.90631 0.53998 0.71362 0.0
H1633 H 0.84147 0.53423 0.73732 0.0
H1634 H 0.84397 0.49538 0.73857 0.0
H1635 H 0.86598 0.46362 0.73704 0.0
H1636 H 0.93119 0.46953 0.71436 0.0
H1637 H 0.927 0.50773 0.70843 0.0
C1638 C 0.89258 0.53024 0.71874 0.0
C1639 C 0.87384 0.54006 0.72567 0.0
C1640 C 0.89426 0.50794 0.71982 0.0
C1641 C 0.85616 0.52714 0.73206 0.0
C1642 C 0.8576 0.5049 0.73287 0.0
C1643 C 0.87921 0.47319 0.73054 0.0
C1644 C 0.89898 0.46377 0.72648 0.0
C1645 C 0.8768 0.49521 0.72745 0.0
C1646 C 0.91584 0.47638 0.71781 0.0
C1647 C 0.91349 0.49826 0.71445 0.0
H1648 H 0.26597 0.53967 0.11163 0.0
H1649 H 0.29199 0.54344 0.04787 0.0
H1650 H 0.30139 0.50585 0.04966 0.0
H1651 H 0.29935 0.47118 0.06815 0.0
H1652 H 0.27262 0.4676 0.13166 0.0
H1653 H 0.26656 0.50589 0.13116 0.0
C1654 C 0.27387 0.53235 0.09818 0.0
C1655 C 0.27803 0.54429 0.07955 0.0
C1656 C 0.27902 0.51071 0.09922 0.0
C1657 C 0.28849 0.53459 0.06237 0.0
C1658 C 0.29383 0.51307 0.06335 0.0
C1659 C 0.29245 0.47882 0.08199 0.0
C1660 C 0.28624 0.46646 0.09981 0.0
C1661 C 0.28874 0.50086 0.08152 0.0
C1662 C 0.2774 0.47666 0.11765 0.0
C1663 C 0.27388 0.49857 0.11738 0.0
H1664 H 0.28139 0.53413 0.91246 0.0
H1665 H 0.25692 0.54163 0.8481 0.0
H1666 H 0.25725 0.50298 0.8425 0.0
H1667 H 0.2607 0.46693 0.8572 0.0
H1668 H 0.28373 0.45946 0.9221 0.0
H1669 H 0.28795 0.49821 0.92604 0.0
C1670 C 0.27643 0.52736 0.89709 0.0
C1671 C 0.26889 0.54073 0.88083 0.0
C1672 C 0.27624 0.50509 0.89412 0.0
C1673 C 0.26261 0.53168 0.86098 0.0
C1674 C 0.26275 0.50957 0.85776 0.0
C1675 C 0.26696 0.47375 0.8721 0.0
C1676 C 0.27164 0.46031 0.8894 0.0
C1677 C 0.26894 0.49608 0.87443 0.0
C1678 C 0.27981 0.46944 0.90857 0.0
C1679 C 0.2822 0.49161 0.91087 0.0
H1680 H 0.45895 0.25241 0.85855 0.0
H1681 H 0.45316 0.2521 0.92743 0.0
H1682 H 0.49214 0.25476 0.93131 0.0
H1683 H 0.52789 0.25549 0.91525 0.0
H1684 H 0.53378 0.25506 0.8464 0.0
H1685 H 0.49476 0.2545 0.84247 0.0
C1686 C 0.46619 0.25305 0.87442 0.0
C1687 C 0.45313 0.25195 0.89265 0.0
C1688 C 0.48866 0.25439 0.87657 0.0
C1689 C 0.46282 0.25284 0.91309 0.0
C1690 C 0.48513 0.25435 0.91535 0.0
C1691 C 0.52066 0.25543 0.89938 0.0
C1692 C 0.53376 0.25521 0.88117 0.0
C1693 C 0.49821 0.25488 0.89721 0.0
C1694 C 0.52409 0.25515 0.86071 0.0
C1695 C 0.50176 0.2548 0.85843 0.0
H1696 H 0.73803 0.55152 0.91912 0.0
H1697 H 0.74437 0.55273 0.85032 0.0
H1698 H 0.73122 0.51552 0.84811 0.0
H1699 H 0.72117 0.48188 0.86597 0.0
H1700 H 0.71547 0.48051 0.93483 0.0
H1701 H 0.72482 0.51872 0.93669 0.0
C1702 C 0.73638 0.54371 0.90361 0.0
C1703 C 0.74246 0.55479 0.88493 0.0
C1704 C 0.72897 0.5223 0.90247 0.0
C1705 C 0.73993 0.54454 0.86495 0.0
C1706 C 0.73246 0.52324 0.86368 0.0
C1707 C 0.7217 0.48997 0.88138 0.0
C1708 C 0.7179 0.47828 0.90026 0.0
C1709 C 0.7274 0.51185 0.88237 0.0
C1710 C 0.71842 0.48908 0.92006 0.0
C1711 C 0.72387 0.51092 0.92115 0.0
H1712 H 0.47207 0.72533 0.875 0.0
H1713 H 0.48342 0.69745 0.93704 0.0
H1714 H 0.52188 0.69721 0.92992 0.0
H1715 H 0.55247 0.70839 0.90771 0.0
H1716 H 0.54113 0.73691 0.84594 0.0
H1717 H 0.50243 0.73311 0.85124 0.0
C1718 C 0.48292 0.71899 0.88689 0.0
C1719 C 0.47492 0.71173 0.90665 0.0
C1720 C 0.50502 0.71909 0.88278 0.0
C1721 C 0.48916 0.70328 0.92175 0.0
C1722 C 0.51117 0.70319 0.91772 0.0
C1723 C 0.54155 0.7135 0.89525 0.0
C1724 C 0.54971 0.7232 0.87658 0.0
C1725 C 0.51932 0.71157 0.89853 0.0
C1726 C 0.53532 0.72953 0.86053 0.0
C1727 C 0.51316 0.72744 0.86358 0.0
H1728 H 0.71095 0.51148 0.0852 0.0
H1729 H 0.73419 0.50441 0.15006 0.0
H1730 H 0.73373 0.4656 0.14555 0.0
H1731 H 0.72995 0.434 0.12215 0.0
H1732 H 0.70677 0.44109 0.05726 0.0
H1733 H 0.7037 0.47949 0.06297 0.0
C1734 C 0.71572 0.50144 0.09842 0.0
C1735 C 0.72287 0.51086 0.11783 0.0
C1736 C 0.71549 0.47912 0.09571 0.0
C1737 C 0.72872 0.4976 0.1349 0.0
C1738 C 0.72852 0.47539 0.13233 0.0
C1739 C 0.72396 0.44389 0.10934 0.0
C1740 C 0.71888 0.4347 0.08923 0.0
C1741 C 0.72241 0.46602 0.11265 0.0
C1742 C 0.71091 0.44773 0.07288 0.0
C1743 C 0.70923 0.46973 0.07609 0.0
H1744 H 0.52564 0.70458 0.09744 0.0
H1745 H 0.53127 0.73826 0.15788 0.0
H1746 H 0.49222 0.73834 0.16062 0.0
H1747 H 0.45663 0.73214 0.14407 0.0
H1748 H 0.45105 0.69846 0.08362 0.0
H1749 H 0.4899 0.69489 0.08284 0.0
C1750 C 0.51833 0.71171 0.11134 0.0
C1751 C 0.53135 0.72167 0.12726 0.0
C1752 C 0.49587 0.71182 0.11277 0.0
C1753 C 0.52164 0.73058 0.14532 0.0
C1754 C 0.49929 0.73071 0.14687 0.0
C1755 C 0.46389 0.72378 0.13085 0.0
C1756 C 0.45099 0.71587 0.11378 0.0
C1757 C 0.48627 0.7219 0.13041 0.0
C1758 C 0.4606 0.70483 0.09692 0.0
C1759 C 0.48285 0.70284 0.0964 0.0
H1760 H 0.54552 0.21804 0.10582 0.0
H1761 H 0.53966 0.26324 0.05419 0.0
H1762 H 0.50222 0.26857 0.06367 0.0
H1763 H 0.47074 0.25891 0.08539 0.0
H1764 H 0.47672 0.21331 0.13669 0.0
H1765 H 0.51467 0.20978 0.12861 0.0
C1766 C 0.53611 0.22912 0.09665 0.0
C1767 C 0.54532 0.24008 0.0792 0.0
C1768 C 0.51463 0.23204 0.10212 0.0
C1769 C 0.53293 0.25454 0.06765 0.0
C1770 C 0.51153 0.25758 0.07305 0.0
C1771 C 0.48037 0.24835 0.09495 0.0
C1772 C 0.47085 0.23629 0.11154 0.0
C1773 C 0.50215 0.24621 0.09008 0.0
C1774 C 0.4836 0.22272 0.12378 0.0
C1775 C 0.50531 0.22064 0.11914 0.0
H1776 H 0.61429 0.74782 0.03392 0.0
H1777 H 0.5473 0.76345 0.03298 0.0
H1778 H 0.54883 0.76909 0.99433 0.0
H1779 H 0.56843 0.7668 0.96053 0.0
H1780 H 0.63528 0.75056 0.96155 0.0
H1781 H 0.63458 0.74822 0.00052 0.0
C1782 C 0.60004 0.7526 0.0253 0.0
C1783 C 0.58065 0.75496 0.03629 0.0
C1784 C 0.60099 0.75569 0.00309 0.0
C1785 C 0.56242 0.7614 0.0249 0.0
C1786 C 0.56326 0.76461 0.00279 0.0
C1787 C 0.58294 0.76303 0.96927 0.0
C1788 C 0.60181 0.75865 0.9581 0.0
C1789 C 0.58236 0.7614 0.99167 0.0
C1790 C 0.62048 0.75387 0.96972 0.0
C1791 C 0.62009 0.75246 0.99201 0.0
H1792 H 0.23354 0.65039 0.95219 0.0
H1793 H 0.22568 0.58182 0.94483 0.0
H1794 H 0.22386 0.57779 0.98358 0.0
H1795 H 0.2271 0.59338 0.01952 0.0
H1796 H 0.23544 0.66186 0.02713 0.0
H1797 H 0.23433 0.66624 0.98829 0.0
C1798 C 0.2312 0.63458 0.95904 0.0
C1799 C 0.22994 0.61644 0.94561 0.0
C1800 C 0.23039 0.63232 0.98138 0.0
C1801 C 0.22681 0.59607 0.95477 0.0
C1802 C 0.22581 0.59372 0.97695 0.0
C1803 C 0.22852 0.60929 0.01272 0.0
C1804 C 0.23156 0.62723 0.02621 0.0
C1805 C 0.22802 0.61169 0.9904 0.0
C1806 C 0.23318 0.64775 0.01711 0.0
C1807 C 0.23259 0.65027 0.9949 0.0
H1808 H 0.37201 0.22697 0.04186 0.0
H1809 H 0.42805 0.18832 0.04549 0.0
H1810 H 0.42638 0.18247 0.00681 0.0
H1811 H 0.412 0.19252 0.97161 0.0
H1812 H 0.35648 0.23196 0.96817 0.0
H1813 H 0.3548 0.23301 0.00712 0.0
C1814 C 0.38367 0.21699 0.03424 0.0
C1815 C 0.40036 0.20844 0.04647 0.0
C1816 C 0.38282 0.21397 0.01198 0.0
C1817 C 0.41513 0.19525 0.03642 0.0
C1818 C 0.41425 0.19197 0.01427 0.0
C1819 C 0.39929 0.20101 0.97936 0.0
C1820 C 0.38467 0.21249 0.96698 0.0
C1821 C 0.39862 0.20189 0.00182 0.0
C1822 C 0.36814 0.22321 0.97729 0.0
C1823 C 0.36718 0.22389 -0.00041 0.0
H1824 H 0.73554 0.35273 0.00573 0.0
H1825 H 0.77941 0.40257 0.02928 0.0
H1826 H 0.78225 0.41745 0.99325 0.0
H1827 H 0.76996 0.41791 0.95562 0.0
H1828 H 0.72477 0.3688 0.93293 0.0
H1829 H 0.72483 0.35205 0.96805 0.0
C1830 C 0.74595 0.36669 0.00298 0.0
C1831 C 0.75713 0.37658 0.0202 0.0
C1832 C 0.74712 0.37543 0.98238 0.0
C1833 C 0.77054 0.39468 0.01631 0.0
C1834 C 0.77213 0.40324 -0.00428 0.0
C1835 C 0.76031 0.40343 0.95832 0.0
C1836 C 0.74726 0.39474 0.94173 0.0
C1837 C 0.76013 0.39402 0.97872 0.0
C1838 C 0.73481 0.37596 0.94548 0.0
C1839 C 0.73484 0.36633 0.96556 0.0
H1840 H 0.59918 0.2181 0.93365 0.0
H1841 H 0.66354 0.24569 0.93025 0.0
H1842 H 0.66912 0.23858 0.96828 0.0
H1843 H 0.65481 0.22692 0.003 0.0
H1844 H 0.59021 0.19986 0.00635 0.0
H1845 H 0.58578 0.20418 0.96778 0.0
C1846 C 0.6145 0.22243 0.94116 0.0
C1847 C 0.63084 0.23261 0.92914 0.0
C1848 C 0.61755 0.21843 0.96306 0.0
C1849 C 0.65064 0.23793 0.93913 0.0
C1850 C 0.65384 0.2339 0.9609 0.0
C1851 C 0.63984 0.22173 0.99528 0.0
C1852 C 0.62281 0.21325 0.00762 0.0
C1853 C 0.63728 0.2245 0.9731 0.0
C1854 C 0.60356 0.20654 -0.0027 0.0
C1855 C 0.60097 0.20906 0.97523 0.0
H1856 H 0.78925 0.55953 0.03989 0.0
H1857 H 0.7509 0.61517 0.04842 0.0
H1858 H 0.76002 0.62735 0.01255 0.0
H1859 H 0.77584 0.62051 0.97766 0.0
H1860 H 0.81289 0.56417 0.9682 0.0
H1861 H 0.80769 0.55424 0.00564 0.0
C1862 C 0.78309 0.57444 0.03399 0.0
C1863 C 0.76918 0.58625 0.04674 0.0
C1864 C 0.78814 0.58124 0.01315 0.0
C1865 C 0.76142 0.6056 0.03887 0.0
C1866 C 0.76665 0.61262 0.01835 0.0
C1867 C 0.7831 0.60624 0.98383 0.0
C1868 C 0.79454 0.59299 0.97006 0.0
C1869 C 0.77956 0.60032 0.00518 0.0
C1870 C 0.80389 0.5746 0.9784 0.0
C1871 C 0.80083 0.56885 -0.0002 0.0
H1872 H 0.35726 0.74356 0.97586 0.0
H1873 H 0.42661 0.74375 0.97763 0.0
H1874 H 0.42632 0.74729 0.01651 0.0
H1875 H 0.40653 0.74932 0.05002 0.0
H1876 H 0.33719 0.74858 0.04864 0.0
H1877 H 0.33739 0.74638 0.00955 0.0
C1878 C 0.37232 0.74444 0.98473 0.0
C1879 C 0.39191 0.74333 0.97382 0.0
C1880 C 0.37206 0.74638 0.00715 0.0
C1881 C 0.41127 0.74451 0.98559 0.0
C1882 C 0.41115 0.74655 0.00785 0.0
C1883 C 0.39143 0.74881 0.0412 0.0
C1884 C 0.37188 0.74909 0.05226 0.0
C1885 C 0.39165 0.74736 0.01879 0.0
C1886 C 0.35249 0.74838 0.04054 0.0
C1887 C 0.35257 0.74709 0.01818 0.0
H1888 H 0.2253 0.42549 0.04432 0.0
H1889 H 0.26465 0.37003 0.04781 0.0
H1890 H 0.26079 0.36465 0.00926 0.0
H1891 H 0.24904 0.3775 0.97424 0.0
H1892 H 0.2106 0.43358 0.97042 0.0
H1893 H 0.21108 0.43668 0.00942 0.0
C1894 C 0.23282 0.41207 0.0367 0.0
C1895 C 0.24544 0.39834 0.04893 0.0
C1896 C 0.23078 0.40921 0.01443 0.0
C1897 C 0.25499 0.38097 0.03878 0.0
C1898 C 0.25281 0.37787 0.01671 0.0
C1899 C 0.24051 0.39025 0.98192 0.0
C1900 C 0.23 0.40541 0.96938 0.0
C1901 C 0.24117 0.39218 0.00432 0.0
C1902 C 0.21894 0.42175 0.97965 0.0
C1903 C 0.21926 0.42359 0.00197 0.0
H1904 H 0.03613 0.60681 0.74267 0.0
H1905 H 0.03515 0.54137 0.76457 0.0
H1906 H -0.00355 0.54244 0.77013 0.0
H1907 H 0.96257 0.56101 0.76608 0.0
H1908 H 0.96362 0.62623 0.7435 0.0
H1909 H 0.00267 0.62621 0.74113 0.0
C1910 C 0.0275 0.59282 0.74882 0.0
C1911 C 0.03849 0.57398 0.75297 0.0
C1912 C 0.00525 0.59347 0.75181 0.0
C1913 C 0.02708 0.55606 0.76113 0.0
C1914 C 0.00493 0.55664 0.76429 0.0
C1915 C 0.97134 0.57531 0.7609 0.0
C1916 C 0.96015 0.59351 0.75478 0.0
C1917 C 0.9938 0.57512 0.75929 0.0
C1918 C 0.9718 0.61194 0.74817 0.0
C1919 C 0.99415 0.61194 0.74676 0.0
H1920 H 0.38934 0.95122 0.78235 0.0
H1921 H 0.32126 0.9418 0.77051 0.0
H1922 H 0.31715 0.98049 0.76956 0.0
H1923 H 0.33332 0.0169 0.7695 0.0
H1924 H 0.40154 0.02608 0.78076 0.0
H1925 H 0.40507 0.98758 0.7847 0.0
C1926 C 0.37356 0.9576 0.77974 0.0
C1927 C 0.35568 0.9436 0.77631 0.0
C1928 C 0.37133 0.97984 0.77902 0.0
C1929 C 0.33533 0.95218 0.77311 0.0
C1930 C 0.33296 0.97433 0.77251 0.0
C1931 C 0.34893 0.01052 0.77304 0.0
C1932 C 0.36715 0.02438 0.77464 0.0
C1933 C 0.35091 0.9883 0.77506 0.0
C1934 C 0.38724 0.0158 0.77932 0.0
C1935 C 0.3893 0.99376 0.78154 0.0
H1936 H 0.03475 0.40088 0.77522 0.0
H1937 H 0.03189 0.33178 0.77679 0.0
H1938 H 0.99276 0.33195 0.77869 0.0
H1939 H 0.95933 0.3516 0.77692 0.0
H1940 H 0.96233 0.42068 0.77449 0.0
H1941 H 0.00147 0.42058 0.7761 0.0
C1942 C 0.02562 0.38584 0.7762 0.0
C1943 C 0.03625 0.36634 0.77565 0.0
C1944 C 0.00312 0.38603 0.77702 0.0
C1945 C 0.02413 0.34702 0.77707 0.0
C1946 C 0.00173 0.3471 0.7781 0.0
C1947 C 0.96852 0.36666 0.77697 0.0
C1948 C 0.95789 0.3861 0.77538 0.0
C1949 C 0.99105 0.36649 0.77763 0.0
C1950 C 0.97007 0.40546 0.77559 0.0
C1951 C 0.99248 0.40543 0.77646 0.0
H1952 H 0.62921 0.97676 0.74688 0.0
H1953 H 0.57501 0.96546 0.7884 0.0
H1954 H 0.56592 0.00306 0.78575 0.0
H1955 H 0.57116 0.03815 0.7686 0.0
H1956 H 0.62442 0.04869 0.72571 0.0
H1957 H 0.63607 0.01241 0.73202 0.0
C1958 C 0.61562 0.98257 0.75567 0.0
C1959 C 0.60271 0.96827 0.76767 0.0
C1960 C 0.61013 0.00404 0.75361 0.0
C1961 C 0.58515 0.9761 0.77894 0.0
C1962 C 0.57988 -0.00241 0.77737 0.0
C1963 C 0.58545 0.03259 0.76082 0.0
C1964 C 0.59674 0.04603 0.74651 0.0
C1965 C 0.59189 0.01155 0.76424 0.0
C1966 C 0.61528 0.0386 0.73662 0.0
C1967 C 0.62199 0.01785 0.74023 0.0
H1968 H 0.95428 0.36412 0.23359 0.0
H1969 H 0.96438 0.42549 0.20314 0.0
H1970 H 0.0028 0.41939 0.20092 0.0
H1971 H 0.03371 0.39792 0.21 0.0
H1972 H 0.02377 0.33693 0.24122 0.0
H1973 H 0.985 0.34154 0.2405 0.0
C1974 C 0.96484 0.37612 0.22632 0.0
C1975 C 0.95648 0.39534 0.21875 0.0
C1976 C 0.98693 0.37261 0.22526 0.0
C1977 C 0.97039 0.41061 0.20922 0.0
C1978 C 0.99237 0.40715 0.20795 0.0
C1979 C 0.02308 0.38549 0.21644 0.0
C1980 C 0.03167 0.36718 0.22582 0.0
C1981 C 0.00085 0.38839 0.21627 0.0
C1982 C 0.01762 0.35123 0.23399 0.0
C1983 C -0.00456 0.35388 0.23365 0.0
H1984 H 0.64759 0.02568 0.23113 0.0
H1985 H 0.57848 0.02845 0.22715 0.0
H1986 H 0.57549 0.98956 0.22424 0.0
H1987 H 0.59222 0.95477 0.225 0.0
H1988 H 0.66122 0.95164 0.23007 0.0
H1989 H 0.6645 0.99071 0.23017 0.0
C1990 C 0.63188 0.0178 0.22945 0.0
C1991 C 0.6133 0.02998 0.22949 0.0
C1992 C 0.63024 0.99537 0.22803 0.0
C1993 C 0.59306 0.01948 0.22728 0.0
C1994 C 0.59132 -0.00278 0.22561 0.0
C1995 C 0.60801 0.96259 0.22591 0.0
C1996 C 0.62644 0.95028 0.22764 0.0
C1997 C 0.60976 0.98501 0.22629 0.0
C1998 C 0.64676 0.96072 0.2288 0.0
C1999 C 0.64865 0.98307 0.2289 0.0
H2000 H 0.01397 0.63668 0.2319 0.0
H2001 H 0.01796 0.57662 0.19797 0.0
H2002 H 0.97887 0.5722 0.19807 0.0
H2003 H 0.94397 0.58361 0.21089 0.0
H2004 H 0.94022 0.64273 0.2465 0.0
H2005 H 0.9788 0.64936 0.24248 0.0
C2006 C 0.00629 0.62278 0.22423 0.0
C2007 C 0.01887 0.60693 0.2151 0.0
C2008 C 0.98386 0.62007 0.22481 0.0
C2009 C 0.00865 0.58899 0.20526 0.0
C2010 C 0.9863 0.58642 0.20534 0.0
C2011 C 0.95153 0.59809 0.21752 0.0
C2012 C 0.93928 0.61254 0.22915 0.0
C2013 C 0.97379 0.60158 0.21556 0.0
C2014 C 0.94933 0.63124 0.23764 0.0
C2015 C 0.9714 0.63505 0.23536 0.0
H2016 H 0.41769 0.06126 0.21181 0.0
H2017 H 0.36298 0.05919 0.25381 0.0
H2018 H 0.35678 0.02126 0.24586 0.0
H2019 H 0.36931 0.98797 0.23035 0.0
H2020 H 0.42496 0.98955 0.18961 0.0
H2021 H 0.42809 0.02842 0.19339 0.0
C2022 C 0.40423 0.05259 0.21899 0.0
C2023 C 0.39103 0.06298 0.23363 0.0
C2024 C 0.40096 0.03065 0.21465 0.0
C2025 C 0.37357 0.05153 0.24269 0.0
C2026 C 0.36999 0.02982 0.23815 0.0
C2027 C 0.38191 -0.00318 0.22197 0.0
C2028 C 0.39705 0.98581 0.20996 0.0
C2029 C 0.38396 0.01909 0.22466 0.0
C2030 C 0.41319 -0.00241 0.19913 0.0
C2031 C 0.41505 0.01983 0.20135 0.0
H2032 H 0.76108 0.02193 0.57404 0.0
H2033 H 0.73994 0.04239 0.63631 0.0
H2034 H 0.73338 0.00519 0.6467 0.0
H2035 H 0.73182 0.96693 0.63747 0.0
H2036 H 0.75239 0.94663 0.57493 0.0
H2037 H 0.76105 0.98366 0.5654 0.0
C2038 C 0.75519 0.01827 0.58995 0.0
C2039 C 0.7509 0.03495 0.6043 0.0
C2040 C 0.75125 -0.00315 0.59577 0.0
C2041 C 0.74331 0.02988 0.62488 0.0
C2042 C 0.73951 0.0086 0.63085 0.0
C2043 C 0.73834 0.97058 0.62181 0.0
C2044 C 0.74132 0.95401 0.60693 0.0
C2045 C 0.74314 0.99196 0.61632 0.0
C2046 C 0.74983 0.95905 0.5867 0.0
C2047 C 0.75479 0.98025 0.5812 0.0
H2048 H 0.7626 0.02766 0.36581 0.0
H2049 H 0.77953 0.02577 0.43298 0.0
H2050 H 0.77695 0.98675 0.43221 0.0
H2051 H 0.76649 0.95343 0.41336 0.0
H2052 H 0.74953 0.95528 0.3462 0.0
H2053 H 0.7557 0.99405 0.34607 0.0
C2054 C 0.76598 0.01871 0.38022 0.0
C2055 C 0.77096 0.02963 0.39948 0.0
C2056 C 0.76431 -0.00373 0.37973 0.0
C2057 C 0.77556 0.01779 0.41795 0.0
C2058 C 0.774 0.99546 0.41757 0.0
C2059 C 0.76435 0.96229 0.39864 0.0
C2060 C 0.75727 0.95153 0.3799 0.0
C2061 C 0.76783 0.98458 0.39868 0.0
C2062 C 0.75486 0.96318 0.36089 0.0
C2063 C 0.75832 0.98537 0.3608 0.0
H2064 H 0.96323 0.77956 0.40454 0.0
H2065 H 0.95521 0.75137 0.34157 0.0
H2066 H 0.99412 0.75019 0.33788 0.0
H2067 H 0.03017 0.75393 0.35393 0.0
H2068 H 0.03812 0.78183 0.41703 0.0
H2069 H -0.00053 0.78651 0.41915 0.0
C2070 C 0.96998 0.77339 0.38989 0.0
C2071 C 0.95632 0.7653 0.37348 0.0
C2072 C 0.99235 0.77255 0.38795 0.0
C2073 C 0.96534 0.75759 0.35451 0.0
C2074 C 0.98761 0.75683 0.35241 0.0
C2075 C 0.02348 0.76123 0.36807 0.0
C2076 C 0.03697 0.76724 0.38542 0.0
C2077 C 0.00122 0.76374 0.36925 0.0
C2078 C 0.02809 0.77694 0.40349 0.0
C2079 C 0.00597 0.77957 0.40476 0.0
H2080 H 0.22701 0.01708 0.35268 0.0
H2081 H 0.19728 0.0254 0.41422 0.0
H2082 H 0.19606 0.98672 0.41952 0.0
H2083 H 0.20682 0.95097 0.40837 0.0
H2084 H 0.23792 0.94294 0.34747 0.0
H2085 H 0.23503 0.98104 0.34021 0.0
C2086 C 0.21996 0.01044 0.36712 0.0
C2087 C 0.21247 0.02415 0.38311 0.0
C2088 C 0.21973 0.98823 0.37029 0.0
C2089 C 0.20333 0.01523 0.4017 0.0
C2090 C 0.20267 0.99311 0.40479 0.0
C2091 C 0.21271 0.95749 0.39338 0.0
C2092 C 0.2228 0.94416 0.37862 0.0
C2093 C 0.21136 0.9795 0.38945 0.0
C2094 C 0.23027 0.95287 0.35923 0.0
C2095 C 0.22864 0.97468 0.35505 0.0
H2096 H 0.01788 0.25198 0.35787 0.0
H2097 H 0.03316 0.22795 0.42072 0.0
H2098 H 0.995 0.22487 0.42912 0.0
H2099 H 0.95751 0.23147 0.4196 0.0
H2100 H 0.94239 0.25659 0.35714 0.0
H2101 H 0.98027 0.25666 0.34762 0.0
C2102 C 0.01288 0.24584 0.37333 0.0
C2103 C 0.02838 0.24035 0.38868 0.0
C2104 C 0.99093 0.24444 0.3782 0.0
C2105 C 0.02159 0.2324 0.40863 0.0
C2106 C -0.00024 0.23067 0.41347 0.0
C2107 C 0.96246 0.23678 0.40383 0.0
C2108 C 0.94714 0.24417 0.38919 0.0
C2109 C 0.98432 0.23704 0.39853 0.0
C2110 C 0.95385 0.25095 0.3688 0.0
C2111 C 0.97553 0.251 0.36332 0.0
H2112 H 0.25061 0.01719 0.63616 0.0
H2113 H 0.20979 0.03232 0.58243 0.0
H2114 H 0.20706 0.99454 0.57234 0.0
H2115 H 0.21848 0.95761 0.5772 0.0
H2116 H 0.26011 0.94286 0.63044 0.0
H2117 H 0.2602 0.98007 0.64227 0.0
C2118 C 0.2409 0.01223 0.62238 0.0
C2119 C 0.23056 0.02761 0.61 0.0
C2120 C 0.23967 0.99054 0.61645 0.0
C2121 C 0.21801 0.02085 0.59222 0.0
C2122 C 0.21648 -0.00076 0.58639 0.0
C2123 C 0.22742 0.96248 0.59149 0.0
C2124 C 0.23942 0.94748 0.60277 0.0
C2125 C 0.2276 0.984 0.59813 0.0
C2126 C 0.25086 0.95409 0.62132 0.0
C2127 C 0.25093 0.97538 0.62813 0.0
H2128 H 0.96661 0.23275 0.57042 0.0
H2129 H 0.95197 0.24474 0.63677 0.0
H2130 H 0.99021 0.2457 0.6458 0.0
H2131 H 0.02787 0.24521 0.6345 0.0
H2132 H 0.0423 0.23406 0.56793 0.0
H2133 H 0.00408 0.23063 0.55943 0.0
C2134 C 0.97174 0.23539 0.5869 0.0
C2135 C 0.95643 0.2388 0.60285 0.0
C2136 C 0.99375 0.2362 0.59195 0.0
C2137 C 0.96341 0.24216 0.62413 0.0
C2138 C 0.98528 0.24275 0.62932 0.0
C2139 C 0.02267 0.24188 0.61817 0.0
C2140 C 0.03796 0.24003 0.60189 0.0
C2141 C 0.00061 0.24012 0.6133 0.0
C2142 C 0.0309 0.23567 0.58079 0.0
C2143 C 0.00903 0.2337 0.57588 0.0
H2144 H 0.02953 0.78683 0.57478 0.0
H2145 H 0.04795 0.74614 0.62707 0.0
H2146 H 0.01244 0.74882 0.64262 0.0
H2147 H 0.97518 0.75969 0.63957 0.0
H2148 H 0.95621 0.79954 0.58687 0.0
H2149 H 0.99295 0.80049 0.57356 0.0
C2150 C 0.02587 0.77877 0.58971 0.0
C2151 C 0.04132 0.76607 0.59955 0.0
C2152 C 0.00526 0.78015 0.5985 0.0
C2153 C 0.03632 0.75584 0.61899 0.0
C2154 C 0.01598 0.75735 0.62793 0.0
C2155 C 0.97911 0.76886 0.62535 0.0
C2156 C 0.96287 0.77931 0.61413 0.0
C2157 C 0.00017 0.76901 0.61754 0.0
C2158 C 0.96834 0.79123 0.59579 0.0
C2159 C 0.98935 0.79171 0.5881 0.0
loop_
_geom_bond_atom_site_label_1
_geom_bond_atom_site_label_2
_geom_bond_distance
_geom_bond_site_symmetry_2
_ccdc_geom_bond_type
C0 O1 1.160 . S
C0 O7 1.185 . S
O1 C0 1.160 . S
O2 Zn3 1.899 . S
O2 C10 1.284 . S
Zn3 O2 1.899 . S
Zn3 O4 2.032 . S
Zn3 O7 2.086 . S
Zn3 O12 1.977 . S
O4 Zn3 2.032 . S
O4 C8 1.278 . S
C5 O6 1.203 . S
C5 O12 1.267 . S
O6 C5 1.203 . S
O7 C0 1.185 . S
O7 Zn3 2.086 . S
C8 O4 1.278 . S
C8 O9 1.211 . S
O9 C8 1.211 . S
C10 O2 1.284 . S
C10 O11 1.273 . S
O11 C10 1.273 . S
O12 Zn3 1.977 . S
O12 C5 1.267 . S
C13 O14 1.160 . S
C13 O20 1.185 . S
O14 C13 1.160 . S
O15 Zn16 1.899 . S
O15 C23 1.284 . S
Zn16 O15 1.899 . S
Zn16 O17 2.032 . S
Zn16 O20 2.086 . S
Zn16 O25 1.977 . S
O17 Zn16 2.032 . S
O17 C21 1.278 . S
C18 O19 1.203 . S
C18 O25 1.267 . S
O19 C18 1.203 . S
O20 C13 1.185 . S
O20 Zn16 2.086 . S
C21 O17 1.278 . S
C21 O22 1.211 . S
O22 C21 1.211 . S
C23 O15 1.284 . S
C23 O24 1.273 . S
O24 C23 1.273 . S
O25 Zn16 1.977 . S
O25 C18 1.267 . S
C26 O27 1.160 . S
C26 O33 1.185 . S
O27 C26 1.160 . S
O28 Zn29 1.899 . S
O28 C36 1.284 . S
Zn29 O28 1.899 . S
Zn29 O30 2.032 . S
Zn29 O33 2.086 . S
Zn29 O38 1.977 . S
O30 Zn29 2.032 . S
O30 C34 1.278 . S
C31 O32 1.203 . S
C31 O38 1.267 . S
O32 C31 1.203 . S
O33 C26 1.185 . S
O33 Zn29 2.086 . S
C34 O30 1.278 . S
C34 O35 1.211 . S
O35 C34 1.211 . S
C36 O28 1.284 . S
C36 O37 1.273 . S
O37 C36 1.273 . S
O38 Zn29 1.977 . S
O38 C31 1.267 . S
C39 O40 1.160 . S
C39 O46 1.185 . S
O40 C39 1.160 . S
O41 Zn42 1.899 . S
O41 C49 1.284 . S
Zn42 O41 1.899 . S
Zn42 O43 2.032 . S
Zn42 O46 2.086 . S
Zn42 O51 1.977 . S
O43 Zn42 2.032 . S
O43 C47 1.278 . S
C44 O45 1.203 . S
C44 O51 1.267 . S
O45 C44 1.203 . S
O46 C39 1.185 . S
O46 Zn42 2.086 . S
C47 O43 1.278 . S
C47 O48 1.211 . S
O48 C47 1.211 . S
C49 O41 1.284 . S
C49 O50 1.273 . S
O50 C49 1.273 . S
O51 Zn42 1.977 . S
O51 C44 1.267 . S
C52 O53 1.160 . S
C52 O59 1.185 . S
O53 C52 1.160 . S
O54 Zn55 1.899 . S
O54 C62 1.284 . S
Zn55 O54 1.899 . S
Zn55 O56 2.032 . S
Zn55 O59 2.086 . S
Zn55 O64 1.977 . S
O56 Zn55 2.032 . S
O56 C60 1.278 . S
C57 O58 1.203 . S
C57 O64 1.267 . S
O58 C57 1.203 . S
O59 C52 1.185 . S
O59 Zn55 2.086 . S
C60 O56 1.278 . S
C60 O61 1.211 . S
O61 C60 1.211 . S
C62 O54 1.284 . S
C62 O63 1.273 . S
O63 C62 1.273 . S
O64 Zn55 1.977 . S
O64 C57 1.267 . S
C65 O66 1.160 . S
C65 O72 1.185 . S
O66 C65 1.160 . S
O67 Zn68 1.899 . S
O67 C75 1.284 . S
Zn68 O67 1.899 . S
Zn68 O69 2.032 . S
Zn68 O72 2.086 . S
Zn68 O77 1.977 . S
O69 Zn68 2.032 . S
O69 C73 1.278 . S
C70 O71 1.203 . S
C70 O77 1.267 . S
O71 C70 1.203 . S
O72 C65 1.185 . S
O72 Zn68 2.086 . S
C73 O69 1.278 . S
C73 O74 1.211 . S
O74 C73 1.211 . S
C75 O67 1.284 . S
C75 O76 1.273 . S
O76 C75 1.273 . S
O77 Zn68 1.977 . S
O77 C70 1.267 . S
C78 O79 1.160 . S
C78 O85 1.185 . S
O79 C78 1.160 . S
O80 Zn81 1.899 . S
O80 C88 1.284 . S
Zn81 O80 1.899 . S
Zn81 O82 2.032 . S
Zn81 O85 2.086 . S
Zn81 O90 1.977 . S
O82 Zn81 2.032 . S
O82 C86 1.278 . S
C83 O84 1.203 . S
C83 O90 1.267 . S
O84 C83 1.203 . S
O85 C78 1.185 . S
O85 Zn81 2.086 . S
C86 O82 1.278 . S
C86 O87 1.211 . S
O87 C86 1.211 . S
C88 O80 1.284 . S
C88 O89 1.273 . S
O89 C88 1.273 . S
O90 Zn81 1.977 . S
O90 C83 1.267 . S
C91 O92 1.160 . S
C91 O98 1.185 . S
O92 C91 1.160 . S
O93 Zn94 1.899 . S
O93 C101 1.284 . S
Zn94 O93 1.899 . S
Zn94 O95 2.032 . S
Zn94 O98 2.086 . S
Zn94 O103 1.977 . S
O95 Zn94 2.032 . S
O95 C99 1.278 . S
C96 O97 1.203 . S
C96 O103 1.267 . S
O97 C96 1.203 . S
O98 C91 1.185 . S
O98 Zn94 2.086 . S
C99 O95 1.278 . S
C99 O100 1.211 . S
O100 C99 1.211 . S
C101 O93 1.284 . S
C101 O102 1.273 . S
O102 C101 1.273 . S
O103 Zn94 1.977 . S
O103 C96 1.267 . S
C104 O105 1.160 . S
C104 O111 1.185 . S
O105 C104 1.160 . S
O106 Zn107 1.899 . S
O106 C114 1.284 . S
Zn107 O106 1.899 . S
Zn107 O108 2.032 . S
Zn107 O111 2.086 . S
Zn107 O116 1.977 . S
O108 Zn107 2.032 . S
O108 C112 1.278 . S
C109 O110 1.203 . S
C109 O116 1.267 . S
O110 C109 1.203 . S
O111 C104 1.185 . S
O111 Zn107 2.086 . S
C112 O108 1.278 . S
C112 O113 1.211 . S
O113 C112 1.211 . S
C114 O106 1.284 . S
C114 O115 1.273 . S
O115 C114 1.273 . S
O116 Zn107 1.977 . S
O116 C109 1.267 . S
C117 O118 1.160 . S
C117 O124 1.185 . S
O118 C117 1.160 . S
O119 Zn120 1.899 . S
O119 C127 1.284 . S
Zn120 O119 1.899 . S
Zn120 O121 2.032 . S
Zn120 O124 2.086 . S
Zn120 O129 1.977 . S
O121 Zn120 2.032 . S
O121 C125 1.278 . S
C122 O123 1.203 . S
C122 O129 1.267 . S
O123 C122 1.203 . S
O124 C117 1.185 . S
O124 Zn120 2.086 . S
C125 O121 1.278 . S
C125 O126 1.211 . S
O126 C125 1.211 . S
C127 O119 1.284 . S
C127 O128 1.273 . S
O128 C127 1.273 . S
O129 Zn120 1.977 . S
O129 C122 1.267 . S
C130 O131 1.160 . S
C130 O137 1.185 . S
O131 C130 1.160 . S
O132 Zn133 1.899 . S
O132 C140 1.284 . S
Zn133 O132 1.899 . S
Zn133 O134 2.032 . S
Zn133 O137 2.086 . S
Zn133 O142 1.977 . S
O134 Zn133 2.032 . S
O134 C138 1.278 . S
C135 O136 1.203 . S
C135 O142 1.267 . S
O136 C135 1.203 . S
O137 C130 1.185 . S
O137 Zn133 2.086 . S
C138 O134 1.278 . S
C138 O139 1.211 . S
O139 C138 1.211 . S
C140 O132 1.284 . S
C140 O141 1.273 . S
O141 C140 1.273 . S
O142 Zn133 1.977 . S
O142 C135 1.267 . S
C143 O144 1.160 . S
C143 O150 1.185 . S
O144 C143 1.160 . S
O145 Zn146 1.899 . S
O145 C153 1.284 . S
Zn146 O145 1.899 . S
Zn146 O147 2.032 . S
Zn146 O150 2.086 . S
Zn146 O155 1.977 . S
O147 Zn146 2.032 . S
O147 C151 1.278 . S
C148 O149 1.203 . S
C148 O155 1.267 . S
O149 C148 1.203 . S
O150 C143 1.185 . S
O150 Zn146 2.086 . S
C151 O147 1.278 . S
C151 O152 1.211 . S
O152 C151 1.211 . S
C153 O145 1.284 . S
C153 O154 1.273 . S
O154 C153 1.273 . S
O155 Zn146 1.977 . S
O155 C148 1.267 . S
C156 O157 1.160 . S
C156 O163 1.185 . S
O157 C156 1.160 . S
O158 Zn159 1.899 . S
O158 C166 1.284 . S
Zn159 O158 1.899 . S
Zn159 O160 2.032 . S
Zn159 O163 2.086 . S
Zn159 O168 1.977 . S
O160 Zn159 2.032 . S
O160 C164 1.278 . S
C161 O162 1.203 . S
C161 O168 1.267 . S
O162 C161 1.203 . S
O163 C156 1.185 . S
O163 Zn159 2.086 . S
C164 O160 1.278 . S
C164 O165 1.211 . S
O165 C164 1.211 . S
C166 O158 1.284 . S
C166 O167 1.273 . S
O167 C166 1.273 . S
O168 Zn159 1.977 . S
O168 C161 1.267 . S
C169 O170 1.160 . S
C169 O176 1.185 . S
O170 C169 1.160 . S
O171 Zn172 1.899 . S
O171 C179 1.284 . S
Zn172 O171 1.899 . S
Zn172 O173 2.032 . S
Zn172 O176 2.086 . S
Zn172 O181 1.977 . S
O173 Zn172 2.032 . S
O173 C177 1.278 . S
C174 O175 1.203 . S
C174 O181 1.267 . S
O175 C174 1.203 . S
O176 C169 1.185 . S
O176 Zn172 2.086 . S
C177 O173 1.278 . S
C177 O178 1.211 . S
O178 C177 1.211 . S
C179 O171 1.284 . S
C179 O180 1.273 . S
O180 C179 1.273 . S
O181 Zn172 1.977 . S
O181 C174 1.267 . S
C182 O183 1.160 . S
C182 O189 1.185 . S
O183 C182 1.160 . S
O184 Zn185 1.899 . S
O184 C192 1.284 . S
Zn185 O184 1.899 . S
Zn185 O186 2.032 . S
Zn185 O189 2.086 . S
Zn185 O194 1.977 . S
O186 Zn185 2.032 . S
O186 C190 1.278 . S
C187 O188 1.203 . S
C187 O194 1.267 . S
O188 C187 1.203 . S
O189 C182 1.185 . S
O189 Zn185 2.086 . S
C190 O186 1.278 . S
C190 O191 1.211 . S
O191 C190 1.211 . S
C192 O184 1.284 . S
C192 O193 1.273 . S
O193 C192 1.273 . S
O194 Zn185 1.977 . S
O194 C187 1.267 . S
C195 O196 1.160 . S
C195 O202 1.185 . S
O196 C195 1.160 . S
O197 Zn198 1.899 . S
O197 C205 1.284 . S
Zn198 O197 1.899 . S
Zn198 O199 2.032 . S
Zn198 O202 2.086 . S
Zn198 O207 1.977 . S
O199 Zn198 2.032 . S
O199 C203 1.278 . S
C200 O201 1.203 . S
C200 O207 1.267 . S
O201 C200 1.203 . S
O202 C195 1.185 . S
O202 Zn198 2.086 . S
C203 O199 1.278 . S
C203 O204 1.211 . S
O204 C203 1.211 . S
C205 O197 1.284 . S
C205 O206 1.273 . S
O206 C205 1.273 . S
O207 Zn198 1.977 . S
O207 C200 1.267 . S
C208 O209 1.160 . S
C208 O215 1.185 . S
O209 C208 1.160 . S
O210 Zn211 1.899 . S
O210 C218 1.284 . S
Zn211 O210 1.899 . S
Zn211 O212 2.032 . S
Zn211 O215 2.086 . S
Zn211 O220 1.977 . S
O212 Zn211 2.032 . S
O212 C216 1.278 . S
C213 O214 1.203 . S
C213 O220 1.267 . S
O214 C213 1.203 . S
O215 C208 1.185 . S
O215 Zn211 2.086 . S
C216 O212 1.278 . S
C216 O217 1.211 . S
O217 C216 1.211 . S
C218 O210 1.284 . S
C218 O219 1.273 . S
O219 C218 1.273 . S
O220 Zn211 1.977 . S
O220 C213 1.267 . S
C221 O222 1.160 . S
C221 O228 1.185 . S
O222 C221 1.160 . S
O223 Zn224 1.899 . S
O223 C231 1.284 . S
Zn224 O223 1.899 . S
Zn224 O225 2.032 . S
Zn224 O228 2.086 . S
Zn224 O233 1.977 . S
O225 Zn224 2.032 . S
O225 C229 1.278 . S
C226 O227 1.203 . S
C226 O233 1.267 . S
O227 C226 1.203 . S
O228 C221 1.185 . S
O228 Zn224 2.086 . S
C229 O225 1.278 . S
C229 O230 1.211 . S
O230 C229 1.211 . S
C231 O223 1.284 . S
C231 O232 1.273 . S
O232 C231 1.273 . S
O233 Zn224 1.977 . S
O233 C226 1.267 . S
C234 O235 1.160 . S
C234 O241 1.185 . S
O235 C234 1.160 . S
O236 Zn237 1.899 . S
O236 C244 1.284 . S
Zn237 O236 1.899 . S
Zn237 O238 2.032 . S
Zn237 O241 2.086 . S
Zn237 O246 1.977 . S
O238 Zn237 2.032 . S
O238 C242 1.278 . S
C239 O240 1.203 . S
C239 O246 1.267 . S
O240 C239 1.203 . S
O241 C234 1.185 . S
O241 Zn237 2.086 . S
C242 O238 1.278 . S
C242 O243 1.211 . S
O243 C242 1.211 . S
C244 O236 1.284 . S
C244 O245 1.273 . S
O245 C244 1.273 . S
O246 Zn237 1.977 . S
O246 C239 1.267 . S
C247 O248 1.160 . S
C247 O254 1.185 . S
O248 C247 1.160 . S
O249 Zn250 1.899 . S
O249 C257 1.284 . S
Zn250 O249 1.899 . S
Zn250 O251 2.032 . S
Zn250 O254 2.086 . S
Zn250 O259 1.977 . S
O251 Zn250 2.032 . S
O251 C255 1.278 . S
C252 O253 1.203 . S
C252 O259 1.267 . S
O253 C252 1.203 . S
O254 C247 1.185 . S
O254 Zn250 2.086 . S
C255 O251 1.278 . S
C255 O256 1.211 . S
O256 C255 1.211 . S
C257 O249 1.284 . S
C257 O258 1.273 . S
O258 C257 1.273 . S
O259 Zn250 1.977 . S
O259 C252 1.267 . S
C260 O261 1.160 . S
C260 O267 1.185 . S
O261 C260 1.160 . S
O262 Zn263 1.899 . S
O262 C270 1.284 . S
Zn263 O262 1.899 . S
Zn263 O264 2.032 . S
Zn263 O267 2.086 . S
Zn263 O272 1.977 . S
O264 Zn263 2.032 . S
O264 C268 1.278 . S
C265 O266 1.203 . S
C265 O272 1.267 . S
O266 C265 1.203 . S
O267 C260 1.185 . S
O267 Zn263 2.086 . S
C268 O264 1.278 . S
C268 O269 1.211 . S
O269 C268 1.211 . S
C270 O262 1.284 . S
C270 O271 1.273 . S
O271 C270 1.273 . S
O272 Zn263 1.977 . S
O272 C265 1.267 . S
C273 O274 1.160 . S
C273 O280 1.185 . S
O274 C273 1.160 . S
O275 Zn276 1.899 . S
O275 C283 1.284 . S
Zn276 O275 1.899 . S
Zn276 O277 2.032 . S
Zn276 O280 2.086 . S
Zn276 O285 1.977 . S
O277 Zn276 2.032 . S
O277 C281 1.278 . S
C278 O279 1.203 . S
C278 O285 1.267 . S
O279 C278 1.203 . S
O280 C273 1.185 . S
O280 Zn276 2.086 . S
C281 O277 1.278 . S
C281 O282 1.211 . S
O282 C281 1.211 . S
C283 O275 1.284 . S
C283 O284 1.273 . S
O284 C283 1.273 . S
O285 Zn276 1.977 . S
O285 C278 1.267 . S
C286 O287 1.160 . S
C286 O293 1.185 . S
O287 C286 1.160 . S
O288 Zn289 1.899 . S
O288 C296 1.284 . S
Zn289 O288 1.899 . S
Zn289 O290 2.032 . S
Zn289 O293 2.086 . S
Zn289 O298 1.977 . S
O290 Zn289 2.032 . S
O290 C294 1.278 . S
C291 O292 1.203 . S
C291 O298 1.267 . S
O292 C291 1.203 . S
O293 C286 1.185 . S
O293 Zn289 2.086 . S
C294 O290 1.278 . S
C294 O295 1.211 . S
O295 C294 1.211 . S
C296 O288 1.284 . S
C296 O297 1.273 . S
O297 C296 1.273 . S
O298 Zn289 1.977 . S
O298 C291 1.267 . S
C299 O300 1.160 . S
C299 O306 1.185 . S
O300 C299 1.160 . S
O301 Zn302 1.899 . S
O301 C309 1.284 . S
Zn302 O301 1.899 . S
Zn302 O303 2.032 . S
Zn302 O306 2.086 . S
Zn302 O311 1.977 . S
O303 Zn302 2.032 . S
O303 C307 1.278 . S
C304 O305 1.203 . S
C304 O311 1.267 . S
O305 C304 1.203 . S
O306 C299 1.185 . S
O306 Zn302 2.086 . S
C307 O303 1.278 . S
C307 O308 1.211 . S
O308 C307 1.211 . S
C309 O301 1.284 . S
C309 O310 1.273 . S
O310 C309 1.273 . S
O311 Zn302 1.977 . S
O311 C304 1.267 . S
C312 O313 1.160 . S
C312 O319 1.185 . S
O313 C312 1.160 . S
O314 Zn315 1.899 . S
O314 C322 1.284 . S
Zn315 O314 1.899 . S
Zn315 O316 2.032 . S
Zn315 O319 2.086 . S
Zn315 O324 1.977 . S
O316 Zn315 2.032 . S
O316 C320 1.278 . S
C317 O318 1.203 . S
C317 O324 1.267 . S
O318 C317 1.203 . S
O319 C312 1.185 . S
O319 Zn315 2.086 . S
C320 O316 1.278 . S
C320 O321 1.211 . S
O321 C320 1.211 . S
C322 O314 1.284 . S
C322 O323 1.273 . S
O323 C322 1.273 . S
O324 Zn315 1.977 . S
O324 C317 1.267 . S
C325 O326 1.160 . S
C325 O332 1.185 . S
O326 C325 1.160 . S
O327 Zn328 1.899 . S
O327 C335 1.284 . S
Zn328 O327 1.899 . S
Zn328 O329 2.032 . S
Zn328 O332 2.086 . S
Zn328 O337 1.977 . S
O329 Zn328 2.032 . S
O329 C333 1.278 . S
C330 O331 1.203 . S
C330 O337 1.267 . S
O331 C330 1.203 . S
O332 C325 1.185 . S
O332 Zn328 2.086 . S
C333 O329 1.278 . S
C333 O334 1.211 . S
O334 C333 1.211 . S
C335 O327 1.284 . S
C335 O336 1.273 . S
O336 C335 1.273 . S
O337 Zn328 1.977 . S
O337 C330 1.267 . S
C338 O339 1.160 . S
C338 O345 1.185 . S
O339 C338 1.160 . S
O340 Zn341 1.899 . S
O340 C348 1.284 . S
Zn341 O340 1.899 . S
Zn341 O342 2.032 . S
Zn341 O345 2.086 . S
Zn341 O350 1.977 . S
O342 Zn341 2.032 . S
O342 C346 1.278 . S
C343 O344 1.203 . S
C343 O350 1.267 . S
O344 C343 1.203 . S
O345 C338 1.185 . S
O345 Zn341 2.086 . S
C346 O342 1.278 . S
C346 O347 1.211 . S
O347 C346 1.211 . S
C348 O340 1.284 . S
C348 O349 1.273 . S
O349 C348 1.273 . S
O350 Zn341 1.977 . S
O350 C343 1.267 . S
C351 O352 1.160 . S
C351 O358 1.185 . S
O352 C351 1.160 . S
O353 Zn354 1.899 . S
O353 C361 1.284 . S
Zn354 O353 1.899 . S
Zn354 O355 2.032 . S
Zn354 O358 2.086 . S
Zn354 O363 1.977 . S
O355 Zn354 2.032 . S
O355 C359 1.278 . S
C356 O357 1.203 . S
C356 O363 1.267 . S
O357 C356 1.203 . S
O358 C351 1.185 . S
O358 Zn354 2.086 . S
C359 O355 1.278 . S
C359 O360 1.211 . S
O360 C359 1.211 . S
C361 O353 1.284 . S
C361 O362 1.273 . S
O362 C361 1.273 . S
O363 Zn354 1.977 . S
O363 C356 1.267 . S
C364 O365 1.160 . S
C364 O371 1.185 . S
O365 C364 1.160 . S
O366 Zn367 1.899 . S
O366 C374 1.284 . S
Zn367 O366 1.899 . S
Zn367 O368 2.032 . S
Zn367 O371 2.086 . S
Zn367 O376 1.977 . S
O368 Zn367 2.032 . S
O368 C372 1.278 . S
C369 O370 1.203 . S
C369 O376 1.267 . S
O370 C369 1.203 . S
O371 C364 1.185 . S
O371 Zn367 2.086 . S
C372 O368 1.278 . S
C372 O373 1.211 . S
O373 C372 1.211 . S
C374 O366 1.284 . S
C374 O375 1.273 . S
O375 C374 1.273 . S
O376 Zn367 1.977 . S
O376 C369 1.267 . S
C377 O378 1.160 . S
C377 O384 1.185 . S
O378 C377 1.160 . S
O379 Zn380 1.899 . S
O379 C387 1.284 . S
Zn380 O379 1.899 . S
Zn380 O381 2.032 . S
Zn380 O384 2.086 . S
Zn380 O389 1.977 . S
O381 Zn380 2.032 . S
O381 C385 1.278 . S
C382 O383 1.203 . S
C382 O389 1.267 . S
O383 C382 1.203 . S
O384 C377 1.185 . S
O384 Zn380 2.086 . S
C385 O381 1.278 . S
C385 O386 1.211 . S
O386 C385 1.211 . S
C387 O379 1.284 . S
C387 O388 1.273 . S
O388 C387 1.273 . S
O389 Zn380 1.977 . S
O389 C382 1.267 . S
C390 O391 1.160 . S
C390 O397 1.185 . S
O391 C390 1.160 . S
O392 Zn393 1.899 . S
O392 C400 1.284 . S
Zn393 O392 1.899 . S
Zn393 O394 2.032 . S
Zn393 O397 2.086 . S
Zn393 O402 1.977 . S
O394 Zn393 2.032 . S
O394 C398 1.278 . S
C395 O396 1.203 . S
C395 O402 1.267 . S
O396 C395 1.203 . S
O397 C390 1.185 . S
O397 Zn393 2.086 . S
C398 O394 1.278 . S
C398 O399 1.211 . S
O399 C398 1.211 . S
C400 O392 1.284 . S
C400 O401 1.273 . S
O401 C400 1.273 . S
O402 Zn393 1.977 . S
O402 C395 1.267 . S
C403 O404 1.160 . S
C403 O410 1.185 . S
O404 C403 1.160 . S
O405 Zn406 1.899 . S
O405 C413 1.284 . S
Zn406 O405 1.899 . S
Zn406 O407 2.032 . S
Zn406 O410 2.086 . S
Zn406 O415 1.977 . S
O407 Zn406 2.032 . S
O407 C411 1.278 . S
C408 O409 1.203 . S
C408 O415 1.267 . S
O409 C408 1.203 . S
O410 C403 1.185 . S
O410 Zn406 2.086 . S
C411 O407 1.278 . S
C411 O412 1.211 . S
O412 C411 1.211 . S
C413 O405 1.284 . S
C413 O414 1.273 . S
O414 C413 1.273 . S
O415 Zn406 1.977 . S
O415 C408 1.267 . S
C416 O417 1.160 . S
C416 O423 1.185 . S
O417 C416 1.160 . S
O418 Zn419 1.899 . S
O418 C426 1.284 . S
Zn419 O418 1.899 . S
Zn419 O420 2.032 . S
Zn419 O423 2.086 . S
Zn419 O428 1.977 . S
O420 Zn419 2.032 . S
O420 C424 1.278 . S
C421 O422 1.203 . S
C421 O428 1.267 . S
O422 C421 1.203 . S
O423 C416 1.185 . S
O423 Zn419 2.086 . S
C424 O420 1.278 . S
C424 O425 1.211 . S
O425 C424 1.211 . S
C426 O418 1.284 . S
C426 O427 1.273 . S
O427 C426 1.273 . S
O428 Zn419 1.977 . S
O428 C421 1.267 . S
C429 O430 1.160 . S
C429 O436 1.185 . S
O430 C429 1.160 . S
O431 Zn432 1.899 . S
O431 C439 1.284 . S
Zn432 O431 1.899 . S
Zn432 O433 2.032 . S
Zn432 O436 2.086 . S
Zn432 O441 1.977 . S
O433 Zn432 2.032 . S
O433 C437 1.278 . S
C434 O435 1.203 . S
C434 O441 1.267 . S
O435 C434 1.203 . S
O436 C429 1.185 . S
O436 Zn432 2.086 . S
C437 O433 1.278 . S
C437 O438 1.211 . S
O438 C437 1.211 . S
C439 O431 1.284 . S
C439 O440 1.273 . S
O440 C439 1.273 . S
O441 Zn432 1.977 . S
O441 C434 1.267 . S
C442 O443 1.160 . S
C442 O449 1.185 . S
O443 C442 1.160 . S
O444 Zn445 1.899 . S
O444 C452 1.284 . S
Zn445 O444 1.899 . S
Zn445 O446 2.032 . S
Zn445 O449 2.086 . S
Zn445 O454 1.977 . S
O446 Zn445 2.032 . S
O446 C450 1.278 . S
C447 O448 1.203 . S
C447 O454 1.267 . S
O448 C447 1.203 . S
O449 C442 1.185 . S
O449 Zn445 2.086 . S
C450 O446 1.278 . S
C450 O451 1.211 . S
O451 C450 1.211 . S
C452 O444 1.284 . S
C452 O453 1.273 . S
O453 C452 1.273 . S
O454 Zn445 1.977 . S
O454 C447 1.267 . S
C455 O456 1.160 . S
C455 O462 1.185 . S
O456 C455 1.160 . S
O457 Zn458 1.899 . S
O457 C465 1.284 . S
Zn458 O457 1.899 . S
Zn458 O459 2.032 . S
Zn458 O462 2.086 . S
Zn458 O467 1.977 . S
O459 Zn458 2.032 . S
O459 C463 1.278 . S
C460 O461 1.203 . S
C460 O467 1.267 . S
O461 C460 1.203 . S
O462 C455 1.185 . S
O462 Zn458 2.086 . S
C463 O459 1.278 . S
C463 O464 1.211 . S
O464 C463 1.211 . S
C465 O457 1.284 . S
C465 O466 1.273 . S
O466 C465 1.273 . S
O467 Zn458 1.977 . S
O467 C460 1.267 . S
C468 O469 1.160 . S
C468 O475 1.185 . S
O469 C468 1.160 . S
O470 Zn471 1.899 . S
O470 C478 1.284 . S
Zn471 O470 1.899 . S
Zn471 O472 2.032 . S
Zn471 O475 2.086 . S
Zn471 O480 1.977 . S
O472 Zn471 2.032 . S
O472 C476 1.278 . S
C473 O474 1.203 . S
C473 O480 1.267 . S
O474 C473 1.203 . S
O475 C468 1.185 . S
O475 Zn471 2.086 . S
C476 O472 1.278 . S
C476 O477 1.211 . S
O477 C476 1.211 . S
C478 O470 1.284 . S
C478 O479 1.273 . S
O479 C478 1.273 . S
O480 Zn471 1.977 . S
O480 C473 1.267 . S
C481 O482 1.160 . S
C481 O488 1.185 . S
O482 C481 1.160 . S
O483 Zn484 1.899 . S
O483 C491 1.284 . S
Zn484 O483 1.899 . S
Zn484 O485 2.032 . S
Zn484 O488 2.086 . S
Zn484 O493 1.977 . S
O485 Zn484 2.032 . S
O485 C489 1.278 . S
C486 O487 1.203 . S
C486 O493 1.267 . S
O487 C486 1.203 . S
O488 C481 1.185 . S
O488 Zn484 2.086 . S
C489 O485 1.278 . S
C489 O490 1.211 . S
O490 C489 1.211 . S
C491 O483 1.284 . S
C491 O492 1.273 . S
O492 C491 1.273 . S
O493 Zn484 1.977 . S
O493 C486 1.267 . S
C494 O495 1.160 . S
C494 O501 1.185 . S
O495 C494 1.160 . S
O496 Zn497 1.899 . S
O496 C504 1.284 . S
Zn497 O496 1.899 . S
Zn497 O498 2.032 . S
Zn497 O501 2.086 . S
Zn497 O506 1.977 . S
O498 Zn497 2.032 . S
O498 C502 1.278 . S
C499 O500 1.203 . S
C499 O506 1.267 . S
O500 C499 1.203 . S
O501 C494 1.185 . S
O501 Zn497 2.086 . S
C502 O498 1.278 . S
C502 O503 1.211 . S
O503 C502 1.211 . S
C504 O496 1.284 . S
C504 O505 1.273 . S
O505 C504 1.273 . S
O506 Zn497 1.977 . S
O506 C499 1.267 . S
C507 O508 1.160 . S
C507 O514 1.185 . S
O508 C507 1.160 . S
O509 Zn510 1.899 . S
O509 C517 1.284 . S
Zn510 O509 1.899 . S
Zn510 O511 2.032 . S
Zn510 O514 2.086 . S
Zn510 O519 1.977 . S
O511 Zn510 2.032 . S
O511 C515 1.278 . S
C512 O513 1.203 . S
C512 O519 1.267 . S
O513 C512 1.203 . S
O514 C507 1.185 . S
O514 Zn510 2.086 . S
C515 O511 1.278 . S
C515 O516 1.211 . S
O516 C515 1.211 . S
C517 O509 1.284 . S
C517 O518 1.273 . S
O518 C517 1.273 . S
O519 Zn510 1.977 . S
O519 C512 1.267 . S
C520 O521 1.160 . S
C520 O527 1.185 . S
O521 C520 1.160 . S
O522 Zn523 1.899 . S
O522 C530 1.284 . S
Zn523 O522 1.899 . S
Zn523 O524 2.032 . S
Zn523 O527 2.086 . S
Zn523 O532 1.977 . S
O524 Zn523 2.032 . S
O524 C528 1.278 . S
C525 O526 1.203 . S
C525 O532 1.267 . S
O526 C525 1.203 . S
O527 C520 1.185 . S
O527 Zn523 2.086 . S
C528 O524 1.278 . S
C528 O529 1.211 . S
O529 C528 1.211 . S
C530 O522 1.284 . S
C530 O531 1.273 . S
O531 C530 1.273 . S
O532 Zn523 1.977 . S
O532 C525 1.267 . S
C533 O534 1.160 . S
C533 O540 1.185 . S
O534 C533 1.160 . S
O535 Zn536 1.899 . S
O535 C543 1.284 . S
Zn536 O535 1.899 . S
Zn536 O537 2.032 . S
Zn536 O540 2.086 . S
Zn536 O545 1.977 . S
O537 Zn536 2.032 . S
O537 C541 1.278 . S
C538 O539 1.203 . S
C538 O545 1.267 . S
O539 C538 1.203 . S
O540 C533 1.185 . S
O540 Zn536 2.086 . S
C541 O537 1.278 . S
C541 O542 1.211 . S
O542 C541 1.211 . S
C543 O535 1.284 . S
C543 O544 1.273 . S
O544 C543 1.273 . S
O545 Zn536 1.977 . S
O545 C538 1.267 . S
C546 O547 1.160 . S
C546 O553 1.185 . S
O547 C546 1.160 . S
O548 Zn549 1.899 . S
O548 C556 1.284 . S
Zn549 O548 1.899 . S
Zn549 O550 2.032 . S
Zn549 O553 2.086 . S
Zn549 O558 1.977 . S
O550 Zn549 2.032 . S
O550 C554 1.278 . S
C551 O552 1.203 . S
C551 O558 1.267 . S
O552 C551 1.203 . S
O553 C546 1.185 . S
O553 Zn549 2.086 . S
C554 O550 1.278 . S
C554 O555 1.211 . S
O555 C554 1.211 . S
C556 O548 1.284 . S
C556 O557 1.273 . S
O557 C556 1.273 . S
O558 Zn549 1.977 . S
O558 C551 1.267 . S
C559 O560 1.160 . S
C559 O566 1.185 . S
O560 C559 1.160 . S
O561 Zn562 1.899 . S
O561 C569 1.284 . S
Zn562 O561 1.899 . S
Zn562 O563 2.032 . S
Zn562 O566 2.086 . S
Zn562 O571 1.977 . S
O563 Zn562 2.032 . S
O563 C567 1.278 . S
C564 O565 1.203 . S
C564 O571 1.267 . S
O565 C564 1.203 . S
O566 C559 1.185 . S
O566 Zn562 2.086 . S
C567 O563 1.278 . S
C567 O568 1.211 . S
O568 C567 1.211 . S
C569 O561 1.284 . S
C569 O570 1.273 . S
O570 C569 1.273 . S
O571 Zn562 1.977 . S
O571 C564 1.267 . S
C572 O573 1.160 . S
C572 O579 1.185 . S
O573 C572 1.160 . S
O574 Zn575 1.899 . S
O574 C582 1.284 . S
Zn575 O574 1.899 . S
Zn575 O576 2.032 . S
Zn575 O579 2.086 . S
Zn575 O584 1.977 . S
O576 Zn575 2.032 . S
O576 C580 1.278 . S
C577 O578 1.203 . S
C577 O584 1.267 . S
O578 C577 1.203 . S
O579 C572 1.185 . S
O579 Zn575 2.086 . S
C580 O576 1.278 . S
C580 O581 1.211 . S
O581 C580 1.211 . S
C582 O574 1.284 . S
C582 O583 1.273 . S
O583 C582 1.273 . S
O584 Zn575 1.977 . S
O584 C577 1.267 . S
C585 O586 1.160 . S
C585 O592 1.185 . S
O586 C585 1.160 . S
O587 Zn588 1.899 . S
O587 C595 1.284 . S
Zn588 O587 1.899 . S
Zn588 O589 2.032 . S
Zn588 O592 2.086 . S
Zn588 O597 1.977 . S
O589 Zn588 2.032 . S
O589 C593 1.278 . S
C590 O591 1.203 . S
C590 O597 1.267 . S
O591 C590 1.203 . S
O592 C585 1.185 . S
O592 Zn588 2.086 . S
C593 O589 1.278 . S
C593 O594 1.211 . S
O594 C593 1.211 . S
C595 O587 1.284 . S
C595 O596 1.273 . S
O596 C595 1.273 . S
O597 Zn588 1.977 . S
O597 C590 1.267 . S
C598 O599 1.160 . S
C598 O605 1.185 . S
O599 C598 1.160 . S
O600 Zn601 1.899 . S
O600 C608 1.284 . S
Zn601 O600 1.899 . S
Zn601 O602 2.032 . S
Zn601 O605 2.086 . S
Zn601 O610 1.977 . S
O602 Zn601 2.032 . S
O602 C606 1.278 . S
C603 O604 1.203 . S
C603 O610 1.267 . S
O604 C603 1.203 . S
O605 C598 1.185 . S
O605 Zn601 2.086 . S
C606 O602 1.278 . S
C606 O607 1.211 . S
O607 C606 1.211 . S
C608 O600 1.284 . S
C608 O609 1.273 . S
O609 C608 1.273 . S
O610 Zn601 1.977 . S
O610 C603 1.267 . S
C611 O612 1.160 . S
C611 O618 1.185 . S
O612 C611 1.160 . S
O613 Zn614 1.899 . S
O613 C621 1.284 . S
Zn614 O613 1.899 . S
Zn614 O615 2.032 . S
Zn614 O618 2.086 . S
Zn614 O623 1.977 . S
O615 Zn614 2.032 . S
O615 C619 1.278 . S
C616 O617 1.203 . S
C616 O623 1.267 . S
O617 C616 1.203 . S
O618 C611 1.185 . S
O618 Zn614 2.086 . S
C619 O615 1.278 . S
C619 O620 1.211 . S
O620 C619 1.211 . S
C621 O613 1.284 . S
C621 O622 1.273 . S
O622 C621 1.273 . S
O623 Zn614 1.977 . S
O623 C616 1.267 . S
H624 C630 0.930 . S
H625 C633 0.930 . S
H626 C634 0.930 . S
H627 C635 0.930 . S
H628 C638 0.930 . S
H629 C639 0.930 . S
C630 H624 0.930 . S
C630 C631 1.355 . S
C630 C632 1.415 . S
C631 C630 1.355 . S
C631 C633 1.419 . S
C632 C630 1.415 . S
C632 C637 1.425 . S
C632 C639 1.409 . S
C633 H625 0.930 . S
C633 C631 1.419 . S
C633 C634 1.362 . S
C634 H626 0.930 . S
C634 C633 1.362 . S
C634 C637 1.409 . S
C635 H627 0.930 . S
C635 C636 1.355 . S
C635 C637 1.415 . S
C636 C635 1.355 . S
C636 C638 1.419 . S
C637 C632 1.425 . S
C637 C634 1.409 . S
C637 C635 1.415 . S
C638 H628 0.930 . S
C638 C636 1.419 . S
C638 C639 1.362 . S
C639 H629 0.930 . S
C639 C632 1.409 . S
C639 C638 1.362 . S
H640 C646 0.930 . S
H641 C649 0.930 . S
H642 C650 0.930 . S
H643 C651 0.930 . S
H644 C654 0.930 . S
H645 C655 0.930 . S
C646 H640 0.930 . S
C646 C647 1.355 . S
C646 C648 1.415 . S
C647 C646 1.355 . S
C647 C649 1.419 . S
C648 C646 1.415 . S
C648 C653 1.425 . S
C648 C655 1.409 . S
C649 H641 0.930 . S
C649 C647 1.419 . S
C649 C650 1.362 . S
C650 H642 0.930 . S
C650 C649 1.362 . S
C650 C653 1.409 . S
C651 H643 0.930 . S
C651 C652 1.355 . S
C651 C653 1.415 . S
C652 C651 1.355 . S
C652 C654 1.419 . S
C653 C648 1.425 . S
C653 C650 1.409 . S
C653 C651 1.415 . S
C654 H644 0.930 . S
C654 C652 1.419 . S
C654 C655 1.362 . S
C655 H645 0.930 . S
C655 C648 1.409 . S
C655 C654 1.362 . S
H656 C662 0.930 . S
H657 C665 0.930 . S
H658 C666 0.930 . S
H659 C667 0.930 . S
H660 C670 0.930 . S
H661 C671 0.930 . S
C662 H656 0.930 . S
C662 C663 1.355 . S
C662 C664 1.415 . S
C663 C662 1.355 . S
C663 C665 1.419 . S
C664 C662 1.415 . S
C664 C669 1.425 . S
C664 C671 1.409 . S
C665 H657 0.930 . S
C665 C663 1.419 . S
C665 C666 1.362 . S
C666 H658 0.930 . S
C666 C665 1.362 . S
C666 C669 1.409 . S
C667 H659 0.930 . S
C667 C668 1.355 . S
C667 C669 1.415 . S
C668 C667 1.355 . S
C668 C670 1.419 . S
C669 C664 1.425 . S
C669 C666 1.409 . S
C669 C667 1.415 . S
C670 H660 0.930 . S
C670 C668 1.419 . S
C670 C671 1.362 . S
C671 H661 0.930 . S
C671 C664 1.409 . S
C671 C670 1.362 . S
H672 C678 0.930 . S
H673 C681 0.930 . S
H674 C682 0.930 . S
H675 C683 0.930 . S
H676 C686 0.930 . S
H677 C687 0.930 . S
C678 H672 0.930 . S
C678 C679 1.355 . S
C678 C680 1.415 . S
C679 C678 1.355 . S
C679 C681 1.419 . S
C680 C678 1.415 . S
C680 C685 1.425 . S
C680 C687 1.409 . S
C681 H673 0.930 . S
C681 C679 1.419 . S
C681 C682 1.362 . S
C682 H674 0.930 . S
C682 C681 1.362 . S
C682 C685 1.409 . S
C683 H675 0.930 . S
C683 C684 1.355 . S
C683 C685 1.415 . S
C684 C683 1.355 . S
C684 C686 1.419 . S
C685 C680 1.425 . S
C685 C682 1.409 . S
C685 C683 1.415 . S
C686 H676 0.930 . S
C686 C684 1.419 . S
C686 C687 1.362 . S
C687 H677 0.930 . S
C687 C680 1.409 . S
C687 C686 1.362 . S
H688 C694 0.930 . S
H689 C697 0.930 . S
H690 C698 0.930 . S
H691 C699 0.930 . S
H692 C702 0.930 . S
H693 C703 0.930 . S
C694 H688 0.930 . S
C694 C695 1.355 . S
C694 C696 1.415 . S
C695 C694 1.355 . S
C695 C697 1.419 . S
C696 C694 1.415 . S
C696 C701 1.425 . S
C696 C703 1.409 . S
C697 H689 0.930 . S
C697 C695 1.419 . S
C697 C698 1.362 . S
C698 H690 0.930 . S
C698 C697 1.362 . S
C698 C701 1.409 . S
C699 H691 0.930 . S
C699 C700 1.355 . S
C699 C701 1.415 . S
C700 C699 1.355 . S
C700 C702 1.419 . S
C701 C696 1.425 . S
C701 C698 1.409 . S
C701 C699 1.415 . S
C702 H692 0.930 . S
C702 C700 1.419 . S
C702 C703 1.362 . S
C703 H693 0.930 . S
C703 C696 1.409 . S
C703 C702 1.362 . S
H704 C710 0.930 . S
H705 C713 0.930 . S
H706 C714 0.930 . S
H707 C715 0.930 . S
H708 C718 0.930 . S
H709 C719 0.930 . S
C710 H704 0.930 . S
C710 C711 1.355 . S
C710 C712 1.415 . S
C711 C710 1.355 . S
C711 C713 1.419 . S
C712 C710 1.415 . S
C712 C717 1.425 . S
C712 C719 1.409 . S
C713 H705 0.930 . S
C713 C711 1.419 . S
C713 C714 1.362 . S
C714 H706 0.930 . S
C714 C713 1.362 . S
C714 C717 1.409 . S
C715 H707 0.930 . S
C715 C716 1.355 . S
C715 C717 1.415 . S
C716 C715 1.355 . S
C716 C718 1.419 . S
C717 C712 1.425 . S
C717 C714 1.409 . S
C717 C715 1.415 . S
C718 H708 0.930 . S
C718 C716 1.419 . S
C718 C719 1.362 . S
C719 H709 0.930 . S
C719 C712 1.409 . S
C719 C718 1.362 . S
H720 C726 0.930 . S
H721 C729 0.930 . S
H722 C730 0.930 . S
H723 C731 0.930 . S
H724 C734 0.930 . S
H725 C735 0.930 . S
C726 H720 0.930 . S
C726 C727 1.355 . S
C726 C728 1.415 . S
C727 C726 1.355 . S
C727 C729 1.419 . S
C728 C726 1.415 . S
C728 C733 1.425 . S
C728 C735 1.409 . S
C729 H721 0.930 . S
C729 C727 1.419 . S
C729 C730 1.362 . S
C730 H722 0.930 . S
C730 C729 1.362 . S
C730 C733 1.409 . S
C731 H723 0.930 . S
C731 C732 1.355 . S
C731 C733 1.415 . S
C732 C731 1.355 . S
C732 C734 1.419 . S
C733 C728 1.425 . S
C733 C730 1.409 . S
C733 C731 1.415 . S
C734 H724 0.930 . S
C734 C732 1.419 . S
C734 C735 1.362 . S
C735 H725 0.930 . S
C735 C728 1.409 . S
C735 C734 1.362 . S
H736 C742 0.930 . S
H737 C745 0.930 . S
H738 C746 0.930 . S
H739 C747 0.930 . S
H740 C750 0.930 . S
H741 C751 0.930 . S
C742 H736 0.930 . S
C742 C743 1.355 . S
C742 C744 1.415 . S
C743 C742 1.355 . S
C743 C745 1.419 . S
C744 C742 1.415 . S
C744 C749 1.425 . S
C744 C751 1.409 . S
C745 H737 0.930 . S
C745 C743 1.419 . S
C745 C746 1.362 . S
C746 H738 0.930 . S
C746 C745 1.362 . S
C746 C749 1.409 . S
C747 H739 0.930 . S
C747 C748 1.355 . S
C747 C749 1.415 . S
C748 C747 1.355 . S
C748 C750 1.419 . S
C749 C744 1.425 . S
C749 C746 1.409 . S
C749 C747 1.415 . S
C750 H740 0.930 . S
C750 C748 1.419 . S
C750 C751 1.362 . S
C751 H741 0.930 . S
C751 C744 1.409 . S
C751 C750 1.362 . S
H752 C758 0.930 . S
H753 C761 0.930 . S
H754 C762 0.930 . S
H755 C763 0.930 . S
H756 C766 0.930 . S
H757 C767 0.930 . S
C758 H752 0.930 . S
C758 C759 1.355 . S
C758 C760 1.415 . S
C759 C758 1.355 . S
C759 C761 1.419 . S
C760 C758 1.415 . S
C760 C765 1.425 . S
C760 C767 1.409 . S
C761 H753 0.930 . S
C761 C759 1.419 . S
C761 C762 1.362 . S
C762 H754 0.930 . S
C762 C761 1.362 . S
C762 C765 1.409 . S
C763 H755 0.930 . S
C763 C764 1.355 . S
C763 C765 1.415 . S
C764 C763 1.355 . S
C764 C766 1.419 . S
C765 C760 1.425 . S
C765 C762 1.409 . S
C765 C763 1.415 . S
C766 H756 0.930 . S
C766 C764 1.419 . S
C766 C767 1.362 . S
C767 H757 0.930 . S
C767 C760 1.409 . S
C767 C766 1.362 . S
H768 C774 0.930 . S
H769 C777 0.930 . S
H770 C778 0.930 . S
H771 C779 0.930 . S
H772 C782 0.930 . S
H773 C783 0.930 . S
C774 H768 0.930 . S
C774 C775 1.355 . S
C774 C776 1.415 . S
C775 C774 1.355 . S
C775 C777 1.419 . S
C776 C774 1.415 . S
C776 C781 1.425 . S
C776 C783 1.409 . S
C777 H769 0.930 . S
C777 C775 1.419 . S
C777 C778 1.362 . S
C778 H770 0.930 . S
C778 C777 1.362 . S
C778 C781 1.409 . S
C779 H771 0.930 . S
C779 C780 1.355 . S
C779 C781 1.415 . S
C780 C779 1.355 . S
C780 C782 1.419 . S
C781 C776 1.425 . S
C781 C778 1.409 . S
C781 C779 1.415 . S
C782 H772 0.930 . S
C782 C780 1.419 . S
C782 C783 1.362 . S
C783 H773 0.930 . S
C783 C776 1.409 . S
C783 C782 1.362 . S
H784 C790 0.930 . S
H785 C793 0.930 . S
H786 C794 0.930 . S
H787 C795 0.930 . S
H788 C798 0.930 . S
H789 C799 0.930 . S
C790 H784 0.930 . S
C790 C791 1.355 . S
C790 C792 1.415 . S
C791 C790 1.355 . S
C791 C793 1.419 . S
C792 C790 1.415 . S
C792 C797 1.425 . S
C792 C799 1.409 . S
C793 H785 0.930 . S
C793 C791 1.419 . S
C793 C794 1.362 . S
C794 H786 0.930 . S
C794 C793 1.362 . S
C794 C797 1.409 . S
C795 H787 0.930 . S
C795 C796 1.355 . S
C795 C797 1.415 . S
C796 C795 1.355 . S
C796 C798 1.419 . S
C797 C792 1.425 . S
C797 C794 1.409 . S
C797 C795 1.415 . S
C798 H788 0.930 . S
C798 C796 1.419 . S
C798 C799 1.362 . S
C799 H789 0.930 . S
C799 C792 1.409 . S
C799 C798 1.362 . S
H800 C806 0.930 . S
H801 C809 0.930 . S
H802 C810 0.930 . S
H803 C811 0.930 . S
H804 C814 0.930 . S
H805 C815 0.930 . S
C806 H800 0.930 . S
C806 C807 1.355 . S
C806 C808 1.415 . S
C807 C806 1.355 . S
C807 C809 1.419 . S
C808 C806 1.415 . S
C808 C813 1.425 . S
C808 C815 1.409 . S
C809 H801 0.930 . S
C809 C807 1.419 . S
C809 C810 1.362 . S
C810 H802 0.930 . S
C810 C809 1.362 . S
C810 C813 1.409 . S
C811 H803 0.930 . S
C811 C812 1.355 . S
C811 C813 1.415 . S
C812 C811 1.355 . S
C812 C814 1.419 . S
C813 C808 1.425 . S
C813 C810 1.409 . S
C813 C811 1.415 . S
C814 H804 0.930 . S
C814 C812 1.419 . S
C814 C815 1.362 . S
C815 H805 0.930 . S
C815 C808 1.409 . S
C815 C814 1.362 . S
H816 C822 0.930 . S
H817 C825 0.930 . S
H818 C826 0.930 . S
H819 C827 0.930 . S
H820 C830 0.930 . S
H821 C831 0.930 . S
C822 H816 0.930 . S
C822 C823 1.355 . S
C822 C824 1.415 . S
C823 C822 1.355 . S
C823 C825 1.419 . S
C824 C822 1.415 . S
C824 C829 1.425 . S
C824 C831 1.409 . S
C825 H817 0.930 . S
C825 C823 1.419 . S
C825 C826 1.362 . S
C826 H818 0.930 . S
C826 C825 1.362 . S
C826 C829 1.409 . S
C827 H819 0.930 . S
C827 C828 1.355 . S
C827 C829 1.415 . S
C828 C827 1.355 . S
C828 C830 1.419 . S
C829 C824 1.425 . S
C829 C826 1.409 . S
C829 C827 1.415 . S
C830 H820 0.930 . S
C830 C828 1.419 . S
C830 C831 1.362 . S
C831 H821 0.930 . S
C831 C824 1.409 . S
C831 C830 1.362 . S
H832 C838 0.930 . S
H833 C841 0.930 . S
H834 C842 0.930 . S
H835 C843 0.930 . S
H836 C846 0.930 . S
H837 C847 0.930 . S
C838 H832 0.930 . S
C838 C839 1.355 . S
C838 C840 1.415 . S
C839 C838 1.355 . S
C839 C841 1.419 . S
C840 C838 1.415 . S
C840 C845 1.425 . S
C840 C847 1.409 . S
C841 H833 0.930 . S
C841 C839 1.419 . S
C841 C842 1.362 . S
C842 H834 0.930 . S
C842 C841 1.362 . S
C842 C845 1.409 . S
C843 H835 0.930 . S
C843 C844 1.355 . S
C843 C845 1.415 . S
C844 C843 1.355 . S
C844 C846 1.419 . S
C845 C840 1.425 . S
C845 C842 1.409 . S
C845 C843 1.415 . S
C846 H836 0.930 . S
C846 C844 1.419 . S
C846 C847 1.362 . S
C847 H837 0.930 . S
C847 C840 1.409 . S
C847 C846 1.362 . S
H848 C854 0.930 . S
H849 C857 0.930 . S
H850 C858 0.930 . S
H851 C859 0.930 . S
H852 C862 0.930 . S
H853 C863 0.930 . S
C854 H848 0.930 . S
C854 C855 1.355 . S
C854 C856 1.415 . S
C855 C854 1.355 . S
C855 C857 1.419 . S
C856 C854 1.415 . S
C856 C861 1.425 . S
C856 C863 1.409 . S
C857 H849 0.930 . S
C857 C855 1.419 . S
C857 C858 1.362 . S
C858 H850 0.930 . S
C858 C857 1.362 . S
C858 C861 1.409 . S
C859 H851 0.930 . S
C859 C860 1.355 . S
C859 C861 1.415 . S
C860 C859 1.355 . S
C860 C862 1.419 . S
C861 C856 1.425 . S
C861 C858 1.409 . S
C861 C859 1.415 . S
C862 H852 0.930 . S
C862 C860 1.419 . S
C862 C863 1.362 . S
C863 H853 0.930 . S
C863 C856 1.409 . S
C863 C862 1.362 . S
H864 C870 0.930 . S
H865 C873 0.930 . S
H866 C874 0.930 . S
H867 C875 0.930 . S
H868 C878 0.930 . S
H869 C879 0.930 . S
C870 H864 0.930 . S
C870 C871 1.355 . S
C870 C872 1.415 . S
C871 C870 1.355 . S
C871 C873 1.419 . S
C872 C870 1.415 . S
C872 C877 1.425 . S
C872 C879 1.409 . S
C873 H865 0.930 . S
C873 C871 1.419 . S
C873 C874 1.362 . S
C874 H866 0.930 . S
C874 C873 1.362 . S
C874 C877 1.409 . S
C875 H867 0.930 . S
C875 C876 1.355 . S
C875 C877 1.415 . S
C876 C875 1.355 . S
C876 C878 1.419 . S
C877 C872 1.425 . S
C877 C874 1.409 . S
C877 C875 1.415 . S
C878 H868 0.930 . S
C878 C876 1.419 . S
C878 C879 1.362 . S
C879 H869 0.930 . S
C879 C872 1.409 . S
C879 C878 1.362 . S
H880 C886 0.930 . S
H881 C889 0.930 . S
H882 C890 0.930 . S
H883 C891 0.930 . S
H884 C894 0.930 . S
H885 C895 0.930 . S
C886 H880 0.930 . S
C886 C887 1.355 . S
C886 C888 1.415 . S
C887 C886 1.355 . S
C887 C889 1.419 . S
C888 C886 1.415 . S
C888 C893 1.425 . S
C888 C895 1.409 . S
C889 H881 0.930 . S
C889 C887 1.419 . S
C889 C890 1.362 . S
C890 H882 0.930 . S
C890 C889 1.362 . S
C890 C893 1.409 . S
C891 H883 0.930 . S
C891 C892 1.355 . S
C891 C893 1.415 . S
C892 C891 1.355 . S
C892 C894 1.419 . S
C893 C888 1.425 . S
C893 C890 1.409 . S
C893 C891 1.415 . S
C894 H884 0.930 . S
C894 C892 1.419 . S
C894 C895 1.362 . S
C895 H885 0.930 . S
C895 C888 1.409 . S
C895 C894 1.362 . S
H896 C902 0.930 . S
H897 C905 0.930 . S
H898 C906 0.930 . S
H899 C907 0.930 . S
H900 C910 0.930 . S
H901 C911 0.930 . S
C902 H896 0.930 . S
C902 C903 1.355 . S
C902 C904 1.415 . S
C903 C902 1.355 . S
C903 C905 1.419 . S
C904 C902 1.415 . S
C904 C909 1.425 . S
C904 C911 1.409 . S
C905 H897 0.930 . S
C905 C903 1.419 . S
C905 C906 1.362 . S
C906 H898 0.930 . S
C906 C905 1.362 . S
C906 C909 1.409 . S
C907 H899 0.930 . S
C907 C908 1.355 . S
C907 C909 1.415 . S
C908 C907 1.355 . S
C908 C910 1.419 . S
C909 C904 1.425 . S
C909 C906 1.409 . S
C909 C907 1.415 . S
C910 H900 0.930 . S
C910 C908 1.419 . S
C910 C911 1.362 . S
C911 H901 0.930 . S
C911 C904 1.409 . S
C911 C910 1.362 . S
H912 C918 0.930 . S
H913 C921 0.930 . S
H914 C922 0.930 . S
H915 C923 0.930 . S
H916 C926 0.930 . S
H917 C927 0.930 . S
C918 H912 0.930 . S
C918 C919 1.355 . S
C918 C920 1.415 . S
C919 C918 1.355 . S
C919 C921 1.419 . S
C920 C918 1.415 . S
C920 C925 1.425 . S
C920 C927 1.409 . S
C921 H913 0.930 . S
C921 C919 1.419 . S
C921 C922 1.362 . S
C922 H914 0.930 . S
C922 C921 1.362 . S
C922 C925 1.409 . S
C923 H915 0.930 . S
C923 C924 1.355 . S
C923 C925 1.415 . S
C924 C923 1.355 . S
C924 C926 1.419 . S
C925 C920 1.425 . S
C925 C922 1.409 . S
C925 C923 1.415 . S
C926 H916 0.930 . S
C926 C924 1.419 . S
C926 C927 1.362 . S
C927 H917 0.930 . S
C927 C920 1.409 . S
C927 C926 1.362 . S
H928 C934 0.930 . S
H929 C937 0.930 . S
H930 C938 0.930 . S
H931 C939 0.930 . S
H932 C942 0.930 . S
H933 C943 0.930 . S
C934 H928 0.930 . S
C934 C935 1.355 . S
C934 C936 1.415 . S
C935 C934 1.355 . S
C935 C937 1.419 . S
C936 C934 1.415 . S
C936 C941 1.425 . S
C936 C943 1.409 . S
C937 H929 0.930 . S
C937 C935 1.419 . S
C937 C938 1.362 . S
C938 H930 0.930 . S
C938 C937 1.362 . S
C938 C941 1.409 . S
C939 H931 0.930 . S
C939 C940 1.355 . S
C939 C941 1.415 . S
C940 C939 1.355 . S
C940 C942 1.419 . S
C941 C936 1.425 . S
C941 C938 1.409 . S
C941 C939 1.415 . S
C942 H932 0.930 . S
C942 C940 1.419 . S
C942 C943 1.362 . S
C943 H933 0.930 . S
C943 C936 1.409 . S
C943 C942 1.362 . S
H944 C950 0.930 . S
H945 C953 0.930 . S
H946 C954 0.930 . S
H947 C955 0.930 . S
H948 C958 0.930 . S
H949 C959 0.930 . S
C950 H944 0.930 . S
C950 C951 1.355 . S
C950 C952 1.415 . S
C951 C950 1.355 . S
C951 C953 1.419 . S
C952 C950 1.415 . S
C952 C957 1.425 . S
C952 C959 1.409 . S
C953 H945 0.930 . S
C953 C951 1.419 . S
C953 C954 1.362 . S
C954 H946 0.930 . S
C954 C953 1.362 . S
C954 C957 1.409 . S
C955 H947 0.930 . S
C955 C956 1.355 . S
C955 C957 1.415 . S
C956 C955 1.355 . S
C956 C958 1.419 . S
C957 C952 1.425 . S
C957 C954 1.409 . S
C957 C955 1.415 . S
C958 H948 0.930 . S
C958 C956 1.419 . S
C958 C959 1.362 . S
C959 H949 0.930 . S
C959 C952 1.409 . S
C959 C958 1.362 . S
H960 C966 0.930 . S
H961 C969 0.930 . S
H962 C970 0.930 . S
H963 C971 0.930 . S
H964 C974 0.930 . S
H965 C975 0.930 . S
C966 H960 0.930 . S
C966 C967 1.355 . S
C966 C968 1.415 . S
C967 C966 1.355 . S
C967 C969 1.419 . S
C968 C966 1.415 . S
C968 C973 1.425 . S
C968 C975 1.409 . S
C969 H961 0.930 . S
C969 C967 1.419 . S
C969 C970 1.362 . S
C970 H962 0.930 . S
C970 C969 1.362 . S
C970 C973 1.409 . S
C971 H963 0.930 . S
C971 C972 1.355 . S
C971 C973 1.415 . S
C972 C971 1.355 . S
C972 C974 1.419 . S
C973 C968 1.425 . S
C973 C970 1.409 . S
C973 C971 1.415 . S
C974 H964 0.930 . S
C974 C972 1.419 . S
C974 C975 1.362 . S
C975 H965 0.930 . S
C975 C968 1.409 . S
C975 C974 1.362 . S
H976 C982 0.930 . S
H977 C985 0.930 . S
H978 C986 0.930 . S
H979 C987 0.930 . S
H980 C990 0.930 . S
H981 C991 0.930 . S
C982 H976 0.930 . S
C982 C983 1.355 . S
C982 C984 1.415 . S
C983 C982 1.355 . S
C983 C985 1.419 . S
C984 C982 1.415 . S
C984 C989 1.425 . S
C984 C991 1.409 . S
C985 H977 0.930 . S
C985 C983 1.419 . S
C985 C986 1.362 . S
C986 H978 0.930 . S
C986 C985 1.362 . S
C986 C989 1.409 . S
C987 H979 0.930 . S
C987 C988 1.355 . S
C987 C989 1.415 . S
C988 C987 1.355 . S
C988 C990 1.419 . S
C989 C984 1.425 . S
C989 C986 1.409 . S
C989 C987 1.415 . S
C990 H980 0.930 . S
C990 C988 1.419 . S
C990 C991 1.362 . S
C991 H981 0.930 . S
C991 C984 1.409 . S
C991 C990 1.362 . S
H992 C998 0.930 . S
H993 C1001 0.930 . S
H994 C1002 0.930 . S
H995 C1003 0.930 . S
H996 C1006 0.930 . S
H997 C1007 0.930 . S
C998 H992 0.930 . S
C998 C999 1.355 . S
C998 C1000 1.415 . S
C999 C998 1.355 . S
C999 C1001 1.419 . S
C1000 C998 1.415 . S
C1000 C1005 1.425 . S
C1000 C1007 1.409 . S
C1001 H993 0.930 . S
C1001 C999 1.419 . S
C1001 C1002 1.362 . S
C1002 H994 0.930 . S
C1002 C1001 1.362 . S
C1002 C1005 1.409 . S
C1003 H995 0.930 . S
C1003 C1004 1.355 . S
C1003 C1005 1.415 . S
C1004 C1003 1.355 . S
C1004 C1006 1.419 . S
C1005 C1000 1.425 . S
C1005 C1002 1.409 . S
C1005 C1003 1.415 . S
C1006 H996 0.930 . S
C1006 C1004 1.419 . S
C1006 C1007 1.362 . S
C1007 H997 0.930 . S
C1007 C1000 1.409 . S
C1007 C1006 1.362 . S
H1008 C1014 0.930 . S
H1009 C1017 0.930 . S
H1010 C1018 0.930 . S
H1011 C1019 0.930 . S
H1012 C1022 0.930 . S
H1013 C1023 0.930 . S
C1014 H1008 0.930 . S
C1014 C1015 1.355 . S
C1014 C1016 1.415 . S
C1015 C1014 1.355 . S
C1015 C1017 1.419 . S
C1016 C1014 1.415 . S
C1016 C1021 1.425 . S
C1016 C1023 1.409 . S
C1017 H1009 0.930 . S
C1017 C1015 1.419 . S
C1017 C1018 1.362 . S
C1018 H1010 0.930 . S
C1018 C1017 1.362 . S
C1018 C1021 1.409 . S
C1019 H1011 0.930 . S
C1019 C1020 1.355 . S
C1019 C1021 1.415 . S
C1020 C1019 1.355 . S
C1020 C1022 1.419 . S
C1021 C1016 1.425 . S
C1021 C1018 1.409 . S
C1021 C1019 1.415 . S
C1022 H1012 0.930 . S
C1022 C1020 1.419 . S
C1022 C1023 1.362 . S
C1023 H1013 0.930 . S
C1023 C1016 1.409 . S
C1023 C1022 1.362 . S
H1024 C1030 0.930 . S
H1025 C1033 0.930 . S
H1026 C1034 0.930 . S
H1027 C1035 0.930 . S
H1028 C1038 0.930 . S
H1029 C1039 0.930 . S
C1030 H1024 0.930 . S
C1030 C1031 1.355 . S
C1030 C1032 1.415 . S
C1031 C1030 1.355 . S
C1031 C1033 1.419 . S
C1032 C1030 1.415 . S
C1032 C1037 1.425 . S
C1032 C1039 1.409 . S
C1033 H1025 0.930 . S
C1033 C1031 1.419 . S
C1033 C1034 1.362 . S
C1034 H1026 0.930 . S
C1034 C1033 1.362 . S
C1034 C1037 1.409 . S
C1035 H1027 0.930 . S
C1035 C1036 1.355 . S
C1035 C1037 1.415 . S
C1036 C1035 1.355 . S
C1036 C1038 1.419 . S
C1037 C1032 1.425 . S
C1037 C1034 1.409 . S
C1037 C1035 1.415 . S
C1038 H1028 0.930 . S
C1038 C1036 1.419 . S
C1038 C1039 1.362 . S
C1039 H1029 0.930 . S
C1039 C1032 1.409 . S
C1039 C1038 1.362 . S
H1040 C1046 0.930 . S
H1041 C1049 0.930 . S
H1042 C1050 0.930 . S
H1043 C1051 0.930 . S
H1044 C1054 0.930 . S
H1045 C1055 0.930 . S
C1046 H1040 0.930 . S
C1046 C1047 1.355 . S
C1046 C1048 1.415 . S
C1047 C1046 1.355 . S
C1047 C1049 1.419 . S
C1048 C1046 1.415 . S
C1048 C1053 1.425 . S
C1048 C1055 1.409 . S
C1049 H1041 0.930 . S
C1049 C1047 1.419 . S
C1049 C1050 1.362 . S
C1050 H1042 0.930 . S
C1050 C1049 1.362 . S
C1050 C1053 1.409 . S
C1051 H1043 0.930 . S
C1051 C1052 1.355 . S
C1051 C1053 1.415 . S
C1052 C1051 1.355 . S
C1052 C1054 1.419 . S
C1053 C1048 1.425 . S
C1053 C1050 1.409 . S
C1053 C1051 1.415 . S
C1054 H1044 0.930 . S
C1054 C1052 1.419 . S
C1054 C1055 1.362 . S
C1055 H1045 0.930 . S
C1055 C1048 1.409 . S
C1055 C1054 1.362 . S
H1056 C1062 0.930 . S
H1057 C1065 0.930 . S
H1058 C1066 0.930 . S
H1059 C1067 0.930 . S
H1060 C1070 0.930 . S
H1061 C1071 0.930 . S
C1062 H1056 0.930 . S
C1062 C1063 1.355 . S
C1062 C1064 1.415 . S
C1063 C1062 1.355 . S
C1063 C1065 1.419 . S
C1064 C1062 1.415 . S
C1064 C1069 1.425 . S
C1064 C1071 1.409 . S
C1065 H1057 0.930 . S
C1065 C1063 1.419 . S
C1065 C1066 1.362 . S
C1066 H1058 0.930 . S
C1066 C1065 1.362 . S
C1066 C1069 1.409 . S
C1067 H1059 0.930 . S
C1067 C1068 1.355 . S
C1067 C1069 1.415 . S
C1068 C1067 1.355 . S
C1068 C1070 1.419 . S
C1069 C1064 1.425 . S
C1069 C1066 1.409 . S
C1069 C1067 1.415 . S
C1070 H1060 0.930 . S
C1070 C1068 1.419 . S
C1070 C1071 1.362 . S
C1071 H1061 0.930 . S
C1071 C1064 1.409 . S
C1071 C1070 1.362 . S
H1072 C1078 0.930 . S
H1073 C1081 0.930 . S
H1074 C1082 0.930 . S
H1075 C1083 0.930 . S
H1076 C1086 0.930 . S
H1077 C1087 0.930 . S
C1078 H1072 0.930 . S
C1078 C1079 1.355 . S
C1078 C1080 1.415 . S
C1079 C1078 1.355 . S
C1079 C1081 1.419 . S
C1080 C1078 1.415 . S
C1080 C1085 1.425 . S
C1080 C1087 1.409 . S
C1081 H1073 0.930 . S
C1081 C1079 1.419 . S
C1081 C1082 1.362 . S
C1082 H1074 0.930 . S
C1082 C1081 1.362 . S
C1082 C1085 1.409 . S
C1083 H1075 0.930 . S
C1083 C1084 1.355 . S
C1083 C1085 1.415 . S
C1084 C1083 1.355 . S
C1084 C1086 1.419 . S
C1085 C1080 1.425 . S
C1085 C1082 1.409 . S
C1085 C1083 1.415 . S
C1086 H1076 0.930 . S
C1086 C1084 1.419 . S
C1086 C1087 1.362 . S
C1087 H1077 0.930 . S
C1087 C1080 1.409 . S
C1087 C1086 1.362 . S
H1088 C1094 0.930 . S
H1089 C1097 0.930 . S
H1090 C1098 0.930 . S
H1091 C1099 0.930 . S
H1092 C1102 0.930 . S
H1093 C1103 0.930 . S
C1094 H1088 0.930 . S
C1094 C1095 1.355 . S
C1094 C1096 1.415 . S
C1095 C1094 1.355 . S
C1095 C1097 1.419 . S
C1096 C1094 1.415 . S
C1096 C1101 1.425 . S
C1096 C1103 1.409 . S
C1097 H1089 0.930 . S
C1097 C1095 1.419 . S
C1097 C1098 1.362 . S
C1098 H1090 0.930 . S
C1098 C1097 1.362 . S
C1098 C1101 1.409 . S
C1099 H1091 0.930 . S
C1099 C1100 1.355 . S
C1099 C1101 1.415 . S
C1100 C1099 1.355 . S
C1100 C1102 1.419 . S
C1101 C1096 1.425 . S
C1101 C1098 1.409 . S
C1101 C1099 1.415 . S
C1102 H1092 0.930 . S
C1102 C1100 1.419 . S
C1102 C1103 1.362 . S
C1103 H1093 0.930 . S
C1103 C1096 1.409 . S
C1103 C1102 1.362 . S
H1104 C1110 0.930 . S
H1105 C1113 0.930 . S
H1106 C1114 0.930 . S
H1107 C1115 0.930 . S
H1108 C1118 0.930 . S
H1109 C1119 0.930 . S
C1110 H1104 0.930 . S
C1110 C1111 1.355 . S
C1110 C1112 1.415 . S
C1111 C1110 1.355 . S
C1111 C1113 1.419 . S
C1112 C1110 1.415 . S
C1112 C1117 1.425 . S
C1112 C1119 1.409 . S
C1113 H1105 0.930 . S
C1113 C1111 1.419 . S
C1113 C1114 1.362 . S
C1114 H1106 0.930 . S
C1114 C1113 1.362 . S
C1114 C1117 1.409 . S
C1115 H1107 0.930 . S
C1115 C1116 1.355 . S
C1115 C1117 1.415 . S
C1116 C1115 1.355 . S
C1116 C1118 1.419 . S
C1117 C1112 1.425 . S
C1117 C1114 1.409 . S
C1117 C1115 1.415 . S
C1118 H1108 0.930 . S
C1118 C1116 1.419 . S
C1118 C1119 1.362 . S
C1119 H1109 0.930 . S
C1119 C1112 1.409 . S
C1119 C1118 1.362 . S
H1120 C1126 0.930 . S
H1121 C1129 0.930 . S
H1122 C1130 0.930 . S
H1123 C1131 0.930 . S
H1124 C1134 0.930 . S
H1125 C1135 0.930 . S
C1126 H1120 0.930 . S
C1126 C1127 1.355 . S
C1126 C1128 1.415 . S
C1127 C1126 1.355 . S
C1127 C1129 1.419 . S
C1128 C1126 1.415 . S
C1128 C1133 1.425 . S
C1128 C1135 1.409 . S
C1129 H1121 0.930 . S
C1129 C1127 1.419 . S
C1129 C1130 1.362 . S
C1130 H1122 0.930 . S
C1130 C1129 1.362 . S
C1130 C1133 1.409 . S
C1131 H1123 0.930 . S
C1131 C1132 1.355 . S
C1131 C1133 1.415 . S
C1132 C1131 1.355 . S
C1132 C1134 1.419 . S
C1133 C1128 1.425 . S
C1133 C1130 1.409 . S
C1133 C1131 1.415 . S
C1134 H1124 0.930 . S
C1134 C1132 1.419 . S
C1134 C1135 1.362 . S
C1135 H1125 0.930 . S
C1135 C1128 1.409 . S
C1135 C1134 1.362 . S
H1136 C1142 0.930 . S
H1137 C1145 0.930 . S
H1138 C1146 0.930 . S
H1139 C1147 0.930 . S
H1140 C1150 0.930 . S
H1141 C1151 0.930 . S
C1142 H1136 0.930 . S
C1142 C1143 1.355 . S
C1142 C1144 1.415 . S
C1143 C1142 1.355 . S
C1143 C1145 1.419 . S
C1144 C1142 1.415 . S
C1144 C1149 1.425 . S
C1144 C1151 1.409 . S
C1145 H1137 0.930 . S
C1145 C1143 1.419 . S
C1145 C1146 1.362 . S
C1146 H1138 0.930 . S
C1146 C1145 1.362 . S
C1146 C1149 1.409 . S
C1147 H1139 0.930 . S
C1147 C1148 1.355 . S
C1147 C1149 1.415 . S
C1148 C1147 1.355 . S
C1148 C1150 1.419 . S
C1149 C1144 1.425 . S
C1149 C1146 1.409 . S
C1149 C1147 1.415 . S
C1150 H1140 0.930 . S
C1150 C1148 1.419 . S
C1150 C1151 1.362 . S
C1151 H1141 0.930 . S
C1151 C1144 1.409 . S
C1151 C1150 1.362 . S
H1152 C1158 0.930 . S
H1153 C1161 0.930 . S
H1154 C1162 0.930 . S
H1155 C1163 0.930 . S
H1156 C1166 0.930 . S
H1157 C1167 0.930 . S
C1158 H1152 0.930 . S
C1158 C1159 1.355 . S
C1158 C1160 1.415 . S
C1159 C1158 1.355 . S
C1159 C1161 1.419 . S
C1160 C1158 1.415 . S
C1160 C1165 1.425 . S
C1160 C1167 1.409 . S
C1161 H1153 0.930 . S
C1161 C1159 1.419 . S
C1161 C1162 1.362 . S
C1162 H1154 0.930 . S
C1162 C1161 1.362 . S
C1162 C1165 1.409 . S
C1163 H1155 0.930 . S
C1163 C1164 1.355 . S
C1163 C1165 1.415 . S
C1164 C1163 1.355 . S
C1164 C1166 1.419 . S
C1165 C1160 1.425 . S
C1165 C1162 1.409 . S
C1165 C1163 1.415 . S
C1166 H1156 0.930 . S
C1166 C1164 1.419 . S
C1166 C1167 1.362 . S
C1167 H1157 0.930 . S
C1167 C1160 1.409 . S
C1167 C1166 1.362 . S
H1168 C1174 0.930 . S
H1169 C1177 0.930 . S
H1170 C1178 0.930 . S
H1171 C1179 0.930 . S
H1172 C1182 0.930 . S
H1173 C1183 0.930 . S
C1174 H1168 0.930 . S
C1174 C1175 1.355 . S
C1174 C1176 1.415 . S
C1175 C1174 1.355 . S
C1175 C1177 1.419 . S
C1176 C1174 1.415 . S
C1176 C1181 1.425 . S
C1176 C1183 1.409 . S
C1177 H1169 0.930 . S
C1177 C1175 1.419 . S
C1177 C1178 1.362 . S
C1178 H1170 0.930 . S
C1178 C1177 1.362 . S
C1178 C1181 1.409 . S
C1179 H1171 0.930 . S
C1179 C1180 1.355 . S
C1179 C1181 1.415 . S
C1180 C1179 1.355 . S
C1180 C1182 1.419 . S
C1181 C1176 1.425 . S
C1181 C1178 1.409 . S
C1181 C1179 1.415 . S
C1182 H1172 0.930 . S
C1182 C1180 1.419 . S
C1182 C1183 1.362 . S
C1183 H1173 0.930 . S
C1183 C1176 1.409 . S
C1183 C1182 1.362 . S
H1184 C1190 0.930 . S
H1185 C1193 0.930 . S
H1186 C1194 0.930 . S
H1187 C1195 0.930 . S
H1188 C1198 0.930 . S
H1189 C1199 0.930 . S
C1190 H1184 0.930 . S
C1190 C1191 1.355 . S
C1190 C1192 1.415 . S
C1191 C1190 1.355 . S
C1191 C1193 1.419 . S
C1192 C1190 1.415 . S
C1192 C1197 1.425 . S
C1192 C1199 1.409 . S
C1193 H1185 0.930 . S
C1193 C1191 1.419 . S
C1193 C1194 1.362 . S
C1194 H1186 0.930 . S
C1194 C1193 1.362 . S
C1194 C1197 1.409 . S
C1195 H1187 0.930 . S
C1195 C1196 1.355 . S
C1195 C1197 1.415 . S
C1196 C1195 1.355 . S
C1196 C1198 1.419 . S
C1197 C1192 1.425 . S
C1197 C1194 1.409 . S
C1197 C1195 1.415 . S
C1198 H1188 0.930 . S
C1198 C1196 1.419 . S
C1198 C1199 1.362 . S
C1199 H1189 0.930 . S
C1199 C1192 1.409 . S
C1199 C1198 1.362 . S
H1200 C1206 0.930 . S
H1201 C1209 0.930 . S
H1202 C1210 0.930 . S
H1203 C1211 0.930 . S
H1204 C1214 0.930 . S
H1205 C1215 0.930 . S
C1206 H1200 0.930 . S
C1206 C1207 1.355 . S
C1206 C1208 1.415 . S
C1207 C1206 1.355 . S
C1207 C1209 1.419 . S
C1208 C1206 1.415 . S
C1208 C1213 1.425 . S
C1208 C1215 1.409 . S
C1209 H1201 0.930 . S
C1209 C1207 1.419 . S
C1209 C1210 1.362 . S
C1210 H1202 0.930 . S
C1210 C1209 1.362 . S
C1210 C1213 1.409 . S
C1211 H1203 0.930 . S
C1211 C1212 1.355 . S
C1211 C1213 1.415 . S
C1212 C1211 1.355 . S
C1212 C1214 1.419 . S
C1213 C1208 1.425 . S
C1213 C1210 1.409 . S
C1213 C1211 1.415 . S
C1214 H1204 0.930 . S
C1214 C1212 1.419 . S
C1214 C1215 1.362 . S
C1215 H1205 0.930 . S
C1215 C1208 1.409 . S
C1215 C1214 1.362 . S
H1216 C1222 0.930 . S
H1217 C1225 0.930 . S
H1218 C1226 0.930 . S
H1219 C1227 0.930 . S
H1220 C1230 0.930 . S
H1221 C1231 0.930 . S
C1222 H1216 0.930 . S
C1222 C1223 1.355 . S
C1222 C1224 1.415 . S
C1223 C1222 1.355 . S
C1223 C1225 1.419 . S
C1224 C1222 1.415 . S
C1224 C1229 1.425 . S
C1224 C1231 1.409 . S
C1225 H1217 0.930 . S
C1225 C1223 1.419 . S
C1225 C1226 1.362 . S
C1226 H1218 0.930 . S
C1226 C1225 1.362 . S
C1226 C1229 1.409 . S
C1227 H1219 0.930 . S
C1227 C1228 1.355 . S
C1227 C1229 1.415 . S
C1228 C1227 1.355 . S
C1228 C1230 1.419 . S
C1229 C1224 1.425 . S
C1229 C1226 1.409 . S
C1229 C1227 1.415 . S
C1230 H1220 0.930 . S
C1230 C1228 1.419 . S
C1230 C1231 1.362 . S
C1231 H1221 0.930 . S
C1231 C1224 1.409 . S
C1231 C1230 1.362 . S
H1232 C1238 0.930 . S
H1233 C1241 0.930 . S
H1234 C1242 0.930 . S
H1235 C1243 0.930 . S
H1236 C1246 0.930 . S
H1237 C1247 0.930 . S
C1238 H1232 0.930 . S
C1238 C1239 1.355 . S
C1238 C1240 1.415 . S
C1239 C1238 1.355 . S
C1239 C1241 1.419 . S
C1240 C1238 1.415 . S
C1240 C1245 1.425 . S
C1240 C1247 1.409 . S
C1241 H1233 0.930 . S
C1241 C1239 1.419 . S
C1241 C1242 1.362 . S
C1242 H1234 0.930 . S
C1242 C1241 1.362 . S
C1242 C1245 1.409 . S
C1243 H1235 0.930 . S
C1243 C1244 1.355 . S
C1243 C1245 1.415 . S
C1244 C1243 1.355 . S
C1244 C1246 1.419 . S
C1245 C1240 1.425 . S
C1245 C1242 1.409 . S
C1245 C1243 1.415 . S
C1246 H1236 0.930 . S
C1246 C1244 1.419 . S
C1246 C1247 1.362 . S
C1247 H1237 0.930 . S
C1247 C1240 1.409 . S
C1247 C1246 1.362 . S
H1248 C1254 0.930 . S
H1249 C1257 0.930 . S
H1250 C1258 0.930 . S
H1251 C1259 0.930 . S
H1252 C1262 0.930 . S
H1253 C1263 0.930 . S
C1254 H1248 0.930 . S
C1254 C1255 1.355 . S
C1254 C1256 1.415 . S
C1255 C1254 1.355 . S
C1255 C1257 1.419 . S
C1256 C1254 1.415 . S
C1256 C1261 1.425 . S
C1256 C1263 1.409 . S
C1257 H1249 0.930 . S
C1257 C1255 1.419 . S
C1257 C1258 1.362 . S
C1258 H1250 0.930 . S
C1258 C1257 1.362 . S
C1258 C1261 1.409 . S
C1259 H1251 0.930 . S
C1259 C1260 1.355 . S
C1259 C1261 1.415 . S
C1260 C1259 1.355 . S
C1260 C1262 1.419 . S
C1261 C1256 1.425 . S
C1261 C1258 1.409 . S
C1261 C1259 1.415 . S
C1262 H1252 0.930 . S
C1262 C1260 1.419 . S
C1262 C1263 1.362 . S
C1263 H1253 0.930 . S
C1263 C1256 1.409 . S
C1263 C1262 1.362 . S
H1264 C1270 0.930 . S
H1265 C1273 0.930 . S
H1266 C1274 0.930 . S
H1267 C1275 0.930 . S
H1268 C1278 0.930 . S
H1269 C1279 0.930 . S
C1270 H1264 0.930 . S
C1270 C1271 1.355 . S
C1270 C1272 1.415 . S
C1271 C1270 1.355 . S
C1271 C1273 1.419 . S
C1272 C1270 1.415 . S
C1272 C1277 1.425 . S
C1272 C1279 1.409 . S
C1273 H1265 0.930 . S
C1273 C1271 1.419 . S
C1273 C1274 1.362 . S
C1274 H1266 0.930 . S
C1274 C1273 1.362 . S
C1274 C1277 1.409 . S
C1275 H1267 0.930 . S
C1275 C1276 1.355 . S
C1275 C1277 1.415 . S
C1276 C1275 1.355 . S
C1276 C1278 1.419 . S
C1277 C1272 1.425 . S
C1277 C1274 1.409 . S
C1277 C1275 1.415 . S
C1278 H1268 0.930 . S
C1278 C1276 1.419 . S
C1278 C1279 1.362 . S
C1279 H1269 0.930 . S
C1279 C1272 1.409 . S
C1279 C1278 1.362 . S
H1280 C1286 0.930 . S
H1281 C1289 0.930 . S
H1282 C1290 0.930 . S
H1283 C1291 0.930 . S
H1284 C1294 0.930 . S
H1285 C1295 0.930 . S
C1286 H1280 0.930 . S
C1286 C1287 1.355 . S
C1286 C1288 1.415 . S
C1287 C1286 1.355 . S
C1287 C1289 1.419 . S
C1288 C1286 1.415 . S
C1288 C1293 1.425 . S
C1288 C1295 1.409 . S
C1289 H1281 0.930 . S
C1289 C1287 1.419 . S
C1289 C1290 1.362 . S
C1290 H1282 0.930 . S
C1290 C1289 1.362 . S
C1290 C1293 1.409 . S
C1291 H1283 0.930 . S
C1291 C1292 1.355 . S
C1291 C1293 1.415 . S
C1292 C1291 1.355 . S
C1292 C1294 1.419 . S
C1293 C1288 1.425 . S
C1293 C1290 1.409 . S
C1293 C1291 1.415 . S
C1294 H1284 0.930 . S
C1294 C1292 1.419 . S
C1294 C1295 1.362 . S
C1295 H1285 0.930 . S
C1295 C1288 1.409 . S
C1295 C1294 1.362 . S
H1296 C1302 0.930 . S
H1297 C1305 0.930 . S
H1298 C1306 0.930 . S
H1299 C1307 0.930 . S
H1300 C1310 0.930 . S
H1301 C1311 0.930 . S
C1302 H1296 0.930 . S
C1302 C1303 1.355 . S
C1302 C1304 1.415 . S
C1303 C1302 1.355 . S
C1303 C1305 1.419 . S
C1304 C1302 1.415 . S
C1304 C1309 1.425 . S
C1304 C1311 1.409 . S
C1305 H1297 0.930 . S
C1305 C1303 1.419 . S
C1305 C1306 1.362 . S
C1306 H1298 0.930 . S
C1306 C1305 1.362 . S
C1306 C1309 1.409 . S
C1307 H1299 0.930 . S
C1307 C1308 1.355 . S
C1307 C1309 1.415 . S
C1308 C1307 1.355 . S
C1308 C1310 1.419 . S
C1309 C1304 1.425 . S
C1309 C1306 1.409 . S
C1309 C1307 1.415 . S
C1310 H1300 0.930 . S
C1310 C1308 1.419 . S
C1310 C1311 1.362 . S
C1311 H1301 0.930 . S
C1311 C1304 1.409 . S
C1311 C1310 1.362 . S
H1312 C1318 0.930 . S
H1313 C1321 0.930 . S
H1314 C1322 0.930 . S
H1315 C1323 0.930 . S
H1316 C1326 0.930 . S
H1317 C1327 0.930 . S
C1318 H1312 0.930 . S
C1318 C1319 1.355 . S
C1318 C1320 1.415 . S
C1319 C1318 1.355 . S
C1319 C1321 1.419 . S
C1320 C1318 1.415 . S
C1320 C1325 1.425 . S
C1320 C1327 1.409 . S
C1321 H1313 0.930 . S
C1321 C1319 1.419 . S
C1321 C1322 1.362 . S
C1322 H1314 0.930 . S
C1322 C1321 1.362 . S
C1322 C1325 1.409 . S
C1323 H1315 0.930 . S
C1323 C1324 1.355 . S
C1323 C1325 1.415 . S
C1324 C1323 1.355 . S
C1324 C1326 1.419 . S
C1325 C1320 1.425 . S
C1325 C1322 1.409 . S
C1325 C1323 1.415 . S
C1326 H1316 0.930 . S
C1326 C1324 1.419 . S
C1326 C1327 1.362 . S
C1327 H1317 0.930 . S
C1327 C1320 1.409 . S
C1327 C1326 1.362 . S
H1328 C1334 0.930 . S
H1329 C1337 0.930 . S
H1330 C1338 0.930 . S
H1331 C1339 0.930 . S
H1332 C1342 0.930 . S
H1333 C1343 0.930 . S
C1334 H1328 0.930 . S
C1334 C1335 1.355 . S
C1334 C1336 1.415 . S
C1335 C1334 1.355 . S
C1335 C1337 1.419 . S
C1336 C1334 1.415 . S
C1336 C1341 1.425 . S
C1336 C1343 1.409 . S
C1337 H1329 0.930 . S
C1337 C1335 1.419 . S
C1337 C1338 1.362 . S
C1338 H1330 0.930 . S
C1338 C1337 1.362 . S
C1338 C1341 1.409 . S
C1339 H1331 0.930 . S
C1339 C1340 1.355 . S
C1339 C1341 1.415 . S
C1340 C1339 1.355 . S
C1340 C1342 1.419 . S
C1341 C1336 1.425 . S
C1341 C1338 1.409 . S
C1341 C1339 1.415 . S
C1342 H1332 0.930 . S
C1342 C1340 1.419 . S
C1342 C1343 1.362 . S
C1343 H1333 0.930 . S
C1343 C1336 1.409 . S
C1343 C1342 1.362 . S
H1344 C1350 0.930 . S
H1345 C1353 0.930 . S
H1346 C1354 0.930 . S
H1347 C1355 0.930 . S
H1348 C1358 0.930 . S
H1349 C1359 0.930 . S
C1350 H1344 0.930 . S
C1350 C1351 1.355 . S
C1350 C1352 1.415 . S
C1351 C1350 1.355 . S
C1351 C1353 1.419 . S
C1352 C1350 1.415 . S
C1352 C1357 1.425 . S
C1352 C1359 1.409 . S
C1353 H1345 0.930 . S
C1353 C1351 1.419 . S
C1353 C1354 1.362 . S
C1354 H1346 0.930 . S
C1354 C1353 1.362 . S
C1354 C1357 1.409 . S
C1355 H1347 0.930 . S
C1355 C1356 1.355 . S
C1355 C1357 1.415 . S
C1356 C1355 1.355 . S
C1356 C1358 1.419 . S
C1357 C1352 1.425 . S
C1357 C1354 1.409 . S
C1357 C1355 1.415 . S
C1358 H1348 0.930 . S
C1358 C1356 1.419 . S
C1358 C1359 1.362 . S
C1359 H1349 0.930 . S
C1359 C1352 1.409 . S
C1359 C1358 1.362 . S
H1360 C1366 0.930 . S
H1361 C1369 0.930 . S
H1362 C1370 0.930 . S
H1363 C1371 0.930 . S
H1364 C1374 0.930 . S
H1365 C1375 0.930 . S
C1366 H1360 0.930 . S
C1366 C1367 1.355 . S
C1366 C1368 1.415 . S
C1367 C1366 1.355 . S
C1367 C1369 1.419 . S
C1368 C1366 1.415 . S
C1368 C1373 1.425 . S
C1368 C1375 1.409 . S
C1369 H1361 0.930 . S
C1369 C1367 1.419 . S
C1369 C1370 1.362 . S
C1370 H1362 0.930 . S
C1370 C1369 1.362 . S
C1370 C1373 1.409 . S
C1371 H1363 0.930 . S
C1371 C1372 1.355 . S
C1371 C1373 1.415 . S
C1372 C1371 1.355 . S
C1372 C1374 1.419 . S
C1373 C1368 1.425 . S
C1373 C1370 1.409 . S
C1373 C1371 1.415 . S
C1374 H1364 0.930 . S
C1374 C1372 1.419 . S
C1374 C1375 1.362 . S
C1375 H1365 0.930 . S
C1375 C1368 1.409 . S
C1375 C1374 1.362 . S
H1376 C1382 0.930 . S
H1377 C1385 0.930 . S
H1378 C1386 0.930 . S
H1379 C1387 0.930 . S
H1380 C1390 0.930 . S
H1381 C1391 0.930 . S
C1382 H1376 0.930 . S
C1382 C1383 1.355 . S
C1382 C1384 1.415 . S
C1383 C1382 1.355 . S
C1383 C1385 1.419 . S
C1384 C1382 1.415 . S
C1384 C1389 1.425 . S
C1384 C1391 1.409 . S
C1385 H1377 0.930 . S
C1385 C1383 1.419 . S
C1385 C1386 1.362 . S
C1386 H1378 0.930 . S
C1386 C1385 1.362 . S
C1386 C1389 1.409 . S
C1387 H1379 0.930 . S
C1387 C1388 1.355 . S
C1387 C1389 1.415 . S
C1388 C1387 1.355 . S
C1388 C1390 1.419 . S
C1389 C1384 1.425 . S
C1389 C1386 1.409 . S
C1389 C1387 1.415 . S
C1390 H1380 0.930 . S
C1390 C1388 1.419 . S
C1390 C1391 1.362 . S
C1391 H1381 0.930 . S
C1391 C1384 1.409 . S
C1391 C1390 1.362 . S
H1392 C1398 0.930 . S
H1393 C1401 0.930 . S
H1394 C1402 0.930 . S
H1395 C1403 0.930 . S
H1396 C1406 0.930 . S
H1397 C1407 0.930 . S
C1398 H1392 0.930 . S
C1398 C1399 1.355 . S
C1398 C1400 1.415 . S
C1399 C1398 1.355 . S
C1399 C1401 1.419 . S
C1400 C1398 1.415 . S
C1400 C1405 1.425 . S
C1400 C1407 1.409 . S
C1401 H1393 0.930 . S
C1401 C1399 1.419 . S
C1401 C1402 1.362 . S
C1402 H1394 0.930 . S
C1402 C1401 1.362 . S
C1402 C1405 1.409 . S
C1403 H1395 0.930 . S
C1403 C1404 1.355 . S
C1403 C1405 1.415 . S
C1404 C1403 1.355 . S
C1404 C1406 1.419 . S
C1405 C1400 1.425 . S
C1405 C1402 1.409 . S
C1405 C1403 1.415 . S
C1406 H1396 0.930 . S
C1406 C1404 1.419 . S
C1406 C1407 1.362 . S
C1407 H1397 0.930 . S
C1407 C1400 1.409 . S
C1407 C1406 1.362 . S
H1408 C1414 0.930 . S
H1409 C1417 0.930 . S
H1410 C1418 0.930 . S
H1411 C1419 0.930 . S
H1412 C1422 0.930 . S
H1413 C1423 0.930 . S
C1414 H1408 0.930 . S
C1414 C1415 1.355 . S
C1414 C1416 1.415 . S
C1415 C1414 1.355 . S
C1415 C1417 1.419 . S
C1416 C1414 1.415 . S
C1416 C1421 1.425 . S
C1416 C1423 1.409 . S
C1417 H1409 0.930 . S
C1417 C1415 1.419 . S
C1417 C1418 1.362 . S
C1418 H1410 0.930 . S
C1418 C1417 1.362 . S
C1418 C1421 1.409 . S
C1419 H1411 0.930 . S
C1419 C1420 1.355 . S
C1419 C1421 1.415 . S
C1420 C1419 1.355 . S
C1420 C1422 1.419 . S
C1421 C1416 1.425 . S
C1421 C1418 1.409 . S
C1421 C1419 1.415 . S
C1422 H1412 0.930 . S
C1422 C1420 1.419 . S
C1422 C1423 1.362 . S
C1423 H1413 0.930 . S
C1423 C1416 1.409 . S
C1423 C1422 1.362 . S
H1424 C1430 0.930 . S
H1425 C1433 0.930 . S
H1426 C1434 0.930 . S
H1427 C1435 0.930 . S
H1428 C1438 0.930 . S
H1429 C1439 0.930 . S
C1430 H1424 0.930 . S
C1430 C1431 1.355 . S
C1430 C1432 1.415 . S
C1431 C1430 1.355 . S
C1431 C1433 1.419 . S
C1432 C1430 1.415 . S
C1432 C1437 1.425 . S
C1432 C1439 1.409 . S
C1433 H1425 0.930 . S
C1433 C1431 1.419 . S
C1433 C1434 1.362 . S
C1434 H1426 0.930 . S
C1434 C1433 1.362 . S
C1434 C1437 1.409 . S
C1435 H1427 0.930 . S
C1435 C1436 1.355 . S
C1435 C1437 1.415 . S
C1436 C1435 1.355 . S
C1436 C1438 1.419 . S
C1437 C1432 1.425 . S
C1437 C1434 1.409 . S
C1437 C1435 1.415 . S
C1438 H1428 0.930 . S
C1438 C1436 1.419 . S
C1438 C1439 1.362 . S
C1439 H1429 0.930 . S
C1439 C1432 1.409 . S
C1439 C1438 1.362 . S
H1440 C1446 0.930 . S
H1441 C1449 0.930 . S
H1442 C1450 0.930 . S
H1443 C1451 0.930 . S
H1444 C1454 0.930 . S
H1445 C1455 0.930 . S
C1446 H1440 0.930 . S
C1446 C1447 1.355 . S
C1446 C1448 1.415 . S
C1447 C1446 1.355 . S
C1447 C1449 1.419 . S
C1448 C1446 1.415 . S
C1448 C1453 1.425 . S
C1448 C1455 1.409 . S
C1449 H1441 0.930 . S
C1449 C1447 1.419 . S
C1449 C1450 1.362 . S
C1450 H1442 0.930 . S
C1450 C1449 1.362 . S
C1450 C1453 1.409 . S
C1451 H1443 0.930 . S
C1451 C1452 1.355 . S
C1451 C1453 1.415 . S
C1452 C1451 1.355 . S
C1452 C1454 1.419 . S
C1453 C1448 1.425 . S
C1453 C1450 1.409 . S
C1453 C1451 1.415 . S
C1454 H1444 0.930 . S
C1454 C1452 1.419 . S
C1454 C1455 1.362 . S
C1455 H1445 0.930 . S
C1455 C1448 1.409 . S
C1455 C1454 1.362 . S
H1456 C1462 0.930 . S
H1457 C1465 0.930 . S
H1458 C1466 0.930 . S
H1459 C1467 0.930 . S
H1460 C1470 0.930 . S
H1461 C1471 0.930 . S
C1462 H1456 0.930 . S
C1462 C1463 1.355 . S
C1462 C1464 1.415 . S
C1463 C1462 1.355 . S
C1463 C1465 1.419 . S
C1464 C1462 1.415 . S
C1464 C1469 1.425 . S
C1464 C1471 1.409 . S
C1465 H1457 0.930 . S
C1465 C1463 1.419 . S
C1465 C1466 1.362 . S
C1466 H1458 0.930 . S
C1466 C1465 1.362 . S
C1466 C1469 1.409 . S
C1467 H1459 0.930 . S
C1467 C1468 1.355 . S
C1467 C1469 1.415 . S
C1468 C1467 1.355 . S
C1468 C1470 1.419 . S
C1469 C1464 1.425 . S
C1469 C1466 1.409 . S
C1469 C1467 1.415 . S
C1470 H1460 0.930 . S
C1470 C1468 1.419 . S
C1470 C1471 1.362 . S
C1471 H1461 0.930 . S
C1471 C1464 1.409 . S
C1471 C1470 1.362 . S
H1472 C1478 0.930 . S
H1473 C1481 0.930 . S
H1474 C1482 0.930 . S
H1475 C1483 0.930 . S
H1476 C1486 0.930 . S
H1477 C1487 0.930 . S
C1478 H1472 0.930 . S
C1478 C1479 1.355 . S
C1478 C1480 1.415 . S
C1479 C1478 1.355 . S
C1479 C1481 1.419 . S
C1480 C1478 1.415 . S
C1480 C1485 1.425 . S
C1480 C1487 1.409 . S
C1481 H1473 0.930 . S
C1481 C1479 1.419 . S
C1481 C1482 1.362 . S
C1482 H1474 0.930 . S
C1482 C1481 1.362 . S
C1482 C1485 1.409 . S
C1483 H1475 0.930 . S
C1483 C1484 1.355 . S
C1483 C1485 1.415 . S
C1484 C1483 1.355 . S
C1484 C1486 1.419 . S
C1485 C1480 1.425 . S
C1485 C1482 1.409 . S
C1485 C1483 1.415 . S
C1486 H1476 0.930 . S
C1486 C1484 1.419 . S
C1486 C1487 1.362 . S
C1487 H1477 0.930 . S
C1487 C1480 1.409 . S
C1487 C1486 1.362 . S
H1488 C1494 0.930 . S
H1489 C1497 0.930 . S
H1490 C1498 0.930 . S
H1491 C1499 0.930 . S
H1492 C1502 0.930 . S
H1493 C1503 0.930 . S
C1494 H1488 0.930 . S
C1494 C1495 1.355 . S
C1494 C1496 1.415 . S
C1495 C1494 1.355 . S
C1495 C1497 1.419 . S
C1496 C1494 1.415 . S
C1496 C1501 1.425 . S
C1496 C1503 1.409 . S
C1497 H1489 0.930 . S
C1497 C1495 1.419 . S
C1497 C1498 1.362 . S
C1498 H1490 0.930 . S
C1498 C1497 1.362 . S
C1498 C1501 1.409 . S
C1499 H1491 0.930 . S
C1499 C1500 1.355 . S
C1499 C1501 1.415 . S
C1500 C1499 1.355 . S
C1500 C1502 1.419 . S
C1501 C1496 1.425 . S
C1501 C1498 1.409 . S
C1501 C1499 1.415 . S
C1502 H1492 0.930 . S
C1502 C1500 1.419 . S
C1502 C1503 1.362 . S
C1503 H1493 0.930 . S
C1503 C1496 1.409 . S
C1503 C1502 1.362 . S
H1504 C1510 0.930 . S
H1505 C1513 0.930 . S
H1506 C1514 0.930 . S
H1507 C1515 0.930 . S
H1508 C1518 0.930 . S
H1509 C1519 0.930 . S
C1510 H1504 0.930 . S
C1510 C1511 1.355 . S
C1510 C1512 1.415 . S
C1511 C1510 1.355 . S
C1511 C1513 1.419 . S
C1512 C1510 1.415 . S
C1512 C1517 1.425 . S
C1512 C1519 1.409 . S
C1513 H1505 0.930 . S
C1513 C1511 1.419 . S
C1513 C1514 1.362 . S
C1514 H1506 0.930 . S
C1514 C1513 1.362 . S
C1514 C1517 1.409 . S
C1515 H1507 0.930 . S
C1515 C1516 1.355 . S
C1515 C1517 1.415 . S
C1516 C1515 1.355 . S
C1516 C1518 1.419 . S
C1517 C1512 1.425 . S
C1517 C1514 1.409 . S
C1517 C1515 1.415 . S
C1518 H1508 0.930 . S
C1518 C1516 1.419 . S
C1518 C1519 1.362 . S
C1519 H1509 0.930 . S
C1519 C1512 1.409 . S
C1519 C1518 1.362 . S
H1520 C1526 0.930 . S
H1521 C1529 0.930 . S
H1522 C1530 0.930 . S
H1523 C1531 0.930 . S
H1524 C1534 0.930 . S
H1525 C1535 0.930 . S
C1526 H1520 0.930 . S
C1526 C1527 1.355 . S
C1526 C1528 1.415 . S
C1527 C1526 1.355 . S
C1527 C1529 1.419 . S
C1528 C1526 1.415 . S
C1528 C1533 1.425 . S
C1528 C1535 1.409 . S
C1529 H1521 0.930 . S
C1529 C1527 1.419 . S
C1529 C1530 1.362 . S
C1530 H1522 0.930 . S
C1530 C1529 1.362 . S
C1530 C1533 1.409 . S
C1531 H1523 0.930 . S
C1531 C1532 1.355 . S
C1531 C1533 1.415 . S
C1532 C1531 1.355 . S
C1532 C1534 1.419 . S
C1533 C1528 1.425 . S
C1533 C1530 1.409 . S
C1533 C1531 1.415 . S
C1534 H1524 0.930 . S
C1534 C1532 1.419 . S
C1534 C1535 1.362 . S
C1535 H1525 0.930 . S
C1535 C1528 1.409 . S
C1535 C1534 1.362 . S
H1536 C1542 0.930 . S
H1537 C1545 0.930 . S
H1538 C1546 0.930 . S
H1539 C1547 0.930 . S
H1540 C1550 0.930 . S
H1541 C1551 0.930 . S
C1542 H1536 0.930 . S
C1542 C1543 1.355 . S
C1542 C1544 1.415 . S
C1543 C1542 1.355 . S
C1543 C1545 1.419 . S
C1544 C1542 1.415 . S
C1544 C1549 1.425 . S
C1544 C1551 1.409 . S
C1545 H1537 0.930 . S
C1545 C1543 1.419 . S
C1545 C1546 1.362 . S
C1546 H1538 0.930 . S
C1546 C1545 1.362 . S
C1546 C1549 1.409 . S
C1547 H1539 0.930 . S
C1547 C1548 1.355 . S
C1547 C1549 1.415 . S
C1548 C1547 1.355 . S
C1548 C1550 1.419 . S
C1549 C1544 1.425 . S
C1549 C1546 1.409 . S
C1549 C1547 1.415 . S
C1550 H1540 0.930 . S
C1550 C1548 1.419 . S
C1550 C1551 1.362 . S
C1551 H1541 0.930 . S
C1551 C1544 1.409 . S
C1551 C1550 1.362 . S
H1552 C1558 0.930 . S
H1553 C1561 0.930 . S
H1554 C1562 0.930 . S
H1555 C1563 0.930 . S
H1556 C1566 0.930 . S
H1557 C1567 0.930 . S
C1558 H1552 0.930 . S
C1558 C1559 1.355 . S
C1558 C1560 1.415 . S
C1559 C1558 1.355 . S
C1559 C1561 1.419 . S
C1560 C1558 1.415 . S
C1560 C1565 1.425 . S
C1560 C1567 1.409 . S
C1561 H1553 0.930 . S
C1561 C1559 1.419 . S
C1561 C1562 1.362 . S
C1562 H1554 0.930 . S
C1562 C1561 1.362 . S
C1562 C1565 1.409 . S
C1563 H1555 0.930 . S
C1563 C1564 1.355 . S
C1563 C1565 1.415 . S
C1564 C1563 1.355 . S
C1564 C1566 1.419 . S
C1565 C1560 1.425 . S
C1565 C1562 1.409 . S
C1565 C1563 1.415 . S
C1566 H1556 0.930 . S
C1566 C1564 1.419 . S
C1566 C1567 1.362 . S
C1567 H1557 0.930 . S
C1567 C1560 1.409 . S
C1567 C1566 1.362 . S
H1568 C1574 0.930 . S
H1569 C1577 0.930 . S
H1570 C1578 0.930 . S
H1571 C1579 0.930 . S
H1572 C1582 0.930 . S
H1573 C1583 0.930 . S
C1574 H1568 0.930 . S
C1574 C1575 1.355 . S
C1574 C1576 1.415 . S
C1575 C1574 1.355 . S
C1575 C1577 1.419 . S
C1576 C1574 1.415 . S
C1576 C1581 1.425 . S
C1576 C1583 1.409 . S
C1577 H1569 0.930 . S
C1577 C1575 1.419 . S
C1577 C1578 1.362 . S
C1578 H1570 0.930 . S
C1578 C1577 1.362 . S
C1578 C1581 1.409 . S
C1579 H1571 0.930 . S
C1579 C1580 1.355 . S
C1579 C1581 1.415 . S
C1580 C1579 1.355 . S
C1580 C1582 1.419 . S
C1581 C1576 1.425 . S
C1581 C1578 1.409 . S
C1581 C1579 1.415 . S
C1582 H1572 0.930 . S
C1582 C1580 1.419 . S
C1582 C1583 1.362 . S
C1583 H1573 0.930 . S
C1583 C1576 1.409 . S
C1583 C1582 1.362 . S
H1584 C1590 0.930 . S
H1585 C1593 0.930 . S
H1586 C1594 0.930 . S
H1587 C1595 0.930 . S
H1588 C1598 0.930 . S
H1589 C1599 0.930 . S
C1590 H1584 0.930 . S
C1590 C1591 1.355 . S
C1590 C1592 1.415 . S
C1591 C1590 1.355 . S
C1591 C1593 1.419 . S
C1592 C1590 1.415 . S
C1592 C1597 1.425 . S
C1592 C1599 1.409 . S
C1593 H1585 0.930 . S
C1593 C1591 1.419 . S
C1593 C1594 1.362 . S
C1594 H1586 0.930 . S
C1594 C1593 1.362 . S
C1594 C1597 1.409 . S
C1595 H1587 0.930 . S
C1595 C1596 1.355 . S
C1595 C1597 1.415 . S
C1596 C1595 1.355 . S
C1596 C1598 1.419 . S
C1597 C1592 1.425 . S
C1597 C1594 1.409 . S
C1597 C1595 1.415 . S
C1598 H1588 0.930 . S
C1598 C1596 1.419 . S
C1598 C1599 1.362 . S
C1599 H1589 0.930 . S
C1599 C1592 1.409 . S
C1599 C1598 1.362 . S
H1600 C1606 0.930 . S
H1601 C1609 0.930 . S
H1602 C1610 0.930 . S
H1603 C1611 0.930 . S
H1604 C1614 0.930 . S
H1605 C1615 0.930 . S
C1606 H1600 0.930 . S
C1606 C1607 1.355 . S
C1606 C1608 1.415 . S
C1607 C1606 1.355 . S
C1607 C1609 1.419 . S
C1608 C1606 1.415 . S
C1608 C1613 1.425 . S
C1608 C1615 1.409 . S
C1609 H1601 0.930 . S
C1609 C1607 1.419 . S
C1609 C1610 1.362 . S
C1610 H1602 0.930 . S
C1610 C1609 1.362 . S
C1610 C1613 1.409 . S
C1611 H1603 0.930 . S
C1611 C1612 1.355 . S
C1611 C1613 1.415 . S
C1612 C1611 1.355 . S
C1612 C1614 1.419 . S
C1613 C1608 1.425 . S
C1613 C1610 1.409 . S
C1613 C1611 1.415 . S
C1614 H1604 0.930 . S
C1614 C1612 1.419 . S
C1614 C1615 1.362 . S
C1615 H1605 0.930 . S
C1615 C1608 1.409 . S
C1615 C1614 1.362 . S
H1616 C1622 0.930 . S
H1617 C1625 0.930 . S
H1618 C1626 0.930 . S
H1619 C1627 0.930 . S
H1620 C1630 0.930 . S
H1621 C1631 0.930 . S
C1622 H1616 0.930 . S
C1622 C1623 1.355 . S
C1622 C1624 1.415 . S
C1623 C1622 1.355 . S
C1623 C1625 1.419 . S
C1624 C1622 1.415 . S
C1624 C1629 1.425 . S
C1624 C1631 1.409 . S
C1625 H1617 0.930 . S
C1625 C1623 1.419 . S
C1625 C1626 1.362 . S
C1626 H1618 0.930 . S
C1626 C1625 1.362 . S
C1626 C1629 1.409 . S
C1627 H1619 0.930 . S
C1627 C1628 1.355 . S
C1627 C1629 1.415 . S
C1628 C1627 1.355 . S
C1628 C1630 1.419 . S
C1629 C1624 1.425 . S
C1629 C1626 1.409 . S
C1629 C1627 1.415 . S
C1630 H1620 0.930 . S
C1630 C1628 1.419 . S
C1630 C1631 1.362 . S
C1631 H1621 0.930 . S
C1631 C1624 1.409 . S
C1631 C1630 1.362 . S
H1632 C1638 0.930 . S
H1633 C1641 0.930 . S
H1634 C1642 0.930 . S
H1635 C1643 0.930 . S
H1636 C1646 0.930 . S
H1637 C1647 0.930 . S
C1638 H1632 0.930 . S
C1638 C1639 1.355 . S
C1638 C1640 1.415 . S
C1639 C1638 1.355 . S
C1639 C1641 1.419 . S
C1640 C1638 1.415 . S
C1640 C1645 1.425 . S
C1640 C1647 1.409 . S
C1641 H1633 0.930 . S
C1641 C1639 1.419 . S
C1641 C1642 1.362 . S
C1642 H1634 0.930 . S
C1642 C1641 1.362 . S
C1642 C1645 1.409 . S
C1643 H1635 0.930 . S
C1643 C1644 1.355 . S
C1643 C1645 1.415 . S
C1644 C1643 1.355 . S
C1644 C1646 1.419 . S
C1645 C1640 1.425 . S
C1645 C1642 1.409 . S
C1645 C1643 1.415 . S
C1646 H1636 0.930 . S
C1646 C1644 1.419 . S
C1646 C1647 1.362 . S
C1647 H1637 0.930 . S
C1647 C1640 1.409 . S
C1647 C1646 1.362 . S
H1648 C1654 0.930 . S
H1649 C1657 0.930 . S
H1650 C1658 0.930 . S
H1651 C1659 0.930 . S
H1652 C1662 0.930 . S
H1653 C1663 0.930 . S
C1654 H1648 0.930 . S
C1654 C1655 1.355 . S
C1654 C1656 1.415 . S
C1655 C1654 1.355 . S
C1655 C1657 1.419 . S
C1656 C1654 1.415 . S
C1656 C1661 1.425 . S
C1656 C1663 1.409 . S
C1657 H1649 0.930 . S
C1657 C1655 1.419 . S
C1657 C1658 1.362 . S
C1658 H1650 0.930 . S
C1658 C1657 1.362 . S
C1658 C1661 1.409 . S
C1659 H1651 0.930 . S
C1659 C1660 1.355 . S
C1659 C1661 1.415 . S
C1660 C1659 1.355 . S
C1660 C1662 1.419 . S
C1661 C1656 1.425 . S
C1661 C1658 1.409 . S
C1661 C1659 1.415 . S
C1662 H1652 0.930 . S
C1662 C1660 1.419 . S
C1662 C1663 1.362 . S
C1663 H1653 0.930 . S
C1663 C1656 1.409 . S
C1663 C1662 1.362 . S
H1664 C1670 0.930 . S
H1665 C1673 0.930 . S
H1666 C1674 0.930 . S
H1667 C1675 0.930 . S
H1668 C1678 0.930 . S
H1669 C1679 0.930 . S
C1670 H1664 0.930 . S
C1670 C1671 1.355 . S
C1670 C1672 1.415 . S
C1671 C1670 1.355 . S
C1671 C1673 1.419 . S
C1672 C1670 1.415 . S
C1672 C1677 1.425 . S
C1672 C1679 1.409 . S
C1673 H1665 0.930 . S
C1673 C1671 1.419 . S
C1673 C1674 1.362 . S
C1674 H1666 0.930 . S
C1674 C1673 1.362 . S
C1674 C1677 1.409 . S
C1675 H1667 0.930 . S
C1675 C1676 1.355 . S
C1675 C1677 1.415 . S
C1676 C1675 1.355 . S
C1676 C1678 1.419 . S
C1677 C1672 1.425 . S
C1677 C1674 1.409 . S
C1677 C1675 1.415 . S
C1678 H1668 0.930 . S
C1678 C1676 1.419 . S
C1678 C1679 1.362 . S
C1679 H1669 0.930 . S
C1679 C1672 1.409 . S
C1679 C1678 1.362 . S
H1680 C1686 0.930 . S
H1681 C1689 0.930 . S
H1682 C1690 0.930 . S
H1683 C1691 0.930 . S
H1684 C1694 0.930 . S
H1685 C1695 0.930 . S
C1686 H1680 0.930 . S
C1686 C1687 1.355 . S
C1686 C1688 1.415 . S
C1687 C1686 1.355 . S
C1687 C1689 1.419 . S
C1688 C1686 1.415 . S
C1688 C1693 1.425 . S
C1688 C1695 1.409 . S
C1689 H1681 0.930 . S
C1689 C1687 1.419 . S
C1689 C1690 1.362 . S
C1690 H1682 0.930 . S
C1690 C1689 1.362 . S
C1690 C1693 1.409 . S
C1691 H1683 0.930 . S
C1691 C1692 1.355 . S
C1691 C1693 1.415 . S
C1692 C1691 1.355 . S
C1692 C1694 1.419 . S
C1693 C1688 1.425 . S
C1693 C1690 1.409 . S
C1693 C1691 1.415 . S
C1694 H1684 0.930 . S
C1694 C1692 1.419 . S
C1694 C1695 1.362 . S
C1695 H1685 0.930 . S
C1695 C1688 1.409 . S
C1695 C1694 1.362 . S
H1696 C1702 0.930 . S
H1697 C1705 0.930 . S
H1698 C1706 0.930 . S
H1699 C1707 0.930 . S
H1700 C1710 0.930 . S
H1701 C1711 0.930 . S
C1702 H1696 0.930 . S
C1702 C1703 1.355 . S
C1702 C1704 1.415 . S
C1703 C1702 1.355 . S
C1703 C1705 1.419 . S
C1704 C1702 1.415 . S
C1704 C1709 1.425 . S
C1704 C1711 1.409 . S
C1705 H1697 0.930 . S
C1705 C1703 1.419 . S
C1705 C1706 1.362 . S
C1706 H1698 0.930 . S
C1706 C1705 1.362 . S
C1706 C1709 1.409 . S
C1707 H1699 0.930 . S
C1707 C1708 1.355 . S
C1707 C1709 1.415 . S
C1708 C1707 1.355 . S
C1708 C1710 1.419 . S
C1709 C1704 1.425 . S
C1709 C1706 1.409 . S
C1709 C1707 1.415 . S
C1710 H1700 0.930 . S
C1710 C1708 1.419 . S
C1710 C1711 1.362 . S
C1711 H1701 0.930 . S
C1711 C1704 1.409 . S
C1711 C1710 1.362 . S
H1712 C1718 0.930 . S
H1713 C1721 0.930 . S
H1714 C1722 0.930 . S
H1715 C1723 0.930 . S
H1716 C1726 0.930 . S
H1717 C1727 0.930 . S
C1718 H1712 0.930 . S
C1718 C1719 1.355 . S
C1718 C1720 1.415 . S
C1719 C1718 1.355 . S
C1719 C1721 1.419 . S
C1720 C1718 1.415 . S
C1720 C1725 1.425 . S
C1720 C1727 1.409 . S
C1721 H1713 0.930 . S
C1721 C1719 1.419 . S
C1721 C1722 1.362 . S
C1722 H1714 0.930 . S
C1722 C1721 1.362 . S
C1722 C1725 1.409 . S
C1723 H1715 0.930 . S
C1723 C1724 1.355 . S
C1723 C1725 1.415 . S
C1724 C1723 1.355 . S
C1724 C1726 1.419 . S
C1725 C1720 1.425 . S
C1725 C1722 1.409 . S
C1725 C1723 1.415 . S
C1726 H1716 0.930 . S
C1726 C1724 1.419 . S
C1726 C1727 1.362 . S
C1727 H1717 0.930 . S
C1727 C1720 1.409 . S
C1727 C1726 1.362 . S
H1728 C1734 0.930 . S
H1729 C1737 0.930 . S
H1730 C1738 0.930 . S
H1731 C1739 0.930 . S
H1732 C1742 0.930 . S
H1733 C1743 0.930 . S
C1734 H1728 0.930 . S
C1734 C1735 1.355 . S
C1734 C1736 1.415 . S
C1735 C1734 1.355 . S
C1735 C1737 1.419 . S
C1736 C1734 1.415 . S
C1736 C1741 1.425 . S
C1736 C1743 1.409 . S
C1737 H1729 0.930 . S
C1737 C1735 1.419 . S
C1737 C1738 1.362 . S
C1738 H1730 0.930 . S
C1738 C1737 1.362 . S
C1738 C1741 1.409 . S
C1739 H1731 0.930 . S
C1739 C1740 1.355 . S
C1739 C1741 1.415 . S
C1740 C1739 1.355 . S
C1740 C1742 1.419 . S
C1741 C1736 1.425 . S
C1741 C1738 1.409 . S
C1741 C1739 1.415 . S
C1742 H1732 0.930 . S
C1742 C1740 1.419 . S
C1742 C1743 1.362 . S
C1743 H1733 0.930 . S
C1743 C1736 1.409 . S
C1743 C1742 1.362 . S
H1744 C1750 0.930 . S
H1745 C1753 0.930 . S
H1746 C1754 0.930 . S
H1747 C1755 0.930 . S
H1748 C1758 0.930 . S
H1749 C1759 0.930 . S
C1750 H1744 0.930 . S
C1750 C1751 1.355 . S
C1750 C1752 1.415 . S
C1751 C1750 1.355 . S
C1751 C1753 1.419 . S
C1752 C1750 1.415 . S
C1752 C1757 1.425 . S
C1752 C1759 1.409 . S
C1753 H1745 0.930 . S
C1753 C1751 1.419 . S
C1753 C1754 1.362 . S
C1754 H1746 0.930 . S
C1754 C1753 1.362 . S
C1754 C1757 1.409 . S
C1755 H1747 0.930 . S
C1755 C1756 1.355 . S
C1755 C1757 1.415 . S
C1756 C1755 1.355 . S
C1756 C1758 1.419 . S
C1757 C1752 1.425 . S
C1757 C1754 1.409 . S
C1757 C1755 1.415 . S
C1758 H1748 0.930 . S
C1758 C1756 1.419 . S
C1758 C1759 1.362 . S
C1759 H1749 0.930 . S
C1759 C1752 1.409 . S
C1759 C1758 1.362 . S
H1760 C1766 0.930 . S
H1761 C1769 0.930 . S
H1762 C1770 0.930 . S
H1763 C1771 0.930 . S
H1764 C1774 0.930 . S
H1765 C1775 0.930 . S
C1766 H1760 0.930 . S
C1766 C1767 1.355 . S
C1766 C1768 1.415 . S
C1767 C1766 1.355 . S
C1767 C1769 1.419 . S
C1768 C1766 1.415 . S
C1768 C1773 1.425 . S
C1768 C1775 1.409 . S
C1769 H1761 0.930 . S
C1769 C1767 1.419 . S
C1769 C1770 1.362 . S
C1770 H1762 0.930 . S
C1770 C1769 1.362 . S
C1770 C1773 1.409 . S
C1771 H1763 0.930 . S
C1771 C1772 1.355 . S
C1771 C1773 1.415 . S
C1772 C1771 1.355 . S
C1772 C1774 1.419 . S
C1773 C1768 1.425 . S
C1773 C1770 1.409 . S
C1773 C1771 1.415 . S
C1774 H1764 0.930 . S
C1774 C1772 1.419 . S
C1774 C1775 1.362 . S
C1775 H1765 0.930 . S
C1775 C1768 1.409 . S
C1775 C1774 1.362 . S
H1776 C1782 0.930 . S
H1777 C1785 0.930 . S
H1778 C1786 0.930 . S
H1779 C1787 0.930 . S
H1780 C1790 0.930 . S
H1781 C1791 0.930 . S
C1782 H1776 0.930 . S
C1782 C1783 1.355 . S
C1782 C1784 1.415 . S
C1783 C1782 1.355 . S
C1783 C1785 1.419 . S
C1784 C1782 1.415 . S
C1784 C1789 1.425 1_554 S
C1784 C1791 1.409 1_554 S
C1785 H1777 0.930 . S
C1785 C1783 1.419 . S
C1785 C1786 1.362 . S
C1786 H1778 0.930 . S
C1786 C1785 1.362 . S
C1786 C1789 1.409 1_554 S
C1787 H1779 0.930 . S
C1787 C1788 1.355 . S
C1787 C1789 1.415 . S
C1788 C1787 1.355 . S
C1788 C1790 1.419 . S
C1789 C1784 1.425 1_556 S
C1789 C1786 1.409 1_556 S
C1789 C1787 1.415 . S
C1790 H1780 0.930 . S
C1790 C1788 1.419 . S
C1790 C1791 1.362 . S
C1791 H1781 0.930 . S
C1791 C1784 1.409 1_556 S
C1791 C1790 1.362 . S
H1792 C1798 0.930 . S
H1793 C1801 0.930 . S
H1794 C1802 0.930 . S
H1795 C1803 0.930 . S
H1796 C1806 0.930 . S
H1797 C1807 0.930 . S
C1798 H1792 0.930 . S
C1798 C1799 1.355 . S
C1798 C1800 1.415 . S
C1799 C1798 1.355 . S
C1799 C1801 1.419 . S
C1800 C1798 1.415 . S
C1800 C1805 1.425 1_556 S
C1800 C1807 1.409 1_556 S
C1801 H1793 0.930 . S
C1801 C1799 1.419 . S
C1801 C1802 1.362 . S
C1802 H1794 0.930 . S
C1802 C1801 1.362 . S
C1802 C1805 1.409 1_556 S
C1803 H1795 0.930 . S
C1803 C1804 1.355 . S
C1803 C1805 1.415 . S
C1804 C1803 1.355 . S
C1804 C1806 1.419 . S
C1805 C1800 1.425 1_554 S
C1805 C1802 1.409 1_554 S
C1805 C1803 1.415 . S
C1806 H1796 0.930 . S
C1806 C1804 1.419 . S
C1806 C1807 1.362 . S
C1807 H1797 0.930 . S
C1807 C1800 1.409 1_554 S
C1807 C1806 1.362 . S
H1808 C1814 0.930 . S
H1809 C1817 0.930 . S
H1810 C1818 0.930 . S
H1811 C1819 0.930 . S
H1812 C1822 0.930 . S
H1813 C1823 0.930 . S
C1814 H1808 0.930 . S
C1814 C1815 1.355 . S
C1814 C1816 1.415 . S
C1815 C1814 1.355 . S
C1815 C1817 1.419 . S
C1816 C1814 1.415 . S
C1816 C1821 1.414 1_554 S
C1816 C1823 1.409 1_554 S
C1817 H1809 0.930 . S
C1817 C1815 1.419 . S
C1817 C1818 1.362 . S
C1818 H1810 0.930 . S
C1818 C1817 1.362 . S
C1818 C1821 1.388 1_554 S
C1819 H1811 0.930 . S
C1819 C1820 1.355 . S
C1819 C1821 1.447 . S
C1820 C1819 1.355 . S
C1820 C1822 1.419 . S
C1821 C1816 1.414 1_556 S
C1821 C1818 1.388 1_556 S
C1821 C1819 1.447 . S
C1822 H1812 0.930 . S
C1822 C1820 1.419 . S
C1822 C1823 1.362 . S
C1823 H1813 0.930 . S
C1823 C1816 1.409 1_556 S
C1823 C1822 1.362 . S
H1824 C1830 0.930 . S
H1825 C1833 0.930 . S
H1826 C1834 0.930 . S
H1827 C1835 0.930 . S
H1828 C1838 0.930 . S
H1829 C1839 0.930 . S
C1830 H1824 0.930 . S
C1830 C1831 1.355 . S
C1830 C1832 1.415 . S
C1831 C1830 1.355 . S
C1831 C1833 1.419 . S
C1832 C1830 1.415 . S
C1832 C1837 1.425 1_554 S
C1832 C1839 1.409 1_554 S
C1833 H1825 0.930 . S
C1833 C1831 1.419 . S
C1833 C1834 1.362 . S
C1834 H1826 0.930 . S
C1834 C1833 1.362 . S
C1834 C1837 1.409 1_554 S
C1835 H1827 0.930 . S
C1835 C1836 1.355 . S
C1835 C1837 1.415 . S
C1836 C1835 1.355 . S
C1836 C1838 1.419 . S
C1837 C1832 1.425 1_556 S
C1837 C1834 1.409 1_556 S
C1837 C1835 1.415 . S
C1838 H1828 0.930 . S
C1838 C1836 1.419 . S
C1838 C1839 1.362 . S
C1839 H1829 0.930 . S
C1839 C1832 1.409 1_556 S
C1839 C1838 1.362 . S
H1840 C1846 0.930 . S
H1841 C1849 0.930 . S
H1842 C1850 0.930 . S
H1843 C1851 0.930 . S
H1844 C1854 0.930 . S
H1845 C1855 0.930 . S
C1846 H1840 0.930 . S
C1846 C1847 1.355 . S
C1846 C1848 1.415 . S
C1847 C1846 1.355 . S
C1847 C1849 1.419 . S
C1848 C1846 1.415 . S
C1848 C1853 1.425 1_556 S
C1848 C1855 1.409 1_556 S
C1849 H1841 0.930 . S
C1849 C1847 1.419 . S
C1849 C1850 1.362 . S
C1850 H1842 0.930 . S
C1850 C1849 1.362 . S
C1850 C1853 1.409 1_556 S
C1851 H1843 0.930 . S
C1851 C1852 1.355 . S
C1851 C1853 1.415 . S
C1852 C1851 1.355 . S
C1852 C1854 1.419 . S
C1853 C1848 1.425 1_554 S
C1853 C1850 1.409 1_554 S
C1853 C1851 1.415 . S
C1854 H1844 0.930 . S
C1854 C1852 1.419 . S
C1854 C1855 1.362 . S
C1855 H1845 0.930 . S
C1855 C1848 1.409 1_554 S
C1855 C1854 1.362 . S
H1856 C1862 0.930 . S
H1857 C1865 0.930 . S
H1858 C1866 0.930 . S
H1859 C1867 0.930 . S
H1860 C1870 0.930 . S
H1861 C1871 0.930 . S
C1862 H1856 0.930 . S
C1862 C1863 1.355 . S
C1862 C1864 1.415 . S
C1863 C1862 1.355 . S
C1863 C1865 1.419 . S
C1864 C1862 1.415 . S
C1864 C1869 1.425 1_554 S
C1864 C1871 1.409 1_554 S
C1865 H1857 0.930 . S
C1865 C1863 1.419 . S
C1865 C1866 1.362 . S
C1866 H1858 0.930 . S
C1866 C1865 1.362 . S
C1866 C1869 1.409 1_554 S
C1867 H1859 0.930 . S
C1867 C1868 1.355 . S
C1867 C1869 1.415 . S
C1868 C1867 1.355 . S
C1868 C1870 1.419 . S
C1869 C1864 1.425 1_556 S
C1869 C1866 1.409 1_556 S
C1869 C1867 1.415 . S
C1870 H1860 0.930 . S
C1870 C1868 1.419 . S
C1870 C1871 1.362 . S
C1871 H1861 0.930 . S
C1871 C1864 1.409 1_556 S
C1871 C1870 1.362 . S
H1872 C1878 0.930 . S
H1873 C1881 0.930 . S
H1874 C1882 0.930 . S
H1875 C1883 0.930 . S
H1876 C1886 0.930 . S
H1877 C1887 0.930 . S
C1878 H1872 0.930 . S
C1878 C1879 1.355 . S
C1878 C1880 1.415 . S
C1879 C1878 1.355 . S
C1879 C1881 1.419 . S
C1880 C1878 1.415 . S
C1880 C1885 1.425 1_556 S
C1880 C1887 1.409 1_556 S
C1881 H1873 0.930 . S
C1881 C1879 1.419 . S
C1881 C1882 1.362 . S
C1882 H1874 0.930 . S
C1882 C1881 1.362 . S
C1882 C1885 1.409 1_556 S
C1883 H1875 0.930 . S
C1883 C1884 1.355 . S
C1883 C1885 1.415 . S
C1884 C1883 1.355 . S
C1884 C1886 1.419 . S
C1885 C1880 1.425 1_554 S
C1885 C1882 1.409 1_554 S
C1885 C1883 1.415 . S
C1886 H1876 0.930 . S
C1886 C1884 1.419 . S
C1886 C1887 1.362 . S
C1887 H1877 0.930 . S
C1887 C1880 1.409 1_554 S
C1887 C1886 1.362 . S
H1888 C1894 0.930 . S
H1889 C1897 0.930 . S
H1890 C1898 0.930 . S
H1891 C1899 0.930 . S
H1892 C1902 0.930 . S
H1893 C1903 0.930 . S
C1894 H1888 0.930 . S
C1894 C1895 1.355 . S
C1894 C1896 1.415 . S
C1895 C1894 1.355 . S
C1895 C1897 1.419 . S
C1896 C1894 1.415 . S
C1896 C1901 1.423 1_554 S
C1896 C1903 1.409 1_554 S
C1897 H1889 0.930 . S
C1897 C1895 1.419 . S
C1897 C1898 1.362 . S
C1898 H1890 0.930 . S
C1898 C1897 1.362 . S
C1898 C1901 1.404 1_554 S
C1899 H1891 0.930 . S
C1899 C1900 1.355 . S
C1899 C1901 1.422 . S
C1900 C1899 1.355 . S
C1900 C1902 1.419 . S
C1901 C1896 1.423 1_556 S
C1901 C1898 1.404 1_556 S
C1901 C1899 1.422 . S
C1902 H1892 0.930 . S
C1902 C1900 1.419 . S
C1902 C1903 1.362 . S
C1903 H1893 0.930 . S
C1903 C1896 1.409 1_556 S
C1903 C1902 1.362 . S
H1904 C1910 0.930 . S
H1905 C1913 0.930 . S
H1906 C1914 0.930 . S
H1907 C1915 0.930 . S
H1908 C1918 0.930 . S
H1909 C1919 0.930 . S
C1910 H1904 0.930 . S
C1910 C1911 1.355 . S
C1910 C1912 1.415 . S
C1911 C1910 1.355 . S
C1911 C1913 1.419 . S
C1912 C1910 1.415 . S
C1912 C1917 1.425 1_455 S
C1912 C1919 1.409 1_455 S
C1913 H1905 0.930 . S
C1913 C1911 1.419 . S
C1913 C1914 1.362 . S
C1914 H1906 0.930 . S
C1914 C1913 1.362 . S
C1914 C1917 1.409 1_455 S
C1915 H1907 0.930 . S
C1915 C1916 1.355 . S
C1915 C1917 1.415 . S
C1916 C1915 1.355 . S
C1916 C1918 1.419 . S
C1917 C1912 1.425 1_655 S
C1917 C1914 1.409 1_655 S
C1917 C1915 1.415 . S
C1918 H1908 0.930 . S
C1918 C1916 1.419 . S
C1918 C1919 1.362 . S
C1919 H1909 0.930 . S
C1919 C1912 1.409 1_655 S
C1919 C1918 1.362 . S
H1920 C1926 0.930 . S
H1921 C1929 0.930 . S
H1922 C1930 0.930 . S
H1923 C1931 0.930 . S
H1924 C1934 0.930 . S
H1925 C1935 0.930 . S
C1926 H1920 0.930 . S
C1926 C1927 1.355 . S
C1926 C1928 1.415 . S
C1927 C1926 1.355 . S
C1927 C1929 1.419 . S
C1928 C1926 1.415 . S
C1928 C1933 1.425 1_565 S
C1928 C1935 1.409 1_565 S
C1929 H1921 0.930 . S
C1929 C1927 1.419 . S
C1929 C1930 1.362 . S
C1930 H1922 0.930 . S
C1930 C1929 1.362 . S
C1930 C1933 1.409 1_565 S
C1931 H1923 0.930 . S
C1931 C1932 1.355 . S
C1931 C1933 1.415 . S
C1932 C1931 1.355 . S
C1932 C1934 1.419 . S
C1933 C1928 1.425 1_545 S
C1933 C1930 1.409 1_545 S
C1933 C1931 1.415 . S
C1934 H1924 0.930 . S
C1934 C1932 1.419 . S
C1934 C1935 1.362 . S
C1935 H1925 0.930 . S
C1935 C1928 1.409 1_545 S
C1935 C1934 1.362 . S
H1936 C1942 0.930 . S
H1937 C1945 0.930 . S
H1938 C1946 0.930 . S
H1939 C1947 0.930 . S
H1940 C1950 0.930 . S
H1941 C1951 0.930 . S
C1942 H1936 0.930 . S
C1942 C1943 1.355 . S
C1942 C1944 1.415 . S
C1943 C1942 1.355 . S
C1943 C1945 1.419 . S
C1944 C1942 1.415 . S
C1944 C1949 1.425 1_455 S
C1944 C1951 1.409 1_455 S
C1945 H1937 0.930 . S
C1945 C1943 1.419 . S
C1945 C1946 1.362 . S
C1946 H1938 0.930 . S
C1946 C1945 1.362 . S
C1946 C1949 1.409 1_455 S
C1947 H1939 0.930 . S
C1947 C1948 1.355 . S
C1947 C1949 1.415 . S
C1948 C1947 1.355 . S
C1948 C1950 1.419 . S
C1949 C1944 1.425 1_655 S
C1949 C1946 1.409 1_655 S
C1949 C1947 1.415 . S
C1950 H1940 0.930 . S
C1950 C1948 1.419 . S
C1950 C1951 1.362 . S
C1951 H1941 0.930 . S
C1951 C1944 1.409 1_655 S
C1951 C1950 1.362 . S
H1952 C1958 0.930 . S
H1953 C1961 0.930 . S
H1954 C1962 0.930 1_545 S
H1955 C1963 0.930 . S
H1956 C1966 0.930 . S
H1957 C1967 0.930 . S
C1958 H1952 0.930 . S
C1958 C1959 1.355 . S
C1958 C1960 1.415 1_565 S
C1959 C1958 1.355 . S
C1959 C1961 1.419 . S
C1960 C1958 1.415 1_545 S
C1960 C1965 1.425 . S
C1960 C1967 1.409 . S
C1961 H1953 0.930 . S
C1961 C1959 1.419 . S
C1961 C1962 1.362 . S
C1962 H1954 0.930 1_565 S
C1962 C1961 1.362 . S
C1962 C1965 1.409 1_565 S
C1963 H1955 0.930 . S
C1963 C1964 1.355 . S
C1963 C1965 1.415 . S
C1964 C1963 1.355 . S
C1964 C1966 1.419 . S
C1965 C1960 1.425 . S
C1965 C1962 1.409 1_545 S
C1965 C1963 1.415 . S
C1966 H1956 0.930 . S
C1966 C1964 1.419 . S
C1966 C1967 1.362 . S
C1967 H1957 0.930 . S
C1967 C1960 1.409 . S
C1967 C1966 1.362 . S
H1968 C1974 0.930 . S
H1969 C1977 0.930 . S
H1970 C1978 0.930 . S
H1971 C1979 0.930 . S
H1972 C1982 0.930 . S
H1973 C1983 0.930 1_655 S
C1974 H1968 0.930 . S
C1974 C1975 1.355 . S
C1974 C1976 1.415 . S
C1975 C1974 1.355 . S
C1975 C1977 1.419 . S
C1976 C1974 1.415 . S
C1976 C1981 1.425 . S
C1976 C1983 1.409 1_655 S
C1977 H1969 0.930 . S
C1977 C1975 1.419 . S
C1977 C1978 1.362 . S
C1978 H1970 0.930 . S
C1978 C1977 1.362 . S
C1978 C1981 1.409 . S
C1979 H1971 0.930 . S
C1979 C1980 1.355 . S
C1979 C1981 1.415 1_455 S
C1980 C1979 1.355 . S
C1980 C1982 1.419 . S
C1981 C1976 1.425 . S
C1981 C1978 1.409 . S
C1981 C1979 1.415 1_655 S
C1982 H1972 0.930 . S
C1982 C1980 1.419 . S
C1982 C1983 1.362 . S
C1983 H1973 0.930 1_455 S
C1983 C1976 1.409 1_455 S
C1983 C1982 1.362 . S
H1984 C1990 0.930 . S
H1985 C1993 0.930 . S
H1986 C1994 0.930 . S
H1987 C1995 0.930 . S
H1988 C1998 0.930 . S
H1989 C1999 0.930 . S
C1990 H1984 0.930 . S
C1990 C1991 1.355 . S
C1990 C1992 1.415 . S
C1991 C1990 1.355 . S
C1991 C1993 1.419 . S
C1992 C1990 1.415 . S
C1992 C1997 1.425 1_545 S
C1992 C1999 1.409 1_545 S
C1993 H1985 0.930 . S
C1993 C1991 1.419 . S
C1993 C1994 1.362 . S
C1994 H1986 0.930 . S
C1994 C1993 1.362 . S
C1994 C1997 1.409 1_545 S
C1995 H1987 0.930 . S
C1995 C1996 1.355 . S
C1995 C1997 1.415 . S
C1996 C1995 1.355 . S
C1996 C1998 1.419 . S
C1997 C1992 1.425 1_565 S
C1997 C1994 1.409 1_565 S
C1997 C1995 1.415 . S
C1998 H1988 0.930 . S
C1998 C1996 1.419 . S
C1998 C1999 1.362 . S
C1999 H1989 0.930 . S
C1999 C1992 1.409 1_565 S
C1999 C1998 1.362 . S
H2000 C2006 0.930 . S
H2001 C2009 0.930 . S
H2002 C2010 0.914 1_655 S
H2003 C2011 0.930 . S
H2004 C2014 0.930 . S
H2005 C2015 0.930 . S
C2006 H2000 0.930 . S
C2006 C2007 1.355 . S
C2006 C2008 1.415 1_455 S
C2007 C2006 1.355 . S
C2007 C2009 1.419 . S
C2008 C2006 1.415 1_655 S
C2008 C2013 1.425 . S
C2008 C2015 1.409 . S
C2009 H2001 0.930 . S
C2009 C2007 1.419 . S
C2009 C2010 1.362 . S
C2010 H2002 0.914 1_455 S
C2010 C2009 1.362 . S
C2010 C2013 1.409 1_455 S
C2011 H2003 0.930 . S
C2011 C2012 1.355 . S
C2011 C2013 1.415 . S
C2012 C2011 1.355 . S
C2012 C2014 1.419 . S
C2013 C2008 1.425 . S
C2013 C2010 1.409 1_655 S
C2013 C2011 1.415 . S
C2014 H2004 0.930 . S
C2014 C2012 1.419 . S
C2014 C2015 1.362 . S
C2015 H2005 0.930 . S
C2015 C2008 1.409 . S
C2015 C2014 1.362 . S
H2016 C2022 0.930 . S
H2017 C2025 0.930 . S
H2018 C2026 0.930 . S
H2019 C2027 0.930 . S
H2020 C2030 0.930 . S
H2021 C2031 0.930 . S
C2022 H2016 0.930 . S
C2022 C2023 1.355 . S
C2022 C2024 1.415 . S
C2023 C2022 1.355 . S
C2023 C2025 1.419 . S
C2024 C2022 1.415 . S
C2024 C2029 1.425 1_545 S
C2024 C2031 1.409 1_545 S
C2025 H2017 0.930 . S
C2025 C2023 1.419 . S
C2025 C2026 1.362 . S
C2026 H2018 0.930 . S
C2026 C2025 1.362 . S
C2026 C2029 1.409 1_545 S
C2027 H2019 0.930 . S
C2027 C2028 1.355 . S
C2027 C2029 1.415 . S
C2028 C2027 1.355 . S
C2028 C2030 1.419 . S
C2029 C2024 1.425 1_565 S
C2029 C2026 1.409 1_565 S
C2029 C2027 1.415 . S
C2030 H2020 0.930 . S
C2030 C2028 1.419 . S
C2030 C2031 1.362 . S
C2031 H2021 0.930 . S
C2031 C2024 1.409 1_565 S
C2031 C2030 1.362 . S
H2032 C2038 0.930 . S
H2033 C2041 0.930 . S
H2034 C2042 0.930 . S
H2035 C2043 0.930 . S
H2036 C2046 0.930 . S
H2037 C2047 0.922 1_545 S
C2038 H2032 0.930 . S
C2038 C2039 1.355 . S
C2038 C2040 1.415 . S
C2039 C2038 1.355 . S
C2039 C2041 1.419 . S
C2040 C2038 1.415 . S
C2040 C2045 1.425 . S
C2040 C2047 1.409 1_545 S
C2041 H2033 0.930 . S
C2041 C2039 1.419 . S
C2041 C2042 1.362 . S
C2042 H2034 0.930 . S
C2042 C2041 1.362 . S
C2042 C2045 1.409 . S
C2043 H2035 0.930 . S
C2043 C2044 1.355 . S
C2043 C2045 1.415 1_565 S
C2044 C2043 1.355 . S
C2044 C2046 1.419 . S
C2045 C2040 1.425 . S
C2045 C2042 1.409 . S
C2045 C2043 1.415 1_545 S
C2046 H2036 0.930 . S
C2046 C2044 1.419 . S
C2046 C2047 1.362 . S
C2047 H2037 0.922 1_565 S
C2047 C2040 1.409 1_565 S
C2047 C2046 1.362 . S
H2048 C2054 0.930 . S
H2049 C2057 0.930 . S
H2050 C2058 0.930 . S
H2051 C2059 0.930 . S
H2052 C2062 0.930 . S
H2053 C2063 0.930 . S
C2054 H2048 0.930 . S
C2054 C2055 1.355 . S
C2054 C2056 1.415 . S
C2055 C2054 1.355 . S
C2055 C2057 1.419 . S
C2056 C2054 1.415 . S
C2056 C2061 1.439 . S
C2056 C2063 1.409 1_545 S
C2057 H2049 0.930 . S
C2057 C2055 1.419 . S
C2057 C2058 1.362 . S
C2058 H2050 0.930 . S
C2058 C2057 1.362 . S
C2058 C2061 1.432 . S
C2059 H2051 0.930 . S
C2059 C2060 1.355 . S
C2059 C2061 1.380 1_565 S
C2060 C2059 1.355 . S
C2060 C2062 1.419 . S
C2061 C2056 1.439 . S
C2061 C2058 1.432 . S
C2061 C2059 1.380 1_545 S
C2062 H2052 0.930 . S
C2062 C2060 1.419 . S
C2062 C2063 1.362 . S
C2063 H2053 0.930 . S
C2063 C2056 1.409 1_565 S
C2063 C2062 1.362 . S
H2064 C2070 0.930 . S
H2065 C2073 0.930 . S
H2066 C2074 0.930 . S
H2067 C2075 0.930 . S
H2068 C2078 0.930 . S
H2069 C2079 0.930 . S
C2070 H2064 0.930 . S
C2070 C2071 1.355 . S
C2070 C2072 1.422 . S
C2071 C2070 1.355 . S
C2071 C2073 1.419 . S
C2072 C2070 1.422 . S
C2072 C2077 1.423 1_655 S
C2072 C2079 1.404 1_655 S
C2073 H2065 0.930 . S
C2073 C2071 1.419 . S
C2073 C2074 1.362 . S
C2074 H2066 0.930 . S
C2074 C2073 1.362 . S
C2074 C2077 1.409 1_655 S
C2075 H2067 0.930 . S
C2075 C2076 1.355 . S
C2075 C2077 1.415 . S
C2076 C2075 1.355 . S
C2076 C2078 1.419 . S
C2077 C2072 1.423 1_455 S
C2077 C2074 1.409 1_455 S
C2077 C2075 1.415 . S
C2078 H2068 0.930 . S
C2078 C2076 1.419 . S
C2078 C2079 1.362 . S
C2079 H2069 0.930 . S
C2079 C2072 1.404 1_455 S
C2079 C2078 1.362 . S
H2080 C2086 0.930 . S
H2081 C2089 0.930 . S
H2082 C2090 0.930 . S
H2083 C2091 0.930 . S
H2084 C2094 0.930 . S
H2085 C2095 0.930 . S
C2086 H2080 0.930 . S
C2086 C2087 1.355 . S
C2086 C2088 1.388 1_545 S
C2087 C2086 1.355 . S
C2087 C2089 1.419 . S
C2088 C2086 1.388 1_565 S
C2088 C2093 1.433 . S
C2088 C2095 1.429 . S
C2089 H2081 0.930 . S
C2089 C2087 1.419 . S
C2089 C2090 1.362 . S
C2090 H2082 0.930 . S
C2090 C2089 1.362 . S
C2090 C2093 1.409 1_545 S
C2091 H2083 0.930 . S
C2091 C2092 1.355 . S
C2091 C2093 1.415 . S
C2092 C2091 1.355 . S
C2092 C2094 1.419 . S
C2093 C2088 1.433 . S
C2093 C2090 1.409 1_565 S
C2093 C2091 1.415 . S
C2094 H2084 0.930 . S
C2094 C2092 1.419 . S
C2094 C2095 1.362 . S
C2095 H2085 0.930 . S
C2095 C2088 1.429 . S
C2095 C2094 1.362 . S
H2096 C2102 0.930 . S
H2097 C2105 0.930 . S
H2098 C2106 0.930 . S
H2099 C2107 0.930 . S
H2100 C2110 0.930 . S
H2101 C2111 0.930 . S
C2102 H2096 0.930 . S
C2102 C2103 1.355 . S
C2102 C2104 1.415 1_455 S
C2103 C2102 1.355 . S
C2103 C2105 1.419 . S
C2104 C2102 1.415 1_655 S
C2104 C2109 1.425 . S
C2104 C2111 1.409 . S
C2105 H2097 0.930 . S
C2105 C2103 1.419 . S
C2105 C2106 1.362 . S
C2106 H2098 0.930 . S
C2106 C2105 1.362 . S
C2106 C2109 1.409 1_455 S
C2107 H2099 0.930 . S
C2107 C2108 1.355 . S
C2107 C2109 1.415 . S
C2108 C2107 1.355 . S
C2108 C2110 1.419 . S
C2109 C2104 1.425 . S
C2109 C2106 1.409 1_655 S
C2109 C2107 1.415 . S
C2110 H2100 0.930 . S
C2110 C2108 1.419 . S
C2110 C2111 1.362 . S
C2111 H2101 0.930 . S
C2111 C2104 1.409 . S
C2111 C2110 1.362 . S
H2112 C2118 0.930 . S
H2113 C2121 0.930 . S
H2114 C2122 0.930 . S
H2115 C2123 0.930 . S
H2116 C2126 0.930 . S
H2117 C2127 0.930 . S
C2118 H2112 0.930 . S
C2118 C2119 1.355 . S
C2118 C2120 1.420 1_545 S
C2119 C2118 1.355 . S
C2119 C2121 1.419 . S
C2120 C2118 1.420 1_565 S
C2120 C2125 1.423 . S
C2120 C2127 1.405 . S
C2121 H2113 0.930 . S
C2121 C2119 1.419 . S
C2121 C2122 1.362 . S
C2122 H2114 0.930 . S
C2122 C2121 1.362 . S
C2122 C2125 1.409 1_545 S
C2123 H2115 0.930 . S
C2123 C2124 1.355 . S
C2123 C2125 1.415 . S
C2124 C2123 1.355 . S
C2124 C2126 1.419 . S
C2125 C2120 1.423 . S
C2125 C2122 1.409 1_565 S
C2125 C2123 1.415 . S
C2126 H2116 0.930 . S
C2126 C2124 1.419 . S
C2126 C2127 1.362 . S
C2127 H2117 0.930 . S
C2127 C2120 1.405 . S
C2127 C2126 1.362 . S
H2128 C2134 0.930 . S
H2129 C2137 0.930 . S
H2130 C2138 0.930 . S
H2131 C2139 0.930 . S
H2132 C2142 0.930 . S
H2133 C2143 0.930 . S
C2134 H2128 0.930 . S
C2134 C2135 1.355 . S
C2134 C2136 1.415 . S
C2135 C2134 1.355 . S
C2135 C2137 1.419 . S
C2136 C2134 1.415 . S
C2136 C2141 1.432 . S
C2136 C2143 1.409 1_655 S
C2137 H2129 0.930 . S
C2137 C2135 1.419 . S
C2137 C2138 1.362 . S
C2138 H2130 0.930 . S
C2138 C2137 1.362 . S
C2138 C2141 1.428 . S
C2139 H2131 0.930 . S
C2139 C2140 1.355 . S
C2139 C2141 1.389 1_455 S
C2140 C2139 1.355 . S
C2140 C2142 1.419 . S
C2141 C2136 1.432 . S
C2141 C2138 1.428 . S
C2141 C2139 1.389 1_655 S
C2142 H2132 0.930 . S
C2142 C2140 1.419 . S
C2142 C2143 1.362 . S
C2143 H2133 0.930 . S
C2143 C2136 1.409 1_455 S
C2143 C2142 1.362 . S
H2144 C2150 0.930 . S
H2145 C2153 0.930 . S
H2146 C2154 0.930 . S
H2147 C2155 0.930 . S
H2148 C2158 0.930 . S
H2149 C2159 0.930 . S
C2150 H2144 0.930 . S
C2150 C2151 1.355 . S
C2150 C2152 1.415 . S
C2151 C2150 1.355 . S
C2151 C2153 1.419 . S
C2152 C2150 1.415 . S
C2152 C2157 1.425 . S
C2152 C2159 1.409 1_455 S
C2153 H2145 0.930 . S
C2153 C2151 1.419 . S
C2153 C2154 1.362 . S
C2154 H2146 0.930 . S
C2154 C2153 1.362 . S
C2154 C2157 1.409 . S
C2155 H2147 0.930 . S
C2155 C2156 1.355 . S
C2155 C2157 1.415 1_655 S
C2156 C2155 1.355 . S
C2156 C2158 1.419 . S
C2157 C2152 1.425 . S
C2157 C2154 1.409 . S
C2157 C2155 1.415 1_455 S
C2158 H2148 0.930 . S
C2158 C2156 1.419 . S
C2158 C2159 1.362 . S
C2159 H2149 0.930 . S
C2159 C2152 1.409 1_655 S
C2159 C2158 1.362 . S
C631 C517 1.382 . S
C636 C10 1.408 . S
C647 C13 1.054 . S
C652 C478 1.084 . S
C663 C36 1.255 . S
C668 C481 1.230 . S
C679 C494 1.192 . S
C684 C39 1.150 . S
C695 C429 1.123 . S
C700 C52 1.196 . S
C711 C75 1.300 . S
C716 C452 1.279 . S
C727 C78 1.122 . S
C732 C465 1.112 . S
C743 C101 1.380 . S
C748 C426 1.388 . S
C759 C104 1.359 . S
C764 C413 1.358 . S
C775 C364 1.042 . S
C780 C117 1.101 . S
C791 C387 1.291 . S
C796 C140 1.269 . S
C807 C153 1.208 . S
C812 C390 1.186 . S
C823 C166 1.126 . S
C828 C325 1.137 . S
C839 C179 1.290 . S
C844 C348 1.302 . S
C855 C351 1.079 . S
C860 C182 1.099 . S
C871 C322 1.335 . S
C876 C195 1.306 . S
C887 C208 1.259 . S
C892 C572 1.312 . S
C903 C621 1.149 . S
C908 C231 1.179 . S
C919 C585 1.191 . S
C924 C234 1.214 . S
C935 C608 1.143 . S
C940 C257 1.113 . S
C951 C520 1.282 . S
C956 C260 1.325 . S
C967 C546 1.231 . S
C972 C273 1.295 . S
C983 C296 1.171 . S
C988 C569 1.179 . S
C999 C543 1.111 . S
C1004 C309 1.133 . S
C1015 C416 1.335 . S
C1020 C270 1.364 . S
C1031 C221 1.203 . S
C1036 C439 1.210 . S
C1047 C442 1.219 . S
C1052 C244 1.247 . S
C1063 C455 1.024 . S
C1068 C247 1.087 . S
C1079 C299 1.087 . S
C1084 C468 1.018 . S
C1095 C491 1.267 . S
C1100 C283 1.302 . S
C1111 C286 1.178 . S
C1116 C504 1.203 . S
C1127 C218 1.347 . S
C1132 C507 1.347 . S
C1143 C530 1.385 . S
C1148 C205 1.409 . S
C1159 C156 1.104 . S
C1164 C611 1.166 . S
C1175 C595 1.244 . S
C1180 C169 1.217 . S
C1191 C192 1.169 . S
C1196 C598 1.140 . S
C1207 C127 1.116 . S
C1212 C533 1.102 . S
C1223 C130 1.235 . S
C1228 C556 1.258 . S
C1239 C143 1.116 . S
C1244 C559 1.182 . S
C1255 C582 1.379 . S
C1260 C114 1.395 . S
C1271 C312 1.296 . S
C1276 C91 1.280 . S
C1287 C374 1.130 . S
C1292 C23 1.108 . S
C1303 C377 1.235 . S
C1308 C26 1.273 . S
C1319 C400 1.168 . S
C1324 C49 1.181 . S
C1335 C403 1.326 . S
C1340 C0 1.281 . S
C1351 C65 1.278 . S
C1356 C338 1.334 . S
C1367 C361 1.121 . S
C1372 C88 1.153 . S
C1383 C335 1.176 . S
C1388 C62 1.162 . S
C1399 C8 1.375 . S
C1404 C346 1.366 . S
C1415 C356 1.150 . S
C1420 C18 1.214 . S
C1431 C34 1.320 . S
C1436 C320 1.396 . S
C1447 C44 1.179 . S
C1452 C330 1.246 . S
C1463 C57 1.198 . S
C1468 C395 1.242 . S
C1479 C411 1.348 . S
C1484 C73 1.393 . S
C1495 C83 1.155 . S
C1500 C369 1.231 . S
C1511 C385 1.319 . S
C1516 C99 1.403 . S
C1527 C109 1.253 . S
C1532 C476 1.281 . S
C1543 C486 1.222 . S
C1548 C122 1.184 . S
C1559 C138 1.306 . S
C1564 C499 1.245 . S
C1575 C151 1.321 . S
C1580 C515 1.386 . S
C1591 C164 1.310 . S
C1596 C424 1.321 . S
C1607 C177 1.277 . S
C1612 C434 1.224 . S
C1623 C450 1.275 . S
C1628 C187 1.205 . S
C1639 C200 1.316 . S
C1644 C463 1.244 . S
C1655 C567 1.316 . S
C1660 C213 1.254 . S
C1671 C229 1.300 . S
C1676 C590 1.255 . S
C1687 C239 1.299 . S
C1692 C606 1.216 . S
C1703 C525 1.288 . S
C1708 C255 1.329 . S
C1719 C619 1.280 . S
C1724 C265 1.239 . S
C1735 C278 1.316 . S
C1740 C541 1.244 . S
C1751 C551 1.288 . S
C1756 C294 1.224 . S
C1767 C307 1.260 . S
C1772 C577 1.273 . S
C1783 C554 1.350 . S
C1788 C268 1.363 . S
C1799 C226 1.217 . S
C1804 C564 1.196 . S
C1815 C580 1.382 . S
C1820 C242 1.308 . S
C1831 C538 1.198 . S
C1836 C252 1.171 . S
C1847 C603 1.135 . S
C1852 C304 1.236 . S
C1863 C281 1.340 . S
C1868 C528 1.383 . S
C1879 C616 1.259 . S
C1884 C291 1.178 . S
C1895 C216 1.387 . S
C1900 C593 1.305 . S
C1911 C437 1.334 . S
C1916 C203 1.389 . S
C1927 C161 1.205 . S
C1932 C447 1.279 . S
C1943 C174 1.188 . S
C1948 C460 1.234 . S
C1959 C421 1.350 . S
C1964 C190 1.295 . S
C1975 C125 1.250 . S
C1980 C512 1.311 . S
C1991 C473 1.220 . S
C1996 C135 1.174 . S
C2007 C148 1.315 . S
C2012 C489 1.271 . S
C2023 C112 1.325 . S
C2028 C502 1.388 . S
C2039 C359 1.325 . S
C2044 C96 1.314 . S
C2055 C21 1.256 . S
C2060 C382 1.289 . S
C2071 C31 1.263 . S
C2076 C398 1.223 . S
C2087 C408 1.331 . S
C2092 C47 1.243 . S
C2103 C5 1.320 . S
C2108 C372 1.306 . S
C2119 C70 1.285 . S
C2124 C333 1.341 . S
C2135 C86 1.283 . S
C2140 C343 1.347 . S
C2151 C60 1.308 . S
C2156 C317 1.253 . S
