# Generated by pormake.
# Topology whh, (6)-cn, num edge types: 1
# Building blocks:
#     Node 0, Type 0, BuildingBlock: VOLQOD_clean_sbu_1, # of connection points: 6
#     Node 1, Type 0, BuildingBlock: VOLQOD_clean_sbu_1, # of connection points: 6
#     Node 2, Type 0, BuildingBlock: VOLQOD_clean_sbu_1, # of connection points: 6
#     Node 3, Type 0, BuildingBlock: VOLQOD_clean_sbu_1, # of connection points: 6
#     Node 4, Type 0, BuildingBlock: VOLQOD_clean_sbu_1, # of connection points: 6
#     Node 5, Type 0, BuildingBlock: VOLQOD_clean_sbu_1, # of connection points: 6
#     Node 6, Type 0, BuildingBlock: VOLQOD_clean_sbu_1, # of connection points: 6
#     Node 7, Type 0, BuildingBlock: VOLQOD_clean_sbu_1, # of connection points: 6
#     Node 8, Type 0, BuildingBlock: VOLQOD_clean_sbu_1, # of connection points: 6
#     Node 9, Type 0, BuildingBlock: VOLQOD_clean_sbu_1, # of connection points: 6
#     Node 10, Type 0, BuildingBlock: VOLQOD_clean_sbu_1, # of connection points: 6
#     Node 11, Type 0, BuildingBlock: VOLQOD_clean_sbu_1, # of connection points: 6
#     Node 12, Type 0, BuildingBlock: VOLQOD_clean_sbu_1, # of connection points: 6
#     Node 13, Type 0, BuildingBlock: VOLQOD_clean_sbu_1, # of connection points: 6
#     Node 14, Type 0, BuildingBlock: VOLQOD_clean_sbu_1, # of connection points: 6
#     Node 15, Type 0, BuildingBlock: VOLQOD_clean_sbu_1, # of connection points: 6
#     Edge 16, Type (0, 0), BuildingBlock: OJICUG_clean_linker_0, # of connection points: 2
#     Edge 17, Type (0, 0), BuildingBlock: OJICUG_clean_linker_0, # of connection points: 2
#     Edge 18, Type (0, 0), BuildingBlock: OJICUG_clean_linker_0, # of connection points: 2
#     Edge 19, Type (0, 0), BuildingBlock: OJICUG_clean_linker_0, # of connection points: 2
#     Edge 20, Type (0, 0), BuildingBlock: OJICUG_clean_linker_0, # of connection points: 2
#     Edge 21, Type (0, 0), BuildingBlock: OJICUG_clean_linker_0, # of connection points: 2
#     Edge 22, Type (0, 0), BuildingBlock: OJICUG_clean_linker_0, # of connection points: 2
#     Edge 23, Type (0, 0), BuildingBlock: OJICUG_clean_linker_0, # of connection points: 2
#     Edge 24, Type (0, 0), BuildingBlock: OJICUG_clean_linker_0, # of connection points: 2
#     Edge 25, Type (0, 0), BuildingBlock: OJICUG_clean_linker_0, # of connection points: 2
#     Edge 26, Type (0, 0), BuildingBlock: OJICUG_clean_linker_0, # of connection points: 2
#     Edge 27, Type (0, 0), BuildingBlock: OJICUG_clean_linker_0, # of connection points: 2
#     Edge 28, Type (0, 0), BuildingBlock: OJICUG_clean_linker_0, # of connection points: 2
#     Edge 29, Type (0, 0), BuildingBlock: OJICUG_clean_linker_0, # of connection points: 2
#     Edge 30, Type (0, 0), BuildingBlock: OJICUG_clean_linker_0, # of connection points: 2
#     Edge 31, Type (0, 0), BuildingBlock: OJICUG_clean_linker_0, # of connection points: 2
#     Edge 32, Type (0, 0), BuildingBlock: OJICUG_clean_linker_0, # of connection points: 2
#     Edge 33, Type (0, 0), BuildingBlock: OJICUG_clean_linker_0, # of connection points: 2
#     Edge 34, Type (0, 0), BuildingBlock: OJICUG_clean_linker_0, # of connection points: 2
#     Edge 35, Type (0, 0), BuildingBlock: OJICUG_clean_linker_0, # of connection points: 2
#     Edge 36, Type (0, 0), BuildingBlock: OJICUG_clean_linker_0, # of connection points: 2
#     Edge 37, Type (0, 0), BuildingBlock: OJICUG_clean_linker_0, # of connection points: 2
#     Edge 38, Type (0, 0), BuildingBlock: OJICUG_clean_linker_0, # of connection points: 2
#     Edge 39, Type (0, 0), BuildingBlock: OJICUG_clean_linker_0, # of connection points: 2
#     Edge 40, Type (0, 0), BuildingBlock: OJICUG_clean_linker_0, # of connection points: 2
#     Edge 41, Type (0, 0), BuildingBlock: OJICUG_clean_linker_0, # of connection points: 2
#     Edge 42, Type (0, 0), BuildingBlock: OJICUG_clean_linker_0, # of connection points: 2
#     Edge 43, Type (0, 0), BuildingBlock: OJICUG_clean_linker_0, # of connection points: 2
#     Edge 44, Type (0, 0), BuildingBlock: OJICUG_clean_linker_0, # of connection points: 2
#     Edge 45, Type (0, 0), BuildingBlock: OJICUG_clean_linker_0, # of connection points: 2
#     Edge 46, Type (0, 0), BuildingBlock: OJICUG_clean_linker_0, # of connection points: 2
#     Edge 47, Type (0, 0), BuildingBlock: OJICUG_clean_linker_0, # of connection points: 2
#     Edge 48, Type (0, 0), BuildingBlock: OJICUG_clean_linker_0, # of connection points: 2
#     Edge 49, Type (0, 0), BuildingBlock: OJICUG_clean_linker_0, # of connection points: 2
#     Edge 50, Type (0, 0), BuildingBlock: OJICUG_clean_linker_0, # of connection points: 2
#     Edge 51, Type (0, 0), BuildingBlock: OJICUG_clean_linker_0, # of connection points: 2
#     Edge 52, Type (0, 0), BuildingBlock: OJICUG_clean_linker_0, # of connection points: 2
#     Edge 53, Type (0, 0), BuildingBlock: OJICUG_clean_linker_0, # of connection points: 2
#     Edge 54, Type (0, 0), BuildingBlock: OJICUG_clean_linker_0, # of connection points: 2
#     Edge 55, Type (0, 0), BuildingBlock: OJICUG_clean_linker_0, # of connection points: 2
#     Edge 56, Type (0, 0), BuildingBlock: OJICUG_clean_linker_0, # of connection points: 2
#     Edge 57, Type (0, 0), BuildingBlock: OJICUG_clean_linker_0, # of connection points: 2
#     Edge 58, Type (0, 0), BuildingBlock: OJICUG_clean_linker_0, # of connection points: 2
#     Edge 59, Type (0, 0), BuildingBlock: OJICUG_clean_linker_0, # of connection points: 2
#     Edge 60, Type (0, 0), BuildingBlock: OJICUG_clean_linker_0, # of connection points: 2
#     Edge 61, Type (0, 0), BuildingBlock: OJICUG_clean_linker_0, # of connection points: 2
#     Edge 62, Type (0, 0), BuildingBlock: OJICUG_clean_linker_0, # of connection points: 2
#     Edge 63, Type (0, 0), BuildingBlock: OJICUG_clean_linker_0, # of connection points: 2
# Relax obj value: 0.569
# Max RMSD: 0.276
# Mean RMSD: 0.276
data_MOF--net-whh--node1-VOLQOD_clean_sbu_1--edge1-OJICUG_clean_linker_0
_symmetry_space_group_name_H-M    P1
_symmetry_Int_Tables_number       1
_symmetry_cell_setting            triclinic
loop_
_symmetry_equiv_pos_as_xyz
'x, y, z'
_cell_length_a     26.619978
_cell_length_b     26.468627
_cell_length_c     35.986069
_cell_angle_alpha  89.986176
_cell_angle_beta   90.018112
_cell_angle_gamma 90.026102
loop_
_atom_site_label
_atom_site_type_symbol
_atom_site_fract_x
_atom_site_fract_y
_atom_site_fract_z
_atom_type_partial_charge
O0 O 0.07214 0.52631 0.14151 0.0
Zn1 Zn 0.07775 0.5762 0.18624 0.0
O2 O 0.01843 0.61783 0.17679 0.0
Zn3 Zn 0.96174 0.58755 0.20104 0.0
Zn4 Zn 0.00672 0.62166 0.12285 0.0
Zn5 Zn 0.02846 0.68419 0.19411 0.0
O6 O 0.9277 0.63666 0.23604 0.0
O7 O -0.01545 0.69845 0.23747 0.0
O8 O 0.06615 0.53506 0.23578 0.0
O9 O 0.98276 0.53107 0.23404 0.0
O10 O 0.91595 0.55821 0.16321 0.0
O11 O 0.94543 0.58329 0.10832 0.0
O12 O -0.00177 0.6914 0.10251 0.0
O13 O 0.14004 0.62657 0.18861 0.0
O14 O 0.01001 0.73279 0.1553 0.0
O15 O 0.10034 0.69792 0.20337 0.0
C16 C 0.06278 0.54003 0.10806 0.0
C17 C 0.94415 0.67822 0.24918 0.0
C18 C 0.91405 0.55904 0.12789 0.0
C19 C 0.02439 0.51707 0.24787 0.0
C20 C 0.00053 0.7323 0.12075 0.0
C21 C 0.14085 0.6739 0.19727 0.0
O22 O 0.06477 0.58683 0.10064 0.0
O23 O 0.93374 0.06189 0.14104 0.0
Zn24 Zn 0.88265 0.07085 0.18464 0.0
O25 O 0.83818 0.01334 0.17481 0.0
Zn26 Zn 0.8631 0.95496 0.2005 0.0
Zn27 Zn 0.8364 0.00057 0.1208 0.0
Zn28 Zn 0.77208 0.02753 0.19025 0.0
O29 O 0.81045 0.92398 0.2341 0.0
O30 O 0.7515 0.98351 0.23236 0.0
O31 O 0.92238 0.05762 0.23431 0.0
O32 O 0.91914 0.97363 0.23458 0.0
O33 O 0.89155 0.90671 0.16396 0.0
O34 O 0.87229 0.93686 0.10796 0.0
O35 O 0.7678 -0.00339 0.09828 0.0
O36 O 0.83584 0.13634 0.18661 0.0
O37 O 0.72526 0.01433 0.14949 0.0
O38 O 0.76272 0.09998 0.20059 0.0
C39 C 0.92127 0.05246 0.10737 0.0
C40 C 0.76878 0.94222 0.24521 0.0
C41 C 0.89295 0.90418 0.12867 0.0
C42 C 0.93658 0.01478 0.24739 0.0
C43 C 0.72663 0.00406 0.11508 0.0
C44 C 0.78875 0.13948 0.195 0.0
O45 O 0.87527 0.05624 0.0987 0.0
O46 O 0.39347 0.94299 0.14089 0.0
Zn47 Zn 0.38787 0.89345 0.1858 0.0
O48 O 0.447 0.85162 0.1764 0.0
Zn49 Zn 0.50392 0.88196 0.20034 0.0
Zn50 Zn 0.45838 0.84717 0.12243 0.0
Zn51 Zn 0.43685 0.78553 0.19419 0.0
O52 O 0.53785 0.83317 0.2357 0.0
O53 O 0.4808 0.7716 0.23759 0.0
O54 O 0.39988 0.93494 0.23513 0.0
O55 O 0.48325 0.93902 0.23295 0.0
O56 O 0.54977 0.91047 0.16219 0.0
O57 O 0.51987 0.88486 0.10754 0.0
O58 O 0.46629 0.77712 0.1025 0.0
O59 O 0.32542 0.84328 0.18838 0.0
O60 O 0.45509 0.73651 0.15569 0.0
O61 O 0.36499 0.77201 0.20355 0.0
C62 C 0.40274 0.92923 0.10745 0.0
C63 C 0.5213 0.79182 0.24913 0.0
C64 C 0.55153 0.9091 0.12687 0.0
C65 C 0.44175 0.9531 0.24691 0.0
C66 C 0.46418 0.73649 0.12109 0.0
C67 C 0.32453 0.79603 0.19729 0.0
O68 O 0.40068 0.88243 0.10003 0.0
O69 O 0.53106 0.40792 0.14292 0.0
Zn70 Zn 0.58219 0.39854 0.18644 0.0
O71 O 0.6268 0.45588 0.17674 0.0
Zn72 Zn 0.6019 0.51428 0.20232 0.0
Zn73 Zn 0.62877 0.46864 0.12274 0.0
Zn74 Zn 0.69277 0.44146 0.19243 0.0
O75 O 0.65474 0.54571 0.23553 0.0
O76 O 0.7135 0.48594 0.23426 0.0
O77 O 0.54266 0.41161 0.23623 0.0
O78 O 0.54622 0.49558 0.23666 0.0
O79 O 0.57299 0.56216 0.1657 0.0
O80 O 0.59323 0.53253 0.10977 0.0
O81 O 0.69745 0.472 0.10037 0.0
O82 O 0.62895 0.33303 0.18791 0.0
O83 O 0.73977 0.45405 0.15166 0.0
O84 O 0.70184 0.369 0.20309 0.0
C85 C 0.5435 0.41729 0.10924 0.0
C86 C 0.6964 0.52751 0.24675 0.0
C87 C 0.57198 0.56487 0.13042 0.0
C88 C 0.52869 0.45445 0.24943 0.0
C89 C 0.73855 0.46423 0.11723 0.0
C90 C 0.67587 0.32964 0.19676 0.0
O91 O 0.58948 0.41331 0.10054 0.0
O92 O 0.06049 0.93856 0.48877 0.0
Zn93 Zn 0.06964 0.88674 0.44546 0.0
O94 O 0.01252 0.842 0.45544 0.0
Zn95 Zn 0.9545 0.86674 0.42963 0.0
Zn96 Zn -0.00034 0.84082 0.5094 0.0
Zn97 Zn 0.02684 0.77538 0.44038 0.0
O98 O 0.92371 0.81339 0.39647 0.0
O99 O -0.01689 0.75429 0.39829 0.0
O100 O 0.05651 0.92594 0.39541 0.0
O101 O 0.97302 0.92246 0.39507 0.0
O102 O 0.90647 0.89594 0.46583 0.0
O103 O 0.93618 0.8771 0.52199 0.0
O104 O -0.00425 0.77217 0.53229 0.0
O105 O 0.13484 0.83974 0.44404 0.0
O106 O 0.01367 0.7287 0.48144 0.0
O107 O 0.09899 0.766 0.43019 0.0
C108 C 0.05119 0.92601 0.52245 0.0
C109 C 0.94196 0.77149 0.38545 0.0
C110 C 0.90381 0.89776 0.5011 0.0
C111 C 0.0139 0.93987 0.38215 0.0
C112 C 0.00332 0.73054 0.51583 0.0
C113 C 0.13817 0.79232 0.43586 0.0
O114 O 0.05534 0.87979 0.53111 0.0
O115 O 0.52578 0.07464 0.48916 0.0
Zn116 Zn 0.57511 0.08039 0.44434 0.0
O117 O 0.61667 0.02095 0.45373 0.0
Zn118 Zn 0.58636 0.96373 0.42987 0.0
Zn119 Zn 0.62129 0.0097 0.50772 0.0
Zn120 Zn 0.68231 0.03101 0.4358 0.0
O121 O 0.63494 0.92907 0.39481 0.0
O122 O 0.69616 -0.01356 0.39264 0.0
O123 O 0.53382 0.06852 0.395 0.0
O124 O 0.52983 0.98466 0.39704 0.0
O125 O 0.55762 0.91815 0.46823 0.0
O126 O 0.58395 0.94794 0.52275 0.0
O127 O 0.69109 0.00205 0.52762 0.0
O128 O 0.62512 0.14306 0.44189 0.0
O129 O 0.73121 0.01307 0.47431 0.0
O130 O 0.69573 0.10321 0.42618 0.0
C131 C 0.53923 0.0654 0.52267 0.0
C132 C 0.6761 0.94557 0.38134 0.0
C133 C 0.55932 0.91639 0.50355 0.0
C134 C 0.51579 0.02644 0.38314 0.0
C135 C 0.73141 0.00417 0.50895 0.0
C136 C 0.67201 0.1439 0.43276 0.0
O137 O 0.58573 0.06733 0.5303 0.0
O138 O 0.40518 0.53366 0.49029 0.0
Zn139 Zn 0.39614 0.58493 0.44661 0.0
O140 O 0.45334 0.62973 0.45633 0.0
Zn141 Zn 0.51132 0.60477 0.43059 0.0
Zn142 Zn 0.46639 0.63142 0.51028 0.0
Zn143 Zn 0.43902 0.69622 0.44092 0.0
O144 O 0.54194 0.65776 0.39703 0.0
O145 O 0.4826 0.71692 0.39867 0.0
O146 O 0.40926 0.54501 0.39688 0.0
O147 O 0.49275 0.54857 0.39648 0.0
O148 O 0.55953 0.57605 0.46691 0.0
O149 O 0.52984 0.59513 0.52301 0.0
O150 O 0.47056 0.7003 0.53275 0.0
O151 O 0.33095 0.63194 0.44481 0.0
O152 O 0.45238 0.74325 0.4817 0.0
O153 O 0.36685 0.70557 0.43076 0.0
C154 C 0.41464 0.54651 0.52388 0.0
C155 C 0.52368 0.69959 0.38583 0.0
C156 C 0.56224 0.57444 0.50218 0.0
C157 C 0.45187 0.53092 0.38372 0.0
C158 C 0.46293 0.74176 0.51607 0.0
C159 C 0.32765 0.6793 0.43644 0.0
O160 O 0.41067 0.59283 0.5323 0.0
O161 O 0.94023 0.39715 0.49059 0.0
Zn162 Zn 0.89097 0.39151 0.44567 0.0
O163 O 0.84949 0.45111 0.45493 0.0
Zn164 Zn 0.87985 0.50821 0.4309 0.0
Zn165 Zn 0.84495 0.46264 0.5089 0.0
Zn166 Zn 0.78378 0.44109 0.43712 0.0
O167 O 0.83126 0.54279 0.39575 0.0
O168 O 0.76986 0.48561 0.39396 0.0
O169 O 0.93246 0.40318 0.39645 0.0
O170 O 0.93632 0.48705 0.39812 0.0
O171 O 0.90873 0.5539 0.46913 0.0
O172 O 0.88259 0.52431 0.52375 0.0
O173 O 0.77522 0.47068 0.52882 0.0
O174 O 0.8409 0.32889 0.44294 0.0
O175 O 0.73494 0.45909 0.47563 0.0
O176 O 0.77031 0.36893 0.42743 0.0
C177 C 0.92667 0.40661 0.52403 0.0
C178 C 0.78997 0.52635 0.38246 0.0
C179 C 0.9072 0.55577 0.50445 0.0
C180 C 0.95046 0.44518 0.38444 0.0
C181 C 0.73484 0.46832 0.51022 0.0
C182 C 0.79401 0.32817 0.43379 0.0
O183 O 0.88013 0.40482 0.53153 0.0
O184 O 0.9048 0.43751 0.98989 0.0
Zn185 Zn 0.89566 0.38631 0.94621 0.0
O186 O 0.9528 0.3415 0.95586 0.0
Zn187 Zn 0.01079 0.36659 0.93018 0.0
Zn188 Zn 0.9658 0.33962 1.00981 0.0
Zn189 Zn 0.93841 0.27509 0.94031 0.0
O190 O 0.04148 0.31368 0.89661 0.0
O191 O 0.98205 0.25453 0.89807 0.0
O192 O 0.90872 0.42626 0.89647 0.0
O193 O -0.00778 0.42279 0.89608 0.0
O194 O 0.05893 0.39529 0.96656 0.0
O195 O 0.02933 0.37576 1.02261 0.0
O196 O 0.96977 0.27064 1.03217 0.0
O197 O 0.83045 0.33932 0.94451 0.0
O198 O 0.95167 0.22789 0.98102 0.0
O199 O 0.86624 0.26579 0.93012 0.0
C200 C 0.91425 0.42462 1.02348 0.0
C201 C 0.0232 0.27189 0.88533 0.0
C202 C 0.06167 0.39667 1.00183 0.0
C203 C 0.95133 0.4404 0.88332 0.0
C204 C 0.96214 0.22924 1.0154 0.0
C205 C 0.82708 0.29202 0.93601 0.0
O206 O 0.91022 0.3783 1.03189 0.0
O207 O 0.02532 0.89632 0.98895 0.0
Zn208 Zn 0.07481 0.89058 0.9442 0.0
O209 O 0.11637 0.95007 0.95364 0.0
Zn210 Zn 0.08622 0.00726 0.92965 0.0
Zn211 Zn 0.12069 0.9614 1.00764 0.0
Zn212 Zn 0.18212 0.94004 0.93593 0.0
O213 O 0.13501 0.04194 0.89473 0.0
O214 O 0.19624 0.98463 0.8928 0.0
O215 O 0.03366 0.90241 0.89479 0.0
O216 O 0.02988 -0.01372 0.89666 0.0
O217 O 0.05721 0.05282 0.96788 0.0
O218 O 0.08316 0.02308 1.02251 0.0
O219 O 0.19037 0.96922 1.02775 0.0
O220 O 0.12485 0.82794 0.94185 0.0
O221 O 0.23081 0.95801 0.9746 0.0
O222 O 0.19557 0.86785 0.92637 0.0
C223 C 0.0387 0.90557 1.02248 0.0
C224 C 0.17624 0.02547 0.88141 0.0
C225 C 0.05864 0.05459 1.0032 0.0
C226 C 0.01578 0.94448 0.88281 0.0
C227 C 0.2308 0.96702 1.00922 0.0
C228 C 0.1718 0.82713 0.93285 0.0
O229 O 0.08519 0.90365 1.03014 0.0
O230 O 0.56013 0.03259 0.98917 0.0
Zn231 Zn 0.56915 0.08442 0.94583 0.0
O232 O 0.512 0.12906 0.95583 0.0
Zn233 Zn 0.45399 0.10415 0.93005 0.0
Zn234 Zn 0.49921 0.13025 1.00979 0.0
Zn235 Zn 0.52623 0.1957 0.94073 0.0
O236 O 0.42325 0.15735 0.89675 0.0
O237 O 0.48255 0.2166 0.89858 0.0
O238 O 0.55603 0.04521 0.89582 0.0
O239 O 0.47252 0.04832 0.89562 0.0
O240 O 0.40591 0.07508 0.96631 0.0
O241 O 0.43574 0.09393 1.02243 0.0
O242 O 0.49526 0.1989 1.03265 0.0
O243 O 0.63431 0.13149 0.9443 0.0
O244 O 0.51296 0.2424 0.98175 0.0
O245 O 0.59838 0.2052 0.93056 0.0
C246 C 0.55083 0.04515 1.02284 0.0
C247 C 0.44147 0.19927 0.8857 0.0
C248 C 0.40329 0.0733 1.00157 0.0
C249 C 0.51343 0.03108 0.88264 0.0
C250 C 0.50268 0.24053 1.01615 0.0
C251 C 0.63759 0.17892 0.93613 0.0
O252 O 0.55496 0.09138 1.03146 0.0
O253 O 0.43979 0.57379 0.99082 0.0
Zn254 Zn 0.3906 0.57947 0.94585 0.0
O255 O 0.34902 0.5199 0.95513 0.0
Zn256 Zn 0.37925 0.46274 0.93114 0.0
Zn257 Zn 0.34441 0.50837 1.00911 0.0
Zn258 Zn 0.28335 0.52998 0.93727 0.0
O259 O 0.33061 0.4282 0.89599 0.0
O260 O 0.26936 0.48548 0.89413 0.0
O261 O 0.43219 0.56769 0.89667 0.0
O262 O 0.43581 0.48381 0.89839 0.0
O263 O 0.408 0.41702 0.96941 0.0
O264 O 0.38195 0.44669 1.02402 0.0
O265 O 0.27464 0.50037 1.029 0.0
O266 O 0.34061 0.64215 0.94307 0.0
O267 O 0.23447 0.51201 0.97577 0.0
O268 O 0.26998 0.60213 0.92755 0.0
C269 C 0.42623 0.56434 1.02427 0.0
C270 C 0.28938 0.4447 0.88266 0.0
C271 C 0.40647 0.41518 1.00473 0.0
C272 C 0.45009 0.52565 0.8847 0.0
C273 C 0.23429 0.50276 1.01035 0.0
C274 C 0.29372 0.64289 0.93391 0.0
O275 O 0.3797 0.56612 1.03178 0.0
O276 O 0.89374 0.02804 0.64045 0.0
Zn277 Zn 0.8881 0.07757 0.68538 0.0
O278 O 0.94726 0.11946 0.67598 0.0
Zn279 Zn 0.00418 0.08927 0.70002 0.0
Zn280 Zn 0.95875 0.12385 0.62202 0.0
Zn281 Zn 0.93707 0.18557 0.69367 0.0
O282 O 0.03803 0.13817 0.73536 0.0
O283 O 0.98096 0.19968 0.73707 0.0
O284 O 0.90012 0.03601 0.7347 0.0
O285 O -0.01649 0.03221 0.73266 0.0
O286 O 0.05011 0.06076 0.66194 0.0
O287 O 0.02023 0.08611 0.60722 0.0
O288 O 0.96678 0.19387 0.60201 0.0
O289 O 0.82562 0.12769 0.68803 0.0
O290 O 0.9553 0.23454 0.65512 0.0
O291 O 0.86523 0.19901 0.70305 0.0
C292 C 0.90307 0.04181 0.60701 0.0
C293 C 0.02144 0.17954 0.7487 0.0
C294 C 0.05189 0.062 0.62662 0.0
C295 C 0.942 0.01797 0.74655 0.0
C296 C 0.96453 0.23453 0.62054 0.0
C297 C 0.82475 0.17496 0.69689 0.0
O298 O 0.90104 0.08861 0.59958 0.0
O299 O 0.43405 0.90922 0.64136 0.0
Zn300 Zn 0.38285 0.90025 0.68488 0.0
O301 O 0.33845 0.95774 0.67499 0.0
Zn302 Zn 0.36345 0.01611 0.70065 0.0
Zn303 Zn 0.33674 0.97044 0.62098 0.0
Zn304 Zn 0.27233 0.94357 0.69041 0.0
O305 O 0.31082 0.04712 0.73422 0.0
O306 O 0.25181 -0.01242 0.73252 0.0
O307 O 0.42241 0.91343 0.73462 0.0
O308 O 0.41941 -0.00258 0.73479 0.0
O309 O 0.39198 0.06433 0.66409 0.0
O310 O 0.37264 0.03417 0.60811 0.0
O311 O 0.26817 0.97434 0.59841 0.0
O312 O 0.33601 0.83478 0.68678 0.0
O313 O 0.22553 0.95681 0.64963 0.0
O314 O 0.2629 0.87111 0.70074 0.0
C315 C 0.42163 0.91861 0.60767 0.0
C316 C 0.26914 0.02887 0.74534 0.0
C317 C 0.39336 0.06685 0.6288 0.0
C318 C 0.43669 0.95625 0.74768 0.0
C319 C 0.22696 0.967 0.6152 0.0
C320 C 0.28892 0.83162 0.69515 0.0
O321 O 0.37564 0.91477 0.59897 0.0
O322 O 0.5724 0.44474 0.64195 0.0
Zn323 Zn 0.57799 0.39473 0.68663 0.0
O324 O 0.51869 0.35306 0.6771 0.0
Zn325 Zn 0.46196 0.38319 0.70133 0.0
Zn326 Zn 0.50705 0.34938 0.62314 0.0
Zn327 Zn 0.52871 0.28666 0.69435 0.0
O328 O 0.42785 0.33393 0.73621 0.0
O329 O 0.48472 0.27221 0.73765 0.0
O330 O 0.5663 0.43576 0.73622 0.0
O331 O 0.48291 0.43959 0.73444 0.0
O332 O 0.41623 0.41263 0.66352 0.0
O333 O 0.44578 0.38775 0.60861 0.0
O334 O 0.4986 0.2797 0.60271 0.0
O335 O 0.64027 0.34437 0.68891 0.0
O336 O 0.51032 0.23817 0.65545 0.0
O337 O 0.60059 0.27295 0.70361 0.0
C338 C 0.56311 0.4311 0.60847 0.0
C339 C 0.44427 0.29236 0.74933 0.0
C340 C 0.41437 0.41191 0.62819 0.0
C341 C 0.5245 0.45364 0.7483 0.0
C342 C 0.5009 0.23875 0.62089 0.0
C343 C 0.64109 0.29701 0.69751 0.0
O344 O 0.56512 0.38432 0.601 0.0
O345 O 0.03136 0.56319 0.64259 0.0
Zn346 Zn 0.08231 0.57255 0.6862 0.0
O347 O 0.1269 0.5152 0.67663 0.0
Zn348 Zn 0.10179 0.45681 0.70216 0.0
Zn349 Zn 0.12911 0.50245 0.62263 0.0
Zn350 Zn 0.19279 0.52962 0.69249 0.0
O351 O 0.15444 0.42538 0.73554 0.0
O352 O 0.21327 0.48514 0.73439 0.0
O353 O 0.04257 0.55951 0.73591 0.0
O354 O 0.04596 0.47554 0.73633 0.0
O355 O 0.07304 0.40893 0.66548 0.0
O356 O 0.09364 0.43854 0.60959 0.0
O357 O 0.19791 0.49913 0.60045 0.0
O358 O 0.12909 0.63804 0.68774 0.0
O359 O 0.23999 0.51702 0.65186 0.0
O360 O 0.20187 0.60209 0.70314 0.0
C361 C 0.0439 0.55379 0.60894 0.0
C362 C 0.19606 0.44359 0.74685 0.0
C363 C 0.07224 0.4062 0.63019 0.0
C364 C 0.02846 0.51668 0.74907 0.0
C365 C 0.23892 0.50686 0.61742 0.0
C366 C 0.17597 0.64143 0.69671 0.0
O367 O 0.08991 0.55774 0.60032 0.0
C368 C 0.82871 0.45084 0.11374 0.0
C369 C 0.78658 0.47653 0.1 0.0
H370 H 0.90236 0.45951 0.13606 0.0
C371 C 0.79252 0.52457 0.084 0.0
H372 H 0.82491 0.41342 0.12567 0.0
C373 C 0.83776 0.55055 0.08891 0.0
C374 C 0.87613 0.52816 0.10984 0.0
H375 H 0.76041 0.54489 0.0731 0.0
H376 H 0.84023 0.58986 0.08071 0.0
C377 C 0.8728 0.47728 0.11999 0.0
C378 C 0.93507 0.78159 0.08878 0.0
C379 C -0.01674 0.77972 0.10466 0.0
H380 H 0.86701 0.82481 0.08427 0.0
C381 C 0.00543 0.82405 0.11818 0.0
H382 H 0.91735 0.74756 0.07836 0.0
C383 C 0.97628 0.86687 0.12293 0.0
C384 C 0.92575 0.86647 0.11231 0.0
H385 H 0.04269 0.82328 0.13034 0.0
H386 H -0.0082 0.89853 0.13821 0.0
C387 C 0.90611 0.82533 0.09263 0.0
C388 C 0.59262 -0.00925 0.11803 0.0
C389 C 0.58942 0.93966 0.10849 0.0
H390 H 0.64021 0.05494 0.12276 0.0
C391 C 0.62779 0.91694 0.08778 0.0
H392 H 0.56311 0.00872 0.13401 0.0
C393 C 0.6729 0.94298 0.08246 0.0
C394 C 0.6787 -0.00859 0.09783 0.0
H395 H 0.62541 0.87744 0.08008 0.0
H396 H 0.70506 0.92252 0.07181 0.0
C397 C 0.63653 0.01725 0.11127 0.0
C398 C 0.4593 0.64475 0.11947 0.0
C399 C 0.48129 0.68882 0.10533 0.0
H400 H 0.47321 0.57078 0.14041 0.0
C401 C 0.52936 0.68666 0.08929 0.0
H402 H 0.42211 0.64572 0.13172 0.0
C403 C 0.55843 0.64306 0.09359 0.0
C404 C 0.53903 0.60238 0.11391 0.0
H405 H 0.54695 0.72047 0.07837 0.0
H406 H 0.59744 0.64342 0.08503 0.0
C407 C 0.48859 0.60213 0.12472 0.0
C408 C 0.82565 0.91095 0.5375 0.0
C409 C 0.86599 0.93069 0.51718 0.0
H410 H 0.7484 0.9216 0.55227 0.0
C411 C 0.86552 0.98119 0.50577 0.0
H412 H 0.82583 0.87188 0.54648 0.0
C413 C 0.82263 0.01007 0.51048 0.0
C414 C 0.77906 -0.0124 0.52475 0.0
H415 H 0.89658 -0.00317 0.49006 0.0
H416 H 0.82121 0.04722 0.49782 0.0
C417 C 0.78181 0.93959 0.54128 0.0
C418 C 0.47764 0.87627 0.5128 0.0
C419 C 0.52856 0.8788 0.52213 0.0
H420 H 0.41316 0.82924 0.50844 0.0
C421 C 0.55075 0.84009 0.54296 0.0
H422 H 0.46007 0.90611 0.4968 0.0
C423 C 0.52428 0.79513 0.54855 0.0
C424 C 0.476 0.78983 0.53328 0.0
H425 H 0.5901 0.842 0.55055 0.0
H426 H 0.54427 0.76259 0.55928 0.0
C427 C 0.45075 0.83251 0.51981 0.0
C428 C 0.64054 0.56161 0.53852 0.0
C429 C 0.60015 0.54167 0.51835 0.0
H430 H 0.71787 0.55119 0.55321 0.0
C431 C 0.60069 0.4911 0.50712 0.0
H432 H 0.64033 0.60074 0.54735 0.0
C433 C 0.64363 0.46233 0.51188 0.0
C434 C 0.68721 0.48495 0.526 0.0
H435 H 0.5696 0.47532 0.4915 0.0
H436 H 0.64506 0.4251 0.49936 0.0
C437 C 0.68445 0.53307 0.54234 0.0
C438 C 0.01571 0.63987 0.52016 0.0
C439 C -0.00959 0.68265 0.53339 0.0
H440 H 0.00648 0.56598 0.49767 0.0
C441 C 0.9422 0.67742 0.54876 0.0
H442 H 0.05326 0.64312 0.50874 0.0
C443 C 0.91579 0.63235 0.5435 0.0
C444 C 0.938 0.59345 0.52288 0.0
H445 H 0.92219 0.71005 0.55931 0.0
H446 H 0.87647 0.63047 0.55112 0.0
C447 C -0.01111 0.59596 0.51351 0.0
C448 C 0.10018 0.48 1.00694 0.0
C449 C 0.09957 0.42939 1.0181 0.0
H450 H 0.14459 0.54606 0.99941 0.0
C451 C 0.13985 0.40942 1.03837 0.0
H452 H 0.06918 0.49581 0.99125 0.0
C453 C 0.18375 0.43797 1.04234 0.0
C454 C 0.1866 0.48615 1.02606 0.0
H455 H 0.13958 0.37027 1.04716 0.0
H456 H 0.21712 0.41985 1.05327 0.0
C457 C 0.14309 0.50879 1.01188 0.0
C458 C 0.95 0.13845 1.01892 0.0
C459 C 0.97515 0.18111 1.03255 0.0
H460 H 0.95943 0.06484 0.99599 0.0
C461 C 0.0233 0.1758 1.04804 0.0
H462 H 0.9125 0.14175 1.0074 0.0
C463 C 0.04978 0.13085 1.04258 0.0
C464 C 0.02774 0.09215 1.02163 0.0
H465 H 0.04319 0.20833 1.05889 0.0
H466 H 0.08906 0.12894 1.05036 0.0
C467 C 0.97691 0.09468 1.01206 0.0
C468 C 0.32199 0.96105 1.01111 0.0
C469 C 0.27837 0.98361 1.02515 0.0
H470 H 0.39606 0.97416 0.99086 0.0
C471 C 0.28108 0.0317 1.04155 0.0
H472 H 0.32058 0.92384 0.99856 0.0
C473 C 0.32498 0.0603 1.03783 0.0
C474 C 0.36542 0.04044 1.01771 0.0
H475 H 0.24761 0.04974 1.05237 0.0
H476 H 0.32514 0.09942 1.04668 0.0
C477 C 0.36494 -0.01012 1.00646 0.0
C478 C 0.44147 0.29351 1.04902 0.0
C479 C 0.48972 0.28839 1.03369 0.0
H480 H 0.3757 0.34033 1.05134 0.0
C481 C 0.51501 0.33124 1.02051 0.0
H482 H 0.42148 0.26083 1.05953 0.0
C483 C 0.48816 0.37511 1.01385 0.0
C484 C 0.43725 0.37752 1.02319 0.0
H485 H 0.55257 0.32807 1.0091 0.0
H486 H 0.50575 0.40514 0.99804 0.0
C487 C 0.41504 0.33854 1.04375 0.0
C488 C 0.12825 0.05411 0.58767 0.0
C489 C 0.0898 0.03141 0.60833 0.0
H490 H 0.20557 0.04852 0.57184 0.0
C491 C 0.09292 0.98034 0.61793 0.0
H492 H 0.12593 0.0936 0.57991 0.0
C493 C 0.13685 0.95384 0.61131 0.0
C494 C 0.17908 0.97967 0.5979 0.0
H495 H 0.06334 0.96238 0.63387 0.0
H496 H 0.14048 0.91617 0.62286 0.0
C497 C 0.17336 0.02806 0.58246 0.0
C498 C 0.43546 0.18948 0.58888 0.0
C499 C 0.48367 0.19136 0.60473 0.0
H500 H 0.36738 0.14621 0.58441 0.0
C501 C 0.50585 0.14702 0.6182 0.0
H502 H 0.41772 0.22351 0.57849 0.0
C503 C 0.4767 0.10418 0.62297 0.0
C504 C 0.42615 0.10457 0.61239 0.0
H505 H 0.54313 0.14781 0.63034 0.0
H506 H 0.49223 0.07251 0.63823 0.0
C507 C 0.40649 0.14571 0.59274 0.0
C508 C 0.29295 0.44658 0.58426 0.0
C509 C 0.28703 0.49456 0.60033 0.0
H510 H 0.34059 0.38129 0.58089 0.0
C511 C 0.32915 0.52017 0.61418 0.0
H512 H 0.26083 0.42632 0.57327 0.0
C513 C 0.3732 0.49369 0.62043 0.0
C514 C 0.3765 0.44286 0.61017 0.0
H515 H 0.32538 0.55755 0.62618 0.0
H516 H 0.40275 0.51138 0.63657 0.0
C517 C 0.33814 0.42057 0.58916 0.0
C518 C 0.05886 0.32805 0.59328 0.0
C519 C 0.03938 0.36867 0.6136 0.0
H520 H 0.04747 0.25067 0.57798 0.0
C521 C -0.01112 0.36885 0.62427 0.0
H522 H 0.09791 0.32777 0.58482 0.0
C523 C 0.9596 0.32625 0.61887 0.0
C524 C 0.98166 0.28222 0.60477 0.0
H525 H 0.97344 0.40016 0.63996 0.0
H526 H 0.92235 0.32524 0.63103 0.0
C527 C 0.02981 0.28445 0.58886 0.0
C528 C 0.91525 0.75207 0.28538 0.0
C529 C 0.92187 0.69959 0.28286 0.0
H530 H 0.91392 0.81644 0.32132 0.0
C531 C 0.92123 0.6702 0.31528 0.0
H532 H 0.91597 0.7753 0.26058 0.0
C533 C 0.92173 0.69377 0.34998 0.0
C534 C 0.92122 0.74672 0.35239 0.0
H535 H 0.92677 0.62967 0.31387 0.0
H536 H 0.92737 0.67096 0.37465 0.0
C537 C 0.91402 0.77552 0.32009 0.0
C538 C 0.74952 0.91602 0.34535 0.0
C539 C 0.69733 0.92264 0.34783 0.0
H540 H 0.81355 0.91449 0.30944 0.0
C541 C 0.66812 0.92157 0.31541 0.0
H542 H 0.77261 0.91707 0.37015 0.0
C543 C 0.69158 0.92175 0.28071 0.0
C544 C 0.74424 0.92136 0.27832 0.0
H545 H 0.62782 0.92712 0.31678 0.0
H546 H 0.6689 0.92714 0.25601 0.0
C547 C 0.77287 0.91448 0.31065 0.0
C548 C 0.55025 0.71825 0.28566 0.0
C549 C 0.54363 0.77071 0.2829 0.0
H550 H 0.55161 0.65416 0.32188 0.0
C551 C 0.54428 0.80035 0.31519 0.0
H552 H 0.5495 0.69484 0.26096 0.0
C553 C 0.54381 0.77703 0.34999 0.0
C554 C 0.54433 0.7241 0.35264 0.0
H555 H 0.53872 0.84086 0.31359 0.0
H556 H 0.5382 0.80003 0.37456 0.0
C557 C 0.5515 0.69506 0.32047 0.0
C558 C 0.7739 0.5485 0.28174 0.0
C559 C 0.72123 0.54896 0.27953 0.0
H560 H 0.83792 0.54367 0.31762 0.0
C561 C 0.69286 0.55665 0.31188 0.0
H562 H 0.79638 0.54251 0.25702 0.0
C563 C 0.71647 0.5558 0.34651 0.0
C564 C 0.76866 0.54902 0.34887 0.0
H565 H 0.65217 0.55674 0.3108 0.0
H566 H 0.69355 0.5553 0.37139 0.0
C567 C 0.79763 0.54935 0.31634 0.0
C568 C 0.04421 0.17113 0.8148 0.0
C569 C 0.04364 0.20074 0.78249 0.0
H570 H 0.03789 0.17148 0.87415 0.0
C571 C 0.05015 0.25322 0.78521 0.0
H572 H 0.03873 0.13061 0.81322 0.0
C573 C 0.05122 0.27645 0.82002 0.0
C574 C 0.04399 0.24741 0.85219 0.0
H575 H 0.04946 0.27662 0.7605 0.0
H576 H 0.05126 0.31735 0.8214 0.0
C577 C 0.04356 0.19447 0.84958 0.0
C578 C 0.27325 0.05642 0.81081 0.0
C579 C 0.24463 0.04973 0.77845 0.0
H580 H 0.27292 0.05367 0.8703 0.0
C581 C 0.19197 0.04948 0.78081 0.0
H582 H 0.31394 0.0563 0.80961 0.0
C583 C 0.16847 0.04963 0.81549 0.0
C584 C 0.19764 0.04839 0.84793 0.0
H585 H 0.1693 0.04422 0.75609 0.0
H586 H 0.12814 0.04421 0.81682 0.0
C587 C 0.24986 0.05486 0.84549 0.0
C588 C 0.41404 0.19499 0.82025 0.0
C589 C 0.42084 0.22388 0.85254 0.0
H590 H 0.41649 0.19511 0.76075 0.0
C591 C 0.42116 0.27683 0.85006 0.0
H592 H 0.4141 0.15408 0.82154 0.0
C593 C 0.42085 0.30034 0.81533 0.0
C594 C 0.42189 0.27089 0.78295 0.0
H595 H 0.4265 0.2997 0.87473 0.0
H596 H 0.42624 0.34089 0.8139 0.0
C597 C 0.41546 0.21838 0.78551 0.0
C598 C 0.27341 0.42244 0.78195 0.0
C599 C 0.22074 0.42211 0.77969 0.0
H600 H 0.33738 0.42715 0.81789 0.0
C601 C 0.19228 0.41457 0.81201 0.0
H602 H 0.29596 0.42832 0.75725 0.0
C603 C 0.21583 0.41541 0.84667 0.0
C604 C 0.26804 0.42204 0.84908 0.0
H605 H 0.15159 0.41458 0.81089 0.0
H606 H 0.19287 0.41602 0.87153 0.0
C607 C 0.29707 0.42158 0.81658 0.0
C608 C 0.23595 0.68197 0.19789 0.0
C609 C 0.18833 0.70448 0.19789 0.0
H610 H 0.3155 0.69284 0.1981 0.0
C611 C 0.18581 0.758 0.19783 0.0
H612 H 0.2396 0.64122 0.19782 0.0
C613 C 0.22941 0.78799 0.19759 0.0
C614 C 0.27702 0.76548 0.19793 0.0
H615 H 0.14985 0.77711 0.1975 0.0
H616 H 0.22575 0.82874 0.19726 0.0
C617 C 0.27954 0.71196 0.19817 0.0
C618 C 0.78515 0.23542 0.19716 0.0
C619 C 0.76064 0.18863 0.19593 0.0
H620 H 0.77797 0.31577 0.19884 0.0
C621 C 0.70734 0.18854 0.19516 0.0
H622 H 0.82579 0.23725 0.19769 0.0
C623 C 0.67951 0.23367 0.19545 0.0
C624 C 0.704 0.28046 0.19704 0.0
H625 H 0.68671 0.15331 0.19386 0.0
H626 H 0.63888 0.23184 0.19452 0.0
C627 C 0.7573 0.28054 0.19796 0.0
C628 C 0.23218 0.68268 0.43576 0.0
C629 C 0.27868 0.70746 0.4357 0.0
H630 H 0.15222 0.68966 0.43548 0.0
C631 C 0.27861 0.76108 0.43557 0.0
H632 H 0.23046 0.6418 0.43598 0.0
C633 C 0.23365 0.78894 0.43566 0.0
C634 C 0.18715 0.76416 0.43538 0.0
H635 H 0.31361 0.78196 0.43585 0.0
H636 H 0.23537 0.82982 0.43583 0.0
C637 C 0.18722 0.71054 0.43535 0.0
C638 C 0.71028 0.28324 0.4329 0.0
C639 C 0.76349 0.28052 0.43294 0.0
H640 H 0.63981 0.24332 0.43315 0.0
C641 C 0.78572 0.23257 0.43277 0.0
H642 H 0.6914 0.31948 0.43337 0.0
C643 C 0.75575 0.18884 0.43221 0.0
C644 C 0.70254 0.19156 0.43235 0.0
H645 H 0.82623 0.22876 0.43291 0.0
H646 H 0.77463 0.1526 0.43216 0.0
C647 C 0.68031 0.23951 0.43288 0.0
C648 C 0.68664 0.26072 0.93571 0.0
C649 C 0.68656 0.20711 0.93551 0.0
H650 H 0.72991 0.32948 0.93632 0.0
C651 C 0.73304 0.18234 0.93536 0.0
H652 H 0.65165 0.28158 0.93616 0.0
C653 C 0.77801 0.21023 0.93506 0.0
C654 C 0.77809 0.26384 0.93541 0.0
H655 H 0.73474 0.14146 0.93533 0.0
H656 H 0.813 0.18936 0.93501 0.0
C657 C 0.73162 0.2886 0.9359 0.0
C658 C 0.28548 0.73851 0.93299 0.0
C659 C 0.26323 0.69054 0.93304 0.0
H660 H 0.27443 0.81847 0.93247 0.0
C661 C 0.21002 0.6878 0.93289 0.0
H662 H 0.32599 0.74233 0.93322 0.0
C663 C 0.18006 0.73152 0.93287 0.0
C664 C 0.20231 0.77948 0.93246 0.0
H665 H 0.19111 0.65156 0.93327 0.0
H666 H 0.13956 0.72769 0.93305 0.0
C667 C 0.25553 0.78223 0.93243 0.0
C668 C 0.77978 0.25899 0.69786 0.0
C669 C 0.77724 0.20547 0.69767 0.0
H670 H 0.73987 0.32972 0.69764 0.0
C671 C 0.72961 0.18294 0.69756 0.0
H672 H 0.81574 0.27813 0.69761 0.0
C673 C 0.68603 0.21291 0.69799 0.0
C674 C 0.68857 0.26644 0.698 0.0
H675 H 0.72594 0.14219 0.69729 0.0
H676 H 0.65005 0.19379 0.69783 0.0
C677 C 0.7362 0.28897 0.69777 0.0
C678 C 0.28527 0.73569 0.69727 0.0
C679 C 0.26078 0.78247 0.69603 0.0
H680 H 0.27805 0.65534 0.69893 0.0
C681 C 0.20749 0.78254 0.69518 0.0
H682 H 0.32591 0.73389 0.69786 0.0
C683 C 0.17964 0.73739 0.69543 0.0
C684 C 0.20411 0.69062 0.69703 0.0
H685 H 0.18688 0.81776 0.69387 0.0
H686 H 0.13902 0.7392 0.69445 0.0
C687 C 0.25741 0.69056 0.69802 0.0
C688 C 0.96865 0.50227 1.03279 0.0
C689 C 0.95058 0.4556 1.04579 0.0
H690 H 0.01898 0.56434 1.04127 0.0
C691 C 0.97201 0.43571 0.07861 0.0
H692 H 0.95389 0.51861 1.00746 0.0
C693 C 0.00995 0.46165 0.09787 0.0
C694 C 0.02777 0.50849 0.08505 0.0
H695 H 0.95968 0.39961 0.08945 0.0
H696 H 0.02456 0.44533 0.12327 0.0
C697 C 0.00666 0.5282 1.05205 0.0
C698 C 0.02611 0.96183 0.07852 0.0
C699 C 0.0068 0.94016 1.04558 0.0
H700 H 0.01564 0.01465 0.12313 0.0
C701 C 0.95975 0.95699 1.03292 0.0
H702 H 0.06237 0.95027 0.08919 0.0
C703 C 0.93323 -0.00548 1.05226 0.0
C704 C 0.95269 0.01652 0.08502 0.0
H705 H 0.9437 0.94192 1.00759 0.0
H706 H 0.89701 0.0061 1.04152 0.0
C707 C -0.00043 -0.00058 0.09786 0.0
C708 C 0.49668 0.96728 1.03211 0.0
C709 C 0.51457 0.01402 1.04509 0.0
H710 H 0.44663 0.90497 1.04065 0.0
C711 C 0.49309 0.03381 0.07791 0.0
H712 H 0.51149 0.951 1.00679 0.0
C713 C 0.45528 0.00774 0.09717 0.0
C714 C 0.43764 0.96082 0.08439 0.0
H715 H 0.5053 0.06995 0.08875 0.0
H716 H 0.44062 0.02403 0.12255 0.0
C717 C 0.45881 0.94117 1.0514 0.0
C718 C 0.46516 0.47022 0.0996 0.0
C719 C 0.51213 0.45326 0.08686 0.0
H720 H 0.40231 0.5193 0.09083 0.0
C721 C 0.53169 0.4754 1.05419 0.0
H722 H 0.44901 0.45487 0.1248 0.0
C723 C 0.50519 0.51296 1.03483 0.0
C724 C 0.45806 0.52967 1.0474 0.0
H725 H 0.56797 0.46392 1.04352 0.0
H726 H 0.52133 0.52816 1.00958 0.0
C727 C 0.43864 0.50784 0.08024 0.0
C728 C 0.95913 0.02989 0.55097 0.0
C729 C 0.93798 0.01024 0.58397 0.0
H730 H 0.0118 0.02011 0.50635 0.0
C731 C 0.95565 0.96336 0.59679 0.0
H732 H 0.94692 0.06607 0.54019 0.0
C733 C -0.00652 0.93733 0.57754 0.0
C734 C 0.01494 0.95712 0.5447 0.0
H735 H 0.94101 0.94707 0.62219 0.0
H736 H 0.0057 0.90121 0.58841 0.0
C737 C -0.00299 0.00383 0.53169 0.0
C738 C 0.43362 0.97659 0.55258 0.0
C739 C 0.4531 0.95453 0.58531 0.0
H740 H 0.44412 0.02921 0.5079 0.0
C741 C 0.50005 0.97154 0.5981 0.0
H742 H 0.39736 0.96508 0.54186 0.0
C743 C 0.52665 0.0091 0.57872 0.0
C744 C 0.50732 0.03083 0.54582 0.0
H745 H 0.51613 0.95625 0.62335 0.0
H746 H 0.56297 0.02058 0.58935 0.0
C747 C 0.4602 0.01409 0.53321 0.0
C748 C 0.5071 0.44301 0.55241 0.0
C749 C 0.52813 0.46266 0.58546 0.0
H750 H 0.4544 0.45264 0.50778 0.0
C751 C 0.51026 0.50944 0.59832 0.0
H752 H 0.51947 0.40693 0.5416 0.0
C753 C 0.47233 0.53536 0.57905 0.0
C754 C 0.45097 0.51553 0.54618 0.0
H755 H 0.52481 0.52571 0.62374 0.0
H756 H 0.45995 0.57141 0.58992 0.0
C757 C 0.4691 0.46893 0.53315 0.0
C758 C 0.96556 0.50083 0.59927 0.0
C759 C 0.01255 0.5178 0.58655 0.0
H760 H 0.9027 0.45172 0.59051 0.0
C761 C 0.03215 0.49563 0.55392 0.0
H762 H 0.94938 0.5162 0.62445 0.0
C763 C 0.00565 0.45804 0.53458 0.0
C764 C 0.95849 0.44132 0.54713 0.0
H765 H 0.06845 0.50711 0.54327 0.0
H766 H 0.02181 0.44282 0.50935 0.0
C767 C 0.93904 0.46318 0.57994 0.0
C768 C 0.96697 0.42706 0.3171 0.0
C769 C -0.01717 0.44866 0.35073 0.0
H770 H 0.96859 0.43184 0.25755 0.0
C771 C 0.0217 0.48492 0.34963 0.0
H772 H 0.93651 0.39991 0.31686 0.0
C773 C 0.04089 0.50261 0.31562 0.0
C774 C 0.0208 0.48521 0.28192 0.0
H775 H 0.03427 0.50278 0.37508 0.0
H776 H 0.06731 0.53375 0.3158 0.0
C777 C -0.01464 0.44554 0.28307 0.0
C778 C 0.97371 0.01175 0.34829 0.0
C779 C 0.00917 0.97215 0.34847 0.0
H780 H 0.92419 0.05824 0.31569 0.0
C781 C 0.02811 0.95518 0.31431 0.0
H782 H 0.9577 0.02492 0.37422 0.0
C783 C 0.00806 0.97357 0.28078 0.0
C784 C 0.96951 0.01013 0.28066 0.0
H785 H 0.0544 0.92397 0.31345 0.0
H786 H 0.01979 0.95615 0.25495 0.0
C787 C 0.95452 0.03099 0.31474 0.0
C788 C 0.49971 0.04363 0.31561 0.0
C789 C 0.48351 0.02272 0.34938 0.0
H790 H 0.49833 0.03793 0.2561 0.0
C791 C 0.44439 -0.01329 0.34848 0.0
H792 H 0.53039 0.07054 0.31522 0.0
C793 C 0.42524 0.96862 0.31456 0.0
C794 C 0.44561 0.98533 0.28076 0.0
H795 H 0.43157 0.96935 0.37405 0.0
H796 H 0.39856 0.9377 0.31494 0.0
C797 C 0.48136 0.02473 0.28169 0.0
C798 C 0.43707 0.51414 0.31611 0.0
C799 C 0.45659 0.49807 0.35035 0.0
H800 H 0.44479 0.51211 0.25673 0.0
C801 C 0.49243 0.45881 0.35039 0.0
H802 H 0.41046 0.54506 0.31506 0.0
C803 C 0.51146 0.43912 0.31695 0.0
C804 C 0.49588 0.45915 0.28273 0.0
H805 H 0.50887 0.44631 0.37637 0.0
H806 H 0.54211 0.41224 0.31803 0.0
C807 C 0.45694 0.4953 0.28267 0.0
C808 C 0.01095 0.5322 0.81652 0.0
C809 C -0.00447 0.51201 0.78231 0.0
H810 H 0.00815 0.52518 0.87594 0.0
C811 C 0.95664 0.47578 0.78224 0.0
H812 H 0.04155 0.55916 0.81759 0.0
C813 C 0.93667 0.457 0.81567 0.0
C814 C 0.95605 0.47322 0.84992 0.0
H815 H 0.94461 0.45887 0.7563 0.0
H816 H 0.91012 0.426 0.81462 0.0
C817 C -0.00818 0.51257 0.84996 0.0
C818 C 0.98165 0.94638 0.78131 0.0
C819 C 0.94583 -0.01432 0.78038 0.0
H820 H 0.03067 0.90062 0.81485 0.0
C821 C 0.92532 0.00223 0.81417 0.0
H822 H -0.00127 0.93332 0.75573 0.0
C823 C 0.9444 0.98407 0.84809 0.0
C824 C -0.01641 0.94817 0.84901 0.0
H825 H 0.89858 0.03306 0.81454 0.0
H826 H 0.93148 0.00132 0.87366 0.0
C827 C -6e-05 0.92742 0.81523 0.0
C828 C 0.50809 -0.00267 0.78127 0.0
C829 C 0.46943 0.96086 0.78105 0.0
H830 H 0.55437 0.04686 0.81404 0.0
C831 C 0.45414 0.94007 0.81509 0.0
H832 H 0.52003 0.01469 0.75546 0.0
C833 C 0.47317 0.9593 0.84869 0.0
C834 C 0.50874 -0.00117 0.84896 0.0
H835 H 0.42373 0.91289 0.81595 0.0
H836 H 0.45694 0.94619 0.87457 0.0
C837 C 0.52798 0.01571 0.81485 0.0
C838 C 0.52137 0.48576 0.85007 0.0
C839 C 0.48258 0.5221 0.85105 0.0
H840 H 0.56703 0.43686 0.81638 0.0
C841 C 0.46694 0.54371 0.81737 0.0
H842 H 0.53377 0.46788 0.87556 0.0
C843 C 0.48546 0.52519 0.7834 0.0
C844 C 0.52082 0.48549 0.78234 0.0
H845 H 0.43655 0.57091 0.81704 0.0
H846 H 0.46886 0.53893 0.75782 0.0
C847 C 0.54068 0.46805 0.81611 0.0
loop_
_geom_bond_atom_site_label_1
_geom_bond_atom_site_label_2
_geom_bond_distance
_geom_bond_site_symmetry_2
_ccdc_geom_bond_type
O0 Zn1 1.953 . S
O0 C16 1.225 . S
Zn1 O0 1.953 . S
Zn1 O2 1.949 . S
Zn1 O8 1.919 . S
Zn1 O13 1.924 . S
O2 Zn1 1.949 . S
O2 Zn3 1.923 1_455 S
O2 Zn4 1.950 1_455 S
O2 Zn5 1.945 . S
Zn3 O2 1.923 1_655 S
Zn3 O6 1.933 . S
Zn3 O9 1.941 1_655 S
Zn3 O10 1.965 . S
Zn4 O2 1.950 1_655 S
Zn4 O11 1.938 . S
Zn4 O12 1.906 . S
Zn4 O22 1.953 1_655 S
Zn5 O2 1.945 . S
Zn5 O7 1.932 . S
Zn5 O14 1.977 . S
Zn5 O15 1.910 . S
O6 Zn3 1.933 . S
O6 C17 1.226 1_655 S
O7 Zn5 1.932 . S
O7 C17 1.307 . S
O8 Zn1 1.919 . S
O8 C19 1.253 . S
O9 Zn3 1.941 1_455 S
O9 C19 1.283 . S
O10 Zn3 1.965 . S
O10 C18 1.303 . S
O11 Zn4 1.938 . S
O11 C18 1.247 . S
O12 Zn4 1.906 . S
O12 C20 1.304 1_655 S
O13 Zn1 1.924 . S
O13 C21 1.311 . S
O14 Zn5 1.977 . S
O14 C20 1.272 . S
O15 Zn5 1.910 . S
O15 C21 1.231 . S
C16 O0 1.225 . S
C16 O22 1.298 . S
C17 O6 1.226 1_455 S
C17 O7 1.307 . S
C18 O10 1.303 . S
C18 O11 1.247 . S
C19 O8 1.253 . S
C19 O9 1.283 . S
C20 O12 1.304 1_455 S
C20 O14 1.272 . S
C21 O13 1.311 . S
C21 O15 1.231 . S
O22 Zn4 1.953 1_455 S
O22 C16 1.298 . S
O23 Zn24 1.953 . S
O23 C39 1.225 . S
Zn24 O23 1.953 . S
Zn24 O25 1.949 . S
Zn24 O31 1.919 . S
Zn24 O36 1.924 . S
O25 Zn24 1.949 . S
O25 Zn26 1.923 1_545 S
O25 Zn27 1.950 1_545 S
O25 Zn28 1.945 . S
Zn26 O25 1.923 1_565 S
Zn26 O29 1.933 . S
Zn26 O32 1.941 1_565 S
Zn26 O33 1.965 . S
Zn27 O25 1.950 1_565 S
Zn27 O34 1.938 . S
Zn27 O35 1.906 . S
Zn27 O45 1.953 1_565 S
Zn28 O25 1.945 . S
Zn28 O30 1.932 . S
Zn28 O37 1.977 . S
Zn28 O38 1.910 . S
O29 Zn26 1.933 . S
O29 C40 1.226 1_565 S
O30 Zn28 1.932 . S
O30 C40 1.307 . S
O31 Zn24 1.919 . S
O31 C42 1.253 . S
O32 Zn26 1.941 1_545 S
O32 C42 1.283 . S
O33 Zn26 1.965 . S
O33 C41 1.303 . S
O34 Zn27 1.938 . S
O34 C41 1.247 . S
O35 Zn27 1.906 . S
O35 C43 1.304 1_565 S
O36 Zn24 1.924 . S
O36 C44 1.311 . S
O37 Zn28 1.977 . S
O37 C43 1.272 . S
O38 Zn28 1.910 . S
O38 C44 1.231 . S
C39 O23 1.225 . S
C39 O45 1.298 . S
C40 O29 1.226 1_545 S
C40 O30 1.307 . S
C41 O33 1.303 . S
C41 O34 1.247 . S
C42 O31 1.253 . S
C42 O32 1.283 . S
C43 O35 1.304 1_545 S
C43 O37 1.272 . S
C44 O36 1.311 . S
C44 O38 1.231 . S
O45 Zn27 1.953 1_545 S
O45 C39 1.298 . S
O46 Zn47 1.953 . S
O46 C62 1.225 . S
Zn47 O46 1.953 . S
Zn47 O48 1.949 . S
Zn47 O54 1.919 . S
Zn47 O59 1.924 . S
O48 Zn47 1.949 . S
O48 Zn49 1.923 . S
O48 Zn50 1.950 . S
O48 Zn51 1.945 . S
Zn49 O48 1.923 . S
Zn49 O52 1.933 . S
Zn49 O55 1.941 . S
Zn49 O56 1.965 . S
Zn50 O48 1.950 . S
Zn50 O57 1.938 . S
Zn50 O58 1.906 . S
Zn50 O68 1.953 . S
Zn51 O48 1.945 . S
Zn51 O53 1.932 . S
Zn51 O60 1.977 . S
Zn51 O61 1.910 . S
O52 Zn49 1.933 . S
O52 C63 1.226 . S
O53 Zn51 1.932 . S
O53 C63 1.307 . S
O54 Zn47 1.919 . S
O54 C65 1.253 . S
O55 Zn49 1.941 . S
O55 C65 1.283 . S
O56 Zn49 1.965 . S
O56 C64 1.303 . S
O57 Zn50 1.938 . S
O57 C64 1.247 . S
O58 Zn50 1.906 . S
O58 C66 1.304 . S
O59 Zn47 1.924 . S
O59 C67 1.311 . S
O60 Zn51 1.977 . S
O60 C66 1.272 . S
O61 Zn51 1.910 . S
O61 C67 1.231 . S
C62 O46 1.225 . S
C62 O68 1.298 . S
C63 O52 1.226 . S
C63 O53 1.307 . S
C64 O56 1.303 . S
C64 O57 1.247 . S
C65 O54 1.253 . S
C65 O55 1.283 . S
C66 O58 1.304 . S
C66 O60 1.272 . S
C67 O59 1.311 . S
C67 O61 1.231 . S
O68 Zn50 1.953 . S
O68 C62 1.298 . S
O69 Zn70 1.953 . S
O69 C85 1.225 . S
Zn70 O69 1.953 . S
Zn70 O71 1.949 . S
Zn70 O77 1.919 . S
Zn70 O82 1.924 . S
O71 Zn70 1.949 . S
O71 Zn72 1.923 . S
O71 Zn73 1.950 . S
O71 Zn74 1.945 . S
Zn72 O71 1.923 . S
Zn72 O75 1.933 . S
Zn72 O78 1.941 . S
Zn72 O79 1.965 . S
Zn73 O71 1.950 . S
Zn73 O80 1.938 . S
Zn73 O81 1.906 . S
Zn73 O91 1.953 . S
Zn74 O71 1.945 . S
Zn74 O76 1.932 . S
Zn74 O83 1.977 . S
Zn74 O84 1.910 . S
O75 Zn72 1.933 . S
O75 C86 1.226 . S
O76 Zn74 1.932 . S
O76 C86 1.307 . S
O77 Zn70 1.919 . S
O77 C88 1.253 . S
O78 Zn72 1.941 . S
O78 C88 1.283 . S
O79 Zn72 1.965 . S
O79 C87 1.303 . S
O80 Zn73 1.938 . S
O80 C87 1.247 . S
O81 Zn73 1.906 . S
O81 C89 1.304 . S
O82 Zn70 1.924 . S
O82 C90 1.311 . S
O83 Zn74 1.977 . S
O83 C89 1.272 . S
O84 Zn74 1.910 . S
O84 C90 1.231 . S
C85 O69 1.225 . S
C85 O91 1.298 . S
C86 O75 1.226 . S
C86 O76 1.307 . S
C87 O79 1.303 . S
C87 O80 1.247 . S
C88 O77 1.253 . S
C88 O78 1.283 . S
C89 O81 1.304 . S
C89 O83 1.272 . S
C90 O82 1.311 . S
C90 O84 1.231 . S
O91 Zn73 1.953 . S
O91 C85 1.298 . S
O92 Zn93 1.953 . S
O92 C108 1.225 . S
Zn93 O92 1.953 . S
Zn93 O94 1.949 . S
Zn93 O100 1.919 . S
Zn93 O105 1.924 . S
O94 Zn93 1.949 . S
O94 Zn95 1.923 1_455 S
O94 Zn96 1.950 1_455 S
O94 Zn97 1.945 . S
Zn95 O94 1.923 1_655 S
Zn95 O98 1.933 . S
Zn95 O101 1.941 1_655 S
Zn95 O102 1.965 . S
Zn96 O94 1.950 1_655 S
Zn96 O103 1.938 . S
Zn96 O104 1.906 . S
Zn96 O114 1.953 1_655 S
Zn97 O94 1.945 . S
Zn97 O99 1.932 . S
Zn97 O106 1.977 . S
Zn97 O107 1.910 . S
O98 Zn95 1.933 . S
O98 C109 1.226 1_655 S
O99 Zn97 1.932 . S
O99 C109 1.307 . S
O100 Zn93 1.919 . S
O100 C111 1.253 . S
O101 Zn95 1.941 1_455 S
O101 C111 1.283 . S
O102 Zn95 1.965 . S
O102 C110 1.303 . S
O103 Zn96 1.938 . S
O103 C110 1.247 . S
O104 Zn96 1.906 . S
O104 C112 1.304 1_655 S
O105 Zn93 1.924 . S
O105 C113 1.311 . S
O106 Zn97 1.977 . S
O106 C112 1.272 . S
O107 Zn97 1.910 . S
O107 C113 1.231 . S
C108 O92 1.225 . S
C108 O114 1.298 . S
C109 O98 1.226 1_455 S
C109 O99 1.307 . S
C110 O102 1.303 . S
C110 O103 1.247 . S
C111 O100 1.253 . S
C111 O101 1.283 . S
C112 O104 1.304 1_455 S
C112 O106 1.272 . S
C113 O105 1.311 . S
C113 O107 1.231 . S
O114 Zn96 1.953 1_455 S
O114 C108 1.298 . S
O115 Zn116 1.953 . S
O115 C131 1.225 . S
Zn116 O115 1.953 . S
Zn116 O117 1.949 . S
Zn116 O123 1.919 . S
Zn116 O128 1.924 . S
O117 Zn116 1.949 . S
O117 Zn118 1.923 1_545 S
O117 Zn119 1.950 1_545 S
O117 Zn120 1.945 . S
Zn118 O117 1.923 1_565 S
Zn118 O121 1.933 . S
Zn118 O124 1.941 1_565 S
Zn118 O125 1.965 . S
Zn119 O117 1.950 1_565 S
Zn119 O126 1.938 . S
Zn119 O127 1.906 . S
Zn119 O137 1.953 1_565 S
Zn120 O117 1.945 . S
Zn120 O122 1.932 . S
Zn120 O129 1.977 . S
Zn120 O130 1.910 . S
O121 Zn118 1.933 . S
O121 C132 1.226 1_565 S
O122 Zn120 1.932 . S
O122 C132 1.307 . S
O123 Zn116 1.919 . S
O123 C134 1.253 . S
O124 Zn118 1.941 1_545 S
O124 C134 1.283 . S
O125 Zn118 1.965 . S
O125 C133 1.303 . S
O126 Zn119 1.938 . S
O126 C133 1.247 . S
O127 Zn119 1.906 . S
O127 C135 1.304 1_565 S
O128 Zn116 1.924 . S
O128 C136 1.311 . S
O129 Zn120 1.977 . S
O129 C135 1.272 . S
O130 Zn120 1.910 . S
O130 C136 1.231 . S
C131 O115 1.225 . S
C131 O137 1.298 . S
C132 O121 1.226 1_545 S
C132 O122 1.307 . S
C133 O125 1.303 . S
C133 O126 1.247 . S
C134 O123 1.253 . S
C134 O124 1.283 . S
C135 O127 1.304 1_545 S
C135 O129 1.272 . S
C136 O128 1.311 . S
C136 O130 1.231 . S
O137 Zn119 1.953 1_545 S
O137 C131 1.298 . S
O138 Zn139 1.953 . S
O138 C154 1.225 . S
Zn139 O138 1.953 . S
Zn139 O140 1.949 . S
Zn139 O146 1.919 . S
Zn139 O151 1.924 . S
O140 Zn139 1.949 . S
O140 Zn141 1.923 . S
O140 Zn142 1.950 . S
O140 Zn143 1.945 . S
Zn141 O140 1.923 . S
Zn141 O144 1.933 . S
Zn141 O147 1.941 . S
Zn141 O148 1.965 . S
Zn142 O140 1.950 . S
Zn142 O149 1.938 . S
Zn142 O150 1.906 . S
Zn142 O160 1.953 . S
Zn143 O140 1.945 . S
Zn143 O145 1.932 . S
Zn143 O152 1.977 . S
Zn143 O153 1.910 . S
O144 Zn141 1.933 . S
O144 C155 1.226 . S
O145 Zn143 1.932 . S
O145 C155 1.307 . S
O146 Zn139 1.919 . S
O146 C157 1.253 . S
O147 Zn141 1.941 . S
O147 C157 1.283 . S
O148 Zn141 1.965 . S
O148 C156 1.303 . S
O149 Zn142 1.938 . S
O149 C156 1.247 . S
O150 Zn142 1.906 . S
O150 C158 1.304 . S
O151 Zn139 1.924 . S
O151 C159 1.311 . S
O152 Zn143 1.977 . S
O152 C158 1.272 . S
O153 Zn143 1.910 . S
O153 C159 1.231 . S
C154 O138 1.225 . S
C154 O160 1.298 . S
C155 O144 1.226 . S
C155 O145 1.307 . S
C156 O148 1.303 . S
C156 O149 1.247 . S
C157 O146 1.253 . S
C157 O147 1.283 . S
C158 O150 1.304 . S
C158 O152 1.272 . S
C159 O151 1.311 . S
C159 O153 1.231 . S
O160 Zn142 1.953 . S
O160 C154 1.298 . S
O161 Zn162 1.953 . S
O161 C177 1.225 . S
Zn162 O161 1.953 . S
Zn162 O163 1.949 . S
Zn162 O169 1.919 . S
Zn162 O174 1.924 . S
O163 Zn162 1.949 . S
O163 Zn164 1.923 . S
O163 Zn165 1.950 . S
O163 Zn166 1.945 . S
Zn164 O163 1.923 . S
Zn164 O167 1.933 . S
Zn164 O170 1.941 . S
Zn164 O171 1.965 . S
Zn165 O163 1.950 . S
Zn165 O172 1.938 . S
Zn165 O173 1.906 . S
Zn165 O183 1.953 . S
Zn166 O163 1.945 . S
Zn166 O168 1.932 . S
Zn166 O175 1.977 . S
Zn166 O176 1.910 . S
O167 Zn164 1.933 . S
O167 C178 1.226 . S
O168 Zn166 1.932 . S
O168 C178 1.307 . S
O169 Zn162 1.919 . S
O169 C180 1.253 . S
O170 Zn164 1.941 . S
O170 C180 1.283 . S
O171 Zn164 1.965 . S
O171 C179 1.303 . S
O172 Zn165 1.938 . S
O172 C179 1.247 . S
O173 Zn165 1.906 . S
O173 C181 1.304 . S
O174 Zn162 1.924 . S
O174 C182 1.311 . S
O175 Zn166 1.977 . S
O175 C181 1.272 . S
O176 Zn166 1.910 . S
O176 C182 1.231 . S
C177 O161 1.225 . S
C177 O183 1.298 . S
C178 O167 1.226 . S
C178 O168 1.307 . S
C179 O171 1.303 . S
C179 O172 1.247 . S
C180 O169 1.253 . S
C180 O170 1.283 . S
C181 O173 1.304 . S
C181 O175 1.272 . S
C182 O174 1.311 . S
C182 O176 1.231 . S
O183 Zn165 1.953 . S
O183 C177 1.298 . S
O184 Zn185 1.953 . S
O184 C200 1.225 . S
Zn185 O184 1.953 . S
Zn185 O186 1.949 . S
Zn185 O192 1.919 . S
Zn185 O197 1.924 . S
O186 Zn185 1.949 . S
O186 Zn187 1.923 1_655 S
O186 Zn188 1.950 1_655 S
O186 Zn189 1.945 . S
Zn187 O186 1.923 1_455 S
Zn187 O190 1.933 . S
Zn187 O193 1.941 1_455 S
Zn187 O194 1.965 . S
Zn188 O186 1.950 1_455 S
Zn188 O195 1.938 . S
Zn188 O196 1.906 . S
Zn188 O206 1.953 1_455 S
Zn189 O186 1.945 . S
Zn189 O191 1.932 . S
Zn189 O198 1.977 . S
Zn189 O199 1.910 . S
O190 Zn187 1.933 . S
O190 C201 1.226 1_455 S
O191 Zn189 1.932 . S
O191 C201 1.307 . S
O192 Zn185 1.919 . S
O192 C203 1.253 . S
O193 Zn187 1.941 1_655 S
O193 C203 1.283 . S
O194 Zn187 1.965 . S
O194 C202 1.303 . S
O195 Zn188 1.938 . S
O195 C202 1.247 . S
O196 Zn188 1.906 . S
O196 C204 1.304 1_455 S
O197 Zn185 1.924 . S
O197 C205 1.311 . S
O198 Zn189 1.977 . S
O198 C204 1.272 . S
O199 Zn189 1.910 . S
O199 C205 1.231 . S
C200 O184 1.225 . S
C200 O206 1.298 . S
C201 O190 1.226 1_655 S
C201 O191 1.307 . S
C202 O194 1.303 . S
C202 O195 1.247 . S
C203 O192 1.253 . S
C203 O193 1.283 . S
C204 O196 1.304 1_655 S
C204 O198 1.272 . S
C205 O197 1.311 . S
C205 O199 1.231 . S
O206 Zn188 1.953 1_655 S
O206 C200 1.298 . S
O207 Zn208 1.953 . S
O207 C223 1.225 . S
Zn208 O207 1.953 . S
Zn208 O209 1.949 . S
Zn208 O215 1.919 . S
Zn208 O220 1.924 . S
O209 Zn208 1.949 . S
O209 Zn210 1.923 1_565 S
O209 Zn211 1.950 1_565 S
O209 Zn212 1.945 . S
Zn210 O209 1.923 1_545 S
Zn210 O213 1.933 . S
Zn210 O216 1.941 1_545 S
Zn210 O217 1.965 . S
Zn211 O209 1.950 1_545 S
Zn211 O218 1.938 . S
Zn211 O219 1.906 . S
Zn211 O229 1.953 1_545 S
Zn212 O209 1.945 . S
Zn212 O214 1.932 . S
Zn212 O221 1.977 . S
Zn212 O222 1.910 . S
O213 Zn210 1.933 . S
O213 C224 1.226 1_545 S
O214 Zn212 1.932 . S
O214 C224 1.307 . S
O215 Zn208 1.919 . S
O215 C226 1.253 . S
O216 Zn210 1.941 1_565 S
O216 C226 1.283 . S
O217 Zn210 1.965 . S
O217 C225 1.303 . S
O218 Zn211 1.938 . S
O218 C225 1.247 . S
O219 Zn211 1.906 . S
O219 C227 1.304 1_545 S
O220 Zn208 1.924 . S
O220 C228 1.311 . S
O221 Zn212 1.977 . S
O221 C227 1.272 . S
O222 Zn212 1.910 . S
O222 C228 1.231 . S
C223 O207 1.225 . S
C223 O229 1.298 . S
C224 O213 1.226 1_565 S
C224 O214 1.307 . S
C225 O217 1.303 . S
C225 O218 1.247 . S
C226 O215 1.253 . S
C226 O216 1.283 . S
C227 O219 1.304 1_565 S
C227 O221 1.272 . S
C228 O220 1.311 . S
C228 O222 1.231 . S
O229 Zn211 1.953 1_565 S
O229 C223 1.298 . S
O230 Zn231 1.953 . S
O230 C246 1.225 . S
Zn231 O230 1.953 . S
Zn231 O232 1.949 . S
Zn231 O238 1.919 . S
Zn231 O243 1.924 . S
O232 Zn231 1.949 . S
O232 Zn233 1.923 . S
O232 Zn234 1.950 . S
O232 Zn235 1.945 . S
Zn233 O232 1.923 . S
Zn233 O236 1.933 . S
Zn233 O239 1.941 . S
Zn233 O240 1.965 . S
Zn234 O232 1.950 . S
Zn234 O241 1.938 . S
Zn234 O242 1.906 . S
Zn234 O252 1.953 . S
Zn235 O232 1.945 . S
Zn235 O237 1.932 . S
Zn235 O244 1.977 . S
Zn235 O245 1.910 . S
O236 Zn233 1.933 . S
O236 C247 1.226 . S
O237 Zn235 1.932 . S
O237 C247 1.307 . S
O238 Zn231 1.919 . S
O238 C249 1.253 . S
O239 Zn233 1.941 . S
O239 C249 1.283 . S
O240 Zn233 1.965 . S
O240 C248 1.303 . S
O241 Zn234 1.938 . S
O241 C248 1.247 . S
O242 Zn234 1.906 . S
O242 C250 1.304 . S
O243 Zn231 1.924 . S
O243 C251 1.311 . S
O244 Zn235 1.977 . S
O244 C250 1.272 . S
O245 Zn235 1.910 . S
O245 C251 1.231 . S
C246 O230 1.225 . S
C246 O252 1.298 . S
C247 O236 1.226 . S
C247 O237 1.307 . S
C248 O240 1.303 . S
C248 O241 1.247 . S
C249 O238 1.253 . S
C249 O239 1.283 . S
C250 O242 1.304 . S
C250 O244 1.272 . S
C251 O243 1.311 . S
C251 O245 1.231 . S
O252 Zn234 1.953 . S
O252 C246 1.298 . S
O253 Zn254 1.953 . S
O253 C269 1.225 . S
Zn254 O253 1.953 . S
Zn254 O255 1.949 . S
Zn254 O261 1.919 . S
Zn254 O266 1.924 . S
O255 Zn254 1.949 . S
O255 Zn256 1.923 . S
O255 Zn257 1.950 . S
O255 Zn258 1.945 . S
Zn256 O255 1.923 . S
Zn256 O259 1.933 . S
Zn256 O262 1.941 . S
Zn256 O263 1.965 . S
Zn257 O255 1.950 . S
Zn257 O264 1.938 . S
Zn257 O265 1.906 . S
Zn257 O275 1.953 . S
Zn258 O255 1.945 . S
Zn258 O260 1.932 . S
Zn258 O267 1.977 . S
Zn258 O268 1.910 . S
O259 Zn256 1.933 . S
O259 C270 1.226 . S
O260 Zn258 1.932 . S
O260 C270 1.307 . S
O261 Zn254 1.919 . S
O261 C272 1.253 . S
O262 Zn256 1.941 . S
O262 C272 1.283 . S
O263 Zn256 1.965 . S
O263 C271 1.303 . S
O264 Zn257 1.938 . S
O264 C271 1.247 . S
O265 Zn257 1.906 . S
O265 C273 1.304 . S
O266 Zn254 1.924 . S
O266 C274 1.311 . S
O267 Zn258 1.977 . S
O267 C273 1.272 . S
O268 Zn258 1.910 . S
O268 C274 1.231 . S
C269 O253 1.225 . S
C269 O275 1.298 . S
C270 O259 1.226 . S
C270 O260 1.307 . S
C271 O263 1.303 . S
C271 O264 1.247 . S
C272 O261 1.253 . S
C272 O262 1.283 . S
C273 O265 1.304 . S
C273 O267 1.272 . S
C274 O266 1.311 . S
C274 O268 1.231 . S
O275 Zn257 1.953 . S
O275 C269 1.298 . S
O276 Zn277 1.953 . S
O276 C292 1.225 . S
Zn277 O276 1.953 . S
Zn277 O278 1.949 . S
Zn277 O284 1.919 . S
Zn277 O289 1.924 . S
O278 Zn277 1.949 . S
O278 Zn279 1.923 1_655 S
O278 Zn280 1.950 1_655 S
O278 Zn281 1.945 . S
Zn279 O278 1.923 1_455 S
Zn279 O282 1.933 . S
Zn279 O285 1.941 1_455 S
Zn279 O286 1.965 . S
Zn280 O278 1.950 1_455 S
Zn280 O287 1.938 . S
Zn280 O288 1.906 . S
Zn280 O298 1.953 1_455 S
Zn281 O278 1.945 . S
Zn281 O283 1.932 . S
Zn281 O290 1.977 . S
Zn281 O291 1.910 . S
O282 Zn279 1.933 . S
O282 C293 1.226 1_455 S
O283 Zn281 1.932 . S
O283 C293 1.307 . S
O284 Zn277 1.919 . S
O284 C295 1.253 . S
O285 Zn279 1.941 1_655 S
O285 C295 1.283 . S
O286 Zn279 1.965 . S
O286 C294 1.303 . S
O287 Zn280 1.938 . S
O287 C294 1.247 . S
O288 Zn280 1.906 . S
O288 C296 1.304 1_455 S
O289 Zn277 1.924 . S
O289 C297 1.311 . S
O290 Zn281 1.977 . S
O290 C296 1.272 . S
O291 Zn281 1.910 . S
O291 C297 1.231 . S
C292 O276 1.225 . S
C292 O298 1.298 . S
C293 O282 1.226 1_655 S
C293 O283 1.307 . S
C294 O286 1.303 . S
C294 O287 1.247 . S
C295 O284 1.253 . S
C295 O285 1.283 . S
C296 O288 1.304 1_655 S
C296 O290 1.272 . S
C297 O289 1.311 . S
C297 O291 1.231 . S
O298 Zn280 1.953 1_655 S
O298 C292 1.298 . S
O299 Zn300 1.953 . S
O299 C315 1.225 . S
Zn300 O299 1.953 . S
Zn300 O301 1.949 . S
Zn300 O307 1.919 . S
Zn300 O312 1.924 . S
O301 Zn300 1.949 . S
O301 Zn302 1.923 1_565 S
O301 Zn303 1.950 1_565 S
O301 Zn304 1.945 . S
Zn302 O301 1.923 1_545 S
Zn302 O305 1.933 . S
Zn302 O308 1.941 1_545 S
Zn302 O309 1.965 . S
Zn303 O301 1.950 1_545 S
Zn303 O310 1.938 . S
Zn303 O311 1.906 . S
Zn303 O321 1.953 1_545 S
Zn304 O301 1.945 . S
Zn304 O306 1.932 . S
Zn304 O313 1.977 . S
Zn304 O314 1.910 . S
O305 Zn302 1.933 . S
O305 C316 1.226 1_545 S
O306 Zn304 1.932 . S
O306 C316 1.307 . S
O307 Zn300 1.919 . S
O307 C318 1.253 . S
O308 Zn302 1.941 1_565 S
O308 C318 1.283 . S
O309 Zn302 1.965 . S
O309 C317 1.303 . S
O310 Zn303 1.938 . S
O310 C317 1.247 . S
O311 Zn303 1.906 . S
O311 C319 1.304 1_545 S
O312 Zn300 1.924 . S
O312 C320 1.311 . S
O313 Zn304 1.977 . S
O313 C319 1.272 . S
O314 Zn304 1.910 . S
O314 C320 1.231 . S
C315 O299 1.225 . S
C315 O321 1.298 . S
C316 O305 1.226 1_565 S
C316 O306 1.307 . S
C317 O309 1.303 . S
C317 O310 1.247 . S
C318 O307 1.253 . S
C318 O308 1.283 . S
C319 O311 1.304 1_565 S
C319 O313 1.272 . S
C320 O312 1.311 . S
C320 O314 1.231 . S
O321 Zn303 1.953 1_565 S
O321 C315 1.298 . S
O322 Zn323 1.953 . S
O322 C338 1.225 . S
Zn323 O322 1.953 . S
Zn323 O324 1.949 . S
Zn323 O330 1.919 . S
Zn323 O335 1.924 . S
O324 Zn323 1.949 . S
O324 Zn325 1.923 . S
O324 Zn326 1.950 . S
O324 Zn327 1.945 . S
Zn325 O324 1.923 . S
Zn325 O328 1.933 . S
Zn325 O331 1.941 . S
Zn325 O332 1.965 . S
Zn326 O324 1.950 . S
Zn326 O333 1.938 . S
Zn326 O334 1.906 . S
Zn326 O344 1.953 . S
Zn327 O324 1.945 . S
Zn327 O329 1.932 . S
Zn327 O336 1.977 . S
Zn327 O337 1.910 . S
O328 Zn325 1.933 . S
O328 C339 1.226 . S
O329 Zn327 1.932 . S
O329 C339 1.307 . S
O330 Zn323 1.919 . S
O330 C341 1.253 . S
O331 Zn325 1.941 . S
O331 C341 1.283 . S
O332 Zn325 1.965 . S
O332 C340 1.303 . S
O333 Zn326 1.938 . S
O333 C340 1.247 . S
O334 Zn326 1.906 . S
O334 C342 1.304 . S
O335 Zn323 1.924 . S
O335 C343 1.311 . S
O336 Zn327 1.977 . S
O336 C342 1.272 . S
O337 Zn327 1.910 . S
O337 C343 1.231 . S
C338 O322 1.225 . S
C338 O344 1.298 . S
C339 O328 1.226 . S
C339 O329 1.307 . S
C340 O332 1.303 . S
C340 O333 1.247 . S
C341 O330 1.253 . S
C341 O331 1.283 . S
C342 O334 1.304 . S
C342 O336 1.272 . S
C343 O335 1.311 . S
C343 O337 1.231 . S
O344 Zn326 1.953 . S
O344 C338 1.298 . S
O345 Zn346 1.953 . S
O345 C361 1.225 . S
Zn346 O345 1.953 . S
Zn346 O347 1.949 . S
Zn346 O353 1.919 . S
Zn346 O358 1.924 . S
O347 Zn346 1.949 . S
O347 Zn348 1.923 . S
O347 Zn349 1.950 . S
O347 Zn350 1.945 . S
Zn348 O347 1.923 . S
Zn348 O351 1.933 . S
Zn348 O354 1.941 . S
Zn348 O355 1.965 . S
Zn349 O347 1.950 . S
Zn349 O356 1.938 . S
Zn349 O357 1.906 . S
Zn349 O367 1.953 . S
Zn350 O347 1.945 . S
Zn350 O352 1.932 . S
Zn350 O359 1.977 . S
Zn350 O360 1.910 . S
O351 Zn348 1.933 . S
O351 C362 1.226 . S
O352 Zn350 1.932 . S
O352 C362 1.307 . S
O353 Zn346 1.919 . S
O353 C364 1.253 . S
O354 Zn348 1.941 . S
O354 C364 1.283 . S
O355 Zn348 1.965 . S
O355 C363 1.303 . S
O356 Zn349 1.938 . S
O356 C363 1.247 . S
O357 Zn349 1.906 . S
O357 C365 1.304 . S
O358 Zn346 1.924 . S
O358 C366 1.311 . S
O359 Zn350 1.977 . S
O359 C365 1.272 . S
O360 Zn350 1.910 . S
O360 C366 1.231 . S
C361 O345 1.225 . S
C361 O367 1.298 . S
C362 O351 1.226 . S
C362 O352 1.307 . S
C363 O355 1.303 . S
C363 O356 1.247 . S
C364 O353 1.253 . S
C364 O354 1.283 . S
C365 O357 1.304 . S
C365 O359 1.272 . S
C366 O358 1.311 . S
C366 O360 1.231 . S
O367 Zn349 1.953 . S
O367 C361 1.298 . S
C368 C369 1.387 . S
C368 H372 0.950 . S
C368 C377 1.390 . S
C369 C368 1.387 . S
C369 C371 1.387 . S
H370 C377 0.950 . S
C371 C369 1.387 . S
C371 C373 1.390 . S
C371 H375 0.950 . S
H372 C368 0.950 . S
C373 C371 1.390 . S
C373 C374 1.387 . S
C373 H376 0.950 . S
C374 C373 1.387 . S
C374 C377 1.387 . S
H375 C371 0.950 . S
H376 C373 0.950 . S
C377 C368 1.390 . S
C377 H370 0.950 . S
C377 C374 1.387 . S
C378 C379 1.387 . S
C378 H382 0.950 . S
C378 C387 1.390 . S
C379 C378 1.387 . S
C379 C381 1.387 . S
H380 C387 0.950 . S
C381 C379 1.387 . S
C381 C383 1.390 . S
C381 H385 0.947 1_655 S
H382 C378 0.950 . S
C383 C381 1.390 . S
C383 C384 1.387 . S
C383 H386 0.950 . S
C384 C383 1.387 . S
C384 C387 1.387 . S
H385 C381 0.947 1_455 S
H386 C383 0.950 . S
C387 C378 1.390 . S
C387 H380 0.950 . S
C387 C384 1.387 . S
C388 C389 1.387 . S
C388 H392 0.950 . S
C388 C397 1.390 1_565 S
C389 C388 1.387 . S
C389 C391 1.387 . S
H390 C397 0.950 . S
C391 C389 1.387 . S
C391 C393 1.390 . S
C391 H395 0.950 . S
H392 C388 0.950 . S
C393 C391 1.390 . S
C393 C394 1.387 . S
C393 H396 0.950 . S
C394 C393 1.387 . S
C394 C397 1.387 1_565 S
H395 C391 0.950 . S
H396 C393 0.950 . S
C397 C388 1.390 1_545 S
C397 H390 0.950 . S
C397 C394 1.387 1_545 S
C398 C399 1.387 . S
C398 H402 0.950 . S
C398 C407 1.390 . S
C399 C398 1.387 . S
C399 C401 1.387 . S
H400 C407 0.950 . S
C401 C399 1.387 . S
C401 C403 1.390 . S
C401 H405 0.950 . S
H402 C398 0.950 . S
C403 C401 1.390 . S
C403 C404 1.387 . S
C403 H406 0.950 . S
C404 C403 1.387 . S
C404 C407 1.387 . S
H405 C401 0.950 . S
H406 C403 0.950 . S
C407 C398 1.390 . S
C407 H400 0.950 . S
C407 C404 1.387 . S
C408 C409 1.387 . S
C408 H412 0.950 . S
C408 C417 1.390 . S
C409 C408 1.387 . S
C409 C411 1.387 . S
H410 C417 0.950 . S
C411 C409 1.387 . S
C411 C413 1.390 . S
C411 H415 0.950 . S
H412 C408 0.950 . S
C413 C411 1.390 . S
C413 C414 1.387 . S
C413 H416 0.950 1_565 S
C414 C413 1.387 . S
C414 C417 1.387 . S
H415 C411 0.950 . S
H416 C413 0.950 1_545 S
C417 C408 1.390 . S
C417 H410 0.950 . S
C417 C414 1.387 . S
C418 C419 1.387 . S
C418 H422 0.950 . S
C418 C427 1.390 . S
C419 C418 1.387 . S
C419 C421 1.387 . S
H420 C427 0.950 . S
C421 C419 1.387 . S
C421 C423 1.390 . S
C421 H425 0.950 . S
H422 C418 0.950 . S
C423 C421 1.390 . S
C423 C424 1.387 . S
C423 H426 0.950 . S
C424 C423 1.387 . S
C424 C427 1.387 . S
H425 C421 0.950 . S
H426 C423 0.950 . S
C427 C418 1.390 . S
C427 H420 0.950 . S
C427 C424 1.387 . S
C428 C429 1.387 . S
C428 H432 0.950 . S
C428 C437 1.390 . S
C429 C428 1.387 . S
C429 C431 1.387 . S
H430 C437 0.950 . S
C431 C429 1.387 . S
C431 C433 1.390 . S
C431 H435 0.950 . S
H432 C428 0.950 . S
C433 C431 1.390 . S
C433 C434 1.387 . S
C433 H436 0.950 . S
C434 C433 1.387 . S
C434 C437 1.387 . S
H435 C431 0.950 . S
H436 C433 0.950 . S
C437 C428 1.390 . S
C437 H430 0.950 . S
C437 C434 1.387 . S
C438 C439 1.387 . S
C438 H442 0.950 . S
C438 C447 1.390 . S
C439 C438 1.387 . S
C439 C441 1.387 . S
H440 C447 0.950 . S
C441 C439 1.387 . S
C441 C443 1.390 . S
C441 H445 0.950 . S
H442 C438 0.950 . S
C443 C441 1.390 . S
C443 C444 1.387 . S
C443 H446 0.950 . S
C444 C443 1.387 . S
C444 C447 1.387 . S
H445 C441 0.950 . S
H446 C443 0.950 . S
C447 C438 1.390 . S
C447 H440 0.950 . S
C447 C444 1.387 . S
C448 C449 1.387 . S
C448 H452 0.950 . S
C448 C457 1.390 . S
C449 C448 1.387 . S
C449 C451 1.387 . S
H450 C457 0.950 . S
C451 C449 1.387 . S
C451 C453 1.390 . S
C451 H455 0.950 . S
H452 C448 0.950 . S
C453 C451 1.390 . S
C453 C454 1.387 . S
C453 H456 0.950 . S
C454 C453 1.387 . S
C454 C457 1.387 . S
H455 C451 0.950 . S
H456 C453 0.950 . S
C457 C448 1.390 . S
C457 H450 0.950 . S
C457 C454 1.387 . S
C458 C459 1.387 . S
C458 H462 0.950 1_455 S
C458 C467 1.390 . S
C459 C458 1.387 . S
C459 C461 1.387 . S
H460 C467 0.950 . S
C461 C459 1.387 . S
C461 C463 1.390 . S
C461 H465 0.950 . S
H462 C458 0.950 1_655 S
C463 C461 1.390 . S
C463 C464 1.387 . S
C463 H466 0.950 . S
C464 C463 1.387 . S
C464 C467 1.387 . S
H465 C461 0.950 . S
H466 C463 0.950 . S
C467 C458 1.390 . S
C467 H460 0.950 . S
C467 C464 1.387 . S
C468 C469 1.387 1_565 S
C468 H472 0.950 . S
C468 C477 1.390 1_565 S
C469 C468 1.387 1_545 S
C469 C471 1.387 . S
H470 C477 0.950 . S
C471 C469 1.387 . S
C471 C473 1.390 . S
C471 H475 0.950 . S
H472 C468 0.950 . S
C473 C471 1.390 . S
C473 C474 1.387 . S
C473 H476 0.950 . S
C474 C473 1.387 . S
C474 C477 1.387 . S
H475 C471 0.950 . S
H476 C473 0.950 . S
C477 C468 1.390 1_545 S
C477 H470 0.950 . S
C477 C474 1.387 . S
C478 C479 1.387 . S
C478 H482 0.950 . S
C478 C487 1.390 . S
C479 C478 1.387 . S
C479 C481 1.387 . S
H480 C487 0.950 . S
C481 C479 1.387 . S
C481 C483 1.390 . S
C481 H485 0.950 . S
H482 C478 0.950 . S
C483 C481 1.390 . S
C483 C484 1.387 . S
C483 H486 0.950 . S
C484 C483 1.387 . S
C484 C487 1.387 . S
H485 C481 0.950 . S
H486 C483 0.950 . S
C487 C478 1.390 . S
C487 H480 0.950 . S
C487 C484 1.387 . S
C488 C489 1.387 . S
C488 H492 0.950 . S
C488 C497 1.390 . S
C489 C488 1.387 . S
C489 C491 1.387 . S
H490 C497 0.950 . S
C491 C489 1.387 . S
C491 C493 1.390 1_545 S
C491 H495 0.950 . S
H492 C488 0.950 . S
C493 C491 1.390 1_565 S
C493 C494 1.387 1_565 S
C493 H496 0.950 . S
C494 C493 1.387 1_545 S
C494 C497 1.387 . S
H495 C491 0.950 . S
H496 C493 0.950 . S
C497 C488 1.390 . S
C497 H490 0.950 . S
C497 C494 1.387 . S
C498 C499 1.387 . S
C498 H502 0.950 . S
C498 C507 1.390 . S
C499 C498 1.387 . S
C499 C501 1.387 . S
H500 C507 0.950 . S
C501 C499 1.387 . S
C501 C503 1.390 . S
C501 H505 0.950 . S
H502 C498 0.950 . S
C503 C501 1.390 . S
C503 C504 1.387 . S
C503 H506 0.950 . S
C504 C503 1.387 . S
C504 C507 1.387 . S
H505 C501 0.950 . S
H506 C503 0.950 . S
C507 C498 1.390 . S
C507 H500 0.950 . S
C507 C504 1.387 . S
C508 C509 1.387 . S
C508 H512 0.950 . S
C508 C517 1.390 . S
C509 C508 1.387 . S
C509 C511 1.387 . S
H510 C517 0.950 . S
C511 C509 1.387 . S
C511 C513 1.390 . S
C511 H515 0.950 . S
H512 C508 0.950 . S
C513 C511 1.390 . S
C513 C514 1.387 . S
C513 H516 0.950 . S
C514 C513 1.387 . S
C514 C517 1.387 . S
H515 C511 0.950 . S
H516 C513 0.950 . S
C517 C508 1.390 . S
C517 H510 0.950 . S
C517 C514 1.387 . S
C518 C519 1.387 . S
C518 H522 0.950 . S
C518 C527 1.390 . S
C519 C518 1.387 . S
C519 C521 1.387 . S
H520 C527 0.950 . S
C521 C519 1.387 . S
C521 C523 1.390 . S
C521 H525 0.950 . S
H522 C518 0.950 . S
C523 C521 1.390 . S
C523 C524 1.387 . S
C523 H526 0.950 1_455 S
C524 C523 1.387 . S
C524 C527 1.387 . S
H525 C521 0.950 . S
H526 C523 0.950 1_655 S
C527 C518 1.390 . S
C527 H520 0.950 . S
C527 C524 1.387 . S
C528 C529 1.387 . S
C528 H532 0.950 . S
C528 C537 1.390 . S
C529 C528 1.387 . S
C529 C531 1.387 1_455 S
H530 C537 0.950 . S
C531 C529 1.387 1_655 S
C531 C533 1.390 . S
C531 H535 0.950 . S
H532 C528 0.950 . S
C533 C531 1.390 . S
C533 C534 1.387 1_655 S
C533 H536 0.950 . S
C534 C533 1.387 1_455 S
C534 C537 1.387 . S
H535 C531 0.950 . S
H536 C533 0.950 . S
C537 C528 1.390 . S
C537 H530 0.950 . S
C537 C534 1.387 . S
C538 C539 1.387 . S
C538 H542 0.950 . S
C538 C547 1.390 . S
C539 C538 1.387 . S
C539 C541 1.387 1_545 S
H540 C547 0.950 . S
C541 C539 1.387 1_565 S
C541 C543 1.390 . S
C541 H545 0.950 . S
H542 C538 0.950 . S
C543 C541 1.390 . S
C543 C544 1.387 1_565 S
C543 H546 0.950 . S
C544 C543 1.387 1_545 S
C544 C547 1.387 . S
H545 C541 0.950 . S
H546 C543 0.950 . S
C547 C538 1.390 . S
C547 H540 0.950 . S
C547 C544 1.387 . S
C548 C549 1.387 . S
C548 H552 0.950 . S
C548 C557 1.390 . S
C549 C548 1.387 . S
C549 C551 1.387 . S
H550 C557 0.950 . S
C551 C549 1.387 . S
C551 C553 1.390 . S
C551 H555 0.950 . S
H552 C548 0.950 . S
C553 C551 1.390 . S
C553 C554 1.387 . S
C553 H556 0.950 . S
C554 C553 1.387 . S
C554 C557 1.387 . S
H555 C551 0.950 . S
H556 C553 0.950 . S
C557 C548 1.390 . S
C557 H550 0.950 . S
C557 C554 1.387 . S
C558 C559 1.387 . S
C558 H562 0.950 . S
C558 C567 1.390 . S
C559 C558 1.387 . S
C559 C561 1.387 . S
H560 C567 0.950 . S
C561 C559 1.387 . S
C561 C563 1.390 . S
C561 H565 0.950 . S
H562 C558 0.950 . S
C563 C561 1.390 . S
C563 C564 1.387 . S
C563 H566 0.950 . S
C564 C563 1.387 . S
C564 C567 1.387 . S
H565 C561 0.950 . S
H566 C563 0.950 . S
C567 C558 1.390 . S
C567 H560 0.950 . S
C567 C564 1.387 . S
C568 C569 1.387 . S
C568 H572 0.950 . S
C568 C577 1.390 . S
C569 C568 1.387 . S
C569 C571 1.387 1_655 S
H570 C577 0.950 . S
C571 C569 1.387 1_455 S
C571 C573 1.390 . S
C571 H575 0.950 . S
H572 C568 0.950 . S
C573 C571 1.390 . S
C573 C574 1.387 1_455 S
C573 H576 0.950 . S
C574 C573 1.387 1_655 S
C574 C577 1.387 . S
H575 C571 0.950 . S
H576 C573 0.950 . S
C577 C568 1.390 . S
C577 H570 0.950 . S
C577 C574 1.387 . S
C578 C579 1.387 1_545 S
C578 H582 0.950 . S
C578 C587 1.390 . S
C579 C578 1.387 1_565 S
C579 C581 1.387 . S
H580 C587 0.950 . S
C581 C579 1.387 . S
C581 C583 1.390 . S
C581 H585 0.950 . S
H582 C578 0.950 . S
C583 C581 1.390 . S
C583 C584 1.387 . S
C583 H586 0.950 . S
C584 C583 1.387 . S
C584 C587 1.387 1_565 S
H585 C581 0.950 . S
H586 C583 0.950 . S
C587 C578 1.390 . S
C587 H580 0.950 . S
C587 C584 1.387 1_545 S
C588 C589 1.387 . S
C588 H592 0.950 . S
C588 C597 1.390 . S
C589 C588 1.387 . S
C589 C591 1.387 . S
H590 C597 0.950 . S
C591 C589 1.387 . S
C591 C593 1.390 . S
C591 H595 0.950 . S
H592 C588 0.950 . S
C593 C591 1.390 . S
C593 C594 1.387 . S
C593 H596 0.950 . S
C594 C593 1.387 . S
C594 C597 1.387 . S
H595 C591 0.950 . S
H596 C593 0.950 . S
C597 C588 1.390 . S
C597 H590 0.950 . S
C597 C594 1.387 . S
C598 C599 1.387 . S
C598 H602 0.950 . S
C598 C607 1.390 . S
C599 C598 1.387 . S
C599 C601 1.387 . S
H600 C607 0.950 . S
C601 C599 1.387 . S
C601 C603 1.390 . S
C601 H605 0.950 . S
H602 C598 0.950 . S
C603 C601 1.390 . S
C603 C604 1.387 . S
C603 H606 0.950 . S
C604 C603 1.387 . S
C604 C607 1.387 . S
H605 C601 0.950 . S
H606 C603 0.950 . S
C607 C598 1.390 . S
C607 H600 0.950 . S
C607 C604 1.387 . S
C608 C609 1.387 . S
C608 H612 0.950 . S
C608 C617 1.390 . S
C609 C608 1.387 . S
C609 C611 1.387 . S
H610 C617 0.950 . S
C611 C609 1.387 . S
C611 C613 1.390 . S
C611 H615 0.950 . S
H612 C608 0.950 . S
C613 C611 1.390 . S
C613 C614 1.387 . S
C613 H616 0.950 . S
C614 C613 1.387 . S
C614 C617 1.387 . S
H615 C611 0.950 . S
H616 C613 0.950 . S
C617 C608 1.390 . S
C617 H610 0.950 . S
C617 C614 1.387 . S
C618 C619 1.387 . S
C618 H622 0.950 . S
C618 C627 1.390 . S
C619 C618 1.387 . S
C619 C621 1.387 . S
H620 C627 0.950 . S
C621 C619 1.387 . S
C621 C623 1.390 . S
C621 H625 0.950 . S
H622 C618 0.950 . S
C623 C621 1.390 . S
C623 C624 1.387 . S
C623 H626 0.950 . S
C624 C623 1.387 . S
C624 C627 1.387 . S
H625 C621 0.950 . S
H626 C623 0.950 . S
C627 C618 1.390 . S
C627 H620 0.950 . S
C627 C624 1.387 . S
C628 C629 1.387 . S
C628 H632 0.950 . S
C628 C637 1.390 . S
C629 C628 1.387 . S
C629 C631 1.387 . S
H630 C637 0.950 . S
C631 C629 1.387 . S
C631 C633 1.390 . S
C631 H635 0.950 . S
H632 C628 0.950 . S
C633 C631 1.390 . S
C633 C634 1.387 . S
C633 H636 0.950 . S
C634 C633 1.387 . S
C634 C637 1.387 . S
H635 C631 0.950 . S
H636 C633 0.950 . S
C637 C628 1.390 . S
C637 H630 0.950 . S
C637 C634 1.387 . S
C638 C639 1.387 . S
C638 H642 0.950 . S
C638 C647 1.390 . S
C639 C638 1.387 . S
C639 C641 1.387 . S
H640 C647 0.950 . S
C641 C639 1.387 . S
C641 C643 1.390 . S
C641 H645 0.950 . S
H642 C638 0.950 . S
C643 C641 1.390 . S
C643 C644 1.387 . S
C643 H646 0.950 . S
C644 C643 1.387 . S
C644 C647 1.387 . S
H645 C641 0.950 . S
H646 C643 0.950 . S
C647 C638 1.390 . S
C647 H640 0.950 . S
C647 C644 1.387 . S
C648 C649 1.387 . S
C648 H652 0.950 . S
C648 C657 1.390 . S
C649 C648 1.387 . S
C649 C651 1.387 . S
H650 C657 0.950 . S
C651 C649 1.387 . S
C651 C653 1.390 . S
C651 H655 0.950 . S
H652 C648 0.950 . S
C653 C651 1.390 . S
C653 C654 1.387 . S
C653 H656 0.950 . S
C654 C653 1.387 . S
C654 C657 1.387 . S
H655 C651 0.950 . S
H656 C653 0.950 . S
C657 C648 1.390 . S
C657 H650 0.950 . S
C657 C654 1.387 . S
C658 C659 1.387 . S
C658 H662 0.950 . S
C658 C667 1.390 . S
C659 C658 1.387 . S
C659 C661 1.387 . S
H660 C667 0.950 . S
C661 C659 1.387 . S
C661 C663 1.390 . S
C661 H665 0.950 . S
H662 C658 0.950 . S
C663 C661 1.390 . S
C663 C664 1.387 . S
C663 H666 0.950 . S
C664 C663 1.387 . S
C664 C667 1.387 . S
H665 C661 0.950 . S
H666 C663 0.950 . S
C667 C658 1.390 . S
C667 H660 0.950 . S
C667 C664 1.387 . S
C668 C669 1.387 . S
C668 H672 0.950 . S
C668 C677 1.390 . S
C669 C668 1.387 . S
C669 C671 1.387 . S
H670 C677 0.950 . S
C671 C669 1.387 . S
C671 C673 1.390 . S
C671 H675 0.950 . S
H672 C668 0.950 . S
C673 C671 1.390 . S
C673 C674 1.387 . S
C673 H676 0.950 . S
C674 C673 1.387 . S
C674 C677 1.387 . S
H675 C671 0.950 . S
H676 C673 0.950 . S
C677 C668 1.390 . S
C677 H670 0.950 . S
C677 C674 1.387 . S
C678 C679 1.387 . S
C678 H682 0.950 . S
C678 C687 1.390 . S
C679 C678 1.387 . S
C679 C681 1.387 . S
H680 C687 0.950 . S
C681 C679 1.387 . S
C681 C683 1.390 . S
C681 H685 0.950 . S
H682 C678 0.950 . S
C683 C681 1.390 . S
C683 C684 1.387 . S
C683 H686 0.950 . S
C684 C683 1.387 . S
C684 C687 1.387 . S
H685 C681 0.950 . S
H686 C683 0.950 . S
C687 C678 1.390 . S
C687 H680 0.950 . S
C687 C684 1.387 . S
C688 C689 1.387 . S
C688 H692 0.950 . S
C688 C697 1.390 1_655 S
C689 C688 1.387 . S
C689 C691 1.387 1_556 S
H690 C697 0.950 . S
C691 C689 1.387 1_554 S
C691 C693 1.390 1_655 S
C691 H695 0.950 . S
H692 C688 0.950 . S
C693 C691 1.390 1_455 S
C693 C694 1.387 . S
C693 H696 0.950 . S
C694 C693 1.387 . S
C694 C697 1.387 1_554 S
H695 C691 0.950 . S
H696 C693 0.950 . S
C697 C688 1.390 1_455 S
C697 H690 0.950 . S
C697 C694 1.387 1_556 S
C698 C699 1.384 1_654 S
C698 H702 0.950 . S
C698 C707 1.393 . S
C699 C698 1.384 1_456 S
C699 C701 1.387 1_565 S
H700 C707 0.950 . S
C701 C699 1.387 1_545 S
C701 C703 1.393 . S
C701 H705 0.950 . S
H702 C698 0.950 . S
C703 C701 1.393 . S
C703 C704 1.384 1_456 S
C703 H706 0.950 . S
C704 C703 1.384 1_654 S
C704 C707 1.387 1_545 S
H705 C701 0.950 . S
H706 C703 0.950 . S
C707 C698 1.393 . S
C707 H700 0.950 . S
C707 C704 1.387 1_565 S
C708 C709 1.387 1_565 S
C708 H712 0.950 . S
C708 C717 1.395 . S
C709 C708 1.387 1_545 S
C709 C711 1.383 1_556 S
H710 C717 0.950 . S
C711 C709 1.383 1_554 S
C711 C713 1.395 . S
C711 H715 0.950 . S
H712 C708 0.950 . S
C713 C711 1.395 . S
C713 C714 1.387 1_545 S
C713 H716 0.950 . S
C714 C713 1.387 1_565 S
C714 C717 1.383 1_554 S
H715 C711 0.950 . S
H716 C713 0.950 . S
C717 C708 1.395 . S
C717 H710 0.950 . S
C717 C714 1.383 1_556 S
C718 C719 1.387 . S
C718 H722 0.950 . S
C718 C727 1.388 . S
C719 C718 1.387 . S
C719 C721 1.389 1_554 S
H720 C727 0.950 . S
C721 C719 1.389 1_556 S
C721 C723 1.388 . S
C721 H725 0.950 . S
H722 C718 0.950 . S
C723 C721 1.388 . S
C723 C724 1.387 . S
C723 H726 0.950 . S
C724 C723 1.387 . S
C724 C727 1.389 1_556 S
H725 C721 0.950 . S
H726 C723 0.950 . S
C727 C718 1.388 . S
C727 H720 0.950 . S
C727 C724 1.389 1_554 S
C728 C729 1.387 1_455 S
C728 H732 0.950 . S
C728 C737 1.390 . S
C729 C728 1.387 1_655 S
C729 C731 1.387 1_545 S
H730 C737 0.950 . S
C731 C729 1.387 1_565 S
C731 C733 1.390 . S
C731 H735 0.950 . S
H732 C728 0.950 . S
C733 C731 1.390 . S
C733 C734 1.387 1_655 S
C733 H736 0.950 . S
C734 C733 1.387 1_455 S
C734 C737 1.387 1_565 S
H735 C731 0.950 . S
H736 C733 0.950 . S
C737 C728 1.390 . S
C737 H730 0.950 . S
C737 C734 1.387 1_545 S
C738 C739 1.387 1_545 S
C738 H742 0.950 . S
C738 C747 1.390 . S
C739 C738 1.387 1_565 S
C739 C741 1.387 . S
H740 C747 0.950 . S
C741 C739 1.387 . S
C741 C743 1.390 . S
C741 H745 0.950 . S
H742 C738 0.950 . S
C743 C741 1.390 . S
C743 C744 1.387 1_565 S
C743 H746 0.950 . S
C744 C743 1.387 1_545 S
C744 C747 1.387 . S
H745 C741 0.950 . S
H746 C743 0.950 . S
C747 C738 1.390 . S
C747 H740 0.950 . S
C747 C744 1.387 . S
C748 C749 1.387 . S
C748 H752 0.950 . S
C748 C757 1.390 . S
C749 C748 1.387 . S
C749 C751 1.387 . S
H750 C757 0.950 . S
C751 C749 1.387 . S
C751 C753 1.390 . S
C751 H755 0.950 . S
H752 C748 0.950 . S
C753 C751 1.390 . S
C753 C754 1.387 . S
C753 H756 0.950 . S
C754 C753 1.387 . S
C754 C757 1.387 . S
H755 C751 0.950 . S
H756 C753 0.950 . S
C757 C748 1.390 . S
C757 H750 0.950 . S
C757 C754 1.387 . S
C758 C759 1.387 1_655 S
C758 H762 0.950 . S
C758 C767 1.390 . S
C759 C758 1.387 1_455 S
C759 C761 1.387 . S
H760 C767 0.950 . S
C761 C759 1.387 . S
C761 C763 1.390 . S
C761 H765 0.950 . S
H762 C758 0.950 . S
C763 C761 1.390 . S
C763 C764 1.387 1_455 S
C763 H766 0.950 . S
C764 C763 1.387 1_655 S
C764 C767 1.387 . S
H765 C761 0.950 . S
H766 C763 0.950 . S
C767 C758 1.390 . S
C767 H760 0.950 . S
C767 C764 1.387 . S
C768 C769 1.387 . S
C768 H772 0.950 . S
C768 C777 1.390 . S
C769 C768 1.387 . S
C769 C771 1.387 . S
H770 C777 0.950 . S
C771 C769 1.387 . S
C771 C773 1.390 . S
C771 H775 0.950 1_455 S
H772 C768 0.950 . S
C773 C771 1.390 . S
C773 C774 1.387 . S
C773 H776 0.950 . S
C774 C773 1.387 . S
C774 C777 1.387 . S
H775 C771 0.950 1_655 S
H776 C773 0.950 . S
C777 C768 1.390 . S
C777 H770 0.950 . S
C777 C774 1.387 . S
C778 C779 1.387 . S
C778 H782 0.950 . S
C778 C787 1.390 . S
C779 C778 1.387 . S
C779 C781 1.373 1_445 S
H780 C787 0.950 . S
C781 C779 1.373 1_665 S
C781 C783 1.397 . S
C781 H785 0.958 . S
H782 C778 0.950 . S
C783 C781 1.397 . S
C783 C784 1.387 1_665 S
C783 H786 0.950 . S
C784 C783 1.387 1_445 S
C784 C787 1.387 . S
H785 C781 0.958 . S
H786 C783 0.950 . S
C787 C778 1.390 . S
C787 H780 0.950 . S
C787 C784 1.387 . S
C788 C789 1.387 . S
C788 H792 0.950 . S
C788 C797 1.390 . S
C789 C788 1.387 . S
C789 C791 1.387 . S
H790 C797 0.950 . S
C791 C789 1.387 . S
C791 C793 1.390 1_545 S
C791 H795 0.950 1_545 S
H792 C788 0.950 . S
C793 C791 1.390 1_565 S
C793 C794 1.387 1_565 S
C793 H796 0.950 . S
C794 C793 1.387 1_545 S
C794 C797 1.387 . S
H795 C791 0.950 1_565 S
H796 C793 0.950 . S
C797 C788 1.390 . S
C797 H790 0.950 . S
C797 C794 1.387 . S
C798 C799 1.387 . S
C798 H802 0.950 . S
C798 C807 1.390 . S
C799 C798 1.387 . S
C799 C801 1.387 . S
H800 C807 0.950 . S
C801 C799 1.387 . S
C801 C803 1.390 . S
C801 H805 0.950 . S
H802 C798 0.950 . S
C803 C801 1.390 . S
C803 C804 1.387 . S
C803 H806 0.950 . S
C804 C803 1.387 . S
C804 C807 1.387 . S
H805 C801 0.950 . S
H806 C803 0.950 . S
C807 C798 1.390 . S
C807 H800 0.950 . S
C807 C804 1.387 . S
C808 C809 1.387 1_455 S
C808 H812 0.950 . S
C808 C817 1.390 1_455 S
C809 C808 1.387 1_655 S
C809 C811 1.387 . S
H810 C817 0.950 . S
C811 C809 1.387 . S
C811 C813 1.390 . S
C811 H815 0.950 . S
H812 C808 0.950 . S
C813 C811 1.390 . S
C813 C814 1.387 . S
C813 H816 0.950 . S
C814 C813 1.387 . S
C814 C817 1.387 . S
H815 C811 0.950 . S
H816 C813 0.950 . S
C817 C808 1.390 1_655 S
C817 H810 0.950 . S
C817 C814 1.387 . S
C818 C819 1.387 . S
C818 H822 0.950 . S
C818 C827 1.390 . S
C819 C818 1.387 . S
C819 C821 1.387 1_565 S
H820 C827 0.950 . S
C821 C819 1.387 1_545 S
C821 C823 1.390 . S
C821 H825 0.950 . S
H822 C818 0.950 . S
C823 C821 1.390 . S
C823 C824 1.387 1_545 S
C823 H826 0.950 1_655 S
C824 C823 1.387 1_565 S
C824 C827 1.387 . S
H825 C821 0.950 . S
H826 C823 0.950 1_455 S
C827 C818 1.390 . S
C827 H820 0.950 . S
C827 C824 1.387 . S
C828 C829 1.387 1_545 S
C828 H832 0.950 . S
C828 C837 1.390 . S
C829 C828 1.387 1_565 S
C829 C831 1.387 . S
H830 C837 0.950 . S
C831 C829 1.387 . S
C831 C833 1.390 . S
C831 H835 0.950 . S
H832 C828 0.950 . S
C833 C831 1.390 . S
C833 C834 1.387 . S
C833 H836 0.950 . S
C834 C833 1.387 . S
C834 C837 1.387 1_565 S
H835 C831 0.950 . S
H836 C833 0.950 . S
C837 C828 1.390 . S
C837 H830 0.950 . S
C837 C834 1.387 1_545 S
C838 C839 1.387 . S
C838 H842 0.950 . S
C838 C847 1.390 . S
C839 C838 1.387 . S
C839 C841 1.387 . S
H840 C847 0.950 . S
C841 C839 1.387 . S
C841 C843 1.390 . S
C841 H845 0.950 . S
H842 C838 0.950 . S
C843 C841 1.390 . S
C843 C844 1.387 . S
C843 H846 0.950 . S
C844 C843 1.387 . S
C844 C847 1.387 . S
H845 C841 0.950 . S
H846 C843 0.950 . S
C847 C838 1.390 . S
C847 H840 0.950 . S
C847 C844 1.387 . S
C369 C89 1.019 . S
C374 C18 1.050 . S
C379 C20 1.021 1_655 S
C384 C41 1.050 . S
C389 C64 1.049 . S
C394 C43 1.018 1_565 S
C399 C66 1.017 . S
C404 C87 1.049 . S
C409 C110 1.050 . S
C414 C135 1.021 1_565 S
C419 C133 1.049 . S
C424 C158 1.018 . S
C429 C156 1.051 . S
C434 C181 1.020 . S
C439 C112 1.020 1_655 S
C444 C179 1.050 . S
C449 C202 1.051 . S
C454 C273 1.020 . S
C459 C204 1.021 1_455 S
C464 C225 1.050 . S
C469 C227 1.022 1_545 S
C474 C248 1.051 . S
C479 C250 1.018 . S
C484 C271 1.049 . S
C489 C294 1.050 . S
C494 C319 1.018 1_545 S
C499 C342 1.019 . S
C504 C317 1.049 . S
C509 C365 1.019 . S
C514 C340 1.050 . S
C519 C363 1.049 . S
C524 C296 1.019 1_455 S
C529 C17 0.858 . S
C534 C109 0.858 . S
C539 C132 0.858 . S
C544 C40 0.858 . S
C549 C63 0.858 . S
C554 C155 0.858 . S
C559 C86 0.858 . S
C564 C178 0.858 . S
C569 C293 0.858 . S
C574 C201 0.858 . S
C579 C316 0.858 . S
C584 C224 0.858 . S
C589 C247 0.858 . S
C594 C339 0.858 . S
C599 C362 0.858 . S
C604 C270 0.858 . S
C609 C21 1.904 . S
C614 C67 1.904 . S
C619 C44 1.901 . S
C624 C90 1.901 . S
C629 C159 1.901 . S
C634 C113 1.901 . S
C639 C182 1.904 . S
C644 C136 1.904 . S
C649 C251 1.901 . S
C654 C205 1.901 . S
C659 C274 1.901 . S
C664 C228 1.901 . S
C669 C297 1.904 . S
C674 C343 1.904 . S
C679 C320 1.904 . S
C684 C366 1.904 . S
C689 C200 1.614 . S
C694 C16 1.614 . S
C699 C223 1.615 . S
C704 C39 1.615 . S
C709 C246 1.614 . S
C714 C62 1.614 . S
C719 C85 1.615 . S
C724 C269 1.615 . S
C729 C292 1.617 . S
C734 C108 1.617 . S
C739 C315 1.616 . S
C744 C131 1.616 . S
C749 C338 1.617 . S
C754 C154 1.617 . S
C759 C361 1.615 . S
C764 C177 1.615 . S
C769 C180 1.857 1_455 S
C774 C19 1.855 . S
C779 C111 1.855 1_545 S
C784 C42 1.855 1_455 S
C789 C134 1.857 . S
C794 C65 1.855 1_545 S
C799 C157 1.857 . S
C804 C88 1.856 . S
C809 C364 1.855 1_655 S
C814 C203 1.858 . S
C819 C295 1.858 1_565 S
C824 C226 1.856 1_655 S
C829 C318 1.856 . S
C834 C249 1.855 1_565 S
C839 C272 1.857 . S
C844 C341 1.855 . S
