# Generated by pormake.
# Topology yfw, (5)-cn, num edge types: 1
# Building blocks:
#     Node 0, Type 0, BuildingBlock: BEQFEK_clean_sbu_0, # of connection points: 5
#     Node 1, Type 0, BuildingBlock: BEQFEK_clean_sbu_0, # of connection points: 5
#     Node 2, Type 0, BuildingBlock: BEQFEK_clean_sbu_0, # of connection points: 5
#     Node 3, Type 0, BuildingBlock: BEQFEK_clean_sbu_0, # of connection points: 5
#     Node 4, Type 0, BuildingBlock: BEQFEK_clean_sbu_0, # of connection points: 5
#     Node 5, Type 0, BuildingBlock: BEQFEK_clean_sbu_0, # of connection points: 5
#     Node 6, Type 0, BuildingBlock: BEQFEK_clean_sbu_0, # of connection points: 5
#     Node 7, Type 0, BuildingBlock: BEQFEK_clean_sbu_0, # of connection points: 5
#     Node 8, Type 0, BuildingBlock: BEQFEK_clean_sbu_0, # of connection points: 5
#     Node 9, Type 0, BuildingBlock: BEQFEK_clean_sbu_0, # of connection points: 5
#     Node 10, Type 0, BuildingBlock: BEQFEK_clean_sbu_0, # of connection points: 5
#     Node 11, Type 0, BuildingBlock: BEQFEK_clean_sbu_0, # of connection points: 5
#     Node 12, Type 0, BuildingBlock: BEQFEK_clean_sbu_0, # of connection points: 5
#     Node 13, Type 0, BuildingBlock: BEQFEK_clean_sbu_0, # of connection points: 5
#     Node 14, Type 0, BuildingBlock: BEQFEK_clean_sbu_0, # of connection points: 5
#     Node 15, Type 0, BuildingBlock: BEQFEK_clean_sbu_0, # of connection points: 5
#     Edge 16, Type (0, 0), BuildingBlock: EZIPEK_clean_linker_0, # of connection points: 2
#     Edge 17, Type (0, 0), BuildingBlock: EZIPEK_clean_linker_0, # of connection points: 2
#     Edge 18, Type (0, 0), BuildingBlock: EZIPEK_clean_linker_0, # of connection points: 2
#     Edge 19, Type (0, 0), BuildingBlock: EZIPEK_clean_linker_0, # of connection points: 2
#     Edge 20, Type (0, 0), BuildingBlock: EZIPEK_clean_linker_0, # of connection points: 2
#     Edge 21, Type (0, 0), BuildingBlock: EZIPEK_clean_linker_0, # of connection points: 2
#     Edge 22, Type (0, 0), BuildingBlock: EZIPEK_clean_linker_0, # of connection points: 2
#     Edge 23, Type (0, 0), BuildingBlock: EZIPEK_clean_linker_0, # of connection points: 2
#     Edge 24, Type (0, 0), BuildingBlock: EZIPEK_clean_linker_0, # of connection points: 2
#     Edge 25, Type (0, 0), BuildingBlock: EZIPEK_clean_linker_0, # of connection points: 2
#     Edge 26, Type (0, 0), BuildingBlock: EZIPEK_clean_linker_0, # of connection points: 2
#     Edge 27, Type (0, 0), BuildingBlock: EZIPEK_clean_linker_0, # of connection points: 2
#     Edge 28, Type (0, 0), BuildingBlock: EZIPEK_clean_linker_0, # of connection points: 2
#     Edge 29, Type (0, 0), BuildingBlock: EZIPEK_clean_linker_0, # of connection points: 2
#     Edge 30, Type (0, 0), BuildingBlock: EZIPEK_clean_linker_0, # of connection points: 2
#     Edge 31, Type (0, 0), BuildingBlock: EZIPEK_clean_linker_0, # of connection points: 2
#     Edge 32, Type (0, 0), BuildingBlock: EZIPEK_clean_linker_0, # of connection points: 2
#     Edge 33, Type (0, 0), BuildingBlock: EZIPEK_clean_linker_0, # of connection points: 2
#     Edge 34, Type (0, 0), BuildingBlock: EZIPEK_clean_linker_0, # of connection points: 2
#     Edge 35, Type (0, 0), BuildingBlock: EZIPEK_clean_linker_0, # of connection points: 2
#     Edge 36, Type (0, 0), BuildingBlock: EZIPEK_clean_linker_0, # of connection points: 2
#     Edge 37, Type (0, 0), BuildingBlock: EZIPEK_clean_linker_0, # of connection points: 2
#     Edge 38, Type (0, 0), BuildingBlock: EZIPEK_clean_linker_0, # of connection points: 2
#     Edge 39, Type (0, 0), BuildingBlock: EZIPEK_clean_linker_0, # of connection points: 2
#     Edge 40, Type (0, 0), BuildingBlock: EZIPEK_clean_linker_0, # of connection points: 2
#     Edge 41, Type (0, 0), BuildingBlock: EZIPEK_clean_linker_0, # of connection points: 2
#     Edge 42, Type (0, 0), BuildingBlock: EZIPEK_clean_linker_0, # of connection points: 2
#     Edge 43, Type (0, 0), BuildingBlock: EZIPEK_clean_linker_0, # of connection points: 2
#     Edge 44, Type (0, 0), BuildingBlock: EZIPEK_clean_linker_0, # of connection points: 2
#     Edge 45, Type (0, 0), BuildingBlock: EZIPEK_clean_linker_0, # of connection points: 2
#     Edge 46, Type (0, 0), BuildingBlock: EZIPEK_clean_linker_0, # of connection points: 2
#     Edge 47, Type (0, 0), BuildingBlock: EZIPEK_clean_linker_0, # of connection points: 2
#     Edge 48, Type (0, 0), BuildingBlock: EZIPEK_clean_linker_0, # of connection points: 2
#     Edge 49, Type (0, 0), BuildingBlock: EZIPEK_clean_linker_0, # of connection points: 2
#     Edge 50, Type (0, 0), BuildingBlock: EZIPEK_clean_linker_0, # of connection points: 2
#     Edge 51, Type (0, 0), BuildingBlock: EZIPEK_clean_linker_0, # of connection points: 2
#     Edge 52, Type (0, 0), BuildingBlock: EZIPEK_clean_linker_0, # of connection points: 2
#     Edge 53, Type (0, 0), BuildingBlock: EZIPEK_clean_linker_0, # of connection points: 2
#     Edge 54, Type (0, 0), BuildingBlock: EZIPEK_clean_linker_0, # of connection points: 2
#     Edge 55, Type (0, 0), BuildingBlock: EZIPEK_clean_linker_0, # of connection points: 2
# Relax obj value: 0.067
# Max RMSD: 0.118
# Mean RMSD: 0.118
data_MOF--net-yfw--node1-BEQFEK_clean_sbu_0--edge1-EZIPEK_clean_linker_0
_symmetry_space_group_name_H-M    P1
_symmetry_Int_Tables_number       1
_symmetry_cell_setting            triclinic
loop_
_symmetry_equiv_pos_as_xyz
'x, y, z'
_cell_length_a     43.095403
_cell_length_b     43.149949
_cell_length_c     20.808371
_cell_angle_alpha  89.991367
_cell_angle_beta   90.06624
_cell_angle_gamma 89.986015
loop_
_atom_site_label
_atom_site_type_symbol
_atom_site_fract_x
_atom_site_fract_y
_atom_site_fract_z
_atom_type_partial_charge
Co0 Co 0.11732 0.0566 0.02043 0.0
Co1 Co 0.18713 0.07886 0.0295 0.0
C2 C 0.13111 0.12061 0.05638 0.0
O3 O 0.11064 0.10056 0.0415 0.0
O4 O 0.16008 0.11471 0.05341 0.0
C5 C 0.05225 0.04105 0.03388 0.0
O6 O 0.05077 0.06701 0.06669 0.0
C7 C 0.24129 0.10717 0.96506 0.0
C8 C 0.27843 0.09689 0.03508 0.0
C9 C 0.2732 0.10867 0.97399 0.0
N10 N 0.2285 0.09398 0.01745 0.0
N11 N 0.25078 0.08869 0.05972 0.0
C12 C 0.22345 0.11707 0.90667 0.0
H13 H 0.19955 0.10772 0.90727 0.0
H14 H 0.23578 0.11 0.86223 0.0
H15 H 0.22159 0.14268 0.90612 0.0
C16 C 0.13896 0.03674 0.8928 0.0
N17 N 0.14373 0.05145 0.9489 0.0
N18 N 0.17356 0.0571 0.95555 0.0
C19 C 0.1889 0.04417 0.9058 0.0
C20 C 0.16739 0.03194 0.86359 0.0
C21 C 0.10806 0.02548 0.8701 0.0
H22 H 0.0906 0.04404 0.87707 0.0
H23 H 0.10877 0.01868 0.81867 0.0
H24 H 0.10101 0.00513 0.89924 0.0
O25 O 0.13635 0.03742 0.0978 0.0
O26 O 0.18641 0.05006 0.10265 0.0
H27 H 0.23381 0.04198 0.95149 0.0
H28 H 0.22789 0.01455 0.88717 0.0
C29 C 0.22317 0.03858 0.90354 0.0
H30 H 0.23398 0.05435 0.86803 0.0
H31 H 0.2473 0.07804 0.10415 0.0
O32 O 0.0777 0.0333 0.00755 0.0
C33 C 0.16279 0.03611 0.12518 0.0
Co34 Co 0.94275 0.61956 0.26853 0.0
Co35 Co 0.92673 0.69115 0.26994 0.0
C36 C 0.881 0.64068 0.31012 0.0
O37 O 0.89916 0.6181 0.29743 0.0
O38 O 0.8888 0.66892 0.30124 0.0
C39 C 0.96478 0.55682 0.29606 0.0
O40 O 0.94798 0.5583 0.34863 0.0
C41 C 0.89461 0.74507 0.21415 0.0
C42 C 0.92849 0.78226 0.23425 0.0
C43 C 0.90122 0.776 0.20135 0.0
N44 N 0.9176 0.73346 0.25084 0.0
N45 N 0.93745 0.75596 0.26355 0.0
C46 C 0.8676 0.72642 0.19087 0.0
H47 H 0.85554 0.71597 0.23268 0.0
H48 H 0.87617 0.70708 0.16053 0.0
H49 H 0.85103 0.74089 0.16307 0.0
C50 C 0.95906 0.63488 0.13544 0.0
N51 N 0.94691 0.64274 0.19267 0.0
N52 N 0.94368 0.67299 0.19531 0.0
C53 C 0.95547 0.6855 0.14124 0.0
C54 C 0.96479 0.66174 0.10115 0.0
C55 C 0.96794 0.60264 0.11663 0.0
H56 H 0.94943 0.58627 0.13134 0.0
H57 H 0.97179 0.60087 0.064 0.0
H58 H 0.98969 0.5961 0.14182 0.0
O59 O 0.96638 0.63874 0.33934 0.0
O60 O 0.95713 0.68952 0.34019 0.0
H61 H 0.9788 0.72294 0.09123 0.0
H62 H 0.94238 0.73269 0.12755 0.0
C63 C 0.96369 0.71897 0.13358 0.0
H64 H 0.97577 0.72721 0.17745 0.0
H65 H 0.95789 0.75301 0.28977 0.0
O66 O 0.96357 0.57888 0.25569 0.0
C67 C 0.97036 0.66559 0.36309 0.0
Co68 Co 0.38459 0.43842 0.52848 0.0
Co69 Co 0.31358 0.41945 0.51349 0.0
C70 C 0.36176 0.37481 0.5629 0.0
O71 O 0.38368 0.39466 0.55835 0.0
O72 O 0.33425 0.38069 0.5435 0.0
C73 C 0.44898 0.45244 0.56449 0.0
O74 O 0.44683 0.42947 0.60569 0.0
C75 C 0.25939 0.38846 0.45275 0.0
C76 C 0.22276 0.42332 0.47009 0.0
C77 C 0.22866 0.39563 0.43886 0.0
N78 N 0.27136 0.41152 0.48878 0.0
N79 N 0.24914 0.43198 0.4997 0.0
C80 C 0.27758 0.36112 0.42995 0.0
H81 H 0.29823 0.36929 0.403 0.0
H82 H 0.26331 0.34574 0.399 0.0
H83 H 0.28612 0.3479 0.47217 0.0
C84 C 0.37449 0.45806 0.39452 0.0
N85 N 0.36476 0.44394 0.44862 0.0
N86 N 0.33493 0.43785 0.44352 0.0
C87 C 0.32471 0.44868 0.38658 0.0
C88 C 0.34942 0.4613 0.35362 0.0
C89 C 0.40649 0.4704 0.38437 0.0
H90 H 0.42344 0.45146 0.39221 0.0
H91 H 0.4094 0.47991 0.33516 0.0
H92 H 0.41123 0.48894 0.42 0.0
O93 O 0.36269 0.46182 0.5946 0.0
O94 O 0.31294 0.44818 0.58799 0.0
H95 H 0.28837 0.46239 0.32016 0.0
H96 H 0.28234 0.42697 0.36331 0.0
C97 C 0.29146 0.45062 0.36714 0.0
H98 H 0.27816 0.46326 0.40443 0.0
H99 H 0.25231 0.45247 0.52551 0.0
O100 O 0.42655 0.45791 0.52642 0.0
C101 C 0.33485 0.46347 0.6141 0.0
Co102 Co 0.55924 0.88268 0.75746 0.0
Co103 Co 0.57532 0.81132 0.76681 0.0
C104 C 0.62122 0.86093 0.80385 0.0
O105 O 0.60231 0.88304 0.79189 0.0
O106 O 0.61441 0.83274 0.79178 0.0
C107 C 0.53764 0.94411 0.78384 0.0
O108 O 0.55189 0.93981 0.839 0.0
C109 C 0.60202 0.75407 0.71451 0.0
C110 C 0.5749 0.71804 0.76478 0.0
C111 C 0.59699 0.72242 0.7174 0.0
N112 N 0.5833 0.76796 0.75738 0.0
N113 N 0.56749 0.74624 0.78798 0.0
C114 C 0.62329 0.77087 0.66974 0.0
H115 H 0.61761 0.79595 0.66827 0.0
H116 H 0.62189 0.7607 0.62081 0.0
H117 H 0.64752 0.76807 0.68688 0.0
C118 C 0.54357 0.86416 0.62543 0.0
N119 N 0.55515 0.85756 0.68395 0.0
N120 N 0.55897 0.8274 0.68913 0.0
C121 C 0.54871 0.81382 0.63476 0.0
C122 C 0.53928 0.83666 0.59256 0.0
C123 C 0.53371 0.89576 0.6041 0.0
H124 H 0.51217 0.90234 0.62988 0.0
H125 H 0.55198 0.91288 0.61645 0.0
H126 H 0.52917 0.89637 0.55158 0.0
O127 O 0.53342 0.86694 0.82747 0.0
O128 O 0.54552 0.81709 0.83839 0.0
H129 H 0.53844 0.76877 0.6728 0.0
H130 H 0.52444 0.77511 0.59219 0.0
C131 C 0.54378 0.7798 0.62606 0.0
H132 H 0.56501 0.76941 0.60532 0.0
H133 H 0.55072 0.75074 0.82289 0.0
O134 O 0.54056 0.92394 0.73983 0.0
C135 C 0.53054 0.84109 0.85584 0.0
Co136 Co 0.88635 0.05622 0.51989 0.0
Co137 Co 0.81556 0.07651 0.50564 0.0
C138 C 0.86476 0.12027 0.5538 0.0
O139 O 0.88657 0.10045 0.54714 0.0
O140 O 0.83658 0.11429 0.53921 0.0
C141 C 0.94966 0.04114 0.55831 0.0
O142 O 0.94653 0.06359 0.60047 0.0
C143 C 0.75872 0.10804 0.45436 0.0
C144 C 0.7251 0.0696 0.46321 0.0
C145 C 0.72833 0.09946 0.43996 0.0
N146 N 0.77295 0.0838 0.48281 0.0
N147 N 0.75249 0.06117 0.48871 0.0
C148 C 0.77425 0.13827 0.44038 0.0
H149 H 0.78306 0.14835 0.48593 0.0
H150 H 0.79461 0.13419 0.40889 0.0
H151 H 0.75806 0.15482 0.41698 0.0
C152 C 0.87542 0.03649 0.3862 0.0
N153 N 0.86617 0.05082 0.44041 0.0
N154 N 0.83704 0.05954 0.43397 0.0
C155 C 0.82711 0.05123 0.37503 0.0
C156 C 0.85094 0.0364 0.34323 0.0
C157 C 0.9063 0.02128 0.3776 0.0
H158 H 0.92481 0.03881 0.38427 0.0
H159 H 0.90854 0.01069 0.3292 0.0
H160 H 0.90939 0.00313 0.41484 0.0
O161 O 0.86441 0.03355 0.58701 0.0
O162 O 0.8146 0.04626 0.57748 0.0
H163 H 0.77867 0.04127 0.37984 0.0
H164 H 0.79266 0.04837 0.29943 0.0
C165 C 0.79486 0.05534 0.35057 0.0
H166 H 0.78873 0.08 0.3551 0.0
H167 H 0.75754 0.0395 0.5084 0.0
O168 O 0.92805 0.03614 0.51799 0.0
C169 C 0.83641 0.03158 0.60531 0.0
Co170 Co 0.93458 0.38692 0.76288 0.0
Co171 Co 0.92173 0.31463 0.7664 0.0
C172 C 0.87145 0.36354 0.79067 0.0
O173 O 0.88978 0.38647 0.78215 0.0
O174 O 0.88143 0.33574 0.78641 0.0
C175 C 0.949 0.45151 0.78948 0.0
O176 O 0.92581 0.45035 0.83034 0.0
C177 C 0.89451 0.25844 0.70738 0.0
C178 C 0.92832 0.2228 0.73763 0.0
C179 C 0.90249 0.22747 0.69911 0.0
N180 N 0.91528 0.27158 0.74753 0.0
N181 N 0.93516 0.25 0.76592 0.0
C182 C 0.86765 0.27529 0.67816 0.0
H183 H 0.87312 0.3003 0.67303 0.0
H184 H 0.86105 0.26526 0.63106 0.0
H185 H 0.84736 0.27285 0.71046 0.0
C186 C 0.95688 0.37051 0.63423 0.0
N187 N 0.94334 0.36295 0.69022 0.0
N188 N 0.94162 0.33262 0.69483 0.0
C189 C 0.95587 0.31989 0.6437 0.0
C190 C 0.96503 0.34342 0.603 0.0
C191 C 0.96403 0.4029 0.6136 0.0
H192 H 0.94415 0.41824 0.62515 0.0
H193 H 0.96908 0.40398 0.56134 0.0
H194 H 0.98463 0.41134 0.64045 0.0
O195 O 0.95613 0.3698 0.83818 0.0
O196 O 0.94852 0.31878 0.8426 0.0
H197 H 0.97645 0.27967 0.68601 0.0
H198 H 0.98288 0.28303 0.60036 0.0
C199 C 0.9659 0.28679 0.63966 0.0
H200 H 0.94556 0.27206 0.63086 0.0
H201 H 0.95413 0.25412 0.79593 0.0
O202 O 0.95426 0.4284 0.7533 0.0
C203 C 0.96022 0.34364 0.86486 0.0
Co204 Co 0.61736 0.44129 0.01395 0.0
Co205 Co 0.6888 0.42444 0.0232 0.0
C206 C 0.63677 0.37904 0.05451 0.0
O207 O 0.6147 0.39737 0.03957 0.0
O208 O 0.66522 0.38687 0.0501 0.0
C209 C 0.5524 0.45536 0.0332 0.0
O210 O 0.55307 0.43157 0.0726 0.0
C211 C 0.74244 0.39602 0.96149 0.0
C212 C 0.78182 0.41709 0.01359 0.0
C213 C 0.77446 0.39843 0.96156 0.0
N214 N 0.7312 0.41316 0.01009 0.0
N215 N 0.75488 0.42519 0.04191 0.0
C216 C 0.72281 0.37922 0.91344 0.0
H217 H 0.69787 0.38467 0.92028 0.0
H218 H 0.73016 0.38524 0.86389 0.0
H219 H 0.72626 0.3539 0.91945 0.0
C220 C 0.6366 0.4597 0.88403 0.0
N221 N 0.64277 0.44673 0.94141 0.0
N222 N 0.6729 0.44262 0.94702 0.0
C223 C 0.68693 0.45432 0.89445 0.0
C224 C 0.66439 0.4647 0.85246 0.0
C225 C 0.60503 0.46966 0.86253 0.0
H226 H 0.59804 0.4906 0.88987 0.0
H227 H 0.58808 0.451 0.87293 0.0
H228 H 0.60472 0.47513 0.8104 0.0
O229 O 0.63495 0.4634 0.08841 0.0
O230 O 0.68574 0.45417 0.09441 0.0
H231 H 0.73175 0.46239 0.93664 0.0
H232 H 0.72516 0.48228 0.86159 0.0
C233 C 0.72093 0.46047 0.88851 0.0
H234 H 0.7319 0.44143 0.86102 0.0
H235 H 0.75262 0.4402 0.08094 0.0
O236 O 0.57642 0.46188 0.00055 0.0
C237 C 0.66118 0.46702 0.11542 0.0
Co238 Co 0.55473 0.11442 0.2759 0.0
Co239 Co 0.57157 0.1856 0.26047 0.0
C240 C 0.61768 0.13822 0.30921 0.0
O241 O 0.59891 0.1155 0.30275 0.0
O242 O 0.61025 0.16597 0.29431 0.0
C243 C 0.54084 0.05059 0.31403 0.0
O244 O 0.56273 0.05377 0.35752 0.0
C245 C 0.60227 0.24124 0.20524 0.0
C246 C 0.5644 0.27548 0.21498 0.0
C247 C 0.59387 0.27149 0.18997 0.0
N248 N 0.5783 0.22778 0.23598 0.0
N249 N 0.55599 0.24856 0.24237 0.0
C250 C 0.63203 0.22505 0.18992 0.0
H251 H 0.64268 0.21644 0.2351 0.0
H252 H 0.62705 0.20453 0.15942 0.0
H253 H 0.64852 0.24068 0.16491 0.0
C254 C 0.53552 0.1232 0.1413 0.0
N255 N 0.54879 0.1337 0.19573 0.0
N256 N 0.55477 0.16346 0.18954 0.0
C257 C 0.54493 0.17282 0.13115 0.0
C258 C 0.53281 0.14765 0.09881 0.0
C259 C 0.52366 0.09099 0.13193 0.0
H260 H 0.50481 0.08637 0.16692 0.0
H261 H 0.54275 0.07439 0.14128 0.0
H262 H 0.51469 0.08746 0.08243 0.0
O263 O 0.5312 0.13616 0.34271 0.0
O264 O 0.54168 0.18639 0.33222 0.0
H265 H 0.52936 0.21945 0.14246 0.0
H266 H 0.53419 0.20779 0.0597 0.0
C267 C 0.54383 0.20568 0.10899 0.0
H268 H 0.56757 0.21503 0.10933 0.0
H269 H 0.53457 0.24405 0.26374 0.0
O270 O 0.53589 0.07232 0.27409 0.0
C271 C 0.52794 0.16414 0.36031 0.0
Co272 Co 0.61615 0.55449 0.529 0.0
Co273 Co 0.68649 0.57594 0.51429 0.0
C274 C 0.6374 0.61917 0.56223 0.0
O275 O 0.61623 0.59849 0.55798 0.0
O276 O 0.66516 0.6143 0.54325 0.0
C277 C 0.55202 0.53967 0.56451 0.0
O278 O 0.55404 0.56259 0.60587 0.0
C279 C 0.74266 0.60769 0.46217 0.0
C280 C 0.77686 0.56974 0.47082 0.0
C281 C 0.77302 0.59944 0.44695 0.0
N282 N 0.729 0.58341 0.49151 0.0
N283 N 0.74981 0.56109 0.49742 0.0
C284 C 0.72658 0.63762 0.44799 0.0
H285 H 0.70625 0.6331 0.41658 0.0
H286 H 0.74242 0.65441 0.42441 0.0
H287 H 0.71768 0.64765 0.49349 0.0
C288 C 0.62711 0.53454 0.39571 0.0
N289 N 0.63634 0.54913 0.44968 0.0
N290 N 0.66556 0.55751 0.44354 0.0
C291 C 0.67567 0.54848 0.38521 0.0
C292 C 0.65175 0.53384 0.35336 0.0
C293 C 0.59608 0.51974 0.38667 0.0
H294 H 0.57784 0.53765 0.39215 0.0
H295 H 0.59394 0.50884 0.33855 0.0
H296 H 0.59249 0.50191 0.42434 0.0
O297 O 0.63803 0.53173 0.59573 0.0
O298 O 0.68712 0.54741 0.58943 0.0
H299 H 0.72375 0.53716 0.39225 0.0
H300 H 0.71058 0.54377 0.31103 0.0
C301 C 0.70821 0.55139 0.36173 0.0
H302 H 0.7151 0.57586 0.36532 0.0
H303 H 0.74518 0.53945 0.51764 0.0
O304 O 0.57445 0.53447 0.52638 0.0
C305 C 0.66585 0.53133 0.6156 0.0
Co306 Co 0.43823 0.11151 0.75661 0.0
Co307 Co 0.42347 0.18309 0.7711 0.0
C308 C 0.3774 0.13145 0.80417 0.0
O309 O 0.39386 0.10958 0.78079 0.0
O310 O 0.38665 0.15957 0.80292 0.0
C311 C 0.4479 0.04418 0.7598 0.0
O312 O 0.41929 0.04211 0.78108 0.0
C313 C 0.39484 0.23969 0.71849 0.0
C314 C 0.42023 0.27632 0.7708 0.0
C315 C 0.39897 0.27149 0.72191 0.0
N316 N 0.41339 0.22618 0.76239 0.0
N317 N 0.42806 0.24828 0.79427 0.0
C318 C 0.37463 0.22242 0.67231 0.0
H319 H 0.38088 0.19747 0.67127 0.0
H320 H 0.37647 0.23264 0.6235 0.0
H321 H 0.35011 0.22466 0.68785 0.0
C322 C 0.45671 0.13199 0.62774 0.0
N323 N 0.44421 0.13768 0.68571 0.0
N324 N 0.43975 0.16769 0.69225 0.0
C325 C 0.45042 0.18207 0.6391 0.0
C326 C 0.46099 0.15989 0.59654 0.0
C327 C 0.46634 0.10066 0.60474 0.0
H328 H 0.48606 0.0923 0.63436 0.0
H329 H 0.44669 0.08436 0.61101 0.0
H330 H 0.47344 0.10113 0.55349 0.0
O331 O 0.461 0.12751 0.83222 0.0
O332 O 0.45449 0.17857 0.83941 0.0
H333 H 0.45927 0.22684 0.67963 0.0
H334 H 0.47396 0.22184 0.59914 0.0
C335 C 0.45455 0.21626 0.63214 0.0
H336 H 0.43321 0.22634 0.61113 0.0
H337 H 0.44455 0.24418 0.83005 0.0
O338 O 0.45851 0.07039 0.74276 0.0
C339 C 0.46639 0.15336 0.85926 0.0
Co340 Co 0.88402 0.9413 0.00742 0.0
Co341 Co 0.81208 0.92665 0.0128 0.0
C342 C 0.86181 0.87989 0.04975 0.0
O343 O 0.88456 0.89743 0.03502 0.0
O344 O 0.83363 0.88848 0.04346 0.0
C345 C 0.94784 0.9557 0.0348 0.0
O346 O 0.94455 0.93517 0.08093 0.0
C347 C 0.75583 0.89849 0.95816 0.0
C348 C 0.71884 0.9266 0.00295 0.0
C349 C 0.7241 0.90354 0.95805 0.0
N350 N 0.76894 0.91815 0.00032 0.0
N351 N 0.74663 0.93455 0.02765 0.0
C352 C 0.7735 0.87632 0.91682 0.0
H353 H 0.79854 0.88232 0.91618 0.0
H354 H 0.76394 0.87629 0.86724 0.0
H355 H 0.77081 0.85258 0.93653 0.0
C356 C 0.86693 0.96018 0.87628 0.0
N357 N 0.85968 0.94735 0.93328 0.0
N358 N 0.82954 0.94255 0.93581 0.0
C359 C 0.81663 0.95289 0.88076 0.0
C360 C 0.83988 0.96404 0.8414 0.0
C361 C 0.89869 0.97099 0.85805 0.0
H362 H 0.91576 0.95234 0.86791 0.0
H363 H 0.89979 0.97763 0.80655 0.0
H364 H 0.90498 0.99134 0.88794 0.0
O365 O 0.86705 0.96471 0.08028 0.0
O366 O 0.81596 0.95748 0.08245 0.0
H367 H 0.77748 0.97359 0.83159 0.0
H368 H 0.7736 0.93343 0.85069 0.0
C369 C 0.78258 0.95584 0.86868 0.0
H370 H 0.77049 0.96221 0.9137 0.0
H371 H 0.75049 0.95206 0.06131 0.0
O372 O 0.9258 0.95993 0.99518 0.0
C373 C 0.84059 0.96952 0.10518 0.0
Co374 Co 0.05769 0.38715 0.27163 0.0
Co375 Co 0.07026 0.31452 0.26133 0.0
C376 C 0.11999 0.35937 0.30118 0.0
O377 O 0.10233 0.38307 0.29598 0.0
O378 O 0.11098 0.33209 0.28661 0.0
C379 C 0.05256 0.45676 0.25709 0.0
O380 O 0.08174 0.45915 0.23972 0.0
C381 C 0.09348 0.25674 0.20174 0.0
C382 C 0.05971 0.22256 0.23861 0.0
C383 C 0.08486 0.22588 0.198 0.0
N384 N 0.07386 0.27131 0.24191 0.0
N385 N 0.05391 0.25064 0.26414 0.0
C386 C 0.11952 0.27216 0.16682 0.0
H387 H 0.1418 0.26543 0.18971 0.0
H388 H 0.11703 0.29775 0.16878 0.0
H389 H 0.12016 0.26418 0.11612 0.0
C390 C 0.03343 0.37594 0.14112 0.0
N391 N 0.04797 0.36613 0.1947 0.0
N392 N 0.05247 0.33599 0.19073 0.0
C393 C 0.04078 0.32587 0.13442 0.0
C394 C 0.0286 0.35077 0.10144 0.0
C395 C 0.02347 0.40853 0.12921 0.0
H396 H 0.0076 0.41615 0.16805 0.0
H397 H 0.04437 0.42342 0.13024 0.0
H398 H 0.01167 0.41105 0.08203 0.0
O399 O 0.03471 0.36859 0.34246 0.0
O400 O 0.04348 0.31783 0.338 0.0
H401 H 0.031 0.27812 0.15327 0.0
H402 H 0.02411 0.28966 0.07117 0.0
C403 C 0.0395 0.29286 0.11344 0.0
H404 H 0.06318 0.28555 0.09968 0.0
H405 H 0.03581 0.25586 0.29561 0.0
O406 O 0.04102 0.43046 0.27052 0.0
C407 C 0.03118 0.34139 0.36438 0.0
Co408 Co 0.38293 0.55417 0.0135 0.0
Co409 Co 0.31107 0.56955 0.02187 0.0
C410 C 0.36174 0.61609 0.05447 0.0
O411 O 0.38416 0.59811 0.0398 0.0
O412 O 0.3334 0.60787 0.04934 0.0
C413 C 0.44784 0.54065 0.03484 0.0
O414 O 0.44628 0.56322 0.07711 0.0
C415 C 0.25464 0.59696 0.96624 0.0
C416 C 0.21769 0.57143 0.01728 0.0
C417 C 0.22282 0.59278 0.96882 0.0
N418 N 0.26791 0.57848 0.01048 0.0
N419 N 0.24564 0.5636 0.04142 0.0
C420 C 0.27214 0.6173 0.92079 0.0
H421 H 0.29731 0.61184 0.922 0.0
H422 H 0.26291 0.61458 0.87129 0.0
H423 H 0.26873 0.64185 0.935 0.0
C424 C 0.36438 0.53553 0.88331 0.0
N425 N 0.35774 0.54823 0.94069 0.0
N426 N 0.32756 0.55247 0.9451 0.0
C427 C 0.31403 0.54142 0.89131 0.0
C428 C 0.3369 0.53099 0.85026 0.0
C429 C 0.39608 0.52544 0.86301 0.0
H430 H 0.40296 0.50474 0.89129 0.0
H431 H 0.41296 0.5442 0.87322 0.0
H432 H 0.39669 0.51958 0.81108 0.0
O433 O 0.36636 0.53134 0.08768 0.0
O434 O 0.31547 0.53979 0.09314 0.0
H435 H 0.26867 0.53237 0.92944 0.0
H436 H 0.27533 0.51656 0.8504 0.0
C437 C 0.27998 0.53657 0.8825 0.0
H438 H 0.2699 0.55742 0.85951 0.0
H439 H 0.24957 0.54721 0.07738 0.0
O440 O 0.42439 0.53483 -0.00018 0.0
C441 C 0.34018 0.52732 0.11443 0.0
Co442 Co 0.44401 0.88122 0.27216 0.0
Co443 Co 0.42737 0.80984 0.25851 0.0
C444 C 0.38188 0.85716 0.30944 0.0
O445 O 0.40034 0.87998 0.30137 0.0
O446 O 0.38923 0.82938 0.29474 0.0
C447 C 0.45625 0.94556 0.30827 0.0
O448 O 0.43266 0.94279 0.34781 0.0
C449 C 0.39589 0.75393 0.20617 0.0
C450 C 0.43431 0.72008 0.21219 0.0
C451 C 0.40428 0.72381 0.18976 0.0
N452 N 0.42037 0.76757 0.2349 0.0
N453 N 0.443 0.747 0.23919 0.0
C454 C 0.36566 0.76984 0.19368 0.0
H455 H 0.35604 0.77847 0.23978 0.0
H456 H 0.36972 0.79033 0.16252 0.0
H457 H 0.34871 0.75402 0.17048 0.0
C458 C 0.46148 0.87196 0.1366 0.0
N459 N 0.44893 0.86167 0.19186 0.0
N460 N 0.44274 0.83192 0.18629 0.0
C461 C 0.45159 0.8224 0.12739 0.0
C462 C 0.46338 0.84741 0.09415 0.0
C463 C 0.47362 0.90401 0.12648 0.0
H464 H 0.49231 0.9088 0.16183 0.0
H465 H 0.45457 0.92076 0.1348 0.0
H466 H 0.48282 0.90713 0.07708 0.0
O467 O 0.46802 0.85976 0.33848 0.0
O468 O 0.45853 0.80935 0.32818 0.0
H469 H 0.46801 0.776 0.13781 0.0
H470 H 0.46096 0.78727 0.05551 0.0
C471 C 0.45253 0.78946 0.10567 0.0
H472 H 0.42896 0.7798 0.10849 0.0
H473 H 0.46482 0.7517 0.25865 0.0
O474 O 0.46279 0.92339 0.27041 0.0
C475 C 0.47193 0.83188 0.35613 0.0
Co476 Co 0.12031 0.94391 0.53623 0.0
Co477 Co 0.19095 0.92367 0.52183 0.0
C478 C 0.14183 0.87905 0.5649 0.0
O479 O 0.12028 0.89936 0.56133 0.0
O480 O 0.16962 0.88486 0.54762 0.0
C481 C 0.05479 0.95648 0.56725 0.0
O482 O 0.05614 0.93257 0.60627 0.0
C483 C 0.2456 0.89132 0.46684 0.0
C484 C 0.28162 0.9273 0.47889 0.0
C485 C 0.27625 0.89841 0.45212 0.0
N486 N 0.2332 0.91552 0.49871 0.0
N487 N 0.25505 0.93666 0.50663 0.0
C488 C 0.22803 0.86261 0.44978 0.0
H489 H 0.20726 0.86899 0.42108 0.0
H490 H 0.24267 0.84607 0.42241 0.0
H491 H 0.21971 0.85134 0.49449 0.0
C492 C 0.13192 0.96632 0.40448 0.0
N493 N 0.141 0.95101 0.45775 0.0
N494 N 0.17048 0.94347 0.45216 0.0
C495 C 0.18099 0.95401 0.39521 0.0
C496 C 0.15696 0.96852 0.36334 0.0
C497 C 0.10049 0.98017 0.39481 0.0
H498 H 0.08295 0.96145 0.39698 0.0
H499 H 0.09867 0.99219 0.34779 0.0
H500 H 0.09558 0.99688 0.434 0.0
O501 O 0.14188 0.96551 0.60582 0.0
O502 O 0.19139 0.95101 0.59867 0.0
H503 H 0.2169 0.96236 0.32446 0.0
H504 H 0.22175 0.92869 0.37422 0.0
C505 C 0.21397 0.95294 0.37371 0.0
H506 H 0.22852 0.96651 0.40744 0.0
H507 H 0.2515 0.958 0.52906 0.0
O508 O 0.0782 0.96328 0.53293 0.0
C509 C 0.1697 0.9661 0.62599 0.0
Co510 Co 0.05679 0.6154 0.7706 0.0
Co511 Co 0.07759 0.686 0.76895 0.0
C512 C 0.1205 0.63496 0.81186 0.0
O513 O 0.1002 0.61379 0.80287 0.0
O514 O 0.11545 0.66323 0.79696 0.0
C515 C 0.04008 0.55112 0.79675 0.0
O516 O 0.06226 0.55182 0.84009 0.0
C517 C 0.10631 0.742 0.71254 0.0
C518 C 0.07856 0.77899 0.75828 0.0
C519 C 0.1014 0.77375 0.71291 0.0
N520 N 0.08678 0.7289 0.75501 0.0
N521 N 0.07062 0.75124 0.78284 0.0
C522 C 0.12827 0.72435 0.6707 0.0
H523 H 0.12171 0.69948 0.66879 0.0
H524 H 0.1287 0.73442 0.62161 0.0
H525 H 0.15201 0.72627 0.691 0.0
C526 C 0.03986 0.63092 0.63759 0.0
N527 N 0.05308 0.63849 0.69407 0.0
N528 N 0.05983 0.66825 0.69399 0.0
C529 C 0.0503 0.68062 0.6378 0.0
C530 C 0.0378 0.65733 0.60033 0.0
C531 C 0.02705 0.59964 0.62187 0.0
H532 H 0.00695 0.59474 0.65357 0.0
H533 H 0.04507 0.58186 0.63115 0.0
H534 H 0.01946 0.59822 0.57095 0.0
O535 O 0.03296 0.63486 0.83945 0.0
O536 O 0.04811 0.68412 0.84162 0.0
H537 H 0.04307 0.72756 0.66733 0.0
H538 H 0.03146 0.71975 0.58567 0.0
C539 C 0.04897 0.71449 0.62323 0.0
H540 H 0.07179 0.72215 0.60485 0.0
H541 H 0.05326 0.74744 0.81685 0.0
O542 O 0.03603 0.57439 0.76027 0.0
C543 C 0.03196 0.66185 0.8635 0.0
C544 C 0.99146 0.98278 0.97646 0.0
C545 C 0.97499 0.97704 0.03435 0.0
C546 C 0.01152 0.01033 0.09257 0.0
C547 C 0.02551 0.01919 0.03362 0.0
N548 N 0.0241 0.01858 0.91768 0.0
N549 N 0.96457 0.99274 0.14396 0.0
C550 C 0.01421 0.00669 0.97493 0.0
C551 C 0.98365 0.99285 0.09152 0.0
N552 N 0.98613 0.96485 0.92348 0.0
N553 N 0.02539 0.01739 0.14983 0.0
H554 H 0.94291 0.98202 0.14439 0.0
H555 H 0.96865 0.00643 0.18438 0.0
H556 H 0.04665 0.0288 0.15316 0.0
H557 H 0.0175 0.00879 0.19368 0.0
H558 H 0.99957 0.96615 0.88196 0.0
H559 H 0.97039 0.94649 0.92328 0.0
H560 H 0.01453 0.0123 0.87356 0.0
H561 H 0.03943 0.0372 0.91483 0.0
C562 C 0.99047 0.5169 0.22541 0.0
C563 C 0.98778 0.53141 0.28647 0.0
C564 C 0.02873 0.49726 0.32835 0.0
C565 C 0.03301 0.48475 0.26599 0.0
N566 N 0.02404 0.48907 0.15216 0.0
N567 N 0.01096 0.54108 0.39067 0.0
C568 C 0.01581 0.49662 0.21349 0.0
C569 C 0.00869 0.52316 0.33669 0.0
N570 N 0.9681 0.52126 0.1797 0.0
N571 N 0.04372 0.4844 0.37975 0.0
H572 H 0.99839 0.56147 0.39721 0.0
H573 H 0.02789 0.5377 0.42575 0.0
H574 H 0.05982 0.46646 0.37513 0.0
H575 H 0.03863 0.49021 0.42719 0.0
H576 H 0.96759 0.50904 0.13652 0.0
H577 H 0.94821 0.53444 0.18779 0.0
H578 H 0.01384 0.49905 0.11171 0.0
H579 H 0.04362 0.47576 0.14209 0.0
C580 C 0.51431 0.50514 0.62426 0.0
C581 C 0.52503 0.51803 0.56542 0.0
C582 C 0.49004 0.48326 0.50682 0.0
C583 C 0.47614 0.47386 0.56548 0.0
N584 N 0.47055 0.4828 0.67985 0.0
N585 N 0.51695 0.52443 0.45133 0.0
C586 C 0.48697 0.48672 0.6243 0.0
C587 C 0.51112 0.50855 0.50677 0.0
N588 N 0.53083 0.50906 0.67977 0.0
N589 N 0.48419 0.46729 0.45149 0.0
H590 H 0.53049 0.54445 0.45028 0.0
H591 H 0.50537 0.51991 0.40833 0.0
H592 H 0.47068 0.44725 0.45063 0.0
H593 H 0.49574 0.47175 0.40848 0.0
H594 H 0.52527 0.4976 0.72235 0.0
H595 H 0.55198 0.52071 0.68175 0.0
H596 H 0.47619 0.49426 0.72241 0.0
H597 H 0.44943 0.47112 0.68193 0.0
C598 C 0.51322 0.98771 0.72005 0.0
C599 C 0.51424 0.96932 0.77666 0.0
C600 C 0.47284 0.00106 0.82349 0.0
C601 C 0.46948 0.01727 0.76446 0.0
N602 N 0.48162 0.02036 0.65155 0.0
N603 N 0.48764 0.95276 0.87324 0.0
C604 C 0.4883 0.00895 0.71118 0.0
C605 C 0.49192 0.97428 0.82584 0.0
N606 N 0.53653 0.98581 0.67577 0.0
N607 N 0.45919 0.01187 0.87834 0.0
H608 H 0.49937 0.93164 0.87457 0.0
H609 H 0.46967 0.95423 0.9066 0.0
H610 H 0.44634 0.0323 0.88026 0.0
H611 H 0.46361 0.00232 0.92347 0.0
H612 H 0.53834 0.00083 0.63675 0.0
H613 H 0.55573 0.97135 0.68142 0.0
H614 H 0.49286 0.01298 0.60995 0.0
H615 H 0.46243 0.03444 0.64291 0.0
C616 C 0.01413 0.98892 0.62355 0.0
C617 C 0.02692 0.97697 0.56572 0.0
C618 C 0.99224 0.0108 0.50387 0.0
C619 C 0.97679 0.01969 0.56122 0.0
N620 N 0.96826 0.00966 0.67439 0.0
N621 N 0.02186 0.97067 0.45097 0.0
C622 C 0.98634 0.00663 0.62084 0.0
C623 C 0.01415 0.98621 0.50581 0.0
N624 N 0.02903 0.98472 0.68089 0.0
N625 N 0.98705 0.02657 0.44797 0.0
H626 H 0.03606 0.95109 0.45136 0.0
H627 H 0.01123 0.97489 0.40681 0.0
H628 H 0.97269 0.04598 0.44545 0.0
H629 H 0.99976 0.02258 0.40619 0.0
H630 H 0.022 0.99562 0.72316 0.0
H631 H 0.05022 0.97326 0.68514 0.0
H632 H 0.97299 0.99803 0.71723 0.0
H633 H 0.94672 0.02064 0.67412 0.0
C634 C 0.98408 0.4878 0.85117 0.0
C635 C 0.97175 0.47754 0.79143 0.0
C636 C 0.00841 0.51171 0.73549 0.0
C637 C 0.01732 0.5251 0.79508 0.0
N638 N 0.00649 0.53087 0.90868 0.0
N639 N 0.96803 0.48495 0.67662 0.0
C640 C 0.00315 0.5146 0.85275 0.0
C641 C 0.98273 0.491 0.73344 0.0
N642 N 0.97914 0.47121 0.90617 0.0
N643 N 0.02517 0.5177 0.68124 0.0
H644 H 0.94821 0.47117 0.67361 0.0
H645 H 0.97344 0.49634 0.6339 0.0
H646 H 0.04519 0.53126 0.68164 0.0
H647 H 0.02128 0.50639 0.63773 0.0
H648 H 0.99015 0.47644 0.94948 0.0
H649 H 0.96724 0.4502 0.90712 0.0
H650 H 0.99416 0.52547 0.95029 0.0
H651 H 0.01853 0.55175 0.91173 0.0
C652 C 0.51196 0.48693 0.9743 0.0
C653 C 0.52546 0.477 0.03313 0.0
C654 C 0.48587 0.50603 0.09238 0.0
C655 C 0.47496 0.51925 0.03403 0.0
N656 N 0.48203 0.52663 0.91996 0.0
N657 N 0.53 0.48447 0.14807 0.0
C658 C 0.48925 0.51093 0.97499 0.0
C659 C 0.5138 0.48863 0.09222 0.0
N660 N 0.51985 0.47269 0.91801 0.0
N661 N 0.46891 0.50861 0.1476 0.0
H662 H 0.55154 0.47352 0.15006 0.0
H663 H 0.52375 0.49512 0.19112 0.0
H664 H 0.4473 0.51943 0.14957 0.0
H665 H 0.47463 0.4968 0.18969 0.0
H666 H 0.50861 0.47707 0.87458 0.0
H667 H 0.53532 0.45415 0.91598 0.0
H668 H 0.49384 0.52344 0.8768 0.0
H669 H 0.46649 0.54514 0.91906 0.0
C670 C 0.48837 0.98451 0.37059 0.0
C671 C 0.477 0.97318 0.31084 0.0
C672 C 0.51229 0.00849 0.25479 0.0
C673 C 0.52008 0.02296 0.31388 0.0
N674 N 0.50841 0.0291 0.42708 0.0
N675 N 0.47262 0.98083 0.19624 0.0
C676 C 0.50614 0.01225 0.37168 0.0
C677 C 0.48737 0.98704 0.25287 0.0
N678 N 0.48368 0.96823 0.42607 0.0
N679 N 0.52942 0.01418 0.20093 0.0
H680 H 0.45268 0.9672 0.19387 0.0
H681 H 0.47787 0.99227 0.15348 0.0
H682 H 0.54932 0.02793 0.20165 0.0
H683 H 0.52607 0.00228 0.15789 0.0
H684 H 0.49408 0.97434 0.46953 0.0
H685 H 0.47254 0.94682 0.4275 0.0
H686 H 0.49613 0.02347 0.46861 0.0
H687 H 0.51953 0.0505 0.42969 0.0
C688 C 0.14994 0.97137 0.24434 0.0
C689 C 0.15906 0.98592 0.30234 0.0
C690 C 0.1737 0.03294 0.24379 0.0
C691 C 0.16534 0.01803 0.18532 0.0
N692 N 0.15255 0.97123 0.12796 0.0
N693 N 0.18336 0.02845 0.35825 0.0
C694 C 0.15545 0.98667 0.18508 0.0
C695 C 0.17214 0.01607 0.30231 0.0
N696 N 0.13559 0.94311 0.24604 0.0
N697 N 0.1817 0.0636 0.244 0.0
H698 H 0.18075 0.0178 0.40291 0.0
H699 H 0.19689 0.0484 0.36024 0.0
H700 H 0.18517 0.07651 0.20245 0.0
H701 H 0.18346 0.07691 0.28556 0.0
H702 H 0.12518 0.93288 0.20619 0.0
H703 H 0.13204 0.93074 0.28848 0.0
H704 H 0.14833 0.94754 0.12448 0.0
H705 H 0.15742 0.98153 0.08373 0.0
C706 C 0.03639 0.65543 0.48039 0.0
C707 C 0.02082 0.66109 0.53919 0.0
C708 C 0.97262 0.6728 0.48189 0.0
C709 C 0.98842 0.66793 0.42291 0.0
N710 N 0.03578 0.65999 0.36405 0.0
N711 N 0.97583 0.67886 0.59749 0.0
C712 C 0.0205 0.66081 0.42161 0.0
C713 C 0.98944 0.67098 0.54038 0.0
N714 N 0.06608 0.64422 0.48097 0.0
N715 N 0.94121 0.67752 0.48215 0.0
H716 H 0.9867 0.67607 0.6419 0.0
H717 H 0.95447 0.68999 0.60095 0.0
H718 H 0.92808 0.68029 0.44046 0.0
H719 H 0.92763 0.67693 0.52345 0.0
H720 H 0.07761 0.63633 0.44023 0.0
H721 H 0.07873 0.64088 0.52319 0.0
H722 H 0.05973 0.65778 0.35966 0.0
H723 H 0.02469 0.66417 0.32028 0.0
C724 C 0.32159 0.51143 0.6749 0.0
C725 C 0.32951 0.47961 0.6752 0.0
C726 C 0.33575 0.48054 0.79197 0.0
C727 C 0.33236 0.51317 0.79044 0.0
N728 N 0.32264 0.56047 0.7321 0.0
N729 N 0.34603 0.43366 0.73193 0.0
C730 C 0.32504 0.52887 0.73244 0.0
C731 C 0.33682 0.464 0.73328 0.0
N732 N 0.31087 0.52477 0.61957 0.0
N733 N 0.33726 0.46535 0.84961 0.0
H734 H 0.34611 0.42038 0.69008 0.0
H735 H 0.35542 0.42213 0.77138 0.0
H736 H 0.33647 0.47676 0.89377 0.0
H737 H 0.33648 0.44133 0.85398 0.0
H738 H 0.3021 0.54721 0.61706 0.0
H739 H 0.30846 0.5124 0.57675 0.0
H740 H 0.32062 0.57367 0.69045 0.0
H741 H 0.3245 0.57388 0.77364 0.0
C742 C 0.51295 0.84057 0.03402 0.0
C743 C 0.48056 0.84614 0.03292 0.0
C744 C 0.48031 0.84388 0.91536 0.0
C745 C 0.51304 0.84074 0.91649 0.0
N746 N 0.56129 0.84257 0.97549 0.0
N747 N 0.4335 0.85684 0.97442 0.0
C748 C 0.52961 0.8407 0.97544 0.0
C749 C 0.46421 0.84887 0.97404 0.0
N750 N 0.52773 0.83462 0.09092 0.0
N751 N 0.46471 0.8414 0.85833 0.0
H752 H 0.42097 0.86018 0.01673 0.0
H753 H 0.42096 0.86235 0.93321 0.0
H754 H 0.47598 0.83781 0.81458 0.0
H755 H 0.44065 0.84049 0.85468 0.0
H756 H 0.55051 0.82667 0.09373 0.0
H757 H 0.51661 0.83534 0.13538 0.0
H758 H 0.57446 0.84615 0.01682 0.0
H759 H 0.57439 0.84345 0.9335 0.0
C760 C 0.82495 0.02926 0.72267 0.0
C761 C 0.83024 0.01346 0.66388 0.0
C762 C 0.8405 0.96503 0.72134 0.0
C763 C 0.8359 0.98093 0.78018 0.0
N764 N 0.81991 0.0265 0.83867 0.0
N765 N 0.83636 0.96602 0.60484 0.0
C766 C 0.82679 0.01255 0.78135 0.0
C767 C 0.83593 0.98115 0.66258 0.0
N768 N 0.81976 0.06054 0.72243 0.0
N769 N 0.85005 0.93479 0.72191 0.0
H770 H 0.83256 0.97742 0.56127 0.0
H771 H 0.83779 0.94207 0.6 0.0
H772 H 0.85262 0.92198 0.7641 0.0
H773 H 0.85711 0.92274 0.68118 0.0
H774 H 0.82001 0.07437 0.76335 0.0
H775 H 0.81624 0.07324 0.68047 0.0
H776 H 0.80956 0.04819 0.84269 0.0
H777 H 0.823 0.01572 0.88305 0.0
C778 C 0.96197 0.33981 0.98429 0.0
C779 C 0.97796 0.343 0.92515 0.0
C780 C 0.02629 0.35478 0.98193 0.0
C781 C 0.01079 0.34956 0.04092 0.0
N782 N 0.96526 0.33378 0.09988 0.0
N783 N 0.02555 0.34915 0.8659 0.0
C784 C 0.979 0.34106 0.0426 0.0
C785 C 0.01022 0.34931 0.92345 0.0
N786 N 0.93033 0.33705 0.98475 0.0
N787 N 0.05616 0.36548 0.98201 0.0
H788 H 0.0144 0.34503 0.82218 0.0
H789 H 0.04956 0.35054 0.86161 0.0
H790 H 0.06884 0.36909 0.02409 0.0
H791 H 0.06771 0.37296 0.94095 0.0
H792 H 0.91694 0.33841 0.02625 0.0
H793 H 0.91701 0.33554 0.94298 0.0
H794 H 0.9434 0.32368 0.10354 0.0
H795 H 0.97645 0.33606 0.14409 0.0
C796 C 0.64639 0.53153 0.23404 0.0
C797 C 0.65419 0.51656 0.29243 0.0
C798 C 0.66821 0.46927 0.23453 0.0
C799 C 0.66204 0.48482 0.17573 0.0
N800 N 0.6506 0.53179 0.11779 0.0
N801 N 0.67649 0.4732 0.34938 0.0
C802 C 0.65261 0.5163 0.175 0.0
C803 C 0.66636 0.48603 0.293 0.0
N804 N 0.63254 0.56004 0.23524 0.0
N805 N 0.67419 0.43812 0.2349 0.0
H806 H 0.67394 0.48397 0.39392 0.0
H807 H 0.68926 0.45274 0.35172 0.0
H808 H 0.67652 0.42491 0.19329 0.0
H809 H 0.67472 0.42476 0.27654 0.0
H810 H 0.62322 0.57078 0.1948 0.0
H811 H 0.62827 0.57214 0.27773 0.0
H812 H 0.64676 0.55554 0.11411 0.0
H813 H 0.65555 0.52134 0.07374 0.0
C814 C 0.52647 0.17343 0.47822 0.0
C815 C 0.51019 0.16994 0.41937 0.0
C816 C 0.46123 0.16255 0.47662 0.0
C817 C 0.47762 0.16512 0.53553 0.0
N818 N 0.52433 0.17719 0.59449 0.0
N819 N 0.46236 0.16751 0.36021 0.0
C820 C 0.5098 0.17203 0.53693 0.0
C821 C 0.47755 0.16651 0.41793 0.0
N822 N 0.55808 0.17653 0.47778 0.0
N823 N 0.4303 0.15539 0.47709 0.0
H824 H 0.47397 0.17068 0.3167 0.0
H825 H 0.43834 0.16768 0.35534 0.0
H826 H 0.4174 0.1535 0.51931 0.0
H827 H 0.41757 0.14985 0.43619 0.0
H828 H 0.57202 0.17503 0.51848 0.0
H829 H 0.57084 0.17955 0.43572 0.0
H830 H 0.5468 0.18571 0.59893 0.0
H831 H 0.51332 0.17464 0.63876 0.0
C832 C 0.6642 0.51502 0.7937 0.0
C833 C 0.66936 0.48263 0.79294 0.0
C834 C 0.68167 0.48465 0.67813 0.0
C835 C 0.67169 0.51587 0.67729 0.0
N836 N 0.65178 0.56096 0.73226 0.0
N837 N 0.68269 0.4358 0.73602 0.0
C838 C 0.66279 0.53124 0.73466 0.0
C839 C 0.67847 0.46722 0.73573 0.0
N840 N 0.66131 0.53031 0.85097 0.0
N841 N 0.69401 0.47183 0.6238 0.0
H842 H 0.68098 0.4224 0.77759 0.0
H843 H 0.6861 0.42266 0.69472 0.0
H844 H 0.69624 0.4842 0.58093 0.0
H845 H 0.70426 0.45001 0.62235 0.0
H846 H 0.66064 0.55436 0.85488 0.0
H847 H 0.6625 0.51912 0.89535 0.0
H848 H 0.64128 0.57203 0.77102 0.0
H849 H 0.65134 0.57405 0.69015 0.0
C850 C 0.48314 0.15285 0.0378 0.0
C851 C 0.51573 0.14839 0.0373 0.0
C852 C 0.51638 0.15085 0.91975 0.0
C853 C 0.48359 0.15311 0.92025 0.0
N854 N 0.43499 0.15142 0.97775 0.0
N855 N 0.56338 0.13948 0.97976 0.0
C856 C 0.46672 0.15283 0.97874 0.0
C857 C 0.5324 0.14636 0.97875 0.0
N858 N 0.46803 0.15794 0.09462 0.0
N859 N 0.53209 0.15374 0.863 0.0
H860 H 0.57587 0.1365 0.0223 0.0
H861 H 0.57631 0.13455 0.93882 0.0
H862 H 0.52089 0.15674 0.81894 0.0
H863 H 0.55613 0.15543 0.85978 0.0
H864 H 0.44498 0.16503 0.09747 0.0
H865 H 0.47907 0.15728 0.13922 0.0
H866 H 0.42155 0.14737 0.01843 0.0
H867 H 0.42198 0.15198 0.93545 0.0
C868 C 0.83356 0.98967 0.28215 0.0
C869 C 0.84825 0.01909 0.28225 0.0
C870 C 0.85156 0.0183 0.16494 0.0
C871 C 0.83949 0.98772 0.16512 0.0
N872 N 0.82196 0.94261 0.22379 0.0
N873 N 0.87426 0.06043 0.22623 0.0
C874 C 0.83094 0.97302 0.2236 0.0
C875 C 0.85814 0.03315 0.2243 0.0
N876 N 0.82189 0.97774 0.33806 0.0
N877 N 0.85571 0.03341 0.1078 0.0
H878 H 0.87881 0.07231 0.26887 0.0
H879 H 0.88509 0.0702 0.18641 0.0
H880 H 0.8504 0.02334 0.06354 0.0
H881 H 0.86165 0.05672 0.1042 0.0
H882 H 0.80722 0.95859 0.33982 0.0
H883 H 0.82535 0.98798 0.38288 0.0
H884 H 0.81971 0.92941 0.26539 0.0
H885 H 0.81862 0.92961 0.18221 0.0
C886 C 0.98512 0.32567 0.42924 0.0
C887 C 0.01548 0.33813 0.42659 0.0
C888 C 0.01449 0.34857 0.5421 0.0
C889 C 0.98277 0.34018 0.54289 0.0
N890 N 0.93671 0.32236 0.48816 0.0
N891 N 0.05899 0.36326 0.47839 0.0
C892 C 0.96779 0.32881 0.48687 0.0
C893 C 0.03021 0.35001 0.48251 0.0
N894 N 0.97289 0.3111 0.37664 0.0
N895 N 0.0298 0.35414 0.59857 0.0
H896 H 0.07209 0.36344 0.43634 0.0
H897 H 0.06917 0.37579 0.51561 0.0
H898 H 0.01904 0.35294 0.64338 0.0
H899 H 0.05372 0.35715 0.60173 0.0
H900 H 0.95219 0.29869 0.37744 0.0
H901 H 0.98461 0.30942 0.33295 0.0
H902 H 0.92367 0.31723 0.44741 0.0
H903 H 0.92326 0.32418 0.52962 0.0
C904 C 0.3344 0.52594 0.23381 0.0
C905 C 0.33959 0.50986 0.17522 0.0
C906 C 0.3546 0.46311 0.23424 0.0
C907 C 0.34778 0.47863 0.29254 0.0
N908 N 0.32826 0.52324 0.34944 0.0
N909 N 0.34977 0.46245 0.11801 0.0
C910 C 0.3368 0.50961 0.29279 0.0
C911 C 0.34839 0.47821 0.17498 0.0
N912 N 0.32867 0.55713 0.23327 0.0
N913 N 0.36746 0.43413 0.23574 0.0
H914 H 0.34489 0.47285 0.07385 0.0
H915 H 0.35308 0.43862 0.11459 0.0
H916 H 0.37166 0.42211 0.27837 0.0
H917 H 0.37606 0.42282 0.19535 0.0
H918 H 0.32889 0.57094 0.27427 0.0
H919 H 0.32554 0.5699 0.19127 0.0
H920 H 0.31624 0.54412 0.35219 0.0
H921 H 0.3316 0.51285 0.39417 0.0
C922 C 0.47442 0.82135 0.47339 0.0
C923 C 0.4903 0.82656 0.41471 0.0
C924 C 0.5393 0.83308 0.47274 0.0
C925 C 0.52261 0.83214 0.53132 0.0
N926 N 0.47427 0.82787 0.58903 0.0
N927 N 0.53723 0.83792 0.35659 0.0
C928 C 0.49018 0.8267 0.5322 0.0
C929 C 0.52267 0.83236 0.4138 0.0
N930 N 0.44429 0.81141 0.47289 0.0
N931 N 0.57101 0.8343 0.47369 0.0
H932 H 0.52603 0.83561 0.31234 0.0
H933 H 0.55989 0.84604 0.35287 0.0
H934 H 0.58383 0.83543 0.51619 0.0
H935 H 0.58476 0.83195 0.4329 0.0
H936 H 0.43247 0.80419 0.51384 0.0
H937 H 0.4317 0.80777 0.4308 0.0
H938 H 0.45017 0.82791 0.59209 0.0
H939 H 0.48506 0.83108 0.63342 0.0
C940 C 0.18578 0.0124 0.68955 0.0
C941 C 0.17547 0.98129 0.6881 0.0
C942 C 0.16834 0.98166 0.80468 0.0
C943 C 0.17361 0.01403 0.80448 0.0
N944 N 0.18684 0.06104 0.74802 0.0
N945 N 0.15567 0.936 0.74247 0.0
C946 C 0.18271 0.02962 0.74745 0.0
C947 C 0.16671 0.96569 0.74531 0.0
N948 N 0.19823 0.02538 0.63549 0.0
N949 N 0.16541 0.96622 0.86175 0.0
H950 H 0.15508 0.92314 0.70007 0.0
H951 H 0.14535 0.92474 0.78118 0.0
H952 H 0.16683 0.97732 0.9062 0.0
H953 H 0.1645 0.94218 0.8654 0.0
H954 H 0.2088 0.04706 0.63465 0.0
H955 H 0.20026 0.01328 0.59228 0.0
H956 H 0.19008 0.07429 0.70677 0.0
H957 H 0.18518 0.07436 0.78968 0.0
C958 C 0.96734 0.67404 0.9836 0.0
C959 C 0.98261 0.66472 0.04092 0.0
C960 C 0.03067 0.65556 0.98206 0.0
C961 C 0.0157 0.66558 0.92494 0.0
N962 N 0.97225 0.68948 0.87172 0.0
N963 N 0.03018 0.65453 0.09833 0.0
C964 C 0.98478 0.6766 0.92589 0.0
C965 C 0.01474 0.65787 0.04128 0.0
N966 N 0.93604 0.67927 0.98397 0.0
N967 N 0.05978 0.64297 0.97942 0.0
H968 H 0.01933 0.65657 0.14291 0.0
H969 H 0.05422 0.6527 0.10178 0.0
H970 H 0.07274 0.6417 0.93722 0.0
H971 H 0.0703 0.63181 0.01811 0.0
H972 H 0.92293 0.6829 0.94262 0.0
H973 H 0.92262 0.67802 0.02557 0.0
H974 H 0.95087 0.70067 0.87067 0.0
H975 H 0.98442 0.69107 0.8285 0.0
C976 C 0.11911 0.17947 0.18969 0.0
C977 C 0.09894 0.20077 0.15924 0.0
C978 C 0.10387 0.17209 0.05785 0.0
C979 C 0.12102 0.14895 0.09043 0.0
N980 N 0.13892 0.12714 0.19078 0.0
N981 N 0.06762 0.21469 0.06747 0.0
C982 C 0.12722 0.15176 0.15726 0.0
C983 C 0.09017 0.19649 0.09396 0.0
N984 N 0.13055 0.18571 0.24961 0.0
N985 N 0.10096 0.17089 0.99251 0.0
H986 H 0.0563 0.23192 0.09335 0.0
H987 H 0.05811 0.2108 0.02215 0.0
H988 H 0.11056 0.1531 0.96497 0.0
H989 H 0.09141 0.18878 0.96531 0.0
H990 H 0.14784 0.17247 0.27139 0.0
H991 H 0.12484 0.20572 0.27515 0.0
H992 H 0.14091 0.12677 0.24067 0.0
H993 H 0.14345 0.10577 0.16948 0.0
C994 C 0.85377 0.62778 0.41264 0.0
C995 C 0.85208 0.63418 0.3458 0.0
C996 C 0.79628 0.62346 0.34648 0.0
C997 C 0.79796 0.61709 0.41356 0.0
N998 N 0.82588 0.6223 0.51312 0.0
N999 N 0.82124 0.64531 0.2521 0.0
C1000 C 0.82602 0.62222 0.44742 0.0
C1001 C 0.8231 0.63453 0.31377 0.0
N1002 N 0.88199 0.62614 0.44263 0.0
N1003 N 0.76971 0.61734 0.31316 0.0
H1004 H 0.84064 0.65257 0.22619 0.0
H1005 H 0.80033 0.64934 0.22843 0.0
H1006 H 0.74925 0.61068 0.3354 0.0
H1007 H 0.76832 0.6174 0.2632 0.0
H1008 H 0.88492 0.61811 0.48943 0.0
H1009 H 0.90289 0.6307 0.41932 0.0
H1010 H 0.84492 0.62872 0.54093 0.0
H1011 H 0.80562 0.61911 0.53978 0.0
C1012 C 0.39527 0.32829 0.58165 0.0
C1013 C 0.36818 0.34526 0.59739 0.0
C1014 C 0.35791 0.30888 0.68593 0.0
C1015 C 0.38752 0.29548 0.67652 0.0
N1016 N 0.43661 0.29543 0.62047 0.0
N1017 N 0.32586 0.35429 0.67215 0.0
C1018 C 0.40682 0.30592 0.62563 0.0
C1019 C 0.34973 0.33605 0.65104 0.0
N1020 N 0.4096 0.33308 0.52394 0.0
N1021 N 0.33772 0.29598 0.7289 0.0
H1022 H 0.31923 0.37493 0.65032 0.0
H1023 H 0.31433 0.35045 0.71539 0.0
H1024 H 0.34336 0.2768 0.7571 0.0
H1025 H 0.31456 0.30267 0.73253 0.0
H1026 H 0.42775 0.31931 0.50725 0.0
H1027 H 0.40111 0.34861 0.48972 0.0
H1028 H 0.45265 0.30472 0.58841 0.0
H1029 H 0.44623 0.27944 0.65218 0.0
C1030 C 0.65955 0.85214 0.89494 0.0
C1031 C 0.65081 0.86825 0.83769 0.0
C1032 C 0.69093 0.90716 0.85882 0.0
C1033 C 0.70053 0.89031 0.91396 0.0
N1034 N 0.69902 0.84323 0.97603 0.0
N1035 N 0.66453 0.90544 0.75609 0.0
C1036 C 0.68663 0.86151 0.92886 0.0
C1037 C 0.66854 0.89402 0.81681 0.0
N1038 N 0.64104 0.82945 0.92012 0.0
N1039 N 0.70236 0.93616 0.8475 0.0
H1040 H 0.64918 0.89552 0.72318 0.0
H1041 H 0.6788 0.92238 0.73613 0.0
H1042 H 0.71863 0.94675 0.87724 0.0
H1043 H 0.69367 0.95076 0.81188 0.0
H1044 H 0.64438 0.82013 0.96578 0.0
H1045 H 0.62074 0.82154 0.89881 0.0
H1046 H 0.69207 0.82042 0.98389 0.0
H1047 H 0.71808 0.84989 0.0037 0.0
C1048 C 0.88813 0.20328 0.59168 0.0
C1049 C 0.88731 0.20276 0.66015 0.0
C1050 C 0.8717 0.14822 0.65787 0.0
C1051 C 0.87144 0.14906 0.5897 0.0
N1052 N 0.8728 0.17855 0.49165 0.0
N1053 N 0.86985 0.17763 0.75691 0.0
C1054 C 0.8774 0.17705 0.55657 0.0
C1055 C 0.87638 0.17608 0.69271 0.0
N1056 N 0.90066 0.22797 0.56003 0.0
N1057 N 0.86848 0.12062 0.68944 0.0
H1058 H 0.87219 0.19803 0.78341 0.0
H1059 H 0.85905 0.15981 0.78216 0.0
H1060 H 0.86499 0.09963 0.66572 0.0
H1061 H 0.87188 0.11811 0.73873 0.0
H1062 H 0.90571 0.22788 0.5111 0.0
H1063 H 0.90761 0.24807 0.58323 0.0
H1064 H 0.87352 0.19918 0.46568 0.0
H1065 H 0.86578 0.15948 0.46445 0.0
C1066 C 0.82319 0.34702 0.85223 0.0
C1067 C 0.83952 0.36983 0.81653 0.0
C1068 C 0.80787 0.41055 0.8657 0.0
C1069 C 0.79587 0.38838 0.90979 0.0
N1070 N 0.79263 0.33552 0.94695 0.0
N1071 N 0.83507 0.41943 0.76528 0.0
C1072 C 0.80331 0.35652 0.90302 0.0
C1073 C 0.8281 0.40057 0.81599 0.0
N1074 N 0.8246 0.31664 0.83428 0.0
N1075 N 0.80094 0.44128 0.87263 0.0
H1076 H 0.84741 0.41136 0.7255 0.0
H1077 H 0.82549 0.44135 0.75855 0.0
H1078 H 0.7856 0.44965 0.90706 0.0
H1079 H 0.81198 0.45883 0.84704 0.0
H1080 H 0.81153 0.29919 0.85572 0.0
H1081 H 0.83485 0.30971 0.79137 0.0
H1082 H 0.80032 0.31266 0.94902 0.0
H1083 H 0.77794 0.34153 0.98474 0.0
C1084 C 0.61721 0.2948 0.08913 0.0
C1085 C 0.61149 0.2963 0.15643 0.0
C1086 C 0.62331 0.35176 0.1563 0.0
C1087 C 0.62924 0.35022 0.0893 0.0
N1088 N 0.63881 0.31978 0.99452 0.0
N1089 N 0.61801 0.32355 0.2564 0.0
C1090 C 0.62857 0.3215 0.05657 0.0
C1091 C 0.61743 0.32401 0.19071 0.0
N1092 N 0.61031 0.26851 0.05565 0.0
N1093 N 0.62239 0.37983 0.18678 0.0
H1094 H 0.61459 0.30327 0.28282 0.0
H1095 H 0.62505 0.3423 0.28434 0.0
H1096 H 0.62704 0.40075 0.16362 0.0
H1097 H 0.61476 0.38269 0.23387 0.0
H1098 H 0.60997 0.26732 0.00568 0.0
H1099 H 0.60344 0.2481 0.07784 0.0
H1100 H 0.64204 0.29896 0.97013 0.0
H1101 H 0.64643 0.33914 0.96895 0.0
C1102 C 0.64691 0.12721 0.41067 0.0
C1103 C 0.64733 0.13282 0.3434 0.0
C1104 C 0.70328 0.1228 0.34071 0.0
C1105 C 0.7028 0.11694 0.40802 0.0
N1106 N 0.67665 0.12265 0.50929 0.0
N1107 N 0.67643 0.14314 0.24701 0.0
C1108 C 0.67532 0.12212 0.44365 0.0
C1109 C 0.67577 0.13316 0.30936 0.0
N1110 N 0.61929 0.12598 0.44288 0.0
N1111 N 0.72944 0.1168 0.30602 0.0
H1112 H 0.65652 0.14966 0.22186 0.0
H1113 H 0.69687 0.14719 0.22174 0.0
H1114 H 0.75032 0.11072 0.32735 0.0
H1115 H 0.73009 0.11643 0.25601 0.0
H1116 H 0.61721 0.11841 0.49019 0.0
H1117 H 0.59798 0.13056 0.42113 0.0
H1118 H 0.65809 0.12913 0.53834 0.0
H1119 H 0.6974 0.11971 0.53452 0.0
C1120 C 0.63849 0.6848 0.68564 0.0
C1121 C 0.6091 0.69822 0.67351 0.0
C1122 C 0.60296 0.66521 0.57843 0.0
C1123 C 0.62993 0.64849 0.5963 0.0
N1124 N 0.67118 0.63973 0.67377 0.0
N1125 N 0.56129 0.69885 0.61279 0.0
C1126 C 0.64744 0.65778 0.65124 0.0
C1127 C 0.59076 0.68785 0.621 0.0
N1128 N 0.65777 0.69762 0.73058 0.0
N1129 N 0.58946 0.65995 0.51997 0.0
H1130 H 0.55143 0.71544 0.64278 0.0
H1131 H 0.54571 0.68963 0.57962 0.0
H1132 H 0.59839 0.64411 0.4869 0.0
H1133 H 0.57152 0.6735 0.50156 0.0
H1134 H 0.68087 0.69102 0.7362 0.0
H1135 H 0.65149 0.71662 0.7587 0.0
H1136 H 0.68197 0.64346 0.71791 0.0
H1137 H 0.67847 0.61932 0.65191 0.0
C1138 C 0.34775 0.09725 0.88174 0.0
C1139 C 0.34877 0.1239 0.8414 0.0
C1140 C 0.30042 0.14206 0.89105 0.0
C1141 C 0.29767 0.1136 0.92459 0.0
N1142 N 0.31397 0.06007 0.93227 0.0
N1143 N 0.32052 0.16719 0.7959 0.0
C1144 C 0.31971 0.08983 0.9134 0.0
C1145 C 0.32332 0.14494 0.84221 0.0
N1146 N 0.37381 0.08033 0.89494 0.0
N1147 N 0.28253 0.16686 0.9078 0.0
H1148 H 0.33565 0.16874 0.75695 0.0
H1149 H 0.30113 0.18153 0.79221 0.0
H1150 H 0.26694 0.16616 0.94607 0.0
H1151 H 0.28567 0.18887 0.88819 0.0
H1152 H 0.37388 0.06218 0.92807 0.0
H1153 H 0.39603 0.08681 0.88076 0.0
H1154 H 0.32868 0.04173 0.92047 0.0
H1155 H 0.29292 0.0532 0.95244 0.0
C1156 C 0.87169 0.82264 0.05721 0.0
C1157 C 0.8682 0.85171 0.08775 0.0
C1158 C 0.87526 0.82718 0.19281 0.0
C1159 C 0.88422 0.79933 0.16203 0.0
N1160 N 0.89208 0.77052 0.06359 0.0
N1161 N 0.86965 0.88277 0.18425 0.0
C1162 C 0.8823 0.79682 0.09383 0.0
C1163 C 0.87059 0.85427 0.15554 0.0
N1164 N 0.86478 0.81975 0.99337 0.0
N1165 N 0.8708 0.82751 0.25784 0.0
H1166 H 0.86651 0.9033 0.15865 0.0
H1167 H 0.87463 0.88633 0.23268 0.0
H1168 H 0.87324 0.80768 0.28613 0.0
H1169 H 0.86151 0.84637 0.28245 0.0
H1170 H 0.86369 0.79852 0.96968 0.0
H1171 H 0.85766 0.83847 0.96519 0.0
H1172 H 0.89529 0.76893 0.01411 0.0
H1173 H 0.89837 0.75055 0.0881 0.0
C1174 C 0.18103 0.36269 0.43267 0.0
C1175 C 0.20525 0.37842 0.40031 0.0
C1176 C 0.1751 0.37809 0.30023 0.0
C1177 C 0.15052 0.36313 0.33291 0.0
N1178 N 0.13252 0.33447 0.4256 0.0
N1179 N 0.22962 0.39166 0.30007 0.0
C1180 C 0.15437 0.35305 0.39758 0.0
C1181 C 0.20363 0.38315 0.33293 0.0
N1182 N 0.18313 0.35799 0.49752 0.0
N1183 N 0.17098 0.38792 0.23834 0.0
H1184 H 0.25113 0.39305 0.32234 0.0
H1185 H 0.23072 0.3934 0.25023 0.0
H1186 H 0.15096 0.3831 0.21189 0.0
H1187 H 0.18658 0.40226 0.21442 0.0
H1188 H 0.16472 0.35056 0.52594 0.0
H1189 H 0.20325 0.36281 0.52364 0.0
H1190 H 0.13551 0.32378 0.47002 0.0
H1191 H 0.11215 0.32767 0.40264 0.0
C1192 C 0.37909 0.70072 0.09041 0.0
C1193 C 0.38637 0.69891 0.15707 0.0
C1194 C 0.37629 0.64311 0.15609 0.0
C1195 C 0.36882 0.64493 0.08973 0.0
N1196 N 0.35607 0.6758 0.99709 0.0
N1197 N 0.3827 0.67077 0.25657 0.0
C1198 C 0.36778 0.67393 0.05804 0.0
C1199 C 0.38197 0.67079 0.19088 0.0
N1200 N 0.38453 0.72742 0.05715 0.0
N1201 N 0.37886 0.61489 0.18555 0.0
H1202 H 0.38599 0.69097 0.28332 0.0
H1203 H 0.37681 0.65161 0.28443 0.0
H1204 H 0.37441 0.59398 0.16221 0.0
H1205 H 0.38765 0.61199 0.2318 0.0
H1206 H 0.3837 0.72894 0.00724 0.0
H1207 H 0.39139 0.74785 0.07926 0.0
H1208 H 0.35159 0.69671 0.97384 0.0
H1209 H 0.34851 0.65641 0.97151 0.0
C1210 C 0.32764 0.87223 0.44961 0.0
C1211 C 0.30007 0.88029 0.41649 0.0
C1212 C 0.32429 0.86493 0.31436 0.0
C1213 C 0.35314 0.8625 0.34639 0.0
N1214 N 0.3832 0.8642 0.44434 0.0
N1215 N 0.27176 0.88459 0.31656 0.0
C1216 C 0.35504 0.86598 0.41413 0.0
C1217 C 0.29805 0.87618 0.3487 0.0
N1218 N 0.3273 0.87008 0.51516 0.0
N1219 N 0.32203 0.85656 0.25116 0.0
H1220 H 0.25153 0.89108 0.33988 0.0
H1221 H 0.27035 0.88635 0.26675 0.0
H1222 H 0.34105 0.84902 0.2244 0.0
H1223 H 0.30102 0.85466 0.22671 0.0
H1224 H 0.3458 0.86159 0.54217 0.0
H1225 H 0.30724 0.87381 0.54213 0.0
H1226 H 0.38664 0.87013 0.49232 0.0
H1227 H 0.4037 0.85862 0.42043 0.0
C1228 C 0.10875 0.83165 0.57536 0.0
C1229 C 0.13478 0.84896 0.59635 0.0
C1230 C 0.14314 0.81151 0.68377 0.0
C1231 C 0.11433 0.79751 0.66896 0.0
N1232 N 0.06781 0.79598 0.60418 0.0
N1233 N 0.17469 0.85761 0.67679 0.0
C1234 C 0.09665 0.80793 0.61548 0.0
C1235 C 0.1518 0.83927 0.65166 0.0
N1236 N 0.09602 0.83749 0.51639 0.0
N1237 N 0.16204 0.79858 0.72924 0.0
H1238 H 0.18169 0.87853 0.65669 0.0
H1239 H 0.18499 0.85349 0.72128 0.0
H1240 H 0.15592 0.77892 0.75548 0.0
H1241 H 0.18483 0.80573 0.73696 0.0
H1242 H 0.07888 0.82368 0.49571 0.0
H1243 H 0.10487 0.85424 0.48523 0.0
H1244 H 0.05247 0.80513 0.57044 0.0
H1245 H 0.05817 0.77843 0.63203 0.0
C1246 C 0.18905 0.58775 0.87074 0.0
C1247 C 0.19892 0.60536 0.92466 0.0
C1248 C 0.15781 0.64319 0.90419 0.0
C1249 C 0.14937 0.6268 0.84724 0.0
N1250 N 0.16229 0.58802 0.7683 0.0
N1251 N 0.19725 0.65301 0.98479 0.0
C1252 C 0.16669 0.60046 0.82802 0.0
C1253 C 0.18491 0.63424 0.93844 0.0
N1254 N 0.20013 0.55844 0.86149 0.0
N1255 N 0.13887 0.66571 0.92872 0.0
H1256 H 0.21651 0.64677 0.01231 0.0
H1257 H 0.19004 0.6758 0.99196 0.0
H1258 H 0.11803 0.67249 0.90771 0.0
H1259 H 0.14224 0.67564 0.97382 0.0
H1260 H 0.19133 0.5434 0.8268 0.0
H1261 H 0.21611 0.54807 0.89227 0.0
H1262 H 0.17632 0.57062 0.74938 0.0
H1263 H 0.14674 0.59737 0.73506 0.0
loop_
_geom_bond_atom_site_label_1
_geom_bond_atom_site_label_2
_geom_bond_distance
_geom_bond_site_symmetry_2
_ccdc_geom_bond_type
Co0 O3 1.970 . S
Co0 N17 1.989 1_554 S
Co0 O25 1.967 . S
Co0 O32 1.920 . S
Co1 O4 1.966 . S
Co1 N10 2.022 . S
Co1 N18 1.993 1_554 S
Co1 O26 1.941 . S
C2 O3 1.258 . S
C2 O4 1.263 . S
O3 Co0 1.970 . S
O3 C2 1.258 . S
O4 Co1 1.966 . S
O4 C2 1.263 . S
C5 O6 1.235 1_554 S
C5 O32 1.289 . S
O6 C5 1.235 1_556 S
C7 C9 1.400 . S
C7 N10 1.351 1_556 S
C7 C12 1.501 . S
C8 C9 1.387 . S
C8 N11 1.341 . S
C9 C7 1.400 . S
C9 C8 1.387 . S
N10 Co1 2.022 . S
N10 C7 1.351 1_554 S
N10 N11 1.365 1_554 S
N11 C8 1.341 . S
N11 N10 1.365 1_556 S
N11 H31 0.862 1_556 S
C12 C7 1.501 . S
C12 H13 0.961 1_556 S
C12 H14 0.961 . S
C12 H15 0.960 1_556 S
H13 C12 0.961 1_554 S
H14 C12 0.961 . S
H15 C12 0.960 1_554 S
C16 N17 1.342 . S
C16 C20 1.401 . S
C16 C21 1.499 1_545 S
N17 Co0 1.989 1_556 S
N17 C16 1.342 . S
N17 N18 1.388 . S
N18 Co1 1.993 1_556 S
N18 N17 1.388 . S
N18 C19 1.346 . S
C19 N18 1.346 . S
C19 C20 1.396 . S
C19 C29 1.510 . S
C20 C16 1.401 . S
C20 C19 1.396 . S
C21 C16 1.499 1_565 S
C21 H22 0.959 1_565 S
C21 H23 0.960 1_565 S
C21 H24 0.961 . S
H22 C21 0.959 1_545 S
H23 C21 0.960 1_545 S
H24 C21 0.961 . S
O25 Co0 1.967 . S
O25 C33 1.258 . S
O26 Co1 1.941 . S
O26 C33 1.266 . S
H27 C29 0.959 . S
H28 C29 0.961 . S
C29 C19 1.510 . S
C29 H27 0.959 . S
C29 H28 0.961 . S
C29 H30 0.960 . S
H30 C29 0.960 . S
H31 N11 0.862 1_554 S
O32 Co0 1.920 . S
O32 C5 1.289 . S
C33 O25 1.258 . S
C33 O26 1.266 . S
Co34 O37 1.970 . S
Co34 N51 1.989 . S
Co34 O59 1.967 . S
Co34 O66 1.920 . S
Co35 O38 1.966 . S
Co35 N44 2.022 . S
Co35 N52 1.993 . S
Co35 O60 1.941 . S
C36 O37 1.258 . S
C36 O38 1.263 . S
O37 Co34 1.970 . S
O37 C36 1.258 . S
O38 Co35 1.966 . S
O38 C36 1.263 . S
C39 O40 1.235 . S
C39 O66 1.289 . S
O40 C39 1.235 . S
C41 C43 1.400 . S
C41 N44 1.351 . S
C41 C46 1.501 . S
C42 C43 1.387 . S
C42 N45 1.341 . S
C43 C41 1.400 . S
C43 C42 1.387 . S
N44 Co35 2.022 . S
N44 C41 1.351 . S
N44 N45 1.365 . S
N45 C42 1.341 . S
N45 N44 1.365 . S
N45 H65 0.862 . S
C46 C41 1.501 . S
C46 H47 0.961 . S
C46 H48 0.961 . S
C46 H49 0.960 . S
H47 C46 0.961 . S
H48 C46 0.961 . S
H49 C46 0.960 . S
C50 N51 1.342 . S
C50 C54 1.401 . S
C50 C55 1.499 1_655 S
N51 Co34 1.989 . S
N51 C50 1.342 . S
N51 N52 1.388 . S
N52 Co35 1.993 . S
N52 N51 1.388 . S
N52 C53 1.346 . S
C53 N52 1.346 . S
C53 C54 1.396 . S
C53 C63 1.510 . S
C54 C50 1.401 . S
C54 C53 1.396 . S
C55 C50 1.499 1_455 S
C55 H56 0.959 1_455 S
C55 H57 0.960 1_455 S
C55 H58 0.961 . S
H56 C55 0.959 1_655 S
H57 C55 0.960 1_655 S
H58 C55 0.961 . S
O59 Co34 1.967 . S
O59 C67 1.258 . S
O60 Co35 1.941 . S
O60 C67 1.266 . S
H61 C63 0.959 . S
H62 C63 0.961 . S
C63 C53 1.510 . S
C63 H61 0.959 . S
C63 H62 0.961 . S
C63 H64 0.960 . S
H64 C63 0.960 . S
H65 N45 0.862 . S
O66 Co34 1.920 . S
O66 C39 1.289 . S
C67 O59 1.258 . S
C67 O60 1.266 . S
Co68 O71 1.970 . S
Co68 N85 1.989 . S
Co68 O93 1.967 . S
Co68 O100 1.920 . S
Co69 O72 1.966 . S
Co69 N78 2.022 . S
Co69 N86 1.993 . S
Co69 O94 1.941 . S
C70 O71 1.258 . S
C70 O72 1.263 . S
O71 Co68 1.970 . S
O71 C70 1.258 . S
O72 Co69 1.966 . S
O72 C70 1.263 . S
C73 O74 1.235 . S
C73 O100 1.289 . S
O74 C73 1.235 . S
C75 C77 1.400 . S
C75 N78 1.351 . S
C75 C80 1.501 . S
C76 C77 1.387 . S
C76 N79 1.341 . S
C77 C75 1.400 . S
C77 C76 1.387 . S
N78 Co69 2.022 . S
N78 C75 1.351 . S
N78 N79 1.365 . S
N79 C76 1.341 . S
N79 N78 1.365 . S
N79 H99 0.862 . S
C80 C75 1.501 . S
C80 H81 0.961 . S
C80 H82 0.961 . S
C80 H83 0.960 . S
H81 C80 0.961 . S
H82 C80 0.961 . S
H83 C80 0.960 . S
C84 N85 1.342 . S
C84 C88 1.401 . S
C84 C89 1.499 . S
N85 Co68 1.989 . S
N85 C84 1.342 . S
N85 N86 1.388 . S
N86 Co69 1.993 . S
N86 N85 1.388 . S
N86 C87 1.346 . S
C87 N86 1.346 . S
C87 C88 1.396 . S
C87 C97 1.510 . S
C88 C84 1.401 . S
C88 C87 1.396 . S
C89 C84 1.499 . S
C89 H90 0.959 . S
C89 H91 0.960 . S
C89 H92 0.961 . S
H90 C89 0.959 . S
H91 C89 0.960 . S
H92 C89 0.961 . S
O93 Co68 1.967 . S
O93 C101 1.258 . S
O94 Co69 1.941 . S
O94 C101 1.266 . S
H95 C97 0.959 . S
H96 C97 0.961 . S
C97 C87 1.510 . S
C97 H95 0.959 . S
C97 H96 0.961 . S
C97 H98 0.960 . S
H98 C97 0.960 . S
H99 N79 0.862 . S
O100 Co68 1.920 . S
O100 C73 1.289 . S
C101 O93 1.258 . S
C101 O94 1.266 . S
Co102 O105 1.970 . S
Co102 N119 1.989 . S
Co102 O127 1.967 . S
Co102 O134 1.920 . S
Co103 O106 1.966 . S
Co103 N112 2.022 . S
Co103 N120 1.993 . S
Co103 O128 1.941 . S
C104 O105 1.258 . S
C104 O106 1.263 . S
O105 Co102 1.970 . S
O105 C104 1.258 . S
O106 Co103 1.966 . S
O106 C104 1.263 . S
C107 O108 1.235 . S
C107 O134 1.289 . S
O108 C107 1.235 . S
C109 C111 1.400 . S
C109 N112 1.351 . S
C109 C114 1.501 . S
C110 C111 1.387 . S
C110 N113 1.341 . S
C111 C109 1.400 . S
C111 C110 1.387 . S
N112 Co103 2.022 . S
N112 C109 1.351 . S
N112 N113 1.365 . S
N113 C110 1.341 . S
N113 N112 1.365 . S
N113 H133 0.862 . S
C114 C109 1.501 . S
C114 H115 0.961 . S
C114 H116 0.961 . S
C114 H117 0.960 . S
H115 C114 0.961 . S
H116 C114 0.961 . S
H117 C114 0.960 . S
C118 N119 1.342 . S
C118 C122 1.401 . S
C118 C123 1.499 . S
N119 Co102 1.989 . S
N119 C118 1.342 . S
N119 N120 1.388 . S
N120 Co103 1.993 . S
N120 N119 1.388 . S
N120 C121 1.346 . S
C121 N120 1.346 . S
C121 C122 1.396 . S
C121 C131 1.510 . S
C122 C118 1.401 . S
C122 C121 1.396 . S
C123 C118 1.499 . S
C123 H124 0.959 . S
C123 H125 0.960 . S
C123 H126 0.961 . S
H124 C123 0.959 . S
H125 C123 0.960 . S
H126 C123 0.961 . S
O127 Co102 1.967 . S
O127 C135 1.258 . S
O128 Co103 1.941 . S
O128 C135 1.266 . S
H129 C131 0.959 . S
H130 C131 0.961 . S
C131 C121 1.510 . S
C131 H129 0.959 . S
C131 H130 0.961 . S
C131 H132 0.960 . S
H132 C131 0.960 . S
H133 N113 0.862 . S
O134 Co102 1.920 . S
O134 C107 1.289 . S
C135 O127 1.258 . S
C135 O128 1.266 . S
Co136 O139 1.970 . S
Co136 N153 1.989 . S
Co136 O161 1.967 . S
Co136 O168 1.920 . S
Co137 O140 1.966 . S
Co137 N146 2.022 . S
Co137 N154 1.993 . S
Co137 O162 1.941 . S
C138 O139 1.258 . S
C138 O140 1.263 . S
O139 Co136 1.970 . S
O139 C138 1.258 . S
O140 Co137 1.966 . S
O140 C138 1.263 . S
C141 O142 1.235 . S
C141 O168 1.289 . S
O142 C141 1.235 . S
C143 C145 1.400 . S
C143 N146 1.351 . S
C143 C148 1.501 . S
C144 C145 1.387 . S
C144 N147 1.341 . S
C145 C143 1.400 . S
C145 C144 1.387 . S
N146 Co137 2.022 . S
N146 C143 1.351 . S
N146 N147 1.365 . S
N147 C144 1.341 . S
N147 N146 1.365 . S
N147 H167 0.862 . S
C148 C143 1.501 . S
C148 H149 0.961 . S
C148 H150 0.961 . S
C148 H151 0.960 . S
H149 C148 0.961 . S
H150 C148 0.961 . S
H151 C148 0.960 . S
C152 N153 1.342 . S
C152 C156 1.401 . S
C152 C157 1.499 1_545 S
N153 Co136 1.989 . S
N153 C152 1.342 . S
N153 N154 1.388 . S
N154 Co137 1.993 . S
N154 N153 1.388 . S
N154 C155 1.346 . S
C155 N154 1.346 . S
C155 C156 1.396 . S
C155 C165 1.510 . S
C156 C152 1.401 . S
C156 C155 1.396 . S
C157 C152 1.499 1_565 S
C157 H158 0.959 1_565 S
C157 H159 0.960 1_565 S
C157 H160 0.961 . S
H158 C157 0.959 1_545 S
H159 C157 0.960 1_545 S
H160 C157 0.961 . S
O161 Co136 1.967 . S
O161 C169 1.258 . S
O162 Co137 1.941 . S
O162 C169 1.266 . S
H163 C165 0.959 . S
H164 C165 0.961 . S
C165 C155 1.510 . S
C165 H163 0.959 . S
C165 H164 0.961 . S
C165 H166 0.960 . S
H166 C165 0.960 . S
H167 N147 0.862 . S
O168 Co136 1.920 . S
O168 C141 1.289 . S
C169 O161 1.258 . S
C169 O162 1.266 . S
Co170 O173 1.970 . S
Co170 N187 1.989 . S
Co170 O195 1.967 . S
Co170 O202 1.920 . S
Co171 O174 1.966 . S
Co171 N180 2.022 . S
Co171 N188 1.993 . S
Co171 O196 1.941 . S
C172 O173 1.258 . S
C172 O174 1.263 . S
O173 Co170 1.970 . S
O173 C172 1.258 . S
O174 Co171 1.966 . S
O174 C172 1.263 . S
C175 O176 1.235 . S
C175 O202 1.289 . S
O176 C175 1.235 . S
C177 C179 1.400 . S
C177 N180 1.351 . S
C177 C182 1.501 . S
C178 C179 1.387 . S
C178 N181 1.341 . S
C179 C177 1.400 . S
C179 C178 1.387 . S
N180 Co171 2.022 . S
N180 C177 1.351 . S
N180 N181 1.365 . S
N181 C178 1.341 . S
N181 N180 1.365 . S
N181 H201 0.862 . S
C182 C177 1.501 . S
C182 H183 0.961 . S
C182 H184 0.961 . S
C182 H185 0.960 . S
H183 C182 0.961 . S
H184 C182 0.961 . S
H185 C182 0.960 . S
C186 N187 1.342 . S
C186 C190 1.401 . S
C186 C191 1.499 1_655 S
N187 Co170 1.989 . S
N187 C186 1.342 . S
N187 N188 1.388 . S
N188 Co171 1.993 . S
N188 N187 1.388 . S
N188 C189 1.346 . S
C189 N188 1.346 . S
C189 C190 1.396 . S
C189 C199 1.510 . S
C190 C186 1.401 . S
C190 C189 1.396 . S
C191 C186 1.499 1_455 S
C191 H192 0.959 1_455 S
C191 H193 0.960 1_455 S
C191 H194 0.961 . S
H192 C191 0.959 1_655 S
H193 C191 0.960 1_655 S
H194 C191 0.961 . S
O195 Co170 1.967 . S
O195 C203 1.258 . S
O196 Co171 1.941 . S
O196 C203 1.266 . S
H197 C199 0.959 . S
H198 C199 0.961 . S
C199 C189 1.510 . S
C199 H197 0.959 . S
C199 H198 0.961 . S
C199 H200 0.960 . S
H200 C199 0.960 . S
H201 N181 0.862 . S
O202 Co170 1.920 . S
O202 C175 1.289 . S
C203 O195 1.258 . S
C203 O196 1.266 . S
Co204 O207 1.970 . S
Co204 N221 1.989 1_554 S
Co204 O229 1.967 . S
Co204 O236 1.920 . S
Co205 O208 1.966 . S
Co205 N214 2.022 . S
Co205 N222 1.993 1_554 S
Co205 O230 1.941 . S
C206 O207 1.258 . S
C206 O208 1.263 . S
O207 Co204 1.970 . S
O207 C206 1.258 . S
O208 Co205 1.966 . S
O208 C206 1.263 . S
C209 O210 1.235 1_554 S
C209 O236 1.289 . S
O210 C209 1.235 1_556 S
C211 C213 1.400 . S
C211 N214 1.351 1_556 S
C211 C216 1.501 . S
C212 C213 1.387 . S
C212 N215 1.341 . S
C213 C211 1.400 . S
C213 C212 1.387 . S
N214 Co205 2.022 . S
N214 C211 1.351 1_554 S
N214 N215 1.365 1_554 S
N215 C212 1.341 . S
N215 N214 1.365 1_556 S
N215 H235 0.862 1_556 S
C216 C211 1.501 . S
C216 H217 0.961 1_556 S
C216 H218 0.961 . S
C216 H219 0.960 1_556 S
H217 C216 0.961 1_554 S
H218 C216 0.961 . S
H219 C216 0.960 1_554 S
C220 N221 1.342 . S
C220 C224 1.401 . S
C220 C225 1.499 . S
N221 Co204 1.989 1_556 S
N221 C220 1.342 . S
N221 N222 1.388 . S
N222 Co205 1.993 1_556 S
N222 N221 1.388 . S
N222 C223 1.346 . S
C223 N222 1.346 . S
C223 C224 1.396 . S
C223 C233 1.510 . S
C224 C220 1.401 . S
C224 C223 1.396 . S
C225 C220 1.499 . S
C225 H226 0.959 . S
C225 H227 0.960 . S
C225 H228 0.961 . S
H226 C225 0.959 . S
H227 C225 0.960 . S
H228 C225 0.961 . S
O229 Co204 1.967 . S
O229 C237 1.258 . S
O230 Co205 1.941 . S
O230 C237 1.266 . S
H231 C233 0.959 . S
H232 C233 0.961 . S
C233 C223 1.510 . S
C233 H231 0.959 . S
C233 H232 0.961 . S
C233 H234 0.960 . S
H234 C233 0.960 . S
H235 N215 0.862 1_554 S
O236 Co204 1.920 . S
O236 C209 1.289 . S
C237 O229 1.258 . S
C237 O230 1.266 . S
Co238 O241 1.970 . S
Co238 N255 1.989 . S
Co238 O263 1.967 . S
Co238 O270 1.920 . S
Co239 O242 1.966 . S
Co239 N248 2.022 . S
Co239 N256 1.993 . S
Co239 O264 1.941 . S
C240 O241 1.258 . S
C240 O242 1.263 . S
O241 Co238 1.970 . S
O241 C240 1.258 . S
O242 Co239 1.966 . S
O242 C240 1.263 . S
C243 O244 1.235 . S
C243 O270 1.289 . S
O244 C243 1.235 . S
C245 C247 1.400 . S
C245 N248 1.351 . S
C245 C250 1.501 . S
C246 C247 1.387 . S
C246 N249 1.341 . S
C247 C245 1.400 . S
C247 C246 1.387 . S
N248 Co239 2.022 . S
N248 C245 1.351 . S
N248 N249 1.365 . S
N249 C246 1.341 . S
N249 N248 1.365 . S
N249 H269 0.862 . S
C250 C245 1.501 . S
C250 H251 0.961 . S
C250 H252 0.961 . S
C250 H253 0.960 . S
H251 C250 0.961 . S
H252 C250 0.961 . S
H253 C250 0.960 . S
C254 N255 1.342 . S
C254 C258 1.401 . S
C254 C259 1.499 . S
N255 Co238 1.989 . S
N255 C254 1.342 . S
N255 N256 1.388 . S
N256 Co239 1.993 . S
N256 N255 1.388 . S
N256 C257 1.346 . S
C257 N256 1.346 . S
C257 C258 1.396 . S
C257 C267 1.510 . S
C258 C254 1.401 . S
C258 C257 1.396 . S
C259 C254 1.499 . S
C259 H260 0.959 . S
C259 H261 0.960 . S
C259 H262 0.961 . S
H260 C259 0.959 . S
H261 C259 0.960 . S
H262 C259 0.961 . S
O263 Co238 1.967 . S
O263 C271 1.258 . S
O264 Co239 1.941 . S
O264 C271 1.266 . S
H265 C267 0.959 . S
H266 C267 0.961 . S
C267 C257 1.510 . S
C267 H265 0.959 . S
C267 H266 0.961 . S
C267 H268 0.960 . S
H268 C267 0.960 . S
H269 N249 0.862 . S
O270 Co238 1.920 . S
O270 C243 1.289 . S
C271 O263 1.258 . S
C271 O264 1.266 . S
Co272 O275 1.970 . S
Co272 N289 1.989 . S
Co272 O297 1.967 . S
Co272 O304 1.920 . S
Co273 O276 1.966 . S
Co273 N282 2.022 . S
Co273 N290 1.993 . S
Co273 O298 1.941 . S
C274 O275 1.258 . S
C274 O276 1.263 . S
O275 Co272 1.970 . S
O275 C274 1.258 . S
O276 Co273 1.966 . S
O276 C274 1.263 . S
C277 O278 1.235 . S
C277 O304 1.289 . S
O278 C277 1.235 . S
C279 C281 1.400 . S
C279 N282 1.351 . S
C279 C284 1.501 . S
C280 C281 1.387 . S
C280 N283 1.341 . S
C281 C279 1.400 . S
C281 C280 1.387 . S
N282 Co273 2.022 . S
N282 C279 1.351 . S
N282 N283 1.365 . S
N283 C280 1.341 . S
N283 N282 1.365 . S
N283 H303 0.862 . S
C284 C279 1.501 . S
C284 H285 0.961 . S
C284 H286 0.961 . S
C284 H287 0.960 . S
H285 C284 0.961 . S
H286 C284 0.961 . S
H287 C284 0.960 . S
C288 N289 1.342 . S
C288 C292 1.401 . S
C288 C293 1.499 . S
N289 Co272 1.989 . S
N289 C288 1.342 . S
N289 N290 1.388 . S
N290 Co273 1.993 . S
N290 N289 1.388 . S
N290 C291 1.346 . S
C291 N290 1.346 . S
C291 C292 1.396 . S
C291 C301 1.510 . S
C292 C288 1.401 . S
C292 C291 1.396 . S
C293 C288 1.499 . S
C293 H294 0.959 . S
C293 H295 0.960 . S
C293 H296 0.961 . S
H294 C293 0.959 . S
H295 C293 0.960 . S
H296 C293 0.961 . S
O297 Co272 1.967 . S
O297 C305 1.258 . S
O298 Co273 1.941 . S
O298 C305 1.266 . S
H299 C301 0.959 . S
H300 C301 0.961 . S
C301 C291 1.510 . S
C301 H299 0.959 . S
C301 H300 0.961 . S
C301 H302 0.960 . S
H302 C301 0.960 . S
H303 N283 0.862 . S
O304 Co272 1.920 . S
O304 C277 1.289 . S
C305 O297 1.258 . S
C305 O298 1.266 . S
Co306 O309 1.970 . S
Co306 N323 1.989 . S
Co306 O331 1.967 . S
Co306 O338 1.920 . S
Co307 O310 1.966 . S
Co307 N316 2.022 . S
Co307 N324 1.993 . S
Co307 O332 1.941 . S
C308 O309 1.258 . S
C308 O310 1.263 . S
O309 Co306 1.970 . S
O309 C308 1.258 . S
O310 Co307 1.966 . S
O310 C308 1.263 . S
C311 O312 1.235 . S
C311 O338 1.289 . S
O312 C311 1.235 . S
C313 C315 1.400 . S
C313 N316 1.351 . S
C313 C318 1.501 . S
C314 C315 1.387 . S
C314 N317 1.341 . S
C315 C313 1.400 . S
C315 C314 1.387 . S
N316 Co307 2.022 . S
N316 C313 1.351 . S
N316 N317 1.365 . S
N317 C314 1.341 . S
N317 N316 1.365 . S
N317 H337 0.862 . S
C318 C313 1.501 . S
C318 H319 0.961 . S
C318 H320 0.961 . S
C318 H321 0.960 . S
H319 C318 0.961 . S
H320 C318 0.961 . S
H321 C318 0.960 . S
C322 N323 1.342 . S
C322 C326 1.401 . S
C322 C327 1.499 . S
N323 Co306 1.989 . S
N323 C322 1.342 . S
N323 N324 1.388 . S
N324 Co307 1.993 . S
N324 N323 1.388 . S
N324 C325 1.346 . S
C325 N324 1.346 . S
C325 C326 1.396 . S
C325 C335 1.510 . S
C326 C322 1.401 . S
C326 C325 1.396 . S
C327 C322 1.499 . S
C327 H328 0.959 . S
C327 H329 0.960 . S
C327 H330 0.961 . S
H328 C327 0.959 . S
H329 C327 0.960 . S
H330 C327 0.961 . S
O331 Co306 1.967 . S
O331 C339 1.258 . S
O332 Co307 1.941 . S
O332 C339 1.266 . S
H333 C335 0.959 . S
H334 C335 0.961 . S
C335 C325 1.510 . S
C335 H333 0.959 . S
C335 H334 0.961 . S
C335 H336 0.960 . S
H336 C335 0.960 . S
H337 N317 0.862 . S
O338 Co306 1.920 . S
O338 C311 1.289 . S
C339 O331 1.258 . S
C339 O332 1.266 . S
Co340 O343 1.970 . S
Co340 N357 1.989 1_554 S
Co340 O365 1.967 . S
Co340 O372 1.920 . S
Co341 O344 1.966 . S
Co341 N350 2.022 . S
Co341 N358 1.993 1_554 S
Co341 O366 1.941 . S
C342 O343 1.258 . S
C342 O344 1.263 . S
O343 Co340 1.970 . S
O343 C342 1.258 . S
O344 Co341 1.966 . S
O344 C342 1.263 . S
C345 O346 1.235 1_554 S
C345 O372 1.289 . S
O346 C345 1.235 1_556 S
C347 C349 1.400 . S
C347 N350 1.351 1_556 S
C347 C352 1.501 . S
C348 C349 1.387 . S
C348 N351 1.341 . S
C349 C347 1.400 . S
C349 C348 1.387 . S
N350 Co341 2.022 . S
N350 C347 1.351 1_554 S
N350 N351 1.365 1_554 S
N351 C348 1.341 . S
N351 N350 1.365 1_556 S
N351 H371 0.862 1_556 S
C352 C347 1.501 . S
C352 H353 0.961 1_556 S
C352 H354 0.961 . S
C352 H355 0.960 1_556 S
H353 C352 0.961 1_554 S
H354 C352 0.961 . S
H355 C352 0.960 1_554 S
C356 N357 1.342 . S
C356 C360 1.401 . S
C356 C361 1.499 1_565 S
N357 Co340 1.989 1_556 S
N357 C356 1.342 . S
N357 N358 1.388 . S
N358 Co341 1.993 1_556 S
N358 N357 1.388 . S
N358 C359 1.346 . S
C359 N358 1.346 . S
C359 C360 1.396 . S
C359 C369 1.510 . S
C360 C356 1.401 . S
C360 C359 1.396 . S
C361 C356 1.499 1_545 S
C361 H362 0.959 1_545 S
C361 H363 0.960 1_545 S
C361 H364 0.961 . S
H362 C361 0.959 1_565 S
H363 C361 0.960 1_565 S
H364 C361 0.961 . S
O365 Co340 1.967 . S
O365 C373 1.258 . S
O366 Co341 1.941 . S
O366 C373 1.266 . S
H367 C369 0.959 . S
H368 C369 0.961 . S
C369 C359 1.510 . S
C369 H367 0.959 . S
C369 H368 0.961 . S
C369 H370 0.960 . S
H370 C369 0.960 . S
H371 N351 0.862 1_554 S
O372 Co340 1.920 . S
O372 C345 1.289 . S
C373 O365 1.258 . S
C373 O366 1.266 . S
Co374 O377 1.970 . S
Co374 N391 1.989 . S
Co374 O399 1.967 . S
Co374 O406 1.920 . S
Co375 O378 1.966 . S
Co375 N384 2.022 . S
Co375 N392 1.993 . S
Co375 O400 1.941 . S
C376 O377 1.258 . S
C376 O378 1.263 . S
O377 Co374 1.970 . S
O377 C376 1.258 . S
O378 Co375 1.966 . S
O378 C376 1.263 . S
C379 O380 1.235 . S
C379 O406 1.289 . S
O380 C379 1.235 . S
C381 C383 1.400 . S
C381 N384 1.351 . S
C381 C386 1.501 . S
C382 C383 1.387 . S
C382 N385 1.341 . S
C383 C381 1.400 . S
C383 C382 1.387 . S
N384 Co375 2.022 . S
N384 C381 1.351 . S
N384 N385 1.365 . S
N385 C382 1.341 . S
N385 N384 1.365 . S
N385 H405 0.862 . S
C386 C381 1.501 . S
C386 H387 0.961 . S
C386 H388 0.961 . S
C386 H389 0.960 . S
H387 C386 0.961 . S
H388 C386 0.961 . S
H389 C386 0.960 . S
C390 N391 1.342 . S
C390 C394 1.401 . S
C390 C395 1.499 1_455 S
N391 Co374 1.989 . S
N391 C390 1.342 . S
N391 N392 1.388 . S
N392 Co375 1.993 . S
N392 N391 1.388 . S
N392 C393 1.346 . S
C393 N392 1.346 . S
C393 C394 1.396 . S
C393 C403 1.510 . S
C394 C390 1.401 . S
C394 C393 1.396 . S
C395 C390 1.499 1_655 S
C395 H396 0.959 1_655 S
C395 H397 0.960 1_655 S
C395 H398 0.961 . S
H396 C395 0.959 1_455 S
H397 C395 0.960 1_455 S
H398 C395 0.961 . S
O399 Co374 1.967 . S
O399 C407 1.258 . S
O400 Co375 1.941 . S
O400 C407 1.266 . S
H401 C403 0.959 . S
H402 C403 0.961 . S
C403 C393 1.510 . S
C403 H401 0.959 . S
C403 H402 0.961 . S
C403 H404 0.960 . S
H404 C403 0.960 . S
H405 N385 0.862 . S
O406 Co374 1.920 . S
O406 C379 1.289 . S
C407 O399 1.258 . S
C407 O400 1.266 . S
Co408 O411 1.970 . S
Co408 N425 1.989 1_554 S
Co408 O433 1.967 . S
Co408 O440 1.920 . S
Co409 O412 1.966 . S
Co409 N418 2.022 . S
Co409 N426 1.993 1_554 S
Co409 O434 1.941 . S
C410 O411 1.258 . S
C410 O412 1.263 . S
O411 Co408 1.970 . S
O411 C410 1.258 . S
O412 Co409 1.966 . S
O412 C410 1.263 . S
C413 O414 1.235 1_554 S
C413 O440 1.289 . S
O414 C413 1.235 1_556 S
C415 C417 1.400 . S
C415 N418 1.351 1_556 S
C415 C420 1.501 . S
C416 C417 1.387 . S
C416 N419 1.341 . S
C417 C415 1.400 . S
C417 C416 1.387 . S
N418 Co409 2.022 . S
N418 C415 1.351 1_554 S
N418 N419 1.365 1_554 S
N419 C416 1.341 . S
N419 N418 1.365 1_556 S
N419 H439 0.862 1_556 S
C420 C415 1.501 . S
C420 H421 0.961 1_556 S
C420 H422 0.961 . S
C420 H423 0.960 1_556 S
H421 C420 0.961 1_554 S
H422 C420 0.961 . S
H423 C420 0.960 1_554 S
C424 N425 1.342 . S
C424 C428 1.401 . S
C424 C429 1.499 . S
N425 Co408 1.989 1_556 S
N425 C424 1.342 . S
N425 N426 1.388 . S
N426 Co409 1.993 1_556 S
N426 N425 1.388 . S
N426 C427 1.346 . S
C427 N426 1.346 . S
C427 C428 1.396 . S
C427 C437 1.510 . S
C428 C424 1.401 . S
C428 C427 1.396 . S
C429 C424 1.499 . S
C429 H430 0.959 . S
C429 H431 0.960 . S
C429 H432 0.961 . S
H430 C429 0.959 . S
H431 C429 0.960 . S
H432 C429 0.961 . S
O433 Co408 1.967 . S
O433 C441 1.258 . S
O434 Co409 1.941 . S
O434 C441 1.266 . S
H435 C437 0.959 . S
H436 C437 0.961 . S
C437 C427 1.510 . S
C437 H435 0.959 . S
C437 H436 0.961 . S
C437 H438 0.960 . S
H438 C437 0.960 . S
H439 N419 0.862 1_554 S
O440 Co408 1.920 . S
O440 C413 1.289 . S
C441 O433 1.258 . S
C441 O434 1.266 . S
Co442 O445 1.970 . S
Co442 N459 1.989 . S
Co442 O467 1.967 . S
Co442 O474 1.920 . S
Co443 O446 1.966 . S
Co443 N452 2.022 . S
Co443 N460 1.993 . S
Co443 O468 1.941 . S
C444 O445 1.258 . S
C444 O446 1.263 . S
O445 Co442 1.970 . S
O445 C444 1.258 . S
O446 Co443 1.966 . S
O446 C444 1.263 . S
C447 O448 1.235 . S
C447 O474 1.289 . S
O448 C447 1.235 . S
C449 C451 1.400 . S
C449 N452 1.351 . S
C449 C454 1.501 . S
C450 C451 1.387 . S
C450 N453 1.341 . S
C451 C449 1.400 . S
C451 C450 1.387 . S
N452 Co443 2.022 . S
N452 C449 1.351 . S
N452 N453 1.365 . S
N453 C450 1.341 . S
N453 N452 1.365 . S
N453 H473 0.862 . S
C454 C449 1.501 . S
C454 H455 0.961 . S
C454 H456 0.961 . S
C454 H457 0.960 . S
H455 C454 0.961 . S
H456 C454 0.961 . S
H457 C454 0.960 . S
C458 N459 1.342 . S
C458 C462 1.401 . S
C458 C463 1.499 . S
N459 Co442 1.989 . S
N459 C458 1.342 . S
N459 N460 1.388 . S
N460 Co443 1.993 . S
N460 N459 1.388 . S
N460 C461 1.346 . S
C461 N460 1.346 . S
C461 C462 1.396 . S
C461 C471 1.510 . S
C462 C458 1.401 . S
C462 C461 1.396 . S
C463 C458 1.499 . S
C463 H464 0.959 . S
C463 H465 0.960 . S
C463 H466 0.961 . S
H464 C463 0.959 . S
H465 C463 0.960 . S
H466 C463 0.961 . S
O467 Co442 1.967 . S
O467 C475 1.258 . S
O468 Co443 1.941 . S
O468 C475 1.266 . S
H469 C471 0.959 . S
H470 C471 0.961 . S
C471 C461 1.510 . S
C471 H469 0.959 . S
C471 H470 0.961 . S
C471 H472 0.960 . S
H472 C471 0.960 . S
H473 N453 0.862 . S
O474 Co442 1.920 . S
O474 C447 1.289 . S
C475 O467 1.258 . S
C475 O468 1.266 . S
Co476 O479 1.970 . S
Co476 N493 1.989 . S
Co476 O501 1.967 . S
Co476 O508 1.920 . S
Co477 O480 1.966 . S
Co477 N486 2.022 . S
Co477 N494 1.993 . S
Co477 O502 1.941 . S
C478 O479 1.258 . S
C478 O480 1.263 . S
O479 Co476 1.970 . S
O479 C478 1.258 . S
O480 Co477 1.966 . S
O480 C478 1.263 . S
C481 O482 1.235 . S
C481 O508 1.289 . S
O482 C481 1.235 . S
C483 C485 1.400 . S
C483 N486 1.351 . S
C483 C488 1.501 . S
C484 C485 1.387 . S
C484 N487 1.341 . S
C485 C483 1.400 . S
C485 C484 1.387 . S
N486 Co477 2.022 . S
N486 C483 1.351 . S
N486 N487 1.365 . S
N487 C484 1.341 . S
N487 N486 1.365 . S
N487 H507 0.862 . S
C488 C483 1.501 . S
C488 H489 0.961 . S
C488 H490 0.961 . S
C488 H491 0.960 . S
H489 C488 0.961 . S
H490 C488 0.961 . S
H491 C488 0.960 . S
C492 N493 1.342 . S
C492 C496 1.401 . S
C492 C497 1.499 1_565 S
N493 Co476 1.989 . S
N493 C492 1.342 . S
N493 N494 1.388 . S
N494 Co477 1.993 . S
N494 N493 1.388 . S
N494 C495 1.346 . S
C495 N494 1.346 . S
C495 C496 1.396 . S
C495 C505 1.510 . S
C496 C492 1.401 . S
C496 C495 1.396 . S
C497 C492 1.499 1_545 S
C497 H498 0.959 1_545 S
C497 H499 0.960 1_545 S
C497 H500 0.961 . S
H498 C497 0.959 1_565 S
H499 C497 0.960 1_565 S
H500 C497 0.961 . S
O501 Co476 1.967 . S
O501 C509 1.258 . S
O502 Co477 1.941 . S
O502 C509 1.266 . S
H503 C505 0.959 . S
H504 C505 0.961 . S
C505 C495 1.510 . S
C505 H503 0.959 . S
C505 H504 0.961 . S
C505 H506 0.960 . S
H506 C505 0.960 . S
H507 N487 0.862 . S
O508 Co476 1.920 . S
O508 C481 1.289 . S
C509 O501 1.258 . S
C509 O502 1.266 . S
Co510 O513 1.970 . S
Co510 N527 1.989 . S
Co510 O535 1.967 . S
Co510 O542 1.920 . S
Co511 O514 1.966 . S
Co511 N520 2.022 . S
Co511 N528 1.993 . S
Co511 O536 1.941 . S
C512 O513 1.258 . S
C512 O514 1.263 . S
O513 Co510 1.970 . S
O513 C512 1.258 . S
O514 Co511 1.966 . S
O514 C512 1.263 . S
C515 O516 1.235 . S
C515 O542 1.289 . S
O516 C515 1.235 . S
C517 C519 1.400 . S
C517 N520 1.351 . S
C517 C522 1.501 . S
C518 C519 1.387 . S
C518 N521 1.341 . S
C519 C517 1.400 . S
C519 C518 1.387 . S
N520 Co511 2.022 . S
N520 C517 1.351 . S
N520 N521 1.365 . S
N521 C518 1.341 . S
N521 N520 1.365 . S
N521 H541 0.862 . S
C522 C517 1.501 . S
C522 H523 0.961 . S
C522 H524 0.961 . S
C522 H525 0.960 . S
H523 C522 0.961 . S
H524 C522 0.961 . S
H525 C522 0.960 . S
C526 N527 1.342 . S
C526 C530 1.401 . S
C526 C531 1.499 1_455 S
N527 Co510 1.989 . S
N527 C526 1.342 . S
N527 N528 1.388 . S
N528 Co511 1.993 . S
N528 N527 1.388 . S
N528 C529 1.346 . S
C529 N528 1.346 . S
C529 C530 1.396 . S
C529 C539 1.510 . S
C530 C526 1.401 . S
C530 C529 1.396 . S
C531 C526 1.499 1_655 S
C531 H532 0.959 1_655 S
C531 H533 0.960 1_655 S
C531 H534 0.961 . S
H532 C531 0.959 1_455 S
H533 C531 0.960 1_455 S
H534 C531 0.961 . S
O535 Co510 1.967 . S
O535 C543 1.258 . S
O536 Co511 1.941 . S
O536 C543 1.266 . S
H537 C539 0.959 . S
H538 C539 0.961 . S
C539 C529 1.510 . S
C539 H537 0.959 . S
C539 H538 0.961 . S
C539 H540 0.960 . S
H540 C539 0.960 . S
H541 N521 0.862 . S
O542 Co510 1.920 . S
O542 C515 1.289 . S
C543 O535 1.258 . S
C543 O536 1.266 . S
C544 C545 1.363 1_556 S
C544 C550 1.379 1_655 S
C544 N552 1.356 . S
C545 C544 1.363 1_554 S
C545 C551 1.363 1_565 S
C546 C547 1.363 . S
C546 C551 1.379 1_455 S
C546 N553 1.356 . S
C547 C546 1.363 . S
C547 C550 1.363 1_544 S
N548 C550 1.356 . S
N548 H560 0.984 . S
N548 H561 0.985 1_565 S
N549 C551 1.356 . S
N549 H554 0.984 1_545 S
N549 H555 0.985 . S
C550 C544 1.379 1_455 S
C550 C547 1.363 1_566 S
C550 N548 1.356 . S
C551 C545 1.363 1_545 S
C551 C546 1.379 1_655 S
C551 N549 1.356 . S
N552 C544 1.356 . S
N552 H558 0.984 . S
N552 H559 0.984 . S
N553 C546 1.356 . S
N553 H556 0.984 . S
N553 H557 0.985 . S
H554 N549 0.984 1_565 S
H555 N549 0.985 . S
H556 N553 0.984 . S
H557 N553 0.985 . S
H558 N552 0.984 . S
H559 N552 0.984 . S
H560 N548 0.984 . S
H561 N548 0.985 1_545 S
C562 C563 1.363 . S
C562 C568 1.379 . S
C562 N570 1.356 . S
C563 C562 1.363 . S
C563 C569 1.363 1_655 S
C564 C565 1.363 . S
C564 C569 1.379 . S
C564 N571 1.356 . S
C565 C564 1.363 . S
C565 C568 1.363 1_455 S
N566 C568 1.356 . S
N566 H578 0.984 . S
N566 H579 0.985 1_655 S
N567 C569 1.356 . S
N567 H572 0.984 1_455 S
N567 H573 0.985 . S
C568 C562 1.379 . S
C568 C565 1.363 1_655 S
C568 N566 1.356 . S
C569 C563 1.363 1_455 S
C569 C564 1.379 . S
C569 N567 1.356 . S
N570 C562 1.356 . S
N570 H576 0.984 . S
N570 H577 0.984 . S
N571 C564 1.356 . S
N571 H574 0.984 . S
N571 H575 0.985 . S
H572 N567 0.984 1_655 S
H573 N567 0.985 . S
H574 N571 0.984 . S
H575 N571 0.985 . S
H576 N570 0.984 . S
H577 N570 0.984 . S
H578 N566 0.984 . S
H579 N566 0.985 1_455 S
C580 C581 1.363 . S
C580 C586 1.379 . S
C580 N588 1.356 . S
C581 C580 1.363 . S
C581 C587 1.363 . S
C582 C583 1.363 . S
C582 C587 1.379 . S
C582 N589 1.356 . S
C583 C582 1.363 . S
C583 C586 1.363 . S
N584 C586 1.356 . S
N584 H596 0.984 . S
N584 H597 0.985 . S
N585 C587 1.356 . S
N585 H590 0.984 . S
N585 H591 0.985 . S
C586 C580 1.379 . S
C586 C583 1.363 . S
C586 N584 1.356 . S
C587 C581 1.363 . S
C587 C582 1.379 . S
C587 N585 1.356 . S
N588 C580 1.356 . S
N588 H594 0.984 . S
N588 H595 0.984 . S
N589 C582 1.356 . S
N589 H592 0.984 . S
N589 H593 0.985 . S
H590 N585 0.984 . S
H591 N585 0.985 . S
H592 N589 0.984 . S
H593 N589 0.985 . S
H594 N588 0.984 . S
H595 N588 0.984 . S
H596 N584 0.984 . S
H597 N584 0.985 . S
C598 C599 1.363 . S
C598 C604 1.379 1_565 S
C598 N606 1.356 . S
C599 C598 1.363 . S
C599 C605 1.363 . S
C600 C601 1.363 . S
C600 C605 1.379 1_545 S
C600 N607 1.356 . S
C601 C600 1.363 . S
C601 C604 1.363 . S
N602 C604 1.356 . S
N602 H614 0.984 . S
N602 H615 0.985 . S
N603 C605 1.356 . S
N603 H608 0.984 . S
N603 H609 0.985 . S
C604 C598 1.379 1_545 S
C604 C601 1.363 . S
C604 N602 1.356 . S
C605 C599 1.363 . S
C605 C600 1.379 1_565 S
C605 N603 1.356 . S
N606 C598 1.356 . S
N606 H612 0.984 . S
N606 H613 0.984 . S
N607 C600 1.356 . S
N607 H610 0.984 . S
N607 H611 0.985 . S
H608 N603 0.984 . S
H609 N603 0.985 . S
H610 N607 0.984 . S
H611 N607 0.985 . S
H612 N606 0.984 . S
H613 N606 0.984 . S
H614 N602 0.984 . S
H615 N602 0.985 . S
C616 C617 1.363 . S
C616 C622 1.379 1_455 S
C616 N624 1.356 . S
C617 C616 1.363 . S
C617 C623 1.363 1_565 S
C618 C619 1.363 . S
C618 C623 1.379 1_655 S
C618 N625 1.356 . S
C619 C618 1.363 . S
C619 C622 1.363 1_545 S
N620 C622 1.356 . S
N620 H632 0.984 . S
N620 H633 0.985 1_565 S
N621 C623 1.356 . S
N621 H626 0.984 1_545 S
N621 H627 0.985 . S
C622 C616 1.379 1_655 S
C622 C619 1.363 1_565 S
C622 N620 1.356 . S
C623 C617 1.363 1_545 S
C623 C618 1.379 1_455 S
C623 N621 1.356 . S
N624 C616 1.356 . S
N624 H630 0.984 . S
N624 H631 0.984 . S
N625 C618 1.356 . S
N625 H628 0.984 . S
N625 H629 0.985 . S
H626 N621 0.984 1_565 S
H627 N621 0.985 . S
H628 N625 0.984 . S
H629 N625 0.985 . S
H630 N624 0.984 . S
H631 N624 0.984 . S
H632 N620 0.984 . S
H633 N620 0.985 1_545 S
C634 C635 1.363 . S
C634 C640 1.379 . S
C634 N642 1.356 . S
C635 C634 1.363 . S
C635 C641 1.363 1_655 S
C636 C637 1.363 . S
C636 C641 1.379 . S
C636 N643 1.356 . S
C637 C636 1.363 . S
C637 C640 1.363 1_455 S
N638 C640 1.356 . S
N638 H650 0.984 . S
N638 H651 0.985 1_655 S
N639 C641 1.356 . S
N639 H644 0.984 1_455 S
N639 H645 0.985 . S
C640 C634 1.379 . S
C640 C637 1.363 1_655 S
C640 N638 1.356 . S
C641 C635 1.363 1_455 S
C641 C636 1.379 . S
C641 N639 1.356 . S
N642 C634 1.356 . S
N642 H648 0.984 . S
N642 H649 0.984 . S
N643 C636 1.356 . S
N643 H646 0.984 . S
N643 H647 0.985 . S
H644 N639 0.984 1_655 S
H645 N639 0.985 . S
H646 N643 0.984 . S
H647 N643 0.985 . S
H648 N642 0.984 . S
H649 N642 0.984 . S
H650 N638 0.984 . S
H651 N638 0.985 1_455 S
C652 C653 1.363 1_556 S
C652 C658 1.379 . S
C652 N660 1.356 . S
C653 C652 1.363 1_554 S
C653 C659 1.363 . S
C654 C655 1.363 . S
C654 C659 1.379 . S
C654 N661 1.356 . S
C655 C654 1.363 . S
C655 C658 1.363 1_554 S
N656 C658 1.356 . S
N656 H668 0.984 . S
N656 H669 0.985 . S
N657 C659 1.356 . S
N657 H662 0.984 . S
N657 H663 0.985 . S
C658 C652 1.379 . S
C658 C655 1.363 1_556 S
C658 N656 1.356 . S
C659 C653 1.363 . S
C659 C654 1.379 . S
C659 N657 1.356 . S
N660 C652 1.356 . S
N660 H666 0.984 . S
N660 H667 0.984 . S
N661 C654 1.356 . S
N661 H664 0.984 . S
N661 H665 0.985 . S
H662 N657 0.984 . S
H663 N657 0.985 . S
H664 N661 0.984 . S
H665 N661 0.985 . S
H666 N660 0.984 . S
H667 N660 0.984 . S
H668 N656 0.984 . S
H669 N656 0.985 . S
C670 C671 1.363 . S
C670 C676 1.379 1_565 S
C670 N678 1.356 . S
C671 C670 1.363 . S
C671 C677 1.363 . S
C672 C673 1.363 . S
C672 C677 1.379 1_545 S
C672 N679 1.356 . S
C673 C672 1.363 . S
C673 C676 1.363 . S
N674 C676 1.356 . S
N674 H686 0.984 . S
N674 H687 0.985 . S
N675 C677 1.356 . S
N675 H680 0.984 . S
N675 H681 0.985 . S
C676 C670 1.379 1_545 S
C676 C673 1.363 . S
C676 N674 1.356 . S
C677 C671 1.363 . S
C677 C672 1.379 1_565 S
C677 N675 1.356 . S
N678 C670 1.356 . S
N678 H684 0.984 . S
N678 H685 0.984 . S
N679 C672 1.356 . S
N679 H682 0.984 . S
N679 H683 0.985 . S
H680 N675 0.984 . S
H681 N675 0.985 . S
H682 N679 0.984 . S
H683 N679 0.985 . S
H684 N678 0.984 . S
H685 N678 0.984 . S
H686 N674 0.984 . S
H687 N674 0.985 . S
C688 C689 1.363 . S
C688 C694 1.379 . S
C688 N696 1.356 . S
C689 C688 1.363 . S
C689 C695 1.363 1_565 S
C690 C691 1.363 . S
C690 C695 1.379 . S
C690 N697 1.356 . S
C691 C690 1.363 . S
C691 C694 1.363 1_545 S
N692 C694 1.356 . S
N692 H704 0.984 . S
N692 H705 0.985 . S
N693 C695 1.356 . S
N693 H698 0.984 . S
N693 H699 0.985 . S
C694 C688 1.379 . S
C694 C691 1.363 1_565 S
C694 N692 1.356 . S
C695 C689 1.363 1_545 S
C695 C690 1.379 . S
C695 N693 1.356 . S
N696 C688 1.356 . S
N696 H702 0.984 . S
N696 H703 0.984 . S
N697 C690 1.356 . S
N697 H700 0.984 . S
N697 H701 0.985 . S
H698 N693 0.984 . S
H699 N693 0.985 . S
H700 N697 0.984 . S
H701 N697 0.985 . S
H702 N696 0.984 . S
H703 N696 0.984 . S
H704 N692 0.984 . S
H705 N692 0.985 . S
C706 C707 1.363 . S
C706 C712 1.387 . S
C706 N714 1.356 . S
C707 C706 1.363 . S
C707 C713 1.363 1_455 S
C708 C709 1.363 . S
C708 C713 1.379 . S
C708 N715 1.356 . S
C709 C708 1.363 . S
C709 C712 1.348 1_655 S
N710 C712 1.360 . S
N710 H722 0.984 . S
N710 H723 0.985 1_455 S
N711 C713 1.356 . S
N711 H716 0.984 . S
N711 H717 0.985 . S
C712 C706 1.387 . S
C712 C709 1.348 1_455 S
C712 N710 1.360 . S
C713 C707 1.363 1_655 S
C713 C708 1.379 . S
C713 N711 1.356 . S
N714 C706 1.356 . S
N714 H720 0.984 . S
N714 H721 0.984 . S
N715 C708 1.356 . S
N715 H718 0.984 . S
N715 H719 0.985 . S
H716 N711 0.984 . S
H717 N711 0.985 . S
H718 N715 0.984 . S
H719 N715 0.985 . S
H720 N714 0.984 . S
H721 N714 0.984 . S
H722 N710 0.984 . S
H723 N710 0.985 1_655 S
C724 C725 1.363 . S
C724 C730 1.379 . S
C724 N732 1.356 . S
C725 C724 1.363 . S
C725 C731 1.363 . S
C726 C727 1.363 . S
C726 C731 1.379 . S
C726 N733 1.356 . S
C727 C726 1.363 . S
C727 C730 1.363 . S
N728 C730 1.356 . S
N728 H740 0.984 . S
N728 H741 0.985 . S
N729 C731 1.356 . S
N729 H734 0.984 . S
N729 H735 0.985 . S
C730 C724 1.379 . S
C730 C727 1.363 . S
C730 N728 1.356 . S
C731 C725 1.363 . S
C731 C726 1.379 . S
C731 N729 1.356 . S
N732 C724 1.356 . S
N732 H738 0.984 . S
N732 H739 0.984 . S
N733 C726 1.356 . S
N733 H736 0.984 . S
N733 H737 0.985 . S
H734 N729 0.984 . S
H735 N729 0.985 . S
H736 N733 0.984 . S
H737 N733 0.985 . S
H738 N732 0.984 . S
H739 N732 0.984 . S
H740 N728 0.984 . S
H741 N728 0.985 . S
C742 C743 1.363 . S
C742 C748 1.379 1_554 S
C742 N750 1.356 . S
C743 C742 1.363 . S
C743 C749 1.363 . S
C744 C745 1.363 . S
C744 C749 1.379 1_556 S
C744 N751 1.356 . S
C745 C744 1.363 . S
C745 C748 1.363 . S
N746 C748 1.356 . S
N746 H758 0.984 . S
N746 H759 0.985 . S
N747 C749 1.356 . S
N747 H752 0.984 . S
N747 H753 0.985 . S
C748 C742 1.379 1_556 S
C748 C745 1.363 . S
C748 N746 1.356 . S
C749 C743 1.363 . S
C749 C744 1.379 1_554 S
C749 N747 1.356 . S
N750 C742 1.356 . S
N750 H756 0.984 . S
N750 H757 0.984 . S
N751 C744 1.356 . S
N751 H754 0.984 . S
N751 H755 0.985 . S
H752 N747 0.984 . S
H753 N747 0.985 . S
H754 N751 0.984 . S
H755 N751 0.985 . S
H756 N750 0.984 . S
H757 N750 0.984 . S
H758 N746 0.984 . S
H759 N746 0.985 . S
C760 C761 1.363 . S
C760 C766 1.379 . S
C760 N768 1.356 . S
C761 C760 1.363 . S
C761 C767 1.363 1_545 S
C762 C763 1.363 . S
C762 C767 1.379 . S
C762 N769 1.356 . S
C763 C762 1.363 . S
C763 C766 1.363 1_565 S
N764 C766 1.356 . S
N764 H776 0.984 . S
N764 H777 0.985 . S
N765 C767 1.356 . S
N765 H770 0.984 . S
N765 H771 0.985 . S
C766 C760 1.379 . S
C766 C763 1.363 1_545 S
C766 N764 1.356 . S
C767 C761 1.363 1_565 S
C767 C762 1.379 . S
C767 N765 1.356 . S
N768 C760 1.356 . S
N768 H774 0.984 . S
N768 H775 0.984 . S
N769 C762 1.356 . S
N769 H772 0.984 . S
N769 H773 0.985 . S
H770 N765 0.984 . S
H771 N765 0.985 . S
H772 N769 0.984 . S
H773 N769 0.985 . S
H774 N768 0.984 . S
H775 N768 0.984 . S
H776 N764 0.984 . S
H777 N764 0.985 . S
C778 C779 1.363 . S
C778 C784 1.379 1_556 S
C778 N786 1.356 . S
C779 C778 1.363 . S
C779 C785 1.363 1_655 S
C780 C781 1.363 . S
C780 C785 1.379 1_554 S
C780 N787 1.356 . S
C781 C780 1.363 . S
C781 C784 1.363 1_455 S
N782 C784 1.356 . S
N782 H794 0.984 . S
N782 H795 0.985 . S
N783 C785 1.356 . S
N783 H788 0.984 1_455 S
N783 H789 0.985 . S
C784 C778 1.379 1_554 S
C784 C781 1.363 1_655 S
C784 N782 1.356 . S
C785 C779 1.363 1_455 S
C785 C780 1.379 1_556 S
C785 N783 1.356 . S
N786 C778 1.356 . S
N786 H792 0.984 . S
N786 H793 0.984 . S
N787 C780 1.356 . S
N787 H790 0.984 . S
N787 H791 0.985 . S
H788 N783 0.984 1_655 S
H789 N783 0.985 . S
H790 N787 0.984 . S
H791 N787 0.985 . S
H792 N786 0.984 . S
H793 N786 0.984 . S
H794 N782 0.984 . S
H795 N782 0.985 . S
C796 C797 1.363 . S
C796 C802 1.379 . S
C796 N804 1.356 . S
C797 C796 1.363 . S
C797 C803 1.363 . S
C798 C799 1.363 . S
C798 C803 1.379 . S
C798 N805 1.356 . S
C799 C798 1.363 . S
C799 C802 1.363 . S
N800 C802 1.356 . S
N800 H812 0.984 . S
N800 H813 0.985 . S
N801 C803 1.356 . S
N801 H806 0.984 . S
N801 H807 0.985 . S
C802 C796 1.379 . S
C802 C799 1.363 . S
C802 N800 1.356 . S
C803 C797 1.363 . S
C803 C798 1.379 . S
C803 N801 1.356 . S
N804 C796 1.356 . S
N804 H810 0.984 . S
N804 H811 0.984 . S
N805 C798 1.356 . S
N805 H808 0.984 . S
N805 H809 0.985 . S
H806 N801 0.984 . S
H807 N801 0.985 . S
H808 N805 0.984 . S
H809 N805 0.985 . S
H810 N804 0.984 . S
H811 N804 0.984 . S
H812 N800 0.984 . S
H813 N800 0.985 . S
C814 C815 1.363 . S
C814 C820 1.379 . S
C814 N822 1.356 . S
C815 C814 1.363 . S
C815 C821 1.363 . S
C816 C817 1.363 . S
C816 C821 1.379 . S
C816 N823 1.356 . S
C817 C816 1.363 . S
C817 C820 1.363 . S
N818 C820 1.356 . S
N818 H830 0.984 . S
N818 H831 0.985 . S
N819 C821 1.356 . S
N819 H824 0.984 . S
N819 H825 0.985 . S
C820 C814 1.379 . S
C820 C817 1.363 . S
C820 N818 1.356 . S
C821 C815 1.363 . S
C821 C816 1.379 . S
C821 N819 1.356 . S
N822 C814 1.356 . S
N822 H828 0.984 . S
N822 H829 0.984 . S
N823 C816 1.356 . S
N823 H826 0.984 . S
N823 H827 0.985 . S
H824 N819 0.984 . S
H825 N819 0.985 . S
H826 N823 0.984 . S
H827 N823 0.985 . S
H828 N822 0.984 . S
H829 N822 0.984 . S
H830 N818 0.984 . S
H831 N818 0.985 . S
C832 C833 1.363 . S
C832 C838 1.379 . S
C832 N840 1.356 . S
C833 C832 1.363 . S
C833 C839 1.363 . S
C834 C835 1.363 . S
C834 C839 1.379 . S
C834 N841 1.356 . S
C835 C834 1.363 . S
C835 C838 1.363 . S
N836 C838 1.356 . S
N836 H848 0.984 . S
N836 H849 0.985 . S
N837 C839 1.356 . S
N837 H842 0.984 . S
N837 H843 0.985 . S
C838 C832 1.379 . S
C838 C835 1.363 . S
C838 N836 1.356 . S
C839 C833 1.363 . S
C839 C834 1.379 . S
C839 N837 1.356 . S
N840 C832 1.356 . S
N840 H846 0.984 . S
N840 H847 0.984 . S
N841 C834 1.356 . S
N841 H844 0.984 . S
N841 H845 0.985 . S
H842 N837 0.984 . S
H843 N837 0.985 . S
H844 N841 0.984 . S
H845 N841 0.985 . S
H846 N840 0.984 . S
H847 N840 0.984 . S
H848 N836 0.984 . S
H849 N836 0.985 . S
C850 C851 1.363 . S
C850 C856 1.379 1_554 S
C850 N858 1.356 . S
C851 C850 1.363 . S
C851 C857 1.363 . S
C852 C853 1.363 . S
C852 C857 1.379 1_556 S
C852 N859 1.356 . S
C853 C852 1.363 . S
C853 C856 1.363 . S
N854 C856 1.356 . S
N854 H866 0.984 . S
N854 H867 0.985 . S
N855 C857 1.356 . S
N855 H860 0.984 . S
N855 H861 0.985 . S
C856 C850 1.379 1_556 S
C856 C853 1.363 . S
C856 N854 1.356 . S
C857 C851 1.363 . S
C857 C852 1.379 1_554 S
C857 N855 1.356 . S
N858 C850 1.356 . S
N858 H864 0.984 . S
N858 H865 0.984 . S
N859 C852 1.356 . S
N859 H862 0.984 . S
N859 H863 0.985 . S
H860 N855 0.984 . S
H861 N855 0.985 . S
H862 N859 0.984 . S
H863 N859 0.985 . S
H864 N858 0.984 . S
H865 N858 0.984 . S
H866 N854 0.984 . S
H867 N854 0.985 . S
C868 C869 1.363 1_565 S
C868 C874 1.379 . S
C868 N876 1.356 . S
C869 C868 1.363 1_545 S
C869 C875 1.363 . S
C870 C871 1.363 1_545 S
C870 C875 1.379 . S
C870 N877 1.356 . S
C871 C870 1.363 1_565 S
C871 C874 1.363 . S
N872 C874 1.356 . S
N872 H884 0.984 . S
N872 H885 0.985 . S
N873 C875 1.356 . S
N873 H878 0.984 . S
N873 H879 0.985 . S
C874 C868 1.379 . S
C874 C871 1.363 . S
C874 N872 1.356 . S
C875 C869 1.363 . S
C875 C870 1.379 . S
C875 N873 1.356 . S
N876 C868 1.356 . S
N876 H882 0.984 . S
N876 H883 0.984 . S
N877 C870 1.356 . S
N877 H880 0.984 . S
N877 H881 0.985 . S
H878 N873 0.984 . S
H879 N873 0.985 . S
H880 N877 0.984 . S
H881 N877 0.985 . S
H882 N876 0.984 . S
H883 N876 0.984 . S
H884 N872 0.984 . S
H885 N872 0.985 . S
C886 C887 1.363 1_655 S
C886 C892 1.379 . S
C886 N894 1.356 . S
C887 C886 1.363 1_455 S
C887 C893 1.363 . S
C888 C889 1.363 1_455 S
C888 C893 1.379 . S
C888 N895 1.356 . S
C889 C888 1.363 1_655 S
C889 C892 1.363 . S
N890 C892 1.356 . S
N890 H902 0.984 . S
N890 H903 0.985 . S
N891 C893 1.356 . S
N891 H896 0.984 . S
N891 H897 0.985 . S
C892 C886 1.379 . S
C892 C889 1.363 . S
C892 N890 1.356 . S
C893 C887 1.363 . S
C893 C888 1.379 . S
C893 N891 1.356 . S
N894 C886 1.356 . S
N894 H900 0.984 . S
N894 H901 0.984 . S
N895 C888 1.356 . S
N895 H898 0.984 . S
N895 H899 0.985 . S
H896 N891 0.984 . S
H897 N891 0.985 . S
H898 N895 0.984 . S
H899 N895 0.985 . S
H900 N894 0.984 . S
H901 N894 0.984 . S
H902 N890 0.984 . S
H903 N890 0.985 . S
C904 C905 1.363 . S
C904 C910 1.379 . S
C904 N912 1.356 . S
C905 C904 1.363 . S
C905 C911 1.363 . S
C906 C907 1.363 . S
C906 C911 1.379 . S
C906 N913 1.356 . S
C907 C906 1.363 . S
C907 C910 1.363 . S
N908 C910 1.356 . S
N908 H920 0.984 . S
N908 H921 0.985 . S
N909 C911 1.356 . S
N909 H914 0.984 . S
N909 H915 0.985 . S
C910 C904 1.379 . S
C910 C907 1.363 . S
C910 N908 1.356 . S
C911 C905 1.363 . S
C911 C906 1.379 . S
C911 N909 1.356 . S
N912 C904 1.356 . S
N912 H918 0.984 . S
N912 H919 0.984 . S
N913 C906 1.356 . S
N913 H916 0.984 . S
N913 H917 0.985 . S
H914 N909 0.984 . S
H915 N909 0.985 . S
H916 N913 0.984 . S
H917 N913 0.985 . S
H918 N912 0.984 . S
H919 N912 0.984 . S
H920 N908 0.984 . S
H921 N908 0.985 . S
C922 C923 1.363 . S
C922 C928 1.379 . S
C922 N930 1.356 . S
C923 C922 1.363 . S
C923 C929 1.363 . S
C924 C925 1.363 . S
C924 C929 1.379 . S
C924 N931 1.356 . S
C925 C924 1.363 . S
C925 C928 1.363 . S
N926 C928 1.356 . S
N926 H938 0.984 . S
N926 H939 0.985 . S
N927 C929 1.356 . S
N927 H932 0.984 . S
N927 H933 0.985 . S
C928 C922 1.379 . S
C928 C925 1.363 . S
C928 N926 1.356 . S
C929 C923 1.363 . S
C929 C924 1.379 . S
C929 N927 1.356 . S
N930 C922 1.356 . S
N930 H936 0.984 . S
N930 H937 0.984 . S
N931 C924 1.356 . S
N931 H934 0.984 . S
N931 H935 0.985 . S
H932 N927 0.984 . S
H933 N927 0.985 . S
H934 N931 0.984 . S
H935 N931 0.985 . S
H936 N930 0.984 . S
H937 N930 0.984 . S
H938 N926 0.984 . S
H939 N926 0.985 . S
C940 C941 1.363 1_545 S
C940 C946 1.379 . S
C940 N948 1.356 . S
C941 C940 1.363 1_565 S
C941 C947 1.363 . S
C942 C943 1.363 1_565 S
C942 C947 1.379 . S
C942 N949 1.356 . S
C943 C942 1.363 1_545 S
C943 C946 1.363 . S
N944 C946 1.356 . S
N944 H956 0.984 . S
N944 H957 0.985 . S
N945 C947 1.356 . S
N945 H950 0.984 . S
N945 H951 0.985 . S
C946 C940 1.379 . S
C946 C943 1.363 . S
C946 N944 1.356 . S
C947 C941 1.363 . S
C947 C942 1.379 . S
C947 N945 1.356 . S
N948 C940 1.356 . S
N948 H954 0.984 . S
N948 H955 0.984 . S
N949 C942 1.356 . S
N949 H952 0.984 . S
N949 H953 0.985 . S
H950 N945 0.984 . S
H951 N945 0.985 . S
H952 N949 0.984 . S
H953 N949 0.985 . S
H954 N948 0.984 . S
H955 N948 0.984 . S
H956 N944 0.984 . S
H957 N944 0.985 . S
C958 C959 1.363 . S
C958 C964 1.379 1_554 S
C958 N966 1.356 . S
C959 C958 1.363 . S
C959 C965 1.363 1_655 S
C960 C961 1.363 . S
C960 C965 1.379 1_556 S
C960 N967 1.356 . S
C961 C960 1.363 . S
C961 C964 1.363 1_455 S
N962 C964 1.356 . S
N962 H974 0.984 . S
N962 H975 0.985 . S
N963 C965 1.356 . S
N963 H968 0.984 . S
N963 H969 0.985 . S
C964 C958 1.379 1_556 S
C964 C961 1.363 1_655 S
C964 N962 1.356 . S
C965 C959 1.363 1_455 S
C965 C960 1.379 1_554 S
C965 N963 1.356 . S
N966 C958 1.356 . S
N966 H972 0.984 . S
N966 H973 0.984 . S
N967 C960 1.356 . S
N967 H970 0.984 . S
N967 H971 0.985 . S
H968 N963 0.984 . S
H969 N963 0.985 . S
H970 N967 0.984 . S
H971 N967 0.985 . S
H972 N966 0.984 . S
H973 N966 0.984 . S
H974 N962 0.984 . S
H975 N962 0.985 . S
C976 C977 1.363 . S
C976 C982 1.379 . S
C976 N984 1.356 . S
C977 C976 1.363 . S
C977 C983 1.363 . S
C978 C979 1.363 . S
C978 C983 1.379 . S
C978 N985 1.356 . S
C979 C978 1.363 . S
C979 C982 1.363 . S
N980 C982 1.356 . S
N980 H992 0.984 . S
N980 H993 0.985 . S
N981 C983 1.356 . S
N981 H986 0.984 . S
N981 H987 0.985 . S
C982 C976 1.379 . S
C982 C979 1.363 . S
C982 N980 1.356 . S
C983 C977 1.363 . S
C983 C978 1.379 . S
C983 N981 1.356 . S
N984 C976 1.356 . S
N984 H990 0.984 . S
N984 H991 0.984 . S
N985 C978 1.356 . S
N985 H988 0.984 . S
N985 H989 0.994 . S
H986 N981 0.984 . S
H987 N981 0.985 . S
H988 N985 0.984 . S
H989 N985 0.994 . S
H990 N984 0.984 . S
H991 N984 0.984 . S
H992 N980 0.984 . S
H993 N980 0.985 . S
C994 C995 1.363 . S
C994 C1000 1.379 . S
C994 N1002 1.356 . S
C995 C994 1.363 . S
C995 C1001 1.363 . S
C996 C997 1.363 . S
C996 C1001 1.379 . S
C996 N1003 1.356 . S
C997 C996 1.363 . S
C997 C1000 1.363 . S
N998 C1000 1.356 . S
N998 H1010 0.984 . S
N998 H1011 0.985 . S
N999 C1001 1.356 . S
N999 H1004 0.984 . S
N999 H1005 0.985 . S
C1000 C994 1.379 . S
C1000 C997 1.363 . S
C1000 N998 1.356 . S
C1001 C995 1.363 . S
C1001 C996 1.379 . S
C1001 N999 1.356 . S
N1002 C994 1.356 . S
N1002 H1008 0.984 . S
N1002 H1009 0.984 . S
N1003 C996 1.356 . S
N1003 H1006 0.984 . S
N1003 H1007 0.985 . S
H1004 N999 0.984 . S
H1005 N999 0.985 . S
H1006 N1003 0.984 . S
H1007 N1003 0.985 . S
H1008 N1002 0.984 . S
H1009 N1002 0.984 . S
H1010 N998 0.984 . S
H1011 N998 0.985 . S
C1012 C1013 1.363 . S
C1012 C1018 1.379 . S
C1012 N1020 1.356 . S
C1013 C1012 1.363 . S
C1013 C1019 1.363 . S
C1014 C1015 1.363 . S
C1014 C1019 1.379 . S
C1014 N1021 1.356 . S
C1015 C1014 1.363 . S
C1015 C1018 1.363 . S
N1016 C1018 1.356 . S
N1016 H1028 0.984 . S
N1016 H1029 0.985 . S
N1017 C1019 1.356 . S
N1017 H1022 0.984 . S
N1017 H1023 0.985 . S
C1018 C1012 1.379 . S
C1018 C1015 1.363 . S
C1018 N1016 1.356 . S
C1019 C1013 1.363 . S
C1019 C1014 1.379 . S
C1019 N1017 1.356 . S
N1020 C1012 1.356 . S
N1020 H1026 0.984 . S
N1020 H1027 0.984 . S
N1021 C1014 1.356 . S
N1021 H1024 0.984 . S
N1021 H1025 0.985 . S
H1022 N1017 0.984 . S
H1023 N1017 0.985 . S
H1024 N1021 0.984 . S
H1025 N1021 0.985 . S
H1026 N1020 0.984 . S
H1027 N1020 0.984 . S
H1028 N1016 0.984 . S
H1029 N1016 0.985 . S
C1030 C1031 1.363 . S
C1030 C1036 1.379 . S
C1030 N1038 1.356 . S
C1031 C1030 1.363 . S
C1031 C1037 1.363 . S
C1032 C1033 1.363 . S
C1032 C1037 1.379 . S
C1032 N1039 1.356 . S
C1033 C1032 1.363 . S
C1033 C1036 1.363 . S
N1034 C1036 1.356 . S
N1034 H1046 0.984 1_556 S
N1034 H1047 0.985 . S
N1035 C1037 1.356 . S
N1035 H1040 0.984 . S
N1035 H1041 0.985 . S
C1036 C1030 1.379 . S
C1036 C1033 1.363 . S
C1036 N1034 1.356 . S
C1037 C1031 1.363 . S
C1037 C1032 1.379 . S
C1037 N1035 1.356 . S
N1038 C1030 1.356 . S
N1038 H1044 0.984 . S
N1038 H1045 0.984 . S
N1039 C1032 1.356 . S
N1039 H1042 0.984 . S
N1039 H1043 0.985 . S
H1040 N1035 0.984 . S
H1041 N1035 0.985 . S
H1042 N1039 0.984 . S
H1043 N1039 0.985 . S
H1044 N1038 0.984 . S
H1045 N1038 0.984 . S
H1046 N1034 0.984 1_554 S
H1047 N1034 0.985 . S
C1048 C1049 1.363 . S
C1048 C1054 1.379 . S
C1048 N1056 1.356 . S
C1049 C1048 1.363 . S
C1049 C1055 1.363 . S
C1050 C1051 1.363 . S
C1050 C1055 1.379 . S
C1050 N1057 1.356 . S
C1051 C1050 1.363 . S
C1051 C1054 1.363 . S
N1052 C1054 1.356 . S
N1052 H1064 0.984 . S
N1052 H1065 0.985 . S
N1053 C1055 1.356 . S
N1053 H1058 0.984 . S
N1053 H1059 0.985 . S
C1054 C1048 1.379 . S
C1054 C1051 1.363 . S
C1054 N1052 1.356 . S
C1055 C1049 1.363 . S
C1055 C1050 1.379 . S
C1055 N1053 1.356 . S
N1056 C1048 1.356 . S
N1056 H1062 0.984 . S
N1056 H1063 0.984 . S
N1057 C1050 1.356 . S
N1057 H1060 0.984 . S
N1057 H1061 0.985 . S
H1058 N1053 0.984 . S
H1059 N1053 0.985 . S
H1060 N1057 0.984 . S
H1061 N1057 0.985 . S
H1062 N1056 0.984 . S
H1063 N1056 0.984 . S
H1064 N1052 0.984 . S
H1065 N1052 0.985 . S
C1066 C1067 1.363 . S
C1066 C1072 1.379 . S
C1066 N1074 1.356 . S
C1067 C1066 1.363 . S
C1067 C1073 1.363 . S
C1068 C1069 1.363 . S
C1068 C1073 1.379 . S
C1068 N1075 1.356 . S
C1069 C1068 1.363 . S
C1069 C1072 1.363 . S
N1070 C1072 1.356 . S
N1070 H1082 0.984 . S
N1070 H1083 0.985 . S
N1071 C1073 1.356 . S
N1071 H1076 0.984 . S
N1071 H1077 0.985 . S
C1072 C1066 1.379 . S
C1072 C1069 1.363 . S
C1072 N1070 1.356 . S
C1073 C1067 1.363 . S
C1073 C1068 1.379 . S
C1073 N1071 1.356 . S
N1074 C1066 1.356 . S
N1074 H1080 0.984 . S
N1074 H1081 0.984 . S
N1075 C1068 1.356 . S
N1075 H1078 0.984 . S
N1075 H1079 0.985 . S
H1076 N1071 0.984 . S
H1077 N1071 0.985 . S
H1078 N1075 0.984 . S
H1079 N1075 0.985 . S
H1080 N1074 0.984 . S
H1081 N1074 0.984 . S
H1082 N1070 0.984 . S
H1083 N1070 0.985 . S
C1084 C1085 1.363 . S
C1084 C1090 1.379 . S
C1084 N1092 1.356 . S
C1085 C1084 1.363 . S
C1085 C1091 1.363 . S
C1086 C1087 1.363 . S
C1086 C1091 1.379 . S
C1086 N1093 1.356 . S
C1087 C1086 1.363 . S
C1087 C1090 1.363 . S
N1088 C1090 1.356 . S
N1088 H1100 0.984 . S
N1088 H1101 0.985 . S
N1089 C1091 1.356 . S
N1089 H1094 0.984 . S
N1089 H1095 0.985 . S
C1090 C1084 1.379 . S
C1090 C1087 1.363 . S
C1090 N1088 1.356 . S
C1091 C1085 1.363 . S
C1091 C1086 1.379 . S
C1091 N1089 1.356 . S
N1092 C1084 1.356 . S
N1092 H1098 0.984 . S
N1092 H1099 0.984 . S
N1093 C1086 1.356 . S
N1093 H1096 0.984 . S
N1093 H1097 0.985 . S
H1094 N1089 0.984 . S
H1095 N1089 0.985 . S
H1096 N1093 0.984 . S
H1097 N1093 0.985 . S
H1098 N1092 0.984 . S
H1099 N1092 0.984 . S
H1100 N1088 0.984 . S
H1101 N1088 0.985 . S
C1102 C1103 1.363 . S
C1102 C1108 1.379 . S
C1102 N1110 1.356 . S
C1103 C1102 1.363 . S
C1103 C1109 1.363 . S
C1104 C1105 1.363 . S
C1104 C1109 1.379 . S
C1104 N1111 1.356 . S
C1105 C1104 1.363 . S
C1105 C1108 1.363 . S
N1106 C1108 1.356 . S
N1106 H1118 0.984 . S
N1106 H1119 0.985 . S
N1107 C1109 1.356 . S
N1107 H1112 0.984 . S
N1107 H1113 0.985 . S
C1108 C1102 1.379 . S
C1108 C1105 1.363 . S
C1108 N1106 1.356 . S
C1109 C1103 1.363 . S
C1109 C1104 1.379 . S
C1109 N1107 1.356 . S
N1110 C1102 1.356 . S
N1110 H1116 0.984 . S
N1110 H1117 0.984 . S
N1111 C1104 1.356 . S
N1111 H1114 0.984 . S
N1111 H1115 0.985 . S
H1112 N1107 0.984 . S
H1113 N1107 0.985 . S
H1114 N1111 0.984 . S
H1115 N1111 0.985 . S
H1116 N1110 0.984 . S
H1117 N1110 0.984 . S
H1118 N1106 0.984 . S
H1119 N1106 0.985 . S
C1120 C1121 1.363 . S
C1120 C1126 1.379 . S
C1120 N1128 1.356 . S
C1121 C1120 1.363 . S
C1121 C1127 1.363 . S
C1122 C1123 1.363 . S
C1122 C1127 1.379 . S
C1122 N1129 1.356 . S
C1123 C1122 1.363 . S
C1123 C1126 1.363 . S
N1124 C1126 1.356 . S
N1124 H1136 0.984 . S
N1124 H1137 0.985 . S
N1125 C1127 1.356 . S
N1125 H1130 0.984 . S
N1125 H1131 0.985 . S
C1126 C1120 1.379 . S
C1126 C1123 1.363 . S
C1126 N1124 1.356 . S
C1127 C1121 1.363 . S
C1127 C1122 1.379 . S
C1127 N1125 1.356 . S
N1128 C1120 1.356 . S
N1128 H1134 0.984 . S
N1128 H1135 0.984 . S
N1129 C1122 1.356 . S
N1129 H1132 0.984 . S
N1129 H1133 0.985 . S
H1130 N1125 0.984 . S
H1131 N1125 0.985 . S
H1132 N1129 0.984 . S
H1133 N1129 0.985 . S
H1134 N1128 0.984 . S
H1135 N1128 0.984 . S
H1136 N1124 0.984 . S
H1137 N1124 0.985 . S
C1138 C1139 1.363 . S
C1138 C1144 1.379 . S
C1138 N1146 1.356 . S
C1139 C1138 1.363 . S
C1139 C1145 1.363 . S
C1140 C1141 1.363 . S
C1140 C1145 1.379 . S
C1140 N1147 1.356 . S
C1141 C1140 1.363 . S
C1141 C1144 1.363 . S
N1142 C1144 1.356 . S
N1142 H1154 0.984 . S
N1142 H1155 0.985 . S
N1143 C1145 1.356 . S
N1143 H1148 0.984 . S
N1143 H1149 0.985 . S
C1144 C1138 1.379 . S
C1144 C1141 1.363 . S
C1144 N1142 1.356 . S
C1145 C1139 1.363 . S
C1145 C1140 1.379 . S
C1145 N1143 1.356 . S
N1146 C1138 1.356 . S
N1146 H1152 0.984 . S
N1146 H1153 0.984 . S
N1147 C1140 1.356 . S
N1147 H1150 0.984 . S
N1147 H1151 0.985 . S
H1148 N1143 0.984 . S
H1149 N1143 0.985 . S
H1150 N1147 0.984 . S
H1151 N1147 0.985 . S
H1152 N1146 0.984 . S
H1153 N1146 0.984 . S
H1154 N1142 0.984 . S
H1155 N1142 0.985 . S
C1156 C1157 1.363 . S
C1156 C1162 1.379 . S
C1156 N1164 1.356 . S
C1157 C1156 1.363 . S
C1157 C1163 1.363 . S
C1158 C1159 1.363 . S
C1158 C1163 1.379 . S
C1158 N1165 1.356 . S
C1159 C1158 1.363 . S
C1159 C1162 1.363 . S
N1160 C1162 1.356 . S
N1160 H1172 0.984 . S
N1160 H1173 0.985 . S
N1161 C1163 1.356 . S
N1161 H1166 0.984 . S
N1161 H1167 0.985 . S
C1162 C1156 1.379 . S
C1162 C1159 1.363 . S
C1162 N1160 1.356 . S
C1163 C1157 1.363 . S
C1163 C1158 1.379 . S
C1163 N1161 1.356 . S
N1164 C1156 1.356 . S
N1164 H1170 0.984 1_554 S
N1164 H1171 0.984 1_554 S
N1165 C1158 1.356 . S
N1165 H1168 0.984 . S
N1165 H1169 0.985 . S
H1166 N1161 0.984 . S
H1167 N1161 0.985 . S
H1168 N1165 0.984 . S
H1169 N1165 0.985 . S
H1170 N1164 0.984 1_556 S
H1171 N1164 0.984 1_556 S
H1172 N1160 0.984 . S
H1173 N1160 0.985 . S
C1174 C1175 1.363 . S
C1174 C1180 1.379 . S
C1174 N1182 1.356 . S
C1175 C1174 1.363 . S
C1175 C1181 1.363 . S
C1176 C1177 1.363 . S
C1176 C1181 1.379 . S
C1176 N1183 1.356 . S
C1177 C1176 1.363 . S
C1177 C1180 1.363 . S
N1178 C1180 1.356 . S
N1178 H1190 0.984 . S
N1178 H1191 0.985 . S
N1179 C1181 1.356 . S
N1179 H1184 0.984 . S
N1179 H1185 0.985 . S
C1180 C1174 1.379 . S
C1180 C1177 1.363 . S
C1180 N1178 1.356 . S
C1181 C1175 1.363 . S
C1181 C1176 1.379 . S
C1181 N1179 1.356 . S
N1182 C1174 1.356 . S
N1182 H1188 0.984 . S
N1182 H1189 0.984 . S
N1183 C1176 1.356 . S
N1183 H1186 0.984 . S
N1183 H1187 0.985 . S
H1184 N1179 0.984 . S
H1185 N1179 0.985 . S
H1186 N1183 0.984 . S
H1187 N1183 0.985 . S
H1188 N1182 0.984 . S
H1189 N1182 0.984 . S
H1190 N1178 0.984 . S
H1191 N1178 0.985 . S
C1192 C1193 1.363 . S
C1192 C1198 1.379 . S
C1192 N1200 1.356 . S
C1193 C1192 1.363 . S
C1193 C1199 1.363 . S
C1194 C1195 1.363 . S
C1194 C1199 1.379 . S
C1194 N1201 1.356 . S
C1195 C1194 1.363 . S
C1195 C1198 1.363 . S
N1196 C1198 1.356 . S
N1196 H1208 0.984 1_554 S
N1196 H1209 0.985 . S
N1197 C1199 1.356 . S
N1197 H1202 0.984 . S
N1197 H1203 0.985 . S
C1198 C1192 1.379 . S
C1198 C1195 1.363 . S
C1198 N1196 1.356 . S
C1199 C1193 1.363 . S
C1199 C1194 1.379 . S
C1199 N1197 1.356 . S
N1200 C1192 1.356 . S
N1200 H1206 0.984 . S
N1200 H1207 0.984 . S
N1201 C1194 1.356 . S
N1201 H1204 0.984 . S
N1201 H1205 0.985 . S
H1202 N1197 0.984 . S
H1203 N1197 0.985 . S
H1204 N1201 0.984 . S
H1205 N1201 0.985 . S
H1206 N1200 0.984 . S
H1207 N1200 0.984 . S
H1208 N1196 0.984 1_556 S
H1209 N1196 0.985 . S
C1210 C1211 1.363 . S
C1210 C1216 1.379 . S
C1210 N1218 1.356 . S
C1211 C1210 1.363 . S
C1211 C1217 1.363 . S
C1212 C1213 1.363 . S
C1212 C1217 1.379 . S
C1212 N1219 1.356 . S
C1213 C1212 1.363 . S
C1213 C1216 1.363 . S
N1214 C1216 1.356 . S
N1214 H1226 0.984 . S
N1214 H1227 0.985 . S
N1215 C1217 1.356 . S
N1215 H1220 0.984 . S
N1215 H1221 0.985 . S
C1216 C1210 1.379 . S
C1216 C1213 1.363 . S
C1216 N1214 1.356 . S
C1217 C1211 1.363 . S
C1217 C1212 1.379 . S
C1217 N1215 1.356 . S
N1218 C1210 1.356 . S
N1218 H1224 0.984 . S
N1218 H1225 0.984 . S
N1219 C1212 1.356 . S
N1219 H1222 0.984 . S
N1219 H1223 0.985 . S
H1220 N1215 0.984 . S
H1221 N1215 0.985 . S
H1222 N1219 0.984 . S
H1223 N1219 0.985 . S
H1224 N1218 0.984 . S
H1225 N1218 0.984 . S
H1226 N1214 0.984 . S
H1227 N1214 0.985 . S
C1228 C1229 1.363 . S
C1228 C1234 1.379 . S
C1228 N1236 1.356 . S
C1229 C1228 1.363 . S
C1229 C1235 1.363 . S
C1230 C1231 1.363 . S
C1230 C1235 1.379 . S
C1230 N1237 1.356 . S
C1231 C1230 1.363 . S
C1231 C1234 1.363 . S
N1232 C1234 1.356 . S
N1232 H1244 0.984 . S
N1232 H1245 0.985 . S
N1233 C1235 1.356 . S
N1233 H1238 0.984 . S
N1233 H1239 0.985 . S
C1234 C1228 1.379 . S
C1234 C1231 1.363 . S
C1234 N1232 1.356 . S
C1235 C1229 1.363 . S
C1235 C1230 1.379 . S
C1235 N1233 1.356 . S
N1236 C1228 1.356 . S
N1236 H1242 0.984 . S
N1236 H1243 0.984 . S
N1237 C1230 1.356 . S
N1237 H1240 0.984 . S
N1237 H1241 0.985 . S
H1238 N1233 0.984 . S
H1239 N1233 0.985 . S
H1240 N1237 0.984 . S
H1241 N1237 0.985 . S
H1242 N1236 0.984 . S
H1243 N1236 0.984 . S
H1244 N1232 0.984 . S
H1245 N1232 0.985 . S
C1246 C1247 1.363 . S
C1246 C1252 1.379 . S
C1246 N1254 1.356 . S
C1247 C1246 1.363 . S
C1247 C1253 1.363 . S
C1248 C1249 1.363 . S
C1248 C1253 1.379 . S
C1248 N1255 1.356 . S
C1249 C1248 1.363 . S
C1249 C1252 1.363 . S
N1250 C1252 1.356 . S
N1250 H1262 0.984 . S
N1250 H1263 0.985 . S
N1251 C1253 1.356 . S
N1251 H1256 0.984 . S
N1251 H1257 0.985 . S
C1252 C1246 1.379 . S
C1252 C1249 1.363 . S
C1252 N1250 1.356 . S
C1253 C1247 1.363 . S
C1253 C1248 1.379 . S
C1253 N1251 1.356 . S
N1254 C1246 1.356 . S
N1254 H1260 0.984 . S
N1254 H1261 0.984 . S
N1255 C1248 1.356 . S
N1255 H1258 0.984 . S
N1255 H1259 0.985 . S
H1256 N1251 0.984 . S
H1257 N1251 0.985 . S
H1258 N1255 0.984 . S
H1259 N1255 0.985 . S
H1260 N1254 0.984 . S
H1261 N1254 0.984 . S
H1262 N1250 0.984 . S
H1263 N1250 0.985 . S
C545 C345 1.683 . S
C547 C5 1.683 . S
C563 C39 1.683 . S
C565 C379 1.683 . S
C581 C277 1.683 . S
C583 C73 1.683 . S
C599 C107 1.683 . S
C601 C311 1.683 . S
C617 C481 1.684 . S
C619 C141 1.684 . S
C635 C175 1.683 . S
C637 C515 1.683 . S
C653 C209 1.683 . S
C655 C413 1.683 . S
C671 C447 1.683 . S
C673 C243 1.683 . S
C689 C496 1.207 . S
C691 C33 1.206 . S
C707 C530 1.207 . S
C709 C67 1.206 . S
C725 C101 1.206 . S
C727 C428 1.207 . S
C743 C462 1.207 . S
C745 C135 1.206 . S
C761 C169 1.206 . S
C763 C360 1.207 . S
C779 C203 1.206 . S
C781 C394 1.207 . S
C797 C292 1.207 . S
C799 C237 1.206 . S
C815 C271 1.206 . S
C817 C326 1.207 . S
C833 C224 1.207 . S
C835 C305 1.206 . S
C851 C258 1.207 . S
C853 C339 1.206 . S
C869 C156 1.207 . S
C871 C373 1.206 . S
C887 C407 1.206 . S
C889 C190 1.207 . S
C905 C441 1.206 . S
C907 C88 1.207 . S
C923 C475 1.206 . S
C925 C122 1.207 . S
C941 C509 1.206 . S
C943 C20 1.207 . S
C959 C54 1.207 . S
C961 C543 1.206 . S
C977 C383 1.551 . S
C979 C2 1.615 . S
C995 C36 1.615 . S
C997 C281 1.551 . S
C1013 C70 1.615 . S
C1015 C315 1.551 . S
C1031 C104 1.615 . S
C1033 C349 1.551 . S
C1049 C179 1.551 . S
C1051 C138 1.615 . S
C1067 C172 1.615 . S
C1069 C213 1.551 . S
C1085 C247 1.551 . S
C1087 C206 1.615 . S
C1103 C240 1.615 . S
C1105 C145 1.551 . S
C1121 C111 1.551 . S
C1123 C274 1.615 . S
C1139 C308 1.615 . S
C1141 C9 1.551 . S
C1157 C342 1.615 . S
C1159 C43 1.551 . S
C1175 C77 1.551 . S
C1177 C376 1.615 . S
C1193 C451 1.551 . S
C1195 C410 1.615 . S
C1211 C485 1.551 . S
C1213 C444 1.615 . S
C1229 C478 1.615 . S
C1231 C519 1.551 . S
C1247 C417 1.551 . S
C1249 C512 1.615 . S
