# Generated by pormake.
# Topology wkf, (6)-cn, num edge types: 1
# Building blocks:
#     Node 0, Type 0, BuildingBlock: KUMJIN_clean_sbu_1, # of connection points: 6
#     Node 1, Type 0, BuildingBlock: KUMJIN_clean_sbu_1, # of connection points: 6
#     Node 2, Type 0, BuildingBlock: KUMJIN_clean_sbu_1, # of connection points: 6
#     Node 3, Type 0, BuildingBlock: KUMJIN_clean_sbu_1, # of connection points: 6
#     Node 4, Type 0, BuildingBlock: KUMJIN_clean_sbu_1, # of connection points: 6
#     Node 5, Type 0, BuildingBlock: KUMJIN_clean_sbu_1, # of connection points: 6
#     Node 6, Type 0, BuildingBlock: KUMJIN_clean_sbu_1, # of connection points: 6
#     Node 7, Type 0, BuildingBlock: KUMJIN_clean_sbu_1, # of connection points: 6
#     Node 8, Type 0, BuildingBlock: KUMJIN_clean_sbu_1, # of connection points: 6
#     Node 9, Type 0, BuildingBlock: KUMJIN_clean_sbu_1, # of connection points: 6
#     Node 10, Type 0, BuildingBlock: KUMJIN_clean_sbu_1, # of connection points: 6
#     Node 11, Type 0, BuildingBlock: KUMJIN_clean_sbu_1, # of connection points: 6
#     Edge 12, Type (0, 0), BuildingBlock: AJUNOK_clean_linker_0, # of connection points: 2
#     Edge 13, Type (0, 0), BuildingBlock: AJUNOK_clean_linker_0, # of connection points: 2
#     Edge 14, Type (0, 0), BuildingBlock: AJUNOK_clean_linker_0, # of connection points: 2
#     Edge 15, Type (0, 0), BuildingBlock: AJUNOK_clean_linker_0, # of connection points: 2
#     Edge 16, Type (0, 0), BuildingBlock: AJUNOK_clean_linker_0, # of connection points: 2
#     Edge 17, Type (0, 0), BuildingBlock: AJUNOK_clean_linker_0, # of connection points: 2
#     Edge 18, Type (0, 0), BuildingBlock: AJUNOK_clean_linker_0, # of connection points: 2
#     Edge 19, Type (0, 0), BuildingBlock: AJUNOK_clean_linker_0, # of connection points: 2
#     Edge 20, Type (0, 0), BuildingBlock: AJUNOK_clean_linker_0, # of connection points: 2
#     Edge 21, Type (0, 0), BuildingBlock: AJUNOK_clean_linker_0, # of connection points: 2
#     Edge 22, Type (0, 0), BuildingBlock: AJUNOK_clean_linker_0, # of connection points: 2
#     Edge 23, Type (0, 0), BuildingBlock: AJUNOK_clean_linker_0, # of connection points: 2
#     Edge 24, Type (0, 0), BuildingBlock: AJUNOK_clean_linker_0, # of connection points: 2
#     Edge 25, Type (0, 0), BuildingBlock: AJUNOK_clean_linker_0, # of connection points: 2
#     Edge 26, Type (0, 0), BuildingBlock: AJUNOK_clean_linker_0, # of connection points: 2
#     Edge 27, Type (0, 0), BuildingBlock: AJUNOK_clean_linker_0, # of connection points: 2
#     Edge 28, Type (0, 0), BuildingBlock: AJUNOK_clean_linker_0, # of connection points: 2
#     Edge 29, Type (0, 0), BuildingBlock: AJUNOK_clean_linker_0, # of connection points: 2
#     Edge 30, Type (0, 0), BuildingBlock: AJUNOK_clean_linker_0, # of connection points: 2
#     Edge 31, Type (0, 0), BuildingBlock: AJUNOK_clean_linker_0, # of connection points: 2
#     Edge 32, Type (0, 0), BuildingBlock: AJUNOK_clean_linker_0, # of connection points: 2
#     Edge 33, Type (0, 0), BuildingBlock: AJUNOK_clean_linker_0, # of connection points: 2
#     Edge 34, Type (0, 0), BuildingBlock: AJUNOK_clean_linker_0, # of connection points: 2
#     Edge 35, Type (0, 0), BuildingBlock: AJUNOK_clean_linker_0, # of connection points: 2
#     Edge 36, Type (0, 0), BuildingBlock: AJUNOK_clean_linker_0, # of connection points: 2
#     Edge 37, Type (0, 0), BuildingBlock: AJUNOK_clean_linker_0, # of connection points: 2
#     Edge 38, Type (0, 0), BuildingBlock: AJUNOK_clean_linker_0, # of connection points: 2
#     Edge 39, Type (0, 0), BuildingBlock: AJUNOK_clean_linker_0, # of connection points: 2
#     Edge 40, Type (0, 0), BuildingBlock: AJUNOK_clean_linker_0, # of connection points: 2
#     Edge 41, Type (0, 0), BuildingBlock: AJUNOK_clean_linker_0, # of connection points: 2
#     Edge 42, Type (0, 0), BuildingBlock: AJUNOK_clean_linker_0, # of connection points: 2
#     Edge 43, Type (0, 0), BuildingBlock: AJUNOK_clean_linker_0, # of connection points: 2
#     Edge 44, Type (0, 0), BuildingBlock: AJUNOK_clean_linker_0, # of connection points: 2
#     Edge 45, Type (0, 0), BuildingBlock: AJUNOK_clean_linker_0, # of connection points: 2
#     Edge 46, Type (0, 0), BuildingBlock: AJUNOK_clean_linker_0, # of connection points: 2
#     Edge 47, Type (0, 0), BuildingBlock: AJUNOK_clean_linker_0, # of connection points: 2
# Relax obj value: 0.326
# Max RMSD: 0.291
# Mean RMSD: 0.280
data_MOF--net-wkf--node1-KUMJIN_clean_sbu_1--edge1-AJUNOK_clean_linker_0
_symmetry_space_group_name_H-M    P1
_symmetry_Int_Tables_number       1
_symmetry_cell_setting            triclinic
loop_
_symmetry_equiv_pos_as_xyz
'x, y, z'
_cell_length_a     22.812715
_cell_length_b     22.887052
_cell_length_c     69.746717
_cell_angle_alpha  89.932668
_cell_angle_beta   90.12362
_cell_angle_gamma 119.22333
loop_
_atom_site_label
_atom_site_type_symbol
_atom_site_fract_x
_atom_site_fract_y
_atom_site_fract_z
_atom_type_partial_charge
Eu0 Eu 0.44413 0.9212 0.35561 0.0
C1 C 0.73563 0.98634 0.37373 0.0
N2 N 0.69528 0.96958 0.38929 0.0
C3 C 0.77116 0.94494 0.40689 0.0
C4 C 0.79678 0.98495 0.37427 0.0
C5 C 0.71051 0.94599 0.40549 0.0
C6 C 0.815 0.96542 0.39129 0.0
C7 C 0.75034 1.01093 0.3398 0.0
C8 C 0.71275 0.99922 0.35681 0.0
C9 C 0.81307 1.01342 0.34044 0.0
C10 C 0.83626 1.00041 0.35766 0.0
Eu11 Eu 0.59682 0.97952 0.38685 0.0
N12 N 0.65092 0.99414 0.35665 0.0
C13 C 0.72229 1.01653 0.32253 0.0
C14 C 0.6216 0.99417 0.33966 0.0
C15 C 0.65698 1.00672 0.32241 0.0
H16 H 0.67619 0.92906 0.41748 0.0
H17 H 0.63355 1.00759 0.30899 0.0
H18 H 0.51945 0.98415 0.3127 0.0
H19 H 0.21653 0.90835 0.38548 0.0
H20 H 0.57024 0.98229 0.33944 0.0
H21 H 0.74932 1.0253 0.30914 0.0
H22 H 0.30706 0.87918 0.38309 0.0
H23 H 0.78368 0.92764 0.41991 0.0
H24 H 0.84287 1.02295 0.32755 0.0
H25 H 0.88365 1.00018 0.35783 0.0
H26 H 0.51137 1.05162 0.28636 0.0
H27 H 0.86151 0.96364 0.39229 0.0
H28 H 0.20991 0.98574 0.36196 0.0
N29 N 0.44649 0.99085 0.33008 0.0
C30 C 0.3968 1.00785 0.33067 0.0
C31 C 0.47972 1.04069 0.29888 0.0
C32 C 0.38972 1.04557 0.31569 0.0
C33 C 0.48488 1.00321 0.31395 0.0
C34 C 0.43271 0.06289 0.29988 0.0
N35 N 0.35344 0.94249 0.35904 0.0
C36 C 0.30553 0.91422 0.37298 0.0
C37 C 0.29822 1.00089 0.34633 0.0
C38 C 0.35044 0.98459 0.34574 0.0
C39 C 0.25055 0.97416 0.36103 0.0
C40 C 0.25398 0.9303 0.37432 0.0
H41 H 0.4286 0.09161 0.2881 0.0
H42 H 0.33282 0.092 0.30523 0.0
H43 H 0.25387 0.05433 0.33221 0.0
O44 O 0.34405 0.85652 0.34222 0.0
O45 O 0.43465 0.95862 0.38634 0.0
O46 O 0.54322 1.03797 0.39028 0.0
O47 O 0.42743 0.84233 0.33504 0.0
O48 O 0.40963 0.86065 0.38371 0.0
O49 O 0.50737 0.88537 0.40019 0.0
O50 O 0.67764 1.04658 0.4058 0.0
O51 O 0.56838 0.87208 0.378 0.0
O52 O 0.50813 0.86236 0.35065 0.0
O53 O 0.58191 0.97345 0.41785 0.0
O54 O 0.60804 0.07746 0.37078 0.0
O55 O 0.51608 1.0396 0.35052 0.0
C56 C 0.48089 1.01337 0.39509 0.0
C57 C 0.34886 0.82309 0.30944 0.0
C58 C 0.26954 0.78528 0.2815 0.0
C59 C 0.3259 0.81676 0.2694 0.0
C60 C 0.40229 0.85138 0.29631 0.0
C61 C 0.39088 0.84904 0.27669 0.0
C62 C 0.28169 0.78908 0.30186 0.0
C63 C 0.44099 0.85133 0.39848 0.0
C64 C 0.3657 0.82681 0.33063 0.0
C65 C 0.33878 0.06304 0.3166 0.0
C66 C 0.29361 1.04133 0.33194 0.0
C67 C 0.54342 0.84111 0.36156 0.0
C68 C 0.63585 0.07952 0.43236 0.0
C69 C 0.68086 0.19865 0.43737 0.0
C70 C 0.65523 0.18594 0.45615 0.0
C71 C 0.60997 0.0668 0.45104 0.0
C72 C 0.664 0.14444 0.42507 0.0
C73 C 0.61751 0.1199 0.46265 0.0
C74 C 0.57285 0.09094 0.35756 0.0
C75 C 0.63907 1.02709 0.42098 0.0
H76 H 0.32022 0.81474 0.25397 0.0
H77 H 0.45388 0.87479 0.30114 0.0
H78 H 0.43312 0.87144 0.26695 0.0
H79 H 0.23978 0.76588 0.31167 0.0
H80 H 0.66792 0.22638 0.4662 0.0
H81 H 0.58586 1.01642 0.45679 0.0
H82 H 0.68113 0.15398 0.41033 0.0
H83 H 0.59839 0.11022 0.47716 0.0
Eu84 Eu 0.56517 0.39731 0.52539 0.0
C85 C 0.77251 0.68542 0.51946 0.0
N86 N 0.77146 0.66091 0.53718 0.0
C87 C 0.87908 0.75522 0.5442 0.0
C88 C 0.82604 0.74761 0.51359 0.0
C89 C 0.82529 0.69284 0.54922 0.0
C90 C 0.87861 0.78357 0.52649 0.0
C91 C 0.72866 0.66382 0.48715 0.0
C92 C 0.72404 0.64431 0.50656 0.0
C93 C 0.77886 0.72781 0.4815 0.0
C94 C 0.8274 0.76983 0.49474 0.0
Eu95 Eu 0.66953 0.56696 0.54672 0.0
N96 N 0.67758 0.58214 0.51251 0.0
C97 C 0.68538 0.61706 0.47383 0.0
C98 C 0.64029 0.5349 0.49916 0.0
C99 C 0.64235 0.5517 0.47979 0.0
H100 H 0.82525 0.67149 0.56305 0.0
H101 H 0.61133 0.51394 0.46944 0.0
H102 H 0.50317 0.41581 0.48283 0.0
H103 H 0.43587 0.19175 0.57675 0.0
H104 H 0.6096 0.48391 0.50318 0.0
H105 H 0.68748 0.62981 0.45878 0.0
H106 H 0.53375 0.28311 0.56093 0.0
H107 H 0.92052 0.78159 0.55405 0.0
H108 H 0.78248 0.74397 0.46673 0.0
H109 H 0.8677 0.81778 0.49001 0.0
H110 H 0.39258 0.37432 0.46736 0.0
H111 H 0.92033 0.83178 0.52256 0.0
H112 H 0.32135 0.16263 0.56632 0.0
N113 N 0.4625 0.36743 0.50948 0.0
C114 C 0.40632 0.32262 0.51908 0.0
C115 C 0.39573 0.36066 0.48203 0.0
C116 C 0.34208 0.29879 0.51076 0.0
C117 C 0.45819 0.38362 0.4908 0.0
C118 C 0.33745 0.31964 0.49222 0.0
N119 N 0.47585 0.30924 0.54233 0.0
C120 C 0.48433 0.27258 0.55652 0.0
C121 C 0.35565 0.23995 0.54455 0.0
C122 C 0.41311 0.29303 0.53595 0.0
C123 C 0.36424 0.20399 0.55952 0.0
C124 C 0.42881 0.22009 0.56542 0.0
H125 H 0.28937 0.30104 0.48516 0.0
H126 H 0.23521 0.23278 0.51433 0.0
H127 H 0.24706 0.18171 0.54392 0.0
O128 O 0.55193 0.29746 0.51944 0.0
O129 O 0.52114 0.4078 0.5552 0.0
O130 O 0.56486 0.5214 0.55778 0.0
O131 O 0.57043 0.36312 0.49568 0.0
O132 O 0.62678 0.38622 0.54954 0.0
O133 O 0.6616 0.48276 0.5671 0.0
O134 O 0.69416 0.66569 0.55715 0.0
O135 O 0.7477 0.53543 0.53969 0.0
O136 O 0.68646 0.45186 0.51787 0.0
O137 O 0.70049 0.59532 0.57652 0.0
O138 O 0.57542 0.57156 0.53421 0.0
O139 O 0.51604 0.46944 0.51887 0.0
C140 C 0.52226 0.46098 0.56345 0.0
C141 C 0.50107 0.24253 0.48975 0.0
C142 C 0.46049 0.15653 0.4635 0.0
C143 C 0.39668 0.12652 0.47211 0.0
C144 C 0.43728 0.20612 0.49807 0.0
C145 C 0.38559 0.15055 0.48918 0.0
C146 C 0.51291 0.21657 0.47226 0.0
C147 C 0.64874 0.41976 0.5657 0.0
C148 C 0.55475 0.30223 0.5008 0.0
C149 C 0.28483 0.25067 0.52039 0.0
C150 C 0.2916 0.2214 0.53724 0.0
C151 C 0.74679 0.49619 0.5258 0.0
C152 C 0.65933 0.66398 0.58909 0.0
C153 C 0.58643 0.71105 0.5964 0.0
C154 C 0.58714 0.69501 0.61587 0.0
C155 C 0.65922 0.64774 0.6085 0.0
C156 C 0.62077 0.69303 0.58316 0.0
C157 C 0.6223 0.6623 0.62176 0.0
C158 C 0.5225 0.5296 0.52359 0.0
C159 C 0.69969 0.65155 0.57494 0.0
H160 H 0.35467 0.08301 0.46576 0.0
H161 H 0.42726 0.21895 0.51193 0.0
H162 H 0.33661 0.12479 0.49588 0.0
H163 H 0.56259 0.24133 0.46602 0.0
H164 H 0.56323 0.7101 0.62667 0.0
H165 H 0.68796 0.62437 0.61341 0.0
H166 H 0.61839 0.70309 0.56808 0.0
H167 H 0.62285 0.65033 0.63676 0.0
Eu168 Eu 0.20449 0.54238 0.68977 0.0
C169 C 0.13024 0.75931 0.69454 0.0
N170 N 0.14119 0.74341 0.71242 0.0
C171 C 0.15391 0.8473 0.72445 0.0
C172 C 0.12885 0.8194 0.691 0.0
C173 C 0.15576 0.7877 0.72717 0.0
C174 C 0.13908 0.86261 0.70635 0.0
C175 C 0.11989 0.73576 0.66053 0.0
C176 C 0.1255 0.71787 0.67958 0.0
C177 C 0.11533 0.79384 0.65699 0.0
C178 C 0.11971 0.83557 0.67222 0.0
Eu179 Eu 0.13692 0.63844 0.71653 0.0
N180 N 0.13181 0.66301 0.68347 0.0
C181 C 0.12196 0.69636 0.64554 0.0
C182 C 0.1378 0.62719 0.66881 0.0
C183 C 0.13224 0.64251 0.6497 0.0
H184 H 0.1688 0.77748 0.74117 0.0
H185 H 0.13695 0.61344 0.63819 0.0
H186 H 0.10199 0.50033 0.65013 0.0
H187 H 0.29026 0.39088 0.72936 0.0
H188 H 0.14881 0.5881 0.67181 0.0
H189 H 0.1183 0.7086 0.63073 0.0
H190 H 0.28992 0.49431 0.72042 0.0
H191 H 0.16422 0.88151 0.73629 0.0
H192 H 0.1105 0.80798 0.64248 0.0
H193 H 0.11815 0.88128 0.66925 0.0
H194 H 1.03414 0.40035 0.63049 0.0
H195 H 0.13746 0.9087 0.70429 0.0
H196 H 0.21589 0.28517 0.7126 0.0
N197 N 0.13169 0.44963 0.67026 0.0
C198 C 0.13159 0.3914 0.67464 0.0
C199 C 1.06082 0.397 0.64292 0.0
C200 C 0.09321 0.33298 0.66361 0.0
C201 C 0.09944 0.45362 0.65409 0.0
C202 C 1.05716 0.3363 0.64779 0.0
N203 N 0.21346 0.44789 0.69919 0.0
C204 C 0.25628 0.44873 0.71309 0.0
C205 C 0.17226 0.33003 0.69412 0.0
C206 C 0.17207 0.3902 0.68963 0.0
C207 C 0.21462 0.33042 0.70873 0.0
C208 C 0.2569 0.39003 0.71818 0.0
H209 H 1.02713 0.29246 0.63907 0.0
H210 H 1.06243 0.22778 0.66031 0.0
H211 H 0.13086 0.22502 0.68709 0.0
O212 O 0.27915 0.52013 0.67596 0.0
O213 O 0.16527 0.49718 0.72026 0.0
O214 O 0.0863 0.53004 0.72473 0.0
O215 O 0.24896 0.58503 0.66178 0.0
O216 O 0.27607 0.58971 0.71538 0.0
O217 O 0.22373 0.63565 0.73342 0.0
O218 O 1.05548 0.64301 0.73189 0.0
O219 O 0.24284 0.72104 0.70838 0.0
O220 O 0.27108 0.6645 0.68611 0.0
O221 O 0.14627 0.66213 0.74688 0.0
O222 O 1.03991 0.55237 0.70123 0.0
O223 O 0.08244 0.48907 0.68763 0.0
C224 C 0.11172 0.49196 0.72932 0.0
C225 C 0.28159 0.52106 0.64101 0.0
C226 C 0.32788 0.47559 0.61633 0.0
C227 C 0.2721 0.46102 0.60473 0.0
C228 C 0.23061 0.51065 0.62786 0.0
C229 C 0.22467 0.47912 0.61034 0.0
C230 C 0.33227 0.50538 0.63477 0.0
C231 C 0.27128 0.61851 0.73133 0.0
C232 C 0.28337 0.55306 0.66023 0.0
C233 C 0.09247 0.27312 0.66846 0.0
C234 C 0.13145 0.27155 0.68372 0.0
C235 C 0.28355 0.72295 0.69463 0.0
C236 C 1.04436 0.59409 0.76284 0.0
C237 C 0.93671 0.5153 0.77674 0.0
C238 C 0.96908 0.498 0.79088 0.0
C239 C 1.07631 0.57457 0.77676 0.0
C240 C 0.97431 0.56285 0.76274 0.0
C241 C 1.03885 0.52677 0.79063 0.0
C242 C 1.02892 0.49718 0.69162 0.0
C243 C 0.08353 0.64662 0.74854 0.0
H244 H 0.26729 0.43911 0.59065 0.0
H245 H 0.19561 0.52836 0.63082 0.0
H246 H 0.18396 0.47059 0.60072 0.0
H247 H 0.3751 0.51742 0.64391 0.0
H248 H 0.94077 0.46448 0.80242 0.0
H249 H 0.13015 0.59661 0.77712 0.0
H250 H 0.94883 0.57823 0.75241 0.0
H251 H 1.06412 0.51333 0.80149 0.0
Eu252 Eu 0.7273 0.19225 0.85887 0.0
C253 C 0.43692 0.11792 0.8593 0.0
N254 N 0.4618 0.1315 0.87737 0.0
C255 C 0.36879 0.14569 0.88739 0.0
C256 C 0.37523 0.11509 0.8547 0.0
C257 C 0.43018 0.14824 0.89119 0.0
C258 C 0.34049 0.12779 0.86914 0.0
C259 C 0.45466 0.10515 0.82574 0.0
C260 C 0.47632 0.11331 0.84506 0.0
C261 C 0.39125 0.09754 0.82127 0.0
C262 C 0.35166 0.10272 0.83573 0.0
Eu263 Eu 0.56215 0.12741 0.88359 0.0
N264 N 0.53853 0.12373 0.84983 0.0
C265 C 0.49874 0.10855 0.81137 0.0
C266 C 0.58332 0.13348 0.83557 0.0
C267 C 0.56398 0.1244 0.8163 0.0
H268 H 0.45194 0.16366 0.90527 0.0
H269 H 0.59997 0.13111 0.80524 0.0
H270 H 0.71071 0.11571 0.81606 0.0
H271 H 0.93015 0.25385 0.91114 0.0
H272 H 0.63484 0.15067 0.83874 0.0
H273 H 0.48413 0.10268 0.7964 0.0
H274 H 0.84788 0.27304 0.89328 0.0
H275 H 0.34356 0.15794 0.89851 0.0
H276 H 0.37367 0.09056 0.80657 0.0
H277 H 0.30408 0.09961 0.83199 0.0
H278 H 0.75115 1.045 0.80066 0.0
H279 H 0.29317 0.12638 0.86617 0.0
H280 H 0.94719 0.1584 0.90269 0.0
N281 N 0.75384 0.11644 0.84326 0.0
C282 C 0.79538 0.10031 0.85328 0.0
C283 C 0.76232 0.05872 0.8156 0.0
C284 C 0.81667 0.05724 0.84521 0.0
C285 C 0.7402 0.09931 0.82431 0.0
C286 C 0.79845 1.03556 0.82629 0.0
N287 N 0.81476 0.18632 0.87573 0.0
C288 C 0.85409 0.23069 0.8896 0.0
C289 C 0.87416 0.12423 0.87963 0.0
C290 C 0.82586 0.13549 0.8701 0.0
C291 C 0.90994 0.16574 0.89501 0.0
C292 C 0.90081 0.21997 0.89976 0.0
H293 H 0.81578 1.00462 0.81936 0.0
H294 H 0.87669 1.00869 0.84957 0.0
H295 H 0.92507 0.06535 0.88004 0.0
O296 O 0.82822 0.27373 0.85198 0.0
O297 O 0.72262 0.14804 0.8896 0.0
O298 O 0.61295 0.06825 0.89196 0.0
O299 O 0.75768 0.23166 0.82907 0.0
O300 O 0.74216 0.26781 0.88238 0.0
O301 O 0.65034 0.2081 0.90178 0.0
O302 O 0.47542 1.04954 0.89903 0.0
O303 O 0.58763 0.23422 0.8752 0.0
O304 O 0.67157 0.25987 0.85292 0.0
O305 O 0.54495 0.14149 0.91339 0.0
O306 O 0.5545 1.02991 0.8696 0.0
O307 O 0.65355 0.07198 0.85241 0.0
C308 C 0.67496 0.09225 0.89739 0.0
C309 C 0.87653 0.27454 0.82138 0.0
C310 C 0.96251 0.3192 0.79518 0.0
C311 C 0.98621 0.27643 0.80174 0.0
C312 C 0.90735 0.23815 0.82794 0.0
C313 C 0.95953 0.2372 0.81798 0.0
C314 C 0.90494 0.31594 0.8047 0.0
C315 C 0.71155 0.25924 0.89899 0.0
C316 C 0.82031 0.27309 0.83347 0.0
C317 C 0.86073 1.04238 0.85547 0.0
C318 C 0.8887 0.07512 0.87277 0.0
C319 C 0.62584 0.27381 0.86134 0.0
C320 C 0.50837 1.04219 0.93112 0.0
C321 C 0.48001 0.93628 0.94656 0.0
C322 C 0.52609 0.97025 0.96125 0.0
C323 C 0.5548 0.0759 0.94596 0.0
C324 C 0.47196 0.97221 0.93145 0.0
C325 C 0.56377 1.03998 0.96083 0.0
C326 C 0.59425 1.01889 0.85776 0.0
C327 C 0.49755 0.07979 0.9155 0.0
H328 H 1.027 0.27421 0.79447 0.0
H329 H 0.89256 0.21145 0.84121 0.0
H330 H 0.98074 0.20696 0.82322 0.0
H331 H 0.88399 0.34653 0.79963 0.0
H332 H 0.53087 0.94311 0.97334 0.0
H333 H 0.58381 0.12999 0.94622 0.0
H334 H 0.43423 0.94555 0.92054 0.0
H335 H 0.59899 0.06639 0.97227 0.0
Eu336 Eu 0.58495 0.70147 0.02485 0.0
C337 C 0.36805 0.40284 0.03414 0.0
N338 N 0.38199 0.43806 0.05066 0.0
C339 C 0.27842 0.35352 0.06426 0.0
C340 C 0.3096 0.33997 0.03221 0.0
C341 C 0.33689 0.41569 0.06541 0.0
C342 C 0.2653 0.31485 0.04771 0.0
C343 C 0.39201 0.40152 1.00048 0.0
C344 C 0.40857 0.43324 1.01857 0.0
C345 C 0.33687 0.33674 0.99875 0.0
C346 C 0.29557 0.30601 1.01461 0.0
Eu347 Eu 0.48616 0.53883 0.05268 0.0
N348 N 0.45939 0.49699 0.02067 0.0
C349 C 0.42873 0.43744 0.98449 0.0
C350 C 0.49107 0.53374 1.00487 0.0
C351 C 0.47743 0.50439 0.98664 0.0
H352 H 0.34598 0.44548 0.07819 0.0
H353 H 0.50356 0.53345 0.97416 0.0
H354 H 0.58408 0.64378 0.98011 0.0
H355 H 0.79329 0.90279 0.06458 0.0
H356 H 0.52578 0.58595 1.00632 0.0
H357 H 0.41751 0.41513 0.97033 0.0
H358 H 0.67466 0.82178 0.05785 0.0
H359 H 0.24338 0.33562 0.0761 0.0
H360 H 0.32385 0.31139 0.98501 0.0
H361 H 0.25132 0.2574 1.01289 0.0
H362 H 0.66581 0.65771 0.95498 0.0
H363 H 0.2197 0.26697 0.04678 0.0
H364 H 0.88195 0.91276 0.04239 0.0
N365 N 0.65845 0.70456 1.00045 0.0
C366 C 0.72471 0.74941 1.00343 0.0
C367 C 0.68308 0.6829 0.96863 0.0
C368 C 0.77283 0.76065 0.98913 0.0
C369 C 0.63696 0.67386 0.98303 0.0
C370 C 0.75136 0.72596 0.97175 0.0
N371 N 0.69659 0.7808 0.03319 0.0
C372 C 0.7133 0.82371 0.04848 0.0
C373 C 0.8124 0.83513 0.02329 0.0
C374 C 0.74429 0.7869 0.02039 0.0
C375 C 0.83016 0.87547 0.03969 0.0
C376 C 0.78031 0.87014 0.05224 0.0
H377 H 0.78691 0.73346 0.96045 0.0
H378 H 0.87761 0.81785 0.98126 0.0
H379 H 0.91247 0.88183 1.01125 0.0
O380 O 0.60234 0.80437 0.02252 0.0
O381 O 0.62704 0.69766 0.05538 0.0
O382 O 0.59528 0.58743 0.05933 0.0
O383 O 0.57401 0.74488 0.99718 0.0
O384 O 0.54512 0.72778 0.05167 0.0
O385 O 0.48845 0.62908 0.06882 0.0
O386 O 0.48073 0.45655 0.07017 0.0
O387 O 0.40683 0.56679 0.04266 0.0
O388 O 0.46386 0.64253 1.01837 0.0
O389 O 0.46573 0.53406 0.08318 0.0
O390 O 0.57693 0.53206 0.03782 0.0
O391 O 0.63301 0.62861 1.01954 0.0
C392 C 0.63421 0.64957 0.06383 0.0
C393 C 0.6493 0.86561 0.99323 0.0
C394 C 0.69058 0.95128 0.96692 0.0
C395 C 0.75282 0.98423 0.97638 0.0
C396 C 0.7119 0.90403 1.00222 0.0
C397 C 0.7631 0.96107 0.99376 0.0
C398 C 0.63862 0.89021 0.97527 0.0
C399 C 0.5115 0.69453 0.06701 0.0
C400 C 0.59553 0.80499 1.00398 0.0
C401 C 0.84043 0.80787 0.99223 0.0
C402 C 0.86024 0.84448 1.0093 0.0
C403 C 0.40544 0.60141 0.02764 0.0
C404 C 0.53094 0.49872 0.10081 0.0
C405 C 0.6085 0.46867 0.11612 0.0
C406 C 0.62728 0.5208 0.12932 0.0
C407 C 0.55097 0.55173 0.11402 0.0
C408 C 0.56091 0.45816 0.10185 0.0
C409 C 0.59911 0.5628 0.12807 0.0
C410 C 0.62726 0.57004 0.02568 0.0
C411 C 0.47877 0.48542 0.08615 0.0
H412 H 0.79402 1.02933 0.97043 0.0
H413 H 0.72153 0.89152 1.01627 0.0
H414 H 0.81095 0.98863 1.00103 0.0
H415 H 0.59009 0.86376 0.96829 0.0
H416 H 0.6619 0.52761 0.14085 0.0
H417 H 0.5291 0.58428 0.11368 0.0
H418 H 0.54488 0.41604 0.09214 0.0
H419 H 0.61351 0.60317 0.13827 0.0
Eu420 Eu 0.9472 0.56967 0.19196 0.0
C421 C 1.003 0.34637 0.18814 0.0
N422 N 0.98857 0.35562 0.2063 0.0
C423 C 0.96124 0.24322 0.2144 0.0
C424 C 0.99913 0.28541 0.18248 0.0
C425 C 0.96527 0.30428 0.21924 0.0
C426 C 0.97964 0.23421 0.19604 0.0
C427 C 1.02437 0.38517 0.15537 0.0
C428 C 1.01592 0.39587 0.1749 0.0
C429 C 1.02507 0.32653 0.14982 0.0
C430 C 1.01247 0.27665 0.16338 0.0
Eu431 Eu 1.01083 0.46454 0.21498 0.0
N432 N 1.01265 0.45089 0.18075 0.0
C433 C 1.02779 0.4317 0.14184 0.0
C434 C 1.00832 0.49168 0.16722 0.0
C435 C 1.0176 0.4841 0.14775 0.0
H436 H 0.95076 0.31067 0.23347 0.0
H437 H 1.015 0.51759 0.13724 0.0
H438 H 1.0262 0.6246 0.14875 0.0
H439 H 0.89273 0.71736 0.24377 0.0
H440 H 0.99384 0.52763 0.17105 0.0
H441 H 1.03387 0.42523 0.12672 0.0
H442 H 0.86933 0.61459 0.22621 0.0
H443 H 0.94429 0.20343 0.22489 0.0
H444 H 1.03238 0.31801 0.13495 0.0
H445 H 1.01054 0.2305 0.15881 0.0
H446 H 0.10537 0.73256 0.1338 0.0
H447 H 0.97697 0.1871 0.1923 0.0
H448 H 0.98893 0.8258 0.23452 0.0
N449 N 1.02396 0.66831 0.17551 0.0
C450 C 1.04119 0.72623 0.18525 0.0
C451 C 0.08841 0.73129 0.14835 0.0
C452 C 0.08748 0.78868 0.17733 0.0
C453 C 1.04342 0.67032 0.15682 0.0
C454 C 0.1122 0.7904 0.15887 0.0
N455 N 0.95451 0.66413 0.20795 0.0
C456 C 0.91196 0.6616 0.22214 0.0
C457 C 1.01977 0.78391 0.21137 0.0
C458 C 1.00609 0.72397 0.20196 0.0
C459 C 0.97964 0.78084 0.2269 0.0
C460 C 0.92488 0.71967 0.23208 0.0
H461 H 0.14697 0.83742 0.15221 0.0
H462 H 0.14017 0.89591 0.18176 0.0
H463 H 0.08255 0.89174 0.21168 0.0
O464 O 0.86501 0.59057 0.18538 0.0
O465 O 0.99938 0.61346 0.22162 0.0
O466 O 1.06741 0.56708 0.22748 0.0
O467 O 0.90705 0.56168 0.16231 0.0
O468 O 0.8757 0.51449 0.21662 0.0
O469 O 0.93513 0.47621 0.23477 0.0
O470 O 0.08471 0.43656 0.22477 0.0
O471 O 0.89911 0.39379 0.21017 0.0
O472 O 0.88049 0.44788 0.18528 0.0
O473 O 1.00911 0.43141 0.2444 0.0
O474 O 0.1098 0.55736 0.20289 0.0
O475 O 1.06809 0.6181 0.18715 0.0
C476 C 1.04913 0.61171 0.23112 0.0
C477 C 0.86209 0.63619 0.15459 0.0
C478 C 0.81429 0.67566 0.12852 0.0
C479 C 0.86021 0.74176 0.13383 0.0
C480 C 0.90181 0.70329 0.16 0.0
C481 C 0.90256 0.75523 0.14949 0.0
C482 C 0.81722 0.62227 0.13863 0.0
C483 C 0.88543 0.49025 0.23272 0.0
C484 C 0.86491 0.58276 0.16686 0.0
C485 C 0.10406 0.84773 0.18744 0.0
C486 C 1.07082 0.84534 0.20448 0.0
C487 C 0.86171 0.39033 0.19538 0.0
C488 C 0.11461 0.46201 0.25744 0.0
C489 C 0.22859 0.54377 0.26651 0.0
C490 C 0.21537 0.51762 0.28529 0.0
C491 C 0.1022 0.43627 0.27612 0.0
C492 C 0.1763 0.51801 0.25302 0.0
C493 C 0.15211 0.46501 0.2901 0.0
C494 C 0.12124 0.61136 0.19255 0.0
C495 C 1.06404 0.42818 0.2425 0.0
H496 H 0.86276 0.78384 0.12601 0.0
H497 H 0.93154 0.71617 0.17274 0.0
H498 H 0.9354 0.80657 0.1538 0.0
H499 H 0.78381 0.57083 0.13454 0.0
H500 H 0.25478 0.53443 0.29597 0.0
H501 H 1.05432 0.39349 0.27981 0.0
H502 H 0.18542 0.53816 0.2386 0.0
H503 H 0.14272 0.44456 0.30447 0.0
Eu504 Eu 0.21377 0.69791 0.50718 0.0
C505 C 0.15814 0.41532 0.50338 0.0
N506 N 0.16967 0.44327 0.48571 0.0
C507 C 0.19318 0.35871 0.47365 0.0
C508 C 0.16189 0.35641 0.50679 0.0
C509 C 0.18966 0.41749 0.47106 0.0
C510 C 0.1777 0.32717 0.4915 0.0
C511 C 0.14093 0.42366 0.53724 0.0
C512 C 0.14724 0.4483 0.51833 0.0
C513 C 0.14144 0.3634 0.5406 0.0
C514 C 0.15176 0.32972 0.52537 0.0
Eu515 Eu 0.15073 0.53525 0.48131 0.0
N516 N 0.14859 0.50729 0.51461 0.0
C517 C 0.13732 0.46177 0.55234 0.0
C518 C 0.15057 0.5467 0.52954 0.0
C519 C 0.14379 0.52433 0.5485 0.0
H520 H 0.20224 0.44162 0.45722 0.0
H521 H 0.14493 0.55593 0.56018 0.0
H522 H 0.13269 0.65192 0.55043 0.0
H523 H 0.25578 0.91095 0.46191 0.0
H524 H 0.16068 0.59672 0.52705 0.0
H525 H 0.13274 0.4448 0.56705 0.0
H526 H 0.27986 0.82382 0.47432 0.0
H527 H 0.20766 0.3377 0.46188 0.0
H528 H 0.13606 0.34357 0.555 0.0
H529 H 0.154 0.28429 0.52823 0.0
H530 H 1.05223 0.67277 0.56866 0.0
H531 H 0.1797 0.28126 0.49346 0.0
H532 H 0.16299 0.92361 0.47571 0.0
N533 N 0.13629 0.71196 0.5266 0.0
C534 C 0.11913 0.75743 0.51964 0.0
C535 C 1.07015 0.6963 0.55484 0.0
C536 C 1.07418 0.77156 0.5299 0.0
C537 C 0.11556 0.68446 0.54447 0.0
C538 C 1.04857 0.73918 0.5474 0.0
N539 N 0.19908 0.78536 0.49433 0.0
C540 C 0.2389 0.82868 0.48037 0.0
C541 C 0.13551 0.84371 0.49638 0.0
C542 C 0.1498 0.79351 0.5029 0.0
C543 C 0.17267 0.88466 0.48107 0.0
C544 C 0.22538 0.87798 0.4733 0.0
H545 H 1.01384 0.74869 0.55561 0.0
H546 H 1.02391 0.83081 0.53059 0.0
H547 H 1.07617 0.89278 0.50115 0.0
O548 O 0.30004 0.79717 0.51285 0.0
O549 O 0.16422 0.69677 0.47757 0.0
O550 O 0.09146 0.58544 0.47272 0.0
O551 O 0.25359 0.73275 0.53674 0.0
O552 O 0.28537 0.71795 0.48182 0.0
O553 O 0.22612 0.62489 0.46267 0.0
O554 O 1.07142 0.44379 0.46806 0.0
O555 O 0.26191 0.57127 0.48749 0.0
O556 O 0.27567 0.63696 0.51378 0.0
O557 O 0.15439 0.51527 0.45099 0.0
O558 O 1.05401 0.52203 0.49735 0.0
O559 O 0.09263 0.62673 0.51072 0.0
C560 C 0.11046 0.64799 0.4691 0.0
C561 C 0.30338 0.85359 0.5423 0.0
C562 C 0.34634 0.93986 0.56844 0.0
C563 C 0.31348 0.97073 0.55938 0.0
C564 C 0.27688 0.89089 0.53351 0.0
C565 C 0.27992 0.94694 0.54212 0.0
C566 C 0.33953 0.87929 0.56001 0.0
C567 C 0.27536 0.68727 0.46512 0.0
C568 C 0.2981 0.79322 0.53151 0.0
C569 C 1.05791 0.81924 0.52281 0.0
C570 C 0.08789 0.85469 0.50604 0.0
C571 C 0.29599 0.60009 0.50323 0.0
C572 C 1.04642 0.47319 0.43762 0.0
C573 C 0.93206 0.43774 0.42729 0.0
C574 C 0.95516 0.49176 0.41457 0.0
C575 C 1.06933 0.52662 0.42448 0.0
C576 C 0.97755 0.42922 0.43892 0.0
C577 C 1.02393 0.53634 0.41324 0.0
C578 C 1.0412 0.56484 0.50706 0.0
C579 C 0.09325 0.46555 0.45079 0.0
H580 H 0.31507 1.01504 0.56545 0.0
H581 H 0.25558 0.8786 0.51946 0.0
H582 H 0.25756 0.97344 0.53503 0.0
H583 H 0.3641 0.8542 0.56667 0.0
H584 H 0.9205 0.49784 0.40524 0.0
H585 H 0.12221 0.56093 0.42291 0.0
H586 H 0.95909 0.38692 0.44867 0.0
H587 H 1.04222 0.57787 0.40329 0.0
Eu588 Eu 0.5557 0.18841 0.67402 0.0
C589 C 0.76367 0.0984 0.67478 0.0
N590 N 0.75574 0.11553 0.65676 0.0
C591 C 0.85937 0.12085 0.64723 0.0
C592 C 0.81872 0.08904 0.67956 0.0
C593 C 0.80421 0.12986 0.64324 0.0
C594 C 0.86593 0.09892 0.66537 0.0
C595 C 0.73176 0.08682 0.70818 0.0
C596 C 0.72082 0.09748 0.68885 0.0
C597 C 0.7835 0.07275 0.71284 0.0
C598 C 0.827 0.07391 0.69854 0.0
Eu599 Eu 0.65618 0.12054 0.65021 0.0
N600 N 0.67287 0.1137 0.6839 0.0
C601 C 0.6927 0.09407 0.72238 0.0
C602 C 0.63856 0.12575 0.69793 0.0
C603 C 0.64695 0.11512 0.71725 0.0
H604 H 0.80048 0.14795 0.62925 0.0
H605 H 0.61881 0.12413 0.72821 0.0
H606 H 0.51137 0.11649 0.71815 0.0
H607 H 0.39675 0.23294 0.62344 0.0
H608 H 0.60559 0.14489 0.69443 0.0
H609 H 0.6997 0.08662 0.73738 0.0
H610 H 0.50333 0.25722 0.63898 0.0
H611 H 0.89699 0.13125 0.63636 0.0
H612 H 0.79206 0.06372 0.72757 0.0
H613 H 0.86852 0.06587 0.70245 0.0
H614 H 0.40715 1.04619 0.73619 0.0
H615 H 0.90913 0.09273 0.66851 0.0
H616 H 0.28945 0.14129 0.6356 0.0
N617 N 0.46039 0.11542 0.69241 0.0
C618 C 0.40004 0.09818 0.68398 0.0
C619 C 0.40449 0.05981 0.72148 0.0
C620 C 0.33937 0.05706 0.69375 0.0
C621 C 0.46337 0.09954 0.71123 0.0
C622 C 0.34225 1.03742 0.7126 0.0
N623 N 0.45732 0.1768 0.65898 0.0
C624 C 0.45688 0.2166 0.64433 0.0
C625 C 0.33642 0.11427 0.65838 0.0
C626 C 0.39862 0.12804 0.66654 0.0
C627 C 0.33621 0.15079 0.64229 0.0
C628 C 0.39661 0.20292 0.63545 0.0
H629 H 0.29671 1.00646 0.72059 0.0
H630 H 0.23089 1.00768 0.69209 0.0
H631 H 0.22818 0.05619 0.661 0.0
O632 O 0.53643 0.27178 0.67943 0.0
O633 O 0.51801 0.14444 0.64328 0.0
O634 O 0.54823 0.0636 0.64139 0.0
O635 O 0.56751 0.23361 0.70307 0.0
O636 O 0.60976 0.2602 0.64944 0.0
O637 O 0.65489 0.20596 0.63212 0.0
O638 O 0.66372 1.04172 0.63447 0.0
O639 O 0.73776 0.2253 0.65955 0.0
O640 O 0.67742 0.25482 0.68023 0.0
O641 O 0.68766 0.13519 0.62041 0.0
O642 O 0.56585 1.02442 0.66424 0.0
O643 O 0.50685 0.06796 0.68 0.0
C644 C 0.51042 0.08808 0.63577 0.0
C645 C 0.49272 0.27897 0.70998 0.0
C646 C 0.4553 0.32607 0.73656 0.0
C647 C 0.38889 0.28654 0.73005 0.0
C648 C 0.42584 0.24504 0.70362 0.0
C649 C 0.37461 0.24726 0.71374 0.0
C650 C 0.50763 0.32085 0.72657 0.0
C651 C 0.63929 0.25459 0.63388 0.0
C652 C 0.54558 0.27451 0.69792 0.0
C653 C 0.27777 1.03999 0.68492 0.0
C654 C 0.27628 0.06785 0.6672 0.0
C655 C 0.73738 0.26672 0.67269 0.0
C656 C 0.62241 1.03646 0.60273 0.0
C657 C 0.54683 0.9315 0.58691 0.0
C658 C 0.53198 0.96608 0.57288 0.0
C659 C 0.60673 0.07086 0.58864 0.0
C660 C 0.59084 0.96665 0.60195 0.0
C661 C 0.56138 1.03568 0.57391 0.0
C662 C 0.51343 1.01416 0.67521 0.0
C663 C 0.67173 0.07271 0.61811 0.0
H664 H 0.34727 0.28666 0.73747 0.0
H665 H 0.41275 0.21809 0.69039 0.0
H666 H 0.32336 0.2193 0.70861 0.0
H667 H 0.55934 0.35066 0.73115 0.0
H668 H 0.50022 0.93967 0.56078 0.0
H669 H 0.62991 0.12486 0.58881 0.0
H670 H 0.60422 0.93962 0.61229 0.0
H671 H 0.55044 0.06263 0.56299 0.0
Eu672 Eu 0.42836 0.54703 0.84124 0.0
C673 C 0.71738 0.77135 0.83419 0.0
N674 N 0.68392 0.75416 0.81731 0.0
C675 C 0.7649 0.85886 0.80356 0.0
C676 C 0.77777 0.83229 0.83628 0.0
C677 C 0.7048 0.79816 0.80231 0.0
C678 C 0.80252 0.87514 0.82047 0.0
C679 C 0.71827 0.74903 0.868 0.0
C680 C 0.68836 0.72997 0.84969 0.0
C681 C 0.78028 0.80783 0.87005 0.0
C682 C 0.81022 0.84925 0.85417 0.0
Eu683 Eu 0.59099 0.64496 0.81469 0.0
N684 N 0.62791 0.67419 0.84715 0.0
C685 C 0.68363 0.70995 0.8838 0.0
C686 C 0.59196 0.63943 0.86273 0.0
C687 C 0.61947 0.65573 0.8812 0.0
H688 H 0.67599 0.78552 0.78917 0.0
H689 H 0.59096 0.62723 0.89348 0.0
H690 H 0.48041 0.5444 0.88671 0.0
H691 H 0.23016 0.34059 0.80007 0.0
H692 H 0.54132 0.60078 0.86097 0.0
H693 H 0.70459 0.72293 0.89812 0.0
H694 H 0.3082 0.45889 0.80797 0.0
H695 H 0.78233 0.89278 0.79146 0.0
H696 H 0.80443 0.82273 0.88395 0.0
H697 H 0.85725 0.89524 0.85602 0.0
H698 H 0.46752 0.46094 0.9111 0.0
H699 H 0.84947 0.92173 0.82138 0.0
H700 H 0.2239 0.25062 0.82102 0.0
N701 N 0.42321 0.4719 0.86553 0.0
C702 C 0.3803 0.40575 0.86191 0.0
C703 C 0.44362 0.44475 0.89724 0.0
C704 C 0.37021 0.35643 0.87569 0.0
C705 C 0.45199 0.49195 0.88325 0.0
C706 C 0.40329 0.3767 0.89336 0.0
N707 N 0.34971 0.43581 0.83232 0.0
C708 C 0.30694 0.41979 0.81698 0.0
C709 C 0.29915 0.31911 0.84089 0.0
C710 C 0.34474 0.38727 0.84462 0.0
C711 C 0.25928 0.30236 0.82435 0.0
C712 C 0.2625 0.35297 0.81251 0.0
H713 H 0.3968 0.34027 0.90427 0.0
H714 H 0.31958 0.25021 0.88189 0.0
H715 H 0.2578 0.21749 0.85143 0.0
O716 O 0.3244 0.52778 0.84338 0.0
O717 O 0.4337 0.50606 0.8108 0.0
O718 O 0.5442 0.53665 0.80786 0.0
O719 O 0.38532 0.56028 0.86854 0.0
O720 O 0.4039 0.58989 0.81442 0.0
O721 O 0.50241 0.63988 0.79682 0.0
O722 O 0.68342 0.66466 0.80014 0.0
O723 O 0.55224 0.7181 0.82152 0.0
O724 O 0.48936 0.66774 0.84824 0.0
O725 O 0.59869 0.65516 0.7836 0.0
O726 O 0.60016 0.55642 0.83027 0.0
O727 O 0.50007 0.49726 0.84677 0.0
C728 C 0.48219 0.49801 0.80299 0.0
C729 C 0.26561 0.48337 0.8731 0.0
C730 C 0.18201 0.44292 0.89995 0.0
C731 C 0.15448 0.37814 0.89213 0.0
C732 C 0.23095 0.41847 0.86541 0.0
C733 C 0.17792 0.36648 0.87502 0.0
C734 C 0.23968 0.49586 0.89047 0.0
C735 C 0.43744 0.61996 0.79867 0.0
C736 C 0.32452 0.53681 0.86183 0.0
C737 C 0.32719 0.28861 0.87155 0.0
C738 C 0.29212 0.26998 0.85417 0.0
C739 C 0.52461 0.72391 0.83748 0.0
C740 C 0.65911 0.60669 0.77045 0.0
C741 C 0.69885 0.52693 0.76518 0.0
C742 C 0.68357 0.52528 0.74553 0.0
C743 C 0.64384 0.60458 0.7509 0.0
C744 C 0.67996 0.56282 0.77766 0.0
C745 C 0.65395 0.56215 0.73861 0.0
C746 C 0.56033 0.50439 0.84166 0.0
C747 C 0.65623 0.65645 0.78314 0.0
H748 H 0.11328 0.33568 0.8991 0.0
H749 H 0.24345 0.40736 0.85159 0.0
H750 H 0.1538 0.31663 0.86892 0.0
H751 H 0.26265 0.54634 0.89607 0.0
H752 H 0.69836 0.49966 0.73524 0.0
H753 H 0.62554 0.63664 0.7451 0.0
H754 H 0.68803 0.5617 0.79293 0.0
H755 H 0.64304 0.56128 0.72347 0.0
Eu756 Eu 0.93709 0.40193 1.00717 0.0
C757 C 0.99211 0.68251 1.00925 0.0
N758 N 0.98125 0.65873 0.99109 0.0
C759 C 0.95911 0.74616 0.98095 0.0
C760 C 0.98848 0.74058 1.01394 0.0
C761 C 0.96204 0.68775 0.97712 0.0
C762 C 0.97371 0.77346 0.99937 0.0
C763 C 1.00814 0.66633 0.04272 0.0
C764 C 1.00251 0.64613 0.02336 0.0
C765 C 1.00766 0.7258 0.04739 0.0
C766 C 0.99803 0.76299 0.033 0.0
Eu767 Eu 1.00083 0.56866 0.98455 0.0
N768 N 1.00141 0.58819 1.01835 0.0
C769 C 1.01112 0.62473 0.05691 0.0
C770 C 0.99878 0.54531 0.03234 0.0
C771 C 1.0048 0.56318 0.05171 0.0
H772 H 0.95058 0.66674 0.96285 0.0
H773 H 1.00324 0.5289 0.06265 0.0
H774 H 1.01721 0.43493 0.05054 0.0
H775 H 0.89073 0.19939 0.95692 0.0
H776 H 0.98889 0.49607 0.02878 0.0
H777 H 1.01508 0.63819 0.07193 0.0
H778 H 0.86859 0.28407 0.97194 0.0
H779 H 0.94609 0.77022 0.96965 0.0
H780 H 1.01264 0.74234 0.06215 0.0
H781 H 0.99594 0.8078 0.03684 0.0
H782 H 0.09489 0.40644 0.06751 0.0
H783 H 0.97221 0.8191 1.00231 0.0
H784 H 0.98101 0.17994 0.96954 0.0
N785 N 1.01259 0.38034 0.02532 0.0
C786 C 1.02813 0.33544 1.01713 0.0
C787 C 1.07698 0.38669 0.05331 0.0
C788 C 1.07149 0.317 0.02661 0.0
C789 C 1.03309 0.40281 0.04365 0.0
C790 C 0.09714 0.34452 0.04464 0.0
N791 N 0.94843 0.31531 0.99221 0.0
C792 C 0.90872 0.27664 0.97746 0.0
C793 C 1.00962 0.25428 0.992 0.0
C794 C 0.99684 0.30376 0.99992 0.0
C795 C 0.97239 0.21809 0.97601 0.0
C796 C 0.92111 0.22863 0.9689 0.0
H797 H 0.13084 0.3318 0.05225 0.0
H798 H 0.12062 0.25659 0.02507 0.0
H799 H 1.06704 0.20225 0.99479 0.0
O800 O 0.85246 0.30142 1.01241 0.0
O801 O 0.98379 0.40983 0.97661 0.0
O802 O 1.06055 0.52087 0.97477 0.0
O803 O 0.89504 0.36681 0.03645 0.0
O804 O 0.86527 0.38642 0.98235 0.0
O805 O 0.92212 0.48412 0.9649 0.0
O806 O 1.07564 0.666 0.9735 0.0
O807 O 0.89009 0.53412 0.9903 0.0
O808 O 0.87347 0.46057 1.01479 0.0
O809 O 1.00319 0.59204 0.95416 0.0
O810 O 0.09751 0.57774 1.00002 0.0
O811 O 1.05841 0.47052 1.0115 0.0
C812 C 1.03836 0.45988 0.96887 0.0
C813 C 0.84593 0.2464 0.04238 0.0
C814 C 0.7988 0.16048 0.06861 0.0
C815 C 0.8357 0.13148 0.061 0.0
C816 C 0.87714 0.21143 0.03507 0.0
C817 C 0.87349 0.15613 0.04441 0.0
C818 C 0.80524 0.21964 0.05925 0.0
C819 C 0.87359 0.42083 0.96643 0.0
C820 C 0.85189 0.30595 0.03104 0.0
C821 C 0.0866 0.27038 1.01812 0.0
C822 C 1.05622 0.23957 1.00082 0.0
C823 C 0.85461 0.50097 1.00535 0.0
C824 C 0.11377 0.65405 0.94282 0.0
C825 C 0.23354 0.69893 0.93701 0.0
C826 C 0.2192 0.68081 0.91755 0.0
C827 C 0.10035 0.63577 0.92346 0.0
C828 C 0.17956 0.68042 0.94969 0.0
C829 C 0.15281 0.64745 0.91102 0.0
C830 C 0.11019 0.53292 1.00874 0.0
C831 C 1.05973 0.64755 0.95568 0.0
H832 H 0.83523 0.08874 0.06782 0.0
H833 H 0.90317 0.22537 0.02169 0.0
H834 H 0.89949 0.13134 0.03852 0.0
H835 H 0.77744 0.24332 0.06457 0.0
H836 H 0.25865 0.69557 0.90703 0.0
H837 H 1.04958 0.61358 0.91789 0.0
H838 H 0.18936 0.69093 0.96484 0.0
H839 H 0.14233 0.63409 0.89603 0.0
Eu840 Eu 0.59162 0.92266 0.17665 0.0
C841 C 0.36549 0.98757 0.17186 0.0
N842 N 0.38179 0.97231 0.15467 0.0
C843 C 0.2764 0.95215 0.14152 0.0
C844 C 0.30438 0.98789 0.17446 0.0
C845 C 0.33692 0.95112 0.13984 0.0
C846 C 0.26084 0.97234 0.15877 0.0
C847 C 0.38949 1.00737 0.20572 0.0
C848 C 0.40801 0.99814 0.18713 0.0
C849 C 0.33031 1.01107 0.20831 0.0
C850 C 0.28798 1.00175 0.19266 0.0
Eu851 Eu 0.49139 0.98786 0.1512 0.0
N852 N 0.46425 0.99317 0.18407 0.0
C853 C 0.42935 1.00955 0.22123 0.0
C854 C 0.49963 0.98961 0.19935 0.0
C855 C 0.48376 0.99898 0.21807 0.0
H856 H 0.34911 0.93592 0.12644 0.0
H857 H 0.51269 0.99688 0.2301 0.0
H858 H 0.60166 0.97282 0.22249 0.0
H859 H 0.78889 0.91926 0.13247 0.0
H860 H 0.5381 0.97661 0.19726 0.0
H861 H 0.41671 1.01609 0.23575 0.0
H862 H 0.6722 0.88351 0.14222 0.0
H863 H 0.242 0.93775 0.12951 0.0
H864 H 0.31579 1.01901 0.22243 0.0
H865 H 0.24164 1.00299 0.19493 0.0
H866 H 0.6884 1.02492 0.24748 0.0
H867 H 0.2143 0.97385 0.15995 0.0
H868 H 0.88338 1.00018 0.1523 0.0
N869 N 0.67134 0.98926 0.20011 0.0
C870 C 0.73676 1.01001 0.1955 0.0
C871 C 0.70272 1.02207 0.23288 0.0
C872 C 0.78801 1.04154 0.20937 0.0
C873 C 0.65377 0.99364 0.21859 0.0
C874 C 0.77018 1.04707 0.22819 0.0
N875 N 0.70078 0.95002 0.16607 0.0
C876 C 0.71333 0.9208 0.15062 0.0
C877 C 0.81919 1.01116 0.17315 0.0
C878 C 0.75196 0.99289 0.17765 0.0
C879 C 0.83242 0.98673 0.15626 0.0
C880 C 0.77919 0.94059 0.14511 0.0
H881 H 0.80803 0.0694 0.2393 0.0
H882 H 0.89466 0.08635 0.21499 0.0
H883 H 0.92226 0.06235 0.18307 0.0
O884 O 0.61562 0.84119 0.18034 0.0
O885 O 0.63025 0.96736 0.1458 0.0
O886 O 0.59997 1.04777 0.14368 0.0
O887 O 0.57239 0.86522 0.20402 0.0
O888 O 0.54676 0.85519 0.15011 0.0
O889 O 0.49478 0.90431 0.13311 0.0
O890 O 0.46804 0.0607 0.1382 0.0
O891 O 0.41648 0.87719 0.15777 0.0
O892 O 0.4705 0.86182 0.18349 0.0
O893 O 0.48145 0.99117 0.12013 0.0
O894 O 0.58061 0.08402 0.16612 0.0
O895 O 0.63977 1.04275 0.18318 0.0
C896 C 0.63738 1.0232 0.1379 0.0
C897 C 0.65439 0.82859 0.21157 0.0
C898 C 0.69387 0.78997 0.24003 0.0
C899 C 0.75999 0.83002 0.2336 0.0
C900 C 0.7213 0.86101 0.2052 0.0
C901 C 0.77333 0.86423 0.21633 0.0
C902 C 0.64039 0.79098 0.2292 0.0
C903 C 0.51519 0.85913 0.1346 0.0
C904 C 0.60158 0.83115 0.19858 0.0
C905 C 0.8549 0.06215 0.2045 0.0
C906 C 0.87058 1.0482 0.18632 0.0
C907 C 0.41298 0.84239 0.17328 0.0
C908 C 0.5241 0.10095 0.10857 0.0
C909 C 0.59663 0.22094 0.10476 0.0
C910 C 0.59689 0.2115 0.08478 0.0
C911 C 0.52426 0.09224 0.0887 0.0
C912 C 0.56594 0.1641 0.11653 0.0
C913 C 0.56265 0.1472 0.07692 0.0
C914 C 0.63234 0.0957 0.17774 0.0
C915 C 0.4769 1.04559 0.12079 0.0
H916 H 0.80175 0.83157 0.24148 0.0
H917 H 0.73399 0.88267 0.19116 0.0
H918 H 0.82446 0.89145 0.21112 0.0
H919 H 0.58896 0.7611 0.23394 0.0
H920 H 0.62001 0.25362 0.07506 0.0
H921 H 0.49374 1.04339 0.08229 0.0
H922 H 0.57021 0.16957 0.13196 0.0
H923 H 0.56235 0.14053 0.06156 0.0
Eu924 Eu 0.73199 0.56055 0.34318 0.0
C925 C 0.44886 0.34213 0.33621 0.0
N926 N 0.48074 0.35697 0.31905 0.0
C927 C 0.40088 0.2484 0.30705 0.0
C928 C 0.39038 0.28004 0.33931 0.0
C929 C 0.45903 0.31014 0.30474 0.0
C930 C 0.36568 0.23371 0.3243 0.0
C931 C 0.44998 0.36973 0.36976 0.0
C932 C 0.47808 0.3867 0.35118 0.0
C933 C 0.38965 0.30987 0.37264 0.0
C934 C 0.35985 0.2651 0.35743 0.0
Eu935 Eu 0.57212 0.46719 0.31534 0.0
N936 N 0.53747 0.44327 0.34803 0.0
C937 C 0.48523 0.41162 0.38508 0.0
C938 C 0.57439 0.47994 0.36321 0.0
C939 C 0.54869 0.46612 0.38184 0.0
H940 H 0.4865 0.31954 0.29149 0.0
H941 H 0.57852 0.49664 0.39372 0.0
H942 H 0.78589 0.72476 0.3467 0.0
H943 H 0.87463 0.43031 0.32849 0.0
H944 H 0.62446 0.51765 0.36104 0.0
H945 H 0.46565 0.40027 0.39955 0.0
H946 H 0.77414 0.43978 0.33612 0.0
H947 H 0.38349 0.21211 0.29554 0.0
H948 H 0.36707 0.29652 0.38675 0.0
H949 H 0.31459 0.21797 0.36 0.0
H950 H 0.89097 0.83194 0.34287 0.0
H951 H 0.32076 0.18574 0.32609 0.0
H952 H 0.98372 0.53239 0.32325 0.0
N953 N 0.83005 0.66514 0.33893 0.0
C954 C 0.88735 0.66414 0.33433 0.0
C955 C 0.89059 0.78514 0.34029 0.0
C956 C 0.94874 0.72412 0.33223 0.0
C957 C 0.83108 0.72436 0.34233 0.0
C958 C 0.94964 0.78507 0.3351 0.0
N959 N 0.82504 0.54616 0.33457 0.0
C960 C 0.82128 0.48467 0.33375 0.0
C961 C 0.94386 0.59978 0.32802 0.0
C962 C 0.88498 0.60287 0.33225 0.0
C963 C 0.93968 0.5369 0.32646 0.0
C964 C 0.87818 0.47914 0.32942 0.0
H965 H 0.99579 0.83222 0.33365 0.0
H966 H 1.05489 0.76692 0.32596 0.0
H967 H 1.05062 0.65802 0.32228 0.0
O968 O 0.7965 0.55657 0.36625 0.0
O969 O 0.72117 0.63193 0.32083 0.0
O970 O 0.6482 0.55618 0.29904 0.0
O971 O 0.72956 0.59336 0.37294 0.0
O972 O 0.75645 0.53808 0.31322 0.0
O973 O 0.65723 0.45908 0.29927 0.0
O974 O 0.48808 0.47724 0.30355 0.0
O975 O 0.59894 0.38582 0.32328 0.0
O976 O 0.67081 0.4393 0.3485 0.0
O977 O 0.53654 0.43577 0.28628 0.0
O978 O 0.56925 0.56056 0.3296 0.0
O979 O 0.66932 0.61914 0.34632 0.0
C980 C 0.68911 0.61769 0.30405 0.0
C981 C 0.83364 0.63939 0.391 0.0
C982 C 0.93048 0.68075 0.41372 0.0
C983 C 0.93485 0.74416 0.41291 0.0
C984 C 0.84078 0.70388 0.39084 0.0
C985 C 0.89083 0.75546 0.40161 0.0
C986 C 0.87868 0.62788 0.40272 0.0
C987 C 0.72386 0.49512 0.29936 0.0
C988 C 0.77855 0.58468 0.37928 0.0
C989 C 1.00733 0.72138 0.32769 0.0
C990 C 1.00492 0.65935 0.32562 0.0
C991 C 0.63169 0.38227 0.33848 0.0
C992 C 0.50977 0.51102 0.27086 0.0
C993 C 0.48438 0.59249 0.25594 0.0
C994 C 0.52861 0.60115 0.24093 0.0
C995 C 0.55444 0.52063 0.25572 0.0
C996 C 0.47596 0.54812 0.27098 0.0
C997 C 0.56362 0.56542 0.2409 0.0
C998 C 0.61035 0.61332 0.34047 0.0
C999 C 0.49729 0.46174 0.28628 0.0
H1000 H 0.97165 0.78525 0.42146 0.0
H1001 H 0.80713 0.71465 0.3825 0.0
H1002 H 0.89509 0.80468 0.40135 0.0
H1003 H 0.87352 0.5783 0.40323 0.0
H1004 H 0.53342 0.63289 0.22883 0.0
H1005 H 0.58167 0.49296 0.25511 0.0
H1006 H 0.43933 0.53894 0.28213 0.0
H1007 H 0.59651 0.57101 0.22906 0.0
C1008 C 0.13355 0.7287 0.24205 0.0
C1009 C 0.08968 0.66123 0.24654 0.0
C1010 C 0.18736 0.7702 0.25441 0.0
C1011 C 0.201 0.74623 0.27176 0.0
H1012 H 0.12954 0.74828 0.22826 0.0
H1013 H 0.22115 0.82078 0.24967 0.0
S1014 S 0.0925 0.57648 0.29168 0.0
N1015 N 1.05749 0.57505 0.27082 0.0
N1016 N 0.15831 0.65196 0.29369 0.0
C1017 C 0.15352 0.68052 0.27712 0.0
C1018 C 0.09857 0.63841 0.26458 0.0
C1019 C 0.43457 1.05037 0.44478 0.0
C1020 C 0.46823 0.1216 0.44581 0.0
C1021 C 0.43413 1.01524 0.428 0.0
C1022 C 0.46794 1.04927 0.4113 0.0
H1023 H 0.40847 1.02092 0.45724 0.0
H1024 H 0.40951 0.96106 0.42842 0.0
S1025 S 0.56404 0.23462 0.40578 0.0
N1026 N 0.53565 0.22385 0.42798 0.0
N1027 N 0.53673 0.15876 0.39692 0.0
C1028 C 0.50219 0.12022 0.41211 0.0
C1029 C 0.50212 0.15598 0.42914 0.0
C1030 C 0.44054 0.52463 0.60037 0.0
C1031 C 0.38344 0.46755 0.60707 0.0
C1032 C 0.48405 0.52019 0.58686 0.0
C1033 C 0.47448 0.45856 0.57922 0.0
H1034 H 0.44932 0.57379 0.6046 0.0
H1035 H 0.5245 0.5668 0.58177 0.0
S1036 S 0.3345 0.2927 0.59356 0.0
N1037 N 0.32032 0.34625 0.60581 0.0
N1038 N 0.40397 0.33802 0.58115 0.0
C1039 C 0.41914 0.40055 0.58664 0.0
C1040 C 0.37354 0.4051 0.60026 0.0
C1041 C 1.00439 0.40908 0.746 0.0
C1042 C 1.07562 0.44277 0.74525 0.0
C1043 C 0.96795 0.37115 0.76217 0.0
C1044 C 1.00087 0.36596 0.77866 0.0
H1045 H 0.9763 0.41253 0.73391 0.0
H1046 H 0.9136 0.34508 0.76163 0.0
S1047 S 0.18683 0.45323 0.78536 0.0
N1048 N 0.17713 0.47271 0.76322 0.0
N1049 N 0.11033 0.40437 0.79367 0.0
C1050 C 1.07233 0.40147 0.77829 0.0
C1051 C 0.10912 0.43891 0.76167 0.0
C1052 C 0.70907 0.09052 0.93192 0.0
C1053 C 0.68677 0.05771 0.9142 0.0
C1054 C 0.70778 0.05522 0.94876 0.0
C1055 C 0.6836 0.98502 0.94889 0.0
H1056 H 0.72548 0.14351 0.93295 0.0
H1057 H 0.72532 0.08339 0.96197 0.0
S1058 S 0.62879 0.87743 0.90561 0.0
N1059 N 0.64561 0.95191 0.89752 0.0
N1060 N 0.64325 0.88619 0.92893 0.0
C1061 C 0.66295 0.95217 0.93112 0.0
C1062 C 0.66451 0.98822 0.91394 0.0
C1063 C 0.75461 0.62341 0.0969 0.0
C1064 C 0.76508 0.66642 0.11251 0.0
C1065 C 0.71462 0.62066 0.08098 0.0
C1066 C 0.68392 0.66151 0.07964 0.0
H1067 H 0.77823 0.59229 0.09682 0.0
H1068 H 0.70749 0.58581 0.06954 0.0
S1069 S 0.68682 0.77557 0.11763 0.0
N1070 N 0.73433 0.74565 0.12628 0.0
N1071 N 0.66219 0.74167 0.09621 0.0
C1072 C 0.69281 0.70365 0.09523 0.0
C1073 C 0.73235 0.70568 0.11162 0.0
C1074 C 0.46478 0.08331 0.60228 0.0
C1075 C 0.46241 1.05117 0.61965 0.0
C1076 C 0.42908 1.04654 0.5859 0.0
C1077 C 0.38867 0.9756 0.58597 0.0
H1078 H 0.49665 0.13701 0.60105 0.0
H1079 H 0.43412 0.07426 0.57285 0.0
S1080 S 0.35888 0.86859 0.62884 0.0
N1081 N 0.41292 0.94461 0.63636 0.0
N1082 N 0.34466 0.87636 0.60598 0.0
C1083 C 0.38461 0.94328 0.60349 0.0
C1084 C 0.42152 0.98074 0.62013 0.0
C1085 C 0.42764 0.40564 0.75494 0.0
C1086 C 0.46603 0.37215 0.75344 0.0
C1087 C 0.4296 0.44276 0.77135 0.0
C1088 C 0.47117 0.4496 0.78702 0.0
H1089 H 0.39554 0.40338 0.7432 0.0
H1090 H 0.40006 0.46815 0.77146 0.0
S1091 S 0.58171 0.37273 0.79101 0.0
N1092 N 0.54611 0.34831 0.76973 0.0
N1093 N 0.55196 0.41965 0.80005 0.0
C1094 C 0.51049 0.4173 0.78571 0.0
C1095 C 0.50773 0.37867 0.7691 0.0
C1096 C 1.04145 0.41177 0.93633 0.0
C1097 C 1.07573 0.45171 0.95218 0.0
C1098 C 1.07597 0.41213 0.91945 0.0
C1099 C 0.14705 0.45106 0.91759 0.0
H1100 H 0.98719 0.38176 0.93665 0.0
H1101 H 1.04601 0.38134 0.90763 0.0
S1102 S 0.2607 0.56391 0.95538 0.0
N1103 N 0.18506 0.53256 0.96487 0.0
N1104 N 0.24961 0.53028 0.93382 0.0
C1105 C 0.18175 0.49127 0.93344 0.0
C1106 C 0.14637 0.49199 0.95049 0.0
C1107 C 0.68811 1.02255 0.10532 0.0
C1108 C 0.68289 0.05828 0.121 0.0
C1109 C 0.72261 0.05563 0.08835 0.0
C1110 C 0.75532 0.12656 0.08619 0.0
H1111 H 0.66357 0.96841 0.1059 0.0
H1112 H 0.72328 1.02472 0.07671 0.0
S1113 S 0.75965 0.24381 0.12349 0.0
N1114 N 0.7146 0.16908 0.13323 0.0
N1115 N 0.78077 0.23048 0.102 0.0
C1116 C 0.75066 0.16259 0.10186 0.0
C1117 C 0.71467 0.12884 0.11901 0.0
C1118 C 0.67645 0.71623 0.29128 0.0
C1119 C 0.69895 0.66893 0.28887 0.0
C1120 C 0.67062 0.75288 0.27547 0.0
C1121 C 0.68583 0.74293 0.25648 0.0
H1122 H 0.66148 0.72371 0.30539 0.0
H1123 H 0.65508 0.78988 0.27818 0.0
S1124 S 0.74455 0.62357 0.24231 0.0
N1125 N 0.73464 0.61387 0.26573 0.0
N1126 N 0.72467 0.68176 0.2366 0.0
C1127 C 0.70816 0.69571 0.25407 0.0
C1128 C 0.71417 0.65902 0.27 0.0
C1129 C 0.99724 0.61288 0.45388 0.0
C1130 C 1.06656 0.66028 0.45523 0.0
C1131 C 0.9544 0.61858 0.44022 0.0
C1132 C 0.97851 0.67148 0.4269 0.0
H1133 H 0.97541 0.57061 0.46361 0.0
H1134 H 0.90156 0.58179 0.44034 0.0
S1135 S 0.15694 0.80593 0.4229 0.0
N1136 N 0.15745 0.76025 0.44118 0.0
N1137 N 1.07832 0.77053 0.41533 0.0
C1138 C 1.04812 0.71857 0.42781 0.0
C1139 C 0.09157 0.71315 0.44194 0.0
C1140 C 0.54037 0.67948 0.33652 0.0
C1141 C 0.59201 0.67076 0.34571 0.0
C1142 C 0.5254 0.7331 0.34115 0.0
C1143 C 0.56004 0.7829 0.35553 0.0
H1144 H 0.5109 0.64449 0.32537 0.0
H1145 H 0.48514 0.73483 0.33345 0.0
S1146 S 0.70007 0.78556 0.38436 0.0
N1147 N 0.67768 0.72034 0.37023 0.0
N1148 N 0.65024 0.81645 0.37882 0.0
C1149 C 0.61152 0.77421 0.36477 0.0
C1150 C 0.62711 0.72043 0.35995 0.0
C1151 C 0.84495 0.46418 0.52187 0.0
C1152 C 0.81884 0.50898 0.51871 0.0
C1153 C 0.9145 0.48137 0.51813 0.0
C1154 C 0.96514 0.54568 0.51145 0.0
H1155 H 0.8116 0.4152 0.52775 0.0
H1156 H 0.92902 0.44368 0.52097 0.0
S1157 S 0.92489 0.67971 0.49813 0.0
N1158 N 0.85253 0.61993 0.50641 0.0
N1159 N 0.97862 0.65134 0.50011 0.0
C1160 C 0.93921 0.58992 0.50783 0.0
C1161 C 0.86859 0.57218 0.5113 0.0
C1162 C 0.39617 0.92312 0.69028 0.0
C1163 C 0.45639 0.93873 0.6802 0.0
C1164 C 0.34319 0.85574 0.69453 0.0
C1165 C 0.34364 0.79576 0.68886 0.0
H1166 H 0.38915 0.96391 0.69495 0.0
H1167 H 0.30021 0.85097 0.7024 0.0
S1168 S 0.48761 0.80304 0.66152 0.0
N1169 N 0.51066 0.88304 0.66443 0.0
N1170 N 0.41339 0.76005 0.67187 0.0
C1171 C 0.40311 0.81006 0.67846 0.0
C1172 C 0.45779 0.87922 0.67434 0.0
C1173 C 0.53704 0.38788 0.85698 0.0
C1174 C 0.58031 0.44751 0.84671 0.0
C1175 C 0.55219 0.33458 0.86121 0.0
C1176 C 0.61224 0.3341 0.85541 0.0
H1177 H 0.48971 0.38158 0.8619 0.0
H1178 H 0.51494 0.29214 0.86922 0.0
S1179 S 0.74636 0.4768 0.82816 0.0
N1180 N 0.68925 0.5007 0.83097 0.0
N1181 N 0.71629 0.4027 0.83848 0.0
C1182 C 0.65629 0.39314 0.84499 0.0
C1183 C 0.64103 0.44818 0.84083 0.0
C1184 C 0.23784 0.61621 1.0192 0.0
C1185 C 0.18635 0.55129 1.01319 0.0
C1186 C 0.30732 0.63319 0.02304 0.0
C1187 C 0.33262 0.58735 0.02078 0.0
H1188 H 0.22411 0.6548 0.02138 0.0
H1189 H 0.34139 0.68304 0.02825 0.0
S1190 S 0.22508 0.41428 1.00218 0.0
N1191 N 0.17202 0.44381 1.00318 0.0
N1192 N 0.29764 0.47441 1.01024 0.0
C1193 C 0.28223 0.52332 1.01415 0.0
C1194 C 0.21172 0.50597 1.01038 0.0
C1195 C 0.75549 0.29761 0.17449 0.0
C1196 C 0.79961 0.31677 0.19072 0.0
C1197 C 0.7014 0.22913 0.171 0.0
C1198 C 0.68791 0.17205 0.18274 0.0
H1199 H 0.76226 0.33595 0.16425 0.0
H1200 H 0.66983 0.22097 0.15859 0.0
S1201 S 0.77506 0.19392 0.22958 0.0
N1202 N 0.81367 0.27 0.22053 0.0
N1203 N 0.71921 0.14661 0.21338 0.0
C1204 C 0.72933 0.19153 0.19938 0.0
C1205 C 0.78242 0.26106 0.20335 0.0
C1206 C 0.38801 0.59639 0.52709 0.0
C1207 C 0.35606 0.58535 0.50874 0.0
C1208 C 0.4405 0.57942 0.53161 0.0
C1209 C 0.46579 0.54914 0.51832 0.0
H1210 H 0.37192 0.61789 0.53835 0.0
H1211 H 0.46091 0.58944 0.54601 0.0
S1212 S 0.40815 0.51652 0.46748 0.0
N1213 N 0.36098 0.54553 0.47679 0.0
N1214 N 0.45638 0.51603 0.48509 0.0
C1215 C 0.4356 0.53965 0.4999 0.0
C1216 C 0.38255 0.55685 0.49527 0.0
C1217 C 0.82757 0.39492 0.68185 0.0
C1218 C 0.80976 0.32611 0.67923 0.0
C1219 C 0.89601 0.44845 0.68573 0.0
C1220 C 0.9535 0.43866 0.6873 0.0
H1221 H 0.78839 0.40837 0.68044 0.0
H1222 H 0.90389 0.49883 0.68728 0.0
S1223 S 0.93576 0.26785 0.68515 0.0
N1224 N 0.85876 0.25322 0.68063 0.0
N1225 N 0.98169 0.34953 0.68815 0.0
C1226 C 0.93545 0.36981 0.6855 0.0
C1227 C 0.86638 0.31576 0.68145 0.0
C1228 C 0.53923 0.88709 0.86503 0.0
C1229 C 0.57393 0.94301 0.85225 0.0
C1230 C 0.52338 0.81841 0.86071 0.0
C1231 C 0.53879 0.79819 0.84287 0.0
H1232 H 0.52467 0.8965 0.87895 0.0
H1233 H 0.49876 0.78075 0.87168 0.0
S1234 S 0.61404 0.91879 0.8021 0.0
N1235 N 0.61209 0.96681 0.81944 0.0
N1236 N 0.58384 0.84326 0.81138 0.0
C1237 C 0.56984 0.85309 0.82962 0.0
C1238 C 0.58653 0.92272 0.83415 0.0
C1239 C 0.73356 0.58249 1.00638 0.0
C1240 C 0.68366 0.5496 0.02074 0.0
C1241 C 0.78593 0.56615 1.00193 0.0
C1242 C 0.7951 0.51557 1.01147 0.0
H1243 H 0.73231 0.62188 0.9982 0.0
H1244 H 0.82042 0.59474 0.99059 0.0
S1245 S 0.68148 0.41354 0.05114 0.0
N1246 N 0.65007 0.46244 0.04495 0.0
N1247 N 0.74648 0.43346 0.03694 0.0
C1248 C 0.74609 0.4825 0.02609 0.0
C1249 C 0.69193 0.49878 0.03053 0.0
C1250 C 0.28356 0.75921 0.16617 0.0
C1251 C 0.33993 0.78182 0.17895 0.0
C1252 C 0.21607 0.70584 0.17041 0.0
C1253 C 0.19687 0.66903 0.18796 0.0
H1254 H 0.29146 0.78314 0.1523 0.0
H1255 H 0.17846 0.69235 0.15937 0.0
S1256 S 0.32049 0.70806 0.22781 0.0
N1257 N 0.36715 0.76125 0.21098 0.0
N1258 N 0.24405 0.66419 0.21879 0.0
C1259 C 0.25245 0.69123 0.20102 0.0
C1260 C 0.32161 0.74584 0.19667 0.0
C1261 C 0.56682 0.25018 0.33556 0.0
C1262 C 0.61944 0.30934 0.34423 0.0
C1263 C 0.55347 0.18277 0.33967 0.0
C1264 C 0.59181 0.1667 0.35268 0.0
H1265 H 0.53416 0.25555 0.3253 0.0
H1266 H 0.51157 0.14233 0.33242 0.0
S1267 S 0.73726 0.30034 0.37976 0.0
N1268 N 0.71071 0.34391 0.36707 0.0
N1269 N 0.68746 0.22074 0.3743 0.0
C1270 C 0.64524 0.22537 0.36143 0.0
C1271 C 0.65831 0.29448 0.35742 0.0
C1272 C 0.3868 0.77469 0.4497 0.0
C1273 C 0.31803 0.72652 0.44786 0.0
C1274 C 0.42627 0.81264 0.43377 0.0
C1275 C 0.39907 0.80605 0.41507 0.0
H1276 H 0.41067 0.78314 0.46363 0.0
H1277 H 0.47848 0.84882 0.43632 0.0
S1278 S 0.22044 0.69043 0.40248 0.0
N1279 N 0.22461 0.67687 0.42557 0.0
N1280 N 0.29693 0.74769 0.39619 0.0
C1281 C 0.33012 0.75866 0.41314 0.0
C1282 C 0.29041 0.71932 0.42927 0.0
C1283 C 0.65929 0.32374 0.58174 0.0
C1284 C 0.65347 0.38244 0.58344 0.0
C1285 C 0.65755 0.28481 0.59793 0.0
C1286 C 0.64867 0.30125 0.61688 0.0
H1287 H 0.66436 0.3069 0.56765 0.0
H1288 H 0.66124 0.24009 0.59544 0.0
S1289 S 0.63093 0.44996 0.62965 0.0
N1290 N 0.63918 0.45489 0.60611 0.0
N1291 N 0.63516 0.38264 0.63606 0.0
C1292 C 0.64366 0.3604 0.61879 0.0
C1293 C 0.64629 0.40046 0.60233 0.0
C1294 C 0.4113 0.61288 0.76253 0.0
C1295 C 0.39838 0.62548 0.7815 0.0
C1296 C 0.37165 0.61221 0.74658 0.0
C1297 C 0.31732 0.62553 0.74846 0.0
H1298 H 0.45129 0.60121 0.76001 0.0
H1299 H 0.38365 0.60048 0.7326 0.0
S1300 S 0.26684 0.66888 0.7948 0.0
N1301 N 0.32888 0.65496 0.80091 0.0
N1302 N 0.25775 0.65742 0.77137 0.0
C1303 C 0.30614 0.64119 0.76732 0.0
C1304 C 0.34535 0.64005 0.7836 0.0
C1305 C 0.73054 0.28489 0.93509 0.0
C1306 C 0.75064 0.30471 0.9159 0.0
C1307 C 0.76925 0.32291 0.95108 0.0
C1308 C 0.83017 0.38395 0.94898 0.0
H1309 H 0.68517 0.23823 0.93789 0.0
H1310 H 0.75133 0.30356 0.96531 0.0
S1311 S 0.90643 0.46006 0.90201 0.0
N1312 N 0.83683 0.39137 0.89604 0.0
N1313 N 0.90817 0.46193 0.92567 0.0
C1314 C 0.85029 0.40511 0.92988 0.0
C1315 C 0.81121 0.36602 0.91358 0.0
C1316 C 0.50166 0.75072 0.1192 0.0
C1317 C 0.50899 0.81554 0.11719 0.0
C1318 C 0.49926 0.71117 0.10309 0.0
C1319 C 0.50642 0.73474 0.08397 0.0
H1320 H 0.49774 0.73009 0.13342 0.0
H1321 H 0.49378 0.66224 0.10576 0.0
S1322 S 0.52894 0.90197 0.07048 0.0
N1323 N 0.52308 0.90084 0.09408 0.0
N1324 N 0.52168 0.82903 0.06436 0.0
C1325 C 0.51403 0.79966 0.0818 0.0
C1326 C 0.51453 0.8391 0.09814 0.0
C1327 C 0.73958 0.43864 0.26919 0.0
C1328 C 0.765 0.49258 0.28239 0.0
C1329 C 0.7784 0.43695 0.25338 0.0
C1330 C 0.84487 0.4887 0.25011 0.0
H1331 H 0.68918 0.39729 0.27103 0.0
H1332 H 0.75608 0.39484 0.24362 0.0
S1333 S 0.9335 0.64477 0.27859 0.0
N1334 N 0.86012 0.60239 0.28933 0.0
N1335 N 0.93239 0.59677 0.26084 0.0
C1336 C 0.87038 0.54281 0.26298 0.0
C1337 C 0.83089 0.54536 0.27873 0.0
C1338 C 0.85386 0.32117 0.41991 0.0
C1339 C 0.86296 0.3827 0.42641 0.0
C1340 C 0.79375 0.263 0.4229 0.0
C1341 C 0.73904 0.26393 0.43202 0.0
H1342 H 0.89528 0.31738 0.41359 0.0
H1343 H 0.79215 0.21652 0.41893 0.0
S1344 S 0.73576 0.41537 0.44945 0.0
N1345 N 0.81274 0.44389 0.44109 0.0
N1346 N 0.69638 0.33355 0.44584 0.0
C1347 C 0.74604 0.32628 0.43742 0.0
C1348 C 0.80868 0.38605 0.43468 0.0
C1349 C 0.58483 0.85888 0.57316 0.0
C1350 C 0.53483 0.86358 0.58346 0.0
C1351 C 0.5983 0.80685 0.57665 0.0
C1352 C 0.56035 0.75596 0.59003 0.0
H1353 H 0.61942 0.90013 0.56422 0.0
H1354 H 0.64283 0.81057 0.57001 0.0
S1355 S 0.40936 0.73545 0.61576 0.0
N1356 N 0.43884 0.80813 0.6046 0.0
N1357 N 0.46002 0.70572 0.60999 0.0
C1358 C 0.50381 0.75527 0.59829 0.0
C1359 C 0.49174 0.81007 0.5952 0.0
C1360 C 0.79852 0.55067 0.78511 0.0
C1361 C 0.74869 0.50745 0.77207 0.0
C1362 C 0.85557 0.54543 0.78872 0.0
C1363 C 0.86669 0.49869 0.7789 0.0
H1364 H 0.79716 0.59301 0.79152 0.0
H1365 H 0.89474 0.58317 0.79763 0.0
S1366 S 0.74892 0.36594 0.74617 0.0
N1367 N 0.7097 0.40789 0.75206 0.0
N1368 N 0.82174 0.40284 0.75758 0.0
C1369 C 0.81594 0.45149 0.7671 0.0
C1370 C 0.75587 0.45494 0.76393 0.0
C1371 C 0.37129 0.85587 0.95958 0.0
C1372 C 0.42767 0.86663 0.94905 0.0
C1373 C 0.30978 0.79863 0.95666 0.0
C1374 C 0.30258 0.74868 0.94347 0.0
H1375 H 0.37292 0.89533 0.96854 0.0
H1376 H 0.26689 0.79759 0.96357 0.0
S1377 S 0.44177 0.74686 0.91642 0.0
N1378 N 0.47712 0.82028 0.92734 0.0
N1379 N 0.36214 0.70833 0.92307 0.0
C1380 C 0.36134 0.75529 0.9348 0.0
C1381 C 0.42383 0.81532 0.9373 0.0
C1382 C 0.66605 0.34657 0.10368 0.0
C1383 C 0.61577 0.28849 0.11272 0.0
C1384 C 0.66999 0.40903 0.10653 0.0
C1385 C 0.62581 0.4156 0.11915 0.0
H1386 H 0.69889 0.34295 0.09313 0.0
H1387 H 0.70372 0.45098 0.09768 0.0
S1388 S 0.49411 0.28435 0.14915 0.0
N1389 N 0.52558 0.24517 0.13662 0.0
N1390 N 0.53825 0.36365 0.14288 0.0
C1391 C 0.58206 0.36073 0.13022 0.0
C1392 C 0.57575 0.29671 0.12684 0.0
C1393 C 0.38377 0.57868 0.2397 0.0
C1394 C 0.4329 0.61286 0.25369 0.0
C1395 C 0.3175 0.56332 0.24283 0.0
C1396 C 0.29895 0.58362 0.2598 0.0
H1397 H 0.39408 0.55478 0.22776 0.0
H1398 H 0.28007 0.52858 0.23296 0.0
S1399 S 0.41579 0.69916 0.29634 0.0
N1400 N 0.46384 0.68288 0.2821 0.0
N1401 N 0.33908 0.65822 0.28735 0.0
C1402 C 0.35041 0.62949 0.2718 0.0
C1403 C 0.41778 0.64347 0.26885 0.0
loop_
_geom_bond_atom_site_label_1
_geom_bond_atom_site_label_2
_geom_bond_distance
_geom_bond_site_symmetry_2
_ccdc_geom_bond_type
Eu0 N29 2.600 1_565 S
Eu0 N35 2.562 . S
Eu0 O44 2.462 . S
Eu0 O45 2.373 1_565 S
Eu0 O47 2.432 . S
Eu0 O48 2.291 . S
Eu0 O52 2.335 . S
Eu0 O55 2.372 1_565 S
Eu0 C64 2.787 . S
C1 N2 1.365 . S
C1 C4 1.405 . S
C1 C8 1.448 . S
N2 C1 1.365 . S
N2 C5 1.319 . S
N2 Eu11 2.600 1_565 S
C3 C5 1.397 . S
C3 C6 1.367 . S
C3 H23 0.931 . S
C4 C1 1.405 . S
C4 C6 1.403 . S
C4 C10 1.439 . S
C5 N2 1.319 . S
C5 C3 1.397 . S
C5 H16 0.930 . S
C6 C3 1.367 . S
C6 C4 1.403 . S
C6 H27 0.929 . S
C7 C8 1.430 . S
C7 C9 1.387 . S
C7 C13 1.404 1_565 S
C8 C1 1.448 . S
C8 C7 1.430 . S
C8 N12 1.351 1_565 S
C9 C7 1.387 . S
C9 C10 1.374 . S
C9 H24 0.931 . S
C10 C4 1.439 . S
C10 C9 1.374 . S
C10 H25 0.931 . S
Eu11 N2 2.600 1_545 S
Eu11 N12 2.562 . S
Eu11 O46 2.335 . S
Eu11 O49 2.372 1_545 S
Eu11 O50 2.462 . S
Eu11 O51 2.373 1_545 S
Eu11 O53 2.432 . S
Eu11 O54 2.291 . S
Eu11 C75 2.787 . S
N12 C8 1.351 1_545 S
N12 Eu11 2.562 . S
N12 C14 1.325 . S
C13 C7 1.404 1_545 S
C13 C15 1.366 . S
C13 H21 0.930 . S
C14 N12 1.325 . S
C14 C15 1.416 . S
C14 H20 0.929 . S
C15 C13 1.366 . S
C15 C14 1.416 . S
C15 H17 0.930 . S
H16 C5 0.930 . S
H17 C15 0.930 . S
H18 C33 0.930 . S
H19 C40 0.930 . S
H20 C14 0.929 . S
H21 C13 0.930 . S
H22 C36 0.929 . S
H23 C3 0.931 . S
H24 C9 0.931 . S
H25 C10 0.931 . S
H26 C31 0.931 . S
H27 C6 0.929 . S
H28 C39 0.930 . S
N29 Eu0 2.600 1_545 S
N29 C30 1.365 . S
N29 C33 1.319 . S
C30 N29 1.365 . S
C30 C32 1.405 . S
C30 C38 1.448 . S
C31 H26 0.931 . S
C31 C33 1.397 . S
C31 C34 1.367 . S
C32 C30 1.405 . S
C32 C34 1.403 . S
C32 C65 1.439 . S
C33 H18 0.930 . S
C33 N29 1.319 . S
C33 C31 1.397 . S
C34 C31 1.367 . S
C34 C32 1.403 . S
C34 H41 0.929 . S
N35 Eu0 2.562 . S
N35 C36 1.325 . S
N35 C38 1.351 1_565 S
C36 H22 0.929 . S
C36 N35 1.325 . S
C36 C40 1.416 . S
C37 C38 1.430 . S
C37 C39 1.404 1_545 S
C37 C66 1.387 . S
C38 C30 1.448 . S
C38 N35 1.351 1_545 S
C38 C37 1.430 . S
C39 H28 0.930 . S
C39 C37 1.404 1_565 S
C39 C40 1.366 . S
C40 H19 0.930 . S
C40 C36 1.416 . S
C40 C39 1.366 . S
H41 C34 0.929 . S
H42 C65 0.931 . S
H43 C66 0.931 . S
O44 Eu0 2.462 . S
O44 C64 1.252 . S
O45 Eu0 2.373 1_545 S
O45 C56 1.249 . S
O46 Eu11 2.335 . S
O46 C56 1.264 . S
O47 Eu0 2.432 . S
O47 C64 1.268 . S
O48 Eu0 2.291 . S
O48 C63 1.255 . S
O49 Eu11 2.372 1_565 S
O49 C63 1.257 . S
O50 Eu11 2.462 . S
O50 C75 1.252 . S
O51 Eu11 2.373 1_565 S
O51 C67 1.249 . S
O52 Eu0 2.335 . S
O52 C67 1.264 . S
O53 Eu11 2.432 . S
O53 C75 1.268 . S
O54 Eu11 2.291 . S
O54 C74 1.255 . S
O55 Eu0 2.372 1_545 S
O55 C74 1.257 . S
C56 O45 1.249 . S
C56 O46 1.264 . S
C57 C60 1.382 . S
C57 C62 1.390 . S
C57 C64 1.506 . S
C58 C59 1.398 . S
C58 C62 1.392 . S
C59 C58 1.398 . S
C59 C61 1.372 . S
C59 H76 0.931 . S
C60 C57 1.382 . S
C60 C61 1.390 . S
C60 H77 0.931 . S
C61 C59 1.372 . S
C61 C60 1.390 . S
C61 H78 0.929 . S
C62 C57 1.390 . S
C62 C58 1.392 . S
C62 H79 0.930 . S
C63 O48 1.255 . S
C63 O49 1.257 . S
C64 Eu0 2.787 . S
C64 O44 1.252 . S
C64 O47 1.268 . S
C64 C57 1.506 . S
C65 C32 1.439 . S
C65 H42 0.931 . S
C65 C66 1.374 . S
C66 C37 1.387 . S
C66 H43 0.931 . S
C66 C65 1.374 . S
C67 O51 1.249 . S
C67 O52 1.264 . S
C68 C71 1.382 . S
C68 C72 1.390 . S
C68 C75 1.506 . S
C69 C70 1.398 . S
C69 C72 1.392 . S
C70 C69 1.398 . S
C70 C73 1.372 . S
C70 H80 0.931 . S
C71 C68 1.382 . S
C71 C73 1.390 . S
C71 H81 0.931 . S
C72 C68 1.390 . S
C72 C69 1.392 . S
C72 H82 0.930 . S
C73 C70 1.372 . S
C73 C71 1.390 . S
C73 H83 0.929 . S
C74 O54 1.255 . S
C74 O55 1.257 . S
C75 Eu11 2.787 . S
C75 O50 1.252 . S
C75 O53 1.268 . S
C75 C68 1.506 . S
H76 C59 0.931 . S
H77 C60 0.931 . S
H78 C61 0.929 . S
H79 C62 0.930 . S
H80 C70 0.931 . S
H81 C71 0.931 . S
H82 C72 0.930 . S
H83 C73 0.929 . S
Eu84 N113 2.600 . S
Eu84 N119 2.562 . S
Eu84 O128 2.462 . S
Eu84 O129 2.373 . S
Eu84 O131 2.432 . S
Eu84 O132 2.291 . S
Eu84 O136 2.335 . S
Eu84 O139 2.372 . S
Eu84 C148 2.787 . S
C85 N86 1.365 . S
C85 C88 1.405 . S
C85 C92 1.448 . S
N86 C85 1.365 . S
N86 C89 1.319 . S
N86 Eu95 2.600 . S
C87 C89 1.397 . S
C87 C90 1.367 . S
C87 H107 0.931 . S
C88 C85 1.405 . S
C88 C90 1.403 . S
C88 C94 1.439 . S
C89 N86 1.319 . S
C89 C87 1.397 . S
C89 H100 0.930 . S
C90 C87 1.367 . S
C90 C88 1.403 . S
C90 H111 0.929 . S
C91 C92 1.430 . S
C91 C93 1.387 . S
C91 C97 1.404 . S
C92 C85 1.448 . S
C92 C91 1.430 . S
C92 N96 1.351 . S
C93 C91 1.387 . S
C93 C94 1.374 . S
C93 H108 0.931 . S
C94 C88 1.439 . S
C94 C93 1.374 . S
C94 H109 0.931 . S
Eu95 N86 2.600 . S
Eu95 N96 2.562 . S
Eu95 O130 2.335 . S
Eu95 O133 2.372 . S
Eu95 O134 2.462 . S
Eu95 O135 2.373 . S
Eu95 O137 2.432 . S
Eu95 O138 2.291 . S
Eu95 C159 2.787 . S
N96 C92 1.351 . S
N96 Eu95 2.562 . S
N96 C98 1.325 . S
C97 C91 1.404 . S
C97 C99 1.366 . S
C97 H105 0.930 . S
C98 N96 1.325 . S
C98 C99 1.416 . S
C98 H104 0.929 . S
C99 C97 1.366 . S
C99 C98 1.416 . S
C99 H101 0.930 . S
H100 C89 0.930 . S
H101 C99 0.930 . S
H102 C117 0.930 . S
H103 C124 0.930 . S
H104 C98 0.929 . S
H105 C97 0.930 . S
H106 C120 0.929 . S
H107 C87 0.931 . S
H108 C93 0.931 . S
H109 C94 0.931 . S
H110 C115 0.931 . S
H111 C90 0.929 . S
H112 C123 0.930 . S
N113 Eu84 2.600 . S
N113 C114 1.365 . S
N113 C117 1.319 . S
C114 N113 1.365 . S
C114 C116 1.405 . S
C114 C122 1.448 . S
C115 H110 0.931 . S
C115 C117 1.397 . S
C115 C118 1.367 . S
C116 C114 1.405 . S
C116 C118 1.403 . S
C116 C149 1.439 . S
C117 H102 0.930 . S
C117 N113 1.319 . S
C117 C115 1.397 . S
C118 C115 1.367 . S
C118 C116 1.403 . S
C118 H125 0.929 . S
N119 Eu84 2.562 . S
N119 C120 1.325 . S
N119 C122 1.351 . S
C120 H106 0.929 . S
C120 N119 1.325 . S
C120 C124 1.416 . S
C121 C122 1.430 . S
C121 C123 1.404 . S
C121 C150 1.387 . S
C122 C114 1.448 . S
C122 N119 1.351 . S
C122 C121 1.430 . S
C123 H112 0.930 . S
C123 C121 1.404 . S
C123 C124 1.366 . S
C124 H103 0.930 . S
C124 C120 1.416 . S
C124 C123 1.366 . S
H125 C118 0.929 . S
H126 C149 0.931 . S
H127 C150 0.931 . S
O128 Eu84 2.462 . S
O128 C148 1.252 . S
O129 Eu84 2.373 . S
O129 C140 1.249 . S
O130 Eu95 2.335 . S
O130 C140 1.264 . S
O131 Eu84 2.432 . S
O131 C148 1.268 . S
O132 Eu84 2.291 . S
O132 C147 1.255 . S
O133 Eu95 2.372 . S
O133 C147 1.257 . S
O134 Eu95 2.462 . S
O134 C159 1.252 . S
O135 Eu95 2.373 . S
O135 C151 1.249 . S
O136 Eu84 2.335 . S
O136 C151 1.264 . S
O137 Eu95 2.432 . S
O137 C159 1.268 . S
O138 Eu95 2.291 . S
O138 C158 1.255 . S
O139 Eu84 2.372 . S
O139 C158 1.257 . S
C140 O129 1.249 . S
C140 O130 1.264 . S
C141 C144 1.382 . S
C141 C146 1.390 . S
C141 C148 1.506 . S
C142 C143 1.398 . S
C142 C146 1.392 . S
C143 C142 1.398 . S
C143 C145 1.372 . S
C143 H160 0.931 . S
C144 C141 1.382 . S
C144 C145 1.390 . S
C144 H161 0.931 . S
C145 C143 1.372 . S
C145 C144 1.390 . S
C145 H162 0.929 . S
C146 C141 1.390 . S
C146 C142 1.392 . S
C146 H163 0.930 . S
C147 O132 1.255 . S
C147 O133 1.257 . S
C148 Eu84 2.787 . S
C148 O128 1.252 . S
C148 O131 1.268 . S
C148 C141 1.506 . S
C149 C116 1.439 . S
C149 H126 0.931 . S
C149 C150 1.374 . S
C150 C121 1.387 . S
C150 H127 0.931 . S
C150 C149 1.374 . S
C151 O135 1.249 . S
C151 O136 1.264 . S
C152 C155 1.382 . S
C152 C156 1.390 . S
C152 C159 1.506 . S
C153 C154 1.398 . S
C153 C156 1.392 . S
C154 C153 1.398 . S
C154 C157 1.372 . S
C154 H164 0.931 . S
C155 C152 1.382 . S
C155 C157 1.390 . S
C155 H165 0.931 . S
C156 C152 1.390 . S
C156 C153 1.392 . S
C156 H166 0.930 . S
C157 C154 1.372 . S
C157 C155 1.390 . S
C157 H167 0.929 . S
C158 O138 1.255 . S
C158 O139 1.257 . S
C159 Eu95 2.787 . S
C159 O134 1.252 . S
C159 O137 1.268 . S
C159 C152 1.506 . S
H160 C143 0.931 . S
H161 C144 0.931 . S
H162 C145 0.929 . S
H163 C146 0.930 . S
H164 C154 0.931 . S
H165 C155 0.931 . S
H166 C156 0.930 . S
H167 C157 0.929 . S
Eu168 N197 2.600 1_455 S
Eu168 N203 2.562 . S
Eu168 O212 2.462 . S
Eu168 O213 2.373 1_455 S
Eu168 O215 2.432 . S
Eu168 O216 2.291 . S
Eu168 O220 2.335 . S
Eu168 O223 2.372 1_455 S
Eu168 C232 2.787 . S
C169 N170 1.365 . S
C169 C172 1.405 . S
C169 C176 1.448 . S
N170 C169 1.365 . S
N170 C173 1.319 . S
N170 Eu179 2.600 1_455 S
C171 C173 1.397 . S
C171 C174 1.367 . S
C171 H191 0.931 . S
C172 C169 1.405 . S
C172 C174 1.403 . S
C172 C178 1.439 . S
C173 N170 1.319 . S
C173 C171 1.397 . S
C173 H184 0.930 . S
C174 C171 1.367 . S
C174 C172 1.403 . S
C174 H195 0.929 . S
C175 C176 1.430 . S
C175 C177 1.387 . S
C175 C181 1.404 1_455 S
C176 C169 1.448 . S
C176 C175 1.430 . S
C176 N180 1.351 1_455 S
C177 C175 1.387 . S
C177 C178 1.374 . S
C177 H192 0.931 . S
C178 C172 1.439 . S
C178 C177 1.374 . S
C178 H193 0.931 . S
Eu179 N170 2.600 1_655 S
Eu179 N180 2.562 . S
Eu179 O214 2.335 . S
Eu179 O217 2.372 1_655 S
Eu179 O218 2.462 . S
Eu179 O219 2.373 1_655 S
Eu179 O221 2.432 . S
Eu179 O222 2.291 . S
Eu179 C243 2.787 . S
N180 C176 1.351 1_655 S
N180 Eu179 2.562 . S
N180 C182 1.325 . S
C181 C175 1.404 1_655 S
C181 C183 1.366 . S
C181 H189 0.930 . S
C182 N180 1.325 . S
C182 C183 1.416 . S
C182 H188 0.929 . S
C183 C181 1.366 . S
C183 C182 1.416 . S
C183 H185 0.930 . S
H184 C173 0.930 . S
H185 C183 0.930 . S
H186 C201 0.930 . S
H187 C208 0.930 . S
H188 C182 0.929 . S
H189 C181 0.930 . S
H190 C204 0.929 . S
H191 C171 0.931 . S
H192 C177 0.931 . S
H193 C178 0.931 . S
H194 C199 0.931 . S
H195 C174 0.929 . S
H196 C207 0.930 . S
N197 Eu168 2.600 1_655 S
N197 C198 1.365 . S
N197 C201 1.319 . S
C198 N197 1.365 . S
C198 C200 1.405 . S
C198 C206 1.448 . S
C199 H194 0.931 . S
C199 C201 1.397 . S
C199 C202 1.367 . S
C200 C198 1.405 . S
C200 C202 1.403 . S
C200 C233 1.439 . S
C201 H186 0.930 . S
C201 N197 1.319 . S
C201 C199 1.397 . S
C202 C199 1.367 . S
C202 C200 1.403 . S
C202 H209 0.929 . S
N203 Eu168 2.562 . S
N203 C204 1.325 . S
N203 C206 1.351 1_455 S
C204 H190 0.929 . S
C204 N203 1.325 . S
C204 C208 1.416 . S
C205 C206 1.430 . S
C205 C207 1.404 1_655 S
C205 C234 1.387 . S
C206 C198 1.448 . S
C206 N203 1.351 1_655 S
C206 C205 1.430 . S
C207 H196 0.930 . S
C207 C205 1.404 1_455 S
C207 C208 1.366 . S
C208 H187 0.930 . S
C208 C204 1.416 . S
C208 C207 1.366 . S
H209 C202 0.929 . S
H210 C233 0.931 . S
H211 C234 0.931 . S
O212 Eu168 2.462 . S
O212 C232 1.252 . S
O213 Eu168 2.373 1_655 S
O213 C224 1.249 . S
O214 Eu179 2.335 . S
O214 C224 1.264 . S
O215 Eu168 2.432 . S
O215 C232 1.268 . S
O216 Eu168 2.291 . S
O216 C231 1.255 . S
O217 Eu179 2.372 1_455 S
O217 C231 1.257 . S
O218 Eu179 2.462 . S
O218 C243 1.252 . S
O219 Eu179 2.373 1_455 S
O219 C235 1.249 . S
O220 Eu168 2.335 . S
O220 C235 1.264 . S
O221 Eu179 2.432 . S
O221 C243 1.268 . S
O222 Eu179 2.291 . S
O222 C242 1.255 . S
O223 Eu168 2.372 1_655 S
O223 C242 1.257 . S
C224 O213 1.249 . S
C224 O214 1.264 . S
C225 C228 1.382 . S
C225 C230 1.390 . S
C225 C232 1.506 . S
C226 C227 1.398 . S
C226 C230 1.392 . S
C227 C226 1.398 . S
C227 C229 1.372 . S
C227 H244 0.931 . S
C228 C225 1.382 . S
C228 C229 1.390 . S
C228 H245 0.931 . S
C229 C227 1.372 . S
C229 C228 1.390 . S
C229 H246 0.929 . S
C230 C225 1.390 . S
C230 C226 1.392 . S
C230 H247 0.930 . S
C231 O216 1.255 . S
C231 O217 1.257 . S
C232 Eu168 2.787 . S
C232 O212 1.252 . S
C232 O215 1.268 . S
C232 C225 1.506 . S
C233 C200 1.439 . S
C233 H210 0.931 . S
C233 C234 1.374 . S
C234 C205 1.387 . S
C234 H211 0.931 . S
C234 C233 1.374 . S
C235 O219 1.249 . S
C235 O220 1.264 . S
C236 C239 1.382 . S
C236 C240 1.390 . S
C236 C243 1.506 . S
C237 C238 1.398 . S
C237 C240 1.392 . S
C238 C237 1.398 . S
C238 C241 1.372 . S
C238 H248 0.931 . S
C239 C236 1.382 . S
C239 C241 1.390 . S
C239 H249 0.931 . S
C240 C236 1.390 . S
C240 C237 1.392 . S
C240 H250 0.930 . S
C241 C238 1.372 . S
C241 C239 1.390 . S
C241 H251 0.929 . S
C242 O222 1.255 . S
C242 O223 1.257 . S
C243 Eu179 2.787 . S
C243 O218 1.252 . S
C243 O221 1.268 . S
C243 C236 1.506 . S
H244 C227 0.931 . S
H245 C228 0.931 . S
H246 C229 0.929 . S
H247 C230 0.930 . S
H248 C238 0.931 . S
H249 C239 0.931 . S
H250 C240 0.930 . S
H251 C241 0.929 . S
Eu252 N281 2.600 1_545 S
Eu252 N287 2.562 . S
Eu252 O296 2.462 . S
Eu252 O297 2.373 1_545 S
Eu252 O299 2.432 . S
Eu252 O300 2.291 . S
Eu252 O304 2.335 . S
Eu252 O307 2.372 1_545 S
Eu252 C316 2.787 . S
C253 N254 1.365 . S
C253 C256 1.405 . S
C253 C260 1.448 . S
N254 C253 1.365 . S
N254 C257 1.319 . S
N254 Eu263 2.600 1_545 S
C255 C257 1.397 . S
C255 C258 1.367 . S
C255 H275 0.931 . S
C256 C253 1.405 . S
C256 C258 1.403 . S
C256 C262 1.439 . S
C257 N254 1.319 . S
C257 C255 1.397 . S
C257 H268 0.930 . S
C258 C255 1.367 . S
C258 C256 1.403 . S
C258 H279 0.929 . S
C259 C260 1.430 . S
C259 C261 1.387 . S
C259 C265 1.404 1_545 S
C260 C253 1.448 . S
C260 C259 1.430 . S
C260 N264 1.351 1_545 S
C261 C259 1.387 . S
C261 C262 1.374 . S
C261 H276 0.931 . S
C262 C256 1.439 . S
C262 C261 1.374 . S
C262 H277 0.931 . S
Eu263 N254 2.600 1_565 S
Eu263 N264 2.562 . S
Eu263 O298 2.335 . S
Eu263 O301 2.372 1_565 S
Eu263 O302 2.462 . S
Eu263 O303 2.373 1_565 S
Eu263 O305 2.432 . S
Eu263 O306 2.291 . S
Eu263 C327 2.787 . S
N264 C260 1.351 1_565 S
N264 Eu263 2.562 . S
N264 C266 1.325 . S
C265 C259 1.404 1_565 S
C265 C267 1.366 . S
C265 H273 0.930 . S
C266 N264 1.325 . S
C266 C267 1.416 . S
C266 H272 0.929 . S
C267 C265 1.366 . S
C267 C266 1.416 . S
C267 H269 0.930 . S
H268 C257 0.930 . S
H269 C267 0.930 . S
H270 C285 0.930 . S
H271 C292 0.930 . S
H272 C266 0.929 . S
H273 C265 0.930 . S
H274 C288 0.929 . S
H275 C255 0.931 . S
H276 C261 0.931 . S
H277 C262 0.931 . S
H278 C283 0.931 . S
H279 C258 0.929 . S
H280 C291 0.930 . S
N281 Eu252 2.600 1_565 S
N281 C282 1.365 . S
N281 C285 1.319 . S
C282 N281 1.365 . S
C282 C284 1.405 . S
C282 C290 1.448 . S
C283 H278 0.931 . S
C283 C285 1.397 . S
C283 C286 1.367 . S
C284 C282 1.405 . S
C284 C286 1.403 . S
C284 C317 1.439 . S
C285 H270 0.930 . S
C285 N281 1.319 . S
C285 C283 1.397 . S
C286 C283 1.367 . S
C286 C284 1.403 . S
C286 H293 0.929 . S
N287 Eu252 2.562 . S
N287 C288 1.325 . S
N287 C290 1.351 1_545 S
C288 H274 0.929 . S
C288 N287 1.325 . S
C288 C292 1.416 . S
C289 C290 1.430 . S
C289 C291 1.404 1_565 S
C289 C318 1.387 . S
C290 C282 1.448 . S
C290 N287 1.351 1_565 S
C290 C289 1.430 . S
C291 H280 0.930 . S
C291 C289 1.404 1_545 S
C291 C292 1.366 . S
C292 H271 0.930 . S
C292 C288 1.416 . S
C292 C291 1.366 . S
H293 C286 0.929 . S
H294 C317 0.931 . S
H295 C318 0.931 . S
O296 Eu252 2.462 . S
O296 C316 1.252 . S
O297 Eu252 2.373 1_565 S
O297 C308 1.249 . S
O298 Eu263 2.335 . S
O298 C308 1.264 . S
O299 Eu252 2.432 . S
O299 C316 1.268 . S
O300 Eu252 2.291 . S
O300 C315 1.255 . S
O301 Eu263 2.372 1_545 S
O301 C315 1.257 . S
O302 Eu263 2.462 . S
O302 C327 1.252 . S
O303 Eu263 2.373 1_545 S
O303 C319 1.249 . S
O304 Eu252 2.335 . S
O304 C319 1.264 . S
O305 Eu263 2.432 . S
O305 C327 1.268 . S
O306 Eu263 2.291 . S
O306 C326 1.255 . S
O307 Eu252 2.372 1_565 S
O307 C326 1.257 . S
C308 O297 1.249 . S
C308 O298 1.264 . S
C309 C312 1.382 . S
C309 C314 1.390 . S
C309 C316 1.506 . S
C310 C311 1.398 . S
C310 C314 1.392 . S
C311 C310 1.398 . S
C311 C313 1.372 . S
C311 H328 0.931 . S
C312 C309 1.382 . S
C312 C313 1.390 . S
C312 H329 0.931 . S
C313 C311 1.372 . S
C313 C312 1.390 . S
C313 H330 0.929 . S
C314 C309 1.390 . S
C314 C310 1.392 . S
C314 H331 0.930 . S
C315 O300 1.255 . S
C315 O301 1.257 . S
C316 Eu252 2.787 . S
C316 O296 1.252 . S
C316 O299 1.268 . S
C316 C309 1.506 . S
C317 C284 1.439 . S
C317 H294 0.931 . S
C317 C318 1.374 . S
C318 C289 1.387 . S
C318 H295 0.931 . S
C318 C317 1.374 . S
C319 O303 1.249 . S
C319 O304 1.264 . S
C320 C323 1.382 . S
C320 C324 1.390 . S
C320 C327 1.506 . S
C321 C322 1.398 . S
C321 C324 1.392 . S
C322 C321 1.398 . S
C322 C325 1.372 . S
C322 H332 0.931 . S
C323 C320 1.382 . S
C323 C325 1.390 . S
C323 H333 0.931 . S
C324 C320 1.390 . S
C324 C321 1.392 . S
C324 H334 0.930 . S
C325 C322 1.372 . S
C325 C323 1.390 . S
C325 H335 0.929 . S
C326 O306 1.255 . S
C326 O307 1.257 . S
C327 Eu263 2.787 . S
C327 O302 1.252 . S
C327 O305 1.268 . S
C327 C320 1.506 . S
H328 C311 0.931 . S
H329 C312 0.931 . S
H330 C313 0.929 . S
H331 C314 0.930 . S
H332 C322 0.931 . S
H333 C323 0.931 . S
H334 C324 0.930 . S
H335 C325 0.929 . S
Eu336 N365 2.600 1_554 S
Eu336 N371 2.562 . S
Eu336 O380 2.481 . S
Eu336 O381 2.373 . S
Eu336 O383 2.432 1_554 S
Eu336 O384 2.291 . S
Eu336 O388 2.335 . S
Eu336 O391 2.352 1_554 S
Eu336 C400 2.787 1_554 S
C337 N338 1.365 . S
C337 C340 1.405 . S
C337 C344 1.448 . S
N338 C337 1.365 . S
N338 C341 1.319 . S
N338 Eu347 2.600 . S
C339 C341 1.397 . S
C339 C342 1.367 . S
C339 H359 0.931 . S
C340 C337 1.405 . S
C340 C342 1.403 . S
C340 C346 1.439 . S
C341 N338 1.319 . S
C341 C339 1.397 . S
C341 H352 0.930 . S
C342 C339 1.367 . S
C342 C340 1.403 . S
C342 H363 0.929 . S
C343 C344 1.430 . S
C343 C345 1.387 . S
C343 C349 1.404 . S
C344 C337 1.448 . S
C344 C343 1.430 . S
C344 N348 1.351 . S
C345 C343 1.387 . S
C345 C346 1.374 . S
C345 H360 0.931 . S
C346 C340 1.439 . S
C346 C345 1.374 . S
C346 H361 0.931 . S
Eu347 N338 2.600 . S
Eu347 N348 2.562 . S
Eu347 O382 2.335 . S
Eu347 O385 2.372 . S
Eu347 O386 2.462 . S
Eu347 O387 2.373 . S
Eu347 O389 2.432 . S
Eu347 O390 2.291 . S
Eu347 C411 2.787 . S
N348 C344 1.351 . S
N348 Eu347 2.562 . S
N348 C350 1.325 . S
C349 C343 1.404 . S
C349 C351 1.366 . S
C349 H357 0.930 . S
C350 N348 1.325 . S
C350 C351 1.416 . S
C350 H356 0.929 . S
C351 C349 1.366 . S
C351 C350 1.416 . S
C351 H353 0.930 . S
H352 C341 0.930 . S
H353 C351 0.930 . S
H354 C369 0.930 . S
H355 C376 0.930 . S
H356 C350 0.929 . S
H357 C349 0.930 . S
H358 C372 0.929 . S
H359 C339 0.931 . S
H360 C345 0.931 . S
H361 C346 0.931 . S
H362 C367 0.931 . S
H363 C342 0.929 . S
H364 C375 0.930 . S
N365 Eu336 2.600 1_556 S
N365 C366 1.365 1_556 S
N365 C369 1.319 . S
C366 N365 1.365 1_554 S
C366 C368 1.420 . S
C366 C374 1.448 . S
C367 H362 0.931 . S
C367 C369 1.397 . S
C367 C370 1.367 . S
C368 C366 1.420 . S
C368 C370 1.365 1_554 S
C368 C401 1.465 . S
C369 H354 0.930 . S
C369 N365 1.319 . S
C369 C367 1.397 . S
C370 C367 1.367 . S
C370 C368 1.365 1_556 S
C370 H377 0.929 . S
N371 Eu336 2.562 . S
N371 C372 1.325 . S
N371 C374 1.351 . S
C372 H358 0.929 . S
C372 N371 1.325 . S
C372 C376 1.416 . S
C373 C374 1.430 . S
C373 C375 1.404 . S
C373 C402 1.387 . S
C374 C366 1.448 . S
C374 N371 1.351 . S
C374 C373 1.430 . S
C375 H364 0.930 . S
C375 C373 1.404 . S
C375 C376 1.366 . S
C376 H355 0.930 . S
C376 C372 1.416 . S
C376 C375 1.366 . S
H377 C370 0.929 . S
H378 C401 0.931 . S
H379 C402 0.931 . S
O380 Eu336 2.481 . S
O380 C400 1.191 1_554 S
O381 Eu336 2.373 . S
O381 C392 1.249 . S
O382 Eu347 2.335 . S
O382 C392 1.264 . S
O383 Eu336 2.432 1_556 S
O383 C400 1.268 . S
O384 Eu336 2.291 . S
O384 C399 1.255 . S
O385 Eu347 2.372 . S
O385 C399 1.257 . S
O386 Eu347 2.462 . S
O386 C411 1.252 . S
O387 Eu347 2.373 . S
O387 C403 1.249 . S
O388 Eu336 2.335 . S
O388 C403 1.264 . S
O389 Eu347 2.432 . S
O389 C411 1.268 . S
O390 Eu347 2.291 . S
O390 C410 1.255 . S
O391 Eu336 2.352 1_556 S
O391 C410 1.228 1_556 S
C392 O381 1.249 . S
C392 O382 1.264 . S
C393 C396 1.382 . S
C393 C398 1.390 . S
C393 C400 1.506 . S
C394 C395 1.398 . S
C394 C398 1.392 . S
C395 C394 1.398 . S
C395 C397 1.372 . S
C395 H412 0.931 . S
C396 C393 1.382 . S
C396 C397 1.390 . S
C396 H413 0.931 . S
C397 C395 1.372 . S
C397 C396 1.390 . S
C397 H414 0.929 . S
C398 C393 1.390 . S
C398 C394 1.392 . S
C398 H415 0.930 . S
C399 O384 1.255 . S
C399 O385 1.257 . S
C400 Eu336 2.787 1_556 S
C400 O380 1.191 1_556 S
C400 O383 1.268 . S
C400 C393 1.506 . S
C401 C368 1.465 . S
C401 H378 0.931 . S
C401 C402 1.374 . S
C402 C373 1.387 . S
C402 H379 0.931 . S
C402 C401 1.374 . S
C403 O387 1.249 . S
C403 O388 1.264 . S
C404 C407 1.382 . S
C404 C408 1.390 . S
C404 C411 1.506 . S
C405 C406 1.398 . S
C405 C408 1.392 . S
C406 C405 1.398 . S
C406 C409 1.372 . S
C406 H416 0.931 . S
C407 C404 1.382 . S
C407 C409 1.390 . S
C407 H417 0.931 . S
C408 C404 1.390 . S
C408 C405 1.392 . S
C408 H418 0.930 . S
C409 C406 1.372 . S
C409 C407 1.390 . S
C409 H419 0.929 . S
C410 O390 1.255 . S
C410 O391 1.228 1_554 S
C411 Eu347 2.787 . S
C411 O386 1.252 . S
C411 O389 1.268 . S
C411 C404 1.506 . S
H412 C395 0.931 . S
H413 C396 0.931 . S
H414 C397 0.929 . S
H415 C398 0.930 . S
H416 C406 0.931 . S
H417 C407 0.931 . S
H418 C408 0.930 . S
H419 C409 0.929 . S
Eu420 N449 2.600 1_655 S
Eu420 N455 2.562 . S
Eu420 O464 2.462 . S
Eu420 O465 2.373 1_655 S
Eu420 O467 2.432 . S
Eu420 O468 2.291 . S
Eu420 O472 2.335 . S
Eu420 O475 2.372 1_655 S
Eu420 C484 2.787 . S
C421 N422 1.365 . S
C421 C424 1.405 . S
C421 C428 1.448 . S
N422 C421 1.365 . S
N422 C425 1.319 . S
N422 Eu431 2.600 1_655 S
C423 C425 1.397 . S
C423 C426 1.367 . S
C423 H443 0.931 . S
C424 C421 1.405 . S
C424 C426 1.403 . S
C424 C430 1.439 . S
C425 N422 1.319 . S
C425 C423 1.397 . S
C425 H436 0.930 . S
C426 C423 1.367 . S
C426 C424 1.403 . S
C426 H447 0.929 . S
C427 C428 1.430 . S
C427 C429 1.387 . S
C427 C433 1.404 1_655 S
C428 C421 1.448 . S
C428 C427 1.430 . S
C428 N432 1.351 1_655 S
C429 C427 1.387 . S
C429 C430 1.374 . S
C429 H444 0.931 . S
C430 C424 1.439 . S
C430 C429 1.374 . S
C430 H445 0.931 . S
Eu431 N422 2.600 1_455 S
Eu431 N432 2.562 . S
Eu431 O466 2.335 . S
Eu431 O469 2.372 1_455 S
Eu431 O470 2.462 . S
Eu431 O471 2.373 1_455 S
Eu431 O473 2.432 . S
Eu431 O474 2.291 . S
Eu431 C495 2.787 . S
N432 C428 1.351 1_455 S
N432 Eu431 2.562 . S
N432 C434 1.325 . S
C433 C427 1.404 1_455 S
C433 C435 1.366 . S
C433 H441 0.930 . S
C434 N432 1.325 . S
C434 C435 1.416 . S
C434 H440 0.929 . S
C435 C433 1.366 . S
C435 C434 1.416 . S
C435 H437 0.930 . S
H436 C425 0.930 . S
H437 C435 0.930 . S
H438 C453 0.930 . S
H439 C460 0.930 . S
H440 C434 0.929 . S
H441 C433 0.930 . S
H442 C456 0.929 . S
H443 C423 0.931 . S
H444 C429 0.931 . S
H445 C430 0.931 . S
H446 C451 0.931 . S
H447 C426 0.929 . S
H448 C459 0.930 . S
N449 Eu420 2.600 1_455 S
N449 C450 1.365 . S
N449 C453 1.319 . S
C450 N449 1.365 . S
C450 C452 1.405 . S
C450 C458 1.448 . S
C451 H446 0.931 . S
C451 C453 1.397 . S
C451 C454 1.367 . S
C452 C450 1.405 . S
C452 C454 1.403 . S
C452 C485 1.439 . S
C453 H438 0.930 . S
C453 N449 1.319 . S
C453 C451 1.397 . S
C454 C451 1.367 . S
C454 C452 1.403 . S
C454 H461 0.929 . S
N455 Eu420 2.562 . S
N455 C456 1.325 . S
N455 C458 1.351 1_655 S
C456 H442 0.929 . S
C456 N455 1.325 . S
C456 C460 1.416 . S
C457 C458 1.430 . S
C457 C459 1.404 1_455 S
C457 C486 1.387 . S
C458 C450 1.448 . S
C458 N455 1.351 1_455 S
C458 C457 1.430 . S
C459 H448 0.930 . S
C459 C457 1.404 1_655 S
C459 C460 1.366 . S
C460 H439 0.930 . S
C460 C456 1.416 . S
C460 C459 1.366 . S
H461 C454 0.929 . S
H462 C485 0.931 . S
H463 C486 0.931 . S
O464 Eu420 2.462 . S
O464 C484 1.252 . S
O465 Eu420 2.373 1_455 S
O465 C476 1.249 . S
O466 Eu431 2.335 . S
O466 C476 1.264 . S
O467 Eu420 2.432 . S
O467 C484 1.268 . S
O468 Eu420 2.291 . S
O468 C483 1.255 . S
O469 Eu431 2.372 1_655 S
O469 C483 1.257 . S
O470 Eu431 2.462 . S
O470 C495 1.252 . S
O471 Eu431 2.373 1_655 S
O471 C487 1.249 . S
O472 Eu420 2.335 . S
O472 C487 1.264 . S
O473 Eu431 2.432 . S
O473 C495 1.268 . S
O474 Eu431 2.291 . S
O474 C494 1.255 . S
O475 Eu420 2.372 1_455 S
O475 C494 1.257 . S
C476 O465 1.249 . S
C476 O466 1.264 . S
C477 C480 1.382 . S
C477 C482 1.390 . S
C477 C484 1.506 . S
C478 C479 1.398 . S
C478 C482 1.392 . S
C479 C478 1.398 . S
C479 C481 1.372 . S
C479 H496 0.931 . S
C480 C477 1.382 . S
C480 C481 1.390 . S
C480 H497 0.931 . S
C481 C479 1.372 . S
C481 C480 1.390 . S
C481 H498 0.929 . S
C482 C477 1.390 . S
C482 C478 1.392 . S
C482 H499 0.930 . S
C483 O468 1.255 . S
C483 O469 1.257 . S
C484 Eu420 2.787 . S
C484 O464 1.252 . S
C484 O467 1.268 . S
C484 C477 1.506 . S
C485 C452 1.439 . S
C485 H462 0.931 . S
C485 C486 1.374 . S
C486 C457 1.387 . S
C486 H463 0.931 . S
C486 C485 1.374 . S
C487 O471 1.249 . S
C487 O472 1.264 . S
C488 C491 1.382 . S
C488 C492 1.390 . S
C488 C495 1.506 . S
C489 C490 1.398 . S
C489 C492 1.392 . S
C490 C489 1.398 . S
C490 C493 1.372 . S
C490 H500 0.931 . S
C491 C488 1.382 . S
C491 C493 1.390 . S
C491 H501 0.931 . S
C492 C488 1.390 . S
C492 C489 1.392 . S
C492 H502 0.930 . S
C493 C490 1.372 . S
C493 C491 1.390 . S
C493 H503 0.929 . S
C494 O474 1.255 . S
C494 O475 1.257 . S
C495 Eu431 2.787 . S
C495 O470 1.252 . S
C495 O473 1.268 . S
C495 C488 1.506 . S
H496 C479 0.931 . S
H497 C480 0.931 . S
H498 C481 0.929 . S
H499 C482 0.930 . S
H500 C490 0.931 . S
H501 C491 0.931 . S
H502 C492 0.930 . S
H503 C493 0.929 . S
Eu504 N533 2.600 1_455 S
Eu504 N539 2.562 . S
Eu504 O548 2.462 . S
Eu504 O549 2.373 1_455 S
Eu504 O551 2.432 . S
Eu504 O552 2.291 . S
Eu504 O556 2.335 . S
Eu504 O559 2.372 1_455 S
Eu504 C568 2.787 . S
C505 N506 1.365 . S
C505 C508 1.405 . S
C505 C512 1.448 . S
N506 C505 1.365 . S
N506 C509 1.319 . S
N506 Eu515 2.600 1_455 S
C507 C509 1.397 . S
C507 C510 1.367 . S
C507 H527 0.931 . S
C508 C505 1.405 . S
C508 C510 1.403 . S
C508 C514 1.439 . S
C509 N506 1.319 . S
C509 C507 1.397 . S
C509 H520 0.930 . S
C510 C507 1.367 . S
C510 C508 1.403 . S
C510 H531 0.929 . S
C511 C512 1.430 . S
C511 C513 1.387 . S
C511 C517 1.404 1_455 S
C512 C505 1.448 . S
C512 C511 1.430 . S
C512 N516 1.351 1_455 S
C513 C511 1.387 . S
C513 C514 1.374 . S
C513 H528 0.931 . S
C514 C508 1.439 . S
C514 C513 1.374 . S
C514 H529 0.931 . S
Eu515 N506 2.600 1_655 S
Eu515 N516 2.562 . S
Eu515 O550 2.335 . S
Eu515 O553 2.372 1_655 S
Eu515 O554 2.462 . S
Eu515 O555 2.373 1_655 S
Eu515 O557 2.432 . S
Eu515 O558 2.291 . S
Eu515 C579 2.787 . S
N516 C512 1.351 1_655 S
N516 Eu515 2.562 . S
N516 C518 1.325 . S
C517 C511 1.404 1_655 S
C517 C519 1.366 . S
C517 H525 0.930 . S
C518 N516 1.325 . S
C518 C519 1.416 . S
C518 H524 0.929 . S
C519 C517 1.366 . S
C519 C518 1.416 . S
C519 H521 0.930 . S
H520 C509 0.930 . S
H521 C519 0.930 . S
H522 C537 0.930 . S
H523 C544 0.930 . S
H524 C518 0.929 . S
H525 C517 0.930 . S
H526 C540 0.929 . S
H527 C507 0.931 . S
H528 C513 0.931 . S
H529 C514 0.931 . S
H530 C535 0.931 . S
H531 C510 0.929 . S
H532 C543 0.930 . S
N533 Eu504 2.600 1_655 S
N533 C534 1.365 . S
N533 C537 1.319 . S
C534 N533 1.365 . S
C534 C536 1.405 . S
C534 C542 1.448 . S
C535 H530 0.931 . S
C535 C537 1.397 . S
C535 C538 1.367 . S
C536 C534 1.405 . S
C536 C538 1.403 . S
C536 C569 1.439 . S
C537 H522 0.930 . S
C537 N533 1.319 . S
C537 C535 1.397 . S
C538 C535 1.367 . S
C538 C536 1.403 . S
C538 H545 0.929 . S
N539 Eu504 2.562 . S
N539 C540 1.325 . S
N539 C542 1.351 1_455 S
C540 H526 0.929 . S
C540 N539 1.325 . S
C540 C544 1.416 . S
C541 C542 1.430 . S
C541 C543 1.404 1_655 S
C541 C570 1.387 . S
C542 C534 1.448 . S
C542 N539 1.351 1_655 S
C542 C541 1.430 . S
C543 H532 0.930 . S
C543 C541 1.404 1_455 S
C543 C544 1.366 . S
C544 H523 0.930 . S
C544 C540 1.416 . S
C544 C543 1.366 . S
H545 C538 0.929 . S
H546 C569 0.931 . S
H547 C570 0.931 . S
O548 Eu504 2.462 . S
O548 C568 1.252 . S
O549 Eu504 2.373 1_655 S
O549 C560 1.249 . S
O550 Eu515 2.335 . S
O550 C560 1.264 . S
O551 Eu504 2.432 . S
O551 C568 1.268 . S
O552 Eu504 2.291 . S
O552 C567 1.255 . S
O553 Eu515 2.372 1_455 S
O553 C567 1.257 . S
O554 Eu515 2.462 . S
O554 C579 1.252 . S
O555 Eu515 2.373 1_455 S
O555 C571 1.249 . S
O556 Eu504 2.335 . S
O556 C571 1.264 . S
O557 Eu515 2.432 . S
O557 C579 1.268 . S
O558 Eu515 2.291 . S
O558 C578 1.255 . S
O559 Eu504 2.372 1_655 S
O559 C578 1.257 . S
C560 O549 1.249 . S
C560 O550 1.264 . S
C561 C564 1.382 . S
C561 C566 1.390 . S
C561 C568 1.506 . S
C562 C563 1.398 . S
C562 C566 1.392 . S
C563 C562 1.398 . S
C563 C565 1.372 . S
C563 H580 0.931 . S
C564 C561 1.382 . S
C564 C565 1.390 . S
C564 H581 0.931 . S
C565 C563 1.372 . S
C565 C564 1.390 . S
C565 H582 0.929 . S
C566 C561 1.390 . S
C566 C562 1.392 . S
C566 H583 0.930 . S
C567 O552 1.255 . S
C567 O553 1.257 . S
C568 Eu504 2.787 . S
C568 O548 1.252 . S
C568 O551 1.268 . S
C568 C561 1.506 . S
C569 C536 1.439 . S
C569 H546 0.931 . S
C569 C570 1.374 . S
C570 C541 1.387 . S
C570 H547 0.931 . S
C570 C569 1.374 . S
C571 O555 1.249 . S
C571 O556 1.264 . S
C572 C575 1.382 . S
C572 C576 1.390 . S
C572 C579 1.506 . S
C573 C574 1.398 . S
C573 C576 1.392 . S
C574 C573 1.398 . S
C574 C577 1.372 . S
C574 H584 0.931 . S
C575 C572 1.382 . S
C575 C577 1.390 . S
C575 H585 0.931 . S
C576 C572 1.390 . S
C576 C573 1.392 . S
C576 H586 0.930 . S
C577 C574 1.372 . S
C577 C575 1.390 . S
C577 H587 0.929 . S
C578 O558 1.255 . S
C578 O559 1.257 . S
C579 Eu515 2.787 . S
C579 O554 1.252 . S
C579 O557 1.268 . S
C579 C572 1.506 . S
H580 C563 0.931 . S
H581 C564 0.931 . S
H582 C565 0.929 . S
H583 C566 0.930 . S
H584 C574 0.931 . S
H585 C575 0.931 . S
H586 C576 0.930 . S
H587 C577 0.929 . S
Eu588 N617 2.600 1_545 S
Eu588 N623 2.562 . S
Eu588 O632 2.462 . S
Eu588 O633 2.373 1_545 S
Eu588 O635 2.432 . S
Eu588 O636 2.291 . S
Eu588 O640 2.335 . S
Eu588 O643 2.372 1_545 S
Eu588 C652 2.787 . S
C589 N590 1.365 . S
C589 C592 1.405 . S
C589 C596 1.448 . S
N590 C589 1.365 . S
N590 C593 1.319 . S
N590 Eu599 2.600 1_545 S
C591 C593 1.397 . S
C591 C594 1.367 . S
C591 H611 0.931 . S
C592 C589 1.405 . S
C592 C594 1.403 . S
C592 C598 1.439 . S
C593 N590 1.319 . S
C593 C591 1.397 . S
C593 H604 0.930 . S
C594 C591 1.367 . S
C594 C592 1.403 . S
C594 H615 0.929 . S
C595 C596 1.430 . S
C595 C597 1.387 . S
C595 C601 1.404 1_545 S
C596 C589 1.448 . S
C596 C595 1.430 . S
C596 N600 1.351 1_545 S
C597 C595 1.387 . S
C597 C598 1.374 . S
C597 H612 0.931 . S
C598 C592 1.439 . S
C598 C597 1.374 . S
C598 H613 0.931 . S
Eu599 N590 2.600 1_565 S
Eu599 N600 2.562 . S
Eu599 O634 2.335 . S
Eu599 O637 2.372 1_565 S
Eu599 O638 2.462 . S
Eu599 O639 2.373 1_565 S
Eu599 O641 2.432 . S
Eu599 O642 2.291 . S
Eu599 C663 2.787 . S
N600 C596 1.351 1_565 S
N600 Eu599 2.562 . S
N600 C602 1.325 . S
C601 C595 1.404 1_565 S
C601 C603 1.366 . S
C601 H609 0.930 . S
C602 N600 1.325 . S
C602 C603 1.416 . S
C602 H608 0.929 . S
C603 C601 1.366 . S
C603 C602 1.416 . S
C603 H605 0.930 . S
H604 C593 0.930 . S
H605 C603 0.930 . S
H606 C621 0.930 . S
H607 C628 0.930 . S
H608 C602 0.929 . S
H609 C601 0.930 . S
H610 C624 0.929 . S
H611 C591 0.931 . S
H612 C597 0.931 . S
H613 C598 0.931 . S
H614 C619 0.931 . S
H615 C594 0.929 . S
H616 C627 0.930 . S
N617 Eu588 2.600 1_565 S
N617 C618 1.365 . S
N617 C621 1.319 . S
C618 N617 1.365 . S
C618 C620 1.405 . S
C618 C626 1.448 . S
C619 H614 0.931 . S
C619 C621 1.397 . S
C619 C622 1.367 . S
C620 C618 1.405 . S
C620 C622 1.403 . S
C620 C653 1.439 . S
C621 H606 0.930 . S
C621 N617 1.319 . S
C621 C619 1.397 . S
C622 C619 1.367 . S
C622 C620 1.403 . S
C622 H629 0.929 . S
N623 Eu588 2.562 . S
N623 C624 1.325 . S
N623 C626 1.351 1_545 S
C624 H610 0.929 . S
C624 N623 1.325 . S
C624 C628 1.416 . S
C625 C626 1.430 . S
C625 C627 1.404 1_565 S
C625 C654 1.387 . S
C626 C618 1.448 . S
C626 N623 1.351 1_565 S
C626 C625 1.430 . S
C627 H616 0.930 . S
C627 C625 1.404 1_545 S
C627 C628 1.366 . S
C628 H607 0.930 . S
C628 C624 1.416 . S
C628 C627 1.366 . S
H629 C622 0.929 . S
H630 C653 0.931 . S
H631 C654 0.931 . S
O632 Eu588 2.462 . S
O632 C652 1.252 . S
O633 Eu588 2.373 1_565 S
O633 C644 1.249 . S
O634 Eu599 2.335 . S
O634 C644 1.264 . S
O635 Eu588 2.432 . S
O635 C652 1.268 . S
O636 Eu588 2.291 . S
O636 C651 1.255 . S
O637 Eu599 2.372 1_545 S
O637 C651 1.257 . S
O638 Eu599 2.462 . S
O638 C663 1.252 . S
O639 Eu599 2.373 1_545 S
O639 C655 1.249 . S
O640 Eu588 2.335 . S
O640 C655 1.264 . S
O641 Eu599 2.432 . S
O641 C663 1.268 . S
O642 Eu599 2.291 . S
O642 C662 1.255 . S
O643 Eu588 2.372 1_565 S
O643 C662 1.257 . S
C644 O633 1.249 . S
C644 O634 1.264 . S
C645 C648 1.382 . S
C645 C650 1.390 . S
C645 C652 1.506 . S
C646 C647 1.398 . S
C646 C650 1.392 . S
C647 C646 1.398 . S
C647 C649 1.372 . S
C647 H664 0.931 . S
C648 C645 1.382 . S
C648 C649 1.390 . S
C648 H665 0.931 . S
C649 C647 1.372 . S
C649 C648 1.390 . S
C649 H666 0.929 . S
C650 C645 1.390 . S
C650 C646 1.392 . S
C650 H667 0.930 . S
C651 O636 1.255 . S
C651 O637 1.257 . S
C652 Eu588 2.787 . S
C652 O632 1.252 . S
C652 O635 1.268 . S
C652 C645 1.506 . S
C653 C620 1.439 . S
C653 H630 0.931 . S
C653 C654 1.374 . S
C654 C625 1.387 . S
C654 H631 0.931 . S
C654 C653 1.374 . S
C655 O639 1.249 . S
C655 O640 1.264 . S
C656 C659 1.382 . S
C656 C660 1.390 . S
C656 C663 1.506 . S
C657 C658 1.398 . S
C657 C660 1.392 . S
C658 C657 1.398 . S
C658 C661 1.372 . S
C658 H668 0.931 . S
C659 C656 1.382 . S
C659 C661 1.390 . S
C659 H669 0.931 . S
C660 C656 1.390 . S
C660 C657 1.392 . S
C660 H670 0.930 . S
C661 C658 1.372 . S
C661 C659 1.390 . S
C661 H671 0.929 . S
C662 O642 1.255 . S
C662 O643 1.257 . S
C663 Eu599 2.787 . S
C663 O638 1.252 . S
C663 O641 1.268 . S
C663 C656 1.506 . S
H664 C647 0.931 . S
H665 C648 0.931 . S
H666 C649 0.929 . S
H667 C650 0.930 . S
H668 C658 0.931 . S
H669 C659 0.931 . S
H670 C660 0.930 . S
H671 C661 0.929 . S
Eu672 N701 2.600 . S
Eu672 N707 2.562 . S
Eu672 O716 2.462 . S
Eu672 O717 2.373 . S
Eu672 O719 2.432 . S
Eu672 O720 2.291 . S
Eu672 O724 2.335 . S
Eu672 O727 2.372 . S
Eu672 C736 2.787 . S
C673 N674 1.365 . S
C673 C676 1.405 . S
C673 C680 1.448 . S
N674 C673 1.365 . S
N674 C677 1.319 . S
N674 Eu683 2.600 . S
C675 C677 1.397 . S
C675 C678 1.367 . S
C675 H695 0.931 . S
C676 C673 1.405 . S
C676 C678 1.403 . S
C676 C682 1.439 . S
C677 N674 1.319 . S
C677 C675 1.397 . S
C677 H688 0.930 . S
C678 C675 1.367 . S
C678 C676 1.403 . S
C678 H699 0.929 . S
C679 C680 1.430 . S
C679 C681 1.387 . S
C679 C685 1.404 . S
C680 C673 1.448 . S
C680 C679 1.430 . S
C680 N684 1.351 . S
C681 C679 1.387 . S
C681 C682 1.374 . S
C681 H696 0.931 . S
C682 C676 1.439 . S
C682 C681 1.374 . S
C682 H697 0.931 . S
Eu683 N674 2.600 . S
Eu683 N684 2.562 . S
Eu683 O718 2.335 . S
Eu683 O721 2.372 . S
Eu683 O722 2.462 . S
Eu683 O723 2.373 . S
Eu683 O725 2.432 . S
Eu683 O726 2.291 . S
Eu683 C747 2.787 . S
N684 C680 1.351 . S
N684 Eu683 2.562 . S
N684 C686 1.325 . S
C685 C679 1.404 . S
C685 C687 1.366 . S
C685 H693 0.930 . S
C686 N684 1.325 . S
C686 C687 1.416 . S
C686 H692 0.929 . S
C687 C685 1.366 . S
C687 C686 1.416 . S
C687 H689 0.930 . S
H688 C677 0.930 . S
H689 C687 0.930 . S
H690 C705 0.930 . S
H691 C712 0.930 . S
H692 C686 0.929 . S
H693 C685 0.930 . S
H694 C708 0.929 . S
H695 C675 0.931 . S
H696 C681 0.931 . S
H697 C682 0.931 . S
H698 C703 0.931 . S
H699 C678 0.929 . S
H700 C711 0.930 . S
N701 Eu672 2.600 . S
N701 C702 1.365 . S
N701 C705 1.319 . S
C702 N701 1.365 . S
C702 C704 1.405 . S
C702 C710 1.448 . S
C703 H698 0.931 . S
C703 C705 1.397 . S
C703 C706 1.367 . S
C704 C702 1.405 . S
C704 C706 1.403 . S
C704 C737 1.439 . S
C705 H690 0.930 . S
C705 N701 1.319 . S
C705 C703 1.397 . S
C706 C703 1.367 . S
C706 C704 1.403 . S
C706 H713 0.929 . S
N707 Eu672 2.562 . S
N707 C708 1.325 . S
N707 C710 1.351 . S
C708 H694 0.929 . S
C708 N707 1.325 . S
C708 C712 1.416 . S
C709 C710 1.430 . S
C709 C711 1.404 . S
C709 C738 1.387 . S
C710 C702 1.448 . S
C710 N707 1.351 . S
C710 C709 1.430 . S
C711 H700 0.930 . S
C711 C709 1.404 . S
C711 C712 1.366 . S
C712 H691 0.930 . S
C712 C708 1.416 . S
C712 C711 1.366 . S
H713 C706 0.929 . S
H714 C737 0.931 . S
H715 C738 0.931 . S
O716 Eu672 2.462 . S
O716 C736 1.252 . S
O717 Eu672 2.373 . S
O717 C728 1.249 . S
O718 Eu683 2.335 . S
O718 C728 1.264 . S
O719 Eu672 2.432 . S
O719 C736 1.268 . S
O720 Eu672 2.291 . S
O720 C735 1.255 . S
O721 Eu683 2.372 . S
O721 C735 1.257 . S
O722 Eu683 2.462 . S
O722 C747 1.252 . S
O723 Eu683 2.373 . S
O723 C739 1.249 . S
O724 Eu672 2.335 . S
O724 C739 1.264 . S
O725 Eu683 2.432 . S
O725 C747 1.268 . S
O726 Eu683 2.291 . S
O726 C746 1.255 . S
O727 Eu672 2.372 . S
O727 C746 1.257 . S
C728 O717 1.249 . S
C728 O718 1.264 . S
C729 C732 1.382 . S
C729 C734 1.390 . S
C729 C736 1.506 . S
C730 C731 1.398 . S
C730 C734 1.392 . S
C731 C730 1.398 . S
C731 C733 1.372 . S
C731 H748 0.931 . S
C732 C729 1.382 . S
C732 C733 1.390 . S
C732 H749 0.931 . S
C733 C731 1.372 . S
C733 C732 1.390 . S
C733 H750 0.929 . S
C734 C729 1.390 . S
C734 C730 1.392 . S
C734 H751 0.930 . S
C735 O720 1.255 . S
C735 O721 1.257 . S
C736 Eu672 2.787 . S
C736 O716 1.252 . S
C736 O719 1.268 . S
C736 C729 1.506 . S
C737 C704 1.439 . S
C737 H714 0.931 . S
C737 C738 1.374 . S
C738 C709 1.387 . S
C738 H715 0.931 . S
C738 C737 1.374 . S
C739 O723 1.249 . S
C739 O724 1.264 . S
C740 C743 1.382 . S
C740 C744 1.390 . S
C740 C747 1.506 . S
C741 C742 1.398 . S
C741 C744 1.392 . S
C742 C741 1.398 . S
C742 C745 1.372 . S
C742 H752 0.931 . S
C743 C740 1.382 . S
C743 C745 1.390 . S
C743 H753 0.931 . S
C744 C740 1.390 . S
C744 C741 1.392 . S
C744 H754 0.930 . S
C745 C742 1.372 . S
C745 C743 1.390 . S
C745 H755 0.929 . S
C746 O726 1.255 . S
C746 O727 1.257 . S
C747 Eu683 2.787 . S
C747 O722 1.252 . S
C747 O725 1.268 . S
C747 C740 1.506 . S
H748 C731 0.931 . S
H749 C732 0.931 . S
H750 C733 0.929 . S
H751 C734 0.930 . S
H752 C742 0.931 . S
H753 C743 0.931 . S
H754 C744 0.930 . S
H755 C745 0.929 . S
Eu756 N785 2.600 1_656 S
Eu756 N791 2.562 . S
Eu756 O800 2.461 . S
Eu756 O801 2.373 1_655 S
Eu756 O803 2.432 1_556 S
Eu756 O804 2.291 . S
Eu756 O808 2.335 . S
Eu756 O811 2.372 1_656 S
Eu756 C820 2.787 1_556 S
C757 N758 1.365 . S
C757 C760 1.405 . S
C757 C764 1.448 . S
N758 C757 1.365 . S
N758 C761 1.319 . S
N758 Eu767 2.600 1_655 S
C759 C761 1.397 . S
C759 C762 1.367 . S
C759 H779 0.931 . S
C760 C757 1.405 . S
C760 C762 1.403 . S
C760 C766 1.439 . S
C761 N758 1.319 . S
C761 C759 1.397 . S
C761 H772 0.930 . S
C762 C759 1.367 . S
C762 C760 1.403 . S
C762 H783 0.929 . S
C763 C764 1.430 . S
C763 C765 1.387 . S
C763 C769 1.404 1_655 S
C764 C757 1.448 . S
C764 C763 1.430 . S
C764 N768 1.351 1_655 S
C765 C763 1.387 . S
C765 C766 1.374 . S
C765 H780 0.931 . S
C766 C760 1.439 . S
C766 C765 1.374 . S
C766 H781 0.931 . S
Eu767 N758 2.600 1_455 S
Eu767 N768 2.562 . S
Eu767 O802 2.335 . S
Eu767 O805 2.372 1_455 S
Eu767 O806 2.462 . S
Eu767 O807 2.373 1_455 S
Eu767 O809 2.432 . S
Eu767 O810 2.291 . S
Eu767 C831 2.787 . S
N768 C764 1.351 1_455 S
N768 Eu767 2.562 . S
N768 C770 1.325 . S
C769 C763 1.404 1_455 S
C769 C771 1.366 . S
C769 H777 0.930 . S
C770 N768 1.325 . S
C770 C771 1.416 . S
C770 H776 0.929 . S
C771 C769 1.366 . S
C771 C770 1.416 . S
C771 H773 0.930 . S
H772 C761 0.930 . S
H773 C771 0.930 . S
H774 C789 0.930 . S
H775 C796 0.930 . S
H776 C770 0.929 . S
H777 C769 0.930 . S
H778 C792 0.929 . S
H779 C759 0.931 . S
H780 C765 0.931 . S
H781 C766 0.931 . S
H782 C787 0.931 . S
H783 C762 0.929 . S
H784 C795 0.930 . S
N785 Eu756 2.600 1_454 S
N785 C786 1.365 1_554 S
N785 C789 1.319 . S
C786 N785 1.365 1_556 S
C786 C788 1.421 . S
C786 C794 1.448 . S
C787 H782 0.931 . S
C787 C789 1.397 . S
C787 C790 1.367 . S
C788 C786 1.421 . S
C788 C790 1.362 1_556 S
C788 C821 1.468 . S
C789 H774 0.930 . S
C789 N785 1.319 . S
C789 C787 1.397 . S
C790 C787 1.367 . S
C790 C788 1.362 1_554 S
C790 H797 0.929 . S
N791 Eu756 2.562 . S
N791 C792 1.325 . S
N791 C794 1.351 1_655 S
C792 H778 0.929 . S
C792 N791 1.325 . S
C792 C796 1.416 . S
C793 C794 1.430 . S
C793 C795 1.404 1_455 S
C793 C822 1.387 . S
C794 C786 1.448 . S
C794 N791 1.351 1_455 S
C794 C793 1.430 . S
C795 H784 0.930 . S
C795 C793 1.404 1_655 S
C795 C796 1.366 . S
C796 H775 0.930 . S
C796 C792 1.416 . S
C796 C795 1.366 . S
H797 C790 0.929 . S
H798 C821 0.931 . S
H799 C822 0.931 . S
O800 Eu756 2.461 . S
O800 C820 1.254 1_556 S
O801 Eu756 2.373 1_455 S
O801 C812 1.249 . S
O802 Eu767 2.335 . S
O802 C812 1.264 . S
O803 Eu756 2.432 1_554 S
O803 C820 1.268 . S
O804 Eu756 2.291 . S
O804 C819 1.255 . S
O805 Eu767 2.372 1_655 S
O805 C819 1.257 . S
O806 Eu767 2.462 . S
O806 C831 1.252 . S
O807 Eu767 2.373 1_655 S
O807 C823 1.249 . S
O808 Eu756 2.335 . S
O808 C823 1.264 . S
O809 Eu767 2.432 . S
O809 C831 1.268 . S
O810 Eu767 2.291 . S
O810 C830 1.255 . S
O811 Eu756 2.372 1_454 S
O811 C830 1.257 1_554 S
C812 O801 1.249 . S
C812 O802 1.264 . S
C813 C816 1.382 . S
C813 C818 1.390 . S
C813 C820 1.506 . S
C814 C815 1.398 . S
C814 C818 1.392 . S
C815 C814 1.398 . S
C815 C817 1.372 . S
C815 H832 0.931 . S
C816 C813 1.382 . S
C816 C817 1.390 . S
C816 H833 0.931 . S
C817 C815 1.372 . S
C817 C816 1.390 . S
C817 H834 0.929 . S
C818 C813 1.390 . S
C818 C814 1.392 . S
C818 H835 0.930 . S
C819 O804 1.255 . S
C819 O805 1.257 . S
C820 Eu756 2.787 1_554 S
C820 O800 1.254 1_554 S
C820 O803 1.268 . S
C820 C813 1.506 . S
C821 C788 1.468 . S
C821 H798 0.931 . S
C821 C822 1.374 . S
C822 C793 1.387 . S
C822 H799 0.931 . S
C822 C821 1.374 . S
C823 O807 1.249 . S
C823 O808 1.264 . S
C824 C827 1.382 . S
C824 C828 1.390 . S
C824 C831 1.506 . S
C825 C826 1.398 . S
C825 C828 1.392 . S
C826 C825 1.398 . S
C826 C829 1.372 . S
C826 H836 0.931 . S
C827 C824 1.382 . S
C827 C829 1.390 . S
C827 H837 0.931 . S
C828 C824 1.390 . S
C828 C825 1.392 . S
C828 H838 0.930 . S
C829 C826 1.372 . S
C829 C827 1.390 . S
C829 H839 0.929 . S
C830 O810 1.255 . S
C830 O811 1.257 1_556 S
C831 Eu767 2.787 . S
C831 O806 1.252 . S
C831 O809 1.268 . S
C831 C824 1.506 . S
H832 C815 0.931 . S
H833 C816 0.931 . S
H834 C817 0.929 . S
H835 C818 0.930 . S
H836 C826 0.931 . S
H837 C827 0.931 . S
H838 C828 0.930 . S
H839 C829 0.929 . S
Eu840 N869 2.600 1_565 S
Eu840 N875 2.562 . S
Eu840 O884 2.462 . S
Eu840 O885 2.373 1_565 S
Eu840 O887 2.432 . S
Eu840 O888 2.291 . S
Eu840 O892 2.335 . S
Eu840 O895 2.372 1_565 S
Eu840 C904 2.787 . S
C841 N842 1.365 . S
C841 C844 1.405 . S
C841 C848 1.448 . S
N842 C841 1.365 . S
N842 C845 1.319 . S
N842 Eu851 2.600 1_565 S
C843 C845 1.397 . S
C843 C846 1.367 . S
C843 H863 0.931 . S
C844 C841 1.405 . S
C844 C846 1.403 . S
C844 C850 1.439 . S
C845 N842 1.319 . S
C845 C843 1.397 . S
C845 H856 0.930 . S
C846 C843 1.367 . S
C846 C844 1.403 . S
C846 H867 0.929 . S
C847 C848 1.430 . S
C847 C849 1.387 . S
C847 C853 1.404 1_565 S
C848 C841 1.448 . S
C848 C847 1.430 . S
C848 N852 1.351 1_565 S
C849 C847 1.387 . S
C849 C850 1.374 . S
C849 H864 0.931 . S
C850 C844 1.439 . S
C850 C849 1.374 . S
C850 H865 0.931 . S
Eu851 N842 2.600 1_545 S
Eu851 N852 2.562 . S
Eu851 O886 2.335 . S
Eu851 O889 2.372 1_545 S
Eu851 O890 2.462 . S
Eu851 O891 2.373 1_545 S
Eu851 O893 2.432 . S
Eu851 O894 2.291 . S
Eu851 C915 2.787 . S
N852 C848 1.351 1_545 S
N852 Eu851 2.562 . S
N852 C854 1.325 . S
C853 C847 1.404 1_545 S
C853 C855 1.366 . S
C853 H861 0.930 . S
C854 N852 1.325 . S
C854 C855 1.416 . S
C854 H860 0.929 . S
C855 C853 1.366 . S
C855 C854 1.416 . S
C855 H857 0.930 . S
H856 C845 0.930 . S
H857 C855 0.930 . S
H858 C873 0.930 . S
H859 C880 0.930 . S
H860 C854 0.929 . S
H861 C853 0.930 . S
H862 C876 0.929 . S
H863 C843 0.931 . S
H864 C849 0.931 . S
H865 C850 0.931 . S
H866 C871 0.931 . S
H867 C846 0.929 . S
H868 C879 0.930 . S
N869 Eu840 2.600 1_545 S
N869 C870 1.365 . S
N869 C873 1.319 . S
C870 N869 1.365 . S
C870 C872 1.405 . S
C870 C878 1.448 . S
C871 H866 0.931 . S
C871 C873 1.397 . S
C871 C874 1.367 . S
C872 C870 1.405 . S
C872 C874 1.403 . S
C872 C905 1.439 . S
C873 H858 0.930 . S
C873 N869 1.319 . S
C873 C871 1.397 . S
C874 C871 1.367 . S
C874 C872 1.403 . S
C874 H881 0.929 . S
N875 Eu840 2.562 . S
N875 C876 1.325 . S
N875 C878 1.351 1_565 S
C876 H862 0.929 . S
C876 N875 1.325 . S
C876 C880 1.416 . S
C877 C878 1.430 . S
C877 C879 1.404 1_545 S
C877 C906 1.387 . S
C878 C870 1.448 . S
C878 N875 1.351 1_545 S
C878 C877 1.430 . S
C879 H868 0.930 . S
C879 C877 1.404 1_565 S
C879 C880 1.366 . S
C880 H859 0.930 . S
C880 C876 1.416 . S
C880 C879 1.366 . S
H881 C874 0.929 . S
H882 C905 0.931 . S
H883 C906 0.931 . S
O884 Eu840 2.462 . S
O884 C904 1.252 . S
O885 Eu840 2.373 1_545 S
O885 C896 1.249 . S
O886 Eu851 2.335 . S
O886 C896 1.264 . S
O887 Eu840 2.432 . S
O887 C904 1.268 . S
O888 Eu840 2.291 . S
O888 C903 1.255 . S
O889 Eu851 2.372 1_565 S
O889 C903 1.257 . S
O890 Eu851 2.462 . S
O890 C915 1.252 . S
O891 Eu851 2.373 1_565 S
O891 C907 1.249 . S
O892 Eu840 2.335 . S
O892 C907 1.264 . S
O893 Eu851 2.432 . S
O893 C915 1.268 . S
O894 Eu851 2.291 . S
O894 C914 1.255 . S
O895 Eu840 2.372 1_545 S
O895 C914 1.257 . S
C896 O885 1.249 . S
C896 O886 1.264 . S
C897 C900 1.382 . S
C897 C902 1.390 . S
C897 C904 1.506 . S
C898 C899 1.398 . S
C898 C902 1.392 . S
C899 C898 1.398 . S
C899 C901 1.372 . S
C899 H916 0.931 . S
C900 C897 1.382 . S
C900 C901 1.390 . S
C900 H917 0.931 . S
C901 C899 1.372 . S
C901 C900 1.390 . S
C901 H918 0.929 . S
C902 C897 1.390 . S
C902 C898 1.392 . S
C902 H919 0.930 . S
C903 O888 1.255 . S
C903 O889 1.257 . S
C904 Eu840 2.787 . S
C904 O884 1.252 . S
C904 O887 1.268 . S
C904 C897 1.506 . S
C905 C872 1.439 . S
C905 H882 0.931 . S
C905 C906 1.374 . S
C906 C877 1.387 . S
C906 H883 0.931 . S
C906 C905 1.374 . S
C907 O891 1.249 . S
C907 O892 1.264 . S
C908 C911 1.382 . S
C908 C912 1.390 . S
C908 C915 1.506 . S
C909 C910 1.398 . S
C909 C912 1.392 . S
C910 C909 1.398 . S
C910 C913 1.372 . S
C910 H920 0.931 . S
C911 C908 1.382 . S
C911 C913 1.390 . S
C911 H921 0.931 . S
C912 C908 1.390 . S
C912 C909 1.392 . S
C912 H922 0.930 . S
C913 C910 1.372 . S
C913 C911 1.390 . S
C913 H923 0.929 . S
C914 O894 1.255 . S
C914 O895 1.257 . S
C915 Eu851 2.787 . S
C915 O890 1.252 . S
C915 O893 1.268 . S
C915 C908 1.506 . S
H916 C899 0.931 . S
H917 C900 0.931 . S
H918 C901 0.929 . S
H919 C902 0.930 . S
H920 C910 0.931 . S
H921 C911 0.931 . S
H922 C912 0.930 . S
H923 C913 0.929 . S
Eu924 N953 2.600 . S
Eu924 N959 2.562 . S
Eu924 O968 2.462 . S
Eu924 O969 2.373 . S
Eu924 O971 2.432 . S
Eu924 O972 2.291 . S
Eu924 O976 2.335 . S
Eu924 O979 2.372 . S
Eu924 C988 2.787 . S
C925 N926 1.365 . S
C925 C928 1.405 . S
C925 C932 1.448 . S
N926 C925 1.365 . S
N926 C929 1.319 . S
N926 Eu935 2.600 . S
C927 C929 1.397 . S
C927 C930 1.367 . S
C927 H947 0.931 . S
C928 C925 1.405 . S
C928 C930 1.403 . S
C928 C934 1.439 . S
C929 N926 1.319 . S
C929 C927 1.397 . S
C929 H940 0.930 . S
C930 C927 1.367 . S
C930 C928 1.403 . S
C930 H951 0.929 . S
C931 C932 1.430 . S
C931 C933 1.387 . S
C931 C937 1.404 . S
C932 C925 1.448 . S
C932 C931 1.430 . S
C932 N936 1.351 . S
C933 C931 1.387 . S
C933 C934 1.374 . S
C933 H948 0.931 . S
C934 C928 1.439 . S
C934 C933 1.374 . S
C934 H949 0.931 . S
Eu935 N926 2.600 . S
Eu935 N936 2.562 . S
Eu935 O970 2.335 . S
Eu935 O973 2.372 . S
Eu935 O974 2.462 . S
Eu935 O975 2.373 . S
Eu935 O977 2.432 . S
Eu935 O978 2.291 . S
Eu935 C999 2.787 . S
N936 C932 1.351 . S
N936 Eu935 2.562 . S
N936 C938 1.325 . S
C937 C931 1.404 . S
C937 C939 1.366 . S
C937 H945 0.930 . S
C938 N936 1.325 . S
C938 C939 1.416 . S
C938 H944 0.929 . S
C939 C937 1.366 . S
C939 C938 1.416 . S
C939 H941 0.930 . S
H940 C929 0.930 . S
H941 C939 0.930 . S
H942 C957 0.930 . S
H943 C964 0.930 . S
H944 C938 0.929 . S
H945 C937 0.930 . S
H946 C960 0.929 . S
H947 C927 0.931 . S
H948 C933 0.931 . S
H949 C934 0.931 . S
H950 C955 0.931 . S
H951 C930 0.929 . S
H952 C963 0.930 . S
N953 Eu924 2.600 . S
N953 C954 1.365 . S
N953 C957 1.319 . S
C954 N953 1.365 . S
C954 C956 1.405 . S
C954 C962 1.448 . S
C955 H950 0.931 . S
C955 C957 1.397 . S
C955 C958 1.367 . S
C956 C954 1.405 . S
C956 C958 1.403 . S
C956 C989 1.439 . S
C957 H942 0.930 . S
C957 N953 1.319 . S
C957 C955 1.397 . S
C958 C955 1.367 . S
C958 C956 1.403 . S
C958 H965 0.929 . S
N959 Eu924 2.562 . S
N959 C960 1.325 . S
N959 C962 1.351 . S
C960 H946 0.929 . S
C960 N959 1.325 . S
C960 C964 1.416 . S
C961 C962 1.430 . S
C961 C963 1.404 . S
C961 C990 1.387 . S
C962 C954 1.448 . S
C962 N959 1.351 . S
C962 C961 1.430 . S
C963 H952 0.930 . S
C963 C961 1.404 . S
C963 C964 1.366 . S
C964 H943 0.930 . S
C964 C960 1.416 . S
C964 C963 1.366 . S
H965 C958 0.929 . S
H966 C989 0.931 . S
H967 C990 0.931 . S
O968 Eu924 2.462 . S
O968 C988 1.252 . S
O969 Eu924 2.373 . S
O969 C980 1.249 . S
O970 Eu935 2.335 . S
O970 C980 1.264 . S
O971 Eu924 2.432 . S
O971 C988 1.268 . S
O972 Eu924 2.291 . S
O972 C987 1.255 . S
O973 Eu935 2.372 . S
O973 C987 1.257 . S
O974 Eu935 2.462 . S
O974 C999 1.252 . S
O975 Eu935 2.373 . S
O975 C991 1.249 . S
O976 Eu924 2.335 . S
O976 C991 1.264 . S
O977 Eu935 2.432 . S
O977 C999 1.268 . S
O978 Eu935 2.291 . S
O978 C998 1.255 . S
O979 Eu924 2.372 . S
O979 C998 1.257 . S
C980 O969 1.249 . S
C980 O970 1.264 . S
C981 C984 1.382 . S
C981 C986 1.390 . S
C981 C988 1.506 . S
C982 C983 1.398 . S
C982 C986 1.392 . S
C983 C982 1.398 . S
C983 C985 1.372 . S
C983 H1000 0.931 . S
C984 C981 1.382 . S
C984 C985 1.390 . S
C984 H1001 0.931 . S
C985 C983 1.372 . S
C985 C984 1.390 . S
C985 H1002 0.929 . S
C986 C981 1.390 . S
C986 C982 1.392 . S
C986 H1003 0.930 . S
C987 O972 1.255 . S
C987 O973 1.257 . S
C988 Eu924 2.787 . S
C988 O968 1.252 . S
C988 O971 1.268 . S
C988 C981 1.506 . S
C989 C956 1.439 . S
C989 H966 0.931 . S
C989 C990 1.374 . S
C990 C961 1.387 . S
C990 H967 0.931 . S
C990 C989 1.374 . S
C991 O975 1.249 . S
C991 O976 1.264 . S
C992 C995 1.382 . S
C992 C996 1.390 . S
C992 C999 1.506 . S
C993 C994 1.398 . S
C993 C996 1.392 . S
C994 C993 1.398 . S
C994 C997 1.372 . S
C994 H1004 0.931 . S
C995 C992 1.382 . S
C995 C997 1.390 . S
C995 H1005 0.931 . S
C996 C992 1.390 . S
C996 C993 1.392 . S
C996 H1006 0.930 . S
C997 C994 1.372 . S
C997 C995 1.390 . S
C997 H1007 0.929 . S
C998 O978 1.255 . S
C998 O979 1.257 . S
C999 Eu935 2.787 . S
C999 O974 1.252 . S
C999 O977 1.268 . S
C999 C992 1.506 . S
H1000 C983 0.931 . S
H1001 C984 0.931 . S
H1002 C985 0.929 . S
H1003 C986 0.930 . S
H1004 C994 0.931 . S
H1005 C995 0.931 . S
H1006 C996 0.930 . S
H1007 C997 0.929 . S
C1008 C1009 1.369 . S
C1008 C1010 1.419 . S
C1008 H1012 0.930 . S
C1009 C1008 1.369 . S
C1009 C1018 1.429 . S
C1010 C1008 1.419 . S
C1010 C1011 1.363 . S
C1010 H1013 0.929 . S
C1011 C1010 1.363 . S
C1011 C1017 1.428 . S
H1012 C1008 0.930 . S
H1013 C1010 0.929 . S
S1014 N1015 1.613 . S
S1014 N1016 1.610 . S
N1015 S1014 1.613 . S
N1015 C1018 1.350 . S
N1016 S1014 1.610 . S
N1016 C1017 1.351 . S
C1017 C1011 1.428 . S
C1017 N1016 1.351 . S
C1017 C1018 1.434 . S
C1018 C1009 1.429 . S
C1018 N1015 1.350 . S
C1018 C1017 1.434 . S
C1019 C1020 1.369 . S
C1019 C1021 1.419 . S
C1019 H1023 0.930 1_545 S
C1020 C1019 1.369 . S
C1020 C1029 1.429 . S
C1021 C1019 1.419 . S
C1021 C1022 1.363 . S
C1021 H1024 0.929 . S
C1022 C1021 1.363 . S
C1022 C1028 1.428 . S
H1023 C1019 0.930 1_565 S
H1024 C1021 0.929 . S
S1025 N1026 1.613 . S
S1025 N1027 1.610 . S
N1026 S1025 1.613 . S
N1026 C1029 1.350 . S
N1027 S1025 1.610 . S
N1027 C1028 1.351 . S
C1028 C1022 1.428 . S
C1028 N1027 1.351 . S
C1028 C1029 1.434 . S
C1029 C1020 1.429 . S
C1029 N1026 1.350 . S
C1029 C1028 1.434 . S
C1030 C1031 1.369 . S
C1030 C1032 1.419 . S
C1030 H1034 0.930 . S
C1031 C1030 1.369 . S
C1031 C1040 1.429 . S
C1032 C1030 1.419 . S
C1032 C1033 1.363 . S
C1032 H1035 0.929 . S
C1033 C1032 1.363 . S
C1033 C1039 1.428 . S
H1034 C1030 0.930 . S
H1035 C1032 0.929 . S
S1036 N1037 1.613 . S
S1036 N1038 1.610 . S
N1037 S1036 1.613 . S
N1037 C1040 1.350 . S
N1038 S1036 1.610 . S
N1038 C1039 1.351 . S
C1039 C1033 1.428 . S
C1039 N1038 1.351 . S
C1039 C1040 1.434 . S
C1040 C1031 1.429 . S
C1040 N1037 1.350 . S
C1040 C1039 1.434 . S
C1041 C1042 1.369 . S
C1041 C1043 1.419 . S
C1041 H1045 0.930 . S
C1042 C1041 1.369 . S
C1042 C1051 1.429 . S
C1043 C1041 1.419 . S
C1043 C1044 1.363 . S
C1043 H1046 0.929 . S
C1044 C1043 1.363 . S
C1044 C1050 1.428 . S
H1045 C1041 0.930 . S
H1046 C1043 0.929 . S
S1047 N1048 1.613 . S
S1047 N1049 1.610 1_455 S
N1048 S1047 1.613 . S
N1048 C1051 1.350 1_455 S
N1049 S1047 1.610 1_655 S
N1049 C1050 1.351 . S
C1050 C1044 1.428 . S
C1050 N1049 1.351 . S
C1050 C1051 1.434 . S
C1051 C1042 1.429 . S
C1051 N1048 1.350 1_655 S
C1051 C1050 1.434 . S
C1052 C1053 1.369 . S
C1052 C1054 1.419 . S
C1052 H1056 0.930 . S
C1053 C1052 1.369 . S
C1053 C1062 1.429 . S
C1054 C1052 1.419 . S
C1054 C1055 1.363 . S
C1054 H1057 0.929 . S
C1055 C1054 1.363 . S
C1055 C1061 1.428 . S
H1056 C1052 0.930 . S
H1057 C1054 0.929 . S
S1058 N1059 1.613 . S
S1058 N1060 1.610 . S
N1059 S1058 1.613 . S
N1059 C1062 1.350 . S
N1060 S1058 1.610 . S
N1060 C1061 1.351 . S
C1061 C1055 1.428 . S
C1061 N1060 1.351 . S
C1061 C1062 1.434 . S
C1062 C1053 1.429 . S
C1062 N1059 1.350 . S
C1062 C1061 1.434 . S
C1063 C1064 1.369 . S
C1063 C1065 1.419 . S
C1063 H1067 0.930 . S
C1064 C1063 1.369 . S
C1064 C1073 1.429 . S
C1065 C1063 1.419 . S
C1065 C1066 1.363 . S
C1065 H1068 0.929 . S
C1066 C1065 1.363 . S
C1066 C1072 1.428 . S
H1067 C1063 0.930 . S
H1068 C1065 0.929 . S
S1069 N1070 1.613 . S
S1069 N1071 1.610 . S
N1070 S1069 1.613 . S
N1070 C1073 1.350 . S
N1071 S1069 1.610 . S
N1071 C1072 1.351 . S
C1072 C1066 1.428 . S
C1072 N1071 1.351 . S
C1072 C1073 1.434 . S
C1073 C1064 1.429 . S
C1073 N1070 1.350 . S
C1073 C1072 1.434 . S
C1074 C1075 1.369 . S
C1074 C1076 1.419 . S
C1074 H1078 0.930 . S
C1075 C1074 1.369 . S
C1075 C1084 1.429 . S
C1076 C1074 1.419 . S
C1076 C1077 1.363 . S
C1076 H1079 0.929 . S
C1077 C1076 1.363 . S
C1077 C1083 1.428 . S
H1078 C1074 0.930 . S
H1079 C1076 0.929 . S
S1080 N1081 1.613 . S
S1080 N1082 1.610 . S
N1081 S1080 1.613 . S
N1081 C1084 1.350 . S
N1082 S1080 1.610 . S
N1082 C1083 1.351 . S
C1083 C1077 1.428 . S
C1083 N1082 1.351 . S
C1083 C1084 1.434 . S
C1084 C1075 1.429 . S
C1084 N1081 1.350 . S
C1084 C1083 1.434 . S
C1085 C1086 1.369 . S
C1085 C1087 1.419 . S
C1085 H1089 0.930 . S
C1086 C1085 1.369 . S
C1086 C1095 1.429 . S
C1087 C1085 1.419 . S
C1087 C1088 1.363 . S
C1087 H1090 0.929 . S
C1088 C1087 1.363 . S
C1088 C1094 1.428 . S
H1089 C1085 0.930 . S
H1090 C1087 0.929 . S
S1091 N1092 1.613 . S
S1091 N1093 1.610 . S
N1092 S1091 1.613 . S
N1092 C1095 1.350 . S
N1093 S1091 1.610 . S
N1093 C1094 1.351 . S
C1094 C1088 1.428 . S
C1094 N1093 1.351 . S
C1094 C1095 1.434 . S
C1095 C1086 1.429 . S
C1095 N1092 1.350 . S
C1095 C1094 1.434 . S
C1096 C1097 1.369 . S
C1096 C1098 1.419 . S
C1096 H1100 0.930 1_455 S
C1097 C1096 1.369 . S
C1097 C1106 1.429 . S
C1098 C1096 1.419 . S
C1098 C1099 1.363 . S
C1098 H1101 0.929 1_455 S
C1099 C1098 1.363 . S
C1099 C1105 1.428 . S
H1100 C1096 0.930 1_655 S
H1101 C1098 0.929 1_655 S
S1102 N1103 1.613 . S
S1102 N1104 1.610 . S
N1103 S1102 1.613 . S
N1103 C1106 1.350 . S
N1104 S1102 1.610 . S
N1104 C1105 1.351 . S
C1105 C1099 1.428 . S
C1105 N1104 1.351 . S
C1105 C1106 1.434 . S
C1106 C1097 1.429 . S
C1106 N1103 1.350 . S
C1106 C1105 1.434 . S
C1107 C1108 1.369 . S
C1107 C1109 1.419 . S
C1107 H1111 0.930 . S
C1108 C1107 1.369 . S
C1108 C1117 1.429 . S
C1109 C1107 1.419 . S
C1109 C1110 1.363 . S
C1109 H1112 0.929 . S
C1110 C1109 1.363 . S
C1110 C1116 1.428 . S
H1111 C1107 0.930 . S
H1112 C1109 0.929 . S
S1113 N1114 1.613 . S
S1113 N1115 1.610 . S
N1114 S1113 1.613 . S
N1114 C1117 1.350 . S
N1115 S1113 1.610 . S
N1115 C1116 1.351 . S
C1116 C1110 1.428 . S
C1116 N1115 1.351 . S
C1116 C1117 1.434 . S
C1117 C1108 1.429 . S
C1117 N1114 1.350 . S
C1117 C1116 1.434 . S
C1118 C1119 1.369 . S
C1118 C1120 1.419 . S
C1118 H1122 0.930 . S
C1119 C1118 1.369 . S
C1119 C1128 1.429 . S
C1120 C1118 1.419 . S
C1120 C1121 1.363 . S
C1120 H1123 0.929 . S
C1121 C1120 1.363 . S
C1121 C1127 1.428 . S
H1122 C1118 0.930 . S
H1123 C1120 0.929 . S
S1124 N1125 1.613 . S
S1124 N1126 1.610 . S
N1125 S1124 1.613 . S
N1125 C1128 1.350 . S
N1126 S1124 1.610 . S
N1126 C1127 1.351 . S
C1127 C1121 1.428 . S
C1127 N1126 1.351 . S
C1127 C1128 1.434 . S
C1128 C1119 1.429 . S
C1128 N1125 1.350 . S
C1128 C1127 1.434 . S
C1129 C1130 1.369 . S
C1129 C1131 1.419 . S
C1129 H1133 0.930 . S
C1130 C1129 1.369 . S
C1130 C1139 1.429 . S
C1131 C1129 1.419 . S
C1131 C1132 1.363 . S
C1131 H1134 0.929 . S
C1132 C1131 1.363 . S
C1132 C1138 1.428 . S
H1133 C1129 0.930 . S
H1134 C1131 0.929 . S
S1135 N1136 1.613 . S
S1135 N1137 1.610 . S
N1136 S1135 1.613 . S
N1136 C1139 1.350 . S
N1137 S1135 1.610 . S
N1137 C1138 1.351 . S
C1138 C1132 1.428 . S
C1138 N1137 1.351 . S
C1138 C1139 1.434 . S
C1139 C1130 1.429 . S
C1139 N1136 1.350 . S
C1139 C1138 1.434 . S
C1140 C1141 1.369 . S
C1140 C1142 1.419 . S
C1140 H1144 0.930 . S
C1141 C1140 1.369 . S
C1141 C1150 1.429 . S
C1142 C1140 1.419 . S
C1142 C1143 1.363 . S
C1142 H1145 0.929 . S
C1143 C1142 1.363 . S
C1143 C1149 1.428 . S
H1144 C1140 0.930 . S
H1145 C1142 0.929 . S
S1146 N1147 1.613 . S
S1146 N1148 1.610 . S
N1147 S1146 1.613 . S
N1147 C1150 1.350 . S
N1148 S1146 1.610 . S
N1148 C1149 1.351 . S
C1149 C1143 1.428 . S
C1149 N1148 1.351 . S
C1149 C1150 1.434 . S
C1150 C1141 1.429 . S
C1150 N1147 1.350 . S
C1150 C1149 1.434 . S
C1151 C1152 1.369 . S
C1151 C1153 1.419 . S
C1151 H1155 0.930 . S
C1152 C1151 1.369 . S
C1152 C1161 1.429 . S
C1153 C1151 1.419 . S
C1153 C1154 1.363 . S
C1153 H1156 0.929 . S
C1154 C1153 1.363 . S
C1154 C1160 1.428 . S
H1155 C1151 0.930 . S
H1156 C1153 0.929 . S
S1157 N1158 1.613 . S
S1157 N1159 1.610 . S
N1158 S1157 1.613 . S
N1158 C1161 1.350 . S
N1159 S1157 1.610 . S
N1159 C1160 1.351 . S
C1160 C1154 1.428 . S
C1160 N1159 1.351 . S
C1160 C1161 1.434 . S
C1161 C1152 1.429 . S
C1161 N1158 1.350 . S
C1161 C1160 1.434 . S
C1162 C1163 1.369 . S
C1162 C1164 1.419 . S
C1162 H1166 0.930 . S
C1163 C1162 1.369 . S
C1163 C1172 1.429 . S
C1164 C1162 1.419 . S
C1164 C1165 1.363 . S
C1164 H1167 0.929 . S
C1165 C1164 1.363 . S
C1165 C1171 1.428 . S
H1166 C1162 0.930 . S
H1167 C1164 0.929 . S
S1168 N1169 1.613 . S
S1168 N1170 1.610 . S
N1169 S1168 1.613 . S
N1169 C1172 1.350 . S
N1170 S1168 1.610 . S
N1170 C1171 1.351 . S
C1171 C1165 1.428 . S
C1171 N1170 1.351 . S
C1171 C1172 1.434 . S
C1172 C1163 1.429 . S
C1172 N1169 1.350 . S
C1172 C1171 1.434 . S
C1173 C1174 1.369 . S
C1173 C1175 1.419 . S
C1173 H1177 0.930 . S
C1174 C1173 1.369 . S
C1174 C1183 1.429 . S
C1175 C1173 1.419 . S
C1175 C1176 1.363 . S
C1175 H1178 0.929 . S
C1176 C1175 1.363 . S
C1176 C1182 1.428 . S
H1177 C1173 0.930 . S
H1178 C1175 0.929 . S
S1179 N1180 1.613 . S
S1179 N1181 1.610 . S
N1180 S1179 1.613 . S
N1180 C1183 1.350 . S
N1181 S1179 1.610 . S
N1181 C1182 1.351 . S
C1182 C1176 1.428 . S
C1182 N1181 1.351 . S
C1182 C1183 1.434 . S
C1183 C1174 1.429 . S
C1183 N1180 1.350 . S
C1183 C1182 1.434 . S
C1184 C1185 1.369 . S
C1184 C1186 1.419 . S
C1184 H1188 0.930 . S
C1185 C1184 1.369 . S
C1185 C1194 1.429 1_556 S
C1186 C1184 1.419 . S
C1186 C1187 1.363 . S
C1186 H1189 0.929 . S
C1187 C1186 1.363 . S
C1187 C1193 1.428 1_556 S
H1188 C1184 0.930 . S
H1189 C1186 0.929 . S
S1190 N1191 1.613 . S
S1190 N1192 1.610 . S
N1191 S1190 1.613 . S
N1191 C1194 1.350 . S
N1192 S1190 1.610 . S
N1192 C1193 1.351 . S
C1193 C1187 1.428 1_554 S
C1193 N1192 1.351 . S
C1193 C1194 1.434 . S
C1194 C1185 1.429 1_554 S
C1194 N1191 1.350 . S
C1194 C1193 1.434 . S
C1195 C1196 1.369 . S
C1195 C1197 1.419 . S
C1195 H1199 0.930 . S
C1196 C1195 1.369 . S
C1196 C1205 1.429 . S
C1197 C1195 1.419 . S
C1197 C1198 1.363 . S
C1197 H1200 0.929 . S
C1198 C1197 1.363 . S
C1198 C1204 1.428 . S
H1199 C1195 0.930 . S
H1200 C1197 0.929 . S
S1201 N1202 1.613 . S
S1201 N1203 1.610 . S
N1202 S1201 1.613 . S
N1202 C1205 1.350 . S
N1203 S1201 1.610 . S
N1203 C1204 1.351 . S
C1204 C1198 1.428 . S
C1204 N1203 1.351 . S
C1204 C1205 1.434 . S
C1205 C1196 1.429 . S
C1205 N1202 1.350 . S
C1205 C1204 1.434 . S
C1206 C1207 1.369 . S
C1206 C1208 1.419 . S
C1206 H1210 0.930 . S
C1207 C1206 1.369 . S
C1207 C1216 1.429 . S
C1208 C1206 1.419 . S
C1208 C1209 1.363 . S
C1208 H1211 0.929 . S
C1209 C1208 1.363 . S
C1209 C1215 1.428 . S
H1210 C1206 0.930 . S
H1211 C1208 0.929 . S
S1212 N1213 1.613 . S
S1212 N1214 1.610 . S
N1213 S1212 1.613 . S
N1213 C1216 1.350 . S
N1214 S1212 1.610 . S
N1214 C1215 1.351 . S
C1215 C1209 1.428 . S
C1215 N1214 1.351 . S
C1215 C1216 1.434 . S
C1216 C1207 1.429 . S
C1216 N1213 1.350 . S
C1216 C1215 1.434 . S
C1217 C1218 1.369 . S
C1217 C1219 1.419 . S
C1217 H1221 0.930 . S
C1218 C1217 1.369 . S
C1218 C1227 1.429 . S
C1219 C1217 1.419 . S
C1219 C1220 1.363 . S
C1219 H1222 0.929 . S
C1220 C1219 1.363 . S
C1220 C1226 1.428 . S
H1221 C1217 0.930 . S
H1222 C1219 0.929 . S
S1223 N1224 1.613 . S
S1223 N1225 1.610 . S
N1224 S1223 1.613 . S
N1224 C1227 1.350 . S
N1225 S1223 1.610 . S
N1225 C1226 1.351 . S
C1226 C1220 1.428 . S
C1226 N1225 1.351 . S
C1226 C1227 1.434 . S
C1227 C1218 1.429 . S
C1227 N1224 1.350 . S
C1227 C1226 1.434 . S
C1228 C1229 1.369 . S
C1228 C1230 1.419 . S
C1228 H1232 0.930 . S
C1229 C1228 1.369 . S
C1229 C1238 1.429 . S
C1230 C1228 1.419 . S
C1230 C1231 1.363 . S
C1230 H1233 0.929 . S
C1231 C1230 1.363 . S
C1231 C1237 1.428 . S
H1232 C1228 0.930 . S
H1233 C1230 0.929 . S
S1234 N1235 1.613 . S
S1234 N1236 1.610 . S
N1235 S1234 1.613 . S
N1235 C1238 1.350 . S
N1236 S1234 1.610 . S
N1236 C1237 1.351 . S
C1237 C1231 1.428 . S
C1237 N1236 1.351 . S
C1237 C1238 1.434 . S
C1238 C1229 1.429 . S
C1238 N1235 1.350 . S
C1238 C1237 1.434 . S
C1239 C1240 1.369 1_556 S
C1239 C1241 1.419 . S
C1239 H1243 0.930 . S
C1240 C1239 1.369 1_554 S
C1240 C1249 1.429 . S
C1241 C1239 1.419 . S
C1241 C1242 1.363 1_556 S
C1241 H1244 0.929 . S
C1242 C1241 1.363 1_554 S
C1242 C1248 1.428 . S
H1243 C1239 0.930 . S
H1244 C1241 0.929 . S
S1245 N1246 1.613 . S
S1245 N1247 1.610 . S
N1246 S1245 1.613 . S
N1246 C1249 1.350 . S
N1247 S1245 1.610 . S
N1247 C1248 1.351 . S
C1248 C1242 1.428 . S
C1248 N1247 1.351 . S
C1248 C1249 1.434 . S
C1249 C1240 1.429 . S
C1249 N1246 1.350 . S
C1249 C1248 1.434 . S
C1250 C1251 1.369 . S
C1250 C1252 1.419 . S
C1250 H1254 0.930 . S
C1251 C1250 1.369 . S
C1251 C1260 1.429 . S
C1252 C1250 1.419 . S
C1252 C1253 1.363 . S
C1252 H1255 0.929 . S
C1253 C1252 1.363 . S
C1253 C1259 1.428 . S
H1254 C1250 0.930 . S
H1255 C1252 0.929 . S
S1256 N1257 1.613 . S
S1256 N1258 1.610 . S
N1257 S1256 1.613 . S
N1257 C1260 1.350 . S
N1258 S1256 1.610 . S
N1258 C1259 1.351 . S
C1259 C1253 1.428 . S
C1259 N1258 1.351 . S
C1259 C1260 1.434 . S
C1260 C1251 1.429 . S
C1260 N1257 1.350 . S
C1260 C1259 1.434 . S
C1261 C1262 1.369 . S
C1261 C1263 1.419 . S
C1261 H1265 0.930 . S
C1262 C1261 1.369 . S
C1262 C1271 1.429 . S
C1263 C1261 1.419 . S
C1263 C1264 1.363 . S
C1263 H1266 0.929 . S
C1264 C1263 1.363 . S
C1264 C1270 1.428 . S
H1265 C1261 0.930 . S
H1266 C1263 0.929 . S
S1267 N1268 1.613 . S
S1267 N1269 1.610 . S
N1268 S1267 1.613 . S
N1268 C1271 1.350 . S
N1269 S1267 1.610 . S
N1269 C1270 1.351 . S
C1270 C1264 1.428 . S
C1270 N1269 1.351 . S
C1270 C1271 1.434 . S
C1271 C1262 1.429 . S
C1271 N1268 1.350 . S
C1271 C1270 1.434 . S
C1272 C1273 1.369 . S
C1272 C1274 1.419 . S
C1272 H1276 0.930 . S
C1273 C1272 1.369 . S
C1273 C1282 1.429 . S
C1274 C1272 1.419 . S
C1274 C1275 1.363 . S
C1274 H1277 0.929 . S
C1275 C1274 1.363 . S
C1275 C1281 1.428 . S
H1276 C1272 0.930 . S
H1277 C1274 0.929 . S
S1278 N1279 1.613 . S
S1278 N1280 1.610 . S
N1279 S1278 1.613 . S
N1279 C1282 1.350 . S
N1280 S1278 1.610 . S
N1280 C1281 1.351 . S
C1281 C1275 1.428 . S
C1281 N1280 1.351 . S
C1281 C1282 1.434 . S
C1282 C1273 1.429 . S
C1282 N1279 1.350 . S
C1282 C1281 1.434 . S
C1283 C1284 1.369 . S
C1283 C1285 1.419 . S
C1283 H1287 0.930 . S
C1284 C1283 1.369 . S
C1284 C1293 1.429 . S
C1285 C1283 1.419 . S
C1285 C1286 1.363 . S
C1285 H1288 0.929 . S
C1286 C1285 1.363 . S
C1286 C1292 1.428 . S
H1287 C1283 0.930 . S
H1288 C1285 0.929 . S
S1289 N1290 1.613 . S
S1289 N1291 1.610 . S
N1290 S1289 1.613 . S
N1290 C1293 1.350 . S
N1291 S1289 1.610 . S
N1291 C1292 1.351 . S
C1292 C1286 1.428 . S
C1292 N1291 1.351 . S
C1292 C1293 1.434 . S
C1293 C1284 1.429 . S
C1293 N1290 1.350 . S
C1293 C1292 1.434 . S
C1294 C1295 1.369 . S
C1294 C1296 1.419 . S
C1294 H1298 0.930 . S
C1295 C1294 1.369 . S
C1295 C1304 1.429 . S
C1296 C1294 1.419 . S
C1296 C1297 1.363 . S
C1296 H1299 0.929 . S
C1297 C1296 1.363 . S
C1297 C1303 1.428 . S
H1298 C1294 0.930 . S
H1299 C1296 0.929 . S
S1300 N1301 1.613 . S
S1300 N1302 1.610 . S
N1301 S1300 1.613 . S
N1301 C1304 1.350 . S
N1302 S1300 1.610 . S
N1302 C1303 1.351 . S
C1303 C1297 1.428 . S
C1303 N1302 1.351 . S
C1303 C1304 1.434 . S
C1304 C1295 1.429 . S
C1304 N1301 1.350 . S
C1304 C1303 1.434 . S
C1305 C1306 1.369 . S
C1305 C1307 1.419 . S
C1305 H1309 0.930 . S
C1306 C1305 1.369 . S
C1306 C1315 1.429 . S
C1307 C1305 1.419 . S
C1307 C1308 1.363 . S
C1307 H1310 0.929 . S
C1308 C1307 1.363 . S
C1308 C1314 1.428 . S
H1309 C1305 0.930 . S
H1310 C1307 0.929 . S
S1311 N1312 1.613 . S
S1311 N1313 1.610 . S
N1312 S1311 1.613 . S
N1312 C1315 1.350 . S
N1313 S1311 1.610 . S
N1313 C1314 1.351 . S
C1314 C1308 1.428 . S
C1314 N1313 1.351 . S
C1314 C1315 1.434 . S
C1315 C1306 1.429 . S
C1315 N1312 1.350 . S
C1315 C1314 1.434 . S
C1316 C1317 1.369 . S
C1316 C1318 1.419 . S
C1316 H1320 0.930 . S
C1317 C1316 1.369 . S
C1317 C1326 1.429 . S
C1318 C1316 1.419 . S
C1318 C1319 1.363 . S
C1318 H1321 0.929 . S
C1319 C1318 1.363 . S
C1319 C1325 1.428 . S
H1320 C1316 0.930 . S
H1321 C1318 0.929 . S
S1322 N1323 1.613 . S
S1322 N1324 1.610 . S
N1323 S1322 1.613 . S
N1323 C1326 1.350 . S
N1324 S1322 1.610 . S
N1324 C1325 1.351 . S
C1325 C1319 1.428 . S
C1325 N1324 1.351 . S
C1325 C1326 1.434 . S
C1326 C1317 1.429 . S
C1326 N1323 1.350 . S
C1326 C1325 1.434 . S
C1327 C1328 1.369 . S
C1327 C1329 1.419 . S
C1327 H1331 0.930 . S
C1328 C1327 1.369 . S
C1328 C1337 1.429 . S
C1329 C1327 1.419 . S
C1329 C1330 1.363 . S
C1329 H1332 0.929 . S
C1330 C1329 1.363 . S
C1330 C1336 1.428 . S
H1331 C1327 0.930 . S
H1332 C1329 0.929 . S
S1333 N1334 1.613 . S
S1333 N1335 1.610 . S
N1334 S1333 1.613 . S
N1334 C1337 1.350 . S
N1335 S1333 1.610 . S
N1335 C1336 1.351 . S
C1336 C1330 1.428 . S
C1336 N1335 1.351 . S
C1336 C1337 1.434 . S
C1337 C1328 1.429 . S
C1337 N1334 1.350 . S
C1337 C1336 1.434 . S
C1338 C1339 1.369 . S
C1338 C1340 1.419 . S
C1338 H1342 0.930 . S
C1339 C1338 1.369 . S
C1339 C1348 1.429 . S
C1340 C1338 1.419 . S
C1340 C1341 1.363 . S
C1340 H1343 0.929 . S
C1341 C1340 1.363 . S
C1341 C1347 1.428 . S
H1342 C1338 0.930 . S
H1343 C1340 0.929 . S
S1344 N1345 1.613 . S
S1344 N1346 1.610 . S
N1345 S1344 1.613 . S
N1345 C1348 1.350 . S
N1346 S1344 1.610 . S
N1346 C1347 1.351 . S
C1347 C1341 1.428 . S
C1347 N1346 1.351 . S
C1347 C1348 1.434 . S
C1348 C1339 1.429 . S
C1348 N1345 1.350 . S
C1348 C1347 1.434 . S
C1349 C1350 1.369 . S
C1349 C1351 1.419 . S
C1349 H1353 0.930 . S
C1350 C1349 1.369 . S
C1350 C1359 1.429 . S
C1351 C1349 1.419 . S
C1351 C1352 1.363 . S
C1351 H1354 0.929 . S
C1352 C1351 1.363 . S
C1352 C1358 1.428 . S
H1353 C1349 0.930 . S
H1354 C1351 0.929 . S
S1355 N1356 1.613 . S
S1355 N1357 1.610 . S
N1356 S1355 1.613 . S
N1356 C1359 1.350 . S
N1357 S1355 1.610 . S
N1357 C1358 1.351 . S
C1358 C1352 1.428 . S
C1358 N1357 1.351 . S
C1358 C1359 1.434 . S
C1359 C1350 1.429 . S
C1359 N1356 1.350 . S
C1359 C1358 1.434 . S
C1360 C1361 1.369 . S
C1360 C1362 1.419 . S
C1360 H1364 0.930 . S
C1361 C1360 1.369 . S
C1361 C1370 1.429 . S
C1362 C1360 1.419 . S
C1362 C1363 1.363 . S
C1362 H1365 0.929 . S
C1363 C1362 1.363 . S
C1363 C1369 1.428 . S
H1364 C1360 0.930 . S
H1365 C1362 0.929 . S
S1366 N1367 1.613 . S
S1366 N1368 1.610 . S
N1367 S1366 1.613 . S
N1367 C1370 1.350 . S
N1368 S1366 1.610 . S
N1368 C1369 1.351 . S
C1369 C1363 1.428 . S
C1369 N1368 1.351 . S
C1369 C1370 1.434 . S
C1370 C1361 1.429 . S
C1370 N1367 1.350 . S
C1370 C1369 1.434 . S
C1371 C1372 1.369 . S
C1371 C1373 1.419 . S
C1371 H1375 0.930 . S
C1372 C1371 1.369 . S
C1372 C1381 1.429 . S
C1373 C1371 1.419 . S
C1373 C1374 1.363 . S
C1373 H1376 0.929 . S
C1374 C1373 1.363 . S
C1374 C1380 1.428 . S
H1375 C1371 0.930 . S
H1376 C1373 0.929 . S
S1377 N1378 1.613 . S
S1377 N1379 1.610 . S
N1378 S1377 1.613 . S
N1378 C1381 1.350 . S
N1379 S1377 1.610 . S
N1379 C1380 1.351 . S
C1380 C1374 1.428 . S
C1380 N1379 1.351 . S
C1380 C1381 1.434 . S
C1381 C1372 1.429 . S
C1381 N1378 1.350 . S
C1381 C1380 1.434 . S
C1382 C1383 1.369 . S
C1382 C1384 1.419 . S
C1382 H1386 0.930 . S
C1383 C1382 1.369 . S
C1383 C1392 1.429 . S
C1384 C1382 1.419 . S
C1384 C1385 1.363 . S
C1384 H1387 0.929 . S
C1385 C1384 1.363 . S
C1385 C1391 1.428 . S
H1386 C1382 0.930 . S
H1387 C1384 0.929 . S
S1388 N1389 1.613 . S
S1388 N1390 1.610 . S
N1389 S1388 1.613 . S
N1389 C1392 1.350 . S
N1390 S1388 1.610 . S
N1390 C1391 1.351 . S
C1391 C1385 1.428 . S
C1391 N1390 1.351 . S
C1391 C1392 1.434 . S
C1392 C1383 1.429 . S
C1392 N1389 1.350 . S
C1392 C1391 1.434 . S
C1393 C1394 1.369 . S
C1393 C1395 1.419 . S
C1393 H1397 0.930 . S
C1394 C1393 1.369 . S
C1394 C1403 1.429 . S
C1395 C1393 1.419 . S
C1395 C1396 1.363 . S
C1395 H1398 0.929 . S
C1396 C1395 1.363 . S
C1396 C1402 1.428 . S
H1397 C1393 0.930 . S
H1398 C1395 0.929 . S
S1399 N1400 1.613 . S
S1399 N1401 1.610 . S
N1400 S1399 1.613 . S
N1400 C1403 1.350 . S
N1401 S1399 1.610 . S
N1401 C1402 1.351 . S
C1402 C1396 1.428 . S
C1402 N1401 1.351 . S
C1402 C1403 1.434 . S
C1403 C1394 1.429 . S
C1403 N1400 1.350 . S
C1403 C1402 1.434 . S
C1009 C476 1.725 . S
C1011 C58 1.260 . S
C1020 C142 1.412 . S
C1022 C56 2.037 . S
C1031 C226 1.360 . S
C1033 C140 1.866 . S
C1042 C224 1.731 . S
C1044 C310 1.254 . S
C1053 C308 2.032 . S
C1055 C394 1.421 . S
C1064 C478 1.377 . S
C1066 C392 1.858 . S
C1075 C644 1.731 . S
C1077 C562 1.246 . S
C1086 C646 1.359 . S
C1088 C728 1.864 . S
C1097 C812 2.036 . S
C1099 C730 1.416 . S
C1108 C896 1.728 . S
C1110 C814 1.251 . S
C1119 C980 1.864 . S
C1121 C898 1.368 . S
C1130 C560 2.042 . S
C1132 C982 1.411 . S
C1141 C998 3.693 . S
C1143 C67 3.596 . S
C1152 C151 3.013 . S
C1154 C578 3.100 . S
C1163 C662 3.422 . S
C1165 C235 3.311 . S
C1174 C746 3.692 . S
C1176 C319 3.599 . S
C1185 C830 3.103 . S
C1187 C403 3.007 1_556 S
C1196 C487 3.309 . S
C1198 C914 3.420 . S
C1207 C571 3.593 . S
C1209 C158 3.696 . S
C1218 C655 3.311 . S
C1220 C242 3.418 . S
C1229 C326 3.104 . S
C1231 C739 3.007 . S
C1240 C410 3.691 . S
C1242 C823 3.599 1_554 S
C1251 C907 3.313 . S
C1253 C494 3.420 . S
C1262 C991 3.013 . S
C1264 C74 3.101 . S
C1273 C567 2.819 . S
C1275 C63 2.821 . S
C1284 C147 1.940 . S
C1286 C651 1.979 . S
C1295 C735 1.944 . S
C1297 C231 1.973 . S
C1306 C315 2.820 . S
C1308 C819 2.818 . S
C1317 C903 1.970 . S
C1319 C399 1.946 . S
C1328 C987 1.942 . S
C1330 C483 1.974 . S
C1339 C573 0.527 . S
C1341 C69 0.530 . S
C1350 C657 0.527 . S
C1352 C153 0.514 . S
C1361 C741 0.520 . S
C1363 C237 0.520 . S
C1372 C321 0.512 . S
C1374 C825 0.534 . S
C1383 C909 0.517 . S
C1385 C405 0.499 . S
C1394 C993 0.510 . S
C1396 C489 0.527 . S
