# Generated by pormake.
# Topology umb, (4)-cn, num edge types: 1
# Building blocks:
#     Node 0, Type 0, BuildingBlock: CEKHIL_clean_sbu_0, # of connection points: 4
#     Node 1, Type 0, BuildingBlock: CEKHIL_clean_sbu_0, # of connection points: 4
#     Node 2, Type 0, BuildingBlock: CEKHIL_clean_sbu_0, # of connection points: 4
#     Node 3, Type 0, BuildingBlock: CEKHIL_clean_sbu_0, # of connection points: 4
#     Node 4, Type 0, BuildingBlock: CEKHIL_clean_sbu_0, # of connection points: 4
#     Node 5, Type 0, BuildingBlock: CEKHIL_clean_sbu_0, # of connection points: 4
#     Node 6, Type 0, BuildingBlock: CEKHIL_clean_sbu_0, # of connection points: 4
#     Node 7, Type 0, BuildingBlock: CEKHIL_clean_sbu_0, # of connection points: 4
#     Node 8, Type 0, BuildingBlock: CEKHIL_clean_sbu_0, # of connection points: 4
#     Node 9, Type 0, BuildingBlock: CEKHIL_clean_sbu_0, # of connection points: 4
#     Node 10, Type 0, BuildingBlock: CEKHIL_clean_sbu_0, # of connection points: 4
#     Node 11, Type 0, BuildingBlock: CEKHIL_clean_sbu_0, # of connection points: 4
#     Edge 12, Type (0, 0), BuildingBlock: XIVTED_clean_linker_0, # of connection points: 2
#     Edge 13, Type (0, 0), BuildingBlock: XIVTED_clean_linker_0, # of connection points: 2
#     Edge 14, Type (0, 0), BuildingBlock: XIVTED_clean_linker_0, # of connection points: 2
#     Edge 15, Type (0, 0), BuildingBlock: XIVTED_clean_linker_0, # of connection points: 2
#     Edge 16, Type (0, 0), BuildingBlock: XIVTED_clean_linker_0, # of connection points: 2
#     Edge 17, Type (0, 0), BuildingBlock: XIVTED_clean_linker_0, # of connection points: 2
#     Edge 18, Type (0, 0), BuildingBlock: XIVTED_clean_linker_0, # of connection points: 2
#     Edge 19, Type (0, 0), BuildingBlock: XIVTED_clean_linker_0, # of connection points: 2
#     Edge 20, Type (0, 0), BuildingBlock: XIVTED_clean_linker_0, # of connection points: 2
#     Edge 21, Type (0, 0), BuildingBlock: XIVTED_clean_linker_0, # of connection points: 2
#     Edge 22, Type (0, 0), BuildingBlock: XIVTED_clean_linker_0, # of connection points: 2
#     Edge 23, Type (0, 0), BuildingBlock: XIVTED_clean_linker_0, # of connection points: 2
#     Edge 24, Type (0, 0), BuildingBlock: XIVTED_clean_linker_0, # of connection points: 2
#     Edge 25, Type (0, 0), BuildingBlock: XIVTED_clean_linker_0, # of connection points: 2
#     Edge 26, Type (0, 0), BuildingBlock: XIVTED_clean_linker_0, # of connection points: 2
#     Edge 27, Type (0, 0), BuildingBlock: XIVTED_clean_linker_0, # of connection points: 2
#     Edge 28, Type (0, 0), BuildingBlock: XIVTED_clean_linker_0, # of connection points: 2
#     Edge 29, Type (0, 0), BuildingBlock: XIVTED_clean_linker_0, # of connection points: 2
#     Edge 30, Type (0, 0), BuildingBlock: XIVTED_clean_linker_0, # of connection points: 2
#     Edge 31, Type (0, 0), BuildingBlock: XIVTED_clean_linker_0, # of connection points: 2
#     Edge 32, Type (0, 0), BuildingBlock: XIVTED_clean_linker_0, # of connection points: 2
#     Edge 33, Type (0, 0), BuildingBlock: XIVTED_clean_linker_0, # of connection points: 2
#     Edge 34, Type (0, 0), BuildingBlock: XIVTED_clean_linker_0, # of connection points: 2
#     Edge 35, Type (0, 0), BuildingBlock: XIVTED_clean_linker_0, # of connection points: 2
# Relax obj value: 0.273
# Max RMSD: 0.249
# Mean RMSD: 0.248
data_MOF--net-umb--node1-CEKHIL_clean_sbu_0--edge1-XIVTED_clean_linker_0
_symmetry_space_group_name_H-M    P1
_symmetry_Int_Tables_number       1
_symmetry_cell_setting            triclinic
loop_
_symmetry_equiv_pos_as_xyz
'x, y, z'
_cell_length_a     47.209183
_cell_length_b     47.168598
_cell_length_c     36.251237
_cell_angle_alpha  89.972023
_cell_angle_beta   89.979317
_cell_angle_gamma 119.91458
loop_
_atom_site_label
_atom_site_type_symbol
_atom_site_fract_x
_atom_site_fract_y
_atom_site_fract_z
_atom_type_partial_charge
Co0 Co 0.50598 0.15389 0.33754 0.0
O1 O 0.47575 0.10809 0.33341 0.0
O2 O 0.52981 0.13107 0.33088 0.0
C3 C 0.48085 0.17029 0.29681 0.0
O4 O 0.54449 0.20023 0.33972 0.0
Co5 Co 0.48432 0.19883 0.37156 0.0
O6 O 0.52388 0.23352 0.34751 0.0
C7 C 0.50995 0.16705 0.42049 0.0
C8 C 0.50123 0.10478 0.32921 0.0
C9 C 0.54773 0.22893 0.34089 0.0
O10 O 0.5091 0.14984 0.39267 0.0
O11 O 0.50113 0.18864 0.41828 0.0
O12 O 0.50012 0.15979 0.28614 0.0
O13 O 0.47394 0.16716 0.33196 0.0
Co14 Co 0.34233 0.50976 0.67485 0.0
O15 O 0.35645 0.4782 0.67159 0.0
O16 O 0.38904 0.53217 0.67132 0.0
C17 C 0.30247 0.4874 0.63191 0.0
O18 O 0.33698 0.54975 0.67658 0.0
Co19 Co 0.27498 0.48959 0.70604 0.0
O20 O 0.28654 0.53523 0.69709 0.0
C21 C 0.32996 0.51164 0.75758 0.0
C22 C 0.38584 0.50318 0.66994 0.0
C23 C 0.31473 0.55646 0.68572 0.0
O24 O 0.34705 0.51134 0.73025 0.0
O25 O 0.2999 0.50365 0.75424 0.0
O26 O 0.33287 0.50563 0.62289 0.0
O27 O 0.2969 0.47946 0.66672 0.0
Co28 Co 0.83488 0.35315 0.9948 0.0
O29 O 0.88059 0.36824 0.99761 0.0
O30 O 0.85869 0.39982 0.98821 0.0
C31 C 0.82177 0.31124 0.95562 0.0
O32 O 0.7888 0.34533 0.98966 0.0
Co33 Co 0.78805 0.28633 0.02884 0.0
O34 O 0.75529 0.29179 1.00046 0.0
C35 C 0.81789 0.34339 0.07782 0.0
C36 C 0.88473 0.3972 0.99185 0.0
C37 C 0.76025 0.31975 0.99023 0.0
O38 O 0.83298 0.36041 0.04934 0.0
O39 O 0.79949 0.31225 0.0765 0.0
O40 O 0.83421 0.34101 0.94385 0.0
O41 O 0.82173 0.30803 0.99134 0.0
Co42 Co 0.4751 0.8374 0.3222 0.0
O43 O 0.50273 0.88293 0.31297 0.0
O44 O 0.44844 0.85684 0.31199 0.0
C45 C 0.50158 0.81975 0.28543 0.0
O46 O 0.43919 0.79049 0.32985 0.0
Co47 Co 0.50368 0.80175 0.36484 0.0
O48 O 0.46271 0.76223 0.35045 0.0
C49 C 0.4772 0.83621 0.40721 0.0
C50 C 0.47607 0.88407 0.30854 0.0
C51 C 0.43779 0.76362 0.33957 0.0
O52 O 0.47225 0.84597 0.37612 0.0
O53 O 0.49111 0.81889 0.40958 0.0
O54 O 0.48076 0.82735 0.27223 0.0
O55 O 0.50928 0.82701 0.32004 0.0
Co56 Co 0.62573 0.46973 0.65981 0.0
O57 O 0.61094 0.50064 0.66413 0.0
O58 O 0.57903 0.44714 0.65548 0.0
C59 C 0.66644 0.49809 0.61909 0.0
O60 O 0.63249 0.43085 0.65311 0.0
Co61 Co 0.69305 0.48658 0.68876 0.0
O62 O 0.68649 0.45046 0.6558 0.0
C63 C 0.63789 0.45967 0.74086 0.0
C64 C 0.58178 0.47578 0.65975 0.0
C65 C 0.65769 0.42757 0.64868 0.0
O66 O 0.62041 0.46121 0.71468 0.0
O67 O 0.66821 0.46884 0.73668 0.0
O68 O 0.6363 0.48101 0.60851 0.0
O69 O 0.67088 0.50108 0.65468 0.0
Co70 Co 0.15769 0.63673 0.99108 0.0
O71 O 0.11188 0.62105 0.98918 0.0
O72 O 0.13479 0.58984 0.98607 0.0
C73 C 0.17258 0.67753 0.94963 0.0
O74 O 0.20414 0.64511 0.99163 0.0
Co75 Co 0.20153 0.70409 0.02438 0.0
O76 O 0.2368 0.69875 1.00214 0.0
C77 C 0.17022 0.64798 0.07469 0.0
C78 C 0.1084 0.59211 0.98613 0.0
C79 C 0.23262 0.6706 0.99432 0.0
O80 O 0.15586 0.63058 0.04623 0.0
O81 O 0.18902 0.67904 0.07275 0.0
O82 O 0.16184 0.6476 0.93939 0.0
O83 O 0.17017 0.68165 0.98483 0.0
Co84 Co 0.82918 0.4741 0.38653 0.0
O85 O 0.87483 0.50506 0.3849 0.0
O86 O 0.85328 0.45158 0.39379 0.0
C87 C 0.81459 0.5021 0.42516 0.0
O88 O 0.78326 0.43552 0.3905 0.0
Co89 Co 0.78254 0.49371 0.35097 0.0
O90 O 0.74943 0.45496 0.37834 0.0
C91 C 0.81413 0.46755 0.30303 0.0
C92 C 0.87918 0.48036 0.39068 0.0
C93 C 0.75455 0.43215 0.38894 0.0
O94 O 0.82861 0.46547 0.33198 0.0
O95 O 0.79545 0.48003 0.30372 0.0
O96 O 0.82718 0.48502 0.4374 0.0
O97 O 0.81537 0.50559 0.38944 0.0
Co98 Co 0.35217 0.84055 0.71423 0.0
O99 O 0.36827 0.88619 0.72099 0.0
O100 O 0.39813 0.86183 0.72481 0.0
C101 C 0.30789 0.82229 0.75087 0.0
O102 O 0.34345 0.79417 0.70969 0.0
Co103 Co 0.28845 0.80185 0.67143 0.0
O104 O 0.29579 0.76466 0.67955 0.0
C105 C 0.34901 0.83704 0.62904 0.0
C106 C 0.39648 0.88852 0.72668 0.0
C107 C 0.32118 0.76747 0.69522 0.0
O108 O 0.36358 0.84738 0.66009 0.0
O109 O 0.3179 0.81936 0.62665 0.0
O110 O 0.33665 0.83188 0.76429 0.0
O111 O 0.30699 0.82821 0.71586 0.0
Co112 Co 0.50955 0.34483 0.04416 0.0
O113 O 0.48 0.36133 0.04779 0.0
O114 O 0.53414 0.3918 0.04646 0.0
C115 C 0.48589 0.30605 0.08825 0.0
O116 O 0.54762 0.33631 0.04147 0.0
Co117 Co 0.48578 0.2761 1.01549 0.0
O118 O 0.52692 0.28219 0.03645 0.0
C119 C 0.50911 0.33006 0.96196 0.0
C120 C 0.50584 0.39015 0.04853 0.0
C121 C 0.55099 0.3109 0.04085 0.0
O122 O 0.51001 0.34829 0.98868 0.0
O123 O 0.50015 0.2998 0.96643 0.0
O124 O 0.50596 0.33632 0.09642 0.0
O125 O 0.47746 0.30024 0.05362 0.0
Co126 Co 0.1553 0.52134 0.38755 0.0
O127 O 0.10954 0.4912 0.38559 0.0
O128 O 0.13199 0.54487 0.39348 0.0
C129 C 0.1682 0.49288 0.42759 0.0
O130 O 0.20165 0.55914 0.39169 0.0
Co131 Co 0.20102 0.49996 0.35393 0.0
O132 O 0.23441 0.53802 0.38189 0.0
C133 C 0.17115 0.52668 0.30425 0.0
C134 C 0.10575 0.51632 0.39059 0.0
C135 C 0.22996 0.56149 0.39147 0.0
O136 O 0.15663 0.52942 0.33278 0.0
O137 O 0.18931 0.51364 0.30579 0.0
O138 O 0.15638 0.51093 0.43877 0.0
O139 O 0.16783 0.48884 0.39196 0.0
Co140 Co 0.63846 0.15706 0.71454 0.0
O141 O 0.62175 0.1113 0.72132 0.0
O142 O 0.59181 0.13565 0.72003 0.0
C143 C 0.67914 0.17367 0.75632 0.0
O144 O 0.64736 0.20359 0.70901 0.0
Co145 Co 0.70569 0.19947 0.68125 0.0
O146 O 0.70099 0.23622 0.69939 0.0
C147 C 0.64883 0.16784 0.6316 0.0
C148 C 0.59324 0.10895 0.72367 0.0
C149 C 0.67263 0.2321 0.7052 0.0
O150 O 0.63208 0.15108 0.65945 0.0
O151 O 0.67925 0.1891 0.63409 0.0
O152 O 0.64946 0.16469 0.76601 0.0
O153 O 0.6833 0.16913 0.7217 0.0
Co154 Co 0.4741 0.63146 0.05421 0.0
O155 O 0.50441 0.61573 0.05325 0.0
O156 O 0.45053 0.58467 0.05875 0.0
C157 C 0.5012 0.67207 0.09542 0.0
O158 O 0.43557 0.63923 0.05694 0.0
Co159 Co 0.49401 0.69934 0.024 0.0
O160 O 0.45571 0.6933 0.05236 0.0
C161 C 0.46708 0.64359 0.97254 0.0
C162 C 0.47903 0.58677 0.05675 0.0
C163 C 0.43217 0.66459 0.05858 0.0
O164 O 0.46819 0.62612 0.99904 0.0
O165 O 0.47639 0.674 0.9764 0.0
O166 O 0.4829 0.64202 0.10589 0.0
O167 O 0.50599 0.67643 0.05997 0.0
H168 H 0.5109 0.11326 0.44814 0.0
H169 H 0.66227 0.2161 0.58096 0.0
H170 H 0.54799 0.21577 0.46915 0.0
H171 H 0.59257 0.11523 0.60496 0.0
H172 H 0.62662 0.21512 0.53111 0.0
H173 H 0.54523 0.11215 0.49849 0.0
C174 C 0.52585 0.1354 0.46372 0.0
C175 C 0.52617 0.16456 0.45467 0.0
C176 C 0.61934 0.19312 0.54707 0.0
C177 C 0.5666 0.16373 0.51124 0.0
C178 C 0.6399 0.19349 0.57519 0.0
C179 C 0.63061 0.16561 0.59709 0.0
C180 C 0.5895 0.16448 0.54014 0.0
C181 C 0.60085 0.13724 0.58871 0.0
C182 C 0.54555 0.13477 0.4923 0.0
C183 C 0.54646 0.19262 0.47551 0.0
N184 N 0.58147 0.13735 0.56085 0.0
N185 N 0.56616 0.19163 0.50239 0.0
H186 H 0.3825 0.50957 0.78672 0.0
H187 H 0.43143 0.65844 0.92448 0.0
H188 H 0.31938 0.54964 0.80658 0.0
H189 H 0.46286 0.58801 0.943 0.0
H190 H 0.3965 0.62432 0.87388 0.0
H191 H 0.41725 0.54222 0.8382 0.0
C192 C 0.37562 0.52477 0.80234 0.0
C193 C 0.34766 0.52645 0.79261 0.0
C194 C 0.41128 0.61652 0.88885 0.0
C195 C 0.38817 0.56499 0.85058 0.0
C196 C 0.43159 0.63621 0.91741 0.0
C197 C 0.45036 0.62625 0.93794 0.0
C198 C 0.41012 0.58691 0.8802 0.0
C199 C 0.44894 0.59676 0.92789 0.0
C200 C 0.39557 0.54354 0.83156 0.0
C201 C 0.34029 0.54706 0.8135 0.0
N202 N 0.42933 0.57825 0.8997 0.0
N203 N 0.36063 0.56583 0.84111 0.0
H204 H 0.80367 0.47798 0.23023 0.0
H205 H 0.80573 0.32152 0.15025 0.0
H206 H 0.82953 0.41907 0.298 0.0
H207 H 0.83248 0.40697 0.08339 0.0
H208 H 0.80585 0.35258 0.20495 0.0
H209 H 0.80563 0.44795 0.1756 0.0
C210 C 0.80989 0.45892 0.23365 0.0
C211 C 0.81677 0.45138 0.26882 0.0
C212 C 0.81184 0.36446 0.17823 0.0
C213 C 0.81814 0.41633 0.20663 0.0
C214 C 0.81177 0.34675 0.14705 0.0
C215 C 0.81943 0.36165 0.11212 0.0
C216 C 0.81871 0.397 0.17435 0.0
C217 C 0.82683 0.39448 0.10973 0.0
C218 C 0.81101 0.4418 0.2025 0.0
C219 C 0.82446 0.42615 0.27148 0.0
N220 N 0.82596 0.41086 0.14022 0.0
N221 N 0.82462 0.40939 0.24099 0.0
H222 H 0.43106 0.8551 0.40906 0.0
H223 H 0.41383 0.85523 0.62746 0.0
H224 H 0.48726 0.8292 0.48139 0.0
H225 H 0.33214 0.82996 0.5549 0.0
H226 H 0.44678 0.85775 0.5743 0.0
H227 H 0.40099 0.858 0.4623 0.0
C228 C 0.43756 0.85051 0.43617 0.0
C229 C 0.46199 0.8419 0.44052 0.0
C230 C 0.42174 0.8519 0.57 0.0
C231 C 0.42727 0.84536 0.50192 0.0
C232 C 0.40285 0.85071 0.60031 0.0
C233 C 0.36994 0.84242 0.59585 0.0
C234 C 0.40806 0.84543 0.53459 0.0
C235 C 0.35729 0.83649 0.55981 0.0
C236 C 0.42006 0.85193 0.46654 0.0
C237 C 0.46878 0.83595 0.47655 0.0
N238 N 0.37639 0.83824 0.53059 0.0
N239 N 0.45161 0.83791 0.50584 0.0
H240 H 0.5083 0.38279 0.93128 0.0
H241 H 0.65216 0.42344 0.78892 0.0
H242 H 0.5445 0.31626 0.91239 0.0
H243 H 0.58344 0.45712 0.77126 0.0
H244 H 0.61868 0.3901 0.84094 0.0
H245 H 0.54 0.41528 0.87801 0.0
C246 C 0.52247 0.37469 0.91554 0.0
C247 C 0.52335 0.34646 0.92609 0.0
C248 C 0.6111 0.40499 0.82579 0.0
C249 C 0.56082 0.38439 0.86595 0.0
C250 C 0.63043 0.42437 0.79641 0.0
C251 C 0.62077 0.44334 0.77576 0.0
C252 C 0.58222 0.40503 0.83516 0.0
C253 C 0.59193 0.44299 0.78641 0.0
C254 C 0.5407 0.39336 0.88527 0.0
C255 C 0.54259 0.33747 0.90492 0.0
N256 N 0.57382 0.42433 0.81541 0.0
N257 N 0.5609 0.3566 0.87623 0.0
H258 H 0.18114 0.51461 0.23185 0.0
H259 H 0.18256 0.67128 0.14663 0.0
H260 H 0.15745 0.57624 0.29755 0.0
H261 H 0.15344 0.58391 0.08257 0.0
H262 H 0.1818 0.64102 0.20241 0.0
H263 H 0.17961 0.54393 0.17627 0.0
C264 C 0.17551 0.53413 0.23463 0.0
C265 C 0.16908 0.54263 0.26951 0.0
C266 C 0.1754 0.62854 0.17607 0.0
C267 C 0.16818 0.57685 0.20619 0.0
C268 C 0.1758 0.64579 0.14426 0.0
C269 C 0.16771 0.63016 0.10976 0.0
C270 C 0.1678 0.5957 0.17327 0.0
C271 C 0.15944 0.59701 0.1085 0.0
C272 C 0.17463 0.55084 0.20293 0.0
C273 C 0.16215 0.56843 0.27131 0.0
N274 N 0.16004 0.58109 0.13956 0.0
N275 N 0.1622 0.58475 0.24029 0.0
H276 H 0.75125 0.37278 0.38051 0.0
H277 H 0.56383 0.29238 0.33191 0.0
H278 H 0.69216 0.41708 0.40347 0.0
H279 H 0.60622 0.23141 0.35425 0.0
H280 H 0.61509 0.34015 0.34926 0.0
H281 H 0.70126 0.32094 0.36741 0.0
C282 C 0.72777 0.37136 0.38388 0.0
C283 C 0.72576 0.39936 0.39236 0.0
C284 C 0.61324 0.31633 0.35025 0.0
C285 C 0.66919 0.34094 0.3764 0.0
C286 C 0.58412 0.28909 0.33992 0.0
C287 C 0.58063 0.25785 0.34216 0.0
C288 C 0.6392 0.31242 0.3627 0.0
C289 C 0.6079 0.25511 0.35224 0.0
C290 C 0.69938 0.34193 0.37601 0.0
C291 C 0.69481 0.39624 0.39628 0.0
N292 N 0.63616 0.28216 0.3625 0.0
N293 N 0.66776 0.3677 0.3876 0.0
H294 H 0.30871 0.72718 0.63722 0.0
H295 H 0.31021 0.58769 0.74533 0.0
H296 H 0.34613 0.74502 0.74846 0.0
H297 H 0.33835 0.60203 0.6307 0.0
H298 H 0.31989 0.6437 0.74809 0.0
H299 H 0.31559 0.67921 0.63416 0.0
C300 C 0.31836 0.72087 0.66099 0.0
C301 C 0.32639 0.73947 0.69339 0.0
C302 C 0.32444 0.63475 0.72252 0.0
C303 C 0.3342 0.68506 0.69003 0.0
C304 C 0.31865 0.6029 0.72085 0.0
C305 C 0.32313 0.59058 0.6876 0.0
C306 C 0.33381 0.65382 0.69044 0.0
C307 C 0.33448 0.61094 0.65666 0.0
C308 C 0.32266 0.69388 0.65904 0.0
C309 C 0.33945 0.73093 0.72319 0.0
N310 N 0.3388 0.6416 0.65857 0.0
N311 N 0.34236 0.70375 0.7211 0.0
H312 H 0.56759 0.2634 0.04408 0.0
H313 H 0.75547 0.37479 1.0007 0.0
H314 H 0.60928 0.36762 0.02916 0.0
H315 H 0.69872 0.27239 0.97253 0.0
H316 H 0.70459 0.37509 1.01335 0.0
H317 H 0.61914 0.26828 0.02516 0.0
C318 C 0.58774 0.28743 0.03731 0.0
C319 C 0.58396 0.31508 0.03775 0.0
C320 C 0.7034 0.35281 1.00366 0.0
C321 C 0.64299 0.32071 1.01547 0.0
C322 C 0.73234 0.35267 0.99604 0.0
C323 C 0.73121 0.32332 0.98627 0.0
C324 C 0.67355 0.32337 1.0017 0.0
C325 C 0.70066 0.29537 0.98074 0.0
C326 C 0.61705 0.29012 0.02606 0.0
C327 C 0.61112 0.34565 0.02909 0.0
N328 N 0.67304 0.29594 0.98921 0.0
N329 N 0.6396 0.34766 0.01805 0.0
H330 H 0.37717 0.75832 0.33755 0.0
H331 H 0.29057 0.57481 0.41258 0.0
H332 H 0.4253 0.70177 0.35414 0.0
H333 H 0.23621 0.62125 0.37722 0.0
H334 H 0.34126 0.62563 0.40115 0.0
H335 H 0.32563 0.71103 0.35734 0.0
C336 C 0.37683 0.73586 0.34472 0.0
C337 C 0.40564 0.73404 0.34435 0.0
C338 C 0.31827 0.62489 0.39628 0.0
C339 C 0.34719 0.68048 0.36789 0.0
C340 C 0.28936 0.59599 0.40317 0.0
C341 C 0.25928 0.59378 0.39525 0.0
C342 C 0.31705 0.65164 0.38108 0.0
C343 C 0.25898 0.62198 0.38353 0.0
C344 C 0.34751 0.70906 0.35643 0.0
C345 C 0.4038 0.70441 0.35422 0.0
N346 N 0.28756 0.64974 0.37613 0.0
N347 N 0.37514 0.67892 0.36581 0.0
H348 H 0.60403 0.36874 0.66597 0.0
H349 H 0.71999 0.29572 0.69634 0.0
H350 H 0.70204 0.41191 0.62242 0.0
H351 H 0.61504 0.23313 0.69999 0.0
H352 H 0.71263 0.34011 0.67419 0.0
H353 H 0.60516 0.31831 0.67855 0.0
C354 C 0.62533 0.36724 0.65787 0.0
C355 C 0.65333 0.39472 0.64398 0.0
C356 C 0.69118 0.31665 0.6798 0.0
C357 C 0.65503 0.3379 0.65923 0.0
C358 C 0.69534 0.29137 0.69296 0.0
C359 C 0.66809 0.26051 0.69972 0.0
C360 C 0.65955 0.31128 0.67371 0.0
C361 C 0.63675 0.25653 0.69508 0.0
C362 C 0.62606 0.3386 0.66544 0.0
C363 C 0.68023 0.39148 0.63395 0.0
N364 N 0.63328 0.2817 0.6822 0.0
N365 N 0.68068 0.3638 0.64252 0.0
H366 H 0.2964 0.71834 0.98978 0.0
H367 H 0.37408 0.60916 0.04278 0.0
H368 H 0.23483 0.61405 1.00462 0.0
H369 H 0.41528 0.71087 0.07256 0.0
H370 H 0.32367 0.6081 0.02401 0.0
H371 H 0.34317 0.71397 1.0099 0.0
C372 C 0.2928 0.6944 0.99662 0.0
C373 C 0.26158 0.66661 0.99615 0.0
C374 C 0.34363 0.6304 0.03527 0.0
C375 C 0.31493 0.66159 0.01986 0.0
C376 C 0.37222 0.63097 0.04641 0.0
C377 C 0.39912 0.66036 0.0586 0.0
C378 C 0.34236 0.65947 0.03611 0.0
C379 C 0.39538 0.68786 0.06266 0.0
C380 C 0.31944 0.692 1.00855 0.0
C381 C 0.25848 0.63613 1.00479 0.0
N382 N 0.36776 0.6869 0.05077 0.0
N383 N 0.28489 0.63443 0.01674 0.0
H384 H 0.54926 0.09008 0.31497 0.0
H385 H 0.42597 0.89752 0.31096 0.0
H386 H 0.44463 0.0463 0.3262 0.0
H387 H 0.53012 0.94244 0.29407 0.0
H388 H 0.43139 0.95189 0.31083 0.0
H389 H 0.54213 0.03602 0.30278 0.0
C390 C 0.52481 0.06907 0.31487 0.0
C391 C 0.49753 0.07253 0.32188 0.0
C392 C 0.45298 0.94978 0.30674 0.0
C393 C 0.48912 0.01079 0.30786 0.0
C394 C 0.44985 0.91878 0.30667 0.0
C395 C 0.47769 0.91565 0.30303 0.0
C396 C 0.48416 0.97757 0.30327 0.0
C397 C 0.50808 0.94386 0.29748 0.0
C398 C 0.52071 0.03826 0.30775 0.0
C399 C 0.46635 0.04462 0.32115 0.0
N400 N 0.51055 0.9737 0.29814 0.0
N401 N 0.46299 0.01484 0.31445 0.0
H402 H 0.38624 0.44575 0.66445 0.0
H403 H 0.58093 0.53285 0.66587 0.0
H404 H 0.45013 0.55044 0.66904 0.0
H405 H 0.51755 0.42854 0.6543 0.0
H406 H 0.5331 0.53967 0.66721 0.0
H407 H 0.43401 0.43881 0.66079 0.0
C408 C 0.41034 0.46727 0.66463 0.0
C409 C 0.41434 0.49872 0.6671 0.0
C410 C 0.52963 0.51529 0.66429 0.0
C411 C 0.46893 0.49097 0.66297 0.0
C412 C 0.55691 0.51137 0.66356 0.0
C413 C 0.55309 0.48007 0.66002 0.0
C414 C 0.49835 0.48768 0.66156 0.0
C415 C 0.5215 0.4531 0.65708 0.0
C416 C 0.43757 0.46329 0.66251 0.0
C417 C 0.44602 0.52576 0.66718 0.0
N418 N 0.49524 0.45753 0.65799 0.0
N419 N 0.47217 0.52125 0.66522 0.0
H420 H 0.94239 0.39745 0.99575 0.0
H421 H 0.05075 0.59143 0.98011 0.0
H422 H 0.90214 0.46136 0.98209 0.0
H423 H 0.09153 0.52751 0.98715 0.0
H424 H -0.00385 0.54387 0.97955 0.0
H425 H -0.00279 0.44466 0.99182 0.0
C426 C 0.9451 0.42146 0.99191 0.0
C427 C 0.91775 0.42561 0.98934 0.0
C428 C 0.01699 0.54018 0.98106 0.0
C429 C 0.98035 0.47963 0.98477 0.0
C430 C 0.04819 0.56732 0.98141 0.0
C431 C 0.07563 0.5633 0.98386 0.0
C432 C 0.01319 0.5088 0.98334 0.0
C433 C 0.07095 0.53159 0.98529 0.0
C434 C 0.97641 0.44837 0.98958 0.0
C435 C 0.92262 0.45716 0.98426 0.0
N436 N 0.0402 0.50545 0.98519 0.0
N437 N 0.95342 0.48305 0.98223 0.0
H438 H 0.0885 0.56369 0.3954 0.0
H439 H 0.89701 0.43368 0.39776 0.0
H440 H 0.0482 0.45901 0.39095 0.0
H441 H 0.93655 0.53807 0.38927 0.0
H442 H 0.95263 0.44272 0.40011 0.0
H443 H 0.03292 0.55506 0.39785 0.0
C444 C 0.06797 0.53895 0.39503 0.0
C445 C 0.07283 0.51204 0.39281 0.0
C446 C 0.9491 0.46364 0.39779 0.0
C447 C 0.00957 0.50198 0.39565 0.0
C448 C 0.9174 0.45847 0.3965 0.0
C449 C 0.91228 0.48515 0.39315 0.0
C450 C 0.97572 0.49569 0.39579 0.0
C451 C 0.93947 0.5168 0.39168 0.0
C452 C 0.03632 0.53402 0.39639 0.0
C453 C 0.0455 0.48047 0.39246 0.0
N454 N 0.97009 0.5212 0.39295 0.0
N455 N 0.01501 0.47631 0.39382 0.0
H456 H 0.52984 0.09524 0.72828 0.0
H457 H 0.4596 0.90245 0.73588 0.0
H458 H 0.59021 0.05037 0.73338 0.0
H459 H 0.39912 0.94726 0.73234 0.0
H460 H 0.50786 0.95672 0.74122 0.0
H461 H 0.48143 0.04128 0.73559 0.0
C462 C 0.53287 0.07405 0.73111 0.0
C463 C 0.56392 0.07711 0.72983 0.0
C464 C 0.48399 0.95464 0.73957 0.0
C465 C 0.50896 0.01558 0.73816 0.0
C466 C 0.45649 0.9237 0.73654 0.0
C467 C 0.42549 0.9205 0.73323 0.0
C468 C 0.48029 0.98241 0.7391 0.0
C469 C 0.42269 0.94871 0.73445 0.0
C470 C 0.5053 0.04329 0.73534 0.0
C471 C 0.56663 0.049 0.73388 0.0
N472 N 0.44982 0.97857 0.73698 0.0
N473 N 0.53944 0.01933 0.73762 0.0
H474 H 0.43078 0.52289 0.06212 0.0
H475 H 0.5548 0.45409 0.04867 0.0
H476 H 0.53549 0.58449 0.05335 0.0
H477 H 0.44988 0.39292 0.05485 0.0
H478 H 0.54851 0.50241 0.05253 0.0
H479 H 0.43752 0.47484 0.06181 0.0
C480 C 0.45518 0.52628 0.06023 0.0
C481 C 0.48261 0.55761 0.05765 0.0
C482 C 0.52689 0.47839 0.0531 0.0
C483 C 0.49053 0.50295 0.0572 0.0
C484 C 0.53048 0.45086 0.0509 0.0
C485 C 0.50282 0.41957 0.05135 0.0
C486 C 0.49543 0.47445 0.05576 0.0
C487 C 0.47186 0.41665 0.05431 0.0
C488 C 0.45903 0.49888 0.06003 0.0
C489 C 0.51368 0.5607 0.0553 0.0
N490 N 0.469 0.44379 0.05636 0.0
N491 N 0.5168 0.53366 0.05505 0.0
H492 H 0.46874 0.22177 0.30385 0.0
H493 H 0.46314 0.23948 0.08356 0.0
H494 H 0.46651 0.15182 0.22573 0.0
H495 H 0.48215 0.31629 0.16108 0.0
H496 H 0.45216 0.20195 0.13581 0.0
H497 H 0.46111 0.25151 0.25247 0.0
C498 C 0.46576 0.21221 0.2761 0.0
C499 C 0.46857 0.18453 0.26896 0.0
C500 C 0.45829 0.22694 0.1413 0.0
C501 C 0.46023 0.21838 0.21013 0.0
C502 C 0.46437 0.24825 0.11146 0.0
C503 C 0.47393 0.2811 0.11799 0.0
C504 C 0.46157 0.23859 0.17779 0.0
C505 C 0.4753 0.29124 0.15476 0.0
C506 C 0.46169 0.22929 0.2467 0.0
C507 C 0.46483 0.17332 0.23237 0.0
N508 N 0.46948 0.27023 0.18317 0.0
N509 N 0.46118 0.19038 0.20438 0.0
H510 H 0.14806 0.47678 0.49804 0.0
H511 H 0.31041 0.47865 0.55982 0.0
H512 H 0.21917 0.47984 0.4211 0.0
H513 H 0.23779 0.47234 0.6367 0.0
H514 H 0.27356 0.47065 0.50889 0.0
H515 H 0.17609 0.46642 0.54812 0.0
C516 C 0.16935 0.47468 0.49157 0.0
C517 C 0.18149 0.4795 0.45532 0.0
C518 C 0.26535 0.47052 0.53682 0.0
C519 C 0.21422 0.46819 0.51303 0.0
C520 C 0.28639 0.47508 0.56604 0.0
C521 C 0.27725 0.47645 0.60263 0.0
C522 C 0.23487 0.46769 0.54396 0.0
C523 C 0.24579 0.47139 0.60897 0.0
C524 C 0.1854 0.46883 0.5203 0.0
C525 C 0.20898 0.47629 0.44858 0.0
N526 N 0.22589 0.46773 0.57984 0.0
N527 N 0.22475 0.47136 0.4773 0.0
H528 H 0.84012 0.31329 0.88469 0.0
H529 H 0.67169 0.15822 0.82874 0.0
H530 H 0.76963 0.24824 0.96413 0.0
H531 H 0.745 0.21917 0.74937 0.0
H532 H 0.71052 0.18584 0.87844 0.0
H533 H 0.80978 0.27457 0.83572 0.0
C534 C 0.81848 0.29046 0.89194 0.0
C535 C 0.80715 0.28415 0.92855 0.0
C536 C 0.71843 0.19295 0.85023 0.0
C537 C 0.77179 0.23979 0.87216 0.0
C538 C 0.69625 0.17718 0.82172 0.0
C539 C 0.70506 0.18663 0.78482 0.0
C540 C 0.74972 0.21888 0.84203 0.0
C541 C 0.73723 0.21111 0.7774 0.0
C542 C 0.80112 0.26838 0.86385 0.0
C543 C 0.77917 0.25414 0.93632 0.0
N544 N 0.75827 0.22679 0.80584 0.0
N545 N 0.7621 0.2333 0.90823 0.0
H546 H 0.50783 0.66667 0.16889 0.0
H547 H 0.5197 0.83665 0.21473 0.0
H548 H 0.52067 0.73755 0.08577 0.0
H549 H 0.51331 0.76876 0.29834 0.0
H550 H 0.52915 0.80496 0.16822 0.0
H551 H 0.51823 0.70699 0.21669 0.0
C552 C 0.51328 0.69095 0.16064 0.0
C553 C 0.51298 0.69863 0.12321 0.0
C554 C 0.52635 0.79721 0.19676 0.0
C555 C 0.52462 0.74504 0.1782 0.0
C556 C 0.5211 0.8154 0.22341 0.0
C557 C 0.51564 0.80523 0.26042 0.0
C558 C 0.52552 0.76813 0.20694 0.0
C559 C 0.51762 0.77754 0.27016 0.0
C560 C 0.51925 0.71401 0.18806 0.0
C561 C 0.52055 0.73055 0.11424 0.0
N562 N 0.52182 0.75958 0.24343 0.0
N563 N 0.52556 0.75245 0.14158 0.0
H564 H 0.66123 0.50639 0.54593 0.0
H565 H 0.83019 0.51684 0.49692 0.0
H566 H 0.73148 0.51569 0.62799 0.0
H567 H 0.76255 0.51289 0.41444 0.0
H568 H 0.79824 0.52461 0.54446 0.0
H569 H 0.70108 0.51651 0.49766 0.0
C570 C 0.68528 0.51099 0.55388 0.0
C571 C 0.69288 0.50977 0.59113 0.0
C572 C 0.79052 0.52255 0.51599 0.0
C573 C 0.73875 0.5211 0.53556 0.0
C574 C 0.80881 0.51817 0.48871 0.0
C575 C 0.7988 0.51383 0.45164 0.0
C576 C 0.76158 0.52216 0.50638 0.0
C577 C 0.7711 0.51604 0.44264 0.0
C578 C 0.70805 0.51679 0.52617 0.0
C579 C 0.72452 0.51626 0.59968 0.0
N580 N 0.75312 0.51951 0.46994 0.0
N581 N 0.74614 0.52117 0.57204 0.0
H582 H 0.21574 0.74399 0.95787 0.0
H583 H 0.24681 0.76847 0.73954 0.0
H584 H 0.15969 0.67043 0.8765 0.0
H585 H 0.30584 0.84066 0.82068 0.0
H586 H 0.20768 0.73636 0.78853 0.0
H587 H 0.24265 0.78376 0.90761 0.0
C588 C 0.20867 0.7364 0.92958 0.0
C589 C 0.18578 0.70381 0.92137 0.0
C590 C 0.22886 0.75961 0.79547 0.0
C591 C 0.21642 0.74883 0.86378 0.0
C592 C 0.25091 0.77806 0.76737 0.0
C593 C 0.27954 0.80713 0.77615 0.0
C594 C 0.23566 0.77039 0.83243 0.0
C595 C 0.28408 0.81821 0.81284 0.0
C596 C 0.22408 0.75899 0.90084 0.0
C597 C 0.17759 0.69522 0.88413 0.0
N598 N 0.26268 0.79971 0.83963 0.0
N599 N 0.19305 0.7174 0.85683 0.0
loop_
_geom_bond_atom_site_label_1
_geom_bond_atom_site_label_2
_geom_bond_distance
_geom_bond_site_symmetry_2
_ccdc_geom_bond_type
Co0 O1 2.216 . S
Co0 O2 2.091 . S
Co0 O4 2.004 . S
Co0 O10 2.021 . S
Co0 O12 2.137 . S
Co0 O13 2.244 . S
O1 Co0 2.216 . S
O1 C8 1.247 . S
O2 Co0 2.091 . S
O2 C8 1.261 . S
C3 O12 1.247 . S
C3 O13 1.272 . S
O4 Co0 2.004 . S
O4 C9 1.259 . S
Co5 O6 2.061 . S
Co5 O11 2.052 . S
Co5 O13 2.135 . S
O6 Co5 2.061 . S
O6 C9 1.235 . S
C7 O10 1.238 . S
C7 O11 1.241 . S
C8 O1 1.247 . S
C8 O2 1.261 . S
C9 O4 1.259 . S
C9 O6 1.235 . S
O10 Co0 2.021 . S
O10 C7 1.238 . S
O11 Co5 2.052 . S
O11 C7 1.241 . S
O12 Co0 2.137 . S
O12 C3 1.247 . S
O13 Co0 2.244 . S
O13 C3 1.272 . S
O13 Co5 2.135 . S
Co14 O15 2.216 . S
Co14 O16 2.091 . S
Co14 O18 2.004 . S
Co14 O24 2.021 . S
Co14 O26 2.137 . S
Co14 O27 2.244 . S
O15 Co14 2.216 . S
O15 C22 1.247 . S
O16 Co14 2.091 . S
O16 C22 1.261 . S
C17 O26 1.247 . S
C17 O27 1.272 . S
O18 Co14 2.004 . S
O18 C23 1.259 . S
Co19 O20 2.061 . S
Co19 O25 2.052 . S
Co19 O27 2.135 . S
O20 Co19 2.061 . S
O20 C23 1.235 . S
C21 O24 1.238 . S
C21 O25 1.241 . S
C22 O15 1.247 . S
C22 O16 1.261 . S
C23 O18 1.259 . S
C23 O20 1.235 . S
O24 Co14 2.021 . S
O24 C21 1.238 . S
O25 Co19 2.052 . S
O25 C21 1.241 . S
O26 Co14 2.137 . S
O26 C17 1.247 . S
O27 Co14 2.244 . S
O27 C17 1.272 . S
O27 Co19 2.135 . S
Co28 O29 2.216 . S
Co28 O30 2.091 . S
Co28 O32 2.004 . S
Co28 O38 2.021 1_556 S
Co28 O40 2.137 . S
Co28 O41 2.244 . S
O29 Co28 2.216 . S
O29 C36 1.247 . S
O30 Co28 2.091 . S
O30 C36 1.261 . S
C31 O40 1.247 . S
C31 O41 1.272 . S
O32 Co28 2.004 . S
O32 C37 1.259 . S
Co33 O34 2.061 . S
Co33 O39 2.052 . S
Co33 O41 2.135 1_554 S
O34 Co33 2.061 . S
O34 C37 1.235 1_554 S
C35 O38 1.238 . S
C35 O39 1.241 . S
C36 O29 1.247 . S
C36 O30 1.261 . S
C37 O32 1.259 . S
C37 O34 1.235 1_556 S
O38 Co28 2.021 1_554 S
O38 C35 1.238 . S
O39 Co33 2.052 . S
O39 C35 1.241 . S
O40 Co28 2.137 . S
O40 C31 1.247 . S
O41 Co28 2.244 . S
O41 C31 1.272 . S
O41 Co33 2.135 1_556 S
Co42 O43 2.216 . S
Co42 O44 2.091 . S
Co42 O46 2.004 . S
Co42 O52 2.021 . S
Co42 O54 2.137 . S
Co42 O55 2.244 . S
O43 Co42 2.216 . S
O43 C50 1.247 . S
O44 Co42 2.091 . S
O44 C50 1.261 . S
C45 O54 1.247 . S
C45 O55 1.272 . S
O46 Co42 2.004 . S
O46 C51 1.259 . S
Co47 O48 2.061 . S
Co47 O53 2.052 . S
Co47 O55 2.135 . S
O48 Co47 2.061 . S
O48 C51 1.235 . S
C49 O52 1.238 . S
C49 O53 1.241 . S
C50 O43 1.247 . S
C50 O44 1.261 . S
C51 O46 1.259 . S
C51 O48 1.235 . S
O52 Co42 2.021 . S
O52 C49 1.238 . S
O53 Co47 2.052 . S
O53 C49 1.241 . S
O54 Co42 2.137 . S
O54 C45 1.247 . S
O55 Co42 2.244 . S
O55 C45 1.272 . S
O55 Co47 2.135 . S
Co56 O57 2.216 . S
Co56 O58 2.091 . S
Co56 O60 2.004 . S
Co56 O66 2.021 . S
Co56 O68 2.137 . S
Co56 O69 2.244 . S
O57 Co56 2.216 . S
O57 C64 1.247 . S
O58 Co56 2.091 . S
O58 C64 1.261 . S
C59 O68 1.247 . S
C59 O69 1.272 . S
O60 Co56 2.004 . S
O60 C65 1.259 . S
Co61 O62 2.061 . S
Co61 O67 2.052 . S
Co61 O69 2.135 . S
O62 Co61 2.061 . S
O62 C65 1.235 . S
C63 O66 1.238 . S
C63 O67 1.241 . S
C64 O57 1.247 . S
C64 O58 1.261 . S
C65 O60 1.259 . S
C65 O62 1.235 . S
O66 Co56 2.021 . S
O66 C63 1.238 . S
O67 Co61 2.052 . S
O67 C63 1.241 . S
O68 Co56 2.137 . S
O68 C59 1.247 . S
O69 Co56 2.244 . S
O69 C59 1.272 . S
O69 Co61 2.135 . S
Co70 O71 2.216 . S
Co70 O72 2.091 . S
Co70 O74 2.004 . S
Co70 O80 2.021 1_556 S
Co70 O82 2.137 . S
Co70 O83 2.244 . S
O71 Co70 2.216 . S
O71 C78 1.247 . S
O72 Co70 2.091 . S
O72 C78 1.261 . S
C73 O82 1.247 . S
C73 O83 1.272 . S
O74 Co70 2.004 . S
O74 C79 1.259 . S
Co75 O76 2.061 . S
Co75 O81 2.052 . S
Co75 O83 2.135 1_554 S
O76 Co75 2.061 . S
O76 C79 1.235 1_554 S
C77 O80 1.238 . S
C77 O81 1.241 . S
C78 O71 1.247 . S
C78 O72 1.261 . S
C79 O74 1.259 . S
C79 O76 1.235 1_556 S
O80 Co70 2.021 1_554 S
O80 C77 1.238 . S
O81 Co75 2.052 . S
O81 C77 1.241 . S
O82 Co70 2.137 . S
O82 C73 1.247 . S
O83 Co70 2.244 . S
O83 C73 1.272 . S
O83 Co75 2.135 1_556 S
Co84 O85 2.216 . S
Co84 O86 2.091 . S
Co84 O88 2.004 . S
Co84 O94 2.021 . S
Co84 O96 2.137 . S
Co84 O97 2.244 . S
O85 Co84 2.216 . S
O85 C92 1.247 . S
O86 Co84 2.091 . S
O86 C92 1.261 . S
C87 O96 1.247 . S
C87 O97 1.272 . S
O88 Co84 2.004 . S
O88 C93 1.259 . S
Co89 O90 2.061 . S
Co89 O95 2.052 . S
Co89 O97 2.135 . S
O90 Co89 2.061 . S
O90 C93 1.235 . S
C91 O94 1.238 . S
C91 O95 1.241 . S
C92 O85 1.247 . S
C92 O86 1.261 . S
C93 O88 1.259 . S
C93 O90 1.235 . S
O94 Co84 2.021 . S
O94 C91 1.238 . S
O95 Co89 2.052 . S
O95 C91 1.241 . S
O96 Co84 2.137 . S
O96 C87 1.247 . S
O97 Co84 2.244 . S
O97 C87 1.272 . S
O97 Co89 2.135 . S
Co98 O99 2.216 . S
Co98 O100 2.091 . S
Co98 O102 2.004 . S
Co98 O108 2.021 . S
Co98 O110 2.137 . S
Co98 O111 2.244 . S
O99 Co98 2.216 . S
O99 C106 1.247 . S
O100 Co98 2.091 . S
O100 C106 1.261 . S
C101 O110 1.247 . S
C101 O111 1.272 . S
O102 Co98 2.004 . S
O102 C107 1.259 . S
Co103 O104 2.061 . S
Co103 O109 2.052 . S
Co103 O111 2.135 . S
O104 Co103 2.061 . S
O104 C107 1.235 . S
C105 O108 1.238 . S
C105 O109 1.241 . S
C106 O99 1.247 . S
C106 O100 1.261 . S
C107 O102 1.259 . S
C107 O104 1.235 . S
O108 Co98 2.021 . S
O108 C105 1.238 . S
O109 Co103 2.052 . S
O109 C105 1.241 . S
O110 Co98 2.137 . S
O110 C101 1.247 . S
O111 Co98 2.244 . S
O111 C101 1.272 . S
O111 Co103 2.135 . S
Co112 O113 2.216 . S
Co112 O114 2.091 . S
Co112 O116 2.004 . S
Co112 O122 2.021 1_554 S
Co112 O124 2.137 . S
Co112 O125 2.244 . S
O113 Co112 2.216 . S
O113 C120 1.247 . S
O114 Co112 2.091 . S
O114 C120 1.261 . S
C115 O124 1.247 . S
C115 O125 1.272 . S
O116 Co112 2.004 . S
O116 C121 1.259 . S
Co117 O118 2.061 1_556 S
Co117 O123 2.052 . S
Co117 O125 2.135 1_556 S
O118 Co117 2.061 1_554 S
O118 C121 1.235 . S
C119 O122 1.238 . S
C119 O123 1.241 . S
C120 O113 1.247 . S
C120 O114 1.261 . S
C121 O116 1.259 . S
C121 O118 1.235 . S
O122 Co112 2.021 1_556 S
O122 C119 1.238 . S
O123 Co117 2.052 . S
O123 C119 1.241 . S
O124 Co112 2.137 . S
O124 C115 1.247 . S
O125 Co112 2.244 . S
O125 C115 1.272 . S
O125 Co117 2.135 1_554 S
Co126 O127 2.216 . S
Co126 O128 2.091 . S
Co126 O130 2.004 . S
Co126 O136 2.021 . S
Co126 O138 2.137 . S
Co126 O139 2.244 . S
O127 Co126 2.216 . S
O127 C134 1.247 . S
O128 Co126 2.091 . S
O128 C134 1.261 . S
C129 O138 1.247 . S
C129 O139 1.272 . S
O130 Co126 2.004 . S
O130 C135 1.259 . S
Co131 O132 2.061 . S
Co131 O137 2.052 . S
Co131 O139 2.135 . S
O132 Co131 2.061 . S
O132 C135 1.235 . S
C133 O136 1.238 . S
C133 O137 1.241 . S
C134 O127 1.247 . S
C134 O128 1.261 . S
C135 O130 1.259 . S
C135 O132 1.235 . S
O136 Co126 2.021 . S
O136 C133 1.238 . S
O137 Co131 2.052 . S
O137 C133 1.241 . S
O138 Co126 2.137 . S
O138 C129 1.247 . S
O139 Co126 2.244 . S
O139 C129 1.272 . S
O139 Co131 2.135 . S
Co140 O141 2.216 . S
Co140 O142 2.091 . S
Co140 O144 2.004 . S
Co140 O150 2.021 . S
Co140 O152 2.137 . S
Co140 O153 2.244 . S
O141 Co140 2.216 . S
O141 C148 1.247 . S
O142 Co140 2.091 . S
O142 C148 1.261 . S
C143 O152 1.247 . S
C143 O153 1.272 . S
O144 Co140 2.004 . S
O144 C149 1.259 . S
Co145 O146 2.061 . S
Co145 O151 2.052 . S
Co145 O153 2.135 . S
O146 Co145 2.061 . S
O146 C149 1.235 . S
C147 O150 1.238 . S
C147 O151 1.241 . S
C148 O141 1.247 . S
C148 O142 1.261 . S
C149 O144 1.259 . S
C149 O146 1.235 . S
O150 Co140 2.021 . S
O150 C147 1.238 . S
O151 Co145 2.052 . S
O151 C147 1.241 . S
O152 Co140 2.137 . S
O152 C143 1.247 . S
O153 Co140 2.244 . S
O153 C143 1.272 . S
O153 Co145 2.135 . S
Co154 O155 2.216 . S
Co154 O156 2.091 . S
Co154 O158 2.004 . S
Co154 O164 2.021 1_554 S
Co154 O166 2.137 . S
Co154 O167 2.244 . S
O155 Co154 2.216 . S
O155 C162 1.247 . S
O156 Co154 2.091 . S
O156 C162 1.261 . S
C157 O166 1.247 . S
C157 O167 1.272 . S
O158 Co154 2.004 . S
O158 C163 1.259 . S
Co159 O160 2.061 1_556 S
Co159 O165 2.052 . S
Co159 O167 2.135 1_556 S
O160 Co159 2.061 1_554 S
O160 C163 1.235 . S
C161 O164 1.238 . S
C161 O165 1.241 . S
C162 O155 1.247 . S
C162 O156 1.261 . S
C163 O158 1.259 . S
C163 O160 1.235 . S
O164 Co154 2.021 1_556 S
O164 C161 1.238 . S
O165 Co159 2.052 . S
O165 C161 1.241 . S
O166 Co154 2.137 . S
O166 C157 1.247 . S
O167 Co154 2.244 . S
O167 C157 1.272 . S
O167 Co159 2.135 1_554 S
H168 C174 0.930 . S
H169 C178 0.930 . S
H170 C183 0.929 . S
H171 C181 0.929 . S
H172 C176 0.929 . S
H173 C182 0.929 . S
C174 H168 0.930 . S
C174 C175 1.367 . S
C174 C182 1.378 . S
C175 C174 1.367 . S
C175 C183 1.433 . S
C176 H172 0.929 . S
C176 C178 1.378 . S
C176 C180 1.350 . S
C177 C180 1.463 . S
C177 C182 1.350 . S
C177 N185 1.427 . S
C178 H169 0.930 . S
C178 C176 1.378 . S
C178 C179 1.367 . S
C179 C178 1.367 . S
C179 C181 1.433 . S
C180 C176 1.350 . S
C180 C177 1.463 . S
C180 N184 1.427 . S
C181 H171 0.929 . S
C181 C179 1.433 . S
C181 N184 1.384 . S
C182 H173 0.929 . S
C182 C174 1.378 . S
C182 C177 1.350 . S
C183 H170 0.929 . S
C183 C175 1.433 . S
C183 N185 1.384 . S
N184 C180 1.427 . S
N184 C181 1.384 . S
N185 C177 1.427 . S
N185 C183 1.384 . S
H186 C192 0.930 . S
H187 C196 0.930 . S
H188 C201 0.929 . S
H189 C199 0.929 . S
H190 C194 0.929 . S
H191 C200 0.929 . S
C192 H186 0.930 . S
C192 C193 1.367 . S
C192 C200 1.378 . S
C193 C192 1.367 . S
C193 C201 1.433 . S
C194 H190 0.929 . S
C194 C196 1.378 . S
C194 C198 1.350 . S
C195 C198 1.463 . S
C195 C200 1.350 . S
C195 N203 1.427 . S
C196 H187 0.930 . S
C196 C194 1.378 . S
C196 C197 1.367 . S
C197 C196 1.367 . S
C197 C199 1.433 . S
C198 C194 1.350 . S
C198 C195 1.463 . S
C198 N202 1.427 . S
C199 H189 0.929 . S
C199 C197 1.433 . S
C199 N202 1.384 . S
C200 H191 0.929 . S
C200 C192 1.378 . S
C200 C195 1.350 . S
C201 H188 0.929 . S
C201 C193 1.433 . S
C201 N203 1.384 . S
N202 C198 1.427 . S
N202 C199 1.384 . S
N203 C195 1.427 . S
N203 C201 1.384 . S
H204 C210 0.930 . S
H205 C214 0.930 . S
H206 C219 0.929 . S
H207 C217 0.929 . S
H208 C212 0.929 . S
H209 C218 0.929 . S
C210 H204 0.930 . S
C210 C211 1.367 . S
C210 C218 1.378 . S
C211 C210 1.367 . S
C211 C219 1.433 . S
C212 H208 0.929 . S
C212 C214 1.378 . S
C212 C216 1.350 . S
C213 C216 1.463 . S
C213 C218 1.350 . S
C213 N221 1.427 . S
C214 H205 0.930 . S
C214 C212 1.378 . S
C214 C215 1.367 . S
C215 C214 1.367 . S
C215 C217 1.433 . S
C216 C212 1.350 . S
C216 C213 1.463 . S
C216 N220 1.427 . S
C217 H207 0.929 . S
C217 C215 1.433 . S
C217 N220 1.384 . S
C218 H209 0.929 . S
C218 C210 1.378 . S
C218 C213 1.350 . S
C219 H206 0.929 . S
C219 C211 1.433 . S
C219 N221 1.384 . S
N220 C216 1.427 . S
N220 C217 1.384 . S
N221 C213 1.427 . S
N221 C219 1.384 . S
H222 C228 0.930 . S
H223 C232 0.930 . S
H224 C237 0.929 . S
H225 C235 0.929 . S
H226 C230 0.929 . S
H227 C236 0.929 . S
C228 H222 0.930 . S
C228 C229 1.367 . S
C228 C236 1.378 . S
C229 C228 1.367 . S
C229 C237 1.433 . S
C230 H226 0.929 . S
C230 C232 1.378 . S
C230 C234 1.350 . S
C231 C234 1.463 . S
C231 C236 1.350 . S
C231 N239 1.427 . S
C232 H223 0.930 . S
C232 C230 1.378 . S
C232 C233 1.367 . S
C233 C232 1.367 . S
C233 C235 1.433 . S
C234 C230 1.350 . S
C234 C231 1.463 . S
C234 N238 1.427 . S
C235 H225 0.929 . S
C235 C233 1.433 . S
C235 N238 1.384 . S
C236 H227 0.929 . S
C236 C228 1.378 . S
C236 C231 1.350 . S
C237 H224 0.929 . S
C237 C229 1.433 . S
C237 N239 1.384 . S
N238 C234 1.427 . S
N238 C235 1.384 . S
N239 C231 1.427 . S
N239 C237 1.384 . S
H240 C246 0.930 . S
H241 C250 0.930 . S
H242 C255 0.929 . S
H243 C253 0.929 . S
H244 C248 0.929 . S
H245 C254 0.929 . S
C246 H240 0.930 . S
C246 C247 1.367 . S
C246 C254 1.378 . S
C247 C246 1.367 . S
C247 C255 1.433 . S
C248 H244 0.929 . S
C248 C250 1.378 . S
C248 C252 1.350 . S
C249 C252 1.463 . S
C249 C254 1.350 . S
C249 N257 1.427 . S
C250 H241 0.930 . S
C250 C248 1.378 . S
C250 C251 1.367 . S
C251 C250 1.367 . S
C251 C253 1.433 . S
C252 C248 1.350 . S
C252 C249 1.463 . S
C252 N256 1.427 . S
C253 H243 0.929 . S
C253 C251 1.433 . S
C253 N256 1.384 . S
C254 H245 0.929 . S
C254 C246 1.378 . S
C254 C249 1.350 . S
C255 H242 0.929 . S
C255 C247 1.433 . S
C255 N257 1.384 . S
N256 C252 1.427 . S
N256 C253 1.384 . S
N257 C249 1.427 . S
N257 C255 1.384 . S
H258 C264 0.930 . S
H259 C268 0.930 . S
H260 C273 0.929 . S
H261 C271 0.929 . S
H262 C266 0.929 . S
H263 C272 0.929 . S
C264 H258 0.930 . S
C264 C265 1.367 . S
C264 C272 1.378 . S
C265 C264 1.367 . S
C265 C273 1.433 . S
C266 H262 0.929 . S
C266 C268 1.378 . S
C266 C270 1.350 . S
C267 C270 1.463 . S
C267 C272 1.350 . S
C267 N275 1.427 . S
C268 H259 0.930 . S
C268 C266 1.378 . S
C268 C269 1.367 . S
C269 C268 1.367 . S
C269 C271 1.433 . S
C270 C266 1.350 . S
C270 C267 1.463 . S
C270 N274 1.427 . S
C271 H261 0.929 . S
C271 C269 1.433 . S
C271 N274 1.384 . S
C272 H263 0.929 . S
C272 C264 1.378 . S
C272 C267 1.350 . S
C273 H260 0.929 . S
C273 C265 1.433 . S
C273 N275 1.384 . S
N274 C270 1.427 . S
N274 C271 1.384 . S
N275 C267 1.427 . S
N275 C273 1.384 . S
H276 C282 0.930 . S
H277 C286 0.930 . S
H278 C291 0.929 . S
H279 C289 0.929 . S
H280 C284 0.929 . S
H281 C290 0.929 . S
C282 H276 0.930 . S
C282 C283 1.367 . S
C282 C290 1.378 . S
C283 C282 1.367 . S
C283 C291 1.433 . S
C284 H280 0.929 . S
C284 C286 1.378 . S
C284 C288 1.350 . S
C285 C288 1.463 . S
C285 C290 1.350 . S
C285 N293 1.427 . S
C286 H277 0.930 . S
C286 C284 1.378 . S
C286 C287 1.367 . S
C287 C286 1.367 . S
C287 C289 1.433 . S
C288 C284 1.350 . S
C288 C285 1.463 . S
C288 N292 1.427 . S
C289 H279 0.929 . S
C289 C287 1.433 . S
C289 N292 1.384 . S
C290 H281 0.929 . S
C290 C282 1.378 . S
C290 C285 1.350 . S
C291 H278 0.929 . S
C291 C283 1.433 . S
C291 N293 1.384 . S
N292 C288 1.427 . S
N292 C289 1.384 . S
N293 C285 1.427 . S
N293 C291 1.384 . S
H294 C300 0.930 . S
H295 C304 0.930 . S
H296 C309 0.929 . S
H297 C307 0.929 . S
H298 C302 0.929 . S
H299 C308 0.929 . S
C300 H294 0.930 . S
C300 C301 1.367 . S
C300 C308 1.378 . S
C301 C300 1.367 . S
C301 C309 1.433 . S
C302 H298 0.929 . S
C302 C304 1.378 . S
C302 C306 1.350 . S
C303 C306 1.463 . S
C303 C308 1.350 . S
C303 N311 1.427 . S
C304 H295 0.930 . S
C304 C302 1.378 . S
C304 C305 1.367 . S
C305 C304 1.367 . S
C305 C307 1.433 . S
C306 C302 1.350 . S
C306 C303 1.463 . S
C306 N310 1.427 . S
C307 H297 0.929 . S
C307 C305 1.433 . S
C307 N310 1.384 . S
C308 H299 0.929 . S
C308 C300 1.378 . S
C308 C303 1.350 . S
C309 H296 0.929 . S
C309 C301 1.433 . S
C309 N311 1.384 . S
N310 C306 1.427 . S
N310 C307 1.384 . S
N311 C303 1.427 . S
N311 C309 1.384 . S
H312 C318 0.930 . S
H313 C322 0.930 . S
H314 C327 0.929 . S
H315 C325 0.929 . S
H316 C320 0.929 . S
H317 C326 0.929 . S
C318 H312 0.930 . S
C318 C319 1.367 . S
C318 C326 1.378 . S
C319 C318 1.367 . S
C319 C327 1.433 . S
C320 H316 0.929 . S
C320 C322 1.378 1_554 S
C320 C324 1.350 . S
C321 C324 1.463 . S
C321 C326 1.350 . S
C321 N329 1.427 . S
C322 H313 0.930 . S
C322 C320 1.378 1_556 S
C322 C323 1.367 . S
C323 C322 1.367 . S
C323 C325 1.433 . S
C324 C320 1.350 . S
C324 C321 1.463 . S
C324 N328 1.427 1_554 S
C325 H315 0.929 . S
C325 C323 1.433 . S
C325 N328 1.384 . S
C326 H317 0.929 . S
C326 C318 1.378 . S
C326 C321 1.350 . S
C327 H314 0.929 . S
C327 C319 1.433 . S
C327 N329 1.384 . S
N328 C324 1.427 1_556 S
N328 C325 1.384 . S
N329 C321 1.427 . S
N329 C327 1.384 . S
H330 C336 0.930 . S
H331 C340 0.930 . S
H332 C345 0.929 . S
H333 C343 0.929 . S
H334 C338 0.929 . S
H335 C344 0.929 . S
C336 H330 0.930 . S
C336 C337 1.367 . S
C336 C344 1.378 . S
C337 C336 1.367 . S
C337 C345 1.433 . S
C338 H334 0.929 . S
C338 C340 1.378 . S
C338 C342 1.350 . S
C339 C342 1.463 . S
C339 C344 1.350 . S
C339 N347 1.427 . S
C340 H331 0.930 . S
C340 C338 1.378 . S
C340 C341 1.367 . S
C341 C340 1.367 . S
C341 C343 1.433 . S
C342 C338 1.350 . S
C342 C339 1.463 . S
C342 N346 1.427 . S
C343 H333 0.929 . S
C343 C341 1.433 . S
C343 N346 1.384 . S
C344 H335 0.929 . S
C344 C336 1.378 . S
C344 C339 1.350 . S
C345 H332 0.929 . S
C345 C337 1.433 . S
C345 N347 1.384 . S
N346 C342 1.427 . S
N346 C343 1.384 . S
N347 C339 1.427 . S
N347 C345 1.384 . S
H348 C354 0.930 . S
H349 C358 0.930 . S
H350 C363 0.929 . S
H351 C361 0.929 . S
H352 C356 0.929 . S
H353 C362 0.929 . S
C354 H348 0.930 . S
C354 C355 1.367 . S
C354 C362 1.378 . S
C355 C354 1.367 . S
C355 C363 1.433 . S
C356 H352 0.929 . S
C356 C358 1.378 . S
C356 C360 1.350 . S
C357 C360 1.463 . S
C357 C362 1.350 . S
C357 N365 1.427 . S
C358 H349 0.930 . S
C358 C356 1.378 . S
C358 C359 1.367 . S
C359 C358 1.367 . S
C359 C361 1.433 . S
C360 C356 1.350 . S
C360 C357 1.463 . S
C360 N364 1.427 . S
C361 H351 0.929 . S
C361 C359 1.433 . S
C361 N364 1.384 . S
C362 H353 0.929 . S
C362 C354 1.378 . S
C362 C357 1.350 . S
C363 H350 0.929 . S
C363 C355 1.433 . S
C363 N365 1.384 . S
N364 C360 1.427 . S
N364 C361 1.384 . S
N365 C357 1.427 . S
N365 C363 1.384 . S
H366 C372 0.930 . S
H367 C376 0.930 . S
H368 C381 0.929 . S
H369 C379 0.929 . S
H370 C374 0.929 . S
H371 C380 0.929 . S
C372 H366 0.930 . S
C372 C373 1.367 . S
C372 C380 1.378 1_556 S
C373 C372 1.367 . S
C373 C381 1.433 . S
C374 H370 0.929 . S
C374 C376 1.378 . S
C374 C378 1.350 . S
C375 C378 1.463 . S
C375 C380 1.350 . S
C375 N383 1.427 1_554 S
C376 H367 0.930 . S
C376 C374 1.378 . S
C376 C377 1.367 . S
C377 C376 1.367 . S
C377 C379 1.433 . S
C378 C374 1.350 . S
C378 C375 1.463 . S
C378 N382 1.427 . S
C379 H369 0.929 . S
C379 C377 1.433 . S
C379 N382 1.384 . S
C380 H371 0.929 . S
C380 C372 1.378 1_554 S
C380 C375 1.350 . S
C381 H368 0.929 . S
C381 C373 1.433 . S
C381 N383 1.384 . S
N382 C378 1.427 . S
N382 C379 1.384 . S
N383 C375 1.427 1_556 S
N383 C381 1.384 . S
H384 C390 0.930 . S
H385 C394 0.930 . S
H386 C399 0.929 . S
H387 C397 0.929 . S
H388 C392 0.929 . S
H389 C398 0.929 . S
C390 H384 0.930 . S
C390 C391 1.367 . S
C390 C398 1.378 . S
C391 C390 1.367 . S
C391 C399 1.433 . S
C392 H388 0.929 . S
C392 C394 1.378 . S
C392 C396 1.350 . S
C393 C396 1.463 1_545 S
C393 C398 1.350 . S
C393 N401 1.427 . S
C394 H385 0.930 . S
C394 C392 1.378 . S
C394 C395 1.367 . S
C395 C394 1.367 . S
C395 C397 1.433 . S
C396 C392 1.350 . S
C396 C393 1.463 1_565 S
C396 N400 1.427 . S
C397 H387 0.929 . S
C397 C395 1.433 . S
C397 N400 1.384 . S
C398 H389 0.929 . S
C398 C390 1.378 . S
C398 C393 1.350 . S
C399 H386 0.929 . S
C399 C391 1.433 . S
C399 N401 1.384 . S
N400 C396 1.427 . S
N400 C397 1.384 . S
N401 C393 1.427 . S
N401 C399 1.384 . S
H402 C408 0.930 . S
H403 C412 0.930 . S
H404 C417 0.929 . S
H405 C415 0.929 . S
H406 C410 0.929 . S
H407 C416 0.929 . S
C408 H402 0.930 . S
C408 C409 1.367 . S
C408 C416 1.378 . S
C409 C408 1.367 . S
C409 C417 1.433 . S
C410 H406 0.929 . S
C410 C412 1.378 . S
C410 C414 1.350 . S
C411 C414 1.463 . S
C411 C416 1.350 . S
C411 N419 1.427 . S
C412 H403 0.930 . S
C412 C410 1.378 . S
C412 C413 1.367 . S
C413 C412 1.367 . S
C413 C415 1.433 . S
C414 C410 1.350 . S
C414 C411 1.463 . S
C414 N418 1.427 . S
C415 H405 0.929 . S
C415 C413 1.433 . S
C415 N418 1.384 . S
C416 H407 0.929 . S
C416 C408 1.378 . S
C416 C411 1.350 . S
C417 H404 0.929 . S
C417 C409 1.433 . S
C417 N419 1.384 . S
N418 C414 1.427 . S
N418 C415 1.384 . S
N419 C411 1.427 . S
N419 C417 1.384 . S
H420 C426 0.930 . S
H421 C430 0.930 . S
H422 C435 0.929 . S
H423 C433 0.929 . S
H424 C428 0.929 . S
H425 C434 0.929 . S
C426 H420 0.930 . S
C426 C427 1.367 . S
C426 C434 1.378 . S
C427 C426 1.367 . S
C427 C435 1.433 1_556 S
C428 H424 0.929 . S
C428 C430 1.378 . S
C428 C432 1.350 1_554 S
C429 C432 1.463 1_655 S
C429 C434 1.350 . S
C429 N437 1.427 1_556 S
C430 H421 0.930 . S
C430 C428 1.378 . S
C430 C431 1.367 1_554 S
C431 C430 1.367 1_556 S
C431 C433 1.433 . S
C432 C428 1.350 1_556 S
C432 C429 1.463 1_455 S
C432 N436 1.427 . S
C433 H423 0.929 . S
C433 C431 1.433 . S
C433 N436 1.384 . S
C434 H425 0.929 . S
C434 C426 1.378 . S
C434 C429 1.350 . S
C435 H422 0.929 . S
C435 C427 1.433 1_554 S
C435 N437 1.384 . S
N436 C432 1.427 . S
N436 C433 1.384 . S
N437 C429 1.427 1_554 S
N437 C435 1.384 . S
H438 C444 0.930 . S
H439 C448 0.930 . S
H440 C453 0.929 . S
H441 C451 0.929 . S
H442 C446 0.929 . S
H443 C452 0.929 . S
C444 H438 0.930 . S
C444 C445 1.367 . S
C444 C452 1.378 . S
C445 C444 1.367 . S
C445 C453 1.433 . S
C446 H442 0.929 . S
C446 C448 1.378 . S
C446 C450 1.350 . S
C447 C450 1.463 1_455 S
C447 C452 1.350 . S
C447 N455 1.427 . S
C448 H439 0.930 . S
C448 C446 1.378 . S
C448 C449 1.367 . S
C449 C448 1.367 . S
C449 C451 1.433 . S
C450 C446 1.350 . S
C450 C447 1.463 1_655 S
C450 N454 1.427 . S
C451 H441 0.929 . S
C451 C449 1.433 . S
C451 N454 1.384 . S
C452 H443 0.929 . S
C452 C444 1.378 . S
C452 C447 1.350 . S
C453 H440 0.929 . S
C453 C445 1.433 . S
C453 N455 1.384 . S
N454 C450 1.427 . S
N454 C451 1.384 . S
N455 C447 1.427 . S
N455 C453 1.384 . S
H456 C462 0.930 . S
H457 C466 0.930 . S
H458 C471 0.929 . S
H459 C469 0.929 . S
H460 C464 0.929 . S
H461 C470 0.929 . S
C462 H456 0.930 . S
C462 C463 1.367 . S
C462 C470 1.378 . S
C463 C462 1.367 . S
C463 C471 1.433 . S
C464 H460 0.929 . S
C464 C466 1.378 . S
C464 C468 1.350 . S
C465 C468 1.463 1_545 S
C465 C470 1.350 . S
C465 N473 1.427 . S
C466 H457 0.930 . S
C466 C464 1.378 . S
C466 C467 1.367 . S
C467 C466 1.367 . S
C467 C469 1.433 . S
C468 C464 1.350 . S
C468 C465 1.463 1_565 S
C468 N472 1.427 . S
C469 H459 0.929 . S
C469 C467 1.433 . S
C469 N472 1.384 . S
C470 H461 0.929 . S
C470 C462 1.378 . S
C470 C465 1.350 . S
C471 H458 0.929 . S
C471 C463 1.433 . S
C471 N473 1.384 . S
N472 C468 1.427 . S
N472 C469 1.384 . S
N473 C465 1.427 . S
N473 C471 1.384 . S
H474 C480 0.930 . S
H475 C484 0.930 1_556 S
H476 C489 0.929 1_556 S
H477 C487 0.929 . S
H478 C482 0.929 1_556 S
H479 C488 0.929 . S
C480 H474 0.930 . S
C480 C481 1.367 . S
C480 C488 1.378 . S
C481 C480 1.367 . S
C481 C489 1.433 . S
C482 H478 0.929 1_554 S
C482 C484 1.378 . S
C482 C486 1.350 . S
C483 C486 1.463 . S
C483 C488 1.350 . S
C483 N491 1.427 . S
C484 H475 0.930 1_554 S
C484 C482 1.378 . S
C484 C485 1.367 . S
C485 C484 1.367 . S
C485 C487 1.433 . S
C486 C482 1.350 . S
C486 C483 1.463 . S
C486 N490 1.427 . S
C487 H477 0.929 . S
C487 C485 1.433 . S
C487 N490 1.384 . S
C488 H479 0.929 . S
C488 C480 1.378 . S
C488 C483 1.350 . S
C489 H476 0.929 1_554 S
C489 C481 1.433 . S
C489 N491 1.384 . S
N490 C486 1.427 . S
N490 C487 1.384 . S
N491 C483 1.427 . S
N491 C489 1.384 . S
H492 C498 0.930 . S
H493 C502 0.930 . S
H494 C507 0.929 . S
H495 C505 0.929 . S
H496 C500 0.929 . S
H497 C506 0.929 . S
C498 H492 0.930 . S
C498 C499 1.367 . S
C498 C506 1.378 . S
C499 C498 1.367 . S
C499 C507 1.433 . S
C500 H496 0.929 . S
C500 C502 1.378 . S
C500 C504 1.350 . S
C501 C504 1.463 . S
C501 C506 1.350 . S
C501 N509 1.427 . S
C502 H493 0.930 . S
C502 C500 1.378 . S
C502 C503 1.367 . S
C503 C502 1.367 . S
C503 C505 1.433 . S
C504 C500 1.350 . S
C504 C501 1.463 . S
C504 N508 1.427 . S
C505 H495 0.929 . S
C505 C503 1.433 . S
C505 N508 1.384 . S
C506 H497 0.929 . S
C506 C498 1.378 . S
C506 C501 1.350 . S
C507 H494 0.929 . S
C507 C499 1.433 . S
C507 N509 1.384 . S
N508 C504 1.427 . S
N508 C505 1.384 . S
N509 C501 1.427 . S
N509 C507 1.384 . S
H510 C516 0.930 . S
H511 C520 0.930 . S
H512 C525 0.929 . S
H513 C523 0.929 . S
H514 C518 0.929 . S
H515 C524 0.929 . S
C516 H510 0.930 . S
C516 C517 1.367 . S
C516 C524 1.378 . S
C517 C516 1.367 . S
C517 C525 1.433 . S
C518 H514 0.929 . S
C518 C520 1.378 . S
C518 C522 1.350 . S
C519 C522 1.463 . S
C519 C524 1.350 . S
C519 N527 1.427 . S
C520 H511 0.930 . S
C520 C518 1.378 . S
C520 C521 1.367 . S
C521 C520 1.367 . S
C521 C523 1.433 . S
C522 C518 1.350 . S
C522 C519 1.463 . S
C522 N526 1.427 . S
C523 H513 0.929 . S
C523 C521 1.433 . S
C523 N526 1.384 . S
C524 H515 0.929 . S
C524 C516 1.378 . S
C524 C519 1.350 . S
C525 H512 0.929 . S
C525 C517 1.433 . S
C525 N527 1.384 . S
N526 C522 1.427 . S
N526 C523 1.384 . S
N527 C519 1.427 . S
N527 C525 1.384 . S
H528 C534 0.930 . S
H529 C538 0.930 . S
H530 C543 0.929 . S
H531 C541 0.929 . S
H532 C536 0.929 . S
H533 C542 0.929 . S
C534 H528 0.930 . S
C534 C535 1.367 . S
C534 C542 1.378 . S
C535 C534 1.367 . S
C535 C543 1.433 . S
C536 H532 0.929 . S
C536 C538 1.378 . S
C536 C540 1.350 . S
C537 C540 1.463 . S
C537 C542 1.350 . S
C537 N545 1.427 . S
C538 H529 0.930 . S
C538 C536 1.378 . S
C538 C539 1.367 . S
C539 C538 1.367 . S
C539 C541 1.433 . S
C540 C536 1.350 . S
C540 C537 1.463 . S
C540 N544 1.427 . S
C541 H531 0.929 . S
C541 C539 1.433 . S
C541 N544 1.384 . S
C542 H533 0.929 . S
C542 C534 1.378 . S
C542 C537 1.350 . S
C543 H530 0.929 . S
C543 C535 1.433 . S
C543 N545 1.384 . S
N544 C540 1.427 . S
N544 C541 1.384 . S
N545 C537 1.427 . S
N545 C543 1.384 . S
H546 C552 0.930 . S
H547 C556 0.930 . S
H548 C561 0.929 . S
H549 C559 0.929 . S
H550 C554 0.929 . S
H551 C560 0.929 . S
C552 H546 0.930 . S
C552 C553 1.367 . S
C552 C560 1.378 . S
C553 C552 1.367 . S
C553 C561 1.433 . S
C554 H550 0.929 . S
C554 C556 1.378 . S
C554 C558 1.350 . S
C555 C558 1.463 . S
C555 C560 1.350 . S
C555 N563 1.427 . S
C556 H547 0.930 . S
C556 C554 1.378 . S
C556 C557 1.367 . S
C557 C556 1.367 . S
C557 C559 1.433 . S
C558 C554 1.350 . S
C558 C555 1.463 . S
C558 N562 1.427 . S
C559 H549 0.929 . S
C559 C557 1.433 . S
C559 N562 1.384 . S
C560 H551 0.929 . S
C560 C552 1.378 . S
C560 C555 1.350 . S
C561 H548 0.929 . S
C561 C553 1.433 . S
C561 N563 1.384 . S
N562 C558 1.427 . S
N562 C559 1.384 . S
N563 C555 1.427 . S
N563 C561 1.384 . S
H564 C570 0.930 . S
H565 C574 0.930 . S
H566 C579 0.929 . S
H567 C577 0.929 . S
H568 C572 0.929 . S
H569 C578 0.929 . S
C570 H564 0.930 . S
C570 C571 1.367 . S
C570 C578 1.378 . S
C571 C570 1.367 . S
C571 C579 1.433 . S
C572 H568 0.929 . S
C572 C574 1.378 . S
C572 C576 1.350 . S
C573 C576 1.463 . S
C573 C578 1.350 . S
C573 N581 1.427 . S
C574 H565 0.930 . S
C574 C572 1.378 . S
C574 C575 1.367 . S
C575 C574 1.367 . S
C575 C577 1.433 . S
C576 C572 1.350 . S
C576 C573 1.463 . S
C576 N580 1.427 . S
C577 H567 0.929 . S
C577 C575 1.433 . S
C577 N580 1.384 . S
C578 H569 0.929 . S
C578 C570 1.378 . S
C578 C573 1.350 . S
C579 H566 0.929 . S
C579 C571 1.433 . S
C579 N581 1.384 . S
N580 C576 1.427 . S
N580 C577 1.384 . S
N581 C573 1.427 . S
N581 C579 1.384 . S
H582 C588 0.930 . S
H583 C592 0.930 . S
H584 C597 0.929 . S
H585 C595 0.929 . S
H586 C590 0.929 . S
H587 C596 0.929 . S
C588 H582 0.930 . S
C588 C589 1.367 . S
C588 C596 1.378 . S
C589 C588 1.367 . S
C589 C597 1.433 . S
C590 H586 0.929 . S
C590 C592 1.378 . S
C590 C594 1.350 . S
C591 C594 1.463 . S
C591 C596 1.350 . S
C591 N599 1.427 . S
C592 H583 0.930 . S
C592 C590 1.378 . S
C592 C593 1.367 . S
C593 C592 1.367 . S
C593 C595 1.433 . S
C594 C590 1.350 . S
C594 C591 1.463 . S
C594 N598 1.427 . S
C595 H585 0.929 . S
C595 C593 1.433 . S
C595 N598 1.384 . S
C596 H587 0.929 . S
C596 C588 1.378 . S
C596 C591 1.350 . S
C597 H584 0.929 . S
C597 C589 1.433 . S
C597 N599 1.384 . S
N598 C594 1.427 . S
N598 C595 1.384 . S
N599 C591 1.427 . S
N599 C597 1.384 . S
C175 C7 1.612 . S
C179 C147 1.602 . S
C193 C21 1.615 . S
C197 C161 1.607 . S
C211 C91 1.614 . S
C215 C35 1.613 . S
C229 C49 1.605 . S
C233 C105 1.598 . S
C247 C119 1.608 . S
C251 C63 1.598 . S
C265 C133 1.612 . S
C269 C77 1.614 . S
C283 C93 0.490 . S
C287 C9 0.461 . S
C301 C107 0.463 . S
C305 C23 0.464 . S
C319 C121 0.460 . S
C323 C37 0.489 . S
C337 C51 0.492 . S
C341 C135 0.463 . S
C355 C65 0.482 . S
C359 C149 0.457 . S
C373 C79 0.460 . S
C377 C163 0.490 . S
C391 C8 1.464 . S
C395 C50 1.461 . S
C409 C22 1.464 . S
C413 C64 1.467 . S
C427 C36 1.467 . S
C431 C78 1.463 . S
C445 C134 1.463 . S
C449 C92 1.467 . S
C463 C148 1.462 . S
C467 C106 1.461 . S
C481 C162 1.463 . S
C485 C120 1.460 . S
C499 C3 1.541 . S
C503 C115 1.554 . S
C517 C129 1.541 . S
C521 C17 1.553 . S
C535 C31 1.545 . S
C539 C143 1.546 . S
C553 C157 1.549 . S
C557 C45 1.542 . S
C571 C59 1.545 . S
C575 C87 1.546 . S
C589 C73 1.555 . S
C593 C101 1.541 . S
