# Generated by pormake.
# Topology uom, (4)-cn, num edge types: 1
# Building blocks:
#     Node 0, Type 0, BuildingBlock: ESEHIV_clean_sbu_0, # of connection points: 4
#     Node 1, Type 0, BuildingBlock: ESEHIV_clean_sbu_0, # of connection points: 4
#     Node 2, Type 0, BuildingBlock: ESEHIV_clean_sbu_0, # of connection points: 4
#     Node 3, Type 0, BuildingBlock: ESEHIV_clean_sbu_0, # of connection points: 4
#     Node 4, Type 0, BuildingBlock: ESEHIV_clean_sbu_0, # of connection points: 4
#     Node 5, Type 0, BuildingBlock: ESEHIV_clean_sbu_0, # of connection points: 4
#     Edge 6, Type (0, 0), BuildingBlock: TEMPAE_clean_linker_10, # of connection points: 2
#     Edge 7, Type (0, 0), BuildingBlock: TEMPAE_clean_linker_10, # of connection points: 2
#     Edge 8, Type (0, 0), BuildingBlock: TEMPAE_clean_linker_10, # of connection points: 2
#     Edge 9, Type (0, 0), BuildingBlock: TEMPAE_clean_linker_10, # of connection points: 2
#     Edge 10, Type (0, 0), BuildingBlock: TEMPAE_clean_linker_10, # of connection points: 2
#     Edge 11, Type (0, 0), BuildingBlock: TEMPAE_clean_linker_10, # of connection points: 2
#     Edge 12, Type (0, 0), BuildingBlock: TEMPAE_clean_linker_10, # of connection points: 2
#     Edge 13, Type (0, 0), BuildingBlock: TEMPAE_clean_linker_10, # of connection points: 2
#     Edge 14, Type (0, 0), BuildingBlock: TEMPAE_clean_linker_10, # of connection points: 2
#     Edge 15, Type (0, 0), BuildingBlock: TEMPAE_clean_linker_10, # of connection points: 2
#     Edge 16, Type (0, 0), BuildingBlock: TEMPAE_clean_linker_10, # of connection points: 2
#     Edge 17, Type (0, 0), BuildingBlock: TEMPAE_clean_linker_10, # of connection points: 2
# Relax obj value: 0.100
# Max RMSD: 0.201
# Mean RMSD: 0.159
data_MOF--net-uom--node1-ESEHIV_clean_sbu_0--edge1-TEMPAE_clean_linker_10
_symmetry_space_group_name_H-M    P1
_symmetry_Int_Tables_number       1
_symmetry_cell_setting            triclinic
loop_
_symmetry_equiv_pos_as_xyz
'x, y, z'
_cell_length_a     29.769567
_cell_length_b     29.089198
_cell_length_c     47.287541
_cell_angle_alpha  89.786367
_cell_angle_beta   90.022661
_cell_angle_gamma 124.88935
loop_
_atom_site_label
_atom_site_type_symbol
_atom_site_fract_x
_atom_site_fract_y
_atom_site_fract_z
_atom_type_partial_charge
Cu0 Cu 0.37137 0.04089 0.05031 0.0
N1 N 0.34057 -0.01484 1.0225 0.0
N2 N 0.32218 0.946 0.97963 0.0
C3 C 0.35024 -0.00579 0.99452 0.0
C4 C 0.29375 0.90507 0.99917 0.0
C5 C 0.30516 0.92934 1.02556 0.0
O6 O 0.45135 0.08016 0.0485 0.0
C7 C 0.28931 0.05533 0.04346 0.0
O8 O 0.26297 0.00078 0.0463 0.0
H9 H 0.3779 0.03549 0.98542 0.0
H10 H 0.28855 0.90791 0.04554 0.0
N11 N 0.34947 0.01073 0.08675 0.0
N12 N 0.32972 0.00777 0.13259 0.0
C13 C 0.3355 0.03225 0.10732 0.0
C14 C 0.35231 0.97093 0.09944 0.0
C15 C 0.34039 0.96922 0.12782 0.0
C16 C 0.46753 0.04797 0.04654 0.0
O17 O 0.43034 -0.0063 0.04511 0.0
H18 H 0.33301 0.06762 0.10419 0.0
H19 H 0.36445 0.94654 0.08913 0.0
O20 O 0.34159 0.08534 0.04434 0.0
H21 H 0.26585 0.86079 0.99474 0.0
H22 H 0.34107 0.94293 0.14383 0.0
Cu23 Cu 0.3259 0.22523 0.3912 0.0
N24 N 0.31448 0.21498 0.35206 0.0
N25 N 0.31082 0.18686 0.30773 0.0
C26 C 0.3125 0.1763 0.3354 0.0
C27 C 0.31185 0.23378 0.30694 0.0
C28 C 0.31404 0.25095 0.33429 0.0
O29 O 0.38936 0.30132 0.39578 0.0
C30 C 0.31999 0.12649 0.41531 0.0
O31 O 0.34841 0.10836 0.42533 0.0
H32 H 0.3148 0.14271 0.34331 0.0
H33 H 0.31709 0.28824 0.34082 0.0
N34 N 0.26563 0.21772 0.409 0.0
N35 N 0.20354 0.20483 0.44068 0.0
C36 C 0.25107 0.20962 0.43657 0.0
C37 C 0.22644 0.21872 0.39547 0.0
C38 C 0.18807 0.21052 0.41484 0.0
C39 C 0.43212 0.31544 0.38194 0.0
O40 O 0.43125 0.27769 0.3663 0.0
H41 H 0.27427 0.20642 0.45313 0.0
H42 H 0.22553 0.22446 0.37293 0.0
O43 O 0.34631 0.1772 0.4067 0.0
H44 H 0.31198 0.25465 0.2879 0.0
H45 H 0.15189 0.20954 0.41032 0.0
Cu46 Cu 1.00979 0.20444 0.70064 0.0
N47 N 0.94946 0.17414 0.72483 0.0
N48 N 0.90257 0.1393 0.76524 0.0
C49 C 0.95098 0.16161 0.75205 0.0
C50 C 0.86872 0.1369 0.74535 0.0
C51 C 0.89791 0.15864 0.72036 0.0
O52 O 0.05672 0.28552 0.70476 0.0
C53 C 1.01199 0.11309 0.70722 0.0
O54 O 0.96122 0.09082 0.69924 0.0
H55 H 0.98704 0.16809 0.76186 0.0
H56 H 0.88258 0.16256 0.70042 0.0
N57 N 0.99132 0.19106 0.66239 0.0
N58 N 1.00518 0.18509 0.61646 0.0
C59 C 1.01724 0.17974 0.64324 0.0
C60 C 0.96162 0.20387 0.64721 0.0
C61 C 0.97009 0.20021 0.61882 0.0
C62 C 0.0621 0.31194 0.72734 0.0
O63 O 0.04014 0.28386 0.75094 0.0
H64 H 0.04794 0.17242 0.64882 0.0
H65 H 0.93865 0.21872 0.65609 0.0
O66 O 0.04402 0.16618 0.70974 0.0
H67 H 0.82624 0.12119 0.7487 0.0
H68 H 0.9538 0.21044 0.60132 0.0
Cu69 Cu 0.88451 0.05797 0.05021 0.0
N70 N 0.87004 0.02634 1.01422 0.0
N71 N 0.85869 0.01702 0.96731 0.0
C72 C 0.86699 0.04903 0.99004 0.0
C73 C 0.85604 0.97223 0.97778 0.0
C74 C 0.86305 0.97813 1.00669 0.0
O75 O 0.85167 0.10006 0.05147 0.0
C76 C 0.99918 0.12514 0.0374 0.0
O77 O 0.98404 0.13173 1.01249 0.0
H78 H 0.87296 0.08936 0.98913 0.0
H79 H 0.86387 0.94973 1.02116 0.0
N80 N 0.85105 0.00035 0.07712 0.0
N81 N 0.83779 0.95127 0.11666 0.0
C82 C 0.8717 -0.00011 0.1024 0.0
C83 C 0.80245 0.95053 0.07516 0.0
C84 C 0.79417 0.92017 0.09942 0.0
C85 C 0.82605 0.1003 0.07299 0.0
O86 O 0.82915 0.07924 0.09694 0.0
H87 H 0.91074 0.03492 0.11011 0.0
H88 H 0.77528 0.93703 0.05718 0.0
O89 O 0.96332 0.10006 0.05687 0.0
H90 H 0.84983 0.93774 0.96548 0.0
H91 H 0.7591 0.87793 0.10361 0.0
Cu92 Cu 0.89026 0.78809 0.38418 0.0
N93 N 0.90894 0.80556 0.34561 0.0
N94 N 0.90927 0.83001 0.30057 0.0
C95 C 0.88715 0.82237 0.32661 0.0
C96 C 0.94673 0.81821 0.30337 0.0
C97 C 0.9466 0.80344 0.33104 0.0
O98 O 0.82172 0.71508 0.38621 0.0
C99 C 0.90831 0.88814 0.41287 0.0
O100 O 0.88577 0.91175 0.42394 0.0
H101 H 0.85526 0.82816 0.33168 0.0
H102 H 0.97289 0.79269 0.33979 0.0
N103 N 0.94145 0.78218 0.40419 0.0
N104 N 0.99532 0.78453 0.43821 0.0
C105 C 0.96162 0.79969 0.43055 0.0
C106 C 0.96202 0.75392 0.39529 0.0
C107 C 0.99563 0.75594 0.41588 0.0
C108 C 0.77717 0.70725 0.37803 0.0
O109 O 0.77788 0.74958 0.36759 0.0
H110 H 0.95043 0.82152 0.4441 0.0
H111 H 0.95181 0.73154 0.37554 0.0
O112 O 0.87694 0.8402 0.40138 0.0
H113 H 0.973 0.82089 0.28666 0.0
H114 H 1.01814 0.73718 0.41442 0.0
Cu115 Cu 0.1938 0.81114 0.70341 0.0
N116 N 0.25327 0.85321 0.72771 0.0
N117 N 0.29417 0.88857 0.7694 0.0
C118 C 0.24686 0.85148 0.75591 0.0
C119 C 0.33219 0.91445 0.74868 0.0
C120 C 0.30671 0.8927 0.72291 0.0
O121 O 0.16164 0.73225 0.7106 0.0
C122 C 0.16764 0.88578 0.70451 0.0
O123 O 0.21706 0.91503 0.69346 0.0
H124 H 0.20768 0.82371 0.76623 0.0
H125 H 0.32548 0.90594 0.70223 0.0
N126 N 0.20998 0.8252 0.66478 0.0
N127 N 0.19441 0.83253 0.61915 0.0
C128 C 0.1743 0.82132 0.64576 0.0
C129 C 0.25454 0.83921 0.64979 0.0
C130 C 0.24511 0.84392 0.6216 0.0
C131 C 0.19463 0.7176 0.71057 0.0
O132 O 0.24685 0.75602 0.70584 0.0
H133 H 0.13433 0.81087 0.65159 0.0
H134 H 0.29093 0.84492 0.65861 0.0
O135 O 0.14626 0.83496 0.7116 0.0
H136 H 0.37486 0.94803 0.7518 0.0
H137 H 0.27298 0.85366 0.60426 0.0
C138 C 0.353 0.03113 0.18291 0.0
C139 C 0.32149 0.02524 0.15939 0.0
C140 C 0.34969 0.05405 0.20828 0.0
C141 C 0.31303 0.07019 0.21034 0.0
C142 C 0.27924 0.06178 0.18701 0.0
C143 C 0.28445 0.04011 0.16169 0.0
C144 C 0.38736 0.06353 0.23238 0.0
C145 C 0.23872 0.07718 0.18851 0.0
C146 C 0.27973 0.09855 0.28333 0.0
C147 C 0.31216 0.15724 0.2838 0.0
C148 C 0.27919 0.06942 0.2595 0.0
C149 C 0.31305 0.09987 0.23598 0.0
C150 C 0.34683 0.15921 0.23673 0.0
C151 C 0.34543 0.18711 0.26048 0.0
C152 C 0.24167 0.00624 0.25924 0.0
C153 C 0.38451 0.19331 0.21244 0.0
H154 H 0.38212 0.02025 0.18099 0.0
H155 H 0.25985 0.03512 0.14352 0.0
H156 H 0.41645 0.10918 0.23619 0.0
H157 H 0.36355 0.04446 0.25214 0.0
H158 H 0.41122 0.04578 0.22802 0.0
H159 H 0.21179 0.06288 0.16961 0.0
H160 H 0.21273 0.05853 0.20768 0.0
H161 H 0.26098 0.12334 0.19015 0.0
H162 H 0.25372 0.0756 0.30133 0.0
H163 H 0.37099 0.23251 0.26105 0.0
H164 H 0.26576 -0.01153 0.25596 0.0
H165 H 0.21256 -0.00788 0.24133 0.0
H166 H 0.21792 -0.01116 0.2792 0.0
H167 H 0.41211 0.18012 0.20781 0.0
H168 H 0.40992 0.23899 0.2169 0.0
H169 H 0.36015 0.18579 0.19309 0.0
C170 C 0.204 0.222 0.4919 0.0
C171 C 0.17502 0.19666 0.4669 0.0
C172 C 0.17646 0.21823 0.51693 0.0
C173 C 0.11848 0.18722 0.51709 0.0
C174 C 0.08902 0.15962 0.49216 0.0
C175 C 0.11766 0.16543 0.46732 0.0
C176 C 0.20949 0.24916 0.54289 0.0
C177 C 0.02721 0.12471 0.49156 0.0
C178 C 0.04436 0.14486 0.58815 0.0
C179 C 0.03175 0.18424 0.59117 0.0
C180 C 0.07205 0.14483 0.56404 0.0
C181 C 0.08871 0.1861 0.54278 0.0
C182 C 0.07633 0.22617 0.54586 0.0
C183 C 0.04751 0.22436 0.56984 0.0
C184 C 0.08324 0.10056 0.56126 0.0
C185 C 0.09416 0.27148 0.52396 0.0
H186 H 0.24834 0.24667 0.49157 0.0
H187 H 0.09507 0.14512 0.44813 0.0
H188 H 0.20273 0.28174 0.54859 0.0
H189 H 0.19579 0.21996 0.56112 0.0
H190 H 0.25406 0.26967 0.53963 0.0
H191 H 1.01043 0.10222 0.47121 0.0
H192 H 1.01022 0.09345 0.509 0.0
H193 H 1.01276 0.15199 0.49487 0.0
H194 H 0.03199 0.11371 0.60459 0.0
H195 H 0.03865 0.25542 0.57235 0.0
H196 H 0.12801 0.1206 0.56007 0.0
H197 H 0.06512 0.07685 0.54136 0.0
H198 H 0.06632 0.07054 0.57929 0.0
H199 H 0.13922 0.29621 0.52105 0.0
H200 H 0.08276 0.30047 0.52991 0.0
H201 H 0.07517 0.25233 0.50327 0.0
C202 C 0.87302 0.00875 0.91653 0.0
C203 C 0.85751 0.03037 0.93794 0.0
C204 C 0.87558 0.02429 0.88811 0.0
C205 C 0.8625 0.06259 0.88081 0.0
C206 C 0.84518 0.08326 0.90214 0.0
C207 C 0.84281 0.06685 0.9304 0.0
C208 C 0.89426 0.00127 0.86601 0.0
C209 C 0.83079 0.12408 0.89524 0.0
C210 C 0.93223 0.14993 0.81485 0.0
C211 C 0.89079 0.12197 0.79448 0.0
C212 C 0.92307 0.13175 0.84307 0.0
C213 C 0.87113 0.08421 0.85125 0.0
C214 C 0.82858 0.05657 0.83099 0.0
C215 C 0.83887 0.07594 0.80282 0.0
C216 C 0.96944 0.16284 0.86403 0.0
C217 C 0.77272 0.00564 0.83888 0.0
H218 H 0.88501 0.98106 0.92203 0.0
H219 H 0.82979 0.08299 0.94664 0.0
H220 H 0.86468 0.98295 0.84825 0.0
H221 H 0.9343 0.03576 0.85717 0.0
H222 H 0.89883 0.96864 0.87474 0.0
H223 H 0.81437 0.13315 0.91386 0.0
H224 H 0.86779 0.16406 0.8875 0.0
H225 H 0.79997 0.10734 0.87805 0.0
H226 H 0.9721 0.18619 0.80865 0.0
H227 H 0.80684 0.05401 0.78714 0.0
H228 H 0.98021 0.13457 0.87229 0.0
H229 H 0.95655 0.17647 0.88233 0.0
H230 H 1.0067 0.20029 0.85451 0.0
H231 H 0.77613 0.97107 0.84539 0.0
H232 H 0.74319 -0.00915 0.8211 0.0
H233 H 0.75604 0.01509 0.8572 0.0
C234 C 0.89952 0.96371 0.15578 0.0
C235 C 0.8467 0.93532 0.1441 0.0
C236 C 0.90883 0.94786 0.18207 0.0
C237 C 0.86447 0.90195 0.19704 0.0
C238 C 0.81105 0.87336 0.18559 0.0
C239 C 0.80278 0.89059 0.15945 0.0
C240 C 0.96642 0.97971 0.19361 0.0
C241 C 0.76269 0.82388 0.20075 0.0
C242 C 0.89874 0.82583 0.24873 0.0
C243 C 0.89597 0.8467 0.27489 0.0
C244 C 0.88781 0.84285 0.22335 0.0
C245 C 0.87437 0.88231 0.22403 0.0
C246 C 0.87109 0.90328 0.25039 0.0
C247 C 0.88154 0.88489 0.27554 0.0
C248 C 0.89088 0.8187 0.19579 0.0
C249 C 0.85757 0.94592 0.25199 0.0
H250 H 0.93405 -0.0022 0.14422 0.0
H251 H 0.76166 0.86877 0.15111 0.0
H252 H 0.96741 -0.00546 0.21534 0.0
H253 H 0.98029 0.95157 0.19497 0.0
H254 H 0.99592 0.01644 0.18024 0.0
H255 H 0.72358 0.80674 0.18931 0.0
H256 H 0.76911 0.79006 0.20316 0.0
H257 H 0.75888 0.8362 0.22231 0.0
H258 H 0.90906 0.79568 0.24816 0.0
H259 H 0.87986 0.90149 0.29567 0.0
H260 H 0.92293 0.85274 0.182 0.0
H261 H 0.85139 0.79847 0.18436 0.0
H262 H 0.9004 0.78727 0.19896 0.0
H263 H 0.88886 -0.01561 0.24025 0.0
H264 H 0.85588 0.95752 0.27413 0.0
H265 H 0.81752 0.92927 0.24178 0.0
C266 C 0.10889 0.79826 0.59272 0.0
C267 C 0.16641 0.83062 0.59363 0.0
C268 C 0.08088 0.79467 0.56801 0.0
C269 C 0.11088 0.82374 0.54334 0.0
C270 C 0.16888 0.85748 0.54419 0.0
C271 C 0.19592 0.86055 0.5693 0.0
C272 C 1.01902 0.75819 0.56806 0.0
C273 C 0.20236 0.88935 0.51837 0.0
C274 C 0.04054 0.7602 0.47316 0.0
C275 C 0.0236 0.79444 0.46482 0.0
C276 C 0.06936 0.76981 0.4984 0.0
C277 C 0.08148 0.81463 0.51611 0.0
C278 C 0.06419 0.8492 0.50809 0.0
C279 C 0.03533 0.8386 0.48259 0.0
C280 C 0.08662 0.73162 0.50619 0.0
C281 C 0.07637 0.8975 0.52636 0.0
H282 H 0.0854 0.7743 0.61111 0.0
H283 H 0.24023 0.88641 0.56982 0.0
H284 H 1.00307 0.78206 0.55993 0.0
H285 H 1.00393 0.72198 0.55378 0.0
H286 H 1.00178 0.74198 0.5895 0.0
H287 H 0.24706 0.91512 0.52269 0.0
H288 H 0.19362 0.8596 0.5011 0.0
H289 H 0.19079 0.91727 0.51061 0.0
H290 H 0.03076 0.72514 0.46012 0.0
H291 H 0.02309 0.86576 0.47631 0.0
H292 H 0.06743 0.71013 0.52654 0.0
H293 H 0.13166 0.75656 0.50915 0.0
H294 H 0.075 0.6993 0.48985 0.0
H295 H 0.05832 0.88196 0.5477 0.0
H296 H 0.06008 0.9204 0.51717 0.0
H297 H 0.12126 0.92743 0.52911 0.0
C298 C 0.33437 -0.01615 0.93109 0.0
C299 C 0.32188 0.9397 0.94928 0.0
C300 C 0.33298 0.97786 0.90156 0.0
C301 C 0.31852 0.92638 0.88982 0.0
C302 C 0.3066 0.88192 0.908 0.0
C303 C 0.3085 0.88913 0.93745 0.0
C304 C 0.34585 0.02627 0.88292 0.0
C305 C 0.29092 0.82632 0.89634 0.0
C306 C 0.25688 0.88844 0.81612 0.0
C307 C 0.30114 0.89959 0.79944 0.0
C308 C 0.26213 0.89718 0.84544 0.0
C309 C 0.31305 0.91801 0.85857 0.0
C310 C 0.35822 0.93025 0.84189 0.0
C311 C 0.35173 0.92089 0.81253 0.0
C312 C 0.21297 0.8838 0.86239 0.0
C313 C 0.41323 0.9527 0.85511 0.0
H314 H 0.34406 0.02283 0.93988 0.0
H315 H 0.29964 0.85507 0.95123 0.0
H316 H 0.37856 0.03648 0.86758 0.0
H317 H 0.30906 0.01438 0.87053 0.0
H318 H 0.35927 0.06449 0.89529 0.0
H319 H 0.28479 0.79664 0.91326 0.0
H320 H 0.25246 0.80685 0.88401 0.0
H321 H 0.32312 0.83269 0.88167 0.0
H322 H 0.21796 0.87322 0.80623 0.0
H323 H 0.38601 0.92929 0.79989 0.0
H324 H 0.2225 0.92174 0.87369 0.0
H325 H 0.20274 0.85155 0.87864 0.0
H326 H 0.17633 0.86813 0.84895 0.0
H327 H 0.42787 -0.008 0.8667 0.0
H328 H 0.44459 0.96132 0.83917 0.0
H329 H 0.40933 0.92209 0.87076 0.0
C330 C 0.27647 0.13356 0.04938 0.0
C331 C 0.25674 0.07913 0.04052 0.0
C332 C 0.24189 0.15228 0.04965 0.0
C333 C 0.18666 0.11578 0.04069 0.0
C334 C 0.16758 0.06172 1.03066 0.0
C335 C 0.20266 0.04418 1.03078 0.0
C336 C 0.26381 0.21019 0.06046 0.0
C337 C 0.10935 0.02146 1.02055 0.0
C338 C 0.06656 0.11769 0.06542 0.0
C339 C 0.05394 0.13524 0.0408 0.0
C340 C 0.11272 0.11583 0.06659 0.0
C341 C 0.14726 0.13196 0.0426 0.0
C342 C 0.13746 0.15442 1.01865 0.0
C343 C 0.09096 0.15575 1.01802 0.0
C344 C 0.12177 0.09206 0.09268 0.0
C345 C 0.17341 0.17266 0.99272 0.0
H346 H 0.3181 0.16064 0.0571 0.0
H347 H 0.18721 0.00223 1.02362 0.0
H348 H 0.25345 0.2325 0.04567 0.0
H349 H 0.24432 0.20682 0.08108 0.0
H350 H 0.30892 0.23571 0.06343 0.0
H351 H 0.10159 0.98175 1.0124 0.0
H352 H 0.08043 0.01119 0.0382 0.0
H353 H 0.10007 0.04112 1.0035 0.0
H354 H 0.03864 0.10221 0.08326 0.0
H355 H 0.08208 0.17001 0.99899 0.0
H356 H 0.16557 0.11799 0.09884 0.0
H357 H 0.11042 0.04926 0.08809 0.0
H358 H 0.09678 0.08943 0.11088 0.0
H359 H 0.21731 0.19748 0.99869 0.0
H360 H 0.16651 0.19803 0.9781 0.0
H361 H 0.16431 0.13506 0.9812 0.0
C362 C 0.99766 0.95664 0.43621 0.0
C363 C 0.96841 0.91756 0.41462 0.0
C364 C 0.05496 -0.01247 0.43746 0.0
C365 C 0.08347 0.97796 0.41704 0.0
C366 C 0.054 0.93684 0.39601 0.0
C367 C 0.9971 0.9088 0.39448 0.0
C368 C 0.08481 0.03078 0.46039 0.0
C369 C 0.08259 0.9233 0.37472 0.0
C370 C 0.22789 0.09729 0.39735 0.0
C371 C 0.25942 0.08802 0.41516 0.0
C372 C 0.17062 0.06213 0.39797 0.0
C373 C 0.14414 0.0146 0.41595 0.0
C374 C 0.17565 0.00278 0.43278 0.0
C375 C 0.23291 0.04016 0.43255 0.0
C376 C 0.13854 0.07679 0.37993 0.0
C377 C 0.14915 0.95095 0.45108 0.0
H378 H 0.97581 0.96372 0.45196 0.0
H379 H 0.97537 0.88056 0.37732 0.0
H380 H 0.1008 0.01537 0.47622 0.0
H381 H 0.12034 0.07053 0.45148 0.0
H382 H 0.05766 0.03955 0.47154 0.0
H383 H 0.05332 0.884 0.3631 0.0
H384 H 0.10484 0.95794 0.35911 0.0
H385 H 0.11317 0.91889 0.38537 0.0
H386 H 0.24771 0.13192 0.38285 0.0
H387 H 0.25687 0.0318 0.44609 0.0
H388 H 0.11579 0.08749 0.39387 0.0
H389 H 0.10791 0.04056 0.36689 0.0
H390 H 0.16529 0.11275 0.36555 0.0
H391 H 0.13102 0.95679 0.47001 0.0
H392 H 0.17903 0.94215 0.45833 0.0
H393 H 0.11574 0.91388 0.43945 0.0
C394 C 0.99713 0.01993 0.70337 0.0
C395 C 0.03123 0.07654 0.7112 0.0
C396 C 1.01541 -0.01495 0.70479 0.0
C397 C 0.06892 0.00708 0.71461 0.0
C398 C 0.10266 0.06343 0.72388 0.0
C399 C 0.08354 0.09771 0.72187 0.0
C400 C 0.97847 0.92549 0.69431 0.0
C401 C 0.15973 0.08811 0.73486 0.0
C402 C 0.10798 0.90588 0.73099 0.0
C403 C 0.13775 0.91197 0.70668 0.0
C404 C 0.08536 0.93684 0.73409 0.0
C405 C 0.0917 0.97326 0.71201 0.0
C406 C 0.11997 0.97757 0.68699 0.0
C407 C 0.14327 0.94745 0.68483 0.0
C408 C 0.05625 0.93198 0.76123 0.0
C409 C 0.12624 0.01455 0.66259 0.0
H410 H 0.95652 0.00307 0.69519 0.0
H411 H 0.10986 0.14123 0.72822 0.0
H412 H 0.99581 0.92089 0.67462 0.0
H413 H 0.97597 0.89581 0.7101 0.0
H414 H 0.93636 0.91328 0.68979 0.0
H415 H 0.1782 0.1302 0.74429 0.0
H416 H 0.15913 0.06003 0.75104 0.0
H417 H 0.1864 0.09201 0.71729 0.0
H418 H 0.1044 0.87884 0.74799 0.0
H419 H 0.16612 0.95177 0.66596 0.0
H420 H 1.01432 0.92005 0.75666 0.0
H421 H 0.07844 0.97326 0.77193 0.0
H422 H 0.05339 0.90059 0.77598 0.0
H423 H 0.08544 0.00313 0.65567 0.0
H424 H 0.14729 0.01115 0.64415 0.0
H425 H 0.15011 0.05894 0.66942 0.0
C426 C 0.74854 0.1022 0.09204 0.0
C427 C 0.78432 0.11288 0.06964 0.0
C428 C 0.70202 0.10261 0.08785 0.0
C429 C 0.69106 0.11458 0.06066 0.0
C430 C 0.72956 0.13026 0.0386 0.0
C431 C 0.77555 0.12894 0.04329 0.0
C432 C 0.66217 0.08543 0.112 0.0
C433 C 0.72014 0.14435 1.00943 0.0
C434 C 0.54002 0.0306 0.04236 0.0
C435 C 0.52629 0.06868 0.04749 0.0
C436 C 0.59363 0.04579 0.04575 0.0
C437 C 0.63539 0.10087 0.05431 0.0
C438 C 0.6226 0.14051 0.05833 0.0
C439 C 0.56805 0.12391 0.05496 0.0
C440 C 0.60502 0.00193 0.04117 0.0
C441 C 0.66611 0.19985 0.06704 0.0
H442 H 0.75499 0.09019 0.11256 0.0
H443 H 0.80311 0.13783 1.02587 0.0
H444 H 0.64937 0.11439 0.11373 0.0
H445 H 0.62483 0.04289 0.10792 0.0
H446 H 0.67979 0.0846 0.13256 0.0
H447 H 0.75797 0.16566 0.99634 0.0
H448 H 0.68817 0.10522 0.99854 0.0
H449 H 0.7053 0.17165 1.0107 0.0
H450 H 0.5084 -0.01204 0.03626 0.0
H451 H 0.55794 0.15368 0.0589 0.0
H452 H 0.61902 -0.00583 0.06124 0.0
H453 H 0.63827 0.01699 1.0254 0.0
H454 H 0.56836 0.96149 1.03368 0.0
H455 H 0.67881 0.20008 0.08913 0.0
H456 H 0.6514 0.22733 0.06578 0.0
H457 H 0.70298 0.21776 0.05348 0.0
C458 C 0.67836 0.63902 0.36582 0.0
C459 C 0.72517 0.65095 0.3801 0.0
C460 C 0.62929 0.58522 0.36687 0.0
C461 C 0.62688 0.54264 0.38288 0.0
C462 C 0.6736 0.55481 0.39792 0.0
C463 C 0.7223 0.60874 0.3962 0.0
C464 C 0.58047 0.57359 0.35028 0.0
C465 C 0.67239 0.51062 0.41546 0.0
C466 C 0.4874 0.41213 0.40248 0.0
C467 C 0.48162 0.37368 0.38243 0.0
C468 C 0.53457 0.46738 0.40296 0.0
C469 C 0.57643 0.48456 0.3827 0.0
C470 C 0.5705 0.44605 0.36226 0.0
C471 C 0.52335 0.39102 0.3625 0.0
C472 C 0.53985 0.50721 0.42525 0.0
C473 C 0.61396 0.46299 0.3401 0.0
H474 H 0.68033 0.67142 0.35331 0.0
H475 H 0.75821 0.6178 0.40748 0.0
H476 H 0.56947 0.54157 0.33389 0.0
H477 H 0.54447 0.55627 0.36442 0.0
H478 H 0.58844 0.61178 0.33973 0.0
H479 H 0.71118 0.52775 0.42722 0.0
H480 H 0.63808 0.49183 0.43086 0.0
H481 H 0.66523 0.47637 0.40158 0.0
H482 H 0.45533 0.39891 0.41797 0.0
H483 H 0.519 0.36166 0.3468 0.0
H484 H 0.5449 0.54433 0.41507 0.0
H485 H 0.57696 0.5226 0.43819 0.0
H486 H 0.50367 0.48728 0.43951 0.0
H487 H 0.6213 0.49912 0.32767 0.0
H488 H 0.60248 0.4283 0.32532 0.0
H489 H 0.65318 0.47662 0.35043 0.0
C490 C 0.11949 0.61486 0.71476 0.0
C491 C 0.17543 0.65849 0.71507 0.0
C492 C 0.10171 0.55866 0.71765 0.0
C493 C 0.14077 0.5459 0.72119 0.0
C494 C 0.19716 0.58989 0.72216 0.0
C495 C 0.21377 0.64552 0.71898 0.0
C496 C 0.04121 0.51284 0.71636 0.0
C497 C 0.24007 0.57817 0.72617 0.0
C498 C 0.09189 0.40245 0.75076 0.0
C499 C 0.08641 0.37293 0.7261 0.0
C500 C 0.11011 0.45892 0.74954 0.0
C501 C 0.12284 0.48649 0.72301 0.0
C502 C 0.11847 0.45729 0.69812 0.0
C503 C 0.10053 0.40101 0.69997 0.0
C504 C 0.11495 0.48885 0.77659 0.0
C505 C 0.13171 0.48519 0.66942 0.0
H506 H 0.08964 0.62451 0.71171 0.0
H507 H 0.2571 0.67894 0.71945 0.0
H508 H 0.03265 0.48505 0.69812 0.0
H509 H 0.02818 0.48657 0.73574 0.0
H510 H 1.01602 0.52971 0.71419 0.0
H511 H 0.28208 0.6172 0.72765 0.0
H512 H 0.23143 0.55307 0.74568 0.0
H513 H 0.23883 0.55306 0.7082 0.0
H514 H 0.08117 0.38121 0.77105 0.0
H515 H 0.09632 0.37862 0.68077 0.0
H516 H 0.08673 0.5022 0.77596 0.0
H517 H 0.1571 0.52728 0.77878 0.0
H518 H 0.10518 0.46207 0.79559 0.0
H519 H 0.10455 0.49906 0.6651 0.0
H520 H 0.12674 0.45687 0.65214 0.0
H521 H 0.17446 0.52309 0.66907 0.0
loop_
_geom_bond_atom_site_label_1
_geom_bond_atom_site_label_2
_geom_bond_distance
_geom_bond_site_symmetry_2
_ccdc_geom_bond_type
Cu0 N1 1.999 1_554 S
Cu0 O6 1.974 . S
Cu0 N11 1.985 . S
Cu0 O20 1.959 . S
N1 Cu0 1.999 1_556 S
N1 C3 1.263 . S
N1 C5 1.389 . S
N2 C3 1.358 . S
N2 C4 1.400 . S
C3 N1 1.263 . S
C3 N2 1.358 . S
C3 H9 0.930 1_545 S
C4 N2 1.400 . S
C4 C5 1.351 . S
C4 H21 0.930 . S
C5 N1 1.389 . S
C5 C4 1.351 . S
C5 H10 0.930 . S
O6 Cu0 1.974 . S
O6 C16 1.282 . S
C7 O8 1.261 1_545 S
C7 O20 1.251 . S
O8 C7 1.261 1_565 S
H9 C3 0.930 1_565 S
H10 C5 0.930 . S
N11 Cu0 1.985 . S
N11 C13 1.335 . S
N11 C14 1.390 . S
N12 C13 1.345 . S
N12 C15 1.336 . S
C13 N11 1.335 . S
C13 N12 1.345 . S
C13 H18 0.930 . S
C14 N11 1.390 . S
C14 C15 1.346 . S
C14 H19 0.930 . S
C15 N12 1.336 . S
C15 C14 1.346 . S
C15 H22 0.929 . S
C16 O6 1.282 . S
C16 O17 1.216 1_545 S
O17 C16 1.216 1_565 S
H18 C13 0.930 . S
H19 C14 0.930 . S
O20 Cu0 1.959 . S
O20 C7 1.251 . S
H21 C4 0.930 . S
H22 C15 0.929 . S
Cu23 N24 1.999 . S
Cu23 O29 1.974 . S
Cu23 N34 1.985 . S
Cu23 O43 1.959 . S
N24 Cu23 1.999 . S
N24 C26 1.263 . S
N24 C28 1.389 . S
N25 C26 1.358 . S
N25 C27 1.400 . S
C26 N24 1.263 . S
C26 N25 1.358 . S
C26 H32 0.930 . S
C27 N25 1.400 . S
C27 C28 1.351 . S
C27 H44 0.930 . S
C28 N24 1.389 . S
C28 C27 1.351 . S
C28 H33 0.930 . S
O29 Cu23 1.974 . S
O29 C39 1.282 . S
C30 O31 1.261 . S
C30 O43 1.251 . S
O31 C30 1.261 . S
H32 C26 0.930 . S
H33 C28 0.930 . S
N34 Cu23 1.985 . S
N34 C36 1.335 . S
N34 C37 1.390 . S
N35 C36 1.345 . S
N35 C38 1.336 . S
C36 N34 1.335 . S
C36 N35 1.345 . S
C36 H41 0.930 . S
C37 N34 1.390 . S
C37 C38 1.346 . S
C37 H42 0.930 . S
C38 N35 1.336 . S
C38 C37 1.346 . S
C38 H45 0.929 . S
C39 O29 1.282 . S
C39 O40 1.216 . S
O40 C39 1.216 . S
H41 C36 0.930 . S
H42 C37 0.930 . S
O43 Cu23 1.959 . S
O43 C30 1.251 . S
H44 C27 0.930 . S
H45 C38 0.929 . S
Cu46 N47 1.999 . S
Cu46 O52 1.974 . S
Cu46 N57 1.985 . S
Cu46 O66 1.959 . S
N47 Cu46 1.999 . S
N47 C49 1.263 1_455 S
N47 C51 1.389 . S
N48 C49 1.358 . S
N48 C50 1.413 . S
C49 N47 1.263 1_655 S
C49 N48 1.358 . S
C49 H55 0.930 . S
C50 N48 1.413 . S
C50 C51 1.345 1_655 S
C50 H67 0.925 1_655 S
C51 N47 1.389 . S
C51 C50 1.345 1_455 S
C51 H56 0.930 . S
O52 Cu46 1.974 . S
O52 C62 1.282 1_455 S
C53 O54 1.261 . S
C53 O66 1.251 1_655 S
O54 C53 1.261 . S
H55 C49 0.930 . S
H56 C51 0.930 . S
N57 Cu46 1.985 . S
N57 C59 1.335 . S
N57 C60 1.390 . S
N58 C59 1.345 . S
N58 C61 1.336 . S
C59 N57 1.335 . S
C59 N58 1.345 . S
C59 H64 0.930 . S
C60 N57 1.390 . S
C60 C61 1.346 . S
C60 H65 0.930 . S
C61 N58 1.336 . S
C61 C60 1.346 . S
C61 H68 0.929 . S
C62 O52 1.282 1_655 S
C62 O63 1.216 . S
O63 C62 1.216 . S
H64 C59 0.930 . S
H65 C60 0.930 . S
O66 Cu46 1.959 . S
O66 C53 1.251 1_455 S
H67 C50 0.925 1_455 S
H68 C61 0.929 . S
Cu69 N70 1.999 1_554 S
Cu69 O75 1.974 . S
Cu69 N80 1.985 1_545 S
Cu69 O89 1.957 1_545 S
N70 Cu69 1.999 1_556 S
N70 C72 1.263 . S
N70 C74 1.395 . S
N71 C72 1.358 . S
N71 C73 1.400 . S
C72 N70 1.263 . S
C72 N71 1.358 . S
C72 H78 0.930 . S
C73 N71 1.400 . S
C73 C74 1.354 . S
C73 H90 0.930 . S
C74 N70 1.395 . S
C74 C73 1.354 . S
C74 H79 0.922 1_545 S
O75 Cu69 1.974 . S
O75 C85 1.282 . S
C76 O77 1.261 . S
C76 O89 1.250 1_545 S
O77 C76 1.261 . S
H78 C72 0.930 . S
H79 C74 0.922 1_565 S
N80 Cu69 1.985 1_565 S
N80 C82 1.335 . S
N80 C83 1.390 1_565 S
N81 C82 1.345 . S
N81 C84 1.336 . S
C82 N80 1.335 . S
C82 N81 1.345 . S
C82 H87 0.930 . S
C83 N80 1.390 1_545 S
C83 C84 1.346 1_545 S
C83 H88 0.930 . S
C84 N81 1.336 . S
C84 C83 1.346 1_565 S
C84 H91 0.929 . S
C85 O75 1.282 . S
C85 O86 1.216 . S
O86 C85 1.216 . S
H87 C82 0.930 . S
H88 C83 0.930 . S
O89 Cu69 1.957 1_565 S
O89 C76 1.250 1_565 S
H90 C73 0.930 . S
H91 C84 0.929 . S
Cu92 N93 1.999 . S
Cu92 O98 1.974 . S
Cu92 N103 1.985 . S
Cu92 O112 1.959 . S
N93 Cu92 1.999 . S
N93 C95 1.263 . S
N93 C97 1.389 . S
N94 C95 1.358 . S
N94 C96 1.400 . S
C95 N93 1.263 . S
C95 N94 1.358 . S
C95 H101 0.930 . S
C96 N94 1.400 . S
C96 C97 1.351 . S
C96 H113 0.930 . S
C97 N93 1.389 . S
C97 C96 1.351 . S
C97 H102 0.930 . S
O98 Cu92 1.974 . S
O98 C108 1.282 . S
C99 O100 1.261 . S
C99 O112 1.251 . S
O100 C99 1.261 . S
H101 C95 0.930 . S
H102 C97 0.930 . S
N103 Cu92 1.985 . S
N103 C105 1.335 . S
N103 C106 1.390 . S
N104 C105 1.345 . S
N104 C107 1.336 . S
C105 N103 1.335 . S
C105 N104 1.345 . S
C105 H110 0.930 . S
C106 N103 1.390 . S
C106 C107 1.346 . S
C106 H111 0.930 . S
C107 N104 1.336 . S
C107 C106 1.346 . S
C107 H114 0.929 . S
C108 O98 1.282 . S
C108 O109 1.216 . S
O109 C108 1.216 . S
H110 C105 0.930 . S
H111 C106 0.930 . S
O112 Cu92 1.959 . S
O112 C99 1.251 . S
H113 C96 0.930 . S
H114 C107 0.929 . S
Cu115 N116 1.999 . S
Cu115 O121 1.974 . S
Cu115 N126 1.985 . S
Cu115 O135 1.959 . S
N116 Cu115 1.999 . S
N116 C118 1.263 . S
N116 C120 1.389 . S
N117 C118 1.358 . S
N117 C119 1.400 . S
C118 N116 1.263 . S
C118 N117 1.358 . S
C118 H124 0.930 . S
C119 N117 1.400 . S
C119 C120 1.351 . S
C119 H136 0.930 . S
C120 N116 1.389 . S
C120 C119 1.351 . S
C120 H125 0.930 . S
O121 Cu115 1.974 . S
O121 C131 1.282 . S
C122 O123 1.261 . S
C122 O135 1.251 . S
O123 C122 1.261 . S
H124 C118 0.930 . S
H125 C120 0.930 . S
N126 Cu115 1.985 . S
N126 C128 1.335 . S
N126 C129 1.390 . S
N127 C128 1.345 . S
N127 C130 1.336 . S
C128 N126 1.335 . S
C128 N127 1.345 . S
C128 H133 0.930 . S
C129 N126 1.390 . S
C129 C130 1.346 . S
C129 H134 0.930 . S
C130 N127 1.336 . S
C130 C129 1.346 . S
C130 H137 0.929 . S
C131 O121 1.282 . S
C131 O132 1.216 . S
O132 C131 1.216 . S
H133 C128 0.930 . S
H134 C129 0.930 . S
O135 Cu115 1.959 . S
O135 C122 1.251 . S
H136 C119 0.930 . S
H137 C130 0.929 . S
C138 C139 1.391 . S
C138 C140 1.394 . S
C138 H154 0.931 . S
C139 C138 1.391 . S
C139 C143 1.376 . S
C140 C138 1.394 . S
C140 C141 1.369 . S
C140 C144 1.531 . S
C141 C140 1.369 . S
C141 C142 1.410 . S
C141 C149 1.503 . S
C142 C141 1.410 . S
C142 C143 1.392 . S
C142 C145 1.511 . S
C143 C139 1.376 . S
C143 C142 1.392 . S
C143 H155 0.929 . S
C144 C140 1.531 . S
C144 H156 0.960 . S
C144 H157 0.962 . S
C144 H158 0.960 . S
C145 C142 1.511 . S
C145 H159 0.961 . S
C145 H160 0.961 . S
C145 H161 0.961 . S
C146 C147 1.370 . S
C146 C148 1.363 . S
C146 H162 0.931 . S
C147 C146 1.370 . S
C147 C151 1.408 . S
C148 C146 1.363 . S
C148 C149 1.370 . S
C148 C152 1.524 . S
C149 C141 1.503 . S
C149 C148 1.370 . S
C149 C150 1.403 . S
C150 C149 1.403 . S
C150 C151 1.404 . S
C150 C153 1.539 . S
C151 C147 1.408 . S
C151 C150 1.404 . S
C151 H163 0.930 . S
C152 C148 1.524 . S
C152 H164 0.956 . S
C152 H165 0.961 . S
C152 H166 0.961 . S
C153 C150 1.539 . S
C153 H167 0.958 . S
C153 H168 0.961 . S
C153 H169 0.960 . S
H154 C138 0.931 . S
H155 C143 0.929 . S
H156 C144 0.960 . S
H157 C144 0.962 . S
H158 C144 0.960 . S
H159 C145 0.961 . S
H160 C145 0.961 . S
H161 C145 0.961 . S
H162 C146 0.931 . S
H163 C151 0.930 . S
H164 C152 0.956 . S
H165 C152 0.961 . S
H166 C152 0.961 . S
H167 C153 0.958 . S
H168 C153 0.961 . S
H169 C153 0.960 . S
C170 C171 1.391 . S
C170 C172 1.394 . S
C170 H186 0.931 . S
C171 C170 1.391 . S
C171 C175 1.376 . S
C172 C170 1.394 . S
C172 C173 1.369 . S
C172 C176 1.531 . S
C173 C172 1.369 . S
C173 C174 1.410 . S
C173 C181 1.503 . S
C174 C173 1.410 . S
C174 C175 1.392 . S
C174 C177 1.511 . S
C175 C171 1.376 . S
C175 C174 1.392 . S
C175 H187 0.929 . S
C176 C172 1.531 . S
C176 H188 0.960 . S
C176 H189 0.962 . S
C176 H190 0.960 . S
C177 C174 1.511 . S
C177 H191 0.961 . S
C177 H192 0.961 . S
C177 H193 0.961 . S
C178 C179 1.370 . S
C178 C180 1.363 . S
C178 H194 0.931 . S
C179 C178 1.370 . S
C179 C183 1.408 . S
C180 C178 1.363 . S
C180 C181 1.370 . S
C180 C184 1.524 . S
C181 C173 1.503 . S
C181 C180 1.370 . S
C181 C182 1.403 . S
C182 C181 1.403 . S
C182 C183 1.404 . S
C182 C185 1.539 . S
C183 C179 1.408 . S
C183 C182 1.404 . S
C183 H195 0.930 . S
C184 C180 1.524 . S
C184 H196 0.956 . S
C184 H197 0.961 . S
C184 H198 0.961 . S
C185 C182 1.539 . S
C185 H199 0.958 . S
C185 H200 0.961 . S
C185 H201 0.960 . S
H186 C170 0.931 . S
H187 C175 0.929 . S
H188 C176 0.960 . S
H189 C176 0.962 . S
H190 C176 0.960 . S
H191 C177 0.961 . S
H192 C177 0.961 . S
H193 C177 0.961 . S
H194 C178 0.931 . S
H195 C183 0.930 . S
H196 C184 0.956 . S
H197 C184 0.961 . S
H198 C184 0.961 . S
H199 C185 0.958 . S
H200 C185 0.961 . S
H201 C185 0.960 . S
C202 C203 1.391 . S
C202 C204 1.394 . S
C202 H218 0.931 . S
C203 C202 1.391 . S
C203 C207 1.376 . S
C204 C202 1.394 . S
C204 C205 1.369 . S
C204 C208 1.531 . S
C205 C204 1.369 . S
C205 C206 1.410 . S
C205 C213 1.503 . S
C206 C205 1.410 . S
C206 C207 1.392 . S
C206 C209 1.511 . S
C207 C203 1.376 . S
C207 C206 1.392 . S
C207 H219 0.929 . S
C208 C204 1.531 . S
C208 H220 0.960 . S
C208 H221 0.962 . S
C208 H222 0.960 . S
C209 C206 1.511 . S
C209 H223 0.961 . S
C209 H224 0.961 . S
C209 H225 0.961 . S
C210 C211 1.370 . S
C210 C212 1.363 . S
C210 H226 0.931 . S
C211 C210 1.370 . S
C211 C215 1.408 . S
C212 C210 1.363 . S
C212 C213 1.370 . S
C212 C216 1.524 . S
C213 C205 1.503 . S
C213 C212 1.370 . S
C213 C214 1.403 . S
C214 C213 1.403 . S
C214 C215 1.404 . S
C214 C217 1.539 . S
C215 C211 1.408 . S
C215 C214 1.404 . S
C215 H227 0.930 . S
C216 C212 1.524 . S
C216 H228 0.956 . S
C216 H229 0.961 . S
C216 H230 0.961 . S
C217 C214 1.539 . S
C217 H231 0.958 . S
C217 H232 0.961 . S
C217 H233 0.960 . S
H218 C202 0.931 . S
H219 C207 0.929 . S
H220 C208 0.960 . S
H221 C208 0.962 . S
H222 C208 0.960 . S
H223 C209 0.961 . S
H224 C209 0.961 . S
H225 C209 0.961 . S
H226 C210 0.931 . S
H227 C215 0.930 . S
H228 C216 0.956 . S
H229 C216 0.961 . S
H230 C216 0.961 . S
H231 C217 0.958 . S
H232 C217 0.961 . S
H233 C217 0.960 . S
C234 C235 1.391 . S
C234 C236 1.394 . S
C234 H250 0.931 . S
C235 C234 1.391 . S
C235 C239 1.376 . S
C236 C234 1.394 . S
C236 C237 1.369 . S
C236 C240 1.531 . S
C237 C236 1.369 . S
C237 C238 1.410 . S
C237 C245 1.503 . S
C238 C237 1.410 . S
C238 C239 1.392 . S
C238 C241 1.511 . S
C239 C235 1.376 . S
C239 C238 1.392 . S
C239 H251 0.929 . S
C240 C236 1.531 . S
C240 H252 0.960 . S
C240 H253 0.962 . S
C240 H254 0.960 . S
C241 C238 1.511 . S
C241 H255 0.961 . S
C241 H256 0.961 . S
C241 H257 0.961 . S
C242 C243 1.370 . S
C242 C244 1.363 . S
C242 H258 0.931 . S
C243 C242 1.370 . S
C243 C247 1.408 . S
C244 C242 1.363 . S
C244 C245 1.370 . S
C244 C248 1.524 . S
C245 C237 1.503 . S
C245 C244 1.370 . S
C245 C246 1.403 . S
C246 C245 1.403 . S
C246 C247 1.404 . S
C246 C249 1.539 . S
C247 C243 1.408 . S
C247 C246 1.404 . S
C247 H259 0.930 . S
C248 C244 1.524 . S
C248 H260 0.956 . S
C248 H261 0.961 . S
C248 H262 0.961 . S
C249 C246 1.539 . S
C249 H263 0.960 . S
C249 H264 0.961 . S
C249 H265 0.960 . S
H250 C234 0.931 . S
H251 C239 0.929 . S
H252 C240 0.960 . S
H253 C240 0.962 . S
H254 C240 0.960 . S
H255 C241 0.961 . S
H256 C241 0.961 . S
H257 C241 0.961 . S
H258 C242 0.931 . S
H259 C247 0.930 . S
H260 C248 0.956 . S
H261 C248 0.961 . S
H262 C248 0.961 . S
H263 C249 0.960 . S
H264 C249 0.961 . S
H265 C249 0.960 . S
C266 C267 1.391 . S
C266 C268 1.394 . S
C266 H282 0.931 . S
C267 C266 1.391 . S
C267 C271 1.376 . S
C268 C266 1.394 . S
C268 C269 1.369 . S
C268 C272 1.531 . S
C269 C268 1.369 . S
C269 C270 1.410 . S
C269 C277 1.503 . S
C270 C269 1.410 . S
C270 C271 1.392 . S
C270 C273 1.511 . S
C271 C267 1.376 . S
C271 C270 1.392 . S
C271 H283 0.929 . S
C272 C268 1.531 . S
C272 H284 0.960 . S
C272 H285 0.962 1_455 S
C272 H286 0.960 . S
C273 C270 1.511 . S
C273 H287 0.961 . S
C273 H288 0.961 . S
C273 H289 0.961 . S
C274 C275 1.370 . S
C274 C276 1.363 . S
C274 H290 0.931 . S
C275 C274 1.370 . S
C275 C279 1.405 1_655 S
C276 C274 1.363 . S
C276 C277 1.370 1_655 S
C276 C280 1.524 . S
C277 C269 1.503 . S
C277 C276 1.370 1_455 S
C277 C278 1.403 . S
C278 C277 1.403 . S
C278 C279 1.407 . S
C278 C281 1.539 . S
C279 C275 1.405 1_455 S
C279 C278 1.407 . S
C279 H291 0.930 . S
C280 C276 1.524 . S
C280 H292 0.956 . S
C280 H293 0.961 . S
C280 H294 0.961 . S
C281 C278 1.539 . S
C281 H295 0.958 . S
C281 H296 0.961 . S
C281 H297 0.960 . S
H282 C266 0.931 . S
H283 C271 0.929 . S
H284 C272 0.960 . S
H285 C272 0.962 1_655 S
H286 C272 0.960 . S
H287 C273 0.961 . S
H288 C273 0.961 . S
H289 C273 0.961 . S
H290 C274 0.931 . S
H291 C279 0.930 . S
H292 C280 0.956 . S
H293 C280 0.961 . S
H294 C280 0.961 . S
H295 C281 0.958 . S
H296 C281 0.961 . S
H297 C281 0.960 . S
C298 C299 1.391 1_545 S
C298 C300 1.394 1_545 S
C298 H314 0.931 . S
C299 C298 1.391 1_565 S
C299 C303 1.376 . S
C300 C298 1.394 1_565 S
C300 C301 1.369 . S
C300 C304 1.531 1_565 S
C301 C300 1.369 . S
C301 C302 1.410 . S
C301 C309 1.503 . S
C302 C301 1.410 . S
C302 C303 1.392 . S
C302 C305 1.511 . S
C303 C299 1.376 . S
C303 C302 1.392 . S
C303 H315 0.929 . S
C304 C300 1.531 1_545 S
C304 H316 0.960 . S
C304 H317 0.962 . S
C304 H318 0.960 . S
C305 C302 1.511 . S
C305 H319 0.961 . S
C305 H320 0.961 . S
C305 H321 0.961 . S
C306 C307 1.370 . S
C306 C308 1.363 . S
C306 H322 0.931 . S
C307 C306 1.370 . S
C307 C311 1.408 . S
C308 C306 1.363 . S
C308 C309 1.370 . S
C308 C312 1.524 . S
C309 C301 1.503 . S
C309 C308 1.370 . S
C309 C310 1.403 . S
C310 C309 1.403 . S
C310 C311 1.404 . S
C310 C313 1.539 . S
C311 C307 1.408 . S
C311 C310 1.404 . S
C311 H323 0.930 . S
C312 C308 1.524 . S
C312 H324 0.956 . S
C312 H325 0.961 . S
C312 H326 0.961 . S
C313 C310 1.539 . S
C313 H327 0.958 . S
C313 H328 0.961 . S
C313 H329 0.960 . S
H314 C298 0.931 . S
H315 C303 0.929 . S
H316 C304 0.960 . S
H317 C304 0.962 . S
H318 C304 0.960 . S
H319 C305 0.961 . S
H320 C305 0.961 . S
H321 C305 0.961 . S
H322 C306 0.931 . S
H323 C311 0.930 . S
H324 C312 0.956 . S
H325 C312 0.961 . S
H326 C312 0.961 . S
H327 C313 0.958 . S
H328 C313 0.961 . S
H329 C313 0.960 . S
C330 C331 1.391 . S
C330 C332 1.394 . S
C330 H346 0.931 . S
C331 C330 1.391 . S
C331 C335 1.376 . S
C332 C330 1.394 . S
C332 C333 1.369 . S
C332 C336 1.531 . S
C333 C332 1.369 . S
C333 C334 1.411 . S
C333 C341 1.503 . S
C334 C333 1.411 . S
C334 C335 1.392 . S
C334 C337 1.510 1_544 S
C335 C331 1.376 . S
C335 C334 1.392 . S
C335 H347 0.929 1_544 S
C336 C332 1.531 . S
C336 H348 0.960 . S
C336 H349 0.962 . S
C336 H350 0.960 . S
C337 C334 1.510 1_566 S
C337 H351 0.961 . S
C337 H352 0.961 . S
C337 H353 0.961 1_565 S
C338 C339 1.370 1_565 S
C338 C340 1.363 1_655 S
C338 H354 0.931 . S
C339 C338 1.370 1_545 S
C339 C343 1.408 1_655 S
C340 C338 1.363 1_455 S
C340 C341 1.370 1_565 S
C340 C344 1.524 . S
C341 C333 1.503 . S
C341 C340 1.370 1_545 S
C341 C342 1.403 . S
C342 C341 1.403 . S
C342 C343 1.404 . S
C342 C345 1.539 1_554 S
C343 C339 1.408 1_455 S
C343 C342 1.404 . S
C343 H355 0.930 . S
C344 C340 1.524 . S
C344 H356 0.956 . S
C344 H357 0.961 . S
C344 H358 0.961 1_455 S
C345 C342 1.539 1_556 S
C345 H359 0.958 1_556 S
C345 H360 0.961 . S
C345 H361 0.960 . S
H346 C330 0.931 . S
H347 C335 0.929 1_566 S
H348 C336 0.960 . S
H349 C336 0.962 . S
H350 C336 0.960 . S
H351 C337 0.961 . S
H352 C337 0.961 . S
H353 C337 0.961 1_545 S
H354 C338 0.931 . S
H355 C343 0.930 . S
H356 C344 0.956 . S
H357 C344 0.961 . S
H358 C344 0.961 1_655 S
H359 C345 0.958 1_554 S
H360 C345 0.961 . S
H361 C345 0.960 . S
C362 C363 1.391 . S
C362 C364 1.394 1_655 S
C362 H378 0.931 . S
C363 C362 1.391 . S
C363 C367 1.376 . S
C364 C362 1.394 1_455 S
C364 C365 1.369 . S
C364 C368 1.531 1_565 S
C365 C364 1.369 . S
C365 C366 1.410 . S
C365 C373 1.503 1_565 S
C366 C365 1.410 . S
C366 C367 1.392 1_455 S
C366 C369 1.511 . S
C367 C363 1.376 . S
C367 C366 1.392 1_655 S
C367 H379 0.929 . S
C368 C364 1.531 1_545 S
C368 H380 0.960 . S
C368 H381 0.962 . S
C368 H382 0.960 1_545 S
C369 C366 1.511 . S
C369 H383 0.961 . S
C369 H384 0.961 1_565 S
C369 H385 0.961 . S
C370 C371 1.370 . S
C370 C372 1.363 . S
C370 H386 0.931 . S
C371 C370 1.370 . S
C371 C375 1.408 . S
C372 C370 1.363 . S
C372 C373 1.370 . S
C372 C376 1.524 . S
C373 C365 1.503 1_545 S
C373 C372 1.370 . S
C373 C374 1.403 . S
C374 C373 1.403 . S
C374 C375 1.404 . S
C374 C377 1.539 1_545 S
C375 C371 1.408 . S
C375 C374 1.404 . S
C375 H387 0.930 . S
C376 C372 1.524 . S
C376 H388 0.956 . S
C376 H389 0.961 . S
C376 H390 0.961 . S
C377 C374 1.539 1_565 S
C377 H391 0.958 . S
C377 H392 0.961 . S
C377 H393 0.960 . S
H378 C362 0.931 . S
H379 C367 0.929 . S
H380 C368 0.960 . S
H381 C368 0.962 . S
H382 C368 0.960 1_565 S
H383 C369 0.961 . S
H384 C369 0.961 1_545 S
H385 C369 0.961 . S
H386 C370 0.931 . S
H387 C375 0.930 . S
H388 C376 0.956 . S
H389 C376 0.961 . S
H390 C376 0.961 . S
H391 C377 0.958 . S
H392 C377 0.961 . S
H393 C377 0.960 . S
C394 C395 1.391 1_655 S
C394 C396 1.394 1_655 S
C394 H410 0.931 . S
C395 C394 1.391 1_455 S
C395 C399 1.376 . S
C396 C394 1.394 1_455 S
C396 C397 1.369 . S
C396 C400 1.531 1_445 S
C397 C396 1.369 . S
C397 C398 1.410 . S
C397 C405 1.503 . S
C398 C397 1.410 . S
C398 C399 1.392 . S
C398 C401 1.511 . S
C399 C395 1.376 . S
C399 C398 1.392 . S
C399 H411 0.929 . S
C400 C396 1.531 1_665 S
C400 H412 0.960 1_655 S
C400 H413 0.962 . S
C400 H414 0.960 . S
C401 C398 1.511 . S
C401 H415 0.961 . S
C401 H416 0.961 . S
C401 H417 0.961 . S
C402 C403 1.370 . S
C402 C404 1.363 . S
C402 H418 0.931 . S
C403 C402 1.370 . S
C403 C407 1.408 1_565 S
C404 C402 1.363 . S
C404 C405 1.370 1_565 S
C404 C408 1.524 . S
C405 C397 1.503 . S
C405 C404 1.370 1_545 S
C405 C406 1.403 . S
C406 C405 1.403 . S
C406 C407 1.404 . S
C406 C409 1.539 . S
C407 C403 1.408 1_545 S
C407 C406 1.404 . S
C407 H419 0.930 . S
C408 C404 1.524 . S
C408 H420 0.956 . S
C408 H421 0.961 1_565 S
C408 H422 0.961 . S
C409 C406 1.539 . S
C409 H423 0.958 . S
C409 H424 0.961 . S
C409 H425 0.960 . S
H410 C394 0.931 . S
H411 C399 0.929 . S
H412 C400 0.960 1_455 S
H413 C400 0.962 . S
H414 C400 0.960 . S
H415 C401 0.961 . S
H416 C401 0.961 . S
H417 C401 0.961 . S
H418 C402 0.931 . S
H419 C407 0.930 . S
H420 C408 0.956 . S
H421 C408 0.961 1_545 S
H422 C408 0.961 . S
H423 C409 0.958 . S
H424 C409 0.961 . S
H425 C409 0.960 . S
C426 C427 1.391 . S
C426 C428 1.394 . S
C426 H442 0.931 . S
C427 C426 1.391 . S
C427 C431 1.376 1_554 S
C428 C426 1.394 . S
C428 C429 1.369 . S
C428 C432 1.531 . S
C429 C428 1.369 . S
C429 C430 1.410 1_554 S
C429 C437 1.503 . S
C430 C429 1.410 1_556 S
C430 C431 1.392 . S
C430 C433 1.511 . S
C431 C427 1.376 1_556 S
C431 C430 1.392 . S
C431 H443 0.929 . S
C432 C428 1.531 . S
C432 H444 0.960 . S
C432 H445 0.962 . S
C432 H446 0.960 . S
C433 C430 1.511 . S
C433 H447 0.961 . S
C433 H448 0.961 . S
C433 H449 0.961 . S
C434 C435 1.370 1_565 S
C434 C436 1.363 . S
C434 H450 0.931 . S
C435 C434 1.370 1_545 S
C435 C439 1.408 . S
C436 C434 1.363 . S
C436 C437 1.370 1_565 S
C436 C440 1.524 . S
C437 C429 1.503 . S
C437 C436 1.370 1_545 S
C437 C438 1.403 . S
C438 C437 1.403 . S
C438 C439 1.404 . S
C438 C441 1.539 . S
C439 C435 1.408 . S
C439 C438 1.404 . S
C439 H451 0.930 . S
C440 C436 1.524 . S
C440 H452 0.956 . S
C440 H453 0.961 . S
C440 H454 0.961 . S
C441 C438 1.539 . S
C441 H455 0.958 . S
C441 H456 0.961 1_554 S
C441 H457 0.960 1_554 S
H442 C426 0.931 . S
H443 C431 0.929 . S
H444 C432 0.960 . S
H445 C432 0.962 . S
H446 C432 0.960 . S
H447 C433 0.961 . S
H448 C433 0.961 . S
H449 C433 0.961 . S
H450 C434 0.931 . S
H451 C439 0.930 . S
H452 C440 0.956 . S
H453 C440 0.961 . S
H454 C440 0.961 . S
H455 C441 0.958 . S
H456 C441 0.961 1_556 S
H457 C441 0.960 1_556 S
C458 C459 1.391 . S
C458 C460 1.394 . S
C458 H474 0.931 . S
C459 C458 1.391 . S
C459 C463 1.376 . S
C460 C458 1.394 . S
C460 C461 1.369 . S
C460 C464 1.531 . S
C461 C460 1.369 . S
C461 C462 1.410 . S
C461 C469 1.503 . S
C462 C461 1.410 . S
C462 C463 1.392 . S
C462 C465 1.511 . S
C463 C459 1.376 . S
C463 C462 1.392 . S
C463 H475 0.929 . S
C464 C460 1.531 . S
C464 H476 0.960 . S
C464 H477 0.962 . S
C464 H478 0.960 . S
C465 C462 1.511 . S
C465 H479 0.961 . S
C465 H480 0.961 . S
C465 H481 0.961 . S
C466 C467 1.370 . S
C466 C468 1.363 . S
C466 H482 0.931 . S
C467 C466 1.370 . S
C467 C471 1.408 . S
C468 C466 1.363 . S
C468 C469 1.370 . S
C468 C472 1.524 . S
C469 C461 1.503 . S
C469 C468 1.370 . S
C469 C470 1.403 . S
C470 C469 1.403 . S
C470 C471 1.404 . S
C470 C473 1.539 . S
C471 C467 1.408 . S
C471 C470 1.404 . S
C471 H483 0.930 . S
C472 C468 1.524 . S
C472 H484 0.956 . S
C472 H485 0.961 . S
C472 H486 0.961 . S
C473 C470 1.539 . S
C473 H487 0.958 . S
C473 H488 0.961 . S
C473 H489 0.960 . S
H474 C458 0.931 . S
H475 C463 0.929 . S
H476 C464 0.960 . S
H477 C464 0.962 . S
H478 C464 0.960 . S
H479 C465 0.961 . S
H480 C465 0.961 . S
H481 C465 0.961 . S
H482 C466 0.931 . S
H483 C471 0.930 . S
H484 C472 0.956 . S
H485 C472 0.961 . S
H486 C472 0.961 . S
H487 C473 0.958 . S
H488 C473 0.961 . S
H489 C473 0.960 . S
C490 C491 1.391 . S
C490 C492 1.394 . S
C490 H506 0.931 . S
C491 C490 1.391 . S
C491 C495 1.376 . S
C492 C490 1.394 . S
C492 C493 1.369 . S
C492 C496 1.531 . S
C493 C492 1.369 . S
C493 C494 1.410 . S
C493 C501 1.503 . S
C494 C493 1.410 . S
C494 C495 1.392 . S
C494 C497 1.511 . S
C495 C491 1.376 . S
C495 C494 1.392 . S
C495 H507 0.929 . S
C496 C492 1.531 . S
C496 H508 0.960 . S
C496 H509 0.962 . S
C496 H510 0.960 . S
C497 C494 1.511 . S
C497 H511 0.961 . S
C497 H512 0.961 . S
C497 H513 0.961 . S
C498 C499 1.370 . S
C498 C500 1.363 . S
C498 H514 0.931 . S
C499 C498 1.370 . S
C499 C503 1.408 . S
C500 C498 1.363 . S
C500 C501 1.370 . S
C500 C504 1.524 . S
C501 C493 1.503 . S
C501 C500 1.370 . S
C501 C502 1.403 . S
C502 C501 1.403 . S
C502 C503 1.404 . S
C502 C505 1.539 . S
C503 C499 1.408 . S
C503 C502 1.404 . S
C503 H515 0.930 . S
C504 C500 1.524 . S
C504 H516 0.956 . S
C504 H517 0.961 . S
C504 H518 0.961 . S
C505 C502 1.539 . S
C505 H519 0.958 . S
C505 H520 0.961 . S
C505 H521 0.960 . S
H506 C490 0.931 . S
H507 C495 0.929 . S
H508 C496 0.960 . S
H509 C496 0.962 . S
H510 C496 0.960 . S
H511 C497 0.961 . S
H512 C497 0.961 . S
H513 C497 0.961 . S
H514 C498 0.931 . S
H515 C503 0.930 . S
H516 C504 0.956 . S
H517 C504 0.961 . S
H518 C504 0.961 . S
H519 C505 0.958 . S
H520 C505 0.961 . S
H521 C505 0.960 . S
C139 N12 1.710 . S
C147 N25 1.611 . S
C171 N35 1.654 . S
C179 N58 1.643 . S
C203 N71 1.700 . S
C211 N48 1.684 . S
C235 N81 1.698 . S
C243 N94 1.610 . S
C267 N127 1.656 . S
C275 N104 1.667 . S
C299 N2 1.729 1_565 S
C307 N117 1.695 . S
C331 C7 1.744 . S
C339 C76 1.753 . S
C363 C99 0.166 . S
C371 C30 0.141 . S
C395 C53 1.560 1_455 S
C403 C122 1.573 . S
C427 C85 1.787 . S
C435 C16 1.794 . S
C459 C108 1.253 . S
C467 C39 1.245 . S
C491 C131 2.044 . S
C499 C62 2.053 1_455 S
