# Generated by pormake.
# Topology uon, (4)-cn, num edge types: 1
# Building blocks:
#     Node 0, Type 0, BuildingBlock: MUDLON_clean_sbu_0, # of connection points: 4
#     Node 1, Type 0, BuildingBlock: MUDLON_clean_sbu_0, # of connection points: 4
#     Node 2, Type 0, BuildingBlock: MUDLON_clean_sbu_0, # of connection points: 4
#     Node 3, Type 0, BuildingBlock: MUDLON_clean_sbu_0, # of connection points: 4
#     Node 4, Type 0, BuildingBlock: MUDLON_clean_sbu_0, # of connection points: 4
#     Node 5, Type 0, BuildingBlock: MUDLON_clean_sbu_0, # of connection points: 4
#     Edge 6, Type (0, 0), BuildingBlock: FUNLAD_clean_linker_1, # of connection points: 2
#     Edge 7, Type (0, 0), BuildingBlock: FUNLAD_clean_linker_1, # of connection points: 2
#     Edge 8, Type (0, 0), BuildingBlock: FUNLAD_clean_linker_1, # of connection points: 2
#     Edge 9, Type (0, 0), BuildingBlock: FUNLAD_clean_linker_1, # of connection points: 2
#     Edge 10, Type (0, 0), BuildingBlock: FUNLAD_clean_linker_1, # of connection points: 2
#     Edge 11, Type (0, 0), BuildingBlock: FUNLAD_clean_linker_1, # of connection points: 2
#     Edge 12, Type (0, 0), BuildingBlock: FUNLAD_clean_linker_1, # of connection points: 2
#     Edge 13, Type (0, 0), BuildingBlock: FUNLAD_clean_linker_1, # of connection points: 2
#     Edge 14, Type (0, 0), BuildingBlock: FUNLAD_clean_linker_1, # of connection points: 2
#     Edge 15, Type (0, 0), BuildingBlock: FUNLAD_clean_linker_1, # of connection points: 2
#     Edge 16, Type (0, 0), BuildingBlock: FUNLAD_clean_linker_1, # of connection points: 2
#     Edge 17, Type (0, 0), BuildingBlock: FUNLAD_clean_linker_1, # of connection points: 2
# Relax obj value: 0.184
# Max RMSD: 0.128
# Mean RMSD: 0.128
data_MOF--net-uon--node1-MUDLON_clean_sbu_0--edge1-FUNLAD_clean_linker_1
_symmetry_space_group_name_H-M    P1
_symmetry_Int_Tables_number       1
_symmetry_cell_setting            triclinic
loop_
_symmetry_equiv_pos_as_xyz
'x, y, z'
_cell_length_a     39.409827
_cell_length_b     39.304804
_cell_length_c     17.509988
_cell_angle_alpha  90.612087
_cell_angle_beta   90.161698
_cell_angle_gamma 119.87958
loop_
_atom_site_label
_atom_site_type_symbol
_atom_site_fract_x
_atom_site_fract_y
_atom_site_fract_z
_atom_type_partial_charge
Mg0 Mg 0.22759 0.44159 0.98842 0.0
C1 C 0.28163 0.48967 0.86125 0.0
O2 O 0.29035 0.46151 0.86348 0.0
C3 C 0.14996 0.37618 0.02614 0.0
O4 O 0.1739 0.3707 0.06981 0.0
C5 C 0.28339 0.40974 0.02315 0.0
O6 O 0.29543 0.43525 0.07998 0.0
O7 O 0.25546 0.4057 0.98043 0.0
O8 O 0.2545 0.48764 0.90357 0.0
O9 O 0.23443 0.47218 0.0968 0.0
C10 C 0.26435 0.50475 0.11486 0.0
O11 O 0.29537 0.51909 0.07112 0.0
O12 O 0.16427 0.40415 0.97871 0.0
Mg13 Mg 0.78853 0.22168 0.28415 0.0
C14 C 0.80773 0.30351 0.30133 0.0
O15 O 0.81197 0.29952 0.22792 0.0
C16 C 0.77074 0.14146 0.3276 0.0
O17 O 0.75706 0.13555 0.25726 0.0
C18 C 0.86667 0.25528 0.21334 0.0
O19 O 0.87513 0.2632 0.28634 0.0
O20 O 0.83092 0.2366 0.1926 0.0
O21 O 0.80126 0.27538 0.3451 0.0
O22 O 0.72842 0.20176 0.24932 0.0
C23 C 0.70907 0.20118 0.30781 0.0
O24 O 0.72655 0.20911 0.37498 0.0
O25 O 0.78704 0.17602 0.35591 0.0
Mg26 Mg 0.61129 0.80597 0.66581 0.0
C27 C 0.571 0.85449 0.72469 0.0
O28 O 0.57311 0.84551 0.79586 0.0
C29 C 0.64668 0.77245 0.76723 0.0
O30 O 0.62873 0.74521 0.71427 0.0
C31 C 0.67367 0.87203 0.59068 0.0
O32 O 0.67501 0.88291 0.66241 0.0
O33 O 0.65054 0.8363 0.5724 0.0
O34 O 0.58449 0.84251 0.67166 0.0
O35 O 0.56275 0.74644 0.64294 0.0
C36 C 0.53003 0.73833 0.67205 0.0
O37 O 0.52737 0.7659 0.70989 0.0
O38 O 0.64454 0.80367 0.76396 0.0
Mg39 Mg 0.81877 0.60002 0.08677 0.0
C40 C 0.76955 0.54985 0.95083 0.0
O41 O 0.77461 0.58351 0.92642 0.0
C42 C 0.90366 0.66442 0.09483 0.0
O43 O 0.88722 0.6842 0.12074 0.0
C44 C 0.75825 0.62542 0.07119 0.0
O45 O 0.73537 0.58812 0.08608 0.0
O46 O 0.79516 0.63949 0.07154 0.0
O47 O 0.78644 0.54899 0.0121 0.0
O48 O 0.81146 0.57358 0.19803 0.0
C49 C 0.78066 0.54164 0.2135 0.0
O50 O 0.74972 0.52928 0.16897 0.0
O51 O 0.882 0.62932 0.07108 0.0
Mg52 Mg 0.25683 0.80872 0.41826 0.0
C53 C 0.24469 0.73121 0.37108 0.0
O54 O 0.24004 0.74584 0.30737 0.0
C55 C 0.24178 0.86571 0.50659 0.0
O56 O 0.22696 0.86684 0.44011 0.0
C57 C 0.18145 0.77751 0.33457 0.0
O58 O 0.17302 0.75261 0.39056 0.0
O59 O 0.21639 0.80582 0.32896 0.0
O60 O 0.2499 0.75043 0.43313 0.0
O61 O 0.31964 0.84259 0.39777 0.0
C62 C 0.33814 0.85038 0.46116 0.0
O63 O 0.3179 0.83909 0.52447 0.0
O64 O 0.25128 0.83959 0.51773 0.0
Mg65 Mg 0.45828 0.22422 0.704 0.0
C66 C 0.47874 0.2097 0.54329 0.0
O67 O 0.44659 0.17569 0.5506 0.0
C68 C 0.41922 0.26316 0.78393 0.0
O69 O 0.43858 0.25887 0.84072 0.0
C70 C 0.43858 0.13913 0.72347 0.0
O71 O 0.47653 0.15587 0.73463 0.0
O72 O 0.42311 0.16048 0.71352 0.0
O73 O 0.48823 0.23588 0.59506 0.0
O74 O 0.50692 0.25347 0.78496 0.0
C75 C 0.52794 0.29002 0.77258 0.0
O76 O 0.51774 0.30533 0.71681 0.0
O77 O 0.42152 0.251 0.71752 0.0
H78 H 0.32632 0.39042 0.04653 0.0
C79 C 0.30417 0.38796 0.00618 0.0
H80 H 0.27751 0.36622 0.89818 0.0
H81 H 0.42582 0.35853 0.77811 0.0
H82 H 0.43562 0.41758 0.71652 0.0
H83 H 0.39348 0.44573 0.74665 0.0
H84 H 0.34152 0.41516 0.83935 0.0
C85 C 0.29815 0.36733 0.94078 0.0
C86 C 0.32227 0.34903 0.92068 0.0
C87 C 0.3517 0.36645 0.8645 0.0
C88 C 0.37543 0.34964 0.84579 0.0
C89 C 0.40601 0.36907 0.79264 0.0
C90 C 0.41219 0.40325 0.75722 0.0
C91 C 0.38851 0.41914 0.77426 0.0
C92 C 0.35871 0.40121 0.82747 0.0
H93 H 0.37729 0.28251 0.75026 0.0
C94 C 0.39495 0.28168 0.7972 0.0
H95 H 0.41138 0.29586 0.91306 0.0
H96 H 0.26685 0.30695 0.02733 0.0
H97 H 0.25623 0.2473 0.0881 0.0
H98 H 0.2967 0.21764 0.05493 0.0
H99 H 0.34797 0.24735 0.96074 0.0
C100 C 0.39445 0.29748 0.86556 0.0
C101 C 0.36886 0.31468 0.88177 0.0
C102 C 0.33904 0.29703 0.9373 0.0
C103 C 0.31572 0.31417 0.95667 0.0
C104 C 0.28577 0.2955 0.01131 0.0
C105 C 0.27924 0.26115 0.04641 0.0
C106 C 0.30202 0.24445 0.02772 0.0
C107 C 0.3315 0.26194 0.97373 0.0
H108 H 0.89049 0.26296 0.09606 0.0
C109 C 0.89828 0.2691 0.15621 0.0
H110 H 0.94399 0.29701 0.23737 0.0
H111 H 0.05196 0.28706 0.96313 0.0
H112 H 1.01199 0.21616 0.97146 0.0
H113 H 0.95252 0.18599 0.05026 0.0
H114 H 0.93222 0.22636 0.11998 0.0
C115 C 0.9362 0.28965 0.17747 0.0
C116 C 0.96899 0.30672 0.12192 0.0
C117 C 0.98069 0.28259 0.08252 0.0
C118 C 1.01589 0.3 0.03951 0.0
C119 C 1.02631 0.27529 0.99885 0.0
C120 C 1.0035 0.2346 1.00273 0.0
C121 C 0.96995 0.21762 0.04693 0.0
C122 C 0.95856 0.24117 0.08655 0.0
H123 H 0.09839 0.33173 0.0865 0.0
C124 C 0.10755 0.35312 0.0411 0.0
H125 H 0.08963 0.38218 0.96421 0.0
H126 H 0.95211 0.36106 0.18159 0.0
H127 H 0.99189 0.43185 0.17267 0.0
H128 H 0.05417 0.4621 0.1026 0.0
H129 H 0.07695 0.42189 0.04064 0.0
C130 C 0.08075 0.35984 0.00758 0.0
C131 C 0.04011 0.34144 0.03843 0.0
C132 C 0.02704 0.36549 0.07362 0.0
C133 C 0.99142 0.34808 0.11516 0.0
C134 C 0.97922 0.37278 0.15034 0.0
C135 C 1.00169 0.41345 0.14546 0.0
C136 C 0.03673 0.43047 0.10592 0.0
C137 C 0.04945 0.40696 0.07051 0.0
H138 H 0.77557 0.1139 0.43363 0.0
C139 C 0.76538 0.10813 0.37464 0.0
H140 H 0.73557 0.06485 0.2891 0.0
H141 H 0.78312 0.96827 0.53847 0.0
H142 H 0.85057 1.01318 0.50411 0.0
H143 H 0.86693 0.06864 0.41855 0.0
H144 H 0.81609 0.07982 0.36741 0.0
C145 C 0.74702 0.07102 0.3472 0.0
C146 C 0.7376 0.03684 0.39676 0.0
C147 C 0.76767 0.03036 0.42502 0.0
C148 C 0.75818 0.99798 0.4734 0.0
C149 C 0.78876 0.99244 0.50161 0.0
C150 C 0.82755 1.0179 0.48214 0.0
C151 C 0.83677 0.04915 0.43401 0.0
C152 C 0.8073 0.05536 0.40539 0.0
H153 H 0.68559 0.89301 0.47141 0.0
C154 C 0.69133 0.90218 0.53105 0.0
H155 H 0.71527 0.95014 0.60909 0.0
H156 H 0.67278 0.04014 0.35091 0.0
H157 H 0.60547 0.99504 0.38479 0.0
H158 H 0.5891 0.93895 0.46845 0.0
H159 H 0.63981 0.92785 0.51945 0.0
C160 C 0.70933 0.94065 0.54965 0.0
C161 C 0.71869 0.97173 0.49231 0.0
C162 C 0.68851 0.97776 0.4629 0.0
C163 C 0.69798 1.0102 0.41474 0.0
C164 C 0.6673 1.01585 0.38718 0.0
C165 C 0.6285 0.99025 0.40638 0.0
C166 C 0.61928 0.95872 0.4536 0.0
C167 C 0.64878 0.95255 0.4821 0.0
H168 H 0.70875 0.63301 0.03648 0.0
C169 C 0.74041 0.64836 0.04319 0.0
H170 H 0.79321 0.70073 0.02291 0.0
H171 H 0.72508 0.74369 0.73568 0.0
H172 H 0.77703 0.73549 0.68071 0.0
H173 H 0.81358 0.71255 0.75915 0.0
H174 H 0.79867 0.69795 0.89288 0.0
C175 C 0.76147 0.68552 0.0189 0.0
C176 C 0.74244 0.70391 0.97448 0.0
C177 C 0.75179 0.71261 0.8963 0.0
C178 C 0.73022 0.72513 0.85062 0.0
C179 C 0.74007 0.73344 0.77264 0.0
C180 C 0.76992 0.729 0.7404 0.0
C181 C 0.79054 0.71615 0.78459 0.0
C182 C 0.78168 0.70794 0.86152 0.0
H183 H 0.68774 0.79147 0.86648 0.0
C184 C 0.67053 0.76739 0.82685 0.0
H185 H 0.65578 0.71044 0.78938 0.0
H186 H 0.72252 0.69772 0.12511 0.0
H187 H 0.67053 0.706 0.18012 0.0
H188 H 0.63046 0.72378 0.09938 0.0
H189 H 0.64253 0.73407 0.96353 0.0
C190 C 0.67212 0.73398 0.83059 0.0
C191 C 0.69908 0.72865 0.8827 0.0
C192 C 0.69119 0.72216 0.96182 0.0
C193 C 0.71336 0.71044 0.00797 0.0
C194 C 0.70565 0.70527 0.08714 0.0
C195 C 0.67608 0.71018 0.11947 0.0
C196 C 0.65359 0.72029 0.07403 0.0
C197 C 0.66088 0.72619 0.99608 0.0
H198 H 0.95662 0.65877 0.10117 0.0
C199 C 0.94593 0.67934 0.10771 0.0
H200 H 0.95907 0.73585 0.14434 0.0
H201 H 0.08117 0.75635 0.39707 0.0
H202 H 0.02908 0.756 0.47085 0.0
H203 H 0.96685 0.74143 0.40924 0.0
H204 H 0.95641 0.72747 0.2737 0.0
C205 C 0.96999 0.71556 0.13625 0.0
C206 C 1.00863 0.72609 0.1717 0.0
C207 C 1.01416 0.73404 0.25146 0.0
C208 C 0.04969 0.74153 0.28742 0.0
C209 C 0.05449 0.74969 0.36703 0.0
C210 C 1.02488 0.74974 0.41011 0.0
C211 C 0.98989 0.74162 0.3754 0.0
C212 C 0.98438 0.73378 0.29721 0.0
H213 H 0.15643 0.79767 0.24356 0.0
C214 C 0.15014 0.77389 0.28236 0.0
H215 H 0.10738 0.71936 0.32543 0.0
H216 H 1.01034 0.7184 0.01657 0.0
H217 H 0.06224 0.71787 0.94308 0.0
H218 H 0.12207 0.72662 0.00667 0.0
H219 H 0.13073 0.73665 0.14389 0.0
C220 C 0.11377 0.74261 0.28517 0.0
C221 C 0.07955 0.74054 0.2441 0.0
C222 C 0.07462 0.73387 0.16401 0.0
C223 C 0.03939 0.7273 0.12761 0.0
C224 C 0.03584 0.72213 0.04732 0.0
C225 C 0.06551 0.72201 0.00444 0.0
C226 C 0.09925 0.72704 0.04023 0.0
C227 C 0.1039 0.73287 0.11906 0.0
H228 H 0.42961 0.079 0.7256 0.0
C229 C 0.41526 0.09595 0.71418 0.0
H230 H 0.36372 0.09417 0.67465 0.0
H231 H 0.34655 0.93134 0.51832 0.0
H232 H 0.40536 0.97421 0.44891 0.0
H233 H 0.44153 0.04534 0.47568 0.0
H234 H 0.42007 0.07396 0.57391 0.0
C235 C 0.37854 0.07763 0.6856 0.0
C236 C 0.3567 0.03457 0.66801 0.0
C237 C 0.36962 1.01846 0.60942 0.0
C238 C 0.3478 0.97757 0.59164 0.0
C239 C 0.36166 0.96219 0.53374 0.0
C240 C 0.3954 0.98648 0.49327 0.0
C241 C 0.41588 0.02652 0.50865 0.0
C242 C 0.40329 0.04251 0.56575 0.0
H243 H 0.24687 0.9214 0.54628 0.0
C244 C 0.25673 0.90055 0.55755 0.0
H245 H 0.29977 0.89204 0.61178 0.0
H246 H 0.32391 0.0554 0.78383 0.0
H247 H 0.26357 1.01254 0.84975 0.0
H248 H 0.225 0.94212 0.81605 0.0
H249 H 0.24661 0.91406 0.71615 0.0
C250 C 0.2877 0.91135 0.60432 0.0
C251 C 0.31213 0.95314 0.6296 0.0
C252 C 0.29919 0.96915 0.68785 0.0
C253 C 0.32151 1.00983 0.70721 0.0
C254 C 0.30798 0.02484 0.76627 0.0
C255 C 0.27345 1.00054 0.80473 0.0
C256 C 0.25172 0.96088 0.78574 0.0
C257 C 0.26434 0.94519 0.72814 0.0
H258 H 0.26781 0.69355 0.41299 0.0
C259 C 0.25121 0.69725 0.3674 0.0
H260 H 0.22509 0.67896 0.25881 0.0
H261 H 0.32356 0.61998 0.09662 0.0
H262 H 0.34248 0.68056 0.03136 0.0
H263 H 0.32452 0.72816 0.08213 0.0
H264 H 0.28696 0.71501 0.19809 0.0
C265 C 0.2412 0.67433 0.3042 0.0
C266 C 0.25809 0.64875 0.28462 0.0
C267 C 0.28162 0.65757 0.21845 0.0
C268 C 0.29312 0.6307 0.19062 0.0
C269 C 0.31474 0.63953 0.12191 0.0
C270 C 0.32579 0.67429 0.08346 0.0
C271 C 0.3156 0.70103 0.11191 0.0
C272 C 0.2938 0.69295 0.17843 0.0
H273 H 0.23041 0.5212 0.19105 0.0
C274 C 0.25995 0.5299 0.17276 0.0
H275 H 0.31915 0.57398 0.17564 0.0
H276 H 0.21382 0.62275 0.414 0.0
H277 H 0.20051 0.56531 0.48678 0.0
H278 H 0.22609 0.52223 0.4454 0.0
H279 H 0.26432 0.53582 0.32959 0.0
C280 C 0.28972 0.56514 0.19461 0.0
C281 C 0.28208 0.59543 0.23031 0.0
C282 C 0.26165 0.58838 0.3003 0.0
C283 C 0.24867 0.61447 0.32641 0.0
C284 C 0.22577 0.60495 0.39323 0.0
C285 C 0.21774 0.57192 0.43536 0.0
C286 C 0.23201 0.54757 0.41191 0.0
C287 C 0.25366 0.55552 0.34513 0.0
H288 H 0.53755 0.24014 0.49344 0.0
C289 C 0.50855 0.21453 0.48688 0.0
H290 H 0.47453 0.15968 0.43198 0.0
H291 H 0.65537 0.25484 0.27618 0.0
H292 H 0.63784 0.3021 0.2297 0.0
H293 H 0.57356 0.29524 0.25901 0.0
H294 H 0.5266 0.24141 0.33657 0.0
C295 C 0.50315 0.18585 0.43729 0.0
C296 C 0.53754 0.18513 0.40364 0.0
C297 C 0.56373 0.21544 0.35489 0.0
C298 C 0.60034 0.21868 0.33592 0.0
C299 C 0.62695 0.25063 0.2912 0.0
C300 C 0.61724 0.27794 0.2641 0.0
C301 C 0.58105 0.27412 0.28076 0.0
C302 C 0.55448 0.24327 0.32558 0.0
H303 H 0.65303 0.18443 0.24713 0.0
C304 C 0.6685 0.19377 0.30152 0.0
H305 H 0.66666 0.20816 0.41738 0.0
H306 H 0.49285 0.12121 0.49335 0.0
H307 H 0.50949 0.07286 0.53491 0.0
H308 H 0.57131 0.07654 0.49547 0.0
H309 H 0.61736 0.12958 0.41576 0.0
C310 C 0.6512 0.19925 0.36289 0.0
C311 C 0.61004 0.19085 0.36383 0.0
C312 C 0.58233 0.15853 0.40642 0.0
C313 C 0.54621 0.1558 0.42708 0.0
C314 C 0.52036 0.12449 0.47421 0.0
C315 C 0.52954 0.09639 0.49861 0.0
C316 C 0.56438 0.09856 0.4767 0.0
C317 C 0.59061 0.12922 0.43125 0.0
H318 H 0.50153 0.67399 0.65228 0.0
C319 C 0.49686 0.69758 0.67238 0.0
H320 H 0.45813 0.71277 0.7256 0.0
H321 H 0.32956 0.52808 0.6409 0.0
H322 H 0.33924 0.54819 0.50823 0.0
H323 H 0.39111 0.61447 0.47272 0.0
H324 H 0.43383 0.66105 0.56945 0.0
C325 C 0.46241 0.68921 0.70366 0.0
C326 C 0.43197 0.6485 0.72309 0.0
C327 C 0.4074 0.62167 0.66583 0.0
C328 C 0.37717 0.58354 0.68642 0.0
C329 C 0.35292 0.55735 0.62825 0.0
C330 C 0.35813 0.56854 0.55201 0.0
C331 C 0.38736 0.60587 0.532 0.0
C332 C 0.41176 0.63228 0.58801 0.0
H333 H 0.30219 0.55107 0.82913 0.0
C334 C 0.30757 0.52666 0.82171 0.0
H335 H 0.34617 0.50854 0.77803 0.0
H336 H 0.47401 0.6928 0.84708 0.0
H337 H 0.46402 0.67288 0.97934 0.0
H338 H 0.41225 0.60658 0.01481 0.0
H339 H 0.37012 0.55993 0.91836 0.0
C340 C 0.3402 0.53251 0.786 0.0
C341 C 0.37131 0.57254 0.76419 0.0
C342 C 0.39613 0.59931 0.82141 0.0
C343 C 0.42624 0.63739 0.80088 0.0
C344 C 0.4505 0.66356 0.85931 0.0
C345 C 0.4452 0.65247 0.93555 0.0
C346 C 0.41606 0.61517 0.95552 0.0
C347 C 0.39189 0.58872 0.89942 0.0
H348 H 0.81451 0.51933 0.27264 0.0
C349 C 0.78486 0.51339 0.26176 0.0
H350 H 0.72496 0.47232 0.26688 0.0
H351 H 0.74793 0.32836 0.19085 0.0
H352 H 0.69857 0.32156 0.09943 0.0
H353 H 0.67734 0.37079 0.09399 0.0
H354 H 0.70471 0.42663 0.18022 0.0
C355 C 0.75441 0.47789 0.2779 0.0
C356 C 0.76081 0.44401 0.29204 0.0
C357 C 0.7441 0.41134 0.2407 0.0
C358 C 0.75708 0.38345 0.24222 0.0
C359 C 0.73988 0.35097 0.19077 0.0
C360 C 0.71139 0.34659 0.13817 0.0
C361 C 0.69939 0.37427 0.13524 0.0
C362 C 0.71546 0.40632 0.18549 0.0
H363 H 0.78743 0.33263 0.38371 0.0
C364 C 0.80109 0.33546 0.32853 0.0
H365 H 0.81879 0.3662 0.22538 0.0
H366 H 0.78904 0.49534 0.41292 0.0
H367 H 0.83726 0.50097 0.50693 0.0
H368 H 0.86409 0.45609 0.50231 0.0
H369 H 0.84223 0.40473 0.40515 0.0
C370 C 0.80628 0.36444 0.28146 0.0
C371 C 0.78726 0.38864 0.29353 0.0
C372 C 0.8012 0.41902 0.34949 0.0
C373 C 0.78712 0.44611 0.34996 0.0
C374 C 0.80015 0.47516 0.40832 0.0
C375 C 0.82753 0.47849 0.46277 0.0
C376 C 0.84254 0.45313 0.4603 0.0
C377 C 0.8297 0.42373 0.40432 0.0
H378 H 0.39542 0.86266 0.41458 0.0
C379 C 0.38062 0.86493 0.46499 0.0
H380 H 0.38435 0.87747 0.58339 0.0
H381 H 0.49468 0.80301 0.62077 0.0
H382 H 0.43403 0.7415 0.60498 0.0
H383 H 0.3735 0.7404 0.56437 0.0
H384 H 0.37351 0.80077 0.53818 0.0
C385 C 0.39916 0.87493 0.5332 0.0
C386 C 0.43656 0.8755 0.54767 0.0
C387 C 0.43578 0.83984 0.56408 0.0
C388 C 0.47037 0.84053 0.58969 0.0
C389 C 0.46907 0.80439 0.60332 0.0
C390 C 0.43444 0.76877 0.59412 0.0
C391 C 0.40041 0.76816 0.57112 0.0
C392 C 0.40087 0.80313 0.55623 0.0
H393 H 0.52423 0.86892 0.74538 0.0
C394 C 0.54465 0.86951 0.70311 0.0
H395 H 0.56133 0.87804 0.58688 0.0
H396 H 0.44831 0.94836 0.51604 0.0
H397 H 0.50947 1.01001 0.52949 0.0
H398 H 0.5694 1.01145 0.57594 0.0
H399 H 0.5684 0.95106 0.60973 0.0
C400 C 0.54102 0.87723 0.62964 0.0
C401 C 0.50533 0.87694 0.60119 0.0
C402 C 0.50648 0.9124 0.58196 0.0
C403 C 0.47197 0.91166 0.55525 0.0
C404 C 0.47371 0.94744 0.53692 0.0
C405 C 0.50863 0.98297 0.54426 0.0
C406 C 0.54236 0.98374 0.57039 0.0
C407 C 0.54143 0.94894 0.58946 0.0
H408 H 0.57305 0.3014 0.86111 0.0
C409 C 0.56386 0.31492 0.81806 0.0
H410 H 0.57675 0.36695 0.76101 0.0
H411 H 0.68618 0.45544 0.06115 0.0
H412 H 0.62749 0.42186 0.1368 0.0
H413 H 0.56596 0.36943 0.07988 0.0
H414 H 0.56288 0.35012 0.94716 0.0
C415 C 0.58539 0.35377 0.80575 0.0
C416 C 0.62338 0.38011 0.84518 0.0
C417 C 0.62462 0.39091 0.92319 0.0
C418 C 0.66006 0.42151 0.95586 0.0
C419 C 0.66024 0.43234 0.03337 0.0
C420 C 0.62668 0.41336 0.07752 0.0
C421 C 0.59206 0.38381 0.04549 0.0
C422 C 0.59077 0.37284 0.96915 0.0
H423 H 0.72512 0.51543 0.86271 0.0
C424 C 0.7402 0.51306 0.9127 0.0
H425 H 0.7428 0.47475 0.99319 0.0
H426 H 0.63232 0.36322 0.69718 0.0
H427 H 0.69205 0.39462 0.62338 0.0
H428 H 0.75357 0.44688 0.68074 0.0
H429 H 0.75564 0.46827 0.81212 0.0
C430 C 0.72902 0.47739 0.94149 0.0
C431 C 0.69397 0.4416 0.91024 0.0
C432 C 0.69344 0.42879 0.83403 0.0
C433 C 0.65808 0.39827 0.80135 0.0
C434 C 0.65829 0.38648 0.72469 0.0
C435 C 0.69242 0.4041 0.68181 0.0
C436 C 0.72705 0.43355 0.71408 0.0
C437 C 0.72776 0.44576 0.78934 0.0
loop_
_geom_bond_atom_site_label_1
_geom_bond_atom_site_label_2
_geom_bond_distance
_geom_bond_site_symmetry_2
_ccdc_geom_bond_type
Mg0 O7 2.141 . S
Mg0 O8 2.048 . S
Mg0 O9 2.048 1_556 S
Mg0 O12 2.141 1_556 S
C1 O2 1.313 1_556 S
C1 O8 1.195 . S
O2 C1 1.313 1_554 S
C3 O4 1.245 . S
C3 O12 1.289 . S
O4 C3 1.245 . S
C5 O6 1.245 1_556 S
C5 O7 1.289 . S
O6 C5 1.245 1_554 S
O7 Mg0 2.141 . S
O7 C5 1.289 . S
O8 Mg0 2.048 . S
O8 C1 1.195 . S
O9 Mg0 2.048 1_554 S
O9 C10 1.195 . S
C10 O9 1.195 . S
C10 O11 1.313 . S
O11 C10 1.313 . S
O12 Mg0 2.141 1_554 S
O12 C3 1.289 . S
Mg13 O20 2.141 . S
Mg13 O21 2.048 . S
Mg13 O22 2.048 . S
Mg13 O25 2.141 . S
C14 O15 1.313 . S
C14 O21 1.195 . S
O15 C14 1.313 . S
C16 O17 1.245 . S
C16 O25 1.289 . S
O17 C16 1.245 . S
C18 O19 1.245 . S
C18 O20 1.289 . S
O19 C18 1.245 . S
O20 Mg13 2.141 . S
O20 C18 1.289 . S
O21 Mg13 2.048 . S
O21 C14 1.195 . S
O22 Mg13 2.048 . S
O22 C23 1.195 . S
C23 O22 1.195 . S
C23 O24 1.313 . S
O24 C23 1.313 . S
O25 Mg13 2.141 . S
O25 C16 1.289 . S
Mg26 O33 2.141 . S
Mg26 O34 2.048 . S
Mg26 O35 2.048 . S
Mg26 O38 2.141 . S
C27 O28 1.313 . S
C27 O34 1.195 . S
O28 C27 1.313 . S
C29 O30 1.245 . S
C29 O38 1.289 . S
O30 C29 1.245 . S
C31 O32 1.245 . S
C31 O33 1.289 . S
O32 C31 1.245 . S
O33 Mg26 2.141 . S
O33 C31 1.289 . S
O34 Mg26 2.048 . S
O34 C27 1.195 . S
O35 Mg26 2.048 . S
O35 C36 1.195 . S
C36 O35 1.195 . S
C36 O37 1.313 . S
O37 C36 1.313 . S
O38 Mg26 2.141 . S
O38 C29 1.289 . S
Mg39 O46 2.141 . S
Mg39 O47 2.048 . S
Mg39 O48 2.048 1_556 S
Mg39 O51 2.141 1_556 S
C40 O41 1.313 1_556 S
C40 O47 1.195 . S
O41 C40 1.313 1_554 S
C42 O43 1.245 . S
C42 O51 1.289 . S
O43 C42 1.245 . S
C44 O45 1.245 1_556 S
C44 O46 1.289 . S
O45 C44 1.245 1_554 S
O46 Mg39 2.141 . S
O46 C44 1.289 . S
O47 Mg39 2.048 . S
O47 C40 1.195 . S
O48 Mg39 2.048 1_554 S
O48 C49 1.195 . S
C49 O48 1.195 . S
C49 O50 1.313 . S
O50 C49 1.313 . S
O51 Mg39 2.141 1_554 S
O51 C42 1.289 . S
Mg52 O59 2.141 . S
Mg52 O60 2.048 . S
Mg52 O61 2.048 . S
Mg52 O64 2.141 . S
C53 O54 1.313 . S
C53 O60 1.195 . S
O54 C53 1.313 . S
C55 O56 1.245 . S
C55 O64 1.289 . S
O56 C55 1.245 . S
C57 O58 1.245 . S
C57 O59 1.289 . S
O58 C57 1.245 . S
O59 Mg52 2.141 . S
O59 C57 1.289 . S
O60 Mg52 2.048 . S
O60 C53 1.195 . S
O61 Mg52 2.048 . S
O61 C62 1.195 . S
C62 O61 1.195 . S
C62 O63 1.313 . S
O63 C62 1.313 . S
O64 Mg52 2.141 . S
O64 C55 1.289 . S
Mg65 O72 2.141 . S
Mg65 O73 2.048 . S
Mg65 O74 2.048 . S
Mg65 O77 2.141 . S
C66 O67 1.313 . S
C66 O73 1.195 . S
O67 C66 1.313 . S
C68 O69 1.245 . S
C68 O77 1.289 . S
O69 C68 1.245 . S
C70 O71 1.245 . S
C70 O72 1.289 . S
O71 C70 1.245 . S
O72 Mg65 2.141 . S
O72 C70 1.289 . S
O73 Mg65 2.048 . S
O73 C66 1.195 . S
O74 Mg65 2.048 . S
O74 C75 1.195 . S
C75 O74 1.195 . S
C75 O76 1.313 . S
O76 C75 1.313 . S
O77 Mg65 2.141 . S
O77 C68 1.289 . S
H78 C79 0.951 . S
C79 H78 0.951 . S
C79 C85 1.265 . S
H80 C85 0.950 . S
H81 C89 0.949 . S
H82 C90 0.950 . S
H83 C91 0.951 . S
H84 C92 0.951 . S
C85 C79 1.265 . S
C85 H80 0.950 . S
C85 C86 1.478 . S
C86 C85 1.478 . S
C86 C87 1.397 . S
C86 C103 1.394 . S
C87 C86 1.397 . S
C87 C88 1.438 . S
C87 C92 1.429 . S
C88 C87 1.438 . S
C88 C89 1.428 . S
C88 C101 1.394 . S
C89 H81 0.949 . S
C89 C88 1.428 . S
C89 C90 1.345 . S
C90 H82 0.950 . S
C90 C89 1.345 . S
C90 C91 1.424 . S
C91 H83 0.951 . S
C91 C90 1.424 . S
C91 C92 1.347 . S
C92 H84 0.951 . S
C92 C87 1.429 . S
C92 C91 1.347 . S
H93 C94 0.951 . S
C94 H93 0.951 . S
C94 C100 1.265 . S
H95 C100 0.950 . S
H96 C104 0.949 . S
H97 C105 0.950 . S
H98 C106 0.951 . S
H99 C107 0.951 . S
C100 C94 1.265 . S
C100 H95 0.950 . S
C100 C101 1.478 . S
C101 C88 1.394 . S
C101 C100 1.478 . S
C101 C102 1.397 . S
C102 C101 1.397 . S
C102 C103 1.438 . S
C102 C107 1.429 . S
C103 C86 1.394 . S
C103 C102 1.438 . S
C103 C104 1.428 . S
C104 H96 0.949 . S
C104 C103 1.428 . S
C104 C105 1.345 1_556 S
C105 H97 0.950 . S
C105 C104 1.345 1_554 S
C105 C106 1.424 . S
C106 H98 0.951 . S
C106 C105 1.424 . S
C106 C107 1.347 1_554 S
C107 H99 0.951 . S
C107 C102 1.429 . S
C107 C106 1.347 1_556 S
H108 C109 0.951 . S
C109 H108 0.951 . S
C109 C115 1.265 . S
H110 C115 0.950 . S
H111 C119 0.949 . S
H112 C120 0.950 . S
H113 C121 0.951 . S
H114 C122 0.951 . S
C115 C109 1.265 . S
C115 H110 0.950 . S
C115 C116 1.478 . S
C116 C115 1.478 . S
C116 C117 1.397 . S
C116 C133 1.394 . S
C117 C116 1.397 . S
C117 C118 1.438 1_655 S
C117 C122 1.429 . S
C118 C117 1.438 1_455 S
C118 C119 1.428 . S
C118 C131 1.394 . S
C119 H111 0.949 . S
C119 C118 1.428 . S
C119 C120 1.345 . S
C120 H112 0.950 . S
C120 C119 1.345 . S
C120 C121 1.424 1_455 S
C121 H113 0.951 . S
C121 C120 1.424 1_655 S
C121 C122 1.347 . S
C122 H114 0.951 . S
C122 C117 1.429 . S
C122 C121 1.347 . S
H123 C124 0.951 . S
C124 H123 0.951 . S
C124 C130 1.265 . S
H125 C130 0.950 . S
H126 C134 0.949 . S
H127 C135 0.950 . S
H128 C136 0.951 . S
H129 C137 0.951 . S
C130 C124 1.265 . S
C130 H125 0.950 . S
C130 C131 1.478 . S
C131 C118 1.394 . S
C131 C130 1.478 . S
C131 C132 1.397 . S
C132 C131 1.397 . S
C132 C133 1.438 1_455 S
C132 C137 1.429 . S
C133 C116 1.394 . S
C133 C132 1.438 1_655 S
C133 C134 1.428 . S
C134 H126 0.949 . S
C134 C133 1.428 . S
C134 C135 1.345 . S
C135 H127 0.950 . S
C135 C134 1.345 . S
C135 C136 1.424 1_655 S
C136 H128 0.951 . S
C136 C135 1.424 1_455 S
C136 C137 1.347 . S
C137 H129 0.951 . S
C137 C132 1.429 . S
C137 C136 1.347 . S
H138 C139 0.951 . S
C139 H138 0.951 . S
C139 C145 1.265 . S
H140 C145 0.950 . S
H141 C149 0.949 . S
H142 C150 0.950 1_565 S
H143 C151 0.951 . S
H144 C152 0.951 . S
C145 C139 1.265 . S
C145 H140 0.950 . S
C145 C146 1.478 . S
C146 C145 1.478 . S
C146 C147 1.397 . S
C146 C163 1.394 . S
C147 C146 1.397 . S
C147 C148 1.438 1_545 S
C147 C152 1.429 . S
C148 C147 1.438 1_565 S
C148 C149 1.428 . S
C148 C161 1.394 . S
C149 H141 0.949 . S
C149 C148 1.428 . S
C149 C150 1.345 1_565 S
C150 H142 0.950 1_545 S
C150 C149 1.345 1_545 S
C150 C151 1.424 . S
C151 H143 0.951 . S
C151 C150 1.424 . S
C151 C152 1.347 . S
C152 H144 0.951 . S
C152 C147 1.429 . S
C152 C151 1.347 . S
H153 C154 0.951 . S
C154 H153 0.951 . S
C154 C160 1.265 . S
H155 C160 0.950 . S
H156 C164 0.949 . S
H157 C165 0.950 1_545 S
H158 C166 0.951 . S
H159 C167 0.951 . S
C160 C154 1.265 . S
C160 H155 0.950 . S
C160 C161 1.478 . S
C161 C148 1.394 . S
C161 C160 1.478 . S
C161 C162 1.397 . S
C162 C161 1.397 . S
C162 C163 1.438 1_565 S
C162 C167 1.429 . S
C163 C146 1.394 . S
C163 C162 1.438 1_545 S
C163 C164 1.428 . S
C164 H156 0.949 . S
C164 C163 1.428 . S
C164 C165 1.345 1_545 S
C165 H157 0.950 1_565 S
C165 C164 1.345 1_565 S
C165 C166 1.424 . S
C166 H158 0.951 . S
C166 C165 1.424 . S
C166 C167 1.347 . S
C167 H159 0.951 . S
C167 C162 1.429 . S
C167 C166 1.347 . S
H168 C169 0.951 . S
C169 H168 0.951 . S
C169 C175 1.265 . S
H170 C175 0.950 . S
H171 C179 0.949 . S
H172 C180 0.950 . S
H173 C181 0.951 . S
H174 C182 0.951 . S
C175 C169 1.265 . S
C175 H170 0.950 . S
C175 C176 1.478 . S
C176 C175 1.478 . S
C176 C177 1.397 . S
C176 C193 1.394 . S
C177 C176 1.397 . S
C177 C178 1.438 . S
C177 C182 1.429 . S
C178 C177 1.438 . S
C178 C179 1.428 . S
C178 C191 1.394 . S
C179 H171 0.949 . S
C179 C178 1.428 . S
C179 C180 1.345 . S
C180 H172 0.950 . S
C180 C179 1.345 . S
C180 C181 1.424 . S
C181 H173 0.951 . S
C181 C180 1.424 . S
C181 C182 1.347 . S
C182 H174 0.951 . S
C182 C177 1.429 . S
C182 C181 1.347 . S
H183 C184 0.951 . S
C184 H183 0.951 . S
C184 C190 1.265 . S
H185 C190 0.950 . S
H186 C194 0.949 . S
H187 C195 0.950 . S
H188 C196 0.951 . S
H189 C197 0.951 . S
C190 C184 1.265 . S
C190 H185 0.950 . S
C190 C191 1.478 . S
C191 C178 1.394 . S
C191 C190 1.478 . S
C191 C192 1.397 . S
C192 C191 1.397 . S
C192 C193 1.438 . S
C192 C197 1.429 . S
C193 C176 1.394 . S
C193 C192 1.438 . S
C193 C194 1.428 1_556 S
C194 H186 0.949 . S
C194 C193 1.428 1_554 S
C194 C195 1.345 . S
C195 H187 0.950 . S
C195 C194 1.345 . S
C195 C196 1.424 . S
C196 H188 0.951 . S
C196 C195 1.424 . S
C196 C197 1.347 1_554 S
C197 H189 0.951 . S
C197 C192 1.429 . S
C197 C196 1.347 1_556 S
H198 C199 0.951 . S
C199 H198 0.951 . S
C199 C205 1.265 . S
H200 C205 0.950 . S
H201 C209 0.949 . S
H202 C210 0.949 1_455 S
H203 C211 0.951 . S
H204 C212 0.951 . S
C205 C199 1.265 . S
C205 H200 0.950 . S
C205 C206 1.478 . S
C206 C205 1.478 . S
C206 C207 1.397 . S
C206 C223 1.394 . S
C207 C206 1.397 . S
C207 C208 1.438 1_655 S
C207 C212 1.429 . S
C208 C207 1.438 1_455 S
C208 C209 1.428 . S
C208 C221 1.394 . S
C209 H201 0.949 . S
C209 C208 1.428 . S
C209 C210 1.332 1_455 S
C210 H202 0.949 1_655 S
C210 C209 1.332 1_655 S
C210 C211 1.437 . S
C211 H203 0.951 . S
C211 C210 1.437 . S
C211 C212 1.347 . S
C212 H204 0.951 . S
C212 C207 1.429 . S
C212 C211 1.347 . S
H213 C214 0.951 . S
C214 H213 0.951 . S
C214 C220 1.265 . S
H215 C220 0.950 . S
H216 C224 0.949 . S
H217 C225 0.949 1_656 S
H218 C226 0.951 . S
H219 C227 0.951 . S
C220 C214 1.265 . S
C220 H215 0.950 . S
C220 C221 1.478 . S
C221 C208 1.394 . S
C221 C220 1.478 . S
C221 C222 1.397 . S
C222 C221 1.397 . S
C222 C223 1.438 1_455 S
C222 C227 1.429 . S
C223 C206 1.394 . S
C223 C222 1.438 1_655 S
C223 C224 1.428 . S
C224 H216 0.949 . S
C224 C223 1.428 . S
C224 C225 1.333 1_655 S
C225 H217 0.949 1_454 S
C225 C224 1.333 1_455 S
C225 C226 1.437 . S
C226 H218 0.951 . S
C226 C225 1.437 . S
C226 C227 1.347 . S
C227 H219 0.951 . S
C227 C222 1.429 . S
C227 C226 1.347 . S
H228 C229 0.951 . S
C229 H228 0.951 . S
C229 C235 1.265 . S
H230 C235 0.950 . S
H231 C239 0.949 . S
H232 C240 0.952 . S
H233 C241 0.951 . S
H234 C242 0.951 . S
C235 C229 1.265 . S
C235 H230 0.950 . S
C235 C236 1.478 . S
C236 C235 1.478 . S
C236 C237 1.397 . S
C236 C253 1.394 . S
C237 C236 1.397 . S
C237 C238 1.438 1_545 S
C237 C242 1.429 . S
C238 C237 1.438 1_565 S
C238 C239 1.428 . S
C238 C251 1.394 . S
C239 H231 0.949 . S
C239 C238 1.428 . S
C239 C240 1.345 1_565 S
C240 H232 0.952 . S
C240 C239 1.345 1_545 S
C240 C241 1.424 . S
C241 H233 0.951 . S
C241 C240 1.424 . S
C241 C242 1.347 . S
C242 H234 0.951 . S
C242 C237 1.429 . S
C242 C241 1.347 . S
H243 C244 0.951 . S
C244 H243 0.951 . S
C244 C250 1.265 . S
H245 C250 0.950 . S
H246 C254 0.949 . S
H247 C255 0.952 . S
H248 C256 0.951 . S
H249 C257 0.951 . S
C250 C244 1.265 . S
C250 H245 0.950 . S
C250 C251 1.478 . S
C251 C238 1.394 . S
C251 C250 1.478 . S
C251 C252 1.397 . S
C252 C251 1.397 . S
C252 C253 1.438 1_565 S
C252 C257 1.429 . S
C253 C236 1.394 . S
C253 C252 1.438 1_545 S
C253 C254 1.428 . S
C254 H246 0.949 . S
C254 C253 1.428 . S
C254 C255 1.345 1_545 S
C255 H247 0.952 . S
C255 C254 1.345 1_565 S
C255 C256 1.424 . S
C256 H248 0.951 . S
C256 C255 1.424 . S
C256 C257 1.347 . S
C257 H249 0.951 . S
C257 C252 1.429 . S
C257 C256 1.347 . S
H258 C259 0.951 . S
C259 H258 0.951 . S
C259 C265 1.265 . S
H260 C265 0.950 . S
H261 C269 0.949 . S
H262 C270 0.950 . S
H263 C271 0.951 1_556 S
H264 C272 0.951 . S
C265 C259 1.265 . S
C265 H260 0.950 . S
C265 C266 1.478 . S
C266 C265 1.478 . S
C266 C267 1.397 . S
C266 C283 1.394 . S
C267 C266 1.397 . S
C267 C268 1.438 . S
C267 C272 1.429 . S
C268 C267 1.438 . S
C268 C269 1.428 . S
C268 C281 1.394 . S
C269 H261 0.949 . S
C269 C268 1.428 . S
C269 C270 1.345 1_554 S
C270 H262 0.950 . S
C270 C269 1.345 1_556 S
C270 C271 1.424 1_556 S
C271 H263 0.951 1_554 S
C271 C270 1.424 1_554 S
C271 C272 1.347 . S
C272 H264 0.951 . S
C272 C267 1.429 . S
C272 C271 1.347 . S
H273 C274 0.951 . S
C274 H273 0.951 . S
C274 C280 1.265 . S
H275 C280 0.950 . S
H276 C284 0.949 . S
H277 C285 0.950 . S
H278 C286 0.951 . S
H279 C287 0.951 . S
C280 C274 1.265 . S
C280 H275 0.950 . S
C280 C281 1.478 . S
C281 C268 1.394 . S
C281 C280 1.478 . S
C281 C282 1.397 . S
C282 C281 1.397 . S
C282 C283 1.438 . S
C282 C287 1.429 . S
C283 C266 1.394 . S
C283 C282 1.438 . S
C283 C284 1.428 . S
C284 H276 0.949 . S
C284 C283 1.428 . S
C284 C285 1.345 . S
C285 H277 0.950 . S
C285 C284 1.345 . S
C285 C286 1.424 . S
C286 H278 0.951 . S
C286 C285 1.424 . S
C286 C287 1.347 . S
C287 H279 0.951 . S
C287 C282 1.429 . S
C287 C286 1.347 . S
H288 C289 0.951 . S
C289 H288 0.951 . S
C289 C295 1.265 . S
H290 C295 0.950 . S
H291 C299 0.949 . S
H292 C300 0.950 . S
H293 C301 0.951 . S
H294 C302 0.951 . S
C295 C289 1.265 . S
C295 H290 0.950 . S
C295 C296 1.478 . S
C296 C295 1.478 . S
C296 C297 1.397 . S
C296 C313 1.394 . S
C297 C296 1.397 . S
C297 C298 1.438 . S
C297 C302 1.429 . S
C298 C297 1.438 . S
C298 C299 1.428 . S
C298 C311 1.394 . S
C299 H291 0.949 . S
C299 C298 1.428 . S
C299 C300 1.345 . S
C300 H292 0.950 . S
C300 C299 1.345 . S
C300 C301 1.424 . S
C301 H293 0.951 . S
C301 C300 1.424 . S
C301 C302 1.347 . S
C302 H294 0.951 . S
C302 C297 1.429 . S
C302 C301 1.347 . S
H303 C304 0.951 . S
C304 H303 0.951 . S
C304 C310 1.265 . S
H305 C310 0.950 . S
H306 C314 0.949 . S
H307 C315 0.950 . S
H308 C316 0.951 . S
H309 C317 0.951 . S
C310 C304 1.265 . S
C310 H305 0.950 . S
C310 C311 1.478 . S
C311 C298 1.394 . S
C311 C310 1.478 . S
C311 C312 1.397 . S
C312 C311 1.397 . S
C312 C313 1.438 . S
C312 C317 1.429 . S
C313 C296 1.394 . S
C313 C312 1.438 . S
C313 C314 1.428 . S
C314 H306 0.949 . S
C314 C313 1.428 . S
C314 C315 1.345 . S
C315 H307 0.950 . S
C315 C314 1.345 . S
C315 C316 1.424 . S
C316 H308 0.951 . S
C316 C315 1.424 . S
C316 C317 1.347 . S
C317 H309 0.951 . S
C317 C312 1.429 . S
C317 C316 1.347 . S
H318 C319 0.951 . S
C319 H318 0.951 . S
C319 C325 1.265 . S
H320 C325 0.950 . S
H321 C329 0.949 . S
H322 C330 0.950 . S
H323 C331 0.951 . S
H324 C332 0.951 . S
C325 C319 1.265 . S
C325 H320 0.950 . S
C325 C326 1.478 . S
C326 C325 1.478 . S
C326 C327 1.397 . S
C326 C343 1.394 . S
C327 C326 1.397 . S
C327 C328 1.438 . S
C327 C332 1.429 . S
C328 C327 1.438 . S
C328 C329 1.428 . S
C328 C341 1.394 . S
C329 H321 0.949 . S
C329 C328 1.428 . S
C329 C330 1.345 . S
C330 H322 0.950 . S
C330 C329 1.345 . S
C330 C331 1.424 . S
C331 H323 0.951 . S
C331 C330 1.424 . S
C331 C332 1.347 . S
C332 H324 0.951 . S
C332 C327 1.429 . S
C332 C331 1.347 . S
H333 C334 0.951 . S
C334 H333 0.951 . S
C334 C340 1.265 . S
H335 C340 0.950 . S
H336 C344 0.949 . S
H337 C345 0.950 . S
H338 C346 0.951 . S
H339 C347 0.951 . S
C340 C334 1.265 . S
C340 H335 0.950 . S
C340 C341 1.478 . S
C341 C328 1.394 . S
C341 C340 1.478 . S
C341 C342 1.397 . S
C342 C341 1.397 . S
C342 C343 1.438 . S
C342 C347 1.429 1_556 S
C343 C326 1.394 . S
C343 C342 1.438 . S
C343 C344 1.428 . S
C344 H336 0.949 . S
C344 C343 1.428 . S
C344 C345 1.345 1_556 S
C345 H337 0.950 . S
C345 C344 1.345 1_554 S
C345 C346 1.424 . S
C346 H338 0.951 . S
C346 C345 1.424 . S
C346 C347 1.347 . S
C347 H339 0.951 . S
C347 C342 1.429 1_554 S
C347 C346 1.347 . S
H348 C349 0.951 . S
C349 H348 0.951 . S
C349 C355 1.265 . S
H350 C355 0.950 . S
H351 C359 0.949 . S
H352 C360 0.950 . S
H353 C361 0.951 . S
H354 C362 0.951 . S
C355 C349 1.265 . S
C355 H350 0.950 . S
C355 C356 1.478 . S
C356 C355 1.478 . S
C356 C357 1.397 . S
C356 C373 1.394 . S
C357 C356 1.397 . S
C357 C358 1.438 . S
C357 C362 1.429 . S
C358 C357 1.438 . S
C358 C359 1.428 . S
C358 C371 1.394 . S
C359 H351 0.949 . S
C359 C358 1.428 . S
C359 C360 1.345 . S
C360 H352 0.950 . S
C360 C359 1.345 . S
C360 C361 1.424 . S
C361 H353 0.951 . S
C361 C360 1.424 . S
C361 C362 1.347 . S
C362 H354 0.951 . S
C362 C357 1.429 . S
C362 C361 1.347 . S
H363 C364 0.951 . S
C364 H363 0.951 . S
C364 C370 1.265 . S
H365 C370 0.950 . S
H366 C374 0.949 . S
H367 C375 0.950 . S
H368 C376 0.951 . S
H369 C377 0.951 . S
C370 C364 1.265 . S
C370 H365 0.950 . S
C370 C371 1.478 . S
C371 C358 1.394 . S
C371 C370 1.478 . S
C371 C372 1.397 . S
C372 C371 1.397 . S
C372 C373 1.438 . S
C372 C377 1.429 . S
C373 C356 1.394 . S
C373 C372 1.438 . S
C373 C374 1.428 . S
C374 H366 0.949 . S
C374 C373 1.428 . S
C374 C375 1.345 . S
C375 H367 0.950 . S
C375 C374 1.345 . S
C375 C376 1.424 . S
C376 H368 0.951 . S
C376 C375 1.424 . S
C376 C377 1.347 . S
C377 H369 0.951 . S
C377 C372 1.429 . S
C377 C376 1.347 . S
H378 C379 0.951 . S
C379 H378 0.951 . S
C379 C385 1.265 . S
H380 C385 0.950 . S
H381 C389 0.949 . S
H382 C390 0.950 . S
H383 C391 0.951 . S
H384 C392 0.951 . S
C385 C379 1.265 . S
C385 H380 0.950 . S
C385 C386 1.478 . S
C386 C385 1.478 . S
C386 C387 1.397 . S
C386 C403 1.394 . S
C387 C386 1.397 . S
C387 C388 1.438 . S
C387 C392 1.429 . S
C388 C387 1.438 . S
C388 C389 1.428 . S
C388 C401 1.394 . S
C389 H381 0.949 . S
C389 C388 1.428 . S
C389 C390 1.345 . S
C390 H382 0.950 . S
C390 C389 1.345 . S
C390 C391 1.424 . S
C391 H383 0.951 . S
C391 C390 1.424 . S
C391 C392 1.347 . S
C392 H384 0.951 . S
C392 C387 1.429 . S
C392 C391 1.347 . S
H393 C394 0.951 . S
C394 H393 0.951 . S
C394 C400 1.265 . S
H395 C400 0.950 . S
H396 C404 0.949 . S
H397 C405 0.950 . S
H398 C406 0.951 . S
H399 C407 0.951 . S
C400 C394 1.265 . S
C400 H395 0.950 . S
C400 C401 1.478 . S
C401 C388 1.394 . S
C401 C400 1.478 . S
C401 C402 1.397 . S
C402 C401 1.397 . S
C402 C403 1.438 . S
C402 C407 1.429 . S
C403 C386 1.394 . S
C403 C402 1.438 . S
C403 C404 1.428 . S
C404 H396 0.949 . S
C404 C403 1.428 . S
C404 C405 1.345 . S
C405 H397 0.950 . S
C405 C404 1.345 . S
C405 C406 1.424 . S
C406 H398 0.951 . S
C406 C405 1.424 . S
C406 C407 1.347 . S
C407 H399 0.951 . S
C407 C402 1.429 . S
C407 C406 1.347 . S
H408 C409 0.951 . S
C409 H408 0.951 . S
C409 C415 1.265 . S
H410 C415 0.950 . S
H411 C419 0.949 . S
H412 C420 0.950 . S
H413 C421 0.951 . S
H414 C422 0.951 . S
C415 C409 1.265 . S
C415 H410 0.950 . S
C415 C416 1.478 . S
C416 C415 1.478 . S
C416 C417 1.397 . S
C416 C433 1.394 . S
C417 C416 1.397 . S
C417 C418 1.438 . S
C417 C422 1.429 . S
C418 C417 1.438 . S
C418 C419 1.428 1_556 S
C418 C431 1.394 . S
C419 H411 0.949 . S
C419 C418 1.428 1_554 S
C419 C420 1.345 . S
C420 H412 0.950 . S
C420 C419 1.345 . S
C420 C421 1.424 . S
C421 H413 0.951 . S
C421 C420 1.424 . S
C421 C422 1.347 1_554 S
C422 H414 0.951 . S
C422 C417 1.429 . S
C422 C421 1.347 1_556 S
H423 C424 0.951 . S
C424 H423 0.951 . S
C424 C430 1.265 . S
H425 C430 0.950 . S
H426 C434 0.949 . S
H427 C435 0.950 . S
H428 C436 0.951 . S
H429 C437 0.951 . S
C430 C424 1.265 . S
C430 H425 0.950 . S
C430 C431 1.478 . S
C431 C418 1.394 . S
C431 C430 1.478 . S
C431 C432 1.397 . S
C432 C431 1.397 . S
C432 C433 1.438 . S
C432 C437 1.429 . S
C433 C416 1.394 . S
C433 C432 1.438 . S
C433 C434 1.428 . S
C434 H426 0.949 . S
C434 C433 1.428 . S
C434 C435 1.345 . S
C435 H427 0.950 . S
C435 C434 1.345 . S
C435 C436 1.424 . S
C436 H428 0.951 . S
C436 C435 1.424 . S
C436 C437 1.347 . S
C437 H429 0.951 . S
C437 C432 1.429 . S
C437 C436 1.347 . S
C79 C5 1.335 . S
C94 C68 1.415 . S
C109 C18 1.387 . S
C124 C3 1.380 . S
C139 C16 1.372 . S
C154 C31 1.403 . S
C169 C44 1.334 . S
C184 C29 1.415 . S
C199 C42 1.369 . S
C214 C57 1.408 . S
C229 C70 1.338 . S
C244 C55 1.412 . S
C259 C53 1.478 . S
C274 C10 1.515 . S
C289 C66 1.474 . S
C304 C23 1.511 . S
C319 C36 1.495 . S
C334 C1 1.499 . S
C349 C49 1.514 . S
C364 C14 1.476 . S
C379 C62 1.492 . S
C394 C27 1.481 . S
C409 C75 1.471 . S
C424 C40 1.495 . S
