# Generated by pormake.
# Topology wjw, (5)-cn, num edge types: 1
# Building blocks:
#     Node 0, Type 0, BuildingBlock: BEQFEK_clean_sbu_0, # of connection points: 5
#     Node 1, Type 0, BuildingBlock: BEQFEK_clean_sbu_0, # of connection points: 5
#     Node 2, Type 0, BuildingBlock: BEQFEK_clean_sbu_0, # of connection points: 5
#     Node 3, Type 0, BuildingBlock: BEQFEK_clean_sbu_0, # of connection points: 5
#     Node 4, Type 0, BuildingBlock: BEQFEK_clean_sbu_0, # of connection points: 5
#     Node 5, Type 0, BuildingBlock: BEQFEK_clean_sbu_0, # of connection points: 5
#     Node 6, Type 0, BuildingBlock: BEQFEK_clean_sbu_0, # of connection points: 5
#     Node 7, Type 0, BuildingBlock: BEQFEK_clean_sbu_0, # of connection points: 5
#     Node 8, Type 0, BuildingBlock: BEQFEK_clean_sbu_0, # of connection points: 5
#     Node 9, Type 0, BuildingBlock: BEQFEK_clean_sbu_0, # of connection points: 5
#     Node 10, Type 0, BuildingBlock: BEQFEK_clean_sbu_0, # of connection points: 5
#     Node 11, Type 0, BuildingBlock: BEQFEK_clean_sbu_0, # of connection points: 5
#     Edge 12, Type (0, 0), BuildingBlock: UVAHIK_clean_linker_0, # of connection points: 2
#     Edge 13, Type (0, 0), BuildingBlock: UVAHIK_clean_linker_0, # of connection points: 2
#     Edge 14, Type (0, 0), BuildingBlock: UVAHIK_clean_linker_0, # of connection points: 2
#     Edge 15, Type (0, 0), BuildingBlock: UVAHIK_clean_linker_0, # of connection points: 2
#     Edge 16, Type (0, 0), BuildingBlock: UVAHIK_clean_linker_0, # of connection points: 2
#     Edge 17, Type (0, 0), BuildingBlock: UVAHIK_clean_linker_0, # of connection points: 2
#     Edge 18, Type (0, 0), BuildingBlock: UVAHIK_clean_linker_0, # of connection points: 2
#     Edge 19, Type (0, 0), BuildingBlock: UVAHIK_clean_linker_0, # of connection points: 2
#     Edge 20, Type (0, 0), BuildingBlock: UVAHIK_clean_linker_0, # of connection points: 2
#     Edge 21, Type (0, 0), BuildingBlock: UVAHIK_clean_linker_0, # of connection points: 2
#     Edge 22, Type (0, 0), BuildingBlock: UVAHIK_clean_linker_0, # of connection points: 2
#     Edge 23, Type (0, 0), BuildingBlock: UVAHIK_clean_linker_0, # of connection points: 2
#     Edge 24, Type (0, 0), BuildingBlock: UVAHIK_clean_linker_0, # of connection points: 2
#     Edge 25, Type (0, 0), BuildingBlock: UVAHIK_clean_linker_0, # of connection points: 2
#     Edge 26, Type (0, 0), BuildingBlock: UVAHIK_clean_linker_0, # of connection points: 2
#     Edge 27, Type (0, 0), BuildingBlock: UVAHIK_clean_linker_0, # of connection points: 2
#     Edge 28, Type (0, 0), BuildingBlock: UVAHIK_clean_linker_0, # of connection points: 2
#     Edge 29, Type (0, 0), BuildingBlock: UVAHIK_clean_linker_0, # of connection points: 2
#     Edge 30, Type (0, 0), BuildingBlock: UVAHIK_clean_linker_0, # of connection points: 2
#     Edge 31, Type (0, 0), BuildingBlock: UVAHIK_clean_linker_0, # of connection points: 2
#     Edge 32, Type (0, 0), BuildingBlock: UVAHIK_clean_linker_0, # of connection points: 2
#     Edge 33, Type (0, 0), BuildingBlock: UVAHIK_clean_linker_0, # of connection points: 2
#     Edge 34, Type (0, 0), BuildingBlock: UVAHIK_clean_linker_0, # of connection points: 2
#     Edge 35, Type (0, 0), BuildingBlock: UVAHIK_clean_linker_0, # of connection points: 2
#     Edge 36, Type (0, 0), BuildingBlock: UVAHIK_clean_linker_0, # of connection points: 2
#     Edge 37, Type (0, 0), BuildingBlock: UVAHIK_clean_linker_0, # of connection points: 2
#     Edge 38, Type (0, 0), BuildingBlock: UVAHIK_clean_linker_0, # of connection points: 2
#     Edge 39, Type (0, 0), BuildingBlock: UVAHIK_clean_linker_0, # of connection points: 2
#     Edge 40, Type (0, 0), BuildingBlock: UVAHIK_clean_linker_0, # of connection points: 2
#     Edge 41, Type (0, 0), BuildingBlock: UVAHIK_clean_linker_0, # of connection points: 2
# Relax obj value: 0.224
# Max RMSD: 0.138
# Mean RMSD: 0.133
data_MOF--net-wjw--node1-BEQFEK_clean_sbu_0--edge1-UVAHIK_clean_linker_0
_symmetry_space_group_name_H-M    P1
_symmetry_Int_Tables_number       1
_symmetry_cell_setting            triclinic
loop_
_symmetry_equiv_pos_as_xyz
'x, y, z'
_cell_length_a     50.366619
_cell_length_b     50.250601
_cell_length_c     50.631264
_cell_angle_alpha  89.994951
_cell_angle_beta   90.041706
_cell_angle_gamma 119.9185
loop_
_atom_site_label
_atom_site_type_symbol
_atom_site_fract_x
_atom_site_fract_y
_atom_site_fract_z
_atom_type_partial_charge
Co0 Co 0.2024 0.41211 0.32306 0.0
Co1 Co 0.17593 0.45342 0.34066 0.0
C2 C 0.18181 0.41259 0.37924 0.0
O3 O 0.19397 0.4041 0.36159 0.0
O4 O 0.1724 0.43116 0.3738 0.0
C5 C 0.19567 0.35366 0.32143 0.0
O6 O 0.17073 0.34784 0.33437 0.0
C7 C 0.1345 0.47168 0.36293 0.0
C8 C 0.1546 0.51976 0.34951 0.0
C9 C 0.13134 0.4975 0.3649 0.0
N10 N 0.15869 0.47856 0.34747 0.0
N11 N 0.1707 0.50732 0.33952 0.0
C12 C 0.11421 0.44038 0.37421 0.0
H13 H 0.12109 0.43984 0.39493 0.0
H14 H 0.11659 0.4228 0.36284 0.0
H15 H 0.08992 0.43475 0.37398 0.0
C16 C 0.15082 0.39121 0.28366 0.0
N17 N 0.1678 0.40889 0.30406 0.0
N18 N 0.15647 0.4262 0.31184 0.0
C19 C 0.13191 0.41999 0.2968 0.0
C20 C 0.12729 0.39747 0.27849 0.0
C21 C 0.15607 0.36759 0.27049 0.0
H22 H 0.18099 0.37671 0.26775 0.0
H23 H 0.14711 0.34706 0.28339 0.0
H24 H 0.14421 0.36044 0.25117 0.0
O25 O 0.23982 0.45367 0.31992 0.0
O26 O 0.21985 0.48178 0.33376 0.0
H27 H 0.09904 0.43207 0.28173 0.0
H28 H 0.09903 0.42751 0.31706 0.0
C29 C 0.11377 0.43608 0.29928 0.0
H30 H 0.12946 0.4611 0.30163 0.0
H31 H 0.19005 0.51853 0.32753 0.0
O32 O 0.21252 0.38044 0.31206 0.0
C33 C 0.24272 0.47965 0.32594 0.0
Co34 Co 0.78446 0.2009 0.65691 0.0
Co35 Co 0.7167 0.17089 0.67606 0.0
C36 C 0.76628 0.18087 0.7136 0.0
O37 O 0.7861 0.19309 0.69537 0.0
O38 O 0.73803 0.17048 0.70881 0.0
C39 C 0.83619 0.19548 0.65348 0.0
O40 O 0.81696 0.16967 0.66532 0.0
C41 C 0.65901 0.13521 0.70467 0.0
C42 C 0.62459 0.12774 0.67425 0.0
C43 C 0.62779 0.11991 0.69985 0.0
N44 N 0.67367 0.15035 0.68268 0.0
N45 N 0.65292 0.14659 0.66482 0.0
C46 C 0.67458 0.13773 0.73044 0.0
H47 H 0.69173 0.16214 0.73411 0.0
H48 H 0.68644 0.12415 0.72949 0.0
H49 H 0.65816 0.12956 0.74714 0.0
C50 C 0.75557 0.14879 0.61806 0.0
N51 N 0.7541 0.16512 0.63867 0.0
N52 N 0.72586 0.15137 0.64778 0.0
C53 C 0.70885 0.12519 0.63396 0.0
C54 C 0.72699 0.12278 0.61448 0.0
C55 C 0.78414 0.15727 0.60282 0.0
H56 H 0.7985 0.18261 0.60144 0.0
H57 H 0.79737 0.14828 0.6133 0.0
H58 H 0.77879 0.14717 0.58272 0.0
O59 O 0.77729 0.23641 0.65386 0.0
O60 O 0.72913 0.21423 0.66778 0.0
H61 H 0.66164 0.11139 0.62917 0.0
H62 H 0.66871 0.0799 0.63104 0.0
C63 C 0.67571 0.10299 0.63905 0.0
H64 H 0.67103 0.10111 0.66056 0.0
H65 H 0.65815 0.15593 0.64585 0.0
O66 O 0.82633 0.21285 0.64517 0.0
C67 C 0.75338 0.23782 0.65963 0.0
Co68 Co 0.59085 0.79363 0.98909 0.0
Co69 Co 0.54777 0.72529 1.00407 0.0
C70 C 0.58808 0.76935 0.04452 0.0
O71 O 0.59821 0.79087 0.02753 0.0
O72 O 0.56855 0.742 0.03808 0.0
C73 C 0.64983 0.84457 0.98868 0.0
O74 O 0.65528 0.82472 1.0009 0.0
C75 C 0.52363 0.66369 0.02544 0.0
C76 C 0.47938 0.63804 1.00447 0.0
C77 C 0.4974 0.63507 0.02365 0.0
N78 N 0.52095 0.68266 1.00837 0.0
N79 N 0.49445 0.66728 0.99596 0.0
C80 C 0.5518 0.67261 0.04154 0.0
H81 H 0.572 0.69251 0.0325 0.0
H82 H 0.55623 0.65314 0.04321 0.0
H83 H 0.54854 0.67926 0.06165 0.0
C84 C 0.61128 0.76381 0.94842 0.0
N85 N 0.5936 0.76271 0.96893 0.0
N86 N 0.57596 0.73388 0.97593 0.0
C87 C 0.58209 0.71577 0.96043 0.0
C88 C 0.60467 0.73404 0.94224 0.0
C89 C 0.63314 0.79277 0.93438 0.0
H90 H 0.62447 0.80918 0.9347 0.0
H91 H 0.65556 0.8035 0.9447 0.0
H92 H 0.63654 0.78803 0.91363 0.0
O93 O 0.54999 0.79114 0.98595 0.0
O94 O 0.52071 0.74241 0.99735 0.0
H95 H 0.544 0.67027 0.9567 0.0
H96 H 0.5809 0.67245 0.95401 0.0
C97 C 0.56787 0.68182 0.96424 0.0
H98 H 0.56711 0.67659 0.98553 0.0
H99 H 0.48657 0.67682 0.98182 0.0
O100 O 0.62319 0.83547 0.97941 0.0
C101 C 0.52364 0.76815 0.99073 0.0
Co102 Co 0.80102 0.5885 0.32314 0.0
Co103 Co 0.83055 0.55059 0.343 0.0
C104 C 0.82471 0.59307 0.37926 0.0
O105 O 0.81056 0.59904 0.36149 0.0
O106 O 0.83535 0.57536 0.37457 0.0
C107 C 0.80724 0.64633 0.31837 0.0
O108 O 0.83333 0.65325 0.32982 0.0
C109 C 0.8602 0.52245 0.37246 0.0
C110 C 0.86912 0.49729 0.34122 0.0
C111 C 0.87385 0.50479 0.36783 0.0
N112 N 0.84898 0.52611 0.3495 0.0
N113 N 0.85361 0.51028 0.33105 0.0
C114 C 0.85532 0.53333 0.39856 0.0
H115 H 0.83203 0.53045 0.39933 0.0
H116 H 0.87235 0.55804 0.40096 0.0
H117 H 0.85769 0.52019 0.41512 0.0
C118 C 0.85161 0.60866 0.28298 0.0
N119 N 0.83553 0.5918 0.30404 0.0
N120 N 0.84894 0.57707 0.31347 0.0
C121 C 0.87472 0.58519 0.29954 0.0
C122 C 0.87715 0.60509 0.27929 0.0
C123 C 0.84208 0.62706 0.26635 0.0
H124 H 0.81681 0.61669 0.26675 0.0
H125 H 0.85254 0.6507 0.27441 0.0
H126 H 0.84985 0.62836 0.24564 0.0
O127 O 0.76455 0.54654 0.32152 0.0
O128 O 0.7863 0.52092 0.33744 0.0
H129 H 0.89445 0.55614 0.29745 0.0
H130 H 0.92188 0.59612 0.30214 0.0
C131 C 0.89866 0.57743 0.30765 0.0
H132 H 0.89795 0.57378 0.32929 0.0
H133 H 0.84683 0.50898 0.3114 0.0
O134 O 0.78963 0.61881 0.31096 0.0
C135 C 0.76273 0.5215 0.32911 0.0
Co136 Co 0.20933 0.7983 0.65599 0.0
Co137 Co 0.27755 0.82206 0.66962 0.0
C138 C 0.23441 0.81873 0.71111 0.0
O139 O 0.21253 0.8084 0.69449 0.0
O140 O 0.26125 0.82549 0.70403 0.0
C141 C 0.15731 0.80556 0.65482 0.0
O142 O 0.17664 0.83233 0.66521 0.0
C143 C 0.33892 0.85772 0.6914 0.0
C144 C 0.36396 0.83871 0.66994 0.0
C145 C 0.36707 0.85909 0.68977 0.0
N146 N 0.32 0.83712 0.67368 0.0
N147 N 0.33501 0.82577 0.66093 0.0
C148 C 0.33045 0.87698 0.70806 0.0
H149 H 0.31101 0.87826 0.6991 0.0
H150 H 0.35025 0.90054 0.71032 0.0
H151 H 0.3234 0.86644 0.72791 0.0
C152 C 0.239 0.8489 0.61531 0.0
N153 N 0.24006 0.83193 0.63558 0.0
N154 N 0.26887 0.84254 0.64223 0.0
C155 C 0.28699 0.86686 0.62688 0.0
C156 C 0.26879 0.87178 0.609 0.0
C157 C 0.21008 0.84236 0.60153 0.0
H158 H 0.19321 0.81744 0.60232 0.0
H159 H 0.20011 0.85491 0.61168 0.0
H160 H 0.21463 0.84997 0.58063 0.0
O161 O 0.21145 0.75966 0.6524 0.0
O162 O 0.26042 0.77812 0.66201 0.0
H163 H 0.33228 0.87418 0.62184 0.0
H164 H 0.33018 0.90912 0.62147 0.0
C165 C 0.32091 0.88615 0.63063 0.0
H166 H 0.3264 0.88934 0.65194 0.0
H167 H 0.32536 0.80889 0.64636 0.0
O168 O 0.16729 0.78819 0.64685 0.0
C169 C 0.23431 0.75573 0.65595 0.0
Co170 Co 0.41307 0.21036 0.98829 0.0
Co171 Co 0.44965 0.27763 1.00914 0.0
C172 C 0.40976 0.22736 0.04526 0.0
O173 O 0.40366 0.20795 0.02684 0.0
O174 O 0.42653 0.25592 0.04101 0.0
C175 C 0.35586 0.15886 0.98374 0.0
O176 O 0.34933 0.17798 0.99592 0.0
C177 C 0.47153 0.33524 0.03838 0.0
C178 C 0.50113 0.36966 1.0089 0.0
C179 C 0.48903 0.3666 0.03404 0.0
N180 N 0.47236 0.32052 1.0165 0.0
N181 N 0.49079 0.34121 0.99923 0.0
C182 C 0.45632 0.31944 0.06359 0.0
H183 H 0.4618 0.30108 0.06788 0.0
H184 H 0.43114 0.30889 0.0614 0.0
H185 H 0.4643 0.33553 0.08057 0.0
C186 C 0.39046 0.24035 0.94986 0.0
N187 N 0.40794 0.24128 0.97052 0.0
N188 N 0.42224 0.26935 0.98018 0.0
C189 C 0.41339 0.28679 0.96665 0.0
C190 C 0.39312 0.26911 0.94681 0.0
C191 C 0.37043 0.21206 0.93419 0.0
H192 H 0.38113 0.19744 0.93273 0.0
H193 H 0.34805 0.19883 0.94435 0.0
H194 H 0.36612 0.21787 0.9141 0.0
O195 O 0.45557 0.21745 0.98546 0.0
O196 O 0.48038 0.2647 1.00183 0.0
H197 H 0.4475 0.33407 0.96373 0.0
H198 H 0.40918 0.32761 0.96373 0.0
C199 C 0.4244 0.3199 0.97242 0.0
H200 H 0.42592 0.32377 0.99406 0.0
H201 H 0.4955 0.33592 0.98051 0.0
O202 O 0.38316 0.1687 0.97584 0.0
C203 C 0.48038 0.24102 0.99283 0.0
Co204 Co 0.59074 0.80224 0.37623 0.0
Co205 Co 0.54718 0.82677 0.3607 0.0
C206 C 0.58774 0.82172 0.32063 0.0
O207 O 0.59846 0.81118 0.33781 0.0
O208 O 0.56791 0.82913 0.32696 0.0
C209 C 0.64902 0.80884 0.37652 0.0
O210 O 0.65449 0.83362 0.36339 0.0
C211 C 0.53108 0.86932 0.33812 0.0
C212 C 0.48203 0.84898 0.348 0.0
C213 C 0.50568 0.87271 0.33401 0.0
N214 N 0.52266 0.84456 0.35334 0.0
N215 N 0.49333 0.8324 0.35922 0.0
C216 C 0.5633 0.88963 0.32888 0.0
H217 H 0.56559 0.88336 0.30834 0.0
H218 H 0.57958 0.88648 0.34147 0.0
H219 H 0.56931 0.91409 0.32931 0.0
C220 C 0.61212 0.85407 0.41549 0.0
N221 N 0.59386 0.83668 0.39553 0.0
N222 N 0.57544 0.84708 0.38879 0.0
C223 C 0.58134 0.87133 0.40422 0.0
C224 C 0.60496 0.87684 0.42161 0.0
C225 C 0.63713 0.84996 0.4272 0.0
H226 H 0.62849 0.82524 0.43105 0.0
H227 H 0.65616 0.85797 0.41279 0.0
H228 H 0.64627 0.86323 0.44569 0.0
O229 O 0.54933 0.76439 0.37969 0.0
O230 O 0.51919 0.78316 0.36881 0.0
H231 H 0.56642 0.90092 0.42178 0.0
H232 H 0.57228 0.9046 0.38656 0.0
C233 C 0.56374 0.88808 0.40321 0.0
H234 H 0.5391 0.87163 0.39991 0.0
H235 H 0.48092 0.81248 0.3704 0.0
O236 O 0.62265 0.79226 0.38665 0.0
C237 C 0.52269 0.76072 0.37559 0.0
Co238 Co 0.78719 0.59001 0.70968 0.0
Co239 Co 0.72076 0.55524 0.68752 0.0
C240 C 0.77184 0.59688 0.65294 0.0
O241 O 0.79076 0.60209 0.67161 0.0
O242 O 0.74323 0.57972 0.6565 0.0
C243 C 0.84022 0.64633 0.71882 0.0
O244 O 0.82279 0.65627 0.70857 0.0
C245 C 0.66379 0.53243 0.65718 0.0
C246 C 0.62914 0.50296 0.68658 0.0
C247 C 0.63253 0.51393 0.66096 0.0
N248 N 0.67815 0.53297 0.67974 0.0
N249 N 0.65735 0.51485 0.69706 0.0
C250 C 0.67994 0.54725 0.632 0.0
H251 H 0.68934 0.57241 0.63345 0.0
H252 H 0.66442 0.53815 0.6147 0.0
H253 H 0.69917 0.54281 0.62885 0.0
C254 C 0.7567 0.61107 0.74913 0.0
N255 N 0.75628 0.59474 0.72775 0.0
N256 N 0.72866 0.58133 0.71737 0.0
C257 C 0.71102 0.5897 0.73107 0.0
C258 C 0.72796 0.60853 0.75204 0.0
C259 C 0.78374 0.6276 0.76705 0.0
H260 H 0.79796 0.61643 0.76666 0.0
H261 H 0.79793 0.65165 0.76019 0.0
H262 H 0.77626 0.62792 0.7876 0.0
O263 O 0.77932 0.54709 0.71085 0.0
O264 O 0.7325 0.52339 0.69389 0.0
H265 H 0.66238 0.5605 0.73141 0.0
H266 H 0.67477 0.60078 0.72899 0.0
C267 C 0.67968 0.58258 0.72251 0.0
H268 H 0.67766 0.58057 0.70071 0.0
H269 H 0.66241 0.51101 0.71619 0.0
O270 O 0.82862 0.61781 0.72349 0.0
C271 C 0.75575 0.52267 0.70289 0.0
Co272 Co 0.19928 0.78829 0.04309 0.0
Co273 Co 0.17695 0.71998 0.02978 0.0
C274 C 0.18024 0.76306 0.98793 0.0
O275 O 0.18999 0.785 1.00447 0.0
O276 O 0.17385 0.73632 0.9952 0.0
C277 C 0.19046 0.83899 0.04202 0.0
O278 O 0.16578 0.81909 0.02918 0.0
C279 C 0.14112 0.65912 1.00733 0.0
C280 C 0.16095 0.63348 0.02653 0.0
C281 C 0.14001 0.63097 1.00748 0.0
N282 N 0.1621 0.67749 0.02505 0.0
N283 N 0.17394 0.66212 0.03646 0.0
C284 C 0.12136 0.66814 0.99203 0.0
H285 H 0.13121 0.67592 0.97205 0.0
H286 H 0.12039 0.6873 1.00198 0.0
H287 H 0.09779 0.64836 0.98995 0.0
C288 C 0.1485 0.75818 0.08305 0.0
N289 N 0.16575 0.75711 0.0631 0.0
N290 N 0.15575 0.72822 0.05687 0.0
C291 C 0.13158 0.71001 0.07233 0.0
C292 C 0.12606 0.72831 0.08966 0.0
C293 C 0.1545 0.78726 0.09633 0.0
H294 H 0.1794 0.80405 0.09634 0.0
H295 H 0.14264 0.79735 0.08523 0.0
H296 H 0.14593 0.78288 0.11696 0.0
O297 O 0.23814 0.78691 0.04738 0.0
O298 O 0.22084 0.7379 0.038 0.0
H299 H 0.12595 0.66542 0.07853 0.0
H300 H 0.09037 0.66617 0.07882 0.0
C301 C 0.11321 0.67583 0.06944 0.0
H302 H 0.10987 0.66958 0.04829 0.0
H303 H 0.19127 0.67136 0.05066 0.0
O304 O 0.20767 0.82996 0.05222 0.0
C305 C 0.24273 0.76436 0.04413 0.0
Co306 Co 0.41369 0.19904 0.37677 0.0
Co307 Co 0.45555 0.17273 0.36043 0.0
C308 C 0.41528 0.17799 0.32091 0.0
O309 O 0.4063 0.19019 0.33813 0.0
O310 O 0.43404 0.16901 0.32688 0.0
C311 C 0.35505 0.19186 0.37775 0.0
O312 O 0.34924 0.16658 0.36528 0.0
C313 C 0.47892 0.13552 0.33707 0.0
C314 C 0.52416 0.15429 0.35631 0.0
C315 C 0.5055 0.13361 0.3372 0.0
N316 N 0.48205 0.15666 0.35491 0.0
N317 N 0.50913 0.16785 0.36632 0.0
C318 C 0.45014 0.11647 0.32162 0.0
H319 H 0.43028 0.11605 0.33149 0.0
H320 H 0.44562 0.09259 0.31946 0.0
H321 H 0.45267 0.12662 0.30168 0.0
C322 C 0.39245 0.14769 0.41647 0.0
N323 N 0.41032 0.16451 0.39614 0.0
N324 N 0.42745 0.1529 0.38864 0.0
C325 C 0.42068 0.12806 0.40357 0.0
C326 C 0.39826 0.12382 0.42196 0.0
C327 C 0.37125 0.15528 0.43103 0.0
H328 H 0.38049 0.18046 0.43105 0.0
H329 H 0.3487 0.14421 0.42091 0.0
H330 H 0.36792 0.14685 0.4517 0.0
O331 O 0.45478 0.23668 0.38056 0.0
O332 O 0.48332 0.21684 0.36781 0.0
H333 H 0.45723 0.1184 0.40796 0.0
H334 H 0.41955 0.08452 0.40751 0.0
C335 C 0.43406 0.10771 0.39898 0.0
H336 H 0.43638 0.10517 0.37757 0.0
H337 H 0.51754 0.18509 0.38063 0.0
O338 O 0.38178 0.20901 0.38701 0.0
C339 C 0.48088 0.23968 0.37535 0.0
Co340 Co 0.20775 0.40866 0.71232 0.0
Co341 Co 0.27594 0.44978 0.69614 0.0
C342 C 0.22914 0.41032 0.65651 0.0
O343 O 0.20805 0.40102 0.67373 0.0
O344 O 0.2568 0.42881 0.66264 0.0
C345 C 0.15572 0.35106 0.71301 0.0
O346 O 0.17481 0.34512 0.7001 0.0
C347 C 0.33498 0.46344 0.67533 0.0
C348 C 0.36271 0.51368 0.68099 0.0
C349 C 0.36331 0.48877 0.6699 0.0
N350 N 0.31838 0.473 0.68888 0.0
N351 N 0.33514 0.50298 0.69246 0.0
C352 C 0.32253 0.43127 0.66541 0.0
H353 H 0.32583 0.43147 0.64372 0.0
H354 H 0.298 0.41675 0.67043 0.0
H355 H 0.33489 0.42068 0.67476 0.0
C356 C 0.23697 0.38577 0.75151 0.0
N357 N 0.23836 0.40415 0.73141 0.0
N358 N 0.2672 0.42175 0.72452 0.0
C359 C 0.28503 0.41526 0.74005 0.0
C360 C 0.26656 0.39201 0.75755 0.0
C361 C 0.20766 0.36157 0.76354 0.0
H362 H 0.19217 0.37096 0.76703 0.0
H363 H 0.19619 0.34213 0.74951 0.0
H364 H 0.21154 0.35267 0.78229 0.0
O365 O 0.21296 0.45073 0.7158 0.0
O366 O 0.26155 0.47911 0.70361 0.0
H367 H 0.32813 0.45685 0.73542 0.0
H368 H 0.32912 0.42953 0.75798 0.0
C369 C 0.3193 0.43211 0.73917 0.0
H370 H 0.32693 0.42271 0.72293 0.0
H371 H 0.32728 0.51632 0.70169 0.0
O372 O 0.16577 0.37764 0.72291 0.0
C373 C 0.23628 0.47684 0.71079 0.0
Co374 Co 0.80487 0.21765 0.04269 0.0
Co375 Co 0.83 0.28576 0.02692 0.0
C376 C 0.82551 0.23974 0.98731 0.0
O377 O 0.81484 0.21851 1.00451 0.0
O378 O 0.83248 0.26694 0.99347 0.0
C379 C 0.81104 0.16553 0.04464 0.0
O380 O 0.83614 0.18438 0.03177 0.0
C381 C 0.87334 0.34391 1.00433 0.0
C382 C 0.85377 0.37355 1.01371 0.0
C383 C 0.87737 0.37299 1.00006 0.0
N384 N 0.84835 0.32805 0.01931 0.0
N385 N 0.83664 0.34576 0.02488 0.0
C386 C 0.89325 0.33129 0.9955 0.0
H387 H 0.88947 0.31166 1.00813 0.0
H388 H 0.91778 0.34931 0.99626 0.0
H389 H 0.88726 0.32286 0.9749 0.0
C390 C 0.8559 0.24771 0.08258 0.0
N391 N 0.83893 0.24876 0.06234 0.0
N392 N 0.84978 0.2776 0.05535 0.0
C393 C 0.87401 0.29574 0.07082 0.0
C394 C 0.87893 0.27748 0.08852 0.0
C395 C 0.85114 0.21857 0.09488 0.0
H396 H 0.8263 0.20249 0.0977 0.0
H397 H 0.86017 0.2076 0.08137 0.0
H398 H 0.8632 0.22278 0.11405 0.0
O399 O 0.76727 0.22186 0.0452 0.0
O400 O 0.78651 0.27093 0.03463 0.0
H401 H 0.87556 0.33892 0.06596 0.0
H402 H 0.90451 0.34022 0.08792 0.0
C403 C 0.89149 0.33007 0.06943 0.0
H404 H 0.9079 0.33734 0.05276 0.0
H405 H 0.81669 0.33871 0.03586 0.0
O406 O 0.7943 0.17574 0.05373 0.0
C407 C 0.76388 0.24506 0.04109 0.0
C408 C 0.89784 0.28131 0.13514 0.0
C409 C 0.90415 0.28769 0.10815 0.0
C410 C 0.92176 0.29202 0.15364 0.0
C411 C 0.00477 0.31949 0.16024 0.0
H412 H 0.99814 0.35683 0.22501 0.0
C413 C 0.10787 0.38392 0.23185 0.0
C414 C 0.10188 0.38263 0.25902 0.0
C415 C 0.08372 0.37142 0.21352 0.0
C416 C 1.0003 0.34603 0.20727 0.0
H417 H 0.94026 0.31019 0.07926 0.0
H418 H 0.98211 0.3287 0.11143 0.0
H419 H 0.95615 0.33634 0.19332 0.0
H420 H 0.06612 0.36695 0.28845 0.0
H421 H 0.02395 0.34431 0.25678 0.0
H422 H 0.0487 0.32872 0.17424 0.0
C423 C 0.95874 0.31529 0.11838 0.0
C424 C 0.97614 0.33434 0.18901 0.0
C425 C 0.93481 0.30485 0.09997 0.0
C426 C 0.07133 0.36829 0.26757 0.0
C427 C 0.04718 0.35556 0.24933 0.0
C428 C 0.02884 0.33091 0.17861 0.0
C429 C 0.95255 0.30916 0.1455 0.0
C430 C 0.97808 0.32102 0.1652 0.0
C431 C 0.05295 0.35716 0.22196 0.0
C432 C 0.02706 0.34449 0.20241 0.0
H433 H 0.87438 0.26844 0.14199 0.0
H434 H 0.91615 0.2867 0.17432 0.0
H435 H 0.00691 0.30904 0.14225 0.0
H436 H 0.13126 0.39529 0.22473 0.0
H437 H 0.08929 0.37366 0.1927 0.0
C438 C 0.6309 0.93278 0.4333 0.0
C439 C 0.61975 0.90223 0.44121 0.0
C440 C 0.64387 0.95677 0.45173 0.0
C441 C 0.67726 0.97647 0.51958 0.0
H442 H 0.66032 0.04343 0.51291 0.0
C443 C 0.70722 0.06766 0.60204 0.0
C444 C 0.71761 0.09813 0.59435 0.0
C445 C 0.69668 0.0441 0.5832 0.0
C446 C 0.66566 0.02516 0.51492 0.0
H447 H 0.61288 0.87276 0.47471 0.0
H448 H 0.63545 0.91454 0.50701 0.0
H449 H 0.63919 0.00188 0.48073 0.0
H450 H 0.72565 0.12804 0.56096 0.0
H451 H 0.70765 0.08707 0.52788 0.0
H452 H 0.70354 0.99972 0.55394 0.0
C453 C 0.6348 0.92016 0.48646 0.0
C454 C 0.65351 0.00123 0.4964 0.0
C455 C 0.62185 0.89616 0.46797 0.0
C456 C 0.71781 0.10472 0.56739 0.0
C457 C 0.70721 0.08117 0.5485 0.0
C458 C 0.68939 0.0004 0.53814 0.0
C459 C 0.6459 0.95085 0.47864 0.0
C460 C 0.65909 0.97649 0.49842 0.0
C461 C 0.69622 0.05045 0.55614 0.0
C462 C 0.68375 0.0251 0.53611 0.0
H463 H 0.62966 0.93812 0.41277 0.0
H464 H 0.65254 0.98004 0.44479 0.0
H465 H 0.68251 0.95814 0.52163 0.0
H466 H 0.70695 0.06203 0.62273 0.0
H467 H 0.68817 0.02078 0.58993 0.0
C468 C 0.65036 0.73909 0.91731 0.0
C469 C 0.61852 0.72384 0.92131 0.0
C470 C 0.6633 0.72846 0.89844 0.0
C471 C 0.6424 0.6744 0.84064 0.0
H472 H 0.72182 0.68243 0.85442 0.0
C473 C 0.68779 0.60568 0.78326 0.0
C474 C 0.71737 0.62263 0.77246 0.0
C475 C 0.67683 0.61918 0.80116 0.0
C476 C 0.69971 0.68021 0.85023 0.0
H477 H 0.57524 0.68605 0.90792 0.0
H478 H 0.59755 0.66649 0.87628 0.0
H479 H 0.70047 0.7037 0.88573 0.0
H480 H 0.75883 0.66708 0.77262 0.0
H481 H 0.7401 0.69028 0.80483 0.0
H482 H 0.64131 0.64979 0.80566 0.0
C483 C 0.6128 0.68711 0.88713 0.0
C484 C 0.68745 0.69258 0.86812 0.0
C485 C 0.59991 0.69805 0.90566 0.0
C486 C 0.73611 0.6532 0.78077 0.0
C487 C 0.72533 0.66656 0.79911 0.0
C488 C 0.65442 0.66158 0.82308 0.0
C489 C 0.64475 0.70204 0.88322 0.0
C490 C 0.65848 0.68976 0.86369 0.0
C491 C 0.69538 0.64982 0.8092 0.0
C492 C 0.68315 0.66422 0.82769 0.0
H493 H 0.66538 0.75894 0.92913 0.0
H494 H 0.6879 0.74107 0.89583 0.0
H495 H 0.62048 0.67232 0.83596 0.0
H496 H 0.67299 0.58188 0.77784 0.0
H497 H 0.65383 0.60553 0.80888 0.0
C498 C 0.09486 0.69287 0.12654 0.0
C499 C 0.10168 0.71813 0.11027 0.0
C500 C 0.07097 0.68217 0.14495 0.0
C501 C 0.00148 0.68785 0.1631 0.0
H502 H 0.00489 0.64598 0.22621 0.0
C503 C 0.91439 0.65012 0.25124 0.0
C504 C 0.90184 0.61921 0.25889 0.0
C505 C 0.93851 0.66335 0.23292 0.0
C506 C 0.0036 0.65757 0.20863 0.0
H507 H 0.08906 0.75246 0.10115 0.0
H508 H 0.04875 0.73521 0.1343 0.0
H509 H 0.04815 0.66793 0.19594 0.0
H510 H 0.9042 0.57782 0.25232 0.0
H511 H 0.94707 0.60125 0.22147 0.0
H512 H 0.95711 0.67819 0.17672 0.0
C513 C 0.06101 0.72274 0.13227 0.0
C514 C 0.02835 0.67001 0.19104 0.0
C515 C 0.08458 0.73305 0.11348 0.0
C516 C 0.91377 0.60185 0.24747 0.0
C517 C 0.93823 0.61521 0.22966 0.0
C518 C 0.97697 0.67593 0.18104 0.0
C519 C 0.05354 0.69688 0.14818 0.0
C520 C 0.0276 0.68499 0.16772 0.0
C521 C 0.951 0.64614 0.22226 0.0
C522 C 0.97759 0.66029 0.20381 0.0
H523 H 0.10792 0.68115 0.12495 0.0
H524 H 0.06593 0.66194 0.1563 0.0
H525 H 0.99949 0.69865 0.1453 0.0
H526 H 0.90615 0.66434 0.2599 0.0
H527 H 0.94801 0.68729 0.22767 0.0
C528 C 0.35172 0.08379 0.44657 0.0
C529 C 0.38356 0.09895 0.44219 0.0
C530 C 0.33788 0.05942 0.46465 0.0
C531 C 0.34486 0.99694 0.49215 0.0
H532 H 0.29788 0.99793 0.55233 0.0
C533 C 0.30525 0.90345 0.57292 0.0
C534 C 0.27917 0.89602 0.58816 0.0
C535 C 0.31658 0.92764 0.55473 0.0
C536 C 0.31032 0.99676 0.53537 0.0
H537 H 0.42584 0.10109 0.45438 0.0
H538 H 0.40146 0.05756 0.48479 0.0
H539 H 0.31969 0.04113 0.52162 0.0
H540 H 0.24384 0.9077 0.5954 0.0
H541 H 0.26212 0.94839 0.56244 0.0
H542 H 0.33471 0.95232 0.50475 0.0
C543 C 0.3873 0.06467 0.47426 0.0
C544 C 0.32304 0.02178 0.51788 0.0
C545 C 0.4012 0.08947 0.45671 0.0
C546 C 0.26391 0.91265 0.58391 0.0
C547 C 0.27484 0.93648 0.56525 0.0
C548 C 0.33156 0.97163 0.50921 0.0
C549 C 0.35549 0.04929 0.47833 0.0
C550 C 0.34079 0.02229 0.49632 0.0
C551 C 0.30167 0.94474 0.55056 0.0
C552 C 0.31442 0.97122 0.53141 0.0
H553 H 0.33735 0.09018 0.43552 0.0
H554 H 0.31328 0.04788 0.46735 0.0
H555 H 0.35814 0.99659 0.47547 0.0
H556 H 0.31725 0.89073 0.57526 0.0
H557 H 0.33751 0.93322 0.54439 0.0
C558 C 0.26901 0.37519 0.80395 0.0
C559 C 0.27664 0.37671 0.77711 0.0
C560 C 0.27991 0.36206 0.8224 0.0
C561 C 0.31369 0.31092 0.82796 0.0
H562 H 0.34156 0.35002 0.89623 0.0
C563 C 0.38301 0.27877 0.9002 0.0
C564 C 0.37743 0.27876 0.92735 0.0
C565 C 0.36942 0.2894 0.88197 0.0
C566 C 0.33351 0.3385 0.87741 0.0
H567 H 0.30164 0.36575 0.74852 0.0
H568 H 0.32096 0.34316 0.78058 0.0
H569 H 0.32015 0.37076 0.86458 0.0
H570 H 0.35269 0.28897 0.95677 0.0
H571 H 0.3287 0.3073 0.92509 0.0
H572 H 0.32722 0.27876 0.84076 0.0
C573 C 0.30617 0.35161 0.78747 0.0
C574 C 0.32118 0.35044 0.8592 0.0
C575 C 0.2953 0.36476 0.76909 0.0
C576 C 0.35758 0.28903 0.93593 0.0
C577 C 0.34399 0.29967 0.91775 0.0
C578 C 0.32601 0.29897 0.84618 0.0
C579 C 0.29877 0.35017 0.81445 0.0
C580 C 0.31118 0.3369 0.83416 0.0
C581 C 0.34989 0.30026 0.8905 0.0
C582 C 0.3362 0.31264 0.87116 0.0
H583 H 0.25508 0.38469 0.81076 0.0
H584 H 0.27348 0.36116 0.84292 0.0
H585 H 0.30581 0.29954 0.80907 0.0
H586 H 0.39844 0.27119 0.89312 0.0
H587 H 0.37486 0.28981 0.86124 0.0
C588 C 0.16288 0.4066 0.42592 0.0
C589 C 0.18144 0.40319 0.40703 0.0
C590 C 0.1653 0.40118 0.45269 0.0
C591 C 0.22182 0.40878 0.49996 0.0
H592 H 0.15411 0.35809 0.54653 0.0
C593 C 0.24333 0.40317 0.61076 0.0
C594 C 0.22122 0.40173 0.62847 0.0
C595 C 0.2369 0.39829 0.58376 0.0
C596 C 0.17328 0.37269 0.53393 0.0
H597 H 0.21636 0.39044 0.40137 0.0
H598 H 0.22109 0.38183 0.44821 0.0
H599 H 0.1449 0.35906 0.49924 0.0
H600 H 0.17479 0.39336 0.63191 0.0
H601 H 0.16401 0.38636 0.58483 0.0
H602 H 0.25004 0.42405 0.5343 0.0
C603 C 0.20451 0.3884 0.44218 0.0
C604 C 0.16795 0.37302 0.50682 0.0
C605 C 0.20168 0.39322 0.41539 0.0
C606 C 0.19223 0.3944 0.61874 0.0
C607 C 0.18602 0.39022 0.59165 0.0
C608 C 0.22707 0.40899 0.52707 0.0
C609 C 0.18671 0.39282 0.4611 0.0
C610 C 0.19219 0.39111 0.48963 0.0
C611 C 0.20846 0.39263 0.57367 0.0
C612 C 0.20288 0.39102 0.54454 0.0
H613 H 0.147 0.41415 0.42011 0.0
H614 H 0.15142 0.40487 0.46695 0.0
H615 H 0.24083 0.42328 0.48714 0.0
H616 H 0.26578 0.40845 0.61774 0.0
H617 H 0.25451 0.39943 0.57078 0.0
C618 C 0.80781 0.19451 0.74742 0.0
C619 C 0.77648 0.18094 0.74118 0.0
C620 C 0.81743 0.19749 0.77377 0.0
C621 C 0.83116 0.22115 0.83032 0.0
H622 H 0.78097 0.16209 0.88369 0.0
C623 C 0.83418 0.25431 0.93946 0.0
C624 C 0.82756 0.23229 0.95929 0.0
C625 C 0.83272 0.24649 0.91281 0.0
C626 C 0.79566 0.17867 0.86911 0.0
H627 H 0.7308 0.1586 0.75795 0.0
H628 H 0.74736 0.16439 0.80344 0.0
H629 H 0.7695 0.1493 0.83727 0.0
H630 H 0.81597 0.18517 0.96663 0.0
H631 H 0.81416 0.17171 0.92012 0.0
H632 H 0.8575 0.25042 0.8622 0.0
C633 C 0.76462 0.1724 0.78811 0.0
C634 C 0.78877 0.17147 0.84241 0.0
C635 C 0.75505 0.16931 0.76185 0.0
C636 C 0.82091 0.20263 0.95186 0.0
C637 C 0.81969 0.19485 0.92516 0.0
C638 C 0.8382 0.22826 0.85705 0.0
C639 C 0.79595 0.18701 0.79449 0.0
C640 C 0.80589 0.19294 0.82267 0.0
C641 C 0.82489 0.21649 0.90525 0.0
C642 C 0.82003 0.20745 0.87683 0.0
H643 H 0.82501 0.20354 0.73202 0.0
H644 H 0.84173 0.20842 0.77791 0.0
H645 H 0.84479 0.23836 0.81575 0.0
H646 H 0.83937 0.27739 0.94443 0.0
H647 H 0.83647 0.2637 0.89814 0.0
C648 C 0.58234 0.83145 0.27289 0.0
C649 C 0.59649 0.82296 0.29249 0.0
C650 C 0.58789 0.82934 0.24615 0.0
C651 C 0.61183 0.834 0.19044 0.0
H652 H 0.6121 0.76 0.16922 0.0
C653 C 0.61779 0.80699 0.08055 0.0
C654 C 0.59701 0.77673 0.07267 0.0
C655 C 0.62334 0.81456 0.10736 0.0
C656 C 0.61204 0.78078 0.17479 0.0
H657 H 0.62884 0.80705 0.29926 0.0
H658 H 0.63884 0.80379 0.25258 0.0
H659 H 0.61116 0.77087 0.21597 0.0
H660 H 0.56675 0.73048 0.0869 0.0
H661 H 0.5761 0.74371 0.13342 0.0
H662 H 0.61117 0.84313 0.14926 0.0
C663 C 0.62296 0.81151 0.25792 0.0
C664 C 0.6119 0.78723 0.20164 0.0
C665 C 0.61737 0.81357 0.2847 0.0
C666 C 0.58294 0.754 0.0922 0.0
C667 C 0.58844 0.76159 0.11896 0.0
C668 C 0.6119 0.82751 0.16359 0.0
C669 C 0.60782 0.81879 0.23829 0.0
C670 C 0.61121 0.81364 0.20981 0.0
C671 C 0.60823 0.79207 0.12691 0.0
C672 C 0.61144 0.80052 0.15542 0.0
H673 H 0.56611 0.83877 0.27812 0.0
H674 H 0.57554 0.8348 0.23162 0.0
H675 H 0.61173 0.85476 0.19601 0.0
H676 H 0.6292 0.82505 0.06605 0.0
H677 H 0.63912 0.83816 0.11277 0.0
C678 C 0.76335 0.60782 0.60632 0.0
C679 C 0.78329 0.60814 0.62594 0.0
C680 C 0.77282 0.61407 0.57999 0.0
C681 C 0.82337 0.60499 0.53471 0.0
H682 H 0.80437 0.65289 0.48623 0.0
C683 C 0.84878 0.60616 0.42413 0.0
C684 C 0.82645 0.60449 0.40651 0.0
C685 C 0.84807 0.61303 0.45077 0.0
C686 C 0.80961 0.63918 0.49943 0.0
H687 H 0.82938 0.61687 0.63346 0.0
H688 H 0.84573 0.62739 0.58737 0.0
H689 H 0.79445 0.65348 0.53341 0.0
H690 H 0.78656 0.60994 0.40278 0.0
H691 H 0.78452 0.62076 0.44935 0.0
H692 H 0.83691 0.58921 0.50102 0.0
C693 C 0.82276 0.62225 0.59245 0.0
C694 C 0.80408 0.6397 0.52647 0.0
C695 C 0.81343 0.6164 0.61885 0.0
C696 C 0.80418 0.61118 0.41586 0.0
C697 C 0.80312 0.61753 0.44263 0.0
C698 C 0.82848 0.6041 0.50771 0.0
C699 C 0.80232 0.62045 0.57268 0.0
C700 C 0.81065 0.62238 0.54434 0.0
C701 C 0.82465 0.61785 0.4606 0.0
C702 C 0.8214 0.62093 0.48959 0.0
H703 H 0.7401 0.60182 0.61115 0.0
H704 H 0.75653 0.61238 0.56517 0.0
H705 H 0.82817 0.59098 0.54796 0.0
H706 H 0.86655 0.60162 0.41741 0.0
H707 H 0.86559 0.61395 0.46376 0.0
C708 C 0.18645 0.79868 0.95047 0.0
C709 C 0.17922 0.76928 0.95939 0.0
C710 C 0.18933 0.80539 0.92341 0.0
C711 C 0.21046 0.78144 0.86275 0.0
H712 H 0.17983 0.82851 0.82611 0.0
C713 C 0.25123 0.82698 0.75842 0.0
C714 C 0.22805 0.81981 0.73961 0.0
C715 C 0.24451 0.82371 0.78536 0.0
C716 C 0.18847 0.81533 0.83614 0.0
H717 H 0.1678 0.72351 0.94667 0.0
H718 H 0.17285 0.73528 0.89972 0.0
H719 H 0.16734 0.81551 0.87295 0.0
H720 H 0.17992 0.8054 0.7346 0.0
H721 H 0.16829 0.79984 0.78186 0.0
H722 H 0.23162 0.78119 0.82626 0.0
C723 C 0.17658 0.75319 0.91365 0.0
C724 C 0.18146 0.80803 0.86291 0.0
C725 C 0.17351 0.74642 0.9406 0.0
C726 C 0.19831 0.81101 0.74852 0.0
C727 C 0.19164 0.80792 0.77559 0.0
C728 C 0.21773 0.78901 0.83623 0.0
C729 C 0.18527 0.78292 0.90479 0.0
C730 C 0.19226 0.79084 0.87642 0.0
C731 C 0.2145 0.81336 0.79423 0.0
C732 C 0.20685 0.80603 0.82259 0.0
H733 H 0.1909 0.8168 0.9644 0.0
H734 H 0.19612 0.82853 0.91714 0.0
H735 H 0.21943 0.7685 0.8727 0.0
H736 H 0.2744 0.83396 0.75237 0.0
H737 H 0.26271 0.82855 0.7993 0.0
C738 C 0.39996 0.23653 0.09203 0.0
C739 C 0.39996 0.2165 0.07263 0.0
C740 C 0.39474 0.2276 0.11854 0.0
C741 C 0.40802 0.18058 0.16451 0.0
H742 H 0.35571 0.19393 0.21233 0.0
C743 C 0.40734 0.15568 0.27541 0.0
C744 C 0.40565 0.17634 0.29304 0.0
C745 C 0.40119 0.15623 0.24854 0.0
C746 C 0.37072 0.19036 0.19935 0.0
H747 H 0.39317 0.1709 0.06573 0.0
H748 H 0.38467 0.1556 0.11218 0.0
H749 H 0.3547 0.20341 0.16511 0.0
H750 H 0.39535 0.21324 0.29648 0.0
H751 H 0.38595 0.2152 0.24961 0.0
H752 H 0.42551 0.1693 0.19845 0.0
C753 C 0.3886 0.17814 0.10675 0.0
C754 C 0.36993 0.1956 0.17227 0.0
C755 C 0.3933 0.18687 0.08018 0.0
C756 C 0.3967 0.19691 0.2834 0.0
C757 C 0.39113 0.19788 0.25644 0.0
C758 C 0.40924 0.17587 0.19156 0.0
C759 C 0.38987 0.19865 0.12624 0.0
C760 C 0.38873 0.19095 0.15464 0.0
C761 C 0.39382 0.1779 0.23852 0.0
C762 C 0.39079 0.18092 0.20946 0.0
H763 H 0.40477 0.2594 0.08683 0.0
H764 H 0.39597 0.2439 0.13319 0.0
H765 H 0.42312 0.17727 0.15139 0.0
H766 H 0.41374 0.13926 0.28232 0.0
H767 H 0.40267 0.13988 0.23559 0.0
C768 C 0.91312 0.52167 0.40392 0.0
C769 C 0.89434 0.4995 0.38525 0.0
C770 C 0.9368 0.51973 0.41635 0.0
C771 C 0.97607 0.47305 0.41956 0.0
H772 H 0.04835 0.55267 0.40865 0.0
C773 C 0.09482 0.48575 0.40276 0.0
C774 C 0.10759 0.50107 0.37886 0.0
C775 C 0.07062 0.48751 0.41444 0.0
C776 C 0.02843 0.53035 0.41216 0.0
H777 H 0.88453 0.45696 0.36621 0.0
H778 H 0.92681 0.45441 0.38666 0.0
H779 H 0.99856 0.54881 0.41102 0.0
H780 H 0.10677 0.53209 0.34957 0.0
H781 H 0.0647 0.53517 0.3698 0.0
H782 H 0.00609 0.45444 0.41806 0.0
C783 C 0.92269 0.47275 0.39255 0.0
C784 C 0.99979 0.5281 0.41386 0.0
C785 C 0.89862 0.47438 0.38051 0.0
C786 C 0.0972 0.51983 0.36786 0.0
C787 C 0.07323 0.52176 0.37958 0.0
C788 C 0.00479 0.47532 0.41765 0.0
C789 C 0.94294 0.4962 0.40969 0.0
C790 C 0.97309 0.49921 0.41606 0.0
C791 C 0.05924 0.50509 0.40267 0.0
C792 C 0.03095 0.5038 0.41239 0.0
H793 H 0.91134 0.54191 0.40755 0.0
H794 H 0.95168 0.53793 0.42974 0.0
H795 H 0.95602 0.45056 0.42188 0.0
H796 H 0.10332 0.4723 0.41242 0.0
H797 H 0.06051 0.47479 0.43244 0.0
C798 C 0.60895 0.0749 0.73034 0.0
C799 C 0.60319 0.09523 0.71564 0.0
C800 C 0.58494 0.04869 0.74169 0.0
C801 C 0.49996 0.00549 0.75071 0.0
H802 H 0.50903 0.93675 0.72796 0.0
C803 C 0.39501 0.88806 0.73053 0.0
C804 C 0.39556 0.87944 0.70421 0.0
C805 C 0.42184 0.91039 0.74268 0.0
C806 C 0.50623 0.95562 0.73485 0.0
H807 H 0.56789 0.10452 0.70195 0.0
H808 H 0.52569 0.05792 0.72054 0.0
H809 H 0.55386 0.98742 0.73095 0.0
H810 H 0.42487 0.88486 0.67093 0.0
H811 H 0.47156 0.92366 0.69198 0.0
H812 H 0.45179 0.97388 0.75206 0.0
C813 C 0.54887 0.06282 0.72432 0.0
C814 C 0.53198 0.98471 0.73684 0.0
C815 C 0.573 0.08936 0.71335 0.0
C816 C 0.42372 0.89136 0.69112 0.0
C817 C 0.45051 0.91343 0.70329 0.0
C818 C 0.47413 0.97635 0.74856 0.0
C819 C 0.55452 0.04162 0.7378 0.0
C820 C 0.5289 0.01027 0.74333 0.0
C821 C 0.44968 0.9239 0.72886 0.0
C822 C 0.47694 0.95158 0.73909 0.0
H823 H 0.63171 0.0779 0.73168 0.0
H824 H 0.59009 0.03298 0.75211 0.0
H825 H 0.49696 0.02463 0.75635 0.0
H826 H 0.37385 0.87808 0.7416 0.0
H827 H 0.4207 0.91772 0.76256 0.0
C828 C 0.51571 0.42153 0.04779 0.0
C829 C 0.49018 0.39194 0.04974 0.0
C830 C 0.51468 0.44671 0.05821 0.0
C831 C 0.45618 0.46801 0.06861 0.0
H832 H 0.5276 0.54693 0.0837 0.0
C833 C 0.47416 0.57837 0.02365 0.0
C834 C 0.49036 0.6063 0.03722 0.0
C835 C 0.46963 0.55126 0.03513 0.0
C836 C 0.5072 0.52498 0.08018 0.0
H837 H 0.44372 0.36559 0.06483 0.0
H838 H 0.44279 0.40893 0.08452 0.0
H839 H 0.53055 0.50022 0.08878 0.0
H840 H 0.51142 0.62724 0.07468 0.0
H841 H 0.50446 0.57981 0.09444 0.0
H842 H 0.43319 0.49282 0.05915 0.0
C843 C 0.4635 0.41284 0.07464 0.0
C844 C 0.509 0.49826 0.08279 0.0
C845 C 0.46431 0.38778 0.06376 0.0
C846 C 0.50015 0.6063 0.06324 0.0
C847 C 0.49582 0.57913 0.0747 0.0
C848 C 0.45435 0.49464 0.0662 0.0
C849 C 0.48807 0.44275 0.07087 0.0
C850 C 0.48402 0.46966 0.07558 0.0
C851 C 0.48107 0.55147 0.06051 0.0
C852 C 0.48034 0.52346 0.07046 0.0
H853 H 0.53588 0.42543 0.03695 0.0
H854 H 0.53392 0.46942 0.05457 0.0
H855 H 0.43643 0.44649 0.06279 0.0
H856 H 0.46612 0.57762 1.00366 0.0
H857 H 0.45852 0.53037 0.02353 0.0
C858 C 0.48357 0.90688 0.32798 0.0
C859 C 0.50362 0.89696 0.31921 0.0
C860 C 0.48378 0.93201 0.31615 0.0
C861 C 0.53842 0.00368 0.28837 0.0
H862 H 0.4675 0.01437 0.28299 0.0
C863 C 0.53028 0.10157 0.33394 0.0
C864 C 0.51239 0.11256 0.32218 0.0
C865 C 0.53372 0.07867 0.32165 0.0
C866 C 0.48762 0.01182 0.28363 0.0
H867 H 0.53639 0.90285 0.28867 0.0
H868 H 0.53806 0.94801 0.26904 0.0
H869 H 0.46065 0.96278 0.28213 0.0
H870 H 0.48803 0.11155 0.28644 0.0
H871 H 0.49249 0.07009 0.26569 0.0
H872 H 0.5651 0.05258 0.29218 0.0
C873 C 0.52255 0.93651 0.28531 0.0
C874 C 0.48364 0.9823 0.28332 0.0
C875 C 0.52201 0.91104 0.29693 0.0
C876 C 0.50039 0.10226 0.29675 0.0
C877 C 0.50343 0.07898 0.2846 0.0
C878 C 0.54236 0.03319 0.28895 0.0
C879 C 0.50405 0.9477 0.29532 0.0
C880 C 0.50882 0.97797 0.28718 0.0
C881 C 0.5193 0.06633 0.29737 0.0
C882 C 0.51679 0.03732 0.28809 0.0
H883 H 0.46881 0.89621 0.34486 0.0
H884 H 0.46945 0.94035 0.32444 0.0
H885 H 0.55822 0.00095 0.29143 0.0
H886 H 0.54023 0.10939 0.35335 0.0
H887 H 0.54587 0.06915 0.33208 0.0
C888 C 0.57913 0.48203 0.64464 0.0
C889 C 0.60716 0.50959 0.64356 0.0
C890 C 0.55329 0.4796 0.63222 0.0
C891 C 0.52378 0.53075 0.61846 0.0
H892 H 0.45101 0.45352 0.60169 0.0
C893 C 0.39694 0.46768 0.6567 0.0
C894 C 0.38844 0.49018 0.65395 0.0
C895 C 0.42172 0.46993 0.64264 0.0
C896 C 0.47123 0.4754 0.60588 0.0
H897 H 0.63039 0.55598 0.62788 0.0
H898 H 0.58576 0.55126 0.6052 0.0
H899 H 0.50137 0.4578 0.59816 0.0
H900 H 0.39888 0.53258 0.63421 0.0
H901 H 0.44302 0.537 0.61001 0.0
H902 H 0.49367 0.54778 0.62779 0.0
C903 C 0.58363 0.53154 0.61576 0.0
C904 C 0.50001 0.47784 0.60395 0.0
C905 C 0.60938 0.53408 0.62846 0.0
C906 C 0.405 0.51489 0.63664 0.0
C907 C 0.43003 0.51731 0.62268 0.0
C908 C 0.49507 0.52836 0.6202 0.0
C909 C 0.55499 0.50477 0.61851 0.0
C910 C 0.52639 0.50494 0.61189 0.0
C911 C 0.43887 0.49504 0.62587 0.0
C912 C 0.46848 0.50011 0.61555 0.0
H913 H 0.5768 0.46285 0.65623 0.0
H914 H 0.53157 0.45877 0.63515 0.0
H915 H 0.5435 0.55198 0.62486 0.0
H916 H 0.38564 0.4492 0.67077 0.0
H917 H 0.4286 0.45297 0.64622 0.0
C918 C 0.91666 0.39441 0.96377 0.0
C919 C 0.90226 0.39906 0.98565 0.0
C920 C 0.94278 0.41899 0.95272 0.0
C921 C 0.99014 0.50344 0.95125 0.0
H922 H 0.05877 0.49007 0.96272 0.0
C923 C 0.10996 0.60484 0.96662 0.0
C924 C 0.11952 0.60303 0.99232 0.0
C925 C 0.08692 0.57865 0.95422 0.0
C926 C 0.03987 0.49403 0.95879 0.0
H927 H 0.90168 0.43346 1.01109 0.0
H928 H 0.94691 0.47638 0.99159 0.0
H929 H 0.00684 0.44619 0.96096 0.0
H930 H 0.11542 0.57199 0.02381 0.0
H931 H 0.07544 0.52626 1.00216 0.0
H932 H 0.02289 0.55139 0.95117 0.0
C933 C 0.93834 0.4537 0.98322 0.0
C934 C 0.0102 0.46896 0.95762 0.0
C935 C 0.91256 0.4291 0.99451 0.0
C936 C 0.10813 0.57414 1.00418 0.0
C937 C 0.0854 0.54792 0.99168 0.0
C938 C 0.01982 0.52848 0.95214 0.0
C939 C 0.9543 0.44869 0.96287 0.0
C940 C 0.98503 0.47365 0.95543 0.0
C941 C 0.0737 0.55016 0.96708 0.0
C942 C 0.04471 0.52403 0.95751 0.0
H943 H 0.90824 0.37182 0.95541 0.0
H944 H 0.95451 0.41469 0.93679 0.0
H945 H 0.97103 0.50753 0.94932 0.0
H946 H 0.11958 0.62654 0.95632 0.0
H947 H 0.07857 0.58084 0.93508 0.0
C948 C 0.23449 0.3382 0.31004 0.0
C949 C 0.20693 0.33156 0.32247 0.0
C950 C 0.24771 0.31994 0.31475 0.0
C951 C 0.23349 0.24599 0.34416 0.0
H952 H 0.32123 0.29178 0.35593 0.0
C953 C 0.33955 0.23082 0.3886 0.0
C954 C 0.33311 0.20325 0.37617 0.0
C955 C 0.32158 0.24425 0.38343 0.0
C956 C 0.29666 0.27864 0.35307 0.0
H957 H 0.1707 0.29946 0.34832 0.0
H958 H 0.19399 0.26806 0.35689 0.0
H959 H 0.29479 0.31869 0.34209 0.0
H960 H 0.30165 0.1672 0.34977 0.0
H961 H 0.27073 0.19085 0.34042 0.0
H962 H 0.23535 0.20604 0.356 0.0
C963 C 0.2053 0.28713 0.3433 0.0
C964 C 0.28155 0.29402 0.34461 0.0
C965 C 0.19198 0.30526 0.33844 0.0
C966 C 0.30726 0.18848 0.35968 0.0
C967 C 0.28943 0.20201 0.35437 0.0
C968 C 0.24861 0.23058 0.35276 0.0
C969 C 0.23376 0.29477 0.33212 0.0
C970 C 0.2498 0.27792 0.34001 0.0
C971 C 0.29691 0.2305 0.36558 0.0
C972 C 0.28039 0.24676 0.35735 0.0
H973 H 0.24644 0.35816 0.29744 0.0
H974 H 0.2693 0.32603 0.30531 0.0
H975 H 0.20904 0.23283 0.34065 0.0
H976 H 0.35914 0.24263 0.40159 0.0
H977 H 0.32752 0.26583 0.39292 0.0
C978 C 0.89051 0.23511 0.64348 0.0
C979 C 0.86944 0.20681 0.65479 0.0
C980 C 0.92182 0.24813 0.64859 0.0
C981 C 0.98063 0.2321 0.67719 0.0
H982 H 0.02273 0.31947 0.69175 0.0
C983 C 0.10155 0.33609 0.72395 0.0
C984 C 0.12241 0.32953 0.71125 0.0
C985 C 0.07022 0.31856 0.71859 0.0
C986 C 0.01123 0.29497 0.68814 0.0
H987 H 0.86484 0.16912 0.67906 0.0
H988 H 0.91914 0.19205 0.6884 0.0
H989 H 0.96975 0.29389 0.67725 0.0
H990 H 0.12661 0.29834 0.68418 0.0
H991 H 0.07228 0.26833 0.67443 0.0
H992 H 0.02189 0.23307 0.68903 0.0
C993 C 0.91169 0.2041 0.67533 0.0
C994 C 0.98097 0.28039 0.67928 0.0
C995 C 0.88046 0.19098 0.67004 0.0
C996 C 0.11115 0.30403 0.6943 0.0
C997 C 0.0799 0.2867 0.68876 0.0
C998 C 0.01087 0.24666 0.68625 0.0
C999 C 0.93267 0.23322 0.66528 0.0
C1000 C 0.9653 0.24879 0.67363 0.0
C1001 C 0.05915 0.29428 0.70026 0.0
C1002 C 0.02655 0.2783 0.69181 0.0
H1003 H 0.88275 0.24774 0.63145 0.0
H1004 H 0.93745 0.27026 0.63999 0.0
H1005 H 0.96933 0.20777 0.67285 0.0
H1006 H 0.1095 0.35543 0.7373 0.0
H1007 H 0.05477 0.32455 0.7283 0.0
C1008 C 0.7719 0.1115 0.05638 0.0
C1009 C 0.79958 0.13213 0.04398 0.0
C1010 C 0.75852 0.07995 0.05198 0.0
C1011 C 0.77231 0.01954 0.02349 0.0
H1012 H 0.68479 0.97845 1.01067 0.0
C1013 C 0.66626 0.89923 0.97789 0.0
C1014 C 0.67207 0.87778 0.99053 0.0
C1015 C 0.68444 0.93055 0.98325 0.0
C1016 C 0.7093 0.98965 1.01384 0.0
H1017 H 0.83591 0.13571 0.01855 0.0
H1018 H 0.81236 0.0809 1.01051 0.0
H1019 H 0.71151 0.03179 0.02452 0.0
H1020 H 0.70262 0.87249 0.01753 0.0
H1021 H 0.73393 0.92695 0.0272 0.0
H1022 H 0.77013 0.97751 1.01192 0.0
C1023 C 0.80106 0.08893 0.02385 0.0
C1024 C 0.72455 0.02012 0.0223 0.0
C1025 C 0.81452 0.12044 0.02839 0.0
C1026 C 0.69752 0.88843 1.00744 0.0
C1027 C 0.71556 0.91972 1.01295 0.0
C1028 C 0.75704 0.98903 1.01488 0.0
C1029 C 0.77246 0.06839 0.03496 0.0
C1030 C 0.75623 0.03547 0.02723 0.0
C1031 C 0.70868 0.94105 1.0015 0.0
C1032 C 0.72535 0.97375 1.00989 0.0
H1033 H 0.75996 0.11977 0.0687 0.0
H1034 H 0.73682 0.06467 0.06135 0.0
H1035 H 0.79669 0.03062 0.02727 0.0
H1036 H 0.64699 0.89178 0.96456 0.0
H1037 H 0.679 0.94646 0.97357 0.0
C1038 C 0.81148 0.69531 0.33439 0.0
C1039 C 0.79579 0.66827 0.3194 0.0
C1040 C 0.79813 0.71334 0.33956 0.0
C1041 C 0.72156 0.70568 0.34367 0.0
H1042 H 0.76777 0.79404 0.35264 0.0
C1043 C 0.69609 0.81151 0.35768 0.0
C1044 C 0.6708 0.79728 0.37478 0.0
C1045 C 0.71371 0.7978 0.35227 0.0
C1046 C 0.75449 0.76939 0.35008 0.0
H1047 H 0.75485 0.64022 0.29632 0.0
H1048 H 0.73194 0.67222 0.30461 0.0
H1049 H 0.79359 0.76704 0.33679 0.0
H1050 H 0.64556 0.75868 0.40115 0.0
H1051 H 0.67692 0.7352 0.39234 0.0
H1052 H 0.68228 0.70804 0.35605 0.0
C1053 C 0.75414 0.67895 0.31314 0.0
C1054 C 0.76935 0.75386 0.3412 0.0
C1055 C 0.76739 0.66076 0.30816 0.0
C1056 C 0.66473 0.77007 0.38769 0.0
C1057 C 0.68254 0.75648 0.38244 0.0
C1058 C 0.70669 0.7212 0.35235 0.0
C1059 C 0.7689 0.70489 0.32962 0.0
C1060 C 0.75306 0.7218 0.3379 0.0
C1061 C 0.70663 0.76967 0.36402 0.0
C1062 C 0.72295 0.75324 0.35574 0.0
H1063 H 0.83341 0.70177 0.34336 0.0
H1064 H 0.8101 0.73301 0.35246 0.0
H1065 H 0.70837 0.68093 0.34183 0.0
H1066 H 0.7014 0.83248 0.34738 0.0
H1067 H 0.73192 0.80852 0.33784 0.0
C1068 C 0.10401 0.76104 0.6564 0.0
C1069 C 0.12399 0.79291 0.65806 0.0
C1070 C 0.07355 0.74823 0.66429 0.0
C1071 C 0.00963 0.76034 0.67427 0.0
H1072 H 0.98637 0.69977 0.73003 0.0
C1073 C 0.88679 0.69845 0.7155 0.0
C1074 C 0.8738 0.6667 0.7195 0.0
C1075 C 0.91833 0.71694 0.71154 0.0
C1076 C 0.99231 0.71638 0.7143 0.0
H1077 H 0.12713 0.83651 0.66751 0.0
H1078 H 0.07326 0.81392 0.68053 0.0
H1079 H 0.03863 0.72554 0.71316 0.0
H1080 H 0.88385 0.62966 0.72379 0.0
H1081 H 0.93834 0.66145 0.7161 0.0
H1082 H 0.96308 0.75019 0.67425 0.0
C1083 C 0.08158 0.79902 0.67354 0.0
C1084 C 0.02227 0.7312 0.70475 0.0
C1085 C 0.1123 0.81187 0.66608 0.0
C1086 C 0.89314 0.65408 0.72088 0.0
C1087 C 0.92454 0.67244 0.71656 0.0
C1088 C 0.97943 0.7451 0.68347 0.0
C1089 C 0.0623 0.76704 0.6735 0.0
C1090 C 0.03103 0.75294 0.68443 0.0
C1091 C 0.93748 0.70399 0.71117 0.0
C1092 C 0.97026 0.72255 0.70335 0.0
H1093 H 0.11224 0.74576 0.65032 0.0
H1094 H 0.05891 0.7235 0.66382 0.0
H1095 H 0.01597 0.77705 0.65854 0.0
H1096 H 0.87247 0.70887 0.71456 0.0
H1097 H 0.92755 0.74125 0.7081 0.0
C1098 C 0.30601 0.11442 0.99812 0.0
C1099 C 0.33356 0.12559 0.98401 0.0
C1100 C 0.28736 0.083 1.0026 0.0
C1101 C 0.29393 0.01355 1.00754 0.0
H1102 H 0.20549 0.9723 1.01398 0.0
C1103 C 0.18783 0.88282 0.02145 0.0
C1104 C 0.20149 0.8722 0.03969 0.0
C1105 C 0.20157 0.91405 1.01547 0.0
C1106 C 0.23017 0.98343 1.01213 0.0
H1107 H 0.36193 0.11242 0.9617 0.0
H1108 H 0.32894 0.05745 0.9689 0.0
H1109 H 0.23339 0.0251 0.99799 0.0
H1110 H 0.23886 0.88621 0.06755 0.0
H1111 H 0.26234 0.9408 0.05771 0.0
H1112 H 0.29078 0.97179 0.02093 0.0
C1113 C 0.32222 0.07307 0.97721 0.0
C1114 C 0.24618 0.01377 1.00315 0.0
C1115 C 0.341 0.10455 0.97288 0.0
C1116 C 0.22796 0.89365 0.05319 0.0
C1117 C 0.24156 0.9249 0.04737 0.0
C1118 C 0.27795 0.98325 1.01637 0.0
C1119 C 0.29573 0.06202 0.99288 0.0
C1120 C 0.27828 0.02922 1.00084 0.0
C1121 C 0.22911 0.93534 0.02778 0.0
C1122 C 0.2459 0.96786 0.01894 0.0
H1123 H 0.29955 0.13001 1.00692 0.0
H1124 H 0.26726 0.07537 1.01488 0.0
H1125 H 0.31867 0.02485 1.00645 0.0
H1126 H 0.16743 0.86688 1.01068 0.0
H1127 H 0.19142 0.92124 1.00021 0.0
C1128 C 0.46583 0.72633 0.37541 0.0
C1129 C 0.49521 0.72955 0.37584 0.0
C1130 C 0.43982 0.6976 0.37176 0.0
C1131 C 0.41506 0.62176 0.34247 0.0
H1132 H 0.3388 0.60055 0.37786 0.0
C1133 C 0.30042 0.50573 0.32753 0.0
C1134 C 0.27348 0.50765 0.32702 0.0
C1135 C 0.3288 0.53178 0.33316 0.0
C1136 C 0.35984 0.60623 0.3676 0.0
H1137 H 0.5201 0.70471 0.37367 0.0
H1138 H 0.4744 0.65423 0.36745 0.0
H1139 H 0.3856 0.6468 0.39075 0.0
H1140 H 0.25569 0.53897 0.33022 0.0
H1141 H 0.30487 0.58409 0.33955 0.0
H1142 H 0.38898 0.58113 0.31914 0.0
C1143 C 0.47167 0.67417 0.36971 0.0
C1144 C 0.38672 0.63273 0.37506 0.0
C1145 C 0.49781 0.70303 0.37356 0.0
C1146 C 0.27586 0.5365 0.33075 0.0
C1147 C 0.30408 0.56239 0.33633 0.0
C1148 C 0.38806 0.59511 0.33501 0.0
C1149 C 0.44239 0.67121 0.36836 0.0
C1150 C 0.41458 0.6412 0.36227 0.0
C1151 C 0.33076 0.56022 0.33841 0.0
C1152 C 0.36001 0.58738 0.34714 0.0
H1153 H 0.46292 0.74622 0.37709 0.0
H1154 H 0.41774 0.69631 0.37055 0.0
H1155 H 0.43607 0.62774 0.33204 0.0
H1156 H 0.2994 0.48386 0.32484 0.0
H1157 H 0.34894 0.52935 0.33458 0.0
C1158 C 0.72879 0.46552 0.69691 0.0
C1159 C 0.75605 0.49327 0.70177 0.0
C1160 C 0.72927 0.43822 0.69301 0.0
C1161 C 0.77958 0.40939 0.67056 0.0
H1162 H 0.71797 0.33278 0.70167 0.0
C1163 C 0.78253 0.29557 0.66077 0.0
C1164 C 0.75442 0.26789 0.65979 0.0
C1165 C 0.78336 0.32354 0.66502 0.0
C1166 C 0.73509 0.35384 0.69244 0.0
H1167 H 0.80517 0.51381 0.70687 0.0
H1168 H 0.80597 0.46603 0.69995 0.0
H1169 H 0.71837 0.38023 0.71227 0.0
H1170 H 0.70508 0.24819 0.66092 0.0
H1171 H 0.70646 0.29682 0.66736 0.0
H1172 H 0.79598 0.38299 0.65032 0.0
C1173 C 0.78425 0.46555 0.69907 0.0
C1174 C 0.73539 0.38111 0.69868 0.0
C1175 C 0.78374 0.49286 0.70328 0.0
C1176 C 0.72716 0.26903 0.66181 0.0
C1177 C 0.72797 0.29695 0.66579 0.0
C1178 C 0.77913 0.38205 0.66413 0.0
C1179 C 0.75705 0.43798 0.6936 0.0
C1180 C 0.75756 0.40919 0.68776 0.0
C1181 C 0.75607 0.32453 0.66817 0.0
C1182 C 0.75677 0.35384 0.67489 0.0
H1183 H 0.70705 0.46496 0.6956 0.0
H1184 H 0.70794 0.41745 0.68866 0.0
H1185 H 0.79673 0.43061 0.66155 0.0
H1186 H 0.80397 0.29552 0.65947 0.0
H1187 H 0.80544 0.3442 0.6669 0.0
C1188 C 0.49846 0.80071 0.99371 0.0
C1189 C 0.49604 0.77162 0.99202 0.0
C1190 C 0.47267 0.80337 0.99981 0.0
C1191 C 0.39923 0.76015 0.03468 0.0
H1192 H 0.3757 0.814 0.9999 0.0
C1193 C 0.27853 0.74347 0.04435 0.0
C1194 C 0.27428 0.76908 0.04441 0.0
C1195 C 0.30754 0.747 0.04049 0.0
C1196 C 0.38227 0.79925 1.01016 0.0
H1197 H 0.46412 0.72255 0.99349 0.0
H1198 H 0.41958 0.72724 1.00384 0.0
H1199 H 0.42244 0.81421 0.98617 0.0
H1200 H 0.2976 0.81872 0.04144 0.0
H1201 H 0.34861 0.82494 0.03497 0.0
H1202 H 0.35927 0.74501 0.05856 0.0
C1203 C 0.44143 0.74801 1.00108 0.0
C1204 C 0.40897 0.7993 1.00219 0.0
C1205 C 0.46699 0.74535 0.99495 0.0
C1206 C 0.30009 0.79852 0.04162 0.0
C1207 C 0.32925 0.80206 0.03762 0.0
C1208 C 0.37275 0.76022 0.04271 0.0
C1209 C 0.4441 0.77699 1.00442 0.0
C1210 C 0.4173 0.77918 1.01396 0.0
C1211 C 0.33322 0.77625 0.03657 0.0
C1212 C 0.36348 0.77921 0.03015 0.0
H1213 H 0.52049 0.82142 0.99163 0.0
H1214 H 0.47541 0.82602 1.00216 0.0
H1215 H 0.40543 0.74493 0.0446 0.0
H1216 H 0.25921 0.72043 0.04641 0.0
H1217 H 0.30956 0.72655 0.0395 0.0
C1218 C 0.5071 0.29743 0.37361 0.0
C1219 C 0.5089 0.27044 0.37553 0.0
C1220 C 0.53369 0.32598 0.37 0.0
C1221 C 0.61825 0.36601 0.37644 0.0
H1222 H 0.61804 0.41845 0.32033 0.0
C1223 C 0.73091 0.46475 0.33627 0.0
C1224 C 0.73246 0.49295 0.33089 0.0
C1225 C 0.70284 0.43845 0.34146 0.0
C1226 C 0.61843 0.4043 0.33629 0.0
H1227 H 0.54019 0.25254 0.37631 0.0
H1228 H 0.58625 0.30206 0.37035 0.0
H1229 H 0.5705 0.37188 0.3321 0.0
H1230 H 0.70535 0.51521 0.32578 0.0
H1231 H 0.65627 0.46924 0.3351 0.0
H1232 H 0.666 0.39817 0.38073 0.0
C1233 C 0.56441 0.30129 0.37158 0.0
C1234 C 0.59114 0.37762 0.34307 0.0
C1235 C 0.53793 0.27283 0.3749 0.0
C1236 C 0.705 0.49385 0.32975 0.0
C1237 C 0.67683 0.46747 0.33509 0.0
C1238 C 0.64541 0.39266 0.36977 0.0
C1239 C 0.56262 0.32815 0.36859 0.0
C1240 C 0.59085 0.35793 0.36296 0.0
C1241 C 0.67549 0.43958 0.3416 0.0
C1242 C 0.64603 0.41192 0.34931 0.0
H1243 H 0.48509 0.29638 0.37387 0.0
H1244 H 0.53159 0.34632 0.36802 0.0
H1245 H 0.61872 0.35162 0.39216 0.0
H1246 H 0.75152 0.46309 0.33707 0.0
H1247 H 0.70266 0.41723 0.34567 0.0
C1248 C 0.25652 0.72103 0.65568 0.0
C1249 C 0.23046 0.72445 0.65607 0.0
C1250 C 0.25397 0.69242 0.65995 0.0
C1251 C 0.20452 0.61815 0.6923 0.0
H1252 H 0.25824 0.59527 0.65655 0.0
C1253 C 0.20443 0.50279 0.70945 0.0
C1254 C 0.23334 0.50483 0.70966 0.0
C1255 C 0.20173 0.52862 0.70348 0.0
C1256 C 0.24326 0.60144 0.6669 0.0
H1257 H 0.18104 0.70005 0.66025 0.0
H1258 H 0.17653 0.64972 0.66747 0.0
H1259 H 0.25673 0.64075 0.64236 0.0
H1260 H 0.2822 0.53623 0.70561 0.0
H1261 H 0.27746 0.58096 0.6956 0.0
H1262 H 0.19124 0.57869 0.71694 0.0
C1263 C 0.19901 0.66943 0.66414 0.0
C1264 C 0.24234 0.6275 0.6587 0.0
C1265 C 0.20155 0.69819 0.6597 0.0
C1266 C 0.25952 0.53365 0.70536 0.0
C1267 C 0.25681 0.55931 0.69939 0.0
C1268 C 0.20537 0.5919 0.70046 0.0
C1269 C 0.22529 0.66633 0.66476 0.0
C1270 C 0.22345 0.63659 0.67162 0.0
C1271 C 0.22786 0.55693 0.69755 0.0
C1272 C 0.22525 0.58364 0.68819 0.0
H1273 H 0.27917 0.74073 0.65296 0.0
H1274 H 0.27476 0.69106 0.66057 0.0
H1275 H 0.18991 0.62463 0.70285 0.0
H1276 H 0.18377 0.48096 0.7126 0.0
H1277 H 0.1791 0.52605 0.70228 0.0
C1278 C 0.50919 0.21195 0.99248 0.0
C1279 C 0.50935 0.24 0.99402 0.0
C1280 C 0.53585 0.21064 0.99778 0.0
C1281 C 0.60955 0.2542 0.03363 0.0
H1282 H 0.63266 0.20187 0.99565 0.0
C1283 C 0.72985 0.2681 0.04112 0.0
C1284 C 0.73288 0.24175 0.04105 0.0
C1285 C 0.7013 0.26578 0.03738 0.0
C1286 C 0.62626 0.21625 1.00672 0.0
H1287 H 0.53826 0.28893 1.00075 0.0
H1288 H 0.58461 0.28674 1.00931 0.0
H1289 H 0.586 0.20237 0.98322 0.0
H1290 H 0.70792 0.1921 0.03782 0.0
H1291 H 0.65781 0.18804 0.03132 0.0
H1292 H 0.64994 0.26842 0.05686 0.0
C1293 C 0.56374 0.26558 1.0048 0.0
C1294 C 0.59954 0.2166 0.99954 0.0
C1295 C 0.53716 0.26687 0.99963 0.0
C1296 C 0.70638 0.21284 0.0381 0.0
C1297 C 0.67773 0.21054 0.03411 0.0
C1298 C 0.63622 0.25391 0.04073 0.0
C1299 C 0.56329 0.23736 1.00467 0.0
C1300 C 0.59108 0.23593 1.01267 0.0
C1301 C 0.67496 0.23705 0.03331 0.0
C1302 C 0.64515 0.23525 0.02716 0.0
H1303 H 0.48816 0.19078 0.98833 0.0
H1304 H 0.53461 0.18851 0.99755 0.0
H1305 H 0.60337 0.26877 0.04467 0.0
H1306 H 0.74975 0.29074 0.04332 0.0
H1307 H 0.7001 0.28669 0.03664 0.0
loop_
_geom_bond_atom_site_label_1
_geom_bond_atom_site_label_2
_geom_bond_distance
_geom_bond_site_symmetry_2
_ccdc_geom_bond_type
Co0 O3 1.970 . S
Co0 N17 1.989 . S
Co0 O25 1.967 . S
Co0 O32 1.920 . S
Co1 O4 1.966 . S
Co1 N10 2.022 . S
Co1 N18 1.993 . S
Co1 O26 1.941 . S
C2 O3 1.258 . S
C2 O4 1.263 . S
O3 Co0 1.970 . S
O3 C2 1.258 . S
O4 Co1 1.966 . S
O4 C2 1.263 . S
C5 O6 1.235 . S
C5 O32 1.289 . S
O6 C5 1.235 . S
C7 C9 1.400 . S
C7 N10 1.351 . S
C7 C12 1.501 . S
C8 C9 1.387 . S
C8 N11 1.341 . S
C9 C7 1.400 . S
C9 C8 1.387 . S
N10 Co1 2.022 . S
N10 C7 1.351 . S
N10 N11 1.365 . S
N11 C8 1.341 . S
N11 N10 1.365 . S
N11 H31 0.862 . S
C12 C7 1.501 . S
C12 H13 0.961 . S
C12 H14 0.961 . S
C12 H15 0.960 . S
H13 C12 0.961 . S
H14 C12 0.961 . S
H15 C12 0.960 . S
C16 N17 1.342 . S
C16 C20 1.401 . S
C16 C21 1.499 . S
N17 Co0 1.989 . S
N17 C16 1.342 . S
N17 N18 1.388 . S
N18 Co1 1.993 . S
N18 N17 1.388 . S
N18 C19 1.346 . S
C19 N18 1.346 . S
C19 C20 1.396 . S
C19 C29 1.510 . S
C20 C16 1.401 . S
C20 C19 1.396 . S
C21 C16 1.499 . S
C21 H22 0.959 . S
C21 H23 0.960 . S
C21 H24 0.961 . S
H22 C21 0.959 . S
H23 C21 0.960 . S
H24 C21 0.961 . S
O25 Co0 1.967 . S
O25 C33 1.258 . S
O26 Co1 1.941 . S
O26 C33 1.266 . S
H27 C29 0.959 . S
H28 C29 0.961 . S
C29 C19 1.510 . S
C29 H27 0.959 . S
C29 H28 0.961 . S
C29 H30 0.960 . S
H30 C29 0.960 . S
H31 N11 0.862 . S
O32 Co0 1.920 . S
O32 C5 1.289 . S
C33 O25 1.258 . S
C33 O26 1.266 . S
Co34 O37 1.970 . S
Co34 N51 1.989 . S
Co34 O59 1.967 . S
Co34 O66 1.920 . S
Co35 O38 1.966 . S
Co35 N44 2.022 . S
Co35 N52 1.993 . S
Co35 O60 1.941 . S
C36 O37 1.258 . S
C36 O38 1.263 . S
O37 Co34 1.970 . S
O37 C36 1.258 . S
O38 Co35 1.966 . S
O38 C36 1.263 . S
C39 O40 1.235 . S
C39 O66 1.289 . S
O40 C39 1.235 . S
C41 C43 1.400 . S
C41 N44 1.351 . S
C41 C46 1.501 . S
C42 C43 1.387 . S
C42 N45 1.341 . S
C43 C41 1.400 . S
C43 C42 1.387 . S
N44 Co35 2.022 . S
N44 C41 1.351 . S
N44 N45 1.365 . S
N45 C42 1.341 . S
N45 N44 1.365 . S
N45 H65 0.862 . S
C46 C41 1.501 . S
C46 H47 0.961 . S
C46 H48 0.961 . S
C46 H49 0.960 . S
H47 C46 0.961 . S
H48 C46 0.961 . S
H49 C46 0.960 . S
C50 N51 1.342 . S
C50 C54 1.401 . S
C50 C55 1.499 . S
N51 Co34 1.989 . S
N51 C50 1.342 . S
N51 N52 1.388 . S
N52 Co35 1.993 . S
N52 N51 1.388 . S
N52 C53 1.346 . S
C53 N52 1.346 . S
C53 C54 1.396 . S
C53 C63 1.510 . S
C54 C50 1.401 . S
C54 C53 1.396 . S
C55 C50 1.499 . S
C55 H56 0.959 . S
C55 H57 0.960 . S
C55 H58 0.961 . S
H56 C55 0.959 . S
H57 C55 0.960 . S
H58 C55 0.961 . S
O59 Co34 1.967 . S
O59 C67 1.258 . S
O60 Co35 1.941 . S
O60 C67 1.266 . S
H61 C63 0.959 . S
H62 C63 0.961 . S
C63 C53 1.510 . S
C63 H61 0.959 . S
C63 H62 0.961 . S
C63 H64 0.960 . S
H64 C63 0.960 . S
H65 N45 0.862 . S
O66 Co34 1.920 . S
O66 C39 1.289 . S
C67 O59 1.258 . S
C67 O60 1.266 . S
Co68 O71 1.942 1_556 S
Co68 N85 2.008 . S
Co68 O93 1.968 . S
Co68 O100 1.928 . S
Co69 O72 1.966 . S
Co69 N78 2.022 . S
Co69 N86 1.993 1_554 S
Co69 O94 1.941 1_554 S
C70 O71 1.258 . S
C70 O72 1.263 . S
O71 Co68 1.942 1_554 S
O71 C70 1.258 . S
O72 Co69 1.966 . S
O72 C70 1.263 . S
C73 O74 1.235 1_556 S
C73 O100 1.289 . S
O74 C73 1.235 1_554 S
C75 C77 1.400 . S
C75 N78 1.351 . S
C75 C80 1.501 . S
C76 C77 1.387 1_556 S
C76 N79 1.341 . S
C77 C75 1.400 . S
C77 C76 1.387 1_554 S
N78 Co69 2.022 . S
N78 C75 1.351 . S
N78 N79 1.365 1_554 S
N79 C76 1.341 . S
N79 N78 1.365 1_556 S
N79 H99 0.862 . S
C80 C75 1.501 . S
C80 H81 0.961 . S
C80 H82 0.961 . S
C80 H83 0.960 . S
H81 C80 0.961 . S
H82 C80 0.961 . S
H83 C80 0.960 . S
C84 N85 1.342 . S
C84 C88 1.401 . S
C84 C89 1.499 . S
N85 Co68 2.008 . S
N85 C84 1.342 . S
N85 N86 1.388 . S
N86 Co69 1.993 1_556 S
N86 N85 1.388 . S
N86 C87 1.346 . S
C87 N86 1.346 . S
C87 C88 1.396 . S
C87 C97 1.510 . S
C88 C84 1.401 . S
C88 C87 1.396 . S
C89 C84 1.499 . S
C89 H90 0.959 . S
C89 H91 0.960 . S
C89 H92 0.961 . S
H90 C89 0.959 . S
H91 C89 0.960 . S
H92 C89 0.961 . S
O93 Co68 1.968 . S
O93 C101 1.258 . S
O94 Co69 1.941 1_556 S
O94 C101 1.266 . S
H95 C97 0.959 . S
H96 C97 0.961 . S
C97 C87 1.510 . S
C97 H95 0.959 . S
C97 H96 0.961 . S
C97 H98 0.960 . S
H98 C97 0.960 . S
H99 N79 0.862 . S
O100 Co68 1.928 . S
O100 C73 1.289 . S
C101 O93 1.258 . S
C101 O94 1.266 . S
Co102 O105 1.970 . S
Co102 N119 1.989 . S
Co102 O127 1.967 . S
Co102 O134 1.920 . S
Co103 O106 1.966 . S
Co103 N112 2.022 . S
Co103 N120 1.993 . S
Co103 O128 1.941 . S
C104 O105 1.258 . S
C104 O106 1.263 . S
O105 Co102 1.970 . S
O105 C104 1.258 . S
O106 Co103 1.966 . S
O106 C104 1.263 . S
C107 O108 1.235 . S
C107 O134 1.289 . S
O108 C107 1.235 . S
C109 C111 1.400 . S
C109 N112 1.351 . S
C109 C114 1.501 . S
C110 C111 1.387 . S
C110 N113 1.341 . S
C111 C109 1.400 . S
C111 C110 1.387 . S
N112 Co103 2.022 . S
N112 C109 1.351 . S
N112 N113 1.365 . S
N113 C110 1.341 . S
N113 N112 1.365 . S
N113 H133 0.862 . S
C114 C109 1.501 . S
C114 H115 0.961 . S
C114 H116 0.961 . S
C114 H117 0.960 . S
H115 C114 0.961 . S
H116 C114 0.961 . S
H117 C114 0.960 . S
C118 N119 1.342 . S
C118 C122 1.401 . S
C118 C123 1.499 . S
N119 Co102 1.989 . S
N119 C118 1.342 . S
N119 N120 1.388 . S
N120 Co103 1.993 . S
N120 N119 1.388 . S
N120 C121 1.346 . S
C121 N120 1.346 . S
C121 C122 1.396 . S
C121 C131 1.510 . S
C122 C118 1.401 . S
C122 C121 1.396 . S
C123 C118 1.499 . S
C123 H124 0.959 . S
C123 H125 0.960 . S
C123 H126 0.961 . S
H124 C123 0.959 . S
H125 C123 0.960 . S
H126 C123 0.961 . S
O127 Co102 1.967 . S
O127 C135 1.258 . S
O128 Co103 1.941 . S
O128 C135 1.266 . S
H129 C131 0.959 . S
H130 C131 0.961 . S
C131 C121 1.510 . S
C131 H129 0.959 . S
C131 H130 0.961 . S
C131 H132 0.960 . S
H132 C131 0.960 . S
H133 N113 0.862 . S
O134 Co102 1.920 . S
O134 C107 1.289 . S
C135 O127 1.258 . S
C135 O128 1.266 . S
Co136 O139 1.970 . S
Co136 N153 1.989 . S
Co136 O161 1.967 . S
Co136 O168 1.920 . S
Co137 O140 1.966 . S
Co137 N146 2.022 . S
Co137 N154 1.993 . S
Co137 O162 1.941 . S
C138 O139 1.258 . S
C138 O140 1.263 . S
O139 Co136 1.970 . S
O139 C138 1.258 . S
O140 Co137 1.966 . S
O140 C138 1.263 . S
C141 O142 1.235 . S
C141 O168 1.289 . S
O142 C141 1.235 . S
C143 C145 1.400 . S
C143 N146 1.351 . S
C143 C148 1.501 . S
C144 C145 1.387 . S
C144 N147 1.341 . S
C145 C143 1.400 . S
C145 C144 1.387 . S
N146 Co137 2.022 . S
N146 C143 1.351 . S
N146 N147 1.365 . S
N147 C144 1.341 . S
N147 N146 1.365 . S
N147 H167 0.862 . S
C148 C143 1.501 . S
C148 H149 0.961 . S
C148 H150 0.961 . S
C148 H151 0.960 . S
H149 C148 0.961 . S
H150 C148 0.961 . S
H151 C148 0.960 . S
C152 N153 1.342 . S
C152 C156 1.401 . S
C152 C157 1.499 . S
N153 Co136 1.989 . S
N153 C152 1.342 . S
N153 N154 1.388 . S
N154 Co137 1.993 . S
N154 N153 1.388 . S
N154 C155 1.346 . S
C155 N154 1.346 . S
C155 C156 1.396 . S
C155 C165 1.510 . S
C156 C152 1.401 . S
C156 C155 1.396 . S
C157 C152 1.499 . S
C157 H158 0.959 . S
C157 H159 0.960 . S
C157 H160 0.961 . S
H158 C157 0.959 . S
H159 C157 0.960 . S
H160 C157 0.961 . S
O161 Co136 1.967 . S
O161 C169 1.258 . S
O162 Co137 1.941 . S
O162 C169 1.266 . S
H163 C165 0.959 . S
H164 C165 0.961 . S
C165 C155 1.510 . S
C165 H163 0.959 . S
C165 H164 0.961 . S
C165 H166 0.960 . S
H166 C165 0.960 . S
H167 N147 0.862 . S
O168 Co136 1.920 . S
O168 C141 1.289 . S
C169 O161 1.258 . S
C169 O162 1.266 . S
Co170 O173 1.942 1_556 S
Co170 N187 2.008 . S
Co170 O195 1.968 . S
Co170 O202 1.928 . S
Co171 O174 1.966 . S
Co171 N180 2.022 . S
Co171 N188 1.993 1_554 S
Co171 O196 1.941 1_554 S
C172 O173 1.258 . S
C172 O174 1.263 . S
O173 Co170 1.942 1_554 S
O173 C172 1.258 . S
O174 Co171 1.966 . S
O174 C172 1.263 . S
C175 O176 1.235 1_556 S
C175 O202 1.289 . S
O176 C175 1.235 1_554 S
C177 C179 1.400 . S
C177 N180 1.351 . S
C177 C182 1.501 . S
C178 C179 1.387 1_556 S
C178 N181 1.341 . S
C179 C177 1.400 . S
C179 C178 1.387 1_554 S
N180 Co171 2.022 . S
N180 C177 1.351 . S
N180 N181 1.365 1_554 S
N181 C178 1.341 . S
N181 N180 1.365 1_556 S
N181 H201 0.862 . S
C182 C177 1.501 . S
C182 H183 0.961 . S
C182 H184 0.961 . S
C182 H185 0.960 . S
H183 C182 0.961 . S
H184 C182 0.961 . S
H185 C182 0.960 . S
C186 N187 1.342 . S
C186 C190 1.401 . S
C186 C191 1.499 . S
N187 Co170 2.008 . S
N187 C186 1.342 . S
N187 N188 1.388 . S
N188 Co171 1.993 1_556 S
N188 N187 1.388 . S
N188 C189 1.346 . S
C189 N188 1.346 . S
C189 C190 1.396 . S
C189 C199 1.510 . S
C190 C186 1.401 . S
C190 C189 1.396 . S
C191 C186 1.499 . S
C191 H192 0.959 . S
C191 H193 0.960 . S
C191 H194 0.961 . S
H192 C191 0.959 . S
H193 C191 0.960 . S
H194 C191 0.961 . S
O195 Co170 1.968 . S
O195 C203 1.258 . S
O196 Co171 1.941 1_556 S
O196 C203 1.266 . S
H197 C199 0.959 . S
H198 C199 0.961 . S
C199 C189 1.510 . S
C199 H197 0.959 . S
C199 H198 0.961 . S
C199 H200 0.960 . S
H200 C199 0.960 . S
H201 N181 0.862 . S
O202 Co170 1.928 . S
O202 C175 1.289 . S
C203 O195 1.258 . S
C203 O196 1.266 . S
Co204 O207 1.970 . S
Co204 N221 1.989 . S
Co204 O229 1.967 . S
Co204 O236 1.920 . S
Co205 O208 1.966 . S
Co205 N214 2.022 . S
Co205 N222 1.993 . S
Co205 O230 1.941 . S
C206 O207 1.258 . S
C206 O208 1.263 . S
O207 Co204 1.970 . S
O207 C206 1.258 . S
O208 Co205 1.966 . S
O208 C206 1.263 . S
C209 O210 1.235 . S
C209 O236 1.289 . S
O210 C209 1.235 . S
C211 C213 1.400 . S
C211 N214 1.351 . S
C211 C216 1.501 . S
C212 C213 1.387 . S
C212 N215 1.341 . S
C213 C211 1.400 . S
C213 C212 1.387 . S
N214 Co205 2.022 . S
N214 C211 1.351 . S
N214 N215 1.365 . S
N215 C212 1.341 . S
N215 N214 1.365 . S
N215 H235 0.862 . S
C216 C211 1.501 . S
C216 H217 0.961 . S
C216 H218 0.961 . S
C216 H219 0.960 . S
H217 C216 0.961 . S
H218 C216 0.961 . S
H219 C216 0.960 . S
C220 N221 1.342 . S
C220 C224 1.401 . S
C220 C225 1.499 . S
N221 Co204 1.989 . S
N221 C220 1.342 . S
N221 N222 1.388 . S
N222 Co205 1.993 . S
N222 N221 1.388 . S
N222 C223 1.346 . S
C223 N222 1.346 . S
C223 C224 1.396 . S
C223 C233 1.510 . S
C224 C220 1.401 . S
C224 C223 1.396 . S
C225 C220 1.499 . S
C225 H226 0.959 . S
C225 H227 0.960 . S
C225 H228 0.961 . S
H226 C225 0.959 . S
H227 C225 0.960 . S
H228 C225 0.961 . S
O229 Co204 1.967 . S
O229 C237 1.258 . S
O230 Co205 1.941 . S
O230 C237 1.266 . S
H231 C233 0.959 . S
H232 C233 0.961 . S
C233 C223 1.510 . S
C233 H231 0.959 . S
C233 H232 0.961 . S
C233 H234 0.960 . S
H234 C233 0.960 . S
H235 N215 0.862 . S
O236 Co204 1.920 . S
O236 C209 1.289 . S
C237 O229 1.258 . S
C237 O230 1.266 . S
Co238 O241 1.970 . S
Co238 N255 1.989 . S
Co238 O263 1.967 . S
Co238 O270 1.920 . S
Co239 O242 1.966 . S
Co239 N248 2.022 . S
Co239 N256 1.993 . S
Co239 O264 1.941 . S
C240 O241 1.258 . S
C240 O242 1.263 . S
O241 Co238 1.970 . S
O241 C240 1.258 . S
O242 Co239 1.966 . S
O242 C240 1.263 . S
C243 O244 1.235 . S
C243 O270 1.289 . S
O244 C243 1.235 . S
C245 C247 1.400 . S
C245 N248 1.351 . S
C245 C250 1.501 . S
C246 C247 1.387 . S
C246 N249 1.341 . S
C247 C245 1.400 . S
C247 C246 1.387 . S
N248 Co239 2.022 . S
N248 C245 1.351 . S
N248 N249 1.365 . S
N249 C246 1.341 . S
N249 N248 1.365 . S
N249 H269 0.862 . S
C250 C245 1.501 . S
C250 H251 0.961 . S
C250 H252 0.961 . S
C250 H253 0.960 . S
H251 C250 0.961 . S
H252 C250 0.961 . S
H253 C250 0.960 . S
C254 N255 1.342 . S
C254 C258 1.401 . S
C254 C259 1.499 . S
N255 Co238 1.989 . S
N255 C254 1.342 . S
N255 N256 1.388 . S
N256 Co239 1.993 . S
N256 N255 1.388 . S
N256 C257 1.346 . S
C257 N256 1.346 . S
C257 C258 1.396 . S
C257 C267 1.510 . S
C258 C254 1.401 . S
C258 C257 1.396 . S
C259 C254 1.499 . S
C259 H260 0.959 . S
C259 H261 0.960 . S
C259 H262 0.961 . S
H260 C259 0.959 . S
H261 C259 0.960 . S
H262 C259 0.961 . S
O263 Co238 1.967 . S
O263 C271 1.258 . S
O264 Co239 1.941 . S
O264 C271 1.266 . S
H265 C267 0.959 . S
H266 C267 0.961 . S
C267 C257 1.510 . S
C267 H265 0.959 . S
C267 H266 0.961 . S
C267 H268 0.960 . S
H268 C267 0.960 . S
H269 N249 0.862 . S
O270 Co238 1.920 . S
O270 C243 1.289 . S
C271 O263 1.258 . S
C271 O264 1.266 . S
Co272 O275 1.942 1_554 S
Co272 N289 2.008 . S
Co272 O297 1.968 . S
Co272 O304 1.928 . S
Co273 O276 1.966 . S
Co273 N282 2.022 . S
Co273 N290 1.993 1_556 S
Co273 O298 1.941 1_556 S
C274 O275 1.258 . S
C274 O276 1.263 . S
O275 Co272 1.942 1_556 S
O275 C274 1.258 . S
O276 Co273 1.966 . S
O276 C274 1.263 . S
C277 O278 1.235 1_554 S
C277 O304 1.289 . S
O278 C277 1.235 1_556 S
C279 C281 1.400 . S
C279 N282 1.351 . S
C279 C284 1.501 . S
C280 C281 1.387 1_554 S
C280 N283 1.341 . S
C281 C279 1.400 . S
C281 C280 1.387 1_556 S
N282 Co273 2.022 . S
N282 C279 1.351 . S
N282 N283 1.365 1_556 S
N283 C280 1.341 . S
N283 N282 1.365 1_554 S
N283 H303 0.862 . S
C284 C279 1.501 . S
C284 H285 0.961 . S
C284 H286 0.961 . S
C284 H287 0.960 . S
H285 C284 0.961 . S
H286 C284 0.961 . S
H287 C284 0.960 . S
C288 N289 1.342 . S
C288 C292 1.401 . S
C288 C293 1.499 . S
N289 Co272 2.008 . S
N289 C288 1.342 . S
N289 N290 1.388 . S
N290 Co273 1.993 1_554 S
N290 N289 1.388 . S
N290 C291 1.346 . S
C291 N290 1.346 . S
C291 C292 1.396 . S
C291 C301 1.510 . S
C292 C288 1.401 . S
C292 C291 1.396 . S
C293 C288 1.499 . S
C293 H294 0.959 . S
C293 H295 0.960 . S
C293 H296 0.961 . S
H294 C293 0.959 . S
H295 C293 0.960 . S
H296 C293 0.961 . S
O297 Co272 1.968 . S
O297 C305 1.258 . S
O298 Co273 1.941 1_554 S
O298 C305 1.266 . S
H299 C301 0.959 . S
H300 C301 0.961 . S
C301 C291 1.510 . S
C301 H299 0.959 . S
C301 H300 0.961 . S
C301 H302 0.960 . S
H302 C301 0.960 . S
H303 N283 0.862 . S
O304 Co272 1.928 . S
O304 C277 1.289 . S
C305 O297 1.258 . S
C305 O298 1.266 . S
Co306 O309 1.970 . S
Co306 N323 1.989 . S
Co306 O331 1.967 . S
Co306 O338 1.920 . S
Co307 O310 1.966 . S
Co307 N316 2.022 . S
Co307 N324 1.993 . S
Co307 O332 1.941 . S
C308 O309 1.258 . S
C308 O310 1.263 . S
O309 Co306 1.970 . S
O309 C308 1.258 . S
O310 Co307 1.966 . S
O310 C308 1.263 . S
C311 O312 1.235 . S
C311 O338 1.289 . S
O312 C311 1.235 . S
C313 C315 1.400 . S
C313 N316 1.351 . S
C313 C318 1.501 . S
C314 C315 1.387 . S
C314 N317 1.341 . S
C315 C313 1.400 . S
C315 C314 1.387 . S
N316 Co307 2.022 . S
N316 C313 1.351 . S
N316 N317 1.365 . S
N317 C314 1.341 . S
N317 N316 1.365 . S
N317 H337 0.862 . S
C318 C313 1.501 . S
C318 H319 0.961 . S
C318 H320 0.961 . S
C318 H321 0.960 . S
H319 C318 0.961 . S
H320 C318 0.961 . S
H321 C318 0.960 . S
C322 N323 1.342 . S
C322 C326 1.401 . S
C322 C327 1.499 . S
N323 Co306 1.989 . S
N323 C322 1.342 . S
N323 N324 1.388 . S
N324 Co307 1.993 . S
N324 N323 1.388 . S
N324 C325 1.346 . S
C325 N324 1.346 . S
C325 C326 1.396 . S
C325 C335 1.510 . S
C326 C322 1.401 . S
C326 C325 1.396 . S
C327 C322 1.499 . S
C327 H328 0.959 . S
C327 H329 0.960 . S
C327 H330 0.961 . S
H328 C327 0.959 . S
H329 C327 0.960 . S
H330 C327 0.961 . S
O331 Co306 1.967 . S
O331 C339 1.258 . S
O332 Co307 1.941 . S
O332 C339 1.266 . S
H333 C335 0.959 . S
H334 C335 0.961 . S
C335 C325 1.510 . S
C335 H333 0.959 . S
C335 H334 0.961 . S
C335 H336 0.960 . S
H336 C335 0.960 . S
H337 N317 0.862 . S
O338 Co306 1.920 . S
O338 C311 1.289 . S
C339 O331 1.258 . S
C339 O332 1.266 . S
Co340 O343 1.970 . S
Co340 N357 1.989 . S
Co340 O365 1.967 . S
Co340 O372 1.920 . S
Co341 O344 1.966 . S
Co341 N350 2.022 . S
Co341 N358 1.993 . S
Co341 O366 1.941 . S
C342 O343 1.258 . S
C342 O344 1.263 . S
O343 Co340 1.970 . S
O343 C342 1.258 . S
O344 Co341 1.966 . S
O344 C342 1.263 . S
C345 O346 1.235 . S
C345 O372 1.289 . S
O346 C345 1.235 . S
C347 C349 1.400 . S
C347 N350 1.351 . S
C347 C352 1.501 . S
C348 C349 1.387 . S
C348 N351 1.341 . S
C349 C347 1.400 . S
C349 C348 1.387 . S
N350 Co341 2.022 . S
N350 C347 1.351 . S
N350 N351 1.365 . S
N351 C348 1.341 . S
N351 N350 1.365 . S
N351 H371 0.862 . S
C352 C347 1.501 . S
C352 H353 0.961 . S
C352 H354 0.961 . S
C352 H355 0.960 . S
H353 C352 0.961 . S
H354 C352 0.961 . S
H355 C352 0.960 . S
C356 N357 1.342 . S
C356 C360 1.401 . S
C356 C361 1.499 . S
N357 Co340 1.989 . S
N357 C356 1.342 . S
N357 N358 1.388 . S
N358 Co341 1.993 . S
N358 N357 1.388 . S
N358 C359 1.346 . S
C359 N358 1.346 . S
C359 C360 1.396 . S
C359 C369 1.510 . S
C360 C356 1.401 . S
C360 C359 1.396 . S
C361 C356 1.499 . S
C361 H362 0.959 . S
C361 H363 0.960 . S
C361 H364 0.961 . S
H362 C361 0.959 . S
H363 C361 0.960 . S
H364 C361 0.961 . S
O365 Co340 1.967 . S
O365 C373 1.258 . S
O366 Co341 1.941 . S
O366 C373 1.266 . S
H367 C369 0.959 . S
H368 C369 0.961 . S
C369 C359 1.510 . S
C369 H367 0.959 . S
C369 H368 0.961 . S
C369 H370 0.960 . S
H370 C369 0.960 . S
H371 N351 0.862 . S
O372 Co340 1.920 . S
O372 C345 1.289 . S
C373 O365 1.258 . S
C373 O366 1.266 . S
Co374 O377 1.942 1_554 S
Co374 N391 2.008 . S
Co374 O399 1.968 . S
Co374 O406 1.928 . S
Co375 O378 1.966 . S
Co375 N384 2.022 . S
Co375 N392 1.993 1_556 S
Co375 O400 1.941 1_556 S
C376 O377 1.258 . S
C376 O378 1.263 . S
O377 Co374 1.942 1_556 S
O377 C376 1.258 . S
O378 Co375 1.966 . S
O378 C376 1.263 . S
C379 O380 1.235 1_554 S
C379 O406 1.289 . S
O380 C379 1.235 1_556 S
C381 C383 1.400 . S
C381 N384 1.351 . S
C381 C386 1.501 . S
C382 C383 1.387 1_554 S
C382 N385 1.341 . S
C383 C381 1.400 . S
C383 C382 1.387 1_556 S
N384 Co375 2.022 . S
N384 C381 1.351 . S
N384 N385 1.365 1_556 S
N385 C382 1.341 . S
N385 N384 1.365 1_554 S
N385 H405 0.862 . S
C386 C381 1.501 . S
C386 H387 0.961 . S
C386 H388 0.961 . S
C386 H389 0.960 . S
H387 C386 0.961 . S
H388 C386 0.961 . S
H389 C386 0.960 . S
C390 N391 1.342 . S
C390 C394 1.401 . S
C390 C395 1.499 . S
N391 Co374 2.008 . S
N391 C390 1.342 . S
N391 N392 1.388 . S
N392 Co375 1.993 1_554 S
N392 N391 1.388 . S
N392 C393 1.346 . S
C393 N392 1.346 . S
C393 C394 1.396 . S
C393 C403 1.510 . S
C394 C390 1.401 . S
C394 C393 1.396 . S
C395 C390 1.499 . S
C395 H396 0.959 . S
C395 H397 0.960 . S
C395 H398 0.961 . S
H396 C395 0.959 . S
H397 C395 0.960 . S
H398 C395 0.961 . S
O399 Co374 1.968 . S
O399 C407 1.258 . S
O400 Co375 1.941 1_554 S
O400 C407 1.266 . S
H401 C403 0.959 . S
H402 C403 0.961 . S
C403 C393 1.510 . S
C403 H401 0.959 . S
C403 H402 0.961 . S
C403 H404 0.960 . S
H404 C403 0.960 . S
H405 N385 0.862 . S
O406 Co374 1.928 . S
O406 C379 1.289 . S
C407 O399 1.258 . S
C407 O400 1.266 . S
C408 C409 1.349 . S
C408 C410 1.327 . S
C408 H433 0.950 . S
C409 C408 1.349 . S
C409 C425 1.349 . S
C410 C408 1.327 . S
C410 C429 1.429 . S
C410 H434 0.950 . S
C411 C428 1.574 . S
C411 C430 1.368 1_455 S
C411 H435 0.949 . S
H412 C416 0.949 . S
C413 C414 1.349 . S
C413 C415 1.327 . S
C413 H436 0.950 . S
C414 C413 1.349 . S
C414 C426 1.349 . S
C415 C413 1.327 . S
C415 C431 1.429 . S
C415 H437 0.950 . S
C416 H412 0.949 . S
C416 C424 1.574 . S
C416 C432 1.368 1_655 S
H417 C425 0.950 . S
H418 C423 0.950 . S
H419 C424 0.949 . S
H420 C426 0.950 . S
H421 C427 0.950 . S
H422 C428 0.949 . S
C423 H418 0.950 . S
C423 C425 1.327 . S
C423 C429 1.429 . S
C424 C416 1.574 . S
C424 H419 0.949 . S
C424 C430 1.368 . S
C425 C409 1.349 . S
C425 H417 0.950 . S
C425 C423 1.327 . S
C426 C414 1.349 . S
C426 H420 0.950 . S
C426 C427 1.327 . S
C427 H421 0.950 . S
C427 C426 1.327 . S
C427 C431 1.429 . S
C428 C411 1.574 . S
C428 H422 0.949 . S
C428 C432 1.368 . S
C429 C410 1.429 . S
C429 C423 1.429 . S
C429 C430 1.523 . S
C430 C411 1.368 1_655 S
C430 C424 1.368 . S
C430 C429 1.523 . S
C431 C415 1.429 . S
C431 C427 1.429 . S
C431 C432 1.523 . S
C432 C416 1.368 1_455 S
C432 C428 1.368 . S
C432 C431 1.523 . S
H433 C408 0.950 . S
H434 C410 0.950 . S
H435 C411 0.949 . S
H436 C413 0.950 . S
H437 C415 0.950 . S
C438 C439 1.349 . S
C438 C440 1.327 . S
C438 H463 0.950 . S
C439 C438 1.349 . S
C439 C455 1.349 . S
C440 C438 1.327 . S
C440 C459 1.429 . S
C440 H464 0.950 . S
C441 C458 1.574 . S
C441 C460 1.368 . S
C441 H465 0.949 . S
H442 C446 0.949 . S
C443 C444 1.349 . S
C443 C445 1.327 . S
C443 H466 0.950 . S
C444 C443 1.349 . S
C444 C456 1.349 . S
C445 C443 1.327 . S
C445 C461 1.429 . S
C445 H467 0.950 . S
C446 H442 0.949 . S
C446 C454 1.574 . S
C446 C462 1.368 . S
H447 C455 0.950 . S
H448 C453 0.950 . S
H449 C454 0.949 . S
H450 C456 0.950 . S
H451 C457 0.950 . S
H452 C458 0.949 . S
C453 H448 0.950 . S
C453 C455 1.327 . S
C453 C459 1.429 . S
C454 C446 1.574 . S
C454 H449 0.949 . S
C454 C460 1.368 1_545 S
C455 C439 1.349 . S
C455 H447 0.950 . S
C455 C453 1.327 . S
C456 C444 1.349 . S
C456 H450 0.950 . S
C456 C457 1.327 . S
C457 H451 0.950 . S
C457 C456 1.327 . S
C457 C461 1.429 . S
C458 C441 1.574 . S
C458 H452 0.949 . S
C458 C462 1.368 1_565 S
C459 C440 1.429 . S
C459 C453 1.429 . S
C459 C460 1.523 . S
C460 C441 1.368 . S
C460 C454 1.368 1_565 S
C460 C459 1.523 . S
C461 C445 1.429 . S
C461 C457 1.429 . S
C461 C462 1.523 . S
C462 C446 1.368 . S
C462 C458 1.368 1_545 S
C462 C461 1.523 . S
H463 C438 0.950 . S
H464 C440 0.950 . S
H465 C441 0.949 . S
H466 C443 0.950 . S
H467 C445 0.950 . S
C468 C469 1.349 . S
C468 C470 1.327 . S
C468 H493 0.950 . S
C469 C468 1.349 . S
C469 C485 1.349 . S
C470 C468 1.327 . S
C470 C489 1.429 . S
C470 H494 0.950 . S
C471 C488 1.574 . S
C471 C490 1.368 . S
C471 H495 0.949 . S
H472 C476 0.949 . S
C473 C474 1.349 . S
C473 C475 1.327 . S
C473 H496 0.950 . S
C474 C473 1.349 . S
C474 C486 1.349 . S
C475 C473 1.327 . S
C475 C491 1.429 . S
C475 H497 0.950 . S
C476 H472 0.949 . S
C476 C484 1.574 . S
C476 C492 1.368 . S
H477 C485 0.950 . S
H478 C483 0.950 . S
H479 C484 0.949 . S
H480 C486 0.950 . S
H481 C487 0.950 . S
H482 C488 0.949 . S
C483 H478 0.950 . S
C483 C485 1.327 . S
C483 C489 1.429 . S
C484 C476 1.574 . S
C484 H479 0.949 . S
C484 C490 1.368 . S
C485 C469 1.349 . S
C485 H477 0.950 . S
C485 C483 1.327 . S
C486 C474 1.349 . S
C486 H480 0.950 . S
C486 C487 1.327 . S
C487 H481 0.950 . S
C487 C486 1.327 . S
C487 C491 1.429 . S
C488 C471 1.574 . S
C488 H482 0.949 . S
C488 C492 1.368 . S
C489 C470 1.429 . S
C489 C483 1.429 . S
C489 C490 1.523 . S
C490 C471 1.368 . S
C490 C484 1.368 . S
C490 C489 1.523 . S
C491 C475 1.429 . S
C491 C487 1.429 . S
C491 C492 1.523 . S
C492 C476 1.368 . S
C492 C488 1.368 . S
C492 C491 1.523 . S
H493 C468 0.950 . S
H494 C470 0.950 . S
H495 C471 0.949 . S
H496 C473 0.950 . S
H497 C475 0.950 . S
C498 C499 1.349 . S
C498 C500 1.327 . S
C498 H523 0.950 . S
C499 C498 1.349 . S
C499 C515 1.349 . S
C500 C498 1.327 . S
C500 C519 1.429 . S
C500 H524 0.950 . S
C501 C518 1.574 1_455 S
C501 C520 1.368 . S
C501 H525 0.949 . S
H502 C506 0.949 . S
C503 C504 1.349 . S
C503 C505 1.327 . S
C503 H526 0.950 . S
C504 C503 1.349 . S
C504 C516 1.349 . S
C505 C503 1.327 . S
C505 C521 1.429 . S
C505 H527 0.950 . S
C506 H502 0.949 . S
C506 C514 1.574 1_655 S
C506 C522 1.368 . S
H507 C515 0.950 . S
H508 C513 0.950 . S
H509 C514 0.949 . S
H510 C516 0.950 . S
H511 C517 0.950 . S
H512 C518 0.949 . S
C513 H508 0.950 . S
C513 C515 1.327 . S
C513 C519 1.429 . S
C514 C506 1.574 1_455 S
C514 H509 0.949 . S
C514 C520 1.368 . S
C515 C499 1.349 . S
C515 H507 0.950 . S
C515 C513 1.327 . S
C516 C504 1.349 . S
C516 H510 0.950 . S
C516 C517 1.327 . S
C517 H511 0.950 . S
C517 C516 1.327 . S
C517 C521 1.429 . S
C518 C501 1.574 1_655 S
C518 H512 0.949 . S
C518 C522 1.368 . S
C519 C500 1.429 . S
C519 C513 1.429 . S
C519 C520 1.523 . S
C520 C501 1.368 . S
C520 C514 1.368 . S
C520 C519 1.523 . S
C521 C505 1.429 . S
C521 C517 1.429 . S
C521 C522 1.523 . S
C522 C506 1.368 . S
C522 C518 1.368 . S
C522 C521 1.523 . S
H523 C498 0.950 . S
H524 C500 0.950 . S
H525 C501 0.949 . S
H526 C503 0.950 . S
H527 C505 0.950 . S
C528 C529 1.349 . S
C528 C530 1.327 . S
C528 H553 0.950 . S
C529 C528 1.349 . S
C529 C545 1.349 . S
C530 C528 1.327 . S
C530 C549 1.429 . S
C530 H554 0.950 . S
C531 C548 1.574 1_545 S
C531 C550 1.368 . S
C531 H555 0.949 . S
H532 C536 0.949 . S
C533 C534 1.349 . S
C533 C535 1.327 . S
C533 H556 0.950 . S
C534 C533 1.349 . S
C534 C546 1.349 . S
C535 C533 1.327 . S
C535 C551 1.429 . S
C535 H557 0.950 . S
C536 H532 0.949 . S
C536 C544 1.574 1_565 S
C536 C552 1.368 . S
H537 C545 0.950 . S
H538 C543 0.950 . S
H539 C544 0.949 . S
H540 C546 0.950 . S
H541 C547 0.950 . S
H542 C548 0.949 . S
C543 H538 0.950 . S
C543 C545 1.327 . S
C543 C549 1.429 . S
C544 C536 1.574 1_545 S
C544 H539 0.949 . S
C544 C550 1.368 . S
C545 C529 1.349 . S
C545 H537 0.950 . S
C545 C543 1.327 . S
C546 C534 1.349 . S
C546 H540 0.950 . S
C546 C547 1.327 . S
C547 H541 0.950 . S
C547 C546 1.327 . S
C547 C551 1.429 . S
C548 C531 1.574 1_565 S
C548 H542 0.949 . S
C548 C552 1.368 . S
C549 C530 1.429 . S
C549 C543 1.429 . S
C549 C550 1.523 . S
C550 C531 1.368 . S
C550 C544 1.368 . S
C550 C549 1.523 . S
C551 C535 1.429 . S
C551 C547 1.429 . S
C551 C552 1.523 . S
C552 C536 1.368 . S
C552 C548 1.368 . S
C552 C551 1.523 . S
H553 C528 0.950 . S
H554 C530 0.950 . S
H555 C531 0.949 . S
H556 C533 0.950 . S
H557 C535 0.950 . S
C558 C559 1.349 . S
C558 C560 1.327 . S
C558 H583 0.950 . S
C559 C558 1.349 . S
C559 C575 1.349 . S
C560 C558 1.327 . S
C560 C579 1.429 . S
C560 H584 0.950 . S
C561 C578 1.574 . S
C561 C580 1.368 . S
C561 H585 0.949 . S
H562 C566 0.949 . S
C563 C564 1.349 . S
C563 C565 1.327 . S
C563 H586 0.950 . S
C564 C563 1.349 . S
C564 C576 1.349 . S
C565 C563 1.327 . S
C565 C581 1.429 . S
C565 H587 0.950 . S
C566 H562 0.949 . S
C566 C574 1.574 . S
C566 C582 1.368 . S
H567 C575 0.950 . S
H568 C573 0.950 . S
H569 C574 0.949 . S
H570 C576 0.950 . S
H571 C577 0.950 . S
H572 C578 0.949 . S
C573 H568 0.950 . S
C573 C575 1.327 . S
C573 C579 1.429 . S
C574 C566 1.574 . S
C574 H569 0.949 . S
C574 C580 1.368 . S
C575 C559 1.349 . S
C575 H567 0.950 . S
C575 C573 1.327 . S
C576 C564 1.349 . S
C576 H570 0.950 . S
C576 C577 1.327 . S
C577 H571 0.950 . S
C577 C576 1.327 . S
C577 C581 1.429 . S
C578 C561 1.574 . S
C578 H572 0.949 . S
C578 C582 1.368 . S
C579 C560 1.429 . S
C579 C573 1.429 . S
C579 C580 1.523 . S
C580 C561 1.368 . S
C580 C574 1.368 . S
C580 C579 1.523 . S
C581 C565 1.429 . S
C581 C577 1.429 . S
C581 C582 1.523 . S
C582 C566 1.368 . S
C582 C578 1.368 . S
C582 C581 1.523 . S
H583 C558 0.950 . S
H584 C560 0.950 . S
H585 C561 0.949 . S
H586 C563 0.950 . S
H587 C565 0.950 . S
C588 C589 1.349 . S
C588 C590 1.327 . S
C588 H613 0.950 . S
C589 C588 1.349 . S
C589 C605 1.349 . S
C590 C588 1.327 . S
C590 C609 1.429 . S
C590 H614 0.950 . S
C591 C608 1.574 . S
C591 C610 1.368 . S
C591 H615 0.949 . S
H592 C596 0.949 . S
C593 C594 1.349 . S
C593 C595 1.327 . S
C593 H616 0.950 . S
C594 C593 1.349 . S
C594 C606 1.349 . S
C595 C593 1.327 . S
C595 C611 1.429 . S
C595 H617 0.950 . S
C596 H592 0.949 . S
C596 C604 1.574 . S
C596 C612 1.368 . S
H597 C605 0.950 . S
H598 C603 0.950 . S
H599 C604 0.949 . S
H600 C606 0.950 . S
H601 C607 0.950 . S
H602 C608 0.949 . S
C603 H598 0.950 . S
C603 C605 1.327 . S
C603 C609 1.429 . S
C604 C596 1.574 . S
C604 H599 0.949 . S
C604 C610 1.368 . S
C605 C589 1.349 . S
C605 H597 0.950 . S
C605 C603 1.327 . S
C606 C594 1.349 . S
C606 H600 0.950 . S
C606 C607 1.327 . S
C607 H601 0.950 . S
C607 C606 1.327 . S
C607 C611 1.429 . S
C608 C591 1.574 . S
C608 H602 0.949 . S
C608 C612 1.368 . S
C609 C590 1.429 . S
C609 C603 1.429 . S
C609 C610 1.523 . S
C610 C591 1.368 . S
C610 C604 1.368 . S
C610 C609 1.523 . S
C611 C595 1.429 . S
C611 C607 1.429 . S
C611 C612 1.523 . S
C612 C596 1.368 . S
C612 C608 1.368 . S
C612 C611 1.523 . S
H613 C588 0.950 . S
H614 C590 0.950 . S
H615 C591 0.949 . S
H616 C593 0.950 . S
H617 C595 0.950 . S
C618 C619 1.349 . S
C618 C620 1.327 . S
C618 H643 0.950 . S
C619 C618 1.349 . S
C619 C635 1.349 . S
C620 C618 1.327 . S
C620 C639 1.429 . S
C620 H644 0.950 . S
C621 C638 1.574 . S
C621 C640 1.368 . S
C621 H645 0.949 . S
H622 C626 0.949 . S
C623 C624 1.349 . S
C623 C625 1.327 . S
C623 H646 0.950 . S
C624 C623 1.349 . S
C624 C636 1.349 . S
C625 C623 1.327 . S
C625 C641 1.429 . S
C625 H647 0.950 . S
C626 H622 0.949 . S
C626 C634 1.574 . S
C626 C642 1.368 . S
H627 C635 0.950 . S
H628 C633 0.950 . S
H629 C634 0.949 . S
H630 C636 0.950 . S
H631 C637 0.950 . S
H632 C638 0.949 . S
C633 H628 0.950 . S
C633 C635 1.327 . S
C633 C639 1.429 . S
C634 C626 1.574 . S
C634 H629 0.949 . S
C634 C640 1.368 . S
C635 C619 1.349 . S
C635 H627 0.950 . S
C635 C633 1.327 . S
C636 C624 1.349 . S
C636 H630 0.950 . S
C636 C637 1.327 . S
C637 H631 0.950 . S
C637 C636 1.327 . S
C637 C641 1.429 . S
C638 C621 1.574 . S
C638 H632 0.949 . S
C638 C642 1.368 . S
C639 C620 1.429 . S
C639 C633 1.429 . S
C639 C640 1.523 . S
C640 C621 1.368 . S
C640 C634 1.368 . S
C640 C639 1.523 . S
C641 C625 1.429 . S
C641 C637 1.429 . S
C641 C642 1.523 . S
C642 C626 1.368 . S
C642 C638 1.368 . S
C642 C641 1.523 . S
H643 C618 0.950 . S
H644 C620 0.950 . S
H645 C621 0.949 . S
H646 C623 0.950 . S
H647 C625 0.950 . S
C648 C649 1.349 . S
C648 C650 1.327 . S
C648 H673 0.950 . S
C649 C648 1.349 . S
C649 C665 1.349 . S
C650 C648 1.327 . S
C650 C669 1.429 . S
C650 H674 0.950 . S
C651 C668 1.574 . S
C651 C670 1.368 . S
C651 H675 0.949 . S
H652 C656 0.949 . S
C653 C654 1.349 . S
C653 C655 1.327 . S
C653 H676 0.950 . S
C654 C653 1.349 . S
C654 C666 1.349 . S
C655 C653 1.327 . S
C655 C671 1.429 . S
C655 H677 0.950 . S
C656 H652 0.949 . S
C656 C664 1.574 . S
C656 C672 1.368 . S
H657 C665 0.950 . S
H658 C663 0.950 . S
H659 C664 0.949 . S
H660 C666 0.950 . S
H661 C667 0.950 . S
H662 C668 0.949 . S
C663 H658 0.950 . S
C663 C665 1.327 . S
C663 C669 1.429 . S
C664 C656 1.574 . S
C664 H659 0.949 . S
C664 C670 1.368 . S
C665 C649 1.349 . S
C665 H657 0.950 . S
C665 C663 1.327 . S
C666 C654 1.349 . S
C666 H660 0.950 . S
C666 C667 1.327 . S
C667 H661 0.950 . S
C667 C666 1.327 . S
C667 C671 1.429 . S
C668 C651 1.574 . S
C668 H662 0.949 . S
C668 C672 1.368 . S
C669 C650 1.429 . S
C669 C663 1.429 . S
C669 C670 1.523 . S
C670 C651 1.368 . S
C670 C664 1.368 . S
C670 C669 1.523 . S
C671 C655 1.429 . S
C671 C667 1.429 . S
C671 C672 1.523 . S
C672 C656 1.368 . S
C672 C668 1.368 . S
C672 C671 1.523 . S
H673 C648 0.950 . S
H674 C650 0.950 . S
H675 C651 0.949 . S
H676 C653 0.950 . S
H677 C655 0.950 . S
C678 C679 1.349 . S
C678 C680 1.327 . S
C678 H703 0.950 . S
C679 C678 1.349 . S
C679 C695 1.349 . S
C680 C678 1.327 . S
C680 C699 1.429 . S
C680 H704 0.950 . S
C681 C698 1.574 . S
C681 C700 1.368 . S
C681 H705 0.949 . S
H682 C686 0.949 . S
C683 C684 1.349 . S
C683 C685 1.327 . S
C683 H706 0.950 . S
C684 C683 1.349 . S
C684 C696 1.349 . S
C685 C683 1.327 . S
C685 C701 1.429 . S
C685 H707 0.950 . S
C686 H682 0.949 . S
C686 C694 1.574 . S
C686 C702 1.368 . S
H687 C695 0.950 . S
H688 C693 0.950 . S
H689 C694 0.949 . S
H690 C696 0.950 . S
H691 C697 0.950 . S
H692 C698 0.949 . S
C693 H688 0.950 . S
C693 C695 1.327 . S
C693 C699 1.429 . S
C694 C686 1.574 . S
C694 H689 0.949 . S
C694 C700 1.368 . S
C695 C679 1.349 . S
C695 H687 0.950 . S
C695 C693 1.327 . S
C696 C684 1.349 . S
C696 H690 0.950 . S
C696 C697 1.327 . S
C697 H691 0.950 . S
C697 C696 1.327 . S
C697 C701 1.429 . S
C698 C681 1.574 . S
C698 H692 0.949 . S
C698 C702 1.368 . S
C699 C680 1.429 . S
C699 C693 1.429 . S
C699 C700 1.523 . S
C700 C681 1.368 . S
C700 C694 1.368 . S
C700 C699 1.523 . S
C701 C685 1.429 . S
C701 C697 1.429 . S
C701 C702 1.523 . S
C702 C686 1.368 . S
C702 C698 1.368 . S
C702 C701 1.523 . S
H703 C678 0.950 . S
H704 C680 0.950 . S
H705 C681 0.949 . S
H706 C683 0.950 . S
H707 C685 0.950 . S
C708 C709 1.349 . S
C708 C710 1.327 . S
C708 H733 0.950 . S
C709 C708 1.349 . S
C709 C725 1.349 . S
C710 C708 1.327 . S
C710 C729 1.429 . S
C710 H734 0.950 . S
C711 C728 1.574 . S
C711 C730 1.368 . S
C711 H735 0.949 . S
H712 C716 0.949 . S
C713 C714 1.349 . S
C713 C715 1.327 . S
C713 H736 0.950 . S
C714 C713 1.349 . S
C714 C726 1.349 . S
C715 C713 1.327 . S
C715 C731 1.429 . S
C715 H737 0.950 . S
C716 H712 0.949 . S
C716 C724 1.574 . S
C716 C732 1.368 . S
H717 C725 0.950 . S
H718 C723 0.950 . S
H719 C724 0.949 . S
H720 C726 0.950 . S
H721 C727 0.950 . S
H722 C728 0.949 . S
C723 H718 0.950 . S
C723 C725 1.327 . S
C723 C729 1.429 . S
C724 C716 1.574 . S
C724 H719 0.949 . S
C724 C730 1.368 . S
C725 C709 1.349 . S
C725 H717 0.950 . S
C725 C723 1.327 . S
C726 C714 1.349 . S
C726 H720 0.950 . S
C726 C727 1.327 . S
C727 H721 0.950 . S
C727 C726 1.327 . S
C727 C731 1.429 . S
C728 C711 1.574 . S
C728 H722 0.949 . S
C728 C732 1.368 . S
C729 C710 1.429 . S
C729 C723 1.429 . S
C729 C730 1.523 . S
C730 C711 1.368 . S
C730 C724 1.368 . S
C730 C729 1.523 . S
C731 C715 1.429 . S
C731 C727 1.429 . S
C731 C732 1.523 . S
C732 C716 1.368 . S
C732 C728 1.368 . S
C732 C731 1.523 . S
H733 C708 0.950 . S
H734 C710 0.950 . S
H735 C711 0.949 . S
H736 C713 0.950 . S
H737 C715 0.950 . S
C738 C739 1.349 . S
C738 C740 1.327 . S
C738 H763 0.950 . S
C739 C738 1.349 . S
C739 C755 1.349 . S
C740 C738 1.327 . S
C740 C759 1.429 . S
C740 H764 0.950 . S
C741 C758 1.574 . S
C741 C760 1.368 . S
C741 H765 0.949 . S
H742 C746 0.949 . S
C743 C744 1.349 . S
C743 C745 1.327 . S
C743 H766 0.950 . S
C744 C743 1.349 . S
C744 C756 1.349 . S
C745 C743 1.327 . S
C745 C761 1.429 . S
C745 H767 0.950 . S
C746 H742 0.949 . S
C746 C754 1.574 . S
C746 C762 1.368 . S
H747 C755 0.950 . S
H748 C753 0.950 . S
H749 C754 0.949 . S
H750 C756 0.950 . S
H751 C757 0.950 . S
H752 C758 0.949 . S
C753 H748 0.950 . S
C753 C755 1.327 . S
C753 C759 1.429 . S
C754 C746 1.574 . S
C754 H749 0.949 . S
C754 C760 1.368 . S
C755 C739 1.349 . S
C755 H747 0.950 . S
C755 C753 1.327 . S
C756 C744 1.349 . S
C756 H750 0.950 . S
C756 C757 1.327 . S
C757 H751 0.950 . S
C757 C756 1.327 . S
C757 C761 1.429 . S
C758 C741 1.574 . S
C758 H752 0.949 . S
C758 C762 1.368 . S
C759 C740 1.429 . S
C759 C753 1.429 . S
C759 C760 1.523 . S
C760 C741 1.368 . S
C760 C754 1.368 . S
C760 C759 1.523 . S
C761 C745 1.429 . S
C761 C757 1.429 . S
C761 C762 1.523 . S
C762 C746 1.368 . S
C762 C758 1.368 . S
C762 C761 1.523 . S
H763 C738 0.950 . S
H764 C740 0.950 . S
H765 C741 0.949 . S
H766 C743 0.950 . S
H767 C745 0.950 . S
C768 C769 1.349 . S
C768 C770 1.327 . S
C768 H793 0.950 . S
C769 C768 1.349 . S
C769 C785 1.349 . S
C770 C768 1.327 . S
C770 C789 1.429 . S
C770 H794 0.950 . S
C771 C788 1.574 . S
C771 C790 1.368 . S
C771 H795 0.949 . S
H772 C776 0.949 . S
C773 C774 1.349 . S
C773 C775 1.327 . S
C773 H796 0.950 . S
C774 C773 1.349 . S
C774 C786 1.349 . S
C775 C773 1.327 . S
C775 C791 1.429 . S
C775 H797 0.950 . S
C776 H772 0.949 . S
C776 C784 1.574 . S
C776 C792 1.368 . S
H777 C785 0.950 . S
H778 C783 0.950 . S
H779 C784 0.949 . S
H780 C786 0.950 . S
H781 C787 0.950 . S
H782 C788 0.949 . S
C783 H778 0.950 . S
C783 C785 1.327 . S
C783 C789 1.429 . S
C784 C776 1.574 . S
C784 H779 0.949 . S
C784 C790 1.368 1_455 S
C785 C769 1.349 . S
C785 H777 0.950 . S
C785 C783 1.327 . S
C786 C774 1.349 . S
C786 H780 0.950 . S
C786 C787 1.327 . S
C787 H781 0.950 . S
C787 C786 1.327 . S
C787 C791 1.429 . S
C788 C771 1.574 . S
C788 H782 0.949 . S
C788 C792 1.368 1_655 S
C789 C770 1.429 . S
C789 C783 1.429 . S
C789 C790 1.523 . S
C790 C771 1.368 . S
C790 C784 1.368 1_655 S
C790 C789 1.523 . S
C791 C775 1.429 . S
C791 C787 1.429 . S
C791 C792 1.523 . S
C792 C776 1.368 . S
C792 C788 1.368 1_455 S
C792 C791 1.523 . S
H793 C768 0.950 . S
H794 C770 0.950 . S
H795 C771 0.949 . S
H796 C773 0.950 . S
H797 C775 0.950 . S
C798 C799 1.349 . S
C798 C800 1.327 . S
C798 H823 0.950 . S
C799 C798 1.349 . S
C799 C815 1.349 . S
C800 C798 1.327 . S
C800 C819 1.429 . S
C800 H824 0.950 . S
C801 C818 1.574 . S
C801 C820 1.368 . S
C801 H825 0.949 . S
H802 C806 0.949 . S
C803 C804 1.349 . S
C803 C805 1.327 . S
C803 H826 0.950 . S
C804 C803 1.349 . S
C804 C816 1.349 . S
C805 C803 1.327 . S
C805 C821 1.429 . S
C805 H827 0.950 . S
C806 H802 0.949 . S
C806 C814 1.574 . S
C806 C822 1.368 . S
H807 C815 0.950 . S
H808 C813 0.950 . S
H809 C814 0.949 . S
H810 C816 0.950 . S
H811 C817 0.950 . S
H812 C818 0.949 . S
C813 H808 0.950 . S
C813 C815 1.327 . S
C813 C819 1.429 . S
C814 C806 1.574 . S
C814 H809 0.949 . S
C814 C820 1.368 1_565 S
C815 C799 1.349 . S
C815 H807 0.950 . S
C815 C813 1.327 . S
C816 C804 1.349 . S
C816 H810 0.950 . S
C816 C817 1.327 . S
C817 H811 0.950 . S
C817 C816 1.327 . S
C817 C821 1.429 . S
C818 C801 1.574 . S
C818 H812 0.949 . S
C818 C822 1.368 1_545 S
C819 C800 1.429 . S
C819 C813 1.429 . S
C819 C820 1.523 . S
C820 C801 1.368 . S
C820 C814 1.368 1_545 S
C820 C819 1.523 . S
C821 C805 1.429 . S
C821 C817 1.429 . S
C821 C822 1.523 . S
C822 C806 1.368 . S
C822 C818 1.368 1_565 S
C822 C821 1.523 . S
H823 C798 0.950 . S
H824 C800 0.950 . S
H825 C801 0.949 . S
H826 C803 0.950 . S
H827 C805 0.950 . S
C828 C829 1.349 . S
C828 C830 1.327 . S
C828 H853 0.950 . S
C829 C828 1.349 . S
C829 C845 1.353 . S
C830 C828 1.327 . S
C830 C849 1.429 . S
C830 H854 0.950 . S
C831 C848 1.574 . S
C831 C850 1.368 1_556 S
C831 H855 0.949 . S
H832 C836 0.949 . S
C833 C834 1.353 . S
C833 C835 1.327 1_554 S
C833 H856 0.945 1_554 S
C834 C833 1.353 . S
C834 C846 1.349 . S
C835 C833 1.327 1_556 S
C835 C851 1.423 1_556 S
C835 H857 0.955 . S
C836 H832 0.949 . S
C836 C844 1.574 . S
C836 C852 1.368 . S
H837 C845 0.945 1_556 S
H838 C843 0.955 . S
H839 C844 0.949 . S
H840 C846 0.950 . S
H841 C847 0.950 . S
H842 C848 0.949 . S
C843 H838 0.955 . S
C843 C845 1.327 1_556 S
C843 C849 1.423 1_556 S
C844 C836 1.574 . S
C844 H839 0.949 . S
C844 C850 1.368 . S
C845 C829 1.353 . S
C845 H837 0.945 1_554 S
C845 C843 1.327 1_554 S
C846 C834 1.349 . S
C846 H840 0.950 . S
C846 C847 1.327 . S
C847 H841 0.950 . S
C847 C846 1.327 . S
C847 C851 1.429 . S
C848 C831 1.574 . S
C848 H842 0.949 . S
C848 C852 1.368 1_556 S
C849 C830 1.429 . S
C849 C843 1.423 1_554 S
C849 C850 1.523 . S
C850 C831 1.368 1_554 S
C850 C844 1.368 . S
C850 C849 1.523 . S
C851 C835 1.423 1_554 S
C851 C847 1.429 . S
C851 C852 1.523 . S
C852 C836 1.368 . S
C852 C848 1.368 1_554 S
C852 C851 1.523 . S
H853 C828 0.950 . S
H854 C830 0.950 . S
H855 C831 0.949 . S
H856 C833 0.945 1_556 S
H857 C835 0.955 . S
C858 C859 1.349 . S
C858 C860 1.327 . S
C858 H883 0.950 . S
C859 C858 1.349 . S
C859 C875 1.349 . S
C860 C858 1.327 . S
C860 C879 1.429 . S
C860 H884 0.950 . S
C861 C878 1.574 . S
C861 C880 1.368 1_545 S
C861 H885 0.949 . S
H862 C866 0.949 . S
C863 C864 1.349 . S
C863 C865 1.327 . S
C863 H886 0.950 . S
C864 C863 1.349 . S
C864 C876 1.349 . S
C865 C863 1.327 . S
C865 C881 1.429 . S
C865 H887 0.950 . S
C866 H862 0.949 . S
C866 C874 1.574 . S
C866 C882 1.368 1_565 S
H867 C875 0.950 . S
H868 C873 0.950 . S
H869 C874 0.949 . S
H870 C876 0.950 . S
H871 C877 0.950 . S
H872 C878 0.949 . S
C873 H868 0.950 . S
C873 C875 1.327 . S
C873 C879 1.429 . S
C874 C866 1.574 . S
C874 H869 0.949 . S
C874 C880 1.368 . S
C875 C859 1.349 . S
C875 H867 0.950 . S
C875 C873 1.327 . S
C876 C864 1.349 . S
C876 H870 0.950 . S
C876 C877 1.327 . S
C877 H871 0.950 . S
C877 C876 1.327 . S
C877 C881 1.429 . S
C878 C861 1.574 . S
C878 H872 0.949 . S
C878 C882 1.368 . S
C879 C860 1.429 . S
C879 C873 1.429 . S
C879 C880 1.523 . S
C880 C861 1.368 1_565 S
C880 C874 1.368 . S
C880 C879 1.523 . S
C881 C865 1.429 . S
C881 C877 1.429 . S
C881 C882 1.523 . S
C882 C866 1.368 1_545 S
C882 C878 1.368 . S
C882 C881 1.523 . S
H883 C858 0.950 . S
H884 C860 0.950 . S
H885 C861 0.949 . S
H886 C863 0.950 . S
H887 C865 0.950 . S
C888 C889 1.349 . S
C888 C890 1.327 . S
C888 H913 0.950 . S
C889 C888 1.349 . S
C889 C905 1.349 . S
C890 C888 1.327 . S
C890 C909 1.429 . S
C890 H914 0.950 . S
C891 C908 1.574 . S
C891 C910 1.368 . S
C891 H915 0.949 . S
H892 C896 0.949 . S
C893 C894 1.349 . S
C893 C895 1.327 . S
C893 H916 0.950 . S
C894 C893 1.349 . S
C894 C906 1.349 . S
C895 C893 1.327 . S
C895 C911 1.429 . S
C895 H917 0.950 . S
C896 H892 0.949 . S
C896 C904 1.574 . S
C896 C912 1.368 . S
H897 C905 0.950 . S
H898 C903 0.950 . S
H899 C904 0.949 . S
H900 C906 0.950 . S
H901 C907 0.950 . S
H902 C908 0.949 . S
C903 H898 0.950 . S
C903 C905 1.327 . S
C903 C909 1.429 . S
C904 C896 1.574 . S
C904 H899 0.949 . S
C904 C910 1.368 . S
C905 C889 1.349 . S
C905 H897 0.950 . S
C905 C903 1.327 . S
C906 C894 1.349 . S
C906 H900 0.950 . S
C906 C907 1.327 . S
C907 H901 0.950 . S
C907 C906 1.327 . S
C907 C911 1.429 . S
C908 C891 1.574 . S
C908 H902 0.949 . S
C908 C912 1.368 . S
C909 C890 1.429 . S
C909 C903 1.429 . S
C909 C910 1.523 . S
C910 C891 1.368 . S
C910 C904 1.368 . S
C910 C909 1.523 . S
C911 C895 1.429 . S
C911 C907 1.429 . S
C911 C912 1.523 . S
C912 C896 1.368 . S
C912 C908 1.368 . S
C912 C911 1.523 . S
H913 C888 0.950 . S
H914 C890 0.950 . S
H915 C891 0.949 . S
H916 C893 0.950 . S
H917 C895 0.950 . S
C918 C919 1.353 . S
C918 C920 1.327 1_556 S
C918 H943 0.945 1_556 S
C919 C918 1.353 . S
C919 C935 1.349 . S
C920 C918 1.327 1_554 S
C920 C939 1.423 1_554 S
C920 H944 0.955 . S
C921 C938 1.574 . S
C921 C940 1.368 . S
C921 H945 0.949 . S
H922 C926 0.949 . S
C923 C924 1.349 . S
C923 C925 1.327 . S
C923 H946 0.950 . S
C924 C923 1.349 . S
C924 C936 1.353 . S
C925 C923 1.327 . S
C925 C941 1.429 . S
C925 H947 0.950 . S
C926 H922 0.949 . S
C926 C934 1.574 . S
C926 C942 1.368 1_554 S
H927 C935 0.950 . S
H928 C933 0.950 . S
H929 C934 0.949 . S
H930 C936 0.945 1_554 S
H931 C937 0.955 . S
H932 C938 0.949 . S
C933 H928 0.950 . S
C933 C935 1.327 . S
C933 C939 1.429 . S
C934 C926 1.574 . S
C934 H929 0.949 . S
C934 C940 1.368 1_454 S
C935 C919 1.349 . S
C935 H927 0.950 . S
C935 C933 1.327 . S
C936 C924 1.353 . S
C936 H930 0.945 1_556 S
C936 C937 1.327 1_556 S
C937 H931 0.955 . S
C937 C936 1.327 1_554 S
C937 C941 1.423 1_554 S
C938 C921 1.574 . S
C938 H932 0.949 . S
C938 C942 1.368 1_655 S
C939 C920 1.423 1_556 S
C939 C933 1.429 . S
C939 C940 1.523 . S
C940 C921 1.368 . S
C940 C934 1.368 1_656 S
C940 C939 1.523 . S
C941 C925 1.429 . S
C941 C937 1.423 1_556 S
C941 C942 1.523 . S
C942 C926 1.368 1_556 S
C942 C938 1.368 1_455 S
C942 C941 1.523 . S
H943 C918 0.945 1_554 S
H944 C920 0.955 . S
H945 C921 0.949 . S
H946 C923 0.950 . S
H947 C925 0.950 . S
C948 C949 1.349 . S
C948 C950 1.327 . S
C948 H973 0.950 . S
C949 C948 1.349 . S
C949 C965 1.349 . S
C950 C948 1.327 . S
C950 C969 1.429 . S
C950 H974 0.950 . S
C951 C968 1.574 . S
C951 C970 1.368 . S
C951 H975 0.949 . S
H952 C956 0.949 . S
C953 C954 1.349 . S
C953 C955 1.327 . S
C953 H976 0.950 . S
C954 C953 1.349 . S
C954 C966 1.349 . S
C955 C953 1.327 . S
C955 C971 1.429 . S
C955 H977 0.950 . S
C956 H952 0.949 . S
C956 C964 1.574 . S
C956 C972 1.368 . S
H957 C965 0.950 . S
H958 C963 0.950 . S
H959 C964 0.949 . S
H960 C966 0.950 . S
H961 C967 0.950 . S
H962 C968 0.949 . S
C963 H958 0.950 . S
C963 C965 1.327 . S
C963 C969 1.429 . S
C964 C956 1.574 . S
C964 H959 0.949 . S
C964 C970 1.368 . S
C965 C949 1.349 . S
C965 H957 0.950 . S
C965 C963 1.327 . S
C966 C954 1.349 . S
C966 H960 0.950 . S
C966 C967 1.327 . S
C967 H961 0.950 . S
C967 C966 1.327 . S
C967 C971 1.429 . S
C968 C951 1.574 . S
C968 H962 0.949 . S
C968 C972 1.368 . S
C969 C950 1.429 . S
C969 C963 1.429 . S
C969 C970 1.523 . S
C970 C951 1.368 . S
C970 C964 1.368 . S
C970 C969 1.523 . S
C971 C955 1.429 . S
C971 C967 1.429 . S
C971 C972 1.523 . S
C972 C956 1.368 . S
C972 C968 1.368 . S
C972 C971 1.523 . S
H973 C948 0.950 . S
H974 C950 0.950 . S
H975 C951 0.949 . S
H976 C953 0.950 . S
H977 C955 0.950 . S
C978 C979 1.349 . S
C978 C980 1.327 . S
C978 H1003 0.950 . S
C979 C978 1.349 . S
C979 C995 1.349 . S
C980 C978 1.327 . S
C980 C999 1.429 . S
C980 H1004 0.950 . S
C981 C998 1.574 1_655 S
C981 C1000 1.368 . S
C981 H1005 0.949 . S
H982 C986 0.949 . S
C983 C984 1.349 . S
C983 C985 1.327 . S
C983 H1006 0.950 . S
C984 C983 1.349 . S
C984 C996 1.349 . S
C985 C983 1.327 . S
C985 C1001 1.429 . S
C985 H1007 0.950 . S
C986 H982 0.949 . S
C986 C994 1.574 1_455 S
C986 C1002 1.368 . S
H987 C995 0.950 . S
H988 C993 0.950 . S
H989 C994 0.949 . S
H990 C996 0.950 . S
H991 C997 0.950 . S
H992 C998 0.949 . S
C993 H988 0.950 . S
C993 C995 1.327 . S
C993 C999 1.429 . S
C994 C986 1.574 1_655 S
C994 H989 0.949 . S
C994 C1000 1.368 . S
C995 C979 1.349 . S
C995 H987 0.950 . S
C995 C993 1.327 . S
C996 C984 1.349 . S
C996 H990 0.950 . S
C996 C997 1.327 . S
C997 H991 0.950 . S
C997 C996 1.327 . S
C997 C1001 1.429 . S
C998 C981 1.574 1_455 S
C998 H992 0.949 . S
C998 C1002 1.368 . S
C999 C980 1.429 . S
C999 C993 1.429 . S
C999 C1000 1.523 . S
C1000 C981 1.368 . S
C1000 C994 1.368 . S
C1000 C999 1.523 . S
C1001 C985 1.429 . S
C1001 C997 1.429 . S
C1001 C1002 1.523 . S
C1002 C986 1.368 . S
C1002 C998 1.368 . S
C1002 C1001 1.523 . S
H1003 C978 0.950 . S
H1004 C980 0.950 . S
H1005 C981 0.949 . S
H1006 C983 0.950 . S
H1007 C985 0.950 . S
C1008 C1009 1.349 . S
C1008 C1010 1.327 . S
C1008 H1033 0.950 . S
C1009 C1008 1.349 . S
C1009 C1025 1.349 1_554 S
C1010 C1008 1.327 . S
C1010 C1029 1.429 . S
C1010 H1034 0.950 . S
C1011 C1028 1.574 1_545 S
C1011 C1030 1.368 1_556 S
C1011 H1035 0.949 . S
H1012 C1016 0.949 . S
C1013 C1014 1.349 . S
C1013 C1015 1.327 . S
C1013 H1036 0.950 . S
C1014 C1013 1.349 . S
C1014 C1026 1.349 1_556 S
C1015 C1013 1.327 . S
C1015 C1031 1.429 . S
C1015 H1037 0.950 . S
C1016 H1012 0.949 . S
C1016 C1024 1.574 1_565 S
C1016 C1032 1.368 1_554 S
H1017 C1025 0.950 . S
H1018 C1023 0.950 . S
H1019 C1024 0.949 . S
H1020 C1026 0.950 . S
H1021 C1027 0.950 . S
H1022 C1028 0.949 . S
C1023 H1018 0.950 . S
C1023 C1025 1.327 . S
C1023 C1029 1.429 1_556 S
C1024 C1016 1.574 1_545 S
C1024 H1019 0.949 . S
C1024 C1030 1.368 . S
C1025 C1009 1.349 1_556 S
C1025 H1017 0.950 . S
C1025 C1023 1.327 . S
C1026 C1014 1.349 1_554 S
C1026 H1020 0.950 . S
C1026 C1027 1.327 . S
C1027 H1021 0.950 . S
C1027 C1026 1.327 . S
C1027 C1031 1.429 1_554 S
C1028 C1011 1.574 1_565 S
C1028 H1022 0.949 . S
C1028 C1032 1.368 . S
C1029 C1010 1.429 . S
C1029 C1023 1.429 1_554 S
C1029 C1030 1.523 . S
C1030 C1011 1.368 1_554 S
C1030 C1024 1.368 . S
C1030 C1029 1.523 . S
C1031 C1015 1.429 . S
C1031 C1027 1.429 1_556 S
C1031 C1032 1.523 . S
C1032 C1016 1.368 1_556 S
C1032 C1028 1.368 . S
C1032 C1031 1.523 . S
H1033 C1008 0.950 . S
H1034 C1010 0.950 . S
H1035 C1011 0.949 . S
H1036 C1013 0.950 . S
H1037 C1015 0.950 . S
C1038 C1039 1.349 . S
C1038 C1040 1.327 . S
C1038 H1063 0.950 . S
C1039 C1038 1.349 . S
C1039 C1055 1.349 . S
C1040 C1038 1.327 . S
C1040 C1059 1.429 . S
C1040 H1064 0.950 . S
C1041 C1058 1.574 . S
C1041 C1060 1.368 . S
C1041 H1065 0.949 . S
H1042 C1046 0.949 . S
C1043 C1044 1.349 . S
C1043 C1045 1.327 . S
C1043 H1066 0.950 . S
C1044 C1043 1.349 . S
C1044 C1056 1.349 . S
C1045 C1043 1.327 . S
C1045 C1061 1.429 . S
C1045 H1067 0.950 . S
C1046 H1042 0.949 . S
C1046 C1054 1.574 . S
C1046 C1062 1.368 . S
H1047 C1055 0.950 . S
H1048 C1053 0.950 . S
H1049 C1054 0.949 . S
H1050 C1056 0.950 . S
H1051 C1057 0.950 . S
H1052 C1058 0.949 . S
C1053 H1048 0.950 . S
C1053 C1055 1.327 . S
C1053 C1059 1.429 . S
C1054 C1046 1.574 . S
C1054 H1049 0.949 . S
C1054 C1060 1.368 . S
C1055 C1039 1.349 . S
C1055 H1047 0.950 . S
C1055 C1053 1.327 . S
C1056 C1044 1.349 . S
C1056 H1050 0.950 . S
C1056 C1057 1.327 . S
C1057 H1051 0.950 . S
C1057 C1056 1.327 . S
C1057 C1061 1.429 . S
C1058 C1041 1.574 . S
C1058 H1052 0.949 . S
C1058 C1062 1.368 . S
C1059 C1040 1.429 . S
C1059 C1053 1.429 . S
C1059 C1060 1.523 . S
C1060 C1041 1.368 . S
C1060 C1054 1.368 . S
C1060 C1059 1.523 . S
C1061 C1045 1.429 . S
C1061 C1057 1.429 . S
C1061 C1062 1.523 . S
C1062 C1046 1.368 . S
C1062 C1058 1.368 . S
C1062 C1061 1.523 . S
H1063 C1038 0.950 . S
H1064 C1040 0.950 . S
H1065 C1041 0.949 . S
H1066 C1043 0.950 . S
H1067 C1045 0.950 . S
C1068 C1069 1.349 . S
C1068 C1070 1.327 . S
C1068 H1093 0.950 . S
C1069 C1068 1.349 . S
C1069 C1085 1.349 . S
C1070 C1068 1.327 . S
C1070 C1089 1.429 . S
C1070 H1094 0.950 . S
C1071 C1088 1.574 1_455 S
C1071 C1090 1.368 . S
C1071 H1095 0.949 . S
H1072 C1076 0.949 . S
C1073 C1074 1.349 . S
C1073 C1075 1.327 . S
C1073 H1096 0.950 . S
C1074 C1073 1.349 . S
C1074 C1086 1.349 . S
C1075 C1073 1.327 . S
C1075 C1091 1.429 . S
C1075 H1097 0.950 . S
C1076 H1072 0.949 . S
C1076 C1084 1.574 1_655 S
C1076 C1092 1.368 . S
H1077 C1085 0.950 . S
H1078 C1083 0.950 . S
H1079 C1084 0.949 . S
H1080 C1086 0.950 . S
H1081 C1087 0.950 . S
H1082 C1088 0.949 . S
C1083 H1078 0.950 . S
C1083 C1085 1.327 . S
C1083 C1089 1.429 . S
C1084 C1076 1.574 1_455 S
C1084 H1079 0.949 . S
C1084 C1090 1.368 . S
C1085 C1069 1.349 . S
C1085 H1077 0.950 . S
C1085 C1083 1.327 . S
C1086 C1074 1.349 . S
C1086 H1080 0.950 . S
C1086 C1087 1.327 . S
C1087 H1081 0.950 . S
C1087 C1086 1.327 . S
C1087 C1091 1.429 . S
C1088 C1071 1.574 1_655 S
C1088 H1082 0.949 . S
C1088 C1092 1.368 . S
C1089 C1070 1.429 . S
C1089 C1083 1.429 . S
C1089 C1090 1.523 . S
C1090 C1071 1.368 . S
C1090 C1084 1.368 . S
C1090 C1089 1.523 . S
C1091 C1075 1.429 . S
C1091 C1087 1.429 . S
C1091 C1092 1.523 . S
C1092 C1076 1.368 . S
C1092 C1088 1.368 . S
C1092 C1091 1.523 . S
H1093 C1068 0.950 . S
H1094 C1070 0.950 . S
H1095 C1071 0.949 . S
H1096 C1073 0.950 . S
H1097 C1075 0.950 . S
C1098 C1099 1.349 1_554 S
C1098 C1100 1.327 . S
C1098 H1123 0.950 . S
C1099 C1098 1.349 1_556 S
C1099 C1115 1.349 . S
C1100 C1098 1.327 . S
C1100 C1119 1.429 1_554 S
C1100 H1124 0.950 . S
C1101 C1118 1.574 1_545 S
C1101 C1120 1.368 . S
C1101 H1125 0.949 . S
H1102 C1106 0.949 . S
C1103 C1104 1.349 1_556 S
C1103 C1105 1.327 . S
C1103 H1126 0.950 . S
C1104 C1103 1.349 1_554 S
C1104 C1116 1.349 . S
C1105 C1103 1.327 . S
C1105 C1121 1.429 1_556 S
C1105 H1127 0.950 . S
C1106 H1102 0.949 . S
C1106 C1114 1.574 1_565 S
C1106 C1122 1.368 . S
H1107 C1115 0.950 . S
H1108 C1113 0.950 . S
H1109 C1114 0.949 . S
H1110 C1116 0.950 . S
H1111 C1117 0.950 . S
H1112 C1118 0.949 . S
C1113 H1108 0.950 . S
C1113 C1115 1.327 . S
C1113 C1119 1.429 . S
C1114 C1106 1.574 1_545 S
C1114 H1109 0.949 . S
C1114 C1120 1.368 1_554 S
C1115 C1099 1.349 . S
C1115 H1107 0.950 . S
C1115 C1113 1.327 . S
C1116 C1104 1.349 . S
C1116 H1110 0.950 . S
C1116 C1117 1.327 . S
C1117 H1111 0.950 . S
C1117 C1116 1.327 . S
C1117 C1121 1.429 . S
C1118 C1101 1.574 1_565 S
C1118 H1112 0.949 . S
C1118 C1122 1.368 1_556 S
C1119 C1100 1.429 1_556 S
C1119 C1113 1.429 . S
C1119 C1120 1.523 . S
C1120 C1101 1.368 . S
C1120 C1114 1.368 1_556 S
C1120 C1119 1.523 . S
C1121 C1105 1.429 1_554 S
C1121 C1117 1.429 . S
C1121 C1122 1.523 . S
C1122 C1106 1.368 . S
C1122 C1118 1.368 1_554 S
C1122 C1121 1.523 . S
H1123 C1098 0.950 . S
H1124 C1100 0.950 . S
H1125 C1101 0.949 . S
H1126 C1103 0.950 . S
H1127 C1105 0.950 . S
C1128 C1129 1.349 . S
C1128 C1130 1.327 . S
C1128 H1153 0.950 . S
C1129 C1128 1.349 . S
C1129 C1145 1.349 . S
C1130 C1128 1.327 . S
C1130 C1149 1.429 . S
C1130 H1154 0.950 . S
C1131 C1148 1.574 . S
C1131 C1150 1.368 . S
C1131 H1155 0.949 . S
H1132 C1136 0.949 . S
C1133 C1134 1.349 . S
C1133 C1135 1.327 . S
C1133 H1156 0.950 . S
C1134 C1133 1.349 . S
C1134 C1146 1.349 . S
C1135 C1133 1.327 . S
C1135 C1151 1.429 . S
C1135 H1157 0.950 . S
C1136 H1132 0.949 . S
C1136 C1144 1.574 . S
C1136 C1152 1.368 . S
H1137 C1145 0.950 . S
H1138 C1143 0.950 . S
H1139 C1144 0.949 . S
H1140 C1146 0.950 . S
H1141 C1147 0.950 . S
H1142 C1148 0.949 . S
C1143 H1138 0.950 . S
C1143 C1145 1.327 . S
C1143 C1149 1.429 . S
C1144 C1136 1.574 . S
C1144 H1139 0.949 . S
C1144 C1150 1.368 . S
C1145 C1129 1.349 . S
C1145 H1137 0.950 . S
C1145 C1143 1.327 . S
C1146 C1134 1.349 . S
C1146 H1140 0.950 . S
C1146 C1147 1.327 . S
C1147 H1141 0.950 . S
C1147 C1146 1.327 . S
C1147 C1151 1.429 . S
C1148 C1131 1.574 . S
C1148 H1142 0.949 . S
C1148 C1152 1.368 . S
C1149 C1130 1.429 . S
C1149 C1143 1.429 . S
C1149 C1150 1.523 . S
C1150 C1131 1.368 . S
C1150 C1144 1.368 . S
C1150 C1149 1.523 . S
C1151 C1135 1.429 . S
C1151 C1147 1.429 . S
C1151 C1152 1.523 . S
C1152 C1136 1.368 . S
C1152 C1148 1.368 . S
C1152 C1151 1.523 . S
H1153 C1128 0.950 . S
H1154 C1130 0.950 . S
H1155 C1131 0.949 . S
H1156 C1133 0.950 . S
H1157 C1135 0.950 . S
C1158 C1159 1.349 . S
C1158 C1160 1.327 . S
C1158 H1183 0.950 . S
C1159 C1158 1.349 . S
C1159 C1175 1.349 . S
C1160 C1158 1.327 . S
C1160 C1179 1.429 . S
C1160 H1184 0.950 . S
C1161 C1178 1.574 . S
C1161 C1180 1.368 . S
C1161 H1185 0.949 . S
H1162 C1166 0.949 . S
C1163 C1164 1.349 . S
C1163 C1165 1.327 . S
C1163 H1186 0.950 . S
C1164 C1163 1.349 . S
C1164 C1176 1.349 . S
C1165 C1163 1.327 . S
C1165 C1181 1.429 . S
C1165 H1187 0.950 . S
C1166 H1162 0.949 . S
C1166 C1174 1.574 . S
C1166 C1182 1.368 . S
H1167 C1175 0.950 . S
H1168 C1173 0.950 . S
H1169 C1174 0.949 . S
H1170 C1176 0.950 . S
H1171 C1177 0.950 . S
H1172 C1178 0.949 . S
C1173 H1168 0.950 . S
C1173 C1175 1.327 . S
C1173 C1179 1.429 . S
C1174 C1166 1.574 . S
C1174 H1169 0.949 . S
C1174 C1180 1.368 . S
C1175 C1159 1.349 . S
C1175 H1167 0.950 . S
C1175 C1173 1.327 . S
C1176 C1164 1.349 . S
C1176 H1170 0.950 . S
C1176 C1177 1.327 . S
C1177 H1171 0.950 . S
C1177 C1176 1.327 . S
C1177 C1181 1.429 . S
C1178 C1161 1.574 . S
C1178 H1172 0.949 . S
C1178 C1182 1.368 . S
C1179 C1160 1.429 . S
C1179 C1173 1.429 . S
C1179 C1180 1.523 . S
C1180 C1161 1.368 . S
C1180 C1174 1.368 . S
C1180 C1179 1.523 . S
C1181 C1165 1.429 . S
C1181 C1177 1.429 . S
C1181 C1182 1.523 . S
C1182 C1166 1.368 . S
C1182 C1178 1.368 . S
C1182 C1181 1.523 . S
H1183 C1158 0.950 . S
H1184 C1160 0.950 . S
H1185 C1161 0.949 . S
H1186 C1163 0.950 . S
H1187 C1165 0.950 . S
C1188 C1189 1.349 . S
C1188 C1190 1.327 . S
C1188 H1213 0.950 . S
C1189 C1188 1.349 . S
C1189 C1205 1.349 1_556 S
C1190 C1188 1.327 . S
C1190 C1209 1.429 . S
C1190 H1214 0.950 . S
C1191 C1208 1.574 . S
C1191 C1210 1.346 1_554 S
C1191 H1215 0.949 . S
H1192 C1196 0.949 . S
C1193 C1194 1.349 . S
C1193 C1195 1.327 . S
C1193 H1216 0.950 . S
C1194 C1193 1.349 . S
C1194 C1206 1.349 1_554 S
C1195 C1193 1.327 . S
C1195 C1211 1.429 . S
C1195 H1217 0.950 . S
C1196 H1192 0.949 . S
C1196 C1204 1.574 . S
C1196 C1212 1.351 1_556 S
H1197 C1205 0.950 . S
H1198 C1203 0.950 . S
H1199 C1204 0.949 . S
H1200 C1206 0.950 . S
H1201 C1207 0.950 . S
H1202 C1208 0.949 . S
C1203 H1198 0.950 . S
C1203 C1205 1.327 . S
C1203 C1209 1.429 1_554 S
C1204 C1196 1.574 . S
C1204 H1199 0.949 . S
C1204 C1210 1.391 . S
C1205 C1189 1.349 1_554 S
C1205 H1197 0.950 . S
C1205 C1203 1.327 . S
C1206 C1194 1.349 1_556 S
C1206 H1200 0.950 . S
C1206 C1207 1.327 . S
C1207 H1201 0.950 . S
C1207 C1206 1.327 . S
C1207 C1211 1.429 1_556 S
C1208 C1191 1.574 . S
C1208 H1202 0.949 . S
C1208 C1212 1.385 . S
C1209 C1190 1.429 . S
C1209 C1203 1.429 1_556 S
C1209 C1210 1.525 . S
C1210 C1191 1.346 1_556 S
C1210 C1204 1.391 . S
C1210 C1209 1.525 . S
C1211 C1195 1.429 . S
C1211 C1207 1.429 1_554 S
C1211 C1212 1.524 . S
C1212 C1196 1.351 1_554 S
C1212 C1208 1.385 . S
C1212 C1211 1.524 . S
H1213 C1188 0.950 . S
H1214 C1190 0.950 . S
H1215 C1191 0.949 . S
H1216 C1193 0.950 . S
H1217 C1195 0.950 . S
C1218 C1219 1.349 . S
C1218 C1220 1.327 . S
C1218 H1243 0.950 . S
C1219 C1218 1.349 . S
C1219 C1235 1.349 . S
C1220 C1218 1.327 . S
C1220 C1239 1.429 . S
C1220 H1244 0.950 . S
C1221 C1238 1.574 . S
C1221 C1240 1.368 . S
C1221 H1245 0.949 . S
H1222 C1226 0.949 . S
C1223 C1224 1.349 . S
C1223 C1225 1.327 . S
C1223 H1246 0.950 . S
C1224 C1223 1.349 . S
C1224 C1236 1.349 . S
C1225 C1223 1.327 . S
C1225 C1241 1.429 . S
C1225 H1247 0.950 . S
C1226 H1222 0.949 . S
C1226 C1234 1.574 . S
C1226 C1242 1.368 . S
H1227 C1235 0.950 . S
H1228 C1233 0.950 . S
H1229 C1234 0.949 . S
H1230 C1236 0.950 . S
H1231 C1237 0.950 . S
H1232 C1238 0.949 . S
C1233 H1228 0.950 . S
C1233 C1235 1.327 . S
C1233 C1239 1.429 . S
C1234 C1226 1.574 . S
C1234 H1229 0.949 . S
C1234 C1240 1.368 . S
C1235 C1219 1.349 . S
C1235 H1227 0.950 . S
C1235 C1233 1.327 . S
C1236 C1224 1.349 . S
C1236 H1230 0.950 . S
C1236 C1237 1.327 . S
C1237 H1231 0.950 . S
C1237 C1236 1.327 . S
C1237 C1241 1.429 . S
C1238 C1221 1.574 . S
C1238 H1232 0.949 . S
C1238 C1242 1.368 . S
C1239 C1220 1.429 . S
C1239 C1233 1.429 . S
C1239 C1240 1.523 . S
C1240 C1221 1.368 . S
C1240 C1234 1.368 . S
C1240 C1239 1.523 . S
C1241 C1225 1.429 . S
C1241 C1237 1.429 . S
C1241 C1242 1.523 . S
C1242 C1226 1.368 . S
C1242 C1238 1.368 . S
C1242 C1241 1.523 . S
H1243 C1218 0.950 . S
H1244 C1220 0.950 . S
H1245 C1221 0.949 . S
H1246 C1223 0.950 . S
H1247 C1225 0.950 . S
C1248 C1249 1.349 . S
C1248 C1250 1.327 . S
C1248 H1273 0.950 . S
C1249 C1248 1.349 . S
C1249 C1265 1.349 . S
C1250 C1248 1.327 . S
C1250 C1269 1.429 . S
C1250 H1274 0.950 . S
C1251 C1268 1.574 . S
C1251 C1270 1.368 . S
C1251 H1275 0.949 . S
H1252 C1256 0.949 . S
C1253 C1254 1.349 . S
C1253 C1255 1.327 . S
C1253 H1276 0.950 . S
C1254 C1253 1.349 . S
C1254 C1266 1.349 . S
C1255 C1253 1.327 . S
C1255 C1271 1.429 . S
C1255 H1277 0.950 . S
C1256 H1252 0.949 . S
C1256 C1264 1.574 . S
C1256 C1272 1.368 . S
H1257 C1265 0.950 . S
H1258 C1263 0.950 . S
H1259 C1264 0.949 . S
H1260 C1266 0.950 . S
H1261 C1267 0.950 . S
H1262 C1268 0.949 . S
C1263 H1258 0.950 . S
C1263 C1265 1.327 . S
C1263 C1269 1.429 . S
C1264 C1256 1.574 . S
C1264 H1259 0.949 . S
C1264 C1270 1.368 . S
C1265 C1249 1.349 . S
C1265 H1257 0.950 . S
C1265 C1263 1.327 . S
C1266 C1254 1.349 . S
C1266 H1260 0.950 . S
C1266 C1267 1.327 . S
C1267 H1261 0.950 . S
C1267 C1266 1.327 . S
C1267 C1271 1.429 . S
C1268 C1251 1.574 . S
C1268 H1262 0.949 . S
C1268 C1272 1.368 . S
C1269 C1250 1.429 . S
C1269 C1263 1.429 . S
C1269 C1270 1.523 . S
C1270 C1251 1.368 . S
C1270 C1264 1.368 . S
C1270 C1269 1.523 . S
C1271 C1255 1.429 . S
C1271 C1267 1.429 . S
C1271 C1272 1.523 . S
C1272 C1256 1.368 . S
C1272 C1268 1.368 . S
C1272 C1271 1.523 . S
H1273 C1248 0.950 . S
H1274 C1250 0.950 . S
H1275 C1251 0.949 . S
H1276 C1253 0.950 . S
H1277 C1255 0.950 . S
C1278 C1279 1.349 . S
C1278 C1280 1.327 . S
C1278 H1303 0.950 . S
C1279 C1278 1.349 . S
C1279 C1295 1.349 1_556 S
C1280 C1278 1.327 . S
C1280 C1299 1.429 . S
C1280 H1304 0.950 . S
C1281 C1298 1.574 . S
C1281 C1300 1.346 1_554 S
C1281 H1305 0.949 . S
H1282 C1286 0.949 . S
C1283 C1284 1.349 . S
C1283 C1285 1.327 . S
C1283 H1306 0.950 . S
C1284 C1283 1.349 . S
C1284 C1296 1.349 1_554 S
C1285 C1283 1.327 . S
C1285 C1301 1.429 . S
C1285 H1307 0.950 . S
C1286 H1282 0.949 . S
C1286 C1294 1.574 . S
C1286 C1302 1.351 1_556 S
H1287 C1295 0.950 . S
H1288 C1293 0.950 . S
H1289 C1294 0.949 . S
H1290 C1296 0.950 . S
H1291 C1297 0.950 . S
H1292 C1298 0.949 . S
C1293 H1288 0.950 . S
C1293 C1295 1.327 . S
C1293 C1299 1.429 1_554 S
C1294 C1286 1.574 . S
C1294 H1289 0.949 . S
C1294 C1300 1.391 . S
C1295 C1279 1.349 1_554 S
C1295 H1287 0.950 . S
C1295 C1293 1.327 . S
C1296 C1284 1.349 1_556 S
C1296 H1290 0.950 . S
C1296 C1297 1.327 . S
C1297 H1291 0.950 . S
C1297 C1296 1.327 . S
C1297 C1301 1.429 1_556 S
C1298 C1281 1.574 . S
C1298 H1292 0.949 . S
C1298 C1302 1.385 . S
C1299 C1280 1.429 . S
C1299 C1293 1.429 1_556 S
C1299 C1300 1.525 . S
C1300 C1281 1.346 1_556 S
C1300 C1294 1.391 . S
C1300 C1299 1.525 . S
C1301 C1285 1.429 . S
C1301 C1297 1.429 1_554 S
C1301 C1302 1.524 . S
C1302 C1286 1.351 1_554 S
C1302 C1298 1.385 . S
C1302 C1301 1.524 . S
H1303 C1278 0.950 . S
H1304 C1280 0.950 . S
H1305 C1281 0.949 . S
H1306 C1283 0.950 . S
H1307 C1285 0.950 . S
C409 C394 2.263 . S
C414 C20 2.261 . S
C439 C224 2.406 . S
C444 C54 2.406 . S
C469 C88 2.263 . S
C474 C258 2.261 . S
C499 C292 2.263 . S
C504 C122 2.261 . S
C529 C326 2.406 . S
C534 C156 2.406 . S
C559 C360 2.265 . S
C564 C190 2.259 . S
C589 C2 0.443 . S
C594 C342 0.443 . S
C619 C36 0.635 . S
C624 C376 0.641 . S
C649 C206 0.635 . S
C654 C70 0.641 . S
C679 C240 0.443 . S
C684 C104 0.443 . S
C709 C274 0.636 . S
C714 C138 0.640 . S
C739 C172 0.636 . S
C744 C308 0.641 . S
C769 C111 0.534 . S
C774 C9 0.534 . S
C799 C43 0.539 . S
C804 C145 0.539 . S
C829 C179 0.532 . S
C834 C77 0.532 . S
C859 C213 0.539 . S
C864 C315 0.539 . S
C889 C247 0.534 . S
C894 C349 0.534 . S
C919 C383 0.532 . S
C924 C281 0.532 . S
C949 C5 0.661 . S
C954 C311 0.661 . S
C979 C39 0.661 . S
C984 C345 0.661 . S
C1009 C379 0.635 . S
C1014 C73 0.632 . S
C1039 C107 0.661 . S
C1044 C209 0.661 . S
C1069 C141 0.661 . S
C1074 C243 0.661 . S
C1099 C175 0.635 . S
C1104 C277 0.632 . S
C1129 C237 2.631 . S
C1134 C33 2.631 . S
C1159 C271 2.631 . S
C1164 C67 2.631 . S
C1189 C101 2.559 . S
C1194 C305 2.558 . S
C1219 C339 2.631 . S
C1224 C135 2.631 . S
C1249 C169 2.631 . S
C1254 C373 2.631 . S
C1279 C203 2.559 . S
C1284 C407 2.558 . S
