# Generated by pormake.
# Topology ict, (4)-cn, num edge types: 1
# Building blocks:
#     Node 0, Type 0, BuildingBlock: TATPOV_clean_sbu_0, # of connection points: 4
#     Node 1, Type 0, BuildingBlock: TATPOV_clean_sbu_0, # of connection points: 4
#     Node 2, Type 0, BuildingBlock: TATPOV_clean_sbu_0, # of connection points: 4
#     Node 3, Type 0, BuildingBlock: TATPOV_clean_sbu_0, # of connection points: 4
#     Node 4, Type 0, BuildingBlock: TATPOV_clean_sbu_0, # of connection points: 4
#     Node 5, Type 0, BuildingBlock: TATPOV_clean_sbu_0, # of connection points: 4
#     Node 6, Type 0, BuildingBlock: TATPOV_clean_sbu_0, # of connection points: 4
#     Node 7, Type 0, BuildingBlock: TATPOV_clean_sbu_0, # of connection points: 4
#     Node 8, Type 0, BuildingBlock: TATPOV_clean_sbu_0, # of connection points: 4
#     Node 9, Type 0, BuildingBlock: TATPOV_clean_sbu_0, # of connection points: 4
#     Node 10, Type 0, BuildingBlock: TATPOV_clean_sbu_0, # of connection points: 4
#     Node 11, Type 0, BuildingBlock: TATPOV_clean_sbu_0, # of connection points: 4
#     Node 12, Type 0, BuildingBlock: TATPOV_clean_sbu_0, # of connection points: 4
#     Node 13, Type 0, BuildingBlock: TATPOV_clean_sbu_0, # of connection points: 4
#     Node 14, Type 0, BuildingBlock: TATPOV_clean_sbu_0, # of connection points: 4
#     Node 15, Type 0, BuildingBlock: TATPOV_clean_sbu_0, # of connection points: 4
#     Node 16, Type 0, BuildingBlock: TATPOV_clean_sbu_0, # of connection points: 4
#     Node 17, Type 0, BuildingBlock: TATPOV_clean_sbu_0, # of connection points: 4
#     Node 18, Type 0, BuildingBlock: TATPOV_clean_sbu_0, # of connection points: 4
#     Node 19, Type 0, BuildingBlock: TATPOV_clean_sbu_0, # of connection points: 4
#     Node 20, Type 0, BuildingBlock: TATPOV_clean_sbu_0, # of connection points: 4
#     Node 21, Type 0, BuildingBlock: TATPOV_clean_sbu_0, # of connection points: 4
#     Node 22, Type 0, BuildingBlock: TATPOV_clean_sbu_0, # of connection points: 4
#     Node 23, Type 0, BuildingBlock: TATPOV_clean_sbu_0, # of connection points: 4
#     Node 24, Type 0, BuildingBlock: TATPOV_clean_sbu_0, # of connection points: 4
#     Node 25, Type 0, BuildingBlock: TATPOV_clean_sbu_0, # of connection points: 4
#     Node 26, Type 0, BuildingBlock: TATPOV_clean_sbu_0, # of connection points: 4
#     Node 27, Type 0, BuildingBlock: TATPOV_clean_sbu_0, # of connection points: 4
#     Node 28, Type 0, BuildingBlock: TATPOV_clean_sbu_0, # of connection points: 4
#     Node 29, Type 0, BuildingBlock: TATPOV_clean_sbu_0, # of connection points: 4
#     Node 30, Type 0, BuildingBlock: TATPOV_clean_sbu_0, # of connection points: 4
#     Node 31, Type 0, BuildingBlock: TATPOV_clean_sbu_0, # of connection points: 4
#     Node 32, Type 0, BuildingBlock: TATPOV_clean_sbu_0, # of connection points: 4
#     Node 33, Type 0, BuildingBlock: TATPOV_clean_sbu_0, # of connection points: 4
#     Node 34, Type 0, BuildingBlock: TATPOV_clean_sbu_0, # of connection points: 4
#     Node 35, Type 0, BuildingBlock: TATPOV_clean_sbu_0, # of connection points: 4
#     Edge 36, Type (0, 0), BuildingBlock: ZUJKAS_clean_linker_0, # of connection points: 2
#     Edge 37, Type (0, 0), BuildingBlock: ZUJKAS_clean_linker_0, # of connection points: 2
#     Edge 38, Type (0, 0), BuildingBlock: ZUJKAS_clean_linker_0, # of connection points: 2
#     Edge 39, Type (0, 0), BuildingBlock: ZUJKAS_clean_linker_0, # of connection points: 2
#     Edge 40, Type (0, 0), BuildingBlock: ZUJKAS_clean_linker_0, # of connection points: 2
#     Edge 41, Type (0, 0), BuildingBlock: ZUJKAS_clean_linker_0, # of connection points: 2
#     Edge 42, Type (0, 0), BuildingBlock: ZUJKAS_clean_linker_0, # of connection points: 2
#     Edge 43, Type (0, 0), BuildingBlock: ZUJKAS_clean_linker_0, # of connection points: 2
#     Edge 44, Type (0, 0), BuildingBlock: ZUJKAS_clean_linker_0, # of connection points: 2
#     Edge 45, Type (0, 0), BuildingBlock: ZUJKAS_clean_linker_0, # of connection points: 2
#     Edge 46, Type (0, 0), BuildingBlock: ZUJKAS_clean_linker_0, # of connection points: 2
#     Edge 47, Type (0, 0), BuildingBlock: ZUJKAS_clean_linker_0, # of connection points: 2
#     Edge 48, Type (0, 0), BuildingBlock: ZUJKAS_clean_linker_0, # of connection points: 2
#     Edge 49, Type (0, 0), BuildingBlock: ZUJKAS_clean_linker_0, # of connection points: 2
#     Edge 50, Type (0, 0), BuildingBlock: ZUJKAS_clean_linker_0, # of connection points: 2
#     Edge 51, Type (0, 0), BuildingBlock: ZUJKAS_clean_linker_0, # of connection points: 2
#     Edge 52, Type (0, 0), BuildingBlock: ZUJKAS_clean_linker_0, # of connection points: 2
#     Edge 53, Type (0, 0), BuildingBlock: ZUJKAS_clean_linker_0, # of connection points: 2
#     Edge 54, Type (0, 0), BuildingBlock: ZUJKAS_clean_linker_0, # of connection points: 2
#     Edge 55, Type (0, 0), BuildingBlock: ZUJKAS_clean_linker_0, # of connection points: 2
#     Edge 56, Type (0, 0), BuildingBlock: ZUJKAS_clean_linker_0, # of connection points: 2
#     Edge 57, Type (0, 0), BuildingBlock: ZUJKAS_clean_linker_0, # of connection points: 2
#     Edge 58, Type (0, 0), BuildingBlock: ZUJKAS_clean_linker_0, # of connection points: 2
#     Edge 59, Type (0, 0), BuildingBlock: ZUJKAS_clean_linker_0, # of connection points: 2
#     Edge 60, Type (0, 0), BuildingBlock: ZUJKAS_clean_linker_0, # of connection points: 2
#     Edge 61, Type (0, 0), BuildingBlock: ZUJKAS_clean_linker_0, # of connection points: 2
#     Edge 62, Type (0, 0), BuildingBlock: ZUJKAS_clean_linker_0, # of connection points: 2
#     Edge 63, Type (0, 0), BuildingBlock: ZUJKAS_clean_linker_0, # of connection points: 2
#     Edge 64, Type (0, 0), BuildingBlock: ZUJKAS_clean_linker_0, # of connection points: 2
#     Edge 65, Type (0, 0), BuildingBlock: ZUJKAS_clean_linker_0, # of connection points: 2
#     Edge 66, Type (0, 0), BuildingBlock: ZUJKAS_clean_linker_0, # of connection points: 2
#     Edge 67, Type (0, 0), BuildingBlock: ZUJKAS_clean_linker_0, # of connection points: 2
#     Edge 68, Type (0, 0), BuildingBlock: ZUJKAS_clean_linker_0, # of connection points: 2
#     Edge 69, Type (0, 0), BuildingBlock: ZUJKAS_clean_linker_0, # of connection points: 2
#     Edge 70, Type (0, 0), BuildingBlock: ZUJKAS_clean_linker_0, # of connection points: 2
#     Edge 71, Type (0, 0), BuildingBlock: ZUJKAS_clean_linker_0, # of connection points: 2
#     Edge 72, Type (0, 0), BuildingBlock: ZUJKAS_clean_linker_0, # of connection points: 2
#     Edge 73, Type (0, 0), BuildingBlock: ZUJKAS_clean_linker_0, # of connection points: 2
#     Edge 74, Type (0, 0), BuildingBlock: ZUJKAS_clean_linker_0, # of connection points: 2
#     Edge 75, Type (0, 0), BuildingBlock: ZUJKAS_clean_linker_0, # of connection points: 2
#     Edge 76, Type (0, 0), BuildingBlock: ZUJKAS_clean_linker_0, # of connection points: 2
#     Edge 77, Type (0, 0), BuildingBlock: ZUJKAS_clean_linker_0, # of connection points: 2
#     Edge 78, Type (0, 0), BuildingBlock: ZUJKAS_clean_linker_0, # of connection points: 2
#     Edge 79, Type (0, 0), BuildingBlock: ZUJKAS_clean_linker_0, # of connection points: 2
#     Edge 80, Type (0, 0), BuildingBlock: ZUJKAS_clean_linker_0, # of connection points: 2
#     Edge 81, Type (0, 0), BuildingBlock: ZUJKAS_clean_linker_0, # of connection points: 2
#     Edge 82, Type (0, 0), BuildingBlock: ZUJKAS_clean_linker_0, # of connection points: 2
#     Edge 83, Type (0, 0), BuildingBlock: ZUJKAS_clean_linker_0, # of connection points: 2
#     Edge 84, Type (0, 0), BuildingBlock: ZUJKAS_clean_linker_0, # of connection points: 2
#     Edge 85, Type (0, 0), BuildingBlock: ZUJKAS_clean_linker_0, # of connection points: 2
#     Edge 86, Type (0, 0), BuildingBlock: ZUJKAS_clean_linker_0, # of connection points: 2
#     Edge 87, Type (0, 0), BuildingBlock: ZUJKAS_clean_linker_0, # of connection points: 2
#     Edge 88, Type (0, 0), BuildingBlock: ZUJKAS_clean_linker_0, # of connection points: 2
#     Edge 89, Type (0, 0), BuildingBlock: ZUJKAS_clean_linker_0, # of connection points: 2
#     Edge 90, Type (0, 0), BuildingBlock: ZUJKAS_clean_linker_0, # of connection points: 2
#     Edge 91, Type (0, 0), BuildingBlock: ZUJKAS_clean_linker_0, # of connection points: 2
#     Edge 92, Type (0, 0), BuildingBlock: ZUJKAS_clean_linker_0, # of connection points: 2
#     Edge 93, Type (0, 0), BuildingBlock: ZUJKAS_clean_linker_0, # of connection points: 2
#     Edge 94, Type (0, 0), BuildingBlock: ZUJKAS_clean_linker_0, # of connection points: 2
#     Edge 95, Type (0, 0), BuildingBlock: ZUJKAS_clean_linker_0, # of connection points: 2
#     Edge 96, Type (0, 0), BuildingBlock: ZUJKAS_clean_linker_0, # of connection points: 2
#     Edge 97, Type (0, 0), BuildingBlock: ZUJKAS_clean_linker_0, # of connection points: 2
#     Edge 98, Type (0, 0), BuildingBlock: ZUJKAS_clean_linker_0, # of connection points: 2
#     Edge 99, Type (0, 0), BuildingBlock: ZUJKAS_clean_linker_0, # of connection points: 2
#     Edge 100, Type (0, 0), BuildingBlock: ZUJKAS_clean_linker_0, # of connection points: 2
#     Edge 101, Type (0, 0), BuildingBlock: ZUJKAS_clean_linker_0, # of connection points: 2
#     Edge 102, Type (0, 0), BuildingBlock: ZUJKAS_clean_linker_0, # of connection points: 2
#     Edge 103, Type (0, 0), BuildingBlock: ZUJKAS_clean_linker_0, # of connection points: 2
#     Edge 104, Type (0, 0), BuildingBlock: ZUJKAS_clean_linker_0, # of connection points: 2
#     Edge 105, Type (0, 0), BuildingBlock: ZUJKAS_clean_linker_0, # of connection points: 2
#     Edge 106, Type (0, 0), BuildingBlock: ZUJKAS_clean_linker_0, # of connection points: 2
#     Edge 107, Type (0, 0), BuildingBlock: ZUJKAS_clean_linker_0, # of connection points: 2
# Relax obj value: 0.096
# Max RMSD: 0.122
# Mean RMSD: 0.122
data_MOF--net-ict--node1-TATPOV_clean_sbu_0--edge1-ZUJKAS_clean_linker_0
_symmetry_space_group_name_H-M    P1
_symmetry_Int_Tables_number       1
_symmetry_cell_setting            triclinic
loop_
_symmetry_equiv_pos_as_xyz
'x, y, z'
_cell_length_a     88.645531
_cell_length_b     88.613475
_cell_length_c     42.999253
_cell_angle_alpha  90.021858
_cell_angle_beta   90.031305
_cell_angle_gamma 119.99836
loop_
_atom_site_label
_atom_site_type_symbol
_atom_site_fract_x
_atom_site_fract_y
_atom_site_fract_z
_atom_type_partial_charge
Zn0 Zn 0.19925 0.17879 0.06423 0.0
Zn1 Zn 0.22612 0.19925 0.02818 0.0
O2 O 0.20621 0.20204 0.00896 0.0
O3 O 0.18368 0.18341 0.03679 0.0
O4 O 0.24694 0.21363 0.00111 0.0
O5 O 0.2021 0.15806 0.05613 0.0
O6 O 0.22378 0.17481 0.02504 0.0
C7 C 0.18996 0.19448 0.01502 0.0
C8 C 0.22654 0.20829 0.09675 0.0
O9 O 0.23417 0.21146 0.07051 0.0
O10 O 0.2115 0.19511 0.10004 0.0
C11 C 0.25246 0.22955 0.99472 0.0
O12 O 0.24394 0.23709 0.00523 0.0
C13 C 0.21393 0.15997 0.03742 0.0
Zn14 Zn 0.81064 0.02357 0.10409 0.0
Zn15 Zn 0.79242 0.02926 0.06093 0.0
O16 O 0.79127 0.00672 0.04504 0.0
O17 O 0.80557 0.00156 0.08145 0.0
O18 O 0.7799 0.03504 0.02809 0.0
O19 O 0.83229 0.04619 0.09471 0.0
O20 O 0.8169 0.05136 0.06065 0.0
C21 C 0.79701 0.99723 0.05625 0.0
C22 C 0.78056 0.02376 0.12876 0.0
O23 O 0.77778 0.02567 0.10037 0.0
O24 O 0.79397 0.023 0.13636 0.0
C25 C 0.76341 0.02713 0.02564 0.0
O26 O 0.7539 0.01425 0.04473 0.0
C27 C 0.83125 0.05615 0.07481 0.0
Zn28 Zn 0.97151 0.79116 0.09405 0.0
Zn29 Zn 0.96716 0.7675 0.05154 0.0
O30 O 0.99082 0.7884 0.03862 0.0
O31 O 0.99483 0.80763 0.07485 0.0
O32 O 0.96229 0.749 0.01971 0.0
O33 O 0.95008 0.79144 0.0799 0.0
O34 O 0.94589 0.77103 0.04618 0.0
C35 C 1.00017 0.80339 0.05088 0.0
C36 C 0.96939 0.76044 0.12063 0.0
O37 O 0.96855 0.756 0.09223 0.0
O38 O 0.97005 0.77465 0.12758 0.0
C39 C 0.97203 0.74241 0.01596 0.0
O40 O 0.98624 0.74821 0.03279 0.0
C41 C 0.94104 0.78101 0.05851 0.0
Zn42 Zn 0.18817 0.20328 0.41141 0.0
Zn43 Zn 0.20728 0.23059 0.44686 0.0
O44 O 0.20848 0.2106 0.4697 0.0
O45 O 0.18982 0.18754 0.44295 0.0
O46 O 0.22058 0.25149 0.4745 0.0
O47 O 0.16786 0.20734 0.41207 0.0
O48 O 0.18306 0.22883 0.44462 0.0
C49 C 0.20029 0.19413 0.46552 0.0
C50 C 0.21958 0.22923 0.38148 0.0
O51 O 0.22141 0.23791 0.4062 0.0
O52 O 0.20666 0.214 0.37845 0.0
C53 C 0.2359 0.25655 0.48435 0.0
O54 O 0.24358 0.24767 0.47673 0.0
C55 C 0.16901 0.21935 0.42956 0.0
Zn56 Zn 0.7868 0.96881 0.40665 0.0
Zn57 Zn 0.76406 0.96496 0.4507 0.0
O58 O 0.78496 0.98917 0.46152 0.0
O59 O 0.80355 0.99243 0.42456 0.0
O60 O 0.74605 0.96029 0.48342 0.0
O61 O 0.78767 0.94777 0.42108 0.0
O62 O 0.76807 0.94395 0.45629 0.0
C63 C 0.79972 0.99827 0.44836 0.0
C64 C 0.75509 0.96536 0.38203 0.0
O65 O 0.75137 0.96506 0.4107 0.0
O66 O 0.76933 0.96638 0.37413 0.0
C67 C 0.73985 0.97029 0.48806 0.0
O68 O 0.74594 0.98478 0.47196 0.0
C69 C 0.77782 0.93902 0.44328 0.0
Zn70 Zn 0.03248 0.81994 0.40278 0.0
Zn71 Zn 0.03557 0.79955 0.44479 0.0
O72 O 0.01201 0.79733 0.4568 0.0
O73 O 0.00899 0.81336 0.42094 0.0
O74 O 0.03937 0.78517 0.4767 0.0
O75 O 0.0541 0.84109 0.41823 0.0
O76 O 0.05732 0.82392 0.45115 0.0
C77 C 0.00311 0.80344 0.4444 0.0
C78 C 0.03403 0.79115 0.37538 0.0
O79 O 0.03437 0.78708 0.40366 0.0
O80 O 0.0339 0.80502 0.36886 0.0
C81 C 0.03159 0.76862 0.47563 0.0
O82 O 0.02015 0.76039 0.45348 0.0
C83 C 0.06274 0.839 0.43952 0.0
Zn84 Zn 0.79119 0.82049 0.89322 0.0
Zn85 Zn 0.76727 0.801 0.93579 0.0
O86 O 0.7883 0.79881 0.9496 0.0
O87 O 0.8084 0.81565 0.91585 0.0
O88 O 0.74877 0.78721 0.9674 0.0
O89 O 0.78924 0.8415 0.90421 0.0
O90 O 0.77024 0.82561 0.94016 0.0
C91 C 0.80381 0.8056 0.93922 0.0
C92 C 0.76114 0.79055 0.86715 0.0
O93 O 0.75613 0.78768 0.89535 0.0
O94 O 0.77557 0.80382 0.8602 0.0
C95 C 0.7431 0.77108 0.97186 0.0
O96 O 0.74989 0.76323 0.95606 0.0
C97 C 0.77912 0.84014 0.92615 0.0
Zn98 Zn 0.18478 0.96981 0.9008 0.0
Zn99 Zn 0.20305 0.96646 0.9471 0.0
O100 O 0.20556 0.99039 0.95673 0.0
O101 O 0.19014 0.99302 0.91915 0.0
O102 O 0.2163 0.96272 0.98135 0.0
O103 O 0.16325 0.94783 0.91337 0.0
O104 O 0.17814 0.94521 0.95187 0.0
C105 C 0.19955 0.99908 0.94322 0.0
C106 C 0.21415 0.96746 0.87919 0.0
O107 O 0.21669 0.96674 0.90815 0.0
O108 O 0.20117 0.96856 0.86993 0.0
C109 C 0.23286 0.97129 0.98207 0.0
O110 O 0.24129 0.98327 0.96084 0.0
C111 C 0.16392 0.93955 0.93678 0.0
Zn112 Zn 0.01415 0.20343 0.91746 0.0
Zn113 Zn 0.02276 0.23107 0.95195 0.0
O114 O 0.0014 0.21141 0.97504 0.0
O115 O 0.9968 0.18802 0.94923 0.0
O116 O 0.03065 0.25208 0.97941 0.0
O117 O 0.03835 0.20712 0.91799 0.0
O118 O 0.04503 0.22894 0.94994 0.0
C119 C 0.99301 0.19491 0.97142 0.0
C120 C 0.0091 0.22942 0.88653 0.0
O121 O 0.01615 0.23833 0.91095 0.0
O122 O 0.00646 0.21404 0.88414 0.0
C123 C 0.02061 0.2575 0.98888 0.0
O124 O 0.00412 0.24907 0.9807 0.0
C125 C 0.04937 0.2192 0.93517 0.0
Zn126 Zn 0.81872 0.7868 0.59099 0.0
Zn127 Zn 0.79964 0.76353 0.54772 0.0
O128 O 0.7968 0.78447 0.53549 0.0
O129 O 0.81335 0.80405 0.57031 0.0
O130 O 0.78626 0.74534 0.5152 0.0
O131 O 0.84012 0.78594 0.57943 0.0
O132 O 0.82459 0.76723 0.5428 0.0
C133 C 0.8033 0.79975 0.54698 0.0
C134 C 0.78946 0.75614 0.61637 0.0
O135 O 0.78643 0.75157 0.58794 0.0
O136 O 0.80265 0.77055 0.6237 0.0
C137 C 0.76986 0.73838 0.51199 0.0
O138 O 0.76131 0.74363 0.52976 0.0
C139 C 0.83907 0.77624 0.55696 0.0
Zn140 Zn 0.21412 0.02506 0.60839 0.0
Zn141 Zn 0.23788 0.03041 0.56449 0.0
O142 O 0.21691 0.00685 0.55141 0.0
O143 O 0.19728 0.00248 0.58701 0.0
O144 O 0.25573 0.03564 0.53091 0.0
O145 O 0.21452 0.04721 0.59714 0.0
O146 O 0.23435 0.0518 0.56187 0.0
C147 C 0.20172 0.9975 0.56283 0.0
C148 C 0.24542 0.0271 0.63282 0.0
O149 O 0.24986 0.02882 0.60433 0.0
O150 O 0.23094 0.02558 0.64058 0.0
C151 C 0.26708 0.03089 0.53251 0.0
O152 O 0.26706 0.02171 0.55651 0.0
C153 C 0.2248 0.05664 0.57593 0.0
Zn154 Zn 0.97988 0.1778 0.56489 0.0
Zn155 Zn 0.97307 0.19854 0.53008 0.0
O156 O 0.99558 0.20149 0.50983 0.0
O157 O 0.9998 0.18269 0.53649 0.0
O158 O 0.96643 0.21317 0.50398 0.0
O159 O 0.95617 0.15719 0.55693 0.0
O160 O 0.9509 0.17416 0.52699 0.0
C161 C 0.00435 0.19391 0.51503 0.0
C162 C 0.98224 0.20696 0.59879 0.0
O163 O 0.97753 0.21025 0.57292 0.0
O164 O 0.98423 0.19381 0.60138 0.0
C165 C 0.97391 0.22964 0.50663 0.0
O166 O 0.98704 0.23764 0.52602 0.0
C167 C 0.94603 0.15924 0.53895 0.0
Zn168 Zn 0.87755 0.52085 0.4269 0.0
Zn169 Zn 0.90071 0.53864 0.3823 0.0
O170 O 0.87861 0.53854 0.36681 0.0
O171 O 0.85908 0.52222 0.40177 0.0
O172 O 0.91855 0.55153 0.34905 0.0
O173 O 0.88174 0.50059 0.42167 0.0
O174 O 0.89916 0.51462 0.38259 0.0
C175 C 0.86303 0.53119 0.37708 0.0
C176 C 0.90622 0.55326 0.44839 0.0
O177 O 0.91186 0.5541 0.42088 0.0
O178 O 0.89174 0.54047 0.45661 0.0
C179 C 0.92615 0.56804 0.34692 0.0
O180 O 0.92177 0.57674 0.3661 0.0
C181 C 0.89149 0.5011 0.3997 0.0
Zn182 Zn 0.48048 0.36098 0.43671 0.0
Zn183 Zn 0.46205 0.36495 0.39165 0.0
O184 O 0.45984 0.34141 0.37969 0.0
O185 O 0.47438 0.33771 0.41762 0.0
O186 O 0.44916 0.36977 0.35816 0.0
O187 O 0.5023 0.38276 0.42423 0.0
O188 O 0.48696 0.38618 0.38755 0.0
C189 C 0.46541 0.33226 0.39294 0.0
C190 C 0.45125 0.36301 0.45997 0.0
O191 O 0.44822 0.36363 0.43118 0.0
O192 O 0.46461 0.36238 0.46841 0.0
C193 C 0.43321 0.35948 0.35178 0.0
O194 O 0.42467 0.34467 0.3669 0.0
C195 C 0.5014 0.39146 0.4017 0.0
Zn196 Zn 0.64217 0.12914 0.42087 0.0
Zn197 Zn 0.63859 0.10475 0.38011 0.0
O198 O 0.66192 0.12591 0.36653 0.0
O199 O 0.66488 0.14599 0.40014 0.0
O200 O 0.63464 0.0858 0.34971 0.0
O201 O 0.61994 0.12761 0.40645 0.0
O202 O 0.61659 0.10703 0.37382 0.0
C203 C 0.6706 0.1414 0.37717 0.0
C204 C 0.64141 0.09958 0.44997 0.0
O205 O 0.64048 0.09455 0.42195 0.0
O206 O 0.64183 0.11379 0.45583 0.0
C207 C 0.6232 0.07024 0.35647 0.0
O208 O 0.61456 0.06725 0.38269 0.0
C209 C 0.61112 0.11664 0.38558 0.0
Zn210 Zn 0.85531 0.5484 0.7265 0.0
Zn211 Zn 0.87271 0.5709 0.7719 0.0
O212 O 0.87462 0.54958 0.78529 0.0
O213 O 0.86135 0.53148 0.74648 0.0
O214 O 0.88496 0.58876 0.8054 0.0
O215 O 0.83307 0.54788 0.73754 0.0
O216 O 0.84784 0.56754 0.77337 0.0
C217 C 0.86961 0.53497 0.77197 0.0
C218 C 0.88494 0.57973 0.70443 0.0
O219 O 0.88748 0.58329 0.7333 0.0
O220 O 0.87165 0.56585 0.69538 0.0
C221 C 0.90082 0.59454 0.81258 0.0
O222 O 0.90956 0.58811 0.79863 0.0
C223 C 0.8336 0.55795 0.75891 0.0
Zn224 Zn 0.45703 0.30731 0.73583 0.0
Zn225 Zn 0.43435 0.30328 0.78041 0.0
O226 O 0.45529 0.32711 0.79214 0.0
O227 O 0.47376 0.33083 0.75464 0.0
O228 O 0.41626 0.29858 0.81294 0.0
O229 O 0.45733 0.28579 0.74957 0.0
O230 O 0.43843 0.28239 0.78592 0.0
C231 C 0.47001 0.33636 0.77897 0.0
C232 C 0.42562 0.30444 0.71155 0.0
O233 O 0.42189 0.30386 0.74028 0.0
O234 O 0.4398 0.30542 0.70341 0.0
C235 C 0.40939 0.30811 0.81588 0.0
O236 O 0.41483 0.32194 0.79813 0.0
C237 C 0.44781 0.27722 0.77226 0.0
Zn238 Zn 0.69854 0.15443 0.73486 0.0
Zn239 Zn 0.70205 0.1351 0.77872 0.0
O240 O 0.6784 0.13273 0.79012 0.0
O241 O 0.67506 0.14801 0.75318 0.0
O242 O 0.70605 0.12131 0.81162 0.0
O243 O 0.72019 0.17588 0.74901 0.0
O244 O 0.72336 0.15986 0.78463 0.0
C245 C 0.66936 0.13853 0.77721 0.0
C246 C 0.70087 0.12576 0.70964 0.0
O247 O 0.70121 0.12216 0.73822 0.0
O248 O 0.70029 0.13926 0.70206 0.0
C249 C 0.69785 0.10475 0.81179 0.0
O250 O 0.68598 0.09627 0.79038 0.0
C251 C 0.72874 0.17456 0.77138 0.0
Zn252 Zn 0.45781 0.15368 0.23397 0.0
Zn253 Zn 0.43433 0.13357 0.27702 0.0
O254 O 0.45542 0.13072 0.28764 0.0
O255 O 0.47498 0.14765 0.25322 0.0
O256 O 0.41665 0.11954 0.31012 0.0
O257 O 0.45681 0.17472 0.24825 0.0
O258 O 0.43781 0.1583 0.28379 0.0
C259 C 0.47063 0.13722 0.27599 0.0
C260 C 0.42691 0.125 0.20757 0.0
O261 O 0.42246 0.12142 0.23595 0.0
O262 O 0.44131 0.1383 0.20061 0.0
C263 C 0.40461 0.10383 0.30637 0.0
O264 O 0.40361 0.09586 0.28003 0.0
C265 C 0.44691 0.1731 0.27074 0.0
Zn266 Zn 0.854 0.31328 0.23917 0.0
Zn267 Zn 0.87343 0.30797 0.28035 0.0
O268 O 0.87594 0.33117 0.29572 0.0
O269 O 0.86078 0.33608 0.26068 0.0
O270 O 0.88799 0.30292 0.30972 0.0
O271 O 0.8326 0.29133 0.2528 0.0
O272 O 0.84884 0.28637 0.28528 0.0
C273 C 0.87022 0.34076 0.28486 0.0
C274 C 0.8822 0.31141 0.21071 0.0
O275 O 0.88582 0.31004 0.23884 0.0
O276 O 0.8688 0.31247 0.2044 0.0
C277 C 0.88906 0.30558 0.33889 0.0
O278 O 0.88022 0.31222 0.35172 0.0
C279 C 0.83403 0.28177 0.27311 0.0
Zn280 Zn 0.69008 0.54004 0.2318 0.0
Zn281 Zn 0.69556 0.56336 0.27603 0.0
O282 O 0.67232 0.54246 0.29035 0.0
O283 O 0.66746 0.52342 0.25325 0.0
O284 O 0.70156 0.58189 0.30843 0.0
O285 O 0.71224 0.54024 0.24206 0.0
O286 O 0.71687 0.55967 0.27822 0.0
C287 C 0.66274 0.5275 0.27816 0.0
C288 C 0.69161 0.57093 0.20785 0.0
O289 O 0.69316 0.57517 0.23646 0.0
O290 O 0.69055 0.5567 0.19972 0.0
C291 C 0.69154 0.58779 0.31535 0.0
O292 O 0.67621 0.5811 0.30187 0.0
C293 C 0.72168 0.55027 0.26356 0.0
Zn294 Zn 0.48748 0.1251 0.93179 0.0
Zn295 Zn 0.46836 0.10277 0.88667 0.0
O296 O 0.46635 0.12433 0.87598 0.0
O297 O 0.48148 0.14253 0.9136 0.0
O298 O 0.45462 0.08543 0.85289 0.0
O299 O 0.5088 0.12454 0.91786 0.0
O300 O 0.49304 0.10602 0.88114 0.0
C301 C 0.47219 0.13906 0.88935 0.0
C302 C 0.45842 0.09403 0.95563 0.0
O303 O 0.45525 0.09041 0.92686 0.0
O304 O 0.47183 0.10801 0.96397 0.0
C305 C 0.4384 0.07464 0.85536 0.0
O306 O 0.43003 0.07507 0.88023 0.0
C307 C 0.5076 0.11497 0.89505 0.0
Zn308 Zn 0.88084 0.36577 0.93169 0.0
Zn309 Zn 0.90313 0.36925 0.88651 0.0
O310 O 0.88185 0.34551 0.87575 0.0
O311 O 0.86373 0.34214 0.91367 0.0
O312 O 0.92067 0.37336 0.85311 0.0
O313 O 0.8807 0.38731 0.91763 0.0
O314 O 0.89944 0.39038 0.88117 0.0
C315 C 0.86723 0.33642 0.88931 0.0
C316 C 0.9124 0.3685 0.95505 0.0
O317 O 0.91584 0.36872 0.92626 0.0
O318 O 0.89841 0.36784 0.96351 0.0
C319 C 0.92891 0.36505 0.85248 0.0
O320 O 0.92537 0.35293 0.87341 0.0
C321 C 0.89025 0.39576 0.89488 0.0
Zn322 Zn 0.64474 0.5184 0.91356 0.0
Zn323 Zn 0.63826 0.53731 0.87379 0.0
O324 O 0.66083 0.53926 0.85602 0.0
O325 O 0.66416 0.52093 0.88584 0.0
O326 O 0.63196 0.55062 0.84367 0.0
O327 O 0.62058 0.4978 0.90869 0.0
O328 O 0.61642 0.51271 0.87218 0.0
C329 C 0.66913 0.53143 0.86315 0.0
C330 C 0.64786 0.5495 0.94085 0.0
O331 O 0.64236 0.55114 0.91442 0.0
O332 O 0.65029 0.53681 0.94608 0.0
C333 C 0.64193 0.56676 0.83839 0.0
O334 O 0.65716 0.57503 0.85226 0.0
C335 C 0.61105 0.49867 0.88767 0.0
Zn336 Zn 0.54112 0.85073 0.76678 0.0
Zn337 Zn 0.56465 0.8692 0.72318 0.0
O338 O 0.54363 0.87136 0.70885 0.0
O339 O 0.52394 0.85547 0.74396 0.0
O340 O 0.58309 0.88197 0.69082 0.0
O341 O 0.54249 0.82931 0.7575 0.0
O342 O 0.56142 0.84434 0.72086 0.0
C343 C 0.52827 0.86493 0.71983 0.0
C344 C 0.57155 0.88068 0.79131 0.0
O345 O 0.5762 0.88329 0.7629 0.0
O346 O 0.55719 0.86754 0.79899 0.0
C347 C 0.58975 0.8982 0.68571 0.0
O348 O 0.58399 0.90707 0.70126 0.0
C349 C 0.55251 0.83014 0.73583 0.0
Zn350 Zn 0.14753 0.69162 0.76741 0.0
Zn351 Zn 0.1299 0.69688 0.72244 0.0
O352 O 0.12999 0.67482 0.70727 0.0
O353 O 0.14634 0.6718 0.74248 0.0
O354 O 0.11751 0.70209 0.68855 0.0
O355 O 0.16786 0.71605 0.76279 0.0
O356 O 0.15398 0.71928 0.72325 0.0
C357 C 0.13737 0.66665 0.71778 0.0
C358 C 0.11482 0.68752 0.788 0.0
O359 O 0.11402 0.69235 0.76048 0.0
O360 O 0.12767 0.686 0.79649 0.0
C361 C 0.10114 0.69298 0.6846 0.0
O362 O 0.09201 0.67939 0.70253 0.0
C363 C 0.16743 0.7252 0.74059 0.0
Zn364 Zn 0.31584 0.46764 0.73401 0.0
Zn365 Zn 0.30893 0.44088 0.6975 0.0
O366 O 0.33138 0.46084 0.67801 0.0
O367 O 0.33527 0.48353 0.70536 0.0
O368 O 0.3024 0.42043 0.66919 0.0
O369 O 0.29181 0.46421 0.72854 0.0
O370 O 0.287 0.44351 0.69505 0.0
C371 C 0.33993 0.47717 0.68351 0.0
C372 C 0.31882 0.44053 0.76534 0.0
O373 O 0.31338 0.43257 0.73951 0.0
O374 O 0.32116 0.45576 0.76863 0.0
C375 C 0.31156 0.41314 0.66663 0.0
O376 O 0.32611 0.41928 0.68258 0.0
C377 C 0.28191 0.45288 0.70901 0.0
Zn378 Zn 0.51449 0.8746 0.07049 0.0
Zn379 Zn 0.53355 0.89753 0.11476 0.0
O380 O 0.53752 0.87707 0.12493 0.0
O381 O 0.52154 0.85801 0.08895 0.0
O382 O 0.5463 0.91539 0.14805 0.0
O383 O 0.49259 0.8739 0.08461 0.0
O384 O 0.50836 0.8927 0.12094 0.0
C385 C 0.53167 0.86217 0.11217 0.0
C386 C 0.54261 0.90666 0.04614 0.0
O387 O 0.54601 0.91052 0.07477 0.0
O388 O 0.52962 0.8922 0.03828 0.0
C389 C 0.56278 0.9248 0.14936 0.0
O390 O 0.57238 0.92238 0.12888 0.0
C391 C 0.4937 0.8833 0.10763 0.0
Zn392 Zn 0.12033 0.63646 0.06569 0.0
Zn393 Zn 0.09882 0.63373 0.11192 0.0
O394 O 0.12056 0.65713 0.12214 0.0
O395 O 0.13813 0.6599 0.08361 0.0
O396 O 0.08178 0.63035 0.14581 0.0
O397 O 0.11973 0.61447 0.07944 0.0
O398 O 0.10183 0.61215 0.11697 0.0
C399 C 0.1351 0.66587 0.10816 0.0
C400 C 0.08916 0.63514 0.04376 0.0
O401 O 0.08607 0.63486 0.07272 0.0
O402 O 0.10277 0.63524 0.03454 0.0
C403 C 0.07408 0.63921 0.14623 0.0
O404 O 0.07795 0.65123 0.12493 0.0
C405 C 0.11046 0.60631 0.10265 0.0
Zn406 Zn 0.35189 0.48238 0.08429 0.0
Zn407 Zn 0.35889 0.46192 0.11887 0.0
O408 O 0.3371 0.46009 0.14042 0.0
O409 O 0.33315 0.47916 0.1141 0.0
O410 O 0.36589 0.44795 0.14601 0.0
O411 O 0.37603 0.5028 0.08894 0.0
O412 O 0.3814 0.48613 0.11947 0.0
C413 C 0.32874 0.46816 0.13591 0.0
C414 C 0.34745 0.45189 0.0517 0.0
O415 O 0.35305 0.44896 0.07696 0.0
O416 O 0.3457 0.46518 0.04925 0.0
C417 C 0.35603 0.43192 0.15241 0.0
O418 O 0.34008 0.4237 0.14134 0.0
C419 C 0.38638 0.50083 0.10649 0.0
Zn420 Zn 0.12195 0.48287 0.56321 0.0
Zn421 Zn 0.10074 0.46547 0.61039 0.0
O422 O 0.12202 0.46278 0.62025 0.0
O423 O 0.1392 0.47642 0.5806 0.0
O424 O 0.08378 0.45289 0.64503 0.0
O425 O 0.12281 0.50506 0.57607 0.0
O426 O 0.1051 0.49063 0.61461 0.0
C427 C 0.13625 0.4678 0.60558 0.0
C428 C 0.08966 0.45408 0.54269 0.0
O429 O 0.08689 0.4516 0.57179 0.0
O430 O 0.10364 0.46695 0.53288 0.0
C431 C 0.07534 0.43634 0.64632 0.0
O432 O 0.07845 0.42737 0.6255 0.0
C433 C 0.11405 0.50477 0.59952 0.0
Zn434 Zn 0.52336 0.64908 0.5614 0.0
Zn435 Zn 0.54078 0.64174 0.60374 0.0
O436 O 0.54071 0.6632 0.62262 0.0
O437 O 0.52485 0.66804 0.58903 0.0
O438 O 0.55283 0.63504 0.63589 0.0
O439 O 0.50266 0.62478 0.56412 0.0
O440 O 0.51679 0.61935 0.6004 0.0
C441 C 0.5336 0.67197 0.61398 0.0
C442 C 0.55587 0.65323 0.53879 0.0
O443 O 0.5567 0.64752 0.56552 0.0
O444 O 0.54309 0.65517 0.53162 0.0
C445 C 0.56864 0.64498 0.64361 0.0
O446 O 0.57747 0.66045 0.63075 0.0
C447 C 0.5032 0.61444 0.58379 0.0
Zn448 Zn 0.35528 0.87342 0.57732 0.0
Zn449 Zn 0.36099 0.89877 0.61765 0.0
O450 O 0.33777 0.8782 0.63346 0.0
O451 O 0.33278 0.8576 0.59953 0.0
O452 O 0.36653 0.91814 0.6483 0.0
O453 O 0.37739 0.87407 0.59009 0.0
O454 O 0.38249 0.89554 0.62199 0.0
C455 C 0.32817 0.86273 0.62332 0.0
C456 C 0.35682 0.90322 0.54786 0.0
O457 O 0.35878 0.9088 0.57571 0.0
O458 O 0.35546 0.88856 0.5423 0.0
C459 C 0.36248 0.92987 0.6439 0.0
O460 O 0.35372 0.92926 0.61884 0.0
C461 C 0.38707 0.88528 0.61 0.0
Zn462 Zn 0.14538 0.45412 0.27364 0.0
Zn463 Zn 0.12746 0.43123 0.22887 0.0
O464 O 0.12588 0.45273 0.21526 0.0
O465 O 0.13981 0.47128 0.25315 0.0
O466 O 0.11493 0.41343 0.19534 0.0
O467 O 0.16727 0.45384 0.26282 0.0
O468 O 0.15207 0.43399 0.22753 0.0
C469 C 0.1313 0.46759 0.22792 0.0
C470 C 0.11555 0.42298 0.29653 0.0
O471 O 0.11288 0.41908 0.26778 0.0
O472 O 0.12884 0.43701 0.30506 0.0
C473 C 0.09866 0.40663 0.19061 0.0
O474 O 0.0897 0.41182 0.20738 0.0
C475 C 0.16639 0.4434 0.24186 0.0
Zn476 Zn 0.543 0.68988 0.24494 0.0
Zn477 Zn 0.56678 0.69438 0.20236 0.0
O478 O 0.54595 0.67075 0.18897 0.0
O479 O 0.52642 0.66699 0.22437 0.0
O480 O 0.5854 0.69976 0.17065 0.0
O481 O 0.54319 0.71174 0.23212 0.0
O482 O 0.56357 0.71594 0.19838 0.0
C483 C 0.53078 0.6616 0.20061 0.0
C484 C 0.57384 0.69171 0.27102 0.0
O485 O 0.5783 0.69272 0.24264 0.0
O486 O 0.55959 0.69089 0.27816 0.0
C487 C 0.59209 0.69019 0.16595 0.0
O488 O 0.58614 0.67551 0.1814 0.0
C489 C 0.55384 0.72096 0.21117 0.0
Zn490 Zn 0.303 0.8477 0.26479 0.0
Zn491 Zn 0.30042 0.86707 0.21999 0.0
O492 O 0.32408 0.86914 0.20991 0.0
O493 O 0.32663 0.85381 0.24774 0.0
O494 O 0.29704 0.88103 0.18663 0.0
O495 O 0.28143 0.82635 0.25003 0.0
O496 O 0.27912 0.84242 0.21343 0.0
C497 C 0.33276 0.8632 0.22369 0.0
C498 C 0.30085 0.87667 0.28881 0.0
O499 O 0.30082 0.88013 0.26007 0.0
O500 O 0.30117 0.86311 0.29694 0.0
C501 C 0.30544 0.8976 0.18676 0.0
O502 O 0.31713 0.90583 0.20856 0.0
C503 C 0.27338 0.82772 0.22688 0.0
H504 H 0.39332 0.27881 0.85175 0.0
H505 H 0.36735 0.2689 0.88379 0.0
H506 H 0.36576 0.31548 0.86098 0.0
H507 H 0.39161 0.32537 0.82824 0.0
H508 H 0.36086 0.28371 0.93482 0.0
H509 H 0.31718 0.27692 0.83629 0.0
H510 H 0.33871 0.28004 0.83045 0.0
H511 H 0.33599 0.29817 0.84091 0.0
C512 C 0.38751 0.28701 0.85358 0.0
C513 C 0.39446 0.30282 0.83719 0.0
C514 C 0.37267 0.28132 0.87195 0.0
C515 C 0.36445 0.2913 0.87432 0.0
C516 C 0.37167 0.30739 0.8589 0.0
H517 H 0.26708 0.26313 0.97333 0.0
H518 H 0.29468 0.27981 0.94518 0.0
C519 C 0.38651 0.31307 0.84036 0.0
C520 C 0.34819 0.28459 0.89266 0.0
H521 H 0.3046 0.26993 0.88625 0.0
C522 C 0.34858 0.2808 0.92425 0.0
C523 C 0.33219 0.28084 0.8788 0.0
C524 C 0.33086 0.28405 0.8447 0.0
C525 C 0.33334 0.27307 0.94222 0.0
C526 C 0.31731 0.26888 0.92814 0.0
C527 C 0.31696 0.27319 0.89688 0.0
C528 C 0.30061 0.25892 0.94495 0.0
C529 C 0.33446 0.26926 0.97607 0.0
C530 C 0.29474 0.2416 0.95355 0.0
C531 C 0.27901 0.23203 0.96936 0.0
C532 C 0.26882 0.23961 0.97694 0.0
C533 C 0.27465 0.25693 0.96793 0.0
C534 C 0.29038 0.26648 0.95188 0.0
H535 H 0.34796 0.27706 0.98517 0.0
H536 H 0.32568 0.272 0.99042 0.0
H537 H 0.33031 0.25526 0.97874 0.0
H538 H 0.30235 0.23547 0.94794 0.0
H539 H 0.27491 0.21872 0.97588 0.0
H540 H 0.72124 0.11836 0.85959 0.0
H541 H 0.72994 0.10275 0.89561 0.0
H542 H 0.69347 0.05401 0.85237 0.0
H543 H 0.68474 0.06951 0.81598 0.0
H544 H 0.70942 0.0753 0.93812 0.0
H545 H 0.74089 0.05544 0.84757 0.0
H546 H 0.73537 0.07223 0.84104 0.0
H547 H 0.71868 0.04969 0.84013 0.0
C548 C 0.71501 0.10431 0.85775 0.0
C549 C 0.70238 0.09519 0.83475 0.0
C550 C 0.71998 0.09542 0.8784 0.0
C551 C 0.71251 0.07727 0.87636 0.0
C552 C 0.69958 0.06805 0.85398 0.0
H553 H 0.72854 0.01475 0.01665 0.0
H554 H 0.71501 0.02562 0.98002 0.0
C555 C 0.69456 0.07693 0.83332 0.0
C556 C 0.71854 0.06814 0.89743 0.0
H557 H 0.74065 0.04578 0.89877 0.0
C558 C 0.71614 0.06874 0.92956 0.0
C559 C 0.72745 0.05976 0.88611 0.0
C560 C 0.73092 0.0593 0.85186 0.0
C561 C 0.72256 0.06126 0.95078 0.0
C562 C 0.73144 0.05284 0.93945 0.0
C563 C 0.73371 0.05213 0.9073 0.0
C564 C 0.73941 0.04563 0.96071 0.0
C565 C 0.72031 0.06294 0.98516 0.0
C566 C 0.75756 0.05298 0.96135 0.0
C567 C 0.76533 0.0468 0.98212 0.0
C568 C 0.75506 0.03305 0.00257 0.0
C569 C 0.73682 0.02541 0.00132 0.0
C570 C 0.72907 0.03164 0.98053 0.0
H571 H 0.71631 0.07274 0.99013 0.0
H572 H 0.71009 0.05018 0.99433 0.0
H573 H 0.7326 0.06668 -0.00211 0.0
H574 H 0.76575 0.06375 0.94613 0.0
H575 H 0.7794 0.05294 0.98237 0.0
H576 H 0.94223 0.7259 0.98143 0.0
H577 H 0.93299 0.70095 0.94689 0.0
H578 H 0.98077 0.70089 0.96547 0.0
H579 H 0.99003 0.72572 0.0007 0.0
H580 H 0.94845 0.69771 0.8938 0.0
H581 H 0.94386 0.65059 0.98394 0.0
H582 H 0.94594 0.67136 0.99367 0.0
H583 H 0.96465 0.67018 0.98114 0.0
C584 C 0.95081 0.72061 0.97823 0.0
C585 C 0.96684 0.72775 0.99399 0.0
C586 C 0.9455 0.70634 0.95844 0.0
C587 C 0.95606 0.69889 0.95398 0.0
C588 C 0.97225 0.7062 0.96911 0.0
H589 H 0.93428 0.60962 0.83478 0.0
H590 H 0.9491 0.63514 0.86895 0.0
C591 C 0.97756 0.72046 0.98908 0.0
C592 C 0.95002 0.68358 0.93323 0.0
H593 H 0.93754 0.64031 0.93222 0.0
C594 C 0.94615 0.68519 0.90217 0.0
C595 C 0.94708 0.66726 0.9442 0.0
C596 C 0.95044 0.66461 0.97761 0.0
C597 C 0.93913 0.67086 0.88193 0.0
C598 C 0.93578 0.65448 0.89312 0.0
C599 C 0.94015 0.65294 0.92383 0.0
C600 C 0.92676 0.63865 0.87367 0.0
C601 C 0.93519 0.67327 0.84876 0.0
C602 C 0.90923 0.63203 0.8657 0.0
C603 C 0.90072 0.61746 0.84643 0.0
C604 C 0.9096 0.60925 0.83469 0.0
C605 C 0.92709 0.61568 0.84334 0.0
C606 C 0.93557 0.63024 0.86283 0.0
H607 H 0.94206 0.68723 0.8419 0.0
H608 H 0.93895 0.66598 0.8325 0.0
H609 H 0.92097 0.6681 0.84625 0.0
H610 H 0.90217 0.63825 0.8742 0.0
H611 H 0.88724 0.61283 0.84032 0.0
H612 H 0.32766 0.39404 0.6561 0.0
H613 H 0.31724 0.36796 0.62365 0.0
H614 H 0.27138 0.37072 0.60016 0.0
H615 H 0.28174 0.39684 0.63206 0.0
H616 H 0.28644 0.3362 0.62947 0.0
H617 H 0.2892 0.36632 0.51519 0.0
H618 H 0.30009 0.37905 0.54927 0.0
H619 H 0.27714 0.37074 0.54373 0.0
C620 C 0.31542 0.38918 0.64384 0.0
C621 C 0.30558 0.39758 0.64656 0.0
C622 C 0.30948 0.37427 0.62534 0.0
C623 C 0.29368 0.36758 0.60911 0.0
C624 C 0.2838 0.37589 0.61191 0.0
H625 H 0.22414 0.27855 0.50139 0.0
H626 H 0.2394 0.30528 0.53198 0.0
C627 C 0.28971 0.39078 0.63033 0.0
C628 C 0.28709 0.35154 0.59012 0.0
H629 H 0.27254 0.3352 0.51744 0.0
C630 C 0.2836 0.33599 0.60488 0.0
C631 C 0.28347 0.35135 0.55804 0.0
C632 C 0.28783 0.36779 0.54053 0.0
C633 C 0.27586 0.32009 0.58867 0.0
C634 C 0.27171 0.31984 0.55685 0.0
C635 C 0.27565 0.33545 0.54191 0.0
C636 C 0.26257 0.3034 0.53891 0.0
C637 C 0.27156 0.3036 0.60593 0.0
C638 C 0.27061 0.29353 0.53258 0.0
C639 C 0.26192 0.27821 0.51503 0.0
C640 C 0.24506 0.27255 0.50348 0.0
C641 C 0.23709 0.2825 0.50996 0.0
C642 C 0.24579 0.2978 0.5274 0.0
H643 H 0.27261 0.30556 0.63154 0.0
H644 H 0.25817 0.29306 0.60019 0.0
H645 H 0.28075 0.29919 0.59875 0.0
H646 H 0.28366 0.29779 0.54091 0.0
H647 H 0.26845 0.27088 0.51038 0.0
H648 H 0.60641 0.88404 0.65414 0.0
H649 H 0.63174 0.8989 0.62024 0.0
H650 H 0.63184 0.94722 0.63321 0.0
H651 H 0.60663 0.9325 0.66782 0.0
H652 H 0.63591 0.91641 0.5655 0.0
H653 H 0.68175 0.9609 0.65534 0.0
H654 H 0.6608 0.9425 0.66507 0.0
H655 H 0.6623 0.96216 0.65023 0.0
C656 C 0.61178 0.89783 0.64982 0.0
C657 C 0.60456 0.9071 0.66388 0.0
C658 C 0.62627 0.9063 0.63041 0.0
C659 C 0.63386 0.92422 0.62461 0.0
C660 C 0.62644 0.93347 0.63794 0.0
H661 H 0.72397 0.98879 0.50527 0.0
H662 H 0.69811 0.97882 0.53823 0.0
C663 C 0.61196 0.925 0.65754 0.0
C664 C 0.64947 0.93302 0.60443 0.0
H665 H 0.69272 0.96383 0.60429 0.0
C666 C 0.6483 0.92684 0.57395 0.0
C667 C 0.66563 0.94665 0.6155 0.0
C668 C 0.66783 0.95339 0.64839 0.0
C669 C 0.66291 0.93371 0.55442 0.0
C670 C 0.6791 0.94703 0.56572 0.0
C671 C 0.68022 0.95361 0.59581 0.0
C672 C 0.69518 0.95348 0.54714 0.0
C673 C 0.661 0.92659 0.52188 0.0
C674 C 0.70222 0.94263 0.5419 0.0
C675 C 0.71699 0.94829 0.52334 0.0
C676 C 0.72496 0.9649 0.50954 0.0
C677 C 0.7181 0.97591 0.51546 0.0
C678 C 0.70335 0.97026 0.53427 0.0
H679 H 0.64714 0.91902 0.51455 0.0
H680 H 0.66824 0.93732 0.505 0.0
H681 H 0.66658 0.91784 0.52098 0.0
H682 H 0.69616 0.9297 0.55195 0.0
H683 H 0.72194 0.93948 0.51934 0.0
H684 H 0.05401 0.78169 0.52487 0.0
H685 H 0.06317 0.76597 0.55963 0.0
H686 H 0.02904 0.71791 0.51199 0.0
H687 H 0.01983 0.73355 0.47683 0.0
H688 H 0.04284 0.73689 0.5995 0.0
H689 H 0.07786 0.72222 0.50763 0.0
H690 H 0.07139 0.73842 0.5026 0.0
H691 H 0.05551 0.71568 0.49956 0.0
C692 C 0.04838 0.76776 0.5218 0.0
C693 C 0.03628 0.75889 0.49791 0.0
C694 C 0.05361 0.75881 0.54174 0.0
C695 C 0.04695 0.74085 0.53809 0.0
C696 C 0.03452 0.73183 0.51485 0.0
H697 H 0.06614 0.6782 0.67344 0.0
H698 H 0.05175 0.68829 0.63713 0.0
C699 C 0.02923 0.74078 0.4949 0.0
C700 C 0.05335 0.73174 0.55836 0.0
H701 H 0.07777 0.71175 0.55805 0.0
C702 C 0.05036 0.73125 0.59048 0.0
C703 C 0.06329 0.72459 0.54643 0.0
C704 C 0.06737 0.72531 0.51221 0.0
C705 C 0.05722 0.72394 0.6111 0.0
C706 C 0.06718 0.71681 0.59917 0.0
C707 C 0.07001 0.71713 0.56702 0.0
C708 C 0.07573 0.71 0.61992 0.0
C709 C 0.0543 0.72446 0.64557 0.0
C710 C 0.09396 0.71858 0.62156 0.0
C711 C 0.10222 0.71285 0.64217 0.0
C712 C 0.09237 0.69835 0.66142 0.0
C713 C 0.07409 0.68946 0.65905 0.0
C714 C 0.06584 0.69524 0.63844 0.0
H715 H 0.04922 0.73333 0.65129 0.0
H716 H 0.04466 0.71118 0.65366 0.0
H717 H 0.06659 0.72875 0.65864 0.0
H718 H 0.10181 0.72997 0.60735 0.0
H719 H 0.11631 0.71996 0.64331 0.0
H720 H 0.60916 0.67284 0.14862 0.0
H721 H 0.63552 0.68403 0.11659 0.0
H722 H 0.63591 0.73252 0.10467 0.0
H723 H 0.60965 0.72153 0.13632 0.0
H724 H 0.64104 0.69989 0.05114 0.0
H725 H 0.68504 0.74421 0.14302 0.0
H726 H 0.66415 0.72533 0.15163 0.0
H727 H 0.66526 0.74478 0.1367 0.0
C728 C 0.6148 0.68584 0.13903 0.0
C729 C 0.60735 0.69632 0.14515 0.0
C730 C 0.62983 0.69219 0.12077 0.0
C731 C 0.63769 0.70914 0.10867 0.0
C732 C 0.63009 0.71946 0.11414 0.0
H733 H 0.72475 0.78303 0.0044 0.0
H734 H 0.69959 0.76642 0.03799 0.0
C735 C 0.61505 0.71312 0.13215 0.0
C736 C 0.65397 0.71631 0.09051 0.0
H737 H 0.69663 0.74835 0.09198 0.0
C738 C 0.65329 0.71032 0.06009 0.0
C739 C 0.66983 0.72989 0.10242 0.0
C740 C 0.67126 0.7364 0.13532 0.0
C741 C 0.66797 0.71819 0.04062 0.0
C742 C 0.68375 0.73214 0.05226 0.0
C743 C 0.68452 0.73768 0.0831 0.0
C744 C 0.69928 0.742 0.03229 0.0
C745 C 0.66623 0.71207 0.00737 0.0
C746 C 0.70763 0.73383 0.0183 0.0
C747 C 0.72201 0.74329 -0.00111 0.0
C748 C 0.72836 0.76112 0.99339 0.0
C749 C 0.72019 0.76932 0.00807 0.0
C750 C 0.70581 0.75985 0.02731 0.0
H751 H 0.65238 0.70393 0.00027 0.0
H752 H 0.67271 0.72332 0.99124 0.0
H753 H 0.67261 0.7041 0.00482 0.0
H754 H 0.70302 0.72015 0.02237 0.0
H755 H 0.72809 0.73662 0.98809 0.0
H756 H 0.28237 0.88454 0.13842 0.0
H757 H 0.27371 0.90051 0.10328 0.0
H758 H 0.30988 0.94876 0.14835 0.0
H759 H 0.31856 0.93286 0.18389 0.0
H760 H 0.27631 0.94382 0.1422 0.0
H761 H 0.29992 0.93263 0.03004 0.0
H762 H 0.28677 0.91294 0.05151 0.0
H763 H 0.30734 0.92929 0.06717 0.0
C764 C 0.28865 0.89857 0.14068 0.0
C765 C 0.30116 0.90742 0.16398 0.0
C766 C 0.28375 0.90769 0.12044 0.0
C767 C 0.29132 0.92583 0.12297 0.0
C768 C 0.30397 0.93476 0.14592 0.0
H769 H 0.2681 0.98473 0.98633 0.0
H770 H 0.28376 0.97584 0.02204 0.0
C771 C 0.30892 0.92565 0.16616 0.0
C772 C 0.28515 0.93524 0.10292 0.0
H773 H 0.27908 0.94228 0.02709 0.0
C774 C 0.2771 0.94368 0.11704 0.0
C775 C 0.2864 0.93523 0.07014 0.0
C776 C 0.29573 0.92719 0.05379 0.0
C777 C 0.26957 0.95145 0.09916 0.0
C778 C 0.26993 0.95054 0.06636 0.0
C779 C 0.27867 0.9428 0.05226 0.0
C780 C 0.26063 0.95679 0.04624 0.0
C781 C 0.26119 0.96045 0.11553 0.0
C782 C 0.24245 0.94902 0.04806 0.0
C783 C 0.23346 0.95403 0.02771 0.0
C784 C 0.24249 0.96687 0.00503 0.0
C785 C 0.26075 0.97483 0.00358 0.0
C786 C 0.26973 0.96976 0.02391 0.0
H787 H 0.26632 0.96439 0.13953 0.0
H788 H 0.26335 0.97218 0.10251 0.0
H789 H 0.24694 0.95135 0.11714 0.0
H790 H 0.23514 0.93874 0.06473 0.0
H791 H 0.2194 0.9476 0.0294 0.0
H792 H 0.06395 0.38853 0.17559 0.0
H793 H 0.04919 0.36328 0.14089 0.0
H794 H 0.09841 0.3668 0.12003 0.0
H795 H 0.11327 0.39191 0.15462 0.0
H796 H 0.05543 0.35974 0.07547 0.0
H797 H 0.06698 0.31633 0.15275 0.0
H798 H 0.06899 0.3366 0.16603 0.0
H799 H 0.08615 0.33668 0.14365 0.0
C800 C 0.07165 0.38398 0.1635 0.0
C801 C 0.08977 0.39215 0.16808 0.0
C802 C 0.06319 0.36958 0.14369 0.0
C803 C 0.07269 0.36305 0.12835 0.0
C804 C 0.09082 0.37148 0.1321 0.0
H805 H 0.05424 0.2784 0.00784 0.0
H806 H 0.06575 0.30407 0.04125 0.0
C807 C 0.09929 0.38588 0.1518 0.0
C808 C 0.06371 0.34724 0.10875 0.0
H809 H 0.05629 0.3057 0.1021 0.0
C810 C 0.05546 0.34785 0.08133 0.0
C811 C 0.06376 0.33177 0.11663 0.0
C812 C 0.0718 0.33017 0.1465 0.0
C813 C 0.04779 0.33356 0.0609 0.0
C814 C 0.04816 0.31821 0.06849 0.0
C815 C 0.05609 0.31751 0.09628 0.0
C816 C 0.04097 0.30289 0.0475 0.0
C817 C 0.03991 0.33522 0.03089 0.0
C818 C 0.02317 0.29363 0.04007 0.0
C819 C 0.01651 0.27893 0.02086 0.0
C820 C 0.02755 0.27316 0.00896 0.0
C821 C 0.04536 0.28246 0.01658 0.0
C822 C 0.05198 0.29715 0.03569 0.0
H823 H 0.04424 0.34903 0.02524 0.0
H824 H 0.04339 0.32941 0.01123 0.0
H825 H 0.02551 0.32812 0.03307 0.0
H826 H 0.01438 0.29764 0.04946 0.0
H827 H 0.00272 0.27201 0.01557 0.0
H828 H 0.72379 0.6068 0.34153 0.0
H829 H 0.73451 0.63269 0.37429 0.0
H830 H 0.68422 0.62906 0.37012 0.0
H831 H 0.67329 0.60309 0.33711 0.0
H832 H 0.73299 0.66469 0.35559 0.0
H833 H 0.69839 0.63345 0.46582 0.0
H834 H 0.70255 0.62149 0.43627 0.0
H835 H 0.6861 0.6273 0.4301 0.0
C836 C 0.71493 0.61138 0.34772 0.0
C837 C 0.69767 0.60287 0.33668 0.0
C838 C 0.7211 0.6262 0.3664 0.0
C839 C 0.71012 0.63269 0.37466 0.0
C840 C 0.69282 0.62413 0.36414 0.0
H841 H 0.73493 0.72063 0.49874 0.0
H842 H 0.71943 0.69581 0.46344 0.0
C843 C 0.68664 0.60933 0.34526 0.0
C844 C 0.7171 0.64879 0.3934 0.0
H845 H 0.71709 0.66383 0.46646 0.0
C846 C 0.72946 0.66456 0.37979 0.0
C847 C 0.71229 0.64854 0.42478 0.0
C848 C 0.69916 0.63182 0.44036 0.0
C849 C 0.73738 0.68012 0.39693 0.0
C850 C 0.73315 0.67976 0.42876 0.0
C851 C 0.72036 0.66406 0.44209 0.0
C852 C 0.74255 0.69529 0.44903 0.0
C853 C 0.75017 0.69678 0.38075 0.0
C854 C 0.76066 0.70316 0.45276 0.0
C855 C 0.76954 0.71736 0.47273 0.0
C856 C 0.76047 0.72387 0.48971 0.0
C857 C 0.74231 0.71597 0.48594 0.0
C858 C 0.73343 0.70177 0.46583 0.0
H859 H 0.7477 0.69597 0.35529 0.0
H860 H 0.74954 0.70812 0.39018 0.0
H861 H 0.76356 0.69909 0.38429 0.0
H862 H 0.76791 0.6981 0.44065 0.0
H863 H 0.7835 0.72303 0.47524 0.0
H864 H 0.29713 0.02942 0.53514 0.0
H865 H 0.32092 0.04098 0.49734 0.0
H866 H 0.29184 0.05645 0.43777 0.0
H867 H 0.26826 0.04543 0.47587 0.0
H868 H 0.32308 0.03346 0.43752 0.0
H869 H 0.33709 0.10163 0.44674 0.0
H870 H 0.32275 0.08484 0.47337 0.0
H871 H 0.31496 0.08682 0.43576 0.0
C872 C 0.29578 0.03525 0.51396 0.0
C873 C 0.2809 0.03669 0.50865 0.0
C874 C 0.30939 0.04185 0.49238 0.0
C875 C 0.30833 0.04993 0.46506 0.0
C876 C 0.29317 0.05073 0.45911 0.0
H877 H 0.37341 0.07359 0.30115 0.0
H878 H 0.35057 0.06003 0.34041 0.0
C879 C 0.27965 0.04432 0.48082 0.0
C880 C 0.32314 0.05766 0.44293 0.0
H881 H 0.35099 0.09543 0.40542 0.0
C882 C 0.32926 0.04704 0.4306 0.0
C883 C 0.33142 0.07546 0.4344 0.0
C884 C 0.32635 0.0879 0.4485 0.0
C885 C 0.34319 0.05363 0.40946 0.0
C886 C 0.3509 0.07122 0.39979 0.0
C887 C 0.34498 0.08191 0.41259 0.0
C888 C 0.36509 0.0789 0.37639 0.0
C889 C 0.34969 0.04177 0.39821 0.0
C890 C 0.38072 0.09425 0.38326 0.0
C891 C 0.39368 0.10222 0.36067 0.0
C892 C 0.39128 0.09494 0.33077 0.0
C893 C 0.37573 0.07943 0.32406 0.0
C894 C 0.36269 0.07158 0.34656 0.0
H895 H 0.34636 0.03094 0.41481 0.0
H896 H 0.34341 0.03592 0.37564 0.0
H897 H 0.36403 0.04903 0.39479 0.0
H898 H 0.38284 0.10017 0.40608 0.0
H899 H 0.40552 0.11414 0.36658 0.0
H900 H 0.894 0.30869 0.40206 0.0
H901 H 0.91093 0.29938 0.43359 0.0
H902 H 0.92486 0.28167 0.35081 0.0
H903 H 0.90829 0.29111 0.31918 0.0
H904 H 0.90538 0.2662 0.4392 0.0
H905 H 0.97172 0.30983 0.3938 0.0
H906 H 0.95383 0.3137 0.38702 0.0
H907 H 0.95632 0.29832 0.36339 0.0
C908 C 0.90083 0.30299 0.39055 0.0
C909 C 0.8998 0.30067 0.3581 0.0
C910 C 0.91049 0.29769 0.40859 0.0
C911 C 0.91939 0.2901 0.39448 0.0
C912 C 0.91846 0.28788 0.36211 0.0
H913 H 0.94683 0.21692 0.46539 0.0
H914 H 0.9343 0.23277 0.44 0.0
C915 C 0.90885 0.29317 0.34409 0.0
C916 C 0.92863 0.28335 0.4136 0.0
H917 H 0.96747 0.28437 0.42131 0.0
C918 C 0.91901 0.27033 0.43558 0.0
C919 C 0.94648 0.28892 0.40916 0.0
C920 C 0.95774 0.30359 0.38729 0.0
C921 C 0.92657 0.26218 0.45224 0.0
C922 C 0.9441 0.26697 0.44633 0.0
C923 C 0.95395 0.28054 0.42544 0.0
C924 C 0.95222 0.25763 0.46091 0.0
C925 C 0.91567 0.24844 0.47592 0.0
C926 C 0.96687 0.2665 0.48017 0.0
C927 C 0.97417 0.25749 0.4946 0.0
C928 C 0.96699 0.23947 0.48983 0.0
C929 C 0.95262 0.23076 0.46976 0.0
C930 C 0.94536 0.23977 0.45537 0.0
H931 H 0.90456 0.24987 0.48406 0.0
H932 H 0.91028 0.23537 0.46515 0.0
H933 H 0.92362 0.24906 0.49638 0.0
H934 H 0.97244 0.28032 0.48451 0.0
H935 H 0.98526 0.2646 0.50984 0.0
H936 H 0.05225 0.65267 0.14888 0.0
H937 H 0.02749 0.64403 0.18389 0.0
H938 H 0.03893 0.60747 0.22911 0.0
H939 H 0.06372 0.61604 0.19442 0.0
H940 H 0.9987 0.60991 0.18914 0.0
H941 H 0.03266 0.63407 0.30207 0.0
H942 H 0.04358 0.64167 0.26513 0.0
H943 H 0.0395 0.62113 0.28064 0.0
C944 C 0.04965 0.64295 0.16654 0.0
C945 C 0.05996 0.63503 0.16886 0.0
C946 C 0.03548 0.63802 0.18647 0.0
C947 C 0.03152 0.62526 0.20927 0.0
C948 C 0.04197 0.61757 0.21203 0.0
H949 H 0.93739 0.55393 0.30235 0.0
H950 H 0.96242 0.56926 0.26779 0.0
C951 C 0.05607 0.62242 0.19205 0.0
C952 C 0.0158 0.61909 0.22885 0.0
H953 H 0.00212 0.61355 0.3043 0.0
C954 C 0.99943 0.61088 0.2143 0.0
C955 C 0.01682 0.62055 0.26162 0.0
C956 C 0.03408 0.62998 0.27834 0.0
C957 C 0.98401 0.60343 0.23177 0.0
C958 C 0.98503 0.60408 0.2646 0.0
C959 C 0.0014 0.61294 0.27911 0.0
C960 C 0.96932 0.59499 0.28434 0.0
C961 C 0.96674 0.5948 0.215 0.0
C962 C 0.96502 0.60439 0.30527 0.0
C963 C 0.95071 0.59567 0.3251 0.0
C964 C 0.94059 0.57737 0.32456 0.0
C965 C 0.94487 0.56803 0.30332 0.0
C966 C 0.95912 0.57677 0.28343 0.0
H967 H 0.96809 0.59944 0.19061 0.0
H968 H 0.96149 0.58051 0.21444 0.0
H969 H 0.95714 0.59729 0.22716 0.0
H970 H 0.97282 0.61847 0.30641 0.0
H971 H 0.9478 0.60324 0.34125 0.0
H972 H 0.44659 0.39023 0.32008 0.0
H973 H 0.43139 0.39951 0.28438 0.0
H974 H 0.38437 0.34989 0.29515 0.0
H975 H 0.39941 0.34056 0.33148 0.0
H976 H 0.41487 0.38537 0.22844 0.0
H977 H 0.36809 0.38444 0.31563 0.0
H978 H 0.38704 0.3831 0.32655 0.0
H979 H 0.36811 0.36429 0.31123 0.0
C980 C 0.43302 0.38124 0.31488 0.0
C981 C 0.42418 0.36469 0.32884 0.0
C982 C 0.42436 0.38658 0.29442 0.0
C983 C 0.40669 0.3755 0.2875 0.0
C984 C 0.39792 0.35878 0.30071 0.0
H985 H 0.3384 0.39799 0.17242 0.0
H986 H 0.34985 0.38281 0.20371 0.0
C987 C 0.40656 0.35344 0.32131 0.0
C988 C 0.39759 0.38164 0.26653 0.0
H989 H 0.36538 0.39213 0.26429 0.0
C990 C 0.404 0.38677 0.23623 0.0
C991 C 0.38335 0.3834 0.27672 0.0
C992 C 0.37629 0.37867 0.30937 0.0
C993 C 0.39673 0.39382 0.21597 0.0
C994 C 0.38283 0.39602 0.22644 0.0
C995 C 0.37605 0.39042 0.25638 0.0
C996 C 0.37586 0.40505 0.20732 0.0
C997 C 0.40401 0.39893 0.18353 0.0
C998 C 0.38662 0.42264 0.19947 0.0
C999 C 0.38014 0.43134 0.18176 0.0
C1000 C 0.36272 0.42264 0.1716 0.0
C1001 C 0.35189 0.40505 0.17978 0.0
C1002 C 0.3584 0.39635 0.19764 0.0
H1003 H 0.41111 0.39212 0.17633 0.0
H1004 H 0.39351 0.39596 0.1664 0.0
H1005 H 0.41333 0.41316 0.18289 0.0
H1006 H 0.40004 0.42968 0.20725 0.0
H1007 H 0.38883 0.4449 0.17601 0.0
H1008 H 0.59754 0.94794 0.15835 0.0
H1009 H 0.61051 0.97311 0.19351 0.0
H1010 H 0.55937 0.95969 0.22643 0.0
H1011 H 0.54629 0.93459 0.19153 0.0
H1012 H 0.58147 0.9955 0.2055 0.0
H1013 H 0.61368 0.97363 0.29122 0.0
H1014 H 0.61747 0.97179 0.25063 0.0
H1015 H 0.59607 0.95855 0.26648 0.0
C1016 C 0.58907 0.95024 0.17331 0.0
C1017 C 0.57088 0.93926 0.1721 0.0
C1018 C 0.59651 0.96459 0.19342 0.0
C1019 C 0.58588 0.96816 0.2126 0.0
C1020 C 0.56777 0.9571 0.21179 0.0
H1021 H 0.6015 0.0355 0.36654 0.0
H1022 H 0.59412 0.01148 0.33047 0.0
C1023 C 0.56034 0.94275 0.19186 0.0
C1024 C 0.59341 0.98386 0.23256 0.0
H1025 H 0.61721 0.00161 0.29858 0.0
C1026 C 0.5894 0.99694 0.22573 0.0
C1027 C 0.60365 0.98556 0.25895 0.0
C1028 C 0.60795 0.97163 0.26755 0.0
C1029 C 0.59519 0.01163 0.24487 0.0
C1030 C 0.60535 0.0133 0.27139 0.0
C1031 C 0.60952 1.00031 0.27807 0.0
C1032 C 0.61076 0.0279 0.29351 0.0
C1033 C 0.58994 0.02499 0.23721 0.0
C1034 C 0.62275 0.04506 0.28474 0.0
C1035 C 0.62703 0.05885 0.30533 0.0
C1036 C 0.61933 0.05569 0.33498 0.0
C1037 C 0.60759 0.03842 0.34383 0.0
C1038 C 0.6034 0.02465 0.32331 0.0
H1039 H 0.57969 0.02031 0.21898 0.0
H1040 H 0.58508 0.02842 0.25832 0.0
H1041 H 0.60148 0.03704 0.22864 0.0
H1042 H 0.62868 0.04777 0.2619 0.0
H1043 H 0.63617 0.072 0.29786 0.0
H1044 H 0.36291 0.96062 0.63495 0.0
H1045 H 0.37519 0.986 0.66937 0.0
H1046 H 0.38776 0.95794 0.73683 0.0
H1047 H 0.37605 0.93273 0.70213 0.0
H1048 H 0.36746 0.99136 0.72703 0.0
H1049 H 0.43429 0.0013 0.72575 0.0
H1050 H 0.4175 0.9864 0.69964 0.0
H1051 H 0.41852 0.97995 0.73895 0.0
C1052 C 0.36826 0.95984 0.65715 0.0
C1053 C 0.36869 0.94474 0.66568 0.0
C1054 C 0.37527 0.97435 0.67679 0.0
C1055 C 0.38276 0.97401 0.70536 0.0
C1056 C 0.38253 0.95869 0.71449 0.0
H1057 H 0.40675 0.04498 0.8602 0.0
H1058 H 0.39288 0.02129 0.82249 0.0
C1059 C 0.37572 0.94425 0.69472 0.0
C1060 C 0.39088 0.98971 0.72553 0.0
H1061 H 0.42853 0.01741 0.7636 0.0
C1062 C 0.38085 0.99714 0.73488 0.0
C1063 C 0.40847 0.99747 0.73522 0.0
C1064 C 0.42038 0.99099 0.72411 0.0
C1065 C 0.38779 0.01186 0.7543 0.0
C1066 C 0.40509 0.01903 0.76536 0.0
C1067 C 0.41522 0.01182 0.7554 0.0
C1068 C 0.41296 0.03385 0.78754 0.0
C1069 C 0.3766 0.01971 0.76228 0.0
C1070 C 0.42908 0.04867 0.78081 0.0
C1071 C 0.43722 0.06208 0.80261 0.0
C1072 C 0.42935 0.06098 0.83153 0.0
C1073 C 0.41306 0.0463 0.83801 0.0
C1074 C 0.40504 0.03279 0.81636 0.0
H1075 H 0.36639 0.01653 0.74437 0.0
H1076 H 0.36992 0.01427 0.78474 0.0
H1077 H 0.38452 0.0341 0.76455 0.0
H1078 H 0.43547 0.04976 0.75878 0.0
H1079 H 0.44975 0.07323 0.79691 0.0
H1080 H 0.05303 0.40126 0.65246 0.0
H1081 H 0.02823 0.38666 0.68792 0.0
H1082 H 0.04058 0.43631 0.7272 0.0
H1083 H 0.06547 0.45102 0.69212 0.0
H1084 H 0.03214 0.40954 0.77179 0.0
H1085 H 0.983 0.38889 0.67698 0.0
H1086 H 0.99922 0.38254 0.67246 0.0
H1087 H 0.00556 0.40521 0.6714 0.0
C1088 C 0.05056 0.40907 0.66879 0.0
C1089 C 0.06116 0.42733 0.6693 0.0
C1090 C 0.03633 0.40071 0.68891 0.0
C1091 C 0.03244 0.41044 0.7098 0.0
C1092 C 0.04333 0.42858 0.71112 0.0
H1093 H 0.93954 0.38956 0.80651 0.0
H1094 H 0.9645 0.39912 0.77183 0.0
C1095 C 0.05753 0.43696 0.69101 0.0
C1096 C 0.01681 0.40188 0.72988 0.0
H1097 H 0.97234 0.38013 0.72792 0.0
C1098 C 0.01906 0.403 0.76226 0.0
C1099 C 0.99978 0.39353 0.71727 0.0
C1100 C 0.99664 0.39254 0.68264 0.0
C1101 C 0.0047 0.3961 0.78245 0.0
C1102 C 0.98767 0.3877 0.76984 0.0
C1103 C 0.98543 0.38646 0.73746 0.0
C1104 C 0.97206 0.38108 0.78987 0.0
C1105 C 0.00786 0.39836 0.81707 0.0
C1106 C 0.96783 0.36749 0.81104 0.0
C1107 C 0.95355 0.36198 0.83094 0.0
C1108 C 0.94324 0.36994 0.82993 0.0
C1109 C 0.94724 0.38319 0.808 0.0
C1110 C 0.96149 0.38867 0.78812 0.0
H1111 H 0.02158 0.40815 0.82267 0.0
H1112 H 0.99916 0.40245 0.82815 0.0
H1113 H 0.00497 0.38573 0.82746 0.0
H1114 H 0.97567 0.36127 0.81236 0.0
H1115 H 0.95078 0.35168 0.84745 0.0
H1116 H 0.61032 0.55387 0.80982 0.0
H1117 H 0.6 0.56972 0.77801 0.0
H1118 H 0.64938 0.61691 0.78941 0.0
H1119 H 0.65993 0.60115 0.82129 0.0
H1120 H 0.5984 0.60026 0.79772 0.0
H1121 H 0.64026 0.61229 0.69359 0.0
H1122 H 0.63639 0.59568 0.72188 0.0
H1123 H 0.651 0.61819 0.73078 0.0
C1124 C 0.61907 0.56759 0.80543 0.0
C1125 C 0.63597 0.57625 0.81807 0.0
C1126 C 0.61312 0.57662 0.7873 0.0
C1127 C 0.62397 0.59442 0.78122 0.0
C1128 C 0.6409 0.60312 0.79355 0.0
H1129 H 0.60228 0.6626 0.66504 0.0
H1130 H 0.61638 0.65181 0.70057 0.0
C1131 C 0.64686 0.5941 0.81183 0.0
C1132 C 0.61727 0.60388 0.7627 0.0
H1133 H 0.62108 0.62344 0.69251 0.0
C1134 C 0.60339 0.60541 0.77476 0.0
C1135 C 0.62394 0.61069 0.73293 0.0
C1136 C 0.63865 0.60909 0.71878 0.0
C1137 C 0.59583 0.6134 0.75765 0.0
C1138 C 0.60208 0.61967 0.72739 0.0
C1139 C 0.6163 0.61859 0.71568 0.0
C1140 C 0.59343 0.6265 0.70688 0.0
C1141 C 0.58127 0.61511 0.77219 0.0
C1142 C 0.57591 0.61579 0.69849 0.0
C1143 C 0.56782 0.62191 0.67833 0.0
C1144 C 0.57714 0.63882 0.66588 0.0
C1145 C 0.59471 0.64953 0.67428 0.0
C1146 C 0.6028 0.64339 0.69454 0.0
H1147 H 0.58175 0.61479 0.79799 0.0
H1148 H 0.58181 0.6274 0.76497 0.0
H1149 H 0.56858 0.60402 0.7646 0.0
H1150 H 0.56855 0.60257 0.70715 0.0
H1151 H 0.5543 0.61326 0.67219 0.0
H1152 H 0.18386 0.01771 0.92736 0.0
H1153 H 0.1911 0.04667 0.94504 0.0
H1154 H 0.23219 0.04921 0.00255 0.0
H1155 H 0.22465 0.01982 0.98557 0.0
H1156 H 0.21408 0.06103 0.03318 0.0
H1157 H 0.23118 0.09252 0.91793 0.0
H1158 H 0.20974 0.0738 0.91723 0.0
H1159 H 0.2283 0.07113 0.92461 0.0
C1160 C 0.19448 0.02441 0.94372 0.0
C1161 C 0.20376 0.01649 0.9549 0.0
C1162 C 0.19871 0.04106 0.9536 0.0
C1163 C 0.21252 0.05034 0.97442 0.0
C1164 C 0.22162 0.04237 0.98617 0.0
H1165 H 0.24057 0.15953 0.00551 0.0
H1166 H 0.2433 0.13403 0.99261 0.0
C1167 C 0.21727 0.02557 0.97651 0.0
C1168 C 0.21684 0.06806 0.98469 0.0
H1169 H 0.22342 0.10701 0.95716 0.0
C1170 C 0.21641 0.07119 0.01659 0.0
C1171 C 0.22037 0.08152 0.96318 0.0
C1172 C 0.22263 0.07964 0.92887 0.0
C1173 C 0.21828 0.087 0.02736 0.0
C1174 C 0.22011 0.0998 0.00558 0.0
C1175 C 0.22169 0.0971 0.97386 0.0
C1176 C 0.21916 0.11544 0.0149 0.0
C1177 C 0.21813 0.08972 0.06197 0.0
C1178 C 0.20462 0.11347 0.03137 0.0
C1179 C 0.20312 0.12796 0.03896 0.0
C1180 C 0.21596 0.14478 0.02975 0.0
C1181 C 0.23046 0.14676 0.01297 0.0
C1182 C 0.23205 0.13221 0.00563 0.0
H1183 H 0.22315 0.08228 0.07489 0.0
H1184 H 0.2261 0.1037 0.0683 0.0
H1185 H 0.20453 0.08489 0.0697 0.0
H1186 H 0.19421 0.10065 0.03785 0.0
H1187 H 0.19168 0.12591 0.0516 0.0
H1188 H 0.97175 0.20372 0.00353 0.0
H1189 H 0.94325 0.18341 0.02635 0.0
H1190 H 0.95128 0.14036 0.0052 0.0
H1191 H 0.97941 0.16038 0.98206 0.0
H1192 H 0.92071 0.13732 0.98008 0.0
H1193 H 0.92717 0.15324 0.1064 0.0
H1194 H 0.93404 0.17107 0.07955 0.0
H1195 H 0.94585 0.15954 0.08167 0.0
C1196 C 0.9676 0.18997 0.00454 0.0
C1197 C 0.97772 0.1836 0.99081 0.0
C1198 C 0.95134 0.1784 0.01756 0.0
C1199 C 0.94517 0.16039 0.01736 0.0
C1200 C 0.95578 0.1542 0.00543 0.0
H1201 H 0.86413 0.06865 0.09742 0.0
H1202 H 0.89035 0.09576 0.08389 0.0
C1203 C 0.97186 0.16566 0.99225 0.0
C1204 C 0.92709 0.14764 0.02657 0.0
H1205 H 0.89995 0.13064 0.08898 0.0
C1206 C 0.91607 0.13595 0.00383 0.0
C1207 C 0.92116 0.14595 0.05754 0.0
C1208 C 0.93264 0.15801 0.08286 0.0
C1209 C 0.89953 0.12211 0.01142 0.0
C1210 C 0.89368 0.12017 0.04254 0.0
C1211 C 0.90445 0.13225 0.06511 0.0
C1212 C 0.87728 0.10463 0.05258 0.0
C1213 C 0.8889 0.10917 0.98637 0.0
C1214 C 0.86113 0.10073 0.03987 0.0
C1215 C 0.84605 0.08507 0.04729 0.0
C1216 C 0.84689 0.07314 0.06781 0.0
C1217 C 0.863 0.07746 0.08139 0.0
C1218 C 0.87802 0.09302 0.07383 0.0
H1219 H 0.89678 0.11058 0.96535 0.0
H1220 H 0.88318 0.0956 0.99506 0.0
H1221 H 0.87806 0.1113 0.97931 0.0
H1222 H 0.86023 0.10967 0.02383 0.0
H1223 H 0.83382 0.08223 0.0367 0.0
H1224 H 0.79723 0.77869 0.97869 0.0
H1225 H 0.81832 0.77121 -7e-05 0.0
H1226 H 0.86002 0.8159 0.95406 0.0
H1227 H 0.83905 0.82309 0.93199 0.0
H1228 H 0.86288 0.78767 0.94541 0.0
H1229 H 0.85189 0.79377 0.07079 0.0
H1230 H 0.8327 0.77845 0.05006 0.0
H1231 H 0.84311 0.80124 0.04054 0.0
C1232 C 0.81092 0.78699 0.97337 0.0
C1233 C 0.81648 0.8015 0.95372 0.0
C1234 C 0.82296 0.78273 0.98562 0.0
C1235 C 0.84079 0.79312 0.97892 0.0
C1236 C 0.84633 0.80768 0.95954 0.0
H1237 H 0.93098 0.80474 0.07167 0.0
H1238 H 0.90564 0.80559 0.05206 0.0
C1239 C 0.83432 0.8118 0.94699 0.0
C1240 C 0.85379 0.78877 0.99132 0.0
H1241 H 0.87148 0.78391 0.05848 0.0
C1242 C 0.86473 0.78678 0.97014 0.0
C1243 C 0.85623 0.78771 0.0236 0.0
C1244 C 0.84548 0.79056 0.04761 0.0
C1245 C 0.87835 0.78425 0.9803 0.0
C1246 C 0.88076 0.78312 0.01257 0.0
C1247 C 0.86953 0.78465 0.03374 0.0
C1248 C 0.89575 0.7819 0.025 0.0
C1249 C 0.8905 0.78364 0.95638 0.0
C1250 C 0.89854 0.76816 0.01664 0.0
C1251 C 0.91324 0.76777 0.02751 0.0
C1252 C 0.92519 0.78094 0.0474 0.0
C1253 C 0.92204 0.79438 0.0564 0.0
C1254 C 0.90752 0.79487 0.04525 0.0
H1255 H 0.88945 0.78897 0.9336 0.0
H1256 H 0.90424 0.79111 0.96432 0.0
H1257 H 0.8871 0.7699 0.95268 0.0
H1258 H 0.88941 0.75778 0.00164 0.0
H1259 H 0.9152 0.75715 0.02041 0.0
H1260 H 0.16651 0.24437 0.46336 0.0
H1261 H 0.14021 0.24624 0.47281 0.0
H1262 H 0.11057 0.20117 0.41465 0.0
H1263 H 0.13668 0.19948 0.40443 0.0
H1264 H 0.10092 0.22604 0.40633 0.0
H1265 H 0.1032 0.21205 0.53197 0.0
H1266 H 0.12189 0.23126 0.51726 0.0
H1267 H 0.11714 0.21016 0.50363 0.0
C1268 C 0.15442 0.23498 0.45233 0.0
C1269 C 0.15366 0.22163 0.43348 0.0
C1270 C 0.13941 0.23604 0.45783 0.0
C1271 C 0.12337 0.22366 0.44486 0.0
C1272 C 0.12279 0.21085 0.42493 0.0
H1273 H 0.02043 0.17488 0.50884 0.0
H1274 H 0.04957 0.18455 0.48891 0.0
C1275 C 0.13775 0.20985 0.41925 0.0
C1276 C 0.10686 0.22296 0.45367 0.0
H1277 H 0.07895 0.21351 0.51468 0.0
C1278 C 0.09618 0.22355 0.43008 0.0
C1279 C 0.10068 0.21957 0.48466 0.0
C1280 C 0.11122 0.21807 0.51086 0.0
C1281 C 0.07921 0.22015 0.43648 0.0
C1282 C 0.07291 0.21628 0.4673 0.0
C1283 C 0.08388 0.21649 0.49106 0.0
C1284 C 0.05448 0.21011 0.47525 0.0
C1285 C 0.06782 0.21981 0.41011 0.0
C1286 C 0.04735 0.22112 0.47329 0.0
C1287 C 0.03051 0.21553 0.4845 0.0
C1288 C 0.02073 0.19896 0.49815 0.0
C1289 C 0.02767 0.18776 0.49869 0.0
C1290 C 0.04434 0.19327 0.48734 0.0
H1291 H 0.07381 0.22063 0.38702 0.0
H1292 H 0.05492 0.20771 0.411 0.0
H1293 H 0.06562 0.23104 0.41243 0.0
H1294 H 0.05505 0.23424 0.46434 0.0
H1295 H 0.02554 0.22448 0.48398 0.0
H1296 H 0.77583 0.79353 0.50909 0.0
H1297 H 0.76776 0.81478 0.49088 0.0
H1298 H 0.81285 0.85594 0.53699 0.0
H1299 H 0.82062 0.83482 0.55602 0.0
H1300 H 0.78446 0.85814 0.54889 0.0
H1301 H 0.78913 0.84989 0.4218 0.0
H1302 H 0.77424 0.83028 0.44195 0.0
H1303 H 0.79717 0.84067 0.45024 0.0
C1304 C 0.78408 0.80714 0.51507 0.0
C1305 C 0.79887 0.8125 0.53395 0.0
C1306 C 0.77949 0.81928 0.50458 0.0
C1307 C 0.7898 0.837 0.5123 0.0
C1308 C 0.80467 0.84234 0.5308 0.0
H1309 H 0.80156 0.92917 0.42897 0.0
H1310 H 0.80222 0.90338 0.4464 0.0
C1311 C 0.80912 0.83025 0.54159 0.0
C1312 C 0.78514 0.85012 0.50187 0.0
H1313 H 0.77989 0.86948 0.43737 0.0
C1314 C 0.78337 0.86058 0.5245 0.0
C1315 C 0.78379 0.85331 0.47004 0.0
C1316 C 0.78632 0.84307 0.44455 0.0
C1317 C 0.78089 0.8745 0.51621 0.0
C1318 C 0.7796 0.87773 0.48437 0.0
C1319 C 0.78079 0.86692 0.46177 0.0
C1320 C 0.77866 0.89319 0.47382 0.0
C1321 C 0.78054 0.8861 0.54158 0.0
C1322 C 0.76512 0.89606 0.48331 0.0
C1323 C 0.76485 0.91103 0.4737 0.0
C1324 C 0.77793 0.92319 0.45398 0.0
C1325 C 0.79126 0.92008 0.44412 0.0
C1326 C 0.79163 0.90529 0.454 0.0
H1327 H 0.78584 0.88435 0.56385 0.0
H1328 H 0.78818 0.90004 0.5348 0.0
H1329 H 0.76689 0.88283 0.54573 0.0
H1330 H 0.75475 0.88671 0.49805 0.0
H1331 H 0.75431 0.91297 0.48144 0.0
H1332 H 0.07404 0.8733 0.42857 0.0
H1333 H 0.10037 0.89856 0.44794 0.0
H1334 H 0.11492 0.86475 0.49505 0.0
H1335 H 0.08812 0.83924 0.47653 0.0
H1336 H 0.11923 0.8902 0.53203 0.0
H1337 H 0.14961 0.91939 0.4195 0.0
H1338 H 0.12797 0.91607 0.42127 0.0
H1339 H 0.13126 0.89758 0.42246 0.0
C1340 C 0.08288 0.87118 0.44285 0.0
C1341 C 0.07901 0.85424 0.4509 0.0
C1342 C 0.09804 0.88568 0.45368 0.0
C1343 C 0.10989 0.88358 0.47227 0.0
C1344 C 0.10606 0.86668 0.48046 0.0
H1345 H 0.20826 0.97844 0.52009 0.0
H1346 H 0.18742 0.94976 0.49871 0.0
C1347 C 0.09074 0.85212 0.46991 0.0
C1348 C 0.12562 0.89914 0.48469 0.0
H1349 H 0.15922 0.93902 0.46364 0.0
C1350 C 0.12814 0.90075 0.51702 0.0
C1351 C 0.13753 0.91277 0.46516 0.0
C1352 C 0.13656 0.91127 0.43017 0.0
C1353 C 0.14161 0.916 0.5304 0.0
C1354 C 0.15252 0.93025 0.51099 0.0
C1355 C 0.15065 0.92825 0.47859 0.0
C1356 C 0.16527 0.94756 0.52389 0.0
C1357 C 0.14393 0.91667 0.56524 0.0
C1358 C 0.15967 0.95603 0.54452 0.0
C1359 C 0.17152 0.97227 0.55693 0.0
C1360 C 0.1892 0.98058 0.54851 0.0
C1361 C 0.19473 0.97236 0.52705 0.0
C1362 C 0.18285 0.95597 0.51489 0.0
H1363 H 0.13916 0.90344 0.575 0.0
H1364 H 0.1578 0.92507 0.57195 0.0
H1365 H 0.1362 0.92201 0.57599 0.0
H1366 H 0.14608 0.95012 0.55097 0.0
H1367 H 0.16677 0.97833 0.57307 0.0
H1368 H 0.78019 0.98385 0.00061 0.0
H1369 H 0.77522 0.95704 0.97477 0.0
H1370 H 0.80113 0.94712 0.05027 0.0
H1371 H 0.80638 0.97382 0.07588 0.0
H1372 H 0.81274 0.94389 0.99275 0.0
H1373 H 0.74041 0.90638 -0.00138 0.0
H1374 H 0.74964 0.92751 0.98081 0.0
H1375 H 0.75334 0.9258 0.0214 0.0
C1376 C 0.78477 0.97592 0.01173 0.0
C1377 C 0.79368 0.981 0.04032 0.0
C1378 C 0.78182 0.96055 0.99704 0.0
C1379 C 0.78762 0.94999 0.01081 0.0
C1380 C 0.7965 0.95506 0.03928 0.0
H1381 H 0.7642 0.84433 0.97891 0.0
H1382 H 0.76548 0.87112 0.99729 0.0
C1383 C 0.79949 0.97036 0.05388 0.0
C1384 C 0.7851 0.93392 0.9954 0.0
H1385 H 0.75418 0.89304 0.97245 0.0
C1386 C 0.79994 0.9328 0.98816 0.0
C1387 C 0.76838 0.91942 0.98979 0.0
C1388 C 0.75199 0.91968 -0.00175 0.0
C1389 C 0.79855 0.91751 0.97578 0.0
C1390 C 0.78183 0.90306 0.96981 0.0
C1391 C 0.76696 0.9042 0.97684 0.0
C1392 C 0.77964 0.88649 0.95729 0.0
C1393 C 0.815 0.91681 0.97018 0.0
C1394 C 0.78672 0.88614 0.92833 0.0
C1395 C 0.78616 0.87095 0.91793 0.0
C1396 C 0.77829 0.85571 0.93612 0.0
C1397 C 0.77042 0.85585 0.96442 0.0
C1398 C 0.77111 0.87113 0.97492 0.0
H1399 H 0.82626 0.92719 0.98316 0.0
H1400 H 0.81329 0.90398 0.97713 0.0
H1401 H 0.81822 0.91873 0.94503 0.0
H1402 H 0.79301 0.89775 0.91404 0.0
H1403 H 0.79215 0.87124 0.89582 0.0
H1404 H 0.15803 0.92119 0.99123 0.0
H1405 H 0.13064 0.89597 0.00835 0.0
H1406 H 0.10648 0.89638 0.9215 0.0
H1407 H 0.13353 0.92166 0.90454 0.0
H1408 H 0.08745 0.89563 0.97095 0.0
H1409 H 0.10602 0.84473 0.98355 0.0
H1410 H 0.11988 0.86442 0.00456 0.0
H1411 H 0.1193 0.86483 0.96279 0.0
C1412 C 0.14694 0.91577 0.97566 0.0
C1413 C 0.14794 0.9235 0.94661 0.0
C1414 C 0.13133 0.90128 0.98538 0.0
C1415 C 0.11657 0.89417 0.96604 0.0
C1416 C 0.11771 0.90162 0.93676 0.0
H1417 H 0.01607 0.79976 -0.00126 0.0
H1418 H 0.04436 0.8213 0.9769 0.0
C1419 C 0.1332 0.91611 0.92714 0.0
C1420 C 0.09952 0.87992 0.97708 0.0
H1421 H 0.07849 0.83819 0.00473 0.0
C1422 C 0.08548 0.88303 0.97814 0.0
C1423 C 0.09691 0.86342 0.98609 0.0
C1424 C 0.11127 0.85904 0.98394 0.0
C1425 C 0.06901 0.87026 0.98857 0.0
C1426 C 0.06658 0.85404 -0.00119 0.0
C1427 C 0.08046 0.85071 0.99707 0.0
C1428 C 0.04984 0.84068 0.01241 0.0
C1429 C 0.05432 0.87424 0.9884 0.0
C1430 C 0.04376 0.84438 0.03981 0.0
C1431 C 0.02768 0.83223 0.0522 0.0
C1432 C 0.01734 0.81602 0.03757 0.0
C1433 C 0.02365 0.81216 0.01046 0.0
C1434 C 0.03982 0.8244 -0.00198 0.0
H1435 H 0.05696 0.88505 0.97219 0.0
H1436 H 0.04182 0.86258 0.98166 0.0
H1437 H 0.05279 0.87825 0.0121 0.0
H1438 H 0.05145 0.85675 0.05156 0.0
H1439 H 0.02334 0.8356 0.07327 0.0
H1440 H 0.15477 0.17538 0.01081 0.0
H1441 H 0.13494 0.18487 0.992 0.0
H1442 H 0.17862 0.23437 0.96506 0.0
H1443 H 0.19875 0.22479 0.98357 0.0
H1444 H 0.13483 0.21401 0.01766 0.0
H1445 H 0.145 0.21996 0.88944 0.0
H1446 H 0.15143 0.20732 0.91321 0.0
H1447 H 0.164 0.23066 0.91388 0.0
C1448 C 0.16021 0.18818 0.00038 0.0
C1449 C 0.17832 0.19938 -0.00117 0.0
C1450 C 0.14885 0.19359 0.98968 0.0
C1451 C 0.1553 0.21032 0.97725 0.0
C1452 C 0.17338 0.22132 0.9743 0.0
H1453 H 0.07723 0.24437 0.96814 0.0
H1454 H 0.10546 0.24623 0.97684 0.0
C1455 C 0.18485 0.21584 0.98485 0.0
C1456 C 0.14288 0.21637 0.96987 0.0
H1457 H 0.12359 0.2255 0.90972 0.0
C1458 C 0.13249 0.21677 0.99413 0.0
C1459 C 0.13994 0.21994 0.93915 0.0
C1460 C 0.15057 0.21939 0.91227 0.0
C1461 C 0.11863 0.21973 0.98835 0.0
C1462 C 0.11532 0.22282 0.95748 0.0
C1463 C 0.12623 0.22323 0.93337 0.0
C1464 C 0.09935 0.22338 0.94938 0.0
C1465 C 0.10701 0.21845 0.0151 0.0
C1466 C 0.08687 0.21038 0.93005 0.0
C1467 C 0.07088 0.20939 0.92482 0.0
C1468 C 0.06696 0.22136 0.93889 0.0
C1469 C 0.07976 0.23483 0.95725 0.0
C1470 C 0.09587 0.23589 0.9623 0.0
H1471 H 0.10937 0.21266 0.03616 0.0
H1472 H 0.10956 0.23168 0.02126 0.0
H1473 H 0.09306 0.21042 0.00857 0.0
H1474 H 0.08927 0.2006 0.91984 0.0
H1475 H 0.06139 0.1989 0.91039 0.0
H1476 H 0.98686 0.7848 0.49713 0.0
H1477 H 0.95816 0.77779 0.51705 0.0
H1478 H 0.95128 0.8043 0.43896 0.0
H1479 H 0.97989 0.81164 0.41931 0.0
H1480 H 0.94394 0.81423 0.49377 0.0
H1481 H 0.90969 0.74203 0.48581 0.0
H1482 H 0.92965 0.75154 0.50764 0.0
H1483 H 0.93021 0.75585 0.46669 0.0
C1484 C 0.97919 0.78906 0.48416 0.0
C1485 C 0.98571 0.79882 0.45668 0.0
C1486 C 0.96274 0.78493 0.49544 0.0
C1487 C 0.95248 0.79032 0.47924 0.0
C1488 C 0.95895 0.79997 0.45177 0.0
H1489 H 0.84405 0.76231 0.50346 0.0
H1490 H 0.87141 0.76477 0.48509 0.0
C1491 C 0.97535 0.80417 0.44061 0.0
C1492 C 0.9354 0.78683 0.49148 0.0
H1493 H 0.89454 0.75441 0.51099 0.0
C1494 C 0.93314 0.80114 0.49751 0.0
C1495 C 0.92127 0.76975 0.49595 0.0
C1496 C 0.9227 0.75388 0.48844 0.0
C1497 C 0.91719 0.79887 0.50806 0.0
C1498 C 0.9032 0.78182 0.51342 0.0
C1499 C 0.90535 0.76746 0.50711 0.0
C1500 C 0.8863 0.7788 0.52563 0.0
C1501 C 0.91537 0.81477 0.51281 0.0
C1502 C 0.88555 0.78541 0.55484 0.0
C1503 C 0.87006 0.78415 0.56524 0.0
C1504 C 0.85493 0.77607 0.54678 0.0
C1505 C 0.85549 0.76867 0.51816 0.0
C1506 C 0.87108 0.77004 0.50766 0.0
H1507 H 0.92553 0.82625 0.5 0.0
H1508 H 0.90237 0.81229 0.50508 0.0
H1509 H 0.91679 0.81811 0.53792 0.0
H1510 H 0.89707 0.79189 0.56934 0.0
H1511 H 0.87005 0.78978 0.5876 0.0
H1512 H 0.17911 0.15948 0.47472 0.0
H1513 H 0.18666 0.13915 0.49839 0.0
H1514 H 0.23751 0.18182 0.52212 0.0
H1515 H 0.22985 0.20243 0.49891 0.0
H1516 H 0.21344 0.13509 0.4759 0.0
H1517 H 0.2228 0.1522 0.60162 0.0
H1518 H 0.21141 0.15919 0.5758 0.0
H1519 H 0.23476 0.16988 0.57498 0.0
C1520 C 0.19177 0.16461 0.48556 0.0
C1521 C 0.20393 0.18253 0.48483 0.0
C1522 C 0.19608 0.15296 0.49903 0.0
C1523 C 0.21265 0.15896 0.51194 0.0
C1524 C 0.22457 0.17694 0.51265 0.0
H1525 H 0.24699 0.08191 0.5352 0.0
H1526 H 0.24692 0.10859 0.52037 0.0
C1527 C 0.22018 0.18869 0.49938 0.0
C1528 C 0.21767 0.14607 0.52191 0.0
H1529 H 0.2283 0.12999 0.58511 0.0
C1530 C 0.21682 0.13403 0.49974 0.0
C1531 C 0.22205 0.14476 0.553 0.0
C1532 C 0.22271 0.15709 0.57787 0.0
C1533 C 0.2196 0.12031 0.50799 0.0
C1534 C 0.22382 0.11887 0.53916 0.0
C1535 C 0.2252 0.13122 0.56118 0.0
C1536 C 0.22515 0.10368 0.54987 0.0
C1537 C 0.21715 0.10703 0.48354 0.0
C1538 C 0.21334 0.0924 0.57211 0.0
C1539 C 0.21344 0.0773 0.5808 0.0
C1540 C 0.22536 0.0731 0.56739 0.0
C1541 C 0.23752 0.08467 0.54571 0.0
C1542 C 0.23748 0.09989 0.53717 0.0
H1543 H 0.21026 0.10794 0.46267 0.0
H1544 H 0.23009 0.10928 0.47602 0.0
H1545 H 0.20965 0.0936 0.49298 0.0
H1546 H 0.20371 0.09507 0.5822 0.0
H1547 H 0.20392 0.06874 0.59766 0.0
H1548 H 0.91853 0.15915 0.50918 0.0
H1549 H 0.88994 0.13385 0.49753 0.0
H1550 H 0.90604 0.10002 0.53983 0.0
H1551 H 0.93423 0.12509 0.55234 0.0
H1552 H 0.88179 0.10685 0.46149 0.0
H1553 H 0.85953 0.08191 0.57991 0.0
H1554 H 0.87797 0.10329 0.57285 0.0
H1555 H 0.88059 0.08438 0.57319 0.0
C1556 C 0.91589 0.14632 0.51625 0.0
C1557 C 0.92863 0.14416 0.53185 0.0
C1558 C 0.89954 0.13189 0.50964 0.0
C1559 C 0.89566 0.11505 0.51849 0.0
C1560 C 0.90846 0.1129 0.53374 0.0
H1561 H 0.83382 0.01784 0.43208 0.0
H1562 H 0.85495 0.04699 0.44964 0.0
C1563 C 0.92468 0.12728 0.5406 0.0
C1564 C 0.87881 0.09951 0.50985 0.0
H1565 H 0.8467 0.06062 0.5382 0.0
C1566 C 0.87394 0.0969 0.47838 0.0
C1567 C 0.86825 0.08666 0.53189 0.0
C1568 C 0.87177 0.08932 0.56637 0.0
C1569 C 0.85955 0.0813 0.46812 0.0
C1570 C 0.85009 0.06775 0.48976 0.0
C1571 C 0.85417 0.07085 0.5215 0.0
C1572 C 0.83696 0.04992 0.47959 0.0
C1573 C 0.85483 0.07942 0.43406 0.0
C1574 C 0.81995 0.04147 0.49167 0.0
C1575 C 0.8078 0.02455 0.482 0.0
C1576 C 0.81251 0.01582 0.46011 0.0
C1577 C 0.82966 0.02423 0.44865 0.0
C1578 C 0.84176 0.041 0.45848 0.0
H1579 H 0.85876 0.09229 0.4234 0.0
H1580 H 0.86188 0.07383 0.42163 0.0
H1581 H 0.84062 0.07072 0.43045 0.0
H1582 H 0.81603 0.04804 0.50831 0.0
H1583 H 0.7947 0.01841 0.49129 0.0
H1584 H 0.88036 0.472 0.43557 0.0
H1585 H 0.88022 0.44516 0.42225 0.0
H1586 H 0.9053 0.46773 0.33494 0.0
H1587 H 0.90586 0.49482 0.3484 0.0
H1588 H 0.86285 0.42459 0.37446 0.0
H1589 H 0.93262 0.44484 0.36292 0.0
H1590 H 0.92534 0.45832 0.38166 0.0
H1591 H 0.92676 0.45802 0.33992 0.0
C1592 C 0.88612 0.47139 0.41374 0.0
C1593 C 0.89307 0.48555 0.39298 0.0
C1594 C 0.88605 0.45602 0.40619 0.0
C1595 C 0.89291 0.45447 0.37776 0.0
C1596 C 0.9003 0.46875 0.35734 0.0
H1597 H 0.86058 0.36413 0.26628 0.0
H1598 H 0.8668 0.39123 0.29156 0.0
C1599 C 0.9005 0.4842 0.36498 0.0
C1600 C 0.89067 0.43738 0.36811 0.0
H1601 H 0.91222 0.41748 0.33917 0.0
C1602 C 0.87369 0.42301 0.36716 0.0
C1603 C 0.90481 0.43524 0.35893 0.0
C1604 C 0.92342 0.44989 0.3612 0.0
C1605 C 0.8704 0.40677 0.3561 0.0
C1606 C 0.88441 0.40491 0.34512 0.0
C1607 C 0.90148 0.41902 0.3473 0.0
C1608 C 0.88136 0.3887 0.32959 0.0
C1609 C 0.85189 0.39176 0.35596 0.0
C1610 C 0.88793 0.37852 0.34217 0.0
C1611 C 0.88443 0.36293 0.32766 0.0
C1612 C 0.87441 0.35738 0.30025 0.0
C1613 C 0.86822 0.36788 0.28748 0.0
C1614 C 0.87171 0.38338 0.30194 0.0
H1615 H 0.84367 0.3938 0.37302 0.0
H1616 H 0.84617 0.39063 0.33253 0.0
H1617 H 0.85141 0.37927 0.36139 0.0
H1618 H 0.89551 0.38249 0.36343 0.0
H1619 H 0.88946 0.35519 0.33802 0.0
H1620 H 0.63861 0.49579 0.25531 0.0
H1621 H 0.61091 0.47466 0.27835 0.0
H1622 H 0.62091 0.50882 0.35668 0.0
H1623 H 0.64871 0.53036 0.33341 0.0
H1624 H 0.60571 0.45799 0.33401 0.0
H1625 H 0.57141 0.49604 0.33102 0.0
H1626 H 0.59112 0.50235 0.30931 0.0
H1627 H 0.59218 0.50662 0.35034 0.0
C1628 C 0.63495 0.49892 0.27739 0.0
C1629 C 0.64591 0.5148 0.29252 0.0
C1630 C 0.61907 0.48679 0.29051 0.0
C1631 C 0.61375 0.49024 0.31902 0.0
C1632 C 0.62462 0.50605 0.33433 0.0
H1633 H 0.53286 0.4082 0.43118 0.0
H1634 H 0.55987 0.43302 0.41253 0.0
C1635 C 0.64055 0.51828 0.32112 0.0
C1636 C 0.59713 0.47683 0.33304 0.0
H1637 H 0.55682 0.46855 0.35609 0.0
C1638 C 0.59503 0.46031 0.3389 0.0
C1639 C 0.58316 0.47985 0.33902 0.0
C1640 C 0.58444 0.49712 0.33188 0.0
C1641 C 0.57934 0.44669 0.35053 0.0
C1642 C 0.56548 0.44979 0.35714 0.0
C1643 C 0.56753 0.46629 0.35123 0.0
C1644 C 0.5487 0.43587 0.36972 0.0
C1645 C 0.5776 0.42898 0.35489 0.0
C1646 C 0.5333 0.42971 0.35241 0.0
C1647 C 0.51773 0.41556 0.36313 0.0
C1648 C 0.51737 0.40735 0.39134 0.0
C1649 C 0.53272 0.41405 0.40916 0.0
C1650 C 0.54819 0.42823 0.39852 0.0
H1651 H 0.58757 0.42766 0.34141 0.0
H1652 H 0.5794 0.4271 0.37984 0.0
H1653 H 0.56449 0.41845 0.34766 0.0
H1654 H 0.53343 0.43552 0.33017 0.0
H1655 H 0.50614 0.41076 0.34893 0.0
H1656 H 0.50552 0.15326 0.26466 0.0
H1657 H 0.52629 0.14498 0.28347 0.0
H1658 H 0.4852 0.10165 0.33318 0.0
H1659 H 0.46431 0.11022 0.31514 0.0
H1660 H 0.51342 0.11803 0.36827 0.0
H1661 H 0.53337 0.10619 0.25352 0.0
H1662 H 0.53624 0.12768 0.25524 0.0
H1663 H 0.51468 0.10897 0.25839 0.0
C1664 C 0.50085 0.14193 0.27953 0.0
C1665 C 0.48322 0.13234 0.28826 0.0
C1666 C 0.51273 0.13711 0.29003 0.0
C1667 C 0.50723 0.1224 0.309 0.0
C1668 C 0.4897 0.11294 0.31825 0.0
H1669 H 0.58589 0.09172 0.34781 0.0
H1670 H 0.55868 0.09004 0.33063 0.0
C1671 C 0.47779 0.11788 0.308 0.0
C1672 C 0.52005 0.1175 0.32023 0.0
H1673 H 0.55354 0.11185 0.29581 0.0
C1674 C 0.52201 0.11639 0.3524 0.0
C1675 C 0.53098 0.11489 0.29958 0.0
C1676 C 0.52857 0.11429 0.26477 0.0
C1677 C 0.53528 0.11385 0.36448 0.0
C1678 C 0.54724 0.11292 0.34386 0.0
C1679 C 0.54459 0.11289 0.31167 0.0
C1680 C 0.56326 0.11331 0.35515 0.0
C1681 C 0.53641 0.11236 0.39925 0.0
C1682 C 0.57499 0.12706 0.37418 0.0
C1683 C 0.59038 0.12798 0.38416 0.0
C1684 C 0.59461 0.11531 0.37489 0.0
C1685 C 0.583 0.10165 0.3554 0.0
C1686 C 0.56745 0.10067 0.34562 0.0
H1687 H 0.52338 0.10691 0.41025 0.0
H1688 H 0.54197 0.10396 0.40544 0.0
H1689 H 0.54487 0.12552 0.40922 0.0
H1690 H 0.57237 0.1373 0.38098 0.0
H1691 H 0.5991 0.1388 0.39884 0.0
H1692 H 0.83003 0.58034 0.79845 0.0
H1693 H 0.80299 0.57967 0.81316 0.0
H1694 H 0.77378 0.5351 0.75366 0.0
H1695 H 0.80063 0.53596 0.73821 0.0
H1696 H 0.76242 0.55836 0.74877 0.0
H1697 H 0.76792 0.54436 0.87299 0.0
H1698 H 0.78592 0.5642 0.85848 0.0
H1699 H 0.78185 0.54359 0.84327 0.0
C1700 C 0.81785 0.57044 0.78844 0.0
C1701 C 0.81749 0.55812 0.76736 0.0
C1702 C 0.80241 0.57003 0.79695 0.0
C1703 C 0.78634 0.55715 0.78488 0.0
C1704 C 0.78602 0.54514 0.76328 0.0
H1705 H 0.68459 0.5116 0.8619 0.0
H1706 H 0.71299 0.51927 0.84055 0.0
C1707 C 0.80141 0.54563 0.75457 0.0
C1708 C 0.76968 0.55561 0.79534 0.0
H1709 H 0.74358 0.54676 0.85893 0.0
C1710 C 0.75831 0.55593 0.77289 0.0
C1711 C 0.76431 0.55229 0.82678 0.0
C1712 C 0.77554 0.55092 0.85178 0.0
C1713 C 0.74155 0.5526 0.7809 0.0
C1714 C 0.73619 0.54921 0.81231 0.0
C1715 C 0.74775 0.54939 0.83486 0.0
C1716 C 0.71827 0.5442 0.82229 0.0
C1717 C 0.7295 0.55199 0.75552 0.0
C1718 C 0.71159 0.55551 0.81851 0.0
C1719 C 0.69516 0.55103 0.83041 0.0
C1720 C 0.68533 0.53531 0.8467 0.0
C1721 C 0.69188 0.52384 0.84962 0.0
C1722 C 0.70814 0.52823 0.83749 0.0
H1723 H 0.73413 0.55088 0.73208 0.0
H1724 H 0.71613 0.54084 0.75896 0.0
H1725 H 0.72884 0.56416 0.75614 0.0
H1726 H 0.71931 0.56803 0.80733 0.0
H1727 H 0.69051 0.56019 0.82806 0.0
H1728 H 0.47993 0.17013 0.91569 0.0
H1729 H 0.47354 0.19203 0.89558 0.0
H1730 H 0.44917 0.16014 0.81479 0.0
H1731 H 0.45522 0.13786 0.83509 0.0
H1732 H 0.48514 0.21029 0.84198 0.0
H1733 H 0.41286 0.17267 0.84269 0.0
H1734 H 0.42597 0.16545 0.86293 0.0
H1735 H 0.42279 0.16239 0.82162 0.0
C1736 C 0.47312 0.16767 0.8937 0.0
C1737 C 0.46809 0.15221 0.87699 0.0
C1738 C 0.46947 0.18022 0.88227 0.0
C1739 C 0.46069 0.17763 0.8539 0.0
C1740 C 0.45563 0.16224 0.83707 0.0
H1741 H 0.46354 0.261 0.74443 0.0
H1742 H 0.46573 0.23631 0.7638 0.0
C1743 C 0.45921 0.14958 0.84859 0.0
C1744 C 0.4577 0.19152 0.84144 0.0
H1745 H 0.42611 0.20042 0.81813 0.0
C1746 C 0.47223 0.20813 0.83682 0.0
C1747 C 0.44083 0.18873 0.83511 0.0
C1748 C 0.42469 0.1714 0.84109 0.0
C1749 C 0.47038 0.222 0.82578 0.0
C1750 C 0.45356 0.21909 0.81849 0.0
C1751 C 0.43899 0.20255 0.82346 0.0
C1752 C 0.45097 0.23316 0.80573 0.0
C1753 C 0.48645 0.23974 0.82255 0.0
C1754 C 0.44133 0.23913 0.82231 0.0
C1755 C 0.43992 0.25322 0.81117 0.0
C1756 C 0.44813 0.26153 0.78325 0.0
C1757 C 0.45723 0.25506 0.76621 0.0
C1758 C 0.45856 0.24097 0.77727 0.0
H1759 H 0.49743 0.24085 0.83676 0.0
H1760 H 0.49064 0.2419 0.79787 0.0
H1761 H 0.48376 0.25022 0.82967 0.0
H1762 H 0.43529 0.23319 0.84426 0.0
H1763 H 0.43276 0.25784 0.82478 0.0
H1764 H 0.74579 0.20626 0.74305 0.0
H1765 H 0.77101 0.23282 0.76198 0.0
H1766 H 0.77293 0.20548 0.8435 0.0
H1767 H 0.74776 0.1786 0.82437 0.0
H1768 H 0.77231 0.24973 0.81525 0.0
H1769 H 0.82376 0.23145 0.81592 0.0
H1770 H 0.80336 0.2189 0.79554 0.0
H1771 H 0.80441 0.2167 0.83692 0.0
C1772 C 0.75165 0.20579 0.76488 0.0
C1773 C 0.74471 0.1903 0.78226 0.0
C1774 C 0.76609 0.22101 0.77563 0.0
C1775 C 0.77396 0.22111 0.80399 0.0
C1776 C 0.76728 0.20562 0.82124 0.0
H1777 H 0.83603 0.31308 0.91515 0.0
H1778 H 0.81403 0.28499 0.89433 0.0
C1779 C 0.75283 0.19029 0.81037 0.0
C1780 C 0.78831 0.23776 0.81629 0.0
H1781 H 0.83073 0.2583 0.84034 0.0
C1782 C 0.7851 0.25161 0.82063 0.0
C1783 C 0.80503 0.24025 0.82296 0.0
C1784 C 0.80946 0.2261 0.81735 0.0
C1785 C 0.79808 0.26782 0.83179 0.0
C1786 C 0.81463 0.27015 0.83944 0.0
C1787 C 0.81797 0.25641 0.83468 0.0
C1788 C 0.82852 0.28675 0.85271 0.0
C1789 C 0.79402 0.28239 0.83486 0.0
C1790 C 0.84422 0.29682 0.83665 0.0
C1791 C 0.85694 0.31292 0.84858 0.0
C1792 C 0.85414 0.31917 0.87683 0.0
C1793 C 0.83855 0.30878 0.89317 0.0
C1794 C 0.82592 0.29272 0.88129 0.0
H1795 H 0.78265 0.28001 0.82037 0.0
H1796 H 0.79083 0.28336 0.85946 0.0
H1797 H 0.80537 0.29508 0.82801 0.0
H1798 H 0.84649 0.29237 0.8146 0.0
H1799 H 0.86883 0.32054 0.83551 0.0
H1800 H 0.43146 0.17647 0.32367 0.0
H1801 H 0.43234 0.20293 0.34304 0.0
H1802 H 0.46165 0.23108 0.26217 0.0
H1803 H 0.46116 0.20496 0.24302 0.0
H1804 H 0.47665 0.24805 0.31556 0.0
H1805 H 0.40644 0.22782 0.31537 0.0
H1806 H 0.41144 0.21336 0.33641 0.0
H1807 H 0.41489 0.21577 0.29509 0.0
C1808 C 0.43793 0.18826 0.30988 0.0
C1809 C 0.4463 0.18861 0.28187 0.0
C1810 C 0.43832 0.20333 0.32087 0.0
C1811 C 0.44689 0.21893 0.30385 0.0
C1812 C 0.45493 0.21919 0.27564 0.0
H1813 H 0.44844 0.31691 0.33839 0.0
H1814 H 0.44342 0.28924 0.31621 0.0
C1815 C 0.45465 0.20422 0.26476 0.0
C1816 C 0.44864 0.23535 0.31628 0.0
H1817 H 0.42564 0.25466 0.34067 0.0
C1818 C 0.46548 0.2495 0.32092 0.0
C1819 C 0.43406 0.23729 0.3229 0.0
C1820 C 0.41568 0.22282 0.31693 0.0
C1821 C 0.46818 0.26546 0.33243 0.0
C1822 C 0.45363 0.26722 0.34013 0.0
C1823 C 0.43676 0.2532 0.33498 0.0
C1824 C 0.4558 0.28347 0.35411 0.0
C1825 C 0.48662 0.28037 0.33592 0.0
C1826 C 0.46409 0.28916 0.38298 0.0
C1827 C 0.46705 0.30492 0.39558 0.0
C1828 C 0.46164 0.31528 0.37969 0.0
C1829 C 0.45285 0.30929 0.35114 0.0
C1830 C 0.44993 0.29349 0.33848 0.0
H1831 H 0.49587 0.27847 0.32132 0.0
H1832 H 0.48757 0.29296 0.32947 0.0
H1833 H 0.49073 0.28123 0.36054 0.0
H1834 H 0.46842 0.28145 0.39568 0.0
H1835 H 0.47369 0.309 0.41777 0.0
H1836 H 0.80028 0.27145 0.25905 0.0
H1837 H 0.77414 0.24512 0.27569 0.0
H1838 H 0.80569 0.22835 0.32462 0.0
H1839 H 0.83208 0.25511 0.30878 0.0
H1840 H 0.7628 0.21115 0.26545 0.0
H1841 H 0.77272 0.22546 0.3921 0.0
H1842 H 0.78563 0.24138 0.36304 0.0
H1843 H 0.7901 0.22429 0.37295 0.0
C1844 C 0.80172 0.2622 0.27338 0.0
C1845 C 0.81829 0.26546 0.28279 0.0
C1846 C 0.78673 0.2471 0.2828 0.0
C1847 C 0.78791 0.23485 0.30172 0.0
C1848 C 0.80444 0.2378 0.31058 0.0
H1849 H 0.69155 0.13499 0.33877 0.0
H1850 H 0.72068 0.15617 0.31972 0.0
C1851 C 0.81951 0.25306 0.3014 0.0
C1852 C 0.77169 0.21924 0.31237 0.0
H1853 H 0.74775 0.19942 0.37721 0.0
C1854 C 0.75953 0.20848 0.2899 0.0
C1855 C 0.76743 0.21589 0.34427 0.0
C1856 C 0.77956 0.22742 0.36953 0.0
C1857 C 0.74301 0.19481 0.2984 0.0
C1858 C 0.73872 0.19154 0.3303 0.0
C1859 C 0.7511 0.20193 0.35277 0.0
C1860 C 0.721 0.17848 0.34102 0.0
C1861 C 0.73005 0.18458 0.27314 0.0
C1862 C 0.71162 0.18392 0.35965 0.0
C1863 C 0.69517 0.17188 0.37088 0.0
C1864 C 0.68765 0.15409 0.36359 0.0
C1865 C 0.69693 0.14863 0.34454 0.0
C1866 C 0.71354 0.16072 0.33356 0.0
H1867 H 0.73396 0.19132 0.25031 0.0
H1868 H 0.72919 0.17171 0.27057 0.0
H1869 H 0.7169 0.18232 0.2791 0.0
H1870 H 0.71707 0.19755 0.36564 0.0
H1871 H 0.68837 0.17654 0.3854 0.0
H1872 H 0.82921 0.51803 0.39461 0.0
H1873 H 0.80711 0.52277 0.37039 0.0
H1874 H 0.84374 0.55441 0.29956 0.0
H1875 H 0.86625 0.54999 0.3241 0.0
H1876 H 0.82516 0.56931 0.32453 0.0
H1877 H 0.78049 0.50078 0.29059 0.0
H1878 H 0.78614 0.50293 0.33105 0.0
H1879 H 0.80277 0.50856 0.30207 0.0
C1880 C 0.83262 0.52591 0.37374 0.0
C1881 C 0.84951 0.53355 0.36119 0.0
C1882 C 0.8199 0.52853 0.35985 0.0
C1883 C 0.82369 0.53869 0.3329 0.0
C1884 C 0.84054 0.54643 0.32027 0.0
H1885 H 0.73869 0.53738 0.22968 0.0
H1886 H 0.76484 0.53647 0.24394 0.0
C1887 C 0.85335 0.54384 0.33425 0.0
C1888 C 0.81006 0.54147 0.31866 0.0
H1889 H 0.76834 0.51957 0.29148 0.0
C1890 C 0.8128 0.55848 0.31692 0.0
C1891 C 0.79405 0.52735 0.30836 0.0
C1892 C 0.79073 0.5089 0.30779 0.0
C1893 C 0.79966 0.56167 0.30622 0.0
C1894 C 0.78328 0.54742 0.29767 0.0
C1895 C 0.78082 0.53049 0.29838 0.0
C1896 C 0.7684 0.54959 0.28806 0.0
C1897 C 0.80351 0.58025 0.30405 0.0
C1898 C 0.76173 0.5574 0.30804 0.0
C1899 C 0.7468 0.5581 0.2998 0.0
C1900 C 0.73813 0.55071 0.27168 0.0
C1901 C 0.74499 0.54311 0.2516 0.0
C1902 C 0.75996 0.54259 0.25968 0.0
H1903 H 0.81772 0.58952 0.30202 0.0
H1904 H 0.79681 0.58209 0.28379 0.0
H1905 H 0.79884 0.58359 0.32549 0.0
H1906 H 0.76775 0.56251 0.33041 0.0
H1907 H 0.74178 0.56394 0.31585 0.0
H1908 H 0.64625 0.14714 0.7528 0.0
H1909 H 0.61825 0.14094 0.77408 0.0
H1910 H 0.62529 0.11426 0.85168 0.0
H1911 H 0.65339 0.12021 0.83029 0.0
H1912 H 0.59118 0.09667 0.82541 0.0
H1913 H 0.61353 0.16616 0.85034 0.0
H1914 H 0.617 0.1621 0.81081 0.0
H1915 H 0.62843 0.15842 0.84177 0.0
C1916 C 0.6419 0.13994 0.77441 0.0
C1917 C 0.65217 0.13432 0.79001 0.0
C1918 C 0.62589 0.13645 0.78656 0.0
C1919 C 0.61985 0.1274 0.81468 0.0
C1920 C 0.6298 0.12136 0.83 0.0
H1921 H 0.53891 0.12867 0.92465 0.0
H1922 H 0.56549 0.12992 0.9062 0.0
C1923 C 0.64586 0.12481 0.81779 0.0
C1924 C 0.60329 0.1246 0.82822 0.0
H1925 H 0.58313 0.14641 0.85423 0.0
C1926 C 0.5894 0.10751 0.83191 0.0
C1927 C 0.60112 0.13878 0.83699 0.0
C1928 C 0.61585 0.1574 0.83509 0.0
C1929 C 0.57322 0.10424 0.84356 0.0
C1930 C 0.57088 0.11846 0.85125 0.0
C1931 C 0.5849 0.13552 0.84807 0.0
C1932 C 0.55417 0.11612 0.86326 0.0
C1933 C 0.55889 0.08563 0.84794 0.0
C1934 C 0.53888 0.10781 0.84533 0.0
C1935 C 0.52354 0.10698 0.85592 0.0
C1936 C 0.52333 0.11465 0.88444 0.0
C1937 C 0.53861 0.1227 0.9025 0.0
C1938 C 0.55384 0.12342 0.89202 0.0
H1939 H 0.56409 0.07654 0.84891 0.0
H1940 H 0.55146 0.08417 0.86959 0.0
H1941 H 0.54973 0.08174 0.82801 0.0
H1942 H 0.53893 0.10241 0.82276 0.0
H1943 H 0.51202 0.10076 0.8414 0.0
H1944 H 0.88501 0.53633 0.82828 0.0
H1945 H 0.89042 0.51406 0.85089 0.0
H1946 H 0.86843 0.48205 0.76935 0.0
H1947 H 0.86272 0.50391 0.7469 0.0
H1948 H 0.85508 0.46408 0.82352 0.0
H1949 H 0.92742 0.5012 0.82738 0.0
H1950 H 0.91694 0.51162 0.84621 0.0
H1951 H 0.91488 0.50827 0.80487 0.0
C1952 C 0.88141 0.52459 0.81513 0.0
C1953 C 0.8734 0.5219 0.78581 0.0
C1954 C 0.88462 0.51193 0.82798 0.0
C1955 C 0.88001 0.4965 0.81161 0.0
C1956 C 0.87212 0.49388 0.78233 0.0
H1957 H 0.90584 0.41529 0.84276 0.0
H1958 H 0.90396 0.44034 0.82351 0.0
C1959 C 0.86886 0.50642 0.76956 0.0
C1960 C 0.88256 0.48259 0.82529 0.0
H1961 H 0.91346 0.47318 0.8507 0.0
C1962 C 0.86784 0.46607 0.8295 0.0
C1963 C 0.89925 0.4852 0.83269 0.0
C1964 C 0.91557 0.50247 0.82735 0.0
C1965 C 0.86932 0.45207 0.84096 0.0
C1966 C 0.88596 0.45475 0.84904 0.0
C1967 C 0.90072 0.47124 0.8447 0.0
C1968 C 0.88818 0.44046 0.86177 0.0
C1969 C 0.85309 0.43442 0.84365 0.0
C1970 C 0.88028 0.43255 0.88998 0.0
C1971 C 0.88123 0.41822 0.90091 0.0
C1972 C 0.89024 0.41161 0.88398 0.0
C1973 C 0.89873 0.42 0.85628 0.0
C1974 C 0.89771 0.43433 0.84529 0.0
H1975 H 0.84227 0.43354 0.82922 0.0
H1976 H 0.85567 0.42389 0.83647 0.0
H1977 H 0.84869 0.43213 0.86823 0.0
H1978 H 0.87316 0.43731 0.90335 0.0
H1979 H 0.87471 0.41222 0.92251 0.0
H1980 H 0.59418 0.46827 0.92044 0.0
H1981 H 0.56813 0.44128 0.90513 0.0
H1982 H 0.56386 0.46619 0.82214 0.0
H1983 H 0.58981 0.49344 0.83755 0.0
H1984 H 0.53144 0.44384 0.85102 0.0
H1985 H 0.57093 0.41167 0.83456 0.0
H1986 H 0.5726 0.4207 0.87264 0.0
H1987 H 0.58064 0.43491 0.83947 0.0
C1988 C 0.58763 0.4681 0.89906 0.0
C1989 C 0.59422 0.48296 0.88 0.0
C1990 C 0.57276 0.45263 0.89032 0.0
C1991 C 0.5643 0.45166 0.86221 0.0
C1992 C 0.57028 0.46667 0.84387 0.0
H1993 H 0.50103 0.36014 0.75333 0.0
H1994 H 0.52272 0.38825 0.77437 0.0
C1995 C 0.58512 0.48222 0.85269 0.0
C1996 C 0.54985 0.43473 0.85112 0.0
H1997 H 0.54047 0.39395 0.82901 0.0
C1998 C 0.53336 0.4329 0.84622 0.0
C1999 C 0.5525 0.42058 0.84453 0.0
C2000 C 0.57015 0.42204 0.84776 0.0
C2001 C 0.51938 0.4172 0.835 0.0
C2002 C 0.52198 0.40296 0.82898 0.0
C2003 C 0.53848 0.40484 0.83389 0.0
C2004 C 0.5081 0.38624 0.81595 0.0
C2005 C 0.50212 0.41614 0.8289 0.0
C2006 C 0.49262 0.37574 0.83236 0.0
C2007 C 0.48007 0.35957 0.82029 0.0
C2008 C 0.4829 0.35361 0.79176 0.0
C2009 C 0.49841 0.36426 0.77541 0.0
C2010 C 0.51085 0.38037 0.78738 0.0
H2011 H 0.5034 0.42926 0.82786 0.0
H2012 H 0.49634 0.40921 0.80672 0.0
H2013 H 0.49295 0.40875 0.84798 0.0
H2014 H 0.49038 0.37987 0.85475 0.0
H2015 H 0.46829 0.35167 0.83351 0.0
H2016 H 0.55339 0.68642 0.66662 0.0
H2017 H 0.55813 0.71273 0.6942 0.0
H2018 H 0.52457 0.71865 0.62878 0.0
H2019 H 0.51955 0.69249 0.60159 0.0
H2020 H 0.5722 0.74669 0.67097 0.0
H2021 H 0.50476 0.72189 0.71224 0.0
H2022 H 0.51234 0.70766 0.69813 0.0
H2023 H 0.5056 0.71872 0.67122 0.0
C2024 C 0.54687 0.69322 0.65837 0.0
C2025 C 0.53601 0.68727 0.632 0.0
C2026 C 0.54964 0.70827 0.67407 0.0
C2027 C 0.54148 0.71746 0.66378 0.0
C2028 C 0.53068 0.71154 0.63752 0.0
H2029 H 0.56548 0.82369 0.68269 0.0
H2030 H 0.56448 0.79649 0.66815 0.0
C2031 C 0.52791 0.69659 0.62191 0.0
C2032 C 0.54457 0.73364 0.67951 0.0
H2033 H 0.5231 0.75298 0.71065 0.0
C2034 C 0.56153 0.74804 0.68011 0.0
C2035 C 0.53067 0.73529 0.69179 0.0
C2036 C 0.51235 0.72 0.69363 0.0
C2037 C 0.56483 0.76429 0.69141 0.0
C2038 C 0.55072 0.76622 0.70173 0.0
C2039 C 0.5339 0.75159 0.70238 0.0
C2040 C 0.55288 0.78326 0.71144 0.0
C2041 C 0.58336 0.7792 0.69214 0.0
C2042 C 0.54649 0.78482 0.74037 0.0
C2043 C 0.54673 0.80019 0.74844 0.0
C2044 C 0.55346 0.81439 0.7278 0.0
C2045 C 0.56032 0.81303 0.69916 0.0
C2046 C 0.55988 0.79752 0.69094 0.0
H2047 H 0.59279 0.77442 0.69324 0.0
H2048 H 0.58604 0.78698 0.67055 0.0
H2049 H 0.58564 0.78789 0.71236 0.0
H2050 H 0.54099 0.774 0.75653 0.0
H2051 H 0.54144 0.80085 0.77078 0.0
H2052 H 0.17404 0.74525 0.68837 0.0
H2053 H 0.20144 0.77127 0.67423 0.0
H2054 H 0.22346 0.76984 0.76287 0.0
H2055 H 0.1963 0.74362 0.77694 0.0
H2056 H 0.22207 0.80436 0.70038 0.0
H2057 H 0.25616 0.76606 0.70076 0.0
H2058 H 0.23277 0.75592 0.70288 0.0
H2059 H 0.24587 0.76581 0.73687 0.0
C2060 C 0.18464 0.75058 0.70502 0.0
C2061 C 0.18308 0.7422 0.73359 0.0
C2062 C 0.20028 0.76547 0.69692 0.0
C2063 C 0.21458 0.77227 0.71726 0.0
C2064 C 0.2127 0.76457 0.74656 0.0
H2065 H 0.31417 0.86792 0.67668 0.0
H2066 H 0.28674 0.84709 0.7021 0.0
C2067 C 0.19715 0.74961 0.75458 0.0
C2068 C 0.23174 0.78663 0.7069 0.0
H2069 H 0.27312 0.79598 0.6897 0.0
C2070 C 0.23329 0.80261 0.69821 0.0
C2071 C 0.24629 0.7842 0.70381 0.0
C2072 C 0.24523 0.76704 0.71129 0.0
C2073 C 0.24896 0.81619 0.68614 0.0
C2074 C 0.26347 0.81373 0.68309 0.0
C2075 C 0.262 0.79786 0.6923 0.0
C2076 C 0.27986 0.82675 0.66787 0.0
C2077 C 0.24968 0.83277 0.67561 0.0
C2078 C 0.28518 0.82212 0.64054 0.0
C2079 C 0.3008 0.83386 0.62619 0.0
C2080 C 0.31154 0.85053 0.63888 0.0
C2081 C 0.30618 0.85521 0.66627 0.0
C2082 C 0.29048 0.84337 0.68072 0.0
H2083 H 0.23651 0.83132 0.67406 0.0
H2084 H 0.25747 0.84332 0.6925 0.0
H2085 H 0.2561 0.83688 0.65255 0.0
H2086 H 0.27719 0.80936 0.63026 0.0
H2087 H 0.30445 0.82979 0.60511 0.0
H2088 H 0.25959 0.4346 0.66128 0.0
H2089 H 0.23298 0.43475 0.64625 0.0
H2090 H 0.23893 0.46739 0.72503 0.0
H2091 H 0.26559 0.46759 0.73993 0.0
H2092 H 0.20119 0.42551 0.67755 0.0
H2093 H 0.23909 0.49616 0.65016 0.0
H2094 H 0.24929 0.48318 0.65648 0.0
H2095 H 0.24217 0.49078 0.68901 0.0
C2096 C 0.25515 0.44167 0.67556 0.0
C2097 C 0.26486 0.45129 0.70153 0.0
C2098 C 0.23993 0.44172 0.66697 0.0
C2099 C 0.23419 0.45135 0.68422 0.0
C2100 C 0.24334 0.46017 0.71106 0.0
H2101 H 0.13671 0.45291 0.66145 0.0
H2102 H 0.15969 0.44775 0.68131 0.0
C2103 C 0.25857 0.46023 0.71955 0.0
C2104 C 0.21924 0.45301 0.67327 0.0
H2105 H 0.20842 0.48288 0.64802 0.0
C2106 C 0.20272 0.43803 0.67106 0.0
C2107 C 0.22136 0.46935 0.6645 0.0
C2108 C 0.23895 0.48577 0.66484 0.0
C2109 C 0.18821 0.43899 0.6605 0.0
C2110 C 0.19029 0.4554 0.65236 0.0
C2111 C 0.20683 0.47033 0.6545 0.0
C2112 C 0.17577 0.45744 0.64012 0.0
C2113 C 0.17089 0.42243 0.65742 0.0
C2114 C 0.17729 0.46478 0.61061 0.0
C2115 C 0.16435 0.46792 0.5994 0.0
C2116 C 0.14956 0.46379 0.61747 0.0
C2117 C 0.14791 0.45618 0.64691 0.0
C2118 C 0.16097 0.45312 0.65821 0.0
H2119 H 0.17236 0.41069 0.65755 0.0
H2120 H 0.16246 0.42141 0.67731 0.0
H2121 H 0.16418 0.42247 0.63564 0.0
H2122 H 0.18862 0.46825 0.59629 0.0
H2123 H 0.16604 0.47372 0.57657 0.0
H2124 H 0.35593 0.85587 0.25175 0.0
H2125 H 0.38411 0.86156 0.23232 0.0
H2126 H 0.37696 0.8847 0.14945 0.0
H2127 H 0.34876 0.87937 0.16908 0.0
H2128 H 0.3902 0.84855 0.17999 0.0
H2129 H 0.42617 0.92084 0.17589 0.0
H2130 H 0.40584 0.9085 0.1965 0.0
H2131 H 0.40591 0.91085 0.15497 0.0
C2132 C 0.36036 0.86229 0.22947 0.0
C2133 C 0.35006 0.86715 0.21194 0.0
C2134 C 0.3765 0.86555 0.21842 0.0
C2135 C 0.38273 0.87373 0.18962 0.0
C2136 C 0.37257 0.8787 0.17205 0.0
H2137 H 0.46131 0.86688 0.08144 0.0
H2138 H 0.4348 0.86534 0.10121 0.0
C2139 C 0.3564 0.87553 0.1832 0.0
C2140 C 0.39942 0.87609 0.17746 0.0
H2141 H 0.44 0.90655 0.15256 0.0
C2142 C 0.4011 0.86125 0.17407 0.0
C2143 C 0.41369 0.89268 0.17014 0.0
C2144 C 0.41294 0.90916 0.17481 0.0
C2145 C 0.41659 0.86249 0.16325 0.0
C2146 C 0.43067 0.879 0.15493 0.0
C2147 C 0.42911 0.8939 0.15871 0.0
C2148 C 0.44704 0.88094 0.14213 0.0
C2149 C 0.41784 0.84613 0.16132 0.0
C2150 C 0.46286 0.89075 0.15804 0.0
C2151 C 0.47814 0.89177 0.14668 0.0
C2152 C 0.47782 0.88302 0.11917 0.0
C2153 C 0.46201 0.87363 0.10288 0.0
C2154 C 0.44681 0.87268 0.11418 0.0
H2155 H 0.40796 0.83559 0.17626 0.0
H2156 H 0.4155 0.84135 0.13696 0.0
H2157 H 0.43097 0.84871 0.16839 0.0
H2158 H 0.4633 0.89729 0.1796 0.0
H2159 H 0.49011 0.89917 0.15971 0.0
H2160 H 0.09568 0.58749 0.15582 0.0
H2161 H 0.09756 0.56247 0.17527 0.0
H2162 H 0.12633 0.56387 0.09345 0.0
H2163 H 0.12478 0.58893 0.07407 0.0
H2164 H 0.08713 0.52911 0.14951 0.0
H2165 H 0.15881 0.56844 0.16536 0.0
H2166 H 0.14545 0.5782 0.15878 0.0
H2167 H 0.15148 0.56925 0.12678 0.0
C2168 C 0.10232 0.58241 0.14189 0.0
C2169 C 0.11027 0.59035 0.11358 0.0
C2170 C 0.10335 0.5681 0.15301 0.0
C2171 C 0.11234 0.56153 0.13603 0.0
C2172 C 0.11964 0.56897 0.1072 0.0
H2173 H 0.11488 0.46549 0.17241 0.0
H2174 H 0.10945 0.48763 0.14926 0.0
C2175 C 0.11869 0.58327 0.09614 0.0
C2176 C 0.11469 0.54733 0.14892 0.0
H2177 H 0.14585 0.53802 0.17281 0.0
C2178 C 0.09994 0.53102 0.15465 0.0
C2179 C 0.13143 0.54995 0.15588 0.0
C2180 C 0.1477 0.56744 0.15168 0.0
C2181 C 0.10152 0.51718 0.16698 0.0
C2182 C 0.1183 0.51971 0.17329 0.0
C2183 C 0.13301 0.53606 0.16767 0.0
C2184 C 0.12099 0.50594 0.18727 0.0
C2185 C 0.08523 0.50012 0.17384 0.0
C2186 C 0.12954 0.50902 0.21597 0.0
C2187 C 0.13281 0.49653 0.22905 0.0
C2188 C 0.12762 0.48065 0.21368 0.0
C2189 C 0.119 0.47754 0.18489 0.0
C2190 C 0.11577 0.49013 0.17174 0.0
H2191 H 0.07349 0.50156 0.17449 0.0
H2192 H 0.0833 0.49057 0.15535 0.0
H2193 H 0.08638 0.4947 0.19643 0.0
H2194 H 0.13372 0.52114 0.2283 0.0
H2195 H 0.13945 0.49939 0.25127 0.0
H2196 H 0.49607 0.64241 0.21253 0.0
H2197 H 0.47542 0.6134 0.19355 0.0
H2198 H 0.51612 0.61234 0.14037 0.0
H2199 H 0.53699 0.6418 0.15883 0.0
H2200 H 0.48607 0.59956 0.10736 0.0
H2201 H 0.4715 0.56837 0.22289 0.0
H2202 H 0.4683 0.5868 0.22293 0.0
H2203 H 0.48975 0.58992 0.21628 0.0
C2204 C 0.5007 0.63606 0.1968 0.0
C2205 C 0.51823 0.64437 0.18741 0.0
C2206 C 0.48888 0.61938 0.18616 0.0
C2207 C 0.49433 0.61048 0.1663 0.0
C2208 C 0.5117 0.6189 0.15604 0.0
H2209 H 0.4137 0.50107 0.13718 0.0
H2210 H 0.44231 0.52639 0.14854 0.0
C2211 C 0.52358 0.63573 0.16652 0.0
C2212 C 0.48158 0.59259 0.15584 0.0
H2213 H 0.44955 0.55346 0.18327 0.0
C2214 C 0.47828 0.58936 0.12391 0.0
C2215 C 0.47174 0.57909 0.17733 0.0
C2216 C 0.47565 0.58116 0.21173 0.0
C2217 C 0.46457 0.57342 0.11306 0.0
C2218 C 0.4536 0.5606 0.1348 0.0
C2219 C 0.45772 0.56338 0.16657 0.0
C2220 C 0.43699 0.54496 0.1255 0.0
C2221 C 0.46186 0.57062 0.07843 0.0
C2222 C 0.42446 0.54697 0.10894 0.0
C2223 C 0.40823 0.53257 0.10225 0.0
C2224 C 0.40399 0.51583 0.11246 0.0
C2225 C 0.41655 0.51379 0.12899 0.0
C2226 C 0.43291 0.52824 0.13545 0.0
H2227 H 0.47441 0.57799 0.06575 0.0
H2228 H 0.45583 0.55662 0.07223 0.0
H2229 H 0.4532 0.5755 0.07034 0.0
H2230 H 0.42703 0.55977 0.10193 0.0
H2231 H 0.39883 0.53467 0.08971 0.0
H2232 H 0.11917 0.65121 0.66417 0.0
H2233 H 0.11412 0.62378 0.6409 0.0
H2234 H 0.14426 0.61815 0.71402 0.0
H2235 H 0.1497 0.64553 0.73691 0.0
H2236 H 0.15281 0.61151 0.65728 0.0
H2237 H 0.081 0.57486 0.67319 0.0
H2238 H 0.08914 0.59475 0.65151 0.0
H2239 H 0.09486 0.59554 0.69182 0.0
C2240 C 0.12477 0.64415 0.67519 0.0
C2241 C 0.13481 0.65056 0.70245 0.0
C2242 C 0.12175 0.62841 0.66202 0.0
C2243 C 0.12856 0.61878 0.67605 0.0
C2244 C 0.13882 0.62533 0.70288 0.0
H2245 H 0.10191 0.51107 0.6539 0.0
H2246 H 0.10492 0.5388 0.67128 0.0
C2247 C 0.14191 0.64102 0.71592 0.0
C2248 C 0.12537 0.60197 0.66285 0.0
H2249 H 0.09344 0.56034 0.64648 0.0
C2250 C 0.13983 0.60034 0.65482 0.0
C2251 C 0.10842 0.58734 0.66013 0.0
C2252 C 0.09245 0.58808 0.66986 0.0
C2253 C 0.13784 0.58448 0.64426 0.0
C2254 C 0.12089 0.56995 0.64088 0.0
C2255 C 0.1064 0.57155 0.64888 0.0
C2256 C 0.11803 0.55292 0.62955 0.0
C2257 C 0.15397 0.58332 0.63772 0.0
C2258 C 0.12401 0.55159 0.60007 0.0
C2259 C 0.12245 0.53587 0.59022 0.0
C2260 C 0.11467 0.52107 0.60951 0.0
C2261 C 0.10803 0.52224 0.63855 0.0
C2262 C 0.10972 0.53805 0.64849 0.0
H2263 H 0.16565 0.59396 0.64935 0.0
H2264 H 0.15229 0.57063 0.64556 0.0
H2265 H 0.15646 0.58447 0.6123 0.0
H2266 H 0.13008 0.56279 0.58479 0.0
H2267 H 0.1275 0.53537 0.56754 0.0
H2268 H 0.35998 0.46811 0.64804 0.0
H2269 H 0.38903 0.48792 0.62665 0.0
H2270 H 0.38537 0.53205 0.65896 0.0
H2271 H 0.35669 0.51253 0.68067 0.0
H2272 H 0.40217 0.51612 0.58394 0.0
H2273 H 0.42939 0.53804 0.70188 0.0
H2274 H 0.40841 0.51892 0.69522 0.0
H2275 H 0.41063 0.54026 0.695 0.0
C2276 C 0.36529 0.48204 0.65018 0.0
C2277 C 0.35615 0.48876 0.66642 0.0
C2278 C 0.38188 0.49332 0.63804 0.0
C2279 C 0.38949 0.5114 0.64197 0.0
C2280 C 0.37991 0.51811 0.65642 0.0
H2281 H 0.4708 0.60201 0.55881 0.0
H2282 H 0.44444 0.57471 0.57067 0.0
C2283 C 0.36347 0.50692 0.66869 0.0
C2284 C 0.40764 0.52346 0.63213 0.0
H2285 H 0.4462 0.55642 0.65964 0.0
C2286 C 0.41191 0.52477 0.60047 0.0
C2287 C 0.42047 0.53441 0.65384 0.0
C2288 C 0.41707 0.53273 0.68842 0.0
C2289 C 0.42839 0.53755 0.58974 0.0
C2290 C 0.4407 0.5495 0.61121 0.0
C2291 C 0.43674 0.54742 0.64307 0.0
C2292 C 0.45716 0.56508 0.60126 0.0
C2293 C 0.43235 0.53819 0.5555 0.0
C2294 C 0.47312 0.56897 0.61487 0.0
C2295 C 0.48823 0.58481 0.60858 0.0
C2296 C 0.48765 0.59704 0.58853 0.0
C2297 C 0.47175 0.59286 0.57422 0.0
C2298 C 0.45666 0.57713 0.58073 0.0
H2299 H 0.42486 0.52506 0.54477 0.0
H2300 H 0.42845 0.54682 0.54361 0.0
H2301 H 0.44645 0.5433 0.55133 0.0
H2302 H 0.4738 0.55993 0.63097 0.0
H2303 H 0.50027 0.5876 0.61993 0.0
H2304 H 0.39737 0.8617 0.59695 0.0
H2305 H 0.42379 0.86211 0.6139 0.0
H2306 H 0.44084 0.91117 0.66045 0.0
H2307 H 0.41401 0.91058 0.64435 0.0
H2308 H 0.45775 0.88433 0.60341 0.0
H2309 H 0.44365 0.88211 0.72979 0.0
H2310 H 0.42774 0.87876 0.70044 0.0
H2311 H 0.44491 0.90043 0.7096 0.0
C2312 C 0.40671 0.87261 0.61081 0.0
C2313 C 0.40349 0.88604 0.61956 0.0
C2314 C 0.42185 0.87284 0.6204 0.0
C2315 C 0.43419 0.88653 0.63881 0.0
C2316 C 0.43131 0.90026 0.64685 0.0
H2317 H 0.53428 0.89114 0.67887 0.0
H2318 H 0.51286 0.89835 0.65815 0.0
C2319 C 0.41601 0.89995 0.63753 0.0
C2320 C 0.44977 0.886 0.64997 0.0
H2321 H 0.46978 0.88315 0.71572 0.0
C2322 C 0.46047 0.88418 0.62797 0.0
C2323 C 0.4532 0.88567 0.68203 0.0
C2324 C 0.44171 0.88669 0.70688 0.0
C2325 C 0.47418 0.88151 0.63712 0.0
C2326 C 0.47755 0.88112 0.66918 0.0
C2327 C 0.4672 0.88351 0.69114 0.0
C2328 C 0.49074 0.87681 0.68072 0.0
C2329 C 0.48436 0.87834 0.61241 0.0
C2330 C 0.48549 0.8625 0.7006 0.0
C2331 C 0.49768 0.85854 0.7128 0.0
C2332 C 0.51542 0.86875 0.70523 0.0
C2333 C 0.52068 0.88294 0.68488 0.0
C2334 C 0.50845 0.88703 0.67294 0.0
H2335 H 0.47749 0.87494 0.58965 0.0
H2336 H 0.49714 0.89035 0.60917 0.0
H2337 H 0.48678 0.86766 0.61934 0.0
H2338 H 0.4719 0.85439 0.70686 0.0
H2339 H 0.49317 0.84748 0.7283 0.0
H2340 H 0.1691 0.42052 0.20231 0.0
H2341 H 0.19549 0.41957 0.18901 0.0
H2342 H 0.22562 0.46331 0.24975 0.0
H2343 H 0.19942 0.46408 0.26371 0.0
H2344 H 0.2237 0.44398 0.16057 0.0
H2345 H 0.24371 0.43164 0.27495 0.0
H2346 H 0.22231 0.42872 0.26812 0.0
H2347 H 0.24044 0.45001 0.27674 0.0
C2348 C 0.18132 0.42981 0.21309 0.0
C2349 C 0.18213 0.44236 0.23411 0.0
C2350 C 0.19638 0.42922 0.20554 0.0
C2351 C 0.21248 0.44112 0.2189 0.0
C2352 C 0.21328 0.45362 0.2399 0.0
H2353 H 0.31336 0.4879 0.14204 0.0
H2354 H 0.28482 0.47918 0.16395 0.0
C2355 C 0.19827 0.45416 0.2476 0.0
C2356 C 0.22875 0.44166 0.20884 0.0
H2357 H 0.26658 0.44513 0.23621 0.0
C2358 C 0.23292 0.4439 0.17709 0.0
C2359 C 0.2407 0.44128 0.23028 0.0
C2360 C 0.23647 0.43758 0.26437 0.0
C2361 C 0.2491 0.44683 0.16642 0.0
C2362 C 0.26159 0.44793 0.18817 0.0
C2363 C 0.25708 0.44461 0.21968 0.0
C2364 C 0.27971 0.4537 0.17858 0.0
C2365 C 0.25279 0.44907 0.13196 0.0
C2366 C 0.28672 0.44262 0.18122 0.0
C2367 C 0.30322 0.44766 0.16894 0.0
C2368 C 0.31285 0.46383 0.15387 0.0
C2369 C 0.30618 0.47526 0.15311 0.0
C2370 C 0.28983 0.47028 0.16549 0.0
H2371 H 0.24057 0.44273 0.11812 0.0
H2372 H 0.25981 0.46317 0.12624 0.0
H2373 H 0.26106 0.44353 0.12481 0.0
H2374 H 0.27914 0.42983 0.19157 0.0
H2375 H 0.30804 0.43859 0.16987 0.0
H2376 H 0.55823 0.86824 0.15244 0.0
H2377 H 0.56711 0.84738 0.16941 0.0
H2378 H 0.52516 0.80694 0.11599 0.0
H2379 H 0.51658 0.82765 0.09831 0.0
H2380 H 0.55053 0.81803 0.20214 0.0
H2381 H 0.56526 0.80191 0.08631 0.0
H2382 H 0.56193 0.82018 0.09259 0.0
H2383 H 0.54359 0.79857 0.08711 0.0
C2384 C 0.55095 0.85491 0.14426 0.0
C2385 C 0.5368 0.84964 0.1238 0.0
C2386 C 0.55606 0.84302 0.15391 0.0
C2387 C 0.5471 0.8257 0.14329 0.0
C2388 C 0.53267 0.82036 0.12362 0.0
H2389 H 0.53095 0.73194 0.22543 0.0
H2390 H 0.53213 0.75893 0.21 0.0
C2391 C 0.52768 0.83221 0.11375 0.0
C2392 C 0.55218 0.81288 0.15365 0.0
H2393 H 0.55895 0.78052 0.12666 0.0
C2394 C 0.55267 0.81002 0.18564 0.0
C2395 C 0.55544 0.80271 0.13221 0.0
C2396 C 0.55673 0.80615 0.09767 0.0
C2397 C 0.5552 0.79655 0.19669 0.0
C2398 C 0.55676 0.78531 0.17513 0.0
C2399 C 0.55742 0.78889 0.14322 0.0
C2400 C 0.5565 0.76912 0.18502 0.0
C2401 C 0.55605 0.79445 0.23136 0.0
C2402 C 0.56945 0.76548 0.17508 0.0
C2403 C 0.56862 0.7498 0.18337 0.0
C2404 C 0.55483 0.73751 0.20182 0.0
C2405 C 0.54186 0.74119 0.21152 0.0
C2406 C 0.5426 0.75672 0.20297 0.0
H2407 H 0.56112 0.80714 0.24353 0.0
H2408 H 0.54273 0.7856 0.24029 0.0
H2409 H 0.56446 0.78888 0.2373 0.0
H2410 H 0.5802 0.77477 0.16092 0.0
H2411 H 0.57881 0.74735 0.17552 0.0
H2412 H 0.13431 0.6822 0.1619 0.0
H2413 H 0.15677 0.71065 0.18138 0.0
H2414 H 0.18833 0.71711 0.10071 0.0
H2415 H 0.16621 0.68867 0.08137 0.0
H2416 H 0.20669 0.72422 0.15452 0.0
H2417 H 0.16949 0.75929 0.15151 0.0
H2418 H 0.15902 0.73926 0.17309 0.0
H2419 H 0.16218 0.73876 0.13188 0.0
C2420 C 0.146 0.68971 0.14824 0.0
C2421 C 0.14846 0.68314 0.12009 0.0
C2422 C 0.15876 0.70603 0.15929 0.0
C2423 C 0.17409 0.71611 0.14224 0.0
C2424 C 0.17655 0.70958 0.11415 0.0
H2425 H 0.25509 0.82412 0.17313 0.0
H2426 H 0.23054 0.79725 0.15229 0.0
C2427 C 0.16388 0.69329 0.10317 0.0
C2428 C 0.18805 0.73306 0.15428 0.0
H2429 H 0.19704 0.77367 0.17705 0.0
C2430 C 0.20459 0.73505 0.15934 0.0
C2431 C 0.18534 0.74724 0.16015 0.0
C2432 C 0.1681 0.74615 0.15362 0.0
C2433 C 0.21843 0.75073 0.17057 0.0
C2434 C 0.21556 0.76469 0.17755 0.0
C2435 C 0.19913 0.76286 0.17196 0.0
C2436 C 0.22949 0.78118 0.19103 0.0
C2437 C 0.23607 0.75227 0.17452 0.0
C2438 C 0.23666 0.78108 0.22003 0.0
C2439 C 0.25066 0.7963 0.23188 0.0
C2440 C 0.2577 0.812 0.21508 0.0
C2441 C 0.25002 0.81223 0.18658 0.0
C2442 C 0.236 0.79692 0.17466 0.0
H2443 H 0.23726 0.74238 0.16047 0.0
H2444 H 0.24667 0.76542 0.16769 0.0
H2445 H 0.23796 0.75015 0.19931 0.0
H2446 H 0.23157 0.76914 0.23332 0.0
H2447 H 0.25611 0.79568 0.25407 0.0
H2448 H 0.21072 0.20954 0.14978 0.0
H2449 H 0.22378 0.22806 0.19479 0.0
H2450 H 0.27404 0.25259 0.15003 0.0
H2451 H 0.26088 0.23388 0.1041 0.0
H2452 H 0.27396 0.2405 0.21081 0.0
H2453 H 0.24187 0.2798 0.21152 0.0
H2454 H 0.2261 0.25772 0.202 0.0
H2455 H 0.24434 0.27 0.17638 0.0
C2456 C 0.22453 0.21895 0.14921 0.0
C2457 C 0.23477 0.22018 0.1234 0.0
C2458 C 0.23195 0.22972 0.17487 0.0
C2459 C 0.2498 0.24201 0.17545 0.0
C2460 C 0.26018 0.2434 0.14975 0.0
H2461 H 0.24134 0.26375 0.36677 0.0
H2462 H 0.2587 0.27511 0.31897 0.0
C2463 C 0.25266 0.23267 0.12367 0.0
C2464 C 0.25733 0.25157 0.20477 0.0
H2465 H 0.24386 0.26796 0.26308 0.0
C2466 C 0.26806 0.24724 0.22204 0.0
C2467 C 0.2503 0.26101 0.21924 0.0
C2468 C 0.24019 0.26757 0.2011 0.0
C2469 C 0.26927 0.24933 0.25445 0.0
C2470 C 0.25919 0.25545 0.26958 0.0
C2471 C 0.25119 0.26274 0.25168 0.0
C2472 C 0.25253 0.24973 0.30154 0.0
C2473 C 0.27989 0.2433 0.27243 0.0
C2474 C 0.24347 0.23177 0.30772 0.0
C2475 C 0.23346 0.22533 0.33447 0.0
C2476 C 0.23222 0.23666 0.35575 0.0
C2477 C 0.24209 0.25474 0.35069 0.0
C2478 C 0.25205 0.26123 0.32351 0.0
H2479 H 0.29218 0.24687 0.25988 0.0
H2480 H 0.28308 0.24903 0.29614 0.0
H2481 H 0.27246 0.22888 0.2744 0.0
H2482 H 0.24312 0.22254 0.29081 0.0
H2483 H 0.22612 0.21134 0.33785 0.0
H2484 H 0.74527 0.0107 0.12285 0.0
H2485 H 0.72402 0.00122 0.16556 0.0
H2486 H 0.76624 0.02126 0.23192 0.0
H2487 H 0.78715 0.0308 0.18996 0.0
H2488 H 0.71949 0.97661 0.2042 0.0
H2489 H 0.73425 0.03227 0.27799 0.0
H2490 H 0.74071 0.03509 0.23754 0.0
H2491 H 0.75495 0.03491 0.26751 0.0
C2492 C 0.74994 0.0136 0.1466 0.0
C2493 C 0.76783 0.0213 0.15318 0.0
C2494 C 0.7378 0.00819 0.17095 0.0
C2495 C 0.74347 0.01075 0.20206 0.0
C2496 C 0.76143 0.01957 0.20828 0.0
H2497 H 0.75501 0.95814 0.3208 0.0
H2498 H 0.74132 0.96508 0.27889 0.0
C2499 C 0.77345 0.02481 0.18418 0.0
C2500 C 0.73136 0.00138 0.22806 0.0
H2501 H 0.73285 0.00623 0.3066 0.0
C2502 C 0.72169 0.98311 0.2265 0.0
C2503 C 0.73321 0.00961 0.25712 0.0
C2504 C 0.74118 0.02908 0.25992 0.0
C2505 C 0.71706 0.97306 0.25372 0.0
C2506 C 0.72277 0.98158 0.28275 0.0
C2507 C 0.72913 0.99961 0.28433 0.0
C2508 C 0.72713 0.97341 0.30878 0.0
C2509 C 0.70771 0.9535 0.25092 0.0
C2510 C 0.72374 0.97562 0.33989 0.0
C2511 C 0.73187 0.97181 0.36419 0.0
C2512 C 0.74369 0.966 0.35762 0.0
C2513 C 0.74608 0.9627 0.32664 0.0
C2514 C 0.73797 0.96642 0.30255 0.0
H2515 H 0.69724 0.94906 0.23314 0.0
H2516 H 0.71698 0.94934 0.24292 0.0
H2517 H 0.70189 0.94701 0.27338 0.0
H2518 H 0.71561 0.98118 0.3453 0.0
H2519 H 0.72979 0.97449 0.3879 0.0
H2520 H 0.0372 0.79796 0.31353 0.0
H2521 H 0.02714 0.77702 0.27144 0.0
H2522 H 0.01597 0.73563 0.3365 0.0
H2523 H 0.02555 0.75673 0.37947 0.0
H2524 H 0.03361 0.7526 0.24621 0.0
H2525 H 0.96809 0.71992 0.3023 0.0
H2526 H 0.98532 0.74001 0.31812 0.0
H2527 H 0.98627 0.72029 0.32159 0.0
C2528 C 0.03289 0.78447 0.319 0.0
C2529 C 0.03176 0.77895 0.34992 0.0
C2530 C 0.02725 0.77247 0.29479 0.0
C2531 C 0.02042 0.75465 0.30081 0.0
C2532 C 0.0208 0.74925 0.33137 0.0
H2533 H 0.9772 0.73407 0.11539 0.0
H2534 H 0.98649 0.7219 0.15771 0.0
C2535 C 0.02639 0.76134 0.35586 0.0
C2536 C 0.01087 0.74222 0.27523 0.0
H2537 H 0.96912 0.7209 0.24828 0.0
C2538 C 0.01949 0.74502 0.24662 0.0
C2539 C 0.99247 0.73186 0.276 0.0
C2540 C 0.98239 0.72776 0.30606 0.0
C2541 C 0.01024 0.74084 0.21847 0.0
C2542 C 0.99188 0.73313 0.21929 0.0
C2543 C 0.98322 0.72719 0.24784 0.0
C2544 C 0.98252 0.7365 0.19403 0.0
C2545 C 0.02035 0.74692 0.18845 0.0
C2546 C 0.97607 0.74775 0.2006 0.0
C2547 C 0.9706 0.75449 0.17676 0.0
C2548 C 0.97152 0.75021 0.14566 0.0
C2549 C 0.97652 0.73774 0.13916 0.0
C2550 C 0.98195 0.73087 0.16327 0.0
H2551 H 0.03462 0.75307 0.19216 0.0
H2552 H 0.01622 0.73568 0.17253 0.0
H2553 H 0.01769 0.75655 0.17684 0.0
H2554 H 0.97633 0.75229 0.22411 0.0
H2555 H 0.96658 0.76384 0.18266 0.0
H2556 H 0.73375 0.75694 0.87346 0.0
H2557 H 0.72063 0.73493 0.8321 0.0
H2558 H 0.75311 0.77353 0.76441 0.0
H2559 H 0.76574 0.79538 0.8049 0.0
H2560 H 0.71985 0.75061 0.74183 0.0
H2561 H 0.74908 0.71429 0.79728 0.0
H2562 H 0.73304 0.71737 0.81749 0.0
H2563 H 0.75461 0.73552 0.81188 0.0
C2564 C 0.73776 0.76076 0.84961 0.0
C2565 C 0.75101 0.77783 0.84248 0.0
C2566 C 0.73031 0.74815 0.82606 0.0
C2567 C 0.73607 0.7525 0.79522 0.0
C2568 C 0.7484 0.76983 0.78801 0.0
H2569 H 0.79555 0.75859 0.67833 0.0
H2570 H 0.77417 0.74689 0.71955 0.0
C2571 C 0.75575 0.78233 0.81129 0.0
C2572 C 0.73146 0.73927 0.77042 0.0
H2573 H 0.7491 0.71544 0.74302 0.0
C2574 C 0.72552 0.74223 0.74208 0.0
C2575 C 0.73829 0.72786 0.77105 0.0
C2576 C 0.74412 0.72345 0.80098 0.0
C2577 C 0.72962 0.73723 0.71379 0.0
C2578 C 0.73948 0.72865 0.7143 0.0
C2579 C 0.74196 0.72244 0.74278 0.0
C2580 C 0.75214 0.73177 0.68909 0.0
C2581 C 0.72566 0.74346 0.68387 0.0
C2582 C 0.74709 0.72655 0.65816 0.0
C2583 C 0.75946 0.73352 0.63418 0.0
C2584 C 0.77697 0.74569 0.64102 0.0
C2585 C 0.78213 0.74949 0.67222 0.0
C2586 C 0.76988 0.74265 0.69592 0.0
H2587 H 0.7178 0.74988 0.68776 0.0
H2588 H 0.73798 0.7529 0.67218 0.0
H2589 H 0.7183 0.73226 0.66796 0.0
H2590 H 0.73354 0.71788 0.65239 0.0
H2591 H 0.75514 0.73022 0.61031 0.0
H2592 H 0.24505 0.03304 0.69445 0.0
H2593 H 0.25794 0.02473 0.73576 0.0
H2594 H 0.28338 0.00897 0.66813 0.0
H2595 H 0.27008 0.01717 0.6261 0.0
H2596 H 0.26493 0.98318 0.70555 0.0
H2597 H 0.30161 0.03869 0.7821 0.0
H2598 H 0.28256 0.03964 0.7718 0.0
H2599 H 0.29777 0.04166 0.74183 0.0
C2600 C 0.25377 0.02827 0.68826 0.0
C2601 C 0.25636 0.02554 0.65707 0.0
C2602 C 0.26142 0.02376 0.712 0.0
C2603 C 0.27194 0.01647 0.70521 0.0
C2604 C 0.2755 0.01477 0.67396 0.0
H2605 H 0.24875 0.97804 0.88814 0.0
H2606 H 0.27083 0.9861 0.84731 0.0
C2607 C 0.26788 0.01943 0.65 0.0
C2608 C 0.2757 0.00752 0.73066 0.0
H2609 H 0.27796 0.01121 0.80938 0.0
C2610 C 0.26857 0.9894 0.72818 0.0
C2611 C 0.28134 0.01547 0.76013 0.0
C2612 C 0.29145 0.03499 0.7639 0.0
C2613 C 0.26358 0.97893 0.75488 0.0
C2614 C 0.26529 0.98681 0.78426 0.0
C2615 C 0.27582 0.00499 0.78681 0.0
C2616 C 0.25235 0.97761 0.80928 0.0
C2617 C 0.2548 0.95943 0.75113 0.0
C2618 C 0.23458 0.96967 0.80164 0.0
C2619 C 0.22207 0.96519 0.82472 0.0
C2620 C 0.227 0.96863 0.85606 0.0
C2621 C 0.24459 0.97525 0.8641 0.0
C2622 C 0.25721 0.97984 0.84081 0.0
H2623 H 0.26188 0.95607 0.73367 0.0
H2624 H 0.25423 0.95285 0.77343 0.0
H2625 H 0.24136 0.95439 0.74222 0.0
H2626 H 0.23039 0.96825 0.77763 0.0
H2627 H 0.20861 0.96 0.8178 0.0
H2628 H 0.97461 0.23331 0.60628 0.0
H2629 H 0.98042 0.25187 0.65245 0.0
H2630 H 0.00402 0.22537 0.69782 0.0
H2631 H 0.99832 0.20699 0.6525 0.0
H2632 H 0.96775 0.24004 0.71283 0.0
H2633 H 0.03927 0.27663 0.71489 0.0
H2634 H 0.02701 0.26703 0.67964 0.0
H2635 H 0.03198 0.25426 0.70599 0.0
C2636 C 0.98119 0.2316 0.62605 0.0
C2637 C 0.98595 0.21863 0.6258 0.0
C2638 C 0.98455 0.24225 0.65227 0.0
C2639 C 0.99303 0.24028 0.6782 0.0
C2640 C 0.99791 0.22747 0.67772 0.0
H2641 H 0.98415 0.21145 0.84376 0.0
H2642 H 0.979 0.22223 0.79553 0.0
C2643 C 0.99443 0.21679 0.65188 0.0
C2644 C 0.99531 0.24994 0.70749 0.0
H2645 H 0.02493 0.26591 0.76627 0.0
C2646 C 0.98034 0.24641 0.7243 0.0
C2647 C 0.01175 0.25889 0.72222 0.0
C2648 C 0.02842 0.2646 0.70453 0.0
C2649 C 0.98114 0.2489 0.75661 0.0
C2650 C 0.99717 0.25462 0.77216 0.0
C2651 C 0.0125 0.26103 0.75458 0.0
C2652 C 0.9977 0.24938 0.80468 0.0
C2653 C 0.96454 0.24381 0.77409 0.0
C2654 C 0.00994 0.26101 0.82623 0.0
C2655 C 0.01302 0.25476 0.85409 0.0
C2656 C 0.00416 0.23677 0.86029 0.0
C2657 C 0.99129 0.22536 0.83949 0.0
C2658 C 0.98812 0.23158 0.81205 0.0
H2659 H 0.95627 0.24769 0.76081 0.0
H2660 H 0.95702 0.22943 0.77673 0.0
H2661 H 0.96718 0.2499 0.79751 0.0
H2662 H 0.01767 0.27476 0.82081 0.0
H2663 H 0.02302 0.26382 0.86978 0.0
H2664 H 0.89195 0.56577 0.48849 0.0
H2665 H 0.90643 0.58765 0.52867 0.0
H2666 H 0.95624 0.59502 0.49951 0.0
H2667 H 0.9416 0.57315 0.45798 0.0
H2668 H 0.94636 0.58509 0.56415 0.0
H2669 H 0.93908 0.64132 0.53401 0.0
H2670 H 0.92019 0.62155 0.52172 0.0
H2671 H 0.94111 0.62764 0.50492 0.0
C2672 C 0.90603 0.57227 0.49019 0.0
C2673 C 0.91567 0.56771 0.47043 0.0
C2674 C 0.91433 0.58496 0.51288 0.0
C2675 C 0.93246 0.59322 0.51668 0.0
C2676 C 0.94228 0.58903 0.4965 0.0
H2677 H 0.92019 0.60152 0.71215 0.0
H2678 H 0.94191 0.6149 0.67035 0.0
C2679 C 0.93393 0.57653 0.47303 0.0
C2680 C 0.93991 0.60362 0.54525 0.0
H2681 H 0.93007 0.62978 0.58811 0.0
C2682 C 0.94382 0.59558 0.56952 0.0
C2683 C 0.93713 0.61762 0.5521 0.0
C2684 C 0.93434 0.62765 0.52665 0.0
C2685 C 0.94127 0.59861 0.60061 0.0
C2686 C 0.93486 0.61006 0.60704 0.0
C2687 C 0.93458 0.6207 0.58312 0.0
C2688 C 0.92276 0.60627 0.63342 0.0
C2689 C 0.94276 0.58753 0.62571 0.0
C2690 C 0.90489 0.59779 0.6266 0.0
C2691 C 0.89262 0.59015 0.65012 0.0
C2692 C 0.89793 0.59092 0.68109 0.0
C2693 C 0.91578 0.60071 0.6884 0.0
C2694 C 0.92818 0.6083 0.6646 0.0
H2695 H 0.94875 0.57992 0.61699 0.0
H2696 H 0.95083 0.59592 0.64516 0.0
H2697 H 0.92963 0.57829 0.63501 0.0
H2698 H 0.9004 0.596 0.60271 0.0
H2699 H 0.87895 0.58288 0.64385 0.0
H2700 H 0.41603 0.35023 0.45371 0.0
H2701 H 0.39483 0.34138 0.49633 0.0
H2702 H 0.43712 0.36266 0.56261 0.0
H2703 H 0.45799 0.3717 0.52068 0.0
H2704 H 0.39022 0.31736 0.53473 0.0
H2705 H 0.40486 0.37259 0.60917 0.0
H2706 H 0.41174 0.37573 0.56896 0.0
H2707 H 0.42571 0.37541 0.59937 0.0
C2708 C 0.42073 0.3536 0.47738 0.0
C2709 C 0.43863 0.36143 0.48398 0.0
C2710 C 0.40861 0.34855 0.50171 0.0
C2711 C 0.41429 0.35151 0.53282 0.0
C2712 C 0.43227 0.36063 0.53898 0.0
H2713 H 0.42547 0.29771 0.6501 0.0
H2714 H 0.41201 0.30526 0.60866 0.0
C2715 C 0.44427 0.36558 0.51489 0.0
C2716 C 0.40224 0.34205 0.55891 0.0
H2717 H 0.40389 0.34652 0.63756 0.0
C2718 C 0.3925 0.32378 0.55712 0.0
C2719 C 0.40414 0.35014 0.58815 0.0
C2720 C 0.41202 0.36958 0.59129 0.0
C2721 C 0.38789 0.31361 0.58418 0.0
C2722 C 0.3937 0.32198 0.61331 0.0
C2723 C 0.40012 0.34001 0.6152 0.0
C2724 C 0.39803 0.31361 0.63905 0.0
C2725 C 0.37842 0.29405 0.58107 0.0
C2726 C 0.3947 0.31564 0.67029 0.0
C2727 C 0.40269 0.31148 0.69434 0.0
C2728 C 0.41432 0.30548 0.68737 0.0
C2729 C 0.41667 0.30239 0.65624 0.0
C2730 C 0.4087 0.30647 0.63242 0.0
H2731 H 0.36791 0.28976 0.56342 0.0
H2732 H 0.38761 0.28986 0.57275 0.0
H2733 H 0.37264 0.28748 0.60349 0.0
H2734 H 0.38669 0.32131 0.67602 0.0
H2735 H 0.40066 0.31401 0.71817 0.0
H2736 H 0.68733 0.09036 0.71364 0.0
H2737 H 0.67829 0.06996 0.66966 0.0
H2738 H 0.70126 0.11351 0.60618 0.0
H2739 H 0.71044 0.13359 0.6495 0.0
H2740 H 0.65481 0.06754 0.63128 0.0
H2741 H 0.7101 0.08087 0.55772 0.0
H2742 H 0.71305 0.08705 0.59831 0.0
H2743 H 0.71351 0.1018 0.56875 0.0
C2744 C 0.69105 0.09549 0.6903 0.0
C2745 C 0.69937 0.11354 0.68488 0.0
C2746 C 0.68588 0.08383 0.6652 0.0
C2747 C 0.68922 0.09012 0.63448 0.0
C2748 C 0.69889 0.10819 0.62949 0.0
H2749 H 0.63683 0.10284 0.51145 0.0
H2750 H 0.64477 0.09073 0.55471 0.0
C2751 C 0.70394 0.11975 0.65437 0.0
C2752 C 0.67962 0.07873 0.60773 0.0
H2753 H 0.68458 0.0805 0.52913 0.0
C2754 C 0.66134 0.06967 0.60904 0.0
C2755 C 0.68784 0.08059 0.57867 0.0
C2756 C 0.70723 0.08794 0.576 0.0
C2757 C 0.65138 0.06551 0.58175 0.0
C2758 C 0.65999 0.07097 0.5528 0.0
C2759 C 0.67793 0.07693 0.55137 0.0
C2760 C 0.65192 0.07506 0.5263 0.0
C2761 C 0.63184 0.05682 0.58438 0.0
C2762 C 0.65327 0.07037 0.49565 0.0
C2763 C 0.64884 0.0775 0.47056 0.0
C2764 C 0.64329 0.08965 0.47585 0.0
C2765 C 0.64112 0.09359 0.50656 0.0
C2766 C 0.64544 0.08643 0.53144 0.0
H2767 H 0.62702 0.04669 0.60283 0.0
H2768 H 0.62817 0.06663 0.59126 0.0
H2769 H 0.62529 0.05069 0.5621 0.0
H2770 H 0.65845 0.06181 0.49111 0.0
H2771 H 0.65066 0.07425 0.44711 0.0
H2772 H 0.42809 0.13241 0.14622 0.0
H2773 H 0.41611 0.11188 0.10367 0.0
H2774 H 0.38972 0.06953 0.16881 0.0
H2775 H 0.40216 0.0903 0.21207 0.0
H2776 H 0.40881 0.06288 0.13219 0.0
H2777 H 0.37341 0.08287 0.05469 0.0
H2778 H 0.39257 0.10262 0.06565 0.0
H2779 H 0.37693 0.08944 0.09509 0.0
C2780 C 0.41934 0.1188 0.15159 0.0
C2781 C 0.41627 0.11295 0.18248 0.0
C2782 C 0.41222 0.10703 0.12711 0.0
C2783 C 0.40173 0.08909 0.13286 0.0
C2784 C 0.39762 0.08331 0.16377 0.0
H2785 H 0.4234 0.07093 0.9488 0.0
H2786 H 0.40188 0.0586 0.99088 0.0
C2787 C 0.40474 0.09519 0.18845 0.0
C2788 C 0.39849 0.07679 0.10687 0.0
H2789 H 0.39658 0.07824 0.02806 0.0
C2790 C 0.40538 0.0656 0.10949 0.0
C2791 C 0.3932 0.07937 0.07727 0.0
C2792 C 0.38341 0.08908 0.07322 0.0
C2793 C 0.41022 0.05987 0.08291 0.0
C2794 C 0.40862 0.06597 0.0534 0.0
C2795 C 0.39858 0.07414 0.05071 0.0
C2796 C 0.42101 0.06867 0.0279 0.0
C2797 C 0.41855 0.04876 0.08692 0.0
C2798 C 0.43893 0.07794 0.03458 0.0
C2799 C 0.45113 0.08499 0.01078 0.0
C2800 C 0.44574 0.08307 0.97964 0.0
C2801 C 0.42793 0.0726 0.97263 0.0
C2802 C 0.41562 0.06555 0.99665 0.0
H2803 H 0.41143 0.03859 0.10481 0.0
H2804 H 0.41871 0.04234 0.06483 0.0
H2805 H 0.43212 0.05697 0.09537 0.0
H2806 H 0.44354 0.08106 0.05833 0.0
H2807 H 0.46477 0.0929 0.01691 0.0
H2808 H 0.87467 0.30642 0.14918 0.0
H2809 H 0.89492 0.31385 0.10639 0.0
H2810 H 0.9371 0.32764 0.17109 0.0
H2811 H 0.91663 0.32031 0.2146 0.0
H2812 H 0.94484 0.35365 0.13267 0.0
H2813 H 0.92146 0.29599 0.05931 0.0
H2814 H 0.90253 0.29691 0.07072 0.0
H2815 H 0.91569 0.2943 0.10002 0.0
C2816 C 0.88816 0.31062 0.15441 0.0
C2817 C 0.89408 0.31296 0.18525 0.0
C2818 C 0.89974 0.31463 0.12982 0.0
C2819 C 0.91754 0.321 0.1354 0.0
C2820 C 0.92339 0.32251 0.16622 0.0
H2821 H 0.93492 0.35587 0.94895 0.0
H2822 H 0.9476 0.34744 0.99167 0.0
C2823 C 0.9117 0.31835 0.19102 0.0
C2824 C 0.92985 0.32898 0.10911 0.0
H2825 H 0.9277 0.32365 0.03067 0.0
C2826 C 0.94173 0.34696 0.11045 0.0
C2827 C 0.92671 0.32032 0.08019 0.0
C2828 C 0.91605 0.30075 0.07767 0.0
C2829 C 0.94767 0.35683 0.0831 0.0
C2830 C 0.9411 0.34853 0.05415 0.0
C2831 C 0.9322 0.33024 0.05286 0.0
C2832 C 0.93849 0.35789 0.02794 0.0
C2833 C 0.95946 0.37627 0.08563 0.0
C2834 C 0.92968 0.36708 0.03397 0.0
C2835 C 0.92241 0.37175 0.00982 0.0
C2836 C 0.92367 0.36729 0.97902 0.0
C2837 C 0.93376 0.35947 0.97253 0.0
C2838 C 0.94102 0.35467 0.9969 0.0
H2839 H 0.96967 0.37933 0.10345 0.0
H2840 H 0.96582 0.38214 0.06311 0.0
H2841 H 0.95179 0.38235 0.09344 0.0
H2842 H 0.92703 0.36932 0.05758 0.0
H2843 H 0.9148 0.37788 0.0155 0.0
H2844 H 0.67812 0.59283 0.2133 0.0
H2845 H 0.67045 0.60601 0.17007 0.0
H2846 H 0.69368 0.58637 0.10525 0.0
H2847 H 0.70127 0.57338 0.14777 0.0
H2848 H 0.69872 0.62074 0.09016 0.0
H2849 H 0.62952 0.57085 0.11406 0.0
H2850 H 0.64284 0.58645 0.14327 0.0
H2851 H 0.6466 0.56894 0.13316 0.0
C2852 C 0.68197 0.59179 0.18985 0.0
C2853 C 0.69003 0.58187 0.18371 0.0
C2854 C 0.67755 0.59927 0.16525 0.0
C2855 C 0.68136 0.59702 0.13447 0.0
C2856 C 0.69066 0.58832 0.12883 0.0
H2857 H 0.67373 0.55968 0.98271 0.0
H2858 H 0.68062 0.57974 0.02593 0.0
C2859 C 0.69489 0.58078 0.15313 0.0
C2860 C 0.67372 0.60099 0.10726 0.0
H2861 H 0.63809 0.57701 0.06178 0.0
C2862 C 0.68521 0.61185 0.08418 0.0
C2863 C 0.65601 0.58972 0.09956 0.0
C2864 C 0.64292 0.57832 0.12371 0.0
C2865 C 0.68022 0.60939 0.05282 0.0
C2866 C 0.66347 0.59573 0.04469 0.0
C2867 C 0.65106 0.58727 0.06812 0.0
C2868 C 0.66071 0.58627 0.01501 0.0
C2869 C 0.69357 0.61982 0.02837 0.0
C2870 C 0.64713 0.5832 0.99449 0.0
C2871 C 0.64325 0.57173 0.96931 0.0
C2872 C 0.65252 0.56282 0.96521 0.0
C2873 C 0.66627 0.56625 0.98548 0.0
C2874 C 0.67037 0.5779 0.00995 0.0
H2875 H 0.70259 0.63325 0.0368 0.0
H2876 H 0.70145 0.61355 0.02326 0.0
H2877 H 0.68728 0.62051 0.00648 0.0
H2878 H 0.63933 0.58929 -0.00159 0.0
H2879 H 0.63256 0.56925 0.95394 0.0
H2880 H 0.57709 0.93191 0.05137 0.0
H2881 H 0.59757 0.94612 0.00828 0.0
H2882 H 0.55508 0.92079 0.94297 0.0
H2883 H 0.53485 0.90704 0.98537 0.0
H2884 H 0.6046 0.92852 0.96874 0.0
H2885 H 0.58314 0.96489 0.89719 0.0
H2886 H 0.57692 0.96036 0.93765 0.0
H2887 H 0.56361 0.94534 0.90748 0.0
C2888 C 0.5721 0.92994 0.02781 0.0
C2889 C 0.55441 0.91819 0.02164 0.0
C2890 C 0.58381 0.93808 0.00324 0.0
C2891 C 0.57791 0.93479 0.97228 0.0
C2892 C 0.56001 0.92406 0.96652 0.0
H2893 H 0.5721 0.87406 0.85245 0.0
H2894 H 0.58435 0.89502 0.89434 0.0
C2895 C 0.54841 0.91592 0.99086 0.0
C2896 C 0.59014 0.93902 0.94584 0.0
H2897 H 0.58757 0.94225 0.86747 0.0
C2898 C 0.60154 0.93232 0.9467 0.0
C2899 C 0.58714 0.94481 0.91709 0.0
C2900 C 0.57718 0.95445 0.91502 0.0
C2901 C 0.60693 0.928 0.91912 0.0
C2902 C 0.60031 0.92997 0.89043 0.0
C2903 C 0.59205 0.93997 0.8895 0.0
C2904 C 0.59694 0.91771 0.86436 0.0
C2905 C 0.61806 0.91959 0.92115 0.0
C2906 C 0.59993 0.92332 0.83324 0.0
C2907 C 0.59272 0.91116 0.80896 0.0
C2908 C 0.58215 0.89332 0.81563 0.0
C2909 C 0.5801 0.88773 0.84662 0.0
C2910 C 0.58738 0.89976 0.87066 0.0
H2911 H 0.62839 0.92628 0.93899 0.0
H2912 H 0.60991 0.90582 0.92862 0.0
H2913 H 0.62425 0.91994 0.8985 0.0
H2914 H 0.60704 0.9371 0.82782 0.0
H2915 H 0.59444 0.9158 0.78521 0.0
H2916 H 0.08575 0.6262 0.9829 0.0
H2917 H 0.0729 0.63517 0.94216 0.0
H2918 H 0.05462 0.65785 0.01074 0.0
H2919 H 0.06768 0.64887 0.05209 0.0
H2920 H 0.0393 0.63204 0.92796 0.0
H2921 H 0.09061 0.69979 0.95864 0.0
H2922 H 0.0916 0.68168 0.97554 0.0
H2923 H 0.07458 0.68595 0.98674 0.0
C2924 C 0.07864 0.63272 0.98946 0.0
C2925 C 0.07798 0.63711 0.02058 0.0
C2926 C 0.07117 0.63774 0.96616 0.0
C2927 C 0.06299 0.64736 0.97339 0.0
C2928 C 0.06101 0.65055 0.00468 0.0
H2929 H 0.09626 0.7039 0.80234 0.0
H2930 H 0.07463 0.69568 0.84455 0.0
C2931 C 0.06841 0.64537 0.02823 0.0
C2932 C 0.05949 0.65615 0.94742 0.0
H2933 H 0.08427 0.69317 0.90583 0.0
C2934 C 0.04851 0.64567 0.92341 0.0
C2935 C 0.07112 0.67405 0.94164 0.0
C2936 C 0.08266 0.68613 0.9669 0.0
C2937 C 0.05114 0.6518 0.89272 0.0
C2938 C 0.06518 0.66862 0.88618 0.0
C2939 C 0.07375 0.68011 0.91086 0.0
C2940 C 0.0749 0.6721 0.85661 0.0
C2941 C 0.04041 0.63951 0.86708 0.0
C2942 C 0.08216 0.66161 0.84955 0.0
C2943 C 0.09469 0.6665 0.82645 0.0
C2944 C 0.10011 0.68187 0.80956 0.0
C2945 C 0.09218 0.69195 0.81514 0.0
C2946 C 0.07982 0.68723 0.83901 0.0
H2947 H 0.02674 0.631 0.87485 0.0
H2948 H 0.04048 0.6467 0.84586 0.0
H2949 H 0.04581 0.63096 0.86113 0.0
H2950 H 0.07898 0.65016 0.86333 0.0
H2951 H 0.10056 0.65848 0.82241 0.0
H2952 H 0.32608 0.44867 0.00417 0.0
H2953 H 0.3199 0.43128 0.95747 0.0
H2954 H 0.35153 0.41031 0.99119 0.0
H2955 H 0.35787 0.42798 0.03878 0.0
H2956 H 0.36099 0.42417 0.93313 0.0
H2957 H 0.29026 0.38094 0.93225 0.0
H2958 H 0.29455 0.40197 0.94493 0.0
H2959 H 0.30225 0.39012 0.9679 0.0
C2960 C 0.33154 0.44018 0.00202 0.0
C2961 C 0.3426 0.43983 0.02502 0.0
C2962 C 0.32775 0.42999 0.97544 0.0
C2963 C 0.3349 0.41914 0.9711 0.0
C2964 C 0.34562 0.41835 0.99436 0.0
H2965 H 0.30733 0.40574 0.77587 0.0
H2966 H 0.31275 0.393 0.82255 0.0
C2967 C 0.34928 0.42849 0.0214 0.0
C2968 C 0.33318 0.41124 0.94 0.0
H2969 H 0.30316 0.39654 0.88173 0.0
C2970 C 0.34832 0.41738 0.92199 0.0
C2971 C 0.31674 0.40178 0.92537 0.0
C2972 C 0.30006 0.39316 0.94383 0.0
C2973 C 0.34738 0.41709 0.88942 0.0
C2974 C 0.33099 0.41086 0.87494 0.0
C2975 C 0.3158 0.40185 0.89282 0.0
C2976 C 0.32956 0.41788 0.84452 0.0
C2977 C 0.36404 0.42515 0.87094 0.0
C2978 C 0.33707 0.43599 0.84159 0.0
C2979 C 0.3338 0.44319 0.81554 0.0
C2980 C 0.32291 0.43246 0.79166 0.0
C2981 C 0.31579 0.41431 0.79395 0.0
C2982 C 0.31893 0.40703 0.82047 0.0
H2983 H 0.37366 0.42226 0.88193 0.0
H2984 H 0.36174 0.42033 0.84657 0.0
H2985 H 0.36984 0.43952 0.8707 0.0
H2986 H 0.34487 0.44462 0.86021 0.0
H2987 H 0.33959 0.45722 0.81444 0.0
H2988 H 0.08694 0.45973 0.48168 0.0
H2989 H 0.07253 0.43806 0.44163 0.0
H2990 H 0.05028 0.39759 0.51123 0.0
H2991 H 0.06528 0.41958 0.55195 0.0
H2992 H 0.06681 0.38963 0.47214 0.0
H2993 H 0.02839 0.40745 0.39874 0.0
H2994 H 0.04761 0.42775 0.40678 0.0
H2995 H 0.03345 0.41515 0.43843 0.0
C2996 C 0.07858 0.44629 0.48864 0.0
C2997 C 0.07748 0.44132 0.51989 0.0
C2998 C 0.07003 0.43385 0.46564 0.0
C2999 C 0.06001 0.41608 0.47324 0.0
C3000 C 0.05777 0.4112 0.50476 0.0
H3001 H 0.08064 0.39948 0.28897 0.0
H3002 H 0.05893 0.3861 0.33065 0.0
C3003 C 0.06636 0.42377 0.52799 0.0
C3004 C 0.05564 0.4031 0.44795 0.0
H3005 H 0.05207 0.4041 0.3694 0.0
C3006 C 0.06278 0.3921 0.44981 0.0
C3007 C 0.04944 0.40518 0.41886 0.0
C3008 C 0.03909 0.41438 0.41584 0.0
C3009 C 0.06732 0.38648 0.42274 0.0
C3010 C 0.06519 0.39257 0.39358 0.0
C3011 C 0.05459 0.40015 0.39177 0.0
C3012 C 0.07784 0.3963 0.36801 0.0
C3013 C 0.07614 0.37578 0.42579 0.0
C3014 C 0.09569 0.40614 0.37503 0.0
C3015 C 0.10796 0.41381 0.3515 0.0
C3016 C 0.10274 0.41195 0.32029 0.0
C3017 C 0.08502 0.40111 0.31289 0.0
C3018 C 0.07262 0.39344 0.33666 0.0
H3019 H 0.06933 0.3654 0.44347 0.0
H3020 H 0.07635 0.36966 0.40336 0.0
H3021 H 0.08971 0.38419 0.43406 0.0
H3022 H 0.10015 0.40911 0.39888 0.0
H3023 H 0.12152 0.42199 0.35794 0.0
H3024 H 0.59718 0.67992 0.26711 0.0
H3025 H 0.61118 0.67377 0.31098 0.0
H3026 H 0.58862 0.69469 0.37451 0.0
H3027 H 0.57468 0.7007 0.33136 0.0
H3028 H 0.62545 0.70306 0.38787 0.0
H3029 H 0.57742 0.63259 0.3705 0.0
H3030 H 0.59154 0.64587 0.33954 0.0
H3031 H 0.57358 0.64848 0.35141 0.0
C3032 C 0.59558 0.68355 0.29042 0.0
C3033 C 0.58466 0.69057 0.29596 0.0
C3034 C 0.60356 0.68002 0.31536 0.0
C3035 C 0.60086 0.68373 0.34591 0.0
C3036 C 0.59094 0.69181 0.35107 0.0
H3037 H 0.56793 0.6804 0.49956 0.0
H3038 H 0.58822 0.68727 0.45688 0.0
C3039 C 0.58286 0.69512 0.32641 0.0
C3040 C 0.60594 0.67729 0.37341 0.0
H3041 H 0.58425 0.64275 0.4221 0.0
C3042 C 0.61712 0.68965 0.39514 0.0
C3043 C 0.59547 0.65973 0.38272 0.0
C3044 C 0.58383 0.64579 0.35992 0.0
C3045 C 0.61576 0.68553 0.42686 0.0
C3046 C 0.6027 0.66884 0.43675 0.0
C3047 C 0.59401 0.65568 0.41452 0.0
C3048 C 0.59386 0.66663 0.46697 0.0
C3049 C 0.62673 0.69966 0.44983 0.0
C3050 C 0.59023 0.6527 0.48706 0.0
C3051 C 0.57855 0.64879 0.51187 0.0
C3052 C 0.57003 0.65842 0.51606 0.0
C3053 C 0.57424 0.6727 0.49667 0.0
C3054 C 0.58606 0.6768 0.47253 0.0
H3055 H 0.64003 0.70816 0.44043 0.0
H3056 H 0.62081 0.70796 0.45386 0.0
H3057 H 0.62769 0.69413 0.47244 0.0
H3058 H 0.59584 0.64449 0.48279 0.0
H3059 H 0.57544 0.63768 0.52657 0.0
H3060 H 0.31125 0.91151 0.28258 0.0
H3061 H 0.32002 0.93286 0.32506 0.0
H3062 H 0.30335 0.89118 0.39191 0.0
H3063 H 0.29413 0.87007 0.3502 0.0
H3064 H 0.29863 0.91745 0.41395 0.0
H3065 H 0.36571 0.94514 0.3655 0.0
H3066 H 0.34902 0.94625 0.34356 0.0
H3067 H 0.34812 0.92568 0.34859 0.0
C3068 C 0.30899 0.90693 0.3064 0.0
C3069 C 0.3024 0.88917 0.31312 0.0
C3070 C 0.31412 0.91915 0.33063 0.0
C3071 C 0.31279 0.9137 0.3617 0.0
C3072 C 0.3046 0.89579 0.36819 0.0
H3073 H 0.35739 0.89712 0.48624 0.0
H3074 H 0.34976 0.90979 0.44347 0.0
C3075 C 0.29945 0.88368 0.34423 0.0
C3076 C 0.32212 0.92593 0.38763 0.0
H3077 H 0.36268 0.94342 0.41933 0.0
C3078 C 0.31272 0.92388 0.41511 0.0
C3079 C 0.34056 0.93481 0.38894 0.0
C3080 C 0.35154 0.93819 0.36017 0.0
C3081 C 0.3209 0.92711 0.44428 0.0
C3082 C 0.33895 0.93302 0.4456 0.0
C3083 C 0.34876 0.93847 0.4181 0.0
C3084 C 0.34633 0.92803 0.47196 0.0
C3085 C 0.30979 0.92181 0.4732 0.0
C3086 C 0.34744 0.93438 0.5023 0.0
C3087 C 0.35171 0.92694 0.52717 0.0
C3088 C 0.35489 0.91308 0.52189 0.0
C3089 C 0.35482 0.90761 0.49124 0.0
C3090 C 0.35057 0.91497 0.46665 0.0
H3091 H 0.29594 0.91753 0.46801 0.0
H3092 H 0.31037 0.91096 0.48497 0.0
H3093 H 0.31482 0.93295 0.48961 0.0
H3094 H 0.34445 0.94462 0.50688 0.0
H3095 H 0.35178 0.93152 0.55056 0.0
loop_
_geom_bond_atom_site_label_1
_geom_bond_atom_site_label_2
_geom_bond_distance
_geom_bond_site_symmetry_2
_ccdc_geom_bond_type
Zn0 O3 2.031 . S
Zn0 O5 2.049 . S
Zn0 O10 2.067 . S
Zn1 O2 1.962 . S
Zn1 O4 1.986 . S
Zn1 O6 1.996 . S
Zn1 O9 1.943 . S
O2 Zn1 1.962 . S
O2 C7 1.254 . S
O3 Zn0 2.031 . S
O3 C7 1.269 . S
O4 Zn1 1.986 . S
O4 C11 1.262 . S
O5 Zn0 2.049 . S
O5 C13 1.260 . S
O6 Zn1 1.996 . S
O6 C13 1.257 . S
C7 O2 1.254 . S
C7 O3 1.269 . S
C8 O9 1.249 . S
C8 O10 1.270 . S
O9 Zn1 1.943 . S
O9 C8 1.249 . S
O10 Zn0 2.067 . S
O10 C8 1.270 . S
C11 O4 1.262 . S
C11 O12 1.232 . S
O12 C11 1.232 . S
C13 O5 1.260 . S
C13 O6 1.257 . S
Zn14 O17 2.031 1_545 S
Zn14 O19 2.049 . S
Zn14 O24 2.067 . S
Zn15 O16 1.962 . S
Zn15 O18 1.986 . S
Zn15 O20 1.996 . S
Zn15 O23 1.943 . S
O16 Zn15 1.962 . S
O16 C21 1.254 1_545 S
O17 Zn14 2.031 1_565 S
O17 C21 1.269 . S
O18 Zn15 1.986 . S
O18 C25 1.262 . S
O19 Zn14 2.049 . S
O19 C27 1.260 . S
O20 Zn15 1.996 . S
O20 C27 1.257 . S
C21 O16 1.254 1_565 S
C21 O17 1.269 . S
C22 O23 1.249 . S
C22 O24 1.270 . S
O23 Zn15 1.943 . S
O23 C22 1.249 . S
O24 Zn14 2.067 . S
O24 C22 1.270 . S
C25 O18 1.262 . S
C25 O26 1.232 . S
O26 C25 1.232 . S
C27 O19 1.260 . S
C27 O20 1.257 . S
Zn28 O31 2.031 1_655 S
Zn28 O33 2.049 . S
Zn28 O38 2.067 . S
Zn29 O30 1.962 . S
Zn29 O32 1.986 . S
Zn29 O34 1.996 . S
Zn29 O37 1.943 . S
O30 Zn29 1.962 . S
O30 C35 1.254 1_655 S
O31 Zn28 2.031 1_455 S
O31 C35 1.269 . S
O32 Zn29 1.986 . S
O32 C39 1.262 . S
O33 Zn28 2.049 . S
O33 C41 1.260 . S
O34 Zn29 1.996 . S
O34 C41 1.257 . S
C35 O30 1.254 1_455 S
C35 O31 1.269 . S
C36 O37 1.249 . S
C36 O38 1.270 . S
O37 Zn29 1.943 . S
O37 C36 1.249 . S
O38 Zn28 2.067 . S
O38 C36 1.270 . S
C39 O32 1.262 . S
C39 O40 1.232 . S
O40 C39 1.232 . S
C41 O33 1.260 . S
C41 O34 1.257 . S
Zn42 O45 2.031 . S
Zn42 O47 2.049 . S
Zn42 O52 2.067 . S
Zn43 O44 1.962 . S
Zn43 O46 1.986 . S
Zn43 O48 1.996 . S
Zn43 O51 1.943 . S
O44 Zn43 1.962 . S
O44 C49 1.254 . S
O45 Zn42 2.031 . S
O45 C49 1.269 . S
O46 Zn43 1.986 . S
O46 C53 1.262 . S
O47 Zn42 2.049 . S
O47 C55 1.260 . S
O48 Zn43 1.996 . S
O48 C55 1.257 . S
C49 O44 1.254 . S
C49 O45 1.269 . S
C50 O51 1.249 . S
C50 O52 1.270 . S
O51 Zn43 1.943 . S
O51 C50 1.249 . S
O52 Zn42 2.067 . S
O52 C50 1.270 . S
C53 O46 1.262 . S
C53 O54 1.232 . S
O54 C53 1.232 . S
C55 O47 1.260 . S
C55 O48 1.257 . S
Zn56 O59 2.031 1_565 S
Zn56 O61 2.049 . S
Zn56 O66 2.067 . S
Zn57 O58 1.962 . S
Zn57 O60 1.986 . S
Zn57 O62 1.996 . S
Zn57 O65 1.943 . S
O58 Zn57 1.962 . S
O58 C63 1.254 1_565 S
O59 Zn56 2.031 1_545 S
O59 C63 1.269 . S
O60 Zn57 1.986 . S
O60 C67 1.262 . S
O61 Zn56 2.049 . S
O61 C69 1.260 . S
O62 Zn57 1.996 . S
O62 C69 1.257 . S
C63 O58 1.254 1_545 S
C63 O59 1.269 . S
C64 O65 1.249 . S
C64 O66 1.270 . S
O65 Zn57 1.943 . S
O65 C64 1.249 . S
O66 Zn56 2.067 . S
O66 C64 1.270 . S
C67 O60 1.262 . S
C67 O68 1.232 . S
O68 C67 1.232 . S
C69 O61 1.260 . S
C69 O62 1.257 . S
Zn70 O73 2.031 1_455 S
Zn70 O75 2.049 . S
Zn70 O80 2.067 . S
Zn71 O72 1.962 . S
Zn71 O74 1.986 . S
Zn71 O76 1.996 . S
Zn71 O79 1.943 . S
O72 Zn71 1.962 . S
O72 C77 1.254 1_455 S
O73 Zn70 2.031 1_655 S
O73 C77 1.269 . S
O74 Zn71 1.986 . S
O74 C81 1.262 . S
O75 Zn70 2.049 . S
O75 C83 1.260 . S
O76 Zn71 1.996 . S
O76 C83 1.257 . S
C77 O72 1.254 1_655 S
C77 O73 1.269 . S
C78 O79 1.249 . S
C78 O80 1.270 . S
O79 Zn71 1.943 . S
O79 C78 1.249 . S
O80 Zn70 2.067 . S
O80 C78 1.270 . S
C81 O74 1.262 . S
C81 O82 1.232 . S
O82 C81 1.232 . S
C83 O75 1.260 . S
C83 O76 1.257 . S
Zn84 O87 2.031 . S
Zn84 O89 2.049 . S
Zn84 O94 2.067 . S
Zn85 O86 1.962 . S
Zn85 O88 1.986 . S
Zn85 O90 1.996 . S
Zn85 O93 1.943 . S
O86 Zn85 1.962 . S
O86 C91 1.254 . S
O87 Zn84 2.031 . S
O87 C91 1.269 . S
O88 Zn85 1.986 . S
O88 C95 1.262 . S
O89 Zn84 2.049 . S
O89 C97 1.260 . S
O90 Zn85 1.996 . S
O90 C97 1.257 . S
C91 O86 1.254 . S
C91 O87 1.269 . S
C92 O93 1.249 . S
C92 O94 1.270 . S
O93 Zn85 1.943 . S
O93 C92 1.249 . S
O94 Zn84 2.067 . S
O94 C92 1.270 . S
C95 O88 1.262 . S
C95 O96 1.232 . S
O96 C95 1.232 . S
C97 O89 1.260 . S
C97 O90 1.257 . S
Zn98 O101 2.031 1_565 S
Zn98 O103 2.049 . S
Zn98 O108 2.067 . S
Zn99 O100 1.962 . S
Zn99 O102 1.986 . S
Zn99 O104 1.996 . S
Zn99 O107 1.943 . S
O100 Zn99 1.962 . S
O100 C105 1.254 1_565 S
O101 Zn98 2.031 1_545 S
O101 C105 1.269 . S
O102 Zn99 1.986 . S
O102 C109 1.262 . S
O103 Zn98 2.049 . S
O103 C111 1.260 . S
O104 Zn99 1.996 . S
O104 C111 1.257 . S
C105 O100 1.254 1_545 S
C105 O101 1.269 . S
C106 O107 1.249 . S
C106 O108 1.270 . S
O107 Zn99 1.943 . S
O107 C106 1.249 . S
O108 Zn98 2.067 . S
O108 C106 1.270 . S
C109 O102 1.262 . S
C109 O110 1.232 . S
O110 C109 1.232 . S
C111 O103 1.260 . S
C111 O104 1.257 . S
Zn112 O115 2.031 1_455 S
Zn112 O117 2.049 . S
Zn112 O122 2.067 . S
Zn113 O114 1.962 . S
Zn113 O116 1.986 . S
Zn113 O118 1.996 . S
Zn113 O121 1.943 . S
O114 Zn113 1.962 . S
O114 C119 1.254 1_455 S
O115 Zn112 2.031 1_655 S
O115 C119 1.269 . S
O116 Zn113 1.986 . S
O116 C123 1.262 . S
O117 Zn112 2.049 . S
O117 C125 1.260 . S
O118 Zn113 1.996 . S
O118 C125 1.257 . S
C119 O114 1.254 1_655 S
C119 O115 1.269 . S
C120 O121 1.249 . S
C120 O122 1.270 . S
O121 Zn113 1.943 . S
O121 C120 1.249 . S
O122 Zn112 2.067 . S
O122 C120 1.270 . S
C123 O116 1.262 . S
C123 O124 1.232 . S
O124 C123 1.232 . S
C125 O117 1.260 . S
C125 O118 1.257 . S
Zn126 O129 2.031 . S
Zn126 O131 2.049 . S
Zn126 O136 2.067 . S
Zn127 O128 1.962 . S
Zn127 O130 1.986 . S
Zn127 O132 1.996 . S
Zn127 O135 1.943 . S
O128 Zn127 1.962 . S
O128 C133 1.254 . S
O129 Zn126 2.031 . S
O129 C133 1.269 . S
O130 Zn127 1.986 . S
O130 C137 1.262 . S
O131 Zn126 2.049 . S
O131 C139 1.260 . S
O132 Zn127 1.996 . S
O132 C139 1.257 . S
C133 O128 1.254 . S
C133 O129 1.269 . S
C134 O135 1.249 . S
C134 O136 1.270 . S
O135 Zn127 1.943 . S
O135 C134 1.249 . S
O136 Zn126 2.067 . S
O136 C134 1.270 . S
C137 O130 1.262 . S
C137 O138 1.232 . S
O138 C137 1.232 . S
C139 O131 1.260 . S
C139 O132 1.257 . S
Zn140 O143 2.031 1_545 S
Zn140 O145 2.049 . S
Zn140 O150 2.067 . S
Zn141 O142 1.962 . S
Zn141 O144 1.986 . S
Zn141 O146 1.996 . S
Zn141 O149 1.943 . S
O142 Zn141 1.962 . S
O142 C147 1.254 1_545 S
O143 Zn140 2.031 1_565 S
O143 C147 1.269 . S
O144 Zn141 1.986 . S
O144 C151 1.262 . S
O145 Zn140 2.049 . S
O145 C153 1.260 . S
O146 Zn141 1.996 . S
O146 C153 1.257 . S
C147 O142 1.254 1_565 S
C147 O143 1.269 . S
C148 O149 1.249 . S
C148 O150 1.270 . S
O149 Zn141 1.943 . S
O149 C148 1.249 . S
O150 Zn140 2.067 . S
O150 C148 1.270 . S
C151 O144 1.262 . S
C151 O152 1.232 . S
O152 C151 1.232 . S
C153 O145 1.260 . S
C153 O146 1.257 . S
Zn154 O157 2.031 1_655 S
Zn154 O159 2.049 . S
Zn154 O164 2.067 . S
Zn155 O156 1.962 . S
Zn155 O158 1.986 . S
Zn155 O160 1.996 . S
Zn155 O163 1.943 . S
O156 Zn155 1.962 . S
O156 C161 1.254 1_655 S
O157 Zn154 2.031 1_455 S
O157 C161 1.269 . S
O158 Zn155 1.986 . S
O158 C165 1.262 . S
O159 Zn154 2.049 . S
O159 C167 1.260 . S
O160 Zn155 1.996 . S
O160 C167 1.257 . S
C161 O156 1.254 1_455 S
C161 O157 1.269 . S
C162 O163 1.249 . S
C162 O164 1.270 . S
O163 Zn155 1.943 . S
O163 C162 1.249 . S
O164 Zn154 2.067 . S
O164 C162 1.270 . S
C165 O158 1.262 . S
C165 O166 1.232 . S
O166 C165 1.232 . S
C167 O159 1.260 . S
C167 O160 1.257 . S
Zn168 O171 2.031 . S
Zn168 O173 2.049 . S
Zn168 O178 2.067 . S
Zn169 O170 1.962 . S
Zn169 O172 1.986 . S
Zn169 O174 1.996 . S
Zn169 O177 1.943 . S
O170 Zn169 1.962 . S
O170 C175 1.254 . S
O171 Zn168 2.031 . S
O171 C175 1.269 . S
O172 Zn169 1.986 . S
O172 C179 1.262 . S
O173 Zn168 2.049 . S
O173 C181 1.260 . S
O174 Zn169 1.996 . S
O174 C181 1.257 . S
C175 O170 1.254 . S
C175 O171 1.269 . S
C176 O177 1.249 . S
C176 O178 1.270 . S
O177 Zn169 1.943 . S
O177 C176 1.249 . S
O178 Zn168 2.067 . S
O178 C176 1.270 . S
C179 O172 1.262 . S
C179 O180 1.232 . S
O180 C179 1.232 . S
C181 O173 1.260 . S
C181 O174 1.257 . S
Zn182 O185 2.031 . S
Zn182 O187 2.049 . S
Zn182 O192 2.067 . S
Zn183 O184 1.962 . S
Zn183 O186 1.986 . S
Zn183 O188 1.996 . S
Zn183 O191 1.943 . S
O184 Zn183 1.962 . S
O184 C189 1.254 . S
O185 Zn182 2.031 . S
O185 C189 1.269 . S
O186 Zn183 1.986 . S
O186 C193 1.262 . S
O187 Zn182 2.049 . S
O187 C195 1.260 . S
O188 Zn183 1.996 . S
O188 C195 1.257 . S
C189 O184 1.254 . S
C189 O185 1.269 . S
C190 O191 1.249 . S
C190 O192 1.270 . S
O191 Zn183 1.943 . S
O191 C190 1.249 . S
O192 Zn182 2.067 . S
O192 C190 1.270 . S
C193 O186 1.262 . S
C193 O194 1.232 . S
O194 C193 1.232 . S
C195 O187 1.260 . S
C195 O188 1.257 . S
Zn196 O199 2.031 . S
Zn196 O201 2.049 . S
Zn196 O206 2.067 . S
Zn197 O198 1.962 . S
Zn197 O200 1.986 . S
Zn197 O202 1.996 . S
Zn197 O205 1.943 . S
O198 Zn197 1.962 . S
O198 C203 1.254 . S
O199 Zn196 2.031 . S
O199 C203 1.269 . S
O200 Zn197 1.986 . S
O200 C207 1.262 . S
O201 Zn196 2.049 . S
O201 C209 1.260 . S
O202 Zn197 1.996 . S
O202 C209 1.257 . S
C203 O198 1.254 . S
C203 O199 1.269 . S
C204 O205 1.249 . S
C204 O206 1.270 . S
O205 Zn197 1.943 . S
O205 C204 1.249 . S
O206 Zn196 2.067 . S
O206 C204 1.270 . S
C207 O200 1.262 . S
C207 O208 1.232 . S
O208 C207 1.232 . S
C209 O201 1.260 . S
C209 O202 1.257 . S
Zn210 O213 2.031 . S
Zn210 O215 2.049 . S
Zn210 O220 2.067 . S
Zn211 O212 1.962 . S
Zn211 O214 1.986 . S
Zn211 O216 1.996 . S
Zn211 O219 1.943 . S
O212 Zn211 1.962 . S
O212 C217 1.254 . S
O213 Zn210 2.031 . S
O213 C217 1.269 . S
O214 Zn211 1.986 . S
O214 C221 1.262 . S
O215 Zn210 2.049 . S
O215 C223 1.260 . S
O216 Zn211 1.996 . S
O216 C223 1.257 . S
C217 O212 1.254 . S
C217 O213 1.269 . S
C218 O219 1.249 . S
C218 O220 1.270 . S
O219 Zn211 1.943 . S
O219 C218 1.249 . S
O220 Zn210 2.067 . S
O220 C218 1.270 . S
C221 O214 1.262 . S
C221 O222 1.232 . S
O222 C221 1.232 . S
C223 O215 1.260 . S
C223 O216 1.257 . S
Zn224 O227 2.031 . S
Zn224 O229 2.049 . S
Zn224 O234 2.067 . S
Zn225 O226 1.962 . S
Zn225 O228 1.986 . S
Zn225 O230 1.996 . S
Zn225 O233 1.943 . S
O226 Zn225 1.962 . S
O226 C231 1.254 . S
O227 Zn224 2.031 . S
O227 C231 1.269 . S
O228 Zn225 1.986 . S
O228 C235 1.262 . S
O229 Zn224 2.049 . S
O229 C237 1.260 . S
O230 Zn225 1.996 . S
O230 C237 1.257 . S
C231 O226 1.254 . S
C231 O227 1.269 . S
C232 O233 1.249 . S
C232 O234 1.270 . S
O233 Zn225 1.943 . S
O233 C232 1.249 . S
O234 Zn224 2.067 . S
O234 C232 1.270 . S
C235 O228 1.262 . S
C235 O236 1.232 . S
O236 C235 1.232 . S
C237 O229 1.260 . S
C237 O230 1.257 . S
Zn238 O241 2.031 . S
Zn238 O243 2.049 . S
Zn238 O248 2.067 . S
Zn239 O240 1.962 . S
Zn239 O242 1.986 . S
Zn239 O244 1.996 . S
Zn239 O247 1.943 . S
O240 Zn239 1.962 . S
O240 C245 1.254 . S
O241 Zn238 2.031 . S
O241 C245 1.269 . S
O242 Zn239 1.986 . S
O242 C249 1.262 . S
O243 Zn238 2.049 . S
O243 C251 1.260 . S
O244 Zn239 1.996 . S
O244 C251 1.257 . S
C245 O240 1.254 . S
C245 O241 1.269 . S
C246 O247 1.249 . S
C246 O248 1.270 . S
O247 Zn239 1.943 . S
O247 C246 1.249 . S
O248 Zn238 2.067 . S
O248 C246 1.270 . S
C249 O242 1.262 . S
C249 O250 1.232 . S
O250 C249 1.232 . S
C251 O243 1.260 . S
C251 O244 1.257 . S
Zn252 O255 2.031 . S
Zn252 O257 2.049 . S
Zn252 O262 2.067 . S
Zn253 O254 1.962 . S
Zn253 O256 1.986 . S
Zn253 O258 1.996 . S
Zn253 O261 1.943 . S
O254 Zn253 1.962 . S
O254 C259 1.254 . S
O255 Zn252 2.031 . S
O255 C259 1.269 . S
O256 Zn253 1.986 . S
O256 C263 1.262 . S
O257 Zn252 2.049 . S
O257 C265 1.260 . S
O258 Zn253 1.996 . S
O258 C265 1.257 . S
C259 O254 1.254 . S
C259 O255 1.269 . S
C260 O261 1.249 . S
C260 O262 1.270 . S
O261 Zn253 1.943 . S
O261 C260 1.249 . S
O262 Zn252 2.067 . S
O262 C260 1.270 . S
C263 O256 1.262 . S
C263 O264 1.232 . S
O264 C263 1.232 . S
C265 O257 1.260 . S
C265 O258 1.257 . S
Zn266 O269 2.031 . S
Zn266 O271 2.049 . S
Zn266 O276 2.067 . S
Zn267 O268 1.962 . S
Zn267 O270 1.986 . S
Zn267 O272 1.996 . S
Zn267 O275 1.943 . S
O268 Zn267 1.962 . S
O268 C273 1.254 . S
O269 Zn266 2.031 . S
O269 C273 1.269 . S
O270 Zn267 1.986 . S
O270 C277 1.262 . S
O271 Zn266 2.049 . S
O271 C279 1.260 . S
O272 Zn267 1.996 . S
O272 C279 1.257 . S
C273 O268 1.254 . S
C273 O269 1.269 . S
C274 O275 1.249 . S
C274 O276 1.270 . S
O275 Zn267 1.943 . S
O275 C274 1.249 . S
O276 Zn266 2.067 . S
O276 C274 1.270 . S
C277 O270 1.262 . S
C277 O278 1.232 . S
O278 C277 1.232 . S
C279 O271 1.260 . S
C279 O272 1.257 . S
Zn280 O283 2.031 . S
Zn280 O285 2.049 . S
Zn280 O290 2.067 . S
Zn281 O282 1.962 . S
Zn281 O284 1.986 . S
Zn281 O286 1.996 . S
Zn281 O289 1.943 . S
O282 Zn281 1.962 . S
O282 C287 1.254 . S
O283 Zn280 2.031 . S
O283 C287 1.269 . S
O284 Zn281 1.986 . S
O284 C291 1.262 . S
O285 Zn280 2.049 . S
O285 C293 1.260 . S
O286 Zn281 1.996 . S
O286 C293 1.257 . S
C287 O282 1.254 . S
C287 O283 1.269 . S
C288 O289 1.249 . S
C288 O290 1.270 . S
O289 Zn281 1.943 . S
O289 C288 1.249 . S
O290 Zn280 2.067 . S
O290 C288 1.270 . S
C291 O284 1.262 . S
C291 O292 1.232 . S
O292 C291 1.232 . S
C293 O285 1.260 . S
C293 O286 1.257 . S
Zn294 O297 2.031 . S
Zn294 O299 2.049 . S
Zn294 O304 2.067 . S
Zn295 O296 1.962 . S
Zn295 O298 1.986 . S
Zn295 O300 1.996 . S
Zn295 O303 1.943 . S
O296 Zn295 1.962 . S
O296 C301 1.254 . S
O297 Zn294 2.031 . S
O297 C301 1.269 . S
O298 Zn295 1.986 . S
O298 C305 1.262 . S
O299 Zn294 2.049 . S
O299 C307 1.260 . S
O300 Zn295 1.996 . S
O300 C307 1.257 . S
C301 O296 1.254 . S
C301 O297 1.269 . S
C302 O303 1.249 . S
C302 O304 1.270 . S
O303 Zn295 1.943 . S
O303 C302 1.249 . S
O304 Zn294 2.067 . S
O304 C302 1.270 . S
C305 O298 1.262 . S
C305 O306 1.232 . S
O306 C305 1.232 . S
C307 O299 1.260 . S
C307 O300 1.257 . S
Zn308 O311 2.031 . S
Zn308 O313 2.049 . S
Zn308 O318 2.067 . S
Zn309 O310 1.962 . S
Zn309 O312 1.986 . S
Zn309 O314 1.996 . S
Zn309 O317 1.943 . S
O310 Zn309 1.962 . S
O310 C315 1.254 . S
O311 Zn308 2.031 . S
O311 C315 1.269 . S
O312 Zn309 1.986 . S
O312 C319 1.262 . S
O313 Zn308 2.049 . S
O313 C321 1.260 . S
O314 Zn309 1.996 . S
O314 C321 1.257 . S
C315 O310 1.254 . S
C315 O311 1.269 . S
C316 O317 1.249 . S
C316 O318 1.270 . S
O317 Zn309 1.943 . S
O317 C316 1.249 . S
O318 Zn308 2.067 . S
O318 C316 1.270 . S
C319 O312 1.262 . S
C319 O320 1.232 . S
O320 C319 1.232 . S
C321 O313 1.260 . S
C321 O314 1.257 . S
Zn322 O325 2.031 . S
Zn322 O327 2.049 . S
Zn322 O332 2.067 . S
Zn323 O324 1.962 . S
Zn323 O326 1.986 . S
Zn323 O328 1.996 . S
Zn323 O331 1.943 . S
O324 Zn323 1.962 . S
O324 C329 1.254 . S
O325 Zn322 2.031 . S
O325 C329 1.269 . S
O326 Zn323 1.986 . S
O326 C333 1.262 . S
O327 Zn322 2.049 . S
O327 C335 1.260 . S
O328 Zn323 1.996 . S
O328 C335 1.257 . S
C329 O324 1.254 . S
C329 O325 1.269 . S
C330 O331 1.249 . S
C330 O332 1.270 . S
O331 Zn323 1.943 . S
O331 C330 1.249 . S
O332 Zn322 2.067 . S
O332 C330 1.270 . S
C333 O326 1.262 . S
C333 O334 1.232 . S
O334 C333 1.232 . S
C335 O327 1.260 . S
C335 O328 1.257 . S
Zn336 O339 2.031 . S
Zn336 O341 2.049 . S
Zn336 O346 2.067 . S
Zn337 O338 1.962 . S
Zn337 O340 1.986 . S
Zn337 O342 1.996 . S
Zn337 O345 1.943 . S
O338 Zn337 1.962 . S
O338 C343 1.254 . S
O339 Zn336 2.031 . S
O339 C343 1.269 . S
O340 Zn337 1.986 . S
O340 C347 1.262 . S
O341 Zn336 2.049 . S
O341 C349 1.260 . S
O342 Zn337 1.996 . S
O342 C349 1.257 . S
C343 O338 1.254 . S
C343 O339 1.269 . S
C344 O345 1.249 . S
C344 O346 1.270 . S
O345 Zn337 1.943 . S
O345 C344 1.249 . S
O346 Zn336 2.067 . S
O346 C344 1.270 . S
C347 O340 1.262 . S
C347 O348 1.232 . S
O348 C347 1.232 . S
C349 O341 1.260 . S
C349 O342 1.257 . S
Zn350 O353 2.031 . S
Zn350 O355 2.049 . S
Zn350 O360 2.067 . S
Zn351 O352 1.962 . S
Zn351 O354 1.986 . S
Zn351 O356 1.996 . S
Zn351 O359 1.943 . S
O352 Zn351 1.962 . S
O352 C357 1.254 . S
O353 Zn350 2.031 . S
O353 C357 1.269 . S
O354 Zn351 1.986 . S
O354 C361 1.262 . S
O355 Zn350 2.049 . S
O355 C363 1.260 . S
O356 Zn351 1.996 . S
O356 C363 1.257 . S
C357 O352 1.254 . S
C357 O353 1.269 . S
C358 O359 1.249 . S
C358 O360 1.270 . S
O359 Zn351 1.943 . S
O359 C358 1.249 . S
O360 Zn350 2.067 . S
O360 C358 1.270 . S
C361 O354 1.262 . S
C361 O362 1.232 . S
O362 C361 1.232 . S
C363 O355 1.260 . S
C363 O356 1.257 . S
Zn364 O367 2.031 . S
Zn364 O369 2.049 . S
Zn364 O374 2.067 . S
Zn365 O366 1.962 . S
Zn365 O368 1.986 . S
Zn365 O370 1.996 . S
Zn365 O373 1.943 . S
O366 Zn365 1.962 . S
O366 C371 1.254 . S
O367 Zn364 2.031 . S
O367 C371 1.269 . S
O368 Zn365 1.986 . S
O368 C375 1.262 . S
O369 Zn364 2.049 . S
O369 C377 1.260 . S
O370 Zn365 1.996 . S
O370 C377 1.257 . S
C371 O366 1.254 . S
C371 O367 1.269 . S
C372 O373 1.249 . S
C372 O374 1.270 . S
O373 Zn365 1.943 . S
O373 C372 1.249 . S
O374 Zn364 2.067 . S
O374 C372 1.270 . S
C375 O368 1.262 . S
C375 O376 1.232 . S
O376 C375 1.232 . S
C377 O369 1.260 . S
C377 O370 1.257 . S
Zn378 O381 2.031 . S
Zn378 O383 2.049 . S
Zn378 O388 2.067 . S
Zn379 O380 1.962 . S
Zn379 O382 1.986 . S
Zn379 O384 1.996 . S
Zn379 O387 1.943 . S
O380 Zn379 1.962 . S
O380 C385 1.254 . S
O381 Zn378 2.031 . S
O381 C385 1.269 . S
O382 Zn379 1.986 . S
O382 C389 1.262 . S
O383 Zn378 2.049 . S
O383 C391 1.260 . S
O384 Zn379 1.996 . S
O384 C391 1.257 . S
C385 O380 1.254 . S
C385 O381 1.269 . S
C386 O387 1.249 . S
C386 O388 1.270 . S
O387 Zn379 1.943 . S
O387 C386 1.249 . S
O388 Zn378 2.067 . S
O388 C386 1.270 . S
C389 O382 1.262 . S
C389 O390 1.232 . S
O390 C389 1.232 . S
C391 O383 1.260 . S
C391 O384 1.257 . S
Zn392 O395 2.031 . S
Zn392 O397 2.049 . S
Zn392 O402 2.067 . S
Zn393 O394 1.962 . S
Zn393 O396 1.986 . S
Zn393 O398 1.996 . S
Zn393 O401 1.943 . S
O394 Zn393 1.962 . S
O394 C399 1.254 . S
O395 Zn392 2.031 . S
O395 C399 1.269 . S
O396 Zn393 1.986 . S
O396 C403 1.262 . S
O397 Zn392 2.049 . S
O397 C405 1.260 . S
O398 Zn393 1.996 . S
O398 C405 1.257 . S
C399 O394 1.254 . S
C399 O395 1.269 . S
C400 O401 1.249 . S
C400 O402 1.270 . S
O401 Zn393 1.943 . S
O401 C400 1.249 . S
O402 Zn392 2.067 . S
O402 C400 1.270 . S
C403 O396 1.262 . S
C403 O404 1.232 . S
O404 C403 1.232 . S
C405 O397 1.260 . S
C405 O398 1.257 . S
Zn406 O409 2.031 . S
Zn406 O411 2.049 . S
Zn406 O416 2.067 . S
Zn407 O408 1.962 . S
Zn407 O410 1.986 . S
Zn407 O412 1.996 . S
Zn407 O415 1.943 . S
O408 Zn407 1.962 . S
O408 C413 1.254 . S
O409 Zn406 2.031 . S
O409 C413 1.269 . S
O410 Zn407 1.986 . S
O410 C417 1.262 . S
O411 Zn406 2.049 . S
O411 C419 1.260 . S
O412 Zn407 1.996 . S
O412 C419 1.257 . S
C413 O408 1.254 . S
C413 O409 1.269 . S
C414 O415 1.249 . S
C414 O416 1.270 . S
O415 Zn407 1.943 . S
O415 C414 1.249 . S
O416 Zn406 2.067 . S
O416 C414 1.270 . S
C417 O410 1.262 . S
C417 O418 1.232 . S
O418 C417 1.232 . S
C419 O411 1.260 . S
C419 O412 1.257 . S
Zn420 O423 2.031 . S
Zn420 O425 2.049 . S
Zn420 O430 2.067 . S
Zn421 O422 1.962 . S
Zn421 O424 1.986 . S
Zn421 O426 1.996 . S
Zn421 O429 1.943 . S
O422 Zn421 1.962 . S
O422 C427 1.254 . S
O423 Zn420 2.031 . S
O423 C427 1.269 . S
O424 Zn421 1.986 . S
O424 C431 1.262 . S
O425 Zn420 2.049 . S
O425 C433 1.260 . S
O426 Zn421 1.996 . S
O426 C433 1.257 . S
C427 O422 1.254 . S
C427 O423 1.269 . S
C428 O429 1.249 . S
C428 O430 1.270 . S
O429 Zn421 1.943 . S
O429 C428 1.249 . S
O430 Zn420 2.067 . S
O430 C428 1.270 . S
C431 O424 1.262 . S
C431 O432 1.232 . S
O432 C431 1.232 . S
C433 O425 1.260 . S
C433 O426 1.257 . S
Zn434 O437 2.031 . S
Zn434 O439 2.049 . S
Zn434 O444 2.067 . S
Zn435 O436 1.962 . S
Zn435 O438 1.986 . S
Zn435 O440 1.996 . S
Zn435 O443 1.943 . S
O436 Zn435 1.962 . S
O436 C441 1.254 . S
O437 Zn434 2.031 . S
O437 C441 1.269 . S
O438 Zn435 1.986 . S
O438 C445 1.262 . S
O439 Zn434 2.049 . S
O439 C447 1.260 . S
O440 Zn435 1.996 . S
O440 C447 1.257 . S
C441 O436 1.254 . S
C441 O437 1.269 . S
C442 O443 1.249 . S
C442 O444 1.270 . S
O443 Zn435 1.943 . S
O443 C442 1.249 . S
O444 Zn434 2.067 . S
O444 C442 1.270 . S
C445 O438 1.262 . S
C445 O446 1.232 . S
O446 C445 1.232 . S
C447 O439 1.260 . S
C447 O440 1.257 . S
Zn448 O451 2.031 . S
Zn448 O453 2.049 . S
Zn448 O458 2.067 . S
Zn449 O450 1.962 . S
Zn449 O452 1.986 . S
Zn449 O454 1.996 . S
Zn449 O457 1.943 . S
O450 Zn449 1.962 . S
O450 C455 1.254 . S
O451 Zn448 2.031 . S
O451 C455 1.269 . S
O452 Zn449 1.986 . S
O452 C459 1.262 . S
O453 Zn448 2.049 . S
O453 C461 1.260 . S
O454 Zn449 1.996 . S
O454 C461 1.257 . S
C455 O450 1.254 . S
C455 O451 1.269 . S
C456 O457 1.249 . S
C456 O458 1.270 . S
O457 Zn449 1.943 . S
O457 C456 1.249 . S
O458 Zn448 2.067 . S
O458 C456 1.270 . S
C459 O452 1.262 . S
C459 O460 1.232 . S
O460 C459 1.232 . S
C461 O453 1.260 . S
C461 O454 1.257 . S
Zn462 O465 2.031 . S
Zn462 O467 2.049 . S
Zn462 O472 2.067 . S
Zn463 O464 1.962 . S
Zn463 O466 1.986 . S
Zn463 O468 1.996 . S
Zn463 O471 1.943 . S
O464 Zn463 1.962 . S
O464 C469 1.254 . S
O465 Zn462 2.031 . S
O465 C469 1.269 . S
O466 Zn463 1.986 . S
O466 C473 1.262 . S
O467 Zn462 2.049 . S
O467 C475 1.260 . S
O468 Zn463 1.996 . S
O468 C475 1.257 . S
C469 O464 1.254 . S
C469 O465 1.269 . S
C470 O471 1.249 . S
C470 O472 1.270 . S
O471 Zn463 1.943 . S
O471 C470 1.249 . S
O472 Zn462 2.067 . S
O472 C470 1.270 . S
C473 O466 1.262 . S
C473 O474 1.232 . S
O474 C473 1.232 . S
C475 O467 1.260 . S
C475 O468 1.257 . S
Zn476 O479 2.031 . S
Zn476 O481 2.049 . S
Zn476 O486 2.067 . S
Zn477 O478 1.962 . S
Zn477 O480 1.986 . S
Zn477 O482 1.996 . S
Zn477 O485 1.943 . S
O478 Zn477 1.962 . S
O478 C483 1.254 . S
O479 Zn476 2.031 . S
O479 C483 1.269 . S
O480 Zn477 1.986 . S
O480 C487 1.262 . S
O481 Zn476 2.049 . S
O481 C489 1.260 . S
O482 Zn477 1.996 . S
O482 C489 1.257 . S
C483 O478 1.254 . S
C483 O479 1.269 . S
C484 O485 1.249 . S
C484 O486 1.270 . S
O485 Zn477 1.943 . S
O485 C484 1.249 . S
O486 Zn476 2.067 . S
O486 C484 1.270 . S
C487 O480 1.262 . S
C487 O488 1.232 . S
O488 C487 1.232 . S
C489 O481 1.260 . S
C489 O482 1.257 . S
Zn490 O493 2.031 . S
Zn490 O495 2.049 . S
Zn490 O500 2.067 . S
Zn491 O492 1.962 . S
Zn491 O494 1.986 . S
Zn491 O496 1.996 . S
Zn491 O499 1.943 . S
O492 Zn491 1.962 . S
O492 C497 1.254 . S
O493 Zn490 2.031 . S
O493 C497 1.269 . S
O494 Zn491 1.986 . S
O494 C501 1.262 . S
O495 Zn490 2.049 . S
O495 C503 1.260 . S
O496 Zn491 1.996 . S
O496 C503 1.257 . S
C497 O492 1.254 . S
C497 O493 1.269 . S
C498 O499 1.249 . S
C498 O500 1.270 . S
O499 Zn491 1.943 . S
O499 C498 1.249 . S
O500 Zn490 2.067 . S
O500 C498 1.270 . S
C501 O494 1.262 . S
C501 O502 1.232 . S
O502 C501 1.232 . S
C503 O495 1.260 . S
C503 O496 1.257 . S
H504 C512 0.929 . S
H505 C514 0.930 . S
H506 C516 0.930 . S
H507 C519 0.929 . S
H508 C522 0.930 . S
H509 C524 0.960 . S
H510 C524 0.960 . S
H511 C524 0.960 . S
C512 H504 0.929 . S
C512 C513 1.377 . S
C512 C514 1.384 . S
C513 C512 1.377 . S
C513 C519 1.390 . S
C514 H505 0.930 . S
C514 C512 1.384 . S
C514 C515 1.372 . S
C515 C514 1.372 . S
C515 C516 1.400 . S
C515 C520 1.490 . S
C516 H506 0.930 . S
C516 C515 1.400 . S
C516 C519 1.386 . S
H517 C533 0.930 . S
H518 C534 0.931 . S
C519 H507 0.929 . S
C519 C513 1.390 . S
C519 C516 1.386 . S
C520 C515 1.490 . S
C520 C522 1.395 . S
C520 C523 1.403 . S
H521 C527 0.930 . S
C522 H508 0.930 . S
C522 C520 1.395 . S
C522 C525 1.403 . S
C523 C520 1.403 . S
C523 C524 1.524 . S
C523 C527 1.400 . S
C524 H509 0.960 . S
C524 H510 0.960 . S
C524 H511 0.960 . S
C524 C523 1.524 . S
C525 C522 1.403 . S
C525 C526 1.392 . S
C525 C529 1.495 . S
C526 C525 1.392 . S
C526 C527 1.385 . S
C526 C528 1.478 . S
C527 H521 0.930 . S
C527 C523 1.400 . S
C527 C526 1.385 . S
C528 C526 1.478 . S
C528 C530 1.381 . S
C528 C534 1.383 . S
C529 C525 1.495 . S
C529 H535 0.959 . S
C529 H536 0.961 . S
C529 H537 0.960 . S
C530 C528 1.381 . S
C530 C531 1.394 . S
C530 H538 0.930 . S
C531 C530 1.394 . S
C531 C532 1.383 . S
C531 H539 0.929 1_556 S
C532 C531 1.383 . S
C532 C533 1.377 . S
C533 H517 0.930 . S
C533 C532 1.377 . S
C533 C534 1.379 . S
C534 H518 0.931 . S
C534 C528 1.383 . S
C534 C533 1.379 . S
H535 C529 0.959 . S
H536 C529 0.961 . S
H537 C529 0.960 . S
H538 C530 0.930 . S
H539 C531 0.929 1_554 S
H540 C548 0.929 . S
H541 C550 0.930 . S
H542 C552 0.930 . S
H543 C555 0.929 . S
H544 C558 0.930 . S
H545 C560 0.960 . S
H546 C560 0.960 . S
H547 C560 0.960 . S
C548 H540 0.929 . S
C548 C549 1.377 . S
C548 C550 1.384 . S
C549 C548 1.377 . S
C549 C555 1.390 . S
C550 H541 0.930 . S
C550 C548 1.384 . S
C550 C551 1.372 . S
C551 C550 1.372 . S
C551 C552 1.400 . S
C551 C556 1.490 . S
C552 H542 0.930 . S
C552 C551 1.400 . S
C552 C555 1.386 . S
H553 C569 0.930 . S
H554 C570 0.931 . S
C555 H543 0.929 . S
C555 C549 1.390 . S
C555 C552 1.386 . S
C556 C551 1.490 . S
C556 C558 1.395 . S
C556 C559 1.403 . S
H557 C563 0.930 . S
C558 H544 0.930 . S
C558 C556 1.395 . S
C558 C561 1.403 . S
C559 C556 1.403 . S
C559 C560 1.524 . S
C559 C563 1.400 . S
C560 H545 0.960 . S
C560 H546 0.960 . S
C560 H547 0.960 . S
C560 C559 1.524 . S
C561 C558 1.403 . S
C561 C562 1.392 . S
C561 C565 1.495 . S
C562 C561 1.392 . S
C562 C563 1.385 . S
C562 C564 1.478 . S
C563 H557 0.930 . S
C563 C559 1.400 . S
C563 C562 1.385 . S
C564 C562 1.478 . S
C564 C566 1.381 . S
C564 C570 1.383 . S
C565 C561 1.495 . S
C565 H571 0.959 . S
C565 H572 0.961 . S
C565 H573 0.960 . S
C566 C564 1.381 . S
C566 C567 1.394 1_556 S
C566 H574 0.930 . S
C567 C566 1.394 1_554 S
C567 C568 1.383 1_554 S
C567 H575 0.929 . S
C568 C567 1.383 1_556 S
C568 C569 1.377 . S
C569 H553 0.930 . S
C569 C568 1.377 . S
C569 C570 1.379 . S
C570 H554 0.931 . S
C570 C564 1.383 . S
C570 C569 1.379 . S
H571 C565 0.959 . S
H572 C565 0.961 . S
H573 C565 0.960 . S
H574 C566 0.930 . S
H575 C567 0.929 . S
H576 C584 0.929 1_554 S
H577 C586 0.930 . S
H578 C588 0.930 . S
H579 C591 0.929 . S
H580 C594 0.930 . S
H581 C596 0.960 . S
H582 C596 0.960 . S
H583 C596 0.960 . S
C584 H576 0.929 1_556 S
C584 C585 1.377 . S
C584 C586 1.384 . S
C585 C584 1.377 . S
C585 C591 1.390 . S
C586 H577 0.930 . S
C586 C584 1.384 . S
C586 C587 1.372 . S
C587 C586 1.372 . S
C587 C588 1.400 . S
C587 C592 1.490 . S
C588 H578 0.930 . S
C588 C587 1.400 . S
C588 C591 1.386 . S
H589 C605 0.930 . S
H590 C606 0.931 . S
C591 H579 0.929 . S
C591 C585 1.390 . S
C591 C588 1.386 . S
C592 C587 1.490 . S
C592 C594 1.395 . S
C592 C595 1.403 . S
H593 C599 0.930 . S
C594 H580 0.930 . S
C594 C592 1.395 . S
C594 C597 1.403 . S
C595 C592 1.403 . S
C595 C596 1.524 . S
C595 C599 1.400 . S
C596 H581 0.960 . S
C596 H582 0.960 . S
C596 H583 0.960 . S
C596 C595 1.524 . S
C597 C594 1.403 . S
C597 C598 1.392 . S
C597 C601 1.495 . S
C598 C597 1.392 . S
C598 C599 1.385 . S
C598 C600 1.478 . S
C599 H593 0.930 . S
C599 C595 1.400 . S
C599 C598 1.385 . S
C600 C598 1.478 . S
C600 C602 1.381 . S
C600 C606 1.383 . S
C601 C597 1.495 . S
C601 H607 0.959 . S
C601 H608 0.961 . S
C601 H609 0.960 . S
C602 C600 1.381 . S
C602 C603 1.394 . S
C602 H610 0.930 . S
C603 C602 1.394 . S
C603 C604 1.383 . S
C603 H611 0.929 . S
C604 C603 1.383 . S
C604 C605 1.377 . S
C605 H589 0.930 . S
C605 C604 1.377 . S
C605 C606 1.379 . S
C606 H590 0.931 . S
C606 C600 1.383 . S
C606 C605 1.379 . S
H607 C601 0.959 . S
H608 C601 0.961 . S
H609 C601 0.960 . S
H610 C602 0.930 . S
H611 C603 0.929 . S
H612 C620 0.929 . S
H613 C622 0.930 . S
H614 C624 0.930 . S
H615 C627 0.929 . S
H616 C630 0.930 . S
H617 C632 0.960 . S
H618 C632 0.960 . S
H619 C632 0.960 . S
C620 H612 0.929 . S
C620 C621 1.377 . S
C620 C622 1.384 . S
C621 C620 1.377 . S
C621 C627 1.390 . S
C622 H613 0.930 . S
C622 C620 1.384 . S
C622 C623 1.372 . S
C623 C622 1.372 . S
C623 C624 1.400 . S
C623 C628 1.490 . S
C624 H614 0.930 . S
C624 C623 1.400 . S
C624 C627 1.386 . S
H625 C641 0.930 . S
H626 C642 0.931 . S
C627 H615 0.929 . S
C627 C621 1.390 . S
C627 C624 1.386 . S
C628 C623 1.490 . S
C628 C630 1.395 . S
C628 C631 1.403 . S
H629 C635 0.930 . S
C630 H616 0.930 . S
C630 C628 1.395 . S
C630 C633 1.403 . S
C631 C628 1.403 . S
C631 C632 1.524 . S
C631 C635 1.400 . S
C632 H617 0.960 . S
C632 H618 0.960 . S
C632 H619 0.960 . S
C632 C631 1.524 . S
C633 C630 1.403 . S
C633 C634 1.392 . S
C633 C637 1.495 . S
C634 C633 1.392 . S
C634 C635 1.385 . S
C634 C636 1.478 . S
C635 H629 0.930 . S
C635 C631 1.400 . S
C635 C634 1.385 . S
C636 C634 1.478 . S
C636 C638 1.381 . S
C636 C642 1.383 . S
C637 C633 1.495 . S
C637 H643 0.959 . S
C637 H644 0.961 . S
C637 H645 0.960 . S
C638 C636 1.381 . S
C638 C639 1.394 . S
C638 H646 0.930 . S
C639 C638 1.394 . S
C639 C640 1.383 . S
C639 H647 0.929 . S
C640 C639 1.383 . S
C640 C641 1.377 . S
C641 H625 0.930 . S
C641 C640 1.377 . S
C641 C642 1.379 . S
C642 H626 0.931 . S
C642 C636 1.383 . S
C642 C641 1.379 . S
H643 C637 0.959 . S
H644 C637 0.961 . S
H645 C637 0.960 . S
H646 C638 0.930 . S
H647 C639 0.929 . S
H648 C656 0.929 . S
H649 C658 0.930 . S
H650 C660 0.930 . S
H651 C663 0.929 . S
H652 C666 0.930 . S
H653 C668 0.960 . S
H654 C668 0.960 . S
H655 C668 0.960 . S
C656 H648 0.929 . S
C656 C657 1.377 . S
C656 C658 1.384 . S
C657 C656 1.377 . S
C657 C663 1.390 . S
C658 H649 0.930 . S
C658 C656 1.384 . S
C658 C659 1.372 . S
C659 C658 1.372 . S
C659 C660 1.400 . S
C659 C664 1.490 . S
C660 H650 0.930 . S
C660 C659 1.400 . S
C660 C663 1.386 . S
H661 C677 0.930 . S
H662 C678 0.931 . S
C663 H651 0.929 . S
C663 C657 1.390 . S
C663 C660 1.386 . S
C664 C659 1.490 . S
C664 C666 1.395 . S
C664 C667 1.403 . S
H665 C671 0.930 . S
C666 H652 0.930 . S
C666 C664 1.395 . S
C666 C669 1.403 . S
C667 C664 1.403 . S
C667 C668 1.524 . S
C667 C671 1.400 . S
C668 H653 0.960 . S
C668 H654 0.960 . S
C668 H655 0.960 . S
C668 C667 1.524 . S
C669 C666 1.403 . S
C669 C670 1.392 . S
C669 C673 1.495 . S
C670 C669 1.392 . S
C670 C671 1.385 . S
C670 C672 1.478 . S
C671 H665 0.930 . S
C671 C667 1.400 . S
C671 C670 1.385 . S
C672 C670 1.478 . S
C672 C674 1.381 . S
C672 C678 1.383 . S
C673 C669 1.495 . S
C673 H679 0.959 . S
C673 H680 0.961 . S
C673 H681 0.960 . S
C674 C672 1.381 . S
C674 C675 1.394 . S
C674 H682 0.930 . S
C675 C674 1.394 . S
C675 C676 1.383 . S
C675 H683 0.929 . S
C676 C675 1.383 . S
C676 C677 1.377 . S
C677 H661 0.930 . S
C677 C676 1.377 . S
C677 C678 1.379 . S
C678 H662 0.931 . S
C678 C672 1.383 . S
C678 C677 1.379 . S
H679 C673 0.959 . S
H680 C673 0.961 . S
H681 C673 0.960 . S
H682 C674 0.930 . S
H683 C675 0.929 . S
H684 C692 0.929 . S
H685 C694 0.930 . S
H686 C696 0.930 . S
H687 C699 0.929 . S
H688 C702 0.930 . S
H689 C704 0.960 . S
H690 C704 0.960 . S
H691 C704 0.960 . S
C692 H684 0.929 . S
C692 C693 1.377 . S
C692 C694 1.384 . S
C693 C692 1.377 . S
C693 C699 1.390 . S
C694 H685 0.930 . S
C694 C692 1.384 . S
C694 C695 1.372 . S
C695 C694 1.372 . S
C695 C696 1.400 . S
C695 C700 1.490 . S
C696 H686 0.930 . S
C696 C695 1.400 . S
C696 C699 1.386 . S
H697 C713 0.930 . S
H698 C714 0.931 . S
C699 H687 0.929 . S
C699 C693 1.390 . S
C699 C696 1.386 . S
C700 C695 1.490 . S
C700 C702 1.395 . S
C700 C703 1.403 . S
H701 C707 0.930 . S
C702 H688 0.930 . S
C702 C700 1.395 . S
C702 C705 1.403 . S
C703 C700 1.403 . S
C703 C704 1.524 . S
C703 C707 1.400 . S
C704 H689 0.960 . S
C704 H690 0.960 . S
C704 H691 0.960 . S
C704 C703 1.524 . S
C705 C702 1.403 . S
C705 C706 1.392 . S
C705 C709 1.495 . S
C706 C705 1.392 . S
C706 C707 1.385 . S
C706 C708 1.478 . S
C707 H701 0.930 . S
C707 C703 1.400 . S
C707 C706 1.385 . S
C708 C706 1.478 . S
C708 C710 1.381 . S
C708 C714 1.383 . S
C709 C705 1.495 . S
C709 H715 0.959 . S
C709 H716 0.961 . S
C709 H717 0.960 . S
C710 C708 1.381 . S
C710 C711 1.394 . S
C710 H718 0.930 . S
C711 C710 1.394 . S
C711 C712 1.383 . S
C711 H719 0.929 . S
C712 C711 1.383 . S
C712 C713 1.377 . S
C713 H697 0.930 . S
C713 C712 1.377 . S
C713 C714 1.379 . S
C714 H698 0.931 . S
C714 C708 1.383 . S
C714 C713 1.379 . S
H715 C709 0.959 . S
H716 C709 0.961 . S
H717 C709 0.960 . S
H718 C710 0.930 . S
H719 C711 0.929 . S
H720 C728 0.929 . S
H721 C730 0.930 . S
H722 C732 0.930 . S
H723 C735 0.929 . S
H724 C738 0.930 . S
H725 C740 0.960 . S
H726 C740 0.960 . S
H727 C740 0.960 . S
C728 H720 0.929 . S
C728 C729 1.377 . S
C728 C730 1.384 . S
C729 C728 1.377 . S
C729 C735 1.390 . S
C730 H721 0.930 . S
C730 C728 1.384 . S
C730 C731 1.372 . S
C731 C730 1.372 . S
C731 C732 1.400 . S
C731 C736 1.490 . S
C732 H722 0.930 . S
C732 C731 1.400 . S
C732 C735 1.386 . S
H733 C749 0.930 . S
H734 C750 0.931 . S
C735 H723 0.929 . S
C735 C729 1.390 . S
C735 C732 1.386 . S
C736 C731 1.490 . S
C736 C738 1.395 . S
C736 C739 1.403 . S
H737 C743 0.930 . S
C738 H724 0.930 . S
C738 C736 1.395 . S
C738 C741 1.403 . S
C739 C736 1.403 . S
C739 C740 1.524 . S
C739 C743 1.400 . S
C740 H725 0.960 . S
C740 H726 0.960 . S
C740 H727 0.960 . S
C740 C739 1.524 . S
C741 C738 1.403 . S
C741 C742 1.392 . S
C741 C745 1.495 . S
C742 C741 1.392 . S
C742 C743 1.385 . S
C742 C744 1.478 . S
C743 H737 0.930 . S
C743 C739 1.400 . S
C743 C742 1.385 . S
C744 C742 1.478 . S
C744 C746 1.381 . S
C744 C750 1.383 . S
C745 C741 1.495 . S
C745 H751 0.959 . S
C745 H752 0.961 . S
C745 H753 0.960 . S
C746 C744 1.381 . S
C746 C747 1.394 1_554 S
C746 H754 0.930 . S
C747 C746 1.394 1_556 S
C747 C748 1.383 1_556 S
C747 H755 0.929 . S
C748 C747 1.383 1_554 S
C748 C749 1.377 . S
C749 H733 0.930 . S
C749 C748 1.377 . S
C749 C750 1.379 . S
C750 H734 0.931 . S
C750 C744 1.383 . S
C750 C749 1.379 . S
H751 C745 0.959 . S
H752 C745 0.961 . S
H753 C745 0.960 . S
H754 C746 0.930 . S
H755 C747 0.929 . S
H756 C764 0.929 . S
H757 C766 0.930 . S
H758 C768 0.930 . S
H759 C771 0.929 . S
H760 C774 0.930 . S
H761 C776 0.960 . S
H762 C776 0.960 . S
H763 C776 0.960 . S
C764 H756 0.929 . S
C764 C765 1.377 . S
C764 C766 1.384 . S
C765 C764 1.377 . S
C765 C771 1.390 . S
C766 H757 0.930 . S
C766 C764 1.384 . S
C766 C767 1.372 . S
C767 C766 1.372 . S
C767 C768 1.400 . S
C767 C772 1.490 . S
C768 H758 0.930 . S
C768 C767 1.400 . S
C768 C771 1.386 . S
H769 C785 0.930 . S
H770 C786 0.931 . S
C771 H759 0.929 . S
C771 C765 1.390 . S
C771 C768 1.386 . S
C772 C767 1.490 . S
C772 C774 1.395 . S
C772 C775 1.403 . S
H773 C779 0.930 . S
C774 H760 0.930 . S
C774 C772 1.395 . S
C774 C777 1.403 . S
C775 C772 1.403 . S
C775 C776 1.524 . S
C775 C779 1.400 . S
C776 H761 0.960 . S
C776 H762 0.960 . S
C776 H763 0.960 . S
C776 C775 1.524 . S
C777 C774 1.403 . S
C777 C778 1.392 . S
C777 C781 1.495 . S
C778 C777 1.392 . S
C778 C779 1.385 . S
C778 C780 1.478 . S
C779 H773 0.930 . S
C779 C775 1.400 . S
C779 C778 1.385 . S
C780 C778 1.478 . S
C780 C782 1.381 . S
C780 C786 1.383 . S
C781 C777 1.495 . S
C781 H787 0.959 . S
C781 H788 0.961 . S
C781 H789 0.960 . S
C782 C780 1.381 . S
C782 C783 1.394 . S
C782 H790 0.930 . S
C783 C782 1.394 . S
C783 C784 1.383 . S
C783 H791 0.929 . S
C784 C783 1.383 . S
C784 C785 1.377 . S
C785 H769 0.930 . S
C785 C784 1.377 . S
C785 C786 1.379 . S
C786 H770 0.931 . S
C786 C780 1.383 . S
C786 C785 1.379 . S
H787 C781 0.959 . S
H788 C781 0.961 . S
H789 C781 0.960 . S
H790 C782 0.930 . S
H791 C783 0.929 . S
H792 C800 0.929 . S
H793 C802 0.930 . S
H794 C804 0.930 . S
H795 C807 0.929 . S
H796 C810 0.930 . S
H797 C812 0.960 . S
H798 C812 0.960 . S
H799 C812 0.960 . S
C800 H792 0.929 . S
C800 C801 1.377 . S
C800 C802 1.384 . S
C801 C800 1.377 . S
C801 C807 1.390 . S
C802 H793 0.930 . S
C802 C800 1.384 . S
C802 C803 1.372 . S
C803 C802 1.372 . S
C803 C804 1.400 . S
C803 C808 1.490 . S
C804 H794 0.930 . S
C804 C803 1.400 . S
C804 C807 1.386 . S
H805 C821 0.930 1_556 S
H806 C822 0.931 . S
C807 H795 0.929 . S
C807 C801 1.390 . S
C807 C804 1.386 . S
C808 C803 1.490 . S
C808 C810 1.395 . S
C808 C811 1.403 . S
H809 C815 0.930 . S
C810 H796 0.930 . S
C810 C808 1.395 . S
C810 C813 1.403 . S
C811 C808 1.403 . S
C811 C812 1.524 . S
C811 C815 1.400 . S
C812 H797 0.960 . S
C812 H798 0.960 . S
C812 H799 0.960 . S
C812 C811 1.524 . S
C813 C810 1.403 . S
C813 C814 1.392 . S
C813 C817 1.495 . S
C814 C813 1.392 . S
C814 C815 1.385 . S
C814 C816 1.478 . S
C815 H809 0.930 . S
C815 C811 1.400 . S
C815 C814 1.385 . S
C816 C814 1.478 . S
C816 C818 1.381 . S
C816 C822 1.383 . S
C817 C813 1.495 . S
C817 H823 0.959 . S
C817 H824 0.961 . S
C817 H825 0.960 . S
C818 C816 1.381 . S
C818 C819 1.394 . S
C818 H826 0.930 . S
C819 C818 1.394 . S
C819 C820 1.383 . S
C819 H827 0.929 . S
C820 C819 1.383 . S
C820 C821 1.377 . S
C821 H805 0.930 1_554 S
C821 C820 1.377 . S
C821 C822 1.379 . S
C822 H806 0.931 . S
C822 C816 1.383 . S
C822 C821 1.379 . S
H823 C817 0.959 . S
H824 C817 0.961 . S
H825 C817 0.960 . S
H826 C818 0.930 . S
H827 C819 0.929 . S
H828 C836 0.929 . S
H829 C838 0.930 . S
H830 C840 0.930 . S
H831 C843 0.929 . S
H832 C846 0.930 . S
H833 C848 0.960 . S
H834 C848 0.960 . S
H835 C848 0.960 . S
C836 H828 0.929 . S
C836 C837 1.377 . S
C836 C838 1.384 . S
C837 C836 1.377 . S
C837 C843 1.390 . S
C838 H829 0.930 . S
C838 C836 1.384 . S
C838 C839 1.372 . S
C839 C838 1.372 . S
C839 C840 1.400 . S
C839 C844 1.490 . S
C840 H830 0.930 . S
C840 C839 1.400 . S
C840 C843 1.386 . S
H841 C857 0.930 . S
H842 C858 0.931 . S
C843 H831 0.929 . S
C843 C837 1.390 . S
C843 C840 1.386 . S
C844 C839 1.490 . S
C844 C846 1.395 . S
C844 C847 1.403 . S
H845 C851 0.930 . S
C846 H832 0.930 . S
C846 C844 1.395 . S
C846 C849 1.403 . S
C847 C844 1.403 . S
C847 C848 1.524 . S
C847 C851 1.400 . S
C848 H833 0.960 . S
C848 H834 0.960 . S
C848 H835 0.960 . S
C848 C847 1.524 . S
C849 C846 1.403 . S
C849 C850 1.392 . S
C849 C853 1.495 . S
C850 C849 1.392 . S
C850 C851 1.385 . S
C850 C852 1.478 . S
C851 H845 0.930 . S
C851 C847 1.400 . S
C851 C850 1.385 . S
C852 C850 1.478 . S
C852 C854 1.381 . S
C852 C858 1.383 . S
C853 C849 1.495 . S
C853 H859 0.959 . S
C853 H860 0.961 . S
C853 H861 0.960 . S
C854 C852 1.381 . S
C854 C855 1.394 . S
C854 H862 0.930 . S
C855 C854 1.394 . S
C855 C856 1.383 . S
C855 H863 0.929 . S
C856 C855 1.383 . S
C856 C857 1.377 . S
C857 H841 0.930 . S
C857 C856 1.377 . S
C857 C858 1.379 . S
C858 H842 0.931 . S
C858 C852 1.383 . S
C858 C857 1.379 . S
H859 C853 0.959 . S
H860 C853 0.961 . S
H861 C853 0.960 . S
H862 C854 0.930 . S
H863 C855 0.929 . S
H864 C872 0.929 . S
H865 C874 0.930 . S
H866 C876 0.930 . S
H867 C879 0.929 . S
H868 C882 0.930 . S
H869 C884 0.960 . S
H870 C884 0.960 . S
H871 C884 0.960 . S
C872 H864 0.929 . S
C872 C873 1.377 . S
C872 C874 1.384 . S
C873 C872 1.377 . S
C873 C879 1.390 . S
C874 H865 0.930 . S
C874 C872 1.384 . S
C874 C875 1.372 . S
C875 C874 1.372 . S
C875 C876 1.400 . S
C875 C880 1.490 . S
C876 H866 0.930 . S
C876 C875 1.400 . S
C876 C879 1.386 . S
H877 C893 0.930 . S
H878 C894 0.931 . S
C879 H867 0.929 . S
C879 C873 1.390 . S
C879 C876 1.386 . S
C880 C875 1.490 . S
C880 C882 1.395 . S
C880 C883 1.403 . S
H881 C887 0.930 . S
C882 H868 0.930 . S
C882 C880 1.395 . S
C882 C885 1.403 . S
C883 C880 1.403 . S
C883 C884 1.524 . S
C883 C887 1.400 . S
C884 H869 0.960 . S
C884 H870 0.960 . S
C884 H871 0.960 . S
C884 C883 1.524 . S
C885 C882 1.403 . S
C885 C886 1.392 . S
C885 C889 1.495 . S
C886 C885 1.392 . S
C886 C887 1.385 . S
C886 C888 1.478 . S
C887 H881 0.930 . S
C887 C883 1.400 . S
C887 C886 1.385 . S
C888 C886 1.478 . S
C888 C890 1.381 . S
C888 C894 1.383 . S
C889 C885 1.495 . S
C889 H895 0.959 . S
C889 H896 0.961 . S
C889 H897 0.960 . S
C890 C888 1.381 . S
C890 C891 1.394 . S
C890 H898 0.930 . S
C891 C890 1.394 . S
C891 C892 1.383 . S
C891 H899 0.929 . S
C892 C891 1.383 . S
C892 C893 1.377 . S
C893 H877 0.930 . S
C893 C892 1.377 . S
C893 C894 1.379 . S
C894 H878 0.931 . S
C894 C888 1.383 . S
C894 C893 1.379 . S
H895 C889 0.959 . S
H896 C889 0.961 . S
H897 C889 0.960 . S
H898 C890 0.930 . S
H899 C891 0.929 . S
H900 C908 0.929 . S
H901 C910 0.930 . S
H902 C912 0.930 . S
H903 C915 0.929 . S
H904 C918 0.930 . S
H905 C920 0.960 . S
H906 C920 0.960 . S
H907 C920 0.960 . S
C908 H900 0.929 . S
C908 C909 1.377 . S
C908 C910 1.384 . S
C909 C908 1.377 . S
C909 C915 1.390 . S
C910 H901 0.930 . S
C910 C908 1.384 . S
C910 C911 1.372 . S
C911 C910 1.372 . S
C911 C912 1.400 . S
C911 C916 1.490 . S
C912 H902 0.930 . S
C912 C911 1.400 . S
C912 C915 1.386 . S
H913 C929 0.930 . S
H914 C930 0.931 . S
C915 H903 0.929 . S
C915 C909 1.390 . S
C915 C912 1.386 . S
C916 C911 1.490 . S
C916 C918 1.395 . S
C916 C919 1.403 . S
H917 C923 0.930 . S
C918 H904 0.930 . S
C918 C916 1.395 . S
C918 C921 1.403 . S
C919 C916 1.403 . S
C919 C920 1.524 . S
C919 C923 1.400 . S
C920 H905 0.960 . S
C920 H906 0.960 . S
C920 H907 0.960 . S
C920 C919 1.524 . S
C921 C918 1.403 . S
C921 C922 1.392 . S
C921 C925 1.495 . S
C922 C921 1.392 . S
C922 C923 1.385 . S
C922 C924 1.478 . S
C923 H917 0.930 . S
C923 C919 1.400 . S
C923 C922 1.385 . S
C924 C922 1.478 . S
C924 C926 1.381 . S
C924 C930 1.383 . S
C925 C921 1.495 . S
C925 H931 0.959 . S
C925 H932 0.961 . S
C925 H933 0.960 . S
C926 C924 1.381 . S
C926 C927 1.394 . S
C926 H934 0.930 . S
C927 C926 1.394 . S
C927 C928 1.383 . S
C927 H935 0.929 . S
C928 C927 1.383 . S
C928 C929 1.377 . S
C929 H913 0.930 . S
C929 C928 1.377 . S
C929 C930 1.379 . S
C930 H914 0.931 . S
C930 C924 1.383 . S
C930 C929 1.379 . S
H931 C925 0.959 . S
H932 C925 0.961 . S
H933 C925 0.960 . S
H934 C926 0.930 . S
H935 C927 0.929 . S
H936 C944 0.929 . S
H937 C946 0.930 . S
H938 C948 0.930 . S
H939 C951 0.929 . S
H940 C954 0.931 . S
H941 C956 0.960 . S
H942 C956 0.960 . S
H943 C956 0.960 . S
C944 H936 0.929 . S
C944 C945 1.377 . S
C944 C946 1.384 . S
C945 C944 1.377 . S
C945 C951 1.390 . S
C946 H937 0.930 . S
C946 C944 1.384 . S
C946 C947 1.372 . S
C947 C946 1.372 . S
C947 C948 1.400 . S
C947 C952 1.490 . S
C948 H938 0.930 . S
C948 C947 1.400 . S
C948 C951 1.386 . S
H949 C965 0.930 . S
H950 C966 0.931 . S
C951 H939 0.929 . S
C951 C945 1.390 . S
C951 C948 1.386 . S
C952 C947 1.490 . S
C952 C954 1.333 1_455 S
C952 C955 1.403 . S
H953 C959 0.930 . S
C954 H940 0.931 . S
C954 C952 1.333 1_655 S
C954 C957 1.464 . S
C955 C952 1.403 . S
C955 C956 1.524 . S
C955 C959 1.400 1_455 S
C956 H941 0.960 . S
C956 H942 0.960 . S
C956 H943 0.960 . S
C956 C955 1.524 . S
C957 C954 1.464 . S
C957 C958 1.392 . S
C957 C961 1.495 . S
C958 C957 1.392 . S
C958 C959 1.385 . S
C958 C960 1.478 . S
C959 H953 0.930 . S
C959 C955 1.400 1_655 S
C959 C958 1.385 . S
C960 C958 1.478 . S
C960 C962 1.381 . S
C960 C966 1.383 . S
C961 C957 1.495 . S
C961 H967 0.959 . S
C961 H968 0.961 . S
C961 H969 0.960 . S
C962 C960 1.381 . S
C962 C963 1.394 . S
C962 H970 0.930 . S
C963 C962 1.394 . S
C963 C964 1.383 . S
C963 H971 0.929 . S
C964 C963 1.383 . S
C964 C965 1.377 . S
C965 H949 0.930 . S
C965 C964 1.377 . S
C965 C966 1.379 . S
C966 H950 0.931 . S
C966 C960 1.383 . S
C966 C965 1.379 . S
H967 C961 0.959 . S
H968 C961 0.961 . S
H969 C961 0.960 . S
H970 C962 0.930 . S
H971 C963 0.929 . S
H972 C980 0.929 . S
H973 C982 0.930 . S
H974 C984 0.930 . S
H975 C987 0.929 . S
H976 C990 0.930 . S
H977 C992 0.960 . S
H978 C992 0.960 . S
H979 C992 0.960 . S
C980 H972 0.929 . S
C980 C981 1.377 . S
C980 C982 1.384 . S
C981 C980 1.377 . S
C981 C987 1.390 . S
C982 H973 0.930 . S
C982 C980 1.384 . S
C982 C983 1.372 . S
C983 C982 1.372 . S
C983 C984 1.400 . S
C983 C988 1.490 . S
C984 H974 0.930 . S
C984 C983 1.400 . S
C984 C987 1.386 . S
H985 C1001 0.930 . S
H986 C1002 0.931 . S
C987 H975 0.929 . S
C987 C981 1.390 . S
C987 C984 1.386 . S
C988 C983 1.490 . S
C988 C990 1.395 . S
C988 C991 1.403 . S
H989 C995 0.930 . S
C990 H976 0.930 . S
C990 C988 1.395 . S
C990 C993 1.403 . S
C991 C988 1.403 . S
C991 C992 1.524 . S
C991 C995 1.400 . S
C992 H977 0.960 . S
C992 H978 0.960 . S
C992 H979 0.960 . S
C992 C991 1.524 . S
C993 C990 1.403 . S
C993 C994 1.392 . S
C993 C997 1.495 . S
C994 C993 1.392 . S
C994 C995 1.385 . S
C994 C996 1.478 . S
C995 H989 0.930 . S
C995 C991 1.400 . S
C995 C994 1.385 . S
C996 C994 1.478 . S
C996 C998 1.381 . S
C996 C1002 1.383 . S
C997 C993 1.495 . S
C997 H1003 0.959 . S
C997 H1004 0.961 . S
C997 H1005 0.960 . S
C998 C996 1.381 . S
C998 C999 1.394 . S
C998 H1006 0.930 . S
C999 C998 1.394 . S
C999 C1000 1.383 . S
C999 H1007 0.929 . S
C1000 C999 1.383 . S
C1000 C1001 1.377 . S
C1001 H985 0.930 . S
C1001 C1000 1.377 . S
C1001 C1002 1.379 . S
C1002 H986 0.931 . S
C1002 C996 1.383 . S
C1002 C1001 1.379 . S
H1003 C997 0.959 . S
H1004 C997 0.961 . S
H1005 C997 0.960 . S
H1006 C998 0.930 . S
H1007 C999 0.929 . S
H1008 C1016 0.929 . S
H1009 C1018 0.930 . S
H1010 C1020 0.930 . S
H1011 C1023 0.929 . S
H1012 C1026 0.930 . S
H1013 C1028 0.960 . S
H1014 C1028 0.960 . S
H1015 C1028 0.960 . S
C1016 H1008 0.929 . S
C1016 C1017 1.377 . S
C1016 C1018 1.384 . S
C1017 C1016 1.377 . S
C1017 C1023 1.390 . S
C1018 H1009 0.930 . S
C1018 C1016 1.384 . S
C1018 C1019 1.372 . S
C1019 C1018 1.372 . S
C1019 C1020 1.400 . S
C1019 C1024 1.490 . S
C1020 H1010 0.930 . S
C1020 C1019 1.400 . S
C1020 C1023 1.386 . S
H1021 C1037 0.930 . S
H1022 C1038 0.931 . S
C1023 H1011 0.929 . S
C1023 C1017 1.390 . S
C1023 C1020 1.386 . S
C1024 C1019 1.490 . S
C1024 C1026 1.395 . S
C1024 C1027 1.403 . S
H1025 C1031 0.930 . S
C1026 H1012 0.930 . S
C1026 C1024 1.395 . S
C1026 C1029 1.403 1_565 S
C1027 C1024 1.403 . S
C1027 C1028 1.524 . S
C1027 C1031 1.400 1_565 S
C1028 H1013 0.960 . S
C1028 H1014 0.960 . S
C1028 H1015 0.960 . S
C1028 C1027 1.524 . S
C1029 C1026 1.403 1_545 S
C1029 C1030 1.392 . S
C1029 C1033 1.495 . S
C1030 C1029 1.392 . S
C1030 C1031 1.385 . S
C1030 C1032 1.478 . S
C1031 H1025 0.930 . S
C1031 C1027 1.400 1_545 S
C1031 C1030 1.385 . S
C1032 C1030 1.478 . S
C1032 C1034 1.381 . S
C1032 C1038 1.383 . S
C1033 C1029 1.495 . S
C1033 H1039 0.959 . S
C1033 H1040 0.961 . S
C1033 H1041 0.960 . S
C1034 C1032 1.381 . S
C1034 C1035 1.394 . S
C1034 H1042 0.930 . S
C1035 C1034 1.394 . S
C1035 C1036 1.383 . S
C1035 H1043 0.929 . S
C1036 C1035 1.383 . S
C1036 C1037 1.377 . S
C1037 H1021 0.930 . S
C1037 C1036 1.377 . S
C1037 C1038 1.379 . S
C1038 H1022 0.931 . S
C1038 C1032 1.383 . S
C1038 C1037 1.379 . S
H1039 C1033 0.959 . S
H1040 C1033 0.961 . S
H1041 C1033 0.960 . S
H1042 C1034 0.930 . S
H1043 C1035 0.929 . S
H1044 C1052 0.929 . S
H1045 C1054 0.930 . S
H1046 C1056 0.930 . S
H1047 C1059 0.929 . S
H1048 C1062 0.930 . S
H1049 C1064 0.960 . S
H1050 C1064 0.960 . S
H1051 C1064 0.960 . S
C1052 H1044 0.929 . S
C1052 C1053 1.377 . S
C1052 C1054 1.384 . S
C1053 C1052 1.377 . S
C1053 C1059 1.390 . S
C1054 H1045 0.930 . S
C1054 C1052 1.384 . S
C1054 C1055 1.372 . S
C1055 C1054 1.372 . S
C1055 C1056 1.400 . S
C1055 C1060 1.490 . S
C1056 H1046 0.930 . S
C1056 C1055 1.400 . S
C1056 C1059 1.386 . S
H1057 C1073 0.930 . S
H1058 C1074 0.931 . S
C1059 H1047 0.929 . S
C1059 C1053 1.390 . S
C1059 C1056 1.386 . S
C1060 C1055 1.490 . S
C1060 C1062 1.395 . S
C1060 C1063 1.403 . S
H1061 C1067 0.930 . S
C1062 H1048 0.930 . S
C1062 C1060 1.395 . S
C1062 C1065 1.403 1_565 S
C1063 C1060 1.403 . S
C1063 C1064 1.524 . S
C1063 C1067 1.400 1_565 S
C1064 H1049 0.960 . S
C1064 H1050 0.960 . S
C1064 H1051 0.960 . S
C1064 C1063 1.524 . S
C1065 C1062 1.403 1_545 S
C1065 C1066 1.392 . S
C1065 C1069 1.495 . S
C1066 C1065 1.392 . S
C1066 C1067 1.385 . S
C1066 C1068 1.478 . S
C1067 H1061 0.930 . S
C1067 C1063 1.400 1_545 S
C1067 C1066 1.385 . S
C1068 C1066 1.478 . S
C1068 C1070 1.381 . S
C1068 C1074 1.383 . S
C1069 C1065 1.495 . S
C1069 H1075 0.959 . S
C1069 H1076 0.961 . S
C1069 H1077 0.960 . S
C1070 C1068 1.381 . S
C1070 C1071 1.394 . S
C1070 H1078 0.930 . S
C1071 C1070 1.394 . S
C1071 C1072 1.383 . S
C1071 H1079 0.929 . S
C1072 C1071 1.383 . S
C1072 C1073 1.377 . S
C1073 H1057 0.930 . S
C1073 C1072 1.377 . S
C1073 C1074 1.379 . S
C1074 H1058 0.931 . S
C1074 C1068 1.383 . S
C1074 C1073 1.379 . S
H1075 C1069 0.959 . S
H1076 C1069 0.961 . S
H1077 C1069 0.960 . S
H1078 C1070 0.930 . S
H1079 C1071 0.929 . S
H1080 C1088 0.929 . S
H1081 C1090 0.930 . S
H1082 C1092 0.930 . S
H1083 C1095 0.929 . S
H1084 C1098 0.930 . S
H1085 C1100 0.960 . S
H1086 C1100 0.979 . S
H1087 C1100 0.960 1_455 S
C1088 H1080 0.929 . S
C1088 C1089 1.377 . S
C1088 C1090 1.384 . S
C1089 C1088 1.377 . S
C1089 C1095 1.390 . S
C1090 H1081 0.930 . S
C1090 C1088 1.384 . S
C1090 C1091 1.372 . S
C1091 C1090 1.372 . S
C1091 C1092 1.400 . S
C1091 C1096 1.490 . S
C1092 H1082 0.930 . S
C1092 C1091 1.400 . S
C1092 C1095 1.386 . S
H1093 C1109 0.930 . S
H1094 C1110 0.931 . S
C1095 H1083 0.929 . S
C1095 C1089 1.390 . S
C1095 C1092 1.386 . S
C1096 C1091 1.490 . S
C1096 C1098 1.395 . S
C1096 C1099 1.360 1_455 S
H1097 C1103 0.930 . S
C1098 H1084 0.930 . S
C1098 C1096 1.395 . S
C1098 C1101 1.403 . S
C1099 C1096 1.360 1_655 S
C1099 C1100 1.537 . S
C1099 C1103 1.431 . S
C1100 H1085 0.960 . S
C1100 H1086 0.979 . S
C1100 H1087 0.960 1_655 S
C1100 C1099 1.537 . S
C1101 C1098 1.403 . S
C1101 C1102 1.392 1_455 S
C1101 C1105 1.495 . S
C1102 C1101 1.392 1_655 S
C1102 C1103 1.385 . S
C1102 C1104 1.478 . S
C1103 H1097 0.930 . S
C1103 C1099 1.431 . S
C1103 C1102 1.385 . S
C1104 C1102 1.478 . S
C1104 C1106 1.381 . S
C1104 C1110 1.383 . S
C1105 C1101 1.495 . S
C1105 H1111 0.959 . S
C1105 H1112 0.961 . S
C1105 H1113 0.960 1_455 S
C1106 C1104 1.381 . S
C1106 C1107 1.394 . S
C1106 H1114 0.930 . S
C1107 C1106 1.394 . S
C1107 C1108 1.383 . S
C1107 H1115 0.929 . S
C1108 C1107 1.383 . S
C1108 C1109 1.377 . S
C1109 H1093 0.930 . S
C1109 C1108 1.377 . S
C1109 C1110 1.379 . S
C1110 H1094 0.931 . S
C1110 C1104 1.383 . S
C1110 C1109 1.379 . S
H1111 C1105 0.959 . S
H1112 C1105 0.961 . S
H1113 C1105 0.960 1_655 S
H1114 C1106 0.930 . S
H1115 C1107 0.929 . S
H1116 C1124 0.929 . S
H1117 C1126 0.930 . S
H1118 C1128 0.930 . S
H1119 C1131 0.929 . S
H1120 C1134 0.930 . S
H1121 C1136 0.960 . S
H1122 C1136 0.960 . S
H1123 C1136 0.960 . S
C1124 H1116 0.929 . S
C1124 C1125 1.377 . S
C1124 C1126 1.384 . S
C1125 C1124 1.377 . S
C1125 C1131 1.390 . S
C1126 H1117 0.930 . S
C1126 C1124 1.384 . S
C1126 C1127 1.372 . S
C1127 C1126 1.372 . S
C1127 C1128 1.400 . S
C1127 C1132 1.490 . S
C1128 H1118 0.930 . S
C1128 C1127 1.400 . S
C1128 C1131 1.386 . S
H1129 C1145 0.930 . S
H1130 C1146 0.931 . S
C1131 H1119 0.929 . S
C1131 C1125 1.390 . S
C1131 C1128 1.386 . S
C1132 C1127 1.490 . S
C1132 C1134 1.395 . S
C1132 C1135 1.403 . S
H1133 C1139 0.930 . S
C1134 H1120 0.930 . S
C1134 C1132 1.395 . S
C1134 C1137 1.403 . S
C1135 C1132 1.403 . S
C1135 C1136 1.524 . S
C1135 C1139 1.400 . S
C1136 H1121 0.960 . S
C1136 H1122 0.960 . S
C1136 H1123 0.960 . S
C1136 C1135 1.524 . S
C1137 C1134 1.403 . S
C1137 C1138 1.392 . S
C1137 C1141 1.495 . S
C1138 C1137 1.392 . S
C1138 C1139 1.385 . S
C1138 C1140 1.478 . S
C1139 H1133 0.930 . S
C1139 C1135 1.400 . S
C1139 C1138 1.385 . S
C1140 C1138 1.478 . S
C1140 C1142 1.381 . S
C1140 C1146 1.383 . S
C1141 C1137 1.495 . S
C1141 H1147 0.959 . S
C1141 H1148 0.961 . S
C1141 H1149 0.960 . S
C1142 C1140 1.381 . S
C1142 C1143 1.394 . S
C1142 H1150 0.930 . S
C1143 C1142 1.394 . S
C1143 C1144 1.383 . S
C1143 H1151 0.929 . S
C1144 C1143 1.383 . S
C1144 C1145 1.377 . S
C1145 H1129 0.930 . S
C1145 C1144 1.377 . S
C1145 C1146 1.379 . S
C1146 H1130 0.931 . S
C1146 C1140 1.383 . S
C1146 C1145 1.379 . S
H1147 C1141 0.959 . S
H1148 C1141 0.961 . S
H1149 C1141 0.960 . S
H1150 C1142 0.930 . S
H1151 C1143 0.929 . S
H1152 C1160 0.929 . S
H1153 C1162 0.930 . S
H1154 C1164 0.930 . S
H1155 C1167 0.929 . S
H1156 C1170 0.930 . S
H1157 C1172 0.960 . S
H1158 C1172 0.960 . S
H1159 C1172 0.960 . S
C1160 H1152 0.929 . S
C1160 C1161 1.377 . S
C1160 C1162 1.384 . S
C1161 C1160 1.377 . S
C1161 C1167 1.390 . S
C1162 H1153 0.930 . S
C1162 C1160 1.384 . S
C1162 C1163 1.372 . S
C1163 C1162 1.372 . S
C1163 C1164 1.400 . S
C1163 C1168 1.490 1_556 S
C1164 H1154 0.930 . S
C1164 C1163 1.400 . S
C1164 C1167 1.386 . S
H1165 C1181 0.930 . S
H1166 C1182 0.931 . S
C1167 H1155 0.929 . S
C1167 C1161 1.390 . S
C1167 C1164 1.386 . S
C1168 C1163 1.490 1_554 S
C1168 C1170 1.395 . S
C1168 C1171 1.403 1_554 S
H1169 C1175 0.930 . S
C1170 H1156 0.930 . S
C1170 C1168 1.395 . S
C1170 C1173 1.403 . S
C1171 C1168 1.403 1_556 S
C1171 C1172 1.524 . S
C1171 C1175 1.400 . S
C1172 H1157 0.960 . S
C1172 H1158 0.960 . S
C1172 H1159 0.960 . S
C1172 C1171 1.524 . S
C1173 C1170 1.403 . S
C1173 C1174 1.392 . S
C1173 C1177 1.495 . S
C1174 C1173 1.392 . S
C1174 C1175 1.385 1_554 S
C1174 C1176 1.478 . S
C1175 H1169 0.930 . S
C1175 C1171 1.400 . S
C1175 C1174 1.385 1_556 S
C1176 C1174 1.478 . S
C1176 C1178 1.381 . S
C1176 C1182 1.383 . S
C1177 C1173 1.495 . S
C1177 H1183 0.959 . S
C1177 H1184 0.961 . S
C1177 H1185 0.960 . S
C1178 C1176 1.381 . S
C1178 C1179 1.394 . S
C1178 H1186 0.930 . S
C1179 C1178 1.394 . S
C1179 C1180 1.383 . S
C1179 H1187 0.929 . S
C1180 C1179 1.383 . S
C1180 C1181 1.377 . S
C1181 H1165 0.930 . S
C1181 C1180 1.377 . S
C1181 C1182 1.379 . S
C1182 H1166 0.931 . S
C1182 C1176 1.383 . S
C1182 C1181 1.379 . S
H1183 C1177 0.959 . S
H1184 C1177 0.961 . S
H1185 C1177 0.960 . S
H1186 C1178 0.930 . S
H1187 C1179 0.929 . S
H1188 C1196 0.929 . S
H1189 C1198 0.930 . S
H1190 C1200 0.930 . S
H1191 C1203 0.929 . S
H1192 C1206 0.930 . S
H1193 C1208 0.960 . S
H1194 C1208 0.960 . S
H1195 C1208 0.960 . S
C1196 H1188 0.929 . S
C1196 C1197 1.377 . S
C1196 C1198 1.384 . S
C1197 C1196 1.377 . S
C1197 C1203 1.390 1_556 S
C1198 H1189 0.930 . S
C1198 C1196 1.384 . S
C1198 C1199 1.372 . S
C1199 C1198 1.372 . S
C1199 C1200 1.400 1_556 S
C1199 C1204 1.490 . S
C1200 H1190 0.930 . S
C1200 C1199 1.400 1_554 S
C1200 C1203 1.386 . S
H1201 C1217 0.930 . S
H1202 C1218 0.931 . S
C1203 H1191 0.929 . S
C1203 C1197 1.390 1_554 S
C1203 C1200 1.386 . S
C1204 C1199 1.490 . S
C1204 C1206 1.395 . S
C1204 C1207 1.403 1_556 S
H1205 C1211 0.930 . S
C1206 H1192 0.930 . S
C1206 C1204 1.395 . S
C1206 C1209 1.403 . S
C1207 C1204 1.403 1_554 S
C1207 C1208 1.524 . S
C1207 C1211 1.400 . S
C1208 H1193 0.960 . S
C1208 H1194 0.960 . S
C1208 H1195 0.960 . S
C1208 C1207 1.524 . S
C1209 C1206 1.403 . S
C1209 C1210 1.392 1_556 S
C1209 C1213 1.495 . S
C1210 C1209 1.392 1_554 S
C1210 C1211 1.385 . S
C1210 C1212 1.478 . S
C1211 H1205 0.930 . S
C1211 C1207 1.400 . S
C1211 C1210 1.385 . S
C1212 C1210 1.478 . S
C1212 C1214 1.381 1_554 S
C1212 C1218 1.383 . S
C1213 C1209 1.495 . S
C1213 H1219 0.959 . S
C1213 H1220 0.961 . S
C1213 H1221 0.960 . S
C1214 C1212 1.381 1_556 S
C1214 C1215 1.394 . S
C1214 H1222 0.930 . S
C1215 C1214 1.394 . S
C1215 C1216 1.383 1_556 S
C1215 H1223 0.929 . S
C1216 C1215 1.383 1_554 S
C1216 C1217 1.377 . S
C1217 H1201 0.930 . S
C1217 C1216 1.377 . S
C1217 C1218 1.379 . S
C1218 H1202 0.931 . S
C1218 C1212 1.383 . S
C1218 C1217 1.379 . S
H1219 C1213 0.959 . S
H1220 C1213 0.961 . S
H1221 C1213 0.960 . S
H1222 C1214 0.930 . S
H1223 C1215 0.929 . S
H1224 C1232 0.929 . S
H1225 C1234 0.930 . S
H1226 C1236 0.930 . S
H1227 C1239 0.929 . S
H1228 C1242 0.930 . S
H1229 C1244 0.960 . S
H1230 C1244 0.960 . S
H1231 C1244 0.960 . S
C1232 H1224 0.929 . S
C1232 C1233 1.377 . S
C1232 C1234 1.384 . S
C1233 C1232 1.377 . S
C1233 C1239 1.390 1_556 S
C1234 H1225 0.930 . S
C1234 C1232 1.384 . S
C1234 C1235 1.372 . S
C1235 C1234 1.372 . S
C1235 C1236 1.400 1_556 S
C1235 C1240 1.490 . S
C1236 H1226 0.930 . S
C1236 C1235 1.400 1_554 S
C1236 C1239 1.386 . S
H1237 C1253 0.930 . S
H1238 C1254 0.931 . S
C1239 H1227 0.929 . S
C1239 C1233 1.390 1_554 S
C1239 C1236 1.386 . S
C1240 C1235 1.490 . S
C1240 C1242 1.395 . S
C1240 C1243 1.403 1_556 S
H1241 C1247 0.930 . S
C1242 H1228 0.930 . S
C1242 C1240 1.395 . S
C1242 C1245 1.403 . S
C1243 C1240 1.403 1_554 S
C1243 C1244 1.524 . S
C1243 C1247 1.400 . S
C1244 H1229 0.960 . S
C1244 H1230 0.960 . S
C1244 H1231 0.960 . S
C1244 C1243 1.524 . S
C1245 C1242 1.403 . S
C1245 C1246 1.392 1_556 S
C1245 C1249 1.495 . S
C1246 C1245 1.392 1_554 S
C1246 C1247 1.385 . S
C1246 C1248 1.478 . S
C1247 H1241 0.930 . S
C1247 C1243 1.400 . S
C1247 C1246 1.385 . S
C1248 C1246 1.478 . S
C1248 C1250 1.381 1_554 S
C1248 C1254 1.383 . S
C1249 C1245 1.495 . S
C1249 H1255 0.959 . S
C1249 H1256 0.961 . S
C1249 H1257 0.960 . S
C1250 C1248 1.381 1_556 S
C1250 C1251 1.394 1_556 S
C1250 H1258 0.930 . S
C1251 C1250 1.394 1_554 S
C1251 C1252 1.383 . S
C1251 H1259 0.929 1_554 S
C1252 C1251 1.383 . S
C1252 C1253 1.377 . S
C1253 H1237 0.930 . S
C1253 C1252 1.377 . S
C1253 C1254 1.379 . S
C1254 H1238 0.931 . S
C1254 C1248 1.383 . S
C1254 C1253 1.379 . S
H1255 C1249 0.959 . S
H1256 C1249 0.961 . S
H1257 C1249 0.960 . S
H1258 C1250 0.930 . S
H1259 C1251 0.929 1_556 S
H1260 C1268 0.929 . S
H1261 C1270 0.930 . S
H1262 C1272 0.930 . S
H1263 C1275 0.929 . S
H1264 C1278 0.930 . S
H1265 C1280 0.960 . S
H1266 C1280 0.960 . S
H1267 C1280 0.960 . S
C1268 H1260 0.929 . S
C1268 C1269 1.377 . S
C1268 C1270 1.384 . S
C1269 C1268 1.377 . S
C1269 C1275 1.390 . S
C1270 H1261 0.930 . S
C1270 C1268 1.384 . S
C1270 C1271 1.372 . S
C1271 C1270 1.372 . S
C1271 C1272 1.400 . S
C1271 C1276 1.490 . S
C1272 H1262 0.930 . S
C1272 C1271 1.400 . S
C1272 C1275 1.386 . S
H1273 C1289 0.930 . S
H1274 C1290 0.931 . S
C1275 H1263 0.929 . S
C1275 C1269 1.390 . S
C1275 C1272 1.386 . S
C1276 C1271 1.490 . S
C1276 C1278 1.395 . S
C1276 C1279 1.403 . S
H1277 C1283 0.930 . S
C1278 H1264 0.930 . S
C1278 C1276 1.395 . S
C1278 C1281 1.403 . S
C1279 C1276 1.403 . S
C1279 C1280 1.524 . S
C1279 C1283 1.400 . S
C1280 H1265 0.960 . S
C1280 H1266 0.960 . S
C1280 H1267 0.960 . S
C1280 C1279 1.524 . S
C1281 C1278 1.403 . S
C1281 C1282 1.392 . S
C1281 C1285 1.495 . S
C1282 C1281 1.392 . S
C1282 C1283 1.385 . S
C1282 C1284 1.478 . S
C1283 H1277 0.930 . S
C1283 C1279 1.400 . S
C1283 C1282 1.385 . S
C1284 C1282 1.478 . S
C1284 C1286 1.381 . S
C1284 C1290 1.383 . S
C1285 C1281 1.495 . S
C1285 H1291 0.959 . S
C1285 H1292 0.961 . S
C1285 H1293 0.960 . S
C1286 C1284 1.381 . S
C1286 C1287 1.394 . S
C1286 H1294 0.930 . S
C1287 C1286 1.394 . S
C1287 C1288 1.383 . S
C1287 H1295 0.929 . S
C1288 C1287 1.383 . S
C1288 C1289 1.377 . S
C1289 H1273 0.930 . S
C1289 C1288 1.377 . S
C1289 C1290 1.379 . S
C1290 H1274 0.931 . S
C1290 C1284 1.383 . S
C1290 C1289 1.379 . S
H1291 C1285 0.959 . S
H1292 C1285 0.961 . S
H1293 C1285 0.960 . S
H1294 C1286 0.930 . S
H1295 C1287 0.929 . S
H1296 C1304 0.929 . S
H1297 C1306 0.930 . S
H1298 C1308 0.930 . S
H1299 C1311 0.929 . S
H1300 C1314 0.930 . S
H1301 C1316 0.960 . S
H1302 C1316 0.960 . S
H1303 C1316 0.960 . S
C1304 H1296 0.929 . S
C1304 C1305 1.377 . S
C1304 C1306 1.384 . S
C1305 C1304 1.377 . S
C1305 C1311 1.390 . S
C1306 H1297 0.930 . S
C1306 C1304 1.384 . S
C1306 C1307 1.372 . S
C1307 C1306 1.372 . S
C1307 C1308 1.400 . S
C1307 C1312 1.490 . S
C1308 H1298 0.930 . S
C1308 C1307 1.400 . S
C1308 C1311 1.386 . S
H1309 C1325 0.930 . S
H1310 C1326 0.931 . S
C1311 H1299 0.929 . S
C1311 C1305 1.390 . S
C1311 C1308 1.386 . S
C1312 C1307 1.490 . S
C1312 C1314 1.395 . S
C1312 C1315 1.403 . S
H1313 C1319 0.930 . S
C1314 H1300 0.930 . S
C1314 C1312 1.395 . S
C1314 C1317 1.403 . S
C1315 C1312 1.403 . S
C1315 C1316 1.524 . S
C1315 C1319 1.400 . S
C1316 H1301 0.960 . S
C1316 H1302 0.960 . S
C1316 H1303 0.960 . S
C1316 C1315 1.524 . S
C1317 C1314 1.403 . S
C1317 C1318 1.392 . S
C1317 C1321 1.495 . S
C1318 C1317 1.392 . S
C1318 C1319 1.385 . S
C1318 C1320 1.478 . S
C1319 H1313 0.930 . S
C1319 C1315 1.400 . S
C1319 C1318 1.385 . S
C1320 C1318 1.478 . S
C1320 C1322 1.381 . S
C1320 C1326 1.383 . S
C1321 C1317 1.495 . S
C1321 H1327 0.959 . S
C1321 H1328 0.961 . S
C1321 H1329 0.960 . S
C1322 C1320 1.381 . S
C1322 C1323 1.394 . S
C1322 H1330 0.930 . S
C1323 C1322 1.394 . S
C1323 C1324 1.383 . S
C1323 H1331 0.929 . S
C1324 C1323 1.383 . S
C1324 C1325 1.377 . S
C1325 H1309 0.930 . S
C1325 C1324 1.377 . S
C1325 C1326 1.379 . S
C1326 H1310 0.931 . S
C1326 C1320 1.383 . S
C1326 C1325 1.379 . S
H1327 C1321 0.959 . S
H1328 C1321 0.961 . S
H1329 C1321 0.960 . S
H1330 C1322 0.930 . S
H1331 C1323 0.929 . S
H1332 C1340 0.929 . S
H1333 C1342 0.930 . S
H1334 C1344 0.930 . S
H1335 C1347 0.929 . S
H1336 C1350 0.930 . S
H1337 C1352 0.960 . S
H1338 C1352 0.960 . S
H1339 C1352 0.960 . S
C1340 H1332 0.929 . S
C1340 C1341 1.377 . S
C1340 C1342 1.384 . S
C1341 C1340 1.377 . S
C1341 C1347 1.390 . S
C1342 H1333 0.930 . S
C1342 C1340 1.384 . S
C1342 C1343 1.372 . S
C1343 C1342 1.372 . S
C1343 C1344 1.400 . S
C1343 C1348 1.490 . S
C1344 H1334 0.930 . S
C1344 C1343 1.400 . S
C1344 C1347 1.386 . S
H1345 C1361 0.930 . S
H1346 C1362 0.931 . S
C1347 H1335 0.929 . S
C1347 C1341 1.390 . S
C1347 C1344 1.386 . S
C1348 C1343 1.490 . S
C1348 C1350 1.395 . S
C1348 C1351 1.403 . S
H1349 C1355 0.930 . S
C1350 H1336 0.930 . S
C1350 C1348 1.395 . S
C1350 C1353 1.403 . S
C1351 C1348 1.403 . S
C1351 C1352 1.524 . S
C1351 C1355 1.400 . S
C1352 H1337 0.960 . S
C1352 H1338 0.960 . S
C1352 H1339 0.960 . S
C1352 C1351 1.524 . S
C1353 C1350 1.403 . S
C1353 C1354 1.392 . S
C1353 C1357 1.495 . S
C1354 C1353 1.392 . S
C1354 C1355 1.385 . S
C1354 C1356 1.478 . S
C1355 H1349 0.930 . S
C1355 C1351 1.400 . S
C1355 C1354 1.385 . S
C1356 C1354 1.478 . S
C1356 C1358 1.381 . S
C1356 C1362 1.383 . S
C1357 C1353 1.495 . S
C1357 H1363 0.959 . S
C1357 H1364 0.961 . S
C1357 H1365 0.960 . S
C1358 C1356 1.381 . S
C1358 C1359 1.394 . S
C1358 H1366 0.930 . S
C1359 C1358 1.394 . S
C1359 C1360 1.383 . S
C1359 H1367 0.929 . S
C1360 C1359 1.383 . S
C1360 C1361 1.377 . S
C1361 H1345 0.930 . S
C1361 C1360 1.377 . S
C1361 C1362 1.379 . S
C1362 H1346 0.931 . S
C1362 C1356 1.383 . S
C1362 C1361 1.379 . S
H1363 C1357 0.959 . S
H1364 C1357 0.961 . S
H1365 C1357 0.960 . S
H1366 C1358 0.930 . S
H1367 C1359 0.929 . S
H1368 C1376 0.929 . S
H1369 C1378 0.930 . S
H1370 C1380 0.930 . S
H1371 C1383 0.929 . S
H1372 C1386 0.930 . S
H1373 C1388 0.960 . S
H1374 C1388 0.960 . S
H1375 C1388 0.960 1_554 S
C1376 H1368 0.929 . S
C1376 C1377 1.377 1_556 S
C1376 C1378 1.384 . S
C1377 C1376 1.377 1_554 S
C1377 C1383 1.390 . S
C1378 H1369 0.930 . S
C1378 C1376 1.384 . S
C1378 C1379 1.372 1_556 S
C1379 C1378 1.372 1_554 S
C1379 C1380 1.400 . S
C1379 C1384 1.490 1_554 S
C1380 H1370 0.930 . S
C1380 C1379 1.400 . S
C1380 C1383 1.386 . S
H1381 C1397 0.930 . S
H1382 C1398 0.931 . S
C1383 H1371 0.929 . S
C1383 C1377 1.390 . S
C1383 C1380 1.386 . S
C1384 C1379 1.490 1_556 S
C1384 C1386 1.395 . S
C1384 C1387 1.403 . S
H1385 C1391 0.930 . S
C1386 H1372 0.930 . S
C1386 C1384 1.395 . S
C1386 C1389 1.403 . S
C1387 C1384 1.403 . S
C1387 C1388 1.524 . S
C1387 C1391 1.400 . S
C1388 H1373 0.960 . S
C1388 H1374 0.960 . S
C1388 H1375 0.960 1_556 S
C1388 C1387 1.524 . S
C1389 C1386 1.403 . S
C1389 C1390 1.392 . S
C1389 C1393 1.495 . S
C1390 C1389 1.392 . S
C1390 C1391 1.385 . S
C1390 C1392 1.478 . S
C1391 H1385 0.930 . S
C1391 C1387 1.400 . S
C1391 C1390 1.385 . S
C1392 C1390 1.478 . S
C1392 C1394 1.381 . S
C1392 C1398 1.383 1_556 S
C1393 C1389 1.495 . S
C1393 H1399 0.959 . S
C1393 H1400 0.961 1_556 S
C1393 H1401 0.960 . S
C1394 C1392 1.381 . S
C1394 C1395 1.394 . S
C1394 H1402 0.930 . S
C1395 C1394 1.394 . S
C1395 C1396 1.383 . S
C1395 H1403 0.929 . S
C1396 C1395 1.383 . S
C1396 C1397 1.377 1_556 S
C1397 H1381 0.930 . S
C1397 C1396 1.377 1_554 S
C1397 C1398 1.379 . S
C1398 H1382 0.931 . S
C1398 C1392 1.383 1_554 S
C1398 C1397 1.379 . S
H1399 C1393 0.959 . S
H1400 C1393 0.961 1_554 S
H1401 C1393 0.960 . S
H1402 C1394 0.930 . S
H1403 C1395 0.929 . S
H1404 C1412 0.929 . S
H1405 C1414 0.930 . S
H1406 C1416 0.930 . S
H1407 C1419 0.929 . S
H1408 C1422 0.930 . S
H1409 C1424 0.960 . S
H1410 C1424 0.960 . S
H1411 C1424 0.960 . S
C1412 H1404 0.929 . S
C1412 C1413 1.377 1_554 S
C1412 C1414 1.384 . S
C1413 C1412 1.377 1_556 S
C1413 C1419 1.390 . S
C1414 H1405 0.930 . S
C1414 C1412 1.384 . S
C1414 C1415 1.372 1_554 S
C1415 C1414 1.372 1_556 S
C1415 C1416 1.400 . S
C1415 C1420 1.490 . S
C1416 H1406 0.930 . S
C1416 C1415 1.400 . S
C1416 C1419 1.386 . S
H1417 C1433 0.930 . S
H1418 C1434 0.931 . S
C1419 H1407 0.929 . S
C1419 C1413 1.390 . S
C1419 C1416 1.386 . S
C1420 C1415 1.490 . S
C1420 C1422 1.395 1_556 S
C1420 C1423 1.403 . S
H1421 C1427 0.930 . S
C1422 H1408 0.930 . S
C1422 C1420 1.395 1_554 S
C1422 C1425 1.403 . S
C1423 C1420 1.403 . S
C1423 C1424 1.524 . S
C1423 C1427 1.400 . S
C1424 H1409 0.960 . S
C1424 H1410 0.960 . S
C1424 H1411 0.960 . S
C1424 C1423 1.524 . S
C1425 C1422 1.403 . S
C1425 C1426 1.392 . S
C1425 C1429 1.495 . S
C1426 C1425 1.392 . S
C1426 C1427 1.385 1_554 S
C1426 C1428 1.478 . S
C1427 H1421 0.930 . S
C1427 C1423 1.400 . S
C1427 C1426 1.385 1_556 S
C1428 C1426 1.478 . S
C1428 C1430 1.381 . S
C1428 C1434 1.383 1_554 S
C1429 C1425 1.495 . S
C1429 H1435 0.959 . S
C1429 H1436 0.961 . S
C1429 H1437 0.960 . S
C1430 C1428 1.381 . S
C1430 C1431 1.394 . S
C1430 H1438 0.930 . S
C1431 C1430 1.394 . S
C1431 C1432 1.383 . S
C1431 H1439 0.929 . S
C1432 C1431 1.383 . S
C1432 C1433 1.377 1_554 S
C1433 H1417 0.930 . S
C1433 C1432 1.377 1_556 S
C1433 C1434 1.379 . S
C1434 H1418 0.931 . S
C1434 C1428 1.383 1_556 S
C1434 C1433 1.379 . S
H1435 C1429 0.959 . S
H1436 C1429 0.961 . S
H1437 C1429 0.960 . S
H1438 C1430 0.930 . S
H1439 C1431 0.929 . S
H1440 C1448 0.929 . S
H1441 C1450 0.930 . S
H1442 C1452 0.930 . S
H1443 C1455 0.929 . S
H1444 C1458 0.930 . S
H1445 C1460 0.960 . S
H1446 C1460 0.960 . S
H1447 C1460 0.960 . S
C1448 H1440 0.929 . S
C1448 C1449 1.377 . S
C1448 C1450 1.384 . S
C1449 C1448 1.377 . S
C1449 C1455 1.390 1_554 S
C1450 H1441 0.930 . S
C1450 C1448 1.384 . S
C1450 C1451 1.372 . S
C1451 C1450 1.372 . S
C1451 C1452 1.400 1_554 S
C1451 C1456 1.495 . S
C1452 H1442 0.930 . S
C1452 C1451 1.400 1_556 S
C1452 C1455 1.386 . S
H1453 C1469 0.930 . S
H1454 C1470 0.931 . S
C1455 H1443 0.929 . S
C1455 C1449 1.390 1_556 S
C1455 C1452 1.386 . S
C1456 C1451 1.495 . S
C1456 C1458 1.425 . S
C1456 C1459 1.369 1_554 S
H1457 C1463 0.930 . S
C1458 H1444 0.930 . S
C1458 C1456 1.425 . S
C1458 C1461 1.403 . S
C1459 C1456 1.369 1_556 S
C1459 C1460 1.524 . S
C1459 C1463 1.400 . S
C1460 H1445 0.960 . S
C1460 H1446 0.960 . S
C1460 H1447 0.960 . S
C1460 C1459 1.524 . S
C1461 C1458 1.403 . S
C1461 C1462 1.392 1_554 S
C1461 C1465 1.495 . S
C1462 C1461 1.392 1_556 S
C1462 C1463 1.385 . S
C1462 C1464 1.478 . S
C1463 H1457 0.930 . S
C1463 C1459 1.400 . S
C1463 C1462 1.385 . S
C1464 C1462 1.478 . S
C1464 C1466 1.381 . S
C1464 C1470 1.383 . S
C1465 C1461 1.495 . S
C1465 H1471 0.959 . S
C1465 H1472 0.961 . S
C1465 H1473 0.960 . S
C1466 C1464 1.381 . S
C1466 C1467 1.394 . S
C1466 H1474 0.931 1_556 S
C1467 C1466 1.394 . S
C1467 C1468 1.383 . S
C1467 H1475 0.939 . S
C1468 C1467 1.383 . S
C1468 C1469 1.377 . S
C1469 H1453 0.930 . S
C1469 C1468 1.377 . S
C1469 C1470 1.379 . S
C1470 H1454 0.931 . S
C1470 C1464 1.383 . S
C1470 C1469 1.379 . S
H1471 C1465 0.959 . S
H1472 C1465 0.961 . S
H1473 C1465 0.960 . S
H1474 C1466 0.931 1_554 S
H1475 C1467 0.939 . S
H1476 C1484 0.929 . S
H1477 C1486 0.930 . S
H1478 C1488 0.930 . S
H1479 C1491 0.929 . S
H1480 C1494 0.930 . S
H1481 C1496 0.960 . S
H1482 C1496 0.960 . S
H1483 C1496 0.960 . S
C1484 H1476 0.929 . S
C1484 C1485 1.377 . S
C1484 C1486 1.384 . S
C1485 C1484 1.377 . S
C1485 C1491 1.390 . S
C1486 H1477 0.930 . S
C1486 C1484 1.384 . S
C1486 C1487 1.372 . S
C1487 C1486 1.372 . S
C1487 C1488 1.400 . S
C1487 C1492 1.490 . S
C1488 H1478 0.930 . S
C1488 C1487 1.400 . S
C1488 C1491 1.386 . S
H1489 C1505 0.930 . S
H1490 C1506 0.931 . S
C1491 H1479 0.929 . S
C1491 C1485 1.390 . S
C1491 C1488 1.386 . S
C1492 C1487 1.490 . S
C1492 C1494 1.395 . S
C1492 C1495 1.403 . S
H1493 C1499 0.930 . S
C1494 H1480 0.930 . S
C1494 C1492 1.395 . S
C1494 C1497 1.403 . S
C1495 C1492 1.403 . S
C1495 C1496 1.524 . S
C1495 C1499 1.400 . S
C1496 H1481 0.960 . S
C1496 H1482 0.960 . S
C1496 H1483 0.960 . S
C1496 C1495 1.524 . S
C1497 C1494 1.403 . S
C1497 C1498 1.392 . S
C1497 C1501 1.495 . S
C1498 C1497 1.392 . S
C1498 C1499 1.385 . S
C1498 C1500 1.478 . S
C1499 H1493 0.930 . S
C1499 C1495 1.400 . S
C1499 C1498 1.385 . S
C1500 C1498 1.478 . S
C1500 C1502 1.381 . S
C1500 C1506 1.383 . S
C1501 C1497 1.495 . S
C1501 H1507 0.959 . S
C1501 H1508 0.961 . S
C1501 H1509 0.960 . S
C1502 C1500 1.381 . S
C1502 C1503 1.394 . S
C1502 H1510 0.930 . S
C1503 C1502 1.394 . S
C1503 C1504 1.383 . S
C1503 H1511 0.929 . S
C1504 C1503 1.383 . S
C1504 C1505 1.377 . S
C1505 H1489 0.930 . S
C1505 C1504 1.377 . S
C1505 C1506 1.379 . S
C1506 H1490 0.931 . S
C1506 C1500 1.383 . S
C1506 C1505 1.379 . S
H1507 C1501 0.959 . S
H1508 C1501 0.961 . S
H1509 C1501 0.960 . S
H1510 C1502 0.930 . S
H1511 C1503 0.929 . S
H1512 C1520 0.929 . S
H1513 C1522 0.930 . S
H1514 C1524 0.930 . S
H1515 C1527 0.929 . S
H1516 C1530 0.930 . S
H1517 C1532 0.960 . S
H1518 C1532 0.960 . S
H1519 C1532 0.960 . S
C1520 H1512 0.929 . S
C1520 C1521 1.377 . S
C1520 C1522 1.384 . S
C1521 C1520 1.377 . S
C1521 C1527 1.390 . S
C1522 H1513 0.930 . S
C1522 C1520 1.384 . S
C1522 C1523 1.372 . S
C1523 C1522 1.372 . S
C1523 C1524 1.400 . S
C1523 C1528 1.490 . S
C1524 H1514 0.930 . S
C1524 C1523 1.400 . S
C1524 C1527 1.386 . S
H1525 C1541 0.930 . S
H1526 C1542 0.931 . S
C1527 H1515 0.929 . S
C1527 C1521 1.390 . S
C1527 C1524 1.386 . S
C1528 C1523 1.490 . S
C1528 C1530 1.395 . S
C1528 C1531 1.403 . S
H1529 C1535 0.930 . S
C1530 H1516 0.930 . S
C1530 C1528 1.395 . S
C1530 C1533 1.403 . S
C1531 C1528 1.403 . S
C1531 C1532 1.524 . S
C1531 C1535 1.400 . S
C1532 H1517 0.960 . S
C1532 H1518 0.960 . S
C1532 H1519 0.960 . S
C1532 C1531 1.524 . S
C1533 C1530 1.403 . S
C1533 C1534 1.392 . S
C1533 C1537 1.495 . S
C1534 C1533 1.392 . S
C1534 C1535 1.385 . S
C1534 C1536 1.478 . S
C1535 H1529 0.930 . S
C1535 C1531 1.400 . S
C1535 C1534 1.385 . S
C1536 C1534 1.478 . S
C1536 C1538 1.381 . S
C1536 C1542 1.383 . S
C1537 C1533 1.495 . S
C1537 H1543 0.959 . S
C1537 H1544 0.961 . S
C1537 H1545 0.960 . S
C1538 C1536 1.381 . S
C1538 C1539 1.394 . S
C1538 H1546 0.930 . S
C1539 C1538 1.394 . S
C1539 C1540 1.383 . S
C1539 H1547 0.929 . S
C1540 C1539 1.383 . S
C1540 C1541 1.377 . S
C1541 H1525 0.930 . S
C1541 C1540 1.377 . S
C1541 C1542 1.379 . S
C1542 H1526 0.931 . S
C1542 C1536 1.383 . S
C1542 C1541 1.379 . S
H1543 C1537 0.959 . S
H1544 C1537 0.961 . S
H1545 C1537 0.960 . S
H1546 C1538 0.930 . S
H1547 C1539 0.929 . S
H1548 C1556 0.929 . S
H1549 C1558 0.930 . S
H1550 C1560 0.930 . S
H1551 C1563 0.929 . S
H1552 C1566 0.930 . S
H1553 C1568 0.960 . S
H1554 C1568 0.960 . S
H1555 C1568 0.960 . S
C1556 H1548 0.929 . S
C1556 C1557 1.377 . S
C1556 C1558 1.384 . S
C1557 C1556 1.377 . S
C1557 C1563 1.390 . S
C1558 H1549 0.930 . S
C1558 C1556 1.384 . S
C1558 C1559 1.372 . S
C1559 C1558 1.372 . S
C1559 C1560 1.400 . S
C1559 C1564 1.490 . S
C1560 H1550 0.930 . S
C1560 C1559 1.400 . S
C1560 C1563 1.386 . S
H1561 C1577 0.930 . S
H1562 C1578 0.931 . S
C1563 H1551 0.929 . S
C1563 C1557 1.390 . S
C1563 C1560 1.386 . S
C1564 C1559 1.490 . S
C1564 C1566 1.395 . S
C1564 C1567 1.403 . S
H1565 C1571 0.930 . S
C1566 H1552 0.930 . S
C1566 C1564 1.395 . S
C1566 C1569 1.403 . S
C1567 C1564 1.403 . S
C1567 C1568 1.524 . S
C1567 C1571 1.400 . S
C1568 H1553 0.960 . S
C1568 H1554 0.960 . S
C1568 H1555 0.960 . S
C1568 C1567 1.524 . S
C1569 C1566 1.403 . S
C1569 C1570 1.392 . S
C1569 C1573 1.495 . S
C1570 C1569 1.392 . S
C1570 C1571 1.385 . S
C1570 C1572 1.478 . S
C1571 H1565 0.930 . S
C1571 C1567 1.400 . S
C1571 C1570 1.385 . S
C1572 C1570 1.478 . S
C1572 C1574 1.381 . S
C1572 C1578 1.383 . S
C1573 C1569 1.495 . S
C1573 H1579 0.959 . S
C1573 H1580 0.961 . S
C1573 H1581 0.960 . S
C1574 C1572 1.381 . S
C1574 C1575 1.394 . S
C1574 H1582 0.930 . S
C1575 C1574 1.394 . S
C1575 C1576 1.383 . S
C1575 H1583 0.929 . S
C1576 C1575 1.383 . S
C1576 C1577 1.377 . S
C1577 H1561 0.930 . S
C1577 C1576 1.377 . S
C1577 C1578 1.379 . S
C1578 H1562 0.931 . S
C1578 C1572 1.383 . S
C1578 C1577 1.379 . S
H1579 C1573 0.959 . S
H1580 C1573 0.961 . S
H1581 C1573 0.960 . S
H1582 C1574 0.930 . S
H1583 C1575 0.929 . S
H1584 C1592 0.929 . S
H1585 C1594 0.930 . S
H1586 C1596 0.930 . S
H1587 C1599 0.929 . S
H1588 C1602 0.930 . S
H1589 C1604 0.960 . S
H1590 C1604 0.960 . S
H1591 C1604 0.960 . S
C1592 H1584 0.929 . S
C1592 C1593 1.377 . S
C1592 C1594 1.384 . S
C1593 C1592 1.377 . S
C1593 C1599 1.390 . S
C1594 H1585 0.930 . S
C1594 C1592 1.384 . S
C1594 C1595 1.372 . S
C1595 C1594 1.372 . S
C1595 C1596 1.400 . S
C1595 C1600 1.490 . S
C1596 H1586 0.930 . S
C1596 C1595 1.400 . S
C1596 C1599 1.386 . S
H1597 C1613 0.930 . S
H1598 C1614 0.931 . S
C1599 H1587 0.929 . S
C1599 C1593 1.390 . S
C1599 C1596 1.386 . S
C1600 C1595 1.490 . S
C1600 C1602 1.395 . S
C1600 C1603 1.403 . S
H1601 C1607 0.930 . S
C1602 H1588 0.930 . S
C1602 C1600 1.395 . S
C1602 C1605 1.403 . S
C1603 C1600 1.403 . S
C1603 C1604 1.524 . S
C1603 C1607 1.400 . S
C1604 H1589 0.960 . S
C1604 H1590 0.960 . S
C1604 H1591 0.960 . S
C1604 C1603 1.524 . S
C1605 C1602 1.403 . S
C1605 C1606 1.392 . S
C1605 C1609 1.495 . S
C1606 C1605 1.392 . S
C1606 C1607 1.385 . S
C1606 C1608 1.478 . S
C1607 H1601 0.930 . S
C1607 C1603 1.400 . S
C1607 C1606 1.385 . S
C1608 C1606 1.478 . S
C1608 C1610 1.381 . S
C1608 C1614 1.383 . S
C1609 C1605 1.495 . S
C1609 H1615 0.959 . S
C1609 H1616 0.961 . S
C1609 H1617 0.960 . S
C1610 C1608 1.381 . S
C1610 C1611 1.394 . S
C1610 H1618 0.930 . S
C1611 C1610 1.394 . S
C1611 C1612 1.383 . S
C1611 H1619 0.929 . S
C1612 C1611 1.383 . S
C1612 C1613 1.377 . S
C1613 H1597 0.930 . S
C1613 C1612 1.377 . S
C1613 C1614 1.379 . S
C1614 H1598 0.931 . S
C1614 C1608 1.383 . S
C1614 C1613 1.379 . S
H1615 C1609 0.959 . S
H1616 C1609 0.961 . S
H1617 C1609 0.960 . S
H1618 C1610 0.930 . S
H1619 C1611 0.929 . S
H1620 C1628 0.929 . S
H1621 C1630 0.930 . S
H1622 C1632 0.930 . S
H1623 C1635 0.929 . S
H1624 C1638 0.930 . S
H1625 C1640 0.960 . S
H1626 C1640 0.960 . S
H1627 C1640 0.960 . S
C1628 H1620 0.929 . S
C1628 C1629 1.377 . S
C1628 C1630 1.384 . S
C1629 C1628 1.377 . S
C1629 C1635 1.390 . S
C1630 H1621 0.930 . S
C1630 C1628 1.384 . S
C1630 C1631 1.372 . S
C1631 C1630 1.372 . S
C1631 C1632 1.400 . S
C1631 C1636 1.490 . S
C1632 H1622 0.930 . S
C1632 C1631 1.400 . S
C1632 C1635 1.386 . S
H1633 C1649 0.930 . S
H1634 C1650 0.931 . S
C1635 H1623 0.929 . S
C1635 C1629 1.390 . S
C1635 C1632 1.386 . S
C1636 C1631 1.490 . S
C1636 C1638 1.395 . S
C1636 C1639 1.403 . S
H1637 C1643 0.930 . S
C1638 H1624 0.930 . S
C1638 C1636 1.395 . S
C1638 C1641 1.403 . S
C1639 C1636 1.403 . S
C1639 C1640 1.524 . S
C1639 C1643 1.400 . S
C1640 H1625 0.960 . S
C1640 H1626 0.960 . S
C1640 H1627 0.960 . S
C1640 C1639 1.524 . S
C1641 C1638 1.403 . S
C1641 C1642 1.392 . S
C1641 C1645 1.495 . S
C1642 C1641 1.392 . S
C1642 C1643 1.385 . S
C1642 C1644 1.478 . S
C1643 H1637 0.930 . S
C1643 C1639 1.400 . S
C1643 C1642 1.385 . S
C1644 C1642 1.478 . S
C1644 C1646 1.381 . S
C1644 C1650 1.383 . S
C1645 C1641 1.495 . S
C1645 H1651 0.959 . S
C1645 H1652 0.961 . S
C1645 H1653 0.960 . S
C1646 C1644 1.381 . S
C1646 C1647 1.394 . S
C1646 H1654 0.930 . S
C1647 C1646 1.394 . S
C1647 C1648 1.383 . S
C1647 H1655 0.929 . S
C1648 C1647 1.383 . S
C1648 C1649 1.377 . S
C1649 H1633 0.930 . S
C1649 C1648 1.377 . S
C1649 C1650 1.379 . S
C1650 H1634 0.931 . S
C1650 C1644 1.383 . S
C1650 C1649 1.379 . S
H1651 C1645 0.959 . S
H1652 C1645 0.961 . S
H1653 C1645 0.960 . S
H1654 C1646 0.930 . S
H1655 C1647 0.929 . S
H1656 C1664 0.929 . S
H1657 C1666 0.930 . S
H1658 C1668 0.930 . S
H1659 C1671 0.929 . S
H1660 C1674 0.930 . S
H1661 C1676 0.960 . S
H1662 C1676 0.960 . S
H1663 C1676 0.960 . S
C1664 H1656 0.929 . S
C1664 C1665 1.377 . S
C1664 C1666 1.384 . S
C1665 C1664 1.377 . S
C1665 C1671 1.390 . S
C1666 H1657 0.930 . S
C1666 C1664 1.384 . S
C1666 C1667 1.372 . S
C1667 C1666 1.372 . S
C1667 C1668 1.400 . S
C1667 C1672 1.490 . S
C1668 H1658 0.930 . S
C1668 C1667 1.400 . S
C1668 C1671 1.386 . S
H1669 C1685 0.930 . S
H1670 C1686 0.931 . S
C1671 H1659 0.929 . S
C1671 C1665 1.390 . S
C1671 C1668 1.386 . S
C1672 C1667 1.490 . S
C1672 C1674 1.395 . S
C1672 C1675 1.403 . S
H1673 C1679 0.930 . S
C1674 H1660 0.930 . S
C1674 C1672 1.395 . S
C1674 C1677 1.403 . S
C1675 C1672 1.403 . S
C1675 C1676 1.524 . S
C1675 C1679 1.400 . S
C1676 H1661 0.960 . S
C1676 H1662 0.960 . S
C1676 H1663 0.960 . S
C1676 C1675 1.524 . S
C1677 C1674 1.403 . S
C1677 C1678 1.392 . S
C1677 C1681 1.495 . S
C1678 C1677 1.392 . S
C1678 C1679 1.385 . S
C1678 C1680 1.478 . S
C1679 H1673 0.930 . S
C1679 C1675 1.400 . S
C1679 C1678 1.385 . S
C1680 C1678 1.478 . S
C1680 C1682 1.381 . S
C1680 C1686 1.383 . S
C1681 C1677 1.495 . S
C1681 H1687 0.959 . S
C1681 H1688 0.961 . S
C1681 H1689 0.960 . S
C1682 C1680 1.381 . S
C1682 C1683 1.394 . S
C1682 H1690 0.930 . S
C1683 C1682 1.394 . S
C1683 C1684 1.383 . S
C1683 H1691 0.929 . S
C1684 C1683 1.383 . S
C1684 C1685 1.377 . S
C1685 H1669 0.930 . S
C1685 C1684 1.377 . S
C1685 C1686 1.379 . S
C1686 H1670 0.931 . S
C1686 C1680 1.383 . S
C1686 C1685 1.379 . S
H1687 C1681 0.959 . S
H1688 C1681 0.961 . S
H1689 C1681 0.960 . S
H1690 C1682 0.930 . S
H1691 C1683 0.929 . S
H1692 C1700 0.929 . S
H1693 C1702 0.930 . S
H1694 C1704 0.930 . S
H1695 C1707 0.929 . S
H1696 C1710 0.930 . S
H1697 C1712 0.960 . S
H1698 C1712 0.960 . S
H1699 C1712 0.960 . S
C1700 H1692 0.929 . S
C1700 C1701 1.377 . S
C1700 C1702 1.384 . S
C1701 C1700 1.377 . S
C1701 C1707 1.390 . S
C1702 H1693 0.930 . S
C1702 C1700 1.384 . S
C1702 C1703 1.372 . S
C1703 C1702 1.372 . S
C1703 C1704 1.400 . S
C1703 C1708 1.490 . S
C1704 H1694 0.930 . S
C1704 C1703 1.400 . S
C1704 C1707 1.386 . S
H1705 C1721 0.930 . S
H1706 C1722 0.931 . S
C1707 H1695 0.929 . S
C1707 C1701 1.390 . S
C1707 C1704 1.386 . S
C1708 C1703 1.490 . S
C1708 C1710 1.395 . S
C1708 C1711 1.403 . S
H1709 C1715 0.930 . S
C1710 H1696 0.930 . S
C1710 C1708 1.395 . S
C1710 C1713 1.403 . S
C1711 C1708 1.403 . S
C1711 C1712 1.524 . S
C1711 C1715 1.400 . S
C1712 H1697 0.960 . S
C1712 H1698 0.960 . S
C1712 H1699 0.960 . S
C1712 C1711 1.524 . S
C1713 C1710 1.403 . S
C1713 C1714 1.392 . S
C1713 C1717 1.495 . S
C1714 C1713 1.392 . S
C1714 C1715 1.385 . S
C1714 C1716 1.478 . S
C1715 H1709 0.930 . S
C1715 C1711 1.400 . S
C1715 C1714 1.385 . S
C1716 C1714 1.478 . S
C1716 C1718 1.381 . S
C1716 C1722 1.383 . S
C1717 C1713 1.495 . S
C1717 H1723 0.959 . S
C1717 H1724 0.961 . S
C1717 H1725 0.960 . S
C1718 C1716 1.381 . S
C1718 C1719 1.394 . S
C1718 H1726 0.930 . S
C1719 C1718 1.394 . S
C1719 C1720 1.383 . S
C1719 H1727 0.929 . S
C1720 C1719 1.383 . S
C1720 C1721 1.377 . S
C1721 H1705 0.930 . S
C1721 C1720 1.377 . S
C1721 C1722 1.379 . S
C1722 H1706 0.931 . S
C1722 C1716 1.383 . S
C1722 C1721 1.379 . S
H1723 C1717 0.959 . S
H1724 C1717 0.961 . S
H1725 C1717 0.960 . S
H1726 C1718 0.930 . S
H1727 C1719 0.929 . S
H1728 C1736 0.929 . S
H1729 C1738 0.930 . S
H1730 C1740 0.930 . S
H1731 C1743 0.929 . S
H1732 C1746 0.930 . S
H1733 C1748 0.960 . S
H1734 C1748 0.960 . S
H1735 C1748 0.960 . S
C1736 H1728 0.929 . S
C1736 C1737 1.377 . S
C1736 C1738 1.384 . S
C1737 C1736 1.377 . S
C1737 C1743 1.390 . S
C1738 H1729 0.930 . S
C1738 C1736 1.384 . S
C1738 C1739 1.372 . S
C1739 C1738 1.372 . S
C1739 C1740 1.400 . S
C1739 C1744 1.490 . S
C1740 H1730 0.930 . S
C1740 C1739 1.400 . S
C1740 C1743 1.386 . S
H1741 C1757 0.930 . S
H1742 C1758 0.931 . S
C1743 H1731 0.929 . S
C1743 C1737 1.390 . S
C1743 C1740 1.386 . S
C1744 C1739 1.490 . S
C1744 C1746 1.395 . S
C1744 C1747 1.403 . S
H1745 C1751 0.930 . S
C1746 H1732 0.930 . S
C1746 C1744 1.395 . S
C1746 C1749 1.403 . S
C1747 C1744 1.403 . S
C1747 C1748 1.524 . S
C1747 C1751 1.400 . S
C1748 H1733 0.960 . S
C1748 H1734 0.960 . S
C1748 H1735 0.960 . S
C1748 C1747 1.524 . S
C1749 C1746 1.403 . S
C1749 C1750 1.392 . S
C1749 C1753 1.495 . S
C1750 C1749 1.392 . S
C1750 C1751 1.385 . S
C1750 C1752 1.478 . S
C1751 H1745 0.930 . S
C1751 C1747 1.400 . S
C1751 C1750 1.385 . S
C1752 C1750 1.478 . S
C1752 C1754 1.381 . S
C1752 C1758 1.383 . S
C1753 C1749 1.495 . S
C1753 H1759 0.959 . S
C1753 H1760 0.961 . S
C1753 H1761 0.960 . S
C1754 C1752 1.381 . S
C1754 C1755 1.394 . S
C1754 H1762 0.930 . S
C1755 C1754 1.394 . S
C1755 C1756 1.383 . S
C1755 H1763 0.929 . S
C1756 C1755 1.383 . S
C1756 C1757 1.377 . S
C1757 H1741 0.930 . S
C1757 C1756 1.377 . S
C1757 C1758 1.379 . S
C1758 H1742 0.931 . S
C1758 C1752 1.383 . S
C1758 C1757 1.379 . S
H1759 C1753 0.959 . S
H1760 C1753 0.961 . S
H1761 C1753 0.960 . S
H1762 C1754 0.930 . S
H1763 C1755 0.929 . S
H1764 C1772 0.929 . S
H1765 C1774 0.930 . S
H1766 C1776 0.930 . S
H1767 C1779 0.929 . S
H1768 C1782 0.930 . S
H1769 C1784 0.960 . S
H1770 C1784 0.960 . S
H1771 C1784 0.960 . S
C1772 H1764 0.929 . S
C1772 C1773 1.377 . S
C1772 C1774 1.384 . S
C1773 C1772 1.377 . S
C1773 C1779 1.390 . S
C1774 H1765 0.930 . S
C1774 C1772 1.384 . S
C1774 C1775 1.372 . S
C1775 C1774 1.372 . S
C1775 C1776 1.400 . S
C1775 C1780 1.490 . S
C1776 H1766 0.930 . S
C1776 C1775 1.400 . S
C1776 C1779 1.386 . S
H1777 C1793 0.930 . S
H1778 C1794 0.931 . S
C1779 H1767 0.929 . S
C1779 C1773 1.390 . S
C1779 C1776 1.386 . S
C1780 C1775 1.490 . S
C1780 C1782 1.395 . S
C1780 C1783 1.403 . S
H1781 C1787 0.930 . S
C1782 H1768 0.930 . S
C1782 C1780 1.395 . S
C1782 C1785 1.403 . S
C1783 C1780 1.403 . S
C1783 C1784 1.524 . S
C1783 C1787 1.400 . S
C1784 H1769 0.960 . S
C1784 H1770 0.960 . S
C1784 H1771 0.960 . S
C1784 C1783 1.524 . S
C1785 C1782 1.403 . S
C1785 C1786 1.392 . S
C1785 C1789 1.495 . S
C1786 C1785 1.392 . S
C1786 C1787 1.385 . S
C1786 C1788 1.478 . S
C1787 H1781 0.930 . S
C1787 C1783 1.400 . S
C1787 C1786 1.385 . S
C1788 C1786 1.478 . S
C1788 C1790 1.381 . S
C1788 C1794 1.383 . S
C1789 C1785 1.495 . S
C1789 H1795 0.959 . S
C1789 H1796 0.961 . S
C1789 H1797 0.960 . S
C1790 C1788 1.381 . S
C1790 C1791 1.394 . S
C1790 H1798 0.930 . S
C1791 C1790 1.394 . S
C1791 C1792 1.383 . S
C1791 H1799 0.929 . S
C1792 C1791 1.383 . S
C1792 C1793 1.377 . S
C1793 H1777 0.930 . S
C1793 C1792 1.377 . S
C1793 C1794 1.379 . S
C1794 H1778 0.931 . S
C1794 C1788 1.383 . S
C1794 C1793 1.379 . S
H1795 C1789 0.959 . S
H1796 C1789 0.961 . S
H1797 C1789 0.960 . S
H1798 C1790 0.930 . S
H1799 C1791 0.929 . S
H1800 C1808 0.929 . S
H1801 C1810 0.930 . S
H1802 C1812 0.930 . S
H1803 C1815 0.929 . S
H1804 C1818 0.930 . S
H1805 C1820 0.960 . S
H1806 C1820 0.960 . S
H1807 C1820 0.960 . S
C1808 H1800 0.929 . S
C1808 C1809 1.377 . S
C1808 C1810 1.384 . S
C1809 C1808 1.377 . S
C1809 C1815 1.390 . S
C1810 H1801 0.930 . S
C1810 C1808 1.384 . S
C1810 C1811 1.372 . S
C1811 C1810 1.372 . S
C1811 C1812 1.400 . S
C1811 C1816 1.490 . S
C1812 H1802 0.930 . S
C1812 C1811 1.400 . S
C1812 C1815 1.386 . S
H1813 C1829 0.930 . S
H1814 C1830 0.931 . S
C1815 H1803 0.929 . S
C1815 C1809 1.390 . S
C1815 C1812 1.386 . S
C1816 C1811 1.490 . S
C1816 C1818 1.395 . S
C1816 C1819 1.403 . S
H1817 C1823 0.930 . S
C1818 H1804 0.930 . S
C1818 C1816 1.395 . S
C1818 C1821 1.403 . S
C1819 C1816 1.403 . S
C1819 C1820 1.524 . S
C1819 C1823 1.400 . S
C1820 H1805 0.960 . S
C1820 H1806 0.960 . S
C1820 H1807 0.960 . S
C1820 C1819 1.524 . S
C1821 C1818 1.403 . S
C1821 C1822 1.392 . S
C1821 C1825 1.495 . S
C1822 C1821 1.392 . S
C1822 C1823 1.385 . S
C1822 C1824 1.478 . S
C1823 H1817 0.930 . S
C1823 C1819 1.400 . S
C1823 C1822 1.385 . S
C1824 C1822 1.478 . S
C1824 C1826 1.381 . S
C1824 C1830 1.383 . S
C1825 C1821 1.495 . S
C1825 H1831 0.959 . S
C1825 H1832 0.961 . S
C1825 H1833 0.960 . S
C1826 C1824 1.381 . S
C1826 C1827 1.394 . S
C1826 H1834 0.930 . S
C1827 C1826 1.394 . S
C1827 C1828 1.383 . S
C1827 H1835 0.929 . S
C1828 C1827 1.383 . S
C1828 C1829 1.377 . S
C1829 H1813 0.930 . S
C1829 C1828 1.377 . S
C1829 C1830 1.379 . S
C1830 H1814 0.931 . S
C1830 C1824 1.383 . S
C1830 C1829 1.379 . S
H1831 C1825 0.959 . S
H1832 C1825 0.961 . S
H1833 C1825 0.960 . S
H1834 C1826 0.930 . S
H1835 C1827 0.929 . S
H1836 C1844 0.929 . S
H1837 C1846 0.930 . S
H1838 C1848 0.930 . S
H1839 C1851 0.929 . S
H1840 C1854 0.930 . S
H1841 C1856 0.960 . S
H1842 C1856 0.960 . S
H1843 C1856 0.960 . S
C1844 H1836 0.929 . S
C1844 C1845 1.377 . S
C1844 C1846 1.384 . S
C1845 C1844 1.377 . S
C1845 C1851 1.390 . S
C1846 H1837 0.930 . S
C1846 C1844 1.384 . S
C1846 C1847 1.372 . S
C1847 C1846 1.372 . S
C1847 C1848 1.400 . S
C1847 C1852 1.490 . S
C1848 H1838 0.930 . S
C1848 C1847 1.400 . S
C1848 C1851 1.386 . S
H1849 C1865 0.930 . S
H1850 C1866 0.931 . S
C1851 H1839 0.929 . S
C1851 C1845 1.390 . S
C1851 C1848 1.386 . S
C1852 C1847 1.490 . S
C1852 C1854 1.395 . S
C1852 C1855 1.403 . S
H1853 C1859 0.930 . S
C1854 H1840 0.930 . S
C1854 C1852 1.395 . S
C1854 C1857 1.403 . S
C1855 C1852 1.403 . S
C1855 C1856 1.524 . S
C1855 C1859 1.400 . S
C1856 H1841 0.960 . S
C1856 H1842 0.960 . S
C1856 H1843 0.960 . S
C1856 C1855 1.524 . S
C1857 C1854 1.403 . S
C1857 C1858 1.392 . S
C1857 C1861 1.495 . S
C1858 C1857 1.392 . S
C1858 C1859 1.385 . S
C1858 C1860 1.478 . S
C1859 H1853 0.930 . S
C1859 C1855 1.400 . S
C1859 C1858 1.385 . S
C1860 C1858 1.478 . S
C1860 C1862 1.381 . S
C1860 C1866 1.383 . S
C1861 C1857 1.495 . S
C1861 H1867 0.959 . S
C1861 H1868 0.961 . S
C1861 H1869 0.960 . S
C1862 C1860 1.381 . S
C1862 C1863 1.394 . S
C1862 H1870 0.930 . S
C1863 C1862 1.394 . S
C1863 C1864 1.383 . S
C1863 H1871 0.929 . S
C1864 C1863 1.383 . S
C1864 C1865 1.377 . S
C1865 H1849 0.930 . S
C1865 C1864 1.377 . S
C1865 C1866 1.379 . S
C1866 H1850 0.931 . S
C1866 C1860 1.383 . S
C1866 C1865 1.379 . S
H1867 C1861 0.959 . S
H1868 C1861 0.961 . S
H1869 C1861 0.960 . S
H1870 C1862 0.930 . S
H1871 C1863 0.929 . S
H1872 C1880 0.929 . S
H1873 C1882 0.930 . S
H1874 C1884 0.930 . S
H1875 C1887 0.929 . S
H1876 C1890 0.930 . S
H1877 C1892 0.960 . S
H1878 C1892 0.960 . S
H1879 C1892 0.960 . S
C1880 H1872 0.929 . S
C1880 C1881 1.377 . S
C1880 C1882 1.384 . S
C1881 C1880 1.377 . S
C1881 C1887 1.390 . S
C1882 H1873 0.930 . S
C1882 C1880 1.384 . S
C1882 C1883 1.372 . S
C1883 C1882 1.372 . S
C1883 C1884 1.400 . S
C1883 C1888 1.490 . S
C1884 H1874 0.930 . S
C1884 C1883 1.400 . S
C1884 C1887 1.386 . S
H1885 C1901 0.930 . S
H1886 C1902 0.931 . S
C1887 H1875 0.929 . S
C1887 C1881 1.390 . S
C1887 C1884 1.386 . S
C1888 C1883 1.490 . S
C1888 C1890 1.395 . S
C1888 C1891 1.403 . S
H1889 C1895 0.930 . S
C1890 H1876 0.930 . S
C1890 C1888 1.395 . S
C1890 C1893 1.403 . S
C1891 C1888 1.403 . S
C1891 C1892 1.524 . S
C1891 C1895 1.400 . S
C1892 H1877 0.960 . S
C1892 H1878 0.960 . S
C1892 H1879 0.960 . S
C1892 C1891 1.524 . S
C1893 C1890 1.403 . S
C1893 C1894 1.392 . S
C1893 C1897 1.495 . S
C1894 C1893 1.392 . S
C1894 C1895 1.385 . S
C1894 C1896 1.478 . S
C1895 H1889 0.930 . S
C1895 C1891 1.400 . S
C1895 C1894 1.385 . S
C1896 C1894 1.478 . S
C1896 C1898 1.381 . S
C1896 C1902 1.383 . S
C1897 C1893 1.495 . S
C1897 H1903 0.959 . S
C1897 H1904 0.961 . S
C1897 H1905 0.960 . S
C1898 C1896 1.381 . S
C1898 C1899 1.394 . S
C1898 H1906 0.930 . S
C1899 C1898 1.394 . S
C1899 C1900 1.383 . S
C1899 H1907 0.929 . S
C1900 C1899 1.383 . S
C1900 C1901 1.377 . S
C1901 H1885 0.930 . S
C1901 C1900 1.377 . S
C1901 C1902 1.379 . S
C1902 H1886 0.931 . S
C1902 C1896 1.383 . S
C1902 C1901 1.379 . S
H1903 C1897 0.959 . S
H1904 C1897 0.961 . S
H1905 C1897 0.960 . S
H1906 C1898 0.930 . S
H1907 C1899 0.929 . S
H1908 C1916 0.929 . S
H1909 C1918 0.930 . S
H1910 C1920 0.930 . S
H1911 C1923 0.929 . S
H1912 C1926 0.930 . S
H1913 C1928 0.960 . S
H1914 C1928 0.960 . S
H1915 C1928 0.960 . S
C1916 H1908 0.929 . S
C1916 C1917 1.377 . S
C1916 C1918 1.384 . S
C1917 C1916 1.377 . S
C1917 C1923 1.390 . S
C1918 H1909 0.930 . S
C1918 C1916 1.384 . S
C1918 C1919 1.372 . S
C1919 C1918 1.372 . S
C1919 C1920 1.400 . S
C1919 C1924 1.490 . S
C1920 H1910 0.930 . S
C1920 C1919 1.400 . S
C1920 C1923 1.386 . S
H1921 C1937 0.930 . S
H1922 C1938 0.931 . S
C1923 H1911 0.929 . S
C1923 C1917 1.390 . S
C1923 C1920 1.386 . S
C1924 C1919 1.490 . S
C1924 C1926 1.395 . S
C1924 C1927 1.403 . S
H1925 C1931 0.930 . S
C1926 H1912 0.930 . S
C1926 C1924 1.395 . S
C1926 C1929 1.403 . S
C1927 C1924 1.403 . S
C1927 C1928 1.524 . S
C1927 C1931 1.400 . S
C1928 H1913 0.960 . S
C1928 H1914 0.960 . S
C1928 H1915 0.960 . S
C1928 C1927 1.524 . S
C1929 C1926 1.403 . S
C1929 C1930 1.392 . S
C1929 C1933 1.495 . S
C1930 C1929 1.392 . S
C1930 C1931 1.385 . S
C1930 C1932 1.478 . S
C1931 H1925 0.930 . S
C1931 C1927 1.400 . S
C1931 C1930 1.385 . S
C1932 C1930 1.478 . S
C1932 C1934 1.381 . S
C1932 C1938 1.383 . S
C1933 C1929 1.495 . S
C1933 H1939 0.959 . S
C1933 H1940 0.961 . S
C1933 H1941 0.960 . S
C1934 C1932 1.381 . S
C1934 C1935 1.394 . S
C1934 H1942 0.930 . S
C1935 C1934 1.394 . S
C1935 C1936 1.383 . S
C1935 H1943 0.929 . S
C1936 C1935 1.383 . S
C1936 C1937 1.377 . S
C1937 H1921 0.930 . S
C1937 C1936 1.377 . S
C1937 C1938 1.379 . S
C1938 H1922 0.931 . S
C1938 C1932 1.383 . S
C1938 C1937 1.379 . S
H1939 C1933 0.959 . S
H1940 C1933 0.961 . S
H1941 C1933 0.960 . S
H1942 C1934 0.930 . S
H1943 C1935 0.929 . S
H1944 C1952 0.929 . S
H1945 C1954 0.930 . S
H1946 C1956 0.930 . S
H1947 C1959 0.929 . S
H1948 C1962 0.930 . S
H1949 C1964 0.960 . S
H1950 C1964 0.960 . S
H1951 C1964 0.960 . S
C1952 H1944 0.929 . S
C1952 C1953 1.377 . S
C1952 C1954 1.384 . S
C1953 C1952 1.377 . S
C1953 C1959 1.390 . S
C1954 H1945 0.930 . S
C1954 C1952 1.384 . S
C1954 C1955 1.372 . S
C1955 C1954 1.372 . S
C1955 C1956 1.400 . S
C1955 C1960 1.490 . S
C1956 H1946 0.930 . S
C1956 C1955 1.400 . S
C1956 C1959 1.386 . S
H1957 C1973 0.930 . S
H1958 C1974 0.931 . S
C1959 H1947 0.929 . S
C1959 C1953 1.390 . S
C1959 C1956 1.386 . S
C1960 C1955 1.490 . S
C1960 C1962 1.395 . S
C1960 C1963 1.403 . S
H1961 C1967 0.930 . S
C1962 H1948 0.930 . S
C1962 C1960 1.395 . S
C1962 C1965 1.403 . S
C1963 C1960 1.403 . S
C1963 C1964 1.524 . S
C1963 C1967 1.400 . S
C1964 H1949 0.960 . S
C1964 H1950 0.960 . S
C1964 H1951 0.960 . S
C1964 C1963 1.524 . S
C1965 C1962 1.403 . S
C1965 C1966 1.392 . S
C1965 C1969 1.495 . S
C1966 C1965 1.392 . S
C1966 C1967 1.385 . S
C1966 C1968 1.478 . S
C1967 H1961 0.930 . S
C1967 C1963 1.400 . S
C1967 C1966 1.385 . S
C1968 C1966 1.478 . S
C1968 C1970 1.381 . S
C1968 C1974 1.383 . S
C1969 C1965 1.495 . S
C1969 H1975 0.959 . S
C1969 H1976 0.961 . S
C1969 H1977 0.960 . S
C1970 C1968 1.381 . S
C1970 C1971 1.394 . S
C1970 H1978 0.930 . S
C1971 C1970 1.394 . S
C1971 C1972 1.383 . S
C1971 H1979 0.929 . S
C1972 C1971 1.383 . S
C1972 C1973 1.377 . S
C1973 H1957 0.930 . S
C1973 C1972 1.377 . S
C1973 C1974 1.379 . S
C1974 H1958 0.931 . S
C1974 C1968 1.383 . S
C1974 C1973 1.379 . S
H1975 C1969 0.959 . S
H1976 C1969 0.961 . S
H1977 C1969 0.960 . S
H1978 C1970 0.930 . S
H1979 C1971 0.929 . S
H1980 C1988 0.929 . S
H1981 C1990 0.930 . S
H1982 C1992 0.930 . S
H1983 C1995 0.929 . S
H1984 C1998 0.930 . S
H1985 C2000 0.960 . S
H1986 C2000 0.960 . S
H1987 C2000 0.960 . S
C1988 H1980 0.929 . S
C1988 C1989 1.377 . S
C1988 C1990 1.384 . S
C1989 C1988 1.377 . S
C1989 C1995 1.390 . S
C1990 H1981 0.930 . S
C1990 C1988 1.384 . S
C1990 C1991 1.372 . S
C1991 C1990 1.372 . S
C1991 C1992 1.400 . S
C1991 C1996 1.490 . S
C1992 H1982 0.930 . S
C1992 C1991 1.400 . S
C1992 C1995 1.386 . S
H1993 C2009 0.930 . S
H1994 C2010 0.931 . S
C1995 H1983 0.929 . S
C1995 C1989 1.390 . S
C1995 C1992 1.386 . S
C1996 C1991 1.490 . S
C1996 C1998 1.395 . S
C1996 C1999 1.403 . S
H1997 C2003 0.930 . S
C1998 H1984 0.930 . S
C1998 C1996 1.395 . S
C1998 C2001 1.403 . S
C1999 C1996 1.403 . S
C1999 C2000 1.524 . S
C1999 C2003 1.400 . S
C2000 H1985 0.960 . S
C2000 H1986 0.960 . S
C2000 H1987 0.960 . S
C2000 C1999 1.524 . S
C2001 C1998 1.403 . S
C2001 C2002 1.392 . S
C2001 C2005 1.495 . S
C2002 C2001 1.392 . S
C2002 C2003 1.385 . S
C2002 C2004 1.478 . S
C2003 H1997 0.930 . S
C2003 C1999 1.400 . S
C2003 C2002 1.385 . S
C2004 C2002 1.478 . S
C2004 C2006 1.381 . S
C2004 C2010 1.383 . S
C2005 C2001 1.495 . S
C2005 H2011 0.959 . S
C2005 H2012 0.961 . S
C2005 H2013 0.960 . S
C2006 C2004 1.381 . S
C2006 C2007 1.394 . S
C2006 H2014 0.930 . S
C2007 C2006 1.394 . S
C2007 C2008 1.383 . S
C2007 H2015 0.929 . S
C2008 C2007 1.383 . S
C2008 C2009 1.377 . S
C2009 H1993 0.930 . S
C2009 C2008 1.377 . S
C2009 C2010 1.379 . S
C2010 H1994 0.931 . S
C2010 C2004 1.383 . S
C2010 C2009 1.379 . S
H2011 C2005 0.959 . S
H2012 C2005 0.961 . S
H2013 C2005 0.960 . S
H2014 C2006 0.930 . S
H2015 C2007 0.929 . S
H2016 C2024 0.929 . S
H2017 C2026 0.930 . S
H2018 C2028 0.930 . S
H2019 C2031 0.929 . S
H2020 C2034 0.930 . S
H2021 C2036 0.960 . S
H2022 C2036 0.960 . S
H2023 C2036 0.960 . S
C2024 H2016 0.929 . S
C2024 C2025 1.377 . S
C2024 C2026 1.384 . S
C2025 C2024 1.377 . S
C2025 C2031 1.390 . S
C2026 H2017 0.930 . S
C2026 C2024 1.384 . S
C2026 C2027 1.372 . S
C2027 C2026 1.372 . S
C2027 C2028 1.400 . S
C2027 C2032 1.490 . S
C2028 H2018 0.930 . S
C2028 C2027 1.400 . S
C2028 C2031 1.386 . S
H2029 C2045 0.930 . S
H2030 C2046 0.931 . S
C2031 H2019 0.929 . S
C2031 C2025 1.390 . S
C2031 C2028 1.386 . S
C2032 C2027 1.490 . S
C2032 C2034 1.395 . S
C2032 C2035 1.403 . S
H2033 C2039 0.930 . S
C2034 H2020 0.930 . S
C2034 C2032 1.395 . S
C2034 C2037 1.403 . S
C2035 C2032 1.403 . S
C2035 C2036 1.524 . S
C2035 C2039 1.400 . S
C2036 H2021 0.960 . S
C2036 H2022 0.960 . S
C2036 H2023 0.960 . S
C2036 C2035 1.524 . S
C2037 C2034 1.403 . S
C2037 C2038 1.392 . S
C2037 C2041 1.495 . S
C2038 C2037 1.392 . S
C2038 C2039 1.385 . S
C2038 C2040 1.478 . S
C2039 H2033 0.930 . S
C2039 C2035 1.400 . S
C2039 C2038 1.385 . S
C2040 C2038 1.478 . S
C2040 C2042 1.381 . S
C2040 C2046 1.383 . S
C2041 C2037 1.495 . S
C2041 H2047 0.959 . S
C2041 H2048 0.961 . S
C2041 H2049 0.960 . S
C2042 C2040 1.381 . S
C2042 C2043 1.394 . S
C2042 H2050 0.930 . S
C2043 C2042 1.394 . S
C2043 C2044 1.383 . S
C2043 H2051 0.929 . S
C2044 C2043 1.383 . S
C2044 C2045 1.377 . S
C2045 H2029 0.930 . S
C2045 C2044 1.377 . S
C2045 C2046 1.379 . S
C2046 H2030 0.931 . S
C2046 C2040 1.383 . S
C2046 C2045 1.379 . S
H2047 C2041 0.959 . S
H2048 C2041 0.961 . S
H2049 C2041 0.960 . S
H2050 C2042 0.930 . S
H2051 C2043 0.929 . S
H2052 C2060 0.929 . S
H2053 C2062 0.930 . S
H2054 C2064 0.930 . S
H2055 C2067 0.929 . S
H2056 C2070 0.930 . S
H2057 C2072 0.960 . S
H2058 C2072 0.960 . S
H2059 C2072 0.960 . S
C2060 H2052 0.929 . S
C2060 C2061 1.377 . S
C2060 C2062 1.384 . S
C2061 C2060 1.377 . S
C2061 C2067 1.390 . S
C2062 H2053 0.930 . S
C2062 C2060 1.384 . S
C2062 C2063 1.372 . S
C2063 C2062 1.372 . S
C2063 C2064 1.400 . S
C2063 C2068 1.490 . S
C2064 H2054 0.930 . S
C2064 C2063 1.400 . S
C2064 C2067 1.386 . S
H2065 C2081 0.930 . S
H2066 C2082 0.931 . S
C2067 H2055 0.929 . S
C2067 C2061 1.390 . S
C2067 C2064 1.386 . S
C2068 C2063 1.490 . S
C2068 C2070 1.395 . S
C2068 C2071 1.403 . S
H2069 C2075 0.930 . S
C2070 H2056 0.930 . S
C2070 C2068 1.395 . S
C2070 C2073 1.403 . S
C2071 C2068 1.403 . S
C2071 C2072 1.524 . S
C2071 C2075 1.400 . S
C2072 H2057 0.960 . S
C2072 H2058 0.960 . S
C2072 H2059 0.960 . S
C2072 C2071 1.524 . S
C2073 C2070 1.403 . S
C2073 C2074 1.392 . S
C2073 C2077 1.495 . S
C2074 C2073 1.392 . S
C2074 C2075 1.385 . S
C2074 C2076 1.478 . S
C2075 H2069 0.930 . S
C2075 C2071 1.400 . S
C2075 C2074 1.385 . S
C2076 C2074 1.478 . S
C2076 C2078 1.381 . S
C2076 C2082 1.383 . S
C2077 C2073 1.495 . S
C2077 H2083 0.959 . S
C2077 H2084 0.961 . S
C2077 H2085 0.960 . S
C2078 C2076 1.381 . S
C2078 C2079 1.394 . S
C2078 H2086 0.930 . S
C2079 C2078 1.394 . S
C2079 C2080 1.383 . S
C2079 H2087 0.929 . S
C2080 C2079 1.383 . S
C2080 C2081 1.377 . S
C2081 H2065 0.930 . S
C2081 C2080 1.377 . S
C2081 C2082 1.379 . S
C2082 H2066 0.931 . S
C2082 C2076 1.383 . S
C2082 C2081 1.379 . S
H2083 C2077 0.959 . S
H2084 C2077 0.961 . S
H2085 C2077 0.960 . S
H2086 C2078 0.930 . S
H2087 C2079 0.929 . S
H2088 C2096 0.929 . S
H2089 C2098 0.930 . S
H2090 C2100 0.930 . S
H2091 C2103 0.929 . S
H2092 C2106 0.930 . S
H2093 C2108 0.960 . S
H2094 C2108 0.960 . S
H2095 C2108 0.960 . S
C2096 H2088 0.929 . S
C2096 C2097 1.377 . S
C2096 C2098 1.384 . S
C2097 C2096 1.377 . S
C2097 C2103 1.390 . S
C2098 H2089 0.930 . S
C2098 C2096 1.384 . S
C2098 C2099 1.372 . S
C2099 C2098 1.372 . S
C2099 C2100 1.400 . S
C2099 C2104 1.490 . S
C2100 H2090 0.930 . S
C2100 C2099 1.400 . S
C2100 C2103 1.386 . S
H2101 C2117 0.930 . S
H2102 C2118 0.931 . S
C2103 H2091 0.929 . S
C2103 C2097 1.390 . S
C2103 C2100 1.386 . S
C2104 C2099 1.490 . S
C2104 C2106 1.395 . S
C2104 C2107 1.403 . S
H2105 C2111 0.930 . S
C2106 H2092 0.930 . S
C2106 C2104 1.395 . S
C2106 C2109 1.403 . S
C2107 C2104 1.403 . S
C2107 C2108 1.524 . S
C2107 C2111 1.400 . S
C2108 H2093 0.960 . S
C2108 H2094 0.960 . S
C2108 H2095 0.960 . S
C2108 C2107 1.524 . S
C2109 C2106 1.403 . S
C2109 C2110 1.392 . S
C2109 C2113 1.495 . S
C2110 C2109 1.392 . S
C2110 C2111 1.385 . S
C2110 C2112 1.478 . S
C2111 H2105 0.930 . S
C2111 C2107 1.400 . S
C2111 C2110 1.385 . S
C2112 C2110 1.478 . S
C2112 C2114 1.381 . S
C2112 C2118 1.383 . S
C2113 C2109 1.495 . S
C2113 H2119 0.959 . S
C2113 H2120 0.961 . S
C2113 H2121 0.960 . S
C2114 C2112 1.381 . S
C2114 C2115 1.394 . S
C2114 H2122 0.930 . S
C2115 C2114 1.394 . S
C2115 C2116 1.383 . S
C2115 H2123 0.929 . S
C2116 C2115 1.383 . S
C2116 C2117 1.377 . S
C2117 H2101 0.930 . S
C2117 C2116 1.377 . S
C2117 C2118 1.379 . S
C2118 H2102 0.931 . S
C2118 C2112 1.383 . S
C2118 C2117 1.379 . S
H2119 C2113 0.959 . S
H2120 C2113 0.961 . S
H2121 C2113 0.960 . S
H2122 C2114 0.930 . S
H2123 C2115 0.929 . S
H2124 C2132 0.929 . S
H2125 C2134 0.930 . S
H2126 C2136 0.930 . S
H2127 C2139 0.929 . S
H2128 C2142 0.930 . S
H2129 C2144 0.960 . S
H2130 C2144 0.960 . S
H2131 C2144 0.960 . S
C2132 H2124 0.929 . S
C2132 C2133 1.377 . S
C2132 C2134 1.384 . S
C2133 C2132 1.377 . S
C2133 C2139 1.390 . S
C2134 H2125 0.930 . S
C2134 C2132 1.384 . S
C2134 C2135 1.372 . S
C2135 C2134 1.372 . S
C2135 C2136 1.400 . S
C2135 C2140 1.490 . S
C2136 H2126 0.930 . S
C2136 C2135 1.400 . S
C2136 C2139 1.386 . S
H2137 C2153 0.930 . S
H2138 C2154 0.931 . S
C2139 H2127 0.929 . S
C2139 C2133 1.390 . S
C2139 C2136 1.386 . S
C2140 C2135 1.490 . S
C2140 C2142 1.395 . S
C2140 C2143 1.403 . S
H2141 C2147 0.930 . S
C2142 H2128 0.930 . S
C2142 C2140 1.395 . S
C2142 C2145 1.403 . S
C2143 C2140 1.403 . S
C2143 C2144 1.524 . S
C2143 C2147 1.400 . S
C2144 H2129 0.960 . S
C2144 H2130 0.960 . S
C2144 H2131 0.960 . S
C2144 C2143 1.524 . S
C2145 C2142 1.403 . S
C2145 C2146 1.392 . S
C2145 C2149 1.495 . S
C2146 C2145 1.392 . S
C2146 C2147 1.385 . S
C2146 C2148 1.478 . S
C2147 H2141 0.930 . S
C2147 C2143 1.400 . S
C2147 C2146 1.385 . S
C2148 C2146 1.478 . S
C2148 C2150 1.381 . S
C2148 C2154 1.383 . S
C2149 C2145 1.495 . S
C2149 H2155 0.959 . S
C2149 H2156 0.961 . S
C2149 H2157 0.960 . S
C2150 C2148 1.381 . S
C2150 C2151 1.394 . S
C2150 H2158 0.930 . S
C2151 C2150 1.394 . S
C2151 C2152 1.383 . S
C2151 H2159 0.929 . S
C2152 C2151 1.383 . S
C2152 C2153 1.377 . S
C2153 H2137 0.930 . S
C2153 C2152 1.377 . S
C2153 C2154 1.379 . S
C2154 H2138 0.931 . S
C2154 C2148 1.383 . S
C2154 C2153 1.379 . S
H2155 C2149 0.959 . S
H2156 C2149 0.961 . S
H2157 C2149 0.960 . S
H2158 C2150 0.930 . S
H2159 C2151 0.929 . S
H2160 C2168 0.929 . S
H2161 C2170 0.930 . S
H2162 C2172 0.930 . S
H2163 C2175 0.929 . S
H2164 C2178 0.930 . S
H2165 C2180 0.960 . S
H2166 C2180 0.960 . S
H2167 C2180 0.960 . S
C2168 H2160 0.929 . S
C2168 C2169 1.377 . S
C2168 C2170 1.384 . S
C2169 C2168 1.377 . S
C2169 C2175 1.390 . S
C2170 H2161 0.930 . S
C2170 C2168 1.384 . S
C2170 C2171 1.372 . S
C2171 C2170 1.372 . S
C2171 C2172 1.400 . S
C2171 C2176 1.490 . S
C2172 H2162 0.930 . S
C2172 C2171 1.400 . S
C2172 C2175 1.386 . S
H2173 C2189 0.930 . S
H2174 C2190 0.931 . S
C2175 H2163 0.929 . S
C2175 C2169 1.390 . S
C2175 C2172 1.386 . S
C2176 C2171 1.490 . S
C2176 C2178 1.395 . S
C2176 C2179 1.403 . S
H2177 C2183 0.930 . S
C2178 H2164 0.930 . S
C2178 C2176 1.395 . S
C2178 C2181 1.403 . S
C2179 C2176 1.403 . S
C2179 C2180 1.524 . S
C2179 C2183 1.400 . S
C2180 H2165 0.960 . S
C2180 H2166 0.960 . S
C2180 H2167 0.960 . S
C2180 C2179 1.524 . S
C2181 C2178 1.403 . S
C2181 C2182 1.392 . S
C2181 C2185 1.495 . S
C2182 C2181 1.392 . S
C2182 C2183 1.385 . S
C2182 C2184 1.478 . S
C2183 H2177 0.930 . S
C2183 C2179 1.400 . S
C2183 C2182 1.385 . S
C2184 C2182 1.478 . S
C2184 C2186 1.381 . S
C2184 C2190 1.383 . S
C2185 C2181 1.495 . S
C2185 H2191 0.959 . S
C2185 H2192 0.961 . S
C2185 H2193 0.960 . S
C2186 C2184 1.381 . S
C2186 C2187 1.394 . S
C2186 H2194 0.930 . S
C2187 C2186 1.394 . S
C2187 C2188 1.383 . S
C2187 H2195 0.929 . S
C2188 C2187 1.383 . S
C2188 C2189 1.377 . S
C2189 H2173 0.930 . S
C2189 C2188 1.377 . S
C2189 C2190 1.379 . S
C2190 H2174 0.931 . S
C2190 C2184 1.383 . S
C2190 C2189 1.379 . S
H2191 C2185 0.959 . S
H2192 C2185 0.961 . S
H2193 C2185 0.960 . S
H2194 C2186 0.930 . S
H2195 C2187 0.929 . S
H2196 C2204 0.929 . S
H2197 C2206 0.930 . S
H2198 C2208 0.930 . S
H2199 C2211 0.929 . S
H2200 C2214 0.930 . S
H2201 C2216 0.960 . S
H2202 C2216 0.960 . S
H2203 C2216 0.960 . S
C2204 H2196 0.929 . S
C2204 C2205 1.377 . S
C2204 C2206 1.384 . S
C2205 C2204 1.377 . S
C2205 C2211 1.390 . S
C2206 H2197 0.930 . S
C2206 C2204 1.384 . S
C2206 C2207 1.372 . S
C2207 C2206 1.372 . S
C2207 C2208 1.400 . S
C2207 C2212 1.490 . S
C2208 H2198 0.930 . S
C2208 C2207 1.400 . S
C2208 C2211 1.386 . S
H2209 C2225 0.930 . S
H2210 C2226 0.931 . S
C2211 H2199 0.929 . S
C2211 C2205 1.390 . S
C2211 C2208 1.386 . S
C2212 C2207 1.490 . S
C2212 C2214 1.395 . S
C2212 C2215 1.403 . S
H2213 C2219 0.930 . S
C2214 H2200 0.930 . S
C2214 C2212 1.395 . S
C2214 C2217 1.403 . S
C2215 C2212 1.403 . S
C2215 C2216 1.524 . S
C2215 C2219 1.400 . S
C2216 H2201 0.960 . S
C2216 H2202 0.960 . S
C2216 H2203 0.960 . S
C2216 C2215 1.524 . S
C2217 C2214 1.403 . S
C2217 C2218 1.392 . S
C2217 C2221 1.495 . S
C2218 C2217 1.392 . S
C2218 C2219 1.385 . S
C2218 C2220 1.478 . S
C2219 H2213 0.930 . S
C2219 C2215 1.400 . S
C2219 C2218 1.385 . S
C2220 C2218 1.478 . S
C2220 C2222 1.381 . S
C2220 C2226 1.383 . S
C2221 C2217 1.495 . S
C2221 H2227 0.959 . S
C2221 H2228 0.961 . S
C2221 H2229 0.960 . S
C2222 C2220 1.381 . S
C2222 C2223 1.394 . S
C2222 H2230 0.930 . S
C2223 C2222 1.394 . S
C2223 C2224 1.383 . S
C2223 H2231 0.929 . S
C2224 C2223 1.383 . S
C2224 C2225 1.377 . S
C2225 H2209 0.930 . S
C2225 C2224 1.377 . S
C2225 C2226 1.379 . S
C2226 H2210 0.931 . S
C2226 C2220 1.383 . S
C2226 C2225 1.379 . S
H2227 C2221 0.959 . S
H2228 C2221 0.961 . S
H2229 C2221 0.960 . S
H2230 C2222 0.930 . S
H2231 C2223 0.929 . S
H2232 C2240 0.929 . S
H2233 C2242 0.930 . S
H2234 C2244 0.930 . S
H2235 C2247 0.929 . S
H2236 C2250 0.930 . S
H2237 C2252 0.960 . S
H2238 C2252 0.960 . S
H2239 C2252 0.960 . S
C2240 H2232 0.929 . S
C2240 C2241 1.377 . S
C2240 C2242 1.384 . S
C2241 C2240 1.377 . S
C2241 C2247 1.390 . S
C2242 H2233 0.930 . S
C2242 C2240 1.384 . S
C2242 C2243 1.372 . S
C2243 C2242 1.372 . S
C2243 C2244 1.400 . S
C2243 C2248 1.490 . S
C2244 H2234 0.930 . S
C2244 C2243 1.400 . S
C2244 C2247 1.386 . S
H2245 C2261 0.930 . S
H2246 C2262 0.931 . S
C2247 H2235 0.929 . S
C2247 C2241 1.390 . S
C2247 C2244 1.386 . S
C2248 C2243 1.490 . S
C2248 C2250 1.395 . S
C2248 C2251 1.403 . S
H2249 C2255 0.930 . S
C2250 H2236 0.930 . S
C2250 C2248 1.395 . S
C2250 C2253 1.403 . S
C2251 C2248 1.403 . S
C2251 C2252 1.524 . S
C2251 C2255 1.400 . S
C2252 H2237 0.960 . S
C2252 H2238 0.960 . S
C2252 H2239 0.960 . S
C2252 C2251 1.524 . S
C2253 C2250 1.403 . S
C2253 C2254 1.392 . S
C2253 C2257 1.495 . S
C2254 C2253 1.392 . S
C2254 C2255 1.385 . S
C2254 C2256 1.478 . S
C2255 H2249 0.930 . S
C2255 C2251 1.400 . S
C2255 C2254 1.385 . S
C2256 C2254 1.478 . S
C2256 C2258 1.381 . S
C2256 C2262 1.383 . S
C2257 C2253 1.495 . S
C2257 H2263 0.959 . S
C2257 H2264 0.961 . S
C2257 H2265 0.960 . S
C2258 C2256 1.381 . S
C2258 C2259 1.394 . S
C2258 H2266 0.930 . S
C2259 C2258 1.394 . S
C2259 C2260 1.383 . S
C2259 H2267 0.929 . S
C2260 C2259 1.383 . S
C2260 C2261 1.377 . S
C2261 H2245 0.930 . S
C2261 C2260 1.377 . S
C2261 C2262 1.379 . S
C2262 H2246 0.931 . S
C2262 C2256 1.383 . S
C2262 C2261 1.379 . S
H2263 C2257 0.959 . S
H2264 C2257 0.961 . S
H2265 C2257 0.960 . S
H2266 C2258 0.930 . S
H2267 C2259 0.929 . S
H2268 C2276 0.929 . S
H2269 C2278 0.930 . S
H2270 C2280 0.930 . S
H2271 C2283 0.929 . S
H2272 C2286 0.930 . S
H2273 C2288 0.960 . S
H2274 C2288 0.960 . S
H2275 C2288 0.960 . S
C2276 H2268 0.929 . S
C2276 C2277 1.377 . S
C2276 C2278 1.384 . S
C2277 C2276 1.377 . S
C2277 C2283 1.390 . S
C2278 H2269 0.930 . S
C2278 C2276 1.384 . S
C2278 C2279 1.372 . S
C2279 C2278 1.372 . S
C2279 C2280 1.400 . S
C2279 C2284 1.490 . S
C2280 H2270 0.930 . S
C2280 C2279 1.400 . S
C2280 C2283 1.386 . S
H2281 C2297 0.930 . S
H2282 C2298 0.931 . S
C2283 H2271 0.929 . S
C2283 C2277 1.390 . S
C2283 C2280 1.386 . S
C2284 C2279 1.490 . S
C2284 C2286 1.395 . S
C2284 C2287 1.403 . S
H2285 C2291 0.930 . S
C2286 H2272 0.930 . S
C2286 C2284 1.395 . S
C2286 C2289 1.403 . S
C2287 C2284 1.403 . S
C2287 C2288 1.524 . S
C2287 C2291 1.400 . S
C2288 H2273 0.960 . S
C2288 H2274 0.960 . S
C2288 H2275 0.960 . S
C2288 C2287 1.524 . S
C2289 C2286 1.403 . S
C2289 C2290 1.392 . S
C2289 C2293 1.495 . S
C2290 C2289 1.392 . S
C2290 C2291 1.385 . S
C2290 C2292 1.478 . S
C2291 H2285 0.930 . S
C2291 C2287 1.400 . S
C2291 C2290 1.385 . S
C2292 C2290 1.478 . S
C2292 C2294 1.381 . S
C2292 C2298 1.383 . S
C2293 C2289 1.495 . S
C2293 H2299 0.959 . S
C2293 H2300 0.961 . S
C2293 H2301 0.960 . S
C2294 C2292 1.381 . S
C2294 C2295 1.394 . S
C2294 H2302 0.930 . S
C2295 C2294 1.394 . S
C2295 C2296 1.383 . S
C2295 H2303 0.929 . S
C2296 C2295 1.383 . S
C2296 C2297 1.377 . S
C2297 H2281 0.930 . S
C2297 C2296 1.377 . S
C2297 C2298 1.379 . S
C2298 H2282 0.931 . S
C2298 C2292 1.383 . S
C2298 C2297 1.379 . S
H2299 C2293 0.959 . S
H2300 C2293 0.961 . S
H2301 C2293 0.960 . S
H2302 C2294 0.930 . S
H2303 C2295 0.929 . S
H2304 C2312 0.929 . S
H2305 C2314 0.930 . S
H2306 C2316 0.930 . S
H2307 C2319 0.929 . S
H2308 C2322 0.930 . S
H2309 C2324 0.960 . S
H2310 C2324 0.960 . S
H2311 C2324 0.960 . S
C2312 H2304 0.929 . S
C2312 C2313 1.377 . S
C2312 C2314 1.384 . S
C2313 C2312 1.377 . S
C2313 C2319 1.390 . S
C2314 H2305 0.930 . S
C2314 C2312 1.384 . S
C2314 C2315 1.372 . S
C2315 C2314 1.372 . S
C2315 C2316 1.400 . S
C2315 C2320 1.490 . S
C2316 H2306 0.930 . S
C2316 C2315 1.400 . S
C2316 C2319 1.386 . S
H2317 C2333 0.930 . S
H2318 C2334 0.931 . S
C2319 H2307 0.929 . S
C2319 C2313 1.390 . S
C2319 C2316 1.386 . S
C2320 C2315 1.490 . S
C2320 C2322 1.395 . S
C2320 C2323 1.403 . S
H2321 C2327 0.930 . S
C2322 H2308 0.930 . S
C2322 C2320 1.395 . S
C2322 C2325 1.403 . S
C2323 C2320 1.403 . S
C2323 C2324 1.524 . S
C2323 C2327 1.400 . S
C2324 H2309 0.960 . S
C2324 H2310 0.960 . S
C2324 H2311 0.960 . S
C2324 C2323 1.524 . S
C2325 C2322 1.403 . S
C2325 C2326 1.392 . S
C2325 C2329 1.495 . S
C2326 C2325 1.392 . S
C2326 C2327 1.385 . S
C2326 C2328 1.478 . S
C2327 H2321 0.930 . S
C2327 C2323 1.400 . S
C2327 C2326 1.385 . S
C2328 C2326 1.478 . S
C2328 C2330 1.381 . S
C2328 C2334 1.383 . S
C2329 C2325 1.495 . S
C2329 H2335 0.959 . S
C2329 H2336 0.961 . S
C2329 H2337 0.960 . S
C2330 C2328 1.381 . S
C2330 C2331 1.394 . S
C2330 H2338 0.930 . S
C2331 C2330 1.394 . S
C2331 C2332 1.383 . S
C2331 H2339 0.929 . S
C2332 C2331 1.383 . S
C2332 C2333 1.377 . S
C2333 H2317 0.930 . S
C2333 C2332 1.377 . S
C2333 C2334 1.379 . S
C2334 H2318 0.931 . S
C2334 C2328 1.383 . S
C2334 C2333 1.379 . S
H2335 C2329 0.959 . S
H2336 C2329 0.961 . S
H2337 C2329 0.960 . S
H2338 C2330 0.930 . S
H2339 C2331 0.929 . S
H2340 C2348 0.929 . S
H2341 C2350 0.930 . S
H2342 C2352 0.930 . S
H2343 C2355 0.929 . S
H2344 C2358 0.930 . S
H2345 C2360 0.960 . S
H2346 C2360 0.960 . S
H2347 C2360 0.960 . S
C2348 H2340 0.929 . S
C2348 C2349 1.377 . S
C2348 C2350 1.384 . S
C2349 C2348 1.377 . S
C2349 C2355 1.390 . S
C2350 H2341 0.930 . S
C2350 C2348 1.384 . S
C2350 C2351 1.372 . S
C2351 C2350 1.372 . S
C2351 C2352 1.400 . S
C2351 C2356 1.490 . S
C2352 H2342 0.930 . S
C2352 C2351 1.400 . S
C2352 C2355 1.386 . S
H2353 C2369 0.930 . S
H2354 C2370 0.931 . S
C2355 H2343 0.929 . S
C2355 C2349 1.390 . S
C2355 C2352 1.386 . S
C2356 C2351 1.490 . S
C2356 C2358 1.395 . S
C2356 C2359 1.403 . S
H2357 C2363 0.930 . S
C2358 H2344 0.930 . S
C2358 C2356 1.395 . S
C2358 C2361 1.403 . S
C2359 C2356 1.403 . S
C2359 C2360 1.524 . S
C2359 C2363 1.400 . S
C2360 H2345 0.960 . S
C2360 H2346 0.960 . S
C2360 H2347 0.960 . S
C2360 C2359 1.524 . S
C2361 C2358 1.403 . S
C2361 C2362 1.392 . S
C2361 C2365 1.495 . S
C2362 C2361 1.392 . S
C2362 C2363 1.385 . S
C2362 C2364 1.478 . S
C2363 H2357 0.930 . S
C2363 C2359 1.400 . S
C2363 C2362 1.385 . S
C2364 C2362 1.478 . S
C2364 C2366 1.381 . S
C2364 C2370 1.383 . S
C2365 C2361 1.495 . S
C2365 H2371 0.959 . S
C2365 H2372 0.961 . S
C2365 H2373 0.960 . S
C2366 C2364 1.381 . S
C2366 C2367 1.394 . S
C2366 H2374 0.930 . S
C2367 C2366 1.394 . S
C2367 C2368 1.383 . S
C2367 H2375 0.929 . S
C2368 C2367 1.383 . S
C2368 C2369 1.377 . S
C2369 H2353 0.930 . S
C2369 C2368 1.377 . S
C2369 C2370 1.379 . S
C2370 H2354 0.931 . S
C2370 C2364 1.383 . S
C2370 C2369 1.379 . S
H2371 C2365 0.959 . S
H2372 C2365 0.961 . S
H2373 C2365 0.960 . S
H2374 C2366 0.930 . S
H2375 C2367 0.929 . S
H2376 C2384 0.929 . S
H2377 C2386 0.930 . S
H2378 C2388 0.930 . S
H2379 C2391 0.929 . S
H2380 C2394 0.930 . S
H2381 C2396 0.960 . S
H2382 C2396 0.960 . S
H2383 C2396 0.960 . S
C2384 H2376 0.929 . S
C2384 C2385 1.377 . S
C2384 C2386 1.384 . S
C2385 C2384 1.377 . S
C2385 C2391 1.390 . S
C2386 H2377 0.930 . S
C2386 C2384 1.384 . S
C2386 C2387 1.372 . S
C2387 C2386 1.372 . S
C2387 C2388 1.400 . S
C2387 C2392 1.490 . S
C2388 H2378 0.930 . S
C2388 C2387 1.400 . S
C2388 C2391 1.386 . S
H2389 C2405 0.930 . S
H2390 C2406 0.931 . S
C2391 H2379 0.929 . S
C2391 C2385 1.390 . S
C2391 C2388 1.386 . S
C2392 C2387 1.490 . S
C2392 C2394 1.395 . S
C2392 C2395 1.403 . S
H2393 C2399 0.930 . S
C2394 H2380 0.930 . S
C2394 C2392 1.395 . S
C2394 C2397 1.403 . S
C2395 C2392 1.403 . S
C2395 C2396 1.524 . S
C2395 C2399 1.400 . S
C2396 H2381 0.960 . S
C2396 H2382 0.960 . S
C2396 H2383 0.960 . S
C2396 C2395 1.524 . S
C2397 C2394 1.403 . S
C2397 C2398 1.392 . S
C2397 C2401 1.495 . S
C2398 C2397 1.392 . S
C2398 C2399 1.385 . S
C2398 C2400 1.478 . S
C2399 H2393 0.930 . S
C2399 C2395 1.400 . S
C2399 C2398 1.385 . S
C2400 C2398 1.478 . S
C2400 C2402 1.381 . S
C2400 C2406 1.383 . S
C2401 C2397 1.495 . S
C2401 H2407 0.959 . S
C2401 H2408 0.961 . S
C2401 H2409 0.960 . S
C2402 C2400 1.381 . S
C2402 C2403 1.394 . S
C2402 H2410 0.930 . S
C2403 C2402 1.394 . S
C2403 C2404 1.383 . S
C2403 H2411 0.929 . S
C2404 C2403 1.383 . S
C2404 C2405 1.377 . S
C2405 H2389 0.930 . S
C2405 C2404 1.377 . S
C2405 C2406 1.379 . S
C2406 H2390 0.931 . S
C2406 C2400 1.383 . S
C2406 C2405 1.379 . S
H2407 C2401 0.959 . S
H2408 C2401 0.961 . S
H2409 C2401 0.960 . S
H2410 C2402 0.930 . S
H2411 C2403 0.929 . S
H2412 C2420 0.929 . S
H2413 C2422 0.930 . S
H2414 C2424 0.930 . S
H2415 C2427 0.929 . S
H2416 C2430 0.930 . S
H2417 C2432 0.960 . S
H2418 C2432 0.960 . S
H2419 C2432 0.960 . S
C2420 H2412 0.929 . S
C2420 C2421 1.377 . S
C2420 C2422 1.384 . S
C2421 C2420 1.377 . S
C2421 C2427 1.390 . S
C2422 H2413 0.930 . S
C2422 C2420 1.384 . S
C2422 C2423 1.372 . S
C2423 C2422 1.372 . S
C2423 C2424 1.400 . S
C2423 C2428 1.490 . S
C2424 H2414 0.930 . S
C2424 C2423 1.400 . S
C2424 C2427 1.386 . S
H2425 C2441 0.930 . S
H2426 C2442 0.931 . S
C2427 H2415 0.929 . S
C2427 C2421 1.390 . S
C2427 C2424 1.386 . S
C2428 C2423 1.490 . S
C2428 C2430 1.395 . S
C2428 C2431 1.403 . S
H2429 C2435 0.930 . S
C2430 H2416 0.930 . S
C2430 C2428 1.395 . S
C2430 C2433 1.403 . S
C2431 C2428 1.403 . S
C2431 C2432 1.524 . S
C2431 C2435 1.400 . S
C2432 H2417 0.960 . S
C2432 H2418 0.960 . S
C2432 H2419 0.960 . S
C2432 C2431 1.524 . S
C2433 C2430 1.403 . S
C2433 C2434 1.392 . S
C2433 C2437 1.495 . S
C2434 C2433 1.392 . S
C2434 C2435 1.385 . S
C2434 C2436 1.478 . S
C2435 H2429 0.930 . S
C2435 C2431 1.400 . S
C2435 C2434 1.385 . S
C2436 C2434 1.478 . S
C2436 C2438 1.381 . S
C2436 C2442 1.383 . S
C2437 C2433 1.495 . S
C2437 H2443 0.959 . S
C2437 H2444 0.961 . S
C2437 H2445 0.960 . S
C2438 C2436 1.381 . S
C2438 C2439 1.394 . S
C2438 H2446 0.930 . S
C2439 C2438 1.394 . S
C2439 C2440 1.383 . S
C2439 H2447 0.929 . S
C2440 C2439 1.383 . S
C2440 C2441 1.377 . S
C2441 H2425 0.930 . S
C2441 C2440 1.377 . S
C2441 C2442 1.379 . S
C2442 H2426 0.931 . S
C2442 C2436 1.383 . S
C2442 C2441 1.379 . S
H2443 C2437 0.959 . S
H2444 C2437 0.961 . S
H2445 C2437 0.960 . S
H2446 C2438 0.930 . S
H2447 C2439 0.929 . S
H2448 C2456 0.929 . S
H2449 C2458 0.930 . S
H2450 C2460 0.930 . S
H2451 C2463 0.929 . S
H2452 C2466 0.930 . S
H2453 C2468 0.960 . S
H2454 C2468 0.960 . S
H2455 C2468 0.960 . S
C2456 H2448 0.929 . S
C2456 C2457 1.377 . S
C2456 C2458 1.384 . S
C2457 C2456 1.377 . S
C2457 C2463 1.390 . S
C2458 H2449 0.930 . S
C2458 C2456 1.384 . S
C2458 C2459 1.372 . S
C2459 C2458 1.372 . S
C2459 C2460 1.400 . S
C2459 C2464 1.490 . S
C2460 H2450 0.930 . S
C2460 C2459 1.400 . S
C2460 C2463 1.386 . S
H2461 C2477 0.930 . S
H2462 C2478 0.931 . S
C2463 H2451 0.929 . S
C2463 C2457 1.390 . S
C2463 C2460 1.386 . S
C2464 C2459 1.490 . S
C2464 C2466 1.395 . S
C2464 C2467 1.403 . S
H2465 C2471 0.930 . S
C2466 H2452 0.930 . S
C2466 C2464 1.395 . S
C2466 C2469 1.403 . S
C2467 C2464 1.403 . S
C2467 C2468 1.524 . S
C2467 C2471 1.400 . S
C2468 H2453 0.960 . S
C2468 H2454 0.960 . S
C2468 H2455 0.960 . S
C2468 C2467 1.524 . S
C2469 C2466 1.403 . S
C2469 C2470 1.392 . S
C2469 C2473 1.495 . S
C2470 C2469 1.392 . S
C2470 C2471 1.385 . S
C2470 C2472 1.478 . S
C2471 H2465 0.930 . S
C2471 C2467 1.400 . S
C2471 C2470 1.385 . S
C2472 C2470 1.478 . S
C2472 C2474 1.381 . S
C2472 C2478 1.383 . S
C2473 C2469 1.495 . S
C2473 H2479 0.959 . S
C2473 H2480 0.961 . S
C2473 H2481 0.960 . S
C2474 C2472 1.381 . S
C2474 C2475 1.394 . S
C2474 H2482 0.930 . S
C2475 C2474 1.394 . S
C2475 C2476 1.383 . S
C2475 H2483 0.929 . S
C2476 C2475 1.383 . S
C2476 C2477 1.377 . S
C2477 H2461 0.930 . S
C2477 C2476 1.377 . S
C2477 C2478 1.379 . S
C2478 H2462 0.931 . S
C2478 C2472 1.383 . S
C2478 C2477 1.379 . S
H2479 C2473 0.959 . S
H2480 C2473 0.961 . S
H2481 C2473 0.960 . S
H2482 C2474 0.930 . S
H2483 C2475 0.929 . S
H2484 C2492 0.929 . S
H2485 C2494 0.930 . S
H2486 C2496 0.930 . S
H2487 C2499 0.929 1_565 S
H2488 C2502 0.920 . S
H2489 C2504 0.960 . S
H2490 C2504 0.960 . S
H2491 C2504 0.960 . S
C2492 H2484 0.929 . S
C2492 C2493 1.377 . S
C2492 C2494 1.384 . S
C2493 C2492 1.377 . S
C2493 C2499 1.390 . S
C2494 H2485 0.930 . S
C2494 C2492 1.384 . S
C2494 C2495 1.372 . S
C2495 C2494 1.372 . S
C2495 C2496 1.400 1_545 S
C2495 C2500 1.490 . S
C2496 H2486 0.930 . S
C2496 C2495 1.400 1_565 S
C2496 C2499 1.386 1_565 S
H2497 C2513 0.930 . S
H2498 C2514 0.931 . S
C2499 H2487 0.929 1_545 S
C2499 C2493 1.390 . S
C2499 C2496 1.386 1_545 S
C2500 C2495 1.490 . S
C2500 C2502 1.381 . S
C2500 C2503 1.403 . S
H2501 C2507 0.927 1_565 S
C2502 H2488 0.920 . S
C2502 C2500 1.381 . S
C2502 C2505 1.396 1_545 S
C2503 C2500 1.403 . S
C2503 C2504 1.524 . S
C2503 C2507 1.400 . S
C2504 H2489 0.960 . S
C2504 H2490 0.960 . S
C2504 H2491 0.960 . S
C2504 C2503 1.524 . S
C2505 C2502 1.396 1_565 S
C2505 C2506 1.392 . S
C2505 C2509 1.495 . S
C2506 C2505 1.392 . S
C2506 C2507 1.386 1_565 S
C2506 C2508 1.478 . S
C2507 H2501 0.927 1_545 S
C2507 C2503 1.400 . S
C2507 C2506 1.386 1_545 S
C2508 C2506 1.478 . S
C2508 C2510 1.381 1_565 S
C2508 C2514 1.383 . S
C2509 C2505 1.495 . S
C2509 H2515 0.959 . S
C2509 H2516 0.961 . S
C2509 H2517 0.939 1_565 S
C2510 C2508 1.381 1_545 S
C2510 C2511 1.390 1_545 S
C2510 H2518 0.930 . S
C2511 C2510 1.390 1_565 S
C2511 C2512 1.407 . S
C2511 H2519 0.911 1_565 S
C2512 C2511 1.407 . S
C2512 C2513 1.377 . S
C2513 H2497 0.930 . S
C2513 C2512 1.377 . S
C2513 C2514 1.379 . S
C2514 H2498 0.931 . S
C2514 C2508 1.383 . S
C2514 C2513 1.379 . S
H2515 C2509 0.959 . S
H2516 C2509 0.961 . S
H2517 C2509 0.939 1_545 S
H2518 C2510 0.930 . S
H2519 C2511 0.911 1_545 S
H2520 C2528 0.929 . S
H2521 C2530 0.930 . S
H2522 C2532 0.930 . S
H2523 C2535 0.929 1_655 S
H2524 C2538 0.930 . S
H2525 C2540 0.960 . S
H2526 C2540 0.960 . S
H2527 C2540 0.960 . S
C2528 H2520 0.929 . S
C2528 C2529 1.377 . S
C2528 C2530 1.384 . S
C2529 C2528 1.377 . S
C2529 C2535 1.390 . S
C2530 H2521 0.930 . S
C2530 C2528 1.384 . S
C2530 C2531 1.372 . S
C2531 C2530 1.372 . S
C2531 C2532 1.400 1_455 S
C2531 C2536 1.490 . S
C2532 H2522 0.930 . S
C2532 C2531 1.400 1_655 S
C2532 C2535 1.386 1_655 S
H2533 C2549 0.930 . S
H2534 C2550 0.931 . S
C2535 H2523 0.929 1_455 S
C2535 C2529 1.390 . S
C2535 C2532 1.386 1_455 S
C2536 C2531 1.490 . S
C2536 C2538 1.395 . S
C2536 C2539 1.403 1_455 S
H2537 C2543 0.930 . S
C2538 H2524 0.930 . S
C2538 C2536 1.395 . S
C2538 C2541 1.403 . S
C2539 C2536 1.403 1_655 S
C2539 C2540 1.524 . S
C2539 C2543 1.400 . S
C2540 H2525 0.960 . S
C2540 H2526 0.960 . S
C2540 H2527 0.960 . S
C2540 C2539 1.524 . S
C2541 C2538 1.403 . S
C2541 C2542 1.375 1_455 S
C2541 C2545 1.495 . S
C2542 C2541 1.375 1_655 S
C2542 C2543 1.400 . S
C2542 C2544 1.481 . S
C2543 H2537 0.930 . S
C2543 C2539 1.400 . S
C2543 C2542 1.400 . S
C2544 C2542 1.481 . S
C2544 C2546 1.381 1_655 S
C2544 C2550 1.383 . S
C2545 C2541 1.495 . S
C2545 H2551 0.959 . S
C2545 H2552 0.961 . S
C2545 H2553 0.960 . S
C2546 C2544 1.381 1_455 S
C2546 C2547 1.394 1_455 S
C2546 H2554 0.930 . S
C2547 C2546 1.394 1_655 S
C2547 C2548 1.383 . S
C2547 H2555 0.929 1_655 S
C2548 C2547 1.383 . S
C2548 C2549 1.377 . S
C2549 H2533 0.930 . S
C2549 C2548 1.377 . S
C2549 C2550 1.379 . S
C2550 H2534 0.931 . S
C2550 C2544 1.383 . S
C2550 C2549 1.379 . S
H2551 C2545 0.959 . S
H2552 C2545 0.961 . S
H2553 C2545 0.960 . S
H2554 C2546 0.930 . S
H2555 C2547 0.929 1_455 S
H2556 C2564 0.929 . S
H2557 C2566 0.930 . S
H2558 C2568 0.930 . S
H2559 C2571 0.929 . S
H2560 C2574 0.930 . S
H2561 C2576 0.960 . S
H2562 C2576 0.960 . S
H2563 C2576 0.960 . S
C2564 H2556 0.929 . S
C2564 C2565 1.377 . S
C2564 C2566 1.384 . S
C2565 C2564 1.377 . S
C2565 C2571 1.390 . S
C2566 H2557 0.930 . S
C2566 C2564 1.384 . S
C2566 C2567 1.372 . S
C2567 C2566 1.372 . S
C2567 C2568 1.400 . S
C2567 C2572 1.490 . S
C2568 H2558 0.930 . S
C2568 C2567 1.400 . S
C2568 C2571 1.386 . S
H2569 C2585 0.930 . S
H2570 C2586 0.931 . S
C2571 H2559 0.929 . S
C2571 C2565 1.390 . S
C2571 C2568 1.386 . S
C2572 C2567 1.490 . S
C2572 C2574 1.395 . S
C2572 C2575 1.403 . S
H2573 C2579 0.930 . S
C2574 H2560 0.930 . S
C2574 C2572 1.395 . S
C2574 C2577 1.403 . S
C2575 C2572 1.403 . S
C2575 C2576 1.524 . S
C2575 C2579 1.400 . S
C2576 H2561 0.960 . S
C2576 H2562 0.960 . S
C2576 H2563 0.960 . S
C2576 C2575 1.524 . S
C2577 C2574 1.403 . S
C2577 C2578 1.392 . S
C2577 C2581 1.495 . S
C2578 C2577 1.392 . S
C2578 C2579 1.385 . S
C2578 C2580 1.478 . S
C2579 H2573 0.930 . S
C2579 C2575 1.400 . S
C2579 C2578 1.385 . S
C2580 C2578 1.478 . S
C2580 C2582 1.381 . S
C2580 C2586 1.383 . S
C2581 C2577 1.495 . S
C2581 H2587 0.959 . S
C2581 H2588 0.961 . S
C2581 H2589 0.960 . S
C2582 C2580 1.381 . S
C2582 C2583 1.394 . S
C2582 H2590 0.930 . S
C2583 C2582 1.394 . S
C2583 C2584 1.383 . S
C2583 H2591 0.929 . S
C2584 C2583 1.383 . S
C2584 C2585 1.377 . S
C2585 H2569 0.930 . S
C2585 C2584 1.377 . S
C2585 C2586 1.379 . S
C2586 H2570 0.931 . S
C2586 C2580 1.383 . S
C2586 C2585 1.379 . S
H2587 C2581 0.959 . S
H2588 C2581 0.961 . S
H2589 C2581 0.960 . S
H2590 C2582 0.930 . S
H2591 C2583 0.929 . S
H2592 C2600 0.929 . S
H2593 C2602 0.930 . S
H2594 C2604 0.930 . S
H2595 C2607 0.929 . S
H2596 C2610 0.930 . S
H2597 C2612 0.960 . S
H2598 C2612 0.960 . S
H2599 C2612 0.960 . S
C2600 H2592 0.929 . S
C2600 C2601 1.377 1_565 S
C2600 C2602 1.384 . S
C2601 C2600 1.377 1_545 S
C2601 C2607 1.390 . S
C2602 H2593 0.930 . S
C2602 C2600 1.384 . S
C2602 C2603 1.372 1_565 S
C2603 C2602 1.372 1_545 S
C2603 C2604 1.400 . S
C2603 C2608 1.490 . S
C2604 H2594 0.930 . S
C2604 C2603 1.400 . S
C2604 C2607 1.386 . S
H2605 C2621 0.922 1_545 S
H2606 C2622 0.931 . S
C2607 H2595 0.929 . S
C2607 C2601 1.390 . S
C2607 C2604 1.386 . S
C2608 C2603 1.490 . S
C2608 C2610 1.395 1_545 S
C2608 C2611 1.403 . S
H2609 C2615 0.930 . S
C2610 H2596 0.930 . S
C2610 C2608 1.395 1_565 S
C2610 C2613 1.403 . S
C2611 C2608 1.403 . S
C2611 C2612 1.524 . S
C2611 C2615 1.400 . S
C2612 H2597 0.960 . S
C2612 H2598 0.960 . S
C2612 H2599 0.960 . S
C2612 C2611 1.524 . S
C2613 C2610 1.403 . S
C2613 C2614 1.392 . S
C2613 C2617 1.495 . S
C2614 C2613 1.392 . S
C2614 C2615 1.385 1_565 S
C2614 C2616 1.478 . S
C2615 H2609 0.930 . S
C2615 C2611 1.400 . S
C2615 C2614 1.385 1_545 S
C2616 C2614 1.478 . S
C2616 C2618 1.381 . S
C2616 C2622 1.383 1_565 S
C2617 C2613 1.495 . S
C2617 H2623 0.959 . S
C2617 H2624 0.961 . S
C2617 H2625 0.960 . S
C2618 C2616 1.381 . S
C2618 C2619 1.394 . S
C2618 H2626 0.930 . S
C2619 C2618 1.394 . S
C2619 C2620 1.383 . S
C2619 H2627 0.929 . S
C2620 C2619 1.383 . S
C2620 C2621 1.386 . S
C2621 H2605 0.922 1_565 S
C2621 C2620 1.386 . S
C2621 C2622 1.378 1_565 S
C2622 H2606 0.931 . S
C2622 C2616 1.383 1_545 S
C2622 C2621 1.378 1_545 S
H2623 C2617 0.959 . S
H2624 C2617 0.961 . S
H2625 C2617 0.960 . S
H2626 C2618 0.930 . S
H2627 C2619 0.929 . S
H2628 C2636 0.929 . S
H2629 C2638 0.930 . S
H2630 C2640 0.930 1_455 S
H2631 C2643 0.929 . S
H2632 C2646 0.930 . S
H2633 C2648 0.960 . S
H2634 C2648 0.960 . S
H2635 C2648 0.960 . S
C2636 H2628 0.929 . S
C2636 C2637 1.377 . S
C2636 C2638 1.384 . S
C2637 C2636 1.377 . S
C2637 C2643 1.390 . S
C2638 H2629 0.930 . S
C2638 C2636 1.384 . S
C2638 C2639 1.372 . S
C2639 C2638 1.372 . S
C2639 C2640 1.400 . S
C2639 C2644 1.490 . S
C2640 H2630 0.930 1_655 S
C2640 C2639 1.400 . S
C2640 C2643 1.386 . S
H2641 C2657 0.930 . S
H2642 C2658 0.931 . S
C2643 H2631 0.929 . S
C2643 C2637 1.390 . S
C2643 C2640 1.386 . S
C2644 C2639 1.490 . S
C2644 C2646 1.395 . S
C2644 C2647 1.403 1_655 S
H2645 C2651 0.930 . S
C2646 H2632 0.930 . S
C2646 C2644 1.395 . S
C2646 C2649 1.403 . S
C2647 C2644 1.403 1_455 S
C2647 C2648 1.524 . S
C2647 C2651 1.400 . S
C2648 H2633 0.960 . S
C2648 H2634 0.960 . S
C2648 H2635 0.960 . S
C2648 C2647 1.524 . S
C2649 C2646 1.403 . S
C2649 C2650 1.376 1_655 S
C2649 C2653 1.495 . S
C2650 C2649 1.376 1_455 S
C2650 C2651 1.399 . S
C2650 C2652 1.481 . S
C2651 H2645 0.930 . S
C2651 C2647 1.400 . S
C2651 C2650 1.399 . S
C2652 C2650 1.481 . S
C2652 C2654 1.381 . S
C2652 C2658 1.383 . S
C2653 C2649 1.495 . S
C2653 H2659 0.959 . S
C2653 H2660 0.961 . S
C2653 H2661 0.960 . S
C2654 C2652 1.381 . S
C2654 C2655 1.394 . S
C2654 H2662 0.930 1_455 S
C2655 C2654 1.394 . S
C2655 C2656 1.383 . S
C2655 H2663 0.929 . S
C2656 C2655 1.383 . S
C2656 C2657 1.377 . S
C2657 H2641 0.930 . S
C2657 C2656 1.377 . S
C2657 C2658 1.379 . S
C2658 H2642 0.931 . S
C2658 C2652 1.383 . S
C2658 C2657 1.379 . S
H2659 C2653 0.959 . S
H2660 C2653 0.961 . S
H2661 C2653 0.960 . S
H2662 C2654 0.930 1_655 S
H2663 C2655 0.929 . S
H2664 C2672 0.929 . S
H2665 C2674 0.930 . S
H2666 C2676 0.930 . S
H2667 C2679 0.929 . S
H2668 C2682 0.930 . S
H2669 C2684 0.960 . S
H2670 C2684 0.960 . S
H2671 C2684 0.960 . S
C2672 H2664 0.929 . S
C2672 C2673 1.377 . S
C2672 C2674 1.384 . S
C2673 C2672 1.377 . S
C2673 C2679 1.390 . S
C2674 H2665 0.930 . S
C2674 C2672 1.384 . S
C2674 C2675 1.372 . S
C2675 C2674 1.372 . S
C2675 C2676 1.400 . S
C2675 C2680 1.490 . S
C2676 H2666 0.930 . S
C2676 C2675 1.400 . S
C2676 C2679 1.386 . S
H2677 C2693 0.930 . S
H2678 C2694 0.931 . S
C2679 H2667 0.929 . S
C2679 C2673 1.390 . S
C2679 C2676 1.386 . S
C2680 C2675 1.490 . S
C2680 C2682 1.395 . S
C2680 C2683 1.403 . S
H2681 C2687 0.930 . S
C2682 H2668 0.930 . S
C2682 C2680 1.395 . S
C2682 C2685 1.403 . S
C2683 C2680 1.403 . S
C2683 C2684 1.524 . S
C2683 C2687 1.400 . S
C2684 H2669 0.960 . S
C2684 H2670 0.960 . S
C2684 H2671 0.960 . S
C2684 C2683 1.524 . S
C2685 C2682 1.403 . S
C2685 C2686 1.392 . S
C2685 C2689 1.495 . S
C2686 C2685 1.392 . S
C2686 C2687 1.385 . S
C2686 C2688 1.478 . S
C2687 H2681 0.930 . S
C2687 C2683 1.400 . S
C2687 C2686 1.385 . S
C2688 C2686 1.478 . S
C2688 C2690 1.381 . S
C2688 C2694 1.383 . S
C2689 C2685 1.495 . S
C2689 H2695 0.959 . S
C2689 H2696 0.961 . S
C2689 H2697 0.960 . S
C2690 C2688 1.381 . S
C2690 C2691 1.394 . S
C2690 H2698 0.930 . S
C2691 C2690 1.394 . S
C2691 C2692 1.383 . S
C2691 H2699 0.929 . S
C2692 C2691 1.383 . S
C2692 C2693 1.377 . S
C2693 H2677 0.930 . S
C2693 C2692 1.377 . S
C2693 C2694 1.379 . S
C2694 H2678 0.931 . S
C2694 C2688 1.383 . S
C2694 C2693 1.379 . S
H2695 C2689 0.959 . S
H2696 C2689 0.961 . S
H2697 C2689 0.960 . S
H2698 C2690 0.930 . S
H2699 C2691 0.929 . S
H2700 C2708 0.929 . S
H2701 C2710 0.930 . S
H2702 C2712 0.930 . S
H2703 C2715 0.929 . S
H2704 C2718 0.930 . S
H2705 C2720 0.960 . S
H2706 C2720 0.960 . S
H2707 C2720 0.960 . S
C2708 H2700 0.929 . S
C2708 C2709 1.377 . S
C2708 C2710 1.384 . S
C2709 C2708 1.377 . S
C2709 C2715 1.390 . S
C2710 H2701 0.930 . S
C2710 C2708 1.384 . S
C2710 C2711 1.372 . S
C2711 C2710 1.372 . S
C2711 C2712 1.400 . S
C2711 C2716 1.490 . S
C2712 H2702 0.930 . S
C2712 C2711 1.400 . S
C2712 C2715 1.386 . S
H2713 C2729 0.930 . S
H2714 C2730 0.931 . S
C2715 H2703 0.929 . S
C2715 C2709 1.390 . S
C2715 C2712 1.386 . S
C2716 C2711 1.490 . S
C2716 C2718 1.395 . S
C2716 C2719 1.403 . S
H2717 C2723 0.930 . S
C2718 H2704 0.930 . S
C2718 C2716 1.395 . S
C2718 C2721 1.403 . S
C2719 C2716 1.403 . S
C2719 C2720 1.524 . S
C2719 C2723 1.400 . S
C2720 H2705 0.960 . S
C2720 H2706 0.960 . S
C2720 H2707 0.960 . S
C2720 C2719 1.524 . S
C2721 C2718 1.403 . S
C2721 C2722 1.392 . S
C2721 C2725 1.495 . S
C2722 C2721 1.392 . S
C2722 C2723 1.385 . S
C2722 C2724 1.478 . S
C2723 H2717 0.930 . S
C2723 C2719 1.400 . S
C2723 C2722 1.385 . S
C2724 C2722 1.478 . S
C2724 C2726 1.381 . S
C2724 C2730 1.383 . S
C2725 C2721 1.495 . S
C2725 H2731 0.959 . S
C2725 H2732 0.961 . S
C2725 H2733 0.960 . S
C2726 C2724 1.381 . S
C2726 C2727 1.394 . S
C2726 H2734 0.930 . S
C2727 C2726 1.394 . S
C2727 C2728 1.383 . S
C2727 H2735 0.929 . S
C2728 C2727 1.383 . S
C2728 C2729 1.377 . S
C2729 H2713 0.930 . S
C2729 C2728 1.377 . S
C2729 C2730 1.379 . S
C2730 H2714 0.931 . S
C2730 C2724 1.383 . S
C2730 C2729 1.379 . S
H2731 C2725 0.959 . S
H2732 C2725 0.961 . S
H2733 C2725 0.960 . S
H2734 C2726 0.930 . S
H2735 C2727 0.929 . S
H2736 C2744 0.929 . S
H2737 C2746 0.930 . S
H2738 C2748 0.930 . S
H2739 C2751 0.929 . S
H2740 C2754 0.930 . S
H2741 C2756 0.960 . S
H2742 C2756 0.960 . S
H2743 C2756 0.960 . S
C2744 H2736 0.929 . S
C2744 C2745 1.377 . S
C2744 C2746 1.384 . S
C2745 C2744 1.377 . S
C2745 C2751 1.390 . S
C2746 H2737 0.930 . S
C2746 C2744 1.384 . S
C2746 C2747 1.372 . S
C2747 C2746 1.372 . S
C2747 C2748 1.400 . S
C2747 C2752 1.490 . S
C2748 H2738 0.930 . S
C2748 C2747 1.400 . S
C2748 C2751 1.386 . S
H2749 C2765 0.930 . S
H2750 C2766 0.931 . S
C2751 H2739 0.929 . S
C2751 C2745 1.390 . S
C2751 C2748 1.386 . S
C2752 C2747 1.490 . S
C2752 C2754 1.395 . S
C2752 C2755 1.403 . S
H2753 C2759 0.930 . S
C2754 H2740 0.930 . S
C2754 C2752 1.395 . S
C2754 C2757 1.403 . S
C2755 C2752 1.403 . S
C2755 C2756 1.524 . S
C2755 C2759 1.400 . S
C2756 H2741 0.960 . S
C2756 H2742 0.960 . S
C2756 H2743 0.960 . S
C2756 C2755 1.524 . S
C2757 C2754 1.403 . S
C2757 C2758 1.392 . S
C2757 C2761 1.495 . S
C2758 C2757 1.392 . S
C2758 C2759 1.385 . S
C2758 C2760 1.478 . S
C2759 H2753 0.930 . S
C2759 C2755 1.400 . S
C2759 C2758 1.385 . S
C2760 C2758 1.478 . S
C2760 C2762 1.381 . S
C2760 C2766 1.383 . S
C2761 C2757 1.495 . S
C2761 H2767 0.959 . S
C2761 H2768 0.961 . S
C2761 H2769 0.960 . S
C2762 C2760 1.381 . S
C2762 C2763 1.394 . S
C2762 H2770 0.930 . S
C2763 C2762 1.394 . S
C2763 C2764 1.383 . S
C2763 H2771 0.929 . S
C2764 C2763 1.383 . S
C2764 C2765 1.377 . S
C2765 H2749 0.930 . S
C2765 C2764 1.377 . S
C2765 C2766 1.379 . S
C2766 H2750 0.931 . S
C2766 C2760 1.383 . S
C2766 C2765 1.379 . S
H2767 C2761 0.959 . S
H2768 C2761 0.961 . S
H2769 C2761 0.960 . S
H2770 C2762 0.930 . S
H2771 C2763 0.929 . S
H2772 C2780 0.929 . S
H2773 C2782 0.930 . S
H2774 C2784 0.930 . S
H2775 C2787 0.929 . S
H2776 C2790 0.930 . S
H2777 C2792 0.960 . S
H2778 C2792 0.960 . S
H2779 C2792 0.960 . S
C2780 H2772 0.929 . S
C2780 C2781 1.377 . S
C2780 C2782 1.384 . S
C2781 C2780 1.377 . S
C2781 C2787 1.390 . S
C2782 H2773 0.930 . S
C2782 C2780 1.384 . S
C2782 C2783 1.372 . S
C2783 C2782 1.372 . S
C2783 C2784 1.400 . S
C2783 C2788 1.490 . S
C2784 H2774 0.930 . S
C2784 C2783 1.400 . S
C2784 C2787 1.386 . S
H2785 C2801 0.930 . S
H2786 C2802 0.931 . S
C2787 H2775 0.929 . S
C2787 C2781 1.390 . S
C2787 C2784 1.386 . S
C2788 C2783 1.490 . S
C2788 C2790 1.395 . S
C2788 C2791 1.403 . S
H2789 C2795 0.930 . S
C2790 H2776 0.930 . S
C2790 C2788 1.395 . S
C2790 C2793 1.403 . S
C2791 C2788 1.403 . S
C2791 C2792 1.524 . S
C2791 C2795 1.400 . S
C2792 H2777 0.960 . S
C2792 H2778 0.960 . S
C2792 H2779 0.960 . S
C2792 C2791 1.524 . S
C2793 C2790 1.403 . S
C2793 C2794 1.392 . S
C2793 C2797 1.495 . S
C2794 C2793 1.392 . S
C2794 C2795 1.385 . S
C2794 C2796 1.478 . S
C2795 H2789 0.930 . S
C2795 C2791 1.400 . S
C2795 C2794 1.385 . S
C2796 C2794 1.478 . S
C2796 C2798 1.381 1_554 S
C2796 C2802 1.383 . S
C2797 C2793 1.495 . S
C2797 H2803 0.959 . S
C2797 H2804 0.961 . S
C2797 H2805 0.960 . S
C2798 C2796 1.381 1_556 S
C2798 C2799 1.395 . S
C2798 H2806 0.930 1_556 S
C2799 C2798 1.395 . S
C2799 C2800 1.383 . S
C2799 H2807 0.929 . S
C2800 C2799 1.383 . S
C2800 C2801 1.377 . S
C2801 H2785 0.930 . S
C2801 C2800 1.377 . S
C2801 C2802 1.379 1_556 S
C2802 H2786 0.931 . S
C2802 C2796 1.383 . S
C2802 C2801 1.379 1_554 S
H2803 C2797 0.959 . S
H2804 C2797 0.961 . S
H2805 C2797 0.960 . S
H2806 C2798 0.930 1_554 S
H2807 C2799 0.929 . S
H2808 C2816 0.929 . S
H2809 C2818 0.930 . S
H2810 C2820 0.930 . S
H2811 C2823 0.929 . S
H2812 C2826 0.930 . S
H2813 C2828 0.960 . S
H2814 C2828 0.960 . S
H2815 C2828 0.960 . S
C2816 H2808 0.929 . S
C2816 C2817 1.377 . S
C2816 C2818 1.384 . S
C2817 C2816 1.377 . S
C2817 C2823 1.390 . S
C2818 H2809 0.930 . S
C2818 C2816 1.384 . S
C2818 C2819 1.372 . S
C2819 C2818 1.372 . S
C2819 C2820 1.400 . S
C2819 C2824 1.490 . S
C2820 H2810 0.930 . S
C2820 C2819 1.400 . S
C2820 C2823 1.386 . S
H2821 C2837 0.930 . S
H2822 C2838 0.931 1_554 S
C2823 H2811 0.929 . S
C2823 C2817 1.390 . S
C2823 C2820 1.386 . S
C2824 C2819 1.490 . S
C2824 C2826 1.395 . S
C2824 C2827 1.403 . S
H2825 C2831 0.930 . S
C2826 H2812 0.930 . S
C2826 C2824 1.395 . S
C2826 C2829 1.403 . S
C2827 C2824 1.403 . S
C2827 C2828 1.524 . S
C2827 C2831 1.400 . S
C2828 H2813 0.960 . S
C2828 H2814 0.960 . S
C2828 H2815 0.960 . S
C2828 C2827 1.524 . S
C2829 C2826 1.403 . S
C2829 C2830 1.392 . S
C2829 C2833 1.495 . S
C2830 C2829 1.392 . S
C2830 C2831 1.385 . S
C2830 C2832 1.478 . S
C2831 H2825 0.930 . S
C2831 C2827 1.400 . S
C2831 C2830 1.385 . S
C2832 C2830 1.478 . S
C2832 C2834 1.381 . S
C2832 C2838 1.383 1_554 S
C2833 C2829 1.495 . S
C2833 H2839 0.959 . S
C2833 H2840 0.961 . S
C2833 H2841 0.960 . S
C2834 C2832 1.381 . S
C2834 C2835 1.394 1_554 S
C2834 H2842 0.930 . S
C2835 C2834 1.394 1_556 S
C2835 C2836 1.383 . S
C2835 H2843 0.929 . S
C2836 C2835 1.383 . S
C2836 C2837 1.377 . S
C2837 H2821 0.930 . S
C2837 C2836 1.377 . S
C2837 C2838 1.379 . S
C2838 H2822 0.931 1_556 S
C2838 C2832 1.383 1_556 S
C2838 C2837 1.379 . S
H2839 C2833 0.959 . S
H2840 C2833 0.961 . S
H2841 C2833 0.960 . S
H2842 C2834 0.930 . S
H2843 C2835 0.929 . S
H2844 C2852 0.929 . S
H2845 C2854 0.930 . S
H2846 C2856 0.930 . S
H2847 C2859 0.929 . S
H2848 C2862 0.930 . S
H2849 C2864 0.960 . S
H2850 C2864 0.960 . S
H2851 C2864 0.960 . S
C2852 H2844 0.929 . S
C2852 C2853 1.377 . S
C2852 C2854 1.384 . S
C2853 C2852 1.377 . S
C2853 C2859 1.390 . S
C2854 H2845 0.930 . S
C2854 C2852 1.384 . S
C2854 C2855 1.372 . S
C2855 C2854 1.372 . S
C2855 C2856 1.400 . S
C2855 C2860 1.490 . S
C2856 H2846 0.930 . S
C2856 C2855 1.400 . S
C2856 C2859 1.386 . S
H2857 C2873 0.930 . S
H2858 C2874 0.931 1_554 S
C2859 H2847 0.929 . S
C2859 C2853 1.390 . S
C2859 C2856 1.386 . S
C2860 C2855 1.490 . S
C2860 C2862 1.395 . S
C2860 C2863 1.403 . S
H2861 C2867 0.930 . S
C2862 H2848 0.930 . S
C2862 C2860 1.395 . S
C2862 C2865 1.403 . S
C2863 C2860 1.403 . S
C2863 C2864 1.524 . S
C2863 C2867 1.400 . S
C2864 H2849 0.960 . S
C2864 H2850 0.960 . S
C2864 H2851 0.960 . S
C2864 C2863 1.524 . S
C2865 C2862 1.403 . S
C2865 C2866 1.392 . S
C2865 C2869 1.495 . S
C2866 C2865 1.392 . S
C2866 C2867 1.385 . S
C2866 C2868 1.478 . S
C2867 H2861 0.930 . S
C2867 C2863 1.400 . S
C2867 C2866 1.385 . S
C2868 C2866 1.478 . S
C2868 C2870 1.381 . S
C2868 C2874 1.383 1_554 S
C2869 C2865 1.495 . S
C2869 H2875 0.959 . S
C2869 H2876 0.961 . S
C2869 H2877 0.960 . S
C2870 C2868 1.381 . S
C2870 C2871 1.394 1_554 S
C2870 H2878 0.930 . S
C2871 C2870 1.394 1_556 S
C2871 C2872 1.383 . S
C2871 H2879 0.929 . S
C2872 C2871 1.383 . S
C2872 C2873 1.377 . S
C2873 H2857 0.930 . S
C2873 C2872 1.377 . S
C2873 C2874 1.379 . S
C2874 H2858 0.931 1_556 S
C2874 C2868 1.383 1_556 S
C2874 C2873 1.379 . S
H2875 C2869 0.959 . S
H2876 C2869 0.961 . S
H2877 C2869 0.960 . S
H2878 C2870 0.930 . S
H2879 C2871 0.929 . S
H2880 C2888 0.929 . S
H2881 C2890 0.930 . S
H2882 C2892 0.940 . S
H2883 C2895 0.929 . S
H2884 C2898 0.930 . S
H2885 C2900 0.960 . S
H2886 C2900 0.960 . S
H2887 C2900 0.960 . S
C2888 H2880 0.929 . S
C2888 C2889 1.377 . S
C2888 C2890 1.384 1_554 S
C2889 C2888 1.377 . S
C2889 C2895 1.390 . S
C2890 H2881 0.930 . S
C2890 C2888 1.384 1_556 S
C2890 C2891 1.372 . S
C2891 C2890 1.372 . S
C2891 C2892 1.411 . S
C2891 C2896 1.490 . S
C2892 H2882 0.940 . S
C2892 C2891 1.411 . S
C2892 C2895 1.365 1_556 S
H2893 C2909 0.930 . S
H2894 C2910 0.931 . S
C2895 H2883 0.929 . S
C2895 C2889 1.390 . S
C2895 C2892 1.365 1_554 S
C2896 C2891 1.490 . S
C2896 C2898 1.395 . S
C2896 C2899 1.403 . S
H2897 C2903 0.930 . S
C2898 H2884 0.930 . S
C2898 C2896 1.395 . S
C2898 C2901 1.403 . S
C2899 C2896 1.403 . S
C2899 C2900 1.524 . S
C2899 C2903 1.400 . S
C2900 H2885 0.960 . S
C2900 H2886 0.960 . S
C2900 H2887 0.960 . S
C2900 C2899 1.524 . S
C2901 C2898 1.403 . S
C2901 C2902 1.392 . S
C2901 C2905 1.495 . S
C2902 C2901 1.392 . S
C2902 C2903 1.385 . S
C2902 C2904 1.478 . S
C2903 H2897 0.930 . S
C2903 C2899 1.400 . S
C2903 C2902 1.385 . S
C2904 C2902 1.478 . S
C2904 C2906 1.381 . S
C2904 C2910 1.383 . S
C2905 C2901 1.495 . S
C2905 H2911 0.959 . S
C2905 H2912 0.961 . S
C2905 H2913 0.960 . S
C2906 C2904 1.381 . S
C2906 C2907 1.394 . S
C2906 H2914 0.930 . S
C2907 C2906 1.394 . S
C2907 C2908 1.383 . S
C2907 H2915 0.929 . S
C2908 C2907 1.383 . S
C2908 C2909 1.377 . S
C2909 H2893 0.930 . S
C2909 C2908 1.377 . S
C2909 C2910 1.379 . S
C2910 H2894 0.931 . S
C2910 C2904 1.383 . S
C2910 C2909 1.379 . S
H2911 C2905 0.959 . S
H2912 C2905 0.961 . S
H2913 C2905 0.960 . S
H2914 C2906 0.930 . S
H2915 C2907 0.929 . S
H2916 C2924 0.929 . S
H2917 C2926 0.930 . S
H2918 C2928 0.930 1_556 S
H2919 C2931 0.929 . S
H2920 C2934 0.930 . S
H2921 C2936 0.960 . S
H2922 C2936 0.960 . S
H2923 C2936 0.960 . S
C2924 H2916 0.929 . S
C2924 C2925 1.377 . S
C2924 C2926 1.384 1_554 S
C2925 C2924 1.377 . S
C2925 C2931 1.390 . S
C2926 H2917 0.930 . S
C2926 C2924 1.384 1_556 S
C2926 C2927 1.372 . S
C2927 C2926 1.372 . S
C2927 C2928 1.400 1_556 S
C2927 C2932 1.490 . S
C2928 H2918 0.930 1_554 S
C2928 C2927 1.400 1_554 S
C2928 C2931 1.386 . S
H2929 C2945 0.930 . S
H2930 C2946 0.931 . S
C2931 H2919 0.929 . S
C2931 C2925 1.390 . S
C2931 C2928 1.386 . S
C2932 C2927 1.490 . S
C2932 C2934 1.395 . S
C2932 C2935 1.403 . S
H2933 C2939 0.930 . S
C2934 H2920 0.930 . S
C2934 C2932 1.395 . S
C2934 C2937 1.403 . S
C2935 C2932 1.403 . S
C2935 C2936 1.524 . S
C2935 C2939 1.400 . S
C2936 H2921 0.960 . S
C2936 H2922 0.960 . S
C2936 H2923 0.960 . S
C2936 C2935 1.524 . S
C2937 C2934 1.403 . S
C2937 C2938 1.392 . S
C2937 C2941 1.495 . S
C2938 C2937 1.392 . S
C2938 C2939 1.385 . S
C2938 C2940 1.478 . S
C2939 H2933 0.930 . S
C2939 C2935 1.400 . S
C2939 C2938 1.385 . S
C2940 C2938 1.478 . S
C2940 C2942 1.381 . S
C2940 C2946 1.383 . S
C2941 C2937 1.495 . S
C2941 H2947 0.959 . S
C2941 H2948 0.961 . S
C2941 H2949 0.960 . S
C2942 C2940 1.381 . S
C2942 C2943 1.394 . S
C2942 H2950 0.930 . S
C2943 C2942 1.394 . S
C2943 C2944 1.383 . S
C2943 H2951 0.929 . S
C2944 C2943 1.383 . S
C2944 C2945 1.377 . S
C2945 H2929 0.930 . S
C2945 C2944 1.377 . S
C2945 C2946 1.379 . S
C2946 H2930 0.931 . S
C2946 C2940 1.383 . S
C2946 C2945 1.379 . S
H2947 C2941 0.959 . S
H2948 C2941 0.961 . S
H2949 C2941 0.960 . S
H2950 C2942 0.930 . S
H2951 C2943 0.929 . S
H2952 C2960 0.929 . S
H2953 C2962 0.930 . S
H2954 C2964 0.930 1_556 S
H2955 C2967 0.929 . S
H2956 C2970 0.930 . S
H2957 C2972 0.960 . S
H2958 C2972 0.960 . S
H2959 C2972 0.960 . S
C2960 H2952 0.929 . S
C2960 C2961 1.377 . S
C2960 C2962 1.384 1_554 S
C2961 C2960 1.377 . S
C2961 C2967 1.390 . S
C2962 H2953 0.930 . S
C2962 C2960 1.384 1_556 S
C2962 C2963 1.372 . S
C2963 C2962 1.372 . S
C2963 C2964 1.400 1_556 S
C2963 C2968 1.490 . S
C2964 H2954 0.930 1_554 S
C2964 C2963 1.400 1_554 S
C2964 C2967 1.386 . S
H2965 C2981 0.930 . S
H2966 C2982 0.931 . S
C2967 H2955 0.929 . S
C2967 C2961 1.390 . S
C2967 C2964 1.386 . S
C2968 C2963 1.490 . S
C2968 C2970 1.395 . S
C2968 C2971 1.403 . S
H2969 C2975 0.930 . S
C2970 H2956 0.930 . S
C2970 C2968 1.395 . S
C2970 C2973 1.403 . S
C2971 C2968 1.403 . S
C2971 C2972 1.524 . S
C2971 C2975 1.400 . S
C2972 H2957 0.960 . S
C2972 H2958 0.960 . S
C2972 H2959 0.960 . S
C2972 C2971 1.524 . S
C2973 C2970 1.403 . S
C2973 C2974 1.392 . S
C2973 C2977 1.495 . S
C2974 C2973 1.392 . S
C2974 C2975 1.385 . S
C2974 C2976 1.478 . S
C2975 H2969 0.930 . S
C2975 C2971 1.400 . S
C2975 C2974 1.385 . S
C2976 C2974 1.478 . S
C2976 C2978 1.381 . S
C2976 C2982 1.383 . S
C2977 C2973 1.495 . S
C2977 H2983 0.959 . S
C2977 H2984 0.961 . S
C2977 H2985 0.960 . S
C2978 C2976 1.381 . S
C2978 C2979 1.394 . S
C2978 H2986 0.930 . S
C2979 C2978 1.394 . S
C2979 C2980 1.383 . S
C2979 H2987 0.929 . S
C2980 C2979 1.383 . S
C2980 C2981 1.377 . S
C2981 H2965 0.930 . S
C2981 C2980 1.377 . S
C2981 C2982 1.379 . S
C2982 H2966 0.931 . S
C2982 C2976 1.383 . S
C2982 C2981 1.379 . S
H2983 C2977 0.959 . S
H2984 C2977 0.961 . S
H2985 C2977 0.960 . S
H2986 C2978 0.930 . S
H2987 C2979 0.929 . S
H2988 C2996 0.929 . S
H2989 C2998 0.930 . S
H2990 C3000 0.930 . S
H2991 C3003 0.929 . S
H2992 C3006 0.930 . S
H2993 C3008 0.960 . S
H2994 C3008 0.960 . S
H2995 C3008 0.960 . S
C2996 H2988 0.929 . S
C2996 C2997 1.377 . S
C2996 C2998 1.384 . S
C2997 C2996 1.377 . S
C2997 C3003 1.390 . S
C2998 H2989 0.930 . S
C2998 C2996 1.384 . S
C2998 C2999 1.372 . S
C2999 C2998 1.372 . S
C2999 C3000 1.400 . S
C2999 C3004 1.490 . S
C3000 H2990 0.930 . S
C3000 C2999 1.400 . S
C3000 C3003 1.386 . S
H3001 C3017 0.930 . S
H3002 C3018 0.931 . S
C3003 H2991 0.929 . S
C3003 C2997 1.390 . S
C3003 C3000 1.386 . S
C3004 C2999 1.490 . S
C3004 C3006 1.395 . S
C3004 C3007 1.403 . S
H3005 C3011 0.930 . S
C3006 H2992 0.930 . S
C3006 C3004 1.395 . S
C3006 C3009 1.403 . S
C3007 C3004 1.403 . S
C3007 C3008 1.524 . S
C3007 C3011 1.400 . S
C3008 H2993 0.960 . S
C3008 H2994 0.960 . S
C3008 H2995 0.960 . S
C3008 C3007 1.524 . S
C3009 C3006 1.403 . S
C3009 C3010 1.392 . S
C3009 C3013 1.495 . S
C3010 C3009 1.392 . S
C3010 C3011 1.385 . S
C3010 C3012 1.478 . S
C3011 H3005 0.930 . S
C3011 C3007 1.400 . S
C3011 C3010 1.385 . S
C3012 C3010 1.478 . S
C3012 C3014 1.381 . S
C3012 C3018 1.383 . S
C3013 C3009 1.495 . S
C3013 H3019 0.959 . S
C3013 H3020 0.961 . S
C3013 H3021 0.960 . S
C3014 C3012 1.381 . S
C3014 C3015 1.394 . S
C3014 H3022 0.930 . S
C3015 C3014 1.394 . S
C3015 C3016 1.383 . S
C3015 H3023 0.929 . S
C3016 C3015 1.383 . S
C3016 C3017 1.377 . S
C3017 H3001 0.930 . S
C3017 C3016 1.377 . S
C3017 C3018 1.379 . S
C3018 H3002 0.931 . S
C3018 C3012 1.383 . S
C3018 C3017 1.379 . S
H3019 C3013 0.959 . S
H3020 C3013 0.961 . S
H3021 C3013 0.960 . S
H3022 C3014 0.930 . S
H3023 C3015 0.929 . S
H3024 C3032 0.929 . S
H3025 C3034 0.930 . S
H3026 C3036 0.930 . S
H3027 C3039 0.929 . S
H3028 C3042 0.930 . S
H3029 C3044 0.960 . S
H3030 C3044 0.960 . S
H3031 C3044 0.960 . S
C3032 H3024 0.929 . S
C3032 C3033 1.377 . S
C3032 C3034 1.384 . S
C3033 C3032 1.377 . S
C3033 C3039 1.390 . S
C3034 H3025 0.930 . S
C3034 C3032 1.384 . S
C3034 C3035 1.372 . S
C3035 C3034 1.372 . S
C3035 C3036 1.400 . S
C3035 C3040 1.490 . S
C3036 H3026 0.930 . S
C3036 C3035 1.400 . S
C3036 C3039 1.386 . S
H3037 C3053 0.930 . S
H3038 C3054 0.931 . S
C3039 H3027 0.929 . S
C3039 C3033 1.390 . S
C3039 C3036 1.386 . S
C3040 C3035 1.490 . S
C3040 C3042 1.395 . S
C3040 C3043 1.403 . S
H3041 C3047 0.930 . S
C3042 H3028 0.930 . S
C3042 C3040 1.395 . S
C3042 C3045 1.403 . S
C3043 C3040 1.403 . S
C3043 C3044 1.524 . S
C3043 C3047 1.400 . S
C3044 H3029 0.960 . S
C3044 H3030 0.960 . S
C3044 H3031 0.960 . S
C3044 C3043 1.524 . S
C3045 C3042 1.403 . S
C3045 C3046 1.392 . S
C3045 C3049 1.495 . S
C3046 C3045 1.392 . S
C3046 C3047 1.385 . S
C3046 C3048 1.478 . S
C3047 H3041 0.930 . S
C3047 C3043 1.400 . S
C3047 C3046 1.385 . S
C3048 C3046 1.478 . S
C3048 C3050 1.381 . S
C3048 C3054 1.383 . S
C3049 C3045 1.495 . S
C3049 H3055 0.959 . S
C3049 H3056 0.961 . S
C3049 H3057 0.960 . S
C3050 C3048 1.381 . S
C3050 C3051 1.394 . S
C3050 H3058 0.930 . S
C3051 C3050 1.394 . S
C3051 C3052 1.383 . S
C3051 H3059 0.929 . S
C3052 C3051 1.383 . S
C3052 C3053 1.377 . S
C3053 H3037 0.930 . S
C3053 C3052 1.377 . S
C3053 C3054 1.379 . S
C3054 H3038 0.931 . S
C3054 C3048 1.383 . S
C3054 C3053 1.379 . S
H3055 C3049 0.959 . S
H3056 C3049 0.961 . S
H3057 C3049 0.960 . S
H3058 C3050 0.930 . S
H3059 C3051 0.929 . S
H3060 C3068 0.929 . S
H3061 C3070 0.930 . S
H3062 C3072 0.930 . S
H3063 C3075 0.929 . S
H3064 C3078 0.930 . S
H3065 C3080 0.960 . S
H3066 C3080 0.960 . S
H3067 C3080 0.960 . S
C3068 H3060 0.929 . S
C3068 C3069 1.377 . S
C3068 C3070 1.384 . S
C3069 C3068 1.377 . S
C3069 C3075 1.390 . S
C3070 H3061 0.930 . S
C3070 C3068 1.384 . S
C3070 C3071 1.372 . S
C3071 C3070 1.372 . S
C3071 C3072 1.400 . S
C3071 C3076 1.490 . S
C3072 H3062 0.930 . S
C3072 C3071 1.400 . S
C3072 C3075 1.386 . S
H3073 C3089 0.930 . S
H3074 C3090 0.931 . S
C3075 H3063 0.929 . S
C3075 C3069 1.390 . S
C3075 C3072 1.386 . S
C3076 C3071 1.490 . S
C3076 C3078 1.395 . S
C3076 C3079 1.403 . S
H3077 C3083 0.930 . S
C3078 H3064 0.930 . S
C3078 C3076 1.395 . S
C3078 C3081 1.403 . S
C3079 C3076 1.403 . S
C3079 C3080 1.524 . S
C3079 C3083 1.400 . S
C3080 H3065 0.960 . S
C3080 H3066 0.960 . S
C3080 H3067 0.960 . S
C3080 C3079 1.524 . S
C3081 C3078 1.403 . S
C3081 C3082 1.392 . S
C3081 C3085 1.495 . S
C3082 C3081 1.392 . S
C3082 C3083 1.385 . S
C3082 C3084 1.478 . S
C3083 H3077 0.930 . S
C3083 C3079 1.400 . S
C3083 C3082 1.385 . S
C3084 C3082 1.478 . S
C3084 C3086 1.381 . S
C3084 C3090 1.383 . S
C3085 C3081 1.495 . S
C3085 H3091 0.959 . S
C3085 H3092 0.961 . S
C3085 H3093 0.960 . S
C3086 C3084 1.381 . S
C3086 C3087 1.394 . S
C3086 H3094 0.930 . S
C3087 C3086 1.394 . S
C3087 C3088 1.383 . S
C3087 H3095 0.929 . S
C3088 C3087 1.383 . S
C3088 C3089 1.377 . S
C3089 H3073 0.930 . S
C3089 C3088 1.377 . S
C3089 C3090 1.379 . S
C3090 H3074 0.931 . S
C3090 C3084 1.383 . S
C3090 C3089 1.379 . S
H3091 C3085 0.959 . S
H3092 C3085 0.961 . S
H3093 C3085 0.960 . S
H3094 C3086 0.930 . S
H3095 C3087 0.929 . S
C513 C235 1.201 . S
C532 C11 1.209 1_556 S
C549 C249 1.200 . S
C568 C25 1.208 1_556 S
C585 C39 1.203 1_556 S
C604 C221 1.200 . S
C621 C375 1.202 . S
C640 C53 1.189 . S
C657 C347 1.202 . S
C676 C67 1.206 . S
C693 C81 1.203 . S
C712 C361 1.204 . S
C729 C487 1.202 . S
C748 C95 1.203 1_554 S
C765 C501 1.199 . S
C784 C109 1.189 1_554 S
C801 C473 1.203 . S
C820 C123 1.209 1_554 S
C837 C291 1.199 . S
C856 C137 1.188 . S
C873 C151 1.202 . S
C892 C263 1.202 . S
C909 C277 1.202 . S
C928 C165 1.203 . S
C945 C403 1.201 . S
C964 C179 1.189 . S
C981 C193 1.204 . S
C1000 C417 1.194 . S
C1017 C389 1.203 . S
C1036 C207 1.191 . S
C1053 C459 1.202 . S
C1072 C305 1.200 . S
C1089 C431 1.203 . S
C1108 C319 1.209 . S
C1125 C333 1.199 . S
C1144 C445 1.189 . S
C1161 C105 1.288 . S
C1180 C13 1.236 . S
C1197 C119 1.296 . S
C1216 C27 1.248 . S
C1233 C91 1.296 . S
C1252 C41 1.257 . S
C1269 C55 1.263 . S
C1288 C161 1.311 . S
C1305 C133 1.294 . S
C1324 C69 1.290 . S
C1341 C83 1.253 . S
C1360 C147 1.291 . S
C1377 C21 1.296 . S
C1396 C97 1.226 . S
C1413 C111 1.266 . S
C1432 C35 1.268 . S
C1449 C7 1.289 . S
C1468 C125 1.275 . S
C1485 C77 1.296 . S
C1504 C139 1.224 . S
C1521 C49 1.295 . S
C1540 C153 1.229 . S
C1557 C167 1.263 . S
C1576 C63 1.284 . S
C1593 C181 1.264 . S
C1612 C273 1.279 . S
C1629 C287 1.292 . S
C1648 C195 1.226 . S
C1665 C259 1.288 . S
C1684 C209 1.249 . S
C1701 C223 1.264 . S
C1720 C329 1.309 . S
C1737 C301 1.293 . S
C1756 C237 1.231 . S
C1773 C251 1.255 . S
C1792 C315 1.269 . S
C1809 C265 1.266 . S
C1828 C189 1.269 . S
C1845 C279 1.258 . S
C1864 C203 1.289 . S
C1881 C175 1.290 . S
C1900 C293 1.282 . S
C1917 C245 1.289 . S
C1936 C307 1.286 . S
C1953 C217 1.295 . S
C1972 C321 1.230 . S
C1989 C335 1.253 . S
C2008 C231 1.310 . S
C2025 C441 1.292 . S
C2044 C349 1.288 . S
C2061 C363 1.255 . S
C2080 C455 1.299 . S
C2097 C377 1.258 . S
C2116 C427 1.307 . S
C2133 C497 1.296 . S
C2152 C391 1.250 . S
C2169 C405 1.257 . S
C2188 C469 1.305 . S
C2205 C483 1.288 . S
C2224 C419 1.238 . S
C2241 C357 1.296 . S
C2260 C433 1.227 . S
C2277 C371 1.291 . S
C2296 C447 1.270 . S
C2313 C461 1.253 . S
C2332 C343 1.310 . S
C2349 C475 1.265 . S
C2368 C413 1.278 . S
C2385 C385 1.290 . S
C2404 C489 1.280 . S
C2421 C399 1.296 . S
C2440 C503 1.225 . S
C2457 C8 1.293 . S
C2476 C50 1.314 . S
C2493 C22 1.295 . S
C2512 C64 1.320 . S
C2529 C78 1.293 . S
C2548 C36 1.315 . S
C2565 C92 1.304 . S
C2584 C134 1.301 . S
C2601 C148 1.294 . S
C2620 C106 1.310 . S
C2637 C162 1.304 . S
C2656 C120 1.304 . S
C2673 C176 1.302 . S
C2692 C218 1.269 . S
C2709 C190 1.302 . S
C2728 C232 1.290 . S
C2745 C246 1.304 . S
C2764 C204 1.268 . S
C2781 C260 1.294 . S
C2800 C302 1.274 . S
C2817 C274 1.293 . S
C2836 C316 1.300 . S
C2853 C288 1.295 . S
C2872 C330 1.316 . S
C2889 C386 1.299 . S
C2908 C344 1.305 . S
C2925 C400 1.295 . S
C2944 C358 1.319 . S
C2961 C414 1.292 . S
C2980 C372 1.322 . S
C2997 C428 1.294 . S
C3016 C470 1.275 . S
C3033 C484 1.295 . S
C3052 C442 1.317 . S
C3069 C498 1.298 . S
C3088 C456 1.322 . S
