# Generated by pormake.
# Topology why, (6)-cn, num edge types: 1
# Building blocks:
#     Node 0, Type 0, BuildingBlock: JUFBIX_clean_sbu_0, # of connection points: 6
#     Node 1, Type 0, BuildingBlock: JUFBIX_clean_sbu_0, # of connection points: 6
#     Node 2, Type 0, BuildingBlock: JUFBIX_clean_sbu_0, # of connection points: 6
#     Node 3, Type 0, BuildingBlock: JUFBIX_clean_sbu_0, # of connection points: 6
#     Node 4, Type 0, BuildingBlock: JUFBIX_clean_sbu_0, # of connection points: 6
#     Node 5, Type 0, BuildingBlock: JUFBIX_clean_sbu_0, # of connection points: 6
#     Node 6, Type 0, BuildingBlock: JUFBIX_clean_sbu_0, # of connection points: 6
#     Node 7, Type 0, BuildingBlock: JUFBIX_clean_sbu_0, # of connection points: 6
#     Node 8, Type 0, BuildingBlock: JUFBIX_clean_sbu_0, # of connection points: 6
#     Node 9, Type 0, BuildingBlock: JUFBIX_clean_sbu_0, # of connection points: 6
#     Node 10, Type 0, BuildingBlock: JUFBIX_clean_sbu_0, # of connection points: 6
#     Node 11, Type 0, BuildingBlock: JUFBIX_clean_sbu_0, # of connection points: 6
#     Node 12, Type 0, BuildingBlock: JUFBIX_clean_sbu_0, # of connection points: 6
#     Node 13, Type 0, BuildingBlock: JUFBIX_clean_sbu_0, # of connection points: 6
#     Node 14, Type 0, BuildingBlock: JUFBIX_clean_sbu_0, # of connection points: 6
#     Node 15, Type 0, BuildingBlock: JUFBIX_clean_sbu_0, # of connection points: 6
#     Edge 16, Type (0, 0), BuildingBlock: EZIPEK_clean_linker_0, # of connection points: 2
#     Edge 17, Type (0, 0), BuildingBlock: EZIPEK_clean_linker_0, # of connection points: 2
#     Edge 18, Type (0, 0), BuildingBlock: EZIPEK_clean_linker_0, # of connection points: 2
#     Edge 19, Type (0, 0), BuildingBlock: EZIPEK_clean_linker_0, # of connection points: 2
#     Edge 20, Type (0, 0), BuildingBlock: EZIPEK_clean_linker_0, # of connection points: 2
#     Edge 21, Type (0, 0), BuildingBlock: EZIPEK_clean_linker_0, # of connection points: 2
#     Edge 22, Type (0, 0), BuildingBlock: EZIPEK_clean_linker_0, # of connection points: 2
#     Edge 23, Type (0, 0), BuildingBlock: EZIPEK_clean_linker_0, # of connection points: 2
#     Edge 24, Type (0, 0), BuildingBlock: EZIPEK_clean_linker_0, # of connection points: 2
#     Edge 25, Type (0, 0), BuildingBlock: EZIPEK_clean_linker_0, # of connection points: 2
#     Edge 26, Type (0, 0), BuildingBlock: EZIPEK_clean_linker_0, # of connection points: 2
#     Edge 27, Type (0, 0), BuildingBlock: EZIPEK_clean_linker_0, # of connection points: 2
#     Edge 28, Type (0, 0), BuildingBlock: EZIPEK_clean_linker_0, # of connection points: 2
#     Edge 29, Type (0, 0), BuildingBlock: EZIPEK_clean_linker_0, # of connection points: 2
#     Edge 30, Type (0, 0), BuildingBlock: EZIPEK_clean_linker_0, # of connection points: 2
#     Edge 31, Type (0, 0), BuildingBlock: EZIPEK_clean_linker_0, # of connection points: 2
#     Edge 32, Type (0, 0), BuildingBlock: EZIPEK_clean_linker_0, # of connection points: 2
#     Edge 33, Type (0, 0), BuildingBlock: EZIPEK_clean_linker_0, # of connection points: 2
#     Edge 34, Type (0, 0), BuildingBlock: EZIPEK_clean_linker_0, # of connection points: 2
#     Edge 35, Type (0, 0), BuildingBlock: EZIPEK_clean_linker_0, # of connection points: 2
#     Edge 36, Type (0, 0), BuildingBlock: EZIPEK_clean_linker_0, # of connection points: 2
#     Edge 37, Type (0, 0), BuildingBlock: EZIPEK_clean_linker_0, # of connection points: 2
#     Edge 38, Type (0, 0), BuildingBlock: EZIPEK_clean_linker_0, # of connection points: 2
#     Edge 39, Type (0, 0), BuildingBlock: EZIPEK_clean_linker_0, # of connection points: 2
#     Edge 40, Type (0, 0), BuildingBlock: EZIPEK_clean_linker_0, # of connection points: 2
#     Edge 41, Type (0, 0), BuildingBlock: EZIPEK_clean_linker_0, # of connection points: 2
#     Edge 42, Type (0, 0), BuildingBlock: EZIPEK_clean_linker_0, # of connection points: 2
#     Edge 43, Type (0, 0), BuildingBlock: EZIPEK_clean_linker_0, # of connection points: 2
#     Edge 44, Type (0, 0), BuildingBlock: EZIPEK_clean_linker_0, # of connection points: 2
#     Edge 45, Type (0, 0), BuildingBlock: EZIPEK_clean_linker_0, # of connection points: 2
#     Edge 46, Type (0, 0), BuildingBlock: EZIPEK_clean_linker_0, # of connection points: 2
#     Edge 47, Type (0, 0), BuildingBlock: EZIPEK_clean_linker_0, # of connection points: 2
#     Edge 48, Type (0, 0), BuildingBlock: EZIPEK_clean_linker_0, # of connection points: 2
#     Edge 49, Type (0, 0), BuildingBlock: EZIPEK_clean_linker_0, # of connection points: 2
#     Edge 50, Type (0, 0), BuildingBlock: EZIPEK_clean_linker_0, # of connection points: 2
#     Edge 51, Type (0, 0), BuildingBlock: EZIPEK_clean_linker_0, # of connection points: 2
#     Edge 52, Type (0, 0), BuildingBlock: EZIPEK_clean_linker_0, # of connection points: 2
#     Edge 53, Type (0, 0), BuildingBlock: EZIPEK_clean_linker_0, # of connection points: 2
#     Edge 54, Type (0, 0), BuildingBlock: EZIPEK_clean_linker_0, # of connection points: 2
#     Edge 55, Type (0, 0), BuildingBlock: EZIPEK_clean_linker_0, # of connection points: 2
#     Edge 56, Type (0, 0), BuildingBlock: EZIPEK_clean_linker_0, # of connection points: 2
#     Edge 57, Type (0, 0), BuildingBlock: EZIPEK_clean_linker_0, # of connection points: 2
#     Edge 58, Type (0, 0), BuildingBlock: EZIPEK_clean_linker_0, # of connection points: 2
#     Edge 59, Type (0, 0), BuildingBlock: EZIPEK_clean_linker_0, # of connection points: 2
#     Edge 60, Type (0, 0), BuildingBlock: EZIPEK_clean_linker_0, # of connection points: 2
#     Edge 61, Type (0, 0), BuildingBlock: EZIPEK_clean_linker_0, # of connection points: 2
#     Edge 62, Type (0, 0), BuildingBlock: EZIPEK_clean_linker_0, # of connection points: 2
#     Edge 63, Type (0, 0), BuildingBlock: EZIPEK_clean_linker_0, # of connection points: 2
# Relax obj value: 0.411
# Max RMSD: 0.199
# Mean RMSD: 0.185
data_MOF--net-why--node1-JUFBIX_clean_sbu_0--edge1-EZIPEK_clean_linker_0
_symmetry_space_group_name_H-M    P1
_symmetry_Int_Tables_number       1
_symmetry_cell_setting            triclinic
loop_
_symmetry_equiv_pos_as_xyz
'x, y, z'
_cell_length_a     38.753961
_cell_length_b     38.418984
_cell_length_c     20.743262
_cell_angle_alpha  93.447989
_cell_angle_beta   77.839728
_cell_angle_gamma 97.257841
loop_
_atom_site_label
_atom_site_type_symbol
_atom_site_fract_x
_atom_site_fract_y
_atom_site_fract_z
_atom_type_partial_charge
Co0 Co 0.33622 0.21077 0.05619 0.0
C1 C 0.36965 0.27882 1.01116 0.0
Co2 Co 0.37888 0.23337 0.1048 0.0
C3 C 0.28733 0.16575 0.98705 0.0
C4 C 0.27445 0.21823 1.01172 0.0
N5 N 0.29839 0.1963 1.01632 0.0
N6 N 0.25736 0.16828 0.96504 0.0
C7 C 0.2493 0.20111 0.9803 0.0
H8 H 0.30078 0.1424 0.98193 0.0
H9 H 0.27522 0.24519 0.03015 0.0
C10 C 0.35151 0.16359 0.14081 0.0
N11 N 0.41473 0.24897 0.14769 0.0
C12 C 0.44868 0.26009 0.12102 0.0
C13 C 0.41333 0.24844 0.21332 0.0
N14 N 0.4684 0.26631 0.16736 0.0
C15 C 0.44661 0.25915 0.22564 0.0
C16 C 0.31211 0.25084 0.17667 0.0
O17 O 0.32956 0.16678 0.10386 0.0
O18 O 0.37259 0.19043 0.15117 0.0
O19 O 0.34525 0.25511 0.1767 0.0
O20 O 0.30248 0.23238 0.12899 0.0
O21 O 0.38719 0.27634 0.0559 0.0
H22 H 0.38988 0.23964 0.24956 0.0
H23 H 0.45907 0.26255 0.06859 0.0
O24 O 0.34516 0.25404 1.00531 0.0
O25 O 0.36876 0.189 0.98556 0.0
O26 O 0.4122 0.21145 0.03321 0.0
C27 C 0.40185 0.19251 0.98641 0.0
H28 H 0.22675 0.21182 0.9692 0.0
H29 H 0.45448 0.26073 0.2729 0.0
Co30 Co 0.58327 0.59381 0.28794 0.0
C31 C 0.51645 0.61301 0.2837 0.0
Co32 Co 0.56502 0.6354 0.36043 0.0
C33 C 0.61587 0.53051 0.24105 0.0
C34 C 0.59325 0.55051 0.16709 0.0
N35 N 0.59802 0.55694 0.22941 0.0
N36 N 0.62217 0.50785 0.18863 0.0
C37 C 0.60814 0.52047 0.1419 0.0
H38 H 0.62435 0.52803 0.28689 0.0
H39 H 0.58002 0.56674 0.14145 0.0
C40 C 0.6318 0.61908 0.36435 0.0
N41 N 0.55231 0.6701 0.42227 0.0
C42 C 0.53422 0.69685 0.41634 0.0
C43 C 0.56234 0.67626 0.48097 0.0
N44 N 0.53327 0.71981 0.46812 0.0
C45 C 0.55121 0.70732 0.50875 0.0
C46 C 0.54441 0.56902 0.41163 0.0
O47 O 0.62776 0.59737 0.31715 0.0
O48 O 0.6072 0.63726 0.38939 0.0
O49 O 0.5429 0.60154 0.42442 0.0
O50 O 0.56148 0.55934 0.35518 0.0
O51 O 0.52255 0.63398 0.33068 0.0
H52 H 0.57789 0.6599 0.50129 0.0
H53 H 0.52339 0.70043 0.37346 0.0
O54 O 0.53871 0.59151 0.25885 0.0
O55 O 0.60407 0.62942 0.22107 0.0
O56 O 0.58682 0.67012 0.2954 0.0
C57 C 0.60163 0.66202 0.23631 0.0
H58 H 0.60907 0.50898 0.09269 0.0
H59 H 0.55637 0.72012 0.55428 0.0
Co60 Co 0.1678 0.84867 0.44461 0.0
C61 C 0.17039 0.88627 0.56219 0.0
Co62 Co 0.18273 0.8182 0.51869 0.0
C63 C 0.12218 0.87346 0.3657 0.0
C64 C 0.17046 0.9074 0.36489 0.0
N65 N 0.15301 0.87628 0.38719 0.0
N66 N 0.11994 0.90157 0.33135 0.0
C67 C 0.15019 0.92297 0.33068 0.0
H68 H 0.10089 0.85239 0.37799 0.0
H69 H 0.19555 0.91911 0.37579 0.0
C70 C 0.17105 0.77936 0.40129 0.0
N71 N 0.19843 0.79184 0.57597 0.0
C72 C 0.21883 0.80265 0.62031 0.0
C73 C 0.1908 0.75679 0.58296 0.0
N74 N 0.22415 0.77565 0.65419 0.0
C75 C 0.20671 0.74675 0.63103 0.0
C76 C 0.11224 0.81235 0.53613 0.0
O77 O 0.16767 0.80956 0.3832 0.0
O78 O 0.18188 0.77766 0.45515 0.0
O79 O 0.13719 0.80208 0.55724 0.0
O80 O 0.11904 0.83236 0.48685 0.0
O81 O 0.17959 0.85847 0.58144 0.0
H82 H 0.17419 0.73965 0.55569 0.0
H83 H 0.22931 0.8297 0.6281 0.0
O84 O 0.16661 0.8872 0.50344 0.0
O85 O 0.21625 0.86485 0.40785 0.0
O86 O 0.23065 0.83549 0.48218 0.0
C87 C 0.24022 0.85705 0.436 0.0
H88 H 0.15636 0.94864 0.30947 0.0
H89 H 0.20506 0.72053 0.64871 0.0
Co90 Co 0.9334 0.46104 0.80562 0.0
C91 C 0.99801 0.42899 0.76495 0.0
Co92 Co 0.93902 0.41787 0.86782 0.0
C93 C 0.90714 0.52392 0.76121 0.0
C94 C 0.94505 0.50113 0.68584 0.0
N95 N 0.92889 0.49785 0.74988 0.0
N96 N 0.90954 0.54321 0.70709 0.0
C97 C 0.93356 0.52878 0.65992 0.0
H98 H 0.88908 0.52816 0.80767 0.0
H99 H 0.96301 0.48362 0.65845 0.0
C100 C 0.87243 0.44328 0.89584 0.0
N101 N 0.9408 0.38235 0.92372 0.0
C102 C 0.96282 0.35717 0.91339 0.0
C103 C 0.91918 0.3752 0.9829 0.0
N104 N 0.95564 0.33473 0.96322 0.0
C105 C 0.92797 0.34563 1.00686 0.0
C106 C 0.9662 0.48456 0.91697 0.0
O107 O 0.88723 0.46705 0.85601 0.0
O108 O 0.89174 0.42276 0.91333 0.0
O109 O 0.9594 0.45178 0.92721 0.0
O110 O 0.95727 0.4956 0.86585 0.0
O111 O 0.98542 0.41197 0.81723 0.0
H112 H 0.89807 0.39021 1.00734 0.0
H113 H 0.98335 0.35467 0.86964 0.0
O114 O 0.97987 0.45228 0.75172 0.0
O115 O 0.90972 0.42527 0.75067 0.0
O116 O 0.91913 0.38389 0.81095 0.0
C117 C 0.90591 0.39259 0.76401 0.0
H118 H 0.94133 0.53691 0.60932 0.0
H119 H 0.91523 0.33312 0.05259 0.0
Co120 Co 0.63171 0.81845 0.94633 0.0
C121 C 0.65446 0.8872 0.90382 0.0
Co122 Co 0.67132 0.84523 0.9991 0.0
C123 C 0.56841 0.77851 0.92708 0.0
C124 C 0.60328 0.78983 0.83424 0.0
N125 N 0.60063 0.79436 0.90011 0.0
N126 N 0.55048 0.76493 0.88111 0.0
C127 C 0.57208 0.77168 0.82229 0.0
H128 H 0.55738 0.77854 0.97948 0.0
H129 H 0.62571 0.80041 0.79751 0.0
C130 C 0.64461 0.77752 0.04728 0.0
N131 N 0.70213 0.87011 0.0497 0.0
C132 C 0.73762 0.88045 0.03728 0.0
C133 C 0.69085 0.88103 0.11317 0.0
N134 N 0.74804 0.89773 0.09017 0.0
C135 C 0.71863 0.8982 0.13745 0.0
C136 C 0.5991 0.85757 0.05579 0.0
O137 O 0.62677 0.77798 1.00229 0.0
O138 O 0.66704 0.80416 0.05398 0.0
O139 O 0.63137 0.8632 0.06103 0.0
O140 O 0.5923 0.83769 1.00765 0.0
O141 O 0.67404 0.8864 0.94606 0.0
H142 H 0.66436 0.8756 0.14244 0.0
H143 H 0.75561 0.87427 0.99177 0.0
O144 O 0.63514 0.85885 0.89363 0.0
O145 O 0.67092 0.79966 0.88295 0.0
O146 O 0.7114 0.82659 0.93326 0.0
C147 C 0.70376 0.80644 0.88514 0.0
H148 H 0.56484 0.76611 0.77478 0.0
H149 H 0.71786 0.9081 0.18768 0.0
Co150 Co 0.44603 0.41034 0.67869 0.0
C151 C 0.37979 0.43002 0.68221 0.0
Co152 Co 0.43293 0.45361 0.75001 0.0
C153 C 0.46893 0.34514 0.62306 0.0
C154 C 0.44769 0.37242 0.55618 0.0
N155 N 0.45419 0.3743 0.61801 0.0
N156 N 0.47218 0.32553 0.56694 0.0
C157 C 0.45896 0.34223 0.52431 0.0
H158 H 0.47788 0.33858 0.66615 0.0
H159 H 0.43619 0.39216 0.53518 0.0
C160 C 0.49981 0.43074 0.74444 0.0
N161 N 0.4231 0.49164 0.80845 0.0
C162 C 0.40365 0.51783 0.80289 0.0
C163 C 0.43321 0.49853 0.86676 0.0
N164 N 0.40145 0.54068 0.85525 0.0
C165 C 0.41994 0.52866 0.89559 0.0
C166 C 0.41208 0.38798 0.80921 0.0
O167 O 0.49126 0.4114 0.69728 0.0
O168 O 0.4783 0.45178 0.77487 0.0
O169 O 0.41068 0.4209 0.81977 0.0
O170 O 0.4264 0.37734 0.7511 0.0
O171 O 0.3875 0.45352 0.72448 0.0
H172 H 0.44879 0.4824 0.8875 0.0
H173 H 0.39109 0.52005 0.76163 0.0
O174 O 0.40188 0.40891 0.65844 0.0
O175 O 0.46553 0.44233 0.60953 0.0
O176 O 0.45609 0.48641 0.67999 0.0
C177 C 0.46825 0.47516 0.62142 0.0
H178 H 0.45848 0.33365 0.4738 0.0
H179 H 0.42305 0.54054 0.943 0.0
Co180 Co 0.82628 0.22382 0.52682 0.0
C181 C 0.83786 0.27057 0.6357 0.0
Co182 Co 0.84478 0.19992 0.60557 0.0
C183 C 0.80823 0.24003 0.40128 0.0
C184 C 0.7838 0.26964 0.48556 0.0
N185 N 0.80712 0.24576 0.46672 0.0
N186 N 0.78647 0.25945 0.37953 0.0
C187 C 0.7712 0.2781 0.43225 0.0
H188 H 0.82336 0.22106 0.37085 0.0
H189 H 0.775 0.27912 0.53574 0.0
C190 C 0.83696 0.15421 0.49677 0.0
N191 N 0.86169 0.17804 0.66902 0.0
C192 C 0.89511 0.17079 0.66766 0.0
C193 C 0.84242 0.16472 0.72617 0.0
N194 N 0.89711 0.15307 0.72078 0.0
C195 C 0.86391 0.14884 0.75728 0.0
C196 C 0.77119 0.18772 0.61849 0.0
O197 O 0.82771 0.18087 0.47383 0.0
O198 O 0.84565 0.15774 0.55287 0.0
O199 O 0.79613 0.18398 0.64764 0.0
O200 O 0.77896 0.20687 0.56849 0.0
O201 O 0.84533 0.24288 0.65793 0.0
H202 H 0.81453 0.16659 0.74509 0.0
H203 H 0.9177 0.17801 0.62845 0.0
O204 O 0.82679 0.2674 0.58172 0.0
O205 O 0.87311 0.23904 0.48301 0.0
O206 O 0.89215 0.21502 0.5607 0.0
C207 C 0.89864 0.23141 0.50716 0.0
H208 H 0.75122 0.29545 0.43249 0.0
H209 H 0.85601 0.13588 0.80393 0.0
Co210 Co 0.07031 0.63325 0.16331 0.0
C211 C 0.1346 0.60746 0.12589 0.0
Co212 Co 0.07401 0.59081 0.22664 0.0
C213 C 0.04 0.68194 0.10023 0.0
C214 C 0.09539 0.69731 0.09783 0.0
N215 N 0.06884 0.67127 0.11579 0.0
N216 N 0.04714 0.7144 0.07631 0.0
C217 C 0.08197 0.7241 0.07394 0.0
H218 H 0.01365 0.66766 0.11179 0.0
H219 H 0.12217 0.69776 0.10569 0.0
C220 C 0.01317 0.62522 0.27572 0.0
N221 N 0.07693 0.55065 0.27429 0.0
C222 C 0.10489 0.53648 0.28845 0.0
C223 C 0.04866 0.52693 0.29615 0.0
N224 N 0.09491 0.50503 0.31769 0.0
C225 C 0.05952 0.49918 0.32273 0.0
C226 C 0.10551 0.65486 0.2686 0.0
O227 O 0.02664 0.6433 0.22496 0.0
O228 O 0.02766 0.59808 0.28358 0.0
O229 O 0.09699 0.62313 0.28722 0.0
O230 O 0.09714 0.66256 0.21589 0.0
O231 O 0.12142 0.58713 0.1736 0.0
H232 H 0.02179 0.52909 0.29118 0.0
H233 H 0.13203 0.54853 0.27689 0.0
O234 O 0.11371 0.62556 0.10667 0.0
O235 O 0.04369 0.60388 0.10717 0.0
O236 O 0.04997 0.55897 0.16147 0.0
C237 C 0.03832 0.57087 0.11417 0.0
H238 H 0.09601 0.74958 0.05987 0.0
H239 H 0.04284 0.47597 0.34282 0.0
Co240 Co 0.83769 0.70988 0.5425 0.0
C241 C 0.86788 0.7776 0.496 0.0
Co242 Co 0.87954 0.73331 0.59201 0.0
C243 C 0.77177 0.67286 0.50756 0.0
C244 C 0.8143 0.68711 0.42617 0.0
N245 N 0.80541 0.68905 0.49286 0.0
N246 N 0.7602 0.6607 0.45229 0.0
C247 C 0.78691 0.66961 0.40143 0.0
H248 H 0.75573 0.67119 0.557 0.0
H249 H 0.83899 0.69849 0.39652 0.0
C250 C 0.85415 0.66425 0.63093 0.0
N251 N 0.91312 0.75332 0.63652 0.0
C252 C 0.94488 0.76932 0.6076 0.0
C253 C 0.91507 0.74994 0.70001 0.0
N254 N 0.96717 0.77476 0.6495 0.0
C255 C 0.94878 0.76285 0.70799 0.0
C256 C 0.80919 0.74805 0.66039 0.0
O257 O 0.8331 0.66689 0.59208 0.0
O258 O 0.87482 0.69155 0.64087 0.0
O259 O 0.84248 0.75324 0.66029 0.0
O260 O 0.79989 0.72932 0.61198 0.0
O261 O 0.88621 0.77545 0.53959 0.0
H262 H 0.89441 0.73644 0.73649 0.0
H263 H 0.95278 0.77363 0.55521 0.0
O264 O 0.84362 0.75242 0.49111 0.0
O265 O 0.87482 0.69076 0.47592 0.0
O266 O 0.91648 0.71259 0.5259 0.0
C267 C 0.90748 0.69385 0.47803 0.0
H268 H 0.78567 0.66565 0.34978 0.0
H269 H 0.95977 0.76111 0.75138 0.0
Co270 Co 0.09058 0.09746 0.78732 0.0
C271 C 0.02554 0.11994 0.78674 0.0
Co272 Co 0.07795 0.14077 0.8588 0.0
C273 C 0.11722 0.0324 0.7364 0.0
C274 C 0.10412 0.06153 0.66165 0.0
N275 N 0.10298 0.06161 0.72706 0.0
N276 N 0.12758 1.01451 0.67913 0.0
C277 C 0.11902 0.0325 0.63218 0.0
H278 H 0.11976 1.02429 0.78411 0.0
H279 H 0.09503 0.08144 0.63681 0.0
C280 C 0.14292 0.11815 0.85788 0.0
N281 N 0.06827 0.17823 0.91741 0.0
C282 C 0.0369 0.19121 0.93802 0.0
C283 C 0.09296 0.2045 0.92962 0.0
N284 N 0.04132 0.22516 0.95832 0.0
C285 C 0.07644 0.23343 0.95443 0.0
C286 C 0.05257 0.07483 0.91247 0.0
O287 O 0.13516 0.09798 0.81133 0.0
O288 O 0.12103 0.13865 0.88742 0.0
O289 O 0.05326 0.10784 0.92423 0.0
O290 O 0.06864 0.06399 0.85587 0.0
O291 O 0.03556 0.14228 0.8287 0.0
H292 H 0.12136 0.20422 0.91391 0.0
H293 H 0.01182 0.17793 0.92989 0.0
O294 O 0.04544 0.09646 0.7627 0.0
O295 O 0.11191 0.13201 0.71969 0.0
O296 O 0.10132 0.17408 0.79363 0.0
C297 C 0.11318 0.16483 0.73416 0.0
H298 H 0.12233 1.02449 0.5805 0.0
H299 H 0.08942 0.25953 0.96224 0.0
Co300 Co 0.66053 0.3511 0.97416 0.0
C301 C 0.67577 0.38452 0.08994 0.0
Co302 Co 0.68396 0.31777 0.03213 0.0
C303 C 0.63482 0.38661 0.87379 0.0
C304 C 0.60857 0.3957 0.97388 0.0
N305 N 0.63535 0.37958 0.93663 0.0
N306 N 0.60794 0.40555 0.87106 0.0
C307 C 0.59176 0.41136 0.93405 0.0
H308 H 0.65299 0.37714 0.8313 0.0
H309 H 0.60053 0.39474 0.02698 0.0
C310 C 0.66164 0.28335 0.91767 0.0
N311 N 0.70851 0.28969 0.07269 0.0
C312 C 0.71421 0.29168 0.13502 0.0
C313 C 0.72792 0.26437 0.04186 0.0
N314 N 0.73628 0.26864 0.14373 0.0
C315 C 0.74491 0.25132 0.08549 0.0
C316 C 0.61354 0.30976 0.07029 0.0
O317 O 0.65679 0.31449 0.90617 0.0
O318 O 0.6758 0.27936 0.96684 0.0
O319 O 0.64085 0.30031 0.08543 0.0
O320 O 0.61677 0.33052 0.02361 0.0
O321 O 0.68876 0.35656 0.0983 0.0
H322 H 0.73066 0.25668 0.9902 0.0
H323 H 0.7033 0.31024 0.17281 0.0
O324 O 0.66279 0.38615 0.03964 0.0
O325 O 0.70551 0.3728 0.92835 0.0
O326 O 0.72862 0.33604 0.97886 0.0
C327 C 0.7329 0.36276 0.94353 0.0
H328 H 0.56809 0.4245 0.94985 0.0
H329 H 0.76303 0.23149 0.07495 0.0
Co330 Co 0.43132 0.9595 0.3128 0.0
C331 C 0.49203 0.92277 0.26099 0.0
Co332 Co 0.43743 0.91631 0.37354 0.0
C333 C 0.39951 1.01546 0.25625 0.0
C334 C 0.4563 1.02159 0.23456 0.0
N335 N 0.42807 0.99985 0.26437 0.0
N336 N 0.40908 0.04587 0.22304 0.0
C337 C 0.44483 0.0495 0.20925 0.0
H338 H 0.37224 1.00515 0.27509 0.0
H339 H 0.48371 1.01794 0.2328 0.0
C340 C 0.3733 0.94424 0.41517 0.0
N341 N 0.43788 0.87845 0.42198 0.0
C342 C 0.46612 0.86607 0.43649 0.0
C343 C 0.41012 0.85382 0.44164 0.0
N344 N 0.45734 0.83383 0.46112 0.0
C345 C 0.42213 0.82613 0.46531 0.0
C346 C 0.46894 0.97898 0.42388 0.0
O347 O 0.38567 0.96539 0.36866 0.0
O348 O 0.39411 0.92436 0.4294 0.0
O349 O 0.46338 0.94594 0.43079 0.0
O350 O 0.45774 0.991 0.37597 0.0
O351 O 0.48086 0.90651 0.31452 0.0
H352 H 0.38335 0.85484 0.43501 0.0
H353 H 0.49309 0.87881 0.4233 0.0
O354 O 0.47665 0.94942 0.2525 0.0
O355 O 0.40551 0.92763 0.25548 0.0
O356 O 0.41135 0.88597 0.31816 0.0
C357 C 0.39972 0.89506 0.26957 0.0
H358 H 0.46154 0.0713 0.18377 0.0
H359 H 0.40682 0.80129 0.48012 0.0
Co360 Co 0.13102 0.32183 0.45368 0.0
C361 C 0.15193 0.39108 0.41264 0.0
Co362 Co 0.1725 0.34974 0.50169 0.0
C363 C 0.06579 0.2827 0.44058 0.0
C364 C 0.09803 0.29368 0.34518 0.0
N365 N 0.09803 0.29753 0.4103 0.0
N366 N 0.04543 0.27036 0.39744 0.0
C367 C 0.06539 0.27697 0.33708 0.0
H368 H 0.05654 0.28264 0.4936 0.0
H369 H 0.11957 0.30398 0.30648 0.0
C370 C 0.14759 0.28142 0.5493 0.0
N371 N 0.20335 0.37413 0.55213 0.0
C372 C 0.23838 0.38628 0.53847 0.0
C373 C 0.19295 0.38137 0.61764 0.0
N374 N 0.24943 0.40075 0.59295 0.0
C375 C 0.22088 0.39777 0.64232 0.0
C376 C 0.10072 0.36025 0.56398 0.0
O377 O 0.12752 0.28203 0.50819 0.0
O378 O 0.17062 0.30798 0.55237 0.0
O379 O 0.13332 0.36613 0.5662 0.0
O380 O 0.09231 0.34031 0.5174 0.0
O381 O 0.17336 0.39123 0.45186 0.0
H382 H 0.1671 0.37359 0.64768 0.0
H383 H 0.25585 0.3826 0.49109 0.0
O384 O 0.13327 0.36234 0.402 0.0
O385 O 0.17059 0.30336 0.38823 0.0
O386 O 0.2117 0.33317 0.43443 0.0
C387 C 0.20368 0.31195 0.38829 0.0
H388 H 0.05628 0.27202 0.29114 0.0
H389 H 0.221 0.40453 0.69373 0.0
Co390 Co 0.9453 0.91238 0.16997 0.0
C391 C 0.87939 0.93561 0.17224 0.0
Co392 Co 0.93201 0.9562 0.24034 0.0
C393 C 0.96944 0.84789 0.11456 0.0
C394 C 0.93918 0.8689 0.05426 0.0
N395 N 0.95216 0.87547 0.10998 0.0
N396 N 0.96757 0.82431 0.06446 0.0
C397 C 0.9482 0.83698 0.02658 0.0
H398 H 0.98229 0.84451 0.15497 0.0
H399 H 0.92348 0.88581 0.03567 0.0
C400 C 0.99766 0.93049 0.23779 0.0
N401 N 0.9248 0.99505 0.29872 0.0
C402 C 0.89461 1.00926 0.32649 0.0
C403 C 0.95122 1.01844 0.31413 0.0
N404 N 0.90152 0.04039 0.35808 0.0
C405 C 0.937 0.04616 0.35069 0.0
C406 C 0.90934 0.89009 0.29842 0.0
O407 O 0.98984 0.91088 0.19047 0.0
O408 O 0.9764 0.9521 0.26612 0.0
O409 O 0.90753 0.92309 0.30875 0.0
O410 O 0.92464 0.88009 0.24072 0.0
O411 O 0.88768 0.95907 0.21396 0.0
H412 H 0.97929 1.01642 0.29728 0.0
H413 H 0.86825 0.99782 0.32169 0.0
O414 O 0.90047 0.91322 0.1498 0.0
O415 O 0.96689 0.94446 0.10074 0.0
O416 O 0.95681 0.98834 0.17163 0.0
C417 C 0.97018 0.97737 0.11358 0.0
H418 H 0.94092 0.82394 0.98283 0.0
H419 H 0.95153 0.06935 0.36871 0.0
Co420 Co 0.3305 0.72979 1.00732 0.0
C421 C 0.34273 0.77055 0.12428 0.0
Co422 Co 0.34804 0.70102 0.08098 0.0
C423 C 0.29902 0.74814 0.90018 0.0
C424 C 0.32756 0.79241 0.94095 0.0
N425 N 0.31802 0.75748 0.94735 0.0
N426 N 0.29644 0.77582 0.8653 0.0
C427 C 0.31426 0.80375 0.89052 0.0
H428 H 0.28757 0.72166 0.89085 0.0
H429 H 0.34347 0.80875 0.97061 0.0
C430 C 0.34244 0.66258 0.9636 0.0
N431 N 0.36154 0.67258 0.13916 0.0
C432 C 0.39266 0.67418 0.15961 0.0
C433 C 0.34392 0.64115 0.15917 0.0
N434 N 0.39504 0.64489 0.19065 0.0
C435 C 0.36443 0.62413 0.19066 0.0
C436 C 0.2735 0.69165 0.08609 0.0
O437 O 0.33043 0.68934 0.94701 0.0
O438 O 0.35083 0.66287 1.01938 0.0
O439 O 0.29828 0.68376 0.1126 0.0
O440 O 0.28115 0.71614 0.04491 0.0
O441 O 0.34706 0.74086 0.14406 0.0
H442 H 0.31872 0.6301 0.14786 0.0
H443 H 0.41405 0.69533 0.14863 0.0
O444 O 0.33338 0.77107 0.06879 0.0
O445 O 0.37801 0.74111 0.96752 0.0
O446 O 0.39668 0.71697 0.04455 0.0
C447 C 0.40349 0.73306 0.99056 0.0
H448 H 0.31743 0.83027 0.87346 0.0
H449 H 0.35813 0.59791 0.20951 0.0
Co450 Co 0.56337 0.13243 0.67551 0.0
C451 C 0.63056 0.10893 0.64098 0.0
Co452 Co 0.57081 0.09084 0.73836 0.0
C453 C 0.54388 0.19432 0.62673 0.0
C454 C 0.56968 0.16057 0.55071 0.0
N455 N 0.55961 0.16473 0.61702 0.0
N456 N 0.54388 0.20846 0.56901 0.0
C457 C 0.56001 0.18759 0.52096 0.0
H458 H 0.53131 0.20445 0.67461 0.0
H459 H 0.58177 0.13832 0.52539 0.0
C460 C 0.50685 0.12356 0.78378 0.0
N461 N 0.57703 0.0544 0.79357 0.0
C462 C 0.59908 0.02859 0.78074 0.0
C463 C 0.56061 0.04986 0.85723 0.0
N464 N 0.59689 1.0085 0.83372 0.0
C465 C 0.57262 1.02202 0.88169 0.0
C466 C 0.59736 0.16029 0.77765 0.0
O467 O 0.51854 0.14056 0.73114 0.0
O468 O 0.52326 0.0978 0.79304 0.0
O469 O 0.59254 0.12802 0.7942 0.0
O470 O 0.58628 0.16786 0.72715 0.0
O471 O 0.6183 0.08781 0.68752 0.0
H472 H 0.54139 0.06605 0.88495 0.0
H473 H 0.61676 0.02475 0.73372 0.0
O474 O 0.60872 0.12658 0.624 0.0
O475 O 0.54011 0.09749 0.62168 0.0
O476 O 0.5486 0.05425 0.67738 0.0
C477 C 0.53669 0.0646 0.62898 0.0
H478 H 0.56308 0.19096 0.46853 0.0
H479 H 0.56458 1.01274 0.9315 0.0
C480 C 0.52858 0.25044 0.12945 0.0
C481 C 0.50583 0.27614 0.15496 0.0
C482 C 0.55577 0.32221 0.13972 0.0
C483 C 0.57782 0.2972 0.10616 0.0
N484 N 0.58537 0.23808 0.06352 0.0
N485 N 0.49566 0.33603 0.18236 0.0
C486 C 0.56451 0.26126 0.10039 0.0
C487 C 0.51893 0.3119 0.1605 0.0
N488 N 0.51541 0.21575 0.13288 0.0
N489 N 0.57021 0.35569 0.15174 0.0
H490 H 0.46848 0.3289 0.19891 0.0
H491 H 0.50275 0.36306 0.1806 0.0
H492 H 0.59709 0.36423 0.13574 0.0
H493 H 0.55632 0.37423 0.18154 0.0
H494 H 0.53111 0.19531 0.12055 0.0
H495 H 0.48888 0.20745 0.15342 0.0
H496 H 0.57583 0.21258 0.0509 0.0
H497 H 0.61193 0.24493 0.04143 0.0
C498 C 0.49159 0.76029 0.52733 0.0
C499 C 0.51911 0.7527 0.47354 0.0
C500 C 0.50705 0.79992 0.41198 0.0
C501 C 0.48099 0.8091 0.46724 0.0
N502 N 0.455 0.80423 0.58272 0.0
N503 N 0.56076 0.77231 0.37568 0.0
C504 C 0.47562 0.79139 0.52695 0.0
C505 C 0.5296 0.77519 0.41976 0.0
N506 N 0.47895 0.73681 0.57601 0.0
N507 N 0.5083 0.81212 0.35092 0.0
H508 H 0.57831 0.75487 0.38183 0.0
H509 H 0.57074 0.78978 0.3378 0.0
H510 H 0.48983 0.82738 0.34093 0.0
H511 H 0.52507 0.80346 0.30847 0.0
H512 H 0.45649 0.73971 0.61277 0.0
H513 H 0.48884 0.71287 0.57644 0.0
H514 H 0.45238 0.79387 0.62904 0.0
H515 H 0.44346 0.82741 0.58339 0.0
C516 C 0.05938 0.82083 0.62494 0.0
C517 C 0.07582 0.80068 0.57031 0.0
C518 C 0.02356 0.75701 0.58647 0.0
C519 C 1.00486 0.78161 0.62937 0.0
N520 N 1.00384 0.83726 0.68879 0.0
N521 N 0.078 0.74512 0.5104 0.0
C522 C 0.0225 0.81352 0.64897 0.0
C523 C 0.05919 0.76726 0.55423 0.0
N524 N 0.07935 0.84482 0.6572 0.0
N525 N 0.00716 0.72384 0.57844 0.0
H526 H 0.10511 0.7507 0.49146 0.0
H527 H 0.06733 0.72114 0.49305 0.0
H528 H 0.98175 0.71542 0.60482 0.0
H529 H 0.01904 0.70386 0.54948 0.0
H530 H 0.06883 0.85804 0.70086 0.0
H531 H 0.10702 0.84851 0.64419 0.0
H532 H 0.01504 0.8626 0.69891 0.0
H533 H 0.97659 0.83235 0.70767 0.0
C534 C 0.99165 0.30214 1.01872 0.0
C535 C 0.97352 0.3046 0.96682 0.0
C536 C 1.00073 0.25488 0.90821 0.0
C537 C 0.01637 0.2503 0.96276 0.0
N538 N 0.02076 0.26477 0.07526 0.0
N539 N 0.95268 0.27747 0.87238 0.0
C540 C 0.00976 0.2724 1.01995 0.0
C541 C 0.97535 0.27891 0.91495 0.0
N542 N 0.99345 0.32909 0.06433 0.0
N543 N 0.01198 0.23855 0.84849 0.0
H544 H 0.93303 0.29427 0.8776 0.0
H545 H 0.95092 0.25729 0.83688 0.0
H546 H 0.03315 0.22352 0.83895 0.0
H547 H 1.0032 0.24351 0.80613 0.0
H548 H 0.00922 0.33006 0.0995 0.0
H549 H 0.9819 0.35204 0.06316 0.0
H550 H 0.01402 0.27822 0.12043 0.0
H551 H 0.03378 0.2428 0.07726 0.0
C552 C 0.49995 0.72096 0.91803 0.0
C553 C 0.51301 0.75478 0.89464 0.0
C554 C 0.45329 0.77283 0.92141 0.0
C555 C 0.44049 0.74005 0.95225 0.0
N556 N 0.44901 0.679 0.95776 0.0
N557 N 0.5043 0.81436 0.88011 0.0
C558 C 0.46312 0.71291 0.94443 0.0
C559 C 0.49017 0.78084 0.89666 0.0
N560 N 0.52342 0.69721 0.91774 0.0
N561 N 0.43075 0.79623 0.91367 0.0
H562 H 0.53115 0.82131 0.86031 0.0
H563 H 0.49005 0.83596 0.89073 0.0
H564 H 0.40374 0.79397 0.93307 0.0
H565 H 0.43855 0.81737 0.88262 0.0
H566 H 0.51689 0.67359 0.94198 0.0
H567 H 0.55031 0.7022 0.89574 0.0
H568 H 0.46352 0.65761 0.9474 0.0
H569 H 0.42187 0.67136 0.97252 0.0
C570 C 0.47027 0.26187 0.56764 0.0
C571 C 0.4901 0.295 0.5546 0.0
C572 C 0.54578 0.27038 0.54648 0.0
C573 C 0.52593 0.2373 0.56008 0.0
N574 N 0.4711 0.19902 0.57148 0.0
N575 N 0.54549 0.33111 0.52064 0.0
C576 C 0.4886 0.23223 0.56666 0.0
C577 C 0.52764 0.29925 0.53997 0.0
N578 N 0.43403 0.25941 0.58389 0.0
N579 N 0.58166 0.27416 0.54292 0.0
H580 H 0.53236 0.35269 0.51635 0.0
H581 H 0.57291 0.33564 0.50444 0.0
H582 H 0.59543 0.25308 0.54746 0.0
H583 H 0.59755 0.29818 0.53917 0.0
H584 H 0.41782 0.23674 0.60087 0.0
H585 H 0.42015 0.28092 0.58323 0.0
H586 H 0.44419 0.19305 0.57112 0.0
H587 H 0.4842 0.17688 0.5712 0.0
C588 C 0.95847 0.21449 0.45162 0.0
C589 C 0.93586 0.24116 0.47283 0.0
C590 C 0.98454 0.28605 0.42895 0.0
C591 C 0.00789 0.25987 0.41505 0.0
N592 N 0.01905 0.20006 0.4172 0.0
N593 N 0.92802 0.30261 0.48882 0.0
C594 C 0.99533 0.22425 0.42718 0.0
C595 C 0.94893 0.27705 0.46265 0.0
N596 N 0.94449 0.17996 0.4529 0.0
N597 N 0.99677 0.31963 0.41031 0.0
H598 H 0.90208 0.29697 0.51496 0.0
H599 H 0.93713 0.32927 0.4895 0.0
H600 H 0.02308 0.32709 0.38732 0.0
H601 H 0.98043 0.3394 0.41277 0.0
H602 H 0.95898 0.1595 0.43249 0.0
H603 H 0.9175 0.17185 0.4693 0.0
H604 H 0.01253 0.17424 0.43212 0.0
H605 H 0.04601 0.2066 0.39727 0.0
C606 C 0.02702 0.75412 1.00747 0.0
C607 C 0.02206 0.73725 0.06802 0.0
C608 C 0.97134 0.76905 0.11248 0.0
C609 C 0.98139 0.79119 0.05825 0.0
N610 N 0.02066 0.80675 0.95487 0.0
N611 N 0.99308 0.73359 0.18341 0.0
C612 C 0.00935 0.78396 1.00504 0.0
C613 C 0.99474 0.74545 0.1219 0.0
N614 N 0.04888 0.74167 0.95287 0.0
N615 N 0.93993 0.77162 0.15589 0.0
H616 H 0.01187 0.71914 0.19467 0.0
H617 H 0.97535 0.74164 0.22509 0.0
H618 H 0.92228 0.78882 0.14906 0.0
H619 H 0.92996 0.75418 0.19379 0.0
H620 H 0.05141 0.75122 0.90593 0.0
H621 H 0.06171 0.71945 0.95381 0.0
H622 H 0.04345 0.80457 0.91854 0.0
H623 H 0.00886 0.82937 0.9522 0.0
C624 C 0.2082 0.13777 0.83603 0.0
C625 C 0.17787 0.11944 0.87582 0.0
C626 C 0.20833 0.1212 0.96774 0.0
C627 C 0.23692 0.14284 0.93074 0.0
N628 N 0.26981 0.16323 0.82653 0.0
N629 N 0.15335 0.08292 0.96821 0.0
C630 C 0.23888 0.14764 0.86313 0.0
C631 C 0.17948 0.10738 0.93806 0.0
N632 N 0.20674 0.14769 0.77456 0.0
N633 N 0.20781 0.11624 0.03253 0.0
H634 H 0.13276 0.07181 0.94545 0.0
H635 H 0.1539 0.07131 1.012 0.0
H636 H 0.22928 0.12559 0.05432 0.0
H637 H 0.18593 0.10413 0.06487 0.0
H638 H 0.22649 0.1644 0.74586 0.0
H639 H 0.18492 0.14008 0.75281 0.0
H640 H 0.27437 0.16598 0.77574 0.0
H641 H 0.29209 0.17088 0.84714 0.0
C642 C 0.6902 0.44884 0.10976 0.0
C643 C 0.67398 0.416 0.13592 0.0
C644 C 0.62805 0.44594 0.21074 0.0
C645 C 0.64255 0.47815 0.18025 0.0
N646 N 0.69274 0.51253 0.11702 0.0
N647 N 0.63577 0.38513 0.22584 0.0
C648 C 0.67565 0.48028 0.13539 0.0
C649 C 0.64588 0.41534 0.19203 0.0
N650 N 0.71817 0.44945 0.05727 0.0
N651 N 0.59611 0.44413 0.25404 0.0
H652 H 0.64866 0.36274 0.21208 0.0
H653 H 0.61701 0.38321 0.2699 0.0
H654 H 0.5826 0.46606 0.26824 0.0
H655 H 0.58213 0.42074 0.27287 0.0
H656 H 0.72883 0.4716 0.0301 0.0
H657 H 0.72976 0.42683 0.03964 0.0
H658 H 0.7183 0.51647 0.0883 0.0
H659 H 0.68231 0.53571 0.13577 0.0
C660 C 0.31155 0.93522 0.39071 0.0
C661 C 0.33406 0.93226 0.43517 0.0
C662 C 0.29797 0.87757 0.47461 0.0
C663 C 0.27606 0.87923 0.42769 0.0
N664 N 0.27166 0.90418 0.32583 0.0
N665 N 0.33846 0.90964 0.53782 0.0
C666 C 0.28521 0.90682 0.38182 0.0
C667 C 0.32349 0.90649 0.48352 0.0
N668 N 0.31415 0.96595 0.35956 0.0
N669 N 0.29794 0.84685 0.50459 0.0
H670 H 0.35661 0.93125 0.5454 0.0
H671 H 0.32988 0.89331 0.57783 0.0
H672 H 0.28565 0.82297 0.48944 0.0
H673 H 0.31511 0.84376 0.53577 0.0
H674 H 0.29675 0.97086 0.33002 0.0
H675 H 0.33035 0.98813 0.37167 0.0
H676 H 0.27957 0.92214 0.28834 0.0
H677 H 0.25692 0.88139 0.31208 0.0
C678 C 0.85569 0.5964 0.62505 0.0
C679 C 0.85858 0.62972 0.65985 0.0
C680 C 0.89139 0.60389 0.73233 0.0
C681 C 0.8889 0.57115 0.69728 0.0
N682 N 0.85874 0.53346 0.62533 0.0
N683 N 0.86644 0.6588 0.76297 0.0
C684 C 0.86793 0.56666 0.6483 0.0
C685 C 0.87243 0.63136 0.71871 0.0
N686 N 0.84269 0.59276 0.56844 0.0
N687 N 0.91327 0.60953 0.77647 0.0
H688 H 0.85042 0.67778 0.75705 0.0
H689 H 0.87346 0.6602 0.80895 0.0
H690 H 0.92788 0.59034 0.78684 0.0
H691 H 0.91916 0.6341 0.79832 0.0
H692 H 0.84589 0.57109 0.53597 0.0
H693 H 0.8295 0.61125 0.55211 0.0
H694 H 0.84055 0.52756 0.59463 0.0
H695 H 0.86634 0.51136 0.64306 0.0
C696 C 0.79377 0.88542 0.14763 0.0
C697 C 0.78319 0.90627 0.1031 0.0
C698 C 0.83513 0.94956 0.10701 0.0
C699 C 0.84373 0.92986 0.15596 0.0
N700 N 0.82618 0.88421 0.2348 0.0
N701 N 0.79061 0.95982 0.04533 0.0
C702 C 0.82151 0.89925 0.17973 0.0
C703 C 0.8031 0.93885 0.08388 0.0
N704 N 0.77715 0.85218 0.15874 0.0
N705 N 0.85782 0.97795 0.08208 0.0
H706 H 0.76772 0.9519 0.02677 0.0
H707 H 0.80175 0.98546 0.03468 0.0
H708 H 0.88032 0.98735 0.10084 0.0
H709 H 0.85516 0.99118 0.04136 0.0
H710 H 0.7857 0.8344 0.18624 0.0
H711 H 0.75698 0.84128 0.13477 0.0
H712 H 0.80891 0.86354 0.25796 0.0
H713 H 0.84514 0.89506 0.26149 0.0
C714 C 0.33232 0.59839 0.9385 0.0
C715 C 0.35008 0.63174 0.91836 0.0
C716 C 0.39642 0.60324 0.84139 0.0
C717 C 0.38148 0.57052 0.86897 0.0
N718 N 0.33419 0.5352 0.93776 0.0
N719 N 0.39718 0.66679 0.84736 0.0
C720 C 0.34871 0.56757 0.91508 0.0
C721 C 0.38114 0.63437 0.86743 0.0
N722 N 0.29994 0.59666 0.98074 0.0
N723 N 0.42571 0.60431 0.79131 0.0
H724 H 0.3858 0.68978 0.86325 0.0
H725 H 0.42201 0.67134 0.81634 0.0
H726 H 0.43793 0.58199 0.77343 0.0
H727 H 0.43687 0.62655 0.76487 0.0
H728 H 0.2842 0.57346 0.99585 0.0
H729 H 0.28765 0.61906 0.99771 0.0
H730 H 0.31196 0.53076 0.97556 0.0
H731 H 0.34511 0.5123 0.91889 0.0
C732 C 0.69552 0.10965 0.65281 0.0
C733 C 0.66989 0.12254 0.62323 0.0
C734 C 0.7073 0.17902 0.60876 0.0
C735 C 0.73469 0.1664 0.63345 0.0
N736 N 0.75476 0.11627 0.67574 0.0
N737 N 0.6633 0.16278 0.54283 0.0
C738 C 0.72876 0.13079 0.65508 0.0
C739 C 0.67951 0.15511 0.59169 0.0
N740 N 0.68847 0.07684 0.67768 0.0
N741 N 0.70718 0.21418 0.60262 0.0
H742 H 0.64638 0.1439 0.52272 0.0
H743 H 0.67094 0.18565 0.5162 0.0
H744 H 0.72532 0.23291 0.62004 0.0
H745 H 0.6864 0.22447 0.58827 0.0
H746 H 0.702 0.06799 0.71072 0.0
H747 H 0.66902 0.05823 0.66416 0.0
H748 H 0.7542 0.08944 0.68125 0.0
H749 H 0.7777 0.13024 0.68599 0.0
C750 C 0.1345 0.45373 0.42783 0.0
C751 C 0.14493 0.42453 0.38512 0.0
C752 C 0.12698 0.45199 0.29432 0.0
C753 C 0.11656 0.48074 0.33697 0.0
N754 N 0.1172 0.51302 0.43898 0.0
N755 N 0.15902 0.40055 0.27408 0.0
C756 C 0.12288 0.48292 0.40187 0.0
C757 C 0.14359 0.42519 0.31713 0.0
N758 N 0.13298 0.45267 0.49415 0.0
N759 N 0.11983 0.44987 0.23242 0.0
H760 H 0.17218 0.38133 0.28897 0.0
H761 H 0.16179 0.40106 0.22313 0.0
H762 H 0.10916 0.46983 0.21389 0.0
H763 H 0.12269 0.42782 0.20093 0.0
H764 H 0.12134 0.47084 0.52852 0.0
H765 H 0.14053 0.43217 0.51646 0.0
H766 H 0.12466 0.51834 0.48425 0.0
H767 H 0.10774 0.53411 0.42148 0.0
C768 C 0.6808 0.60283 0.4159 0.0
C769 C 0.66593 0.62785 0.38565 0.0
C770 C 0.7069 0.67503 0.4213 0.0
C771 C 0.72468 0.6499 0.44383 0.0
N772 N 0.73149 0.58993 0.45854 0.0
N773 N 0.6704 0.68649 0.34608 0.0
C774 C 0.71231 0.61371 0.44037 0.0
C775 C 0.68046 0.66368 0.38484 0.0
N776 N 0.66441 0.56926 0.42286 0.0
N777 N 0.71617 0.70989 0.4336 0.0
H778 H 0.6529 0.67855 0.31479 0.0
H779 H 0.68246 0.71217 0.33904 0.0
H780 H 0.73591 0.71879 0.45996 0.0
H781 H 0.70203 0.72954 0.42354 0.0
H782 H 0.67208 0.55086 0.45029 0.0
H783 H 0.6416 0.56044 0.40467 0.0
H784 H 0.72624 0.56292 0.45077 0.0
H785 H 0.75393 0.59769 0.47863 0.0
C786 C 0.11144 0.95307 0.65406 0.0
C787 C 0.13705 0.97934 0.66987 0.0
C788 C 0.18278 0.93919 0.63639 0.0
C789 C 0.1582 0.91578 0.60786 0.0
N790 N 0.09975 0.90596 0.57884 0.0
N791 N 0.19725 0.99894 0.67766 0.0
C792 C 0.12257 0.92397 0.61435 0.0
C793 C 0.17279 0.97265 0.66266 0.0
N794 N 0.07622 0.95682 0.67499 0.0
N795 N 0.2158 0.93016 0.63585 0.0
H796 H 0.19001 1.02314 0.69797 0.0
H797 H 0.2245 0.99739 0.66738 0.0
H798 H 0.22415 0.90651 0.61478 0.0
H799 H 0.23396 0.94493 0.66009 0.0
H800 H 0.05604 0.93682 0.66979 0.0
H801 H 0.06757 0.97851 0.70378 0.0
H802 H 0.07564 0.91435 0.57554 0.0
H803 H 0.1054 0.88395 0.54939 0.0
C804 C 0.7873 0.39497 0.98286 0.0
C805 C 0.76837 0.38548 0.93051 0.0
C806 C 0.81461 0.42345 0.85665 0.0
C807 C 0.83299 0.43256 0.90941 0.0
N808 N 0.83062 0.4363 0.02546 0.0
N809 N 0.7634 0.39295 0.8183 0.0
C810 C 0.81724 0.42109 0.97318 0.0
C811 C 0.78174 0.40073 0.86791 0.0
N812 N 0.77741 0.37927 0.04245 0.0
N813 N 0.8294 0.43471 0.79458 0.0
H814 H 0.74272 0.37263 0.82029 0.0
H815 H 0.76808 0.40708 0.77545 0.0
H816 H 0.84965 0.45529 0.78475 0.0
H817 H 0.82171 0.42358 0.75206 0.0
H818 H 0.79392 0.38087 0.07644 0.0
H819 H 0.75393 0.36334 0.05825 0.0
H820 H 0.8182 0.43243 0.07458 0.0
H821 H 0.85211 0.45602 1.01942 0.0
C822 C 0.37672 0.09887 0.25216 0.0
C823 C 0.38705 0.07102 0.20695 0.0
C824 C 0.36742 0.10033 0.12009 0.0
C825 C 0.3571 0.12859 0.16535 0.0
N826 N 0.34463 0.15025 0.27802 0.0
N827 N 0.38555 0.04133 0.10279 0.0
C828 C 0.35945 0.12629 0.2326 0.0
C829 C 0.37998 0.07055 0.14259 0.0
N830 N 0.38489 0.0998 0.31316 0.0
N831 N 0.36779 0.10288 0.05452 0.0
H832 H 0.39527 1.01974 0.11801 0.0
H833 H 0.37775 0.03717 0.05762 0.0
H834 H 0.35834 0.12333 0.03541 0.0
H835 H 0.37961 0.08582 1.018 0.0
H836 H 0.38206 0.12113 0.34645 0.0
H837 H 0.39653 0.0797 0.329 0.0
H838 H 0.34254 0.14873 0.32864 0.0
H839 H 0.33133 0.16999 0.26534 0.0
C840 C 0.30018 0.4434 0.60859 0.0
C841 C 0.28485 0.40812 0.60451 0.0
C842 C 0.32767 0.38933 0.6621 0.0
C843 C 0.34503 0.42429 0.66194 0.0
N844 N 0.35115 0.48377 0.62562 0.0
N845 N 0.28694 0.34672 0.6165 0.0
C846 C 0.33219 0.45126 0.63278 0.0
C847 C 0.29982 0.38086 0.62741 0.0
N848 N 0.28341 0.46936 0.59077 0.0
N849 N 0.33675 0.36445 0.698 0.0
H850 H 0.26577 0.33967 0.59281 0.0
H851 H 0.29917 0.32539 0.62547 0.0
H852 H 0.35659 0.36944 0.72532 0.0
H853 H 0.32239 0.33976 0.70612 0.0
H854 H 0.2907 0.49599 0.59937 0.0
H855 H 0.26081 0.46388 0.57033 0.0
H856 H 0.34509 0.50323 0.59838 0.0
H857 H 0.37454 0.49064 0.64295 0.0
C858 C 0.84388 0.08963 0.49204 0.0
C859 C 0.84155 0.12 0.45788 0.0
C860 C 0.86931 0.09158 0.3539 0.0
C861 C 0.87694 0.06437 0.39002 0.0
N862 N 0.87167 0.03642 0.49239 0.0
N863 N 0.83525 0.14035 0.35349 0.0
C864 C 0.86367 0.06277 0.45872 0.0
C865 C 0.84921 0.11831 0.38769 0.0
N866 N 0.82528 0.08571 0.55532 0.0
N867 N 0.88267 0.0925 0.28757 0.0
H868 H 0.81591 0.15607 0.37642 0.0
H869 H 0.83833 0.13916 0.30238 0.0
H870 H 0.89634 0.07257 0.26161 0.0
H871 H 0.88203 0.11372 0.25909 0.0
H872 H 0.8236 0.06324 0.58197 0.0
H873 H 0.80785 0.10343 0.57801 0.0
H874 H 0.86677 0.03592 0.54366 0.0
H875 H 0.88519 1.01589 0.46857 0.0
C876 C 0.18818 0.63707 0.04717 0.0
C877 C 0.17421 0.61952 0.10705 0.0
C878 C 0.22366 0.65055 0.1537 0.0
C879 C 0.23832 0.66795 0.09369 0.0
N880 N 0.23979 0.66568 0.97563 0.0
N881 N 0.19053 0.59729 0.20123 0.0
C882 C 0.22199 0.65803 0.03817 0.0
C883 C 0.19554 0.62244 0.15559 0.0
N884 N 0.16963 0.63284 0.99754 0.0
N885 N 0.23582 0.66118 0.2097 0.0
H886 H 0.17467 0.5737 0.19658 0.0
H887 H 0.20662 0.59708 0.2356 0.0
H888 H 0.25386 0.68351 0.21238 0.0
H889 H 0.22508 0.65011 0.25519 0.0
H890 H 0.17511 0.64909 0.95729 0.0
H891 H 0.14817 0.61344 0.99772 0.0
H892 H 0.23059 0.6563 0.93342 0.0
H893 H 0.26588 0.67702 0.9646 0.0
C894 C 0.61203 0.94689 0.80911 0.0
C895 C 0.61742 0.98008 0.84135 0.0
C896 C 0.65645 0.95542 0.90324 0.0
C897 C 0.64933 0.92128 0.87345 0.0
N898 N 0.63397 0.89071 0.77654 0.0
N899 N 0.65202 1.01834 0.90511 0.0
C900 C 0.63124 0.91896 0.81975 0.0
C901 C 0.64178 0.98493 0.8844 0.0
N902 N 0.58737 0.94147 0.77024 0.0
N903 N 0.67706 0.96014 0.94961 0.0
H904 H 0.64236 0.04017 0.89071 0.0
H905 H 0.67223 0.02489 0.93123 0.0
H906 H 0.69534 0.9433 0.95399 0.0
H907 H 0.67698 0.98172 0.98248 0.0
H908 H 0.57926 0.91678 0.75121 0.0
H909 H 0.57297 0.96124 0.76152 0.0
H910 H 0.62368 0.88864 0.73376 0.0
H911 H 0.65072 0.87177 0.77877 0.0
C912 C 0.45318 0.15455 0.954 0.0
C913 C 0.42784 0.17347 0.9349 0.0
C914 C 0.44896 0.1521 0.81965 0.0
C915 C 0.47774 0.13764 0.8373 0.0
N916 N 0.51135 0.13487 0.92294 0.0
N917 N 0.40727 0.19562 0.845 0.0
C918 C 0.48086 0.14131 0.90502 0.0
C919 C 0.42721 0.17359 0.86643 0.0
N920 N 0.45052 0.14809 1.01903 0.0
N921 N 0.44156 0.14464 0.75847 0.0
H922 H 0.39243 0.21293 0.87652 0.0
H923 H 0.40862 0.19952 0.79521 0.0
H924 H 0.45569 0.1281 0.72394 0.0
H925 H 0.41903 0.15161 0.74485 0.0
H926 H 0.46605 0.13137 0.03477 0.0
H927 H 0.4303 0.15605 0.05643 0.0
H928 H 0.51616 0.14072 0.97022 0.0
H929 H 0.53366 0.12813 0.88948 0.0
C930 C 0.59096 0.71721 0.18409 0.0
C931 C 0.61348 0.69076 0.18573 0.0
C932 C 0.65682 0.72033 0.09327 0.0
C933 C 0.63558 0.74833 0.09681 0.0
N934 N 0.58762 0.77753 0.16072 0.0
N935 N 0.67154 0.67154 0.14825 0.0
C936 C 0.6042 0.7479 0.1467 0.0
C937 C 0.64742 0.69343 0.14173 0.0
N938 N 0.55606 0.71245 0.21554 0.0
N939 N 0.68591 0.71924 0.04326 0.0
H940 H 0.66632 0.65256 0.18395 0.0
H941 H 0.69782 0.67435 0.1225 0.0
H942 H 0.69422 0.7391 1.00931 0.0
H943 H 0.7003 0.69773 0.03301 0.0
H944 H 0.53781 0.7294 0.2109 0.0
H945 H 0.54428 0.68952 0.23942 0.0
H946 H 0.56661 0.77996 0.20076 0.0
H947 H 0.59768 0.80096 0.13712 0.0
C948 C 0.06297 0.92483 0.21799 0.0
C949 C 0.02983 0.92565 0.26283 0.0
C950 C 0.05803 0.91525 0.35398 0.0
C951 C 0.08961 0.9098 0.30818 0.0
N952 N 0.12111 0.90426 0.19589 0.0
N953 N 0.9944 0.91315 0.37153 0.0
C954 C 0.09184 0.91325 0.23986 0.0
C955 C 0.02694 0.91877 0.33049 0.0
N956 N 0.06717 0.93604 0.15521 0.0
N957 N 0.05799 0.91794 0.41995 0.0
H958 H 0.9708 0.91303 0.35533 0.0
H959 H 0.99079 0.90462 0.4195 0.0
H960 H 0.08071 0.91649 0.43866 0.0
H961 H 0.03649 0.92523 0.45524 0.0
H962 H 0.09164 0.93916 0.12249 0.0
H963 H 0.04687 0.94546 0.13782 0.0
H964 H 0.12289 0.90281 0.14501 0.0
H965 H 0.14237 0.89514 0.21071 0.0
C966 C 0.84279 0.30873 0.73926 0.0
C967 C 0.84635 0.30617 0.66949 0.0
C968 C 0.88624 0.36223 0.66134 0.0
C969 C 0.88341 0.36454 0.73089 0.0
N970 N 0.84898 0.34511 0.83667 0.0
N971 N 0.85783 0.34051 0.57123 0.0
C972 C 0.85876 0.33923 0.77003 0.0
C973 C 0.86371 0.33599 0.6326 0.0
N974 N 0.82341 0.28214 0.77672 0.0
N975 N 0.91165 0.38375 0.62169 0.0
H976 H 0.83935 0.32426 0.55016 0.0
H977 H 0.86773 0.36317 0.54499 0.0
H978 H 0.92957 0.40234 0.6398 0.0
H979 H 0.91725 0.38063 0.57043 0.0
H980 H 0.82432 0.27932 0.82595 0.0
H981 H 0.80678 0.26242 0.75793 0.0
H982 H 0.82841 0.32994 0.86687 0.0
H983 H 0.85854 0.36741 0.86127 0.0
C984 C 0.57557 0.91126 0.12257 0.0
C985 C 0.5704 0.8746 0.10536 0.0
C986 C 0.51218 0.8708 0.18433 0.0
C987 C 0.51875 0.90687 0.20536 0.0
N988 N 0.55959 0.95969 0.2 0.0
N989 N 0.53082 0.82052 0.11461 0.0
C990 C 0.55113 0.92662 0.1755 0.0
C991 C 0.53787 0.85474 0.13496 0.0
N992 N 0.60268 0.93217 0.08514 0.0
N993 N 0.48141 0.8513 0.21298 0.0
H994 H 0.54961 0.80632 0.085 0.0
H995 H 0.50595 0.80592 0.12476 0.0
H996 H 0.46003 0.8623 0.24166 0.0
H997 H 0.47689 0.82406 0.21022 0.0
H998 H 0.6058 0.95945 0.08986 0.0
H999 H 0.61989 0.9227 0.04414 0.0
H1000 H 0.58452 0.974 0.18658 0.0
H1001 H 0.54267 0.97178 0.23821 0.0
C1002 C 0.36359 0.35166 0.8919 0.0
C1003 C 0.40014 0.36255 0.86562 0.0
C1004 C 0.41622 0.31865 0.9331 0.0
C1005 C 0.37983 0.3085 0.96231 0.0
N1006 N 0.31937 0.32183 0.97887 0.0
N1007 N 0.45943 0.366 0.88503 0.0
C1008 C 0.35359 0.32675 0.94402 0.0
C1009 C 0.4259 0.34883 0.89323 0.0
N1010 N 0.33831 0.36537 0.86761 0.0
N1011 N 0.44181 0.29855 0.93993 0.0
H1012 H 0.46642 0.3898 0.86126 0.0
H1013 H 0.4786 0.359 0.9088 0.0
H1014 H 0.43618 0.27485 0.96396 0.0
H1015 H 0.46813 0.30335 0.91468 0.0
H1016 H 0.31151 0.35554 0.87773 0.0
H1017 H 0.34455 0.38594 0.83504 0.0
H1018 H 0.29955 0.33643 0.9725 0.0
H1019 H 0.31153 0.3055 1.019 0.0
C1020 C 0.96338 0.13484 0.81881 0.0
C1021 C 0.99028 0.12171 0.76933 0.0
C1022 C 0.95067 0.12151 0.69101 0.0
C1023 C 0.92841 0.14205 0.73691 0.0
N1024 N 0.9192 0.17508 0.84062 0.0
N1025 N 0.00963 0.10458 0.65362 0.0
C1026 C 0.93626 0.1506 0.79989 0.0
C1027 C 0.984 0.11528 0.704 0.0
N1028 N 0.96293 0.1312 0.88406 0.0
N1029 N 0.93943 0.10681 0.63633 0.0
H1030 H 0.03396 0.09824 0.65957 0.0
H1031 H 0.00744 0.10414 0.60434 0.0
H1032 H 0.91443 0.10937 0.62723 0.0
H1033 H 0.95318 0.08894 0.60425 0.0
H1034 H 0.94235 0.13853 0.9215 0.0
H1035 H 0.98059 0.11687 0.89987 0.0
H1036 H 0.92641 0.18399 0.88499 0.0
H1037 H 0.90114 0.18947 0.82639 0.0
C1038 C 0.17027 0.71454 0.35947 0.0
C1039 C 0.15471 0.74666 0.36792 0.0
C1040 C 0.10686 0.71772 0.3136 0.0
C1041 C 0.12098 0.68487 0.309 0.0
N1042 N 0.16307 0.65117 0.34011 0.0
N1043 N 0.10099 0.77361 0.36935 0.0
C1044 C 0.15157 0.68297 0.33624 0.0
C1045 C 0.12133 0.7469 0.34875 0.0
N1046 N 0.20389 0.71448 0.36997 0.0
N1047 N 0.07845 0.72149 0.28603 0.0
H1048 H 0.1078 0.79441 0.39961 0.0
H1049 H 0.07465 0.77282 0.36466 0.0
H1050 H 0.06078 0.70077 0.27365 0.0
H1051 H 0.07255 0.7459 0.27488 0.0
H1052 H 0.21827 0.69302 0.35846 0.0
H1053 H 0.21889 0.73706 0.38389 0.0
H1054 H 0.18219 0.64752 0.36684 0.0
H1055 H 0.15184 0.62789 0.32082 0.0
C1056 C 0.92347 0.64363 0.39045 0.0
C1057 C 0.93411 0.67513 0.42614 0.0
C1058 C 0.99607 0.66626 0.37532 0.0
C1059 C 0.98534 0.63973 0.33055 0.0
N1060 N 0.93688 0.60569 0.29198 0.0
N1061 N 0.98265 0.7209 0.4325 0.0
C1062 C 0.94839 0.62942 0.33669 0.0
C1063 C 0.97103 0.68774 0.41285 0.0
N1064 N 0.89066 0.62544 0.41021 0.0
N1065 N 0.02996 0.66999 0.38502 0.0
H1066 H 0.96548 0.73935 0.4523 0.0
H1067 H 0.00925 0.73148 0.42008 0.0
H1068 H 0.04771 0.65237 0.36392 0.0
H1069 H 0.03844 0.68739 0.4205 0.0
H1070 H 0.88295 0.60117 0.38912 0.0
H1071 H 0.87292 0.63171 0.45305 0.0
H1072 H 0.91016 0.59996 0.28951 0.0
H1073 H 0.95441 0.59369 0.25463 0.0
C1074 C 0.11657 0.18948 0.62008 0.0
C1075 C 0.12628 0.19267 0.68288 0.0
C1076 C 0.14894 0.25473 0.66029 0.0
C1077 C 0.14287 0.25046 0.59438 0.0
N1078 N 0.13113 0.20829 0.50756 0.0
N1079 N 0.16212 0.22632 0.75206 0.0
C1080 C 0.12992 0.21616 0.57303 0.0
C1081 C 0.14584 0.22462 0.69942 0.0
N1082 N 0.09278 0.16227 0.60594 0.0
N1083 N 0.15525 0.28738 0.68826 0.0
H1084 H 0.16192 0.20462 0.78008 0.0
H1085 H 0.17929 0.24805 0.76265 0.0
H1086 H 0.15488 0.31054 0.66525 0.0
H1087 H 0.15635 0.29143 0.73797 0.0
H1088 H 0.08227 0.16091 0.56342 0.0
H1089 H 0.08033 0.14343 0.63972 0.0
H1090 H 0.12481 0.18287 0.48957 0.0
H1091 H 0.14261 0.22582 0.47057 0.0
C1092 C 0.55629 0.45451 0.78453 0.0
C1093 C 0.53289 0.42547 0.76711 0.0
C1094 C 0.57438 0.38542 0.78554 0.0
C1095 C 0.59293 0.41323 0.81633 0.0
N1096 N 0.60526 0.47463 0.83943 0.0
N1097 N 0.51766 0.36202 0.76298 0.0
C1098 C 0.58542 0.44805 0.81234 0.0
C1099 C 0.54174 0.39059 0.76945 0.0
N1100 N 0.55091 0.48808 0.77465 0.0
N1101 N 0.58706 0.35358 0.77399 0.0
H1102 H 0.49166 0.36377 0.75931 0.0
H1103 H 0.52158 0.33644 0.77109 0.0
H1104 H 0.61098 0.3488 0.78471 0.0
H1105 H 0.5762 0.33334 0.74596 0.0
H1106 H 0.56921 0.50987 0.77939 0.0
H1107 H 0.52907 0.49433 0.75793 0.0
H1108 H 0.599 0.50032 0.84694 0.0
H1109 H 0.62774 0.47018 0.85663 0.0
C1110 C 0.338 0.81272 0.22596 0.0
C1111 C 0.35445 0.80472 0.15981 0.0
C1112 C 0.39523 0.86045 0.16133 0.0
C1113 C 0.38132 0.86652 0.22965 0.0
N1114 N 0.34075 0.84585 0.32842 0.0
N1115 N 0.40351 0.81869 0.06902 0.0
C1116 C 0.35303 0.84187 0.26212 0.0
C1117 C 0.38399 0.82832 0.12854 0.0
N1118 N 0.30713 0.79309 0.25385 0.0
N1119 N 0.42014 0.88482 0.1274 0.0
H1120 H 0.39693 0.79536 0.04453 0.0
H1121 H 0.428 0.83177 0.04722 0.0
H1122 H 0.43178 0.90699 0.1495 0.0
H1123 H 0.42762 0.88433 0.07612 0.0
H1124 H 0.29134 0.79965 0.299 0.0
H1125 H 0.2956 0.77179 0.22898 0.0
H1126 H 0.32441 0.82643 0.35698 0.0
H1127 H 0.34832 0.86809 0.35554 0.0
C1128 C 0.06923 0.36996 0.68264 0.0
C1129 C 0.07379 0.37765 0.61501 0.0
C1130 C 0.03762 0.42689 0.64809 0.0
C1131 C 0.02983 0.4169 0.71522 0.0
N1132 N 0.05257 0.38977 0.79695 0.0
N1133 N 0.05812 0.41075 0.53254 0.0
C1134 C 0.04963 0.39133 0.73273 0.0
C1135 C 0.05663 0.40525 0.59758 0.0
N1136 N 0.08222 0.34096 0.69895 0.0
N1137 N 0.03069 0.45911 0.63326 0.0
H1138 H 0.07248 0.39638 0.49418 0.0
H1139 H 0.04281 0.42762 0.51668 0.0
H1140 H 0.02342 0.47824 0.66961 0.0
H1141 H 0.038 0.46913 0.58616 0.0
H1142 H 0.07658 0.33142 0.74642 0.0
H1143 H 0.0956 0.32423 0.66356 0.0
H1144 H 0.06883 0.37385 0.81259 0.0
H1145 H 0.04293 0.40814 0.83314 0.0
C1146 C 0.88414 0.82739 0.33324 0.0
C1147 C 0.89482 0.86291 0.35214 0.0
C1148 C 0.88196 0.84327 0.46835 0.0
C1149 C 0.87692 0.80736 0.44714 0.0
N1150 N 0.88373 0.76609 0.35434 0.0
N1151 N 0.90726 0.90285 0.44253 0.0
C1152 C 0.88086 0.79973 0.3782 0.0
C1153 C 0.89443 0.87042 0.42106 0.0
N1154 N 0.87549 0.81976 0.27302 0.0
N1155 N 0.87385 0.85194 0.5341 0.0
H1156 H 0.91544 0.9245 0.41328 0.0
H1157 H 0.91254 0.90777 0.48965 0.0
H1158 H 0.86564 0.83323 0.56993 0.0
H1159 H 0.87219 0.87763 0.55262 0.0
H1160 H 0.86471 0.79482 0.25948 0.0
H1161 H 0.87447 0.83889 0.24023 0.0
H1162 H 0.88973 0.75954 0.30407 0.0
H1163 H 0.88482 0.7456 0.38426 0.0
C1164 C 0.45698 0.6302 0.16645 0.0
C1165 C 0.42535 0.63536 0.21271 0.0
C1166 C 0.45114 0.61648 0.30107 0.0
C1167 C 0.48444 0.6161 0.25661 0.0
N1168 N 0.52047 0.62871 0.14829 0.0
N1169 N 0.39357 0.63824 0.32521 0.0
C1170 C 0.48779 0.62434 0.18941 0.0
C1171 C 0.42272 0.62964 0.28039 0.0
N1172 N 0.45726 0.6299 0.10048 0.0
N1173 N 0.44651 0.60362 0.36272 0.0
H1174 H 0.37273 0.64873 0.3115 0.0
H1175 H 0.39156 0.63808 0.37606 0.0
H1176 H 0.46659 0.59318 0.37908 0.0
H1177 H 0.42194 0.60012 0.39508 0.0
H1178 H 0.47853 0.62293 0.0643 0.0
H1179 H 0.43484 0.6332 0.08216 0.0
H1180 H 0.52465 0.63876 0.10138 0.0
H1181 H 0.54396 0.62534 0.16269 0.0
C1182 C 0.66659 0.22458 0.85102 0.0
C1183 C 0.64555 0.25141 0.88138 0.0
C1184 C 0.59271 0.21645 0.84886 0.0
C1185 C 0.61379 0.19004 0.8177 0.0
N1186 N 0.66999 0.16679 0.79505 0.0
N1187 N 0.58818 0.27353 0.90418 0.0
C1188 C 0.65052 0.1935 0.82077 0.0
C1189 C 0.60856 0.24742 0.87877 0.0
N1190 N 0.70249 0.2299 0.84758 0.0
N1191 N 0.55668 0.21083 0.85351 0.0
H1192 H 0.59635 0.29446 0.93344 0.0
H1193 H 0.56337 0.27555 0.89397 0.0
H1194 H 0.54411 0.18901 0.83195 0.0
H1195 H 0.53863 0.22593 0.88312 0.0
H1196 H 0.72042 0.21353 0.82164 0.0
H1197 H 0.71508 0.25244 0.86714 0.0
H1198 H 0.69595 0.16539 0.79973 0.0
H1199 H 0.65934 0.14448 0.77166 0.0
C1200 C 0.28386 0.3039 0.23943 0.0
C1201 C 0.28484 0.26678 0.23184 0.0
C1202 C 0.23552 0.2599 0.33099 0.0
C1203 C 0.2325 0.29665 0.33525 0.0
N1204 N 0.2517 0.35314 0.28761 0.0
N1205 N 0.25857 0.20919 0.26785 0.0
C1206 C 0.25636 0.31849 0.28804 0.0
C1207 C 0.25961 0.24481 0.27678 0.0
N1208 N 0.30933 0.32545 0.19986 0.0
N1209 N 0.21664 0.23949 0.38118 0.0
H1210 H 0.27687 0.19712 0.23213 0.0
H1211 H 0.2383 0.19154 0.29298 0.0
H1212 H 0.20008 0.24976 0.42223 0.0
H1213 H 0.21993 0.21334 0.38567 0.0
H1214 H 0.31315 0.35257 0.20725 0.0
H1215 H 0.32825 0.31601 0.16154 0.0
H1216 H 0.26504 0.36995 0.25057 0.0
H1217 H 0.23234 0.36466 0.322 0.0
C1218 C 0.53973 0.54094 0.52096 0.0
C1219 C 0.52609 0.54314 0.46305 0.0
C1220 C 0.47304 0.50302 0.51128 0.0
C1221 C 0.48764 0.49943 0.56765 0.0
N1222 N 0.53911 0.50769 0.61699 0.0
N1223 N 0.48223 0.52232 0.39858 0.0
C1224 C 0.52211 0.51655 0.57009 0.0
C1225 C 0.49351 0.52286 0.45683 0.0
N1226 N 0.56969 0.56216 0.52917 0.0
N1227 N 0.4391 0.48828 0.51067 0.0
H1228 H 0.49595 0.53704 0.35853 0.0
H1229 H 0.4608 0.50544 0.38796 0.0
H1230 H 0.4237 0.47325 0.54892 0.0
H1231 H 0.42518 0.49295 0.47489 0.0
H1232 H 0.57849 0.56495 0.57351 0.0
H1233 H 0.58464 0.57873 0.49288 0.0
H1234 H 0.56554 0.51647 0.61797 0.0
H1235 H 0.52788 0.48834 0.65065 0.0
C1236 C 0.22314 0.77842 0.77331 0.0
C1237 C 0.24267 0.77727 0.70749 0.0
C1238 C 0.29754 0.77372 0.74615 0.0
C1239 C 0.27818 0.77585 0.81195 0.0
N1240 N 0.22434 0.78361 0.89029 0.0
N1241 N 0.29789 0.77706 0.62923 0.0
C1242 C 0.24137 0.77909 0.82614 0.0
C1243 C 0.27983 0.77595 0.69333 0.0
N1244 N 0.1871 0.77842 0.78461 0.0
N1245 N 0.33261 0.76867 0.73488 0.0
H1246 H 0.28511 0.77765 0.58985 0.0
H1247 H 0.32543 0.77919 0.61486 0.0
H1248 H 0.346 0.76717 0.77315 0.0
H1249 H 0.34807 0.76411 0.68841 0.0
H1250 H 0.17042 0.77593 0.83086 0.0
H1251 H 0.17347 0.77955 0.74659 0.0
H1252 H 0.19817 0.78911 0.90475 0.0
H1253 H 0.23722 0.78363 0.92969 0.0
C1254 C 0.03666 0.52168 0.02278 0.0
C1255 C 0.01907 0.54737 0.06583 0.0
C1256 C 0.96797 0.53437 1.00717 0.0
C1257 C 0.98547 0.5085 0.9646 0.0
N1258 N 0.03585 0.47576 0.93609 0.0
N1259 N 0.96861 0.58012 0.0943 0.0
C1260 C 0.0196 0.50176 0.97399 0.0
C1261 C 0.98493 0.55417 0.05631 0.0
N1262 N 0.07098 0.51794 0.02532 0.0
N1263 N 0.93394 0.53854 1.0034 0.0
H1264 H 0.97801 0.5927 0.13421 0.0
H1265 H 0.94653 0.59031 0.08532 0.0
H1266 H 0.92106 0.52518 0.96826 0.0
H1267 H 0.91744 0.55349 0.03697 0.0
H1268 H 0.08738 0.5032 0.99109 0.0
H1269 H 0.0843 0.53166 0.05945 0.0
H1270 H 0.05775 0.46537 0.94547 0.0
H1271 H 0.02651 0.46335 0.89598 0.0
C1272 C 0.72996 0.75444 0.81338 0.0
C1273 C 0.73221 0.79132 0.83011 0.0
C1274 C 0.78448 0.79983 0.73578 0.0
C1275 C 0.78183 0.76309 0.71793 0.0
N1276 N 0.75514 0.7049 0.74851 0.0
N1277 N 0.75858 0.84946 0.79833 0.0
C1278 C 0.75503 0.7404 0.75882 0.0
C1279 C 0.75901 0.81394 0.78929 0.0
N1280 N 0.70335 0.73253 0.8497 0.0
N1281 N 0.81194 0.82163 0.70175 0.0
H1282 H 0.74064 0.86095 0.83561 0.0
H1283 H 0.77389 0.86775 0.76589 0.0
H1284 H 0.82902 0.8133 0.65972 0.0
H1285 H 0.81917 0.84733 0.71698 0.0
H1286 H 0.69626 0.70657 0.83598 0.0
H1287 H 0.68703 0.7407 0.89313 0.0
H1288 H 0.73954 0.68628 0.77983 0.0
H1289 H 0.77297 0.69363 0.71072 0.0
C1290 C 0.78215 0.28545 0.20986 0.0
C1291 C 0.75021 0.26494 0.20168 0.0
C1292 C 0.74666 0.23579 0.30524 0.0
C1293 C 0.77707 0.25817 0.31586 0.0
N1294 N 0.82337 0.30489 0.2821 0.0
N1295 N 0.70114 0.22155 0.23973 0.0
C1296 C 0.79493 0.28298 0.26877 0.0
C1297 C 0.73231 0.24014 0.24879 0.0
N1298 N 0.80016 0.307 0.16071 0.0
N1299 N 0.73172 0.21055 0.34972 0.0
H1300 H 0.69059 0.22415 0.19818 0.0
H1301 H 0.68485 0.20478 0.27395 0.0
H1302 H 0.74173 0.20731 0.39161 0.0
H1303 H 0.71082 0.19162 0.34393 0.0
H1304 H 0.82516 0.32064 0.16017 0.0
H1305 H 0.79064 0.30992 0.11812 0.0
H1306 H 0.83597 0.32597 0.25352 0.0
H1307 H 0.83368 0.30262 0.32407 0.0
C1308 C 1.00308 0.02521 0.94917 0.0
C1309 C 0.03174 0.04945 0.96374 0.0
C1310 C 0.0211 0.02504 0.07508 0.0
C1311 C 0.99105 1.0025 0.06211 0.0
N1312 N 0.95044 0.98463 0.98979 0.0
N1313 N 0.0645 0.07571 0.04496 0.0
C1314 C 0.98145 1.00335 0.99968 0.0
C1315 C 0.03952 0.0504 0.02809 0.0
N1316 N 0.99601 1.02335 0.88711 0.0
N1317 N 0.03348 1.02092 0.13092 0.0
H1318 H 0.08036 0.09333 1.01175 0.0
H1319 H 0.06796 0.08086 0.09319 0.0
H1320 H 0.0213 1.00267 0.1663 0.0
H1321 H 0.05769 0.03323 0.1395 0.0
H1322 H 0.97917 1.0032 0.87025 0.0
H1323 H 0.00817 0.04111 0.85084 0.0
H1324 H 0.93938 0.98706 0.94895 0.0
H1325 H 0.93392 0.96853 0.02513 0.0
C1326 C 0.53764 1.0164 0.53441 0.0
C1327 C 0.51844 0.04002 0.58014 0.0
C1328 C 0.46786 0.02589 0.5201 0.0
C1329 C 0.48713 1.0024 0.47418 0.0
N1330 N 0.53959 0.97281 0.44297 0.0
N1331 N 0.46535 0.06844 0.61312 0.0
C1332 C 0.52176 0.99704 0.48329 0.0
C1333 C 0.4836 0.04495 0.57159 0.0
N1334 N 0.57221 1.01407 0.53715 0.0
N1335 N 0.43331 0.0283 0.51725 0.0
H1336 H 0.47377 0.07953 0.65509 0.0
H1337 H 0.44257 0.07786 0.60553 0.0
H1338 H 0.42108 1.01539 0.48087 0.0
H1339 H 0.41579 0.04125 0.55272 0.0
H1340 H 0.58968 1.00115 0.50153 0.0
H1341 H 0.58436 0.02703 0.57359 0.0
H1342 H 0.56233 0.96352 0.45111 0.0
H1343 H 0.53074 0.96067 0.40212 0.0
loop_
_geom_bond_atom_site_label_1
_geom_bond_atom_site_label_2
_geom_bond_distance
_geom_bond_site_symmetry_2
_ccdc_geom_bond_type
Co0 N5 2.057 1_554 S
Co0 O17 2.021 . S
Co0 O20 2.062 . S
Co0 O24 2.117 1_554 S
Co0 O25 2.020 1_554 S
C1 O21 1.268 . S
C1 O24 1.258 . S
Co2 N11 2.057 . S
Co2 O18 2.117 . S
Co2 O19 2.020 . S
Co2 O21 2.012 1_554 S
Co2 O26 2.062 1_554 S
C3 N5 1.316 . S
C3 N6 1.347 . S
C3 H8 0.931 1_556 S
C4 N5 1.375 . S
C4 C7 1.350 . S
C4 H9 0.930 . S
N5 Co0 2.057 1_556 S
N5 C3 1.316 . S
N5 C4 1.375 . S
N6 C3 1.347 . S
N6 C7 1.373 . S
C7 C4 1.350 . S
C7 N6 1.373 . S
C7 H28 0.931 . S
H8 C3 0.931 1_554 S
H9 C4 0.930 . S
C10 O17 1.259 . S
C10 O18 1.258 . S
N11 Co2 2.057 . S
N11 C12 1.316 . S
N11 C13 1.375 . S
C12 N11 1.316 . S
C12 N14 1.347 . S
C12 H23 0.931 . S
C13 N11 1.375 . S
C13 C15 1.350 . S
C13 H22 0.930 . S
N14 C12 1.347 . S
N14 C15 1.373 . S
C15 C13 1.350 . S
C15 N14 1.373 . S
C15 H29 0.931 . S
C16 O19 1.256 . S
C16 O20 1.255 . S
O17 Co0 2.021 . S
O17 C10 1.259 . S
O18 Co2 2.117 . S
O18 C10 1.258 . S
O19 Co2 2.020 . S
O19 C16 1.256 . S
O20 Co0 2.062 . S
O20 C16 1.255 . S
O21 C1 1.268 . S
O21 Co2 2.012 1_556 S
H22 C13 0.930 . S
H23 C12 0.931 . S
O24 Co0 2.117 1_556 S
O24 C1 1.258 . S
O25 Co0 2.020 1_556 S
O25 C27 1.256 . S
O26 Co2 2.062 1_556 S
O26 C27 1.255 . S
C27 O25 1.256 . S
C27 O26 1.255 . S
H28 C7 0.931 . S
H29 C15 0.931 . S
Co30 N35 2.057 . S
Co30 O47 2.021 . S
Co30 O50 2.062 . S
Co30 O54 2.117 . S
Co30 O55 2.020 . S
C31 O51 1.259 . S
C31 O54 1.258 . S
Co32 N41 2.057 . S
Co32 O48 2.117 . S
Co32 O49 2.020 . S
Co32 O51 2.021 . S
Co32 O56 2.062 . S
C33 N35 1.316 . S
C33 N36 1.347 . S
C33 H38 0.931 . S
C34 N35 1.375 . S
C34 C37 1.350 . S
C34 H39 0.930 . S
N35 Co30 2.057 . S
N35 C33 1.316 . S
N35 C34 1.375 . S
N36 C33 1.347 . S
N36 C37 1.373 . S
C37 C34 1.350 . S
C37 N36 1.373 . S
C37 H58 0.931 . S
H38 C33 0.931 . S
H39 C34 0.930 . S
C40 O47 1.259 . S
C40 O48 1.258 . S
N41 Co32 2.057 . S
N41 C42 1.316 . S
N41 C43 1.375 . S
C42 N41 1.316 . S
C42 N44 1.347 . S
C42 H53 0.931 . S
C43 N41 1.375 . S
C43 C45 1.350 . S
C43 H52 0.930 . S
N44 C42 1.347 . S
N44 C45 1.373 . S
C45 C43 1.350 . S
C45 N44 1.373 . S
C45 H59 0.931 . S
C46 O49 1.256 . S
C46 O50 1.255 . S
O47 Co30 2.021 . S
O47 C40 1.259 . S
O48 Co32 2.117 . S
O48 C40 1.258 . S
O49 Co32 2.020 . S
O49 C46 1.256 . S
O50 Co30 2.062 . S
O50 C46 1.255 . S
O51 C31 1.259 . S
O51 Co32 2.021 . S
H52 C43 0.930 . S
H53 C42 0.931 . S
O54 Co30 2.117 . S
O54 C31 1.258 . S
O55 Co30 2.020 . S
O55 C57 1.256 . S
O56 Co32 2.062 . S
O56 C57 1.255 . S
C57 O55 1.256 . S
C57 O56 1.255 . S
H58 C37 0.931 . S
H59 C45 0.931 . S
Co60 N65 2.057 . S
Co60 O77 2.021 . S
Co60 O80 2.062 . S
Co60 O84 2.117 . S
Co60 O85 2.020 . S
C61 O81 1.259 . S
C61 O84 1.258 . S
Co62 N71 2.057 . S
Co62 O78 2.117 . S
Co62 O79 2.020 . S
Co62 O81 2.021 . S
Co62 O86 2.062 . S
C63 N65 1.316 . S
C63 N66 1.347 . S
C63 H68 0.931 . S
C64 N65 1.375 . S
C64 C67 1.350 . S
C64 H69 0.930 . S
N65 Co60 2.057 . S
N65 C63 1.316 . S
N65 C64 1.375 . S
N66 C63 1.347 . S
N66 C67 1.373 . S
C67 C64 1.350 . S
C67 N66 1.373 . S
C67 H88 0.931 . S
H68 C63 0.931 . S
H69 C64 0.930 . S
C70 O77 1.259 . S
C70 O78 1.258 . S
N71 Co62 2.057 . S
N71 C72 1.316 . S
N71 C73 1.375 . S
C72 N71 1.316 . S
C72 N74 1.347 . S
C72 H83 0.931 . S
C73 N71 1.375 . S
C73 C75 1.350 . S
C73 H82 0.930 . S
N74 C72 1.347 . S
N74 C75 1.373 . S
C75 C73 1.350 . S
C75 N74 1.373 . S
C75 H89 0.931 . S
C76 O79 1.256 . S
C76 O80 1.255 . S
O77 Co60 2.021 . S
O77 C70 1.259 . S
O78 Co62 2.117 . S
O78 C70 1.258 . S
O79 Co62 2.020 . S
O79 C76 1.256 . S
O80 Co60 2.062 . S
O80 C76 1.255 . S
O81 C61 1.259 . S
O81 Co62 2.021 . S
H82 C73 0.930 . S
H83 C72 0.931 . S
O84 Co60 2.117 . S
O84 C61 1.258 . S
O85 Co60 2.020 . S
O85 C87 1.256 . S
O86 Co62 2.062 . S
O86 C87 1.255 . S
C87 O85 1.256 . S
C87 O86 1.255 . S
H88 C67 0.931 . S
H89 C75 0.931 . S
Co90 N95 2.057 . S
Co90 O107 2.021 . S
Co90 O110 2.062 . S
Co90 O114 2.117 . S
Co90 O115 2.020 . S
C91 O111 1.259 . S
C91 O114 1.258 . S
Co92 N101 2.057 . S
Co92 O108 2.117 . S
Co92 O109 2.020 . S
Co92 O111 2.021 . S
Co92 O116 2.062 . S
C93 N95 1.316 . S
C93 N96 1.347 . S
C93 H98 0.931 . S
C94 N95 1.375 . S
C94 C97 1.350 . S
C94 H99 0.930 . S
N95 Co90 2.057 . S
N95 C93 1.316 . S
N95 C94 1.375 . S
N96 C93 1.347 . S
N96 C97 1.373 . S
C97 C94 1.350 . S
C97 N96 1.373 . S
C97 H118 0.931 . S
H98 C93 0.931 . S
H99 C94 0.930 . S
C100 O107 1.259 . S
C100 O108 1.258 . S
N101 Co92 2.057 . S
N101 C102 1.316 . S
N101 C103 1.375 . S
C102 N101 1.316 . S
C102 N104 1.347 . S
C102 H113 0.931 . S
C103 N101 1.375 . S
C103 C105 1.350 . S
C103 H112 0.930 . S
N104 C102 1.347 . S
N104 C105 1.373 . S
C105 C103 1.350 . S
C105 N104 1.373 . S
C105 H119 0.931 1_556 S
C106 O109 1.256 . S
C106 O110 1.255 . S
O107 Co90 2.021 . S
O107 C100 1.259 . S
O108 Co92 2.117 . S
O108 C100 1.258 . S
O109 Co92 2.020 . S
O109 C106 1.256 . S
O110 Co90 2.062 . S
O110 C106 1.255 . S
O111 C91 1.259 . S
O111 Co92 2.021 . S
H112 C103 0.930 . S
H113 C102 0.931 . S
O114 Co90 2.117 . S
O114 C91 1.258 . S
O115 Co90 2.020 . S
O115 C117 1.256 . S
O116 Co92 2.062 . S
O116 C117 1.255 . S
C117 O115 1.256 . S
C117 O116 1.255 . S
H118 C97 0.931 . S
H119 C105 0.931 1_554 S
Co120 N125 2.057 . S
Co120 O137 2.012 1_556 S
Co120 O140 2.062 1_556 S
Co120 O144 2.117 . S
Co120 O145 2.020 . S
C121 O141 1.259 . S
C121 O144 1.258 . S
Co122 N131 2.057 1_556 S
Co122 O138 2.117 1_556 S
Co122 O139 2.020 1_556 S
Co122 O141 2.021 . S
Co122 O146 2.062 . S
C123 N125 1.316 . S
C123 N126 1.347 . S
C123 H128 0.931 . S
C124 N125 1.375 . S
C124 C127 1.350 . S
C124 H129 0.930 . S
N125 Co120 2.057 . S
N125 C123 1.316 . S
N125 C124 1.375 . S
N126 C123 1.347 . S
N126 C127 1.373 . S
C127 C124 1.350 . S
C127 N126 1.373 . S
C127 H148 0.931 . S
H128 C123 0.931 . S
H129 C124 0.930 . S
C130 O137 1.268 . S
C130 O138 1.258 . S
N131 Co122 2.057 1_554 S
N131 C132 1.316 . S
N131 C133 1.375 . S
C132 N131 1.316 . S
C132 N134 1.347 . S
C132 H143 0.931 1_554 S
C133 N131 1.375 . S
C133 C135 1.350 . S
C133 H142 0.930 . S
N134 C132 1.347 . S
N134 C135 1.373 . S
C135 C133 1.350 . S
C135 N134 1.373 . S
C135 H149 0.931 . S
C136 O139 1.256 . S
C136 O140 1.255 . S
O137 Co120 2.012 1_554 S
O137 C130 1.268 . S
O138 Co122 2.117 1_554 S
O138 C130 1.258 . S
O139 Co122 2.020 1_554 S
O139 C136 1.256 . S
O140 Co120 2.062 1_554 S
O140 C136 1.255 . S
O141 C121 1.259 . S
O141 Co122 2.021 . S
H142 C133 0.930 . S
H143 C132 0.931 1_556 S
O144 Co120 2.117 . S
O144 C121 1.258 . S
O145 Co120 2.020 . S
O145 C147 1.256 . S
O146 Co122 2.062 . S
O146 C147 1.255 . S
C147 O145 1.256 . S
C147 O146 1.255 . S
H148 C127 0.931 . S
H149 C135 0.931 . S
Co150 N155 2.057 . S
Co150 O167 2.021 . S
Co150 O170 2.062 . S
Co150 O174 2.117 . S
Co150 O175 2.020 . S
C151 O171 1.259 . S
C151 O174 1.258 . S
Co152 N161 2.057 . S
Co152 O168 2.117 . S
Co152 O169 2.020 . S
Co152 O171 2.021 . S
Co152 O176 2.062 . S
C153 N155 1.316 . S
C153 N156 1.347 . S
C153 H158 0.931 . S
C154 N155 1.375 . S
C154 C157 1.350 . S
C154 H159 0.930 . S
N155 Co150 2.057 . S
N155 C153 1.316 . S
N155 C154 1.375 . S
N156 C153 1.347 . S
N156 C157 1.373 . S
C157 C154 1.350 . S
C157 N156 1.373 . S
C157 H178 0.931 . S
H158 C153 0.931 . S
H159 C154 0.930 . S
C160 O167 1.259 . S
C160 O168 1.258 . S
N161 Co152 2.057 . S
N161 C162 1.316 . S
N161 C163 1.375 . S
C162 N161 1.316 . S
C162 N164 1.347 . S
C162 H173 0.931 . S
C163 N161 1.375 . S
C163 C165 1.350 . S
C163 H172 0.930 . S
N164 C162 1.347 . S
N164 C165 1.373 . S
C165 C163 1.350 . S
C165 N164 1.373 . S
C165 H179 0.931 . S
C166 O169 1.256 . S
C166 O170 1.255 . S
O167 Co150 2.021 . S
O167 C160 1.259 . S
O168 Co152 2.117 . S
O168 C160 1.258 . S
O169 Co152 2.020 . S
O169 C166 1.256 . S
O170 Co150 2.062 . S
O170 C166 1.255 . S
O171 C151 1.259 . S
O171 Co152 2.021 . S
H172 C163 0.930 . S
H173 C162 0.931 . S
O174 Co150 2.117 . S
O174 C151 1.258 . S
O175 Co150 2.020 . S
O175 C177 1.256 . S
O176 Co152 2.062 . S
O176 C177 1.255 . S
C177 O175 1.256 . S
C177 O176 1.255 . S
H178 C157 0.931 . S
H179 C165 0.931 . S
Co180 N185 2.057 . S
Co180 O197 2.021 . S
Co180 O200 2.062 . S
Co180 O204 2.117 . S
Co180 O205 2.020 . S
C181 O201 1.259 . S
C181 O204 1.258 . S
Co182 N191 2.057 . S
Co182 O198 2.117 . S
Co182 O199 2.020 . S
Co182 O201 2.021 . S
Co182 O206 2.062 . S
C183 N185 1.316 . S
C183 N186 1.347 . S
C183 H188 0.931 . S
C184 N185 1.375 . S
C184 C187 1.350 . S
C184 H189 0.930 . S
N185 Co180 2.057 . S
N185 C183 1.316 . S
N185 C184 1.375 . S
N186 C183 1.347 . S
N186 C187 1.373 . S
C187 C184 1.350 . S
C187 N186 1.373 . S
C187 H208 0.931 . S
H188 C183 0.931 . S
H189 C184 0.930 . S
C190 O197 1.259 . S
C190 O198 1.258 . S
N191 Co182 2.057 . S
N191 C192 1.316 . S
N191 C193 1.375 . S
C192 N191 1.316 . S
C192 N194 1.347 . S
C192 H203 0.931 . S
C193 N191 1.375 . S
C193 C195 1.350 . S
C193 H202 0.930 . S
N194 C192 1.347 . S
N194 C195 1.373 . S
C195 C193 1.350 . S
C195 N194 1.373 . S
C195 H209 0.931 . S
C196 O199 1.256 . S
C196 O200 1.255 . S
O197 Co180 2.021 . S
O197 C190 1.259 . S
O198 Co182 2.117 . S
O198 C190 1.258 . S
O199 Co182 2.020 . S
O199 C196 1.256 . S
O200 Co180 2.062 . S
O200 C196 1.255 . S
O201 C181 1.259 . S
O201 Co182 2.021 . S
H202 C193 0.930 . S
H203 C192 0.931 . S
O204 Co180 2.117 . S
O204 C181 1.258 . S
O205 Co180 2.020 . S
O205 C207 1.256 . S
O206 Co182 2.062 . S
O206 C207 1.255 . S
C207 O205 1.256 . S
C207 O206 1.255 . S
H208 C187 0.931 . S
H209 C195 0.931 . S
Co210 N215 2.057 . S
Co210 O227 2.021 . S
Co210 O230 2.062 . S
Co210 O234 2.117 . S
Co210 O235 2.020 . S
C211 O231 1.259 . S
C211 O234 1.258 . S
Co212 N221 2.057 . S
Co212 O228 2.117 . S
Co212 O229 2.020 . S
Co212 O231 2.021 . S
Co212 O236 2.062 . S
C213 N215 1.316 . S
C213 N216 1.347 . S
C213 H218 0.931 . S
C214 N215 1.375 . S
C214 C217 1.350 . S
C214 H219 0.930 . S
N215 Co210 2.057 . S
N215 C213 1.316 . S
N215 C214 1.375 . S
N216 C213 1.347 . S
N216 C217 1.373 . S
C217 C214 1.350 . S
C217 N216 1.373 . S
C217 H238 0.931 1_554 S
H218 C213 0.931 . S
H219 C214 0.930 . S
C220 O227 1.259 . S
C220 O228 1.258 . S
N221 Co212 2.057 . S
N221 C222 1.316 . S
N221 C223 1.375 . S
C222 N221 1.316 . S
C222 N224 1.347 . S
C222 H233 0.931 . S
C223 N221 1.375 . S
C223 C225 1.350 . S
C223 H232 0.930 . S
N224 C222 1.347 . S
N224 C225 1.373 . S
C225 C223 1.350 . S
C225 N224 1.373 . S
C225 H239 0.931 . S
C226 O229 1.256 . S
C226 O230 1.255 . S
O227 Co210 2.021 . S
O227 C220 1.259 . S
O228 Co212 2.117 . S
O228 C220 1.258 . S
O229 Co212 2.020 . S
O229 C226 1.256 . S
O230 Co210 2.062 . S
O230 C226 1.255 . S
O231 C211 1.259 . S
O231 Co212 2.021 . S
H232 C223 0.930 . S
H233 C222 0.931 . S
O234 Co210 2.117 . S
O234 C211 1.258 . S
O235 Co210 2.020 . S
O235 C237 1.256 . S
O236 Co212 2.062 . S
O236 C237 1.255 . S
C237 O235 1.256 . S
C237 O236 1.255 . S
H238 C217 0.931 1_556 S
H239 C225 0.931 . S
Co240 N245 2.057 . S
Co240 O257 2.021 . S
Co240 O260 2.062 . S
Co240 O264 2.117 . S
Co240 O265 2.020 . S
C241 O261 1.259 . S
C241 O264 1.258 . S
Co242 N251 2.057 . S
Co242 O258 2.117 . S
Co242 O259 2.020 . S
Co242 O261 2.021 . S
Co242 O266 2.062 . S
C243 N245 1.316 . S
C243 N246 1.347 . S
C243 H248 0.931 . S
C244 N245 1.375 . S
C244 C247 1.350 . S
C244 H249 0.930 . S
N245 Co240 2.057 . S
N245 C243 1.316 . S
N245 C244 1.375 . S
N246 C243 1.347 . S
N246 C247 1.373 . S
C247 C244 1.350 . S
C247 N246 1.373 . S
C247 H268 0.931 . S
H248 C243 0.931 . S
H249 C244 0.930 . S
C250 O257 1.259 . S
C250 O258 1.258 . S
N251 Co242 2.057 . S
N251 C252 1.316 . S
N251 C253 1.375 . S
C252 N251 1.316 . S
C252 N254 1.347 . S
C252 H263 0.931 . S
C253 N251 1.375 . S
C253 C255 1.350 . S
C253 H262 0.930 . S
N254 C252 1.347 . S
N254 C255 1.373 . S
C255 C253 1.350 . S
C255 N254 1.373 . S
C255 H269 0.931 . S
C256 O259 1.256 . S
C256 O260 1.255 . S
O257 Co240 2.021 . S
O257 C250 1.259 . S
O258 Co242 2.117 . S
O258 C250 1.258 . S
O259 Co242 2.020 . S
O259 C256 1.256 . S
O260 Co240 2.062 . S
O260 C256 1.255 . S
O261 C241 1.259 . S
O261 Co242 2.021 . S
H262 C253 0.930 . S
H263 C252 0.931 . S
O264 Co240 2.117 . S
O264 C241 1.258 . S
O265 Co240 2.020 . S
O265 C267 1.256 . S
O266 Co242 2.062 . S
O266 C267 1.255 . S
C267 O265 1.256 . S
C267 O266 1.255 . S
H268 C247 0.931 . S
H269 C255 0.931 . S
Co270 N275 2.057 . S
Co270 O287 2.021 . S
Co270 O290 2.062 . S
Co270 O294 2.117 . S
Co270 O295 2.020 . S
C271 O291 1.259 . S
C271 O294 1.258 . S
Co272 N281 2.057 . S
Co272 O288 2.117 . S
Co272 O289 2.020 . S
Co272 O291 2.021 . S
Co272 O296 2.062 . S
C273 N275 1.316 . S
C273 N276 1.347 1_545 S
C273 H278 0.931 . S
C274 N275 1.375 . S
C274 C277 1.350 1_545 S
C274 H279 0.930 . S
N275 Co270 2.057 . S
N275 C273 1.316 . S
N275 C274 1.375 . S
N276 C273 1.347 1_565 S
N276 C277 1.373 . S
C277 C274 1.350 1_565 S
C277 N276 1.373 . S
C277 H298 0.931 . S
H278 C273 0.931 . S
H279 C274 0.930 . S
C280 O287 1.259 . S
C280 O288 1.258 . S
N281 Co272 2.057 . S
N281 C282 1.316 . S
N281 C283 1.375 . S
C282 N281 1.316 . S
C282 N284 1.347 . S
C282 H293 0.931 1_455 S
C283 N281 1.375 . S
C283 C285 1.350 . S
C283 H292 0.930 . S
N284 C282 1.347 . S
N284 C285 1.373 . S
C285 C283 1.350 . S
C285 N284 1.373 . S
C285 H299 0.931 1_556 S
C286 O289 1.256 . S
C286 O290 1.255 . S
O287 Co270 2.021 . S
O287 C280 1.259 . S
O288 Co272 2.117 . S
O288 C280 1.258 . S
O289 Co272 2.020 . S
O289 C286 1.256 . S
O290 Co270 2.062 . S
O290 C286 1.255 . S
O291 C271 1.259 . S
O291 Co272 2.021 . S
H292 C283 0.930 . S
H293 C282 0.931 1_655 S
O294 Co270 2.117 . S
O294 C271 1.258 . S
O295 Co270 2.020 . S
O295 C297 1.256 . S
O296 Co272 2.062 . S
O296 C297 1.255 . S
C297 O295 1.256 . S
C297 O296 1.255 . S
H298 C277 0.931 . S
H299 C285 0.931 1_554 S
Co300 N305 2.057 . S
Co300 O317 2.021 . S
Co300 O320 2.062 . S
Co300 O324 2.117 1_556 S
Co300 O325 2.020 . S
C301 O321 1.259 . S
C301 O324 1.258 . S
Co302 N311 2.057 . S
Co302 O318 2.117 1_554 S
Co302 O319 2.020 . S
Co302 O321 2.021 . S
Co302 O326 2.062 . S
C303 N305 1.316 . S
C303 N306 1.347 . S
C303 H308 0.931 . S
C304 N305 1.375 . S
C304 C307 1.350 . S
C304 H309 0.930 . S
N305 Co300 2.057 . S
N305 C303 1.316 . S
N305 C304 1.375 . S
N306 C303 1.347 . S
N306 C307 1.373 . S
C307 C304 1.350 . S
C307 N306 1.373 . S
C307 H328 0.931 . S
H308 C303 0.931 . S
H309 C304 0.930 . S
C310 O317 1.259 . S
C310 O318 1.258 . S
N311 Co302 2.057 . S
N311 C312 1.316 . S
N311 C313 1.375 . S
C312 N311 1.316 . S
C312 N314 1.347 . S
C312 H323 0.931 . S
C313 N311 1.375 . S
C313 C315 1.350 . S
C313 H322 0.930 . S
N314 C312 1.347 . S
N314 C315 1.373 . S
C315 C313 1.350 . S
C315 N314 1.373 . S
C315 H329 0.931 . S
C316 O319 1.256 . S
C316 O320 1.255 1_554 S
O317 Co300 2.021 . S
O317 C310 1.259 . S
O318 Co302 2.117 1_556 S
O318 C310 1.258 . S
O319 Co302 2.020 . S
O319 C316 1.256 . S
O320 Co300 2.062 . S
O320 C316 1.255 1_556 S
O321 C301 1.259 . S
O321 Co302 2.021 . S
H322 C313 0.930 . S
H323 C312 0.931 . S
O324 Co300 2.117 1_554 S
O324 C301 1.258 . S
O325 Co300 2.020 . S
O325 C327 1.256 . S
O326 Co302 2.062 . S
O326 C327 1.255 1_554 S
C327 O325 1.256 . S
C327 O326 1.255 1_556 S
H328 C307 0.931 . S
H329 C315 0.931 . S
Co330 N335 2.057 . S
Co330 O347 2.021 . S
Co330 O350 2.062 . S
Co330 O354 2.117 . S
Co330 O355 2.020 . S
C331 O351 1.259 . S
C331 O354 1.258 . S
Co332 N341 2.057 . S
Co332 O348 2.117 . S
Co332 O349 2.020 . S
Co332 O351 2.021 . S
Co332 O356 2.062 . S
C333 N335 1.316 . S
C333 N336 1.347 1_565 S
C333 H338 0.931 . S
C334 N335 1.375 . S
C334 C337 1.350 1_565 S
C334 H339 0.930 . S
N335 Co330 2.057 . S
N335 C333 1.316 . S
N335 C334 1.375 . S
N336 C333 1.347 1_545 S
N336 C337 1.373 . S
C337 C334 1.350 1_545 S
C337 N336 1.373 . S
C337 H358 0.931 . S
H338 C333 0.931 . S
H339 C334 0.930 . S
C340 O347 1.259 . S
C340 O348 1.258 . S
N341 Co332 2.057 . S
N341 C342 1.316 . S
N341 C343 1.375 . S
C342 N341 1.316 . S
C342 N344 1.347 . S
C342 H353 0.931 . S
C343 N341 1.375 . S
C343 C345 1.350 . S
C343 H352 0.930 . S
N344 C342 1.347 . S
N344 C345 1.373 . S
C345 C343 1.350 . S
C345 N344 1.373 . S
C345 H359 0.931 . S
C346 O349 1.256 . S
C346 O350 1.255 . S
O347 Co330 2.021 . S
O347 C340 1.259 . S
O348 Co332 2.117 . S
O348 C340 1.258 . S
O349 Co332 2.020 . S
O349 C346 1.256 . S
O350 Co330 2.062 . S
O350 C346 1.255 . S
O351 C331 1.259 . S
O351 Co332 2.021 . S
H352 C343 0.930 . S
H353 C342 0.931 . S
O354 Co330 2.117 . S
O354 C331 1.258 . S
O355 Co330 2.020 . S
O355 C357 1.256 . S
O356 Co332 2.062 . S
O356 C357 1.255 . S
C357 O355 1.256 . S
C357 O356 1.255 . S
H358 C337 0.931 . S
H359 C345 0.931 . S
Co360 N365 2.057 . S
Co360 O377 2.021 . S
Co360 O380 2.062 . S
Co360 O384 2.117 . S
Co360 O385 2.020 . S
C361 O381 1.259 . S
C361 O384 1.258 . S
Co362 N371 2.057 . S
Co362 O378 2.117 . S
Co362 O379 2.020 . S
Co362 O381 2.021 . S
Co362 O386 2.062 . S
C363 N365 1.316 . S
C363 N366 1.347 . S
C363 H368 0.931 . S
C364 N365 1.375 . S
C364 C367 1.350 . S
C364 H369 0.930 . S
N365 Co360 2.057 . S
N365 C363 1.316 . S
N365 C364 1.375 . S
N366 C363 1.347 . S
N366 C367 1.373 . S
C367 C364 1.350 . S
C367 N366 1.373 . S
C367 H388 0.931 . S
H368 C363 0.931 . S
H369 C364 0.930 . S
C370 O377 1.259 . S
C370 O378 1.258 . S
N371 Co362 2.057 . S
N371 C372 1.316 . S
N371 C373 1.375 . S
C372 N371 1.316 . S
C372 N374 1.347 . S
C372 H383 0.931 . S
C373 N371 1.375 . S
C373 C375 1.350 . S
C373 H382 0.930 . S
N374 C372 1.347 . S
N374 C375 1.373 . S
C375 C373 1.350 . S
C375 N374 1.373 . S
C375 H389 0.931 . S
C376 O379 1.256 . S
C376 O380 1.255 . S
O377 Co360 2.021 . S
O377 C370 1.259 . S
O378 Co362 2.117 . S
O378 C370 1.258 . S
O379 Co362 2.020 . S
O379 C376 1.256 . S
O380 Co360 2.062 . S
O380 C376 1.255 . S
O381 C361 1.259 . S
O381 Co362 2.021 . S
H382 C373 0.930 . S
H383 C372 0.931 . S
O384 Co360 2.117 . S
O384 C361 1.258 . S
O385 Co360 2.020 . S
O385 C387 1.256 . S
O386 Co362 2.062 . S
O386 C387 1.255 . S
C387 O385 1.256 . S
C387 O386 1.255 . S
H388 C367 0.931 . S
H389 C375 0.931 . S
Co390 N395 2.057 . S
Co390 O407 2.021 . S
Co390 O410 2.062 . S
Co390 O414 2.117 . S
Co390 O415 2.020 . S
C391 O411 1.259 . S
C391 O414 1.258 . S
Co392 N401 2.057 . S
Co392 O408 2.117 . S
Co392 O409 2.020 . S
Co392 O411 2.021 . S
Co392 O416 2.062 . S
C393 N395 1.316 . S
C393 N396 1.347 . S
C393 H398 0.931 1_655 S
C394 N395 1.375 . S
C394 C397 1.350 . S
C394 H399 0.930 . S
N395 Co390 2.057 . S
N395 C393 1.316 . S
N395 C394 1.375 . S
N396 C393 1.347 . S
N396 C397 1.373 . S
C397 C394 1.350 . S
C397 N396 1.373 . S
C397 H418 0.931 1_554 S
H398 C393 0.931 1_455 S
H399 C394 0.930 . S
C400 O407 1.259 . S
C400 O408 1.258 . S
N401 Co392 2.057 . S
N401 C402 1.316 . S
N401 C403 1.375 . S
C402 N401 1.316 . S
C402 N404 1.347 1_565 S
C402 H413 0.931 . S
C403 N401 1.375 . S
C403 C405 1.350 1_565 S
C403 H412 0.930 . S
N404 C402 1.347 1_545 S
N404 C405 1.373 . S
C405 C403 1.350 1_545 S
C405 N404 1.373 . S
C405 H419 0.931 . S
C406 O409 1.256 . S
C406 O410 1.255 . S
O407 Co390 2.021 . S
O407 C400 1.259 . S
O408 Co392 2.117 . S
O408 C400 1.258 . S
O409 Co392 2.020 . S
O409 C406 1.256 . S
O410 Co390 2.062 . S
O410 C406 1.255 . S
O411 C391 1.259 . S
O411 Co392 2.021 . S
H412 C403 0.930 . S
H413 C402 0.931 . S
O414 Co390 2.117 . S
O414 C391 1.258 . S
O415 Co390 2.020 . S
O415 C417 1.256 . S
O416 Co392 2.062 . S
O416 C417 1.255 . S
C417 O415 1.256 . S
C417 O416 1.255 . S
H418 C397 0.931 1_556 S
H419 C405 0.931 . S
Co420 N425 2.057 . S
Co420 O437 2.021 . S
Co420 O440 2.062 . S
Co420 O444 2.117 1_556 S
Co420 O445 2.020 . S
C421 O441 1.259 . S
C421 O444 1.258 . S
Co422 N431 2.057 . S
Co422 O438 2.117 1_554 S
Co422 O439 2.020 . S
Co422 O441 2.021 . S
Co422 O446 2.062 . S
C423 N425 1.316 . S
C423 N426 1.347 . S
C423 H428 0.931 . S
C424 N425 1.375 . S
C424 C427 1.350 . S
C424 H429 0.930 . S
N425 Co420 2.057 . S
N425 C423 1.316 . S
N425 C424 1.375 . S
N426 C423 1.347 . S
N426 C427 1.373 . S
C427 C424 1.350 . S
C427 N426 1.373 . S
C427 H448 0.931 . S
H428 C423 0.931 . S
H429 C424 0.930 . S
C430 O437 1.259 . S
C430 O438 1.258 . S
N431 Co422 2.057 . S
N431 C432 1.316 . S
N431 C433 1.375 . S
C432 N431 1.316 . S
C432 N434 1.347 . S
C432 H443 0.931 . S
C433 N431 1.375 . S
C433 C435 1.350 . S
C433 H442 0.930 . S
N434 C432 1.347 . S
N434 C435 1.373 . S
C435 C433 1.350 . S
C435 N434 1.373 . S
C435 H449 0.931 . S
C436 O439 1.256 . S
C436 O440 1.255 1_554 S
O437 Co420 2.021 . S
O437 C430 1.259 . S
O438 Co422 2.117 1_556 S
O438 C430 1.258 . S
O439 Co422 2.020 . S
O439 C436 1.256 . S
O440 Co420 2.062 . S
O440 C436 1.255 1_556 S
O441 C421 1.259 . S
O441 Co422 2.021 . S
H442 C433 0.930 . S
H443 C432 0.931 . S
O444 Co420 2.117 1_554 S
O444 C421 1.258 . S
O445 Co420 2.020 . S
O445 C447 1.256 . S
O446 Co422 2.062 . S
O446 C447 1.255 1_554 S
C447 O445 1.256 . S
C447 O446 1.255 1_556 S
H448 C427 0.931 . S
H449 C435 0.931 . S
Co450 N455 2.057 . S
Co450 O467 2.021 . S
Co450 O470 2.062 . S
Co450 O474 2.117 . S
Co450 O475 2.020 . S
C451 O471 1.259 . S
C451 O474 1.258 . S
Co452 N461 2.057 . S
Co452 O468 2.117 . S
Co452 O469 2.020 . S
Co452 O471 2.021 . S
Co452 O476 2.062 . S
C453 N455 1.316 . S
C453 N456 1.347 . S
C453 H458 0.931 . S
C454 N455 1.375 . S
C454 C457 1.350 . S
C454 H459 0.930 . S
N455 Co450 2.057 . S
N455 C453 1.316 . S
N455 C454 1.375 . S
N456 C453 1.347 . S
N456 C457 1.373 . S
C457 C454 1.350 . S
C457 N456 1.373 . S
C457 H478 0.931 . S
H458 C453 0.931 . S
H459 C454 0.930 . S
C460 O467 1.259 . S
C460 O468 1.258 . S
N461 Co452 2.057 . S
N461 C462 1.316 . S
N461 C463 1.375 . S
C462 N461 1.316 . S
C462 N464 1.347 1_545 S
C462 H473 0.931 . S
C463 N461 1.375 . S
C463 C465 1.350 1_545 S
C463 H472 0.930 . S
N464 C462 1.347 1_565 S
N464 C465 1.373 . S
C465 C463 1.350 1_565 S
C465 N464 1.373 . S
C465 H479 0.931 . S
C466 O469 1.256 . S
C466 O470 1.255 . S
O467 Co450 2.021 . S
O467 C460 1.259 . S
O468 Co452 2.117 . S
O468 C460 1.258 . S
O469 Co452 2.020 . S
O469 C466 1.256 . S
O470 Co450 2.062 . S
O470 C466 1.255 . S
O471 C451 1.259 . S
O471 Co452 2.021 . S
H472 C463 0.930 . S
H473 C462 0.931 . S
O474 Co450 2.117 . S
O474 C451 1.258 . S
O475 Co450 2.020 . S
O475 C477 1.256 . S
O476 Co452 2.062 . S
O476 C477 1.255 . S
C477 O475 1.256 . S
C477 O476 1.255 . S
H478 C457 0.931 . S
H479 C465 0.931 . S
C480 C481 1.363 . S
C480 C486 1.379 . S
C480 N488 1.356 . S
C481 C480 1.363 . S
C481 C487 1.363 . S
C482 C483 1.363 . S
C482 C487 1.379 . S
C482 N489 1.356 . S
C483 C482 1.363 . S
C483 C486 1.363 . S
N484 C486 1.356 1_556 S
N484 H496 0.984 . S
N484 H497 0.985 . S
N485 C487 1.356 . S
N485 H490 0.984 . S
N485 H491 0.985 . S
C486 C480 1.379 . S
C486 C483 1.363 . S
C486 N484 1.356 1_554 S
C487 C481 1.363 . S
C487 C482 1.379 . S
C487 N485 1.356 . S
N488 C480 1.356 . S
N488 H494 0.984 . S
N488 H495 0.984 . S
N489 C482 1.356 . S
N489 H492 0.984 . S
N489 H493 0.985 . S
H490 N485 0.984 . S
H491 N485 0.985 . S
H492 N489 0.984 . S
H493 N489 0.985 . S
H494 N488 0.984 . S
H495 N488 0.984 . S
H496 N484 0.984 . S
H497 N484 0.985 . S
C498 C499 1.363 . S
C498 C504 1.379 . S
C498 N506 1.356 . S
C499 C498 1.363 . S
C499 C505 1.363 . S
C500 C501 1.363 . S
C500 C505 1.379 . S
C500 N507 1.356 . S
C501 C500 1.363 . S
C501 C504 1.363 . S
N502 C504 1.356 . S
N502 H514 0.984 . S
N502 H515 0.985 . S
N503 C505 1.356 . S
N503 H508 0.984 . S
N503 H509 0.985 . S
C504 C498 1.379 . S
C504 C501 1.363 . S
C504 N502 1.356 . S
C505 C499 1.363 . S
C505 C500 1.379 . S
C505 N503 1.356 . S
N506 C498 1.356 . S
N506 H512 0.984 . S
N506 H513 0.984 . S
N507 C500 1.356 . S
N507 H510 0.984 . S
N507 H511 0.985 . S
H508 N503 0.984 . S
H509 N503 0.985 . S
H510 N507 0.984 . S
H511 N507 0.985 . S
H512 N506 0.984 . S
H513 N506 0.984 . S
H514 N502 0.984 . S
H515 N502 0.985 . S
C516 C517 1.363 . S
C516 C522 1.379 . S
C516 N524 1.356 . S
C517 C516 1.363 . S
C517 C523 1.363 . S
C518 C519 1.363 . S
C518 C523 1.379 . S
C518 N525 1.356 . S
C519 C518 1.363 . S
C519 C522 1.363 . S
N520 C522 1.356 1_655 S
N520 H532 0.984 . S
N520 H533 0.985 . S
N521 C523 1.356 . S
N521 H526 0.984 . S
N521 H527 0.985 . S
C522 C516 1.379 . S
C522 C519 1.363 . S
C522 N520 1.356 1_455 S
C523 C517 1.363 . S
C523 C518 1.379 . S
C523 N521 1.356 . S
N524 C516 1.356 . S
N524 H530 0.984 . S
N524 H531 0.984 . S
N525 C518 1.356 . S
N525 H528 0.974 1_455 S
N525 H529 0.985 . S
H526 N521 0.984 . S
H527 N521 0.985 . S
H528 N525 0.974 1_655 S
H529 N525 0.985 . S
H530 N524 0.984 . S
H531 N524 0.984 . S
H532 N520 0.984 . S
H533 N520 0.985 . S
C534 C535 1.363 . S
C534 C540 1.379 1_655 S
C534 N542 1.356 1_556 S
C535 C534 1.363 . S
C535 C541 1.363 . S
C536 C537 1.363 1_655 S
C536 C541 1.379 . S
C536 N543 1.356 . S
C537 C536 1.363 1_455 S
C537 C540 1.363 . S
N538 C540 1.356 1_554 S
N538 H550 0.984 . S
N538 H551 0.985 . S
N539 C541 1.356 . S
N539 H544 0.984 . S
N539 H545 0.985 . S
C540 C534 1.379 1_455 S
C540 C537 1.363 . S
C540 N538 1.356 1_556 S
C541 C535 1.363 . S
C541 C536 1.379 . S
C541 N539 1.356 . S
N542 C534 1.356 1_554 S
N542 H548 0.984 . S
N542 H549 0.984 1_554 S
N543 C536 1.356 . S
N543 H546 0.984 1_655 S
N543 H547 0.985 . S
H544 N539 0.984 . S
H545 N539 0.985 . S
H546 N543 0.984 1_455 S
H547 N543 0.985 . S
H548 N542 0.984 . S
H549 N542 0.984 1_556 S
H550 N538 0.984 . S
H551 N538 0.985 . S
C552 C553 1.363 . S
C552 C558 1.379 . S
C552 N560 1.356 . S
C553 C552 1.363 . S
C553 C559 1.363 . S
C554 C555 1.363 . S
C554 C559 1.379 . S
C554 N561 1.356 1_556 S
C555 C554 1.363 . S
C555 C558 1.363 . S
N556 C558 1.356 . S
N556 H568 0.984 . S
N556 H569 0.985 . S
N557 C559 1.356 . S
N557 H562 0.984 . S
N557 H563 0.985 . S
C558 C552 1.379 . S
C558 C555 1.363 . S
C558 N556 1.356 . S
C559 C553 1.363 . S
C559 C554 1.379 . S
C559 N557 1.356 . S
N560 C552 1.356 . S
N560 H566 0.984 . S
N560 H567 0.984 . S
N561 C554 1.356 1_554 S
N561 H564 0.984 . S
N561 H565 0.985 . S
H562 N557 0.984 . S
H563 N557 0.985 . S
H564 N561 0.984 . S
H565 N561 0.985 . S
H566 N560 0.984 . S
H567 N560 0.984 . S
H568 N556 0.984 . S
H569 N556 0.985 . S
C570 C571 1.363 . S
C570 C576 1.379 . S
C570 N578 1.356 . S
C571 C570 1.363 . S
C571 C577 1.363 . S
C572 C573 1.363 . S
C572 C577 1.379 . S
C572 N579 1.356 . S
C573 C572 1.363 . S
C573 C576 1.363 . S
N574 C576 1.356 . S
N574 H586 0.984 . S
N574 H587 0.985 . S
N575 C577 1.356 . S
N575 H580 0.984 . S
N575 H581 0.985 . S
C576 C570 1.379 . S
C576 C573 1.363 . S
C576 N574 1.356 . S
C577 C571 1.363 . S
C577 C572 1.379 . S
C577 N575 1.356 . S
N578 C570 1.356 . S
N578 H584 0.984 . S
N578 H585 0.984 . S
N579 C572 1.356 . S
N579 H582 0.984 . S
N579 H583 0.985 . S
H580 N575 0.984 . S
H581 N575 0.985 . S
H582 N579 0.984 . S
H583 N579 0.985 . S
H584 N578 0.984 . S
H585 N578 0.984 . S
H586 N574 0.984 . S
H587 N574 0.985 . S
C588 C589 1.363 . S
C588 C594 1.379 . S
C588 N596 1.356 . S
C589 C588 1.363 . S
C589 C595 1.363 . S
C590 C591 1.363 . S
C590 C595 1.379 . S
C590 N597 1.356 . S
C591 C590 1.363 . S
C591 C594 1.363 . S
N592 C594 1.356 1_455 S
N592 H604 0.984 . S
N592 H605 0.985 . S
N593 C595 1.356 . S
N593 H598 0.984 . S
N593 H599 0.985 . S
C594 C588 1.379 . S
C594 C591 1.363 . S
C594 N592 1.356 1_655 S
C595 C589 1.363 . S
C595 C590 1.379 . S
C595 N593 1.356 . S
N596 C588 1.356 . S
N596 H602 0.984 . S
N596 H603 0.984 . S
N597 C590 1.356 . S
N597 H600 0.984 1_655 S
N597 H601 0.985 . S
H598 N593 0.984 . S
H599 N593 0.985 . S
H600 N597 0.984 1_455 S
H601 N597 0.985 . S
H602 N596 0.984 . S
H603 N596 0.984 . S
H604 N592 0.984 . S
H605 N592 0.985 . S
C606 C607 1.363 . S
C606 C612 1.379 . S
C606 N614 1.356 1_554 S
C607 C606 1.363 . S
C607 C613 1.363 . S
C608 C609 1.363 . S
C608 C613 1.379 1_655 S
C608 N615 1.356 . S
C609 C608 1.363 . S
C609 C612 1.363 1_655 S
N610 C612 1.356 1_556 S
N610 H622 0.984 . S
N610 H623 0.992 . S
N611 C613 1.356 . S
N611 H616 0.984 . S
N611 H617 0.985 1_455 S
C612 C606 1.379 . S
C612 C609 1.363 1_455 S
C612 N610 1.356 1_554 S
C613 C607 1.363 . S
C613 C608 1.379 1_455 S
C613 N611 1.356 . S
N614 C606 1.356 1_556 S
N614 H620 0.984 . S
N614 H621 0.984 . S
N615 C608 1.356 . S
N615 H618 0.984 . S
N615 H619 0.985 . S
H616 N611 0.984 . S
H617 N611 0.985 1_655 S
H618 N615 0.984 . S
H619 N615 0.985 . S
H620 N614 0.984 . S
H621 N614 0.984 . S
H622 N610 0.984 . S
H623 N610 0.992 . S
C624 C625 1.363 . S
C624 C630 1.379 . S
C624 N632 1.356 . S
C625 C624 1.363 . S
C625 C631 1.363 . S
C626 C627 1.363 . S
C626 C631 1.379 . S
C626 N633 1.356 1_556 S
C627 C626 1.363 . S
C627 C630 1.363 . S
N628 C630 1.356 . S
N628 H640 0.984 . S
N628 H641 0.985 . S
N629 C631 1.356 . S
N629 H634 0.984 . S
N629 H635 0.985 1_556 S
C630 C624 1.379 . S
C630 C627 1.363 . S
C630 N628 1.356 . S
C631 C625 1.363 . S
C631 C626 1.379 . S
C631 N629 1.356 . S
N632 C624 1.356 . S
N632 H638 0.984 . S
N632 H639 0.984 . S
N633 C626 1.356 1_554 S
N633 H636 0.984 . S
N633 H637 0.985 . S
H634 N629 0.984 . S
H635 N629 0.985 1_554 S
H636 N633 0.984 . S
H637 N633 0.985 . S
H638 N632 0.984 . S
H639 N632 0.984 . S
H640 N628 0.984 . S
H641 N628 0.985 . S
C642 C643 1.363 . S
C642 C648 1.379 . S
C642 N650 1.356 . S
C643 C642 1.363 . S
C643 C649 1.363 . S
C644 C645 1.363 . S
C644 C649 1.379 . S
C644 N651 1.356 . S
C645 C644 1.363 . S
C645 C648 1.363 . S
N646 C648 1.356 . S
N646 H658 0.984 . S
N646 H659 0.985 . S
N647 C649 1.356 . S
N647 H652 0.984 . S
N647 H653 0.985 . S
C648 C642 1.379 . S
C648 C645 1.363 . S
C648 N646 1.356 . S
C649 C643 1.363 . S
C649 C644 1.379 . S
C649 N647 1.356 . S
N650 C642 1.356 . S
N650 H656 0.984 1_554 S
N650 H657 0.984 . S
N651 C644 1.356 . S
N651 H654 0.984 . S
N651 H655 0.985 . S
H652 N647 0.984 . S
H653 N647 0.985 . S
H654 N651 0.984 . S
H655 N651 0.985 . S
H656 N650 0.984 1_556 S
H657 N650 0.984 . S
H658 N646 0.984 . S
H659 N646 0.985 . S
C660 C661 1.363 . S
C660 C666 1.379 . S
C660 N668 1.356 . S
C661 C660 1.363 . S
C661 C667 1.363 . S
C662 C663 1.363 . S
C662 C667 1.379 . S
C662 N669 1.356 . S
C663 C662 1.363 . S
C663 C666 1.363 . S
N664 C666 1.356 . S
N664 H676 0.984 . S
N664 H677 0.985 . S
N665 C667 1.356 . S
N665 H670 0.984 . S
N665 H671 0.985 . S
C666 C660 1.379 . S
C666 C663 1.363 . S
C666 N664 1.356 . S
C667 C661 1.363 . S
C667 C662 1.379 . S
C667 N665 1.356 . S
N668 C660 1.356 . S
N668 H674 0.984 . S
N668 H675 0.984 . S
N669 C662 1.356 . S
N669 H672 0.984 . S
N669 H673 0.985 . S
H670 N665 0.984 . S
H671 N665 0.985 . S
H672 N669 0.984 . S
H673 N669 0.985 . S
H674 N668 0.984 . S
H675 N668 0.984 . S
H676 N664 0.984 . S
H677 N664 0.985 . S
C678 C679 1.363 . S
C678 C684 1.379 . S
C678 N686 1.356 . S
C679 C678 1.363 . S
C679 C685 1.363 . S
C680 C681 1.363 . S
C680 C685 1.379 . S
C680 N687 1.356 . S
C681 C680 1.363 . S
C681 C684 1.363 . S
N682 C684 1.356 . S
N682 H694 0.984 . S
N682 H695 0.985 . S
N683 C685 1.356 . S
N683 H688 0.984 . S
N683 H689 0.985 . S
C684 C678 1.379 . S
C684 C681 1.363 . S
C684 N682 1.356 . S
C685 C679 1.363 . S
C685 C680 1.379 . S
C685 N683 1.356 . S
N686 C678 1.356 . S
N686 H692 0.984 . S
N686 H693 0.984 . S
N687 C680 1.356 . S
N687 H690 0.984 . S
N687 H691 0.985 . S
H688 N683 0.984 . S
H689 N683 0.985 . S
H690 N687 0.984 . S
H691 N687 0.985 . S
H692 N686 0.984 . S
H693 N686 0.984 . S
H694 N682 0.984 . S
H695 N682 0.985 . S
C696 C697 1.363 . S
C696 C702 1.379 . S
C696 N704 1.356 . S
C697 C696 1.363 . S
C697 C703 1.363 . S
C698 C699 1.363 . S
C698 C703 1.379 . S
C698 N705 1.356 . S
C699 C698 1.363 . S
C699 C702 1.363 . S
N700 C702 1.356 . S
N700 H712 0.984 . S
N700 H713 0.985 . S
N701 C703 1.356 . S
N701 H706 0.984 . S
N701 H707 0.985 . S
C702 C696 1.379 . S
C702 C699 1.363 . S
C702 N700 1.356 . S
C703 C697 1.363 . S
C703 C698 1.379 . S
C703 N701 1.356 . S
N704 C696 1.356 . S
N704 H710 0.984 . S
N704 H711 0.984 . S
N705 C698 1.356 . S
N705 H708 0.984 . S
N705 H709 0.985 . S
H706 N701 0.984 . S
H707 N701 0.985 . S
H708 N705 0.984 . S
H709 N705 0.985 . S
H710 N704 0.984 . S
H711 N704 0.984 . S
H712 N700 0.984 . S
H713 N700 0.985 . S
C714 C715 1.363 . S
C714 C720 1.379 . S
C714 N722 1.356 . S
C715 C714 1.363 . S
C715 C721 1.363 . S
C716 C717 1.363 . S
C716 C721 1.379 . S
C716 N723 1.356 . S
C717 C716 1.363 . S
C717 C720 1.363 . S
N718 C720 1.356 . S
N718 H730 0.984 . S
N718 H731 0.985 . S
N719 C721 1.356 . S
N719 H724 0.984 . S
N719 H725 0.985 . S
C720 C714 1.379 . S
C720 C717 1.363 . S
C720 N718 1.356 . S
C721 C715 1.363 . S
C721 C716 1.379 . S
C721 N719 1.356 . S
N722 C714 1.356 . S
N722 H728 0.984 . S
N722 H729 0.984 . S
N723 C716 1.356 . S
N723 H726 0.984 . S
N723 H727 0.985 . S
H724 N719 0.984 . S
H725 N719 0.985 . S
H726 N723 0.984 . S
H727 N723 0.985 . S
H728 N722 0.984 . S
H729 N722 0.984 . S
H730 N718 0.984 . S
H731 N718 0.985 . S
C732 C733 1.363 . S
C732 C738 1.379 . S
C732 N740 1.356 . S
C733 C732 1.363 . S
C733 C739 1.363 . S
C734 C735 1.363 . S
C734 C739 1.379 . S
C734 N741 1.356 . S
C735 C734 1.363 . S
C735 C738 1.363 . S
N736 C738 1.356 . S
N736 H748 0.984 . S
N736 H749 0.985 . S
N737 C739 1.356 . S
N737 H742 0.984 . S
N737 H743 0.985 . S
C738 C732 1.379 . S
C738 C735 1.363 . S
C738 N736 1.356 . S
C739 C733 1.363 . S
C739 C734 1.379 . S
C739 N737 1.356 . S
N740 C732 1.356 . S
N740 H746 0.984 . S
N740 H747 0.984 . S
N741 C734 1.356 . S
N741 H744 0.984 . S
N741 H745 0.985 . S
H742 N737 0.984 . S
H743 N737 0.985 . S
H744 N741 0.984 . S
H745 N741 0.985 . S
H746 N740 0.984 . S
H747 N740 0.984 . S
H748 N736 0.984 . S
H749 N736 0.985 . S
C750 C751 1.363 . S
C750 C756 1.379 . S
C750 N758 1.356 . S
C751 C750 1.363 . S
C751 C757 1.363 . S
C752 C753 1.363 . S
C752 C757 1.379 . S
C752 N759 1.356 . S
C753 C752 1.363 . S
C753 C756 1.363 . S
N754 C756 1.356 . S
N754 H766 0.984 . S
N754 H767 0.985 . S
N755 C757 1.356 . S
N755 H760 0.984 . S
N755 H761 0.985 . S
C756 C750 1.379 . S
C756 C753 1.363 . S
C756 N754 1.356 . S
C757 C751 1.363 . S
C757 C752 1.379 . S
C757 N755 1.356 . S
N758 C750 1.356 . S
N758 H764 0.984 . S
N758 H765 0.984 . S
N759 C752 1.356 . S
N759 H762 0.984 . S
N759 H763 0.985 . S
H760 N755 0.984 . S
H761 N755 0.985 . S
H762 N759 0.984 . S
H763 N759 0.985 . S
H764 N758 0.984 . S
H765 N758 0.984 . S
H766 N754 0.984 . S
H767 N754 0.985 . S
C768 C769 1.363 . S
C768 C774 1.379 . S
C768 N776 1.356 . S
C769 C768 1.363 . S
C769 C775 1.363 . S
C770 C771 1.363 . S
C770 C775 1.379 . S
C770 N777 1.356 . S
C771 C770 1.363 . S
C771 C774 1.363 . S
N772 C774 1.356 . S
N772 H784 0.984 . S
N772 H785 0.985 . S
N773 C775 1.356 . S
N773 H778 0.984 . S
N773 H779 0.985 . S
C774 C768 1.379 . S
C774 C771 1.363 . S
C774 N772 1.356 . S
C775 C769 1.363 . S
C775 C770 1.379 . S
C775 N773 1.356 . S
N776 C768 1.356 . S
N776 H782 0.984 . S
N776 H783 0.984 . S
N777 C770 1.356 . S
N777 H780 0.984 . S
N777 H781 0.985 . S
H778 N773 0.984 . S
H779 N773 0.985 . S
H780 N777 0.984 . S
H781 N777 0.985 . S
H782 N776 0.984 . S
H783 N776 0.984 . S
H784 N772 0.984 . S
H785 N772 0.985 . S
C786 C787 1.363 . S
C786 C792 1.379 . S
C786 N794 1.356 . S
C787 C786 1.363 . S
C787 C793 1.363 . S
C788 C789 1.363 . S
C788 C793 1.379 . S
C788 N795 1.356 . S
C789 C788 1.363 . S
C789 C792 1.363 . S
N790 C792 1.356 . S
N790 H802 0.984 . S
N790 H803 0.985 . S
N791 C793 1.356 . S
N791 H796 0.984 . S
N791 H797 0.985 . S
C792 C786 1.379 . S
C792 C789 1.363 . S
C792 N790 1.356 . S
C793 C787 1.363 . S
C793 C788 1.379 . S
C793 N791 1.356 . S
N794 C786 1.356 . S
N794 H800 0.984 . S
N794 H801 0.984 . S
N795 C788 1.356 . S
N795 H798 0.984 . S
N795 H799 0.985 . S
H796 N791 0.984 . S
H797 N791 0.985 . S
H798 N795 0.984 . S
H799 N795 0.985 . S
H800 N794 0.984 . S
H801 N794 0.984 . S
H802 N790 0.984 . S
H803 N790 0.985 . S
C804 C805 1.363 . S
C804 C810 1.379 . S
C804 N812 1.356 1_556 S
C805 C804 1.363 . S
C805 C811 1.363 . S
C806 C807 1.363 . S
C806 C811 1.379 . S
C806 N813 1.356 . S
C807 C806 1.363 . S
C807 C810 1.363 . S
N808 C810 1.356 1_554 S
N808 H820 0.984 . S
N808 H821 0.985 1_554 S
N809 C811 1.356 . S
N809 H814 0.984 . S
N809 H815 0.985 . S
C810 C804 1.379 . S
C810 C807 1.363 . S
C810 N808 1.356 1_556 S
C811 C805 1.363 . S
C811 C806 1.379 . S
C811 N809 1.356 . S
N812 C804 1.356 1_554 S
N812 H818 0.984 . S
N812 H819 0.984 . S
N813 C806 1.356 . S
N813 H816 0.984 . S
N813 H817 0.985 . S
H814 N809 0.984 . S
H815 N809 0.985 . S
H816 N813 0.984 . S
H817 N813 0.985 . S
H818 N812 0.984 . S
H819 N812 0.984 . S
H820 N808 0.984 . S
H821 N808 0.985 1_556 S
C822 C823 1.363 . S
C822 C828 1.379 . S
C822 N830 1.356 . S
C823 C822 1.363 . S
C823 C829 1.363 . S
C824 C825 1.363 . S
C824 C829 1.379 . S
C824 N831 1.356 . S
C825 C824 1.363 . S
C825 C828 1.363 . S
N826 C828 1.356 . S
N826 H838 0.984 . S
N826 H839 0.985 . S
N827 C829 1.356 . S
N827 H832 0.984 . S
N827 H833 0.985 . S
C828 C822 1.379 . S
C828 C825 1.363 . S
C828 N826 1.356 . S
C829 C823 1.363 . S
C829 C824 1.379 . S
C829 N827 1.356 . S
N830 C822 1.356 . S
N830 H836 0.984 . S
N830 H837 0.984 . S
N831 C824 1.356 . S
N831 H834 0.984 . S
N831 H835 0.985 . S
H832 N827 0.984 . S
H833 N827 0.985 . S
H834 N831 0.984 . S
H835 N831 0.985 . S
H836 N830 0.984 . S
H837 N830 0.984 . S
H838 N826 0.984 . S
H839 N826 0.985 . S
C840 C841 1.363 . S
C840 C846 1.379 . S
C840 N848 1.356 . S
C841 C840 1.363 . S
C841 C847 1.363 . S
C842 C843 1.363 . S
C842 C847 1.379 . S
C842 N849 1.356 . S
C843 C842 1.363 . S
C843 C846 1.363 . S
N844 C846 1.356 . S
N844 H856 0.984 . S
N844 H857 0.985 . S
N845 C847 1.356 . S
N845 H850 0.984 . S
N845 H851 0.985 . S
C846 C840 1.379 . S
C846 C843 1.363 . S
C846 N844 1.356 . S
C847 C841 1.363 . S
C847 C842 1.379 . S
C847 N845 1.356 . S
N848 C840 1.356 . S
N848 H854 0.984 . S
N848 H855 0.984 . S
N849 C842 1.356 . S
N849 H852 0.984 . S
N849 H853 0.985 . S
H850 N845 0.984 . S
H851 N845 0.985 . S
H852 N849 0.984 . S
H853 N849 0.985 . S
H854 N848 0.984 . S
H855 N848 0.984 . S
H856 N844 0.984 . S
H857 N844 0.985 . S
C858 C859 1.363 . S
C858 C864 1.379 . S
C858 N866 1.356 . S
C859 C858 1.363 . S
C859 C865 1.363 . S
C860 C861 1.363 . S
C860 C865 1.379 . S
C860 N867 1.356 . S
C861 C860 1.363 . S
C861 C864 1.363 . S
N862 C864 1.356 . S
N862 H874 0.984 . S
N862 H875 0.985 . S
N863 C865 1.356 . S
N863 H868 0.984 . S
N863 H869 0.985 . S
C864 C858 1.379 . S
C864 C861 1.363 . S
C864 N862 1.356 . S
C865 C859 1.363 . S
C865 C860 1.379 . S
C865 N863 1.356 . S
N866 C858 1.356 . S
N866 H872 0.984 . S
N866 H873 0.984 . S
N867 C860 1.356 . S
N867 H870 0.984 . S
N867 H871 0.985 . S
H868 N863 0.984 . S
H869 N863 0.985 . S
H870 N867 0.984 . S
H871 N867 0.985 . S
H872 N866 0.984 . S
H873 N866 0.984 . S
H874 N862 0.984 . S
H875 N862 0.985 . S
C876 C877 1.363 . S
C876 C882 1.379 . S
C876 N884 1.356 1_554 S
C877 C876 1.363 . S
C877 C883 1.363 . S
C878 C879 1.363 . S
C878 C883 1.379 . S
C878 N885 1.356 . S
C879 C878 1.363 . S
C879 C882 1.363 . S
N880 C882 1.356 1_556 S
N880 H892 0.984 . S
N880 H893 0.985 . S
N881 C883 1.356 . S
N881 H886 0.984 . S
N881 H887 0.985 . S
C882 C876 1.379 . S
C882 C879 1.363 . S
C882 N880 1.356 1_554 S
C883 C877 1.363 . S
C883 C878 1.379 . S
C883 N881 1.356 . S
N884 C876 1.356 1_556 S
N884 H890 0.984 . S
N884 H891 0.984 1_556 S
N885 C878 1.356 . S
N885 H888 0.984 . S
N885 H889 0.985 . S
H886 N881 0.984 . S
H887 N881 0.985 . S
H888 N885 0.984 . S
H889 N885 0.985 . S
H890 N884 0.984 . S
H891 N884 0.984 1_554 S
H892 N880 0.984 . S
H893 N880 0.985 . S
C894 C895 1.363 . S
C894 C900 1.379 . S
C894 N902 1.356 . S
C895 C894 1.363 . S
C895 C901 1.363 . S
C896 C897 1.363 . S
C896 C901 1.379 . S
C896 N903 1.356 . S
C897 C896 1.363 . S
C897 C900 1.363 . S
N898 C900 1.356 . S
N898 H910 0.984 . S
N898 H911 0.985 . S
N899 C901 1.356 . S
N899 H904 0.984 . S
N899 H905 0.985 . S
C900 C894 1.379 . S
C900 C897 1.363 . S
C900 N898 1.356 . S
C901 C895 1.363 . S
C901 C896 1.379 . S
C901 N899 1.356 . S
N902 C894 1.356 . S
N902 H908 0.984 . S
N902 H909 0.984 . S
N903 C896 1.356 . S
N903 H906 0.984 . S
N903 H907 0.985 . S
H904 N899 0.984 . S
H905 N899 0.985 . S
H906 N903 0.984 . S
H907 N903 0.985 . S
H908 N902 0.984 . S
H909 N902 0.984 . S
H910 N898 0.984 . S
H911 N898 0.985 . S
C912 C913 1.363 . S
C912 C918 1.379 . S
C912 N920 1.356 . S
C913 C912 1.363 . S
C913 C919 1.363 . S
C914 C915 1.363 . S
C914 C919 1.379 . S
C914 N921 1.356 . S
C915 C914 1.363 . S
C915 C918 1.363 . S
N916 C918 1.356 . S
N916 H928 0.984 . S
N916 H929 0.985 . S
N917 C919 1.356 . S
N917 H922 0.984 . S
N917 H923 0.985 . S
C918 C912 1.379 . S
C918 C915 1.363 . S
C918 N916 1.356 . S
C919 C913 1.363 . S
C919 C914 1.379 . S
C919 N917 1.356 . S
N920 C912 1.356 . S
N920 H926 0.984 . S
N920 H927 0.984 . S
N921 C914 1.356 . S
N921 H924 0.984 . S
N921 H925 0.985 . S
H922 N917 0.984 . S
H923 N917 0.985 . S
H924 N921 0.984 . S
H925 N921 0.985 . S
H926 N920 0.984 . S
H927 N920 0.984 . S
H928 N916 0.984 . S
H929 N916 0.985 . S
C930 C931 1.363 . S
C930 C936 1.379 . S
C930 N938 1.356 . S
C931 C930 1.363 . S
C931 C937 1.363 . S
C932 C933 1.363 . S
C932 C937 1.379 . S
C932 N939 1.356 . S
C933 C932 1.363 . S
C933 C936 1.363 . S
N934 C936 1.356 . S
N934 H946 0.984 . S
N934 H947 0.985 . S
N935 C937 1.356 . S
N935 H940 0.984 . S
N935 H941 0.985 . S
C936 C930 1.379 . S
C936 C933 1.363 . S
C936 N934 1.356 . S
C937 C931 1.363 . S
C937 C932 1.379 . S
C937 N935 1.356 . S
N938 C930 1.356 . S
N938 H944 0.984 . S
N938 H945 0.984 . S
N939 C932 1.356 . S
N939 H942 0.984 . S
N939 H943 0.985 . S
H940 N935 0.984 . S
H941 N935 0.985 . S
H942 N939 0.984 . S
H943 N939 0.985 . S
H944 N938 0.984 . S
H945 N938 0.984 . S
H946 N934 0.984 . S
H947 N934 0.985 . S
C948 C949 1.363 . S
C948 C954 1.379 . S
C948 N956 1.356 . S
C949 C948 1.363 . S
C949 C955 1.363 . S
C950 C951 1.363 . S
C950 C955 1.379 . S
C950 N957 1.356 . S
C951 C950 1.363 . S
C951 C954 1.363 . S
N952 C954 1.356 . S
N952 H964 0.984 . S
N952 H965 0.985 . S
N953 C955 1.356 . S
N953 H958 0.984 1_455 S
N953 H959 0.985 . S
C954 C948 1.379 . S
C954 C951 1.363 . S
C954 N952 1.356 . S
C955 C949 1.363 . S
C955 C950 1.379 . S
C955 N953 1.356 . S
N956 C948 1.356 . S
N956 H962 0.984 . S
N956 H963 0.984 1_455 S
N957 C950 1.356 . S
N957 H960 0.984 . S
N957 H961 0.985 . S
H958 N953 0.984 1_655 S
H959 N953 0.985 . S
H960 N957 0.984 . S
H961 N957 0.985 . S
H962 N956 0.984 . S
H963 N956 0.984 1_655 S
H964 N952 0.984 . S
H965 N952 0.985 . S
C966 C967 1.363 . S
C966 C972 1.379 . S
C966 N974 1.356 . S
C967 C966 1.363 . S
C967 C973 1.363 . S
C968 C969 1.363 . S
C968 C973 1.379 . S
C968 N975 1.356 . S
C969 C968 1.363 . S
C969 C972 1.363 . S
N970 C972 1.356 . S
N970 H982 0.984 . S
N970 H983 0.985 . S
N971 C973 1.356 . S
N971 H976 0.984 . S
N971 H977 0.985 . S
C972 C966 1.379 . S
C972 C969 1.363 . S
C972 N970 1.356 . S
C973 C967 1.363 . S
C973 C968 1.379 . S
C973 N971 1.356 . S
N974 C966 1.356 . S
N974 H980 0.984 . S
N974 H981 0.984 . S
N975 C968 1.356 . S
N975 H978 0.984 . S
N975 H979 0.985 . S
H976 N971 0.984 . S
H977 N971 0.985 . S
H978 N975 0.984 . S
H979 N975 0.985 . S
H980 N974 0.984 . S
H981 N974 0.984 . S
H982 N970 0.984 . S
H983 N970 0.985 . S
C984 C985 1.363 . S
C984 C990 1.379 . S
C984 N992 1.356 . S
C985 C984 1.363 . S
C985 C991 1.363 . S
C986 C987 1.363 . S
C986 C991 1.379 . S
C986 N993 1.356 . S
C987 C986 1.363 . S
C987 C990 1.363 . S
N988 C990 1.356 . S
N988 H1000 0.984 . S
N988 H1001 0.985 . S
N989 C991 1.356 . S
N989 H994 0.984 . S
N989 H995 0.985 . S
C990 C984 1.379 . S
C990 C987 1.363 . S
C990 N988 1.356 . S
C991 C985 1.363 . S
C991 C986 1.379 . S
C991 N989 1.356 . S
N992 C984 1.356 . S
N992 H998 0.984 . S
N992 H999 0.984 . S
N993 C986 1.356 . S
N993 H996 0.984 . S
N993 H997 0.985 . S
H994 N989 0.984 . S
H995 N989 0.985 . S
H996 N993 0.984 . S
H997 N993 0.985 . S
H998 N992 0.984 . S
H999 N992 0.984 . S
H1000 N988 0.984 . S
H1001 N988 0.985 . S
C1002 C1003 1.363 . S
C1002 C1008 1.379 . S
C1002 N1010 1.356 . S
C1003 C1002 1.363 . S
C1003 C1009 1.363 . S
C1004 C1005 1.363 . S
C1004 C1009 1.379 . S
C1004 N1011 1.356 . S
C1005 C1004 1.363 . S
C1005 C1008 1.363 . S
N1006 C1008 1.356 . S
N1006 H1018 0.984 . S
N1006 H1019 0.985 . S
N1007 C1009 1.356 . S
N1007 H1012 0.984 . S
N1007 H1013 0.985 . S
C1008 C1002 1.379 . S
C1008 C1005 1.363 . S
C1008 N1006 1.356 . S
C1009 C1003 1.363 . S
C1009 C1004 1.379 . S
C1009 N1007 1.356 . S
N1010 C1002 1.356 . S
N1010 H1016 0.984 . S
N1010 H1017 0.984 . S
N1011 C1004 1.356 . S
N1011 H1014 0.984 . S
N1011 H1015 0.985 . S
H1012 N1007 0.984 . S
H1013 N1007 0.985 . S
H1014 N1011 0.984 . S
H1015 N1011 0.985 . S
H1016 N1010 0.984 . S
H1017 N1010 0.984 . S
H1018 N1006 0.984 . S
H1019 N1006 0.985 . S
C1020 C1021 1.363 . S
C1020 C1026 1.379 . S
C1020 N1028 1.356 . S
C1021 C1020 1.363 . S
C1021 C1027 1.363 . S
C1022 C1023 1.363 . S
C1022 C1027 1.379 . S
C1022 N1029 1.356 . S
C1023 C1022 1.363 . S
C1023 C1026 1.363 . S
N1024 C1026 1.356 . S
N1024 H1036 0.984 . S
N1024 H1037 0.985 . S
N1025 C1027 1.356 1_455 S
N1025 H1030 0.984 . S
N1025 H1031 0.985 . S
C1026 C1020 1.379 . S
C1026 C1023 1.363 . S
C1026 N1024 1.356 . S
C1027 C1021 1.363 . S
C1027 C1022 1.379 . S
C1027 N1025 1.356 1_655 S
N1028 C1020 1.356 . S
N1028 H1034 0.984 . S
N1028 H1035 0.984 . S
N1029 C1022 1.356 . S
N1029 H1032 0.984 . S
N1029 H1033 0.985 . S
H1030 N1025 0.984 . S
H1031 N1025 0.985 . S
H1032 N1029 0.984 . S
H1033 N1029 0.985 . S
H1034 N1028 0.984 . S
H1035 N1028 0.984 . S
H1036 N1024 0.984 . S
H1037 N1024 0.985 . S
C1038 C1039 1.363 . S
C1038 C1044 1.379 . S
C1038 N1046 1.356 . S
C1039 C1038 1.363 . S
C1039 C1045 1.363 . S
C1040 C1041 1.363 . S
C1040 C1045 1.379 . S
C1040 N1047 1.356 . S
C1041 C1040 1.363 . S
C1041 C1044 1.363 . S
N1042 C1044 1.356 . S
N1042 H1054 0.984 . S
N1042 H1055 0.985 . S
N1043 C1045 1.356 . S
N1043 H1048 0.984 . S
N1043 H1049 0.985 . S
C1044 C1038 1.379 . S
C1044 C1041 1.363 . S
C1044 N1042 1.356 . S
C1045 C1039 1.363 . S
C1045 C1040 1.379 . S
C1045 N1043 1.356 . S
N1046 C1038 1.356 . S
N1046 H1052 0.984 . S
N1046 H1053 0.984 . S
N1047 C1040 1.356 . S
N1047 H1050 0.984 . S
N1047 H1051 0.985 . S
H1048 N1043 0.984 . S
H1049 N1043 0.985 . S
H1050 N1047 0.984 . S
H1051 N1047 0.985 . S
H1052 N1046 0.984 . S
H1053 N1046 0.984 . S
H1054 N1042 0.984 . S
H1055 N1042 0.985 . S
C1056 C1057 1.363 . S
C1056 C1062 1.379 . S
C1056 N1064 1.356 . S
C1057 C1056 1.363 . S
C1057 C1063 1.363 . S
C1058 C1059 1.363 . S
C1058 C1063 1.379 . S
C1058 N1065 1.356 1_655 S
C1059 C1058 1.363 . S
C1059 C1062 1.363 . S
N1060 C1062 1.356 . S
N1060 H1072 0.984 . S
N1060 H1073 0.985 . S
N1061 C1063 1.356 . S
N1061 H1066 0.984 . S
N1061 H1067 0.985 . S
C1062 C1056 1.379 . S
C1062 C1059 1.363 . S
C1062 N1060 1.356 . S
C1063 C1057 1.363 . S
C1063 C1058 1.379 . S
C1063 N1061 1.356 . S
N1064 C1056 1.356 . S
N1064 H1070 0.984 . S
N1064 H1071 0.984 . S
N1065 C1058 1.356 1_455 S
N1065 H1068 0.984 . S
N1065 H1069 0.985 . S
H1066 N1061 0.984 . S
H1067 N1061 0.985 . S
H1068 N1065 0.984 . S
H1069 N1065 0.985 . S
H1070 N1064 0.984 . S
H1071 N1064 0.984 . S
H1072 N1060 0.984 . S
H1073 N1060 0.985 . S
C1074 C1075 1.363 . S
C1074 C1080 1.379 . S
C1074 N1082 1.356 . S
C1075 C1074 1.363 . S
C1075 C1081 1.363 . S
C1076 C1077 1.363 . S
C1076 C1081 1.379 . S
C1076 N1083 1.356 . S
C1077 C1076 1.363 . S
C1077 C1080 1.363 . S
N1078 C1080 1.356 . S
N1078 H1090 0.984 . S
N1078 H1091 0.985 . S
N1079 C1081 1.356 . S
N1079 H1084 0.984 . S
N1079 H1085 0.985 . S
C1080 C1074 1.379 . S
C1080 C1077 1.363 . S
C1080 N1078 1.356 . S
C1081 C1075 1.363 . S
C1081 C1076 1.379 . S
C1081 N1079 1.356 . S
N1082 C1074 1.356 . S
N1082 H1088 0.984 . S
N1082 H1089 0.984 . S
N1083 C1076 1.356 . S
N1083 H1086 0.984 . S
N1083 H1087 0.985 . S
H1084 N1079 0.984 . S
H1085 N1079 0.985 . S
H1086 N1083 0.984 . S
H1087 N1083 0.985 . S
H1088 N1082 0.984 . S
H1089 N1082 0.984 . S
H1090 N1078 0.984 . S
H1091 N1078 0.985 . S
C1092 C1093 1.363 . S
C1092 C1098 1.379 . S
C1092 N1100 1.356 . S
C1093 C1092 1.363 . S
C1093 C1099 1.363 . S
C1094 C1095 1.363 . S
C1094 C1099 1.379 . S
C1094 N1101 1.356 . S
C1095 C1094 1.363 . S
C1095 C1098 1.363 . S
N1096 C1098 1.356 . S
N1096 H1108 0.984 . S
N1096 H1109 0.985 . S
N1097 C1099 1.356 . S
N1097 H1102 0.984 . S
N1097 H1103 0.985 . S
C1098 C1092 1.379 . S
C1098 C1095 1.363 . S
C1098 N1096 1.356 . S
C1099 C1093 1.363 . S
C1099 C1094 1.379 . S
C1099 N1097 1.356 . S
N1100 C1092 1.356 . S
N1100 H1106 0.984 . S
N1100 H1107 0.984 . S
N1101 C1094 1.356 . S
N1101 H1104 0.984 . S
N1101 H1105 0.985 . S
H1102 N1097 0.984 . S
H1103 N1097 0.985 . S
H1104 N1101 0.984 . S
H1105 N1101 0.985 . S
H1106 N1100 0.984 . S
H1107 N1100 0.984 . S
H1108 N1096 0.984 . S
H1109 N1096 0.985 . S
C1110 C1111 1.363 . S
C1110 C1116 1.379 . S
C1110 N1118 1.356 . S
C1111 C1110 1.363 . S
C1111 C1117 1.363 . S
C1112 C1113 1.363 . S
C1112 C1117 1.379 . S
C1112 N1119 1.356 . S
C1113 C1112 1.363 . S
C1113 C1116 1.363 . S
N1114 C1116 1.356 . S
N1114 H1126 0.984 . S
N1114 H1127 0.985 . S
N1115 C1117 1.356 . S
N1115 H1120 0.984 . S
N1115 H1121 0.985 . S
C1116 C1110 1.379 . S
C1116 C1113 1.363 . S
C1116 N1114 1.356 . S
C1117 C1111 1.363 . S
C1117 C1112 1.379 . S
C1117 N1115 1.356 . S
N1118 C1110 1.356 . S
N1118 H1124 0.984 . S
N1118 H1125 0.984 . S
N1119 C1112 1.356 . S
N1119 H1122 0.984 . S
N1119 H1123 0.985 . S
H1120 N1115 0.984 . S
H1121 N1115 0.985 . S
H1122 N1119 0.984 . S
H1123 N1119 0.985 . S
H1124 N1118 0.984 . S
H1125 N1118 0.984 . S
H1126 N1114 0.984 . S
H1127 N1114 0.985 . S
C1128 C1129 1.363 . S
C1128 C1134 1.379 . S
C1128 N1136 1.356 . S
C1129 C1128 1.363 . S
C1129 C1135 1.363 . S
C1130 C1131 1.363 . S
C1130 C1135 1.379 . S
C1130 N1137 1.356 . S
C1131 C1130 1.363 . S
C1131 C1134 1.363 . S
N1132 C1134 1.356 . S
N1132 H1144 0.984 . S
N1132 H1145 0.985 1_455 S
N1133 C1135 1.356 . S
N1133 H1138 0.984 . S
N1133 H1139 0.985 . S
C1134 C1128 1.379 . S
C1134 C1131 1.363 . S
C1134 N1132 1.356 . S
C1135 C1129 1.363 . S
C1135 C1130 1.379 . S
C1135 N1133 1.356 . S
N1136 C1128 1.356 . S
N1136 H1142 0.984 . S
N1136 H1143 0.984 . S
N1137 C1130 1.356 . S
N1137 H1140 0.984 1_455 S
N1137 H1141 0.985 . S
H1138 N1133 0.984 . S
H1139 N1133 0.985 . S
H1140 N1137 0.984 1_655 S
H1141 N1137 0.985 . S
H1142 N1136 0.984 . S
H1143 N1136 0.984 . S
H1144 N1132 0.984 . S
H1145 N1132 0.985 1_655 S
C1146 C1147 1.363 . S
C1146 C1152 1.379 . S
C1146 N1154 1.356 . S
C1147 C1146 1.363 . S
C1147 C1153 1.363 . S
C1148 C1149 1.363 . S
C1148 C1153 1.379 . S
C1148 N1155 1.356 . S
C1149 C1148 1.363 . S
C1149 C1152 1.363 . S
N1150 C1152 1.356 . S
N1150 H1162 0.984 . S
N1150 H1163 0.985 . S
N1151 C1153 1.356 . S
N1151 H1156 0.984 . S
N1151 H1157 0.985 . S
C1152 C1146 1.379 . S
C1152 C1149 1.363 . S
C1152 N1150 1.356 . S
C1153 C1147 1.363 . S
C1153 C1148 1.379 . S
C1153 N1151 1.356 . S
N1154 C1146 1.356 . S
N1154 H1160 0.984 . S
N1154 H1161 0.984 . S
N1155 C1148 1.356 . S
N1155 H1158 0.984 . S
N1155 H1159 0.985 . S
H1156 N1151 0.984 . S
H1157 N1151 0.985 . S
H1158 N1155 0.984 . S
H1159 N1155 0.985 . S
H1160 N1154 0.984 . S
H1161 N1154 0.984 . S
H1162 N1150 0.984 . S
H1163 N1150 0.985 . S
C1164 C1165 1.363 . S
C1164 C1170 1.379 . S
C1164 N1172 1.356 . S
C1165 C1164 1.363 . S
C1165 C1171 1.363 . S
C1166 C1167 1.363 . S
C1166 C1171 1.379 . S
C1166 N1173 1.356 . S
C1167 C1166 1.363 . S
C1167 C1170 1.363 . S
N1168 C1170 1.356 . S
N1168 H1180 0.984 . S
N1168 H1181 0.985 . S
N1169 C1171 1.356 . S
N1169 H1174 0.984 . S
N1169 H1175 0.985 . S
C1170 C1164 1.379 . S
C1170 C1167 1.363 . S
C1170 N1168 1.356 . S
C1171 C1165 1.363 . S
C1171 C1166 1.379 . S
C1171 N1169 1.356 . S
N1172 C1164 1.356 . S
N1172 H1178 0.984 . S
N1172 H1179 0.984 . S
N1173 C1166 1.356 . S
N1173 H1176 0.984 . S
N1173 H1177 0.985 . S
H1174 N1169 0.984 . S
H1175 N1169 0.985 . S
H1176 N1173 0.984 . S
H1177 N1173 0.985 . S
H1178 N1172 0.984 . S
H1179 N1172 0.984 . S
H1180 N1168 0.984 . S
H1181 N1168 0.985 . S
C1182 C1183 1.363 . S
C1182 C1188 1.379 . S
C1182 N1190 1.356 . S
C1183 C1182 1.363 . S
C1183 C1189 1.363 . S
C1184 C1185 1.363 . S
C1184 C1189 1.379 . S
C1184 N1191 1.356 . S
C1185 C1184 1.363 . S
C1185 C1188 1.363 . S
N1186 C1188 1.356 . S
N1186 H1198 0.984 . S
N1186 H1199 0.985 . S
N1187 C1189 1.356 . S
N1187 H1192 0.984 . S
N1187 H1193 0.985 . S
C1188 C1182 1.379 . S
C1188 C1185 1.363 . S
C1188 N1186 1.356 . S
C1189 C1183 1.363 . S
C1189 C1184 1.379 . S
C1189 N1187 1.356 . S
N1190 C1182 1.356 . S
N1190 H1196 0.984 . S
N1190 H1197 0.984 . S
N1191 C1184 1.356 . S
N1191 H1194 0.984 . S
N1191 H1195 0.985 . S
H1192 N1187 0.984 . S
H1193 N1187 0.985 . S
H1194 N1191 0.984 . S
H1195 N1191 0.985 . S
H1196 N1190 0.984 . S
H1197 N1190 0.984 . S
H1198 N1186 0.984 . S
H1199 N1186 0.985 . S
C1200 C1201 1.363 . S
C1200 C1206 1.379 . S
C1200 N1208 1.356 . S
C1201 C1200 1.363 . S
C1201 C1207 1.363 . S
C1202 C1203 1.363 . S
C1202 C1207 1.379 . S
C1202 N1209 1.356 . S
C1203 C1202 1.363 . S
C1203 C1206 1.363 . S
N1204 C1206 1.356 . S
N1204 H1216 0.984 . S
N1204 H1217 0.985 . S
N1205 C1207 1.356 . S
N1205 H1210 0.984 . S
N1205 H1211 0.985 . S
C1206 C1200 1.379 . S
C1206 C1203 1.363 . S
C1206 N1204 1.356 . S
C1207 C1201 1.363 . S
C1207 C1202 1.379 . S
C1207 N1205 1.356 . S
N1208 C1200 1.356 . S
N1208 H1214 0.984 . S
N1208 H1215 0.984 . S
N1209 C1202 1.356 . S
N1209 H1212 0.984 . S
N1209 H1213 0.985 . S
H1210 N1205 0.984 . S
H1211 N1205 0.985 . S
H1212 N1209 0.984 . S
H1213 N1209 0.985 . S
H1214 N1208 0.984 . S
H1215 N1208 0.984 . S
H1216 N1204 0.984 . S
H1217 N1204 0.985 . S
C1218 C1219 1.363 . S
C1218 C1224 1.379 . S
C1218 N1226 1.356 . S
C1219 C1218 1.363 . S
C1219 C1225 1.363 . S
C1220 C1221 1.363 . S
C1220 C1225 1.379 . S
C1220 N1227 1.356 . S
C1221 C1220 1.363 . S
C1221 C1224 1.363 . S
N1222 C1224 1.356 . S
N1222 H1234 0.984 . S
N1222 H1235 0.985 . S
N1223 C1225 1.356 . S
N1223 H1228 0.984 . S
N1223 H1229 0.985 . S
C1224 C1218 1.379 . S
C1224 C1221 1.363 . S
C1224 N1222 1.356 . S
C1225 C1219 1.363 . S
C1225 C1220 1.379 . S
C1225 N1223 1.356 . S
N1226 C1218 1.356 . S
N1226 H1232 0.984 . S
N1226 H1233 0.984 . S
N1227 C1220 1.356 . S
N1227 H1230 0.984 . S
N1227 H1231 0.985 . S
H1228 N1223 0.984 . S
H1229 N1223 0.985 . S
H1230 N1227 0.984 . S
H1231 N1227 0.985 . S
H1232 N1226 0.984 . S
H1233 N1226 0.984 . S
H1234 N1222 0.984 . S
H1235 N1222 0.985 . S
C1236 C1237 1.363 . S
C1236 C1242 1.379 . S
C1236 N1244 1.356 . S
C1237 C1236 1.363 . S
C1237 C1243 1.363 . S
C1238 C1239 1.363 . S
C1238 C1243 1.379 . S
C1238 N1245 1.356 . S
C1239 C1238 1.363 . S
C1239 C1242 1.363 . S
N1240 C1242 1.356 . S
N1240 H1252 0.984 . S
N1240 H1253 0.985 . S
N1241 C1243 1.356 . S
N1241 H1246 0.984 . S
N1241 H1247 0.985 . S
C1242 C1236 1.379 . S
C1242 C1239 1.363 . S
C1242 N1240 1.356 . S
C1243 C1237 1.363 . S
C1243 C1238 1.379 . S
C1243 N1241 1.356 . S
N1244 C1236 1.356 . S
N1244 H1250 0.984 . S
N1244 H1251 0.984 . S
N1245 C1238 1.356 . S
N1245 H1248 0.984 . S
N1245 H1249 0.985 . S
H1246 N1241 0.984 . S
H1247 N1241 0.985 . S
H1248 N1245 0.984 . S
H1249 N1245 0.985 . S
H1250 N1244 0.984 . S
H1251 N1244 0.984 . S
H1252 N1240 0.984 . S
H1253 N1240 0.985 . S
C1254 C1255 1.363 1_556 S
C1254 C1260 1.379 . S
C1254 N1262 1.356 . S
C1255 C1254 1.363 1_554 S
C1255 C1261 1.363 1_455 S
C1256 C1257 1.363 1_554 S
C1256 C1261 1.379 . S
C1256 N1263 1.356 . S
C1257 C1256 1.363 1_556 S
C1257 C1260 1.363 1_655 S
N1258 C1260 1.356 . S
N1258 H1270 0.984 . S
N1258 H1271 0.985 1_455 S
N1259 C1261 1.356 . S
N1259 H1264 0.984 1_655 S
N1259 H1265 0.985 . S
C1260 C1254 1.379 . S
C1260 C1257 1.363 1_455 S
C1260 N1258 1.356 . S
C1261 C1255 1.363 1_655 S
C1261 C1256 1.379 . S
C1261 N1259 1.356 . S
N1262 C1254 1.356 . S
N1262 H1268 0.984 . S
N1262 H1269 0.984 1_556 S
N1263 C1256 1.356 . S
N1263 H1266 0.984 1_554 S
N1263 H1267 0.985 . S
H1264 N1259 0.984 1_455 S
H1265 N1259 0.985 . S
H1266 N1263 0.984 1_556 S
H1267 N1263 0.985 . S
H1268 N1262 0.984 . S
H1269 N1262 0.984 1_554 S
H1270 N1258 0.984 . S
H1271 N1258 0.985 1_655 S
C1272 C1273 1.363 . S
C1272 C1278 1.379 . S
C1272 N1280 1.356 . S
C1273 C1272 1.363 . S
C1273 C1279 1.363 . S
C1274 C1275 1.363 . S
C1274 C1279 1.379 . S
C1274 N1281 1.356 . S
C1275 C1274 1.363 . S
C1275 C1278 1.363 . S
N1276 C1278 1.356 . S
N1276 H1288 0.984 . S
N1276 H1289 0.985 . S
N1277 C1279 1.356 . S
N1277 H1282 0.984 . S
N1277 H1283 0.985 . S
C1278 C1272 1.379 . S
C1278 C1275 1.363 . S
C1278 N1276 1.356 . S
C1279 C1273 1.363 . S
C1279 C1274 1.379 . S
C1279 N1277 1.356 . S
N1280 C1272 1.356 . S
N1280 H1286 0.984 . S
N1280 H1287 0.984 . S
N1281 C1274 1.356 . S
N1281 H1284 0.984 . S
N1281 H1285 0.985 . S
H1282 N1277 0.984 . S
H1283 N1277 0.985 . S
H1284 N1281 0.984 . S
H1285 N1281 0.985 . S
H1286 N1280 0.984 . S
H1287 N1280 0.984 . S
H1288 N1276 0.984 . S
H1289 N1276 0.985 . S
C1290 C1291 1.363 . S
C1290 C1296 1.379 . S
C1290 N1298 1.356 . S
C1291 C1290 1.363 . S
C1291 C1297 1.363 . S
C1292 C1293 1.363 . S
C1292 C1297 1.379 . S
C1292 N1299 1.356 . S
C1293 C1292 1.363 . S
C1293 C1296 1.363 . S
N1294 C1296 1.356 . S
N1294 H1306 0.984 . S
N1294 H1307 0.985 . S
N1295 C1297 1.356 . S
N1295 H1300 0.984 . S
N1295 H1301 0.985 . S
C1296 C1290 1.379 . S
C1296 C1293 1.363 . S
C1296 N1294 1.356 . S
C1297 C1291 1.363 . S
C1297 C1292 1.379 . S
C1297 N1295 1.356 . S
N1298 C1290 1.356 . S
N1298 H1304 0.984 . S
N1298 H1305 0.984 . S
N1299 C1292 1.356 . S
N1299 H1302 0.984 . S
N1299 H1303 0.985 . S
H1300 N1295 0.984 . S
H1301 N1295 0.985 . S
H1302 N1299 0.984 . S
H1303 N1299 0.985 . S
H1304 N1298 0.984 . S
H1305 N1298 0.984 . S
H1306 N1294 0.984 . S
H1307 N1294 0.985 . S
C1308 C1309 1.367 1_655 S
C1308 C1314 1.374 1_545 S
C1308 N1316 1.358 . S
C1309 C1308 1.367 1_455 S
C1309 C1315 1.363 1_556 S
C1310 C1311 1.367 1_455 S
C1310 C1315 1.374 1_565 S
C1310 N1317 1.358 . S
C1311 C1310 1.367 1_655 S
C1311 C1314 1.363 1_554 S
N1312 C1314 1.356 . S
N1312 H1324 0.984 . S
N1312 H1325 0.985 1_556 S
N1313 C1315 1.356 . S
N1313 H1318 0.984 1_554 S
N1313 H1319 0.985 . S
C1314 C1308 1.374 1_565 S
C1314 C1311 1.363 1_556 S
C1314 N1312 1.356 . S
C1315 C1309 1.363 1_554 S
C1315 C1310 1.374 1_545 S
C1315 N1313 1.356 . S
N1316 C1308 1.358 . S
N1316 H1322 0.984 1_545 S
N1316 H1323 0.984 1_655 S
N1317 C1310 1.358 . S
N1317 H1320 0.984 1_455 S
N1317 H1321 0.985 1_565 S
H1318 N1313 0.984 1_556 S
H1319 N1313 0.985 . S
H1320 N1317 0.984 1_655 S
H1321 N1317 0.985 1_545 S
H1322 N1316 0.984 1_565 S
H1323 N1316 0.984 1_455 S
H1324 N1312 0.984 . S
H1325 N1312 0.985 1_554 S
C1326 C1327 1.363 1_565 S
C1326 C1332 1.379 . S
C1326 N1334 1.356 . S
C1327 C1326 1.363 1_545 S
C1327 C1333 1.363 . S
C1328 C1329 1.363 1_545 S
C1328 C1333 1.379 . S
C1328 N1335 1.356 . S
C1329 C1328 1.363 1_565 S
C1329 C1332 1.363 . S
N1330 C1332 1.356 . S
N1330 H1342 0.984 . S
N1330 H1343 0.985 . S
N1331 C1333 1.356 . S
N1331 H1336 0.984 . S
N1331 H1337 0.985 . S
C1332 C1326 1.379 . S
C1332 C1329 1.363 . S
C1332 N1330 1.356 . S
C1333 C1327 1.363 . S
C1333 C1328 1.379 . S
C1333 N1331 1.356 . S
N1334 C1326 1.356 . S
N1334 H1340 0.984 . S
N1334 H1341 0.984 . S
N1335 C1328 1.356 . S
N1335 H1338 0.984 . S
N1335 H1339 0.985 . S
H1336 N1331 0.984 . S
H1337 N1331 0.985 . S
H1338 N1335 0.984 . S
H1339 N1335 0.985 . S
H1340 N1334 0.984 . S
H1341 N1334 0.984 . S
H1342 N1330 0.984 . S
H1343 N1330 0.985 . S
C481 N14 0.888 . S
C483 C316 0.889 . S
C499 N44 0.902 . S
C501 N344 0.899 . S
C517 C76 1.014 . S
C519 N254 1.008 1_455 S
C535 N104 0.933 . S
C537 N284 0.936 . S
C553 N126 0.888 . S
C555 C447 0.889 . S
C571 N156 0.902 . S
C573 N456 0.899 . S
C589 C207 1.014 . S
C591 N366 1.008 1_655 S
C607 N216 0.933 . S
C609 N396 0.936 . S
C625 C280 1.222 . S
C627 N6 1.164 . S
C643 C301 1.064 . S
C645 N36 1.014 . S
C661 C340 1.203 . S
C663 C87 1.298 . S
C679 C250 1.657 . S
C681 N96 1.614 . S
C697 N134 1.164 . S
C699 C391 1.222 . S
C715 C430 1.064 . S
C717 N164 1.014 . S
C733 C451 1.203 . S
C735 C196 1.298 . S
C751 C361 1.657 . S
C753 N224 1.614 . S
C769 C40 1.265 . S
C771 N246 1.203 . S
C787 N276 1.180 . S
C789 C61 1.254 . S
C805 C327 1.422 . S
C807 C100 1.327 . S
C823 N336 1.575 . S
C825 C10 1.598 . S
C841 N374 1.203 . S
C843 C151 1.265 . S
C859 C190 1.254 . S
C861 N404 1.180 . S
C877 C211 1.326 . S
C879 C436 1.422 . S
C895 N464 1.575 . S
C897 C121 1.598 . S
C913 C27 1.844 . S
C915 C460 1.758 . S
C931 C57 1.892 . S
C933 C130 1.885 . S
C949 C400 1.215 1_455 S
C951 N66 1.203 . S
C967 C181 1.913 . S
C969 C117 1.953 . S
C985 C136 1.844 . S
C987 C331 1.758 . S
C1003 C166 1.892 . S
C1005 C1 1.885 . S
C1021 C271 1.215 1_655 S
C1023 N194 1.203 . S
C1039 C70 1.913 . S
C1041 C226 1.953 . S
C1057 C267 1.846 . S
C1059 C220 1.765 1_655 S
C1075 C297 1.869 . S
C1077 C370 1.861 . S
C1093 C160 1.252 . S
C1095 N306 1.251 . S
C1111 C421 1.986 . S
C1113 C357 2.028 . S
C1129 C376 1.846 . S
C1131 C91 1.765 1_455 S
C1147 C406 1.869 . S
C1149 C241 1.861 . S
C1165 N434 1.250 . S
C1167 C31 1.254 . S
C1183 C310 1.986 . S
C1185 C466 2.028 . S
C1201 C16 2.198 . S
C1203 C387 2.198 . S
C1219 C46 1.505 . S
C1221 C177 1.505 . S
C1237 N74 1.321 . S
C1239 N426 1.319 . S
C1255 C237 2.304 . S
C1257 C106 2.304 . S
C1273 C147 2.198 . S
C1275 C256 2.198 . S
C1291 N314 1.321 . S
C1293 N186 1.320 . S
C1309 C286 1.488 . S
C1311 C417 1.488 . S
C1327 C477 2.439 . S
C1329 C346 2.439 . S
