# Generated by pormake.
# Topology wje, (4)-cn, num edge types: 1
# Building blocks:
#     Node 0, Type 0, BuildingBlock: KUFVIS_clean_sbu_0, # of connection points: 4
#     Node 1, Type 0, BuildingBlock: KUFVIS_clean_sbu_0, # of connection points: 4
#     Node 2, Type 0, BuildingBlock: KUFVIS_clean_sbu_0, # of connection points: 4
#     Node 3, Type 0, BuildingBlock: KUFVIS_clean_sbu_0, # of connection points: 4
#     Node 4, Type 0, BuildingBlock: KUFVIS_clean_sbu_0, # of connection points: 4
#     Node 5, Type 0, BuildingBlock: KUFVIS_clean_sbu_0, # of connection points: 4
#     Node 6, Type 0, BuildingBlock: KUFVIS_clean_sbu_0, # of connection points: 4
#     Node 7, Type 0, BuildingBlock: KUFVIS_clean_sbu_0, # of connection points: 4
#     Node 8, Type 0, BuildingBlock: KUFVIS_clean_sbu_0, # of connection points: 4
#     Node 9, Type 0, BuildingBlock: KUFVIS_clean_sbu_0, # of connection points: 4
#     Node 10, Type 0, BuildingBlock: KUFVIS_clean_sbu_0, # of connection points: 4
#     Node 11, Type 0, BuildingBlock: KUFVIS_clean_sbu_0, # of connection points: 4
#     Edge 12, Type (0, 0), BuildingBlock: MIFKUJ_clean_linker_0, # of connection points: 2
#     Edge 13, Type (0, 0), BuildingBlock: MIFKUJ_clean_linker_0, # of connection points: 2
#     Edge 14, Type (0, 0), BuildingBlock: MIFKUJ_clean_linker_0, # of connection points: 2
#     Edge 15, Type (0, 0), BuildingBlock: MIFKUJ_clean_linker_0, # of connection points: 2
#     Edge 16, Type (0, 0), BuildingBlock: MIFKUJ_clean_linker_0, # of connection points: 2
#     Edge 17, Type (0, 0), BuildingBlock: MIFKUJ_clean_linker_0, # of connection points: 2
#     Edge 18, Type (0, 0), BuildingBlock: MIFKUJ_clean_linker_0, # of connection points: 2
#     Edge 19, Type (0, 0), BuildingBlock: MIFKUJ_clean_linker_0, # of connection points: 2
#     Edge 20, Type (0, 0), BuildingBlock: MIFKUJ_clean_linker_0, # of connection points: 2
#     Edge 21, Type (0, 0), BuildingBlock: MIFKUJ_clean_linker_0, # of connection points: 2
#     Edge 22, Type (0, 0), BuildingBlock: MIFKUJ_clean_linker_0, # of connection points: 2
#     Edge 23, Type (0, 0), BuildingBlock: MIFKUJ_clean_linker_0, # of connection points: 2
#     Edge 24, Type (0, 0), BuildingBlock: MIFKUJ_clean_linker_0, # of connection points: 2
#     Edge 25, Type (0, 0), BuildingBlock: MIFKUJ_clean_linker_0, # of connection points: 2
#     Edge 26, Type (0, 0), BuildingBlock: MIFKUJ_clean_linker_0, # of connection points: 2
#     Edge 27, Type (0, 0), BuildingBlock: MIFKUJ_clean_linker_0, # of connection points: 2
#     Edge 28, Type (0, 0), BuildingBlock: MIFKUJ_clean_linker_0, # of connection points: 2
#     Edge 29, Type (0, 0), BuildingBlock: MIFKUJ_clean_linker_0, # of connection points: 2
#     Edge 30, Type (0, 0), BuildingBlock: MIFKUJ_clean_linker_0, # of connection points: 2
#     Edge 31, Type (0, 0), BuildingBlock: MIFKUJ_clean_linker_0, # of connection points: 2
#     Edge 32, Type (0, 0), BuildingBlock: MIFKUJ_clean_linker_0, # of connection points: 2
#     Edge 33, Type (0, 0), BuildingBlock: MIFKUJ_clean_linker_0, # of connection points: 2
#     Edge 34, Type (0, 0), BuildingBlock: MIFKUJ_clean_linker_0, # of connection points: 2
#     Edge 35, Type (0, 0), BuildingBlock: MIFKUJ_clean_linker_0, # of connection points: 2
# Relax obj value: 0.164
# Max RMSD: 0.107
# Mean RMSD: 0.107
data_MOF--net-wje--node1-KUFVIS_clean_sbu_0--edge1-MIFKUJ_clean_linker_0
_symmetry_space_group_name_H-M    P1
_symmetry_Int_Tables_number       1
_symmetry_cell_setting            triclinic
loop_
_symmetry_equiv_pos_as_xyz
'x, y, z'
_cell_length_a     51.220448
_cell_length_b     51.23747
_cell_length_c     49.411686
_cell_angle_alpha  90.016144
_cell_angle_beta   90.008242
_cell_angle_gamma 120.00165
loop_
_atom_site_label
_atom_site_type_symbol
_atom_site_fract_x
_atom_site_fract_y
_atom_site_fract_z
_atom_type_partial_charge
Mn0 Mn 0.3196 0.02131 0.31271 0.0
Mn1 Mn 0.30446 0.98406 0.25353 0.0
C2 C 0.27019 0.98952 0.29968 0.0
C3 C 0.32794 0.02048 0.35939 0.0
C4 C 0.32391 0.05058 0.25747 0.0
O5 O 0.35955 0.02424 0.30331 0.0
O6 O 0.34681 0.99761 0.26444 0.0
C7 C 0.30846 0.93097 0.27128 0.0
N8 N 0.29222 0.94277 0.26027 0.0
C9 C 0.2489 0.89341 0.25451 0.0
C10 C 0.2652 0.88073 0.26569 0.0
C11 C 0.29511 0.89961 0.27411 0.0
C12 C 0.26348 0.92481 0.25197 0.0
H13 H 0.33142 0.94537 0.27788 0.0
C14 C 0.36573 0.01261 0.28323 0.0
O15 O 0.33668 0.04588 0.34683 0.0
O16 O 0.3155 0.99642 0.34472 0.0
N17 N 0.26402 0.96933 0.24134 0.0
C18 C 0.25089 0.98524 0.23248 0.0
C19 C 0.22068 0.96973 0.22401 0.0
C20 C 0.20435 0.9381 0.22466 0.0
C21 C 0.21832 0.92221 0.23393 0.0
C22 C 0.24853 0.93888 0.24197 0.0
H23 H 0.26334 0.00956 0.23198 0.0
O24 O 0.27674 0.01092 0.31704 0.0
O25 O 0.29301 0.98791 0.29023 0.0
O26 O 0.3263 0.05293 0.28332 0.0
O27 O 0.31617 0.026 0.24483 0.0
C28 C 0.20339 0.89054 0.23581 0.0
C29 C 0.21863 0.87616 0.24617 0.0
H30 H 0.25491 0.85655 0.26808 0.0
H31 H 0.30782 0.89 0.28282 0.0
H32 H 0.21 0.98214 0.21698 0.0
H33 H 0.18108 0.92629 0.21807 0.0
H34 H 0.18012 0.877 0.22954 0.0
H35 H 0.20677 0.85182 0.24783 0.0
Mn36 Mn 0.29727 0.32011 0.64736 0.0
Mn37 Mn 0.31513 0.29709 0.59006 0.0
C38 C 0.27681 0.26923 0.63885 0.0
C39 C 0.30947 0.33369 0.69291 0.0
C40 C 0.27192 0.32177 0.59184 0.0
O41 O 0.33457 0.35789 0.634 0.0
O42 O 0.34761 0.33892 0.59861 0.0
C43 C 0.36907 0.29508 0.60861 0.0
N44 N 0.34077 0.28088 0.59789 0.0
C45 C 0.3407 0.23395 0.59486 0.0
C46 C 0.36994 0.24815 0.60565 0.0
C47 C 0.38415 0.27883 0.61258 0.0
C48 C 0.32692 0.25138 0.59106 0.0
H49 H 0.37997 0.31858 0.61421 0.0
C50 C 0.35253 0.36042 0.61491 0.0
O51 O 0.29268 0.34169 0.67957 0.0
O52 O 0.31956 0.31889 0.67959 0.0
N53 N 0.2856 0.25674 0.58029 0.0
C54 C 0.25648 0.24583 0.57236 0.0
C55 C 0.23858 0.21514 0.56594 0.0
C56 C 0.25079 0.19601 0.56769 0.0
C57 C 0.28083 0.20775 0.57585 0.0
C58 C 0.29766 0.23857 0.58179 0.0
H59 H 0.2469 0.26038 0.57113 0.0
O60 O 0.2639 0.27847 0.65586 0.0
O61 O 0.30107 0.29017 0.62736 0.0
O62 O 0.27159 0.3248 0.61756 0.0
O63 O 0.28814 0.31267 0.58003 0.0
C64 C 0.29449 0.18994 0.57893 0.0
C65 C 0.32439 0.20301 0.58846 0.0
H66 H 0.38153 0.23562 0.60903 0.0
H67 H 0.40663 0.28989 0.62111 0.0
H68 H 0.21537 0.20622 0.55977 0.0
H69 H 0.23682 0.1723 0.56297 0.0
H70 H 0.28203 0.16605 0.57446 0.0
H71 H 0.33443 0.18895 0.59125 0.0
Mn72 Mn 0.97553 0.30059 0.98048 0.0
Mn73 Mn 0.01875 0.3186 0.92489 0.0
C74 C 0.00511 0.27894 0.97309 0.0
C75 C 0.97298 0.31301 0.02555 0.0
C76 C 0.95042 0.27742 0.92421 0.0
O77 O 0.97681 0.33862 0.96691 0.0
O78 O 0.01149 0.35245 0.9337 0.0
C79 C 0.07529 0.36962 0.94627 0.0
N80 N 0.06036 0.34178 0.93472 0.0
C81 C 0.10526 0.33783 0.93485 0.0
C82 C 0.12116 0.36658 0.94654 0.0
C83 C 0.1061 0.38252 0.9523 0.0
C84 C 0.07464 0.32624 0.92907 0.0
H85 H 0.06374 0.38183 0.95103 0.0
C86 C 0.99427 0.35737 0.94919 0.0
O87 O 0.94847 0.29651 0.01173 0.0
O88 O 0.99827 0.32237 0.0131 0.0
N89 N 0.02763 0.28767 0.91512 0.0
C90 C 0.00865 0.25947 0.90542 0.0
C91 C 0.02001 0.24026 0.89934 0.0
C92 C 0.05074 0.2502 0.90332 0.0
C93 C 0.06986 0.27935 0.91323 0.0
C94 C 0.05733 0.29763 0.91863 0.0
H95 H 0.98498 0.25161 0.90242 0.0
O96 O 0.98238 0.26635 0.98953 0.0
O97 O 0.00935 0.30352 0.96166 0.0
O98 O 0.94618 0.27594 0.94985 0.0
O99 O 0.97624 0.29387 0.91321 0.0
C100 C 0.10075 0.29077 0.91843 0.0
C101 C 0.11842 0.31996 0.9293 0.0
H102 H 0.14486 0.37649 0.95145 0.0
H103 H 0.11817 0.40462 0.96151 0.0
H104 H 0.0051 0.21778 0.89172 0.0
H105 H 0.05936 0.2352 0.89887 0.0
H106 H 0.11107 0.27715 0.91445 0.0
H107 H 0.14203 0.32829 0.9336 0.0
Mn108 Mn 0.67771 0.97784 0.31243 0.0
Mn109 Mn 0.69617 0.01612 0.25374 0.0
C110 C 0.72765 0.00646 0.29998 0.0
C111 C 0.66945 0.97911 0.35894 0.0
C112 C 0.67048 0.94832 0.25698 0.0
O113 O 0.63974 0.97881 0.30272 0.0
O114 O 0.65494 0.00697 0.26467 0.0
C115 C 0.69947 0.07258 0.27241 0.0
N116 N 0.713 0.05814 0.26105 0.0
C117 C 0.76022 0.10458 0.25731 0.0
C118 C 0.74673 0.11997 0.26881 0.0
C119 C 0.71622 0.10389 0.27637 0.0
C120 C 0.74228 0.07342 0.25349 0.0
H121 H 0.67611 0.06028 0.27853 0.0
C122 C 0.63535 0.99243 0.28316 0.0
O123 O 0.65879 0.9535 0.34624 0.0
O124 O 0.68367 0.00318 0.3445 0.0
N125 N 0.73574 0.02654 0.24167 0.0
C126 C 0.74584 0.00806 0.23252 0.0
C127 C 0.77619 0.02048 0.22499 0.0
C128 C 0.79584 0.05171 0.227 0.0
C129 C 0.78491 0.07028 0.2364 0.0
C130 C 0.75435 0.05668 0.24328 0.0
H131 H 0.73091 0.984 0.23117 0.0
O132 O 0.71936 0.98459 0.31716 0.0
O133 O 0.70616 0.0102 0.29034 0.0
O134 O 0.6687 0.94585 0.28283 0.0
O135 O 0.67985 0.97334 0.24458 0.0
C136 C 0.80329 0.10167 0.23975 0.0
C137 C 0.79095 0.11881 0.25017 0.0
H138 H 0.75967 0.14407 0.2722 0.0
H139 H 0.7057 0.11558 0.28541 0.0
H140 H 0.78446 0.00599 0.21781 0.0
H141 H 0.81932 0.06117 0.22147 0.0
H142 H 0.82703 0.1128 0.2347 0.0
H143 H 0.8054 0.14286 0.25299 0.0
Mn144 Mn 0.69611 0.67597 0.64507 0.0
Mn145 Mn 0.6782 0.69624 0.58632 0.0
C146 C 0.71725 0.72637 0.63428 0.0
C147 C 0.68421 0.66511 0.691 0.0
C148 C 0.72042 0.67053 0.59028 0.0
O149 O 0.65825 0.63795 0.63311 0.0
O150 O 0.64514 0.65518 0.59651 0.0
C151 C 0.62517 0.70066 0.60349 0.0
N152 N 0.65345 0.71377 0.59281 0.0
C153 C 0.6552 0.7614 0.5883 0.0
C154 C 0.62602 0.74834 0.59908 0.0
C155 C 0.61095 0.71784 0.6067 0.0
C156 C 0.66807 0.74305 0.5852 0.0
H157 H 0.61363 0.67731 0.60965 0.0
C158 C 0.64009 0.63458 0.61393 0.0
O159 O 0.70042 0.65581 0.67846 0.0
O160 O 0.67452 0.6796 0.67669 0.0
N161 N 0.70835 0.73576 0.57504 0.0
C162 C 0.73721 0.7455 0.5669 0.0
C163 C 0.7558 0.77582 0.55961 0.0
C164 C 0.74458 0.79582 0.56082 0.0
C165 C 0.71479 0.78527 0.56919 0.0
C166 C 0.69719 0.75472 0.57587 0.0
H167 H 0.74606 0.73031 0.56614 0.0
O168 O 0.73009 0.71773 0.65193 0.0
O169 O 0.69271 0.70506 0.62345 0.0
O170 O 0.72107 0.66903 0.61613 0.0
O171 O 0.7043 0.67923 0.57767 0.0
C172 C 0.70213 0.80404 0.57175 0.0
C173 C 0.67235 0.79211 0.58129 0.0
H174 H 0.61511 0.7616 0.60192 0.0
H175 H 0.5885 0.70765 0.6152 0.0
H176 H 0.77878 0.78379 0.55323 0.0
H177 H 0.7591 0.81927 0.55548 0.0
H178 H 0.71525 0.82779 0.56685 0.0
H179 H 0.66305 0.80689 0.58361 0.0
Mn180 Mn 0.02467 0.70314 0.98639 0.0
Mn181 Mn 0.98455 0.68074 0.92854 0.0
C182 C 0.99409 0.72245 0.97425 0.0
C183 C 0.02521 0.69485 0.03317 0.0
C184 C 0.0522 0.72498 0.93017 0.0
O185 O 0.02547 0.66491 0.97666 0.0
O186 O 0.99501 0.64986 0.94006 0.0
C187 C 0.92926 0.62721 0.94866 0.0
N188 N 0.94278 0.65471 0.93645 0.0
C189 C 0.89522 0.65306 0.93144 0.0
C190 C 0.88078 0.62462 0.9438 0.0
C191 C 0.89789 0.61166 0.95245 0.0
C192 C 0.92651 0.66732 0.92787 0.0
H193 H 0.94234 0.61726 0.95558 0.0
C194 C 0.01097 0.64595 0.95789 0.0
O195 O 0.05026 0.71037 0.0198 0.0
O196 O 0.00065 0.68359 0.01922 0.0
N197 N 0.97269 0.70862 0.9159 0.0
C198 C 0.99032 0.7372 0.90643 0.0
C199 C 0.97682 0.75389 0.89807 0.0
C200 C 0.94537 0.74104 0.8995 0.0
C201 C 0.92768 0.71157 0.90924 0.0
C202 C 0.94236 0.6959 0.91704 0.0
H203 H 0.01453 0.74728 0.90548 0.0
O204 O 0.01604 0.73689 0.99121 0.0
O205 O 0.9911 0.69745 0.96488 0.0
O206 O 0.05546 0.7266 0.95597 0.0
O207 O 0.02697 0.70798 0.91849 0.0
C208 C 0.89614 0.6974 0.91214 0.0
C209 C 0.87992 0.66818 0.92324 0.0
H210 H 0.85663 0.6127 0.94704 0.0
H211 H 0.88693 0.5898 0.96217 0.0
H212 H 0.99064 0.77668 0.89068 0.0
H213 H 0.93508 0.75411 0.89331 0.0
H214 H 0.88418 0.70899 0.90632 0.0
H215 H 0.85574 0.65776 0.92583 0.0
Mn216 Mn 0.98397 0.68137 0.36975 0.0
Mn217 Mn 0.01595 0.69198 0.43123 0.0
C218 C 0.0138 0.72989 0.38633 0.0
C219 C 0.98764 0.67555 0.32303 0.0
C220 C 0.94948 0.67107 0.42283 0.0
O221 O 0.98082 0.64091 0.37774 0.0
O222 O 0.00659 0.65195 0.41697 0.0
C223 C 0.07312 0.69418 0.41674 0.0
N224 N 0.05832 0.70722 0.42833 0.0
C225 C 0.10481 0.74896 0.44445 0.0
C226 C 0.12058 0.73597 0.43277 0.0
C227 C 0.10467 0.70855 0.41869 0.0
C228 C 0.07344 0.7338 0.44152 0.0
H229 H 0.06093 0.67294 0.40619 0.0
C230 C 0.9928 0.63416 0.39717 0.0
O231 O 0.96161 0.66606 0.33459 0.0
O232 O 0.01103 0.68768 0.33865 0.0
N233 N 0.02658 0.73009 0.44701 0.0
C234 C 0.00822 0.74066 0.45537 0.0
C235 C 0.02075 0.76846 0.46888 0.0
C236 C 0.05188 0.78481 0.47404 0.0
C237 C 0.07026 0.77342 0.46521 0.0
C238 C 0.05661 0.74589 0.45144 0.0
H239 H 0.98421 0.72793 0.45188 0.0
O240 O 0.99415 0.72434 0.36738 0.0
O241 O 0.01528 0.70671 0.39497 0.0
O242 O 0.94983 0.67235 0.39696 0.0
O243 O 0.97269 0.67691 0.43689 0.0
C244 C 0.10156 0.7882 0.46972 0.0
C245 C 0.11893 0.77624 0.45902 0.0
H246 H 0.14489 0.74687 0.43441 0.0
H247 H 0.11668 0.69841 0.40957 0.0
H248 H 0.0064 0.77711 0.47557 0.0
H249 H 0.06144 0.80612 0.48468 0.0
H250 H 0.1124 0.80868 0.48154 0.0
H251 H 0.14308 0.78812 0.46222 0.0
Mn252 Mn 0.2973 0.97318 0.69433 0.0
Mn253 Mn 0.31599 0.0108 0.75342 0.0
C254 C 0.27602 0.00195 0.70642 0.0
C255 C 0.30787 0.97513 0.64784 0.0
C256 C 0.27378 0.94301 0.74939 0.0
O257 O 0.33596 0.97379 0.70482 0.0
O258 O 0.34841 0.00202 0.74284 0.0
C259 C 0.36944 0.0677 0.73595 0.0
N260 N 0.34123 0.05297 0.7468 0.0
C261 C 0.34023 0.09927 0.75102 0.0
C262 C 0.36935 0.11494 0.74005 0.0
C263 C 0.38401 0.09908 0.7325 0.0
C264 C 0.32701 0.06805 0.75438 0.0
H265 H 0.38067 0.05557 0.72983 0.0
C266 C 0.35379 0.98753 0.72452 0.0
O267 O 0.2924 0.94937 0.66019 0.0
O268 O 0.31768 0.99896 0.66263 0.0
N269 N 0.28643 0.02087 0.76504 0.0
C270 C 0.25752 0.00211 0.77323 0.0
C271 C 0.23926 0.01428 0.78039 0.0
C272 C 0.25087 0.04555 0.77899 0.0
C273 C 0.28069 0.0644 0.77052 0.0
C274 C 0.29795 0.05103 0.76395 0.0
H275 H 0.24835 0.97803 0.77404 0.0
O276 O 0.26273 0.98033 0.68894 0.0
O277 O 0.30092 0.00535 0.71654 0.0
O278 O 0.27339 0.94084 0.7235 0.0
O279 O 0.28946 0.96786 0.76204 0.0
C280 C 0.29371 0.09584 0.76768 0.0
C281 C 0.32347 0.11326 0.75798 0.0
H282 H 0.38052 0.1391 0.73702 0.0
H283 H 0.40641 0.111 0.72385 0.0
H284 H 0.21622 0.99956 0.78677 0.0
H285 H 0.2366 0.05481 0.78422 0.0
H286 H 0.28088 0.1068 0.77252 0.0
H287 H 0.33307 0.13735 0.7555 0.0
Mn288 Mn 0.32002 0.29909 0.02776 0.0
Mn289 Mn 0.30468 0.32026 0.08739 0.0
C290 C 0.27079 0.27904 0.04206 0.0
C291 C 0.32629 0.30763 0.98092 0.0
C292 C 0.32849 0.27668 0.08279 0.0
O293 O 0.35901 0.33768 0.03641 0.0
O294 O 0.34578 0.35123 0.07528 0.0
C295 C 0.30263 0.37425 0.06924 0.0
N296 N 0.28876 0.34638 0.08078 0.0
C297 C 0.24244 0.3472 0.08587 0.0
C298 C 0.25629 0.37597 0.07417 0.0
C299 C 0.28652 0.38957 0.06586 0.0
C300 C 0.25976 0.3332 0.08909 0.0
H301 H 0.32576 0.38467 0.06255 0.0
C302 C 0.36458 0.35581 0.05618 0.0
O303 O 0.33709 0.29257 0.9932 0.0
O304 O 0.31326 0.31835 0.99594 0.0
N305 N 0.26528 0.29217 0.10063 0.0
C306 C 0.25478 0.26368 0.11016 0.0
C307 C 0.22465 0.24664 0.11863 0.0
C308 C 0.20564 0.25901 0.11716 0.0
C309 C 0.21699 0.28842 0.1074 0.0
C310 C 0.24732 0.3045 0.09961 0.0
H311 H 0.26921 0.25394 0.1111 0.0
O312 O 0.27775 0.26485 0.02434 0.0
O313 O 0.29307 0.30411 0.05102 0.0
O314 O 0.3294 0.27586 0.05687 0.0
O315 O 0.32012 0.29285 0.09574 0.0
C316 C 0.19922 0.30218 0.10457 0.0
C317 C 0.21195 0.33155 0.09385 0.0
H318 H 0.24384 0.38772 0.07124 0.0
H319 H 0.29733 0.41172 0.0567 0.0
H320 H 0.21603 0.22393 0.12609 0.0
H321 H 0.18231 0.24565 0.12339 0.0
H322 H 0.17564 0.29023 0.11029 0.0
H323 H 0.19796 0.34174 0.09148 0.0
Mn324 Mn 0.0249 0.32051 0.35699 0.0
Mn325 Mn 0.98692 0.30122 0.4159 0.0
C326 C 0.99634 0.27036 0.36891 0.0
C327 C 0.02327 0.32922 0.31065 0.0
C328 C 0.05491 0.32762 0.4121 0.0
O329 O 0.02384 0.35831 0.36747 0.0
O330 O 0.99501 0.34208 0.40505 0.0
C331 C 0.92959 0.2967 0.39821 0.0
N332 N 0.94466 0.28367 0.40924 0.0
C333 C 0.89868 0.23618 0.41406 0.0
C334 C 0.88265 0.24915 0.40288 0.0
C335 C 0.89818 0.27954 0.39493 0.0
C336 C 0.92991 0.25451 0.41719 0.0
H337 H 0.94145 0.31997 0.39182 0.0
C338 C 0.00956 0.36208 0.38686 0.0
O339 O 0.049 0.34006 0.32318 0.0
O340 O 0.99929 0.31478 0.32518 0.0
N341 N 0.97741 0.26185 0.4278 0.0
C342 C 0.99644 0.25215 0.4363 0.0
C343 C 0.98459 0.22191 0.44394 0.0
C344 C 0.95336 0.20196 0.44273 0.0
C345 C 0.93421 0.21246 0.43398 0.0
C346 C 0.94726 0.24292 0.42693 0.0
H347 H 0.0205 0.26731 0.43706 0.0
O348 O 0.01809 0.27886 0.35155 0.0
O349 O 0.99277 0.29173 0.37907 0.0
O350 O 0.05716 0.32922 0.38624 0.0
O351 O 0.02997 0.3183 0.42466 0.0
C352 C 0.90277 0.19372 0.43139 0.0
C353 C 0.88501 0.20557 0.42145 0.0
H354 H 0.85848 0.23589 0.4 0.0
H355 H 0.88599 0.28966 0.38614 0.0
H356 H 0.99949 0.21392 0.45057 0.0
H357 H 0.94435 0.17857 0.44835 0.0
H358 H 0.89206 0.17004 0.4366 0.0
H359 H 0.86093 0.19081 0.41911 0.0
Mn360 Mn 0.70134 0.02395 0.69364 0.0
Mn361 Mn 0.68295 0.9876 0.75332 0.0
C362 C 0.72151 0.99425 0.70575 0.0
C363 C 0.69008 0.02194 0.64746 0.0
C364 C 0.727 0.05487 0.74806 0.0
O365 O 0.66357 0.02479 0.70444 0.0
O366 O 0.6514 0.9979 0.74322 0.0
C367 C 0.62771 0.93167 0.73692 0.0
N368 N 0.65617 0.94556 0.74727 0.0
C369 C 0.6551 0.89824 0.7515 0.0
C370 C 0.6257 0.88342 0.74107 0.0
C371 C 0.61195 0.90022 0.73376 0.0
C372 C 0.66954 0.92959 0.75458 0.0
H373 H 0.61716 0.9445 0.73098 0.0
C374 C 0.64616 0.01217 0.7246 0.0
O375 O 0.70644 0.0477 0.65959 0.0
O376 O 0.6799 0.99809 0.66229 0.0
N377 N 0.71154 0.97607 0.76455 0.0
C378 C 0.74077 0.99398 0.77233 0.0
C379 C 0.75815 0.98077 0.77927 0.0
C380 C 0.74535 0.94932 0.77808 0.0
C381 C 0.71522 0.93135 0.77003 0.0
C382 C 0.69888 0.94575 0.76366 0.0
H383 H 0.75083 0.01819 0.77298 0.0
O384 O 0.73496 0.01549 0.68797 0.0
O385 O 0.69705 0.99172 0.71615 0.0
O386 O 0.7265 0.05646 0.7222 0.0
O387 O 0.71112 0.03046 0.76127 0.0
C388 C 0.701 0.89977 0.76746 0.0
C389 C 0.67095 0.88323 0.75824 0.0
H390 H 0.61361 0.85921 0.73829 0.0
H391 H 0.58934 0.88897 0.72553 0.0
H392 H 0.78143 0.9948 0.78533 0.0
H393 H 0.75894 0.93924 0.78314 0.0
H394 H 0.7131 0.88803 0.77216 0.0
H395 H 0.6604 0.85901 0.75598 0.0
Mn396 Mn 0.6769 0.70218 0.02568 0.0
Mn397 Mn 0.6947 0.68258 0.08484 0.0
C398 C 0.72674 0.72237 0.03794 0.0
C399 C 0.66803 0.69168 0.97931 0.0
C400 C 0.67141 0.72665 0.08067 0.0
O401 O 0.63829 0.6642 0.0359 0.0
O402 O 0.65282 0.65146 0.07445 0.0
C403 C 0.695 0.62749 0.06726 0.0
N404 N 0.70971 0.65571 0.07813 0.0
C405 C 0.75564 0.65401 0.08232 0.0
C406 C 0.74092 0.62486 0.07135 0.0
C407 C 0.71047 0.61155 0.0638 0.0
C408 C 0.73894 0.66864 0.08568 0.0
H409 H 0.67168 0.61727 0.06116 0.0
C410 C 0.63336 0.64655 0.05587 0.0
O411 O 0.65826 0.70761 0.99164 0.0
O412 O 0.68178 0.68151 0.99403 0.0
N413 N 0.73484 0.71068 0.09642 0.0
C414 C 0.74632 0.73975 0.10472 0.0
C415 C 0.77687 0.75674 0.11193 0.0
C416 C 0.7953 0.7437 0.1105 0.0
C417 C 0.78297 0.71372 0.10194 0.0
C418 C 0.75228 0.69778 0.0953 0.0
H419 H 0.73234 0.75 0.10558 0.0
O420 O 0.71891 0.73607 0.02045 0.0
O421 O 0.70487 0.69761 0.04795 0.0
O422 O 0.66915 0.72655 0.05482 0.0
O423 O 0.68022 0.71073 0.09344 0.0
C424 C 0.8001 0.69929 0.0991 0.0
C425 C 0.78644 0.66944 0.08934 0.0
H426 H 0.75288 0.61263 0.06834 0.0
H427 H 0.699 0.58914 0.05516 0.0
H428 H 0.78626 0.77991 0.1184 0.0
H429 H 0.81894 0.75699 0.11578 0.0
H430 H 0.8239 0.71108 0.10401 0.0
H431 H 0.79994 0.65874 0.08689 0.0
H432 H 0.32513 0.05416 0.20234 0.0
H433 H 0.33129 0.0955 0.17405 0.0
H434 H 0.34137 0.1487 0.24505 0.0
H435 H 0.33472 0.10678 0.274 0.0
H436 H 0.30279 0.15107 0.20862 0.0
H437 H 0.40215 0.16475 0.2051 0.0
H438 H 0.44032 0.14936 0.19892 0.0
H439 H 0.41171 0.12441 0.11663 0.0
H440 H 0.37306 0.13925 0.12242 0.0
H441 H 0.34377 0.28323 0.13612 0.0
H442 H 0.34847 0.24774 0.16553 0.0
H443 H 0.33377 0.18937 0.09739 0.0
H444 H 0.32925 0.22523 0.06743 0.0
H445 H 0.37693 0.19159 0.13344 0.0
H446 H 0.2762 0.1749 0.13736 0.0
H447 H 0.23815 0.19056 0.14257 0.0
H448 H 0.26894 0.22055 0.22357 0.0
H449 H 0.30756 0.20549 0.21867 0.0
C450 C 0.32884 0.07463 0.21218 0.0
C451 C 0.32945 0.07701 0.24064 0.0
C452 C 0.33254 0.09842 0.19581 0.0
C453 C 0.33722 0.12543 0.20732 0.0
C454 C 0.33794 0.12809 0.23569 0.0
C455 C 0.33424 0.10416 0.25222 0.0
C456 C 0.3401 0.15017 0.18946 0.0
C457 C 0.3194 0.16034 0.19254 0.0
C458 C 0.36117 0.16167 0.16789 0.0
C459 C 0.38454 0.15291 0.16427 0.0
C460 C 0.40385 0.15578 0.18574 0.0
C461 C 0.4256 0.14719 0.1823 0.0
C462 C 0.4284 0.13586 0.15741 0.0
C463 C 0.4095 0.13317 0.1359 0.0
C464 C 0.3877 0.14171 0.13924 0.0
C465 C 0.34185 0.26303 0.12719 0.0
C466 C 0.33572 0.25692 0.09939 0.0
C467 C 0.34453 0.24273 0.14412 0.0
C468 C 0.34086 0.2156 0.1338 0.0
C469 C 0.33653 0.21012 0.10581 0.0
C470 C 0.33397 0.23063 0.0887 0.0
C471 C 0.33965 0.19237 0.15266 0.0
C472 C 0.36052 0.18245 0.14968 0.0
C473 C 0.31866 0.18097 0.17427 0.0
C474 C 0.29496 0.18932 0.17756 0.0
C475 C 0.27498 0.18499 0.15623 0.0
C476 C 0.25331 0.19377 0.15912 0.0
C477 C 0.25119 0.20664 0.18335 0.0
C478 C 0.27065 0.21062 0.20479 0.0
C479 C 0.29242 0.20195 0.20198 0.0
H480 H 0.23442 0.21347 0.18553 0.0
H481 H 0.44525 0.12921 0.15479 0.0
H482 H 0.27332 0.32614 0.53675 0.0
H483 H 0.23928 0.33284 0.50711 0.0
H484 H 0.19112 0.33824 0.57647 0.0
H485 H 0.22522 0.33117 0.60664 0.0
H486 H 0.15303 0.3 0.53794 0.0
H487 H 0.23632 0.40092 0.53948 0.0
H488 H 0.2896 0.44077 0.5358 0.0
H489 H 0.29119 0.41676 0.4528 0.0
H490 H 0.23801 0.37646 0.45609 0.0
H491 H 0.06196 0.34096 0.46586 0.0
H492 H 0.10185 0.34569 0.49572 0.0
H493 H 0.14854 0.33538 0.42762 0.0
H494 H 0.10842 0.33077 0.3972 0.0
H495 H 0.18779 0.37786 0.46592 0.0
H496 H 0.10654 0.27574 0.46465 0.0
H497 H 0.05323 0.23584 0.46721 0.0
H498 H 0.04822 0.2616 0.54891 0.0
H499 H 0.1015 0.30197 0.54671 0.0
C500 C 0.25567 0.32895 0.5459 0.0
C501 C 0.25209 0.32807 0.57423 0.0
C502 C 0.23627 0.33297 0.52881 0.0
C503 C 0.21279 0.33637 0.53949 0.0
C504 C 0.20918 0.33578 0.56775 0.0
C505 C 0.22876 0.33186 0.58499 0.0
C506 C 0.19134 0.33908 0.52092 0.0
C507 C 0.16061 0.31739 0.52256 0.0
C508 C 0.20127 0.36117 0.5002 0.0
C509 C 0.23323 0.38549 0.49811 0.0
C510 C 0.24809 0.40398 0.5205 0.0
C511 C 0.27827 0.42668 0.51847 0.0
C512 C 0.29379 0.43125 0.4941 0.0
C513 C 0.27914 0.41317 0.47168 0.0
C514 C 0.24897 0.39042 0.4736 0.0
C515 C 0.08083 0.34003 0.45703 0.0
C516 C 0.08173 0.33505 0.42909 0.0
C517 C 0.10366 0.34274 0.47421 0.0
C518 C 0.12789 0.34031 0.46402 0.0
C519 C 0.12995 0.3372 0.43594 0.0
C520 C 0.10702 0.33457 0.41857 0.0
C521 C 0.14963 0.33887 0.48309 0.0
C522 C 0.18031 0.36064 0.48146 0.0
C523 C 0.13974 0.31676 0.50375 0.0
C524 C 0.10793 0.29205 0.50543 0.0
C525 C 0.09403 0.27301 0.48312 0.0
C526 C 0.06381 0.2503 0.4845 0.0
C527 C 0.04729 0.24625 0.50817 0.0
C528 C 0.06103 0.2648 0.53057 0.0
C529 C 0.09126 0.28757 0.52928 0.0
H530 H 0.02387 0.22869 0.50917 0.0
H531 H 0.31716 0.44883 0.49257 0.0
H532 H 0.72489 0.06337 0.8023 0.0
H533 H 0.76128 0.10492 0.83002 0.0
H534 H 0.81319 0.14947 0.75883 0.0
H535 H 0.77667 0.10747 0.73064 0.0
H536 H 0.8484 0.14754 0.7997 0.0
H537 H 0.77393 0.17715 0.79101 0.0
H538 H 0.72284 0.1705 0.79225 0.0
H539 H 0.71647 0.15033 0.87715 0.0
H540 H 0.76738 0.15643 0.87634 0.0
H541 H 0.94928 0.27989 0.86902 0.0
H542 H 0.9097 0.24579 0.83834 0.0
H543 H 0.85397 0.19675 0.90635 0.0
H544 H 0.89359 0.23122 0.93752 0.0
H545 H 0.82097 0.20315 0.86543 0.0
H546 H 0.89373 0.17085 0.87389 0.0
H547 H 0.94502 0.17796 0.87345 0.0
H548 H 0.95422 0.20244 0.78944 0.0
H549 H 0.90317 0.19605 0.78952 0.0
C550 C 0.74385 0.08208 0.79235 0.0
C551 C 0.74781 0.08198 0.76414 0.0
C552 C 0.76461 0.10597 0.80831 0.0
C553 C 0.78989 0.13048 0.79655 0.0
C554 C 0.79378 0.13081 0.76834 0.0
C555 C 0.77281 0.10689 0.75224 0.0
C556 C 0.81284 0.15479 0.8141 0.0
C557 C 0.84252 0.16012 0.81368 0.0
C558 C 0.80501 0.17059 0.83296 0.0
C559 C 0.77441 0.16701 0.83356 0.0
C560 C 0.76156 0.17106 0.8099 0.0
C561 C 0.73264 0.16744 0.81054 0.0
C562 C 0.71639 0.15994 0.83475 0.0
C563 C 0.72907 0.15612 0.8584 0.0
C564 C 0.75798 0.1597 0.85787 0.0
C565 C 0.92857 0.26205 0.87762 0.0
C566 C 0.92484 0.25819 0.90587 0.0
C567 C 0.90592 0.24249 0.85995 0.0
C568 C 0.87906 0.21837 0.86999 0.0
C569 C 0.87459 0.21515 0.89814 0.0
C570 C 0.89729 0.23486 0.91594 0.0
C571 C 0.85643 0.19582 0.85101 0.0
C572 C 0.82685 0.19074 0.85127 0.0
C573 C 0.86429 0.18012 0.83207 0.0
C574 C 0.89472 0.18326 0.83178 0.0
C575 C 0.90676 0.17793 0.85536 0.0
C576 C 0.93579 0.18183 0.85518 0.0
C577 C 0.9529 0.19072 0.83145 0.0
C578 C 0.94096 0.1956 0.80782 0.0
C579 C 0.91197 0.19184 0.80792 0.0
H580 H 0.97539 0.19375 0.83137 0.0
H581 H 0.69401 0.15714 0.8352 0.0
H582 H 0.66228 0.72402 0.13517 0.0
H583 H 0.65644 0.75931 0.16377 0.0
H584 H 0.65995 0.81083 0.09348 0.0
H585 H 0.66624 0.77545 0.06436 0.0
H586 H 0.69716 0.84663 0.13351 0.0
H587 H 0.59402 0.76906 0.12743 0.0
H588 H 0.55096 0.71718 0.12936 0.0
H589 H 0.56839 0.7117 0.21356 0.0
H590 H 0.61185 0.76342 0.21205 0.0
H591 H 0.66028 0.94281 0.20264 0.0
H592 H 0.65476 0.90252 0.17298 0.0
H593 H 0.65846 0.85285 0.24187 0.0
H594 H 0.66395 0.89343 0.27212 0.0
H595 H 0.61594 0.81604 0.20186 0.0
H596 H 0.72003 0.89275 0.20744 0.0
H597 H 0.76215 0.94516 0.20604 0.0
H598 H 0.74266 0.95216 0.12271 0.0
H599 H 0.69999 0.89994 0.12377 0.0
C600 C 0.66156 0.74266 0.12559 0.0
C601 C 0.66481 0.74686 0.09734 0.0
C602 C 0.65803 0.76278 0.14207 0.0
C603 C 0.65748 0.78762 0.13083 0.0
C604 C 0.66021 0.79174 0.1026 0.0
C605 C 0.66364 0.77142 0.08596 0.0
C606 C 0.65564 0.80991 0.1489 0.0
C607 C 0.67908 0.84001 0.14809 0.0
C608 C 0.63254 0.80116 0.16853 0.0
C609 C 0.60636 0.77005 0.16956 0.0
C610 C 0.58883 0.75672 0.14631 0.0
C611 C 0.56431 0.72734 0.14734 0.0
C612 C 0.55698 0.71113 0.17156 0.0
C613 C 0.57411 0.72428 0.19481 0.0
C614 C 0.59867 0.75364 0.19389 0.0
C615 C 0.65964 0.92325 0.21169 0.0
C616 C 0.663 0.92161 0.23984 0.0
C617 C 0.65646 0.90019 0.19461 0.0
C618 C 0.65674 0.87494 0.20514 0.0
C619 C 0.65832 0.87225 0.23333 0.0
C620 C 0.66147 0.89545 0.25058 0.0
C621 C 0.65739 0.8526 0.18637 0.0
C622 C 0.63387 0.82258 0.18714 0.0
C623 C 0.68043 0.86137 0.16671 0.0
C624 C 0.70663 0.8925 0.16576 0.0
C625 C 0.7246 0.90551 0.18886 0.0
C626 C 0.74857 0.93519 0.18813 0.0
C627 C 0.75503 0.95201 0.16432 0.0
C628 C 0.7376 0.93912 0.14115 0.0
C629 C 0.71352 0.90947 0.1418 0.0
H630 H 0.77357 0.975 0.16381 0.0
H631 H 0.538 0.68839 0.17231 0.0
H632 H 0.93908 0.65956 0.47683 0.0
H633 H 0.89675 0.654 0.50335 0.0
H634 H 0.85418 0.66181 0.43091 0.0
H635 H 0.89723 0.66807 0.40391 0.0
H636 H 0.85326 0.69738 0.47042 0.0
H637 H 0.8265 0.59397 0.46436 0.0
H638 H 0.83442 0.55038 0.46717 0.0
H639 H 0.85312 0.56629 0.55217 0.0
H640 H 0.84573 0.61026 0.54981 0.0
H641 H 0.71811 0.66252 0.53557 0.0
H642 H 0.75351 0.65692 0.50683 0.0
H643 H 0.80353 0.65739 0.57718 0.0
H644 H 0.7678 0.66287 0.60649 0.0
H645 H 0.79851 0.61562 0.53745 0.0
H646 H 0.82753 0.72026 0.54281 0.0
H647 H 0.81815 0.76294 0.54036 0.0
H648 H 0.79476 0.74416 0.45635 0.0
H649 H 0.80343 0.70095 0.45844 0.0
C650 C 0.92066 0.65981 0.4663 0.0
C651 C 0.92171 0.66431 0.43809 0.0
C652 C 0.89628 0.65643 0.4816 0.0
C653 C 0.87203 0.65714 0.46918 0.0
C654 C 0.8726 0.66108 0.44095 0.0
C655 C 0.89714 0.66448 0.42551 0.0
C656 C 0.84711 0.65543 0.48609 0.0
C657 C 0.84091 0.67917 0.48467 0.0
C658 C 0.83149 0.63213 0.50531 0.0
C659 C 0.83578 0.60557 0.50685 0.0
C660 C 0.83252 0.58832 0.48362 0.0
C661 C 0.83688 0.56352 0.48514 0.0
C662 C 0.84433 0.55561 0.50982 0.0
C663 C 0.84736 0.57245 0.53306 0.0
C664 C 0.84305 0.5973 0.53165 0.0
C665 C 0.73643 0.66118 0.54514 0.0
C666 C 0.74025 0.66354 0.57345 0.0
C667 C 0.7567 0.65798 0.52857 0.0
C668 C 0.78147 0.65726 0.53978 0.0
C669 C 0.78461 0.65802 0.56809 0.0
C670 C 0.76419 0.66118 0.58481 0.0
C671 C 0.80483 0.65753 0.52172 0.0
C672 C 0.81077 0.63364 0.52301 0.0
C673 C 0.82023 0.68068 0.50237 0.0
C674 C 0.81586 0.70719 0.50084 0.0
C675 C 0.82022 0.72512 0.52385 0.0
C676 C 0.81502 0.7494 0.52253 0.0
C677 C 0.80579 0.75621 0.49824 0.0
C678 C 0.80187 0.73882 0.47517 0.0
C679 C 0.80693 0.71444 0.4764 0.0
H680 H 0.80174 0.775 0.49727 0.0
H681 H 0.8477 0.53641 0.51095 0.0
H682 H 0.22425 0.88905 0.73397 0.0
H683 H 0.18883 0.84841 0.76388 0.0
H684 H 0.24307 0.89635 0.83304 0.0
H685 H 0.27853 0.93642 0.80356 0.0
H686 H 0.22189 0.83764 0.83924 0.0
H687 H 0.18141 0.90127 0.81541 0.0
H688 H 0.16452 0.92736 0.78414 0.0
H689 H 0.0974 0.84227 0.75144 0.0
H690 H 0.11425 0.81568 0.78225 0.0
H691 H 0.10868 0.77216 0.94391 0.0
H692 H 0.14873 0.80633 0.91284 0.0
H693 H 0.09409 0.7561 0.84468 0.0
H694 H 0.05431 0.7223 0.87513 0.0
H695 H 0.11575 0.81496 0.83753 0.0
H696 H 0.1558 0.75142 0.86393 0.0
H697 H 0.17322 0.72669 0.89624 0.0
H698 H 0.2413 0.8131 0.9257 0.0
H699 H 0.22402 0.83836 0.8938 0.0
C700 C 0.2289 0.89065 0.75548 0.0
C701 C 0.25411 0.91621 0.76631 0.0
C702 C 0.20853 0.8675 0.77259 0.0
C703 C 0.21301 0.86952 0.80082 0.0
C704 C 0.23901 0.89423 0.81141 0.0
C705 C 0.25923 0.91727 0.79443 0.0
C706 C 0.18995 0.84711 0.81966 0.0
C707 C 0.19872 0.83282 0.83897 0.0
C708 C 0.15963 0.84061 0.81931 0.0
C709 C 0.14931 0.85651 0.80091 0.0
C710 C 0.1632 0.88813 0.80141 0.0
C711 C 0.15362 0.90301 0.78379 0.0
C712 C 0.12995 0.88648 0.76576 0.0
C713 C 0.11577 0.85504 0.76538 0.0
C714 C 0.12532 0.84005 0.78291 0.0
C715 C 0.10536 0.76819 0.92233 0.0
C716 C 0.0781 0.74447 0.91216 0.0
C717 C 0.12829 0.78774 0.90456 0.0
C718 C 0.12444 0.78382 0.87634 0.0
C719 C 0.09758 0.75976 0.86629 0.0
C720 C 0.07481 0.74035 0.88388 0.0
C721 C 0.1476 0.80527 0.85701 0.0
C722 C 0.13886 0.81955 0.83769 0.0
C723 C 0.17795 0.81191 0.85754 0.0
C724 C 0.18841 0.79677 0.87667 0.0
C725 C 0.17433 0.76515 0.87745 0.0
C726 C 0.1842 0.75103 0.89566 0.0
C727 C 0.20829 0.76831 0.91306 0.0
C728 C 0.22261 0.79975 0.91224 0.0
C729 C 0.2128 0.81397 0.89408 0.0
H730 H 0.21591 0.75734 0.92714 0.0
H731 H 0.12256 0.89803 0.75214 0.0
H732 H 0.39337 0.00399 0.23964 0.0
H733 H 0.44007 0.00217 0.23927 0.0
H734 H 0.45174 0.02263 0.32464 0.0
H735 H 0.40551 0.02548 0.32499 0.0
H736 H 0.50431 0.05046 0.30079 0.0
H737 H 0.42161 0.95004 0.301 0.0
H738 H 0.37332 0.90733 0.28551 0.0
H739 H 0.41293 0.90838 0.20865 0.0
H740 H 0.46134 0.95152 0.22349 0.0
H741 H 0.5991 0.9869 0.32581 0.0
H742 H 0.5535 0.99106 0.32509 0.0
H743 H 0.56091 0.00246 0.23848 0.0
H744 H 0.60703 0.99911 0.23903 0.0
H745 H 0.49903 0.95789 0.26364 0.0
H746 H 0.58286 0.06105 0.2666 0.0
H747 H 0.6303 0.10149 0.28601 0.0
H748 H 0.58654 0.0913 0.36256 0.0
H749 H 0.53895 0.05037 0.34372 0.0
C750 C 0.40603 0.00842 0.25829 0.0
C751 C 0.39557 0.01463 0.2824 0.0
C752 C 0.43266 0.00723 0.25808 0.0
C753 C 0.44906 0.01156 0.28206 0.0
C754 C 0.4394 0.01907 0.30591 0.0
C755 C 0.41295 0.02069 0.30607 0.0
C756 C 0.47557 0.00711 0.28244 0.0
C757 C 0.503 0.03009 0.29289 0.0
C758 C 0.47397 0.98051 0.27215 0.0
C759 C 0.44504 0.95422 0.26327 0.0
C760 C 0.41998 0.9413 0.28072 0.0
C761 C 0.39258 0.91701 0.27207 0.0
C762 C 0.39004 0.90519 0.24609 0.0
C763 C 0.41493 0.91759 0.22875 0.0
C764 C 0.44236 0.94197 0.23728 0.0
C765 C 0.59088 0.99 0.30657 0.0
C766 C 0.60665 0.99273 0.28246 0.0
C767 C 0.56491 0.99244 0.30623 0.0
C768 C 0.55402 0.9971 0.28175 0.0
C769 C 0.56907 0.99883 0.25754 0.0
C770 C 0.59541 0.99703 0.25792 0.0
C771 C 0.52754 0.00135 0.2816 0.0
C772 C 0.50017 0.97825 0.27138 0.0
C773 C 0.529 0.02749 0.29264 0.0
C774 C 0.55744 0.05244 0.30384 0.0
C775 C 0.58343 0.06724 0.28764 0.0
C776 C 0.61033 0.09028 0.29852 0.0
C777 C 0.61145 0.09891 0.32552 0.0
C778 C 0.58564 0.08457 0.34166 0.0
C779 C 0.5587 0.06145 0.33089 0.0
H780 H 0.6323 0.11675 0.33391 0.0
H781 H 0.36881 0.88639 0.23942 0.0
H782 H 0.62362 0.58223 0.64158 0.0
H783 H 0.57531 0.53531 0.63995 0.0
H784 H 0.54218 0.57488 0.58207 0.0
H785 H 0.59062 0.62161 0.58303 0.0
H786 H 0.52112 0.52239 0.65364 0.0
H787 H 0.4918 0.52159 0.53992 0.0
H788 H 0.51806 0.53831 0.49606 0.0
H789 H 0.59334 0.53326 0.52813 0.0
H790 H 0.56737 0.51614 0.57203 0.0
H791 H 0.3673 0.41547 0.63637 0.0
H792 H 0.41596 0.46204 0.63414 0.0
H793 H 0.45197 0.41683 0.58632 0.0
H794 H 0.40316 0.37058 0.58756 0.0
H795 H 0.47284 0.47067 0.56766 0.0
H796 H 0.46522 0.42881 0.65583 0.0
H797 H 0.44072 0.40779 0.69971 0.0
H798 H 0.44464 0.49128 0.71952 0.0
H799 H 0.4688 0.51267 0.67557 0.0
C800 C 0.60615 0.58093 0.62835 0.0
C801 C 0.61113 0.60571 0.61233 0.0
C802 C 0.57848 0.55409 0.62753 0.0
C803 C 0.55516 0.55143 0.61073 0.0
C804 C 0.55999 0.57616 0.59481 0.0
C805 C 0.58774 0.60293 0.59544 0.0
C806 C 0.52563 0.52299 0.61024 0.0
C807 C 0.5106 0.5111 0.63482 0.0
C808 C 0.51206 0.50787 0.58577 0.0
C809 C 0.52775 0.51789 0.55934 0.0
C810 C 0.51391 0.52395 0.53757 0.0
C811 C 0.52875 0.53351 0.51271 0.0
C812 C 0.55739 0.53694 0.50934 0.0
C813 C 0.57121 0.53071 0.53079 0.0
C814 C 0.55645 0.52112 0.55568 0.0
C815 C 0.38551 0.41549 0.62521 0.0
C816 C 0.38136 0.38922 0.6123 0.0
C817 C 0.41338 0.44211 0.62405 0.0
C818 C 0.43784 0.44282 0.61049 0.0
C819 C 0.43348 0.41687 0.59693 0.0
C820 C 0.40552 0.39038 0.59773 0.0
C821 C 0.46819 0.47029 0.61102 0.0
C822 C 0.48336 0.48201 0.58646 0.0
C823 C 0.48232 0.48471 0.63558 0.0
C824 C 0.46855 0.47223 0.66232 0.0
C825 C 0.46075 0.44264 0.6695 0.0
C826 C 0.44692 0.43067 0.69437 0.0
C827 C 0.44104 0.44816 0.71232 0.0
C828 C 0.44917 0.47775 0.70555 0.0
C829 C 0.46295 0.48982 0.68068 0.0
H830 H 0.43016 0.43878 0.73145 0.0
H831 H 0.56885 0.54436 0.49008 0.0
H832 H 0.04792 0.63098 0.98611 0.0
H833 H 0.04853 0.58352 0.9841 0.0
H834 H 0.97549 0.5485 0.92645 0.0
H835 H 0.97522 0.59582 0.92775 0.0
H836 H 0.00904 0.52755 0.99656 0.0
H837 H 0.98138 0.503 0.88177 0.0
H838 H 0.99108 0.53134 0.83908 0.0
H839 H 0.0701 0.60587 0.87376 0.0
H840 H 0.06113 0.57783 0.91651 0.0
H841 H 0.956 0.37413 0.97171 0.0
H842 H 0.96165 0.42433 0.97244 0.0
H843 H 0.04316 0.45866 0.92527 0.0
H844 H 0.03723 0.40836 0.92374 0.0
H845 H 0.01235 0.48301 0.90829 0.0
H846 H 0.04543 0.46957 0.99415 0.0
H847 H 0.04195 0.44284 0.03667 0.0
H848 H 0.96482 0.44933 0.0606 0.0
H849 H 0.96751 0.47569 0.01796 0.0
C850 C 0.03209 0.61322 0.9729 0.0
C851 C 0.01173 0.61739 0.95689 0.0
C852 C 0.0324 0.58607 0.97186 0.0
C853 C 0.01235 0.56259 0.95483 0.0
C854 C 0.99165 0.56651 0.93927 0.0
C855 C 0.99149 0.59364 0.94011 0.0
C856 C 0.01277 0.53383 0.9533 0.0
C857 C 0.00985 0.51786 0.97727 0.0
C858 C 0.01463 0.52149 0.92821 0.0
C859 C 0.02041 0.53838 0.90243 0.0
C860 C 0.0009 0.52538 0.88025 0.0
C861 C 0.00626 0.54141 0.85604 0.0
C862 C 0.03113 0.57042 0.85374 0.0
C863 C 0.05077 0.58344 0.8756 0.0
C864 C 0.04554 0.5675 0.89983 0.0
C865 C 0.97502 0.39229 0.9613 0.0
C866 C 0.99624 0.3872 0.94778 0.0
C867 C 0.97831 0.42104 0.96187 0.0
C868 C 0.00317 0.44541 0.94938 0.0
C869 C 0.02386 0.44023 0.93514 0.0
C870 C 0.02041 0.41141 0.93429 0.0
C871 C 0.00774 0.47635 0.95145 0.0
C872 C 0.01164 0.49274 0.92759 0.0
C873 C 0.00781 0.48949 0.97671 0.0
C874 C 0.00653 0.47439 1.00273 0.0
C875 C 0.02763 0.46518 0.00841 0.0
C876 C 0.0258 0.45009 0.03253 0.0
C877 C 0.00313 0.44432 0.05127 0.0
C878 C 0.98234 0.45379 0.04602 0.0
C879 C 0.98403 0.46884 0.02189 0.0
H880 H 0.0017 0.4325 0.06984 0.0
H881 H 0.03522 0.5828 0.83499 0.0
H882 H 0.96248 0.58704 0.3616 0.0
H883 H 0.96454 0.54034 0.35917 0.0
H884 H 0.02456 0.56888 0.42781 0.0
H885 H 0.02276 0.61539 0.43047 0.0
H886 H 0.04477 0.5482 0.38648 0.0
H887 H 0.95283 0.51672 0.4361 0.0
H888 H 0.90221 0.50993 0.44363 0.0
H889 H 0.86969 0.45523 0.37212 0.0
H890 H 0.92027 0.46206 0.36395 0.0
H891 H 0.98543 0.38099 0.42651 0.0
H892 H 0.98233 0.42697 0.42737 0.0
H893 H 0.02721 0.45314 0.35004 0.0
H894 H 0.03099 0.40749 0.34918 0.0
H895 H 0.95437 0.44659 0.39499 0.0
H896 H 0.06896 0.52982 0.34707 0.0
H897 H 0.12013 0.53701 0.3426 0.0
H898 H 0.10838 0.48873 0.41679 0.0
H899 H 0.0573 0.48159 0.42187 0.0
C900 C 0.97597 0.58331 0.37629 0.0
C901 C 0.99238 0.60501 0.39627 0.0
C902 C 0.9771 0.5566 0.37487 0.0
C903 C 0.9947 0.55119 0.39333 0.0
C904 C 0.01094 0.57268 0.41332 0.0
C905 C 0.00969 0.59922 0.41488 0.0
C906 C 0.99659 0.5233 0.39183 0.0
C907 C 0.025 0.52596 0.38822 0.0
C908 C 0.97083 0.49436 0.39435 0.0
C909 C 0.94041 0.49017 0.39926 0.0
C910 C 0.93495 0.50346 0.42185 0.0
C911 C 0.90626 0.49957 0.42626 0.0
C912 C 0.88277 0.48224 0.40832 0.0
C913 C 0.88792 0.4687 0.38597 0.0
C914 C 0.91659 0.47255 0.38145 0.0
C915 C 0.99484 0.39657 0.40972 0.0
C916 C 0.00864 0.39055 0.38785 0.0
C917 C 0.99289 0.42279 0.4102 0.0
C918 C 0.00468 0.44359 0.38886 0.0
C919 C 0.01834 0.43763 0.36692 0.0
C920 C 0.02046 0.41147 0.36648 0.0
C921 C 0.0026 0.47145 0.38968 0.0
C922 C 0.97414 0.4688 0.39305 0.0
C923 C 0.02839 0.50045 0.3873 0.0
C924 C 0.05921 0.50491 0.38468 0.0
C925 C 0.07735 0.52084 0.36247 0.0
C926 C 0.10632 0.52488 0.35982 0.0
C927 C 0.11746 0.51324 0.37935 0.0
C928 C 0.09968 0.49763 0.40163 0.0
C929 C 0.0707 0.49354 0.40438 0.0
H930 H 0.13989 0.51638 0.37726 0.0
H931 H 0.86057 0.47924 0.41177 0.0
H932 H 0.61336 0.01381 0.68199 0.0
H933 H 0.56395 0.00986 0.68305 0.0
H934 H 0.56466 0.00758 0.7704 0.0
H935 H 0.61347 0.0097 0.76928 0.0
H936 H 0.51263 0.96858 0.755 0.0
H937 H 0.57609 0.07192 0.73085 0.0
H938 H 0.61482 0.11506 0.70491 0.0
H939 H 0.5615 0.08117 0.63275 0.0
H940 H 0.52261 0.0376 0.65819 0.0
H941 H 0.39137 0.00041 0.76805 0.0
H942 H 0.44103 0.0044 0.76892 0.0
H943 H 0.43248 0.98109 0.68427 0.0
H944 H 0.38265 0.97666 0.68322 0.0
H945 H 0.48813 0.03417 0.69952 0.0
H946 H 0.42473 0.93022 0.72622 0.0
H947 H 0.38624 0.88934 0.75436 0.0
H948 H 0.44075 0.92855 0.82511 0.0
H949 H 0.47939 0.96993 0.79743 0.0
C950 C 0.60313 0.0128 0.70144 0.0
C951 C 0.61737 0.01229 0.72557 0.0
C952 C 0.57488 0.01068 0.70204 0.0
C953 C 0.56066 0.00903 0.72683 0.0
C954 C 0.57508 0.00886 0.751 0.0
C955 C 0.60304 0.0102 0.75037 0.0
C956 C 0.5303 0.0063 0.72746 0.0
C957 C 0.50754 0.98333 0.7432 0.0
C958 C 0.52325 0.02512 0.71174 0.0
C959 C 0.54655 0.05136 0.69639 0.0
C960 C 0.57271 0.07356 0.70941 0.0
C961 C 0.59468 0.09811 0.6948 0.0
C962 C 0.59066 0.10082 0.66719 0.0
C963 C 0.5646 0.07902 0.65414 0.0
C964 C 0.54257 0.05442 0.66865 0.0
C965 C 0.39994 0.99591 0.74966 0.0
C966 C 0.383 0.98815 0.72558 0.0
C967 C 0.42828 0.99815 0.75022 0.0
C968 C 0.44034 0.99301 0.72667 0.0
C969 C 0.4235 0.98514 0.70265 0.0
C970 C 0.39497 0.98245 0.70215 0.0
C971 C 0.47086 0.99658 0.72692 0.0
C972 C 0.49352 0.01966 0.71137 0.0
C973 C 0.47796 0.97828 0.74317 0.0
C974 C 0.4548 0.95334 0.75979 0.0
C975 C 0.42839 0.93028 0.74781 0.0
C976 C 0.40657 0.90698 0.76367 0.0
C977 C 0.411 0.90639 0.79152 0.0
C978 C 0.43732 0.92906 0.80355 0.0
C979 C 0.4592 0.95242 0.78778 0.0
H980 H 0.39409 0.88834 0.80376 0.0
H981 H 0.60769 0.11983 0.65591 0.0
H982 H 0.39249 0.39208 0.09964 0.0
H983 H 0.43855 0.44111 0.09983 0.0
H984 H 0.44808 0.43407 0.01377 0.0
H985 H 0.40253 0.38439 0.01362 0.0
H986 H 0.50108 0.4586 0.03614 0.0
H987 H 0.4183 0.47622 0.04081 0.0
H988 H 0.37064 0.47039 0.05842 0.0
H989 H 0.41291 0.50687 0.13498 0.0
H990 H 0.46071 0.5124 0.11798 0.0
H991 H 0.5961 0.61664 0.01351 0.0
H992 H 0.55026 0.56717 0.01425 0.0
H993 H 0.55881 0.56219 0.10062 0.0
H994 H 0.60516 0.61146 0.10005 0.0
H995 H 0.49695 0.54479 0.07749 0.0
H996 H 0.58067 0.52599 0.06978 0.0
H997 H 0.62757 0.53356 0.04866 0.0
H998 H 0.58152 0.50129 0.97279 0.0
H999 H 0.53446 0.49409 0.99338 0.0
C1000 C 0.40449 0.40085 0.08077 0.0
C1001 C 0.39372 0.38444 0.05658 0.0
C1002 C 0.43076 0.42898 0.08088 0.0
C1003 C 0.44643 0.44164 0.0567 0.0
C1004 C 0.43632 0.42484 0.03266 0.0
C1005 C 0.41026 0.39644 0.03261 0.0
C1006 C 0.47288 0.47266 0.05644 0.0
C1007 C 0.5 0.47744 0.04493 0.0
C1008 C 0.47163 0.49736 0.06799 0.0
C1009 C 0.44303 0.49445 0.0782 0.0
C1010 C 0.41739 0.48281 0.06146 0.0
C1011 C 0.39034 0.47957 0.07133 0.0
C1012 C 0.38873 0.4882 0.09782 0.0
C1013 C 0.41418 0.50016 0.11447 0.0
C1014 C 0.44127 0.50336 0.10473 0.0
C1015 C 0.58807 0.60521 0.03273 0.0
C1016 C 0.60427 0.61792 0.05674 0.0
C1017 C 0.56195 0.57694 0.03307 0.0
C1018 C 0.55134 0.56113 0.05746 0.0
C1019 C 0.56675 0.57417 0.08162 0.0
C1020 C 0.59322 0.60221 0.08123 0.0
C1021 C 0.52489 0.53039 0.0575 0.0
C1022 C 0.49784 0.52579 0.06882 0.0
C1023 C 0.52601 0.50601 0.0453 0.0
C1024 C 0.55414 0.5098 0.03305 0.0
C1025 C 0.58061 0.52076 0.04854 0.0
C1026 C 0.60721 0.52495 0.03667 0.0
C1027 C 0.60754 0.51798 0.00938 0.0
C1028 C 0.58124 0.50672 0.99393 0.0
C1029 C 0.5546 0.50257 0.00568 0.0
H1030 H 0.62816 0.52123 1.00023 0.0
H1031 H 0.36777 0.48566 0.10543 0.0
H1032 H 0.07333 0.74818 0.38704 0.0
H1033 H 0.1148 0.79887 0.37901 0.0
H1034 H 0.05255 0.83244 0.37872 0.0
H1035 H 0.01089 0.78143 0.38826 0.0
H1036 H 0.08231 0.84368 0.33174 0.0
H1037 H 0.11356 0.86816 0.42277 0.0
H1038 H 0.12862 0.86579 0.4697 0.0
H1039 H 0.19706 0.84775 0.44069 0.0
H1040 H 0.18273 0.85053 0.39355 0.0
H1041 H 0.21628 0.98811 0.298 0.0
H1042 H 0.16778 0.94637 0.31375 0.0
H1043 H 0.20799 0.89019 0.3217 0.0
H1044 H 0.25635 0.932 0.3075 0.0
H1045 H 0.18598 0.89793 0.36903 0.0
H1046 H 0.14803 0.86995 0.27571 0.0
H1047 H 0.13398 0.87938 0.2304 0.0
H1048 H 0.07845 0.91057 0.26672 0.0
H1049 H 0.09154 0.90063 0.31218 0.0
C1050 C 0.06872 0.76661 0.38726 0.0
C1051 C 0.03903 0.76101 0.38927 0.0
C1052 C 0.09246 0.79566 0.38227 0.0
C1053 C 0.08686 0.81956 0.37835 0.0
C1054 C 0.05743 0.81438 0.38186 0.0
C1055 C 0.03369 0.78531 0.38737 0.0
C1056 C 0.11057 0.84785 0.36578 0.0
C1057 C 0.10484 0.856 0.34022 0.0
C1058 C 0.14 0.86383 0.37656 0.0
C1059 C 0.14689 0.85929 0.40469 0.0
C1060 C 0.13157 0.86332 0.42642 0.0
C1061 C 0.14022 0.86226 0.45303 0.0
C1062 C 0.16381 0.85665 0.45816 0.0
C1063 C 0.17882 0.85212 0.43668 0.0
C1064 C 0.17055 0.85359 0.41002 0.0
C1065 C 0.2143 0.96643 0.30214 0.0
C1066 C 0.23978 0.96295 0.3008 0.0
C1067 C 0.18664 0.94262 0.31108 0.0
C1068 C 0.18431 0.91518 0.31889 0.0
C1069 C 0.20926 0.91113 0.31566 0.0
C1070 C 0.23682 0.9349 0.30708 0.0
C1071 C 0.15801 0.89258 0.33453 0.0
C1072 C 0.16334 0.88574 0.36073 0.0
C1073 C 0.12823 0.87826 0.32449 0.0
C1074 C 0.12101 0.88487 0.29726 0.0
C1075 C 0.13302 0.87904 0.27399 0.0
C1076 C 0.12515 0.88436 0.24832 0.0
C1077 C 0.10564 0.89587 0.24571 0.0
C1078 C 0.09366 0.90176 0.26877 0.0
C1079 C 0.10113 0.89611 0.29447 0.0
H1080 H 0.09968 0.90005 0.22581 0.0
H1081 H 0.17041 0.85577 0.47879 0.0
H1082 H 0.22229 0.21722 0.63697 0.0
H1083 H 0.21266 0.1659 0.64664 0.0
H1084 H 0.30813 0.20104 0.65702 0.0
H1085 H 0.3175 0.25194 0.64869 0.0
H1086 H 0.27669 0.14653 0.62427 0.0
H1087 H 0.27094 0.19115 0.71009 0.0
H1088 H 0.24928 0.21369 0.74035 0.0
H1089 H 0.16194 0.13464 0.73255 0.0
H1090 H 0.18307 0.11182 0.70189 0.0
H1091 H 0.31741 0.05972 0.69692 0.0
H1092 H 0.30858 0.10084 0.68558 0.0
H1093 H 0.21286 0.0417 0.69588 0.0
H1094 H 0.22201 0.00051 0.70891 0.0
H1095 H 0.23203 0.10052 0.71304 0.0
H1096 H 0.24114 0.05159 0.63479 0.0
H1097 H 0.26397 0.0293 0.60567 0.0
H1098 H 0.34406 0.11574 0.59775 0.0
H1099 H 0.32202 0.13847 0.6273 0.0
C1100 C 0.24111 0.21369 0.64087 0.0
C1101 C 0.27073 0.23813 0.64097 0.0
C1102 C 0.23563 0.18456 0.64641 0.0
C1103 C 0.25976 0.17981 0.65223 0.0
C1104 C 0.28929 0.20425 0.65214 0.0
C1105 C 0.29465 0.23322 0.6471 0.0
C1106 C 0.25477 0.14989 0.66011 0.0
C1107 C 0.26676 0.1363 0.64355 0.0
C1108 C 0.2411 0.1363 0.68499 0.0
C1109 C 0.22847 0.14998 0.70342 0.0
C1110 C 0.24706 0.17872 0.7146 0.0
C1111 C 0.2349 0.19151 0.73187 0.0
C1112 C 0.20422 0.17565 0.73829 0.0
C1113 C 0.18567 0.14693 0.7275 0.0
C1114 C 0.19773 0.13406 0.71019 0.0
C1115 C 0.29463 0.05584 0.69805 0.0
C1116 C 0.27047 0.02734 0.70469 0.0
C1117 C 0.28953 0.07919 0.69107 0.0
C1118 C 0.26003 0.07411 0.68938 0.0
C1119 C 0.2358 0.04599 0.69704 0.0
C1120 C 0.24099 0.02258 0.70445 0.0
C1121 C 0.25493 0.0977 0.67755 0.0
C1122 C 0.24109 0.11011 0.69334 0.0
C1123 C 0.26679 0.11017 0.65179 0.0
C1124 C 0.27994 0.09672 0.63345 0.0
C1125 C 0.26369 0.06584 0.62699 0.0
C1126 C 0.27651 0.05311 0.6104 0.0
C1127 C 0.30546 0.07108 0.5999 0.0
C1128 C 0.32164 0.10184 0.60591 0.0
C1129 C 0.30898 0.11467 0.62257 0.0
H1130 H 0.31533 0.06119 0.58706 0.0
H1131 H 0.19484 0.18558 0.75167 0.0
H1132 H 0.21829 0.22623 0.0509 0.0
H1133 H 0.16699 0.21682 0.04149 0.0
H1134 H 0.20363 0.31063 0.02135 0.0
H1135 H 0.25441 0.31993 0.03034 0.0
H1136 H 0.13322 0.25125 0.05995 0.0
H1137 H 0.1756 0.30731 0.9577 0.0
H1138 H 0.2185 0.31997 0.92724 0.0
H1139 H 0.21894 0.23985 0.95182 0.0
H1140 H 0.17563 0.22635 0.98198 0.0
H1141 H 0.06041 0.31838 0.99106 0.0
H1142 H 0.10059 0.3082 1.00377 0.0
H1143 H 0.04576 0.21585 0.97808 0.0
H1144 H 0.00489 0.22592 0.96573 0.0
H1145 H 0.119 0.26146 0.96185 0.0
H1146 H 0.04347 0.21068 0.033 0.0
H1147 H 0.00689 0.20933 0.06624 0.0
H1148 H 0.07716 0.28809 0.10533 0.0
H1149 H 0.11405 0.29019 0.07202 0.0
C1150 C 0.21508 0.24486 0.04522 0.0
C1151 C 0.23997 0.2739 0.04197 0.0
C1152 C 0.18596 0.23952 0.03994 0.0
C1153 C 0.18176 0.26307 0.0307 0.0
C1154 C 0.20653 0.29226 0.02855 0.0
C1155 C 0.23543 0.29757 0.03388 0.0
C1156 C 0.15235 0.25703 0.02014 0.0
C1157 C 0.12971 0.2527 0.03847 0.0
C1158 C 0.14827 0.25956 0.99212 0.0
C1159 C 0.17252 0.26596 0.97227 0.0
C1160 C 0.1846 0.29219 0.95635 0.0
C1161 C 0.20905 0.29957 0.93921 0.0
C1162 C 0.22158 0.28087 0.93781 0.0
C1163 C 0.20933 0.25443 0.95311 0.0
C1164 C 0.18481 0.24687 0.97019 0.0
C1165 C 0.05719 0.29607 0.98762 0.0
C1166 C 0.03004 0.27305 0.97687 0.0
C1167 C 0.07998 0.29025 0.99506 0.0
C1168 C 0.07592 0.2613 0.99195 0.0
C1169 C 0.04911 0.23832 0.98059 0.0
C1170 C 0.02597 0.24405 0.97351 0.0
C1171 C 0.09972 0.25546 1.00161 0.0
C1172 C 0.12177 0.25842 0.98316 0.0
C1173 C 0.10349 0.25227 0.02955 0.0
C1174 C 0.08144 0.25072 0.04987 0.0
C1175 C 0.05105 0.22786 0.04853 0.0
C1176 C 0.03028 0.22693 0.06742 0.0
C1177 C 0.03968 0.24866 0.08785 0.0
C1178 C 0.0699 0.27129 0.08948 0.0
C1179 C 0.09075 0.27234 0.07062 0.0
H1180 H 0.02356 0.24792 0.10244 0.0
H1181 H 0.24072 0.28681 0.92479 0.0
H1182 H 0.99811 0.2179 0.37105 0.0
H1183 H 0.95594 0.16683 0.36119 0.0
H1184 H 0.89649 0.20306 0.35147 0.0
H1185 H 0.93845 0.25364 0.35968 0.0
H1186 H 0.87347 0.14715 0.38425 0.0
H1187 H 0.92194 0.19458 0.29804 0.0
H1188 H 0.96607 0.21823 0.26767 0.0
H1189 H 0.97519 0.13951 0.27302 0.0
H1190 H 0.9313 0.11555 0.30368 0.0
H1191 H 0.74464 0.06414 0.31093 0.0
H1192 H 0.79484 0.10451 0.32295 0.0
H1193 H 0.8305 0.04509 0.3093 0.0
H1194 H 0.7799 0.00463 0.29598 0.0
H1195 H 0.87023 0.10471 0.29313 0.0
H1196 H 0.81332 0.05282 0.3709 0.0
H1197 H 0.76935 0.02972 0.40139 0.0
H1198 H 0.77665 0.11603 0.41397 0.0
H1199 H 0.82026 0.1396 0.3831 0.0
C1200 C 0.97584 0.21464 0.36732 0.0
C1201 C 0.97105 0.23933 0.36732 0.0
C1202 C 0.95192 0.18566 0.36168 0.0
C1203 C 0.92316 0.18132 0.35596 0.0
C1204 C 0.91843 0.20595 0.35631 0.0
C1205 C 0.9423 0.23476 0.36133 0.0
C1206 C 0.89804 0.15173 0.34764 0.0
C1207 C 0.87272 0.13766 0.36445 0.0
C1208 C 0.89757 0.13919 0.32203 0.0
C1209 C 0.92367 0.15347 0.30341 0.0
C1210 C 0.93353 0.18244 0.29292 0.0
C1211 C 0.95845 0.19587 0.27562 0.0
C1212 C 0.9735 0.18042 0.26855 0.0
C1213 C 0.96356 0.15146 0.2786 0.0
C1214 C 0.93867 0.13795 0.29591 0.0
C1215 C 0.76339 0.06007 0.30928 0.0
C1216 C 0.75871 0.03167 0.30171 0.0
C1217 C 0.79197 0.08297 0.31662 0.0
C1218 C 0.81622 0.07756 0.31749 0.0
C1219 C 0.81199 0.04962 0.30879 0.0
C1220 C 0.78324 0.02664 0.30118 0.0
C1221 C 0.84514 0.1006 0.32944 0.0
C1222 C 0.87114 0.11351 0.3133 0.0
C1223 C 0.84627 0.11204 0.3558 0.0
C1224 C 0.82002 0.09796 0.3745 0.0
C1225 C 0.80541 0.06686 0.37997 0.0
C1226 C 0.78055 0.05367 0.39734 0.0
C1227 C 0.77022 0.07139 0.40959 0.0
C1228 C 0.78469 0.10233 0.40446 0.0
C1229 C 0.80949 0.11562 0.38703 0.0
H1230 H 0.75108 0.06117 0.42313 0.0
H1231 H 0.99284 0.19085 0.25528 0.0
H1232 H 0.77178 0.77829 0.63181 0.0
H1233 H 0.78156 0.82963 0.64157 0.0
H1234 H 0.68609 0.79484 0.65137 0.0
H1235 H 0.67658 0.74392 0.64303 0.0
H1236 H 0.71791 0.85042 0.62032 0.0
H1237 H 0.72283 0.80267 0.70463 0.0
H1238 H 0.74403 0.77884 0.73387 0.0
H1239 H 0.83182 0.85751 0.72732 0.0
H1240 H 0.81114 0.88162 0.69771 0.0
H1241 H 0.67901 0.93659 0.69706 0.0
H1242 H 0.68679 0.89503 0.68452 0.0
H1243 H 0.78287 0.95283 0.6937 0.0
H1244 H 0.77487 0.99448 0.70761 0.0
H1245 H 0.76255 0.89316 0.71006 0.0
H1246 H 0.75453 0.94515 0.6338 0.0
H1247 H 0.73245 0.96898 0.60572 0.0
H1248 H 0.65178 0.88344 0.59557 0.0
H1249 H 0.67299 0.85917 0.62419 0.0
C1250 C 0.75299 0.78192 0.63548 0.0
C1251 C 0.72334 0.75753 0.63556 0.0
C1252 C 0.75855 0.81107 0.64107 0.0
C1253 C 0.73447 0.81591 0.64689 0.0
C1254 C 0.70489 0.79158 0.64647 0.0
C1255 C 0.69945 0.76258 0.64142 0.0
C1256 C 0.7396 0.84562 0.65572 0.0
C1257 C 0.72781 0.85994 0.63984 0.0
C1258 C 0.7532 0.85826 0.6809 0.0
C1259 C 0.76555 0.84376 0.69867 0.0
C1260 C 0.74671 0.81475 0.70921 0.0
C1261 C 0.75861 0.80122 0.72589 0.0
C1262 C 0.78928 0.81662 0.73237 0.0
C1263 C 0.80808 0.84559 0.72223 0.0
C1264 C 0.79629 0.85919 0.7055 0.0
C1265 C 0.70166 0.94004 0.69771 0.0
C1266 C 0.72629 0.96836 0.70413 0.0
C1267 C 0.70614 0.91645 0.69007 0.0
C1268 C 0.73544 0.92107 0.6877 0.0
C1269 C 0.7601 0.9489 0.69537 0.0
C1270 C 0.75554 0.97257 0.70332 0.0
C1271 C 0.73993 0.89745 0.67504 0.0
C1272 C 0.75346 0.88427 0.69018 0.0
C1273 C 0.72805 0.88593 0.64903 0.0
C1274 C 0.71533 0.90035 0.63135 0.0
C1275 C 0.73199 0.93143 0.62577 0.0
C1276 C 0.71963 0.94503 0.60973 0.0
C1277 C 0.69075 0.92774 0.59886 0.0
C1278 C 0.67416 0.89681 0.60401 0.0
C1279 C 0.68634 0.88311 0.62015 0.0
H1280 H 0.68125 0.9383 0.58641 0.0
H1281 H 0.79849 0.80616 0.74531 0.0
H1282 H 0.77936 0.77616 0.04007 0.0
H1283 H 0.82944 0.78504 0.02661 0.0
H1284 H 0.79275 0.68916 0.01768 0.0
H1285 H 0.74291 0.68058 0.02929 0.0
H1286 H 0.86981 0.76787 0.04287 0.0
H1287 H 0.81678 0.67408 0.95996 0.0
H1288 H 0.77181 0.65066 0.93066 0.0
H1289 H 0.76377 0.72992 0.93685 0.0
H1290 H 0.80909 0.75413 0.96571 0.0
H1291 H 0.93633 0.68183 0.98455 0.0
H1292 H 0.89417 0.69075 0.99018 0.0
H1293 H 0.95323 0.78549 0.97481 0.0
H1294 H 0.9956 0.77619 0.96775 0.0
H1295 H 0.86953 0.71974 0.95554 0.0
H1296 H 0.92741 0.8172 0.03012 0.0
H1297 H 0.97397 0.84228 0.05745 0.0
H1298 H 0.97334 0.75846 0.06487 0.0
H1299 H 0.92599 0.73265 0.03905 0.0
C1300 C 0.78237 0.75708 0.03586 0.0
C1301 C 0.75762 0.72765 0.0365 0.0
C1302 C 0.81084 0.76213 0.02818 0.0
C1303 C 0.81462 0.73778 0.0207 0.0
C1304 C 0.79022 0.70831 0.02297 0.0
C1305 C 0.76186 0.70335 0.03017 0.0
C1306 C 0.84314 0.74277 0.0085 0.0
C1307 C 0.86991 0.75795 0.0235 0.0
C1308 C 0.84329 0.73002 0.98306 0.0
C1309 C 0.81628 0.71585 0.96522 0.0
C1310 C 0.80557 0.68662 0.95494 0.0
C1311 C 0.78 0.6732 0.93841 0.0
C1312 C 0.76493 0.68878 0.93194 0.0
C1313 C 0.77544 0.71786 0.94193 0.0
C1314 C 0.80108 0.73145 0.95838 0.0
C1315 C 0.94004 0.70433 0.98119 0.0
C1316 C 0.96874 0.72812 0.97455 0.0
C1317 C 0.91604 0.70944 0.98461 0.0
C1318 C 0.92061 0.7387 0.98265 0.0
C1319 C 0.94931 0.76271 0.97606 0.0
C1320 C 0.97336 0.75743 0.97211 0.0
C1321 C 0.89567 0.74373 0.99037 0.0
C1322 C 0.86954 0.7304 0.97451 0.0
C1323 C 0.89623 0.75841 0.0148 0.0
C1324 C 0.9235 0.77315 0.03212 0.0
C1325 C 0.93705 0.80409 0.03786 0.0
C1326 C 0.96351 0.8184 0.05322 0.0
C1327 C 0.97665 0.802 0.06288 0.0
C1328 C 0.96314 0.77117 0.05748 0.0
C1329 C 0.93641 0.75666 0.04258 0.0
H1330 H 0.99726 0.81315 0.07458 0.0
H1331 H 0.74516 0.67835 0.91913 0.0
H1332 H 0.30604 0.96886 0.38841 0.0
H1333 H 0.30533 0.96279 0.43721 0.0
H1334 H 0.35315 0.05927 0.44738 0.0
H1335 H 0.35375 0.06572 0.39788 0.0
H1336 H 0.3744 0.02659 0.48095 0.0
H1337 H 0.28311 0.02627 0.4597 0.0
H1338 H 0.2363 0.01086 0.4341 0.0
H1339 H 0.2019 0.9192 0.45897 0.0
H1340 H 0.2487 0.93388 0.48436 0.0
H1341 H 0.34261 0.02684 0.62007 0.0
H1342 H 0.34818 0.03421 0.57141 0.0
H1343 H 0.29007 0.93874 0.55897 0.0
H1344 H 0.28401 0.93112 0.60828 0.0
H1345 H 0.27469 0.9717 0.52628 0.0
H1346 H 0.3658 0.97192 0.54783 0.0
H1347 H 0.41302 0.98703 0.57263 0.0
H1348 H 0.44813 0.07865 0.54699 0.0
H1349 H 0.40092 0.06416 0.52233 0.0
C1350 C 0.31664 0.98895 0.40086 0.0
C1351 C 0.32988 0.01786 0.38916 0.0
C1352 C 0.31612 0.98535 0.42884 0.0
C1353 C 0.32891 0.01052 0.44595 0.0
C1354 C 0.34309 0.03954 0.43448 0.0
C1355 C 0.34338 0.0432 0.40625 0.0
C1356 C 0.32642 0.00596 0.47575 0.0
C1357 C 0.35267 0.01507 0.491 0.0
C1358 C 0.29798 0.99011 0.48865 0.0
C1359 C 0.26956 0.98115 0.47374 0.0
C1360 C 0.26566 0.00277 0.45954 0.0
C1361 C 0.2391 0.99415 0.44508 0.0
C1362 C 0.21616 0.96401 0.44483 0.0
C1363 C 0.2197 0.94247 0.45913 0.0
C1364 C 0.24623 0.95093 0.47359 0.0
C1365 C 0.33121 0.00723 0.60711 0.0
C1366 C 0.31294 0.97829 0.61814 0.0
C1367 C 0.33453 0.01154 0.57918 0.0
C1368 C 0.31985 0.98704 0.56144 0.0
C1369 C 0.30173 0.95799 0.57229 0.0
C1370 C 0.29841 0.95362 0.60044 0.0
C1371 C 0.32272 0.99226 0.53165 0.0
C1372 C 0.29648 0.98326 0.51634 0.0
C1373 C 0.3512 0.00821 0.51872 0.0
C1374 C 0.3797 0.01699 0.53342 0.0
C1375 C 0.38349 0.99533 0.54765 0.0
C1376 C 0.41028 0.00378 0.56165 0.0
C1377 C 0.43354 0.03379 0.56144 0.0
C1378 C 0.43008 0.05541 0.54716 0.0
C1379 C 0.40332 0.04709 0.53314 0.0
H1380 H 0.45426 0.04029 0.5723 0.0
H1381 H 0.19561 0.95734 0.43361 0.0
H1382 H 0.29444 0.32717 0.95197 0.0
H1383 H 0.2933 0.3329 0.9032 0.0
H1384 H 0.35746 0.30253 0.89298 0.0
H1385 H 0.35851 0.2963 0.94237 0.0
H1386 H 0.37101 0.35552 0.86299 0.0
H1387 H 0.28821 0.25648 0.87763 0.0
H1388 H 0.24078 0.21624 0.8971 0.0
H1389 H 0.19392 0.26071 0.86844 0.0
H1390 H 0.24123 0.30165 0.84935 0.0
H1391 H 0.35205 0.32895 0.7216 0.0
H1392 H 0.3571 0.32844 0.77053 0.0
H1393 H 0.2849 0.34794 0.78045 0.0
H1394 H 0.27945 0.34811 0.731 0.0
H1395 H 0.27577 0.30074 0.81085 0.0
H1396 H 0.35813 0.40052 0.79767 0.0
H1397 H 0.40518 0.44084 0.77764 0.0
H1398 H 0.45211 0.39517 0.80292 0.0
H1399 H 0.40526 0.35445 0.82297 0.0
C1400 C 0.30844 0.32171 0.93947 0.0
C1401 C 0.32667 0.31132 0.95111 0.0
C1402 C 0.30759 0.32487 0.91151 0.0
C1403 C 0.32507 0.31792 0.89442 0.0
C1404 C 0.34369 0.30792 0.90586 0.0
C1405 C 0.34426 0.30434 0.93402 0.0
C1406 C 0.32403 0.32175 0.86469 0.0
C1407 C 0.35031 0.3432 0.85147 0.0
C1408 C 0.29673 0.3064 0.84989 0.0
C1409 C 0.26842 0.28235 0.86227 0.0
C1410 C 0.26791 0.25794 0.8758 0.0
C1411 C 0.241 0.23492 0.88667 0.0
C1412 C 0.21433 0.23585 0.88391 0.0
C1413 C 0.21456 0.25993 0.87044 0.0
C1414 C 0.24145 0.2831 0.85966 0.0
C1415 C 0.33753 0.33366 0.73412 0.0
C1416 C 0.31527 0.3385 0.7224 0.0
C1417 C 0.34058 0.33351 0.76218 0.0
C1418 C 0.32152 0.3383 0.77928 0.0
C1419 C 0.29991 0.34422 0.76765 0.0
C1420 C 0.29693 0.34452 0.73942 0.0
C1421 C 0.32273 0.33467 0.8091 0.0
C1422 C 0.29647 0.31318 0.82236 0.0
C1423 C 0.34998 0.35007 0.82396 0.0
C1424 C 0.37812 0.37431 0.81162 0.0
C1425 C 0.37842 0.39894 0.79876 0.0
C1426 C 0.40508 0.42191 0.78748 0.0
C1427 C 0.43161 0.42053 0.78896 0.0
C1428 C 0.43154 0.3962 0.80178 0.0
C1429 C 0.40496 0.3732 0.81316 0.0
H1430 H 0.45223 0.43834 0.78021 0.0
H1431 H 0.19352 0.218 0.89234 0.0
H1432 H 0.97481 0.29234 0.28039 0.0
H1433 H 0.96791 0.29353 0.23183 0.0
H1434 H 0.05722 0.37061 0.22455 0.0
H1435 H 0.06466 0.36925 0.27382 0.0
H1436 H 0.00718 0.37404 0.19623 0.0
H1437 H 0.05272 0.31267 0.20157 0.0
H1438 H 0.06102 0.27205 0.21823 0.0
H1439 H 0.97055 0.20609 0.19602 0.0
H1440 H 0.96161 0.24639 0.17941 0.0
H1441 H 0.01536 0.36185 0.05249 0.0
H1442 H 0.02247 0.36815 0.10138 0.0
H1443 H 0.93959 0.28432 0.1137 0.0
H1444 H 0.93225 0.278 0.06443 0.0
H1445 H 0.98863 0.28645 0.13949 0.0
H1446 H 0.94396 0.34878 0.13272 0.0
H1447 H 0.93703 0.38986 0.11493 0.0
H1448 H 0.02704 0.45486 0.13924 0.0
H1449 H 0.0347 0.41412 0.15682 0.0
C1450 C 0.99309 0.30967 0.26859 0.0
C1451 C 0.02029 0.33082 0.28097 0.0
C1452 C 0.98908 0.31021 0.24078 0.0
C1453 C 0.01201 0.3321 0.22462 0.0
C1454 C 0.03923 0.35355 0.23677 0.0
C1455 C 0.04351 0.35269 0.2648 0.0
C1456 C 0.00692 0.33193 0.19505 0.0
C1457 C 0.0037 0.35523 0.18363 0.0
C1458 C 0.00149 0.3069 0.17892 0.0
C1459 C 0.00642 0.28258 0.18945 0.0
C1460 C 0.03448 0.28954 0.20051 0.0
C1461 C 0.03934 0.26657 0.20985 0.0
C1462 C 0.01634 0.23652 0.20815 0.0
C1463 C 0.98836 0.22939 0.19726 0.0
C1464 C 0.9834 0.25228 0.18784 0.0
C1465 C 0.99823 0.34512 0.06563 0.0
C1466 C 0.97325 0.3194 0.05472 0.0
C1467 C 0.00231 0.34879 0.09358 0.0
C1468 C 0.98161 0.3267 0.11121 0.0
C1469 C 0.95583 0.30165 0.10041 0.0
C1470 C 0.95151 0.29816 0.07233 0.0
C1471 C 0.98859 0.32846 0.14056 0.0
C1472 C 0.99215 0.30536 0.15199 0.0
C1473 C 0.99446 0.35377 0.15657 0.0
C1474 C 0.98999 0.37834 0.14589 0.0
C1475 C 0.96239 0.3718 0.13406 0.0
C1476 C 0.95829 0.39504 0.12408 0.0
C1477 C 0.98156 0.42495 0.12599 0.0
C1478 C 0.00901 0.43168 0.13782 0.0
C1479 C 0.01324 0.40852 0.14782 0.0
H1480 H 0.97835 0.4429 0.11823 0.0
H1481 H 0.02028 0.21878 0.21513 0.0
H1482 H 0.64046 0.93401 0.397 0.0
H1483 H 0.6409 0.94029 0.44647 0.0
H1484 H 0.69525 0.03663 0.43705 0.0
H1485 H 0.695 0.03071 0.38827 0.0
H1486 H 0.71822 0.0142 0.47528 0.0
H1487 H 0.62324 0.00687 0.45172 0.0
H1488 H 0.57235 0.98244 0.43166 0.0
H1489 H 0.54454 0.90617 0.48404 0.0
H1490 H 0.59544 0.92999 0.50415 0.0
H1491 H 0.71495 0.06569 0.60797 0.0
H1492 H 0.70869 0.05803 0.55877 0.0
H1493 H 0.64701 0.96324 0.57129 0.0
H1494 H 0.65279 0.9707 0.62 0.0
H1495 H 0.62713 0.98328 0.53149 0.0
H1496 H 0.7204 0.98879 0.55517 0.0
H1497 H 0.7713 0.01104 0.575 0.0
H1498 H 0.80238 0.08765 0.52248 0.0
H1499 H 0.75155 0.06604 0.50254 0.0
C1500 C 0.65229 0.95648 0.40553 0.0
C1501 C 0.66763 0.9818 0.38867 0.0
C1502 C 0.65252 0.96006 0.43374 0.0
C1503 C 0.6682 0.98897 0.4454 0.0
C1504 C 0.68319 0.01414 0.42852 0.0
C1505 C 0.68284 0.01064 0.40055 0.0
C1506 C 0.66983 0.99345 0.47517 0.0
C1507 C 0.69832 0.00771 0.48755 0.0
C1508 C 0.64384 0.98434 0.49124 0.0
C1509 C 0.61324 0.97005 0.47922 0.0
C1510 C 0.60635 0.98477 0.45878 0.0
C1511 C 0.57749 0.97106 0.44744 0.0
C1512 C 0.55525 0.94273 0.45651 0.0
C1513 C 0.56181 0.92809 0.477 0.0
C1514 C 0.59065 0.94169 0.48839 0.0
C1515 C 0.69976 0.04334 0.60019 0.0
C1516 C 0.68448 0.01883 0.6179 0.0
C1517 C 0.69634 0.03893 0.57209 0.0
C1518 C 0.67766 0.00994 0.56131 0.0
C1519 C 0.66153 0.98577 0.57905 0.0
C1520 C 0.66497 0.99012 0.60698 0.0
C1521 C 0.67559 0.00434 0.53163 0.0
C1522 C 0.64704 0.98979 0.51926 0.0
C1523 C 0.70153 0.01287 0.51558 0.0
C1524 C 0.73208 0.02597 0.5276 0.0
C1525 C 0.73801 0.01051 0.54802 0.0
C1526 C 0.76686 0.02298 0.55925 0.0
C1527 C 0.79001 0.05078 0.55008 0.0
C1528 C 0.7844 0.06615 0.52961 0.0
C1529 C 0.75558 0.0538 0.51832 0.0
H1530 H 0.81233 0.06038 0.55879 0.0
H1531 H 0.53291 0.93216 0.44771 0.0
H1532 H 0.64006 0.70841 0.9407 0.0
H1533 H 0.63956 0.70088 0.89141 0.0
H1534 H 0.69065 0.65559 0.90217 0.0
H1535 H 0.69134 0.66292 0.95078 0.0
H1536 H 0.71472 0.69927 0.86288 0.0
H1537 H 0.61785 0.61553 0.88811 0.0
H1538 H 0.56721 0.59184 0.90862 0.0
H1539 H 0.54239 0.64186 0.8551 0.0
H1540 H 0.59306 0.66619 0.83452 0.0
H1541 H 0.70803 0.64416 0.72973 0.0
H1542 H 0.70213 0.64492 0.77903 0.0
H1543 H 0.64236 0.68063 0.768 0.0
H1544 H 0.64754 0.67925 0.71921 0.0
H1545 H 0.6222 0.64173 0.8077 0.0
H1546 H 0.71768 0.72607 0.78266 0.0
H1547 H 0.76833 0.75173 0.76218 0.0
H1548 H 0.79626 0.70407 0.81543 0.0
H1549 H 0.74553 0.67761 0.8359 0.0
C1550 C 0.65097 0.69669 0.9325 0.0
C1551 C 0.66569 0.68627 0.94969 0.0
C1552 C 0.65066 0.69237 0.9044 0.0
C1553 C 0.66515 0.6777 0.89315 0.0
C1554 C 0.67952 0.66711 0.91036 0.0
C1555 C 0.67971 0.67123 0.93824 0.0
C1556 C 0.6662 0.67379 0.86346 0.0
C1557 C 0.6945 0.68641 0.85084 0.0
C1558 C 0.63983 0.6576 0.84769 0.0
C1559 C 0.60935 0.64292 0.85998 0.0
C1560 C 0.60168 0.62168 0.88087 0.0
C1561 C 0.57296 0.60809 0.89248 0.0
C1562 C 0.55162 0.6154 0.88323 0.0
C1563 C 0.55895 0.63626 0.86228 0.0
C1564 C 0.58766 0.64993 0.85063 0.0
C1565 C 0.69328 0.65168 0.73786 0.0
C1566 C 0.67845 0.66183 0.72055 0.0
C1567 C 0.69006 0.65232 0.76603 0.0
C1568 C 0.67215 0.66331 0.77728 0.0
C1569 C 0.65633 0.67211 0.7599 0.0
C1570 C 0.65944 0.6714 0.73192 0.0
C1571 C 0.67079 0.66709 0.80705 0.0
C1572 C 0.64246 0.65454 0.8197 0.0
C1573 C 0.69716 0.68368 0.82284 0.0
C1574 C 0.72769 0.69957 0.81058 0.0
C1575 C 0.73453 0.72085 0.78985 0.0
C1576 C 0.76327 0.73558 0.77826 0.0
C1577 C 0.78548 0.72951 0.78746 0.0
C1578 C 0.77901 0.7087 0.80829 0.0
C1579 C 0.75026 0.69382 0.81988 0.0
H1580 H 0.80773 0.74096 0.77847 0.0
H1581 H 0.5294 0.60486 0.89223 0.0
H1582 H 0.94364 0.65269 0.28374 0.0
H1583 H 0.95086 0.65335 0.23459 0.0
H1584 H 0.04711 0.69694 0.24623 0.0
H1585 H 0.04006 0.69577 0.29504 0.0
H1586 H 0.97861 0.69971 0.20168 0.0
H1587 H 0.08059 0.68013 0.19518 0.0
H1588 H 0.10115 0.65233 0.21954 0.0
H1589 H 0.01261 0.58895 0.24851 0.0
H1590 H 0.99146 0.6161 0.22403 0.0
H1591 H 0.07169 0.71693 0.07057 0.0
H1592 H 0.06694 0.71321 0.12024 0.0
H1593 H 0.97018 0.66158 0.11267 0.0
H1594 H 0.97463 0.66505 0.06368 0.0
H1595 H 0.04047 0.66359 0.15514 0.0
H1596 H 0.93807 0.68211 0.16196 0.0
H1597 H 0.91725 0.71097 0.13994 0.0
H1598 H 0.00549 0.77572 0.11136 0.0
H1599 H 0.02686 0.74734 0.13332 0.0
C1600 C 0.96629 0.66207 0.27581 0.0
C1601 C 0.99123 0.67411 0.29334 0.0
C1602 C 0.97042 0.66252 0.24771 0.0
C1603 C 0.99954 0.6749 0.23661 0.0
C1604 C 0.02439 0.68669 0.25418 0.0
C1605 C 0.02029 0.68615 0.28217 0.0
C1606 C 0.00414 0.67709 0.20671 0.0
C1607 C 0.9917 0.6913 0.19148 0.0
C1608 C 0.02208 0.66707 0.19341 0.0
C1609 C 0.03452 0.65037 0.20798 0.0
C1610 C 0.0655 0.6602 0.20666 0.0
C1611 C 0.07725 0.64456 0.22051 0.0
C1612 C 0.05821 0.61895 0.23564 0.0
C1613 C 0.02736 0.60886 0.23687 0.0
C1614 C 0.01548 0.6244 0.22305 0.0
C1615 C 0.04947 0.70463 0.07955 0.0
C1616 C 0.02359 0.69139 0.0631 0.0
C1617 C 0.04677 0.70254 0.1079 0.0
C1618 C 0.01815 0.68752 0.1202 0.0
C1619 C 0.99245 0.67374 0.10373 0.0
C1620 C 0.99511 0.67564 0.07561 0.0
C1621 C 0.01469 0.68597 0.15019 0.0
C1622 C 0.02736 0.67193 0.1654 0.0
C1623 C 0.99679 0.69598 0.16352 0.0
C1624 C 0.984 0.71245 0.14911 0.0
C1625 C 0.95301 0.70246 0.1509 0.0
C1626 C 0.94112 0.71873 0.13845 0.0
C1627 C 0.96003 0.74516 0.12429 0.0
C1628 C 0.99085 0.7552 0.1223 0.0
C1629 C 0.00285 0.73895 0.13464 0.0
H1630 H 0.9508 0.75789 0.11497 0.0
H1631 H 0.06736 0.60689 0.24635 0.0
loop_
_geom_bond_atom_site_label_1
_geom_bond_atom_site_label_2
_geom_bond_distance
_geom_bond_site_symmetry_2
_ccdc_geom_bond_type
Mn0 O5 2.095 . S
Mn0 O15 2.162 . S
Mn0 O16 2.282 1_545 S
Mn0 O24 2.385 1_545 S
Mn0 O25 2.209 1_545 S
Mn0 O26 2.094 . S
Mn1 O6 2.121 . S
Mn1 N8 2.257 . S
Mn1 N17 2.282 . S
Mn1 O25 2.215 . S
Mn1 O27 2.117 1_565 S
C2 O24 1.234 . S
C2 O25 1.283 . S
C3 O15 1.281 . S
C3 O16 1.209 1_545 S
C4 O26 1.240 . S
C4 O27 1.264 . S
O5 Mn0 2.095 . S
O5 C14 1.250 . S
O6 Mn1 2.121 . S
O6 C14 1.258 1_565 S
C7 N8 1.326 . S
C7 C11 1.460 . S
C7 H13 0.929 . S
N8 Mn1 2.257 . S
N8 C7 1.326 . S
N8 C12 1.362 . S
C9 C10 1.258 . S
C9 C12 1.431 . S
C9 C29 1.449 . S
C10 C9 1.258 . S
C10 C11 1.477 . S
C10 H30 0.931 . S
C11 C7 1.460 . S
C11 C10 1.477 . S
C11 H31 0.930 . S
C12 N8 1.362 . S
C12 C9 1.431 . S
C12 C22 1.476 . S
H13 C7 0.929 . S
C14 O5 1.250 . S
C14 O6 1.258 1_545 S
O15 Mn0 2.162 . S
O15 C3 1.281 . S
O16 Mn0 2.282 1_565 S
O16 C3 1.209 1_565 S
N17 Mn1 2.282 . S
N17 C18 1.328 . S
N17 C22 1.318 . S
C18 N17 1.328 . S
C18 C19 1.457 . S
C18 H23 0.929 . S
C19 C18 1.457 . S
C19 C20 1.291 . S
C19 H32 0.931 . S
C20 C19 1.291 . S
C20 C21 1.373 . S
C20 H33 0.929 . S
C21 C20 1.373 . S
C21 C22 1.396 . S
C21 C28 1.403 . S
C22 C12 1.476 . S
C22 N17 1.318 . S
C22 C21 1.396 . S
H23 C18 0.929 . S
O24 Mn0 2.385 1_565 S
O24 C2 1.234 . S
O25 Mn0 2.209 1_565 S
O25 Mn1 2.215 . S
O25 C2 1.283 . S
O26 Mn0 2.094 . S
O26 C4 1.240 . S
O27 Mn1 2.117 1_545 S
O27 C4 1.264 . S
C28 C21 1.403 . S
C28 C29 1.399 . S
C28 H34 0.929 . S
C29 C9 1.449 . S
C29 C28 1.399 . S
C29 H35 0.930 . S
H30 C10 0.931 . S
H31 C11 0.930 . S
H32 C19 0.931 . S
H33 C20 0.929 . S
H34 C28 0.929 . S
H35 C29 0.930 . S
Mn36 O41 2.095 . S
Mn36 O51 2.162 . S
Mn36 O52 2.297 . S
Mn36 O60 2.385 . S
Mn36 O61 2.209 . S
Mn36 O62 2.094 . S
Mn37 O42 2.121 . S
Mn37 N44 2.257 . S
Mn37 N53 2.282 . S
Mn37 O61 2.215 . S
Mn37 O63 2.117 . S
C38 O60 1.234 . S
C38 O61 1.283 . S
C39 O51 1.281 . S
C39 O52 1.236 . S
C40 O62 1.240 . S
C40 O63 1.264 . S
O41 Mn36 2.095 . S
O41 C50 1.250 . S
O42 Mn37 2.121 . S
O42 C50 1.258 . S
C43 N44 1.326 . S
C43 C47 1.460 . S
C43 H49 0.929 . S
N44 Mn37 2.257 . S
N44 C43 1.326 . S
N44 C48 1.362 . S
C45 C46 1.258 . S
C45 C48 1.431 . S
C45 C65 1.449 . S
C46 C45 1.258 . S
C46 C47 1.477 . S
C46 H66 0.931 . S
C47 C43 1.460 . S
C47 C46 1.477 . S
C47 H67 0.930 . S
C48 N44 1.362 . S
C48 C45 1.431 . S
C48 C58 1.476 . S
H49 C43 0.929 . S
C50 O41 1.250 . S
C50 O42 1.258 . S
O51 Mn36 2.162 . S
O51 C39 1.281 . S
O52 Mn36 2.297 . S
O52 C39 1.236 . S
N53 Mn37 2.282 . S
N53 C54 1.328 . S
N53 C58 1.318 . S
C54 N53 1.328 . S
C54 C55 1.457 . S
C54 H59 0.929 . S
C55 C54 1.457 . S
C55 C56 1.291 . S
C55 H68 0.931 . S
C56 C55 1.291 . S
C56 C57 1.373 . S
C56 H69 0.929 . S
C57 C56 1.373 . S
C57 C58 1.396 . S
C57 C64 1.403 . S
C58 C48 1.476 . S
C58 N53 1.318 . S
C58 C57 1.396 . S
H59 C54 0.929 . S
O60 Mn36 2.385 . S
O60 C38 1.234 . S
O61 Mn36 2.209 . S
O61 Mn37 2.215 . S
O61 C38 1.283 . S
O62 Mn36 2.094 . S
O62 C40 1.240 . S
O63 Mn37 2.117 . S
O63 C40 1.264 . S
C64 C57 1.403 . S
C64 C65 1.399 . S
C64 H70 0.929 . S
C65 C45 1.449 . S
C65 C64 1.399 . S
C65 H71 0.930 . S
H66 C46 0.931 . S
H67 C47 0.930 . S
H68 C55 0.931 . S
H69 C56 0.929 . S
H70 C64 0.929 . S
H71 C65 0.930 . S
Mn72 O77 2.095 . S
Mn72 O87 2.162 1_556 S
Mn72 O88 2.290 1_656 S
Mn72 O96 2.385 1_655 S
Mn72 O97 2.209 1_655 S
Mn72 O98 2.094 . S
Mn73 O78 2.121 . S
Mn73 N80 2.257 . S
Mn73 N89 2.282 . S
Mn73 O97 2.215 . S
Mn73 O99 2.117 1_455 S
C74 O96 1.234 . S
C74 O97 1.283 . S
C75 O87 1.281 . S
C75 O88 1.220 1_655 S
C76 O98 1.240 . S
C76 O99 1.264 . S
O77 Mn72 2.095 . S
O77 C86 1.250 . S
O78 Mn73 2.121 . S
O78 C86 1.258 1_455 S
C79 N80 1.326 . S
C79 C83 1.460 . S
C79 H85 0.929 . S
N80 Mn73 2.257 . S
N80 C79 1.326 . S
N80 C84 1.362 . S
C81 C82 1.258 . S
C81 C84 1.431 . S
C81 C101 1.449 . S
C82 C81 1.258 . S
C82 C83 1.477 . S
C82 H102 0.931 . S
C83 C79 1.460 . S
C83 C82 1.477 . S
C83 H103 0.930 . S
C84 N80 1.362 . S
C84 C81 1.431 . S
C84 C94 1.476 . S
H85 C79 0.929 . S
C86 O77 1.250 . S
C86 O78 1.258 1_655 S
O87 Mn72 2.162 1_554 S
O87 C75 1.281 . S
O88 Mn72 2.290 1_454 S
O88 C75 1.220 1_455 S
N89 Mn73 2.282 . S
N89 C90 1.328 . S
N89 C94 1.318 . S
C90 N89 1.328 . S
C90 C91 1.457 . S
C90 H95 0.929 . S
C91 C90 1.457 . S
C91 C92 1.291 . S
C91 H104 0.931 . S
C92 C91 1.291 . S
C92 C93 1.373 . S
C92 H105 0.929 . S
C93 C92 1.373 . S
C93 C94 1.396 . S
C93 C100 1.403 . S
C94 C84 1.476 . S
C94 N89 1.318 . S
C94 C93 1.396 . S
H95 C90 0.929 . S
O96 Mn72 2.385 1_455 S
O96 C74 1.234 . S
O97 Mn72 2.209 1_455 S
O97 Mn73 2.215 . S
O97 C74 1.283 . S
O98 Mn72 2.094 . S
O98 C76 1.240 . S
O99 Mn73 2.117 1_655 S
O99 C76 1.264 . S
C100 C93 1.403 . S
C100 C101 1.399 . S
C100 H106 0.929 . S
C101 C81 1.449 . S
C101 C100 1.399 . S
C101 H107 0.930 . S
H102 C82 0.931 . S
H103 C83 0.930 . S
H104 C91 0.931 . S
H105 C92 0.929 . S
H106 C100 0.929 . S
H107 C101 0.930 . S
Mn108 O113 2.095 . S
Mn108 O123 2.162 . S
Mn108 O124 2.282 1_565 S
Mn108 O132 2.385 1_565 S
Mn108 O133 2.209 1_565 S
Mn108 O134 2.094 . S
Mn109 O114 2.121 . S
Mn109 N116 2.257 . S
Mn109 N125 2.282 . S
Mn109 O133 2.215 . S
Mn109 O135 2.117 1_545 S
C110 O132 1.234 . S
C110 O133 1.283 . S
C111 O123 1.281 . S
C111 O124 1.209 1_565 S
C112 O134 1.240 . S
C112 O135 1.264 . S
O113 Mn108 2.095 . S
O113 C122 1.250 . S
O114 Mn109 2.121 . S
O114 C122 1.258 1_545 S
C115 N116 1.326 . S
C115 C119 1.460 . S
C115 H121 0.929 . S
N116 Mn109 2.257 . S
N116 C115 1.326 . S
N116 C120 1.362 . S
C117 C118 1.258 . S
C117 C120 1.431 . S
C117 C137 1.449 . S
C118 C117 1.258 . S
C118 C119 1.477 . S
C118 H138 0.931 . S
C119 C115 1.460 . S
C119 C118 1.477 . S
C119 H139 0.930 . S
C120 N116 1.362 . S
C120 C117 1.431 . S
C120 C130 1.476 . S
H121 C115 0.929 . S
C122 O113 1.250 . S
C122 O114 1.258 1_565 S
O123 Mn108 2.162 . S
O123 C111 1.281 . S
O124 Mn108 2.282 1_545 S
O124 C111 1.209 1_545 S
N125 Mn109 2.282 . S
N125 C126 1.328 . S
N125 C130 1.318 . S
C126 N125 1.328 . S
C126 C127 1.457 . S
C126 H131 0.929 . S
C127 C126 1.457 . S
C127 C128 1.291 . S
C127 H140 0.931 . S
C128 C127 1.291 . S
C128 C129 1.373 . S
C128 H141 0.929 . S
C129 C128 1.373 . S
C129 C130 1.396 . S
C129 C136 1.403 . S
C130 C120 1.476 . S
C130 N125 1.318 . S
C130 C129 1.396 . S
H131 C126 0.929 . S
O132 Mn108 2.385 1_545 S
O132 C110 1.234 . S
O133 Mn108 2.209 1_545 S
O133 Mn109 2.215 . S
O133 C110 1.283 . S
O134 Mn108 2.094 . S
O134 C112 1.240 . S
O135 Mn109 2.117 1_565 S
O135 C112 1.264 . S
C136 C129 1.403 . S
C136 C137 1.399 . S
C136 H142 0.929 . S
C137 C117 1.449 . S
C137 C136 1.399 . S
C137 H143 0.930 . S
H138 C118 0.931 . S
H139 C119 0.930 . S
H140 C127 0.931 . S
H141 C128 0.929 . S
H142 C136 0.929 . S
H143 C137 0.930 . S
Mn144 O149 2.095 . S
Mn144 O159 2.162 . S
Mn144 O160 2.297 . S
Mn144 O168 2.385 . S
Mn144 O169 2.209 . S
Mn144 O170 2.094 . S
Mn145 O150 2.121 . S
Mn145 N152 2.257 . S
Mn145 N161 2.282 . S
Mn145 O169 2.215 . S
Mn145 O171 2.117 . S
C146 O168 1.234 . S
C146 O169 1.283 . S
C147 O159 1.281 . S
C147 O160 1.236 . S
C148 O170 1.240 . S
C148 O171 1.264 . S
O149 Mn144 2.095 . S
O149 C158 1.250 . S
O150 Mn145 2.121 . S
O150 C158 1.258 . S
C151 N152 1.326 . S
C151 C155 1.460 . S
C151 H157 0.929 . S
N152 Mn145 2.257 . S
N152 C151 1.326 . S
N152 C156 1.362 . S
C153 C154 1.258 . S
C153 C156 1.431 . S
C153 C173 1.449 . S
C154 C153 1.258 . S
C154 C155 1.477 . S
C154 H174 0.931 . S
C155 C151 1.460 . S
C155 C154 1.477 . S
C155 H175 0.930 . S
C156 N152 1.362 . S
C156 C153 1.431 . S
C156 C166 1.476 . S
H157 C151 0.929 . S
C158 O149 1.250 . S
C158 O150 1.258 . S
O159 Mn144 2.162 . S
O159 C147 1.281 . S
O160 Mn144 2.297 . S
O160 C147 1.236 . S
N161 Mn145 2.282 . S
N161 C162 1.328 . S
N161 C166 1.318 . S
C162 N161 1.328 . S
C162 C163 1.457 . S
C162 H167 0.929 . S
C163 C162 1.457 . S
C163 C164 1.291 . S
C163 H176 0.931 . S
C164 C163 1.291 . S
C164 C165 1.373 . S
C164 H177 0.929 . S
C165 C164 1.373 . S
C165 C166 1.396 . S
C165 C172 1.403 . S
C166 C156 1.476 . S
C166 N161 1.318 . S
C166 C165 1.396 . S
H167 C162 0.929 . S
O168 Mn144 2.385 . S
O168 C146 1.234 . S
O169 Mn144 2.209 . S
O169 Mn145 2.215 . S
O169 C146 1.283 . S
O170 Mn144 2.094 . S
O170 C148 1.240 . S
O171 Mn145 2.117 . S
O171 C148 1.264 . S
C172 C165 1.403 . S
C172 C173 1.399 . S
C172 H178 0.929 . S
C173 C153 1.449 . S
C173 C172 1.399 . S
C173 H179 0.930 . S
H174 C154 0.931 . S
H175 C155 0.930 . S
H176 C163 0.931 . S
H177 C164 0.929 . S
H178 C172 0.929 . S
H179 C173 0.930 . S
Mn180 O185 2.095 . S
Mn180 O195 2.162 1_556 S
Mn180 O196 2.289 1_456 S
Mn180 O204 2.385 1_455 S
Mn180 O205 2.209 1_455 S
Mn180 O206 2.094 . S
Mn181 O186 2.121 . S
Mn181 N188 2.257 . S
Mn181 N197 2.282 . S
Mn181 O205 2.215 . S
Mn181 O207 2.117 1_655 S
C182 O204 1.234 . S
C182 O205 1.283 . S
C183 O195 1.281 . S
C183 O196 1.220 1_455 S
C184 O206 1.240 . S
C184 O207 1.264 . S
O185 Mn180 2.095 . S
O185 C194 1.250 . S
O186 Mn181 2.121 . S
O186 C194 1.258 1_655 S
C187 N188 1.326 . S
C187 C191 1.460 . S
C187 H193 0.929 . S
N188 Mn181 2.257 . S
N188 C187 1.326 . S
N188 C192 1.362 . S
C189 C190 1.258 . S
C189 C192 1.431 . S
C189 C209 1.449 . S
C190 C189 1.258 . S
C190 C191 1.477 . S
C190 H210 0.931 . S
C191 C187 1.460 . S
C191 C190 1.477 . S
C191 H211 0.930 . S
C192 N188 1.362 . S
C192 C189 1.431 . S
C192 C202 1.476 . S
H193 C187 0.929 . S
C194 O185 1.250 . S
C194 O186 1.258 1_455 S
O195 Mn180 2.162 1_554 S
O195 C183 1.281 . S
O196 Mn180 2.289 1_654 S
O196 C183 1.220 1_655 S
N197 Mn181 2.282 . S
N197 C198 1.328 . S
N197 C202 1.318 . S
C198 N197 1.328 . S
C198 C199 1.457 . S
C198 H203 0.929 . S
C199 C198 1.457 . S
C199 C200 1.291 . S
C199 H212 0.931 . S
C200 C199 1.291 . S
C200 C201 1.373 . S
C200 H213 0.929 . S
C201 C200 1.373 . S
C201 C202 1.396 . S
C201 C208 1.403 . S
C202 C192 1.476 . S
C202 N197 1.318 . S
C202 C201 1.396 . S
H203 C198 0.929 . S
O204 Mn180 2.385 1_655 S
O204 C182 1.234 . S
O205 Mn180 2.209 1_655 S
O205 Mn181 2.215 . S
O205 C182 1.283 . S
O206 Mn180 2.094 . S
O206 C184 1.240 . S
O207 Mn181 2.117 1_455 S
O207 C184 1.264 . S
C208 C201 1.403 . S
C208 C209 1.399 . S
C208 H214 0.929 . S
C209 C189 1.449 . S
C209 C208 1.399 . S
C209 H215 0.930 . S
H210 C190 0.931 . S
H211 C191 0.930 . S
H212 C199 0.931 . S
H213 C200 0.929 . S
H214 C208 0.929 . S
H215 C209 0.930 . S
Mn216 O221 2.095 . S
Mn216 O231 2.162 . S
Mn216 O232 2.282 1_655 S
Mn216 O240 2.385 1_655 S
Mn216 O241 2.209 1_655 S
Mn216 O242 2.094 . S
Mn217 O222 2.121 . S
Mn217 N224 2.257 . S
Mn217 N233 2.282 . S
Mn217 O241 2.215 . S
Mn217 O243 2.117 1_455 S
C218 O240 1.234 . S
C218 O241 1.283 . S
C219 O231 1.281 . S
C219 O232 1.209 1_655 S
C220 O242 1.240 . S
C220 O243 1.264 . S
O221 Mn216 2.095 . S
O221 C230 1.250 . S
O222 Mn217 2.121 . S
O222 C230 1.258 1_455 S
C223 N224 1.326 . S
C223 C227 1.460 . S
C223 H229 0.929 . S
N224 Mn217 2.257 . S
N224 C223 1.326 . S
N224 C228 1.362 . S
C225 C226 1.258 . S
C225 C228 1.431 . S
C225 C245 1.449 . S
C226 C225 1.258 . S
C226 C227 1.477 . S
C226 H246 0.931 . S
C227 C223 1.460 . S
C227 C226 1.477 . S
C227 H247 0.930 . S
C228 N224 1.362 . S
C228 C225 1.431 . S
C228 C238 1.476 . S
H229 C223 0.929 . S
C230 O221 1.250 . S
C230 O222 1.258 1_655 S
O231 Mn216 2.162 . S
O231 C219 1.281 . S
O232 Mn216 2.282 1_455 S
O232 C219 1.209 1_455 S
N233 Mn217 2.282 . S
N233 C234 1.328 . S
N233 C238 1.318 . S
C234 N233 1.328 . S
C234 C235 1.457 . S
C234 H239 0.929 . S
C235 C234 1.457 . S
C235 C236 1.291 . S
C235 H248 0.931 . S
C236 C235 1.291 . S
C236 C237 1.373 . S
C236 H249 0.929 . S
C237 C236 1.373 . S
C237 C238 1.396 . S
C237 C244 1.403 . S
C238 C228 1.476 . S
C238 N233 1.318 . S
C238 C237 1.396 . S
H239 C234 0.929 . S
O240 Mn216 2.385 1_455 S
O240 C218 1.234 . S
O241 Mn216 2.209 1_455 S
O241 Mn217 2.215 . S
O241 C218 1.283 . S
O242 Mn216 2.094 . S
O242 C220 1.240 . S
O243 Mn217 2.117 1_655 S
O243 C220 1.264 . S
C244 C237 1.403 . S
C244 C245 1.399 . S
C244 H250 0.929 . S
C245 C225 1.449 . S
C245 C244 1.399 . S
C245 H251 0.930 . S
H246 C226 0.931 . S
H247 C227 0.930 . S
H248 C235 0.931 . S
H249 C236 0.929 . S
H250 C244 0.929 . S
H251 C245 0.930 . S
Mn252 O257 2.095 . S
Mn252 O267 2.162 . S
Mn252 O268 2.289 1_565 S
Mn252 O276 2.385 1_565 S
Mn252 O277 2.209 1_565 S
Mn252 O278 2.094 . S
Mn253 O258 2.121 . S
Mn253 N260 2.257 . S
Mn253 N269 2.282 . S
Mn253 O277 2.215 . S
Mn253 O279 2.117 1_545 S
C254 O276 1.234 . S
C254 O277 1.283 . S
C255 O267 1.281 . S
C255 O268 1.220 1_565 S
C256 O278 1.240 . S
C256 O279 1.264 . S
O257 Mn252 2.095 . S
O257 C266 1.250 . S
O258 Mn253 2.121 . S
O258 C266 1.258 1_545 S
C259 N260 1.326 . S
C259 C263 1.460 . S
C259 H265 0.929 . S
N260 Mn253 2.257 . S
N260 C259 1.326 . S
N260 C264 1.362 . S
C261 C262 1.258 . S
C261 C264 1.431 . S
C261 C281 1.449 . S
C262 C261 1.258 . S
C262 C263 1.477 . S
C262 H282 0.931 . S
C263 C259 1.460 . S
C263 C262 1.477 . S
C263 H283 0.930 . S
C264 N260 1.362 . S
C264 C261 1.431 . S
C264 C274 1.476 . S
H265 C259 0.929 . S
C266 O257 1.250 . S
C266 O258 1.258 1_565 S
O267 Mn252 2.162 . S
O267 C255 1.281 . S
O268 Mn252 2.289 1_545 S
O268 C255 1.220 1_545 S
N269 Mn253 2.282 . S
N269 C270 1.328 . S
N269 C274 1.318 . S
C270 N269 1.328 . S
C270 C271 1.457 . S
C270 H275 0.929 . S
C271 C270 1.457 . S
C271 C272 1.291 . S
C271 H284 0.931 . S
C272 C271 1.291 . S
C272 C273 1.373 . S
C272 H285 0.929 . S
C273 C272 1.373 . S
C273 C274 1.396 . S
C273 C280 1.403 . S
C274 C264 1.476 . S
C274 N269 1.318 . S
C274 C273 1.396 . S
H275 C270 0.929 . S
O276 Mn252 2.385 1_545 S
O276 C254 1.234 . S
O277 Mn252 2.209 1_545 S
O277 Mn253 2.215 . S
O277 C254 1.283 . S
O278 Mn252 2.094 . S
O278 C256 1.240 . S
O279 Mn253 2.117 1_565 S
O279 C256 1.264 . S
C280 C273 1.403 . S
C280 C281 1.399 . S
C280 H286 0.929 . S
C281 C261 1.449 . S
C281 C280 1.399 . S
C281 H287 0.930 . S
H282 C262 0.931 . S
H283 C263 0.930 . S
H284 C271 0.931 . S
H285 C272 0.929 . S
H286 C280 0.929 . S
H287 C281 0.930 . S
Mn288 O293 2.095 . S
Mn288 O303 2.162 1_554 S
Mn288 O304 2.297 1_554 S
Mn288 O312 2.385 . S
Mn288 O313 2.209 . S
Mn288 O314 2.094 . S
Mn289 O294 2.121 . S
Mn289 N296 2.257 . S
Mn289 N305 2.282 . S
Mn289 O313 2.215 . S
Mn289 O315 2.117 . S
C290 O312 1.234 . S
C290 O313 1.283 . S
C291 O303 1.281 . S
C291 O304 1.236 . S
C292 O314 1.240 . S
C292 O315 1.264 . S
O293 Mn288 2.095 . S
O293 C302 1.250 . S
O294 Mn289 2.121 . S
O294 C302 1.258 . S
C295 N296 1.326 . S
C295 C299 1.460 . S
C295 H301 0.929 . S
N296 Mn289 2.257 . S
N296 C295 1.326 . S
N296 C300 1.362 . S
C297 C298 1.258 . S
C297 C300 1.431 . S
C297 C317 1.449 . S
C298 C297 1.258 . S
C298 C299 1.477 . S
C298 H318 0.931 . S
C299 C295 1.460 . S
C299 C298 1.477 . S
C299 H319 0.930 . S
C300 N296 1.362 . S
C300 C297 1.431 . S
C300 C310 1.476 . S
H301 C295 0.929 . S
C302 O293 1.250 . S
C302 O294 1.258 . S
O303 Mn288 2.162 1_556 S
O303 C291 1.281 . S
O304 Mn288 2.297 1_556 S
O304 C291 1.236 . S
N305 Mn289 2.282 . S
N305 C306 1.328 . S
N305 C310 1.318 . S
C306 N305 1.328 . S
C306 C307 1.457 . S
C306 H311 0.929 . S
C307 C306 1.457 . S
C307 C308 1.291 . S
C307 H320 0.931 . S
C308 C307 1.291 . S
C308 C309 1.373 . S
C308 H321 0.929 . S
C309 C308 1.373 . S
C309 C310 1.396 . S
C309 C316 1.403 . S
C310 C300 1.476 . S
C310 N305 1.318 . S
C310 C309 1.396 . S
H311 C306 0.929 . S
O312 Mn288 2.385 . S
O312 C290 1.234 . S
O313 Mn288 2.209 . S
O313 Mn289 2.215 . S
O313 C290 1.283 . S
O314 Mn288 2.094 . S
O314 C292 1.240 . S
O315 Mn289 2.117 . S
O315 C292 1.264 . S
C316 C309 1.403 . S
C316 C317 1.399 . S
C316 H322 0.929 . S
C317 C297 1.449 . S
C317 C316 1.399 . S
C317 H323 0.930 . S
H318 C298 0.931 . S
H319 C299 0.930 . S
H320 C307 0.931 . S
H321 C308 0.929 . S
H322 C316 0.929 . S
H323 C317 0.930 . S
Mn324 O329 2.095 . S
Mn324 O339 2.162 . S
Mn324 O340 2.282 1_455 S
Mn324 O348 2.385 1_455 S
Mn324 O349 2.209 1_455 S
Mn324 O350 2.094 . S
Mn325 O330 2.121 . S
Mn325 N332 2.257 . S
Mn325 N341 2.282 . S
Mn325 O349 2.215 . S
Mn325 O351 2.117 1_655 S
C326 O348 1.234 . S
C326 O349 1.283 . S
C327 O339 1.281 . S
C327 O340 1.209 1_455 S
C328 O350 1.240 . S
C328 O351 1.264 . S
O329 Mn324 2.095 . S
O329 C338 1.250 . S
O330 Mn325 2.121 . S
O330 C338 1.258 1_655 S
C331 N332 1.326 . S
C331 C335 1.460 . S
C331 H337 0.929 . S
N332 Mn325 2.257 . S
N332 C331 1.326 . S
N332 C336 1.362 . S
C333 C334 1.258 . S
C333 C336 1.431 . S
C333 C353 1.449 . S
C334 C333 1.258 . S
C334 C335 1.477 . S
C334 H354 0.931 . S
C335 C331 1.460 . S
C335 C334 1.477 . S
C335 H355 0.930 . S
C336 N332 1.362 . S
C336 C333 1.431 . S
C336 C346 1.476 . S
H337 C331 0.929 . S
C338 O329 1.250 . S
C338 O330 1.258 1_455 S
O339 Mn324 2.162 . S
O339 C327 1.281 . S
O340 Mn324 2.282 1_655 S
O340 C327 1.209 1_655 S
N341 Mn325 2.282 . S
N341 C342 1.328 . S
N341 C346 1.318 . S
C342 N341 1.328 . S
C342 C343 1.457 . S
C342 H347 0.929 . S
C343 C342 1.457 . S
C343 C344 1.291 . S
C343 H356 0.931 . S
C344 C343 1.291 . S
C344 C345 1.373 . S
C344 H357 0.929 . S
C345 C344 1.373 . S
C345 C346 1.396 . S
C345 C352 1.403 . S
C346 C336 1.476 . S
C346 N341 1.318 . S
C346 C345 1.396 . S
H347 C342 0.929 . S
O348 Mn324 2.385 1_655 S
O348 C326 1.234 . S
O349 Mn324 2.209 1_655 S
O349 Mn325 2.215 . S
O349 C326 1.283 . S
O350 Mn324 2.094 . S
O350 C328 1.240 . S
O351 Mn325 2.117 1_455 S
O351 C328 1.264 . S
C352 C345 1.403 . S
C352 C353 1.399 . S
C352 H358 0.929 . S
C353 C333 1.449 . S
C353 C352 1.399 . S
C353 H359 0.930 . S
H354 C334 0.931 . S
H355 C335 0.930 . S
H356 C343 0.931 . S
H357 C344 0.929 . S
H358 C352 0.929 . S
H359 C353 0.930 . S
Mn360 O365 2.095 . S
Mn360 O375 2.162 . S
Mn360 O376 2.290 1_545 S
Mn360 O384 2.385 1_545 S
Mn360 O385 2.209 1_545 S
Mn360 O386 2.094 . S
Mn361 O366 2.121 . S
Mn361 N368 2.257 . S
Mn361 N377 2.282 . S
Mn361 O385 2.215 . S
Mn361 O387 2.117 1_565 S
C362 O384 1.234 . S
C362 O385 1.283 . S
C363 O375 1.281 . S
C363 O376 1.220 1_545 S
C364 O386 1.240 . S
C364 O387 1.264 . S
O365 Mn360 2.095 . S
O365 C374 1.250 . S
O366 Mn361 2.121 . S
O366 C374 1.258 1_565 S
C367 N368 1.326 . S
C367 C371 1.460 . S
C367 H373 0.929 . S
N368 Mn361 2.257 . S
N368 C367 1.326 . S
N368 C372 1.362 . S
C369 C370 1.258 . S
C369 C372 1.431 . S
C369 C389 1.449 . S
C370 C369 1.258 . S
C370 C371 1.477 . S
C370 H390 0.931 . S
C371 C367 1.460 . S
C371 C370 1.477 . S
C371 H391 0.930 . S
C372 N368 1.362 . S
C372 C369 1.431 . S
C372 C382 1.476 . S
H373 C367 0.929 . S
C374 O365 1.250 . S
C374 O366 1.258 1_545 S
O375 Mn360 2.162 . S
O375 C363 1.281 . S
O376 Mn360 2.290 1_565 S
O376 C363 1.220 1_565 S
N377 Mn361 2.282 . S
N377 C378 1.328 . S
N377 C382 1.318 . S
C378 N377 1.328 . S
C378 C379 1.457 . S
C378 H383 0.929 . S
C379 C378 1.457 . S
C379 C380 1.291 . S
C379 H392 0.931 . S
C380 C379 1.291 . S
C380 C381 1.373 . S
C380 H393 0.929 . S
C381 C380 1.373 . S
C381 C382 1.396 . S
C381 C388 1.403 . S
C382 C372 1.476 . S
C382 N377 1.318 . S
C382 C381 1.396 . S
H383 C378 0.929 . S
O384 Mn360 2.385 1_565 S
O384 C362 1.234 . S
O385 Mn360 2.209 1_565 S
O385 Mn361 2.215 . S
O385 C362 1.283 . S
O386 Mn360 2.094 . S
O386 C364 1.240 . S
O387 Mn361 2.117 1_545 S
O387 C364 1.264 . S
C388 C381 1.403 . S
C388 C389 1.399 . S
C388 H394 0.929 . S
C389 C369 1.449 . S
C389 C388 1.399 . S
C389 H395 0.930 . S
H390 C370 0.931 . S
H391 C371 0.930 . S
H392 C379 0.931 . S
H393 C380 0.929 . S
H394 C388 0.929 . S
H395 C389 0.930 . S
Mn396 O401 2.095 . S
Mn396 O411 2.162 1_554 S
Mn396 O412 2.297 1_554 S
Mn396 O420 2.385 . S
Mn396 O421 2.209 . S
Mn396 O422 2.094 . S
Mn397 O402 2.121 . S
Mn397 N404 2.257 . S
Mn397 N413 2.282 . S
Mn397 O421 2.215 . S
Mn397 O423 2.117 . S
C398 O420 1.234 . S
C398 O421 1.283 . S
C399 O411 1.281 . S
C399 O412 1.236 . S
C400 O422 1.240 . S
C400 O423 1.264 . S
O401 Mn396 2.095 . S
O401 C410 1.250 . S
O402 Mn397 2.121 . S
O402 C410 1.258 . S
C403 N404 1.326 . S
C403 C407 1.460 . S
C403 H409 0.929 . S
N404 Mn397 2.257 . S
N404 C403 1.326 . S
N404 C408 1.362 . S
C405 C406 1.258 . S
C405 C408 1.431 . S
C405 C425 1.449 . S
C406 C405 1.258 . S
C406 C407 1.477 . S
C406 H426 0.931 . S
C407 C403 1.460 . S
C407 C406 1.477 . S
C407 H427 0.930 . S
C408 N404 1.362 . S
C408 C405 1.431 . S
C408 C418 1.476 . S
H409 C403 0.929 . S
C410 O401 1.250 . S
C410 O402 1.258 . S
O411 Mn396 2.162 1_556 S
O411 C399 1.281 . S
O412 Mn396 2.297 1_556 S
O412 C399 1.236 . S
N413 Mn397 2.282 . S
N413 C414 1.328 . S
N413 C418 1.318 . S
C414 N413 1.328 . S
C414 C415 1.457 . S
C414 H419 0.929 . S
C415 C414 1.457 . S
C415 C416 1.291 . S
C415 H428 0.931 . S
C416 C415 1.291 . S
C416 C417 1.373 . S
C416 H429 0.929 . S
C417 C416 1.373 . S
C417 C418 1.396 . S
C417 C424 1.403 . S
C418 C408 1.476 . S
C418 N413 1.318 . S
C418 C417 1.396 . S
H419 C414 0.929 . S
O420 Mn396 2.385 . S
O420 C398 1.234 . S
O421 Mn396 2.209 . S
O421 Mn397 2.215 . S
O421 C398 1.283 . S
O422 Mn396 2.094 . S
O422 C400 1.240 . S
O423 Mn397 2.117 . S
O423 C400 1.264 . S
C424 C417 1.403 . S
C424 C425 1.399 . S
C424 H430 0.929 . S
C425 C405 1.449 . S
C425 C424 1.399 . S
C425 H431 0.930 . S
H426 C406 0.931 . S
H427 C407 0.930 . S
H428 C415 0.931 . S
H429 C416 0.929 . S
H430 C424 0.929 . S
H431 C425 0.930 . S
H432 C450 0.951 . S
H433 C452 0.951 . S
H434 C454 0.950 . S
H435 C455 0.950 . S
H436 C457 0.950 . S
H437 C460 0.950 . S
H438 C461 0.950 . S
H439 C463 0.950 . S
H440 C464 0.950 . S
H441 C465 0.951 . S
H442 C467 0.951 . S
H443 C469 0.950 . S
H444 C470 0.950 . S
H445 C472 0.950 . S
H446 C475 0.950 . S
H447 C476 0.950 . S
H448 C478 0.950 . S
H449 C479 0.950 . S
C450 H432 0.951 . S
C450 C451 1.366 . S
C450 C452 1.388 . S
C451 C450 1.366 . S
C451 C455 1.385 . S
C452 H433 0.951 . S
C452 C450 1.388 . S
C452 C453 1.366 . S
C453 C452 1.366 . S
C453 C454 1.414 . S
C453 C456 1.499 . S
C454 H434 0.950 . S
C454 C453 1.414 . S
C454 C455 1.374 . S
C455 H435 0.950 . S
C455 C451 1.385 . S
C455 C454 1.374 . S
C456 C453 1.499 . S
C456 C457 1.373 . S
C456 C458 1.389 . S
C457 H436 0.950 . S
C457 C456 1.373 . S
C457 C473 1.377 . S
C458 C456 1.389 . S
C458 C459 1.524 . S
C458 C472 1.377 . S
C459 C458 1.524 . S
C459 C460 1.397 . S
C459 C464 1.363 . S
C460 H437 0.950 . S
C460 C459 1.397 . S
C460 C461 1.334 . S
C461 H438 0.950 . S
C461 C460 1.334 . S
C461 C462 1.287 . S
C462 C461 1.287 . S
C462 C463 1.524 . S
C462 H481 0.913 . S
C463 H439 0.950 . S
C463 C462 1.524 . S
C463 C464 1.415 . S
C464 H440 0.950 . S
C464 C459 1.363 . S
C464 C463 1.415 . S
C465 H441 0.951 . S
C465 C466 1.366 . S
C465 C467 1.388 . S
C466 C465 1.366 . S
C466 C470 1.385 . S
C467 H442 0.951 . S
C467 C465 1.388 . S
C467 C468 1.366 . S
C468 C467 1.366 . S
C468 C469 1.414 . S
C468 C471 1.499 . S
C469 H443 0.950 . S
C469 C468 1.414 . S
C469 C470 1.374 . S
C470 H444 0.950 . S
C470 C466 1.385 . S
C470 C469 1.374 . S
C471 C468 1.499 . S
C471 C472 1.373 . S
C471 C473 1.389 . S
C472 H445 0.950 . S
C472 C458 1.377 . S
C472 C471 1.373 . S
C473 C457 1.377 . S
C473 C471 1.389 . S
C473 C474 1.524 . S
C474 C473 1.524 . S
C474 C475 1.397 . S
C474 C479 1.363 . S
C475 H446 0.950 . S
C475 C474 1.397 . S
C475 C476 1.334 . S
C476 H447 0.950 . S
C476 C475 1.334 . S
C476 C477 1.287 . S
C477 C476 1.287 . S
C477 C478 1.524 . S
C477 H480 0.999 . S
C478 H448 0.950 . S
C478 C477 1.524 . S
C478 C479 1.415 . S
C479 H449 0.950 . S
C479 C474 1.363 . S
C479 C478 1.415 . S
H480 C477 0.999 . S
H481 C462 0.913 . S
H482 C500 0.951 . S
H483 C502 0.951 . S
H484 C504 0.950 . S
H485 C505 0.950 . S
H486 C507 0.950 . S
H487 C510 0.950 . S
H488 C511 0.950 . S
H489 C513 0.950 . S
H490 C514 0.950 . S
H491 C515 0.951 . S
H492 C517 0.951 . S
H493 C519 0.950 . S
H494 C520 0.950 . S
H495 C522 0.950 . S
H496 C525 0.950 . S
H497 C526 0.950 . S
H498 C528 0.950 . S
H499 C529 0.950 . S
C500 H482 0.951 . S
C500 C501 1.366 . S
C500 C502 1.388 . S
C501 C500 1.366 . S
C501 C505 1.385 . S
C502 H483 0.951 . S
C502 C500 1.388 . S
C502 C503 1.366 . S
C503 C502 1.366 . S
C503 C504 1.414 . S
C503 C506 1.499 . S
C504 H484 0.950 . S
C504 C503 1.414 . S
C504 C505 1.374 . S
C505 H485 0.950 . S
C505 C501 1.385 . S
C505 C504 1.374 . S
C506 C503 1.499 . S
C506 C507 1.373 . S
C506 C508 1.389 . S
C507 H486 0.950 . S
C507 C506 1.373 . S
C507 C523 1.377 . S
C508 C506 1.389 . S
C508 C509 1.524 . S
C508 C522 1.377 . S
C509 C508 1.524 . S
C509 C510 1.397 . S
C509 C514 1.363 . S
C510 H487 0.950 . S
C510 C509 1.397 . S
C510 C511 1.334 . S
C511 H488 0.950 . S
C511 C510 1.334 . S
C511 C512 1.287 . S
C512 C511 1.287 . S
C512 C513 1.524 . S
C512 H531 0.913 . S
C513 H489 0.950 . S
C513 C512 1.524 . S
C513 C514 1.415 . S
C514 H490 0.950 . S
C514 C509 1.363 . S
C514 C513 1.415 . S
C515 H491 0.951 . S
C515 C516 1.366 . S
C515 C517 1.388 . S
C516 C515 1.366 . S
C516 C520 1.385 . S
C517 H492 0.951 . S
C517 C515 1.388 . S
C517 C518 1.366 . S
C518 C517 1.366 . S
C518 C519 1.414 . S
C518 C521 1.499 . S
C519 H493 0.950 . S
C519 C518 1.414 . S
C519 C520 1.374 . S
C520 H494 0.950 . S
C520 C516 1.385 . S
C520 C519 1.374 . S
C521 C518 1.499 . S
C521 C522 1.373 . S
C521 C523 1.389 . S
C522 H495 0.950 . S
C522 C508 1.377 . S
C522 C521 1.373 . S
C523 C507 1.377 . S
C523 C521 1.389 . S
C523 C524 1.524 . S
C524 C523 1.524 . S
C524 C525 1.397 . S
C524 C529 1.363 . S
C525 H496 0.950 . S
C525 C524 1.397 . S
C525 C526 1.334 . S
C526 H497 0.950 . S
C526 C525 1.334 . S
C526 C527 1.287 . S
C527 C526 1.287 . S
C527 C528 1.524 . S
C527 H530 0.999 . S
C528 H498 0.950 . S
C528 C527 1.524 . S
C528 C529 1.415 . S
C529 H499 0.950 . S
C529 C524 1.363 . S
C529 C528 1.415 . S
H530 C527 0.999 . S
H531 C512 0.913 . S
H532 C550 0.951 . S
H533 C552 0.951 . S
H534 C554 0.950 . S
H535 C555 0.950 . S
H536 C557 0.950 . S
H537 C560 0.950 . S
H538 C561 0.950 . S
H539 C563 0.950 . S
H540 C564 0.950 . S
H541 C565 0.951 . S
H542 C567 0.951 . S
H543 C569 0.950 . S
H544 C570 0.950 . S
H545 C572 0.950 . S
H546 C575 0.950 . S
H547 C576 0.950 . S
H548 C578 0.950 . S
H549 C579 0.950 . S
C550 H532 0.951 . S
C550 C551 1.366 . S
C550 C552 1.388 . S
C551 C550 1.366 . S
C551 C555 1.385 . S
C552 H533 0.951 . S
C552 C550 1.388 . S
C552 C553 1.366 . S
C553 C552 1.366 . S
C553 C554 1.414 . S
C553 C556 1.499 . S
C554 H534 0.950 . S
C554 C553 1.414 . S
C554 C555 1.374 . S
C555 H535 0.950 . S
C555 C551 1.385 . S
C555 C554 1.374 . S
C556 C553 1.499 . S
C556 C557 1.373 . S
C556 C558 1.389 . S
C557 H536 0.950 . S
C557 C556 1.373 . S
C557 C573 1.377 . S
C558 C556 1.389 . S
C558 C559 1.524 . S
C558 C572 1.377 . S
C559 C558 1.524 . S
C559 C560 1.397 . S
C559 C564 1.363 . S
C560 H537 0.950 . S
C560 C559 1.397 . S
C560 C561 1.334 . S
C561 H538 0.950 . S
C561 C560 1.334 . S
C561 C562 1.287 . S
C562 C561 1.287 . S
C562 C563 1.524 . S
C562 H581 0.913 . S
C563 H539 0.950 . S
C563 C562 1.524 . S
C563 C564 1.415 . S
C564 H540 0.950 . S
C564 C559 1.363 . S
C564 C563 1.415 . S
C565 H541 0.951 . S
C565 C566 1.366 . S
C565 C567 1.388 . S
C566 C565 1.366 . S
C566 C570 1.385 . S
C567 H542 0.951 . S
C567 C565 1.388 . S
C567 C568 1.366 . S
C568 C567 1.366 . S
C568 C569 1.414 . S
C568 C571 1.499 . S
C569 H543 0.950 . S
C569 C568 1.414 . S
C569 C570 1.374 . S
C570 H544 0.950 . S
C570 C566 1.385 . S
C570 C569 1.374 . S
C571 C568 1.499 . S
C571 C572 1.373 . S
C571 C573 1.389 . S
C572 H545 0.950 . S
C572 C558 1.377 . S
C572 C571 1.373 . S
C573 C557 1.377 . S
C573 C571 1.389 . S
C573 C574 1.524 . S
C574 C573 1.524 . S
C574 C575 1.397 . S
C574 C579 1.363 . S
C575 H546 0.950 . S
C575 C574 1.397 . S
C575 C576 1.334 . S
C576 H547 0.950 . S
C576 C575 1.334 . S
C576 C577 1.287 . S
C577 C576 1.287 . S
C577 C578 1.524 . S
C577 H580 0.999 . S
C578 H548 0.950 . S
C578 C577 1.524 . S
C578 C579 1.415 . S
C579 H549 0.950 . S
C579 C574 1.363 . S
C579 C578 1.415 . S
H580 C577 0.999 . S
H581 C562 0.913 . S
H582 C600 0.951 . S
H583 C602 0.951 . S
H584 C604 0.950 . S
H585 C605 0.950 . S
H586 C607 0.950 . S
H587 C610 0.950 . S
H588 C611 0.950 . S
H589 C613 0.950 . S
H590 C614 0.950 . S
H591 C615 0.951 . S
H592 C617 0.951 . S
H593 C619 0.950 . S
H594 C620 0.950 . S
H595 C622 0.950 . S
H596 C625 0.950 . S
H597 C626 0.950 . S
H598 C628 0.950 . S
H599 C629 0.950 . S
C600 H582 0.951 . S
C600 C601 1.366 . S
C600 C602 1.388 . S
C601 C600 1.366 . S
C601 C605 1.385 . S
C602 H583 0.951 . S
C602 C600 1.388 . S
C602 C603 1.366 . S
C603 C602 1.366 . S
C603 C604 1.414 . S
C603 C606 1.499 . S
C604 H584 0.950 . S
C604 C603 1.414 . S
C604 C605 1.374 . S
C605 H585 0.950 . S
C605 C601 1.385 . S
C605 C604 1.374 . S
C606 C603 1.499 . S
C606 C607 1.373 . S
C606 C608 1.389 . S
C607 H586 0.950 . S
C607 C606 1.373 . S
C607 C623 1.377 . S
C608 C606 1.389 . S
C608 C609 1.524 . S
C608 C622 1.377 . S
C609 C608 1.524 . S
C609 C610 1.397 . S
C609 C614 1.363 . S
C610 H587 0.950 . S
C610 C609 1.397 . S
C610 C611 1.334 . S
C611 H588 0.950 . S
C611 C610 1.334 . S
C611 C612 1.287 . S
C612 C611 1.287 . S
C612 C613 1.524 . S
C612 H631 0.913 . S
C613 H589 0.950 . S
C613 C612 1.524 . S
C613 C614 1.415 . S
C614 H590 0.950 . S
C614 C609 1.363 . S
C614 C613 1.415 . S
C615 H591 0.951 . S
C615 C616 1.366 . S
C615 C617 1.388 . S
C616 C615 1.366 . S
C616 C620 1.385 . S
C617 H592 0.951 . S
C617 C615 1.388 . S
C617 C618 1.366 . S
C618 C617 1.366 . S
C618 C619 1.414 . S
C618 C621 1.499 . S
C619 H593 0.950 . S
C619 C618 1.414 . S
C619 C620 1.374 . S
C620 H594 0.950 . S
C620 C616 1.385 . S
C620 C619 1.374 . S
C621 C618 1.499 . S
C621 C622 1.373 . S
C621 C623 1.389 . S
C622 H595 0.950 . S
C622 C608 1.377 . S
C622 C621 1.373 . S
C623 C607 1.377 . S
C623 C621 1.389 . S
C623 C624 1.524 . S
C624 C623 1.524 . S
C624 C625 1.397 . S
C624 C629 1.363 . S
C625 H596 0.950 . S
C625 C624 1.397 . S
C625 C626 1.334 . S
C626 H597 0.950 . S
C626 C625 1.334 . S
C626 C627 1.287 . S
C627 C626 1.287 . S
C627 C628 1.524 . S
C627 H630 0.999 . S
C628 H598 0.950 . S
C628 C627 1.524 . S
C628 C629 1.415 . S
C629 H599 0.950 . S
C629 C624 1.363 . S
C629 C628 1.415 . S
H630 C627 0.999 . S
H631 C612 0.913 . S
H632 C650 0.951 . S
H633 C652 0.951 . S
H634 C654 0.950 . S
H635 C655 0.950 . S
H636 C657 0.950 . S
H637 C660 0.950 . S
H638 C661 0.950 . S
H639 C663 0.950 . S
H640 C664 0.950 . S
H641 C665 0.951 . S
H642 C667 0.951 . S
H643 C669 0.950 . S
H644 C670 0.950 . S
H645 C672 0.950 . S
H646 C675 0.950 . S
H647 C676 0.950 . S
H648 C678 0.950 . S
H649 C679 0.950 . S
C650 H632 0.951 . S
C650 C651 1.366 . S
C650 C652 1.388 . S
C651 C650 1.366 . S
C651 C655 1.385 . S
C652 H633 0.951 . S
C652 C650 1.388 . S
C652 C653 1.366 . S
C653 C652 1.366 . S
C653 C654 1.414 . S
C653 C656 1.499 . S
C654 H634 0.950 . S
C654 C653 1.414 . S
C654 C655 1.374 . S
C655 H635 0.950 . S
C655 C651 1.385 . S
C655 C654 1.374 . S
C656 C653 1.499 . S
C656 C657 1.373 . S
C656 C658 1.389 . S
C657 H636 0.950 . S
C657 C656 1.373 . S
C657 C673 1.377 . S
C658 C656 1.389 . S
C658 C659 1.524 . S
C658 C672 1.377 . S
C659 C658 1.524 . S
C659 C660 1.397 . S
C659 C664 1.363 . S
C660 H637 0.950 . S
C660 C659 1.397 . S
C660 C661 1.334 . S
C661 H638 0.950 . S
C661 C660 1.334 . S
C661 C662 1.287 . S
C662 C661 1.287 . S
C662 C663 1.524 . S
C662 H681 0.913 . S
C663 H639 0.950 . S
C663 C662 1.524 . S
C663 C664 1.415 . S
C664 H640 0.950 . S
C664 C659 1.363 . S
C664 C663 1.415 . S
C665 H641 0.951 . S
C665 C666 1.366 . S
C665 C667 1.388 . S
C666 C665 1.366 . S
C666 C670 1.385 . S
C667 H642 0.951 . S
C667 C665 1.388 . S
C667 C668 1.366 . S
C668 C667 1.366 . S
C668 C669 1.414 . S
C668 C671 1.499 . S
C669 H643 0.950 . S
C669 C668 1.414 . S
C669 C670 1.374 . S
C670 H644 0.950 . S
C670 C666 1.385 . S
C670 C669 1.374 . S
C671 C668 1.499 . S
C671 C672 1.373 . S
C671 C673 1.389 . S
C672 H645 0.950 . S
C672 C658 1.377 . S
C672 C671 1.373 . S
C673 C657 1.377 . S
C673 C671 1.389 . S
C673 C674 1.524 . S
C674 C673 1.524 . S
C674 C675 1.397 . S
C674 C679 1.363 . S
C675 H646 0.950 . S
C675 C674 1.397 . S
C675 C676 1.334 . S
C676 H647 0.950 . S
C676 C675 1.334 . S
C676 C677 1.287 . S
C677 C676 1.287 . S
C677 C678 1.524 . S
C677 H680 0.999 . S
C678 H648 0.950 . S
C678 C677 1.524 . S
C678 C679 1.415 . S
C679 H649 0.950 . S
C679 C674 1.363 . S
C679 C678 1.415 . S
H680 C677 0.999 . S
H681 C662 0.913 . S
H682 C700 0.951 . S
H683 C702 0.951 . S
H684 C704 0.950 . S
H685 C705 0.950 . S
H686 C707 0.950 . S
H687 C710 0.950 . S
H688 C711 0.950 . S
H689 C713 0.950 . S
H690 C714 0.950 . S
H691 C715 0.951 . S
H692 C717 0.951 . S
H693 C719 0.950 . S
H694 C720 0.950 . S
H695 C722 0.950 . S
H696 C725 0.950 . S
H697 C726 0.950 . S
H698 C728 0.950 . S
H699 C729 0.950 . S
C700 H682 0.951 . S
C700 C701 1.366 . S
C700 C702 1.388 . S
C701 C700 1.366 . S
C701 C705 1.385 . S
C702 H683 0.951 . S
C702 C700 1.388 . S
C702 C703 1.366 . S
C703 C702 1.366 . S
C703 C704 1.414 . S
C703 C706 1.499 . S
C704 H684 0.950 . S
C704 C703 1.414 . S
C704 C705 1.374 . S
C705 H685 0.950 . S
C705 C701 1.385 . S
C705 C704 1.374 . S
C706 C703 1.499 . S
C706 C707 1.373 . S
C706 C708 1.389 . S
C707 H686 0.950 . S
C707 C706 1.373 . S
C707 C723 1.377 . S
C708 C706 1.389 . S
C708 C709 1.524 . S
C708 C722 1.377 . S
C709 C708 1.524 . S
C709 C710 1.397 . S
C709 C714 1.363 . S
C710 H687 0.950 . S
C710 C709 1.397 . S
C710 C711 1.334 . S
C711 H688 0.950 . S
C711 C710 1.334 . S
C711 C712 1.287 . S
C712 C711 1.287 . S
C712 C713 1.524 . S
C712 H731 0.913 . S
C713 H689 0.950 . S
C713 C712 1.524 . S
C713 C714 1.415 . S
C714 H690 0.950 . S
C714 C709 1.363 . S
C714 C713 1.415 . S
C715 H691 0.951 . S
C715 C716 1.366 . S
C715 C717 1.388 . S
C716 C715 1.366 . S
C716 C720 1.385 . S
C717 H692 0.951 . S
C717 C715 1.388 . S
C717 C718 1.366 . S
C718 C717 1.366 . S
C718 C719 1.414 . S
C718 C721 1.499 . S
C719 H693 0.950 . S
C719 C718 1.414 . S
C719 C720 1.374 . S
C720 H694 0.950 . S
C720 C716 1.385 . S
C720 C719 1.374 . S
C721 C718 1.499 . S
C721 C722 1.373 . S
C721 C723 1.389 . S
C722 H695 0.950 . S
C722 C708 1.377 . S
C722 C721 1.373 . S
C723 C707 1.377 . S
C723 C721 1.389 . S
C723 C724 1.524 . S
C724 C723 1.524 . S
C724 C725 1.397 . S
C724 C729 1.363 . S
C725 H696 0.950 . S
C725 C724 1.397 . S
C725 C726 1.334 . S
C726 H697 0.950 . S
C726 C725 1.334 . S
C726 C727 1.287 . S
C727 C726 1.287 . S
C727 C728 1.524 . S
C727 H730 0.999 . S
C728 H698 0.950 . S
C728 C727 1.524 . S
C728 C729 1.415 . S
C729 H699 0.950 . S
C729 C724 1.363 . S
C729 C728 1.415 . S
H730 C727 0.999 . S
H731 C712 0.913 . S
H732 C750 0.951 . S
H733 C752 0.951 . S
H734 C754 0.950 . S
H735 C755 0.950 . S
H736 C757 0.950 . S
H737 C760 0.950 . S
H738 C761 0.950 . S
H739 C763 0.950 . S
H740 C764 0.950 . S
H741 C765 0.951 . S
H742 C767 0.951 . S
H743 C769 0.950 . S
H744 C770 0.950 . S
H745 C772 0.950 . S
H746 C775 0.950 . S
H747 C776 0.950 . S
H748 C778 0.950 . S
H749 C779 0.950 . S
C750 H732 0.951 . S
C750 C751 1.366 1_565 S
C750 C752 1.388 . S
C751 C750 1.366 1_545 S
C751 C755 1.385 . S
C752 H733 0.951 . S
C752 C750 1.388 . S
C752 C753 1.366 1_565 S
C753 C752 1.366 1_545 S
C753 C754 1.414 . S
C753 C756 1.499 . S
C754 H734 0.950 . S
C754 C753 1.414 . S
C754 C755 1.374 . S
C755 H735 0.950 . S
C755 C751 1.385 . S
C755 C754 1.374 . S
C756 C753 1.499 . S
C756 C757 1.373 . S
C756 C758 1.389 1_545 S
C757 H736 0.950 . S
C757 C756 1.373 . S
C757 C773 1.377 . S
C758 C756 1.389 1_565 S
C758 C759 1.524 . S
C758 C772 1.377 . S
C759 C758 1.524 . S
C759 C760 1.397 . S
C759 C764 1.363 . S
C760 H737 0.950 . S
C760 C759 1.397 . S
C760 C761 1.334 . S
C761 H738 0.950 . S
C761 C760 1.334 . S
C761 C762 1.287 . S
C762 C761 1.287 . S
C762 C763 1.524 . S
C762 H781 0.913 . S
C763 H739 0.950 . S
C763 C762 1.524 . S
C763 C764 1.415 . S
C764 H740 0.950 . S
C764 C759 1.363 . S
C764 C763 1.415 . S
C765 H741 0.951 . S
C765 C766 1.366 1_545 S
C765 C767 1.388 . S
C766 C765 1.366 1_565 S
C766 C770 1.385 . S
C767 H742 0.951 . S
C767 C765 1.388 . S
C767 C768 1.366 1_545 S
C768 C767 1.366 1_565 S
C768 C769 1.414 . S
C768 C771 1.499 . S
C769 H743 0.950 . S
C769 C768 1.414 . S
C769 C770 1.374 . S
C770 H744 0.950 . S
C770 C766 1.385 . S
C770 C769 1.374 . S
C771 C768 1.499 . S
C771 C772 1.373 . S
C771 C773 1.389 1_565 S
C772 H745 0.950 . S
C772 C758 1.377 . S
C772 C771 1.373 . S
C773 C757 1.377 . S
C773 C771 1.389 1_545 S
C773 C774 1.524 . S
C774 C773 1.524 . S
C774 C775 1.397 . S
C774 C779 1.363 . S
C775 H746 0.950 . S
C775 C774 1.397 . S
C775 C776 1.334 . S
C776 H747 0.950 . S
C776 C775 1.334 . S
C776 C777 1.287 . S
C777 C776 1.287 . S
C777 C778 1.524 . S
C777 H780 0.999 . S
C778 H748 0.950 . S
C778 C777 1.524 . S
C778 C779 1.415 . S
C779 H749 0.950 . S
C779 C774 1.363 . S
C779 C778 1.415 . S
H780 C777 0.999 . S
H781 C762 0.913 . S
H782 C800 0.951 . S
H783 C802 0.951 . S
H784 C804 0.950 . S
H785 C805 0.950 . S
H786 C807 0.950 . S
H787 C810 0.950 . S
H788 C811 0.950 . S
H789 C813 0.950 . S
H790 C814 0.950 . S
H791 C815 0.951 . S
H792 C817 0.951 . S
H793 C819 0.950 . S
H794 C820 0.950 . S
H795 C822 0.950 . S
H796 C825 0.950 . S
H797 C826 0.950 . S
H798 C828 0.950 . S
H799 C829 0.950 . S
C800 H782 0.951 . S
C800 C801 1.366 . S
C800 C802 1.388 . S
C801 C800 1.366 . S
C801 C805 1.385 . S
C802 H783 0.951 . S
C802 C800 1.388 . S
C802 C803 1.366 . S
C803 C802 1.366 . S
C803 C804 1.414 . S
C803 C806 1.499 . S
C804 H784 0.950 . S
C804 C803 1.414 . S
C804 C805 1.374 . S
C805 H785 0.950 . S
C805 C801 1.385 . S
C805 C804 1.374 . S
C806 C803 1.499 . S
C806 C807 1.373 . S
C806 C808 1.389 . S
C807 H786 0.950 . S
C807 C806 1.373 . S
C807 C823 1.377 . S
C808 C806 1.389 . S
C808 C809 1.524 . S
C808 C822 1.377 . S
C809 C808 1.524 . S
C809 C810 1.397 . S
C809 C814 1.363 . S
C810 H787 0.950 . S
C810 C809 1.397 . S
C810 C811 1.334 . S
C811 H788 0.950 . S
C811 C810 1.334 . S
C811 C812 1.287 . S
C812 C811 1.287 . S
C812 C813 1.524 . S
C812 H831 0.913 . S
C813 H789 0.950 . S
C813 C812 1.524 . S
C813 C814 1.415 . S
C814 H790 0.950 . S
C814 C809 1.363 . S
C814 C813 1.415 . S
C815 H791 0.951 . S
C815 C816 1.366 . S
C815 C817 1.388 . S
C816 C815 1.366 . S
C816 C820 1.385 . S
C817 H792 0.951 . S
C817 C815 1.388 . S
C817 C818 1.366 . S
C818 C817 1.366 . S
C818 C819 1.414 . S
C818 C821 1.499 . S
C819 H793 0.950 . S
C819 C818 1.414 . S
C819 C820 1.374 . S
C820 H794 0.950 . S
C820 C816 1.385 . S
C820 C819 1.374 . S
C821 C818 1.499 . S
C821 C822 1.373 . S
C821 C823 1.389 . S
C822 H795 0.950 . S
C822 C808 1.377 . S
C822 C821 1.373 . S
C823 C807 1.377 . S
C823 C821 1.389 . S
C823 C824 1.524 . S
C824 C823 1.524 . S
C824 C825 1.397 . S
C824 C829 1.363 . S
C825 H796 0.950 . S
C825 C824 1.397 . S
C825 C826 1.334 . S
C826 H797 0.950 . S
C826 C825 1.334 . S
C826 C827 1.287 . S
C827 C826 1.287 . S
C827 C828 1.524 . S
C827 H830 0.999 . S
C828 H798 0.950 . S
C828 C827 1.524 . S
C828 C829 1.415 . S
C829 H799 0.950 . S
C829 C824 1.363 . S
C829 C828 1.415 . S
H830 C827 0.999 . S
H831 C812 0.913 . S
H832 C850 0.951 . S
H833 C852 0.951 . S
H834 C854 0.950 . S
H835 C855 0.950 . S
H836 C857 0.950 1_554 S
H837 C860 0.950 1_655 S
H838 C861 0.987 . S
H839 C863 0.950 . S
H840 C864 0.950 . S
H841 C865 0.951 . S
H842 C867 0.951 . S
H843 C869 0.950 . S
H844 C870 0.950 . S
H845 C872 0.950 . S
H846 C875 0.950 1_455 S
H847 C876 0.987 . S
H848 C878 0.950 . S
H849 C879 0.950 . S
C850 H832 0.951 . S
C850 C851 1.366 . S
C850 C852 1.388 . S
C851 C850 1.366 . S
C851 C855 1.385 1_455 S
C852 H833 0.951 . S
C852 C850 1.388 . S
C852 C853 1.366 . S
C853 C852 1.366 . S
C853 C854 1.414 1_455 S
C853 C856 1.499 . S
C854 H834 0.950 . S
C854 C853 1.414 1_655 S
C854 C855 1.374 . S
C855 H835 0.950 . S
C855 C851 1.385 1_655 S
C855 C854 1.374 . S
C856 C853 1.499 . S
C856 C857 1.373 1_455 S
C856 C858 1.389 . S
C857 H836 0.950 1_556 S
C857 C856 1.373 1_655 S
C857 C873 1.377 . S
C858 C856 1.389 . S
C858 C859 1.524 . S
C858 C872 1.377 . S
C859 C858 1.524 . S
C859 C860 1.397 . S
C859 C864 1.363 . S
C860 H837 0.950 1_455 S
C860 C859 1.397 . S
C860 C861 1.334 . S
C861 H838 0.987 . S
C861 C860 1.334 . S
C861 C862 1.287 . S
C862 C861 1.287 . S
C862 C863 1.524 . S
C862 H881 0.913 . S
C863 H839 0.950 . S
C863 C862 1.524 . S
C863 C864 1.415 . S
C864 H840 0.950 . S
C864 C859 1.363 . S
C864 C863 1.415 . S
C865 H841 0.951 . S
C865 C866 1.366 . S
C865 C867 1.388 . S
C866 C865 1.366 . S
C866 C870 1.385 1_655 S
C867 H842 0.951 . S
C867 C865 1.388 . S
C867 C868 1.366 . S
C868 C867 1.366 . S
C868 C869 1.414 1_655 S
C868 C871 1.499 . S
C869 H843 0.950 . S
C869 C868 1.414 1_455 S
C869 C870 1.374 . S
C870 H844 0.950 . S
C870 C866 1.385 1_455 S
C870 C869 1.374 . S
C871 C868 1.499 . S
C871 C872 1.373 1_655 S
C871 C873 1.389 . S
C872 H845 0.950 . S
C872 C858 1.377 . S
C872 C871 1.373 1_455 S
C873 C857 1.377 . S
C873 C871 1.389 . S
C873 C874 1.524 1_556 S
C874 C873 1.524 1_554 S
C874 C875 1.397 . S
C874 C879 1.363 . S
C875 H846 0.950 1_655 S
C875 C874 1.397 . S
C875 C876 1.334 . S
C876 H847 0.987 . S
C876 C875 1.334 . S
C876 C877 1.287 . S
C877 C876 1.287 . S
C877 C878 1.524 . S
C877 H880 0.999 . S
C878 H848 0.950 . S
C878 C877 1.524 . S
C878 C879 1.415 . S
C879 H849 0.950 . S
C879 C874 1.363 . S
C879 C878 1.415 . S
H880 C877 0.999 . S
H881 C862 0.913 . S
H882 C900 0.951 . S
H883 C902 0.951 . S
H884 C904 0.950 . S
H885 C905 0.950 . S
H886 C907 0.950 . S
H887 C910 0.950 . S
H888 C911 0.950 . S
H889 C913 0.950 . S
H890 C914 0.950 . S
H891 C915 0.951 . S
H892 C917 0.951 . S
H893 C919 0.950 . S
H894 C920 0.950 . S
H895 C922 0.950 . S
H896 C925 0.950 . S
H897 C926 0.950 . S
H898 C928 0.950 . S
H899 C929 0.950 . S
C900 H882 0.951 . S
C900 C901 1.366 . S
C900 C902 1.388 . S
C901 C900 1.366 . S
C901 C905 1.385 1_655 S
C902 H883 0.951 . S
C902 C900 1.388 . S
C902 C903 1.366 . S
C903 C902 1.366 . S
C903 C904 1.414 1_655 S
C903 C906 1.499 . S
C904 H884 0.950 . S
C904 C903 1.414 1_455 S
C904 C905 1.374 . S
C905 H885 0.950 . S
C905 C901 1.385 1_455 S
C905 C904 1.374 . S
C906 C903 1.499 . S
C906 C907 1.373 1_655 S
C906 C908 1.389 . S
C907 H886 0.950 . S
C907 C906 1.373 1_455 S
C907 C923 1.377 . S
C908 C906 1.389 . S
C908 C909 1.524 . S
C908 C922 1.377 . S
C909 C908 1.524 . S
C909 C910 1.397 . S
C909 C914 1.363 . S
C910 H887 0.950 . S
C910 C909 1.397 . S
C910 C911 1.334 . S
C911 H888 0.950 . S
C911 C910 1.334 . S
C911 C912 1.287 . S
C912 C911 1.287 . S
C912 C913 1.524 . S
C912 H931 0.913 . S
C913 H889 0.950 . S
C913 C912 1.524 . S
C913 C914 1.415 . S
C914 H890 0.950 . S
C914 C909 1.363 . S
C914 C913 1.415 . S
C915 H891 0.951 . S
C915 C916 1.366 . S
C915 C917 1.388 . S
C916 C915 1.366 . S
C916 C920 1.385 1_455 S
C917 H892 0.951 . S
C917 C915 1.388 . S
C917 C918 1.366 . S
C918 C917 1.366 . S
C918 C919 1.414 1_455 S
C918 C921 1.499 . S
C919 H893 0.950 . S
C919 C918 1.414 1_655 S
C919 C920 1.374 . S
C920 H894 0.950 . S
C920 C916 1.385 1_655 S
C920 C919 1.374 . S
C921 C918 1.499 . S
C921 C922 1.373 1_455 S
C921 C923 1.389 . S
C922 H895 0.950 . S
C922 C908 1.377 . S
C922 C921 1.373 1_655 S
C923 C907 1.377 . S
C923 C921 1.389 . S
C923 C924 1.524 . S
C924 C923 1.524 . S
C924 C925 1.397 . S
C924 C929 1.363 . S
C925 H896 0.950 . S
C925 C924 1.397 . S
C925 C926 1.334 . S
C926 H897 0.950 . S
C926 C925 1.334 . S
C926 C927 1.287 . S
C927 C926 1.287 . S
C927 C928 1.524 . S
C927 H930 0.999 . S
C928 H898 0.950 . S
C928 C927 1.524 . S
C928 C929 1.415 . S
C929 H899 0.950 . S
C929 C924 1.363 . S
C929 C928 1.415 . S
H930 C927 0.999 . S
H931 C912 0.913 . S
H932 C950 0.951 . S
H933 C952 0.951 . S
H934 C954 0.950 . S
H935 C955 0.950 . S
H936 C957 0.962 . S
H937 C960 0.950 . S
H938 C961 0.950 . S
H939 C963 0.950 1_565 S
H940 C964 0.950 . S
H941 C965 0.951 . S
H942 C967 0.951 . S
H943 C969 0.950 . S
H944 C970 0.950 . S
H945 C972 0.962 . S
H946 C975 0.950 . S
H947 C976 0.950 . S
H948 C978 0.950 1_545 S
H949 C979 0.950 . S
C950 H932 0.951 . S
C950 C951 1.366 1_565 S
C950 C952 1.388 . S
C951 C950 1.366 1_545 S
C951 C955 1.385 . S
C952 H933 0.951 . S
C952 C950 1.388 . S
C952 C953 1.366 1_565 S
C953 C952 1.366 1_545 S
C953 C954 1.414 . S
C953 C956 1.499 . S
C954 H934 0.950 . S
C954 C953 1.414 . S
C954 C955 1.374 . S
C955 H935 0.950 . S
C955 C951 1.385 . S
C955 C954 1.374 . S
C956 C953 1.499 . S
C956 C957 1.376 1_545 S
C956 C958 1.389 . S
C957 H936 0.962 . S
C957 C956 1.376 1_565 S
C957 C973 1.364 . S
C958 C956 1.389 . S
C958 C959 1.524 . S
C958 C972 1.364 . S
C959 C958 1.524 . S
C959 C960 1.397 . S
C959 C964 1.363 1_545 S
C960 H937 0.950 . S
C960 C959 1.397 . S
C960 C961 1.334 . S
C961 H938 0.950 . S
C961 C960 1.334 . S
C961 C962 1.287 . S
C962 C961 1.287 . S
C962 C963 1.524 . S
C962 H981 0.913 . S
C963 H939 0.950 1_545 S
C963 C962 1.524 . S
C963 C964 1.415 1_545 S
C964 H940 0.950 . S
C964 C959 1.363 1_565 S
C964 C963 1.415 1_565 S
C965 H941 0.951 . S
C965 C966 1.366 1_545 S
C965 C967 1.388 . S
C966 C965 1.366 1_565 S
C966 C970 1.385 . S
C967 H942 0.951 . S
C967 C965 1.388 . S
C967 C968 1.366 1_545 S
C968 C967 1.366 1_565 S
C968 C969 1.414 . S
C968 C971 1.499 . S
C969 H943 0.950 . S
C969 C968 1.414 . S
C969 C970 1.374 . S
C970 H944 0.950 . S
C970 C966 1.385 . S
C970 C969 1.374 . S
C971 C968 1.499 . S
C971 C972 1.376 1_565 S
C971 C973 1.389 . S
C972 H945 0.962 . S
C972 C958 1.364 . S
C972 C971 1.376 1_545 S
C973 C957 1.364 . S
C973 C971 1.389 . S
C973 C974 1.524 . S
C974 C973 1.524 . S
C974 C975 1.397 . S
C974 C979 1.363 1_565 S
C975 H946 0.950 . S
C975 C974 1.397 . S
C975 C976 1.334 . S
C976 H947 0.950 . S
C976 C975 1.334 . S
C976 C977 1.287 . S
C977 C976 1.287 . S
C977 C978 1.524 . S
C977 H980 0.999 . S
C978 H948 0.950 1_565 S
C978 C977 1.524 . S
C978 C979 1.415 1_565 S
C979 H949 0.950 . S
C979 C974 1.363 1_545 S
C979 C978 1.415 1_545 S
H980 C977 0.999 . S
H981 C962 0.913 . S
H982 C1000 0.951 . S
H983 C1002 0.951 . S
H984 C1004 0.950 1_556 S
H985 C1005 0.950 1_556 S
H986 C1007 0.950 . S
H987 C1010 0.950 . S
H988 C1011 0.950 . S
H989 C1013 0.950 . S
H990 C1014 0.950 . S
H991 C1015 0.951 1_556 S
H992 C1017 0.951 1_556 S
H993 C1019 0.950 . S
H994 C1020 0.950 . S
H995 C1022 0.950 . S
H996 C1025 0.950 . S
H997 C1026 0.950 . S
H998 C1028 0.950 . S
H999 C1029 0.950 . S
C1000 H982 0.951 . S
C1000 C1001 1.366 . S
C1000 C1002 1.388 . S
C1001 C1000 1.366 . S
C1001 C1005 1.385 . S
C1002 H983 0.951 . S
C1002 C1000 1.388 . S
C1002 C1003 1.366 . S
C1003 C1002 1.366 . S
C1003 C1004 1.414 . S
C1003 C1006 1.499 . S
C1004 H984 0.950 1_554 S
C1004 C1003 1.414 . S
C1004 C1005 1.374 . S
C1005 H985 0.950 1_554 S
C1005 C1001 1.385 . S
C1005 C1004 1.374 . S
C1006 C1003 1.499 . S
C1006 C1007 1.373 . S
C1006 C1008 1.389 . S
C1007 H986 0.950 . S
C1007 C1006 1.373 . S
C1007 C1023 1.377 . S
C1008 C1006 1.389 . S
C1008 C1009 1.524 . S
C1008 C1022 1.377 . S
C1009 C1008 1.524 . S
C1009 C1010 1.397 . S
C1009 C1014 1.363 . S
C1010 H987 0.950 . S
C1010 C1009 1.397 . S
C1010 C1011 1.334 . S
C1011 H988 0.950 . S
C1011 C1010 1.334 . S
C1011 C1012 1.287 . S
C1012 C1011 1.287 . S
C1012 C1013 1.524 . S
C1012 H1031 0.913 . S
C1013 H989 0.950 . S
C1013 C1012 1.524 . S
C1013 C1014 1.415 . S
C1014 H990 0.950 . S
C1014 C1009 1.363 . S
C1014 C1013 1.415 . S
C1015 H991 0.951 1_554 S
C1015 C1016 1.366 . S
C1015 C1017 1.388 . S
C1016 C1015 1.366 . S
C1016 C1020 1.385 . S
C1017 H992 0.951 1_554 S
C1017 C1015 1.388 . S
C1017 C1018 1.366 . S
C1018 C1017 1.366 . S
C1018 C1019 1.414 . S
C1018 C1021 1.499 . S
C1019 H993 0.950 . S
C1019 C1018 1.414 . S
C1019 C1020 1.374 . S
C1020 H994 0.950 . S
C1020 C1016 1.385 . S
C1020 C1019 1.374 . S
C1021 C1018 1.499 . S
C1021 C1022 1.373 . S
C1021 C1023 1.389 . S
C1022 H995 0.950 . S
C1022 C1008 1.377 . S
C1022 C1021 1.373 . S
C1023 C1007 1.377 . S
C1023 C1021 1.389 . S
C1023 C1024 1.524 . S
C1024 C1023 1.524 . S
C1024 C1025 1.397 . S
C1024 C1029 1.363 1_554 S
C1025 H996 0.950 . S
C1025 C1024 1.397 . S
C1025 C1026 1.334 . S
C1026 H997 0.950 . S
C1026 C1025 1.334 . S
C1026 C1027 1.287 . S
C1027 C1026 1.287 . S
C1027 C1028 1.524 1_554 S
C1027 H1030 0.999 . S
C1028 H998 0.950 . S
C1028 C1027 1.524 1_556 S
C1028 C1029 1.415 . S
C1029 H999 0.950 . S
C1029 C1024 1.363 1_556 S
C1029 C1028 1.415 . S
H1030 C1027 0.999 . S
H1031 C1012 0.913 . S
H1032 C1050 0.951 . S
H1033 C1052 0.951 . S
H1034 C1054 0.950 . S
H1035 C1055 0.950 . S
H1036 C1057 0.950 . S
H1037 C1060 0.950 . S
H1038 C1061 0.950 . S
H1039 C1063 0.950 . S
H1040 C1064 0.950 . S
H1041 C1065 0.951 . S
H1042 C1067 0.951 . S
H1043 C1069 0.950 . S
H1044 C1070 0.950 . S
H1045 C1072 0.950 . S
H1046 C1075 0.950 . S
H1047 C1076 0.950 . S
H1048 C1078 0.950 . S
H1049 C1079 0.950 . S
C1050 H1032 0.951 . S
C1050 C1051 1.366 . S
C1050 C1052 1.388 . S
C1051 C1050 1.366 . S
C1051 C1055 1.385 . S
C1052 H1033 0.951 . S
C1052 C1050 1.388 . S
C1052 C1053 1.366 . S
C1053 C1052 1.366 . S
C1053 C1054 1.414 . S
C1053 C1056 1.499 . S
C1054 H1034 0.950 . S
C1054 C1053 1.414 . S
C1054 C1055 1.374 . S
C1055 H1035 0.950 . S
C1055 C1051 1.385 . S
C1055 C1054 1.374 . S
C1056 C1053 1.499 . S
C1056 C1057 1.373 . S
C1056 C1058 1.389 . S
C1057 H1036 0.950 . S
C1057 C1056 1.373 . S
C1057 C1073 1.377 . S
C1058 C1056 1.389 . S
C1058 C1059 1.524 . S
C1058 C1072 1.377 . S
C1059 C1058 1.524 . S
C1059 C1060 1.397 . S
C1059 C1064 1.363 . S
C1060 H1037 0.950 . S
C1060 C1059 1.397 . S
C1060 C1061 1.334 . S
C1061 H1038 0.950 . S
C1061 C1060 1.334 . S
C1061 C1062 1.287 . S
C1062 C1061 1.287 . S
C1062 C1063 1.524 . S
C1062 H1081 0.913 . S
C1063 H1039 0.950 . S
C1063 C1062 1.524 . S
C1063 C1064 1.415 . S
C1064 H1040 0.950 . S
C1064 C1059 1.363 . S
C1064 C1063 1.415 . S
C1065 H1041 0.951 . S
C1065 C1066 1.366 . S
C1065 C1067 1.388 . S
C1066 C1065 1.366 . S
C1066 C1070 1.385 . S
C1067 H1042 0.951 . S
C1067 C1065 1.388 . S
C1067 C1068 1.366 . S
C1068 C1067 1.366 . S
C1068 C1069 1.414 . S
C1068 C1071 1.499 . S
C1069 H1043 0.950 . S
C1069 C1068 1.414 . S
C1069 C1070 1.374 . S
C1070 H1044 0.950 . S
C1070 C1066 1.385 . S
C1070 C1069 1.374 . S
C1071 C1068 1.499 . S
C1071 C1072 1.373 . S
C1071 C1073 1.389 . S
C1072 H1045 0.950 . S
C1072 C1058 1.377 . S
C1072 C1071 1.373 . S
C1073 C1057 1.377 . S
C1073 C1071 1.389 . S
C1073 C1074 1.524 . S
C1074 C1073 1.524 . S
C1074 C1075 1.397 . S
C1074 C1079 1.363 . S
C1075 H1046 0.950 . S
C1075 C1074 1.397 . S
C1075 C1076 1.334 . S
C1076 H1047 0.950 . S
C1076 C1075 1.334 . S
C1076 C1077 1.287 . S
C1077 C1076 1.287 . S
C1077 C1078 1.524 . S
C1077 H1080 0.999 . S
C1078 H1048 0.950 . S
C1078 C1077 1.524 . S
C1078 C1079 1.415 . S
C1079 H1049 0.950 . S
C1079 C1074 1.363 . S
C1079 C1078 1.415 . S
H1080 C1077 0.999 . S
H1081 C1062 0.913 . S
H1082 C1100 0.951 . S
H1083 C1102 0.951 . S
H1084 C1104 0.950 . S
H1085 C1105 0.950 . S
H1086 C1107 0.950 . S
H1087 C1110 0.950 . S
H1088 C1111 0.950 . S
H1089 C1113 0.950 . S
H1090 C1114 0.950 . S
H1091 C1115 0.951 . S
H1092 C1117 0.951 . S
H1093 C1119 0.950 . S
H1094 C1120 0.950 . S
H1095 C1122 0.950 . S
H1096 C1125 0.950 . S
H1097 C1126 0.950 . S
H1098 C1128 0.950 . S
H1099 C1129 0.950 . S
C1100 H1082 0.951 . S
C1100 C1101 1.366 . S
C1100 C1102 1.388 . S
C1101 C1100 1.366 . S
C1101 C1105 1.385 . S
C1102 H1083 0.951 . S
C1102 C1100 1.388 . S
C1102 C1103 1.366 . S
C1103 C1102 1.366 . S
C1103 C1104 1.414 . S
C1103 C1106 1.499 . S
C1104 H1084 0.950 . S
C1104 C1103 1.414 . S
C1104 C1105 1.374 . S
C1105 H1085 0.950 . S
C1105 C1101 1.385 . S
C1105 C1104 1.374 . S
C1106 C1103 1.499 . S
C1106 C1107 1.373 . S
C1106 C1108 1.389 . S
C1107 H1086 0.950 . S
C1107 C1106 1.373 . S
C1107 C1123 1.377 . S
C1108 C1106 1.389 . S
C1108 C1109 1.524 . S
C1108 C1122 1.377 . S
C1109 C1108 1.524 . S
C1109 C1110 1.397 . S
C1109 C1114 1.363 . S
C1110 H1087 0.950 . S
C1110 C1109 1.397 . S
C1110 C1111 1.334 . S
C1111 H1088 0.950 . S
C1111 C1110 1.334 . S
C1111 C1112 1.287 . S
C1112 C1111 1.287 . S
C1112 C1113 1.524 . S
C1112 H1131 0.913 . S
C1113 H1089 0.950 . S
C1113 C1112 1.524 . S
C1113 C1114 1.415 . S
C1114 H1090 0.950 . S
C1114 C1109 1.363 . S
C1114 C1113 1.415 . S
C1115 H1091 0.951 . S
C1115 C1116 1.366 . S
C1115 C1117 1.388 . S
C1116 C1115 1.366 . S
C1116 C1120 1.385 . S
C1117 H1092 0.951 . S
C1117 C1115 1.388 . S
C1117 C1118 1.366 . S
C1118 C1117 1.366 . S
C1118 C1119 1.414 . S
C1118 C1121 1.499 . S
C1119 H1093 0.950 . S
C1119 C1118 1.414 . S
C1119 C1120 1.374 . S
C1120 H1094 0.950 . S
C1120 C1116 1.385 . S
C1120 C1119 1.374 . S
C1121 C1118 1.499 . S
C1121 C1122 1.373 . S
C1121 C1123 1.389 . S
C1122 H1095 0.950 . S
C1122 C1108 1.377 . S
C1122 C1121 1.373 . S
C1123 C1107 1.377 . S
C1123 C1121 1.389 . S
C1123 C1124 1.524 . S
C1124 C1123 1.524 . S
C1124 C1125 1.397 . S
C1124 C1129 1.363 . S
C1125 H1096 0.950 . S
C1125 C1124 1.397 . S
C1125 C1126 1.334 . S
C1126 H1097 0.950 . S
C1126 C1125 1.334 . S
C1126 C1127 1.287 . S
C1127 C1126 1.287 . S
C1127 C1128 1.524 . S
C1127 H1130 0.999 . S
C1128 H1098 0.950 . S
C1128 C1127 1.524 . S
C1128 C1129 1.415 . S
C1129 H1099 0.950 . S
C1129 C1124 1.363 . S
C1129 C1128 1.415 . S
H1130 C1127 0.999 . S
H1131 C1112 0.913 . S
H1132 C1150 0.951 . S
H1133 C1152 0.951 1_556 S
H1134 C1154 0.950 . S
H1135 C1155 0.950 . S
H1136 C1157 0.950 . S
H1137 C1160 0.950 . S
H1138 C1161 0.950 . S
H1139 C1163 0.950 . S
H1140 C1164 0.950 . S
H1141 C1165 0.951 . S
H1142 C1167 0.951 1_554 S
H1143 C1169 0.950 . S
H1144 C1170 0.950 . S
H1145 C1172 0.950 . S
H1146 C1175 0.950 . S
H1147 C1176 0.950 . S
H1148 C1178 0.950 . S
H1149 C1179 0.950 . S
C1150 H1132 0.951 . S
C1150 C1151 1.366 . S
C1150 C1152 1.388 . S
C1151 C1150 1.366 . S
C1151 C1155 1.385 . S
C1152 H1133 0.951 1_554 S
C1152 C1150 1.388 . S
C1152 C1153 1.366 . S
C1153 C1152 1.366 . S
C1153 C1154 1.414 . S
C1153 C1156 1.499 . S
C1154 H1134 0.950 . S
C1154 C1153 1.414 . S
C1154 C1155 1.374 . S
C1155 H1135 0.950 . S
C1155 C1151 1.385 . S
C1155 C1154 1.374 . S
C1156 C1153 1.499 . S
C1156 C1157 1.373 . S
C1156 C1158 1.389 1_554 S
C1157 H1136 0.950 . S
C1157 C1156 1.373 . S
C1157 C1173 1.377 . S
C1158 C1156 1.389 1_556 S
C1158 C1159 1.524 . S
C1158 C1172 1.377 . S
C1159 C1158 1.524 . S
C1159 C1160 1.397 . S
C1159 C1164 1.363 . S
C1160 H1137 0.950 . S
C1160 C1159 1.397 . S
C1160 C1161 1.334 . S
C1161 H1138 0.950 . S
C1161 C1160 1.334 . S
C1161 C1162 1.287 . S
C1162 C1161 1.287 . S
C1162 C1163 1.524 . S
C1162 H1181 0.913 . S
C1163 H1139 0.950 . S
C1163 C1162 1.524 . S
C1163 C1164 1.415 . S
C1164 H1140 0.950 . S
C1164 C1159 1.363 . S
C1164 C1163 1.415 . S
C1165 H1141 0.951 . S
C1165 C1166 1.366 . S
C1165 C1167 1.388 . S
C1166 C1165 1.366 . S
C1166 C1170 1.385 . S
C1167 H1142 0.951 1_556 S
C1167 C1165 1.388 . S
C1167 C1168 1.366 . S
C1168 C1167 1.366 . S
C1168 C1169 1.414 . S
C1168 C1171 1.499 . S
C1169 H1143 0.950 . S
C1169 C1168 1.414 . S
C1169 C1170 1.374 . S
C1170 H1144 0.950 . S
C1170 C1166 1.385 . S
C1170 C1169 1.374 . S
C1171 C1168 1.499 . S
C1171 C1172 1.373 . S
C1171 C1173 1.389 1_556 S
C1172 H1145 0.950 . S
C1172 C1158 1.377 . S
C1172 C1171 1.373 . S
C1173 C1157 1.377 . S
C1173 C1171 1.389 1_554 S
C1173 C1174 1.524 . S
C1174 C1173 1.524 . S
C1174 C1175 1.397 . S
C1174 C1179 1.363 . S
C1175 H1146 0.950 . S
C1175 C1174 1.397 . S
C1175 C1176 1.334 . S
C1176 H1147 0.950 . S
C1176 C1175 1.334 . S
C1176 C1177 1.287 . S
C1177 C1176 1.287 . S
C1177 C1178 1.524 . S
C1177 H1180 0.999 . S
C1178 H1148 0.950 . S
C1178 C1177 1.524 . S
C1178 C1179 1.415 . S
C1179 H1149 0.950 . S
C1179 C1174 1.363 . S
C1179 C1178 1.415 . S
H1180 C1177 0.999 . S
H1181 C1162 0.913 . S
H1182 C1200 0.951 . S
H1183 C1202 0.951 . S
H1184 C1204 0.950 . S
H1185 C1205 0.950 . S
H1186 C1207 0.950 . S
H1187 C1210 0.950 . S
H1188 C1211 0.950 . S
H1189 C1213 0.950 . S
H1190 C1214 0.950 . S
H1191 C1215 0.951 . S
H1192 C1217 0.951 . S
H1193 C1219 0.950 . S
H1194 C1220 0.950 . S
H1195 C1222 0.950 . S
H1196 C1225 0.950 . S
H1197 C1226 0.950 . S
H1198 C1228 0.950 . S
H1199 C1229 0.950 . S
C1200 H1182 0.951 . S
C1200 C1201 1.366 . S
C1200 C1202 1.388 . S
C1201 C1200 1.366 . S
C1201 C1205 1.385 . S
C1202 H1183 0.951 . S
C1202 C1200 1.388 . S
C1202 C1203 1.366 . S
C1203 C1202 1.366 . S
C1203 C1204 1.414 . S
C1203 C1206 1.499 . S
C1204 H1184 0.950 . S
C1204 C1203 1.414 . S
C1204 C1205 1.374 . S
C1205 H1185 0.950 . S
C1205 C1201 1.385 . S
C1205 C1204 1.374 . S
C1206 C1203 1.499 . S
C1206 C1207 1.373 . S
C1206 C1208 1.389 . S
C1207 H1186 0.950 . S
C1207 C1206 1.373 . S
C1207 C1223 1.377 . S
C1208 C1206 1.389 . S
C1208 C1209 1.524 . S
C1208 C1222 1.377 . S
C1209 C1208 1.524 . S
C1209 C1210 1.397 . S
C1209 C1214 1.363 . S
C1210 H1187 0.950 . S
C1210 C1209 1.397 . S
C1210 C1211 1.334 . S
C1211 H1188 0.950 . S
C1211 C1210 1.334 . S
C1211 C1212 1.287 . S
C1212 C1211 1.287 . S
C1212 C1213 1.524 . S
C1212 H1231 0.913 . S
C1213 H1189 0.950 . S
C1213 C1212 1.524 . S
C1213 C1214 1.415 . S
C1214 H1190 0.950 . S
C1214 C1209 1.363 . S
C1214 C1213 1.415 . S
C1215 H1191 0.951 . S
C1215 C1216 1.366 . S
C1215 C1217 1.388 . S
C1216 C1215 1.366 . S
C1216 C1220 1.385 . S
C1217 H1192 0.951 . S
C1217 C1215 1.388 . S
C1217 C1218 1.366 . S
C1218 C1217 1.366 . S
C1218 C1219 1.414 . S
C1218 C1221 1.499 . S
C1219 H1193 0.950 . S
C1219 C1218 1.414 . S
C1219 C1220 1.374 . S
C1220 H1194 0.950 . S
C1220 C1216 1.385 . S
C1220 C1219 1.374 . S
C1221 C1218 1.499 . S
C1221 C1222 1.373 . S
C1221 C1223 1.389 . S
C1222 H1195 0.950 . S
C1222 C1208 1.377 . S
C1222 C1221 1.373 . S
C1223 C1207 1.377 . S
C1223 C1221 1.389 . S
C1223 C1224 1.524 . S
C1224 C1223 1.524 . S
C1224 C1225 1.397 . S
C1224 C1229 1.363 . S
C1225 H1196 0.950 . S
C1225 C1224 1.397 . S
C1225 C1226 1.334 . S
C1226 H1197 0.950 . S
C1226 C1225 1.334 . S
C1226 C1227 1.287 . S
C1227 C1226 1.287 . S
C1227 C1228 1.524 . S
C1227 H1230 0.999 . S
C1228 H1198 0.950 . S
C1228 C1227 1.524 . S
C1228 C1229 1.415 . S
C1229 H1199 0.950 . S
C1229 C1224 1.363 . S
C1229 C1228 1.415 . S
H1230 C1227 0.999 . S
H1231 C1212 0.913 . S
H1232 C1250 0.951 . S
H1233 C1252 0.951 . S
H1234 C1254 0.950 . S
H1235 C1255 0.950 . S
H1236 C1257 0.950 . S
H1237 C1260 0.950 . S
H1238 C1261 0.950 . S
H1239 C1263 0.950 . S
H1240 C1264 0.950 . S
H1241 C1265 0.951 . S
H1242 C1267 0.951 . S
H1243 C1269 0.950 . S
H1244 C1270 0.950 . S
H1245 C1272 0.950 . S
H1246 C1275 0.950 . S
H1247 C1276 0.950 . S
H1248 C1278 0.950 . S
H1249 C1279 0.950 . S
C1250 H1232 0.951 . S
C1250 C1251 1.366 . S
C1250 C1252 1.388 . S
C1251 C1250 1.366 . S
C1251 C1255 1.385 . S
C1252 H1233 0.951 . S
C1252 C1250 1.388 . S
C1252 C1253 1.366 . S
C1253 C1252 1.366 . S
C1253 C1254 1.414 . S
C1253 C1256 1.499 . S
C1254 H1234 0.950 . S
C1254 C1253 1.414 . S
C1254 C1255 1.374 . S
C1255 H1235 0.950 . S
C1255 C1251 1.385 . S
C1255 C1254 1.374 . S
C1256 C1253 1.499 . S
C1256 C1257 1.373 . S
C1256 C1258 1.389 . S
C1257 H1236 0.950 . S
C1257 C1256 1.373 . S
C1257 C1273 1.377 . S
C1258 C1256 1.389 . S
C1258 C1259 1.524 . S
C1258 C1272 1.377 . S
C1259 C1258 1.524 . S
C1259 C1260 1.397 . S
C1259 C1264 1.363 . S
C1260 H1237 0.950 . S
C1260 C1259 1.397 . S
C1260 C1261 1.334 . S
C1261 H1238 0.950 . S
C1261 C1260 1.334 . S
C1261 C1262 1.287 . S
C1262 C1261 1.287 . S
C1262 C1263 1.524 . S
C1262 H1281 0.913 . S
C1263 H1239 0.950 . S
C1263 C1262 1.524 . S
C1263 C1264 1.415 . S
C1264 H1240 0.950 . S
C1264 C1259 1.363 . S
C1264 C1263 1.415 . S
C1265 H1241 0.951 . S
C1265 C1266 1.366 . S
C1265 C1267 1.388 . S
C1266 C1265 1.366 . S
C1266 C1270 1.385 . S
C1267 H1242 0.951 . S
C1267 C1265 1.388 . S
C1267 C1268 1.366 . S
C1268 C1267 1.366 . S
C1268 C1269 1.414 . S
C1268 C1271 1.499 . S
C1269 H1243 0.950 . S
C1269 C1268 1.414 . S
C1269 C1270 1.374 . S
C1270 H1244 0.950 . S
C1270 C1266 1.385 . S
C1270 C1269 1.374 . S
C1271 C1268 1.499 . S
C1271 C1272 1.373 . S
C1271 C1273 1.389 . S
C1272 H1245 0.950 . S
C1272 C1258 1.377 . S
C1272 C1271 1.373 . S
C1273 C1257 1.377 . S
C1273 C1271 1.389 . S
C1273 C1274 1.524 . S
C1274 C1273 1.524 . S
C1274 C1275 1.397 . S
C1274 C1279 1.363 . S
C1275 H1246 0.950 . S
C1275 C1274 1.397 . S
C1275 C1276 1.334 . S
C1276 H1247 0.950 . S
C1276 C1275 1.334 . S
C1276 C1277 1.287 . S
C1277 C1276 1.287 . S
C1277 C1278 1.524 . S
C1277 H1280 0.999 . S
C1278 H1248 0.950 . S
C1278 C1277 1.524 . S
C1278 C1279 1.415 . S
C1279 H1249 0.950 . S
C1279 C1274 1.363 . S
C1279 C1278 1.415 . S
H1280 C1277 0.999 . S
H1281 C1262 0.913 . S
H1282 C1300 0.951 1_556 S
H1283 C1302 0.951 . S
H1284 C1304 0.950 . S
H1285 C1305 0.950 . S
H1286 C1307 0.950 . S
H1287 C1310 0.950 . S
H1288 C1311 0.950 . S
H1289 C1313 0.950 . S
H1290 C1314 0.950 . S
H1291 C1315 0.951 1_554 S
H1292 C1317 0.951 . S
H1293 C1319 0.950 . S
H1294 C1320 0.950 . S
H1295 C1322 0.950 . S
H1296 C1325 0.950 . S
H1297 C1326 0.950 . S
H1298 C1328 0.950 . S
H1299 C1329 0.950 . S
C1300 H1282 0.951 1_554 S
C1300 C1301 1.366 . S
C1300 C1302 1.388 1_554 S
C1301 C1300 1.366 . S
C1301 C1305 1.385 . S
C1302 H1283 0.951 . S
C1302 C1300 1.388 1_556 S
C1302 C1303 1.366 1_556 S
C1303 C1302 1.366 1_554 S
C1303 C1304 1.414 . S
C1303 C1306 1.499 . S
C1304 H1284 0.950 . S
C1304 C1303 1.414 . S
C1304 C1305 1.374 . S
C1305 H1285 0.950 . S
C1305 C1301 1.385 . S
C1305 C1304 1.374 . S
C1306 C1303 1.499 . S
C1306 C1307 1.373 . S
C1306 C1308 1.389 1_554 S
C1307 H1286 0.950 . S
C1307 C1306 1.373 . S
C1307 C1323 1.377 . S
C1308 C1306 1.389 1_556 S
C1308 C1309 1.524 . S
C1308 C1322 1.377 . S
C1309 C1308 1.524 . S
C1309 C1310 1.397 . S
C1309 C1314 1.363 . S
C1310 H1287 0.950 . S
C1310 C1309 1.397 . S
C1310 C1311 1.334 . S
C1311 H1288 0.950 . S
C1311 C1310 1.334 . S
C1311 C1312 1.287 . S
C1312 C1311 1.287 . S
C1312 C1313 1.524 . S
C1312 H1331 0.913 . S
C1313 H1289 0.950 . S
C1313 C1312 1.524 . S
C1313 C1314 1.415 . S
C1314 H1290 0.950 . S
C1314 C1309 1.363 . S
C1314 C1313 1.415 . S
C1315 H1291 0.951 1_556 S
C1315 C1316 1.366 . S
C1315 C1317 1.388 1_556 S
C1316 C1315 1.366 . S
C1316 C1320 1.385 . S
C1317 H1292 0.951 . S
C1317 C1315 1.388 1_554 S
C1317 C1318 1.366 1_554 S
C1318 C1317 1.366 1_556 S
C1318 C1319 1.414 . S
C1318 C1321 1.499 . S
C1319 H1293 0.950 . S
C1319 C1318 1.414 . S
C1319 C1320 1.374 . S
C1320 H1294 0.950 . S
C1320 C1316 1.385 . S
C1320 C1319 1.374 . S
C1321 C1318 1.499 . S
C1321 C1322 1.373 . S
C1321 C1323 1.389 1_556 S
C1322 H1295 0.950 . S
C1322 C1308 1.377 . S
C1322 C1321 1.373 . S
C1323 C1307 1.377 . S
C1323 C1321 1.389 1_554 S
C1323 C1324 1.524 . S
C1324 C1323 1.524 . S
C1324 C1325 1.397 . S
C1324 C1329 1.363 . S
C1325 H1296 0.950 . S
C1325 C1324 1.397 . S
C1325 C1326 1.334 . S
C1326 H1297 0.950 . S
C1326 C1325 1.334 . S
C1326 C1327 1.287 . S
C1327 C1326 1.287 . S
C1327 C1328 1.524 . S
C1327 H1330 0.999 . S
C1328 H1298 0.950 . S
C1328 C1327 1.524 . S
C1328 C1329 1.415 . S
C1329 H1299 0.950 . S
C1329 C1324 1.363 . S
C1329 C1328 1.415 . S
H1330 C1327 0.999 . S
H1331 C1312 0.913 . S
H1332 C1350 0.951 1_565 S
H1333 C1352 0.951 . S
H1334 C1354 0.950 . S
H1335 C1355 0.950 . S
H1336 C1357 0.948 . S
H1337 C1360 0.950 . S
H1338 C1361 0.950 . S
H1339 C1363 0.950 . S
H1340 C1364 0.950 1_565 S
H1341 C1365 0.951 1_545 S
H1342 C1367 0.951 . S
H1343 C1369 0.950 . S
H1344 C1370 0.950 . S
H1345 C1372 0.948 . S
H1346 C1375 0.950 . S
H1347 C1376 0.950 . S
H1348 C1378 0.950 . S
H1349 C1379 0.950 1_545 S
C1350 H1332 0.951 1_545 S
C1350 C1351 1.366 . S
C1350 C1352 1.388 1_545 S
C1351 C1350 1.366 . S
C1351 C1355 1.385 . S
C1352 H1333 0.951 . S
C1352 C1350 1.388 1_565 S
C1352 C1353 1.366 1_565 S
C1353 C1352 1.366 1_545 S
C1353 C1354 1.414 . S
C1353 C1356 1.499 . S
C1354 H1334 0.950 . S
C1354 C1353 1.414 . S
C1354 C1355 1.374 . S
C1355 H1335 0.950 . S
C1355 C1351 1.385 . S
C1355 C1354 1.374 . S
C1356 C1353 1.499 . S
C1356 C1357 1.370 1_545 S
C1356 C1358 1.389 . S
C1357 H1336 0.948 . S
C1357 C1356 1.370 1_565 S
C1357 C1373 1.378 . S
C1358 C1356 1.389 . S
C1358 C1359 1.524 . S
C1358 C1372 1.378 . S
C1359 C1358 1.524 . S
C1359 C1360 1.397 . S
C1359 C1364 1.363 . S
C1360 H1337 0.950 . S
C1360 C1359 1.397 . S
C1360 C1361 1.334 . S
C1361 H1338 0.950 . S
C1361 C1360 1.334 . S
C1361 C1362 1.287 . S
C1362 C1361 1.287 . S
C1362 C1363 1.524 . S
C1362 H1381 0.913 . S
C1363 H1339 0.950 . S
C1363 C1362 1.524 . S
C1363 C1364 1.415 . S
C1364 H1340 0.950 1_545 S
C1364 C1359 1.363 . S
C1364 C1363 1.415 . S
C1365 H1341 0.951 1_565 S
C1365 C1366 1.366 . S
C1365 C1367 1.388 1_565 S
C1366 C1365 1.366 . S
C1366 C1370 1.385 . S
C1367 H1342 0.951 . S
C1367 C1365 1.388 1_545 S
C1367 C1368 1.366 1_545 S
C1368 C1367 1.366 1_565 S
C1368 C1369 1.414 . S
C1368 C1371 1.499 . S
C1369 H1343 0.950 . S
C1369 C1368 1.414 . S
C1369 C1370 1.374 . S
C1370 H1344 0.950 . S
C1370 C1366 1.385 . S
C1370 C1369 1.374 . S
C1371 C1368 1.499 . S
C1371 C1372 1.370 1_565 S
C1371 C1373 1.389 . S
C1372 H1345 0.948 . S
C1372 C1358 1.378 . S
C1372 C1371 1.370 1_545 S
C1373 C1357 1.378 . S
C1373 C1371 1.389 . S
C1373 C1374 1.524 . S
C1374 C1373 1.524 . S
C1374 C1375 1.397 . S
C1374 C1379 1.363 . S
C1375 H1346 0.950 . S
C1375 C1374 1.397 . S
C1375 C1376 1.334 . S
C1376 H1347 0.950 . S
C1376 C1375 1.334 . S
C1376 C1377 1.287 . S
C1377 C1376 1.287 . S
C1377 C1378 1.524 . S
C1377 H1380 0.999 . S
C1378 H1348 0.950 . S
C1378 C1377 1.524 . S
C1378 C1379 1.415 . S
C1379 H1349 0.950 1_565 S
C1379 C1374 1.363 . S
C1379 C1378 1.415 . S
H1380 C1377 0.999 . S
H1381 C1362 0.913 . S
H1382 C1400 0.951 . S
H1383 C1402 0.951 . S
H1384 C1404 0.950 . S
H1385 C1405 0.950 . S
H1386 C1407 0.950 . S
H1387 C1410 0.950 . S
H1388 C1411 0.950 . S
H1389 C1413 0.950 . S
H1390 C1414 0.950 . S
H1391 C1415 0.951 . S
H1392 C1417 0.951 . S
H1393 C1419 0.950 . S
H1394 C1420 0.950 . S
H1395 C1422 0.950 . S
H1396 C1425 0.950 . S
H1397 C1426 0.950 . S
H1398 C1428 0.950 . S
H1399 C1429 0.950 . S
C1400 H1382 0.951 . S
C1400 C1401 1.366 . S
C1400 C1402 1.388 . S
C1401 C1400 1.366 . S
C1401 C1405 1.385 . S
C1402 H1383 0.951 . S
C1402 C1400 1.388 . S
C1402 C1403 1.366 . S
C1403 C1402 1.366 . S
C1403 C1404 1.414 . S
C1403 C1406 1.499 . S
C1404 H1384 0.950 . S
C1404 C1403 1.414 . S
C1404 C1405 1.374 . S
C1405 H1385 0.950 . S
C1405 C1401 1.385 . S
C1405 C1404 1.374 . S
C1406 C1403 1.499 . S
C1406 C1407 1.373 . S
C1406 C1408 1.389 . S
C1407 H1386 0.950 . S
C1407 C1406 1.373 . S
C1407 C1423 1.377 . S
C1408 C1406 1.389 . S
C1408 C1409 1.524 . S
C1408 C1422 1.377 . S
C1409 C1408 1.524 . S
C1409 C1410 1.397 . S
C1409 C1414 1.363 . S
C1410 H1387 0.950 . S
C1410 C1409 1.397 . S
C1410 C1411 1.334 . S
C1411 H1388 0.950 . S
C1411 C1410 1.334 . S
C1411 C1412 1.287 . S
C1412 C1411 1.287 . S
C1412 C1413 1.524 . S
C1412 H1431 0.913 . S
C1413 H1389 0.950 . S
C1413 C1412 1.524 . S
C1413 C1414 1.415 . S
C1414 H1390 0.950 . S
C1414 C1409 1.363 . S
C1414 C1413 1.415 . S
C1415 H1391 0.951 . S
C1415 C1416 1.366 . S
C1415 C1417 1.388 . S
C1416 C1415 1.366 . S
C1416 C1420 1.385 . S
C1417 H1392 0.951 . S
C1417 C1415 1.388 . S
C1417 C1418 1.366 . S
C1418 C1417 1.366 . S
C1418 C1419 1.414 . S
C1418 C1421 1.499 . S
C1419 H1393 0.950 . S
C1419 C1418 1.414 . S
C1419 C1420 1.374 . S
C1420 H1394 0.950 . S
C1420 C1416 1.385 . S
C1420 C1419 1.374 . S
C1421 C1418 1.499 . S
C1421 C1422 1.373 . S
C1421 C1423 1.389 . S
C1422 H1395 0.950 . S
C1422 C1408 1.377 . S
C1422 C1421 1.373 . S
C1423 C1407 1.377 . S
C1423 C1421 1.389 . S
C1423 C1424 1.524 . S
C1424 C1423 1.524 . S
C1424 C1425 1.397 . S
C1424 C1429 1.363 . S
C1425 H1396 0.950 . S
C1425 C1424 1.397 . S
C1425 C1426 1.334 . S
C1426 H1397 0.950 . S
C1426 C1425 1.334 . S
C1426 C1427 1.287 . S
C1427 C1426 1.287 . S
C1427 C1428 1.524 . S
C1427 H1430 0.999 . S
C1428 H1398 0.950 . S
C1428 C1427 1.524 . S
C1428 C1429 1.415 . S
C1429 H1399 0.950 . S
C1429 C1424 1.363 . S
C1429 C1428 1.415 . S
H1430 C1427 0.999 . S
H1431 C1412 0.913 . S
H1432 C1450 0.951 . S
H1433 C1452 0.951 . S
H1434 C1454 0.950 . S
H1435 C1455 0.950 . S
H1436 C1457 0.950 . S
H1437 C1460 0.950 . S
H1438 C1461 0.950 . S
H1439 C1463 0.950 . S
H1440 C1464 0.950 . S
H1441 C1465 0.951 . S
H1442 C1467 0.951 . S
H1443 C1469 0.950 . S
H1444 C1470 0.950 . S
H1445 C1472 0.950 . S
H1446 C1475 0.950 . S
H1447 C1476 0.950 . S
H1448 C1478 0.950 . S
H1449 C1479 0.950 . S
C1450 H1432 0.951 . S
C1450 C1451 1.366 . S
C1450 C1452 1.388 . S
C1451 C1450 1.366 . S
C1451 C1455 1.385 . S
C1452 H1433 0.951 . S
C1452 C1450 1.388 . S
C1452 C1453 1.366 . S
C1453 C1452 1.366 . S
C1453 C1454 1.414 . S
C1453 C1456 1.499 . S
C1454 H1434 0.950 . S
C1454 C1453 1.414 . S
C1454 C1455 1.374 . S
C1455 H1435 0.950 . S
C1455 C1451 1.385 . S
C1455 C1454 1.374 . S
C1456 C1453 1.499 . S
C1456 C1457 1.373 1_455 S
C1456 C1458 1.389 . S
C1457 H1436 0.950 . S
C1457 C1456 1.373 1_655 S
C1457 C1473 1.377 . S
C1458 C1456 1.389 . S
C1458 C1459 1.524 . S
C1458 C1472 1.377 . S
C1459 C1458 1.524 . S
C1459 C1460 1.397 . S
C1459 C1464 1.363 . S
C1460 H1437 0.950 . S
C1460 C1459 1.397 . S
C1460 C1461 1.334 . S
C1461 H1438 0.950 . S
C1461 C1460 1.334 . S
C1461 C1462 1.287 . S
C1462 C1461 1.287 . S
C1462 C1463 1.524 . S
C1462 H1481 0.913 . S
C1463 H1439 0.950 . S
C1463 C1462 1.524 . S
C1463 C1464 1.415 . S
C1464 H1440 0.950 . S
C1464 C1459 1.363 . S
C1464 C1463 1.415 . S
C1465 H1441 0.951 . S
C1465 C1466 1.366 . S
C1465 C1467 1.388 . S
C1466 C1465 1.366 . S
C1466 C1470 1.385 . S
C1467 H1442 0.951 . S
C1467 C1465 1.388 . S
C1467 C1468 1.366 . S
C1468 C1467 1.366 . S
C1468 C1469 1.414 . S
C1468 C1471 1.499 . S
C1469 H1443 0.950 . S
C1469 C1468 1.414 . S
C1469 C1470 1.374 . S
C1470 H1444 0.950 . S
C1470 C1466 1.385 . S
C1470 C1469 1.374 . S
C1471 C1468 1.499 . S
C1471 C1472 1.373 1_655 S
C1471 C1473 1.389 . S
C1472 H1445 0.950 . S
C1472 C1458 1.377 . S
C1472 C1471 1.373 1_455 S
C1473 C1457 1.377 . S
C1473 C1471 1.389 . S
C1473 C1474 1.524 . S
C1474 C1473 1.524 . S
C1474 C1475 1.397 . S
C1474 C1479 1.363 . S
C1475 H1446 0.950 . S
C1475 C1474 1.397 . S
C1475 C1476 1.334 . S
C1476 H1447 0.950 . S
C1476 C1475 1.334 . S
C1476 C1477 1.287 . S
C1477 C1476 1.287 . S
C1477 C1478 1.524 . S
C1477 H1480 0.999 . S
C1478 H1448 0.950 . S
C1478 C1477 1.524 . S
C1478 C1479 1.415 . S
C1479 H1449 0.950 . S
C1479 C1474 1.363 . S
C1479 C1478 1.415 . S
H1480 C1477 0.999 . S
H1481 C1462 0.913 . S
H1482 C1500 0.951 . S
H1483 C1502 0.951 . S
H1484 C1504 0.950 . S
H1485 C1505 0.950 . S
H1486 C1507 0.950 . S
H1487 C1510 0.950 . S
H1488 C1511 0.967 . S
H1489 C1513 0.950 . S
H1490 C1514 0.950 . S
H1491 C1515 0.951 . S
H1492 C1517 0.951 . S
H1493 C1519 0.950 . S
H1494 C1520 0.950 . S
H1495 C1522 0.950 . S
H1496 C1525 0.950 . S
H1497 C1526 0.967 . S
H1498 C1528 0.950 . S
H1499 C1529 0.950 . S
C1500 H1482 0.951 . S
C1500 C1501 1.366 . S
C1500 C1502 1.388 . S
C1501 C1500 1.366 . S
C1501 C1505 1.385 1_565 S
C1502 H1483 0.951 . S
C1502 C1500 1.388 . S
C1502 C1503 1.366 . S
C1503 C1502 1.366 . S
C1503 C1504 1.414 1_565 S
C1503 C1506 1.499 . S
C1504 H1484 0.950 . S
C1504 C1503 1.414 1_545 S
C1504 C1505 1.374 . S
C1505 H1485 0.950 . S
C1505 C1501 1.385 1_545 S
C1505 C1504 1.374 . S
C1506 C1503 1.499 . S
C1506 C1507 1.373 1_565 S
C1506 C1508 1.389 . S
C1507 H1486 0.950 . S
C1507 C1506 1.373 1_545 S
C1507 C1523 1.377 . S
C1508 C1506 1.389 . S
C1508 C1509 1.524 . S
C1508 C1522 1.377 . S
C1509 C1508 1.524 . S
C1509 C1510 1.397 1_565 S
C1509 C1514 1.363 . S
C1510 H1487 0.950 . S
C1510 C1509 1.397 1_545 S
C1510 C1511 1.326 . S
C1511 H1488 0.967 . S
C1511 C1510 1.326 . S
C1511 C1512 1.278 1_545 S
C1512 C1511 1.278 1_565 S
C1512 C1513 1.524 . S
C1512 H1531 0.913 . S
C1513 H1489 0.950 . S
C1513 C1512 1.524 . S
C1513 C1514 1.415 . S
C1514 H1490 0.950 . S
C1514 C1509 1.363 . S
C1514 C1513 1.415 . S
C1515 H1491 0.951 . S
C1515 C1516 1.366 . S
C1515 C1517 1.388 . S
C1516 C1515 1.366 . S
C1516 C1520 1.385 1_545 S
C1517 H1492 0.951 . S
C1517 C1515 1.388 . S
C1517 C1518 1.366 . S
C1518 C1517 1.366 . S
C1518 C1519 1.414 1_545 S
C1518 C1521 1.499 . S
C1519 H1493 0.950 . S
C1519 C1518 1.414 1_565 S
C1519 C1520 1.374 . S
C1520 H1494 0.950 . S
C1520 C1516 1.385 1_565 S
C1520 C1519 1.374 . S
C1521 C1518 1.499 . S
C1521 C1522 1.373 1_545 S
C1521 C1523 1.389 . S
C1522 H1495 0.950 . S
C1522 C1508 1.377 . S
C1522 C1521 1.373 1_565 S
C1523 C1507 1.377 . S
C1523 C1521 1.389 . S
C1523 C1524 1.524 . S
C1524 C1523 1.524 . S
C1524 C1525 1.397 1_545 S
C1524 C1529 1.363 . S
C1525 H1496 0.950 . S
C1525 C1524 1.397 1_565 S
C1525 C1526 1.326 . S
C1526 H1497 0.967 . S
C1526 C1525 1.326 . S
C1526 C1527 1.278 1_565 S
C1527 C1526 1.278 1_545 S
C1527 C1528 1.524 . S
C1527 H1530 0.999 . S
C1528 H1498 0.950 . S
C1528 C1527 1.524 . S
C1528 C1529 1.415 . S
C1529 H1499 0.950 . S
C1529 C1524 1.363 . S
C1529 C1528 1.415 . S
H1530 C1527 0.999 . S
H1531 C1512 0.913 . S
H1532 C1550 0.951 . S
H1533 C1552 0.951 . S
H1534 C1554 0.950 . S
H1535 C1555 0.950 . S
H1536 C1557 0.950 . S
H1537 C1560 0.950 . S
H1538 C1561 0.950 . S
H1539 C1563 0.950 . S
H1540 C1564 0.950 . S
H1541 C1565 0.951 . S
H1542 C1567 0.951 . S
H1543 C1569 0.950 . S
H1544 C1570 0.950 . S
H1545 C1572 0.950 . S
H1546 C1575 0.950 . S
H1547 C1576 0.950 . S
H1548 C1578 0.950 . S
H1549 C1579 0.950 . S
C1550 H1532 0.951 . S
C1550 C1551 1.366 . S
C1550 C1552 1.388 . S
C1551 C1550 1.366 . S
C1551 C1555 1.385 . S
C1552 H1533 0.951 . S
C1552 C1550 1.388 . S
C1552 C1553 1.366 . S
C1553 C1552 1.366 . S
C1553 C1554 1.414 . S
C1553 C1556 1.499 . S
C1554 H1534 0.950 . S
C1554 C1553 1.414 . S
C1554 C1555 1.374 . S
C1555 H1535 0.950 . S
C1555 C1551 1.385 . S
C1555 C1554 1.374 . S
C1556 C1553 1.499 . S
C1556 C1557 1.373 . S
C1556 C1558 1.389 . S
C1557 H1536 0.950 . S
C1557 C1556 1.373 . S
C1557 C1573 1.377 . S
C1558 C1556 1.389 . S
C1558 C1559 1.524 . S
C1558 C1572 1.377 . S
C1559 C1558 1.524 . S
C1559 C1560 1.397 . S
C1559 C1564 1.363 . S
C1560 H1537 0.950 . S
C1560 C1559 1.397 . S
C1560 C1561 1.334 . S
C1561 H1538 0.950 . S
C1561 C1560 1.334 . S
C1561 C1562 1.287 . S
C1562 C1561 1.287 . S
C1562 C1563 1.524 . S
C1562 H1581 0.913 . S
C1563 H1539 0.950 . S
C1563 C1562 1.524 . S
C1563 C1564 1.415 . S
C1564 H1540 0.950 . S
C1564 C1559 1.363 . S
C1564 C1563 1.415 . S
C1565 H1541 0.951 . S
C1565 C1566 1.366 . S
C1565 C1567 1.388 . S
C1566 C1565 1.366 . S
C1566 C1570 1.385 . S
C1567 H1542 0.951 . S
C1567 C1565 1.388 . S
C1567 C1568 1.366 . S
C1568 C1567 1.366 . S
C1568 C1569 1.414 . S
C1568 C1571 1.499 . S
C1569 H1543 0.950 . S
C1569 C1568 1.414 . S
C1569 C1570 1.374 . S
C1570 H1544 0.950 . S
C1570 C1566 1.385 . S
C1570 C1569 1.374 . S
C1571 C1568 1.499 . S
C1571 C1572 1.373 . S
C1571 C1573 1.389 . S
C1572 H1545 0.950 . S
C1572 C1558 1.377 . S
C1572 C1571 1.373 . S
C1573 C1557 1.377 . S
C1573 C1571 1.389 . S
C1573 C1574 1.524 . S
C1574 C1573 1.524 . S
C1574 C1575 1.397 . S
C1574 C1579 1.363 . S
C1575 H1546 0.950 . S
C1575 C1574 1.397 . S
C1575 C1576 1.334 . S
C1576 H1547 0.950 . S
C1576 C1575 1.334 . S
C1576 C1577 1.287 . S
C1577 C1576 1.287 . S
C1577 C1578 1.524 . S
C1577 H1580 0.999 . S
C1578 H1548 0.950 . S
C1578 C1577 1.524 . S
C1578 C1579 1.415 . S
C1579 H1549 0.950 . S
C1579 C1574 1.363 . S
C1579 C1578 1.415 . S
H1580 C1577 0.999 . S
H1581 C1562 0.913 . S
H1582 C1600 0.951 . S
H1583 C1602 0.951 . S
H1584 C1604 0.950 1_455 S
H1585 C1605 0.950 . S
H1586 C1607 0.950 . S
H1587 C1610 0.950 . S
H1588 C1611 0.950 . S
H1589 C1613 0.950 . S
H1590 C1614 0.950 . S
H1591 C1615 0.951 . S
H1592 C1617 0.951 . S
H1593 C1619 0.950 1_655 S
H1594 C1620 0.950 . S
H1595 C1622 0.950 . S
H1596 C1625 0.950 . S
H1597 C1626 0.950 . S
H1598 C1628 0.950 . S
H1599 C1629 0.950 . S
C1600 H1582 0.951 . S
C1600 C1601 1.366 . S
C1600 C1602 1.388 . S
C1601 C1600 1.366 . S
C1601 C1605 1.385 . S
C1602 H1583 0.951 . S
C1602 C1600 1.388 . S
C1602 C1603 1.366 . S
C1603 C1602 1.366 . S
C1603 C1604 1.414 . S
C1603 C1606 1.499 . S
C1604 H1584 0.950 1_655 S
C1604 C1603 1.414 . S
C1604 C1605 1.374 . S
C1605 H1585 0.950 . S
C1605 C1601 1.385 . S
C1605 C1604 1.374 . S
C1606 C1603 1.499 . S
C1606 C1607 1.373 . S
C1606 C1608 1.389 1_655 S
C1607 H1586 0.950 . S
C1607 C1606 1.373 . S
C1607 C1623 1.377 . S
C1608 C1606 1.389 1_455 S
C1608 C1609 1.524 . S
C1608 C1622 1.377 . S
C1609 C1608 1.524 . S
C1609 C1610 1.397 . S
C1609 C1614 1.363 . S
C1610 H1587 0.950 . S
C1610 C1609 1.397 . S
C1610 C1611 1.334 . S
C1611 H1588 0.950 . S
C1611 C1610 1.334 . S
C1611 C1612 1.287 . S
C1612 C1611 1.287 . S
C1612 C1613 1.524 . S
C1612 H1631 0.913 . S
C1613 H1589 0.950 . S
C1613 C1612 1.524 . S
C1613 C1614 1.415 . S
C1614 H1590 0.950 . S
C1614 C1609 1.363 . S
C1614 C1613 1.415 . S
C1615 H1591 0.951 . S
C1615 C1616 1.366 . S
C1615 C1617 1.388 . S
C1616 C1615 1.366 . S
C1616 C1620 1.385 . S
C1617 H1592 0.951 . S
C1617 C1615 1.388 . S
C1617 C1618 1.366 . S
C1618 C1617 1.366 . S
C1618 C1619 1.414 . S
C1618 C1621 1.499 . S
C1619 H1593 0.950 1_455 S
C1619 C1618 1.414 . S
C1619 C1620 1.374 . S
C1620 H1594 0.950 . S
C1620 C1616 1.385 . S
C1620 C1619 1.374 . S
C1621 C1618 1.499 . S
C1621 C1622 1.373 . S
C1621 C1623 1.389 1_455 S
C1622 H1595 0.950 . S
C1622 C1608 1.377 . S
C1622 C1621 1.373 . S
C1623 C1607 1.377 . S
C1623 C1621 1.389 1_655 S
C1623 C1624 1.524 . S
C1624 C1623 1.524 . S
C1624 C1625 1.397 . S
C1624 C1629 1.363 . S
C1625 H1596 0.950 . S
C1625 C1624 1.397 . S
C1625 C1626 1.334 . S
C1626 H1597 0.950 . S
C1626 C1625 1.334 . S
C1626 C1627 1.287 . S
C1627 C1626 1.287 . S
C1627 C1628 1.524 . S
C1627 H1630 0.999 . S
C1628 H1598 0.950 . S
C1628 C1627 1.524 . S
C1628 C1629 1.415 . S
C1629 H1599 0.950 . S
C1629 C1624 1.363 . S
C1629 C1628 1.415 . S
H1630 C1627 0.999 . S
H1631 C1612 0.913 . S
C451 C4 1.838 . S
C466 C292 1.838 . S
C501 C40 1.837 . S
C516 C328 1.838 . S
C551 C364 1.837 . S
C566 C76 1.837 . S
C601 C400 1.837 . S
C616 C112 1.838 . S
C651 C220 1.838 . S
C666 C148 1.838 . S
C701 C256 1.837 . S
C716 C184 1.837 . S
C751 C14 1.508 . S
C766 C122 1.509 . S
C801 C158 1.509 . S
C816 C50 1.508 . S
C851 C194 1.509 . S
C866 C86 1.508 . S
C901 C230 1.508 . S
C916 C338 1.508 . S
C951 C374 1.508 . S
C966 C266 1.509 . S
C1001 C302 1.509 . S
C1016 C410 1.509 . S
C1051 C218 0.624 . S
C1066 C2 0.624 . S
C1101 C38 0.626 . S
C1116 C254 0.625 . S
C1151 C290 0.626 . S
C1166 C74 0.626 . S
C1201 C326 0.626 . S
C1216 C110 0.625 . S
C1251 C146 0.626 . S
C1266 C362 0.625 . S
C1301 C398 0.625 . S
C1316 C182 0.626 . S
C1351 C3 0.837 . S
C1366 C255 0.838 . S
C1401 C291 0.837 . S
C1416 C39 0.838 . S
C1451 C327 0.837 . S
C1466 C75 0.837 . S
C1501 C111 0.838 . S
C1516 C363 0.838 . S
C1551 C399 0.838 . S
C1566 C147 0.838 . S
C1601 C219 0.838 . S
C1616 C183 0.838 . S
