# Generated by pormake.
# Topology uka, (4)-cn, num edge types: 1
# Building blocks:
#     Node 0, Type 0, BuildingBlock: AZAVOO_clean_sbu_0, # of connection points: 4
#     Node 1, Type 0, BuildingBlock: AZAVOO_clean_sbu_0, # of connection points: 4
#     Node 2, Type 0, BuildingBlock: AZAVOO_clean_sbu_0, # of connection points: 4
#     Node 3, Type 0, BuildingBlock: AZAVOO_clean_sbu_0, # of connection points: 4
#     Node 4, Type 0, BuildingBlock: AZAVOO_clean_sbu_0, # of connection points: 4
#     Node 5, Type 0, BuildingBlock: AZAVOO_clean_sbu_0, # of connection points: 4
#     Node 6, Type 0, BuildingBlock: AZAVOO_clean_sbu_0, # of connection points: 4
#     Node 7, Type 0, BuildingBlock: AZAVOO_clean_sbu_0, # of connection points: 4
#     Node 8, Type 0, BuildingBlock: AZAVOO_clean_sbu_0, # of connection points: 4
#     Node 9, Type 0, BuildingBlock: AZAVOO_clean_sbu_0, # of connection points: 4
#     Node 10, Type 0, BuildingBlock: AZAVOO_clean_sbu_0, # of connection points: 4
#     Node 11, Type 0, BuildingBlock: AZAVOO_clean_sbu_0, # of connection points: 4
#     Node 12, Type 0, BuildingBlock: AZAVOO_clean_sbu_0, # of connection points: 4
#     Node 13, Type 0, BuildingBlock: AZAVOO_clean_sbu_0, # of connection points: 4
#     Node 14, Type 0, BuildingBlock: AZAVOO_clean_sbu_0, # of connection points: 4
#     Node 15, Type 0, BuildingBlock: AZAVOO_clean_sbu_0, # of connection points: 4
#     Node 16, Type 0, BuildingBlock: AZAVOO_clean_sbu_0, # of connection points: 4
#     Node 17, Type 0, BuildingBlock: AZAVOO_clean_sbu_0, # of connection points: 4
#     Node 18, Type 0, BuildingBlock: AZAVOO_clean_sbu_0, # of connection points: 4
#     Node 19, Type 0, BuildingBlock: AZAVOO_clean_sbu_0, # of connection points: 4
#     Node 20, Type 0, BuildingBlock: AZAVOO_clean_sbu_0, # of connection points: 4
#     Node 21, Type 0, BuildingBlock: AZAVOO_clean_sbu_0, # of connection points: 4
#     Node 22, Type 0, BuildingBlock: AZAVOO_clean_sbu_0, # of connection points: 4
#     Node 23, Type 0, BuildingBlock: AZAVOO_clean_sbu_0, # of connection points: 4
#     Node 24, Type 0, BuildingBlock: AZAVOO_clean_sbu_0, # of connection points: 4
#     Node 25, Type 0, BuildingBlock: AZAVOO_clean_sbu_0, # of connection points: 4
#     Node 26, Type 0, BuildingBlock: AZAVOO_clean_sbu_0, # of connection points: 4
#     Node 27, Type 0, BuildingBlock: AZAVOO_clean_sbu_0, # of connection points: 4
#     Node 28, Type 0, BuildingBlock: AZAVOO_clean_sbu_0, # of connection points: 4
#     Node 29, Type 0, BuildingBlock: AZAVOO_clean_sbu_0, # of connection points: 4
#     Node 30, Type 0, BuildingBlock: AZAVOO_clean_sbu_0, # of connection points: 4
#     Node 31, Type 0, BuildingBlock: AZAVOO_clean_sbu_0, # of connection points: 4
#     Edge 32, Type (0, 0), BuildingBlock: EZIPEK_clean_linker_0, # of connection points: 2
#     Edge 33, Type (0, 0), BuildingBlock: EZIPEK_clean_linker_0, # of connection points: 2
#     Edge 34, Type (0, 0), BuildingBlock: EZIPEK_clean_linker_0, # of connection points: 2
#     Edge 35, Type (0, 0), BuildingBlock: EZIPEK_clean_linker_0, # of connection points: 2
#     Edge 36, Type (0, 0), BuildingBlock: EZIPEK_clean_linker_0, # of connection points: 2
#     Edge 37, Type (0, 0), BuildingBlock: EZIPEK_clean_linker_0, # of connection points: 2
#     Edge 38, Type (0, 0), BuildingBlock: EZIPEK_clean_linker_0, # of connection points: 2
#     Edge 39, Type (0, 0), BuildingBlock: EZIPEK_clean_linker_0, # of connection points: 2
#     Edge 40, Type (0, 0), BuildingBlock: EZIPEK_clean_linker_0, # of connection points: 2
#     Edge 41, Type (0, 0), BuildingBlock: EZIPEK_clean_linker_0, # of connection points: 2
#     Edge 42, Type (0, 0), BuildingBlock: EZIPEK_clean_linker_0, # of connection points: 2
#     Edge 43, Type (0, 0), BuildingBlock: EZIPEK_clean_linker_0, # of connection points: 2
#     Edge 44, Type (0, 0), BuildingBlock: EZIPEK_clean_linker_0, # of connection points: 2
#     Edge 45, Type (0, 0), BuildingBlock: EZIPEK_clean_linker_0, # of connection points: 2
#     Edge 46, Type (0, 0), BuildingBlock: EZIPEK_clean_linker_0, # of connection points: 2
#     Edge 47, Type (0, 0), BuildingBlock: EZIPEK_clean_linker_0, # of connection points: 2
#     Edge 48, Type (0, 0), BuildingBlock: EZIPEK_clean_linker_0, # of connection points: 2
#     Edge 49, Type (0, 0), BuildingBlock: EZIPEK_clean_linker_0, # of connection points: 2
#     Edge 50, Type (0, 0), BuildingBlock: EZIPEK_clean_linker_0, # of connection points: 2
#     Edge 51, Type (0, 0), BuildingBlock: EZIPEK_clean_linker_0, # of connection points: 2
#     Edge 52, Type (0, 0), BuildingBlock: EZIPEK_clean_linker_0, # of connection points: 2
#     Edge 53, Type (0, 0), BuildingBlock: EZIPEK_clean_linker_0, # of connection points: 2
#     Edge 54, Type (0, 0), BuildingBlock: EZIPEK_clean_linker_0, # of connection points: 2
#     Edge 55, Type (0, 0), BuildingBlock: EZIPEK_clean_linker_0, # of connection points: 2
#     Edge 56, Type (0, 0), BuildingBlock: EZIPEK_clean_linker_0, # of connection points: 2
#     Edge 57, Type (0, 0), BuildingBlock: EZIPEK_clean_linker_0, # of connection points: 2
#     Edge 58, Type (0, 0), BuildingBlock: EZIPEK_clean_linker_0, # of connection points: 2
#     Edge 59, Type (0, 0), BuildingBlock: EZIPEK_clean_linker_0, # of connection points: 2
#     Edge 60, Type (0, 0), BuildingBlock: EZIPEK_clean_linker_0, # of connection points: 2
#     Edge 61, Type (0, 0), BuildingBlock: EZIPEK_clean_linker_0, # of connection points: 2
#     Edge 62, Type (0, 0), BuildingBlock: EZIPEK_clean_linker_0, # of connection points: 2
#     Edge 63, Type (0, 0), BuildingBlock: EZIPEK_clean_linker_0, # of connection points: 2
#     Edge 64, Type (0, 0), BuildingBlock: EZIPEK_clean_linker_0, # of connection points: 2
#     Edge 65, Type (0, 0), BuildingBlock: EZIPEK_clean_linker_0, # of connection points: 2
#     Edge 66, Type (0, 0), BuildingBlock: EZIPEK_clean_linker_0, # of connection points: 2
#     Edge 67, Type (0, 0), BuildingBlock: EZIPEK_clean_linker_0, # of connection points: 2
#     Edge 68, Type (0, 0), BuildingBlock: EZIPEK_clean_linker_0, # of connection points: 2
#     Edge 69, Type (0, 0), BuildingBlock: EZIPEK_clean_linker_0, # of connection points: 2
#     Edge 70, Type (0, 0), BuildingBlock: EZIPEK_clean_linker_0, # of connection points: 2
#     Edge 71, Type (0, 0), BuildingBlock: EZIPEK_clean_linker_0, # of connection points: 2
#     Edge 72, Type (0, 0), BuildingBlock: EZIPEK_clean_linker_0, # of connection points: 2
#     Edge 73, Type (0, 0), BuildingBlock: EZIPEK_clean_linker_0, # of connection points: 2
#     Edge 74, Type (0, 0), BuildingBlock: EZIPEK_clean_linker_0, # of connection points: 2
#     Edge 75, Type (0, 0), BuildingBlock: EZIPEK_clean_linker_0, # of connection points: 2
#     Edge 76, Type (0, 0), BuildingBlock: EZIPEK_clean_linker_0, # of connection points: 2
#     Edge 77, Type (0, 0), BuildingBlock: EZIPEK_clean_linker_0, # of connection points: 2
#     Edge 78, Type (0, 0), BuildingBlock: EZIPEK_clean_linker_0, # of connection points: 2
#     Edge 79, Type (0, 0), BuildingBlock: EZIPEK_clean_linker_0, # of connection points: 2
#     Edge 80, Type (0, 0), BuildingBlock: EZIPEK_clean_linker_0, # of connection points: 2
#     Edge 81, Type (0, 0), BuildingBlock: EZIPEK_clean_linker_0, # of connection points: 2
#     Edge 82, Type (0, 0), BuildingBlock: EZIPEK_clean_linker_0, # of connection points: 2
#     Edge 83, Type (0, 0), BuildingBlock: EZIPEK_clean_linker_0, # of connection points: 2
#     Edge 84, Type (0, 0), BuildingBlock: EZIPEK_clean_linker_0, # of connection points: 2
#     Edge 85, Type (0, 0), BuildingBlock: EZIPEK_clean_linker_0, # of connection points: 2
#     Edge 86, Type (0, 0), BuildingBlock: EZIPEK_clean_linker_0, # of connection points: 2
#     Edge 87, Type (0, 0), BuildingBlock: EZIPEK_clean_linker_0, # of connection points: 2
#     Edge 88, Type (0, 0), BuildingBlock: EZIPEK_clean_linker_0, # of connection points: 2
#     Edge 89, Type (0, 0), BuildingBlock: EZIPEK_clean_linker_0, # of connection points: 2
#     Edge 90, Type (0, 0), BuildingBlock: EZIPEK_clean_linker_0, # of connection points: 2
#     Edge 91, Type (0, 0), BuildingBlock: EZIPEK_clean_linker_0, # of connection points: 2
#     Edge 92, Type (0, 0), BuildingBlock: EZIPEK_clean_linker_0, # of connection points: 2
#     Edge 93, Type (0, 0), BuildingBlock: EZIPEK_clean_linker_0, # of connection points: 2
#     Edge 94, Type (0, 0), BuildingBlock: EZIPEK_clean_linker_0, # of connection points: 2
#     Edge 95, Type (0, 0), BuildingBlock: EZIPEK_clean_linker_0, # of connection points: 2
# Relax obj value: 0.265
# Max RMSD: 0.266
# Mean RMSD: 0.247
data_MOF--net-uka--node1-AZAVOO_clean_sbu_0--edge1-EZIPEK_clean_linker_0
_symmetry_space_group_name_H-M    P1
_symmetry_Int_Tables_number       1
_symmetry_cell_setting            triclinic
loop_
_symmetry_equiv_pos_as_xyz
'x, y, z'
_cell_length_a     44.414958
_cell_length_b     41.874258
_cell_length_c     30.962118
_cell_angle_alpha  90.061472
_cell_angle_beta   89.914963
_cell_angle_gamma 89.983269
loop_
_atom_site_label
_atom_site_type_symbol
_atom_site_fract_x
_atom_site_fract_y
_atom_site_fract_z
_atom_type_partial_charge
Mg0 Mg 0.11375 0.27412 0.25382 0.0
O1 O 0.10895 0.22124 0.27446 0.0
O2 O 0.05921 0.21236 0.27531 0.0
Mg3 Mg 0.03246 0.25675 0.25697 0.0
C4 C 0.08627 0.20313 0.28155 0.0
C5 C 0.17689 0.29689 0.24965 0.0
O6 O 0.16034 0.32151 0.26108 0.0
O7 O 0.10235 0.26356 0.18341 0.0
O8 O 0.0521 0.261 0.18896 0.0
O9 O 0.10985 0.29039 0.32274 0.0
O10 O 0.0717 0.28281 0.27874 0.0
C11 C 0.07615 0.26277 0.16649 0.0
C12 C 0.08103 0.28986 0.31666 0.0
O13 O 0.16414 0.2702 0.24275 0.0
Mg14 Mg 0.0083 0.84126 0.51655 0.0
O15 O 0.97071 0.8426 0.56698 0.0
O16 O 0.99008 0.86277 0.62785 0.0
Mg17 Mg 0.03936 0.87649 0.61558 0.0
C18 C 0.96829 0.85055 0.6066 0.0
C19 C 0.96724 0.80178 0.45276 0.0
O20 O 0.97755 0.77793 0.47589 0.0
O21 O 0.00338 0.89473 0.50643 0.0
O22 O 0.02532 0.9145 0.56593 0.0
O23 O 0.024 0.79362 0.54089 0.0
O24 O 0.04105 0.83989 0.56496 0.0
C25 C 0.01265 0.91815 0.52925 0.0
C26 C 0.04095 0.80927 0.56742 0.0
O27 O 0.97414 0.83027 0.46323 0.0
Mg28 Mg 0.37537 0.6928 0.75892 0.0
O29 O 0.39015 0.74258 0.7837 0.0
O30 O 0.43288 0.73449 0.8203 0.0
Mg31 Mg 0.44496 0.68118 0.81938 0.0
C32 C 0.41204 0.75288 0.80657 0.0
C33 C 0.31725 0.725 0.73721 0.0
O34 O 0.32181 0.73338 0.77751 0.0
O35 O 0.41161 0.6925 0.70632 0.0
O36 O 0.45256 0.68081 0.74546 0.0
O37 O 0.34959 0.68372 0.81967 0.0
O38 O 0.39721 0.67008 0.80996 0.0
C39 C 0.43956 0.68556 0.70919 0.0
C40 C 0.37409 0.67168 0.83498 0.0
O41 O 0.33915 0.71374 0.71556 0.0
Mg42 Mg 0.45551 0.15787 0.01608 0.0
O43 O 0.48763 0.14661 0.07203 0.0
O44 O 0.46005 0.12567 0.12561 0.0
Mg45 Mg 0.41055 0.12472 0.10353 0.0
C46 C 0.48522 0.13468 0.10983 0.0
C47 C 0.50354 0.19067 0.95844 0.0
O48 O 0.49446 0.21494 0.9818 0.0
O49 O 0.45122 0.10551 -0.00054 0.0
O50 O 0.42295 0.08636 0.05323 0.0
O51 O 0.45018 0.20615 0.0421 0.0
O52 O 0.41997 0.1665 0.06062 0.0
C53 C 0.43753 0.08264 0.01806 0.0
C54 C 0.42794 0.1961 0.06533 0.0
O55 O 0.49433 0.1628 0.96802 0.0
Mg56 Mg 0.1287 0.70193 0.24487 0.0
O57 O 0.11564 0.75294 0.22182 0.0
O58 O 0.06566 0.75146 0.21174 0.0
Mg59 Mg 0.04621 0.70289 0.22884 0.0
C60 C 0.09088 0.766 0.21004 0.0
C61 C 0.19688 0.70153 0.23677 0.0
O62 O 0.17913 0.71733 0.26304 0.0
O63 O 0.10994 0.71053 0.31364 0.0
O64 O 0.06061 0.70644 0.29917 0.0
O65 O 0.13167 0.68484 0.17549 0.0
O66 O 0.09073 0.68434 0.21547 0.0
C67 C 0.08235 0.70932 0.32575 0.0
C68 C 0.10307 0.67952 0.17869 0.0
O69 O 0.17856 0.71633 0.26151 0.0
Mg70 Mg 0.45436 0.87319 0.50299 0.0
O71 O 0.4873 0.86814 0.44591 0.0
O72 O 0.46155 0.88015 0.38577 0.0
Mg73 Mg 0.41301 0.8923 0.40387 0.0
C74 C 0.48579 0.87213 0.40502 0.0
C75 C 0.48712 0.85013 0.58278 0.0
O76 O 0.46146 0.83455 0.58257 0.0
O77 O 0.45781 0.92693 0.49746 0.0
O78 O 0.43031 0.93738 0.43849 0.0
O79 O 0.44125 0.82301 0.49545 0.0
O80 O 0.41838 0.86192 0.46147 0.0
C81 C 0.44637 0.94642 0.47042 0.0
C82 C 0.42095 0.83158 0.46793 0.0
O83 O 0.49262 0.86978 0.55241 0.0
Mg84 Mg 0.3783 0.28572 0.7353 0.0
O85 O 0.40815 0.24565 0.70726 0.0
O86 O 0.452 0.26791 0.68808 0.0
Mg87 Mg 0.45046 0.32116 0.70422 0.0
C88 C 0.43448 0.24386 0.69085 0.0
C89 C 0.33327 0.23207 0.73039 0.0
O90 O 0.34769 0.23039 0.69342 0.0
O91 O 0.40446 0.28669 0.79863 0.0
O92 O 0.44643 0.31158 0.77653 0.0
O93 O 0.36195 0.29761 0.66834 0.0
O94 O 0.4014 0.31898 0.70035 0.0
C95 C 0.43005 0.29944 0.8062 0.0
C96 C 0.38509 0.31626 0.66634 0.0
O97 O 0.34415 0.25021 0.75929 0.0
Mg98 Mg 0.02243 0.14164 0.94605 0.0
O99 O 0.99556 0.13001 0.88477 0.0
O100 O 0.02607 0.10131 0.84199 0.0
Mg101 Mg 0.07316 0.09858 0.8733 0.0
C102 C 0.00064 0.11435 0.85007 0.0
C103 C 0.97481 0.18467 0.99127 0.0
O104 O 0.9893 0.20628 0.96875 0.0
O105 O 0.01944 0.08965 0.96785 0.0
O106 O 0.05368 0.06594 0.92536 0.0
O107 O 0.03739 0.18732 0.91781 0.0
O108 O 0.06294 0.14232 0.91078 0.0
C109 C 0.03465 0.06524 0.95621 0.0
C110 C 0.06044 0.17237 0.90216 0.0
O111 O 0.98009 0.15521 0.98418 0.0
Mg112 Mg 0.8402 0.78136 0.77089 0.0
O113 O 0.84509 0.74526 0.71485 0.0
O114 O 0.83234 0.76984 0.65375 0.0
Mg115 Mg 0.81711 0.82012 0.66998 0.0
C116 C 0.84138 0.74502 0.67382 0.0
C117 C 0.871 0.72685 0.81936 0.0
O118 O 0.88822 0.73048 0.78525 0.0
O119 O 0.78992 0.77348 0.76855 0.0
O120 O 0.77687 0.79965 0.70843 0.0
O121 O 0.88699 0.79778 0.76071 0.0
O122 O 0.84783 0.81723 0.72533 0.0
C123 C 0.77012 0.78339 0.74199 0.0
C124 C 0.87668 0.8142 0.72867 0.0
O125 O 0.84678 0.74291 0.82239 0.0
Mg126 Mg 0.01401 0.12377 0.4877 0.0
O127 O 0.04529 0.12219 0.42812 0.0
O128 O 0.01833 0.10531 0.37212 0.0
Mg129 Mg 0.97024 0.09621 0.39537 0.0
C130 C 0.04333 0.11449 0.38822 0.0
C131 C 0.06948 0.11346 0.55498 0.0
O132 O 0.06505 0.08246 0.55543 0.0
O133 O 0.01555 0.06991 0.49305 0.0
O134 O 0.98674 0.05446 0.43738 0.0
O135 O 0.00191 0.17368 0.47196 0.0
O136 O 0.97755 0.13083 0.44797 0.0
C137 C 0.00282 0.04831 0.4705 0.0
C138 C 0.98158 0.16133 0.44722 0.0
O139 O 0.05358 0.13157 0.5315 0.0
Mg140 Mg 0.62541 0.17968 0.27117 0.0
O141 O 0.62112 0.21989 0.22108 0.0
O142 O 0.62397 0.19969 0.15464 0.0
Mg143 Mg 0.63485 0.14678 0.16214 0.0
C144 C 0.62058 0.22339 0.18019 0.0
C145 C 0.60592 0.21597 0.35189 0.0
O146 O 0.59034 0.18939 0.3547 0.0
O147 O 0.67595 0.18146 0.26067 0.0
O148 O 0.68006 0.16076 0.19418 0.0
O149 O 0.57647 0.16983 0.26685 0.0
O150 O 0.61007 0.14744 0.22373 0.0
C151 C 0.69175 0.17274 0.22828 0.0
C152 C 0.5822 0.15374 0.23221 0.0
O153 O 0.62611 0.21835 0.32298 0.0
Mg154 Mg 0.44273 0.87819 0.00628 0.0
O155 O 0.4328 0.86119 0.9373 0.0
O156 O 0.47046 0.87387 0.89368 0.0
Mg157 Mg 0.50636 0.89841 0.93583 0.0
C158 C 0.44446 0.86173 0.89964 0.0
C159 C 0.37769 0.85444 0.04353 0.0
O160 O 0.34821 0.85677 0.04456 0.0
O161 O 0.43593 0.93067 0.98972 0.0
O162 O 0.47713 0.94214 0.95082 0.0
O163 O 0.46823 0.83189 0.0197 0.0
O164 O 0.48846 0.87595 0.99516 0.0
C165 C 0.45294 0.95053 0.97013 0.0
C166 C 0.49209 0.84697 0.00696 0.0
O167 O 0.3925 0.87379 0.02023 0.0
Mg168 Mg 0.86398 0.17127 0.71308 0.0
O169 O 0.88417 0.20304 0.76569 0.0
O170 O 0.88322 0.17761 0.82938 0.0
Mg171 Mg 0.85931 0.13054 0.81758 0.0
C172 C 0.88979 0.2017 0.80604 0.0
C173 C 0.8874 0.22984 0.66411 0.0
O174 O 0.91103 0.22116 0.68666 0.0
O175 O 0.81829 0.18419 0.73855 0.0
O176 O 0.81634 0.15982 0.80281 0.0
O177 O 0.90841 0.14979 0.70215 0.0
O178 O 0.87624 0.13135 0.75008 0.0
C179 C 0.80483 0.17769 0.77376 0.0
C180 C 0.9031 0.1305 0.73389 0.0
O181 O 0.8631 0.21402 0.66744 0.0
Mg182 Mg 0.5091 0.14629 0.48067 0.0
O183 O 0.4906 0.16005 0.54723 0.0
O184 O 0.5106 0.12783 0.59659 0.0
Mg185 Mg 0.54818 0.09968 0.56266 0.0
C186 C 0.4929 0.15052 0.58627 0.0
C187 C 0.47579 0.19627 0.4279 0.0
O188 O 0.504 0.2051 0.42361 0.0
O189 O 0.48414 0.09894 0.48212 0.0
O190 O 0.51268 0.07007 0.52715 0.0
O191 O 0.54333 0.18417 0.48733 0.0
O192 O 0.55 0.13473 0.50914 0.0
C193 C 0.49096 0.07266 0.50047 0.0
C194 C 0.56012 0.16357 0.50693 0.0
O195 O 0.46955 0.17121 0.44912 0.0
Mg196 Mg 0.60513 0.79255 0.23425 0.0
O197 O 0.61106 0.76529 0.29869 0.0
O198 O 0.63032 0.80052 0.34605 0.0
Mg199 Mg 0.63511 0.84874 0.31408 0.0
C200 C 0.62073 0.77267 0.33643 0.0
C201 C 0.57755 0.75317 0.16481 0.0
O202 O 0.56949 0.78284 0.15744 0.0
O203 O 0.65609 0.78909 0.22551 0.0
O204 O 0.6725 0.82503 0.27353 0.0
O205 O 0.55848 0.80498 0.25225 0.0
O206 O 0.59803 0.83337 0.27205 0.0
C207 C 0.67739 0.80412 0.24428 0.0
C208 C 0.56975 0.82679 0.27689 0.0
O209 O 0.59584 0.74733 0.1954 0.0
Mg210 Mg 0.02853 0.86275 -0.00146 0.0
O211 O 0.05262 0.85435 0.06363 0.0
O212 O 0.02238 0.87217 0.11557 0.0
Mg213 Mg 0.97814 0.88935 0.08536 0.0
C214 C 0.04744 0.86014 0.10353 0.0
C215 C 0.08166 0.82527 0.96102 0.0
O216 O 0.06892 0.80423 0.98659 0.0
O217 O 0.03611 0.91633 0.00262 0.0
O218 O 0.00126 0.93149 0.05105 0.0
O219 O 0.0061 0.81487 0.00105 0.0
O220 O 0.98726 0.85904 0.02899 0.0
C221 C 0.02173 0.93789 0.02335 0.0
C222 C 0.98511 0.82874 0.02316 0.0
O223 O 0.07197 0.85383 0.96096 0.0
Mg224 Mg 0.58954 0.79437 0.81836 0.0
O225 O 0.55455 0.75469 0.83194 0.0
O226 O 0.5107 0.78051 0.83933 0.0
Mg227 Mg 0.51913 0.83419 0.84371 0.0
C228 C 0.52611 0.7548 0.83928 0.0
C229 C 0.64307 0.78101 0.76822 0.0
O230 O 0.63549 0.81111 0.76343 0.0
O231 O 0.56878 0.80583 0.75211 0.0
O232 O 0.52866 0.83469 0.7713 0.0
O233 O 0.60139 0.79179 0.88818 0.0
O234 O 0.56565 0.82255 0.8606 0.0
C235 C 0.54593 0.82291 0.74256 0.0
C236 C 0.57834 0.81015 0.89407 0.0
O237 O 0.62503 0.76256 0.78801 0.0
Mg238 Mg 0.52974 0.35162 0.03347 0.0
O239 O 0.50235 0.36173 0.09524 0.0
O240 O 0.53413 0.38612 0.14072 0.0
Mg241 Mg 0.58176 0.38594 0.11207 0.0
C242 C 0.50791 0.37574 0.13114 0.0
C243 C 0.49059 0.32169 0.96592 0.0
O244 O 0.5148 0.30368 0.96716 0.0
O245 O 0.52962 0.40477 0.02015 0.0
O246 O 0.56434 0.42439 0.06544 0.0
O247 O 0.54069 0.30303 0.05653 0.0
O248 O 0.56797 0.34627 0.07022 0.0
C249 C 0.54503 0.42789 0.0353 0.0
C250 C 0.56313 0.31626 0.07628 0.0
O251 O 0.48783 0.34435 0.99296 0.0
Mg252 Mg 0.88372 0.21524 0.23609 0.0
O253 O 0.8838 0.26819 0.25787 0.0
O254 O 0.93238 0.2812 0.26486 0.0
Mg255 Mg 0.96305 0.23929 0.24876 0.0
C256 C 0.90447 0.28806 0.26808 0.0
C257 C 0.82116 0.18943 0.22759 0.0
O258 O 0.83801 0.1645 0.23658 0.0
O259 O 0.89833 0.226 0.16654 0.0
O260 O 0.9475 0.23312 0.17884 0.0
O261 O 0.88448 0.19926 0.30474 0.0
O262 O 0.92489 0.20941 0.26595 0.0
C263 C 0.9254 0.22906 0.15306 0.0
C264 C 0.91348 0.20165 0.3025 0.0
O265 O 0.83371 0.21638 0.22185 0.0
Mg266 Mg 0.96436 0.64414 0.53034 0.0
O267 O 0.99353 0.64017 0.59018 0.0
O268 O 0.96807 0.61549 0.64284 0.0
Mg269 Mg 0.92053 0.60556 0.61667 0.0
C270 C 0.99176 0.62903 0.62836 0.0
C271 C 0.00685 0.68019 0.46553 0.0
O272 O 0.9825 0.69782 0.46208 0.0
O273 O 0.9701 0.59071 0.518 0.0
O274 O 0.94008 0.56943 0.56882 0.0
O275 O 0.94522 0.69102 0.55302 0.0
O276 O 0.92545 0.64398 0.56847 0.0
C277 C 0.95751 0.56681 0.53622 0.0
C278 C 0.92476 0.67449 0.57273 0.0
O279 O 0.0068 0.65675 0.49162 0.0
Mg280 Mg 0.62394 0.21802 0.73594 0.0
O281 O 0.61334 0.2709 0.71968 0.0
O282 O 0.56729 0.2694 0.69033 0.0
Mg283 Mg 0.54896 0.21909 0.68766 0.0
C284 C 0.59072 0.28463 0.7021 0.0
C285 C 0.68905 0.23145 0.75726 0.0
O286 O 0.6886 0.2353 0.71524 0.0
O287 O 0.59258 0.2182 0.79389 0.0
O288 O 0.54747 0.2161 0.76201 0.0
O289 O 0.64328 0.2105 0.67005 0.0
O290 O 0.59555 0.2023 0.68708 0.0
C291 C 0.56396 0.21611 0.79581 0.0
C292 C 0.61637 0.20292 0.65823 0.0
O293 O 0.66432 0.23025 0.77771 0.0
Mg294 Mg 0.98475 0.33633 0.94235 0.0
O295 O 0.01931 0.34171 0.88828 0.0
O296 O 0.99551 0.3591 0.82929 0.0
Mg297 Mg 0.94594 0.36752 0.84725 0.0
C298 C 0.01925 0.34954 0.84853 0.0
C299 C 0.01756 0.30428 0.01579 0.0
O300 O 0.99152 0.28947 0.01366 0.0
O301 O 0.98491 0.38987 0.95304 0.0
O302 O 0.95861 0.40706 0.89579 0.0
O303 O 0.97401 0.28754 0.91996 0.0
O304 O 0.94954 0.33068 0.89784 0.0
C305 C 0.97251 0.41213 0.93125 0.0
C306 C 0.95369 0.30024 0.89556 0.0
O307 O 0.02283 0.327 0.98966 0.0
Mg308 Mg 0.87008 0.77039 0.20442 0.0
O309 O 0.87876 0.71625 0.19627 0.0
O310 O 0.92855 0.71142 0.18654 0.0
Mg311 Mg 0.9515 0.76003 0.18844 0.0
C312 C 0.9022 0.69938 0.18874 0.0
C313 C 0.80437 0.78532 0.21262 0.0
O314 O 0.8164 0.80891 0.1906 0.0
O315 O 0.88902 0.77129 0.2739 0.0
O316 O 0.93826 0.76799 0.25886 0.0
O317 O 0.8661 0.77521 0.13224 0.0
O318 O 0.90847 0.78057 0.16874 0.0
C319 C 0.91664 0.77138 0.2857 0.0
C320 C 0.89485 0.78017 0.1322 0.0
O321 O 0.82132 0.76278 0.22563 0.0
Mg322 Mg 0.55858 0.63579 0.49086 0.0
O323 O 0.5281 0.64223 0.43101 0.0
O324 O 0.55634 0.63374 0.37196 0.0
Mg325 Mg 0.60388 0.62058 0.39333 0.0
C326 C 0.5313 0.64062 0.38996 0.0
C327 C 0.51856 0.66106 0.56442 0.0
O328 O 0.54132 0.68104 0.56388 0.0
O329 O 0.55641 0.58207 0.48189 0.0
O330 O 0.58576 0.57427 0.4237 0.0
O331 O 0.57222 0.68603 0.48738 0.0
O332 O 0.59643 0.64783 0.45339 0.0
C333 C 0.56929 0.56382 0.45442 0.0
C334 C 0.59381 0.67791 0.46159 0.0
O335 O 0.51796 0.63812 0.53727 0.0
Mg336 Mg 0.37218 0.32443 0.27503 0.0
O337 O 0.38375 0.29417 0.21553 0.0
O338 O 0.36771 0.32084 0.15749 0.0
Mg339 Mg 0.35245 0.37016 0.1793 0.0
C340 C 0.37961 0.29625 0.17482 0.0
C341 C 0.39428 0.28548 0.3501 0.0
O342 O 0.40121 0.31488 0.36098 0.0
O343 O 0.32267 0.31436 0.26511 0.0
O344 O 0.31079 0.34601 0.20955 0.0
O345 O 0.41779 0.34302 0.27509 0.0
O346 O 0.38143 0.3655 0.23769 0.0
C347 C 0.30353 0.32607 0.23896 0.0
C348 C 0.4099 0.36419 0.24695 0.0
O349 O 0.37824 0.28068 0.31682 0.0
Mg350 Mg 0.46558 0.61512 0.02174 0.0
O351 O 0.48389 0.64136 0.96224 0.0
O352 O 0.46741 0.61761 0.90207 0.0
Mg353 Mg 0.43856 0.57514 0.92368 0.0
C354 C 0.48215 0.6396 0.92113 0.0
C355 C 0.50105 0.67155 0.06406 0.0
O356 O 0.4832 0.68788 0.03852 0.0
O357 O 0.49768 0.57385 0.01249 0.0
O358 O 0.47707 0.54784 0.95666 0.0
O359 O 0.42513 0.64623 0.01898 0.0
O360 O 0.42859 0.60003 0.9854 0.0
C361 C 0.49637 0.54994 0.98703 0.0
C362 C 0.4136 0.62591 0.99209 0.0
O363 O 0.49957 0.64125 0.0645 0.0
Mg364 Mg 0.12911 0.69603 0.77432 0.0
O365 O 0.11378 0.73197 0.72203 0.0
O366 O 0.11613 0.70719 0.65822 0.0
Mg367 Mg 0.13449 0.65723 0.6683 0.0
C368 C 0.11017 0.73178 0.68109 0.0
C369 C 0.14934 0.75389 0.83975 0.0
O370 O 0.17759 0.75086 0.8279 0.0
O371 O 0.1771 0.70503 0.75339 0.0
O372 O 0.17977 0.6792 0.69003 0.0
O373 O 0.0827 0.67775 0.78164 0.0
O374 O 0.11523 0.6592 0.73356 0.0
C375 C 0.19163 0.69594 0.72006 0.0
C376 C 0.08771 0.66168 0.74672 0.0
O377 O 0.12907 0.73619 0.8236 0.0
Mg378 Mg 0.96114 0.36063 0.48784 0.0
O379 O 0.9326 0.36298 0.42542 0.0
O380 O 0.96174 0.38372 0.37409 0.0
Mg381 Mg 0.00846 0.39353 0.40193 0.0
C382 C 0.93637 0.3727 0.38658 0.0
C383 C 0.92956 0.32889 0.55767 0.0
O384 O 0.95856 0.32339 0.56119 0.0
O385 O 0.95713 0.41451 0.4969 0.0
O386 O 0.98877 0.43239 0.44573 0.0
O387 O 0.9771 0.31198 0.46956 0.0
O388 O -0.00017 0.35715 0.4513 0.0
C389 C 0.97088 0.43712 0.4774 0.0
C390 C -0.00189 0.32654 0.44844 0.0
O391 O 0.92044 0.34831 0.52901 0.0
Mg392 Mg 0.39567 0.71163 0.23745 0.0
O393 O 0.39694 0.74253 0.29991 0.0
O394 O 0.38349 0.70916 0.35321 0.0
Mg395 Mg 0.3784 0.65861 0.32773 0.0
C396 C 0.39121 0.73681 0.33979 0.0
C397 C 0.4096 0.75346 0.15849 0.0
O398 O 0.42602 0.72807 0.15033 0.0
O399 O 0.34428 0.71059 0.24107 0.0
O400 O 0.33496 0.67492 0.29312 0.0
O401 O 0.44446 0.702 0.24364 0.0
O402 O 0.40909 0.67315 0.27537 0.0
C403 C 0.32603 0.69425 0.26394 0.0
C404 C 0.43724 0.68066 0.27201 0.0
O405 O 0.39422 0.75485 0.19312 0.0
Mg406 Mg 0.97812 0.61603 0.0024 0.0
O407 O 0.9461 0.61379 0.06052 0.0
O408 O 0.96729 0.58569 0.11318 0.0
Mg409 Mg 0.01483 0.5722 0.09004 0.0
C410 C 0.94503 0.60144 0.09822 0.0
C411 C 0.94278 0.66003 0.94231 0.0
O412 O 0.96766 0.67616 0.94927 0.0
O413 O 0.96945 0.56376 0.98644 0.0
O414 O 0.99531 0.53873 0.0386 0.0
O415 O -0.00101 0.66103 0.02801 0.0
O416 O 0.01477 0.61227 0.04362 0.0
C417 C 0.97952 0.53842 0.0042 0.0
C418 C 0.01722 0.64264 0.049 0.0
O419 O 0.93937 0.63294 0.96005 0.0
Mg420 Mg 0.14525 0.273 0.69432 0.0
O421 O 0.13304 0.2483 0.75827 0.0
O422 O 0.15047 0.27759 0.81331 0.0
Mg423 Mg 0.16948 0.32292 0.78433 0.0
C424 C 0.13661 0.25321 0.79877 0.0
C425 C 0.11432 0.21463 0.65182 0.0
O426 O 0.09063 0.23008 0.66624 0.0
O427 O 0.19274 0.259 0.7071 0.0
O428 O 0.20864 0.29165 0.75916 0.0
O429 O 0.10027 0.29531 0.69181 0.0
O430 O 0.13861 0.31516 0.72876 0.0
C431 C 0.21315 0.26901 0.73226 0.0
C432 C 0.10973 0.31303 0.72315 0.0
O433 O 0.14033 0.22628 0.65771 0.0
Mg434 Mg 0.52077 0.36256 0.50657 0.0
O435 O 0.54727 0.36287 0.57018 0.0
O436 O 0.53082 0.40293 0.61125 0.0
Mg437 Mg 0.48839 0.42314 0.5781 0.0
C438 C 0.54888 0.3798 0.60447 0.0
C439 C 0.5564 0.32834 0.43471 0.0
O440 O 0.54034 0.34855 0.41189 0.0
O441 O 0.5437 0.40887 0.48511 0.0
O442 O 0.51853 0.44403 0.52629 0.0
O443 O 0.48819 0.32714 0.53258 0.0
O444 O 0.4826 0.37943 0.53877 0.0
C445 C 0.5374 0.43743 0.49656 0.0
C446 C 0.47268 0.3511 0.54682 0.0
O447 O 0.55569 0.33011 0.4756 0.0
C448 C 0.0639 0.12038 0.31271 0.0
C449 C 0.06812 0.12392 0.35774 0.0
C450 C 0.10153 0.1693 0.34523 0.0
C451 C 0.08999 0.17136 0.3024 0.0
N452 N 0.06661 0.14537 0.24191 0.0
N453 N 0.10494 0.13779 0.41112 0.0
C454 C 0.07386 0.14518 0.28475 0.0
C455 C 0.09167 0.14389 0.37227 0.0
N456 N 0.05092 0.09315 0.29728 0.0
N457 N 0.11992 0.19262 0.36108 0.0
H458 H 0.09935 0.11758 0.42915 0.0
H459 H 0.1236 0.15012 0.42273 0.0
H460 H 0.12957 0.21017 0.34177 0.0
H461 H 0.12527 0.19489 0.39367 0.0
H462 H 0.04825 0.08806 0.26461 0.0
H463 H 0.04567 0.07414 0.31776 0.0
H464 H 0.05204 0.12909 0.22753 0.0
H465 H 0.0751 0.16265 0.22085 0.0
C466 C 0.08986 0.783 0.58583 0.0
C467 C 0.06056 0.79267 0.59875 0.0
C468 C 0.07058 0.7747 0.67258 0.0
C469 C 0.09745 0.75996 0.65799 0.0
N470 N 0.13789 0.75943 0.60653 0.0
N471 N 0.02136 0.79406 0.65255 0.0
C472 C 0.10869 0.76704 0.61614 0.0
C473 C 0.05056 0.78784 0.64173 0.0
N474 N 0.09903 0.78793 0.54414 0.0
N475 N 0.06472 0.77771 0.7157 0.0
H476 H 0.00586 0.80254 0.63023 0.0
H477 H 0.01184 0.78761 0.68206 0.0
H478 H 0.08006 0.77134 0.73952 0.0
H479 H 0.04649 0.79058 0.7278 0.0
H480 H 0.11893 0.77909 0.53108 0.0
H481 H 0.08592 0.79995 0.52142 0.0
H482 H 0.14866 0.76509 0.57771 0.0
H483 H 0.15237 0.74958 0.62947 0.0
C484 C 0.44498 0.83528 0.82542 0.0
C485 C 0.42934 0.84318 0.86392 0.0
C486 C 0.39297 0.8005 0.84873 0.0
C487 C 0.41377 0.78727 0.81865 0.0
N488 N 0.45697 0.79432 0.77259 0.0
N489 N 0.37993 0.84523 0.89548 0.0
C490 C 0.4388 0.80562 0.8048 0.0
C491 C 0.40054 0.82939 0.87063 0.0
N492 N 0.46352 0.85722 0.80666 0.0
N493 N 0.36665 0.78496 0.85738 0.0
H494 H 0.38398 0.86821 0.90717 0.0
H495 H 0.35787 0.83769 0.90028 0.0
H496 H 0.35888 0.7661 0.83854 0.0
H497 H 0.35259 0.79047 0.88324 0.0
H498 H 0.47298 0.8541 0.77617 0.0
H499 H 0.46554 0.88043 0.81854 0.0
H500 H 0.47734 0.80488 0.76416 0.0
H501 H 0.45195 0.77365 0.75516 0.0
C502 C 0.38728 0.23736 0.1598 0.0
C503 C 0.38983 0.26971 0.14634 0.0
C504 C 0.40742 0.25093 0.07618 0.0
C505 C 0.41146 0.21967 0.09279 0.0
N506 N 0.41092 0.18574 0.15594 0.0
N507 N 0.41149 0.30654 0.09422 0.0
C508 C 0.40277 0.21337 0.13611 0.0
C509 C 0.40241 0.27643 0.10514 0.0
N510 N 0.36961 0.22918 0.19417 0.0
N511 N 0.40774 0.25635 0.03272 0.0
H512 H 0.41171 0.32556 0.11596 0.0
H513 H 0.4227 0.3114 0.06532 0.0
H514 H 0.40879 0.23779 0.01026 0.0
H515 H 0.40305 0.27869 0.01945 0.0
H516 H 0.36569 0.20548 0.20283 0.0
H517 H 0.35599 0.24555 0.21041 0.0
H518 H 0.40711 0.18147 0.18867 0.0
H519 H 0.42492 0.16929 0.14111 0.0
C520 C 0.07021 0.82146 0.20796 0.0
C521 C 0.09049 0.79849 0.19073 0.0
C522 C 0.09489 0.8305 0.12475 0.0
C523 C 0.06875 0.84748 0.13724 0.0
N524 N 0.0453 0.87267 0.19851 0.0
N525 N 0.12533 0.78317 0.13417 0.0
C526 C 0.06057 0.84729 0.18152 0.0
C527 C 0.10455 0.80414 0.15012 0.0
N528 N 0.05925 0.81758 0.24888 0.0
N529 N 0.1113 0.8408 0.09021 0.0
H530 H 0.13429 0.76453 0.15223 0.0
H531 H 0.13285 0.78362 0.10228 0.0
H532 H 0.10582 0.86172 0.07368 0.0
H533 H 0.13228 0.83142 0.08209 0.0
H534 H 0.04155 0.8309 0.26165 0.0
H535 H 0.06756 0.80007 0.26972 0.0
H536 H 0.04003 0.87499 0.23112 0.0
H537 H 0.04149 0.89342 0.18071 0.0
C538 C 0.38286 0.79255 0.37034 0.0
C539 C 0.39644 0.76177 0.37324 0.0
C540 C 0.41377 0.7744 0.44616 0.0
C541 C 0.40603 0.80683 0.44002 0.0
N542 N 0.37056 0.84248 0.40679 0.0
N543 N 0.43003 0.72605 0.41186 0.0
C544 C 0.38708 0.81501 0.40476 0.0
C545 C 0.41323 0.7534 0.41063 0.0
N546 N 0.36586 0.80017 0.33505 0.0
N547 N 0.4193 0.76291 0.48666 0.0
H548 H 0.43167 0.71012 0.38616 0.0
H549 H 0.44502 0.72105 0.43686 0.0
H550 H 0.41538 0.77651 0.51436 0.0
H551 H 0.42294 0.73877 0.493 0.0
H552 H 0.35832 0.82311 0.32813 0.0
H553 H 0.35994 0.78362 0.31142 0.0
H554 H 0.35518 0.8497 0.38348 0.0
H555 H 0.3694 0.85628 0.43477 0.0
C556 C 0.469 0.19673 0.68838 0.0
C557 C 0.44447 0.21363 0.67046 0.0
C558 C 0.44522 0.17802 0.60789 0.0
C559 C 0.47432 0.16715 0.61993 0.0
N560 N 0.51336 0.16459 0.67512 0.0
N561 N 0.40844 0.2204 0.6129 0.0
C562 C 0.48585 0.17536 0.66167 0.0
C563 C 0.43199 0.20395 0.63047 0.0
N564 N 0.47619 0.20154 0.7308 0.0
N565 N 0.42988 0.1629 0.57556 0.0
H566 H 0.3975 0.23901 0.62886 0.0
H567 H 0.40103 0.21685 0.58134 0.0
H568 H 0.43818 0.14246 0.5603 0.0
H569 H 0.40764 0.16817 0.56766 0.0
H570 H 0.49159 0.18767 0.74767 0.0
H571 H 0.46424 0.21737 0.75049 0.0
H572 H 0.52286 0.17031 0.70477 0.0
H573 H 0.52819 0.15142 0.65634 0.0
C574 C 0.10724 0.24273 0.8678 0.0
C575 C 0.12168 0.23117 0.82965 0.0
C576 C 0.09655 0.17984 0.83917 0.0
C577 C 0.08404 0.1906 0.87872 0.0
N578 N 0.08822 0.22789 0.93797 0.0
N579 N 0.13841 0.18474 0.78974 0.0
C580 C 0.09299 0.22059 0.89551 0.0
C581 C 0.11918 0.19833 0.81891 0.0
N582 N 0.10472 0.27465 0.87649 0.0
N583 N 0.08546 0.15346 0.81911 0.0
H584 H 0.15648 0.19718 0.77624 0.0
H585 H 0.13855 0.16031 0.78323 0.0
H586 H 0.06631 0.142 0.83022 0.0
H587 H 0.09284 0.14574 0.78892 0.0
H588 H 0.09203 0.28334 0.90232 0.0
H589 H 0.11132 0.29269 0.8555 0.0
H590 H 0.09643 0.24871 0.95224 0.0
H591 H 0.07956 0.21136 0.95989 0.0
C592 C 0.93398 0.80887 0.63716 0.0
C593 C 0.9407 0.84167 0.63083 0.0
C594 C 0.90051 0.8564 0.6819 0.0
C595 C 0.89729 0.82372 0.69316 0.0
N596 N 0.91363 0.76873 0.68438 0.0
N597 N 0.9305 0.89701 0.64603 0.0
C598 C 0.91458 0.79993 0.67142 0.0
C599 C 0.92379 0.86555 0.65267 0.0
N600 N 0.946 0.78594 0.61069 0.0
N601 N 0.88167 0.87872 0.69957 0.0
H602 H 0.94573 0.90444 0.62248 0.0
H603 H 0.92197 0.91562 0.66468 0.0
H604 H 0.86564 0.87329 0.72305 0.0
H605 H 0.88059 0.90233 0.68924 0.0
H606 H 0.93841 0.7624 0.6102 0.0
H607 H 0.96158 0.79044 0.5864 0.0
H608 H 0.9291 0.75157 0.67426 0.0
H609 H 0.89898 0.76002 0.70764 0.0
C610 C 0.93781 0.19252 0.41924 0.0
C611 C 0.9672 0.18045 0.41345 0.0
C612 C 0.96231 0.18348 0.3358 0.0
C613 C 0.93289 0.19662 0.34074 0.0
N614 N 0.89842 0.22488 0.38812 0.0
N615 N 0.01137 0.17925 0.3686 0.0
C616 C 0.92226 0.20465 0.38282 0.0
C617 C 0.98085 0.18113 0.37248 0.0
N618 N 0.92474 0.19213 0.45916 0.0
N619 N 0.97189 0.17061 0.29759 0.0
H620 H 0.02543 0.17905 0.39556 0.0
H621 H 0.02242 0.18186 0.33908 0.0
H622 H 0.95808 0.16747 0.27081 0.0
H623 H 0.99255 0.15894 0.29452 0.0
H624 H 0.9021 0.19755 0.46422 0.0
H625 H 0.93633 0.18481 0.48674 0.0
H626 H 0.89144 0.23319 0.41826 0.0
H627 H 0.88819 0.23653 0.36234 0.0
C628 C 0.53026 0.11327 0.14999 0.0
C629 C 0.51067 0.13894 0.14 0.0
C630 C 0.53952 0.17459 0.18696 0.0
C631 C 0.55793 0.14841 0.19984 0.0
N632 N 0.56829 0.09185 0.19829 0.0
N633 N 0.49337 0.19265 0.15371 0.0
C634 C 0.55278 0.11746 0.18236 0.0
C635 C 0.51439 0.16916 0.15985 0.0
N636 N 0.52744 0.08503 0.12822 0.0
N637 N 0.54671 0.20509 0.19881 0.0
H638 H 0.47544 0.19056 0.13225 0.0
H639 H 0.49231 0.21338 0.17228 0.0
H640 H 0.56459 0.21081 0.21887 0.0
H641 H 0.53657 0.22525 0.18562 0.0
H642 H 0.54294 0.06646 0.13027 0.0
H643 H 0.5104 0.081 0.10575 0.0
H644 H 0.56351 0.06827 0.19019 0.0
H645 H 0.58448 0.09388 0.22248 0.0
C646 C 0.52501 0.79919 0.98773 0.0
C647 C 0.52195 0.83186 -0.0016 0.0
C648 C 0.5666 0.84535 0.95652 0.0
C649 C 0.56507 0.81481 0.93734 0.0
N650 N 0.55076 0.75949 0.94324 0.0
N651 N 0.54962 0.87956 0.01496 0.0
C652 C 0.54717 0.7904 0.95636 0.0
C653 C 0.54636 0.85274 0.99033 0.0
N654 N 0.5074 0.77715 0.00809 0.0
N655 N 0.5863 0.8676 0.94098 0.0
H656 H 0.53522 0.8843 0.0409 0.0
H657 H 0.56797 0.89493 0.01261 0.0
H658 H 0.60241 0.86214 0.91751 0.0
H659 H 0.58599 0.89151 0.95026 0.0
H660 H 0.50805 0.75274 0.00207 0.0
H661 H 0.49365 0.78331 0.03412 0.0
H662 H 0.53791 0.74046 0.95431 0.0
H663 H 0.56736 0.75263 0.9213 0.0
C664 C 0.95867 0.12173 0.74348 0.0
C665 C 0.92893 0.11504 0.75703 0.0
C666 C 0.94817 0.09824 0.82766 0.0
C667 C 0.97646 0.11224 0.81709 0.0
N668 N 0.00766 0.14017 0.76514 0.0
N669 N 0.89896 0.08101 0.80203 0.0
C670 C 0.98169 0.12422 0.77479 0.0
C671 C 0.92455 0.09857 0.79644 0.0
N672 N 0.9652 0.12395 0.70049 0.0
N673 N 0.94377 0.08523 0.86765 0.0
H674 H 0.88329 0.07812 0.77724 0.0
H675 H 0.8948 0.06652 0.82865 0.0
H676 H 0.96107 0.08251 0.89009 0.0
H677 H 0.92284 0.07816 0.87935 0.0
H678 H 0.98706 0.12639 0.68866 0.0
H679 H 0.94931 0.11851 0.67679 0.0
H680 H 0.01097 0.15223 0.73608 0.0
H681 H 0.02459 0.1443 0.7876 0.0
C682 C 0.61134 0.16101 0.60166 0.0
C683 C 0.60995 0.19373 0.61337 0.0
C684 C 0.59077 0.2072 0.54175 0.0
C685 C 0.58568 0.17424 0.53455 0.0
N686 N 0.60703 0.12208 0.54389 0.0
N687 N 0.60195 0.24878 0.59391 0.0
C688 C 0.60102 0.15168 0.56026 0.0
C689 C 0.60126 0.21721 0.58288 0.0
N690 N 0.62114 0.13881 0.63076 0.0
N691 N 0.58737 0.22835 0.50857 0.0
H692 H 0.61102 0.2567 0.62302 0.0
H693 H 0.59255 0.26685 0.57519 0.0
H694 H 0.5833 0.22072 0.47701 0.0
H695 H 0.59245 0.25255 0.51085 0.0
H696 H 0.61919 0.11428 0.62592 0.0
H697 H 0.62994 0.14495 0.66088 0.0
H698 H 0.62009 0.10509 0.5597 0.0
H699 H 0.6018 0.11611 0.51201 0.0
C700 C 0.54878 0.87217 0.32211 0.0
C701 C 0.55154 0.83888 0.31392 0.0
C702 C 0.51315 0.82769 0.3692 0.0
C703 C 0.51094 0.86075 0.37782 0.0
N704 N 0.53095 0.91375 0.37073 0.0
N705 N 0.54173 0.78466 0.33774 0.0
C706 C 0.5302 0.88279 0.35687 0.0
C707 C 0.53531 0.81656 0.33985 0.0
N708 N 0.56238 0.89368 0.29526 0.0
N709 N 0.49318 0.80692 0.3878 0.0
H710 H 0.55762 0.77489 0.31698 0.0
H711 H 0.53383 0.76817 0.36016 0.0
H712 H 0.47708 0.81373 0.41056 0.0
H713 H 0.49109 0.78315 0.37868 0.0
H714 H 0.55853 0.91818 0.29679 0.0
H715 H 0.5757 0.88697 0.26905 0.0
H716 H 0.54637 0.93055 0.35954 0.0
H717 H 0.51798 0.9217 0.39672 0.0
C718 C 0.9379 0.7676 0.0843 0.0
C719 C 0.91212 0.78641 0.09229 0.0
C720 C 0.93024 0.82516 0.0396 0.0
C721 C 0.9593 0.81103 0.04177 0.0
N722 N 0.99116 0.76862 0.06972 0.0
N723 N 0.88294 0.83365 0.07658 0.0
C724 C 0.96326 0.78177 0.06431 0.0
C725 C 0.90766 0.81507 0.06899 0.0
N726 N 0.93784 0.73619 0.09568 0.0
N727 N 0.92413 0.8478 0.00911 0.0
H728 H 0.86544 0.82678 0.09698 0.0
H729 H 0.88066 0.8567 0.06436 0.0
H730 H 0.9398 0.85462 0.98573 0.0
H731 H 0.90262 0.85696 0.00395 0.0
H732 H 0.95534 0.72055 0.08809 0.0
H733 H 0.91837 0.72536 0.10752 0.0
H734 H 0.99496 0.74892 0.08953 0.0
H735 H 0.0109 0.77891 0.05816 0.0
C736 C 0.51284 0.66643 0.86232 0.0
C737 C 0.49122 0.66813 0.8959 0.0
C738 C 0.49027 0.72633 0.89055 0.0
C739 C 0.51143 0.725 0.85562 0.0
N740 N 0.53461 0.69282 0.79998 0.0
N741 N 0.4515 0.69841 0.9298 0.0
C742 C 0.52025 0.6947 0.83894 0.0
C743 C 0.47737 0.69767 0.9059 0.0
N744 N 0.52689 0.63816 0.85353 0.0
N745 N 0.48381 0.75421 0.91182 0.0
H746 H 0.44128 0.67786 0.94163 0.0
H747 H 0.43845 0.7189 0.93361 0.0
H748 H 0.4944 0.77594 0.90672 0.0
H749 H 0.47042 0.75512 0.93944 0.0
H750 H 0.5451 0.63624 0.83243 0.0
H751 H 0.52179 0.61706 0.86988 0.0
H752 H 0.53927 0.67125 0.78455 0.0
H753 H 0.53865 0.71283 0.78079 0.0
C754 C 0.58744 0.27219 0.17713 0.0
C755 C 0.61256 0.25496 0.16089 0.0
C756 C 0.61052 0.28728 0.09469 0.0
C757 C 0.58138 0.29767 0.10689 0.0
N758 N 0.54042 0.29732 0.15825 0.0
N759 N 0.65099 0.24946 0.10622 0.0
C760 C 0.56937 0.28949 0.14775 0.0
C761 C 0.62524 0.26389 0.1204 0.0
N762 N 0.58115 0.27307 0.22031 0.0
N763 N 0.62382 0.29933 0.05834 0.0
H764 H 0.66378 0.23468 0.12598 0.0
H765 H 0.65926 0.25143 0.07487 0.0
H766 H 0.61314 0.31559 0.03797 0.0
H767 H 0.64616 0.2951 0.04992 0.0
H768 H 0.56395 0.28707 0.23328 0.0
H769 H 0.59552 0.26393 0.24372 0.0
H770 H 0.52967 0.28866 0.18582 0.0
H771 H 0.52642 0.31037 0.13788 0.0
C772 C 0.8826 0.31837 0.3312 0.0
C773 C 0.89718 0.31875 0.29019 0.0
C774 C 0.92035 0.37004 0.30857 0.0
C775 C 0.91379 0.36381 0.35251 0.0
N776 N 0.87478 0.34555 0.40002 0.0
N777 N 0.92322 0.34868 0.2356 0.0
C778 C 0.89023 0.34225 0.36216 0.0
C779 C 0.91325 0.34639 0.27721 0.0
N780 N 0.86314 0.29434 0.34148 0.0
N781 N 0.93285 0.39861 0.2974 0.0
H782 H 0.91684 0.33214 0.21205 0.0
H783 H 0.93798 0.36624 0.22476 0.0
H784 H 0.93603 0.41669 0.32022 0.0
H785 H 0.93701 0.40559 0.2657 0.0
H786 H 0.85525 0.2901 0.37262 0.0
H787 H 0.85475 0.2784 0.31868 0.0
H788 H 0.85617 0.33183 0.4085 0.0
H789 H 0.87864 0.36483 0.42069 0.0
C790 C 0.85286 0.71936 0.60184 0.0
C791 C 0.8543 0.71821 0.64757 0.0
C792 C 0.89938 0.68528 0.64374 0.0
C793 C 0.90057 0.68989 0.59839 0.0
N794 N 0.87813 0.71058 0.53319 0.0
N795 N 0.86775 0.68443 0.70721 0.0
C796 C 0.87701 0.70647 0.57697 0.0
C797 C 0.87408 0.69622 0.66719 0.0
N798 N 0.82732 0.73063 0.58264 0.0
N799 N 0.92338 0.67261 0.665 0.0
H800 H 0.84736 0.68925 0.72269 0.0
H801 H 0.88038 0.66642 0.7217 0.0
H802 H 0.94319 0.66689 0.64902 0.0
H803 H 0.92488 0.67159 0.69856 0.0
H804 H 0.82354 0.73037 0.54949 0.0
H805 H 0.80827 0.73672 0.60067 0.0
H806 H 0.8636 0.72547 0.51623 0.0
H807 H 0.89477 0.7004 0.51376 0.0
C808 C 0.59681 0.35318 0.62756 0.0
C809 C 0.56966 0.36878 0.63941 0.0
C810 C 0.56784 0.33861 0.70675 0.0
C811 C 0.59138 0.31899 0.69101 0.0
N812 N 0.63566 0.31463 0.64662 0.0
N813 N 0.54053 0.38844 0.69987 0.0
C814 C 0.60867 0.32898 0.65501 0.0
C815 C 0.55885 0.36567 0.68236 0.0
N816 N 0.61027 0.36087 0.58927 0.0
N817 N 0.55315 0.33019 0.74381 0.0
H818 H 0.53629 0.4101 0.68458 0.0
H819 H 0.53315 0.38796 0.7318 0.0
H820 H 0.56059 0.31139 0.76321 0.0
H821 H 0.53327 0.34092 0.75424 0.0
H822 H 0.62821 0.34836 0.5758 0.0
H823 H 0.60292 0.38019 0.57074 0.0
H824 H 0.65014 0.3215 0.6219 0.0
H825 H 0.64471 0.29728 0.66693 0.0
C826 C 0.90577 0.27057 0.88238 0.0
C827 C 0.93483 0.27965 0.86796 0.0
C828 C 0.93419 0.23781 0.81293 0.0
C829 C 0.90483 0.22912 0.8265 0.0
N830 N 0.86005 0.24081 0.86785 0.0
N831 N 0.97243 0.27881 0.81216 0.0
C832 C 0.88976 0.24663 0.85935 0.0
C833 C 0.94773 0.26535 0.83091 0.0
N834 N 0.89397 0.28399 0.91896 0.0
N835 N 0.94976 0.21891 0.78458 0.0
H836 H 0.98152 0.30004 0.82364 0.0
H837 H 0.9815 0.27118 0.78286 0.0
H838 H 0.9409 0.19804 0.77125 0.0
H839 H 0.97244 0.2223 0.77731 0.0
H840 H 0.87453 0.27575 0.9341 0.0
H841 H 0.90461 0.30235 0.93585 0.0
H842 H 0.84691 0.25507 0.88798 0.0
H843 H 0.84773 0.22309 0.85214 0.0
C844 C 0.92639 0.61454 0.17334 0.0
C845 C 0.92087 0.61291 0.12838 0.0
C846 C 0.8868 0.65857 0.13363 0.0
C847 C 0.89938 0.66556 0.17487 0.0
N848 N 0.92626 0.64784 0.23772 0.0
N849 N 0.88369 0.62094 0.07367 0.0
C850 C 0.91705 0.64227 0.19634 0.0
C851 C 0.89673 0.6308 0.11126 0.0
N852 N 0.93966 0.58936 0.19374 0.0
N853 N 0.86775 0.67975 0.11421 0.0
H854 H 0.89054 0.5999 0.05835 0.0
H855 H 0.86459 0.63141 0.06035 0.0
H856 H 0.8588 0.69953 0.13001 0.0
H857 H 0.86133 0.67821 0.08197 0.0
H858 H 0.94311 0.5883 0.22694 0.0
H859 H 0.94372 0.56783 0.17774 0.0
H860 H 0.94211 0.6339 0.25374 0.0
H861 H 0.91834 0.66731 0.25554 0.0
C862 C 0.60415 0.75757 0.41103 0.0
C863 C 0.6188 0.74898 0.37175 0.0
C864 C 0.62895 0.69555 0.40112 0.0
C865 C 0.61018 0.70308 0.43671 0.0
N866 N 0.59826 0.74526 0.48667 0.0
N867 N 0.64829 0.71105 0.33072 0.0
C868 C 0.60347 0.73541 0.44526 0.0
C869 C 0.63235 0.71833 0.36724 0.0
N870 N 0.58911 0.78592 0.4151 0.0
N871 N 0.64583 0.66833 0.40218 0.0
H872 H 0.65366 0.72794 0.30723 0.0
H873 H 0.65546 0.6881 0.32293 0.0
H874 H 0.64684 0.65396 0.42964 0.0
H875 H 0.6615 0.66199 0.3787 0.0
H876 H 0.5752 0.7911 0.44135 0.0
H877 H 0.58783 0.80304 0.39086 0.0
H878 H 0.59564 0.76919 0.49522 0.0
H879 H 0.60107 0.73 0.513 0.0
C880 C 0.48789 0.37221 0.20728 0.0
C881 C 0.48309 0.38001 0.16308 0.0
C882 C 0.43 0.39269 0.17978 0.0
C883 C 0.43447 0.38019 0.22168 0.0
N884 N 0.46971 0.37851 0.28037 0.0
N885 N 0.45131 0.40433 0.10893 0.0
C886 C 0.46419 0.37675 0.23707 0.0
C887 C 0.45458 0.39244 0.14977 0.0
N888 N 0.51403 0.35815 0.22074 0.0
N889 N 0.40336 0.40731 0.17051 0.0
H890 H 0.46945 0.4078 0.08804 0.0
H891 H 0.43087 0.41112 0.09549 0.0
H892 H 0.38783 0.4126 0.19478 0.0
H893 H 0.3978 0.41712 0.14076 0.0
H894 H 0.51675 0.34893 0.25175 0.0
H895 H 0.53194 0.35261 0.20041 0.0
H896 H 0.49136 0.37873 0.29334 0.0
H897 H 0.45267 0.38396 0.30249 0.0
C898 C 0.38162 0.66808 0.957 0.0
C899 C 0.38962 0.63562 0.96111 0.0
C900 C 0.37557 0.62575 0.88623 0.0
C901 C 0.37524 0.65926 0.87947 0.0
N902 N 0.37496 0.71276 0.90838 0.0
N903 N 0.37679 0.58261 0.93874 0.0
C904 C 0.37653 0.68061 0.91507 0.0
C905 C 0.38091 0.61399 0.92847 0.0
N906 N 0.3782 0.68637 0.99313 0.0
N907 N 0.37202 0.60535 0.85212 0.0
H908 H 0.37898 0.57453 0.9705 0.0
H909 H 0.3684 0.56563 0.91735 0.0
H910 H 0.36669 0.61321 0.82109 0.0
H911 H 0.37552 0.58082 0.85417 0.0
H912 H 0.37043 0.70978 0.99247 0.0
H913 H 0.3794 0.67653 0.02404 0.0
H914 H 0.37919 0.72974 0.93221 0.0
H915 H 0.37119 0.72242 0.87795 0.0
C916 C 0.05902 0.62046 0.70405 0.0
C917 C 0.06231 0.65261 0.71811 0.0
C918 C 0.02087 0.66911 0.67075 0.0
C919 C 0.01627 0.63675 0.65887 0.0
N920 N 0.02838 0.58099 0.66677 0.0
N921 N 0.04236 0.70667 0.72059 0.0
C922 C 0.03456 0.61219 0.67639 0.0
C923 C 0.04204 0.6766 0.70331 0.0
N924 N 0.0793 0.59789 0.71713 0.0
N925 N 0.00558 0.69312 0.65023 0.0
H926 H 0.05877 0.71522 0.74137 0.0
H927 H 0.02485 0.72293 0.71641 0.0
H928 H 0.98839 0.68939 0.62803 0.0
H929 H 0.01152 0.71712 0.65269 0.0
H930 H 0.0805 0.57499 0.70416 0.0
H931 H 0.09606 0.60245 0.73987 0.0
H932 H 0.03858 0.56166 0.68196 0.0
H933 H 0.01161 0.57423 0.64507 0.0
C934 C 0.0451 0.29708 0.42824 0.0
C935 C 0.0167 0.3096 0.41667 0.0
C936 C 0.031 0.31071 0.34137 0.0
C937 C 0.05904 0.2961 0.35169 0.0
N938 N 0.08768 0.26577 0.40431 0.0
N939 N 0.97876 0.31438 0.36194 0.0
C940 C 0.06476 0.28637 0.39501 0.0
C941 C 0.00832 0.31165 0.37306 0.0
N942 N 0.05338 0.2957 0.47063 0.0
N943 N 0.02651 0.32588 0.30285 0.0
H944 H 0.96167 0.31285 0.38501 0.0
H945 H 0.97145 0.31398 0.32993 0.0
H946 H 0.0436 0.32982 0.28041 0.0
H947 H 0.0068 0.33845 0.29602 0.0
H948 H 0.07515 0.28995 0.48048 0.0
H949 H 0.03878 0.30202 0.49568 0.0
H950 H 0.09099 0.25616 0.43497 0.0
H951 H 0.10105 0.25522 0.38064 0.0
C952 C 0.49109 0.62709 0.33553 0.0
C953 C 0.5059 0.6501 0.36173 0.0
C954 C 0.47651 0.69284 0.32811 0.0
C955 C 0.46006 0.66974 0.30395 0.0
N956 N 0.44954 0.61453 0.28746 0.0
N957 N 0.51011 0.70428 0.38753 0.0
C958 C 0.46655 0.63671 0.30879 0.0
C959 C 0.49781 0.68274 0.35936 0.0
N960 N 0.50112 0.59621 0.33524 0.0
N961 N 0.47229 0.72473 0.32098 0.0
H962 H 0.52758 0.69882 0.40871 0.0
H963 H 0.50141 0.72712 0.39215 0.0
H964 H 0.45438 0.73419 0.30364 0.0
H965 H 0.48773 0.74193 0.33072 0.0
H966 H 0.49369 0.57894 0.31356 0.0
H967 H 0.51861 0.58826 0.35487 0.0
H968 H 0.45065 0.59012 0.29353 0.0
H969 H 0.43295 0.62056 0.26516 0.0
C970 C 0.06441 0.67301 0.06826 0.0
C971 C 0.03857 0.65551 0.08107 0.0
C972 C 0.05976 0.64793 0.15236 0.0
C973 C 0.0838 0.66897 0.14229 0.0
N974 N 0.10549 0.70677 0.09167 0.0
N975 N 0.00719 0.63847 0.13979 0.0
C976 C 0.08538 0.68299 0.1004 0.0
C977 C 0.03492 0.64645 0.12446 0.0
N978 N 0.06918 0.67969 0.02564 0.0
N979 N 0.06074 0.6289 0.18814 0.0
H980 H 0.98803 0.64195 0.12103 0.0
H981 H 0.00304 0.6335 0.17227 0.0
H982 H 0.07968 0.62738 0.20794 0.0
H983 H 0.0442 0.6119 0.19477 0.0
H984 H 0.08922 0.68942 0.01407 0.0
H985 H 0.05388 0.67344 0.00154 0.0
H986 H 0.1051 0.71995 0.06314 0.0
H987 H 0.12088 0.71534 0.1141 0.0
C988 C 0.08562 0.35554 0.77011 0.0
C989 C 0.08799 0.32298 0.75739 0.0
C990 C 0.05126 0.30825 0.81335 0.0
C991 C 0.04568 0.34097 0.82163 0.0
N992 N 0.05619 0.39629 0.80718 0.0
N993 N 0.06775 0.26884 0.76258 0.0
C994 C 0.06257 0.36482 0.79987 0.0
C995 C 0.06933 0.29952 0.77764 0.0
N996 N 0.10501 0.37762 0.75333 0.0
N997 N 0.03965 0.28505 0.83971 0.0
H998 H 0.08134 0.25928 0.73871 0.0
H999 H 0.05091 0.25292 0.77189 0.0
H1000 H 0.02587 0.28949 0.86618 0.0
H1001 H 0.04599 0.26113 0.83786 0.0
H1002 H 0.10663 0.40097 0.76467 0.0
H1003 H 0.12082 0.37216 0.72951 0.0
H1004 H 0.06508 0.41491 0.78894 0.0
H1005 H 0.0407 0.4037 0.8305 0.0
C1006 C 0.42226 0.32447 0.5577 0.0
C1007 C 0.44494 0.34585 0.57251 0.0
C1008 C 0.41297 0.35977 0.63327 0.0
C1009 C 0.39579 0.33203 0.62634 0.0
N1010 N 0.3802 0.29037 0.57719 0.0
N1011 N 0.46405 0.3773 0.63172 0.0
C1012 C 0.39883 0.31527 0.5867 0.0
C1013 C 0.44062 0.36257 0.61173 0.0
N1014 N 0.42273 0.31367 0.51606 0.0
N1015 N 0.40432 0.38148 0.66373 0.0
H1016 H 0.48595 0.3738 0.6211 0.0
H1017 H 0.46226 0.38802 0.66204 0.0
H1018 H 0.38398 0.37912 0.68042 0.0
H1019 H 0.41587 0.40286 0.66873 0.0
H1020 H 0.4053 0.30045 0.50247 0.0
H1021 H 0.43907 0.32068 0.49379 0.0
H1022 H 0.38406 0.27463 0.55171 0.0
H1023 H 0.36088 0.28538 0.59498 0.0
C1024 C 0.25741 0.30072 0.20727 0.0
C1025 C 0.27167 0.3161 0.24265 0.0
C1026 C 0.22538 0.31129 0.28514 0.0
C1027 C 0.21001 0.30037 0.24783 0.0
N1028 N 0.21039 0.28793 0.17168 0.0
N1029 N 0.26824 0.34008 0.31349 0.0
C1030 C 0.22576 0.29568 0.20844 0.0
C1031 C 0.25547 0.3223 0.28128 0.0
N1032 N 0.27424 0.2901 0.17315 0.0
N1033 N 0.21144 0.31034 0.32453 0.0
H1034 H 0.29007 0.34914 0.31175 0.0
H1035 H 0.25628 0.34831 0.34023 0.0
H1036 H 0.1896 0.30169 0.32873 0.0
H1037 H 0.22253 0.31497 0.35349 0.0
H1038 H 0.26556 0.27587 0.14854 0.0
H1039 H 0.29756 0.29291 0.17149 0.0
H1040 H 0.22021 0.28785 0.14111 0.0
H1041 H 0.18721 0.28403 0.17111 0.0
C1042 C 0.98945 0.9725 0.53448 0.0
C1043 C 0.00904 0.95103 0.51268 0.0
C1044 C 0.02564 0.99396 0.46425 0.0
C1045 C 0.00506 0.01489 0.48484 0.0
N1046 N 0.96427 0.02392 0.53481 0.0
N1047 N 0.04377 0.93974 0.45453 0.0
C1048 C 0.98613 0.00414 0.51873 0.0
C1049 C 0.02643 0.96126 0.47667 0.0
N1050 N 0.97425 0.96267 0.57052 0.0
N1051 N 0.04517 0.00573 0.43397 0.0
H1052 H 0.04659 0.9161 0.46423 0.0
H1053 H 0.05416 0.94465 0.42514 0.0
H1054 H 0.04486 0.02947 0.42374 0.0
H1055 H 0.063 0.99278 0.42093 0.0
H1056 H 0.96267 0.97802 0.59114 0.0
H1057 H 0.97449 0.93914 0.58134 0.0
H1058 H 0.94745 0.01654 0.55599 0.0
H1059 H 0.96148 0.04747 0.5246 0.0
C1060 C 0.26524 0.74194 0.71605 0.0
C1061 C 0.28605 0.71704 0.72456 0.0
C1062 C 0.2449 0.67794 0.72714 0.0
C1063 C 0.22419 0.70279 0.71807 0.0
N1064 N 0.21415 0.75695 0.69653 0.0
N1065 N 0.29668 0.66054 0.73219 0.0
C1066 C 0.23425 0.73439 0.71022 0.0
C1067 C 0.27621 0.68475 0.72772 0.0
N1068 N 0.27509 0.77286 0.71477 0.0
N1069 N 0.23447 0.64825 0.73811 0.0
H1070 H 0.31962 0.66407 0.73689 0.0
H1071 H 0.29125 0.6365 0.72855 0.0
H1072 H 0.21174 0.64206 0.73761 0.0
H1073 H 0.24795 0.63024 0.75079 0.0
H1074 H 0.26082 0.79256 0.71381 0.0
H1075 H 0.29783 0.77895 0.71668 0.0
H1076 H 0.22027 0.7797 0.68626 0.0
H1077 H 0.19129 0.75211 0.69234 0.0
C1078 C 0.41799 0.03342 0.98079 0.0
C1079 C 0.44189 0.04985 0.00161 0.0
C1080 C 0.4717 0.00088 0.00355 0.0
C1081 C 0.44895 0.98491 0.97957 0.0
N1082 N 0.40224 0.98649 0.94032 0.0
N1083 N 0.49378 0.05115 0.02489 0.0
C1084 C 0.42251 0.00132 0.96675 0.0
C1085 C 0.46954 0.03424 0.01014 0.0
N1086 N 0.39098 0.04841 0.97492 0.0
N1087 N 0.49435 0.9839 0.02281 0.0
H1088 H 0.49305 0.0755 0.03175 0.0
H1089 H 0.5154 0.04158 0.02678 0.0
H1090 H 0.49624 0.95912 0.021 0.0
H1091 H 0.50948 0.99393 0.04463 0.0
H1092 H 0.37163 0.03679 0.96432 0.0
H1093 H 0.38747 0.07233 0.98296 0.0
H1094 H 0.38392 -0.00198 0.92637 0.0
H1095 H 0.40505 0.96303 0.92965 0.0
C1096 C 0.24548 0.67191 0.23499 0.0
C1097 C 0.23017 0.70122 0.24266 0.0
C1098 C 0.27775 0.72586 0.26545 0.0
C1099 C 0.2932 0.69705 0.2557 0.0
N1100 N 0.29305 0.64489 0.22274 0.0
N1101 N 0.23368 0.75841 0.25216 0.0
C1102 C 0.27741 0.67069 0.23805 0.0
C1103 C 0.24677 0.72893 0.25441 0.0
N1104 N 0.22939 0.64481 0.22609 0.0
N1105 N 0.29246 0.75003 0.28627 0.0
H1106 H 0.21191 0.762 0.24063 0.0
H1107 H 0.24557 0.7796 0.25657 0.0
H1108 H 0.31514 0.74871 0.29475 0.0
H1109 H 0.28154 0.77016 0.29841 0.0
H1110 H 0.23886 0.62206 0.22559 0.0
H1111 H 0.20606 0.64457 0.22226 0.0
H1112 H 0.28319 0.62653 0.20501 0.0
H1113 H 0.31645 0.64314 0.22432 0.0
C1114 C 0.44465 -0.00285 0.51303 0.0
C1115 C 0.45347 0.98074 0.47497 0.0
C1116 C 0.47924 0.02871 0.44866 0.0
C1117 C 0.47425 0.04334 0.48938 0.0
N1118 N 0.45232 0.04254 0.56059 0.0
N1119 N 0.48079 0.97961 0.40742 0.0
C1120 C 0.45678 0.02792 0.52158 0.0
C1121 C 0.47073 -0.00367 0.44259 0.0
N1122 N 0.42407 0.98357 0.54029 0.0
N1123 N 0.49259 0.04554 0.41598 0.0
H1124 H 0.47497 0.95595 0.40125 0.0
H1125 H 0.49674 0.98829 0.38575 0.0
H1126 H 0.5007 0.06872 0.41964 0.0
H1127 H 0.49356 0.03753 0.38417 0.0
H1128 H 0.41451 0.99537 0.56654 0.0
H1129 H 0.41448 0.96123 0.53449 0.0
H1130 H 0.44312 0.03114 0.58739 0.0
H1131 H 0.45905 0.06598 0.56678 0.0
C1132 C 0.25718 0.24545 0.69234 0.0
C1133 C 0.24237 0.25206 0.73207 0.0
C1134 C 0.28471 0.22875 0.77167 0.0
C1135 C 0.30033 0.22556 0.73198 0.0
N1136 N 0.29405 0.21184 0.65706 0.0
N1137 N 0.23698 0.23853 0.80764 0.0
C1138 C 0.28402 0.22739 0.69302 0.0
C1139 C 0.25451 0.24007 0.77138 0.0
N1140 N 0.24697 0.25794 0.65433 0.0
N1141 N 0.29913 0.22147 0.80928 0.0
H1142 H 0.21433 0.24513 0.80788 0.0
H1143 H 0.2439 0.22786 0.8363 0.0
H1144 H 0.32016 0.21029 0.80934 0.0
H1145 H 0.29066 0.22689 0.83979 0.0
H1146 H 0.25888 0.25576 0.62543 0.0
H1147 H 0.22851 0.27322 0.65232 0.0
H1148 H 0.28182 0.21105 0.62835 0.0
H1149 H 0.31235 0.19622 0.65826 0.0
C1150 C 0.01241 0.01074 0.95223 0.0
C1151 C 0.02854 0.03394 0.97626 0.0
C1152 C 0.04058 0.99412 0.03174 0.0
C1153 C 0.02401 0.97114 0.008 0.0
N1154 N 0.98902 0.9585 0.95085 0.0
N1155 N 0.05414 0.04995 0.04131 0.0
C1156 C 0.00843 0.97973 0.96972 0.0
C1157 C 0.04134 0.02634 0.01696 0.0
N1158 N 0.00142 0.01821 0.91222 0.0
N1159 N 0.05632 0.9848 0.06749 0.0
H1160 H 0.05565 0.07357 0.03085 0.0
H1161 H 0.0614 0.04682 0.07296 0.0
H1162 H 0.05575 0.96147 0.07931 0.0
H1163 H 0.07133 -0.00057 0.084 0.0
H1164 H 0.99301 0.00137 0.89063 0.0
H1165 H 0.00217 0.04121 0.89935 0.0
H1166 H 0.97437 0.96448 0.92594 0.0
H1167 H 0.98566 0.93535 0.96228 0.0
C1168 C 0.72528 0.78773 0.79109 0.0
C1169 C 0.73792 0.77727 0.75135 0.0
C1170 C 0.68763 0.76295 0.72488 0.0
C1171 C 0.67532 0.77301 0.76479 0.0
N1172 N 0.68261 0.78628 0.83979 0.0
N1173 N 0.73244 0.74753 0.68502 0.0
C1174 C 0.69432 0.78221 0.7993 0.0
C1175 C 0.71947 0.7625 0.7196 0.0
N1176 N 0.74208 0.80523 0.81958 0.0
N1177 N 0.66886 0.75482 0.69174 0.0
H1178 H 0.75572 0.74615 0.68081 0.0
H1179 H 0.72037 0.73398 0.66277 0.0
H1180 H 0.64554 0.75351 0.69554 0.0
H1181 H 0.67623 0.7509 0.66023 0.0
H1182 H 0.73296 0.81649 0.84661 0.0
H1183 H 0.76451 0.81134 0.81431 0.0
H1184 H 0.69587 0.78987 0.86709 0.0
H1185 H 0.65987 0.78287 0.8468 0.0
C1186 C 0.73859 0.19656 0.19627 0.0
C1187 C 0.72477 0.17803 0.22918 0.0
C1188 C 0.77364 0.17213 0.26468 0.0
C1189 C 0.78792 0.18645 0.22843 0.0
N1190 N 0.78413 0.20755 0.15606 0.0
N1191 N 0.73004 0.14353 0.29115 0.0
C1192 C 0.77045 0.19744 0.19317 0.0
C1193 C 0.74253 0.16453 0.2625 0.0
N1194 N 0.72129 0.21451 0.16917 0.0
N1195 N 0.78938 0.16711 0.30197 0.0
H1196 H 0.70744 0.13683 0.2902 0.0
H1197 H 0.74275 0.13046 0.3132 0.0
H1198 H 0.81183 0.17379 0.3058 0.0
H1199 H 0.77927 0.15963 0.33061 0.0
H1200 H 0.73022 0.23082 0.14722 0.0
H1201 H 0.69798 0.21574 0.1722 0.0
H1202 H 0.77228 0.21268 0.12788 0.0
H1203 H 0.80743 0.20787 0.15198 0.0
C1204 C 0.72019 0.18679 0.78645 0.0
C1205 C 0.71729 0.21987 0.777 0.0
C1206 C 0.77205 0.22589 0.7804 0.0
C1207 C 0.7749 0.19212 0.78101 0.0
N1208 N 0.75192 0.1399 0.782 0.0
N1209 N 0.73968 0.27161 0.76738 0.0
C1210 C 0.74909 0.17239 0.78434 0.0
C1211 C 0.74305 0.23972 0.77537 0.0
N1212 N 0.69541 0.1689 0.79649 0.0
N1213 N 0.79709 0.24459 0.7848 0.0
H1214 H 0.71858 0.28259 0.76636 0.0
H1215 H 0.75749 0.28691 0.76031 0.0
H1216 H 0.81866 0.23509 0.78826 0.0
H1217 H 0.79636 0.26928 0.78859 0.0
H1218 H 0.69672 0.14556 0.80792 0.0
H1219 H 0.67368 0.17805 0.79791 0.0
H1220 H 0.73371 0.12447 0.77837 0.0
H1221 H 0.7726 0.12822 0.78013 0.0
C1222 C 0.75159 0.78975 0.18487 0.0
C1223 C 0.77135 0.78523 0.22041 0.0
C1224 C 0.72796 0.7852 0.26937 0.0
C1225 C 0.70914 0.79532 0.23492 0.0
N1226 N 0.70373 0.81051 0.16016 0.0
N1227 N 0.77863 0.78256 0.29767 0.0
C1228 C 0.72104 0.79822 0.19259 0.0
C1229 C 0.75963 0.78367 0.26302 0.0
N1230 N 0.76186 0.78511 0.1437 0.0
N1231 N 0.7155 0.7762 0.30789 0.0
H1232 H 0.802 0.78195 0.29475 0.0
H1233 H 0.77128 0.78508 0.32946 0.0
H1234 H 0.69232 0.77616 0.31344 0.0
H1235 H 0.72784 0.76561 0.33262 0.0
H1236 H 0.74783 0.78508 0.11676 0.0
H1237 H 0.78385 0.77787 0.1369 0.0
H1238 H 0.7123 0.81649 0.12989 0.0
H1239 H 0.68135 0.81735 0.16451 0.0
C1240 C 0.51598 0.47683 0.05289 0.0
C1241 C 0.53559 0.46059 0.02412 0.0
C1242 C 0.53348 0.50566 0.97367 0.0
C1243 C 0.51154 0.52026 0.0005 0.0
N1244 N 0.477 0.5165 0.0609 0.0
N1245 N 0.5616 0.45753 0.95595 0.0
C1246 C 0.50163 0.50515 0.03905 0.0
C1247 C 0.54401 0.47445 0.9841 0.0
N1248 N 0.51073 0.46509 0.09344 0.0
N1249 N 0.54452 0.52192 0.93884 0.0
H1250 H 0.57056 0.43519 0.96352 0.0
H1251 H 0.56598 0.46472 0.9244 0.0
H1252 H 0.53706 0.54475 0.93059 0.0
H1253 H 0.56249 0.51397 0.92009 0.0
H1254 H 0.49972 0.47803 0.11749 0.0
H1255 H 0.51934 0.44347 0.10448 0.0
H1256 H 0.46654 0.50412 0.08592 0.0
H1257 H 0.46492 0.53669 0.05161 0.0
C1258 C 0.9916 0.48515 0.51502 0.0
C1259 C 0.96733 0.47023 0.49294 0.0
C1260 C 0.93889 0.52033 0.49371 0.0
C1261 C 0.96217 0.53452 0.51847 0.0
N1262 N 0.0093 0.5307 0.55647 0.0
N1263 N 0.91695 0.47189 0.4642 0.0
C1264 C 0.98828 0.51707 0.52995 0.0
C1265 C 0.94064 0.48732 0.48319 0.0
N1266 N 0.01789 0.46878 0.52146 0.0
N1267 N 0.91557 0.53878 0.47921 0.0
H1268 H 0.91792 0.44809 0.45435 0.0
H1269 H 0.89567 0.48191 0.46053 0.0
H1270 H 0.91366 0.56306 0.48632 0.0
H1271 H 0.89937 0.53089 0.45743 0.0
H1272 H 0.03765 0.47933 0.53247 0.0
H1273 H 0.02053 0.4447 0.51371 0.0
H1274 H 0.02704 0.51822 0.57044 0.0
H1275 H 0.00808 0.55442 0.56667 0.0
C1276 C 0.95584 0.45264 0.9858 0.0
C1277 C 0.97311 0.44503 0.94849 0.0
C1278 C 0.99297 0.49959 0.94595 0.0
C1279 C 0.97512 0.50738 0.98256 0.0
N1280 N 0.93608 0.49394 0.03326 0.0
N1281 N 0.00472 0.46161 0.88916 0.0
C1282 C 0.95554 0.48461 0.00135 0.0
C1283 C 0.99049 0.46871 0.92721 0.0
N1284 N 0.93991 0.42923 0.00648 0.0
N1285 N 0.01346 0.52119 0.93054 0.0
H1286 H 0.00512 0.43874 0.87584 0.0
H1287 H 0.01464 0.47868 0.86931 0.0
H1288 H 0.01561 0.54428 0.94282 0.0
H1289 H 0.02975 0.51577 0.90748 0.0
H1290 H 0.92987 0.43216 0.0366 0.0
H1291 H 0.93789 0.40603 0.99456 0.0
H1292 H 0.91908 0.47953 0.04568 0.0
H1293 H 0.93532 0.51727 0.04513 0.0
C1294 C 0.57864 0.4772 0.48714 0.0
C1295 C 0.5505 0.46489 0.47375 0.0
C1296 C 0.53646 0.51629 0.44254 0.0
C1297 C 0.56409 0.52914 0.45741 0.0
N1298 N 0.61439 0.52103 0.48464 0.0
N1299 N 0.50685 0.46868 0.42842 0.0
C1300 C 0.5863 0.5092 0.47638 0.0
C1301 C 0.53091 0.48319 0.44769 0.0
N1302 N 0.59709 0.45886 0.51223 0.0
N1303 N 0.51506 0.53595 0.42525 0.0
H1304 H 0.50267 0.44427 0.43179 0.0
H1305 H 0.49292 0.4799 0.4061 0.0
H1306 H 0.51851 0.56034 0.42064 0.0
H1307 H 0.49324 0.52866 0.41806 0.0
H1308 H 0.61625 0.46748 0.52765 0.0
H1309 H 0.59245 0.43494 0.51899 0.0
H1310 H 0.63239 0.50699 0.49471 0.0
H1311 H 0.62036 0.54469 0.4785 0.0
C1312 C 0.05386 0.31599 0.07664 0.0
C1313 C 0.04019 0.29376 0.04808 0.0
C1314 C 0.05903 0.2493 0.09193 0.0
C1315 C 0.07211 0.27153 0.12067 0.0
N1316 N 0.09079 0.32489 0.13282 0.0
N1317 N 0.03856 0.23992 0.02055 0.0
C1318 C 0.07285 0.30445 0.11002 0.0
C1319 C 0.04567 0.26053 0.05315 0.0
N1320 N 0.04676 0.34773 0.07469 0.0
N1321 N 0.05857 0.21765 0.10249 0.0
H1322 H 0.03068 0.2479 0.99072 0.0
H1323 H 0.04352 0.21562 0.02129 0.0
H1324 H 0.06969 0.20877 0.12964 0.0
H1325 H 0.04623 0.20064 0.08552 0.0
H1326 H 0.05334 0.36419 0.09809 0.0
H1327 H 0.03198 0.35744 0.0522 0.0
H1328 H 0.09427 0.34858 0.12384 0.0
H1329 H 0.10472 0.31739 0.15786 0.0
C1330 C 0.91652 0.76364 0.36716 0.0
C1331 C 0.92513 0.78136 0.33013 0.0
C1332 C 0.96207 0.81081 0.37296 0.0
C1333 C 0.95185 0.79531 0.411 0.0
N1334 N 0.91487 0.76152 0.44549 0.0
N1335 N 0.9488 0.82879 0.30154 0.0
C1336 C 0.92768 0.77303 0.40851 0.0
C1337 C 0.94548 0.80726 0.33436 0.0
N1338 N 0.89881 0.73719 0.36275 0.0
N1339 N 0.98879 0.82703 0.37247 0.0
H1340 H 0.93613 0.82775 0.27321 0.0
H1341 H 0.96151 0.8496 0.30466 0.0
H1342 H 0.00334 0.82806 0.3988 0.0
H1343 H -0.00169 0.83603 0.34419 0.0
H1344 H 0.89456 0.72134 0.38794 0.0
H1345 H 0.89017 0.72982 0.33308 0.0
H1346 H 0.89548 0.74753 0.44566 0.0
H1347 H 0.92187 0.76849 0.47622 0.0
C1348 C 0.4629 0.70291 0.63857 0.0
C1349 C 0.45688 0.67857 0.66919 0.0
C1350 C 0.4896 0.64152 0.62929 0.0
C1351 C 0.49471 0.66542 0.59766 0.0
N1352 N 0.48065 0.71604 0.56659 0.0
N1353 N 0.45785 0.62254 0.68747 0.0
C1354 C 0.4796 0.69529 0.60061 0.0
C1355 C 0.46818 0.64719 0.66258 0.0
N1356 N 0.45385 0.73354 0.64663 0.0
N1357 N 0.50637 0.61413 0.62917 0.0
H1358 H 0.44176 0.62556 0.71171 0.0
H1359 H 0.46289 0.59869 0.6812 0.0
H1360 H 0.52247 0.60894 0.60568 0.0
H1361 H 0.50613 0.59773 0.65444 0.0
H1362 H 0.4604 0.75297 0.62787 0.0
H1363 H 0.44164 0.73997 0.6741 0.0
H1364 H 0.46778 0.7368 0.56497 0.0
H1365 H 0.49219 0.71092 0.53802 0.0
C1366 C 0.55567 0.22862 0.87492 0.0
C1367 C 0.54947 0.2095 0.83811 0.0
C1368 C 0.51097 0.18082 0.87892 0.0
C1369 C 0.52005 0.19658 0.91741 0.0
N1370 N 0.55585 0.23123 0.95303 0.0
N1371 N 0.52785 0.16056 0.81028 0.0
C1372 C 0.54382 0.21932 0.91576 0.0
C1373 C 0.52914 0.18351 0.84162 0.0
N1374 N 0.57183 0.2562 0.8708 0.0
N1375 N 0.48415 0.16492 0.87668 0.0
H1376 H 0.54216 0.16027 0.78356 0.0
H1377 H 0.51498 0.13987 0.81359 0.0
H1378 H 0.46842 0.16475 0.90165 0.0
H1379 H 0.47585 0.15553 0.84784 0.0
H1380 H 0.57437 0.27254 0.89593 0.0
H1381 H 0.58007 0.26431 0.84123 0.0
H1382 H 0.5749 0.24574 0.95353 0.0
H1383 H 0.54888 0.22387 0.98361 0.0
C1384 C 0.04303 0.71941 0.43261 0.0
C1385 C 0.03349 0.68721 0.4377 0.0
C1386 C 0.07106 0.67112 0.38385 0.0
C1387 C 0.07445 0.70341 0.37143 0.0
N1388 N 0.06427 0.75894 0.38403 0.0
N1389 N 0.03735 0.63198 0.41431 0.0
C1390 C 0.06096 0.72785 0.39628 0.0
C1391 C 0.04772 0.66271 0.41311 0.0
N1392 N 0.03547 0.74168 0.46295 0.0
N1393 N 0.08927 0.64838 0.36597 0.0
H1394 H 0.01915 0.62458 0.43294 0.0
H1395 H 0.04495 0.61423 0.39336 0.0
H1396 H 0.10627 0.65409 0.344 0.0
H1397 H 0.0896 0.62472 0.37638 0.0
H1398 H 0.0437 0.76497 0.46258 0.0
H1399 H 0.02365 0.73573 0.49097 0.0
H1400 H 0.05204 0.77763 0.39775 0.0
H1401 H 0.07842 0.7656 0.35861 0.0
C1402 C 0.52857 0.80432 0.66923 0.0
C1403 C 0.53813 0.8294 0.69683 0.0
C1404 C 0.51829 0.86912 0.64605 0.0
C1405 C 0.50884 0.84403 0.61831 0.0
N1406 N 0.5133 0.78884 0.59706 0.0
N1407 N 0.5501 0.88506 0.70594 0.0
C1408 C 0.51676 0.81195 0.62785 0.0
C1409 C 0.53569 0.86163 0.68321 0.0
N1410 N 0.52887 0.77342 0.68341 0.0
N1411 N 0.50899 0.89977 0.6388 0.0
H1412 H 0.56327 0.88015 0.73304 0.0
H1413 H 0.55155 0.90864 0.69546 0.0
H1414 H 0.496 0.90645 0.61234 0.0
H1415 H 0.5122 0.91824 0.66087 0.0
H1416 H 0.51876 0.75471 0.66662 0.0
H1417 H 0.53727 0.7667 0.71348 0.0
H1418 H 0.52131 0.76562 0.60068 0.0
H1419 H 0.50523 0.79382 0.56614 0.0
C1420 C 0.44566 0.33725 0.86376 0.0
C1421 C 0.43956 0.30531 0.85119 0.0
C1422 C 0.45707 0.28692 0.92153 0.0
C1423 C 0.46917 0.31764 0.9298 0.0
N1424 N 0.47789 0.37185 0.90539 0.0
N1425 N 0.44124 0.24894 0.86709 0.0
C1426 C 0.46391 0.34299 0.90039 0.0
C1427 C 0.44534 0.27984 0.87998 0.0
N1428 N 0.4338 0.36212 0.84081 0.0
N1429 N 0.45615 0.26481 0.95376 0.0
H1430 H 0.43274 0.24284 0.83681 0.0
H1431 H 0.44845 0.22944 0.88524 0.0
H1432 H 0.46371 0.26983 0.98495 0.0
H1433 H 0.44505 0.24302 0.95063 0.0
H1434 H 0.43532 0.38581 0.85092 0.0
H1435 H 0.41961 0.35875 0.81435 0.0
H1436 H 0.47733 0.38965 0.88191 0.0
H1437 H 0.49232 0.37718 0.93086 0.0
C1438 C 0.95062 0.1877 0.10887 0.0
C1439 C 0.93337 0.21618 0.10994 0.0
C1440 C 0.93776 0.22 0.03116 0.0
C1441 C 0.95911 0.1946 0.03155 0.0
N1442 N 0.99207 0.16102 0.07448 0.0
N1443 N 0.91178 0.26102 0.07276 0.0
C1444 C 0.96714 0.18006 0.07132 0.0
C1445 C 0.92707 0.23277 0.07119 0.0
N1446 N 0.95129 0.16783 0.14388 0.0
N1447 N 0.9272 0.23136 0.99274 0.0
H1448 H 0.90318 0.27032 0.10154 0.0
H1449 H 0.90933 0.27606 0.04622 0.0
H1450 H 0.93409 0.2222 0.96297 0.0
H1451 H 0.90962 0.24771 0.99057 0.0
H1452 H 0.96147 0.14539 0.14305 0.0
H1453 H 0.93887 0.17213 0.17193 0.0
H1454 H 0.00012 0.15255 0.10394 0.0
H1455 H 0.0071 0.15715 0.04916 0.0
C1456 C 0.9091 0.65892 0.87685 0.0
C1457 C 0.91883 0.6743 0.91527 0.0
C1458 C 0.89222 0.72313 0.89442 0.0
C1459 C 0.88247 0.70774 0.85601 0.0
N1460 N 0.87384 0.65894 0.81707 0.0
N1461 N 0.91228 0.71699 0.96673 0.0
C1462 C 0.88836 0.67487 0.84941 0.0
C1463 C 0.90791 0.70513 0.92605 0.0
N1464 N 0.92101 0.63009 0.86508 0.0
N1465 N 0.88827 0.75529 0.89962 0.0
H1466 H 0.92318 0.70406 0.9909 0.0
H1467 H 0.90246 0.73808 0.97777 0.0
H1468 H 0.87682 0.76952 0.87749 0.0
H1469 H 0.89824 0.76832 0.92445 0.0
H1470 H 0.91734 0.61963 0.83502 0.0
H1471 H 0.93648 0.61764 0.88392 0.0
H1472 H 0.87517 0.63431 0.81271 0.0
H1473 H 0.85783 0.67006 0.79756 0.0
C1474 C 0.09308 0.15956 0.65279 0.0
C1475 C 0.11039 0.18308 0.63107 0.0
C1476 C 0.1129 0.14863 0.56734 0.0
C1477 C 0.09005 0.12936 0.58541 0.0
N1478 N 0.05872 0.11492 0.6459 0.0
N1479 N 0.13695 0.20044 0.56692 0.0
C1480 C 0.08078 0.13381 0.62877 0.0
C1481 C 0.12113 0.17742 0.58849 0.0
N1482 N 0.08849 0.16193 0.69633 0.0
N1483 N 0.12581 0.13968 0.52914 0.0
H1484 H 0.14297 0.22222 0.58065 0.0
H1485 H 0.14229 0.19897 0.53423 0.0
H1486 H 0.11966 0.11858 0.51341 0.0
H1487 H 0.14428 0.15122 0.51551 0.0
H1488 H 0.07796 0.14427 0.71452 0.0
H1489 H 0.09781 0.18022 0.71493 0.0
H1490 H 0.04799 0.11971 0.67513 0.0
H1491 H 0.05017 0.09501 0.62985 0.0
C1492 C 0.55118 0.28016 0.38744 0.0
C1493 C 0.56971 0.29976 0.41374 0.0
C1494 C 0.61183 0.26255 0.40288 0.0
C1495 C 0.59413 0.24524 0.37282 0.0
N1496 N 0.54946 0.24261 0.32836 0.0
N1497 N 0.61885 0.3121 0.44237 0.0
C1498 C 0.56453 0.25551 0.3627 0.0
C1499 C 0.60041 0.29162 0.42046 0.0
N1500 N 0.52057 0.28385 0.38773 0.0
N1501 N 0.63909 0.25073 0.41559 0.0
H1502 H 0.61133 0.33369 0.45532 0.0
H1503 H 0.64206 0.30903 0.44461 0.0
H1504 H 0.64815 0.22969 0.40299 0.0
H1505 H 0.65155 0.26033 0.44092 0.0
H1506 H 0.506 0.26803 0.37231 0.0
H1507 H 0.50945 0.30035 0.4073 0.0
H1508 H 0.52903 0.2516 0.31714 0.0
H1509 H 0.55879 0.22534 0.30811 0.0
C1510 C 0.38431 0.7965 0.05693 0.0
C1511 C 0.3924 0.82823 0.06747 0.0
C1512 C 0.41872 0.80914 0.13203 0.0
C1513 C 0.40605 0.77846 0.12525 0.0
N1514 N 0.3751 0.74292 0.08286 0.0
N1515 N 0.41716 0.86566 0.1148 0.0
C1516 C 0.38876 0.77195 0.08779 0.0
C1517 C 0.41006 0.83481 0.10458 0.0
N1518 N 0.37271 0.7899 0.01703 0.0
N1519 N 0.43919 0.81354 0.16442 0.0
H1520 H 0.41188 0.88492 0.09487 0.0
H1521 H 0.42683 0.87243 0.144 0.0
H1522 H 0.44578 0.79515 0.18509 0.0
H1523 H 0.45149 0.83447 0.16855 0.0
H1524 H 0.36883 0.76683 0.00582 0.0
H1525 H 0.36981 0.80746 0.99347 0.0
H1526 H 0.35889 0.7384 0.05938 0.0
H1527 H 0.37807 0.72402 0.10434 0.0
C1528 C 0.89562 0.28182 0.56415 0.0
C1529 C 0.90869 0.30917 0.58356 0.0
C1530 C 0.89685 0.28811 0.65535 0.0
C1531 C 0.88946 0.25838 0.63614 0.0
N1532 N 0.88165 0.22617 0.57244 0.0
N1533 N 0.92041 0.34006 0.6468 0.0
C1534 C 0.88802 0.2552 0.59053 0.0
C1535 C 0.90842 0.31303 0.629 0.0
N1536 N 0.89132 0.28102 0.52045 0.0
N1537 N 0.89263 0.29235 0.69874 0.0
H1538 H 0.92733 0.35943 0.62803 0.0
H1539 H 0.92445 0.34293 0.67967 0.0
H1540 H 0.8838 0.27451 0.71859 0.0
H1541 H 0.8953 0.31415 0.71444 0.0
H1542 H 0.87954 0.26299 0.50462 0.0
H1543 H 0.89715 0.29993 0.50026 0.0
H1544 H 0.88393 0.22123 0.53966 0.0
H1545 H 0.87578 0.20616 0.59056 0.0
C1546 C 0.43565 0.2453 0.3437 0.0
C1547 C 0.41204 0.25904 0.36852 0.0
C1548 C 0.42911 0.23011 0.43266 0.0
C1549 C 0.45186 0.21533 0.40724 0.0
N1550 N 0.47202 0.20253 0.33695 0.0
N1551 N 0.38237 0.26021 0.4336 0.0
C1552 C 0.45359 0.22093 0.3622 0.0
C1553 C 0.40749 0.24999 0.41211 0.0
N1554 N 0.44216 0.25673 0.30336 0.0
N1555 N 0.42918 0.2267 0.4766 0.0
H1556 H 0.3663 0.275 0.41935 0.0
H1557 H 0.37615 0.25189 0.46402 0.0
H1558 H 0.44482 0.21273 0.49308 0.0
H1559 H 0.41516 0.2396 0.49718 0.0
H1560 H 0.46142 0.2503 0.28619 0.0
H1561 H 0.42983 0.27471 0.28829 0.0
H1562 H 0.47201 0.20343 0.30333 0.0
H1563 H 0.48515 0.18403 0.34935 0.0
C1564 C 0.54848 0.70354 0.07157 0.0
C1565 C 0.5233 0.68856 0.09132 0.0
C1566 C 0.53681 0.71191 0.1614 0.0
C1567 C 0.56174 0.72727 0.14151 0.0
N1568 N 0.59485 0.73382 0.08073 0.0
N1569 N 0.49619 0.67334 0.15566 0.0
C1570 C 0.56868 0.72179 0.09743 0.0
C1571 C 0.51847 0.69094 0.13656 0.0
N1572 N 0.55278 0.70056 0.02798 0.0
N1573 N 0.52967 0.71887 0.2034 0.0
H1574 H 0.4813 0.65902 0.13829 0.0
H1575 H 0.49358 0.67115 0.18894 0.0
H1576 H 0.54298 0.73337 0.22301 0.0
H1577 H 0.50977 0.7118 0.21838 0.0
H1578 H 0.56892 0.71311 0.01057 0.0
H1579 H 0.53933 0.68611 0.00847 0.0
H1580 H 0.60281 0.72899 0.04982 0.0
H1581 H 0.61005 0.74701 0.09924 0.0
C1582 C 0.14576 0.77684 0.91459 0.0
C1583 C 0.13959 0.77931 0.86985 0.0
C1584 C 0.09879 0.81712 0.88409 0.0
C1585 C 0.10438 0.81421 0.92916 0.0
N1586 N 0.13802 0.79875 0.98636 0.0
N1587 N 0.11763 0.80885 0.81134 0.0
C1588 C 0.1296 0.79654 0.94405 0.0
C1589 C 0.11868 0.80208 0.85449 0.0
N1590 N 0.16565 0.7544 0.92909 0.0
N1591 N 0.07324 0.83173 0.86941 0.0
H1592 H 0.13211 0.79805 0.78908 0.0
H1593 H 0.10476 0.82731 0.79842 0.0
H1594 H 0.05731 0.84235 0.88948 0.0
H1595 H 0.06642 0.83097 0.83725 0.0
H1596 H 0.16833 0.74867 0.96157 0.0
H1597 H 0.17845 0.74023 0.9083 0.0
H1598 H 0.15765 0.78866 -0.00138 0.0
H1599 H 0.12672 0.81338 0.00831 0.0
loop_
_geom_bond_atom_site_label_1
_geom_bond_atom_site_label_2
_geom_bond_distance
_geom_bond_site_symmetry_2
_ccdc_geom_bond_type
Mg0 O1 2.028 . S
Mg0 O7 1.986 . S
Mg0 O9 2.114 . S
Mg0 O10 2.251 . S
Mg0 O13 2.010 . S
O1 Mg0 2.028 . S
O1 C4 1.250 . S
O2 Mg3 2.028 . S
O2 C4 1.248 . S
Mg3 O2 2.028 . S
Mg3 O8 2.032 . S
Mg3 O10 2.079 . S
C4 O1 1.250 . S
C4 O2 1.248 . S
C5 O6 1.264 . S
C5 O13 1.249 . S
O6 C5 1.264 . S
O7 Mg0 1.986 . S
O7 C11 1.246 . S
O8 Mg3 2.032 . S
O8 C11 1.259 . S
O9 Mg0 2.114 . S
O9 C12 1.252 . S
O10 Mg0 2.251 . S
O10 Mg3 2.079 . S
O10 C12 1.273 . S
C11 O7 1.246 . S
C11 O8 1.259 . S
C12 O9 1.252 . S
C12 O10 1.273 . S
O13 Mg0 2.010 . S
O13 C5 1.249 . S
Mg14 O15 2.028 1_455 S
Mg14 O21 1.986 1_455 S
Mg14 O23 2.114 . S
Mg14 O24 2.251 . S
Mg14 O27 2.010 1_455 S
O15 Mg14 2.028 1_655 S
O15 C18 1.250 . S
O16 Mg17 2.028 1_655 S
O16 C18 1.248 . S
Mg17 O16 2.028 1_455 S
Mg17 O22 2.032 . S
Mg17 O24 2.079 . S
C18 O15 1.250 . S
C18 O16 1.248 . S
C19 O20 1.272 . S
C19 O27 1.249 . S
O20 C19 1.272 . S
O21 Mg14 1.986 1_655 S
O21 C25 1.246 1_655 S
O22 Mg17 2.032 . S
O22 C25 1.259 . S
O23 Mg14 2.114 . S
O23 C26 1.252 . S
O24 Mg14 2.251 . S
O24 Mg17 2.079 . S
O24 C26 1.273 . S
C25 O21 1.246 1_455 S
C25 O22 1.259 . S
C26 O23 1.252 . S
C26 O24 1.273 . S
O27 Mg14 2.010 1_655 S
O27 C19 1.249 . S
Mg28 O29 2.028 . S
Mg28 O35 1.986 . S
Mg28 O37 2.114 . S
Mg28 O38 2.251 . S
Mg28 O41 2.010 . S
O29 Mg28 2.028 . S
O29 C32 1.250 . S
O30 Mg31 2.028 . S
O30 C32 1.248 . S
Mg31 O30 2.028 . S
Mg31 O36 2.032 . S
Mg31 O38 2.079 . S
C32 O29 1.250 . S
C32 O30 1.248 . S
C33 O34 1.264 . S
C33 O41 1.249 . S
O34 C33 1.264 . S
O35 Mg28 1.986 . S
O35 C39 1.246 . S
O36 Mg31 2.032 . S
O36 C39 1.259 . S
O37 Mg28 2.114 . S
O37 C40 1.252 . S
O38 Mg28 2.251 . S
O38 Mg31 2.079 . S
O38 C40 1.273 . S
C39 O35 1.246 . S
C39 O36 1.259 . S
C40 O37 1.252 . S
C40 O38 1.273 . S
O41 Mg28 2.010 . S
O41 C33 1.249 . S
Mg42 O43 2.028 . S
Mg42 O49 1.986 . S
Mg42 O51 2.114 . S
Mg42 O52 2.251 . S
Mg42 O55 2.010 1_554 S
O43 Mg42 2.028 . S
O43 C46 1.250 . S
O44 Mg45 2.028 . S
O44 C46 1.248 . S
Mg45 O44 2.028 . S
Mg45 O50 2.032 . S
Mg45 O52 2.079 . S
C46 O43 1.250 . S
C46 O44 1.248 . S
C47 O48 1.264 . S
C47 O55 1.249 . S
O48 C47 1.264 . S
O49 Mg42 1.986 . S
O49 C53 1.246 . S
O50 Mg45 2.032 . S
O50 C53 1.259 . S
O51 Mg42 2.114 . S
O51 C54 1.252 . S
O52 Mg42 2.251 . S
O52 Mg45 2.079 . S
O52 C54 1.273 . S
C53 O49 1.246 . S
C53 O50 1.259 . S
C54 O51 1.252 . S
C54 O52 1.273 . S
O55 Mg42 2.010 1_556 S
O55 C47 1.249 . S
Mg56 O57 2.028 . S
Mg56 O63 1.986 . S
Mg56 O65 2.114 . S
Mg56 O66 2.251 . S
Mg56 O69 2.010 . S
O57 Mg56 2.028 . S
O57 C60 1.250 . S
O58 Mg59 2.028 . S
O58 C60 1.248 . S
Mg59 O58 2.028 . S
Mg59 O64 2.032 . S
Mg59 O66 2.079 . S
C60 O57 1.250 . S
C60 O58 1.248 . S
C61 O62 1.264 . S
C61 O69 1.249 . S
O62 C61 1.264 . S
O63 Mg56 1.986 . S
O63 C67 1.246 . S
O64 Mg59 2.032 . S
O64 C67 1.259 . S
O65 Mg56 2.114 . S
O65 C68 1.252 . S
O66 Mg56 2.251 . S
O66 Mg59 2.079 . S
O66 C68 1.273 . S
C67 O63 1.246 . S
C67 O64 1.259 . S
C68 O65 1.252 . S
C68 O66 1.273 . S
O69 Mg56 2.010 . S
O69 C61 1.249 . S
Mg70 O71 2.028 . S
Mg70 O77 1.986 . S
Mg70 O79 2.114 . S
Mg70 O80 2.251 . S
Mg70 O83 2.010 . S
O71 Mg70 2.028 . S
O71 C74 1.250 . S
O72 Mg73 2.028 . S
O72 C74 1.248 . S
Mg73 O72 2.028 . S
Mg73 O78 2.032 . S
Mg73 O80 2.079 . S
C74 O71 1.250 . S
C74 O72 1.248 . S
C75 O76 1.264 . S
C75 O83 1.249 . S
O76 C75 1.264 . S
O77 Mg70 1.986 . S
O77 C81 1.246 . S
O78 Mg73 2.032 . S
O78 C81 1.259 . S
O79 Mg70 2.114 . S
O79 C82 1.252 . S
O80 Mg70 2.251 . S
O80 Mg73 2.079 . S
O80 C82 1.273 . S
C81 O77 1.246 . S
C81 O78 1.259 . S
C82 O79 1.252 . S
C82 O80 1.273 . S
O83 Mg70 2.010 . S
O83 C75 1.249 . S
Mg84 O85 2.028 . S
Mg84 O91 1.986 . S
Mg84 O93 2.114 . S
Mg84 O94 2.251 . S
Mg84 O97 2.010 . S
O85 Mg84 2.028 . S
O85 C88 1.250 . S
O86 Mg87 2.028 . S
O86 C88 1.248 . S
Mg87 O86 2.028 . S
Mg87 O92 2.032 . S
Mg87 O94 2.079 . S
C88 O85 1.250 . S
C88 O86 1.248 . S
C89 O90 1.264 . S
C89 O97 1.249 . S
O90 C89 1.264 . S
O91 Mg84 1.986 . S
O91 C95 1.246 . S
O92 Mg87 2.032 . S
O92 C95 1.259 . S
O93 Mg84 2.114 . S
O93 C96 1.252 . S
O94 Mg84 2.251 . S
O94 Mg87 2.079 . S
O94 C96 1.273 . S
C95 O91 1.246 . S
C95 O92 1.259 . S
C96 O93 1.252 . S
C96 O94 1.273 . S
O97 Mg84 2.010 . S
O97 C89 1.249 . S
Mg98 O99 2.028 1_455 S
Mg98 O105 1.986 1_455 S
Mg98 O107 2.114 . S
Mg98 O108 2.251 . S
Mg98 O111 2.010 1_456 S
O99 Mg98 2.028 1_655 S
O99 C102 1.250 . S
O100 Mg101 2.028 1_655 S
O100 C102 1.248 . S
Mg101 O100 2.028 1_455 S
Mg101 O106 2.032 . S
Mg101 O108 2.079 . S
C102 O99 1.250 . S
C102 O100 1.248 . S
C103 O104 1.272 . S
C103 O111 1.249 . S
O104 C103 1.272 . S
O105 Mg98 1.986 1_655 S
O105 C109 1.246 1_655 S
O106 Mg101 2.032 . S
O106 C109 1.259 . S
O107 Mg98 2.114 . S
O107 C110 1.252 . S
O108 Mg98 2.251 . S
O108 Mg101 2.079 . S
O108 C110 1.273 . S
C109 O105 1.246 1_455 S
C109 O106 1.259 . S
C110 O107 1.252 . S
C110 O108 1.273 . S
O111 Mg98 2.010 1_654 S
O111 C103 1.249 . S
Mg112 O113 2.028 . S
Mg112 O119 1.986 . S
Mg112 O121 2.114 . S
Mg112 O122 2.251 . S
Mg112 O125 2.010 . S
O113 Mg112 2.028 . S
O113 C116 1.250 . S
O114 Mg115 2.028 . S
O114 C116 1.248 . S
Mg115 O114 2.028 . S
Mg115 O120 2.032 . S
Mg115 O122 2.079 . S
C116 O113 1.250 . S
C116 O114 1.248 . S
C117 O118 1.264 . S
C117 O125 1.249 . S
O118 C117 1.264 . S
O119 Mg112 1.986 . S
O119 C123 1.246 . S
O120 Mg115 2.032 . S
O120 C123 1.259 . S
O121 Mg112 2.114 . S
O121 C124 1.252 . S
O122 Mg112 2.251 . S
O122 Mg115 2.079 . S
O122 C124 1.273 . S
C123 O119 1.246 . S
C123 O120 1.259 . S
C124 O121 1.252 . S
C124 O122 1.273 . S
O125 Mg112 2.010 . S
O125 C117 1.249 . S
Mg126 O127 2.028 . S
Mg126 O133 1.986 . S
Mg126 O135 2.114 1_455 S
Mg126 O136 2.251 1_455 S
Mg126 O139 2.010 . S
O127 Mg126 2.028 . S
O127 C130 1.250 . S
O128 Mg129 2.028 . S
O128 C130 1.248 . S
Mg129 O128 2.028 . S
Mg129 O134 2.032 . S
Mg129 O136 2.079 1_455 S
C130 O127 1.250 . S
C130 O128 1.248 . S
C131 O132 1.264 . S
C131 O139 1.249 . S
O132 C131 1.264 . S
O133 Mg126 1.986 . S
O133 C137 1.246 . S
O134 Mg129 2.032 . S
O134 C137 1.259 . S
O135 Mg126 2.114 1_655 S
O135 C138 1.252 . S
O136 Mg126 2.251 1_655 S
O136 Mg129 2.079 1_655 S
O136 C138 1.273 . S
C137 O133 1.246 . S
C137 O134 1.259 . S
C138 O135 1.252 . S
C138 O136 1.273 . S
O139 Mg126 2.010 . S
O139 C131 1.249 . S
Mg140 O141 2.028 . S
Mg140 O147 1.986 . S
Mg140 O149 2.114 . S
Mg140 O150 2.251 . S
Mg140 O153 2.010 . S
O141 Mg140 2.028 . S
O141 C144 1.250 . S
O142 Mg143 2.028 . S
O142 C144 1.248 . S
Mg143 O142 2.028 . S
Mg143 O148 2.032 . S
Mg143 O150 2.079 . S
C144 O141 1.250 . S
C144 O142 1.248 . S
C145 O146 1.264 . S
C145 O153 1.249 . S
O146 C145 1.264 . S
O147 Mg140 1.986 . S
O147 C151 1.246 . S
O148 Mg143 2.032 . S
O148 C151 1.259 . S
O149 Mg140 2.114 . S
O149 C152 1.252 . S
O150 Mg140 2.251 . S
O150 Mg143 2.079 . S
O150 C152 1.273 . S
C151 O147 1.246 . S
C151 O148 1.259 . S
C152 O149 1.252 . S
C152 O150 1.273 . S
O153 Mg140 2.010 . S
O153 C145 1.249 . S
Mg154 O155 2.028 . S
Mg154 O161 1.986 . S
Mg154 O163 2.114 . S
Mg154 O164 2.251 . S
Mg154 O167 2.010 1_556 S
O155 Mg154 2.028 . S
O155 C158 1.250 . S
O156 Mg157 2.028 . S
O156 C158 1.248 . S
Mg157 O156 2.028 . S
Mg157 O162 2.032 . S
Mg157 O164 2.079 . S
C158 O155 1.250 . S
C158 O156 1.248 . S
C159 O160 1.264 . S
C159 O167 1.249 . S
O160 C159 1.264 . S
O161 Mg154 1.986 . S
O161 C165 1.246 . S
O162 Mg157 2.032 . S
O162 C165 1.259 . S
O163 Mg154 2.114 . S
O163 C166 1.252 . S
O164 Mg154 2.251 . S
O164 Mg157 2.079 . S
O164 C166 1.273 . S
C165 O161 1.246 . S
C165 O162 1.259 . S
C166 O163 1.252 . S
C166 O164 1.273 . S
O167 Mg154 2.010 1_554 S
O167 C159 1.249 . S
Mg168 O169 2.028 . S
Mg168 O175 1.986 . S
Mg168 O177 2.114 . S
Mg168 O178 2.251 . S
Mg168 O181 2.010 . S
O169 Mg168 2.028 . S
O169 C172 1.250 . S
O170 Mg171 2.028 . S
O170 C172 1.248 . S
Mg171 O170 2.028 . S
Mg171 O176 2.032 . S
Mg171 O178 2.079 . S
C172 O169 1.250 . S
C172 O170 1.248 . S
C173 O174 1.264 . S
C173 O181 1.249 . S
O174 C173 1.264 . S
O175 Mg168 1.986 . S
O175 C179 1.246 . S
O176 Mg171 2.032 . S
O176 C179 1.259 . S
O177 Mg168 2.114 . S
O177 C180 1.252 . S
O178 Mg168 2.251 . S
O178 Mg171 2.079 . S
O178 C180 1.273 . S
C179 O175 1.246 . S
C179 O176 1.259 . S
C180 O177 1.252 . S
C180 O178 1.273 . S
O181 Mg168 2.010 . S
O181 C173 1.249 . S
Mg182 O183 2.028 . S
Mg182 O189 1.986 . S
Mg182 O191 2.114 . S
Mg182 O192 2.251 . S
Mg182 O195 2.010 . S
O183 Mg182 2.028 . S
O183 C186 1.250 . S
O184 Mg185 2.028 . S
O184 C186 1.248 . S
Mg185 O184 2.028 . S
Mg185 O190 2.032 . S
Mg185 O192 2.079 . S
C186 O183 1.250 . S
C186 O184 1.248 . S
C187 O188 1.264 . S
C187 O195 1.249 . S
O188 C187 1.264 . S
O189 Mg182 1.986 . S
O189 C193 1.246 . S
O190 Mg185 2.032 . S
O190 C193 1.259 . S
O191 Mg182 2.114 . S
O191 C194 1.252 . S
O192 Mg182 2.251 . S
O192 Mg185 2.079 . S
O192 C194 1.273 . S
C193 O189 1.246 . S
C193 O190 1.259 . S
C194 O191 1.252 . S
C194 O192 1.273 . S
O195 Mg182 2.010 . S
O195 C187 1.249 . S
Mg196 O197 2.028 . S
Mg196 O203 1.986 . S
Mg196 O205 2.114 . S
Mg196 O206 2.251 . S
Mg196 O209 2.010 . S
O197 Mg196 2.028 . S
O197 C200 1.250 . S
O198 Mg199 2.028 . S
O198 C200 1.248 . S
Mg199 O198 2.028 . S
Mg199 O204 2.032 . S
Mg199 O206 2.079 . S
C200 O197 1.250 . S
C200 O198 1.248 . S
C201 O202 1.264 . S
C201 O209 1.249 . S
O202 C201 1.264 . S
O203 Mg196 1.986 . S
O203 C207 1.246 . S
O204 Mg199 2.032 . S
O204 C207 1.259 . S
O205 Mg196 2.114 . S
O205 C208 1.252 . S
O206 Mg196 2.251 . S
O206 Mg199 2.079 . S
O206 C208 1.273 . S
C207 O203 1.246 . S
C207 O204 1.259 . S
C208 O205 1.252 . S
C208 O206 1.273 . S
O209 Mg196 2.010 . S
O209 C201 1.249 . S
Mg210 O211 2.028 . S
Mg210 O217 1.986 . S
Mg210 O219 2.114 1_455 S
Mg210 O220 2.251 1_455 S
Mg210 O223 2.010 1_554 S
O211 Mg210 2.028 . S
O211 C214 1.250 . S
O212 Mg213 2.028 . S
O212 C214 1.248 . S
Mg213 O212 2.028 . S
Mg213 O218 2.032 . S
Mg213 O220 2.079 1_455 S
C214 O211 1.250 . S
C214 O212 1.248 . S
C215 O216 1.264 . S
C215 O223 1.249 . S
O216 C215 1.264 . S
O217 Mg210 1.986 . S
O217 C221 1.246 . S
O218 Mg213 2.032 . S
O218 C221 1.259 . S
O219 Mg210 2.114 1_655 S
O219 C222 1.252 . S
O220 Mg210 2.251 1_655 S
O220 Mg213 2.079 1_655 S
O220 C222 1.273 . S
C221 O217 1.246 . S
C221 O218 1.259 . S
C222 O219 1.252 . S
C222 O220 1.273 . S
O223 Mg210 2.010 1_556 S
O223 C215 1.249 . S
Mg224 O225 2.028 . S
Mg224 O231 1.986 . S
Mg224 O233 2.114 . S
Mg224 O234 2.251 . S
Mg224 O237 2.010 . S
O225 Mg224 2.028 . S
O225 C228 1.250 . S
O226 Mg227 2.028 . S
O226 C228 1.248 . S
Mg227 O226 2.028 . S
Mg227 O232 2.032 . S
Mg227 O234 2.079 . S
C228 O225 1.250 . S
C228 O226 1.248 . S
C229 O230 1.264 . S
C229 O237 1.249 . S
O230 C229 1.264 . S
O231 Mg224 1.986 . S
O231 C235 1.246 . S
O232 Mg227 2.032 . S
O232 C235 1.259 . S
O233 Mg224 2.114 . S
O233 C236 1.252 . S
O234 Mg224 2.251 . S
O234 Mg227 2.079 . S
O234 C236 1.273 . S
C235 O231 1.246 . S
C235 O232 1.259 . S
C236 O233 1.252 . S
C236 O234 1.273 . S
O237 Mg224 2.010 . S
O237 C229 1.249 . S
Mg238 O239 2.028 . S
Mg238 O245 1.986 . S
Mg238 O247 2.114 . S
Mg238 O248 2.251 . S
Mg238 O251 2.010 1_554 S
O239 Mg238 2.028 . S
O239 C242 1.250 . S
O240 Mg241 2.028 . S
O240 C242 1.248 . S
Mg241 O240 2.028 . S
Mg241 O246 2.032 . S
Mg241 O248 2.079 . S
C242 O239 1.250 . S
C242 O240 1.248 . S
C243 O244 1.264 . S
C243 O251 1.249 . S
O244 C243 1.264 . S
O245 Mg238 1.986 . S
O245 C249 1.246 . S
O246 Mg241 2.032 . S
O246 C249 1.259 . S
O247 Mg238 2.114 . S
O247 C250 1.252 . S
O248 Mg238 2.251 . S
O248 Mg241 2.079 . S
O248 C250 1.273 . S
C249 O245 1.246 . S
C249 O246 1.259 . S
C250 O247 1.252 . S
C250 O248 1.273 . S
O251 Mg238 2.010 1_556 S
O251 C243 1.249 . S
Mg252 O253 2.028 . S
Mg252 O259 1.986 . S
Mg252 O261 2.114 . S
Mg252 O262 2.251 . S
Mg252 O265 2.010 . S
O253 Mg252 2.028 . S
O253 C256 1.250 . S
O254 Mg255 2.028 . S
O254 C256 1.248 . S
Mg255 O254 2.028 . S
Mg255 O260 2.032 . S
Mg255 O262 2.079 . S
C256 O253 1.250 . S
C256 O254 1.248 . S
C257 O258 1.264 . S
C257 O265 1.249 . S
O258 C257 1.264 . S
O259 Mg252 1.986 . S
O259 C263 1.246 . S
O260 Mg255 2.032 . S
O260 C263 1.259 . S
O261 Mg252 2.114 . S
O261 C264 1.252 . S
O262 Mg252 2.251 . S
O262 Mg255 2.079 . S
O262 C264 1.273 . S
C263 O259 1.246 . S
C263 O260 1.259 . S
C264 O261 1.252 . S
C264 O262 1.273 . S
O265 Mg252 2.010 . S
O265 C257 1.249 . S
Mg266 O267 2.028 1_655 S
Mg266 O273 1.986 1_655 S
Mg266 O275 2.114 . S
Mg266 O276 2.251 . S
Mg266 O279 2.010 1_655 S
O267 Mg266 2.028 1_455 S
O267 C270 1.250 . S
O268 Mg269 2.028 1_455 S
O268 C270 1.248 . S
Mg269 O268 2.028 1_655 S
Mg269 O274 2.032 . S
Mg269 O276 2.079 . S
C270 O267 1.250 . S
C270 O268 1.248 . S
C271 O272 1.272 . S
C271 O279 1.249 . S
O272 C271 1.272 . S
O273 Mg266 1.986 1_455 S
O273 C277 1.246 1_455 S
O274 Mg269 2.032 . S
O274 C277 1.259 . S
O275 Mg266 2.114 . S
O275 C278 1.252 . S
O276 Mg266 2.251 . S
O276 Mg269 2.079 . S
O276 C278 1.273 . S
C277 O273 1.246 1_655 S
C277 O274 1.259 . S
C278 O275 1.252 . S
C278 O276 1.273 . S
O279 Mg266 2.010 1_455 S
O279 C271 1.249 . S
Mg280 O281 2.028 . S
Mg280 O287 1.986 . S
Mg280 O289 2.114 . S
Mg280 O290 2.251 . S
Mg280 O293 2.010 . S
O281 Mg280 2.028 . S
O281 C284 1.250 . S
O282 Mg283 2.028 . S
O282 C284 1.248 . S
Mg283 O282 2.028 . S
Mg283 O288 2.032 . S
Mg283 O290 2.079 . S
C284 O281 1.250 . S
C284 O282 1.248 . S
C285 O286 1.264 . S
C285 O293 1.249 . S
O286 C285 1.264 . S
O287 Mg280 1.986 . S
O287 C291 1.246 . S
O288 Mg283 2.032 . S
O288 C291 1.259 . S
O289 Mg280 2.114 . S
O289 C292 1.252 . S
O290 Mg280 2.251 . S
O290 Mg283 2.079 . S
O290 C292 1.273 . S
C291 O287 1.246 . S
C291 O288 1.259 . S
C292 O289 1.252 . S
C292 O290 1.273 . S
O293 Mg280 2.010 . S
O293 C285 1.249 . S
Mg294 O295 2.028 1_655 S
Mg294 O301 1.986 1_655 S
Mg294 O303 2.114 . S
Mg294 O304 2.251 . S
Mg294 O307 2.010 1_656 S
O295 Mg294 2.028 1_455 S
O295 C298 1.250 . S
O296 Mg297 2.028 1_455 S
O296 C298 1.248 . S
Mg297 O296 2.028 1_655 S
Mg297 O302 2.032 . S
Mg297 O304 2.079 . S
C298 O295 1.250 . S
C298 O296 1.248 . S
C299 O300 1.272 . S
C299 O307 1.249 . S
O300 C299 1.272 . S
O301 Mg294 1.986 1_455 S
O301 C305 1.246 1_455 S
O302 Mg297 2.032 . S
O302 C305 1.259 . S
O303 Mg294 2.114 . S
O303 C306 1.252 . S
O304 Mg294 2.251 . S
O304 Mg297 2.079 . S
O304 C306 1.273 . S
C305 O301 1.246 1_655 S
C305 O302 1.259 . S
C306 O303 1.252 . S
C306 O304 1.273 . S
O307 Mg294 2.010 1_454 S
O307 C299 1.249 . S
Mg308 O309 2.028 . S
Mg308 O315 1.986 . S
Mg308 O317 2.114 . S
Mg308 O318 2.251 . S
Mg308 O321 2.010 . S
O309 Mg308 2.028 . S
O309 C312 1.250 . S
O310 Mg311 2.028 . S
O310 C312 1.248 . S
Mg311 O310 2.028 . S
Mg311 O316 2.032 . S
Mg311 O318 2.079 . S
C312 O309 1.250 . S
C312 O310 1.248 . S
C313 O314 1.264 . S
C313 O321 1.249 . S
O314 C313 1.264 . S
O315 Mg308 1.986 . S
O315 C319 1.246 . S
O316 Mg311 2.032 . S
O316 C319 1.259 . S
O317 Mg308 2.114 . S
O317 C320 1.252 . S
O318 Mg308 2.251 . S
O318 Mg311 2.079 . S
O318 C320 1.273 . S
C319 O315 1.246 . S
C319 O316 1.259 . S
C320 O317 1.252 . S
C320 O318 1.273 . S
O321 Mg308 2.010 . S
O321 C313 1.249 . S
Mg322 O323 2.028 . S
Mg322 O329 1.986 . S
Mg322 O331 2.114 . S
Mg322 O332 2.251 . S
Mg322 O335 2.010 . S
O323 Mg322 2.028 . S
O323 C326 1.250 . S
O324 Mg325 2.028 . S
O324 C326 1.248 . S
Mg325 O324 2.028 . S
Mg325 O330 2.032 . S
Mg325 O332 2.079 . S
C326 O323 1.250 . S
C326 O324 1.248 . S
C327 O328 1.264 . S
C327 O335 1.249 . S
O328 C327 1.264 . S
O329 Mg322 1.986 . S
O329 C333 1.246 . S
O330 Mg325 2.032 . S
O330 C333 1.259 . S
O331 Mg322 2.114 . S
O331 C334 1.252 . S
O332 Mg322 2.251 . S
O332 Mg325 2.079 . S
O332 C334 1.273 . S
C333 O329 1.246 . S
C333 O330 1.259 . S
C334 O331 1.252 . S
C334 O332 1.273 . S
O335 Mg322 2.010 . S
O335 C327 1.249 . S
Mg336 O337 2.028 . S
Mg336 O343 1.986 . S
Mg336 O345 2.114 . S
Mg336 O346 2.251 . S
Mg336 O349 2.010 . S
O337 Mg336 2.028 . S
O337 C340 1.250 . S
O338 Mg339 2.028 . S
O338 C340 1.248 . S
Mg339 O338 2.028 . S
Mg339 O344 2.032 . S
Mg339 O346 2.079 . S
C340 O337 1.250 . S
C340 O338 1.248 . S
C341 O342 1.264 . S
C341 O349 1.249 . S
O342 C341 1.264 . S
O343 Mg336 1.986 . S
O343 C347 1.246 . S
O344 Mg339 2.032 . S
O344 C347 1.259 . S
O345 Mg336 2.114 . S
O345 C348 1.252 . S
O346 Mg336 2.251 . S
O346 Mg339 2.079 . S
O346 C348 1.273 . S
C347 O343 1.246 . S
C347 O344 1.259 . S
C348 O345 1.252 . S
C348 O346 1.273 . S
O349 Mg336 2.010 . S
O349 C341 1.249 . S
Mg350 O351 2.028 . S
Mg350 O357 1.986 . S
Mg350 O359 2.114 . S
Mg350 O360 2.251 . S
Mg350 O363 2.010 1_556 S
O351 Mg350 2.028 . S
O351 C354 1.250 . S
O352 Mg353 2.028 . S
O352 C354 1.248 . S
Mg353 O352 2.028 . S
Mg353 O358 2.032 . S
Mg353 O360 2.079 . S
C354 O351 1.250 . S
C354 O352 1.248 . S
C355 O356 1.264 . S
C355 O363 1.249 . S
O356 C355 1.264 . S
O357 Mg350 1.986 . S
O357 C361 1.246 . S
O358 Mg353 2.032 . S
O358 C361 1.259 . S
O359 Mg350 2.114 . S
O359 C362 1.252 . S
O360 Mg350 2.251 . S
O360 Mg353 2.079 . S
O360 C362 1.273 . S
C361 O357 1.246 . S
C361 O358 1.259 . S
C362 O359 1.252 . S
C362 O360 1.273 . S
O363 Mg350 2.010 1_554 S
O363 C355 1.249 . S
Mg364 O365 2.028 . S
Mg364 O371 1.986 . S
Mg364 O373 2.114 . S
Mg364 O374 2.251 . S
Mg364 O377 2.010 . S
O365 Mg364 2.028 . S
O365 C368 1.250 . S
O366 Mg367 2.028 . S
O366 C368 1.248 . S
Mg367 O366 2.028 . S
Mg367 O372 2.032 . S
Mg367 O374 2.079 . S
C368 O365 1.250 . S
C368 O366 1.248 . S
C369 O370 1.264 . S
C369 O377 1.249 . S
O370 C369 1.264 . S
O371 Mg364 1.986 . S
O371 C375 1.246 . S
O372 Mg367 2.032 . S
O372 C375 1.259 . S
O373 Mg364 2.114 . S
O373 C376 1.252 . S
O374 Mg364 2.251 . S
O374 Mg367 2.079 . S
O374 C376 1.273 . S
C375 O371 1.246 . S
C375 O372 1.259 . S
C376 O373 1.252 . S
C376 O374 1.273 . S
O377 Mg364 2.010 . S
O377 C369 1.249 . S
Mg378 O379 2.028 . S
Mg378 O385 1.986 . S
Mg378 O387 2.114 1_655 S
Mg378 O388 2.251 1_655 S
Mg378 O391 2.010 . S
O379 Mg378 2.028 . S
O379 C382 1.250 . S
O380 Mg381 2.028 . S
O380 C382 1.248 . S
Mg381 O380 2.028 . S
Mg381 O386 2.032 . S
Mg381 O388 2.079 1_655 S
C382 O379 1.250 . S
C382 O380 1.248 . S
C383 O384 1.264 . S
C383 O391 1.249 . S
O384 C383 1.264 . S
O385 Mg378 1.986 . S
O385 C389 1.246 . S
O386 Mg381 2.032 . S
O386 C389 1.259 . S
O387 Mg378 2.114 1_455 S
O387 C390 1.252 . S
O388 Mg378 2.251 1_455 S
O388 Mg381 2.079 1_455 S
O388 C390 1.273 . S
C389 O385 1.246 . S
C389 O386 1.259 . S
C390 O387 1.252 . S
C390 O388 1.273 . S
O391 Mg378 2.010 . S
O391 C383 1.249 . S
Mg392 O393 2.028 . S
Mg392 O399 1.986 . S
Mg392 O401 2.114 . S
Mg392 O402 2.251 . S
Mg392 O405 2.010 . S
O393 Mg392 2.028 . S
O393 C396 1.250 . S
O394 Mg395 2.028 . S
O394 C396 1.248 . S
Mg395 O394 2.028 . S
Mg395 O400 2.032 . S
Mg395 O402 2.079 . S
C396 O393 1.250 . S
C396 O394 1.248 . S
C397 O398 1.264 . S
C397 O405 1.249 . S
O398 C397 1.264 . S
O399 Mg392 1.986 . S
O399 C403 1.246 . S
O400 Mg395 2.032 . S
O400 C403 1.259 . S
O401 Mg392 2.114 . S
O401 C404 1.252 . S
O402 Mg392 2.251 . S
O402 Mg395 2.079 . S
O402 C404 1.273 . S
C403 O399 1.246 . S
C403 O400 1.259 . S
C404 O401 1.252 . S
C404 O402 1.273 . S
O405 Mg392 2.010 . S
O405 C397 1.249 . S
Mg406 O407 2.028 . S
Mg406 O413 1.986 . S
Mg406 O415 2.114 1_655 S
Mg406 O416 2.251 1_655 S
Mg406 O419 2.010 1_554 S
O407 Mg406 2.028 . S
O407 C410 1.250 . S
O408 Mg409 2.028 . S
O408 C410 1.248 . S
Mg409 O408 2.028 . S
Mg409 O414 2.032 . S
Mg409 O416 2.079 1_655 S
C410 O407 1.250 . S
C410 O408 1.248 . S
C411 O412 1.264 . S
C411 O419 1.249 . S
O412 C411 1.264 . S
O413 Mg406 1.986 . S
O413 C417 1.246 . S
O414 Mg409 2.032 . S
O414 C417 1.259 . S
O415 Mg406 2.114 1_455 S
O415 C418 1.252 . S
O416 Mg406 2.251 1_455 S
O416 Mg409 2.079 1_455 S
O416 C418 1.273 . S
C417 O413 1.246 . S
C417 O414 1.259 . S
C418 O415 1.252 . S
C418 O416 1.273 . S
O419 Mg406 2.010 1_556 S
O419 C411 1.249 . S
Mg420 O421 2.028 . S
Mg420 O427 1.986 . S
Mg420 O429 2.114 . S
Mg420 O430 2.251 . S
Mg420 O433 2.010 . S
O421 Mg420 2.028 . S
O421 C424 1.250 . S
O422 Mg423 2.028 . S
O422 C424 1.248 . S
Mg423 O422 2.028 . S
Mg423 O428 2.032 . S
Mg423 O430 2.079 . S
C424 O421 1.250 . S
C424 O422 1.248 . S
C425 O426 1.264 . S
C425 O433 1.249 . S
O426 C425 1.264 . S
O427 Mg420 1.986 . S
O427 C431 1.246 . S
O428 Mg423 2.032 . S
O428 C431 1.259 . S
O429 Mg420 2.114 . S
O429 C432 1.252 . S
O430 Mg420 2.251 . S
O430 Mg423 2.079 . S
O430 C432 1.273 . S
C431 O427 1.246 . S
C431 O428 1.259 . S
C432 O429 1.252 . S
C432 O430 1.273 . S
O433 Mg420 2.010 . S
O433 C425 1.249 . S
Mg434 O435 2.028 . S
Mg434 O441 1.986 . S
Mg434 O443 2.114 . S
Mg434 O444 2.251 . S
Mg434 O447 2.010 . S
O435 Mg434 2.028 . S
O435 C438 1.250 . S
O436 Mg437 2.028 . S
O436 C438 1.248 . S
Mg437 O436 2.028 . S
Mg437 O442 2.032 . S
Mg437 O444 2.079 . S
C438 O435 1.250 . S
C438 O436 1.248 . S
C439 O440 1.264 . S
C439 O447 1.249 . S
O440 C439 1.264 . S
O441 Mg434 1.986 . S
O441 C445 1.246 . S
O442 Mg437 2.032 . S
O442 C445 1.259 . S
O443 Mg434 2.114 . S
O443 C446 1.252 . S
O444 Mg434 2.251 . S
O444 Mg437 2.079 . S
O444 C446 1.273 . S
C445 O441 1.246 . S
C445 O442 1.259 . S
C446 O443 1.252 . S
C446 O444 1.273 . S
O447 Mg434 2.010 . S
O447 C439 1.249 . S
C448 C449 1.363 . S
C448 C454 1.379 . S
C448 N456 1.356 . S
C449 C448 1.363 . S
C449 C455 1.363 . S
C450 C451 1.363 . S
C450 C455 1.379 . S
C450 N457 1.356 . S
C451 C450 1.363 . S
C451 C454 1.363 . S
N452 C454 1.356 . S
N452 H464 0.984 . S
N452 H465 0.985 . S
N453 C455 1.356 . S
N453 H458 0.984 . S
N453 H459 0.985 . S
C454 C448 1.379 . S
C454 C451 1.363 . S
C454 N452 1.356 . S
C455 C449 1.363 . S
C455 C450 1.379 . S
C455 N453 1.356 . S
N456 C448 1.356 . S
N456 H462 0.984 . S
N456 H463 0.984 . S
N457 C450 1.356 . S
N457 H460 0.984 . S
N457 H461 0.985 . S
H458 N453 0.984 . S
H459 N453 0.985 . S
H460 N457 0.984 . S
H461 N457 0.985 . S
H462 N456 0.984 . S
H463 N456 0.984 . S
H464 N452 0.984 . S
H465 N452 0.985 . S
C466 C467 1.363 . S
C466 C472 1.379 . S
C466 N474 1.356 . S
C467 C466 1.363 . S
C467 C473 1.363 . S
C468 C469 1.363 . S
C468 C473 1.379 . S
C468 N475 1.356 . S
C469 C468 1.363 . S
C469 C472 1.363 . S
N470 C472 1.356 . S
N470 H482 0.984 . S
N470 H483 0.985 . S
N471 C473 1.356 . S
N471 H476 0.984 . S
N471 H477 0.985 . S
C472 C466 1.379 . S
C472 C469 1.363 . S
C472 N470 1.356 . S
C473 C467 1.363 . S
C473 C468 1.379 . S
C473 N471 1.356 . S
N474 C466 1.356 . S
N474 H480 0.984 . S
N474 H481 0.984 . S
N475 C468 1.356 . S
N475 H478 0.984 . S
N475 H479 0.985 . S
H476 N471 0.984 . S
H477 N471 0.985 . S
H478 N475 0.984 . S
H479 N475 0.985 . S
H480 N474 0.984 . S
H481 N474 0.984 . S
H482 N470 0.984 . S
H483 N470 0.985 . S
C484 C485 1.363 . S
C484 C490 1.379 . S
C484 N492 1.356 . S
C485 C484 1.363 . S
C485 C491 1.363 . S
C486 C487 1.363 . S
C486 C491 1.379 . S
C486 N493 1.356 . S
C487 C486 1.363 . S
C487 C490 1.363 . S
N488 C490 1.356 . S
N488 H500 0.984 . S
N488 H501 0.985 . S
N489 C491 1.356 . S
N489 H494 0.984 . S
N489 H495 0.985 . S
C490 C484 1.379 . S
C490 C487 1.363 . S
C490 N488 1.356 . S
C491 C485 1.363 . S
C491 C486 1.379 . S
C491 N489 1.356 . S
N492 C484 1.356 . S
N492 H498 0.984 . S
N492 H499 0.984 . S
N493 C486 1.356 . S
N493 H496 0.984 . S
N493 H497 0.985 . S
H494 N489 0.984 . S
H495 N489 0.985 . S
H496 N493 0.984 . S
H497 N493 0.985 . S
H498 N492 0.984 . S
H499 N492 0.984 . S
H500 N488 0.984 . S
H501 N488 0.985 . S
C502 C503 1.363 . S
C502 C508 1.379 . S
C502 N510 1.356 . S
C503 C502 1.363 . S
C503 C509 1.363 . S
C504 C505 1.363 . S
C504 C509 1.379 . S
C504 N511 1.356 . S
C505 C504 1.363 . S
C505 C508 1.363 . S
N506 C508 1.356 . S
N506 H518 0.984 . S
N506 H519 0.985 . S
N507 C509 1.356 . S
N507 H512 0.984 . S
N507 H513 0.985 . S
C508 C502 1.379 . S
C508 C505 1.363 . S
C508 N506 1.356 . S
C509 C503 1.363 . S
C509 C504 1.379 . S
C509 N507 1.356 . S
N510 C502 1.356 . S
N510 H516 0.984 . S
N510 H517 0.984 . S
N511 C504 1.356 . S
N511 H514 0.984 . S
N511 H515 0.985 . S
H512 N507 0.984 . S
H513 N507 0.985 . S
H514 N511 0.984 . S
H515 N511 0.985 . S
H516 N510 0.984 . S
H517 N510 0.984 . S
H518 N506 0.984 . S
H519 N506 0.985 . S
C520 C521 1.363 . S
C520 C526 1.379 . S
C520 N528 1.356 . S
C521 C520 1.363 . S
C521 C527 1.363 . S
C522 C523 1.363 . S
C522 C527 1.379 . S
C522 N529 1.356 . S
C523 C522 1.363 . S
C523 C526 1.363 . S
N524 C526 1.356 . S
N524 H536 0.984 . S
N524 H537 0.985 . S
N525 C527 1.356 . S
N525 H530 0.984 . S
N525 H531 0.985 . S
C526 C520 1.379 . S
C526 C523 1.363 . S
C526 N524 1.356 . S
C527 C521 1.363 . S
C527 C522 1.379 . S
C527 N525 1.356 . S
N528 C520 1.356 . S
N528 H534 0.984 . S
N528 H535 0.984 . S
N529 C522 1.356 . S
N529 H532 0.984 . S
N529 H533 0.985 . S
H530 N525 0.984 . S
H531 N525 0.985 . S
H532 N529 0.984 . S
H533 N529 0.985 . S
H534 N528 0.984 . S
H535 N528 0.984 . S
H536 N524 0.984 . S
H537 N524 0.985 . S
C538 C539 1.363 . S
C538 C544 1.379 . S
C538 N546 1.356 . S
C539 C538 1.363 . S
C539 C545 1.363 . S
C540 C541 1.363 . S
C540 C545 1.379 . S
C540 N547 1.356 . S
C541 C540 1.363 . S
C541 C544 1.363 . S
N542 C544 1.356 . S
N542 H554 0.984 . S
N542 H555 0.985 . S
N543 C545 1.356 . S
N543 H548 0.984 . S
N543 H549 0.985 . S
C544 C538 1.379 . S
C544 C541 1.363 . S
C544 N542 1.356 . S
C545 C539 1.363 . S
C545 C540 1.379 . S
C545 N543 1.356 . S
N546 C538 1.356 . S
N546 H552 0.984 . S
N546 H553 0.984 . S
N547 C540 1.356 . S
N547 H550 0.984 . S
N547 H551 0.985 . S
H548 N543 0.984 . S
H549 N543 0.985 . S
H550 N547 0.984 . S
H551 N547 0.985 . S
H552 N546 0.984 . S
H553 N546 0.984 . S
H554 N542 0.984 . S
H555 N542 0.985 . S
C556 C557 1.363 . S
C556 C562 1.379 . S
C556 N564 1.356 . S
C557 C556 1.363 . S
C557 C563 1.363 . S
C558 C559 1.363 . S
C558 C563 1.379 . S
C558 N565 1.356 . S
C559 C558 1.363 . S
C559 C562 1.363 . S
N560 C562 1.356 . S
N560 H572 0.984 . S
N560 H573 0.985 . S
N561 C563 1.356 . S
N561 H566 0.984 . S
N561 H567 0.985 . S
C562 C556 1.379 . S
C562 C559 1.363 . S
C562 N560 1.356 . S
C563 C557 1.363 . S
C563 C558 1.379 . S
C563 N561 1.356 . S
N564 C556 1.356 . S
N564 H570 0.984 . S
N564 H571 0.984 . S
N565 C558 1.356 . S
N565 H568 0.984 . S
N565 H569 0.985 . S
H566 N561 0.984 . S
H567 N561 0.985 . S
H568 N565 0.984 . S
H569 N565 0.985 . S
H570 N564 0.984 . S
H571 N564 0.984 . S
H572 N560 0.984 . S
H573 N560 0.985 . S
C574 C575 1.363 . S
C574 C580 1.379 . S
C574 N582 1.356 . S
C575 C574 1.363 . S
C575 C581 1.363 . S
C576 C577 1.363 . S
C576 C581 1.379 . S
C576 N583 1.356 . S
C577 C576 1.363 . S
C577 C580 1.363 . S
N578 C580 1.356 . S
N578 H590 0.984 . S
N578 H591 0.985 . S
N579 C581 1.356 . S
N579 H584 0.984 . S
N579 H585 0.985 . S
C580 C574 1.379 . S
C580 C577 1.363 . S
C580 N578 1.356 . S
C581 C575 1.363 . S
C581 C576 1.379 . S
C581 N579 1.356 . S
N582 C574 1.356 . S
N582 H588 0.984 . S
N582 H589 0.984 . S
N583 C576 1.356 . S
N583 H586 0.984 . S
N583 H587 0.985 . S
H584 N579 0.984 . S
H585 N579 0.985 . S
H586 N583 0.984 . S
H587 N583 0.985 . S
H588 N582 0.984 . S
H589 N582 0.984 . S
H590 N578 0.984 . S
H591 N578 0.985 . S
C592 C593 1.363 . S
C592 C598 1.379 . S
C592 N600 1.356 . S
C593 C592 1.363 . S
C593 C599 1.363 . S
C594 C595 1.363 . S
C594 C599 1.379 . S
C594 N601 1.356 . S
C595 C594 1.363 . S
C595 C598 1.363 . S
N596 C598 1.356 . S
N596 H608 0.984 . S
N596 H609 0.985 . S
N597 C599 1.356 . S
N597 H602 0.984 . S
N597 H603 0.985 . S
C598 C592 1.379 . S
C598 C595 1.363 . S
C598 N596 1.356 . S
C599 C593 1.363 . S
C599 C594 1.379 . S
C599 N597 1.356 . S
N600 C592 1.356 . S
N600 H606 0.984 . S
N600 H607 0.984 . S
N601 C594 1.356 . S
N601 H604 0.984 . S
N601 H605 0.985 . S
H602 N597 0.984 . S
H603 N597 0.985 . S
H604 N601 0.984 . S
H605 N601 0.985 . S
H606 N600 0.984 . S
H607 N600 0.984 . S
H608 N596 0.984 . S
H609 N596 0.985 . S
C610 C611 1.363 . S
C610 C616 1.379 . S
C610 N618 1.356 . S
C611 C610 1.363 . S
C611 C617 1.363 . S
C612 C613 1.363 . S
C612 C617 1.379 . S
C612 N619 1.356 . S
C613 C612 1.363 . S
C613 C616 1.363 . S
N614 C616 1.356 . S
N614 H626 0.984 . S
N614 H627 0.985 . S
N615 C617 1.356 . S
N615 H620 0.984 . S
N615 H621 0.985 . S
C616 C610 1.379 . S
C616 C613 1.363 . S
C616 N614 1.356 . S
C617 C611 1.363 . S
C617 C612 1.379 . S
C617 N615 1.356 . S
N618 C610 1.356 . S
N618 H624 0.984 . S
N618 H625 0.984 . S
N619 C612 1.356 . S
N619 H622 0.984 . S
N619 H623 0.985 . S
H620 N615 0.984 . S
H621 N615 0.985 . S
H622 N619 0.984 . S
H623 N619 0.985 . S
H624 N618 0.984 . S
H625 N618 0.984 . S
H626 N614 0.984 . S
H627 N614 0.985 . S
C628 C629 1.363 . S
C628 C634 1.379 . S
C628 N636 1.356 . S
C629 C628 1.363 . S
C629 C635 1.363 . S
C630 C631 1.363 . S
C630 C635 1.379 . S
C630 N637 1.356 . S
C631 C630 1.363 . S
C631 C634 1.363 . S
N632 C634 1.356 . S
N632 H644 0.984 . S
N632 H645 0.985 . S
N633 C635 1.356 . S
N633 H638 0.984 . S
N633 H639 0.985 . S
C634 C628 1.379 . S
C634 C631 1.363 . S
C634 N632 1.356 . S
C635 C629 1.363 . S
C635 C630 1.379 . S
C635 N633 1.356 . S
N636 C628 1.356 . S
N636 H642 0.984 . S
N636 H643 0.984 . S
N637 C630 1.356 . S
N637 H640 0.984 . S
N637 H641 0.985 . S
H638 N633 0.984 . S
H639 N633 0.985 . S
H640 N637 0.984 . S
H641 N637 0.985 . S
H642 N636 0.984 . S
H643 N636 0.984 . S
H644 N632 0.984 . S
H645 N632 0.985 . S
C646 C647 1.363 . S
C646 C652 1.379 . S
C646 N654 1.356 . S
C647 C646 1.363 . S
C647 C653 1.363 . S
C648 C649 1.363 . S
C648 C653 1.379 . S
C648 N655 1.356 . S
C649 C648 1.363 . S
C649 C652 1.363 . S
N650 C652 1.356 . S
N650 H662 0.984 . S
N650 H663 0.985 . S
N651 C653 1.356 . S
N651 H656 0.984 . S
N651 H657 0.985 . S
C652 C646 1.379 . S
C652 C649 1.363 . S
C652 N650 1.356 . S
C653 C647 1.363 . S
C653 C648 1.379 . S
C653 N651 1.356 . S
N654 C646 1.356 . S
N654 H660 0.984 . S
N654 H661 0.984 . S
N655 C648 1.356 . S
N655 H658 0.984 . S
N655 H659 0.985 . S
H656 N651 0.984 . S
H657 N651 0.985 . S
H658 N655 0.984 . S
H659 N655 0.985 . S
H660 N654 0.984 . S
H661 N654 0.984 . S
H662 N650 0.984 . S
H663 N650 0.985 . S
C664 C665 1.363 . S
C664 C670 1.379 . S
C664 N672 1.356 . S
C665 C664 1.363 . S
C665 C671 1.363 . S
C666 C667 1.363 . S
C666 C671 1.379 . S
C666 N673 1.356 . S
C667 C666 1.363 . S
C667 C670 1.363 . S
N668 C670 1.356 . S
N668 H680 0.984 1_655 S
N668 H681 0.985 . S
N669 C671 1.356 . S
N669 H674 0.984 . S
N669 H675 0.985 . S
C670 C664 1.379 . S
C670 C667 1.363 . S
C670 N668 1.356 . S
C671 C665 1.363 . S
C671 C666 1.379 . S
C671 N669 1.356 . S
N672 C664 1.356 . S
N672 H678 0.984 . S
N672 H679 0.984 . S
N673 C666 1.356 . S
N673 H676 0.984 . S
N673 H677 0.985 . S
H674 N669 0.984 . S
H675 N669 0.985 . S
H676 N673 0.984 . S
H677 N673 0.985 . S
H678 N672 0.984 . S
H679 N672 0.984 . S
H680 N668 0.984 1_455 S
H681 N668 0.985 . S
C682 C683 1.363 . S
C682 C688 1.379 . S
C682 N690 1.356 . S
C683 C682 1.363 . S
C683 C689 1.363 . S
C684 C685 1.363 . S
C684 C689 1.379 . S
C684 N691 1.356 . S
C685 C684 1.363 . S
C685 C688 1.363 . S
N686 C688 1.356 . S
N686 H698 0.984 . S
N686 H699 0.985 . S
N687 C689 1.356 . S
N687 H692 0.984 . S
N687 H693 0.985 . S
C688 C682 1.379 . S
C688 C685 1.363 . S
C688 N686 1.356 . S
C689 C683 1.363 . S
C689 C684 1.379 . S
C689 N687 1.356 . S
N690 C682 1.356 . S
N690 H696 0.984 . S
N690 H697 0.984 . S
N691 C684 1.356 . S
N691 H694 0.984 . S
N691 H695 0.985 . S
H692 N687 0.984 . S
H693 N687 0.985 . S
H694 N691 0.984 . S
H695 N691 0.985 . S
H696 N690 0.984 . S
H697 N690 0.984 . S
H698 N686 0.984 . S
H699 N686 0.985 . S
C700 C701 1.363 . S
C700 C706 1.379 . S
C700 N708 1.356 . S
C701 C700 1.363 . S
C701 C707 1.363 . S
C702 C703 1.363 . S
C702 C707 1.379 . S
C702 N709 1.356 . S
C703 C702 1.363 . S
C703 C706 1.363 . S
N704 C706 1.356 . S
N704 H716 0.984 . S
N704 H717 0.985 . S
N705 C707 1.356 . S
N705 H710 0.984 . S
N705 H711 0.985 . S
C706 C700 1.379 . S
C706 C703 1.363 . S
C706 N704 1.356 . S
C707 C701 1.363 . S
C707 C702 1.379 . S
C707 N705 1.356 . S
N708 C700 1.356 . S
N708 H714 0.984 . S
N708 H715 0.984 . S
N709 C702 1.356 . S
N709 H712 0.984 . S
N709 H713 0.985 . S
H710 N705 0.984 . S
H711 N705 0.985 . S
H712 N709 0.984 . S
H713 N709 0.985 . S
H714 N708 0.984 . S
H715 N708 0.984 . S
H716 N704 0.984 . S
H717 N704 0.985 . S
C718 C719 1.363 . S
C718 C724 1.379 . S
C718 N726 1.356 . S
C719 C718 1.363 . S
C719 C725 1.363 . S
C720 C721 1.363 . S
C720 C725 1.379 . S
C720 N727 1.356 . S
C721 C720 1.363 . S
C721 C724 1.363 . S
N722 C724 1.356 . S
N722 H734 0.984 . S
N722 H735 0.985 . S
N723 C725 1.356 . S
N723 H728 0.984 . S
N723 H729 0.985 . S
C724 C718 1.379 . S
C724 C721 1.363 . S
C724 N722 1.356 . S
C725 C719 1.363 . S
C725 C720 1.379 . S
C725 N723 1.356 . S
N726 C718 1.356 . S
N726 H732 0.984 . S
N726 H733 0.984 . S
N727 C720 1.356 . S
N727 H730 0.984 . S
N727 H731 0.985 . S
H728 N723 0.984 . S
H729 N723 0.985 . S
H730 N727 0.984 . S
H731 N727 0.985 . S
H732 N726 0.984 . S
H733 N726 0.984 . S
H734 N722 0.984 . S
H735 N722 0.985 . S
C736 C737 1.363 . S
C736 C742 1.379 . S
C736 N744 1.356 . S
C737 C736 1.363 . S
C737 C743 1.363 . S
C738 C739 1.363 . S
C738 C743 1.379 . S
C738 N745 1.356 . S
C739 C738 1.363 . S
C739 C742 1.363 . S
N740 C742 1.356 . S
N740 H752 0.984 . S
N740 H753 0.985 . S
N741 C743 1.356 . S
N741 H746 0.984 . S
N741 H747 0.985 . S
C742 C736 1.379 . S
C742 C739 1.363 . S
C742 N740 1.356 . S
C743 C737 1.363 . S
C743 C738 1.379 . S
C743 N741 1.356 . S
N744 C736 1.356 . S
N744 H750 0.984 . S
N744 H751 0.984 . S
N745 C738 1.356 . S
N745 H748 0.984 . S
N745 H749 0.985 . S
H746 N741 0.984 . S
H747 N741 0.985 . S
H748 N745 0.984 . S
H749 N745 0.985 . S
H750 N744 0.984 . S
H751 N744 0.984 . S
H752 N740 0.984 . S
H753 N740 0.985 . S
C754 C755 1.363 . S
C754 C760 1.379 . S
C754 N762 1.356 . S
C755 C754 1.363 . S
C755 C761 1.363 . S
C756 C757 1.363 . S
C756 C761 1.379 . S
C756 N763 1.356 . S
C757 C756 1.363 . S
C757 C760 1.363 . S
N758 C760 1.356 . S
N758 H770 0.984 . S
N758 H771 0.985 . S
N759 C761 1.356 . S
N759 H764 0.984 . S
N759 H765 0.985 . S
C760 C754 1.379 . S
C760 C757 1.363 . S
C760 N758 1.356 . S
C761 C755 1.363 . S
C761 C756 1.379 . S
C761 N759 1.356 . S
N762 C754 1.356 . S
N762 H768 0.984 . S
N762 H769 0.984 . S
N763 C756 1.356 . S
N763 H766 0.984 . S
N763 H767 0.985 . S
H764 N759 0.984 . S
H765 N759 0.985 . S
H766 N763 0.984 . S
H767 N763 0.985 . S
H768 N762 0.984 . S
H769 N762 0.984 . S
H770 N758 0.984 . S
H771 N758 0.985 . S
C772 C773 1.363 . S
C772 C778 1.379 . S
C772 N780 1.356 . S
C773 C772 1.363 . S
C773 C779 1.363 . S
C774 C775 1.363 . S
C774 C779 1.379 . S
C774 N781 1.356 . S
C775 C774 1.363 . S
C775 C778 1.363 . S
N776 C778 1.356 . S
N776 H788 0.984 . S
N776 H789 0.985 . S
N777 C779 1.356 . S
N777 H782 0.984 . S
N777 H783 0.985 . S
C778 C772 1.379 . S
C778 C775 1.363 . S
C778 N776 1.356 . S
C779 C773 1.363 . S
C779 C774 1.379 . S
C779 N777 1.356 . S
N780 C772 1.356 . S
N780 H786 0.984 . S
N780 H787 0.984 . S
N781 C774 1.356 . S
N781 H784 0.984 . S
N781 H785 0.985 . S
H782 N777 0.984 . S
H783 N777 0.985 . S
H784 N781 0.984 . S
H785 N781 0.985 . S
H786 N780 0.984 . S
H787 N780 0.984 . S
H788 N776 0.984 . S
H789 N776 0.985 . S
C790 C791 1.363 . S
C790 C796 1.379 . S
C790 N798 1.356 . S
C791 C790 1.363 . S
C791 C797 1.363 . S
C792 C793 1.363 . S
C792 C797 1.379 . S
C792 N799 1.356 . S
C793 C792 1.363 . S
C793 C796 1.363 . S
N794 C796 1.356 . S
N794 H806 0.984 . S
N794 H807 0.985 . S
N795 C797 1.356 . S
N795 H800 0.984 . S
N795 H801 0.985 . S
C796 C790 1.379 . S
C796 C793 1.363 . S
C796 N794 1.356 . S
C797 C791 1.363 . S
C797 C792 1.379 . S
C797 N795 1.356 . S
N798 C790 1.356 . S
N798 H804 0.984 . S
N798 H805 0.984 . S
N799 C792 1.356 . S
N799 H802 0.984 . S
N799 H803 0.985 . S
H800 N795 0.984 . S
H801 N795 0.985 . S
H802 N799 0.984 . S
H803 N799 0.985 . S
H804 N798 0.984 . S
H805 N798 0.984 . S
H806 N794 0.984 . S
H807 N794 0.985 . S
C808 C809 1.363 . S
C808 C814 1.379 . S
C808 N816 1.356 . S
C809 C808 1.363 . S
C809 C815 1.363 . S
C810 C811 1.363 . S
C810 C815 1.379 . S
C810 N817 1.356 . S
C811 C810 1.363 . S
C811 C814 1.363 . S
N812 C814 1.356 . S
N812 H824 0.984 . S
N812 H825 0.985 . S
N813 C815 1.356 . S
N813 H818 0.984 . S
N813 H819 0.985 . S
C814 C808 1.379 . S
C814 C811 1.363 . S
C814 N812 1.356 . S
C815 C809 1.363 . S
C815 C810 1.379 . S
C815 N813 1.356 . S
N816 C808 1.356 . S
N816 H822 0.984 . S
N816 H823 0.984 . S
N817 C810 1.356 . S
N817 H820 0.984 . S
N817 H821 0.985 . S
H818 N813 0.984 . S
H819 N813 0.985 . S
H820 N817 0.984 . S
H821 N817 0.985 . S
H822 N816 0.984 . S
H823 N816 0.984 . S
H824 N812 0.984 . S
H825 N812 0.985 . S
C826 C827 1.363 . S
C826 C832 1.379 . S
C826 N834 1.356 . S
C827 C826 1.363 . S
C827 C833 1.363 . S
C828 C829 1.363 . S
C828 C833 1.379 . S
C828 N835 1.356 . S
C829 C828 1.363 . S
C829 C832 1.363 . S
N830 C832 1.356 . S
N830 H842 0.984 . S
N830 H843 0.985 . S
N831 C833 1.356 . S
N831 H836 0.984 . S
N831 H837 0.985 . S
C832 C826 1.379 . S
C832 C829 1.363 . S
C832 N830 1.356 . S
C833 C827 1.363 . S
C833 C828 1.379 . S
C833 N831 1.356 . S
N834 C826 1.356 . S
N834 H840 0.984 . S
N834 H841 0.984 . S
N835 C828 1.356 . S
N835 H838 0.984 . S
N835 H839 0.985 . S
H836 N831 0.984 . S
H837 N831 0.985 . S
H838 N835 0.984 . S
H839 N835 0.985 . S
H840 N834 0.984 . S
H841 N834 0.984 . S
H842 N830 0.984 . S
H843 N830 0.985 . S
C844 C845 1.363 . S
C844 C850 1.379 . S
C844 N852 1.356 . S
C845 C844 1.363 . S
C845 C851 1.363 . S
C846 C847 1.363 . S
C846 C851 1.379 . S
C846 N853 1.356 . S
C847 C846 1.363 . S
C847 C850 1.363 . S
N848 C850 1.356 . S
N848 H860 0.984 . S
N848 H861 0.985 . S
N849 C851 1.356 . S
N849 H854 0.984 . S
N849 H855 0.985 . S
C850 C844 1.379 . S
C850 C847 1.363 . S
C850 N848 1.356 . S
C851 C845 1.363 . S
C851 C846 1.379 . S
C851 N849 1.356 . S
N852 C844 1.356 . S
N852 H858 0.984 . S
N852 H859 0.984 . S
N853 C846 1.356 . S
N853 H856 0.984 . S
N853 H857 0.985 . S
H854 N849 0.984 . S
H855 N849 0.985 . S
H856 N853 0.984 . S
H857 N853 0.985 . S
H858 N852 0.984 . S
H859 N852 0.984 . S
H860 N848 0.984 . S
H861 N848 0.985 . S
C862 C863 1.363 . S
C862 C868 1.379 . S
C862 N870 1.356 . S
C863 C862 1.363 . S
C863 C869 1.363 . S
C864 C865 1.363 . S
C864 C869 1.379 . S
C864 N871 1.356 . S
C865 C864 1.363 . S
C865 C868 1.363 . S
N866 C868 1.356 . S
N866 H878 0.984 . S
N866 H879 0.985 . S
N867 C869 1.356 . S
N867 H872 0.984 . S
N867 H873 0.985 . S
C868 C862 1.379 . S
C868 C865 1.363 . S
C868 N866 1.356 . S
C869 C863 1.363 . S
C869 C864 1.379 . S
C869 N867 1.356 . S
N870 C862 1.356 . S
N870 H876 0.984 . S
N870 H877 0.984 . S
N871 C864 1.356 . S
N871 H874 0.984 . S
N871 H875 0.985 . S
H872 N867 0.984 . S
H873 N867 0.985 . S
H874 N871 0.984 . S
H875 N871 0.985 . S
H876 N870 0.984 . S
H877 N870 0.984 . S
H878 N866 0.984 . S
H879 N866 0.985 . S
C880 C881 1.363 . S
C880 C886 1.379 . S
C880 N888 1.356 . S
C881 C880 1.363 . S
C881 C887 1.363 . S
C882 C883 1.363 . S
C882 C887 1.379 . S
C882 N889 1.356 . S
C883 C882 1.363 . S
C883 C886 1.363 . S
N884 C886 1.356 . S
N884 H896 0.984 . S
N884 H897 0.985 . S
N885 C887 1.356 . S
N885 H890 0.984 . S
N885 H891 0.985 . S
C886 C880 1.379 . S
C886 C883 1.363 . S
C886 N884 1.356 . S
C887 C881 1.363 . S
C887 C882 1.379 . S
C887 N885 1.356 . S
N888 C880 1.356 . S
N888 H894 0.984 . S
N888 H895 0.984 . S
N889 C882 1.356 . S
N889 H892 0.984 . S
N889 H893 0.985 . S
H890 N885 0.984 . S
H891 N885 0.985 . S
H892 N889 0.984 . S
H893 N889 0.985 . S
H894 N888 0.984 . S
H895 N888 0.984 . S
H896 N884 0.984 . S
H897 N884 0.985 . S
C898 C899 1.363 . S
C898 C904 1.379 . S
C898 N906 1.356 . S
C899 C898 1.363 . S
C899 C905 1.363 . S
C900 C901 1.363 . S
C900 C905 1.379 . S
C900 N907 1.356 . S
C901 C900 1.363 . S
C901 C904 1.363 . S
N902 C904 1.356 . S
N902 H914 0.984 . S
N902 H915 0.985 . S
N903 C905 1.356 . S
N903 H908 0.984 . S
N903 H909 0.985 . S
C904 C898 1.379 . S
C904 C901 1.363 . S
C904 N902 1.356 . S
C905 C899 1.363 . S
C905 C900 1.379 . S
C905 N903 1.356 . S
N906 C898 1.356 . S
N906 H912 0.984 . S
N906 H913 0.984 . S
N907 C900 1.356 . S
N907 H910 0.984 . S
N907 H911 0.985 . S
H908 N903 0.984 . S
H909 N903 0.985 . S
H910 N907 0.984 . S
H911 N907 0.985 . S
H912 N906 0.984 . S
H913 N906 0.984 . S
H914 N902 0.984 . S
H915 N902 0.985 . S
C916 C917 1.363 . S
C916 C922 1.379 . S
C916 N924 1.356 . S
C917 C916 1.363 . S
C917 C923 1.363 . S
C918 C919 1.363 . S
C918 C923 1.379 . S
C918 N925 1.356 . S
C919 C918 1.363 . S
C919 C922 1.363 . S
N920 C922 1.356 . S
N920 H932 0.984 . S
N920 H933 0.985 . S
N921 C923 1.356 . S
N921 H926 0.984 . S
N921 H927 0.985 . S
C922 C916 1.379 . S
C922 C919 1.363 . S
C922 N920 1.356 . S
C923 C917 1.363 . S
C923 C918 1.379 . S
C923 N921 1.356 . S
N924 C916 1.356 . S
N924 H930 0.984 . S
N924 H931 0.984 . S
N925 C918 1.356 . S
N925 H928 0.984 . S
N925 H929 0.985 . S
H926 N921 0.984 . S
H927 N921 0.985 . S
H928 N925 0.984 . S
H929 N925 0.985 . S
H930 N924 0.984 . S
H931 N924 0.984 . S
H932 N920 0.984 . S
H933 N920 0.985 . S
C934 C935 1.363 . S
C934 C940 1.379 . S
C934 N942 1.356 . S
C935 C934 1.363 . S
C935 C941 1.363 . S
C936 C937 1.363 . S
C936 C941 1.379 . S
C936 N943 1.356 . S
C937 C936 1.363 . S
C937 C940 1.363 . S
N938 C940 1.356 . S
N938 H950 0.984 . S
N938 H951 0.985 . S
N939 C941 1.356 . S
N939 H944 0.984 . S
N939 H945 0.985 . S
C940 C934 1.379 . S
C940 C937 1.363 . S
C940 N938 1.356 . S
C941 C935 1.363 . S
C941 C936 1.379 . S
C941 N939 1.356 . S
N942 C934 1.356 . S
N942 H948 0.984 . S
N942 H949 0.984 . S
N943 C936 1.356 . S
N943 H946 0.984 . S
N943 H947 0.985 . S
H944 N939 0.984 . S
H945 N939 0.985 . S
H946 N943 0.984 . S
H947 N943 0.985 . S
H948 N942 0.984 . S
H949 N942 0.984 . S
H950 N938 0.984 . S
H951 N938 0.985 . S
C952 C953 1.363 . S
C952 C958 1.379 . S
C952 N960 1.356 . S
C953 C952 1.363 . S
C953 C959 1.363 . S
C954 C955 1.363 . S
C954 C959 1.379 . S
C954 N961 1.356 . S
C955 C954 1.363 . S
C955 C958 1.363 . S
N956 C958 1.356 . S
N956 H968 0.984 . S
N956 H969 0.985 . S
N957 C959 1.356 . S
N957 H962 0.984 . S
N957 H963 0.985 . S
C958 C952 1.379 . S
C958 C955 1.363 . S
C958 N956 1.356 . S
C959 C953 1.363 . S
C959 C954 1.379 . S
C959 N957 1.356 . S
N960 C952 1.356 . S
N960 H966 0.984 . S
N960 H967 0.984 . S
N961 C954 1.356 . S
N961 H964 0.984 . S
N961 H965 0.985 . S
H962 N957 0.984 . S
H963 N957 0.985 . S
H964 N961 0.984 . S
H965 N961 0.985 . S
H966 N960 0.984 . S
H967 N960 0.984 . S
H968 N956 0.984 . S
H969 N956 0.985 . S
C970 C971 1.363 . S
C970 C976 1.379 . S
C970 N978 1.356 . S
C971 C970 1.363 . S
C971 C977 1.363 . S
C972 C973 1.363 . S
C972 C977 1.379 . S
C972 N979 1.356 . S
C973 C972 1.363 . S
C973 C976 1.363 . S
N974 C976 1.356 . S
N974 H986 0.984 . S
N974 H987 0.985 . S
N975 C977 1.356 . S
N975 H980 0.984 . S
N975 H981 0.985 . S
C976 C970 1.379 . S
C976 C973 1.363 . S
C976 N974 1.356 . S
C977 C971 1.363 . S
C977 C972 1.379 . S
C977 N975 1.356 . S
N978 C970 1.356 . S
N978 H984 0.984 . S
N978 H985 0.984 . S
N979 C972 1.356 . S
N979 H982 0.984 . S
N979 H983 0.985 . S
H980 N975 0.984 . S
H981 N975 0.985 . S
H982 N979 0.984 . S
H983 N979 0.985 . S
H984 N978 0.984 . S
H985 N978 0.984 . S
H986 N974 0.984 . S
H987 N974 0.985 . S
C988 C989 1.363 . S
C988 C994 1.379 . S
C988 N996 1.356 . S
C989 C988 1.363 . S
C989 C995 1.363 . S
C990 C991 1.363 . S
C990 C995 1.379 . S
C990 N997 1.356 . S
C991 C990 1.363 . S
C991 C994 1.363 . S
N992 C994 1.356 . S
N992 H1004 0.984 . S
N992 H1005 0.985 . S
N993 C995 1.356 . S
N993 H998 0.984 . S
N993 H999 0.985 . S
C994 C988 1.379 . S
C994 C991 1.363 . S
C994 N992 1.356 . S
C995 C989 1.363 . S
C995 C990 1.379 . S
C995 N993 1.356 . S
N996 C988 1.356 . S
N996 H1002 0.984 . S
N996 H1003 0.984 . S
N997 C990 1.356 . S
N997 H1000 0.984 . S
N997 H1001 0.985 . S
H998 N993 0.984 . S
H999 N993 0.985 . S
H1000 N997 0.984 . S
H1001 N997 0.985 . S
H1002 N996 0.984 . S
H1003 N996 0.984 . S
H1004 N992 0.984 . S
H1005 N992 0.985 . S
C1006 C1007 1.363 . S
C1006 C1012 1.379 . S
C1006 N1014 1.356 . S
C1007 C1006 1.363 . S
C1007 C1013 1.363 . S
C1008 C1009 1.363 . S
C1008 C1013 1.379 . S
C1008 N1015 1.356 . S
C1009 C1008 1.363 . S
C1009 C1012 1.363 . S
N1010 C1012 1.356 . S
N1010 H1022 0.984 . S
N1010 H1023 0.985 . S
N1011 C1013 1.356 . S
N1011 H1016 0.984 . S
N1011 H1017 0.985 . S
C1012 C1006 1.379 . S
C1012 C1009 1.363 . S
C1012 N1010 1.356 . S
C1013 C1007 1.363 . S
C1013 C1008 1.379 . S
C1013 N1011 1.356 . S
N1014 C1006 1.356 . S
N1014 H1020 0.984 . S
N1014 H1021 0.984 . S
N1015 C1008 1.356 . S
N1015 H1018 0.984 . S
N1015 H1019 0.985 . S
H1016 N1011 0.984 . S
H1017 N1011 0.985 . S
H1018 N1015 0.984 . S
H1019 N1015 0.985 . S
H1020 N1014 0.984 . S
H1021 N1014 0.984 . S
H1022 N1010 0.984 . S
H1023 N1010 0.985 . S
C1024 C1025 1.363 . S
C1024 C1030 1.379 . S
C1024 N1032 1.356 . S
C1025 C1024 1.363 . S
C1025 C1031 1.363 . S
C1026 C1027 1.363 . S
C1026 C1031 1.379 . S
C1026 N1033 1.356 . S
C1027 C1026 1.363 . S
C1027 C1030 1.363 . S
N1028 C1030 1.356 . S
N1028 H1040 0.984 . S
N1028 H1041 0.985 . S
N1029 C1031 1.356 . S
N1029 H1034 0.984 . S
N1029 H1035 0.985 . S
C1030 C1024 1.379 . S
C1030 C1027 1.363 . S
C1030 N1028 1.356 . S
C1031 C1025 1.363 . S
C1031 C1026 1.379 . S
C1031 N1029 1.356 . S
N1032 C1024 1.356 . S
N1032 H1038 0.984 . S
N1032 H1039 0.984 . S
N1033 C1026 1.356 . S
N1033 H1036 0.984 . S
N1033 H1037 0.985 . S
H1034 N1029 0.984 . S
H1035 N1029 0.985 . S
H1036 N1033 0.984 . S
H1037 N1033 0.985 . S
H1038 N1032 0.984 . S
H1039 N1032 0.984 . S
H1040 N1028 0.984 . S
H1041 N1028 0.985 . S
C1042 C1043 1.363 1_655 S
C1042 C1048 1.380 1_565 S
C1042 N1050 1.356 . S
C1043 C1042 1.363 1_455 S
C1043 C1049 1.363 . S
C1044 C1045 1.363 . S
C1044 C1049 1.379 1_545 S
C1044 N1051 1.356 . S
C1045 C1044 1.363 . S
C1045 C1048 1.358 1_455 S
N1046 C1048 1.358 . S
N1046 H1058 0.984 . S
N1046 H1059 0.986 . S
N1047 C1049 1.356 . S
N1047 H1052 0.984 . S
N1047 H1053 0.985 . S
C1048 C1042 1.380 1_545 S
C1048 C1045 1.358 1_655 S
C1048 N1046 1.358 . S
C1049 C1043 1.363 . S
C1049 C1044 1.379 1_565 S
C1049 N1047 1.356 . S
N1050 C1042 1.356 . S
N1050 H1056 0.984 . S
N1050 H1057 0.984 . S
N1051 C1044 1.356 . S
N1051 H1054 0.984 . S
N1051 H1055 0.981 1_545 S
H1052 N1047 0.984 . S
H1053 N1047 0.985 . S
H1054 N1051 0.984 . S
H1055 N1051 0.981 1_565 S
H1056 N1050 0.984 . S
H1057 N1050 0.984 . S
H1058 N1046 0.984 . S
H1059 N1046 0.986 . S
C1060 C1061 1.363 . S
C1060 C1066 1.379 . S
C1060 N1068 1.356 . S
C1061 C1060 1.363 . S
C1061 C1067 1.363 . S
C1062 C1063 1.363 . S
C1062 C1067 1.379 . S
C1062 N1069 1.356 . S
C1063 C1062 1.363 . S
C1063 C1066 1.363 . S
N1064 C1066 1.356 . S
N1064 H1076 0.984 . S
N1064 H1077 0.985 . S
N1065 C1067 1.356 . S
N1065 H1070 0.984 . S
N1065 H1071 0.985 . S
C1066 C1060 1.379 . S
C1066 C1063 1.363 . S
C1066 N1064 1.356 . S
C1067 C1061 1.363 . S
C1067 C1062 1.379 . S
C1067 N1065 1.356 . S
N1068 C1060 1.356 . S
N1068 H1074 0.984 . S
N1068 H1075 0.984 . S
N1069 C1062 1.356 . S
N1069 H1072 0.984 . S
N1069 H1073 0.985 . S
H1070 N1065 0.984 . S
H1071 N1065 0.985 . S
H1072 N1069 0.984 . S
H1073 N1069 0.985 . S
H1074 N1068 0.984 . S
H1075 N1068 0.984 . S
H1076 N1064 0.984 . S
H1077 N1064 0.985 . S
C1078 C1079 1.363 1_556 S
C1078 C1084 1.379 1_545 S
C1078 N1086 1.356 . S
C1079 C1078 1.363 1_554 S
C1079 C1085 1.363 . S
C1080 C1081 1.363 1_554 S
C1080 C1085 1.379 1_565 S
C1080 N1087 1.356 . S
C1081 C1080 1.363 1_556 S
C1081 C1084 1.363 . S
N1082 C1084 1.356 . S
N1082 H1094 0.983 . S
N1082 H1095 0.985 . S
N1083 C1085 1.356 . S
N1083 H1088 0.984 . S
N1083 H1089 0.985 . S
C1084 C1078 1.379 1_565 S
C1084 C1081 1.363 . S
C1084 N1082 1.356 . S
C1085 C1079 1.363 . S
C1085 C1080 1.379 1_545 S
C1085 N1083 1.356 . S
N1086 C1078 1.356 . S
N1086 H1092 0.984 . S
N1086 H1093 0.984 . S
N1087 C1080 1.356 . S
N1087 H1090 0.984 . S
N1087 H1091 0.985 . S
H1088 N1083 0.984 . S
H1089 N1083 0.985 . S
H1090 N1087 0.984 . S
H1091 N1087 0.985 . S
H1092 N1086 0.984 . S
H1093 N1086 0.984 . S
H1094 N1082 0.983 . S
H1095 N1082 0.985 . S
C1096 C1097 1.363 . S
C1096 C1102 1.379 . S
C1096 N1104 1.356 . S
C1097 C1096 1.363 . S
C1097 C1103 1.363 . S
C1098 C1099 1.363 . S
C1098 C1103 1.379 . S
C1098 N1105 1.356 . S
C1099 C1098 1.363 . S
C1099 C1102 1.363 . S
N1100 C1102 1.356 . S
N1100 H1112 0.984 . S
N1100 H1113 0.985 . S
N1101 C1103 1.356 . S
N1101 H1106 0.984 . S
N1101 H1107 0.985 . S
C1102 C1096 1.379 . S
C1102 C1099 1.363 . S
C1102 N1100 1.356 . S
C1103 C1097 1.363 . S
C1103 C1098 1.379 . S
C1103 N1101 1.356 . S
N1104 C1096 1.356 . S
N1104 H1110 0.984 . S
N1104 H1111 0.984 . S
N1105 C1098 1.356 . S
N1105 H1108 0.984 . S
N1105 H1109 0.985 . S
H1106 N1101 0.984 . S
H1107 N1101 0.985 . S
H1108 N1105 0.984 . S
H1109 N1105 0.985 . S
H1110 N1104 0.984 . S
H1111 N1104 0.984 . S
H1112 N1100 0.984 . S
H1113 N1100 0.985 . S
C1114 C1115 1.363 . S
C1114 C1120 1.379 1_565 S
C1114 N1122 1.356 . S
C1115 C1114 1.363 . S
C1115 C1121 1.363 . S
C1116 C1117 1.363 . S
C1116 C1121 1.379 1_545 S
C1116 N1123 1.356 . S
C1117 C1116 1.363 . S
C1117 C1120 1.363 . S
N1118 C1120 1.356 . S
N1118 H1130 0.986 1_545 S
N1118 H1131 0.985 . S
N1119 C1121 1.356 . S
N1119 H1124 0.984 . S
N1119 H1125 0.985 . S
C1120 C1114 1.379 1_545 S
C1120 C1117 1.363 . S
C1120 N1118 1.356 . S
C1121 C1115 1.363 . S
C1121 C1116 1.379 1_565 S
C1121 N1119 1.356 . S
N1122 C1114 1.356 . S
N1122 H1128 0.984 . S
N1122 H1129 0.984 . S
N1123 C1116 1.356 . S
N1123 H1126 0.984 . S
N1123 H1127 0.985 . S
H1124 N1119 0.984 . S
H1125 N1119 0.985 . S
H1126 N1123 0.984 . S
H1127 N1123 0.985 . S
H1128 N1122 0.984 . S
H1129 N1122 0.984 . S
H1130 N1118 0.986 1_565 S
H1131 N1118 0.985 . S
C1132 C1133 1.363 . S
C1132 C1138 1.379 . S
C1132 N1140 1.356 . S
C1133 C1132 1.363 . S
C1133 C1139 1.363 . S
C1134 C1135 1.363 . S
C1134 C1139 1.379 . S
C1134 N1141 1.356 . S
C1135 C1134 1.363 . S
C1135 C1138 1.363 . S
N1136 C1138 1.356 . S
N1136 H1148 0.984 . S
N1136 H1149 0.985 . S
N1137 C1139 1.356 . S
N1137 H1142 0.984 . S
N1137 H1143 0.985 . S
C1138 C1132 1.379 . S
C1138 C1135 1.363 . S
C1138 N1136 1.356 . S
C1139 C1133 1.363 . S
C1139 C1134 1.379 . S
C1139 N1137 1.356 . S
N1140 C1132 1.356 . S
N1140 H1146 0.984 . S
N1140 H1147 0.984 . S
N1141 C1134 1.356 . S
N1141 H1144 0.984 . S
N1141 H1145 0.985 . S
H1142 N1137 0.984 . S
H1143 N1137 0.985 . S
H1144 N1141 0.984 . S
H1145 N1141 0.985 . S
H1146 N1140 0.984 . S
H1147 N1140 0.984 . S
H1148 N1136 0.984 . S
H1149 N1136 0.985 . S
C1150 C1151 1.363 . S
C1150 C1156 1.379 1_545 S
C1150 N1158 1.358 . S
C1151 C1150 1.363 . S
C1151 C1157 1.363 1_556 S
C1152 C1153 1.363 . S
C1152 C1157 1.379 1_565 S
C1152 N1159 1.356 . S
C1153 C1152 1.363 . S
C1153 C1156 1.363 1_554 S
N1154 C1156 1.356 . S
N1154 H1166 0.984 . S
N1154 H1167 0.985 . S
N1155 C1157 1.356 . S
N1155 H1160 0.984 . S
N1155 H1161 0.985 . S
C1156 C1150 1.379 1_565 S
C1156 C1153 1.363 1_556 S
C1156 N1154 1.356 . S
C1157 C1151 1.363 1_554 S
C1157 C1152 1.379 1_545 S
C1157 N1155 1.356 . S
N1158 C1150 1.358 . S
N1158 H1164 0.984 1_455 S
N1158 H1165 0.984 1_455 S
N1159 C1152 1.356 . S
N1159 H1162 0.984 . S
N1159 H1163 0.991 . S
H1160 N1155 0.984 . S
H1161 N1155 0.985 . S
H1162 N1159 0.984 . S
H1163 N1159 0.991 . S
H1164 N1158 0.984 1_655 S
H1165 N1158 0.984 1_655 S
H1166 N1154 0.984 . S
H1167 N1154 0.985 . S
C1168 C1169 1.363 . S
C1168 C1174 1.379 . S
C1168 N1176 1.356 . S
C1169 C1168 1.363 . S
C1169 C1175 1.363 . S
C1170 C1171 1.363 . S
C1170 C1175 1.379 . S
C1170 N1177 1.356 . S
C1171 C1170 1.363 . S
C1171 C1174 1.363 . S
N1172 C1174 1.356 . S
N1172 H1184 0.984 . S
N1172 H1185 0.985 . S
N1173 C1175 1.356 . S
N1173 H1178 0.984 . S
N1173 H1179 0.985 . S
C1174 C1168 1.379 . S
C1174 C1171 1.363 . S
C1174 N1172 1.356 . S
C1175 C1169 1.363 . S
C1175 C1170 1.379 . S
C1175 N1173 1.356 . S
N1176 C1168 1.356 . S
N1176 H1182 0.984 . S
N1176 H1183 0.984 . S
N1177 C1170 1.356 . S
N1177 H1180 0.984 . S
N1177 H1181 0.985 . S
H1178 N1173 0.984 . S
H1179 N1173 0.985 . S
H1180 N1177 0.984 . S
H1181 N1177 0.985 . S
H1182 N1176 0.984 . S
H1183 N1176 0.984 . S
H1184 N1172 0.984 . S
H1185 N1172 0.985 . S
C1186 C1187 1.363 . S
C1186 C1192 1.379 . S
C1186 N1194 1.356 . S
C1187 C1186 1.363 . S
C1187 C1193 1.363 . S
C1188 C1189 1.363 . S
C1188 C1193 1.379 . S
C1188 N1195 1.356 . S
C1189 C1188 1.363 . S
C1189 C1192 1.363 . S
N1190 C1192 1.356 . S
N1190 H1202 0.984 . S
N1190 H1203 0.985 . S
N1191 C1193 1.356 . S
N1191 H1196 0.984 . S
N1191 H1197 0.985 . S
C1192 C1186 1.379 . S
C1192 C1189 1.363 . S
C1192 N1190 1.356 . S
C1193 C1187 1.363 . S
C1193 C1188 1.379 . S
C1193 N1191 1.356 . S
N1194 C1186 1.356 . S
N1194 H1200 0.984 . S
N1194 H1201 0.984 . S
N1195 C1188 1.356 . S
N1195 H1198 0.984 . S
N1195 H1199 0.985 . S
H1196 N1191 0.984 . S
H1197 N1191 0.985 . S
H1198 N1195 0.984 . S
H1199 N1195 0.985 . S
H1200 N1194 0.984 . S
H1201 N1194 0.984 . S
H1202 N1190 0.984 . S
H1203 N1190 0.985 . S
C1204 C1205 1.363 . S
C1204 C1210 1.379 . S
C1204 N1212 1.356 . S
C1205 C1204 1.363 . S
C1205 C1211 1.363 . S
C1206 C1207 1.363 . S
C1206 C1211 1.379 . S
C1206 N1213 1.356 . S
C1207 C1206 1.363 . S
C1207 C1210 1.363 . S
N1208 C1210 1.356 . S
N1208 H1220 0.984 . S
N1208 H1221 0.985 . S
N1209 C1211 1.356 . S
N1209 H1214 0.984 . S
N1209 H1215 0.985 . S
C1210 C1204 1.379 . S
C1210 C1207 1.363 . S
C1210 N1208 1.356 . S
C1211 C1205 1.363 . S
C1211 C1206 1.379 . S
C1211 N1209 1.356 . S
N1212 C1204 1.356 . S
N1212 H1218 0.984 . S
N1212 H1219 0.984 . S
N1213 C1206 1.356 . S
N1213 H1216 0.984 . S
N1213 H1217 0.985 . S
H1214 N1209 0.984 . S
H1215 N1209 0.985 . S
H1216 N1213 0.984 . S
H1217 N1213 0.985 . S
H1218 N1212 0.984 . S
H1219 N1212 0.984 . S
H1220 N1208 0.984 . S
H1221 N1208 0.985 . S
C1222 C1223 1.363 . S
C1222 C1228 1.379 . S
C1222 N1230 1.356 . S
C1223 C1222 1.363 . S
C1223 C1229 1.363 . S
C1224 C1225 1.363 . S
C1224 C1229 1.379 . S
C1224 N1231 1.356 . S
C1225 C1224 1.363 . S
C1225 C1228 1.363 . S
N1226 C1228 1.356 . S
N1226 H1238 0.984 . S
N1226 H1239 0.985 . S
N1227 C1229 1.356 . S
N1227 H1232 0.984 . S
N1227 H1233 0.985 . S
C1228 C1222 1.379 . S
C1228 C1225 1.363 . S
C1228 N1226 1.356 . S
C1229 C1223 1.363 . S
C1229 C1224 1.379 . S
C1229 N1227 1.356 . S
N1230 C1222 1.356 . S
N1230 H1236 0.984 . S
N1230 H1237 0.984 . S
N1231 C1224 1.356 . S
N1231 H1234 0.984 . S
N1231 H1235 0.985 . S
H1232 N1227 0.984 . S
H1233 N1227 0.985 . S
H1234 N1231 0.984 . S
H1235 N1231 0.985 . S
H1236 N1230 0.984 . S
H1237 N1230 0.984 . S
H1238 N1226 0.984 . S
H1239 N1226 0.985 . S
C1240 C1241 1.363 . S
C1240 C1246 1.379 . S
C1240 N1248 1.356 . S
C1241 C1240 1.363 . S
C1241 C1247 1.363 1_554 S
C1242 C1243 1.363 . S
C1242 C1247 1.379 . S
C1242 N1249 1.356 . S
C1243 C1242 1.363 . S
C1243 C1246 1.363 1_556 S
N1244 C1246 1.356 . S
N1244 H1256 0.984 . S
N1244 H1257 0.985 . S
N1245 C1247 1.356 . S
N1245 H1250 0.984 . S
N1245 H1251 0.985 . S
C1246 C1240 1.379 . S
C1246 C1243 1.363 1_554 S
C1246 N1244 1.356 . S
C1247 C1241 1.363 1_556 S
C1247 C1242 1.379 . S
C1247 N1245 1.356 . S
N1248 C1240 1.356 . S
N1248 H1254 0.984 . S
N1248 H1255 0.984 . S
N1249 C1242 1.356 . S
N1249 H1252 0.984 . S
N1249 H1253 0.985 . S
H1250 N1245 0.984 . S
H1251 N1245 0.985 . S
H1252 N1249 0.984 . S
H1253 N1249 0.985 . S
H1254 N1248 0.984 . S
H1255 N1248 0.984 . S
H1256 N1244 0.984 . S
H1257 N1244 0.985 . S
C1258 C1259 1.363 1_455 S
C1258 C1264 1.379 . S
C1258 N1266 1.356 . S
C1259 C1258 1.363 1_655 S
C1259 C1265 1.363 . S
C1260 C1261 1.363 . S
C1260 C1265 1.379 . S
C1260 N1267 1.356 . S
C1261 C1260 1.363 . S
C1261 C1264 1.363 1_655 S
N1262 C1264 1.356 . S
N1262 H1274 0.984 . S
N1262 H1275 0.985 . S
N1263 C1265 1.356 . S
N1263 H1268 0.984 . S
N1263 H1269 0.985 . S
C1264 C1258 1.379 . S
C1264 C1261 1.363 1_455 S
C1264 N1262 1.356 . S
C1265 C1259 1.363 . S
C1265 C1260 1.379 . S
C1265 N1263 1.356 . S
N1266 C1258 1.356 . S
N1266 H1272 0.984 . S
N1266 H1273 0.984 . S
N1267 C1260 1.356 . S
N1267 H1270 0.984 . S
N1267 H1271 0.985 . S
H1268 N1263 0.984 . S
H1269 N1263 0.985 . S
H1270 N1267 0.984 . S
H1271 N1267 0.985 . S
H1272 N1266 0.984 . S
H1273 N1266 0.984 . S
H1274 N1262 0.984 . S
H1275 N1262 0.985 . S
C1276 C1277 1.363 1_554 S
C1276 C1282 1.379 . S
C1276 N1284 1.356 . S
C1277 C1276 1.363 1_556 S
C1277 C1283 1.366 . S
C1278 C1279 1.363 1_556 S
C1278 C1283 1.382 . S
C1278 N1285 1.356 . S
C1279 C1278 1.363 1_554 S
C1279 C1282 1.363 . S
N1280 C1282 1.356 . S
N1280 H1292 0.984 . S
N1280 H1293 0.985 . S
N1281 C1283 1.350 1_455 S
N1281 H1286 0.984 . S
N1281 H1287 0.985 . S
C1282 C1276 1.379 . S
C1282 C1279 1.363 . S
C1282 N1280 1.356 . S
C1283 C1277 1.366 . S
C1283 C1278 1.382 . S
C1283 N1281 1.350 1_655 S
N1284 C1276 1.356 . S
N1284 H1290 0.984 . S
N1284 H1291 0.984 . S
N1285 C1278 1.356 . S
N1285 H1288 0.984 . S
N1285 H1289 0.985 1_655 S
H1286 N1281 0.984 . S
H1287 N1281 0.985 . S
H1288 N1285 0.984 . S
H1289 N1285 0.985 1_455 S
H1290 N1284 0.984 . S
H1291 N1284 0.984 . S
H1292 N1280 0.984 . S
H1293 N1280 0.985 . S
C1294 C1295 1.363 . S
C1294 C1300 1.379 . S
C1294 N1302 1.356 . S
C1295 C1294 1.363 . S
C1295 C1301 1.363 . S
C1296 C1297 1.363 . S
C1296 C1301 1.379 . S
C1296 N1303 1.356 . S
C1297 C1296 1.363 . S
C1297 C1300 1.363 . S
N1298 C1300 1.356 . S
N1298 H1310 0.984 . S
N1298 H1311 0.985 . S
N1299 C1301 1.356 . S
N1299 H1304 0.984 . S
N1299 H1305 0.985 . S
C1300 C1294 1.379 . S
C1300 C1297 1.363 . S
C1300 N1298 1.356 . S
C1301 C1295 1.363 . S
C1301 C1296 1.379 . S
C1301 N1299 1.356 . S
N1302 C1294 1.356 . S
N1302 H1308 0.984 . S
N1302 H1309 0.984 . S
N1303 C1296 1.356 . S
N1303 H1306 0.984 . S
N1303 H1307 0.985 . S
H1304 N1299 0.984 . S
H1305 N1299 0.985 . S
H1306 N1303 0.984 . S
H1307 N1303 0.985 . S
H1308 N1302 0.984 . S
H1309 N1302 0.984 . S
H1310 N1298 0.984 . S
H1311 N1298 0.985 . S
C1312 C1313 1.363 . S
C1312 C1318 1.379 . S
C1312 N1320 1.356 . S
C1313 C1312 1.363 . S
C1313 C1319 1.363 . S
C1314 C1315 1.363 . S
C1314 C1319 1.379 . S
C1314 N1321 1.356 . S
C1315 C1314 1.363 . S
C1315 C1318 1.363 . S
N1316 C1318 1.356 . S
N1316 H1328 0.984 . S
N1316 H1329 0.985 . S
N1317 C1319 1.356 . S
N1317 H1322 0.984 . S
N1317 H1323 0.985 . S
C1318 C1312 1.379 . S
C1318 C1315 1.363 . S
C1318 N1316 1.356 . S
C1319 C1313 1.363 . S
C1319 C1314 1.379 . S
C1319 N1317 1.356 . S
N1320 C1312 1.356 . S
N1320 H1326 0.984 . S
N1320 H1327 0.984 . S
N1321 C1314 1.356 . S
N1321 H1324 0.984 . S
N1321 H1325 0.985 . S
H1322 N1317 0.984 . S
H1323 N1317 0.985 . S
H1324 N1321 0.984 . S
H1325 N1321 0.985 . S
H1326 N1320 0.984 . S
H1327 N1320 0.984 . S
H1328 N1316 0.984 . S
H1329 N1316 0.985 . S
C1330 C1331 1.363 . S
C1330 C1336 1.379 . S
C1330 N1338 1.356 . S
C1331 C1330 1.363 . S
C1331 C1337 1.363 . S
C1332 C1333 1.363 . S
C1332 C1337 1.379 . S
C1332 N1339 1.356 . S
C1333 C1332 1.363 . S
C1333 C1336 1.363 . S
N1334 C1336 1.356 . S
N1334 H1346 0.984 . S
N1334 H1347 0.985 . S
N1335 C1337 1.356 . S
N1335 H1340 0.984 . S
N1335 H1341 0.985 . S
C1336 C1330 1.379 . S
C1336 C1333 1.363 . S
C1336 N1334 1.356 . S
C1337 C1331 1.363 . S
C1337 C1332 1.379 . S
C1337 N1335 1.356 . S
N1338 C1330 1.356 . S
N1338 H1344 0.984 . S
N1338 H1345 0.984 . S
N1339 C1332 1.356 . S
N1339 H1342 0.984 . S
N1339 H1343 0.985 . S
H1340 N1335 0.984 . S
H1341 N1335 0.985 . S
H1342 N1339 0.984 . S
H1343 N1339 0.985 . S
H1344 N1338 0.984 . S
H1345 N1338 0.984 . S
H1346 N1334 0.984 . S
H1347 N1334 0.985 . S
C1348 C1349 1.363 . S
C1348 C1354 1.379 . S
C1348 N1356 1.356 . S
C1349 C1348 1.363 . S
C1349 C1355 1.363 . S
C1350 C1351 1.363 . S
C1350 C1355 1.379 . S
C1350 N1357 1.356 . S
C1351 C1350 1.363 . S
C1351 C1354 1.363 . S
N1352 C1354 1.356 . S
N1352 H1364 0.984 . S
N1352 H1365 0.985 . S
N1353 C1355 1.356 . S
N1353 H1358 0.984 . S
N1353 H1359 0.985 . S
C1354 C1348 1.379 . S
C1354 C1351 1.363 . S
C1354 N1352 1.356 . S
C1355 C1349 1.363 . S
C1355 C1350 1.379 . S
C1355 N1353 1.356 . S
N1356 C1348 1.356 . S
N1356 H1362 0.984 . S
N1356 H1363 0.984 . S
N1357 C1350 1.356 . S
N1357 H1360 0.984 . S
N1357 H1361 0.985 . S
H1358 N1353 0.984 . S
H1359 N1353 0.985 . S
H1360 N1357 0.984 . S
H1361 N1357 0.985 . S
H1362 N1356 0.984 . S
H1363 N1356 0.984 . S
H1364 N1352 0.984 . S
H1365 N1352 0.985 . S
C1366 C1367 1.363 . S
C1366 C1372 1.379 . S
C1366 N1374 1.356 . S
C1367 C1366 1.363 . S
C1367 C1373 1.363 . S
C1368 C1369 1.363 . S
C1368 C1373 1.379 . S
C1368 N1375 1.356 . S
C1369 C1368 1.363 . S
C1369 C1372 1.363 . S
N1370 C1372 1.356 . S
N1370 H1382 0.984 . S
N1370 H1383 0.985 . S
N1371 C1373 1.356 . S
N1371 H1376 0.984 . S
N1371 H1377 0.985 . S
C1372 C1366 1.379 . S
C1372 C1369 1.363 . S
C1372 N1370 1.356 . S
C1373 C1367 1.363 . S
C1373 C1368 1.379 . S
C1373 N1371 1.356 . S
N1374 C1366 1.356 . S
N1374 H1380 0.984 . S
N1374 H1381 0.984 . S
N1375 C1368 1.356 . S
N1375 H1378 0.984 . S
N1375 H1379 0.985 . S
H1376 N1371 0.984 . S
H1377 N1371 0.985 . S
H1378 N1375 0.984 . S
H1379 N1375 0.985 . S
H1380 N1374 0.984 . S
H1381 N1374 0.984 . S
H1382 N1370 0.984 . S
H1383 N1370 0.985 . S
C1384 C1385 1.363 . S
C1384 C1390 1.379 . S
C1384 N1392 1.356 . S
C1385 C1384 1.363 . S
C1385 C1391 1.363 . S
C1386 C1387 1.363 . S
C1386 C1391 1.379 . S
C1386 N1393 1.356 . S
C1387 C1386 1.363 . S
C1387 C1390 1.363 . S
N1388 C1390 1.356 . S
N1388 H1400 0.984 . S
N1388 H1401 0.985 . S
N1389 C1391 1.356 . S
N1389 H1394 0.984 . S
N1389 H1395 0.985 . S
C1390 C1384 1.379 . S
C1390 C1387 1.363 . S
C1390 N1388 1.356 . S
C1391 C1385 1.363 . S
C1391 C1386 1.379 . S
C1391 N1389 1.356 . S
N1392 C1384 1.356 . S
N1392 H1398 0.984 . S
N1392 H1399 0.984 . S
N1393 C1386 1.356 . S
N1393 H1396 0.984 . S
N1393 H1397 0.985 . S
H1394 N1389 0.984 . S
H1395 N1389 0.985 . S
H1396 N1393 0.984 . S
H1397 N1393 0.985 . S
H1398 N1392 0.984 . S
H1399 N1392 0.984 . S
H1400 N1388 0.984 . S
H1401 N1388 0.985 . S
C1402 C1403 1.363 . S
C1402 C1408 1.379 . S
C1402 N1410 1.356 . S
C1403 C1402 1.363 . S
C1403 C1409 1.363 . S
C1404 C1405 1.363 . S
C1404 C1409 1.379 . S
C1404 N1411 1.356 . S
C1405 C1404 1.363 . S
C1405 C1408 1.363 . S
N1406 C1408 1.356 . S
N1406 H1418 0.984 . S
N1406 H1419 0.985 . S
N1407 C1409 1.356 . S
N1407 H1412 0.984 . S
N1407 H1413 0.985 . S
C1408 C1402 1.379 . S
C1408 C1405 1.363 . S
C1408 N1406 1.356 . S
C1409 C1403 1.363 . S
C1409 C1404 1.379 . S
C1409 N1407 1.356 . S
N1410 C1402 1.356 . S
N1410 H1416 0.984 . S
N1410 H1417 0.984 . S
N1411 C1404 1.356 . S
N1411 H1414 0.984 . S
N1411 H1415 0.985 . S
H1412 N1407 0.984 . S
H1413 N1407 0.985 . S
H1414 N1411 0.984 . S
H1415 N1411 0.985 . S
H1416 N1410 0.984 . S
H1417 N1410 0.984 . S
H1418 N1406 0.984 . S
H1419 N1406 0.985 . S
C1420 C1421 1.363 . S
C1420 C1426 1.379 . S
C1420 N1428 1.356 . S
C1421 C1420 1.363 . S
C1421 C1427 1.363 . S
C1422 C1423 1.363 . S
C1422 C1427 1.379 . S
C1422 N1429 1.356 . S
C1423 C1422 1.363 . S
C1423 C1426 1.363 . S
N1424 C1426 1.356 . S
N1424 H1436 0.984 . S
N1424 H1437 0.985 . S
N1425 C1427 1.356 . S
N1425 H1430 0.984 . S
N1425 H1431 0.985 . S
C1426 C1420 1.379 . S
C1426 C1423 1.363 . S
C1426 N1424 1.356 . S
C1427 C1421 1.363 . S
C1427 C1422 1.379 . S
C1427 N1425 1.356 . S
N1428 C1420 1.356 . S
N1428 H1434 0.984 . S
N1428 H1435 0.984 . S
N1429 C1422 1.356 . S
N1429 H1432 0.984 . S
N1429 H1433 0.985 . S
H1430 N1425 0.984 . S
H1431 N1425 0.985 . S
H1432 N1429 0.984 . S
H1433 N1429 0.985 . S
H1434 N1428 0.984 . S
H1435 N1428 0.984 . S
H1436 N1424 0.984 . S
H1437 N1424 0.985 . S
C1438 C1439 1.363 . S
C1438 C1444 1.379 . S
C1438 N1446 1.356 . S
C1439 C1438 1.363 . S
C1439 C1445 1.363 . S
C1440 C1441 1.363 . S
C1440 C1445 1.379 . S
C1440 N1447 1.356 . S
C1441 C1440 1.363 . S
C1441 C1444 1.363 . S
N1442 C1444 1.356 . S
N1442 H1454 0.995 . S
N1442 H1455 0.985 . S
N1443 C1445 1.356 . S
N1443 H1448 0.984 . S
N1443 H1449 0.985 . S
C1444 C1438 1.379 . S
C1444 C1441 1.363 . S
C1444 N1442 1.356 . S
C1445 C1439 1.363 . S
C1445 C1440 1.379 . S
C1445 N1443 1.356 . S
N1446 C1438 1.356 . S
N1446 H1452 0.984 . S
N1446 H1453 0.984 . S
N1447 C1440 1.356 . S
N1447 H1450 0.984 . S
N1447 H1451 0.985 . S
H1448 N1443 0.984 . S
H1449 N1443 0.985 . S
H1450 N1447 0.984 . S
H1451 N1447 0.985 . S
H1452 N1446 0.984 . S
H1453 N1446 0.984 . S
H1454 N1442 0.995 . S
H1455 N1442 0.985 . S
C1456 C1457 1.363 . S
C1456 C1462 1.379 . S
C1456 N1464 1.356 . S
C1457 C1456 1.363 . S
C1457 C1463 1.363 . S
C1458 C1459 1.363 . S
C1458 C1463 1.379 . S
C1458 N1465 1.356 . S
C1459 C1458 1.363 . S
C1459 C1462 1.363 . S
N1460 C1462 1.356 . S
N1460 H1472 0.984 . S
N1460 H1473 0.985 . S
N1461 C1463 1.356 . S
N1461 H1466 0.984 . S
N1461 H1467 0.985 . S
C1462 C1456 1.379 . S
C1462 C1459 1.363 . S
C1462 N1460 1.356 . S
C1463 C1457 1.363 . S
C1463 C1458 1.379 . S
C1463 N1461 1.356 . S
N1464 C1456 1.356 . S
N1464 H1470 0.984 . S
N1464 H1471 0.984 . S
N1465 C1458 1.356 . S
N1465 H1468 0.984 . S
N1465 H1469 0.985 . S
H1466 N1461 0.984 . S
H1467 N1461 0.985 . S
H1468 N1465 0.984 . S
H1469 N1465 0.985 . S
H1470 N1464 0.984 . S
H1471 N1464 0.984 . S
H1472 N1460 0.984 . S
H1473 N1460 0.985 . S
C1474 C1475 1.363 . S
C1474 C1480 1.379 . S
C1474 N1482 1.356 . S
C1475 C1474 1.363 . S
C1475 C1481 1.363 . S
C1476 C1477 1.363 . S
C1476 C1481 1.379 . S
C1476 N1483 1.356 . S
C1477 C1476 1.363 . S
C1477 C1480 1.363 . S
N1478 C1480 1.356 . S
N1478 H1490 0.984 1_455 S
N1478 H1491 0.985 . S
N1479 C1481 1.356 . S
N1479 H1484 0.984 . S
N1479 H1485 0.985 . S
C1480 C1474 1.379 . S
C1480 C1477 1.363 . S
C1480 N1478 1.356 . S
C1481 C1475 1.363 . S
C1481 C1476 1.379 . S
C1481 N1479 1.356 . S
N1482 C1474 1.356 . S
N1482 H1488 0.984 . S
N1482 H1489 0.984 . S
N1483 C1476 1.356 . S
N1483 H1486 0.984 . S
N1483 H1487 0.985 . S
H1484 N1479 0.984 . S
H1485 N1479 0.985 . S
H1486 N1483 0.984 . S
H1487 N1483 0.985 . S
H1488 N1482 0.984 . S
H1489 N1482 0.984 . S
H1490 N1478 0.984 1_655 S
H1491 N1478 0.985 . S
C1492 C1493 1.363 . S
C1492 C1498 1.379 . S
C1492 N1500 1.356 . S
C1493 C1492 1.363 . S
C1493 C1499 1.363 . S
C1494 C1495 1.363 . S
C1494 C1499 1.379 . S
C1494 N1501 1.356 . S
C1495 C1494 1.363 . S
C1495 C1498 1.363 . S
N1496 C1498 1.356 . S
N1496 H1508 0.984 . S
N1496 H1509 0.985 . S
N1497 C1499 1.356 . S
N1497 H1502 0.984 . S
N1497 H1503 0.985 . S
C1498 C1492 1.379 . S
C1498 C1495 1.363 . S
C1498 N1496 1.356 . S
C1499 C1493 1.363 . S
C1499 C1494 1.379 . S
C1499 N1497 1.356 . S
N1500 C1492 1.356 . S
N1500 H1506 0.984 . S
N1500 H1507 0.984 . S
N1501 C1494 1.356 . S
N1501 H1504 0.984 . S
N1501 H1505 0.985 . S
H1502 N1497 0.984 . S
H1503 N1497 0.985 . S
H1504 N1501 0.984 . S
H1505 N1501 0.985 . S
H1506 N1500 0.984 . S
H1507 N1500 0.984 . S
H1508 N1496 0.984 . S
H1509 N1496 0.985 . S
C1510 C1511 1.363 . S
C1510 C1516 1.379 . S
C1510 N1518 1.356 . S
C1511 C1510 1.363 . S
C1511 C1517 1.363 . S
C1512 C1513 1.363 . S
C1512 C1517 1.379 . S
C1512 N1519 1.356 . S
C1513 C1512 1.363 . S
C1513 C1516 1.363 . S
N1514 C1516 1.356 . S
N1514 H1526 0.984 . S
N1514 H1527 0.985 . S
N1515 C1517 1.356 . S
N1515 H1520 0.984 . S
N1515 H1521 0.985 . S
C1516 C1510 1.379 . S
C1516 C1513 1.363 . S
C1516 N1514 1.356 . S
C1517 C1511 1.363 . S
C1517 C1512 1.379 . S
C1517 N1515 1.356 . S
N1518 C1510 1.356 . S
N1518 H1524 0.984 . S
N1518 H1525 0.984 . S
N1519 C1512 1.356 . S
N1519 H1522 0.984 . S
N1519 H1523 0.985 . S
H1520 N1515 0.984 . S
H1521 N1515 0.985 . S
H1522 N1519 0.984 . S
H1523 N1519 0.985 . S
H1524 N1518 0.984 . S
H1525 N1518 0.984 . S
H1526 N1514 0.984 . S
H1527 N1514 0.985 . S
C1528 C1529 1.363 . S
C1528 C1534 1.379 . S
C1528 N1536 1.356 . S
C1529 C1528 1.363 . S
C1529 C1535 1.363 . S
C1530 C1531 1.363 . S
C1530 C1535 1.379 . S
C1530 N1537 1.356 . S
C1531 C1530 1.363 . S
C1531 C1534 1.363 . S
N1532 C1534 1.356 . S
N1532 H1544 0.984 . S
N1532 H1545 0.985 . S
N1533 C1535 1.356 . S
N1533 H1538 0.984 . S
N1533 H1539 0.985 . S
C1534 C1528 1.379 . S
C1534 C1531 1.363 . S
C1534 N1532 1.356 . S
C1535 C1529 1.363 . S
C1535 C1530 1.379 . S
C1535 N1533 1.356 . S
N1536 C1528 1.356 . S
N1536 H1542 0.984 . S
N1536 H1543 0.984 . S
N1537 C1530 1.356 . S
N1537 H1540 0.984 . S
N1537 H1541 0.985 . S
H1538 N1533 0.984 . S
H1539 N1533 0.985 . S
H1540 N1537 0.984 . S
H1541 N1537 0.985 . S
H1542 N1536 0.984 . S
H1543 N1536 0.984 . S
H1544 N1532 0.984 . S
H1545 N1532 0.985 . S
C1546 C1547 1.363 . S
C1546 C1552 1.379 . S
C1546 N1554 1.356 . S
C1547 C1546 1.363 . S
C1547 C1553 1.363 . S
C1548 C1549 1.363 . S
C1548 C1553 1.379 . S
C1548 N1555 1.356 . S
C1549 C1548 1.363 . S
C1549 C1552 1.363 . S
N1550 C1552 1.356 . S
N1550 H1562 0.984 . S
N1550 H1563 0.985 . S
N1551 C1553 1.356 . S
N1551 H1556 0.984 . S
N1551 H1557 0.985 . S
C1552 C1546 1.379 . S
C1552 C1549 1.363 . S
C1552 N1550 1.356 . S
C1553 C1547 1.363 . S
C1553 C1548 1.379 . S
C1553 N1551 1.356 . S
N1554 C1546 1.356 . S
N1554 H1560 0.984 . S
N1554 H1561 0.984 . S
N1555 C1548 1.356 . S
N1555 H1558 0.984 . S
N1555 H1559 0.985 . S
H1556 N1551 0.984 . S
H1557 N1551 0.985 . S
H1558 N1555 0.984 . S
H1559 N1555 0.985 . S
H1560 N1554 0.984 . S
H1561 N1554 0.984 . S
H1562 N1550 0.984 . S
H1563 N1550 0.985 . S
C1564 C1565 1.363 . S
C1564 C1570 1.379 . S
C1564 N1572 1.356 . S
C1565 C1564 1.363 . S
C1565 C1571 1.363 . S
C1566 C1567 1.363 . S
C1566 C1571 1.379 . S
C1566 N1573 1.356 . S
C1567 C1566 1.363 . S
C1567 C1570 1.363 . S
N1568 C1570 1.356 . S
N1568 H1580 0.984 . S
N1568 H1581 0.985 . S
N1569 C1571 1.356 . S
N1569 H1574 0.984 . S
N1569 H1575 0.985 . S
C1570 C1564 1.379 . S
C1570 C1567 1.363 . S
C1570 N1568 1.356 . S
C1571 C1565 1.363 . S
C1571 C1566 1.379 . S
C1571 N1569 1.356 . S
N1572 C1564 1.356 . S
N1572 H1578 0.984 . S
N1572 H1579 0.984 . S
N1573 C1566 1.356 . S
N1573 H1576 0.984 . S
N1573 H1577 0.985 . S
H1574 N1569 0.984 . S
H1575 N1569 0.985 . S
H1576 N1573 0.984 . S
H1577 N1573 0.985 . S
H1578 N1572 0.984 . S
H1579 N1572 0.984 . S
H1580 N1568 0.984 . S
H1581 N1568 0.985 . S
C1582 C1583 1.363 . S
C1582 C1588 1.379 . S
C1582 N1590 1.356 . S
C1583 C1582 1.363 . S
C1583 C1589 1.363 . S
C1584 C1585 1.363 . S
C1584 C1589 1.379 . S
C1584 N1591 1.356 . S
C1585 C1584 1.363 . S
C1585 C1588 1.363 . S
N1586 C1588 1.356 . S
N1586 H1598 0.984 . S
N1586 H1599 0.985 . S
N1587 C1589 1.356 . S
N1587 H1592 0.984 . S
N1587 H1593 0.985 . S
C1588 C1582 1.379 . S
C1588 C1585 1.363 . S
C1588 N1586 1.356 . S
C1589 C1583 1.363 . S
C1589 C1584 1.379 . S
C1589 N1587 1.356 . S
N1590 C1582 1.356 . S
N1590 H1596 0.984 . S
N1590 H1597 0.984 . S
N1591 C1584 1.356 . S
N1591 H1594 0.984 . S
N1591 H1595 0.985 . S
H1592 N1587 0.984 . S
H1593 N1587 0.985 . S
H1594 N1591 0.984 . S
H1595 N1591 0.985 . S
H1596 N1590 0.984 . S
H1597 N1590 0.984 . S
H1598 N1586 0.984 . S
H1599 N1586 0.985 . S
C449 C130 1.214 . S
C451 C4 1.173 . S
C467 C26 1.274 . S
C469 C368 1.236 . S
C485 C158 1.214 . S
C487 C32 1.173 . S
C503 C340 1.236 . S
C505 C54 1.274 . S
C521 C60 1.173 . S
C523 C214 1.214 . S
C539 C396 1.236 . S
C541 C82 1.274 . S
C557 C88 1.173 . S
C559 C186 1.214 . S
C575 C424 1.236 . S
C577 C110 1.274 . S
C593 C18 1.147 . S
C595 C124 1.138 . S
C611 C138 1.166 . S
C613 C264 1.179 . S
C629 C46 1.147 . S
C631 C152 1.138 . S
C647 C166 1.166 . S
C649 C236 1.179 . S
C665 C180 1.138 . S
C667 C102 1.147 . S
C683 C292 1.179 . S
C685 C194 1.166 . S
C701 C208 1.138 . S
C703 C74 1.147 . S
C719 C320 1.179 . S
C721 C222 1.166 . S
C737 C354 1.214 . S
C739 C228 1.173 . S
C755 C144 1.236 . S
C757 C250 1.274 . S
C773 C256 1.173 . S
C775 C382 1.214 . S
C791 C116 1.236 . S
C793 C278 1.274 . S
C809 C438 1.214 . S
C811 C284 1.173 . S
C827 C306 1.274 . S
C829 C172 1.236 . S
C845 C410 1.214 . S
C847 C312 1.173 . S
C863 C200 1.236 . S
C865 C334 1.274 . S
C881 C242 1.147 . S
C883 C348 1.138 . S
C899 C362 1.166 . S
C901 C40 1.179 . S
C917 C376 1.138 . S
C919 C270 1.147 . S
C935 C390 1.166 . S
C937 C12 1.179 . S
C953 C326 1.147 . S
C955 C404 1.138 . S
C971 C418 1.166 . S
C973 C68 1.179 . S
C989 C432 1.138 . S
C991 C298 1.147 . S
C1007 C446 1.166 . S
C1009 C96 1.179 . S
C1025 C347 1.365 . S
C1027 C5 1.058 . S
C1043 C25 1.402 . S
C1045 C137 1.400 . S
C1061 C33 1.058 . S
C1063 C375 1.365 . S
C1079 C53 1.402 . S
C1081 C165 1.400 . S
C1097 C61 1.058 . S
C1099 C403 1.365 . S
C1115 C81 1.402 . S
C1117 C193 1.400 . S
C1133 C431 1.365 . S
C1135 C89 1.058 . S
C1151 C109 1.402 . S
C1153 C221 1.400 . S
C1169 C123 1.365 . S
C1171 C229 1.058 . S
C1187 C151 1.365 . S
C1189 C257 1.058 . S
C1205 C285 1.058 . S
C1207 C179 1.365 . S
C1223 C313 1.058 . S
C1225 C207 1.365 . S
C1241 C249 1.402 . S
C1243 C361 1.400 . S
C1259 C389 1.400 . S
C1261 C277 1.402 . S
C1277 C305 1.402 . S
C1279 C417 1.400 . S
C1295 C445 1.400 . S
C1297 C333 1.402 . S
C1313 C299 1.466 . S
C1315 C11 1.452 . S
C1331 C319 1.452 . S
C1333 C19 1.466 . S
C1349 C39 1.452 . S
C1351 C327 1.466 . S
C1367 C291 1.452 . S
C1369 C47 1.466 . S
C1385 C271 1.466 . S
C1387 C67 1.452 . S
C1403 C235 1.452 . S
C1405 C75 1.466 . S
C1421 C95 1.452 . S
C1423 C243 1.466 . S
C1439 C263 1.452 . S
C1441 C103 1.466 . S
C1457 C411 1.327 . S
C1459 C117 1.363 . S
C1475 C425 1.363 . S
C1477 C131 1.327 . S
C1493 C439 1.327 . S
C1495 C145 1.363 . S
C1511 C159 1.327 . S
C1513 C397 1.363 . S
C1529 C383 1.327 . S
C1531 C173 1.363 . S
C1547 C341 1.363 . S
C1549 C187 1.327 . S
C1565 C355 1.327 . S
C1567 C201 1.363 . S
C1583 C369 1.363 . S
C1585 C215 1.327 . S
