# Generated by pormake.
# Topology lcy-e, (6)-cn, num edge types: 1
# Building blocks:
#     Node 0, Type 0, BuildingBlock: JUFBIX_clean_sbu_0, # of connection points: 6
#     Node 1, Type 0, BuildingBlock: JUFBIX_clean_sbu_0, # of connection points: 6
#     Node 2, Type 0, BuildingBlock: JUFBIX_clean_sbu_0, # of connection points: 6
#     Node 3, Type 0, BuildingBlock: JUFBIX_clean_sbu_0, # of connection points: 6
#     Node 4, Type 0, BuildingBlock: JUFBIX_clean_sbu_0, # of connection points: 6
#     Node 5, Type 0, BuildingBlock: JUFBIX_clean_sbu_0, # of connection points: 6
#     Node 6, Type 0, BuildingBlock: JUFBIX_clean_sbu_0, # of connection points: 6
#     Node 7, Type 0, BuildingBlock: JUFBIX_clean_sbu_0, # of connection points: 6
#     Node 8, Type 0, BuildingBlock: JUFBIX_clean_sbu_0, # of connection points: 6
#     Node 9, Type 0, BuildingBlock: JUFBIX_clean_sbu_0, # of connection points: 6
#     Node 10, Type 0, BuildingBlock: JUFBIX_clean_sbu_0, # of connection points: 6
#     Node 11, Type 0, BuildingBlock: JUFBIX_clean_sbu_0, # of connection points: 6
#     Edge 12, Type (0, 0), BuildingBlock: ZUJKAS_clean_linker_0, # of connection points: 2
#     Edge 13, Type (0, 0), BuildingBlock: ZUJKAS_clean_linker_0, # of connection points: 2
#     Edge 14, Type (0, 0), BuildingBlock: ZUJKAS_clean_linker_0, # of connection points: 2
#     Edge 15, Type (0, 0), BuildingBlock: ZUJKAS_clean_linker_0, # of connection points: 2
#     Edge 16, Type (0, 0), BuildingBlock: ZUJKAS_clean_linker_0, # of connection points: 2
#     Edge 17, Type (0, 0), BuildingBlock: ZUJKAS_clean_linker_0, # of connection points: 2
#     Edge 18, Type (0, 0), BuildingBlock: ZUJKAS_clean_linker_0, # of connection points: 2
#     Edge 19, Type (0, 0), BuildingBlock: ZUJKAS_clean_linker_0, # of connection points: 2
#     Edge 20, Type (0, 0), BuildingBlock: ZUJKAS_clean_linker_0, # of connection points: 2
#     Edge 21, Type (0, 0), BuildingBlock: ZUJKAS_clean_linker_0, # of connection points: 2
#     Edge 22, Type (0, 0), BuildingBlock: ZUJKAS_clean_linker_0, # of connection points: 2
#     Edge 23, Type (0, 0), BuildingBlock: ZUJKAS_clean_linker_0, # of connection points: 2
#     Edge 24, Type (0, 0), BuildingBlock: ZUJKAS_clean_linker_0, # of connection points: 2
#     Edge 25, Type (0, 0), BuildingBlock: ZUJKAS_clean_linker_0, # of connection points: 2
#     Edge 26, Type (0, 0), BuildingBlock: ZUJKAS_clean_linker_0, # of connection points: 2
#     Edge 27, Type (0, 0), BuildingBlock: ZUJKAS_clean_linker_0, # of connection points: 2
#     Edge 28, Type (0, 0), BuildingBlock: ZUJKAS_clean_linker_0, # of connection points: 2
#     Edge 29, Type (0, 0), BuildingBlock: ZUJKAS_clean_linker_0, # of connection points: 2
#     Edge 30, Type (0, 0), BuildingBlock: ZUJKAS_clean_linker_0, # of connection points: 2
#     Edge 31, Type (0, 0), BuildingBlock: ZUJKAS_clean_linker_0, # of connection points: 2
#     Edge 32, Type (0, 0), BuildingBlock: ZUJKAS_clean_linker_0, # of connection points: 2
#     Edge 33, Type (0, 0), BuildingBlock: ZUJKAS_clean_linker_0, # of connection points: 2
#     Edge 34, Type (0, 0), BuildingBlock: ZUJKAS_clean_linker_0, # of connection points: 2
#     Edge 35, Type (0, 0), BuildingBlock: ZUJKAS_clean_linker_0, # of connection points: 2
#     Edge 36, Type (0, 0), BuildingBlock: ZUJKAS_clean_linker_0, # of connection points: 2
#     Edge 37, Type (0, 0), BuildingBlock: ZUJKAS_clean_linker_0, # of connection points: 2
#     Edge 38, Type (0, 0), BuildingBlock: ZUJKAS_clean_linker_0, # of connection points: 2
#     Edge 39, Type (0, 0), BuildingBlock: ZUJKAS_clean_linker_0, # of connection points: 2
#     Edge 40, Type (0, 0), BuildingBlock: ZUJKAS_clean_linker_0, # of connection points: 2
#     Edge 41, Type (0, 0), BuildingBlock: ZUJKAS_clean_linker_0, # of connection points: 2
#     Edge 42, Type (0, 0), BuildingBlock: ZUJKAS_clean_linker_0, # of connection points: 2
#     Edge 43, Type (0, 0), BuildingBlock: ZUJKAS_clean_linker_0, # of connection points: 2
#     Edge 44, Type (0, 0), BuildingBlock: ZUJKAS_clean_linker_0, # of connection points: 2
#     Edge 45, Type (0, 0), BuildingBlock: ZUJKAS_clean_linker_0, # of connection points: 2
#     Edge 46, Type (0, 0), BuildingBlock: ZUJKAS_clean_linker_0, # of connection points: 2
#     Edge 47, Type (0, 0), BuildingBlock: ZUJKAS_clean_linker_0, # of connection points: 2
# Relax obj value: 0.451
# Max RMSD: 0.335
# Mean RMSD: 0.290
data_MOF--net-lcy-e--node1-JUFBIX_clean_sbu_0--edge1-ZUJKAS_clean_linker_0
_symmetry_space_group_name_H-M    P1
_symmetry_Int_Tables_number       1
_symmetry_cell_setting            triclinic
loop_
_symmetry_equiv_pos_as_xyz
'x, y, z'
_cell_length_a     47.068193
_cell_length_b     49.710449
_cell_length_c     46.960913
_cell_angle_alpha  88.240422
_cell_angle_beta   89.94411
_cell_angle_gamma 84.435108
loop_
_atom_site_label
_atom_site_type_symbol
_atom_site_fract_x
_atom_site_fract_y
_atom_site_fract_z
_atom_type_partial_charge
Co0 Co 0.15718 0.21855 0.45201 0.0
C1 C 0.10048 0.22139 0.46984 0.0
Co2 Co 0.13229 0.18884 0.43175 0.0
C3 C 0.18857 0.26471 0.45635 0.0
C4 C 0.17933 0.24815 0.49752 0.0
N5 N 0.17692 0.24392 0.46943 0.0
N6 N 0.19738 0.28222 0.475 0.0
C7 C 0.19194 0.27171 0.501 0.0
H8 H 0.18933 0.26773 0.43347 0.0
H9 H 0.17081 0.23591 0.51431 0.0
C10 C 0.19037 0.18665 0.41594 0.0
N11 N 0.11231 0.16388 0.41285 0.0
C12 C 0.08587 0.15608 0.41759 0.0
C13 C 0.1205 0.15252 0.388 0.0
N14 N 0.0774 0.14067 0.39652 0.0
C15 C 0.0993 0.13826 0.37808 0.0
C16 C 0.13255 0.23672 0.40025 0.0
O17 O 0.19086 0.20532 0.43363 0.0
O18 O 0.16691 0.17667 0.41157 0.0
O19 O 0.12213 0.21416 0.4018 0.0
O20 O 0.1483 0.24308 0.42043 0.0
O21 O 0.09856 0.20161 0.45345 0.0
H22 H 0.14007 0.15533 0.37676 0.0
H23 H 0.07247 0.1627 0.43526 0.0
O24 O 0.12379 0.23215 0.47084 0.0
O25 O 0.16561 0.19325 0.48299 0.0
O26 O 0.14247 0.16348 0.46113 0.0
C27 C 0.15705 0.16975 0.48225 0.0
H28 H 0.19475 0.28142 0.52099 0.0
H29 H 0.09973 0.12748 0.35838 0.0
Co30 Co 0.03001 0.86705 0.70076 0.0
C31 C 0.99135 0.9038 0.72594 0.0
Co32 Co 0.04229 0.90859 0.69604 0.0
C33 C 0.03671 0.81066 0.71562 0.0
C34 C 0.99652 0.82158 0.69519 0.0
N35 N 0.02074 0.83171 0.70311 0.0
N36 N 0.02329 0.78788 0.71668 0.0
C37 C 0.99797 0.79466 0.70359 0.0
H38 H 0.05711 0.81252 0.72553 0.0
H39 H 0.97846 0.83327 0.68516 0.0
C40 C 0.07966 0.87161 0.66978 0.0
N41 N 0.05214 0.94362 0.69473 0.0
C42 C 0.0644 0.95738 0.67362 0.0
C43 C 0.0509 0.96012 0.71703 0.0
N44 N 0.07114 0.98181 0.68196 0.0
C45 C 0.06253 0.9835 0.7093 0.0
C46 C 0.0662 0.87963 0.74382 0.0
O47 O 0.06301 0.85548 0.68051 0.0
O48 O 0.07478 0.89685 0.6735 0.0
O49 O 0.06497 0.90202 0.72994 0.0
O50 O 0.05116 0.86152 0.73551 0.0
O51 O 0.00931 0.91997 0.71791 0.0
H52 H 0.043 0.95504 0.73796 0.0
H53 H 0.06867 0.94929 0.65277 0.0
O54 O 0.99641 0.87882 0.72098 0.0
O55 O 0.0096 0.87283 0.6658 0.0
O56 O 0.02013 0.91484 0.66199 0.0
C57 C 0.00782 0.8954 0.65209 0.0
H58 H 0.98108 0.78156 0.70144 0.0
H59 H 0.06535 0.99994 0.72326 0.0
Co60 Co 0.3393 0.78223 0.97171 0.0
C61 C 0.39607 0.77478 0.98838 0.0
Co62 Co 0.36816 0.80353 0.94341 0.0
C63 C 0.30354 0.74007 0.98849 0.0
C64 C 0.31321 0.76389 0.02368 0.0
N65 N 0.31617 0.7624 0.99519 0.0
N66 N 0.29352 0.72717 0.01163 0.0
C67 C 0.29931 0.74241 0.03379 0.0
H68 H 0.30284 0.73267 0.96713 0.0
H69 H 0.32236 0.77851 0.03659 0.0
C70 C 0.31035 0.81108 0.9276 0.0
N71 N 0.39199 0.82245 0.92018 0.0
C72 C 0.41385 0.83644 0.92799 0.0
C73 C 0.39123 0.82487 0.89152 0.0
N74 N 0.42674 0.84755 0.90535 0.0
C75 C 0.41246 0.84027 0.88237 0.0
C76 C 0.3612 0.75257 0.92556 0.0
O77 O 0.30708 0.79704 0.95028 0.0
O78 O 0.33543 0.81608 0.92013 0.0
O79 O 0.3749 0.77295 0.92045 0.0
O80 O 0.34438 0.75277 0.9467 0.0
O81 O 0.40008 0.79078 0.96739 0.0
H82 H 0.37632 0.81583 0.87812 0.0
H83 H 0.41997 0.83863 0.94995 0.0
O84 O 0.37126 0.76771 0.99296 0.0
O85 O 0.33524 0.81239 0.99643 0.0
O86 O 0.36146 0.83383 0.96626 0.0
C87 C 0.34739 0.83341 0.98931 0.0
H88 H 0.29572 0.73738 0.056 0.0
H89 H 0.41729 0.84527 0.86042 0.0
Co90 Co 0.48739 0.13341 0.21872 0.0
C91 C 0.50641 0.0785 0.22486 0.0
Co92 Co 0.461 0.10638 0.19626 0.0
C93 C 0.50113 0.17378 0.25706 0.0
C94 C 0.53888 0.15445 0.23826 0.0
N95 N 0.5102 0.15502 0.23808 0.0
N96 N 0.52293 0.18473 0.2695 0.0
C97 C 0.54678 0.17272 0.25756 0.0
H98 H 0.47885 0.17897 0.26199 0.0
H99 H 0.55312 0.14098 0.2259 0.0
C100 C 0.44372 0.16211 0.18972 0.0
N101 N 0.43646 0.08549 0.1778 0.0
C102 C 0.44098 0.06237 0.16329 0.0
C103 C 0.40788 0.09157 0.17729 0.0
N104 N 0.41626 0.05417 0.15355 0.0
C105 C 0.3955 0.07254 0.16241 0.0
C106 C 0.44192 0.11784 0.25103 0.0
O107 O 0.46532 0.16439 0.20515 0.0
O108 O 0.43764 0.13861 0.18351 0.0
O109 O 0.43814 0.10414 0.22928 0.0
O110 O 0.46296 0.13201 0.25139 0.0
O111 O 0.48536 0.07482 0.2088 0.0
H112 H 0.39661 0.10864 0.18752 0.0
H113 H 0.46189 0.05188 0.15983 0.0
O114 O 0.51001 0.10227 0.23234 0.0
O115 O 0.51109 0.13477 0.18536 0.0
O116 O 0.48358 0.10864 0.1634 0.0
C117 C 0.5051 0.12224 0.16317 0.0
H118 H 0.56844 0.17596 0.26325 0.0
H119 H 0.37284 0.07189 0.15897 0.0
Co120 Co 0.64255 0.33702 0.5313 0.0
C121 C 0.59129 0.32392 0.50859 0.0
Co122 Co 0.60437 0.35127 0.55626 0.0
C123 C 0.69063 0.30067 0.51351 0.0
C124 C 0.68127 0.33317 0.48314 0.0
N125 N 0.67374 0.32402 0.50919 0.0
N126 N 0.70771 0.29453 0.4911 0.0
C127 C 0.70201 0.31507 0.47196 0.0
H128 H 0.68893 0.28711 0.53171 0.0
H129 H 0.6711 0.35087 0.472 0.0
C130 C 0.65677 0.36362 0.5783 0.0
N131 N 0.5734 0.36359 0.57819 0.0
C132 C 0.54798 0.37621 0.56974 0.0
C133 C 0.57187 0.36183 0.60685 0.0
N134 N 0.5307 0.38252 0.59204 0.0
C135 C 0.54571 0.37348 0.61542 0.0
C136 C 0.62745 0.30013 0.57325 0.0
O137 O 0.66683 0.35187 0.55637 0.0
O138 O 0.62996 0.36548 0.5828 0.0
O139 O 0.60712 0.31822 0.57743 0.0
O140 O 0.64552 0.30418 0.5539 0.0
O141 O 0.57962 0.3367 0.52933 0.0
H142 H 0.58874 0.35267 0.62064 0.0
H143 H 0.54251 0.38112 0.54768 0.0
O144 O 0.61823 0.32199 0.50605 0.0
O145 O 0.63881 0.37031 0.50971 0.0
O146 O 0.60155 0.38445 0.5352 0.0
C147 C 0.61911 0.3887 0.5154 0.0
H148 H 0.71095 0.31617 0.45076 0.0
H149 H 0.53825 0.37496 0.63718 0.0
Co150 Co 0.96424 0.38591 0.74414 0.0
C151 C 0.97628 0.33588 0.71904 0.0
Co152 Co 0.95234 0.35152 0.77112 0.0
C153 C 0.99232 0.43301 0.72952 0.0
C154 C 0.97126 0.41891 0.69331 0.0
N155 N 0.97539 0.41417 0.72147 0.0
N156 N 0.99947 0.44908 0.70748 0.0
C157 C 0.98602 0.44034 0.68465 0.0
H158 H 0.99984 0.43439 0.75113 0.0
H159 H 0.95933 0.40683 0.67976 0.0
C160 C 0.94053 0.40277 0.79482 0.0
N161 N 0.94186 0.32326 0.79499 0.0
C162 C 0.92488 0.30326 0.79051 0.0
C163 C 0.95025 0.31945 0.82239 0.0
N164 N 0.92267 0.28706 0.81404 0.0
C165 C 0.93866 0.29735 0.83404 0.0
C166 C 0.00696 0.36462 0.78165 0.0
O167 O 0.94963 0.4107 0.77091 0.0
O168 O 0.9403 0.37747 0.80019 0.0
O169 O 0.9894 0.34739 0.78724 0.0
O170 O 0.00035 0.38314 0.76297 0.0
O171 O 0.9647 0.3264 0.74136 0.0
H172 H 0.96371 0.33222 0.83341 0.0
H173 H 0.91443 0.30061 0.77041 0.0
O174 O 0.97876 0.36108 0.71702 0.0
O175 O 0.92784 0.38854 0.7261 0.0
O176 O 0.91532 0.35619 0.7551 0.0
C177 C 0.909 0.37367 0.73519 0.0
H178 H 0.98786 0.4479 0.66294 0.0
H179 H 0.94124 0.28988 0.85586 0.0
Co180 Co 0.91071 0.67145 0.01148 0.0
C181 C 0.85985 0.69852 0.99207 0.0
Co182 Co 0.87246 0.65373 0.02762 0.0
C183 C 0.96225 0.67535 0.97932 0.0
C184 C 0.95045 0.71168 0.00145 0.0
N185 N 0.94274 0.68658 0.99761 0.0
N186 N 0.9814 0.69249 0.97113 0.0
C187 C 0.97424 0.71535 0.9852 0.0
H188 H 0.96188 0.65531 0.97108 0.0
H189 H 0.93873 0.72687 0.01402 0.0
C190 C 0.92369 0.62791 0.04784 0.0
N191 N 0.84125 0.63769 0.04135 0.0
C192 C 0.82038 0.6479 0.05873 0.0
C193 C 0.83649 0.61157 0.03849 0.0
N194 N 0.80305 0.62908 0.06712 0.0
C195 C 0.81301 0.60625 0.05423 0.0
C196 C 0.89386 0.6303 0.97801 0.0
O197 O 0.93427 0.64623 0.03305 0.0
O198 O 0.8968 0.62714 0.0483 0.0
O199 O 0.87351 0.63088 0.99573 0.0
O200 O 0.91256 0.64683 0.9806 0.0
O201 O 0.84842 0.68086 0.00729 0.0
H202 H 0.84993 0.59694 0.02671 0.0
H203 H 0.81886 0.66831 0.06634 0.0
O204 O 0.88688 0.69705 0.98995 0.0
O205 O 0.90841 0.69556 0.04277 0.0
O206 O 0.87149 0.67662 0.05946 0.0
C207 C 0.8891 0.69426 0.06161 0.0
H208 H 0.98412 0.73402 0.98227 0.0
H209 H 0.80445 0.58687 0.05659 0.0
Co210 Co 0.52051 0.63106 0.28075 0.0
C211 C 0.51002 0.6791 0.2497 0.0
Co212 Co 0.53531 0.66574 0.30242 0.0
C213 C 0.49348 0.583 0.27457 0.0
C214 C 0.51373 0.59384 0.23564 0.0
N215 N 0.50908 0.60164 0.26262 0.0
N216 N 0.48786 0.56392 0.2562 0.0
C217 C 0.50056 0.57067 0.23157 0.0
H218 H 0.48544 0.58409 0.29614 0.0
H219 H 0.52549 0.60456 0.21988 0.0
C220 C 0.54606 0.61675 0.33251 0.0
N221 N 0.5466 0.69459 0.32186 0.0
C222 C 0.56541 0.71226 0.31414 0.0
C223 C 0.53875 0.70109 0.34862 0.0
N224 N 0.56961 0.72947 0.33509 0.0
C225 C 0.55275 0.72255 0.35675 0.0
C226 C 0.47991 0.65544 0.31611 0.0
O227 O 0.53429 0.60806 0.31087 0.0
O228 O 0.54896 0.64186 0.33366 0.0
O229 O 0.49919 0.67106 0.31985 0.0
O230 O 0.48453 0.63618 0.29911 0.0
O231 O 0.52194 0.68921 0.27072 0.0
H232 H 0.52451 0.69029 0.36182 0.0
H233 H 0.57622 0.71214 0.29379 0.0
O234 O 0.50674 0.65403 0.25045 0.0
O235 O 0.55649 0.62613 0.2626 0.0
O236 O 0.57127 0.6603 0.2849 0.0
C237 C 0.57591 0.64148 0.26736 0.0
H238 H 0.49995 0.55997 0.21189 0.0
H239 H 0.55166 0.73148 0.3775 0.0
Co240 Co 0.21302 0.43487 0.141 0.0
C241 C 0.22655 0.46257 0.09127 0.0
Co242 Co 0.20164 0.41479 0.10194 0.0
C243 C 0.24072 0.4425 0.19396 0.0
C244 C 0.21347 0.47768 0.18103 0.0
N245 N 0.22213 0.45224 0.17348 0.0
N246 N 0.24459 0.46096 0.21365 0.0
C247 C 0.22727 0.4831 0.20573 0.0
H248 H 0.2522 0.42257 0.19383 0.0
H249 H 0.19916 0.49183 0.16864 0.0
C250 C 0.18731 0.38878 0.15296 0.0
N251 N 0.19269 0.39648 0.06989 0.0
C252 C 0.17847 0.4053 0.04587 0.0
C253 C 0.19904 0.36971 0.06666 0.0
N254 N 0.17556 0.38494 0.02795 0.0
C255 C 0.1886 0.36258 0.04101 0.0
C256 C 0.25593 0.3976 0.12237 0.0
O257 O 0.19827 0.40841 0.16367 0.0
O258 O 0.18705 0.38673 0.12599 0.0
O259 O 0.23825 0.39534 0.10245 0.0
O260 O 0.24945 0.41446 0.14163 0.0
O261 O 0.2159 0.44344 0.07872 0.0
H262 H 0.21033 0.35612 0.08218 0.0
H263 H 0.16978 0.42606 0.04199 0.0
O264 O 0.22772 0.462 0.11829 0.0
O265 O 0.17649 0.45443 0.1402 0.0
O266 O 0.16509 0.43404 0.10161 0.0
C267 C 0.15836 0.45061 0.1211 0.0
H268 H 0.22632 0.50248 0.2158 0.0
H269 H 0.19049 0.34245 0.03262 0.0
Co270 Co 0.71415 0.03232 0.89635 0.0
C271 C 0.72842 0.01629 0.84156 0.0
Co272 Co 0.68799 0.05439 0.86281 0.0
C273 C 0.73875 0.98453 0.92443 0.0
C274 C 0.75201 0.01896 0.94508 0.0
N275 N 0.736 0.01177 0.9233 0.0
N276 N 0.75561 0.97423 0.94602 0.0
C277 C 0.76427 0.99582 0.95907 0.0
H278 H 0.72892 0.97238 0.9092 0.0
H279 H 0.75459 0.0396 0.95042 0.0
C280 C 0.67458 0.06968 0.91876 0.0
N281 N 0.66574 0.07394 0.83553 0.0
C282 C 0.67435 0.08662 0.81168 0.0
C283 C 0.63706 0.0788 0.83548 0.0
N284 N 0.65218 0.09923 0.79671 0.0
C285 C 0.62867 0.0943 0.81166 0.0
C286 C 0.66399 0.00894 0.88299 0.0
O287 O 0.69559 0.05255 0.92492 0.0
O288 O 0.66726 0.0738 0.89272 0.0
O289 O 0.66142 0.028 0.86431 0.0
O290 O 0.68548 0.00713 0.89956 0.0
O291 O 0.70934 0.03486 0.83345 0.0
H292 H 0.62319 0.07176 0.8519 0.0
H293 H 0.69651 0.0865 0.80545 0.0
O294 O 0.7328 0.01188 0.86794 0.0
O295 O 0.74249 0.05818 0.8927 0.0
O296 O 0.71431 0.08063 0.86122 0.0
C297 C 0.7374 0.07841 0.87541 0.0
H298 H 0.77815 0.99496 0.9775 0.0
H299 H 0.60697 0.10194 0.80622 0.0
Co300 Co 0.79538 0.96711 0.36732 0.0
C301 C 0.77559 0.97083 0.31176 0.0
Co302 Co 0.82291 0.94228 0.33797 0.0
C303 C 0.77886 0.00912 0.40666 0.0
C304 C 0.74367 0.98732 0.39554 0.0
N305 N 0.77198 0.98798 0.39159 0.0
N306 N 0.75594 0.02204 0.41937 0.0
C307 C 0.73376 0.00822 0.41257 0.0
H308 H 0.80001 0.01591 0.40691 0.0
H309 H 0.73079 0.97334 0.38562 0.0
C310 C 0.84144 0.93904 0.39473 0.0
N311 N 0.84638 0.92133 0.3135 0.0
C312 C 0.83926 0.90353 0.29411 0.0
C313 C 0.87506 0.92035 0.3122 0.0
N314 N 0.86243 0.89137 0.28086 0.0
C315 C 0.88494 0.90206 0.29225 0.0
C316 C 0.83941 0.99388 0.34448 0.0
O317 O 0.81886 0.95474 0.3981 0.0
O318 O 0.84773 0.93068 0.36987 0.0
O319 O 0.84485 0.97219 0.33101 0.0
O320 O 0.81804 0.99604 0.361 0.0
O321 O 0.79716 0.95404 0.3068 0.0
H322 H 0.888 0.93209 0.32511 0.0
H323 H 0.81753 0.89919 0.29027 0.0
O324 O 0.77178 0.97964 0.33665 0.0
O325 O 0.77308 0.93767 0.37333 0.0
O326 O 0.80127 0.91286 0.34521 0.0
C327 C 0.77947 0.91542 0.36118 0.0
H328 H 0.71175 0.01335 0.41861 0.0
H329 H 0.90707 0.89722 0.28647 0.0
Co330 Co 0.24126 0.60218 0.56761 0.0
C331 C 0.21688 0.60069 0.62134 0.0
Co332 Co 0.26765 0.61751 0.60109 0.0
C333 C 0.22976 0.56583 0.52474 0.0
C334 C 0.1919 0.59112 0.53464 0.0
N335 N 0.22003 0.58686 0.5406 0.0
N336 N 0.20884 0.5561 0.50979 0.0
C337 C 0.18493 0.57214 0.51564 0.0
H338 H 0.25168 0.55694 0.52523 0.0
H339 H 0.17718 0.60597 0.54472 0.0
C340 C 0.29098 0.61847 0.54639 0.0
N341 N 0.28929 0.63332 0.62756 0.0
C342 C 0.29297 0.62777 0.65572 0.0
C343 C 0.30362 0.65514 0.62215 0.0
N344 N 0.30881 0.64549 0.66804 0.0
C345 C 0.31563 0.66262 0.6469 0.0
C346 C 0.28137 0.56375 0.59495 0.0
O347 O 0.26833 0.60828 0.54 0.0
O348 O 0.2952 0.62442 0.57208 0.0
O349 O 0.28766 0.58367 0.60912 0.0
O350 O 0.26139 0.56732 0.57658 0.0
O351 O 0.23962 0.61012 0.62959 0.0
H352 H 0.3046 0.66548 0.60162 0.0
H353 H 0.28325 0.6118 0.66715 0.0
O354 O 0.21375 0.59601 0.59519 0.0
O355 O 0.22203 0.63708 0.55891 0.0
O356 O 0.24789 0.65154 0.59295 0.0
C357 C 0.2292 0.65643 0.57356 0.0
H358 H 0.16366 0.56912 0.50844 0.0
H359 H 0.32804 0.67965 0.64925 0.0
H360 H 0.17814 0.31468 0.43034 0.0
H361 H 0.18431 0.36259 0.4232 0.0
H362 H 0.2374 0.35956 0.49821 0.0
H363 H 0.23147 0.31136 0.50545 0.0
H364 H 0.16629 0.39903 0.46892 0.0
H365 H 0.27893 0.40511 0.4363 0.0
H366 H 0.2601 0.37569 0.4306 0.0
H367 H 0.27371 0.38163 0.46532 0.0
C368 C 0.19188 0.32393 0.44484 0.0
C369 C 0.20437 0.30926 0.46852 0.0
C370 C 0.19526 0.35134 0.44075 0.0
C371 C 0.2115 0.36442 0.46 0.0
C372 C 0.22513 0.34961 0.48288 0.0
H373 H 0.24322 0.51148 0.52523 0.0
H374 H 0.24355 0.46676 0.50592 0.0
C375 C 0.22155 0.32222 0.48714 0.0
C376 C 0.211 0.39412 0.45865 0.0
H377 H 0.25416 0.44526 0.45437 0.0
C378 C 0.18531 0.40934 0.46518 0.0
C379 C 0.23589 0.40721 0.45374 0.0
C380 C 0.26373 0.39165 0.44585 0.0
C381 C 0.18426 0.43725 0.46902 0.0
C382 C 0.20951 0.4503 0.46534 0.0
C383 C 0.23483 0.43523 0.45709 0.0
C384 C 0.21109 0.47845 0.47409 0.0
C385 C 0.15668 0.45205 0.47901 0.0
C386 C 0.19315 0.50013 0.46217 0.0
C387 C 0.19273 0.52591 0.47346 0.0
C388 C 0.21067 0.53039 0.49637 0.0
C389 C 0.22949 0.50886 0.50727 0.0
C390 C 0.22965 0.4832 0.49628 0.0
H391 H 0.14093 0.43796 0.48601 0.0
H392 H 0.16062 0.4652 0.49699 0.0
H393 H 0.14698 0.46505 0.46126 0.0
H394 H 0.17906 0.49699 0.44463 0.0
H395 H 0.17826 0.54226 0.46454 0.0
H396 H 0.74907 0.03445 0.79047 0.0
H397 H 0.79153 0.014 0.76565 0.0
H398 H 0.79534 0.94514 0.82413 0.0
H399 H 0.7534 0.96538 0.8489 0.0
H400 H 0.84484 0.97522 0.82275 0.0
H401 H 0.81164 0.94578 0.71519 0.0
H402 H 0.79825 0.97876 0.72699 0.0
H403 H 0.787 0.94916 0.74471 0.0
C404 C 0.75833 0.01449 0.79723 0.0
C405 C 0.74804 0.00151 0.82161 0.0
C406 C 0.78263 0.00287 0.78316 0.0
C407 C 0.7966 0.9781 0.79317 0.0
C408 C 0.78492 0.96427 0.81611 0.0
H409 H 0.94472 0.87636 0.73739 0.0
H410 H 0.89757 0.8951 0.75345 0.0
C411 C 0.7609 0.97583 0.83017 0.0
C412 C 0.82527 0.96811 0.78259 0.0
H413 H 0.86102 0.93999 0.72581 0.0
C414 C 0.84841 0.9676 0.80151 0.0
C415 C 0.82975 0.95808 0.75498 0.0
C416 C 0.80541 0.95773 0.73421 0.0
C417 C 0.87595 0.95718 0.79362 0.0
C418 C 0.88053 0.94722 0.76597 0.0
C419 C 0.85741 0.94773 0.74698 0.0
C420 C 0.9092 0.93593 0.75661 0.0
C421 C 0.89987 0.95637 0.81511 0.0
C422 C 0.93138 0.95268 0.75328 0.0
C423 C 0.95835 0.94206 0.74419 0.0
C424 C 0.96365 0.91446 0.73825 0.0
C425 C 0.94144 0.89766 0.742 0.0
C426 C 0.91443 0.90835 0.75096 0.0
H427 H 0.89175 0.95965 0.83708 0.0
H428 H 0.91318 0.93667 0.81483 0.0
H429 H 0.91378 0.97253 0.80954 0.0
H430 H 0.9277 0.97407 0.75734 0.0
H431 H 0.9749 0.9556 0.74136 0.0
H432 H 0.26113 0.70631 0.05319 0.0
H433 H 0.24919 0.65965 0.0586 0.0
H434 H 0.29063 0.64056 0.97885 0.0
H435 H 0.30357 0.6868 0.97373 0.0
H436 H 0.21855 0.62699 0.02489 0.0
H437 H 0.33238 0.58592 0.03488 0.0
H438 H 0.32111 0.62155 0.03676 0.0
H439 H 0.32341 0.60562 0.00289 0.0
C440 C 0.26777 0.69223 0.03679 0.0
C441 C 0.28364 0.70045 0.01319 0.0
C442 C 0.26073 0.66557 0.03982 0.0
C443 C 0.26943 0.64645 0.01938 0.0
C444 C 0.28412 0.65481 0.99516 0.0
H445 H 0.21287 0.48115 0.03646 0.0
H446 H 0.22361 0.52449 0.01412 0.0
C447 C 0.29123 0.68147 0.99212 0.0
C448 C 0.26414 0.6176 0.02421 0.0
H449 H 0.2981 0.55455 0.0377 0.0
C450 C 0.23591 0.61107 0.02738 0.0
C451 C 0.28684 0.59688 0.02766 0.0
C452 C 0.31766 0.60274 0.02562 0.0
C453 C 0.2298 0.58454 0.03457 0.0
C454 C 0.25253 0.5639 0.03836 0.0
C455 C 0.2807 0.57031 0.03446 0.0
C456 C 0.2478 0.5365 0.05 0.0
C457 C 0.19917 0.57905 0.03941 0.0
C458 C 0.25872 0.52842 0.07701 0.0
C459 C 0.25276 0.50384 0.08965 0.0
C460 C 0.23585 0.48655 0.07553 0.0
C461 C 0.226 0.49399 0.04785 0.0
C462 C 0.23189 0.51884 0.03519 0.0
H463 H 0.18458 0.59798 0.04 0.0
H464 H 0.19216 0.56674 0.02189 0.0
H465 H 0.19708 0.5674 0.05974 0.0
H466 H 0.27113 0.5416 0.0888 0.0
H467 H 0.26084 0.49873 0.11092 0.0
H468 H 0.52749 0.037 0.19145 0.0
H469 H 0.57304 0.00878 0.19848 0.0
H470 H 0.58306 0.04379 0.28028 0.0
H471 H 0.53815 0.07224 0.27315 0.0
H472 H 0.62624 0.03573 0.2087 0.0
H473 H 0.60517 0.95986 0.29328 0.0
H474 H 0.57744 0.97599 0.27016 0.0
H475 H 0.59002 0.99375 0.29965 0.0
C476 C 0.53894 0.03791 0.21134 0.0
C477 C 0.5292 0.05665 0.23186 0.0
C478 C 0.56505 0.02197 0.21523 0.0
C479 C 0.58136 0.02409 0.23997 0.0
C480 C 0.57068 0.04156 0.2612 0.0
H481 H 0.7469 0.01997 0.30169 0.0
H482 H 0.70104 0.0296 0.27724 0.0
C483 C 0.54499 0.05779 0.25712 0.0
C484 C 0.61095 0.01079 0.24258 0.0
H485 H 0.65395 0.9687 0.28661 0.0
C486 C 0.63227 0.02059 0.22528 0.0
C487 C 0.61879 0.99104 0.26418 0.0
C488 C 0.59666 0.97931 0.28278 0.0
C489 C 0.66134 0.01245 0.23026 0.0
C490 C 0.66927 0.99401 0.25305 0.0
C491 C 0.64787 0.98286 0.26913 0.0
C492 C 0.69933 0.98883 0.26296 0.0
C493 C 0.68349 0.0244 0.21187 0.0
C494 C 0.71404 0.96285 0.26237 0.0
C495 C 0.74071 0.95745 0.27585 0.0
C496 C 0.75262 0.97783 0.29064 0.0
C497 C 0.73841 0.00403 0.29005 0.0
C498 C 0.71216 0.00952 0.27617 0.0
H499 H 0.67432 0.03263 0.19124 0.0
H500 H 0.69198 0.04119 0.22319 0.0
H501 H 0.70161 0.00903 0.20762 0.0
H502 H 0.70437 0.94655 0.25253 0.0
H503 H 0.75089 0.93694 0.27659 0.0
H504 H 0.71361 0.26908 0.44097 0.0
H505 H 0.73039 0.22166 0.43464 0.0
H506 H 0.7519 0.21279 0.52391 0.0
H507 H 0.73484 0.26037 0.53044 0.0
H508 H 0.78069 0.18865 0.4449 0.0
H509 H 0.69235 0.15916 0.51453 0.0
H510 H 0.69441 0.19348 0.50174 0.0
H511 H 0.71684 0.17974 0.53063 0.0
C512 C 0.7226 0.25729 0.45911 0.0
C513 C 0.72259 0.26838 0.48629 0.0
C514 C 0.73207 0.23013 0.4555 0.0
C515 C 0.74178 0.21359 0.47894 0.0
C516 C 0.74385 0.22507 0.50568 0.0
H517 H 0.79866 0.04259 0.44791 0.0
H518 H 0.79811 0.08826 0.46621 0.0
C519 C 0.73419 0.25222 0.50936 0.0
C520 C 0.74736 0.18404 0.47554 0.0
H521 H 0.72105 0.12412 0.49327 0.0
C522 C 0.76795 0.17444 0.45572 0.0
C523 C 0.73041 0.16566 0.48951 0.0
C524 C 0.70709 0.17494 0.51013 0.0
C525 C 0.77147 0.14704 0.44882 0.0
C526 C 0.75424 0.12876 0.46251 0.0
C527 C 0.73432 0.13821 0.483 0.0
C528 C 0.7544 0.1004 0.45372 0.0
C529 C 0.79254 0.13815 0.4259 0.0
C530 C 0.7297 0.0918 0.44168 0.0
C531 C 0.7299 0.06578 0.43134 0.0
C532 C 0.75485 0.04779 0.43286 0.0
C533 C 0.77927 0.05612 0.44598 0.0
C534 C 0.77901 0.08219 0.45641 0.0
H535 H 0.80011 0.1556 0.41375 0.0
H536 H 0.81138 0.12637 0.43585 0.0
H537 H 0.78286 0.12494 0.41073 0.0
H538 H 0.71046 0.10556 0.43944 0.0
H539 H 0.71082 0.06022 0.42112 0.0
H540 H 0.00389 0.49052 0.66918 0.0
H541 H 0.04141 0.5212 0.66685 0.0
H542 H 0.07864 0.48438 0.74415 0.0
H543 H 0.042 0.45292 0.7461 0.0
H544 H 0.05948 0.55885 0.70531 0.0
H545 H 0.1442 0.47491 0.68702 0.0
H546 H 0.10673 0.47046 0.68445 0.0
H547 H 0.12326 0.47188 0.71876 0.0
C548 C 0.02007 0.48883 0.68566 0.0
C549 C 0.01998 0.46893 0.7076 0.0
C550 C 0.04138 0.50657 0.68444 0.0
C551 C 0.06306 0.50479 0.7051 0.0
C552 C 0.06237 0.48581 0.72774 0.0
H553 H 0.22216 0.58185 0.67694 0.0
H554 H 0.18488 0.56219 0.70547 0.0
C555 C 0.04114 0.46799 0.72893 0.0
C556 C 0.08706 0.5219 0.70188 0.0
H557 H 0.15789 0.51894 0.68518 0.0
C558 C 0.0811 0.55014 0.70131 0.0
C559 C 0.11532 0.51051 0.69694 0.0
C560 C 0.12289 0.4803 0.69659 0.0
C561 C 0.10238 0.56726 0.69471 0.0
C562 C 0.1302 0.55581 0.6881 0.0
C563 C 0.13658 0.52767 0.6904 0.0
C564 C 0.15147 0.57195 0.67412 0.0
C565 C 0.09469 0.59743 0.69404 0.0
C566 C 0.14491 0.58427 0.64737 0.0
C567 C 0.16603 0.59513 0.63113 0.0
C568 C 0.19419 0.59401 0.64128 0.0
C569 C 0.20053 0.58318 0.66878 0.0
C570 C 0.17932 0.5719 0.68499 0.0
H571 H 0.07694 0.6031 0.70897 0.0
H572 H 0.11329 0.60838 0.69963 0.0
H573 H 0.08744 0.60417 0.67227 0.0
H574 H 0.12382 0.58403 0.63824 0.0
H575 H 0.16056 0.60337 0.60999 0.0
H576 H 0.80495 0.95068 0.96937 0.0
H577 H 0.81855 0.902 0.97644 0.0
H578 H 0.73624 0.88518 0.94504 0.0
H579 H 0.72259 0.93357 0.938 0.0
H580 H 0.79326 0.86153 0.00839 0.0
H581 H 0.79259 0.84238 0.89249 0.0
H582 H 0.79207 0.87593 0.90623 0.0
H583 H 0.75995 0.85913 0.90577 0.0
C584 C 0.78969 0.9366 0.96432 0.0
C585 C 0.76289 0.94593 0.95271 0.0
C586 C 0.79748 0.90883 0.96825 0.0
C587 C 0.77861 0.89001 0.96066 0.0
C588 C 0.75139 0.89934 0.95033 0.0
H589 H 0.80519 0.71722 0.00643 0.0
H590 H 0.78213 0.76301 0.99718 0.0
C591 C 0.74364 0.927 0.9463 0.0
C592 C 0.78751 0.86062 0.963 0.0
H593 H 0.79977 0.80399 0.92366 0.0
C594 C 0.79461 0.8489 0.98992 0.0
C595 C 0.78949 0.8443 0.93876 0.0
C596 C 0.78338 0.85604 0.90912 0.0
C597 C 0.80365 0.82123 0.99328 0.0
C598 C 0.80517 0.80483 0.96909 0.0
C599 C 0.7981 0.81656 0.94218 0.0
C600 C 0.81648 0.77599 0.97108 0.0
C601 C 0.81237 0.80992 0.02253 0.0
C602 C 0.84254 0.76773 0.95805 0.0
C603 C 0.85564 0.74162 0.96309 0.0
C604 C 0.84282 0.72324 0.98117 0.0
C605 C 0.8156 0.73088 0.99237 0.0
C606 C 0.80254 0.75711 0.98737 0.0
H607 H 0.81526 0.82614 0.03773 0.0
H608 H 0.79556 0.79774 0.03108 0.0
H609 H 0.83259 0.79649 0.02147 0.0
H610 H 0.85352 0.78194 0.9452 0.0
H611 H 0.87654 0.73633 0.95404 0.0
H612 H 0.45569 0.54219 0.21676 0.0
H613 H 0.41612 0.51503 0.22631 0.0
H614 H 0.43502 0.5133 0.31615 0.0
H615 H 0.47536 0.53992 0.30678 0.0
H616 H 0.41421 0.46091 0.28541 0.0
H617 H 0.34807 0.55954 0.27556 0.0
H618 H 0.37513 0.55396 0.24872 0.0
H619 H 0.38541 0.55666 0.28526 0.0
C620 C 0.45215 0.53533 0.23844 0.0
C621 C 0.46835 0.54369 0.26105 0.0
C622 C 0.42946 0.51988 0.24386 0.0
C623 C 0.42266 0.51252 0.27192 0.0
C624 C 0.44003 0.51892 0.29438 0.0
H625 H 0.24496 0.4858 0.26408 0.0
H626 H 0.2875 0.4927 0.29198 0.0
C627 C 0.46283 0.53434 0.28897 0.0
C628 C 0.39519 0.50161 0.27756 0.0
H629 H 0.32427 0.52008 0.26913 0.0
C630 C 0.39439 0.47378 0.28256 0.0
C631 C 0.36952 0.51865 0.27485 0.0
C632 C 0.3694 0.54893 0.27106 0.0
C633 C 0.36834 0.4622 0.28218 0.0
C634 C 0.34288 0.47891 0.27583 0.0
C635 C 0.34367 0.50708 0.27379 0.0
C636 C 0.31666 0.46797 0.2656 0.0
C637 C 0.36855 0.43213 0.28755 0.0
C638 C 0.31866 0.45075 0.24239 0.0
C639 C 0.29444 0.4466 0.22675 0.0
C640 C 0.2678 0.46003 0.23364 0.0
C641 C 0.26535 0.47549 0.2582 0.0
C642 C 0.28959 0.47929 0.27419 0.0
H643 H 0.3845 0.42503 0.30423 0.0
H644 H 0.34729 0.42639 0.29433 0.0
H645 H 0.37498 0.4215 0.26777 0.0
H646 H 0.33923 0.44244 0.23464 0.0
H647 H 0.29714 0.43483 0.20776 0.0
H648 H 0.48081 0.19128 0.30902 0.0
H649 H 0.47953 0.22006 0.35026 0.0
H650 H 0.56023 0.24765 0.3252 0.0
H651 H 0.56126 0.21952 0.28337 0.0
H652 H 0.5186 0.21483 0.39325 0.0
H653 H 0.51418 0.3181 0.34529 0.0
H654 H 0.50561 0.28937 0.32543 0.0
H655 H 0.54222 0.29597 0.3302 0.0
C656 C 0.49795 0.20396 0.3118 0.0
C657 C 0.52117 0.20309 0.29278 0.0
C658 C 0.49722 0.22033 0.33551 0.0
C659 C 0.51953 0.23633 0.34058 0.0
C660 C 0.54244 0.23594 0.32137 0.0
H661 H 0.60997 0.28151 0.47685 0.0
H662 H 0.58499 0.26136 0.43887 0.0
C663 C 0.54321 0.21956 0.29767 0.0
C664 C 0.52053 0.2512 0.36739 0.0
H665 H 0.53342 0.3123 0.39327 0.0
C666 C 0.52113 0.23629 0.3933 0.0
C667 C 0.52337 0.27927 0.36755 0.0
C668 C 0.521 0.29666 0.34062 0.0
C669 C 0.52683 0.24826 0.41907 0.0
C670 C 0.53224 0.27572 0.41884 0.0
C671 C 0.52939 0.29118 0.39333 0.0
C672 C 0.54569 0.28721 0.44353 0.0
C673 C 0.52851 0.23112 0.44618 0.0
C674 C 0.53178 0.30851 0.45878 0.0
C675 C 0.54604 0.32005 0.48092 0.0
C676 C 0.57453 0.31076 0.48744 0.0
C677 C 0.58808 0.28921 0.47225 0.0
C678 C 0.5738 0.27755 0.45062 0.0
H679 H 0.51604 0.21336 0.44448 0.0
H680 H 0.55111 0.22352 0.45041 0.0
H681 H 0.52051 0.24311 0.46461 0.0
H682 H 0.51011 0.31632 0.45338 0.0
H683 H 0.5352 0.33673 0.49221 0.0
H684 H 0.0628 0.191 0.49818 0.0
H685 H 0.03355 0.20465 0.53985 0.0
H686 H 0.05969 0.28523 0.53091 0.0
H687 H 0.08872 0.27178 0.48977 0.0
H688 H 0.05591 0.22485 0.59087 0.0
H689 H 0.97335 0.29928 0.54303 0.0
H690 H 0.99407 0.2745 0.5222 0.0
H691 H 0.00869 0.30516 0.53168 0.0
C692 C 0.06147 0.21183 0.50458 0.0
C693 C 0.07781 0.2304 0.49047 0.0
C694 C 0.04501 0.21955 0.52857 0.0
C695 C 0.04418 0.24607 0.53845 0.0
C696 C 0.05951 0.26481 0.52352 0.0
H697 H 0.00593 0.35113 0.67257 0.0
H698 H 0.01943 0.32559 0.63061 0.0
C699 C 0.07614 0.25708 0.49993 0.0
C700 C 0.0294 0.25408 0.56551 0.0
H701 H 0.9827 0.30352 0.59302 0.0
C702 C 0.03942 0.24165 0.59138 0.0
C703 C 0.00787 0.27599 0.56624 0.0
C704 C 0.99515 0.28934 0.53928 0.0
C705 C 0.02992 0.25175 0.61787 0.0
C706 C 0.00956 0.27465 0.61853 0.0
C707 C 0.99841 0.28606 0.59263 0.0
C708 C 0.00188 0.28907 0.64536 0.0
C709 C 0.04299 0.23888 0.6449 0.0
C710 C 0.98761 0.27704 0.6681 0.0
C711 C 0.97979 0.29175 0.69257 0.0
C712 C 0.986 0.31878 0.69462 0.0
C713 C 0.00065 0.33043 0.67191 0.0
C714 C 0.00839 0.31583 0.64771 0.0
H715 H 0.06156 0.22402 0.64061 0.0
H716 H 0.05002 0.25457 0.65893 0.0
H717 H 0.02674 0.2282 0.65665 0.0
H718 H 0.98199 0.25651 0.66669 0.0
H719 H 0.96838 0.2822 0.70951 0.0
H720 H 0.9881 0.754 0.74183 0.0
H721 H 0.00017 0.72373 0.78259 0.0
H722 H 0.08851 0.7388 0.77511 0.0
H723 H 0.07687 0.76857 0.73347 0.0
H724 H 0.05069 0.67724 0.8 0.0
H725 H 0.04856 0.77856 0.84858 0.0
H726 H 0.03131 0.77493 0.81482 0.0
H727 H 0.0695 0.77119 0.81716 0.0
C728 C 0.0103 0.75008 0.7479 0.0
C729 C 0.03136 0.76447 0.73486 0.0
C730 C 0.01717 0.73268 0.77128 0.0
C731 C 0.04512 0.72941 0.78197 0.0
C732 C 0.06679 0.74122 0.76714 0.0
H733 H 0.03318 0.71121 0.96522 0.0
H734 H 0.06088 0.7132 0.92101 0.0
C735 C 0.05999 0.75847 0.74358 0.0
C736 C 0.04973 0.7189 0.81145 0.0
H737 H 0.04327 0.74155 0.87896 0.0
C738 C 0.04987 0.69111 0.81743 0.0
C739 C 0.04926 0.73706 0.83405 0.0
C740 C 0.04964 0.76713 0.82859 0.0
C741 C 0.04745 0.68117 0.84557 0.0
C742 C 0.04351 0.6997 0.86792 0.0
C743 C 0.04606 0.72723 0.86199 0.0
C744 C 0.03166 0.69224 0.8961 0.0
C745 C 0.0483 0.65103 0.85084 0.0
C746 C 0.0066 0.67904 0.89719 0.0
C747 C 0.99123 0.67746 0.92244 0.0
C748 C 0.00013 0.68971 0.94701 0.0
C749 C 0.0259 0.70175 0.94646 0.0
C750 C 0.0417 0.70278 0.92127 0.0
H751 H 0.06407 0.64025 0.83652 0.0
H752 H 0.05394 0.64505 0.87325 0.0
H753 H 0.0271 0.64432 0.84583 0.0
H754 H 0.99762 0.67167 0.87805 0.0
H755 H 0.97119 0.66848 0.92211 0.0
H756 H 0.47839 0.66408 0.20572 0.0
H757 H 0.4697 0.6871 0.15972 0.0
H758 H 0.51473 0.75334 0.18692 0.0
H759 H 0.52371 0.73019 0.23367 0.0
H760 H 0.46045 0.7678 0.15597 0.0
H761 H 0.53357 0.69385 0.0992 0.0
H762 H 0.50943 0.67794 0.1224 0.0
H763 H 0.53534 0.69792 0.13726 0.0
C764 C 0.48637 0.68363 0.20216 0.0
C765 C 0.50197 0.69519 0.22335 0.0
C766 C 0.48149 0.69669 0.17572 0.0
C767 C 0.49217 0.72157 0.16969 0.0
C768 C 0.50663 0.73395 0.19111 0.0
H769 H 0.44088 0.80269 0.00377 0.0
H770 H 0.47134 0.79335 0.04624 0.0
C771 C 0.51159 0.72078 0.2178 0.0
C772 C 0.48781 0.7341 0.14079 0.0
H773 H 0.49608 0.71834 0.07082 0.0
C774 C 0.46889 0.75756 0.13727 0.0
C775 C 0.49903 0.72075 0.11646 0.0
C776 C 0.52071 0.69636 0.11896 0.0
C777 C 0.45894 0.76659 0.11006 0.0
C778 C 0.46833 0.75181 0.08597 0.0
C779 C 0.4889 0.7296 0.08935 0.0
C780 C 0.45341 0.75618 0.05824 0.0
C781 C 0.43679 0.79059 0.10737 0.0
C782 C 0.43415 0.73787 0.0505 0.0
C783 C 0.41681 0.74316 0.02655 0.0
C784 C 0.41863 0.76673 0.00963 0.0
C785 C 0.43927 0.78423 0.01629 0.0
C786 C 0.45646 0.77906 0.04062 0.0
H787 H 0.43102 0.79935 0.12832 0.0
H788 H 0.44502 0.80652 0.09344 0.0
H789 H 0.41718 0.78452 0.09722 0.0
H790 H 0.43154 0.72009 0.06381 0.0
H791 H 0.4011 0.72933 0.02193 0.0
H792 H 0.10016 0.22875 0.35349 0.0
H793 H 0.10284 0.25064 0.30627 0.0
H794 H 0.16234 0.30298 0.33857 0.0
H795 H 0.15984 0.28133 0.38585 0.0
H796 H 0.09419 0.30802 0.28715 0.0
H797 H 0.20452 0.26025 0.27205 0.0
H798 H 0.18061 0.24823 0.29865 0.0
H799 H 0.19892 0.27758 0.30492 0.0
C800 C 0.11343 0.24526 0.3507 0.0
C801 C 0.12998 0.25316 0.3734 0.0
C802 C 0.11497 0.25766 0.32369 0.0
C803 C 0.13322 0.27797 0.3189 0.0
C804 C 0.14849 0.28698 0.34182 0.0
H805 H 0.16298 0.40065 0.20344 0.0
H806 H 0.14539 0.36987 0.23899 0.0
C807 C 0.14686 0.27472 0.36887 0.0
C808 C 0.13729 0.28915 0.28978 0.0
H809 H 0.18855 0.29638 0.23944 0.0
C810 C 0.11466 0.30517 0.27648 0.0
C811 C 0.16381 0.28483 0.27565 0.0
C812 C 0.18832 0.26658 0.28837 0.0
C813 C 0.11852 0.31857 0.2502 0.0
C814 C 0.14571 0.31593 0.23714 0.0
C815 C 0.16773 0.2984 0.24951 0.0
C816 C 0.15306 0.33438 0.21352 0.0
C817 C 0.09378 0.3362 0.23709 0.0
C818 C 0.16332 0.32461 0.18726 0.0
C819 C 0.17338 0.34237 0.16659 0.0
C820 C 0.17393 0.36987 0.17241 0.0
C821 C 0.16301 0.37951 0.19844 0.0
C822 C 0.15266 0.36199 0.21871 0.0
H823 H 0.07302 0.32939 0.24413 0.0
H824 H 0.09457 0.35727 0.24396 0.0
H825 H 0.09475 0.33621 0.21346 0.0
H826 H 0.16408 0.30326 0.18306 0.0
H827 H 0.18181 0.33448 0.14673 0.0
H828 H 0.99523 0.94166 0.61921 0.0
H829 H 0.96883 0.94639 0.57408 0.0
H830 H 0.95964 0.86088 0.57714 0.0
H831 H 0.98526 0.85609 0.62245 0.0
H832 H 0.97931 0.9233 0.52215 0.0
H833 H 0.87782 0.89278 0.56716 0.0
H834 H 0.90702 0.90058 0.58931 0.0
H835 H 0.90774 0.86808 0.57335 0.0
C836 C 0.98747 0.92389 0.61034 0.0
C837 C 0.99207 0.89856 0.62464 0.0
C838 C 0.97248 0.9266 0.58448 0.0
C839 C 0.96183 0.90406 0.57243 0.0
C840 C 0.96703 0.87867 0.58633 0.0
H841 H 0.8919 0.90561 0.39751 0.0
H842 H 0.92262 0.89518 0.43953 0.0
C843 C 0.98179 0.87597 0.61223 0.0
C844 C 0.94507 0.90715 0.54549 0.0
H845 H 0.87997 0.89839 0.51704 0.0
C846 C 0.95759 0.91784 0.52099 0.0
C847 C 0.91665 0.90021 0.54405 0.0
C848 C 0.90137 0.89002 0.56991 0.0
C849 C 0.94242 0.92189 0.49515 0.0
C850 C 0.91414 0.91458 0.49366 0.0
C851 C 0.90176 0.9037 0.5181 0.0
C852 C 0.89599 0.92028 0.46785 0.0
C853 C 0.95642 0.93482 0.47 0.0
C854 C 0.87056 0.93727 0.46993 0.0
C855 C 0.85296 0.94296 0.44623 0.0
C856 C 0.86027 0.9318 0.41971 0.0
C857 C 0.88568 0.91457 0.41759 0.0
C858 C 0.90335 0.90876 0.44153 0.0
H859 H 0.97565 0.9445 0.47639 0.0
H860 H 0.96314 0.91909 0.45445 0.0
H861 H 0.94127 0.95031 0.45912 0.0
H862 H 0.8644 0.94638 0.48996 0.0
H863 H 0.83362 0.95637 0.44876 0.0
H864 H 0.3178 0.60464 0.70771 0.0
H865 H 0.32869 0.60916 0.7586 0.0
H866 H 0.32416 0.69575 0.74615 0.0
H867 H 0.31325 0.69147 0.69588 0.0
H868 H 0.37824 0.64345 0.78104 0.0
H869 H 0.26711 0.67469 0.81472 0.0
H870 H 0.27545 0.6537 0.78446 0.0
H871 H 0.27771 0.68953 0.78142 0.0
C872 C 0.31901 0.62458 0.71598 0.0
C873 C 0.31487 0.64769 0.69784 0.0
C874 C 0.32535 0.62711 0.74488 0.0
C875 C 0.32713 0.65278 0.75591 0.0
C876 C 0.32283 0.67579 0.7379 0.0
H877 H 0.38951 0.74885 0.87486 0.0
H878 H 0.38423 0.7162 0.83806 0.0
C879 C 0.31679 0.67328 0.70917 0.0
C880 C 0.33358 0.65636 0.78618 0.0
H881 H 0.30448 0.68796 0.8441 0.0
C882 C 0.36209 0.65248 0.79526 0.0
C883 C 0.31238 0.66782 0.80463 0.0
C884 C 0.28136 0.67152 0.796 0.0
C885 C 0.37026 0.66187 0.82164 0.0
C886 C 0.34939 0.67578 0.83891 0.0
C887 C 0.32055 0.67747 0.8308 0.0
C888 C 0.35705 0.69196 0.86322 0.0
C889 C 0.40127 0.65776 0.83022 0.0
C890 C 0.34369 0.68914 0.88972 0.0
C891 C 0.34642 0.70801 0.91074 0.0
C892 C 0.36239 0.73015 0.90551 0.0
C893 C 0.3771 0.73202 0.87958 0.0
C894 C 0.37431 0.71318 0.85858 0.0
H895 H 0.41191 0.639 0.82115 0.0
H896 H 0.41236 0.67499 0.82172 0.0
H897 H 0.40379 0.65657 0.85375 0.0
H898 H 0.33012 0.67302 0.89366 0.0
H899 H 0.33495 0.70591 0.93056 0.0
H900 H 0.54126 0.16005 0.14684 0.0
H901 H 0.56876 0.1617 0.10243 0.0
H902 H 0.53735 0.08713 0.07755 0.0
H903 H 0.50904 0.08611 0.12088 0.0
H904 H 0.61044 0.13068 0.08212 0.0
H905 H 0.52187 0.12999 0.00597 0.0
H906 H 0.51576 0.13537 0.04338 0.0
H907 H 0.52126 0.10154 0.03018 0.0
C908 C 0.54014 0.14416 0.13173 0.0
C909 C 0.52276 0.12313 0.13716 0.0
C910 C 0.55578 0.14513 0.10635 0.0
C911 C 0.55447 0.12498 0.08613 0.0
C912 C 0.53782 0.10355 0.09211 0.0
H913 H 0.67885 0.05662 0.97521 0.0
H914 H 0.65028 0.07574 0.01393 0.0
C915 C 0.52186 0.10282 0.1171 0.0
C916 C 0.57168 0.12518 0.05952 0.0
H917 H 0.56858 0.11193 0.98874 0.0
C918 C 0.60116 0.12713 0.0616 0.0
C919 C 0.55964 0.12149 0.03242 0.0
C920 C 0.52784 0.12233 0.02784 0.0
C921 C 0.61912 0.12337 0.03787 0.0
C922 C 0.60747 0.1164 0.01158 0.0
C923 C 0.57774 0.11662 0.00897 0.0
C924 C 0.62579 0.10617 0.98763 0.0
C925 C 0.65045 0.1266 0.04144 0.0
C926 C 0.62095 0.11611 0.95949 0.0
C927 C 0.63696 0.10463 0.93691 0.0
C928 C 0.65814 0.08311 0.94216 0.0
C929 C 0.66301 0.07343 0.97036 0.0
C930 C 0.64682 0.08457 0.9927 0.0
H931 H 0.6537 0.14211 0.05735 0.0
H932 H 0.66163 0.10719 0.04952 0.0
H933 H 0.66039 0.13251 0.02103 0.0
H934 H 0.60459 0.13255 0.95496 0.0
H935 H 0.63263 0.11245 0.9154 0.0
H936 H 0.6708 0.25894 0.5735 0.0
H937 H 0.67848 0.22107 0.60817 0.0
H938 H 0.59993 0.24825 0.65032 0.0
H939 H 0.59217 0.28616 0.61611 0.0
H940 H 0.64822 0.24002 0.68644 0.0
H941 H 0.63682 0.15152 0.61904 0.0
H942 H 0.66083 0.17522 0.60629 0.0
H943 H 0.6233 0.18554 0.60819 0.0
C944 C 0.65496 0.25664 0.58991 0.0
C945 C 0.63092 0.27563 0.5921 0.0
C946 C 0.65934 0.23493 0.60962 0.0
C947 C 0.63968 0.23183 0.63168 0.0
C948 C 0.61533 0.25031 0.63341 0.0
H949 H 0.61096 0.10871 0.75644 0.0
H950 H 0.61107 0.13979 0.71511 0.0
C951 C 0.61093 0.27195 0.6138 0.0
C952 C 0.64517 0.21053 0.65425 0.0
H953 H 0.64903 0.14233 0.66741 0.0
C954 C 0.64859 0.21864 0.68229 0.0
C955 C 0.64551 0.18272 0.64867 0.0
C956 C 0.64123 0.17308 0.61898 0.0
C957 C 0.65184 0.1997 0.70507 0.0
C958 C 0.65209 0.17187 0.69956 0.0
C959 C 0.64906 0.16369 0.67146 0.0
C960 C 0.65345 0.15125 0.72305 0.0
C961 C 0.65393 0.2097 0.73496 0.0
C962 C 0.67751 0.14698 0.74082 0.0
C963 C 0.67742 0.1294 0.76463 0.0
C964 C 0.65326 0.11574 0.77102 0.0
C965 C 0.62967 0.11929 0.75245 0.0
C966 C 0.62979 0.13684 0.72867 0.0
H967 H 0.6477 0.23179 0.73601 0.0
H968 H 0.64012 0.19894 0.74972 0.0
H969 H 0.67629 0.20566 0.74257 0.0
H970 H 0.6961 0.15771 0.73662 0.0
H971 H 0.69588 0.12724 0.77851 0.0
H972 H 0.14797 0.34532 0.00568 0.0
H973 H 0.12351 0.34634 0.95988 0.0
H974 H 0.14383 0.42809 0.94346 0.0
H975 H 0.16889 0.42712 0.98952 0.0
H976 H 0.07603 0.38803 0.94237 0.0
H977 H 0.17083 0.38218 0.8707 0.0
H978 H 0.17346 0.37044 0.90749 0.0
H979 H 0.16863 0.40597 0.89903 0.0
C980 C 0.14758 0.36344 0.99226 0.0
C981 C 0.16058 0.38608 0.00113 0.0
C982 C 0.13346 0.36402 0.96615 0.0
C983 C 0.13218 0.38715 0.94824 0.0
C984 C 0.14491 0.40994 0.95694 0.0
H985 H 0.04208 0.40536 0.78433 0.0
H986 H 0.07515 0.41235 0.82309 0.0
C987 C 0.15896 0.40944 0.98329 0.0
C988 C 0.11652 0.38727 0.92097 0.0
H989 H 0.12583 0.38005 0.84933 0.0
C990 C 0.08685 0.38659 0.92198 0.0
C991 C 0.13078 0.38552 0.89448 0.0
C992 C 0.16271 0.38596 0.89258 0.0
C993 C 0.07106 0.38349 0.89723 0.0
C994 C 0.08544 0.38038 0.8709 0.0
C995 C 0.11498 0.38218 0.86964 0.0
C996 C 0.06992 0.37421 0.8449 0.0
C997 C 0.03908 0.38327 0.8995 0.0
C998 C 0.0573 0.34985 0.84366 0.0
C999 C 0.03845 0.34577 0.82165 0.0
C1000 C 0.03198 0.36597 0.80041 0.0
C1001 C 0.04658 0.3894 0.80039 0.0
C1002 C 0.06542 0.39349 0.82254 0.0
H1003 H 0.03068 0.39259 0.9194 0.0
H1004 H 0.02815 0.39423 0.881 0.0
H1005 H 0.03361 0.36204 0.89968 0.0
H1006 H 0.06091 0.33456 0.86056 0.0
H1007 H 0.02773 0.32743 0.82221 0.0
H1008 H 0.8204 0.88198 0.24362 0.0
H1009 H 0.82264 0.84761 0.20712 0.0
H1010 H 0.90896 0.82053 0.23238 0.0
H1011 H 0.90665 0.85408 0.26927 0.0
H1012 H 0.85989 0.84087 0.16102 0.0
H1013 H 0.87098 0.75018 0.2332 0.0
H1014 H 0.85968 0.78354 0.24557 0.0
H1015 H 0.89693 0.77344 0.23981 0.0
C1016 C 0.83972 0.86849 0.24168 0.0
C1017 C 0.86333 0.8709 0.2595 0.0
C1018 C 0.84103 0.84895 0.22066 0.0
C1019 C 0.86584 0.83123 0.21722 0.0
C1020 C 0.88941 0.83363 0.23491 0.0
H1021 H 0.9209 0.73662 0.07093 0.0
H1022 H 0.91436 0.76991 0.10834 0.0
C1023 C 0.88815 0.85312 0.25584 0.0
C1024 C 0.86754 0.81068 0.1947 0.0
H1025 H 0.88107 0.74292 0.18409 0.0
C1026 C 0.86434 0.81944 0.16606 0.0
C1027 C 0.87299 0.78266 0.20128 0.0
C1028 C 0.87507 0.77182 0.23164 0.0
C1029 C 0.86723 0.80103 0.14382 0.0
C1030 C 0.87394 0.77314 0.15037 0.0
C1031 C 0.87633 0.76432 0.17904 0.0
C1032 C 0.87826 0.75273 0.12782 0.0
C1033 C 0.86275 0.81157 0.11352 0.0
C1034 C 0.86071 0.7315 0.12679 0.0
C1035 C 0.86451 0.71234 0.10555 0.0
C1036 C 0.88612 0.71385 0.08496 0.0
C1037 C 0.90403 0.73486 0.08638 0.0
C1038 C 0.90017 0.75405 0.10763 0.0
H1039 H 0.85054 0.83187 0.11257 0.0
H1040 H 0.88382 0.8134 0.1034 0.0
H1041 H 0.8512 0.79755 0.10089 0.0
H1042 H 0.84378 0.72996 0.14223 0.0
H1043 H 0.85031 0.69646 0.10514 0.0
H1044 H 0.29353 0.59682 0.49417 0.0
H1045 H 0.32533 0.60647 0.45502 0.0
H1046 H 0.36653 0.66102 0.50733 0.0
H1047 H 0.33461 0.65136 0.54715 0.0
H1048 H 0.3431 0.67905 0.44536 0.0
H1049 H 0.41643 0.58435 0.45483 0.0
H1050 H 0.37883 0.58114 0.45861 0.0
H1051 H 0.39696 0.59862 0.48488 0.0
C1052 C 0.30941 0.61081 0.49749 0.0
C1053 C 0.31159 0.62342 0.52369 0.0
C1054 C 0.32754 0.61623 0.47511 0.0
C1055 C 0.34812 0.63437 0.47846 0.0
C1056 C 0.35067 0.64692 0.50456 0.0
H1057 H 0.46536 0.6934 0.35554 0.0
H1058 H 0.43043 0.69061 0.39352 0.0
C1059 C 0.33259 0.64131 0.52721 0.0
C1060 C 0.36644 0.64029 0.45416 0.0
H1061 H 0.41991 0.61145 0.41299 0.0
C1062 C 0.36013 0.6645 0.43833 0.0
C1063 C 0.38822 0.62098 0.44509 0.0
C1064 C 0.39577 0.59483 0.46175 0.0
C1065 C 0.37481 0.66965 0.41303 0.0
C1066 C 0.39654 0.65022 0.40382 0.0
C1067 C 0.40302 0.62618 0.41997 0.0
C1068 C 0.41381 0.65463 0.37816 0.0
C1069 C 0.3664 0.69543 0.39601 0.0
C1070 C 0.4157 0.63555 0.35664 0.0
C1071 C 0.43588 0.63691 0.33498 0.0
C1072 C 0.45458 0.6573 0.33469 0.0
C1073 C 0.45128 0.67741 0.35519 0.0
C1074 C 0.43119 0.67597 0.37686 0.0
H1075 H 0.34442 0.70406 0.40125 0.0
H1076 H 0.38126 0.71063 0.4011 0.0
H1077 H 0.36763 0.69197 0.37278 0.0
H1078 H 0.40244 0.6189 0.35737 0.0
H1079 H 0.43791 0.62112 0.3195 0.0
H1080 H 0.24238 0.20607 0.41972 0.0
H1081 H 0.28598 0.19171 0.39403 0.0
H1082 H 0.24257 0.13186 0.35144 0.0
H1083 H 0.19852 0.14603 0.37734 0.0
H1084 H 0.29878 0.11311 0.37391 0.0
H1085 H 0.29902 0.20799 0.30839 0.0
H1086 H 0.29544 0.21286 0.34602 0.0
H1087 H 0.26768 0.19861 0.32697 0.0
C1088 C 0.24197 0.18982 0.40492 0.0
C1089 C 0.21684 0.17728 0.4005 0.0
C1090 C 0.26695 0.18173 0.39016 0.0
C1091 C 0.26742 0.16099 0.37055 0.0
C1092 C 0.24259 0.14801 0.3664 0.0
H1093 H 0.39597 0.0886 0.25687 0.0
H1094 H 0.355 0.09746 0.2882 0.0
C1095 C 0.21745 0.15616 0.38116 0.0
C1096 C 0.29392 0.15307 0.35447 0.0
H1097 H 0.34081 0.17738 0.3069 0.0
C1098 C 0.30794 0.12707 0.35914 0.0
C1099 C 0.30586 0.17138 0.33532 0.0
C1100 C 0.29115 0.1992 0.32861 0.0
C1101 C 0.3339 0.11908 0.34553 0.0
C1102 C 0.34588 0.13745 0.32644 0.0
C1103 C 0.33177 0.1634 0.32175 0.0
C1104 C 0.37234 0.12992 0.31005 0.0
C1105 C 0.34856 0.09124 0.35213 0.0
C1106 C 0.39589 0.14512 0.31196 0.0
C1107 C 0.41946 0.14012 0.29398 0.0
C1108 C 0.41973 0.12001 0.27352 0.0
C1109 C 0.39657 0.10415 0.27247 0.0
C1110 C 0.37311 0.10911 0.29047 0.0
H1111 H 0.34126 0.0828 0.37275 0.0
H1112 H 0.34343 0.07744 0.33515 0.0
H1113 H 0.3721 0.09159 0.35291 0.0
H1114 H 0.39568 0.16137 0.32683 0.0
H1115 H 0.43683 0.15284 0.29523 0.0
H1116 H 0.15572 0.11536 0.482 0.0
H1117 H 0.15168 0.08502 0.52336 0.0
H1118 H 0.16227 0.15052 0.57929 0.0
H1119 H 0.16656 0.18117 0.53783 0.0
H1120 H 0.18708 0.07343 0.5795 0.0
H1121 H 0.07703 0.1257 0.58743 0.0
H1122 H 0.09742 0.12711 0.55494 0.0
H1123 H 0.10692 0.14571 0.58503 0.0
C1124 C 0.15796 0.12315 0.50309 0.0
C1125 C 0.16109 0.15065 0.50679 0.0
C1126 C 0.1558 0.10578 0.52665 0.0
C1127 C 0.15649 0.11569 0.5542 0.0
C1128 C 0.16174 0.14263 0.55807 0.0
H1129 H 0.07401 0.03472 0.69387 0.0
H1130 H 0.09913 0.06761 0.66711 0.0
C1131 C 0.16422 0.16004 0.53443 0.0
C1132 C 0.14734 0.09879 0.57813 0.0
H1133 H 0.08765 0.08635 0.61538 0.0
C1134 C 0.16554 0.07642 0.58783 0.0
C1135 C 0.11923 0.1029 0.58875 0.0
C1136 C 0.09883 0.12656 0.57856 0.0
C1137 C 0.15601 0.05751 0.60756 0.0
C1138 C 0.12733 0.06078 0.61697 0.0
C1139 C 0.10959 0.08383 0.60809 0.0
C1140 C 0.11456 0.03993 0.63463 0.0
C1141 C 0.1767 0.03421 0.61792 0.0
C1142 C 0.11474 0.0134 0.62522 0.0
C1143 C 0.10074 0.99428 0.64078 0.0
C1144 C 0.08581 0.00143 0.66584 0.0
C1145 C 0.08559 0.02816 0.67504 0.0
C1146 C 0.09988 0.04713 0.65966 0.0
H1147 H 0.19906 0.0396 0.61699 0.0
H1148 H 0.17193 0.02777 0.64012 0.0
H1149 H 0.1752 0.0168 0.60395 0.0
H1150 H 0.1252 0.00758 0.60549 0.0
H1151 H 0.1017 0.97397 0.63301 0.0
H1152 H 0.09146 0.91521 0.77677 0.0
H1153 H 0.13112 0.90496 0.81032 0.0
H1154 H 0.13118 0.81997 0.79406 0.0
H1155 H 0.09045 0.83 0.76209 0.0
H1156 H 0.14217 0.82399 0.84618 0.0
H1157 H 0.21177 0.89082 0.78887 0.0
H1158 H 0.18018 0.90956 0.80173 0.0
H1159 H 0.17741 0.88444 0.77522 0.0
C1160 C 0.09971 0.89431 0.78071 0.0
C1161 C 0.08783 0.87344 0.7667 0.0
C1162 C 0.1227 0.88848 0.7996 0.0
C1163 C 0.13502 0.86173 0.80411 0.0
C1164 C 0.12238 0.84081 0.79091 0.0
H1165 H 0.30808 0.8203 0.86981 0.0
H1166 H 0.26551 0.83211 0.84028 0.0
C1167 C 0.09896 0.84657 0.77262 0.0
C1168 C 0.16106 0.85539 0.82234 0.0
H1169 H 0.22866 0.87263 0.83383 0.0
C1170 C 0.16111 0.83459 0.84332 0.0
C1171 C 0.18621 0.86867 0.8184 0.0
C1172 C 0.18905 0.88938 0.79463 0.0
C1173 C 0.18525 0.82682 0.86039 0.0
C1174 C 0.20981 0.84114 0.85754 0.0
C1175 C 0.20984 0.86183 0.83645 0.0
C1176 C 0.23588 0.83462 0.87569 0.0
C1177 C 0.18435 0.80261 0.88048 0.0
C1178 C 0.2338 0.83268 0.90555 0.0
C1179 C 0.25802 0.82523 0.92234 0.0
C1180 C 0.28511 0.82055 0.90979 0.0
C1181 C 0.2875 0.82383 0.88009 0.0
C1182 C 0.26312 0.83057 0.8632 0.0
H1183 H 0.16885 0.7888 0.87313 0.0
H1184 H 0.20561 0.79093 0.88259 0.0
H1185 H 0.17732 0.80957 0.90181 0.0
H1186 H 0.21339 0.83677 0.91596 0.0
H1187 H 0.25556 0.82324 0.94522 0.0
H1188 H 0.37594 0.05008 0.11375 0.0
H1189 H 0.36461 0.0092 0.0906 0.0
H1190 H 0.43481 0.96348 0.1345 0.0
H1191 H 0.4464 0.00475 0.15778 0.0
H1192 H 0.43127 0.95085 0.07795 0.0
H1193 H 0.32559 0.94823 0.12887 0.0
H1194 H 0.32924 0.98027 0.11134 0.0
H1195 H 0.35192 0.96932 0.14119 0.0
C1196 C 0.38893 0.03131 0.11855 0.0
C1197 C 0.41181 0.0305 0.13787 0.0
C1198 C 0.38234 0.00794 0.10542 0.0
C1199 C 0.39828 0.98314 0.11152 0.0
C1200 C 0.42198 0.98238 0.12983 0.0
H1201 H 0.33977 0.83296 0.04728 0.0
H1202 H 0.35232 0.8677 0.07991 0.0
C1203 C 0.42871 0.00593 0.14294 0.0
C1204 C 0.39028 0.95835 0.09809 0.0
H1205 H 0.33333 0.92235 0.0865 0.0
C1206 C 0.41001 0.94436 0.08014 0.0
C1207 C 0.3627 0.94953 0.10141 0.0
C1208 C 0.34126 0.96245 0.122 0.0
C1209 C 0.40234 0.9228 0.06412 0.0
C1210 C 0.37403 0.91546 0.06569 0.0
C1211 C 0.35484 0.92834 0.08493 0.0
C1212 C 0.3637 0.8955 0.04637 0.0
C1213 C 0.42456 0.90829 0.0454 0.0
C1214 C 0.36457 0.90027 0.01682 0.0
C1215 C 0.35742 0.88062 0.99828 0.0
C1216 C 0.3489 0.85591 0.0089 0.0
C1217 C 0.3461 0.85188 0.0385 0.0
C1218 C 0.35347 0.87159 0.05713 0.0
H1219 H 0.44651 0.91043 0.0531 0.0
H1220 H 0.42163 0.88643 0.04448 0.0
H1221 H 0.4226 0.91722 0.02346 0.0
H1222 H 0.3716 0.91892 0.00808 0.0
H1223 H 0.35959 0.88442 0.97557 0.0
H1224 H 0.89024 0.4015 0.68656 0.0
H1225 H 0.84197 0.40574 0.66666 0.0
H1226 H 0.81332 0.35839 0.73772 0.0
H1227 H 0.86168 0.35324 0.75718 0.0
H1228 H 0.79577 0.34052 0.68968 0.0
H1229 H 0.77073 0.45148 0.68734 0.0
H1230 H 0.80337 0.44202 0.66892 0.0
H1231 H 0.80096 0.43486 0.70666 0.0
C1232 C 0.8736 0.39216 0.69803 0.0
C1233 C 0.87976 0.37698 0.72337 0.0
C1234 C 0.84594 0.39486 0.68681 0.0
C1235 C 0.82385 0.38291 0.70103 0.0
C1236 C 0.82996 0.36797 0.7265 0.0
H1237 H 0.64985 0.36927 0.63587 0.0
H1238 H 0.68726 0.37747 0.67029 0.0
C1239 C 0.85764 0.36497 0.73753 0.0
C1240 C 0.79502 0.38396 0.6881 0.0
H1241 H 0.74225 0.42662 0.65635 0.0
C1242 C 0.78379 0.35939 0.68301 0.0
C1243 C 0.77926 0.40861 0.67951 0.0
C1244 C 0.78908 0.43572 0.68618 0.0
C1245 C 0.75808 0.35873 0.66817 0.0
C1246 C 0.7433 0.38325 0.65813 0.0
C1247 C 0.75375 0.40789 0.66418 0.0
C1248 C 0.71925 0.38307 0.63811 0.0
C1249 C 0.74753 0.3318 0.66193 0.0
C1250 C 0.72487 0.38427 0.60886 0.0
C1251 C 0.70386 0.37934 0.58937 0.0
C1252 C 0.67678 0.37338 0.59882 0.0
C1253 C 0.67053 0.37395 0.62808 0.0
C1254 C 0.6918 0.37858 0.64769 0.0
H1255 H 0.76153 0.31453 0.67135 0.0
H1256 H 0.72564 0.33101 0.67054 0.0
H1257 H 0.7464 0.32941 0.63854 0.0
H1258 H 0.746 0.38763 0.60118 0.0
H1259 H 0.70918 0.3792 0.56692 0.0
H1260 H 0.91078 0.45122 0.78401 0.0
H1261 H 0.90147 0.48863 0.81624 0.0
H1262 H 0.94219 0.43949 0.88477 0.0
H1263 H 0.95025 0.4013 0.85259 0.0
H1264 H 0.89831 0.47046 0.90472 0.0
H1265 H 0.96138 0.53547 0.83737 0.0
H1266 H 0.9323 0.52454 0.81761 0.0
H1267 H 0.96023 0.50003 0.83102 0.0
C1268 C 0.91734 0.44826 0.80608 0.0
C1269 C 0.93132 0.42342 0.81581 0.0
C1270 C 0.91232 0.46978 0.82443 0.0
C1271 C 0.92205 0.46733 0.85273 0.0
C1272 C 0.93476 0.44204 0.86294 0.0
H1273 H 0.94259 0.61138 0.9503 0.0
H1274 H 0.9498 0.57139 0.92113 0.0
C1275 C 0.93924 0.42018 0.84463 0.0
C1276 C 0.91936 0.49136 0.87123 0.0
H1277 H 0.93201 0.5579 0.87269 0.0
C1278 C 0.90587 0.48952 0.89781 0.0
C1279 C 0.92985 0.51617 0.86266 0.0
C1280 C 0.94703 0.5191 0.83576 0.0
C1281 C 0.90185 0.51188 0.91559 0.0
C1282 C 0.91059 0.53718 0.9061 0.0
C1283 C 0.92478 0.53877 0.87987 0.0
C1284 C 0.90579 0.56211 0.92318 0.0
C1285 C 0.88889 0.50783 0.94463 0.0
C1286 C 0.8785 0.57094 0.93344 0.0
C1287 C 0.87443 0.5936 0.95051 0.0
C1288 C 0.8974 0.60846 0.95705 0.0
C1289 C 0.9244 0.6005 0.94555 0.0
C1290 C 0.92856 0.57751 0.92893 0.0
H1291 H 0.89237 0.48635 0.95217 0.0
H1292 H 0.898 0.52055 0.96065 0.0
H1293 H 0.86551 0.51336 0.94338 0.0
H1294 H 0.8603 0.56016 0.92848 0.0
H1295 H 0.85332 0.5993 0.95889 0.0
H1296 H 0.76975 0.67468 0.07962 0.0
H1297 H 0.73337 0.67951 0.11697 0.0
H1298 H 0.74983 0.59466 0.13942 0.0
H1299 H 0.78659 0.58981 0.10287 0.0
H1300 H 0.68421 0.65152 0.12186 0.0
H1301 H 0.75506 0.63207 0.21607 0.0
H1302 H 0.76823 0.64073 0.18116 0.0
H1303 H 0.7604 0.60672 0.18965 0.0
C1304 C 0.76577 0.65714 0.09271 0.0
C1305 C 0.78101 0.63187 0.0883 0.0
C1306 C 0.745 0.65992 0.11392 0.0
C1307 C 0.73939 0.63753 0.13116 0.0
C1308 C 0.75431 0.61226 0.12664 0.0
H1309 H 0.59125 0.60511 0.22647 0.0
H1310 H 0.63227 0.60505 0.19457 0.0
C1311 C 0.775 0.60946 0.10545 0.0
C1312 C 0.717 0.64012 0.15308 0.0
H1313 H 0.7051 0.62986 0.22407 0.0
C1314 C 0.68875 0.64708 0.14425 0.0
C1315 C 0.7232 0.63458 0.18224 0.0
C1316 C 0.7534 0.62836 0.19295 0.0
C1317 C 0.66626 0.64763 0.16379 0.0
C1318 C 0.67231 0.64067 0.1927 0.0
C1319 C 0.70065 0.63478 0.20175 0.0
C1320 C 0.64929 0.63913 0.21371 0.0
C1321 C 0.63619 0.65552 0.15336 0.0
C1322 C 0.64619 0.65761 0.23568 0.0
C1323 C 0.62287 0.65766 0.25403 0.0
C1324 C 0.60246 0.63912 0.25066 0.0
C1325 C 0.60652 0.61974 0.2295 0.0
C1326 C 0.62981 0.61974 0.21118 0.0
H1327 H 0.63589 0.66647 0.13236 0.0
H1328 H 0.62512 0.63699 0.15094 0.0
H1329 H 0.62397 0.6685 0.16887 0.0
H1330 H 0.66124 0.67258 0.23798 0.0
H1331 H 0.62036 0.67278 0.27021 0.0
H1332 H 0.65863 0.40921 0.4802 0.0
H1333 H 0.65401 0.45258 0.45362 0.0
H1334 H 0.56896 0.46996 0.48697 0.0
H1335 H 0.57383 0.42728 0.51431 0.0
H1336 H 0.61908 0.46856 0.41259 0.0
H1337 H 0.59917 0.54095 0.49864 0.0
H1338 H 0.61184 0.50593 0.50569 0.0
H1339 H 0.57424 0.51594 0.50094 0.0
C1340 C 0.63906 0.42243 0.48206 0.0
C1341 C 0.61662 0.41488 0.49939 0.0
C1342 C 0.63649 0.44724 0.46696 0.0
C1343 C 0.61139 0.46487 0.46879 0.0
C1344 C 0.58892 0.45722 0.48597 0.0
H1345 H 0.5294 0.56677 0.34243 0.0
H1346 H 0.54898 0.53227 0.37671 0.0
C1347 C 0.59162 0.43263 0.50135 0.0
C1348 C 0.6075 0.49002 0.45076 0.0
H1349 H 0.58166 0.55665 0.45162 0.0
C1350 C 0.61146 0.48792 0.42126 0.0
C1351 C 0.59814 0.5155 0.46197 0.0
C1352 C 0.59594 0.51976 0.49359 0.0
C1353 C 0.60448 0.51007 0.40258 0.0
C1354 C 0.59244 0.53479 0.4136 0.0
C1355 C 0.59035 0.53751 0.44318 0.0
C1356 C 0.57956 0.55693 0.39453 0.0
C1357 C 0.60948 0.50658 0.37109 0.0
C1358 C 0.5892 0.58283 0.39424 0.0
C1359 C 0.57768 0.60292 0.37475 0.0
C1360 C 0.55648 0.59723 0.35537 0.0
C1361 C 0.54608 0.57165 0.35673 0.0
C1362 C 0.55734 0.55183 0.37623 0.0
H1363 H 0.6271 0.49058 0.36719 0.0
H1364 H 0.58986 0.50032 0.36118 0.0
H1365 H 0.61472 0.52571 0.3604 0.0
H1366 H 0.60611 0.58722 0.4085 0.0
H1367 H 0.586 0.6225 0.3742 0.0
H1368 H 0.29272 0.38973 0.16759 0.0
H1369 H 0.32881 0.35144 0.1759 0.0
H1370 H 0.31233 0.32221 0.09259 0.0
H1371 H 0.27631 0.36035 0.08402 0.0
H1372 H 0.313 0.29718 0.17464 0.0
H1373 H 0.4008 0.31436 0.09899 0.0
H1374 H 0.37511 0.34133 0.11023 0.0
H1375 H 0.36545 0.31829 0.084 0.0
C1376 C 0.2973 0.37557 0.15073 0.0
C1377 C 0.28154 0.378 0.1252 0.0
C1378 C 0.31784 0.35366 0.15556 0.0
C1379 C 0.32322 0.33408 0.13483 0.0
C1380 C 0.30873 0.33729 0.10871 0.0
H1381 H 0.39175 0.16573 0.16259 0.0
H1382 H 0.36216 0.20722 0.14775 0.0
C1383 C 0.28809 0.35909 0.10389 0.0
C1384 C 0.34157 0.30887 0.14166 0.0
H1385 H 0.4026 0.27112 0.12231 0.0
C1386 C 0.33264 0.29149 0.16328 0.0
C1387 C 0.3671 0.30158 0.12672 0.0
C1388 C 0.37791 0.31991 0.10382 0.0
C1389 C 0.34854 0.26686 0.17029 0.0
C1390 C 0.37385 0.25938 0.15511 0.0
C1391 C 0.38295 0.27684 0.13364 0.0
C1392 C 0.39204 0.23422 0.16248 0.0
C1393 C 0.33845 0.2492 0.19422 0.0
C1394 C 0.41871 0.23581 0.17516 0.0
C1395 C 0.4355 0.21231 0.18371 0.0
C1396 C 0.42604 0.18672 0.17952 0.0
C1397 C 0.39957 0.18514 0.16615 0.0
C1398 C 0.38265 0.20877 0.15774 0.0
H1399 H 0.32122 0.25998 0.20692 0.0
H1400 H 0.33005 0.23117 0.18518 0.0
H1401 H 0.35645 0.24202 0.20867 0.0
H1402 H 0.42628 0.25529 0.17896 0.0
H1403 H 0.45585 0.21426 0.19381 0.0
H1404 H 0.87314 0.27813 0.78749 0.0
H1405 H 0.84334 0.24111 0.79801 0.0
H1406 H 0.90499 0.20706 0.86023 0.0
H1407 H 0.93464 0.24377 0.84992 0.0
H1408 H 0.85409 0.18494 0.79548 0.0
H1409 H 0.83191 0.21451 0.90688 0.0
H1410 H 0.84734 0.23646 0.88107 0.0
H1411 H 0.86923 0.20922 0.8986 0.0
C1412 C 0.88045 0.26261 0.8032 0.0
C1413 C 0.90611 0.26419 0.81815 0.0
C1414 C 0.86335 0.24152 0.8093 0.0
C1415 C 0.87154 0.22163 0.83046 0.0
C1416 C 0.89773 0.22256 0.84447 0.0
H1417 H 0.79027 0.08144 0.90029 0.0
H1418 H 0.82421 0.11508 0.88953 0.0
C1419 C 0.91471 0.2436 0.83848 0.0
C1420 C 0.85282 0.19993 0.83801 0.0
H1421 H 0.81647 0.17273 0.89331 0.0
C1422 C 0.84581 0.18234 0.81685 0.0
C1423 C 0.84209 0.19637 0.86597 0.0
C1424 C 0.84777 0.21527 0.8894 0.0
C1425 C 0.82862 0.16123 0.8229 0.0
C1426 C 0.81772 0.15782 0.85078 0.0
C1427 C 0.82496 0.17522 0.87202 0.0
C1428 C 0.79735 0.13743 0.85778 0.0
C1429 C 0.82252 0.14255 0.79941 0.0
C1430 C 0.77079 0.13916 0.84404 0.0
C1431 C 0.75146 0.12018 0.85018 0.0
C1432 C 0.75806 0.09894 0.87038 0.0
C1433 C 0.7845 0.09747 0.88461 0.0
C1434 C 0.80391 0.11666 0.87845 0.0
H1435 H 0.83866 0.14281 0.78214 0.0
H1436 H 0.8221 0.12144 0.80774 0.0
H1437 H 0.80132 0.14926 0.78995 0.0
H1438 H 0.76492 0.15531 0.82852 0.0
H1439 H 0.73131 0.12215 0.83882 0.0
H1440 H 0.12149 0.461 0.07678 0.0
H1441 H 0.07489 0.48723 0.07733 0.0
H1442 H 0.08308 0.49748 0.16781 0.0
H1443 H 0.13045 0.47233 0.16709 0.0
H1444 H 0.0253 0.48182 0.10448 0.0
H1445 H 0.07138 0.57455 0.13951 0.0
H1446 H 0.09353 0.54488 0.12917 0.0
H1447 H 0.0764 0.54562 0.16342 0.0
C1448 C 0.11332 0.46883 0.09678 0.0
C1449 C 0.12967 0.46511 0.12178 0.0
C1450 C 0.08666 0.48365 0.09713 0.0
C1451 C 0.07574 0.49465 0.12255 0.0
C1452 C 0.09143 0.48976 0.14786 0.0
H1453 H 0.90956 0.59069 0.08859 0.0
H1454 H 0.94247 0.55717 0.11457 0.0
C1455 C 0.11842 0.4754 0.14741 0.0
C1456 C 0.04886 0.51266 0.12162 0.0
H1457 H 0.02361 0.57904 0.12573 0.0
C1458 C 0.02466 0.50301 0.10957 0.0
C1459 C 0.04818 0.54023 0.12851 0.0
C1460 C 0.07376 0.55208 0.14068 0.0
C1461 C 0.00066 0.52065 0.1019 0.0
C1462 C 0.00073 0.54847 0.10722 0.0
C1463 C 0.02381 0.55764 0.1217 0.0
C1464 C 0.98027 0.56897 0.09312 0.0
C1465 C 0.97651 0.50981 0.0861 0.0
C1466 C 0.99076 0.58689 0.07298 0.0
C1467 C 0.97228 0.60606 0.05853 0.0
C1468 C 0.94282 0.60763 0.06375 0.0
C1469 C 0.9322 0.58977 0.08404 0.0
C1470 C 0.95089 0.57062 0.09881 0.0
H1471 H 0.98146 0.48826 0.08069 0.0
H1472 H 0.95705 0.51145 0.09952 0.0
H1473 H 0.97163 0.52186 0.06609 0.0
H1474 H 0.01337 0.58581 0.06817 0.0
H1475 H 0.98114 0.61945 0.04296 0.0
H1476 H 0.7852 0.86704 0.33484 0.0
H1477 H 0.74953 0.83468 0.33176 0.0
H1478 H 0.69416 0.88264 0.38792 0.0
H1479 H 0.72954 0.91538 0.39092 0.0
H1480 H 0.72179 0.80432 0.37394 0.0
H1481 H 0.64667 0.87893 0.31438 0.0
H1482 H 0.68379 0.88385 0.31955 0.0
H1483 H 0.65866 0.89002 0.34798 0.0
C1484 C 0.76561 0.87054 0.34687 0.0
C1485 C 0.76003 0.8939 0.36289 0.0
C1486 C 0.74528 0.85205 0.34505 0.0
C1487 C 0.71909 0.85666 0.35914 0.0
C1488 C 0.71409 0.87911 0.37645 0.0
H1489 H 0.56553 0.77538 0.36467 0.0
H1490 H 0.60244 0.80629 0.36991 0.0
C1491 C 0.73438 0.89766 0.37827 0.0
C1492 C 0.6966 0.83855 0.35472 0.0
H1493 H 0.62985 0.83683 0.327 0.0
C1494 C 0.7017 0.81134 0.36364 0.0
C1495 C 0.67056 0.8479 0.3411 0.0
C1496 C 0.66457 0.8767 0.32994 0.0
C1497 C 0.68109 0.79323 0.35979 0.0
C1498 C 0.65502 0.80262 0.34628 0.0
C1499 C 0.64994 0.82981 0.33732 0.0
C1500 C 0.63244 0.78462 0.34185 0.0
C1501 C 0.6871 0.76436 0.37068 0.0
C1502 C 0.63694 0.76271 0.32375 0.0
C1503 C 0.61593 0.74501 0.32077 0.0
C1504 C 0.59013 0.74902 0.33586 0.0
C1505 C 0.58537 0.77158 0.35316 0.0
C1506 C 0.60633 0.78928 0.35607 0.0
H1507 H 0.70532 0.76192 0.38586 0.0
H1508 H 0.66801 0.75732 0.38142 0.0
H1509 H 0.69247 0.75114 0.35245 0.0
H1510 H 0.65685 0.7591 0.31227 0.0
H1511 H 0.6203 0.72771 0.30744 0.0
H1512 H 0.49095 0.38197 0.55031 0.0
H1513 H 0.44303 0.4062 0.54937 0.0
H1514 H 0.45874 0.43929 0.63109 0.0
H1515 H 0.50634 0.41497 0.63227 0.0
H1516 H 0.40567 0.42103 0.62804 0.0
H1517 H 0.42531 0.48669 0.53339 0.0
H1518 H 0.43103 0.45102 0.52779 0.0
H1519 H 0.45376 0.46643 0.55193 0.0
C1520 C 0.48422 0.39456 0.56796 0.0
C1521 C 0.50247 0.39664 0.59132 0.0
C1522 C 0.45685 0.40838 0.5674 0.0
C1523 C 0.44745 0.42483 0.59 0.0
C1524 C 0.46552 0.42667 0.61345 0.0
H1525 H 0.32066 0.54754 0.63616 0.0
H1526 H 0.35717 0.50923 0.6349 0.0
C1527 C 0.49272 0.41272 0.61412 0.0
C1528 C 0.41899 0.44055 0.58934 0.0
H1529 H 0.37973 0.49256 0.5541 0.0
C1530 C 0.39989 0.43653 0.61174 0.0
C1531 C 0.41145 0.4607 0.56801 0.0
C1532 C 0.4315 0.46671 0.54403 0.0
C1533 C 0.37376 0.45256 0.61375 0.0
C1534 C 0.36668 0.47324 0.59294 0.0
C1535 C 0.38521 0.47656 0.56994 0.0
C1536 C 0.34172 0.49348 0.59599 0.0
C1537 C 0.35411 0.44752 0.63832 0.0
C1538 C 0.32065 0.49711 0.57473 0.0
C1539 C 0.29963 0.51901 0.57542 0.0
C1540 C 0.29969 0.53786 0.59716 0.0
C1541 C 0.32002 0.53338 0.61914 0.0
C1542 C 0.34083 0.5114 0.61854 0.0
H1543 H 0.35835 0.4266 0.64737 0.0
H1544 H 0.35762 0.46174 0.65544 0.0
H1545 H 0.33139 0.45092 0.63162 0.0
H1546 H 0.32111 0.48358 0.55704 0.0
H1547 H 0.28439 0.52198 0.55809 0.0
H1548 H 0.1873 0.67603 0.53516 0.0
H1549 H 0.16474 0.7227 0.53061 0.0
H1550 H 0.21946 0.74611 0.59735 0.0
H1551 H 0.24232 0.70056 0.60132 0.0
H1552 H 0.13442 0.74719 0.56939 0.0
H1553 H 0.22046 0.81124 0.54723 0.0
H1554 H 0.22492 0.77531 0.5414 0.0
H1555 H 0.23262 0.78837 0.57577 0.0
C1556 C 0.19483 0.69136 0.54839 0.0
C1557 C 0.21643 0.68455 0.56874 0.0
C1558 C 0.18208 0.71801 0.54565 0.0
C1559 C 0.19089 0.73818 0.5631 0.0
C1560 C 0.21297 0.73135 0.58281 0.0
H1561 H 0.11543 0.82707 0.68057 0.0
H1562 H 0.1433 0.80066 0.64548 0.0
C1563 C 0.22572 0.705 0.58543 0.0
C1564 C 0.17427 0.76499 0.56488 0.0
H1565 H 0.18437 0.82922 0.58359 0.0
C1566 C 0.1451 0.76544 0.57121 0.0
C1567 C 0.18781 0.78914 0.56674 0.0
C1568 C 0.21813 0.79095 0.55704 0.0
C1569 C 0.13033 0.78814 0.58318 0.0
C1570 C 0.14526 0.81061 0.5893 0.0
C1571 C 0.17323 0.81163 0.57948 0.0
C1572 C 0.13397 0.82981 0.61078 0.0
C1573 C 0.09958 0.78694 0.59182 0.0
C1574 C 0.12105 0.85562 0.60308 0.0
C1575 C 0.10548 0.87103 0.62337 0.0
C1576 C 0.1026 0.86045 0.65122 0.0
C1577 C 0.1175 0.8356 0.65924 0.0
C1578 C 0.13326 0.82051 0.63922 0.0
H1579 H 0.08908 0.77229 0.579 0.0
H1580 H 0.09873 0.78029 0.61457 0.0
H1581 H 0.08738 0.80715 0.58937 0.0
H1582 H 0.12145 0.86301 0.58116 0.0
H1583 H 0.09375 0.89002 0.61673 0.0
H1584 H 0.4692 0.84603 0.94487 0.0
H1585 H 0.51037 0.87278 0.94411 0.0
H1586 H 0.48057 0.91166 0.86492 0.0
H1587 H 0.43926 0.88549 0.86577 0.0
H1588 H 0.55331 0.87503 0.90042 0.0
H1589 H 0.49376 0.97528 0.91634 0.0
H1590 H 0.47858 0.9439 0.92424 0.0
H1591 H 0.48008 0.95665 0.88809 0.0
C1592 C 0.47121 0.8605 0.92748 0.0
C1593 C 0.45081 0.8636 0.9054 0.0
C1594 C 0.49487 0.87565 0.92698 0.0
C1595 C 0.49841 0.89443 0.90461 0.0
C1596 C 0.47811 0.89756 0.8826 0.0
H1597 H 0.61659 0.00711 0.84985 0.0
H1598 H 0.578 0.97805 0.85632 0.0
C1599 C 0.4546 0.88236 0.88298 0.0
C1600 C 0.52353 0.91046 0.9038 0.0
H1601 H 0.54213 0.97524 0.90169 0.0
C1602 C 0.55096 0.89693 0.90098 0.0
C1603 C 0.52042 0.93903 0.90453 0.0
C1604 C 0.49167 0.95462 0.90872 0.0
C1605 C 0.57522 0.91126 0.89776 0.0
C1606 C 0.57202 0.93989 0.89793 0.0
C1607 C 0.54463 0.95333 0.90141 0.0
C1608 C 0.59652 0.95646 0.89358 0.0
C1609 C 0.60387 0.89564 0.89311 0.0
C1610 C 0.61997 0.95402 0.91233 0.0
C1611 C 0.64228 0.97057 0.90857 0.0
C1612 C 0.64144 0.99009 0.88614 0.0
C1613 C 0.61802 0.9923 0.86733 0.0
C1614 C 0.59585 0.97572 0.87104 0.0
H1615 H 0.60167 0.87471 0.88636 0.0
H1616 H 0.61637 0.90594 0.87673 0.0
H1617 H 0.61615 0.8943 0.91334 0.0
H1618 H 0.62075 0.93972 0.93024 0.0
H1619 H 0.65988 0.96844 0.92357 0.0
H1620 H 0.89236 0.99156 0.31995 0.0
H1621 H 0.92982 0.02109 0.32909 0.0
H1622 H 0.87137 0.07152 0.38 0.0
H1623 H 0.83369 0.04237 0.37079 0.0
H1624 H 0.90788 0.10062 0.34468 0.0
H1625 H 0.9671 0.0181 0.40927 0.0
H1626 H 0.95878 0.00903 0.3737 0.0
H1627 H 0.9304 0.01709 0.39856 0.0
C1628 C 0.88726 0.00927 0.33256 0.0
C1629 C 0.86011 0.01446 0.34487 0.0
C1630 C 0.90876 0.02597 0.33797 0.0
C1631 C 0.90348 0.04808 0.35577 0.0
C1632 C 0.87591 0.0544 0.36643 0.0
H1633 H 0.04191 0.12387 0.43755 0.0
H1634 H 0.99672 0.10399 0.43005 0.0
C1635 C 0.8544 0.03772 0.36108 0.0
C1636 C 0.92708 0.06368 0.36454 0.0
H1637 H 0.99107 0.05729 0.39947 0.0
C1638 C 0.92602 0.09123 0.35677 0.0
C1639 C 0.95032 0.0515 0.38095 0.0
C1640 C 0.95171 0.02237 0.39139 0.0
C1641 C 0.94826 0.10668 0.36397 0.0
C1642 C 0.97224 0.09411 0.37904 0.0
C1643 C 0.97273 0.06684 0.38779 0.0
C1644 C 0.998 0.10823 0.38406 0.0
C1645 C 0.94594 0.13629 0.35533 0.0
C1646 C 0.01356 0.11716 0.36076 0.0
C1647 C 0.03919 0.12836 0.36499 0.0
C1648 C 0.04995 0.13075 0.39264 0.0
C1649 C 0.03403 0.1224 0.41606 0.0
C1650 C 0.00834 0.11099 0.41178 0.0
H1651 H 0.92333 0.14453 0.3521 0.0
H1652 H 0.95571 0.14831 0.37158 0.0
H1653 H 0.95737 0.13886 0.3349 0.0
H1654 H 0.00627 0.11481 0.33919 0.0
H1655 H 0.05072 0.13498 0.34652 0.0
loop_
_geom_bond_atom_site_label_1
_geom_bond_atom_site_label_2
_geom_bond_distance
_geom_bond_site_symmetry_2
_ccdc_geom_bond_type
Co0 N5 2.057 . S
Co0 O17 2.021 . S
Co0 O20 2.062 . S
Co0 O24 2.117 . S
Co0 O25 2.020 . S
C1 O21 1.259 . S
C1 O24 1.258 . S
Co2 N11 2.057 . S
Co2 O18 2.117 . S
Co2 O19 2.020 . S
Co2 O21 2.021 . S
Co2 O26 2.062 . S
C3 N5 1.316 . S
C3 N6 1.347 . S
C3 H8 0.931 . S
C4 N5 1.375 . S
C4 C7 1.350 . S
C4 H9 0.930 . S
N5 Co0 2.057 . S
N5 C3 1.316 . S
N5 C4 1.375 . S
N6 C3 1.347 . S
N6 C7 1.373 . S
C7 C4 1.350 . S
C7 N6 1.373 . S
C7 H28 0.931 . S
H8 C3 0.931 . S
H9 C4 0.930 . S
C10 O17 1.259 . S
C10 O18 1.258 . S
N11 Co2 2.057 . S
N11 C12 1.316 . S
N11 C13 1.375 . S
C12 N11 1.316 . S
C12 N14 1.347 . S
C12 H23 0.931 . S
C13 N11 1.375 . S
C13 C15 1.350 . S
C13 H22 0.930 . S
N14 C12 1.347 . S
N14 C15 1.373 . S
C15 C13 1.350 . S
C15 N14 1.373 . S
C15 H29 0.931 . S
C16 O19 1.256 . S
C16 O20 1.255 . S
O17 Co0 2.021 . S
O17 C10 1.259 . S
O18 Co2 2.117 . S
O18 C10 1.258 . S
O19 Co2 2.020 . S
O19 C16 1.256 . S
O20 Co0 2.062 . S
O20 C16 1.255 . S
O21 C1 1.259 . S
O21 Co2 2.021 . S
H22 C13 0.930 . S
H23 C12 0.931 . S
O24 Co0 2.117 . S
O24 C1 1.258 . S
O25 Co0 2.020 . S
O25 C27 1.256 . S
O26 Co2 2.062 . S
O26 C27 1.255 . S
C27 O25 1.256 . S
C27 O26 1.255 . S
H28 C7 0.931 . S
H29 C15 0.931 . S
Co30 N35 2.057 . S
Co30 O47 2.021 . S
Co30 O50 2.062 . S
Co30 O54 2.117 . S
Co30 O55 2.020 . S
C31 O51 1.259 . S
C31 O54 1.258 . S
Co32 N41 2.057 . S
Co32 O48 2.117 . S
Co32 O49 2.020 . S
Co32 O51 2.021 . S
Co32 O56 2.062 . S
C33 N35 1.316 . S
C33 N36 1.347 . S
C33 H38 0.931 . S
C34 N35 1.375 . S
C34 C37 1.350 1_455 S
C34 H39 0.930 1_455 S
N35 Co30 2.057 . S
N35 C33 1.316 . S
N35 C34 1.375 . S
N36 C33 1.347 . S
N36 C37 1.373 1_455 S
C37 C34 1.350 1_655 S
C37 N36 1.373 1_655 S
C37 H58 0.931 . S
H38 C33 0.931 . S
H39 C34 0.930 1_655 S
C40 O47 1.259 . S
C40 O48 1.258 . S
N41 Co32 2.057 . S
N41 C42 1.316 . S
N41 C43 1.375 . S
C42 N41 1.316 . S
C42 N44 1.347 . S
C42 H53 0.931 . S
C43 N41 1.375 . S
C43 C45 1.350 . S
C43 H52 0.930 . S
N44 C42 1.347 . S
N44 C45 1.373 . S
C45 C43 1.350 . S
C45 N44 1.373 . S
C45 H59 0.931 . S
C46 O49 1.256 . S
C46 O50 1.255 . S
O47 Co30 2.021 . S
O47 C40 1.259 . S
O48 Co32 2.117 . S
O48 C40 1.258 . S
O49 Co32 2.020 . S
O49 C46 1.256 . S
O50 Co30 2.062 . S
O50 C46 1.255 . S
O51 C31 1.259 . S
O51 Co32 2.021 . S
H52 C43 0.930 . S
H53 C42 0.931 . S
O54 Co30 2.117 . S
O54 C31 1.258 . S
O55 Co30 2.020 . S
O55 C57 1.256 . S
O56 Co32 2.062 . S
O56 C57 1.255 . S
C57 O55 1.256 . S
C57 O56 1.255 . S
H58 C37 0.931 . S
H59 C45 0.931 . S
Co60 N65 2.057 . S
Co60 O77 2.021 . S
Co60 O80 2.062 . S
Co60 O84 2.117 . S
Co60 O85 2.020 . S
C61 O81 1.259 . S
C61 O84 1.258 . S
Co62 N71 2.057 . S
Co62 O78 2.117 . S
Co62 O79 2.020 . S
Co62 O81 2.021 . S
Co62 O86 2.062 . S
C63 N65 1.316 . S
C63 N66 1.347 1_556 S
C63 H68 0.931 . S
C64 N65 1.375 1_554 S
C64 C67 1.350 . S
C64 H69 0.930 . S
N65 Co60 2.057 . S
N65 C63 1.316 . S
N65 C64 1.375 1_556 S
N66 C63 1.347 1_554 S
N66 C67 1.373 . S
C67 C64 1.350 . S
C67 N66 1.373 . S
C67 H88 0.931 . S
H68 C63 0.931 . S
H69 C64 0.930 . S
C70 O77 1.259 . S
C70 O78 1.258 . S
N71 Co62 2.057 . S
N71 C72 1.316 . S
N71 C73 1.375 . S
C72 N71 1.316 . S
C72 N74 1.347 . S
C72 H83 0.931 . S
C73 N71 1.375 . S
C73 C75 1.350 . S
C73 H82 0.930 . S
N74 C72 1.347 . S
N74 C75 1.373 . S
C75 C73 1.350 . S
C75 N74 1.373 . S
C75 H89 0.931 . S
C76 O79 1.256 . S
C76 O80 1.255 . S
O77 Co60 2.021 . S
O77 C70 1.259 . S
O78 Co62 2.117 . S
O78 C70 1.258 . S
O79 Co62 2.020 . S
O79 C76 1.256 . S
O80 Co60 2.062 . S
O80 C76 1.255 . S
O81 C61 1.259 . S
O81 Co62 2.021 . S
H82 C73 0.930 . S
H83 C72 0.931 . S
O84 Co60 2.117 . S
O84 C61 1.258 . S
O85 Co60 2.020 . S
O85 C87 1.256 . S
O86 Co62 2.062 . S
O86 C87 1.255 . S
C87 O85 1.256 . S
C87 O86 1.255 . S
H88 C67 0.931 . S
H89 C75 0.931 . S
Co90 N95 2.057 . S
Co90 O107 2.021 . S
Co90 O110 2.062 . S
Co90 O114 2.117 . S
Co90 O115 2.020 . S
C91 O111 1.259 . S
C91 O114 1.258 . S
Co92 N101 2.057 . S
Co92 O108 2.117 . S
Co92 O109 2.020 . S
Co92 O111 2.021 . S
Co92 O116 2.062 . S
C93 N95 1.316 . S
C93 N96 1.347 . S
C93 H98 0.931 . S
C94 N95 1.375 . S
C94 C97 1.350 . S
C94 H99 0.930 . S
N95 Co90 2.057 . S
N95 C93 1.316 . S
N95 C94 1.375 . S
N96 C93 1.347 . S
N96 C97 1.373 . S
C97 C94 1.350 . S
C97 N96 1.373 . S
C97 H118 0.931 . S
H98 C93 0.931 . S
H99 C94 0.930 . S
C100 O107 1.259 . S
C100 O108 1.258 . S
N101 Co92 2.057 . S
N101 C102 1.316 . S
N101 C103 1.375 . S
C102 N101 1.316 . S
C102 N104 1.347 . S
C102 H113 0.931 . S
C103 N101 1.375 . S
C103 C105 1.350 . S
C103 H112 0.930 . S
N104 C102 1.347 . S
N104 C105 1.373 . S
C105 C103 1.350 . S
C105 N104 1.373 . S
C105 H119 0.931 . S
C106 O109 1.256 . S
C106 O110 1.255 . S
O107 Co90 2.021 . S
O107 C100 1.259 . S
O108 Co92 2.117 . S
O108 C100 1.258 . S
O109 Co92 2.020 . S
O109 C106 1.256 . S
O110 Co90 2.062 . S
O110 C106 1.255 . S
O111 C91 1.259 . S
O111 Co92 2.021 . S
H112 C103 0.930 . S
H113 C102 0.931 . S
O114 Co90 2.117 . S
O114 C91 1.258 . S
O115 Co90 2.020 . S
O115 C117 1.256 . S
O116 Co92 2.062 . S
O116 C117 1.255 . S
C117 O115 1.256 . S
C117 O116 1.255 . S
H118 C97 0.931 . S
H119 C105 0.931 . S
Co120 N125 2.057 . S
Co120 O137 2.021 . S
Co120 O140 2.062 . S
Co120 O144 2.117 . S
Co120 O145 2.020 . S
C121 O141 1.259 . S
C121 O144 1.258 . S
Co122 N131 2.057 . S
Co122 O138 2.117 . S
Co122 O139 2.020 . S
Co122 O141 2.021 . S
Co122 O146 2.062 . S
C123 N125 1.316 . S
C123 N126 1.347 . S
C123 H128 0.931 . S
C124 N125 1.375 . S
C124 C127 1.350 . S
C124 H129 0.930 . S
N125 Co120 2.057 . S
N125 C123 1.316 . S
N125 C124 1.375 . S
N126 C123 1.347 . S
N126 C127 1.373 . S
C127 C124 1.350 . S
C127 N126 1.373 . S
C127 H148 0.931 . S
H128 C123 0.931 . S
H129 C124 0.930 . S
C130 O137 1.259 . S
C130 O138 1.258 . S
N131 Co122 2.057 . S
N131 C132 1.316 . S
N131 C133 1.375 . S
C132 N131 1.316 . S
C132 N134 1.347 . S
C132 H143 0.931 . S
C133 N131 1.375 . S
C133 C135 1.350 . S
C133 H142 0.930 . S
N134 C132 1.347 . S
N134 C135 1.373 . S
C135 C133 1.350 . S
C135 N134 1.373 . S
C135 H149 0.931 . S
C136 O139 1.256 . S
C136 O140 1.255 . S
O137 Co120 2.021 . S
O137 C130 1.259 . S
O138 Co122 2.117 . S
O138 C130 1.258 . S
O139 Co122 2.020 . S
O139 C136 1.256 . S
O140 Co120 2.062 . S
O140 C136 1.255 . S
O141 C121 1.259 . S
O141 Co122 2.021 . S
H142 C133 0.930 . S
H143 C132 0.931 . S
O144 Co120 2.117 . S
O144 C121 1.258 . S
O145 Co120 2.020 . S
O145 C147 1.256 . S
O146 Co122 2.062 . S
O146 C147 1.255 . S
C147 O145 1.256 . S
C147 O146 1.255 . S
H148 C127 0.931 . S
H149 C135 0.931 . S
Co150 N155 2.057 . S
Co150 O167 2.021 . S
Co150 O170 2.062 . S
Co150 O174 2.117 . S
Co150 O175 2.020 . S
C151 O171 1.259 . S
C151 O174 1.258 . S
Co152 N161 2.057 . S
Co152 O168 2.117 . S
Co152 O169 2.020 . S
Co152 O171 2.021 . S
Co152 O176 2.062 . S
C153 N155 1.316 . S
C153 N156 1.320 1_655 S
C153 H158 0.931 . S
C154 N155 1.375 . S
C154 C157 1.350 1_655 S
C154 H159 0.930 . S
N155 Co150 2.057 . S
N155 C153 1.316 . S
N155 C154 1.375 . S
N156 C153 1.320 1_455 S
N156 C157 1.380 . S
C157 C154 1.350 1_455 S
C157 N156 1.380 . S
C157 H178 0.931 . S
H158 C153 0.931 . S
H159 C154 0.930 . S
C160 O167 1.259 . S
C160 O168 1.258 . S
N161 Co152 2.057 . S
N161 C162 1.316 . S
N161 C163 1.375 . S
C162 N161 1.316 . S
C162 N164 1.347 . S
C162 H173 0.931 . S
C163 N161 1.375 . S
C163 C165 1.350 . S
C163 H172 0.930 . S
N164 C162 1.347 . S
N164 C165 1.373 . S
C165 C163 1.350 . S
C165 N164 1.373 . S
C165 H179 0.931 . S
C166 O169 1.256 . S
C166 O170 1.255 . S
O167 Co150 2.021 . S
O167 C160 1.259 . S
O168 Co152 2.117 . S
O168 C160 1.258 . S
O169 Co152 2.020 . S
O169 C166 1.256 . S
O170 Co150 2.062 . S
O170 C166 1.255 . S
O171 C151 1.259 . S
O171 Co152 2.021 . S
H172 C163 0.930 . S
H173 C162 0.931 . S
O174 Co150 2.117 . S
O174 C151 1.258 . S
O175 Co150 2.020 . S
O175 C177 1.256 . S
O176 Co152 2.062 . S
O176 C177 1.255 . S
C177 O175 1.256 . S
C177 O176 1.255 . S
H178 C157 0.931 . S
H179 C165 0.931 . S
Co180 N185 2.057 1_554 S
Co180 O197 2.021 . S
Co180 O200 2.041 1_554 S
Co180 O204 2.117 . S
Co180 O205 2.020 . S
C181 O201 1.259 . S
C181 O204 1.258 . S
Co182 N191 2.057 . S
Co182 O198 2.117 . S
Co182 O199 2.020 . S
Co182 O201 2.021 . S
Co182 O206 2.062 . S
C183 N185 1.316 . S
C183 N186 1.347 . S
C183 H188 0.931 . S
C184 N185 1.375 . S
C184 C187 1.350 . S
C184 H189 0.930 . S
N185 Co180 2.057 1_556 S
N185 C183 1.316 . S
N185 C184 1.375 . S
N186 C183 1.347 . S
N186 C187 1.373 . S
C187 C184 1.350 . S
C187 N186 1.373 . S
C187 H208 0.931 . S
H188 C183 0.931 . S
H189 C184 0.930 . S
C190 O197 1.259 . S
C190 O198 1.258 . S
N191 Co182 2.057 . S
N191 C192 1.316 . S
N191 C193 1.375 . S
C192 N191 1.316 . S
C192 N194 1.347 . S
C192 H203 0.931 . S
C193 N191 1.375 . S
C193 C195 1.350 . S
C193 H202 0.930 . S
N194 C192 1.347 . S
N194 C195 1.373 . S
C195 C193 1.350 . S
C195 N194 1.373 . S
C195 H209 0.931 . S
C196 O199 1.284 . S
C196 O200 1.254 1_554 S
O197 Co180 2.021 . S
O197 C190 1.259 . S
O198 Co182 2.117 . S
O198 C190 1.258 . S
O199 Co182 2.020 . S
O199 C196 1.284 . S
O200 Co180 2.041 1_556 S
O200 C196 1.254 1_556 S
O201 C181 1.259 . S
O201 Co182 2.021 . S
H202 C193 0.930 . S
H203 C192 0.931 . S
O204 Co180 2.117 . S
O204 C181 1.258 . S
O205 Co180 2.020 . S
O205 C207 1.256 . S
O206 Co182 2.062 . S
O206 C207 1.255 . S
C207 O205 1.256 . S
C207 O206 1.255 . S
H208 C187 0.931 . S
H209 C195 0.931 . S
Co210 N215 2.057 . S
Co210 O227 2.021 . S
Co210 O230 2.062 . S
Co210 O234 2.117 . S
Co210 O235 2.020 . S
C211 O231 1.259 . S
C211 O234 1.258 . S
Co212 N221 2.057 . S
Co212 O228 2.117 . S
Co212 O229 2.020 . S
Co212 O231 2.021 . S
Co212 O236 2.062 . S
C213 N215 1.316 . S
C213 N216 1.347 . S
C213 H218 0.931 . S
C214 N215 1.375 . S
C214 C217 1.350 . S
C214 H219 0.930 . S
N215 Co210 2.057 . S
N215 C213 1.316 . S
N215 C214 1.375 . S
N216 C213 1.347 . S
N216 C217 1.373 . S
C217 C214 1.350 . S
C217 N216 1.373 . S
C217 H238 0.931 . S
H218 C213 0.931 . S
H219 C214 0.930 . S
C220 O227 1.259 . S
C220 O228 1.258 . S
N221 Co212 2.057 . S
N221 C222 1.316 . S
N221 C223 1.375 . S
C222 N221 1.316 . S
C222 N224 1.347 . S
C222 H233 0.931 . S
C223 N221 1.375 . S
C223 C225 1.350 . S
C223 H232 0.930 . S
N224 C222 1.347 . S
N224 C225 1.373 . S
C225 C223 1.350 . S
C225 N224 1.373 . S
C225 H239 0.931 . S
C226 O229 1.256 . S
C226 O230 1.255 . S
O227 Co210 2.021 . S
O227 C220 1.259 . S
O228 Co212 2.117 . S
O228 C220 1.258 . S
O229 Co212 2.020 . S
O229 C226 1.256 . S
O230 Co210 2.062 . S
O230 C226 1.255 . S
O231 C211 1.259 . S
O231 Co212 2.021 . S
H232 C223 0.930 . S
H233 C222 0.931 . S
O234 Co210 2.117 . S
O234 C211 1.258 . S
O235 Co210 2.020 . S
O235 C237 1.256 . S
O236 Co212 2.062 . S
O236 C237 1.255 . S
C237 O235 1.256 . S
C237 O236 1.255 . S
H238 C217 0.931 . S
H239 C225 0.931 . S
Co240 N245 2.057 . S
Co240 O257 2.021 . S
Co240 O260 2.062 . S
Co240 O264 2.117 . S
Co240 O265 2.020 . S
C241 O261 1.259 . S
C241 O264 1.258 . S
Co242 N251 2.057 . S
Co242 O258 2.117 . S
Co242 O259 2.020 . S
Co242 O261 2.021 . S
Co242 O266 2.062 . S
C243 N245 1.316 . S
C243 N246 1.347 . S
C243 H248 0.931 . S
C244 N245 1.375 . S
C244 C247 1.350 . S
C244 H249 0.930 . S
N245 Co240 2.057 . S
N245 C243 1.316 . S
N245 C244 1.375 . S
N246 C243 1.347 . S
N246 C247 1.373 . S
C247 C244 1.350 . S
C247 N246 1.373 . S
C247 H268 0.931 . S
H248 C243 0.931 . S
H249 C244 0.930 . S
C250 O257 1.259 . S
C250 O258 1.258 . S
N251 Co242 2.057 . S
N251 C252 1.316 . S
N251 C253 1.375 . S
C252 N251 1.316 . S
C252 N254 1.347 . S
C252 H263 0.931 . S
C253 N251 1.375 . S
C253 C255 1.350 . S
C253 H262 0.930 . S
N254 C252 1.347 . S
N254 C255 1.373 . S
C255 C253 1.350 . S
C255 N254 1.373 . S
C255 H269 0.931 . S
C256 O259 1.256 . S
C256 O260 1.255 . S
O257 Co240 2.021 . S
O257 C250 1.259 . S
O258 Co242 2.117 . S
O258 C250 1.258 . S
O259 Co242 2.020 . S
O259 C256 1.256 . S
O260 Co240 2.062 . S
O260 C256 1.255 . S
O261 C241 1.259 . S
O261 Co242 2.021 . S
H262 C253 0.930 . S
H263 C252 0.931 . S
O264 Co240 2.117 . S
O264 C241 1.258 . S
O265 Co240 2.020 . S
O265 C267 1.256 . S
O266 Co242 2.062 . S
O266 C267 1.255 . S
C267 O265 1.256 . S
C267 O266 1.255 . S
H268 C247 0.931 . S
H269 C255 0.931 . S
Co270 N275 2.057 1_545 S
Co270 O287 2.021 . S
Co270 O290 2.062 . S
Co270 O294 2.117 . S
Co270 O295 2.020 . S
C271 O291 1.259 . S
C271 O294 1.258 . S
Co272 N281 2.057 . S
Co272 O288 2.117 . S
Co272 O289 2.020 . S
Co272 O291 2.021 . S
Co272 O296 2.062 . S
C273 N275 1.316 . S
C273 N276 1.347 . S
C273 H278 0.931 . S
C274 N275 1.375 . S
C274 C277 1.350 . S
C274 H279 0.930 . S
N275 Co270 2.057 1_565 S
N275 C273 1.316 . S
N275 C274 1.375 . S
N276 C273 1.347 . S
N276 C277 1.373 . S
C277 C274 1.350 . S
C277 N276 1.373 . S
C277 H298 0.931 . S
H278 C273 0.931 . S
H279 C274 0.930 . S
C280 O287 1.259 . S
C280 O288 1.258 . S
N281 Co272 2.057 . S
N281 C282 1.316 . S
N281 C283 1.375 . S
C282 N281 1.316 . S
C282 N284 1.347 . S
C282 H293 0.931 . S
C283 N281 1.375 . S
C283 C285 1.350 . S
C283 H292 0.930 . S
N284 C282 1.347 . S
N284 C285 1.373 . S
C285 C283 1.350 . S
C285 N284 1.373 . S
C285 H299 0.931 . S
C286 O289 1.256 . S
C286 O290 1.255 . S
O287 Co270 2.021 . S
O287 C280 1.259 . S
O288 Co272 2.117 . S
O288 C280 1.258 . S
O289 Co272 2.020 . S
O289 C286 1.256 . S
O290 Co270 2.062 . S
O290 C286 1.255 . S
O291 C271 1.259 . S
O291 Co272 2.021 . S
H292 C283 0.930 . S
H293 C282 0.931 . S
O294 Co270 2.117 . S
O294 C271 1.258 . S
O295 Co270 2.020 . S
O295 C297 1.256 . S
O296 Co272 2.062 . S
O296 C297 1.255 . S
C297 O295 1.256 . S
C297 O296 1.255 . S
H298 C277 0.931 . S
H299 C285 0.931 . S
Co300 N305 2.057 . S
Co300 O317 2.021 . S
Co300 O320 2.062 . S
Co300 O324 2.117 . S
Co300 O325 2.020 . S
C301 O321 1.259 . S
C301 O324 1.258 . S
Co302 N311 2.057 . S
Co302 O318 2.117 . S
Co302 O319 2.020 . S
Co302 O321 2.021 . S
Co302 O326 2.062 . S
C303 N305 1.316 . S
C303 N306 1.347 1_565 S
C303 H308 0.931 . S
C304 N305 1.375 1_545 S
C304 C307 1.350 . S
C304 H309 0.934 . S
N305 Co300 2.057 . S
N305 C303 1.316 . S
N305 C304 1.375 1_565 S
N306 C303 1.347 1_545 S
N306 C307 1.373 . S
C307 C304 1.350 . S
C307 N306 1.373 . S
C307 H328 0.931 . S
H308 C303 0.931 . S
H309 C304 0.934 . S
C310 O317 1.259 . S
C310 O318 1.258 . S
N311 Co302 2.057 . S
N311 C312 1.316 . S
N311 C313 1.375 . S
C312 N311 1.316 . S
C312 N314 1.347 . S
C312 H323 0.931 . S
C313 N311 1.375 . S
C313 C315 1.350 . S
C313 H322 0.930 . S
N314 C312 1.347 . S
N314 C315 1.373 . S
C315 C313 1.350 . S
C315 N314 1.373 . S
C315 H329 0.931 . S
C316 O319 1.256 . S
C316 O320 1.255 . S
O317 Co300 2.021 . S
O317 C310 1.259 . S
O318 Co302 2.117 . S
O318 C310 1.258 . S
O319 Co302 2.020 . S
O319 C316 1.256 . S
O320 Co300 2.062 . S
O320 C316 1.255 . S
O321 C301 1.259 . S
O321 Co302 2.021 . S
H322 C313 0.930 . S
H323 C312 0.931 . S
O324 Co300 2.117 . S
O324 C301 1.258 . S
O325 Co300 2.020 . S
O325 C327 1.256 . S
O326 Co302 2.062 . S
O326 C327 1.255 . S
C327 O325 1.256 . S
C327 O326 1.255 . S
H328 C307 0.931 . S
H329 C315 0.931 . S
Co330 N335 2.057 . S
Co330 O347 2.021 . S
Co330 O350 2.062 . S
Co330 O354 2.117 . S
Co330 O355 2.020 . S
C331 O351 1.259 . S
C331 O354 1.258 . S
Co332 N341 2.057 . S
Co332 O348 2.117 . S
Co332 O349 2.020 . S
Co332 O351 2.021 . S
Co332 O356 2.062 . S
C333 N335 1.316 . S
C333 N336 1.347 . S
C333 H338 0.931 . S
C334 N335 1.375 . S
C334 C337 1.350 . S
C334 H339 0.930 . S
N335 Co330 2.057 . S
N335 C333 1.316 . S
N335 C334 1.375 . S
N336 C333 1.347 . S
N336 C337 1.373 . S
C337 C334 1.350 . S
C337 N336 1.373 . S
C337 H358 0.931 . S
H338 C333 0.931 . S
H339 C334 0.930 . S
C340 O347 1.259 . S
C340 O348 1.258 . S
N341 Co332 2.057 . S
N341 C342 1.316 . S
N341 C343 1.375 . S
C342 N341 1.316 . S
C342 N344 1.347 . S
C342 H353 0.931 . S
C343 N341 1.375 . S
C343 C345 1.350 . S
C343 H352 0.930 . S
N344 C342 1.347 . S
N344 C345 1.373 . S
C345 C343 1.350 . S
C345 N344 1.373 . S
C345 H359 0.931 . S
C346 O349 1.256 . S
C346 O350 1.255 . S
O347 Co330 2.021 . S
O347 C340 1.259 . S
O348 Co332 2.117 . S
O348 C340 1.258 . S
O349 Co332 2.020 . S
O349 C346 1.256 . S
O350 Co330 2.062 . S
O350 C346 1.255 . S
O351 C331 1.259 . S
O351 Co332 2.021 . S
H352 C343 0.930 . S
H353 C342 0.931 . S
O354 Co330 2.117 . S
O354 C331 1.258 . S
O355 Co330 2.020 . S
O355 C357 1.256 . S
O356 Co332 2.062 . S
O356 C357 1.255 . S
C357 O355 1.256 . S
C357 O356 1.255 . S
H358 C337 0.931 . S
H359 C345 0.931 . S
H360 C368 0.929 . S
H361 C370 0.930 . S
H362 C372 0.930 . S
H363 C375 0.929 . S
H364 C378 0.930 . S
H365 C380 0.960 . S
H366 C380 0.960 . S
H367 C380 0.960 . S
C368 H360 0.929 . S
C368 C369 1.377 . S
C368 C370 1.384 . S
C369 C368 1.377 . S
C369 C375 1.390 . S
C370 H361 0.930 . S
C370 C368 1.384 . S
C370 C371 1.372 . S
C371 C370 1.372 . S
C371 C372 1.400 . S
C371 C376 1.490 . S
C372 H362 0.930 . S
C372 C371 1.400 . S
C372 C375 1.386 . S
H373 C389 0.930 . S
H374 C390 0.931 . S
C375 H363 0.929 . S
C375 C369 1.390 . S
C375 C372 1.386 . S
C376 C371 1.490 . S
C376 C378 1.395 . S
C376 C379 1.403 . S
H377 C383 0.930 . S
C378 H364 0.930 . S
C378 C376 1.395 . S
C378 C381 1.403 . S
C379 C376 1.403 . S
C379 C380 1.524 . S
C379 C383 1.400 . S
C380 H365 0.960 . S
C380 H366 0.960 . S
C380 H367 0.960 . S
C380 C379 1.524 . S
C381 C378 1.403 . S
C381 C382 1.392 . S
C381 C385 1.495 . S
C382 C381 1.392 . S
C382 C383 1.385 . S
C382 C384 1.478 . S
C383 H377 0.930 . S
C383 C379 1.400 . S
C383 C382 1.385 . S
C384 C382 1.478 . S
C384 C386 1.381 . S
C384 C390 1.383 . S
C385 C381 1.495 . S
C385 H391 0.959 . S
C385 H392 0.961 . S
C385 H393 0.960 . S
C386 C384 1.381 . S
C386 C387 1.394 . S
C386 H394 0.930 . S
C387 C386 1.394 . S
C387 C388 1.383 . S
C387 H395 0.929 . S
C388 C387 1.383 . S
C388 C389 1.377 . S
C389 H373 0.930 . S
C389 C388 1.377 . S
C389 C390 1.379 . S
C390 H374 0.931 . S
C390 C384 1.383 . S
C390 C389 1.379 . S
H391 C385 0.959 . S
H392 C385 0.961 . S
H393 C385 0.960 . S
H394 C386 0.930 . S
H395 C387 0.929 . S
H396 C404 0.929 . S
H397 C406 0.930 . S
H398 C408 0.930 . S
H399 C411 0.929 . S
H400 C414 0.930 . S
H401 C416 0.960 . S
H402 C416 0.960 1_545 S
H403 C416 0.960 . S
C404 H396 0.929 . S
C404 C405 1.377 . S
C404 C406 1.384 . S
C405 C404 1.377 . S
C405 C411 1.390 1_545 S
C406 H397 0.930 . S
C406 C404 1.384 . S
C406 C407 1.372 1_545 S
C407 C406 1.372 1_565 S
C407 C408 1.400 . S
C407 C412 1.490 . S
C408 H398 0.930 . S
C408 C407 1.400 . S
C408 C411 1.386 . S
H409 C425 0.930 . S
H410 C426 0.931 . S
C411 H399 0.929 . S
C411 C405 1.390 1_565 S
C411 C408 1.386 . S
C412 C407 1.490 . S
C412 C414 1.395 . S
C412 C415 1.403 . S
H413 C419 0.930 . S
C414 H400 0.930 . S
C414 C412 1.395 . S
C414 C417 1.403 . S
C415 C412 1.403 . S
C415 C416 1.524 . S
C415 C419 1.400 . S
C416 H401 0.960 . S
C416 H402 0.960 1_565 S
C416 H403 0.960 . S
C416 C415 1.524 . S
C417 C414 1.403 . S
C417 C418 1.392 . S
C417 C421 1.495 . S
C418 C417 1.392 . S
C418 C419 1.385 . S
C418 C420 1.478 . S
C419 H413 0.930 . S
C419 C415 1.400 . S
C419 C418 1.385 . S
C420 C418 1.478 . S
C420 C422 1.381 . S
C420 C426 1.383 . S
C421 C417 1.495 . S
C421 H427 0.959 . S
C421 H428 0.961 . S
C421 H429 0.960 . S
C422 C420 1.381 . S
C422 C423 1.394 . S
C422 H430 0.930 . S
C423 C422 1.394 . S
C423 C424 1.383 . S
C423 H431 0.929 1_655 S
C424 C423 1.383 . S
C424 C425 1.377 . S
C425 H409 0.930 . S
C425 C424 1.377 . S
C425 C426 1.379 . S
C426 H410 0.931 . S
C426 C420 1.383 . S
C426 C425 1.379 . S
H427 C421 0.959 . S
H428 C421 0.961 . S
H429 C421 0.960 . S
H430 C422 0.930 . S
H431 C423 0.929 1_455 S
H432 C440 0.929 . S
H433 C442 0.930 . S
H434 C444 0.930 . S
H435 C447 0.929 . S
H436 C450 0.930 . S
H437 C452 0.960 . S
H438 C452 0.960 . S
H439 C452 0.960 . S
C440 H432 0.929 . S
C440 C441 1.377 . S
C440 C442 1.384 . S
C441 C440 1.377 . S
C441 C447 1.390 1_554 S
C442 H433 0.930 . S
C442 C440 1.384 . S
C442 C443 1.372 . S
C443 C442 1.372 . S
C443 C444 1.400 1_554 S
C443 C448 1.490 . S
C444 H434 0.930 . S
C444 C443 1.400 1_556 S
C444 C447 1.386 . S
H445 C461 0.930 . S
H446 C462 0.931 . S
C447 H435 0.929 . S
C447 C441 1.390 1_556 S
C447 C444 1.386 . S
C448 C443 1.490 . S
C448 C450 1.395 . S
C448 C451 1.403 . S
H449 C455 0.930 . S
C450 H436 0.930 . S
C450 C448 1.395 . S
C450 C453 1.403 . S
C451 C448 1.403 . S
C451 C452 1.524 . S
C451 C455 1.400 . S
C452 H437 0.960 . S
C452 H438 0.960 . S
C452 H439 0.960 . S
C452 C451 1.524 . S
C453 C450 1.403 . S
C453 C454 1.392 . S
C453 C457 1.495 . S
C454 C453 1.392 . S
C454 C455 1.385 . S
C454 C456 1.478 . S
C455 H449 0.930 . S
C455 C451 1.400 . S
C455 C454 1.385 . S
C456 C454 1.478 . S
C456 C458 1.381 . S
C456 C462 1.383 . S
C457 C453 1.495 . S
C457 H463 0.959 . S
C457 H464 0.961 . S
C457 H465 0.960 . S
C458 C456 1.381 . S
C458 C459 1.394 . S
C458 H466 0.930 . S
C459 C458 1.394 . S
C459 C460 1.383 . S
C459 H467 0.929 . S
C460 C459 1.383 . S
C460 C461 1.377 . S
C461 H445 0.930 . S
C461 C460 1.377 . S
C461 C462 1.379 . S
C462 H446 0.931 . S
C462 C456 1.383 . S
C462 C461 1.379 . S
H463 C457 0.959 . S
H464 C457 0.961 . S
H465 C457 0.960 . S
H466 C458 0.930 . S
H467 C459 0.929 . S
H468 C476 0.929 . S
H469 C478 0.930 . S
H470 C480 0.930 . S
H471 C483 0.929 . S
H472 C486 0.930 . S
H473 C488 0.960 . S
H474 C488 0.960 . S
H475 C488 0.960 . S
C476 H468 0.929 . S
C476 C477 1.377 . S
C476 C478 1.384 . S
C477 C476 1.377 . S
C477 C483 1.390 . S
C478 H469 0.930 . S
C478 C476 1.384 . S
C478 C479 1.372 . S
C479 C478 1.372 . S
C479 C480 1.400 . S
C479 C484 1.490 . S
C480 H470 0.930 . S
C480 C479 1.400 . S
C480 C483 1.386 . S
H481 C497 0.919 1_545 S
H482 C498 0.931 . S
C483 H471 0.929 . S
C483 C477 1.390 . S
C483 C480 1.386 . S
C484 C479 1.490 . S
C484 C486 1.395 . S
C484 C487 1.403 . S
H485 C491 0.930 . S
C486 H472 0.930 . S
C486 C484 1.395 . S
C486 C489 1.403 1_545 S
C487 C484 1.403 . S
C487 C488 1.524 . S
C487 C491 1.400 . S
C488 H473 0.960 . S
C488 H474 0.960 . S
C488 H475 0.960 . S
C488 C487 1.524 . S
C489 C486 1.403 1_565 S
C489 C490 1.392 1_565 S
C489 C493 1.495 . S
C490 C489 1.392 1_545 S
C490 C491 1.385 . S
C490 C492 1.478 1_545 S
C491 H485 0.930 . S
C491 C487 1.400 . S
C491 C490 1.385 . S
C492 C490 1.478 1_565 S
C492 C494 1.381 . S
C492 C498 1.383 1_565 S
C493 C489 1.495 . S
C493 H499 0.959 . S
C493 H500 0.961 . S
C493 H501 0.960 . S
C494 C492 1.381 . S
C494 C495 1.394 . S
C494 H502 0.930 . S
C495 C494 1.394 . S
C495 C496 1.383 . S
C495 H503 0.929 . S
C496 C495 1.383 . S
C496 C497 1.393 . S
C497 H481 0.919 1_565 S
C497 C496 1.393 . S
C497 C498 1.374 1_565 S
C498 H482 0.931 . S
C498 C492 1.383 1_545 S
C498 C497 1.374 1_545 S
H499 C493 0.959 . S
H500 C493 0.961 . S
H501 C493 0.960 . S
H502 C494 0.930 . S
H503 C495 0.929 . S
H504 C512 0.929 . S
H505 C514 0.930 . S
H506 C516 0.930 . S
H507 C519 0.929 . S
H508 C522 0.930 . S
H509 C524 0.960 . S
H510 C524 0.960 . S
H511 C524 0.960 . S
C512 H504 0.929 . S
C512 C513 1.377 . S
C512 C514 1.384 . S
C513 C512 1.377 . S
C513 C519 1.390 . S
C514 H505 0.930 . S
C514 C512 1.384 . S
C514 C515 1.372 . S
C515 C514 1.372 . S
C515 C516 1.400 . S
C515 C520 1.490 . S
C516 H506 0.930 . S
C516 C515 1.400 . S
C516 C519 1.386 . S
H517 C533 0.930 . S
H518 C534 0.931 . S
C519 H507 0.929 . S
C519 C513 1.390 . S
C519 C516 1.386 . S
C520 C515 1.490 . S
C520 C522 1.395 . S
C520 C523 1.403 . S
H521 C527 0.930 . S
C522 H508 0.930 . S
C522 C520 1.395 . S
C522 C525 1.403 . S
C523 C520 1.403 . S
C523 C524 1.524 . S
C523 C527 1.400 . S
C524 H509 0.960 . S
C524 H510 0.960 . S
C524 H511 0.960 . S
C524 C523 1.524 . S
C525 C522 1.403 . S
C525 C526 1.392 . S
C525 C529 1.495 . S
C526 C525 1.392 . S
C526 C527 1.385 . S
C526 C528 1.478 . S
C527 H521 0.930 . S
C527 C523 1.400 . S
C527 C526 1.385 . S
C528 C526 1.478 . S
C528 C530 1.381 . S
C528 C534 1.383 . S
C529 C525 1.495 . S
C529 H535 0.959 . S
C529 H536 0.961 . S
C529 H537 0.960 . S
C530 C528 1.381 . S
C530 C531 1.394 . S
C530 H538 0.930 . S
C531 C530 1.394 . S
C531 C532 1.383 . S
C531 H539 0.929 . S
C532 C531 1.383 . S
C532 C533 1.377 . S
C533 H517 0.930 . S
C533 C532 1.377 . S
C533 C534 1.379 . S
C534 H518 0.931 . S
C534 C528 1.383 . S
C534 C533 1.379 . S
H535 C529 0.959 . S
H536 C529 0.961 . S
H537 C529 0.960 . S
H538 C530 0.930 . S
H539 C531 0.929 . S
H540 C548 0.929 . S
H541 C550 0.930 . S
H542 C552 0.930 . S
H543 C555 0.929 . S
H544 C558 0.930 . S
H545 C560 0.960 . S
H546 C560 0.960 . S
H547 C560 0.960 . S
C548 H540 0.929 . S
C548 C549 1.377 . S
C548 C550 1.384 . S
C549 C548 1.377 . S
C549 C555 1.390 . S
C550 H541 0.930 . S
C550 C548 1.384 . S
C550 C551 1.372 . S
C551 C550 1.372 . S
C551 C552 1.400 . S
C551 C556 1.490 . S
C552 H542 0.930 . S
C552 C551 1.400 . S
C552 C555 1.386 . S
H553 C569 0.930 . S
H554 C570 0.931 . S
C555 H543 0.929 . S
C555 C549 1.390 . S
C555 C552 1.386 . S
C556 C551 1.490 . S
C556 C558 1.395 . S
C556 C559 1.403 . S
H557 C563 0.930 . S
C558 H544 0.930 . S
C558 C556 1.395 . S
C558 C561 1.403 . S
C559 C556 1.403 . S
C559 C560 1.524 . S
C559 C563 1.400 . S
C560 H545 0.960 . S
C560 H546 0.960 . S
C560 H547 0.960 . S
C560 C559 1.524 . S
C561 C558 1.403 . S
C561 C562 1.392 . S
C561 C565 1.495 . S
C562 C561 1.392 . S
C562 C563 1.385 . S
C562 C564 1.478 . S
C563 H557 0.930 . S
C563 C559 1.400 . S
C563 C562 1.385 . S
C564 C562 1.478 . S
C564 C566 1.381 . S
C564 C570 1.383 . S
C565 C561 1.495 . S
C565 H571 0.959 . S
C565 H572 0.961 . S
C565 H573 0.960 . S
C566 C564 1.381 . S
C566 C567 1.394 . S
C566 H574 0.930 . S
C567 C566 1.394 . S
C567 C568 1.383 . S
C567 H575 0.929 . S
C568 C567 1.383 . S
C568 C569 1.377 . S
C569 H553 0.930 . S
C569 C568 1.377 . S
C569 C570 1.379 . S
C570 H554 0.931 . S
C570 C564 1.383 . S
C570 C569 1.379 . S
H571 C565 0.959 . S
H572 C565 0.961 . S
H573 C565 0.960 . S
H574 C566 0.930 . S
H575 C567 0.929 . S
H576 C584 0.929 . S
H577 C586 0.930 . S
H578 C588 0.930 . S
H579 C591 0.929 . S
H580 C594 0.930 . S
H581 C596 0.960 . S
H582 C596 0.960 . S
H583 C596 0.960 . S
C584 H576 0.929 . S
C584 C585 1.377 . S
C584 C586 1.384 . S
C585 C584 1.377 . S
C585 C591 1.390 . S
C586 H577 0.930 . S
C586 C584 1.384 . S
C586 C587 1.372 . S
C587 C586 1.372 . S
C587 C588 1.400 . S
C587 C592 1.490 . S
C588 H578 0.930 . S
C588 C587 1.400 . S
C588 C591 1.386 . S
H589 C605 0.930 . S
H590 C606 0.931 . S
C591 H579 0.929 . S
C591 C585 1.390 . S
C591 C588 1.386 . S
C592 C587 1.490 . S
C592 C594 1.395 1_556 S
C592 C595 1.403 . S
H593 C599 0.930 . S
C594 H580 0.930 . S
C594 C592 1.395 1_554 S
C594 C597 1.403 . S
C595 C592 1.403 . S
C595 C596 1.524 . S
C595 C599 1.400 . S
C596 H581 0.960 . S
C596 H582 0.960 . S
C596 H583 0.960 . S
C596 C595 1.524 . S
C597 C594 1.403 . S
C597 C598 1.392 1_554 S
C597 C601 1.495 . S
C598 C597 1.392 1_556 S
C598 C599 1.385 . S
C598 C600 1.478 1_556 S
C599 H593 0.930 . S
C599 C595 1.400 . S
C599 C598 1.385 . S
C600 C598 1.478 1_554 S
C600 C602 1.381 . S
C600 C606 1.383 . S
C601 C597 1.495 . S
C601 H607 0.959 . S
C601 H608 0.961 . S
C601 H609 0.960 . S
C602 C600 1.381 . S
C602 C603 1.394 . S
C602 H610 0.930 . S
C603 C602 1.394 . S
C603 C604 1.383 . S
C603 H611 0.929 . S
C604 C603 1.383 . S
C604 C605 1.377 . S
C605 H589 0.930 . S
C605 C604 1.377 . S
C605 C606 1.379 . S
C606 H590 0.931 . S
C606 C600 1.383 . S
C606 C605 1.379 . S
H607 C601 0.959 . S
H608 C601 0.961 . S
H609 C601 0.960 . S
H610 C602 0.930 . S
H611 C603 0.929 . S
H612 C620 0.929 . S
H613 C622 0.930 . S
H614 C624 0.930 . S
H615 C627 0.929 . S
H616 C630 0.930 . S
H617 C632 0.960 . S
H618 C632 0.960 . S
H619 C632 0.960 . S
C620 H612 0.929 . S
C620 C621 1.377 . S
C620 C622 1.384 . S
C621 C620 1.377 . S
C621 C627 1.390 . S
C622 H613 0.930 . S
C622 C620 1.384 . S
C622 C623 1.372 . S
C623 C622 1.372 . S
C623 C624 1.400 . S
C623 C628 1.490 . S
C624 H614 0.930 . S
C624 C623 1.400 . S
C624 C627 1.386 . S
H625 C641 0.930 . S
H626 C642 0.931 . S
C627 H615 0.929 . S
C627 C621 1.390 . S
C627 C624 1.386 . S
C628 C623 1.490 . S
C628 C630 1.395 . S
C628 C631 1.403 . S
H629 C635 0.930 . S
C630 H616 0.930 . S
C630 C628 1.395 . S
C630 C633 1.403 . S
C631 C628 1.403 . S
C631 C632 1.524 . S
C631 C635 1.400 . S
C632 H617 0.960 . S
C632 H618 0.960 . S
C632 H619 0.960 . S
C632 C631 1.524 . S
C633 C630 1.403 . S
C633 C634 1.392 . S
C633 C637 1.495 . S
C634 C633 1.392 . S
C634 C635 1.385 . S
C634 C636 1.478 . S
C635 H629 0.930 . S
C635 C631 1.400 . S
C635 C634 1.385 . S
C636 C634 1.478 . S
C636 C638 1.381 . S
C636 C642 1.383 . S
C637 C633 1.495 . S
C637 H643 0.959 . S
C637 H644 0.961 . S
C637 H645 0.960 . S
C638 C636 1.381 . S
C638 C639 1.394 . S
C638 H646 0.930 . S
C639 C638 1.394 . S
C639 C640 1.383 . S
C639 H647 0.929 . S
C640 C639 1.383 . S
C640 C641 1.377 . S
C641 H625 0.930 . S
C641 C640 1.377 . S
C641 C642 1.379 . S
C642 H626 0.931 . S
C642 C636 1.383 . S
C642 C641 1.379 . S
H643 C637 0.959 . S
H644 C637 0.961 . S
H645 C637 0.960 . S
H646 C638 0.930 . S
H647 C639 0.929 . S
H648 C656 0.929 . S
H649 C658 0.930 . S
H650 C660 0.930 . S
H651 C663 0.929 . S
H652 C666 0.930 . S
H653 C668 0.960 . S
H654 C668 0.960 . S
H655 C668 0.960 . S
C656 H648 0.929 . S
C656 C657 1.377 . S
C656 C658 1.384 . S
C657 C656 1.377 . S
C657 C663 1.390 . S
C658 H649 0.930 . S
C658 C656 1.384 . S
C658 C659 1.372 . S
C659 C658 1.372 . S
C659 C660 1.400 . S
C659 C664 1.490 . S
C660 H650 0.930 . S
C660 C659 1.400 . S
C660 C663 1.386 . S
H661 C677 0.930 . S
H662 C678 0.931 . S
C663 H651 0.929 . S
C663 C657 1.390 . S
C663 C660 1.386 . S
C664 C659 1.490 . S
C664 C666 1.395 . S
C664 C667 1.403 . S
H665 C671 0.930 . S
C666 H652 0.930 . S
C666 C664 1.395 . S
C666 C669 1.403 . S
C667 C664 1.403 . S
C667 C668 1.524 . S
C667 C671 1.400 . S
C668 H653 0.960 . S
C668 H654 0.960 . S
C668 H655 0.960 . S
C668 C667 1.524 . S
C669 C666 1.403 . S
C669 C670 1.392 . S
C669 C673 1.495 . S
C670 C669 1.392 . S
C670 C671 1.385 . S
C670 C672 1.478 . S
C671 H665 0.930 . S
C671 C667 1.400 . S
C671 C670 1.385 . S
C672 C670 1.478 . S
C672 C674 1.381 . S
C672 C678 1.383 . S
C673 C669 1.495 . S
C673 H679 0.959 . S
C673 H680 0.961 . S
C673 H681 0.960 . S
C674 C672 1.381 . S
C674 C675 1.394 . S
C674 H682 0.930 . S
C675 C674 1.394 . S
C675 C676 1.383 . S
C675 H683 0.929 . S
C676 C675 1.383 . S
C676 C677 1.377 . S
C677 H661 0.930 . S
C677 C676 1.377 . S
C677 C678 1.379 . S
C678 H662 0.931 . S
C678 C672 1.383 . S
C678 C677 1.379 . S
H679 C673 0.959 . S
H680 C673 0.961 . S
H681 C673 0.960 . S
H682 C674 0.930 . S
H683 C675 0.929 . S
H684 C692 0.929 . S
H685 C694 0.930 . S
H686 C696 0.930 . S
H687 C699 0.929 . S
H688 C702 0.930 . S
H689 C704 0.960 . S
H690 C704 0.960 . S
H691 C704 0.960 . S
C692 H684 0.929 . S
C692 C693 1.377 . S
C692 C694 1.384 . S
C693 C692 1.377 . S
C693 C699 1.390 . S
C694 H685 0.930 . S
C694 C692 1.384 . S
C694 C695 1.372 . S
C695 C694 1.372 . S
C695 C696 1.400 . S
C695 C700 1.490 . S
C696 H686 0.930 . S
C696 C695 1.400 . S
C696 C699 1.386 . S
H697 C713 0.930 . S
H698 C714 0.924 1_455 S
C699 H687 0.929 . S
C699 C693 1.390 . S
C699 C696 1.386 . S
C700 C695 1.490 . S
C700 C702 1.395 . S
C700 C703 1.403 . S
H701 C707 0.930 . S
C702 H688 0.930 . S
C702 C700 1.395 . S
C702 C705 1.403 . S
C703 C700 1.403 . S
C703 C704 1.524 1_455 S
C703 C707 1.400 1_455 S
C704 H689 0.960 . S
C704 H690 0.960 . S
C704 H691 0.960 . S
C704 C703 1.524 1_655 S
C705 C702 1.403 . S
C705 C706 1.392 . S
C705 C709 1.495 . S
C706 C705 1.392 . S
C706 C707 1.385 1_455 S
C706 C708 1.478 . S
C707 H701 0.930 . S
C707 C703 1.400 1_655 S
C707 C706 1.385 1_655 S
C708 C706 1.478 . S
C708 C710 1.381 1_455 S
C708 C714 1.383 1_455 S
C709 C705 1.495 . S
C709 H715 0.959 . S
C709 H716 0.961 . S
C709 H717 0.960 . S
C710 C708 1.381 1_655 S
C710 C711 1.394 . S
C710 H718 0.930 1_655 S
C711 C710 1.394 . S
C711 C712 1.383 . S
C711 H719 0.929 . S
C712 C711 1.383 . S
C712 C713 1.377 . S
C713 H697 0.930 . S
C713 C712 1.377 . S
C713 C714 1.379 . S
C714 H698 0.924 1_655 S
C714 C708 1.383 1_655 S
C714 C713 1.379 . S
H715 C709 0.959 . S
H716 C709 0.961 . S
H717 C709 0.960 . S
H718 C710 0.930 1_455 S
H719 C711 0.929 . S
H720 C728 0.929 . S
H721 C730 0.930 . S
H722 C732 0.930 . S
H723 C735 0.929 . S
H724 C738 0.930 . S
H725 C740 0.960 . S
H726 C740 0.955 1_655 S
H727 C740 0.960 . S
C728 H720 0.929 . S
C728 C729 1.377 1_655 S
C728 C730 1.384 . S
C729 C728 1.377 1_455 S
C729 C735 1.390 . S
C730 H721 0.930 . S
C730 C728 1.384 . S
C730 C731 1.372 1_655 S
C731 C730 1.372 1_455 S
C731 C732 1.400 . S
C731 C736 1.490 1_455 S
C732 H722 0.930 . S
C732 C731 1.400 . S
C732 C735 1.386 . S
H733 C749 0.930 1_455 S
H734 C750 0.959 . S
C735 H723 0.929 . S
C735 C729 1.390 . S
C735 C732 1.386 . S
C736 C731 1.490 1_655 S
C736 C738 1.395 . S
C736 C739 1.403 1_655 S
H737 C743 0.930 . S
C738 H724 0.930 . S
C738 C736 1.395 . S
C738 C741 1.403 . S
C739 C736 1.403 1_455 S
C739 C740 1.524 . S
C739 C743 1.400 1_455 S
C740 H725 0.960 . S
C740 H726 0.955 1_455 S
C740 H727 0.960 . S
C740 C739 1.524 . S
C741 C738 1.403 . S
C741 C742 1.392 . S
C741 C745 1.495 . S
C742 C741 1.392 . S
C742 C743 1.385 . S
C742 C744 1.478 . S
C743 H737 0.930 . S
C743 C739 1.400 1_655 S
C743 C742 1.385 . S
C744 C742 1.478 . S
C744 C746 1.381 . S
C744 C750 1.362 1_655 S
C745 C741 1.495 . S
C745 H751 0.959 . S
C745 H752 0.961 . S
C745 H753 0.960 . S
C746 C744 1.381 . S
C746 C747 1.394 . S
C746 H754 0.930 . S
C747 C746 1.394 . S
C747 C748 1.383 . S
C747 H755 0.929 . S
C748 C747 1.383 . S
C748 C749 1.377 . S
C749 H733 0.930 1_655 S
C749 C748 1.377 . S
C749 C750 1.373 1_655 S
C750 H734 0.959 . S
C750 C744 1.362 1_455 S
C750 C749 1.373 1_455 S
H751 C745 0.959 . S
H752 C745 0.961 . S
H753 C745 0.960 . S
H754 C746 0.930 . S
H755 C747 0.929 . S
H756 C764 0.929 . S
H757 C766 0.930 . S
H758 C768 0.930 . S
H759 C771 0.929 . S
H760 C774 0.930 . S
H761 C776 0.960 . S
H762 C776 0.960 . S
H763 C776 0.960 . S
C764 H756 0.929 . S
C764 C765 1.377 . S
C764 C766 1.384 . S
C765 C764 1.377 . S
C765 C771 1.390 . S
C766 H757 0.930 . S
C766 C764 1.384 . S
C766 C767 1.372 . S
C767 C766 1.372 . S
C767 C768 1.400 . S
C767 C772 1.490 . S
C768 H758 0.930 . S
C768 C767 1.400 . S
C768 C771 1.386 . S
H769 C785 0.930 . S
H770 C786 0.931 . S
C771 H759 0.929 . S
C771 C765 1.390 . S
C771 C768 1.386 . S
C772 C767 1.490 . S
C772 C774 1.395 . S
C772 C775 1.403 . S
H773 C779 0.930 . S
C774 H760 0.930 . S
C774 C772 1.395 . S
C774 C777 1.403 . S
C775 C772 1.403 . S
C775 C776 1.524 . S
C775 C779 1.400 . S
C776 H761 0.960 . S
C776 H762 0.960 . S
C776 H763 0.960 . S
C776 C775 1.524 . S
C777 C774 1.403 . S
C777 C778 1.392 . S
C777 C781 1.495 . S
C778 C777 1.392 . S
C778 C779 1.385 . S
C778 C780 1.478 . S
C779 H773 0.930 . S
C779 C775 1.400 . S
C779 C778 1.385 . S
C780 C778 1.478 . S
C780 C782 1.381 . S
C780 C786 1.383 . S
C781 C777 1.495 . S
C781 H787 0.959 . S
C781 H788 0.961 . S
C781 H789 0.960 . S
C782 C780 1.381 . S
C782 C783 1.394 . S
C782 H790 0.930 . S
C783 C782 1.394 . S
C783 C784 1.383 . S
C783 H791 0.929 . S
C784 C783 1.383 . S
C784 C785 1.377 . S
C785 H769 0.930 . S
C785 C784 1.377 . S
C785 C786 1.379 . S
C786 H770 0.931 . S
C786 C780 1.383 . S
C786 C785 1.379 . S
H787 C781 0.959 . S
H788 C781 0.961 . S
H789 C781 0.960 . S
H790 C782 0.930 . S
H791 C783 0.929 . S
H792 C800 0.929 . S
H793 C802 0.930 . S
H794 C804 0.930 . S
H795 C807 0.929 . S
H796 C810 0.930 . S
H797 C812 0.960 . S
H798 C812 0.960 . S
H799 C812 0.960 . S
C800 H792 0.929 . S
C800 C801 1.377 . S
C800 C802 1.384 . S
C801 C800 1.377 . S
C801 C807 1.390 . S
C802 H793 0.930 . S
C802 C800 1.384 . S
C802 C803 1.372 . S
C803 C802 1.372 . S
C803 C804 1.400 . S
C803 C808 1.490 . S
C804 H794 0.930 . S
C804 C803 1.400 . S
C804 C807 1.386 . S
H805 C821 0.930 . S
H806 C822 0.931 . S
C807 H795 0.929 . S
C807 C801 1.390 . S
C807 C804 1.386 . S
C808 C803 1.490 . S
C808 C810 1.395 . S
C808 C811 1.403 . S
H809 C815 0.930 . S
C810 H796 0.930 . S
C810 C808 1.395 . S
C810 C813 1.403 . S
C811 C808 1.403 . S
C811 C812 1.524 . S
C811 C815 1.400 . S
C812 H797 0.960 . S
C812 H798 0.960 . S
C812 H799 0.960 . S
C812 C811 1.524 . S
C813 C810 1.403 . S
C813 C814 1.392 . S
C813 C817 1.495 . S
C814 C813 1.392 . S
C814 C815 1.385 . S
C814 C816 1.478 . S
C815 H809 0.930 . S
C815 C811 1.400 . S
C815 C814 1.385 . S
C816 C814 1.478 . S
C816 C818 1.381 . S
C816 C822 1.383 . S
C817 C813 1.495 . S
C817 H823 0.959 . S
C817 H824 0.961 . S
C817 H825 0.960 . S
C818 C816 1.381 . S
C818 C819 1.394 . S
C818 H826 0.930 . S
C819 C818 1.394 . S
C819 C820 1.383 . S
C819 H827 0.929 . S
C820 C819 1.383 . S
C820 C821 1.377 . S
C821 H805 0.930 . S
C821 C820 1.377 . S
C821 C822 1.379 . S
C822 H806 0.931 . S
C822 C816 1.383 . S
C822 C821 1.379 . S
H823 C817 0.959 . S
H824 C817 0.961 . S
H825 C817 0.960 . S
H826 C818 0.930 . S
H827 C819 0.929 . S
H828 C836 0.929 . S
H829 C838 0.930 . S
H830 C840 0.930 . S
H831 C843 0.929 . S
H832 C846 0.930 . S
H833 C848 0.960 . S
H834 C848 0.960 . S
H835 C848 0.960 . S
C836 H828 0.929 . S
C836 C837 1.377 1_655 S
C836 C838 1.384 . S
C837 C836 1.377 1_455 S
C837 C843 1.390 . S
C838 H829 0.930 . S
C838 C836 1.384 . S
C838 C839 1.372 . S
C839 C838 1.372 . S
C839 C840 1.400 . S
C839 C844 1.490 . S
C840 H830 0.930 . S
C840 C839 1.400 . S
C840 C843 1.386 1_655 S
H841 C857 0.930 . S
H842 C858 0.931 . S
C843 H831 0.929 . S
C843 C837 1.390 . S
C843 C840 1.386 1_455 S
C844 C839 1.490 . S
C844 C846 1.395 . S
C844 C847 1.403 . S
H845 C851 0.930 . S
C846 H832 0.930 . S
C846 C844 1.395 . S
C846 C849 1.403 . S
C847 C844 1.403 . S
C847 C848 1.524 . S
C847 C851 1.400 . S
C848 H833 0.960 . S
C848 H834 0.960 . S
C848 H835 0.960 . S
C848 C847 1.524 . S
C849 C846 1.403 . S
C849 C850 1.392 . S
C849 C853 1.495 . S
C850 C849 1.392 . S
C850 C851 1.385 . S
C850 C852 1.478 . S
C851 H845 0.930 . S
C851 C847 1.400 . S
C851 C850 1.385 . S
C852 C850 1.478 . S
C852 C854 1.381 . S
C852 C858 1.383 . S
C853 C849 1.495 . S
C853 H859 0.959 . S
C853 H860 0.961 . S
C853 H861 0.960 . S
C854 C852 1.381 . S
C854 C855 1.394 . S
C854 H862 0.930 . S
C855 C854 1.394 . S
C855 C856 1.383 . S
C855 H863 0.929 . S
C856 C855 1.383 . S
C856 C857 1.377 . S
C857 H841 0.930 . S
C857 C856 1.377 . S
C857 C858 1.379 . S
C858 H842 0.931 . S
C858 C852 1.383 . S
C858 C857 1.379 . S
H859 C853 0.959 . S
H860 C853 0.961 . S
H861 C853 0.960 . S
H862 C854 0.930 . S
H863 C855 0.929 . S
H864 C872 0.929 . S
H865 C874 0.930 . S
H866 C876 0.930 . S
H867 C879 0.929 . S
H868 C882 0.930 . S
H869 C884 0.960 . S
H870 C884 0.960 . S
H871 C884 0.960 . S
C872 H864 0.929 . S
C872 C873 1.377 . S
C872 C874 1.384 . S
C873 C872 1.377 . S
C873 C879 1.390 . S
C874 H865 0.930 . S
C874 C872 1.384 . S
C874 C875 1.372 . S
C875 C874 1.372 . S
C875 C876 1.400 . S
C875 C880 1.490 . S
C876 H866 0.930 . S
C876 C875 1.400 . S
C876 C879 1.386 . S
H877 C893 0.930 . S
H878 C894 0.931 . S
C879 H867 0.929 . S
C879 C873 1.390 . S
C879 C876 1.386 . S
C880 C875 1.490 . S
C880 C882 1.395 . S
C880 C883 1.403 . S
H881 C887 0.930 . S
C882 H868 0.930 . S
C882 C880 1.395 . S
C882 C885 1.403 . S
C883 C880 1.403 . S
C883 C884 1.524 . S
C883 C887 1.400 . S
C884 H869 0.960 . S
C884 H870 0.960 . S
C884 H871 0.960 . S
C884 C883 1.524 . S
C885 C882 1.403 . S
C885 C886 1.392 . S
C885 C889 1.495 . S
C886 C885 1.392 . S
C886 C887 1.385 . S
C886 C888 1.478 . S
C887 H881 0.930 . S
C887 C883 1.400 . S
C887 C886 1.385 . S
C888 C886 1.478 . S
C888 C890 1.381 . S
C888 C894 1.383 . S
C889 C885 1.495 . S
C889 H895 0.959 . S
C889 H896 0.961 . S
C889 H897 0.960 . S
C890 C888 1.381 . S
C890 C891 1.394 . S
C890 H898 0.930 . S
C891 C890 1.394 . S
C891 C892 1.383 . S
C891 H899 0.929 . S
C892 C891 1.383 . S
C892 C893 1.377 . S
C893 H877 0.930 . S
C893 C892 1.377 . S
C893 C894 1.379 . S
C894 H878 0.931 . S
C894 C888 1.383 . S
C894 C893 1.379 . S
H895 C889 0.959 . S
H896 C889 0.961 . S
H897 C889 0.960 . S
H898 C890 0.930 . S
H899 C891 0.929 . S
H900 C908 0.929 . S
H901 C910 0.930 . S
H902 C912 0.930 . S
H903 C915 0.929 . S
H904 C918 0.930 . S
H905 C920 0.960 . S
H906 C920 0.960 . S
H907 C920 0.960 . S
C908 H900 0.929 . S
C908 C909 1.377 . S
C908 C910 1.384 . S
C909 C908 1.377 . S
C909 C915 1.390 . S
C910 H901 0.930 . S
C910 C908 1.384 . S
C910 C911 1.372 . S
C911 C910 1.372 . S
C911 C912 1.400 . S
C911 C916 1.490 . S
C912 H902 0.930 . S
C912 C911 1.400 . S
C912 C915 1.386 . S
H913 C929 0.930 . S
H914 C930 0.931 . S
C915 H903 0.929 . S
C915 C909 1.390 . S
C915 C912 1.386 . S
C916 C911 1.490 . S
C916 C918 1.395 . S
C916 C919 1.403 . S
H917 C923 0.930 1_556 S
C918 H904 0.930 . S
C918 C916 1.395 . S
C918 C921 1.403 . S
C919 C916 1.403 . S
C919 C920 1.524 . S
C919 C923 1.400 . S
C920 H905 0.960 . S
C920 H906 0.960 . S
C920 H907 0.960 . S
C920 C919 1.524 . S
C921 C918 1.403 . S
C921 C922 1.392 . S
C921 C925 1.495 . S
C922 C921 1.392 . S
C922 C923 1.385 . S
C922 C924 1.478 1_554 S
C923 H917 0.930 1_554 S
C923 C919 1.400 . S
C923 C922 1.385 . S
C924 C922 1.478 1_556 S
C924 C926 1.381 . S
C924 C930 1.383 . S
C925 C921 1.495 . S
C925 H931 0.959 . S
C925 H932 0.961 . S
C925 H933 0.960 . S
C926 C924 1.381 . S
C926 C927 1.394 . S
C926 H934 0.930 . S
C927 C926 1.394 . S
C927 C928 1.383 . S
C927 H935 0.929 . S
C928 C927 1.383 . S
C928 C929 1.377 . S
C929 H913 0.930 . S
C929 C928 1.377 . S
C929 C930 1.379 . S
C930 H914 0.931 . S
C930 C924 1.383 . S
C930 C929 1.379 . S
H931 C925 0.959 . S
H932 C925 0.961 . S
H933 C925 0.960 . S
H934 C926 0.930 . S
H935 C927 0.929 . S
H936 C944 0.929 . S
H937 C946 0.930 . S
H938 C948 0.930 . S
H939 C951 0.929 . S
H940 C954 0.930 . S
H941 C956 0.960 . S
H942 C956 0.960 . S
H943 C956 0.960 . S
C944 H936 0.929 . S
C944 C945 1.377 . S
C944 C946 1.384 . S
C945 C944 1.377 . S
C945 C951 1.390 . S
C946 H937 0.930 . S
C946 C944 1.384 . S
C946 C947 1.372 . S
C947 C946 1.372 . S
C947 C948 1.400 . S
C947 C952 1.490 . S
C948 H938 0.930 . S
C948 C947 1.400 . S
C948 C951 1.386 . S
H949 C965 0.930 . S
H950 C966 0.931 . S
C951 H939 0.929 . S
C951 C945 1.390 . S
C951 C948 1.386 . S
C952 C947 1.490 . S
C952 C954 1.395 . S
C952 C955 1.403 . S
H953 C959 0.930 . S
C954 H940 0.930 . S
C954 C952 1.395 . S
C954 C957 1.403 . S
C955 C952 1.403 . S
C955 C956 1.524 . S
C955 C959 1.400 . S
C956 H941 0.960 . S
C956 H942 0.960 . S
C956 H943 0.960 . S
C956 C955 1.524 . S
C957 C954 1.403 . S
C957 C958 1.392 . S
C957 C961 1.495 . S
C958 C957 1.392 . S
C958 C959 1.385 . S
C958 C960 1.478 . S
C959 H953 0.930 . S
C959 C955 1.400 . S
C959 C958 1.385 . S
C960 C958 1.478 . S
C960 C962 1.381 . S
C960 C966 1.383 . S
C961 C957 1.495 . S
C961 H967 0.959 . S
C961 H968 0.961 . S
C961 H969 0.960 . S
C962 C960 1.381 . S
C962 C963 1.394 . S
C962 H970 0.930 . S
C963 C962 1.394 . S
C963 C964 1.383 . S
C963 H971 0.929 . S
C964 C963 1.383 . S
C964 C965 1.377 . S
C965 H949 0.930 . S
C965 C964 1.377 . S
C965 C966 1.379 . S
C966 H950 0.931 . S
C966 C960 1.383 . S
C966 C965 1.379 . S
H967 C961 0.959 . S
H968 C961 0.961 . S
H969 C961 0.960 . S
H970 C962 0.930 . S
H971 C963 0.929 . S
H972 C980 0.929 . S
H973 C982 0.930 . S
H974 C984 0.930 . S
H975 C987 0.929 . S
H976 C990 0.930 . S
H977 C992 0.960 . S
H978 C992 0.960 . S
H979 C992 0.960 . S
C980 H972 0.929 . S
C980 C981 1.377 . S
C980 C982 1.384 1_554 S
C981 C980 1.377 . S
C981 C987 1.390 1_554 S
C982 H973 0.930 . S
C982 C980 1.384 1_556 S
C982 C983 1.372 . S
C983 C982 1.372 . S
C983 C984 1.400 . S
C983 C988 1.490 . S
C984 H974 0.930 . S
C984 C983 1.400 . S
C984 C987 1.386 . S
H985 C1001 0.930 . S
H986 C1002 0.931 . S
C987 H975 0.929 . S
C987 C981 1.390 1_556 S
C987 C984 1.386 . S
C988 C983 1.490 . S
C988 C990 1.395 . S
C988 C991 1.403 . S
H989 C995 0.930 . S
C990 H976 0.930 . S
C990 C988 1.395 . S
C990 C993 1.403 . S
C991 C988 1.403 . S
C991 C992 1.524 . S
C991 C995 1.400 . S
C992 H977 0.960 . S
C992 H978 0.960 . S
C992 H979 0.960 . S
C992 C991 1.524 . S
C993 C990 1.403 . S
C993 C994 1.392 . S
C993 C997 1.495 1_455 S
C994 C993 1.392 . S
C994 C995 1.385 . S
C994 C996 1.478 . S
C995 H989 0.930 . S
C995 C991 1.400 . S
C995 C994 1.385 . S
C996 C994 1.478 . S
C996 C998 1.381 . S
C996 C1002 1.383 . S
C997 C993 1.495 1_655 S
C997 H1003 0.959 . S
C997 H1004 0.961 . S
C997 H1005 0.960 . S
C998 C996 1.381 . S
C998 C999 1.394 1_455 S
C998 H1006 0.930 . S
C999 C998 1.394 1_655 S
C999 C1000 1.383 . S
C999 H1007 0.929 . S
C1000 C999 1.383 . S
C1000 C1001 1.377 1_655 S
C1001 H985 0.930 . S
C1001 C1000 1.377 1_455 S
C1001 C1002 1.379 . S
C1002 H986 0.931 . S
C1002 C996 1.383 . S
C1002 C1001 1.379 . S
H1003 C997 0.959 . S
H1004 C997 0.961 . S
H1005 C997 0.960 . S
H1006 C998 0.930 . S
H1007 C999 0.929 . S
H1008 C1016 0.929 . S
H1009 C1018 0.930 . S
H1010 C1020 0.930 . S
H1011 C1023 0.929 . S
H1012 C1026 0.930 . S
H1013 C1028 0.960 . S
H1014 C1028 0.960 . S
H1015 C1028 0.960 . S
C1016 H1008 0.929 . S
C1016 C1017 1.377 . S
C1016 C1018 1.384 . S
C1017 C1016 1.377 . S
C1017 C1023 1.390 . S
C1018 H1009 0.930 . S
C1018 C1016 1.384 . S
C1018 C1019 1.372 . S
C1019 C1018 1.372 . S
C1019 C1020 1.400 . S
C1019 C1024 1.490 . S
C1020 H1010 0.930 . S
C1020 C1019 1.400 . S
C1020 C1023 1.386 . S
H1021 C1037 0.930 . S
H1022 C1038 0.931 . S
C1023 H1011 0.929 . S
C1023 C1017 1.390 . S
C1023 C1020 1.386 . S
C1024 C1019 1.490 . S
C1024 C1026 1.395 . S
C1024 C1027 1.403 . S
H1025 C1031 0.930 . S
C1026 H1012 0.930 . S
C1026 C1024 1.395 . S
C1026 C1029 1.403 . S
C1027 C1024 1.403 . S
C1027 C1028 1.524 . S
C1027 C1031 1.400 . S
C1028 H1013 0.960 . S
C1028 H1014 0.960 . S
C1028 H1015 0.960 . S
C1028 C1027 1.524 . S
C1029 C1026 1.403 . S
C1029 C1030 1.392 . S
C1029 C1033 1.495 . S
C1030 C1029 1.392 . S
C1030 C1031 1.385 . S
C1030 C1032 1.478 . S
C1031 H1025 0.930 . S
C1031 C1027 1.400 . S
C1031 C1030 1.385 . S
C1032 C1030 1.478 . S
C1032 C1034 1.381 . S
C1032 C1038 1.383 . S
C1033 C1029 1.495 . S
C1033 H1039 0.959 . S
C1033 H1040 0.961 . S
C1033 H1041 0.960 . S
C1034 C1032 1.381 . S
C1034 C1035 1.394 . S
C1034 H1042 0.930 . S
C1035 C1034 1.394 . S
C1035 C1036 1.383 . S
C1035 H1043 0.929 . S
C1036 C1035 1.383 . S
C1036 C1037 1.377 . S
C1037 H1021 0.930 . S
C1037 C1036 1.377 . S
C1037 C1038 1.379 . S
C1038 H1022 0.931 . S
C1038 C1032 1.383 . S
C1038 C1037 1.379 . S
H1039 C1033 0.959 . S
H1040 C1033 0.961 . S
H1041 C1033 0.960 . S
H1042 C1034 0.930 . S
H1043 C1035 0.929 . S
H1044 C1052 0.929 . S
H1045 C1054 0.930 . S
H1046 C1056 0.930 . S
H1047 C1059 0.929 . S
H1048 C1062 0.930 . S
H1049 C1064 0.960 . S
H1050 C1064 0.960 . S
H1051 C1064 0.960 . S
C1052 H1044 0.929 . S
C1052 C1053 1.377 . S
C1052 C1054 1.384 . S
C1053 C1052 1.377 . S
C1053 C1059 1.390 . S
C1054 H1045 0.930 . S
C1054 C1052 1.384 . S
C1054 C1055 1.372 . S
C1055 C1054 1.372 . S
C1055 C1056 1.400 . S
C1055 C1060 1.490 . S
C1056 H1046 0.930 . S
C1056 C1055 1.400 . S
C1056 C1059 1.386 . S
H1057 C1073 0.930 . S
H1058 C1074 0.931 . S
C1059 H1047 0.929 . S
C1059 C1053 1.390 . S
C1059 C1056 1.386 . S
C1060 C1055 1.490 . S
C1060 C1062 1.395 . S
C1060 C1063 1.403 . S
H1061 C1067 0.930 . S
C1062 H1048 0.930 . S
C1062 C1060 1.395 . S
C1062 C1065 1.403 . S
C1063 C1060 1.403 . S
C1063 C1064 1.524 . S
C1063 C1067 1.400 . S
C1064 H1049 0.960 . S
C1064 H1050 0.960 . S
C1064 H1051 0.960 . S
C1064 C1063 1.524 . S
C1065 C1062 1.403 . S
C1065 C1066 1.392 . S
C1065 C1069 1.495 . S
C1066 C1065 1.392 . S
C1066 C1067 1.385 . S
C1066 C1068 1.478 . S
C1067 H1061 0.930 . S
C1067 C1063 1.400 . S
C1067 C1066 1.385 . S
C1068 C1066 1.478 . S
C1068 C1070 1.381 . S
C1068 C1074 1.383 . S
C1069 C1065 1.495 . S
C1069 H1075 0.959 . S
C1069 H1076 0.961 . S
C1069 H1077 0.960 . S
C1070 C1068 1.381 . S
C1070 C1071 1.394 . S
C1070 H1078 0.930 . S
C1071 C1070 1.394 . S
C1071 C1072 1.383 . S
C1071 H1079 0.929 . S
C1072 C1071 1.383 . S
C1072 C1073 1.377 . S
C1073 H1057 0.930 . S
C1073 C1072 1.377 . S
C1073 C1074 1.379 . S
C1074 H1058 0.931 . S
C1074 C1068 1.383 . S
C1074 C1073 1.379 . S
H1075 C1069 0.959 . S
H1076 C1069 0.961 . S
H1077 C1069 0.960 . S
H1078 C1070 0.930 . S
H1079 C1071 0.929 . S
H1080 C1088 0.929 . S
H1081 C1090 0.930 . S
H1082 C1092 0.930 . S
H1083 C1095 0.929 . S
H1084 C1098 0.930 . S
H1085 C1100 0.960 . S
H1086 C1100 0.960 . S
H1087 C1100 0.960 . S
C1088 H1080 0.929 . S
C1088 C1089 1.377 . S
C1088 C1090 1.384 . S
C1089 C1088 1.377 . S
C1089 C1095 1.390 . S
C1090 H1081 0.930 . S
C1090 C1088 1.384 . S
C1090 C1091 1.372 . S
C1091 C1090 1.372 . S
C1091 C1092 1.400 . S
C1091 C1096 1.490 . S
C1092 H1082 0.930 . S
C1092 C1091 1.400 . S
C1092 C1095 1.386 . S
H1093 C1109 0.930 . S
H1094 C1110 0.931 . S
C1095 H1083 0.929 . S
C1095 C1089 1.390 . S
C1095 C1092 1.386 . S
C1096 C1091 1.490 . S
C1096 C1098 1.395 . S
C1096 C1099 1.403 . S
H1097 C1103 0.930 . S
C1098 H1084 0.930 . S
C1098 C1096 1.395 . S
C1098 C1101 1.403 . S
C1099 C1096 1.403 . S
C1099 C1100 1.524 . S
C1099 C1103 1.400 . S
C1100 H1085 0.960 . S
C1100 H1086 0.960 . S
C1100 H1087 0.960 . S
C1100 C1099 1.524 . S
C1101 C1098 1.403 . S
C1101 C1102 1.392 . S
C1101 C1105 1.495 . S
C1102 C1101 1.392 . S
C1102 C1103 1.385 . S
C1102 C1104 1.478 . S
C1103 H1097 0.930 . S
C1103 C1099 1.400 . S
C1103 C1102 1.385 . S
C1104 C1102 1.478 . S
C1104 C1106 1.381 . S
C1104 C1110 1.383 . S
C1105 C1101 1.495 . S
C1105 H1111 0.959 . S
C1105 H1112 0.961 . S
C1105 H1113 0.960 . S
C1106 C1104 1.381 . S
C1106 C1107 1.394 . S
C1106 H1114 0.930 . S
C1107 C1106 1.394 . S
C1107 C1108 1.383 . S
C1107 H1115 0.929 . S
C1108 C1107 1.383 . S
C1108 C1109 1.377 . S
C1109 H1093 0.930 . S
C1109 C1108 1.377 . S
C1109 C1110 1.379 . S
C1110 H1094 0.931 . S
C1110 C1104 1.383 . S
C1110 C1109 1.379 . S
H1111 C1105 0.959 . S
H1112 C1105 0.961 . S
H1113 C1105 0.960 . S
H1114 C1106 0.930 . S
H1115 C1107 0.929 . S
H1116 C1124 0.929 . S
H1117 C1126 0.930 . S
H1118 C1128 0.930 . S
H1119 C1131 0.929 . S
H1120 C1134 0.930 . S
H1121 C1136 0.960 . S
H1122 C1136 0.960 . S
H1123 C1136 0.960 . S
C1124 H1116 0.929 . S
C1124 C1125 1.377 . S
C1124 C1126 1.384 . S
C1125 C1124 1.377 . S
C1125 C1131 1.390 . S
C1126 H1117 0.930 . S
C1126 C1124 1.384 . S
C1126 C1127 1.372 . S
C1127 C1126 1.372 . S
C1127 C1128 1.400 . S
C1127 C1132 1.490 . S
C1128 H1118 0.930 . S
C1128 C1127 1.400 . S
C1128 C1131 1.386 . S
H1129 C1145 0.930 . S
H1130 C1146 0.931 . S
C1131 H1119 0.929 . S
C1131 C1125 1.390 . S
C1131 C1128 1.386 . S
C1132 C1127 1.490 . S
C1132 C1134 1.395 . S
C1132 C1135 1.403 . S
H1133 C1139 0.930 . S
C1134 H1120 0.930 . S
C1134 C1132 1.395 . S
C1134 C1137 1.403 . S
C1135 C1132 1.403 . S
C1135 C1136 1.524 . S
C1135 C1139 1.400 . S
C1136 H1121 0.960 . S
C1136 H1122 0.960 . S
C1136 H1123 0.960 . S
C1136 C1135 1.524 . S
C1137 C1134 1.403 . S
C1137 C1138 1.392 . S
C1137 C1141 1.495 . S
C1138 C1137 1.392 . S
C1138 C1139 1.385 . S
C1138 C1140 1.478 . S
C1139 H1133 0.930 . S
C1139 C1135 1.400 . S
C1139 C1138 1.385 . S
C1140 C1138 1.478 . S
C1140 C1142 1.381 . S
C1140 C1146 1.383 . S
C1141 C1137 1.495 . S
C1141 H1147 0.959 . S
C1141 H1148 0.961 . S
C1141 H1149 0.960 . S
C1142 C1140 1.381 . S
C1142 C1143 1.394 1_545 S
C1142 H1150 0.930 . S
C1143 C1142 1.394 1_565 S
C1143 C1144 1.383 . S
C1143 H1151 0.929 . S
C1144 C1143 1.383 . S
C1144 C1145 1.377 . S
C1145 H1129 0.930 . S
C1145 C1144 1.377 . S
C1145 C1146 1.379 1_565 S
C1146 H1130 0.931 . S
C1146 C1140 1.383 . S
C1146 C1145 1.379 1_545 S
H1147 C1141 0.959 . S
H1148 C1141 0.961 . S
H1149 C1141 0.960 . S
H1150 C1142 0.930 . S
H1151 C1143 0.929 . S
H1152 C1160 0.929 . S
H1153 C1162 0.930 . S
H1154 C1164 0.930 . S
H1155 C1167 0.929 . S
H1156 C1170 0.930 . S
H1157 C1172 0.960 . S
H1158 C1172 0.960 . S
H1159 C1172 0.960 . S
C1160 H1152 0.929 . S
C1160 C1161 1.377 . S
C1160 C1162 1.384 . S
C1161 C1160 1.377 . S
C1161 C1167 1.390 . S
C1162 H1153 0.930 . S
C1162 C1160 1.384 . S
C1162 C1163 1.372 . S
C1163 C1162 1.372 . S
C1163 C1164 1.400 . S
C1163 C1168 1.490 . S
C1164 H1154 0.930 . S
C1164 C1163 1.400 . S
C1164 C1167 1.386 . S
H1165 C1181 0.930 . S
H1166 C1182 0.931 . S
C1167 H1155 0.929 . S
C1167 C1161 1.390 . S
C1167 C1164 1.386 . S
C1168 C1163 1.490 . S
C1168 C1170 1.395 . S
C1168 C1171 1.403 . S
H1169 C1175 0.930 . S
C1170 H1156 0.930 . S
C1170 C1168 1.395 . S
C1170 C1173 1.403 . S
C1171 C1168 1.403 . S
C1171 C1172 1.524 . S
C1171 C1175 1.400 . S
C1172 H1157 0.960 . S
C1172 H1158 0.960 . S
C1172 H1159 0.960 . S
C1172 C1171 1.524 . S
C1173 C1170 1.403 . S
C1173 C1174 1.392 . S
C1173 C1177 1.495 . S
C1174 C1173 1.392 . S
C1174 C1175 1.385 . S
C1174 C1176 1.478 . S
C1175 H1169 0.930 . S
C1175 C1171 1.400 . S
C1175 C1174 1.385 . S
C1176 C1174 1.478 . S
C1176 C1178 1.381 . S
C1176 C1182 1.383 . S
C1177 C1173 1.495 . S
C1177 H1183 0.959 . S
C1177 H1184 0.961 . S
C1177 H1185 0.960 . S
C1178 C1176 1.381 . S
C1178 C1179 1.394 . S
C1178 H1186 0.930 . S
C1179 C1178 1.394 . S
C1179 C1180 1.383 . S
C1179 H1187 0.929 . S
C1180 C1179 1.383 . S
C1180 C1181 1.377 . S
C1181 H1165 0.930 . S
C1181 C1180 1.377 . S
C1181 C1182 1.379 . S
C1182 H1166 0.931 . S
C1182 C1176 1.383 . S
C1182 C1181 1.379 . S
H1183 C1177 0.959 . S
H1184 C1177 0.961 . S
H1185 C1177 0.960 . S
H1186 C1178 0.930 . S
H1187 C1179 0.929 . S
H1188 C1196 0.929 . S
H1189 C1198 0.930 . S
H1190 C1200 0.930 . S
H1191 C1203 0.929 . S
H1192 C1206 0.930 . S
H1193 C1208 0.960 . S
H1194 C1208 0.960 . S
H1195 C1208 0.960 . S
C1196 H1188 0.929 . S
C1196 C1197 1.377 . S
C1196 C1198 1.384 . S
C1197 C1196 1.377 . S
C1197 C1203 1.390 . S
C1198 H1189 0.930 . S
C1198 C1196 1.384 . S
C1198 C1199 1.372 1_545 S
C1199 C1198 1.372 1_565 S
C1199 C1200 1.400 . S
C1199 C1204 1.490 . S
C1200 H1190 0.930 . S
C1200 C1199 1.400 . S
C1200 C1203 1.386 1_565 S
H1201 C1217 0.930 . S
H1202 C1218 0.931 . S
C1203 H1191 0.929 . S
C1203 C1197 1.390 . S
C1203 C1200 1.386 1_545 S
C1204 C1199 1.490 . S
C1204 C1206 1.395 . S
C1204 C1207 1.403 . S
H1205 C1211 0.930 . S
C1206 H1192 0.930 . S
C1206 C1204 1.395 . S
C1206 C1209 1.403 . S
C1207 C1204 1.403 . S
C1207 C1208 1.524 . S
C1207 C1211 1.400 . S
C1208 H1193 0.960 . S
C1208 H1194 0.960 . S
C1208 H1195 0.960 . S
C1208 C1207 1.524 . S
C1209 C1206 1.403 . S
C1209 C1210 1.392 . S
C1209 C1213 1.469 1_554 S
C1210 C1209 1.392 . S
C1210 C1211 1.385 . S
C1210 C1212 1.478 . S
C1211 H1205 0.930 . S
C1211 C1207 1.400 . S
C1211 C1210 1.385 . S
C1212 C1210 1.478 . S
C1212 C1214 1.381 . S
C1212 C1218 1.383 . S
C1213 C1209 1.469 1_556 S
C1213 H1219 0.966 . S
C1213 H1220 0.964 . S
C1213 H1221 0.978 . S
C1214 C1212 1.381 . S
C1214 C1215 1.394 1_554 S
C1214 H1222 0.930 1_554 S
C1215 C1214 1.394 1_556 S
C1215 C1216 1.383 1_556 S
C1215 H1223 0.929 . S
C1216 C1215 1.383 1_554 S
C1216 C1217 1.377 . S
C1217 H1201 0.930 . S
C1217 C1216 1.377 . S
C1217 C1218 1.379 . S
C1218 H1202 0.931 . S
C1218 C1212 1.383 . S
C1218 C1217 1.379 . S
H1219 C1213 0.966 . S
H1220 C1213 0.964 . S
H1221 C1213 0.978 . S
H1222 C1214 0.930 1_556 S
H1223 C1215 0.929 . S
H1224 C1232 0.929 . S
H1225 C1234 0.930 . S
H1226 C1236 0.930 . S
H1227 C1239 0.929 . S
H1228 C1242 0.930 . S
H1229 C1244 0.960 . S
H1230 C1244 0.960 . S
H1231 C1244 0.960 . S
C1232 H1224 0.929 . S
C1232 C1233 1.377 . S
C1232 C1234 1.384 . S
C1233 C1232 1.377 . S
C1233 C1239 1.390 . S
C1234 H1225 0.930 . S
C1234 C1232 1.384 . S
C1234 C1235 1.372 . S
C1235 C1234 1.372 . S
C1235 C1236 1.400 . S
C1235 C1240 1.490 . S
C1236 H1226 0.930 . S
C1236 C1235 1.400 . S
C1236 C1239 1.386 . S
H1237 C1253 0.930 . S
H1238 C1254 0.931 . S
C1239 H1227 0.929 . S
C1239 C1233 1.390 . S
C1239 C1236 1.386 . S
C1240 C1235 1.490 . S
C1240 C1242 1.395 . S
C1240 C1243 1.403 . S
H1241 C1247 0.930 . S
C1242 H1228 0.930 . S
C1242 C1240 1.395 . S
C1242 C1245 1.403 . S
C1243 C1240 1.403 . S
C1243 C1244 1.524 . S
C1243 C1247 1.400 . S
C1244 H1229 0.960 . S
C1244 H1230 0.960 . S
C1244 H1231 0.960 . S
C1244 C1243 1.524 . S
C1245 C1242 1.403 . S
C1245 C1246 1.392 . S
C1245 C1249 1.495 . S
C1246 C1245 1.392 . S
C1246 C1247 1.385 . S
C1246 C1248 1.478 . S
C1247 H1241 0.930 . S
C1247 C1243 1.400 . S
C1247 C1246 1.385 . S
C1248 C1246 1.478 . S
C1248 C1250 1.381 . S
C1248 C1254 1.383 . S
C1249 C1245 1.495 . S
C1249 H1255 0.959 . S
C1249 H1256 0.961 . S
C1249 H1257 0.960 . S
C1250 C1248 1.381 . S
C1250 C1251 1.394 . S
C1250 H1258 0.930 . S
C1251 C1250 1.394 . S
C1251 C1252 1.383 . S
C1251 H1259 0.929 . S
C1252 C1251 1.383 . S
C1252 C1253 1.377 . S
C1253 H1237 0.930 . S
C1253 C1252 1.377 . S
C1253 C1254 1.379 . S
C1254 H1238 0.931 . S
C1254 C1248 1.383 . S
C1254 C1253 1.379 . S
H1255 C1249 0.959 . S
H1256 C1249 0.961 . S
H1257 C1249 0.960 . S
H1258 C1250 0.930 . S
H1259 C1251 0.929 . S
H1260 C1268 0.929 . S
H1261 C1270 0.930 . S
H1262 C1272 0.930 . S
H1263 C1275 0.929 . S
H1264 C1278 0.930 . S
H1265 C1280 0.960 . S
H1266 C1280 0.960 . S
H1267 C1280 0.960 . S
C1268 H1260 0.929 . S
C1268 C1269 1.377 . S
C1268 C1270 1.384 . S
C1269 C1268 1.377 . S
C1269 C1275 1.390 . S
C1270 H1261 0.930 . S
C1270 C1268 1.384 . S
C1270 C1271 1.372 . S
C1271 C1270 1.372 . S
C1271 C1272 1.400 . S
C1271 C1276 1.490 . S
C1272 H1262 0.930 . S
C1272 C1271 1.400 . S
C1272 C1275 1.386 . S
H1273 C1289 0.930 1_554 S
H1274 C1290 0.931 . S
C1275 H1263 0.929 . S
C1275 C1269 1.390 . S
C1275 C1272 1.386 . S
C1276 C1271 1.490 . S
C1276 C1278 1.395 . S
C1276 C1279 1.403 . S
H1277 C1283 0.930 . S
C1278 H1264 0.930 . S
C1278 C1276 1.395 . S
C1278 C1281 1.403 . S
C1279 C1276 1.403 . S
C1279 C1280 1.524 . S
C1279 C1283 1.400 . S
C1280 H1265 0.960 . S
C1280 H1266 0.960 . S
C1280 H1267 0.960 . S
C1280 C1279 1.524 . S
C1281 C1278 1.403 . S
C1281 C1282 1.392 . S
C1281 C1285 1.495 . S
C1282 C1281 1.392 . S
C1282 C1283 1.385 . S
C1282 C1284 1.478 . S
C1283 H1277 0.930 . S
C1283 C1279 1.400 . S
C1283 C1282 1.385 . S
C1284 C1282 1.478 . S
C1284 C1286 1.381 . S
C1284 C1290 1.383 . S
C1285 C1281 1.495 . S
C1285 H1291 0.959 . S
C1285 H1292 0.961 . S
C1285 H1293 0.960 . S
C1286 C1284 1.381 . S
C1286 C1287 1.394 . S
C1286 H1294 0.930 . S
C1287 C1286 1.394 . S
C1287 C1288 1.383 . S
C1287 H1295 0.929 . S
C1288 C1287 1.383 . S
C1288 C1289 1.377 . S
C1289 H1273 0.930 1_556 S
C1289 C1288 1.377 . S
C1289 C1290 1.379 . S
C1290 H1274 0.931 . S
C1290 C1284 1.383 . S
C1290 C1289 1.379 . S
H1291 C1285 0.959 . S
H1292 C1285 0.961 . S
H1293 C1285 0.960 . S
H1294 C1286 0.930 . S
H1295 C1287 0.929 . S
H1296 C1304 0.929 . S
H1297 C1306 0.930 . S
H1298 C1308 0.930 . S
H1299 C1311 0.929 . S
H1300 C1314 0.930 . S
H1301 C1316 0.960 . S
H1302 C1316 0.960 . S
H1303 C1316 0.960 . S
C1304 H1296 0.929 . S
C1304 C1305 1.377 . S
C1304 C1306 1.384 . S
C1305 C1304 1.377 . S
C1305 C1311 1.390 . S
C1306 H1297 0.930 . S
C1306 C1304 1.384 . S
C1306 C1307 1.372 . S
C1307 C1306 1.372 . S
C1307 C1308 1.400 . S
C1307 C1312 1.490 . S
C1308 H1298 0.930 . S
C1308 C1307 1.400 . S
C1308 C1311 1.386 . S
H1309 C1325 0.930 . S
H1310 C1326 0.931 . S
C1311 H1299 0.929 . S
C1311 C1305 1.390 . S
C1311 C1308 1.386 . S
C1312 C1307 1.490 . S
C1312 C1314 1.395 . S
C1312 C1315 1.403 . S
H1313 C1319 0.930 . S
C1314 H1300 0.930 . S
C1314 C1312 1.395 . S
C1314 C1317 1.403 . S
C1315 C1312 1.403 . S
C1315 C1316 1.524 . S
C1315 C1319 1.400 . S
C1316 H1301 0.960 . S
C1316 H1302 0.960 . S
C1316 H1303 0.960 . S
C1316 C1315 1.524 . S
C1317 C1314 1.403 . S
C1317 C1318 1.392 . S
C1317 C1321 1.495 . S
C1318 C1317 1.392 . S
C1318 C1319 1.385 . S
C1318 C1320 1.478 . S
C1319 H1313 0.930 . S
C1319 C1315 1.400 . S
C1319 C1318 1.385 . S
C1320 C1318 1.478 . S
C1320 C1322 1.381 . S
C1320 C1326 1.383 . S
C1321 C1317 1.495 . S
C1321 H1327 0.959 . S
C1321 H1328 0.961 . S
C1321 H1329 0.960 . S
C1322 C1320 1.381 . S
C1322 C1323 1.394 . S
C1322 H1330 0.930 . S
C1323 C1322 1.394 . S
C1323 C1324 1.383 . S
C1323 H1331 0.929 . S
C1324 C1323 1.383 . S
C1324 C1325 1.377 . S
C1325 H1309 0.930 . S
C1325 C1324 1.377 . S
C1325 C1326 1.379 . S
C1326 H1310 0.931 . S
C1326 C1320 1.383 . S
C1326 C1325 1.379 . S
H1327 C1321 0.959 . S
H1328 C1321 0.961 . S
H1329 C1321 0.960 . S
H1330 C1322 0.930 . S
H1331 C1323 0.929 . S
H1332 C1340 0.929 . S
H1333 C1342 0.930 . S
H1334 C1344 0.930 . S
H1335 C1347 0.929 . S
H1336 C1350 0.930 . S
H1337 C1352 0.960 . S
H1338 C1352 0.960 . S
H1339 C1352 0.960 . S
C1340 H1332 0.929 . S
C1340 C1341 1.377 . S
C1340 C1342 1.384 . S
C1341 C1340 1.377 . S
C1341 C1347 1.390 . S
C1342 H1333 0.930 . S
C1342 C1340 1.384 . S
C1342 C1343 1.372 . S
C1343 C1342 1.372 . S
C1343 C1344 1.400 . S
C1343 C1348 1.490 . S
C1344 H1334 0.930 . S
C1344 C1343 1.400 . S
C1344 C1347 1.386 . S
H1345 C1361 0.930 . S
H1346 C1362 0.931 . S
C1347 H1335 0.929 . S
C1347 C1341 1.390 . S
C1347 C1344 1.386 . S
C1348 C1343 1.490 . S
C1348 C1350 1.395 . S
C1348 C1351 1.403 . S
H1349 C1355 0.930 . S
C1350 H1336 0.930 . S
C1350 C1348 1.395 . S
C1350 C1353 1.403 . S
C1351 C1348 1.403 . S
C1351 C1352 1.524 . S
C1351 C1355 1.400 . S
C1352 H1337 0.960 . S
C1352 H1338 0.960 . S
C1352 H1339 0.960 . S
C1352 C1351 1.524 . S
C1353 C1350 1.403 . S
C1353 C1354 1.392 . S
C1353 C1357 1.495 . S
C1354 C1353 1.392 . S
C1354 C1355 1.385 . S
C1354 C1356 1.478 . S
C1355 H1349 0.930 . S
C1355 C1351 1.400 . S
C1355 C1354 1.385 . S
C1356 C1354 1.478 . S
C1356 C1358 1.381 . S
C1356 C1362 1.383 . S
C1357 C1353 1.495 . S
C1357 H1363 0.959 . S
C1357 H1364 0.961 . S
C1357 H1365 0.960 . S
C1358 C1356 1.381 . S
C1358 C1359 1.394 . S
C1358 H1366 0.930 . S
C1359 C1358 1.394 . S
C1359 C1360 1.383 . S
C1359 H1367 0.929 . S
C1360 C1359 1.383 . S
C1360 C1361 1.377 . S
C1361 H1345 0.930 . S
C1361 C1360 1.377 . S
C1361 C1362 1.379 . S
C1362 H1346 0.931 . S
C1362 C1356 1.383 . S
C1362 C1361 1.379 . S
H1363 C1357 0.959 . S
H1364 C1357 0.961 . S
H1365 C1357 0.960 . S
H1366 C1358 0.930 . S
H1367 C1359 0.929 . S
H1368 C1376 0.929 . S
H1369 C1378 0.930 . S
H1370 C1380 0.930 . S
H1371 C1383 0.929 . S
H1372 C1386 0.930 . S
H1373 C1388 0.960 . S
H1374 C1388 0.960 . S
H1375 C1388 0.960 . S
C1376 H1368 0.929 . S
C1376 C1377 1.377 . S
C1376 C1378 1.384 . S
C1377 C1376 1.377 . S
C1377 C1383 1.390 . S
C1378 H1369 0.930 . S
C1378 C1376 1.384 . S
C1378 C1379 1.372 . S
C1379 C1378 1.372 . S
C1379 C1380 1.400 . S
C1379 C1384 1.490 . S
C1380 H1370 0.930 . S
C1380 C1379 1.400 . S
C1380 C1383 1.386 . S
H1381 C1397 0.930 . S
H1382 C1398 0.931 . S
C1383 H1371 0.929 . S
C1383 C1377 1.390 . S
C1383 C1380 1.386 . S
C1384 C1379 1.490 . S
C1384 C1386 1.395 . S
C1384 C1387 1.403 . S
H1385 C1391 0.930 . S
C1386 H1372 0.930 . S
C1386 C1384 1.395 . S
C1386 C1389 1.403 . S
C1387 C1384 1.403 . S
C1387 C1388 1.524 . S
C1387 C1391 1.400 . S
C1388 H1373 0.960 . S
C1388 H1374 0.960 . S
C1388 H1375 0.960 . S
C1388 C1387 1.524 . S
C1389 C1386 1.403 . S
C1389 C1390 1.392 . S
C1389 C1393 1.495 . S
C1390 C1389 1.392 . S
C1390 C1391 1.385 . S
C1390 C1392 1.478 . S
C1391 H1385 0.930 . S
C1391 C1387 1.400 . S
C1391 C1390 1.385 . S
C1392 C1390 1.478 . S
C1392 C1394 1.381 . S
C1392 C1398 1.383 . S
C1393 C1389 1.495 . S
C1393 H1399 0.959 . S
C1393 H1400 0.961 . S
C1393 H1401 0.960 . S
C1394 C1392 1.381 . S
C1394 C1395 1.394 . S
C1394 H1402 0.930 . S
C1395 C1394 1.394 . S
C1395 C1396 1.383 . S
C1395 H1403 0.929 . S
C1396 C1395 1.383 . S
C1396 C1397 1.377 . S
C1397 H1381 0.930 . S
C1397 C1396 1.377 . S
C1397 C1398 1.379 . S
C1398 H1382 0.931 . S
C1398 C1392 1.383 . S
C1398 C1397 1.379 . S
H1399 C1393 0.959 . S
H1400 C1393 0.961 . S
H1401 C1393 0.960 . S
H1402 C1394 0.930 . S
H1403 C1395 0.929 . S
H1404 C1412 0.929 . S
H1405 C1414 0.930 . S
H1406 C1416 0.930 . S
H1407 C1419 0.929 . S
H1408 C1422 0.930 . S
H1409 C1424 0.960 . S
H1410 C1424 0.960 . S
H1411 C1424 0.960 . S
C1412 H1404 0.929 . S
C1412 C1413 1.377 . S
C1412 C1414 1.384 . S
C1413 C1412 1.377 . S
C1413 C1419 1.390 . S
C1414 H1405 0.930 . S
C1414 C1412 1.384 . S
C1414 C1415 1.372 . S
C1415 C1414 1.372 . S
C1415 C1416 1.400 . S
C1415 C1420 1.490 . S
C1416 H1406 0.930 . S
C1416 C1415 1.400 . S
C1416 C1419 1.386 . S
H1417 C1433 0.930 . S
H1418 C1434 0.931 . S
C1419 H1407 0.929 . S
C1419 C1413 1.390 . S
C1419 C1416 1.386 . S
C1420 C1415 1.490 . S
C1420 C1422 1.395 . S
C1420 C1423 1.403 . S
H1421 C1427 0.930 . S
C1422 H1408 0.930 . S
C1422 C1420 1.395 . S
C1422 C1425 1.403 . S
C1423 C1420 1.403 . S
C1423 C1424 1.524 . S
C1423 C1427 1.400 . S
C1424 H1409 0.960 . S
C1424 H1410 0.960 . S
C1424 H1411 0.960 . S
C1424 C1423 1.524 . S
C1425 C1422 1.403 . S
C1425 C1426 1.392 . S
C1425 C1429 1.495 . S
C1426 C1425 1.392 . S
C1426 C1427 1.385 . S
C1426 C1428 1.478 . S
C1427 H1421 0.930 . S
C1427 C1423 1.400 . S
C1427 C1426 1.385 . S
C1428 C1426 1.478 . S
C1428 C1430 1.381 . S
C1428 C1434 1.383 . S
C1429 C1425 1.495 . S
C1429 H1435 0.959 . S
C1429 H1436 0.961 . S
C1429 H1437 0.960 . S
C1430 C1428 1.381 . S
C1430 C1431 1.394 . S
C1430 H1438 0.930 . S
C1431 C1430 1.394 . S
C1431 C1432 1.383 . S
C1431 H1439 0.929 . S
C1432 C1431 1.383 . S
C1432 C1433 1.377 . S
C1433 H1417 0.930 . S
C1433 C1432 1.377 . S
C1433 C1434 1.379 . S
C1434 H1418 0.931 . S
C1434 C1428 1.383 . S
C1434 C1433 1.379 . S
H1435 C1429 0.959 . S
H1436 C1429 0.961 . S
H1437 C1429 0.960 . S
H1438 C1430 0.930 . S
H1439 C1431 0.929 . S
H1440 C1448 0.929 . S
H1441 C1450 0.930 . S
H1442 C1452 0.930 . S
H1443 C1455 0.929 . S
H1444 C1458 0.930 . S
H1445 C1460 0.960 . S
H1446 C1460 0.960 . S
H1447 C1460 0.960 . S
C1448 H1440 0.929 . S
C1448 C1449 1.377 . S
C1448 C1450 1.384 . S
C1449 C1448 1.377 . S
C1449 C1455 1.390 . S
C1450 H1441 0.930 . S
C1450 C1448 1.384 . S
C1450 C1451 1.372 . S
C1451 C1450 1.372 . S
C1451 C1452 1.400 . S
C1451 C1456 1.490 . S
C1452 H1442 0.930 . S
C1452 C1451 1.400 . S
C1452 C1455 1.386 . S
H1453 C1469 0.930 . S
H1454 C1470 0.931 . S
C1455 H1443 0.929 . S
C1455 C1449 1.390 . S
C1455 C1452 1.386 . S
C1456 C1451 1.490 . S
C1456 C1458 1.395 . S
C1456 C1459 1.403 . S
H1457 C1463 0.930 . S
C1458 H1444 0.930 . S
C1458 C1456 1.395 . S
C1458 C1461 1.403 . S
C1459 C1456 1.403 . S
C1459 C1460 1.524 . S
C1459 C1463 1.400 . S
C1460 H1445 0.960 . S
C1460 H1446 0.960 . S
C1460 H1447 0.960 . S
C1460 C1459 1.524 . S
C1461 C1458 1.403 . S
C1461 C1462 1.392 . S
C1461 C1465 1.495 1_455 S
C1462 C1461 1.392 . S
C1462 C1463 1.385 . S
C1462 C1464 1.478 1_455 S
C1463 H1457 0.930 . S
C1463 C1459 1.400 . S
C1463 C1462 1.385 . S
C1464 C1462 1.478 1_655 S
C1464 C1466 1.381 . S
C1464 C1470 1.383 . S
C1465 C1461 1.495 1_655 S
C1465 H1471 0.959 . S
C1465 H1472 0.961 . S
C1465 H1473 0.960 . S
C1466 C1464 1.381 . S
C1466 C1467 1.394 . S
C1466 H1474 0.930 . S
C1467 C1466 1.394 . S
C1467 C1468 1.383 . S
C1467 H1475 0.929 . S
C1468 C1467 1.383 . S
C1468 C1469 1.377 . S
C1469 H1453 0.930 . S
C1469 C1468 1.377 . S
C1469 C1470 1.379 . S
C1470 H1454 0.931 . S
C1470 C1464 1.383 . S
C1470 C1469 1.379 . S
H1471 C1465 0.959 . S
H1472 C1465 0.961 . S
H1473 C1465 0.960 . S
H1474 C1466 0.930 . S
H1475 C1467 0.929 . S
H1476 C1484 0.929 . S
H1477 C1486 0.930 . S
H1478 C1488 0.930 . S
H1479 C1491 0.929 . S
H1480 C1494 0.930 . S
H1481 C1496 0.960 . S
H1482 C1496 0.960 . S
H1483 C1496 0.960 . S
C1484 H1476 0.929 . S
C1484 C1485 1.377 . S
C1484 C1486 1.384 . S
C1485 C1484 1.377 . S
C1485 C1491 1.390 . S
C1486 H1477 0.930 . S
C1486 C1484 1.384 . S
C1486 C1487 1.372 . S
C1487 C1486 1.372 . S
C1487 C1488 1.400 . S
C1487 C1492 1.490 . S
C1488 H1478 0.930 . S
C1488 C1487 1.400 . S
C1488 C1491 1.386 . S
H1489 C1505 0.930 . S
H1490 C1506 0.931 . S
C1491 H1479 0.929 . S
C1491 C1485 1.390 . S
C1491 C1488 1.386 . S
C1492 C1487 1.490 . S
C1492 C1494 1.395 . S
C1492 C1495 1.403 . S
H1493 C1499 0.930 . S
C1494 H1480 0.930 . S
C1494 C1492 1.395 . S
C1494 C1497 1.403 . S
C1495 C1492 1.403 . S
C1495 C1496 1.524 . S
C1495 C1499 1.400 . S
C1496 H1481 0.960 . S
C1496 H1482 0.960 . S
C1496 H1483 0.960 . S
C1496 C1495 1.524 . S
C1497 C1494 1.403 . S
C1497 C1498 1.392 . S
C1497 C1501 1.495 . S
C1498 C1497 1.392 . S
C1498 C1499 1.385 . S
C1498 C1500 1.478 . S
C1499 H1493 0.930 . S
C1499 C1495 1.400 . S
C1499 C1498 1.385 . S
C1500 C1498 1.478 . S
C1500 C1502 1.381 . S
C1500 C1506 1.383 . S
C1501 C1497 1.495 . S
C1501 H1507 0.959 . S
C1501 H1508 0.961 . S
C1501 H1509 0.960 . S
C1502 C1500 1.381 . S
C1502 C1503 1.394 . S
C1502 H1510 0.930 . S
C1503 C1502 1.394 . S
C1503 C1504 1.383 . S
C1503 H1511 0.929 . S
C1504 C1503 1.383 . S
C1504 C1505 1.377 . S
C1505 H1489 0.930 . S
C1505 C1504 1.377 . S
C1505 C1506 1.379 . S
C1506 H1490 0.931 . S
C1506 C1500 1.383 . S
C1506 C1505 1.379 . S
H1507 C1501 0.959 . S
H1508 C1501 0.961 . S
H1509 C1501 0.960 . S
H1510 C1502 0.930 . S
H1511 C1503 0.929 . S
H1512 C1520 0.929 . S
H1513 C1522 0.930 . S
H1514 C1524 0.930 . S
H1515 C1527 0.929 . S
H1516 C1530 0.930 . S
H1517 C1532 0.960 . S
H1518 C1532 0.960 . S
H1519 C1532 0.960 . S
C1520 H1512 0.929 . S
C1520 C1521 1.377 . S
C1520 C1522 1.384 . S
C1521 C1520 1.377 . S
C1521 C1527 1.390 . S
C1522 H1513 0.930 . S
C1522 C1520 1.384 . S
C1522 C1523 1.372 . S
C1523 C1522 1.372 . S
C1523 C1524 1.400 . S
C1523 C1528 1.490 . S
C1524 H1514 0.930 . S
C1524 C1523 1.400 . S
C1524 C1527 1.386 . S
H1525 C1541 0.930 . S
H1526 C1542 0.931 . S
C1527 H1515 0.929 . S
C1527 C1521 1.390 . S
C1527 C1524 1.386 . S
C1528 C1523 1.490 . S
C1528 C1530 1.395 . S
C1528 C1531 1.403 . S
H1529 C1535 0.930 . S
C1530 H1516 0.930 . S
C1530 C1528 1.395 . S
C1530 C1533 1.403 . S
C1531 C1528 1.403 . S
C1531 C1532 1.524 . S
C1531 C1535 1.400 . S
C1532 H1517 0.960 . S
C1532 H1518 0.960 . S
C1532 H1519 0.960 . S
C1532 C1531 1.524 . S
C1533 C1530 1.403 . S
C1533 C1534 1.392 . S
C1533 C1537 1.495 . S
C1534 C1533 1.392 . S
C1534 C1535 1.385 . S
C1534 C1536 1.478 . S
C1535 H1529 0.930 . S
C1535 C1531 1.400 . S
C1535 C1534 1.385 . S
C1536 C1534 1.478 . S
C1536 C1538 1.381 . S
C1536 C1542 1.383 . S
C1537 C1533 1.495 . S
C1537 H1543 0.959 . S
C1537 H1544 0.961 . S
C1537 H1545 0.960 . S
C1538 C1536 1.381 . S
C1538 C1539 1.394 . S
C1538 H1546 0.930 . S
C1539 C1538 1.394 . S
C1539 C1540 1.383 . S
C1539 H1547 0.929 . S
C1540 C1539 1.383 . S
C1540 C1541 1.377 . S
C1541 H1525 0.930 . S
C1541 C1540 1.377 . S
C1541 C1542 1.379 . S
C1542 H1526 0.931 . S
C1542 C1536 1.383 . S
C1542 C1541 1.379 . S
H1543 C1537 0.959 . S
H1544 C1537 0.961 . S
H1545 C1537 0.960 . S
H1546 C1538 0.930 . S
H1547 C1539 0.929 . S
H1548 C1556 0.929 . S
H1549 C1558 0.930 . S
H1550 C1560 0.930 . S
H1551 C1563 0.929 . S
H1552 C1566 0.930 . S
H1553 C1568 0.960 . S
H1554 C1568 0.960 . S
H1555 C1568 0.960 . S
C1556 H1548 0.929 . S
C1556 C1557 1.377 . S
C1556 C1558 1.384 . S
C1557 C1556 1.377 . S
C1557 C1563 1.390 . S
C1558 H1549 0.930 . S
C1558 C1556 1.384 . S
C1558 C1559 1.372 . S
C1559 C1558 1.372 . S
C1559 C1560 1.400 . S
C1559 C1564 1.490 . S
C1560 H1550 0.930 . S
C1560 C1559 1.400 . S
C1560 C1563 1.386 . S
H1561 C1577 0.930 . S
H1562 C1578 0.931 . S
C1563 H1551 0.929 . S
C1563 C1557 1.390 . S
C1563 C1560 1.386 . S
C1564 C1559 1.490 . S
C1564 C1566 1.395 . S
C1564 C1567 1.403 . S
H1565 C1571 0.930 . S
C1566 H1552 0.930 . S
C1566 C1564 1.395 . S
C1566 C1569 1.403 . S
C1567 C1564 1.403 . S
C1567 C1568 1.524 . S
C1567 C1571 1.400 . S
C1568 H1553 0.960 . S
C1568 H1554 0.960 . S
C1568 H1555 0.960 . S
C1568 C1567 1.524 . S
C1569 C1566 1.403 . S
C1569 C1570 1.392 . S
C1569 C1573 1.495 . S
C1570 C1569 1.392 . S
C1570 C1571 1.385 . S
C1570 C1572 1.478 . S
C1571 H1565 0.930 . S
C1571 C1567 1.400 . S
C1571 C1570 1.385 . S
C1572 C1570 1.478 . S
C1572 C1574 1.381 . S
C1572 C1578 1.383 . S
C1573 C1569 1.495 . S
C1573 H1579 0.959 . S
C1573 H1580 0.961 . S
C1573 H1581 0.960 . S
C1574 C1572 1.381 . S
C1574 C1575 1.394 . S
C1574 H1582 0.930 . S
C1575 C1574 1.394 . S
C1575 C1576 1.383 . S
C1575 H1583 0.929 . S
C1576 C1575 1.383 . S
C1576 C1577 1.377 . S
C1577 H1561 0.930 . S
C1577 C1576 1.377 . S
C1577 C1578 1.379 . S
C1578 H1562 0.931 . S
C1578 C1572 1.383 . S
C1578 C1577 1.379 . S
H1579 C1573 0.959 . S
H1580 C1573 0.961 . S
H1581 C1573 0.960 . S
H1582 C1574 0.930 . S
H1583 C1575 0.929 . S
H1584 C1592 0.929 . S
H1585 C1594 0.930 . S
H1586 C1596 0.930 . S
H1587 C1599 0.929 . S
H1588 C1602 0.930 . S
H1589 C1604 0.960 . S
H1590 C1604 0.960 . S
H1591 C1604 0.960 . S
C1592 H1584 0.929 . S
C1592 C1593 1.377 . S
C1592 C1594 1.384 . S
C1593 C1592 1.377 . S
C1593 C1599 1.390 . S
C1594 H1585 0.930 . S
C1594 C1592 1.384 . S
C1594 C1595 1.372 . S
C1595 C1594 1.372 . S
C1595 C1596 1.400 . S
C1595 C1600 1.490 . S
C1596 H1586 0.930 . S
C1596 C1595 1.400 . S
C1596 C1599 1.386 . S
H1597 C1613 0.930 1_545 S
H1598 C1614 0.931 . S
C1599 H1587 0.929 . S
C1599 C1593 1.390 . S
C1599 C1596 1.386 . S
C1600 C1595 1.490 . S
C1600 C1602 1.395 . S
C1600 C1603 1.403 . S
H1601 C1607 0.930 . S
C1602 H1588 0.930 . S
C1602 C1600 1.395 . S
C1602 C1605 1.403 . S
C1603 C1600 1.403 . S
C1603 C1604 1.524 . S
C1603 C1607 1.400 . S
C1604 H1589 0.960 . S
C1604 H1590 0.960 . S
C1604 H1591 0.960 . S
C1604 C1603 1.524 . S
C1605 C1602 1.403 . S
C1605 C1606 1.392 . S
C1605 C1609 1.495 . S
C1606 C1605 1.392 . S
C1606 C1607 1.385 . S
C1606 C1608 1.478 . S
C1607 H1601 0.930 . S
C1607 C1603 1.400 . S
C1607 C1606 1.385 . S
C1608 C1606 1.478 . S
C1608 C1610 1.381 . S
C1608 C1614 1.383 . S
C1609 C1605 1.495 . S
C1609 H1615 0.959 . S
C1609 H1616 0.961 . S
C1609 H1617 0.960 . S
C1610 C1608 1.381 . S
C1610 C1611 1.394 . S
C1610 H1618 0.930 . S
C1611 C1610 1.394 . S
C1611 C1612 1.383 . S
C1611 H1619 0.929 . S
C1612 C1611 1.383 . S
C1612 C1613 1.377 . S
C1613 H1597 0.930 1_565 S
C1613 C1612 1.377 . S
C1613 C1614 1.379 . S
C1614 H1598 0.931 . S
C1614 C1608 1.383 . S
C1614 C1613 1.379 . S
H1615 C1609 0.959 . S
H1616 C1609 0.961 . S
H1617 C1609 0.960 . S
H1618 C1610 0.930 . S
H1619 C1611 0.929 . S
H1620 C1628 0.929 . S
H1621 C1630 0.930 . S
H1622 C1632 0.930 . S
H1623 C1635 0.929 . S
H1624 C1638 0.930 . S
H1625 C1640 0.960 . S
H1626 C1640 0.960 1_565 S
H1627 C1640 0.960 1_565 S
C1628 H1620 0.929 . S
C1628 C1629 1.377 1_545 S
C1628 C1630 1.384 . S
C1629 C1628 1.377 1_565 S
C1629 C1635 1.390 . S
C1630 H1621 0.930 . S
C1630 C1628 1.384 . S
C1630 C1631 1.372 . S
C1631 C1630 1.372 . S
C1631 C1632 1.400 . S
C1631 C1636 1.490 . S
C1632 H1622 0.930 . S
C1632 C1631 1.400 . S
C1632 C1635 1.386 1_545 S
H1633 C1649 0.930 . S
H1634 C1650 0.931 . S
C1635 H1623 0.929 . S
C1635 C1629 1.390 . S
C1635 C1632 1.386 1_565 S
C1636 C1631 1.490 . S
C1636 C1638 1.395 . S
C1636 C1639 1.403 . S
H1637 C1643 0.930 . S
C1638 H1624 0.930 . S
C1638 C1636 1.395 . S
C1638 C1641 1.403 . S
C1639 C1636 1.403 . S
C1639 C1640 1.524 . S
C1639 C1643 1.400 . S
C1640 H1625 0.960 . S
C1640 H1626 0.960 1_545 S
C1640 H1627 0.960 1_545 S
C1640 C1639 1.524 . S
C1641 C1638 1.403 . S
C1641 C1642 1.392 . S
C1641 C1645 1.495 . S
C1642 C1641 1.392 . S
C1642 C1643 1.385 . S
C1642 C1644 1.478 . S
C1643 H1637 0.930 . S
C1643 C1639 1.400 . S
C1643 C1642 1.385 . S
C1644 C1642 1.478 . S
C1644 C1646 1.381 . S
C1644 C1650 1.383 1_655 S
C1645 C1641 1.495 . S
C1645 H1651 0.959 . S
C1645 H1652 0.961 . S
C1645 H1653 0.960 . S
C1646 C1644 1.381 . S
C1646 C1647 1.394 1_655 S
C1646 H1654 0.930 . S
C1647 C1646 1.394 1_455 S
C1647 C1648 1.383 . S
C1647 H1655 0.929 . S
C1648 C1647 1.383 . S
C1648 C1649 1.377 . S
C1649 H1633 0.930 . S
C1649 C1648 1.377 . S
C1649 C1650 1.379 . S
C1650 H1634 0.931 . S
C1650 C1644 1.383 1_455 S
C1650 C1649 1.379 . S
H1651 C1645 0.959 . S
H1652 C1645 0.961 . S
H1653 C1645 0.960 . S
H1654 C1646 0.930 . S
H1655 C1647 0.929 . S
C369 N6 1.034 . S
C388 N336 0.999 . S
C405 C271 1.996 . S
C424 C31 1.999 1_655 S
C441 N66 1.638 . S
C460 C241 1.722 . S
C477 C91 2.004 . S
C496 C301 1.998 . S
C513 N126 0.803 . S
C532 N306 0.803 . S
C549 N156 1.359 . S
C568 C331 1.399 . S
C585 N276 1.411 . S
C604 C181 1.479 . S
C621 N216 0.593 . S
C640 N246 0.705 . S
C657 N96 1.280 . S
C676 C121 1.353 . S
C693 C1 2.148 . S
C712 C151 2.169 . S
C729 N36 0.501 . S
C748 N186 0.605 . S
C765 C211 2.061 . S
C784 C61 2.048 1_554 S
C801 C16 0.932 . S
C820 C250 0.961 . S
C837 C57 1.215 . S
C856 C310 1.190 . S
C873 N344 0.666 . S
C892 C76 0.717 . S
C909 C117 1.550 . S
C928 C280 1.544 . S
C945 C136 0.683 . S
C964 N284 0.668 . S
C981 N254 0.749 . S
C1000 C166 0.716 . S
C1017 N314 0.914 . S
C1036 C207 0.911 . S
C1053 C340 0.936 . S
C1072 C226 0.970 . S
C1089 C10 1.406 . S
C1108 C106 1.425 . S
C1125 C27 0.816 . S
C1144 N44 0.809 . S
C1161 C46 1.486 . S
C1180 C70 1.462 . S
C1197 N104 1.006 . S
C1216 C87 0.973 1_554 S
C1233 C177 1.004 . S
C1252 C130 0.997 . S
C1269 C160 1.408 . S
C1288 C196 1.403 1_556 S
C1305 N194 0.655 . S
C1324 C237 0.660 . S
C1341 C147 0.988 . S
C1360 C220 0.963 . S
C1377 C256 1.230 . S
C1396 C100 1.231 . S
C1413 N164 1.230 . S
C1432 C297 1.197 . S
C1449 C267 0.861 . S
C1468 C190 0.882 . S
C1485 C327 0.957 . S
C1504 N224 0.948 . S
C1521 N134 0.312 . S
C1540 C346 0.407 . S
C1557 C357 0.692 . S
C1576 C40 0.646 . S
C1593 N74 1.030 . S
C1612 C286 1.038 1_565 S
C1629 C316 0.974 . S
C1648 N14 0.984 . S
