# Generated by pormake.
# Topology uni, (4)-cn, num edge types: 1
# Building blocks:
#     Node 0, Type 0, BuildingBlock: CEKHIL_clean_sbu_0, # of connection points: 4
#     Node 1, Type 0, BuildingBlock: CEKHIL_clean_sbu_0, # of connection points: 4
#     Node 2, Type 0, BuildingBlock: CEKHIL_clean_sbu_0, # of connection points: 4
#     Node 3, Type 0, BuildingBlock: CEKHIL_clean_sbu_0, # of connection points: 4
#     Node 4, Type 0, BuildingBlock: CEKHIL_clean_sbu_0, # of connection points: 4
#     Node 5, Type 0, BuildingBlock: CEKHIL_clean_sbu_0, # of connection points: 4
#     Edge 6, Type (0, 0), BuildingBlock: ZUJKAS_clean_linker_0, # of connection points: 2
#     Edge 7, Type (0, 0), BuildingBlock: ZUJKAS_clean_linker_0, # of connection points: 2
#     Edge 8, Type (0, 0), BuildingBlock: ZUJKAS_clean_linker_0, # of connection points: 2
#     Edge 9, Type (0, 0), BuildingBlock: ZUJKAS_clean_linker_0, # of connection points: 2
#     Edge 10, Type (0, 0), BuildingBlock: ZUJKAS_clean_linker_0, # of connection points: 2
#     Edge 11, Type (0, 0), BuildingBlock: ZUJKAS_clean_linker_0, # of connection points: 2
#     Edge 12, Type (0, 0), BuildingBlock: ZUJKAS_clean_linker_0, # of connection points: 2
#     Edge 13, Type (0, 0), BuildingBlock: ZUJKAS_clean_linker_0, # of connection points: 2
#     Edge 14, Type (0, 0), BuildingBlock: ZUJKAS_clean_linker_0, # of connection points: 2
#     Edge 15, Type (0, 0), BuildingBlock: ZUJKAS_clean_linker_0, # of connection points: 2
#     Edge 16, Type (0, 0), BuildingBlock: ZUJKAS_clean_linker_0, # of connection points: 2
#     Edge 17, Type (0, 0), BuildingBlock: ZUJKAS_clean_linker_0, # of connection points: 2
# Relax obj value: 0.072
# Max RMSD: 0.101
# Mean RMSD: 0.095
data_MOF--net-uni--node1-CEKHIL_clean_sbu_0--edge1-ZUJKAS_clean_linker_0
_symmetry_space_group_name_H-M    P1
_symmetry_Int_Tables_number       1
_symmetry_cell_setting            triclinic
loop_
_symmetry_equiv_pos_as_xyz
'x, y, z'
_cell_length_a     50.063779
_cell_length_b     49.638242
_cell_length_c     29.919714
_cell_angle_alpha  89.997768
_cell_angle_beta   90.035996
_cell_angle_gamma 120.93205
loop_
_atom_site_label
_atom_site_type_symbol
_atom_site_fract_x
_atom_site_fract_y
_atom_site_fract_z
_atom_type_partial_charge
Co0 Co 0.66256 0.0366 0.08315 0.0
O1 O 0.67828 0.01723 0.12311 0.0
O2 O 0.64089 0.99164 0.0734 0.0
C3 C 0.7099 0.07661 0.06139 0.0
O4 O 0.6409 0.04756 0.0345 0.0
Co5 Co 0.67528 0.1041 0.09605 0.0
O6 O 0.65795 0.09914 0.03497 0.0
C7 C 0.62832 0.05247 0.15293 0.0
C8 C 0.6588 0.99072 0.10406 0.0
C9 C 0.6422 0.07202 0.01727 0.0
O10 O 0.63091 0.03201 0.12969 0.0
O11 O 0.64548 0.08212 0.14649 0.0
O12 O 0.6979 0.0491 0.04287 0.0
O13 O 0.6941 0.07847 0.09407 0.0
Co14 Co 0.65959 0.6663 0.24735 0.0
O15 O 0.6961 0.68279 0.28545 0.0
O16 O 0.68179 0.6445 0.23641 0.0
C17 C 0.66668 0.7134 0.22554 0.0
O18 O 0.62537 0.64366 0.20047 0.0
Co19 Co 0.60511 0.67794 0.26369 0.0
O20 O 0.59034 0.65901 0.20367 0.0
C21 C 0.61128 0.63255 0.32056 0.0
C22 C 0.70167 0.66259 0.26651 0.0
C23 C 0.6014 0.64376 0.18495 0.0
O24 O 0.63308 0.63461 0.2951 0.0
O25 O 0.5993 0.64976 0.3154 0.0
O26 O 0.68193 0.70195 0.20606 0.0
O27 O 0.64985 0.69745 0.25911 0.0
Co28 Co 0.02776 0.66131 0.3867 0.0
O29 O 1.00808 0.67772 0.34868 0.0
O30 O 0.98298 0.6382 0.3957 0.0
C31 C 0.06691 0.70865 0.41099 0.0
O32 O 0.03939 0.63873 0.43321 0.0
Co33 Co 0.09554 0.67651 0.37158 0.0
O34 O 0.0908 0.65702 0.4311 0.0
C35 C 0.04494 0.63099 0.31228 0.0
C36 C 0.98176 0.6569 0.36643 0.0
C37 C 0.06412 0.64026 0.44908 0.0
O38 O 0.02419 0.63121 0.33768 0.0
O39 O 0.07424 0.64926 0.31843 0.0
O40 O 0.03955 0.69574 0.42949 0.0
O41 O 0.0689 0.69388 0.37694 0.0
Co42 Co 0.39593 0.02495 0.58265 0.0
O43 O 0.37998 0.04438 0.62202 0.0
O44 O 0.41737 0.06985 0.57235 0.0
C45 C 0.34867 0.9846 0.56112 0.0
O46 O 0.41781 0.01385 0.53457 0.0
Co47 Co 0.38351 0.95766 0.59699 0.0
O48 O 0.40195 0.96256 0.53675 0.0
C49 C 0.4295 0.00972 0.65425 0.0
C50 C 0.39939 0.07084 0.60281 0.0
C51 C 0.41727 0.98948 0.51841 0.0
O52 O 0.42755 0.03002 0.62963 0.0
O53 O 0.41211 0.98003 0.6485 0.0
O54 O 0.36054 0.01193 0.5421 0.0
O55 O 0.36455 0.98314 0.59402 0.0
Co56 Co 0.40016 0.39585 0.74714 0.0
O57 O 0.36395 0.37945 0.7858 0.0
O58 O 0.37788 0.41764 0.73674 0.0
C59 C 0.39272 0.34861 0.72521 0.0
O60 O 0.43393 0.41835 0.69964 0.0
Co61 Co 0.45473 0.38409 0.76164 0.0
O62 O 0.46785 0.40155 0.70059 0.0
C63 C 0.45 0.43049 0.81839 0.0
C64 C 0.35819 0.39955 0.76698 0.0
C65 C 0.45707 0.41732 0.68276 0.0
O66 O 0.42714 0.42762 0.7946 0.0
O67 O 0.4623 0.41366 0.8122 0.0
O68 O 0.37737 0.36011 0.7061 0.0
O69 O 0.40995 0.36466 0.75847 0.0
Co70 Co 0.03116 0.39918 0.8866 0.0
O71 O 0.05092 0.38347 0.84747 0.0
O72 O 0.07591 0.4222 0.89577 0.0
C73 C 0.99211 0.35135 0.90944 0.0
O74 O 0.01958 0.42105 0.93433 0.0
Co75 Co 0.96326 0.38408 0.87347 0.0
O76 O 0.96789 0.40113 0.93477 0.0
C77 C 0.01377 0.43201 0.81609 0.0
C78 C 0.0772 0.40396 0.86575 0.0
C79 C 0.99479 0.41836 0.9519 0.0
O80 O 0.03463 0.43013 0.83906 0.0
O81 O 0.98449 0.41418 0.82297 0.0
O82 O 0.01944 0.36407 0.92802 0.0
O83 O 0.99 0.3667 0.87625 0.0
H84 H 0.59046 0.99277 0.18726 0.0
H85 H 0.55086 0.97683 0.24617 0.0
H86 H 0.5721 0.07241 0.25767 0.0
H87 H 0.61119 0.08849 0.19946 0.0
H88 H 0.5596 1.00093 0.33645 0.0
H89 H 0.47672 0.02164 0.24154 0.0
H90 H 0.50681 0.01761 0.21471 0.0
H91 H 0.51607 0.05425 0.24014 0.0
C92 C 0.58657 0.01034 0.20219 0.0
C93 C 0.60407 0.04192 0.18838 0.0
C94 C 0.56397 1.0012 0.23586 0.0
C95 C 0.55819 0.02336 0.25579 0.0
C96 C 0.57571 0.05479 0.24221 0.0
H97 H 0.45373 0.04269 0.4687 0.0
H98 H 0.48658 0.0485 0.40451 0.0
C99 C 0.59829 0.06396 0.20898 0.0
C100 C 0.53471 0.01436 0.29189 0.0
H101 H 0.4701 0.01709 0.32086 0.0
C102 C 0.53974 1.00397 0.33291 0.0
C103 C 0.50891 0.01852 0.28724 0.0
C104 C 0.50156 0.02833 0.2434 0.0
C105 C 0.52042 0.9989 0.36998 0.0
C106 C 0.49509 1.00386 0.36563 0.0
C107 C 0.48961 0.01347 0.32425 0.0
C108 C 0.47444 0.99991 0.40393 0.0
C109 C 0.52803 0.98953 0.41398 0.0
C110 C 0.45621 0.97053 0.42441 0.0
C111 C 0.43737 0.96709 0.46109 0.0
C112 C 0.43623 0.99298 0.47807 0.0
C113 C 0.45404 0.02226 0.45676 0.0
C114 C 0.47285 0.02564 0.42 0.0
H115 H 0.55206 0.99369 0.41443 0.0
H116 H 0.52554 1.0027 0.44206 0.0
H117 H 0.51159 0.96412 0.41974 0.0
H118 H 0.45657 0.95021 0.41205 0.0
H119 H 0.4239 0.94413 0.47634 0.0
H120 H 0.5673 0.62387 0.38202 0.0
H121 H 0.54362 0.58382 0.43949 0.0
H122 H 0.60089 0.54632 0.39993 0.0
H123 H 0.62521 0.58683 0.3417 0.0
H124 H 0.51047 0.51753 0.42522 0.0
H125 H 0.61266 0.55747 0.53791 0.0
H126 H 0.61112 0.58281 0.49597 0.0
H127 H 0.61793 0.55204 0.47981 0.0
C128 C 0.57517 0.60732 0.38538 0.0
C129 C 0.59827 0.6087 0.35694 0.0
C130 C 0.56147 0.58434 0.41839 0.0
C131 C 0.57054 0.56217 0.42417 0.0
C132 C 0.5938 0.56346 0.39636 0.0
H133 H 0.50336 0.41773 0.63306 0.0
H134 H 0.53016 0.45008 0.56782 0.0
C135 C 0.60761 0.58658 0.36303 0.0
C136 C 0.5547 0.53744 0.45877 0.0
H137 H 0.56527 0.51368 0.56101 0.0
C138 C 0.52249 0.5165 0.45477 0.0
C139 C 0.57044 0.53603 0.49713 0.0
C140 C 0.60491 0.55834 0.50341 0.0
C141 C 0.50547 0.49457 0.48843 0.0
C142 C 0.52095 0.49402 0.52772 0.0
C143 C 0.55337 0.51423 0.53103 0.0
C144 C 0.5038 0.47352 0.56642 0.0
C145 C 0.47107 0.47216 0.48144 0.0
C146 C 0.48011 0.47601 0.58761 0.0
C147 C 0.46457 0.45741 0.62482 0.0
C148 C 0.47265 0.43617 0.64208 0.0
C149 C 0.49646 0.4338 0.62078 0.0
C150 C 0.51188 0.45231 0.58345 0.0
H151 H 0.46501 0.46873 0.44533 0.0
H152 H 0.46338 0.44891 0.49673 0.0
H153 H 0.45789 0.48202 0.49723 0.0
H154 H 0.47396 0.49275 0.57584 0.0
H155 H 0.44659 0.46012 0.64048 0.0
H156 H 0.07204 0.47014 0.7787 0.0
H157 H 0.08601 0.50947 0.71923 0.0
H158 H 0.99088 0.48761 0.7137 0.0
H159 H 0.97678 0.44885 0.77238 0.0
H160 H 0.05922 0.49921 0.63049 0.0
H161 H 0.04131 0.58397 0.7268 0.0
H162 H 0.04634 0.55416 0.75328 0.0
H163 H 1.00914 0.54429 0.73046 0.0
C164 C 0.05418 0.47386 0.76496 0.0
C165 C 0.02329 0.45623 0.78049 0.0
C166 C 0.06218 0.4963 0.73098 0.0
C167 C 0.03955 0.50179 0.71255 0.0
C168 C 1.00884 0.48422 0.72797 0.0
H169 H 0.01236 0.60261 0.5003 0.0
H170 H 1.00858 0.57018 0.56453 0.0
C171 C 1.00081 0.46181 0.76145 0.0
C172 C 0.04721 0.52489 0.67597 0.0
H173 H 0.04267 0.58907 0.64716 0.0
C174 C 0.05612 0.51917 0.63424 0.0
C175 C 0.04293 0.5508 0.68089 0.0
C176 C 0.03469 0.55891 0.72539 0.0
C177 C 0.05959 0.53789 0.59685 0.0
C178 C 0.05448 0.56328 0.60152 0.0
C179 C 0.04636 0.56948 0.64353 0.0
C180 C 0.05703 0.58342 0.56303 0.0
C181 C 0.06751 0.5296 0.55223 0.0
C182 C 0.08563 0.60204 0.54135 0.0
C183 C 0.08791 0.62063 0.50473 0.0
C184 C 0.06161 0.6211 0.48894 0.0
C185 C 0.03306 0.60277 0.51129 0.0
C186 C 0.03085 0.58424 0.54808 0.0
H187 H 0.06384 0.50554 0.55213 0.0
H188 H 0.05321 0.53125 0.52518 0.0
H189 H 0.09236 0.54642 0.54453 0.0
H190 H 0.10626 0.60223 0.5528 0.0
H191 H 0.11035 0.63449 0.48865 0.0
H192 H 0.60074 0.01764 0.97346 0.0
H193 H 0.56838 0.0119 0.90877 0.0
H194 H 0.60893 0.11231 0.90362 0.0
H195 H 0.64102 0.11832 0.96873 0.0
H196 H 0.54551 0.08096 0.8969 0.0
H197 H 0.59271 0.03024 0.77828 0.0
H198 H 0.57986 0.00867 0.82969 0.0
H199 H 0.61205 0.04859 0.83006 0.0
C200 C 0.60304 0.03857 0.9584 0.0
C201 C 0.62362 0.06845 0.97643 0.0
C202 C 0.5846 0.03525 0.92119 0.0
C203 C 0.58654 0.06172 0.90083 0.0
C204 C 0.60711 0.09156 0.91859 0.0
H205 H 0.47396 0.07043 0.67854 0.0
H206 H 0.51391 0.08661 0.73698 0.0
C207 C 0.6255 0.09492 0.95586 0.0
C208 C 0.56616 0.05811 0.86224 0.0
H209 H 0.54428 0.02567 0.75816 0.0
C210 C 0.5455 0.06924 0.86631 0.0
C211 C 0.56631 0.04302 0.82217 0.0
C212 C 0.58914 0.03223 0.81451 0.0
C213 C 0.52401 0.06434 0.83233 0.0
C214 C 0.52339 0.04819 0.79303 0.0
C215 C 0.54471 0.03798 0.78837 0.0
C216 C 0.49919 0.03925 0.75799 0.0
C217 C 0.50121 0.07524 0.83947 0.0
C218 C 0.47789 0.00737 0.75018 0.0
C219 C 0.45523 0.99809 0.71702 0.0
C220 C 0.4533 0.02048 0.69043 0.0
C221 C 0.47464 0.05255 0.6984 0.0
C222 C 0.49743 0.06185 0.73188 0.0
H223 H 0.50132 0.08262 0.87455 0.0
H224 H 0.50746 0.09557 0.81732 0.0
H225 H 0.47723 0.05629 0.83071 0.0
H226 H 0.47878 0.98953 0.7699 0.0
H227 H 0.43933 0.97317 0.71215 0.0
H228 H 0.61689 0.6072 0.13544 0.0
H229 H 0.5887 0.57341 0.07196 0.0
H230 H 0.5206 0.60168 0.08066 0.0
H231 H 0.54876 0.63586 0.14378 0.0
H232 H 0.52728 0.52316 0.07244 0.0
H233 H 0.54222 0.61269 0.94739 0.0
H234 H 0.56573 0.62265 0.99731 0.0
H235 H 0.52658 0.61497 1.00033 0.0
C236 C 0.59609 0.60653 0.12368 0.0
C237 C 0.58518 0.62436 0.14489 0.0
C238 C 0.57998 0.58715 0.08735 0.0
C239 C 0.55272 0.58527 0.07118 0.0
C240 C 0.54189 0.6032 0.09193 0.0
H241 H 0.42722 0.46604 0.85473 0.0
H242 H 0.44969 0.50373 0.91692 0.0
C243 C 0.55799 0.62262 0.12827 0.0
C244 C 0.53487 0.56323 0.03421 0.0
H245 H 0.50978 0.55938 0.92673 0.0
C246 C 0.52344 0.53111 0.04062 0.0
C247 C 0.5295 0.57355 0.99286 0.0
C248 C 0.54182 0.60786 0.98372 0.0
C249 C 0.50715 0.50908 0.00675 0.0
C250 C 0.50263 0.51947 0.9649 0.0
C251 C 0.51325 0.55147 0.95882 0.0
C252 C 0.48918 0.4977 0.92624 0.0
C253 C 0.49492 0.4748 0.01614 0.0
C254 C 0.5043 0.48248 0.9102 0.0
C255 C 0.49158 0.46104 0.87511 0.0
C256 C 0.46347 0.45439 0.85467 0.0
C257 C 0.44878 0.47045 0.86979 0.0
C258 C 0.46159 0.49198 0.90529 0.0
H259 H 0.49173 0.4697 0.05254 0.0
H260 H 0.47235 0.45957 0.99897 0.0
H261 H 0.51194 0.46854 0.00376 0.0
H262 H 0.52601 0.4871 0.92503 0.0
H263 H 0.50394 0.44962 0.86411 0.0
H264 H 0.04792 0.4668 0.98957 0.0
H265 H 0.05171 0.50028 0.05234 0.0
H266 H 0.95196 0.44688 0.06764 0.0
H267 H 0.94783 0.41328 0.00506 0.0
H268 H 0.02019 0.53627 0.05509 0.0
H269 H 0.98683 0.45214 0.19654 0.0
H270 H 1.00085 0.44638 0.14388 0.0
H271 H 0.96184 0.43882 0.14824 0.0
C272 C 0.02679 0.46189 0.00656 0.0
C273 C 0.99756 0.43732 0.99207 0.0
C274 C 0.02901 0.48111 0.04238 0.0
C275 C 1.00214 0.47592 0.06484 0.0
C276 C 0.97301 0.45107 0.05115 0.0
H277 H 0.98619 0.58134 0.29112 0.0
H278 H 0.97233 0.5432 0.22997 0.0
C279 C 0.97073 0.43198 0.01516 0.0
C280 C 1.00449 0.49761 0.10089 0.0
H281 H 0.99564 0.50255 0.21334 0.0
C282 C 0.01476 0.52889 0.08967 0.0
C283 C 0.99692 0.48779 0.14586 0.0
C284 C 0.98616 0.45452 0.15969 0.0
C285 C 0.01809 0.55076 0.12228 0.0
C286 C 0.01167 0.5413 0.16756 0.0
C287 C 1.00051 0.50976 0.17864 0.0
C288 C 0.01925 0.56445 0.20409 0.0
C289 C 0.0285 0.58386 0.10789 0.0
C290 C 0.05014 0.58878 0.21004 0.0
C291 C 0.05807 0.61044 0.24458 0.0
C292 C 0.03533 0.60829 0.27453 0.0
C293 C 1.00425 0.58384 0.26859 0.0
C294 C 0.99632 0.56198 0.23378 0.0
H295 H 0.02272 0.58473 0.07226 0.0
H296 H 0.01757 0.59412 0.12871 0.0
H297 H 0.05415 0.5987 0.11159 0.0
H298 H 0.06834 0.5908 0.1882 0.0
H299 H 0.08227 0.62878 0.2479 0.0
H300 H 0.63988 0.74282 0.26561 0.0
H301 H 0.6386 0.78872 0.2399 0.0
H302 H 0.69113 0.7938 0.12274 0.0
H303 H 0.69316 0.74794 0.14906 0.0
H304 H 0.71265 0.85135 0.15903 0.0
H305 H 0.58472 0.79201 0.14291 0.0
H306 H 0.59603 0.78737 0.19789 0.0
H307 H 0.60455 0.77058 0.15058 0.0
C308 C 0.65111 0.75357 0.23426 0.0
C309 C 0.66646 0.74156 0.20923 0.0
C310 C 0.65015 0.77975 0.21941 0.0
C311 C 0.6641 0.79437 0.17882 0.0
C312 C 0.67993 0.78277 0.15399 0.0
H313 H 0.62772 0.93419 0.06046 0.0
H314 H 0.62991 0.88688 0.07563 0.0
C315 C 0.68108 0.75657 0.16903 0.0
C316 C 0.66275 0.82221 0.16332 0.0
H317 H 0.61241 0.84832 0.14478 0.0
C318 C 0.69071 0.8506 0.15548 0.0
C319 C 0.63415 0.82124 0.15781 0.0
C320 C 0.60317 0.79107 0.16226 0.0
C321 C 0.6909 0.87819 0.14398 0.0
C322 C 0.66235 0.87767 0.14135 0.0
C323 C 0.63435 0.84899 0.14752 0.0
C324 C 0.66095 0.90651 0.13237 0.0
C325 C 0.72173 0.90752 0.13426 0.0
C326 C 0.67708 0.9332 0.15973 0.0
C327 C 0.67604 0.96037 0.1509 0.0
C328 C 0.65841 0.96131 0.11497 0.0
C329 C 0.64151 0.93427 0.08843 0.0
C330 C 0.64279 0.90719 0.09703 0.0
H331 H 0.7395 0.90179 0.12361 0.0
H332 H 0.71942 0.92184 0.10772 0.0
H333 H 0.73041 0.92193 0.16508 0.0
H334 H 0.69047 0.93305 0.18805 0.0
H335 H 0.68914 0.98068 0.17222 0.0
H336 H 0.92245 0.61346 0.39348 0.0
H337 H 0.87401 0.61224 0.37582 0.0
H338 H 0.92575 0.69673 0.29775 0.0
H339 H 0.97399 0.69759 0.31421 0.0
H340 H 0.8556 0.653 0.39459 0.0
H341 H 0.85821 0.64227 0.21081 0.0
H342 H 0.88383 0.63699 0.24738 0.0
H343 H 0.89291 0.67586 0.23185 0.0
C344 C 0.92347 0.6316 0.37218 0.0
C345 C 0.95211 0.65547 0.35496 0.0
C346 C 0.89573 0.63093 0.36219 0.0
C347 C 0.89599 0.65408 0.33475 0.0
C348 C 0.92466 0.67809 0.31794 0.0
H349 H 0.75057 0.70157 0.32101 0.0
H350 H 0.79694 0.69886 0.33823 0.0
C351 C 0.95233 0.67865 0.32763 0.0
C352 C 0.86652 0.65369 0.32485 0.0
H353 H 0.82203 0.65563 0.2395 0.0
C354 C 0.84819 0.65338 0.36065 0.0
C355 C 0.85642 0.65371 0.28058 0.0
C356 C 0.87369 0.65189 0.24047 0.0
C357 C 0.82057 0.65377 0.35349 0.0
C358 C 0.81127 0.65526 0.30925 0.0
C359 C 0.82924 0.65489 0.27345 0.0
C360 C 0.78285 0.65688 0.29922 0.0
C361 C 0.80136 0.65194 0.39348 0.0
C362 C 0.75971 0.63479 0.27049 0.0
C363 C 0.73335 0.63656 0.26009 0.0
C364 C 0.72946 0.66049 0.27817 0.0
C365 C 0.75265 0.68266 0.30683 0.0
C366 C 0.77914 0.681 0.31697 0.0
H367 H 0.80623 0.64137 0.42279 0.0
H368 H 0.80729 0.67601 0.40296 0.0
H369 H 0.77607 0.63789 0.38595 0.0
H370 H 0.762 0.61603 0.25614 0.0
H371 H 0.716 0.61913 0.23784 0.0
H372 H 0.12457 0.74057 0.37376 0.0
H373 H 0.17082 0.78746 0.40182 0.0
H374 H 0.11899 0.78876 0.51602 0.0
H375 H 0.07206 0.74184 0.48745 0.0
H376 H 0.15607 0.84769 0.47947 0.0
H377 H 0.22499 0.7904 0.50439 0.0
H378 H 0.21039 0.78582 0.44844 0.0
H379 H 0.18357 0.76834 0.49429 0.0
C380 C 0.12292 0.75072 0.40494 0.0
C381 C 0.09466 0.73732 0.42857 0.0
C382 C 0.1495 0.77749 0.42106 0.0
C383 C 0.14861 0.79131 0.46151 0.0
C384 C 0.12028 0.77836 0.48489 0.0
H385 H 0.31709 0.9274 0.60159 0.0
H386 H 0.26778 0.8815 0.57895 0.0
C387 C 0.09352 0.75155 0.46859 0.0
C388 C 0.17729 0.8194 0.47883 0.0
H389 H 0.25321 0.84641 0.50618 0.0
C390 C 0.17726 0.84738 0.48565 0.0
C391 C 0.20485 0.81892 0.48751 0.0
C392 C 0.20594 0.78918 0.48374 0.0
C393 C 0.20423 0.87505 0.49981 0.0
C394 C 0.2322 0.87492 0.50639 0.0
C395 C 0.23195 0.84671 0.50058 0.0
C396 C 0.26184 0.90346 0.52032 0.0
C397 C 0.2023 0.90397 0.50828 0.0
C398 C 0.27525 0.93115 0.49473 0.0
C399 C 0.30345 0.95763 0.50786 0.0
C400 C 0.31899 0.95675 0.54648 0.0
C401 C 0.30574 0.92888 0.57164 0.0
C402 C 0.2775 0.90258 0.55874 0.0
H403 H 0.17794 0.89788 0.51451 0.0
H404 H 0.21683 0.91743 0.53737 0.0
H405 H 0.21088 0.91937 0.4784 0.0
H406 H 0.26411 0.93221 0.4643 0.0
H407 H 0.31317 0.97868 0.48762 0.0
H408 H 0.42035 0.31955 0.76397 0.0
H409 H 0.42125 0.27354 0.73786 0.0
H410 H 0.36649 0.26753 0.62282 0.0
H411 H 0.36489 0.31354 0.64954 0.0
H412 H 0.34576 0.21022 0.65974 0.0
H413 H 0.47332 0.26971 0.63845 0.0
H414 H 0.46309 0.27482 0.69391 0.0
H415 H 0.45354 0.29111 0.64704 0.0
C416 C 0.40854 0.30858 0.733 0.0
C417 C 0.3927 0.32038 0.70868 0.0
C418 C 0.40929 0.28233 0.71791 0.0
C419 C 0.39459 0.26741 0.67779 0.0
C420 C 0.37827 0.2788 0.65369 0.0
H421 H 0.42952 0.12694 0.55806 0.0
H422 H 0.42731 0.17426 0.57313 0.0
C423 C 0.37736 0.30509 0.66896 0.0
C424 C 0.39571 0.23949 0.66204 0.0
H425 H 0.44582 0.21343 0.64129 0.0
C426 C 0.36764 0.211 0.65526 0.0
C427 C 0.42423 0.24051 0.65531 0.0
C428 C 0.45523 0.27077 0.65858 0.0
C429 C 0.36731 0.18334 0.64365 0.0
C430 C 0.39584 0.18393 0.63983 0.0
C431 C 0.4239 0.21271 0.64493 0.0
C432 C 0.39716 0.15504 0.63079 0.0
C433 C 0.33633 0.15389 0.63509 0.0
C434 C 0.38154 0.12858 0.65865 0.0
C435 C 0.38255 0.1014 0.64985 0.0
C436 C 0.3997 0.10024 0.61347 0.0
C437 C 0.41611 0.12704 0.58639 0.0
C438 C 0.41482 0.15412 0.59493 0.0
H439 H 0.31835 0.15948 0.62503 0.0
H440 H 0.33816 0.13929 0.60854 0.0
H441 H 0.32823 0.13983 0.66627 0.0
H442 H 0.36857 0.12893 0.68737 0.0
H443 H 0.36986 0.08127 0.6716 0.0
H444 H 0.08504 0.36382 0.81235 0.0
H445 H 0.13314 0.36407 0.79703 0.0
H446 H 0.18469 0.44763 0.87713 0.0
H447 H 0.13644 0.44696 0.89367 0.0
H448 H 0.18576 0.40489 0.75617 0.0
H449 H 0.21322 0.39272 0.9317 0.0
H450 H 0.17625 0.38773 0.9154 0.0
H451 H 0.20964 0.42648 0.923 0.0
C452 C 0.1066 0.38228 0.82675 0.0
C453 C 0.10681 0.40527 0.85448 0.0
C454 C 0.13415 0.38239 0.81794 0.0
C455 C 0.16261 0.40549 0.83659 0.0
C456 C 0.163 0.42901 0.86331 0.0
H457 H 0.34383 0.44325 0.73955 0.0
H458 H 0.29717 0.44533 0.75681 0.0
C459 C 0.13539 0.42877 0.87244 0.0
C460 C 0.19176 0.40506 0.82744 0.0
H461 H 0.25242 0.40366 0.87786 0.0
C462 C 0.20028 0.40457 0.78283 0.0
C463 C 0.21058 0.4041 0.86211 0.0
C464 C 0.20184 0.40246 0.91072 0.0
C465 C 0.22707 0.40348 0.77194 0.0
C466 C 0.24653 0.40373 0.80659 0.0
C467 C 0.23782 0.40385 0.85122 0.0
C468 C 0.2756 0.40319 0.79729 0.0
C469 C 0.23372 0.4012 0.72334 0.0
C470 C 0.27984 0.37957 0.81568 0.0
C471 C 0.30681 0.37862 0.8064 0.0
C472 C 0.33018 0.40126 0.77847 0.0
C473 C 0.32619 0.42525 0.76083 0.0
C474 C 0.29935 0.42634 0.77042 0.0
H475 H 0.21236 0.39187 0.70255 0.0
H476 H 0.25084 0.42497 0.71069 0.0
H477 H 0.24358 0.38582 0.7188 0.0
H478 H 0.26203 0.36153 0.83673 0.0
H479 H 0.30912 0.35985 0.82062 0.0
H480 H 0.98623 0.31835 0.98643 0.0
H481 H 0.93931 0.27103 0.01379 0.0
H482 H 0.88894 0.27127 0.89691 0.0
H483 H 0.93518 0.31871 0.87022 0.0
H484 H 0.85569 0.26247 0.97047 0.0
H485 H 0.9007 0.18107 0.97254 0.0
H486 H 0.92338 0.2159 0.00535 0.0
H487 H 0.92128 0.21899 0.94571 0.0
C488 C 0.96517 0.30817 0.96654 0.0
C489 C 0.96444 0.32226 0.92616 0.0
C490 C 0.93841 0.281 0.98203 0.0
C491 C 0.91063 0.26724 0.9571 0.0
C492 C 0.91003 0.28133 0.91674 0.0
H493 H 0.74533 0.08117 0.98862 0.0
H494 H 0.79395 0.12748 0.96353 0.0
C495 C 0.93656 0.3085 0.9015 0.0
C496 C 0.88169 0.23889 0.97336 0.0
H497 H 0.85066 0.16216 0.00428 0.0
C498 C 0.85463 0.24054 0.97782 0.0
C499 C 0.8801 0.21009 0.98235 0.0
C500 C 0.90781 0.20619 0.97586 0.0
C501 C 0.82617 0.21438 0.99111 0.0
C502 C 0.82479 0.18586 1.00146 0.0
C503 C 0.85176 0.18408 0.99672 0.0
C504 C 0.79552 0.15763 0.01701 0.0
C505 C 0.79768 0.21741 0.99279 0.0
C506 C 0.7804 0.159 0.0557 0.0
C507 C 0.75253 0.13273 0.0698 0.0
C508 C 0.73937 0.10433 0.04589 0.0
C509 C 0.75481 0.10274 0.00765 0.0
C510 C 0.78264 0.12916 0.99336 0.0
H511 H 0.80052 0.23713 0.97168 0.0
H512 H 0.7766 0.19545 0.98149 0.0
H513 H 0.79386 0.22219 0.0277 0.0
H514 H 0.79022 0.18041 0.07516 0.0
H515 H 0.74141 0.13465 0.09967 0.0
loop_
_geom_bond_atom_site_label_1
_geom_bond_atom_site_label_2
_geom_bond_distance
_geom_bond_site_symmetry_2
_ccdc_geom_bond_type
Co0 O1 2.216 . S
Co0 O2 2.091 1_545 S
Co0 O4 2.004 . S
Co0 O10 2.021 . S
Co0 O12 2.137 . S
Co0 O13 2.244 . S
O1 Co0 2.216 . S
O1 C8 1.247 1_545 S
O2 Co0 2.091 1_565 S
O2 C8 1.261 . S
C3 O12 1.247 . S
C3 O13 1.272 . S
O4 Co0 2.004 . S
O4 C9 1.259 1_554 S
Co5 O6 2.061 . S
Co5 O11 2.052 . S
Co5 O13 2.135 . S
O6 Co5 2.061 . S
O6 C9 1.235 1_554 S
C7 O10 1.238 . S
C7 O11 1.241 . S
C8 O1 1.247 1_565 S
C8 O2 1.261 . S
C9 O4 1.259 1_556 S
C9 O6 1.235 1_556 S
O10 Co0 2.021 . S
O10 C7 1.238 . S
O11 Co5 2.052 . S
O11 C7 1.241 . S
O12 Co0 2.137 . S
O12 C3 1.247 . S
O13 Co0 2.244 . S
O13 C3 1.272 . S
O13 Co5 2.135 . S
Co14 O15 2.216 . S
Co14 O16 2.091 . S
Co14 O18 2.004 . S
Co14 O24 2.021 . S
Co14 O26 2.137 . S
Co14 O27 2.244 . S
O15 Co14 2.216 . S
O15 C22 1.247 . S
O16 Co14 2.091 . S
O16 C22 1.261 . S
C17 O26 1.247 . S
C17 O27 1.272 . S
O18 Co14 2.004 . S
O18 C23 1.259 . S
Co19 O20 2.061 . S
Co19 O25 2.052 . S
Co19 O27 2.135 . S
O20 Co19 2.061 . S
O20 C23 1.235 . S
C21 O24 1.238 . S
C21 O25 1.241 . S
C22 O15 1.247 . S
C22 O16 1.261 . S
C23 O18 1.259 . S
C23 O20 1.235 . S
O24 Co14 2.021 . S
O24 C21 1.238 . S
O25 Co19 2.052 . S
O25 C21 1.241 . S
O26 Co14 2.137 . S
O26 C17 1.247 . S
O27 Co14 2.244 . S
O27 C17 1.272 . S
O27 Co19 2.135 . S
Co28 O29 2.205 1_455 S
Co28 O30 2.091 1_455 S
Co28 O32 2.004 . S
Co28 O38 2.021 . S
Co28 O40 2.137 . S
Co28 O41 2.244 . S
O29 Co28 2.205 1_655 S
O29 C36 1.262 . S
O30 Co28 2.091 1_655 S
O30 C36 1.261 . S
C31 O40 1.247 . S
C31 O41 1.272 . S
O32 Co28 2.004 . S
O32 C37 1.259 . S
Co33 O34 2.061 . S
Co33 O39 2.052 . S
Co33 O41 2.135 . S
O34 Co33 2.061 . S
O34 C37 1.235 . S
C35 O38 1.238 . S
C35 O39 1.241 . S
C36 O29 1.262 . S
C36 O30 1.261 . S
C37 O32 1.259 . S
C37 O34 1.235 . S
O38 Co28 2.021 . S
O38 C35 1.238 . S
O39 Co33 2.052 . S
O39 C35 1.241 . S
O40 Co28 2.137 . S
O40 C31 1.247 . S
O41 Co28 2.244 . S
O41 C31 1.272 . S
O41 Co33 2.135 . S
Co42 O43 2.216 . S
Co42 O44 2.091 . S
Co42 O46 2.004 . S
Co42 O52 2.021 . S
Co42 O54 2.137 . S
Co42 O55 2.244 1_545 S
O43 Co42 2.216 . S
O43 C50 1.247 . S
O44 Co42 2.091 . S
O44 C50 1.261 . S
C45 O54 1.247 1_565 S
C45 O55 1.272 . S
O46 Co42 2.004 . S
O46 C51 1.259 . S
Co47 O48 2.061 . S
Co47 O53 2.052 . S
Co47 O55 2.135 . S
O48 Co47 2.061 . S
O48 C51 1.235 1_565 S
C49 O52 1.238 . S
C49 O53 1.241 1_545 S
C50 O43 1.247 . S
C50 O44 1.261 . S
C51 O46 1.259 . S
C51 O48 1.235 1_545 S
O52 Co42 2.021 . S
O52 C49 1.238 . S
O53 Co47 2.052 . S
O53 C49 1.241 1_565 S
O54 Co42 2.137 . S
O54 C45 1.247 1_545 S
O55 Co42 2.244 1_565 S
O55 C45 1.272 . S
O55 Co47 2.135 . S
Co56 O57 2.216 . S
Co56 O58 2.091 . S
Co56 O60 2.004 . S
Co56 O66 2.021 . S
Co56 O68 2.137 . S
Co56 O69 2.244 . S
O57 Co56 2.216 . S
O57 C64 1.247 . S
O58 Co56 2.091 . S
O58 C64 1.261 . S
C59 O68 1.247 . S
C59 O69 1.272 . S
O60 Co56 2.004 . S
O60 C65 1.259 . S
Co61 O62 2.061 . S
Co61 O67 2.052 . S
Co61 O69 2.135 . S
O62 Co61 2.061 . S
O62 C65 1.235 . S
C63 O66 1.238 . S
C63 O67 1.241 . S
C64 O57 1.247 . S
C64 O58 1.261 . S
C65 O60 1.259 . S
C65 O62 1.235 . S
O66 Co56 2.021 . S
O66 C63 1.238 . S
O67 Co61 2.052 . S
O67 C63 1.241 . S
O68 Co56 2.137 . S
O68 C59 1.247 . S
O69 Co56 2.244 . S
O69 C59 1.272 . S
O69 Co61 2.135 . S
Co70 O71 2.216 . S
Co70 O72 2.091 . S
Co70 O74 2.004 . S
Co70 O80 2.021 . S
Co70 O82 2.137 . S
Co70 O83 2.244 1_455 S
O71 Co70 2.216 . S
O71 C78 1.247 . S
O72 Co70 2.091 . S
O72 C78 1.261 . S
C73 O82 1.247 1_655 S
C73 O83 1.272 . S
O74 Co70 2.004 . S
O74 C79 1.259 . S
Co75 O76 2.061 . S
Co75 O81 2.052 . S
Co75 O83 2.135 . S
O76 Co75 2.061 . S
O76 C79 1.235 1_655 S
C77 O80 1.238 . S
C77 O81 1.241 1_455 S
C78 O71 1.247 . S
C78 O72 1.261 . S
C79 O74 1.259 . S
C79 O76 1.235 1_455 S
O80 Co70 2.021 . S
O80 C77 1.238 . S
O81 Co75 2.052 . S
O81 C77 1.241 1_655 S
O82 Co70 2.137 . S
O82 C73 1.247 1_455 S
O83 Co70 2.244 1_655 S
O83 C73 1.272 . S
O83 Co75 2.135 . S
H84 C92 0.949 . S
H85 C94 0.952 . S
H86 C96 0.930 . S
H87 C99 0.929 . S
H88 C102 0.930 . S
H89 C104 0.960 . S
H90 C104 0.960 1_565 S
H91 C104 0.960 . S
C92 H84 0.949 . S
C92 C93 1.365 1_565 S
C92 C94 1.388 . S
C93 C92 1.365 1_545 S
C93 C99 1.390 . S
C94 H85 0.952 . S
C94 C92 1.388 . S
C94 C95 1.339 1_565 S
C95 C94 1.339 1_545 S
C95 C96 1.400 . S
C95 C100 1.490 . S
C96 H86 0.930 . S
C96 C95 1.400 . S
C96 C99 1.386 . S
H97 C113 0.930 . S
H98 C114 0.931 . S
C99 H87 0.929 . S
C99 C93 1.390 . S
C99 C96 1.386 . S
C100 C95 1.490 . S
C100 C102 1.395 . S
C100 C103 1.403 . S
H101 C107 0.930 . S
C102 H88 0.930 . S
C102 C100 1.395 . S
C102 C105 1.403 . S
C103 C100 1.403 . S
C103 C104 1.524 . S
C103 C107 1.400 . S
C104 H89 0.960 . S
C104 H90 0.960 1_545 S
C104 H91 0.960 . S
C104 C103 1.524 . S
C105 C102 1.403 . S
C105 C106 1.392 . S
C105 C109 1.495 . S
C106 C105 1.392 . S
C106 C107 1.385 . S
C106 C108 1.478 . S
C107 H101 0.930 . S
C107 C103 1.400 . S
C107 C106 1.385 . S
C108 C106 1.478 . S
C108 C110 1.378 1_545 S
C108 C114 1.383 . S
C109 C105 1.495 . S
C109 H115 0.959 . S
C109 H116 0.961 . S
C109 H117 0.960 . S
C110 C108 1.378 1_565 S
C110 C111 1.404 . S
C110 H118 0.936 . S
C111 C110 1.404 . S
C111 C112 1.352 1_565 S
C111 H119 0.949 . S
C112 C111 1.352 1_545 S
C112 C113 1.377 . S
C113 H97 0.930 . S
C113 C112 1.377 . S
C113 C114 1.379 . S
C114 H98 0.931 . S
C114 C108 1.383 . S
C114 C113 1.379 . S
H115 C109 0.959 . S
H116 C109 0.961 . S
H117 C109 0.960 . S
H118 C110 0.936 . S
H119 C111 0.949 . S
H120 C128 0.929 . S
H121 C130 0.930 . S
H122 C132 0.930 . S
H123 C135 0.929 . S
H124 C138 0.930 . S
H125 C140 0.960 . S
H126 C140 0.960 . S
H127 C140 0.960 . S
C128 H120 0.929 . S
C128 C129 1.377 . S
C128 C130 1.384 . S
C129 C128 1.377 . S
C129 C135 1.390 . S
C130 H121 0.930 . S
C130 C128 1.384 . S
C130 C131 1.372 . S
C131 C130 1.372 . S
C131 C132 1.400 . S
C131 C136 1.490 . S
C132 H122 0.930 . S
C132 C131 1.400 . S
C132 C135 1.386 . S
H133 C149 0.930 . S
H134 C150 0.931 . S
C135 H123 0.929 . S
C135 C129 1.390 . S
C135 C132 1.386 . S
C136 C131 1.490 . S
C136 C138 1.395 . S
C136 C139 1.403 . S
H137 C143 0.930 . S
C138 H124 0.930 . S
C138 C136 1.395 . S
C138 C141 1.403 . S
C139 C136 1.403 . S
C139 C140 1.524 . S
C139 C143 1.400 . S
C140 H125 0.960 . S
C140 H126 0.960 . S
C140 H127 0.960 . S
C140 C139 1.524 . S
C141 C138 1.403 . S
C141 C142 1.392 . S
C141 C145 1.495 . S
C142 C141 1.392 . S
C142 C143 1.385 . S
C142 C144 1.478 . S
C143 H137 0.930 . S
C143 C139 1.400 . S
C143 C142 1.385 . S
C144 C142 1.478 . S
C144 C146 1.381 . S
C144 C150 1.383 . S
C145 C141 1.495 . S
C145 H151 0.959 . S
C145 H152 0.961 . S
C145 H153 0.960 . S
C146 C144 1.381 . S
C146 C147 1.394 . S
C146 H154 0.930 . S
C147 C146 1.394 . S
C147 C148 1.383 . S
C147 H155 0.929 . S
C148 C147 1.383 . S
C148 C149 1.377 . S
C149 H133 0.930 . S
C149 C148 1.377 . S
C149 C150 1.379 . S
C150 H134 0.931 . S
C150 C144 1.383 . S
C150 C149 1.379 . S
H151 C145 0.959 . S
H152 C145 0.961 . S
H153 C145 0.960 . S
H154 C146 0.930 . S
H155 C147 0.929 . S
H156 C164 0.929 . S
H157 C166 0.930 . S
H158 C168 0.939 . S
H159 C171 0.929 1_655 S
H160 C174 0.930 . S
H161 C176 0.960 . S
H162 C176 0.960 . S
H163 C176 0.960 . S
C164 H156 0.929 . S
C164 C165 1.377 . S
C164 C166 1.384 . S
C165 C164 1.377 . S
C165 C171 1.390 . S
C166 H157 0.930 . S
C166 C164 1.384 . S
C166 C167 1.372 . S
C167 C166 1.372 . S
C167 C168 1.400 . S
C167 C172 1.490 . S
C168 H158 0.939 . S
C168 C167 1.400 . S
C168 C171 1.386 . S
H169 C185 0.930 1_655 S
H170 C186 0.931 1_655 S
C171 H159 0.929 1_455 S
C171 C165 1.390 . S
C171 C168 1.386 . S
C172 C167 1.490 . S
C172 C174 1.395 . S
C172 C175 1.403 . S
H173 C179 0.930 . S
C174 H160 0.930 . S
C174 C172 1.395 . S
C174 C177 1.403 . S
C175 C172 1.403 . S
C175 C176 1.524 . S
C175 C179 1.400 . S
C176 H161 0.960 . S
C176 H162 0.960 . S
C176 H163 0.960 . S
C176 C175 1.524 . S
C177 C174 1.403 . S
C177 C178 1.392 . S
C177 C181 1.495 1_455 S
C178 C177 1.392 . S
C178 C179 1.385 . S
C178 C180 1.478 . S
C179 H173 0.930 . S
C179 C175 1.400 . S
C179 C178 1.385 . S
C180 C178 1.478 . S
C180 C182 1.381 . S
C180 C186 1.383 . S
C181 C177 1.495 1_655 S
C181 H187 0.959 . S
C181 H188 0.961 . S
C181 H189 0.960 1_655 S
C182 C180 1.381 . S
C182 C183 1.394 . S
C182 H190 0.930 . S
C183 C182 1.394 . S
C183 C184 1.383 . S
C183 H191 0.929 . S
C184 C183 1.383 . S
C184 C185 1.377 . S
C185 H169 0.930 1_455 S
C185 C184 1.377 . S
C185 C186 1.379 . S
C186 H170 0.931 1_455 S
C186 C180 1.383 . S
C186 C185 1.379 . S
H187 C181 0.959 . S
H188 C181 0.961 . S
H189 C181 0.960 1_455 S
H190 C182 0.930 . S
H191 C183 0.929 . S
H192 C200 0.929 . S
H193 C202 0.930 . S
H194 C204 0.930 . S
H195 C207 0.929 . S
H196 C210 0.930 . S
H197 C212 0.960 . S
H198 C212 0.960 . S
H199 C212 0.960 1_545 S
C200 H192 0.929 . S
C200 C201 1.377 . S
C200 C202 1.384 . S
C201 C200 1.377 . S
C201 C207 1.390 . S
C202 H193 0.930 . S
C202 C200 1.384 . S
C202 C203 1.372 . S
C203 C202 1.372 . S
C203 C204 1.400 . S
C203 C208 1.490 . S
C204 H194 0.930 . S
C204 C203 1.400 . S
C204 C207 1.386 . S
H205 C221 0.930 . S
H206 C222 0.931 . S
C207 H195 0.929 . S
C207 C201 1.390 . S
C207 C204 1.386 . S
C208 C203 1.490 . S
C208 C210 1.395 . S
C208 C211 1.403 . S
H209 C215 0.930 . S
C210 H196 0.930 . S
C210 C208 1.395 . S
C210 C213 1.403 . S
C211 C208 1.403 . S
C211 C212 1.524 1_545 S
C211 C215 1.400 . S
C212 H197 0.960 . S
C212 H198 0.960 . S
C212 H199 0.960 1_565 S
C212 C211 1.524 1_565 S
C213 C210 1.403 . S
C213 C214 1.392 . S
C213 C217 1.495 . S
C214 C213 1.392 . S
C214 C215 1.385 . S
C214 C216 1.478 . S
C215 H209 0.930 . S
C215 C211 1.400 . S
C215 C214 1.385 . S
C216 C214 1.478 . S
C216 C218 1.381 . S
C216 C222 1.383 . S
C217 C213 1.495 . S
C217 H223 0.959 . S
C217 H224 0.961 . S
C217 H225 0.960 . S
C218 C216 1.381 . S
C218 C219 1.394 . S
C218 H226 0.930 . S
C219 C218 1.394 . S
C219 C220 1.383 . S
C219 H227 0.929 . S
C220 C219 1.383 . S
C220 C221 1.377 . S
C221 H205 0.930 . S
C221 C220 1.377 . S
C221 C222 1.379 . S
C222 H206 0.931 . S
C222 C216 1.383 . S
C222 C221 1.379 . S
H223 C217 0.959 . S
H224 C217 0.961 . S
H225 C217 0.960 . S
H226 C218 0.930 . S
H227 C219 0.929 . S
H228 C236 0.929 . S
H229 C238 0.930 . S
H230 C240 0.930 . S
H231 C243 0.929 . S
H232 C246 0.930 . S
H233 C248 0.960 . S
H234 C248 0.960 . S
H235 C248 0.960 . S
C236 H228 0.929 . S
C236 C237 1.377 . S
C236 C238 1.384 . S
C237 C236 1.377 . S
C237 C243 1.390 . S
C238 H229 0.930 . S
C238 C236 1.384 . S
C238 C239 1.372 . S
C239 C238 1.372 . S
C239 C240 1.400 . S
C239 C244 1.490 . S
C240 H230 0.930 . S
C240 C239 1.400 . S
C240 C243 1.386 . S
H241 C257 0.930 . S
H242 C258 0.931 . S
C243 H231 0.929 . S
C243 C237 1.390 . S
C243 C240 1.386 . S
C244 C239 1.490 . S
C244 C246 1.395 1_554 S
C244 C247 1.403 1_554 S
H245 C251 0.930 . S
C246 H232 0.930 . S
C246 C244 1.395 1_556 S
C246 C249 1.403 . S
C247 C244 1.403 1_556 S
C247 C248 1.524 1_556 S
C247 C251 1.400 . S
C248 H233 0.960 . S
C248 H234 0.960 . S
C248 H235 0.960 . S
C248 C247 1.524 1_554 S
C249 C246 1.403 . S
C249 C250 1.392 . S
C249 C253 1.495 . S
C250 C249 1.392 . S
C250 C251 1.385 . S
C250 C252 1.478 . S
C251 H245 0.930 . S
C251 C247 1.400 . S
C251 C250 1.385 . S
C252 C250 1.478 . S
C252 C254 1.381 . S
C252 C258 1.383 . S
C253 C249 1.495 . S
C253 H259 0.959 . S
C253 H260 0.961 . S
C253 H261 0.960 . S
C254 C252 1.381 . S
C254 C255 1.394 . S
C254 H262 0.930 . S
C255 C254 1.394 . S
C255 C256 1.383 . S
C255 H263 0.929 . S
C256 C255 1.383 . S
C256 C257 1.377 . S
C257 H241 0.930 . S
C257 C256 1.377 . S
C257 C258 1.379 . S
C258 H242 0.931 . S
C258 C252 1.383 . S
C258 C257 1.379 . S
H259 C253 0.959 . S
H260 C253 0.961 . S
H261 C253 0.960 . S
H262 C254 0.930 . S
H263 C255 0.929 . S
H264 C272 0.929 . S
H265 C274 0.930 . S
H266 C276 0.930 . S
H267 C279 0.929 . S
H268 C282 0.930 . S
H269 C284 0.960 . S
H270 C284 0.960 . S
H271 C284 0.960 1_655 S
C272 H264 0.929 . S
C272 C273 1.377 . S
C272 C274 1.384 . S
C273 C272 1.377 . S
C273 C279 1.390 1_455 S
C274 H265 0.930 . S
C274 C272 1.384 . S
C274 C275 1.372 . S
C275 C274 1.372 . S
C275 C276 1.400 1_455 S
C275 C280 1.490 . S
C276 H266 0.930 . S
C276 C275 1.400 1_655 S
C276 C279 1.386 . S
H277 C293 0.930 . S
H278 C294 0.931 . S
C279 H267 0.929 . S
C279 C273 1.390 1_655 S
C279 C276 1.386 . S
C280 C275 1.490 . S
C280 C282 1.395 . S
C280 C283 1.403 . S
H281 C287 0.930 . S
C282 H268 0.930 . S
C282 C280 1.395 . S
C282 C285 1.403 . S
C283 C280 1.403 . S
C283 C284 1.524 . S
C283 C287 1.400 . S
C284 H269 0.960 . S
C284 H270 0.960 . S
C284 H271 0.960 1_455 S
C284 C283 1.524 . S
C285 C282 1.403 . S
C285 C286 1.392 . S
C285 C289 1.495 . S
C286 C285 1.392 . S
C286 C287 1.385 . S
C286 C288 1.478 . S
C287 H281 0.930 . S
C287 C283 1.400 . S
C287 C286 1.385 . S
C288 C286 1.478 . S
C288 C290 1.381 . S
C288 C294 1.383 1_455 S
C289 C285 1.495 . S
C289 H295 0.959 . S
C289 H296 0.961 . S
C289 H297 0.960 . S
C290 C288 1.381 . S
C290 C291 1.394 . S
C290 H298 0.930 . S
C291 C290 1.394 . S
C291 C292 1.383 . S
C291 H299 0.929 . S
C292 C291 1.383 . S
C292 C293 1.377 1_455 S
C293 H277 0.930 . S
C293 C292 1.377 1_655 S
C293 C294 1.379 . S
C294 H278 0.931 . S
C294 C288 1.383 1_655 S
C294 C293 1.379 . S
H295 C289 0.959 . S
H296 C289 0.961 . S
H297 C289 0.960 . S
H298 C290 0.930 . S
H299 C291 0.929 . S
H300 C308 0.929 . S
H301 C310 0.930 . S
H302 C312 0.930 . S
H303 C315 0.929 . S
H304 C318 0.930 . S
H305 C320 0.960 . S
H306 C320 0.960 . S
H307 C320 0.960 . S
C308 H300 0.929 . S
C308 C309 1.377 . S
C308 C310 1.384 . S
C309 C308 1.377 . S
C309 C315 1.390 . S
C310 H301 0.930 . S
C310 C308 1.384 . S
C310 C311 1.372 . S
C311 C310 1.372 . S
C311 C312 1.400 . S
C311 C316 1.490 . S
C312 H302 0.930 . S
C312 C311 1.400 . S
C312 C315 1.386 . S
H313 C329 0.930 . S
H314 C330 0.931 . S
C315 H303 0.929 . S
C315 C309 1.390 . S
C315 C312 1.386 . S
C316 C311 1.490 . S
C316 C318 1.395 . S
C316 C319 1.403 . S
H317 C323 0.930 . S
C318 H304 0.930 . S
C318 C316 1.395 . S
C318 C321 1.403 . S
C319 C316 1.403 . S
C319 C320 1.524 . S
C319 C323 1.400 . S
C320 H305 0.960 . S
C320 H306 0.960 . S
C320 H307 0.960 . S
C320 C319 1.524 . S
C321 C318 1.403 . S
C321 C322 1.392 . S
C321 C325 1.495 . S
C322 C321 1.392 . S
C322 C323 1.385 . S
C322 C324 1.478 . S
C323 H317 0.930 . S
C323 C319 1.400 . S
C323 C322 1.385 . S
C324 C322 1.478 . S
C324 C326 1.381 . S
C324 C330 1.383 . S
C325 C321 1.495 . S
C325 H331 0.959 . S
C325 H332 0.961 . S
C325 H333 0.960 . S
C326 C324 1.381 . S
C326 C327 1.394 . S
C326 H334 0.930 . S
C327 C326 1.394 . S
C327 C328 1.383 . S
C327 H335 0.929 . S
C328 C327 1.383 . S
C328 C329 1.377 . S
C329 H313 0.930 . S
C329 C328 1.377 . S
C329 C330 1.379 . S
C330 H314 0.931 . S
C330 C324 1.383 . S
C330 C329 1.379 . S
H331 C325 0.959 . S
H332 C325 0.961 . S
H333 C325 0.960 . S
H334 C326 0.930 . S
H335 C327 0.929 . S
H336 C344 0.929 . S
H337 C346 0.930 . S
H338 C348 0.930 . S
H339 C351 0.929 . S
H340 C354 0.930 . S
H341 C356 0.960 . S
H342 C356 0.960 . S
H343 C356 0.960 . S
C344 H336 0.929 . S
C344 C345 1.377 . S
C344 C346 1.384 . S
C345 C344 1.377 . S
C345 C351 1.390 . S
C346 H337 0.930 . S
C346 C344 1.384 . S
C346 C347 1.372 . S
C347 C346 1.372 . S
C347 C348 1.400 . S
C347 C352 1.490 . S
C348 H338 0.930 . S
C348 C347 1.400 . S
C348 C351 1.386 . S
H349 C365 0.930 . S
H350 C366 0.931 . S
C351 H339 0.929 . S
C351 C345 1.390 . S
C351 C348 1.386 . S
C352 C347 1.490 . S
C352 C354 1.395 . S
C352 C355 1.403 . S
H353 C359 0.930 . S
C354 H340 0.930 . S
C354 C352 1.395 . S
C354 C357 1.403 . S
C355 C352 1.403 . S
C355 C356 1.524 . S
C355 C359 1.400 . S
C356 H341 0.960 . S
C356 H342 0.960 . S
C356 H343 0.960 . S
C356 C355 1.524 . S
C357 C354 1.403 . S
C357 C358 1.392 . S
C357 C361 1.495 . S
C358 C357 1.392 . S
C358 C359 1.385 . S
C358 C360 1.478 . S
C359 H353 0.930 . S
C359 C355 1.400 . S
C359 C358 1.385 . S
C360 C358 1.478 . S
C360 C362 1.381 . S
C360 C366 1.383 . S
C361 C357 1.495 . S
C361 H367 0.959 . S
C361 H368 0.961 . S
C361 H369 0.960 . S
C362 C360 1.381 . S
C362 C363 1.394 . S
C362 H370 0.930 . S
C363 C362 1.394 . S
C363 C364 1.383 . S
C363 H371 0.929 . S
C364 C363 1.383 . S
C364 C365 1.377 . S
C365 H349 0.930 . S
C365 C364 1.377 . S
C365 C366 1.379 . S
C366 H350 0.931 . S
C366 C360 1.383 . S
C366 C365 1.379 . S
H367 C361 0.959 . S
H368 C361 0.961 . S
H369 C361 0.960 . S
H370 C362 0.930 . S
H371 C363 0.929 . S
H372 C380 0.929 . S
H373 C382 0.930 . S
H374 C384 0.930 . S
H375 C387 0.929 . S
H376 C390 0.930 . S
H377 C392 0.960 . S
H378 C392 0.960 . S
H379 C392 0.960 . S
C380 H372 0.929 . S
C380 C381 1.377 . S
C380 C382 1.384 . S
C381 C380 1.377 . S
C381 C387 1.390 . S
C382 H373 0.930 . S
C382 C380 1.384 . S
C382 C383 1.372 . S
C383 C382 1.372 . S
C383 C384 1.400 . S
C383 C388 1.490 . S
C384 H374 0.930 . S
C384 C383 1.400 . S
C384 C387 1.386 . S
H385 C401 0.930 . S
H386 C402 0.931 . S
C387 H375 0.929 . S
C387 C381 1.390 . S
C387 C384 1.386 . S
C388 C383 1.490 . S
C388 C390 1.395 . S
C388 C391 1.403 . S
H389 C395 0.930 . S
C390 H376 0.930 . S
C390 C388 1.395 . S
C390 C393 1.403 . S
C391 C388 1.403 . S
C391 C392 1.524 . S
C391 C395 1.400 . S
C392 H377 0.960 . S
C392 H378 0.960 . S
C392 H379 0.960 . S
C392 C391 1.524 . S
C393 C390 1.403 . S
C393 C394 1.392 . S
C393 C397 1.495 . S
C394 C393 1.392 . S
C394 C395 1.385 . S
C394 C396 1.478 . S
C395 H389 0.930 . S
C395 C391 1.400 . S
C395 C394 1.385 . S
C396 C394 1.478 . S
C396 C398 1.381 . S
C396 C402 1.383 . S
C397 C393 1.495 . S
C397 H403 0.959 . S
C397 H404 0.961 . S
C397 H405 0.960 . S
C398 C396 1.381 . S
C398 C399 1.394 . S
C398 H406 0.930 . S
C399 C398 1.394 . S
C399 C400 1.383 . S
C399 H407 0.929 . S
C400 C399 1.383 . S
C400 C401 1.377 . S
C401 H385 0.930 . S
C401 C400 1.377 . S
C401 C402 1.379 . S
C402 H386 0.931 . S
C402 C396 1.383 . S
C402 C401 1.379 . S
H403 C397 0.959 . S
H404 C397 0.961 . S
H405 C397 0.960 . S
H406 C398 0.930 . S
H407 C399 0.929 . S
H408 C416 0.929 . S
H409 C418 0.930 . S
H410 C420 0.930 . S
H411 C423 0.929 . S
H412 C426 0.930 . S
H413 C428 0.960 . S
H414 C428 0.960 . S
H415 C428 0.960 . S
C416 H408 0.929 . S
C416 C417 1.377 . S
C416 C418 1.384 . S
C417 C416 1.377 . S
C417 C423 1.390 . S
C418 H409 0.930 . S
C418 C416 1.384 . S
C418 C419 1.372 . S
C419 C418 1.372 . S
C419 C420 1.400 . S
C419 C424 1.490 . S
C420 H410 0.930 . S
C420 C419 1.400 . S
C420 C423 1.386 . S
H421 C437 0.930 . S
H422 C438 0.931 . S
C423 H411 0.929 . S
C423 C417 1.390 . S
C423 C420 1.386 . S
C424 C419 1.490 . S
C424 C426 1.395 . S
C424 C427 1.403 . S
H425 C431 0.930 . S
C426 H412 0.930 . S
C426 C424 1.395 . S
C426 C429 1.403 . S
C427 C424 1.403 . S
C427 C428 1.524 . S
C427 C431 1.400 . S
C428 H413 0.960 . S
C428 H414 0.960 . S
C428 H415 0.960 . S
C428 C427 1.524 . S
C429 C426 1.403 . S
C429 C430 1.392 . S
C429 C433 1.495 . S
C430 C429 1.392 . S
C430 C431 1.385 . S
C430 C432 1.478 . S
C431 H425 0.930 . S
C431 C427 1.400 . S
C431 C430 1.385 . S
C432 C430 1.478 . S
C432 C434 1.381 . S
C432 C438 1.383 . S
C433 C429 1.495 . S
C433 H439 0.959 . S
C433 H440 0.961 . S
C433 H441 0.960 . S
C434 C432 1.381 . S
C434 C435 1.394 . S
C434 H442 0.930 . S
C435 C434 1.394 . S
C435 C436 1.383 . S
C435 H443 0.929 . S
C436 C435 1.383 . S
C436 C437 1.377 . S
C437 H421 0.930 . S
C437 C436 1.377 . S
C437 C438 1.379 . S
C438 H422 0.931 . S
C438 C432 1.383 . S
C438 C437 1.379 . S
H439 C433 0.959 . S
H440 C433 0.961 . S
H441 C433 0.960 . S
H442 C434 0.930 . S
H443 C435 0.929 . S
H444 C452 0.929 . S
H445 C454 0.930 . S
H446 C456 0.930 . S
H447 C459 0.929 . S
H448 C462 0.930 . S
H449 C464 0.960 . S
H450 C464 0.960 . S
H451 C464 0.960 . S
C452 H444 0.929 . S
C452 C453 1.377 . S
C452 C454 1.384 . S
C453 C452 1.377 . S
C453 C459 1.390 . S
C454 H445 0.930 . S
C454 C452 1.384 . S
C454 C455 1.372 . S
C455 C454 1.372 . S
C455 C456 1.400 . S
C455 C460 1.490 . S
C456 H446 0.930 . S
C456 C455 1.400 . S
C456 C459 1.386 . S
H457 C473 0.930 . S
H458 C474 0.931 . S
C459 H447 0.929 . S
C459 C453 1.390 . S
C459 C456 1.386 . S
C460 C455 1.490 . S
C460 C462 1.395 . S
C460 C463 1.403 . S
H461 C467 0.930 . S
C462 H448 0.930 . S
C462 C460 1.395 . S
C462 C465 1.403 . S
C463 C460 1.403 . S
C463 C464 1.524 . S
C463 C467 1.400 . S
C464 H449 0.960 . S
C464 H450 0.960 . S
C464 H451 0.960 . S
C464 C463 1.524 . S
C465 C462 1.403 . S
C465 C466 1.392 . S
C465 C469 1.495 . S
C466 C465 1.392 . S
C466 C467 1.385 . S
C466 C468 1.478 . S
C467 H461 0.930 . S
C467 C463 1.400 . S
C467 C466 1.385 . S
C468 C466 1.478 . S
C468 C470 1.381 . S
C468 C474 1.383 . S
C469 C465 1.495 . S
C469 H475 0.959 . S
C469 H476 0.961 . S
C469 H477 0.960 . S
C470 C468 1.381 . S
C470 C471 1.394 . S
C470 H478 0.930 . S
C471 C470 1.394 . S
C471 C472 1.383 . S
C471 H479 0.929 . S
C472 C471 1.383 . S
C472 C473 1.377 . S
C473 H457 0.930 . S
C473 C472 1.377 . S
C473 C474 1.379 . S
C474 H458 0.931 . S
C474 C468 1.383 . S
C474 C473 1.379 . S
H475 C469 0.959 . S
H476 C469 0.961 . S
H477 C469 0.960 . S
H478 C470 0.930 . S
H479 C471 0.929 . S
H480 C488 0.929 1_554 S
H481 C490 0.930 1_554 S
H482 C492 0.930 . S
H483 C495 0.929 . S
H484 C498 0.930 . S
H485 C500 0.960 . S
H486 C500 0.960 1_554 S
H487 C500 0.960 . S
C488 H480 0.929 1_556 S
C488 C489 1.377 . S
C488 C490 1.384 . S
C489 C488 1.377 . S
C489 C495 1.390 . S
C490 H481 0.930 1_556 S
C490 C488 1.384 . S
C490 C491 1.372 . S
C491 C490 1.372 . S
C491 C492 1.400 . S
C491 C496 1.490 . S
C492 H482 0.930 . S
C492 C491 1.400 . S
C492 C495 1.386 . S
H493 C509 0.930 . S
H494 C510 0.931 . S
C495 H483 0.929 . S
C495 C489 1.390 . S
C495 C492 1.386 . S
C496 C491 1.490 . S
C496 C498 1.395 . S
C496 C499 1.403 . S
H497 C503 0.930 . S
C498 H484 0.930 . S
C498 C496 1.395 . S
C498 C501 1.403 . S
C499 C496 1.403 . S
C499 C500 1.524 . S
C499 C503 1.400 . S
C500 H485 0.960 . S
C500 H486 0.960 1_556 S
C500 H487 0.960 . S
C500 C499 1.524 . S
C501 C498 1.403 . S
C501 C502 1.392 . S
C501 C505 1.495 . S
C502 C501 1.392 . S
C502 C503 1.385 . S
C502 C504 1.478 1_556 S
C503 H497 0.930 . S
C503 C499 1.400 . S
C503 C502 1.385 . S
C504 C502 1.478 1_554 S
C504 C506 1.381 . S
C504 C510 1.383 1_554 S
C505 C501 1.495 . S
C505 H511 0.959 . S
C505 H512 0.961 . S
C505 H513 0.960 1_556 S
C506 C504 1.381 . S
C506 C507 1.394 . S
C506 H514 0.930 . S
C507 C506 1.394 . S
C507 C508 1.383 . S
C507 H515 0.929 . S
C508 C507 1.383 . S
C508 C509 1.377 1_554 S
C509 H493 0.930 . S
C509 C508 1.377 1_556 S
C509 C510 1.379 . S
C510 H494 0.931 . S
C510 C504 1.383 1_556 S
C510 C509 1.379 . S
H511 C505 0.959 . S
H512 C505 0.961 . S
H513 C505 0.960 1_554 S
H514 C506 0.930 . S
H515 C507 0.929 . S
C93 C7 1.710 . S
C112 C51 1.731 . S
C129 C21 1.653 . S
C148 C65 1.685 . S
C165 C77 1.685 . S
C184 C37 1.705 . S
C201 C9 1.737 . S
C220 C49 1.720 . S
C237 C23 1.678 . S
C256 C63 1.631 . S
C273 C79 1.710 1_554 S
C292 C35 1.686 . S
C309 C17 1.334 . S
C328 C8 1.336 . S
C345 C36 1.302 . S
C364 C22 1.297 . S
C381 C31 1.365 . S
C400 C45 1.366 . S
C417 C59 1.333 . S
C436 C50 1.338 . S
C453 C78 1.303 . S
C472 C64 1.290 . S
C489 C73 1.365 . S
C508 C3 1.358 . S
