# Generated by pormake.
# Topology rob, (6)-cn, num edge types: 1
# Building blocks:
#     Node 0, Type 0, BuildingBlock: PAMTUU_clean_sbu_0, # of connection points: 6
#     Node 1, Type 0, BuildingBlock: PAMTUU_clean_sbu_0, # of connection points: 6
#     Node 2, Type 0, BuildingBlock: PAMTUU_clean_sbu_0, # of connection points: 6
#     Node 3, Type 0, BuildingBlock: PAMTUU_clean_sbu_0, # of connection points: 6
#     Edge 4, Type (0, 0), BuildingBlock: FUNLAD_clean_linker_1, # of connection points: 2
#     Edge 5, Type (0, 0), BuildingBlock: FUNLAD_clean_linker_1, # of connection points: 2
#     Edge 6, Type (0, 0), BuildingBlock: FUNLAD_clean_linker_1, # of connection points: 2
#     Edge 7, Type (0, 0), BuildingBlock: FUNLAD_clean_linker_1, # of connection points: 2
#     Edge 8, Type (0, 0), BuildingBlock: FUNLAD_clean_linker_1, # of connection points: 2
#     Edge 9, Type (0, 0), BuildingBlock: FUNLAD_clean_linker_1, # of connection points: 2
#     Edge 10, Type (0, 0), BuildingBlock: FUNLAD_clean_linker_1, # of connection points: 2
#     Edge 11, Type (0, 0), BuildingBlock: FUNLAD_clean_linker_1, # of connection points: 2
#     Edge 12, Type (0, 0), BuildingBlock: FUNLAD_clean_linker_1, # of connection points: 2
#     Edge 13, Type (0, 0), BuildingBlock: FUNLAD_clean_linker_1, # of connection points: 2
#     Edge 14, Type (0, 0), BuildingBlock: FUNLAD_clean_linker_1, # of connection points: 2
#     Edge 15, Type (0, 0), BuildingBlock: FUNLAD_clean_linker_1, # of connection points: 2
# Relax obj value: 0.140
# Max RMSD: 0.209
# Mean RMSD: 0.209
data_MOF--net-rob--node1-PAMTUU_clean_sbu_0--edge1-FUNLAD_clean_linker_1
_symmetry_space_group_name_H-M    P1
_symmetry_Int_Tables_number       1
_symmetry_cell_setting            triclinic
loop_
_symmetry_equiv_pos_as_xyz
'x, y, z'
_cell_length_a     18.623568
_cell_length_b     24.76863
_cell_length_c     37.633153
_cell_angle_alpha  89.962791
_cell_angle_beta   54.470212
_cell_angle_gamma 89.943039
loop_
_atom_site_label
_atom_site_type_symbol
_atom_site_fract_x
_atom_site_fract_y
_atom_site_fract_z
_atom_type_partial_charge
Tb0 Tb 0.17766 0.30135 0.00846 0.0
Tb1 Tb 0.30048 0.23005 0.03016 0.0
C2 C 0.32386 0.35416 0.01459 0.0
C3 C 0.05635 0.3458 0.96111 0.0
C4 C 0.00741 0.34039 0.90248 0.0
C5 C 0.96594 0.37684 0.93773 0.0
C6 C 0.99029 0.37962 0.96657 0.0
C7 C 0.09636 0.30803 0.92688 0.0
C8 C 0.07216 0.30524 0.89785 0.0
C9 C 0.08617 0.35295 0.98966 0.0
O10 O 0.27001 0.25596 0.94968 0.0
O11 O 0.37957 0.23944 0.95936 0.0
O12 O 0.24405 0.17133 0.01054 0.0
O13 O 0.1225 0.22017 0.02742 0.0
O14 O 0.42184 0.21657 0.0206 0.0
O15 O 0.30808 0.16801 0.06612 0.0
O16 O 0.17159 0.24475 0.0907 0.0
O17 O 0.13599 0.32466 0.07386 0.0
O18 O 0.2871 0.3525 0.99358 0.0
O19 O 0.31778 0.31411 0.03899 0.0
C20 C 0.35159 0.24296 0.93438 0.0
O21 O 0.05258 0.32089 0.02327 0.0
O22 O 0.17078 0.35913 0.9698 0.0
C23 C 0.16576 0.17433 0.01838 0.0
C24 C 0.40643 0.18801 0.08459 0.0
C25 C 0.44109 0.20127 0.14786 0.0
C26 C 0.44681 0.14993 0.13027 0.0
C27 C 0.42948 0.14347 0.09899 0.0
C28 C 0.40082 0.23931 0.10194 0.0
C29 C 0.41883 0.2459 0.13299 0.0
C30 C 0.38892 0.18033 0.05142 0.0
C31 C 0.13006 0.29126 0.10259 0.0
H32 H 0.91555 0.40419 0.94253 0.0
H33 H 0.95857 0.40908 0.99273 0.0
H34 H 0.14737 0.28132 0.92216 0.0
H35 H 0.10496 0.27572 0.87193 0.0
H36 H 0.46604 0.11482 0.14003 0.0
H37 H 0.43453 0.10362 0.08583 0.0
H38 H 0.38274 0.27426 0.09141 0.0
H39 H 0.41419 0.28586 0.14588 0.0
Tb40 Tb 0.70017 0.78783 0.99349 0.0
Tb41 Tb 0.84213 0.73382 0.01046 0.0
C42 C 0.83399 0.85616 0.99709 0.0
C43 C 0.5846 0.82422 0.94252 0.0
C44 C 0.56195 0.82156 0.87467 0.0
C45 C 0.49262 0.83843 0.91692 0.0
C46 C 0.50403 0.83969 0.95051 0.0
C47 C 0.65357 0.8068 0.90061 0.0
C48 C 0.64249 0.80591 0.86691 0.0
C49 C 0.59647 0.82794 0.9778 0.0
O50 O 0.82385 0.77788 0.92953 0.0
O51 O 0.89474 0.71363 0.94341 0.0
O52 O 0.73543 0.67649 0.03251 0.0
O53 O 0.7028 0.70135 0.98476 0.0
O54 O 0.93745 0.74725 0.02244 0.0
O55 O 0.90359 0.66635 0.01638 0.0
O56 O 0.73852 0.76963 0.07214 0.0
O57 O 0.62545 0.77673 0.06364 0.0
O58 O 0.7507 0.85157 0.01253 0.0
O59 O 0.88645 0.814 0.98231 0.0
C60 C 0.88485 0.74066 0.91648 0.0
O61 O 0.57918 0.78439 1.00096 0.0
O62 O 0.66897 0.85114 0.96768 0.0
C63 C 0.70048 0.66605 0.0114 0.0
C64 C 0.94391 0.68045 0.06484 0.0
C65 C 0.9439 0.65803 0.13857 0.0
C66 C 0.86929 0.68073 0.14345 0.0
C67 C 0.86925 0.69191 0.10699 0.0
C68 C 0.01752 0.6564 0.05971 0.0
C69 C 0.01765 0.64506 0.09613 0.0
C70 C 0.9479 0.69602 0.02595 0.0
C71 C 0.655 0.77677 0.08795 0.0
H72 H 0.43042 0.85215 0.92396 0.0
H73 H 0.45028 0.85352 0.98264 0.0
H74 H 0.71624 0.79455 0.89384 0.0
H75 H 0.69704 0.79298 0.83466 0.0
H76 H 0.81128 0.69092 0.17558 0.0
H77 H 0.81163 0.71041 0.11163 0.0
H78 H 0.07566 0.64712 0.02738 0.0
H79 H 0.076 0.62653 0.09045 0.0
Tb80 Tb 0.33503 0.76409 0.5079 0.0
Tb81 Tb 0.19733 0.69691 0.49494 0.0
C82 C 0.17687 0.82022 0.5143 0.0
C83 C 0.43445 0.80662 0.56426 0.0
C84 C 0.43396 0.80484 0.63944 0.0
C85 C 0.45794 0.85205 0.61393 0.0
C86 C 0.45831 0.85275 0.57664 0.0
C87 C 0.40935 0.75977 0.58991 0.0
C88 C 0.40905 0.75898 0.62711 0.0
C89 C 0.43337 0.80816 0.52543 0.0
O90 O 0.25271 0.71345 0.56476 0.0
O91 O 0.12947 0.70714 0.56499 0.0
O92 O 0.27686 0.64033 0.50264 0.0
O93 O 0.39949 0.69291 0.46823 0.0
O94 O 0.0736 0.68438 0.50646 0.0
O95 O 0.18164 0.6293 0.46653 0.0
O96 O 0.30474 0.7255 0.43058 0.0
O97 O 0.37405 0.79143 0.44448 0.0
O98 O 0.22005 0.815 0.53192 0.0
O99 O 0.17422 0.78165 0.4912 0.0
C100 C 0.1675 0.70631 0.58541 0.0
O101 O 0.45206 0.76303 0.50401 0.0
O102 O 0.36573 0.83199 0.53043 0.0
C103 C 0.3626 0.64539 0.48073 0.0
C104 C 0.08811 0.64608 0.44508 0.0
C105 C 0.07009 0.64678 0.37548 0.0
C106 C 0.02539 0.6081 0.40914 0.0
C107 C 0.03451 0.60783 0.44359 0.0
C108 C 0.13213 0.68487 0.41189 0.0
C109 C 0.12361 0.68501 0.37734 0.0
C110 C 0.10234 0.64346 0.47967 0.0
C111 C 0.3589 0.76683 0.41855 0.0
H112 H 0.47502 0.88884 0.62281 0.0
H113 H 0.47666 0.88951 0.5576 0.0
H114 H 0.38947 0.7238 0.58136 0.0
H115 H 0.38931 0.72228 0.6463 0.0
H116 H 0.9852 0.5771 0.40862 0.0
H117 H 1.00084 0.57717 0.46869 0.0
H118 H 0.17403 0.71457 0.41246 0.0
H119 H 0.15926 0.7151 0.35189 0.0
Tb120 Tb 0.81543 0.27089 0.52113 0.0
Tb121 Tb 0.67991 0.19963 0.5091 0.0
C122 C 0.67558 0.32354 0.51135 0.0
C123 C 0.92332 0.31913 0.57309 0.0
C124 C 0.94933 0.3104 0.64008 0.0
C125 C 0.9225 0.35962 0.63241 0.0
C126 C 0.9097 0.3638 0.59931 0.0
C127 C 0.95025 0.26996 0.58058 0.0
C128 C 0.96379 0.26587 0.61346 0.0
C129 C 0.90541 0.32436 0.53962 0.0
O130 O 0.72953 0.22621 0.58091 0.0
O131 O 0.60978 0.21842 0.57854 0.0
O132 O 0.74122 0.14129 0.52656 0.0
O133 O 0.86747 0.18892 0.50404 0.0
O134 O 0.55413 0.19305 0.52226 0.0
O135 O 0.65428 0.13301 0.48348 0.0
O136 O 0.80567 0.20559 0.44549 0.0
O137 O 0.8635 0.28348 0.45312 0.0
O138 O 0.7062 0.32188 0.53508 0.0
O139 O 0.68 0.28146 0.48926 0.0
C140 C 0.64486 0.2189 0.6004 0.0
O141 O 0.93901 0.28818 0.50865 0.0
O142 O 0.82404 0.33542 0.5547 0.0
C143 C 0.82265 0.14347 0.51495 0.0
C144 C 0.55785 0.154 0.46413 0.0
C145 C 0.52436 0.15751 0.39987 0.0
C146 C 0.48709 0.11695 0.43202 0.0
C147 C 0.50354 0.11526 0.46385 0.0
C148 C 0.59525 0.1948 0.43231 0.0
C149 C 0.57885 0.19659 0.4004 0.0
C150 C 0.57629 0.15086 0.49719 0.0
C151 C 0.85941 0.24715 0.42874 0.0
H152 H 0.91284 0.39533 0.65124 0.0
H153 H 0.88881 0.40213 0.59424 0.0
H154 H 0.96048 0.2346 0.56123 0.0
H155 H 0.98492 0.22754 0.61837 0.0
H156 H 0.44529 0.08618 0.43244 0.0
H157 H 0.47427 0.0834 0.48809 0.0
H158 H 0.63787 0.22495 0.4319 0.0
H159 H 0.6105 0.228 0.376 0.0
H160 H 0.65767 0.58403 0.03926 0.0
C161 C 0.65607 0.61385 0.01852 0.0
H162 H 0.60672 0.63352 0.98175 0.0
H163 H 0.57168 0.3691 0.98186 0.0
H164 H 0.73186 0.36862 0.9345 0.0
H165 H 0.81615 0.45226 0.92074 0.0
H166 H 0.74102 0.53673 0.95449 0.0
C167 C 0.61195 0.60323 1.00105 0.0
C168 C 0.56217 0.55222 0.01046 0.0
C169 C 0.60739 0.50323 0.99042 0.0
C170 C 0.55876 0.45519 0.9979 0.0
C171 C 0.60537 0.4068 0.97729 0.0
C172 C 0.69729 0.40595 0.94999 0.0
C173 C 0.74477 0.45303 0.94228 0.0
C174 C 0.70075 0.50124 0.96203 0.0
H175 H 0.37236 0.43726 0.99269 0.0
C176 C 0.37173 0.40336 0.01124 0.0
H177 H 0.41785 0.37304 0.04721 0.0
H178 H 0.45568 0.63909 0.05499 0.0
H179 H 0.29558 0.63909 0.10354 0.0
H180 H 0.21138 0.55534 0.11749 0.0
H181 H 0.28665 0.47121 0.0827 0.0
C182 C 0.41494 0.40714 0.0299 0.0
C183 C 0.46523 0.45655 0.02475 0.0
C184 C 0.42008 0.50517 0.04584 0.0
C185 C 0.46865 0.5532 0.03833 0.0
C186 C 0.42201 0.60139 0.0595 0.0
C187 C 0.33014 0.60194 0.08755 0.0
C188 C 0.28271 0.55481 0.09536 0.0
C189 C 0.32677 0.50685 0.07494 0.0
H190 H 0.48904 0.6022 0.4478 0.0
C191 C 0.4187 0.59885 0.47326 0.0
H192 H 0.31757 0.55226 0.52567 0.0
H193 H 0.51425 0.32877 0.47077 0.0
H194 H 0.39288 0.31086 0.46571 0.0
H195 H 0.29583 0.38451 0.47305 0.0
H196 H 0.31926 0.47654 0.48602 0.0
C197 C 0.38767 0.55579 0.49986 0.0
C198 C 0.44763 0.5118 0.49477 0.0
C199 C 0.4341 0.45836 0.48635 0.0
C200 C 0.49147 0.41615 0.48101 0.0
C201 C 0.47434 0.3628 0.47411 0.0
C202 C 0.4045 0.3518 0.47127 0.0
C203 C 0.34982 0.39325 0.47546 0.0
C204 C 0.364 0.44593 0.48297 0.0
H205 H 0.60234 0.39963 0.53948 0.0
C206 C 0.6299 0.37228 0.51189 0.0
H207 H 0.64849 0.3552 0.45222 0.0
H208 H 0.48315 0.60725 0.51919 0.0
H209 H 0.61267 0.6272 0.51721 0.0
H210 H 0.72573 0.55739 0.49567 0.0
H211 H 0.70741 0.46662 0.47802 0.0
C212 C 0.62021 0.38263 0.47981 0.0
C213 C 0.56376 0.42774 0.48298 0.0
C214 C 0.57963 0.48169 0.48939 0.0
C215 C 0.51883 0.52314 0.49772 0.0
C216 C 0.53062 0.57516 0.50929 0.0
C217 C 0.60428 0.58705 0.50879 0.0
C218 C 0.66758 0.54768 0.49696 0.0
C219 C 0.65574 0.49556 0.48736 0.0
H220 H 0.16117 0.08639 0.01158 0.0
C221 C 0.12714 0.12409 0.01567 0.0
H222 H 0.02141 0.16064 0.01815 0.0
H223 H 0.042 0.95188 0.90965 0.0
H224 H 0.13091 0.01411 0.84932 0.0
H225 H 0.17093 0.10363 0.86162 0.0
H226 H 0.12409 0.13105 0.93406 0.0
C227 C 0.05507 0.12349 0.01572 0.0
C228 C 0.02381 0.07193 0.00919 0.0
C229 C 0.05217 0.05653 0.96663 0.0
C230 C 0.02822 0.00523 0.95966 0.0
C231 C 0.05809 0.99053 0.91676 0.0
C232 C 0.10919 0.02582 0.88186 0.0
C233 C 0.13193 0.07616 0.88875 0.0
C234 C 0.10447 0.09144 0.93051 0.0
H235 H 0.81982 0.94278 0.01282 0.0
C236 C 0.8663 0.9093 0.99935 0.0
H237 H 0.99637 0.8844 0.97431 0.0
H238 H 0.95371 0.09119 0.09509 0.0
H239 H 0.86156 0.03017 0.15583 0.0
H240 H 0.82042 0.94083 0.14393 0.0
H241 H 0.87212 0.91167 0.07116 0.0
C242 C 0.94823 0.91692 0.98824 0.0
C243 C 0.97457 0.97006 0.99543 0.0
C244 C 0.94473 0.98594 0.03819 0.0
C245 C 0.96909 0.03714 0.04507 0.0
C246 C 0.93786 0.05242 0.08805 0.0
C247 C 0.8847 0.01788 0.12321 0.0
C248 C 0.86157 0.96758 0.1165 0.0
C249 C 0.89136 0.95146 0.07455 0.0
H250 H 0.82567 0.05579 0.52364 0.0
C251 C 0.8638 0.09279 0.51505 0.0
H252 H 0.98561 0.12709 0.49557 0.0
H253 H 0.96044 0.8866 0.58365 0.0
H254 H 0.84194 0.9264 0.65216 0.0
H255 H 0.79013 0.01894 0.65457 0.0
H256 H 0.85535 0.07172 0.58832 0.0
C257 C 0.94541 0.09088 0.50541 0.0
C258 C 0.98494 0.03857 0.5051 0.0
C259 C 0.94884 0.00932 0.54447 0.0
C260 C 0.98169 0.95707 0.54336 0.0
C261 C 0.94067 0.92734 0.58277 0.0
C262 C 0.87212 0.94958 0.62234 0.0
C263 C 0.84271 0.00159 0.62367 0.0
C264 C 0.88035 0.0313 0.58532 0.0
H265 H 0.1384 0.9041 0.53758 0.0
C266 C 0.13296 0.87205 0.51954 0.0
H267 H 0.08641 0.8502 0.482 0.0
H268 H 0.07134 0.08514 0.42411 0.0
H269 H 0.19545 0.04751 0.3561 0.0
H270 H 0.25697 0.95856 0.35461 0.0
H271 H 0.19427 0.90653 0.421 0.0
C272 C 0.08957 0.8812 0.50149 0.0
C273 C 0.05354 0.93541 0.50317 0.0
C274 C 0.09165 0.9655 0.46406 0.0
C275 C 0.05714 0.01711 0.46501 0.0
C276 C 0.09551 0.04595 0.42536 0.0
C277 C 0.16678 0.02482 0.38605 0.0
C278 C 0.20134 0.97472 0.3852 0.0
C279 C 0.16453 0.94522 0.4236 0.0
H280 H 0.47547 0.11987 0.36431 0.0
C281 C 0.50704 0.15589 0.3658 0.0
H282 H 0.55412 0.23378 0.3384 0.0
H283 H 0.56856 0.1034 0.17973 0.0
H284 H 0.68322 0.04891 0.17378 0.0
H285 H 0.71993 0.05899 0.22674 0.0
H286 H 0.64309 0.12404 0.28554 0.0
C287 C 0.5274 0.19569 0.33693 0.0
C288 C 0.50761 0.19049 0.30388 0.0
C289 C 0.55418 0.15269 0.26921 0.0
C290 C 0.53334 0.14712 0.23849 0.0
C291 C 0.58108 0.1091 0.20418 0.0
C292 C 0.64738 0.07765 0.20025 0.0
C293 C 0.66811 0.08336 0.23002 0.0
C294 C 0.62278 0.12059 0.26394 0.0
H295 H 0.48439 0.24884 0.18217 0.0
C296 C 0.45963 0.20964 0.18096 0.0
H297 H 0.41738 0.1327 0.21051 0.0
H298 H 0.40724 0.26749 0.36568 0.0
H299 H 0.29293 0.32236 0.3715 0.0
H300 H 0.2562 0.31242 0.31854 0.0
H301 H 0.33402 0.24812 0.25931 0.0
C302 C 0.44378 0.1718 0.21043 0.0
C303 C 0.46704 0.17992 0.24192 0.0
C304 C 0.42135 0.21831 0.27623 0.0
C305 C 0.44202 0.22373 0.30705 0.0
C306 C 0.39458 0.26183 0.34127 0.0
C307 C 0.32858 0.29352 0.34509 0.0
C308 C 0.30795 0.28796 0.31527 0.0
C309 C 0.35341 0.25085 0.28127 0.0
H310 H 0.52095 0.78539 0.14854 0.0
C311 C 0.59058 0.78318 0.13532 0.0
H312 H 0.68449 0.78254 0.14998 0.0
H313 H 0.41774 0.88321 0.33831 0.0
H314 H 0.50809 0.96193 0.29965 0.0
H315 H 0.61922 0.9597 0.21978 0.0
H316 H 0.6392 0.87944 0.17798 0.0
C317 C 0.61522 0.78323 0.16248 0.0
C318 C 0.54894 0.7842 0.21042 0.0
C319 C 0.53968 0.83105 0.23431 0.0
C320 C 0.47774 0.8317 0.28044 0.0
C321 C 0.46647 0.87989 0.30341 0.0
C322 C 0.51729 0.92547 0.28157 0.0
C323 C 0.57965 0.92432 0.23659 0.0
C324 C 0.59067 0.87789 0.21301 0.0
H325 H 0.47698 0.79646 0.35661 0.0
C326 C 0.40868 0.78413 0.37288 0.0
H327 H 0.30361 0.7703 0.36774 0.0
H328 H 0.55279 0.68688 0.17422 0.0
H329 H 0.46066 0.60923 0.21258 0.0
H330 H 0.35213 0.61057 0.29263 0.0
H331 H 0.33598 0.68923 0.33462 0.0
C332 C 0.37244 0.78165 0.35084 0.0
C333 C 0.42779 0.78474 0.30251 0.0
C334 C 0.4348 0.73849 0.27844 0.0
C335 C 0.49624 0.738 0.2323 0.0
C336 C 0.50524 0.69031 0.20918 0.0
C337 C 0.4532 0.64513 0.23085 0.0
C338 C 0.39225 0.64585 0.27588 0.0
C339 C 0.38344 0.69159 0.2996 0.0
H340 H 0.61465 0.82593 0.8048 0.0
C341 C 0.55414 0.8222 0.83755 0.0
H342 H 0.41567 0.81188 0.87431 0.0
H343 H 0.37072 0.91322 0.73454 0.0
H344 H 0.28768 0.97581 0.79498 0.0
H345 H 0.28939 0.96825 0.85988 0.0
H346 H 0.37389 0.89786 0.86477 0.0
C347 C 0.47717 0.81661 0.84219 0.0
C348 C 0.47304 0.81939 0.80381 0.0
C349 C 0.42403 0.86127 0.80132 0.0
C350 C 0.42391 0.86618 0.76368 0.0
C351 C 0.37378 0.908 0.76219 0.0
C352 C 0.32567 0.94417 0.7967 0.0
C353 C 0.32664 0.93988 0.83322 0.0
C354 C 0.37535 0.89916 0.83563 0.0
H355 H 0.39771 0.76792 0.70144 0.0
C356 C 0.4325 0.80168 0.67936 0.0
H357 H 0.51174 0.87033 0.66766 0.0
H358 H 0.55917 0.72804 0.80155 0.0
H359 H 0.64316 0.66607 0.7408 0.0
H360 H 0.65339 0.67928 0.67302 0.0
H361 H 0.57803 0.75384 0.66601 0.0
C362 C 0.47523 0.83623 0.68861 0.0
C363 C 0.47312 0.82951 0.72851 0.0
C364 C 0.52083 0.78703 0.73127 0.0
C365 C 0.51878 0.78107 0.76946 0.0
C366 C 0.56217 0.73618 0.77248 0.0
C367 C 0.60998 0.69995 0.73799 0.0
C368 C 0.61545 0.70726 0.6999 0.0
C369 C 0.5715 0.75016 0.6964 0.0
H370 H 0.51654 0.21656 0.66531 0.0
C371 C 0.58755 0.21352 0.64838 0.0
H372 H 0.69291 0.20557 0.65449 0.0
H373 H 0.49269 0.3191 0.83813 0.0
H374 H 0.61121 0.38196 0.79205 0.0
H375 H 0.71118 0.36826 0.71237 0.0
H376 H 0.69223 0.29212 0.67832 0.0
C377 C 0.62186 0.20804 0.67133 0.0
C378 C 0.56654 0.21267 0.71975 0.0
C379 C 0.57968 0.25703 0.73923 0.0
C380 C 0.5232 0.26432 0.78529 0.0
C381 C 0.53513 0.31048 0.80356 0.0
C382 C 0.60268 0.34721 0.77741 0.0
C383 C 0.65885 0.33956 0.73256 0.0
C384 C 0.64732 0.29543 0.71346 0.0
H385 H 0.48245 0.22186 0.87469 0.0
C386 C 0.41475 0.23188 0.88726 0.0
H387 H 0.32333 0.24402 0.87184 0.0
H388 H 0.53461 0.11814 0.6935 0.0
H389 H 0.42289 0.05154 0.7401 0.0
H390 H 0.32477 0.06425 0.8199 0.0
H391 H 0.3369 0.14376 0.85368 0.0
C392 C 0.39134 0.23563 0.8596 0.0
C393 C 0.45526 0.22635 0.81184 0.0
C394 C 0.4453 0.1805 0.79252 0.0
C395 C 0.5014 0.17343 0.74644 0.0
C396 C 0.49216 0.12625 0.72819 0.0
C397 C 0.42873 0.0875 0.75459 0.0
C398 C 0.37339 0.09467 0.79953 0.0
C399 C 0.38105 0.14056 0.81848 0.0
H400 H 0.87988 0.65739 0.20995 0.0
C401 C 0.94208 0.65 0.17846 0.0
H402 H 0.07682 0.62944 0.148 0.0
H403 H 0.965 0.72596 0.33779 0.0
H404 H 0.95529 0.81233 0.31059 0.0
H405 H 0.97262 0.8187 0.24057 0.0
H406 H 0.99786 0.7386 0.19784 0.0
C407 C 0.01297 0.63751 0.17814 0.0
C408 C 0.007 0.63427 0.2194 0.0
C409 C 0.99584 0.68185 0.24313 0.0
C410 C 0.9904 0.67852 0.28242 0.0
C411 C 0.97386 0.72633 0.30673 0.0
C412 C 0.96738 0.7762 0.29168 0.0
C413 C 0.97678 0.77976 0.25236 0.0
C414 C 0.9908 0.73333 0.22825 0.0
H415 H 0.11574 0.67083 0.30877 0.0
C416 C 0.06532 0.64792 0.33727 0.0
H417 H 0.94892 0.6015 0.36396 0.0
H418 H 0.02757 0.53548 0.18217 0.0
H419 H 0.04105 0.44912 0.2084 0.0
H420 H 0.03656 0.44362 0.2751 0.0
H421 H 0.01838 0.52431 0.31612 0.0
C422 C 1.0011 0.62449 0.33634 0.0
C423 C 1.00064 0.62793 0.2968 0.0
C424 C 0.01122 0.58034 0.27319 0.0
C425 C 0.01454 0.58354 0.23446 0.0
C426 C 0.02516 0.53536 0.2116 0.0
C427 C 0.03286 0.48553 0.22632 0.0
C428 C 0.03026 0.48242 0.2639 0.0
C429 C 0.01972 0.5291 0.28716 0.0
H430 H 0.91471 0.21728 0.36286 0.0
C431 C 0.91243 0.25242 0.38083 0.0
H432 H 0.94336 0.33535 0.37623 0.0
H433 H 0.18355 0.22089 0.17569 0.0
H434 H 0.25795 0.17267 0.20147 0.0
H435 H 0.21458 0.18529 0.27647 0.0
H436 H 0.0951 0.24608 0.32651 0.0
C437 C 0.94943 0.29863 0.3589 0.0
C438 C 0.98823 0.30091 0.31122 0.0
C439 C 0.06147 0.2679 0.28142 0.0
C440 C 0.08669 0.26092 0.23804 0.0
C441 C 0.15965 0.22695 0.20935 0.0
C442 C 0.20407 0.19951 0.22349 0.0
C443 C 0.17947 0.20652 0.26576 0.0
C444 C 0.11004 0.24093 0.2943 0.0
H445 H 0.08416 0.35199 0.15476 0.0
C446 C 0.08688 0.30903 0.14827 0.0
H447 H 0.06365 0.23015 0.17297 0.0
H448 H 0.85372 0.37338 0.35807 0.0
H449 H 0.77374 0.41911 0.33406 0.0
H450 H 0.81087 0.40306 0.26047 0.0
H451 H 0.92846 0.3419 0.21038 0.0
C452 C 0.05979 0.2729 0.18047 0.0
C453 C 0.03867 0.28705 0.22427 0.0
C454 C 0.968 0.32235 0.25353 0.0
C455 C 0.94433 0.33019 0.29669 0.0
C456 C 0.87381 0.36558 0.3252 0.0
C457 C 0.82728 0.39207 0.31186 0.0
C458 C 0.84837 0.38315 0.27038 0.0
C459 C 0.91707 0.34832 0.24164 0.0
H460 H 0.01017 0.2722 0.66998 0.0
C461 C 0.96638 0.30455 0.67411 0.0
H462 H 0.88416 0.36817 0.71554 0.0
H463 H 0.94935 0.22462 0.84484 0.0
H464 H 0.87134 0.15225 0.8373 0.0
H465 H 0.82639 0.16144 0.78752 0.0
H466 H 0.86008 0.24261 0.74454 0.0
C467 C 0.9292 0.336 0.70999 0.0
C468 C 0.95209 0.33062 0.742 0.0
C469 C 0.93014 0.28323 0.76769 0.0
C470 C 0.95408 0.27846 0.79735 0.0
C471 C 0.93248 0.23042 0.82201 0.0
C472 C 0.8875 0.18863 0.81809 0.0
C473 C 0.86233 0.19377 0.79 0.0
C474 C 0.88281 0.24048 0.7652 0.0
H475 H 0.92635 0.36731 0.87994 0.0
C476 C 0.98169 0.34165 0.87142 0.0
H477 H 0.07992 0.28928 0.8223 0.0
H478 H 0.00228 0.42752 0.69896 0.0
H479 H 0.07711 0.50046 0.70791 0.0
H480 H 0.116 0.49274 0.76013 0.0
H481 H 0.08167 0.41162 0.80326 0.0
C482 C 0.02453 0.31564 0.83273 0.0
C483 C 0.99738 0.3216 0.80247 0.0
C484 C 0.01743 0.36949 0.77759 0.0
C485 C 0.99468 0.374 0.74746 0.0
C486 C 0.01707 0.42199 0.7226 0.0
C487 C 0.06018 0.46423 0.72735 0.0
C488 C 0.08222 0.45984 0.7567 0.0
C489 C 0.0617 0.41307 0.78143 0.0
H490 H 0.0412 0.70613 0.65095 0.0
C491 C 0.11228 0.70224 0.63339 0.0
H492 H 0.21966 0.69698 0.63809 0.0
H493 H 0.04744 0.82648 0.81208 0.0
H494 H 0.16815 0.88503 0.7597 0.0
H495 H 0.25457 0.8658 0.68077 0.0
H496 H 0.22224 0.78753 0.65383 0.0
C497 C 0.14847 0.6997 0.65557 0.0
C498 C 0.09569 0.71056 0.70323 0.0
C499 C 0.11436 0.75743 0.71824 0.0
C500 C 0.06296 0.76947 0.76355 0.0
C501 C 0.08383 0.81589 0.77787 0.0
C502 C 0.1529 0.84984 0.74819 0.0
C503 C 0.20173 0.83891 0.70377 0.0
C504 C 0.18273 0.79354 0.68877 0.0
H505 H 0.99367 0.6964 0.85919 0.0
C506 C 0.94352 0.72725 0.86971 0.0
H507 H 0.8857 0.78202 0.84993 0.0
H508 H 0.05051 0.61366 0.6861 0.0
H509 H 0.92902 0.55572 0.73863 0.0
H510 H 0.83413 0.57969 0.81678 0.0
H511 H 0.86041 0.66161 0.84293 0.0
C512 C 0.93442 0.75054 0.84034 0.0
C513 C 0.992 0.73537 0.79358 0.0
C514 C 0.97411 0.68808 0.77879 0.0
C515 C 0.0271 0.67511 0.73357 0.0
C516 C 0.01034 0.62644 0.71986 0.0
C517 C 0.94124 0.5926 0.74972 0.0
C518 C 0.88789 0.60606 0.79373 0.0
C519 C 0.9038 0.65317 0.80831 0.0
loop_
_geom_bond_atom_site_label_1
_geom_bond_atom_site_label_2
_geom_bond_distance
_geom_bond_site_symmetry_2
_ccdc_geom_bond_type
Tb0 C9 2.764 1_554 S
Tb0 O10 2.325 1_554 S
Tb0 O13 2.303 . S
Tb0 O17 2.322 . S
Tb0 O18 2.349 1_554 S
Tb0 O21 2.415 1_554 S
Tb0 O22 2.399 1_554 S
Tb1 O11 2.322 1_554 S
Tb1 O12 2.349 . S
Tb1 O14 2.415 . S
Tb1 O15 2.399 . S
Tb1 O16 2.325 . S
Tb1 O19 2.303 . S
Tb1 C30 2.764 . S
C2 O18 1.261 1_554 S
C2 O19 1.257 . S
C3 C6 1.358 . S
C3 C7 1.332 . S
C3 C9 1.504 . S
C4 C5 1.373 . S
C4 C8 1.308 . S
C5 C4 1.373 . S
C5 C6 1.429 . S
C5 H32 0.932 . S
C6 C3 1.358 . S
C6 C5 1.429 . S
C6 H33 0.930 . S
C7 C3 1.332 . S
C7 C8 1.394 . S
C7 H34 0.932 . S
C8 C4 1.308 . S
C8 C7 1.394 . S
C8 H35 0.929 . S
C9 Tb0 2.764 1_556 S
C9 C3 1.504 . S
C9 O21 1.239 . S
C9 O22 1.263 . S
O10 Tb0 2.325 1_556 S
O10 C20 1.236 . S
O11 Tb1 2.322 1_556 S
O11 C20 1.257 . S
O12 Tb1 2.349 . S
O12 C23 1.261 . S
O13 Tb0 2.303 . S
O13 C23 1.257 . S
O14 Tb1 2.415 . S
O14 C30 1.239 . S
O15 Tb1 2.399 . S
O15 C30 1.263 . S
O16 Tb1 2.325 . S
O16 C31 1.236 . S
O17 Tb0 2.322 . S
O17 C31 1.257 . S
O18 Tb0 2.349 1_556 S
O18 C2 1.261 1_556 S
O19 Tb1 2.303 . S
O19 C2 1.257 . S
C20 O10 1.236 . S
C20 O11 1.257 . S
O21 Tb0 2.415 1_556 S
O21 C9 1.239 . S
O22 Tb0 2.399 1_556 S
O22 C9 1.263 . S
C23 O12 1.261 . S
C23 O13 1.257 . S
C24 C27 1.358 . S
C24 C28 1.332 . S
C24 C30 1.504 . S
C25 C26 1.373 . S
C25 C29 1.308 . S
C26 C25 1.373 . S
C26 C27 1.429 . S
C26 H36 0.932 . S
C27 C24 1.358 . S
C27 C26 1.429 . S
C27 H37 0.930 . S
C28 C24 1.332 . S
C28 C29 1.394 . S
C28 H38 0.932 . S
C29 C25 1.308 . S
C29 C28 1.394 . S
C29 H39 0.929 . S
C30 Tb1 2.764 . S
C30 O14 1.239 . S
C30 O15 1.263 . S
C30 C24 1.504 . S
C31 O16 1.236 . S
C31 O17 1.257 . S
H32 C5 0.932 . S
H33 C6 0.930 . S
H34 C7 0.932 . S
H35 C8 0.929 . S
H36 C26 0.932 . S
H37 C27 0.930 . S
H38 C28 0.932 . S
H39 C29 0.929 . S
Tb40 C49 2.764 1_554 S
Tb40 O50 2.325 1_554 S
Tb40 O53 2.303 . S
Tb40 O57 2.322 . S
Tb40 O58 2.349 1_554 S
Tb40 O61 2.415 1_554 S
Tb40 O62 2.399 1_554 S
Tb41 O51 2.322 1_554 S
Tb41 O52 2.349 . S
Tb41 O54 2.415 . S
Tb41 O55 2.399 . S
Tb41 O56 2.325 . S
Tb41 O59 2.303 . S
Tb41 C70 2.764 . S
C42 O58 1.261 1_554 S
C42 O59 1.257 . S
C43 C46 1.358 . S
C43 C47 1.332 . S
C43 C49 1.504 . S
C44 C45 1.373 . S
C44 C48 1.308 . S
C45 C44 1.373 . S
C45 C46 1.429 . S
C45 H72 0.932 . S
C46 C43 1.358 . S
C46 C45 1.429 . S
C46 H73 0.930 . S
C47 C43 1.332 . S
C47 C48 1.394 . S
C47 H74 0.932 . S
C48 C44 1.308 . S
C48 C47 1.394 . S
C48 H75 0.929 . S
C49 Tb40 2.764 1_556 S
C49 C43 1.504 . S
C49 O61 1.239 . S
C49 O62 1.263 . S
O50 Tb40 2.325 1_556 S
O50 C60 1.236 . S
O51 Tb41 2.322 1_556 S
O51 C60 1.257 . S
O52 Tb41 2.349 . S
O52 C63 1.261 . S
O53 Tb40 2.303 . S
O53 C63 1.257 . S
O54 Tb41 2.415 . S
O54 C70 1.239 . S
O55 Tb41 2.399 . S
O55 C70 1.263 . S
O56 Tb41 2.325 . S
O56 C71 1.236 . S
O57 Tb40 2.322 . S
O57 C71 1.257 . S
O58 Tb40 2.349 1_556 S
O58 C42 1.261 1_556 S
O59 Tb41 2.303 . S
O59 C42 1.257 . S
C60 O50 1.236 . S
C60 O51 1.257 . S
O61 Tb40 2.415 1_556 S
O61 C49 1.239 . S
O62 Tb40 2.399 1_556 S
O62 C49 1.263 . S
C63 O52 1.261 . S
C63 O53 1.257 . S
C64 C67 1.358 . S
C64 C68 1.332 . S
C64 C70 1.504 . S
C65 C66 1.373 . S
C65 C69 1.308 . S
C66 C65 1.373 . S
C66 C67 1.429 . S
C66 H76 0.932 . S
C67 C64 1.358 . S
C67 C66 1.429 . S
C67 H77 0.930 . S
C68 C64 1.332 . S
C68 C69 1.394 . S
C68 H78 0.932 . S
C69 C65 1.308 . S
C69 C68 1.394 . S
C69 H79 0.929 . S
C70 Tb41 2.764 . S
C70 O54 1.239 . S
C70 O55 1.263 . S
C70 C64 1.504 . S
C71 O56 1.236 . S
C71 O57 1.257 . S
H72 C45 0.932 . S
H73 C46 0.930 . S
H74 C47 0.932 . S
H75 C48 0.929 . S
H76 C66 0.932 . S
H77 C67 0.930 . S
H78 C68 0.932 . S
H79 C69 0.929 . S
Tb80 C89 2.764 . S
Tb80 O90 2.325 . S
Tb80 O93 2.303 . S
Tb80 O97 2.322 . S
Tb80 O98 2.349 . S
Tb80 O101 2.415 . S
Tb80 O102 2.399 . S
Tb81 O91 2.322 . S
Tb81 O92 2.349 . S
Tb81 O94 2.415 . S
Tb81 O95 2.399 . S
Tb81 O96 2.325 . S
Tb81 O99 2.303 . S
Tb81 C110 2.764 . S
C82 O98 1.261 . S
C82 O99 1.257 . S
C83 C86 1.358 . S
C83 C87 1.332 . S
C83 C89 1.504 . S
C84 C85 1.373 . S
C84 C88 1.308 . S
C85 C84 1.373 . S
C85 C86 1.429 . S
C85 H112 0.932 . S
C86 C83 1.358 . S
C86 C85 1.429 . S
C86 H113 0.930 . S
C87 C83 1.332 . S
C87 C88 1.394 . S
C87 H114 0.932 . S
C88 C84 1.308 . S
C88 C87 1.394 . S
C88 H115 0.929 . S
C89 Tb80 2.764 . S
C89 C83 1.504 . S
C89 O101 1.239 . S
C89 O102 1.263 . S
O90 Tb80 2.325 . S
O90 C100 1.236 . S
O91 Tb81 2.322 . S
O91 C100 1.257 . S
O92 Tb81 2.349 . S
O92 C103 1.261 . S
O93 Tb80 2.303 . S
O93 C103 1.257 . S
O94 Tb81 2.415 . S
O94 C110 1.239 . S
O95 Tb81 2.399 . S
O95 C110 1.263 . S
O96 Tb81 2.325 . S
O96 C111 1.236 . S
O97 Tb80 2.322 . S
O97 C111 1.257 . S
O98 Tb80 2.349 . S
O98 C82 1.261 . S
O99 Tb81 2.303 . S
O99 C82 1.257 . S
C100 O90 1.236 . S
C100 O91 1.257 . S
O101 Tb80 2.415 . S
O101 C89 1.239 . S
O102 Tb80 2.399 . S
O102 C89 1.263 . S
C103 O92 1.261 . S
C103 O93 1.257 . S
C104 C107 1.358 . S
C104 C108 1.332 . S
C104 C110 1.504 . S
C105 C106 1.373 . S
C105 C109 1.308 . S
C106 C105 1.373 . S
C106 C107 1.429 . S
C106 H116 0.932 . S
C107 C104 1.358 . S
C107 C106 1.429 . S
C107 H117 0.930 . S
C108 C104 1.332 . S
C108 C109 1.394 . S
C108 H118 0.932 . S
C109 C105 1.308 . S
C109 C108 1.394 . S
C109 H119 0.929 . S
C110 Tb81 2.764 . S
C110 O94 1.239 . S
C110 O95 1.263 . S
C110 C104 1.504 . S
C111 O96 1.236 . S
C111 O97 1.257 . S
H112 C85 0.932 . S
H113 C86 0.930 . S
H114 C87 0.932 . S
H115 C88 0.929 . S
H116 C106 0.932 . S
H117 C107 0.930 . S
H118 C108 0.932 . S
H119 C109 0.929 . S
Tb120 C129 2.764 . S
Tb120 O130 2.325 . S
Tb120 O133 2.303 . S
Tb120 O137 2.322 . S
Tb120 O138 2.349 . S
Tb120 O141 2.415 . S
Tb120 O142 2.399 . S
Tb121 O131 2.322 . S
Tb121 O132 2.349 . S
Tb121 O134 2.415 . S
Tb121 O135 2.399 . S
Tb121 O136 2.325 . S
Tb121 O139 2.303 . S
Tb121 C150 2.764 . S
C122 O138 1.261 . S
C122 O139 1.257 . S
C123 C126 1.358 . S
C123 C127 1.332 . S
C123 C129 1.504 . S
C124 C125 1.373 . S
C124 C128 1.308 . S
C125 C124 1.373 . S
C125 C126 1.429 . S
C125 H152 0.932 . S
C126 C123 1.358 . S
C126 C125 1.429 . S
C126 H153 0.930 . S
C127 C123 1.332 . S
C127 C128 1.394 . S
C127 H154 0.932 . S
C128 C124 1.308 . S
C128 C127 1.394 . S
C128 H155 0.929 . S
C129 Tb120 2.764 . S
C129 C123 1.504 . S
C129 O141 1.239 . S
C129 O142 1.263 . S
O130 Tb120 2.325 . S
O130 C140 1.236 . S
O131 Tb121 2.322 . S
O131 C140 1.257 . S
O132 Tb121 2.349 . S
O132 C143 1.261 . S
O133 Tb120 2.303 . S
O133 C143 1.257 . S
O134 Tb121 2.415 . S
O134 C150 1.239 . S
O135 Tb121 2.399 . S
O135 C150 1.263 . S
O136 Tb121 2.325 . S
O136 C151 1.236 . S
O137 Tb120 2.322 . S
O137 C151 1.257 . S
O138 Tb120 2.349 . S
O138 C122 1.261 . S
O139 Tb121 2.303 . S
O139 C122 1.257 . S
C140 O130 1.236 . S
C140 O131 1.257 . S
O141 Tb120 2.415 . S
O141 C129 1.239 . S
O142 Tb120 2.399 . S
O142 C129 1.263 . S
C143 O132 1.261 . S
C143 O133 1.257 . S
C144 C147 1.358 . S
C144 C148 1.332 . S
C144 C150 1.504 . S
C145 C146 1.373 . S
C145 C149 1.308 . S
C146 C145 1.373 . S
C146 C147 1.429 . S
C146 H156 0.932 . S
C147 C144 1.358 . S
C147 C146 1.429 . S
C147 H157 0.930 . S
C148 C144 1.332 . S
C148 C149 1.394 . S
C148 H158 0.932 . S
C149 C145 1.308 . S
C149 C148 1.394 . S
C149 H159 0.929 . S
C150 Tb121 2.764 . S
C150 O134 1.239 . S
C150 O135 1.263 . S
C150 C144 1.504 . S
C151 O136 1.236 . S
C151 O137 1.257 . S
H152 C125 0.932 . S
H153 C126 0.930 . S
H154 C127 0.932 . S
H155 C128 0.929 . S
H156 C146 0.932 . S
H157 C147 0.930 . S
H158 C148 0.932 . S
H159 C149 0.929 . S
H160 C161 0.951 . S
C161 H160 0.951 . S
C161 C167 1.265 1_554 S
H162 C167 0.950 . S
H163 C171 0.949 . S
H164 C172 0.950 . S
H165 C173 0.951 . S
H166 C174 0.959 1_556 S
C167 C161 1.265 1_556 S
C167 H162 0.950 . S
C167 C168 1.478 . S
C168 C167 1.478 . S
C168 C169 1.397 1_556 S
C168 C185 1.396 1_556 S
C169 C168 1.397 1_554 S
C169 C170 1.438 . S
C169 C174 1.417 . S
C170 C169 1.438 . S
C170 C171 1.428 . S
C170 C183 1.394 . S
C171 H163 0.949 . S
C171 C170 1.428 . S
C171 C172 1.345 . S
C172 H164 0.950 . S
C172 C171 1.345 . S
C172 C173 1.424 . S
C173 H165 0.951 . S
C173 C172 1.424 . S
C173 C174 1.351 . S
C174 H166 0.959 1_554 S
C174 C169 1.417 . S
C174 C173 1.351 . S
H175 C176 0.951 . S
C176 H175 0.951 . S
C176 C182 1.265 1_556 S
H177 C182 0.950 . S
H178 C186 0.949 . S
H179 C187 0.950 . S
H180 C188 0.951 . S
H181 C189 0.951 . S
C182 C176 1.265 1_554 S
C182 H177 0.950 . S
C182 C183 1.478 . S
C183 C170 1.394 . S
C183 C182 1.478 . S
C183 C184 1.397 . S
C184 C183 1.397 . S
C184 C185 1.437 . S
C184 C189 1.429 . S
C185 C168 1.396 1_554 S
C185 C184 1.437 . S
C185 C186 1.427 1_554 S
C186 H178 0.949 . S
C186 C185 1.427 1_556 S
C186 C187 1.345 . S
C187 H179 0.950 . S
C187 C186 1.345 . S
C187 C188 1.424 1_556 S
C188 H180 0.951 . S
C188 C187 1.424 1_554 S
C188 C189 1.347 . S
C189 H181 0.951 . S
C189 C184 1.429 . S
C189 C188 1.347 . S
H190 C191 0.951 . S
C191 H190 0.951 . S
C191 C197 1.265 . S
H192 C197 0.950 . S
H193 C201 0.949 . S
H194 C202 0.950 . S
H195 C203 0.951 . S
H196 C204 0.951 . S
C197 C191 1.265 . S
C197 H192 0.950 . S
C197 C198 1.478 . S
C198 C197 1.478 . S
C198 C199 1.397 . S
C198 C215 1.394 . S
C199 C198 1.397 . S
C199 C200 1.438 . S
C199 C204 1.429 . S
C200 C199 1.438 . S
C200 C201 1.428 . S
C200 C213 1.394 . S
C201 H193 0.949 . S
C201 C200 1.428 . S
C201 C202 1.345 . S
C202 H194 0.950 . S
C202 C201 1.345 . S
C202 C203 1.424 . S
C203 H195 0.951 . S
C203 C202 1.424 . S
C203 C204 1.347 . S
C204 H196 0.951 . S
C204 C199 1.429 . S
C204 C203 1.347 . S
H205 C206 0.951 . S
C206 H205 0.951 . S
C206 C212 1.265 . S
H207 C212 0.950 . S
H208 C216 0.949 . S
H209 C217 0.950 . S
H210 C218 0.951 . S
H211 C219 0.951 . S
C212 C206 1.265 . S
C212 H207 0.950 . S
C212 C213 1.478 . S
C213 C200 1.394 . S
C213 C212 1.478 . S
C213 C214 1.397 . S
C214 C213 1.397 . S
C214 C215 1.438 . S
C214 C219 1.429 . S
C215 C198 1.394 . S
C215 C214 1.438 . S
C215 C216 1.428 . S
C216 H208 0.949 . S
C216 C215 1.428 . S
C216 C217 1.345 . S
C217 H209 0.950 . S
C217 C216 1.345 . S
C217 C218 1.424 . S
C218 H210 0.951 . S
C218 C217 1.424 . S
C218 C219 1.347 . S
C219 H211 0.951 . S
C219 C214 1.429 . S
C219 C218 1.347 . S
H220 C221 0.951 . S
C221 H220 0.951 . S
C221 C227 1.265 . S
H222 C227 0.950 . S
H223 C231 0.949 . S
H224 C232 0.950 . S
H225 C233 0.951 . S
H226 C234 0.951 . S
C227 C221 1.265 . S
C227 H222 0.950 . S
C227 C228 1.478 . S
C228 C227 1.478 . S
C228 C229 1.397 1_554 S
C228 C245 1.394 . S
C229 C228 1.397 1_556 S
C229 C230 1.438 1_445 S
C229 C234 1.429 . S
C230 C229 1.438 1_665 S
C230 C231 1.428 . S
C230 C243 1.394 1_556 S
C231 H223 0.949 . S
C231 C230 1.428 . S
C231 C232 1.345 1_665 S
C232 H224 0.950 . S
C232 C231 1.345 1_445 S
C232 C233 1.424 . S
C233 H225 0.951 . S
C233 C232 1.424 . S
C233 C234 1.347 . S
C234 H226 0.951 . S
C234 C229 1.429 . S
C234 C233 1.347 . S
H235 C236 0.951 . S
C236 H235 0.951 . S
C236 C242 1.265 . S
H237 C242 0.950 . S
H238 C246 0.949 . S
H239 C247 0.950 . S
H240 C248 0.951 . S
H241 C249 0.951 . S
C242 C236 1.265 . S
C242 H237 0.950 . S
C242 C243 1.478 . S
C243 C230 1.394 1_554 S
C243 C242 1.478 . S
C243 C244 1.397 . S
C244 C243 1.397 . S
C244 C245 1.438 1_665 S
C244 C249 1.429 . S
C245 C228 1.394 . S
C245 C244 1.438 1_445 S
C245 C246 1.428 . S
C246 H238 0.949 . S
C246 C245 1.428 . S
C246 C247 1.345 1_445 S
C247 H239 0.950 . S
C247 C246 1.345 1_665 S
C247 C248 1.424 . S
C248 H240 0.951 . S
C248 C247 1.424 . S
C248 C249 1.347 . S
C249 H241 0.951 . S
C249 C244 1.429 . S
C249 C248 1.347 . S
H250 C251 0.951 . S
C251 H250 0.951 . S
C251 C257 1.265 . S
H252 C257 0.950 . S
H253 C261 0.949 1_565 S
H254 C262 0.950 . S
H255 C263 0.951 . S
H256 C264 0.951 . S
C257 C251 1.265 . S
C257 H252 0.950 . S
C257 C258 1.478 . S
C258 C257 1.478 . S
C258 C259 1.397 . S
C258 C275 1.412 . S
C259 C258 1.397 . S
C259 C260 1.420 1_645 S
C259 C264 1.429 . S
C260 C259 1.420 1_465 S
C260 C261 1.427 1_565 S
C260 C273 1.412 . S
C261 H253 0.949 1_545 S
C261 C260 1.427 1_545 S
C261 C262 1.345 . S
C262 H254 0.950 . S
C262 C261 1.345 . S
C262 C263 1.424 . S
C263 H255 0.951 . S
C263 C262 1.424 . S
C263 C264 1.347 1_455 S
C264 H256 0.951 . S
C264 C259 1.429 . S
C264 C263 1.347 1_655 S
H265 C266 0.951 . S
C266 H265 0.951 . S
C266 C272 1.265 . S
H267 C272 0.950 . S
H268 C276 0.949 1_545 S
H269 C277 0.950 . S
H270 C278 0.951 . S
H271 C279 0.951 . S
C272 C266 1.265 . S
C272 H267 0.950 . S
C272 C273 1.478 . S
C273 C260 1.412 . S
C273 C272 1.478 . S
C273 C274 1.397 . S
C274 C273 1.397 . S
C274 C275 1.420 1_465 S
C274 C279 1.429 . S
C275 C258 1.412 . S
C275 C274 1.420 1_645 S
C275 C276 1.427 1_545 S
C276 H268 0.949 1_565 S
C276 C275 1.427 1_565 S
C276 C277 1.345 . S
C277 H269 0.950 . S
C277 C276 1.345 . S
C277 C278 1.424 . S
C278 H270 0.951 . S
C278 C277 1.424 . S
C278 C279 1.347 1_655 S
C279 H271 0.951 . S
C279 C274 1.429 . S
C279 C278 1.347 1_455 S
H280 C281 0.951 . S
C281 H280 0.951 . S
C281 C287 1.265 . S
H282 C287 0.950 . S
H283 C291 0.949 . S
H284 C292 0.950 1_565 S
H285 C293 0.951 1_565 S
H286 C294 0.951 . S
C287 C281 1.265 . S
C287 H282 0.950 . S
C287 C288 1.478 . S
C288 C287 1.478 . S
C288 C289 1.397 . S
C288 C305 1.394 . S
C289 C288 1.397 . S
C289 C290 1.438 . S
C289 C294 1.429 . S
C290 C289 1.438 . S
C290 C291 1.428 . S
C290 C303 1.394 . S
C291 H283 0.949 . S
C291 C290 1.428 . S
C291 C292 1.345 . S
C292 H284 0.950 1_545 S
C292 C291 1.345 . S
C292 C293 1.424 . S
C293 H285 0.951 1_545 S
C293 C292 1.424 . S
C293 C294 1.347 . S
C294 H286 0.951 . S
C294 C289 1.429 . S
C294 C293 1.347 . S
H295 C296 0.951 . S
C296 H295 0.951 . S
C296 C302 1.265 . S
H297 C302 0.950 . S
H298 C306 0.949 . S
H299 C307 0.950 . S
H300 C308 0.951 . S
H301 C309 0.951 . S
C302 C296 1.265 . S
C302 H297 0.950 . S
C302 C303 1.478 . S
C303 C290 1.394 . S
C303 C302 1.478 . S
C303 C304 1.397 . S
C304 C303 1.397 . S
C304 C305 1.438 . S
C304 C309 1.429 . S
C305 C288 1.394 . S
C305 C304 1.438 . S
C305 C306 1.428 . S
C306 H298 0.949 . S
C306 C305 1.428 . S
C306 C307 1.345 . S
C307 H299 0.950 . S
C307 C306 1.345 . S
C307 C308 1.424 . S
C308 H300 0.951 . S
C308 C307 1.424 . S
C308 C309 1.347 . S
C309 H301 0.951 . S
C309 C304 1.429 . S
C309 C308 1.347 . S
H310 C311 0.951 . S
C311 H310 0.951 . S
C311 C317 1.265 . S
H312 C317 0.950 . S
H313 C321 0.949 . S
H314 C322 0.950 . S
H315 C323 0.951 . S
H316 C324 0.951 . S
C317 C311 1.265 . S
C317 H312 0.950 . S
C317 C318 1.478 . S
C318 C317 1.478 . S
C318 C319 1.397 . S
C318 C335 1.394 . S
C319 C318 1.397 . S
C319 C320 1.438 . S
C319 C324 1.429 . S
C320 C319 1.438 . S
C320 C321 1.428 . S
C320 C333 1.394 . S
C321 H313 0.949 . S
C321 C320 1.428 . S
C321 C322 1.345 . S
C322 H314 0.950 . S
C322 C321 1.345 . S
C322 C323 1.424 . S
C323 H315 0.951 . S
C323 C322 1.424 . S
C323 C324 1.347 . S
C324 H316 0.951 . S
C324 C319 1.429 . S
C324 C323 1.347 . S
H325 C326 0.951 . S
C326 H325 0.951 . S
C326 C332 1.265 . S
H327 C332 0.950 . S
H328 C336 0.949 . S
H329 C337 0.950 . S
H330 C338 0.951 . S
H331 C339 0.951 . S
C332 C326 1.265 . S
C332 H327 0.950 . S
C332 C333 1.478 . S
C333 C320 1.394 . S
C333 C332 1.478 . S
C333 C334 1.397 . S
C334 C333 1.397 . S
C334 C335 1.438 . S
C334 C339 1.429 . S
C335 C318 1.394 . S
C335 C334 1.438 . S
C335 C336 1.428 . S
C336 H328 0.949 . S
C336 C335 1.428 . S
C336 C337 1.345 . S
C337 H329 0.950 . S
C337 C336 1.345 . S
C337 C338 1.424 . S
C338 H330 0.951 . S
C338 C337 1.424 . S
C338 C339 1.347 . S
C339 H331 0.951 . S
C339 C334 1.429 . S
C339 C338 1.347 . S
H340 C341 0.951 . S
C341 H340 0.951 . S
C341 C347 1.265 . S
H342 C347 0.950 . S
H343 C351 0.949 . S
H344 C352 0.950 1_545 S
H345 C353 0.951 1_545 S
H346 C354 0.951 . S
C347 C341 1.265 . S
C347 H342 0.950 . S
C347 C348 1.478 . S
C348 C347 1.478 . S
C348 C349 1.397 . S
C348 C365 1.394 . S
C349 C348 1.397 . S
C349 C350 1.438 . S
C349 C354 1.429 . S
C350 C349 1.438 . S
C350 C351 1.428 . S
C350 C363 1.394 . S
C351 H343 0.949 . S
C351 C350 1.428 . S
C351 C352 1.345 . S
C352 H344 0.950 1_565 S
C352 C351 1.345 . S
C352 C353 1.424 . S
C353 H345 0.951 1_565 S
C353 C352 1.424 . S
C353 C354 1.347 . S
C354 H346 0.951 . S
C354 C349 1.429 . S
C354 C353 1.347 . S
H355 C356 0.951 . S
C356 H355 0.951 . S
C356 C362 1.265 . S
H357 C362 0.950 . S
H358 C366 0.949 . S
H359 C367 0.950 . S
H360 C368 0.951 . S
H361 C369 0.951 . S
C362 C356 1.265 . S
C362 H357 0.950 . S
C362 C363 1.478 . S
C363 C350 1.394 . S
C363 C362 1.478 . S
C363 C364 1.397 . S
C364 C363 1.397 . S
C364 C365 1.438 . S
C364 C369 1.429 . S
C365 C348 1.394 . S
C365 C364 1.438 . S
C365 C366 1.428 . S
C366 H358 0.949 . S
C366 C365 1.428 . S
C366 C367 1.345 . S
C367 H359 0.950 . S
C367 C366 1.345 . S
C367 C368 1.424 . S
C368 H360 0.951 . S
C368 C367 1.424 . S
C368 C369 1.347 . S
C369 H361 0.951 . S
C369 C364 1.429 . S
C369 C368 1.347 . S
H370 C371 0.951 . S
C371 H370 0.951 . S
C371 C377 1.265 . S
H372 C377 0.950 . S
H373 C381 0.949 . S
H374 C382 0.950 . S
H375 C383 0.951 . S
H376 C384 0.951 . S
C377 C371 1.265 . S
C377 H372 0.950 . S
C377 C378 1.478 . S
C378 C377 1.478 . S
C378 C379 1.397 . S
C378 C395 1.394 . S
C379 C378 1.397 . S
C379 C380 1.438 . S
C379 C384 1.429 . S
C380 C379 1.438 . S
C380 C381 1.428 . S
C380 C393 1.394 . S
C381 H373 0.949 . S
C381 C380 1.428 . S
C381 C382 1.345 . S
C382 H374 0.950 . S
C382 C381 1.345 . S
C382 C383 1.424 . S
C383 H375 0.951 . S
C383 C382 1.424 . S
C383 C384 1.347 . S
C384 H376 0.951 . S
C384 C379 1.429 . S
C384 C383 1.347 . S
H385 C386 0.951 . S
C386 H385 0.951 . S
C386 C392 1.265 . S
H387 C392 0.950 . S
H388 C396 0.949 . S
H389 C397 0.950 . S
H390 C398 0.951 . S
H391 C399 0.951 . S
C392 C386 1.265 . S
C392 H387 0.950 . S
C392 C393 1.478 . S
C393 C380 1.394 . S
C393 C392 1.478 . S
C393 C394 1.397 . S
C394 C393 1.397 . S
C394 C395 1.438 . S
C394 C399 1.429 . S
C395 C378 1.394 . S
C395 C394 1.438 . S
C395 C396 1.428 . S
C396 H388 0.949 . S
C396 C395 1.428 . S
C396 C397 1.345 . S
C397 H389 0.950 . S
C397 C396 1.345 . S
C397 C398 1.424 . S
C398 H390 0.951 . S
C398 C397 1.424 . S
C398 C399 1.347 . S
C399 H391 0.951 . S
C399 C394 1.429 . S
C399 C398 1.347 . S
H400 C401 0.951 . S
C401 H400 0.951 . S
C401 C407 1.265 1_655 S
H402 C407 0.950 . S
H403 C411 0.949 . S
H404 C412 0.950 . S
H405 C413 0.951 . S
H406 C414 0.951 . S
C407 C401 1.265 1_455 S
C407 H402 0.950 . S
C407 C408 1.478 . S
C408 C407 1.478 . S
C408 C409 1.397 1_455 S
C408 C425 1.394 . S
C409 C408 1.397 1_655 S
C409 C410 1.438 . S
C409 C414 1.429 . S
C410 C409 1.438 . S
C410 C411 1.428 . S
C410 C423 1.394 . S
C411 H403 0.949 . S
C411 C410 1.428 . S
C411 C412 1.345 . S
C412 H404 0.950 . S
C412 C411 1.345 . S
C412 C413 1.424 . S
C413 H405 0.951 . S
C413 C412 1.424 . S
C413 C414 1.347 . S
C414 H406 0.951 . S
C414 C409 1.429 . S
C414 C413 1.347 . S
H415 C416 0.951 . S
C416 H415 0.951 . S
C416 C422 1.265 1_455 S
H417 C422 0.950 . S
H418 C426 0.949 . S
H419 C427 0.950 . S
H420 C428 0.951 . S
H421 C429 0.951 . S
C422 C416 1.265 1_655 S
C422 H417 0.950 . S
C422 C423 1.478 . S
C423 C410 1.394 . S
C423 C422 1.478 . S
C423 C424 1.397 1_655 S
C424 C423 1.397 1_455 S
C424 C425 1.438 . S
C424 C429 1.429 . S
C425 C408 1.394 . S
C425 C424 1.438 . S
C425 C426 1.428 . S
C426 H418 0.949 . S
C426 C425 1.428 . S
C426 C427 1.345 . S
C427 H419 0.950 . S
C427 C426 1.345 . S
C427 C428 1.424 . S
C428 H420 0.951 . S
C428 C427 1.424 . S
C428 C429 1.347 . S
C429 H421 0.951 . S
C429 C424 1.429 . S
C429 C428 1.347 . S
H430 C431 0.951 . S
C431 H430 0.951 . S
C431 C437 1.265 . S
H432 C437 0.950 1_455 S
H433 C441 0.949 . S
H434 C442 0.950 . S
H435 C443 0.951 . S
H436 C444 0.951 . S
C437 C431 1.265 . S
C437 H432 0.950 1_655 S
C437 C438 1.478 . S
C438 C437 1.478 . S
C438 C439 1.397 1_655 S
C438 C455 1.394 . S
C439 C438 1.397 1_455 S
C439 C440 1.438 . S
C439 C444 1.429 . S
C440 C439 1.438 . S
C440 C441 1.428 . S
C440 C453 1.394 . S
C441 H433 0.949 . S
C441 C440 1.428 . S
C441 C442 1.345 . S
C442 H434 0.950 . S
C442 C441 1.345 . S
C442 C443 1.424 . S
C443 H435 0.951 . S
C443 C442 1.424 . S
C443 C444 1.347 . S
C444 H436 0.951 . S
C444 C439 1.429 . S
C444 C443 1.347 . S
H445 C446 0.951 . S
C446 H445 0.951 . S
C446 C452 1.265 . S
H447 C452 0.950 1_655 S
H448 C456 0.949 . S
H449 C457 0.950 . S
H450 C458 0.951 . S
H451 C459 0.951 . S
C452 C446 1.265 . S
C452 H447 0.950 1_455 S
C452 C453 1.478 . S
C453 C440 1.394 . S
C453 C452 1.478 . S
C453 C454 1.397 1_455 S
C454 C453 1.397 1_655 S
C454 C455 1.438 . S
C454 C459 1.429 . S
C455 C438 1.394 . S
C455 C454 1.438 . S
C455 C456 1.428 . S
C456 H448 0.949 . S
C456 C455 1.428 . S
C456 C457 1.345 . S
C457 H449 0.950 . S
C457 C456 1.345 . S
C457 C458 1.424 . S
C458 H450 0.951 . S
C458 C457 1.424 . S
C458 C459 1.347 . S
C459 H451 0.951 . S
C459 C454 1.429 . S
C459 C458 1.347 . S
H460 C461 0.951 1_455 S
C461 H460 0.951 1_655 S
C461 C467 1.265 . S
H462 C467 0.950 . S
H463 C471 0.949 . S
H464 C472 0.950 . S
H465 C473 0.951 . S
H466 C474 0.951 . S
C467 C461 1.265 . S
C467 H462 0.950 . S
C467 C468 1.478 . S
C468 C467 1.478 . S
C468 C469 1.397 . S
C468 C485 1.394 1_655 S
C469 C468 1.397 . S
C469 C470 1.438 . S
C469 C474 1.429 . S
C470 C469 1.438 . S
C470 C471 1.428 . S
C470 C483 1.394 1_655 S
C471 H463 0.949 . S
C471 C470 1.428 . S
C471 C472 1.345 . S
C472 H464 0.950 . S
C472 C471 1.345 . S
C472 C473 1.424 . S
C473 H465 0.951 . S
C473 C472 1.424 . S
C473 C474 1.347 . S
C474 H466 0.951 . S
C474 C469 1.429 . S
C474 C473 1.347 . S
H475 C476 0.951 1_655 S
C476 H475 0.951 1_455 S
C476 C482 1.265 . S
H477 C482 0.950 . S
H478 C486 0.949 . S
H479 C487 0.950 . S
H480 C488 0.951 . S
H481 C489 0.951 . S
C482 C476 1.265 . S
C482 H477 0.950 . S
C482 C483 1.478 . S
C483 C470 1.394 1_455 S
C483 C482 1.478 . S
C483 C484 1.397 . S
C484 C483 1.397 . S
C484 C485 1.438 . S
C484 C489 1.429 . S
C485 C468 1.394 1_455 S
C485 C484 1.438 . S
C485 C486 1.428 . S
C486 H478 0.949 . S
C486 C485 1.428 . S
C486 C487 1.345 . S
C487 H479 0.950 . S
C487 C486 1.345 . S
C487 C488 1.424 . S
C488 H480 0.951 . S
C488 C487 1.424 . S
C488 C489 1.347 . S
C489 H481 0.951 . S
C489 C484 1.429 . S
C489 C488 1.347 . S
H490 C491 0.951 . S
C491 H490 0.951 . S
C491 C497 1.265 . S
H492 C497 0.950 . S
H493 C501 0.949 . S
H494 C502 0.950 . S
H495 C503 0.951 . S
H496 C504 0.951 . S
C497 C491 1.265 . S
C497 H492 0.950 . S
C497 C498 1.478 . S
C498 C497 1.478 . S
C498 C499 1.397 . S
C498 C515 1.394 . S
C499 C498 1.397 . S
C499 C500 1.438 1_455 S
C499 C504 1.429 . S
C500 C499 1.438 1_655 S
C500 C501 1.428 . S
C500 C513 1.394 . S
C501 H493 0.949 . S
C501 C500 1.428 . S
C501 C502 1.345 1_655 S
C502 H494 0.950 . S
C502 C501 1.345 1_455 S
C502 C503 1.424 . S
C503 H495 0.951 . S
C503 C502 1.424 . S
C503 C504 1.347 . S
C504 H496 0.951 . S
C504 C499 1.429 . S
C504 C503 1.347 . S
H505 C506 0.951 . S
C506 H505 0.951 . S
C506 C512 1.265 . S
H507 C512 0.950 . S
H508 C516 0.949 . S
H509 C517 0.950 . S
H510 C518 0.951 . S
H511 C519 0.951 . S
C512 C506 1.265 . S
C512 H507 0.950 . S
C512 C513 1.478 . S
C513 C500 1.394 . S
C513 C512 1.478 . S
C513 C514 1.397 . S
C514 C513 1.397 . S
C514 C515 1.438 1_655 S
C514 C519 1.429 . S
C515 C498 1.394 . S
C515 C514 1.438 1_455 S
C515 C516 1.428 . S
C516 H508 0.949 . S
C516 C515 1.428 . S
C516 C517 1.345 1_455 S
C517 H509 0.950 . S
C517 C516 1.345 1_655 S
C517 C518 1.424 . S
C518 H510 0.951 . S
C518 C517 1.424 . S
C518 C519 1.347 . S
C519 H511 0.951 . S
C519 C514 1.429 . S
C519 C518 1.347 . S
C161 C63 1.571 . S
C176 C2 1.571 1_556 S
C191 C103 1.578 . S
C206 C122 1.578 . S
C221 C23 1.566 . S
C236 C42 1.566 . S
C251 C143 1.569 . S
C266 C82 1.569 . S
C281 C145 1.124 . S
C296 C25 1.121 . S
C311 C71 1.446 . S
C326 C111 1.450 . S
C341 C44 1.042 . S
C356 C84 1.046 . S
C371 C140 1.450 . S
C386 C20 1.446 . S
C401 C65 1.072 . S
C416 C105 1.030 . S
C431 C151 1.428 . S
C446 C31 1.429 . S
C461 C124 1.123 . S
C476 C4 1.122 . S
C491 C100 1.451 . S
C506 C60 1.445 . S
