# Generated by pormake.
# Topology fcm, (5)-cn, num edge types: 1
# Building blocks:
#     Node 0, Type 0, BuildingBlock: XOMCOT_clean_sbu_0, # of connection points: 5
#     Node 1, Type 0, BuildingBlock: XOMCOT_clean_sbu_0, # of connection points: 5
#     Node 2, Type 0, BuildingBlock: XOMCOT_clean_sbu_0, # of connection points: 5
#     Node 3, Type 0, BuildingBlock: XOMCOT_clean_sbu_0, # of connection points: 5
#     Node 4, Type 0, BuildingBlock: XOMCOT_clean_sbu_0, # of connection points: 5
#     Node 5, Type 0, BuildingBlock: XOMCOT_clean_sbu_0, # of connection points: 5
#     Node 6, Type 0, BuildingBlock: XOMCOT_clean_sbu_0, # of connection points: 5
#     Node 7, Type 0, BuildingBlock: XOMCOT_clean_sbu_0, # of connection points: 5
#     Node 8, Type 0, BuildingBlock: XOMCOT_clean_sbu_0, # of connection points: 5
#     Node 9, Type 0, BuildingBlock: XOMCOT_clean_sbu_0, # of connection points: 5
#     Node 10, Type 0, BuildingBlock: XOMCOT_clean_sbu_0, # of connection points: 5
#     Node 11, Type 0, BuildingBlock: XOMCOT_clean_sbu_0, # of connection points: 5
#     Node 12, Type 0, BuildingBlock: XOMCOT_clean_sbu_0, # of connection points: 5
#     Node 13, Type 0, BuildingBlock: XOMCOT_clean_sbu_0, # of connection points: 5
#     Node 14, Type 0, BuildingBlock: XOMCOT_clean_sbu_0, # of connection points: 5
#     Node 15, Type 0, BuildingBlock: XOMCOT_clean_sbu_0, # of connection points: 5
#     Node 16, Type 0, BuildingBlock: XOMCOT_clean_sbu_0, # of connection points: 5
#     Node 17, Type 0, BuildingBlock: XOMCOT_clean_sbu_0, # of connection points: 5
#     Node 18, Type 0, BuildingBlock: XOMCOT_clean_sbu_0, # of connection points: 5
#     Node 19, Type 0, BuildingBlock: XOMCOT_clean_sbu_0, # of connection points: 5
#     Node 20, Type 0, BuildingBlock: XOMCOT_clean_sbu_0, # of connection points: 5
#     Node 21, Type 0, BuildingBlock: XOMCOT_clean_sbu_0, # of connection points: 5
#     Node 22, Type 0, BuildingBlock: XOMCOT_clean_sbu_0, # of connection points: 5
#     Node 23, Type 0, BuildingBlock: XOMCOT_clean_sbu_0, # of connection points: 5
#     Node 24, Type 0, BuildingBlock: XOMCOT_clean_sbu_0, # of connection points: 5
#     Node 25, Type 0, BuildingBlock: XOMCOT_clean_sbu_0, # of connection points: 5
#     Node 26, Type 0, BuildingBlock: XOMCOT_clean_sbu_0, # of connection points: 5
#     Node 27, Type 0, BuildingBlock: XOMCOT_clean_sbu_0, # of connection points: 5
#     Node 28, Type 0, BuildingBlock: XOMCOT_clean_sbu_0, # of connection points: 5
#     Node 29, Type 0, BuildingBlock: XOMCOT_clean_sbu_0, # of connection points: 5
#     Node 30, Type 0, BuildingBlock: XOMCOT_clean_sbu_0, # of connection points: 5
#     Node 31, Type 0, BuildingBlock: XOMCOT_clean_sbu_0, # of connection points: 5
#     Node 32, Type 0, BuildingBlock: XOMCOT_clean_sbu_0, # of connection points: 5
#     Node 33, Type 0, BuildingBlock: XOMCOT_clean_sbu_0, # of connection points: 5
#     Node 34, Type 0, BuildingBlock: XOMCOT_clean_sbu_0, # of connection points: 5
#     Node 35, Type 0, BuildingBlock: XOMCOT_clean_sbu_0, # of connection points: 5
#     Node 36, Type 0, BuildingBlock: XOMCOT_clean_sbu_0, # of connection points: 5
#     Node 37, Type 0, BuildingBlock: XOMCOT_clean_sbu_0, # of connection points: 5
#     Node 38, Type 0, BuildingBlock: XOMCOT_clean_sbu_0, # of connection points: 5
#     Node 39, Type 0, BuildingBlock: XOMCOT_clean_sbu_0, # of connection points: 5
#     Node 40, Type 0, BuildingBlock: XOMCOT_clean_sbu_0, # of connection points: 5
#     Node 41, Type 0, BuildingBlock: XOMCOT_clean_sbu_0, # of connection points: 5
#     Node 42, Type 0, BuildingBlock: XOMCOT_clean_sbu_0, # of connection points: 5
#     Node 43, Type 0, BuildingBlock: XOMCOT_clean_sbu_0, # of connection points: 5
#     Node 44, Type 0, BuildingBlock: XOMCOT_clean_sbu_0, # of connection points: 5
#     Node 45, Type 0, BuildingBlock: XOMCOT_clean_sbu_0, # of connection points: 5
#     Node 46, Type 0, BuildingBlock: XOMCOT_clean_sbu_0, # of connection points: 5
#     Node 47, Type 0, BuildingBlock: XOMCOT_clean_sbu_0, # of connection points: 5
#     Edge 48, Type (0, 0), BuildingBlock: XIVTED_clean_linker_0, # of connection points: 2
#     Edge 49, Type (0, 0), BuildingBlock: XIVTED_clean_linker_0, # of connection points: 2
#     Edge 50, Type (0, 0), BuildingBlock: XIVTED_clean_linker_0, # of connection points: 2
#     Edge 51, Type (0, 0), BuildingBlock: XIVTED_clean_linker_0, # of connection points: 2
#     Edge 52, Type (0, 0), BuildingBlock: XIVTED_clean_linker_0, # of connection points: 2
#     Edge 53, Type (0, 0), BuildingBlock: XIVTED_clean_linker_0, # of connection points: 2
#     Edge 54, Type (0, 0), BuildingBlock: XIVTED_clean_linker_0, # of connection points: 2
#     Edge 55, Type (0, 0), BuildingBlock: XIVTED_clean_linker_0, # of connection points: 2
#     Edge 56, Type (0, 0), BuildingBlock: XIVTED_clean_linker_0, # of connection points: 2
#     Edge 57, Type (0, 0), BuildingBlock: XIVTED_clean_linker_0, # of connection points: 2
#     Edge 58, Type (0, 0), BuildingBlock: XIVTED_clean_linker_0, # of connection points: 2
#     Edge 59, Type (0, 0), BuildingBlock: XIVTED_clean_linker_0, # of connection points: 2
#     Edge 60, Type (0, 0), BuildingBlock: XIVTED_clean_linker_0, # of connection points: 2
#     Edge 61, Type (0, 0), BuildingBlock: XIVTED_clean_linker_0, # of connection points: 2
#     Edge 62, Type (0, 0), BuildingBlock: XIVTED_clean_linker_0, # of connection points: 2
#     Edge 63, Type (0, 0), BuildingBlock: XIVTED_clean_linker_0, # of connection points: 2
#     Edge 64, Type (0, 0), BuildingBlock: XIVTED_clean_linker_0, # of connection points: 2
#     Edge 65, Type (0, 0), BuildingBlock: XIVTED_clean_linker_0, # of connection points: 2
#     Edge 66, Type (0, 0), BuildingBlock: XIVTED_clean_linker_0, # of connection points: 2
#     Edge 67, Type (0, 0), BuildingBlock: XIVTED_clean_linker_0, # of connection points: 2
#     Edge 68, Type (0, 0), BuildingBlock: XIVTED_clean_linker_0, # of connection points: 2
#     Edge 69, Type (0, 0), BuildingBlock: XIVTED_clean_linker_0, # of connection points: 2
#     Edge 70, Type (0, 0), BuildingBlock: XIVTED_clean_linker_0, # of connection points: 2
#     Edge 71, Type (0, 0), BuildingBlock: XIVTED_clean_linker_0, # of connection points: 2
#     Edge 72, Type (0, 0), BuildingBlock: XIVTED_clean_linker_0, # of connection points: 2
#     Edge 73, Type (0, 0), BuildingBlock: XIVTED_clean_linker_0, # of connection points: 2
#     Edge 74, Type (0, 0), BuildingBlock: XIVTED_clean_linker_0, # of connection points: 2
#     Edge 75, Type (0, 0), BuildingBlock: XIVTED_clean_linker_0, # of connection points: 2
#     Edge 76, Type (0, 0), BuildingBlock: XIVTED_clean_linker_0, # of connection points: 2
#     Edge 77, Type (0, 0), BuildingBlock: XIVTED_clean_linker_0, # of connection points: 2
#     Edge 78, Type (0, 0), BuildingBlock: XIVTED_clean_linker_0, # of connection points: 2
#     Edge 79, Type (0, 0), BuildingBlock: XIVTED_clean_linker_0, # of connection points: 2
#     Edge 80, Type (0, 0), BuildingBlock: XIVTED_clean_linker_0, # of connection points: 2
#     Edge 81, Type (0, 0), BuildingBlock: XIVTED_clean_linker_0, # of connection points: 2
#     Edge 82, Type (0, 0), BuildingBlock: XIVTED_clean_linker_0, # of connection points: 2
#     Edge 83, Type (0, 0), BuildingBlock: XIVTED_clean_linker_0, # of connection points: 2
#     Edge 84, Type (0, 0), BuildingBlock: XIVTED_clean_linker_0, # of connection points: 2
#     Edge 85, Type (0, 0), BuildingBlock: XIVTED_clean_linker_0, # of connection points: 2
#     Edge 86, Type (0, 0), BuildingBlock: XIVTED_clean_linker_0, # of connection points: 2
#     Edge 87, Type (0, 0), BuildingBlock: XIVTED_clean_linker_0, # of connection points: 2
#     Edge 88, Type (0, 0), BuildingBlock: XIVTED_clean_linker_0, # of connection points: 2
#     Edge 89, Type (0, 0), BuildingBlock: XIVTED_clean_linker_0, # of connection points: 2
#     Edge 90, Type (0, 0), BuildingBlock: XIVTED_clean_linker_0, # of connection points: 2
#     Edge 91, Type (0, 0), BuildingBlock: XIVTED_clean_linker_0, # of connection points: 2
#     Edge 92, Type (0, 0), BuildingBlock: XIVTED_clean_linker_0, # of connection points: 2
#     Edge 93, Type (0, 0), BuildingBlock: XIVTED_clean_linker_0, # of connection points: 2
#     Edge 94, Type (0, 0), BuildingBlock: XIVTED_clean_linker_0, # of connection points: 2
#     Edge 95, Type (0, 0), BuildingBlock: XIVTED_clean_linker_0, # of connection points: 2
#     Edge 96, Type (0, 0), BuildingBlock: XIVTED_clean_linker_0, # of connection points: 2
#     Edge 97, Type (0, 0), BuildingBlock: XIVTED_clean_linker_0, # of connection points: 2
#     Edge 98, Type (0, 0), BuildingBlock: XIVTED_clean_linker_0, # of connection points: 2
#     Edge 99, Type (0, 0), BuildingBlock: XIVTED_clean_linker_0, # of connection points: 2
#     Edge 100, Type (0, 0), BuildingBlock: XIVTED_clean_linker_0, # of connection points: 2
#     Edge 101, Type (0, 0), BuildingBlock: XIVTED_clean_linker_0, # of connection points: 2
#     Edge 102, Type (0, 0), BuildingBlock: XIVTED_clean_linker_0, # of connection points: 2
#     Edge 103, Type (0, 0), BuildingBlock: XIVTED_clean_linker_0, # of connection points: 2
#     Edge 104, Type (0, 0), BuildingBlock: XIVTED_clean_linker_0, # of connection points: 2
#     Edge 105, Type (0, 0), BuildingBlock: XIVTED_clean_linker_0, # of connection points: 2
#     Edge 106, Type (0, 0), BuildingBlock: XIVTED_clean_linker_0, # of connection points: 2
#     Edge 107, Type (0, 0), BuildingBlock: XIVTED_clean_linker_0, # of connection points: 2
#     Edge 108, Type (0, 0), BuildingBlock: XIVTED_clean_linker_0, # of connection points: 2
#     Edge 109, Type (0, 0), BuildingBlock: XIVTED_clean_linker_0, # of connection points: 2
#     Edge 110, Type (0, 0), BuildingBlock: XIVTED_clean_linker_0, # of connection points: 2
#     Edge 111, Type (0, 0), BuildingBlock: XIVTED_clean_linker_0, # of connection points: 2
#     Edge 112, Type (0, 0), BuildingBlock: XIVTED_clean_linker_0, # of connection points: 2
#     Edge 113, Type (0, 0), BuildingBlock: XIVTED_clean_linker_0, # of connection points: 2
#     Edge 114, Type (0, 0), BuildingBlock: XIVTED_clean_linker_0, # of connection points: 2
#     Edge 115, Type (0, 0), BuildingBlock: XIVTED_clean_linker_0, # of connection points: 2
#     Edge 116, Type (0, 0), BuildingBlock: XIVTED_clean_linker_0, # of connection points: 2
#     Edge 117, Type (0, 0), BuildingBlock: XIVTED_clean_linker_0, # of connection points: 2
#     Edge 118, Type (0, 0), BuildingBlock: XIVTED_clean_linker_0, # of connection points: 2
#     Edge 119, Type (0, 0), BuildingBlock: XIVTED_clean_linker_0, # of connection points: 2
#     Edge 120, Type (0, 0), BuildingBlock: XIVTED_clean_linker_0, # of connection points: 2
#     Edge 121, Type (0, 0), BuildingBlock: XIVTED_clean_linker_0, # of connection points: 2
#     Edge 122, Type (0, 0), BuildingBlock: XIVTED_clean_linker_0, # of connection points: 2
#     Edge 123, Type (0, 0), BuildingBlock: XIVTED_clean_linker_0, # of connection points: 2
#     Edge 124, Type (0, 0), BuildingBlock: XIVTED_clean_linker_0, # of connection points: 2
#     Edge 125, Type (0, 0), BuildingBlock: XIVTED_clean_linker_0, # of connection points: 2
#     Edge 126, Type (0, 0), BuildingBlock: XIVTED_clean_linker_0, # of connection points: 2
#     Edge 127, Type (0, 0), BuildingBlock: XIVTED_clean_linker_0, # of connection points: 2
#     Edge 128, Type (0, 0), BuildingBlock: XIVTED_clean_linker_0, # of connection points: 2
#     Edge 129, Type (0, 0), BuildingBlock: XIVTED_clean_linker_0, # of connection points: 2
#     Edge 130, Type (0, 0), BuildingBlock: XIVTED_clean_linker_0, # of connection points: 2
#     Edge 131, Type (0, 0), BuildingBlock: XIVTED_clean_linker_0, # of connection points: 2
#     Edge 132, Type (0, 0), BuildingBlock: XIVTED_clean_linker_0, # of connection points: 2
#     Edge 133, Type (0, 0), BuildingBlock: XIVTED_clean_linker_0, # of connection points: 2
#     Edge 134, Type (0, 0), BuildingBlock: XIVTED_clean_linker_0, # of connection points: 2
#     Edge 135, Type (0, 0), BuildingBlock: XIVTED_clean_linker_0, # of connection points: 2
#     Edge 136, Type (0, 0), BuildingBlock: XIVTED_clean_linker_0, # of connection points: 2
#     Edge 137, Type (0, 0), BuildingBlock: XIVTED_clean_linker_0, # of connection points: 2
#     Edge 138, Type (0, 0), BuildingBlock: XIVTED_clean_linker_0, # of connection points: 2
#     Edge 139, Type (0, 0), BuildingBlock: XIVTED_clean_linker_0, # of connection points: 2
#     Edge 140, Type (0, 0), BuildingBlock: XIVTED_clean_linker_0, # of connection points: 2
#     Edge 141, Type (0, 0), BuildingBlock: XIVTED_clean_linker_0, # of connection points: 2
#     Edge 142, Type (0, 0), BuildingBlock: XIVTED_clean_linker_0, # of connection points: 2
#     Edge 143, Type (0, 0), BuildingBlock: XIVTED_clean_linker_0, # of connection points: 2
#     Edge 144, Type (0, 0), BuildingBlock: XIVTED_clean_linker_0, # of connection points: 2
#     Edge 145, Type (0, 0), BuildingBlock: XIVTED_clean_linker_0, # of connection points: 2
#     Edge 146, Type (0, 0), BuildingBlock: XIVTED_clean_linker_0, # of connection points: 2
#     Edge 147, Type (0, 0), BuildingBlock: XIVTED_clean_linker_0, # of connection points: 2
#     Edge 148, Type (0, 0), BuildingBlock: XIVTED_clean_linker_0, # of connection points: 2
#     Edge 149, Type (0, 0), BuildingBlock: XIVTED_clean_linker_0, # of connection points: 2
#     Edge 150, Type (0, 0), BuildingBlock: XIVTED_clean_linker_0, # of connection points: 2
#     Edge 151, Type (0, 0), BuildingBlock: XIVTED_clean_linker_0, # of connection points: 2
#     Edge 152, Type (0, 0), BuildingBlock: XIVTED_clean_linker_0, # of connection points: 2
#     Edge 153, Type (0, 0), BuildingBlock: XIVTED_clean_linker_0, # of connection points: 2
#     Edge 154, Type (0, 0), BuildingBlock: XIVTED_clean_linker_0, # of connection points: 2
#     Edge 155, Type (0, 0), BuildingBlock: XIVTED_clean_linker_0, # of connection points: 2
#     Edge 156, Type (0, 0), BuildingBlock: XIVTED_clean_linker_0, # of connection points: 2
#     Edge 157, Type (0, 0), BuildingBlock: XIVTED_clean_linker_0, # of connection points: 2
#     Edge 158, Type (0, 0), BuildingBlock: XIVTED_clean_linker_0, # of connection points: 2
#     Edge 159, Type (0, 0), BuildingBlock: XIVTED_clean_linker_0, # of connection points: 2
#     Edge 160, Type (0, 0), BuildingBlock: XIVTED_clean_linker_0, # of connection points: 2
#     Edge 161, Type (0, 0), BuildingBlock: XIVTED_clean_linker_0, # of connection points: 2
#     Edge 162, Type (0, 0), BuildingBlock: XIVTED_clean_linker_0, # of connection points: 2
#     Edge 163, Type (0, 0), BuildingBlock: XIVTED_clean_linker_0, # of connection points: 2
#     Edge 164, Type (0, 0), BuildingBlock: XIVTED_clean_linker_0, # of connection points: 2
#     Edge 165, Type (0, 0), BuildingBlock: XIVTED_clean_linker_0, # of connection points: 2
#     Edge 166, Type (0, 0), BuildingBlock: XIVTED_clean_linker_0, # of connection points: 2
#     Edge 167, Type (0, 0), BuildingBlock: XIVTED_clean_linker_0, # of connection points: 2
# Relax obj value: 0.300
# Max RMSD: 0.287
# Mean RMSD: 0.285
data_MOF--net-fcm--node1-XOMCOT_clean_sbu_0--edge1-XIVTED_clean_linker_0
_symmetry_space_group_name_H-M    P1
_symmetry_Int_Tables_number       1
_symmetry_cell_setting            triclinic
loop_
_symmetry_equiv_pos_as_xyz
'x, y, z'
_cell_length_a     67.160286
_cell_length_b     67.165902
_cell_length_c     67.163341
_cell_angle_alpha  90.022788
_cell_angle_beta   89.958329
_cell_angle_gamma 90.034131
loop_
_atom_site_label
_atom_site_type_symbol
_atom_site_fract_x
_atom_site_fract_y
_atom_site_fract_z
_atom_type_partial_charge
Co0 Co 0.99337 0.03726 0.36045 0.0
C1 C 0.01522 0.05682 0.39302 0.0
C2 C 0.98634 0.06966 0.38941 0.0
C3 C 0.99492 0.07753 0.40639 0.0
N4 N 0.99924 0.05677 0.38095 0.0
N5 N 0.01314 0.06941 0.40848 0.0
H6 H 0.0273 0.04639 0.39193 0.0
H7 H 0.9713 0.07224 0.38428 0.0
C8 C 0.98657 0.07705 0.34142 0.0
O9 O 0.002 0.08426 0.35106 0.0
N10 N 0.9874 0.01734 0.34039 0.0
C11 C 0.98836 0.99739 0.34266 0.0
C12 C 0.98456 0.98842 0.32474 0.0
C13 C 0.9831 0.02017 0.32094 0.0
N14 N 0.98139 0.00272 0.31105 0.0
C15 C 0.03566 0.03046 0.35844 0.0
C16 C 0.04303 0.05289 0.3248 0.0
C17 C 0.05919 0.04588 0.33592 0.0
C18 C 0.05531 0.03388 0.35253 0.0
C19 C 0.02362 0.04936 0.33146 0.0
N20 N 0.02016 0.03967 0.34905 0.0
H21 H 0.03304 0.02098 0.37113 0.0
H22 H 0.01156 0.05465 0.32236 0.0
H23 H 0.99206 0.98961 0.35622 0.0
H24 H 0.98209 0.03462 0.31396 0.0
O25 O 0.99794 0.01646 0.37988 0.0
O26 O 0.96889 0.03105 0.37413 0.0
O27 O 0.98201 0.05865 0.34285 0.0
C28 C 0.97906 0.01799 0.38409 0.0
H29 H 0.98792 0.08759 0.41685 0.0
H30 H 0.98442 0.97255 0.32199 0.0
H31 H 0.04535 0.06166 0.31146 0.0
H32 H 0.06738 0.02742 0.36104 0.0
Co33 Co 0.2048 0.75472 0.61878 0.0
C34 C 0.18207 0.7719 0.65182 0.0
C35 C 0.17472 0.7412 0.64755 0.0
C36 C 0.16747 0.74721 0.66584 0.0
N37 N 0.18415 0.7567 0.63888 0.0
N38 N 0.17203 0.76657 0.66831 0.0
H39 H 0.1901 0.78572 0.65082 0.0
H40 H 0.1751 0.72606 0.64208 0.0
C41 C 0.16643 0.745 0.59815 0.0
O42 O 0.15739 0.75822 0.60938 0.0
N43 N 0.22598 0.75304 0.59945 0.0
C44 C 0.24367 0.76237 0.6011 0.0
C45 C 0.2544 0.75929 0.58402 0.0
C46 C 0.22612 0.74444 0.58129 0.0
N47 N 0.24334 0.74813 0.57152 0.0
C48 C 0.20876 0.79747 0.6196 0.0
C49 C 0.18786 0.80511 0.58507 0.0
C50 C 0.1954 0.82129 0.59591 0.0
C51 C 0.20634 0.81716 0.61324 0.0
C52 C 0.19087 0.7857 0.59182 0.0
N53 N 0.20013 0.78201 0.60957 0.0
H54 H 0.21767 0.7947 0.63268 0.0
H55 H 0.18613 0.77381 0.58222 0.0
H56 H 0.2483 0.77135 0.61363 0.0
H57 H 0.21367 0.73641 0.57501 0.0
O58 O 0.2243 0.75928 0.63974 0.0
O59 O 0.21319 0.72977 0.6301 0.0
O60 O 0.18532 0.74281 0.59922 0.0
C61 C 0.22462 0.74 0.64185 0.0
H62 H 0.16123 0.73765 0.67723 0.0
H63 H 0.26912 0.7651 0.58094 0.0
H64 H 0.1796 0.80728 0.57142 0.0
H65 H 0.21328 0.82899 0.62171 0.0
Co66 Co 0.50819 0.95436 0.87222 0.0
C67 C 0.4887 0.93448 0.90614 0.0
C68 C 0.51929 0.92603 0.90354 0.0
C69 C 0.51223 0.91955 0.92172 0.0
N70 N 0.50451 0.93558 0.89383 0.0
N71 N 0.49293 0.92474 0.92309 0.0
H72 H 0.47512 0.94273 0.90422 0.0
H73 H 0.53463 0.92559 0.89865 0.0
C74 C 0.51819 0.9144 0.85516 0.0
O75 O 0.50384 0.90653 0.86588 0.0
N76 N 0.5119 0.97354 0.85127 0.0
C77 C 0.50121 0.99034 0.84907 0.0
C78 C 0.50778 0.00015 0.83241 0.0
C79 C 0.52484 0.97327 0.83592 0.0
N80 N 0.52261 0.98942 0.82413 0.0
C81 C 0.46538 0.9571 0.87008 0.0
C82 C 0.4606 0.93451 0.83608 0.0
C83 C 0.44361 0.9413 0.84607 0.0
C84 C 0.4462 0.95323 0.863 0.0
C85 C 0.47949 0.93889 0.84359 0.0
N86 N 0.48174 0.94883 0.86124 0.0
H87 H 0.46701 0.96675 0.88283 0.0
H88 H 0.49218 0.9346 0.83479 0.0
H89 H 0.48914 0.99494 0.8587 0.0
H90 H 0.53549 0.96149 0.83333 0.0
O91 O 0.50181 0.97591 0.89032 0.0
O92 O 0.53208 0.96378 0.88511 0.0
O93 O 0.52126 0.93317 0.85549 0.0
C94 C 0.52077 0.97646 0.89433 0.0
H95 H 0.52097 0.91319 0.93367 0.0
H96 H 0.50147 0.01368 0.82635 0.0
H97 H 0.45934 0.92617 0.82232 0.0
H98 H 0.43351 0.95928 0.87091 0.0
Co99 Co 0.29486 0.25877 0.11865 0.0
C100 C 0.31149 0.23429 0.15092 0.0
C101 C 0.324 0.26353 0.15137 0.0
C102 C 0.33002 0.25355 0.16834 0.0
N103 N 0.3125 0.25127 0.14032 0.0
N104 N 0.32209 0.23511 0.16791 0.0
H105 H 0.30147 0.22229 0.14764 0.0
H106 H 0.32677 0.27902 0.14795 0.0
C107 C 0.33612 0.26725 0.10394 0.0
O108 O 0.34265 0.25185 0.11404 0.0
N109 N 0.27661 0.2661 0.09762 0.0
C110 C 0.25751 0.26007 0.0962 0.0
C111 C 0.24971 0.26688 0.07862 0.0
C112 C 0.28021 0.2764 0.08073 0.0
N113 N 0.26398 0.27708 0.06885 0.0
C114 C 0.28932 0.21672 0.11212 0.0
C115 C 0.31367 0.21342 0.07922 0.0
C116 C 0.30635 0.19595 0.08803 0.0
C117 C 0.29337 0.1979 0.1043 0.0
C118 C 0.30944 0.23192 0.08776 0.0
N119 N 0.29882 0.23326 0.10508 0.0
H120 H 0.27891 0.21783 0.12431 0.0
H121 H 0.31466 0.24503 0.08016 0.0
H122 H 0.2499 0.25061 0.10676 0.0
H123 H 0.29446 0.2828 0.07691 0.0
O124 O 0.27269 0.25193 0.13559 0.0
O125 O 0.28664 0.2818 0.1339 0.0
O126 O 0.31761 0.27168 0.10379 0.0
C127 C 0.2732 0.27028 0.14176 0.0
H128 H 0.33862 0.25975 0.18048 0.0
H129 H 0.23501 0.26351 0.07293 0.0
H130 H 0.32263 0.21289 0.06582 0.0
H131 H 0.2868 0.18502 0.11142 0.0
Co132 Co 0.98002 0.94834 0.11448 0.0
C133 C 0.00393 0.92919 0.08347 0.0
C134 C 0.97352 0.91982 0.08186 0.0
C135 C 0.983 0.91438 0.06445 0.0
N136 N 0.98667 0.92937 0.09373 0.0
N137 N 0.00214 0.9202 0.06568 0.0
H138 H 0.01683 0.93787 0.08742 0.0
H139 H 0.95769 0.91887 0.08466 0.0
C140 C 0.96978 0.90803 0.13148 0.0
O141 O 0.9829 0.8995 0.11974 0.0
N142 N 0.97355 0.96776 0.13481 0.0
C143 C 0.97136 0.98764 0.13276 0.0
C144 C 0.9689 0.99599 0.1513 0.0
C145 C 0.97243 0.96438 0.15456 0.0
N146 N 0.96969 0.98135 0.16499 0.0
C147 C 0.02166 0.95717 0.11981 0.0
C148 C 0.0291 0.92968 0.14939 0.0
C149 C 0.04516 0.94007 0.14112 0.0
C150 C 0.04118 0.9545 0.1266 0.0
C151 C 0.00991 0.93277 0.14216 0.0
N152 N 0.00644 0.94545 0.1266 0.0
H153 H 0.01903 0.9681 0.10834 0.0
H154 H 0.9981 0.92498 0.14953 0.0
H155 H 0.97221 0.99581 0.11894 0.0
H156 H 0.97405 0.94983 0.1612 0.0
O157 O 0.98545 0.96927 0.09537 0.0
O158 O 0.95602 0.95512 0.10033 0.0
O159 O 0.9677 0.92693 0.13153 0.0
C160 C 0.96675 0.96779 0.09043 0.0
H161 H 0.97598 0.90844 0.05121 0.0
H162 H 0.96764 0.01174 0.15446 0.0
H163 H 0.03133 0.91914 0.16139 0.0
H164 H 0.05308 0.96316 0.12 0.0
Co165 Co 0.29779 0.73755 0.37563 0.0
C166 C 0.30436 0.76621 0.34425 0.0
C167 C 0.32501 0.74205 0.34122 0.0
C168 C 0.32649 0.75414 0.3246 0.0
N169 N 0.31104 0.74973 0.35337 0.0
N170 N 0.31324 0.76914 0.32651 0.0
H171 H 0.29224 0.77514 0.35 0.0
H172 H 0.33248 0.72798 0.34356 0.0
C173 C 0.32696 0.7088 0.38914 0.0
O174 O 0.31379 0.69545 0.38361 0.0
N175 N 0.28428 0.72547 0.39817 0.0
C176 C 0.26918 0.71219 0.39817 0.0
C177 C 0.26324 0.7089 0.41748 0.0
C178 C 0.28755 0.72966 0.41752 0.0
N179 N 0.2747 0.72002 0.42963 0.0
C180 C 0.28503 0.77298 0.39596 0.0
C181 C 0.32294 0.78761 0.403 0.0
C182 C 0.30649 0.7991 0.40863 0.0
C183 C 0.28731 0.79162 0.40505 0.0
C184 C 0.32003 0.76933 0.39367 0.0
N185 N 0.30129 0.76215 0.39038 0.0
H186 H 0.27024 0.76732 0.39311 0.0
H187 H 0.33295 0.76133 0.38844 0.0
H188 H 0.26244 0.70557 0.38517 0.0
H189 H 0.29894 0.73985 0.42258 0.0
O190 O 0.27245 0.74291 0.36308 0.0
O191 O 0.29042 0.71556 0.35862 0.0
O192 O 0.32352 0.72719 0.38619 0.0
C193 C 0.27462 0.72582 0.35421 0.0
H194 H 0.33541 0.75123 0.31149 0.0
H195 H 0.25082 0.69969 0.42206 0.0
H196 H 0.33797 0.79309 0.40505 0.0
H197 H 0.27424 0.80014 0.40912 0.0
Co198 Co 0.50753 0.04243 0.63516 0.0
C199 C 0.48074 0.0578 0.60434 0.0
C200 C 0.50845 0.0734 0.60378 0.0
C201 C 0.4975 0.07886 0.58722 0.0
N202 N 0.49774 0.06029 0.61465 0.0
N203 N 0.48003 0.06894 0.5877 0.0
H204 H 0.47008 0.04631 0.60743 0.0
H205 H 0.52367 0.07762 0.60693 0.0
C206 C 0.51313 0.08366 0.65157 0.0
O207 O 0.49706 0.08955 0.64215 0.0
N208 N 0.51718 0.02397 0.65499 0.0
C209 C 0.51292 0.00437 0.6557 0.0
C210 C 0.52087 0.9965 0.67277 0.0
C211 C 0.52759 0.02778 0.67174 0.0
N212 N 0.53002 0.01122 0.68292 0.0
C213 C 0.4663 0.03265 0.64264 0.0
C214 C 0.46176 0.05552 0.67645 0.0
C215 C 0.44471 0.04704 0.66782 0.0
C216 C 0.44738 0.0348 0.65106 0.0
C217 C 0.48031 0.05324 0.66729 0.0
N218 N 0.48214 0.04335 0.64958 0.0
H219 H 0.46801 0.02279 0.63008 0.0
H220 H 0.49311 0.05939 0.67473 0.0
H221 H 0.50385 0.99641 0.64506 0.0
H222 H 0.53273 0.0424 0.67602 0.0
O223 O 0.50243 0.02055 0.61709 0.0
O224 O 0.53081 0.0373 0.61906 0.0
O225 O 0.51881 0.06552 0.65081 0.0
C226 C 0.52051 0.02325 0.61063 0.0
H227 H 0.50251 0.08838 0.57523 0.0
H228 H 0.51886 0.98137 0.67794 0.0
H229 H 0.46085 0.06392 0.69018 0.0
H230 H 0.43494 0.02737 0.64401 0.0
Co231 Co 0.21043 0.25731 0.87843 0.0
C232 C 0.19007 0.23384 0.84766 0.0
C233 C 0.179 0.26364 0.84826 0.0
C234 C 0.17138 0.25412 0.83164 0.0
N235 N 0.19074 0.25079 0.85831 0.0
N236 N 0.17837 0.23532 0.83149 0.0
H237 H 0.19972 0.22136 0.85005 0.0
H238 H 0.17731 0.27924 0.8519 0.0
C239 C 0.17085 0.26575 0.89714 0.0
O240 O 0.1636 0.25007 0.88796 0.0
N241 N 0.23053 0.26369 0.89794 0.0
C242 C 0.24884 0.25557 0.89877 0.0
C243 C 0.2582 0.26214 0.9157 0.0
C244 C 0.22896 0.27507 0.91441 0.0
N245 N 0.24568 0.27433 0.92561 0.0
C246 C 0.21581 0.21497 0.88327 0.0
C247 C 0.19372 0.21089 0.91764 0.0
C248 C 0.1998 0.19361 0.90756 0.0
C249 C 0.21176 0.19593 0.89058 0.0
C250 C 0.19795 0.22963 0.90961 0.0
N251 N 0.20721 0.23142 0.89155 0.0
H252 H 0.22525 0.21634 0.87033 0.0
H253 H 0.19373 0.24257 0.91809 0.0
H254 H 0.25469 0.24484 0.88829 0.0
H255 H 0.2157 0.28321 0.91845 0.0
O256 O 0.23097 0.25072 0.85934 0.0
O257 O 0.21771 0.28066 0.86321 0.0
O258 O 0.18928 0.27023 0.89543 0.0
C259 C 0.23015 0.26924 0.85374 0.0
H260 H 0.16251 0.26084 0.82 0.0
H261 H 0.27264 0.25725 0.92091 0.0
H262 H 0.18568 0.21 0.93159 0.0
H263 H 0.21741 0.1832 0.88247 0.0
Co264 Co 0.3727 0.99196 0.03863 0.0
C265 C 0.40679 0.00942 0.05798 0.0
C266 C 0.40195 0.97998 0.06927 0.0
C267 C 0.42048 0.98655 0.07553 0.0
N268 N 0.39356 0.99442 0.05815 0.0
N269 N 0.42325 0.00512 0.06846 0.0
H270 H 0.40551 0.02226 0.0483 0.0
H271 H 0.39607 0.96507 0.07086 0.0
C272 C 0.33746 0.98607 0.06615 0.0
O273 O 0.32846 0.00174 0.05867 0.0
N274 N 0.35221 0.98937 0.01813 0.0
C275 C 0.35357 0.9962 0.99923 0.0
C276 C 0.33588 0.99293 0.98956 0.0
C277 C 0.334 0.98078 0.01909 0.0
N278 N 0.32362 0.98331 0.00211 0.0
C279 C 0.3636 0.03303 0.02959 0.0
C280 C 0.35574 0.04455 0.06832 0.0
C281 C 0.35311 0.05837 0.05295 0.0
C282 C 0.35763 0.05259 0.03343 0.0
C283 C 0.36205 0.02526 0.06385 0.0
N284 N 0.36472 0.01932 0.04454 0.0
H285 H 0.36762 0.02912 0.01461 0.0
H286 H 0.36442 0.01492 0.07594 0.0
H287 H 0.36634 0.00361 0.99284 0.0
H288 H 0.32801 0.97322 0.0319 0.0
O289 O 0.39251 0.99698 0.01833 0.0
O290 O 0.38394 0.96714 0.02976 0.0
O291 O 0.35445 0.98051 0.05961 0.0
C292 C 0.39512 0.97776 0.01804 0.0
H293 H 0.43174 0.97772 0.08292 0.0
H294 H 0.33203 0.99789 0.97472 0.0
H295 H 0.3531 0.04865 0.0837 0.0
H296 H 0.3563 0.063 0.02119 0.0
Co297 Co 0.26291 0.1189 0.29272 0.0
C298 C 0.2398 0.15141 0.30865 0.0
C299 C 0.26765 0.14984 0.32412 0.0
C300 C 0.25747 0.16664 0.33047 0.0
N301 N 0.25636 0.14042 0.31047 0.0
N302 N 0.23989 0.16736 0.32075 0.0
H303 H 0.22842 0.14843 0.29763 0.0
H304 H 0.28253 0.1454 0.32838 0.0
C305 C 0.26939 0.08569 0.32195 0.0
O306 O 0.25587 0.07506 0.31263 0.0
N307 N 0.26967 0.09775 0.27389 0.0
C308 C 0.26482 0.09752 0.25436 0.0
C309 C 0.2725 0.08077 0.24563 0.0
C310 C 0.28116 0.08139 0.27639 0.0
N311 N 0.28262 0.07052 0.25952 0.0
C312 C 0.22375 0.10459 0.28114 0.0
C313 C 0.20967 0.09949 0.31949 0.0
C314 C 0.19696 0.09499 0.30354 0.0
C315 C 0.20423 0.09782 0.28412 0.0
C316 C 0.22887 0.10647 0.31585 0.0
N317 N 0.23609 0.10819 0.29688 0.0
H318 H 0.2286 0.1075 0.26617 0.0
H319 H 0.23807 0.11043 0.32845 0.0
H320 H 0.25611 0.10866 0.24673 0.0
H321 H 0.28857 0.07741 0.29005 0.0
O322 O 0.25768 0.13651 0.27061 0.0
O323 O 0.28706 0.13262 0.2853 0.0
O324 O 0.27406 0.1031 0.31577 0.0
C325 C 0.27646 0.14128 0.27161 0.0
H326 H 0.26281 0.17774 0.34087 0.0
H327 H 0.26996 0.07602 0.23044 0.0
H328 H 0.20496 0.09756 0.33478 0.0
H329 H 0.19482 0.09532 0.27129 0.0
Co330 Co 0.12146 0.0207 0.54399 0.0
C331 C 0.08786 0.99514 0.55279 0.0
C332 C 0.0882 0.02004 0.57279 0.0
C333 C 0.07051 0.00978 0.57533 0.0
N334 N 0.09888 0.01078 0.55856 0.0
N335 N 0.07031 0.99434 0.56247 0.0
H336 H 0.09203 0.98539 0.54065 0.0
H337 H 0.09223 0.03404 0.57966 0.0
C338 C 0.13812 0.04994 0.57129 0.0
O339 O 0.13404 0.06313 0.55745 0.0
N340 N 0.14421 0.03075 0.52914 0.0
C341 C 0.14429 0.04006 0.51133 0.0
C342 C 0.16357 0.04414 0.50603 0.0
C343 C 0.16355 0.02944 0.53442 0.0
N344 N 0.17575 0.03748 0.52052 0.0
C345 C 0.14295 0.98498 0.53362 0.0
C346 C 0.14552 0.97077 0.57222 0.0
C347 C 0.15381 0.95937 0.55679 0.0
C348 C 0.15244 0.96673 0.53722 0.0
C349 C 0.1364 0.98889 0.56801 0.0
N350 N 0.13526 0.99583 0.54896 0.0
H351 H 0.14177 0.99046 0.51852 0.0
H352 H 0.12978 0.99715 0.58013 0.0
H353 H 0.13146 0.0435 0.50234 0.0
H354 H 0.16847 0.02256 0.54811 0.0
O355 O 0.10811 0.01416 0.51944 0.0
O356 O 0.10539 0.04299 0.53542 0.0
O357 O 0.13308 0.03187 0.56884 0.0
C358 C 0.10008 0.03177 0.52054 0.0
H359 H 0.05811 0.0143 0.58459 0.0
H360 H 0.16815 0.05089 0.49215 0.0
H361 H 0.14557 0.96556 0.58747 0.0
H362 H 0.15867 0.95855 0.52481 0.0
Co363 Co 0.23914 0.87969 0.79114 0.0
C364 C 0.25599 0.84274 0.8072 0.0
C365 C 0.22735 0.84871 0.81974 0.0
C366 C 0.23271 0.82946 0.82461 0.0
N367 N 0.24206 0.85706 0.80883 0.0
N368 N 0.25078 0.82596 0.81675 0.0
H369 H 0.26845 0.84333 0.79715 0.0
H370 H 0.21291 0.85539 0.82223 0.0
C371 C 0.23219 0.89562 0.83209 0.0
O372 O 0.24599 0.88346 0.8387 0.0
N373 N 0.23604 0.90158 0.77299 0.0
C374 C 0.24653 0.90424 0.75611 0.0
C375 C 0.23981 0.92119 0.74687 0.0
C376 C 0.22309 0.91687 0.77388 0.0
N377 N 0.22509 0.9291 0.75804 0.0
C378 C 0.28202 0.87897 0.78757 0.0
C379 C 0.28938 0.91239 0.81035 0.0
C380 C 0.30563 0.90139 0.80322 0.0
C381 C 0.30169 0.88474 0.79122 0.0
C382 C 0.26998 0.90614 0.80621 0.0
N383 N 0.26641 0.88877 0.79618 0.0
H384 H 0.27942 0.86673 0.77751 0.0
H385 H 0.25796 0.91567 0.81087 0.0
H386 H 0.25837 0.89462 0.75099 0.0
H387 H 0.21246 0.91899 0.7858 0.0
O388 O 0.24374 0.86193 0.7689 0.0
O389 O 0.2142 0.86868 0.78203 0.0
O390 O 0.22808 0.89644 0.81353 0.0
C391 C 0.2246 0.85888 0.76897 0.0
H392 H 0.22331 0.81836 0.83157 0.0
H393 H 0.24579 0.92756 0.73333 0.0
H394 H 0.29151 0.92567 0.81923 0.0
H395 H 0.31368 0.87638 0.78441 0.0
Co396 Co 0.36754 0.00367 0.46189 0.0
C397 C 0.4041 0.98903 0.44223 0.0
C398 C 0.39814 0.01944 0.43497 0.0
C399 C 0.41712 0.01484 0.42858 0.0
N400 N 0.39001 0.00323 0.44369 0.0
N401 N 0.42059 0.99563 0.433 0.0
H402 H 0.40365 0.97496 0.44981 0.0
H403 H 0.39149 0.03411 0.435 0.0
C404 C 0.35144 0.01291 0.42184 0.0
O405 O 0.36348 0.99923 0.41473 0.0
N406 N 0.34586 0.00418 0.48057 0.0
C407 C 0.34376 0.99127 0.49574 0.0
C408 C 0.32662 0.99575 0.50585 0.0
C409 C 0.33002 0.01644 0.4816 0.0
N410 N 0.31796 0.01158 0.49702 0.0
C411 C 0.36948 0.96065 0.46154 0.0
C412 C 0.33401 0.95465 0.44168 0.0
C413 C 0.34534 0.93798 0.44707 0.0
C414 C 0.36321 0.94122 0.45741 0.0
C415 C 0.34097 0.97377 0.4459 0.0
N416 N 0.35909 0.97672 0.45469 0.0
H417 H 0.38246 0.96269 0.47077 0.0
H418 H 0.33119 0.98608 0.44276 0.0
H419 H 0.35385 0.97918 0.49902 0.0
H420 H 0.32738 0.02851 0.47128 0.0
O421 O 0.38552 0.99786 0.48366 0.0
O422 O 0.37782 0.02811 0.47283 0.0
O423 O 0.35034 0.01605 0.44059 0.0
C424 C 0.38782 0.01706 0.48513 0.0
H425 H 0.42807 0.02516 0.42281 0.0
H426 H 0.32068 0.98746 0.51832 0.0
H427 H 0.31954 0.95302 0.43478 0.0
H428 H 0.37232 0.92891 0.46238 0.0
Co429 Co 0.24172 0.1171 0.71187 0.0
C430 C 0.26807 0.14853 0.69864 0.0
C431 C 0.24251 0.14721 0.67955 0.0
C432 C 0.25434 0.16306 0.67372 0.0
N433 N 0.25131 0.13825 0.69517 0.0
N434 N 0.27043 0.16371 0.68577 0.0
H435 H 0.27782 0.14548 0.71109 0.0
H436 H 0.22828 0.14299 0.67333 0.0
C437 C 0.23231 0.08578 0.6809 0.0
O438 O 0.24288 0.07232 0.69039 0.0
N439 N 0.23195 0.09614 0.72952 0.0
C440 C 0.23635 0.09444 0.74908 0.0
C441 C 0.22679 0.07816 0.75679 0.0
C442 C 0.21881 0.08127 0.72601 0.0
N443 N 0.21592 0.06972 0.74223 0.0
C444 C 0.27928 0.10082 0.72544 0.0
C445 C 0.29423 0.09273 0.68792 0.0
C446 C 0.30608 0.08863 0.70455 0.0
C447 C 0.2985 0.09298 0.7235 0.0
C448 C 0.27531 0.1009 0.6905 0.0
N449 N 0.26765 0.10414 0.7091 0.0
H450 H 0.27414 0.1049 0.74004 0.0
H451 H 0.26702 0.10512 0.6774 0.0
H452 H 0.24594 0.10426 0.75744 0.0
H453 H 0.21128 0.07883 0.71205 0.0
O454 O 0.2467 0.13368 0.73491 0.0
O455 O 0.21838 0.13253 0.71784 0.0
O456 O 0.23074 0.10346 0.68766 0.0
C457 C 0.22849 0.13997 0.73256 0.0
H458 H 0.25111 0.17351 0.66191 0.0
H459 H 0.22856 0.07239 0.77173 0.0
H460 H 0.29983 0.09032 0.67298 0.0
H461 H 0.30741 0.09049 0.73671 0.0
Co462 Co 0.12813 0.9911 0.9571 0.0
C463 C 0.09421 0.00756 0.9364 0.0
C464 C 0.09906 0.97736 0.92728 0.0
C465 C 0.08042 0.98329 0.92086 0.0
N466 N 0.10751 0.99263 0.93722 0.0
N467 N 0.07765 0.00235 0.92648 0.0
H468 H 0.09546 0.02103 0.9452 0.0
H469 H 0.10494 0.96239 0.92681 0.0
C470 C 0.16351 0.98472 0.92961 0.0
O471 O 0.17249 0.00076 0.93631 0.0
N472 N 0.14839 0.98936 0.9779 0.0
C473 C 0.14652 0.9962 0.99675 0.0
C474 C 0.16411 0.99345 0.00674 0.0
C475 C 0.16686 0.98136 0.97724 0.0
N476 N 0.17686 0.98418 0.99441 0.0
C477 C 0.13688 0.03237 0.9654 0.0
C478 C 0.14514 0.04335 0.92661 0.0
C479 C 0.14766 0.05741 0.94182 0.0
C480 C 0.14293 0.05186 0.96137 0.0
C481 C 0.13877 0.0241 0.93129 0.0
N482 N 0.1359 0.01843 0.95064 0.0
H483 H 0.13277 0.02865 0.98041 0.0
H484 H 0.13657 0.01356 0.91932 0.0
H485 H 0.13345 0.00328 0.0029 0.0
H486 H 0.17328 0.97398 0.96454 0.0
O487 O 0.1079 0.99638 0.97699 0.0
O488 O 0.11709 0.96638 0.96653 0.0
O489 O 0.14667 0.97925 0.93661 0.0
C490 C 0.10554 0.97713 0.97775 0.0
H491 H 0.06912 0.97384 0.91431 0.0
H492 H 0.16752 0.99843 0.02168 0.0
H493 H 0.14796 0.04724 0.91121 0.0
H494 H 0.1442 0.0624 0.97352 0.0
Co495 Co 0.25004 0.88343 0.19938 0.0
C496 C 0.23378 0.84715 0.18042 0.0
C497 C 0.26464 0.85129 0.17367 0.0
C498 C 0.25912 0.83245 0.16764 0.0
N499 N 0.24872 0.8605 0.18183 0.0
N500 N 0.23966 0.83009 0.17174 0.0
H501 H 0.21957 0.84861 0.18765 0.0
H502 H 0.27965 0.85716 0.17382 0.0
C503 C 0.26117 0.8984 0.15904 0.0
O504 O 0.24829 0.88591 0.15126 0.0
N505 N 0.25158 0.90564 0.21733 0.0
C506 C 0.23929 0.90897 0.23282 0.0
C507 C 0.24594 0.92541 0.243 0.0
C508 C 0.26554 0.92003 0.21819 0.0
N509 N 0.26242 0.93231 0.23381 0.0
C510 C 0.20722 0.88296 0.19963 0.0
C511 C 0.20157 0.91593 0.17576 0.0
C512 C 0.18486 0.90524 0.18226 0.0
C513 C 0.1879 0.88881 0.19476 0.0
C514 C 0.22065 0.90955 0.18105 0.0
N515 N 0.22341 0.89245 0.19178 0.0
H516 H 0.20908 0.87075 0.20989 0.0
H517 H 0.23304 0.91879 0.17679 0.0
H518 H 0.22646 0.89997 0.23652 0.0
H519 H 0.27783 0.92132 0.20784 0.0
O520 O 0.24324 0.86632 0.22146 0.0
O521 O 0.27395 0.87248 0.21105 0.0
O522 O 0.26322 0.89974 0.17791 0.0
C523 C 0.26226 0.86326 0.22344 0.0
H524 H 0.26894 0.82085 0.16226 0.0
H525 H 0.23893 0.93204 0.25592 0.0
H526 H 0.19999 0.92906 0.16655 0.0
H527 H 0.17545 0.88068 0.201 0.0
Co528 Co 0.0434 0.36457 0.99701 0.0
C529 C 0.06491 0.39993 0.01147 0.0
C530 C 0.07093 0.39434 0.98069 0.0
C531 C 0.07782 0.41312 0.9854 0.0
N532 N 0.0626 0.38615 0.99707 0.0
N533 N 0.07413 0.4164 0.00482 0.0
H534 H 0.05778 0.39933 0.0258 0.0
H535 H 0.07014 0.38799 0.96591 0.0
C536 C 0.08255 0.34649 0.98665 0.0
O537 O 0.09072 0.35799 0.00021 0.0
N538 N 0.02374 0.34364 0.99702 0.0
C539 C 0.00677 0.34395 0.00777 0.0
C540 C 0.99806 0.32551 0.00691 0.0
C541 C 0.0251 0.325 0.98966 0.0
N542 N 0.0096 0.31367 0.99559 0.0
C543 C 0.04309 0.36659 0.03988 0.0
C544 C 0.0635 0.33156 0.04657 0.0
C545 C 0.05714 0.34271 0.06301 0.0
C546 C 0.04658 0.36036 0.05943 0.0
C547 C 0.05963 0.33831 0.0273 0.0
N548 N 0.05051 0.35622 0.02402 0.0
H549 H 0.03396 0.37959 0.03757 0.0
H550 H 0.0634 0.32853 0.01517 0.0
H551 H 0.00166 0.35634 0.01669 0.0
H552 H 0.03777 0.31936 0.98146 0.0
O553 O 0.02284 0.38397 0.00289 0.0
O554 O 0.03234 0.37484 0.97261 0.0
O555 O 0.06367 0.34644 0.98425 0.0
C556 C 0.02092 0.38581 0.9837 0.0
H557 H 0.08333 0.42417 0.97502 0.0
H558 H 0.98483 0.32082 0.01485 0.0
H559 H 0.07133 0.3176 0.04848 0.0
H560 H 0.04052 0.36903 0.0716 0.0
Co561 Co 0.53965 0.13016 0.01158 0.0
C562 C 0.55607 0.09899 0.98589 0.0
C563 C 0.57062 0.09887 0.01416 0.0
C564 C 0.57646 0.08213 0.00366 0.0
N565 N 0.55793 0.10955 0.00282 0.0
N566 N 0.56721 0.08234 0.98584 0.0
H567 H 0.54498 0.10196 0.97477 0.0
H568 H 0.57422 0.10222 0.02949 0.0
C569 C 0.58044 0.14659 0.0208 0.0
O570 O 0.58785 0.13798 0.00487 0.0
N571 N 0.52096 0.1504 0.02024 0.0
C572 C 0.50091 0.14964 0.0193 0.0
C573 C 0.49331 0.16779 0.02491 0.0
C574 C 0.52521 0.16906 0.02637 0.0
N575 N 0.50861 0.18006 0.02927 0.0
C576 C 0.53253 0.13772 0.96995 0.0
C577 C 0.55738 0.17019 0.96619 0.0
C578 C 0.54952 0.16161 0.94884 0.0
C579 C 0.53628 0.14558 0.95105 0.0
C580 C 0.5535 0.16159 0.98474 0.0
N581 N 0.54253 0.14451 0.9863 0.0
H582 H 0.52211 0.12556 0.97123 0.0
H583 H 0.55942 0.16892 0.99768 0.0
H584 H 0.49223 0.13711 0.01415 0.0
H585 H 0.54016 0.1747 0.02807 0.0
O586 O 0.51796 0.11228 0.00498 0.0
O587 O 0.53289 0.11404 0.03435 0.0
O588 O 0.5619 0.14528 0.02477 0.0
C589 C 0.51958 0.10564 0.02313 0.0
H590 H 0.58577 0.07021 0.00919 0.0
H591 H 0.47774 0.17188 0.0247 0.0
H592 H 0.5666 0.18341 0.96553 0.0
H593 H 0.52933 0.1386 0.9383 0.0
Co594 Co 0.12034 0.29034 0.26577 0.0
C595 C 0.15194 0.30334 0.23896 0.0
C596 C 0.15256 0.32025 0.26592 0.0
C597 C 0.16999 0.32382 0.25555 0.0
N598 N 0.14117 0.30744 0.25537 0.0
N599 N 0.16956 0.31288 0.23877 0.0
H600 H 0.14829 0.29172 0.22855 0.0
H601 H 0.14938 0.32502 0.28097 0.0
C602 C 0.10541 0.33196 0.27337 0.0
O603 O 0.11468 0.33843 0.2574 0.0
N604 N 0.09992 0.27272 0.27634 0.0
C605 C 0.10204 0.25365 0.28233 0.0
C606 C 0.08386 0.24636 0.28806 0.0
C607 C 0.08033 0.27667 0.2786 0.0
N608 N 0.07012 0.26076 0.28557 0.0
C609 C 0.11135 0.28069 0.22487 0.0
C610 C 0.08185 0.30869 0.2193 0.0
C611 C 0.08964 0.29895 0.20261 0.0
C612 C 0.10393 0.28407 0.20568 0.0
C613 C 0.08972 0.3049 0.23813 0.0
N614 N 0.10547 0.29221 0.2406 0.0
H615 H 0.12263 0.26943 0.22677 0.0
H616 H 0.08299 0.3125 0.25045 0.0
H617 H 0.11565 0.24515 0.28228 0.0
H618 H 0.0736 0.29071 0.27471 0.0
O619 O 0.13711 0.26769 0.25991 0.0
O620 O 0.13727 0.28456 0.2883 0.0
O621 O 0.10596 0.31355 0.27806 0.0
C622 C 0.14468 0.27027 0.27757 0.0
H623 H 0.18282 0.33194 0.26098 0.0
H624 H 0.08107 0.23141 0.29335 0.0
H625 H 0.06997 0.31949 0.21782 0.0
H626 H 0.11007 0.27575 0.19331 0.0
Co627 Co 0.94506 0.87559 0.50706 0.0
C628 C 0.92843 0.90409 0.47923 0.0
C629 C 0.91543 0.90801 0.50803 0.0
C630 C 0.91054 0.9242 0.49636 0.0
N631 N 0.92658 0.89533 0.49715 0.0
N632 N 0.91899 0.92178 0.47827 0.0
H633 H 0.93885 0.89903 0.46812 0.0
H634 H 0.9126 0.9065 0.52381 0.0
C635 C 0.90437 0.86014 0.51909 0.0
O636 O 0.89576 0.87083 0.50519 0.0
N637 N 0.96415 0.85625 0.51665 0.0
C638 C 0.98351 0.85912 0.52124 0.0
C639 C 0.99204 0.84107 0.52555 0.0
C640 C 0.96125 0.83645 0.51821 0.0
N641 N 0.97806 0.82679 0.52358 0.0
C642 C 0.9564 0.86421 0.46744 0.0
C643 C 0.92591 0.83763 0.46019 0.0
C644 C 0.93852 0.84293 0.44445 0.0
C645 C 0.95434 0.85594 0.44846 0.0
C646 C 0.92847 0.84629 0.47892 0.0
N647 N 0.94286 0.86036 0.48216 0.0
H648 H 0.96855 0.87439 0.46995 0.0
H649 H 0.91871 0.84136 0.4905 0.0
H650 H 0.99138 0.87312 0.52082 0.0
H651 H 0.9472 0.82928 0.515 0.0
O652 O 0.96628 0.89351 0.49972 0.0
O653 O 0.95141 0.89305 0.52916 0.0
O654 O 0.92333 0.86 0.52083 0.0
C655 C 0.96455 0.90112 0.51744 0.0
H656 H 0.90281 0.9374 0.5014 0.0
H657 H 0.0076 0.83864 0.52888 0.0
H658 H 0.91369 0.82735 0.45798 0.0
H659 H 0.96491 0.85995 0.43695 0.0
Co660 Co 0.87701 0.20645 0.25684 0.0
C661 C 0.84127 0.18708 0.24072 0.0
C662 C 0.84743 0.17723 0.27034 0.0
C663 C 0.82851 0.17103 0.26522 0.0
N664 N 0.8554 0.18741 0.25492 0.0
N665 N 0.82491 0.17713 0.2465 0.0
H666 H 0.8415 0.19616 0.22754 0.0
H667 H 0.85403 0.17627 0.285 0.0
C668 C 0.89514 0.16687 0.26537 0.0
O669 O 0.88389 0.15933 0.25125 0.0
N670 N 0.89796 0.22585 0.25893 0.0
C671 C 0.8998 0.24236 0.24772 0.0
C672 C 0.91719 0.25185 0.25285 0.0
C673 C 0.91413 0.22546 0.27075 0.0
N674 N 0.92621 0.24117 0.26727 0.0
C675 C 0.8764 0.20715 0.21367 0.0
C676 C 0.91119 0.18589 0.20835 0.0
C677 C 0.89976 0.19071 0.19164 0.0
C678 C 0.88253 0.20215 0.19437 0.0
C679 C 0.90466 0.19145 0.22726 0.0
N680 N 0.88656 0.20041 0.22995 0.0
H681 H 0.86353 0.21658 0.21546 0.0
H682 H 0.91448 0.18869 0.23963 0.0
H683 H 0.88952 0.24684 0.23618 0.0
H684 H 0.91716 0.21381 0.28142 0.0
O685 O 0.85808 0.22753 0.25119 0.0
O686 O 0.86561 0.21618 0.28126 0.0
O687 O 0.89464 0.18552 0.26912 0.0
C688 C 0.85513 0.22821 0.27036 0.0
H689 H 0.8176 0.16439 0.27506 0.0
H690 H 0.92319 0.26505 0.2458 0.0
H691 H 0.92524 0.17812 0.2068 0.0
H692 H 0.8737 0.20693 0.18176 0.0
Co693 Co 0.46361 0.63091 0.49262 0.0
C694 C 0.44679 0.59571 0.51083 0.0
C695 C 0.43545 0.59908 0.48118 0.0
C696 C 0.42996 0.58053 0.48828 0.0
N697 N 0.44609 0.60841 0.49541 0.0
N698 N 0.43704 0.57869 0.50696 0.0
H699 H 0.45609 0.598 0.5238 0.0
H700 H 0.43349 0.60453 0.46616 0.0
C701 C 0.43403 0.66295 0.48186 0.0
O702 O 0.44088 0.67465 0.49598 0.0
N703 N 0.48202 0.65318 0.48958 0.0
C704 C 0.50025 0.65472 0.49791 0.0
C705 C 0.50895 0.67223 0.49199 0.0
C706 C 0.48053 0.66935 0.4777 0.0
N707 N 0.49645 0.68153 0.47941 0.0
C708 C 0.46851 0.64357 0.53366 0.0
C709 C 0.42831 0.64721 0.54173 0.0
C710 C 0.442 0.65166 0.55682 0.0
C711 C 0.46236 0.64968 0.55261 0.0
C712 C 0.43509 0.64126 0.52301 0.0
N713 N 0.455 0.64014 0.51887 0.0
H714 H 0.48411 0.64102 0.53118 0.0
H715 H 0.42421 0.63735 0.51183 0.0
H716 H 0.50706 0.64384 0.50759 0.0
H717 H 0.46836 0.67213 0.46761 0.0
O718 O 0.48552 0.61367 0.50006 0.0
O719 O 0.47493 0.61904 0.4692 0.0
O720 O 0.44164 0.6458 0.47891 0.0
C721 C 0.48703 0.60976 0.48109 0.0
H722 H 0.42298 0.56872 0.47983 0.0
H723 H 0.52314 0.67793 0.49709 0.0
H724 H 0.41243 0.64833 0.5443 0.0
H725 H 0.47344 0.65224 0.56404 0.0
Co726 Co 0.12205 0.70885 0.23312 0.0
C727 C 0.15376 0.69337 0.2588 0.0
C728 C 0.1551 0.68005 0.22989 0.0
C729 C 0.17176 0.67437 0.24049 0.0
N730 N 0.1437 0.69179 0.24155 0.0
N731 N 0.17084 0.68287 0.25867 0.0
H732 H 0.14983 0.70364 0.27046 0.0
H733 H 0.15206 0.67676 0.21442 0.0
C734 C 0.10799 0.66684 0.22609 0.0
O735 O 0.11908 0.66044 0.24084 0.0
N736 N 0.10078 0.72637 0.2247 0.0
C737 C 0.10151 0.74626 0.22195 0.0
C738 C 0.08271 0.75302 0.21756 0.0
C739 C 0.08152 0.72139 0.22203 0.0
N740 N 0.07011 0.73737 0.21767 0.0
C741 C 0.11534 0.71985 0.27396 0.0
C742 C 0.08593 0.69242 0.28244 0.0
C743 C 0.09335 0.70423 0.29795 0.0
C744 C 0.10788 0.71849 0.29334 0.0
C745 C 0.09383 0.69425 0.26326 0.0
N746 N 0.10926 0.70702 0.25938 0.0
H747 H 0.12657 0.73093 0.27095 0.0
H748 H 0.08715 0.6854 0.25177 0.0
H749 H 0.11457 0.75551 0.2236 0.0
H750 H 0.0759 0.70645 0.22371 0.0
O751 O 0.13952 0.7313 0.23771 0.0
O752 O 0.13674 0.71502 0.20912 0.0
O753 O 0.10685 0.68539 0.22202 0.0
C754 C 0.14532 0.72902 0.21936 0.0
H755 H 0.18403 0.66558 0.23485 0.0
H756 H 0.07856 0.76843 0.2154 0.0
H757 H 0.07439 0.68147 0.28511 0.0
H758 H 0.11356 0.7285 0.30464 0.0
Co759 Co 0.38348 0.29322 0.74114 0.0
C760 C 0.34583 0.3057 0.75922 0.0
C761 C 0.3516 0.32277 0.73303 0.0
C762 C 0.33242 0.32685 0.73944 0.0
N763 N 0.36014 0.3097 0.74573 0.0
N764 N 0.32901 0.31596 0.75589 0.0
H765 H 0.34657 0.29386 0.76996 0.0
H766 H 0.35818 0.32769 0.71917 0.0
C767 C 0.3984 0.3346 0.73284 0.0
O768 O 0.38831 0.34128 0.74822 0.0
N769 N 0.40609 0.27618 0.73669 0.0
C770 C 0.40986 0.25935 0.7469 0.0
C771 C 0.42699 0.25098 0.73962 0.0
C772 C 0.42102 0.27795 0.72338 0.0
N773 N 0.434 0.26267 0.72487 0.0
C774 C 0.38483 0.29173 0.78396 0.0
C775 C 0.41859 0.31472 0.78866 0.0
C776 C 0.40765 0.30925 0.80555 0.0
C777 C 0.39094 0.29704 0.80308 0.0
C778 C 0.41176 0.30924 0.76977 0.0
N779 N 0.39415 0.29922 0.76753 0.0
H780 H 0.37274 0.28133 0.78251 0.0
H781 H 0.42074 0.31307 0.75702 0.0
H782 H 0.40093 0.25373 0.75907 0.0
H783 H 0.42246 0.29011 0.71294 0.0
O784 O 0.36782 0.26992 0.74735 0.0
O785 O 0.37109 0.28321 0.71725 0.0
O786 O 0.39814 0.3161 0.72848 0.0
C787 C 0.36349 0.26939 0.72847 0.0
H788 H 0.32135 0.3356 0.73168 0.0
H789 H 0.43424 0.23777 0.74534 0.0
H790 H 0.43205 0.32352 0.78996 0.0
H791 H 0.38276 0.2915 0.81583 0.0
Co792 Co 0.48995 0.54648 0.87452 0.0
C793 C 0.50993 0.56425 0.90832 0.0
C794 C 0.47964 0.57424 0.90687 0.0
C795 C 0.48742 0.57941 0.92521 0.0
N796 N 0.4938 0.56455 0.89646 0.0
N797 N 0.5065 0.57323 0.92587 0.0
H798 H 0.52306 0.55543 0.90521 0.0
H799 H 0.46423 0.5755 0.90237 0.0
C800 C 0.48039 0.5751 0.84132 0.0
O801 O 0.49401 0.56674 0.83 0.0
N802 N 0.48581 0.52743 0.85294 0.0
C803 C 0.49325 0.50876 0.85209 0.0
C804 C 0.48658 0.49956 0.83513 0.0
C805 C 0.47367 0.52873 0.83693 0.0
N806 N 0.4744 0.5122 0.82549 0.0
C807 C 0.53051 0.53917 0.86173 0.0
C808 C 0.54043 0.57871 0.856 0.0
C809 C 0.55474 0.56408 0.85192 0.0
C810 C 0.54962 0.54408 0.85504 0.0
C811 C 0.52152 0.57314 0.86261 0.0
N812 N 0.51644 0.55352 0.86469 0.0
H813 H 0.52734 0.52386 0.86507 0.0
H814 H 0.51095 0.58471 0.86621 0.0
H815 H 0.50279 0.50197 0.8631 0.0
H816 H 0.46413 0.54123 0.83374 0.0
O817 O 0.49669 0.52486 0.89236 0.0
O818 O 0.4662 0.53646 0.88705 0.0
O819 O 0.47709 0.56862 0.8589 0.0
C820 C 0.47773 0.52412 0.89648 0.0
H821 H 0.47926 0.58561 0.93766 0.0
H822 H 0.49093 0.48492 0.82999 0.0
H823 H 0.54372 0.59436 0.85402 0.0
H824 H 0.56044 0.53233 0.85285 0.0
Co825 Co 0.70542 0.2402 0.12851 0.0
C826 C 0.68618 0.25835 0.16328 0.0
C827 C 0.67506 0.22901 0.15806 0.0
C828 C 0.66916 0.23502 0.17685 0.0
N829 N 0.68586 0.24371 0.14955 0.0
N830 N 0.67611 0.25355 0.17989 0.0
H831 H 0.69592 0.27103 0.16271 0.0
H832 H 0.67358 0.21415 0.15203 0.0
C833 C 0.66629 0.23056 0.10964 0.0
O834 O 0.65823 0.24523 0.11977 0.0
N835 N 0.72541 0.23679 0.10821 0.0
C836 C 0.74257 0.24711 0.10706 0.0
C837 C 0.75214 0.24205 0.08973 0.0
C838 C 0.72473 0.22559 0.09156 0.0
N839 N 0.74089 0.22858 0.07993 0.0
C840 C 0.70661 0.28319 0.12696 0.0
C841 C 0.68691 0.28703 0.09112 0.0
C842 C 0.69133 0.30428 0.102 0.0
C843 C 0.70193 0.30219 0.11988 0.0
C844 C 0.69173 0.26838 0.09887 0.0
N845 N 0.70001 0.26653 0.11737 0.0
H846 H 0.71571 0.28198 0.14011 0.0
H847 H 0.68902 0.25552 0.08967 0.0
H848 H 0.74738 0.25823 0.11767 0.0
H849 H 0.71248 0.21588 0.08777 0.0
O850 O 0.72602 0.24669 0.14767 0.0
O851 O 0.71444 0.21636 0.14149 0.0
O852 O 0.68492 0.22706 0.11101 0.0
C853 C 0.72634 0.22771 0.15167 0.0
H854 H 0.66224 0.22577 0.18809 0.0
H855 H 0.76577 0.24869 0.08424 0.0
H856 H 0.67994 0.28788 0.07661 0.0
H857 H 0.70636 0.31504 0.12855 0.0
Co858 Co 0.00746 0.46516 0.36301 0.0
C859 C 0.99137 0.45278 0.4016 0.0
C860 C 0.01616 0.43453 0.39361 0.0
C861 C 0.01069 0.43001 0.41295 0.0
N862 N 0.00367 0.44855 0.38636 0.0
N863 N 0.99521 0.44173 0.41782 0.0
H864 H 0.98103 0.46502 0.40175 0.0
H865 H 0.02926 0.42907 0.38601 0.0
C866 C 0.014 0.4237 0.3473 0.0
O867 O 0.99882 0.41706 0.35772 0.0
N868 N 0.01134 0.48215 0.34032 0.0
C869 C 0.00081 0.49872 0.33631 0.0
C870 C 0.00771 0.50674 0.31881 0.0
C871 C 0.02452 0.48027 0.32531 0.0
N872 N 0.02257 0.49511 0.3119 0.0
C873 C 0.9645 0.46774 0.36378 0.0
C874 C 0.95781 0.4453 0.32998 0.0
C875 C 0.94137 0.45139 0.34134 0.0
C876 C 0.94495 0.46333 0.35812 0.0
C877 C 0.97708 0.45021 0.33611 0.0
N878 N 0.98034 0.46001 0.35366 0.0
H879 H 0.9668 0.47773 0.3761 0.0
H880 H 0.98933 0.4461 0.32658 0.0
H881 H 0.98869 0.50433 0.3453 0.0
H882 H 0.03521 0.46831 0.32416 0.0
O883 O 0.00308 0.48865 0.37923 0.0
O884 O 0.03231 0.47406 0.37413 0.0
O885 O 0.01866 0.44211 0.34761 0.0
C886 C 0.02219 0.48821 0.38257 0.0
H887 H 0.01849 0.42025 0.42313 0.0
H888 H 0.00168 0.51966 0.31131 0.0
H889 H 0.95595 0.43652 0.31659 0.0
H890 H 0.93277 0.46945 0.36673 0.0
Co891 Co 0.78491 0.74996 0.61495 0.0
C892 C 0.8054 0.72633 0.64515 0.0
C893 C 0.81579 0.75643 0.6457 0.0
C894 C 0.82368 0.74646 0.66187 0.0
N895 N 0.80441 0.74364 0.63517 0.0
N896 N 0.81706 0.72749 0.6614 0.0
H897 H 0.79605 0.7137 0.64196 0.0
H898 H 0.81722 0.77216 0.64257 0.0
C899 C 0.82482 0.76081 0.59736 0.0
O900 O 0.83348 0.74643 0.60738 0.0
N901 N 0.76492 0.756 0.5951 0.0
C902 C 0.7451 0.7531 0.59669 0.0
C903 C 0.73631 0.75745 0.57876 0.0
C904 C 0.76789 0.76188 0.57612 0.0
N905 N 0.75065 0.76294 0.5658 0.0
C906 C 0.77671 0.70828 0.60967 0.0
C907 C 0.80405 0.70104 0.57985 0.0
C908 C 0.79411 0.68478 0.58843 0.0
C909 C 0.77968 0.68878 0.60302 0.0
C910 C 0.80045 0.72032 0.58681 0.0
N911 N 0.78805 0.72365 0.60263 0.0
H912 H 0.76581 0.71081 0.62119 0.0
H913 H 0.80777 0.73233 0.57923 0.0
H914 H 0.73746 0.74753 0.6097 0.0
H915 H 0.78238 0.76489 0.56983 0.0
O916 O 0.76436 0.74418 0.63448 0.0
O917 O 0.77792 0.77379 0.62936 0.0
O918 O 0.80591 0.76291 0.59783 0.0
C919 C 0.76538 0.76294 0.63929 0.0
H920 H 0.83258 0.75296 0.67362 0.0
H921 H 0.72065 0.75582 0.57534 0.0
H922 H 0.81498 0.69896 0.56819 0.0
H923 H 0.77087 0.67693 0.6095 0.0
Co924 Co 0.49445 0.46411 0.6334 0.0
C925 C 0.51658 0.44713 0.5998 0.0
C926 C 0.4877 0.43397 0.6023 0.0
C927 C 0.49574 0.42877 0.58408 0.0
N928 N 0.50086 0.44553 0.61219 0.0
N929 N 0.51394 0.43701 0.58275 0.0
H930 H 0.52853 0.45762 0.60169 0.0
H931 H 0.47253 0.43134 0.60702 0.0
C932 C 0.48541 0.42372 0.65016 0.0
O933 O 0.50108 0.4166 0.64084 0.0
N934 N 0.48813 0.48317 0.65398 0.0
C935 C 0.49551 0.50179 0.65533 0.0
C936 C 0.48876 0.51032 0.67265 0.0
C937 C 0.4771 0.48058 0.67057 0.0
N938 N 0.47725 0.49695 0.68226 0.0
C939 C 0.53685 0.46877 0.6382 0.0
C940 C 0.54052 0.44577 0.67204 0.0
C941 C 0.55783 0.45259 0.6626 0.0
C942 C 0.55578 0.46489 0.64588 0.0
C943 C 0.52189 0.45011 0.6639 0.0
N944 N 0.52029 0.46005 0.6462 0.0
H945 H 0.53561 0.47866 0.62563 0.0
H946 H 0.50888 0.44551 0.67206 0.0
H947 H 0.50574 0.5085 0.64487 0.0
H948 H 0.46951 0.4669 0.67431 0.0
O949 O 0.50108 0.48558 0.61536 0.0
O950 O 0.47112 0.47211 0.61875 0.0
O951 O 0.4813 0.44226 0.64925 0.0
C952 C 0.48253 0.48489 0.60977 0.0
H953 H 0.48804 0.42135 0.57201 0.0
H954 H 0.49295 0.52483 0.67827 0.0
H955 H 0.54134 0.43717 0.68566 0.0
H956 H 0.56869 0.47105 0.63843 0.0
Co957 Co 0.79116 0.23911 0.88562 0.0
C958 C 0.80814 0.26444 0.8544 0.0
C959 C 0.8221 0.23585 0.8545 0.0
C960 C 0.82839 0.24615 0.83783 0.0
N961 N 0.8095 0.24749 0.86497 0.0
N962 N 0.81951 0.26415 0.83789 0.0
H963 H 0.7973 0.27585 0.85727 0.0
H964 H 0.82539 0.22048 0.85799 0.0
C965 C 0.83199 0.23064 0.9019 0.0
O966 O 0.83896 0.24677 0.8933 0.0
N967 N 0.77243 0.23068 0.90592 0.0
C968 C 0.75241 0.23208 0.90526 0.0
C969 C 0.74474 0.22635 0.92334 0.0
C970 C 0.77661 0.22418 0.92446 0.0
N971 N 0.75997 0.22146 0.93546 0.0
C972 C 0.78383 0.2808 0.89286 0.0
C973 C 0.80815 0.28477 0.9257 0.0
C974 C 0.79985 0.30197 0.91731 0.0
C975 C 0.78692 0.29968 0.90108 0.0
C976 C 0.80469 0.26621 0.91695 0.0
N977 N 0.79395 0.26455 0.89973 0.0
H978 H 0.77367 0.27943 0.8805 0.0
H979 H 0.81066 0.25333 0.92432 0.0
H980 H 0.74381 0.23762 0.89286 0.0
H981 H 0.79153 0.22209 0.93002 0.0
O982 O 0.76947 0.24551 0.86775 0.0
O983 O 0.78438 0.21614 0.86974 0.0
O984 O 0.81352 0.22625 0.90078 0.0
C985 C 0.77099 0.22727 0.86133 0.0
H986 H 0.83773 0.24038 0.82603 0.0
H987 H 0.72918 0.22686 0.9275 0.0
H988 H 0.81729 0.28561 0.93896 0.0
H989 H 0.77971 0.3124 0.89431 0.0
Co990 Co 0.0155 0.54015 0.12085 0.0
C991 C 0.9931 0.55667 0.08824 0.0
C992 C 0.02181 0.57058 0.08906 0.0
C993 C 0.01177 0.57701 0.07218 0.0
N994 N 0.00987 0.55788 0.09902 0.0
N995 N 0.99365 0.56832 0.07201 0.0
H996 H 0.98116 0.54636 0.09159 0.0
H997 H 0.03698 0.57407 0.09317 0.0
C998 C 0.02241 0.56903 0.15416 0.0
O999 O 0.00838 0.56011 0.16449 0.0
N1000 N 0.02133 0.52141 0.14226 0.0
C1001 C 0.01526 0.50227 0.14333 0.0
C1002 C 0.02253 0.49384 0.16046 0.0
C1003 C 0.03334 0.52381 0.15822 0.0
N1004 N 0.03375 0.50749 0.16995 0.0
C1005 C 0.97563 0.53016 0.13469 0.0
C1006 C 0.96284 0.56911 0.13842 0.0
C1007 C 0.94952 0.55371 0.14291 0.0
C1008 C 0.95612 0.534 0.14097 0.0
C1009 C 0.98216 0.56464 0.13233 0.0
N1010 N 0.98865 0.54536 0.13106 0.0
H1011 H 0.97991 0.51497 0.13212 0.0
H1012 H 0.99194 0.57681 0.12843 0.0
H1013 H 0.00612 0.49472 0.13247 0.0
H1014 H 0.04192 0.53704 0.16122 0.0
O1015 O 0.0099 0.5182 0.10307 0.0
O1016 O 0.03966 0.53188 0.10787 0.0
O1017 O 0.02708 0.5629 0.13674 0.0
C1018 C 0.0288 0.51875 0.09867 0.0
H1019 H 0.01754 0.58673 0.06069 0.0
H1020 H 0.01909 0.47906 0.16586 0.0
H1021 H 0.95842 0.58457 0.13962 0.0
H1022 H 0.94611 0.52164 0.14366 0.0
Co1023 Co 0.70082 0.76441 0.36951 0.0
C1024 C 0.68484 0.73569 0.34185 0.0
C1025 C 0.67604 0.76492 0.33307 0.0
C1026 C 0.67344 0.75224 0.31711 0.0
N1027 N 0.6832 0.7545 0.34874 0.0
N1028 N 0.67945 0.73395 0.32261 0.0
H1029 H 0.69262 0.72408 0.34978 0.0
H1030 H 0.67522 0.78099 0.33236 0.0
C1031 C 0.661 0.78197 0.38177 0.0
O1032 O 0.65285 0.77725 0.3647 0.0
N1033 N 0.7191 0.77369 0.38983 0.0
C1034 C 0.73716 0.78228 0.38759 0.0
C1035 C 0.74528 0.78551 0.40609 0.0
C1036 C 0.7165 0.77197 0.40966 0.0
N1037 N 0.7323 0.77898 0.41992 0.0
C1038 C 0.71335 0.72712 0.38649 0.0
C1039 C 0.67574 0.71501 0.39817 0.0
C1040 C 0.69158 0.70154 0.39999 0.0
C1041 C 0.71072 0.70799 0.39446 0.0
C1042 C 0.67893 0.73375 0.38993 0.0
N1043 N 0.69747 0.73953 0.38394 0.0
H1044 H 0.72799 0.73175 0.38164 0.0
H1045 H 0.66619 0.74314 0.38749 0.0
H1046 H 0.74431 0.78582 0.37365 0.0
H1047 H 0.70358 0.76509 0.41641 0.0
O1048 O 0.72269 0.75747 0.35205 0.0
O1049 O 0.70762 0.7869 0.35307 0.0
O1050 O 0.67899 0.77728 0.3856 0.0
C1051 C 0.72089 0.77542 0.34486 0.0
H1052 H 0.67005 0.75669 0.302 0.0
H1053 H 0.75968 0.7921 0.40908 0.0
H1054 H 0.66077 0.71098 0.40261 0.0
H1055 H 0.72342 0.69812 0.3955 0.0
Co1056 Co 0.88003 0.48664 0.54828 0.0
C1057 C 0.90935 0.51474 0.56191 0.0
C1058 C 0.91568 0.48588 0.5737 0.0
C1059 C 0.93259 0.49741 0.57522 0.0
N1060 N 0.90103 0.49678 0.56528 0.0
N1061 N 0.92867 0.5154 0.5673 0.0
H1062 H 0.90227 0.52603 0.55287 0.0
H1063 H 0.91501 0.46995 0.57602 0.0
C1064 C 0.8677 0.4713 0.58931 0.0
O1065 O 0.8829 0.47963 0.59829 0.0
N1066 N 0.85942 0.47659 0.53073 0.0
C1067 C 0.86142 0.46699 0.51317 0.0
C1068 C 0.84283 0.46263 0.50586 0.0
C1069 C 0.83962 0.47772 0.53389 0.0
N1070 N 0.82913 0.46944 0.51887 0.0
C1071 C 0.8593 0.52184 0.53576 0.0
C1072 C 0.85167 0.53648 0.57349 0.0
C1073 C 0.84547 0.54767 0.55697 0.0
C1074 C 0.84936 0.54004 0.53787 0.0
C1075 C 0.86138 0.51833 0.57071 0.0
N1076 N 0.86505 0.51117 0.55206 0.0
H1077 H 0.86251 0.51627 0.521 0.0
H1078 H 0.8666 0.51048 0.58364 0.0
H1079 H 0.87527 0.46333 0.5059 0.0
H1080 H 0.83307 0.48497 0.54671 0.0
O1081 O 0.89614 0.49453 0.52592 0.0
O1082 O 0.89725 0.46488 0.54055 0.0
O1083 O 0.8651 0.47327 0.5706 0.0
C1084 C 0.90436 0.47702 0.52718 0.0
H1085 H 0.94727 0.49208 0.5792 0.0
H1086 H 0.83969 0.455 0.49202 0.0
H1087 H 0.84963 0.54193 0.58852 0.0
H1088 H 0.84478 0.548 0.52464 0.0
Co1089 Co 0.75989 0.61694 0.79041 0.0
C1090 C 0.74153 0.65411 0.80125 0.0
C1091 C 0.76719 0.64951 0.81966 0.0
C1092 C 0.75973 0.66843 0.8233 0.0
N1093 N 0.75563 0.64073 0.80579 0.0
N1094 N 0.74372 0.6711 0.81151 0.0
H1095 H 0.73057 0.65191 0.78962 0.0
H1096 H 0.78071 0.64318 0.82569 0.0
C1097 C 0.7658 0.5861 0.82194 0.0
O1098 O 0.75117 0.57571 0.81416 0.0
N1099 N 0.76442 0.59344 0.77397 0.0
C1100 C 0.75807 0.59094 0.75504 0.0
C1101 C 0.76584 0.57366 0.7475 0.0
C1102 C 0.77687 0.57795 0.7772 0.0
N1103 N 0.7776 0.56545 0.76146 0.0
C1104 C 0.71914 0.60466 0.78213 0.0
C1105 C 0.70686 0.60526 0.82143 0.0
C1106 C 0.69307 0.59996 0.80671 0.0
C1107 C 0.69941 0.59977 0.78681 0.0
C1108 C 0.72637 0.60995 0.81612 0.0
N1109 N 0.73259 0.60896 0.79675 0.0
H1110 H 0.72328 0.60556 0.76672 0.0
H1111 H 0.73656 0.61443 0.82773 0.0
H1112 H 0.74889 0.60121 0.74678 0.0
H1113 H 0.78581 0.57603 0.7904 0.0
O1114 O 0.75528 0.63229 0.76651 0.0
O1115 O 0.78469 0.62777 0.78101 0.0
O1116 O 0.77079 0.6029 0.81452 0.0
C1117 C 0.77437 0.63576 0.76674 0.0
H1118 H 0.76632 0.67975 0.83269 0.0
H1119 H 0.76276 0.56745 0.73295 0.0
H1120 H 0.70268 0.6057 0.837 0.0
H1121 H 0.68909 0.59644 0.77488 0.0
Co1122 Co 0.62632 0.50608 0.04258 0.0
C1123 C 0.5923 0.49003 0.06353 0.0
C1124 C 0.59681 0.52052 0.07181 0.0
C1125 C 0.57831 0.51447 0.07862 0.0
N1126 N 0.60538 0.50512 0.0622 0.0
N1127 N 0.57579 0.49522 0.07355 0.0
H1128 H 0.59367 0.47633 0.05514 0.0
H1129 H 0.60256 0.53556 0.07195 0.0
C1130 C 0.66268 0.51129 0.06786 0.0
O1131 O 0.67096 0.49641 0.0582 0.0
N1132 N 0.64685 0.50737 0.02208 0.0
C1133 C 0.64644 0.49869 0.00394 0.0
C1134 C 0.66359 0.50337 0.99382 0.0
C1135 C 0.66366 0.51842 0.02199 0.0
N1136 N 0.67456 0.51559 0.00532 0.0
C1137 C 0.63354 0.46403 0.03555 0.0
C1138 C 0.64281 0.45488 0.07458 0.0
C1139 C 0.64473 0.44008 0.06004 0.0
C1140 C 0.63943 0.44466 0.04039 0.0
C1141 C 0.63668 0.47394 0.06913 0.0
N1142 N 0.63338 0.47872 0.04961 0.0
H1143 H 0.62884 0.46703 0.02057 0.0
H1144 H 0.63486 0.485 0.08067 0.0
H1145 H 0.63442 0.48976 0.9981 0.0
H1146 H 0.66785 0.52855 0.03374 0.0
O1147 O 0.60642 0.5011 0.02238 0.0
O1148 O 0.61606 0.53099 0.03284 0.0
O1149 O 0.64514 0.51713 0.0633 0.0
C1150 C 0.60456 0.52039 0.02141 0.0
H1151 H 0.56696 0.52389 0.08511 0.0
H1152 H 0.66789 0.49766 0.97938 0.0
H1153 H 0.6459 0.45175 0.0901 0.0
H1154 H 0.64011 0.43347 0.02879 0.0
Co1155 Co 0.73959 0.37299 0.29903 0.0
C1156 C 0.76149 0.34032 0.31776 0.0
C1157 C 0.73188 0.3424 0.32926 0.0
C1158 C 0.73979 0.32423 0.33475 0.0
N1159 N 0.74552 0.35243 0.3184 0.0
N1160 N 0.75846 0.32316 0.32758 0.0
H1161 H 0.77397 0.34238 0.30793 0.0
H1162 H 0.71651 0.34688 0.33099 0.0
C1163 C 0.73072 0.39142 0.33886 0.0
O1164 O 0.74575 0.38156 0.34654 0.0
N1165 N 0.73375 0.39292 0.27918 0.0
C1166 C 0.74121 0.39336 0.26055 0.0
C1167 C 0.73502 0.41054 0.25139 0.0
C1168 C 0.7232 0.40988 0.28114 0.0
N1169 N 0.72376 0.42096 0.26437 0.0
C1170 C 0.78207 0.37728 0.29366 0.0
C1171 C 0.78635 0.41187 0.31545 0.0
C1172 C 0.80348 0.40243 0.30822 0.0
C1173 C 0.80111 0.38525 0.2966 0.0
C1174 C 0.76764 0.40348 0.312 0.0
N1175 N 0.76573 0.38551 0.30258 0.0
H1176 H 0.78057 0.36435 0.28425 0.0
H1177 H 0.7548 0.41184 0.31667 0.0
H1178 H 0.75119 0.38241 0.25428 0.0
H1179 H 0.71576 0.41435 0.29467 0.0
O1180 O 0.7457 0.35391 0.27818 0.0
O1181 O 0.71588 0.3586 0.2915 0.0
O1182 O 0.72682 0.39001 0.32028 0.0
C1183 C 0.72697 0.34894 0.27893 0.0
H1184 H 0.73177 0.31199 0.34153 0.0
H1185 H 0.73951 0.41553 0.23674 0.0
H1186 H 0.78737 0.42581 0.3235 0.0
H1187 H 0.81386 0.37777 0.29016 0.0
Co1188 Co 0.87138 0.50574 0.95627 0.0
C1189 C 0.90305 0.47995 0.94077 0.0
C1190 C 0.90457 0.50916 0.92808 0.0
C1191 C 0.92203 0.49932 0.92379 0.0
N1192 N 0.89263 0.497 0.9388 0.0
N1193 N 0.92094 0.48097 0.93177 0.0
H1194 H 0.89897 0.46804 0.95075 0.0
H1195 H 0.90161 0.52474 0.92528 0.0
C1196 C 0.85653 0.51392 0.91457 0.0
O1197 O 0.86898 0.50094 0.90694 0.0
N1198 N 0.85054 0.5146 0.97423 0.0
C1199 C 0.85251 0.5214 0.99305 0.0
C1200 C 0.83406 0.52607 0.00043 0.0
C1201 C 0.83078 0.51513 0.97055 0.0
N1202 N 0.82035 0.52208 0.98632 0.0
C1203 C 0.86442 0.46531 0.96865 0.0
C1204 C 0.83632 0.4556 0.94028 0.0
C1205 C 0.8431 0.44065 0.9531 0.0
C1206 C 0.85708 0.44583 0.96771 0.0
C1207 C 0.84411 0.47483 0.94164 0.0
N1208 N 0.85868 0.47941 0.95513 0.0
H1209 H 0.87526 0.46882 0.97996 0.0
H1210 H 0.83803 0.48576 0.93176 0.0
H1211 H 0.86627 0.52288 0.0012 0.0
H1212 H 0.82416 0.51012 0.95678 0.0
O1213 O 0.8893 0.50175 0.97849 0.0
O1214 O 0.88631 0.52983 0.9614 0.0
O1215 O 0.85528 0.51651 0.93337 0.0
C1216 C 0.89517 0.51999 0.97548 0.0
H1217 H 0.93517 0.5057 0.91695 0.0
H1218 H 0.83108 0.53203 0.01509 0.0
H1219 H 0.82538 0.45242 0.92887 0.0
H1220 H 0.86239 0.43491 0.97831 0.0
Co1221 Co 0.74598 0.61093 0.20598 0.0
C1222 C 0.76343 0.64603 0.18805 0.0
C1223 C 0.73306 0.64274 0.17877 0.0
C1224 C 0.73957 0.66156 0.17355 0.0
N1225 N 0.74807 0.63318 0.18803 0.0
N1226 N 0.75872 0.66336 0.17927 0.0
H1227 H 0.77695 0.64369 0.19651 0.0
H1228 H 0.71793 0.63729 0.17784 0.0
C1229 C 0.73856 0.57684 0.17847 0.0
O1230 O 0.75297 0.56722 0.18755 0.0
N1231 N 0.74343 0.58907 0.22488 0.0
C1232 C 0.75177 0.58806 0.24316 0.0
C1233 C 0.7448 0.57148 0.25285 0.0
C1234 C 0.73055 0.5736 0.22434 0.0
N1235 N 0.73154 0.56233 0.24094 0.0
C1236 C 0.78757 0.60057 0.21198 0.0
C1237 C 0.79646 0.59589 0.17206 0.0
C1238 C 0.81144 0.59244 0.18615 0.0
C1239 C 0.80684 0.59503 0.20635 0.0
C1240 C 0.77743 0.60132 0.17834 0.0
N1241 N 0.77286 0.60282 0.19814 0.0
H1242 H 0.78478 0.60365 0.22741 0.0
H1243 H 0.76629 0.6044 0.16716 0.0
H1244 H 0.76165 0.59897 0.2496 0.0
H1245 H 0.72016 0.57088 0.21237 0.0
O1246 O 0.75229 0.62873 0.22766 0.0
O1247 O 0.72181 0.62208 0.2167 0.0
O1248 O 0.73375 0.5944 0.18407 0.0
C1249 C 0.73318 0.63183 0.22899 0.0
H1250 H 0.73054 0.67351 0.16762 0.0
H1251 H 0.74939 0.56646 0.26745 0.0
H1252 H 0.79934 0.59429 0.15628 0.0
H1253 H 0.81817 0.59332 0.21769 0.0
Co1254 Co 0.63536 0.49836 0.46318 0.0
C1255 C 0.60122 0.51587 0.44212 0.0
C1256 C 0.60433 0.48489 0.43547 0.0
C1257 C 0.58583 0.49114 0.42905 0.0
N1258 N 0.6139 0.50043 0.44394 0.0
N1259 N 0.58414 0.51068 0.43312 0.0
H1260 H 0.60294 0.52993 0.44955 0.0
H1261 H 0.60947 0.46965 0.43595 0.0
C1262 C 0.65302 0.48694 0.42384 0.0
O1263 O 0.6421 0.50073 0.41531 0.0
N1264 N 0.65614 0.49636 0.4828 0.0
C1265 C 0.65735 0.50723 0.49961 0.0
C1266 C 0.67497 0.50284 0.50899 0.0
C1267 C 0.673 0.48554 0.48211 0.0
N1268 N 0.68483 0.48928 0.49793 0.0
C1269 C 0.63591 0.5412 0.46439 0.0
C1270 C 0.66996 0.54662 0.44198 0.0
C1271 C 0.65901 0.56337 0.44784 0.0
C1272 C 0.64207 0.56048 0.45967 0.0
C1273 C 0.66309 0.52756 0.44685 0.0
N1274 N 0.64544 0.52495 0.45671 0.0
H1275 H 0.62322 0.5394 0.47408 0.0
H1276 H 0.67231 0.51507 0.44288 0.0
H1277 H 0.64652 0.51815 0.50436 0.0
H1278 H 0.67673 0.47545 0.47014 0.0
O1279 O 0.61632 0.5049 0.48394 0.0
O1280 O 0.62329 0.47441 0.4735 0.0
O1281 O 0.65283 0.4849 0.44276 0.0
C1282 C 0.61293 0.48585 0.48515 0.0
H1283 H 0.57389 0.48174 0.42365 0.0
H1284 H 0.68055 0.50989 0.52237 0.0
H1285 H 0.68352 0.54818 0.43338 0.0
H1286 H 0.63368 0.57305 0.46531 0.0
Co1287 Co 0.75877 0.37667 0.7109 0.0
C1288 C 0.73783 0.34302 0.69253 0.0
C1289 C 0.76728 0.34603 0.68079 0.0
C1290 C 0.75962 0.32793 0.67472 0.0
N1291 N 0.75353 0.3555 0.69201 0.0
N1292 N 0.74104 0.32629 0.68203 0.0
H1293 H 0.72535 0.34464 0.70246 0.0
H1294 H 0.7825 0.35097 0.6789 0.0
C1295 C 0.76915 0.39412 0.67088 0.0
O1296 O 0.75436 0.38449 0.66246 0.0
N1297 N 0.76393 0.39725 0.73019 0.0
C1298 C 0.75415 0.39959 0.74754 0.0
C1299 C 0.7613 0.41629 0.7569 0.0
C1300 C 0.77692 0.41251 0.72919 0.0
N1301 N 0.77558 0.42446 0.74533 0.0
C1302 C 0.71639 0.38012 0.71567 0.0
C1303 C 0.71125 0.41382 0.69274 0.0
C1304 C 0.69436 0.40434 0.70057 0.0
C1305 C 0.69723 0.38757 0.71265 0.0
C1306 C 0.73018 0.40592 0.69626 0.0
N1307 N 0.73251 0.38848 0.7065 0.0
H1308 H 0.71817 0.36755 0.72548 0.0
H1309 H 0.74282 0.4142 0.69093 0.0
H1310 H 0.74219 0.39014 0.75275 0.0
H1311 H 0.78686 0.41505 0.7168 0.0
O1312 O 0.75262 0.35854 0.73245 0.0
O1313 O 0.78254 0.3629 0.71911 0.0
O1314 O 0.77186 0.39317 0.68966 0.0
C1315 C 0.77145 0.35398 0.73219 0.0
H1316 H 0.76773 0.31612 0.66733 0.0
H1317 H 0.75563 0.42253 0.77063 0.0
H1318 H 0.70993 0.42712 0.68374 0.0
H1319 H 0.6848 0.38029 0.71991 0.0
Co1320 Co 0.54107 0.87649 0.49126 0.0
C1321 C 0.55786 0.91024 0.51304 0.0
C1322 C 0.57168 0.90724 0.48452 0.0
C1323 C 0.57697 0.92547 0.49248 0.0
N1324 N 0.55966 0.89767 0.49751 0.0
N1325 N 0.56825 0.92715 0.51044 0.0
H1326 H 0.54707 0.90854 0.52478 0.0
H1327 H 0.57461 0.9023 0.46947 0.0
C1328 C 0.5815 0.85931 0.48173 0.0
O1329 O 0.58958 0.86846 0.49701 0.0
N1330 N 0.52209 0.85571 0.48514 0.0
C1331 C 0.50309 0.85478 0.49155 0.0
C1332 C 0.49515 0.83671 0.48611 0.0
C1333 C 0.52546 0.83816 0.47597 0.0
N1334 N 0.50926 0.82622 0.4764 0.0
C1335 C 0.5351 0.87227 0.53342 0.0
C1336 C 0.5585 0.83891 0.53866 0.0
C1337 C 0.55029 0.84816 0.55549 0.0
C1338 C 0.53793 0.86471 0.55257 0.0
C1339 C 0.55518 0.84693 0.51976 0.0
N1340 N 0.54477 0.86427 0.51742 0.0
H1341 H 0.52509 0.88467 0.53156 0.0
H1342 H 0.56086 0.83886 0.50714 0.0
H1343 H 0.49572 0.866 0.50043 0.0
H1344 H 0.53962 0.83387 0.46971 0.0
O1345 O 0.51951 0.8948 0.4971 0.0
O1346 O 0.53346 0.89054 0.46748 0.0
O1347 O 0.56282 0.86047 0.47851 0.0
C1348 C 0.52044 0.89977 0.47838 0.0
H1349 H 0.58473 0.93735 0.48482 0.0
H1350 H 0.48051 0.83129 0.49011 0.0
H1351 H 0.5677 0.82575 0.54002 0.0
H1352 H 0.53039 0.87176 0.56495 0.0
Co1353 Co 0.04571 0.63672 0.49987 0.0
C1354 C 0.06428 0.6089 0.47222 0.0
C1355 C 0.07853 0.60742 0.50061 0.0
C1356 C 0.08494 0.59155 0.48918 0.0
N1357 N 0.0656 0.61837 0.48983 0.0
N1358 N 0.07581 0.59252 0.47132 0.0
H1359 H 0.05307 0.61218 0.46128 0.0
H1360 H 0.08172 0.60979 0.51622 0.0
C1361 C 0.08518 0.65594 0.50972 0.0
O1362 O 0.09343 0.64741 0.49417 0.0
N1363 N 0.02521 0.65454 0.50973 0.0
C1364 C 0.00581 0.6502 0.51293 0.0
C1365 C 0.99589 0.66727 0.51801 0.0
C1366 C 0.02672 0.67433 0.51295 0.0
N1367 N 0.00899 0.68244 0.5179 0.0
C1368 C 0.03522 0.6456 0.45923 0.0
C1369 C 0.06024 0.67777 0.45417 0.0
C1370 C 0.05093 0.66964 0.43736 0.0
C1371 C 0.03757 0.65385 0.44024 0.0
C1372 C 0.05758 0.66896 0.47281 0.0
N1373 N 0.04643 0.65204 0.47495 0.0
H1374 H 0.02516 0.63319 0.46093 0.0
H1375 H 0.06463 0.67603 0.48527 0.0
H1376 H 0.99887 0.63583 0.51113 0.0
H1377 H 0.04026 0.68279 0.51084 0.0
O1378 O 0.02568 0.61708 0.49316 0.0
O1379 O 0.0412 0.61912 0.52217 0.0
O1380 O 0.06658 0.65378 0.5132 0.0
C1381 C 0.02827 0.61002 0.51104 0.0
H1382 H 0.09434 0.57946 0.49419 0.0
H1383 H 0.98012 0.66848 0.52114 0.0
H1384 H 0.06978 0.69072 0.45292 0.0
H1385 H 0.02965 0.64725 0.42785 0.0
Co1386 Co 0.61782 0.78738 0.75545 0.0
C1387 C 0.65121 0.8054 0.73402 0.0
C1388 C 0.64914 0.81679 0.76368 0.0
C1389 C 0.66752 0.82187 0.75597 0.0
N1390 N 0.63893 0.80632 0.74987 0.0
N1391 N 0.66862 0.81473 0.73728 0.0
H1392 H 0.64899 0.79561 0.72152 0.0
H1393 H 0.64458 0.81848 0.77904 0.0
C1394 C 0.60123 0.82734 0.76653 0.0
O1395 O 0.61106 0.83535 0.75163 0.0
N1396 N 0.59719 0.76793 0.76096 0.0
C1397 C 0.5986 0.74796 0.75923 0.0
C1398 C 0.58014 0.73969 0.76223 0.0
C1399 C 0.57781 0.77147 0.76497 0.0
N1400 N 0.56704 0.75448 0.76573 0.0
C1401 C 0.61302 0.78328 0.71304 0.0
C1402 C 0.58041 0.80793 0.70906 0.0
C1403 C 0.58946 0.80041 0.69184 0.0
C1404 C 0.60559 0.78739 0.69404 0.0
C1405 C 0.5883 0.8034 0.72773 0.0
N1406 N 0.6053 0.79233 0.72955 0.0
H1407 H 0.62531 0.77304 0.71431 0.0
H1408 H 0.58036 0.80876 0.74054 0.0
H1409 H 0.61187 0.73978 0.75528 0.0
H1410 H 0.5716 0.78618 0.7668 0.0
O1411 O 0.6362 0.76643 0.74818 0.0
O1412 O 0.63243 0.77868 0.7786 0.0
O1413 O 0.60171 0.80853 0.76939 0.0
C1414 C 0.64178 0.76658 0.76675 0.0
H1415 H 0.67986 0.82821 0.76417 0.0
H1416 H 0.57651 0.72404 0.76089 0.0
H1417 H 0.56726 0.81721 0.70814 0.0
H1418 H 0.61281 0.78083 0.68119 0.0
Co1419 Co 0.45956 0.37441 0.00952 0.0
C1420 C 0.44115 0.40862 0.99113 0.0
C1421 C 0.43026 0.40512 0.02093 0.0
C1422 C 0.42462 0.42366 0.01396 0.0
N1423 N 0.44076 0.39586 0.00654 0.0
N1424 N 0.43136 0.42557 0.99516 0.0
H1425 H 0.45054 0.40661 0.97816 0.0
H1426 H 0.42874 0.39976 0.03604 0.0
C1427 C 0.43187 0.33973 0.01611 0.0
O1428 O 0.44005 0.33026 0.00107 0.0
N1429 N 0.47925 0.35329 0.01274 0.0
C1430 C 0.49802 0.35325 0.0055 0.0
C1431 C 0.50739 0.336 0.01114 0.0
C1432 C 0.47803 0.33649 0.02375 0.0
N1433 N 0.49473 0.32536 0.0225 0.0
C1434 C 0.4683 0.36492 0.96847 0.0
C1435 C 0.42939 0.35788 0.95713 0.0
C1436 C 0.44457 0.35548 0.94297 0.0
C1437 C 0.46423 0.35943 0.94882 0.0
C1438 C 0.43412 0.36361 0.97653 0.0
N1439 N 0.45348 0.36606 0.98233 0.0
H1440 H 0.48333 0.36885 0.97226 0.0
H1441 H 0.42213 0.36597 0.987 0.0
H1442 H 0.50475 0.36501 0.99684 0.0
H1443 H 0.46547 0.33258 0.03296 0.0
O1444 O 0.48054 0.39337 0.00413 0.0
O1445 O 0.4687 0.38596 0.03412 0.0
O1446 O 0.43796 0.35704 0.02119 0.0
C1447 C 0.48075 0.39655 0.02327 0.0
H1448 H 0.4178 0.43545 0.02258 0.0
H1449 H 0.5222 0.33148 0.00672 0.0
H1450 H 0.41394 0.3552 0.95341 0.0
H1451 H 0.47637 0.35874 0.93824 0.0
Co1452 Co 0.36879 0.70371 0.7577 0.0
C1453 C 0.3365 0.68696 0.73497 0.0
C1454 C 0.33678 0.67461 0.76439 0.0
C1455 C 0.31855 0.67063 0.75572 0.0
N1456 N 0.34784 0.68515 0.75138 0.0
N1457 N 0.31857 0.67835 0.7372 0.0
H1458 H 0.34008 0.69702 0.72288 0.0
H1459 H 0.34059 0.67237 0.77988 0.0
C1460 C 0.39065 0.68168 0.78786 0.0
O1461 O 0.38524 0.69617 0.79983 0.0
N1462 N 0.38973 0.72268 0.76379 0.0
C1463 C 0.38784 0.74186 0.76951 0.0
C1464 C 0.40646 0.75002 0.77166 0.0
C1465 C 0.40952 0.7195 0.76249 0.0
N1466 N 0.42007 0.73596 0.76724 0.0
C1467 C 0.38391 0.71403 0.71898 0.0
C1468 C 0.39211 0.67531 0.70742 0.0
C1469 C 0.39526 0.69077 0.69375 0.0
C1470 C 0.39133 0.7104 0.69981 0.0
C1471 C 0.38482 0.67957 0.72637 0.0
N1472 N 0.38071 0.69869 0.73189 0.0
H1473 H 0.38041 0.7291 0.72342 0.0
H1474 H 0.3819 0.66737 0.73642 0.0
H1475 H 0.37402 0.7497 0.77189 0.0
H1476 H 0.41604 0.70555 0.75775 0.0
O1477 O 0.35059 0.72515 0.75103 0.0
O1478 O 0.35414 0.71181 0.78101 0.0
O1479 O 0.38516 0.68192 0.76971 0.0
C1480 C 0.34486 0.72431 0.76957 0.0
H1481 H 0.3056 0.66457 0.76318 0.0
H1482 H 0.4097 0.76511 0.77627 0.0
H1483 H 0.39512 0.65997 0.70347 0.0
H1484 H 0.39341 0.72276 0.68967 0.0
Co1485 Co 0.95725 0.11929 0.99094 0.0
C1486 C 0.93358 0.08513 0.00483 0.0
C1487 C 0.92632 0.09304 0.97487 0.0
C1488 C 0.91812 0.07464 0.97892 0.0
N1489 N 0.9362 0.09953 0.99114 0.0
N1490 N 0.92259 0.06992 0.99785 0.0
H1491 H 0.94176 0.08416 0.01856 0.0
H1492 H 0.92694 0.10011 0.96041 0.0
C1493 C 0.91979 0.1408 0.98204 0.0
O1494 O 0.91146 0.13013 0.99618 0.0
N1495 N 0.97872 0.13843 0.99059 0.0
C1496 C 0.99633 0.13617 -4e-05 0.0
C1497 C 0.00655 0.15384 0.99923 0.0
C1498 C 0.97849 0.15747 0.98421 0.0
N1499 N 0.99528 0.1672 0.98942 0.0
C1500 C 0.95639 0.11717 0.03402 0.0
C1501 C 0.93934 0.15407 0.04011 0.0
C1502 C 0.94309 0.14202 0.05672 0.0
C1503 C 0.95221 0.12348 0.05346 0.0
C1504 C 0.94398 0.14728 0.02106 0.0
N1505 N 0.95102 0.12842 0.01796 0.0
H1506 H 0.96434 0.10337 0.03199 0.0
H1507 H 0.94211 0.15755 0.0089 0.0
H1508 H 0.00103 0.12299 0.00789 0.0
H1509 H 0.96578 0.16456 0.97731 0.0
O1510 O 0.97601 0.09816 0.99676 0.0
O1511 O 0.96704 0.10787 0.96651 0.0
O1512 O 0.93842 0.13907 0.97847 0.0
C1513 C 0.97746 0.0959 0.97755 0.0
H1514 H 0.91124 0.06469 0.96827 0.0
H1515 H 0.0207 0.15696 0.00629 0.0
H1516 H 0.93274 0.16869 0.04166 0.0
H1517 H 0.95646 0.11405 0.06581 0.0
Co1518 Co 0.6202 0.20815 0.74532 0.0
C1519 C 0.65388 0.19201 0.76628 0.0
C1520 C 0.65054 0.17699 0.73832 0.0
C1521 C 0.6689 0.17209 0.74633 0.0
N1522 N 0.64132 0.18961 0.75091 0.0
N1523 N 0.67083 0.18167 0.76386 0.0
H1524 H 0.65174 0.20309 0.77781 0.0
H1525 H 0.64533 0.1734 0.72351 0.0
C1526 C 0.58561 0.18098 0.73756 0.0
O1527 O 0.57535 0.19059 0.75117 0.0
N1528 N 0.59951 0.22758 0.73944 0.0
C1529 C 0.59864 0.24655 0.74608 0.0
C1530 C 0.58265 0.25594 0.73754 0.0
C1531 C 0.58463 0.22623 0.72596 0.0
N1532 N 0.57373 0.2431 0.72498 0.0
C1533 C 0.60808 0.21869 0.78537 0.0
C1534 C 0.5993 0.18035 0.79753 0.0
C1535 C 0.59621 0.19609 0.81085 0.0
C1536 C 0.60109 0.21542 0.80472 0.0
C1537 C 0.60665 0.18425 0.77847 0.0
N1538 N 0.60987 0.20335 0.77214 0.0
H1539 H 0.61256 0.23349 0.78133 0.0
H1540 H 0.60968 0.17182 0.76871 0.0
H1541 H 0.60915 0.25351 0.75603 0.0
H1542 H 0.582 0.21341 0.71665 0.0
O1543 O 0.63859 0.22957 0.75098 0.0
O1544 O 0.63362 0.21611 0.7212 0.0
O1545 O 0.60355 0.186 0.73355 0.0
C1546 C 0.64313 0.22896 0.73213 0.0
H1547 H 0.68068 0.16398 0.73889 0.0
H1548 H 0.57774 0.27094 0.74077 0.0
H1549 H 0.59646 0.1651 0.80194 0.0
H1550 H 0.59946 0.22793 0.81477 0.0
Co1551 Co 0.87552 0.78634 0.24097 0.0
C1552 C 0.8395 0.80625 0.25566 0.0
C1553 C 0.84652 0.81541 0.226 0.0
C1554 C 0.82751 0.82181 0.23051 0.0
N1555 N 0.85402 0.80557 0.24185 0.0
N1556 N 0.82334 0.81613 0.24925 0.0
H1557 H 0.83934 0.79746 0.26904 0.0
H1558 H 0.85348 0.81597 0.21148 0.0
C1559 C 0.894 0.82531 0.22999 0.0
O1560 O 0.88332 0.83395 0.24393 0.0
N1561 N 0.89641 0.76678 0.24002 0.0
C1562 C 0.89794 0.75083 0.25204 0.0
C1563 C 0.91555 0.74127 0.24798 0.0
C1564 C 0.91301 0.76676 0.22877 0.0
N1565 N 0.92506 0.75133 0.2334 0.0
C1566 C 0.87445 0.78707 0.28395 0.0
C1567 C 0.90991 0.80721 0.28919 0.0
C1568 C 0.89863 0.80225 0.30602 0.0
C1569 C 0.88086 0.79163 0.30322 0.0
C1570 C 0.90296 0.80231 0.27023 0.0
N1571 N 0.88477 0.79351 0.26764 0.0
H1572 H 0.86138 0.77792 0.28224 0.0
H1573 H 0.91267 0.80512 0.25778 0.0
H1574 H 0.88733 0.74685 0.26349 0.0
H1575 H 0.91639 0.77798 0.21774 0.0
O1576 O 0.85642 0.76562 0.24744 0.0
O1577 O 0.86436 0.77554 0.21693 0.0
O1578 O 0.89331 0.80645 0.22766 0.0
C1579 C 0.85376 0.76402 0.22829 0.0
H1580 H 0.81691 0.82826 0.22023 0.0
H1581 H 0.92135 0.7285 0.2559 0.0
H1582 H 0.92427 0.81441 0.29065 0.0
H1583 H 0.87191 0.78693 0.31578 0.0
H1584 H 0.0034 0.07527 0.44751 0.0
H1585 H 0.09887 0.01916 0.48223 0.0
H1586 H 0.05297 0.06468 0.40802 0.0
H1587 H 0.07223 0.06156 0.5225 0.0
H1588 H 0.07845 0.03242 0.45528 0.0
H1589 H 0.0254 0.06874 0.47605 0.0
C1590 C 0.01897 0.07205 0.44485 0.0
C1591 C 0.02631 0.07009 0.42536 0.0
C1592 C 0.07712 0.03886 0.47001 0.0
C1593 C 0.05113 0.06214 0.45767 0.0
C1594 C 0.08861 0.03119 0.4854 0.0
C1595 C 0.08718 0.03931 0.50454 0.0
C1596 C 0.06377 0.05445 0.47386 0.0
C1597 C 0.07375 0.05499 0.50785 0.0
C1598 C 0.03143 0.06823 0.4611 0.0
C1599 C 0.04659 0.0658 0.42277 0.0
N1600 N 0.06232 0.06197 0.49265 0.0
N1601 N 0.05819 0.06156 0.4387 0.0
H1602 H 0.24211 0.82687 0.75128 0.0
H1603 H 0.15528 0.80153 0.6781 0.0
H1604 H 0.18581 0.85727 0.75683 0.0
H1605 H 0.19526 0.75616 0.69906 0.0
H1606 H 0.16627 0.82341 0.70538 0.0
H1607 H 0.22617 0.80205 0.72982 0.0
C1608 C 0.22641 0.82835 0.74789 0.0
C1609 C 0.21525 0.84415 0.75569 0.0
C1610 C 0.17223 0.80846 0.70434 0.0
C1611 C 0.19701 0.81598 0.73117 0.0
C1612 C 0.16584 0.79601 0.68895 0.0
C1613 C 0.17412 0.77701 0.68676 0.0
C1614 C 0.18749 0.80202 0.71707 0.0
C1615 C 0.18826 0.77058 0.70067 0.0
C1616 C 0.2173 0.8141 0.73584 0.0
C1617 C 0.19491 0.84528 0.75105 0.0
N1618 N 0.19482 0.78322 0.71504 0.0
N1619 N 0.18646 0.83151 0.73883 0.0
H1620 H 0.4286 0.99507 0.00291 0.0
H1621 H 0.45715 0.90859 0.93047 0.0
H1622 H 0.39697 0.93919 0.00545 0.0
H1623 H 0.50182 0.9476 0.95463 0.0
H1624 H 0.4338 0.91972 0.95641 0.0
H1625 H 0.45459 0.979 0.98296 0.0
C1626 C 0.42712 0.97944 0.9992 0.0
C1627 C 0.41063 0.96842 0.00569 0.0
C1628 C 0.44888 0.92544 0.95637 0.0
C1629 C 0.44011 0.95006 0.98292 0.0
C1630 C 0.46215 0.91898 0.94174 0.0
C1631 C 0.48137 0.92696 0.94083 0.0
C1632 C 0.45478 0.94048 0.96964 0.0
C1633 C 0.48719 0.94086 0.95525 0.0
C1634 C 0.44201 0.97025 0.98801 0.0
C1635 C 0.40948 0.94818 0.00067 0.0
N1636 N 0.47379 0.94751 0.96888 0.0
N1637 N 0.42392 0.93967 0.98933 0.0
H1638 H 0.30801 0.16647 0.27736 0.0
H1639 H 0.31659 0.1955 0.16362 0.0
H1640 H 0.26543 0.14737 0.23326 0.0
H1641 H 0.32494 0.24115 0.20809 0.0
H1642 H 0.30729 0.17213 0.18983 0.0
H1643 H 0.32278 0.18926 0.2526 0.0
C1644 C 0.30186 0.16705 0.26247 0.0
C1645 C 0.28546 0.15517 0.25726 0.0
C1646 C 0.31141 0.18721 0.19382 0.0
C1647 C 0.30251 0.18047 0.22908 0.0
C1648 C 0.31669 0.20057 0.17892 0.0
C1649 C 0.32101 0.22049 0.1836 0.0
C1650 C 0.31085 0.19363 0.21363 0.0
C1651 C 0.32158 0.226 0.20379 0.0
C1652 C 0.31023 0.18001 0.24846 0.0
C1653 C 0.27796 0.15642 0.23786 0.0
N1654 N 0.31635 0.21264 0.21814 0.0
N1655 N 0.28668 0.1687 0.2244 0.0
H1656 H 0.07058 0.9937 0.99016 0.0
H1657 H 0.03937 0.90624 0.06177 0.0
H1658 H 0.10459 0.93928 0.99233 0.0
H1659 H 0.99573 0.94419 0.03436 0.0
H1660 H 0.06464 0.91894 0.03845 0.0
H1661 H 0.04397 0.97735 0.00915 0.0
C1662 C 0.07249 0.97837 0.99479 0.0
C1663 C 0.0898 0.96783 0.98986 0.0
C1664 C 0.04943 0.92414 0.03724 0.0
C1665 C 0.05959 0.94913 0.01145 0.0
C1666 C 0.03509 0.9168 0.05037 0.0
C1667 C 0.01553 0.92391 0.04952 0.0
C1668 C 0.04422 0.93918 0.02369 0.0
C1669 C 0.01062 0.93806 0.03502 0.0
C1670 C 0.05725 0.96901 0.0054 0.0
C1671 C 0.09145 0.94791 0.99591 0.0
N1672 N 0.02497 0.94551 0.02283 0.0
N1673 N 0.07661 0.93924 0.0066 0.0
H1674 H 0.33551 0.78598 0.29713 0.0
H1675 H 0.24126 0.84337 0.25184 0.0
H1676 H 0.27593 0.78331 0.32108 0.0
H1677 H 0.301 0.852 0.22972 0.0
H1678 H 0.25412 0.82045 0.27676 0.0
H1679 H 0.3236 0.80929 0.27152 0.0
C1680 C 0.31999 0.79032 0.29701 0.0
C1681 C 0.30678 0.78291 0.31142 0.0
C1682 C 0.26448 0.82736 0.26651 0.0
C1683 C 0.29307 0.80936 0.28232 0.0
C1684 C 0.25711 0.84046 0.25226 0.0
C1685 C 0.27008 0.84963 0.23874 0.0
C1686 C 0.28499 0.82329 0.26725 0.0
C1687 C 0.2905 0.84527 0.23994 0.0
C1688 C 0.31321 0.80363 0.28248 0.0
C1689 C 0.2868 0.78898 0.31063 0.0
N1690 N 0.29735 0.83237 0.25396 0.0
N1691 N 0.28059 0.80178 0.29636 0.0
H1692 H 0.39696 0.00292 0.52196 0.0
H1693 H 0.48502 0.0741 0.5476 0.0
H1694 H 0.40908 0.05146 0.4817 0.0
H1695 H 0.44157 0.05785 0.59215 0.0
H1696 H 0.46163 0.06317 0.52164 0.0
H1697 H 0.4186 0.01874 0.54681 0.0
C1698 C 0.40428 0.01684 0.51836 0.0
C1699 C 0.40123 0.02602 0.49991 0.0
C1700 C 0.45727 0.06227 0.53715 0.0
C1701 C 0.42605 0.04389 0.52792 0.0
C1702 C 0.47051 0.06861 0.55195 0.0
C1703 C 0.46544 0.06647 0.57214 0.0
C1704 C 0.43915 0.05344 0.54269 0.0
C1705 C 0.44639 0.05917 0.57683 0.0
C1706 C 0.41646 0.02589 0.53251 0.0
C1707 C 0.41099 0.04408 0.4959 0.0
N1708 N 0.43412 0.05251 0.56227 0.0
N1709 N 0.4232 0.05239 0.50976 0.0
H1710 H 0.23673 0.14497 0.77183 0.0
H1711 H 0.17834 0.24264 0.79156 0.0
H1712 H 0.19924 0.16699 0.7246 0.0
H1713 H 0.17962 0.19547 0.83508 0.0
H1714 H 0.18819 0.21847 0.76581 0.0
H1715 H 0.21996 0.16755 0.7951 0.0
C1716 C 0.22508 0.15469 0.76637 0.0
C1717 C 0.21929 0.1542 0.74638 0.0
C1718 C 0.18586 0.21344 0.78096 0.0
C1719 C 0.20027 0.17998 0.7727 0.0
C1720 C 0.18008 0.22713 0.79558 0.0
C1721 C 0.17852 0.22105 0.81551 0.0
C1722 C 0.19039 0.19382 0.78655 0.0
C1723 C 0.18112 0.2008 0.81994 0.0
C1724 C 0.21542 0.16738 0.77963 0.0
C1725 C 0.204 0.16695 0.74 0.0
N1726 N 0.18742 0.188 0.80569 0.0
N1727 N 0.1951 0.17957 0.75311 0.0
H1728 H 0.43992 0.03268 0.0923 0.0
H1729 H 0.49876 0.07834 0.00142 0.0
H1730 H 0.44707 0.00158 0.03681 0.0
H1731 H 0.51263 0.09526 0.06181 0.0
H1732 H 0.47852 0.05085 0.01419 0.0
H1733 H 0.4663 0.0561 0.08219 0.0
C1734 C 0.44762 0.03046 0.0783 0.0
C1735 C 0.44174 0.01519 0.06542 0.0
C1736 C 0.48611 0.0605 0.02465 0.0
C1737 C 0.47095 0.04211 0.05336 0.0
C1738 C 0.49749 0.07628 0.01736 0.0
C1739 C 0.50724 0.08911 0.0306 0.0
C1740 C 0.48418 0.05778 0.0453 0.0
C1741 C 0.50529 0.08568 0.05113 0.0
C1742 C 0.46246 0.04384 0.07244 0.0
C1743 C 0.45156 0.01309 0.04715 0.0
N1744 N 0.49379 0.07045 0.05788 0.0
N1745 N 0.46548 0.0266 0.04149 0.0
H1746 H 0.20059 0.16282 0.31466 0.0
H1747 H 0.17101 0.27658 0.30811 0.0
H1748 H 0.24565 0.20729 0.32547 0.0
H1749 H 0.15168 0.2323 0.26575 0.0
H1750 H 0.19426 0.25204 0.32242 0.0
H1751 H 0.17712 0.18911 0.30595 0.0
C1752 C 0.20544 0.17818 0.31548 0.0
C1753 C 0.2252 0.1829 0.32031 0.0
C1754 C 0.1849 0.24785 0.30998 0.0
C1755 C 0.19839 0.21297 0.31059 0.0
C1756 C 0.17169 0.26173 0.30184 0.0
C1757 C 0.15949 0.25637 0.28574 0.0
C1758 C 0.18532 0.22846 0.30228 0.0
C1759 C 0.1609 0.23704 0.27809 0.0
C1760 C 0.19208 0.19311 0.31048 0.0
C1761 C 0.23057 0.20306 0.3217 0.0
N1762 N 0.17342 0.22371 0.28658 0.0
N1763 N 0.21724 0.21748 0.31662 0.0
H1764 H 0.9898 0.92298 0.4947 0.0
H1765 H 0.04114 0.97951 0.58632 0.0
H1766 H 0.9699 0.91549 0.55536 0.0
H1767 H 0.06083 0.98256 0.52527 0.0
H1768 H 0.0131 0.95834 0.57568 0.0
H1769 H 0.01401 0.94741 0.50594 0.0
C1770 C 0.99048 0.92657 0.51042 0.0
C1771 C 0.97797 0.9171 0.52415 0.0
C1772 C 0.0236 0.96369 0.56467 0.0
C1773 C 0.00585 0.94501 0.53724 0.0
C1774 C 0.03951 0.97574 0.57073 0.0
C1775 C 0.0535 0.98241 0.55672 0.0
C1776 C 0.02169 0.95855 0.54445 0.0
C1777 C 0.05075 0.97727 0.53667 0.0
C1778 C 0.00433 0.94053 0.51686 0.0
C1779 C 0.97936 0.92245 0.54431 0.0
N1780 N 0.03524 0.96565 0.53118 0.0
N1781 N 0.99321 0.93598 0.55031 0.0
H1782 H 0.24555 0.80462 0.78357 0.0
H1783 H 0.33618 0.73169 0.8085 0.0
H1784 H 0.27676 0.8056 0.83943 0.0
H1785 H 0.31709 0.74565 0.74878 0.0
H1786 H 0.31 0.75334 0.82162 0.0
H1787 H 0.26667 0.77695 0.77243 0.0
C1788 C 0.25652 0.79847 0.79365 0.0
C1789 C 0.25945 0.80703 0.81243 0.0
C1790 C 0.3115 0.75159 0.80565 0.0
C1791 C 0.28388 0.77599 0.79981 0.0
C1792 C 0.32642 0.73927 0.79815 0.0
C1793 C 0.32891 0.73709 0.77752 0.0
C1794 C 0.29885 0.76162 0.79243 0.0
C1795 C 0.31583 0.74716 0.76478 0.0
C1796 C 0.26867 0.78292 0.78728 0.0
C1797 C 0.27401 0.79906 0.82496 0.0
N1798 N 0.30133 0.75902 0.77245 0.0
N1799 N 0.28585 0.78401 0.81837 0.0
H1800 H 0.51105 0.90557 0.43937 0.0
H1801 H 0.4491 0.00489 0.45928 0.0
H1802 H 0.50147 0.92985 0.49809 0.0
H1803 H 0.43356 0.96374 0.41274 0.0
H1804 H 0.47654 0.9828 0.46925 0.0
H1805 H 0.48987 0.93185 0.42547 0.0
C1806 C 0.50456 0.9165 0.4493 0.0
C1807 C 0.5078 0.9155 0.46991 0.0
C1808 C 0.46745 0.97888 0.45652 0.0
C1809 C 0.48413 0.94568 0.4541 0.0
C1810 C 0.45209 0.99156 0.45069 0.0
C1811 C 0.43948 0.9861 0.43503 0.0
C1812 C 0.47019 0.96079 0.44644 0.0
C1813 C 0.44331 0.96844 0.42468 0.0
C1814 C 0.49255 0.93144 0.44137 0.0
C1815 C 0.49913 0.93001 0.48214 0.0
N1816 N 0.45833 0.95629 0.43061 0.0
N1817 N 0.48771 0.94459 0.47403 0.0
H1818 H 0.26816 0.20259 0.67431 0.0
H1819 H 0.35693 0.23265 0.74391 0.0
H1820 H 0.30769 0.15909 0.70023 0.0
H1821 H 0.34133 0.27036 0.69433 0.0
H1822 H 0.33582 0.20641 0.73015 0.0
H1823 H 0.29249 0.22871 0.68233 0.0
C1824 C 0.28206 0.19847 0.68134 0.0
C1825 C 0.2857 0.17869 0.68703 0.0
C1826 C 0.33711 0.22039 0.72222 0.0
C1827 C 0.31315 0.20838 0.69657 0.0
C1828 C 0.34901 0.23538 0.73013 0.0
C1829 C 0.35081 0.25361 0.7202 0.0
C1830 C 0.3266 0.22382 0.70449 0.0
C1831 C 0.34034 0.25641 0.70234 0.0
C1832 C 0.29585 0.21337 0.68598 0.0
C1833 C 0.30396 0.17421 0.69616 0.0
N1834 N 0.32843 0.2417 0.69511 0.0
N1835 N 0.31683 0.18898 0.70096 0.0
H1836 H 0.06672 0.03631 0.90866 0.0
H1837 H 0.99189 0.06219 0.99517 0.0
H1838 H 0.04798 0.99242 0.95134 0.0
H1839 H 0.99128 0.09412 0.93944 0.0
H1840 H 0.0132 0.0368 0.97987 0.0
H1841 H 0.03932 0.05804 0.91941 0.0
C1842 C 0.05632 0.03107 0.91982 0.0
C1843 C 0.05914 0.01255 0.92888 0.0
C1844 C 0.00826 0.04929 0.97097 0.0
C1845 C 0.02861 0.03742 0.94195 0.0
C1846 C 0.99628 0.06384 0.97973 0.0
C1847 C 0.99003 0.08033 0.96858 0.0
C1848 C 0.01429 0.05148 0.95105 0.0
C1849 C 0.99586 0.08165 0.94856 0.0
C1850 C 0.04085 0.04344 0.92608 0.0
C1851 C 0.04583 0.00648 0.94375 0.0
N1852 N 0.00789 0.06754 0.94049 0.0
N1853 N 0.03129 0.01904 0.9501 0.0
H1854 H 0.17581 0.74726 0.23872 0.0
H1855 H 0.20529 0.82025 0.15384 0.0
H1856 H 0.15029 0.73933 0.18034 0.0
H1857 H 0.24918 0.79946 0.19553 0.0
H1858 H 0.18339 0.79246 0.16348 0.0
H1859 H 0.2014 0.76887 0.2242 0.0
C1860 C 0.17563 0.7501 0.22284 0.0
C1861 C 0.16094 0.74167 0.21068 0.0
C1862 C 0.19803 0.79369 0.17012 0.0
C1863 C 0.1899 0.76637 0.19409 0.0
C1864 C 0.21047 0.80939 0.16456 0.0
C1865 C 0.22904 0.81174 0.17371 0.0
C1866 C 0.20403 0.7808 0.18543 0.0
C1867 C 0.23507 0.79776 0.18794 0.0
C1868 C 0.19029 0.76224 0.21456 0.0
C1869 C 0.16142 0.74561 0.19017 0.0
N1870 N 0.22241 0.78306 0.19369 0.0
N1871 N 0.17551 0.75798 0.18251 0.0
H1872 H 0.05017 0.44659 0.99444 0.0
H1873 H 0.0675 0.50694 0.09529 0.0
H1874 H 0.09278 0.4277 0.03832 0.0
H1875 H 0.00993 0.5009 0.06747 0.0
H1876 H 0.08166 0.48475 0.06989 0.0
H1877 H 0.04049 0.47437 0.01625 0.0
C1878 C 0.05801 0.44887 0.00835 0.0
C1879 C 0.07247 0.43523 0.01462 0.0
C1880 C 0.06597 0.48842 0.06935 0.0
C1881 C 0.06133 0.46639 0.03961 0.0
C1882 C 0.05789 0.50101 0.08377 0.0
C1883 C 0.0375 0.50552 0.08352 0.0
C1884 C 0.05364 0.48075 0.05434 0.0
C1885 C 0.02568 0.49754 0.0683 0.0
C1886 C 0.05232 0.46444 0.02086 0.0
C1887 C 0.08179 0.43821 0.033 0.0
N1888 N 0.03394 0.48557 0.05423 0.0
N1889 N 0.07603 0.45349 0.04496 0.0
H1890 H 0.55357 0.97247 0.918 0.0
H1891 H 0.55793 0.08625 0.94688 0.0
H1892 H 0.50723 0.01384 0.90184 0.0
H1893 H 0.57205 0.04229 0.99156 0.0
H1894 H 0.54769 0.05963 0.92441 0.0
H1895 H 0.56795 0.99791 0.94022 0.0
C1896 C 0.54648 0.98691 0.91914 0.0
C1897 C 0.5292 0.99116 0.90819 0.0
C1898 C 0.55323 0.05586 0.93908 0.0
C1899 C 0.54577 0.02015 0.93286 0.0
C1900 C 0.55907 0.07099 0.95193 0.0
C1901 C 0.56535 0.06656 0.97137 0.0
C1902 C 0.55412 0.03606 0.94546 0.0
C1903 C 0.56719 0.04643 0.97679 0.0
C1904 C 0.55464 0.0013 0.93178 0.0
C1905 C 0.52049 0.00999 0.91015 0.0
N1906 N 0.56145 0.03184 0.9639 0.0
N1907 N 0.52901 0.0239 0.92209 0.0
H1908 H 0.2684 0.30837 0.15597 0.0
H1909 H 0.18049 0.27556 0.22944 0.0
H1910 H 0.24629 0.24838 0.16258 0.0
H1911 H 0.19679 0.33704 0.22106 0.0
H1912 H 0.20699 0.26559 0.20694 0.0
H1913 H 0.24446 0.31949 0.18132 0.0
C1914 C 0.25855 0.29756 0.16278 0.0
C1915 C 0.25923 0.27744 0.15711 0.0
C1916 C 0.20488 0.2813 0.20992 0.0
C1917 C 0.23205 0.28999 0.18604 0.0
C1918 C 0.18969 0.28698 0.22271 0.0
C1919 C 0.18626 0.30717 0.2267 0.0
C1920 C 0.21682 0.29589 0.2009 0.0
C1921 C 0.19897 0.32135 0.21815 0.0
C1922 C 0.24493 0.30391 0.17722 0.0
C1923 C 0.24622 0.26404 0.16639 0.0
N1924 N 0.21366 0.31545 0.20542 0.0
N1925 N 0.23319 0.27056 0.18035 0.0
H1926 H 0.99046 0.98057 0.39449 0.0
H1927 H 0.91671 0.96233 0.48214 0.0
H1928 H 0.94532 0.02486 0.40576 0.0
H1929 H 0.93005 0.91566 0.43988 0.0
H1930 H 0.92978 0.98677 0.45843 0.0
H1931 H 0.97261 0.95744 0.41637 0.0
C1932 C 0.9769 0.98546 0.40173 0.0
C1933 C 0.96927 0.00456 0.39834 0.0
C1934 C 0.92958 0.97116 0.45439 0.0
C1935 C 0.94902 0.97839 0.42337 0.0
C1936 C 0.92201 0.95717 0.46783 0.0
C1937 C 0.9227 0.93673 0.46327 0.0
C1938 C 0.9382 0.9646 0.43655 0.0
C1939 C 0.92983 0.93112 0.44439 0.0
C1940 C 0.96667 0.97225 0.41402 0.0
C1941 C 0.95158 0.01017 0.40798 0.0
N1942 N 0.93771 0.9449 0.43193 0.0
N1943 N 0.94208 0.99717 0.42028 0.0
H1944 H 0.80883 0.15552 0.21703 0.0
H1945 H 0.74474 0.24751 0.18211 0.0
H1946 H 0.7996 0.2069 0.25408 0.0
H1947 H 0.7361 0.1888 0.15746 0.0
H1948 H 0.76528 0.23297 0.20848 0.0
H1949 H 0.7817 0.16671 0.19521 0.0
C1950 C 0.80047 0.16875 0.22089 0.0
C1951 C 0.80595 0.18016 0.23741 0.0
C1952 C 0.75876 0.22326 0.19736 0.0
C1953 C 0.77589 0.19361 0.21228 0.0
C1954 C 0.74723 0.23158 0.18223 0.0
C1955 C 0.73892 0.21934 0.16752 0.0
C1956 C 0.76224 0.20262 0.19756 0.0
C1957 C 0.74234 0.19876 0.1685 0.0
C1958 C 0.78521 0.17527 0.20841 0.0
C1959 C 0.79533 0.19759 0.24162 0.0
N1960 N 0.75392 0.19105 0.18314 0.0
N1961 N 0.78098 0.20401 0.22893 0.0
H1962 H 0.4131 0.56219 0.53451 0.0
H1963 H 0.50427 0.50431 0.58155 0.0
H1964 H 0.46949 0.55585 0.50485 0.0
H1965 H 0.44383 0.49281 0.60012 0.0
H1966 H 0.4916 0.52393 0.55369 0.0
H1967 H 0.42325 0.53656 0.55866 0.0
C1968 C 0.42733 0.55483 0.5328 0.0
C1969 C 0.44044 0.5607 0.51773 0.0
C1970 C 0.48109 0.51705 0.5638 0.0
C1971 C 0.45249 0.53231 0.54539 0.0
C1972 C 0.48832 0.50602 0.5798 0.0
C1973 C 0.47506 0.49712 0.59321 0.0
C1974 C 0.46045 0.51946 0.56139 0.0
C1975 C 0.45454 0.49953 0.59012 0.0
C1976 C 0.43322 0.54041 0.54658 0.0
C1977 C 0.45898 0.55134 0.51623 0.0
N1978 N 0.44783 0.51066 0.57462 0.0
N1979 N 0.46461 0.53777 0.53007 0.0
H1980 H 0.23562 0.73654 0.35196 0.0
H1981 H 0.21091 0.67832 0.25342 0.0
H1982 H 0.27905 0.69709 0.32578 0.0
H1983 H 0.16621 0.69103 0.29789 0.0
H1984 H 0.23676 0.6867 0.27773 0.0
H1985 H 0.21031 0.72284 0.32964 0.0
C1986 C 0.23981 0.72503 0.34146 0.0
C1987 C 0.25938 0.71791 0.34064 0.0
C1988 C 0.22127 0.6874 0.28214 0.0
C1989 C 0.23065 0.7023 0.3151 0.0
C1990 C 0.20649 0.68252 0.26833 0.0
C1991 C 0.1863 0.68436 0.27347 0.0
C1992 C 0.21574 0.69443 0.30103 0.0
C1993 C 0.18154 0.68998 0.29306 0.0
C1994 C 0.22537 0.71712 0.32886 0.0
C1995 C 0.26406 0.70291 0.32686 0.0
N1996 N 0.19613 0.69514 0.30601 0.0
N1997 N 0.24981 0.69569 0.31443 0.0
H1998 H 0.25155 0.2475 0.82704 0.0
H1999 H 0.30567 0.34069 0.77746 0.0
H2000 H 0.23642 0.308 0.84246 0.0
H2001 H 0.31088 0.28049 0.75621 0.0
H2002 H 0.27845 0.33005 0.79974 0.0
H2003 H 0.27223 0.25991 0.79994 0.0
C2004 C 0.2526 0.26343 0.82471 0.0
C2005 C 0.24241 0.27675 0.83712 0.0
C2006 C 0.28526 0.31926 0.78989 0.0
C2007 C 0.26611 0.29116 0.80604 0.0
C2008 C 0.30059 0.32539 0.77711 0.0
C2009 C 0.31034 0.31138 0.76514 0.0
C2010 C 0.27993 0.29899 0.79066 0.0
C2011 C 0.30363 0.29164 0.76532 0.0
C2012 C 0.26432 0.27053 0.80914 0.0
C2013 C 0.24413 0.29724 0.83327 0.0
N2014 N 0.28902 0.28598 0.77805 0.0
N2015 N 0.25593 0.30385 0.81817 0.0
H2016 H 0.49692 0.55148 0.95806 0.0
H2017 H 0.60534 0.55793 0.00607 0.0
H2018 H 0.54379 0.58634 0.93174 0.0
H2019 H 0.56951 0.50464 0.00821 0.0
H2020 H 0.57996 0.57367 0.98504 0.0
H2021 H 0.52042 0.53972 0.98358 0.0
C2022 C 0.51201 0.55716 0.95817 0.0
C2023 C 0.51853 0.57007 0.94315 0.0
C2024 C 0.57768 0.55856 0.99019 0.0
C2025 C 0.54534 0.55661 0.97176 0.0
C2026 C 0.5921 0.54958 0.00213 0.0
C2027 C 0.58955 0.52991 0.00862 0.0
C2028 C 0.56043 0.54793 0.98516 0.0
C2029 C 0.57213 0.51974 0.00322 0.0
C2030 C 0.52543 0.55028 0.97246 0.0
C2031 C 0.53832 0.57659 0.94335 0.0
N2032 N 0.55814 0.52891 0.99185 0.0
N2033 N 0.55111 0.56979 0.95745 0.0
H2034 H 0.65407 0.28203 0.19741 0.0
H2035 H 0.74714 0.31966 0.25915 0.0
H2036 H 0.70771 0.24766 0.20338 0.0
H2037 H 0.68787 0.34166 0.27051 0.0
H2038 H 0.73295 0.29343 0.23817 0.0
H2039 H 0.66549 0.304 0.22444 0.0
C2040 C 0.66792 0.27879 0.20498 0.0
C2041 C 0.67986 0.26297 0.19862 0.0
C2042 C 0.72304 0.30391 0.24536 0.0
C2043 C 0.69347 0.28827 0.22863 0.0
C2044 C 0.73114 0.31897 0.25719 0.0
C2045 C 0.71866 0.33292 0.26641 0.0
C2046 C 0.70232 0.30301 0.24248 0.0
C2047 C 0.69802 0.33121 0.26359 0.0
C2048 C 0.67455 0.29135 0.2202 0.0
C2049 C 0.69802 0.25958 0.20828 0.0
N2050 N 0.69049 0.31667 0.25169 0.0
N2051 N 0.70444 0.27231 0.22262 0.0
H2052 H 0.92785 0.50163 0.50543 0.0
H2053 H 0.97948 0.41466 0.44327 0.0
H2054 H 0.91823 0.43953 0.51874 0.0
H2055 H 0.99189 0.47712 0.43594 0.0
H2056 H 0.9598 0.42252 0.47328 0.0
H2057 H 0.95379 0.49231 0.48194 0.0
C2058 C 0.93124 0.48599 0.50338 0.0
C2059 C 0.92073 0.4713 0.51379 0.0
C2060 C 0.96711 0.43446 0.46528 0.0
C2061 C 0.95043 0.46042 0.48681 0.0
C2062 C 0.97838 0.42994 0.44831 0.0
C2063 C 0.98695 0.44533 0.43716 0.0
C2064 C 0.96456 0.45448 0.47093 0.0
C2065 C 0.98516 0.46492 0.44405 0.0
C2066 C 0.94614 0.48065 0.49003 0.0
C2067 C 0.92595 0.45128 0.51086 0.0
N2068 N 0.97401 0.46895 0.46036 0.0
N2069 N 0.94031 0.44638 0.49741 0.0
H2070 H 0.80618 0.6605 0.77149 0.0
H2071 H 0.81365 0.68766 0.65692 0.0
H2072 H 0.76416 0.63937 0.72779 0.0
H2073 H 0.82147 0.73341 0.70138 0.0
H2074 H 0.80594 0.66384 0.68329 0.0
H2075 H 0.8213 0.6821 0.74596 0.0
C2076 C 0.8003 0.6603 0.75648 0.0
C2077 C 0.7839 0.64831 0.75161 0.0
C2078 C 0.80968 0.67904 0.68722 0.0
C2079 C 0.80132 0.67226 0.72261 0.0
C2080 C 0.81406 0.69263 0.67224 0.0
C2081 C 0.81762 0.71271 0.67691 0.0
C2082 C 0.8093 0.68543 0.70704 0.0
C2083 C 0.81864 0.71816 0.69708 0.0
C2084 C 0.80887 0.67258 0.74204 0.0
C2085 C 0.77669 0.64856 0.73208 0.0
N2086 N 0.81425 0.7046 0.71149 0.0
N2087 N 0.78556 0.66027 0.7182 0.0
H2088 H 0.60765 0.44703 0.49598 0.0
H2089 H 0.50924 0.46898 0.55952 0.0
H2090 H 0.5827 0.5057 0.50388 0.0
H2091 H 0.54406 0.41581 0.56688 0.0
H2092 H 0.5325 0.48041 0.53373 0.0
H2093 H 0.5814 0.43339 0.51732 0.0
C2094 C 0.59665 0.45704 0.50222 0.0
C2095 C 0.59744 0.47755 0.49833 0.0
C2096 C 0.53491 0.46608 0.54071 0.0
C2097 C 0.56726 0.462 0.52245 0.0
C2098 C 0.52155 0.45951 0.55517 0.0
C2099 C 0.52476 0.44138 0.56493 0.0
C2100 C 0.55162 0.4544 0.53605 0.0
C2101 C 0.54107 0.42972 0.55934 0.0
C2102 C 0.58169 0.44923 0.51437 0.0
C2103 C 0.58277 0.48983 0.5067 0.0
N2104 N 0.55401 0.43647 0.54528 0.0
N2105 N 0.56825 0.48185 0.51834 0.0
H2106 H 0.80368 0.32973 0.72724 0.0
H2107 H 0.81164 0.3034 0.84144 0.0
H2108 H 0.75912 0.34726 0.77007 0.0
H2109 H 0.82367 0.2576 0.79796 0.0
H2110 H 0.80123 0.3256 0.81465 0.0
H2111 H 0.81891 0.30805 0.75259 0.0
C2112 C 0.79713 0.32897 0.74197 0.0
C2113 C 0.78013 0.34015 0.74668 0.0
C2114 C 0.8064 0.31076 0.81102 0.0
C2115 C 0.79769 0.31616 0.77552 0.0
C2116 C 0.81235 0.29809 0.82623 0.0
C2117 C 0.81802 0.27843 0.82198 0.0
C2118 C 0.80654 0.30391 0.79135 0.0
C2119 C 0.81928 0.27258 0.80192 0.0
C2120 C 0.80579 0.31666 0.75631 0.0
C2121 C 0.77213 0.33872 0.76587 0.0
N2122 N 0.81338 0.28526 0.78726 0.0
N2123 N 0.78114 0.3271 0.77971 0.0
H2124 H 0.92075 0.5503 0.96609 0.0
H2125 H 0.95415 0.56622 0.07769 0.0
H2126 H 0.9032 0.5114 0.0141 0.0
H2127 H 0.99891 0.5695 0.03177 0.0
H2128 H 0.92953 0.55674 0.05267 0.0
H2129 H 0.94485 0.56652 0.98862 0.0
C2130 C 0.92196 0.54524 0.98136 0.0
C2131 C 0.91008 0.52952 0.98835 0.0
C2132 C 0.94467 0.5599 0.04804 0.0
C2133 C 0.93682 0.54822 0.01395 0.0
C2134 C 0.95866 0.56536 0.06223 0.0
C2135 C 0.97863 0.5682 0.05679 0.0
C2136 C 0.95058 0.55756 0.0282 0.0
C2137 C 0.98366 0.56733 0.03652 0.0
C2138 C 0.93565 0.55444 0.99408 0.0
C2139 C 0.91218 0.5234 0.00815 0.0
N2140 N 0.96971 0.5618 0.02285 0.0
N2141 N 0.92514 0.53293 0.02034 0.0
H2142 H 0.66053 0.72007 0.28971 0.0
H2143 H 0.75253 0.65085 0.25918 0.0
H2144 H 0.71371 0.71291 0.32494 0.0
H2145 H 0.69494 0.64576 0.23115 0.0
H2146 H 0.73876 0.67537 0.28218 0.0
H2147 H 0.67303 0.69441 0.26663 0.0
C2148 C 0.6747 0.71298 0.29264 0.0
C2149 C 0.68591 0.71835 0.30941 0.0
C2150 C 0.72908 0.66884 0.27106 0.0
C2151 C 0.70039 0.68941 0.28318 0.0
C2152 C 0.73696 0.65487 0.25791 0.0
C2153 C 0.72484 0.64624 0.2433 0.0
C2154 C 0.70897 0.67439 0.2695 0.0
C2155 C 0.70477 0.65201 0.24229 0.0
C2156 C 0.68181 0.69837 0.27956 0.0
C2157 C 0.70429 0.70888 0.31253 0.0
N2158 N 0.69745 0.66581 0.25518 0.0
N2159 N 0.71095 0.69498 0.29952 0.0
H2160 H 0.92814 0.53339 0.53124 0.0
H2161 H 0.02954 0.59305 0.54809 0.0
H2162 H 0.963 0.52752 0.58482 0.0
H2163 H 0.99768 0.59093 0.49235 0.0
H2164 H 0.00584 0.56913 0.56211 0.0
H2165 H 0.95346 0.5551 0.51735 0.0
C2166 C 0.941 0.53697 0.54026 0.0
C2167 C 0.94328 0.52898 0.55944 0.0
C2168 C 0.00415 0.57379 0.54677 0.0
C2169 C 0.97274 0.55358 0.54331 0.0
C2170 C 0.01768 0.5874 0.53874 0.0
C2171 C 0.01549 0.59405 0.51905 0.0
C2172 C 0.98828 0.56691 0.53504 0.0
C2173 C -0.00011 0.58625 0.50761 0.0
C2174 C 0.95562 0.54919 0.53218 0.0
C2175 C 0.96066 0.53354 0.57007 0.0
N2176 N 0.98681 0.57322 0.51582 0.0
N2177 N 0.97473 0.54566 0.5619 0.0
H2178 H 0.66836 0.74578 0.7443 0.0
H2179 H 0.72232 0.69424 0.83664 0.0
H2180 H 0.65349 0.75992 0.80521 0.0
H2181 H 0.74109 0.68815 0.77568 0.0
H2182 H 0.69873 0.72041 0.82635 0.0
H2183 H 0.69627 0.72588 0.75607 0.0
C2184 C 0.67093 0.7446 0.76018 0.0
C2185 C 0.6585 0.7543 0.77382 0.0
C2186 C 0.70829 0.71361 0.81529 0.0
C2187 C 0.6905 0.73158 0.78748 0.0
C2188 C 0.7218 0.69888 0.82121 0.0
C2189 C 0.73341 0.68916 0.80691 0.0
C2190 C 0.70651 0.71839 0.79495 0.0
C2191 C 0.73218 0.69534 0.78704 0.0
C2192 C 0.68697 0.73336 0.76692 0.0
C2193 C 0.66269 0.75253 0.79422 0.0
N2194 N 0.71881 0.70939 0.78161 0.0
N2195 N 0.67827 0.74123 0.80047 0.0
H2196 H 0.5658 0.46171 0.09277 0.0
H2197 H 0.49598 0.42938 0.00493 0.0
H2198 H 0.54583 0.50342 0.04856 0.0
H2199 H 0.49287 0.3999 0.0619 0.0
H2200 H 0.51562 0.45603 0.02021 0.0
H2201 H 0.53964 0.43839 0.08223 0.0
C2202 C 0.55532 0.46617 0.08137 0.0
C2203 C 0.55751 0.48451 0.07175 0.0
C2204 C 0.51054 0.44378 0.02938 0.0
C2205 C 0.52848 0.4578 0.0589 0.0
C2206 C 0.49956 0.42848 0.02063 0.0
C2207 C 0.49303 0.41237 0.03216 0.0
C2208 C 0.51535 0.44272 0.0497 0.0
C2209 C 0.49774 0.41206 0.05251 0.0
C2210 C 0.54058 0.45287 0.07522 0.0
C2211 C 0.54416 0.48953 0.05656 0.0
N2212 N 0.50885 0.42691 0.06061 0.0
N2213 N 0.53041 0.47608 0.05031 0.0
H2214 H 0.79154 0.31032 0.34598 0.0
H2215 H 0.82318 0.24582 0.2523 0.0
H2216 H 0.75128 0.29755 0.2979 0.0
H2217 H 0.85232 0.23962 0.30919 0.0
H2218 H 0.79751 0.26635 0.2682 0.0
H2219 H 0.81468 0.28511 0.33288 0.0
C2220 C 0.78739 0.30164 0.33304 0.0
C2221 C 0.76947 0.30548 0.3232 0.0
C2222 C 0.8095 0.26043 0.2772 0.0
C2223 C 0.79595 0.27759 0.30757 0.0
C2224 C 0.82423 0.24891 0.2681 0.0
C2225 C 0.83993 0.24118 0.27944 0.0
C2226 C 0.8107 0.26449 0.2977 0.0
C2227 C 0.84046 0.24536 0.29991 0.0
C2228 C 0.80057 0.28747 0.32544 0.0
C2229 C 0.76484 0.29451 0.30607 0.0
N2230 N 0.82614 0.25688 0.30837 0.0
N2231 N 0.77813 0.28122 0.2986 0.0
H2232 H 0.95583 0.49099 0.94874 0.0
H2233 H 0.00146 0.38216 0.94838 0.0
H2234 H 0.92243 0.44141 0.92559 0.0
H2235 H 0.00858 0.42146 0.99869 0.0
H2236 H 0.97792 0.40594 0.93363 0.0
H2237 H 0.98145 0.46773 0.9607 0.0
C2238 C 0.95423 0.47523 0.94577 0.0
C2239 C 0.93726 0.46796 0.93605 0.0
C2240 C 0.98469 0.4093 0.94788 0.0
C2241 C 0.96616 0.44153 0.94959 0.0
C2242 C 0.99809 0.39583 0.95626 0.0
C2243 C 0.00674 0.39988 0.97481 0.0
C2244 C 0.98046 0.42712 0.95788 0.0
C2245 C 0.00197 0.41775 0.98446 0.0
C2246 C 0.96864 0.46202 0.95275 0.0
C2247 C 0.93546 0.44742 0.93292 0.0
N2248 N 0.98923 0.43085 0.97579 0.0
N2249 N 0.94982 0.43485 0.9396 0.0
H2250 H 0.74836 0.6945 0.20216 0.0
H2251 H 0.85343 0.74869 0.19083 0.0
H2252 H 0.79481 0.67173 0.16437 0.0
H2253 H 0.82031 0.7488 0.24589 0.0
H2254 H 0.82848 0.72642 0.17627 0.0
H2255 H 0.77093 0.72119 0.21328 0.0
C2256 C 0.76311 0.69564 0.19573 0.0
C2257 C 0.76981 0.68129 0.18215 0.0
C2258 C 0.82669 0.73138 0.19151 0.0
C2259 C 0.79557 0.7112 0.19488 0.0
C2260 C 0.84088 0.74403 0.19983 0.0
C2261 C 0.83898 0.75036 0.21964 0.0
C2262 C 0.81029 0.72539 0.20296 0.0
C2263 C 0.82242 0.74399 0.23065 0.0
C2264 C 0.77601 0.71059 0.20224 0.0
C2265 C 0.78918 0.68281 0.17464 0.0
N2266 N 0.8086 0.73188 0.22212 0.0
N2267 N 0.80146 0.69753 0.1811 0.0
H2268 H 0.50384 0.57869 0.50125 0.0
H2269 H 0.57392 0.54388 0.41349 0.0
H2270 H 0.50074 0.60586 0.44313 0.0
H2271 H 0.55528 0.50386 0.45986 0.0
H2272 H 0.5483 0.56773 0.4242 0.0
H2273 H 0.52484 0.55227 0.48726 0.0
C2274 C 0.50775 0.57917 0.4856 0.0
C2275 C 0.50072 0.5945 0.47333 0.0
C2276 C 0.54945 0.55352 0.43172 0.0
C2277 C 0.52453 0.56443 0.45728 0.0
C2278 C 0.56386 0.53992 0.42547 0.0
C2279 C 0.5662 0.52186 0.43555 0.0
C2280 C 0.53783 0.5492 0.44857 0.0
C2281 C 0.55343 0.5175 0.45147 0.0
C2282 C 0.5195 0.56401 0.47759 0.0
C2283 C 0.50593 0.5943 0.45309 0.0
N2284 N 0.53997 0.53123 0.45774 0.0
N2285 N 0.51768 0.57959 0.44572 0.0
H2286 H 0.67194 0.24927 0.75219 0.0
H2287 H 0.71032 0.31198 0.66063 0.0
H2288 H 0.65008 0.23761 0.69292 0.0
H2289 H 0.74636 0.30118 0.71238 0.0
H2290 H 0.68717 0.2857 0.67166 0.0
H2291 H 0.6982 0.27011 0.73801 0.0
C2292 C 0.67267 0.25113 0.73619 0.0
C2293 C 0.65883 0.24177 0.7237 0.0
C2294 C 0.7004 0.28875 0.68034 0.0
C2295 C 0.68871 0.26566 0.70739 0.0
C2296 C 0.71359 0.30355 0.67397 0.0
C2297 C 0.73026 0.30828 0.68551 0.0
C2298 C 0.70377 0.27916 0.69864 0.0
C2299 C 0.73376 0.29754 0.70302 0.0
C2300 C 0.68773 0.2629 0.72809 0.0
C2301 C 0.66049 0.24459 0.70305 0.0
N2302 N 0.72046 0.28365 0.70923 0.0
N2303 N 0.67506 0.25649 0.69552 0.0
H2304 H 0.53446 0.9479 0.50785 0.0
H2305 H 0.55965 0.01863 0.60023 0.0
H2306 H 0.59124 0.94629 0.53734 0.0
H2307 H 0.50022 0.00068 0.58372 0.0
H2308 H 0.57299 0.99799 0.57312 0.0
H2309 H 0.52344 0.974 0.53086 0.0
C2310 C 0.54473 0.95353 0.51893 0.0
C2311 C 0.56373 0.9452 0.52081 0.0
C2312 C 0.55704 0.99867 0.57543 0.0
C2313 C 0.55127 0.97455 0.54735 0.0
C2314 C 0.54943 0.01042 0.59084 0.0
C2315 C 0.52882 0.01119 0.59427 0.0
C2316 C 0.54391 0.98798 0.56321 0.0
C2317 C 0.51621 0.00032 0.5817 0.0
C2318 C 0.53843 0.96821 0.53214 0.0
C2319 C 0.57655 0.95262 0.53545 0.0
N2320 N 0.52396 0.9892 0.5667 0.0
N2321 N 0.57004 0.96685 0.54835 0.0
H2322 H 0.05545 0.48315 0.4052 0.0
H2323 H 0.06593 0.59737 0.4326 0.0
H2324 H 0.01153 0.52689 0.38853 0.0
H2325 H 0.08033 0.55236 0.47612 0.0
H2326 H 0.05427 0.57133 0.41006 0.0
H2327 H 0.07212 0.50834 0.42594 0.0
C2328 C 0.0494 0.49808 0.40587 0.0
C2329 C 0.0321 0.50304 0.39526 0.0
C2330 C 0.06023 0.5672 0.42446 0.0
C2331 C 0.05128 0.53176 0.4183 0.0
C2332 C 0.06691 0.582 0.43733 0.0
C2333 C 0.07363 0.57711 0.45652 0.0
C2334 C 0.06071 0.5473 0.43059 0.0
C2335 C 0.07516 0.55686 0.46156 0.0
C2336 C 0.05887 0.51234 0.41767 0.0
C2337 C 0.02476 0.52249 0.39662 0.0
N2338 N 0.06856 0.54264 0.4487 0.0
N2339 N 0.03451 0.53624 0.4078 0.0
H2340 H 0.69083 0.78215 0.74249 0.0
H2341 H 0.75806 0.80226 0.64632 0.0
H2342 H 0.68549 0.8353 0.70725 0.0
H2343 H 0.74458 0.74346 0.66842 0.0
H2344 H 0.73698 0.81652 0.67246 0.0
H2345 H 0.71671 0.7699 0.71972 0.0
C2346 C 0.69564 0.79142 0.7302 0.0
C2347 C 0.68643 0.80978 0.7267 0.0
C2348 C 0.73871 0.80052 0.6716 0.0
C2349 C 0.71546 0.79589 0.7005 0.0
C2350 C 0.75072 0.79236 0.65673 0.0
C2351 C 0.75293 0.77164 0.65515 0.0
C2352 C 0.7291 0.78787 0.68516 0.0
C2353 C 0.74313 0.7595 0.66902 0.0
C2354 C 0.71015 0.7844 0.71713 0.0
C2355 C 0.6926 0.82121 0.71044 0.0
N2356 N 0.73166 0.7678 0.68349 0.0
N2357 N 0.70676 0.81405 0.69782 0.0
H2358 H 0.46021 0.45225 0.00177 0.0
H2359 H 0.43926 0.51199 0.90106 0.0
H2360 H 0.41114 0.43831 0.96311 0.0
H2361 H 0.49771 0.50621 0.92703 0.0
H2362 H 0.42585 0.49038 0.92723 0.0
H2363 H 0.47093 0.47832 0.9784 0.0
C2364 C 0.45136 0.45527 0.98863 0.0
C2365 C 0.43462 0.4436 0.98436 0.0
C2366 C 0.4416 0.49387 0.92718 0.0
C2367 C 0.4469 0.47272 0.95748 0.0
C2368 C 0.44926 0.50615 0.91228 0.0
C2369 C 0.46965 0.51068 0.91182 0.0
C2370 C 0.45436 0.4864 0.94191 0.0
C2371 C 0.48195 0.50283 0.92673 0.0
C2372 C 0.45758 0.46985 0.97522 0.0
C2373 C 0.42389 0.44739 0.96694 0.0
N2374 N 0.47409 0.49111 0.94124 0.0
N2375 N 0.43024 0.46165 0.95404 0.0
H2376 H 0.23558 0.70103 0.6425 0.0
H2377 H 0.29308 0.70765 0.74635 0.0
H2378 H 0.24183 0.75593 0.6753 0.0
H2379 H 0.30681 0.66367 0.70187 0.0
H2380 H 0.26832 0.72241 0.72376 0.0
H2381 H 0.25629 0.68424 0.66727 0.0
C2382 C 0.24129 0.70954 0.65496 0.0
C2383 C 0.23715 0.72994 0.6568 0.0
C2384 C 0.27649 0.70932 0.71908 0.0
C2385 C 0.26056 0.71073 0.68529 0.0
C2386 C 0.29033 0.7008 0.73201 0.0
C2387 C 0.30152 0.68427 0.72593 0.0
C2388 C 0.27382 0.70112 0.70003 0.0
C2389 C 0.2981 0.67619 0.70706 0.0
C2390 C 0.2531 0.69995 0.66905 0.0
C2391 C 0.24487 0.74023 0.67324 0.0
N2392 N 0.2845 0.68469 0.69472 0.0
N2393 N 0.25619 0.73049 0.68693 0.0
H2394 H 0.9473 0.04073 0.98675 0.0
H2395 H 0.92775 0.97769 0.08557 0.0
H2396 H 0.90182 0.0562 0.02911 0.0
H2397 H 0.98581 0.9852 0.05906 0.0
H2398 H 0.91354 0.999 0.05955 0.0
H2399 H 0.95646 0.01201 0.00748 0.0
C2400 C 0.9387 0.03745 0.0 0.0
C2401 C 0.92363 0.05043 0.00623 0.0
C2402 C 0.92934 0.9958 0.05938 0.0
C2403 C 0.93418 0.01827 0.03007 0.0
C2404 C 0.93745 0.98371 0.07417 0.0
C2405 C 0.95799 0.97998 0.07453 0.0
C2406 C 0.94182 0.0038 0.04468 0.0
C2407 C 0.96994 0.98803 0.05943 0.0
C2408 C 0.94408 0.02135 0.01192 0.0
C2409 C 0.91329 0.0462 0.02381 0.0
N2410 N 0.96166 -0.00041 0.04507 0.0
N2411 N 0.91884 0.03049 0.03526 0.0
H2412 H 0.68918 0.21694 0.76335 0.0
H2413 H 0.76577 0.18852 0.84986 0.0
H2414 H 0.69289 0.15784 0.78768 0.0
H2415 H 0.74732 0.24848 0.8361 0.0
H2416 H 0.74395 0.17609 0.82335 0.0
H2417 H 0.71606 0.22764 0.78546 0.0
C2418 C 0.69605 0.20617 0.77317 0.0
C2419 C 0.68898 0.18658 0.77388 0.0
C2420 C 0.74477 0.19195 0.82612 0.0
C2421 C 0.71935 0.19862 0.79943 0.0
C2422 C 0.75719 0.19906 0.84121 0.0
C2423 C 0.75821 0.21955 0.84525 0.0
C2424 C 0.73353 0.20547 0.81486 0.0
C2425 C 0.74683 0.23256 0.8336 0.0
C2426 C 0.71123 0.21225 0.78586 0.0
C2427 C 0.69815 0.17304 0.78677 0.0
N2428 N 0.73498 0.2253 0.81893 0.0
N2429 N 0.71282 0.17937 0.79926 0.0
H2430 H 0.72819 0.81396 0.33442 0.0
H2431 H 0.7994 0.78486 0.24363 0.0
H2432 H 0.74204 0.75342 0.31797 0.0
H2433 H 0.80492 0.8401 0.2755 0.0
H2434 H 0.77124 0.77555 0.26505 0.0
H2435 H 0.74996 0.82584 0.30763 0.0
C2436 C 0.73573 0.80318 0.32508 0.0
C2437 C 0.73354 0.78269 0.32849 0.0
C2438 C 0.77829 0.78991 0.26707 0.0
C2439 C 0.75806 0.79615 0.29776 0.0
C2440 C 0.79409 0.79528 0.25473 0.0
C2441 C 0.80407 0.81333 0.25779 0.0
C2442 C 0.77252 0.80274 0.28253 0.0
C2443 C 0.79724 0.82623 0.27263 0.0
C2444 C 0.74811 0.80997 0.30985 0.0
C2445 C 0.74356 0.76934 0.31597 0.0
N2446 N 0.78189 0.82064 0.28461 0.0
N2447 N 0.75541 0.77632 0.30112 0.0
H2448 H 0.17469 0.06835 0.28142 0.0
H2449 H 0.08743 0.06015 0.36121 0.0
H2450 H 0.17164 0.10508 0.33419 0.0
H2451 H 0.07776 0.0458 0.29936 0.0
H2452 H 0.12085 0.07199 0.35288 0.0
H2453 H 0.14114 0.05604 0.2887 0.0
C2454 C 0.16702 0.07396 0.29445 0.0
C2455 C 0.17626 0.08772 0.30727 0.0
C2456 C 0.11144 0.06621 0.34113 0.0
C2457 C 0.13803 0.07321 0.3159 0.0
C2458 C 0.09245 0.05929 0.3459 0.0
C2459 C 0.07985 0.05195 0.33095 0.0
C2460 C 0.11804 0.06555 0.32131 0.0
C2461 C 0.087 0.05145 0.3113 0.0
C2462 C 0.1479 0.06681 0.29862 0.0
C2463 C 0.16552 0.09412 0.32409 0.0
N2464 N 0.10569 0.05807 0.30703 0.0
N2465 N 0.14711 0.08671 0.32797 0.0
H2466 H 0.19244 0.8357 0.55746 0.0
H2467 H 0.17588 0.94877 0.5896 0.0
H2468 H 0.1902 0.85491 0.61885 0.0
H2469 H 0.1531 0.92489 0.53438 0.0
H2470 H 0.1877 0.91564 0.59857 0.0
H2471 H 0.18418 0.86953 0.54705 0.0
C2472 C 0.19017 0.84691 0.56881 0.0
C2473 C 0.19182 0.84219 0.58916 0.0
C2474 C 0.18018 0.91771 0.58446 0.0
C2475 C 0.18294 0.8812 0.57714 0.0
C2476 C 0.17332 0.93661 0.57932 0.0
C2477 C 0.1631 0.9397 0.56131 0.0
C2478 C 0.17713 0.90171 0.57141 0.0
C2479 C 0.16093 0.92337 0.54837 0.0
C2480 C 0.18558 0.86628 0.56278 0.0
C2481 C 0.18933 0.85771 0.60301 0.0
N2482 N 0.16781 0.90507 0.55371 0.0
N2483 N 0.18501 0.87646 0.59675 0.0
H2484 H 0.33766 0.87705 0.81065 0.0
H2485 H 0.41069 0.96538 0.84284 0.0
H2486 H 0.32131 0.93915 0.8074 0.0
H2487 H 0.43044 0.90507 0.83288 0.0
H2488 H 0.37734 0.95587 0.83157 0.0
H2489 H 0.37136 0.88686 0.82001 0.0
C2490 C 0.34114 0.89275 0.8117 0.0
C2491 C 0.32647 0.90725 0.80824 0.0
C2492 C 0.389 0.94474 0.83178 0.0
C2493 C 0.3651 0.9186 0.8194 0.0
C2494 C 0.408 0.95013 0.83832 0.0
C2495 C 0.42338 0.93599 0.83882 0.0
C2496 C 0.38526 0.92501 0.82588 0.0
C2497 C 0.41909 0.9165 0.83256 0.0
C2498 C 0.36041 0.89834 0.81718 0.0
C2499 C 0.33192 0.92738 0.81026 0.0
N2500 N 0.40043 0.91157 0.82646 0.0
N2501 N 0.35074 0.93243 0.81578 0.0
H2502 H 0.32118 0.06879 0.07582 0.0
H2503 H 0.34261 0.185 0.07248 0.0
H2504 H 0.3681 0.09401 0.03991 0.0
H2505 H 0.28472 0.16093 0.08711 0.0
H2506 H 0.35345 0.1518 0.06264 0.0
H2507 H 0.30906 0.10244 0.08299 0.0
C2508 C 0.32895 0.08145 0.06951 0.0
C2509 C 0.34567 0.07867 0.0573 0.0
C2510 C 0.33834 0.15385 0.06789 0.0
C2511 C 0.33195 0.11711 0.06544 0.0
C2512 C 0.33204 0.17286 0.0734 0.0
C2513 C 0.31266 0.17594 0.08074 0.0
C2514 C 0.32533 0.13765 0.06999 0.0
C2515 C 0.29991 0.15936 0.08197 0.0
C2516 C 0.32195 0.1006 0.07348 0.0
C2517 C 0.35508 0.09553 0.04931 0.0
N2518 N 0.30652 0.14094 0.07682 0.0
N2519 N 0.34819 0.11407 0.05364 0.0
H2520 H 0.06103 0.9033 0.14777 0.0
H2521 H 0.16926 0.94299 0.17812 0.0
H2522 H 0.07654 0.96567 0.14807 0.0
H2523 H 0.15373 0.88086 0.17242 0.0
H2524 H 0.13546 0.95192 0.16784 0.0
H2525 H 0.09485 0.89516 0.15787 0.0
C2526 C 0.07153 0.91533 0.15011 0.0
C2527 C 0.06587 0.93523 0.14721 0.0
C2528 C 0.13948 0.93634 0.16885 0.0
C2529 C 0.10488 0.92594 0.15857 0.0
C2530 C 0.15881 0.93122 0.17462 0.0
C2531 C 0.16439 0.91111 0.17619 0.0
C2532 C 0.12562 0.92126 0.16463 0.0
C2533 C 0.15007 0.89653 0.17175 0.0
C2534 C 0.09092 0.91064 0.15575 0.0
C2535 C 0.08029 0.95012 0.15003 0.0
N2536 N 0.1314 0.9019 0.16619 0.0
N2537 N 0.09913 0.94518 0.15562 0.0
H2538 H 0.33132 0.81008 0.43893 0.0
H2539 H 0.32463 0.92539 0.41408 0.0
H2540 H 0.28934 0.83402 0.39672 0.0
H2541 H 0.34964 0.90357 0.46917 0.0
H2542 H 0.31292 0.89188 0.40658 0.0
H2543 H 0.33951 0.84401 0.44955 0.0
C2544 C 0.32369 0.82251 0.43206 0.0
C2545 C 0.30966 0.81929 0.41693 0.0
C2546 C 0.32088 0.89446 0.42036 0.0
C2547 C 0.31915 0.85808 0.42874 0.0
C2548 C 0.32754 0.91365 0.42473 0.0
C2549 C 0.33819 0.91748 0.44234 0.0
C2550 C 0.3251 0.87881 0.43351 0.0
C2551 C 0.34184 0.9014 0.45524 0.0
C2552 C 0.32834 0.84184 0.43813 0.0
C2553 C 0.30014 0.83587 0.40854 0.0
N2554 N 0.33542 0.88278 0.45052 0.0
N2555 N 0.30524 0.85458 0.41439 0.0
H2556 H 0.34057 0.10272 0.72108 0.0
H2557 H 0.41124 0.02288 0.66816 0.0
H2558 H 0.31823 0.05722 0.68166 0.0
H2559 H 0.43141 0.08143 0.68574 0.0
H2560 H 0.37761 0.03184 0.67873 0.0
H2561 H 0.37463 0.09135 0.71425 0.0
C2562 C 0.34284 0.09017 0.7112 0.0
C2563 C 0.32661 0.08092 0.70186 0.0
C2564 C 0.38948 0.04264 0.68035 0.0
C2565 C 0.3654 0.06785 0.69403 0.0
C2566 C 0.40873 0.0376 0.6742 0.0
C2567 C 0.42439 0.05144 0.67582 0.0
C2568 C 0.38583 0.06153 0.68847 0.0
C2569 C 0.42006 0.07009 0.68438 0.0
C2570 C 0.36225 0.08378 0.70722 0.0
C2571 C 0.33038 0.06484 0.68903 0.0
N2572 N 0.40124 0.07457 0.69034 0.0
N2573 N 0.34938 0.05879 0.6855 0.0
H2574 H 0.22013 0.15786 0.9056 0.0
H2575 H 0.13338 0.09322 0.9553 0.0
H2576 H 0.16412 0.18312 0.92472 0.0
H2577 H 0.17937 0.06771 0.91841 0.0
H2578 H 0.14666 0.12646 0.94817 0.0
H2579 H 0.20759 0.12482 0.91416 0.0
C2580 C 0.20521 0.15655 0.91156 0.0
C2581 C 0.19317 0.17347 0.91427 0.0
C2582 C 0.15382 0.11358 0.94163 0.0
C2583 C 0.17888 0.13554 0.92447 0.0
C2584 C 0.14631 0.09463 0.94575 0.0
C2585 C 0.15526 0.0777 0.93738 0.0
C2586 C 0.17059 0.11562 0.92927 0.0
C2587 C 0.17189 0.08038 0.92498 0.0
C2588 C 0.1981 0.13764 0.91651 0.0
C2589 C 0.17412 0.17068 0.92257 0.0
N2590 N 0.17908 0.09897 0.92138 0.0
N2591 N 0.16759 0.15212 0.92734 0.0
H2592 H 0.08359 0.33676 0.18897 0.0
H2593 H 0.05661 0.30434 0.07754 0.0
H2594 H 0.08244 0.27548 0.16961 0.0
H2595 H 0.06661 0.36517 0.09584 0.0
H2596 H 0.06397 0.29336 0.11142 0.0
H2597 H 0.07485 0.34722 0.15539 0.0
C2598 C 0.08128 0.32545 0.1777 0.0
C2599 C 0.08366 0.30517 0.1822 0.0
C2600 C 0.06455 0.30911 0.10801 0.0
C2601 C 0.0739 0.31715 0.14345 0.0
C2602 C 0.06046 0.31541 0.08861 0.0
C2603 C 0.06108 0.33576 0.08371 0.0
C2604 C 0.0692 0.32323 0.1227 0.0
C2605 C 0.06571 0.34938 0.09889 0.0
C2606 C 0.07645 0.33148 0.15845 0.0
C2607 C 0.0809 0.29128 0.16681 0.0
N2608 N 0.0696 0.34287 0.11765 0.0
N2609 N 0.07614 0.29752 0.14812 0.0
H2610 H 0.58576 0.17701 0.93741 0.0
H2611 H 0.56406 0.17344 0.82135 0.0
H2612 H 0.52764 0.16246 0.91389 0.0
H2613 H 0.61063 0.20985 0.84644 0.0
H2614 H 0.55181 0.16649 0.85504 0.0
H2615 H 0.59629 0.18692 0.90415 0.0
C2616 C 0.57505 0.17612 0.9254 0.0
C2617 C 0.55569 0.16882 0.92869 0.0
C2618 C 0.56464 0.17609 0.85316 0.0
C2619 C 0.56805 0.17963 0.89025 0.0
C2620 C 0.57169 0.17995 0.83397 0.0
C2621 C 0.58838 0.19221 0.83114 0.0
C2622 C 0.57456 0.18425 0.86965 0.0
C2623 C 0.59763 0.20042 0.84798 0.0
C2624 C 0.5812 0.18167 0.90633 0.0
C2625 C 0.54281 0.16759 0.9122 0.0
N2626 N 0.59071 0.19615 0.86654 0.0
N2627 N 0.54928 0.17277 0.89371 0.0
H2628 H 0.91605 0.83719 0.31773 0.0
H2629 H 0.92595 0.80579 0.43237 0.0
H2630 H 0.89712 0.78016 0.34053 0.0
H2631 H 0.94176 0.86376 0.40954 0.0
H2632 H 0.917 0.79538 0.39864 0.0
H2633 H 0.92733 0.84638 0.35101 0.0
C2634 C 0.91438 0.82653 0.32971 0.0
C2635 C 0.90559 0.80787 0.32628 0.0
C2636 C 0.92252 0.81035 0.40101 0.0
C2637 C 0.91834 0.81839 0.3646 0.0
C2638 C 0.92758 0.81633 0.42028 0.0
C2639 C 0.93457 0.83573 0.42386 0.0
C2640 C 0.92444 0.82385 0.38515 0.0
C2641 C 0.93668 0.8486 0.40752 0.0
C2642 C 0.92074 0.83183 0.34876 0.0
C2643 C 0.90355 0.79481 0.3425 0.0
N2644 N 0.93155 0.84247 0.38893 0.0
N2645 N 0.90987 0.80032 0.36094 0.0
H2646 H 0.90235 0.21241 0.15709 0.0
H2647 H 0.92996 0.11958 0.08844 0.0
H2648 H 0.91143 0.1534 0.18069 0.0
H2649 H 0.94364 0.18024 0.07189 0.0
H2650 H 0.91974 0.13137 0.1213 0.0
H2651 H 0.91344 0.20055 0.12433 0.0
C2652 C 0.90658 0.19695 0.15533 0.0
C2653 C 0.90604 0.18386 0.17159 0.0
C2654 C 0.92503 0.14205 0.11044 0.0
C2655 C 0.91862 0.17021 0.13428 0.0
C2656 C 0.93101 0.13533 0.09168 0.0
C2657 C 0.93763 0.14888 0.07716 0.0
C2658 C 0.9254 0.16251 0.11472 0.0
C2659 C 0.93824 0.1692 0.0823 0.0
C2660 C 0.91302 0.19022 0.13671 0.0
C2661 C 0.91182 0.164 0.16855 0.0
N2662 N 0.93208 0.17539 0.10057 0.0
N2663 N 0.91777 0.15775 0.15025 0.0
H2664 H 0.42348 0.71011 0.67113 0.0
H2665 H 0.41094 0.63614 0.57822 0.0
H2666 H 0.38223 0.66086 0.66944 0.0
H2667 H 0.4571 0.68076 0.58138 0.0
H2668 H 0.39922 0.6464 0.61101 0.0
H2669 H 0.43489 0.70112 0.63757 0.0
C2670 C 0.41675 0.69749 0.66366 0.0
C2671 C 0.40199 0.68613 0.67317 0.0
C2672 C 0.41191 0.65398 0.60457 0.0
C2673 C 0.41499 0.67573 0.63488 0.0
C2674 C 0.41855 0.6482 0.58576 0.0
C2675 C 0.43499 0.65765 0.57697 0.0
C2676 C 0.42171 0.66941 0.61475 0.0
C2677 C 0.44447 0.67294 0.58766 0.0
C2678 C 0.42334 0.6923 0.64458 0.0
C2679 C 0.39388 0.66985 0.66285 0.0
N2680 N 0.43766 0.67839 0.60597 0.0
N2681 N 0.40048 0.66516 0.64432 0.0
H2682 H 0.02632 0.67404 0.40467 0.0
H2683 H 0.11573 0.70526 0.33199 0.0
H2684 H 0.08739 0.68134 0.42338 0.0
H2685 H 0.05545 0.69611 0.31164 0.0
H2686 H 0.10485 0.69875 0.36598 0.0
H2687 H 0.03602 0.68384 0.37091 0.0
C2688 C 0.04174 0.67773 0.40174 0.0
C2689 C 0.05603 0.67685 0.41699 0.0
C2690 C 0.09395 0.69824 0.35412 0.0
C2691 C 0.0672 0.6882 0.37835 0.0
C2692 C 0.10014 0.70211 0.33467 0.0
C2693 C 0.08651 0.70124 0.31885 0.0
C2694 C 0.07395 0.69339 0.3579 0.0
C2695 C 0.06656 0.69669 0.3233 0.0
C2696 C 0.04725 0.68341 0.38246 0.0
C2697 C 0.07575 0.68208 0.41227 0.0
N2698 N 0.06089 0.69289 0.34239 0.0
N2699 N 0.08073 0.68744 0.39342 0.0
H2700 H 0.38343 0.32504 0.83397 0.0
H2701 H 0.46664 0.33146 0.91812 0.0
H2702 H 0.44477 0.30966 0.82276 0.0
H2703 H 0.41181 0.36502 0.92027 0.0
H2704 H 0.45828 0.32077 0.88436 0.0
H2705 H 0.39274 0.33675 0.86715 0.0
C2706 C 0.39886 0.32405 0.83856 0.0
C2707 C 0.41336 0.31633 0.82565 0.0
C2708 C 0.44814 0.33053 0.89225 0.0
C2709 C 0.42412 0.32972 0.86357 0.0
C2710 C 0.45293 0.33674 0.91151 0.0
C2711 C 0.4399 0.34915 0.92222 0.0
C2712 C 0.43008 0.33655 0.88367 0.0
C2713 C 0.42216 0.35514 0.91287 0.0
C2714 C 0.40418 0.33086 0.85743 0.0
C2715 C 0.43318 0.31563 0.83223 0.0
N2716 N 0.41775 0.3487 0.89422 0.0
N2717 N 0.43797 0.32212 0.85081 0.0
H2718 H 0.57795 0.59526 0.86453 0.0
H2719 H 0.66926 0.5702 0.79179 0.0
H2720 H 0.57783 0.54576 0.82352 0.0
H2721 H 0.66925 0.6185 0.83419 0.0
H2722 H 0.63535 0.56165 0.80217 0.0
H2723 H 0.61104 0.60449 0.85273 0.0
C2724 C 0.58482 0.58639 0.85294 0.0
C2725 C 0.57502 0.56972 0.84497 0.0
C2726 C 0.64277 0.57413 0.80918 0.0
C2727 C 0.61314 0.58013 0.8315 0.0
C2728 C 0.66209 0.57909 0.80317 0.0
C2729 C 0.67219 0.59502 0.81221 0.0
C2730 C 0.63345 0.58521 0.82429 0.0
C2731 C 0.6622 0.60589 0.82703 0.0
C2732 C 0.60379 0.59162 0.84628 0.0
C2733 C 0.58488 0.5586 0.83024 0.0
N2734 N 0.64344 0.60078 0.83261 0.0
N2735 N 0.60338 0.56401 0.82396 0.0
H2736 H 0.67646 0.43103 0.08374 0.0
H2737 H 0.65673 0.31391 0.08256 0.0
H2738 H 0.63011 0.40361 0.04873 0.0
H2739 H 0.71102 0.34024 0.10485 0.0
H2740 H 0.64593 0.34667 0.07133 0.0
H2741 H 0.68833 0.39798 0.09326 0.0
C2742 C 0.66875 0.41802 0.07811 0.0
C2743 C 0.65222 0.42005 0.06549 0.0
C2744 C 0.66024 0.34526 0.0786 0.0
C2745 C 0.66576 0.38218 0.07627 0.0
C2746 C 0.66651 0.32651 0.08494 0.0
C2747 C 0.68487 0.3242 0.0947 0.0
C2748 C 0.6723 0.36194 0.08218 0.0
C2749 C 0.69662 0.34125 0.09771 0.0
C2750 C 0.67561 0.39917 0.08344 0.0
C2751 C 0.64297 0.40271 0.05838 0.0
N2752 N 0.6901 0.35939 0.09155 0.0
N2753 N 0.6498 0.38449 0.06397 0.0
H2754 H 0.81697 0.41655 0.34392 0.0
H2755 H 0.92518 0.44639 0.30384 0.0
H2756 H 0.83582 0.40654 0.28331 0.0
H2757 H 0.91021 0.44221 0.36626 0.0
H2758 H 0.89171 0.43481 0.29551 0.0
H2759 H 0.85013 0.42932 0.35175 0.0
C2760 C 0.82806 0.41717 0.33221 0.0
C2761 C 0.82359 0.41047 0.31292 0.0
C2762 C 0.89578 0.43647 0.31102 0.0
C2763 C 0.86169 0.42501 0.32182 0.0
C2764 C 0.91495 0.44299 0.31583 0.0
C2765 C 0.92071 0.44526 0.33584 0.0
C2766 C 0.88212 0.43229 0.32629 0.0
C2767 C 0.90649 0.44101 0.35063 0.0
C2768 C 0.84703 0.42435 0.33673 0.0
C2769 C 0.83866 0.41136 0.29842 0.0
N2770 N 0.88792 0.43475 0.34556 0.0
N2771 N 0.85701 0.41855 0.30315 0.0
H2772 H 0.79455 0.65156 0.61234 0.0
H2773 H 0.84928 0.58164 0.53417 0.0
H2774 H 0.8059 0.67004 0.55176 0.0
H2775 H 0.81934 0.55907 0.58644 0.0
H2776 H 0.83482 0.6144 0.54061 0.0
H2777 H 0.80486 0.61794 0.60357 0.0
C2778 C 0.79891 0.64859 0.59711 0.0
C2779 C 0.79929 0.66387 0.58281 0.0
C2780 C 0.83133 0.60222 0.55058 0.0
C2781 C 0.81173 0.62523 0.57282 0.0
C2782 C 0.8395 0.58343 0.54686 0.0
C2783 C 0.83571 0.56745 0.55985 0.0
C2784 C 0.81944 0.60518 0.56753 0.0
C2785 C 0.82312 0.57094 0.57623 0.0
C2786 C 0.80495 0.62933 0.59216 0.0
C2787 C 0.80566 0.65896 0.56345 0.0
N2788 N 0.81561 0.58941 0.57968 0.0
N2789 N 0.81176 0.64014 0.55907 0.0
H2790 H 0.66055 0.38233 0.69422 0.0
H2791 H 0.59181 0.47528 0.66619 0.0
H2792 H 0.68139 0.44314 0.69654 0.0
H2793 H 0.56946 0.41569 0.67508 0.0
H2794 H 0.62496 0.46393 0.67628 0.0
H2795 H 0.62728 0.3944 0.68644 0.0
C2796 C 0.65814 0.39824 0.6933 0.0
C2797 C 0.67391 0.4117 0.69612 0.0
C2798 C 0.61277 0.45338 0.67613 0.0
C2799 C 0.6357 0.42565 0.68677 0.0
C2800 C 0.59387 0.45982 0.67029 0.0
C2801 C 0.57782 0.44641 0.66978 0.0
C2802 C 0.6157 0.43333 0.68132 0.0
C2803 C 0.58132 0.4266 0.67546 0.0
C2804 C 0.6391 0.40512 0.68872 0.0
C2805 C 0.66983 0.43215 0.69423 0.0
N2806 N 0.59987 0.42065 0.68087 0.0
N2807 N 0.65115 0.43849 0.68963 0.0
H2808 H 0.86504 0.40633 0.95593 0.0
H2809 H 0.77576 0.33498 0.92148 0.0
H2810 H 0.80535 0.42719 0.94451 0.0
H2811 H 0.83618 0.31504 0.93056 0.0
H2812 H 0.78566 0.36838 0.9321 0.0
H2813 H 0.85397 0.37231 0.94942 0.0
C2814 C 0.84954 0.40375 0.95231 0.0
C2815 C 0.83615 0.41972 0.95069 0.0
C2816 C 0.79672 0.35666 0.93188 0.0
C2817 C 0.8234 0.38071 0.94289 0.0
C2818 C 0.7911 0.33758 0.92571 0.0
C2819 C 0.80515 0.3221 0.92502 0.0
C2820 C 0.81656 0.36037 0.93738 0.0
C2821 C 0.82474 0.32637 0.93105 0.0
C2822 C 0.84325 0.3843 0.94844 0.0
C2823 C 0.81629 0.41542 0.94563 0.0
N2824 N 0.82986 0.34507 0.93686 0.0
N2825 N 0.81055 0.39636 0.94184 0.0
H2826 H 0.92725 0.5362 0.17245 0.0
H2827 H 0.83295 0.60711 0.15473 0.0
H2828 H 0.92451 0.58182 0.12731 0.0
H2829 H 0.83641 0.5647 0.20285 0.0
H2830 H 0.86608 0.597 0.14383 0.0
H2831 H 0.89348 0.54518 0.18301 0.0
C2832 C 0.9195 0.54801 0.16469 0.0
C2833 C 0.92878 0.55836 0.14906 0.0
C2834 C 0.85963 0.58988 0.15678 0.0
C2835 C 0.89023 0.56881 0.16114 0.0
C2836 C 0.84064 0.59558 0.16296 0.0
C2837 C 0.83183 0.58669 0.17969 0.0
C2838 C 0.86996 0.57511 0.16737 0.0
C2839 C 0.84269 0.57208 0.18997 0.0
C2840 C 0.90029 0.55321 0.1708 0.0
C2841 C 0.9181 0.57365 0.13964 0.0
N2842 N 0.86117 0.5667 0.18362 0.0
N2843 N 0.89944 0.5784 0.14583 0.0
H2844 H 0.69631 0.5805 0.44755 0.0
H2845 H 0.65935 0.67819 0.39119 0.0
H2846 H 0.63491 0.59236 0.43299 0.0
H2847 H 0.71494 0.67698 0.42346 0.0
H2848 H 0.65198 0.64488 0.40314 0.0
H2849 H 0.70516 0.61402 0.43574 0.0
C2850 C 0.68472 0.59015 0.44186 0.0
C2851 C 0.66483 0.58368 0.4413 0.0
C2852 C 0.66577 0.6519 0.40769 0.0
C2853 C 0.67484 0.62181 0.42768 0.0
C2854 C 0.66997 0.67104 0.40096 0.0
C2855 C 0.68765 0.68071 0.40662 0.0
C2856 C 0.67942 0.64203 0.42 0.0
C2857 C 0.70114 0.67017 0.41869 0.0
C2858 C 0.68976 0.60926 0.43522 0.0
C2859 C 0.65038 0.59681 0.4339 0.0
N2860 N 0.69673 0.65139 0.42501 0.0
N2861 N 0.65569 0.61516 0.42729 0.0
H2862 H 0.58488 0.77746 0.65815 0.0
H2863 H 0.55636 0.87027 0.58923 0.0
H2864 H 0.57822 0.8376 0.67982 0.0
H2865 H 0.55476 0.80942 0.56847 0.0
H2866 H 0.56462 0.85836 0.62244 0.0
H2867 H 0.57449 0.78868 0.62505 0.0
C2868 C 0.58124 0.79301 0.65595 0.0
C2869 C 0.58242 0.80661 0.67181 0.0
C2870 C 0.56239 0.84758 0.61065 0.0
C2871 C 0.57048 0.81952 0.634 0.0
C2872 C 0.55753 0.85438 0.59166 0.0
C2873 C 0.55479 0.84086 0.57593 0.0
C2874 C 0.56469 0.82709 0.61405 0.0
C2875 C 0.55699 0.82044 0.58001 0.0
C2876 C 0.57521 0.79938 0.63708 0.0
C2877 C 0.5773 0.82653 0.66813 0.0
N2878 N 0.56185 0.81419 0.59865 0.0
N2879 N 0.57165 0.83239 0.64963 0.0
H2880 H 0.92418 0.17799 0.29181 0.0
H2881 H 0.95724 0.06622 0.31539 0.0
H2882 H 0.89878 0.12638 0.26305 0.0
H2883 H 0.98783 0.11776 0.33871 0.0
H2884 H 0.93574 0.08813 0.29609 0.0
H2885 H 0.94752 0.1563 0.30927 0.0
C2886 C 0.92349 0.1621 0.28916 0.0
C2887 C 0.90944 0.15398 0.27598 0.0
C2888 C 0.94721 0.09467 0.30535 0.0
C2889 C 0.93613 0.12908 0.29594 0.0
C2890 C 0.9595 0.08216 0.3164 0.0
C2891 C 0.97432 0.09018 0.32876 0.0
C2892 C 0.94962 0.11538 0.30674 0.0
C2893 C 0.9766 0.11094 0.32937 0.0
C2894 C 0.93688 0.14973 0.2991 0.0
C2895 C 0.90933 0.1333 0.27308 0.0
N2896 N 0.96429 0.12284 0.31861 0.0
N2897 N 0.92242 0.12156 0.28304 0.0
H2898 H 0.18033 0.71858 0.57024 0.0
H2899 H 0.07171 0.6811 0.53886 0.0
H2900 H 0.12591 0.74333 0.5939 0.0
H2901 H 0.12555 0.66214 0.50924 0.0
H2902 H 0.09144 0.70348 0.5596 0.0
H2903 H 0.16066 0.69745 0.54812 0.0
C2904 C 0.16425 0.71966 0.57074 0.0
C2905 C 0.15477 0.73277 0.58399 0.0
C2906 C 0.09895 0.69447 0.54854 0.0
C2907 C 0.13214 0.70847 0.55876 0.0
C2908 C 0.08769 0.68162 0.53671 0.0
C2909 C 0.097 0.66966 0.52229 0.0
C2910 C 0.1197 0.69532 0.54607 0.0
C2911 C 0.11774 0.67108 0.52015 0.0
C2912 C 0.15302 0.70757 0.55809 0.0
C2913 C 0.13388 0.73348 0.58394 0.0
N2914 N 0.1284 0.68361 0.53195 0.0
N2915 N 0.12328 0.72144 0.5716 0.0
H2916 H 0.5459 0.92619 0.82765 0.0
H2917 H 0.57516 0.81532 0.79554 0.0
H2918 H 0.51776 0.8737 0.85191 0.0
H2919 H 0.5982 0.868 0.76674 0.0
H2920 H 0.55455 0.8364 0.81682 0.0
H2921 H 0.56569 0.90506 0.80576 0.0
C2922 C 0.54386 0.91022 0.82839 0.0
C2923 C 0.53013 0.90171 0.84168 0.0
C2924 C 0.56408 0.84335 0.80582 0.0
C2925 C 0.55285 0.87739 0.81662 0.0
C2926 C 0.5759 0.83133 0.79367 0.0
C2927 C 0.58847 0.83991 0.77933 0.0
C2928 C 0.56491 0.86413 0.80371 0.0
C2929 C 0.58873 0.86073 0.77757 0.0
C2930 C 0.55517 0.89815 0.81584 0.0
C2931 C 0.52814 0.88091 0.8419 0.0
N2932 N 0.57717 0.87212 0.78965 0.0
N2933 N 0.53942 0.86946 0.8296 0.0
H2934 H 0.40372 0.31279 0.00447 0.0
H2935 H 0.3744 0.27747 0.11228 0.0
H2936 H 0.42669 0.34323 0.05615 0.0
H2937 H 0.3295 0.28191 0.06663 0.0
H2938 H 0.39758 0.29582 0.09068 0.0
H2939 H 0.37965 0.2954 0.02597 0.0
C2940 C 0.40367 0.31578 0.02032 0.0
C2941 C 0.41705 0.32949 0.0286 0.0
C2942 C 0.38262 0.29279 0.08549 0.0
C2943 C 0.39014 0.30946 0.05309 0.0
C2944 C 0.36947 0.28231 0.09771 0.0
C2945 C 0.35004 0.2784 0.09122 0.0
C2946 C 0.37641 0.29879 0.06648 0.0
C2947 C 0.3443 0.28492 0.07224 0.0
C2948 C 0.38996 0.30595 0.0325 0.0
C2949 C 0.41645 0.33289 0.0492 0.0
N2950 N 0.35753 0.29464 0.06038 0.0
N2951 N 0.40336 0.32275 0.06082 0.0
H2952 H 0.91989 0.81211 0.2014 0.0
H2953 H 0.94482 0.92125 0.16089 0.0
H2954 H 0.89673 0.86598 0.22779 0.0
H2955 H 0.97026 0.8675 0.13639 0.0
H2956 H 0.92741 0.90128 0.18573 0.0
H2957 H 0.93898 0.83219 0.17795 0.0
C2958 C 0.91887 0.82817 0.20235 0.0
C2959 C 0.9066 0.83737 0.21657 0.0
C2960 C 0.93682 0.89385 0.17494 0.0
C2961 C 0.92839 0.86047 0.18961 0.0
C2962 C 0.94674 0.90524 0.16069 0.0
C2963 C 0.95901 0.89603 0.14647 0.0
C2964 C 0.93909 0.87307 0.17496 0.0
C2965 C 0.96095 0.87524 0.14704 0.0
C2966 C 0.92979 0.83963 0.18891 0.0
C2967 C 0.90597 0.85824 0.21708 0.0
N2968 N 0.95106 0.86446 0.16103 0.0
N2969 N 0.91663 0.86909 0.20373 0.0
H2970 H 0.41302 0.64073 0.45529 0.0
H2971 H 0.35271 0.73267 0.40998 0.0
H2972 H 0.41948 0.70091 0.47701 0.0
H2973 H 0.34037 0.6711 0.39611 0.0
H2974 H 0.37926 0.72189 0.43243 0.0
H2975 H 0.38809 0.65219 0.43172 0.0
C2976 C 0.40917 0.65639 0.45513 0.0
C2977 C 0.41834 0.6699 0.46817 0.0
C2978 C 0.37079 0.71077 0.42439 0.0
C2979 C 0.38976 0.68314 0.44106 0.0
C2980 C 0.35572 0.7169 0.41148 0.0
C2981 C 0.34428 0.70273 0.40119 0.0
C2982 C 0.37448 0.69036 0.42693 0.0
C2983 C 0.34876 0.68252 0.40379 0.0
C2984 C 0.39491 0.66292 0.44164 0.0
C2985 C 0.41269 0.68999 0.4673 0.0
N2986 N 0.36348 0.67695 0.41643 0.0
N2987 N 0.39877 0.69603 0.4539 0.0
H2988 H 0.52203 0.12228 0.64324 0.0
H2989 H 0.55832 0.15345 0.74967 0.0
H2990 H 0.52876 0.07727 0.6885 0.0
H2991 H 0.59002 0.17426 0.69783 0.0
H2992 H 0.54093 0.12894 0.72866 0.0
H2993 H 0.54065 0.14572 0.66438 0.0
C2994 C 0.52738 0.1174 0.65766 0.0
C2995 C 0.52405 0.09787 0.66417 0.0
C2996 C 0.55177 0.13886 0.722 0.0
C2997 C 0.54474 0.1245 0.68836 0.0
C2998 C 0.56161 0.1528 0.73388 0.0
C2999 C 0.57566 0.16571 0.72541 0.0
C3000 C 0.55557 0.13838 0.70146 0.0
C3001 C 0.57942 0.16438 0.7049 0.0
C3002 C 0.53802 0.13068 0.66959 0.0
C3003 C 0.53127 0.09217 0.68292 0.0
N3004 N 0.56921 0.15112 0.69353 0.0
N3005 N 0.5411 0.10553 0.69452 0.0
H3006 H 0.18169 0.29625 0.922 0.0
H3007 H 0.07087 0.3181 0.95969 0.0
H3008 H 0.13067 0.2619 0.90324 0.0
H3009 H 0.12323 0.34549 0.98505 0.0
H3010 H 0.0923 0.29796 0.93822 0.0
H3011 H 0.16027 0.31517 0.94438 0.0
C3012 C 0.16599 0.29265 0.92258 0.0
C3013 C 0.15799 0.27741 0.91071 0.0
C3014 C 0.09909 0.30832 0.94855 0.0
C3015 C 0.13331 0.29914 0.93632 0.0
C3016 C 0.08687 0.31984 0.96081 0.0
C3017 C 0.09527 0.33353 0.97419 0.0
C3018 C 0.11986 0.31061 0.94956 0.0
C3019 C 0.11609 0.33512 0.97499 0.0
C3020 C 0.15375 0.30346 0.93541 0.0
C3021 C 0.1375 0.27348 0.91212 0.0
N3022 N 0.12765 0.32387 0.96278 0.0
N3023 N 0.12586 0.28432 0.92465 0.0
H3024 H 0.27466 0.93592 0.16721 0.0
H3025 H 0.3407 0.94592 0.07047 0.0
H3026 H 0.27352 0.89115 0.12114 0.0
H3027 H 0.31007 0.99718 0.09418 0.0
H3028 H 0.32205 0.92461 0.09348 0.0
H3029 H 0.29349 0.95791 0.14477 0.0
C3030 C 0.27846 0.93072 0.15242 0.0
C3031 C 0.27255 0.91176 0.14592 0.0
C3032 C 0.31949 0.94054 0.09364 0.0
C3033 C 0.29421 0.93651 0.12058 0.0
C3034 C 0.33017 0.95269 0.08065 0.0
C3035 C 0.32685 0.9733 0.08048 0.0
C3036 C 0.3058 0.94912 0.10685 0.0
C3037 C 0.31294 0.98132 0.09384 0.0
C3038 C 0.28906 0.94327 0.13966 0.0
C3039 C 0.27772 0.90572 0.12662 0.0
N3040 N 0.30299 0.96921 0.10667 0.0
N3041 N 0.28846 0.91799 0.11466 0.0
H3042 H 0.25615 0.05884 0.34939 0.0
H3043 H 0.36159 0.02498 0.38469 0.0
H3044 H 0.30841 0.0916 0.33136 0.0
H3045 H 0.31379 0.02749 0.42756 0.0
H3046 H 0.34129 0.04444 0.36144 0.0
H3047 H 0.276 0.04225 0.37528 0.0
C3048 C 0.27177 0.06258 0.35097 0.0
C3049 C 0.28072 0.07657 0.33832 0.0
C3050 C 0.33532 0.04076 0.37597 0.0
C3051 C 0.30336 0.05746 0.36734 0.0
C3052 C 0.34678 0.02959 0.38914 0.0
C3053 C 0.33927 0.02467 0.40798 0.0
C3054 C 0.31603 0.04651 0.38148 0.0
C3055 C 0.32008 0.03109 0.41315 0.0
C3056 C 0.28299 0.05321 0.36573 0.0
C3057 C 0.30096 0.08097 0.34093 0.0
N3058 N 0.30893 0.04149 0.39982 0.0
N3059 N 0.31172 0.07119 0.35497 0.0
H3060 H 0.15332 0.02506 0.5997 0.0
H3061 H 0.2154 0.11074 0.65391 0.0
H3062 H 0.15322 0.08658 0.58096 0.0
H3063 H 0.22107 0.04843 0.66859 0.0
H3064 H 0.19236 0.10208 0.62733 0.0
H3065 H 0.17726 0.03339 0.62568 0.0
C3066 C 0.15819 0.04037 0.60114 0.0
C3067 C 0.15122 0.05518 0.58813 0.0
C3068 C 0.19871 0.09026 0.63626 0.0
C3069 C 0.17879 0.06473 0.61776 0.0
C3070 C 0.21189 0.09519 0.65144 0.0
C3071 C 0.2201 0.08026 0.66353 0.0
C3072 C 0.19354 0.07027 0.63317 0.0
C3073 C 0.21513 0.06038 0.65957 0.0
C3074 C 0.17197 0.04507 0.61591 0.0
C3075 C 0.15816 0.0747 0.59066 0.0
N3076 N 0.20202 0.05595 0.64479 0.0
N3077 N 0.17158 0.0789 0.60518 0.0
H3078 H 0.1611 0.9444 0.92685 0.0
H3079 H 0.2178 0.93298 0.82472 0.0
H3080 H 0.18899 0.9955 0.89967 0.0
H3081 H 0.22394 0.88911 0.87122 0.0
H3082 H 0.20137 0.95536 0.84862 0.0
H3083 H 0.17823 0.9228 0.90294 0.0
C3084 C 0.17076 0.95106 0.91577 0.0
C3085 C 0.1737 0.97172 0.91518 0.0
C3086 C 0.20638 0.94083 0.85351 0.0
C3087 C 0.19296 0.9472 0.88774 0.0
C3088 C 0.2156 0.92806 0.83992 0.0
C3089 C 0.2222 0.90923 0.84609 0.0
C3090 C 0.20328 0.93444 0.87314 0.0
C3091 C 0.21914 0.90357 0.86595 0.0
C3092 C 0.18056 0.93874 0.90225 0.0
C3093 C 0.18646 0.97961 0.90063 0.0
N3094 N 0.20968 0.91605 0.87875 0.0
N3095 N 0.1955 0.96733 0.88728 0.0
H3096 H 0.67881 0.20298 0.08226 0.0
H3097 H 0.56876 0.17039 0.05168 0.0
H3098 H 0.62572 0.23068 0.10568 0.0
H3099 H 0.62103 0.15173 0.01916 0.0
H3100 H 0.58964 0.19125 0.07268 0.0
H3101 H 0.65815 0.1829 0.0601 0.0
C3102 C 0.66281 0.20488 0.08275 0.0
C3103 C 0.65398 0.21855 0.09589 0.0
C3104 C 0.59656 0.18266 0.06091 0.0
C3105 C 0.63025 0.19548 0.0706 0.0
C3106 C 0.58464 0.17068 0.0489 0.0
C3107 C 0.59314 0.15928 0.03356 0.0
C3108 C 0.6172 0.18316 0.05776 0.0
C3109 C 0.61383 0.16028 0.03077 0.0
C3110 C 0.65103 0.19342 0.07004 0.0
C3111 C 0.63318 0.22036 0.0958 0.0
N3112 N 0.62518 0.17196 0.04282 0.0
N3113 N 0.62202 0.20889 0.08342 0.0
H3114 H 0.07896 0.32194 0.30272 0.0
H3115 H 0.04111 0.43342 0.31866 0.0
H3116 H 0.10035 0.37216 0.2687 0.0
H3117 H 0.0148 0.38281 0.34833 0.0
H3118 H 0.06286 0.41108 0.30031 0.0
H3119 H 0.05566 0.34388 0.31988 0.0
C3120 C 0.07883 0.3376 0.2989 0.0
C3121 C 0.0917 0.34525 0.28427 0.0
C3122 C 0.0523 0.40481 0.31076 0.0
C3123 C 0.06496 0.37042 0.30385 0.0
C3124 C 0.03985 0.41758 0.3213 0.0
C3125 C 0.02618 0.40998 0.33518 0.0
C3126 C 0.05121 0.38424 0.31417 0.0
C3127 C 0.02513 0.38929 0.33778 0.0
C3128 C 0.06544 0.3501 0.30866 0.0
C3129 C 0.09074 0.36563 0.27988 0.0
N3130 N 0.0376 0.37712 0.32746 0.0
N3131 N 0.07762 0.37751 0.28967 0.0
H3132 H 0.86382 0.85574 0.51954 0.0
H3133 H 0.86549 0.76271 0.59412 0.0
H3134 H 0.91768 0.83157 0.54499 0.0
H3135 H 0.81159 0.79043 0.57274 0.0
H3136 H 0.88498 0.78678 0.57496 0.0
H3137 H 0.8445 0.83107 0.53798 0.0
C3138 C 0.87159 0.84529 0.52903 0.0
C3139 C 0.89241 0.84576 0.53071 0.0
C3140 C 0.86888 0.78755 0.57444 0.0
C3141 C 0.87036 0.81739 0.55182 0.0
C3142 C 0.85774 0.77377 0.58532 0.0
C3143 C 0.83687 0.77455 0.58507 0.0
C3144 C 0.85907 0.80219 0.56318 0.0
C3145 C 0.82765 0.78925 0.57342 0.0
C3146 C 0.86054 0.83118 0.53956 0.0
C3147 C 0.90165 0.83182 0.54326 0.0
N3148 N 0.8388 0.80249 0.56298 0.0
N3149 N 0.89057 0.81818 0.55329 0.0
H3150 H 0.1169 0.62857 0.21626 0.0
H3151 H 0.01016 0.59714 0.18072 0.0
H3152 H 0.07068 0.67285 0.21114 0.0
H3153 H 0.06216 0.57565 0.14972 0.0
H3154 H 0.03111 0.62179 0.19789 0.0
H3155 H 0.09587 0.6051 0.19764 0.0
C3156 C 0.1023 0.63329 0.21128 0.0
C3157 C 0.09547 0.65262 0.21512 0.0
C3158 C 0.03782 0.61171 0.18723 0.0
C3159 C 0.07144 0.62595 0.19435 0.0
C3160 C 0.02596 0.59769 0.17752 0.0
C3161 C 0.03451 0.58453 0.16377 0.0
C3162 C 0.05838 0.61204 0.18357 0.0
C3163 C 0.05503 0.58573 0.1601 0.0
C3164 C 0.09043 0.61999 0.20062 0.0
C3165 C 0.07651 0.6581 0.20831 0.0
N3166 N 0.06637 0.5991 0.17017 0.0
N3167 N 0.065 0.64472 0.19842 0.0
H3168 H 0.48794 0.38319 0.65401 0.0
H3169 H 0.40068 0.37539 0.73493 0.0
H3170 H 0.45449 0.43401 0.67477 0.0
H3171 H 0.42537 0.32475 0.70396 0.0
H3172 H 0.42216 0.3973 0.71518 0.0
H3173 H 0.467 0.36161 0.67451 0.0
C3174 C 0.47624 0.38983 0.6629 0.0
C3175 C 0.473 0.41046 0.66265 0.0
C3176 C 0.42283 0.38138 0.71273 0.0
C3177 C 0.44899 0.38584 0.6862 0.0
C3178 C 0.41061 0.36887 0.72402 0.0
C3179 C 0.41118 0.34819 0.72111 0.0
C3180 C 0.43583 0.37312 0.69855 0.0
C3181 C 0.42435 0.34057 0.70673 0.0
C3182 C 0.46426 0.3775 0.67457 0.0
C3183 C 0.45757 0.41821 0.67449 0.0
N3184 N 0.43616 0.35302 0.69605 0.0
N3185 N 0.44617 0.40591 0.6858 0.0
H3186 H 0.45604 0.59997 0.86223 0.0
H3187 H 0.41033 0.65317 0.76618 0.0
H3188 H 0.47594 0.58704 0.80247 0.0
H3189 H 0.40135 0.67408 0.82632 0.0
H3190 H 0.43278 0.62743 0.77893 0.0
H3191 H 0.43435 0.62589 0.84906 0.0
C3192 C 0.45588 0.60261 0.84631 0.0
C3193 C 0.46783 0.59132 0.83342 0.0
C3194 C 0.4259 0.63768 0.7893 0.0
C3195 C 0.4429 0.62096 0.81822 0.0
C3196 C 0.41302 0.65231 0.78206 0.0
C3197 C 0.40392 0.66577 0.79523 0.0
C3198 C 0.42955 0.63641 0.80985 0.0
C3199 C 0.40804 0.66404 0.81563 0.0
C3200 C 0.44351 0.61746 0.83881 0.0
C3201 C 0.46704 0.59546 0.81295 0.0
N3202 N 0.42049 0.6496 0.8223 0.0
N3203 N 0.45469 0.6099 0.80595 0.0
H3204 H 0.93222 0.16871 0.9548 0.0
H3205 H 0.82126 0.19975 0.92597 0.0
H3206 H 0.87953 0.14545 0.98345 0.0
H3207 H 0.8727 0.23266 0.90573 0.0
H3208 H 0.84289 0.17878 0.94592 0.0
H3209 H 0.91117 0.19147 0.93558 0.0
C3210 C 0.91626 0.16841 0.95708 0.0
C3211 C 0.9076 0.15512 0.97071 0.0
C3212 C 0.84949 0.19062 0.93719 0.0
C3213 C 0.88353 0.18097 0.94878 0.0
C3214 C 0.83713 0.20262 0.92574 0.0
C3215 C 0.84517 0.21804 0.91416 0.0
C3216 C 0.87013 0.19388 0.937 0.0
C3217 C 0.86587 0.22097 0.91447 0.0
C3218 C 0.90428 0.18142 0.94615 0.0
C3219 C 0.88687 0.15542 0.97313 0.0
N3220 N 0.87768 0.20893 0.92566 0.0
N3221 N 0.87556 0.16806 0.9622 0.0
H3222 H 0.62149 0.85041 0.48419 0.0
H3223 H 0.62155 0.79189 0.38027 0.0
H3224 H 0.56932 0.84044 0.44795 0.0
H3225 H 0.67338 0.79601 0.41809 0.0
H3226 H 0.60239 0.80992 0.40522 0.0
H3227 H 0.64108 0.83073 0.46042 0.0
C3228 C 0.61415 0.84405 0.47132 0.0
C3229 C 0.59373 0.84708 0.46809 0.0
C3230 C 0.61794 0.80685 0.40812 0.0
C3231 C 0.61598 0.82469 0.44089 0.0
C3232 C 0.62891 0.79656 0.39383 0.0
C3233 C 0.64912 0.79246 0.39704 0.0
C3234 C 0.62723 0.81323 0.42575 0.0
C3235 C 0.65783 0.79886 0.41497 0.0
C3236 C 0.62532 0.83282 0.45778 0.0
C3237 C 0.58498 0.83848 0.45115 0.0
N3238 N 0.64685 0.80899 0.42863 0.0
N3239 N 0.59616 0.82776 0.43821 0.0
H3240 H 0.83374 0.4531 0.5758 0.0
H3241 H 0.80122 0.41544 0.6839 0.0
H3242 H 0.8672 0.46448 0.62953 0.0
H3243 H 0.76867 0.40079 0.63043 0.0
H3244 H 0.82456 0.4347 0.66414 0.0
H3245 H 0.80905 0.43501 0.59544 0.0
C3246 C 0.83593 0.4518 0.59173 0.0
C3247 C 0.85264 0.4603 0.60103 0.0
C3248 C 0.8123 0.42734 0.65668 0.0
C3249 C 0.82435 0.43962 0.62357 0.0
C3250 C 0.79887 0.41634 0.66799 0.0
C3251 C 0.78289 0.40644 0.65884 0.0
C3252 C 0.80986 0.4285 0.63598 0.0
C3253 C 0.78077 0.40815 0.63812 0.0
C3254 C 0.82179 0.44146 0.60292 0.0
C3255 C 0.8546 0.45817 0.6217 0.0
N3256 N 0.79414 0.41894 0.62736 0.0
N3257 N 0.84064 0.44803 0.63226 0.0
H3258 H 0.8186 0.52581 0.92302 0.0
H3259 H 0.80553 0.592 0.82707 0.0
H3260 H 0.86291 0.52619 0.87646 0.0
H3261 H 0.75567 0.55879 0.85037 0.0
H3262 H 0.8276 0.57428 0.85003 0.0
H3263 H 0.79582 0.54396 0.90096 0.0
C3264 C 0.82353 0.52977 0.90818 0.0
C3265 C 0.8426 0.52452 0.90146 0.0
C3266 C 0.8118 0.57101 0.85015 0.0
C3267 C 0.81694 0.54548 0.87656 0.0
C3268 C 0.7992 0.58119 0.83723 0.0
C3269 C 0.77878 0.57681 0.83691 0.0
C3270 C 0.80383 0.55675 0.86313 0.0
C3271 C 0.77136 0.56251 0.85019 0.0
C3272 C 0.81053 0.54001 0.89565 0.0
C3273 C 0.84826 0.52989 0.88211 0.0
N3274 N 0.7839 0.55303 0.86293 0.0
N3275 N 0.83554 0.54031 0.87036 0.0
H3276 H 0.65179 0.54453 0.08888 0.0
H3277 H 0.74661 0.54108 0.16072 0.0
H3278 H 0.6988 0.501 0.08359 0.0
H3279 H 0.70559 0.59053 0.15875 0.0
H3280 H 0.72825 0.52523 0.13365 0.0
H3281 H 0.67031 0.5607 0.1157 0.0
C3282 C 0.66601 0.53837 0.09334 0.0
C3283 C 0.67376 0.52137 0.08397 0.0
C3284 C 0.72329 0.53957 0.13911 0.0
C3285 C 0.69498 0.53978 0.1147 0.0
C3286 C 0.73374 0.54862 0.1546 0.0
C3287 C 0.72763 0.56717 0.16202 0.0
C3288 C 0.70651 0.54907 0.13105 0.0
C3289 C 0.71085 0.57623 0.15348 0.0
C3290 C 0.67658 0.54764 0.10863 0.0
C3291 C 0.69226 0.51407 0.09036 0.0
N3292 N 0.70084 0.56706 0.13848 0.0
N3293 N 0.7022 0.52328 0.10537 0.0
H3294 H 0.70074 0.41654 0.32727 0.0
H3295 H 0.68058 0.45956 0.43643 0.0
H3296 H 0.73467 0.39883 0.37887 0.0
H3297 H 0.6539 0.4837 0.38319 0.0
H3298 H 0.69986 0.43658 0.41587 0.0
H3299 H 0.68263 0.44037 0.34778 0.0
C3300 C 0.70443 0.41765 0.3429 0.0
C3301 C 0.71935 0.40567 0.35131 0.0
C3302 C 0.68985 0.44696 0.40868 0.0
C3303 C 0.69848 0.43295 0.37499 0.0
C3304 C 0.67881 0.46011 0.42041 0.0
C3305 C 0.66555 0.4736 0.41154 0.0
C3306 C 0.68752 0.44717 0.3879 0.0
C3307 C 0.66394 0.4736 0.3907 0.0
C3308 C 0.69407 0.43131 0.35463 0.0
C3309 C 0.72333 0.40776 0.37173 0.0
N3310 N 0.67471 0.46053 0.37961 0.0
N3311 N 0.71293 0.4211 0.38287 0.0
H3312 H 0.98626 0.95645 0.19222 0.0
H3313 H 0.96287 0.02753 0.28491 0.0
H3314 H 0.95382 0.01167 0.18668 0.0
H3315 H 0.99358 0.97123 0.28896 0.0
H3316 H 0.95874 0.02211 0.24906 0.0
H3317 H 0.98787 0.96139 0.22798 0.0
C3318 C 0.97925 0.96952 0.1985 0.0
C3319 C 0.96988 0.98367 0.18632 0.0
C3320 C 0.9663 0.01093 0.25786 0.0
C3321 C 0.97203 0.98964 0.22747 0.0
C3322 C 0.96875 0.01407 0.27829 0.0
C3323 C 0.97852 -0.00021 0.29 0.0
C3324 C 0.97375 0.99344 0.24913 0.0
C3325 C 0.98566 0.98251 0.28066 0.0
C3326 C 0.98032 0.97242 0.21899 0.0
C3327 C 0.96142 0.00051 0.19543 0.0
N3328 N 0.98317 0.97986 0.26082 0.0
N3329 N 0.96275 0.00306 0.21546 0.0
H3330 H 0.28667 0.75181 0.4517 0.0
H3331 H 0.23034 0.71621 0.55024 0.0
H3332 H 0.2562 0.6953 0.45596 0.0
H3333 H 0.26772 0.76837 0.54659 0.0
H3334 H 0.23908 0.70815 0.5157 0.0
H3335 H 0.27995 0.75768 0.48669 0.0
C3336 C 0.2788 0.74046 0.45999 0.0
C3337 C 0.27199 0.723 0.45072 0.0
C3338 C 0.24543 0.72129 0.52255 0.0
C3339 C 0.2638 0.72992 0.49097 0.0
C3340 C 0.24035 0.72595 0.54219 0.0
C3341 C 0.24838 0.74294 0.55135 0.0
C3342 C 0.25848 0.73381 0.51201 0.0
C3343 C 0.26143 0.75496 0.5403 0.0
C3344 C 0.27481 0.74393 0.48002 0.0
C3345 C 0.26149 0.7091 0.46234 0.0
N3346 N 0.26601 0.75019 0.52123 0.0
N3347 N 0.25762 0.71291 0.48184 0.0
H3348 H 0.53151 0.04084 0.71057 0.0
H3349 H 0.53738 0.96233 0.79791 0.0
H3350 H 0.54469 0.97859 0.70163 0.0
H3351 H 0.52867 0.02534 0.80685 0.0
H3352 H 0.54682 0.9689 0.76343 0.0
H3353 H 0.53725 0.03661 0.74609 0.0
C3354 C 0.53603 0.02637 0.71596 0.0
C3355 C 0.53712 0.00992 0.70311 0.0
C3356 C 0.54317 0.98134 0.77302 0.0
C3357 C 0.54331 0.00486 0.74393 0.0
C3358 C 0.53787 0.97759 0.79277 0.0
C3359 C 0.53176 0.99328 0.80514 0.0
C3360 C 0.54221 0.00089 0.7656 0.0
C3361 C 0.53269 0.01275 0.79763 0.0
C3362 C 0.5392 0.02392 0.73633 0.0
C3363 C 0.54306 0.99153 0.71108 0.0
N3364 N 0.53746 0.01598 0.77827 0.0
N3365 N 0.54557 0.98941 0.73101 0.0
H3366 H 0.21709 0.28425 0.95268 0.0
H3367 H 0.29401 0.27999 0.04178 0.0
H3368 H 0.28079 0.28162 0.94433 0.0
H3369 H 0.23098 0.28977 0.0495 0.0
H3370 H 0.29018 0.28584 0.00611 0.0
H3371 H 0.22235 0.29158 0.98776 0.0
C3372 C 0.2322 0.28557 0.95807 0.0
C3373 C 0.24852 0.28186 0.94552 0.0
C3374 C 0.27723 0.28701 0.01565 0.0
C3375 C 0.25465 0.28989 0.98593 0.0
C3376 C 0.27943 0.28379 0.03606 0.0
C3377 C 0.2627 0.28398 0.04859 0.0
C3378 C 0.25815 0.29033 0.00772 0.0
C3379 C 0.24418 0.28892 0.04029 0.0
C3380 C 0.23521 0.28967 0.97821 0.0
C3381 C 0.26775 0.28376 0.95353 0.0
N3382 N 0.24234 0.29159 0.02035 0.0
N3383 N 0.27028 0.28733 0.97327 0.0
H3384 H 0.20141 0.0113 0.01057 0.0
H3385 H 0.301 0.9513 0.01184 0.0
H3386 H 0.20018 0.95288 0.98402 0.0
H3387 H 0.29832 0.01083 0.9881 0.0
H3388 H 0.26422 0.94953 0.0103 0.0
H3389 H 0.23778 0.00944 0.01225 0.0
C3390 C 0.20883 0.99792 0.00547 0.0
C3391 C 0.19793 0.98218 0.99721 0.0
C3392 C 0.27184 0.96283 0.00527 0.0
C3393 C 0.23925 0.97996 0.99917 0.0
C3394 C 0.29263 0.96385 0.00616 0.0
C3395 C 0.30251 0.98115 -0.00012 0.0
C3396 C 0.26111 0.9795 0.99875 0.0
C3397 C 0.29119 0.99715 0.99277 0.0
C3398 C 0.22948 0.99696 0.00628 0.0
C3399 C 0.20821 0.96529 0.99045 0.0
N3400 N 0.27105 0.99606 0.99268 0.0
N3401 N 0.22844 0.96453 0.99166 0.0
H3402 H 0.29693 0.0526 0.22632 0.0
H3403 H 0.2682 0.94737 0.27069 0.0
H3404 H 0.28304 0.04201 0.28811 0.0
H3405 H 0.28121 0.95775 0.20869 0.0
H3406 H 0.28137 0.9803 0.27867 0.0
H3407 H 0.29945 0.0167 0.22106 0.0
C3408 C 0.2948 0.04271 0.23886 0.0
C3409 C 0.28926 0.05026 0.25755 0.0
C3410 C 0.28166 0.97529 0.26335 0.0
C3411 C 0.29194 0.00921 0.25165 0.0
C3412 C 0.27405 0.95655 0.25879 0.0
C3413 C 0.27321 0.95006 0.23896 0.0
C3414 C 0.28824 0.98778 0.24791 0.0
C3415 C 0.28146 0.96226 0.22415 0.0
C3416 C 0.29625 0.02222 0.23587 0.0
C3417 C 0.28717 0.03685 0.27342 0.0
N3418 N 0.28829 0.98072 0.22888 0.0
N3419 N 0.28809 0.01694 0.27001 0.0
H3420 H 0.20101 0.01548 0.54356 0.0
H3421 H 0.29297 0.03281 0.47314 0.0
H3422 H 0.20013 0.05938 0.4965 0.0
H3423 H 0.29914 0.00957 0.53277 0.0
H3424 H 0.25897 0.04289 0.48115 0.0
H3425 H 0.23695 0.01303 0.53989 0.0
C3426 C 0.20825 0.0248 0.53262 0.0
C3427 C 0.19724 0.03738 0.52007 0.0
C3428 C 0.26789 0.03578 0.49253 0.0
C3429 C 0.23853 0.03433 0.51559 0.0
C3430 C 0.28735 0.03008 0.48799 0.0
C3431 C 0.29888 0.01994 0.50216 0.0
C3432 C 0.25986 0.03111 0.51127 0.0
C3433 C 0.29066 0.01676 0.52115 0.0
C3434 C 0.22885 0.02334 0.53051 0.0
C3435 C 0.20774 0.049 0.50613 0.0
N3436 N 0.27157 0.02205 0.52505 0.0
N3437 N 0.22774 0.04697 0.50407 0.0
H3438 H 0.20001 0.05107 0.77431 0.0
H3439 H 0.21745 0.94645 0.72248 0.0
H3440 H 0.21287 0.04317 0.71188 0.0
H3441 H 0.21075 0.95478 0.78581 0.0
H3442 H 0.20682 0.98079 0.71717 0.0
H3443 H 0.19452 0.01524 0.77735 0.0
C3444 C 0.20129 0.04184 0.76116 0.0
C3445 C 0.20744 0.05004 0.74295 0.0
C3446 C 0.20736 0.97503 0.73222 0.0
C3447 C 0.20131 0.00906 0.74631 0.0
C3448 C 0.21352 0.95546 0.73526 0.0
C3449 C 0.21545 0.94792 0.75464 0.0
C3450 C 0.20326 0.98722 0.7487 0.0
C3451 C 0.20961 0.96003 0.77063 0.0
C3452 C 0.19814 0.02139 0.7629 0.0
C3453 C 0.20835 0.03749 0.72626 0.0
N3454 N 0.20412 0.97922 0.76733 0.0
N3455 N 0.20574 0.01756 0.72843 0.0
H3456 H 0.00108 0.2882 0.02516 0.0
H3457 H 0.9869 0.19237 0.95904 0.0
H3458 H 0.01446 0.29114 0.96248 0.0
H3459 H 0.01061 0.18996 0.01861 0.0
H3460 H 0.99127 0.22888 0.95933 0.0
H3461 H 0.9983 0.252 0.02261 0.0
C3462 C 0.00327 0.28114 0.01083 0.0
C3463 C 0.0079 0.29248 0.99397 0.0
C3464 C 0.99566 0.22022 0.97219 0.0
C3465 C 0.00468 0.2513 0.99092 0.0
C3466 C 0.9931 0.19956 0.97207 0.0
C3467 C 0.99854 0.18829 0.98877 0.0
C3468 C 0.00315 0.2295 0.98936 0.0
C3469 C 0.0065 0.19812 0.00536 0.0
C3470 C 0.00184 0.26056 0.00941 0.0
C3471 C 0.01091 0.28273 0.97576 0.0
N3472 N 0.00836 0.2182 0.00532 0.0
N3473 N 0.00905 0.26257 0.97461 0.0
H3474 H 0.47666 0.20066 0.04339 0.0
H3475 H 0.52981 0.30607 0.02874 0.0
H3476 H 0.53785 0.20798 0.02482 0.0
H3477 H 0.46604 0.2982 0.03169 0.0
H3478 H 0.53404 0.27052 0.03485 0.0
H3479 H 0.47377 0.23674 0.04645 0.0
C3480 C 0.48952 0.20976 0.04001 0.0
C3481 C 0.50742 0.20112 0.03346 0.0
C3482 C 0.51913 0.27665 0.03437 0.0
C3483 C 0.50425 0.2425 0.03729 0.0
C3484 C 0.51669 0.29695 0.03081 0.0
C3485 C 0.49752 0.30518 0.0293 0.0
C3486 C 0.50231 0.26444 0.03651 0.0
C3487 C 0.48111 0.29263 0.0327 0.0
C3488 C 0.48786 0.23038 0.04188 0.0
C3489 C 0.52373 0.21377 0.02991 0.0
N3490 N 0.48388 0.27286 0.03592 0.0
N3491 N 0.52168 0.23381 0.0317 0.0
H3492 H 0.95196 0.21337 0.28129 0.0
H3493 H 0.04235 0.29041 0.28788 0.0
H3494 H 0.94559 0.27645 0.27087 0.0
H3495 H 0.0487 0.22636 0.28789 0.0
H3496 H 0.00624 0.28626 0.28763 0.0
H3497 H 0.98664 0.21877 0.29041 0.0
C3498 C 0.95774 0.22841 0.28124 0.0
C3499 C 0.9459 0.24446 0.27505 0.0
C3500 C 0.01562 0.27316 0.28787 0.0
C3501 C 0.98575 0.2507 0.28516 0.0
C3502 C 0.03628 0.27549 0.28789 0.0
C3503 C 0.04881 0.25873 0.28758 0.0
C3504 C 0.0074 0.25394 0.28763 0.0
C3505 C 0.03989 0.23979 0.28816 0.0
C3506 C 0.97761 0.23147 0.28631 0.0
C3507 C 0.95431 0.26361 0.27513 0.0
N3508 N 0.01979 0.23794 0.288 0.0
N3509 N 0.97379 0.26619 0.27992 0.0
H3510 H 0.03319 0.71152 0.53213 0.0
H3511 H 0.95544 0.79748 0.50698 0.0
H3512 H 0.97427 0.70072 0.50894 0.0
H3513 H 0.00799 0.80737 0.54273 0.0
H3514 H 0.96247 0.762 0.50715 0.0
H3515 H 0.02499 0.74696 0.53522 0.0
C3516 C 0.01856 0.71661 0.52772 0.0
C3517 C 0.00438 0.70319 0.52033 0.0
C3518 C 0.97241 0.77193 0.51506 0.0
C3519 C 0.99489 0.7435 0.52381 0.0
C3520 C 0.96833 0.79226 0.51507 0.0
C3521 C 0.98121 0.8056 0.52474 0.0
C3522 C 0.98956 0.76483 0.52464 0.0
C3523 C 0.99785 0.79778 0.53473 0.0
C3524 C 0.01384 0.73677 0.5296 0.0
C3525 C 0.98555 0.71049 0.51498 0.0
N3526 N 0.00163 0.77793 0.5343 0.0
N3527 N 0.9814 0.73016 0.51672 0.0
H3528 H 0.5399 0.7999 0.47257 0.0
H3529 H 0.46662 0.70708 0.46969 0.0
H3530 H 0.47603 0.80501 0.46734 0.0
H3531 H 0.53062 0.70215 0.47284 0.0
H3532 H 0.47006 0.74262 0.46322 0.0
H3533 H 0.53711 0.76419 0.46726 0.0
C3534 C 0.52529 0.79364 0.46997 0.0
C3535 C 0.50812 0.80554 0.47073 0.0
C3536 C 0.48338 0.73373 0.46505 0.0
C3537 C 0.50482 0.76441 0.46497 0.0
C3538 C 0.48143 0.71335 0.46861 0.0
C3539 C 0.49836 0.70163 0.47216 0.0
C3540 C 0.50238 0.74247 0.46514 0.0
C3541 C 0.51715 0.7107 0.47069 0.0
C3542 C 0.52371 0.77314 0.46703 0.0
C3543 C 0.48962 0.79638 0.46738 0.0
N3544 N 0.51864 0.73061 0.46756 0.0
N3545 N 0.48843 0.77635 0.46489 0.0
H3546 H 0.04775 0.76644 0.20044 0.0
H3547 H 0.94506 0.71625 0.23344 0.0
H3548 H 0.04323 0.70969 0.2304 0.0
H3549 H 0.95089 0.77824 0.21745 0.0
H3550 H 0.98026 0.71141 0.22588 0.0
H3551 H 0.0115 0.76874 0.20038 0.0
C3552 C 0.03923 0.75444 0.20697 0.0
C3553 C 0.04873 0.73799 0.21573 0.0
C3554 C 0.97377 0.72603 0.22387 0.0
C3555 C 0.00715 0.74042 0.21537 0.0
C3556 C 0.95369 0.72883 0.22826 0.0
C3557 C 0.94504 0.74776 0.22644 0.0
C3558 C 0.98532 0.74227 0.21757 0.0
C3559 C 0.95686 0.76338 0.21909 0.0
C3560 C 0.0185 0.75573 0.20681 0.0
C3561 C 0.03675 0.72265 0.22344 0.0
N3562 N 0.97645 0.76033 0.21512 0.0
N3563 N 0.01662 0.72432 0.2232 0.0
H3564 H 0.5477 0.21433 0.71331 0.0
H3565 H 0.45938 0.29199 0.71354 0.0
H3566 H 0.55601 0.27807 0.71475 0.0
H3567 H 0.452 0.22825 0.71464 0.0
H3568 H 0.49444 0.28742 0.70464 0.0
H3569 H 0.51305 0.21939 0.70421 0.0
C3570 C 0.54243 0.22941 0.71129 0.0
C3571 C 0.55472 0.24582 0.71542 0.0
C3572 C 0.48506 0.27443 0.70641 0.0
C3573 C 0.51478 0.25171 0.70542 0.0
C3574 C 0.46503 0.27705 0.71137 0.0
C3575 C 0.45299 0.26044 0.71528 0.0
C3576 C 0.49299 0.25508 0.70543 0.0
C3577 C 0.46099 0.24141 0.71227 0.0
C3578 C 0.52252 0.2323 0.70619 0.0
C3579 C 0.54691 0.26499 0.71243 0.0
N3580 N 0.48057 0.23923 0.70785 0.0
N3581 N 0.52734 0.26742 0.70801 0.0
H3582 H 0.46619 0.53096 0.70096 0.0
H3583 H 0.46541 0.47755 0.80671 0.0
H3584 H 0.471 0.46745 0.70928 0.0
H3585 H 0.46666 0.54125 0.79847 0.0
H3586 H 0.45971 0.4734 0.77104 0.0
H3587 H 0.45877 0.53469 0.73636 0.0
C3588 C 0.46549 0.51778 0.7102 0.0
C3589 C 0.46963 0.49892 0.70221 0.0
C3590 C 0.46091 0.4883 0.77709 0.0
C3591 C 0.46109 0.50305 0.74274 0.0
C3592 C 0.46422 0.49067 0.79745 0.0
C3593 C 0.46695 0.50975 0.80554 0.0
C3594 C 0.46044 0.50513 0.7647 0.0
C3595 C 0.46473 0.52626 0.79291 0.0
C3596 C 0.46117 0.5199 0.73039 0.0
C3597 C 0.46799 0.48229 0.71476 0.0
N3598 N 0.46194 0.52355 0.77307 0.0
N3599 N 0.46415 0.48477 0.73447 0.0
H3600 H 0.71302 0.21647 0.05309 0.0
H3601 H 0.78915 0.22553 0.96341 0.0
H3602 H 0.77628 0.22486 0.06082 0.0
H3603 H 0.72788 0.20743 0.95588 0.0
H3604 H 0.7854 0.22192 0.99919 0.0
H3605 H 0.71865 0.20958 0.01788 0.0
C3606 C 0.72814 0.21651 0.04751 0.0
C3607 C 0.74418 0.22161 0.05991 0.0
C3608 C 0.77282 0.21853 0.9897 0.0
C3609 C 0.75067 0.21409 0.01948 0.0
C3610 C 0.77498 0.2205 0.96915 0.0
C3611 C 0.7587 0.21712 0.95646 0.0
C3612 C 0.75422 0.21332 0.99771 0.0
C3613 C 0.74069 0.21074 0.96503 0.0
C3614 C 0.73133 0.21268 0.02733 0.0
C3615 C 0.76342 0.22153 0.05172 0.0
N3616 N 0.73886 0.2093 0.98512 0.0
N3617 N 0.7661 0.21811 0.03199 0.0
H3618 H 0.03636 0.46526 0.28835 0.0
H3619 H 0.04078 0.5381 0.19557 0.0
H3620 H 0.03052 0.5291 0.29185 0.0
H3621 H 0.04284 0.47401 0.19086 0.0
H3622 H 0.04568 0.5353 0.2313 0.0
H3623 H 0.04698 0.46849 0.25367 0.0
C3624 C 0.03773 0.47998 0.28196 0.0
C3625 C 0.03215 0.49693 0.29284 0.0
C3626 C 0.04537 0.52184 0.22242 0.0
C3627 C 0.04404 0.50072 0.25317 0.0
C3628 C 0.04272 0.52342 0.20191 0.0
C3629 C 0.04088 0.50622 0.19016 0.0
C3630 C 0.04604 0.50293 0.23131 0.0
C3631 C 0.04353 0.48765 0.19939 0.0
C3632 C 0.0437 0.48182 0.26213 0.0
C3633 C 0.03418 0.51564 0.2838 0.0
N3634 N 0.04561 0.48647 0.21947 0.0
N3635 N 0.0397 0.51702 0.26442 0.0
H3636 H 0.71691 0.77539 0.54722 0.0
H3637 H 0.76748 0.77628 0.43949 0.0
H3638 H 0.77855 0.7605 0.53642 0.0
H3639 H 0.70402 0.78018 0.44879 0.0
H3640 H 0.77228 0.77426 0.47541 0.0
H3641 H 0.7124 0.78067 0.51159 0.0
C3642 C 0.72951 0.77319 0.53742 0.0
C3643 C 0.74812 0.76731 0.54494 0.0
C3644 C 0.7573 0.7756 0.46961 0.0
C3645 C 0.74307 0.77362 0.50408 0.0
C3646 C 0.75455 0.7769 0.44909 0.0
C3647 C 0.7353 0.77836 0.44112 0.0
C3648 C 0.74069 0.77586 0.48229 0.0
C3649 C 0.71909 0.77879 0.4543 0.0
C3650 C 0.72692 0.7763 0.51706 0.0
C3651 C 0.76398 0.76517 0.53146 0.0
N3652 N 0.72214 0.77754 0.47426 0.0
N3653 N 0.76107 0.76826 0.51171 0.0
H3654 H 0.80105 0.47117 0.54801 0.0
H3655 H 0.7115 0.47734 0.46993 0.0
H3656 H 0.80838 0.46712 0.48427 0.0
H3657 H 0.70412 0.48583 0.53321 0.0
H3658 H 0.74643 0.46926 0.47543 0.0
H3659 H 0.76502 0.47291 0.54334 0.0
C3660 C 0.79512 0.47064 0.53305 0.0
C3661 C 0.80783 0.46917 0.5165 0.0
C3662 C 0.73714 0.47274 0.48814 0.0
C3663 C 0.7666 0.47093 0.51106 0.0
C3664 C 0.71712 0.47721 0.48502 0.0
C3665 C 0.70488 0.48246 0.50113 0.0
C3666 C 0.745 0.47354 0.5075 0.0
C3667 C 0.71311 0.48225 0.52034 0.0
C3668 C 0.77454 0.47151 0.5304 0.0
C3669 C 0.79924 0.4681 0.49748 0.0
N3670 N 0.7327 0.47801 0.52298 0.0
N3671 N 0.77919 0.46913 0.49528 0.0
H3672 H 0.78439 0.54008 0.79214 0.0
H3673 H 0.78945 0.44973 0.71687 0.0
H3674 H 0.79092 0.54627 0.72855 0.0
H3675 H 0.78242 0.44327 0.78042 0.0
H3676 H 0.7985 0.4845 0.72178 0.0
H3677 H 0.79221 0.5047 0.78911 0.0
C3678 C 0.78796 0.53411 0.7776 0.0
C3679 C 0.78649 0.546 0.7605 0.0
C3680 C 0.7953 0.47541 0.7347 0.0
C3681 C 0.79506 0.5055 0.75685 0.0
C3682 C 0.79022 0.45547 0.7319 0.0
C3683 C 0.78464 0.44367 0.74823 0.0
C3684 C 0.79464 0.48365 0.75392 0.0
C3685 C 0.78597 0.452 0.76736 0.0
C3686 C 0.7923 0.51387 0.77584 0.0
C3687 C 0.79129 0.53747 0.74203 0.0
N3688 N 0.79049 0.47156 0.76966 0.0
N3689 N 0.79501 0.51767 0.74065 0.0
H3690 H 0.79285 0.52481 0.95654 0.0
H3691 H 0.702 0.52524 0.03341 0.0
H3692 H 0.79886 0.52374 0.02057 0.0
H3693 H 0.69416 0.51868 0.96993 0.0
H3694 H 0.73742 0.53011 0.02819 0.0
H3695 H 0.75669 0.5268 0.96051 0.0
C3696 C 0.78665 0.52498 0.97141 0.0
C3697 C 0.79905 0.524 0.98824 0.0
C3698 C 0.72795 0.52777 0.01535 0.0
C3699 C 0.7577 0.5266 0.99285 0.0
C3700 C 0.7076 0.52518 0.01831 0.0
C3701 C 0.69499 0.52133 0.00209 0.0
C3702 C 0.73588 0.52644 0.99605 0.0
C3703 C 0.70334 0.52121 0.9829 0.0
C3704 C 0.766 0.52626 0.97365 0.0
C3705 C 0.79008 0.52468 0.00713 0.0
N3706 N 0.7233 0.52352 0.98041 0.0
N3707 N 0.77002 0.52585 0.00889 0.0
H3708 H 0.71802 0.44894 0.29313 0.0
H3709 H 0.71956 0.53556 0.2131 0.0
H3710 H 0.71428 0.4393 0.2297 0.0
H3711 H 0.723 0.54518 0.27654 0.0
H3712 H 0.7103 0.501 0.2192 0.0
H3713 H 0.71256 0.48438 0.28772 0.0
C3714 C 0.71564 0.45417 0.27808 0.0
C3715 C 0.71706 0.44116 0.26178 0.0
C3716 C 0.71277 0.51074 0.23181 0.0
C3717 C 0.71116 0.48184 0.25547 0.0
C3718 C 0.71795 0.53055 0.22833 0.0
C3719 C 0.7225 0.54319 0.24434 0.0
C3720 C 0.71228 0.5035 0.25143 0.0
C3721 C 0.7202 0.5358 0.26375 0.0
C3722 C 0.71263 0.47448 0.27499 0.0
C3723 C 0.71387 0.44889 0.24264 0.0
N3724 N 0.71555 0.51636 0.26675 0.0
N3725 N 0.71138 0.46876 0.23998 0.0
H3726 H 0.44788 0.70746 0.77413 0.0
H3727 H 0.53892 0.78242 0.75734 0.0
H3728 H 0.4409 0.76988 0.76071 0.0
H3729 H 0.54625 0.72195 0.77789 0.0
H3730 H 0.50296 0.778 0.75841 0.0
H3731 H 0.48403 0.7121 0.77475 0.0
C3732 C 0.45395 0.72211 0.77122 0.0
C3733 C 0.44136 0.73832 0.76739 0.0
C3734 C 0.51244 0.76571 0.76277 0.0
C3735 C 0.48262 0.74379 0.76824 0.0
C3736 C 0.53303 0.76828 0.7623 0.0
C3737 C 0.54573 0.75252 0.76748 0.0
C3738 C 0.50442 0.74723 0.76836 0.0
C3739 C 0.53709 0.73442 0.77346 0.0
C3740 C 0.47457 0.72479 0.77172 0.0
C3741 C 0.45002 0.75704 0.76398 0.0
N3742 N 0.51698 0.73225 0.77366 0.0
N3743 N 0.47009 0.75924 0.76444 0.0
loop_
_geom_bond_atom_site_label_1
_geom_bond_atom_site_label_2
_geom_bond_distance
_geom_bond_site_symmetry_2
_ccdc_geom_bond_type
Co0 N4 2.148 . S
Co0 N10 2.128 . S
Co0 N20 2.194 1_655 S
Co0 O25 2.351 1_655 S
Co0 O26 2.155 . S
Co0 O27 2.096 . S
C1 N4 1.301 1_455 S
C1 N5 1.328 . S
C1 H6 0.930 . S
C2 C3 1.333 . S
C2 N4 1.317 . S
C2 H7 0.930 . S
C3 C2 1.333 . S
C3 N5 1.350 1_655 S
C3 H29 0.931 . S
N4 Co0 2.148 . S
N4 C1 1.301 1_655 S
N4 C2 1.317 . S
N5 C1 1.328 . S
N5 C3 1.350 1_455 S
H6 C1 0.930 . S
H7 C2 0.930 . S
C8 O9 1.224 . S
C8 O27 1.247 . S
O9 C8 1.224 . S
N10 Co0 2.128 . S
N10 C11 1.355 1_655 S
N10 C13 1.311 . S
C11 N10 1.355 1_455 S
C11 C12 1.363 . S
C11 H23 0.929 . S
C12 C11 1.363 . S
C12 N14 1.375 1_455 S
C12 H30 0.931 . S
C13 N10 1.311 . S
C13 N14 1.347 . S
C13 H24 0.929 . S
N14 C12 1.375 1_655 S
N14 C13 1.347 . S
C15 C18 1.365 . S
C15 N20 1.328 . S
C15 H21 0.929 . S
C16 C17 1.362 . S
C16 C19 1.378 . S
C16 H31 0.929 . S
C17 C16 1.362 . S
C17 C18 1.366 . S
C18 C15 1.365 . S
C18 C17 1.366 . S
C18 H32 0.930 . S
C19 C16 1.378 . S
C19 N20 1.315 . S
C19 H22 0.930 . S
N20 Co0 2.194 1_455 S
N20 C15 1.328 . S
N20 C19 1.315 . S
H21 C15 0.929 . S
H22 C19 0.930 . S
H23 C11 0.929 . S
H24 C13 0.929 . S
O25 Co0 2.351 1_455 S
O25 C28 1.244 1_455 S
O26 Co0 2.155 . S
O26 C28 1.240 . S
O27 Co0 2.096 . S
O27 C8 1.247 . S
C28 O25 1.244 1_655 S
C28 O26 1.240 . S
H29 C3 0.931 . S
H30 C12 0.931 . S
H31 C16 0.929 . S
H32 C18 0.930 . S
Co33 N37 2.148 . S
Co33 N43 2.128 . S
Co33 N53 2.194 . S
Co33 O58 2.351 . S
Co33 O59 2.155 . S
Co33 O60 2.096 . S
C34 N37 1.301 . S
C34 N38 1.328 . S
C34 H39 0.930 . S
C35 C36 1.333 . S
C35 N37 1.317 . S
C35 H40 0.930 . S
C36 C35 1.333 . S
C36 N38 1.350 . S
C36 H62 0.931 . S
N37 Co33 2.148 . S
N37 C34 1.301 . S
N37 C35 1.317 . S
N38 C34 1.328 . S
N38 C36 1.350 . S
H39 C34 0.930 . S
H40 C35 0.930 . S
C41 O42 1.224 . S
C41 O60 1.247 . S
O42 C41 1.224 . S
N43 Co33 2.128 . S
N43 C44 1.355 . S
N43 C46 1.311 . S
C44 N43 1.355 . S
C44 C45 1.363 . S
C44 H56 0.929 . S
C45 C44 1.363 . S
C45 N47 1.375 . S
C45 H63 0.931 . S
C46 N43 1.311 . S
C46 N47 1.347 . S
C46 H57 0.929 . S
N47 C45 1.375 . S
N47 C46 1.347 . S
C48 C51 1.365 . S
C48 N53 1.328 . S
C48 H54 0.929 . S
C49 C50 1.362 . S
C49 C52 1.378 . S
C49 H64 0.929 . S
C50 C49 1.362 . S
C50 C51 1.366 . S
C51 C48 1.365 . S
C51 C50 1.366 . S
C51 H65 0.930 . S
C52 C49 1.378 . S
C52 N53 1.315 . S
C52 H55 0.930 . S
N53 Co33 2.194 . S
N53 C48 1.328 . S
N53 C52 1.315 . S
H54 C48 0.929 . S
H55 C52 0.930 . S
H56 C44 0.929 . S
H57 C46 0.929 . S
O58 Co33 2.351 . S
O58 C61 1.244 . S
O59 Co33 2.155 . S
O59 C61 1.240 . S
O60 Co33 2.096 . S
O60 C41 1.247 . S
C61 O58 1.244 . S
C61 O59 1.240 . S
H62 C36 0.931 . S
H63 C45 0.931 . S
H64 C49 0.929 . S
H65 C51 0.930 . S
Co66 N70 2.148 . S
Co66 N76 2.128 . S
Co66 N86 2.194 . S
Co66 O91 2.351 . S
Co66 O92 2.155 . S
Co66 O93 2.096 . S
C67 N70 1.301 . S
C67 N71 1.328 . S
C67 H72 0.930 . S
C68 C69 1.333 . S
C68 N70 1.317 . S
C68 H73 0.930 . S
C69 C68 1.333 . S
C69 N71 1.350 . S
C69 H95 0.931 . S
N70 Co66 2.148 . S
N70 C67 1.301 . S
N70 C68 1.317 . S
N71 C67 1.328 . S
N71 C69 1.350 . S
H72 C67 0.930 . S
H73 C68 0.930 . S
C74 O75 1.224 . S
C74 O93 1.247 . S
O75 C74 1.224 . S
N76 Co66 2.128 . S
N76 C77 1.355 . S
N76 C79 1.311 . S
C77 N76 1.355 . S
C77 C78 1.363 . S
C77 H89 0.929 . S
C78 C77 1.363 . S
C78 N80 1.375 . S
C78 H96 0.931 . S
C79 N76 1.311 . S
C79 N80 1.347 . S
C79 H90 0.929 . S
N80 C78 1.375 . S
N80 C79 1.347 . S
C81 C84 1.365 . S
C81 N86 1.328 . S
C81 H87 0.929 . S
C82 C83 1.362 . S
C82 C85 1.378 . S
C82 H97 0.929 . S
C83 C82 1.362 . S
C83 C84 1.366 . S
C84 C81 1.365 . S
C84 C83 1.366 . S
C84 H98 0.930 . S
C85 C82 1.378 . S
C85 N86 1.315 . S
C85 H88 0.930 . S
N86 Co66 2.194 . S
N86 C81 1.328 . S
N86 C85 1.315 . S
H87 C81 0.929 . S
H88 C85 0.930 . S
H89 C77 0.929 . S
H90 C79 0.929 . S
O91 Co66 2.351 . S
O91 C94 1.244 . S
O92 Co66 2.155 . S
O92 C94 1.240 . S
O93 Co66 2.096 . S
O93 C74 1.247 . S
C94 O91 1.244 . S
C94 O92 1.240 . S
H95 C69 0.931 . S
H96 C78 0.931 . S
H97 C82 0.929 . S
H98 C84 0.930 . S
Co99 N103 2.148 . S
Co99 N109 2.128 . S
Co99 N119 2.194 . S
Co99 O124 2.351 . S
Co99 O125 2.155 . S
Co99 O126 2.096 . S
C100 N103 1.301 . S
C100 N104 1.328 . S
C100 H105 0.930 . S
C101 C102 1.333 . S
C101 N103 1.317 . S
C101 H106 0.930 . S
C102 C101 1.333 . S
C102 N104 1.350 . S
C102 H128 0.931 . S
N103 Co99 2.148 . S
N103 C100 1.301 . S
N103 C101 1.317 . S
N104 C100 1.328 . S
N104 C102 1.350 . S
H105 C100 0.930 . S
H106 C101 0.930 . S
C107 O108 1.224 . S
C107 O126 1.247 . S
O108 C107 1.224 . S
N109 Co99 2.128 . S
N109 C110 1.355 . S
N109 C112 1.311 . S
C110 N109 1.355 . S
C110 C111 1.363 . S
C110 H122 0.929 . S
C111 C110 1.363 . S
C111 N113 1.375 . S
C111 H129 0.931 . S
C112 N109 1.311 . S
C112 N113 1.347 . S
C112 H123 0.929 . S
N113 C111 1.375 . S
N113 C112 1.347 . S
C114 C117 1.365 . S
C114 N119 1.328 . S
C114 H120 0.929 . S
C115 C116 1.362 . S
C115 C118 1.378 . S
C115 H130 0.929 . S
C116 C115 1.362 . S
C116 C117 1.366 . S
C117 C114 1.365 . S
C117 C116 1.366 . S
C117 H131 0.930 . S
C118 C115 1.378 . S
C118 N119 1.315 . S
C118 H121 0.930 . S
N119 Co99 2.194 . S
N119 C114 1.328 . S
N119 C118 1.315 . S
H120 C114 0.929 . S
H121 C118 0.930 . S
H122 C110 0.929 . S
H123 C112 0.929 . S
O124 Co99 2.351 . S
O124 C127 1.244 . S
O125 Co99 2.155 . S
O125 C127 1.240 . S
O126 Co99 2.096 . S
O126 C107 1.247 . S
C127 O124 1.244 . S
C127 O125 1.240 . S
H128 C102 0.931 . S
H129 C111 0.931 . S
H130 C115 0.929 . S
H131 C117 0.930 . S
Co132 N136 2.148 . S
Co132 N142 2.128 . S
Co132 N152 2.194 1_655 S
Co132 O157 2.351 1_655 S
Co132 O158 2.155 . S
Co132 O159 2.096 . S
C133 N136 1.301 1_455 S
C133 N137 1.328 . S
C133 H138 0.930 . S
C134 C135 1.333 . S
C134 N136 1.317 . S
C134 H139 0.930 . S
C135 C134 1.333 . S
C135 N137 1.350 1_655 S
C135 H161 0.931 . S
N136 Co132 2.148 . S
N136 C133 1.301 1_655 S
N136 C134 1.317 . S
N137 C133 1.328 . S
N137 C135 1.350 1_455 S
H138 C133 0.930 . S
H139 C134 0.930 . S
C140 O141 1.224 . S
C140 O159 1.247 . S
O141 C140 1.224 . S
N142 Co132 2.128 . S
N142 C143 1.355 1_655 S
N142 C145 1.311 . S
C143 N142 1.355 1_455 S
C143 C144 1.363 . S
C143 H155 0.929 . S
C144 C143 1.363 . S
C144 N146 1.375 1_455 S
C144 H162 0.931 . S
C145 N142 1.311 . S
C145 N146 1.347 . S
C145 H156 0.929 . S
N146 C144 1.375 1_655 S
N146 C145 1.347 . S
C147 C150 1.365 . S
C147 N152 1.328 . S
C147 H153 0.929 . S
C148 C149 1.362 . S
C148 C151 1.378 . S
C148 H163 0.929 . S
C149 C148 1.362 . S
C149 C150 1.366 . S
C150 C147 1.365 . S
C150 C149 1.366 . S
C150 H164 0.930 . S
C151 C148 1.378 . S
C151 N152 1.315 . S
C151 H154 0.930 . S
N152 Co132 2.194 1_455 S
N152 C147 1.328 . S
N152 C151 1.315 . S
H153 C147 0.929 . S
H154 C151 0.930 . S
H155 C143 0.929 . S
H156 C145 0.929 . S
O157 Co132 2.351 1_455 S
O157 C160 1.244 1_455 S
O158 Co132 2.155 . S
O158 C160 1.240 . S
O159 Co132 2.096 . S
O159 C140 1.247 . S
C160 O157 1.244 1_655 S
C160 O158 1.240 . S
H161 C135 0.931 . S
H162 C144 0.931 . S
H163 C148 0.929 . S
H164 C150 0.930 . S
Co165 N169 2.148 . S
Co165 N175 2.128 . S
Co165 N185 2.194 . S
Co165 O190 2.351 . S
Co165 O191 2.155 . S
Co165 O192 2.096 . S
C166 N169 1.301 . S
C166 N170 1.328 . S
C166 H171 0.930 . S
C167 C168 1.333 . S
C167 N169 1.317 . S
C167 H172 0.930 . S
C168 C167 1.333 . S
C168 N170 1.350 . S
C168 H194 0.931 . S
N169 Co165 2.148 . S
N169 C166 1.301 . S
N169 C167 1.317 . S
N170 C166 1.328 . S
N170 C168 1.350 . S
H171 C166 0.930 . S
H172 C167 0.930 . S
C173 O174 1.224 . S
C173 O192 1.247 . S
O174 C173 1.224 . S
N175 Co165 2.128 . S
N175 C176 1.355 . S
N175 C178 1.311 . S
C176 N175 1.355 . S
C176 C177 1.363 . S
C176 H188 0.929 . S
C177 C176 1.363 . S
C177 N179 1.375 . S
C177 H195 0.931 . S
C178 N175 1.311 . S
C178 N179 1.347 . S
C178 H189 0.929 . S
N179 C177 1.375 . S
N179 C178 1.347 . S
C180 C183 1.365 . S
C180 N185 1.328 . S
C180 H186 0.929 . S
C181 C182 1.362 . S
C181 C184 1.378 . S
C181 H196 0.929 . S
C182 C181 1.362 . S
C182 C183 1.366 . S
C183 C180 1.365 . S
C183 C182 1.366 . S
C183 H197 0.930 . S
C184 C181 1.378 . S
C184 N185 1.315 . S
C184 H187 0.930 . S
N185 Co165 2.194 . S
N185 C180 1.328 . S
N185 C184 1.315 . S
H186 C180 0.929 . S
H187 C184 0.930 . S
H188 C176 0.929 . S
H189 C178 0.929 . S
O190 Co165 2.351 . S
O190 C193 1.244 . S
O191 Co165 2.155 . S
O191 C193 1.240 . S
O192 Co165 2.096 . S
O192 C173 1.247 . S
C193 O190 1.244 . S
C193 O191 1.240 . S
H194 C168 0.931 . S
H195 C177 0.931 . S
H196 C181 0.929 . S
H197 C183 0.930 . S
Co198 N202 2.148 . S
Co198 N208 2.128 . S
Co198 N218 2.194 . S
Co198 O223 2.351 . S
Co198 O224 2.155 . S
Co198 O225 2.096 . S
C199 N202 1.301 . S
C199 N203 1.328 . S
C199 H204 0.930 . S
C200 C201 1.333 . S
C200 N202 1.317 . S
C200 H205 0.930 . S
C201 C200 1.333 . S
C201 N203 1.350 . S
C201 H227 0.931 . S
N202 Co198 2.148 . S
N202 C199 1.301 . S
N202 C200 1.317 . S
N203 C199 1.328 . S
N203 C201 1.350 . S
H204 C199 0.930 . S
H205 C200 0.930 . S
C206 O207 1.224 . S
C206 O225 1.247 . S
O207 C206 1.224 . S
N208 Co198 2.128 . S
N208 C209 1.355 . S
N208 C211 1.311 . S
C209 N208 1.355 . S
C209 C210 1.363 . S
C209 H221 0.929 . S
C210 C209 1.363 . S
C210 N212 1.375 . S
C210 H228 0.931 . S
C211 N208 1.311 . S
C211 N212 1.347 . S
C211 H222 0.929 . S
N212 C210 1.375 . S
N212 C211 1.347 . S
C213 C216 1.365 . S
C213 N218 1.328 . S
C213 H219 0.929 . S
C214 C215 1.362 . S
C214 C217 1.378 . S
C214 H229 0.929 . S
C215 C214 1.362 . S
C215 C216 1.366 . S
C216 C213 1.365 . S
C216 C215 1.366 . S
C216 H230 0.930 . S
C217 C214 1.378 . S
C217 N218 1.315 . S
C217 H220 0.930 . S
N218 Co198 2.194 . S
N218 C213 1.328 . S
N218 C217 1.315 . S
H219 C213 0.929 . S
H220 C217 0.930 . S
H221 C209 0.929 . S
H222 C211 0.929 . S
O223 Co198 2.351 . S
O223 C226 1.244 . S
O224 Co198 2.155 . S
O224 C226 1.240 . S
O225 Co198 2.096 . S
O225 C206 1.247 . S
C226 O223 1.244 . S
C226 O224 1.240 . S
H227 C201 0.931 . S
H228 C210 0.931 . S
H229 C214 0.929 . S
H230 C216 0.930 . S
Co231 N235 2.148 . S
Co231 N241 2.128 . S
Co231 N251 2.194 . S
Co231 O256 2.351 . S
Co231 O257 2.155 . S
Co231 O258 2.096 . S
C232 N235 1.301 . S
C232 N236 1.328 . S
C232 H237 0.930 . S
C233 C234 1.333 . S
C233 N235 1.317 . S
C233 H238 0.930 . S
C234 C233 1.333 . S
C234 N236 1.350 . S
C234 H260 0.931 . S
N235 Co231 2.148 . S
N235 C232 1.301 . S
N235 C233 1.317 . S
N236 C232 1.328 . S
N236 C234 1.350 . S
H237 C232 0.930 . S
H238 C233 0.930 . S
C239 O240 1.224 . S
C239 O258 1.247 . S
O240 C239 1.224 . S
N241 Co231 2.128 . S
N241 C242 1.355 . S
N241 C244 1.311 . S
C242 N241 1.355 . S
C242 C243 1.363 . S
C242 H254 0.929 . S
C243 C242 1.363 . S
C243 N245 1.375 . S
C243 H261 0.931 . S
C244 N241 1.311 . S
C244 N245 1.347 . S
C244 H255 0.929 . S
N245 C243 1.375 . S
N245 C244 1.347 . S
C246 C249 1.365 . S
C246 N251 1.328 . S
C246 H252 0.929 . S
C247 C248 1.362 . S
C247 C250 1.378 . S
C247 H262 0.929 . S
C248 C247 1.362 . S
C248 C249 1.366 . S
C249 C246 1.365 . S
C249 C248 1.366 . S
C249 H263 0.930 . S
C250 C247 1.378 . S
C250 N251 1.315 . S
C250 H253 0.930 . S
N251 Co231 2.194 . S
N251 C246 1.328 . S
N251 C250 1.315 . S
H252 C246 0.929 . S
H253 C250 0.930 . S
H254 C242 0.929 . S
H255 C244 0.929 . S
O256 Co231 2.351 . S
O256 C259 1.244 . S
O257 Co231 2.155 . S
O257 C259 1.240 . S
O258 Co231 2.096 . S
O258 C239 1.247 . S
C259 O256 1.244 . S
C259 O257 1.240 . S
H260 C234 0.931 . S
H261 C243 0.931 . S
H262 C247 0.929 . S
H263 C249 0.930 . S
Co264 N268 2.148 . S
Co264 N274 2.128 . S
Co264 N284 2.194 1_565 S
Co264 O289 2.351 1_565 S
Co264 O290 2.155 . S
Co264 O291 2.096 . S
C265 N268 1.301 1_545 S
C265 N269 1.328 . S
C265 H270 0.930 . S
C266 C267 1.333 . S
C266 N268 1.317 . S
C266 H271 0.930 . S
C267 C266 1.333 . S
C267 N269 1.350 1_565 S
C267 H293 0.931 . S
N268 Co264 2.148 . S
N268 C265 1.301 1_565 S
N268 C266 1.317 . S
N269 C265 1.328 . S
N269 C267 1.350 1_545 S
H270 C265 0.930 . S
H271 C266 0.930 . S
C272 O273 1.224 . S
C272 O291 1.247 . S
O273 C272 1.224 . S
N274 Co264 2.128 . S
N274 C275 1.355 1_565 S
N274 C277 1.311 . S
C275 N274 1.355 1_545 S
C275 C276 1.363 . S
C275 H287 0.929 . S
C276 C275 1.363 . S
C276 N278 1.375 1_545 S
C276 H294 0.931 . S
C277 N274 1.311 . S
C277 N278 1.347 . S
C277 H288 0.929 . S
N278 C276 1.375 1_565 S
N278 C277 1.347 . S
C279 C282 1.365 . S
C279 N284 1.328 . S
C279 H285 0.929 . S
C280 C281 1.362 . S
C280 C283 1.378 . S
C280 H295 0.929 . S
C281 C280 1.362 . S
C281 C282 1.366 . S
C282 C279 1.365 . S
C282 C281 1.366 . S
C282 H296 0.930 . S
C283 C280 1.378 . S
C283 N284 1.315 . S
C283 H286 0.930 . S
N284 Co264 2.194 1_545 S
N284 C279 1.328 . S
N284 C283 1.315 . S
H285 C279 0.929 . S
H286 C283 0.930 . S
H287 C275 0.929 . S
H288 C277 0.929 . S
O289 Co264 2.351 1_545 S
O289 C292 1.244 1_545 S
O290 Co264 2.155 . S
O290 C292 1.240 . S
O291 Co264 2.096 . S
O291 C272 1.247 . S
C292 O289 1.244 1_565 S
C292 O290 1.240 . S
H293 C267 0.931 . S
H294 C276 0.931 . S
H295 C280 0.929 . S
H296 C282 0.930 . S
Co297 N301 2.148 . S
Co297 N307 2.128 . S
Co297 N317 2.194 . S
Co297 O322 2.351 . S
Co297 O323 2.155 . S
Co297 O324 2.096 . S
C298 N301 1.301 . S
C298 N302 1.328 . S
C298 H303 0.930 . S
C299 C300 1.333 . S
C299 N301 1.317 . S
C299 H304 0.930 . S
C300 C299 1.333 . S
C300 N302 1.350 . S
C300 H326 0.931 . S
N301 Co297 2.148 . S
N301 C298 1.301 . S
N301 C299 1.317 . S
N302 C298 1.328 . S
N302 C300 1.350 . S
H303 C298 0.930 . S
H304 C299 0.930 . S
C305 O306 1.224 . S
C305 O324 1.247 . S
O306 C305 1.224 . S
N307 Co297 2.128 . S
N307 C308 1.355 . S
N307 C310 1.311 . S
C308 N307 1.355 . S
C308 C309 1.363 . S
C308 H320 0.929 . S
C309 C308 1.363 . S
C309 N311 1.375 . S
C309 H327 0.931 . S
C310 N307 1.311 . S
C310 N311 1.347 . S
C310 H321 0.929 . S
N311 C309 1.375 . S
N311 C310 1.347 . S
C312 C315 1.365 . S
C312 N317 1.328 . S
C312 H318 0.929 . S
C313 C314 1.362 . S
C313 C316 1.378 . S
C313 H328 0.929 . S
C314 C313 1.362 . S
C314 C315 1.366 . S
C315 C312 1.365 . S
C315 C314 1.366 . S
C315 H329 0.930 . S
C316 C313 1.378 . S
C316 N317 1.315 . S
C316 H319 0.930 . S
N317 Co297 2.194 . S
N317 C312 1.328 . S
N317 C316 1.315 . S
H318 C312 0.929 . S
H319 C316 0.930 . S
H320 C308 0.929 . S
H321 C310 0.929 . S
O322 Co297 2.351 . S
O322 C325 1.244 . S
O323 Co297 2.155 . S
O323 C325 1.240 . S
O324 Co297 2.096 . S
O324 C305 1.247 . S
C325 O322 1.244 . S
C325 O323 1.240 . S
H326 C300 0.931 . S
H327 C309 0.931 . S
H328 C313 0.929 . S
H329 C315 0.930 . S
Co330 N334 2.148 . S
Co330 N340 2.128 . S
Co330 N350 2.194 1_545 S
Co330 O355 2.351 1_545 S
Co330 O356 2.155 . S
Co330 O357 2.096 . S
C331 N334 1.301 1_565 S
C331 N335 1.328 . S
C331 H336 0.930 . S
C332 C333 1.333 . S
C332 N334 1.317 . S
C332 H337 0.930 . S
C333 C332 1.333 . S
C333 N335 1.350 1_545 S
C333 H359 0.931 . S
N334 Co330 2.148 . S
N334 C331 1.301 1_545 S
N334 C332 1.317 . S
N335 C331 1.328 . S
N335 C333 1.350 1_565 S
H336 C331 0.930 . S
H337 C332 0.930 . S
C338 O339 1.224 . S
C338 O357 1.247 . S
O339 C338 1.224 . S
N340 Co330 2.128 . S
N340 C341 1.355 1_545 S
N340 C343 1.311 . S
C341 N340 1.355 1_565 S
C341 C342 1.363 . S
C341 H353 0.929 . S
C342 C341 1.363 . S
C342 N344 1.375 1_565 S
C342 H360 0.931 . S
C343 N340 1.311 . S
C343 N344 1.347 . S
C343 H354 0.929 . S
N344 C342 1.375 1_545 S
N344 C343 1.347 . S
C345 C348 1.365 . S
C345 N350 1.328 . S
C345 H351 0.929 . S
C346 C347 1.362 . S
C346 C349 1.378 . S
C346 H361 0.929 . S
C347 C346 1.362 . S
C347 C348 1.366 . S
C348 C345 1.365 . S
C348 C347 1.366 . S
C348 H362 0.930 . S
C349 C346 1.378 . S
C349 N350 1.315 . S
C349 H352 0.930 . S
N350 Co330 2.194 1_565 S
N350 C345 1.328 . S
N350 C349 1.315 . S
H351 C345 0.929 . S
H352 C349 0.930 . S
H353 C341 0.929 . S
H354 C343 0.929 . S
O355 Co330 2.351 1_565 S
O355 C358 1.244 1_565 S
O356 Co330 2.155 . S
O356 C358 1.240 . S
O357 Co330 2.096 . S
O357 C338 1.247 . S
C358 O355 1.244 1_545 S
C358 O356 1.240 . S
H359 C333 0.931 . S
H360 C342 0.931 . S
H361 C346 0.929 . S
H362 C348 0.930 . S
Co363 N367 2.148 . S
Co363 N373 2.128 . S
Co363 N383 2.194 . S
Co363 O388 2.351 . S
Co363 O389 2.155 . S
Co363 O390 2.096 . S
C364 N367 1.301 . S
C364 N368 1.328 . S
C364 H369 0.930 . S
C365 C366 1.333 . S
C365 N367 1.317 . S
C365 H370 0.930 . S
C366 C365 1.333 . S
C366 N368 1.350 . S
C366 H392 0.931 . S
N367 Co363 2.148 . S
N367 C364 1.301 . S
N367 C365 1.317 . S
N368 C364 1.328 . S
N368 C366 1.350 . S
H369 C364 0.930 . S
H370 C365 0.930 . S
C371 O372 1.224 . S
C371 O390 1.247 . S
O372 C371 1.224 . S
N373 Co363 2.128 . S
N373 C374 1.355 . S
N373 C376 1.311 . S
C374 N373 1.355 . S
C374 C375 1.363 . S
C374 H386 0.929 . S
C375 C374 1.363 . S
C375 N377 1.375 . S
C375 H393 0.931 . S
C376 N373 1.311 . S
C376 N377 1.347 . S
C376 H387 0.929 . S
N377 C375 1.375 . S
N377 C376 1.347 . S
C378 C381 1.365 . S
C378 N383 1.328 . S
C378 H384 0.929 . S
C379 C380 1.362 . S
C379 C382 1.378 . S
C379 H394 0.929 . S
C380 C379 1.362 . S
C380 C381 1.366 . S
C381 C378 1.365 . S
C381 C380 1.366 . S
C381 H395 0.930 . S
C382 C379 1.378 . S
C382 N383 1.315 . S
C382 H385 0.930 . S
N383 Co363 2.194 . S
N383 C378 1.328 . S
N383 C382 1.315 . S
H384 C378 0.929 . S
H385 C382 0.930 . S
H386 C374 0.929 . S
H387 C376 0.929 . S
O388 Co363 2.351 . S
O388 C391 1.244 . S
O389 Co363 2.155 . S
O389 C391 1.240 . S
O390 Co363 2.096 . S
O390 C371 1.247 . S
C391 O388 1.244 . S
C391 O389 1.240 . S
H392 C366 0.931 . S
H393 C375 0.931 . S
H394 C379 0.929 . S
H395 C381 0.930 . S
Co396 N400 2.148 . S
Co396 N406 2.128 . S
Co396 N416 2.194 1_545 S
Co396 O421 2.351 1_545 S
Co396 O422 2.155 . S
Co396 O423 2.096 . S
C397 N400 1.301 1_565 S
C397 N401 1.328 . S
C397 H402 0.930 . S
C398 C399 1.333 . S
C398 N400 1.317 . S
C398 H403 0.930 . S
C399 C398 1.333 . S
C399 N401 1.350 1_545 S
C399 H425 0.931 . S
N400 Co396 2.148 . S
N400 C397 1.301 1_545 S
N400 C398 1.317 . S
N401 C397 1.328 . S
N401 C399 1.350 1_565 S
H402 C397 0.930 . S
H403 C398 0.930 . S
C404 O405 1.224 . S
C404 O423 1.247 . S
O405 C404 1.224 . S
N406 Co396 2.128 . S
N406 C407 1.355 1_545 S
N406 C409 1.311 . S
C407 N406 1.355 1_565 S
C407 C408 1.363 . S
C407 H419 0.929 . S
C408 C407 1.363 . S
C408 N410 1.375 1_565 S
C408 H426 0.931 . S
C409 N406 1.311 . S
C409 N410 1.347 . S
C409 H420 0.929 . S
N410 C408 1.375 1_545 S
N410 C409 1.347 . S
C411 C414 1.365 . S
C411 N416 1.328 . S
C411 H417 0.929 . S
C412 C413 1.362 . S
C412 C415 1.378 . S
C412 H427 0.929 . S
C413 C412 1.362 . S
C413 C414 1.366 . S
C414 C411 1.365 . S
C414 C413 1.366 . S
C414 H428 0.930 . S
C415 C412 1.378 . S
C415 N416 1.315 . S
C415 H418 0.930 . S
N416 Co396 2.194 1_565 S
N416 C411 1.328 . S
N416 C415 1.315 . S
H417 C411 0.929 . S
H418 C415 0.930 . S
H419 C407 0.929 . S
H420 C409 0.929 . S
O421 Co396 2.351 1_565 S
O421 C424 1.244 1_565 S
O422 Co396 2.155 . S
O422 C424 1.240 . S
O423 Co396 2.096 . S
O423 C404 1.247 . S
C424 O421 1.244 1_545 S
C424 O422 1.240 . S
H425 C399 0.931 . S
H426 C408 0.931 . S
H427 C412 0.929 . S
H428 C414 0.930 . S
Co429 N433 2.148 . S
Co429 N439 2.128 . S
Co429 N449 2.194 . S
Co429 O454 2.351 . S
Co429 O455 2.155 . S
Co429 O456 2.096 . S
C430 N433 1.301 . S
C430 N434 1.328 . S
C430 H435 0.930 . S
C431 C432 1.333 . S
C431 N433 1.317 . S
C431 H436 0.930 . S
C432 C431 1.333 . S
C432 N434 1.350 . S
C432 H458 0.931 . S
N433 Co429 2.148 . S
N433 C430 1.301 . S
N433 C431 1.317 . S
N434 C430 1.328 . S
N434 C432 1.350 . S
H435 C430 0.930 . S
H436 C431 0.930 . S
C437 O438 1.224 . S
C437 O456 1.247 . S
O438 C437 1.224 . S
N439 Co429 2.128 . S
N439 C440 1.355 . S
N439 C442 1.311 . S
C440 N439 1.355 . S
C440 C441 1.363 . S
C440 H452 0.929 . S
C441 C440 1.363 . S
C441 N443 1.375 . S
C441 H459 0.931 . S
C442 N439 1.311 . S
C442 N443 1.347 . S
C442 H453 0.929 . S
N443 C441 1.375 . S
N443 C442 1.347 . S
C444 C447 1.365 . S
C444 N449 1.328 . S
C444 H450 0.929 . S
C445 C446 1.362 . S
C445 C448 1.378 . S
C445 H460 0.929 . S
C446 C445 1.362 . S
C446 C447 1.366 . S
C447 C444 1.365 . S
C447 C446 1.366 . S
C447 H461 0.930 . S
C448 C445 1.378 . S
C448 N449 1.315 . S
C448 H451 0.930 . S
N449 Co429 2.194 . S
N449 C444 1.328 . S
N449 C448 1.315 . S
H450 C444 0.929 . S
H451 C448 0.930 . S
H452 C440 0.929 . S
H453 C442 0.929 . S
O454 Co429 2.351 . S
O454 C457 1.244 . S
O455 Co429 2.155 . S
O455 C457 1.240 . S
O456 Co429 2.096 . S
O456 C437 1.247 . S
C457 O454 1.244 . S
C457 O455 1.240 . S
H458 C432 0.931 . S
H459 C441 0.931 . S
H460 C445 0.929 . S
H461 C447 0.930 . S
Co462 N466 2.148 . S
Co462 N472 2.128 . S
Co462 N482 2.194 1_565 S
Co462 O487 2.351 1_565 S
Co462 O488 2.155 . S
Co462 O489 2.096 . S
C463 N466 1.301 1_545 S
C463 N467 1.328 . S
C463 H468 0.930 . S
C464 C465 1.333 . S
C464 N466 1.317 . S
C464 H469 0.930 . S
C465 C464 1.333 . S
C465 N467 1.350 1_565 S
C465 H491 0.931 . S
N466 Co462 2.148 . S
N466 C463 1.301 1_565 S
N466 C464 1.317 . S
N467 C463 1.328 . S
N467 C465 1.350 1_545 S
H468 C463 0.930 . S
H469 C464 0.930 . S
C470 O471 1.224 . S
C470 O489 1.247 . S
O471 C470 1.224 . S
N472 Co462 2.128 . S
N472 C473 1.355 1_565 S
N472 C475 1.311 . S
C473 N472 1.355 1_545 S
C473 C474 1.363 . S
C473 H485 0.929 . S
C474 C473 1.363 . S
C474 N476 1.375 1_545 S
C474 H492 0.931 . S
C475 N472 1.311 . S
C475 N476 1.347 . S
C475 H486 0.929 . S
N476 C474 1.375 1_565 S
N476 C475 1.347 . S
C477 C480 1.365 . S
C477 N482 1.328 . S
C477 H483 0.929 . S
C478 C479 1.362 . S
C478 C481 1.378 . S
C478 H493 0.929 . S
C479 C478 1.362 . S
C479 C480 1.366 . S
C480 C477 1.365 . S
C480 C479 1.366 . S
C480 H494 0.930 . S
C481 C478 1.378 . S
C481 N482 1.315 . S
C481 H484 0.930 . S
N482 Co462 2.194 1_545 S
N482 C477 1.328 . S
N482 C481 1.315 . S
H483 C477 0.929 . S
H484 C481 0.930 . S
H485 C473 0.929 . S
H486 C475 0.929 . S
O487 Co462 2.351 1_545 S
O487 C490 1.244 1_545 S
O488 Co462 2.155 . S
O488 C490 1.240 . S
O489 Co462 2.096 . S
O489 C470 1.247 . S
C490 O487 1.244 1_565 S
C490 O488 1.240 . S
H491 C465 0.931 . S
H492 C474 0.931 . S
H493 C478 0.929 . S
H494 C480 0.930 . S
Co495 N499 2.148 . S
Co495 N505 2.128 . S
Co495 N515 2.194 . S
Co495 O520 2.351 . S
Co495 O521 2.155 . S
Co495 O522 2.096 . S
C496 N499 1.301 . S
C496 N500 1.328 . S
C496 H501 0.930 . S
C497 C498 1.333 . S
C497 N499 1.317 . S
C497 H502 0.930 . S
C498 C497 1.333 . S
C498 N500 1.350 . S
C498 H524 0.931 . S
N499 Co495 2.148 . S
N499 C496 1.301 . S
N499 C497 1.317 . S
N500 C496 1.328 . S
N500 C498 1.350 . S
H501 C496 0.930 . S
H502 C497 0.930 . S
C503 O504 1.224 . S
C503 O522 1.247 . S
O504 C503 1.224 . S
N505 Co495 2.128 . S
N505 C506 1.355 . S
N505 C508 1.311 . S
C506 N505 1.355 . S
C506 C507 1.363 . S
C506 H518 0.929 . S
C507 C506 1.363 . S
C507 N509 1.375 . S
C507 H525 0.931 . S
C508 N505 1.311 . S
C508 N509 1.347 . S
C508 H519 0.929 . S
N509 C507 1.375 . S
N509 C508 1.347 . S
C510 C513 1.365 . S
C510 N515 1.328 . S
C510 H516 0.929 . S
C511 C512 1.362 . S
C511 C514 1.378 . S
C511 H526 0.929 . S
C512 C511 1.362 . S
C512 C513 1.366 . S
C513 C510 1.365 . S
C513 C512 1.366 . S
C513 H527 0.930 . S
C514 C511 1.378 . S
C514 N515 1.315 . S
C514 H517 0.930 . S
N515 Co495 2.194 . S
N515 C510 1.328 . S
N515 C514 1.315 . S
H516 C510 0.929 . S
H517 C514 0.930 . S
H518 C506 0.929 . S
H519 C508 0.929 . S
O520 Co495 2.351 . S
O520 C523 1.244 . S
O521 Co495 2.155 . S
O521 C523 1.240 . S
O522 Co495 2.096 . S
O522 C503 1.247 . S
C523 O520 1.244 . S
C523 O521 1.240 . S
H524 C498 0.931 . S
H525 C507 0.931 . S
H526 C511 0.929 . S
H527 C513 0.930 . S
Co528 N532 2.148 . S
Co528 N538 2.128 . S
Co528 N548 2.194 1_556 S
Co528 O553 2.351 1_556 S
Co528 O554 2.155 . S
Co528 O555 2.096 . S
C529 N532 1.301 1_554 S
C529 N533 1.328 . S
C529 H534 0.930 . S
C530 C531 1.333 . S
C530 N532 1.317 . S
C530 H535 0.930 . S
C531 C530 1.333 . S
C531 N533 1.350 1_556 S
C531 H557 0.931 . S
N532 Co528 2.148 . S
N532 C529 1.301 1_556 S
N532 C530 1.317 . S
N533 C529 1.328 . S
N533 C531 1.350 1_554 S
H534 C529 0.930 . S
H535 C530 0.930 . S
C536 O537 1.224 . S
C536 O555 1.247 . S
O537 C536 1.224 . S
N538 Co528 2.128 . S
N538 C539 1.355 1_556 S
N538 C541 1.311 . S
C539 N538 1.355 1_554 S
C539 C540 1.363 . S
C539 H551 0.929 . S
C540 C539 1.363 . S
C540 N542 1.375 1_554 S
C540 H558 0.931 . S
C541 N538 1.311 . S
C541 N542 1.347 . S
C541 H552 0.929 . S
N542 C540 1.375 1_556 S
N542 C541 1.347 . S
C543 C546 1.365 . S
C543 N548 1.328 . S
C543 H549 0.929 . S
C544 C545 1.362 . S
C544 C547 1.378 . S
C544 H559 0.929 . S
C545 C544 1.362 . S
C545 C546 1.366 . S
C546 C543 1.365 . S
C546 C545 1.366 . S
C546 H560 0.930 . S
C547 C544 1.378 . S
C547 N548 1.315 . S
C547 H550 0.930 . S
N548 Co528 2.194 1_554 S
N548 C543 1.328 . S
N548 C547 1.315 . S
H549 C543 0.929 . S
H550 C547 0.930 . S
H551 C539 0.929 . S
H552 C541 0.929 . S
O553 Co528 2.351 1_554 S
O553 C556 1.244 1_554 S
O554 Co528 2.155 . S
O554 C556 1.240 . S
O555 Co528 2.096 . S
O555 C536 1.247 . S
C556 O553 1.244 1_556 S
C556 O554 1.240 . S
H557 C531 0.931 . S
H558 C540 0.931 . S
H559 C544 0.929 . S
H560 C546 0.930 . S
Co561 N565 2.148 . S
Co561 N571 2.128 . S
Co561 N581 2.194 1_554 S
Co561 O586 2.351 1_554 S
Co561 O587 2.155 . S
Co561 O588 2.096 . S
C562 N565 1.301 1_556 S
C562 N566 1.328 . S
C562 H567 0.930 . S
C563 C564 1.333 . S
C563 N565 1.317 . S
C563 H568 0.930 . S
C564 C563 1.333 . S
C564 N566 1.350 1_554 S
C564 H590 0.931 . S
N565 Co561 2.148 . S
N565 C562 1.301 1_554 S
N565 C563 1.317 . S
N566 C562 1.328 . S
N566 C564 1.350 1_556 S
H567 C562 0.930 . S
H568 C563 0.930 . S
C569 O570 1.224 . S
C569 O588 1.247 . S
O570 C569 1.224 . S
N571 Co561 2.128 . S
N571 C572 1.355 1_554 S
N571 C574 1.311 . S
C572 N571 1.355 1_556 S
C572 C573 1.363 . S
C572 H584 0.929 . S
C573 C572 1.363 . S
C573 N575 1.375 1_556 S
C573 H591 0.931 . S
C574 N571 1.311 . S
C574 N575 1.347 . S
C574 H585 0.929 . S
N575 C573 1.375 1_554 S
N575 C574 1.347 . S
C576 C579 1.365 . S
C576 N581 1.328 . S
C576 H582 0.929 . S
C577 C578 1.362 . S
C577 C580 1.378 . S
C577 H592 0.929 . S
C578 C577 1.362 . S
C578 C579 1.366 . S
C579 C576 1.365 . S
C579 C578 1.366 . S
C579 H593 0.930 . S
C580 C577 1.378 . S
C580 N581 1.315 . S
C580 H583 0.930 . S
N581 Co561 2.194 1_556 S
N581 C576 1.328 . S
N581 C580 1.315 . S
H582 C576 0.929 . S
H583 C580 0.930 . S
H584 C572 0.929 . S
H585 C574 0.929 . S
O586 Co561 2.351 1_556 S
O586 C589 1.244 1_556 S
O587 Co561 2.155 . S
O587 C589 1.240 . S
O588 Co561 2.096 . S
O588 C569 1.247 . S
C589 O586 1.244 1_554 S
C589 O587 1.240 . S
H590 C564 0.931 . S
H591 C573 0.931 . S
H592 C577 0.929 . S
H593 C579 0.930 . S
Co594 N598 2.148 . S
Co594 N604 2.128 . S
Co594 N614 2.194 . S
Co594 O619 2.351 . S
Co594 O620 2.155 . S
Co594 O621 2.096 . S
C595 N598 1.301 . S
C595 N599 1.328 . S
C595 H600 0.930 . S
C596 C597 1.333 . S
C596 N598 1.317 . S
C596 H601 0.930 . S
C597 C596 1.333 . S
C597 N599 1.350 . S
C597 H623 0.931 . S
N598 Co594 2.148 . S
N598 C595 1.301 . S
N598 C596 1.317 . S
N599 C595 1.328 . S
N599 C597 1.350 . S
H600 C595 0.930 . S
H601 C596 0.930 . S
C602 O603 1.224 . S
C602 O621 1.247 . S
O603 C602 1.224 . S
N604 Co594 2.128 . S
N604 C605 1.355 . S
N604 C607 1.311 . S
C605 N604 1.355 . S
C605 C606 1.363 . S
C605 H617 0.929 . S
C606 C605 1.363 . S
C606 N608 1.375 . S
C606 H624 0.931 . S
C607 N604 1.311 . S
C607 N608 1.347 . S
C607 H618 0.929 . S
N608 C606 1.375 . S
N608 C607 1.347 . S
C609 C612 1.365 . S
C609 N614 1.328 . S
C609 H615 0.929 . S
C610 C611 1.362 . S
C610 C613 1.378 . S
C610 H625 0.929 . S
C611 C610 1.362 . S
C611 C612 1.366 . S
C612 C609 1.365 . S
C612 C611 1.366 . S
C612 H626 0.930 . S
C613 C610 1.378 . S
C613 N614 1.315 . S
C613 H616 0.930 . S
N614 Co594 2.194 . S
N614 C609 1.328 . S
N614 C613 1.315 . S
H615 C609 0.929 . S
H616 C613 0.930 . S
H617 C605 0.929 . S
H618 C607 0.929 . S
O619 Co594 2.351 . S
O619 C622 1.244 . S
O620 Co594 2.155 . S
O620 C622 1.240 . S
O621 Co594 2.096 . S
O621 C602 1.247 . S
C622 O619 1.244 . S
C622 O620 1.240 . S
H623 C597 0.931 . S
H624 C606 0.931 . S
H625 C610 0.929 . S
H626 C612 0.930 . S
Co627 N631 2.148 . S
Co627 N637 2.128 . S
Co627 N647 2.194 . S
Co627 O652 2.351 . S
Co627 O653 2.155 . S
Co627 O654 2.096 . S
C628 N631 1.301 . S
C628 N632 1.328 . S
C628 H633 0.930 . S
C629 C630 1.333 . S
C629 N631 1.317 . S
C629 H634 0.930 . S
C630 C629 1.333 . S
C630 N632 1.350 . S
C630 H656 0.931 . S
N631 Co627 2.148 . S
N631 C628 1.301 . S
N631 C629 1.317 . S
N632 C628 1.328 . S
N632 C630 1.350 . S
H633 C628 0.930 . S
H634 C629 0.930 . S
C635 O636 1.224 . S
C635 O654 1.247 . S
O636 C635 1.224 . S
N637 Co627 2.128 . S
N637 C638 1.355 . S
N637 C640 1.311 . S
C638 N637 1.355 . S
C638 C639 1.363 . S
C638 H650 0.929 . S
C639 C638 1.363 . S
C639 N641 1.375 . S
C639 H657 0.931 . S
C640 N637 1.311 . S
C640 N641 1.347 . S
C640 H651 0.929 . S
N641 C639 1.375 . S
N641 C640 1.347 . S
C642 C645 1.365 . S
C642 N647 1.328 . S
C642 H648 0.929 . S
C643 C644 1.362 . S
C643 C646 1.378 . S
C643 H658 0.929 . S
C644 C643 1.362 . S
C644 C645 1.366 . S
C645 C642 1.365 . S
C645 C644 1.366 . S
C645 H659 0.930 . S
C646 C643 1.378 . S
C646 N647 1.315 . S
C646 H649 0.930 . S
N647 Co627 2.194 . S
N647 C642 1.328 . S
N647 C646 1.315 . S
H648 C642 0.929 . S
H649 C646 0.930 . S
H650 C638 0.929 . S
H651 C640 0.929 . S
O652 Co627 2.351 . S
O652 C655 1.244 . S
O653 Co627 2.155 . S
O653 C655 1.240 . S
O654 Co627 2.096 . S
O654 C635 1.247 . S
C655 O652 1.244 . S
C655 O653 1.240 . S
H656 C630 0.931 . S
H657 C639 0.931 . S
H658 C643 0.929 . S
H659 C645 0.930 . S
Co660 N664 2.148 . S
Co660 N670 2.128 . S
Co660 N680 2.194 . S
Co660 O685 2.351 . S
Co660 O686 2.155 . S
Co660 O687 2.096 . S
C661 N664 1.301 . S
C661 N665 1.328 . S
C661 H666 0.930 . S
C662 C663 1.333 . S
C662 N664 1.317 . S
C662 H667 0.930 . S
C663 C662 1.333 . S
C663 N665 1.350 . S
C663 H689 0.931 . S
N664 Co660 2.148 . S
N664 C661 1.301 . S
N664 C662 1.317 . S
N665 C661 1.328 . S
N665 C663 1.350 . S
H666 C661 0.930 . S
H667 C662 0.930 . S
C668 O669 1.224 . S
C668 O687 1.247 . S
O669 C668 1.224 . S
N670 Co660 2.128 . S
N670 C671 1.355 . S
N670 C673 1.311 . S
C671 N670 1.355 . S
C671 C672 1.363 . S
C671 H683 0.929 . S
C672 C671 1.363 . S
C672 N674 1.375 . S
C672 H690 0.931 . S
C673 N670 1.311 . S
C673 N674 1.347 . S
C673 H684 0.929 . S
N674 C672 1.375 . S
N674 C673 1.347 . S
C675 C678 1.365 . S
C675 N680 1.328 . S
C675 H681 0.929 . S
C676 C677 1.362 . S
C676 C679 1.378 . S
C676 H691 0.929 . S
C677 C676 1.362 . S
C677 C678 1.366 . S
C678 C675 1.365 . S
C678 C677 1.366 . S
C678 H692 0.930 . S
C679 C676 1.378 . S
C679 N680 1.315 . S
C679 H682 0.930 . S
N680 Co660 2.194 . S
N680 C675 1.328 . S
N680 C679 1.315 . S
H681 C675 0.929 . S
H682 C679 0.930 . S
H683 C671 0.929 . S
H684 C673 0.929 . S
O685 Co660 2.351 . S
O685 C688 1.244 . S
O686 Co660 2.155 . S
O686 C688 1.240 . S
O687 Co660 2.096 . S
O687 C668 1.247 . S
C688 O685 1.244 . S
C688 O686 1.240 . S
H689 C663 0.931 . S
H690 C672 0.931 . S
H691 C676 0.929 . S
H692 C678 0.930 . S
Co693 N697 2.148 . S
Co693 N703 2.128 . S
Co693 N713 2.194 . S
Co693 O718 2.351 . S
Co693 O719 2.155 . S
Co693 O720 2.096 . S
C694 N697 1.301 . S
C694 N698 1.328 . S
C694 H699 0.930 . S
C695 C696 1.333 . S
C695 N697 1.317 . S
C695 H700 0.930 . S
C696 C695 1.333 . S
C696 N698 1.350 . S
C696 H722 0.931 . S
N697 Co693 2.148 . S
N697 C694 1.301 . S
N697 C695 1.317 . S
N698 C694 1.328 . S
N698 C696 1.350 . S
H699 C694 0.930 . S
H700 C695 0.930 . S
C701 O702 1.224 . S
C701 O720 1.247 . S
O702 C701 1.224 . S
N703 Co693 2.128 . S
N703 C704 1.355 . S
N703 C706 1.311 . S
C704 N703 1.355 . S
C704 C705 1.363 . S
C704 H716 0.929 . S
C705 C704 1.363 . S
C705 N707 1.375 . S
C705 H723 0.931 . S
C706 N703 1.311 . S
C706 N707 1.347 . S
C706 H717 0.929 . S
N707 C705 1.375 . S
N707 C706 1.347 . S
C708 C711 1.365 . S
C708 N713 1.328 . S
C708 H714 0.929 . S
C709 C710 1.362 . S
C709 C712 1.378 . S
C709 H724 0.929 . S
C710 C709 1.362 . S
C710 C711 1.366 . S
C711 C708 1.365 . S
C711 C710 1.366 . S
C711 H725 0.930 . S
C712 C709 1.378 . S
C712 N713 1.315 . S
C712 H715 0.930 . S
N713 Co693 2.194 . S
N713 C708 1.328 . S
N713 C712 1.315 . S
H714 C708 0.929 . S
H715 C712 0.930 . S
H716 C704 0.929 . S
H717 C706 0.929 . S
O718 Co693 2.351 . S
O718 C721 1.244 . S
O719 Co693 2.155 . S
O719 C721 1.240 . S
O720 Co693 2.096 . S
O720 C701 1.247 . S
C721 O718 1.244 . S
C721 O719 1.240 . S
H722 C696 0.931 . S
H723 C705 0.931 . S
H724 C709 0.929 . S
H725 C711 0.930 . S
Co726 N730 2.148 . S
Co726 N736 2.128 . S
Co726 N746 2.194 . S
Co726 O751 2.351 . S
Co726 O752 2.155 . S
Co726 O753 2.096 . S
C727 N730 1.301 . S
C727 N731 1.328 . S
C727 H732 0.930 . S
C728 C729 1.333 . S
C728 N730 1.317 . S
C728 H733 0.930 . S
C729 C728 1.333 . S
C729 N731 1.350 . S
C729 H755 0.931 . S
N730 Co726 2.148 . S
N730 C727 1.301 . S
N730 C728 1.317 . S
N731 C727 1.328 . S
N731 C729 1.350 . S
H732 C727 0.930 . S
H733 C728 0.930 . S
C734 O735 1.224 . S
C734 O753 1.247 . S
O735 C734 1.224 . S
N736 Co726 2.128 . S
N736 C737 1.355 . S
N736 C739 1.311 . S
C737 N736 1.355 . S
C737 C738 1.363 . S
C737 H749 0.929 . S
C738 C737 1.363 . S
C738 N740 1.375 . S
C738 H756 0.931 . S
C739 N736 1.311 . S
C739 N740 1.347 . S
C739 H750 0.929 . S
N740 C738 1.375 . S
N740 C739 1.347 . S
C741 C744 1.365 . S
C741 N746 1.328 . S
C741 H747 0.929 . S
C742 C743 1.362 . S
C742 C745 1.378 . S
C742 H757 0.929 . S
C743 C742 1.362 . S
C743 C744 1.366 . S
C744 C741 1.365 . S
C744 C743 1.366 . S
C744 H758 0.930 . S
C745 C742 1.378 . S
C745 N746 1.315 . S
C745 H748 0.930 . S
N746 Co726 2.194 . S
N746 C741 1.328 . S
N746 C745 1.315 . S
H747 C741 0.929 . S
H748 C745 0.930 . S
H749 C737 0.929 . S
H750 C739 0.929 . S
O751 Co726 2.351 . S
O751 C754 1.244 . S
O752 Co726 2.155 . S
O752 C754 1.240 . S
O753 Co726 2.096 . S
O753 C734 1.247 . S
C754 O751 1.244 . S
C754 O752 1.240 . S
H755 C729 0.931 . S
H756 C738 0.931 . S
H757 C742 0.929 . S
H758 C744 0.930 . S
Co759 N763 2.148 . S
Co759 N769 2.128 . S
Co759 N779 2.194 . S
Co759 O784 2.351 . S
Co759 O785 2.155 . S
Co759 O786 2.096 . S
C760 N763 1.301 . S
C760 N764 1.328 . S
C760 H765 0.930 . S
C761 C762 1.333 . S
C761 N763 1.317 . S
C761 H766 0.930 . S
C762 C761 1.333 . S
C762 N764 1.350 . S
C762 H788 0.931 . S
N763 Co759 2.148 . S
N763 C760 1.301 . S
N763 C761 1.317 . S
N764 C760 1.328 . S
N764 C762 1.350 . S
H765 C760 0.930 . S
H766 C761 0.930 . S
C767 O768 1.224 . S
C767 O786 1.247 . S
O768 C767 1.224 . S
N769 Co759 2.128 . S
N769 C770 1.355 . S
N769 C772 1.311 . S
C770 N769 1.355 . S
C770 C771 1.363 . S
C770 H782 0.929 . S
C771 C770 1.363 . S
C771 N773 1.375 . S
C771 H789 0.931 . S
C772 N769 1.311 . S
C772 N773 1.347 . S
C772 H783 0.929 . S
N773 C771 1.375 . S
N773 C772 1.347 . S
C774 C777 1.365 . S
C774 N779 1.328 . S
C774 H780 0.929 . S
C775 C776 1.362 . S
C775 C778 1.378 . S
C775 H790 0.929 . S
C776 C775 1.362 . S
C776 C777 1.366 . S
C777 C774 1.365 . S
C777 C776 1.366 . S
C777 H791 0.930 . S
C778 C775 1.378 . S
C778 N779 1.315 . S
C778 H781 0.930 . S
N779 Co759 2.194 . S
N779 C774 1.328 . S
N779 C778 1.315 . S
H780 C774 0.929 . S
H781 C778 0.930 . S
H782 C770 0.929 . S
H783 C772 0.929 . S
O784 Co759 2.351 . S
O784 C787 1.244 . S
O785 Co759 2.155 . S
O785 C787 1.240 . S
O786 Co759 2.096 . S
O786 C767 1.247 . S
C787 O784 1.244 . S
C787 O785 1.240 . S
H788 C762 0.931 . S
H789 C771 0.931 . S
H790 C775 0.929 . S
H791 C777 0.930 . S
Co792 N796 2.148 . S
Co792 N802 2.128 . S
Co792 N812 2.194 . S
Co792 O817 2.351 . S
Co792 O818 2.155 . S
Co792 O819 2.096 . S
C793 N796 1.301 . S
C793 N797 1.328 . S
C793 H798 0.930 . S
C794 C795 1.333 . S
C794 N796 1.317 . S
C794 H799 0.930 . S
C795 C794 1.333 . S
C795 N797 1.350 . S
C795 H821 0.931 . S
N796 Co792 2.148 . S
N796 C793 1.301 . S
N796 C794 1.317 . S
N797 C793 1.328 . S
N797 C795 1.350 . S
H798 C793 0.930 . S
H799 C794 0.930 . S
C800 O801 1.224 . S
C800 O819 1.247 . S
O801 C800 1.224 . S
N802 Co792 2.128 . S
N802 C803 1.355 . S
N802 C805 1.311 . S
C803 N802 1.355 . S
C803 C804 1.363 . S
C803 H815 0.929 . S
C804 C803 1.363 . S
C804 N806 1.375 . S
C804 H822 0.931 . S
C805 N802 1.311 . S
C805 N806 1.347 . S
C805 H816 0.929 . S
N806 C804 1.375 . S
N806 C805 1.347 . S
C807 C810 1.365 . S
C807 N812 1.328 . S
C807 H813 0.929 . S
C808 C809 1.362 . S
C808 C811 1.378 . S
C808 H823 0.929 . S
C809 C808 1.362 . S
C809 C810 1.366 . S
C810 C807 1.365 . S
C810 C809 1.366 . S
C810 H824 0.930 . S
C811 C808 1.378 . S
C811 N812 1.315 . S
C811 H814 0.930 . S
N812 Co792 2.194 . S
N812 C807 1.328 . S
N812 C811 1.315 . S
H813 C807 0.929 . S
H814 C811 0.930 . S
H815 C803 0.929 . S
H816 C805 0.929 . S
O817 Co792 2.351 . S
O817 C820 1.244 . S
O818 Co792 2.155 . S
O818 C820 1.240 . S
O819 Co792 2.096 . S
O819 C800 1.247 . S
C820 O817 1.244 . S
C820 O818 1.240 . S
H821 C795 0.931 . S
H822 C804 0.931 . S
H823 C808 0.929 . S
H824 C810 0.930 . S
Co825 N829 2.148 . S
Co825 N835 2.128 . S
Co825 N845 2.194 . S
Co825 O850 2.351 . S
Co825 O851 2.155 . S
Co825 O852 2.096 . S
C826 N829 1.301 . S
C826 N830 1.328 . S
C826 H831 0.930 . S
C827 C828 1.333 . S
C827 N829 1.317 . S
C827 H832 0.930 . S
C828 C827 1.333 . S
C828 N830 1.350 . S
C828 H854 0.931 . S
N829 Co825 2.148 . S
N829 C826 1.301 . S
N829 C827 1.317 . S
N830 C826 1.328 . S
N830 C828 1.350 . S
H831 C826 0.930 . S
H832 C827 0.930 . S
C833 O834 1.224 . S
C833 O852 1.247 . S
O834 C833 1.224 . S
N835 Co825 2.128 . S
N835 C836 1.355 . S
N835 C838 1.311 . S
C836 N835 1.355 . S
C836 C837 1.363 . S
C836 H848 0.929 . S
C837 C836 1.363 . S
C837 N839 1.375 . S
C837 H855 0.931 . S
C838 N835 1.311 . S
C838 N839 1.347 . S
C838 H849 0.929 . S
N839 C837 1.375 . S
N839 C838 1.347 . S
C840 C843 1.365 . S
C840 N845 1.328 . S
C840 H846 0.929 . S
C841 C842 1.362 . S
C841 C844 1.378 . S
C841 H856 0.929 . S
C842 C841 1.362 . S
C842 C843 1.366 . S
C843 C840 1.365 . S
C843 C842 1.366 . S
C843 H857 0.930 . S
C844 C841 1.378 . S
C844 N845 1.315 . S
C844 H847 0.930 . S
N845 Co825 2.194 . S
N845 C840 1.328 . S
N845 C844 1.315 . S
H846 C840 0.929 . S
H847 C844 0.930 . S
H848 C836 0.929 . S
H849 C838 0.929 . S
O850 Co825 2.351 . S
O850 C853 1.244 . S
O851 Co825 2.155 . S
O851 C853 1.240 . S
O852 Co825 2.096 . S
O852 C833 1.247 . S
C853 O850 1.244 . S
C853 O851 1.240 . S
H854 C828 0.931 . S
H855 C837 0.931 . S
H856 C841 0.929 . S
H857 C843 0.930 . S
Co858 N862 2.148 . S
Co858 N868 2.128 . S
Co858 N878 2.194 1_455 S
Co858 O883 2.351 1_455 S
Co858 O884 2.155 . S
Co858 O885 2.096 . S
C859 N862 1.301 1_655 S
C859 N863 1.328 . S
C859 H864 0.930 . S
C860 C861 1.333 . S
C860 N862 1.317 . S
C860 H865 0.930 . S
C861 C860 1.333 . S
C861 N863 1.350 1_455 S
C861 H887 0.931 . S
N862 Co858 2.148 . S
N862 C859 1.301 1_455 S
N862 C860 1.317 . S
N863 C859 1.328 . S
N863 C861 1.350 1_655 S
H864 C859 0.930 . S
H865 C860 0.930 . S
C866 O867 1.224 . S
C866 O885 1.247 . S
O867 C866 1.224 . S
N868 Co858 2.128 . S
N868 C869 1.355 1_455 S
N868 C871 1.311 . S
C869 N868 1.355 1_655 S
C869 C870 1.363 . S
C869 H881 0.929 . S
C870 C869 1.363 . S
C870 N872 1.375 1_655 S
C870 H888 0.931 . S
C871 N868 1.311 . S
C871 N872 1.347 . S
C871 H882 0.929 . S
N872 C870 1.375 1_455 S
N872 C871 1.347 . S
C873 C876 1.365 . S
C873 N878 1.328 . S
C873 H879 0.929 . S
C874 C875 1.362 . S
C874 C877 1.378 . S
C874 H889 0.929 . S
C875 C874 1.362 . S
C875 C876 1.366 . S
C876 C873 1.365 . S
C876 C875 1.366 . S
C876 H890 0.930 . S
C877 C874 1.378 . S
C877 N878 1.315 . S
C877 H880 0.930 . S
N878 Co858 2.194 1_655 S
N878 C873 1.328 . S
N878 C877 1.315 . S
H879 C873 0.929 . S
H880 C877 0.930 . S
H881 C869 0.929 . S
H882 C871 0.929 . S
O883 Co858 2.351 1_655 S
O883 C886 1.244 1_655 S
O884 Co858 2.155 . S
O884 C886 1.240 . S
O885 Co858 2.096 . S
O885 C866 1.247 . S
C886 O883 1.244 1_455 S
C886 O884 1.240 . S
H887 C861 0.931 . S
H888 C870 0.931 . S
H889 C874 0.929 . S
H890 C876 0.930 . S
Co891 N895 2.148 . S
Co891 N901 2.128 . S
Co891 N911 2.194 . S
Co891 O916 2.351 . S
Co891 O917 2.155 . S
Co891 O918 2.096 . S
C892 N895 1.301 . S
C892 N896 1.328 . S
C892 H897 0.930 . S
C893 C894 1.333 . S
C893 N895 1.317 . S
C893 H898 0.930 . S
C894 C893 1.333 . S
C894 N896 1.350 . S
C894 H920 0.931 . S
N895 Co891 2.148 . S
N895 C892 1.301 . S
N895 C893 1.317 . S
N896 C892 1.328 . S
N896 C894 1.350 . S
H897 C892 0.930 . S
H898 C893 0.930 . S
C899 O900 1.224 . S
C899 O918 1.247 . S
O900 C899 1.224 . S
N901 Co891 2.128 . S
N901 C902 1.355 . S
N901 C904 1.311 . S
C902 N901 1.355 . S
C902 C903 1.363 . S
C902 H914 0.929 . S
C903 C902 1.363 . S
C903 N905 1.375 . S
C903 H921 0.931 . S
C904 N901 1.311 . S
C904 N905 1.347 . S
C904 H915 0.929 . S
N905 C903 1.375 . S
N905 C904 1.347 . S
C906 C909 1.365 . S
C906 N911 1.328 . S
C906 H912 0.929 . S
C907 C908 1.362 . S
C907 C910 1.378 . S
C907 H922 0.929 . S
C908 C907 1.362 . S
C908 C909 1.366 . S
C909 C906 1.365 . S
C909 C908 1.366 . S
C909 H923 0.930 . S
C910 C907 1.378 . S
C910 N911 1.315 . S
C910 H913 0.930 . S
N911 Co891 2.194 . S
N911 C906 1.328 . S
N911 C910 1.315 . S
H912 C906 0.929 . S
H913 C910 0.930 . S
H914 C902 0.929 . S
H915 C904 0.929 . S
O916 Co891 2.351 . S
O916 C919 1.244 . S
O917 Co891 2.155 . S
O917 C919 1.240 . S
O918 Co891 2.096 . S
O918 C899 1.247 . S
C919 O916 1.244 . S
C919 O917 1.240 . S
H920 C894 0.931 . S
H921 C903 0.931 . S
H922 C907 0.929 . S
H923 C909 0.930 . S
Co924 N928 2.148 . S
Co924 N934 2.128 . S
Co924 N944 2.194 . S
Co924 O949 2.351 . S
Co924 O950 2.155 . S
Co924 O951 2.096 . S
C925 N928 1.301 . S
C925 N929 1.328 . S
C925 H930 0.930 . S
C926 C927 1.333 . S
C926 N928 1.317 . S
C926 H931 0.930 . S
C927 C926 1.333 . S
C927 N929 1.350 . S
C927 H953 0.931 . S
N928 Co924 2.148 . S
N928 C925 1.301 . S
N928 C926 1.317 . S
N929 C925 1.328 . S
N929 C927 1.350 . S
H930 C925 0.930 . S
H931 C926 0.930 . S
C932 O933 1.224 . S
C932 O951 1.247 . S
O933 C932 1.224 . S
N934 Co924 2.128 . S
N934 C935 1.355 . S
N934 C937 1.311 . S
C935 N934 1.355 . S
C935 C936 1.363 . S
C935 H947 0.929 . S
C936 C935 1.363 . S
C936 N938 1.375 . S
C936 H954 0.931 . S
C937 N934 1.311 . S
C937 N938 1.347 . S
C937 H948 0.929 . S
N938 C936 1.375 . S
N938 C937 1.347 . S
C939 C942 1.365 . S
C939 N944 1.328 . S
C939 H945 0.929 . S
C940 C941 1.362 . S
C940 C943 1.378 . S
C940 H955 0.929 . S
C941 C940 1.362 . S
C941 C942 1.366 . S
C942 C939 1.365 . S
C942 C941 1.366 . S
C942 H956 0.930 . S
C943 C940 1.378 . S
C943 N944 1.315 . S
C943 H946 0.930 . S
N944 Co924 2.194 . S
N944 C939 1.328 . S
N944 C943 1.315 . S
H945 C939 0.929 . S
H946 C943 0.930 . S
H947 C935 0.929 . S
H948 C937 0.929 . S
O949 Co924 2.351 . S
O949 C952 1.244 . S
O950 Co924 2.155 . S
O950 C952 1.240 . S
O951 Co924 2.096 . S
O951 C932 1.247 . S
C952 O949 1.244 . S
C952 O950 1.240 . S
H953 C927 0.931 . S
H954 C936 0.931 . S
H955 C940 0.929 . S
H956 C942 0.930 . S
Co957 N961 2.148 . S
Co957 N967 2.128 . S
Co957 N977 2.194 . S
Co957 O982 2.351 . S
Co957 O983 2.155 . S
Co957 O984 2.096 . S
C958 N961 1.301 . S
C958 N962 1.328 . S
C958 H963 0.930 . S
C959 C960 1.333 . S
C959 N961 1.317 . S
C959 H964 0.930 . S
C960 C959 1.333 . S
C960 N962 1.350 . S
C960 H986 0.931 . S
N961 Co957 2.148 . S
N961 C958 1.301 . S
N961 C959 1.317 . S
N962 C958 1.328 . S
N962 C960 1.350 . S
H963 C958 0.930 . S
H964 C959 0.930 . S
C965 O966 1.224 . S
C965 O984 1.247 . S
O966 C965 1.224 . S
N967 Co957 2.128 . S
N967 C968 1.355 . S
N967 C970 1.311 . S
C968 N967 1.355 . S
C968 C969 1.363 . S
C968 H980 0.929 . S
C969 C968 1.363 . S
C969 N971 1.375 . S
C969 H987 0.931 . S
C970 N967 1.311 . S
C970 N971 1.347 . S
C970 H981 0.929 . S
N971 C969 1.375 . S
N971 C970 1.347 . S
C972 C975 1.365 . S
C972 N977 1.328 . S
C972 H978 0.929 . S
C973 C974 1.362 . S
C973 C976 1.378 . S
C973 H988 0.929 . S
C974 C973 1.362 . S
C974 C975 1.366 . S
C975 C972 1.365 . S
C975 C974 1.366 . S
C975 H989 0.930 . S
C976 C973 1.378 . S
C976 N977 1.315 . S
C976 H979 0.930 . S
N977 Co957 2.194 . S
N977 C972 1.328 . S
N977 C976 1.315 . S
H978 C972 0.929 . S
H979 C976 0.930 . S
H980 C968 0.929 . S
H981 C970 0.929 . S
O982 Co957 2.351 . S
O982 C985 1.244 . S
O983 Co957 2.155 . S
O983 C985 1.240 . S
O984 Co957 2.096 . S
O984 C965 1.247 . S
C985 O982 1.244 . S
C985 O983 1.240 . S
H986 C960 0.931 . S
H987 C969 0.931 . S
H988 C973 0.929 . S
H989 C975 0.930 . S
Co990 N994 2.148 . S
Co990 N1000 2.128 . S
Co990 N1010 2.194 1_455 S
Co990 O1015 2.351 1_455 S
Co990 O1016 2.155 . S
Co990 O1017 2.096 . S
C991 N994 1.301 1_655 S
C991 N995 1.328 . S
C991 H996 0.930 . S
C992 C993 1.333 . S
C992 N994 1.317 . S
C992 H997 0.930 . S
C993 C992 1.333 . S
C993 N995 1.350 1_455 S
C993 H1019 0.931 . S
N994 Co990 2.148 . S
N994 C991 1.301 1_455 S
N994 C992 1.317 . S
N995 C991 1.328 . S
N995 C993 1.350 1_655 S
H996 C991 0.930 . S
H997 C992 0.930 . S
C998 O999 1.224 . S
C998 O1017 1.247 . S
O999 C998 1.224 . S
N1000 Co990 2.128 . S
N1000 C1001 1.355 1_455 S
N1000 C1003 1.311 . S
C1001 N1000 1.355 1_655 S
C1001 C1002 1.363 . S
C1001 H1013 0.929 . S
C1002 C1001 1.363 . S
C1002 N1004 1.375 1_655 S
C1002 H1020 0.931 . S
C1003 N1000 1.311 . S
C1003 N1004 1.347 . S
C1003 H1014 0.929 . S
N1004 C1002 1.375 1_455 S
N1004 C1003 1.347 . S
C1005 C1008 1.365 . S
C1005 N1010 1.328 . S
C1005 H1011 0.929 . S
C1006 C1007 1.362 . S
C1006 C1009 1.378 . S
C1006 H1021 0.929 . S
C1007 C1006 1.362 . S
C1007 C1008 1.366 . S
C1008 C1005 1.365 . S
C1008 C1007 1.366 . S
C1008 H1022 0.930 . S
C1009 C1006 1.378 . S
C1009 N1010 1.315 . S
C1009 H1012 0.930 . S
N1010 Co990 2.194 1_655 S
N1010 C1005 1.328 . S
N1010 C1009 1.315 . S
H1011 C1005 0.929 . S
H1012 C1009 0.930 . S
H1013 C1001 0.929 . S
H1014 C1003 0.929 . S
O1015 Co990 2.351 1_655 S
O1015 C1018 1.244 1_655 S
O1016 Co990 2.155 . S
O1016 C1018 1.240 . S
O1017 Co990 2.096 . S
O1017 C998 1.247 . S
C1018 O1015 1.244 1_455 S
C1018 O1016 1.240 . S
H1019 C993 0.931 . S
H1020 C1002 0.931 . S
H1021 C1006 0.929 . S
H1022 C1008 0.930 . S
Co1023 N1027 2.148 . S
Co1023 N1033 2.128 . S
Co1023 N1043 2.194 . S
Co1023 O1048 2.351 . S
Co1023 O1049 2.155 . S
Co1023 O1050 2.096 . S
C1024 N1027 1.301 . S
C1024 N1028 1.328 . S
C1024 H1029 0.930 . S
C1025 C1026 1.333 . S
C1025 N1027 1.317 . S
C1025 H1030 0.930 . S
C1026 C1025 1.333 . S
C1026 N1028 1.350 . S
C1026 H1052 0.931 . S
N1027 Co1023 2.148 . S
N1027 C1024 1.301 . S
N1027 C1025 1.317 . S
N1028 C1024 1.328 . S
N1028 C1026 1.350 . S
H1029 C1024 0.930 . S
H1030 C1025 0.930 . S
C1031 O1032 1.224 . S
C1031 O1050 1.247 . S
O1032 C1031 1.224 . S
N1033 Co1023 2.128 . S
N1033 C1034 1.355 . S
N1033 C1036 1.311 . S
C1034 N1033 1.355 . S
C1034 C1035 1.363 . S
C1034 H1046 0.929 . S
C1035 C1034 1.363 . S
C1035 N1037 1.375 . S
C1035 H1053 0.931 . S
C1036 N1033 1.311 . S
C1036 N1037 1.347 . S
C1036 H1047 0.929 . S
N1037 C1035 1.375 . S
N1037 C1036 1.347 . S
C1038 C1041 1.365 . S
C1038 N1043 1.328 . S
C1038 H1044 0.929 . S
C1039 C1040 1.362 . S
C1039 C1042 1.378 . S
C1039 H1054 0.929 . S
C1040 C1039 1.362 . S
C1040 C1041 1.366 . S
C1041 C1038 1.365 . S
C1041 C1040 1.366 . S
C1041 H1055 0.930 . S
C1042 C1039 1.378 . S
C1042 N1043 1.315 . S
C1042 H1045 0.930 . S
N1043 Co1023 2.194 . S
N1043 C1038 1.328 . S
N1043 C1042 1.315 . S
H1044 C1038 0.929 . S
H1045 C1042 0.930 . S
H1046 C1034 0.929 . S
H1047 C1036 0.929 . S
O1048 Co1023 2.351 . S
O1048 C1051 1.244 . S
O1049 Co1023 2.155 . S
O1049 C1051 1.240 . S
O1050 Co1023 2.096 . S
O1050 C1031 1.247 . S
C1051 O1048 1.244 . S
C1051 O1049 1.240 . S
H1052 C1026 0.931 . S
H1053 C1035 0.931 . S
H1054 C1039 0.929 . S
H1055 C1041 0.930 . S
Co1056 N1060 2.148 . S
Co1056 N1066 2.128 . S
Co1056 N1076 2.194 . S
Co1056 O1081 2.351 . S
Co1056 O1082 2.155 . S
Co1056 O1083 2.096 . S
C1057 N1060 1.301 . S
C1057 N1061 1.328 . S
C1057 H1062 0.930 . S
C1058 C1059 1.333 . S
C1058 N1060 1.317 . S
C1058 H1063 0.930 . S
C1059 C1058 1.333 . S
C1059 N1061 1.350 . S
C1059 H1085 0.931 . S
N1060 Co1056 2.148 . S
N1060 C1057 1.301 . S
N1060 C1058 1.317 . S
N1061 C1057 1.328 . S
N1061 C1059 1.350 . S
H1062 C1057 0.930 . S
H1063 C1058 0.930 . S
C1064 O1065 1.224 . S
C1064 O1083 1.247 . S
O1065 C1064 1.224 . S
N1066 Co1056 2.128 . S
N1066 C1067 1.355 . S
N1066 C1069 1.311 . S
C1067 N1066 1.355 . S
C1067 C1068 1.363 . S
C1067 H1079 0.929 . S
C1068 C1067 1.363 . S
C1068 N1070 1.375 . S
C1068 H1086 0.931 . S
C1069 N1066 1.311 . S
C1069 N1070 1.347 . S
C1069 H1080 0.929 . S
N1070 C1068 1.375 . S
N1070 C1069 1.347 . S
C1071 C1074 1.365 . S
C1071 N1076 1.328 . S
C1071 H1077 0.929 . S
C1072 C1073 1.362 . S
C1072 C1075 1.378 . S
C1072 H1087 0.929 . S
C1073 C1072 1.362 . S
C1073 C1074 1.366 . S
C1074 C1071 1.365 . S
C1074 C1073 1.366 . S
C1074 H1088 0.930 . S
C1075 C1072 1.378 . S
C1075 N1076 1.315 . S
C1075 H1078 0.930 . S
N1076 Co1056 2.194 . S
N1076 C1071 1.328 . S
N1076 C1075 1.315 . S
H1077 C1071 0.929 . S
H1078 C1075 0.930 . S
H1079 C1067 0.929 . S
H1080 C1069 0.929 . S
O1081 Co1056 2.351 . S
O1081 C1084 1.244 . S
O1082 Co1056 2.155 . S
O1082 C1084 1.240 . S
O1083 Co1056 2.096 . S
O1083 C1064 1.247 . S
C1084 O1081 1.244 . S
C1084 O1082 1.240 . S
H1085 C1059 0.931 . S
H1086 C1068 0.931 . S
H1087 C1072 0.929 . S
H1088 C1074 0.930 . S
Co1089 N1093 2.148 . S
Co1089 N1099 2.128 . S
Co1089 N1109 2.194 . S
Co1089 O1114 2.351 . S
Co1089 O1115 2.155 . S
Co1089 O1116 2.096 . S
C1090 N1093 1.301 . S
C1090 N1094 1.328 . S
C1090 H1095 0.930 . S
C1091 C1092 1.333 . S
C1091 N1093 1.317 . S
C1091 H1096 0.930 . S
C1092 C1091 1.333 . S
C1092 N1094 1.350 . S
C1092 H1118 0.931 . S
N1093 Co1089 2.148 . S
N1093 C1090 1.301 . S
N1093 C1091 1.317 . S
N1094 C1090 1.328 . S
N1094 C1092 1.350 . S
H1095 C1090 0.930 . S
H1096 C1091 0.930 . S
C1097 O1098 1.224 . S
C1097 O1116 1.247 . S
O1098 C1097 1.224 . S
N1099 Co1089 2.128 . S
N1099 C1100 1.355 . S
N1099 C1102 1.311 . S
C1100 N1099 1.355 . S
C1100 C1101 1.363 . S
C1100 H1112 0.929 . S
C1101 C1100 1.363 . S
C1101 N1103 1.375 . S
C1101 H1119 0.931 . S
C1102 N1099 1.311 . S
C1102 N1103 1.347 . S
C1102 H1113 0.929 . S
N1103 C1101 1.375 . S
N1103 C1102 1.347 . S
C1104 C1107 1.365 . S
C1104 N1109 1.328 . S
C1104 H1110 0.929 . S
C1105 C1106 1.362 . S
C1105 C1108 1.378 . S
C1105 H1120 0.929 . S
C1106 C1105 1.362 . S
C1106 C1107 1.366 . S
C1107 C1104 1.365 . S
C1107 C1106 1.366 . S
C1107 H1121 0.930 . S
C1108 C1105 1.378 . S
C1108 N1109 1.315 . S
C1108 H1111 0.930 . S
N1109 Co1089 2.194 . S
N1109 C1104 1.328 . S
N1109 C1108 1.315 . S
H1110 C1104 0.929 . S
H1111 C1108 0.930 . S
H1112 C1100 0.929 . S
H1113 C1102 0.929 . S
O1114 Co1089 2.351 . S
O1114 C1117 1.244 . S
O1115 Co1089 2.155 . S
O1115 C1117 1.240 . S
O1116 Co1089 2.096 . S
O1116 C1097 1.247 . S
C1117 O1114 1.244 . S
C1117 O1115 1.240 . S
H1118 C1092 0.931 . S
H1119 C1101 0.931 . S
H1120 C1105 0.929 . S
H1121 C1107 0.930 . S
Co1122 N1126 2.148 . S
Co1122 N1132 2.128 . S
Co1122 N1142 2.194 . S
Co1122 O1147 2.351 . S
Co1122 O1148 2.155 . S
Co1122 O1149 2.096 . S
C1123 N1126 1.301 . S
C1123 N1127 1.328 . S
C1123 H1128 0.930 . S
C1124 C1125 1.333 . S
C1124 N1126 1.317 . S
C1124 H1129 0.930 . S
C1125 C1124 1.333 . S
C1125 N1127 1.350 . S
C1125 H1151 0.931 . S
N1126 Co1122 2.148 . S
N1126 C1123 1.301 . S
N1126 C1124 1.317 . S
N1127 C1123 1.328 . S
N1127 C1125 1.350 . S
H1128 C1123 0.930 . S
H1129 C1124 0.930 . S
C1130 O1131 1.224 . S
C1130 O1149 1.247 . S
O1131 C1130 1.224 . S
N1132 Co1122 2.128 . S
N1132 C1133 1.355 . S
N1132 C1135 1.311 . S
C1133 N1132 1.355 . S
C1133 C1134 1.363 . S
C1133 H1145 0.929 . S
C1134 C1133 1.363 . S
C1134 N1136 1.375 . S
C1134 H1152 0.931 . S
C1135 N1132 1.311 . S
C1135 N1136 1.347 . S
C1135 H1146 0.929 . S
N1136 C1134 1.375 . S
N1136 C1135 1.347 . S
C1137 C1140 1.365 . S
C1137 N1142 1.328 . S
C1137 H1143 0.929 . S
C1138 C1139 1.362 . S
C1138 C1141 1.378 . S
C1138 H1153 0.929 . S
C1139 C1138 1.362 . S
C1139 C1140 1.366 . S
C1140 C1137 1.365 . S
C1140 C1139 1.366 . S
C1140 H1154 0.930 . S
C1141 C1138 1.378 . S
C1141 N1142 1.315 . S
C1141 H1144 0.930 . S
N1142 Co1122 2.194 . S
N1142 C1137 1.328 . S
N1142 C1141 1.315 . S
H1143 C1137 0.929 . S
H1144 C1141 0.930 . S
H1145 C1133 0.929 . S
H1146 C1135 0.929 . S
O1147 Co1122 2.351 . S
O1147 C1150 1.244 . S
O1148 Co1122 2.155 . S
O1148 C1150 1.240 . S
O1149 Co1122 2.096 . S
O1149 C1130 1.247 . S
C1150 O1147 1.244 . S
C1150 O1148 1.240 . S
H1151 C1125 0.931 . S
H1152 C1134 0.931 . S
H1153 C1138 0.929 . S
H1154 C1140 0.930 . S
Co1155 N1159 2.148 . S
Co1155 N1165 2.128 . S
Co1155 N1175 2.194 . S
Co1155 O1180 2.351 . S
Co1155 O1181 2.155 . S
Co1155 O1182 2.096 . S
C1156 N1159 1.301 . S
C1156 N1160 1.328 . S
C1156 H1161 0.930 . S
C1157 C1158 1.333 . S
C1157 N1159 1.317 . S
C1157 H1162 0.930 . S
C1158 C1157 1.333 . S
C1158 N1160 1.350 . S
C1158 H1184 0.931 . S
N1159 Co1155 2.148 . S
N1159 C1156 1.301 . S
N1159 C1157 1.317 . S
N1160 C1156 1.328 . S
N1160 C1158 1.350 . S
H1161 C1156 0.930 . S
H1162 C1157 0.930 . S
C1163 O1164 1.224 . S
C1163 O1182 1.247 . S
O1164 C1163 1.224 . S
N1165 Co1155 2.128 . S
N1165 C1166 1.355 . S
N1165 C1168 1.311 . S
C1166 N1165 1.355 . S
C1166 C1167 1.363 . S
C1166 H1178 0.929 . S
C1167 C1166 1.363 . S
C1167 N1169 1.375 . S
C1167 H1185 0.931 . S
C1168 N1165 1.311 . S
C1168 N1169 1.347 . S
C1168 H1179 0.929 . S
N1169 C1167 1.375 . S
N1169 C1168 1.347 . S
C1170 C1173 1.365 . S
C1170 N1175 1.328 . S
C1170 H1176 0.929 . S
C1171 C1172 1.362 . S
C1171 C1174 1.378 . S
C1171 H1186 0.929 . S
C1172 C1171 1.362 . S
C1172 C1173 1.366 . S
C1173 C1170 1.365 . S
C1173 C1172 1.366 . S
C1173 H1187 0.930 . S
C1174 C1171 1.378 . S
C1174 N1175 1.315 . S
C1174 H1177 0.930 . S
N1175 Co1155 2.194 . S
N1175 C1170 1.328 . S
N1175 C1174 1.315 . S
H1176 C1170 0.929 . S
H1177 C1174 0.930 . S
H1178 C1166 0.929 . S
H1179 C1168 0.929 . S
O1180 Co1155 2.351 . S
O1180 C1183 1.244 . S
O1181 Co1155 2.155 . S
O1181 C1183 1.240 . S
O1182 Co1155 2.096 . S
O1182 C1163 1.247 . S
C1183 O1180 1.244 . S
C1183 O1181 1.240 . S
H1184 C1158 0.931 . S
H1185 C1167 0.931 . S
H1186 C1171 0.929 . S
H1187 C1173 0.930 . S
Co1188 N1192 2.148 . S
Co1188 N1198 2.128 . S
Co1188 N1208 2.194 . S
Co1188 O1213 2.351 . S
Co1188 O1214 2.155 . S
Co1188 O1215 2.096 . S
C1189 N1192 1.301 . S
C1189 N1193 1.328 . S
C1189 H1194 0.930 . S
C1190 C1191 1.333 . S
C1190 N1192 1.317 . S
C1190 H1195 0.930 . S
C1191 C1190 1.333 . S
C1191 N1193 1.350 . S
C1191 H1217 0.931 . S
N1192 Co1188 2.148 . S
N1192 C1189 1.301 . S
N1192 C1190 1.317 . S
N1193 C1189 1.328 . S
N1193 C1191 1.350 . S
H1194 C1189 0.930 . S
H1195 C1190 0.930 . S
C1196 O1197 1.224 . S
C1196 O1215 1.247 . S
O1197 C1196 1.224 . S
N1198 Co1188 2.128 . S
N1198 C1199 1.355 . S
N1198 C1201 1.311 . S
C1199 N1198 1.355 . S
C1199 C1200 1.363 . S
C1199 H1211 0.929 . S
C1200 C1199 1.363 . S
C1200 N1202 1.375 . S
C1200 H1218 0.931 . S
C1201 N1198 1.311 . S
C1201 N1202 1.347 . S
C1201 H1212 0.929 . S
N1202 C1200 1.375 . S
N1202 C1201 1.347 . S
C1203 C1206 1.365 . S
C1203 N1208 1.328 . S
C1203 H1209 0.929 . S
C1204 C1205 1.362 . S
C1204 C1207 1.378 . S
C1204 H1219 0.929 . S
C1205 C1204 1.362 . S
C1205 C1206 1.366 . S
C1206 C1203 1.365 . S
C1206 C1205 1.366 . S
C1206 H1220 0.930 . S
C1207 C1204 1.378 . S
C1207 N1208 1.315 . S
C1207 H1210 0.930 . S
N1208 Co1188 2.194 . S
N1208 C1203 1.328 . S
N1208 C1207 1.315 . S
H1209 C1203 0.929 . S
H1210 C1207 0.930 . S
H1211 C1199 0.929 . S
H1212 C1201 0.929 . S
O1213 Co1188 2.351 . S
O1213 C1216 1.244 . S
O1214 Co1188 2.155 . S
O1214 C1216 1.240 . S
O1215 Co1188 2.096 . S
O1215 C1196 1.247 . S
C1216 O1213 1.244 . S
C1216 O1214 1.240 . S
H1217 C1191 0.931 . S
H1218 C1200 0.931 . S
H1219 C1204 0.929 . S
H1220 C1206 0.930 . S
Co1221 N1225 2.148 . S
Co1221 N1231 2.128 . S
Co1221 N1241 2.194 . S
Co1221 O1246 2.351 . S
Co1221 O1247 2.155 . S
Co1221 O1248 2.096 . S
C1222 N1225 1.301 . S
C1222 N1226 1.328 . S
C1222 H1227 0.930 . S
C1223 C1224 1.333 . S
C1223 N1225 1.317 . S
C1223 H1228 0.930 . S
C1224 C1223 1.333 . S
C1224 N1226 1.350 . S
C1224 H1250 0.931 . S
N1225 Co1221 2.148 . S
N1225 C1222 1.301 . S
N1225 C1223 1.317 . S
N1226 C1222 1.328 . S
N1226 C1224 1.350 . S
H1227 C1222 0.930 . S
H1228 C1223 0.930 . S
C1229 O1230 1.224 . S
C1229 O1248 1.247 . S
O1230 C1229 1.224 . S
N1231 Co1221 2.128 . S
N1231 C1232 1.355 . S
N1231 C1234 1.311 . S
C1232 N1231 1.355 . S
C1232 C1233 1.363 . S
C1232 H1244 0.929 . S
C1233 C1232 1.363 . S
C1233 N1235 1.375 . S
C1233 H1251 0.931 . S
C1234 N1231 1.311 . S
C1234 N1235 1.347 . S
C1234 H1245 0.929 . S
N1235 C1233 1.375 . S
N1235 C1234 1.347 . S
C1236 C1239 1.365 . S
C1236 N1241 1.328 . S
C1236 H1242 0.929 . S
C1237 C1238 1.362 . S
C1237 C1240 1.378 . S
C1237 H1252 0.929 . S
C1238 C1237 1.362 . S
C1238 C1239 1.366 . S
C1239 C1236 1.365 . S
C1239 C1238 1.366 . S
C1239 H1253 0.930 . S
C1240 C1237 1.378 . S
C1240 N1241 1.315 . S
C1240 H1243 0.930 . S
N1241 Co1221 2.194 . S
N1241 C1236 1.328 . S
N1241 C1240 1.315 . S
H1242 C1236 0.929 . S
H1243 C1240 0.930 . S
H1244 C1232 0.929 . S
H1245 C1234 0.929 . S
O1246 Co1221 2.351 . S
O1246 C1249 1.244 . S
O1247 Co1221 2.155 . S
O1247 C1249 1.240 . S
O1248 Co1221 2.096 . S
O1248 C1229 1.247 . S
C1249 O1246 1.244 . S
C1249 O1247 1.240 . S
H1250 C1224 0.931 . S
H1251 C1233 0.931 . S
H1252 C1237 0.929 . S
H1253 C1239 0.930 . S
Co1254 N1258 2.148 . S
Co1254 N1264 2.128 . S
Co1254 N1274 2.194 . S
Co1254 O1279 2.351 . S
Co1254 O1280 2.155 . S
Co1254 O1281 2.096 . S
C1255 N1258 1.301 . S
C1255 N1259 1.328 . S
C1255 H1260 0.930 . S
C1256 C1257 1.333 . S
C1256 N1258 1.317 . S
C1256 H1261 0.930 . S
C1257 C1256 1.333 . S
C1257 N1259 1.350 . S
C1257 H1283 0.931 . S
N1258 Co1254 2.148 . S
N1258 C1255 1.301 . S
N1258 C1256 1.317 . S
N1259 C1255 1.328 . S
N1259 C1257 1.350 . S
H1260 C1255 0.930 . S
H1261 C1256 0.930 . S
C1262 O1263 1.224 . S
C1262 O1281 1.247 . S
O1263 C1262 1.224 . S
N1264 Co1254 2.128 . S
N1264 C1265 1.355 . S
N1264 C1267 1.311 . S
C1265 N1264 1.355 . S
C1265 C1266 1.363 . S
C1265 H1277 0.929 . S
C1266 C1265 1.363 . S
C1266 N1268 1.375 . S
C1266 H1284 0.931 . S
C1267 N1264 1.311 . S
C1267 N1268 1.347 . S
C1267 H1278 0.929 . S
N1268 C1266 1.375 . S
N1268 C1267 1.347 . S
C1269 C1272 1.365 . S
C1269 N1274 1.328 . S
C1269 H1275 0.929 . S
C1270 C1271 1.362 . S
C1270 C1273 1.378 . S
C1270 H1285 0.929 . S
C1271 C1270 1.362 . S
C1271 C1272 1.366 . S
C1272 C1269 1.365 . S
C1272 C1271 1.366 . S
C1272 H1286 0.930 . S
C1273 C1270 1.378 . S
C1273 N1274 1.315 . S
C1273 H1276 0.930 . S
N1274 Co1254 2.194 . S
N1274 C1269 1.328 . S
N1274 C1273 1.315 . S
H1275 C1269 0.929 . S
H1276 C1273 0.930 . S
H1277 C1265 0.929 . S
H1278 C1267 0.929 . S
O1279 Co1254 2.351 . S
O1279 C1282 1.244 . S
O1280 Co1254 2.155 . S
O1280 C1282 1.240 . S
O1281 Co1254 2.096 . S
O1281 C1262 1.247 . S
C1282 O1279 1.244 . S
C1282 O1280 1.240 . S
H1283 C1257 0.931 . S
H1284 C1266 0.931 . S
H1285 C1270 0.929 . S
H1286 C1272 0.930 . S
Co1287 N1291 2.148 . S
Co1287 N1297 2.128 . S
Co1287 N1307 2.194 . S
Co1287 O1312 2.351 . S
Co1287 O1313 2.155 . S
Co1287 O1314 2.096 . S
C1288 N1291 1.301 . S
C1288 N1292 1.328 . S
C1288 H1293 0.930 . S
C1289 C1290 1.333 . S
C1289 N1291 1.317 . S
C1289 H1294 0.930 . S
C1290 C1289 1.333 . S
C1290 N1292 1.350 . S
C1290 H1316 0.931 . S
N1291 Co1287 2.148 . S
N1291 C1288 1.301 . S
N1291 C1289 1.317 . S
N1292 C1288 1.328 . S
N1292 C1290 1.350 . S
H1293 C1288 0.930 . S
H1294 C1289 0.930 . S
C1295 O1296 1.224 . S
C1295 O1314 1.247 . S
O1296 C1295 1.224 . S
N1297 Co1287 2.128 . S
N1297 C1298 1.355 . S
N1297 C1300 1.311 . S
C1298 N1297 1.355 . S
C1298 C1299 1.363 . S
C1298 H1310 0.929 . S
C1299 C1298 1.363 . S
C1299 N1301 1.375 . S
C1299 H1317 0.931 . S
C1300 N1297 1.311 . S
C1300 N1301 1.347 . S
C1300 H1311 0.929 . S
N1301 C1299 1.375 . S
N1301 C1300 1.347 . S
C1302 C1305 1.365 . S
C1302 N1307 1.328 . S
C1302 H1308 0.929 . S
C1303 C1304 1.362 . S
C1303 C1306 1.378 . S
C1303 H1318 0.929 . S
C1304 C1303 1.362 . S
C1304 C1305 1.366 . S
C1305 C1302 1.365 . S
C1305 C1304 1.366 . S
C1305 H1319 0.930 . S
C1306 C1303 1.378 . S
C1306 N1307 1.315 . S
C1306 H1309 0.930 . S
N1307 Co1287 2.194 . S
N1307 C1302 1.328 . S
N1307 C1306 1.315 . S
H1308 C1302 0.929 . S
H1309 C1306 0.930 . S
H1310 C1298 0.929 . S
H1311 C1300 0.929 . S
O1312 Co1287 2.351 . S
O1312 C1315 1.244 . S
O1313 Co1287 2.155 . S
O1313 C1315 1.240 . S
O1314 Co1287 2.096 . S
O1314 C1295 1.247 . S
C1315 O1312 1.244 . S
C1315 O1313 1.240 . S
H1316 C1290 0.931 . S
H1317 C1299 0.931 . S
H1318 C1303 0.929 . S
H1319 C1305 0.930 . S
Co1320 N1324 2.148 . S
Co1320 N1330 2.128 . S
Co1320 N1340 2.194 . S
Co1320 O1345 2.351 . S
Co1320 O1346 2.155 . S
Co1320 O1347 2.096 . S
C1321 N1324 1.301 . S
C1321 N1325 1.328 . S
C1321 H1326 0.930 . S
C1322 C1323 1.333 . S
C1322 N1324 1.317 . S
C1322 H1327 0.930 . S
C1323 C1322 1.333 . S
C1323 N1325 1.350 . S
C1323 H1349 0.931 . S
N1324 Co1320 2.148 . S
N1324 C1321 1.301 . S
N1324 C1322 1.317 . S
N1325 C1321 1.328 . S
N1325 C1323 1.350 . S
H1326 C1321 0.930 . S
H1327 C1322 0.930 . S
C1328 O1329 1.224 . S
C1328 O1347 1.247 . S
O1329 C1328 1.224 . S
N1330 Co1320 2.128 . S
N1330 C1331 1.355 . S
N1330 C1333 1.311 . S
C1331 N1330 1.355 . S
C1331 C1332 1.363 . S
C1331 H1343 0.929 . S
C1332 C1331 1.363 . S
C1332 N1334 1.375 . S
C1332 H1350 0.931 . S
C1333 N1330 1.311 . S
C1333 N1334 1.347 . S
C1333 H1344 0.929 . S
N1334 C1332 1.375 . S
N1334 C1333 1.347 . S
C1335 C1338 1.365 . S
C1335 N1340 1.328 . S
C1335 H1341 0.929 . S
C1336 C1337 1.362 . S
C1336 C1339 1.378 . S
C1336 H1351 0.929 . S
C1337 C1336 1.362 . S
C1337 C1338 1.366 . S
C1338 C1335 1.365 . S
C1338 C1337 1.366 . S
C1338 H1352 0.930 . S
C1339 C1336 1.378 . S
C1339 N1340 1.315 . S
C1339 H1342 0.930 . S
N1340 Co1320 2.194 . S
N1340 C1335 1.328 . S
N1340 C1339 1.315 . S
H1341 C1335 0.929 . S
H1342 C1339 0.930 . S
H1343 C1331 0.929 . S
H1344 C1333 0.929 . S
O1345 Co1320 2.351 . S
O1345 C1348 1.244 . S
O1346 Co1320 2.155 . S
O1346 C1348 1.240 . S
O1347 Co1320 2.096 . S
O1347 C1328 1.247 . S
C1348 O1345 1.244 . S
C1348 O1346 1.240 . S
H1349 C1323 0.931 . S
H1350 C1332 0.931 . S
H1351 C1336 0.929 . S
H1352 C1338 0.930 . S
Co1353 N1357 2.148 . S
Co1353 N1363 2.128 . S
Co1353 N1373 2.194 . S
Co1353 O1378 2.351 . S
Co1353 O1379 2.155 . S
Co1353 O1380 2.096 . S
C1354 N1357 1.301 . S
C1354 N1358 1.328 . S
C1354 H1359 0.930 . S
C1355 C1356 1.333 . S
C1355 N1357 1.317 . S
C1355 H1360 0.930 . S
C1356 C1355 1.333 . S
C1356 N1358 1.350 . S
C1356 H1382 0.931 . S
N1357 Co1353 2.148 . S
N1357 C1354 1.301 . S
N1357 C1355 1.317 . S
N1358 C1354 1.328 . S
N1358 C1356 1.350 . S
H1359 C1354 0.930 . S
H1360 C1355 0.930 . S
C1361 O1362 1.224 . S
C1361 O1380 1.247 . S
O1362 C1361 1.224 . S
N1363 Co1353 2.128 . S
N1363 C1364 1.355 . S
N1363 C1366 1.311 . S
C1364 N1363 1.355 . S
C1364 C1365 1.363 . S
C1364 H1376 0.929 . S
C1365 C1364 1.363 . S
C1365 N1367 1.375 . S
C1365 H1383 0.931 . S
C1366 N1363 1.311 . S
C1366 N1367 1.347 . S
C1366 H1377 0.929 . S
N1367 C1365 1.375 . S
N1367 C1366 1.347 . S
C1368 C1371 1.365 . S
C1368 N1373 1.328 . S
C1368 H1374 0.929 . S
C1369 C1370 1.362 . S
C1369 C1372 1.378 . S
C1369 H1384 0.929 . S
C1370 C1369 1.362 . S
C1370 C1371 1.366 . S
C1371 C1368 1.365 . S
C1371 C1370 1.366 . S
C1371 H1385 0.930 . S
C1372 C1369 1.378 . S
C1372 N1373 1.315 . S
C1372 H1375 0.930 . S
N1373 Co1353 2.194 . S
N1373 C1368 1.328 . S
N1373 C1372 1.315 . S
H1374 C1368 0.929 . S
H1375 C1372 0.930 . S
H1376 C1364 0.929 . S
H1377 C1366 0.929 . S
O1378 Co1353 2.351 . S
O1378 C1381 1.244 . S
O1379 Co1353 2.155 . S
O1379 C1381 1.240 . S
O1380 Co1353 2.096 . S
O1380 C1361 1.247 . S
C1381 O1378 1.244 . S
C1381 O1379 1.240 . S
H1382 C1356 0.931 . S
H1383 C1365 0.931 . S
H1384 C1369 0.929 . S
H1385 C1371 0.930 . S
Co1386 N1390 2.148 . S
Co1386 N1396 2.128 . S
Co1386 N1406 2.194 . S
Co1386 O1411 2.351 . S
Co1386 O1412 2.155 . S
Co1386 O1413 2.096 . S
C1387 N1390 1.301 . S
C1387 N1391 1.328 . S
C1387 H1392 0.930 . S
C1388 C1389 1.333 . S
C1388 N1390 1.317 . S
C1388 H1393 0.930 . S
C1389 C1388 1.333 . S
C1389 N1391 1.350 . S
C1389 H1415 0.931 . S
N1390 Co1386 2.148 . S
N1390 C1387 1.301 . S
N1390 C1388 1.317 . S
N1391 C1387 1.328 . S
N1391 C1389 1.350 . S
H1392 C1387 0.930 . S
H1393 C1388 0.930 . S
C1394 O1395 1.224 . S
C1394 O1413 1.247 . S
O1395 C1394 1.224 . S
N1396 Co1386 2.128 . S
N1396 C1397 1.355 . S
N1396 C1399 1.311 . S
C1397 N1396 1.355 . S
C1397 C1398 1.363 . S
C1397 H1409 0.929 . S
C1398 C1397 1.363 . S
C1398 N1400 1.375 . S
C1398 H1416 0.931 . S
C1399 N1396 1.311 . S
C1399 N1400 1.347 . S
C1399 H1410 0.929 . S
N1400 C1398 1.375 . S
N1400 C1399 1.347 . S
C1401 C1404 1.365 . S
C1401 N1406 1.328 . S
C1401 H1407 0.929 . S
C1402 C1403 1.362 . S
C1402 C1405 1.378 . S
C1402 H1417 0.929 . S
C1403 C1402 1.362 . S
C1403 C1404 1.366 . S
C1404 C1401 1.365 . S
C1404 C1403 1.366 . S
C1404 H1418 0.930 . S
C1405 C1402 1.378 . S
C1405 N1406 1.315 . S
C1405 H1408 0.930 . S
N1406 Co1386 2.194 . S
N1406 C1401 1.328 . S
N1406 C1405 1.315 . S
H1407 C1401 0.929 . S
H1408 C1405 0.930 . S
H1409 C1397 0.929 . S
H1410 C1399 0.929 . S
O1411 Co1386 2.351 . S
O1411 C1414 1.244 . S
O1412 Co1386 2.155 . S
O1412 C1414 1.240 . S
O1413 Co1386 2.096 . S
O1413 C1394 1.247 . S
C1414 O1411 1.244 . S
C1414 O1412 1.240 . S
H1415 C1389 0.931 . S
H1416 C1398 0.931 . S
H1417 C1402 0.929 . S
H1418 C1404 0.930 . S
Co1419 N1423 2.148 . S
Co1419 N1429 2.128 . S
Co1419 N1439 2.194 1_554 S
Co1419 O1444 2.351 1_554 S
Co1419 O1445 2.155 . S
Co1419 O1446 2.096 . S
C1420 N1423 1.301 1_556 S
C1420 N1424 1.328 . S
C1420 H1425 0.930 . S
C1421 C1422 1.333 . S
C1421 N1423 1.317 . S
C1421 H1426 0.930 . S
C1422 C1421 1.333 . S
C1422 N1424 1.350 1_554 S
C1422 H1448 0.931 . S
N1423 Co1419 2.148 . S
N1423 C1420 1.301 1_554 S
N1423 C1421 1.317 . S
N1424 C1420 1.328 . S
N1424 C1422 1.350 1_556 S
H1425 C1420 0.930 . S
H1426 C1421 0.930 . S
C1427 O1428 1.224 . S
C1427 O1446 1.247 . S
O1428 C1427 1.224 . S
N1429 Co1419 2.128 . S
N1429 C1430 1.355 1_554 S
N1429 C1432 1.311 . S
C1430 N1429 1.355 1_556 S
C1430 C1431 1.363 . S
C1430 H1442 0.929 . S
C1431 C1430 1.363 . S
C1431 N1433 1.375 1_556 S
C1431 H1449 0.931 . S
C1432 N1429 1.311 . S
C1432 N1433 1.347 . S
C1432 H1443 0.929 . S
N1433 C1431 1.375 1_554 S
N1433 C1432 1.347 . S
C1434 C1437 1.365 . S
C1434 N1439 1.328 . S
C1434 H1440 0.929 . S
C1435 C1436 1.362 . S
C1435 C1438 1.378 . S
C1435 H1450 0.929 . S
C1436 C1435 1.362 . S
C1436 C1437 1.366 . S
C1437 C1434 1.365 . S
C1437 C1436 1.366 . S
C1437 H1451 0.930 . S
C1438 C1435 1.378 . S
C1438 N1439 1.315 . S
C1438 H1441 0.930 . S
N1439 Co1419 2.194 1_556 S
N1439 C1434 1.328 . S
N1439 C1438 1.315 . S
H1440 C1434 0.929 . S
H1441 C1438 0.930 . S
H1442 C1430 0.929 . S
H1443 C1432 0.929 . S
O1444 Co1419 2.351 1_556 S
O1444 C1447 1.244 1_556 S
O1445 Co1419 2.155 . S
O1445 C1447 1.240 . S
O1446 Co1419 2.096 . S
O1446 C1427 1.247 . S
C1447 O1444 1.244 1_554 S
C1447 O1445 1.240 . S
H1448 C1422 0.931 . S
H1449 C1431 0.931 . S
H1450 C1435 0.929 . S
H1451 C1437 0.930 . S
Co1452 N1456 2.148 . S
Co1452 N1462 2.128 . S
Co1452 N1472 2.194 . S
Co1452 O1477 2.351 . S
Co1452 O1478 2.155 . S
Co1452 O1479 2.096 . S
C1453 N1456 1.301 . S
C1453 N1457 1.328 . S
C1453 H1458 0.930 . S
C1454 C1455 1.333 . S
C1454 N1456 1.317 . S
C1454 H1459 0.930 . S
C1455 C1454 1.333 . S
C1455 N1457 1.350 . S
C1455 H1481 0.931 . S
N1456 Co1452 2.148 . S
N1456 C1453 1.301 . S
N1456 C1454 1.317 . S
N1457 C1453 1.328 . S
N1457 C1455 1.350 . S
H1458 C1453 0.930 . S
H1459 C1454 0.930 . S
C1460 O1461 1.224 . S
C1460 O1479 1.247 . S
O1461 C1460 1.224 . S
N1462 Co1452 2.128 . S
N1462 C1463 1.355 . S
N1462 C1465 1.311 . S
C1463 N1462 1.355 . S
C1463 C1464 1.363 . S
C1463 H1475 0.929 . S
C1464 C1463 1.363 . S
C1464 N1466 1.375 . S
C1464 H1482 0.931 . S
C1465 N1462 1.311 . S
C1465 N1466 1.347 . S
C1465 H1476 0.929 . S
N1466 C1464 1.375 . S
N1466 C1465 1.347 . S
C1467 C1470 1.365 . S
C1467 N1472 1.328 . S
C1467 H1473 0.929 . S
C1468 C1469 1.362 . S
C1468 C1471 1.378 . S
C1468 H1483 0.929 . S
C1469 C1468 1.362 . S
C1469 C1470 1.366 . S
C1470 C1467 1.365 . S
C1470 C1469 1.366 . S
C1470 H1484 0.930 . S
C1471 C1468 1.378 . S
C1471 N1472 1.315 . S
C1471 H1474 0.930 . S
N1472 Co1452 2.194 . S
N1472 C1467 1.328 . S
N1472 C1471 1.315 . S
H1473 C1467 0.929 . S
H1474 C1471 0.930 . S
H1475 C1463 0.929 . S
H1476 C1465 0.929 . S
O1477 Co1452 2.351 . S
O1477 C1480 1.244 . S
O1478 Co1452 2.155 . S
O1478 C1480 1.240 . S
O1479 Co1452 2.096 . S
O1479 C1460 1.247 . S
C1480 O1477 1.244 . S
C1480 O1478 1.240 . S
H1481 C1455 0.931 . S
H1482 C1464 0.931 . S
H1483 C1468 0.929 . S
H1484 C1470 0.930 . S
Co1485 N1489 2.148 . S
Co1485 N1495 2.128 . S
Co1485 N1505 2.194 1_556 S
Co1485 O1510 2.351 1_556 S
Co1485 O1511 2.155 . S
Co1485 O1512 2.096 . S
C1486 N1489 1.301 1_554 S
C1486 N1490 1.328 . S
C1486 H1491 0.930 . S
C1487 C1488 1.333 . S
C1487 N1489 1.317 . S
C1487 H1492 0.930 . S
C1488 C1487 1.333 . S
C1488 N1490 1.350 1_556 S
C1488 H1514 0.931 . S
N1489 Co1485 2.148 . S
N1489 C1486 1.301 1_556 S
N1489 C1487 1.317 . S
N1490 C1486 1.328 . S
N1490 C1488 1.350 1_554 S
H1491 C1486 0.930 . S
H1492 C1487 0.930 . S
C1493 O1494 1.224 . S
C1493 O1512 1.247 . S
O1494 C1493 1.224 . S
N1495 Co1485 2.128 . S
N1495 C1496 1.355 1_556 S
N1495 C1498 1.311 . S
C1496 N1495 1.355 1_554 S
C1496 C1497 1.363 . S
C1496 H1508 0.929 . S
C1497 C1496 1.363 . S
C1497 N1499 1.375 1_554 S
C1497 H1515 0.931 . S
C1498 N1495 1.311 . S
C1498 N1499 1.347 . S
C1498 H1509 0.929 . S
N1499 C1497 1.375 1_556 S
N1499 C1498 1.347 . S
C1500 C1503 1.365 . S
C1500 N1505 1.328 . S
C1500 H1506 0.929 . S
C1501 C1502 1.362 . S
C1501 C1504 1.378 . S
C1501 H1516 0.929 . S
C1502 C1501 1.362 . S
C1502 C1503 1.366 . S
C1503 C1500 1.365 . S
C1503 C1502 1.366 . S
C1503 H1517 0.930 . S
C1504 C1501 1.378 . S
C1504 N1505 1.315 . S
C1504 H1507 0.930 . S
N1505 Co1485 2.194 1_554 S
N1505 C1500 1.328 . S
N1505 C1504 1.315 . S
H1506 C1500 0.929 . S
H1507 C1504 0.930 . S
H1508 C1496 0.929 . S
H1509 C1498 0.929 . S
O1510 Co1485 2.351 1_554 S
O1510 C1513 1.244 1_554 S
O1511 Co1485 2.155 . S
O1511 C1513 1.240 . S
O1512 Co1485 2.096 . S
O1512 C1493 1.247 . S
C1513 O1510 1.244 1_556 S
C1513 O1511 1.240 . S
H1514 C1488 0.931 . S
H1515 C1497 0.931 . S
H1516 C1501 0.929 . S
H1517 C1503 0.930 . S
Co1518 N1522 2.148 . S
Co1518 N1528 2.128 . S
Co1518 N1538 2.194 . S
Co1518 O1543 2.351 . S
Co1518 O1544 2.155 . S
Co1518 O1545 2.096 . S
C1519 N1522 1.301 . S
C1519 N1523 1.328 . S
C1519 H1524 0.930 . S
C1520 C1521 1.333 . S
C1520 N1522 1.317 . S
C1520 H1525 0.930 . S
C1521 C1520 1.333 . S
C1521 N1523 1.350 . S
C1521 H1547 0.931 . S
N1522 Co1518 2.148 . S
N1522 C1519 1.301 . S
N1522 C1520 1.317 . S
N1523 C1519 1.328 . S
N1523 C1521 1.350 . S
H1524 C1519 0.930 . S
H1525 C1520 0.930 . S
C1526 O1527 1.224 . S
C1526 O1545 1.247 . S
O1527 C1526 1.224 . S
N1528 Co1518 2.128 . S
N1528 C1529 1.355 . S
N1528 C1531 1.311 . S
C1529 N1528 1.355 . S
C1529 C1530 1.363 . S
C1529 H1541 0.929 . S
C1530 C1529 1.363 . S
C1530 N1532 1.375 . S
C1530 H1548 0.931 . S
C1531 N1528 1.311 . S
C1531 N1532 1.347 . S
C1531 H1542 0.929 . S
N1532 C1530 1.375 . S
N1532 C1531 1.347 . S
C1533 C1536 1.365 . S
C1533 N1538 1.328 . S
C1533 H1539 0.929 . S
C1534 C1535 1.362 . S
C1534 C1537 1.378 . S
C1534 H1549 0.929 . S
C1535 C1534 1.362 . S
C1535 C1536 1.366 . S
C1536 C1533 1.365 . S
C1536 C1535 1.366 . S
C1536 H1550 0.930 . S
C1537 C1534 1.378 . S
C1537 N1538 1.315 . S
C1537 H1540 0.930 . S
N1538 Co1518 2.194 . S
N1538 C1533 1.328 . S
N1538 C1537 1.315 . S
H1539 C1533 0.929 . S
H1540 C1537 0.930 . S
H1541 C1529 0.929 . S
H1542 C1531 0.929 . S
O1543 Co1518 2.351 . S
O1543 C1546 1.244 . S
O1544 Co1518 2.155 . S
O1544 C1546 1.240 . S
O1545 Co1518 2.096 . S
O1545 C1526 1.247 . S
C1546 O1543 1.244 . S
C1546 O1544 1.240 . S
H1547 C1521 0.931 . S
H1548 C1530 0.931 . S
H1549 C1534 0.929 . S
H1550 C1536 0.930 . S
Co1551 N1555 2.148 . S
Co1551 N1561 2.128 . S
Co1551 N1571 2.194 . S
Co1551 O1576 2.351 . S
Co1551 O1577 2.155 . S
Co1551 O1578 2.096 . S
C1552 N1555 1.301 . S
C1552 N1556 1.328 . S
C1552 H1557 0.930 . S
C1553 C1554 1.333 . S
C1553 N1555 1.317 . S
C1553 H1558 0.930 . S
C1554 C1553 1.333 . S
C1554 N1556 1.350 . S
C1554 H1580 0.931 . S
N1555 Co1551 2.148 . S
N1555 C1552 1.301 . S
N1555 C1553 1.317 . S
N1556 C1552 1.328 . S
N1556 C1554 1.350 . S
H1557 C1552 0.930 . S
H1558 C1553 0.930 . S
C1559 O1560 1.224 . S
C1559 O1578 1.247 . S
O1560 C1559 1.224 . S
N1561 Co1551 2.128 . S
N1561 C1562 1.355 . S
N1561 C1564 1.311 . S
C1562 N1561 1.355 . S
C1562 C1563 1.363 . S
C1562 H1574 0.929 . S
C1563 C1562 1.363 . S
C1563 N1565 1.375 . S
C1563 H1581 0.931 . S
C1564 N1561 1.311 . S
C1564 N1565 1.347 . S
C1564 H1575 0.929 . S
N1565 C1563 1.375 . S
N1565 C1564 1.347 . S
C1566 C1569 1.365 . S
C1566 N1571 1.328 . S
C1566 H1572 0.929 . S
C1567 C1568 1.362 . S
C1567 C1570 1.378 . S
C1567 H1582 0.929 . S
C1568 C1567 1.362 . S
C1568 C1569 1.366 . S
C1569 C1566 1.365 . S
C1569 C1568 1.366 . S
C1569 H1583 0.930 . S
C1570 C1567 1.378 . S
C1570 N1571 1.315 . S
C1570 H1573 0.930 . S
N1571 Co1551 2.194 . S
N1571 C1566 1.328 . S
N1571 C1570 1.315 . S
H1572 C1566 0.929 . S
H1573 C1570 0.930 . S
H1574 C1562 0.929 . S
H1575 C1564 0.929 . S
O1576 Co1551 2.351 . S
O1576 C1579 1.244 . S
O1577 Co1551 2.155 . S
O1577 C1579 1.240 . S
O1578 Co1551 2.096 . S
O1578 C1559 1.247 . S
C1579 O1576 1.244 . S
C1579 O1577 1.240 . S
H1580 C1554 0.931 . S
H1581 C1563 0.931 . S
H1582 C1567 0.929 . S
H1583 C1569 0.930 . S
H1584 C1590 0.930 . S
H1585 C1594 0.930 . S
H1586 C1599 0.929 . S
H1587 C1597 0.929 . S
H1588 C1592 0.929 . S
H1589 C1598 0.929 . S
C1590 H1584 0.930 . S
C1590 C1591 1.367 . S
C1590 C1598 1.378 . S
C1591 C1590 1.367 . S
C1591 C1599 1.433 . S
C1592 H1588 0.929 . S
C1592 C1594 1.378 . S
C1592 C1596 1.350 . S
C1593 C1596 1.463 . S
C1593 C1598 1.350 . S
C1593 N1601 1.427 . S
C1594 H1585 0.930 . S
C1594 C1592 1.378 . S
C1594 C1595 1.367 . S
C1595 C1594 1.367 . S
C1595 C1597 1.433 . S
C1596 C1592 1.350 . S
C1596 C1593 1.463 . S
C1596 N1600 1.427 . S
C1597 H1587 0.929 . S
C1597 C1595 1.433 . S
C1597 N1600 1.384 . S
C1598 H1589 0.929 . S
C1598 C1590 1.378 . S
C1598 C1593 1.350 . S
C1599 H1586 0.929 . S
C1599 C1591 1.433 . S
C1599 N1601 1.384 . S
N1600 C1596 1.427 . S
N1600 C1597 1.384 . S
N1601 C1593 1.427 . S
N1601 C1599 1.384 . S
H1602 C1608 0.930 . S
H1603 C1612 0.930 . S
H1604 C1617 0.929 . S
H1605 C1615 0.929 . S
H1606 C1610 0.929 . S
H1607 C1616 0.929 . S
C1608 H1602 0.930 . S
C1608 C1609 1.367 . S
C1608 C1616 1.378 . S
C1609 C1608 1.367 . S
C1609 C1617 1.433 . S
C1610 H1606 0.929 . S
C1610 C1612 1.378 . S
C1610 C1614 1.350 . S
C1611 C1614 1.463 . S
C1611 C1616 1.350 . S
C1611 N1619 1.427 . S
C1612 H1603 0.930 . S
C1612 C1610 1.378 . S
C1612 C1613 1.367 . S
C1613 C1612 1.367 . S
C1613 C1615 1.433 . S
C1614 C1610 1.350 . S
C1614 C1611 1.463 . S
C1614 N1618 1.427 . S
C1615 H1605 0.929 . S
C1615 C1613 1.433 . S
C1615 N1618 1.384 . S
C1616 H1607 0.929 . S
C1616 C1608 1.378 . S
C1616 C1611 1.350 . S
C1617 H1604 0.929 . S
C1617 C1609 1.433 . S
C1617 N1619 1.384 . S
N1618 C1614 1.427 . S
N1618 C1615 1.384 . S
N1619 C1611 1.427 . S
N1619 C1617 1.384 . S
H1620 C1626 0.981 . S
H1621 C1630 0.930 . S
H1622 C1635 0.929 . S
H1623 C1633 0.929 . S
H1624 C1628 0.929 . S
H1625 C1634 0.929 . S
C1626 H1620 0.981 . S
C1626 C1627 1.367 1_556 S
C1626 C1634 1.378 . S
C1627 C1626 1.367 1_554 S
C1627 C1635 1.433 . S
C1628 H1624 0.929 . S
C1628 C1630 1.378 . S
C1628 C1632 1.350 . S
C1629 C1632 1.463 . S
C1629 C1634 1.350 . S
C1629 N1637 1.427 1_556 S
C1630 H1621 0.930 . S
C1630 C1628 1.378 . S
C1630 C1631 1.367 . S
C1631 C1630 1.367 . S
C1631 C1633 1.433 . S
C1632 C1628 1.350 . S
C1632 C1629 1.463 . S
C1632 N1636 1.427 . S
C1633 H1623 0.929 . S
C1633 C1631 1.433 . S
C1633 N1636 1.384 . S
C1634 H1625 0.929 . S
C1634 C1626 1.378 . S
C1634 C1629 1.350 . S
C1635 H1622 0.929 . S
C1635 C1627 1.433 . S
C1635 N1637 1.384 . S
N1636 C1632 1.427 . S
N1636 C1633 1.384 . S
N1637 C1629 1.427 1_554 S
N1637 C1635 1.384 . S
H1638 C1644 0.930 . S
H1639 C1648 0.930 . S
H1640 C1653 0.929 . S
H1641 C1651 0.929 . S
H1642 C1646 0.929 . S
H1643 C1652 0.929 . S
C1644 H1638 0.930 . S
C1644 C1645 1.367 . S
C1644 C1652 1.378 . S
C1645 C1644 1.367 . S
C1645 C1653 1.433 . S
C1646 H1642 0.929 . S
C1646 C1648 1.378 . S
C1646 C1650 1.350 . S
C1647 C1650 1.463 . S
C1647 C1652 1.350 . S
C1647 N1655 1.427 . S
C1648 H1639 0.930 . S
C1648 C1646 1.378 . S
C1648 C1649 1.367 . S
C1649 C1648 1.367 . S
C1649 C1651 1.433 . S
C1650 C1646 1.350 . S
C1650 C1647 1.463 . S
C1650 N1654 1.427 . S
C1651 H1641 0.929 . S
C1651 C1649 1.433 . S
C1651 N1654 1.384 . S
C1652 H1643 0.929 . S
C1652 C1644 1.378 . S
C1652 C1647 1.350 . S
C1653 H1640 0.929 . S
C1653 C1645 1.433 . S
C1653 N1655 1.384 . S
N1654 C1650 1.427 . S
N1654 C1651 1.384 . S
N1655 C1647 1.427 . S
N1655 C1653 1.384 . S
H1656 C1662 0.930 . S
H1657 C1666 0.930 . S
H1658 C1671 0.929 . S
H1659 C1669 0.929 . S
H1660 C1664 0.929 . S
H1661 C1670 0.929 . S
C1662 H1656 0.930 . S
C1662 C1663 1.367 1_554 S
C1662 C1670 1.378 . S
C1663 C1662 1.367 1_556 S
C1663 C1671 1.433 . S
C1664 H1660 0.929 . S
C1664 C1666 1.378 . S
C1664 C1668 1.350 . S
C1665 C1668 1.463 . S
C1665 C1670 1.350 . S
C1665 N1673 1.427 1_554 S
C1666 H1657 0.930 . S
C1666 C1664 1.378 . S
C1666 C1667 1.367 . S
C1667 C1666 1.367 . S
C1667 C1669 1.433 . S
C1668 C1664 1.350 . S
C1668 C1665 1.463 . S
C1668 N1672 1.427 . S
C1669 H1659 0.929 . S
C1669 C1667 1.433 . S
C1669 N1672 1.384 . S
C1670 H1661 0.929 . S
C1670 C1662 1.378 . S
C1670 C1665 1.350 . S
C1671 H1658 0.929 . S
C1671 C1663 1.433 . S
C1671 N1673 1.384 . S
N1672 C1668 1.427 . S
N1672 C1669 1.384 . S
N1673 C1665 1.427 1_556 S
N1673 C1671 1.384 . S
H1674 C1680 0.930 . S
H1675 C1684 0.930 . S
H1676 C1689 0.929 . S
H1677 C1687 0.929 . S
H1678 C1682 0.929 . S
H1679 C1688 0.929 . S
C1680 H1674 0.930 . S
C1680 C1681 1.367 . S
C1680 C1688 1.378 . S
C1681 C1680 1.367 . S
C1681 C1689 1.433 . S
C1682 H1678 0.929 . S
C1682 C1684 1.378 . S
C1682 C1686 1.350 . S
C1683 C1686 1.463 . S
C1683 C1688 1.350 . S
C1683 N1691 1.427 . S
C1684 H1675 0.930 . S
C1684 C1682 1.378 . S
C1684 C1685 1.367 . S
C1685 C1684 1.367 . S
C1685 C1687 1.433 . S
C1686 C1682 1.350 . S
C1686 C1683 1.463 . S
C1686 N1690 1.427 . S
C1687 H1677 0.929 . S
C1687 C1685 1.433 . S
C1687 N1690 1.384 . S
C1688 H1679 0.929 . S
C1688 C1680 1.378 . S
C1688 C1683 1.350 . S
C1689 H1676 0.929 . S
C1689 C1681 1.433 . S
C1689 N1691 1.384 . S
N1690 C1686 1.427 . S
N1690 C1687 1.384 . S
N1691 C1683 1.427 . S
N1691 C1689 1.384 . S
H1692 C1698 0.930 . S
H1693 C1702 0.930 . S
H1694 C1707 0.929 . S
H1695 C1705 0.929 . S
H1696 C1700 0.929 . S
H1697 C1706 0.929 . S
C1698 H1692 0.930 . S
C1698 C1699 1.367 . S
C1698 C1706 1.378 . S
C1699 C1698 1.367 . S
C1699 C1707 1.433 . S
C1700 H1696 0.929 . S
C1700 C1702 1.378 . S
C1700 C1704 1.350 . S
C1701 C1704 1.463 . S
C1701 C1706 1.350 . S
C1701 N1709 1.427 . S
C1702 H1693 0.930 . S
C1702 C1700 1.378 . S
C1702 C1703 1.367 . S
C1703 C1702 1.367 . S
C1703 C1705 1.433 . S
C1704 C1700 1.350 . S
C1704 C1701 1.463 . S
C1704 N1708 1.427 . S
C1705 H1695 0.929 . S
C1705 C1703 1.433 . S
C1705 N1708 1.384 . S
C1706 H1697 0.929 . S
C1706 C1698 1.378 . S
C1706 C1701 1.350 . S
C1707 H1694 0.929 . S
C1707 C1699 1.433 . S
C1707 N1709 1.384 . S
N1708 C1704 1.427 . S
N1708 C1705 1.384 . S
N1709 C1701 1.427 . S
N1709 C1707 1.384 . S
H1710 C1716 0.930 . S
H1711 C1720 0.930 . S
H1712 C1725 0.929 . S
H1713 C1723 0.929 . S
H1714 C1718 0.929 . S
H1715 C1724 0.929 . S
C1716 H1710 0.930 . S
C1716 C1717 1.367 . S
C1716 C1724 1.378 . S
C1717 C1716 1.367 . S
C1717 C1725 1.433 . S
C1718 H1714 0.929 . S
C1718 C1720 1.378 . S
C1718 C1722 1.350 . S
C1719 C1722 1.463 . S
C1719 C1724 1.350 . S
C1719 N1727 1.427 . S
C1720 H1711 0.930 . S
C1720 C1718 1.378 . S
C1720 C1721 1.367 . S
C1721 C1720 1.367 . S
C1721 C1723 1.433 . S
C1722 C1718 1.350 . S
C1722 C1719 1.463 . S
C1722 N1726 1.427 . S
C1723 H1713 0.929 . S
C1723 C1721 1.433 . S
C1723 N1726 1.384 . S
C1724 H1715 0.929 . S
C1724 C1716 1.378 . S
C1724 C1719 1.350 . S
C1725 H1712 0.929 . S
C1725 C1717 1.433 . S
C1725 N1727 1.384 . S
N1726 C1722 1.427 . S
N1726 C1723 1.384 . S
N1727 C1719 1.427 . S
N1727 C1725 1.384 . S
H1728 C1734 0.930 . S
H1729 C1738 0.930 . S
H1730 C1743 0.929 . S
H1731 C1741 0.929 . S
H1732 C1736 0.929 . S
H1733 C1742 0.929 . S
C1734 H1728 0.930 . S
C1734 C1735 1.367 . S
C1734 C1742 1.378 . S
C1735 C1734 1.367 . S
C1735 C1743 1.433 . S
C1736 H1732 0.929 . S
C1736 C1738 1.378 . S
C1736 C1740 1.350 . S
C1737 C1740 1.463 . S
C1737 C1742 1.350 . S
C1737 N1745 1.427 . S
C1738 H1729 0.930 . S
C1738 C1736 1.378 . S
C1738 C1739 1.367 . S
C1739 C1738 1.367 . S
C1739 C1741 1.433 . S
C1740 C1736 1.350 . S
C1740 C1737 1.463 . S
C1740 N1744 1.427 . S
C1741 H1731 0.929 . S
C1741 C1739 1.433 . S
C1741 N1744 1.384 . S
C1742 H1733 0.929 . S
C1742 C1734 1.378 . S
C1742 C1737 1.350 . S
C1743 H1730 0.929 . S
C1743 C1735 1.433 . S
C1743 N1745 1.384 . S
N1744 C1740 1.427 . S
N1744 C1741 1.384 . S
N1745 C1737 1.427 . S
N1745 C1743 1.384 . S
H1746 C1752 0.930 . S
H1747 C1756 0.930 . S
H1748 C1761 0.929 . S
H1749 C1759 0.929 . S
H1750 C1754 0.929 . S
H1751 C1760 0.929 . S
C1752 H1746 0.930 . S
C1752 C1753 1.367 . S
C1752 C1760 1.378 . S
C1753 C1752 1.367 . S
C1753 C1761 1.433 . S
C1754 H1750 0.929 . S
C1754 C1756 1.378 . S
C1754 C1758 1.350 . S
C1755 C1758 1.463 . S
C1755 C1760 1.350 . S
C1755 N1763 1.427 . S
C1756 H1747 0.930 . S
C1756 C1754 1.378 . S
C1756 C1757 1.367 . S
C1757 C1756 1.367 . S
C1757 C1759 1.433 . S
C1758 C1754 1.350 . S
C1758 C1755 1.463 . S
C1758 N1762 1.427 . S
C1759 H1749 0.929 . S
C1759 C1757 1.433 . S
C1759 N1762 1.384 . S
C1760 H1751 0.929 . S
C1760 C1752 1.378 . S
C1760 C1755 1.350 . S
C1761 H1748 0.929 . S
C1761 C1753 1.433 . S
C1761 N1763 1.384 . S
N1762 C1758 1.427 . S
N1762 C1759 1.384 . S
N1763 C1755 1.427 . S
N1763 C1761 1.384 . S
H1764 C1770 0.930 . S
H1765 C1774 0.930 . S
H1766 C1779 0.929 . S
H1767 C1777 0.900 1_545 S
H1768 C1772 0.929 . S
H1769 C1778 0.929 . S
C1770 H1764 0.930 . S
C1770 C1771 1.367 . S
C1770 C1778 1.378 . S
C1771 C1770 1.367 . S
C1771 C1779 1.433 1_655 S
C1772 H1768 0.929 . S
C1772 C1774 1.378 . S
C1772 C1776 1.350 . S
C1773 C1776 1.463 . S
C1773 C1778 1.350 1_455 S
C1773 N1781 1.427 . S
C1774 H1765 0.930 . S
C1774 C1772 1.378 . S
C1774 C1775 1.367 . S
C1775 C1774 1.367 . S
C1775 C1777 1.433 . S
C1776 C1772 1.350 . S
C1776 C1773 1.463 . S
C1776 N1780 1.427 . S
C1777 H1767 0.900 1_565 S
C1777 C1775 1.433 . S
C1777 N1780 1.384 . S
C1778 H1769 0.929 . S
C1778 C1770 1.378 . S
C1778 C1773 1.350 1_655 S
C1779 H1766 0.929 . S
C1779 C1771 1.433 1_455 S
C1779 N1781 1.384 . S
N1780 C1776 1.427 . S
N1780 C1777 1.384 . S
N1781 C1773 1.427 . S
N1781 C1779 1.384 . S
H1782 C1788 0.930 . S
H1783 C1792 0.930 . S
H1784 C1797 0.929 . S
H1785 C1795 0.929 . S
H1786 C1790 0.929 . S
H1787 C1796 0.929 . S
C1788 H1782 0.930 . S
C1788 C1789 1.367 . S
C1788 C1796 1.378 . S
C1789 C1788 1.367 . S
C1789 C1797 1.433 . S
C1790 H1786 0.929 . S
C1790 C1792 1.378 . S
C1790 C1794 1.350 . S
C1791 C1794 1.463 . S
C1791 C1796 1.350 . S
C1791 N1799 1.427 . S
C1792 H1783 0.930 . S
C1792 C1790 1.378 . S
C1792 C1793 1.367 . S
C1793 C1792 1.367 . S
C1793 C1795 1.433 . S
C1794 C1790 1.350 . S
C1794 C1791 1.463 . S
C1794 N1798 1.427 . S
C1795 H1785 0.929 . S
C1795 C1793 1.433 . S
C1795 N1798 1.384 . S
C1796 H1787 0.929 . S
C1796 C1788 1.378 . S
C1796 C1791 1.350 . S
C1797 H1784 0.929 . S
C1797 C1789 1.433 . S
C1797 N1799 1.384 . S
N1798 C1794 1.427 . S
N1798 C1795 1.384 . S
N1799 C1791 1.427 . S
N1799 C1797 1.384 . S
H1800 C1806 0.930 . S
H1801 C1810 0.930 . S
H1802 C1815 0.929 . S
H1803 C1813 0.929 . S
H1804 C1808 0.929 . S
H1805 C1814 0.929 . S
C1806 H1800 0.930 . S
C1806 C1807 1.367 . S
C1806 C1814 1.378 . S
C1807 C1806 1.367 . S
C1807 C1815 1.433 . S
C1808 H1804 0.929 . S
C1808 C1810 1.378 . S
C1808 C1812 1.350 . S
C1809 C1812 1.463 . S
C1809 C1814 1.350 . S
C1809 N1817 1.427 . S
C1810 H1801 0.930 . S
C1810 C1808 1.378 . S
C1810 C1811 1.367 . S
C1811 C1810 1.367 . S
C1811 C1813 1.433 . S
C1812 C1808 1.350 . S
C1812 C1809 1.463 . S
C1812 N1816 1.427 . S
C1813 H1803 0.929 . S
C1813 C1811 1.433 . S
C1813 N1816 1.384 . S
C1814 H1805 0.929 . S
C1814 C1806 1.378 . S
C1814 C1809 1.350 . S
C1815 H1802 0.929 . S
C1815 C1807 1.433 . S
C1815 N1817 1.384 . S
N1816 C1812 1.427 . S
N1816 C1813 1.384 . S
N1817 C1809 1.427 . S
N1817 C1815 1.384 . S
H1818 C1824 0.930 . S
H1819 C1828 0.930 . S
H1820 C1833 0.929 . S
H1821 C1831 0.929 . S
H1822 C1826 0.929 . S
H1823 C1832 0.929 . S
C1824 H1818 0.930 . S
C1824 C1825 1.367 . S
C1824 C1832 1.378 . S
C1825 C1824 1.367 . S
C1825 C1833 1.433 . S
C1826 H1822 0.929 . S
C1826 C1828 1.378 . S
C1826 C1830 1.350 . S
C1827 C1830 1.463 . S
C1827 C1832 1.350 . S
C1827 N1835 1.427 . S
C1828 H1819 0.930 . S
C1828 C1826 1.378 . S
C1828 C1829 1.367 . S
C1829 C1828 1.367 . S
C1829 C1831 1.433 . S
C1830 C1826 1.350 . S
C1830 C1827 1.463 . S
C1830 N1834 1.427 . S
C1831 H1821 0.929 . S
C1831 C1829 1.433 . S
C1831 N1834 1.384 . S
C1832 H1823 0.929 . S
C1832 C1824 1.378 . S
C1832 C1827 1.350 . S
C1833 H1820 0.929 . S
C1833 C1825 1.433 . S
C1833 N1835 1.384 . S
N1834 C1830 1.427 . S
N1834 C1831 1.384 . S
N1835 C1827 1.427 . S
N1835 C1833 1.384 . S
H1836 C1842 0.930 . S
H1837 C1846 0.930 . S
H1838 C1851 0.929 . S
H1839 C1849 0.929 . S
H1840 C1844 0.929 . S
H1841 C1850 0.929 . S
C1842 H1836 0.930 . S
C1842 C1843 1.367 . S
C1842 C1850 1.378 . S
C1843 C1842 1.367 . S
C1843 C1851 1.433 . S
C1844 H1840 0.929 . S
C1844 C1846 1.378 . S
C1844 C1848 1.350 . S
C1845 C1848 1.463 . S
C1845 C1850 1.350 . S
C1845 N1853 1.427 . S
C1846 H1837 0.930 . S
C1846 C1844 1.378 . S
C1846 C1847 1.367 1_455 S
C1847 C1846 1.367 1_655 S
C1847 C1849 1.433 . S
C1848 C1844 1.350 . S
C1848 C1845 1.463 . S
C1848 N1852 1.427 1_455 S
C1849 H1839 0.929 . S
C1849 C1847 1.433 . S
C1849 N1852 1.384 . S
C1850 H1841 0.929 . S
C1850 C1842 1.378 . S
C1850 C1845 1.350 . S
C1851 H1838 0.929 . S
C1851 C1843 1.433 . S
C1851 N1853 1.384 . S
N1852 C1848 1.427 1_655 S
N1852 C1849 1.384 . S
N1853 C1845 1.427 . S
N1853 C1851 1.384 . S
H1854 C1860 0.930 . S
H1855 C1864 0.930 . S
H1856 C1869 0.929 . S
H1857 C1867 0.929 . S
H1858 C1862 0.929 . S
H1859 C1868 0.929 . S
C1860 H1854 0.930 . S
C1860 C1861 1.367 . S
C1860 C1868 1.378 . S
C1861 C1860 1.367 . S
C1861 C1869 1.433 . S
C1862 H1858 0.929 . S
C1862 C1864 1.378 . S
C1862 C1866 1.350 . S
C1863 C1866 1.463 . S
C1863 C1868 1.350 . S
C1863 N1871 1.427 . S
C1864 H1855 0.930 . S
C1864 C1862 1.378 . S
C1864 C1865 1.367 . S
C1865 C1864 1.367 . S
C1865 C1867 1.433 . S
C1866 C1862 1.350 . S
C1866 C1863 1.463 . S
C1866 N1870 1.427 . S
C1867 H1857 0.929 . S
C1867 C1865 1.433 . S
C1867 N1870 1.384 . S
C1868 H1859 0.929 . S
C1868 C1860 1.378 . S
C1868 C1863 1.350 . S
C1869 H1856 0.929 . S
C1869 C1861 1.433 . S
C1869 N1871 1.384 . S
N1870 C1866 1.427 . S
N1870 C1867 1.384 . S
N1871 C1863 1.427 . S
N1871 C1869 1.384 . S
H1872 C1878 0.921 1_556 S
H1873 C1882 0.930 . S
H1874 C1887 0.929 . S
H1875 C1885 0.929 . S
H1876 C1880 0.929 . S
H1877 C1886 0.929 . S
C1878 H1872 0.921 1_554 S
C1878 C1879 1.367 . S
C1878 C1886 1.378 . S
C1879 C1878 1.367 . S
C1879 C1887 1.433 . S
C1880 H1876 0.929 . S
C1880 C1882 1.378 . S
C1880 C1884 1.350 . S
C1881 C1884 1.463 . S
C1881 C1886 1.350 . S
C1881 N1889 1.427 . S
C1882 H1873 0.930 . S
C1882 C1880 1.378 . S
C1882 C1883 1.367 . S
C1883 C1882 1.367 . S
C1883 C1885 1.433 . S
C1884 C1880 1.350 . S
C1884 C1881 1.463 . S
C1884 N1888 1.427 . S
C1885 H1875 0.929 . S
C1885 C1883 1.433 . S
C1885 N1888 1.384 . S
C1886 H1877 0.929 . S
C1886 C1878 1.378 . S
C1886 C1881 1.350 . S
C1887 H1874 0.929 . S
C1887 C1879 1.433 . S
C1887 N1889 1.384 . S
N1888 C1884 1.427 . S
N1888 C1885 1.384 . S
N1889 C1881 1.427 . S
N1889 C1887 1.384 . S
H1890 C1896 0.930 . S
H1891 C1900 0.930 . S
H1892 C1905 0.929 . S
H1893 C1903 0.929 . S
H1894 C1898 0.929 . S
H1895 C1904 0.929 . S
C1896 H1890 0.930 . S
C1896 C1897 1.367 . S
C1896 C1904 1.378 . S
C1897 C1896 1.367 . S
C1897 C1905 1.433 1_565 S
C1898 H1894 0.929 . S
C1898 C1900 1.378 . S
C1898 C1902 1.350 . S
C1899 C1902 1.463 . S
C1899 C1904 1.350 1_545 S
C1899 N1907 1.427 . S
C1900 H1891 0.930 . S
C1900 C1898 1.378 . S
C1900 C1901 1.367 . S
C1901 C1900 1.367 . S
C1901 C1903 1.433 . S
C1902 C1898 1.350 . S
C1902 C1899 1.463 . S
C1902 N1906 1.427 . S
C1903 H1893 0.929 . S
C1903 C1901 1.433 . S
C1903 N1906 1.384 . S
C1904 H1895 0.929 . S
C1904 C1896 1.378 . S
C1904 C1899 1.350 1_565 S
C1905 H1892 0.929 . S
C1905 C1897 1.433 1_545 S
C1905 N1907 1.384 . S
N1906 C1902 1.427 . S
N1906 C1903 1.384 . S
N1907 C1899 1.427 . S
N1907 C1905 1.384 . S
H1908 C1914 0.930 . S
H1909 C1918 0.930 . S
H1910 C1923 0.929 . S
H1911 C1921 0.929 . S
H1912 C1916 0.929 . S
H1913 C1922 0.929 . S
C1914 H1908 0.930 . S
C1914 C1915 1.367 . S
C1914 C1922 1.378 . S
C1915 C1914 1.367 . S
C1915 C1923 1.433 . S
C1916 H1912 0.929 . S
C1916 C1918 1.378 . S
C1916 C1920 1.350 . S
C1917 C1920 1.463 . S
C1917 C1922 1.350 . S
C1917 N1925 1.427 . S
C1918 H1909 0.930 . S
C1918 C1916 1.378 . S
C1918 C1919 1.367 . S
C1919 C1918 1.367 . S
C1919 C1921 1.433 . S
C1920 C1916 1.350 . S
C1920 C1917 1.463 . S
C1920 N1924 1.427 . S
C1921 H1911 0.929 . S
C1921 C1919 1.433 . S
C1921 N1924 1.384 . S
C1922 H1913 0.929 . S
C1922 C1914 1.378 . S
C1922 C1917 1.350 . S
C1923 H1910 0.929 . S
C1923 C1915 1.433 . S
C1923 N1925 1.384 . S
N1924 C1920 1.427 . S
N1924 C1921 1.384 . S
N1925 C1917 1.427 . S
N1925 C1923 1.384 . S
H1926 C1932 0.930 . S
H1927 C1936 0.930 . S
H1928 C1941 0.929 . S
H1929 C1939 0.929 . S
H1930 C1934 0.929 1_545 S
H1931 C1940 0.929 . S
C1932 H1926 0.930 . S
C1932 C1933 1.367 1_565 S
C1932 C1940 1.378 . S
C1933 C1932 1.367 1_545 S
C1933 C1941 1.433 . S
C1934 H1930 0.929 1_565 S
C1934 C1936 1.378 . S
C1934 C1938 1.350 . S
C1935 C1938 1.463 . S
C1935 C1940 1.350 . S
C1935 N1943 1.427 1_565 S
C1936 H1927 0.930 . S
C1936 C1934 1.378 . S
C1936 C1937 1.367 . S
C1937 C1936 1.367 . S
C1937 C1939 1.433 . S
C1938 C1934 1.350 . S
C1938 C1935 1.463 . S
C1938 N1942 1.427 . S
C1939 H1929 0.929 . S
C1939 C1937 1.433 . S
C1939 N1942 1.384 . S
C1940 H1931 0.929 . S
C1940 C1932 1.378 . S
C1940 C1935 1.350 . S
C1941 H1928 0.929 . S
C1941 C1933 1.433 . S
C1941 N1943 1.384 . S
N1942 C1938 1.427 . S
N1942 C1939 1.384 . S
N1943 C1935 1.427 1_545 S
N1943 C1941 1.384 . S
H1944 C1950 0.930 . S
H1945 C1954 0.930 . S
H1946 C1959 0.929 . S
H1947 C1957 0.929 . S
H1948 C1952 0.929 . S
H1949 C1958 0.929 . S
C1950 H1944 0.930 . S
C1950 C1951 1.367 . S
C1950 C1958 1.378 . S
C1951 C1950 1.367 . S
C1951 C1959 1.433 . S
C1952 H1948 0.929 . S
C1952 C1954 1.378 . S
C1952 C1956 1.350 . S
C1953 C1956 1.463 . S
C1953 C1958 1.350 . S
C1953 N1961 1.427 . S
C1954 H1945 0.930 . S
C1954 C1952 1.378 . S
C1954 C1955 1.367 . S
C1955 C1954 1.367 . S
C1955 C1957 1.433 . S
C1956 C1952 1.350 . S
C1956 C1953 1.463 . S
C1956 N1960 1.427 . S
C1957 H1947 0.929 . S
C1957 C1955 1.433 . S
C1957 N1960 1.384 . S
C1958 H1949 0.929 . S
C1958 C1950 1.378 . S
C1958 C1953 1.350 . S
C1959 H1946 0.929 . S
C1959 C1951 1.433 . S
C1959 N1961 1.384 . S
N1960 C1956 1.427 . S
N1960 C1957 1.384 . S
N1961 C1953 1.427 . S
N1961 C1959 1.384 . S
H1962 C1968 0.930 . S
H1963 C1972 0.930 . S
H1964 C1977 0.929 . S
H1965 C1975 0.929 . S
H1966 C1970 0.929 . S
H1967 C1976 0.929 . S
C1968 H1962 0.930 . S
C1968 C1969 1.367 . S
C1968 C1976 1.378 . S
C1969 C1968 1.367 . S
C1969 C1977 1.433 . S
C1970 H1966 0.929 . S
C1970 C1972 1.378 . S
C1970 C1974 1.350 . S
C1971 C1974 1.463 . S
C1971 C1976 1.350 . S
C1971 N1979 1.427 . S
C1972 H1963 0.930 . S
C1972 C1970 1.378 . S
C1972 C1973 1.367 . S
C1973 C1972 1.367 . S
C1973 C1975 1.433 . S
C1974 C1970 1.350 . S
C1974 C1971 1.463 . S
C1974 N1978 1.427 . S
C1975 H1965 0.929 . S
C1975 C1973 1.433 . S
C1975 N1978 1.384 . S
C1976 H1967 0.929 . S
C1976 C1968 1.378 . S
C1976 C1971 1.350 . S
C1977 H1964 0.929 . S
C1977 C1969 1.433 . S
C1977 N1979 1.384 . S
N1978 C1974 1.427 . S
N1978 C1975 1.384 . S
N1979 C1971 1.427 . S
N1979 C1977 1.384 . S
H1980 C1986 0.930 . S
H1981 C1990 0.930 . S
H1982 C1995 0.929 . S
H1983 C1993 0.929 . S
H1984 C1988 0.929 . S
H1985 C1994 0.929 . S
C1986 H1980 0.930 . S
C1986 C1987 1.367 . S
C1986 C1994 1.378 . S
C1987 C1986 1.367 . S
C1987 C1995 1.433 . S
C1988 H1984 0.929 . S
C1988 C1990 1.378 . S
C1988 C1992 1.350 . S
C1989 C1992 1.463 . S
C1989 C1994 1.350 . S
C1989 N1997 1.427 . S
C1990 H1981 0.930 . S
C1990 C1988 1.378 . S
C1990 C1991 1.367 . S
C1991 C1990 1.367 . S
C1991 C1993 1.433 . S
C1992 C1988 1.350 . S
C1992 C1989 1.463 . S
C1992 N1996 1.427 . S
C1993 H1983 0.929 . S
C1993 C1991 1.433 . S
C1993 N1996 1.384 . S
C1994 H1985 0.929 . S
C1994 C1986 1.378 . S
C1994 C1989 1.350 . S
C1995 H1982 0.929 . S
C1995 C1987 1.433 . S
C1995 N1997 1.384 . S
N1996 C1992 1.427 . S
N1996 C1993 1.384 . S
N1997 C1989 1.427 . S
N1997 C1995 1.384 . S
H1998 C2004 0.930 . S
H1999 C2008 0.930 . S
H2000 C2013 0.929 . S
H2001 C2011 0.929 . S
H2002 C2006 0.929 . S
H2003 C2012 0.929 . S
C2004 H1998 0.930 . S
C2004 C2005 1.367 . S
C2004 C2012 1.378 . S
C2005 C2004 1.367 . S
C2005 C2013 1.433 . S
C2006 H2002 0.929 . S
C2006 C2008 1.378 . S
C2006 C2010 1.350 . S
C2007 C2010 1.463 . S
C2007 C2012 1.350 . S
C2007 N2015 1.427 . S
C2008 H1999 0.930 . S
C2008 C2006 1.378 . S
C2008 C2009 1.367 . S
C2009 C2008 1.367 . S
C2009 C2011 1.433 . S
C2010 C2006 1.350 . S
C2010 C2007 1.463 . S
C2010 N2014 1.427 . S
C2011 H2001 0.929 . S
C2011 C2009 1.433 . S
C2011 N2014 1.384 . S
C2012 H2003 0.929 . S
C2012 C2004 1.378 . S
C2012 C2007 1.350 . S
C2013 H2000 0.929 . S
C2013 C2005 1.433 . S
C2013 N2015 1.384 . S
N2014 C2010 1.427 . S
N2014 C2011 1.384 . S
N2015 C2007 1.427 . S
N2015 C2013 1.384 . S
H2016 C2022 0.930 . S
H2017 C2026 0.930 . S
H2018 C2031 0.929 . S
H2019 C2029 0.929 . S
H2020 C2024 0.929 . S
H2021 C2030 0.929 . S
C2022 H2016 0.930 . S
C2022 C2023 1.367 . S
C2022 C2030 1.378 . S
C2023 C2022 1.367 . S
C2023 C2031 1.433 . S
C2024 H2020 0.929 . S
C2024 C2026 1.378 . S
C2024 C2028 1.350 . S
C2025 C2028 1.463 . S
C2025 C2030 1.350 . S
C2025 N2033 1.427 . S
C2026 H2017 0.930 . S
C2026 C2024 1.378 . S
C2026 C2027 1.366 1_556 S
C2027 C2026 1.366 1_554 S
C2027 C2029 1.433 . S
C2028 C2024 1.350 . S
C2028 C2025 1.463 . S
C2028 N2032 1.428 1_556 S
C2029 H2019 0.929 . S
C2029 C2027 1.433 . S
C2029 N2032 1.383 . S
C2030 H2021 0.929 . S
C2030 C2022 1.378 . S
C2030 C2025 1.350 . S
C2031 H2018 0.929 . S
C2031 C2023 1.433 . S
C2031 N2033 1.384 . S
N2032 C2028 1.428 1_554 S
N2032 C2029 1.383 . S
N2033 C2025 1.427 . S
N2033 C2031 1.384 . S
H2034 C2040 0.930 . S
H2035 C2044 0.930 . S
H2036 C2049 0.929 . S
H2037 C2047 0.929 . S
H2038 C2042 0.929 . S
H2039 C2048 0.929 . S
C2040 H2034 0.930 . S
C2040 C2041 1.367 . S
C2040 C2048 1.378 . S
C2041 C2040 1.367 . S
C2041 C2049 1.433 . S
C2042 H2038 0.929 . S
C2042 C2044 1.378 . S
C2042 C2046 1.350 . S
C2043 C2046 1.463 . S
C2043 C2048 1.350 . S
C2043 N2051 1.427 . S
C2044 H2035 0.930 . S
C2044 C2042 1.378 . S
C2044 C2045 1.367 . S
C2045 C2044 1.367 . S
C2045 C2047 1.433 . S
C2046 C2042 1.350 . S
C2046 C2043 1.463 . S
C2046 N2050 1.427 . S
C2047 H2037 0.929 . S
C2047 C2045 1.433 . S
C2047 N2050 1.384 . S
C2048 H2039 0.929 . S
C2048 C2040 1.378 . S
C2048 C2043 1.350 . S
C2049 H2036 0.929 . S
C2049 C2041 1.433 . S
C2049 N2051 1.384 . S
N2050 C2046 1.427 . S
N2050 C2047 1.384 . S
N2051 C2043 1.427 . S
N2051 C2049 1.384 . S
H2052 C2058 0.930 . S
H2053 C2062 0.930 . S
H2054 C2067 0.929 . S
H2055 C2065 0.929 . S
H2056 C2060 0.929 . S
H2057 C2066 0.929 . S
C2058 H2052 0.930 . S
C2058 C2059 1.367 . S
C2058 C2066 1.378 . S
C2059 C2058 1.367 . S
C2059 C2067 1.433 . S
C2060 H2056 0.929 . S
C2060 C2062 1.378 . S
C2060 C2064 1.350 . S
C2061 C2064 1.463 . S
C2061 C2066 1.350 . S
C2061 N2069 1.427 . S
C2062 H2053 0.930 . S
C2062 C2060 1.378 . S
C2062 C2063 1.367 . S
C2063 C2062 1.367 . S
C2063 C2065 1.433 . S
C2064 C2060 1.350 . S
C2064 C2061 1.463 . S
C2064 N2068 1.427 . S
C2065 H2055 0.929 . S
C2065 C2063 1.433 . S
C2065 N2068 1.384 . S
C2066 H2057 0.929 . S
C2066 C2058 1.378 . S
C2066 C2061 1.350 . S
C2067 H2054 0.929 . S
C2067 C2059 1.433 . S
C2067 N2069 1.384 . S
N2068 C2064 1.427 . S
N2068 C2065 1.384 . S
N2069 C2061 1.427 . S
N2069 C2067 1.384 . S
H2070 C2076 0.930 . S
H2071 C2080 0.930 . S
H2072 C2085 0.929 . S
H2073 C2083 0.929 . S
H2074 C2078 0.929 . S
H2075 C2084 0.929 . S
C2076 H2070 0.930 . S
C2076 C2077 1.367 . S
C2076 C2084 1.378 . S
C2077 C2076 1.367 . S
C2077 C2085 1.433 . S
C2078 H2074 0.929 . S
C2078 C2080 1.378 . S
C2078 C2082 1.350 . S
C2079 C2082 1.463 . S
C2079 C2084 1.350 . S
C2079 N2087 1.427 . S
C2080 H2071 0.930 . S
C2080 C2078 1.378 . S
C2080 C2081 1.367 . S
C2081 C2080 1.367 . S
C2081 C2083 1.433 . S
C2082 C2078 1.350 . S
C2082 C2079 1.463 . S
C2082 N2086 1.427 . S
C2083 H2073 0.929 . S
C2083 C2081 1.433 . S
C2083 N2086 1.384 . S
C2084 H2075 0.929 . S
C2084 C2076 1.378 . S
C2084 C2079 1.350 . S
C2085 H2072 0.929 . S
C2085 C2077 1.433 . S
C2085 N2087 1.384 . S
N2086 C2082 1.427 . S
N2086 C2083 1.384 . S
N2087 C2079 1.427 . S
N2087 C2085 1.384 . S
H2088 C2094 0.930 . S
H2089 C2098 0.930 . S
H2090 C2103 0.929 . S
H2091 C2101 0.929 . S
H2092 C2096 0.929 . S
H2093 C2102 0.929 . S
C2094 H2088 0.930 . S
C2094 C2095 1.367 . S
C2094 C2102 1.378 . S
C2095 C2094 1.367 . S
C2095 C2103 1.433 . S
C2096 H2092 0.929 . S
C2096 C2098 1.378 . S
C2096 C2100 1.350 . S
C2097 C2100 1.463 . S
C2097 C2102 1.350 . S
C2097 N2105 1.427 . S
C2098 H2089 0.930 . S
C2098 C2096 1.378 . S
C2098 C2099 1.367 . S
C2099 C2098 1.367 . S
C2099 C2101 1.433 . S
C2100 C2096 1.350 . S
C2100 C2097 1.463 . S
C2100 N2104 1.427 . S
C2101 H2091 0.929 . S
C2101 C2099 1.433 . S
C2101 N2104 1.384 . S
C2102 H2093 0.929 . S
C2102 C2094 1.378 . S
C2102 C2097 1.350 . S
C2103 H2090 0.929 . S
C2103 C2095 1.433 . S
C2103 N2105 1.384 . S
N2104 C2100 1.427 . S
N2104 C2101 1.384 . S
N2105 C2097 1.427 . S
N2105 C2103 1.384 . S
H2106 C2112 0.930 . S
H2107 C2116 0.930 . S
H2108 C2121 0.929 . S
H2109 C2119 0.929 . S
H2110 C2114 0.929 . S
H2111 C2120 0.929 . S
C2112 H2106 0.930 . S
C2112 C2113 1.367 . S
C2112 C2120 1.378 . S
C2113 C2112 1.367 . S
C2113 C2121 1.433 . S
C2114 H2110 0.929 . S
C2114 C2116 1.378 . S
C2114 C2118 1.350 . S
C2115 C2118 1.463 . S
C2115 C2120 1.350 . S
C2115 N2123 1.427 . S
C2116 H2107 0.930 . S
C2116 C2114 1.378 . S
C2116 C2117 1.367 . S
C2117 C2116 1.367 . S
C2117 C2119 1.433 . S
C2118 C2114 1.350 . S
C2118 C2115 1.463 . S
C2118 N2122 1.427 . S
C2119 H2109 0.929 . S
C2119 C2117 1.433 . S
C2119 N2122 1.384 . S
C2120 H2111 0.929 . S
C2120 C2112 1.378 . S
C2120 C2115 1.350 . S
C2121 H2108 0.929 . S
C2121 C2113 1.433 . S
C2121 N2123 1.384 . S
N2122 C2118 1.427 . S
N2122 C2119 1.384 . S
N2123 C2115 1.427 . S
N2123 C2121 1.384 . S
H2124 C2130 0.930 . S
H2125 C2134 0.930 . S
H2126 C2139 0.929 . S
H2127 C2137 0.929 . S
H2128 C2132 0.929 . S
H2129 C2138 0.929 . S
C2130 H2124 0.930 . S
C2130 C2131 1.367 . S
C2130 C2138 1.378 . S
C2131 C2130 1.367 . S
C2131 C2139 1.433 1_556 S
C2132 H2128 0.929 . S
C2132 C2134 1.378 . S
C2132 C2136 1.350 . S
C2133 C2136 1.463 . S
C2133 C2138 1.350 1_554 S
C2133 N2141 1.427 . S
C2134 H2125 0.930 . S
C2134 C2132 1.378 . S
C2134 C2135 1.367 . S
C2135 C2134 1.367 . S
C2135 C2137 1.433 . S
C2136 C2132 1.350 . S
C2136 C2133 1.463 . S
C2136 N2140 1.427 . S
C2137 H2127 0.929 . S
C2137 C2135 1.433 . S
C2137 N2140 1.384 . S
C2138 H2129 0.929 . S
C2138 C2130 1.378 . S
C2138 C2133 1.350 1_556 S
C2139 H2126 0.929 . S
C2139 C2131 1.433 1_554 S
C2139 N2141 1.384 . S
N2140 C2136 1.427 . S
N2140 C2137 1.384 . S
N2141 C2133 1.427 . S
N2141 C2139 1.384 . S
H2142 C2148 0.930 . S
H2143 C2152 0.930 . S
H2144 C2157 0.929 . S
H2145 C2155 0.929 . S
H2146 C2150 0.929 . S
H2147 C2156 0.929 . S
C2148 H2142 0.930 . S
C2148 C2149 1.367 . S
C2148 C2156 1.378 . S
C2149 C2148 1.367 . S
C2149 C2157 1.433 . S
C2150 H2146 0.929 . S
C2150 C2152 1.378 . S
C2150 C2154 1.350 . S
C2151 C2154 1.463 . S
C2151 C2156 1.350 . S
C2151 N2159 1.427 . S
C2152 H2143 0.930 . S
C2152 C2150 1.378 . S
C2152 C2153 1.367 . S
C2153 C2152 1.367 . S
C2153 C2155 1.433 . S
C2154 C2150 1.350 . S
C2154 C2151 1.463 . S
C2154 N2158 1.427 . S
C2155 H2145 0.929 . S
C2155 C2153 1.433 . S
C2155 N2158 1.384 . S
C2156 H2147 0.929 . S
C2156 C2148 1.378 . S
C2156 C2151 1.350 . S
C2157 H2144 0.929 . S
C2157 C2149 1.433 . S
C2157 N2159 1.384 . S
N2158 C2154 1.427 . S
N2158 C2155 1.384 . S
N2159 C2151 1.427 . S
N2159 C2157 1.384 . S
H2160 C2166 0.930 . S
H2161 C2170 0.930 . S
H2162 C2175 0.929 . S
H2163 C2173 0.929 . S
H2164 C2168 0.929 . S
H2165 C2174 0.929 . S
C2166 H2160 0.930 . S
C2166 C2167 1.367 . S
C2166 C2174 1.378 . S
C2167 C2166 1.367 . S
C2167 C2175 1.433 . S
C2168 H2164 0.929 . S
C2168 C2170 1.378 1_655 S
C2168 C2172 1.350 . S
C2169 C2172 1.463 . S
C2169 C2174 1.350 . S
C2169 N2177 1.427 . S
C2170 H2161 0.930 . S
C2170 C2168 1.378 1_455 S
C2170 C2171 1.367 . S
C2171 C2170 1.367 . S
C2171 C2173 1.433 . S
C2172 C2168 1.350 . S
C2172 C2169 1.463 . S
C2172 N2176 1.427 . S
C2173 H2163 0.929 . S
C2173 C2171 1.433 . S
C2173 N2176 1.384 1_455 S
C2174 H2165 0.929 . S
C2174 C2166 1.378 . S
C2174 C2169 1.350 . S
C2175 H2162 0.929 . S
C2175 C2167 1.433 . S
C2175 N2177 1.384 . S
N2176 C2172 1.427 . S
N2176 C2173 1.384 1_655 S
N2177 C2169 1.427 . S
N2177 C2175 1.384 . S
H2178 C2184 0.930 . S
H2179 C2188 0.930 . S
H2180 C2193 0.929 . S
H2181 C2191 0.929 . S
H2182 C2186 0.929 . S
H2183 C2192 0.929 . S
C2184 H2178 0.930 . S
C2184 C2185 1.367 . S
C2184 C2192 1.378 . S
C2185 C2184 1.367 . S
C2185 C2193 1.433 . S
C2186 H2182 0.929 . S
C2186 C2188 1.378 . S
C2186 C2190 1.350 . S
C2187 C2190 1.463 . S
C2187 C2192 1.350 . S
C2187 N2195 1.427 . S
C2188 H2179 0.930 . S
C2188 C2186 1.378 . S
C2188 C2189 1.367 . S
C2189 C2188 1.367 . S
C2189 C2191 1.433 . S
C2190 C2186 1.350 . S
C2190 C2187 1.463 . S
C2190 N2194 1.427 . S
C2191 H2181 0.929 . S
C2191 C2189 1.433 . S
C2191 N2194 1.384 . S
C2192 H2183 0.929 . S
C2192 C2184 1.378 . S
C2192 C2187 1.350 . S
C2193 H2180 0.929 . S
C2193 C2185 1.433 . S
C2193 N2195 1.384 . S
N2194 C2190 1.427 . S
N2194 C2191 1.384 . S
N2195 C2187 1.427 . S
N2195 C2193 1.384 . S
H2196 C2202 0.930 . S
H2197 C2206 0.930 . S
H2198 C2211 0.929 . S
H2199 C2209 0.929 . S
H2200 C2204 0.929 . S
H2201 C2210 0.929 . S
C2202 H2196 0.930 . S
C2202 C2203 1.367 . S
C2202 C2210 1.378 . S
C2203 C2202 1.367 . S
C2203 C2211 1.433 . S
C2204 H2200 0.929 . S
C2204 C2206 1.378 . S
C2204 C2208 1.350 . S
C2205 C2208 1.463 . S
C2205 C2210 1.350 . S
C2205 N2213 1.427 . S
C2206 H2197 0.930 . S
C2206 C2204 1.378 . S
C2206 C2207 1.367 . S
C2207 C2206 1.367 . S
C2207 C2209 1.433 . S
C2208 C2204 1.350 . S
C2208 C2205 1.463 . S
C2208 N2212 1.427 . S
C2209 H2199 0.929 . S
C2209 C2207 1.433 . S
C2209 N2212 1.384 . S
C2210 H2201 0.929 . S
C2210 C2202 1.378 . S
C2210 C2205 1.350 . S
C2211 H2198 0.929 . S
C2211 C2203 1.433 . S
C2211 N2213 1.384 . S
N2212 C2208 1.427 . S
N2212 C2209 1.384 . S
N2213 C2205 1.427 . S
N2213 C2211 1.384 . S
H2214 C2220 0.930 . S
H2215 C2224 0.930 . S
H2216 C2229 0.929 . S
H2217 C2227 0.929 . S
H2218 C2222 0.929 . S
H2219 C2228 0.929 . S
C2220 H2214 0.930 . S
C2220 C2221 1.367 . S
C2220 C2228 1.378 . S
C2221 C2220 1.367 . S
C2221 C2229 1.433 . S
C2222 H2218 0.929 . S
C2222 C2224 1.378 . S
C2222 C2226 1.350 . S
C2223 C2226 1.463 . S
C2223 C2228 1.350 . S
C2223 N2231 1.427 . S
C2224 H2215 0.930 . S
C2224 C2222 1.378 . S
C2224 C2225 1.367 . S
C2225 C2224 1.367 . S
C2225 C2227 1.433 . S
C2226 C2222 1.350 . S
C2226 C2223 1.463 . S
C2226 N2230 1.427 . S
C2227 H2217 0.929 . S
C2227 C2225 1.433 . S
C2227 N2230 1.384 . S
C2228 H2219 0.929 . S
C2228 C2220 1.378 . S
C2228 C2223 1.350 . S
C2229 H2216 0.929 . S
C2229 C2221 1.433 . S
C2229 N2231 1.384 . S
N2230 C2226 1.427 . S
N2230 C2227 1.384 . S
N2231 C2223 1.427 . S
N2231 C2229 1.384 . S
H2232 C2238 0.930 . S
H2233 C2242 0.930 . S
H2234 C2247 0.929 . S
H2235 C2245 0.929 . S
H2236 C2240 0.929 . S
H2237 C2246 0.927 . S
C2238 H2232 0.930 . S
C2238 C2239 1.367 . S
C2238 C2246 1.378 . S
C2239 C2238 1.367 . S
C2239 C2247 1.433 . S
C2240 H2236 0.929 . S
C2240 C2242 1.378 . S
C2240 C2244 1.350 . S
C2241 C2244 1.463 . S
C2241 C2246 1.350 . S
C2241 N2249 1.427 . S
C2242 H2233 0.930 . S
C2242 C2240 1.378 . S
C2242 C2243 1.367 1_655 S
C2243 C2242 1.367 1_455 S
C2243 C2245 1.433 . S
C2244 C2240 1.350 . S
C2244 C2241 1.463 . S
C2244 N2248 1.427 1_655 S
C2245 H2235 0.929 . S
C2245 C2243 1.433 . S
C2245 N2248 1.384 . S
C2246 H2237 0.927 . S
C2246 C2238 1.378 . S
C2246 C2241 1.350 . S
C2247 H2234 0.929 . S
C2247 C2239 1.433 . S
C2247 N2249 1.384 . S
N2248 C2244 1.427 1_455 S
N2248 C2245 1.384 . S
N2249 C2241 1.427 . S
N2249 C2247 1.384 . S
H2250 C2256 0.930 . S
H2251 C2260 0.930 . S
H2252 C2265 0.929 . S
H2253 C2263 0.929 . S
H2254 C2258 0.929 . S
H2255 C2264 0.929 . S
C2256 H2250 0.930 . S
C2256 C2257 1.367 . S
C2256 C2264 1.378 . S
C2257 C2256 1.367 . S
C2257 C2265 1.433 . S
C2258 H2254 0.929 . S
C2258 C2260 1.378 . S
C2258 C2262 1.350 . S
C2259 C2262 1.463 . S
C2259 C2264 1.350 . S
C2259 N2267 1.427 . S
C2260 H2251 0.930 . S
C2260 C2258 1.378 . S
C2260 C2261 1.367 . S
C2261 C2260 1.367 . S
C2261 C2263 1.433 . S
C2262 C2258 1.350 . S
C2262 C2259 1.463 . S
C2262 N2266 1.427 . S
C2263 H2253 0.929 . S
C2263 C2261 1.433 . S
C2263 N2266 1.384 . S
C2264 H2255 0.929 . S
C2264 C2256 1.378 . S
C2264 C2259 1.350 . S
C2265 H2252 0.929 . S
C2265 C2257 1.433 . S
C2265 N2267 1.384 . S
N2266 C2262 1.427 . S
N2266 C2263 1.384 . S
N2267 C2259 1.427 . S
N2267 C2265 1.384 . S
H2268 C2274 0.930 . S
H2269 C2278 0.930 . S
H2270 C2283 0.929 . S
H2271 C2281 0.929 . S
H2272 C2276 0.929 . S
H2273 C2282 0.929 . S
C2274 H2268 0.930 . S
C2274 C2275 1.367 . S
C2274 C2282 1.378 . S
C2275 C2274 1.367 . S
C2275 C2283 1.433 . S
C2276 H2272 0.929 . S
C2276 C2278 1.378 . S
C2276 C2280 1.350 . S
C2277 C2280 1.463 . S
C2277 C2282 1.350 . S
C2277 N2285 1.427 . S
C2278 H2269 0.930 . S
C2278 C2276 1.378 . S
C2278 C2279 1.367 . S
C2279 C2278 1.367 . S
C2279 C2281 1.433 . S
C2280 C2276 1.350 . S
C2280 C2277 1.463 . S
C2280 N2284 1.427 . S
C2281 H2271 0.929 . S
C2281 C2279 1.433 . S
C2281 N2284 1.384 . S
C2282 H2273 0.929 . S
C2282 C2274 1.378 . S
C2282 C2277 1.350 . S
C2283 H2270 0.929 . S
C2283 C2275 1.433 . S
C2283 N2285 1.384 . S
N2284 C2280 1.427 . S
N2284 C2281 1.384 . S
N2285 C2277 1.427 . S
N2285 C2283 1.384 . S
H2286 C2292 0.930 . S
H2287 C2296 0.930 . S
H2288 C2301 0.929 . S
H2289 C2299 0.929 . S
H2290 C2294 0.929 . S
H2291 C2300 0.929 . S
C2292 H2286 0.930 . S
C2292 C2293 1.367 . S
C2292 C2300 1.378 . S
C2293 C2292 1.367 . S
C2293 C2301 1.433 . S
C2294 H2290 0.929 . S
C2294 C2296 1.378 . S
C2294 C2298 1.350 . S
C2295 C2298 1.463 . S
C2295 C2300 1.350 . S
C2295 N2303 1.427 . S
C2296 H2287 0.930 . S
C2296 C2294 1.378 . S
C2296 C2297 1.367 . S
C2297 C2296 1.367 . S
C2297 C2299 1.433 . S
C2298 C2294 1.350 . S
C2298 C2295 1.463 . S
C2298 N2302 1.427 . S
C2299 H2289 0.929 . S
C2299 C2297 1.433 . S
C2299 N2302 1.384 . S
C2300 H2291 0.929 . S
C2300 C2292 1.378 . S
C2300 C2295 1.350 . S
C2301 H2288 0.929 . S
C2301 C2293 1.433 . S
C2301 N2303 1.384 . S
N2302 C2298 1.427 . S
N2302 C2299 1.384 . S
N2303 C2295 1.427 . S
N2303 C2301 1.384 . S
H2304 C2310 0.930 . S
H2305 C2314 0.930 . S
H2306 C2319 0.929 . S
H2307 C2317 0.929 . S
H2308 C2312 0.929 . S
H2309 C2318 0.929 . S
C2310 H2304 0.930 . S
C2310 C2311 1.367 . S
C2310 C2318 1.378 . S
C2311 C2310 1.367 . S
C2311 C2319 1.433 . S
C2312 H2308 0.929 . S
C2312 C2314 1.378 1_565 S
C2312 C2316 1.350 . S
C2313 C2316 1.463 . S
C2313 C2318 1.350 . S
C2313 N2321 1.427 . S
C2314 H2305 0.930 . S
C2314 C2312 1.378 1_545 S
C2314 C2315 1.367 . S
C2315 C2314 1.367 . S
C2315 C2317 1.433 . S
C2316 C2312 1.350 . S
C2316 C2313 1.463 . S
C2316 N2320 1.427 . S
C2317 H2307 0.929 . S
C2317 C2315 1.433 . S
C2317 N2320 1.384 1_545 S
C2318 H2309 0.929 . S
C2318 C2310 1.378 . S
C2318 C2313 1.350 . S
C2319 H2306 0.929 . S
C2319 C2311 1.433 . S
C2319 N2321 1.384 . S
N2320 C2316 1.427 . S
N2320 C2317 1.384 1_565 S
N2321 C2313 1.427 . S
N2321 C2319 1.384 . S
H2322 C2328 0.930 . S
H2323 C2332 0.930 . S
H2324 C2337 0.929 . S
H2325 C2335 0.929 . S
H2326 C2330 0.929 . S
H2327 C2336 0.929 . S
C2328 H2322 0.930 . S
C2328 C2329 1.367 . S
C2328 C2336 1.378 . S
C2329 C2328 1.367 . S
C2329 C2337 1.433 . S
C2330 H2326 0.929 . S
C2330 C2332 1.378 . S
C2330 C2334 1.350 . S
C2331 C2334 1.463 . S
C2331 C2336 1.350 . S
C2331 N2339 1.427 . S
C2332 H2323 0.930 . S
C2332 C2330 1.378 . S
C2332 C2333 1.367 . S
C2333 C2332 1.367 . S
C2333 C2335 1.433 . S
C2334 C2330 1.350 . S
C2334 C2331 1.463 . S
C2334 N2338 1.427 . S
C2335 H2325 0.929 . S
C2335 C2333 1.433 . S
C2335 N2338 1.384 . S
C2336 H2327 0.929 . S
C2336 C2328 1.378 . S
C2336 C2331 1.350 . S
C2337 H2324 0.929 . S
C2337 C2329 1.433 . S
C2337 N2339 1.384 . S
N2338 C2334 1.427 . S
N2338 C2335 1.384 . S
N2339 C2331 1.427 . S
N2339 C2337 1.384 . S
H2340 C2346 0.930 . S
H2341 C2350 0.930 . S
H2342 C2355 0.929 . S
H2343 C2353 0.929 . S
H2344 C2348 0.929 . S
H2345 C2354 0.929 . S
C2346 H2340 0.930 . S
C2346 C2347 1.367 . S
C2346 C2354 1.378 . S
C2347 C2346 1.367 . S
C2347 C2355 1.433 . S
C2348 H2344 0.929 . S
C2348 C2350 1.378 . S
C2348 C2352 1.350 . S
C2349 C2352 1.463 . S
C2349 C2354 1.350 . S
C2349 N2357 1.427 . S
C2350 H2341 0.930 . S
C2350 C2348 1.378 . S
C2350 C2351 1.367 . S
C2351 C2350 1.367 . S
C2351 C2353 1.433 . S
C2352 C2348 1.350 . S
C2352 C2349 1.463 . S
C2352 N2356 1.427 . S
C2353 H2343 0.929 . S
C2353 C2351 1.433 . S
C2353 N2356 1.384 . S
C2354 H2345 0.929 . S
C2354 C2346 1.378 . S
C2354 C2349 1.350 . S
C2355 H2342 0.929 . S
C2355 C2347 1.433 . S
C2355 N2357 1.384 . S
N2356 C2352 1.427 . S
N2356 C2353 1.384 . S
N2357 C2349 1.427 . S
N2357 C2355 1.384 . S
H2358 C2364 0.930 . S
H2359 C2368 0.930 . S
H2360 C2373 0.929 . S
H2361 C2371 0.929 . S
H2362 C2366 0.929 . S
H2363 C2372 0.929 . S
C2364 H2358 0.930 . S
C2364 C2365 1.367 . S
C2364 C2372 1.378 . S
C2365 C2364 1.367 . S
C2365 C2373 1.433 . S
C2366 H2362 0.929 . S
C2366 C2368 1.378 . S
C2366 C2370 1.350 . S
C2367 C2370 1.463 . S
C2367 C2372 1.350 . S
C2367 N2375 1.427 . S
C2368 H2359 0.930 . S
C2368 C2366 1.378 . S
C2368 C2369 1.367 . S
C2369 C2368 1.367 . S
C2369 C2371 1.433 . S
C2370 C2366 1.350 . S
C2370 C2367 1.463 . S
C2370 N2374 1.427 . S
C2371 H2361 0.929 . S
C2371 C2369 1.433 . S
C2371 N2374 1.384 . S
C2372 H2363 0.929 . S
C2372 C2364 1.378 . S
C2372 C2367 1.350 . S
C2373 H2360 0.929 . S
C2373 C2365 1.433 . S
C2373 N2375 1.384 . S
N2374 C2370 1.427 . S
N2374 C2371 1.384 . S
N2375 C2367 1.427 . S
N2375 C2373 1.384 . S
H2376 C2382 0.930 . S
H2377 C2386 0.930 . S
H2378 C2391 0.929 . S
H2379 C2389 0.929 . S
H2380 C2384 0.929 . S
H2381 C2390 0.929 . S
C2382 H2376 0.930 . S
C2382 C2383 1.367 . S
C2382 C2390 1.378 . S
C2383 C2382 1.367 . S
C2383 C2391 1.433 . S
C2384 H2380 0.929 . S
C2384 C2386 1.378 . S
C2384 C2388 1.350 . S
C2385 C2388 1.463 . S
C2385 C2390 1.350 . S
C2385 N2393 1.427 . S
C2386 H2377 0.930 . S
C2386 C2384 1.378 . S
C2386 C2387 1.367 . S
C2387 C2386 1.367 . S
C2387 C2389 1.433 . S
C2388 C2384 1.350 . S
C2388 C2385 1.463 . S
C2388 N2392 1.427 . S
C2389 H2379 0.929 . S
C2389 C2387 1.433 . S
C2389 N2392 1.384 . S
C2390 H2381 0.929 . S
C2390 C2382 1.378 . S
C2390 C2385 1.350 . S
C2391 H2378 0.929 . S
C2391 C2383 1.433 . S
C2391 N2393 1.384 . S
N2392 C2388 1.427 . S
N2392 C2389 1.384 . S
N2393 C2385 1.427 . S
N2393 C2391 1.384 . S
H2394 C2400 0.880 1_556 S
H2395 C2404 0.930 . S
H2396 C2409 0.929 . S
H2397 C2407 0.929 . S
H2398 C2402 0.929 . S
H2399 C2408 0.929 . S
C2400 H2394 0.880 1_554 S
C2400 C2401 1.367 . S
C2400 C2408 1.378 . S
C2401 C2400 1.367 . S
C2401 C2409 1.433 . S
C2402 H2398 0.929 . S
C2402 C2404 1.378 1_545 S
C2402 C2406 1.350 . S
C2403 C2406 1.463 . S
C2403 C2408 1.350 . S
C2403 N2411 1.427 . S
C2404 H2395 0.930 . S
C2404 C2402 1.378 1_565 S
C2404 C2405 1.367 . S
C2405 C2404 1.367 . S
C2405 C2407 1.433 . S
C2406 C2402 1.350 . S
C2406 C2403 1.463 . S
C2406 N2410 1.427 . S
C2407 H2397 0.929 . S
C2407 C2405 1.433 . S
C2407 N2410 1.384 1_565 S
C2408 H2399 0.929 . S
C2408 C2400 1.378 . S
C2408 C2403 1.350 . S
C2409 H2396 0.929 . S
C2409 C2401 1.433 . S
C2409 N2411 1.384 . S
N2410 C2406 1.427 . S
N2410 C2407 1.384 1_545 S
N2411 C2403 1.427 . S
N2411 C2409 1.384 . S
H2412 C2418 0.930 . S
H2413 C2422 0.930 . S
H2414 C2427 0.929 . S
H2415 C2425 0.929 . S
H2416 C2420 0.929 . S
H2417 C2426 0.929 . S
C2418 H2412 0.930 . S
C2418 C2419 1.367 . S
C2418 C2426 1.378 . S
C2419 C2418 1.367 . S
C2419 C2427 1.433 . S
C2420 H2416 0.929 . S
C2420 C2422 1.378 . S
C2420 C2424 1.350 . S
C2421 C2424 1.463 . S
C2421 C2426 1.350 . S
C2421 N2429 1.427 . S
C2422 H2413 0.930 . S
C2422 C2420 1.378 . S
C2422 C2423 1.367 . S
C2423 C2422 1.367 . S
C2423 C2425 1.433 . S
C2424 C2420 1.350 . S
C2424 C2421 1.463 . S
C2424 N2428 1.427 . S
C2425 H2415 0.929 . S
C2425 C2423 1.433 . S
C2425 N2428 1.384 . S
C2426 H2417 0.929 . S
C2426 C2418 1.378 . S
C2426 C2421 1.350 . S
C2427 H2414 0.929 . S
C2427 C2419 1.433 . S
C2427 N2429 1.384 . S
N2428 C2424 1.427 . S
N2428 C2425 1.384 . S
N2429 C2421 1.427 . S
N2429 C2427 1.384 . S
H2430 C2436 0.930 . S
H2431 C2440 0.930 . S
H2432 C2445 0.929 . S
H2433 C2443 0.929 . S
H2434 C2438 0.929 . S
H2435 C2444 0.929 . S
C2436 H2430 0.930 . S
C2436 C2437 1.367 . S
C2436 C2444 1.378 . S
C2437 C2436 1.367 . S
C2437 C2445 1.433 . S
C2438 H2434 0.929 . S
C2438 C2440 1.378 . S
C2438 C2442 1.350 . S
C2439 C2442 1.463 . S
C2439 C2444 1.350 . S
C2439 N2447 1.427 . S
C2440 H2431 0.930 . S
C2440 C2438 1.378 . S
C2440 C2441 1.367 . S
C2441 C2440 1.367 . S
C2441 C2443 1.433 . S
C2442 C2438 1.350 . S
C2442 C2439 1.463 . S
C2442 N2446 1.427 . S
C2443 H2433 0.929 . S
C2443 C2441 1.433 . S
C2443 N2446 1.384 . S
C2444 H2435 0.929 . S
C2444 C2436 1.378 . S
C2444 C2439 1.350 . S
C2445 H2432 0.929 . S
C2445 C2437 1.433 . S
C2445 N2447 1.384 . S
N2446 C2442 1.427 . S
N2446 C2443 1.384 . S
N2447 C2439 1.427 . S
N2447 C2445 1.384 . S
H2448 C2454 0.930 . S
H2449 C2458 0.930 . S
H2450 C2463 0.929 . S
H2451 C2461 0.929 . S
H2452 C2456 0.929 . S
H2453 C2462 0.929 . S
C2454 H2448 0.930 . S
C2454 C2455 1.367 . S
C2454 C2462 1.378 . S
C2455 C2454 1.367 . S
C2455 C2463 1.433 . S
C2456 H2452 0.929 . S
C2456 C2458 1.378 . S
C2456 C2460 1.350 . S
C2457 C2460 1.463 . S
C2457 C2462 1.350 . S
C2457 N2465 1.427 . S
C2458 H2449 0.930 . S
C2458 C2456 1.378 . S
C2458 C2459 1.367 . S
C2459 C2458 1.367 . S
C2459 C2461 1.433 . S
C2460 C2456 1.350 . S
C2460 C2457 1.463 . S
C2460 N2464 1.427 . S
C2461 H2451 0.929 . S
C2461 C2459 1.433 . S
C2461 N2464 1.384 . S
C2462 H2453 0.929 . S
C2462 C2454 1.378 . S
C2462 C2457 1.350 . S
C2463 H2450 0.929 . S
C2463 C2455 1.433 . S
C2463 N2465 1.384 . S
N2464 C2460 1.427 . S
N2464 C2461 1.384 . S
N2465 C2457 1.427 . S
N2465 C2463 1.384 . S
H2466 C2472 0.930 . S
H2467 C2476 0.930 . S
H2468 C2481 0.929 . S
H2469 C2479 0.929 . S
H2470 C2474 0.929 . S
H2471 C2480 0.929 . S
C2472 H2466 0.930 . S
C2472 C2473 1.367 . S
C2472 C2480 1.378 . S
C2473 C2472 1.367 . S
C2473 C2481 1.433 . S
C2474 H2470 0.929 . S
C2474 C2476 1.378 . S
C2474 C2478 1.350 . S
C2475 C2478 1.463 . S
C2475 C2480 1.350 . S
C2475 N2483 1.427 . S
C2476 H2467 0.930 . S
C2476 C2474 1.378 . S
C2476 C2477 1.367 . S
C2477 C2476 1.367 . S
C2477 C2479 1.433 . S
C2478 C2474 1.350 . S
C2478 C2475 1.463 . S
C2478 N2482 1.427 . S
C2479 H2469 0.929 . S
C2479 C2477 1.433 . S
C2479 N2482 1.384 . S
C2480 H2471 0.929 . S
C2480 C2472 1.378 . S
C2480 C2475 1.350 . S
C2481 H2468 0.929 . S
C2481 C2473 1.433 . S
C2481 N2483 1.384 . S
N2482 C2478 1.427 . S
N2482 C2479 1.384 . S
N2483 C2475 1.427 . S
N2483 C2481 1.384 . S
H2484 C2490 0.930 . S
H2485 C2494 0.930 . S
H2486 C2499 0.929 . S
H2487 C2497 0.929 . S
H2488 C2492 0.929 . S
H2489 C2498 0.929 . S
C2490 H2484 0.930 . S
C2490 C2491 1.367 . S
C2490 C2498 1.378 . S
C2491 C2490 1.367 . S
C2491 C2499 1.433 . S
C2492 H2488 0.929 . S
C2492 C2494 1.378 . S
C2492 C2496 1.350 . S
C2493 C2496 1.463 . S
C2493 C2498 1.350 . S
C2493 N2501 1.427 . S
C2494 H2485 0.930 . S
C2494 C2492 1.378 . S
C2494 C2495 1.367 . S
C2495 C2494 1.367 . S
C2495 C2497 1.433 . S
C2496 C2492 1.350 . S
C2496 C2493 1.463 . S
C2496 N2500 1.427 . S
C2497 H2487 0.929 . S
C2497 C2495 1.433 . S
C2497 N2500 1.384 . S
C2498 H2489 0.929 . S
C2498 C2490 1.378 . S
C2498 C2493 1.350 . S
C2499 H2486 0.929 . S
C2499 C2491 1.433 . S
C2499 N2501 1.384 . S
N2500 C2496 1.427 . S
N2500 C2497 1.384 . S
N2501 C2493 1.427 . S
N2501 C2499 1.384 . S
H2502 C2508 0.930 . S
H2503 C2512 0.930 . S
H2504 C2517 0.929 . S
H2505 C2515 0.929 . S
H2506 C2510 0.929 . S
H2507 C2516 0.929 . S
C2508 H2502 0.930 . S
C2508 C2509 1.367 . S
C2508 C2516 1.378 . S
C2509 C2508 1.367 . S
C2509 C2517 1.433 . S
C2510 H2506 0.929 . S
C2510 C2512 1.378 . S
C2510 C2514 1.350 . S
C2511 C2514 1.463 . S
C2511 C2516 1.350 . S
C2511 N2519 1.427 . S
C2512 H2503 0.930 . S
C2512 C2510 1.378 . S
C2512 C2513 1.367 . S
C2513 C2512 1.367 . S
C2513 C2515 1.433 . S
C2514 C2510 1.350 . S
C2514 C2511 1.463 . S
C2514 N2518 1.427 . S
C2515 H2505 0.929 . S
C2515 C2513 1.433 . S
C2515 N2518 1.384 . S
C2516 H2507 0.929 . S
C2516 C2508 1.378 . S
C2516 C2511 1.350 . S
C2517 H2504 0.929 . S
C2517 C2509 1.433 . S
C2517 N2519 1.384 . S
N2518 C2514 1.427 . S
N2518 C2515 1.384 . S
N2519 C2511 1.427 . S
N2519 C2517 1.384 . S
H2520 C2526 0.930 . S
H2521 C2530 0.930 . S
H2522 C2535 0.929 . S
H2523 C2533 0.929 . S
H2524 C2528 0.929 . S
H2525 C2534 0.929 . S
C2526 H2520 0.930 . S
C2526 C2527 1.367 . S
C2526 C2534 1.378 . S
C2527 C2526 1.367 . S
C2527 C2535 1.433 . S
C2528 H2524 0.929 . S
C2528 C2530 1.378 . S
C2528 C2532 1.350 . S
C2529 C2532 1.463 . S
C2529 C2534 1.350 . S
C2529 N2537 1.427 . S
C2530 H2521 0.930 . S
C2530 C2528 1.378 . S
C2530 C2531 1.367 . S
C2531 C2530 1.367 . S
C2531 C2533 1.433 . S
C2532 C2528 1.350 . S
C2532 C2529 1.463 . S
C2532 N2536 1.427 . S
C2533 H2523 0.929 . S
C2533 C2531 1.433 . S
C2533 N2536 1.384 . S
C2534 H2525 0.929 . S
C2534 C2526 1.378 . S
C2534 C2529 1.350 . S
C2535 H2522 0.929 . S
C2535 C2527 1.433 . S
C2535 N2537 1.384 . S
N2536 C2532 1.427 . S
N2536 C2533 1.384 . S
N2537 C2529 1.427 . S
N2537 C2535 1.384 . S
H2538 C2544 0.930 . S
H2539 C2548 0.930 . S
H2540 C2553 0.929 . S
H2541 C2551 0.929 . S
H2542 C2546 0.929 . S
H2543 C2552 0.929 . S
C2544 H2538 0.930 . S
C2544 C2545 1.367 . S
C2544 C2552 1.378 . S
C2545 C2544 1.367 . S
C2545 C2553 1.433 . S
C2546 H2542 0.929 . S
C2546 C2548 1.378 . S
C2546 C2550 1.350 . S
C2547 C2550 1.463 . S
C2547 C2552 1.350 . S
C2547 N2555 1.427 . S
C2548 H2539 0.930 . S
C2548 C2546 1.378 . S
C2548 C2549 1.367 . S
C2549 C2548 1.367 . S
C2549 C2551 1.433 . S
C2550 C2546 1.350 . S
C2550 C2547 1.463 . S
C2550 N2554 1.427 . S
C2551 H2541 0.929 . S
C2551 C2549 1.433 . S
C2551 N2554 1.384 . S
C2552 H2543 0.929 . S
C2552 C2544 1.378 . S
C2552 C2547 1.350 . S
C2553 H2540 0.929 . S
C2553 C2545 1.433 . S
C2553 N2555 1.384 . S
N2554 C2550 1.427 . S
N2554 C2551 1.384 . S
N2555 C2547 1.427 . S
N2555 C2553 1.384 . S
H2556 C2562 0.930 . S
H2557 C2566 0.930 . S
H2558 C2571 0.929 . S
H2559 C2569 0.929 . S
H2560 C2564 0.929 . S
H2561 C2570 0.929 . S
C2562 H2556 0.930 . S
C2562 C2563 1.367 . S
C2562 C2570 1.378 . S
C2563 C2562 1.367 . S
C2563 C2571 1.433 . S
C2564 H2560 0.929 . S
C2564 C2566 1.378 . S
C2564 C2568 1.350 . S
C2565 C2568 1.463 . S
C2565 C2570 1.350 . S
C2565 N2573 1.427 . S
C2566 H2557 0.930 . S
C2566 C2564 1.378 . S
C2566 C2567 1.367 . S
C2567 C2566 1.367 . S
C2567 C2569 1.433 . S
C2568 C2564 1.350 . S
C2568 C2565 1.463 . S
C2568 N2572 1.427 . S
C2569 H2559 0.929 . S
C2569 C2567 1.433 . S
C2569 N2572 1.384 . S
C2570 H2561 0.929 . S
C2570 C2562 1.378 . S
C2570 C2565 1.350 . S
C2571 H2558 0.929 . S
C2571 C2563 1.433 . S
C2571 N2573 1.384 . S
N2572 C2568 1.427 . S
N2572 C2569 1.384 . S
N2573 C2565 1.427 . S
N2573 C2571 1.384 . S
H2574 C2580 0.930 . S
H2575 C2584 0.930 . S
H2576 C2589 0.929 . S
H2577 C2587 0.929 . S
H2578 C2582 0.929 . S
H2579 C2588 0.929 . S
C2580 H2574 0.930 . S
C2580 C2581 1.367 . S
C2580 C2588 1.378 . S
C2581 C2580 1.367 . S
C2581 C2589 1.433 . S
C2582 H2578 0.929 . S
C2582 C2584 1.378 . S
C2582 C2586 1.350 . S
C2583 C2586 1.463 . S
C2583 C2588 1.350 . S
C2583 N2591 1.427 . S
C2584 H2575 0.930 . S
C2584 C2582 1.378 . S
C2584 C2585 1.367 . S
C2585 C2584 1.367 . S
C2585 C2587 1.433 . S
C2586 C2582 1.350 . S
C2586 C2583 1.463 . S
C2586 N2590 1.427 . S
C2587 H2577 0.929 . S
C2587 C2585 1.433 . S
C2587 N2590 1.384 . S
C2588 H2579 0.929 . S
C2588 C2580 1.378 . S
C2588 C2583 1.350 . S
C2589 H2576 0.929 . S
C2589 C2581 1.433 . S
C2589 N2591 1.384 . S
N2590 C2586 1.427 . S
N2590 C2587 1.384 . S
N2591 C2583 1.427 . S
N2591 C2589 1.384 . S
H2592 C2598 0.930 . S
H2593 C2602 0.930 . S
H2594 C2607 0.929 . S
H2595 C2605 0.929 . S
H2596 C2600 0.929 . S
H2597 C2606 0.929 . S
C2598 H2592 0.930 . S
C2598 C2599 1.367 . S
C2598 C2606 1.378 . S
C2599 C2598 1.367 . S
C2599 C2607 1.433 . S
C2600 H2596 0.929 . S
C2600 C2602 1.378 . S
C2600 C2604 1.350 . S
C2601 C2604 1.463 . S
C2601 C2606 1.350 . S
C2601 N2609 1.427 . S
C2602 H2593 0.930 . S
C2602 C2600 1.378 . S
C2602 C2603 1.367 . S
C2603 C2602 1.367 . S
C2603 C2605 1.433 . S
C2604 C2600 1.350 . S
C2604 C2601 1.463 . S
C2604 N2608 1.427 . S
C2605 H2595 0.929 . S
C2605 C2603 1.433 . S
C2605 N2608 1.384 . S
C2606 H2597 0.929 . S
C2606 C2598 1.378 . S
C2606 C2601 1.350 . S
C2607 H2594 0.929 . S
C2607 C2599 1.433 . S
C2607 N2609 1.384 . S
N2608 C2604 1.427 . S
N2608 C2605 1.384 . S
N2609 C2601 1.427 . S
N2609 C2607 1.384 . S
H2610 C2616 0.930 . S
H2611 C2620 0.930 . S
H2612 C2625 0.929 . S
H2613 C2623 0.929 . S
H2614 C2618 0.929 . S
H2615 C2624 0.929 . S
C2616 H2610 0.930 . S
C2616 C2617 1.367 . S
C2616 C2624 1.378 . S
C2617 C2616 1.367 . S
C2617 C2625 1.433 . S
C2618 H2614 0.929 . S
C2618 C2620 1.378 . S
C2618 C2622 1.350 . S
C2619 C2622 1.463 . S
C2619 C2624 1.350 . S
C2619 N2627 1.427 . S
C2620 H2611 0.930 . S
C2620 C2618 1.378 . S
C2620 C2621 1.367 . S
C2621 C2620 1.367 . S
C2621 C2623 1.433 . S
C2622 C2618 1.350 . S
C2622 C2619 1.463 . S
C2622 N2626 1.427 . S
C2623 H2613 0.929 . S
C2623 C2621 1.433 . S
C2623 N2626 1.384 . S
C2624 H2615 0.929 . S
C2624 C2616 1.378 . S
C2624 C2619 1.350 . S
C2625 H2612 0.929 . S
C2625 C2617 1.433 . S
C2625 N2627 1.384 . S
N2626 C2622 1.427 . S
N2626 C2623 1.384 . S
N2627 C2619 1.427 . S
N2627 C2625 1.384 . S
H2628 C2634 0.930 . S
H2629 C2638 0.930 . S
H2630 C2643 0.929 . S
H2631 C2641 0.929 . S
H2632 C2636 0.929 . S
H2633 C2642 0.929 . S
C2634 H2628 0.930 . S
C2634 C2635 1.367 . S
C2634 C2642 1.378 . S
C2635 C2634 1.367 . S
C2635 C2643 1.433 . S
C2636 H2632 0.929 . S
C2636 C2638 1.378 . S
C2636 C2640 1.350 . S
C2637 C2640 1.463 . S
C2637 C2642 1.350 . S
C2637 N2645 1.427 . S
C2638 H2629 0.930 . S
C2638 C2636 1.378 . S
C2638 C2639 1.367 . S
C2639 C2638 1.367 . S
C2639 C2641 1.433 . S
C2640 C2636 1.350 . S
C2640 C2637 1.463 . S
C2640 N2644 1.427 . S
C2641 H2631 0.929 . S
C2641 C2639 1.433 . S
C2641 N2644 1.384 . S
C2642 H2633 0.929 . S
C2642 C2634 1.378 . S
C2642 C2637 1.350 . S
C2643 H2630 0.929 . S
C2643 C2635 1.433 . S
C2643 N2645 1.384 . S
N2644 C2640 1.427 . S
N2644 C2641 1.384 . S
N2645 C2637 1.427 . S
N2645 C2643 1.384 . S
H2646 C2652 0.930 . S
H2647 C2656 0.930 . S
H2648 C2661 0.929 . S
H2649 C2659 0.929 . S
H2650 C2654 0.929 . S
H2651 C2660 0.929 . S
C2652 H2646 0.930 . S
C2652 C2653 1.367 . S
C2652 C2660 1.378 . S
C2653 C2652 1.367 . S
C2653 C2661 1.433 . S
C2654 H2650 0.929 . S
C2654 C2656 1.378 . S
C2654 C2658 1.350 . S
C2655 C2658 1.463 . S
C2655 C2660 1.350 . S
C2655 N2663 1.427 . S
C2656 H2647 0.930 . S
C2656 C2654 1.378 . S
C2656 C2657 1.367 . S
C2657 C2656 1.367 . S
C2657 C2659 1.433 . S
C2658 C2654 1.350 . S
C2658 C2655 1.463 . S
C2658 N2662 1.427 . S
C2659 H2649 0.929 . S
C2659 C2657 1.433 . S
C2659 N2662 1.384 . S
C2660 H2651 0.929 . S
C2660 C2652 1.378 . S
C2660 C2655 1.350 . S
C2661 H2648 0.929 . S
C2661 C2653 1.433 . S
C2661 N2663 1.384 . S
N2662 C2658 1.427 . S
N2662 C2659 1.384 . S
N2663 C2655 1.427 . S
N2663 C2661 1.384 . S
H2664 C2670 0.930 . S
H2665 C2674 0.930 . S
H2666 C2679 0.929 . S
H2667 C2677 0.929 . S
H2668 C2672 0.929 . S
H2669 C2678 0.929 . S
C2670 H2664 0.930 . S
C2670 C2671 1.367 . S
C2670 C2678 1.378 . S
C2671 C2670 1.367 . S
C2671 C2679 1.433 . S
C2672 H2668 0.929 . S
C2672 C2674 1.378 . S
C2672 C2676 1.350 . S
C2673 C2676 1.463 . S
C2673 C2678 1.350 . S
C2673 N2681 1.427 . S
C2674 H2665 0.930 . S
C2674 C2672 1.378 . S
C2674 C2675 1.367 . S
C2675 C2674 1.367 . S
C2675 C2677 1.433 . S
C2676 C2672 1.350 . S
C2676 C2673 1.463 . S
C2676 N2680 1.427 . S
C2677 H2667 0.929 . S
C2677 C2675 1.433 . S
C2677 N2680 1.384 . S
C2678 H2669 0.929 . S
C2678 C2670 1.378 . S
C2678 C2673 1.350 . S
C2679 H2666 0.929 . S
C2679 C2671 1.433 . S
C2679 N2681 1.384 . S
N2680 C2676 1.427 . S
N2680 C2677 1.384 . S
N2681 C2673 1.427 . S
N2681 C2679 1.384 . S
H2682 C2688 0.930 . S
H2683 C2692 0.930 . S
H2684 C2697 0.929 . S
H2685 C2695 0.929 . S
H2686 C2690 0.929 . S
H2687 C2696 0.929 . S
C2688 H2682 0.930 . S
C2688 C2689 1.367 . S
C2688 C2696 1.378 . S
C2689 C2688 1.367 . S
C2689 C2697 1.433 . S
C2690 H2686 0.929 . S
C2690 C2692 1.378 . S
C2690 C2694 1.350 . S
C2691 C2694 1.463 . S
C2691 C2696 1.350 . S
C2691 N2699 1.427 . S
C2692 H2683 0.930 . S
C2692 C2690 1.378 . S
C2692 C2693 1.367 . S
C2693 C2692 1.367 . S
C2693 C2695 1.433 . S
C2694 C2690 1.350 . S
C2694 C2691 1.463 . S
C2694 N2698 1.427 . S
C2695 H2685 0.929 . S
C2695 C2693 1.433 . S
C2695 N2698 1.384 . S
C2696 H2687 0.929 . S
C2696 C2688 1.378 . S
C2696 C2691 1.350 . S
C2697 H2684 0.929 . S
C2697 C2689 1.433 . S
C2697 N2699 1.384 . S
N2698 C2694 1.427 . S
N2698 C2695 1.384 . S
N2699 C2691 1.427 . S
N2699 C2697 1.384 . S
H2700 C2706 0.930 . S
H2701 C2710 0.930 . S
H2702 C2715 0.929 . S
H2703 C2713 0.929 . S
H2704 C2708 0.929 . S
H2705 C2714 0.929 . S
C2706 H2700 0.930 . S
C2706 C2707 1.367 . S
C2706 C2714 1.378 . S
C2707 C2706 1.367 . S
C2707 C2715 1.433 . S
C2708 H2704 0.929 . S
C2708 C2710 1.378 . S
C2708 C2712 1.350 . S
C2709 C2712 1.463 . S
C2709 C2714 1.350 . S
C2709 N2717 1.427 . S
C2710 H2701 0.930 . S
C2710 C2708 1.378 . S
C2710 C2711 1.367 . S
C2711 C2710 1.367 . S
C2711 C2713 1.433 . S
C2712 C2708 1.350 . S
C2712 C2709 1.463 . S
C2712 N2716 1.427 . S
C2713 H2703 0.929 . S
C2713 C2711 1.433 . S
C2713 N2716 1.384 . S
C2714 H2705 0.929 . S
C2714 C2706 1.378 . S
C2714 C2709 1.350 . S
C2715 H2702 0.929 . S
C2715 C2707 1.433 . S
C2715 N2717 1.384 . S
N2716 C2712 1.427 . S
N2716 C2713 1.384 . S
N2717 C2709 1.427 . S
N2717 C2715 1.384 . S
H2718 C2724 0.930 . S
H2719 C2728 0.930 . S
H2720 C2733 0.929 . S
H2721 C2731 0.929 . S
H2722 C2726 0.929 . S
H2723 C2732 0.929 . S
C2724 H2718 0.930 . S
C2724 C2725 1.367 . S
C2724 C2732 1.378 . S
C2725 C2724 1.367 . S
C2725 C2733 1.433 . S
C2726 H2722 0.929 . S
C2726 C2728 1.378 . S
C2726 C2730 1.350 . S
C2727 C2730 1.463 . S
C2727 C2732 1.350 . S
C2727 N2735 1.427 . S
C2728 H2719 0.930 . S
C2728 C2726 1.378 . S
C2728 C2729 1.367 . S
C2729 C2728 1.367 . S
C2729 C2731 1.433 . S
C2730 C2726 1.350 . S
C2730 C2727 1.463 . S
C2730 N2734 1.427 . S
C2731 H2721 0.929 . S
C2731 C2729 1.433 . S
C2731 N2734 1.384 . S
C2732 H2723 0.929 . S
C2732 C2724 1.378 . S
C2732 C2727 1.350 . S
C2733 H2720 0.929 . S
C2733 C2725 1.433 . S
C2733 N2735 1.384 . S
N2734 C2730 1.427 . S
N2734 C2731 1.384 . S
N2735 C2727 1.427 . S
N2735 C2733 1.384 . S
H2736 C2742 0.930 . S
H2737 C2746 0.930 . S
H2738 C2751 0.929 . S
H2739 C2749 0.929 . S
H2740 C2744 0.929 . S
H2741 C2750 0.929 . S
C2742 H2736 0.930 . S
C2742 C2743 1.367 . S
C2742 C2750 1.378 . S
C2743 C2742 1.367 . S
C2743 C2751 1.433 . S
C2744 H2740 0.929 . S
C2744 C2746 1.378 . S
C2744 C2748 1.350 . S
C2745 C2748 1.463 . S
C2745 C2750 1.350 . S
C2745 N2753 1.427 . S
C2746 H2737 0.930 . S
C2746 C2744 1.378 . S
C2746 C2747 1.367 . S
C2747 C2746 1.367 . S
C2747 C2749 1.433 . S
C2748 C2744 1.350 . S
C2748 C2745 1.463 . S
C2748 N2752 1.427 . S
C2749 H2739 0.929 . S
C2749 C2747 1.433 . S
C2749 N2752 1.384 . S
C2750 H2741 0.929 . S
C2750 C2742 1.378 . S
C2750 C2745 1.350 . S
C2751 H2738 0.929 . S
C2751 C2743 1.433 . S
C2751 N2753 1.384 . S
N2752 C2748 1.427 . S
N2752 C2749 1.384 . S
N2753 C2745 1.427 . S
N2753 C2751 1.384 . S
H2754 C2760 0.930 . S
H2755 C2764 0.930 . S
H2756 C2769 0.929 . S
H2757 C2767 0.929 . S
H2758 C2762 0.929 . S
H2759 C2768 0.929 . S
C2760 H2754 0.930 . S
C2760 C2761 1.367 . S
C2760 C2768 1.378 . S
C2761 C2760 1.367 . S
C2761 C2769 1.433 . S
C2762 H2758 0.929 . S
C2762 C2764 1.378 . S
C2762 C2766 1.350 . S
C2763 C2766 1.463 . S
C2763 C2768 1.350 . S
C2763 N2771 1.427 . S
C2764 H2755 0.930 . S
C2764 C2762 1.378 . S
C2764 C2765 1.367 . S
C2765 C2764 1.367 . S
C2765 C2767 1.433 . S
C2766 C2762 1.350 . S
C2766 C2763 1.463 . S
C2766 N2770 1.427 . S
C2767 H2757 0.929 . S
C2767 C2765 1.433 . S
C2767 N2770 1.384 . S
C2768 H2759 0.929 . S
C2768 C2760 1.378 . S
C2768 C2763 1.350 . S
C2769 H2756 0.929 . S
C2769 C2761 1.433 . S
C2769 N2771 1.384 . S
N2770 C2766 1.427 . S
N2770 C2767 1.384 . S
N2771 C2763 1.427 . S
N2771 C2769 1.384 . S
H2772 C2778 0.930 . S
H2773 C2782 0.930 . S
H2774 C2787 0.929 . S
H2775 C2785 0.929 . S
H2776 C2780 0.929 . S
H2777 C2786 0.929 . S
C2778 H2772 0.930 . S
C2778 C2779 1.367 . S
C2778 C2786 1.378 . S
C2779 C2778 1.367 . S
C2779 C2787 1.433 . S
C2780 H2776 0.929 . S
C2780 C2782 1.378 . S
C2780 C2784 1.350 . S
C2781 C2784 1.463 . S
C2781 C2786 1.350 . S
C2781 N2789 1.427 . S
C2782 H2773 0.930 . S
C2782 C2780 1.378 . S
C2782 C2783 1.367 . S
C2783 C2782 1.367 . S
C2783 C2785 1.433 . S
C2784 C2780 1.350 . S
C2784 C2781 1.463 . S
C2784 N2788 1.427 . S
C2785 H2775 0.929 . S
C2785 C2783 1.433 . S
C2785 N2788 1.384 . S
C2786 H2777 0.929 . S
C2786 C2778 1.378 . S
C2786 C2781 1.350 . S
C2787 H2774 0.929 . S
C2787 C2779 1.433 . S
C2787 N2789 1.384 . S
N2788 C2784 1.427 . S
N2788 C2785 1.384 . S
N2789 C2781 1.427 . S
N2789 C2787 1.384 . S
H2790 C2796 0.930 . S
H2791 C2800 0.930 . S
H2792 C2805 0.929 . S
H2793 C2803 0.929 . S
H2794 C2798 0.929 . S
H2795 C2804 0.929 . S
C2796 H2790 0.930 . S
C2796 C2797 1.367 . S
C2796 C2804 1.378 . S
C2797 C2796 1.367 . S
C2797 C2805 1.433 . S
C2798 H2794 0.929 . S
C2798 C2800 1.378 . S
C2798 C2802 1.350 . S
C2799 C2802 1.463 . S
C2799 C2804 1.350 . S
C2799 N2807 1.427 . S
C2800 H2791 0.930 . S
C2800 C2798 1.378 . S
C2800 C2801 1.367 . S
C2801 C2800 1.367 . S
C2801 C2803 1.433 . S
C2802 C2798 1.350 . S
C2802 C2799 1.463 . S
C2802 N2806 1.427 . S
C2803 H2793 0.929 . S
C2803 C2801 1.433 . S
C2803 N2806 1.384 . S
C2804 H2795 0.929 . S
C2804 C2796 1.378 . S
C2804 C2799 1.350 . S
C2805 H2792 0.929 . S
C2805 C2797 1.433 . S
C2805 N2807 1.384 . S
N2806 C2802 1.427 . S
N2806 C2803 1.384 . S
N2807 C2799 1.427 . S
N2807 C2805 1.384 . S
H2808 C2814 0.930 . S
H2809 C2818 0.930 . S
H2810 C2823 0.929 . S
H2811 C2821 0.929 . S
H2812 C2816 0.929 . S
H2813 C2822 0.929 . S
C2814 H2808 0.930 . S
C2814 C2815 1.367 . S
C2814 C2822 1.378 . S
C2815 C2814 1.367 . S
C2815 C2823 1.433 . S
C2816 H2812 0.929 . S
C2816 C2818 1.378 . S
C2816 C2820 1.350 . S
C2817 C2820 1.463 . S
C2817 C2822 1.350 . S
C2817 N2825 1.427 . S
C2818 H2809 0.930 . S
C2818 C2816 1.378 . S
C2818 C2819 1.367 . S
C2819 C2818 1.367 . S
C2819 C2821 1.433 . S
C2820 C2816 1.350 . S
C2820 C2817 1.463 . S
C2820 N2824 1.427 . S
C2821 H2811 0.929 . S
C2821 C2819 1.433 . S
C2821 N2824 1.384 . S
C2822 H2813 0.929 . S
C2822 C2814 1.378 . S
C2822 C2817 1.350 . S
C2823 H2810 0.929 . S
C2823 C2815 1.433 . S
C2823 N2825 1.384 . S
N2824 C2820 1.427 . S
N2824 C2821 1.384 . S
N2825 C2817 1.427 . S
N2825 C2823 1.384 . S
H2826 C2832 0.930 . S
H2827 C2836 0.930 . S
H2828 C2841 0.929 . S
H2829 C2839 0.929 . S
H2830 C2834 0.929 . S
H2831 C2840 0.929 . S
C2832 H2826 0.930 . S
C2832 C2833 1.367 . S
C2832 C2840 1.378 . S
C2833 C2832 1.367 . S
C2833 C2841 1.433 . S
C2834 H2830 0.929 . S
C2834 C2836 1.378 . S
C2834 C2838 1.350 . S
C2835 C2838 1.463 . S
C2835 C2840 1.350 . S
C2835 N2843 1.427 . S
C2836 H2827 0.930 . S
C2836 C2834 1.378 . S
C2836 C2837 1.367 . S
C2837 C2836 1.367 . S
C2837 C2839 1.433 . S
C2838 C2834 1.350 . S
C2838 C2835 1.463 . S
C2838 N2842 1.427 . S
C2839 H2829 0.929 . S
C2839 C2837 1.433 . S
C2839 N2842 1.384 . S
C2840 H2831 0.929 . S
C2840 C2832 1.378 . S
C2840 C2835 1.350 . S
C2841 H2828 0.929 . S
C2841 C2833 1.433 . S
C2841 N2843 1.384 . S
N2842 C2838 1.427 . S
N2842 C2839 1.384 . S
N2843 C2835 1.427 . S
N2843 C2841 1.384 . S
H2844 C2850 0.930 . S
H2845 C2854 0.930 . S
H2846 C2859 0.929 . S
H2847 C2857 0.929 . S
H2848 C2852 0.929 . S
H2849 C2858 0.929 . S
C2850 H2844 0.930 . S
C2850 C2851 1.367 . S
C2850 C2858 1.378 . S
C2851 C2850 1.367 . S
C2851 C2859 1.433 . S
C2852 H2848 0.929 . S
C2852 C2854 1.378 . S
C2852 C2856 1.350 . S
C2853 C2856 1.463 . S
C2853 C2858 1.350 . S
C2853 N2861 1.427 . S
C2854 H2845 0.930 . S
C2854 C2852 1.378 . S
C2854 C2855 1.367 . S
C2855 C2854 1.367 . S
C2855 C2857 1.433 . S
C2856 C2852 1.350 . S
C2856 C2853 1.463 . S
C2856 N2860 1.427 . S
C2857 H2847 0.929 . S
C2857 C2855 1.433 . S
C2857 N2860 1.384 . S
C2858 H2849 0.929 . S
C2858 C2850 1.378 . S
C2858 C2853 1.350 . S
C2859 H2846 0.929 . S
C2859 C2851 1.433 . S
C2859 N2861 1.384 . S
N2860 C2856 1.427 . S
N2860 C2857 1.384 . S
N2861 C2853 1.427 . S
N2861 C2859 1.384 . S
H2862 C2868 0.930 . S
H2863 C2872 0.930 . S
H2864 C2877 0.929 . S
H2865 C2875 0.929 . S
H2866 C2870 0.929 . S
H2867 C2876 0.929 . S
C2868 H2862 0.930 . S
C2868 C2869 1.367 . S
C2868 C2876 1.378 . S
C2869 C2868 1.367 . S
C2869 C2877 1.433 . S
C2870 H2866 0.929 . S
C2870 C2872 1.378 . S
C2870 C2874 1.350 . S
C2871 C2874 1.463 . S
C2871 C2876 1.350 . S
C2871 N2879 1.427 . S
C2872 H2863 0.930 . S
C2872 C2870 1.378 . S
C2872 C2873 1.367 . S
C2873 C2872 1.367 . S
C2873 C2875 1.433 . S
C2874 C2870 1.350 . S
C2874 C2871 1.463 . S
C2874 N2878 1.427 . S
C2875 H2865 0.929 . S
C2875 C2873 1.433 . S
C2875 N2878 1.384 . S
C2876 H2867 0.929 . S
C2876 C2868 1.378 . S
C2876 C2871 1.350 . S
C2877 H2864 0.929 . S
C2877 C2869 1.433 . S
C2877 N2879 1.384 . S
N2878 C2874 1.427 . S
N2878 C2875 1.384 . S
N2879 C2871 1.427 . S
N2879 C2877 1.384 . S
H2880 C2886 0.930 . S
H2881 C2890 0.930 . S
H2882 C2895 0.929 . S
H2883 C2893 0.929 . S
H2884 C2888 0.929 . S
H2885 C2894 0.929 . S
C2886 H2880 0.930 . S
C2886 C2887 1.367 . S
C2886 C2894 1.378 . S
C2887 C2886 1.367 . S
C2887 C2895 1.433 . S
C2888 H2884 0.929 . S
C2888 C2890 1.378 . S
C2888 C2892 1.350 . S
C2889 C2892 1.463 . S
C2889 C2894 1.350 . S
C2889 N2897 1.427 . S
C2890 H2881 0.930 . S
C2890 C2888 1.378 . S
C2890 C2891 1.367 . S
C2891 C2890 1.367 . S
C2891 C2893 1.433 . S
C2892 C2888 1.350 . S
C2892 C2889 1.463 . S
C2892 N2896 1.427 . S
C2893 H2883 0.929 . S
C2893 C2891 1.433 . S
C2893 N2896 1.384 . S
C2894 H2885 0.929 . S
C2894 C2886 1.378 . S
C2894 C2889 1.350 . S
C2895 H2882 0.929 . S
C2895 C2887 1.433 . S
C2895 N2897 1.384 . S
N2896 C2892 1.427 . S
N2896 C2893 1.384 . S
N2897 C2889 1.427 . S
N2897 C2895 1.384 . S
H2898 C2904 0.930 . S
H2899 C2908 0.930 . S
H2900 C2913 0.929 . S
H2901 C2911 0.929 . S
H2902 C2906 0.929 . S
H2903 C2912 0.929 . S
C2904 H2898 0.930 . S
C2904 C2905 1.367 . S
C2904 C2912 1.378 . S
C2905 C2904 1.367 . S
C2905 C2913 1.433 . S
C2906 H2902 0.929 . S
C2906 C2908 1.378 . S
C2906 C2910 1.350 . S
C2907 C2910 1.463 . S
C2907 C2912 1.350 . S
C2907 N2915 1.427 . S
C2908 H2899 0.930 . S
C2908 C2906 1.378 . S
C2908 C2909 1.367 . S
C2909 C2908 1.367 . S
C2909 C2911 1.433 . S
C2910 C2906 1.350 . S
C2910 C2907 1.463 . S
C2910 N2914 1.427 . S
C2911 H2901 0.929 . S
C2911 C2909 1.433 . S
C2911 N2914 1.384 . S
C2912 H2903 0.929 . S
C2912 C2904 1.378 . S
C2912 C2907 1.350 . S
C2913 H2900 0.929 . S
C2913 C2905 1.433 . S
C2913 N2915 1.384 . S
N2914 C2910 1.427 . S
N2914 C2911 1.384 . S
N2915 C2907 1.427 . S
N2915 C2913 1.384 . S
H2916 C2922 0.930 . S
H2917 C2926 0.930 . S
H2918 C2931 0.929 . S
H2919 C2929 0.929 . S
H2920 C2924 0.929 . S
H2921 C2930 0.929 . S
C2922 H2916 0.930 . S
C2922 C2923 1.367 . S
C2922 C2930 1.378 . S
C2923 C2922 1.367 . S
C2923 C2931 1.433 . S
C2924 H2920 0.929 . S
C2924 C2926 1.378 . S
C2924 C2928 1.350 . S
C2925 C2928 1.463 . S
C2925 C2930 1.350 . S
C2925 N2933 1.427 . S
C2926 H2917 0.930 . S
C2926 C2924 1.378 . S
C2926 C2927 1.367 . S
C2927 C2926 1.367 . S
C2927 C2929 1.433 . S
C2928 C2924 1.350 . S
C2928 C2925 1.463 . S
C2928 N2932 1.427 . S
C2929 H2919 0.929 . S
C2929 C2927 1.433 . S
C2929 N2932 1.384 . S
C2930 H2921 0.929 . S
C2930 C2922 1.378 . S
C2930 C2925 1.350 . S
C2931 H2918 0.929 . S
C2931 C2923 1.433 . S
C2931 N2933 1.384 . S
N2932 C2928 1.427 . S
N2932 C2929 1.384 . S
N2933 C2925 1.427 . S
N2933 C2931 1.384 . S
H2934 C2940 0.930 . S
H2935 C2944 0.930 . S
H2936 C2949 0.929 . S
H2937 C2947 0.929 . S
H2938 C2942 0.929 . S
H2939 C2948 0.929 . S
C2940 H2934 0.930 . S
C2940 C2941 1.367 . S
C2940 C2948 1.378 . S
C2941 C2940 1.367 . S
C2941 C2949 1.433 . S
C2942 H2938 0.929 . S
C2942 C2944 1.378 . S
C2942 C2946 1.350 . S
C2943 C2946 1.463 . S
C2943 C2948 1.350 . S
C2943 N2951 1.427 . S
C2944 H2935 0.930 . S
C2944 C2942 1.378 . S
C2944 C2945 1.367 . S
C2945 C2944 1.367 . S
C2945 C2947 1.433 . S
C2946 C2942 1.350 . S
C2946 C2943 1.463 . S
C2946 N2950 1.427 . S
C2947 H2937 0.929 . S
C2947 C2945 1.433 . S
C2947 N2950 1.384 . S
C2948 H2939 0.929 . S
C2948 C2940 1.378 . S
C2948 C2943 1.350 . S
C2949 H2936 0.929 . S
C2949 C2941 1.433 . S
C2949 N2951 1.384 . S
N2950 C2946 1.427 . S
N2950 C2947 1.384 . S
N2951 C2943 1.427 . S
N2951 C2949 1.384 . S
H2952 C2958 0.930 . S
H2953 C2962 0.930 . S
H2954 C2967 0.929 . S
H2955 C2965 0.929 . S
H2956 C2960 0.929 . S
H2957 C2966 0.929 . S
C2958 H2952 0.930 . S
C2958 C2959 1.367 . S
C2958 C2966 1.378 . S
C2959 C2958 1.367 . S
C2959 C2967 1.433 . S
C2960 H2956 0.929 . S
C2960 C2962 1.378 . S
C2960 C2964 1.350 . S
C2961 C2964 1.463 . S
C2961 C2966 1.350 . S
C2961 N2969 1.427 . S
C2962 H2953 0.930 . S
C2962 C2960 1.378 . S
C2962 C2963 1.367 . S
C2963 C2962 1.367 . S
C2963 C2965 1.433 . S
C2964 C2960 1.350 . S
C2964 C2961 1.463 . S
C2964 N2968 1.427 . S
C2965 H2955 0.929 . S
C2965 C2963 1.433 . S
C2965 N2968 1.384 . S
C2966 H2957 0.929 . S
C2966 C2958 1.378 . S
C2966 C2961 1.350 . S
C2967 H2954 0.929 . S
C2967 C2959 1.433 . S
C2967 N2969 1.384 . S
N2968 C2964 1.427 . S
N2968 C2965 1.384 . S
N2969 C2961 1.427 . S
N2969 C2967 1.384 . S
H2970 C2976 0.930 . S
H2971 C2980 0.930 . S
H2972 C2985 0.929 . S
H2973 C2983 0.929 . S
H2974 C2978 0.929 . S
H2975 C2984 0.929 . S
C2976 H2970 0.930 . S
C2976 C2977 1.367 . S
C2976 C2984 1.378 . S
C2977 C2976 1.367 . S
C2977 C2985 1.433 . S
C2978 H2974 0.929 . S
C2978 C2980 1.378 . S
C2978 C2982 1.350 . S
C2979 C2982 1.463 . S
C2979 C2984 1.350 . S
C2979 N2987 1.427 . S
C2980 H2971 0.930 . S
C2980 C2978 1.378 . S
C2980 C2981 1.367 . S
C2981 C2980 1.367 . S
C2981 C2983 1.433 . S
C2982 C2978 1.350 . S
C2982 C2979 1.463 . S
C2982 N2986 1.427 . S
C2983 H2973 0.929 . S
C2983 C2981 1.433 . S
C2983 N2986 1.384 . S
C2984 H2975 0.929 . S
C2984 C2976 1.378 . S
C2984 C2979 1.350 . S
C2985 H2972 0.929 . S
C2985 C2977 1.433 . S
C2985 N2987 1.384 . S
N2986 C2982 1.427 . S
N2986 C2983 1.384 . S
N2987 C2979 1.427 . S
N2987 C2985 1.384 . S
H2988 C2994 0.930 . S
H2989 C2998 0.930 . S
H2990 C3003 0.929 . S
H2991 C3001 0.929 . S
H2992 C2996 0.929 . S
H2993 C3002 0.929 . S
C2994 H2988 0.930 . S
C2994 C2995 1.367 . S
C2994 C3002 1.378 . S
C2995 C2994 1.367 . S
C2995 C3003 1.433 . S
C2996 H2992 0.929 . S
C2996 C2998 1.378 . S
C2996 C3000 1.350 . S
C2997 C3000 1.463 . S
C2997 C3002 1.350 . S
C2997 N3005 1.427 . S
C2998 H2989 0.930 . S
C2998 C2996 1.378 . S
C2998 C2999 1.367 . S
C2999 C2998 1.367 . S
C2999 C3001 1.433 . S
C3000 C2996 1.350 . S
C3000 C2997 1.463 . S
C3000 N3004 1.427 . S
C3001 H2991 0.929 . S
C3001 C2999 1.433 . S
C3001 N3004 1.384 . S
C3002 H2993 0.929 . S
C3002 C2994 1.378 . S
C3002 C2997 1.350 . S
C3003 H2990 0.929 . S
C3003 C2995 1.433 . S
C3003 N3005 1.384 . S
N3004 C3000 1.427 . S
N3004 C3001 1.384 . S
N3005 C2997 1.427 . S
N3005 C3003 1.384 . S
H3006 C3012 0.930 . S
H3007 C3016 0.930 . S
H3008 C3021 0.929 . S
H3009 C3019 0.929 . S
H3010 C3014 0.929 . S
H3011 C3020 0.929 . S
C3012 H3006 0.930 . S
C3012 C3013 1.367 . S
C3012 C3020 1.378 . S
C3013 C3012 1.367 . S
C3013 C3021 1.433 . S
C3014 H3010 0.929 . S
C3014 C3016 1.378 . S
C3014 C3018 1.350 . S
C3015 C3018 1.463 . S
C3015 C3020 1.350 . S
C3015 N3023 1.427 . S
C3016 H3007 0.930 . S
C3016 C3014 1.378 . S
C3016 C3017 1.367 . S
C3017 C3016 1.367 . S
C3017 C3019 1.433 . S
C3018 C3014 1.350 . S
C3018 C3015 1.463 . S
C3018 N3022 1.427 . S
C3019 H3009 0.929 . S
C3019 C3017 1.433 . S
C3019 N3022 1.384 . S
C3020 H3011 0.929 . S
C3020 C3012 1.378 . S
C3020 C3015 1.350 . S
C3021 H3008 0.929 . S
C3021 C3013 1.433 . S
C3021 N3023 1.384 . S
N3022 C3018 1.427 . S
N3022 C3019 1.384 . S
N3023 C3015 1.427 . S
N3023 C3021 1.384 . S
H3024 C3030 0.930 . S
H3025 C3034 0.930 . S
H3026 C3039 0.929 . S
H3027 C3037 0.929 . S
H3028 C3032 0.929 . S
H3029 C3038 0.929 . S
C3030 H3024 0.930 . S
C3030 C3031 1.367 . S
C3030 C3038 1.378 . S
C3031 C3030 1.367 . S
C3031 C3039 1.433 . S
C3032 H3028 0.929 . S
C3032 C3034 1.378 . S
C3032 C3036 1.350 . S
C3033 C3036 1.463 . S
C3033 C3038 1.350 . S
C3033 N3041 1.427 . S
C3034 H3025 0.930 . S
C3034 C3032 1.378 . S
C3034 C3035 1.367 . S
C3035 C3034 1.367 . S
C3035 C3037 1.433 . S
C3036 C3032 1.350 . S
C3036 C3033 1.463 . S
C3036 N3040 1.427 . S
C3037 H3027 0.929 . S
C3037 C3035 1.433 . S
C3037 N3040 1.384 . S
C3038 H3029 0.929 . S
C3038 C3030 1.378 . S
C3038 C3033 1.350 . S
C3039 H3026 0.929 . S
C3039 C3031 1.433 . S
C3039 N3041 1.384 . S
N3040 C3036 1.427 . S
N3040 C3037 1.384 . S
N3041 C3033 1.427 . S
N3041 C3039 1.384 . S
H3042 C3048 0.930 . S
H3043 C3052 0.930 . S
H3044 C3057 0.929 . S
H3045 C3055 0.929 . S
H3046 C3050 0.929 . S
H3047 C3056 0.929 . S
C3048 H3042 0.930 . S
C3048 C3049 1.367 . S
C3048 C3056 1.378 . S
C3049 C3048 1.367 . S
C3049 C3057 1.433 . S
C3050 H3046 0.929 . S
C3050 C3052 1.378 . S
C3050 C3054 1.350 . S
C3051 C3054 1.463 . S
C3051 C3056 1.350 . S
C3051 N3059 1.427 . S
C3052 H3043 0.930 . S
C3052 C3050 1.378 . S
C3052 C3053 1.367 . S
C3053 C3052 1.367 . S
C3053 C3055 1.433 . S
C3054 C3050 1.350 . S
C3054 C3051 1.463 . S
C3054 N3058 1.427 . S
C3055 H3045 0.929 . S
C3055 C3053 1.433 . S
C3055 N3058 1.384 . S
C3056 H3047 0.929 . S
C3056 C3048 1.378 . S
C3056 C3051 1.350 . S
C3057 H3044 0.929 . S
C3057 C3049 1.433 . S
C3057 N3059 1.384 . S
N3058 C3054 1.427 . S
N3058 C3055 1.384 . S
N3059 C3051 1.427 . S
N3059 C3057 1.384 . S
H3060 C3066 0.930 . S
H3061 C3070 0.930 . S
H3062 C3075 0.929 . S
H3063 C3073 0.929 . S
H3064 C3068 0.929 . S
H3065 C3074 0.929 . S
C3066 H3060 0.930 . S
C3066 C3067 1.367 . S
C3066 C3074 1.378 . S
C3067 C3066 1.367 . S
C3067 C3075 1.433 . S
C3068 H3064 0.929 . S
C3068 C3070 1.378 . S
C3068 C3072 1.350 . S
C3069 C3072 1.463 . S
C3069 C3074 1.350 . S
C3069 N3077 1.427 . S
C3070 H3061 0.930 . S
C3070 C3068 1.378 . S
C3070 C3071 1.367 . S
C3071 C3070 1.367 . S
C3071 C3073 1.433 . S
C3072 C3068 1.350 . S
C3072 C3069 1.463 . S
C3072 N3076 1.427 . S
C3073 H3063 0.929 . S
C3073 C3071 1.433 . S
C3073 N3076 1.384 . S
C3074 H3065 0.929 . S
C3074 C3066 1.378 . S
C3074 C3069 1.350 . S
C3075 H3062 0.929 . S
C3075 C3067 1.433 . S
C3075 N3077 1.384 . S
N3076 C3072 1.427 . S
N3076 C3073 1.384 . S
N3077 C3069 1.427 . S
N3077 C3075 1.384 . S
H3078 C3084 0.930 . S
H3079 C3088 0.930 . S
H3080 C3093 0.929 . S
H3081 C3091 0.929 . S
H3082 C3086 0.929 . S
H3083 C3092 0.929 . S
C3084 H3078 0.930 . S
C3084 C3085 1.367 . S
C3084 C3092 1.378 . S
C3085 C3084 1.367 . S
C3085 C3093 1.433 . S
C3086 H3082 0.929 . S
C3086 C3088 1.378 . S
C3086 C3090 1.350 . S
C3087 C3090 1.463 . S
C3087 C3092 1.350 . S
C3087 N3095 1.427 . S
C3088 H3079 0.930 . S
C3088 C3086 1.378 . S
C3088 C3089 1.367 . S
C3089 C3088 1.367 . S
C3089 C3091 1.433 . S
C3090 C3086 1.350 . S
C3090 C3087 1.463 . S
C3090 N3094 1.427 . S
C3091 H3081 0.929 . S
C3091 C3089 1.433 . S
C3091 N3094 1.384 . S
C3092 H3083 0.929 . S
C3092 C3084 1.378 . S
C3092 C3087 1.350 . S
C3093 H3080 0.929 . S
C3093 C3085 1.433 . S
C3093 N3095 1.384 . S
N3094 C3090 1.427 . S
N3094 C3091 1.384 . S
N3095 C3087 1.427 . S
N3095 C3093 1.384 . S
H3096 C3102 0.930 . S
H3097 C3106 0.930 . S
H3098 C3111 0.929 . S
H3099 C3109 0.929 . S
H3100 C3104 0.929 . S
H3101 C3110 0.929 . S
C3102 H3096 0.930 . S
C3102 C3103 1.367 . S
C3102 C3110 1.378 . S
C3103 C3102 1.367 . S
C3103 C3111 1.433 . S
C3104 H3100 0.929 . S
C3104 C3106 1.378 . S
C3104 C3108 1.350 . S
C3105 C3108 1.463 . S
C3105 C3110 1.350 . S
C3105 N3113 1.427 . S
C3106 H3097 0.930 . S
C3106 C3104 1.378 . S
C3106 C3107 1.367 . S
C3107 C3106 1.367 . S
C3107 C3109 1.433 . S
C3108 C3104 1.350 . S
C3108 C3105 1.463 . S
C3108 N3112 1.427 . S
C3109 H3099 0.929 . S
C3109 C3107 1.433 . S
C3109 N3112 1.384 . S
C3110 H3101 0.929 . S
C3110 C3102 1.378 . S
C3110 C3105 1.350 . S
C3111 H3098 0.929 . S
C3111 C3103 1.433 . S
C3111 N3113 1.384 . S
N3112 C3108 1.427 . S
N3112 C3109 1.384 . S
N3113 C3105 1.427 . S
N3113 C3111 1.384 . S
H3114 C3120 0.930 . S
H3115 C3124 0.930 . S
H3116 C3129 0.929 . S
H3117 C3127 0.929 . S
H3118 C3122 0.929 . S
H3119 C3128 0.929 . S
C3120 H3114 0.930 . S
C3120 C3121 1.367 . S
C3120 C3128 1.378 . S
C3121 C3120 1.367 . S
C3121 C3129 1.433 . S
C3122 H3118 0.929 . S
C3122 C3124 1.378 . S
C3122 C3126 1.350 . S
C3123 C3126 1.463 . S
C3123 C3128 1.350 . S
C3123 N3131 1.427 . S
C3124 H3115 0.930 . S
C3124 C3122 1.378 . S
C3124 C3125 1.367 . S
C3125 C3124 1.367 . S
C3125 C3127 1.433 . S
C3126 C3122 1.350 . S
C3126 C3123 1.463 . S
C3126 N3130 1.427 . S
C3127 H3117 0.929 . S
C3127 C3125 1.433 . S
C3127 N3130 1.384 . S
C3128 H3119 0.929 . S
C3128 C3120 1.378 . S
C3128 C3123 1.350 . S
C3129 H3116 0.929 . S
C3129 C3121 1.433 . S
C3129 N3131 1.384 . S
N3130 C3126 1.427 . S
N3130 C3127 1.384 . S
N3131 C3123 1.427 . S
N3131 C3129 1.384 . S
H3132 C3138 0.930 . S
H3133 C3142 0.930 . S
H3134 C3147 0.929 . S
H3135 C3145 0.929 . S
H3136 C3140 0.929 . S
H3137 C3146 0.929 . S
C3138 H3132 0.930 . S
C3138 C3139 1.367 . S
C3138 C3146 1.378 . S
C3139 C3138 1.367 . S
C3139 C3147 1.433 . S
C3140 H3136 0.929 . S
C3140 C3142 1.378 . S
C3140 C3144 1.350 . S
C3141 C3144 1.463 . S
C3141 C3146 1.350 . S
C3141 N3149 1.427 . S
C3142 H3133 0.930 . S
C3142 C3140 1.378 . S
C3142 C3143 1.367 . S
C3143 C3142 1.367 . S
C3143 C3145 1.433 . S
C3144 C3140 1.350 . S
C3144 C3141 1.463 . S
C3144 N3148 1.427 . S
C3145 H3135 0.929 . S
C3145 C3143 1.433 . S
C3145 N3148 1.384 . S
C3146 H3137 0.929 . S
C3146 C3138 1.378 . S
C3146 C3141 1.350 . S
C3147 H3134 0.929 . S
C3147 C3139 1.433 . S
C3147 N3149 1.384 . S
N3148 C3144 1.427 . S
N3148 C3145 1.384 . S
N3149 C3141 1.427 . S
N3149 C3147 1.384 . S
H3150 C3156 0.930 . S
H3151 C3160 0.930 . S
H3152 C3165 0.929 . S
H3153 C3163 0.929 . S
H3154 C3158 0.929 . S
H3155 C3164 0.929 . S
C3156 H3150 0.930 . S
C3156 C3157 1.367 . S
C3156 C3164 1.378 . S
C3157 C3156 1.367 . S
C3157 C3165 1.433 . S
C3158 H3154 0.929 . S
C3158 C3160 1.378 . S
C3158 C3162 1.350 . S
C3159 C3162 1.463 . S
C3159 C3164 1.350 . S
C3159 N3167 1.427 . S
C3160 H3151 0.930 . S
C3160 C3158 1.378 . S
C3160 C3161 1.367 . S
C3161 C3160 1.367 . S
C3161 C3163 1.433 . S
C3162 C3158 1.350 . S
C3162 C3159 1.463 . S
C3162 N3166 1.427 . S
C3163 H3153 0.929 . S
C3163 C3161 1.433 . S
C3163 N3166 1.384 . S
C3164 H3155 0.929 . S
C3164 C3156 1.378 . S
C3164 C3159 1.350 . S
C3165 H3152 0.929 . S
C3165 C3157 1.433 . S
C3165 N3167 1.384 . S
N3166 C3162 1.427 . S
N3166 C3163 1.384 . S
N3167 C3159 1.427 . S
N3167 C3165 1.384 . S
H3168 C3174 0.930 . S
H3169 C3178 0.930 . S
H3170 C3183 0.929 . S
H3171 C3181 0.929 . S
H3172 C3176 0.929 . S
H3173 C3182 0.929 . S
C3174 H3168 0.930 . S
C3174 C3175 1.367 . S
C3174 C3182 1.378 . S
C3175 C3174 1.367 . S
C3175 C3183 1.433 . S
C3176 H3172 0.929 . S
C3176 C3178 1.378 . S
C3176 C3180 1.350 . S
C3177 C3180 1.463 . S
C3177 C3182 1.350 . S
C3177 N3185 1.427 . S
C3178 H3169 0.930 . S
C3178 C3176 1.378 . S
C3178 C3179 1.367 . S
C3179 C3178 1.367 . S
C3179 C3181 1.433 . S
C3180 C3176 1.350 . S
C3180 C3177 1.463 . S
C3180 N3184 1.427 . S
C3181 H3171 0.929 . S
C3181 C3179 1.433 . S
C3181 N3184 1.384 . S
C3182 H3173 0.929 . S
C3182 C3174 1.378 . S
C3182 C3177 1.350 . S
C3183 H3170 0.929 . S
C3183 C3175 1.433 . S
C3183 N3185 1.384 . S
N3184 C3180 1.427 . S
N3184 C3181 1.384 . S
N3185 C3177 1.427 . S
N3185 C3183 1.384 . S
H3186 C3192 0.930 . S
H3187 C3196 0.930 . S
H3188 C3201 0.929 . S
H3189 C3199 0.929 . S
H3190 C3194 0.929 . S
H3191 C3200 0.929 . S
C3192 H3186 0.930 . S
C3192 C3193 1.367 . S
C3192 C3200 1.378 . S
C3193 C3192 1.367 . S
C3193 C3201 1.433 . S
C3194 H3190 0.929 . S
C3194 C3196 1.378 . S
C3194 C3198 1.350 . S
C3195 C3198 1.463 . S
C3195 C3200 1.350 . S
C3195 N3203 1.427 . S
C3196 H3187 0.930 . S
C3196 C3194 1.378 . S
C3196 C3197 1.367 . S
C3197 C3196 1.367 . S
C3197 C3199 1.433 . S
C3198 C3194 1.350 . S
C3198 C3195 1.463 . S
C3198 N3202 1.427 . S
C3199 H3189 0.929 . S
C3199 C3197 1.433 . S
C3199 N3202 1.384 . S
C3200 H3191 0.929 . S
C3200 C3192 1.378 . S
C3200 C3195 1.350 . S
C3201 H3188 0.929 . S
C3201 C3193 1.433 . S
C3201 N3203 1.384 . S
N3202 C3198 1.427 . S
N3202 C3199 1.384 . S
N3203 C3195 1.427 . S
N3203 C3201 1.384 . S
H3204 C3210 0.930 . S
H3205 C3214 0.930 . S
H3206 C3219 0.929 . S
H3207 C3217 0.929 . S
H3208 C3212 0.929 . S
H3209 C3218 0.929 . S
C3210 H3204 0.930 . S
C3210 C3211 1.367 . S
C3210 C3218 1.378 . S
C3211 C3210 1.367 . S
C3211 C3219 1.433 . S
C3212 H3208 0.929 . S
C3212 C3214 1.378 . S
C3212 C3216 1.350 . S
C3213 C3216 1.463 . S
C3213 C3218 1.350 . S
C3213 N3221 1.427 . S
C3214 H3205 0.930 . S
C3214 C3212 1.378 . S
C3214 C3215 1.367 . S
C3215 C3214 1.367 . S
C3215 C3217 1.433 . S
C3216 C3212 1.350 . S
C3216 C3213 1.463 . S
C3216 N3220 1.427 . S
C3217 H3207 0.929 . S
C3217 C3215 1.433 . S
C3217 N3220 1.384 . S
C3218 H3209 0.929 . S
C3218 C3210 1.378 . S
C3218 C3213 1.350 . S
C3219 H3206 0.929 . S
C3219 C3211 1.433 . S
C3219 N3221 1.384 . S
N3220 C3216 1.427 . S
N3220 C3217 1.384 . S
N3221 C3213 1.427 . S
N3221 C3219 1.384 . S
H3222 C3228 0.930 . S
H3223 C3232 0.930 . S
H3224 C3237 0.929 . S
H3225 C3235 0.929 . S
H3226 C3230 0.929 . S
H3227 C3236 0.929 . S
C3228 H3222 0.930 . S
C3228 C3229 1.367 . S
C3228 C3236 1.378 . S
C3229 C3228 1.367 . S
C3229 C3237 1.433 . S
C3230 H3226 0.929 . S
C3230 C3232 1.378 . S
C3230 C3234 1.350 . S
C3231 C3234 1.463 . S
C3231 C3236 1.350 . S
C3231 N3239 1.427 . S
C3232 H3223 0.930 . S
C3232 C3230 1.378 . S
C3232 C3233 1.367 . S
C3233 C3232 1.367 . S
C3233 C3235 1.433 . S
C3234 C3230 1.350 . S
C3234 C3231 1.463 . S
C3234 N3238 1.427 . S
C3235 H3225 0.929 . S
C3235 C3233 1.433 . S
C3235 N3238 1.384 . S
C3236 H3227 0.929 . S
C3236 C3228 1.378 . S
C3236 C3231 1.350 . S
C3237 H3224 0.929 . S
C3237 C3229 1.433 . S
C3237 N3239 1.384 . S
N3238 C3234 1.427 . S
N3238 C3235 1.384 . S
N3239 C3231 1.427 . S
N3239 C3237 1.384 . S
H3240 C3246 0.930 . S
H3241 C3250 0.930 . S
H3242 C3255 0.929 . S
H3243 C3253 0.929 . S
H3244 C3248 0.929 . S
H3245 C3254 0.929 . S
C3246 H3240 0.930 . S
C3246 C3247 1.367 . S
C3246 C3254 1.378 . S
C3247 C3246 1.367 . S
C3247 C3255 1.433 . S
C3248 H3244 0.929 . S
C3248 C3250 1.378 . S
C3248 C3252 1.350 . S
C3249 C3252 1.463 . S
C3249 C3254 1.350 . S
C3249 N3257 1.427 . S
C3250 H3241 0.930 . S
C3250 C3248 1.378 . S
C3250 C3251 1.367 . S
C3251 C3250 1.367 . S
C3251 C3253 1.433 . S
C3252 C3248 1.350 . S
C3252 C3249 1.463 . S
C3252 N3256 1.427 . S
C3253 H3243 0.929 . S
C3253 C3251 1.433 . S
C3253 N3256 1.384 . S
C3254 H3245 0.929 . S
C3254 C3246 1.378 . S
C3254 C3249 1.350 . S
C3255 H3242 0.929 . S
C3255 C3247 1.433 . S
C3255 N3257 1.384 . S
N3256 C3252 1.427 . S
N3256 C3253 1.384 . S
N3257 C3249 1.427 . S
N3257 C3255 1.384 . S
H3258 C3264 0.930 . S
H3259 C3268 0.930 . S
H3260 C3273 0.929 . S
H3261 C3271 0.929 . S
H3262 C3266 0.929 . S
H3263 C3272 0.929 . S
C3264 H3258 0.930 . S
C3264 C3265 1.367 . S
C3264 C3272 1.378 . S
C3265 C3264 1.367 . S
C3265 C3273 1.433 . S
C3266 H3262 0.929 . S
C3266 C3268 1.378 . S
C3266 C3270 1.350 . S
C3267 C3270 1.463 . S
C3267 C3272 1.350 . S
C3267 N3275 1.427 . S
C3268 H3259 0.930 . S
C3268 C3266 1.378 . S
C3268 C3269 1.367 . S
C3269 C3268 1.367 . S
C3269 C3271 1.433 . S
C3270 C3266 1.350 . S
C3270 C3267 1.463 . S
C3270 N3274 1.427 . S
C3271 H3261 0.929 . S
C3271 C3269 1.433 . S
C3271 N3274 1.384 . S
C3272 H3263 0.929 . S
C3272 C3264 1.378 . S
C3272 C3267 1.350 . S
C3273 H3260 0.929 . S
C3273 C3265 1.433 . S
C3273 N3275 1.384 . S
N3274 C3270 1.427 . S
N3274 C3271 1.384 . S
N3275 C3267 1.427 . S
N3275 C3273 1.384 . S
H3276 C3282 0.930 . S
H3277 C3286 0.930 . S
H3278 C3291 0.929 . S
H3279 C3289 0.929 . S
H3280 C3284 0.929 . S
H3281 C3290 0.929 . S
C3282 H3276 0.930 . S
C3282 C3283 1.367 . S
C3282 C3290 1.378 . S
C3283 C3282 1.367 . S
C3283 C3291 1.433 . S
C3284 H3280 0.929 . S
C3284 C3286 1.378 . S
C3284 C3288 1.350 . S
C3285 C3288 1.463 . S
C3285 C3290 1.350 . S
C3285 N3293 1.427 . S
C3286 H3277 0.930 . S
C3286 C3284 1.378 . S
C3286 C3287 1.367 . S
C3287 C3286 1.367 . S
C3287 C3289 1.433 . S
C3288 C3284 1.350 . S
C3288 C3285 1.463 . S
C3288 N3292 1.427 . S
C3289 H3279 0.929 . S
C3289 C3287 1.433 . S
C3289 N3292 1.384 . S
C3290 H3281 0.929 . S
C3290 C3282 1.378 . S
C3290 C3285 1.350 . S
C3291 H3278 0.929 . S
C3291 C3283 1.433 . S
C3291 N3293 1.384 . S
N3292 C3288 1.427 . S
N3292 C3289 1.384 . S
N3293 C3285 1.427 . S
N3293 C3291 1.384 . S
H3294 C3300 0.930 . S
H3295 C3304 0.930 . S
H3296 C3309 0.929 . S
H3297 C3307 0.929 . S
H3298 C3302 0.929 . S
H3299 C3308 0.929 . S
C3300 H3294 0.930 . S
C3300 C3301 1.367 . S
C3300 C3308 1.378 . S
C3301 C3300 1.367 . S
C3301 C3309 1.433 . S
C3302 H3298 0.929 . S
C3302 C3304 1.378 . S
C3302 C3306 1.350 . S
C3303 C3306 1.463 . S
C3303 C3308 1.350 . S
C3303 N3311 1.427 . S
C3304 H3295 0.930 . S
C3304 C3302 1.378 . S
C3304 C3305 1.367 . S
C3305 C3304 1.367 . S
C3305 C3307 1.433 . S
C3306 C3302 1.350 . S
C3306 C3303 1.463 . S
C3306 N3310 1.427 . S
C3307 H3297 0.929 . S
C3307 C3305 1.433 . S
C3307 N3310 1.384 . S
C3308 H3299 0.929 . S
C3308 C3300 1.378 . S
C3308 C3303 1.350 . S
C3309 H3296 0.929 . S
C3309 C3301 1.433 . S
C3309 N3311 1.384 . S
N3310 C3306 1.427 . S
N3310 C3307 1.384 . S
N3311 C3303 1.427 . S
N3311 C3309 1.384 . S
H3312 C3318 0.930 1_455 S
H3313 C3322 0.930 . S
H3314 C3327 0.929 . S
H3315 C3325 0.929 1_455 S
H3316 C3320 0.929 . S
H3317 C3326 0.929 1_455 S
C3318 H3312 0.930 1_655 S
C3318 C3319 1.367 . S
C3318 C3326 1.378 . S
C3319 C3318 1.367 . S
C3319 C3327 1.433 . S
C3320 H3316 0.929 . S
C3320 C3322 1.378 . S
C3320 C3324 1.350 . S
C3321 C3324 1.463 1_565 S
C3321 C3326 1.350 . S
C3321 N3329 1.427 . S
C3322 H3313 0.930 . S
C3322 C3320 1.378 . S
C3322 C3323 1.367 . S
C3323 C3322 1.367 . S
C3323 C3325 1.433 . S
C3324 C3320 1.350 . S
C3324 C3321 1.463 1_545 S
C3324 N3328 1.427 . S
C3325 H3315 0.929 1_655 S
C3325 C3323 1.433 . S
C3325 N3328 1.384 . S
C3326 H3317 0.929 1_655 S
C3326 C3318 1.378 . S
C3326 C3321 1.350 . S
C3327 H3314 0.929 . S
C3327 C3319 1.433 . S
C3327 N3329 1.384 . S
N3328 C3324 1.427 . S
N3328 C3325 1.384 . S
N3329 C3321 1.427 . S
N3329 C3327 1.384 . S
H3330 C3336 0.930 . S
H3331 C3340 0.930 . S
H3332 C3345 0.929 . S
H3333 C3343 0.929 . S
H3334 C3338 0.929 . S
H3335 C3344 0.929 . S
C3336 H3330 0.930 . S
C3336 C3337 1.367 . S
C3336 C3344 1.378 . S
C3337 C3336 1.367 . S
C3337 C3345 1.433 . S
C3338 H3334 0.929 . S
C3338 C3340 1.378 . S
C3338 C3342 1.350 . S
C3339 C3342 1.463 . S
C3339 C3344 1.350 . S
C3339 N3347 1.427 . S
C3340 H3331 0.930 . S
C3340 C3338 1.378 . S
C3340 C3341 1.367 . S
C3341 C3340 1.367 . S
C3341 C3343 1.433 . S
C3342 C3338 1.350 . S
C3342 C3339 1.463 . S
C3342 N3346 1.427 . S
C3343 H3333 0.929 . S
C3343 C3341 1.433 . S
C3343 N3346 1.384 . S
C3344 H3335 0.929 . S
C3344 C3336 1.378 . S
C3344 C3339 1.350 . S
C3345 H3332 0.929 . S
C3345 C3337 1.433 . S
C3345 N3347 1.384 . S
N3346 C3342 1.427 . S
N3346 C3343 1.384 . S
N3347 C3339 1.427 . S
N3347 C3345 1.384 . S
H3348 C3354 0.930 . S
H3349 C3358 0.930 . S
H3350 C3363 0.929 . S
H3351 C3361 0.929 . S
H3352 C3356 0.929 . S
H3353 C3362 0.929 . S
C3354 H3348 0.930 . S
C3354 C3355 1.367 . S
C3354 C3362 1.378 . S
C3355 C3354 1.367 . S
C3355 C3363 1.433 . S
C3356 H3352 0.929 . S
C3356 C3358 1.378 . S
C3356 C3360 1.350 . S
C3357 C3360 1.463 1_545 S
C3357 C3362 1.350 . S
C3357 N3365 1.427 . S
C3358 H3349 0.930 . S
C3358 C3356 1.378 . S
C3358 C3359 1.367 . S
C3359 C3358 1.367 . S
C3359 C3361 1.433 . S
C3360 C3356 1.350 . S
C3360 C3357 1.463 1_565 S
C3360 N3364 1.427 . S
C3361 H3351 0.929 . S
C3361 C3359 1.433 . S
C3361 N3364 1.384 . S
C3362 H3353 0.929 . S
C3362 C3354 1.378 . S
C3362 C3357 1.350 . S
C3363 H3350 0.929 . S
C3363 C3355 1.433 . S
C3363 N3365 1.384 . S
N3364 C3360 1.427 . S
N3364 C3361 1.384 . S
N3365 C3357 1.427 . S
N3365 C3363 1.384 . S
H3366 C3372 0.930 . S
H3367 C3376 0.930 . S
H3368 C3381 0.929 . S
H3369 C3379 0.929 . S
H3370 C3374 0.929 1_556 S
H3371 C3380 0.929 1_554 S
C3372 H3366 0.930 . S
C3372 C3373 1.367 . S
C3372 C3380 1.378 . S
C3373 C3372 1.367 . S
C3373 C3381 1.433 . S
C3374 H3370 0.929 1_554 S
C3374 C3376 1.378 . S
C3374 C3378 1.350 . S
C3375 C3378 1.463 1_556 S
C3375 C3380 1.350 . S
C3375 N3383 1.427 . S
C3376 H3367 0.930 . S
C3376 C3374 1.378 . S
C3376 C3377 1.367 . S
C3377 C3376 1.367 . S
C3377 C3379 1.433 . S
C3378 C3374 1.350 . S
C3378 C3375 1.463 1_554 S
C3378 N3382 1.427 . S
C3379 H3369 0.929 . S
C3379 C3377 1.433 . S
C3379 N3382 1.384 . S
C3380 H3371 0.929 1_556 S
C3380 C3372 1.378 . S
C3380 C3375 1.350 . S
C3381 H3368 0.929 . S
C3381 C3373 1.433 . S
C3381 N3383 1.384 . S
N3382 C3378 1.427 . S
N3382 C3379 1.384 . S
N3383 C3375 1.427 . S
N3383 C3381 1.384 . S
H3384 C3390 0.930 1_545 S
H3385 C3394 0.930 . S
H3386 C3399 0.929 . S
H3387 C3397 0.929 1_545 S
H3388 C3392 0.929 . S
H3389 C3398 0.929 1_545 S
C3390 H3384 0.930 1_565 S
C3390 C3391 1.367 . S
C3390 C3398 1.378 . S
C3391 C3390 1.367 . S
C3391 C3399 1.433 . S
C3392 H3388 0.929 . S
C3392 C3394 1.378 . S
C3392 C3396 1.350 . S
C3393 C3396 1.463 1_556 S
C3393 C3398 1.350 . S
C3393 N3401 1.427 . S
C3394 H3385 0.930 . S
C3394 C3392 1.378 . S
C3394 C3395 1.367 . S
C3395 C3394 1.367 . S
C3395 C3397 1.433 . S
C3396 C3392 1.350 . S
C3396 C3393 1.463 1_554 S
C3396 N3400 1.427 . S
C3397 H3387 0.929 1_565 S
C3397 C3395 1.433 . S
C3397 N3400 1.384 . S
C3398 H3389 0.929 1_565 S
C3398 C3390 1.378 . S
C3398 C3393 1.350 . S
C3399 H3386 0.929 . S
C3399 C3391 1.433 . S
C3399 N3401 1.384 . S
N3400 C3396 1.427 . S
N3400 C3397 1.384 . S
N3401 C3393 1.427 . S
N3401 C3399 1.384 . S
H3402 C3408 0.930 . S
H3403 C3412 0.930 . S
H3404 C3417 0.929 . S
H3405 C3415 0.929 . S
H3406 C3410 0.929 . S
H3407 C3416 0.929 . S
C3408 H3402 0.930 . S
C3408 C3409 1.367 . S
C3408 C3416 1.378 . S
C3409 C3408 1.367 . S
C3409 C3417 1.433 . S
C3410 H3406 0.929 . S
C3410 C3412 1.378 . S
C3410 C3414 1.350 . S
C3411 C3414 1.463 1_545 S
C3411 C3416 1.350 . S
C3411 N3419 1.427 . S
C3412 H3403 0.930 . S
C3412 C3410 1.378 . S
C3412 C3413 1.367 . S
C3413 C3412 1.367 . S
C3413 C3415 1.433 . S
C3414 C3410 1.350 . S
C3414 C3411 1.463 1_565 S
C3414 N3418 1.427 . S
C3415 H3405 0.929 . S
C3415 C3413 1.433 . S
C3415 N3418 1.384 . S
C3416 H3407 0.929 . S
C3416 C3408 1.378 . S
C3416 C3411 1.350 . S
C3417 H3404 0.929 . S
C3417 C3409 1.433 . S
C3417 N3419 1.384 . S
N3418 C3414 1.427 . S
N3418 C3415 1.384 . S
N3419 C3411 1.427 . S
N3419 C3417 1.384 . S
H3420 C3426 0.930 . S
H3421 C3430 0.930 . S
H3422 C3435 0.929 . S
H3423 C3433 0.929 . S
H3424 C3428 0.929 . S
H3425 C3434 0.929 . S
C3426 H3420 0.930 . S
C3426 C3427 1.367 . S
C3426 C3434 1.378 . S
C3427 C3426 1.367 . S
C3427 C3435 1.433 . S
C3428 H3424 0.929 . S
C3428 C3430 1.378 . S
C3428 C3432 1.350 . S
C3429 C3432 1.463 . S
C3429 C3434 1.350 . S
C3429 N3437 1.427 . S
C3430 H3421 0.930 . S
C3430 C3428 1.378 . S
C3430 C3431 1.367 . S
C3431 C3430 1.367 . S
C3431 C3433 1.433 . S
C3432 C3428 1.350 . S
C3432 C3429 1.463 . S
C3432 N3436 1.427 . S
C3433 H3423 0.929 . S
C3433 C3431 1.433 . S
C3433 N3436 1.384 . S
C3434 H3425 0.929 . S
C3434 C3426 1.378 . S
C3434 C3429 1.350 . S
C3435 H3422 0.929 . S
C3435 C3427 1.433 . S
C3435 N3437 1.384 . S
N3436 C3432 1.427 . S
N3436 C3433 1.384 . S
N3437 C3429 1.427 . S
N3437 C3435 1.384 . S
H3438 C3444 0.930 . S
H3439 C3448 0.930 . S
H3440 C3453 0.929 . S
H3441 C3451 0.929 . S
H3442 C3446 0.929 . S
H3443 C3452 0.929 . S
C3444 H3438 0.930 . S
C3444 C3445 1.367 . S
C3444 C3452 1.378 . S
C3445 C3444 1.367 . S
C3445 C3453 1.433 . S
C3446 H3442 0.929 . S
C3446 C3448 1.378 . S
C3446 C3450 1.350 . S
C3447 C3450 1.463 1_545 S
C3447 C3452 1.350 . S
C3447 N3455 1.427 . S
C3448 H3439 0.930 . S
C3448 C3446 1.378 . S
C3448 C3449 1.367 . S
C3449 C3448 1.367 . S
C3449 C3451 1.433 . S
C3450 C3446 1.350 . S
C3450 C3447 1.463 1_565 S
C3450 N3454 1.427 . S
C3451 H3441 0.929 . S
C3451 C3449 1.433 . S
C3451 N3454 1.384 . S
C3452 H3443 0.929 . S
C3452 C3444 1.378 . S
C3452 C3447 1.350 . S
C3453 H3440 0.929 . S
C3453 C3445 1.433 . S
C3453 N3455 1.384 . S
N3454 C3450 1.427 . S
N3454 C3451 1.384 . S
N3455 C3447 1.427 . S
N3455 C3453 1.384 . S
H3456 C3462 0.930 1_554 S
H3457 C3466 0.930 . S
H3458 C3471 0.929 . S
H3459 C3469 0.929 1_554 S
H3460 C3464 0.929 . S
H3461 C3470 0.929 1_554 S
C3462 H3456 0.930 1_556 S
C3462 C3463 1.367 . S
C3462 C3470 1.378 . S
C3463 C3462 1.367 . S
C3463 C3471 1.433 . S
C3464 H3460 0.929 . S
C3464 C3466 1.378 . S
C3464 C3468 1.350 . S
C3465 C3468 1.463 1_455 S
C3465 C3470 1.350 . S
C3465 N3473 1.427 . S
C3466 H3457 0.930 . S
C3466 C3464 1.378 . S
C3466 C3467 1.367 . S
C3467 C3466 1.367 . S
C3467 C3469 1.433 . S
C3468 C3464 1.350 . S
C3468 C3465 1.463 1_655 S
C3468 N3472 1.427 . S
C3469 H3459 0.929 1_556 S
C3469 C3467 1.433 . S
C3469 N3472 1.384 . S
C3470 H3461 0.929 1_556 S
C3470 C3462 1.378 . S
C3470 C3465 1.350 . S
C3471 H3458 0.929 . S
C3471 C3463 1.433 . S
C3471 N3473 1.384 . S
N3472 C3468 1.427 . S
N3472 C3469 1.384 . S
N3473 C3465 1.427 . S
N3473 C3471 1.384 . S
H3474 C3480 0.930 1_556 S
H3475 C3484 0.930 . S
H3476 C3489 0.929 . S
H3477 C3487 0.929 1_556 S
H3478 C3482 0.929 . S
H3479 C3488 0.929 1_556 S
C3480 H3474 0.930 1_554 S
C3480 C3481 1.367 . S
C3480 C3488 1.378 . S
C3481 C3480 1.367 . S
C3481 C3489 1.433 . S
C3482 H3478 0.929 . S
C3482 C3484 1.378 . S
C3482 C3486 1.350 . S
C3483 C3486 1.463 . S
C3483 C3488 1.350 . S
C3483 N3491 1.427 . S
C3484 H3475 0.930 . S
C3484 C3482 1.378 . S
C3484 C3485 1.367 . S
C3485 C3484 1.367 . S
C3485 C3487 1.433 . S
C3486 C3482 1.350 . S
C3486 C3483 1.463 . S
C3486 N3490 1.427 . S
C3487 H3477 0.929 1_554 S
C3487 C3485 1.433 . S
C3487 N3490 1.384 . S
C3488 H3479 0.929 1_554 S
C3488 C3480 1.378 . S
C3488 C3483 1.350 . S
C3489 H3476 0.929 . S
C3489 C3481 1.433 . S
C3489 N3491 1.384 . S
N3490 C3486 1.427 . S
N3490 C3487 1.384 . S
N3491 C3483 1.427 . S
N3491 C3489 1.384 . S
H3492 C3498 0.930 . S
H3493 C3502 0.930 . S
H3494 C3507 0.929 . S
H3495 C3505 0.929 . S
H3496 C3500 0.929 . S
H3497 C3506 0.929 . S
C3498 H3492 0.930 . S
C3498 C3499 1.367 . S
C3498 C3506 1.378 . S
C3499 C3498 1.367 . S
C3499 C3507 1.433 . S
C3500 H3496 0.929 . S
C3500 C3502 1.378 . S
C3500 C3504 1.350 . S
C3501 C3504 1.463 1_655 S
C3501 C3506 1.350 . S
C3501 N3509 1.427 . S
C3502 H3493 0.930 . S
C3502 C3500 1.378 . S
C3502 C3503 1.367 . S
C3503 C3502 1.367 . S
C3503 C3505 1.433 . S
C3504 C3500 1.350 . S
C3504 C3501 1.463 1_455 S
C3504 N3508 1.427 . S
C3505 H3495 0.929 . S
C3505 C3503 1.433 . S
C3505 N3508 1.384 . S
C3506 H3497 0.929 . S
C3506 C3498 1.378 . S
C3506 C3501 1.350 . S
C3507 H3494 0.929 . S
C3507 C3499 1.433 . S
C3507 N3509 1.384 . S
N3508 C3504 1.427 . S
N3508 C3505 1.384 . S
N3509 C3501 1.427 . S
N3509 C3507 1.384 . S
H3510 C3516 0.930 . S
H3511 C3520 0.930 . S
H3512 C3525 0.929 . S
H3513 C3523 0.929 . S
H3514 C3518 0.929 . S
H3515 C3524 0.929 . S
C3516 H3510 0.930 . S
C3516 C3517 1.367 . S
C3516 C3524 1.378 . S
C3517 C3516 1.367 . S
C3517 C3525 1.433 . S
C3518 H3514 0.929 . S
C3518 C3520 1.378 . S
C3518 C3522 1.350 . S
C3519 C3522 1.463 1_455 S
C3519 C3524 1.350 . S
C3519 N3527 1.427 . S
C3520 H3511 0.930 . S
C3520 C3518 1.378 . S
C3520 C3521 1.367 . S
C3521 C3520 1.367 . S
C3521 C3523 1.433 . S
C3522 C3518 1.350 . S
C3522 C3519 1.463 1_655 S
C3522 N3526 1.427 . S
C3523 H3513 0.929 . S
C3523 C3521 1.433 . S
C3523 N3526 1.384 . S
C3524 H3515 0.929 . S
C3524 C3516 1.378 . S
C3524 C3519 1.350 . S
C3525 H3512 0.929 . S
C3525 C3517 1.433 . S
C3525 N3527 1.384 . S
N3526 C3522 1.427 . S
N3526 C3523 1.384 . S
N3527 C3519 1.427 . S
N3527 C3525 1.384 . S
H3528 C3534 0.930 . S
H3529 C3538 0.930 . S
H3530 C3543 0.929 . S
H3531 C3541 0.929 . S
H3532 C3536 0.929 . S
H3533 C3542 0.929 . S
C3534 H3528 0.930 . S
C3534 C3535 1.367 . S
C3534 C3542 1.378 . S
C3535 C3534 1.367 . S
C3535 C3543 1.433 . S
C3536 H3532 0.929 . S
C3536 C3538 1.378 . S
C3536 C3540 1.350 . S
C3537 C3540 1.463 . S
C3537 C3542 1.350 . S
C3537 N3545 1.427 . S
C3538 H3529 0.930 . S
C3538 C3536 1.378 . S
C3538 C3539 1.367 . S
C3539 C3538 1.367 . S
C3539 C3541 1.433 . S
C3540 C3536 1.350 . S
C3540 C3537 1.463 . S
C3540 N3544 1.427 . S
C3541 H3531 0.929 . S
C3541 C3539 1.433 . S
C3541 N3544 1.384 . S
C3542 H3533 0.929 . S
C3542 C3534 1.378 . S
C3542 C3537 1.350 . S
C3543 H3530 0.929 . S
C3543 C3535 1.433 . S
C3543 N3545 1.384 . S
N3544 C3540 1.427 . S
N3544 C3541 1.384 . S
N3545 C3537 1.427 . S
N3545 C3543 1.384 . S
H3546 C3552 0.930 . S
H3547 C3556 0.930 . S
H3548 C3561 0.929 . S
H3549 C3559 0.929 . S
H3550 C3554 0.929 . S
H3551 C3560 0.929 . S
C3552 H3546 0.930 . S
C3552 C3553 1.367 . S
C3552 C3560 1.378 . S
C3553 C3552 1.367 . S
C3553 C3561 1.433 . S
C3554 H3550 0.929 . S
C3554 C3556 1.378 . S
C3554 C3558 1.350 . S
C3555 C3558 1.463 1_455 S
C3555 C3560 1.350 . S
C3555 N3563 1.427 . S
C3556 H3547 0.930 . S
C3556 C3554 1.378 . S
C3556 C3557 1.367 . S
C3557 C3556 1.367 . S
C3557 C3559 1.433 . S
C3558 C3554 1.350 . S
C3558 C3555 1.463 1_655 S
C3558 N3562 1.427 . S
C3559 H3549 0.929 . S
C3559 C3557 1.433 . S
C3559 N3562 1.384 . S
C3560 H3551 0.929 . S
C3560 C3552 1.378 . S
C3560 C3555 1.350 . S
C3561 H3548 0.929 . S
C3561 C3553 1.433 . S
C3561 N3563 1.384 . S
N3562 C3558 1.427 . S
N3562 C3559 1.384 . S
N3563 C3555 1.427 . S
N3563 C3561 1.384 . S
H3564 C3570 0.930 . S
H3565 C3574 0.930 . S
H3566 C3579 0.929 . S
H3567 C3577 0.929 . S
H3568 C3572 0.929 . S
H3569 C3578 0.929 . S
C3570 H3564 0.930 . S
C3570 C3571 1.367 . S
C3570 C3578 1.378 . S
C3571 C3570 1.367 . S
C3571 C3579 1.433 . S
C3572 H3568 0.929 . S
C3572 C3574 1.378 . S
C3572 C3576 1.350 . S
C3573 C3576 1.463 . S
C3573 C3578 1.350 . S
C3573 N3581 1.427 . S
C3574 H3565 0.930 . S
C3574 C3572 1.378 . S
C3574 C3575 1.367 . S
C3575 C3574 1.367 . S
C3575 C3577 1.433 . S
C3576 C3572 1.350 . S
C3576 C3573 1.463 . S
C3576 N3580 1.427 . S
C3577 H3567 0.929 . S
C3577 C3575 1.433 . S
C3577 N3580 1.384 . S
C3578 H3569 0.929 . S
C3578 C3570 1.378 . S
C3578 C3573 1.350 . S
C3579 H3566 0.929 . S
C3579 C3571 1.433 . S
C3579 N3581 1.384 . S
N3580 C3576 1.427 . S
N3580 C3577 1.384 . S
N3581 C3573 1.427 . S
N3581 C3579 1.384 . S
H3582 C3588 0.930 . S
H3583 C3592 0.930 . S
H3584 C3597 0.929 . S
H3585 C3595 0.929 . S
H3586 C3590 0.929 . S
H3587 C3596 0.929 . S
C3588 H3582 0.930 . S
C3588 C3589 1.367 . S
C3588 C3596 1.378 . S
C3589 C3588 1.367 . S
C3589 C3597 1.433 . S
C3590 H3586 0.929 . S
C3590 C3592 1.378 . S
C3590 C3594 1.350 . S
C3591 C3594 1.463 . S
C3591 C3596 1.350 . S
C3591 N3599 1.427 . S
C3592 H3583 0.930 . S
C3592 C3590 1.378 . S
C3592 C3593 1.367 . S
C3593 C3592 1.367 . S
C3593 C3595 1.433 . S
C3594 C3590 1.350 . S
C3594 C3591 1.463 . S
C3594 N3598 1.427 . S
C3595 H3585 0.929 . S
C3595 C3593 1.433 . S
C3595 N3598 1.384 . S
C3596 H3587 0.929 . S
C3596 C3588 1.378 . S
C3596 C3591 1.350 . S
C3597 H3584 0.929 . S
C3597 C3589 1.433 . S
C3597 N3599 1.384 . S
N3598 C3594 1.427 . S
N3598 C3595 1.384 . S
N3599 C3591 1.427 . S
N3599 C3597 1.384 . S
H3600 C3606 0.930 . S
H3601 C3610 0.930 . S
H3602 C3615 0.929 . S
H3603 C3613 0.929 . S
H3604 C3608 0.929 1_554 S
H3605 C3614 0.929 1_556 S
C3606 H3600 0.930 . S
C3606 C3607 1.367 . S
C3606 C3614 1.378 . S
C3607 C3606 1.367 . S
C3607 C3615 1.433 . S
C3608 H3604 0.929 1_556 S
C3608 C3610 1.378 . S
C3608 C3612 1.350 . S
C3609 C3612 1.463 1_554 S
C3609 C3614 1.350 . S
C3609 N3617 1.427 . S
C3610 H3601 0.930 . S
C3610 C3608 1.378 . S
C3610 C3611 1.367 . S
C3611 C3610 1.367 . S
C3611 C3613 1.433 . S
C3612 C3608 1.350 . S
C3612 C3609 1.463 1_556 S
C3612 N3616 1.427 . S
C3613 H3603 0.929 . S
C3613 C3611 1.433 . S
C3613 N3616 1.384 . S
C3614 H3605 0.929 1_554 S
C3614 C3606 1.378 . S
C3614 C3609 1.350 . S
C3615 H3602 0.929 . S
C3615 C3607 1.433 . S
C3615 N3617 1.384 . S
N3616 C3612 1.427 . S
N3616 C3613 1.384 . S
N3617 C3609 1.427 . S
N3617 C3615 1.384 . S
H3618 C3624 0.930 . S
H3619 C3628 0.930 1_655 S
H3620 C3633 0.929 1_655 S
H3621 C3631 0.929 . S
H3622 C3626 0.929 1_655 S
H3623 C3632 0.929 . S
C3624 H3618 0.930 . S
C3624 C3625 1.367 . S
C3624 C3632 1.378 . S
C3625 C3624 1.367 . S
C3625 C3633 1.433 . S
C3626 H3622 0.929 1_455 S
C3626 C3628 1.378 . S
C3626 C3630 1.350 . S
C3627 C3630 1.463 . S
C3627 C3632 1.350 . S
C3627 N3635 1.427 . S
C3628 H3619 0.930 1_455 S
C3628 C3626 1.378 . S
C3628 C3629 1.367 . S
C3629 C3628 1.367 . S
C3629 C3631 1.433 . S
C3630 C3626 1.350 . S
C3630 C3627 1.463 . S
C3630 N3634 1.427 . S
C3631 H3621 0.929 . S
C3631 C3629 1.433 . S
C3631 N3634 1.384 . S
C3632 H3623 0.929 . S
C3632 C3624 1.378 . S
C3632 C3627 1.350 . S
C3633 H3620 0.929 1_455 S
C3633 C3625 1.433 . S
C3633 N3635 1.384 . S
N3634 C3630 1.427 . S
N3634 C3631 1.384 . S
N3635 C3627 1.427 . S
N3635 C3633 1.384 . S
H3636 C3642 0.930 . S
H3637 C3646 0.930 . S
H3638 C3651 0.929 . S
H3639 C3649 0.929 . S
H3640 C3644 0.929 . S
H3641 C3650 0.929 . S
C3642 H3636 0.930 . S
C3642 C3643 1.367 . S
C3642 C3650 1.378 . S
C3643 C3642 1.367 . S
C3643 C3651 1.433 . S
C3644 H3640 0.929 . S
C3644 C3646 1.378 . S
C3644 C3648 1.350 . S
C3645 C3648 1.463 . S
C3645 C3650 1.350 . S
C3645 N3653 1.427 . S
C3646 H3637 0.930 . S
C3646 C3644 1.378 . S
C3646 C3647 1.367 . S
C3647 C3646 1.367 . S
C3647 C3649 1.433 . S
C3648 C3644 1.350 . S
C3648 C3645 1.463 . S
C3648 N3652 1.427 . S
C3649 H3639 0.929 . S
C3649 C3647 1.433 . S
C3649 N3652 1.384 . S
C3650 H3641 0.929 . S
C3650 C3642 1.378 . S
C3650 C3645 1.350 . S
C3651 H3638 0.929 . S
C3651 C3643 1.433 . S
C3651 N3653 1.384 . S
N3652 C3648 1.427 . S
N3652 C3649 1.384 . S
N3653 C3645 1.427 . S
N3653 C3651 1.384 . S
H3654 C3660 0.930 . S
H3655 C3664 0.930 . S
H3656 C3669 0.929 . S
H3657 C3667 0.929 . S
H3658 C3662 0.929 . S
H3659 C3668 0.929 . S
C3660 H3654 0.930 . S
C3660 C3661 1.367 . S
C3660 C3668 1.378 . S
C3661 C3660 1.367 . S
C3661 C3669 1.433 . S
C3662 H3658 0.929 . S
C3662 C3664 1.378 . S
C3662 C3666 1.350 . S
C3663 C3666 1.463 . S
C3663 C3668 1.350 . S
C3663 N3671 1.427 . S
C3664 H3655 0.930 . S
C3664 C3662 1.378 . S
C3664 C3665 1.367 . S
C3665 C3664 1.367 . S
C3665 C3667 1.433 . S
C3666 C3662 1.350 . S
C3666 C3663 1.463 . S
C3666 N3670 1.427 . S
C3667 H3657 0.929 . S
C3667 C3665 1.433 . S
C3667 N3670 1.384 . S
C3668 H3659 0.929 . S
C3668 C3660 1.378 . S
C3668 C3663 1.350 . S
C3669 H3656 0.929 . S
C3669 C3661 1.433 . S
C3669 N3671 1.384 . S
N3670 C3666 1.427 . S
N3670 C3667 1.384 . S
N3671 C3663 1.427 . S
N3671 C3669 1.384 . S
H3672 C3678 0.930 . S
H3673 C3682 0.930 . S
H3674 C3687 0.929 . S
H3675 C3685 0.929 . S
H3676 C3680 0.929 . S
H3677 C3686 0.929 . S
C3678 H3672 0.930 . S
C3678 C3679 1.367 . S
C3678 C3686 1.378 . S
C3679 C3678 1.367 . S
C3679 C3687 1.433 . S
C3680 H3676 0.929 . S
C3680 C3682 1.378 . S
C3680 C3684 1.350 . S
C3681 C3684 1.463 . S
C3681 C3686 1.350 . S
C3681 N3689 1.427 . S
C3682 H3673 0.930 . S
C3682 C3680 1.378 . S
C3682 C3683 1.367 . S
C3683 C3682 1.367 . S
C3683 C3685 1.433 . S
C3684 C3680 1.350 . S
C3684 C3681 1.463 . S
C3684 N3688 1.427 . S
C3685 H3675 0.929 . S
C3685 C3683 1.433 . S
C3685 N3688 1.384 . S
C3686 H3677 0.929 . S
C3686 C3678 1.378 . S
C3686 C3681 1.350 . S
C3687 H3674 0.929 . S
C3687 C3679 1.433 . S
C3687 N3689 1.384 . S
N3688 C3684 1.427 . S
N3688 C3685 1.384 . S
N3689 C3681 1.427 . S
N3689 C3687 1.384 . S
H3690 C3696 0.930 . S
H3691 C3700 0.930 . S
H3692 C3705 0.929 . S
H3693 C3703 0.929 . S
H3694 C3698 0.929 . S
H3695 C3704 0.929 . S
C3696 H3690 0.930 . S
C3696 C3697 1.367 . S
C3696 C3704 1.378 . S
C3697 C3696 1.367 . S
C3697 C3705 1.433 . S
C3698 H3694 0.929 . S
C3698 C3700 1.378 . S
C3698 C3702 1.350 . S
C3699 C3702 1.463 1_556 S
C3699 C3704 1.350 . S
C3699 N3707 1.427 . S
C3700 H3691 0.930 . S
C3700 C3698 1.378 . S
C3700 C3701 1.367 . S
C3701 C3700 1.367 . S
C3701 C3703 1.433 . S
C3702 C3698 1.350 . S
C3702 C3699 1.463 1_554 S
C3702 N3706 1.427 . S
C3703 H3693 0.929 . S
C3703 C3701 1.433 . S
C3703 N3706 1.384 . S
C3704 H3695 0.929 . S
C3704 C3696 1.378 . S
C3704 C3699 1.350 . S
C3705 H3692 0.929 . S
C3705 C3697 1.433 . S
C3705 N3707 1.384 . S
N3706 C3702 1.427 . S
N3706 C3703 1.384 . S
N3707 C3699 1.427 . S
N3707 C3705 1.384 . S
H3708 C3714 0.930 . S
H3709 C3718 0.930 . S
H3710 C3723 0.929 . S
H3711 C3721 0.929 . S
H3712 C3716 0.929 . S
H3713 C3722 0.929 . S
C3714 H3708 0.930 . S
C3714 C3715 1.367 . S
C3714 C3722 1.378 . S
C3715 C3714 1.367 . S
C3715 C3723 1.433 . S
C3716 H3712 0.929 . S
C3716 C3718 1.378 . S
C3716 C3720 1.350 . S
C3717 C3720 1.463 . S
C3717 C3722 1.350 . S
C3717 N3725 1.427 . S
C3718 H3709 0.930 . S
C3718 C3716 1.378 . S
C3718 C3719 1.367 . S
C3719 C3718 1.367 . S
C3719 C3721 1.433 . S
C3720 C3716 1.350 . S
C3720 C3717 1.463 . S
C3720 N3724 1.427 . S
C3721 H3711 0.929 . S
C3721 C3719 1.433 . S
C3721 N3724 1.384 . S
C3722 H3713 0.929 . S
C3722 C3714 1.378 . S
C3722 C3717 1.350 . S
C3723 H3710 0.929 . S
C3723 C3715 1.433 . S
C3723 N3725 1.384 . S
N3724 C3720 1.427 . S
N3724 C3721 1.384 . S
N3725 C3717 1.427 . S
N3725 C3723 1.384 . S
H3726 C3732 0.930 . S
H3727 C3736 0.930 . S
H3728 C3741 0.929 . S
H3729 C3739 0.929 . S
H3730 C3734 0.929 . S
H3731 C3740 0.929 . S
C3732 H3726 0.930 . S
C3732 C3733 1.367 . S
C3732 C3740 1.378 . S
C3733 C3732 1.367 . S
C3733 C3741 1.433 . S
C3734 H3730 0.929 . S
C3734 C3736 1.378 . S
C3734 C3738 1.350 . S
C3735 C3738 1.463 . S
C3735 C3740 1.350 . S
C3735 N3743 1.427 . S
C3736 H3727 0.930 . S
C3736 C3734 1.378 . S
C3736 C3737 1.367 . S
C3737 C3736 1.367 . S
C3737 C3739 1.433 . S
C3738 C3734 1.350 . S
C3738 C3735 1.463 . S
C3738 N3742 1.427 . S
C3739 H3729 0.929 . S
C3739 C3737 1.433 . S
C3739 N3742 1.384 . S
C3740 H3731 0.929 . S
C3740 C3732 1.378 . S
C3740 C3735 1.350 . S
C3741 H3728 0.929 . S
C3741 C3733 1.433 . S
C3741 N3743 1.384 . S
N3742 C3738 1.427 . S
N3742 C3739 1.384 . S
N3743 C3735 1.427 . S
N3743 C3741 1.384 . S
C1591 N5 1.716 . S
C1595 C358 1.764 . S
C1609 C391 1.824 . S
C1613 N38 1.771 . S
C1627 C292 1.812 . S
C1631 N71 1.764 . S
C1645 C325 1.817 . S
C1649 N104 1.760 . S
C1663 C490 1.777 . S
C1667 N137 1.726 . S
C1681 N170 1.752 . S
C1685 C523 1.803 . S
C1699 C424 1.801 . S
C1703 N203 1.753 . S
C1717 C457 1.851 . S
C1721 N236 1.798 . S
C1735 N269 1.716 . S
C1739 C589 1.763 . S
C1753 N302 1.761 . S
C1757 C622 1.818 . S
C1771 C655 1.737 . S
C1775 N335 1.680 . S
C1789 N368 1.759 . S
C1793 C1480 1.812 . S
C1807 C1348 1.723 . S
C1811 N401 1.666 . S
C1825 N434 1.737 . S
C1829 C787 1.788 . S
C1843 N467 1.728 . S
C1847 C1513 1.776 . S
C1861 C754 1.848 . S
C1865 N500 1.793 . S
C1879 N533 1.714 . S
C1883 C1018 1.763 . S
C1897 C94 1.736 . S
C1901 N566 1.678 . S
C1915 C127 1.821 . S
C1919 N599 1.766 . S
C1933 C28 1.813 . S
C1937 N632 1.766 . S
C1951 N665 1.796 . S
C1955 C853 1.850 . S
C1969 N698 1.708 . S
C1973 C952 1.761 . S
C1987 C193 1.789 . S
C1991 N731 1.737 . S
C2005 C259 1.797 . S
C2009 N764 1.744 . S
C2023 N797 1.726 . S
C2027 C1150 1.777 . S
C2041 N830 1.727 . S
C2045 C1183 1.782 . S
C2059 C1084 1.733 . S
C2063 N863 1.681 . S
C2077 C1117 1.778 . S
C2081 N896 1.723 . S
C2095 C1282 1.760 . S
C2099 N929 1.707 . S
C2113 C1315 1.803 . S
C2117 N962 1.746 . S
C2131 C1216 1.736 . S
C2135 N995 1.678 . S
C2149 N1028 1.714 . S
C2153 C1249 1.763 . S
C2167 N1061 1.724 . S
C2171 C1381 1.776 . S
C2185 C1414 1.780 . S
C2189 N1094 1.725 . S
C2203 N1127 1.750 . S
C2207 C1447 1.803 . S
C2221 N1160 1.747 . S
C2225 C688 1.799 . S
C2239 N1193 1.762 . S
C2243 C556 1.815 . S
C2257 N1226 1.773 . S
C2261 C1579 1.826 . S
C2275 C721 1.759 . S
C2279 N1259 1.705 . S
C2293 C1546 1.757 . S
C2297 N1292 1.705 . S
C2311 N1325 1.724 . S
C2315 C226 1.776 . S
C2329 C886 1.790 . S
C2333 N1358 1.738 . S
C2347 N1391 1.735 . S
C2351 C919 1.787 . S
C2365 N1424 1.670 . S
C2369 C820 1.719 . S
C2383 C61 1.757 . S
C2387 N1457 1.704 . S
C2401 N1490 1.720 . S
C2405 C160 1.770 . S
C2419 N1523 1.762 . S
C2423 C985 1.818 . S
C2437 C1051 1.810 . S
C2441 N1556 1.756 . S
C2455 C314 1.319 . S
C2459 C17 1.309 . S
C2473 C50 1.293 . S
C2477 C347 1.286 . S
C2491 C380 1.354 . S
C2495 C83 1.357 . S
C2509 C281 1.317 . S
C2513 C116 1.309 . S
C2527 C149 1.301 . S
C2531 C512 1.297 . S
C2545 C182 1.308 . S
C2549 C413 1.300 . S
C2563 C446 1.368 . S
C2567 C215 1.370 . S
C2581 C248 1.303 . S
C2585 C479 1.296 . S
C2599 C611 1.315 . S
C2603 C545 1.312 . S
C2617 C578 1.292 . S
C2621 C1535 1.287 . S
C2635 C1568 1.354 . S
C2639 C644 1.355 . S
C2653 C677 1.304 . S
C2657 C1502 1.295 . S
C2671 C1469 1.361 . S
C2675 C710 1.357 . S
C2689 C1370 1.369 . S
C2693 C743 1.368 . S
C2707 C776 1.306 . S
C2711 C1436 1.303 . S
C2725 C809 1.344 . S
C2729 C1106 1.347 . S
C2743 C1139 1.369 . S
C2747 C842 1.367 . S
C2761 C1172 1.306 . S
C2765 C875 1.303 . S
C2779 C908 1.345 . S
C2783 C1073 1.346 . S
C2797 C1304 1.357 . S
C2801 C941 1.361 . S
C2815 C1205 1.354 . S
C2819 C974 1.357 . S
C2833 C1007 1.293 . S
C2837 C1238 1.286 . S
C2851 C1271 1.361 . S
C2855 C1040 1.357 . S
C2869 C1403 1.347 . S
C2873 C1337 1.344 . S
C2887 C668 0.948 . S
C2891 C8 0.941 . S
C2905 C41 0.897 . S
C2909 C1361 0.885 . S
C2923 C74 0.885 . S
C2927 C1394 0.901 . S
C2941 C1427 0.924 . S
C2945 C107 0.926 . S
C2959 C1559 0.931 . S
C2963 C140 0.951 . S
C2977 C701 0.868 . S
C2981 C173 0.858 . S
C2995 C206 0.904 . S
C2999 C1526 0.899 . S
C3013 C239 0.946 . S
C3017 C536 0.940 . S
C3031 C503 0.933 . S
C3035 C272 0.945 . S
C3049 C305 0.921 . S
C3053 C404 0.932 . S
C3067 C338 0.909 . S
C3071 C437 0.915 . S
C3085 C470 0.942 . S
C3089 C371 0.933 . S
C3103 C833 0.905 . S
C3107 C569 0.926 . S
C3121 C602 0.906 . S
C3125 C866 0.929 . S
C3139 C635 0.904 . S
C3143 C899 0.892 . S
C3157 C734 0.926 . S
C3161 C998 0.927 . S
C3175 C932 0.879 . S
C3179 C767 0.864 . S
C3193 C800 0.868 . S
C3197 C1460 0.857 . S
C3211 C1493 0.934 . S
C3215 C965 0.947 . S
C3229 C1328 0.860 . S
C3233 C1031 0.877 . S
C3247 C1064 0.860 . S
C3251 C1295 0.876 . S
C3265 C1196 0.885 . S
C3269 C1097 0.889 . S
C3283 C1130 0.889 . S
C3287 C1229 0.887 . S
C3301 C1163 0.876 . S
C3305 C1262 0.860 . S
C3319 N146 2.112 . S
C3323 N14 2.120 . S
C3337 N179 2.144 . S
C3341 N47 2.152 . S
C3355 N212 2.123 . S
C3359 N80 2.131 . S
C3373 N245 2.138 . S
C3377 N113 2.139 . S
C3391 N476 2.110 . S
C3395 N278 2.118 . S
C3409 N311 2.129 . S
C3413 N509 2.125 . S
C3427 N344 2.129 . S
C3431 N410 2.123 . S
C3445 N443 2.109 . S
C3449 N377 2.114 . S
C3463 N542 2.109 . S
C3467 N1499 2.118 . S
C3481 N575 2.115 . S
C3485 N1433 2.122 . S
C3499 N674 2.129 . S
C3503 N608 2.139 . S
C3517 N1367 2.129 . S
C3521 N641 2.121 . S
C3535 N1334 2.135 . S
C3539 N707 2.136 . S
C3553 N740 2.112 . S
C3557 N1565 2.108 . S
C3571 N1532 2.154 . S
C3575 N773 2.147 . S
C3589 N938 2.130 . S
C3593 N806 2.123 . S
C3607 N839 2.121 . S
C3611 N971 2.120 . S
C3625 N872 2.126 . S
C3629 N1004 2.118 . S
C3643 N905 2.123 . S
C3647 N1037 2.129 . S
C3661 N1070 2.134 . S
C3665 N1268 2.124 . S
C3679 N1103 2.130 . S
C3683 N1301 2.138 . S
C3697 N1202 2.129 . S
C3701 N1136 2.120 . S
C3715 N1169 2.149 . S
C3719 N1235 2.154 . S
C3733 N1466 2.135 . S
C3737 N1400 2.125 . S
