# Generated by pormake.
# Topology zfk, (5)-cn, num edge types: 1
# Building blocks:
#     Node 0, Type 0, BuildingBlock: BEQFEK_clean_sbu_0, # of connection points: 5
#     Node 1, Type 0, BuildingBlock: BEQFEK_clean_sbu_0, # of connection points: 5
#     Node 2, Type 0, BuildingBlock: BEQFEK_clean_sbu_0, # of connection points: 5
#     Node 3, Type 0, BuildingBlock: BEQFEK_clean_sbu_0, # of connection points: 5
#     Node 4, Type 0, BuildingBlock: BEQFEK_clean_sbu_0, # of connection points: 5
#     Node 5, Type 0, BuildingBlock: BEQFEK_clean_sbu_0, # of connection points: 5
#     Node 6, Type 0, BuildingBlock: BEQFEK_clean_sbu_0, # of connection points: 5
#     Node 7, Type 0, BuildingBlock: BEQFEK_clean_sbu_0, # of connection points: 5
#     Node 8, Type 0, BuildingBlock: BEQFEK_clean_sbu_0, # of connection points: 5
#     Node 9, Type 0, BuildingBlock: BEQFEK_clean_sbu_0, # of connection points: 5
#     Node 10, Type 0, BuildingBlock: BEQFEK_clean_sbu_0, # of connection points: 5
#     Node 11, Type 0, BuildingBlock: BEQFEK_clean_sbu_0, # of connection points: 5
#     Node 12, Type 0, BuildingBlock: BEQFEK_clean_sbu_0, # of connection points: 5
#     Node 13, Type 0, BuildingBlock: BEQFEK_clean_sbu_0, # of connection points: 5
#     Node 14, Type 0, BuildingBlock: BEQFEK_clean_sbu_0, # of connection points: 5
#     Node 15, Type 0, BuildingBlock: BEQFEK_clean_sbu_0, # of connection points: 5
#     Edge 16, Type (0, 0), BuildingBlock: AJUNOK_clean_linker_0, # of connection points: 2
#     Edge 17, Type (0, 0), BuildingBlock: AJUNOK_clean_linker_0, # of connection points: 2
#     Edge 18, Type (0, 0), BuildingBlock: AJUNOK_clean_linker_0, # of connection points: 2
#     Edge 19, Type (0, 0), BuildingBlock: AJUNOK_clean_linker_0, # of connection points: 2
#     Edge 20, Type (0, 0), BuildingBlock: AJUNOK_clean_linker_0, # of connection points: 2
#     Edge 21, Type (0, 0), BuildingBlock: AJUNOK_clean_linker_0, # of connection points: 2
#     Edge 22, Type (0, 0), BuildingBlock: AJUNOK_clean_linker_0, # of connection points: 2
#     Edge 23, Type (0, 0), BuildingBlock: AJUNOK_clean_linker_0, # of connection points: 2
#     Edge 24, Type (0, 0), BuildingBlock: AJUNOK_clean_linker_0, # of connection points: 2
#     Edge 25, Type (0, 0), BuildingBlock: AJUNOK_clean_linker_0, # of connection points: 2
#     Edge 26, Type (0, 0), BuildingBlock: AJUNOK_clean_linker_0, # of connection points: 2
#     Edge 27, Type (0, 0), BuildingBlock: AJUNOK_clean_linker_0, # of connection points: 2
#     Edge 28, Type (0, 0), BuildingBlock: AJUNOK_clean_linker_0, # of connection points: 2
#     Edge 29, Type (0, 0), BuildingBlock: AJUNOK_clean_linker_0, # of connection points: 2
#     Edge 30, Type (0, 0), BuildingBlock: AJUNOK_clean_linker_0, # of connection points: 2
#     Edge 31, Type (0, 0), BuildingBlock: AJUNOK_clean_linker_0, # of connection points: 2
#     Edge 32, Type (0, 0), BuildingBlock: AJUNOK_clean_linker_0, # of connection points: 2
#     Edge 33, Type (0, 0), BuildingBlock: AJUNOK_clean_linker_0, # of connection points: 2
#     Edge 34, Type (0, 0), BuildingBlock: AJUNOK_clean_linker_0, # of connection points: 2
#     Edge 35, Type (0, 0), BuildingBlock: AJUNOK_clean_linker_0, # of connection points: 2
#     Edge 36, Type (0, 0), BuildingBlock: AJUNOK_clean_linker_0, # of connection points: 2
#     Edge 37, Type (0, 0), BuildingBlock: AJUNOK_clean_linker_0, # of connection points: 2
#     Edge 38, Type (0, 0), BuildingBlock: AJUNOK_clean_linker_0, # of connection points: 2
#     Edge 39, Type (0, 0), BuildingBlock: AJUNOK_clean_linker_0, # of connection points: 2
#     Edge 40, Type (0, 0), BuildingBlock: AJUNOK_clean_linker_0, # of connection points: 2
#     Edge 41, Type (0, 0), BuildingBlock: AJUNOK_clean_linker_0, # of connection points: 2
#     Edge 42, Type (0, 0), BuildingBlock: AJUNOK_clean_linker_0, # of connection points: 2
#     Edge 43, Type (0, 0), BuildingBlock: AJUNOK_clean_linker_0, # of connection points: 2
#     Edge 44, Type (0, 0), BuildingBlock: AJUNOK_clean_linker_0, # of connection points: 2
#     Edge 45, Type (0, 0), BuildingBlock: AJUNOK_clean_linker_0, # of connection points: 2
#     Edge 46, Type (0, 0), BuildingBlock: AJUNOK_clean_linker_0, # of connection points: 2
#     Edge 47, Type (0, 0), BuildingBlock: AJUNOK_clean_linker_0, # of connection points: 2
#     Edge 48, Type (0, 0), BuildingBlock: AJUNOK_clean_linker_0, # of connection points: 2
#     Edge 49, Type (0, 0), BuildingBlock: AJUNOK_clean_linker_0, # of connection points: 2
#     Edge 50, Type (0, 0), BuildingBlock: AJUNOK_clean_linker_0, # of connection points: 2
#     Edge 51, Type (0, 0), BuildingBlock: AJUNOK_clean_linker_0, # of connection points: 2
#     Edge 52, Type (0, 0), BuildingBlock: AJUNOK_clean_linker_0, # of connection points: 2
#     Edge 53, Type (0, 0), BuildingBlock: AJUNOK_clean_linker_0, # of connection points: 2
#     Edge 54, Type (0, 0), BuildingBlock: AJUNOK_clean_linker_0, # of connection points: 2
#     Edge 55, Type (0, 0), BuildingBlock: AJUNOK_clean_linker_0, # of connection points: 2
# Relax obj value: 0.151
# Max RMSD: 0.133
# Mean RMSD: 0.133
data_MOF--net-zfk--node1-BEQFEK_clean_sbu_0--edge1-AJUNOK_clean_linker_0
_symmetry_space_group_name_H-M    P1
_symmetry_Int_Tables_number       1
_symmetry_cell_setting            triclinic
loop_
_symmetry_equiv_pos_as_xyz
'x, y, z'
_cell_length_a     23.169616
_cell_length_b     23.264354
_cell_length_c     59.281913
_cell_angle_alpha  90.075658
_cell_angle_beta   90.13596
_cell_angle_gamma 89.978545
loop_
_atom_site_label
_atom_site_type_symbol
_atom_site_fract_x
_atom_site_fract_y
_atom_site_fract_z
_atom_type_partial_charge
Co0 Co 0.02816 0.31249 0.09891 0.0
Co1 Co 0.07094 0.30073 0.15014 0.0
C2 C -0.00446 0.21364 0.13113 0.0
O3 O -0.00152 0.24107 0.11262 0.0
O4 O 0.01567 0.23472 0.14945 0.0
C5 C 0.97947 0.27678 0.05749 0.0
O6 O 0.98837 0.22702 0.06731 0.0
C7 C 0.09674 0.31188 0.20016 0.0
C8 C 0.19149 0.3218 0.19841 0.0
C9 C 0.14588 0.3209 0.21339 0.0
N10 N 0.11293 0.3088 0.17831 0.0
N11 N 0.16969 0.31453 0.17758 0.0
C12 C 0.03624 0.30285 0.20815 0.0
H13 H 0.01203 0.2759 0.19591 0.0
H14 H 0.01397 0.34489 0.20949 0.0
H15 H 0.03616 0.28242 0.22507 0.0
C16 C 0.01267 0.43306 0.11407 0.0
N17 N 0.02347 0.37732 0.11859 0.0
N18 N 0.0415 0.37271 0.13964 0.0
C19 C 0.04363 0.42565 0.14897 0.0
C20 C 0.02512 0.46565 0.13316 0.0
C21 C 0.99377 0.45464 0.09147 0.0
H22 H 0.96132 0.42495 0.08413 0.0
H23 H 0.97513 0.49848 0.09271 0.0
H24 H 0.03154 0.45564 0.08001 0.0
O25 O 0.10934 0.29246 0.09301 0.0
O26 O 0.12947 0.2738 0.12892 0.0
H27 H 0.11567 0.4201 0.17149 0.0
H28 H 0.0755 0.48551 0.17432 0.0
C29 C 0.07169 0.4387 0.17118 0.0
H30 H 0.04613 0.41903 0.1849 0.0
H31 H 0.19377 0.31409 0.16273 0.0
O32 O 0.9914 0.32254 0.06844 0.0
C33 C 0.14237 0.27194 0.10812 0.0
Co34 Co 0.18877 0.00254 0.60421 0.0
Co35 Co 0.17652 0.05943 0.65311 0.0
C36 C 0.28936 0.0159 0.63698 0.0
O37 O 0.26638 -0.00137 0.61863 0.0
O38 O 0.2592 0.03856 0.65257 0.0
C39 C 0.23858 0.96152 0.56361 0.0
O40 O 0.28442 0.98297 0.57359 0.0
C41 C 0.17518 0.09306 0.70213 0.0
C42 C 0.10529 0.15774 0.7016 0.0
C43 C 0.14391 0.13055 0.71589 0.0
N44 N 0.15468 0.09717 0.68088 0.0
N45 N 0.11339 0.13642 0.68076 0.0
C46 C 0.22669 0.05776 0.70847 0.0
H47 H 0.25973 0.06039 0.69505 0.0
H48 H 0.21356 0.01207 0.71002 0.0
H49 H 0.24592 0.07262 0.72462 0.0
C50 C 0.07579 0.95666 0.61862 0.0
N51 N 0.12752 0.97948 0.6239 0.0
N52 N 0.12561 -0.00118 0.64483 0.0
C53 C 0.07347 0.98665 0.65366 0.0
C54 C 0.03935 0.96129 0.6372 0.0
C55 C 0.05896 0.9399 0.59514 0.0
H56 H 0.0903 0.90797 0.58857 0.0
H57 H 0.01478 0.92146 0.59459 0.0
H58 H 0.06109 0.97825 0.58405 0.0
O59 O 0.17805 0.08337 0.59602 0.0
O60 O 0.16799 0.1196 0.63046 0.0
H61 H 0.03497 0.05281 0.67362 0.0
H62 H 0.01741 0.98134 0.68255 0.0
C63 C 0.0525 0.00885 0.67588 0.0
H64 H 0.08829 0.00963 0.6883 0.0
H65 H 0.09053 0.14865 0.66636 0.0
O66 O 0.19088 0.96145 0.57433 0.0
C67 C 0.16916 0.12549 0.60916 0.0
Co68 Co 0.48511 0.1798 0.10179 0.0
Co69 Co 0.42971 0.17063 0.15089 0.0
C70 C 0.48278 0.27889 0.13567 0.0
O71 O 0.49588 0.25526 0.11696 0.0
O72 O 0.45856 0.25071 0.15149 0.0
C73 C 0.52739 0.22659 0.06108 0.0
O74 O 0.50643 0.27312 0.07061 0.0
C75 C 0.40003 0.16031 0.20009 0.0
C76 C 0.32688 0.09962 0.19769 0.0
C77 C 0.36073 0.12933 0.21299 0.0
N78 N 0.39011 0.1487 0.17813 0.0
N79 N 0.3457 0.11313 0.17694 0.0
C80 C 0.44899 0.19629 0.20848 0.0
H81 H 0.48202 0.20166 0.19511 0.0
H82 H 0.46864 0.17648 0.2237 0.0
H83 H 0.43228 0.2393 0.21328 0.0
C84 C 0.52384 0.06356 0.11535 0.0
N85 N 0.50357 0.11603 0.12082 0.0
N86 N 0.4848 0.11481 0.14179 0.0
C87 C 0.49436 0.06211 0.15047 0.0
C88 C 0.51797 0.02733 0.13389 0.0
C89 C 0.54116 0.04689 0.09194 0.0
H90 H 0.5748 0.07695 0.08582 0.0
H91 H 0.55791 0.0022 0.09133 0.0
H92 H 0.50335 0.051 0.08052 0.0
O93 O 0.40305 0.17739 0.09348 0.0
O94 O 0.36852 0.17128 0.12827 0.0
H95 H 0.4257 0.03068 0.17104 0.0
H96 H 0.49547 0.00385 0.17888 0.0
C97 C 0.47189 0.04227 0.17279 0.0
H98 H 0.47668 0.07691 0.18547 0.0
H99 H 0.32948 0.09631 0.1619 0.0
O100 O 0.52675 0.17978 0.07223 0.0
C101 C 0.36099 0.17372 0.10705 0.0
Co102 Co 0.28282 0.46547 0.60644 0.0
Co103 Co 0.2788 0.41055 0.65574 0.0
C104 C 0.18902 0.4922 0.64121 0.0
O105 O 0.21365 0.49599 0.62207 0.0
O106 O 0.21173 0.46364 0.65733 0.0
C107 C 0.24234 0.5043 0.56533 0.0
O108 O 0.19515 0.48723 0.57555 0.0
C109 C 0.28732 0.3827 0.70524 0.0
C110 C 0.31885 0.2933 0.70324 0.0
C111 C 0.3049 0.33612 0.71857 0.0
N112 N 0.29173 0.36782 0.68331 0.0
N113 N 0.31002 0.31407 0.68236 0.0
C114 C 0.26501 0.43976 0.71295 0.0
H115 H 0.23673 0.45899 0.69989 0.0
H116 H 0.30192 0.46932 0.71574 0.0
H117 H 0.24062 0.4353 0.72895 0.0
C118 C 0.40571 0.4796 0.61963 0.0
N119 N 0.35058 0.46659 0.62467 0.0
N120 N 0.34861 0.44504 0.64522 0.0
C121 C 0.40251 0.4442 0.65392 0.0
C122 C 0.44061 0.46546 0.63794 0.0
C123 C 0.42444 0.50283 0.59731 0.0
H124 H 0.39477 0.53777 0.59201 0.0
H125 H 0.46933 0.51938 0.59803 0.0
H126 H 0.42168 0.46816 0.58447 0.0
O127 O 0.26232 0.38634 0.59889 0.0
O128 O 0.25201 0.35316 0.63382 0.0
H129 H 0.41057 0.3703 0.67498 0.0
H130 H 0.46384 0.42451 0.6806 0.0
C131 C 0.41802 0.41727 0.67603 0.0
H132 H 0.39008 0.43512 0.68948 0.0
H133 H 0.31749 0.29178 0.66737 0.0
O134 O 0.28979 0.50274 0.57627 0.0
C135 C 0.24744 0.34731 0.61256 0.0
Co136 Co 0.00639 0.23117 0.91928 0.0
Co137 Co 0.07934 0.21748 0.87417 0.0
C138 C 0.02138 0.3283 0.88632 0.0
O139 O -0.00171 0.30617 0.90376 0.0
O140 O 0.05202 0.29826 0.87292 0.0
C141 C 0.9702 0.27725 0.95986 0.0
O142 O -0.00168 0.32016 0.9506 0.0
C143 C 0.10729 0.20353 0.82544 0.0
C144 C 0.19041 0.15727 0.82756 0.0
C145 C 0.14965 0.1774 0.8124 0.0
N146 N 0.12195 0.19824 0.84733 0.0
N147 N 0.17235 0.17158 0.84839 0.0
C148 C 0.05122 0.22792 0.8174 0.0
H149 H 0.02096 0.2337 0.83173 0.0
H150 H 0.03177 0.19927 0.80447 0.0
H151 H 0.05927 0.27027 0.80943 0.0
C152 C 0.96929 0.11484 0.90489 0.0
N153 N 0.99333 0.16617 0.90017 0.0
N154 N 0.02132 0.16214 0.88088 0.0
C155 C 0.01498 0.10845 0.87262 0.0
C156 C 0.98232 0.07644 0.8876 0.0
C157 C 0.94241 0.10077 0.92712 0.0
H158 H 0.97603 0.10228 0.94048 0.0
H159 H 0.90944 0.13368 0.9313 0.0
H160 H 0.92223 0.05749 0.92687 0.0
O161 O 0.08583 0.22999 0.93029 0.0
O162 O 0.13588 0.21628 0.8988 0.0
H163 H 0.0957 0.08598 0.85759 0.0
H164 H 0.03708 0.03984 0.84927 0.0
C165 C 0.04914 0.0848 0.8533 0.0
H166 H 0.04158 0.1115 0.83814 0.0
H167 H 0.19335 0.16114 0.86339 0.0
O168 O 0.96206 0.23197 0.94813 0.0
C169 C 0.13315 0.22251 0.92007 0.0
Co170 Co 0.29487 -0.00398 0.4243 0.0
Co171 Co 0.30622 0.04598 0.37434 0.0
C172 C 0.1941 0.004 0.39116 0.0
O173 O 0.21731 0.99011 0.4099 0.0
O174 O 0.22377 0.02463 0.37501 0.0
C175 C 0.24656 0.96081 0.46591 0.0
O176 O 0.20083 0.98334 0.45622 0.0
C177 C 0.31335 0.07042 0.32461 0.0
C178 C 0.37734 0.14088 0.32495 0.0
C179 C 0.34421 0.10752 0.31059 0.0
N180 N 0.3288 0.08088 0.34616 0.0
N181 N 0.3666 0.12343 0.34613 0.0
C182 C 0.26794 0.02792 0.31798 0.0
H183 H 0.23216 0.0289 0.33036 0.0
H184 H 0.28676 0.98406 0.31829 0.0
H185 H 0.25074 0.03711 0.30087 0.0
C186 C 0.409 0.95122 0.41093 0.0
N187 N 0.35648 0.97126 0.40511 0.0
N188 N 0.35778 0.9872 0.38377 0.0
C189 C 0.41033 0.9754 0.37522 0.0
C190 C 0.44533 0.95416 0.39227 0.0
C191 C 0.42627 0.93889 0.43478 0.0
H192 H 0.39651 0.90642 0.44199 0.0
H193 H 0.47131 0.9228 0.43581 0.0
H194 H 0.4219 0.97864 0.44501 0.0
O195 O 0.3052 0.07777 0.43131 0.0
O196 O 0.3135 0.10859 0.39605 0.0
H197 H 0.44514 0.04011 0.35362 0.0
H198 H 0.46731 0.96844 0.34658 0.0
C199 C 0.4305 -0.00517 0.35251 0.0
H200 H 0.39501 0.99112 0.34006 0.0
H201 H 0.38598 0.14001 0.36064 0.0
O202 O 0.29321 0.95761 0.4546 0.0
C203 C 0.31295 0.11789 0.41717 0.0
Co204 Co 0.48378 0.27793 0.92401 0.0
Co205 Co 0.41423 0.28562 0.87743 0.0
C206 C 0.47478 0.17881 0.89072 0.0
O207 O 0.4934 0.20276 0.90866 0.0
O208 O 0.44537 0.20664 0.87618 0.0
C209 C 0.53052 0.23203 0.96364 0.0
O210 O 0.50814 0.18617 0.95411 0.0
C211 C 0.37735 0.29028 0.82897 0.0
C212 C 0.30304 0.34952 0.83142 0.0
C213 C 0.33569 0.3185 0.81617 0.0
N214 N 0.36978 0.3044 0.85083 0.0
N215 N 0.3246 0.33902 0.85211 0.0
C216 C 0.42582 0.25381 0.82052 0.0
H217 H 0.4116 0.20827 0.82024 0.0
H218 H 0.46358 0.2573 0.83201 0.0
H219 H 0.43811 0.26642 0.80313 0.0
C220 C 0.51598 0.39466 0.909 0.0
N221 N 0.49522 0.34186 0.90442 0.0
N222 N 0.47013 0.34274 0.88442 0.0
C223 C 0.47608 0.39554 0.87541 0.0
C224 C 0.50389 0.43063 0.89086 0.0
C225 C 0.53959 0.41181 0.93152 0.0
H226 H 0.57445 0.3816 0.93646 0.0
H227 H 0.55667 0.45638 0.93126 0.0
H228 H 0.50496 0.40843 0.94436 0.0
O229 O 0.40436 0.27778 0.93476 0.0
O230 O 0.35784 0.28401 0.90199 0.0
H231 H 0.40086 0.42448 0.85789 0.0
H232 H 0.46684 0.45457 0.84744 0.0
C233 C 0.44678 0.415 0.85422 0.0
H234 H 0.44953 0.38094 0.84122 0.0
H235 H 0.30947 0.35696 0.86713 0.0
O236 O 0.52967 0.27921 0.9527 0.0
C237 C 0.35813 0.28083 0.9234 0.0
Co238 Co 0.20073 0.45964 0.4253 0.0
Co239 Co 0.20961 0.41795 0.37398 0.0
C240 C 0.29763 0.49364 0.39278 0.0
O241 O 0.27148 0.49052 0.41157 0.0
O242 O 0.27589 0.47275 0.37472 0.0
C243 C 0.23868 0.49512 0.46762 0.0
O244 O 0.28676 0.47811 0.45799 0.0
C245 C 0.19438 0.39723 0.32382 0.0
C246 C 0.18666 0.30254 0.32412 0.0
C247 C 0.18501 0.3496 0.30992 0.0
N248 N 0.20006 0.37879 0.34531 0.0
N249 N 0.19565 0.3221 0.34518 0.0
C250 C 0.20138 0.45849 0.31672 0.0
H251 H 0.2289 0.48192 0.32902 0.0
H252 H 0.15862 0.47981 0.31624 0.0
H253 H 0.22047 0.46086 0.29958 0.0
C254 C 0.07962 0.4773 0.41123 0.0
N255 N 0.13505 0.46571 0.4062 0.0
N256 N 0.13817 0.4474 0.38516 0.0
C257 C 0.08441 0.44564 0.37637 0.0
C258 C 0.04563 0.46493 0.3925 0.0
C259 C 0.05971 0.49697 0.43395 0.0
H260 H 0.09051 0.52895 0.44089 0.0
H261 H 0.01594 0.51623 0.43306 0.0
H262 H 0.05882 0.45962 0.44557 0.0
O263 O 0.21984 0.37843 0.43042 0.0
O264 O 0.23644 0.35761 0.39442 0.0
H265 H 0.08956 0.3741 0.35371 0.0
H266 H 0.02214 0.41178 0.35229 0.0
C267 C 0.06936 0.4172 0.35445 0.0
H268 H 0.08611 0.44342 0.34035 0.0
H269 H 0.1981 0.29651 0.35959 0.0
O270 O 0.19221 0.49371 0.45608 0.0
C271 C 0.2387 0.34486 0.41523 0.0
Co272 Co 0.98993 0.72514 0.92273 0.0
Co273 Co 0.93982 0.71623 0.87269 0.0
C274 C 0.98634 0.82646 0.88956 0.0
O275 O -0.00183 0.80244 0.90839 0.0
O276 O 0.96494 0.79796 0.87308 0.0
C277 C 0.0603 0.76118 0.96174 0.0
O278 O 0.08359 0.79966 0.94841 0.0
C279 C 0.90086 0.70518 0.82379 0.0
C280 C 0.84205 0.63135 0.82813 0.0
C281 C 0.86351 0.6684 0.81195 0.0
N282 N 0.90121 0.6896 0.84572 0.0
N283 N 0.86541 0.64584 0.84805 0.0
C284 C 0.93357 0.75564 0.8149 0.0
H285 H 0.94298 0.78656 0.82868 0.0
H286 H 0.97527 0.74056 0.80788 0.0
H287 H 0.90874 0.77741 0.80134 0.0
C288 C 0.03569 0.61156 0.90846 0.0
N289 N 0.0136 0.66358 0.90342 0.0
N290 N -0.00186 0.66379 0.88201 0.0
C291 C 0.01279 0.61307 0.87259 0.0
C292 C 0.03546 0.57753 0.88912 0.0
C293 C 0.04815 0.59219 0.93202 0.0
H294 H 0.00715 0.59038 0.94164 0.0
H295 H 0.07666 0.62395 0.94046 0.0
H296 H 0.06901 0.54922 0.9322 0.0
O297 O 0.90796 0.71732 0.92974 0.0
O298 O 0.87692 0.71218 0.89445 0.0
H299 H 0.95417 0.5732 0.84948 0.0
H300 H 0.02852 0.56404 0.84236 0.0
C301 C -0.00333 0.59504 0.84917 0.0
H302 H -0.00501 0.63283 0.83784 0.0
H303 H 0.8574 0.62524 0.86336 0.0
O304 O 0.02562 0.72431 0.95345 0.0
C305 C 0.86747 0.71254 0.91551 0.0
Co306 Co 0.79539 0.98869 0.42357 0.0
Co307 Co 0.80712 0.93991 0.37338 0.0
C308 C 0.6945 0.98048 0.39041 0.0
O309 O 0.71799 -0.00598 0.40913 0.0
O310 O 0.72401 0.96025 0.37409 0.0
C311 C 0.74546 0.0279 0.46465 0.0
O312 O 0.6988 0.00933 0.45437 0.0
C313 C 0.81569 0.91451 0.32365 0.0
C314 C 0.88329 0.84744 0.32449 0.0
C315 C 0.84881 0.87862 0.30988 0.0
N316 N 0.83123 0.90554 0.34529 0.0
N317 N 0.87116 0.86494 0.34556 0.0
C318 C 0.768 0.95414 0.31675 0.0
H319 H 0.73246 0.9521 0.32922 0.0
H320 H 0.78445 -0.00107 0.31662 0.0
H321 H 0.75114 0.94293 0.29977 0.0
C322 C 0.90867 0.03471 0.41057 0.0
N323 N 0.85637 0.01463 0.40454 0.0
N324 N 0.85794 -0.00076 0.38312 0.0
C325 C 0.91051 0.01165 0.37474 0.0
C326 C 0.94525 0.03232 0.39199 0.0
C327 C 0.9256 0.0463 0.43452 0.0
H328 H 0.89586 0.07872 0.44182 0.0
H329 H 0.97068 0.06217 0.43576 0.0
H330 H 0.9209 0.00629 0.44454 0.0
O331 O 0.80705 0.90699 0.43009 0.0
O332 O 0.81535 0.87672 0.39473 0.0
H333 H 0.94789 0.94912 0.35272 0.0
H334 H 0.96648 0.02188 0.34602 0.0
C335 C 0.93101 -0.00634 0.35188 0.0
H336 H 0.8952 -0.00385 0.33952 0.0
H337 H 0.89106 0.84982 0.36018 0.0
O338 O 0.79326 0.02662 0.45403 0.0
C339 C 0.81522 0.86715 0.41582 0.0
Co340 Co 0.51062 0.77649 0.92536 0.0
Co341 Co 0.55486 0.78085 0.87442 0.0
C342 C 0.4946 0.67926 0.89072 0.0
O343 O 0.49116 0.70213 0.91028 0.0
O344 O 0.51412 0.70692 0.87379 0.0
C345 C 0.43598 0.75223 0.96509 0.0
O346 O 0.39951 0.72608 0.95155 0.0
C347 C 0.57572 0.79449 0.8246 0.0
C348 C 0.65915 0.84052 0.82574 0.0
C349 C 0.61772 0.81978 0.81101 0.0
N350 N 0.59184 0.80052 0.84635 0.0
N351 N 0.6421 0.8274 0.84677 0.0
C352 C 0.51923 0.76934 0.81739 0.0
H353 H 0.52473 0.72246 0.81468 0.0
H354 H 0.48649 0.77538 0.83083 0.0
H355 H 0.50412 0.78913 0.8014 0.0
C356 C 0.47329 0.89448 0.91262 0.0
N357 N 0.49312 0.84184 0.90715 0.0
N358 N 0.50954 0.84228 0.88587 0.0
C359 C 0.49949 0.8947 0.87707 0.0
C360 C 0.4766 0.92968 0.89372 0.0
C361 C 0.45745 0.91209 0.93607 0.0
H362 H 0.42846 0.87937 0.94356 0.0
H363 H 0.43596 0.95475 0.93624 0.0
H364 H 0.49714 0.91399 0.94656 0.0
O365 O 0.59401 0.77184 0.93058 0.0
O366 O 0.61954 0.76528 0.89463 0.0
H367 H 0.56788 0.91511 0.85436 0.0
H368 H 0.50379 0.95672 0.84972 0.0
C369 C 0.52009 0.91355 0.85433 0.0
H370 H 0.50565 0.88229 0.8414 0.0
H371 H 0.66419 0.8382 0.86154 0.0
O372 O 0.47964 0.77792 0.95686 0.0
C373 C 0.63167 0.76329 0.9155 0.0
Co374 Co 0.70882 0.52489 0.42738 0.0
Co375 Co 0.7051 0.56354 0.37589 0.0
C376 C 0.79713 0.48843 0.39117 0.0
O377 O 0.77685 0.49122 0.41119 0.0
O378 O 0.77019 0.50999 0.3744 0.0
C379 C 0.72537 0.44983 0.46734 0.0
O380 O 0.74519 0.40978 0.45379 0.0
C381 C 0.68922 0.58413 0.32602 0.0
C382 C 0.64929 0.67033 0.32732 0.0
C383 C 0.66598 0.62751 0.31248 0.0
N384 N 0.68559 0.60066 0.34778 0.0
N385 N 0.66207 0.65242 0.3483 0.0
C386 C 0.71592 0.52882 0.31848 0.0
H387 H 0.74897 0.51448 0.3308 0.0
H388 H 0.68207 0.49521 0.31746 0.0
H389 H 0.73581 0.53371 0.30157 0.0
C390 C 0.58356 0.51117 0.41761 0.0
N391 N 0.63838 0.51978 0.41093 0.0
N392 N 0.63857 0.53098 0.38918 0.0
C393 C 0.58447 0.52663 0.38106 0.0
C394 C 0.54724 0.51485 0.39879 0.0
C395 C 0.56662 0.50788 0.44193 0.0
H396 H 0.59539 0.53572 0.4522 0.0
H397 H 0.57225 0.46309 0.44796 0.0
H398 H 0.52113 0.52137 0.44444 0.0
O399 O 0.72899 0.60523 0.43125 0.0
O400 O 0.73552 0.62634 0.39481 0.0
H401 H 0.56339 0.57814 0.35235 0.0
H402 H 0.5288 0.50864 0.3526 0.0
C403 C 0.56924 0.53209 0.35661 0.0
H404 H 0.60453 0.51435 0.34614 0.0
H405 H 0.6539 0.67529 0.3631 0.0
O406 O 0.70563 0.4964 0.45912 0.0
C407 C 0.74264 0.63919 0.41549 0.0
Co408 Co 0.97041 0.80064 0.09888 0.0
Co409 Co 0.93697 0.80735 0.15058 0.0
C410 C 0.00873 0.71392 0.13594 0.0
O411 O 0.00367 0.73359 0.11589 0.0
O412 O 0.98999 0.74188 0.15297 0.0
C413 C 0.04946 0.80542 0.05849 0.0
O414 O 0.09384 0.81863 0.0713 0.0
C415 C 0.91083 0.82287 0.19999 0.0
C416 C 0.8336 0.87825 0.19697 0.0
C417 C 0.86998 0.85289 0.21256 0.0
N418 N 0.89918 0.83075 0.17793 0.0
N419 N 0.85256 0.86331 0.17637 0.0
C420 C 0.9617 0.79015 0.2087 0.0
H421 H -0.0033 0.78957 0.19595 0.0
H422 H 0.97763 0.80924 0.22472 0.0
H423 H 0.94841 0.74515 0.21206 0.0
C424 C 0.98263 0.92654 0.10709 0.0
N425 N 0.97689 0.872 0.11436 0.0
N426 N 0.96968 0.87245 0.13633 0.0
C427 C 0.97462 0.92668 0.14402 0.0
C428 C 0.98182 0.96357 0.12578 0.0
C429 C 0.97952 0.94214 0.08262 0.0
H430 H 0.95212 0.91067 0.07344 0.0
H431 H 0.02341 0.93987 0.07522 0.0
H432 H 0.96171 0.98602 0.08025 0.0
O433 O 0.88955 0.78052 0.09558 0.0
O434 O 0.87367 0.77479 0.1324 0.0
H435 H 0.92988 0.95233 0.17396 0.0
H436 H 0.00201 0.98045 0.17171 0.0
C437 C 0.9745 0.94222 0.16854 0.0
H438 H 0.99069 0.90567 0.17876 0.0
H439 H 0.83434 0.87645 0.1611 0.0
O440 O -0.00025 0.79962 0.06726 0.0
C441 C 0.85809 0.76636 0.11209 0.0
Co442 Co 0.68908 0.98606 0.60335 0.0
Co443 Co 0.67703 0.93059 0.65235 0.0
C444 C 0.78901 0.97685 0.63701 0.0
O445 O 0.76579 0.9917 0.61838 0.0
O446 O 0.75951 0.95383 0.65275 0.0
C447 C 0.73751 0.02209 0.56224 0.0
O448 O 0.78181 -0.00409 0.57154 0.0
C449 C 0.66564 0.89701 0.70141 0.0
C450 C 0.60012 0.82866 0.69786 0.0
C451 C 0.63292 0.85755 0.71379 0.0
N452 N 0.65193 0.89158 0.67937 0.0
N453 N 0.61311 0.85023 0.6775 0.0
C454 C 0.7105 0.93774 0.71002 0.0
H455 H 0.74182 0.94821 0.69654 0.0
H456 H 0.68925 0.97827 0.71536 0.0
H457 H 0.73358 0.91909 0.72472 0.0
C458 C 0.57567 0.03236 0.61739 0.0
N459 N 0.62704 0.00867 0.62261 0.0
N460 N 0.6252 0.98996 0.64359 0.0
C461 C 0.57347 0.00328 0.65254 0.0
C462 C 0.53972 0.02936 0.63613 0.0
C463 C 0.55861 0.04888 0.59393 0.0
H464 H 0.59143 0.07844 0.58683 0.0
H465 H 0.51563 0.06998 0.5936 0.0
H466 H 0.5576 0.00983 0.58315 0.0
O467 O 0.6803 0.90512 0.59493 0.0
O468 O 0.67245 0.87006 0.62956 0.0
H469 H 0.53715 0.93667 0.6728 0.0
H470 H 0.5161 0.00761 0.68123 0.0
C471 C 0.55254 0.98149 0.67481 0.0
H472 H 0.58801 0.98283 0.68735 0.0
H473 H 0.59484 0.8371 0.66224 0.0
O474 O 0.69133 0.02728 0.57372 0.0
C475 C 0.67384 0.86318 0.60831 0.0
Co476 Co 0.51329 0.67842 0.10135 0.0
Co477 Co 0.5555 0.66921 0.15253 0.0
C478 C 0.50813 0.77808 0.135 0.0
O479 O 0.49985 0.75443 0.11582 0.0
O480 O 0.52783 0.74984 0.15181 0.0
C481 C 0.4379 0.70433 0.06172 0.0
O482 O 0.40003 0.72731 0.0755 0.0
C483 C 0.58449 0.66393 0.20217 0.0
C484 C 0.64593 0.59117 0.20147 0.0
C485 C 0.61997 0.63016 0.21582 0.0
N486 N 0.5894 0.64529 0.18072 0.0
N487 N 0.62673 0.60228 0.18052 0.0
C488 C 0.54483 0.71115 0.20937 0.0
H489 H 0.56703 0.75299 0.20709 0.0
H490 H 0.50558 0.71128 0.19859 0.0
H491 H 0.53276 0.70646 0.22738 0.0
C492 C 0.46917 0.56304 0.11354 0.0
N493 N 0.48862 0.61542 0.11957 0.0
N494 N 0.5013 0.6148 0.14128 0.0
C495 C 0.48764 0.56293 0.14983 0.0
C496 C 0.46885 0.52762 0.13248 0.0
C497 C 0.45885 0.54548 0.08959 0.0
H498 H 0.42802 0.57589 0.08166 0.0
H499 H 0.44148 0.50109 0.0885 0.0
H500 H 0.49997 0.54826 0.08009 0.0
O501 O 0.59683 0.67405 0.09687 0.0
O502 O 0.62248 0.66872 0.1328 0.0
H503 H 0.5438 0.52345 0.17393 0.0
H504 H 0.46866 0.51221 0.17924 0.0
C505 C 0.50075 0.54423 0.17343 0.0
H506 H 0.49969 0.58146 0.18508 0.0
H507 H 0.63862 0.57987 0.166 0.0
O508 O 0.48273 0.67999 0.06972 0.0
C509 C 0.63531 0.67038 0.11203 0.0
Co510 Co 0.78323 0.51948 0.60431 0.0
Co511 Co 0.77881 0.57356 0.6537 0.0
C512 C 0.68937 0.49143 0.639 0.0
O513 O 0.713 0.4881 0.61957 0.0
O514 O 0.71287 0.51955 0.65512 0.0
C515 C 0.7651 0.44551 0.56447 0.0
O516 O 0.73277 0.41275 0.57728 0.0
C517 C 0.79205 0.60069 0.70302 0.0
C518 C 0.81797 0.69196 0.70072 0.0
C519 C 0.80937 0.64783 0.71594 0.0
N520 N 0.79105 0.61651 0.68116 0.0
N521 N 0.80573 0.67137 0.68006 0.0
C522 C 0.78165 0.54057 0.71092 0.0
H523 H 0.73547 0.53587 0.71545 0.0
H524 H 0.79123 0.50951 0.69719 0.0
H525 H 0.80827 0.53085 0.72603 0.0
C526 C 0.90601 0.50352 0.61808 0.0
N527 N 0.85091 0.51773 0.62279 0.0
N528 N 0.84873 0.53959 0.6433 0.0
C529 C 0.90234 0.53971 0.65226 0.0
C530 C 0.94047 0.51716 0.63659 0.0
C531 C 0.92521 0.47952 0.59592 0.0
H532 H 0.92365 0.51402 0.58302 0.0
H533 H 0.8951 0.44508 0.59049 0.0
H534 H 0.96977 0.46217 0.59696 0.0
O535 O 0.76281 0.59921 0.59723 0.0
O536 O 0.75196 0.6314 0.63222 0.0
H537 H 0.90595 0.61322 0.67387 0.0
H538 H 0.96469 0.56406 0.67804 0.0
C539 C 0.91791 0.56714 0.67431 0.0
H540 H 0.89361 0.54604 0.68806 0.0
H541 H 0.8094 0.69436 0.66503 0.0
O542 O 0.79301 0.48695 0.57333 0.0
C543 C 0.74787 0.63802 0.61102 0.0
C544 C 0.97177 0.32897 0.99691 0.0
C545 C 0.95996 0.27828 0.98466 0.0
C546 C 0.97431 0.32911 0.02056 0.0
C547 C 0.9653 0.27848 0.03298 0.0
H548 H 0.98195 0.36855 0.98818 0.0
H549 H 0.98651 0.36857 0.02904 0.0
S550 S 0.92316 0.13642 1.00932 0.0
N551 N 0.93198 0.17772 0.98697 0.0
N552 N 0.9365 0.17785 0.03135 0.0
C553 C 0.94884 0.22854 0.02105 0.0
C554 C 0.94615 0.22846 0.99693 0.0
C555 C 0.19227 0.95158 0.50226 0.0
C556 C 0.24526 0.949 0.49062 0.0
C557 C 0.19 0.95133 0.52593 0.0
C558 C 0.2407 0.94892 0.53898 0.0
H559 H 0.15211 0.95641 0.49306 0.0
H560 H 0.14839 0.95649 0.53398 0.0
S561 S 0.38983 0.93223 0.51696 0.0
N562 N 0.34918 0.93683 0.49413 0.0
N563 N 0.34502 0.93657 0.53851 0.0
C564 C 0.29363 0.94189 0.5276 0.0
C565 C 0.2959 0.94181 0.50347 0.0
C566 C 0.53907 0.27999 0.02468 0.0
C567 C 0.54116 0.22748 0.03654 0.0
C568 C 0.54039 0.28167 1.00102 0.0
C569 C 0.54356 0.23084 0.98822 0.0
H570 H 0.53344 0.32017 0.03366 0.0
H571 H 0.53514 0.32285 0.99276 0.0
S572 S 0.56085 0.08306 1.01095 0.0
N573 N 0.55472 0.12402 0.03358 0.0
N574 N 0.55706 0.12713 0.98919 0.0
C575 C 0.55071 0.1785 0.99986 0.0
C576 C 0.5496 0.17681 0.02398 0.0
C577 C 0.29118 0.50586 0.50435 0.0
C578 C 0.23871 0.50788 0.49224 0.0
C579 C 0.29246 0.50871 0.52798 0.0
C580 C 0.24129 0.51353 0.54052 0.0
H581 H 0.3317 0.49961 0.49561 0.0
H582 H 0.33367 0.50398 0.53645 0.0
S583 S 0.0934 0.53023 0.517 0.0
N584 N 0.13488 0.52209 0.49461 0.0
N585 N 0.13721 0.52761 0.53898 0.0
C586 C 0.18892 0.51996 0.52861 0.0
C587 C 0.18763 0.51712 0.5045 0.0
C588 C 0.01571 0.75717 0.02322 0.0
C589 C 0.0567 0.79233 0.03408 0.0
C590 C 0.01922 0.74505 1.00014 0.0
C591 C 0.06337 0.76833 0.98668 0.0
H592 H 0.98008 0.73891 0.0326 0.0
H593 H 0.98557 0.71883 0.99268 0.0
S594 S 0.18373 0.86029 1.00701 0.0
N595 N 0.14494 0.84777 0.02983 0.0
N596 N 0.15088 0.82607 0.98619 0.0
C597 C 0.10571 0.80231 0.99738 0.0
C598 C 0.10259 0.81398 0.02111 0.0
C599 C 0.79432 0.03338 0.50238 0.0
C600 C 0.74376 0.03883 0.48939 0.0
C601 C 0.79208 0.03164 0.52603 0.0
C602 C 0.73927 0.03571 0.5377 0.0
H603 H 0.83568 0.02701 0.49426 0.0
H604 H 0.83199 0.02445 0.53515 0.0
S605 S 0.59554 0.06053 0.51163 0.0
N606 N 0.64009 0.05567 0.49002 0.0
N607 N 0.63595 0.05264 0.5344 0.0
C608 C 0.68896 0.04598 0.52497 0.0
C609 C 0.6912 0.0474 0.50085 0.0
C610 C 0.48585 0.73664 1.00191 0.0
C611 C 0.43378 0.74199 0.98982 0.0
C612 C 0.48634 0.72315 0.02492 0.0
C613 C 0.43477 0.71571 0.03707 0.0
H614 H 0.5269 0.74168 0.99342 0.0
H615 H 0.52773 0.71947 0.03335 0.0
S616 S 0.2866 0.72645 1.01355 0.0
N617 N 0.32905 0.73873 0.99171 0.0
N618 N 0.32992 0.71558 0.03533 0.0
C619 C 0.38223 0.72182 0.02533 0.0
C620 C 0.38175 0.73425 1.00164 0.0
C621 C 0.74872 0.49662 0.5041 0.0
C622 C 0.73551 0.44616 0.49204 0.0
C623 C 0.76054 0.49527 0.52727 0.0
C624 C 0.75834 0.44359 0.53956 0.0
H625 H 0.75065 0.53767 0.49553 0.0
H626 H 0.76987 0.53555 0.53573 0.0
S627 S 0.72613 0.29928 0.516 0.0
N628 N 0.72228 0.34267 0.49399 0.0
N629 N 0.74221 0.34044 0.53787 0.0
C630 C 0.74516 0.3927 0.52776 0.0
C631 C 0.73446 0.39389 0.50394 0.0
C632 C 0.9516 0.11931 0.14324 0.0
C633 C 0.98835 0.15061 0.1291 0.0
C634 C 0.94817 0.05902 0.14149 0.0
C635 C 0.9836 0.02775 0.12641 0.0
H636 H 0.92492 0.14149 0.15545 0.0
H637 H 0.91739 0.03696 0.15206 0.0
S638 S 0.08923 0.09044 0.08648 0.0
N639 N 0.05953 0.14644 0.09901 0.0
N640 N 0.05865 0.03363 0.09798 0.0
C641 C 0.02119 0.05894 0.11253 0.0
C642 C 0.02231 0.12015 0.11339 0.0
C643 C 0.38637 0.98264 0.62389 0.0
C644 C 0.35333 0.0175 0.6384 0.0
C645 C 0.44653 0.98796 0.62282 0.0
C646 C 0.47591 0.02873 0.63604 0.0
H647 H 0.36559 0.95111 0.61313 0.0
H648 H 0.47036 0.95947 0.61176 0.0
S649 S 0.41061 0.1319 0.67615 0.0
N650 N 0.35527 0.0952 0.66605 0.0
N651 N 0.46842 0.10508 0.66374 0.0
C652 C 0.44387 0.06395 0.65055 0.0
C653 C 0.38259 0.05831 0.65184 0.0
C654 C 0.43536 0.43216 0.14666 0.0
C655 C 0.47275 0.46414 0.13295 0.0
C656 C 0.44132 0.37236 0.14866 0.0
C657 C 0.48474 0.34244 0.13687 0.0
H658 H 0.40101 0.45352 0.15579 0.0
H659 H 0.4102 0.34923 0.1588 0.0
S660 S 0.59707 0.40763 0.10048 0.0
N661 N 0.55752 0.46262 0.10892 0.0
N662 N 0.56777 0.3501 0.11204 0.0
C663 C 0.52334 0.37436 0.12357 0.0
C664 C 0.51754 0.43521 0.12174 0.0
C665 C 0.0906 0.48038 0.65792 0.0
C666 C 0.12705 0.50861 0.64247 0.0
C667 C 0.03032 0.4836 0.65593 0.0
C668 C 0.0042 0.51525 0.63851 0.0
H669 H 0.10855 0.45299 0.67093 0.0
H670 H 0.00389 0.45993 0.66777 0.0
S671 S 0.07901 0.60315 0.59553 0.0
N672 N 0.1317 0.57379 0.61038 0.0
N673 N 0.01845 0.57981 0.60693 0.0
C674 C 0.03967 0.54609 0.62371 0.0
C675 C 0.10103 0.54297 0.62568 0.0
C676 C 0.98929 0.48464 0.89951 0.0
C677 C 0.03345 0.51402 0.88817 0.0
C678 C 0.98368 0.42483 0.89776 0.0
C679 C 0.02181 0.39205 0.88444 0.0
H680 H 0.95867 0.50816 0.90978 0.0
H681 H 0.94978 0.40405 0.9073 0.0
S682 S 0.14447 0.44986 0.85105 0.0
N683 N 0.11548 0.50709 0.86303 0.0
N684 N 0.10517 0.39464 0.85938 0.0
C685 C 0.06547 0.42151 0.87255 0.0
C686 C 0.07129 0.48246 0.87453 0.0
C687 C 0.04373 0.06004 0.37876 0.0
C688 C 0.00875 0.02538 0.39243 0.0
C689 C 0.10346 0.0507 0.37747 0.0
C690 C 0.13031 0.00657 0.38994 0.0
H691 H 0.02473 0.09459 0.36901 0.0
H692 H 0.12896 0.07956 0.36719 0.0
S693 S 0.05652 0.90064 0.42662 0.0
N694 N 0.00411 0.94242 0.41723 0.0
N695 N 0.11656 0.92607 0.41548 0.0
C696 C 0.09542 0.9709 0.40332 0.0
C697 C 0.03461 0.98001 0.4044 0.0
C698 C 0.51593 0.08528 0.90385 0.0
C699 C 0.47839 0.11523 0.88924 0.0
C700 C 0.51402 0.0253 0.90562 0.0
C701 C 0.47442 -0.00697 0.89294 0.0
H702 H 0.54652 0.10839 0.91431 0.0
H703 H 0.54408 0.00394 0.91686 0.0
S704 S 0.36641 0.04911 0.85244 0.0
N705 N 0.40017 0.10694 0.86181 0.0
N706 N 0.39693 -0.0059 0.8654 0.0
C707 C 0.43698 0.02182 0.87818 0.0
C708 C 0.43901 0.08291 0.87621 0.0
C709 C 0.45058 0.54912 0.38441 0.0
C710 C 0.48325 0.51041 0.39768 0.0
C711 C 0.39026 0.54383 0.38238 0.0
C712 C 0.36069 0.50105 0.39429 0.0
H713 H 0.47168 0.58386 0.37555 0.0
H714 H 0.36671 0.57375 0.37183 0.0
S715 S 0.42523 0.38931 0.43125 0.0
N716 N 0.48091 0.42635 0.42189 0.0
N717 N 0.36777 0.4201 0.42005 0.0
C718 C 0.39262 0.46308 0.40796 0.0
C719 C 0.4538 0.46694 0.40925 0.0
C720 C 0.9549 0.9202 0.87254 0.0
C721 C 0.98962 0.89023 0.88817 0.0
C722 C 0.95145 0.98049 0.87282 0.0
C723 C 0.98242 0.01291 0.88875 0.0
H724 H 0.92903 0.89697 0.86032 0.0
H725 H 0.92448 0.00195 0.86048 0.0
S726 S 0.08378 0.95677 0.93182 0.0
N727 N 0.05852 0.89881 0.91909 0.0
N728 N 0.05194 0.01179 0.91939 0.0
C729 C 0.01837 0.98398 0.90404 0.0
C730 C 0.02202 0.92275 0.90379 0.0
C731 C 0.60304 0.93472 0.37689 0.0
C732 C 0.63062 0.97837 0.38941 0.0
C733 C 0.54326 0.9258 0.37847 0.0
C734 C 0.50895 0.96038 0.3925 0.0
H735 H 0.62802 0.90593 0.36635 0.0
H736 H 0.52367 0.89168 0.36864 0.0
S737 S 0.55874 0.08387 0.42703 0.0
N738 N 0.61818 0.05843 0.41537 0.0
N739 N 0.50576 0.04261 0.41776 0.0
C740 C 0.53555 0.0052 0.40455 0.0
C741 C 0.59636 0.01399 0.40313 0.0
C742 C 0.53002 0.52596 0.8747 0.0
C743 C 0.50033 0.49401 0.89101 0.0
C744 C 0.52449 0.58587 0.87368 0.0
C745 C 0.48938 0.61598 0.88909 0.0
H746 H 0.55804 0.50446 0.86276 0.0
H747 H 0.55 0.60884 0.86134 0.0
S748 S 0.3982 0.55078 0.9336 0.0
N749 N 0.4309 0.49556 0.92164 0.0
N750 N 0.42169 0.60845 0.92025 0.0
C751 C 0.45808 0.58405 0.90505 0.0
C752 C 0.46336 0.52301 0.90592 0.0
C753 C 0.88708 0.44171 0.40573 0.0
C754 C 0.85894 0.47304 0.3886 0.0
C755 C 0.94749 0.43826 0.40668 0.0
C756 C 0.98192 0.4664 0.39066 0.0
H757 H 0.86232 0.4215 0.41902 0.0
H758 H 0.9674 0.41432 0.42029 0.0
S759 S 0.93069 0.55293 0.34217 0.0
N760 N 0.87109 0.53107 0.3547 0.0
N761 N 0.98436 0.52544 0.35699 0.0
C762 C 0.95468 0.49618 0.37305 0.0
C763 C 0.89325 0.49915 0.37185 0.0
C764 C 0.0536 0.62359 0.12117 0.0
C765 C 0.02256 0.65188 0.13833 0.0
C766 C 0.05522 0.56336 0.11983 0.0
C767 C 0.02538 0.52916 0.13546 0.0
H768 H 0.07499 0.64821 0.10813 0.0
H769 H 0.07907 0.54344 0.10621 0.0
S770 S 0.93838 0.58098 0.18376 0.0
N771 N 0.96267 0.64017 0.17175 0.0
N772 N 0.96479 0.52727 0.16876 0.0
C773 C -0.00428 0.55654 0.15307 0.0
C774 C 0.99467 0.61779 0.15467 0.0
C775 C 0.88189 0.93653 0.65194 0.0
C776 C 0.85296 0.9776 0.63858 0.0
C777 C 0.94216 0.9304 0.65103 0.0
C778 C 0.97555 0.96511 0.63677 0.0
H779 H 0.85773 0.90759 0.66266 0.0
H780 H 0.96281 0.89818 0.66148 0.0
S781 S 0.92218 0.08302 0.60024 0.0
N782 N 0.86332 0.05597 0.61174 0.0
N783 N 0.97642 0.04501 0.61046 0.0
C784 C 0.94761 0.00754 0.62393 0.0
C785 C 0.88639 0.01366 0.62474 0.0
C786 C 0.54391 0.87182 0.15022 0.0
C787 C 0.50507 0.84162 0.13624 0.0
C788 C 0.54898 0.93183 0.14895 0.0
C789 C 0.5151 0.96377 0.13382 0.0
H790 H 0.57221 0.84882 0.16165 0.0
H791 H 0.57978 0.95344 0.15981 0.0
S792 S 0.40294 0.90642 0.09519 0.0
N793 N 0.42995 0.8489 0.10765 0.0
N794 N 0.43832 0.96177 0.10586 0.0
C795 C 0.47479 0.93452 0.12031 0.0
C796 C 0.47 0.87345 0.1214 0.0
C797 C 0.53218 0.49814 0.6563 0.0
C798 C 0.50451 0.46628 0.6393 0.0
C799 C 0.59257 0.502 0.65724 0.0
C800 C 0.62764 0.47448 0.64107 0.0
H801 H 0.50684 0.52178 0.66854 0.0
H802 H 0.61155 0.52952 0.67001 0.0
S803 S 0.57561 0.379 0.59504 0.0
N804 N 0.51608 0.40158 0.6075 0.0
N805 N 0.62953 0.40927 0.60892 0.0
C806 C 0.60023 0.43974 0.62475 0.0
C807 C 0.53872 0.43572 0.6239 0.0
C808 C 0.20623 0.30492 0.2726 0.0
C809 C 0.17518 0.34578 0.2852 0.0
C810 C 0.19563 0.2968 0.24951 0.0
C811 C 0.15238 0.328 0.23818 0.0
H812 H 0.23933 0.27913 0.28065 0.0
H813 H 0.22138 0.2655 0.24045 0.0
S814 S 0.05803 0.43944 0.2635 0.0
N815 N 0.09861 0.41717 0.28472 0.0
N816 N 0.07889 0.40212 0.24123 0.0
C817 C 0.12067 0.36876 0.25057 0.0
C818 C 0.13203 0.37761 0.27409 0.0
C819 C 0.14182 0.1978 0.74888 0.0
C820 C 0.14797 0.1413 0.74057 0.0
C821 C 0.14204 0.2094 0.77215 0.0
C822 C 0.14867 0.16491 0.78792 0.0
H823 H 0.13698 0.23344 0.73729 0.0
H824 H 0.13778 0.25348 0.77781 0.0
S825 S 0.15961 0.00922 0.77532 0.0
N826 N 0.15515 0.04004 0.7503 0.0
N827 N 0.15829 0.06217 0.79389 0.0
C828 C 0.15421 0.10831 0.77993 0.0
C829 C 0.1531 0.09637 0.75629 0.0
C830 C 0.34824 0.16614 0.27528 0.0
C831 C 0.34591 0.11161 0.2856 0.0
C832 C 0.35388 0.17186 0.25179 0.0
C833 C 0.35735 0.12323 0.23781 0.0
H834 H 0.34555 0.20477 0.28545 0.0
H835 H 0.35462 0.21455 0.24452 0.0
S836 S 0.36009 0.97116 0.25643 0.0
N837 N 0.35311 0.00833 0.28001 0.0
N838 N 0.36135 0.01903 0.2359 0.0
C839 C 0.35584 0.06858 0.24788 0.0
C840 C 0.35079 0.06274 0.27178 0.0
C841 C 0.33273 0.37473 0.7804 0.0
C842 C 0.3293 0.32133 0.79135 0.0
C843 C 0.32494 0.37937 0.75698 0.0
C844 C 0.31142 0.33104 0.74361 0.0
H845 H 0.34251 0.41319 0.79 0.0
H846 H 0.33108 0.4211 0.74941 0.0
S847 S 0.29654 0.18113 0.76465 0.0
N848 N 0.31196 0.21909 0.78744 0.0
N849 N 0.29504 0.22747 0.74357 0.0
C850 C 0.30777 0.2772 0.75456 0.0
C851 C 0.31699 0.27246 0.77837 0.0
C852 C 0.88805 0.68154 0.77069 0.0
C853 C 0.84839 0.66513 0.78745 0.0
C854 C 0.87492 0.67561 0.74766 0.0
C855 C 0.82232 0.65157 0.74041 0.0
H856 H 0.93023 0.69768 0.77521 0.0
H857 H 0.90675 0.68902 0.73538 0.0
S858 S 0.70298 0.60244 0.77706 0.0
N859 N 0.75316 0.62482 0.79481 0.0
N860 N 0.72972 0.6126 0.75159 0.0
C861 C 0.78234 0.63474 0.75681 0.0
C862 C 0.79515 0.64161 0.78026 0.0
C863 C 0.86528 0.81223 0.25164 0.0
C864 C 0.86558 0.86021 0.2373 0.0
C865 C 0.85826 0.81879 0.27502 0.0
C866 C 0.85139 0.87351 0.28492 0.0
H867 H 0.86958 0.76934 0.24471 0.0
H868 H 0.85816 0.7806 0.28547 0.0
S869 S 0.8557 0.013 0.2547 0.0
N870 N 0.86141 0.96424 0.23456 0.0
N871 N 0.85083 0.97673 0.27854 0.0
C872 C 0.85301 0.92186 0.27074 0.0
C873 C 0.85937 0.91511 0.24692 0.0
C874 C 0.63311 0.88276 0.77749 0.0
C875 C 0.619 0.82833 0.78622 0.0
C876 C 0.63778 0.89212 0.75417 0.0
C877 C 0.62999 0.84703 0.73861 0.0
H878 H 0.6399 0.91874 0.78881 0.0
H879 H 0.64627 0.93536 0.74845 0.0
S880 S 0.59447 0.69562 0.75296 0.0
N881 N 0.59841 0.72845 0.77762 0.0
N882 N 0.60793 0.74537 0.73386 0.0
C883 C 0.616 0.79222 0.74722 0.0
C884 C 0.61054 0.78296 0.77097 0.0
C885 C 0.62507 0.58047 0.253 0.0
C886 C 0.62931 0.63171 0.24053 0.0
C887 C 0.63749 0.57913 0.27617 0.0
C888 C 0.65587 0.62877 0.28769 0.0
H889 H 0.61154 0.54108 0.24477 0.0
H890 H 0.63145 0.5391 0.28512 0.0
S891 S 0.67845 0.77287 0.26228 0.0
N892 N 0.65563 0.73266 0.24108 0.0
N893 N 0.67962 0.73035 0.28458 0.0
C894 C 0.6608 0.68025 0.27532 0.0
C895 C 0.64757 0.68166 0.25175 0.0
C896 C 0.28965 0.23249 0.08616 0.0
C897 C 0.30182 0.18359 0.09933 0.0
C898 C 0.23534 0.25916 0.08735 0.0
C899 C 0.19298 0.23771 0.10197 0.0
H900 H 0.32384 0.25379 0.07696 0.0
H901 H 0.22848 0.29937 0.07854 0.0
S902 S 0.20026 0.10343 0.13561 0.0
N903 N 0.26396 0.10832 0.12336 0.0
N904 N 0.16358 0.16007 0.12693 0.0
C905 C 0.20283 0.18525 0.11307 0.0
C906 C 0.25692 0.15744 0.11125 0.0
C907 C 0.24581 0.25592 0.59092 0.0
C908 C 0.21717 0.29668 0.60425 0.0
C909 C 0.22393 0.19995 0.58912 0.0
C910 C 0.17351 0.18424 0.60078 0.0
H911 H 0.28785 0.26548 0.5839 0.0
H912 H 0.25043 0.16743 0.58111 0.0
S913 S 0.07592 0.28048 0.63257 0.0
N914 N 0.13065 0.32175 0.62514 0.0
N915 N 0.08977 0.21638 0.62185 0.0
C916 C 0.14057 0.2271 0.61122 0.0
C917 C 0.16269 0.28362 0.61308 0.0
C918 C 0.20236 0.29308 0.93392 0.0
C919 C 0.18679 0.23497 0.93178 0.0
C920 C 0.26046 0.30894 0.9347 0.0
C921 C 0.30361 0.26682 0.93403 0.0
H922 H 0.17012 0.32651 0.93196 0.0
H923 H 0.27161 0.35402 0.93321 0.0
S924 S 0.28387 0.10905 0.93318 0.0
N925 N 0.21767 0.13543 0.93225 0.0
N926 N 0.32735 0.16517 0.93492 0.0
C927 C 0.28812 0.20864 0.93524 0.0
C928 C 0.22918 0.19257 0.93376 0.0
C929 C 0.24379 0.25283 0.43671 0.0
C930 C 0.26828 0.29154 0.42132 0.0
C931 C 0.26443 0.19623 0.43805 0.0
C932 C 0.3103 0.17803 0.42426 0.0
H933 H 0.2054 0.26455 0.44605 0.0
H934 H 0.2404 0.16532 0.44795 0.0
S935 S 0.39812 0.26781 0.38601 0.0
N936 N 0.34658 0.31091 0.39511 0.0
N937 N 0.38725 0.20585 0.39884 0.0
C938 C 0.34018 0.21889 0.41152 0.0
C939 C 0.31837 0.27547 0.4096 0.0
C940 C 0.76792 0.67967 0.91073 0.0
C941 C 0.80723 0.7141 0.92262 0.0
C942 C 0.70961 0.69366 0.9102 0.0
C943 C 0.68894 0.74238 0.9216 0.0
H944 H 0.78307 0.6447 0.90017 0.0
H945 H 0.68113 0.66852 0.89952 0.0
S946 S 0.77283 0.84065 0.95814 0.0
N947 N 0.82094 0.79437 0.94843 0.0
N948 N 0.70996 0.82052 0.94752 0.0
C949 C 0.72644 0.77346 0.93558 0.0
C950 C 0.78625 0.7592 0.9361 0.0
C951 C 0.74674 0.73256 0.43584 0.0
C952 C 0.77163 0.69311 0.42082 0.0
C953 C 0.76699 0.78924 0.43677 0.0
C954 C 0.81251 0.80699 0.42275 0.0
H955 H 0.70852 0.72108 0.44532 0.0
H956 H 0.74293 0.82044 0.44655 0.0
S957 S 0.90144 0.71487 0.38554 0.0
N958 N 0.85073 0.67174 0.39529 0.0
N959 N 0.88931 0.77812 0.39731 0.0
C960 C 0.84246 0.76563 0.41016 0.0
C961 C 0.8216 0.70852 0.40902 0.0
C962 C 0.7647 0.75071 0.09208 0.0
C963 C 0.80558 0.73312 0.10814 0.0
C964 C 0.71018 0.7247 0.09131 0.0
C965 C 0.69595 0.68049 0.1065 0.0
H966 H 0.77326 0.78732 0.08132 0.0
H967 H 0.67755 0.74293 0.08032 0.0
S968 S 0.79397 0.60974 0.14738 0.0
N969 N 0.83271 0.66218 0.13636 0.0
N970 N 0.73041 0.61315 0.13479 0.0
C971 C 0.73911 0.65818 0.1206 0.0
C972 C 0.79403 0.68477 0.12152 0.0
C973 C 0.64676 0.76189 0.6115 0.0
C974 C 0.67888 0.80406 0.60022 0.0
C975 C 0.66709 0.70572 0.61296 0.0
C976 C 0.71966 0.69015 0.60297 0.0
H977 H 0.60925 0.77381 0.62136 0.0
H978 H 0.64412 0.67554 0.62358 0.0
S979 S 0.81314 0.78156 0.56754 0.0
N980 N 0.7605 0.82466 0.57578 0.0
N981 N 0.79844 0.7178 0.57836 0.0
C982 C 0.74807 0.72964 0.58909 0.0
C983 C 0.72744 0.78721 0.58766 0.0
loop_
_geom_bond_atom_site_label_1
_geom_bond_atom_site_label_2
_geom_bond_distance
_geom_bond_site_symmetry_2
_ccdc_geom_bond_type
Co0 O3 1.970 . S
Co0 N17 1.989 . S
Co0 O25 1.967 . S
Co0 O32 1.920 . S
Co1 O4 1.966 . S
Co1 N10 2.022 . S
Co1 N18 1.993 . S
Co1 O26 1.941 . S
C2 O3 1.258 . S
C2 O4 1.263 . S
O3 Co0 1.970 . S
O3 C2 1.258 . S
O4 Co1 1.966 . S
O4 C2 1.263 . S
C5 O6 1.235 1_455 S
C5 O32 1.289 . S
O6 C5 1.235 1_655 S
C7 C9 1.400 . S
C7 N10 1.351 . S
C7 C12 1.501 . S
C8 C9 1.387 . S
C8 N11 1.341 . S
C9 C7 1.400 . S
C9 C8 1.387 . S
N10 Co1 2.022 . S
N10 C7 1.351 . S
N10 N11 1.365 . S
N11 C8 1.341 . S
N11 N10 1.365 . S
N11 H31 0.862 . S
C12 C7 1.501 . S
C12 H13 0.961 . S
C12 H14 0.961 1_455 S
C12 H15 0.960 . S
H13 C12 0.961 . S
H14 C12 0.961 1_655 S
H15 C12 0.960 . S
C16 N17 1.342 . S
C16 C20 1.401 . S
C16 C21 1.499 . S
N17 Co0 1.989 . S
N17 C16 1.342 . S
N17 N18 1.388 . S
N18 Co1 1.993 . S
N18 N17 1.388 . S
N18 C19 1.346 . S
C19 N18 1.346 . S
C19 C20 1.396 . S
C19 C29 1.510 . S
C20 C16 1.401 . S
C20 C19 1.396 . S
C21 C16 1.499 . S
C21 H22 0.959 . S
C21 H23 0.960 1_455 S
C21 H24 0.961 . S
H22 C21 0.959 . S
H23 C21 0.960 1_655 S
H24 C21 0.961 . S
O25 Co0 1.967 . S
O25 C33 1.258 . S
O26 Co1 1.941 . S
O26 C33 1.266 . S
H27 C29 0.959 . S
H28 C29 0.961 1_655 S
C29 C19 1.510 . S
C29 H27 0.959 . S
C29 H28 0.961 1_455 S
C29 H30 0.960 . S
H30 C29 0.960 . S
H31 N11 0.862 . S
O32 Co0 1.920 . S
O32 C5 1.289 . S
C33 O25 1.258 . S
C33 O26 1.266 . S
Co34 O37 1.970 . S
Co34 N51 1.989 . S
Co34 O59 1.967 . S
Co34 O66 1.920 . S
Co35 O38 1.966 . S
Co35 N44 2.022 . S
Co35 N52 1.993 . S
Co35 O60 1.941 . S
C36 O37 1.258 . S
C36 O38 1.263 . S
O37 Co34 1.970 . S
O37 C36 1.258 . S
O38 Co35 1.966 . S
O38 C36 1.263 . S
C39 O40 1.235 1_545 S
C39 O66 1.289 . S
O40 C39 1.235 1_565 S
C41 C43 1.400 . S
C41 N44 1.351 . S
C41 C46 1.501 . S
C42 C43 1.387 . S
C42 N45 1.341 . S
C43 C41 1.400 . S
C43 C42 1.387 . S
N44 Co35 2.022 . S
N44 C41 1.351 . S
N44 N45 1.365 . S
N45 C42 1.341 . S
N45 N44 1.365 . S
N45 H65 0.862 . S
C46 C41 1.501 . S
C46 H47 0.961 . S
C46 H48 0.961 1_545 S
C46 H49 0.960 . S
H47 C46 0.961 . S
H48 C46 0.961 1_565 S
H49 C46 0.960 . S
C50 N51 1.342 . S
C50 C54 1.401 . S
C50 C55 1.499 . S
N51 Co34 1.989 . S
N51 C50 1.342 . S
N51 N52 1.388 . S
N52 Co35 1.993 . S
N52 N51 1.388 . S
N52 C53 1.346 . S
C53 N52 1.346 . S
C53 C54 1.396 . S
C53 C63 1.510 . S
C54 C50 1.401 . S
C54 C53 1.396 . S
C55 C50 1.499 . S
C55 H56 0.959 . S
C55 H57 0.960 1_545 S
C55 H58 0.961 . S
H56 C55 0.959 . S
H57 C55 0.960 1_565 S
H58 C55 0.961 . S
O59 Co34 1.967 . S
O59 C67 1.258 . S
O60 Co35 1.941 . S
O60 C67 1.266 . S
H61 C63 0.959 . S
H62 C63 0.961 1_565 S
C63 C53 1.510 . S
C63 H61 0.959 . S
C63 H62 0.961 1_545 S
C63 H64 0.960 . S
H64 C63 0.960 . S
H65 N45 0.862 . S
O66 Co34 1.920 . S
O66 C39 1.289 . S
C67 O59 1.258 . S
C67 O60 1.266 . S
Co68 O71 1.970 . S
Co68 N85 1.989 . S
Co68 O93 1.967 . S
Co68 O100 1.920 . S
Co69 O72 1.966 . S
Co69 N78 2.022 . S
Co69 N86 1.993 . S
Co69 O94 1.941 . S
C70 O71 1.258 . S
C70 O72 1.263 . S
O71 Co68 1.970 . S
O71 C70 1.258 . S
O72 Co69 1.966 . S
O72 C70 1.263 . S
C73 O74 1.235 . S
C73 O100 1.289 . S
O74 C73 1.235 . S
C75 C77 1.400 . S
C75 N78 1.351 . S
C75 C80 1.501 . S
C76 C77 1.387 . S
C76 N79 1.341 . S
C77 C75 1.400 . S
C77 C76 1.387 . S
N78 Co69 2.022 . S
N78 C75 1.351 . S
N78 N79 1.365 . S
N79 C76 1.341 . S
N79 N78 1.365 . S
N79 H99 0.862 . S
C80 C75 1.501 . S
C80 H81 0.961 . S
C80 H82 0.961 . S
C80 H83 0.960 . S
H81 C80 0.961 . S
H82 C80 0.961 . S
H83 C80 0.960 . S
C84 N85 1.342 . S
C84 C88 1.401 . S
C84 C89 1.499 . S
N85 Co68 1.989 . S
N85 C84 1.342 . S
N85 N86 1.388 . S
N86 Co69 1.993 . S
N86 N85 1.388 . S
N86 C87 1.346 . S
C87 N86 1.346 . S
C87 C88 1.396 . S
C87 C97 1.510 . S
C88 C84 1.401 . S
C88 C87 1.396 . S
C89 C84 1.499 . S
C89 H90 0.959 . S
C89 H91 0.960 . S
C89 H92 0.961 . S
H90 C89 0.959 . S
H91 C89 0.960 . S
H92 C89 0.961 . S
O93 Co68 1.967 . S
O93 C101 1.258 . S
O94 Co69 1.941 . S
O94 C101 1.266 . S
H95 C97 0.959 . S
H96 C97 0.961 . S
C97 C87 1.510 . S
C97 H95 0.959 . S
C97 H96 0.961 . S
C97 H98 0.960 . S
H98 C97 0.960 . S
H99 N79 0.862 . S
O100 Co68 1.920 . S
O100 C73 1.289 . S
C101 O93 1.258 . S
C101 O94 1.266 . S
Co102 O105 1.970 . S
Co102 N119 1.989 . S
Co102 O127 1.967 . S
Co102 O134 1.920 . S
Co103 O106 1.966 . S
Co103 N112 2.022 . S
Co103 N120 1.993 . S
Co103 O128 1.941 . S
C104 O105 1.258 . S
C104 O106 1.263 . S
O105 Co102 1.970 . S
O105 C104 1.258 . S
O106 Co103 1.966 . S
O106 C104 1.263 . S
C107 O108 1.235 . S
C107 O134 1.289 . S
O108 C107 1.235 . S
C109 C111 1.400 . S
C109 N112 1.351 . S
C109 C114 1.501 . S
C110 C111 1.387 . S
C110 N113 1.341 . S
C111 C109 1.400 . S
C111 C110 1.387 . S
N112 Co103 2.022 . S
N112 C109 1.351 . S
N112 N113 1.365 . S
N113 C110 1.341 . S
N113 N112 1.365 . S
N113 H133 0.862 . S
C114 C109 1.501 . S
C114 H115 0.961 . S
C114 H116 0.961 . S
C114 H117 0.960 . S
H115 C114 0.961 . S
H116 C114 0.961 . S
H117 C114 0.960 . S
C118 N119 1.342 . S
C118 C122 1.401 . S
C118 C123 1.499 . S
N119 Co102 1.989 . S
N119 C118 1.342 . S
N119 N120 1.388 . S
N120 Co103 1.993 . S
N120 N119 1.388 . S
N120 C121 1.346 . S
C121 N120 1.346 . S
C121 C122 1.396 . S
C121 C131 1.510 . S
C122 C118 1.401 . S
C122 C121 1.396 . S
C123 C118 1.499 . S
C123 H124 0.959 . S
C123 H125 0.960 . S
C123 H126 0.961 . S
H124 C123 0.959 . S
H125 C123 0.960 . S
H126 C123 0.961 . S
O127 Co102 1.967 . S
O127 C135 1.258 . S
O128 Co103 1.941 . S
O128 C135 1.266 . S
H129 C131 0.959 . S
H130 C131 0.961 . S
C131 C121 1.510 . S
C131 H129 0.959 . S
C131 H130 0.961 . S
C131 H132 0.960 . S
H132 C131 0.960 . S
H133 N113 0.862 . S
O134 Co102 1.920 . S
O134 C107 1.289 . S
C135 O127 1.258 . S
C135 O128 1.266 . S
Co136 O139 1.970 . S
Co136 N153 1.989 . S
Co136 O161 1.967 . S
Co136 O168 1.920 . S
Co137 O140 1.966 . S
Co137 N146 2.022 . S
Co137 N154 1.993 . S
Co137 O162 1.941 . S
C138 O139 1.258 . S
C138 O140 1.263 . S
O139 Co136 1.970 . S
O139 C138 1.258 . S
O140 Co137 1.966 . S
O140 C138 1.263 . S
C141 O142 1.235 1_455 S
C141 O168 1.289 . S
O142 C141 1.235 1_655 S
C143 C145 1.400 . S
C143 N146 1.351 . S
C143 C148 1.501 . S
C144 C145 1.387 . S
C144 N147 1.341 . S
C145 C143 1.400 . S
C145 C144 1.387 . S
N146 Co137 2.022 . S
N146 C143 1.351 . S
N146 N147 1.365 . S
N147 C144 1.341 . S
N147 N146 1.365 . S
N147 H167 0.862 . S
C148 C143 1.501 . S
C148 H149 0.961 . S
C148 H150 0.961 1_455 S
C148 H151 0.960 . S
H149 C148 0.961 . S
H150 C148 0.961 1_655 S
H151 C148 0.960 . S
C152 N153 1.342 . S
C152 C156 1.401 . S
C152 C157 1.499 . S
N153 Co136 1.989 . S
N153 C152 1.342 . S
N153 N154 1.388 . S
N154 Co137 1.993 . S
N154 N153 1.388 . S
N154 C155 1.346 . S
C155 N154 1.346 . S
C155 C156 1.396 . S
C155 C165 1.510 . S
C156 C152 1.401 . S
C156 C155 1.396 . S
C157 C152 1.499 . S
C157 H158 0.959 . S
C157 H159 0.960 1_455 S
C157 H160 0.961 . S
H158 C157 0.959 . S
H159 C157 0.960 1_655 S
H160 C157 0.961 . S
O161 Co136 1.967 . S
O161 C169 1.258 . S
O162 Co137 1.941 . S
O162 C169 1.266 . S
H163 C165 0.959 . S
H164 C165 0.961 1_655 S
C165 C155 1.510 . S
C165 H163 0.959 . S
C165 H164 0.961 1_455 S
C165 H166 0.960 . S
H166 C165 0.960 . S
H167 N147 0.862 . S
O168 Co136 1.920 . S
O168 C141 1.289 . S
C169 O161 1.258 . S
C169 O162 1.266 . S
Co170 O173 1.970 . S
Co170 N187 1.989 . S
Co170 O195 1.967 . S
Co170 O202 1.920 . S
Co171 O174 1.966 . S
Co171 N180 2.022 . S
Co171 N188 1.993 . S
Co171 O196 1.941 . S
C172 O173 1.258 . S
C172 O174 1.263 . S
O173 Co170 1.970 . S
O173 C172 1.258 . S
O174 Co171 1.966 . S
O174 C172 1.263 . S
C175 O176 1.235 1_545 S
C175 O202 1.289 . S
O176 C175 1.235 1_565 S
C177 C179 1.400 . S
C177 N180 1.351 . S
C177 C182 1.501 . S
C178 C179 1.387 . S
C178 N181 1.341 . S
C179 C177 1.400 . S
C179 C178 1.387 . S
N180 Co171 2.022 . S
N180 C177 1.351 . S
N180 N181 1.365 . S
N181 C178 1.341 . S
N181 N180 1.365 . S
N181 H201 0.862 . S
C182 C177 1.501 . S
C182 H183 0.961 . S
C182 H184 0.961 1_545 S
C182 H185 0.960 . S
H183 C182 0.961 . S
H184 C182 0.961 1_565 S
H185 C182 0.960 . S
C186 N187 1.342 . S
C186 C190 1.401 . S
C186 C191 1.499 . S
N187 Co170 1.989 . S
N187 C186 1.342 . S
N187 N188 1.388 . S
N188 Co171 1.993 . S
N188 N187 1.388 . S
N188 C189 1.346 . S
C189 N188 1.346 . S
C189 C190 1.396 . S
C189 C199 1.510 . S
C190 C186 1.401 . S
C190 C189 1.396 . S
C191 C186 1.499 . S
C191 H192 0.959 . S
C191 H193 0.960 1_545 S
C191 H194 0.961 . S
H192 C191 0.959 . S
H193 C191 0.960 1_565 S
H194 C191 0.961 . S
O195 Co170 1.967 . S
O195 C203 1.258 . S
O196 Co171 1.941 . S
O196 C203 1.266 . S
H197 C199 0.959 . S
H198 C199 0.961 1_565 S
C199 C189 1.510 . S
C199 H197 0.959 . S
C199 H198 0.961 1_545 S
C199 H200 0.960 . S
H200 C199 0.960 . S
H201 N181 0.862 . S
O202 Co170 1.920 . S
O202 C175 1.289 . S
C203 O195 1.258 . S
C203 O196 1.266 . S
Co204 O207 1.970 . S
Co204 N221 1.989 . S
Co204 O229 1.967 . S
Co204 O236 1.920 . S
Co205 O208 1.966 . S
Co205 N214 2.022 . S
Co205 N222 1.993 . S
Co205 O230 1.941 . S
C206 O207 1.258 . S
C206 O208 1.263 . S
O207 Co204 1.970 . S
O207 C206 1.258 . S
O208 Co205 1.966 . S
O208 C206 1.263 . S
C209 O210 1.235 . S
C209 O236 1.289 . S
O210 C209 1.235 . S
C211 C213 1.400 . S
C211 N214 1.351 . S
C211 C216 1.501 . S
C212 C213 1.387 . S
C212 N215 1.341 . S
C213 C211 1.400 . S
C213 C212 1.387 . S
N214 Co205 2.022 . S
N214 C211 1.351 . S
N214 N215 1.365 . S
N215 C212 1.341 . S
N215 N214 1.365 . S
N215 H235 0.862 . S
C216 C211 1.501 . S
C216 H217 0.961 . S
C216 H218 0.961 . S
C216 H219 0.960 . S
H217 C216 0.961 . S
H218 C216 0.961 . S
H219 C216 0.960 . S
C220 N221 1.342 . S
C220 C224 1.401 . S
C220 C225 1.499 . S
N221 Co204 1.989 . S
N221 C220 1.342 . S
N221 N222 1.388 . S
N222 Co205 1.993 . S
N222 N221 1.388 . S
N222 C223 1.346 . S
C223 N222 1.346 . S
C223 C224 1.396 . S
C223 C233 1.510 . S
C224 C220 1.401 . S
C224 C223 1.396 . S
C225 C220 1.499 . S
C225 H226 0.959 . S
C225 H227 0.960 . S
C225 H228 0.961 . S
H226 C225 0.959 . S
H227 C225 0.960 . S
H228 C225 0.961 . S
O229 Co204 1.967 . S
O229 C237 1.258 . S
O230 Co205 1.941 . S
O230 C237 1.266 . S
H231 C233 0.959 . S
H232 C233 0.961 . S
C233 C223 1.510 . S
C233 H231 0.959 . S
C233 H232 0.961 . S
C233 H234 0.960 . S
H234 C233 0.960 . S
H235 N215 0.862 . S
O236 Co204 1.920 . S
O236 C209 1.289 . S
C237 O229 1.258 . S
C237 O230 1.266 . S
Co238 O241 1.970 . S
Co238 N255 1.989 . S
Co238 O263 1.967 . S
Co238 O270 1.920 . S
Co239 O242 1.966 . S
Co239 N248 2.022 . S
Co239 N256 1.993 . S
Co239 O264 1.941 . S
C240 O241 1.258 . S
C240 O242 1.263 . S
O241 Co238 1.970 . S
O241 C240 1.258 . S
O242 Co239 1.966 . S
O242 C240 1.263 . S
C243 O244 1.235 . S
C243 O270 1.289 . S
O244 C243 1.235 . S
C245 C247 1.400 . S
C245 N248 1.351 . S
C245 C250 1.501 . S
C246 C247 1.387 . S
C246 N249 1.341 . S
C247 C245 1.400 . S
C247 C246 1.387 . S
N248 Co239 2.022 . S
N248 C245 1.351 . S
N248 N249 1.365 . S
N249 C246 1.341 . S
N249 N248 1.365 . S
N249 H269 0.862 . S
C250 C245 1.501 . S
C250 H251 0.961 . S
C250 H252 0.961 . S
C250 H253 0.960 . S
H251 C250 0.961 . S
H252 C250 0.961 . S
H253 C250 0.960 . S
C254 N255 1.342 . S
C254 C258 1.401 . S
C254 C259 1.499 . S
N255 Co238 1.989 . S
N255 C254 1.342 . S
N255 N256 1.388 . S
N256 Co239 1.993 . S
N256 N255 1.388 . S
N256 C257 1.346 . S
C257 N256 1.346 . S
C257 C258 1.396 . S
C257 C267 1.510 . S
C258 C254 1.401 . S
C258 C257 1.396 . S
C259 C254 1.499 . S
C259 H260 0.959 . S
C259 H261 0.960 . S
C259 H262 0.961 . S
H260 C259 0.959 . S
H261 C259 0.960 . S
H262 C259 0.961 . S
O263 Co238 1.967 . S
O263 C271 1.258 . S
O264 Co239 1.941 . S
O264 C271 1.266 . S
H265 C267 0.959 . S
H266 C267 0.961 . S
C267 C257 1.510 . S
C267 H265 0.959 . S
C267 H266 0.961 . S
C267 H268 0.960 . S
H268 C267 0.960 . S
H269 N249 0.862 . S
O270 Co238 1.920 . S
O270 C243 1.289 . S
C271 O263 1.258 . S
C271 O264 1.266 . S
Co272 O275 1.970 . S
Co272 N289 1.989 . S
Co272 O297 1.967 . S
Co272 O304 1.920 . S
Co273 O276 1.966 . S
Co273 N282 2.022 . S
Co273 N290 1.993 . S
Co273 O298 1.941 . S
C274 O275 1.258 . S
C274 O276 1.263 . S
O275 Co272 1.970 . S
O275 C274 1.258 . S
O276 Co273 1.966 . S
O276 C274 1.263 . S
C277 O278 1.235 1_655 S
C277 O304 1.289 . S
O278 C277 1.235 1_455 S
C279 C281 1.400 . S
C279 N282 1.351 . S
C279 C284 1.501 . S
C280 C281 1.387 . S
C280 N283 1.341 . S
C281 C279 1.400 . S
C281 C280 1.387 . S
N282 Co273 2.022 . S
N282 C279 1.351 . S
N282 N283 1.365 . S
N283 C280 1.341 . S
N283 N282 1.365 . S
N283 H303 0.862 . S
C284 C279 1.501 . S
C284 H285 0.961 . S
C284 H286 0.961 1_655 S
C284 H287 0.960 . S
H285 C284 0.961 . S
H286 C284 0.961 1_455 S
H287 C284 0.960 . S
C288 N289 1.342 . S
C288 C292 1.401 . S
C288 C293 1.499 . S
N289 Co272 1.989 . S
N289 C288 1.342 . S
N289 N290 1.388 . S
N290 Co273 1.993 . S
N290 N289 1.388 . S
N290 C291 1.346 . S
C291 N290 1.346 . S
C291 C292 1.396 . S
C291 C301 1.510 . S
C292 C288 1.401 . S
C292 C291 1.396 . S
C293 C288 1.499 . S
C293 H294 0.959 . S
C293 H295 0.960 1_655 S
C293 H296 0.961 . S
H294 C293 0.959 . S
H295 C293 0.960 1_455 S
H296 C293 0.961 . S
O297 Co272 1.967 . S
O297 C305 1.258 . S
O298 Co273 1.941 . S
O298 C305 1.266 . S
H299 C301 0.959 . S
H300 C301 0.961 1_455 S
C301 C291 1.510 . S
C301 H299 0.959 . S
C301 H300 0.961 1_655 S
C301 H302 0.960 . S
H302 C301 0.960 . S
H303 N283 0.862 . S
O304 Co272 1.920 . S
O304 C277 1.289 . S
C305 O297 1.258 . S
C305 O298 1.266 . S
Co306 O309 1.970 . S
Co306 N323 1.989 . S
Co306 O331 1.967 . S
Co306 O338 1.920 . S
Co307 O310 1.966 . S
Co307 N316 2.022 . S
Co307 N324 1.993 . S
Co307 O332 1.941 . S
C308 O309 1.258 . S
C308 O310 1.263 . S
O309 Co306 1.970 . S
O309 C308 1.258 . S
O310 Co307 1.966 . S
O310 C308 1.263 . S
C311 O312 1.235 1_565 S
C311 O338 1.289 . S
O312 C311 1.235 1_545 S
C313 C315 1.400 . S
C313 N316 1.351 . S
C313 C318 1.501 . S
C314 C315 1.387 . S
C314 N317 1.341 . S
C315 C313 1.400 . S
C315 C314 1.387 . S
N316 Co307 2.022 . S
N316 C313 1.351 . S
N316 N317 1.365 . S
N317 C314 1.341 . S
N317 N316 1.365 . S
N317 H337 0.862 . S
C318 C313 1.501 . S
C318 H319 0.961 . S
C318 H320 0.961 1_565 S
C318 H321 0.960 . S
H319 C318 0.961 . S
H320 C318 0.961 1_545 S
H321 C318 0.960 . S
C322 N323 1.342 . S
C322 C326 1.401 . S
C322 C327 1.499 . S
N323 Co306 1.989 . S
N323 C322 1.342 . S
N323 N324 1.388 . S
N324 Co307 1.993 . S
N324 N323 1.388 . S
N324 C325 1.346 . S
C325 N324 1.346 . S
C325 C326 1.396 . S
C325 C335 1.510 . S
C326 C322 1.401 . S
C326 C325 1.396 . S
C327 C322 1.499 . S
C327 H328 0.959 . S
C327 H329 0.960 1_565 S
C327 H330 0.961 . S
H328 C327 0.959 . S
H329 C327 0.960 1_545 S
H330 C327 0.961 . S
O331 Co306 1.967 . S
O331 C339 1.258 . S
O332 Co307 1.941 . S
O332 C339 1.266 . S
H333 C335 0.959 . S
H334 C335 0.961 1_545 S
C335 C325 1.510 . S
C335 H333 0.959 . S
C335 H334 0.961 1_565 S
C335 H336 0.960 . S
H336 C335 0.960 . S
H337 N317 0.862 . S
O338 Co306 1.920 . S
O338 C311 1.289 . S
C339 O331 1.258 . S
C339 O332 1.266 . S
Co340 O343 1.970 . S
Co340 N357 1.989 . S
Co340 O365 1.967 . S
Co340 O372 1.920 . S
Co341 O344 1.966 . S
Co341 N350 2.022 . S
Co341 N358 1.993 . S
Co341 O366 1.941 . S
C342 O343 1.258 . S
C342 O344 1.263 . S
O343 Co340 1.970 . S
O343 C342 1.258 . S
O344 Co341 1.966 . S
O344 C342 1.263 . S
C345 O346 1.235 . S
C345 O372 1.289 . S
O346 C345 1.235 . S
C347 C349 1.400 . S
C347 N350 1.351 . S
C347 C352 1.501 . S
C348 C349 1.387 . S
C348 N351 1.341 . S
C349 C347 1.400 . S
C349 C348 1.387 . S
N350 Co341 2.022 . S
N350 C347 1.351 . S
N350 N351 1.365 . S
N351 C348 1.341 . S
N351 N350 1.365 . S
N351 H371 0.862 . S
C352 C347 1.501 . S
C352 H353 0.961 . S
C352 H354 0.961 . S
C352 H355 0.960 . S
H353 C352 0.961 . S
H354 C352 0.961 . S
H355 C352 0.960 . S
C356 N357 1.342 . S
C356 C360 1.401 . S
C356 C361 1.499 . S
N357 Co340 1.989 . S
N357 C356 1.342 . S
N357 N358 1.388 . S
N358 Co341 1.993 . S
N358 N357 1.388 . S
N358 C359 1.346 . S
C359 N358 1.346 . S
C359 C360 1.396 . S
C359 C369 1.510 . S
C360 C356 1.401 . S
C360 C359 1.396 . S
C361 C356 1.499 . S
C361 H362 0.959 . S
C361 H363 0.960 . S
C361 H364 0.961 . S
H362 C361 0.959 . S
H363 C361 0.960 . S
H364 C361 0.961 . S
O365 Co340 1.967 . S
O365 C373 1.258 . S
O366 Co341 1.941 . S
O366 C373 1.266 . S
H367 C369 0.959 . S
H368 C369 0.961 . S
C369 C359 1.510 . S
C369 H367 0.959 . S
C369 H368 0.961 . S
C369 H370 0.960 . S
H370 C369 0.960 . S
H371 N351 0.862 . S
O372 Co340 1.920 . S
O372 C345 1.289 . S
C373 O365 1.258 . S
C373 O366 1.266 . S
Co374 O377 1.970 . S
Co374 N391 1.989 . S
Co374 O399 1.967 . S
Co374 O406 1.920 . S
Co375 O378 1.966 . S
Co375 N384 2.022 . S
Co375 N392 1.993 . S
Co375 O400 1.941 . S
C376 O377 1.258 . S
C376 O378 1.263 . S
O377 Co374 1.970 . S
O377 C376 1.258 . S
O378 Co375 1.966 . S
O378 C376 1.263 . S
C379 O380 1.235 . S
C379 O406 1.289 . S
O380 C379 1.235 . S
C381 C383 1.400 . S
C381 N384 1.351 . S
C381 C386 1.501 . S
C382 C383 1.387 . S
C382 N385 1.341 . S
C383 C381 1.400 . S
C383 C382 1.387 . S
N384 Co375 2.022 . S
N384 C381 1.351 . S
N384 N385 1.365 . S
N385 C382 1.341 . S
N385 N384 1.365 . S
N385 H405 0.862 . S
C386 C381 1.501 . S
C386 H387 0.961 . S
C386 H388 0.961 . S
C386 H389 0.960 . S
H387 C386 0.961 . S
H388 C386 0.961 . S
H389 C386 0.960 . S
C390 N391 1.342 . S
C390 C394 1.401 . S
C390 C395 1.499 . S
N391 Co374 1.989 . S
N391 C390 1.342 . S
N391 N392 1.388 . S
N392 Co375 1.993 . S
N392 N391 1.388 . S
N392 C393 1.346 . S
C393 N392 1.346 . S
C393 C394 1.396 . S
C393 C403 1.510 . S
C394 C390 1.401 . S
C394 C393 1.396 . S
C395 C390 1.499 . S
C395 H396 0.959 . S
C395 H397 0.960 . S
C395 H398 0.961 . S
H396 C395 0.959 . S
H397 C395 0.960 . S
H398 C395 0.961 . S
O399 Co374 1.967 . S
O399 C407 1.258 . S
O400 Co375 1.941 . S
O400 C407 1.266 . S
H401 C403 0.959 . S
H402 C403 0.961 . S
C403 C393 1.510 . S
C403 H401 0.959 . S
C403 H402 0.961 . S
C403 H404 0.960 . S
H404 C403 0.960 . S
H405 N385 0.862 . S
O406 Co374 1.920 . S
O406 C379 1.289 . S
C407 O399 1.258 . S
C407 O400 1.266 . S
Co408 O411 1.970 . S
Co408 N425 1.989 . S
Co408 O433 1.967 . S
Co408 O440 1.920 . S
Co409 O412 1.966 . S
Co409 N418 2.022 . S
Co409 N426 1.993 . S
Co409 O434 1.941 . S
C410 O411 1.258 . S
C410 O412 1.263 . S
O411 Co408 1.970 . S
O411 C410 1.258 . S
O412 Co409 1.966 . S
O412 C410 1.263 . S
C413 O414 1.235 1_655 S
C413 O440 1.289 . S
O414 C413 1.235 1_455 S
C415 C417 1.400 . S
C415 N418 1.351 . S
C415 C420 1.501 . S
C416 C417 1.387 . S
C416 N419 1.341 . S
C417 C415 1.400 . S
C417 C416 1.387 . S
N418 Co409 2.022 . S
N418 C415 1.351 . S
N418 N419 1.365 . S
N419 C416 1.341 . S
N419 N418 1.365 . S
N419 H439 0.862 . S
C420 C415 1.501 . S
C420 H421 0.961 . S
C420 H422 0.961 1_655 S
C420 H423 0.960 . S
H421 C420 0.961 . S
H422 C420 0.961 1_455 S
H423 C420 0.960 . S
C424 N425 1.342 . S
C424 C428 1.401 . S
C424 C429 1.499 . S
N425 Co408 1.989 . S
N425 C424 1.342 . S
N425 N426 1.388 . S
N426 Co409 1.993 . S
N426 N425 1.388 . S
N426 C427 1.346 . S
C427 N426 1.346 . S
C427 C428 1.396 . S
C427 C437 1.510 . S
C428 C424 1.401 . S
C428 C427 1.396 . S
C429 C424 1.499 . S
C429 H430 0.959 . S
C429 H431 0.960 1_655 S
C429 H432 0.961 . S
H430 C429 0.959 . S
H431 C429 0.960 1_455 S
H432 C429 0.961 . S
O433 Co408 1.967 . S
O433 C441 1.258 . S
O434 Co409 1.941 . S
O434 C441 1.266 . S
H435 C437 0.959 . S
H436 C437 0.961 1_455 S
C437 C427 1.510 . S
C437 H435 0.959 . S
C437 H436 0.961 1_655 S
C437 H438 0.960 . S
H438 C437 0.960 . S
H439 N419 0.862 . S
O440 Co408 1.920 . S
O440 C413 1.289 . S
C441 O433 1.258 . S
C441 O434 1.266 . S
Co442 O445 1.970 . S
Co442 N459 1.989 . S
Co442 O467 1.967 . S
Co442 O474 1.920 . S
Co443 O446 1.966 . S
Co443 N452 2.022 . S
Co443 N460 1.993 . S
Co443 O468 1.941 . S
C444 O445 1.258 . S
C444 O446 1.263 . S
O445 Co442 1.970 . S
O445 C444 1.258 . S
O446 Co443 1.966 . S
O446 C444 1.263 . S
C447 O448 1.235 1_565 S
C447 O474 1.289 . S
O448 C447 1.235 1_545 S
C449 C451 1.400 . S
C449 N452 1.351 . S
C449 C454 1.501 . S
C450 C451 1.387 . S
C450 N453 1.341 . S
C451 C449 1.400 . S
C451 C450 1.387 . S
N452 Co443 2.022 . S
N452 C449 1.351 . S
N452 N453 1.365 . S
N453 C450 1.341 . S
N453 N452 1.365 . S
N453 H473 0.862 . S
C454 C449 1.501 . S
C454 H455 0.961 . S
C454 H456 0.961 1_565 S
C454 H457 0.960 . S
H455 C454 0.961 . S
H456 C454 0.961 1_545 S
H457 C454 0.960 . S
C458 N459 1.342 . S
C458 C462 1.401 . S
C458 C463 1.499 . S
N459 Co442 1.989 . S
N459 C458 1.342 . S
N459 N460 1.388 . S
N460 Co443 1.993 . S
N460 N459 1.388 . S
N460 C461 1.346 . S
C461 N460 1.346 . S
C461 C462 1.396 . S
C461 C471 1.510 . S
C462 C458 1.401 . S
C462 C461 1.396 . S
C463 C458 1.499 . S
C463 H464 0.959 . S
C463 H465 0.960 1_565 S
C463 H466 0.961 . S
H464 C463 0.959 . S
H465 C463 0.960 1_545 S
H466 C463 0.961 . S
O467 Co442 1.967 . S
O467 C475 1.258 . S
O468 Co443 1.941 . S
O468 C475 1.266 . S
H469 C471 0.959 . S
H470 C471 0.961 1_545 S
C471 C461 1.510 . S
C471 H469 0.959 . S
C471 H470 0.961 1_565 S
C471 H472 0.960 . S
H472 C471 0.960 . S
H473 N453 0.862 . S
O474 Co442 1.920 . S
O474 C447 1.289 . S
C475 O467 1.258 . S
C475 O468 1.266 . S
Co476 O479 1.970 . S
Co476 N493 1.989 . S
Co476 O501 1.967 . S
Co476 O508 1.920 . S
Co477 O480 1.966 . S
Co477 N486 2.022 . S
Co477 N494 1.993 . S
Co477 O502 1.941 . S
C478 O479 1.258 . S
C478 O480 1.263 . S
O479 Co476 1.970 . S
O479 C478 1.258 . S
O480 Co477 1.966 . S
O480 C478 1.263 . S
C481 O482 1.235 . S
C481 O508 1.289 . S
O482 C481 1.235 . S
C483 C485 1.400 . S
C483 N486 1.351 . S
C483 C488 1.501 . S
C484 C485 1.387 . S
C484 N487 1.341 . S
C485 C483 1.400 . S
C485 C484 1.387 . S
N486 Co477 2.022 . S
N486 C483 1.351 . S
N486 N487 1.365 . S
N487 C484 1.341 . S
N487 N486 1.365 . S
N487 H507 0.862 . S
C488 C483 1.501 . S
C488 H489 0.961 . S
C488 H490 0.961 . S
C488 H491 0.960 . S
H489 C488 0.961 . S
H490 C488 0.961 . S
H491 C488 0.960 . S
C492 N493 1.342 . S
C492 C496 1.401 . S
C492 C497 1.499 . S
N493 Co476 1.989 . S
N493 C492 1.342 . S
N493 N494 1.388 . S
N494 Co477 1.993 . S
N494 N493 1.388 . S
N494 C495 1.346 . S
C495 N494 1.346 . S
C495 C496 1.396 . S
C495 C505 1.510 . S
C496 C492 1.401 . S
C496 C495 1.396 . S
C497 C492 1.499 . S
C497 H498 0.959 . S
C497 H499 0.960 . S
C497 H500 0.961 . S
H498 C497 0.959 . S
H499 C497 0.960 . S
H500 C497 0.961 . S
O501 Co476 1.967 . S
O501 C509 1.258 . S
O502 Co477 1.941 . S
O502 C509 1.266 . S
H503 C505 0.959 . S
H504 C505 0.961 . S
C505 C495 1.510 . S
C505 H503 0.959 . S
C505 H504 0.961 . S
C505 H506 0.960 . S
H506 C505 0.960 . S
H507 N487 0.862 . S
O508 Co476 1.920 . S
O508 C481 1.289 . S
C509 O501 1.258 . S
C509 O502 1.266 . S
Co510 O513 1.970 . S
Co510 N527 1.989 . S
Co510 O535 1.967 . S
Co510 O542 1.920 . S
Co511 O514 1.966 . S
Co511 N520 2.022 . S
Co511 N528 1.993 . S
Co511 O536 1.941 . S
C512 O513 1.258 . S
C512 O514 1.263 . S
O513 Co510 1.970 . S
O513 C512 1.258 . S
O514 Co511 1.966 . S
O514 C512 1.263 . S
C515 O516 1.235 . S
C515 O542 1.289 . S
O516 C515 1.235 . S
C517 C519 1.400 . S
C517 N520 1.351 . S
C517 C522 1.501 . S
C518 C519 1.387 . S
C518 N521 1.341 . S
C519 C517 1.400 . S
C519 C518 1.387 . S
N520 Co511 2.022 . S
N520 C517 1.351 . S
N520 N521 1.365 . S
N521 C518 1.341 . S
N521 N520 1.365 . S
N521 H541 0.862 . S
C522 C517 1.501 . S
C522 H523 0.961 . S
C522 H524 0.961 . S
C522 H525 0.960 . S
H523 C522 0.961 . S
H524 C522 0.961 . S
H525 C522 0.960 . S
C526 N527 1.342 . S
C526 C530 1.401 . S
C526 C531 1.499 . S
N527 Co510 1.989 . S
N527 C526 1.342 . S
N527 N528 1.388 . S
N528 Co511 1.993 . S
N528 N527 1.388 . S
N528 C529 1.346 . S
C529 N528 1.346 . S
C529 C530 1.396 . S
C529 C539 1.510 . S
C530 C526 1.401 . S
C530 C529 1.396 . S
C531 C526 1.499 . S
C531 H532 0.959 . S
C531 H533 0.960 . S
C531 H534 0.961 . S
H532 C531 0.959 . S
H533 C531 0.960 . S
H534 C531 0.961 . S
O535 Co510 1.967 . S
O535 C543 1.258 . S
O536 Co511 1.941 . S
O536 C543 1.266 . S
H537 C539 0.959 . S
H538 C539 0.961 . S
C539 C529 1.510 . S
C539 H537 0.959 . S
C539 H538 0.961 . S
C539 H540 0.960 . S
H540 C539 0.960 . S
H541 N521 0.862 . S
O542 Co510 1.920 . S
O542 C515 1.289 . S
C543 O535 1.258 . S
C543 O536 1.266 . S
C544 C545 1.369 . S
C544 C546 1.419 1_556 S
C544 H548 0.930 . S
C545 C544 1.369 . S
C545 C554 1.429 . S
C546 C544 1.419 1_554 S
C546 C547 1.363 . S
C546 H549 0.929 . S
C547 C546 1.363 . S
C547 C553 1.428 . S
H548 C544 0.930 . S
H549 C546 0.929 . S
S550 N551 1.641 . S
S550 N552 1.610 . S
N551 S550 1.641 . S
N551 C554 1.348 1_554 S
N552 S550 1.610 . S
N552 C553 1.351 . S
C553 C547 1.428 . S
C553 N552 1.351 . S
C553 C554 1.434 1_554 S
C554 C545 1.429 . S
C554 N551 1.348 1_556 S
C554 C553 1.434 1_556 S
C555 C556 1.369 . S
C555 C557 1.419 . S
C555 H559 0.930 . S
C556 C555 1.369 . S
C556 C565 1.429 . S
C557 C555 1.419 . S
C557 C558 1.363 . S
C557 H560 0.929 . S
C558 C557 1.363 . S
C558 C564 1.428 . S
H559 C555 0.930 . S
H560 C557 0.929 . S
S561 N562 1.613 1_565 S
S561 N563 1.610 1_565 S
N562 S561 1.613 1_545 S
N562 C565 1.350 . S
N563 S561 1.610 1_545 S
N563 C564 1.351 . S
C564 C558 1.428 . S
C564 N563 1.351 . S
C564 C565 1.434 . S
C565 C556 1.429 . S
C565 N562 1.350 . S
C565 C564 1.434 . S
C566 C567 1.369 . S
C566 C568 1.419 1_554 S
C566 H570 0.930 . S
C567 C566 1.369 . S
C567 C576 1.429 . S
C568 C566 1.419 1_556 S
C568 C569 1.363 . S
C568 H571 0.929 . S
C569 C568 1.363 . S
C569 C575 1.428 . S
H570 C566 0.930 . S
H571 C568 0.929 . S
S572 N573 1.611 1_556 S
S572 N574 1.610 . S
N573 S572 1.611 1_554 S
N573 C576 1.350 . S
N574 S572 1.610 . S
N574 C575 1.351 . S
C575 C569 1.428 . S
C575 N574 1.351 . S
C575 C576 1.434 1_556 S
C576 C567 1.429 . S
C576 N573 1.350 . S
C576 C575 1.434 1_554 S
C577 C578 1.369 . S
C577 C579 1.419 . S
C577 H581 0.930 . S
C578 C577 1.369 . S
C578 C587 1.429 . S
C579 C577 1.419 . S
C579 C580 1.363 . S
C579 H582 0.929 . S
C580 C579 1.363 . S
C580 C586 1.428 . S
H581 C577 0.930 . S
H582 C579 0.929 . S
S583 N584 1.613 . S
S583 N585 1.610 . S
N584 S583 1.613 . S
N584 C587 1.350 . S
N585 S583 1.610 . S
N585 C586 1.351 . S
C586 C580 1.428 . S
C586 N585 1.351 . S
C586 C587 1.434 . S
C587 C578 1.429 . S
C587 N584 1.350 . S
C587 C586 1.434 . S
C588 C589 1.369 . S
C588 C590 1.419 1_554 S
C588 H592 0.930 . S
C589 C588 1.369 . S
C589 C598 1.429 1_655 S
C590 C588 1.419 1_556 S
C590 C591 1.363 . S
C590 H593 0.929 . S
C591 C590 1.363 . S
C591 C597 1.428 1_655 S
H592 C588 0.930 . S
H593 C590 0.929 . S
S594 N595 1.613 1_556 S
S594 N596 1.610 . S
N595 S594 1.613 1_554 S
N595 C598 1.350 . S
N596 S594 1.610 . S
N596 C597 1.351 . S
C597 C591 1.428 1_455 S
C597 N596 1.351 . S
C597 C598 1.434 1_556 S
C598 C589 1.429 1_455 S
C598 N595 1.350 . S
C598 C597 1.434 1_554 S
C599 C600 1.369 . S
C599 C601 1.419 . S
C599 H603 0.930 . S
C600 C599 1.369 . S
C600 C609 1.429 . S
C601 C599 1.419 . S
C601 C602 1.363 . S
C601 H604 0.929 . S
C602 C601 1.363 . S
C602 C608 1.428 . S
H603 C599 0.930 . S
H604 C601 0.929 . S
S605 N606 1.613 . S
S605 N607 1.610 . S
N606 S605 1.613 . S
N606 C609 1.350 . S
N607 S605 1.610 . S
N607 C608 1.351 . S
C608 C602 1.428 . S
C608 N607 1.351 . S
C608 C609 1.434 . S
C609 C600 1.429 . S
C609 N606 1.350 . S
C609 C608 1.434 . S
C610 C611 1.369 . S
C610 C612 1.419 1_556 S
C610 H614 0.930 . S
C611 C610 1.369 . S
C611 C620 1.429 . S
C612 C610 1.419 1_554 S
C612 C613 1.363 . S
C612 H615 0.929 . S
C613 C612 1.363 . S
C613 C619 1.428 . S
H614 C610 0.930 . S
H615 C612 0.929 . S
S616 N617 1.613 1_554 S
S616 N618 1.610 . S
N617 S616 1.613 1_556 S
N617 C620 1.350 . S
N618 S616 1.610 . S
N618 C619 1.351 . S
C619 C613 1.428 . S
C619 N618 1.351 . S
C619 C620 1.434 1_554 S
C620 C611 1.429 . S
C620 N617 1.350 . S
C620 C619 1.434 1_556 S
C621 C622 1.369 . S
C621 C623 1.419 . S
C621 H625 0.930 . S
C622 C621 1.369 . S
C622 C631 1.429 . S
C623 C621 1.419 . S
C623 C624 1.363 . S
C623 H626 0.929 . S
C624 C623 1.363 . S
C624 C630 1.428 . S
H625 C621 0.930 . S
H626 C623 0.929 . S
S627 N628 1.613 . S
S627 N629 1.610 . S
N628 S627 1.613 . S
N628 C631 1.350 . S
N629 S627 1.610 . S
N629 C630 1.351 . S
C630 C624 1.428 . S
C630 N629 1.351 . S
C630 C631 1.434 . S
C631 C622 1.429 . S
C631 N628 1.350 . S
C631 C630 1.434 . S
C632 C633 1.369 1_655 S
C632 C634 1.419 . S
C632 H636 0.930 . S
C633 C632 1.369 1_455 S
C633 C642 1.429 . S
C634 C632 1.419 . S
C634 C635 1.363 . S
C634 H637 0.929 . S
C635 C634 1.363 . S
C635 C641 1.428 1_655 S
H636 C632 0.930 . S
H637 C634 0.929 . S
S638 N639 1.613 . S
S638 N640 1.610 . S
N639 S638 1.613 . S
N639 C642 1.350 . S
N640 S638 1.610 . S
N640 C641 1.351 . S
C641 C635 1.428 1_455 S
C641 N640 1.351 . S
C641 C642 1.434 . S
C642 C633 1.429 . S
C642 N639 1.350 . S
C642 C641 1.434 . S
C643 C644 1.369 1_565 S
C643 C645 1.419 . S
C643 H647 0.930 . S
C644 C643 1.369 1_545 S
C644 C653 1.429 . S
C645 C643 1.419 . S
C645 C646 1.363 . S
C645 H648 0.929 . S
C646 C645 1.363 . S
C646 C652 1.428 1_565 S
H647 C643 0.930 . S
H648 C645 0.929 . S
S649 N650 1.613 . S
S649 N651 1.610 . S
N650 S649 1.613 . S
N650 C653 1.350 . S
N651 S649 1.610 . S
N651 C652 1.351 . S
C652 C646 1.428 1_545 S
C652 N651 1.351 . S
C652 C653 1.434 . S
C653 C644 1.429 . S
C653 N650 1.350 . S
C653 C652 1.434 . S
C654 C655 1.369 . S
C654 C656 1.419 . S
C654 H658 0.930 . S
C655 C654 1.369 . S
C655 C664 1.429 . S
C656 C654 1.419 . S
C656 C657 1.363 . S
C656 H659 0.929 . S
C657 C656 1.363 . S
C657 C663 1.428 . S
H658 C654 0.930 . S
H659 C656 0.929 . S
S660 N661 1.613 . S
S660 N662 1.610 . S
N661 S660 1.613 . S
N661 C664 1.350 . S
N662 S660 1.610 . S
N662 C663 1.351 . S
C663 C657 1.428 . S
C663 N662 1.351 . S
C663 C664 1.434 . S
C664 C655 1.429 . S
C664 N661 1.350 . S
C664 C663 1.434 . S
C665 C666 1.369 . S
C665 C667 1.419 . S
C665 H669 0.930 . S
C666 C665 1.369 . S
C666 C675 1.429 . S
C667 C665 1.419 . S
C667 C668 1.363 . S
C667 H670 0.929 . S
C668 C667 1.363 . S
C668 C674 1.428 . S
H669 C665 0.930 . S
H670 C667 0.929 . S
S671 N672 1.613 . S
S671 N673 1.610 . S
N672 S671 1.613 . S
N672 C675 1.350 . S
N673 S671 1.610 . S
N673 C674 1.351 . S
C674 C668 1.428 . S
C674 N673 1.351 . S
C674 C675 1.434 . S
C675 C666 1.429 . S
C675 N672 1.350 . S
C675 C674 1.434 . S
C676 C677 1.369 . S
C676 C678 1.419 . S
C676 H680 0.930 . S
C677 C676 1.369 . S
C677 C686 1.429 1_655 S
C678 C676 1.419 . S
C678 C679 1.363 1_655 S
C678 H681 0.929 . S
C679 C678 1.363 1_455 S
C679 C685 1.428 . S
H680 C676 0.930 . S
H681 C678 0.929 . S
S682 N683 1.613 . S
S682 N684 1.610 . S
N683 S682 1.613 . S
N683 C686 1.350 . S
N684 S682 1.610 . S
N684 C685 1.351 . S
C685 C679 1.428 . S
C685 N684 1.351 . S
C685 C686 1.434 . S
C686 C677 1.429 1_455 S
C686 N683 1.350 . S
C686 C685 1.434 . S
C687 C688 1.369 1_545 S
C687 C689 1.419 . S
C687 H691 0.930 . S
C688 C687 1.369 1_565 S
C688 C697 1.429 . S
C689 C687 1.419 . S
C689 C690 1.363 . S
C689 H692 0.929 . S
C690 C689 1.363 . S
C690 C696 1.428 1_545 S
H691 C687 0.930 . S
H692 C689 0.929 . S
S693 N694 1.613 . S
S693 N695 1.610 . S
N694 S693 1.613 . S
N694 C697 1.350 . S
N695 S693 1.610 . S
N695 C696 1.351 . S
C696 C690 1.428 1_565 S
C696 N695 1.351 . S
C696 C697 1.434 . S
C697 C688 1.429 . S
C697 N694 1.350 . S
C697 C696 1.434 . S
C698 C699 1.369 . S
C698 C700 1.419 . S
C698 H702 0.930 . S
C699 C698 1.369 . S
C699 C708 1.429 . S
C700 C698 1.419 . S
C700 C701 1.363 . S
C700 H703 0.929 . S
C701 C700 1.363 . S
C701 C707 1.428 . S
H702 C698 0.930 . S
H703 C700 0.929 . S
S704 N705 1.613 . S
S704 N706 1.610 . S
N705 S704 1.613 . S
N705 C708 1.350 . S
N706 S704 1.610 . S
N706 C707 1.351 . S
C707 C701 1.428 . S
C707 N706 1.351 . S
C707 C708 1.434 . S
C708 C699 1.429 . S
C708 N705 1.350 . S
C708 C707 1.434 . S
C709 C710 1.369 . S
C709 C711 1.419 . S
C709 H713 0.930 . S
C710 C709 1.369 . S
C710 C719 1.429 . S
C711 C709 1.419 . S
C711 C712 1.363 . S
C711 H714 0.929 . S
C712 C711 1.363 . S
C712 C718 1.428 . S
H713 C709 0.930 . S
H714 C711 0.929 . S
S715 N716 1.613 . S
S715 N717 1.610 . S
N716 S715 1.613 . S
N716 C719 1.350 . S
N717 S715 1.610 . S
N717 C718 1.351 . S
C718 C712 1.428 . S
C718 N717 1.351 . S
C718 C719 1.434 . S
C719 C710 1.429 . S
C719 N716 1.350 . S
C719 C718 1.434 . S
C720 C721 1.369 . S
C720 C722 1.419 . S
C720 H724 0.930 . S
C721 C720 1.369 . S
C721 C730 1.429 1_655 S
C722 C720 1.419 . S
C722 C723 1.363 1_655 S
C722 H725 0.929 . S
C723 C722 1.363 1_455 S
C723 C729 1.428 . S
H724 C720 0.930 . S
H725 C722 0.929 . S
S726 N727 1.613 . S
S726 N728 1.610 . S
N727 S726 1.613 . S
N727 C730 1.350 . S
N728 S726 1.610 . S
N728 C729 1.351 . S
C729 C723 1.428 . S
C729 N728 1.351 . S
C729 C730 1.434 . S
C730 C721 1.429 1_455 S
C730 N727 1.350 . S
C730 C729 1.434 . S
C731 C732 1.369 . S
C731 C733 1.419 . S
C731 H735 0.930 . S
C732 C731 1.369 . S
C732 C741 1.429 1_565 S
C733 C731 1.419 . S
C733 C734 1.363 1_565 S
C733 H736 0.929 . S
C734 C733 1.363 1_545 S
C734 C740 1.428 . S
H735 C731 0.930 . S
H736 C733 0.929 . S
S737 N738 1.613 . S
S737 N739 1.610 . S
N738 S737 1.613 . S
N738 C741 1.350 . S
N739 S737 1.610 . S
N739 C740 1.351 . S
C740 C734 1.428 . S
C740 N739 1.351 . S
C740 C741 1.434 . S
C741 C732 1.429 1_545 S
C741 N738 1.350 . S
C741 C740 1.434 . S
C742 C743 1.369 . S
C742 C744 1.419 . S
C742 H746 0.930 . S
C743 C742 1.369 . S
C743 C752 1.429 . S
C744 C742 1.419 . S
C744 C745 1.363 . S
C744 H747 0.929 . S
C745 C744 1.363 . S
C745 C751 1.428 . S
H746 C742 0.930 . S
H747 C744 0.929 . S
S748 N749 1.613 . S
S748 N750 1.610 . S
N749 S748 1.613 . S
N749 C752 1.350 . S
N750 S748 1.610 . S
N750 C751 1.351 . S
C751 C745 1.428 . S
C751 N750 1.351 . S
C751 C752 1.434 . S
C752 C743 1.429 . S
C752 N749 1.350 . S
C752 C751 1.434 . S
C753 C754 1.369 . S
C753 C755 1.419 . S
C753 H757 0.930 . S
C754 C753 1.369 . S
C754 C763 1.429 . S
C755 C753 1.419 . S
C755 C756 1.363 . S
C755 H758 0.929 . S
C756 C755 1.363 . S
C756 C762 1.428 . S
H757 C753 0.930 . S
H758 C755 0.929 . S
S759 N760 1.613 . S
S759 N761 1.610 . S
N760 S759 1.613 . S
N760 C763 1.350 . S
N761 S759 1.610 . S
N761 C762 1.351 . S
C762 C756 1.428 . S
C762 N761 1.351 . S
C762 C763 1.434 . S
C763 C754 1.429 . S
C763 N760 1.350 . S
C763 C762 1.434 . S
C764 C765 1.369 1_455 S
C764 C766 1.419 . S
C764 H768 0.930 . S
C765 C764 1.369 1_655 S
C765 C774 1.429 . S
C766 C764 1.419 . S
C766 C767 1.363 . S
C766 H769 0.929 . S
C767 C766 1.363 . S
C767 C773 1.428 1_455 S
H768 C764 0.930 . S
H769 C766 0.929 . S
S770 N771 1.613 . S
S770 N772 1.610 . S
N771 S770 1.613 . S
N771 C774 1.350 . S
N772 S770 1.610 . S
N772 C773 1.351 . S
C773 C767 1.428 1_655 S
C773 N772 1.351 . S
C773 C774 1.434 . S
C774 C765 1.429 . S
C774 N771 1.350 . S
C774 C773 1.434 . S
C775 C776 1.369 . S
C775 C777 1.419 . S
C775 H779 0.930 . S
C776 C775 1.369 . S
C776 C785 1.429 1_565 S
C777 C775 1.419 . S
C777 C778 1.363 1_565 S
C777 H780 0.929 . S
C778 C777 1.363 1_545 S
C778 C784 1.428 . S
H779 C775 0.930 . S
H780 C777 0.929 . S
S781 N782 1.613 . S
S781 N783 1.610 . S
N782 S781 1.613 . S
N782 C785 1.350 . S
N783 S781 1.610 . S
N783 C784 1.351 . S
C784 C778 1.428 . S
C784 N783 1.351 . S
C784 C785 1.434 . S
C785 C776 1.429 1_545 S
C785 N782 1.350 . S
C785 C784 1.434 . S
C786 C787 1.369 . S
C786 C788 1.419 . S
C786 H790 0.930 . S
C787 C786 1.369 . S
C787 C796 1.429 . S
C788 C786 1.419 . S
C788 C789 1.363 . S
C788 H791 0.929 . S
C789 C788 1.363 . S
C789 C795 1.428 . S
H790 C786 0.930 . S
H791 C788 0.929 . S
S792 N793 1.613 . S
S792 N794 1.610 . S
N793 S792 1.613 . S
N793 C796 1.350 . S
N794 S792 1.610 . S
N794 C795 1.351 . S
C795 C789 1.428 . S
C795 N794 1.351 . S
C795 C796 1.434 . S
C796 C787 1.429 . S
C796 N793 1.350 . S
C796 C795 1.434 . S
C797 C798 1.369 . S
C797 C799 1.419 . S
C797 H801 0.930 . S
C798 C797 1.369 . S
C798 C807 1.429 . S
C799 C797 1.419 . S
C799 C800 1.363 . S
C799 H802 0.929 . S
C800 C799 1.363 . S
C800 C806 1.428 . S
H801 C797 0.930 . S
H802 C799 0.929 . S
S803 N804 1.613 . S
S803 N805 1.610 . S
N804 S803 1.613 . S
N804 C807 1.350 . S
N805 S803 1.610 . S
N805 C806 1.351 . S
C806 C800 1.428 . S
C806 N805 1.351 . S
C806 C807 1.434 . S
C807 C798 1.429 . S
C807 N804 1.350 . S
C807 C806 1.434 . S
C808 C809 1.369 . S
C808 C810 1.419 . S
C808 H812 0.930 . S
C809 C808 1.369 . S
C809 C818 1.429 . S
C810 C808 1.419 . S
C810 C811 1.363 . S
C810 H813 0.929 . S
C811 C810 1.363 . S
C811 C817 1.428 . S
H812 C808 0.930 . S
H813 C810 0.929 . S
S814 N815 1.613 . S
S814 N816 1.610 . S
N815 S814 1.613 . S
N815 C818 1.350 . S
N816 S814 1.610 . S
N816 C817 1.351 . S
C817 C811 1.428 . S
C817 N816 1.351 . S
C817 C818 1.434 . S
C818 C809 1.429 . S
C818 N815 1.350 . S
C818 C817 1.434 . S
C819 C820 1.369 . S
C819 C821 1.419 . S
C819 H823 0.930 . S
C820 C819 1.369 . S
C820 C829 1.429 . S
C821 C819 1.419 . S
C821 C822 1.363 . S
C821 H824 0.929 . S
C822 C821 1.363 . S
C822 C828 1.428 . S
H823 C819 0.930 . S
H824 C821 0.929 . S
S825 N826 1.613 . S
S825 N827 1.610 1_565 S
N826 S825 1.613 . S
N826 C829 1.350 1_565 S
N827 S825 1.610 1_545 S
N827 C828 1.351 . S
C828 C822 1.428 . S
C828 N827 1.351 . S
C828 C829 1.434 . S
C829 C820 1.429 . S
C829 N826 1.350 1_545 S
C829 C828 1.434 . S
C830 C831 1.369 . S
C830 C832 1.419 . S
C830 H834 0.930 . S
C831 C830 1.369 . S
C831 C840 1.429 . S
C832 C830 1.419 . S
C832 C833 1.363 . S
C832 H835 0.929 . S
C833 C832 1.363 . S
C833 C839 1.428 . S
H834 C830 0.930 . S
H835 C832 0.929 . S
S836 N837 1.613 . S
S836 N838 1.610 1_565 S
N837 S836 1.613 . S
N837 C840 1.350 1_565 S
N838 S836 1.610 1_545 S
N838 C839 1.351 . S
C839 C833 1.428 . S
C839 N838 1.351 . S
C839 C840 1.434 . S
C840 C831 1.429 . S
C840 N837 1.350 1_545 S
C840 C839 1.434 . S
C841 C842 1.369 . S
C841 C843 1.419 . S
C841 H845 0.930 . S
C842 C841 1.369 . S
C842 C851 1.429 . S
C843 C841 1.419 . S
C843 C844 1.363 . S
C843 H846 0.929 . S
C844 C843 1.363 . S
C844 C850 1.428 . S
H845 C841 0.930 . S
H846 C843 0.929 . S
S847 N848 1.613 . S
S847 N849 1.610 . S
N848 S847 1.613 . S
N848 C851 1.350 . S
N849 S847 1.610 . S
N849 C850 1.351 . S
C850 C844 1.428 . S
C850 N849 1.351 . S
C850 C851 1.434 . S
C851 C842 1.429 . S
C851 N848 1.350 . S
C851 C850 1.434 . S
C852 C853 1.369 . S
C852 C854 1.419 . S
C852 H856 0.930 1_655 S
C853 C852 1.369 . S
C853 C862 1.429 . S
C854 C852 1.419 . S
C854 C855 1.363 . S
C854 H857 0.929 . S
C855 C854 1.363 . S
C855 C861 1.428 . S
H856 C852 0.930 1_455 S
H857 C854 0.929 . S
S858 N859 1.613 . S
S858 N860 1.610 . S
N859 S858 1.613 . S
N859 C862 1.350 . S
N860 S858 1.610 . S
N860 C861 1.351 . S
C861 C855 1.428 . S
C861 N860 1.351 . S
C861 C862 1.434 . S
C862 C853 1.429 . S
C862 N859 1.350 . S
C862 C861 1.434 . S
C863 C864 1.369 . S
C863 C865 1.419 . S
C863 H867 0.930 . S
C864 C863 1.369 . S
C864 C873 1.429 . S
C865 C863 1.419 . S
C865 C866 1.363 . S
C865 H868 0.929 . S
C866 C865 1.363 . S
C866 C872 1.428 . S
H867 C863 0.930 . S
H868 C865 0.929 . S
S869 N870 1.613 1_545 S
S869 N871 1.610 . S
N870 S869 1.613 1_565 S
N870 C873 1.350 . S
N871 S869 1.610 . S
N871 C872 1.351 1_545 S
C872 C866 1.428 . S
C872 N871 1.351 1_565 S
C872 C873 1.434 . S
C873 C864 1.429 . S
C873 N870 1.350 . S
C873 C872 1.434 . S
C874 C875 1.369 . S
C874 C876 1.419 . S
C874 H878 0.930 . S
C875 C874 1.369 . S
C875 C884 1.429 . S
C876 C874 1.419 . S
C876 C877 1.363 . S
C876 H879 0.929 1_565 S
C877 C876 1.363 . S
C877 C883 1.428 . S
H878 C874 0.930 . S
H879 C876 0.929 1_545 S
S880 N881 1.613 . S
S880 N882 1.610 . S
N881 S880 1.613 . S
N881 C884 1.350 . S
N882 S880 1.610 . S
N882 C883 1.351 . S
C883 C877 1.428 . S
C883 N882 1.351 . S
C883 C884 1.434 . S
C884 C875 1.429 . S
C884 N881 1.350 . S
C884 C883 1.434 . S
C885 C886 1.369 . S
C885 C887 1.419 . S
C885 H889 0.930 . S
C886 C885 1.369 . S
C886 C895 1.429 . S
C887 C885 1.419 . S
C887 C888 1.363 . S
C887 H890 0.929 . S
C888 C887 1.363 . S
C888 C894 1.428 . S
H889 C885 0.930 . S
H890 C887 0.929 . S
S891 N892 1.613 . S
S891 N893 1.610 . S
N892 S891 1.613 . S
N892 C895 1.350 . S
N893 S891 1.610 . S
N893 C894 1.351 . S
C894 C888 1.428 . S
C894 N893 1.351 . S
C894 C895 1.434 . S
C895 C886 1.429 . S
C895 N892 1.350 . S
C895 C894 1.434 . S
C896 C897 1.369 . S
C896 C898 1.419 . S
C896 H900 0.930 . S
C897 C896 1.369 . S
C897 C906 1.429 . S
C898 C896 1.419 . S
C898 C899 1.363 . S
C898 H901 0.929 . S
C899 C898 1.363 . S
C899 C905 1.428 . S
H900 C896 0.930 . S
H901 C898 0.929 . S
S902 N903 1.613 . S
S902 N904 1.610 . S
N903 S902 1.613 . S
N903 C906 1.350 . S
N904 S902 1.610 . S
N904 C905 1.351 . S
C905 C899 1.428 . S
C905 N904 1.351 . S
C905 C906 1.434 . S
C906 C897 1.429 . S
C906 N903 1.350 . S
C906 C905 1.434 . S
C907 C908 1.369 . S
C907 C909 1.419 . S
C907 H911 0.930 . S
C908 C907 1.369 . S
C908 C917 1.429 . S
C909 C907 1.419 . S
C909 C910 1.363 . S
C909 H912 0.929 . S
C910 C909 1.363 . S
C910 C916 1.428 . S
H911 C907 0.930 . S
H912 C909 0.929 . S
S913 N914 1.613 . S
S913 N915 1.610 . S
N914 S913 1.613 . S
N914 C917 1.350 . S
N915 S913 1.610 . S
N915 C916 1.351 . S
C916 C910 1.428 . S
C916 N915 1.351 . S
C916 C917 1.434 . S
C917 C908 1.429 . S
C917 N914 1.350 . S
C917 C916 1.434 . S
C918 C919 1.369 . S
C918 C920 1.419 . S
C918 H922 0.930 . S
C919 C918 1.369 . S
C919 C928 1.429 . S
C920 C918 1.419 . S
C920 C921 1.363 . S
C920 H923 0.929 . S
C921 C920 1.363 . S
C921 C927 1.428 . S
H922 C918 0.930 . S
H923 C920 0.929 . S
S924 N925 1.613 . S
S924 N926 1.610 . S
N925 S924 1.613 . S
N925 C928 1.350 . S
N926 S924 1.610 . S
N926 C927 1.351 . S
C927 C921 1.428 . S
C927 N926 1.351 . S
C927 C928 1.434 . S
C928 C919 1.429 . S
C928 N925 1.350 . S
C928 C927 1.434 . S
C929 C930 1.369 . S
C929 C931 1.419 . S
C929 H933 0.930 . S
C930 C929 1.369 . S
C930 C939 1.429 . S
C931 C929 1.419 . S
C931 C932 1.363 . S
C931 H934 0.929 . S
C932 C931 1.363 . S
C932 C938 1.428 . S
H933 C929 0.930 . S
H934 C931 0.929 . S
S935 N936 1.613 . S
S935 N937 1.610 . S
N936 S935 1.613 . S
N936 C939 1.350 . S
N937 S935 1.610 . S
N937 C938 1.351 . S
C938 C932 1.428 . S
C938 N937 1.351 . S
C938 C939 1.434 . S
C939 C930 1.429 . S
C939 N936 1.350 . S
C939 C938 1.434 . S
C940 C941 1.369 . S
C940 C942 1.419 . S
C940 H944 0.930 . S
C941 C940 1.369 . S
C941 C950 1.429 . S
C942 C940 1.419 . S
C942 C943 1.363 . S
C942 H945 0.929 . S
C943 C942 1.363 . S
C943 C949 1.428 . S
H944 C940 0.930 . S
H945 C942 0.929 . S
S946 N947 1.613 . S
S946 N948 1.610 . S
N947 S946 1.613 . S
N947 C950 1.350 . S
N948 S946 1.610 . S
N948 C949 1.351 . S
C949 C943 1.428 . S
C949 N948 1.351 . S
C949 C950 1.434 . S
C950 C941 1.429 . S
C950 N947 1.350 . S
C950 C949 1.434 . S
C951 C952 1.369 . S
C951 C953 1.419 . S
C951 H955 0.930 . S
C952 C951 1.369 . S
C952 C961 1.429 . S
C953 C951 1.419 . S
C953 C954 1.363 . S
C953 H956 0.929 . S
C954 C953 1.363 . S
C954 C960 1.428 . S
H955 C951 0.930 . S
H956 C953 0.929 . S
S957 N958 1.613 . S
S957 N959 1.610 . S
N958 S957 1.613 . S
N958 C961 1.350 . S
N959 S957 1.610 . S
N959 C960 1.351 . S
C960 C954 1.428 . S
C960 N959 1.351 . S
C960 C961 1.434 . S
C961 C952 1.429 . S
C961 N958 1.350 . S
C961 C960 1.434 . S
C962 C963 1.369 . S
C962 C964 1.419 . S
C962 H966 0.930 . S
C963 C962 1.369 . S
C963 C972 1.429 . S
C964 C962 1.419 . S
C964 C965 1.363 . S
C964 H967 0.929 . S
C965 C964 1.363 . S
C965 C971 1.428 . S
H966 C962 0.930 . S
H967 C964 0.929 . S
S968 N969 1.613 . S
S968 N970 1.610 . S
N969 S968 1.613 . S
N969 C972 1.350 . S
N970 S968 1.610 . S
N970 C971 1.351 . S
C971 C965 1.428 . S
C971 N970 1.351 . S
C971 C972 1.434 . S
C972 C963 1.429 . S
C972 N969 1.350 . S
C972 C971 1.434 . S
C973 C974 1.369 . S
C973 C975 1.419 . S
C973 H977 0.930 . S
C974 C973 1.369 . S
C974 C983 1.429 . S
C975 C973 1.419 . S
C975 C976 1.363 . S
C975 H978 0.929 . S
C976 C975 1.363 . S
C976 C982 1.428 . S
H977 C973 0.930 . S
H978 C975 0.929 . S
S979 N980 1.613 . S
S979 N981 1.610 . S
N980 S979 1.613 . S
N980 C983 1.350 . S
N981 S979 1.610 . S
N981 C982 1.351 . S
C982 C976 1.428 . S
C982 N981 1.351 . S
C982 C983 1.434 . S
C983 C974 1.429 . S
C983 N980 1.350 . S
C983 C982 1.434 . S
C545 C141 1.616 . S
C547 C5 1.611 . S
C556 C175 1.615 . S
C558 C39 1.611 . S
C567 C73 1.616 . S
C569 C209 1.611 . S
C578 C243 1.615 . S
C580 C107 1.611 . S
C589 C413 1.614 . S
C591 C277 1.611 . S
C600 C311 1.610 . S
C602 C447 1.615 . S
C611 C345 1.614 . S
C613 C481 1.611 . S
C622 C379 1.615 . S
C624 C515 1.611 . S
C633 C2 1.424 . S
C635 C428 1.454 1_545 S
C644 C36 1.427 . S
C646 C462 1.451 . S
C655 C496 1.454 . S
C657 C70 1.427 . S
C666 C104 1.430 . S
C668 C530 1.451 1_455 S
C677 C292 1.451 . S
C679 C138 1.427 . S
C688 C326 1.454 1_455 S
C690 C172 1.426 . S
C699 C206 1.424 . S
C701 C360 1.453 1_545 S
C710 C394 1.452 . S
C712 C240 1.427 . S
C721 C274 1.428 . S
C723 C156 1.452 1_565 S
C732 C308 1.431 . S
C734 C190 1.451 . S
C743 C224 1.450 . S
C745 C342 1.430 . S
C754 C376 1.429 . S
C756 C258 1.451 1_655 S
C765 C410 1.426 . S
C767 C20 1.452 . S
C776 C444 1.424 . S
C778 C54 1.454 1_655 S
C787 C478 1.425 . S
C789 C88 1.453 1_565 S
C798 C122 1.453 . S
C800 C512 1.427 . S
C809 C247 1.657 . S
C811 C9 1.646 . S
C820 C43 1.657 . S
C822 C145 1.646 . S
C831 C179 1.656 . S
C833 C77 1.648 . S
C842 C213 1.655 . S
C844 C111 1.644 . S
C853 C281 1.642 . S
C855 C519 1.654 . S
C864 C417 1.648 . S
C866 C315 1.655 . S
C875 C349 1.648 . S
C877 C451 1.646 . S
C886 C485 1.649 . S
C888 C383 1.645 . S
C897 C101 0.457 . S
C899 C33 0.452 . S
C908 C135 0.446 . S
C910 C67 0.464 . S
C919 C169 0.470 . S
C921 C237 0.453 . S
C930 C271 0.448 . S
C932 C203 0.460 . S
C941 C305 0.452 . S
C943 C373 0.467 . S
C952 C407 0.446 . S
C954 C339 0.464 . S
C963 C441 0.449 . S
C965 C509 0.457 . S
C974 C475 0.459 . S
C976 C543 0.465 . S
