# Generated by pormake.
# Topology smu, (6)-cn, num edge types: 1
# Building blocks:
#     Node 0, Type 0, BuildingBlock: JUFBIX_clean_sbu_0, # of connection points: 6
#     Node 1, Type 0, BuildingBlock: JUFBIX_clean_sbu_0, # of connection points: 6
#     Node 2, Type 0, BuildingBlock: JUFBIX_clean_sbu_0, # of connection points: 6
#     Node 3, Type 0, BuildingBlock: JUFBIX_clean_sbu_0, # of connection points: 6
#     Node 4, Type 0, BuildingBlock: JUFBIX_clean_sbu_0, # of connection points: 6
#     Node 5, Type 0, BuildingBlock: JUFBIX_clean_sbu_0, # of connection points: 6
#     Edge 6, Type (0, 0), BuildingBlock: XUDNAN_clean_linker_2, # of connection points: 2
#     Edge 7, Type (0, 0), BuildingBlock: XUDNAN_clean_linker_2, # of connection points: 2
#     Edge 8, Type (0, 0), BuildingBlock: XUDNAN_clean_linker_2, # of connection points: 2
#     Edge 9, Type (0, 0), BuildingBlock: XUDNAN_clean_linker_2, # of connection points: 2
#     Edge 10, Type (0, 0), BuildingBlock: XUDNAN_clean_linker_2, # of connection points: 2
#     Edge 11, Type (0, 0), BuildingBlock: XUDNAN_clean_linker_2, # of connection points: 2
#     Edge 12, Type (0, 0), BuildingBlock: XUDNAN_clean_linker_2, # of connection points: 2
#     Edge 13, Type (0, 0), BuildingBlock: XUDNAN_clean_linker_2, # of connection points: 2
#     Edge 14, Type (0, 0), BuildingBlock: XUDNAN_clean_linker_2, # of connection points: 2
#     Edge 15, Type (0, 0), BuildingBlock: XUDNAN_clean_linker_2, # of connection points: 2
#     Edge 16, Type (0, 0), BuildingBlock: XUDNAN_clean_linker_2, # of connection points: 2
#     Edge 17, Type (0, 0), BuildingBlock: XUDNAN_clean_linker_2, # of connection points: 2
#     Edge 18, Type (0, 0), BuildingBlock: XUDNAN_clean_linker_2, # of connection points: 2
#     Edge 19, Type (0, 0), BuildingBlock: XUDNAN_clean_linker_2, # of connection points: 2
#     Edge 20, Type (0, 0), BuildingBlock: XUDNAN_clean_linker_2, # of connection points: 2
#     Edge 21, Type (0, 0), BuildingBlock: XUDNAN_clean_linker_2, # of connection points: 2
#     Edge 22, Type (0, 0), BuildingBlock: XUDNAN_clean_linker_2, # of connection points: 2
#     Edge 23, Type (0, 0), BuildingBlock: XUDNAN_clean_linker_2, # of connection points: 2
# Relax obj value: 0.419
# Max RMSD: 0.302
# Mean RMSD: 0.301
data_MOF--net-smu--node1-JUFBIX_clean_sbu_0--edge1-XUDNAN_clean_linker_2
_symmetry_space_group_name_H-M    P1
_symmetry_Int_Tables_number       1
_symmetry_cell_setting            triclinic
loop_
_symmetry_equiv_pos_as_xyz
'x, y, z'
_cell_length_a     31.660465
_cell_length_b     31.609237
_cell_length_c     28.134249
_cell_angle_alpha  91.413734
_cell_angle_beta   90.210678
_cell_angle_gamma 120.10757
loop_
_atom_site_label
_atom_site_type_symbol
_atom_site_fract_x
_atom_site_fract_y
_atom_site_fract_z
_atom_type_partial_charge
Co0 Co 0.32433 0.0421 0.26415 0.0
C1 C 0.35982 0.09568 0.18585 0.0
Co2 Co 0.37765 0.1192 0.2845 0.0
C3 C 0.22952 0.96048 0.26804 0.0
C4 C 0.26948 0.94676 0.21477 0.0
N5 N 0.27469 0.97847 0.25044 0.0
N6 N 0.19586 0.92037 0.24375 0.0
C7 C 0.22075 0.91088 0.21052 0.0
H8 H 0.22045 0.97918 0.29536 0.0
H9 H 0.29804 0.95213 0.19045 0.0
C10 C 0.33853 0.0584 0.36193 0.0
N11 N 0.42534 0.18455 0.29844 0.0
C12 C 0.42493 0.22558 0.2861 0.0
C13 C 0.46853 0.20124 0.32156 0.0
N14 N 0.46598 0.26676 0.30048 0.0
C15 C 0.49372 0.25172 0.32246 0.0
C16 C 0.28656 0.10622 0.27725 0.0
O17 O 0.31669 0.02894 0.32742 0.0
O18 O 0.36911 0.10319 0.35315 0.0
O19 O 0.33035 0.13723 0.28768 0.0
O20 O 0.27552 0.06253 0.26636 0.0
O21 O 0.38411 0.13166 0.21532 0.0
H22 H 0.48121 0.17825 0.33637 0.0
H23 H 0.39566 0.22539 0.26594 0.0
O24 O 0.33135 0.05377 0.20107 0.0
O25 O 0.37483 0.02418 0.26139 0.0
O26 O 0.42544 0.1015 0.28125 0.0
C27 C 0.41817 0.05909 0.27086 0.0
H28 H 0.20432 0.88323 0.18228 0.0
H29 H 0.52963 0.27559 0.338 0.0
Co30 Co 0.76219 0.65287 0.27873 0.0
C31 C 0.74852 0.66616 0.18226 0.0
Co32 Co 0.73864 0.70675 0.26482 0.0
C33 C 0.81921 0.60325 0.27388 0.0
C34 C 0.75768 0.5681 0.31929 0.0
N35 N 0.78011 0.60575 0.28977 0.0
N36 N 0.82231 0.56587 0.29282 0.0
C37 C 0.78325 0.54358 0.32112 0.0
H38 H 0.84575 0.62933 0.25008 0.0
H39 H 0.72523 0.55953 0.33905 0.0
C40 C 0.74991 0.69737 0.36073 0.0
N41 N 0.72377 0.75606 0.25504 0.0
C42 C 0.75357 0.79806 0.233 0.0
C43 C 0.69272 0.76559 0.27931 0.0
N44 N 0.74454 0.8345 0.24455 0.0
C45 C 0.70541 0.81371 0.27299 0.0
C46 C 0.66152 0.61173 0.27253 0.0
O47 O 0.76306 0.66656 0.34801 0.0
O48 O 0.73743 0.71681 0.32913 0.0
O49 O 0.66932 0.65483 0.26464 0.0
O50 O 0.69727 0.60555 0.28109 0.0
O51 O 0.73967 0.69771 0.20047 0.0
H52 H 0.6662 0.74103 0.30409 0.0
H53 H 0.78412 0.80283 0.21203 0.0
O54 O 0.75931 0.64066 0.2092 0.0
O55 O 0.82772 0.69983 0.27573 0.0
O56 O 0.80782 0.75578 0.26488 0.0
C57 C 0.84058 0.74398 0.26913 0.0
H58 H 0.77362 0.51171 0.34187 0.0
H59 H 0.69006 0.83295 0.29189 0.0
Co60 Co 0.98811 0.29544 0.26239 0.0
C61 C 0.95009 0.2911 0.17309 0.0
Co62 Co 0.90996 0.27389 0.26362 0.0
C63 C 0.06523 0.27767 0.28125 0.0
C64 C 0.08824 0.33452 0.23111 0.0
N65 N 0.05162 0.30714 0.26062 0.0
N66 N 0.10754 0.28353 0.26439 0.0
C67 C 0.12277 0.32005 0.23339 0.0
H68 H 0.04229 0.24948 0.30549 0.0
H69 H 0.08762 0.35982 0.2063 0.0
C70 C 0.95339 0.2822 0.35328 0.0
N71 N 0.84482 0.25908 0.26738 0.0
C72 C 0.80315 0.2186 0.25192 0.0
C73 C 0.82937 0.2847 0.29391 0.0
N74 N 0.7627 0.21783 0.26848 0.0
C75 C 0.77927 0.25967 0.29453 0.0
C76 C 0.91964 0.19332 0.25486 0.0
O77 O 0.9909 0.29544 0.32844 0.0
O78 O 0.91235 0.26852 0.33256 0.0
O79 O 0.88857 0.20724 0.25556 0.0
O80 O 0.96477 0.22544 0.25829 0.0
O81 O 0.91062 0.2812 0.19443 0.0
H82 H 0.85297 0.31839 0.31363 0.0
H83 H 0.80244 0.18891 0.23123 0.0
O84 O 0.98645 0.29637 0.19686 0.0
O85 O 1.00939 0.36507 0.26578 0.0
O86 O 0.93114 0.34019 0.27168 0.0
C87 C 0.97498 0.37476 0.27095 0.0
H88 H 0.15408 0.3322 0.21071 0.0
H89 H 0.75679 0.27089 0.31375 0.0
Co90 Co 0.12068 0.37562 0.76889 0.0
C91 C 0.09576 0.36424 0.86633 0.0
Co92 Co 0.04435 0.3206 0.78547 0.0
C93 C 0.22733 0.42653 0.77352 0.0
C94 C 0.20029 0.46001 0.72643 0.0
N95 N 0.18544 0.42326 0.75702 0.0
N96 N 0.26766 0.46349 0.75401 0.0
C97 C 0.25048 0.48474 0.7246 0.0
H98 H 0.22805 0.40117 0.79819 0.0
H99 H 0.17611 0.46778 0.70595 0.0
C100 C 0.06262 0.32844 0.68854 0.0
N101 N 0.98048 0.27088 0.79592 0.0
C102 C 0.96871 0.22837 0.81671 0.0
C103 C 0.93927 0.26195 0.7729 0.0
N104 N 0.92291 0.19228 0.80538 0.0
C105 C 0.90385 0.21368 0.77861 0.0
C106 C 0.05901 0.41408 0.77367 0.0
O107 O 0.10687 0.35989 0.70004 0.0
O108 O 0.03194 0.30937 0.72113 0.0
O109 O 0.02571 0.37122 0.78505 0.0
O110 O 0.10136 0.4218 0.7644 0.0
O111 O 0.05545 0.33082 0.84937 0.0
H112 H 0.93679 0.28706 0.74917 0.0
H113 H 0.99485 0.22284 0.8364 0.0
O114 O 0.13085 0.38999 0.83835 0.0
O115 O 0.1407 0.32961 0.77338 0.0
O116 O 0.06566 0.27277 0.78619 0.0
C117 C 0.11033 0.28543 0.78114 0.0
H118 H 0.27248 0.51599 0.70306 0.0
H119 H 0.86882 0.19471 0.76019 0.0
Co120 Co 0.27382 0.9076 0.78382 0.0
C121 C 0.28269 0.94948 0.87418 0.0
Co122 Co 0.29828 0.98684 0.78421 0.0
C123 C 0.21594 0.8007 0.79343 0.0
C124 C 0.28333 0.82475 0.75739 0.0
N125 N 0.25728 0.84163 0.78064 0.0
N126 N 0.21514 0.75926 0.77835 0.0
C127 C 0.25774 0.77452 0.75601 0.0
H128 H 0.1859 0.80122 0.81114 0.0
H129 H 0.3179 0.8475 0.74058 0.0
C130 C 0.29227 0.95065 0.69367 0.0
N131 N 0.31207 0.05125 0.78594 0.0
C132 C 0.28337 0.06568 0.80778 0.0
C133 C 0.34077 0.08831 0.75768 0.0
N134 N 0.2908 0.10908 0.79268 0.0
C135 C 0.32774 0.12388 0.76168 0.0
C136 C 0.37523 0.97036 0.7894 0.0
O137 O 0.27771 0.91004 0.71416 0.0
O138 O 0.30232 0.98838 0.71863 0.0
O139 O 0.36698 1.00599 0.78875 0.0
O140 O 0.33983 0.92678 0.78789 0.0
O141 O 0.29512 0.98652 0.84939 0.0
H142 H 0.36602 0.08742 0.73241 0.0
H143 H 0.25476 0.04249 0.83153 0.0
O144 O 0.27089 0.90822 0.85378 0.0
O145 O 0.20808 0.88823 0.77971 0.0
O146 O 0.22857 0.96531 0.77972 0.0
C147 C 0.1955 0.92029 0.77866 0.0
H148 H 0.26924 0.75098 0.73896 0.0
H149 H 0.34144 0.15577 0.73999 0.0
Co150 Co 0.64987 0.75345 0.78251 0.0
C151 C 0.675 0.73748 0.87302 0.0
Co152 Co 0.70628 0.73163 0.7834 0.0
C153 C 0.59907 0.80918 0.79565 0.0
C154 C 0.55828 0.74352 0.75319 0.0
N155 N 0.59975 0.76871 0.77951 0.0
N156 N 0.55928 0.81037 0.77972 0.0
C157 C 0.53345 0.76878 0.75338 0.0
H158 H 0.62841 0.83851 0.81649 0.0
H159 H 0.54767 0.70991 0.73316 0.0
C160 C 0.68257 0.74364 0.69267 0.0
N161 N 0.75812 0.71943 0.78424 0.0
C162 C 0.8022 0.75011 0.80458 0.0
C163 C 0.7658 0.68935 0.75543 0.0
N164 N 0.83784 0.7424 0.78795 0.0
C165 C 0.81471 0.70338 0.75761 0.0
C166 C 0.61301 0.65254 0.77654 0.0
O167 O 0.65644 0.75859 0.71349 0.0
O168 O 0.70662 0.72987 0.71735 0.0
O169 O 0.65704 0.66189 0.78218 0.0
O170 O 0.60426 0.68737 0.7748 0.0
O171 O 0.70609 0.73249 0.84918 0.0
H172 H 0.73882 0.66238 0.73085 0.0
H173 H 0.80858 0.78017 0.82843 0.0
O174 O 0.64458 0.74639 0.85169 0.0
O175 O 0.69543 0.81981 0.79023 0.0
O176 O 0.75326 0.80164 0.78453 0.0
C177 C 0.74038 0.83375 0.78892 0.0
H178 H 0.49943 0.75779 0.73459 0.0
H179 H 0.83241 0.6889 0.73506 0.0
H180 H 0.34749 0.95988 0.94513 0.0
H181 H 0.21588 0.96516 0.91582 0.0
H182 H 0.23086 0.01667 0.98822 0.0
H183 H 0.33289 0.95608 0.07897 0.0
H184 H 0.39806 0.99172 0.0886 0.0
H185 H 0.37338 0.95152 0.03693 0.0
H186 H 0.42701 0.02534 0.9844 0.0
H187 H 0.44958 0.06616 0.03585 0.0
H188 H 0.42006 0.07856 0.98766 0.0
H189 H 0.26592 0.07681 0.0571 0.0
H190 H 0.30279 0.11839 0.13418 0.0
H191 H 0.40901 0.07085 0.123 0.0
C192 C 0.32038 0.96944 0.95561 0.0
C193 C 0.2797 0.95734 0.92556 0.0
C194 C 0.24629 0.97263 0.93921 0.0
C195 C 0.25516 1.00289 0.97968 0.0
C196 C 0.29729 0.01701 1.00676 0.0
C197 C 0.32816 0.99897 0.99674 0.0
C198 C 0.37012 0.01895 0.03281 0.0
C199 C 0.3685 0.97709 0.06102 0.0
C200 C 0.41961 0.04903 1.00871 0.0
C201 C 0.35834 0.05153 0.06399 0.0
C202 C 0.31683 0.05078 0.04751 0.0
C203 C 0.29834 0.0775 0.07051 0.0
C204 C 0.32033 0.1022 0.11371 0.0
C205 C 0.35965 0.09917 0.13392 0.0
C206 C 0.38034 0.07557 0.10744 0.0
H207 H 0.68569 0.67282 0.63857 0.0
H208 H 0.69218 0.81274 0.62999 0.0
H209 H 0.71523 0.81696 0.54533 0.0
H210 H 0.78535 0.69748 0.56563 0.0
H211 H 0.75735 0.63796 0.53634 0.0
H212 H 0.7397 0.6446 0.59562 0.0
H213 H 0.6492 0.60409 0.56802 0.0
H214 H 0.6664 0.59629 0.50889 0.0
H215 H 0.63315 0.62823 0.51809 0.0
H216 H 0.74497 0.80968 0.46558 0.0
H217 H 0.76336 0.78518 0.38876 0.0
H218 H 0.73195 0.64584 0.44524 0.0
C219 C 0.69113 0.70393 0.61848 0.0
C220 C 0.68717 0.74258 0.64053 0.0
C221 C 0.69449 0.78266 0.61348 0.0
C222 C 0.70809 0.7855 0.56566 0.0
C223 C 0.71324 0.7475 0.54546 0.0
C224 C 0.70365 0.70679 0.57051 0.0
C225 C 0.71042 0.67038 0.53977 0.0
C226 C 0.7506 0.66214 0.5606 0.0
C227 C 0.6619 0.62187 0.5333 0.0
C228 C 0.72621 0.69739 0.49349 0.0
C229 C 0.72819 0.7421 0.49819 0.0
C230 C 0.74272 0.77448 0.46128 0.0
C231 C 0.75328 0.7601 0.41773 0.0
C232 C 0.74864 0.71325 0.41061 0.0
C233 C 0.73616 0.6819 0.44954 0.0
H234 H 0.98143 0.24953 0.10795 0.0
H235 H 0.94584 0.36423 0.12757 0.0
H236 H 0.99127 0.40342 0.05468 0.0
H237 H 0.10053 0.32252 0.07166 0.0
H238 H 0.10006 0.27972 0.02782 0.0
H239 H 0.06056 0.25773 0.07817 0.0
H240 H 0.98409 0.21106 1.02289 0.0
H241 H 0.02368 0.23062 0.97255 0.0
H242 H 0.97418 0.24321 0.97604 0.0
H243 H 0.04739 0.43325 0.9823 0.0
H244 H 0.09129 0.44022 0.90761 0.0
H245 H 0.09044 0.30624 0.93736 0.0
C246 C 0.98127 0.28165 0.09556 0.0
C247 C 0.95886 0.30308 0.12245 0.0
C248 C 0.96111 0.34623 0.1064 0.0
C249 C 0.98782 0.36927 0.06566 0.0
C250 C 1.01189 0.34855 0.04146 0.0
C251 C 1.00748 0.30482 0.0551 0.0
C252 C 0.03662 0.28979 0.02346 0.0
C253 C 0.07681 0.28731 0.052 0.0
C254 C 1.00263 0.24079 0.99716 0.0
C255 C 0.05837 0.33188 0.98972 0.0
C256 C 0.0444 0.36589 1.00099 0.0
C257 C 0.05868 0.40693 0.97345 0.0
C258 C 0.08475 0.41134 0.93161 0.0
C259 C 0.09586 0.37474 0.91758 0.0
C260 C 0.08438 0.33587 0.94829 0.0
H261 H 0.37883 0.10083 0.45266 0.0
H262 H 0.27109 0.9651 0.38091 0.0
H263 H 0.2526 0.92307 0.45561 0.0
H264 H 0.42136 0.0447 0.5377 0.0
H265 H 0.42674 0.08468 0.58704 0.0
H266 H 0.4342 0.10603 0.52715 0.0
H267 H 0.36621 0.12783 0.53957 0.0
H268 H 0.35896 0.107 0.5996 0.0
H269 H 0.30708 0.08154 0.55925 0.0
H270 H 0.24545 0.89264 0.53683 0.0
H271 H 0.24383 0.88002 0.62353 0.0
H272 H 0.35142 0.03376 0.64602 0.0
C273 C 0.35133 0.06242 0.4528 0.0
C274 C 0.3272 0.03673 0.41012 0.0
C275 C 0.29101 0.98625 0.41239 0.0
C276 C 0.27998 0.96149 0.45491 0.0
C277 C 0.30478 0.98723 0.49588 0.0
C278 C 0.33911 0.03668 0.4957 0.0
C279 C 0.35841 0.05531 0.54595 0.0
C280 C 0.41345 0.07378 0.54966 0.0
C281 C 0.34697 0.09528 0.56203 0.0
C282 C 0.32917 1.00877 0.57362 0.0
C283 C 0.29909 0.96978 0.54381 0.0
C284 C 0.26875 0.92291 0.5608 0.0
C285 C 0.2682 0.91591 0.60997 0.0
C286 C 0.29721 0.95574 0.64147 0.0
C287 C 0.32857 1.00255 0.62277 0.0
H288 H 0.74665 0.78195 0.94013 0.0
H289 H 0.59947 0.66126 0.91654 0.0
H290 H 0.60689 0.62297 0.98968 0.0
H291 H 0.79892 0.71543 0.97952 0.0
H292 H 0.83803 0.7591 0.02482 0.0
H293 H 0.81986 0.7796 0.97358 0.0
H294 H 0.78356 0.82097 0.02721 0.0
H295 H 0.80401 0.80283 0.07854 0.0
H296 H 0.74074 0.78596 0.07232 0.0
H297 H 0.63444 0.59457 0.06226 0.0
H298 H 0.67126 0.58874 0.13791 0.0
H299 H 0.7998 0.72864 0.11349 0.0
C300 C 0.7152 0.74862 0.95169 0.0
C301 C 0.67192 0.72524 0.9236 0.0
C302 C 0.63219 0.68064 0.93861 0.0
C303 C 0.63657 0.65816 0.97952 0.0
C304 C 0.68083 0.68099 1.00509 0.0
C305 C 0.71881 0.72611 0.99257 0.0
C306 C 0.7624 0.74344 0.02601 0.0
C307 C 0.80745 0.74976 0.99936 0.0
C308 C 0.7733 0.7911 0.05261 0.0
C309 C 0.74338 0.70088 0.05916 0.0
C310 C 0.69655 0.66478 0.04618 0.0
C311 C 0.67114 0.6226 0.07256 0.0
C312 C 0.69278 0.61895 0.11495 0.0
C313 C 0.73909 0.65739 0.13068 0.0
C314 C 0.7653 0.69778 0.10129 0.0
H315 H 0.03284 0.34689 0.40663 0.0
H316 H 0.88815 0.21985 0.41749 0.0
H317 H 0.90359 0.2167 0.50347 0.0
H318 H 0.09571 0.31164 0.48686 0.0
H319 H 0.13394 0.37191 0.5131 0.0
H320 H 0.11175 0.36501 0.45272 0.0
H321 H 0.07327 0.41856 0.47315 0.0
H322 H 0.09602 0.42631 0.53341 0.0
H323 H 0.03182 0.40251 0.52203 0.0
H324 H 0.93689 0.22347 0.58518 0.0
H325 H 0.97884 0.24655 0.66255 0.0
H326 H 0.10147 0.37412 0.6021 0.0
C327 C 1.00423 0.31864 0.42729 0.0
C328 C 0.95926 0.2833 0.40554 0.0
C329 C 0.92258 0.24726 0.43358 0.0
C330 C 0.93128 0.24505 0.48224 0.0
C331 C 0.97647 0.27971 0.50225 0.0
C332 C 1.01194 0.31655 0.47601 0.0
C333 C 0.05669 0.35022 0.50672 0.0
C334 C 0.10221 0.34964 0.48876 0.0
C335 C 0.06492 0.4025 0.50896 0.0
C336 C 0.04115 0.32614 0.55445 0.0
C337 C 0.99495 0.28518 0.5505 0.0
C338 C 0.97266 0.25584 0.58884 0.0
C339 C 0.99714 0.26947 0.63279 0.0
C340 C 0.04348 0.31273 0.63892 0.0
C341 C 0.06629 0.34093 0.59875 0.0
H342 H 0.48741 0.08927 0.33854 0.0
H343 H 0.44983 0.02476 0.19644 0.0
H344 H 0.53645 0.04837 0.18391 0.0
H345 H 0.58516 0.19105 0.30847 0.0
H346 H 0.62252 0.20056 0.36061 0.0
H347 H 0.55725 0.16592 0.36435 0.0
H348 H 0.56064 0.09159 0.39618 0.0
H349 H 0.62637 0.12643 0.39435 0.0
H350 H 0.59353 0.06758 0.3639 0.0
H351 H 0.63038 0.09486 0.18216 0.0
H352 H 0.7187 0.1558 0.19209 0.0
H353 H 0.69253 0.1921 0.33425 0.0
C354 C 0.49701 0.07749 0.30587 0.0
C355 C 0.46194 0.05399 0.26896 0.0
C356 C 0.47589 0.04112 0.22574 0.0
C357 C 0.52518 0.05498 0.21824 0.0
C358 C 0.55966 0.08133 0.25445 0.0
C359 C 0.54575 0.09158 0.29782 0.0
C360 C 0.58949 0.12653 0.32843 0.0
C361 C 0.58851 0.17377 0.34115 0.0
C362 C 0.5927 0.10152 0.37337 0.0
C363 C 0.63038 0.13631 0.29494 0.0
C364 C 0.61291 0.10932 0.25278 0.0
C365 C 0.64431 0.11537 0.21543 0.0
C366 C 0.69441 0.15007 0.22129 0.0
C367 C 0.71243 0.17896 0.26379 0.0
C368 C 0.67987 0.17097 0.30117 0.0
H369 H 0.64501 0.5339 0.21976 0.0
H370 H 0.57351 0.58523 0.31669 0.0
H371 H 0.50633 0.49929 0.32552 0.0
H372 H 0.53501 0.42238 0.16721 0.0
H373 H 0.56704 0.38867 0.16809 0.0
H374 H 0.60018 0.45373 0.15944 0.0
H375 H 0.65712 0.46464 0.23076 0.0
H376 H 0.62368 0.40008 0.24053 0.0
H377 H 0.63101 0.44271 0.28802 0.0
H378 H 0.45352 0.40488 0.3323 0.0
H379 H 0.42423 0.31596 0.33883 0.0
H380 H 0.53815 0.32998 0.24527 0.0
C381 C 0.61389 0.52729 0.241 0.0
C382 C 0.61367 0.56624 0.26654 0.0
C383 C 0.5735 0.55613 0.29554 0.0
C384 C 0.53553 0.50729 0.30106 0.0
C385 C 0.5387 0.46932 0.27757 0.0
C386 C 0.57705 0.47921 0.24786 0.0
C387 C 0.57752 0.43315 0.23269 0.0
C388 C 0.56943 0.42394 0.17865 0.0
C389 C 0.62513 0.4353 0.24899 0.0
C390 C 0.53413 0.39539 0.25935 0.0
C391 C 0.51121 0.41644 0.28412 0.0
C392 C 0.4711 0.38831 0.31261 0.0
C393 C 0.45466 0.33796 0.31618 0.0
C394 C 0.47906 0.31663 0.29243 0.0
C395 C 0.51888 0.34567 0.26343 0.0
H396 H 0.94742 0.41025 0.34402 0.0
H397 H 1.01061 0.44596 0.20463 0.0
H398 H 0.98769 0.51015 0.19939 0.0
H399 H 0.84621 0.4096 0.31551 0.0
H400 H 0.83765 0.43449 0.37057 0.0
H401 H 0.87161 0.403 0.37039 0.0
H402 H 0.94669 0.47841 0.4093 0.0
H403 H 0.9125 0.50997 0.41139 0.0
H404 H 0.9709 0.53736 0.38291 0.0
H405 H 0.94146 0.55739 0.20299 0.0
H406 H 0.88201 0.58535 0.2166 0.0
H407 H 0.84771 0.51599 0.35317 0.0
C408 C 0.95937 0.43397 0.31386 0.0
C409 C 0.9824 0.42458 0.27551 0.0
C410 C 0.99493 0.45412 0.23521 0.0
C411 C 0.98134 0.49017 0.23177 0.0
C412 C 0.9555 0.49621 0.26905 0.0
C413 C 0.94558 0.46942 0.30983 0.0
C414 C 0.91129 0.47685 0.34178 0.0
C415 C 0.86393 0.42811 0.34999 0.0
C416 C 0.93688 0.50217 0.38915 0.0
C417 C 0.90162 0.51034 0.31193 0.0
C418 C 0.92789 0.52188 0.27044 0.0
C419 C 0.92163 0.54936 0.23589 0.0
C420 C 0.88767 0.56511 0.24391 0.0
C421 C 0.85978 0.55284 0.28591 0.0
C422 C 0.86786 0.52578 0.32047 0.0
H423 H 0.08828 0.48057 0.70606 0.0
H424 H 0.02364 0.44821 0.84507 0.0
H425 H 0.04648 0.53526 0.85716 0.0
H426 H 0.18955 0.58042 0.74064 0.0
H427 H 0.19898 0.61543 0.68813 0.0
H428 H 0.16484 0.54985 0.6839 0.0
H429 H 0.09056 0.55131 0.64706 0.0
H430 H 0.12492 0.61725 0.64962 0.0
H431 H 0.06605 0.58515 0.67703 0.0
H432 H 0.09205 0.62972 0.85957 0.0
H433 H 0.15237 0.71803 0.85141 0.0
H434 H 0.19005 0.68641 0.71247 0.0
C435 C 0.07627 0.49128 0.73782 0.0
C436 C 0.05294 0.4575 0.77404 0.0
C437 C 0.03982 0.47311 0.81616 0.0
C438 C 0.0533 0.52272 0.82347 0.0
C439 C 0.07957 0.55595 0.78817 0.0
C440 C 0.09009 0.54041 0.74574 0.0
C441 C 0.12494 0.58317 0.71639 0.0
C442 C 0.17234 0.58212 0.70676 0.0
C443 C 0.10012 0.58429 0.66977 0.0
C444 C 0.13427 0.62544 0.74955 0.0
C445 C 0.10716 0.60946 0.79039 0.0
C446 C 0.11268 0.64243 0.8273 0.0
C447 C 0.14701 0.69253 0.82245 0.0
C448 C 0.17613 0.70906 0.78146 0.0
C449 C 0.16865 0.67492 0.74439 0.0
H450 H 0.41055 0.94009 0.71902 0.0
H451 H 0.44475 1.00522 0.86087 0.0
H452 H 0.50777 0.98106 0.86984 0.0
H453 H 0.40699 0.83808 0.74772 0.0
H454 H 0.43187 0.82767 0.6941 0.0
H455 H 0.40167 0.86282 0.69243 0.0
H456 H 0.47819 0.93632 0.65783 0.0
H457 H 0.50851 0.90092 0.65763 0.0
H458 H 0.53659 0.96009 0.68764 0.0
H459 H 0.55465 0.93427 0.86844 0.0
H460 H 0.58096 0.87292 0.85627 0.0
H461 H 0.51162 0.83576 0.7166 0.0
C462 C 0.43371 0.95212 0.75069 0.0
C463 C 0.42435 0.97619 0.78852 0.0
C464 C 0.45298 0.98874 0.83074 0.0
C465 C 0.4884 0.97453 0.83624 0.0
C466 C 0.49452 0.94783 0.79917 0.0
C467 C 0.46831 0.93752 0.75682 0.0
C468 C 0.47511 0.90194 0.72531 0.0
C469 C 0.42602 0.85489 0.7143 0.0
C470 C 0.50117 0.92628 0.67939 0.0
C471 C 0.50756 0.89204 0.75712 0.0
C472 C 0.51934 0.91941 0.7992 0.0
C473 C 0.5463 0.91345 0.8352 0.0
C474 C 0.56109 0.87849 0.82806 0.0
C475 C 0.54808 0.84925 0.78564 0.0
C476 C 0.52177 0.8571 0.74961 0.0
H477 H 0.34326 0.5132 0.69404 0.0
H478 H 0.30804 0.44505 0.83121 0.0
H479 H 0.39537 0.47278 0.84549 0.0
H480 H 0.44427 0.49072 0.66554 0.0
H481 H 0.47924 0.54936 0.63869 0.0
H482 H 0.41345 0.51825 0.63666 0.0
H483 H 0.41508 0.59414 0.67638 0.0
H484 H 0.48061 0.62553 0.67725 0.0
H485 H 0.44842 0.61917 0.7317 0.0
H486 H 0.48908 0.51914 0.84935 0.0
H487 H 0.57668 0.58211 0.84377 0.0
H488 H 0.54927 0.61683 0.70349 0.0
C489 C 0.35356 0.50363 0.727 0.0
C490 C 0.31831 0.47688 0.76148 0.0
C491 C 0.33394 0.46498 0.8039 0.0
C492 C 0.38364 0.4806 0.81232 0.0
C493 C 0.41746 0.5076 0.77777 0.0
C494 C 0.4028 0.51878 0.73586 0.0
C495 C 0.44617 0.55183 0.70609 0.0
C496 C 0.44574 0.52598 0.65895 0.0
C497 C 0.44765 0.60052 0.69739 0.0
C498 C 0.4878 0.55912 0.73842 0.0
C499 C 0.4708 0.53283 0.7794 0.0
C500 C 0.50277 0.5387 0.81679 0.0
C501 C 0.55272 0.574 0.81313 0.0
C502 C 0.56999 0.60291 0.77243 0.0
C503 C 0.53735 0.59359 0.73401 0.0
H504 H 0.30478 0.19866 0.2644 0.0
H505 H 0.18708 0.05105 0.28769 0.0
H506 H 0.12794 0.08082 0.2875 0.0
H507 H 0.2614 0.26148 0.33803 0.0
H508 H 0.28067 0.31198 0.29886 0.0
H509 H 0.31309 0.27874 0.30024 0.0
H510 H 0.29905 0.26117 0.20944 0.0
H511 H 0.26678 0.29455 0.20761 0.0
H512 H 0.23781 0.23222 0.18497 0.0
H513 H 0.08286 0.12781 0.28692 0.0
H514 H 0.05363 0.18634 0.28149 0.0
H515 H 0.2015 0.30354 0.25769 0.0
C516 C 0.26655 0.1725 0.26955 0.0
C517 C 0.25029 0.12246 0.27606 0.0
C518 C 0.20001 0.08935 0.28211 0.0
C519 C 0.16638 0.10605 0.28237 0.0
C520 C 0.18382 0.15581 0.27615 0.0
C521 C 0.2327 0.18843 0.26946 0.0
C522 C 0.24219 0.23987 0.26283 0.0
C523 C 0.27635 0.27508 0.30236 0.0
C524 C 0.26265 0.258 0.21326 0.0
C525 C 0.19094 0.23137 0.26734 0.0
C526 C 0.15789 0.18268 0.27519 0.0
C527 C 0.10843 0.16598 0.28084 0.0
C528 C 0.09226 0.19976 0.27807 0.0
C529 C 0.12535 0.24984 0.26952 0.0
C530 C 0.17537 0.26561 0.26412 0.0
H531 H 0.91476 0.72412 0.26279 0.0
H532 H 0.88531 0.84431 0.26462 0.0
H533 H 0.97369 0.90264 0.25556 0.0
H534 H 0.02649 0.78447 0.32947 0.0
H535 H 0.0548 0.75673 0.29532 0.0
H536 H 0.98946 0.72498 0.3012 0.0
H537 H 0.97882 0.71752 0.20956 0.0
H538 H 0.04414 0.74941 0.20322 0.0
H539 H 1.00835 0.7719 0.175 0.0
H540 H 0.06521 0.94727 0.24794 0.0
H541 H 0.15323 0.97551 0.24251 0.0
H542 H 0.12242 0.8258 0.2449 0.0
C543 C 0.92671 0.76272 0.26139 0.0
C544 C 0.89312 0.77979 0.26447 0.0
C545 C 0.91039 0.83052 0.26219 0.0
C546 C 0.96045 0.8638 0.25706 0.0
C547 C 0.99245 0.84554 0.25402 0.0
C548 C 0.97621 0.79616 0.25603 0.0
C549 C 0.01789 0.78574 0.25218 0.0
C550 C 0.02242 0.76157 0.29723 0.0
C551 C 1.01193 0.75429 0.20732 0.0
C552 C 0.06052 0.83718 0.24815 0.0
C553 C 0.04498 0.87109 0.24925 0.0
C554 C 0.07769 0.92104 0.24711 0.0
C555 C 0.12752 0.93675 0.24438 0.0
C556 C 0.14429 0.90276 0.24391 0.0
C557 C 0.1103 0.85231 0.24505 0.0
H558 H 0.82613 0.11709 0.26192 0.0
H559 H 0.97448 0.14961 0.2366 0.0
H560 H 0.94492 0.06091 0.22744 0.0
H561 H 0.79069 1.01131 0.33087 0.0
H562 H 0.72912 0.97872 0.30712 0.0
H563 H 0.76199 0.04458 0.31032 0.0
H564 H 0.74706 0.04647 0.22004 0.0
H565 H 0.7143 0.98058 0.21643 0.0
H566 H 0.76577 0.01474 0.17874 0.0
H567 H 0.89879 0.96861 0.22147 0.0
H568 H 0.84178 0.88043 0.22383 0.0
H569 H 0.72278 0.90787 0.25296 0.0
C570 C 0.8525 0.10568 0.25427 0.0
C571 C 0.90274 0.14035 0.24994 0.0
C572 C 0.93595 0.12374 0.24031 0.0
C573 C 0.91942 0.07346 0.2348 0.0
C574 C 0.86959 0.04033 0.23912 0.0
C575 C 0.83669 0.05578 0.24891 0.0
C576 C 0.78529 1.0128 0.25322 0.0
C577 C 0.76564 1.0118 0.30336 0.0
C578 C 0.7511 0.01372 0.21481 0.0
C579 C 0.79434 0.97054 0.24449 0.0
C580 C 0.84313 0.98726 0.2361 0.0
C581 C 0.86048 0.95516 0.2278 0.0
C582 C 0.82739 0.90474 0.22891 0.0
C583 C 0.77718 0.88642 0.23853 0.0
C584 C 0.7607 0.92023 0.24577 0.0
H585 H 0.20123 0.30097 0.7609 0.0
H586 H 0.06059 0.19185 0.81363 0.0
H587 H 0.09264 0.13566 0.82517 0.0
H588 H 0.22836 0.21815 0.69713 0.0
H589 H 0.29264 0.25235 0.71195 0.0
H590 H 0.25822 0.2834 0.70792 0.0
H591 H 0.28606 0.31892 0.79364 0.0
H592 H 0.32034 0.28772 0.79812 0.0
H593 H 0.27486 0.27796 0.84158 0.0
H594 H 0.14051 0.0922 0.83113 0.0
H595 H 0.19783 0.06194 0.82735 0.0
H596 H 0.30874 0.2008 0.77215 0.0
C597 C 0.17699 0.26518 0.77475 0.0
C598 C 0.12811 0.2505 0.78607 0.0
C599 C 0.09779 0.20346 0.80413 0.0
C600 C 0.11586 0.17155 0.81113 0.0
C601 C 0.16437 0.18743 0.79995 0.0
C602 C 0.19443 0.23305 0.78194 0.0
C603 C 0.24498 0.24117 0.77233 0.0
C604 C 0.25671 0.24922 0.71917 0.0
C605 C 0.28384 0.28398 0.80327 0.0
C606 C 0.23865 0.19273 0.78748 0.0
C607 C 0.192 0.16246 0.80354 0.0
C608 C 0.17719 0.11565 0.81875 0.0
C609 C 0.21055 0.09889 0.81666 0.0
C610 C 0.25849 0.12872 0.79926 0.0
C611 C 0.27258 0.17667 0.78524 0.0
H612 H 0.11936 0.82781 0.76153 0.0
H613 H 0.15229 0.97571 0.79753 0.0
H614 H 0.06382 0.94567 0.80564 0.0
H615 H 1.00911 0.79221 0.69234 0.0
H616 H 0.97877 0.73035 0.71271 0.0
H617 H 0.04432 0.76414 0.70874 0.0
H618 H 0.05195 0.7484 0.79742 0.0
H619 H 0.98645 0.715 0.80188 0.0
H620 H 0.02263 0.76642 0.84182 0.0
H621 H 0.97202 0.89811 0.81372 0.0
H622 H 0.88417 0.83956 0.81377 0.0
H623 H 0.91116 0.72237 0.77117 0.0
C624 C 0.10808 0.85411 0.77075 0.0
C625 C 0.14278 0.90423 0.77903 0.0
C626 C 0.12637 0.93729 0.79086 0.0
C627 C 0.07625 0.92046 0.79577 0.0
C628 C 0.04316 0.87058 0.78833 0.0
C629 C 0.05842 0.83803 0.77546 0.0
C630 C 1.01566 0.78633 0.76924 0.0
C631 C 1.01174 0.76715 0.71769 0.0
C632 C 0.01942 0.75203 0.80471 0.0
C633 C 0.9737 0.79466 0.78087 0.0
C634 C 0.9904 0.84343 0.79209 0.0
C635 C 0.95859 0.85992 0.80471 0.0
C636 C 0.90841 0.82599 0.80491 0.0
C637 C 0.89001 0.7759 0.79217 0.0
C638 C 0.92359 0.76026 0.78057 0.0
H639 H 0.82746 0.11905 0.80392 0.0
H640 H 0.97607 0.14661 0.81257 0.0
H641 H 0.9457 0.05846 0.81137 0.0
H642 H 0.77332 1.01063 0.87736 0.0
H643 H 0.71814 0.97946 0.84153 0.0
H644 H 0.75157 0.04532 0.8461 0.0
H645 H 0.7569 0.04898 0.75424 0.0
H646 H 0.72381 0.98316 0.74953 0.0
H647 H 0.78284 0.01725 0.72279 0.0
H648 H 0.89976 0.96678 0.80343 0.0
H649 H 0.84033 0.87816 0.79455 0.0
H650 H 0.72172 0.90951 0.79188 0.0
C651 C 0.85355 0.10654 0.80604 0.0
C652 C 0.90431 0.14029 0.80892 0.0
C653 C 0.93713 0.1221 0.81151 0.0
C654 C 0.9202 0.07178 0.81039 0.0
C655 C 0.87016 0.03967 0.80683 0.0
C656 C 0.8372 0.05621 0.80514 0.0
C657 C 0.78529 0.01375 0.80047 0.0
C658 C 0.75532 1.01221 0.84396 0.0
C659 C 0.76079 0.01593 0.75399 0.0
C660 C 0.79444 0.97103 0.79921 0.0
C661 C 0.84364 0.98673 0.80283 0.0
C662 C 0.86104 0.95397 0.8011 0.0
C663 C 0.82712 0.90373 0.79601 0.0
C664 C 0.77647 0.88677 0.793 0.0
C665 C 0.76019 0.92113 0.79448 0.0
loop_
_geom_bond_atom_site_label_1
_geom_bond_atom_site_label_2
_geom_bond_distance
_geom_bond_site_symmetry_2
_ccdc_geom_bond_type
Co0 N5 2.057 1_545 S
Co0 O17 2.021 . S
Co0 O20 2.062 . S
Co0 O24 2.117 . S
Co0 O25 2.020 . S
C1 O21 1.259 . S
C1 O24 1.258 . S
Co2 N11 2.057 . S
Co2 O18 2.117 . S
Co2 O19 2.020 . S
Co2 O21 2.021 . S
Co2 O26 2.062 . S
C3 N5 1.316 . S
C3 N6 1.347 . S
C3 H8 0.931 . S
C4 N5 1.375 . S
C4 C7 1.350 . S
C4 H9 0.930 . S
N5 Co0 2.057 1_565 S
N5 C3 1.316 . S
N5 C4 1.375 . S
N6 C3 1.347 . S
N6 C7 1.373 . S
C7 C4 1.350 . S
C7 N6 1.373 . S
C7 H28 0.931 . S
H8 C3 0.931 . S
H9 C4 0.930 . S
C10 O17 1.259 . S
C10 O18 1.258 . S
N11 Co2 2.057 . S
N11 C12 1.316 . S
N11 C13 1.375 . S
C12 N11 1.316 . S
C12 N14 1.347 . S
C12 H23 0.931 . S
C13 N11 1.375 . S
C13 C15 1.350 . S
C13 H22 0.930 . S
N14 C12 1.347 . S
N14 C15 1.373 . S
C15 C13 1.350 . S
C15 N14 1.373 . S
C15 H29 0.931 . S
C16 O19 1.256 . S
C16 O20 1.255 . S
O17 Co0 2.021 . S
O17 C10 1.259 . S
O18 Co2 2.117 . S
O18 C10 1.258 . S
O19 Co2 2.020 . S
O19 C16 1.256 . S
O20 Co0 2.062 . S
O20 C16 1.255 . S
O21 C1 1.259 . S
O21 Co2 2.021 . S
H22 C13 0.930 . S
H23 C12 0.931 . S
O24 Co0 2.117 . S
O24 C1 1.258 . S
O25 Co0 2.020 . S
O25 C27 1.256 . S
O26 Co2 2.062 . S
O26 C27 1.255 . S
C27 O25 1.256 . S
C27 O26 1.255 . S
H28 C7 0.931 . S
H29 C15 0.931 . S
Co30 N35 2.057 . S
Co30 O47 2.021 . S
Co30 O50 2.062 . S
Co30 O54 2.117 . S
Co30 O55 2.020 . S
C31 O51 1.259 . S
C31 O54 1.258 . S
Co32 N41 2.057 . S
Co32 O48 2.117 . S
Co32 O49 2.020 . S
Co32 O51 2.021 . S
Co32 O56 2.062 . S
C33 N35 1.316 . S
C33 N36 1.347 . S
C33 H38 0.931 . S
C34 N35 1.375 . S
C34 C37 1.350 . S
C34 H39 0.930 . S
N35 Co30 2.057 . S
N35 C33 1.316 . S
N35 C34 1.375 . S
N36 C33 1.347 . S
N36 C37 1.373 . S
C37 C34 1.350 . S
C37 N36 1.373 . S
C37 H58 0.931 . S
H38 C33 0.931 . S
H39 C34 0.930 . S
C40 O47 1.259 . S
C40 O48 1.258 . S
N41 Co32 2.057 . S
N41 C42 1.316 . S
N41 C43 1.375 . S
C42 N41 1.316 . S
C42 N44 1.347 . S
C42 H53 0.931 . S
C43 N41 1.375 . S
C43 C45 1.350 . S
C43 H52 0.930 . S
N44 C42 1.347 . S
N44 C45 1.373 . S
C45 C43 1.350 . S
C45 N44 1.373 . S
C45 H59 0.931 . S
C46 O49 1.256 . S
C46 O50 1.255 . S
O47 Co30 2.021 . S
O47 C40 1.259 . S
O48 Co32 2.117 . S
O48 C40 1.258 . S
O49 Co32 2.020 . S
O49 C46 1.256 . S
O50 Co30 2.062 . S
O50 C46 1.255 . S
O51 C31 1.259 . S
O51 Co32 2.021 . S
H52 C43 0.930 . S
H53 C42 0.931 . S
O54 Co30 2.117 . S
O54 C31 1.258 . S
O55 Co30 2.020 . S
O55 C57 1.256 . S
O56 Co32 2.062 . S
O56 C57 1.255 . S
C57 O55 1.256 . S
C57 O56 1.255 . S
H58 C37 0.931 . S
H59 C45 0.931 . S
Co60 N65 2.057 1_655 S
Co60 O77 2.021 . S
Co60 O80 2.062 . S
Co60 O84 2.117 . S
Co60 O85 2.020 . S
C61 O81 1.259 . S
C61 O84 1.258 . S
Co62 N71 2.057 . S
Co62 O78 2.117 . S
Co62 O79 2.020 . S
Co62 O81 2.021 . S
Co62 O86 2.062 . S
C63 N65 1.316 . S
C63 N66 1.347 . S
C63 H68 0.931 . S
C64 N65 1.375 . S
C64 C67 1.350 . S
C64 H69 0.930 . S
N65 Co60 2.057 1_455 S
N65 C63 1.316 . S
N65 C64 1.375 . S
N66 C63 1.347 . S
N66 C67 1.373 . S
C67 C64 1.350 . S
C67 N66 1.373 . S
C67 H88 0.931 . S
H68 C63 0.931 . S
H69 C64 0.930 . S
C70 O77 1.259 . S
C70 O78 1.258 . S
N71 Co62 2.057 . S
N71 C72 1.316 . S
N71 C73 1.375 . S
C72 N71 1.316 . S
C72 N74 1.347 . S
C72 H83 0.931 . S
C73 N71 1.375 . S
C73 C75 1.350 . S
C73 H82 0.930 . S
N74 C72 1.347 . S
N74 C75 1.373 . S
C75 C73 1.350 . S
C75 N74 1.373 . S
C75 H89 0.931 . S
C76 O79 1.256 . S
C76 O80 1.255 . S
O77 Co60 2.021 . S
O77 C70 1.259 . S
O78 Co62 2.117 . S
O78 C70 1.258 . S
O79 Co62 2.020 . S
O79 C76 1.256 . S
O80 Co60 2.062 . S
O80 C76 1.255 . S
O81 C61 1.259 . S
O81 Co62 2.021 . S
H82 C73 0.930 . S
H83 C72 0.931 . S
O84 Co60 2.117 . S
O84 C61 1.258 . S
O85 Co60 2.020 . S
O85 C87 1.256 . S
O86 Co62 2.062 . S
O86 C87 1.255 . S
C87 O85 1.256 . S
C87 O86 1.255 . S
H88 C67 0.931 . S
H89 C75 0.931 . S
Co90 N95 2.057 . S
Co90 O107 2.021 . S
Co90 O110 2.062 . S
Co90 O114 2.117 . S
Co90 O115 2.020 . S
C91 O111 1.259 . S
C91 O114 1.258 . S
Co92 N101 2.057 1_455 S
Co92 O108 2.117 . S
Co92 O109 2.020 . S
Co92 O111 2.021 . S
Co92 O116 2.062 . S
C93 N95 1.316 . S
C93 N96 1.347 . S
C93 H98 0.931 . S
C94 N95 1.375 . S
C94 C97 1.350 . S
C94 H99 0.930 . S
N95 Co90 2.057 . S
N95 C93 1.316 . S
N95 C94 1.375 . S
N96 C93 1.347 . S
N96 C97 1.373 . S
C97 C94 1.350 . S
C97 N96 1.373 . S
C97 H118 0.931 . S
H98 C93 0.931 . S
H99 C94 0.930 . S
C100 O107 1.259 . S
C100 O108 1.258 . S
N101 Co92 2.057 1_655 S
N101 C102 1.316 . S
N101 C103 1.375 . S
C102 N101 1.316 . S
C102 N104 1.347 . S
C102 H113 0.931 . S
C103 N101 1.375 . S
C103 C105 1.350 . S
C103 H112 0.930 . S
N104 C102 1.347 . S
N104 C105 1.373 . S
C105 C103 1.350 . S
C105 N104 1.373 . S
C105 H119 0.931 . S
C106 O109 1.256 . S
C106 O110 1.255 . S
O107 Co90 2.021 . S
O107 C100 1.259 . S
O108 Co92 2.117 . S
O108 C100 1.258 . S
O109 Co92 2.020 . S
O109 C106 1.256 . S
O110 Co90 2.062 . S
O110 C106 1.255 . S
O111 C91 1.259 . S
O111 Co92 2.021 . S
H112 C103 0.930 . S
H113 C102 0.931 . S
O114 Co90 2.117 . S
O114 C91 1.258 . S
O115 Co90 2.020 . S
O115 C117 1.256 . S
O116 Co92 2.062 . S
O116 C117 1.255 . S
C117 O115 1.256 . S
C117 O116 1.255 . S
H118 C97 0.931 . S
H119 C105 0.931 . S
Co120 N125 2.057 . S
Co120 O137 2.021 . S
Co120 O140 2.062 . S
Co120 O144 2.117 . S
Co120 O145 2.020 . S
C121 O141 1.259 . S
C121 O144 1.258 . S
Co122 N131 2.057 1_565 S
Co122 O138 2.117 . S
Co122 O139 2.020 . S
Co122 O141 2.021 . S
Co122 O146 2.062 . S
C123 N125 1.316 . S
C123 N126 1.347 . S
C123 H128 0.931 . S
C124 N125 1.375 . S
C124 C127 1.350 . S
C124 H129 0.930 . S
N125 Co120 2.057 . S
N125 C123 1.316 . S
N125 C124 1.375 . S
N126 C123 1.347 . S
N126 C127 1.373 . S
C127 C124 1.350 . S
C127 N126 1.373 . S
C127 H148 0.931 . S
H128 C123 0.931 . S
H129 C124 0.930 . S
C130 O137 1.259 . S
C130 O138 1.258 . S
N131 Co122 2.057 1_545 S
N131 C132 1.316 . S
N131 C133 1.375 . S
C132 N131 1.316 . S
C132 N134 1.347 . S
C132 H143 0.931 . S
C133 N131 1.375 . S
C133 C135 1.350 . S
C133 H142 0.930 . S
N134 C132 1.347 . S
N134 C135 1.373 . S
C135 C133 1.350 . S
C135 N134 1.373 . S
C135 H149 0.931 . S
C136 O139 1.256 . S
C136 O140 1.255 . S
O137 Co120 2.021 . S
O137 C130 1.259 . S
O138 Co122 2.117 . S
O138 C130 1.258 . S
O139 Co122 2.020 . S
O139 C136 1.256 . S
O140 Co120 2.062 . S
O140 C136 1.255 . S
O141 C121 1.259 . S
O141 Co122 2.021 . S
H142 C133 0.930 . S
H143 C132 0.931 . S
O144 Co120 2.117 . S
O144 C121 1.258 . S
O145 Co120 2.020 . S
O145 C147 1.256 . S
O146 Co122 2.062 . S
O146 C147 1.255 . S
C147 O145 1.256 . S
C147 O146 1.255 . S
H148 C127 0.931 . S
H149 C135 0.931 . S
Co150 N155 2.057 . S
Co150 O167 2.021 . S
Co150 O170 2.062 . S
Co150 O174 2.117 . S
Co150 O175 2.020 . S
C151 O171 1.259 . S
C151 O174 1.258 . S
Co152 N161 2.057 . S
Co152 O168 2.117 . S
Co152 O169 2.020 . S
Co152 O171 2.021 . S
Co152 O176 2.062 . S
C153 N155 1.316 . S
C153 N156 1.347 . S
C153 H158 0.931 . S
C154 N155 1.375 . S
C154 C157 1.350 . S
C154 H159 0.930 . S
N155 Co150 2.057 . S
N155 C153 1.316 . S
N155 C154 1.375 . S
N156 C153 1.347 . S
N156 C157 1.373 . S
C157 C154 1.350 . S
C157 N156 1.373 . S
C157 H178 0.931 . S
H158 C153 0.931 . S
H159 C154 0.930 . S
C160 O167 1.259 . S
C160 O168 1.258 . S
N161 Co152 2.057 . S
N161 C162 1.316 . S
N161 C163 1.375 . S
C162 N161 1.316 . S
C162 N164 1.347 . S
C162 H173 0.931 . S
C163 N161 1.375 . S
C163 C165 1.350 . S
C163 H172 0.930 . S
N164 C162 1.347 . S
N164 C165 1.373 . S
C165 C163 1.350 . S
C165 N164 1.373 . S
C165 H179 0.931 . S
C166 O169 1.256 . S
C166 O170 1.255 . S
O167 Co150 2.021 . S
O167 C160 1.259 . S
O168 Co152 2.117 . S
O168 C160 1.258 . S
O169 Co152 2.020 . S
O169 C166 1.256 . S
O170 Co150 2.062 . S
O170 C166 1.255 . S
O171 C151 1.259 . S
O171 Co152 2.021 . S
H172 C163 0.930 . S
H173 C162 0.931 . S
O174 Co150 2.117 . S
O174 C151 1.258 . S
O175 Co150 2.020 . S
O175 C177 1.256 . S
O176 Co152 2.062 . S
O176 C177 1.255 . S
C177 O175 1.256 . S
C177 O176 1.255 . S
H178 C157 0.931 . S
H179 C165 0.931 . S
H180 C192 0.930 . S
H181 C194 0.930 . S
H182 C195 0.930 1_554 S
H183 C199 0.959 . S
H184 C199 0.959 . S
H185 C199 0.961 . S
H186 C200 0.960 . S
H187 C200 0.961 . S
H188 C200 0.959 . S
H189 C203 0.929 . S
H190 C204 0.931 . S
H191 C206 0.930 . S
C192 H180 0.930 . S
C192 C193 1.399 . S
C192 C197 1.399 . S
C193 C192 1.399 . S
C193 C194 1.376 . S
C194 H181 0.930 . S
C194 C193 1.376 . S
C194 C195 1.388 . S
C195 H182 0.930 1_556 S
C195 C194 1.388 . S
C195 C196 1.390 . S
C196 C195 1.390 . S
C196 C197 1.394 . S
C196 C202 1.465 1_556 S
C197 C192 1.399 . S
C197 C196 1.394 . S
C197 C198 1.516 1_565 S
C198 C197 1.516 1_545 S
C198 C199 1.502 . S
C198 C200 1.561 . S
C198 C201 1.526 1_556 S
C199 H183 0.959 . S
C199 H184 0.959 . S
C199 H185 0.961 . S
C199 C198 1.502 . S
C200 H186 0.960 . S
C200 H187 0.961 . S
C200 H188 0.959 . S
C200 C198 1.561 . S
C201 C198 1.526 1_554 S
C201 C202 1.396 1_545 S
C201 C206 1.390 . S
C202 C196 1.465 1_554 S
C202 C201 1.396 1_565 S
C202 C203 1.399 . S
C203 H189 0.929 . S
C203 C202 1.399 . S
C203 C204 1.385 1_565 S
C204 H190 0.931 . S
C204 C203 1.385 1_545 S
C204 C205 1.389 . S
C205 C204 1.389 . S
C205 C206 1.387 . S
C206 H191 0.930 . S
C206 C201 1.390 . S
C206 C205 1.387 . S
H207 C219 0.930 . S
H208 C221 0.930 . S
H209 C222 0.930 . S
H210 C226 0.959 . S
H211 C226 0.959 . S
H212 C226 0.961 . S
H213 C227 0.960 . S
H214 C227 0.961 . S
H215 C227 0.959 . S
H216 C230 0.929 . S
H217 C231 0.931 . S
H218 C233 0.930 . S
C219 H207 0.930 . S
C219 C220 1.399 . S
C219 C224 1.399 . S
C220 C219 1.399 . S
C220 C221 1.376 . S
C221 H208 0.930 . S
C221 C220 1.376 . S
C221 C222 1.388 . S
C222 H209 0.930 . S
C222 C221 1.388 . S
C222 C223 1.390 . S
C223 C222 1.390 . S
C223 C224 1.394 . S
C223 C229 1.465 . S
C224 C219 1.399 . S
C224 C223 1.394 . S
C224 C225 1.516 . S
C225 C224 1.516 . S
C225 C226 1.502 . S
C225 C227 1.561 . S
C225 C228 1.526 . S
C226 H210 0.959 . S
C226 H211 0.959 . S
C226 H212 0.961 . S
C226 C225 1.502 . S
C227 H213 0.960 . S
C227 H214 0.961 . S
C227 H215 0.959 . S
C227 C225 1.561 . S
C228 C225 1.526 . S
C228 C229 1.396 . S
C228 C233 1.390 . S
C229 C223 1.465 . S
C229 C228 1.396 . S
C229 C230 1.399 . S
C230 H216 0.929 . S
C230 C229 1.399 . S
C230 C231 1.385 . S
C231 H217 0.931 . S
C231 C230 1.385 . S
C231 C232 1.389 . S
C232 C231 1.389 . S
C232 C233 1.387 . S
C233 H218 0.930 . S
C233 C228 1.390 . S
C233 C232 1.387 . S
H234 C246 0.930 . S
H235 C248 0.930 . S
H236 C249 0.930 . S
H237 C253 0.959 . S
H238 C253 0.959 . S
H239 C253 0.961 . S
H240 C254 0.960 1_554 S
H241 C254 0.961 1_455 S
H242 C254 0.959 . S
H243 C257 0.929 1_655 S
H244 C258 0.931 . S
H245 C260 0.930 . S
C246 H234 0.930 . S
C246 C247 1.399 . S
C246 C251 1.399 . S
C247 C246 1.399 . S
C247 C248 1.376 . S
C248 H235 0.930 . S
C248 C247 1.376 . S
C248 C249 1.388 . S
C249 H236 0.930 . S
C249 C248 1.388 . S
C249 C250 1.390 . S
C250 C249 1.390 . S
C250 C251 1.394 . S
C250 C256 1.465 1_654 S
C251 C246 1.399 . S
C251 C250 1.394 . S
C251 C252 1.516 1_655 S
C252 C251 1.516 1_455 S
C252 C253 1.502 . S
C252 C254 1.561 1_454 S
C252 C255 1.526 1_554 S
C253 H237 0.959 . S
C253 H238 0.959 . S
C253 H239 0.961 . S
C253 C252 1.502 . S
C254 H240 0.960 1_556 S
C254 H241 0.961 1_655 S
C254 H242 0.959 . S
C254 C252 1.561 1_656 S
C255 C252 1.526 1_556 S
C255 C256 1.396 . S
C255 C260 1.390 . S
C256 C250 1.465 1_456 S
C256 C255 1.396 . S
C256 C257 1.399 . S
C257 H243 0.929 1_455 S
C257 C256 1.399 . S
C257 C258 1.385 . S
C258 H244 0.931 . S
C258 C257 1.385 . S
C258 C259 1.389 . S
C259 C258 1.389 . S
C259 C260 1.387 . S
C260 H245 0.930 . S
C260 C255 1.390 . S
C260 C259 1.387 . S
H261 C273 0.930 . S
H262 C275 0.930 . S
H263 C276 0.930 . S
H264 C280 0.959 . S
H265 C280 0.959 . S
H266 C280 0.961 . S
H267 C281 0.960 . S
H268 C281 0.961 . S
H269 C281 0.959 . S
H270 C284 0.929 . S
H271 C285 0.931 . S
H272 C287 0.930 . S
C273 H261 0.930 . S
C273 C274 1.399 . S
C273 C278 1.399 . S
C274 C273 1.399 . S
C274 C275 1.376 . S
C275 H262 0.930 . S
C275 C274 1.376 . S
C275 C276 1.388 1_545 S
C276 H263 0.930 . S
C276 C275 1.388 1_565 S
C276 C277 1.396 1_565 S
C277 C276 1.396 1_545 S
C277 C278 1.402 . S
C277 C283 1.451 1_545 S
C278 C273 1.399 . S
C278 C277 1.402 . S
C278 C279 1.516 . S
C279 C278 1.516 . S
C279 C280 1.502 . S
C279 C281 1.561 . S
C279 C282 1.526 1_545 S
C280 H264 0.959 . S
C280 H265 0.959 . S
C280 H266 0.961 . S
C280 C279 1.502 . S
C281 H267 0.960 . S
C281 H268 0.961 . S
C281 H269 0.959 . S
C281 C279 1.561 . S
C282 C279 1.526 1_565 S
C282 C283 1.396 . S
C282 C287 1.390 . S
C283 C277 1.451 1_565 S
C283 C282 1.396 . S
C283 C284 1.399 . S
C284 H270 0.929 . S
C284 C283 1.399 . S
C284 C285 1.385 . S
C285 H271 0.931 . S
C285 C284 1.385 . S
C285 C286 1.389 . S
C286 C285 1.389 . S
C286 C287 1.387 . S
C287 H272 0.930 . S
C287 C282 1.390 . S
C287 C286 1.387 . S
H288 C300 0.930 . S
H289 C302 0.930 . S
H290 C303 0.930 . S
H291 C307 0.959 1_556 S
H292 C307 0.959 . S
H293 C307 0.961 1_556 S
H294 C308 0.960 . S
H295 C308 0.961 . S
H296 C308 0.959 . S
H297 C311 0.929 . S
H298 C312 0.931 . S
H299 C314 0.930 . S
C300 H288 0.930 . S
C300 C301 1.399 . S
C300 C305 1.399 . S
C301 C300 1.399 . S
C301 C302 1.376 . S
C302 H289 0.930 . S
C302 C301 1.376 . S
C302 C303 1.388 . S
C303 H290 0.930 . S
C303 C302 1.388 . S
C303 C304 1.390 . S
C304 C303 1.390 . S
C304 C305 1.394 . S
C304 C310 1.465 1_556 S
C305 C300 1.399 . S
C305 C304 1.394 . S
C305 C306 1.516 1_556 S
C306 C305 1.516 1_554 S
C306 C307 1.502 . S
C306 C308 1.561 . S
C306 C309 1.526 . S
C307 H291 0.959 1_554 S
C307 H292 0.959 . S
C307 H293 0.961 1_554 S
C307 C306 1.502 . S
C308 H294 0.960 . S
C308 H295 0.961 . S
C308 H296 0.959 . S
C308 C306 1.561 . S
C309 C306 1.526 . S
C309 C310 1.396 . S
C309 C314 1.390 . S
C310 C304 1.465 1_554 S
C310 C309 1.396 . S
C310 C311 1.399 . S
C311 H297 0.929 . S
C311 C310 1.399 . S
C311 C312 1.385 . S
C312 H298 0.931 . S
C312 C311 1.385 . S
C312 C313 1.389 . S
C313 C312 1.389 . S
C313 C314 1.387 . S
C314 H299 0.930 . S
C314 C309 1.390 . S
C314 C313 1.387 . S
H315 C327 0.930 . S
H316 C329 0.930 . S
H317 C330 0.930 . S
H318 C334 0.959 . S
H319 C334 0.959 . S
H320 C334 0.961 . S
H321 C335 0.960 . S
H322 C335 0.961 . S
H323 C335 0.959 . S
H324 C338 0.929 . S
H325 C339 0.931 . S
H326 C341 0.930 . S
C327 H315 0.930 . S
C327 C328 1.399 . S
C327 C332 1.399 . S
C328 C327 1.399 . S
C328 C329 1.376 . S
C329 H316 0.930 . S
C329 C328 1.376 . S
C329 C330 1.388 . S
C330 H317 0.930 . S
C330 C329 1.388 . S
C330 C331 1.390 . S
C331 C330 1.390 . S
C331 C332 1.394 . S
C331 C337 1.465 . S
C332 C327 1.399 . S
C332 C331 1.394 . S
C332 C333 1.516 1_655 S
C333 C332 1.516 1_455 S
C333 C334 1.502 . S
C333 C335 1.561 . S
C333 C336 1.526 . S
C334 H318 0.959 . S
C334 H319 0.959 . S
C334 H320 0.961 . S
C334 C333 1.502 . S
C335 H321 0.960 . S
C335 H322 0.961 . S
C335 H323 0.959 . S
C335 C333 1.561 . S
C336 C333 1.526 . S
C336 C337 1.396 1_455 S
C336 C341 1.390 . S
C337 C331 1.465 . S
C337 C336 1.396 1_655 S
C337 C338 1.399 . S
C338 H324 0.929 . S
C338 C337 1.399 . S
C338 C339 1.385 1_655 S
C339 H325 0.931 . S
C339 C338 1.385 1_455 S
C339 C340 1.389 . S
C340 C339 1.389 . S
C340 C341 1.387 . S
C341 H326 0.930 . S
C341 C336 1.390 . S
C341 C340 1.387 . S
H342 C354 0.930 . S
H343 C356 0.930 . S
H344 C357 0.930 . S
H345 C361 0.959 . S
H346 C361 0.959 . S
H347 C361 0.961 . S
H348 C362 0.960 . S
H349 C362 0.961 . S
H350 C362 0.959 . S
H351 C365 0.929 . S
H352 C366 0.931 . S
H353 C368 0.930 . S
C354 H342 0.930 . S
C354 C355 1.399 . S
C354 C359 1.399 . S
C355 C354 1.399 . S
C355 C356 1.376 . S
C356 H343 0.930 . S
C356 C355 1.376 . S
C356 C357 1.388 . S
C357 H344 0.930 . S
C357 C356 1.388 . S
C357 C358 1.390 . S
C358 C357 1.390 . S
C358 C359 1.394 . S
C358 C364 1.465 . S
C359 C354 1.399 . S
C359 C358 1.394 . S
C359 C360 1.516 . S
C360 C359 1.516 . S
C360 C361 1.502 . S
C360 C362 1.561 . S
C360 C363 1.526 . S
C361 H345 0.959 . S
C361 H346 0.959 . S
C361 H347 0.961 . S
C361 C360 1.502 . S
C362 H348 0.960 . S
C362 H349 0.961 . S
C362 H350 0.959 . S
C362 C360 1.561 . S
C363 C360 1.526 . S
C363 C364 1.396 . S
C363 C368 1.390 . S
C364 C358 1.465 . S
C364 C363 1.396 . S
C364 C365 1.399 . S
C365 H351 0.929 . S
C365 C364 1.399 . S
C365 C366 1.385 . S
C366 H352 0.931 . S
C366 C365 1.385 . S
C366 C367 1.389 . S
C367 C366 1.389 . S
C367 C368 1.387 . S
C368 H353 0.930 . S
C368 C363 1.390 . S
C368 C367 1.387 . S
H369 C381 0.930 . S
H370 C383 0.930 . S
H371 C384 0.930 . S
H372 C388 0.959 . S
H373 C388 0.959 . S
H374 C388 0.961 . S
H375 C389 0.960 . S
H376 C389 0.961 . S
H377 C389 0.959 . S
H378 C392 0.929 . S
H379 C393 0.931 . S
H380 C395 0.930 . S
C381 H369 0.930 . S
C381 C382 1.399 . S
C381 C386 1.399 . S
C382 C381 1.399 . S
C382 C383 1.376 . S
C383 H370 0.930 . S
C383 C382 1.376 . S
C383 C384 1.388 . S
C384 H371 0.930 . S
C384 C383 1.388 . S
C384 C385 1.390 . S
C385 C384 1.390 . S
C385 C386 1.394 . S
C385 C391 1.465 . S
C386 C381 1.399 . S
C386 C385 1.394 . S
C386 C387 1.516 . S
C387 C386 1.516 . S
C387 C388 1.502 . S
C387 C389 1.561 . S
C387 C390 1.526 . S
C388 H372 0.959 . S
C388 H373 0.959 . S
C388 H374 0.961 . S
C388 C387 1.502 . S
C389 H375 0.960 . S
C389 H376 0.961 . S
C389 H377 0.959 . S
C389 C387 1.561 . S
C390 C387 1.526 . S
C390 C391 1.396 . S
C390 C395 1.390 . S
C391 C385 1.465 . S
C391 C390 1.396 . S
C391 C392 1.399 . S
C392 H378 0.929 . S
C392 C391 1.399 . S
C392 C393 1.385 . S
C393 H379 0.931 . S
C393 C392 1.385 . S
C393 C394 1.389 . S
C394 C393 1.389 . S
C394 C395 1.387 . S
C395 H380 0.930 . S
C395 C390 1.390 . S
C395 C394 1.387 . S
H396 C408 0.930 . S
H397 C410 0.930 . S
H398 C411 0.930 . S
H399 C415 0.959 . S
H400 C415 0.959 . S
H401 C415 0.961 . S
H402 C416 0.960 . S
H403 C416 0.961 . S
H404 C416 0.959 . S
H405 C419 0.929 . S
H406 C420 0.931 . S
H407 C422 0.930 . S
C408 H396 0.930 . S
C408 C409 1.399 . S
C408 C413 1.399 . S
C409 C408 1.399 . S
C409 C410 1.376 . S
C410 H397 0.930 . S
C410 C409 1.376 . S
C410 C411 1.388 . S
C411 H398 0.930 . S
C411 C410 1.388 . S
C411 C412 1.390 . S
C412 C411 1.390 . S
C412 C413 1.394 . S
C412 C418 1.465 . S
C413 C408 1.399 . S
C413 C412 1.394 . S
C413 C414 1.516 . S
C414 C413 1.516 . S
C414 C415 1.502 . S
C414 C416 1.561 . S
C414 C417 1.526 . S
C415 H399 0.959 . S
C415 H400 0.959 . S
C415 H401 0.961 . S
C415 C414 1.502 . S
C416 H402 0.960 . S
C416 H403 0.961 . S
C416 H404 0.959 . S
C416 C414 1.561 . S
C417 C414 1.526 . S
C417 C418 1.396 . S
C417 C422 1.390 . S
C418 C412 1.465 . S
C418 C417 1.396 . S
C418 C419 1.399 . S
C419 H405 0.929 . S
C419 C418 1.399 . S
C419 C420 1.385 . S
C420 H406 0.931 . S
C420 C419 1.385 . S
C420 C421 1.389 . S
C421 C420 1.389 . S
C421 C422 1.387 . S
C422 H407 0.930 . S
C422 C417 1.390 . S
C422 C421 1.387 . S
H423 C435 0.930 . S
H424 C437 0.930 . S
H425 C438 0.930 . S
H426 C442 0.959 . S
H427 C442 0.959 . S
H428 C442 0.961 . S
H429 C443 0.960 . S
H430 C443 0.961 . S
H431 C443 0.959 . S
H432 C446 0.929 . S
H433 C447 0.931 . S
H434 C449 0.930 . S
C435 H423 0.930 . S
C435 C436 1.399 . S
C435 C440 1.399 . S
C436 C435 1.399 . S
C436 C437 1.376 . S
C437 H424 0.930 . S
C437 C436 1.376 . S
C437 C438 1.388 . S
C438 H425 0.930 . S
C438 C437 1.388 . S
C438 C439 1.390 . S
C439 C438 1.390 . S
C439 C440 1.394 . S
C439 C445 1.465 . S
C440 C435 1.399 . S
C440 C439 1.394 . S
C440 C441 1.516 . S
C441 C440 1.516 . S
C441 C442 1.502 . S
C441 C443 1.561 . S
C441 C444 1.526 . S
C442 H426 0.959 . S
C442 H427 0.959 . S
C442 H428 0.961 . S
C442 C441 1.502 . S
C443 H429 0.960 . S
C443 H430 0.961 . S
C443 H431 0.959 . S
C443 C441 1.561 . S
C444 C441 1.526 . S
C444 C445 1.396 . S
C444 C449 1.390 . S
C445 C439 1.465 . S
C445 C444 1.396 . S
C445 C446 1.399 . S
C446 H432 0.929 . S
C446 C445 1.399 . S
C446 C447 1.385 . S
C447 H433 0.931 . S
C447 C446 1.385 . S
C447 C448 1.389 . S
C448 C447 1.389 . S
C448 C449 1.387 . S
C449 H434 0.930 . S
C449 C444 1.390 . S
C449 C448 1.387 . S
H450 C462 0.930 . S
H451 C464 0.930 . S
H452 C465 0.930 . S
H453 C469 0.959 . S
H454 C469 0.959 . S
H455 C469 0.961 . S
H456 C470 0.960 . S
H457 C470 0.961 . S
H458 C470 0.959 . S
H459 C473 0.929 . S
H460 C474 0.931 . S
H461 C476 0.930 . S
C462 H450 0.930 . S
C462 C463 1.399 . S
C462 C467 1.399 . S
C463 C462 1.399 . S
C463 C464 1.376 . S
C464 H451 0.930 . S
C464 C463 1.376 . S
C464 C465 1.388 . S
C465 H452 0.930 . S
C465 C464 1.388 . S
C465 C466 1.390 . S
C466 C465 1.390 . S
C466 C467 1.394 . S
C466 C472 1.465 . S
C467 C462 1.399 . S
C467 C466 1.394 . S
C467 C468 1.516 . S
C468 C467 1.516 . S
C468 C469 1.502 . S
C468 C470 1.561 . S
C468 C471 1.526 . S
C469 H453 0.959 . S
C469 H454 0.959 . S
C469 H455 0.961 . S
C469 C468 1.502 . S
C470 H456 0.960 . S
C470 H457 0.961 . S
C470 H458 0.959 . S
C470 C468 1.561 . S
C471 C468 1.526 . S
C471 C472 1.396 . S
C471 C476 1.390 . S
C472 C466 1.465 . S
C472 C471 1.396 . S
C472 C473 1.399 . S
C473 H459 0.929 . S
C473 C472 1.399 . S
C473 C474 1.385 . S
C474 H460 0.931 . S
C474 C473 1.385 . S
C474 C475 1.389 . S
C475 C474 1.389 . S
C475 C476 1.387 . S
C476 H461 0.930 . S
C476 C471 1.390 . S
C476 C475 1.387 . S
H477 C489 0.930 . S
H478 C491 0.930 . S
H479 C492 0.930 . S
H480 C496 0.959 . S
H481 C496 0.959 . S
H482 C496 0.961 . S
H483 C497 0.960 . S
H484 C497 0.961 . S
H485 C497 0.959 . S
H486 C500 0.929 . S
H487 C501 0.931 . S
H488 C503 0.930 . S
C489 H477 0.930 . S
C489 C490 1.399 . S
C489 C494 1.399 . S
C490 C489 1.399 . S
C490 C491 1.376 . S
C491 H478 0.930 . S
C491 C490 1.376 . S
C491 C492 1.388 . S
C492 H479 0.930 . S
C492 C491 1.388 . S
C492 C493 1.390 . S
C493 C492 1.390 . S
C493 C494 1.394 . S
C493 C499 1.465 . S
C494 C489 1.399 . S
C494 C493 1.394 . S
C494 C495 1.516 . S
C495 C494 1.516 . S
C495 C496 1.502 . S
C495 C497 1.561 . S
C495 C498 1.526 . S
C496 H480 0.959 . S
C496 H481 0.959 . S
C496 H482 0.961 . S
C496 C495 1.502 . S
C497 H483 0.960 . S
C497 H484 0.961 . S
C497 H485 0.959 . S
C497 C495 1.561 . S
C498 C495 1.526 . S
C498 C499 1.396 . S
C498 C503 1.390 . S
C499 C493 1.465 . S
C499 C498 1.396 . S
C499 C500 1.399 . S
C500 H486 0.929 . S
C500 C499 1.399 . S
C500 C501 1.385 . S
C501 H487 0.931 . S
C501 C500 1.385 . S
C501 C502 1.389 . S
C502 C501 1.389 . S
C502 C503 1.387 . S
C503 H488 0.930 . S
C503 C498 1.390 . S
C503 C502 1.387 . S
H504 C516 0.930 . S
H505 C518 0.930 . S
H506 C519 0.930 . S
H507 C523 0.959 . S
H508 C523 0.959 . S
H509 C523 0.961 . S
H510 C524 0.960 . S
H511 C524 0.961 . S
H512 C524 0.959 . S
H513 C527 0.929 . S
H514 C528 0.931 . S
H515 C530 0.930 . S
C516 H504 0.930 . S
C516 C517 1.399 . S
C516 C521 1.399 . S
C517 C516 1.399 . S
C517 C518 1.376 . S
C518 H505 0.930 . S
C518 C517 1.376 . S
C518 C519 1.388 . S
C519 H506 0.930 . S
C519 C518 1.388 . S
C519 C520 1.390 . S
C520 C519 1.390 . S
C520 C521 1.394 . S
C520 C526 1.465 . S
C521 C516 1.399 . S
C521 C520 1.394 . S
C521 C522 1.516 . S
C522 C521 1.516 . S
C522 C523 1.502 . S
C522 C524 1.561 . S
C522 C525 1.526 . S
C523 H507 0.959 . S
C523 H508 0.959 . S
C523 H509 0.961 . S
C523 C522 1.502 . S
C524 H510 0.960 . S
C524 H511 0.961 . S
C524 H512 0.959 . S
C524 C522 1.561 . S
C525 C522 1.526 . S
C525 C526 1.396 . S
C525 C530 1.390 . S
C526 C520 1.465 . S
C526 C525 1.396 . S
C526 C527 1.399 . S
C527 H513 0.929 . S
C527 C526 1.399 . S
C527 C528 1.385 . S
C528 H514 0.931 . S
C528 C527 1.385 . S
C528 C529 1.389 . S
C529 C528 1.389 . S
C529 C530 1.387 . S
C530 H515 0.930 . S
C530 C525 1.390 . S
C530 C529 1.387 . S
H531 C543 0.930 . S
H532 C545 0.930 . S
H533 C546 0.930 . S
H534 C550 0.959 . S
H535 C550 0.959 . S
H536 C550 0.961 1_655 S
H537 C551 0.960 1_655 S
H538 C551 0.961 . S
H539 C551 0.959 . S
H540 C554 0.929 . S
H541 C555 0.931 . S
H542 C557 0.930 . S
C543 H531 0.930 . S
C543 C544 1.399 . S
C543 C548 1.399 . S
C544 C543 1.399 . S
C544 C545 1.376 . S
C545 H532 0.930 . S
C545 C544 1.376 . S
C545 C546 1.388 . S
C546 H533 0.930 . S
C546 C545 1.388 . S
C546 C547 1.390 . S
C547 C546 1.390 . S
C547 C548 1.394 . S
C547 C553 1.465 1_655 S
C548 C543 1.399 . S
C548 C547 1.394 . S
C548 C549 1.516 1_655 S
C549 C548 1.516 1_455 S
C549 C550 1.502 . S
C549 C551 1.561 . S
C549 C552 1.526 . S
C550 H534 0.959 . S
C550 H535 0.959 . S
C550 H536 0.961 1_455 S
C550 C549 1.502 . S
C551 H537 0.960 1_455 S
C551 H538 0.961 . S
C551 H539 0.959 . S
C551 C549 1.561 . S
C552 C549 1.526 . S
C552 C553 1.396 . S
C552 C557 1.390 . S
C553 C547 1.465 1_455 S
C553 C552 1.396 . S
C553 C554 1.399 . S
C554 H540 0.929 . S
C554 C553 1.399 . S
C554 C555 1.385 . S
C555 H541 0.931 . S
C555 C554 1.385 . S
C555 C556 1.389 . S
C556 C555 1.389 . S
C556 C557 1.387 . S
C557 H542 0.930 . S
C557 C552 1.390 . S
C557 C556 1.387 . S
H558 C570 0.930 . S
H559 C572 0.930 . S
H560 C573 0.930 . S
H561 C577 0.959 . S
H562 C577 0.959 . S
H563 C577 0.961 1_545 S
H564 C578 0.960 1_545 S
H565 C578 0.961 . S
H566 C578 0.959 . S
H567 C581 0.929 . S
H568 C582 0.931 . S
H569 C584 0.930 . S
C570 H558 0.930 . S
C570 C571 1.399 . S
C570 C575 1.399 . S
C571 C570 1.399 . S
C571 C572 1.376 . S
C572 H559 0.930 . S
C572 C571 1.376 . S
C572 C573 1.388 . S
C573 H560 0.930 . S
C573 C572 1.388 . S
C573 C574 1.390 . S
C574 C573 1.390 . S
C574 C575 1.394 . S
C574 C580 1.465 1_545 S
C575 C570 1.399 . S
C575 C574 1.394 . S
C575 C576 1.516 1_545 S
C576 C575 1.516 1_565 S
C576 C577 1.502 . S
C576 C578 1.561 . S
C576 C579 1.526 . S
C577 H561 0.959 . S
C577 H562 0.959 . S
C577 H563 0.961 1_565 S
C577 C576 1.502 . S
C578 H564 0.960 1_565 S
C578 H565 0.961 . S
C578 H566 0.959 . S
C578 C576 1.561 . S
C579 C576 1.526 . S
C579 C580 1.396 . S
C579 C584 1.390 . S
C580 C574 1.465 1_565 S
C580 C579 1.396 . S
C580 C581 1.399 . S
C581 H567 0.929 . S
C581 C580 1.399 . S
C581 C582 1.385 . S
C582 H568 0.931 . S
C582 C581 1.385 . S
C582 C583 1.389 . S
C583 C582 1.389 . S
C583 C584 1.387 . S
C584 H569 0.930 . S
C584 C579 1.390 . S
C584 C583 1.387 . S
H585 C597 0.930 . S
H586 C599 0.930 . S
H587 C600 0.930 . S
H588 C604 0.959 . S
H589 C604 0.959 . S
H590 C604 0.961 . S
H591 C605 0.960 . S
H592 C605 0.961 . S
H593 C605 0.959 . S
H594 C608 0.929 . S
H595 C609 0.931 . S
H596 C611 0.930 . S
C597 H585 0.930 . S
C597 C598 1.399 . S
C597 C602 1.399 . S
C598 C597 1.399 . S
C598 C599 1.376 . S
C599 H586 0.930 . S
C599 C598 1.376 . S
C599 C600 1.388 . S
C600 H587 0.930 . S
C600 C599 1.388 . S
C600 C601 1.390 . S
C601 C600 1.390 . S
C601 C602 1.394 . S
C601 C607 1.465 . S
C602 C597 1.399 . S
C602 C601 1.394 . S
C602 C603 1.516 . S
C603 C602 1.516 . S
C603 C604 1.502 . S
C603 C605 1.561 . S
C603 C606 1.526 . S
C604 H588 0.959 . S
C604 H589 0.959 . S
C604 H590 0.961 . S
C604 C603 1.502 . S
C605 H591 0.960 . S
C605 H592 0.961 . S
C605 H593 0.959 . S
C605 C603 1.561 . S
C606 C603 1.526 . S
C606 C607 1.396 . S
C606 C611 1.390 . S
C607 C601 1.465 . S
C607 C606 1.396 . S
C607 C608 1.399 . S
C608 H594 0.929 . S
C608 C607 1.399 . S
C608 C609 1.385 . S
C609 H595 0.931 . S
C609 C608 1.385 . S
C609 C610 1.389 . S
C610 C609 1.389 . S
C610 C611 1.387 . S
C611 H596 0.930 . S
C611 C606 1.390 . S
C611 C610 1.387 . S
H612 C624 0.930 . S
H613 C626 0.930 . S
H614 C627 0.930 . S
H615 C631 0.959 . S
H616 C631 0.959 . S
H617 C631 0.961 1_455 S
H618 C632 0.960 1_455 S
H619 C632 0.961 . S
H620 C632 0.959 . S
H621 C635 0.929 . S
H622 C636 0.931 . S
H623 C638 0.930 . S
C624 H612 0.930 . S
C624 C625 1.399 . S
C624 C629 1.399 . S
C625 C624 1.399 . S
C625 C626 1.376 . S
C626 H613 0.930 . S
C626 C625 1.376 . S
C626 C627 1.388 . S
C627 H614 0.930 . S
C627 C626 1.388 . S
C627 C628 1.390 . S
C628 C627 1.390 . S
C628 C629 1.394 . S
C628 C634 1.465 1_455 S
C629 C624 1.399 . S
C629 C628 1.394 . S
C629 C630 1.516 1_455 S
C630 C629 1.516 1_655 S
C630 C631 1.502 . S
C630 C632 1.561 . S
C630 C633 1.526 . S
C631 H615 0.959 . S
C631 H616 0.959 . S
C631 H617 0.961 1_655 S
C631 C630 1.502 . S
C632 H618 0.960 1_655 S
C632 H619 0.961 . S
C632 H620 0.959 . S
C632 C630 1.561 . S
C633 C630 1.526 . S
C633 C634 1.396 . S
C633 C638 1.390 . S
C634 C628 1.465 1_655 S
C634 C633 1.396 . S
C634 C635 1.399 . S
C635 H621 0.929 . S
C635 C634 1.399 . S
C635 C636 1.385 . S
C636 H622 0.931 . S
C636 C635 1.385 . S
C636 C637 1.389 . S
C637 C636 1.389 . S
C637 C638 1.387 . S
C638 H623 0.930 . S
C638 C633 1.390 . S
C638 C637 1.387 . S
H639 C651 0.930 . S
H640 C653 0.930 . S
H641 C654 0.930 . S
H642 C658 0.959 . S
H643 C658 0.959 1_565 S
H644 C658 0.961 . S
H645 C659 0.960 . S
H646 C659 0.961 1_565 S
H647 C659 0.959 . S
H648 C662 0.929 . S
H649 C663 0.931 . S
H650 C665 0.930 . S
C651 H639 0.930 . S
C651 C652 1.399 . S
C651 C656 1.399 . S
C652 C651 1.399 . S
C652 C653 1.376 . S
C653 H640 0.930 . S
C653 C652 1.376 . S
C653 C654 1.388 . S
C654 H641 0.930 . S
C654 C653 1.388 . S
C654 C655 1.390 . S
C655 C654 1.390 . S
C655 C656 1.394 . S
C655 C661 1.465 1_545 S
C656 C651 1.399 . S
C656 C655 1.394 . S
C656 C657 1.516 . S
C657 C656 1.516 . S
C657 C658 1.502 . S
C657 C659 1.561 . S
C657 C660 1.526 1_545 S
C658 H642 0.959 . S
C658 H643 0.959 1_545 S
C658 H644 0.961 . S
C658 C657 1.502 . S
C659 H645 0.960 . S
C659 H646 0.961 1_545 S
C659 H647 0.959 . S
C659 C657 1.561 . S
C660 C657 1.526 1_565 S
C660 C661 1.396 . S
C660 C665 1.390 . S
C661 C655 1.465 1_565 S
C661 C660 1.396 . S
C661 C662 1.399 . S
C662 H648 0.929 . S
C662 C661 1.399 . S
C662 C663 1.385 . S
C663 H649 0.931 . S
C663 C662 1.385 . S
C663 C664 1.389 . S
C664 C663 1.389 . S
C664 C665 1.387 . S
C665 H650 0.930 . S
C665 C660 1.390 . S
C665 C664 1.387 . S
C193 C121 2.019 . S
C205 C1 2.038 . S
C220 C160 2.132 . S
C232 C40 2.126 . S
C247 C61 2.185 . S
C259 C91 2.067 . S
C274 C10 2.112 . S
C286 C130 2.213 . S
C301 C151 2.051 . S
C313 C31 2.070 . S
C328 C70 2.055 . S
C340 C100 2.072 . S
C355 C27 1.256 . S
C367 N74 1.255 . S
C382 C46 1.202 . S
C394 N14 1.211 . S
C409 C87 1.275 . S
C421 N36 1.181 . S
C436 C106 1.280 . S
C448 N126 1.189 . S
C463 C136 1.262 . S
C475 N156 1.188 . S
C490 N96 1.240 . S
C502 C166 1.206 . S
C517 C16 0.920 . S
C529 N66 0.888 . S
C544 C57 0.868 . S
C556 N6 0.836 . S
C571 C76 0.853 . S
C583 N44 0.940 . S
C598 C117 0.875 . S
C610 N134 0.918 . S
C625 C147 0.911 . S
C637 N164 0.816 . S
C652 N104 0.864 . S
C664 C177 0.877 . S
