# Generated by pormake.
# Topology smc, (6)-cn, num edge types: 1
# Building blocks:
#     Node 0, Type 0, BuildingBlock: KUMBUR_clean_sbu_0, # of connection points: 6
#     Node 1, Type 0, BuildingBlock: KUMBUR_clean_sbu_0, # of connection points: 6
#     Node 2, Type 0, BuildingBlock: KUMBUR_clean_sbu_0, # of connection points: 6
#     Node 3, Type 0, BuildingBlock: KUMBUR_clean_sbu_0, # of connection points: 6
#     Node 4, Type 0, BuildingBlock: KUMBUR_clean_sbu_0, # of connection points: 6
#     Node 5, Type 0, BuildingBlock: KUMBUR_clean_sbu_0, # of connection points: 6
#     Node 6, Type 0, BuildingBlock: KUMBUR_clean_sbu_0, # of connection points: 6
#     Node 7, Type 0, BuildingBlock: KUMBUR_clean_sbu_0, # of connection points: 6
#     Node 8, Type 0, BuildingBlock: KUMBUR_clean_sbu_0, # of connection points: 6
#     Edge 9, Type (0, 0), BuildingBlock: XIVTED_clean_linker_0, # of connection points: 2
#     Edge 10, Type (0, 0), BuildingBlock: XIVTED_clean_linker_0, # of connection points: 2
#     Edge 11, Type (0, 0), BuildingBlock: XIVTED_clean_linker_0, # of connection points: 2
#     Edge 12, Type (0, 0), BuildingBlock: XIVTED_clean_linker_0, # of connection points: 2
#     Edge 13, Type (0, 0), BuildingBlock: XIVTED_clean_linker_0, # of connection points: 2
#     Edge 14, Type (0, 0), BuildingBlock: XIVTED_clean_linker_0, # of connection points: 2
#     Edge 15, Type (0, 0), BuildingBlock: XIVTED_clean_linker_0, # of connection points: 2
#     Edge 16, Type (0, 0), BuildingBlock: XIVTED_clean_linker_0, # of connection points: 2
#     Edge 17, Type (0, 0), BuildingBlock: XIVTED_clean_linker_0, # of connection points: 2
#     Edge 18, Type (0, 0), BuildingBlock: XIVTED_clean_linker_0, # of connection points: 2
#     Edge 19, Type (0, 0), BuildingBlock: XIVTED_clean_linker_0, # of connection points: 2
#     Edge 20, Type (0, 0), BuildingBlock: XIVTED_clean_linker_0, # of connection points: 2
#     Edge 21, Type (0, 0), BuildingBlock: XIVTED_clean_linker_0, # of connection points: 2
#     Edge 22, Type (0, 0), BuildingBlock: XIVTED_clean_linker_0, # of connection points: 2
#     Edge 23, Type (0, 0), BuildingBlock: XIVTED_clean_linker_0, # of connection points: 2
#     Edge 24, Type (0, 0), BuildingBlock: XIVTED_clean_linker_0, # of connection points: 2
#     Edge 25, Type (0, 0), BuildingBlock: XIVTED_clean_linker_0, # of connection points: 2
#     Edge 26, Type (0, 0), BuildingBlock: XIVTED_clean_linker_0, # of connection points: 2
#     Edge 27, Type (0, 0), BuildingBlock: XIVTED_clean_linker_0, # of connection points: 2
#     Edge 28, Type (0, 0), BuildingBlock: XIVTED_clean_linker_0, # of connection points: 2
#     Edge 29, Type (0, 0), BuildingBlock: XIVTED_clean_linker_0, # of connection points: 2
#     Edge 30, Type (0, 0), BuildingBlock: XIVTED_clean_linker_0, # of connection points: 2
#     Edge 31, Type (0, 0), BuildingBlock: XIVTED_clean_linker_0, # of connection points: 2
#     Edge 32, Type (0, 0), BuildingBlock: XIVTED_clean_linker_0, # of connection points: 2
#     Edge 33, Type (0, 0), BuildingBlock: XIVTED_clean_linker_0, # of connection points: 2
#     Edge 34, Type (0, 0), BuildingBlock: XIVTED_clean_linker_0, # of connection points: 2
#     Edge 35, Type (0, 0), BuildingBlock: XIVTED_clean_linker_0, # of connection points: 2
# Relax obj value: 0.110
# Max RMSD: 0.288
# Mean RMSD: 0.288
data_MOF--net-smc--node1-KUMBUR_clean_sbu_0--edge1-XIVTED_clean_linker_0
_symmetry_space_group_name_H-M    P1
_symmetry_Int_Tables_number       1
_symmetry_cell_setting            triclinic
loop_
_symmetry_equiv_pos_as_xyz
'x, y, z'
_cell_length_a     38.152496
_cell_length_b     38.12229
_cell_length_c     40.175542
_cell_angle_alpha  89.975973
_cell_angle_beta   90.020666
_cell_angle_gamma 120.01667
loop_
_atom_site_label
_atom_site_type_symbol
_atom_site_fract_x
_atom_site_fract_y
_atom_site_fract_z
_atom_type_partial_charge
Tb0 Tb 0.05096 0.50454 1.00185 0.0
C1 C 1.01893 0.34995 0.07555 0.0
C2 C 0.0619 0.33094 0.04576 0.0
C3 C 0.04679 0.31318 0.10418 0.0
C4 C 0.03863 0.35028 0.04676 0.0
C5 C 0.02202 0.33073 0.10446 0.0
C6 C 0.0667 0.31327 0.07484 0.0
C7 C 0.9735 0.34484 0.13073 0.0
N8 N 0.99565 0.3676 0.07481 0.0
C9 C 0.97144 0.36356 0.10142 0.0
C10 C 0.99941 0.32893 0.13246 0.0
Tb11 Tb 0.99574 0.3993 0.02606 0.0
N12 N 0.03309 0.36761 0.01926 0.0
C13 C 0.04665 0.36275 0.98906 0.0
C14 C 0.07849 0.32877 0.01534 0.0
C15 C 0.07014 0.34406 0.98675 0.0
H16 H 0.95107 0.37544 0.10046 0.0
H17 H 0.08172 0.34141 0.96286 0.0
H18 H 0.08484 0.29868 0.07467 0.0
H19 H 0.95504 0.34263 0.15195 0.0
H20 H 0.04024 0.37385 0.96653 0.0
H21 H 0.02751 0.55737 0.12114 0.0
H22 H 0.09656 0.31419 0.01346 0.0
H23 H 0.03121 0.52337 0.92407 0.0
H24 H 0.05081 0.52267 0.08475 0.0
H25 H 0.99376 0.55246 0.89768 0.0
H26 H 0.04996 0.29865 0.12625 0.0
H27 H 0.99159 0.5907 0.09813 0.0
H28 H 0.96346 0.6078 0.04863 0.0
H29 H 1.00092 0.31442 0.15519 0.0
H30 H 0.95233 0.60452 0.98824 0.0
N31 N 0.02772 0.53387 0.03986 0.0
C32 C 0.03483 0.53594 0.07346 0.0
C33 C 1.0017 0.57509 0.0816 0.0
C34 C 0.99482 0.57357 0.04737 0.0
C35 C 0.0218 0.5562 0.09465 0.0
C36 C 1.00847 0.55265 0.02688 0.0
H37 H 0.96248 0.58311 0.93205 0.0
N38 N 1.01587 0.5306 0.97398 0.0
C39 C 0.99492 0.55129 0.92455 0.0
C40 C 1.00163 0.55026 0.993 0.0
C41 C 1.01516 0.53359 0.93987 0.0
C42 C 0.97759 0.5688 0.944 0.0
C43 C 0.98185 0.56956 0.97855 0.0
O44 O 0.09433 0.5485 0.96934 0.0
O45 O 0.0548 0.45064 1.00974 0.0
O46 O 0.0328 0.42759 0.06911 0.0
O47 O 0.07666 0.49344 0.04958 0.0
O48 O 0.08356 0.48537 0.96902 0.0
O49 O 0.10138 0.557 0.02194 0.0
O50 O 0.93195 0.36845 0.03033 0.0
O51 O 0.99312 0.45371 0.01446 0.0
O52 O 1.01398 0.46762 0.95824 0.0
O53 O 0.9964 0.40151 0.97225 0.0
O54 O 0.96151 0.42104 0.05499 0.0
O55 O 0.96099 0.34348 1.0012 0.0
C56 C 0.07867 0.45445 0.9859 0.0
C57 C 0.12611 0.61714 0.98898 0.0
C58 C 0.17296 0.69086 0.99467 0.0
C59 C 0.16471 0.65019 0.99801 0.0
C60 C 0.14235 0.69776 0.98283 0.0
C61 C 0.09762 0.62612 0.97539 0.0
C62 C 0.10521 0.66569 0.97299 0.0
C63 C 0.06476 0.46374 0.07259 0.0
C64 C 0.11538 0.57365 0.99305 0.0
C65 C 0.96787 0.58991 0.99888 0.0
C66 C 0.97438 0.59195 0.03322 0.0
C67 C 0.96931 0.45194 0.03704 0.0
C68 C 0.89792 0.29729 0.02661 0.0
C69 C 0.85568 0.28138 0.02339 0.0
C70 C 0.82784 0.24337 0.03739 0.0
C71 C 0.84324 0.22155 0.05423 0.0
C72 C 0.91214 0.27475 0.04364 0.0
C73 C 0.88492 0.23713 0.05727 0.0
C74 C 0.99745 0.42829 0.95105 0.0
C75 C 0.92664 0.33771 0.01279 0.0
H76 H 0.188 0.64442 1.00731 0.0
H77 H 0.14782 0.72836 0.97983 0.0
H78 H 0.06954 0.60281 0.96582 0.0
H79 H 0.08238 0.67156 0.96276 0.0
H80 H 0.8446 0.29893 1.01054 0.0
H81 H 0.82301 0.19203 0.06479 0.0
H82 H 0.94428 0.28617 0.04642 0.0
H83 H 0.89618 0.21989 0.07028 0.0
Tb84 Tb 0.54231 0.55045 0.99808 0.0
C85 C 0.69569 0.67544 0.07146 0.0
C86 C 0.71514 0.73631 0.03975 0.0
C87 C 0.73202 0.74113 0.09854 0.0
C88 C 0.69574 0.69372 0.04192 0.0
C89 C 0.7145 0.69883 0.10001 0.0
C90 C 0.73237 0.75987 0.06842 0.0
C91 C 0.70016 0.63718 0.12833 0.0
N92 N 0.67818 0.63449 0.07183 0.0
C93 C 0.68189 0.61531 0.09933 0.0
C94 C 0.71596 0.67906 0.12887 0.0
Tb95 Tb 0.64704 0.60098 0.02355 0.0
N96 N 0.67888 0.66981 0.01485 0.0
C97 C 0.6842 0.68712 0.98407 0.0
C98 C 0.71788 0.75393 1.00864 0.0
C99 C 0.70306 0.72923 0.98058 0.0
H100 H 0.67002 0.58302 0.09929 0.0
H101 H 0.70611 0.74257 0.95621 0.0
H102 H 0.74699 0.7926 0.06734 0.0
H103 H 0.7021 0.62172 0.15025 0.0
H104 H 0.67329 0.66879 0.96194 0.0
H105 H 0.48549 0.47649 0.11785 0.0
H106 H 0.73255 0.78653 1.00586 0.0
H107 H 0.52618 0.50954 0.92082 0.0
H108 H 0.52091 0.53372 0.08093 0.0
H109 H 0.4993 0.44255 0.89603 0.0
H110 H 0.74625 0.75966 0.1203 0.0
H111 H 0.45369 0.40675 0.09602 0.0
H112 H 0.43895 0.36051 0.04763 0.0
H113 H 0.73014 0.69593 0.15135 0.0
H114 H 0.44483 0.35132 0.98783 0.0
N115 N 0.51201 0.49862 0.03681 0.0
C116 C 0.50854 0.50429 0.0701 0.0
C117 C 0.4697 0.43215 0.07922 0.0
C118 C 0.4726 0.42611 0.04532 0.0
C119 C 0.48775 0.47142 0.09162 0.0
C120 C 0.49403 0.46029 0.02445 0.0
H121 H 0.46821 0.38154 0.93151 0.0
N122 N 0.51801 0.48859 0.97142 0.0
C123 C 0.49954 0.44558 0.92283 0.0
C124 C 0.49786 0.45511 0.99089 0.0
C125 C 0.51619 0.48391 0.93735 0.0
C126 C 0.48174 0.41126 0.94288 0.0
C127 C 0.47955 0.41563 0.97718 0.0
O128 O 0.49987 0.54988 0.96391 0.0
O129 O 0.5959 0.60833 1.00632 0.0
O130 O 0.61812 0.61091 0.06555 0.0
O131 O 0.5523 0.58766 0.04541 0.0
O132 O 0.56174 0.60255 0.96542 0.0
O133 O 0.48821 0.54683 0.01605 0.0
O134 O 0.67826 0.56882 0.03102 0.0
O135 O 0.59295 0.54339 0.01186 0.0
O136 O 0.57973 0.55134 0.95472 0.0
O137 O 0.64609 0.59785 0.96981 0.0
O138 O 0.62452 0.54607 0.05384 0.0
O139 O 0.70261 0.62031 0.99884 0.0
C140 C 0.59247 0.62858 0.98244 0.0
C141 C 0.43024 0.5121 0.98039 0.0
C142 C 0.35644 0.48609 0.9784 0.0
C143 C 0.39642 0.51765 0.98614 0.0
C144 C 0.35085 0.44906 0.96643 0.0
C145 C 0.42269 0.47496 0.96704 0.0
C146 C 0.38366 0.44363 0.9608 0.0
C147 C 0.58167 0.60604 0.06861 0.0
C148 C 0.47326 0.54492 0.98652 0.0
C149 C 0.45869 0.38173 0.99791 0.0
C150 C 0.45516 0.38696 0.0319 0.0
C151 C 0.59435 0.52227 0.03552 0.0
C152 C 0.74935 0.60565 0.02616 0.0
C153 C 0.76595 0.57982 0.02375 0.0
C154 C 0.80436 0.59125 0.03758 0.0
C155 C 0.82581 0.6292 0.05343 0.0
C156 C 0.77155 0.64315 0.04221 0.0
C157 C 0.80952 0.65478 0.05567 0.0
C158 C 0.61923 0.57323 0.94815 0.0
C159 C 0.70863 0.59275 0.01243 0.0
H160 H 0.40121 0.54639 0.99543 0.0
H161 H 0.32079 0.42433 0.96071 0.0
H162 H 0.44682 0.46998 0.96049 0.0
H163 H 0.37891 0.41522 0.95077 0.0
H164 H 0.74868 0.55064 0.01165 0.0
H165 H 0.85559 0.63947 0.0638 0.0
H166 H 0.75959 0.6635 0.04431 0.0
H167 H 0.8265 0.68386 0.0679 0.0
Tb168 Tb 0.49708 0.99834 0.99656 0.0
C169 C 0.37317 0.02398 0.07287 0.0
C170 C 0.31111 0.97874 0.04404 0.0
C171 C 0.30939 0.9922 0.10299 0.0
C172 C 0.35354 1.00405 0.04423 0.0
C173 C 0.35135 0.01913 0.10245 0.0
C174 C 0.28927 0.97205 0.07379 0.0
C175 C 0.41333 0.07089 0.1275 0.0
N176 N 0.41371 0.04964 0.07123 0.0
C177 C 0.43358 0.07474 0.09751 0.0
C178 C 0.37218 0.0424 0.1302 0.0
Tb179 Tb 0.44481 0.05118 0.02177 0.0
N180 N 0.3758 1.01148 0.01607 0.0
C181 C 0.3567 0.99762 0.98611 0.0
C182 C 0.29184 0.96206 0.01379 0.0
C183 C 0.31468 0.97219 0.9846 0.0
H184 H 0.46531 0.09704 0.09578 0.0
H185 H 0.29997 0.96038 0.96091 0.0
H186 H 0.25672 0.9523 0.07425 0.0
H187 H 0.42947 0.08993 0.14851 0.0
H188 H 0.37359 1.00505 0.96319 0.0
H189 H 0.58152 0.02608 0.11215 0.0
H190 H 0.2593 0.94243 0.01254 0.0
H191 H 0.53046 0.01443 0.91747 0.0
H192 H 0.52106 1.0001 0.0784 0.0
H193 H 0.59508 0.05244 0.88795 0.0
H194 H 0.2921 0.98764 0.12558 0.0
H195 H 0.64907 0.06397 0.08626 0.0
H196 H 0.69078 0.09238 0.03498 0.0
H197 H 0.35656 0.03952 0.15345 0.0
H198 H 0.69445 0.10182 0.97436 0.0
N199 N 0.55213 0.02376 0.03221 0.0
C200 C 0.54946 0.01699 0.0659 0.0
C201 C 0.62223 0.05274 0.0709 0.0
C202 C 0.62519 0.05914 0.03656 0.0
C203 C 0.58419 0.03152 0.08558 0.0
C204 C 0.58924 0.04403 0.01763 0.0
H205 H 0.65906 0.08795 0.91955 0.0
N206 N 0.55618 0.03357 0.96605 0.0
C207 C 0.5945 0.0528 0.91487 0.0
C208 C 0.59132 0.04997 0.98362 0.0
C209 C 0.55772 0.03213 0.93187 0.0
C210 C 0.63051 0.0726 0.93278 0.0
C211 C 0.62937 0.07018 0.96748 0.0
O212 O 0.49474 0.95349 0.96404 0.0
O213 O 0.43872 0.99265 1.00623 0.0
O214 O 0.44082 0.01654 0.06519 0.0
O215 O 0.4638 0.97338 0.04583 0.0
O216 O 0.44455 0.96471 0.96487 0.0
O217 O 0.50322 0.9499 0.01611 0.0
O218 O 0.47757 0.11529 0.02362 0.0
O219 O 0.50247 0.05548 1.00973 0.0
O220 O 0.49673 0.03652 0.95404 0.0
O221 O 0.44485 0.04907 0.96789 0.0
O222 O 0.50073 0.08685 0.05031 0.0
O223 O 0.42022 0.08433 0.99944 0.0
C224 C 0.41842 0.9681 0.9829 0.0
C225 C 0.53431 0.92316 0.97997 0.0
C226 C 0.5598 0.87483 0.97693 0.0
C227 C 0.52863 0.8836 0.98544 0.0
C228 C 0.5966 0.90621 0.9645 0.0
C229 C 0.57125 0.95258 0.96629 0.0
C230 C 0.60216 0.94457 0.95921 0.0
C231 C 0.44727 0.98603 0.06926 0.0
C232 C 0.5021 0.934 0.98716 0.0
C233 C 0.66507 0.08591 0.98629 0.0
C234 C 0.66298 0.08032 0.02076 0.0
C235 C 0.52418 0.07952 0.0324 0.0
C236 C 0.43895 0.1479 0.02498 0.0
C237 C 0.46498 0.19036 0.02212 0.0
C238 C 0.45577 0.21764 0.03856 0.0
C239 C 0.41981 0.20158 0.05726 0.0
C240 C 0.40343 0.13309 0.0439 0.0
C241 C 0.39397 0.15979 0.05981 0.0
C242 C 0.47193 0.05067 0.94679 0.0
C243 C 0.44965 0.1194 1.00901 0.0
H244 H 0.50011 0.85982 0.99521 0.0
H245 H 0.62118 0.90084 0.95834 0.0
H246 H 0.57649 0.98188 0.9603 0.0
H247 H 0.63044 0.96819 0.94895 0.0
H248 H 0.49266 0.20203 1.0078 0.0
H249 H 0.41141 0.22144 0.0698 0.0
H250 H 0.38295 0.10083 0.04648 0.0
H251 H 0.36644 0.14803 0.0743 0.0
Tb252 Tb 0.71224 0.83494 0.33139 0.0
C253 C 0.68 0.67184 0.39304 0.0
C254 C 0.72031 0.65303 0.35908 0.0
C255 C 0.70374 0.62838 0.41595 0.0
C256 C 0.69898 0.6741 0.36329 0.0
C257 C 0.68177 0.64866 0.41967 0.0
C258 C 0.72301 0.63059 0.38571 0.0
C259 C 0.63892 0.66626 0.45119 0.0
N260 N 0.6598 0.69255 0.39584 0.0
C261 C 0.63811 0.6889 0.4241 0.0
C262 C 0.66115 0.64635 0.4491 0.0
Tb263 Tb 0.65956 0.72815 0.34979 0.0
N264 N 0.69554 0.69602 0.33818 0.0
C265 C 0.71064 0.6957 0.30734 0.0
C266 C 0.73763 0.65452 0.32809 0.0
C267 C 0.73238 0.67561 0.30202 0.0
H268 H 0.62063 0.70392 0.42618 0.0
H269 H 0.74493 0.67628 0.27771 0.0
H270 H 0.73945 0.61438 0.383 0.0
H271 H 0.62231 0.66413 0.47365 0.0
H272 H 0.70667 0.71125 0.28658 0.0
H273 H 0.68558 0.87439 0.45554 0.0
H274 H 0.75433 0.63884 0.32385 0.0
H275 H 0.69014 0.85814 0.25608 0.0
H276 H 0.70901 0.84304 0.41587 0.0
H277 H 0.65141 0.888 0.23361 0.0
H278 H 0.70566 0.6106 0.43617 0.0
H279 H 0.65005 0.90984 0.43643 0.0
H280 H 0.6218 0.93083 0.38948 0.0
H281 H 0.66175 0.62886 0.47013 0.0
H282 H 0.61024 0.93221 0.3295 0.0
N283 N 0.68778 0.85964 0.37258 0.0
C284 C 0.69395 0.85803 0.40606 0.0
C285 C 0.66055 0.89605 0.41837 0.0
C286 C 0.6539 0.8976 0.38439 0.0
C287 C 0.6805 0.87602 0.42922 0.0
C288 C 0.66802 0.87893 0.36183 0.0
H289 H 0.61992 0.91523 0.27152 0.0
N290 N 0.6753 0.86132 0.30711 0.0
C291 C 0.653 0.88491 0.26027 0.0
C292 C 0.66075 0.87896 0.32816 0.0
C293 C 0.67399 0.86673 0.27333 0.0
C294 C 0.63555 0.90049 0.28172 0.0
C295 C 0.64033 0.89879 0.31603 0.0
O296 O 0.7549 0.8801 0.29924 0.0
O297 O 0.71818 0.7817 0.33557 0.0
O298 O 0.70018 0.75316 0.3916 0.0
O299 O 0.73935 0.82223 0.37784 0.0
O300 O 0.74512 0.81928 0.29595 0.0
O301 O 0.76123 0.88848 0.35181 0.0
O302 O 0.59647 0.69354 0.35819 0.0
O303 O 0.65508 0.78225 0.34183 0.0
O304 O 0.67436 0.80054 0.28723 0.0
O305 O 0.66047 0.7345 0.29633 0.0
O306 O 0.62371 0.74637 0.38081 0.0
O307 O 0.62422 0.67741 0.3193 0.0
C308 C 0.74241 0.78828 0.31128 0.0
C309 C 0.78583 0.9487 0.31856 0.0
C310 C 0.83408 0.02244 0.31705 0.0
C311 C 0.82576 0.98211 0.32308 0.0
C312 C 0.80219 0.02879 0.30792 0.0
C313 C 0.7557 0.95708 0.30817 0.0
C314 C 0.76343 0.99639 0.3035 0.0
C315 C 0.72999 0.79011 0.39788 0.0
C316 C 0.77549 0.90533 0.32301 0.0
C317 C 0.62622 0.91721 0.33837 0.0
C318 C 0.63301 0.91663 0.37248 0.0
C319 C 0.63044 0.77801 0.36447 0.0
C320 C 0.56342 0.62427 0.34331 0.0
C321 C 0.52095 0.60797 0.34353 0.0
C322 C 0.49463 0.5665 0.35037 0.0
C323 C 0.51122 0.54171 0.35722 0.0
C324 C 0.57917 0.59883 0.35056 0.0
C325 C 0.55316 0.55784 0.35747 0.0
C326 C 0.65969 0.76223 0.27748 0.0
C327 C 0.59062 0.66754 0.33498 0.0
H328 H 0.8501 0.9768 0.33018 0.0
H329 H 0.80752 0.05914 0.30354 0.0
H330 H 0.72607 0.93348 0.30275 0.0
H331 H 0.7393 1.00169 0.2957 0.0
H332 H 0.50843 0.62735 0.33808 0.0
H333 H 0.49164 0.50982 0.36261 0.0
H334 H 0.61153 0.61053 0.35068 0.0
H335 H 0.56558 0.53842 0.36295 0.0
Tb336 Tb 0.20969 0.88968 0.32854 0.0
C337 C 0.36484 1.00372 0.40672 0.0
C338 C 0.38752 0.06869 0.38071 0.0
C339 C 0.4029 0.06549 0.43894 0.0
C340 C 0.36641 0.02599 0.37928 0.0
C341 C 0.38363 0.02309 0.43677 0.0
C342 C 0.4049 0.08829 0.4109 0.0
C343 C 0.36567 0.95754 0.45928 0.0
N344 N 0.34557 0.9628 0.40356 0.0
C345 C 0.34747 0.93974 0.42894 0.0
C346 C 0.38326 0.99933 0.46342 0.0
Tb347 Tb 0.31467 0.9361 0.35314 0.0
N348 N 0.34922 1.00579 0.35065 0.0
C349 C 0.35563 0.02702 0.32172 0.0
C350 C 0.39168 0.09038 0.35152 0.0
C351 C 0.37638 0.06942 0.32176 0.0
H352 H 0.33454 0.90748 0.42629 0.0
H353 H 0.38044 0.08586 0.29878 0.0
H354 H 0.42083 0.12105 0.41259 0.0
H355 H 0.36622 0.93898 0.47944 0.0
H356 H 0.34432 1.01166 0.29843 0.0
H357 H 0.15643 0.80935 0.4464 0.0
H358 H 0.40774 0.1232 0.35149 0.0
H359 H 0.1927 0.85359 0.24954 0.0
H360 H 0.1921 0.86852 0.41147 0.0
H361 H 0.16277 0.78787 0.22196 0.0
H362 H 0.41718 0.08096 0.4619 0.0
H363 H 0.12123 0.74102 0.4216 0.0
H364 H 0.10257 0.6976 0.37094 0.0
H365 H 0.39739 1.01303 0.48693 0.0
H366 H 0.10568 0.69173 0.31032 0.0
N367 N 0.17952 0.83593 0.36548 0.0
C368 C 0.17796 0.83976 0.39932 0.0
C369 C 0.13724 0.7673 0.40566 0.0
C370 C 0.13832 0.76317 0.37123 0.0
C371 C 0.15718 0.80576 0.41972 0.0
C372 C 0.15981 0.79841 0.35151 0.0
H373 H 0.12921 0.7249 0.25499 0.0
N374 N 0.18331 0.82947 0.29916 0.0
C375 C 0.16317 0.78936 0.24887 0.0
C376 C 0.16225 0.79505 0.31744 0.0
C377 C 0.1815 0.82686 0.26495 0.0
C378 C 0.14396 0.75394 0.26756 0.0
C379 C 0.14237 0.75643 0.30214 0.0
O380 O 0.16673 0.89118 0.29608 0.0
O381 O 0.26441 0.94616 0.33817 0.0
O382 O 0.28677 0.94502 0.39644 0.0
O383 O 0.22099 0.92441 0.37746 0.0
O384 O 0.22945 0.94467 0.29931 0.0
O385 O 0.15628 0.88584 0.34848 0.0
O386 O 0.34379 0.90126 0.35558 0.0
O387 O 0.25954 0.88007 0.33946 0.0
O388 O 0.24672 0.89206 0.28416 0.0
O389 O 0.3126 0.93989 0.29934 0.0
O390 O 0.29084 0.8788 0.38019 0.0
O391 O 0.37007 0.95623 0.32777 0.0
C392 C 0.2612 0.96882 0.31631 0.0
C393 C 0.09716 0.85299 0.31368 0.0
C394 C 0.023 0.82541 0.31789 0.0
C395 C 0.06355 0.85745 0.3234 0.0
C396 C 1.01685 0.7894 0.3032 0.0
C397 C 0.08876 0.81711 0.29732 0.0
C398 C 0.04939 0.7855 0.29278 0.0
C399 C 0.25087 0.94128 0.4004 0.0
C400 C 0.14066 0.88533 0.31951 0.0
C401 C 0.12095 0.7215 0.32166 0.0
C402 C 0.11901 0.72486 0.35614 0.0
C403 C 0.26045 0.85687 0.36149 0.0
C404 C 0.41509 0.93733 0.35293 0.0
C405 C 0.4299 0.9098 0.35102 0.0
C406 C 0.46715 0.91909 0.36618 0.0
C407 C 0.4894 0.95656 0.38256 0.0
C408 C 0.43823 0.97432 0.36954 0.0
C409 C 0.47512 0.98382 0.3841 0.0
C410 C 0.28581 0.91636 0.27706 0.0
C411 C 0.37504 0.9268 0.33863 0.0
H412 H 0.06882 0.88538 0.33488 0.0
H413 H 0.98648 0.76459 0.29855 0.0
H414 H 0.11243 0.81337 0.28718 0.0
H415 H 0.04407 0.75802 0.28042 0.0
H416 H 0.41207 0.88099 0.33852 0.0
H417 H 0.51823 0.96498 0.39409 0.0
H418 H 0.42778 0.99593 0.37139 0.0
H419 H 0.49271 1.01248 0.39682 0.0
Tb420 Tb 0.15384 0.32215 0.33138 0.0
C421 C 0.03997 0.36752 0.40348 0.0
C422 C 0.97765 0.33002 0.37258 0.0
C423 C 0.97554 0.34542 0.43101 0.0
C424 C 1.02023 0.34957 0.37431 0.0
C425 C 1.01803 0.36623 0.43212 0.0
C426 C 0.95536 0.32736 0.40126 0.0
C427 C 0.08175 0.408 0.46005 0.0
N428 N 0.081 0.38686 0.40356 0.0
C429 C 0.10216 0.40842 0.43099 0.0
C430 C 0.03949 0.3864 0.46077 0.0
Tb431 Tb 0.1118 0.38471 0.35506 0.0
N432 N 0.04294 0.35303 0.34721 0.0
C433 C 0.02478 0.34046 0.31678 0.0
C434 C 0.95886 0.31474 0.3419 0.0
C435 C 0.98261 0.32055 0.31378 0.0
H436 H 0.13481 0.4251 0.43085 0.0
H437 H 0.96848 0.30981 0.28972 0.0
H438 H 0.9226 0.31214 0.40051 0.0
H439 H 0.09864 0.42433 0.48189 0.0
H440 H 0.04245 0.34505 0.2946 0.0
H441 H 0.24421 0.35965 0.44421 0.0
H442 H 0.92622 0.29947 0.33948 0.0
H443 H 0.17848 0.32336 0.25155 0.0
H444 H 0.18201 0.33665 0.41254 0.0
H445 H 0.24041 0.34397 0.21882 0.0
H446 H 0.95806 0.34377 0.45281 0.0
H447 H 0.30913 0.38252 0.41514 0.0
H448 H 0.34689 0.3951 0.3615 0.0
H449 H 0.02377 0.38612 0.48331 0.0
H450 H 0.34609 0.39199 0.30038 0.0
N451 N 0.21005 0.34515 0.36485 0.0
C452 C 0.20941 0.34561 0.39894 0.0
C453 C 0.28158 0.37191 0.40082 0.0
C454 C 0.28223 0.37111 0.36606 0.0
C455 C 0.245 0.35901 0.41729 0.0
C456 C 0.24553 0.35719 0.34852 0.0
H457 H 0.30672 0.37312 0.2471 0.0
N458 N 0.20954 0.34321 0.29789 0.0
C459 C 0.24234 0.34817 0.24553 0.0
C460 C 0.24523 0.35625 0.31403 0.0
C461 C 0.20737 0.33683 0.26419 0.0
C462 C 0.27965 0.36444 0.26159 0.0
C463 C 0.2814 0.36806 0.29627 0.0
O464 O 0.1292 0.26698 0.30558 0.0
O465 O 0.09885 0.32342 0.34075 0.0
O466 O 0.09794 0.34498 0.39729 0.0
O467 O 0.12232 0.30163 0.38173 0.0
O468 O 0.10194 0.29556 0.29819 0.0
O469 O 0.16635 0.27636 0.34818 0.0
O470 O 0.14272 0.44785 0.36432 0.0
O471 O 0.1657 0.3818 0.34368 0.0
O472 O 0.16351 0.3649 0.28932 0.0
O473 O 0.11469 0.38289 0.30105 0.0
O474 O 0.16976 0.41838 0.38192 0.0
O475 O 0.09951 0.42218 0.3246 0.0
C476 C 0.0775 0.30121 0.31665 0.0
C477 C 0.16957 0.23537 0.30358 0.0
C478 C 0.20469 0.19566 0.29888 0.0
C479 C 0.18582 0.21266 0.31868 0.0
C480 C 0.20672 0.2018 0.26423 0.0
C481 C 0.17139 0.2392 0.26867 0.0
C482 C 0.19025 0.2232 0.24942 0.0
C483 C 0.10368 0.31425 0.40317 0.0
C484 C 0.14802 0.2527 0.32299 0.0
C485 C 0.31799 0.3824 0.31363 0.0
C486 C 0.31842 0.38402 0.34843 0.0
C487 C 0.19016 0.40671 0.36447 0.0
C488 C 0.10929 0.48368 0.34833 0.0
C489 C 0.13631 0.52602 0.34727 0.0
C490 C 0.12199 0.55348 0.35169 0.0
C491 C 0.08053 0.538 0.35767 0.0
C492 C 0.06817 0.46918 0.35493 0.0
C493 C 0.054 0.49623 0.35958 0.0
C494 C 0.1416 0.3821 0.28097 0.0
C495 C 0.12398 0.45519 0.34072 0.0
H496 H 0.18365 0.20814 0.34538 0.0
H497 H 0.22001 0.18878 0.24814 0.0
H498 H 0.15754 0.25405 0.25576 0.0
H499 H 0.1914 0.22674 0.22263 0.0
H500 H 0.16813 0.53753 0.34222 0.0
H501 H 0.06874 0.55834 0.36131 0.0
H502 H 0.0469 0.43694 0.35603 0.0
H503 H 0.02219 0.48477 0.36446 0.0
Tb504 Tb 0.38818 0.17315 0.66269 0.0
C505 C 0.35158 0.01952 0.74035 0.0
C506 C 0.38932 0.99486 0.70966 0.0
C507 C 0.37735 0.98081 0.76887 0.0
C508 C 0.3687 0.01691 0.711 0.0
C509 C 0.35497 1.00092 0.76955 0.0
C510 C 0.39444 0.9777 0.73892 0.0
C511 C 0.31101 0.02042 0.79696 0.0
N512 N 0.33025 0.03924 0.7399 0.0
C513 C 0.3084 0.03827 0.76731 0.0
C514 C 0.3349 1.00221 0.79824 0.0
Tb515 Tb 0.32936 0.06936 0.69054 0.0
N516 N 0.36283 0.03376 0.68332 0.0
C517 C 0.37382 0.02634 0.65287 0.0
C518 C 0.40278 0.98942 0.67879 0.0
C519 C 0.39422 1.0045 0.6502 0.0
H520 H 0.28969 0.05207 0.7667 0.0
H521 H 0.4035 0.9995 0.62604 0.0
H522 H 0.41058 0.96105 0.73847 0.0
H523 H 0.2945 0.02066 0.81878 0.0
H524 H 0.36769 0.03766 0.63034 0.0
H525 H 0.37048 0.23633 0.77894 0.0
H526 H 0.41862 0.97256 0.67664 0.0
H527 H 0.3662 0.18756 0.58363 0.0
H528 H 0.39194 0.19855 0.74465 0.0
H529 H 0.32767 0.21442 0.55621 0.0
H530 H 0.38067 0.96664 0.7911 0.0
H531 H 0.33404 0.26817 0.75421 0.0
H532 H 0.30412 0.28155 0.70404 0.0
H533 H 0.33676 0.98831 0.82121 0.0
H534 H 0.29051 0.27365 0.64401 0.0
N535 N 0.36711 0.20613 0.6991 0.0
C536 C 0.37559 0.21091 0.73255 0.0
C537 C 0.34332 0.25113 0.73855 0.0
C538 C 0.33512 0.24696 0.70449 0.0
C539 C 0.36369 0.23306 0.75258 0.0
C540 C 0.34774 0.22427 0.68511 0.0
H541 H 0.29803 0.24778 0.5891 0.0
N542 N 0.35256 0.1978 0.63339 0.0
C543 C 0.32982 0.21513 0.5831 0.0
C544 C 0.33951 0.21927 0.65141 0.0
C545 C 0.35052 0.19841 0.59917 0.0
C546 C 0.31348 0.23423 0.60169 0.0
C547 C 0.31929 0.23766 0.63608 0.0
O548 O 0.4312 0.21497 0.62877 0.0
O549 O 0.38919 0.11829 0.6735 0.0
O550 O 0.36932 0.09815 0.73198 0.0
O551 O 0.4127 0.16385 0.71182 0.0
O552 O 0.42146 0.151 0.63356 0.0
O553 O 0.43944 0.22654 0.6809 0.0
O554 O 0.26627 0.04065 0.69936 0.0
O555 O 0.32882 0.12452 0.67633 0.0
O556 O 0.35437 0.13529 0.61857 0.0
O557 O 0.32761 0.06862 0.63675 0.0
O558 O 0.29948 0.09572 0.71919 0.0
O559 O 0.29028 0.01399 0.66644 0.0
C560 C 0.41412 0.11992 0.65143 0.0
C561 C 0.46365 0.28484 0.64537 0.0
C562 C 0.51047 0.35904 0.64795 0.0
C563 C 0.50198 0.31866 0.65425 0.0
C564 C 0.48037 0.36492 0.63349 0.0
C565 C 0.43559 0.29279 0.62946 0.0
C566 C 0.44344 0.33211 0.62418 0.0
C567 C 0.40085 0.13463 0.73526 0.0
C568 C 0.45284 0.24151 0.65145 0.0
C569 C 0.30635 0.25973 0.65534 0.0
C570 C 0.31427 0.2644 0.68946 0.0
C571 C 0.30675 0.12513 0.69956 0.0
C572 C 0.22857 0.96938 0.6946 0.0
C573 C 0.18619 0.95387 0.69216 0.0
C574 C 0.15842 0.91611 0.70672 0.0
C575 C 0.17392 0.8941 0.72309 0.0
C576 C 0.24276 0.9465 0.71112 0.0
C577 C 0.21558 0.90913 0.72514 0.0
C578 C 0.33391 0.09537 0.61344 0.0
C579 C 0.25768 1.00973 0.68062 0.0
H580 H 0.52491 0.31367 0.6655 0.0
H581 H 0.48599 0.39524 0.62842 0.0
H582 H 0.40763 0.26875 0.62026 0.0
H583 H 0.42094 0.33716 0.61214 0.0
H584 H 0.17499 0.9715 0.67965 0.0
H585 H 0.15369 0.8649 0.73416 0.0
H586 H 0.27489 0.95752 0.71323 0.0
H587 H 0.22688 0.8917 0.73779 0.0
Tb588 Tb 0.87539 0.22699 0.66486 0.0
C589 C 0.03293 0.3413 0.73764 0.0
C590 C 0.05581 0.40396 0.70757 0.0
C591 C 0.0736 0.40562 0.7659 0.0
C592 C 0.03397 0.36127 0.70877 0.0
C593 C 0.05331 0.36309 0.76642 0.0
C594 C 0.07484 0.42604 0.7365 0.0
C595 C 0.03447 0.29926 0.7931 0.0
N596 N 1.01267 0.30021 0.73714 0.0
C597 C 1.01471 0.27902 0.76391 0.0
C598 C 0.05338 0.34146 0.79454 0.0
Tb599 Tb 0.98013 0.26967 0.68845 0.0
N600 N 1.01556 0.33876 0.68135 0.0
C601 C 0.02108 0.35732 0.65112 0.0
C602 C 0.05893 0.42307 0.67712 0.0
C603 C 0.04204 0.3996 0.64866 0.0
H604 H 1.00018 0.2464 0.76312 0.0
H605 H 0.04528 0.41403 0.62476 0.0
H606 H 0.09144 0.45886 0.73617 0.0
H607 H 0.03514 0.2823 0.81447 0.0
H608 H 1.00884 0.33983 0.6287 0.0
H609 H 0.82371 0.13515 0.77705 0.0
H610 H 0.07537 0.45581 0.67511 0.0
H611 H 0.85184 0.20318 0.585 0.0
H612 H 0.86255 0.19778 0.74578 0.0
H613 H 0.81042 0.14157 0.55185 0.0
H614 H 0.08914 0.42297 0.78785 0.0
H615 H 0.78134 0.07052 0.7476 0.0
H616 H 0.75557 0.03339 0.69374 0.0
H617 H 0.0687 0.35706 0.81717 0.0
H618 H 0.75282 0.0349 0.63268 0.0
N619 N 0.84262 0.17029 0.69795 0.0
C620 C 0.84403 0.17052 0.73203 0.0
C621 C 0.79816 0.09826 0.73346 0.0
C622 C 0.79636 0.09804 0.69872 0.0
C623 C 0.82202 0.13467 0.75015 0.0
C624 C 0.81902 0.13498 0.68142 0.0
H625 H 0.77319 0.0749 0.57967 0.0
N626 N 0.84078 0.17158 0.63105 0.0
C627 C 0.81277 0.13934 0.57853 0.0
C628 C 0.81812 0.13568 0.64695 0.0
C629 C 0.83651 0.17412 0.5974 0.0
C630 C 0.79169 0.10183 0.59433 0.0
C631 C 0.79365 0.09969 0.62897 0.0
O632 O 0.84442 0.25169 0.63978 0.0
O633 O 0.93138 0.28233 0.67448 0.0
O634 O 0.95366 0.28079 0.73168 0.0
O635 O 0.88644 0.25803 0.71546 0.0
O636 O 0.90032 0.27893 0.63176 0.0
O637 O 0.81688 0.21358 0.68189 0.0
O638 O 1.01115 0.23726 0.69562 0.0
O639 O 0.92361 0.21558 0.67655 0.0
O640 O 0.90871 0.21839 0.62238 0.0
O641 O 0.97555 0.26711 0.63443 0.0
O642 O 0.95623 0.21141 0.71479 0.0
O643 O 0.03283 0.2858 0.66041 0.0
C644 C 0.93013 0.30359 0.6504 0.0
C645 C 0.77241 0.21086 0.63761 0.0
C646 C 0.69751 0.17562 0.63264 0.0
C647 C 0.73332 0.19435 0.6526 0.0
C648 C 0.70181 0.17401 0.59799 0.0
C649 C 0.77453 0.20948 0.60268 0.0
C650 C 0.73976 0.19077 0.5833 0.0
C651 C 0.91738 0.27555 0.73735 0.0
C652 C 0.81133 0.23229 0.65711 0.0
C653 C 0.77143 0.06287 0.64609 0.0
C654 C 0.77287 0.06203 0.68087 0.0
C655 C 0.9243 0.191 0.69712 0.0
C656 C 0.08188 0.2738 0.68685 0.0
C657 C 0.09878 0.24805 0.68571 0.0
C658 C 0.13815 0.26127 0.69831 0.0
C659 C 0.16029 0.30071 0.71141 0.0
C660 C 0.10499 0.31293 0.70002 0.0
C661 C 0.14389 0.32622 0.71213 0.0
C662 C 0.94787 0.24048 0.61412 0.0
C663 C 0.04 0.25947 0.67499 0.0
H664 H 0.73082 0.19618 0.67932 0.0
H665 H 0.67557 0.16078 0.58181 0.0
H666 H 0.80327 0.22357 0.58986 0.0
H667 H 0.74228 0.18995 0.55651 0.0
H668 H 0.08107 0.21768 0.67577 0.0
H669 H 0.19064 0.31204 0.72094 0.0
H670 H 0.09302 0.33332 0.70097 0.0
H671 H 0.16142 0.3565 0.72222 0.0
Tb672 Tb 0.82973 0.66964 0.66633 0.0
C673 C 0.69744 0.7001 0.72591 0.0
C674 C 0.63932 0.659 0.69118 0.0
C675 C 0.6296 0.6743 0.74801 0.0
C676 C 0.68161 0.68116 0.69598 0.0
C677 C 0.67174 0.69734 0.75222 0.0
C678 C 0.6134 0.65514 0.71752 0.0
C679 C 0.73122 0.74156 0.78431 0.0
N680 N 0.73828 0.72139 0.72915 0.0
C681 C 0.75545 0.74335 0.7575 0.0
C682 C 0.68918 0.71811 0.78181 0.0
Tb683 Tb 0.77552 0.72243 0.68385 0.0
N684 N 0.70771 0.68575 0.67118 0.0
C685 C 0.69315 0.67147 0.63998 0.0
C686 C 0.62439 0.6422 0.65986 0.0
C687 C 0.65147 0.64893 0.63404 0.0
H688 H 0.78787 0.76167 0.75987 0.0
H689 H 0.64028 0.63692 0.60946 0.0
H690 H 0.58084 0.63801 0.71439 0.0
H691 H 0.74502 0.75832 0.80688 0.0
H692 H 0.71329 0.67666 0.61942 0.0
H693 H 0.89647 0.69682 0.7902 0.0
H694 H 0.59213 0.6249 0.65515 0.0
H695 H 0.87451 0.68892 0.59117 0.0
H696 H 0.8415 0.6726 0.75058 0.0
H697 H 0.94298 0.7272 0.56821 0.0
H698 H 0.60931 0.67156 0.76799 0.0
H699 H 0.96739 0.73322 0.77096 0.0
H700 H 1.01641 0.76165 0.72385 0.0
H701 H 0.67049 0.71675 0.80263 0.0
H702 H 0.029 0.77238 0.66376 0.0
N703 N 0.87917 0.69452 0.7073 0.0
C704 C 0.87153 0.68818 0.74077 0.0
C705 C 0.94302 0.72246 0.75295 0.0
C706 C 0.95105 0.72909 0.71895 0.0
C707 C 0.90308 0.70202 0.76387 0.0
C708 C 0.91817 0.71461 0.69647 0.0
H709 H 1.00194 0.76073 0.60577 0.0
N710 N 0.89294 0.7059 0.64181 0.0
C711 C 0.93848 0.7266 0.59485 0.0
C712 C 0.92526 0.72145 0.66276 0.0
C713 C 0.89944 0.70578 0.60813 0.0
C714 C 0.97164 0.74528 0.6161 0.0
C715 C 0.96542 0.74171 0.65048 0.0
O716 O 0.83184 0.62624 0.63483 0.0
O717 O 0.77052 0.6638 0.66981 0.0
O718 O 0.76016 0.68248 0.72599 0.0
O719 O 0.78991 0.64311 0.71278 0.0
O720 O 0.78183 0.63711 0.63028 0.0
O721 O 0.83333 0.62046 0.68749 0.0
O722 O 0.80298 0.78536 0.69297 0.0
O723 O 0.83415 0.72686 0.6768 0.0
O724 O 0.83381 0.70729 0.62179 0.0
O725 O 0.78278 0.72291 0.63051 0.0
O726 O 0.82892 0.75817 0.71554 0.0
O727 O 0.76113 0.75786 0.65263 0.0
C728 C 0.75347 0.64011 0.64508 0.0
C729 C 0.86848 0.59473 0.6551 0.0
C730 C 0.89269 0.54552 0.65348 0.0
C731 C 0.86088 0.55429 0.65852 0.0
C732 C 0.93164 0.57726 0.646 0.0
C733 C 0.90782 0.6249 0.6466 0.0
C734 C 0.93907 0.61656 0.64257 0.0
C735 C 0.76739 0.65286 0.73265 0.0
C736 C 0.83587 0.60567 0.65894 0.0
C737 C 0.99808 0.75647 0.67275 0.0
C738 C 0.99091 0.75013 0.70692 0.0
C739 C 0.85407 0.75141 0.69969 0.0
C740 C 0.76698 0.81803 0.67616 0.0
C741 C 0.79288 0.86055 0.67699 0.0
C742 C 0.77699 0.88665 0.68152 0.0
C743 C 0.73503 0.86964 0.68573 0.0
C744 C 0.72527 0.80189 0.681 0.0
C745 C 0.7095 0.82761 0.68578 0.0
C746 C 0.81101 0.72285 0.61186 0.0
C747 C 0.78383 0.79129 0.66893 0.0
H748 H 0.83064 0.52997 0.66424 0.0
H749 H 0.9564 0.57142 0.64217 0.0
H750 H 0.91477 0.65506 0.64225 0.0
H751 H 0.96913 0.64069 0.63614 0.0
H752 H 0.82515 0.8733 0.67331 0.0
H753 H 0.72203 0.88894 0.68937 0.0
H754 H 0.70482 0.76945 0.68069 0.0
H755 H 0.67726 0.81491 0.68931 0.0
H756 H 0.30766 0.48099 0.92738 0.0
H757 H 0.13252 0.47798 0.03816 0.0
H758 H 0.31906 0.49623 0.03375 0.0
H759 H 0.11398 0.43153 0.93845 0.0
H760 H 0.20048 0.48725 0.03795 0.0
H761 H 0.23877 0.46958 0.93078 0.0
C762 C 0.29594 0.483 0.95144 0.0
C763 C 0.31946 0.49011 0.98027 0.0
C764 C 0.18124 0.47394 0.01641 0.0
C765 C 0.23955 0.47578 0.98455 0.0
C766 C 0.14163 0.46738 0.01695 0.0
C767 C 0.11597 0.45121 0.98922 0.0
C768 C 0.19629 0.46588 0.98729 0.0
C769 C 0.13192 0.44252 0.96092 0.0
C770 C 0.25632 0.47586 0.95342 0.0
C771 C 0.30235 0.49161 1.01084 0.0
N772 N 0.17088 0.45007 0.96064 0.0
N773 N 0.26341 0.48435 0.01221 0.0
H774 H 0.54522 0.82542 0.03204 0.0
H775 H 0.61837 0.68786 0.93566 0.0
H776 H 0.56927 0.83254 0.92679 0.0
H777 H 0.56603 0.65809 0.03345 0.0
H778 H 0.60746 0.74602 0.93468 0.0
H779 H 0.55632 0.76698 0.03555 0.0
C780 C 0.55169 0.81403 1.00957 0.0
C781 C 0.55594 0.83377 0.97903 0.0
C782 C 0.59932 0.72739 0.95683 0.0
C783 C 0.57041 0.76806 0.98302 0.0
C784 C 0.60619 0.6945 0.95759 0.0
C785 C 0.59565 0.6692 0.98563 0.0
C786 C 0.5808 0.73487 0.98411 0.0
C787 C 0.57768 0.67813 0.01247 0.0
C788 C 0.55864 0.78105 0.01162 0.0
C789 C 0.56547 0.81821 0.95083 0.0
N790 N 0.57092 0.71006 1.01112 0.0
N791 N 0.57273 0.7868 0.95356 0.0
H792 H 0.36803 0.93791 0.03862 0.0
H793 H 0.24213 0.71582 0.95869 0.0
H794 H 0.37828 0.91023 0.93644 0.0
H795 H 0.19418 0.75111 0.04089 0.0
H796 H 0.30095 0.78466 0.9572 0.0
H797 H 0.3102 0.86864 0.04552 0.0
C798 C 0.3579 0.91759 0.01758 0.0
C799 C 0.37834 0.93012 0.98697 0.0
C800 C 0.27794 0.77718 0.97601 0.0
C801 C 0.31322 0.85024 0.99493 0.0
C802 C 0.24474 0.73763 0.97724 0.0
C803 C 0.21353 0.72744 1.0003 0.0
C804 C 0.28025 0.80692 0.99815 0.0
C805 C 0.21792 0.75752 0.02306 0.0
C806 C 0.32506 0.87792 0.02156 0.0
C807 C 0.36369 0.90212 0.96056 0.0
N808 N 0.2505 0.79584 0.02139 0.0
N809 N 0.33265 0.86364 0.96525 0.0
H810 H 0.4937 0.26661 0.98395 0.0
H811 H 0.57265 0.47238 0.08887 0.0
H812 H 0.47974 0.27185 0.08999 0.0
H813 H 0.58506 0.47199 0.98241 0.0
H814 H 0.54492 0.39902 0.08962 0.0
H815 H 0.53246 0.34125 0.98248 0.0
C816 C 0.49925 0.28336 1.00696 0.0
C817 C 0.48309 0.26274 0.03711 0.0
C818 C 0.55366 0.41475 0.06599 0.0
C819 C 0.52746 0.34825 0.03564 0.0
C820 C 0.56947 0.4567 0.0656 0.0
C821 C 0.57924 0.47793 0.0354 0.0
C822 C 0.5482 0.39365 0.03595 0.0
C823 C 0.57616 0.4564 1.00609 0.0
C824 C 0.52122 0.326 1.00609 0.0
C825 C 0.49102 0.28624 0.06609 0.0
N826 N 0.56034 0.41535 1.00701 0.0
N827 N 0.51236 0.32741 0.06459 0.0
H828 H 0.57066 0.11774 0.97722 0.0
H829 H 0.78251 0.24311 0.98348 0.0
H830 H 0.57707 0.11136 0.08381 0.0
H831 H 0.77023 0.20371 0.08557 0.0
H832 H 0.70881 0.20997 0.97926 0.0
H833 H 0.64397 0.16344 0.97542 0.0
C834 C 0.58768 0.12614 1.00027 0.0
C835 C 0.56821 0.10927 0.03057 0.0
C836 C 0.72194 0.20821 1.00259 0.0
C837 C 0.65233 0.16295 0.02913 0.0
C838 C 0.76433 0.22768 1.00509 0.0
C839 C 0.78289 0.22593 0.03481 0.0
C840 C 0.69768 0.18679 0.0301 0.0
C841 C 0.75752 0.2053 0.06191 0.0
C842 C 0.6297 0.15273 0.99936 0.0
C843 C 0.59123 0.12258 0.05983 0.0
N844 N 0.71654 0.1866 0.05885 0.0
N845 N 0.63203 0.14789 0.05833 0.0
H846 H 0.93265 0.46107 0.98125 0.0
H847 H 0.80444 0.54432 0.98505 0.0
H848 H 0.93709 0.47367 0.08785 0.0
H849 H 0.84607 0.57654 0.0862 0.0
H850 H 0.83852 0.50452 0.98207 0.0
H851 H 0.88756 0.48934 0.97848 0.0
C852 C 0.92392 0.46973 1.0041 0.0
C853 C 0.93996 0.46671 0.03471 0.0
C854 C 0.84063 0.52047 1.00488 0.0
C855 C 0.88695 0.49794 0.03212 0.0
C856 C 0.82059 0.5429 1.00671 0.0
C857 C 0.82261 0.56436 0.03579 0.0
C858 C 0.86292 0.51927 0.03243 0.0
C859 C 0.84421 0.56131 0.06299 0.0
C860 C 0.89767 0.48552 1.00263 0.0
C861 C 0.92639 0.47674 0.06366 0.0
N862 N 0.86341 0.53942 0.06059 0.0
N863 N 0.90139 0.49257 0.06161 0.0
H864 H 0.77134 0.75764 0.36048 0.0
H865 H 0.99747 0.87188 0.28559 0.0
H866 H 0.80339 0.81786 0.26581 0.0
H867 H 0.96163 0.78119 0.36205 0.0
H868 H 0.92812 0.86046 0.28452 0.0
H869 H 0.84114 0.77034 0.36651 0.0
C870 C 0.79284 0.77321 0.34101 0.0
C871 C 0.7812 0.78702 0.31307 0.0
C872 C 0.93552 0.84354 0.30202 0.0
C873 C 0.8618 0.80279 0.31963 0.0
C874 C 0.97541 0.85068 0.30306 0.0
C875 C 0.98575 0.82814 0.32442 0.0
C876 C 0.90544 0.81361 0.32254 0.0
C877 C 0.95523 0.79984 0.34565 0.0
C878 C 0.83281 0.78067 0.34436 0.0
C879 C 0.81063 0.80673 0.28806 0.0
N880 N 0.91661 0.79331 0.34413 0.0
N881 N 0.84931 0.81441 0.29212 0.0
H882 H 0.16977 0.13179 0.34386 0.0
H883 H 0.29823 0.0358 0.27678 0.0
H884 H 0.27634 0.19906 0.28339 0.0
H885 H 0.22749 0.99188 0.36623 0.0
H886 H 0.29098 0.09608 0.27922 0.0
H887 H 0.19044 0.08093 0.35414 0.0
C888 C 0.19796 0.13648 0.33343 0.0
C889 C 0.22096 0.1697 0.31235 0.0
C890 C 0.27816 0.07392 0.29903 0.0
C891 C 0.24426 0.11085 0.3232 0.0
C892 C 0.28284 0.03968 0.29789 0.0
C893 C 0.26606 1.00972 0.32267 0.0
C894 C 0.25444 0.0775 0.32416 0.0
C895 C 0.24349 0.01513 0.34788 0.0
C896 C 0.20961 0.10721 0.33906 0.0
C897 C 0.2571 0.17368 0.29928 0.0
N898 N 0.23802 0.04793 0.34781 0.0
N899 N 0.26714 0.14445 0.30438 0.0
H900 H 1.01838 0.26636 0.27002 0.0
H901 H 0.88338 0.05913 0.37139 0.0
H902 H 0.04701 0.24886 0.36988 0.0
H903 H 0.87573 0.07155 0.26552 0.0
H904 H 0.94086 0.12922 0.37346 0.0
H905 H 0.9609 0.1969 0.27034 0.0
C906 C 1.01162 0.24852 0.29257 0.0
C907 C 0.0367 0.2645 0.32059 0.0
C908 C 0.927 0.11634 0.3497 0.0
C909 C 0.97184 0.1838 0.32072 0.0
C910 C 0.89466 0.07612 0.34847 0.0
C911 C 0.8752 0.05921 0.31815 0.0
C912 C 0.93951 0.13999 0.32046 0.0
C913 C 0.89023 0.08317 0.28934 0.0
C914 C 0.97918 0.20856 0.29258 0.0
C915 C 0.02743 0.23914 0.34856 0.0
N916 N 0.92103 0.12222 0.29125 0.0
N917 N 0.99597 0.2002 0.34793 0.0
H918 H 0.24201 0.80395 0.41237 0.0
H919 H 0.18731 0.6006 0.39154 0.0
H920 H 0.24591 0.80931 0.30529 0.0
H921 H 0.11841 0.60832 0.30977 0.0
H922 H 0.22637 0.67514 0.39387 0.0
H923 H 0.2146 0.73053 0.40954 0.0
C924 C 0.23707 0.78958 0.38823 0.0
C925 C 0.24455 0.81245 0.35902 0.0
C926 C 0.20288 0.66047 0.37527 0.0
C927 C 0.21404 0.72844 0.35553 0.0
C928 C 0.1809 0.61801 0.37374 0.0
C929 C 0.14953 0.59829 0.3505 0.0
C930 C 0.19389 0.68343 0.35303 0.0
C931 C 0.14226 0.62236 0.32814 0.0
C932 C 0.22174 0.74774 0.38663 0.0
C933 C 0.23889 0.7925 0.32839 0.0
N934 N 0.16434 0.6636 0.32986 0.0
N935 N 0.22303 0.75146 0.3274 0.0
H936 H 0.23588 0.42871 0.30699 0.0
H937 H 0.44742 0.56949 0.40016 0.0
H938 H 0.24596 0.44578 0.41322 0.0
H939 H 0.4402 0.52061 0.3022 0.0
H940 H 0.37301 0.53263 0.40305 0.0
H941 H 0.30988 0.47009 0.30238 0.0
C942 C 0.2537 0.44084 0.32937 0.0
C943 C 0.23489 0.4323 0.3607 0.0
C944 C 0.38764 0.53024 0.38077 0.0
C945 C 0.31953 0.48134 0.35552 0.0
C946 C 0.43005 0.55151 0.37905 0.0
C947 C 0.44983 0.5484 0.35076 0.0
C948 C 0.36475 0.50585 0.35388 0.0
C949 C 0.426 0.5241 0.3243 0.0
C950 C 0.29594 0.46471 0.32672 0.0
C951 C 0.25936 0.45067 0.38869 0.0
N952 N 0.38477 0.50385 0.32645 0.0
N953 N 0.30032 0.47404 0.3855 0.0
H954 H 0.49684 0.89648 0.4188 0.0
H955 H 0.59312 0.78963 0.30999 0.0
H956 H 0.4757 0.87708 0.3133 0.0
H957 H 0.59645 0.79498 0.41703 0.0
H958 H 0.54695 0.8173 0.30997 0.0
H959 H 0.53084 0.85669 0.41811 0.0
C960 C 0.49905 0.88353 0.39545 0.0
C961 C 0.48341 0.89041 0.36604 0.0
C962 C 0.55756 0.81222 0.33349 0.0
C963 C 0.52286 0.84441 0.365 0.0
C964 C 0.58411 0.79666 0.33348 0.0
C965 C 0.60015 0.79186 0.36354 0.0
C966 C 0.5468 0.82287 0.36379 0.0
C967 C 0.58596 0.79959 0.39327 0.0
C968 C 0.51845 0.86062 0.39508 0.0
C969 C 0.48703 0.87243 0.33661 0.0
N970 N 0.56086 0.8154 0.39264 0.0
N971 N 0.50675 0.8507 0.33676 0.0
H972 H 0.63008 0.10321 0.61729 0.0
H973 H 0.47182 0.15679 0.70042 0.0
H974 H 0.66719 0.21018 0.67676 0.0
H975 H 0.44484 0.08192 0.61346 0.0
H976 H 0.53904 0.16453 0.70263 0.0
H977 H 0.55925 0.0835 0.62677 0.0
C978 C 0.62339 0.12228 0.63292 0.0
C979 C 0.65508 0.15884 0.64586 0.0
C980 C 0.51798 0.14521 0.68373 0.0
C981 C 0.57311 0.13601 0.65693 0.0
C982 C 0.47876 0.13977 0.68295 0.0
C983 C 0.45067 0.11591 0.65824 0.0
C984 C 0.53008 0.12728 0.65921 0.0
C985 C 0.46415 0.09845 0.63423 0.0
C986 C 0.58279 0.111 0.63816 0.0
C987 C 0.64409 0.18177 0.6663 0.0
N988 N 0.50252 0.10423 0.63542 0.0
N989 N 0.60414 0.17021 0.67093 0.0
H990 H 0.91399 0.33568 0.70568 0.0
H991 H 0.89057 0.50069 0.6004 0.0
H992 H 0.94655 0.36024 0.60256 0.0
H993 H 0.88882 0.49939 0.7075 0.0
H994 H 0.90382 0.44409 0.60073 0.0
H995 H 0.90229 0.39285 0.70773 0.0
C996 C 0.92091 0.35434 0.68397 0.0
C997 C 0.93339 0.34406 0.65449 0.0
C998 C 0.89988 0.45562 0.62421 0.0
C999 C 0.91625 0.40805 0.65553 0.0
C1000 C 0.89151 0.48742 0.62401 0.0
C1001 C 0.88749 0.5041 0.65395 0.0
C1002 C 0.90456 0.44021 0.65464 0.0
C1003 C 0.89056 0.48672 0.68386 0.0
C1004 C 0.91298 0.38649 0.68481 0.0
C1005 C 0.93809 0.36765 0.62614 0.0
N1006 N 0.89901 0.45585 0.68347 0.0
N1007 N 0.92925 0.39818 0.62727 0.0
H1008 H 0.7183 0.58651 0.59451 0.0
H1009 H 0.53269 0.41387 0.699 0.0
H1010 H 0.69701 0.60509 0.69604 0.0
H1011 H 0.57661 0.39174 0.60734 0.0
H1012 H 0.58983 0.48402 0.6989 0.0
H1013 H 0.66179 0.51701 0.59757 0.0
C1014 C 0.70121 0.57623 0.61748 0.0
C1015 C 0.71286 0.60197 0.64538 0.0
C1016 C 0.58751 0.46362 0.67916 0.0
C1017 C 0.6478 0.52122 0.64929 0.0
C1018 C 0.55524 0.42335 0.6795 0.0
C1019 C 0.55055 0.39636 0.65371 0.0
C1020 C 0.61487 0.47756 0.65231 0.0
C1021 C 0.57969 0.41098 0.62826 0.0
C1022 C 0.66914 0.5362 0.61931 0.0
C1023 C 0.68936 0.58653 0.67427 0.0
N1024 N 0.6102 0.45044 0.62805 0.0
N1025 N 0.65817 0.54727 0.67563 0.0
H1026 H 0.83957 0.93343 0.72399 0.0
H1027 H 0.89944 0.14592 0.63938 0.0
H1028 H 0.7737 0.94204 0.64026 0.0
H1029 H 0.90947 0.13475 0.74514 0.0
H1030 H 0.86596 0.07182 0.63425 0.0
H1031 H 0.87829 1.00801 0.72713 0.0
C1032 C 0.83374 0.95105 0.70598 0.0
C1033 C 0.80348 0.9316 0.6818 0.0
C1034 C 0.87547 0.08563 0.65858 0.0
C1035 C 0.84778 0.01667 0.68501 0.0
C1036 C 0.89428 0.12786 0.66155 0.0
C1037 C 0.9054 0.14633 0.69297 0.0
C1038 C 0.86931 0.06178 0.68705 0.0
C1039 C 0.90019 0.12158 0.7206 0.0
C1040 C 0.85558 0.9935 0.70792 0.0
C1041 C 0.79678 0.95588 0.65928 0.0
N1042 N 0.88236 0.08061 0.71706 0.0
N1043 N 0.81885 0.99707 0.66129 0.0
H1044 H 0.90444 0.78916 0.64603 0.0
H1045 H 0.10469 0.88365 0.75824 0.0
H1046 H 0.90364 0.78493 0.7531 0.0
H1047 H 0.10904 0.90869 0.65325 0.0
H1048 H 0.03093 0.84915 0.75624 0.0
H1049 H 0.97828 0.83544 0.64733 0.0
C1050 C 0.91985 0.79799 0.6698 0.0
C1051 C 0.89824 0.78168 0.69949 0.0
C1052 C 0.04782 0.8625 0.73362 0.0
C1053 C 0.98256 0.83513 0.70125 0.0
C1054 C 0.09012 0.88215 0.73472 0.0
C1055 C 0.11338 0.89908 0.70584 0.0
C1056 C 0.02797 0.85912 0.7033 0.0
C1057 C 0.09249 0.89636 0.67618 0.0
C1058 C 0.96196 0.82461 0.67056 0.0
C1059 C 0.91936 0.79564 0.72961 0.0
N1060 N 0.05106 0.87638 0.67559 0.0
N1061 N 0.96028 0.82079 0.72971 0.0
H1062 H 0.26668 0.13278 0.6449 0.0
H1063 H 0.17555 0.24741 0.75042 0.0
H1064 H 0.27902 0.15017 0.75103 0.0
H1065 H 0.14429 0.21541 0.64745 0.0
H1066 H 0.21272 0.21076 0.75032 0.0
H1067 H 0.22075 0.16086 0.64432 0.0
C1068 C 0.25985 0.1427 0.66803 0.0
C1069 C 0.27809 0.1409 0.69789 0.0
C1070 C 0.19752 0.21131 0.72773 0.0
C1071 C 0.22491 0.17206 0.69761 0.0
C1072 C 0.17627 0.23238 0.72777 0.0
C1073 C 0.15678 0.23471 0.69887 0.0
C1074 C 0.19988 0.19239 0.69848 0.0
C1075 C 0.15861 0.21424 0.67035 0.0
C1076 C 0.23343 0.15844 0.66774 0.0
C1077 C 0.26671 0.15232 0.72733 0.0
N1078 N 0.18012 0.19431 0.67076 0.0
N1079 N 0.24151 0.16795 0.72638 0.0
H1080 H 0.14793 0.45513 0.27069 0.0
H1081 H 0.10312 0.42075 0.07548 0.0
H1082 H 0.14286 0.35499 0.21691 0.0
H1083 H 0.08414 0.50511 0.13289 0.0
H1084 H 0.13088 0.40564 0.12438 0.0
H1085 H 0.13819 0.48228 0.21871 0.0
C1086 C 0.14549 0.43915 0.24777 0.0
C1087 C 0.14604 0.40251 0.24832 0.0
C1088 C 0.12167 0.42822 0.12628 0.0
C1089 C 0.13446 0.4336 0.1882 0.0
C1090 C 0.10623 0.43735 0.09815 0.0
C1091 C 0.09219 0.46516 0.09963 0.0
C1092 C 0.12303 0.44673 0.15673 0.0
C1093 C 0.09562 0.48442 0.13019 0.0
C1094 C 0.13976 0.4547 0.21805 0.0
C1095 C 0.14305 0.38345 0.21772 0.0
N1096 N 0.11047 0.47468 0.15755 0.0
N1097 N 0.13696 0.39899 0.18897 0.0
H1098 H 0.58719 0.6955 0.26665 0.0
H1099 H 0.62415 0.68746 0.07164 0.0
H1100 H 0.68704 0.79205 0.21377 0.0
H1101 H 0.53899 0.58361 0.12823 0.0
H1102 H 0.6382 0.73004 0.12064 0.0
H1103 H 0.56057 0.65935 0.21429 0.0
C1104 C 0.60314 0.70954 0.24381 0.0
C1105 C 0.63952 0.74693 0.24469 0.0
C1106 C 0.61565 0.69821 0.12231 0.0
C1107 C 0.60922 0.70504 0.18419 0.0
C1108 C 0.60712 0.6738 0.09412 0.0
C1109 C 0.57943 0.63188 0.09538 0.0
C1110 C 0.59663 0.68079 0.15257 0.0
C1111 C 0.55961 0.61583 0.1257 0.0
C1112 C 0.58794 0.68868 0.21388 0.0
C1113 C 0.65873 0.76359 0.21428 0.0
N1114 N 0.56878 0.64024 0.15311 0.0
N1115 N 0.64359 0.74233 0.18532 0.0
H1116 H 0.46951 0.01921 0.12986 0.0
H1117 H 0.27397 0.85674 0.23067 0.0
H1118 H 0.38559 0.90702 0.08213 0.0
H1119 H 0.33721 0.98597 0.24542 0.0
H1120 H 0.31572 0.86717 0.18021 0.0
H1121 H 0.42657 0.99852 0.17905 0.0
C1122 C 0.44276 0.98935 0.13023 0.0
C1123 C 0.43136 0.96495 0.10165 0.0
C1124 C 0.31999 0.89313 0.19444 0.0
C1125 C 0.3804 0.94143 0.15797 0.0
C1126 C 0.29584 0.88724 0.22297 0.0
C1127 C 0.3022 0.92055 0.24256 0.0
C1128 C 0.35094 0.9325 0.18594 0.0
C1129 C 0.33151 0.95931 0.23161 0.0
C1130 C 0.41765 0.97788 0.15814 0.0
C1131 C 0.39563 0.92692 0.10349 0.0
N1132 N 0.35481 0.96408 0.20455 0.0
N1133 N 0.37107 0.91647 0.13098 0.0
H1134 H 0.48846 0.03321 0.88305 0.0
H1135 H 0.41542 0.17589 0.79484 0.0
H1136 H 0.45741 0.1124 0.93575 0.0
H1137 H 0.44128 0.09377 0.74115 0.0
H1138 H 0.44081 0.1606 0.84593 0.0
H1139 H 0.4808 0.06159 0.83011 0.0
C1140 C 0.4808 0.05697 0.88359 0.0
C1141 C 0.47329 0.07008 0.91404 0.0
C1142 C 0.44201 0.14675 0.82276 0.0
C1143 C 0.46423 0.1027 0.85355 0.0
C1144 C 0.42812 0.15612 0.79345 0.0
C1145 C 0.42755 0.1373 0.76333 0.0
C1146 C 0.45482 0.11781 0.82211 0.0
C1147 C 0.44252 0.11016 0.76352 0.0
C1148 C 0.47615 0.07306 0.85334 0.0
C1149 C 0.46297 0.10079 0.91299 0.0
N1150 N 0.45514 0.10101 0.79229 0.0
N1151 N 0.45857 0.11574 0.88351 0.0
H1152 H 0.02029 0.46222 0.8877 0.0
H1153 H 0.87194 0.25007 0.79573 0.0
H1154 H 0.93231 0.35438 0.93883 0.0
H1155 H 0.96523 0.35596 0.74619 0.0
H1156 H 0.88638 0.29042 0.84724 0.0
H1157 H 0.99375 0.42682 0.83428 0.0
C1158 C 0.99499 0.43149 0.88773 0.0
C1159 C 0.97888 0.41125 0.9179 0.0
C1160 C 0.90306 0.30502 0.82481 0.0
C1161 C 0.94838 0.37022 0.85691 0.0
C1162 C 0.89436 0.28201 0.79532 0.0
C1163 C 0.91674 0.29974 0.76631 0.0
C1164 C 0.93451 0.34594 0.82531 0.0
C1165 C 0.94663 0.34109 0.7677 0.0
C1166 C 0.97995 0.41108 0.85724 0.0
C1167 C 0.9462 0.37112 0.91628 0.0
N1168 N 0.95473 0.36253 0.79648 0.0
N1169 N 0.93233 0.35198 0.88655 0.0
H1170 H 0.68813 0.62646 0.74411 0.0
H1171 H 0.69258 0.58055 0.9356 0.0
H1172 H 0.78945 0.62298 0.78799 0.0
H1173 H 0.58596 0.56455 0.88494 0.0
H1174 H 0.72649 0.59021 0.88206 0.0
H1175 H 0.6493 0.59788 0.79393 0.0
C1176 C 0.70211 0.61854 0.7638 0.0
C1177 C 0.74236 0.62674 0.76101 0.0
C1178 C 0.69553 0.58403 0.88248 0.0
C1179 C 0.69743 0.59498 0.82025 0.0
C1180 C 0.67601 0.57857 0.91312 0.0
C1181 C 0.63628 0.57206 0.91496 0.0
C1182 C 0.67556 0.58352 0.85306 0.0
C1183 C 0.61642 0.56936 0.88488 0.0
C1184 C 0.67965 0.60238 0.79273 0.0
C1185 C 0.75849 0.61671 0.78846 0.0
N1186 N 0.63646 0.57568 0.85529 0.0
N1187 N 0.7362 0.60195 0.81711 0.0
H1188 H 0.76466 0.84589 0.45034 0.0
H1189 H 0.81846 0.6947 0.55015 0.0
H1190 H 0.75358 0.7354 0.41149 0.0
H1191 H 0.8111 0.79233 0.59721 0.0
H1192 H 0.80911 0.71876 0.49578 0.0
H1193 H 0.79507 0.83597 0.50138 0.0
C1194 C 0.7696 0.82035 0.45191 0.0
C1195 C 0.75653 0.79167 0.4261 0.0
C1196 C 0.81021 0.73537 0.51799 0.0
C1197 C 0.79105 0.77988 0.48442 0.0
C1198 C 0.81601 0.72178 0.54898 0.0
C1199 C 0.81531 0.7413 0.57829 0.0
C1200 C 0.80379 0.7688 0.51626 0.0
C1201 C 0.81136 0.77604 0.57524 0.0
C1202 C 0.78667 0.81445 0.48118 0.0
C1203 C 0.76322 0.75869 0.43014 0.0
N1204 N 0.80538 0.7884 0.545 0.0
N1205 N 0.77964 0.7537 0.45844 0.0
H1206 H 0.29259 0.02269 0.40468 0.0
H1207 H 0.26682 0.02251 0.60231 0.0
H1208 H 0.21228 0.91669 0.46136 0.0
H1209 H 0.35879 0.12575 0.54884 0.0
H1210 H 0.24025 0.98723 0.55 0.0
H1211 H 0.30978 0.06366 0.45522 0.0
C1212 C 0.27715 1.00828 0.42759 0.0
C1213 C 0.24982 0.96625 0.42842 0.0
C1214 C 0.26609 0.01764 0.54946 0.0
C1215 C 0.27078 1.01312 0.48718 0.0
C1216 C 0.28152 0.03802 0.57949 0.0
C1217 C 0.3157 0.07726 0.58033 0.0
C1218 C 0.28468 0.03621 0.51939 0.0
C1219 C 0.33251 0.09567 0.54961 0.0
C1220 C 0.28756 0.03171 0.45661 0.0
C1221 C 0.23238 0.94905 0.4592 0.0
N1222 N 0.31709 0.07486 0.52045 0.0
N1223 N 0.24328 0.97247 0.48729 0.0
H1224 H 0.91555 0.23373 0.55074 0.0
H1225 H 0.12721 0.29227 0.4616 0.0
H1226 H 1.01805 0.2411 0.60233 0.0
H1227 H 0.02319 0.28159 0.41024 0.0
H1228 H 0.08528 0.26497 0.51216 0.0
H1229 H 0.95136 0.24239 0.49765 0.0
C1230 C 0.94504 0.23611 0.55089 0.0
C1231 C 0.9638 0.23687 0.58112 0.0
C1232 C 0.07143 0.26779 0.48956 0.0
C1233 C 1.00552 0.24764 0.52052 0.0
C1234 C 0.09534 0.28292 0.46061 0.0
C1235 C 0.07861 0.2886 0.43144 0.0
C1236 C 0.03063 0.25864 0.48936 0.0
C1237 C 0.0373 0.27722 0.43201 0.0
C1238 C 0.96577 0.24149 0.52059 0.0
C1239 C 1.00254 0.24082 0.5797 0.0
N1240 N 1.015 0.26321 0.46033 0.0
N1241 N 0.02214 0.24639 0.55016 0.0
loop_
_geom_bond_atom_site_label_1
_geom_bond_atom_site_label_2
_geom_bond_distance
_geom_bond_site_symmetry_2
_ccdc_geom_bond_type
Tb0 N31 2.660 1_556 S
Tb0 N38 2.600 . S
Tb0 O44 2.546 . S
Tb0 O45 2.610 1_556 S
Tb0 O47 2.320 1_556 S
Tb0 O48 2.552 . S
Tb0 O49 2.413 1_556 S
Tb0 O51 2.355 1_456 S
Tb0 O52 2.421 . S
Tb0 C64 2.833 . S
C1 C4 1.432 . S
C1 C5 1.414 . S
C1 N8 1.359 1_455 S
C2 C4 1.417 1_556 S
C2 C6 1.432 1_556 S
C2 C14 1.410 . S
C3 C5 1.444 . S
C3 C6 1.317 . S
C3 H26 0.929 . S
C4 C1 1.432 . S
C4 C2 1.417 1_554 S
C4 N12 1.360 1_554 S
C5 C1 1.414 . S
C5 C3 1.444 . S
C5 C10 1.385 . S
C6 C2 1.432 1_554 S
C6 C3 1.317 . S
C6 H18 0.930 . S
C7 C9 1.392 . S
C7 C10 1.370 1_655 S
C7 H19 0.931 . S
N8 C1 1.359 1_655 S
N8 C9 1.327 . S
N8 Tb11 2.600 . S
C9 C7 1.392 . S
C9 N8 1.327 . S
C9 H16 0.930 . S
C10 C5 1.385 . S
C10 C7 1.370 1_455 S
C10 H29 0.930 . S
Tb11 N8 2.600 . S
Tb11 N12 2.660 1_654 S
Tb11 O45 2.362 1_655 S
Tb11 O46 2.421 1_655 S
Tb11 O50 2.546 . S
Tb11 O51 2.618 . S
Tb11 O53 2.320 1_554 S
Tb11 O54 2.552 . S
Tb11 O55 2.413 1_554 S
Tb11 C75 2.833 . S
N12 C4 1.360 1_556 S
N12 Tb11 2.660 1_456 S
N12 C13 1.305 . S
C13 N12 1.305 . S
C13 C15 1.407 . S
C13 H20 0.930 . S
C14 C2 1.410 . S
C14 C15 1.345 . S
C14 H22 0.930 . S
C15 C13 1.407 . S
C15 C14 1.345 . S
C15 H17 0.930 . S
H16 C9 0.930 . S
H17 C15 0.930 . S
H18 C6 0.930 . S
H19 C7 0.931 . S
H20 C13 0.930 . S
H21 C35 0.930 . S
H22 C14 0.930 . S
H23 C41 0.930 . S
H24 C32 0.930 1_455 S
H25 C39 0.931 . S
H26 C3 0.929 . S
H27 C33 0.930 . S
H28 C66 0.930 . S
H29 C10 0.930 . S
H30 C65 0.929 . S
N31 Tb0 2.660 1_554 S
N31 C32 1.305 1_455 S
N31 C36 1.360 1_454 S
C32 H24 0.930 1_655 S
C32 N31 1.305 1_655 S
C32 C35 1.407 . S
C33 H27 0.930 . S
C33 C34 1.410 . S
C33 C35 1.345 . S
C34 C33 1.410 . S
C34 C36 1.417 1_554 S
C34 C66 1.432 1_554 S
C35 H21 0.930 . S
C35 C32 1.407 . S
C35 C33 1.345 . S
C36 N31 1.360 1_656 S
C36 C34 1.417 1_556 S
C36 C40 1.432 . S
H37 C42 0.930 . S
N38 Tb0 2.600 . S
N38 C40 1.359 1_455 S
N38 C41 1.327 . S
C39 H25 0.931 . S
C39 C41 1.392 . S
C39 C42 1.370 1_455 S
C40 C36 1.432 . S
C40 N38 1.359 1_655 S
C40 C43 1.414 . S
C41 H23 0.930 . S
C41 N38 1.327 . S
C41 C39 1.392 . S
C42 H37 0.930 . S
C42 C39 1.370 1_655 S
C42 C43 1.385 . S
C43 C40 1.414 . S
C43 C42 1.385 . S
C43 C65 1.444 . S
O44 Tb0 2.546 . S
O44 C64 1.251 . S
O45 Tb0 2.610 1_554 S
O45 Tb11 2.362 1_455 S
O45 C56 1.283 1_554 S
O46 Tb11 2.421 1_455 S
O46 C63 1.262 . S
O47 Tb0 2.320 1_554 S
O47 C63 1.260 . S
O48 Tb0 2.552 . S
O48 C56 1.243 . S
O49 Tb0 2.413 1_554 S
O49 C64 1.256 1_554 S
O50 Tb11 2.546 . S
O50 C75 1.251 . S
O51 Tb0 2.355 1_654 S
O51 Tb11 2.618 . S
O51 C67 1.291 . S
O52 Tb0 2.421 . S
O52 C74 1.262 1_455 S
O53 Tb11 2.320 1_556 S
O53 C74 1.260 . S
O54 Tb11 2.552 . S
O54 C67 1.243 . S
O55 Tb11 2.413 1_556 S
O55 C75 1.256 1_556 S
C56 O45 1.283 1_556 S
C56 O48 1.243 . S
C57 C59 1.382 1_556 S
C57 C61 1.393 . S
C57 C64 1.500 . S
C58 C59 1.400 . S
C58 C60 1.384 1_554 S
C59 C57 1.382 1_554 S
C59 C58 1.400 . S
C59 H76 0.930 . S
C60 C58 1.384 1_556 S
C60 C62 1.392 . S
C60 H77 0.931 . S
C61 C57 1.393 . S
C61 C62 1.401 . S
C61 H78 0.930 . S
C62 C60 1.392 . S
C62 C61 1.401 . S
C62 H79 0.930 . S
C63 O46 1.262 . S
C63 O47 1.260 . S
C64 Tb0 2.833 . S
C64 O44 1.251 . S
C64 O49 1.256 1_556 S
C64 C57 1.500 . S
C65 H30 0.929 . S
C65 C43 1.444 . S
C65 C66 1.317 . S
C66 H28 0.930 . S
C66 C34 1.432 1_556 S
C66 C65 1.317 . S
C67 O51 1.291 . S
C67 O54 1.243 . S
C68 C69 1.382 1_554 S
C68 C72 1.393 . S
C68 C75 1.500 . S
C69 C68 1.382 1_556 S
C69 C70 1.400 . S
C69 H80 0.930 . S
C70 C69 1.400 . S
C70 C71 1.384 1_556 S
C71 C70 1.384 1_554 S
C71 C73 1.392 . S
C71 H81 0.931 . S
C72 C68 1.393 . S
C72 C73 1.401 . S
C72 H82 0.930 . S
C73 C71 1.392 . S
C73 C72 1.401 . S
C73 H83 0.930 . S
C74 O52 1.262 1_655 S
C74 O53 1.260 . S
C75 Tb11 2.833 . S
C75 O50 1.251 . S
C75 O55 1.256 1_554 S
C75 C68 1.500 . S
H76 C59 0.930 . S
H77 C60 0.931 . S
H78 C61 0.930 . S
H79 C62 0.930 . S
H80 C69 0.930 . S
H81 C71 0.931 . S
H82 C72 0.930 . S
H83 C73 0.930 . S
Tb84 N115 2.660 1_556 S
Tb84 N122 2.600 . S
Tb84 O128 2.546 . S
Tb84 O129 2.610 1_556 S
Tb84 O131 2.320 1_556 S
Tb84 O132 2.552 . S
Tb84 O133 2.413 1_556 S
Tb84 O135 2.355 1_556 S
Tb84 O136 2.421 . S
Tb84 C148 2.833 . S
C85 C88 1.432 . S
C85 C89 1.414 . S
C85 N92 1.359 . S
C86 C88 1.417 1_556 S
C86 C90 1.432 1_556 S
C86 C98 1.410 . S
C87 C89 1.444 . S
C87 C90 1.317 . S
C87 H110 0.929 . S
C88 C85 1.432 . S
C88 C86 1.417 1_554 S
C88 N96 1.360 1_554 S
C89 C85 1.414 . S
C89 C87 1.444 . S
C89 C94 1.385 . S
C90 C86 1.432 1_554 S
C90 C87 1.317 . S
C90 H102 0.930 . S
C91 C93 1.392 . S
C91 C94 1.370 . S
C91 H103 0.931 . S
N92 C85 1.359 . S
N92 C93 1.327 . S
N92 Tb95 2.600 . S
C93 C91 1.392 . S
C93 N92 1.327 . S
C93 H100 0.930 . S
C94 C89 1.385 . S
C94 C91 1.370 . S
C94 H113 0.930 . S
Tb95 N92 2.600 . S
Tb95 N96 2.660 1_554 S
Tb95 O129 2.362 . S
Tb95 O130 2.421 . S
Tb95 O134 2.546 . S
Tb95 O135 2.618 . S
Tb95 O137 2.320 1_554 S
Tb95 O138 2.552 . S
Tb95 O139 2.413 1_554 S
Tb95 C159 2.833 . S
N96 C88 1.360 1_556 S
N96 Tb95 2.660 1_556 S
N96 C97 1.305 . S
C97 N96 1.305 . S
C97 C99 1.407 . S
C97 H104 0.930 . S
C98 C86 1.410 . S
C98 C99 1.345 . S
C98 H106 0.930 . S
C99 C97 1.407 . S
C99 C98 1.345 . S
C99 H101 0.930 . S
H100 C93 0.930 . S
H101 C99 0.930 . S
H102 C90 0.930 . S
H103 C91 0.931 . S
H104 C97 0.930 . S
H105 C119 0.930 . S
H106 C98 0.930 . S
H107 C125 0.930 . S
H108 C116 0.930 . S
H109 C123 0.931 . S
H110 C87 0.929 . S
H111 C117 0.930 . S
H112 C150 0.930 . S
H113 C94 0.930 . S
H114 C149 0.929 . S
N115 Tb84 2.660 1_554 S
N115 C116 1.305 . S
N115 C120 1.360 1_554 S
C116 H108 0.930 . S
C116 N115 1.305 . S
C116 C119 1.407 . S
C117 H111 0.930 . S
C117 C118 1.410 . S
C117 C119 1.345 . S
C118 C117 1.410 . S
C118 C120 1.417 1_554 S
C118 C150 1.432 1_554 S
C119 H105 0.930 . S
C119 C116 1.407 . S
C119 C117 1.345 . S
C120 N115 1.360 1_556 S
C120 C118 1.417 1_556 S
C120 C124 1.432 . S
H121 C126 0.930 . S
N122 Tb84 2.600 . S
N122 C124 1.359 . S
N122 C125 1.327 . S
C123 H109 0.931 . S
C123 C125 1.392 . S
C123 C126 1.370 . S
C124 C120 1.432 . S
C124 N122 1.359 . S
C124 C127 1.414 . S
C125 H107 0.930 . S
C125 N122 1.327 . S
C125 C123 1.392 . S
C126 H121 0.930 . S
C126 C123 1.370 . S
C126 C127 1.385 . S
C127 C124 1.414 . S
C127 C126 1.385 . S
C127 C149 1.444 . S
O128 Tb84 2.546 . S
O128 C148 1.251 . S
O129 Tb84 2.610 1_554 S
O129 Tb95 2.362 . S
O129 C140 1.283 1_554 S
O130 Tb95 2.421 . S
O130 C147 1.262 . S
O131 Tb84 2.320 1_554 S
O131 C147 1.260 . S
O132 Tb84 2.552 . S
O132 C140 1.243 . S
O133 Tb84 2.413 1_554 S
O133 C148 1.256 1_554 S
O134 Tb95 2.546 . S
O134 C159 1.251 . S
O135 Tb84 2.355 1_554 S
O135 Tb95 2.618 . S
O135 C151 1.291 . S
O136 Tb84 2.421 . S
O136 C158 1.262 . S
O137 Tb95 2.320 1_556 S
O137 C158 1.260 . S
O138 Tb95 2.552 . S
O138 C151 1.243 . S
O139 Tb95 2.413 1_556 S
O139 C159 1.256 1_556 S
C140 O129 1.283 1_556 S
C140 O132 1.243 . S
C141 C143 1.382 1_556 S
C141 C145 1.393 . S
C141 C148 1.500 . S
C142 C143 1.400 . S
C142 C144 1.384 1_554 S
C143 C141 1.382 1_554 S
C143 C142 1.400 . S
C143 H160 0.930 . S
C144 C142 1.384 1_556 S
C144 C146 1.392 . S
C144 H161 0.931 . S
C145 C141 1.393 . S
C145 C146 1.401 . S
C145 H162 0.930 . S
C146 C144 1.392 . S
C146 C145 1.401 . S
C146 H163 0.930 . S
C147 O130 1.262 . S
C147 O131 1.260 . S
C148 Tb84 2.833 . S
C148 O128 1.251 . S
C148 O133 1.256 1_556 S
C148 C141 1.500 . S
C149 H114 0.929 . S
C149 C127 1.444 . S
C149 C150 1.317 . S
C150 H112 0.930 . S
C150 C118 1.432 1_556 S
C150 C149 1.317 . S
C151 O135 1.291 . S
C151 O138 1.243 . S
C152 C153 1.382 1_554 S
C152 C156 1.393 . S
C152 C159 1.500 . S
C153 C152 1.382 1_556 S
C153 C154 1.400 . S
C153 H164 0.930 . S
C154 C153 1.400 . S
C154 C155 1.384 1_556 S
C155 C154 1.384 1_554 S
C155 C157 1.392 . S
C155 H165 0.931 . S
C156 C152 1.393 . S
C156 C157 1.401 . S
C156 H166 0.930 . S
C157 C155 1.392 . S
C157 C156 1.401 . S
C157 H167 0.930 . S
C158 O136 1.262 . S
C158 O137 1.260 . S
C159 Tb95 2.833 . S
C159 O134 1.251 . S
C159 O139 1.256 1_554 S
C159 C152 1.500 . S
H160 C143 0.930 . S
H161 C144 0.931 . S
H162 C145 0.930 . S
H163 C146 0.930 . S
H164 C153 0.930 . S
H165 C155 0.931 . S
H166 C156 0.930 . S
H167 C157 0.930 . S
Tb168 N199 2.660 1_566 S
Tb168 N206 2.600 . S
Tb168 O212 2.546 . S
Tb168 O213 2.610 1_556 S
Tb168 O215 2.320 1_556 S
Tb168 O216 2.552 . S
Tb168 O217 2.413 1_556 S
Tb168 O219 2.355 1_566 S
Tb168 O220 2.408 1_565 S
Tb168 C232 2.833 . S
C169 C172 1.432 . S
C169 C173 1.414 . S
C169 N176 1.359 1_565 S
C170 C172 1.417 1_556 S
C170 C174 1.432 1_556 S
C170 C182 1.410 . S
C171 C173 1.444 . S
C171 C174 1.317 . S
C171 H194 0.929 . S
C172 C169 1.432 . S
C172 C170 1.417 1_554 S
C172 N180 1.360 1_564 S
C173 C169 1.414 . S
C173 C171 1.444 . S
C173 C178 1.385 . S
C174 C170 1.432 1_554 S
C174 C171 1.317 . S
C174 H186 0.930 . S
C175 C177 1.392 . S
C175 C178 1.370 1_545 S
C175 H187 0.931 . S
N176 C169 1.359 1_545 S
N176 C177 1.327 . S
N176 Tb179 2.600 . S
C177 C175 1.392 . S
C177 N176 1.327 . S
C177 H184 0.930 . S
C178 C173 1.385 . S
C178 C175 1.370 1_565 S
C178 H197 0.930 . S
Tb179 N176 2.600 . S
Tb179 N180 2.660 1_554 S
Tb179 O213 2.362 1_545 S
Tb179 O214 2.421 . S
Tb179 O218 2.546 . S
Tb179 O219 2.618 . S
Tb179 O221 2.320 1_554 S
Tb179 O222 2.552 . S
Tb179 O223 2.413 1_554 S
Tb179 C243 2.833 . S
N180 C172 1.360 1_546 S
N180 Tb179 2.660 1_556 S
N180 C181 1.305 1_545 S
C181 N180 1.305 1_565 S
C181 C183 1.407 . S
C181 H188 0.935 1_565 S
C182 C170 1.410 . S
C182 C183 1.345 . S
C182 H190 0.930 . S
C183 C181 1.407 . S
C183 C182 1.345 . S
C183 H185 0.930 . S
H184 C177 0.930 . S
H185 C183 0.930 . S
H186 C174 0.930 . S
H187 C175 0.931 . S
H188 C181 0.935 1_545 S
H189 C203 0.930 . S
H190 C182 0.930 . S
H191 C209 0.930 . S
H192 C200 0.930 . S
H193 C207 0.931 . S
H194 C171 0.929 . S
H195 C201 0.930 . S
H196 C234 0.930 . S
H197 C178 0.930 . S
H198 C233 0.929 . S
N199 Tb168 2.660 1_544 S
N199 C200 1.305 . S
N199 C204 1.360 1_554 S
C200 H192 0.930 . S
C200 N199 1.305 . S
C200 C203 1.407 . S
C201 H195 0.930 . S
C201 C202 1.410 . S
C201 C203 1.345 . S
C202 C201 1.410 . S
C202 C204 1.417 1_554 S
C202 C234 1.432 1_554 S
C203 H189 0.930 . S
C203 C200 1.407 . S
C203 C201 1.345 . S
C204 N199 1.360 1_556 S
C204 C202 1.417 1_556 S
C204 C208 1.432 . S
H205 C210 0.930 . S
N206 Tb168 2.600 . S
N206 C208 1.359 1_565 S
N206 C209 1.327 . S
C207 H193 0.931 . S
C207 C209 1.392 . S
C207 C210 1.370 1_565 S
C208 C204 1.432 . S
C208 N206 1.359 1_545 S
C208 C211 1.414 . S
C209 H191 0.930 . S
C209 N206 1.327 . S
C209 C207 1.392 . S
C210 H205 0.930 . S
C210 C207 1.370 1_545 S
C210 C211 1.385 . S
C211 C208 1.414 . S
C211 C210 1.385 . S
C211 C233 1.444 . S
O212 Tb168 2.546 . S
O212 C232 1.251 . S
O213 Tb168 2.610 1_554 S
O213 Tb179 2.362 1_565 S
O213 C224 1.283 1_554 S
O214 Tb179 2.421 . S
O214 C231 1.262 1_545 S
O215 Tb168 2.320 1_554 S
O215 C231 1.260 . S
O216 Tb168 2.552 . S
O216 C224 1.243 . S
O217 Tb168 2.413 1_554 S
O217 C232 1.256 1_554 S
O218 Tb179 2.546 . S
O218 C243 1.251 . S
O219 Tb168 2.355 1_544 S
O219 Tb179 2.618 . S
O219 C235 1.290 . S
O220 Tb168 2.408 1_545 S
O220 C242 1.285 . S
O221 Tb179 2.320 1_556 S
O221 C242 1.260 . S
O222 Tb179 2.552 . S
O222 C235 1.243 . S
O223 Tb179 2.413 1_556 S
O223 C243 1.256 1_556 S
C224 O213 1.283 1_556 S
C224 O216 1.243 . S
C225 C227 1.382 1_556 S
C225 C229 1.393 . S
C225 C232 1.500 . S
C226 C227 1.400 . S
C226 C228 1.384 1_554 S
C227 C225 1.382 1_554 S
C227 C226 1.400 . S
C227 H244 0.930 . S
C228 C226 1.384 1_556 S
C228 C230 1.392 . S
C228 H245 0.931 . S
C229 C225 1.393 . S
C229 C230 1.401 . S
C229 H246 0.930 . S
C230 C228 1.392 . S
C230 C229 1.401 . S
C230 H247 0.930 . S
C231 O214 1.262 1_565 S
C231 O215 1.260 . S
C232 Tb168 2.833 . S
C232 O212 1.251 . S
C232 O217 1.256 1_556 S
C232 C225 1.500 . S
C233 H198 0.929 . S
C233 C211 1.444 . S
C233 C234 1.317 . S
C234 H196 0.930 . S
C234 C202 1.432 1_556 S
C234 C233 1.317 . S
C235 O219 1.290 . S
C235 O222 1.243 . S
C236 C237 1.382 1_554 S
C236 C240 1.393 . S
C236 C243 1.500 . S
C237 C236 1.382 1_556 S
C237 C238 1.400 . S
C237 H248 0.930 . S
C238 C237 1.400 . S
C238 C239 1.384 1_556 S
C239 C238 1.384 1_554 S
C239 C241 1.392 . S
C239 H249 0.931 . S
C240 C236 1.393 . S
C240 C241 1.401 . S
C240 H250 0.930 . S
C241 C239 1.392 . S
C241 C240 1.401 . S
C241 H251 0.930 . S
C242 O220 1.285 . S
C242 O221 1.260 . S
C243 Tb179 2.833 . S
C243 O218 1.251 . S
C243 O223 1.256 1_554 S
C243 C236 1.500 . S
H244 C227 0.930 . S
H245 C228 0.931 . S
H246 C229 0.930 . S
H247 C230 0.930 . S
H248 C237 0.930 . S
H249 C239 0.931 . S
H250 C240 0.930 . S
H251 C241 0.930 . S
Tb252 N283 2.660 . S
Tb252 N290 2.600 . S
Tb252 O296 2.546 . S
Tb252 O297 2.610 . S
Tb252 O299 2.320 . S
Tb252 O300 2.552 . S
Tb252 O301 2.413 . S
Tb252 O303 2.362 . S
Tb252 O304 2.421 . S
Tb252 C316 2.833 . S
C253 C256 1.432 . S
C253 C257 1.414 . S
C253 N260 1.359 . S
C254 C256 1.417 . S
C254 C258 1.432 . S
C254 C266 1.410 . S
C255 C257 1.444 . S
C255 C258 1.317 . S
C255 H278 0.929 . S
C256 C253 1.432 . S
C256 C254 1.417 . S
C256 N264 1.360 . S
C257 C253 1.414 . S
C257 C255 1.444 . S
C257 C262 1.385 . S
C258 C254 1.432 . S
C258 C255 1.317 . S
C258 H270 0.930 . S
C259 C261 1.392 . S
C259 C262 1.370 . S
C259 H271 0.931 . S
N260 C253 1.359 . S
N260 C261 1.327 . S
N260 Tb263 2.600 . S
C261 C259 1.392 . S
C261 N260 1.327 . S
C261 H268 0.930 . S
C262 C257 1.385 . S
C262 C259 1.370 . S
C262 H281 0.930 . S
Tb263 N260 2.600 . S
Tb263 N264 2.660 . S
Tb263 O297 2.362 . S
Tb263 O298 2.421 . S
Tb263 O302 2.546 . S
Tb263 O303 2.610 . S
Tb263 O305 2.320 . S
Tb263 O306 2.552 . S
Tb263 O307 2.413 . S
Tb263 C327 2.833 . S
N264 C256 1.360 . S
N264 Tb263 2.660 . S
N264 C265 1.305 . S
C265 N264 1.305 . S
C265 C267 1.407 . S
C265 H272 0.930 . S
C266 C254 1.410 . S
C266 C267 1.345 . S
C266 H274 0.930 . S
C267 C265 1.407 . S
C267 C266 1.345 . S
C267 H269 0.930 . S
H268 C261 0.930 . S
H269 C267 0.930 . S
H270 C258 0.930 . S
H271 C259 0.931 . S
H272 C265 0.930 . S
H273 C287 0.930 . S
H274 C266 0.930 . S
H275 C293 0.930 . S
H276 C284 0.930 . S
H277 C291 0.931 . S
H278 C255 0.929 . S
H279 C285 0.930 . S
H280 C318 0.930 . S
H281 C262 0.930 . S
H282 C317 0.929 . S
N283 Tb252 2.660 . S
N283 C284 1.305 . S
N283 C288 1.360 . S
C284 H276 0.930 . S
C284 N283 1.305 . S
C284 C287 1.407 . S
C285 H279 0.930 . S
C285 C286 1.410 . S
C285 C287 1.345 . S
C286 C285 1.410 . S
C286 C288 1.417 . S
C286 C318 1.432 . S
C287 H273 0.930 . S
C287 C284 1.407 . S
C287 C285 1.345 . S
C288 N283 1.360 . S
C288 C286 1.417 . S
C288 C292 1.432 . S
H289 C294 0.930 . S
N290 Tb252 2.600 . S
N290 C292 1.359 . S
N290 C293 1.327 . S
C291 H277 0.931 . S
C291 C293 1.392 . S
C291 C294 1.370 . S
C292 C288 1.432 . S
C292 N290 1.359 . S
C292 C295 1.414 . S
C293 H275 0.930 . S
C293 N290 1.327 . S
C293 C291 1.392 . S
C294 H289 0.930 . S
C294 C291 1.370 . S
C294 C295 1.385 . S
C295 C292 1.414 . S
C295 C294 1.385 . S
C295 C317 1.444 . S
O296 Tb252 2.546 . S
O296 C316 1.251 . S
O297 Tb252 2.610 . S
O297 Tb263 2.362 . S
O297 C308 1.283 . S
O298 Tb263 2.421 . S
O298 C315 1.262 . S
O299 Tb252 2.320 . S
O299 C315 1.260 . S
O300 Tb252 2.552 . S
O300 C308 1.243 . S
O301 Tb252 2.413 . S
O301 C316 1.256 . S
O302 Tb263 2.546 . S
O302 C327 1.251 . S
O303 Tb252 2.362 . S
O303 Tb263 2.610 . S
O303 C319 1.283 . S
O304 Tb252 2.421 . S
O304 C326 1.262 . S
O305 Tb263 2.320 . S
O305 C326 1.260 . S
O306 Tb263 2.552 . S
O306 C319 1.243 . S
O307 Tb263 2.413 . S
O307 C327 1.256 . S
C308 O297 1.283 . S
C308 O300 1.243 . S
C309 C311 1.382 . S
C309 C313 1.393 . S
C309 C316 1.500 . S
C310 C311 1.400 1_545 S
C310 C312 1.384 . S
C311 C309 1.382 . S
C311 C310 1.400 1_565 S
C311 H328 0.930 . S
C312 C310 1.384 . S
C312 C314 1.392 . S
C312 H329 0.931 . S
C313 C309 1.393 . S
C313 C314 1.401 1_565 S
C313 H330 0.930 . S
C314 C312 1.392 . S
C314 C313 1.401 1_545 S
C314 H331 0.930 . S
C315 O298 1.262 . S
C315 O299 1.260 . S
C316 Tb252 2.833 . S
C316 O296 1.251 . S
C316 O301 1.256 . S
C316 C309 1.500 . S
C317 H282 0.929 . S
C317 C295 1.444 . S
C317 C318 1.317 . S
C318 H280 0.930 . S
C318 C286 1.432 . S
C318 C317 1.317 . S
C319 O303 1.283 . S
C319 O306 1.243 . S
C320 C321 1.382 . S
C320 C324 1.393 . S
C320 C327 1.500 . S
C321 C320 1.382 . S
C321 C322 1.400 . S
C321 H332 0.930 . S
C322 C321 1.400 . S
C322 C323 1.384 . S
C323 C322 1.384 . S
C323 C325 1.392 . S
C323 H333 0.931 . S
C324 C320 1.393 . S
C324 C325 1.401 . S
C324 H334 0.930 . S
C325 C323 1.392 . S
C325 C324 1.401 . S
C325 H335 0.930 . S
C326 O304 1.262 . S
C326 O305 1.260 . S
C327 Tb263 2.833 . S
C327 O302 1.251 . S
C327 O307 1.256 . S
C327 C320 1.500 . S
H328 C311 0.930 . S
H329 C312 0.931 . S
H330 C313 0.930 . S
H331 C314 0.930 . S
H332 C321 0.930 . S
H333 C323 0.931 . S
H334 C324 0.930 . S
H335 C325 0.930 . S
Tb336 N367 2.660 . S
Tb336 N374 2.600 . S
Tb336 O380 2.546 . S
Tb336 O381 2.610 . S
Tb336 O383 2.320 . S
Tb336 O384 2.552 . S
Tb336 O385 2.413 . S
Tb336 O387 2.362 . S
Tb336 O388 2.421 . S
Tb336 C400 2.833 . S
C337 C340 1.432 . S
C337 C341 1.414 1_565 S
C337 N344 1.359 . S
C338 C340 1.417 1_545 S
C338 C342 1.432 . S
C338 C350 1.410 . S
C339 C341 1.444 . S
C339 C342 1.317 . S
C339 H362 0.929 . S
C340 C337 1.432 . S
C340 C338 1.417 1_565 S
C340 N348 1.360 . S
C341 C337 1.414 1_545 S
C341 C339 1.444 . S
C341 C346 1.385 . S
C342 C338 1.432 . S
C342 C339 1.317 . S
C342 H354 0.930 . S
C343 C345 1.392 . S
C343 C346 1.370 1_565 S
C343 H355 0.931 . S
N344 C337 1.359 . S
N344 C345 1.327 . S
N344 Tb347 2.600 . S
C345 C343 1.392 . S
C345 N344 1.327 . S
C345 H352 0.930 . S
C346 C341 1.385 . S
C346 C343 1.370 1_545 S
C346 H365 0.930 . S
Tb347 N344 2.600 . S
Tb347 N348 2.660 . S
Tb347 O381 2.362 . S
Tb347 O382 2.421 . S
Tb347 O386 2.546 . S
Tb347 O387 2.610 . S
Tb347 O389 2.320 . S
Tb347 O390 2.552 . S
Tb347 O391 2.413 . S
Tb347 C411 2.833 . S
N348 C340 1.360 . S
N348 Tb347 2.660 . S
N348 C349 1.305 . S
C349 N348 1.305 . S
C349 C351 1.407 1_565 S
C349 H356 0.930 . S
C350 C338 1.410 . S
C350 C351 1.345 . S
C350 H358 0.930 . S
C351 C349 1.407 1_545 S
C351 C350 1.345 . S
C351 H353 0.930 . S
H352 C345 0.930 . S
H353 C351 0.930 . S
H354 C342 0.930 . S
H355 C343 0.931 . S
H356 C349 0.930 . S
H357 C371 0.930 . S
H358 C350 0.930 . S
H359 C377 0.930 . S
H360 C368 0.930 . S
H361 C375 0.931 . S
H362 C339 0.929 . S
H363 C369 0.930 . S
H364 C402 0.930 . S
H365 C346 0.930 . S
H366 C401 0.929 . S
N367 Tb336 2.660 . S
N367 C368 1.305 . S
N367 C372 1.360 . S
C368 H360 0.930 . S
C368 N367 1.305 . S
C368 C371 1.407 . S
C369 H363 0.930 . S
C369 C370 1.410 . S
C369 C371 1.345 . S
C370 C369 1.410 . S
C370 C372 1.417 . S
C370 C402 1.432 . S
C371 H357 0.930 . S
C371 C368 1.407 . S
C371 C369 1.345 . S
C372 N367 1.360 . S
C372 C370 1.417 . S
C372 C376 1.432 . S
H373 C378 0.930 . S
N374 Tb336 2.600 . S
N374 C376 1.359 . S
N374 C377 1.327 . S
C375 H361 0.931 . S
C375 C377 1.392 . S
C375 C378 1.370 . S
C376 C372 1.432 . S
C376 N374 1.359 . S
C376 C379 1.414 . S
C377 H359 0.930 . S
C377 N374 1.327 . S
C377 C375 1.392 . S
C378 H373 0.930 . S
C378 C375 1.370 . S
C378 C379 1.385 . S
C379 C376 1.414 . S
C379 C378 1.385 . S
C379 C401 1.444 . S
O380 Tb336 2.546 . S
O380 C400 1.251 . S
O381 Tb336 2.610 . S
O381 Tb347 2.362 . S
O381 C392 1.283 . S
O382 Tb347 2.421 . S
O382 C399 1.262 . S
O383 Tb336 2.320 . S
O383 C399 1.260 . S
O384 Tb336 2.552 . S
O384 C392 1.243 . S
O385 Tb336 2.413 . S
O385 C400 1.256 . S
O386 Tb347 2.546 . S
O386 C411 1.251 . S
O387 Tb336 2.362 . S
O387 Tb347 2.610 . S
O387 C403 1.283 . S
O388 Tb336 2.421 . S
O388 C410 1.262 . S
O389 Tb347 2.320 . S
O389 C410 1.260 . S
O390 Tb347 2.552 . S
O390 C403 1.243 . S
O391 Tb347 2.413 . S
O391 C411 1.256 . S
C392 O381 1.283 . S
C392 O384 1.243 . S
C393 C395 1.382 . S
C393 C397 1.393 . S
C393 C400 1.500 . S
C394 C395 1.400 1_655 S
C394 C396 1.384 . S
C395 C393 1.382 . S
C395 C394 1.400 1_455 S
C395 H412 0.930 . S
C396 C394 1.384 . S
C396 C398 1.392 . S
C396 H413 0.931 . S
C397 C393 1.393 . S
C397 C398 1.401 1_455 S
C397 H414 0.930 . S
C398 C396 1.392 . S
C398 C397 1.401 1_655 S
C398 H415 0.930 . S
C399 O382 1.262 . S
C399 O383 1.260 . S
C400 Tb336 2.833 . S
C400 O380 1.251 . S
C400 O385 1.256 . S
C400 C393 1.500 . S
C401 H366 0.929 . S
C401 C379 1.444 . S
C401 C402 1.317 . S
C402 H364 0.930 . S
C402 C370 1.432 . S
C402 C401 1.317 . S
C403 O387 1.283 . S
C403 O390 1.243 . S
C404 C405 1.382 . S
C404 C408 1.393 . S
C404 C411 1.500 . S
C405 C404 1.382 . S
C405 C406 1.400 . S
C405 H416 0.930 . S
C406 C405 1.400 . S
C406 C407 1.384 . S
C407 C406 1.384 . S
C407 C409 1.392 . S
C407 H417 0.931 . S
C408 C404 1.393 . S
C408 C409 1.401 . S
C408 H418 0.930 . S
C409 C407 1.392 . S
C409 C408 1.401 . S
C409 H419 0.930 . S
C410 O388 1.262 . S
C410 O389 1.260 . S
C411 Tb347 2.833 . S
C411 O386 1.251 . S
C411 O391 1.256 . S
C411 C404 1.500 . S
H412 C395 0.930 . S
H413 C396 0.931 . S
H414 C397 0.930 . S
H415 C398 0.930 . S
H416 C405 0.930 . S
H417 C407 0.931 . S
H418 C408 0.930 . S
H419 C409 0.930 . S
Tb420 N451 2.660 . S
Tb420 N458 2.600 . S
Tb420 O464 2.546 . S
Tb420 O465 2.610 . S
Tb420 O467 2.320 . S
Tb420 O468 2.552 . S
Tb420 O469 2.413 . S
Tb420 O471 2.362 . S
Tb420 O472 2.421 . S
Tb420 C484 2.833 . S
C421 C424 1.432 . S
C421 C425 1.414 1_455 S
C421 N428 1.359 . S
C422 C424 1.417 1_655 S
C422 C426 1.432 . S
C422 C434 1.410 . S
C423 C425 1.444 . S
C423 C426 1.317 . S
C423 H446 0.929 . S
C424 C421 1.432 . S
C424 C422 1.417 1_455 S
C424 N432 1.360 . S
C425 C421 1.414 1_655 S
C425 C423 1.444 . S
C425 C430 1.385 . S
C426 C422 1.432 . S
C426 C423 1.317 . S
C426 H438 0.930 . S
C427 C429 1.392 . S
C427 C430 1.370 1_455 S
C427 H439 0.931 . S
N428 C421 1.359 . S
N428 C429 1.327 . S
N428 Tb431 2.600 . S
C429 C427 1.392 . S
C429 N428 1.327 . S
C429 H436 0.930 . S
C430 C425 1.385 . S
C430 C427 1.370 1_655 S
C430 H449 0.930 . S
Tb431 N428 2.600 . S
Tb431 N432 2.660 . S
Tb431 O465 2.362 . S
Tb431 O466 2.421 . S
Tb431 O470 2.546 . S
Tb431 O471 2.610 . S
Tb431 O473 2.320 . S
Tb431 O474 2.552 . S
Tb431 O475 2.413 . S
Tb431 C495 2.833 . S
N432 C424 1.360 . S
N432 Tb431 2.660 . S
N432 C433 1.305 . S
C433 N432 1.305 . S
C433 C435 1.407 . S
C433 H440 0.930 . S
C434 C422 1.410 . S
C434 C435 1.345 1_655 S
C434 H442 0.930 . S
C435 C433 1.407 . S
C435 C434 1.345 1_455 S
C435 H437 0.930 . S
H436 C429 0.930 . S
H437 C435 0.930 . S
H438 C426 0.930 . S
H439 C427 0.931 . S
H440 C433 0.930 . S
H441 C455 0.930 . S
H442 C434 0.930 . S
H443 C461 0.930 . S
H444 C452 0.930 . S
H445 C459 0.931 . S
H446 C423 0.929 . S
H447 C453 0.930 . S
H448 C486 0.930 . S
H449 C430 0.930 . S
H450 C485 0.929 . S
N451 Tb420 2.660 . S
N451 C452 1.305 . S
N451 C456 1.360 . S
C452 H444 0.930 . S
C452 N451 1.305 . S
C452 C455 1.407 . S
C453 H447 0.930 . S
C453 C454 1.410 . S
C453 C455 1.345 . S
C454 C453 1.410 . S
C454 C456 1.417 . S
C454 C486 1.432 . S
C455 H441 0.930 . S
C455 C452 1.407 . S
C455 C453 1.345 . S
C456 N451 1.360 . S
C456 C454 1.417 . S
C456 C460 1.432 . S
H457 C462 0.930 . S
N458 Tb420 2.600 . S
N458 C460 1.359 . S
N458 C461 1.327 . S
C459 H445 0.931 . S
C459 C461 1.392 . S
C459 C462 1.370 . S
C460 C456 1.432 . S
C460 N458 1.359 . S
C460 C463 1.414 . S
C461 H443 0.930 . S
C461 N458 1.327 . S
C461 C459 1.392 . S
C462 H457 0.930 . S
C462 C459 1.370 . S
C462 C463 1.385 . S
C463 C460 1.414 . S
C463 C462 1.385 . S
C463 C485 1.444 . S
O464 Tb420 2.546 . S
O464 C484 1.251 . S
O465 Tb420 2.610 . S
O465 Tb431 2.362 . S
O465 C476 1.283 . S
O466 Tb431 2.421 . S
O466 C483 1.262 . S
O467 Tb420 2.320 . S
O467 C483 1.260 . S
O468 Tb420 2.552 . S
O468 C476 1.243 . S
O469 Tb420 2.413 . S
O469 C484 1.256 . S
O470 Tb431 2.546 . S
O470 C495 1.251 . S
O471 Tb420 2.362 . S
O471 Tb431 2.610 . S
O471 C487 1.283 . S
O472 Tb420 2.421 . S
O472 C494 1.262 . S
O473 Tb431 2.320 . S
O473 C494 1.260 . S
O474 Tb431 2.552 . S
O474 C487 1.243 . S
O475 Tb431 2.413 . S
O475 C495 1.256 . S
C476 O465 1.283 . S
C476 O468 1.243 . S
C477 C479 1.382 . S
C477 C481 1.393 . S
C477 C484 1.500 . S
C478 C479 1.400 . S
C478 C480 1.384 . S
C479 C477 1.382 . S
C479 C478 1.400 . S
C479 H496 0.930 . S
C480 C478 1.384 . S
C480 C482 1.392 . S
C480 H497 0.931 . S
C481 C477 1.393 . S
C481 C482 1.401 . S
C481 H498 0.930 . S
C482 C480 1.392 . S
C482 C481 1.401 . S
C482 H499 0.930 . S
C483 O466 1.262 . S
C483 O467 1.260 . S
C484 Tb420 2.833 . S
C484 O464 1.251 . S
C484 O469 1.256 . S
C484 C477 1.500 . S
C485 H450 0.929 . S
C485 C463 1.444 . S
C485 C486 1.317 . S
C486 H448 0.930 . S
C486 C454 1.432 . S
C486 C485 1.317 . S
C487 O471 1.283 . S
C487 O474 1.243 . S
C488 C489 1.382 . S
C488 C492 1.393 . S
C488 C495 1.500 . S
C489 C488 1.382 . S
C489 C490 1.400 . S
C489 H500 0.930 . S
C490 C489 1.400 . S
C490 C491 1.384 . S
C491 C490 1.384 . S
C491 C493 1.392 . S
C491 H501 0.931 . S
C492 C488 1.393 . S
C492 C493 1.401 . S
C492 H502 0.930 . S
C493 C491 1.392 . S
C493 C492 1.401 . S
C493 H503 0.930 . S
C494 O472 1.262 . S
C494 O473 1.260 . S
C495 Tb431 2.833 . S
C495 O470 1.251 . S
C495 O475 1.256 . S
C495 C488 1.500 . S
H496 C479 0.930 . S
H497 C480 0.931 . S
H498 C481 0.930 . S
H499 C482 0.930 . S
H500 C489 0.930 . S
H501 C491 0.931 . S
H502 C492 0.930 . S
H503 C493 0.930 . S
Tb504 N535 2.660 . S
Tb504 N542 2.600 . S
Tb504 O548 2.546 . S
Tb504 O549 2.610 . S
Tb504 O551 2.320 . S
Tb504 O552 2.552 . S
Tb504 O553 2.413 . S
Tb504 O555 2.362 . S
Tb504 O556 2.421 . S
Tb504 C568 2.833 . S
C505 C508 1.432 . S
C505 C509 1.416 1_545 S
C505 N512 1.359 . S
C506 C508 1.417 . S
C506 C510 1.432 1_545 S
C506 C518 1.410 . S
C507 C509 1.442 . S
C507 C510 1.317 . S
C507 H530 0.929 . S
C508 C505 1.432 . S
C508 C506 1.417 . S
C508 N516 1.360 . S
C509 C505 1.416 1_565 S
C509 C507 1.442 . S
C509 C514 1.385 . S
C510 C506 1.432 1_565 S
C510 C507 1.317 . S
C510 H522 0.930 . S
C511 C513 1.392 . S
C511 C514 1.370 1_545 S
C511 H523 0.931 . S
N512 C505 1.359 . S
N512 C513 1.327 . S
N512 Tb515 2.600 . S
C513 C511 1.392 . S
C513 N512 1.327 . S
C513 H520 0.930 . S
C514 C509 1.385 . S
C514 C511 1.370 1_565 S
C514 H533 0.930 . S
Tb515 N512 2.600 . S
Tb515 N516 2.660 . S
Tb515 O549 2.362 . S
Tb515 O550 2.421 . S
Tb515 O554 2.546 . S
Tb515 O555 2.610 . S
Tb515 O557 2.320 . S
Tb515 O558 2.552 . S
Tb515 O559 2.413 . S
Tb515 C579 2.833 . S
N516 C508 1.360 . S
N516 Tb515 2.660 . S
N516 C517 1.305 . S
C517 N516 1.305 . S
C517 C519 1.407 . S
C517 H524 0.930 . S
C518 C506 1.410 . S
C518 C519 1.345 . S
C518 H526 0.930 1_545 S
C519 C517 1.407 . S
C519 C518 1.345 . S
C519 H521 0.930 . S
H520 C513 0.930 . S
H521 C519 0.930 . S
H522 C510 0.930 . S
H523 C511 0.931 . S
H524 C517 0.930 . S
H525 C539 0.930 . S
H526 C518 0.930 1_565 S
H527 C545 0.930 . S
H528 C536 0.930 . S
H529 C543 0.931 . S
H530 C507 0.929 . S
H531 C537 0.930 . S
H532 C570 0.930 . S
H533 C514 0.930 . S
H534 C569 0.929 . S
N535 Tb504 2.660 . S
N535 C536 1.305 . S
N535 C540 1.360 . S
C536 H528 0.930 . S
C536 N535 1.305 . S
C536 C539 1.407 . S
C537 H531 0.930 . S
C537 C538 1.410 . S
C537 C539 1.345 . S
C538 C537 1.410 . S
C538 C540 1.417 . S
C538 C570 1.432 . S
C539 H525 0.930 . S
C539 C536 1.407 . S
C539 C537 1.345 . S
C540 N535 1.360 . S
C540 C538 1.417 . S
C540 C544 1.432 . S
H541 C546 0.930 . S
N542 Tb504 2.600 . S
N542 C544 1.359 . S
N542 C545 1.327 . S
C543 H529 0.931 . S
C543 C545 1.392 . S
C543 C546 1.370 . S
C544 C540 1.432 . S
C544 N542 1.359 . S
C544 C547 1.414 . S
C545 H527 0.930 . S
C545 N542 1.327 . S
C545 C543 1.392 . S
C546 H541 0.930 . S
C546 C543 1.370 . S
C546 C547 1.385 . S
C547 C544 1.414 . S
C547 C546 1.385 . S
C547 C569 1.444 . S
O548 Tb504 2.546 . S
O548 C568 1.251 . S
O549 Tb504 2.610 . S
O549 Tb515 2.362 . S
O549 C560 1.283 . S
O550 Tb515 2.421 . S
O550 C567 1.262 . S
O551 Tb504 2.320 . S
O551 C567 1.260 . S
O552 Tb504 2.552 . S
O552 C560 1.243 . S
O553 Tb504 2.413 . S
O553 C568 1.256 . S
O554 Tb515 2.546 . S
O554 C579 1.251 . S
O555 Tb504 2.362 . S
O555 Tb515 2.610 . S
O555 C571 1.283 . S
O556 Tb504 2.421 . S
O556 C578 1.262 . S
O557 Tb515 2.320 . S
O557 C578 1.260 . S
O558 Tb515 2.552 . S
O558 C571 1.243 . S
O559 Tb515 2.413 . S
O559 C579 1.256 . S
C560 O549 1.283 . S
C560 O552 1.243 . S
C561 C563 1.382 . S
C561 C565 1.393 . S
C561 C568 1.500 . S
C562 C563 1.400 . S
C562 C564 1.384 . S
C563 C561 1.382 . S
C563 C562 1.400 . S
C563 H580 0.930 . S
C564 C562 1.384 . S
C564 C566 1.392 . S
C564 H581 0.931 . S
C565 C561 1.393 . S
C565 C566 1.401 . S
C565 H582 0.930 . S
C566 C564 1.392 . S
C566 C565 1.401 . S
C566 H583 0.930 . S
C567 O550 1.262 . S
C567 O551 1.260 . S
C568 Tb504 2.833 . S
C568 O548 1.251 . S
C568 O553 1.256 . S
C568 C561 1.500 . S
C569 H534 0.929 . S
C569 C547 1.444 . S
C569 C570 1.317 . S
C570 H532 0.930 . S
C570 C538 1.432 . S
C570 C569 1.317 . S
C571 O555 1.283 . S
C571 O558 1.243 . S
C572 C573 1.382 . S
C572 C576 1.393 . S
C572 C579 1.500 1_565 S
C573 C572 1.382 . S
C573 C574 1.400 . S
C573 H584 0.930 . S
C574 C573 1.400 . S
C574 C575 1.384 . S
C575 C574 1.384 . S
C575 C577 1.392 . S
C575 H585 0.931 . S
C576 C572 1.393 . S
C576 C577 1.401 . S
C576 H586 0.930 . S
C577 C575 1.392 . S
C577 C576 1.401 . S
C577 H587 0.930 . S
C578 O556 1.262 . S
C578 O557 1.260 . S
C579 Tb515 2.833 . S
C579 O554 1.251 . S
C579 O559 1.256 . S
C579 C572 1.500 1_545 S
H580 C563 0.930 . S
H581 C564 0.931 . S
H582 C565 0.930 . S
H583 C566 0.930 . S
H584 C573 0.930 . S
H585 C575 0.931 . S
H586 C576 0.930 . S
H587 C577 0.930 . S
Tb588 N619 2.660 . S
Tb588 N626 2.600 . S
Tb588 O632 2.546 . S
Tb588 O633 2.610 . S
Tb588 O635 2.320 . S
Tb588 O636 2.552 . S
Tb588 O637 2.413 . S
Tb588 O639 2.362 . S
Tb588 O640 2.421 . S
Tb588 C652 2.833 . S
C589 C592 1.432 . S
C589 C593 1.414 1_655 S
C589 N596 1.359 . S
C590 C592 1.417 1_455 S
C590 C594 1.432 . S
C590 C602 1.410 . S
C591 C593 1.444 . S
C591 C594 1.317 . S
C591 H614 0.929 . S
C592 C589 1.432 . S
C592 C590 1.417 1_655 S
C592 N600 1.360 . S
C593 C589 1.414 1_455 S
C593 C591 1.444 . S
C593 C598 1.385 . S
C594 C590 1.432 . S
C594 C591 1.317 . S
C594 H606 0.930 . S
C595 C597 1.392 . S
C595 C598 1.370 1_655 S
C595 H607 0.931 . S
N596 C589 1.359 . S
N596 C597 1.327 . S
N596 Tb599 2.600 . S
C597 C595 1.392 . S
C597 N596 1.327 . S
C597 H604 0.930 . S
C598 C593 1.385 . S
C598 C595 1.370 1_455 S
C598 H617 0.930 . S
Tb599 N596 2.600 . S
Tb599 N600 2.660 . S
Tb599 O633 2.362 . S
Tb599 O634 2.421 . S
Tb599 O638 2.546 . S
Tb599 O639 2.610 . S
Tb599 O641 2.320 . S
Tb599 O642 2.552 . S
Tb599 O643 2.413 . S
Tb599 C663 2.833 1_655 S
N600 C592 1.360 . S
N600 Tb599 2.660 . S
N600 C601 1.305 . S
C601 N600 1.305 . S
C601 C603 1.407 . S
C601 H608 0.930 . S
C602 C590 1.410 . S
C602 C603 1.345 1_455 S
C602 H610 0.930 . S
C603 C601 1.407 . S
C603 C602 1.345 1_655 S
C603 H605 0.930 . S
H604 C597 0.930 . S
H605 C603 0.930 . S
H606 C594 0.930 . S
H607 C595 0.931 . S
H608 C601 0.930 . S
H609 C623 0.930 . S
H610 C602 0.930 . S
H611 C629 0.930 . S
H612 C620 0.930 . S
H613 C627 0.931 . S
H614 C591 0.929 . S
H615 C621 0.930 . S
H616 C654 0.905 1_565 S
H617 C598 0.930 . S
H618 C653 0.929 1_565 S
N619 Tb588 2.660 . S
N619 C620 1.305 . S
N619 C624 1.360 . S
C620 H612 0.930 . S
C620 N619 1.305 . S
C620 C623 1.407 . S
C621 H615 0.930 . S
C621 C622 1.410 . S
C621 C623 1.345 . S
C622 C621 1.410 . S
C622 C624 1.417 . S
C622 C654 1.450 . S
C623 H609 0.930 . S
C623 C620 1.407 . S
C623 C621 1.345 . S
C624 N619 1.360 . S
C624 C622 1.417 . S
C624 C628 1.432 . S
H625 C630 0.930 . S
N626 Tb588 2.600 . S
N626 C628 1.359 . S
N626 C629 1.327 . S
C627 H613 0.931 . S
C627 C629 1.392 . S
C627 C630 1.370 . S
C628 C624 1.432 . S
C628 N626 1.359 . S
C628 C631 1.414 . S
C629 H611 0.930 . S
C629 N626 1.327 . S
C629 C627 1.392 . S
C630 H625 0.930 . S
C630 C627 1.370 . S
C630 C631 1.385 . S
C631 C628 1.414 . S
C631 C630 1.385 . S
C631 C653 1.444 . S
O632 Tb588 2.546 . S
O632 C652 1.251 . S
O633 Tb588 2.610 . S
O633 Tb599 2.362 . S
O633 C644 1.283 . S
O634 Tb599 2.421 . S
O634 C651 1.262 . S
O635 Tb588 2.320 . S
O635 C651 1.260 . S
O636 Tb588 2.552 . S
O636 C644 1.243 . S
O637 Tb588 2.413 . S
O637 C652 1.256 . S
O638 Tb599 2.546 . S
O638 C663 1.251 1_655 S
O639 Tb588 2.362 . S
O639 Tb599 2.610 . S
O639 C655 1.283 . S
O640 Tb588 2.421 . S
O640 C662 1.262 . S
O641 Tb599 2.320 . S
O641 C662 1.260 . S
O642 Tb599 2.552 . S
O642 C655 1.243 . S
O643 Tb599 2.413 . S
O643 C663 1.256 1_655 S
C644 O633 1.283 . S
C644 O636 1.243 . S
C645 C647 1.382 . S
C645 C649 1.393 . S
C645 C652 1.500 . S
C646 C647 1.400 . S
C646 C648 1.384 . S
C647 C645 1.382 . S
C647 C646 1.400 . S
C647 H664 0.930 . S
C648 C646 1.384 . S
C648 C650 1.392 . S
C648 H665 0.931 . S
C649 C645 1.393 . S
C649 C650 1.401 . S
C649 H666 0.930 . S
C650 C648 1.392 . S
C650 C649 1.401 . S
C650 H667 0.930 . S
C651 O634 1.262 . S
C651 O635 1.260 . S
C652 Tb588 2.833 . S
C652 O632 1.251 . S
C652 O637 1.256 . S
C652 C645 1.500 . S
C653 H618 0.929 1_545 S
C653 C631 1.444 . S
C653 C654 1.324 . S
C654 H616 0.905 1_545 S
C654 C622 1.450 . S
C654 C653 1.324 . S
C655 O639 1.283 . S
C655 O642 1.243 . S
C656 C657 1.382 . S
C656 C660 1.393 . S
C656 C663 1.500 . S
C657 C656 1.382 . S
C657 C658 1.400 . S
C657 H668 0.930 . S
C658 C657 1.400 . S
C658 C659 1.384 . S
C659 C658 1.384 . S
C659 C661 1.392 . S
C659 H669 0.931 . S
C660 C656 1.393 . S
C660 C661 1.401 . S
C660 H670 0.930 . S
C661 C659 1.392 . S
C661 C660 1.401 . S
C661 H671 0.930 . S
C662 O640 1.262 . S
C662 O641 1.260 . S
C663 Tb599 2.833 1_455 S
C663 O638 1.251 1_455 S
C663 O643 1.256 1_455 S
C663 C656 1.500 . S
H664 C647 0.930 . S
H665 C648 0.931 . S
H666 C649 0.930 . S
H667 C650 0.930 . S
H668 C657 0.930 . S
H669 C659 0.931 . S
H670 C660 0.930 . S
H671 C661 0.930 . S
Tb672 N703 2.660 . S
Tb672 N710 2.600 . S
Tb672 O716 2.546 . S
Tb672 O717 2.610 . S
Tb672 O719 2.320 . S
Tb672 O720 2.552 . S
Tb672 O721 2.413 . S
Tb672 O723 2.362 . S
Tb672 O724 2.421 . S
Tb672 C736 2.833 . S
C673 C676 1.432 . S
C673 C677 1.414 . S
C673 N680 1.359 . S
C674 C676 1.417 . S
C674 C678 1.432 . S
C674 C686 1.410 . S
C675 C677 1.444 . S
C675 C678 1.317 . S
C675 H698 0.929 . S
C676 C673 1.432 . S
C676 C674 1.417 . S
C676 N684 1.360 . S
C677 C673 1.414 . S
C677 C675 1.444 . S
C677 C682 1.385 . S
C678 C674 1.432 . S
C678 C675 1.317 . S
C678 H690 0.930 . S
C679 C681 1.392 . S
C679 C682 1.370 . S
C679 H691 0.931 . S
N680 C673 1.359 . S
N680 C681 1.327 . S
N680 Tb683 2.600 . S
C681 C679 1.392 . S
C681 N680 1.327 . S
C681 H688 0.930 . S
C682 C677 1.385 . S
C682 C679 1.370 . S
C682 H701 0.930 . S
Tb683 N680 2.600 . S
Tb683 N684 2.660 . S
Tb683 O717 2.362 . S
Tb683 O718 2.421 . S
Tb683 O722 2.546 . S
Tb683 O723 2.610 . S
Tb683 O725 2.320 . S
Tb683 O726 2.552 . S
Tb683 O727 2.413 . S
Tb683 C747 2.833 . S
N684 C676 1.360 . S
N684 Tb683 2.660 . S
N684 C685 1.305 . S
C685 N684 1.305 . S
C685 C687 1.407 . S
C685 H692 0.930 . S
C686 C674 1.410 . S
C686 C687 1.345 . S
C686 H694 0.930 . S
C687 C685 1.407 . S
C687 C686 1.345 . S
C687 H689 0.930 . S
H688 C681 0.930 . S
H689 C687 0.930 . S
H690 C678 0.930 . S
H691 C679 0.931 . S
H692 C685 0.930 . S
H693 C707 0.930 . S
H694 C686 0.930 . S
H695 C713 0.930 . S
H696 C704 0.930 . S
H697 C711 0.931 . S
H698 C675 0.929 . S
H699 C705 0.930 1_455 S
H700 C738 0.930 . S
H701 C682 0.930 . S
H702 C737 0.929 . S
N703 Tb672 2.660 . S
N703 C704 1.305 . S
N703 C708 1.360 . S
C704 H696 0.930 . S
C704 N703 1.305 . S
C704 C707 1.407 . S
C705 H699 0.930 1_655 S
C705 C706 1.410 . S
C705 C707 1.345 . S
C706 C705 1.410 . S
C706 C708 1.417 . S
C706 C738 1.432 1_655 S
C707 H693 0.930 . S
C707 C704 1.407 . S
C707 C705 1.345 . S
C708 N703 1.360 . S
C708 C706 1.417 . S
C708 C712 1.432 . S
H709 C714 0.930 . S
N710 Tb672 2.600 . S
N710 C712 1.359 . S
N710 C713 1.327 . S
C711 H697 0.931 . S
C711 C713 1.392 . S
C711 C714 1.370 . S
C712 C708 1.432 . S
C712 N710 1.359 . S
C712 C715 1.414 . S
C713 H695 0.930 . S
C713 N710 1.327 . S
C713 C711 1.392 . S
C714 H709 0.930 . S
C714 C711 1.370 . S
C714 C715 1.385 . S
C715 C712 1.414 . S
C715 C714 1.385 . S
C715 C737 1.444 1_655 S
O716 Tb672 2.546 . S
O716 C736 1.251 . S
O717 Tb672 2.610 . S
O717 Tb683 2.362 . S
O717 C728 1.283 . S
O718 Tb683 2.421 . S
O718 C735 1.262 . S
O719 Tb672 2.320 . S
O719 C735 1.260 . S
O720 Tb672 2.552 . S
O720 C728 1.243 . S
O721 Tb672 2.413 . S
O721 C736 1.256 . S
O722 Tb683 2.546 . S
O722 C747 1.251 . S
O723 Tb672 2.362 . S
O723 Tb683 2.610 . S
O723 C739 1.283 . S
O724 Tb672 2.421 . S
O724 C746 1.262 . S
O725 Tb683 2.320 . S
O725 C746 1.260 . S
O726 Tb683 2.552 . S
O726 C739 1.243 . S
O727 Tb683 2.413 . S
O727 C747 1.256 . S
C728 O717 1.283 . S
C728 O720 1.243 . S
C729 C731 1.382 . S
C729 C733 1.393 . S
C729 C736 1.500 . S
C730 C731 1.400 . S
C730 C732 1.384 . S
C731 C729 1.382 . S
C731 C730 1.400 . S
C731 H748 0.930 . S
C732 C730 1.384 . S
C732 C734 1.392 . S
C732 H749 0.931 . S
C733 C729 1.393 . S
C733 C734 1.401 . S
C733 H750 0.930 . S
C734 C732 1.392 . S
C734 C733 1.401 . S
C734 H751 0.930 . S
C735 O718 1.262 . S
C735 O719 1.260 . S
C736 Tb672 2.833 . S
C736 O716 1.251 . S
C736 O721 1.256 . S
C736 C729 1.500 . S
C737 H702 0.929 . S
C737 C715 1.444 1_455 S
C737 C738 1.317 . S
C738 H700 0.930 . S
C738 C706 1.432 1_455 S
C738 C737 1.317 . S
C739 O723 1.283 . S
C739 O726 1.243 . S
C740 C741 1.382 . S
C740 C744 1.393 . S
C740 C747 1.500 . S
C741 C740 1.382 . S
C741 C742 1.400 . S
C741 H752 0.930 . S
C742 C741 1.400 . S
C742 C743 1.384 . S
C743 C742 1.384 . S
C743 C745 1.392 . S
C743 H753 0.931 . S
C744 C740 1.393 . S
C744 C745 1.401 . S
C744 H754 0.930 . S
C745 C743 1.392 . S
C745 C744 1.401 . S
C745 H755 0.930 . S
C746 O724 1.262 . S
C746 O725 1.260 . S
C747 Tb683 2.833 . S
C747 O722 1.251 . S
C747 O727 1.256 . S
C747 C740 1.500 . S
H748 C731 0.930 . S
H749 C732 0.931 . S
H750 C733 0.930 . S
H751 C734 0.930 . S
H752 C741 0.930 . S
H753 C743 0.931 . S
H754 C744 0.930 . S
H755 C745 0.930 . S
H756 C762 0.930 . S
H757 C766 0.930 . S
H758 C771 0.929 . S
H759 C769 0.929 . S
H760 C764 0.929 . S
H761 C770 0.929 . S
C762 H756 0.930 . S
C762 C763 1.367 1_556 S
C762 C770 1.378 . S
C763 C762 1.367 1_554 S
C763 C771 1.433 . S
C764 H760 0.929 . S
C764 C766 1.378 . S
C764 C768 1.350 . S
C765 C768 1.463 . S
C765 C770 1.350 1_554 S
C765 N773 1.427 . S
C766 H757 0.930 . S
C766 C764 1.378 . S
C766 C767 1.367 . S
C767 C766 1.367 . S
C767 C769 1.433 1_554 S
C768 C764 1.350 . S
C768 C765 1.463 . S
C768 N772 1.427 1_554 S
C769 H759 0.929 . S
C769 C767 1.433 1_556 S
C769 N772 1.384 . S
C770 H761 0.929 . S
C770 C762 1.378 . S
C770 C765 1.350 1_556 S
C771 H758 0.929 . S
C771 C763 1.433 . S
C771 N773 1.384 . S
N772 C768 1.427 1_556 S
N772 C769 1.384 . S
N773 C765 1.427 . S
N773 C771 1.384 . S
H774 C780 0.930 . S
H775 C784 0.930 . S
H776 C789 0.929 . S
H777 C787 0.929 . S
H778 C782 0.929 . S
H779 C788 0.929 . S
C780 H774 0.930 . S
C780 C781 1.367 . S
C780 C788 1.378 . S
C781 C780 1.367 . S
C781 C789 1.433 1_554 S
C782 H778 0.929 . S
C782 C784 1.378 . S
C782 C786 1.350 1_556 S
C783 C786 1.463 . S
C783 C788 1.350 . S
C783 N791 1.427 1_554 S
C784 H775 0.930 . S
C784 C782 1.378 . S
C784 C785 1.367 1_556 S
C785 C784 1.367 1_554 S
C785 C787 1.433 . S
C786 C782 1.350 1_554 S
C786 C783 1.463 . S
C786 N790 1.427 . S
C787 H777 0.929 . S
C787 C785 1.433 . S
C787 N790 1.384 . S
C788 H779 0.929 . S
C788 C780 1.378 . S
C788 C783 1.350 . S
C789 H776 0.929 . S
C789 C781 1.433 1_556 S
C789 N791 1.384 . S
N790 C786 1.427 . S
N790 C787 1.384 . S
N791 C783 1.427 1_556 S
N791 C789 1.384 . S
H792 C798 0.930 . S
H793 C802 0.930 . S
H794 C807 0.929 . S
H795 C805 0.929 . S
H796 C800 0.929 . S
H797 C806 0.929 . S
C798 H792 0.930 . S
C798 C799 1.367 . S
C798 C806 1.378 . S
C799 C798 1.367 . S
C799 C807 1.433 1_554 S
C800 H796 0.929 . S
C800 C802 1.378 . S
C800 C804 1.350 1_556 S
C801 C804 1.463 . S
C801 C806 1.350 . S
C801 N809 1.427 1_554 S
C802 H793 0.930 . S
C802 C800 1.378 . S
C802 C803 1.367 1_556 S
C803 C802 1.367 1_554 S
C803 C805 1.433 . S
C804 C800 1.350 1_554 S
C804 C801 1.463 . S
C804 N808 1.427 . S
C805 H795 0.929 . S
C805 C803 1.433 . S
C805 N808 1.384 . S
C806 H797 0.929 . S
C806 C798 1.378 . S
C806 C801 1.350 . S
C807 H794 0.929 . S
C807 C799 1.433 1_556 S
C807 N809 1.384 . S
N808 C804 1.427 . S
N808 C805 1.384 . S
N809 C801 1.427 1_556 S
N809 C807 1.384 . S
H810 C816 0.930 . S
H811 C820 0.930 . S
H812 C825 0.929 . S
H813 C823 0.929 . S
H814 C818 0.929 . S
H815 C824 0.929 . S
C816 H810 0.930 . S
C816 C817 1.367 . S
C816 C824 1.378 . S
C817 C816 1.367 . S
C817 C825 1.433 1_556 S
C818 H814 0.929 . S
C818 C820 1.378 . S
C818 C822 1.350 1_554 S
C819 C822 1.463 . S
C819 C824 1.350 . S
C819 N827 1.427 1_556 S
C820 H811 0.930 . S
C820 C818 1.378 . S
C820 C821 1.367 . S
C821 C820 1.367 . S
C821 C823 1.433 1_554 S
C822 C818 1.350 1_556 S
C822 C819 1.463 . S
C822 N826 1.427 . S
C823 H813 0.929 . S
C823 C821 1.433 1_556 S
C823 N826 1.384 . S
C824 H815 0.929 . S
C824 C816 1.378 . S
C824 C819 1.350 . S
C825 H812 0.929 . S
C825 C817 1.433 1_554 S
C825 N827 1.384 . S
N826 C822 1.427 . S
N826 C823 1.384 . S
N827 C819 1.427 1_554 S
N827 C825 1.384 . S
H828 C834 0.930 . S
H829 C838 0.930 . S
H830 C843 0.929 . S
H831 C841 0.929 . S
H832 C836 0.929 . S
H833 C842 0.929 . S
C834 H828 0.930 . S
C834 C835 1.367 1_556 S
C834 C842 1.378 . S
C835 C834 1.367 1_554 S
C835 C843 1.433 . S
C836 H832 0.929 . S
C836 C838 1.378 . S
C836 C840 1.350 1_554 S
C837 C840 1.463 . S
C837 C842 1.350 . S
C837 N845 1.427 1_556 S
C838 H829 0.930 . S
C838 C836 1.378 . S
C838 C839 1.367 1_554 S
C839 C838 1.367 1_556 S
C839 C841 1.433 . S
C840 C836 1.350 1_556 S
C840 C837 1.463 . S
C840 N844 1.427 . S
C841 H831 0.929 . S
C841 C839 1.433 . S
C841 N844 1.384 . S
C842 H833 0.929 . S
C842 C834 1.378 . S
C842 C837 1.350 . S
C843 H830 0.929 . S
C843 C835 1.433 . S
C843 N845 1.384 . S
N844 C840 1.427 . S
N844 C841 1.384 . S
N845 C837 1.427 1_554 S
N845 C843 1.384 . S
H846 C852 0.930 . S
H847 C856 0.930 . S
H848 C861 0.929 . S
H849 C859 0.929 . S
H850 C854 0.929 . S
H851 C860 0.929 . S
C852 H846 0.930 . S
C852 C853 1.367 1_556 S
C852 C860 1.378 . S
C853 C852 1.367 1_554 S
C853 C861 1.433 . S
C854 H850 0.929 . S
C854 C856 1.378 . S
C854 C858 1.350 1_554 S
C855 C858 1.463 . S
C855 C860 1.350 . S
C855 N863 1.427 1_556 S
C856 H847 0.930 . S
C856 C854 1.378 . S
C856 C857 1.367 1_554 S
C857 C856 1.367 1_556 S
C857 C859 1.433 . S
C858 C854 1.350 1_556 S
C858 C855 1.463 . S
C858 N862 1.427 . S
C859 H849 0.929 . S
C859 C857 1.433 . S
C859 N862 1.384 . S
C860 H851 0.929 . S
C860 C852 1.378 . S
C860 C855 1.350 . S
C861 H848 0.929 . S
C861 C853 1.433 . S
C861 N863 1.384 . S
N862 C858 1.427 . S
N862 C859 1.384 . S
N863 C855 1.427 1_554 S
N863 C861 1.384 . S
H864 C870 0.930 . S
H865 C874 0.930 . S
H866 C879 0.929 . S
H867 C877 0.929 . S
H868 C872 0.929 . S
H869 C878 0.929 . S
C870 H864 0.930 . S
C870 C871 1.367 . S
C870 C878 1.378 . S
C871 C870 1.367 . S
C871 C879 1.433 . S
C872 H868 0.929 . S
C872 C874 1.378 . S
C872 C876 1.350 . S
C873 C876 1.463 . S
C873 C878 1.350 . S
C873 N881 1.427 . S
C874 H865 0.930 . S
C874 C872 1.378 . S
C874 C875 1.367 . S
C875 C874 1.367 . S
C875 C877 1.433 . S
C876 C872 1.350 . S
C876 C873 1.463 . S
C876 N880 1.427 . S
C877 H867 0.929 . S
C877 C875 1.433 . S
C877 N880 1.384 . S
C878 H869 0.929 . S
C878 C870 1.378 . S
C878 C873 1.350 . S
C879 H866 0.929 . S
C879 C871 1.433 . S
C879 N881 1.384 . S
N880 C876 1.427 . S
N880 C877 1.384 . S
N881 C873 1.427 . S
N881 C879 1.384 . S
H882 C888 0.930 . S
H883 C892 0.930 . S
H884 C897 0.929 . S
H885 C895 0.929 . S
H886 C890 0.929 . S
H887 C896 0.929 . S
C888 H882 0.930 . S
C888 C889 1.367 . S
C888 C896 1.378 . S
C889 C888 1.367 . S
C889 C897 1.433 . S
C890 H886 0.929 . S
C890 C892 1.378 1_545 S
C890 C894 1.350 . S
C891 C894 1.463 . S
C891 C896 1.350 . S
C891 N899 1.427 . S
C892 H883 0.930 . S
C892 C890 1.378 1_565 S
C892 C893 1.367 . S
C893 C892 1.367 . S
C893 C895 1.433 . S
C894 C890 1.350 . S
C894 C891 1.463 . S
C894 N898 1.427 1_545 S
C895 H885 0.929 . S
C895 C893 1.433 . S
C895 N898 1.384 . S
C896 H887 0.929 . S
C896 C888 1.378 . S
C896 C891 1.350 . S
C897 H884 0.929 . S
C897 C889 1.433 . S
C897 N899 1.384 . S
N898 C894 1.427 1_565 S
N898 C895 1.384 . S
N899 C891 1.427 . S
N899 C897 1.384 . S
H900 C906 0.930 . S
H901 C910 0.930 . S
H902 C915 0.929 . S
H903 C913 0.929 . S
H904 C908 0.929 . S
H905 C914 0.929 . S
C906 H900 0.930 . S
C906 C907 1.367 . S
C906 C914 1.378 1_455 S
C907 C906 1.367 . S
C907 C915 1.433 . S
C908 H904 0.929 . S
C908 C910 1.378 . S
C908 C912 1.350 . S
C909 C912 1.463 . S
C909 C914 1.350 . S
C909 N917 1.427 1_655 S
C910 H901 0.930 . S
C910 C908 1.378 . S
C910 C911 1.367 . S
C911 C910 1.367 . S
C911 C913 1.433 . S
C912 C908 1.350 . S
C912 C909 1.463 . S
C912 N916 1.427 . S
C913 H903 0.929 . S
C913 C911 1.433 . S
C913 N916 1.384 . S
C914 H905 0.929 . S
C914 C906 1.378 1_655 S
C914 C909 1.350 . S
C915 H902 0.929 . S
C915 C907 1.433 . S
C915 N917 1.384 . S
N916 C912 1.427 . S
N916 C913 1.384 . S
N917 C909 1.427 1_455 S
N917 C915 1.384 . S
H918 C924 0.930 . S
H919 C928 0.930 . S
H920 C933 0.929 . S
H921 C931 0.929 . S
H922 C926 0.929 . S
H923 C932 0.929 . S
C924 H918 0.930 . S
C924 C925 1.367 . S
C924 C932 1.378 . S
C925 C924 1.367 . S
C925 C933 1.433 . S
C926 H922 0.929 . S
C926 C928 1.378 . S
C926 C930 1.350 . S
C927 C930 1.463 . S
C927 C932 1.350 . S
C927 N935 1.427 . S
C928 H919 0.930 . S
C928 C926 1.378 . S
C928 C929 1.367 . S
C929 C928 1.367 . S
C929 C931 1.433 . S
C930 C926 1.350 . S
C930 C927 1.463 . S
C930 N934 1.427 . S
C931 H921 0.929 . S
C931 C929 1.433 . S
C931 N934 1.384 . S
C932 H923 0.929 . S
C932 C924 1.378 . S
C932 C927 1.350 . S
C933 H920 0.929 . S
C933 C925 1.433 . S
C933 N935 1.384 . S
N934 C930 1.427 . S
N934 C931 1.384 . S
N935 C927 1.427 . S
N935 C933 1.384 . S
H936 C942 0.930 . S
H937 C946 0.930 . S
H938 C951 0.929 . S
H939 C949 0.929 . S
H940 C944 0.929 . S
H941 C950 0.929 . S
C942 H936 0.930 . S
C942 C943 1.367 . S
C942 C950 1.378 . S
C943 C942 1.367 . S
C943 C951 1.433 . S
C944 H940 0.929 . S
C944 C946 1.378 . S
C944 C948 1.350 . S
C945 C948 1.463 . S
C945 C950 1.350 . S
C945 N953 1.427 . S
C946 H937 0.930 . S
C946 C944 1.378 . S
C946 C947 1.367 . S
C947 C946 1.367 . S
C947 C949 1.433 . S
C948 C944 1.350 . S
C948 C945 1.463 . S
C948 N952 1.427 . S
C949 H939 0.929 . S
C949 C947 1.433 . S
C949 N952 1.384 . S
C950 H941 0.929 . S
C950 C942 1.378 . S
C950 C945 1.350 . S
C951 H938 0.929 . S
C951 C943 1.433 . S
C951 N953 1.384 . S
N952 C948 1.427 . S
N952 C949 1.384 . S
N953 C945 1.427 . S
N953 C951 1.384 . S
H954 C960 0.930 . S
H955 C964 0.930 . S
H956 C969 0.929 . S
H957 C967 0.929 . S
H958 C962 0.929 . S
H959 C968 0.929 . S
C960 H954 0.930 . S
C960 C961 1.367 . S
C960 C968 1.378 . S
C961 C960 1.367 . S
C961 C969 1.433 . S
C962 H958 0.929 . S
C962 C964 1.378 . S
C962 C966 1.350 . S
C963 C966 1.463 . S
C963 C968 1.350 . S
C963 N971 1.427 . S
C964 H955 0.930 . S
C964 C962 1.378 . S
C964 C965 1.367 . S
C965 C964 1.367 . S
C965 C967 1.433 . S
C966 C962 1.350 . S
C966 C963 1.463 . S
C966 N970 1.427 . S
C967 H957 0.929 . S
C967 C965 1.433 . S
C967 N970 1.384 . S
C968 H959 0.929 . S
C968 C960 1.378 . S
C968 C963 1.350 . S
C969 H956 0.929 . S
C969 C961 1.433 . S
C969 N971 1.384 . S
N970 C966 1.427 . S
N970 C967 1.384 . S
N971 C963 1.427 . S
N971 C969 1.384 . S
H972 C978 0.930 . S
H973 C982 0.930 . S
H974 C987 0.929 . S
H975 C985 0.929 . S
H976 C980 0.929 . S
H977 C986 0.929 . S
C978 H972 0.930 . S
C978 C979 1.367 . S
C978 C986 1.378 . S
C979 C978 1.367 . S
C979 C987 1.433 . S
C980 H976 0.929 . S
C980 C982 1.378 . S
C980 C984 1.350 . S
C981 C984 1.463 . S
C981 C986 1.350 . S
C981 N989 1.427 . S
C982 H973 0.930 . S
C982 C980 1.378 . S
C982 C983 1.367 . S
C983 C982 1.367 . S
C983 C985 1.433 . S
C984 C980 1.350 . S
C984 C981 1.463 . S
C984 N988 1.427 . S
C985 H975 0.929 . S
C985 C983 1.433 . S
C985 N988 1.384 . S
C986 H977 0.929 . S
C986 C978 1.378 . S
C986 C981 1.350 . S
C987 H974 0.929 . S
C987 C979 1.433 . S
C987 N989 1.384 . S
N988 C984 1.427 . S
N988 C985 1.384 . S
N989 C981 1.427 . S
N989 C987 1.384 . S
H990 C996 0.930 . S
H991 C1000 0.930 . S
H992 C1005 0.929 . S
H993 C1003 0.929 . S
H994 C998 0.929 . S
H995 C1004 0.929 . S
C996 H990 0.930 . S
C996 C997 1.367 . S
C996 C1004 1.378 . S
C997 C996 1.367 . S
C997 C1005 1.433 . S
C998 H994 0.929 . S
C998 C1000 1.378 . S
C998 C1002 1.350 . S
C999 C1002 1.463 . S
C999 C1004 1.350 . S
C999 N1007 1.427 . S
C1000 H991 0.930 . S
C1000 C998 1.378 . S
C1000 C1001 1.367 . S
C1001 C1000 1.367 . S
C1001 C1003 1.433 . S
C1002 C998 1.350 . S
C1002 C999 1.463 . S
C1002 N1006 1.427 . S
C1003 H993 0.929 . S
C1003 C1001 1.433 . S
C1003 N1006 1.384 . S
C1004 H995 0.929 . S
C1004 C996 1.378 . S
C1004 C999 1.350 . S
C1005 H992 0.929 . S
C1005 C997 1.433 . S
C1005 N1007 1.384 . S
N1006 C1002 1.427 . S
N1006 C1003 1.384 . S
N1007 C999 1.427 . S
N1007 C1005 1.384 . S
H1008 C1014 0.930 . S
H1009 C1018 0.930 . S
H1010 C1023 0.929 . S
H1011 C1021 0.929 . S
H1012 C1016 0.929 . S
H1013 C1022 0.929 . S
C1014 H1008 0.930 . S
C1014 C1015 1.367 . S
C1014 C1022 1.378 . S
C1015 C1014 1.367 . S
C1015 C1023 1.433 . S
C1016 H1012 0.929 . S
C1016 C1018 1.378 . S
C1016 C1020 1.350 . S
C1017 C1020 1.463 . S
C1017 C1022 1.350 . S
C1017 N1025 1.427 . S
C1018 H1009 0.930 . S
C1018 C1016 1.378 . S
C1018 C1019 1.367 . S
C1019 C1018 1.367 . S
C1019 C1021 1.433 . S
C1020 C1016 1.350 . S
C1020 C1017 1.463 . S
C1020 N1024 1.427 . S
C1021 H1011 0.929 . S
C1021 C1019 1.433 . S
C1021 N1024 1.384 . S
C1022 H1013 0.929 . S
C1022 C1014 1.378 . S
C1022 C1017 1.350 . S
C1023 H1010 0.929 . S
C1023 C1015 1.433 . S
C1023 N1025 1.384 . S
N1024 C1020 1.427 . S
N1024 C1021 1.384 . S
N1025 C1017 1.427 . S
N1025 C1023 1.384 . S
H1026 C1032 0.930 . S
H1027 C1036 0.930 . S
H1028 C1041 0.929 . S
H1029 C1039 0.929 . S
H1030 C1034 0.929 . S
H1031 C1040 0.929 . S
C1032 H1026 0.930 . S
C1032 C1033 1.367 . S
C1032 C1040 1.378 . S
C1033 C1032 1.367 . S
C1033 C1041 1.433 . S
C1034 H1030 0.929 . S
C1034 C1036 1.378 . S
C1034 C1038 1.350 . S
C1035 C1038 1.463 1_565 S
C1035 C1040 1.350 . S
C1035 N1043 1.427 . S
C1036 H1027 0.930 . S
C1036 C1034 1.378 . S
C1036 C1037 1.367 . S
C1037 C1036 1.367 . S
C1037 C1039 1.433 . S
C1038 C1034 1.350 . S
C1038 C1035 1.463 1_545 S
C1038 N1042 1.427 . S
C1039 H1029 0.929 . S
C1039 C1037 1.433 . S
C1039 N1042 1.384 . S
C1040 H1031 0.929 . S
C1040 C1032 1.378 . S
C1040 C1035 1.350 . S
C1041 H1028 0.929 . S
C1041 C1033 1.433 . S
C1041 N1043 1.384 . S
N1042 C1038 1.427 . S
N1042 C1039 1.384 . S
N1043 C1035 1.427 . S
N1043 C1041 1.384 . S
H1044 C1050 0.930 . S
H1045 C1054 0.930 . S
H1046 C1059 0.929 . S
H1047 C1057 0.929 . S
H1048 C1052 0.929 . S
H1049 C1058 0.929 . S
C1050 H1044 0.930 . S
C1050 C1051 1.367 . S
C1050 C1058 1.378 . S
C1051 C1050 1.367 . S
C1051 C1059 1.433 . S
C1052 H1048 0.929 . S
C1052 C1054 1.378 . S
C1052 C1056 1.350 . S
C1053 C1056 1.463 1_655 S
C1053 C1058 1.350 . S
C1053 N1061 1.427 . S
C1054 H1045 0.930 . S
C1054 C1052 1.378 . S
C1054 C1055 1.367 . S
C1055 C1054 1.367 . S
C1055 C1057 1.433 . S
C1056 C1052 1.350 . S
C1056 C1053 1.463 1_455 S
C1056 N1060 1.427 . S
C1057 H1047 0.929 . S
C1057 C1055 1.433 . S
C1057 N1060 1.384 . S
C1058 H1049 0.929 . S
C1058 C1050 1.378 . S
C1058 C1053 1.350 . S
C1059 H1046 0.929 . S
C1059 C1051 1.433 . S
C1059 N1061 1.384 . S
N1060 C1056 1.427 . S
N1060 C1057 1.384 . S
N1061 C1053 1.427 . S
N1061 C1059 1.384 . S
H1062 C1068 0.930 . S
H1063 C1072 0.930 . S
H1064 C1077 0.929 . S
H1065 C1075 0.929 . S
H1066 C1070 0.929 . S
H1067 C1076 0.929 . S
C1068 H1062 0.930 . S
C1068 C1069 1.367 . S
C1068 C1076 1.378 . S
C1069 C1068 1.367 . S
C1069 C1077 1.433 . S
C1070 H1066 0.929 . S
C1070 C1072 1.378 . S
C1070 C1074 1.350 . S
C1071 C1074 1.463 . S
C1071 C1076 1.350 . S
C1071 N1079 1.427 . S
C1072 H1063 0.930 . S
C1072 C1070 1.378 . S
C1072 C1073 1.367 . S
C1073 C1072 1.367 . S
C1073 C1075 1.433 . S
C1074 C1070 1.350 . S
C1074 C1071 1.463 . S
C1074 N1078 1.427 . S
C1075 H1065 0.929 . S
C1075 C1073 1.433 . S
C1075 N1078 1.384 . S
C1076 H1067 0.929 . S
C1076 C1068 1.378 . S
C1076 C1071 1.350 . S
C1077 H1064 0.929 . S
C1077 C1069 1.433 . S
C1077 N1079 1.384 . S
N1078 C1074 1.427 . S
N1078 C1075 1.384 . S
N1079 C1071 1.427 . S
N1079 C1077 1.384 . S
H1080 C1086 0.930 . S
H1081 C1090 0.930 . S
H1082 C1095 0.929 . S
H1083 C1093 0.929 . S
H1084 C1088 0.929 . S
H1085 C1094 0.929 . S
C1086 H1080 0.930 . S
C1086 C1087 1.367 . S
C1086 C1094 1.378 . S
C1087 C1086 1.367 . S
C1087 C1095 1.433 . S
C1088 H1084 0.929 . S
C1088 C1090 1.378 . S
C1088 C1092 1.350 . S
C1089 C1092 1.463 . S
C1089 C1094 1.350 . S
C1089 N1097 1.427 . S
C1090 H1081 0.930 . S
C1090 C1088 1.378 . S
C1090 C1091 1.367 . S
C1091 C1090 1.367 . S
C1091 C1093 1.433 . S
C1092 C1088 1.350 . S
C1092 C1089 1.463 . S
C1092 N1096 1.427 . S
C1093 H1083 0.929 . S
C1093 C1091 1.433 . S
C1093 N1096 1.384 . S
C1094 H1085 0.929 . S
C1094 C1086 1.378 . S
C1094 C1089 1.350 . S
C1095 H1082 0.929 . S
C1095 C1087 1.433 . S
C1095 N1097 1.384 . S
N1096 C1092 1.427 . S
N1096 C1093 1.384 . S
N1097 C1089 1.427 . S
N1097 C1095 1.384 . S
H1098 C1104 0.930 . S
H1099 C1108 0.930 . S
H1100 C1113 0.929 . S
H1101 C1111 0.929 . S
H1102 C1106 0.929 . S
H1103 C1112 0.929 . S
C1104 H1098 0.930 . S
C1104 C1105 1.367 . S
C1104 C1112 1.378 . S
C1105 C1104 1.367 . S
C1105 C1113 1.433 . S
C1106 H1102 0.929 . S
C1106 C1108 1.378 . S
C1106 C1110 1.350 . S
C1107 C1110 1.463 . S
C1107 C1112 1.350 . S
C1107 N1115 1.427 . S
C1108 H1099 0.930 . S
C1108 C1106 1.378 . S
C1108 C1109 1.367 . S
C1109 C1108 1.367 . S
C1109 C1111 1.433 . S
C1110 C1106 1.350 . S
C1110 C1107 1.463 . S
C1110 N1114 1.427 . S
C1111 H1101 0.929 . S
C1111 C1109 1.433 . S
C1111 N1114 1.384 . S
C1112 H1103 0.929 . S
C1112 C1104 1.378 . S
C1112 C1107 1.350 . S
C1113 H1100 0.929 . S
C1113 C1105 1.433 . S
C1113 N1115 1.384 . S
N1114 C1110 1.427 . S
N1114 C1111 1.384 . S
N1115 C1107 1.427 . S
N1115 C1113 1.384 . S
H1116 C1122 0.928 1_545 S
H1117 C1126 0.930 . S
H1118 C1131 0.929 . S
H1119 C1129 0.929 . S
H1120 C1124 0.929 . S
H1121 C1130 0.929 . S
C1122 H1116 0.928 1_565 S
C1122 C1123 1.367 . S
C1122 C1130 1.378 . S
C1123 C1122 1.367 . S
C1123 C1131 1.433 . S
C1124 H1120 0.929 . S
C1124 C1126 1.378 . S
C1124 C1128 1.350 . S
C1125 C1128 1.463 . S
C1125 C1130 1.350 . S
C1125 N1133 1.427 . S
C1126 H1117 0.930 . S
C1126 C1124 1.378 . S
C1126 C1127 1.367 . S
C1127 C1126 1.367 . S
C1127 C1129 1.433 . S
C1128 C1124 1.350 . S
C1128 C1125 1.463 . S
C1128 N1132 1.427 . S
C1129 H1119 0.929 . S
C1129 C1127 1.433 . S
C1129 N1132 1.384 . S
C1130 H1121 0.929 . S
C1130 C1122 1.378 . S
C1130 C1125 1.350 . S
C1131 H1118 0.929 . S
C1131 C1123 1.433 . S
C1131 N1133 1.384 . S
N1132 C1128 1.427 . S
N1132 C1129 1.384 . S
N1133 C1125 1.427 . S
N1133 C1131 1.384 . S
H1134 C1140 0.930 . S
H1135 C1144 0.930 . S
H1136 C1149 0.929 . S
H1137 C1147 0.929 . S
H1138 C1142 0.929 . S
H1139 C1148 0.929 . S
C1140 H1134 0.930 . S
C1140 C1141 1.367 . S
C1140 C1148 1.378 . S
C1141 C1140 1.367 . S
C1141 C1149 1.433 . S
C1142 H1138 0.929 . S
C1142 C1144 1.378 . S
C1142 C1146 1.350 . S
C1143 C1146 1.463 . S
C1143 C1148 1.350 . S
C1143 N1151 1.427 . S
C1144 H1135 0.930 . S
C1144 C1142 1.378 . S
C1144 C1145 1.367 . S
C1145 C1144 1.367 . S
C1145 C1147 1.433 . S
C1146 C1142 1.350 . S
C1146 C1143 1.463 . S
C1146 N1150 1.427 . S
C1147 H1137 0.929 . S
C1147 C1145 1.433 . S
C1147 N1150 1.384 . S
C1148 H1139 0.929 . S
C1148 C1140 1.378 . S
C1148 C1143 1.350 . S
C1149 H1136 0.929 . S
C1149 C1141 1.433 . S
C1149 N1151 1.384 . S
N1150 C1146 1.427 . S
N1150 C1147 1.384 . S
N1151 C1143 1.427 . S
N1151 C1149 1.384 . S
H1152 C1158 0.930 . S
H1153 C1162 0.930 . S
H1154 C1167 0.929 . S
H1155 C1165 0.929 . S
H1156 C1160 0.929 . S
H1157 C1166 0.929 . S
C1158 H1152 0.930 . S
C1158 C1159 1.367 . S
C1158 C1166 1.378 . S
C1159 C1158 1.367 . S
C1159 C1167 1.433 . S
C1160 H1156 0.929 . S
C1160 C1162 1.378 . S
C1160 C1164 1.350 . S
C1161 C1164 1.463 . S
C1161 C1166 1.350 . S
C1161 N1169 1.427 . S
C1162 H1153 0.930 . S
C1162 C1160 1.378 . S
C1162 C1163 1.367 . S
C1163 C1162 1.367 . S
C1163 C1165 1.433 . S
C1164 C1160 1.350 . S
C1164 C1161 1.463 . S
C1164 N1168 1.427 . S
C1165 H1155 0.929 . S
C1165 C1163 1.433 . S
C1165 N1168 1.384 . S
C1166 H1157 0.929 . S
C1166 C1158 1.378 . S
C1166 C1161 1.350 . S
C1167 H1154 0.929 . S
C1167 C1159 1.433 . S
C1167 N1169 1.384 . S
N1168 C1164 1.427 . S
N1168 C1165 1.384 . S
N1169 C1161 1.427 . S
N1169 C1167 1.384 . S
H1170 C1176 0.930 . S
H1171 C1180 0.930 . S
H1172 C1185 0.929 . S
H1173 C1183 0.929 . S
H1174 C1178 0.929 . S
H1175 C1184 0.929 . S
C1176 H1170 0.930 . S
C1176 C1177 1.367 . S
C1176 C1184 1.378 . S
C1177 C1176 1.367 . S
C1177 C1185 1.433 . S
C1178 H1174 0.929 . S
C1178 C1180 1.378 . S
C1178 C1182 1.350 . S
C1179 C1182 1.463 . S
C1179 C1184 1.350 . S
C1179 N1187 1.427 . S
C1180 H1171 0.930 . S
C1180 C1178 1.378 . S
C1180 C1181 1.367 . S
C1181 C1180 1.367 . S
C1181 C1183 1.433 . S
C1182 C1178 1.350 . S
C1182 C1179 1.463 . S
C1182 N1186 1.427 . S
C1183 H1173 0.929 . S
C1183 C1181 1.433 . S
C1183 N1186 1.384 . S
C1184 H1175 0.929 . S
C1184 C1176 1.378 . S
C1184 C1179 1.350 . S
C1185 H1172 0.929 . S
C1185 C1177 1.433 . S
C1185 N1187 1.384 . S
N1186 C1182 1.427 . S
N1186 C1183 1.384 . S
N1187 C1179 1.427 . S
N1187 C1185 1.384 . S
H1188 C1194 0.930 . S
H1189 C1198 0.930 . S
H1190 C1203 0.929 . S
H1191 C1201 0.929 . S
H1192 C1196 0.929 . S
H1193 C1202 0.929 . S
C1194 H1188 0.930 . S
C1194 C1195 1.367 . S
C1194 C1202 1.378 . S
C1195 C1194 1.367 . S
C1195 C1203 1.433 . S
C1196 H1192 0.929 . S
C1196 C1198 1.378 . S
C1196 C1200 1.350 . S
C1197 C1200 1.463 . S
C1197 C1202 1.350 . S
C1197 N1205 1.427 . S
C1198 H1189 0.930 . S
C1198 C1196 1.378 . S
C1198 C1199 1.367 . S
C1199 C1198 1.367 . S
C1199 C1201 1.433 . S
C1200 C1196 1.350 . S
C1200 C1197 1.463 . S
C1200 N1204 1.427 . S
C1201 H1191 0.929 . S
C1201 C1199 1.433 . S
C1201 N1204 1.384 . S
C1202 H1193 0.929 . S
C1202 C1194 1.378 . S
C1202 C1197 1.350 . S
C1203 H1190 0.929 . S
C1203 C1195 1.433 . S
C1203 N1205 1.384 . S
N1204 C1200 1.427 . S
N1204 C1201 1.384 . S
N1205 C1197 1.427 . S
N1205 C1203 1.384 . S
H1206 C1212 0.930 . S
H1207 C1216 0.930 . S
H1208 C1221 0.929 . S
H1209 C1219 0.929 . S
H1210 C1214 0.929 1_565 S
H1211 C1220 0.929 1_545 S
C1212 H1206 0.930 . S
C1212 C1213 1.367 . S
C1212 C1220 1.378 . S
C1213 C1212 1.367 . S
C1213 C1221 1.433 . S
C1214 H1210 0.929 1_545 S
C1214 C1216 1.378 . S
C1214 C1218 1.350 . S
C1215 C1218 1.463 1_565 S
C1215 C1220 1.350 . S
C1215 N1223 1.427 . S
C1216 H1207 0.930 . S
C1216 C1214 1.378 . S
C1216 C1217 1.367 . S
C1217 C1216 1.367 . S
C1217 C1219 1.433 . S
C1218 C1214 1.350 . S
C1218 C1215 1.463 1_545 S
C1218 N1222 1.427 . S
C1219 H1209 0.929 . S
C1219 C1217 1.433 . S
C1219 N1222 1.384 . S
C1220 H1211 0.929 1_565 S
C1220 C1212 1.378 . S
C1220 C1215 1.350 . S
C1221 H1208 0.929 . S
C1221 C1213 1.433 . S
C1221 N1223 1.384 . S
N1222 C1218 1.427 . S
N1222 C1219 1.384 . S
N1223 C1215 1.427 . S
N1223 C1221 1.384 . S
H1224 C1230 0.930 . S
H1225 C1234 0.930 . S
H1226 C1239 0.929 . S
H1227 C1237 0.929 . S
H1228 C1232 0.929 . S
H1229 C1238 0.929 . S
C1230 H1224 0.930 . S
C1230 C1231 1.367 . S
C1230 C1238 1.378 . S
C1231 C1230 1.367 . S
C1231 C1239 1.433 . S
C1232 H1228 0.929 . S
C1232 C1234 1.378 . S
C1232 C1236 1.350 . S
C1233 C1236 1.463 1_655 S
C1233 C1238 1.350 . S
C1233 N1241 1.427 1_655 S
C1234 H1225 0.930 . S
C1234 C1232 1.378 . S
C1234 C1235 1.367 . S
C1235 C1234 1.367 . S
C1235 C1237 1.433 . S
C1236 C1232 1.350 . S
C1236 C1233 1.463 1_455 S
C1236 N1240 1.427 . S
C1237 H1227 0.929 . S
C1237 C1235 1.433 . S
C1237 N1240 1.384 . S
C1238 H1229 0.929 . S
C1238 C1230 1.378 . S
C1238 C1233 1.350 . S
C1239 H1226 0.929 . S
C1239 C1231 1.433 . S
C1239 N1241 1.384 1_655 S
N1240 C1236 1.427 . S
N1240 C1237 1.384 . S
N1241 C1233 1.427 1_455 S
N1241 C1239 1.384 1_455 S
C763 C142 1.158 . S
C767 C56 1.345 1_554 S
C781 C226 1.186 . S
C785 C140 1.340 1_554 S
C799 C224 1.345 1_554 S
C803 C58 1.158 . S
C817 C238 1.187 . S
C821 C151 1.329 . S
C835 C235 1.331 . S
C839 C70 1.166 . S
C853 C67 1.331 . S
C857 C154 1.165 . S
C871 C308 1.349 . S
C875 C394 1.163 . S
C889 C478 1.189 . S
C893 C392 1.345 . S
C907 C476 1.343 . S
C911 C310 1.188 . S
C925 C403 1.336 . S
C929 C490 1.190 . S
C943 C487 1.336 . S
C947 C322 1.165 . S
C961 C406 1.167 . S
C965 C319 1.336 . S
C979 C646 1.155 . S
C983 C560 1.338 . S
C997 C644 1.347 . S
C1001 C730 1.160 . S
C1015 C728 1.335 . S
C1019 C562 1.178 . S
C1033 C742 1.177 . S
C1037 C655 1.338 . S
C1051 C739 1.338 . S
C1055 C574 1.177 . S
C1069 C571 1.333 . S
C1073 C658 1.163 . S
C1087 C494 2.562 . S
C1091 C63 2.627 . S
C1105 C326 2.564 . S
C1109 C147 2.627 . S
C1123 C231 2.627 . S
C1127 C410 2.570 . S
C1141 C242 2.568 . S
C1145 C567 2.631 . S
C1159 C74 2.566 . S
C1163 C651 2.633 . S
C1177 C735 2.626 . S
C1181 C158 2.567 . S
C1195 C315 2.633 . S
C1199 C746 2.566 . S
C1213 C399 2.627 . S
C1217 C578 2.563 . S
C1231 C662 2.569 . S
C1235 C483 2.630 . S
