# Generated by pormake.
# Topology smu, (6)-cn, num edge types: 1
# Building blocks:
#     Node 0, Type 0, BuildingBlock: MIDCAF_clean_sbu_0, # of connection points: 6
#     Node 1, Type 0, BuildingBlock: MIDCAF_clean_sbu_0, # of connection points: 6
#     Node 2, Type 0, BuildingBlock: MIDCAF_clean_sbu_0, # of connection points: 6
#     Node 3, Type 0, BuildingBlock: MIDCAF_clean_sbu_0, # of connection points: 6
#     Node 4, Type 0, BuildingBlock: MIDCAF_clean_sbu_0, # of connection points: 6
#     Node 5, Type 0, BuildingBlock: MIDCAF_clean_sbu_0, # of connection points: 6
#     Edge 6, Type (0, 0), BuildingBlock: OJICUG_clean_linker_0, # of connection points: 2
#     Edge 7, Type (0, 0), BuildingBlock: OJICUG_clean_linker_0, # of connection points: 2
#     Edge 8, Type (0, 0), BuildingBlock: OJICUG_clean_linker_0, # of connection points: 2
#     Edge 9, Type (0, 0), BuildingBlock: OJICUG_clean_linker_0, # of connection points: 2
#     Edge 10, Type (0, 0), BuildingBlock: OJICUG_clean_linker_0, # of connection points: 2
#     Edge 11, Type (0, 0), BuildingBlock: OJICUG_clean_linker_0, # of connection points: 2
#     Edge 12, Type (0, 0), BuildingBlock: OJICUG_clean_linker_0, # of connection points: 2
#     Edge 13, Type (0, 0), BuildingBlock: OJICUG_clean_linker_0, # of connection points: 2
#     Edge 14, Type (0, 0), BuildingBlock: OJICUG_clean_linker_0, # of connection points: 2
#     Edge 15, Type (0, 0), BuildingBlock: OJICUG_clean_linker_0, # of connection points: 2
#     Edge 16, Type (0, 0), BuildingBlock: OJICUG_clean_linker_0, # of connection points: 2
#     Edge 17, Type (0, 0), BuildingBlock: OJICUG_clean_linker_0, # of connection points: 2
#     Edge 18, Type (0, 0), BuildingBlock: OJICUG_clean_linker_0, # of connection points: 2
#     Edge 19, Type (0, 0), BuildingBlock: OJICUG_clean_linker_0, # of connection points: 2
#     Edge 20, Type (0, 0), BuildingBlock: OJICUG_clean_linker_0, # of connection points: 2
#     Edge 21, Type (0, 0), BuildingBlock: OJICUG_clean_linker_0, # of connection points: 2
#     Edge 22, Type (0, 0), BuildingBlock: OJICUG_clean_linker_0, # of connection points: 2
#     Edge 23, Type (0, 0), BuildingBlock: OJICUG_clean_linker_0, # of connection points: 2
# Relax obj value: 0.354
# Max RMSD: 0.260
# Mean RMSD: 0.260
data_MOF--net-smu--node1-MIDCAF_clean_sbu_0--edge1-OJICUG_clean_linker_0
_symmetry_space_group_name_H-M    P1
_symmetry_Int_Tables_number       1
_symmetry_cell_setting            triclinic
loop_
_symmetry_equiv_pos_as_xyz
'x, y, z'
_cell_length_a     21.35859
_cell_length_b     21.124518
_cell_length_c     22.069574
_cell_angle_alpha  86.809661
_cell_angle_beta   92.7156
_cell_angle_gamma 120.34982
loop_
_atom_site_label
_atom_site_type_symbol
_atom_site_fract_x
_atom_site_fract_y
_atom_site_fract_z
_atom_type_partial_charge
Zn0 Zn 0.14504 0.96202 0.16407 0.0
Zn1 Zn 0.40044 0.08326 0.36277 0.0
Zn2 Zn 0.30393 0.01856 0.29555 0.0
C3 C 0.45154 0.01869 0.2963 0.0
C4 C 0.28858 -0.00822 0.43583 0.0
O5 O 0.24964 0.08598 0.26338 0.0
O6 O 0.1597 0.05895 0.19178 0.0
C7 C 0.29306 0.9632 0.18006 0.0
O8 O 0.3989 0.01625 0.26362 0.0
O9 O 0.45644 0.0326 0.35175 0.0
O10 O 0.34209 0.05645 0.43679 0.0
O11 O 0.26607 0.95979 0.38492 0.0
O12 O 0.24039 0.97049 0.19393 0.0
O13 O 0.34282 0.98161 0.22055 0.0
O14 O 0.20833 0.92238 0.33603 0.0
O15 O 0.18698 0.94272 0.24301 0.0
C16 C 0.16307 0.90502 0.29156 0.0
O17 O 0.32698 0.13113 0.28154 0.0
O18 O 0.43803 0.18178 0.31953 0.0
C19 C 0.20444 0.10048 0.23243 0.0
C20 C 0.39009 0.18782 0.28841 0.0
Zn21 Zn 0.74443 0.72075 0.16223 0.0
Zn22 Zn 0.68336 0.53918 0.30688 0.0
Zn23 Zn 0.70426 0.62559 0.23239 0.0
C24 C 0.55689 0.48429 0.24458 0.0
C25 C 0.71848 0.65487 0.37156 0.0
O26 O 0.82294 0.67146 0.22631 0.0
O27 O 0.84274 0.78213 0.20236 0.0
C28 C 0.65954 0.60896 0.09686 0.0
O29 O 0.60355 0.52531 0.20445 0.0
O30 O 0.57561 0.49469 0.29986 0.0
O31 O 0.73305 0.60382 0.37681 0.0
O32 O 0.69584 0.66759 0.31958 0.0
O33 O 0.72639 0.65546 0.09282 0.0
O34 O 0.63187 0.59186 0.15 0.0
O35 O 0.70051 0.71691 0.2689 0.0
O36 O 0.66894 0.74692 0.18125 0.0
C37 C 0.68057 0.757 0.23752 0.0
O38 O 0.79109 0.5996 0.22653 0.0
O39 O 0.72832 0.48824 0.26728 0.0
C40 C 0.86601 0.74153 0.22484 0.0
C41 C 0.78146 0.53479 0.23637 0.0
Zn42 Zn 0.9366 0.18168 0.17062 0.0
Zn43 Zn 0.85902 0.26886 0.31161 0.0
Zn44 Zn 0.90925 0.23025 0.24748 0.0
C45 C 0.92939 0.38651 0.24652 0.0
C46 C 0.93793 0.22858 0.38221 0.0
O47 O 0.8263 0.11287 0.24399 0.0
O48 O 0.89371 0.07688 0.20181 0.0
C49 C 0.9095 0.27586 0.10993 0.0
O50 O 0.91493 0.33253 0.21329 0.0
O51 O 0.9301 0.37673 0.3034 0.0
O52 O 0.87221 0.21199 0.38098 0.0
O53 O -0.02708 0.24991 0.33235 0.0
O54 O 0.89018 0.20978 0.10124 0.0
O55 O 0.92916 0.30021 0.16378 0.0
O56 O 0.00841 0.23254 0.28037 0.0
O57 O 0.04321 0.24828 0.18636 0.0
C58 C 0.05813 0.2473 0.24239 0.0
O59 O 0.79322 0.14846 0.25579 0.0
O60 O 0.76047 0.22945 0.2709 0.0
C61 C 0.83814 0.06135 0.23107 0.0
C62 C 0.7435 0.16564 0.25665 0.0
Zn63 Zn -0.01197 0.25287 0.8196 0.0
Zn64 Zn 0.10847 0.45362 0.69126 0.0
Zn65 Zn 0.0456 0.34972 0.75566 0.0
C66 C 0.0187 0.48214 0.75016 0.0
C67 C 0.04704 0.3374 0.61588 0.0
O68 O 0.12187 0.3127 0.78555 0.0
O69 O 0.03417 0.19747 0.79183 0.0
C70 C 0.00733 0.35742 0.88688 0.0
O71 O 0.02251 0.43299 0.78445 0.0
O72 O 0.04096 0.49263 0.69649 0.0
O73 O 0.10383 0.39976 0.61772 0.0
O74 O 0.00776 0.31099 0.66337 0.0
O75 O 0.02424 0.30837 0.89553 0.0
O76 O -0.00011 0.37704 0.83198 0.0
O77 O 0.95905 0.25889 0.70716 0.0
O78 O 0.88977 0.2294 0.78551 0.0
C79 C 0.89628 0.21987 0.73076 0.0
O80 O 0.15931 0.38438 0.77105 0.0
O81 O 0.20075 0.49981 0.74224 0.0
C82 C 0.10085 0.2439 0.78754 0.0
C83 C 0.21113 0.45127 0.76877 0.0
Zn84 Zn 0.25464 0.82938 0.80335 0.0
Zn85 Zn 0.15322 0.94134 0.86945 0.0
Zn86 Zn 0.22823 0.92699 0.80114 0.0
C87 C 0.22753 0.0695 0.82163 0.0
C88 C 0.22712 0.89406 0.93826 0.0
O89 O 0.13542 0.81131 0.79975 0.0
O90 O 0.17987 0.75832 0.86129 0.0
C91 C 0.25275 0.89202 0.68395 0.0
O92 O 0.21992 0.02307 0.78334 0.0
O93 O 0.22179 0.0505 0.87727 0.0
O94 O 0.16025 0.87321 0.93295 0.0
O95 O 0.26774 0.92728 0.89312 0.0
O96 O 0.2286 0.82764 0.70712 0.0
O97 O 0.28292 0.94562 0.71997 0.0
O98 O 0.33994 0.96037 0.76912 0.0
O99 O 0.35681 0.89026 0.83591 0.0
C100 C 0.3833 0.94236 0.79682 0.0
O101 O 0.11563 0.85909 0.76514 0.0
O102 O 0.06669 0.91263 0.81119 0.0
C103 C 0.12607 0.75489 0.83229 0.0
C104 C 0.06367 0.87296 0.7691 0.0
Zn105 Zn 0.54103 0.72429 0.65152 0.0
Zn106 Zn 0.72341 0.7945 0.80486 0.0
Zn107 Zn 0.63769 0.75568 0.72918 0.0
C108 C 0.76987 0.73744 0.72841 0.0
C109 C 0.61875 0.70454 0.87113 0.0
O110 O 0.60191 0.83914 0.72567 0.0
O111 O 0.50425 0.79185 0.66587 0.0
C112 C 0.65747 0.74464 0.58861 0.0
O113 O 0.73357 0.75924 0.69419 0.0
O114 O 0.75439 0.72343 0.78386 0.0
O115 O 0.66549 0.77084 0.88003 0.0
O116 O 0.60396 0.68278 0.81592 0.0
O117 O 0.59987 0.74682 0.57955 0.0
O118 O 0.67915 0.74036 0.64338 0.0
O119 O 0.55075 0.65614 0.76702 0.0
O120 O 0.48443 0.61968 0.68294 0.0
C121 C 0.49599 0.60705 0.73777 0.0
O122 O 0.67339 0.87043 0.73925 0.0
O123 O 0.78299 0.89677 0.76961 0.0
C124 C 0.54675 0.84125 0.70132 0.0
C125 C 0.74115 0.91736 0.7457 0.0
C126 C 0.21097 0.84921 0.04558 0.0
C127 C 0.25762 0.89585 0.99996 0.0
H128 H 0.1871 0.83474 0.13996 0.0
C129 C 0.32605 0.9548 0.01669 0.0
H130 H 0.1583 0.80297 0.03404 0.0
C131 C 0.34286 0.97265 0.0779 0.0
C132 C 0.29136 0.93143 0.12226 0.0
H133 H 0.36302 -0.00829 0.98238 0.0
H134 H 0.3922 0.02274 0.08955 0.0
C135 C 0.22747 0.86725 0.1062 0.0
C136 C 0.7278 0.69808 0.53721 0.0
C137 C 0.69243 0.73884 0.53469 0.0
H138 H 0.76439 0.63964 0.48684 0.0
C139 C 0.678 0.76273 0.47766 0.0
H140 H 0.7397 0.67911 0.58046 0.0
C141 C 0.69119 0.73967 0.42421 0.0
C142 C 0.71964 0.69261 0.42658 0.0
H143 H 0.65162 0.7952 0.4743 0.0
H144 H 0.67438 0.75471 0.38145 0.0
C145 C 0.74127 0.67507 0.48348 0.0
C146 C -0.00235 0.38215 0.04803 0.0
C147 C 0.9256 0.32584 0.05645 0.0
H148 H 0.08197 0.43915 0.98335 0.0
C149 C 0.87717 0.30308 1.00642 0.0
H150 H 0.03604 0.40022 0.086 0.0
C151 C 0.90303 0.32774 0.9478 0.0
C152 C -0.02221 0.37297 0.9389 0.0
H153 H 0.82137 0.25958 0.01198 0.0
H154 H 0.86658 0.30182 0.90959 0.0
C155 C 0.02397 0.40486 0.98924 0.0
C156 C 0.2508 0.88568 0.51138 0.0
C157 C 0.25896 0.95478 0.49493 0.0
H158 H 0.24283 0.81073 0.58526 0.0
C159 C 0.25569 -0.00291 0.54002 0.0
H160 H 0.25429 0.85257 0.47741 0.0
C161 C 0.25052 0.97416 0.60075 0.0
C162 C 0.2484 0.90817 0.61826 0.0
H163 H 0.26185 0.0505 0.52861 0.0
H164 H 0.25101 0.00991 0.63439 0.0
C165 C 0.24524 0.86226 0.57297 0.0
C166 C 0.57194 0.66794 0.9763 0.0
C167 C 0.5969 0.65258 0.92441 0.0
H168 H 0.56768 0.66032 0.07345 0.0
C169 C 0.62249 0.60291 0.93036 0.0
H170 H 0.55307 0.70698 0.97312 0.0
C171 C 0.63284 0.57779 0.98814 0.0
C172 C 0.61556 0.60004 0.0407 0.0
H173 H 0.64346 0.59128 0.89133 0.0
H174 H 0.66194 0.548 0.99204 0.0
C175 C 0.57992 0.64072 0.03386 0.0
C176 C 0.93138 0.20697 0.4939 0.0
C177 C -0.02572 0.24033 0.44245 0.0
H178 H 0.9197 0.21273 0.5886 0.0
C179 C 0.04588 0.29774 0.45037 0.0
H180 H 0.87595 0.16221 0.48917 0.0
C181 C 0.07109 0.32661 0.50782 0.0
C182 C 0.02512 0.29838 0.55812 0.0
H183 H 0.08007 0.32463 0.41161 0.0
H184 H 0.12513 0.37388 0.51199 0.0
C185 C 0.95633 0.23605 0.55106 0.0
C186 C 0.54605 0.0846 0.22076 0.0
C187 C 0.5174 0.03073 0.26778 0.0
H188 H 0.64308 0.17248 0.1816 0.0
C189 C 0.56268 0.00944 0.29962 0.0
H190 H 0.51224 0.10233 0.19592 0.0
C191 C 0.63732 0.04837 0.29015 0.0
C192 C 0.66688 0.1099 0.25013 0.0
H193 H 0.54159 0.96828 0.33629 0.0
H194 H 0.67235 0.0358 0.31908 0.0
C195 C 0.62086 0.12526 0.21295 0.0
C196 C 0.50436 0.36264 0.19949 0.0
C197 C 0.4933 0.41168 0.23142 0.0
H198 H 0.4793 0.25115 0.19367 0.0
C199 C 0.43333 0.38284 0.26992 0.0
H200 H 0.55071 0.38301 0.17046 0.0
C201 C 0.39218 0.30712 0.28309 0.0
C202 C 0.41056 0.25942 0.25792 0.0
H203 H 0.42406 0.41944 0.29566 0.0
H204 H 0.35164 0.2871 0.31786 0.0
C205 C 0.46392 0.28709 0.21335 0.0
C206 C 0.93945 0.50703 0.25849 0.0
C207 C 0.91627 0.4454 0.22308 0.0
H208 H 0.91271 0.58409 0.2906 0.0
C209 C 0.86029 0.42803 0.17948 0.0
H210 H -0.01749 0.52149 0.29236 0.0
C211 C 0.81971 0.46311 0.17931 0.0
C212 C 0.83673 0.51749 0.22096 0.0
H213 H 0.84117 0.38076 0.15162 0.0
H214 H 0.77119 0.44309 0.15076 0.0
C215 C 0.89945 0.54268 0.25767 0.0
C216 C 0.0115 0.59563 0.73757 0.0
C217 C 0.00989 0.53983 0.77642 0.0
H218 H 0.05126 0.71039 0.72542 0.0
C219 C 0.02246 0.55177 0.83894 0.0
H220 H 0.00032 0.58751 0.68934 0.0
C221 C 0.05045 0.6224 0.86 0.0
C222 C 0.06567 0.68121 0.81872 0.0
H223 H 0.02043 0.50964 0.87033 0.0
H224 H 0.06888 0.63251 0.90693 0.0
C225 C 0.04029 0.66627 0.75841 0.0
C226 C 0.50074 0.9459 0.80456 0.0
C227 C 0.44956 0.95448 0.76805 0.0
H228 H 0.57205 0.90219 0.81156 0.0
C229 C 0.44717 0.94507 0.70529 0.0
H230 H 0.50369 0.95287 0.85309 0.0
C231 C 0.48507 0.91434 0.68172 0.0
C232 C 0.52753 0.89507 0.72029 0.0
H233 H 0.40865 0.95156 0.67585 0.0
H234 H 0.47599 0.89963 0.63455 0.0
C235 C 0.53934 0.91611 0.78086 0.0
C236 C 0.3178 0.44074 0.75009 0.0
C237 C 0.28534 0.46969 0.78456 0.0
H238 H 0.41581 0.46391 0.70808 0.0
C239 C 0.32862 0.53026 0.82025 0.0
H240 H 0.28482 0.39377 0.72238 0.0
C241 C 0.40375 0.56819 0.81441 0.0
C242 C 0.4348 0.54769 0.77039 0.0
H243 H 0.30407 0.55294 0.84724 0.0
H244 H 0.43542 0.62003 0.83655 0.0
C245 C 0.39265 0.48043 0.74226 0.0
C246 C 0.15181 0.14871 0.30129 0.0
C247 C 0.19485 0.16064 0.25096 0.0
H248 H 0.07469 0.17049 0.33982 0.0
C249 C 0.21016 0.21942 0.21011 0.0
H250 H 0.13931 0.10321 0.33322 0.0
C251 C 0.17476 0.25924 0.21474 0.0
C252 C 0.12128 0.23839 0.25868 0.0
H253 H 0.24346 0.22957 0.17116 0.0
H254 H 0.18155 0.29909 0.17873 0.0
C255 C 0.11513 0.18761 0.30528 0.0
C256 C 0.9665 0.84116 0.28353 0.0
C257 C 0.9396 0.7755 0.25274 0.0
H258 H 0.05949 0.93247 0.32352 0.0
C259 C -0.01528 0.74594 0.24666 0.0
H260 H 0.93255 0.86487 0.2892 0.0
C261 C 0.05732 0.78451 0.26698 0.0
C262 C 0.08513 0.85219 0.29475 0.0
H263 H 0.96559 0.6962 0.22222 0.0
H264 H 0.09318 0.76444 0.25659 0.0
C265 C 0.03856 0.87905 0.30446 0.0
C266 C 0.81255 0.94494 0.28407 0.0
C267 C 0.78725 -0.01514 0.2487 0.0
H268 H 0.79454 0.83901 0.31229 0.0
C269 C 0.71667 0.94884 0.22379 0.0
H270 H 0.86679 0.97229 0.30411 0.0
C271 C 0.67544 0.87216 0.22749 0.0
C272 C 0.70417 0.8314 0.25715 0.0
H273 H 0.69633 0.97924 0.19665 0.0
H274 H 0.62455 0.84468 0.20206 0.0
C275 C 0.77061 0.8687 0.28938 0.0
C276 C 0.2019 0.23105 0.83408 0.0
C277 C 0.15238 0.21792 0.78582 0.0
H278 H 0.2663 0.19314 0.88344 0.0
C279 C 0.14206 0.16779 0.74205 0.0
H280 H 0.21021 0.26965 0.86825 0.0
C281 C 0.17547 0.12572 0.74959 0.0
C282 C 0.21744 0.1316 0.80222 0.0
H283 H 0.10392 0.15729 0.70446 0.0
H284 H 0.16176 0.08318 0.71767 0.0
C285 C 0.23385 0.18743 0.84264 0.0
C286 C 0.94822 0.75589 0.76087 0.0
C287 C -0.00675 0.82777 0.7386 0.0
H288 H 0.83972 0.66677 0.77012 0.0
C289 C 0.96431 0.86033 0.69795 0.0
H290 H -0.03166 0.73144 0.79489 0.0
C291 C 0.88963 0.82379 0.68455 0.0
C292 C 0.84343 0.75521 0.71299 0.0
H293 H -0.00186 0.91639 0.68114 0.0
H294 H 0.86738 0.85342 0.65887 0.0
C295 C 0.87416 0.71909 0.74695 0.0
C296 C 0.77402 0.10941 0.7283 0.0
C297 C 0.84598 0.14659 0.70848 0.0
H298 H 0.68398 0.00593 0.75651 0.0
C299 C 0.87592 0.10596 0.68816 0.0
H300 H 0.75007 0.13972 0.74456 0.0
C301 C 0.83906 0.03001 0.69686 0.0
C302 C 0.77112 -0.0062 0.72419 0.0
H303 H 0.93148 0.13302 0.6732 0.0
H304 H 0.86588 0.00015 0.6862 0.0
C305 C 0.73653 0.03304 0.73586 0.0
loop_
_geom_bond_atom_site_label_1
_geom_bond_atom_site_label_2
_geom_bond_distance
_geom_bond_site_symmetry_2
_ccdc_geom_bond_type
Zn0 O6 1.920 . S
Zn0 O12 1.898 . S
Zn0 O15 1.905 1_545 S
Zn1 O9 1.905 . S
Zn1 O10 1.898 . S
Zn1 O18 1.920 . S
Zn2 O5 2.080 . S
Zn2 O8 2.114 . S
Zn2 O11 2.120 . S
Zn2 O13 2.120 . S
Zn2 O14 2.114 1_545 S
Zn2 O17 2.080 . S
C3 O8 1.166 . S
C3 O9 1.182 . S
C4 O10 1.167 . S
C4 O11 1.299 . S
O5 Zn2 2.080 . S
O5 C19 1.305 . S
O6 Zn0 1.920 . S
O6 C19 1.234 . S
C7 O12 1.167 . S
C7 O13 1.299 . S
O8 Zn2 2.114 . S
O8 C3 1.166 . S
O9 Zn1 1.905 . S
O9 C3 1.182 . S
O10 Zn1 1.898 . S
O10 C4 1.167 . S
O11 Zn2 2.120 . S
O11 C4 1.299 . S
O12 Zn0 1.898 . S
O12 C7 1.167 . S
O13 Zn2 2.120 . S
O13 C7 1.299 . S
O14 Zn2 2.114 1_565 S
O14 C16 1.166 . S
O15 Zn0 1.905 1_565 S
O15 C16 1.182 . S
C16 O14 1.166 . S
C16 O15 1.182 . S
O17 Zn2 2.080 . S
O17 C20 1.305 . S
O18 Zn1 1.920 . S
O18 C20 1.234 . S
C19 O5 1.305 . S
C19 O6 1.234 . S
C20 O17 1.305 . S
C20 O18 1.234 . S
Zn21 O27 1.920 . S
Zn21 O33 1.898 . S
Zn21 O36 1.905 . S
Zn22 O30 1.905 . S
Zn22 O31 1.898 . S
Zn22 O39 1.920 . S
Zn23 O26 2.080 . S
Zn23 O29 2.114 . S
Zn23 O32 2.120 . S
Zn23 O34 2.120 . S
Zn23 O35 2.114 . S
Zn23 O38 2.080 . S
C24 O29 1.166 . S
C24 O30 1.182 . S
C25 O31 1.167 . S
C25 O32 1.299 . S
O26 Zn23 2.080 . S
O26 C40 1.305 . S
O27 Zn21 1.920 . S
O27 C40 1.234 . S
C28 O33 1.167 . S
C28 O34 1.299 . S
O29 Zn23 2.114 . S
O29 C24 1.166 . S
O30 Zn22 1.905 . S
O30 C24 1.182 . S
O31 Zn22 1.898 . S
O31 C25 1.167 . S
O32 Zn23 2.120 . S
O32 C25 1.299 . S
O33 Zn21 1.898 . S
O33 C28 1.167 . S
O34 Zn23 2.120 . S
O34 C28 1.299 . S
O35 Zn23 2.114 . S
O35 C37 1.166 . S
O36 Zn21 1.905 . S
O36 C37 1.182 . S
C37 O35 1.166 . S
C37 O36 1.182 . S
O38 Zn23 2.080 . S
O38 C41 1.305 . S
O39 Zn22 1.920 . S
O39 C41 1.234 . S
C40 O26 1.305 . S
C40 O27 1.234 . S
C41 O38 1.305 . S
C41 O39 1.234 . S
Zn42 O48 1.920 . S
Zn42 O54 1.898 . S
Zn42 O57 1.905 1_655 S
Zn43 O51 1.905 . S
Zn43 O52 1.898 . S
Zn43 O60 1.920 . S
Zn44 O47 2.080 . S
Zn44 O50 2.114 . S
Zn44 O53 2.120 . S
Zn44 O55 2.120 . S
Zn44 O56 2.114 1_655 S
Zn44 O59 2.080 . S
C45 O50 1.166 . S
C45 O51 1.182 . S
C46 O52 1.167 . S
C46 O53 1.299 . S
O47 Zn44 2.080 . S
O47 C61 1.305 . S
O48 Zn42 1.920 . S
O48 C61 1.234 . S
C49 O54 1.167 . S
C49 O55 1.299 . S
O50 Zn44 2.114 . S
O50 C45 1.166 . S
O51 Zn43 1.905 . S
O51 C45 1.182 . S
O52 Zn43 1.898 . S
O52 C46 1.167 . S
O53 Zn44 2.120 . S
O53 C46 1.299 . S
O54 Zn42 1.898 . S
O54 C49 1.167 . S
O55 Zn44 2.120 . S
O55 C49 1.299 . S
O56 Zn44 2.114 1_455 S
O56 C58 1.166 . S
O57 Zn42 1.905 1_455 S
O57 C58 1.182 . S
C58 O56 1.166 . S
C58 O57 1.182 . S
O59 Zn44 2.080 . S
O59 C62 1.305 . S
O60 Zn43 1.920 . S
O60 C62 1.234 . S
C61 O47 1.305 . S
C61 O48 1.234 . S
C62 O59 1.305 . S
C62 O60 1.234 . S
Zn63 O69 1.920 . S
Zn63 O75 1.898 . S
Zn63 O78 1.905 1_455 S
Zn64 O72 1.905 . S
Zn64 O73 1.898 . S
Zn64 O81 1.920 . S
Zn65 O68 2.080 . S
Zn65 O71 2.114 . S
Zn65 O74 2.120 . S
Zn65 O76 2.120 . S
Zn65 O77 2.114 1_455 S
Zn65 O80 2.080 . S
C66 O71 1.166 . S
C66 O72 1.182 . S
C67 O73 1.167 . S
C67 O74 1.299 . S
O68 Zn65 2.080 . S
O68 C82 1.305 . S
O69 Zn63 1.920 . S
O69 C82 1.234 . S
C70 O75 1.167 . S
C70 O76 1.299 . S
O71 Zn65 2.114 . S
O71 C66 1.166 . S
O72 Zn64 1.905 . S
O72 C66 1.182 . S
O73 Zn64 1.898 . S
O73 C67 1.167 . S
O74 Zn65 2.120 . S
O74 C67 1.299 . S
O75 Zn63 1.898 . S
O75 C70 1.167 . S
O76 Zn65 2.120 . S
O76 C70 1.299 . S
O77 Zn65 2.114 1_655 S
O77 C79 1.166 . S
O78 Zn63 1.905 1_655 S
O78 C79 1.182 . S
C79 O77 1.166 . S
C79 O78 1.182 . S
O80 Zn65 2.080 . S
O80 C83 1.305 . S
O81 Zn64 1.920 . S
O81 C83 1.234 . S
C82 O68 1.305 . S
C82 O69 1.234 . S
C83 O80 1.305 . S
C83 O81 1.234 . S
Zn84 O90 1.920 . S
Zn84 O96 1.898 . S
Zn84 O99 1.905 . S
Zn85 O93 1.905 1_565 S
Zn85 O94 1.898 . S
Zn85 O102 1.920 . S
Zn86 O89 2.080 . S
Zn86 O92 2.114 1_565 S
Zn86 O95 2.120 . S
Zn86 O97 2.120 . S
Zn86 O98 2.114 . S
Zn86 O101 2.080 . S
C87 O92 1.166 . S
C87 O93 1.182 . S
C88 O94 1.167 . S
C88 O95 1.299 . S
O89 Zn86 2.080 . S
O89 C103 1.305 . S
O90 Zn84 1.920 . S
O90 C103 1.234 . S
C91 O96 1.167 . S
C91 O97 1.299 . S
O92 Zn86 2.114 1_545 S
O92 C87 1.166 . S
O93 Zn85 1.905 1_545 S
O93 C87 1.182 . S
O94 Zn85 1.898 . S
O94 C88 1.167 . S
O95 Zn86 2.120 . S
O95 C88 1.299 . S
O96 Zn84 1.898 . S
O96 C91 1.167 . S
O97 Zn86 2.120 . S
O97 C91 1.299 . S
O98 Zn86 2.114 . S
O98 C100 1.166 . S
O99 Zn84 1.905 . S
O99 C100 1.182 . S
C100 O98 1.166 . S
C100 O99 1.182 . S
O101 Zn86 2.080 . S
O101 C104 1.305 . S
O102 Zn85 1.920 . S
O102 C104 1.234 . S
C103 O89 1.305 . S
C103 O90 1.234 . S
C104 O101 1.305 . S
C104 O102 1.234 . S
Zn105 O111 1.920 . S
Zn105 O117 1.898 . S
Zn105 O120 1.905 . S
Zn106 O114 1.905 . S
Zn106 O115 1.898 . S
Zn106 O123 1.920 . S
Zn107 O110 2.080 . S
Zn107 O113 2.114 . S
Zn107 O116 2.120 . S
Zn107 O118 2.120 . S
Zn107 O119 2.114 . S
Zn107 O122 2.080 . S
C108 O113 1.166 . S
C108 O114 1.182 . S
C109 O115 1.167 . S
C109 O116 1.299 . S
O110 Zn107 2.080 . S
O110 C124 1.305 . S
O111 Zn105 1.920 . S
O111 C124 1.234 . S
C112 O117 1.167 . S
C112 O118 1.299 . S
O113 Zn107 2.114 . S
O113 C108 1.166 . S
O114 Zn106 1.905 . S
O114 C108 1.182 . S
O115 Zn106 1.898 . S
O115 C109 1.167 . S
O116 Zn107 2.120 . S
O116 C109 1.299 . S
O117 Zn105 1.898 . S
O117 C112 1.167 . S
O118 Zn107 2.120 . S
O118 C112 1.299 . S
O119 Zn107 2.114 . S
O119 C121 1.166 . S
O120 Zn105 1.905 . S
O120 C121 1.182 . S
C121 O119 1.166 . S
C121 O120 1.182 . S
O122 Zn107 2.080 . S
O122 C125 1.305 . S
O123 Zn106 1.920 . S
O123 C125 1.234 . S
C124 O110 1.305 . S
C124 O111 1.234 . S
C125 O122 1.305 . S
C125 O123 1.234 . S
C126 C127 1.387 . S
C126 H130 0.950 . S
C126 C135 1.390 1_566 S
C127 C126 1.387 . S
C127 C129 1.387 . S
H128 C135 0.950 . S
C129 C127 1.387 . S
C129 C131 1.390 1_566 S
C129 H133 0.950 . S
H130 C126 0.950 . S
C131 C129 1.390 1_544 S
C131 C132 1.387 . S
C131 H134 0.950 . S
C132 C131 1.387 . S
C132 C135 1.387 . S
H133 C129 0.950 . S
H134 C131 0.950 . S
C135 C126 1.390 1_544 S
C135 H128 0.950 . S
C135 C132 1.387 . S
C136 C137 1.387 . S
C136 H140 0.950 . S
C136 C145 1.390 . S
C137 C136 1.387 . S
C137 C139 1.387 . S
H138 C145 0.950 . S
C139 C137 1.387 . S
C139 C141 1.390 . S
C139 H143 0.950 . S
H140 C136 0.950 . S
C141 C139 1.390 . S
C141 C142 1.387 . S
C141 H144 0.950 . S
C142 C141 1.387 . S
C142 C145 1.387 . S
H143 C139 0.950 . S
H144 C141 0.950 . S
C145 C136 1.390 . S
C145 H138 0.950 . S
C145 C142 1.387 . S
C146 C147 1.387 1_455 S
C146 H150 0.950 . S
C146 C155 1.390 1_554 S
C147 C146 1.387 1_655 S
C147 C149 1.387 . S
H148 C155 0.950 . S
C149 C147 1.387 . S
C149 C151 1.390 1_554 S
C149 H153 0.950 . S
H150 C146 0.950 . S
C151 C149 1.390 1_556 S
C151 C152 1.387 1_655 S
C151 H154 0.950 . S
C152 C151 1.387 1_455 S
C152 C155 1.387 . S
H153 C149 0.950 . S
H154 C151 0.950 . S
C155 C146 1.390 1_556 S
C155 H148 0.950 . S
C155 C152 1.387 . S
C156 C157 1.387 . S
C156 H160 0.950 . S
C156 C165 1.390 1_545 S
C157 C156 1.387 . S
C157 C159 1.387 . S
H158 C165 0.950 . S
C159 C157 1.387 . S
C159 C161 1.390 1_545 S
C159 H163 0.950 . S
H160 C156 0.950 . S
C161 C159 1.390 1_565 S
C161 C162 1.387 . S
C161 H164 0.950 . S
C162 C161 1.387 . S
C162 C165 1.387 . S
H163 C159 0.950 . S
H164 C161 0.950 . S
C165 C156 1.390 1_565 S
C165 H158 0.950 . S
C165 C162 1.387 . S
C166 C167 1.387 . S
C166 H170 0.950 . S
C166 C175 1.390 1_556 S
C167 C166 1.387 . S
C167 C169 1.387 . S
H168 C175 0.950 . S
C169 C167 1.387 . S
C169 C171 1.390 1_556 S
C169 H173 0.950 . S
H170 C166 0.950 . S
C171 C169 1.390 1_554 S
C171 C172 1.387 . S
C171 H174 0.950 . S
C172 C171 1.387 . S
C172 C175 1.387 . S
H173 C169 0.950 . S
H174 C171 0.950 . S
C175 C166 1.390 1_554 S
C175 H168 0.950 . S
C175 C172 1.387 . S
C176 C177 1.387 . S
C176 H180 0.950 . S
C176 C185 1.390 . S
C177 C176 1.387 . S
C177 C179 1.387 1_655 S
H178 C185 0.950 . S
C179 C177 1.387 1_455 S
C179 C181 1.390 . S
C179 H183 0.950 . S
H180 C176 0.950 . S
C181 C179 1.390 . S
C181 C182 1.387 . S
C181 H184 0.950 . S
C182 C181 1.387 . S
C182 C185 1.387 1_455 S
H183 C179 0.950 . S
H184 C181 0.950 . S
C185 C176 1.390 . S
C185 H178 0.950 . S
C185 C182 1.387 1_655 S
C186 C187 1.387 . S
C186 H190 0.950 . S
C186 C195 1.390 . S
C187 C186 1.387 . S
C187 C189 1.387 . S
H188 C195 0.950 . S
C189 C187 1.387 . S
C189 C191 1.390 . S
C189 H193 0.950 . S
H190 C186 0.950 . S
C191 C189 1.390 . S
C191 C192 1.387 . S
C191 H194 0.950 . S
C192 C191 1.387 . S
C192 C195 1.387 . S
H193 C189 0.950 . S
H194 C191 0.950 . S
C195 C186 1.390 . S
C195 H188 0.950 . S
C195 C192 1.387 . S
C196 C197 1.387 . S
C196 H200 0.950 . S
C196 C205 1.390 . S
C197 C196 1.387 . S
C197 C199 1.387 . S
H198 C205 0.950 . S
C199 C197 1.387 . S
C199 C201 1.390 . S
C199 H203 0.950 . S
H200 C196 0.950 . S
C201 C199 1.390 . S
C201 C202 1.387 . S
C201 H204 0.950 . S
C202 C201 1.387 . S
C202 C205 1.387 . S
H203 C199 0.950 . S
H204 C201 0.950 . S
C205 C196 1.390 . S
C205 H198 0.950 . S
C205 C202 1.387 . S
C206 C207 1.387 . S
C206 H210 0.950 1_655 S
C206 C215 1.390 . S
C207 C206 1.387 . S
C207 C209 1.387 . S
H208 C215 0.950 . S
C209 C207 1.387 . S
C209 C211 1.390 . S
C209 H213 0.950 . S
H210 C206 0.950 1_455 S
C211 C209 1.390 . S
C211 C212 1.387 . S
C211 H214 0.950 . S
C212 C211 1.387 . S
C212 C215 1.387 . S
H213 C209 0.950 . S
H214 C211 0.950 . S
C215 C206 1.390 . S
C215 H208 0.950 . S
C215 C212 1.387 . S
C216 C217 1.387 . S
C216 H220 0.950 1_455 S
C216 C225 1.390 . S
C217 C216 1.387 . S
C217 C219 1.387 . S
H218 C225 0.950 . S
C219 C217 1.387 . S
C219 C221 1.390 . S
C219 H223 0.950 . S
H220 C216 0.950 1_655 S
C221 C219 1.390 . S
C221 C222 1.387 . S
C221 H224 0.950 . S
C222 C221 1.387 . S
C222 C225 1.387 . S
H223 C219 0.950 . S
H224 C221 0.950 . S
C225 C216 1.390 . S
C225 H218 0.950 . S
C225 C222 1.387 . S
C226 C227 1.387 . S
C226 H230 0.950 . S
C226 C235 1.390 . S
C227 C226 1.387 . S
C227 C229 1.387 . S
H228 C235 0.950 . S
C229 C227 1.387 . S
C229 C231 1.390 . S
C229 H233 0.950 . S
H230 C226 0.950 . S
C231 C229 1.390 . S
C231 C232 1.387 . S
C231 H234 0.950 . S
C232 C231 1.387 . S
C232 C235 1.387 . S
H233 C229 0.950 . S
H234 C231 0.950 . S
C235 C226 1.390 . S
C235 H228 0.950 . S
C235 C232 1.387 . S
C236 C237 1.387 . S
C236 H240 0.950 . S
C236 C245 1.390 . S
C237 C236 1.387 . S
C237 C239 1.387 . S
H238 C245 0.950 . S
C239 C237 1.387 . S
C239 C241 1.390 . S
C239 H243 0.950 . S
H240 C236 0.950 . S
C241 C239 1.390 . S
C241 C242 1.387 . S
C241 H244 0.950 . S
C242 C241 1.387 . S
C242 C245 1.387 . S
H243 C239 0.950 . S
H244 C241 0.950 . S
C245 C236 1.390 . S
C245 H238 0.950 . S
C245 C242 1.387 . S
C246 C247 1.387 . S
C246 H250 0.950 . S
C246 C255 1.390 . S
C247 C246 1.387 . S
C247 C249 1.387 . S
H248 C255 0.950 . S
C249 C247 1.387 . S
C249 C251 1.390 . S
C249 H253 0.950 . S
H250 C246 0.950 . S
C251 C249 1.390 . S
C251 C252 1.387 . S
C251 H254 0.950 . S
C252 C251 1.387 . S
C252 C255 1.387 . S
H253 C249 0.950 . S
H254 C251 0.950 . S
C255 C246 1.390 . S
C255 H248 0.950 . S
C255 C252 1.387 . S
C256 C257 1.387 1_455 S
C256 H260 0.950 . S
C256 C265 1.390 . S
C257 C256 1.387 1_655 S
C257 C259 1.387 1_655 S
H258 C265 0.950 . S
C259 C257 1.387 1_455 S
C259 C261 1.390 . S
C259 H263 0.950 1_455 S
H260 C256 0.950 . S
C261 C259 1.390 . S
C261 C262 1.387 . S
C261 H264 0.950 . S
C262 C261 1.387 . S
C262 C265 1.387 . S
H263 C259 0.950 1_655 S
H264 C261 0.950 . S
C265 C256 1.390 . S
C265 H258 0.950 . S
C265 C262 1.387 . S
C266 C267 1.387 1_565 S
C266 H270 0.950 . S
C266 C275 1.390 . S
C267 C266 1.387 1_545 S
C267 C269 1.387 1_545 S
H268 C275 0.950 . S
C269 C267 1.387 1_565 S
C269 C271 1.390 . S
C269 H273 0.950 1_565 S
H270 C266 0.950 . S
C271 C269 1.390 . S
C271 C272 1.387 . S
C271 H274 0.950 . S
C272 C271 1.387 . S
C272 C275 1.387 . S
H273 C269 0.950 1_545 S
H274 C271 0.950 . S
C275 C266 1.390 . S
C275 H268 0.950 . S
C275 C272 1.387 . S
C276 C277 1.387 . S
C276 H280 0.950 . S
C276 C285 1.390 . S
C277 C276 1.387 . S
C277 C279 1.387 . S
H278 C285 0.950 . S
C279 C277 1.387 . S
C279 C281 1.390 . S
C279 H283 0.950 . S
H280 C276 0.950 . S
C281 C279 1.390 . S
C281 C282 1.387 . S
C281 H284 0.950 . S
C282 C281 1.387 . S
C282 C285 1.387 . S
H283 C279 0.950 . S
H284 C281 0.950 . S
C285 C276 1.390 . S
C285 H278 0.950 . S
C285 C282 1.387 . S
C286 C287 1.387 1_655 S
C286 H290 0.950 . S
C286 C295 1.390 . S
C287 C286 1.387 1_455 S
C287 C289 1.387 1_455 S
H288 C295 0.950 . S
C289 C287 1.387 1_655 S
C289 C291 1.390 . S
C289 H293 0.950 1_655 S
H290 C286 0.950 . S
C291 C289 1.390 . S
C291 C292 1.387 . S
C291 H294 0.950 . S
C292 C291 1.387 . S
C292 C295 1.387 . S
H293 C289 0.950 1_455 S
H294 C291 0.950 . S
C295 C286 1.390 . S
C295 H288 0.950 . S
C295 C292 1.387 . S
C296 C297 1.387 . S
C296 H300 0.950 . S
C296 C305 1.390 . S
C297 C296 1.387 . S
C297 C299 1.387 . S
H298 C305 0.950 . S
C299 C297 1.387 . S
C299 C301 1.390 . S
C299 H303 0.950 . S
H300 C296 0.950 . S
C301 C299 1.390 . S
C301 C302 1.387 1_545 S
C301 H304 0.950 1_545 S
C302 C301 1.387 1_565 S
C302 C305 1.387 1_565 S
H303 C299 0.950 . S
H304 C301 0.950 1_565 S
C305 C296 1.390 . S
C305 H298 0.950 . S
C305 C302 1.387 1_545 S
C127 C88 1.404 . S
C132 C7 1.404 . S
C137 C112 1.490 . S
C142 C25 1.488 . S
C147 C49 1.408 . S
C152 C70 1.403 . S
C157 C4 1.489 . S
C162 C91 1.489 . S
C167 C109 1.406 . S
C172 C28 1.407 . S
C177 C46 1.489 . S
C182 C67 1.490 . S
C187 C3 1.025 . S
C192 C62 1.342 . S
C197 C24 1.029 . S
C202 C20 1.342 . S
C207 C45 1.020 . S
C212 C41 1.345 . S
C217 C66 1.020 . S
C222 C103 1.345 . S
C227 C100 1.028 . S
C232 C124 1.342 . S
C237 C83 1.345 . S
C242 C121 1.022 . S
C247 C19 1.187 . S
C252 C58 0.953 . S
C257 C40 1.191 . S
C262 C16 0.950 . S
C267 C61 1.190 . S
C272 C37 0.950 . S
C277 C82 1.192 . S
C282 C87 0.946 . S
C287 C104 1.192 . S
C292 C108 0.944 . S
C297 C79 0.944 . S
C302 C125 1.192 . S
