# Generated by pormake.
# Topology uol, (4)-cn, num edge types: 1
# Building blocks:
#     Node 0, Type 0, BuildingBlock: TATPOV_clean_sbu_0, # of connection points: 4
#     Node 1, Type 0, BuildingBlock: TATPOV_clean_sbu_0, # of connection points: 4
#     Node 2, Type 0, BuildingBlock: TATPOV_clean_sbu_0, # of connection points: 4
#     Node 3, Type 0, BuildingBlock: TATPOV_clean_sbu_0, # of connection points: 4
#     Node 4, Type 0, BuildingBlock: TATPOV_clean_sbu_0, # of connection points: 4
#     Node 5, Type 0, BuildingBlock: TATPOV_clean_sbu_0, # of connection points: 4
#     Node 6, Type 0, BuildingBlock: TATPOV_clean_sbu_0, # of connection points: 4
#     Node 7, Type 0, BuildingBlock: TATPOV_clean_sbu_0, # of connection points: 4
#     Node 8, Type 0, BuildingBlock: TATPOV_clean_sbu_0, # of connection points: 4
#     Node 9, Type 0, BuildingBlock: TATPOV_clean_sbu_0, # of connection points: 4
#     Node 10, Type 0, BuildingBlock: TATPOV_clean_sbu_0, # of connection points: 4
#     Node 11, Type 0, BuildingBlock: TATPOV_clean_sbu_0, # of connection points: 4
#     Edge 12, Type (0, 0), BuildingBlock: XIVTED_clean_linker_0, # of connection points: 2
#     Edge 13, Type (0, 0), BuildingBlock: XIVTED_clean_linker_0, # of connection points: 2
#     Edge 14, Type (0, 0), BuildingBlock: XIVTED_clean_linker_0, # of connection points: 2
#     Edge 15, Type (0, 0), BuildingBlock: XIVTED_clean_linker_0, # of connection points: 2
#     Edge 16, Type (0, 0), BuildingBlock: XIVTED_clean_linker_0, # of connection points: 2
#     Edge 17, Type (0, 0), BuildingBlock: XIVTED_clean_linker_0, # of connection points: 2
#     Edge 18, Type (0, 0), BuildingBlock: XIVTED_clean_linker_0, # of connection points: 2
#     Edge 19, Type (0, 0), BuildingBlock: XIVTED_clean_linker_0, # of connection points: 2
#     Edge 20, Type (0, 0), BuildingBlock: XIVTED_clean_linker_0, # of connection points: 2
#     Edge 21, Type (0, 0), BuildingBlock: XIVTED_clean_linker_0, # of connection points: 2
#     Edge 22, Type (0, 0), BuildingBlock: XIVTED_clean_linker_0, # of connection points: 2
#     Edge 23, Type (0, 0), BuildingBlock: XIVTED_clean_linker_0, # of connection points: 2
#     Edge 24, Type (0, 0), BuildingBlock: XIVTED_clean_linker_0, # of connection points: 2
#     Edge 25, Type (0, 0), BuildingBlock: XIVTED_clean_linker_0, # of connection points: 2
#     Edge 26, Type (0, 0), BuildingBlock: XIVTED_clean_linker_0, # of connection points: 2
#     Edge 27, Type (0, 0), BuildingBlock: XIVTED_clean_linker_0, # of connection points: 2
#     Edge 28, Type (0, 0), BuildingBlock: XIVTED_clean_linker_0, # of connection points: 2
#     Edge 29, Type (0, 0), BuildingBlock: XIVTED_clean_linker_0, # of connection points: 2
#     Edge 30, Type (0, 0), BuildingBlock: XIVTED_clean_linker_0, # of connection points: 2
#     Edge 31, Type (0, 0), BuildingBlock: XIVTED_clean_linker_0, # of connection points: 2
#     Edge 32, Type (0, 0), BuildingBlock: XIVTED_clean_linker_0, # of connection points: 2
#     Edge 33, Type (0, 0), BuildingBlock: XIVTED_clean_linker_0, # of connection points: 2
#     Edge 34, Type (0, 0), BuildingBlock: XIVTED_clean_linker_0, # of connection points: 2
#     Edge 35, Type (0, 0), BuildingBlock: XIVTED_clean_linker_0, # of connection points: 2
# Relax obj value: 0.214
# Max RMSD: 0.261
# Mean RMSD: 0.261
data_MOF--net-uol--node1-TATPOV_clean_sbu_0--edge1-XIVTED_clean_linker_0
_symmetry_space_group_name_H-M    P1
_symmetry_Int_Tables_number       1
_symmetry_cell_setting            triclinic
loop_
_symmetry_equiv_pos_as_xyz
'x, y, z'
_cell_length_a     32.875672
_cell_length_b     32.865161
_cell_length_c     61.74404
_cell_angle_alpha  90.02074
_cell_angle_beta   89.976516
_cell_angle_gamma 119.99533
loop_
_atom_site_label
_atom_site_type_symbol
_atom_site_fract_x
_atom_site_fract_y
_atom_site_fract_z
_atom_type_partial_charge
Zn0 Zn 0.19147 0.30056 0.06506 0.0
Zn1 Zn 0.21585 0.39096 0.06948 0.0
O2 O 0.23222 0.38584 0.03737 0.0
O3 O 0.20603 0.30999 0.03351 0.0
O4 O 0.23125 0.45823 0.0731 0.0
O5 O 0.12574 0.28055 0.07478 0.0
O6 O 0.14558 0.35495 0.0778 0.0
C7 C 0.22457 0.35085 0.02559 0.0
C8 C 0.26359 0.34938 0.0971 0.0
O9 O 0.25671 0.38326 0.09249 0.0
O10 O 0.24158 0.31075 0.087 0.0
C11 C 0.25427 0.49139 0.05974 0.0
O12 O 0.27131 0.48312 0.0421 0.0
C13 C 0.11488 0.3115 0.07928 0.0
Zn14 Zn 0.87778 0.1331 0.22746 0.0
Zn15 Zn 0.82808 0.17709 0.23187 0.0
O16 O 0.85609 0.19668 0.20102 0.0
O17 O 0.88989 0.15383 0.19645 0.0
O18 O 0.78656 0.20532 0.23569 0.0
O19 O 0.82101 0.07082 0.23498 0.0
O20 O 0.78059 0.10738 0.23762 0.0
C21 C 0.87849 0.18272 0.18916 0.0
C22 C 0.9115 0.20256 0.26173 0.0
O23 O 0.87613 0.20631 0.25637 0.0
O24 O 0.92128 0.17523 0.25138 0.0
C25 C 0.76899 0.20139 0.25444 0.0
O26 O 0.78095 0.18202 0.26995 0.0
C27 C 0.7826 0.06973 0.23868 0.0
Zn28 Zn 0.69961 0.88351 0.39455 0.0
Zn29 Zn 0.60843 0.82141 0.39983 0.0
O30 O 0.61189 0.84179 0.36771 0.0
O31 O 0.68821 0.8878 0.36311 0.0
O32 O 0.54069 0.77235 0.40429 0.0
O33 O 0.71674 0.83551 0.40417 0.0
O34 O 0.64152 0.78414 0.40774 0.0
C35 C 0.64693 0.8673 0.35558 0.0
C36 C 0.6556 0.91145 0.42706 0.0
O37 O 0.6201 0.87161 0.42266 0.0
O38 O 0.6936 0.92599 0.41664 0.0
C39 C 0.52807 0.75627 0.42334 0.0
O40 O 0.55897 0.77377 0.43911 0.0
C41 C 0.68434 0.7945 0.40892 0.0
Zn42 Zn 0.8455 0.73125 0.56091 0.0
Zn43 Zn 0.8073 0.63863 0.56468 0.0
O44 O 0.78823 0.6479 0.53374 0.0
O45 O 0.82804 0.72478 0.52963 0.0
O46 O 0.78248 0.56901 0.56654 0.0
O47 O 0.90901 0.7413 0.56916 0.0
O48 O 0.87757 0.6646 0.57132 0.0
C49 C 0.80112 0.68427 0.52202 0.0
C50 C 0.77452 0.69028 0.59448 0.0
O51 O 0.77434 0.65262 0.58937 0.0
O52 O 0.8 0.72798 0.58414 0.0
C53 C 0.79244 0.5495 0.55129 0.0
O54 O 0.81647 0.575 0.53459 0.0
C55 C 0.91324 0.7057 0.57279 0.0
Zn56 Zn 0.1118 0.82748 0.7287 0.0
Zn57 Zn 0.17043 0.794 0.73273 0.0
O58 O 0.14824 0.77882 0.70076 0.0
O59 O 0.10627 0.81377 0.69698 0.0
O60 O 0.21704 0.7717 0.73579 0.0
O61 O 0.16185 0.89101 0.7391 0.0
O62 O 0.21065 0.86374 0.74155 0.0
C63 C 0.1242 0.79091 0.68899 0.0
C64 C 0.08121 0.75321 0.76027 0.0
O65 O 0.12022 0.75597 0.75556 0.0
O66 O 0.06809 0.77845 0.75037 0.0
C67 C 0.2318 0.77033 0.75465 0.0
O68 O 0.21474 0.78168 0.77136 0.0
C69 C 0.20222 0.89742 0.74356 0.0
Zn70 Zn 0.26366 0.12333 0.89664 0.0
Zn71 Zn 0.35721 0.17466 0.90056 0.0
O72 O 0.34865 0.14699 0.86958 0.0
O73 O 0.27177 0.11126 0.8656 0.0
O74 O 0.42688 0.21719 0.90405 0.0
O75 O 0.25689 0.1793 0.90431 0.0
O76 O 0.33383 0.22114 0.90668 0.0
C77 C 0.31206 0.12372 0.85796 0.0
C78 C 0.30113 0.0909 0.93058 0.0
O79 O 0.33977 0.12671 0.92505 0.0
O80 O 0.26361 0.08038 0.92045 0.0
C81 C 0.44092 0.2345 0.92282 0.0
O82 O 0.41005 0.22177 0.93858 0.0
C83 C 0.29375 0.21816 0.90794 0.0
Zn84 Zn 0.72287 0.84923 0.76477 0.0
Zn85 Zn 0.62973 0.80739 0.76093 0.0
O86 O 0.64036 0.78951 0.7919 0.0
O87 O 0.71702 0.83232 0.79614 0.0
O88 O 0.55961 0.77974 0.7588 0.0
O89 O 0.72998 0.91153 0.75627 0.0
O90 O 0.65303 0.87716 0.75406 0.0
C91 C 0.67685 0.80404 0.80369 0.0
C92 C 0.68418 0.77756 0.73135 0.0
O93 O 0.64572 0.77571 0.7364 0.0
O94 O 0.72155 0.80429 0.74166 0.0
C95 C 0.53607 0.77966 0.77516 0.0
O96 O 0.55768 0.79566 0.79375 0.0
C97 C 0.69337 0.9139 0.75254 0.0
Zn98 Zn 0.8831 0.71044 0.9299 0.0
Zn99 Zn 0.82286 0.61885 0.92642 0.0
O100 O 0.84835 0.62692 0.95792 0.0
O101 O 0.89097 0.70381 0.96151 0.0
O102 O 0.77468 0.5501 0.92458 0.0
O103 O 0.83344 0.72516 0.92034 0.0
O104 O 0.78305 0.64934 0.91856 0.0
C105 C 0.87334 0.66309 0.96953 0.0
C106 C 0.90949 0.66457 0.89742 0.0
O107 O 0.87012 0.62896 0.90236 0.0
O108 O 0.92433 0.70293 0.9076 0.0
C109 C 0.74554 0.53159 0.94003 0.0
O110 O 0.74907 0.55747 0.95693 0.0
C111 C 0.79237 0.69174 0.91654 0.0
Zn112 Zn 0.1423 0.88047 0.10104 0.0
Zn113 Zn 0.1836 0.82853 0.09732 0.0
O114 O 0.20137 0.85661 0.12834 0.0
O115 O 0.16029 0.89241 0.13228 0.0
O116 O 0.21129 0.78608 0.09543 0.0
O117 O 0.07988 0.82516 0.09279 0.0
O118 O 0.114 0.78238 0.09022 0.0
C119 C 0.18787 0.87974 0.13996 0.0
C120 C 0.21318 0.9127 0.06748 0.0
O121 O 0.21529 0.87642 0.07288 0.0
O122 O 0.18642 0.92358 0.07761 0.0
C123 C 0.22047 0.77451 0.0772 0.0
O124 O 0.21357 0.7922 0.05943 0.0
C125 C 0.07738 0.78619 0.0888 0.0
Zn126 Zn 0.30161 0.18998 0.26465 0.0
Zn127 Zn 0.39179 0.21481 0.26055 0.0
O128 O 0.38637 0.23243 0.29238 0.0
O129 O 0.3103 0.20466 0.29622 0.0
O130 O 0.45925 0.23086 0.25811 0.0
O131 O 0.28206 0.12423 0.25507 0.0
O132 O 0.35656 0.14437 0.25246 0.0
C133 C 0.35122 0.22427 0.30413 0.0
C134 C 0.35067 0.26182 0.23238 0.0
O135 O 0.38458 0.25509 0.23709 0.0
O136 O 0.31208 0.23997 0.24253 0.0
C137 C 0.47665 0.21803 0.2732 0.0
O138 O 0.45051 0.19605 0.29008 0.0
C139 C 0.31321 0.1135 0.25084 0.0
Zn140 Zn 0.12365 0.25909 0.43307 0.0
Zn141 Zn 0.17258 0.35243 0.42947 0.0
O142 O 0.14216 0.34098 0.46001 0.0
O143 O 0.10962 0.26439 0.46412 0.0
O144 O 0.2133 0.42268 0.42764 0.0
O145 O 0.18087 0.25446 0.4257 0.0
O146 O 0.22115 0.33154 0.42361 0.0
C147 C 0.11995 0.30422 0.47163 0.0
C148 C 0.09132 0.29605 0.39862 0.0
O149 O 0.12659 0.33515 0.40415 0.0
O150 O 0.08109 0.25887 0.40902 0.0
C151 C 0.24099 0.44421 0.44325 0.0
O152 O 0.24016 0.42023 0.46043 0.0
C153 C 0.2193 0.29196 0.42232 0.0
Zn154 Zn 0.8125 0.10721 0.5976 0.0
Zn155 Zn 0.78572 0.17099 0.59239 0.0
O156 O 0.76678 0.1491 0.62425 0.0
O157 O 0.79582 0.10201 0.62895 0.0
O158 O 0.76884 0.22147 0.58822 0.0
O159 O 0.87833 0.15408 0.58841 0.0
O160 O 0.85639 0.20694 0.5849 0.0
C161 C 0.77509 0.12268 0.63637 0.0
C162 C 0.74188 0.08198 0.56458 0.0
O163 O 0.74719 0.12217 0.56909 0.0
O164 O 0.76416 0.06625 0.57512 0.0
C165 C 0.77468 0.23937 0.56944 0.0
O166 O 0.7894 0.2229 0.55375 0.0
C167 C 0.88809 0.1955 0.58377 0.0
H168 H 0.22388 0.72015 0.11 0.0
H169 H 0.28658 0.56542 0.03143 0.0
H170 H 0.24842 0.74578 0.04136 0.0
H171 H 0.2307 0.52299 0.09599 0.0
H172 H 0.28599 0.63896 0.03652 0.0
H173 H 0.23964 0.6552 0.10674 0.0
C174 C 0.23304 0.71244 0.09428 0.0
C175 C 0.23437 0.73816 0.07588 0.0
C176 C 0.27416 0.61365 0.04961 0.0
C177 C 0.25239 0.66381 0.07205 0.0
C178 C 0.27461 0.57172 0.04675 0.0
C179 C 0.25821 0.53777 0.06323 0.0
C180 C 0.25748 0.6218 0.06914 0.0
C181 C 0.24323 0.54795 0.08276 0.0
C182 C 0.24188 0.67525 0.09242 0.0
C183 C 0.24657 0.72663 0.05594 0.0
N184 N 0.24304 0.58894 0.08513 0.0
N185 N 0.25488 0.69015 0.05453 0.0
H186 H 0.72443 0.19622 0.29253 0.0
H187 H 0.53617 0.2512 0.23825 0.0
H188 H 0.7285 0.23346 0.22519 0.0
H189 H 0.52572 0.19924 0.30342 0.0
H190 H 0.61214 0.25513 0.23438 0.0
H191 H 0.65752 0.20784 0.29798 0.0
C192 C 0.71152 0.20725 0.27891 0.0
C193 C 0.73182 0.21339 0.25831 0.0
C194 C 0.59334 0.24319 0.24957 0.0
C195 C 0.65485 0.22651 0.26444 0.0
C196 C 0.55001 0.24101 0.25181 0.0
C197 C 0.52432 0.22443 0.27112 0.0
C198 C 0.61115 0.22882 0.26679 0.0
C199 C 0.54405 0.21183 0.28817 0.0
C200 C 0.6732 0.2138 0.28204 0.0
C201 C 0.71375 0.22803 0.24132 0.0
N202 N 0.58612 0.21405 0.28555 0.0
N203 N 0.67602 0.23372 0.24472 0.0
H204 H 0.49162 0.71186 0.46185 0.0
H205 H 0.26081 0.50171 0.40789 0.0
H206 H 0.45715 0.70727 0.39409 0.0
H207 H 0.30393 0.50097 0.47387 0.0
H208 H 0.3264 0.58193 0.40379 0.0
H209 H 0.41701 0.63977 0.46769 0.0
C210 C 0.46819 0.69593 0.44821 0.0
C211 C 0.48092 0.71538 0.42739 0.0
C212 C 0.32125 0.56433 0.41921 0.0
C213 C 0.39539 0.63258 0.43397 0.0
C214 C 0.28374 0.51856 0.42159 0.0
C215 C 0.27716 0.49438 0.44119 0.0
C216 C 0.35235 0.58609 0.43656 0.0
C217 C 0.30789 0.51806 0.4584 0.0
C218 C 0.42557 0.65469 0.45157 0.0
C219 C 0.44895 0.69331 0.41039 0.0
N220 N 0.34431 0.56245 0.45563 0.0
N221 N 0.40781 0.65287 0.41402 0.0
H222 H 0.75361 0.48969 0.58584 0.0
H223 H 0.78757 0.28743 0.53158 0.0
H224 H 0.8059 0.4967 0.52099 0.0
H225 H 0.74925 0.2858 0.5986 0.0
H226 H 0.78477 0.35949 0.52621 0.0
H227 H 0.7422 0.41054 0.58953 0.0
C228 C 0.76228 0.47445 0.5723 0.0
C229 C 0.78114 0.50005 0.55313 0.0
C230 C 0.77669 0.34325 0.54207 0.0
C231 C 0.76828 0.40957 0.55729 0.0
C232 C 0.77822 0.30201 0.54515 0.0
C233 C 0.76905 0.28073 0.56563 0.0
C234 C 0.76595 0.36351 0.55959 0.0
C235 C 0.75687 0.30116 0.58257 0.0
C236 C 0.75585 0.4293 0.57445 0.0
C237 C 0.79163 0.47846 0.53612 0.0
N238 N 0.75597 0.34159 0.5792 0.0
N239 N 0.7853 0.43462 0.53865 0.0
H240 H 0.47482 0.77211 0.80699 0.0
H241 H 0.28053 0.7528 0.72343 0.0
H242 H 0.48407 0.75873 0.73786 0.0
H243 H 0.27243 0.7664 0.79263 0.0
H244 H 0.35029 0.74545 0.72865 0.0
H245 H 0.39598 0.76037 0.80232 0.0
C246 C 0.46012 0.76628 0.79083 0.0
C247 C 0.48635 0.767 0.77276 0.0
C248 C 0.33299 0.7496 0.7427 0.0
C249 C 0.3961 0.75388 0.76727 0.0
C250 C 0.29312 0.75377 0.73974 0.0
C251 C 0.27092 0.7608 0.75761 0.0
C252 C 0.35085 0.7526 0.76367 0.0
C253 C 0.28865 0.76151 0.77836 0.0
C254 C 0.41505 0.75959 0.78818 0.0
C255 C 0.46526 0.75879 0.75224 0.0
N256 N 0.32778 0.7579 0.7808 0.0
N257 N 0.42157 0.75308 0.75003 0.0
H258 H 0.48111 0.27877 0.96085 0.0
H259 H 0.71993 0.47208 0.90511 0.0
H260 H 0.51238 0.27648 0.89309 0.0
H261 H 0.6801 0.48047 0.97088 0.0
H262 H 0.6494 0.39477 0.90163 0.0
H263 H 0.55918 0.34665 0.96597 0.0
C264 C 0.50455 0.29227 0.94706 0.0
C265 C 0.48995 0.27221 0.92645 0.0
C266 C 0.65633 0.4134 0.91687 0.0
C267 C 0.57949 0.35027 0.9322 0.0
C268 C 0.69663 0.45749 0.91889 0.0
C269 C 0.70568 0.48301 0.93825 0.0
C270 C 0.62495 0.39467 0.93435 0.0
C271 C 0.67433 0.4623 0.95558 0.0
C272 C 0.54916 0.33113 0.95 0.0
C273 C 0.52204 0.29104 0.90924 0.0
N274 N 0.63526 0.41951 0.95317 0.0
N275 N 0.56519 0.3293 0.91246 0.0
H276 H 0.40281 0.27777 0.19559 0.0
H277 H 0.28005 0.40173 0.13386 0.0
H278 H 0.30448 0.31049 0.22605 0.0
H279 H 0.31208 0.30296 0.10333 0.0
H280 H 0.31468 0.39358 0.16765 0.0
H281 H 0.39491 0.3125 0.16176 0.0
C282 C 0.38057 0.2934 0.19532 0.0
C283 C 0.35379 0.29082 0.21351 0.0
C284 C 0.31498 0.37457 0.15338 0.0
C285 C 0.34505 0.33073 0.17514 0.0
C286 C 0.29552 0.37936 0.1341 0.0
C287 C 0.29275 0.35251 0.1159 0.0
C288 C 0.33252 0.34346 0.15425 0.0
C289 C 0.31306 0.32382 0.11711 0.0
C290 C 0.37593 0.31292 0.17603 0.0
C291 C 0.32529 0.31132 0.21228 0.0
N292 N 0.33185 0.3198 0.13602 0.0
N293 N 0.32142 0.33019 0.19336 0.0
H294 H 0.87991 0.22249 0.29884 0.0
H295 H 0.12472 0.3439 0.36069 0.0
H296 H 0.00504 0.23681 0.26894 0.0
H297 H 0.99735 0.23965 0.39175 0.0
H298 H 0.08128 0.32912 0.32644 0.0
H299 H 0.92385 0.25347 0.33278 0.0
C300 C 0.91684 0.23308 0.29931 0.0
C301 C 0.93895 0.2269 0.28118 0.0
C302 C 0.06289 0.31019 0.3409 0.0
C303 C 0.98912 0.2629 0.31955 0.0
C304 C 0.08742 0.31873 0.36039 0.0
C305 C 0.06447 0.29274 0.37895 0.0
C306 C 0.01496 0.27649 0.34023 0.0
C307 C 0.01626 0.26016 0.37771 0.0
C308 C 0.94167 0.25046 0.31863 0.0
C309 C 0.98674 0.24077 0.28265 0.0
N310 N 0.99298 0.25298 0.35865 0.0
N311 N 0.01036 0.25826 0.30154 0.0
H312 H 0.69539 0.9871 0.55821 0.0
H313 H 0.70677 0.0063 0.43335 0.0
H314 H 0.72703 0.11739 0.52731 0.0
H315 H 0.60395 0.8777 0.4641 0.0
H316 H 0.71551 0.04841 0.46733 0.0
H317 H 0.66182 0.94566 0.52413 0.0
C318 C 0.69448 0.00681 0.54434 0.0
C319 C 0.71419 0.05571 0.54549 0.0
C320 C 0.69032 0.01116 0.46649 0.0
C321 C 0.677 0.00883 0.50646 0.0
C322 C 0.68543 0.98714 0.44716 0.0
C323 C 0.65481 0.93847 0.446 0.0
C324 C 0.66546 0.98606 0.48492 0.0
C325 C 0.62791 0.91526 0.46433 0.0
C326 C 0.67521 0.98316 0.52495 0.0
C327 C 0.71209 0.07963 0.52708 0.0
N328 N 0.63464 0.93909 0.48323 0.0
N329 N 0.69482 0.05609 0.50813 0.0
H330 H 0.73272 0.74316 0.60039 0.0
H331 H 0.74116 0.74031 0.72531 0.0
H332 H 0.7589 0.64182 0.63235 0.0
H333 H 0.63404 0.75814 0.69379 0.0
H334 H 0.75279 0.70803 0.69157 0.0
H335 H 0.70012 0.75379 0.63425 0.0
C336 C 0.73092 0.72267 0.61447 0.0
C337 C 0.74853 0.69165 0.61367 0.0
C338 C 0.72617 0.71823 0.69219 0.0
C339 C 0.7126 0.70453 0.65239 0.0
C340 C 0.71966 0.73677 0.71136 0.0
C341 C 0.68669 0.75194 0.71225 0.0
C342 C 0.70061 0.71633 0.67366 0.0
C343 C 0.65968 0.74663 0.69375 0.0
C344 C 0.71221 0.72861 0.63371 0.0
C345 C 0.74545 0.66592 0.63233 0.0
N346 N 0.66795 0.7302 0.67501 0.0
N347 N 0.7288 0.67369 0.65112 0.0
H348 H 0.00428 0.7127 0.89116 0.0
H349 H 0.98655 0.71212 0.76664 0.0
H350 H 0.87399 0.6155 0.85988 0.0
H351 H 0.1135 0.73159 0.79671 0.0
H352 H 0.94388 0.67745 0.80037 0.0
H353 H 0.04576 0.72163 0.85696 0.0
C354 C 0.9846 0.69259 0.87717 0.0
C355 C 0.9357 0.66347 0.87826 0.0
C356 C 0.98086 0.68841 0.79941 0.0
C357 C 0.98257 0.67446 0.83911 0.0
C358 C 0.00521 0.70831 0.78023 0.0
C359 C 0.05361 0.72492 0.77898 0.0
C360 C 0.00542 0.6865 0.81761 0.0
C361 C 0.07616 0.71913 0.79703 0.0
C362 C 0.00825 0.69758 0.85772 0.0
C363 C 0.91177 0.63818 0.8597 0.0
N364 N 0.05209 0.70137 0.81581 0.0
N365 N 0.9353 0.6451 0.8407 0.0
H366 H 0.23009 0.87941 0.03012 0.0
H367 H 0.35249 0.12381 0.96765 0.0
H368 H 0.25137 0.00683 0.06049 0.0
H369 H 0.24384 0.99708 0.93788 0.0
H370 H 0.34007 0.0805 0.00175 0.0
H371 H 0.26016 0.92268 0.99594 0.0
C372 C 0.24216 0.9167 0.02971 0.0
C373 C 0.23808 0.93968 0.04803 0.0
C374 C 0.31965 0.06219 0.98759 0.0
C375 C 0.27294 0.98901 0.00938 0.0
C376 C 0.32681 0.08666 0.96817 0.0
C377 C 0.29889 0.0639 0.95005 0.0
C378 C 0.28533 0.01449 0.9886 0.0
C379 C 0.26579 0.01587 0.95158 0.0
C380 C 0.25897 0.94114 0.01025 0.0
C381 C 0.25371 0.98789 0.04664 0.0
N382 N 0.25992 0.99264 0.97057 0.0
N383 N 0.27055 0.01107 0.0276 0.0
H384 H 0.31272 0.39927 0.00844 0.0
H385 H 0.21698 0.22965 0.90709 0.0
H386 H 0.16707 0.31185 0.99135 0.0
H387 H 0.3603 0.29602 0.92966 0.0
H388 H 0.20385 0.2825 0.92994 0.0
H389 H 0.33507 0.38461 0.97251 0.0
C390 C 0.28553 0.37868 0.99674 0.0
C391 C 0.2381 0.35646 0.00269 0.0
C392 C 0.23849 0.28621 0.92958 0.0
C393 C 0.26304 0.3388 0.96207 0.0
C394 C 0.24602 0.25603 0.9165 0.0
C395 C 0.2894 0.25753 0.91694 0.0
C396 C 0.27434 0.3176 0.94347 0.0
C397 C 0.32602 0.29309 0.92912 0.0
C398 C 0.29822 0.36995 0.97635 0.0
C399 C 0.20405 0.32942 0.98725 0.0
N400 N 0.31734 0.32101 0.94234 0.0
N401 N 0.21717 0.32077 0.96775 0.0
H402 H 0.91345 0.27378 0.17578 0.0
H403 H 0.03605 0.22559 0.07574 0.0
H404 H 0.88443 0.13735 0.15376 0.0
H405 H 0.08689 0.36277 0.10399 0.0
H406 H 0.96451 0.19592 0.09713 0.0
H407 H 0.96073 0.3089 0.143 0.0
C408 C 0.91577 0.25112 0.1637 0.0
C409 C 0.89572 0.20278 0.16751 0.0
C410 C 0.99092 0.23272 0.09843 0.0
C411 C 0.94957 0.24238 0.13033 0.0
C412 C 0.03181 0.2497 0.0862 0.0
C413 C 0.06794 0.29644 0.08848 0.0
C414 C 0.98632 0.26246 0.11333 0.0
C415 C 0.06013 0.3263 0.10196 0.0
C416 C 0.94298 0.27115 0.14511 0.0
C417 C 0.89995 0.1749 0.15151 0.0
N418 N 0.02051 0.30855 0.11426 0.0
N419 N 0.92683 0.19515 0.13376 0.0
H420 H 0.76899 0.98063 0.23744 0.0
H421 H 0.60036 0.90948 0.33894 0.0
H422 H 0.70536 0.05995 0.2604 0.0
H423 H 0.6836 0.84704 0.32096 0.0
H424 H 0.61549 0.94695 0.30313 0.0
H425 H 0.71496 0.91478 0.26005 0.0
C426 C 0.74296 0.98384 0.24689 0.0
C427 C 0.74258 0.02631 0.24752 0.0
C428 C 0.62909 0.92374 0.30675 0.0
C429 C 0.68116 0.95133 0.27377 0.0
C430 C 0.62007 0.90207 0.32707 0.0
C431 C 0.64107 0.87554 0.33275 0.0
C432 C 0.65932 0.91869 0.29225 0.0
C433 C 0.66702 0.8675 0.31709 0.0
C434 C 0.7121 0.94621 0.25982 0.0
C435 C 0.70744 0.02812 0.25972 0.0
N436 N 0.67602 0.88957 0.29766 0.0
N437 N 0.67886 0.99156 0.2728 0.0
H438 H 0.71083 0.62865 0.50768 0.0
H439 H 0.76813 0.79674 0.40581 0.0
H440 H 0.84911 0.73401 0.48683 0.0
H441 H 0.62986 0.71656 0.43384 0.0
H442 H 0.79454 0.75315 0.42804 0.0
H443 H 0.67822 0.64045 0.47395 0.0
C444 C 0.73441 0.65305 0.49566 0.0
C445 C 0.78254 0.68092 0.50003 0.0
C446 C 0.75818 0.74445 0.42909 0.0
C447 C 0.74585 0.6947 0.46178 0.0
C448 C 0.74307 0.76933 0.41638 0.0
C449 C 0.69705 0.76106 0.41839 0.0
C450 C 0.7273 0.71152 0.44418 0.0
C451 C 0.66585 0.72449 0.43202 0.0
C452 C 0.71583 0.66001 0.47653 0.0
C453 C 0.81169 0.71231 0.48411 0.0
N454 N 0.68182 0.7017 0.44479 0.0
N455 N 0.79284 0.71874 0.46581 0.0
H456 H 0.08819 0.70253 0.67216 0.0
H457 H -0.00051 0.78479 0.57076 0.0
H458 H 0.13373 0.84591 0.65469 0.0
H459 H 0.92892 0.64305 0.59556 0.0
H460 H 0.06721 0.80272 0.59336 0.0
H461 H 0.04873 0.67682 0.63685 0.0
C462 C 0.0914 0.72864 0.66053 0.0
C463 C 0.11366 0.77626 0.66625 0.0
C464 C 0.03731 0.76739 0.59355 0.0
C465 C 0.06865 0.74743 0.62627 0.0
C466 C 0.99862 0.75711 0.58063 0.0
C467 C 0.95801 0.71274 0.58175 0.0
C468 C 0.03514 0.73331 0.60796 0.0
C469 C 0.95925 0.67798 0.59448 0.0
C470 C 0.06863 0.714 0.6405 0.0
C471 C 0.11648 0.80881 0.65085 0.0
N472 N 0.99679 0.68931 0.60753 0.0
N473 N 0.09369 0.79376 0.63167 0.0
H474 H 0.37372 0.09688 0.84264 0.0
H475 H 0.27948 0.91573 0.76792 0.0
H476 H 0.25564 0.11192 0.82382 0.0
H477 H 0.20328 0.98086 0.74288 0.0
H478 H 0.32334 0.98322 0.79165 0.0
H479 H 0.36416 0.05222 0.8093 0.0
C480 C 0.34646 0.09161 0.83124 0.0
C481 C 0.31476 0.10714 0.83611 0.0
C482 C 0.29831 0.98376 0.78048 0.0
C483 C 0.30266 0.05521 0.79843 0.0
C484 C 0.27305 0.94495 0.76691 0.0
C485 C 0.23695 0.94222 0.75375 0.0
C486 C 0.28727 0.01999 0.78078 0.0
C487 C 0.23011 0.98104 0.75311 0.0
C488 C 0.34053 0.06552 0.81236 0.0
C489 C 0.28022 0.09969 0.82084 0.0
N490 N 0.25435 0.01781 0.76672 0.0
N491 N 0.27482 0.07388 0.80284 0.0
H492 H 0.72179 0.8543 0.83928 0.0
H493 H 0.71244 0.63346 0.89352 0.0
H494 H 0.62763 0.71291 0.81773 0.0
H495 H 0.79359 0.77524 0.91767 0.0
H496 H 0.66749 0.65822 0.8709 0.0
H497 H 0.7341 0.82349 0.87298 0.0
C498 C 0.70283 0.81667 0.84195 0.0
C499 C 0.67411 0.78599 0.82574 0.0
C500 C 0.6944 0.68364 0.88153 0.0
C501 C 0.68937 0.75016 0.86389 0.0
C502 C 0.72 0.66949 0.8945 0.0
C503 C 0.75761 0.70265 0.90707 0.0
C504 C 0.70671 0.73123 0.88116 0.0
C505 C 0.76565 0.74874 0.90782 0.0
C506 C 0.70993 0.79898 0.86117 0.0
C507 C 0.65014 0.73759 0.82992 0.0
N508 N 0.741 0.7618 0.89477 0.0
N509 N 0.65924 0.72099 0.84842 0.0
H510 H 0.91087 0.61184 0.98613 0.0
H511 H 0.98957 0.77539 0.09036 0.0
H512 H 0.86257 0.70732 0.00396 0.0
H513 H 0.06584 0.71061 0.0649 0.0
H514 H 0.92411 0.72621 0.06647 0.0
H515 H 0.94878 0.62449 0.02182 0.0
C516 C 0.90682 0.63405 0.99789 0.0
C517 C 0.88413 0.659 0.99222 0.0
C518 C 0.95476 0.722 0.06642 0.0
C519 C 0.92718 0.67377 0.03263 0.0
C520 C 0.99214 0.75003 0.08009 0.0
C521 C 0.03372 0.74801 0.07918 0.0
C522 C 0.95921 0.69221 0.0515 0.0
C523 C 0.03469 0.71384 0.06587 0.0
C524 C 0.92866 0.64151 0.01813 0.0
C525 C 0.88018 0.68782 0.00778 0.0
N526 N 0.9984 0.68801 0.05212 0.0
N527 N 0.90196 0.69482 0.02718 0.0
H528 H 0.2781 0.91325 0.15419 0.0
H529 H 0.22739 0.03444 0.25406 0.0
H530 H 0.14137 0.88558 0.17492 0.0
H531 H 0.36519 0.08583 0.22648 0.0
H532 H 0.19827 0.96322 0.23245 0.0
H533 H 0.31219 0.95961 0.18731 0.0
C534 C 0.25512 0.91565 0.16606 0.0
C535 C 0.20705 0.89626 0.1618 0.0
C536 C 0.23509 0.98968 0.23136 0.0
C537 C 0.24547 0.94903 0.19937 0.0
C538 C 0.25175 0.03038 0.24371 0.0
C539 C 0.29852 0.0666 0.24166 0.0
C540 C 0.26517 0.98536 0.21656 0.0
C541 C 0.32871 0.059 0.22832 0.0
C542 C 0.27457 0.94233 0.18484 0.0
C543 C 0.17874 0.90058 0.17753 0.0
N544 N 0.31127 0.01958 0.21589 0.0
N545 N 0.19843 0.92692 0.19549 0.0
H546 H 0.39922 0.31274 0.32106 0.0
H547 H 0.23346 0.21689 0.42371 0.0
H548 H 0.3126 0.16714 0.33851 0.0
H549 H 0.29606 0.35937 0.40029 0.0
H550 H 0.28649 0.20462 0.40059 0.0
H551 H 0.38545 0.33533 0.35713 0.0
C552 C 0.37895 0.28563 0.33285 0.0
C553 C 0.3567 0.23813 0.32698 0.0
C554 C 0.28938 0.23892 0.40083 0.0
C555 C 0.3402 0.26332 0.36778 0.0
C556 C 0.25911 0.24597 0.41407 0.0
C557 C 0.25939 0.28877 0.41343 0.0
C558 C 0.31959 0.27466 0.38658 0.0
C559 C 0.29406 0.32551 0.40097 0.0
C560 C 0.37077 0.29844 0.35331 0.0
C561 C 0.33013 0.20416 0.34254 0.0
N562 N 0.32203 0.31725 0.38759 0.0
N563 N 0.32207 0.21741 0.36213 0.0
H564 H 0.08483 0.3598 0.48569 0.0
H565 H 0.9683 0.19075 0.58697 0.0
H566 H 0.11406 0.25185 0.50657 0.0
H567 H 0.9137 0.27397 0.55888 0.0
H568 H 0.03859 0.2328 0.56476 0.0
H569 H 0.03889 0.34766 0.51897 0.0
C570 C 0.08274 0.33461 0.49759 0.0
C571 C 0.1025 0.30622 0.49335 0.0
C572 C 0.01163 0.24249 0.5637 0.0
C573 C 0.05039 0.29218 0.53113 0.0
C574 C 0.97148 0.21851 0.5764 0.0
C575 C 0.93462 0.22811 0.57438 0.0
C576 C 0.01474 0.27589 0.5486 0.0
C577 C 0.94107 0.26505 0.56073 0.0
C578 C 0.05636 0.3275 0.51647 0.0
C579 C 0.09869 0.27393 0.50915 0.0
N580 N 0.97996 0.28698 0.54797 0.0
N581 N 0.0727 0.26744 0.52721 0.0
H582 H 0.76965 0.00208 0.75499 0.0
H583 H 0.68515 0.08177 0.65149 0.0
H584 H 0.62918 0.92573 0.72898 0.0
H585 H 0.82874 0.13856 0.67188 0.0
H586 H 0.65887 0.0422 0.68673 0.0
H587 H 0.78517 0.06902 0.73231 0.0
C588 C 0.74171 -0.00025 0.74482 0.0
C589 C 0.69849 0.95783 0.74342 0.0
C590 C 0.6961 0.06462 0.68376 0.0
C591 C 0.71634 0.03408 0.71708 0.0
C592 C 0.71102 0.08751 0.66377 0.0
C593 C 0.75906 0.1131 0.65893 0.0
C594 C 0.72966 0.06762 0.69879 0.0
C595 C 0.79136 0.11892 0.6751 0.0
C596 C 0.7506 0.03801 0.73185 0.0
C597 C 0.66327 0.95715 0.7303 0.0
N598 N 0.77609 0.0958 0.6942 0.0
N599 N 0.67333 0.99433 0.71721 0.0
loop_
_geom_bond_atom_site_label_1
_geom_bond_atom_site_label_2
_geom_bond_distance
_geom_bond_site_symmetry_2
_ccdc_geom_bond_type
Zn0 O3 2.031 . S
Zn0 O5 2.049 . S
Zn0 O10 2.067 . S
Zn1 O2 1.962 . S
Zn1 O4 1.986 . S
Zn1 O6 1.996 . S
Zn1 O9 1.943 . S
O2 Zn1 1.962 . S
O2 C7 1.254 . S
O3 Zn0 2.031 . S
O3 C7 1.269 . S
O4 Zn1 1.986 . S
O4 C11 1.262 . S
O5 Zn0 2.049 . S
O5 C13 1.260 . S
O6 Zn1 1.996 . S
O6 C13 1.257 . S
C7 O2 1.254 . S
C7 O3 1.269 . S
C8 O9 1.249 . S
C8 O10 1.270 . S
O9 Zn1 1.943 . S
O9 C8 1.249 . S
O10 Zn0 2.067 . S
O10 C8 1.270 . S
C11 O4 1.262 . S
C11 O12 1.232 . S
O12 C11 1.232 . S
C13 O5 1.260 . S
C13 O6 1.257 . S
Zn14 O17 2.031 . S
Zn14 O19 2.049 . S
Zn14 O24 2.067 . S
Zn15 O16 1.962 . S
Zn15 O18 1.986 . S
Zn15 O20 1.996 . S
Zn15 O23 1.943 . S
O16 Zn15 1.962 . S
O16 C21 1.254 . S
O17 Zn14 2.031 . S
O17 C21 1.269 . S
O18 Zn15 1.986 . S
O18 C25 1.262 . S
O19 Zn14 2.049 . S
O19 C27 1.260 . S
O20 Zn15 1.996 . S
O20 C27 1.257 . S
C21 O16 1.254 . S
C21 O17 1.269 . S
C22 O23 1.249 . S
C22 O24 1.270 . S
O23 Zn15 1.943 . S
O23 C22 1.249 . S
O24 Zn14 2.067 . S
O24 C22 1.270 . S
C25 O18 1.262 . S
C25 O26 1.232 . S
O26 C25 1.232 . S
C27 O19 1.260 . S
C27 O20 1.257 . S
Zn28 O31 2.031 . S
Zn28 O33 2.049 . S
Zn28 O38 2.067 . S
Zn29 O30 1.962 . S
Zn29 O32 1.986 . S
Zn29 O34 1.996 . S
Zn29 O37 1.943 . S
O30 Zn29 1.962 . S
O30 C35 1.254 . S
O31 Zn28 2.031 . S
O31 C35 1.269 . S
O32 Zn29 1.986 . S
O32 C39 1.262 . S
O33 Zn28 2.049 . S
O33 C41 1.260 . S
O34 Zn29 1.996 . S
O34 C41 1.257 . S
C35 O30 1.254 . S
C35 O31 1.269 . S
C36 O37 1.249 . S
C36 O38 1.270 . S
O37 Zn29 1.943 . S
O37 C36 1.249 . S
O38 Zn28 2.067 . S
O38 C36 1.270 . S
C39 O32 1.262 . S
C39 O40 1.232 . S
O40 C39 1.232 . S
C41 O33 1.260 . S
C41 O34 1.257 . S
Zn42 O45 2.031 . S
Zn42 O47 2.049 . S
Zn42 O52 2.067 . S
Zn43 O44 1.962 . S
Zn43 O46 1.986 . S
Zn43 O48 1.996 . S
Zn43 O51 1.943 . S
O44 Zn43 1.962 . S
O44 C49 1.254 . S
O45 Zn42 2.031 . S
O45 C49 1.269 . S
O46 Zn43 1.986 . S
O46 C53 1.262 . S
O47 Zn42 2.049 . S
O47 C55 1.260 . S
O48 Zn43 1.996 . S
O48 C55 1.257 . S
C49 O44 1.254 . S
C49 O45 1.269 . S
C50 O51 1.249 . S
C50 O52 1.270 . S
O51 Zn43 1.943 . S
O51 C50 1.249 . S
O52 Zn42 2.067 . S
O52 C50 1.270 . S
C53 O46 1.262 . S
C53 O54 1.232 . S
O54 C53 1.232 . S
C55 O47 1.260 . S
C55 O48 1.257 . S
Zn56 O59 2.031 . S
Zn56 O61 2.049 . S
Zn56 O66 2.067 . S
Zn57 O58 1.962 . S
Zn57 O60 1.986 . S
Zn57 O62 1.996 . S
Zn57 O65 1.943 . S
O58 Zn57 1.962 . S
O58 C63 1.254 . S
O59 Zn56 2.031 . S
O59 C63 1.269 . S
O60 Zn57 1.986 . S
O60 C67 1.262 . S
O61 Zn56 2.049 . S
O61 C69 1.260 . S
O62 Zn57 1.996 . S
O62 C69 1.257 . S
C63 O58 1.254 . S
C63 O59 1.269 . S
C64 O65 1.249 . S
C64 O66 1.270 . S
O65 Zn57 1.943 . S
O65 C64 1.249 . S
O66 Zn56 2.067 . S
O66 C64 1.270 . S
C67 O60 1.262 . S
C67 O68 1.232 . S
O68 C67 1.232 . S
C69 O61 1.260 . S
C69 O62 1.257 . S
Zn70 O73 2.031 . S
Zn70 O75 2.049 . S
Zn70 O80 2.067 . S
Zn71 O72 1.962 . S
Zn71 O74 1.986 . S
Zn71 O76 1.996 . S
Zn71 O79 1.943 . S
O72 Zn71 1.962 . S
O72 C77 1.254 . S
O73 Zn70 2.031 . S
O73 C77 1.269 . S
O74 Zn71 1.986 . S
O74 C81 1.262 . S
O75 Zn70 2.049 . S
O75 C83 1.260 . S
O76 Zn71 1.996 . S
O76 C83 1.257 . S
C77 O72 1.254 . S
C77 O73 1.269 . S
C78 O79 1.249 . S
C78 O80 1.270 . S
O79 Zn71 1.943 . S
O79 C78 1.249 . S
O80 Zn70 2.067 . S
O80 C78 1.270 . S
C81 O74 1.262 . S
C81 O82 1.232 . S
O82 C81 1.232 . S
C83 O75 1.260 . S
C83 O76 1.257 . S
Zn84 O87 2.031 . S
Zn84 O89 2.049 . S
Zn84 O94 2.067 . S
Zn85 O86 1.962 . S
Zn85 O88 1.986 . S
Zn85 O90 1.996 . S
Zn85 O93 1.943 . S
O86 Zn85 1.962 . S
O86 C91 1.254 . S
O87 Zn84 2.031 . S
O87 C91 1.269 . S
O88 Zn85 1.986 . S
O88 C95 1.262 . S
O89 Zn84 2.049 . S
O89 C97 1.260 . S
O90 Zn85 1.996 . S
O90 C97 1.257 . S
C91 O86 1.254 . S
C91 O87 1.269 . S
C92 O93 1.249 . S
C92 O94 1.270 . S
O93 Zn85 1.943 . S
O93 C92 1.249 . S
O94 Zn84 2.067 . S
O94 C92 1.270 . S
C95 O88 1.262 . S
C95 O96 1.232 . S
O96 C95 1.232 . S
C97 O89 1.260 . S
C97 O90 1.257 . S
Zn98 O101 2.031 . S
Zn98 O103 2.049 . S
Zn98 O108 2.067 . S
Zn99 O100 1.962 . S
Zn99 O102 1.986 . S
Zn99 O104 1.996 . S
Zn99 O107 1.943 . S
O100 Zn99 1.962 . S
O100 C105 1.254 . S
O101 Zn98 2.031 . S
O101 C105 1.269 . S
O102 Zn99 1.986 . S
O102 C109 1.262 . S
O103 Zn98 2.049 . S
O103 C111 1.260 . S
O104 Zn99 1.996 . S
O104 C111 1.257 . S
C105 O100 1.254 . S
C105 O101 1.269 . S
C106 O107 1.249 . S
C106 O108 1.270 . S
O107 Zn99 1.943 . S
O107 C106 1.249 . S
O108 Zn98 2.067 . S
O108 C106 1.270 . S
C109 O102 1.262 . S
C109 O110 1.232 . S
O110 C109 1.232 . S
C111 O103 1.260 . S
C111 O104 1.257 . S
Zn112 O115 2.031 . S
Zn112 O117 2.049 . S
Zn112 O122 2.067 . S
Zn113 O114 1.962 . S
Zn113 O116 1.986 . S
Zn113 O118 1.996 . S
Zn113 O121 1.943 . S
O114 Zn113 1.962 . S
O114 C119 1.254 . S
O115 Zn112 2.031 . S
O115 C119 1.269 . S
O116 Zn113 1.986 . S
O116 C123 1.262 . S
O117 Zn112 2.049 . S
O117 C125 1.260 . S
O118 Zn113 1.996 . S
O118 C125 1.257 . S
C119 O114 1.254 . S
C119 O115 1.269 . S
C120 O121 1.249 . S
C120 O122 1.270 . S
O121 Zn113 1.943 . S
O121 C120 1.249 . S
O122 Zn112 2.067 . S
O122 C120 1.270 . S
C123 O116 1.262 . S
C123 O124 1.232 . S
O124 C123 1.232 . S
C125 O117 1.260 . S
C125 O118 1.257 . S
Zn126 O129 2.031 . S
Zn126 O131 2.049 . S
Zn126 O136 2.067 . S
Zn127 O128 1.962 . S
Zn127 O130 1.986 . S
Zn127 O132 1.996 . S
Zn127 O135 1.943 . S
O128 Zn127 1.962 . S
O128 C133 1.254 . S
O129 Zn126 2.031 . S
O129 C133 1.269 . S
O130 Zn127 1.986 . S
O130 C137 1.262 . S
O131 Zn126 2.049 . S
O131 C139 1.260 . S
O132 Zn127 1.996 . S
O132 C139 1.257 . S
C133 O128 1.254 . S
C133 O129 1.269 . S
C134 O135 1.249 . S
C134 O136 1.270 . S
O135 Zn127 1.943 . S
O135 C134 1.249 . S
O136 Zn126 2.067 . S
O136 C134 1.270 . S
C137 O130 1.262 . S
C137 O138 1.232 . S
O138 C137 1.232 . S
C139 O131 1.260 . S
C139 O132 1.257 . S
Zn140 O143 2.031 . S
Zn140 O145 2.049 . S
Zn140 O150 2.067 . S
Zn141 O142 1.962 . S
Zn141 O144 1.986 . S
Zn141 O146 1.996 . S
Zn141 O149 1.943 . S
O142 Zn141 1.962 . S
O142 C147 1.254 . S
O143 Zn140 2.031 . S
O143 C147 1.269 . S
O144 Zn141 1.986 . S
O144 C151 1.262 . S
O145 Zn140 2.049 . S
O145 C153 1.260 . S
O146 Zn141 1.996 . S
O146 C153 1.257 . S
C147 O142 1.254 . S
C147 O143 1.269 . S
C148 O149 1.249 . S
C148 O150 1.270 . S
O149 Zn141 1.943 . S
O149 C148 1.249 . S
O150 Zn140 2.067 . S
O150 C148 1.270 . S
C151 O144 1.262 . S
C151 O152 1.232 . S
O152 C151 1.232 . S
C153 O145 1.260 . S
C153 O146 1.257 . S
Zn154 O157 2.031 . S
Zn154 O159 2.049 . S
Zn154 O164 2.067 . S
Zn155 O156 1.962 . S
Zn155 O158 1.986 . S
Zn155 O160 1.996 . S
Zn155 O163 1.943 . S
O156 Zn155 1.962 . S
O156 C161 1.254 . S
O157 Zn154 2.031 . S
O157 C161 1.269 . S
O158 Zn155 1.986 . S
O158 C165 1.262 . S
O159 Zn154 2.049 . S
O159 C167 1.260 . S
O160 Zn155 1.996 . S
O160 C167 1.257 . S
C161 O156 1.254 . S
C161 O157 1.269 . S
C162 O163 1.249 . S
C162 O164 1.270 . S
O163 Zn155 1.943 . S
O163 C162 1.249 . S
O164 Zn154 2.067 . S
O164 C162 1.270 . S
C165 O158 1.262 . S
C165 O166 1.232 . S
O166 C165 1.232 . S
C167 O159 1.260 . S
C167 O160 1.257 . S
H168 C174 0.930 . S
H169 C178 0.930 . S
H170 C183 0.929 . S
H171 C181 0.929 . S
H172 C176 0.929 . S
H173 C182 0.929 . S
C174 H168 0.930 . S
C174 C175 1.367 . S
C174 C182 1.378 . S
C175 C174 1.367 . S
C175 C183 1.433 . S
C176 H172 0.929 . S
C176 C178 1.378 . S
C176 C180 1.350 . S
C177 C180 1.463 . S
C177 C182 1.350 . S
C177 N185 1.427 . S
C178 H169 0.930 . S
C178 C176 1.378 . S
C178 C179 1.367 . S
C179 C178 1.367 . S
C179 C181 1.433 . S
C180 C176 1.350 . S
C180 C177 1.463 . S
C180 N184 1.427 . S
C181 H171 0.929 . S
C181 C179 1.433 . S
C181 N184 1.384 . S
C182 H173 0.929 . S
C182 C174 1.378 . S
C182 C177 1.350 . S
C183 H170 0.929 . S
C183 C175 1.433 . S
C183 N185 1.384 . S
N184 C180 1.427 . S
N184 C181 1.384 . S
N185 C177 1.427 . S
N185 C183 1.384 . S
H186 C192 0.930 . S
H187 C196 0.930 . S
H188 C201 0.929 . S
H189 C199 0.929 . S
H190 C194 0.929 . S
H191 C200 0.929 . S
C192 H186 0.930 . S
C192 C193 1.367 . S
C192 C200 1.378 . S
C193 C192 1.367 . S
C193 C201 1.433 . S
C194 H190 0.929 . S
C194 C196 1.378 . S
C194 C198 1.350 . S
C195 C198 1.463 . S
C195 C200 1.350 . S
C195 N203 1.427 . S
C196 H187 0.930 . S
C196 C194 1.378 . S
C196 C197 1.367 . S
C197 C196 1.367 . S
C197 C199 1.433 . S
C198 C194 1.350 . S
C198 C195 1.463 . S
C198 N202 1.427 . S
C199 H189 0.929 . S
C199 C197 1.433 . S
C199 N202 1.384 . S
C200 H191 0.929 . S
C200 C192 1.378 . S
C200 C195 1.350 . S
C201 H188 0.929 . S
C201 C193 1.433 . S
C201 N203 1.384 . S
N202 C198 1.427 . S
N202 C199 1.384 . S
N203 C195 1.427 . S
N203 C201 1.384 . S
H204 C210 0.930 . S
H205 C214 0.930 . S
H206 C219 0.929 . S
H207 C217 0.929 . S
H208 C212 0.929 . S
H209 C218 0.929 . S
C210 H204 0.930 . S
C210 C211 1.367 . S
C210 C218 1.378 . S
C211 C210 1.367 . S
C211 C219 1.433 . S
C212 H208 0.929 . S
C212 C214 1.378 . S
C212 C216 1.350 . S
C213 C216 1.463 . S
C213 C218 1.350 . S
C213 N221 1.427 . S
C214 H205 0.930 . S
C214 C212 1.378 . S
C214 C215 1.367 . S
C215 C214 1.367 . S
C215 C217 1.433 . S
C216 C212 1.350 . S
C216 C213 1.463 . S
C216 N220 1.427 . S
C217 H207 0.929 . S
C217 C215 1.433 . S
C217 N220 1.384 . S
C218 H209 0.929 . S
C218 C210 1.378 . S
C218 C213 1.350 . S
C219 H206 0.929 . S
C219 C211 1.433 . S
C219 N221 1.384 . S
N220 C216 1.427 . S
N220 C217 1.384 . S
N221 C213 1.427 . S
N221 C219 1.384 . S
H222 C228 0.930 . S
H223 C232 0.930 . S
H224 C237 0.929 . S
H225 C235 0.929 . S
H226 C230 0.929 . S
H227 C236 0.929 . S
C228 H222 0.930 . S
C228 C229 1.367 . S
C228 C236 1.378 . S
C229 C228 1.367 . S
C229 C237 1.433 . S
C230 H226 0.929 . S
C230 C232 1.378 . S
C230 C234 1.350 . S
C231 C234 1.463 . S
C231 C236 1.350 . S
C231 N239 1.427 . S
C232 H223 0.930 . S
C232 C230 1.378 . S
C232 C233 1.367 . S
C233 C232 1.367 . S
C233 C235 1.433 . S
C234 C230 1.350 . S
C234 C231 1.463 . S
C234 N238 1.427 . S
C235 H225 0.929 . S
C235 C233 1.433 . S
C235 N238 1.384 . S
C236 H227 0.929 . S
C236 C228 1.378 . S
C236 C231 1.350 . S
C237 H224 0.929 . S
C237 C229 1.433 . S
C237 N239 1.384 . S
N238 C234 1.427 . S
N238 C235 1.384 . S
N239 C231 1.427 . S
N239 C237 1.384 . S
H240 C246 0.930 . S
H241 C250 0.930 . S
H242 C255 0.929 . S
H243 C253 0.929 . S
H244 C248 0.929 . S
H245 C254 0.929 . S
C246 H240 0.930 . S
C246 C247 1.367 . S
C246 C254 1.378 . S
C247 C246 1.367 . S
C247 C255 1.433 . S
C248 H244 0.929 . S
C248 C250 1.378 . S
C248 C252 1.350 . S
C249 C252 1.463 . S
C249 C254 1.350 . S
C249 N257 1.427 . S
C250 H241 0.930 . S
C250 C248 1.378 . S
C250 C251 1.367 . S
C251 C250 1.367 . S
C251 C253 1.433 . S
C252 C248 1.350 . S
C252 C249 1.463 . S
C252 N256 1.427 . S
C253 H243 0.929 . S
C253 C251 1.433 . S
C253 N256 1.384 . S
C254 H245 0.929 . S
C254 C246 1.378 . S
C254 C249 1.350 . S
C255 H242 0.929 . S
C255 C247 1.433 . S
C255 N257 1.384 . S
N256 C252 1.427 . S
N256 C253 1.384 . S
N257 C249 1.427 . S
N257 C255 1.384 . S
H258 C264 0.930 . S
H259 C268 0.930 . S
H260 C273 0.929 . S
H261 C271 0.929 . S
H262 C266 0.929 . S
H263 C272 0.929 . S
C264 H258 0.930 . S
C264 C265 1.367 . S
C264 C272 1.378 . S
C265 C264 1.367 . S
C265 C273 1.433 . S
C266 H262 0.929 . S
C266 C268 1.378 . S
C266 C270 1.350 . S
C267 C270 1.463 . S
C267 C272 1.350 . S
C267 N275 1.427 . S
C268 H259 0.930 . S
C268 C266 1.378 . S
C268 C269 1.367 . S
C269 C268 1.367 . S
C269 C271 1.433 . S
C270 C266 1.350 . S
C270 C267 1.463 . S
C270 N274 1.427 . S
C271 H261 0.929 . S
C271 C269 1.433 . S
C271 N274 1.384 . S
C272 H263 0.929 . S
C272 C264 1.378 . S
C272 C267 1.350 . S
C273 H260 0.929 . S
C273 C265 1.433 . S
C273 N275 1.384 . S
N274 C270 1.427 . S
N274 C271 1.384 . S
N275 C267 1.427 . S
N275 C273 1.384 . S
H276 C282 0.930 . S
H277 C286 0.930 . S
H278 C291 0.929 . S
H279 C289 0.929 . S
H280 C284 0.929 . S
H281 C290 0.929 . S
C282 H276 0.930 . S
C282 C283 1.367 . S
C282 C290 1.378 . S
C283 C282 1.367 . S
C283 C291 1.433 . S
C284 H280 0.929 . S
C284 C286 1.378 . S
C284 C288 1.350 . S
C285 C288 1.463 . S
C285 C290 1.350 . S
C285 N293 1.427 . S
C286 H277 0.930 . S
C286 C284 1.378 . S
C286 C287 1.367 . S
C287 C286 1.367 . S
C287 C289 1.433 . S
C288 C284 1.350 . S
C288 C285 1.463 . S
C288 N292 1.427 . S
C289 H279 0.929 . S
C289 C287 1.433 . S
C289 N292 1.384 . S
C290 H281 0.929 . S
C290 C282 1.378 . S
C290 C285 1.350 . S
C291 H278 0.929 . S
C291 C283 1.433 . S
C291 N293 1.384 . S
N292 C288 1.427 . S
N292 C289 1.384 . S
N293 C285 1.427 . S
N293 C291 1.384 . S
H294 C300 0.930 . S
H295 C304 0.930 . S
H296 C309 0.929 . S
H297 C307 0.929 . S
H298 C302 0.929 . S
H299 C308 0.929 . S
C300 H294 0.930 . S
C300 C301 1.367 . S
C300 C308 1.378 . S
C301 C300 1.367 . S
C301 C309 1.433 . S
C302 H298 0.929 . S
C302 C304 1.378 . S
C302 C306 1.350 . S
C303 C306 1.463 1_655 S
C303 C308 1.350 . S
C303 N311 1.427 . S
C304 H295 0.930 . S
C304 C302 1.378 . S
C304 C305 1.367 . S
C305 C304 1.367 . S
C305 C307 1.433 . S
C306 C302 1.350 . S
C306 C303 1.463 1_455 S
C306 N310 1.427 . S
C307 H297 0.929 . S
C307 C305 1.433 . S
C307 N310 1.384 . S
C308 H299 0.929 . S
C308 C300 1.378 . S
C308 C303 1.350 . S
C309 H296 0.929 . S
C309 C301 1.433 . S
C309 N311 1.384 . S
N310 C306 1.427 . S
N310 C307 1.384 . S
N311 C303 1.427 . S
N311 C309 1.384 . S
H312 C318 0.930 . S
H313 C322 0.930 . S
H314 C327 0.929 . S
H315 C325 0.929 . S
H316 C320 0.929 1_545 S
H317 C326 0.929 1_565 S
C318 H312 0.930 . S
C318 C319 1.367 . S
C318 C326 1.378 . S
C319 C318 1.367 . S
C319 C327 1.433 . S
C320 H316 0.929 1_565 S
C320 C322 1.378 . S
C320 C324 1.350 . S
C321 C324 1.463 1_545 S
C321 C326 1.350 . S
C321 N329 1.427 . S
C322 H313 0.930 . S
C322 C320 1.378 . S
C322 C323 1.367 . S
C323 C322 1.367 . S
C323 C325 1.433 . S
C324 C320 1.350 . S
C324 C321 1.463 1_565 S
C324 N328 1.427 . S
C325 H315 0.929 . S
C325 C323 1.433 . S
C325 N328 1.384 . S
C326 H317 0.929 1_545 S
C326 C318 1.378 . S
C326 C321 1.350 . S
C327 H314 0.929 . S
C327 C319 1.433 . S
C327 N329 1.384 . S
N328 C324 1.427 . S
N328 C325 1.384 . S
N329 C321 1.427 . S
N329 C327 1.384 . S
H330 C336 0.930 . S
H331 C340 0.930 . S
H332 C345 0.929 . S
H333 C343 0.929 . S
H334 C338 0.929 . S
H335 C344 0.929 . S
C336 H330 0.930 . S
C336 C337 1.367 . S
C336 C344 1.378 . S
C337 C336 1.367 . S
C337 C345 1.433 . S
C338 H334 0.929 . S
C338 C340 1.378 . S
C338 C342 1.350 . S
C339 C342 1.463 . S
C339 C344 1.350 . S
C339 N347 1.427 . S
C340 H331 0.930 . S
C340 C338 1.378 . S
C340 C341 1.367 . S
C341 C340 1.367 . S
C341 C343 1.433 . S
C342 C338 1.350 . S
C342 C339 1.463 . S
C342 N346 1.427 . S
C343 H333 0.929 . S
C343 C341 1.433 . S
C343 N346 1.384 . S
C344 H335 0.929 . S
C344 C336 1.378 . S
C344 C339 1.350 . S
C345 H332 0.929 . S
C345 C337 1.433 . S
C345 N347 1.384 . S
N346 C342 1.427 . S
N346 C343 1.384 . S
N347 C339 1.427 . S
N347 C345 1.384 . S
H348 C354 0.930 . S
H349 C358 0.930 . S
H350 C363 0.929 . S
H351 C361 0.929 . S
H352 C356 0.929 1_655 S
H353 C362 0.929 1_455 S
C354 H348 0.930 . S
C354 C355 1.367 . S
C354 C362 1.378 . S
C355 C354 1.367 . S
C355 C363 1.433 . S
C356 H352 0.929 1_455 S
C356 C358 1.378 . S
C356 C360 1.350 . S
C357 C360 1.463 1_655 S
C357 C362 1.350 . S
C357 N365 1.427 . S
C358 H349 0.930 . S
C358 C356 1.378 . S
C358 C359 1.367 . S
C359 C358 1.367 . S
C359 C361 1.433 . S
C360 C356 1.350 . S
C360 C357 1.463 1_455 S
C360 N364 1.427 . S
C361 H351 0.929 . S
C361 C359 1.433 . S
C361 N364 1.384 . S
C362 H353 0.929 1_655 S
C362 C354 1.378 . S
C362 C357 1.350 . S
C363 H350 0.929 . S
C363 C355 1.433 . S
C363 N365 1.384 . S
N364 C360 1.427 . S
N364 C361 1.384 . S
N365 C357 1.427 . S
N365 C363 1.384 . S
H366 C372 0.930 . S
H367 C376 0.930 . S
H368 C381 0.929 . S
H369 C379 0.929 . S
H370 C374 0.929 . S
H371 C380 0.929 . S
C372 H366 0.930 . S
C372 C373 1.367 . S
C372 C380 1.378 1_554 S
C373 C372 1.367 . S
C373 C381 1.433 . S
C374 H370 0.929 . S
C374 C376 1.378 1_554 S
C374 C378 1.350 1_554 S
C375 C378 1.463 1_564 S
C375 C380 1.350 1_554 S
C375 N383 1.427 . S
C376 H367 0.930 . S
C376 C374 1.378 1_556 S
C376 C377 1.367 . S
C377 C376 1.367 . S
C377 C379 1.433 . S
C378 C374 1.350 1_556 S
C378 C375 1.463 1_546 S
C378 N382 1.427 . S
C379 H369 0.929 . S
C379 C377 1.433 . S
C379 N382 1.384 . S
C380 H371 0.929 . S
C380 C372 1.378 1_556 S
C380 C375 1.350 1_556 S
C381 H368 0.929 . S
C381 C373 1.433 . S
C381 N383 1.384 . S
N382 C378 1.427 . S
N382 C379 1.384 . S
N383 C375 1.427 . S
N383 C381 1.384 . S
H384 C390 0.930 . S
H385 C394 0.930 . S
H386 C399 0.929 . S
H387 C397 0.929 . S
H388 C392 0.929 . S
H389 C398 0.929 . S
C390 H384 0.930 . S
C390 C391 1.367 . S
C390 C398 1.378 . S
C391 C390 1.367 . S
C391 C399 1.433 . S
C392 H388 0.929 . S
C392 C394 1.378 . S
C392 C396 1.350 1_556 S
C393 C396 1.463 . S
C393 C398 1.350 . S
C393 N401 1.427 . S
C394 H385 0.930 . S
C394 C392 1.378 . S
C394 C395 1.367 . S
C395 C394 1.367 . S
C395 C397 1.433 . S
C396 C392 1.350 1_554 S
C396 C393 1.463 . S
C396 N400 1.427 . S
C397 H387 0.929 . S
C397 C395 1.433 . S
C397 N400 1.384 1_556 S
C398 H389 0.929 . S
C398 C390 1.378 . S
C398 C393 1.350 . S
C399 H386 0.929 . S
C399 C391 1.433 . S
C399 N401 1.384 . S
N400 C396 1.427 . S
N400 C397 1.384 1_554 S
N401 C393 1.427 . S
N401 C399 1.384 . S
H402 C408 0.930 . S
H403 C412 0.930 . S
H404 C417 0.929 . S
H405 C415 0.929 . S
H406 C410 0.929 . S
H407 C416 0.929 . S
C408 H402 0.930 . S
C408 C409 1.367 . S
C408 C416 1.378 . S
C409 C408 1.367 . S
C409 C417 1.433 . S
C410 H406 0.929 . S
C410 C412 1.378 . S
C410 C414 1.350 1_455 S
C411 C414 1.463 . S
C411 C416 1.350 . S
C411 N419 1.427 . S
C412 H403 0.930 . S
C412 C410 1.378 . S
C412 C413 1.367 . S
C413 C412 1.367 . S
C413 C415 1.433 . S
C414 C410 1.350 1_655 S
C414 C411 1.463 . S
C414 N418 1.427 . S
C415 H405 0.929 . S
C415 C413 1.433 . S
C415 N418 1.384 1_455 S
C416 H407 0.929 . S
C416 C408 1.378 . S
C416 C411 1.350 . S
C417 H404 0.929 . S
C417 C409 1.433 . S
C417 N419 1.384 . S
N418 C414 1.427 . S
N418 C415 1.384 1_655 S
N419 C411 1.427 . S
N419 C417 1.384 . S
H420 C426 0.930 1_565 S
H421 C430 0.930 . S
H422 C435 0.929 . S
H423 C433 0.929 . S
H424 C428 0.929 1_545 S
H425 C434 0.929 . S
C426 H420 0.930 1_545 S
C426 C427 1.367 . S
C426 C434 1.378 1_545 S
C427 C426 1.367 . S
C427 C435 1.433 . S
C428 H424 0.929 1_565 S
C428 C430 1.378 . S
C428 C432 1.350 . S
C429 C432 1.463 . S
C429 C434 1.350 . S
C429 N437 1.427 1_565 S
C430 H421 0.930 . S
C430 C428 1.378 . S
C430 C431 1.367 . S
C431 C430 1.367 . S
C431 C433 1.433 . S
C432 C428 1.350 . S
C432 C429 1.463 . S
C432 N436 1.427 . S
C433 H423 0.929 . S
C433 C431 1.433 . S
C433 N436 1.384 . S
C434 H425 0.929 . S
C434 C426 1.378 1_565 S
C434 C429 1.350 . S
C435 H422 0.929 . S
C435 C427 1.433 . S
C435 N437 1.384 . S
N436 C432 1.427 . S
N436 C433 1.384 . S
N437 C429 1.427 1_545 S
N437 C435 1.384 . S
H438 C444 0.930 . S
H439 C448 0.930 . S
H440 C453 0.929 . S
H441 C451 0.929 . S
H442 C446 0.929 . S
H443 C452 0.929 . S
C444 H438 0.930 . S
C444 C445 1.367 . S
C444 C452 1.378 . S
C445 C444 1.367 . S
C445 C453 1.433 . S
C446 H442 0.929 . S
C446 C448 1.378 . S
C446 C450 1.350 . S
C447 C450 1.463 . S
C447 C452 1.350 . S
C447 N455 1.427 . S
C448 H439 0.930 . S
C448 C446 1.378 . S
C448 C449 1.367 . S
C449 C448 1.367 . S
C449 C451 1.433 . S
C450 C446 1.350 . S
C450 C447 1.463 . S
C450 N454 1.427 . S
C451 H441 0.929 . S
C451 C449 1.433 . S
C451 N454 1.384 . S
C452 H443 0.929 . S
C452 C444 1.378 . S
C452 C447 1.350 . S
C453 H440 0.929 . S
C453 C445 1.433 . S
C453 N455 1.384 . S
N454 C450 1.427 . S
N454 C451 1.384 . S
N455 C447 1.427 . S
N455 C453 1.384 . S
H456 C462 0.930 . S
H457 C466 0.930 . S
H458 C471 0.929 . S
H459 C469 0.929 . S
H460 C464 0.929 . S
H461 C470 0.929 . S
C462 H456 0.930 . S
C462 C463 1.367 . S
C462 C470 1.378 . S
C463 C462 1.367 . S
C463 C471 1.433 . S
C464 H460 0.929 . S
C464 C466 1.378 1_455 S
C464 C468 1.350 . S
C465 C468 1.463 . S
C465 C470 1.350 . S
C465 N473 1.427 . S
C466 H457 0.930 . S
C466 C464 1.378 1_655 S
C466 C467 1.367 . S
C467 C466 1.367 . S
C467 C469 1.433 . S
C468 C464 1.350 . S
C468 C465 1.463 . S
C468 N472 1.427 1_455 S
C469 H459 0.929 . S
C469 C467 1.433 . S
C469 N472 1.384 . S
C470 H461 0.929 . S
C470 C462 1.378 . S
C470 C465 1.350 . S
C471 H458 0.929 . S
C471 C463 1.433 . S
C471 N473 1.384 . S
N472 C468 1.427 1_655 S
N472 C469 1.384 . S
N473 C465 1.427 . S
N473 C471 1.384 . S
H474 C480 0.930 . S
H475 C484 0.930 . S
H476 C489 0.929 . S
H477 C487 0.929 1_545 S
H478 C482 0.929 . S
H479 C488 0.929 . S
C480 H474 0.930 . S
C480 C481 1.367 . S
C480 C488 1.378 . S
C481 C480 1.367 . S
C481 C489 1.433 . S
C482 H478 0.929 . S
C482 C484 1.378 . S
C482 C486 1.350 1_565 S
C483 C486 1.463 . S
C483 C488 1.350 . S
C483 N491 1.427 . S
C484 H475 0.930 . S
C484 C482 1.378 . S
C484 C485 1.367 . S
C485 C484 1.367 . S
C485 C487 1.433 . S
C486 C482 1.350 1_545 S
C486 C483 1.463 . S
C486 N490 1.427 . S
C487 H477 0.929 1_565 S
C487 C485 1.433 . S
C487 N490 1.384 1_565 S
C488 H479 0.929 . S
C488 C480 1.378 . S
C488 C483 1.350 . S
C489 H476 0.929 . S
C489 C481 1.433 . S
C489 N491 1.384 . S
N490 C486 1.427 . S
N490 C487 1.384 1_545 S
N491 C483 1.427 . S
N491 C489 1.384 . S
H492 C498 0.930 . S
H493 C502 0.930 . S
H494 C507 0.929 . S
H495 C505 0.929 . S
H496 C500 0.929 . S
H497 C506 0.929 . S
C498 H492 0.930 . S
C498 C499 1.367 . S
C498 C506 1.378 . S
C499 C498 1.367 . S
C499 C507 1.433 . S
C500 H496 0.929 . S
C500 C502 1.378 . S
C500 C504 1.350 . S
C501 C504 1.463 . S
C501 C506 1.350 . S
C501 N509 1.427 . S
C502 H493 0.930 . S
C502 C500 1.378 . S
C502 C503 1.367 . S
C503 C502 1.367 . S
C503 C505 1.433 . S
C504 C500 1.350 . S
C504 C501 1.463 . S
C504 N508 1.427 . S
C505 H495 0.929 . S
C505 C503 1.433 . S
C505 N508 1.384 . S
C506 H497 0.929 . S
C506 C498 1.378 . S
C506 C501 1.350 . S
C507 H494 0.929 . S
C507 C499 1.433 . S
C507 N509 1.384 . S
N508 C504 1.427 . S
N508 C505 1.384 . S
N509 C501 1.427 . S
N509 C507 1.384 . S
H510 C516 0.930 . S
H511 C520 0.930 . S
H512 C525 0.929 . S
H513 C523 0.929 . S
H514 C518 0.929 1_655 S
H515 C524 0.929 . S
C516 H510 0.930 . S
C516 C517 1.367 . S
C516 C524 1.378 . S
C517 C516 1.367 . S
C517 C525 1.433 . S
C518 H514 0.929 1_455 S
C518 C520 1.378 . S
C518 C522 1.350 1_454 S
C519 C522 1.463 . S
C519 C524 1.350 . S
C519 N527 1.427 . S
C520 H511 0.930 . S
C520 C518 1.378 . S
C520 C521 1.367 . S
C521 C520 1.367 . S
C521 C523 1.433 . S
C522 C518 1.350 1_656 S
C522 C519 1.463 . S
C522 N526 1.427 1_656 S
C523 H513 0.929 . S
C523 C521 1.433 . S
C523 N526 1.384 . S
C524 H515 0.929 . S
C524 C516 1.378 . S
C524 C519 1.350 . S
C525 H512 0.929 . S
C525 C517 1.433 . S
C525 N527 1.384 . S
N526 C522 1.427 1_454 S
N526 C523 1.384 . S
N527 C519 1.427 . S
N527 C525 1.384 . S
H528 C534 0.930 . S
H529 C538 0.930 . S
H530 C543 0.929 . S
H531 C541 0.929 . S
H532 C536 0.929 . S
H533 C542 0.929 1_545 S
C534 H528 0.930 . S
C534 C535 1.367 . S
C534 C542 1.378 . S
C535 C534 1.367 . S
C535 C543 1.433 . S
C536 H532 0.929 . S
C536 C538 1.378 1_565 S
C536 C540 1.350 . S
C537 C540 1.463 . S
C537 C542 1.350 . S
C537 N545 1.427 . S
C538 H529 0.930 . S
C538 C536 1.378 1_545 S
C538 C539 1.367 . S
C539 C538 1.367 . S
C539 C541 1.433 . S
C540 C536 1.350 . S
C540 C537 1.463 . S
C540 N544 1.427 1_565 S
C541 H531 0.929 . S
C541 C539 1.433 . S
C541 N544 1.384 . S
C542 H533 0.929 1_565 S
C542 C534 1.378 . S
C542 C537 1.350 . S
C543 H530 0.929 . S
C543 C535 1.433 . S
C543 N545 1.384 . S
N544 C540 1.427 1_545 S
N544 C541 1.384 . S
N545 C537 1.427 . S
N545 C543 1.384 . S
H546 C552 0.930 . S
H547 C556 0.930 . S
H548 C561 0.929 . S
H549 C559 0.929 . S
H550 C554 0.929 . S
H551 C560 0.929 . S
C552 H546 0.930 . S
C552 C553 1.367 . S
C552 C560 1.378 . S
C553 C552 1.367 . S
C553 C561 1.433 . S
C554 H550 0.929 . S
C554 C556 1.378 . S
C554 C558 1.350 . S
C555 C558 1.463 . S
C555 C560 1.350 . S
C555 N563 1.427 . S
C556 H547 0.930 . S
C556 C554 1.378 . S
C556 C557 1.367 . S
C557 C556 1.367 . S
C557 C559 1.433 . S
C558 C554 1.350 . S
C558 C555 1.463 . S
C558 N562 1.427 . S
C559 H549 0.929 . S
C559 C557 1.433 . S
C559 N562 1.384 . S
C560 H551 0.929 . S
C560 C552 1.378 . S
C560 C555 1.350 . S
C561 H548 0.929 . S
C561 C553 1.433 . S
C561 N563 1.384 . S
N562 C558 1.427 . S
N562 C559 1.384 . S
N563 C555 1.427 . S
N563 C561 1.384 . S
H564 C570 0.930 . S
H565 C574 0.930 . S
H566 C579 0.929 . S
H567 C577 0.929 . S
H568 C572 0.929 1_455 S
H569 C578 0.929 . S
C570 H564 0.930 . S
C570 C571 1.367 . S
C570 C578 1.378 . S
C571 C570 1.367 . S
C571 C579 1.433 . S
C572 H568 0.929 1_655 S
C572 C574 1.378 . S
C572 C576 1.350 1_655 S
C573 C576 1.463 . S
C573 C578 1.350 . S
C573 N581 1.427 . S
C574 H565 0.930 . S
C574 C572 1.378 . S
C574 C575 1.367 . S
C575 C574 1.367 . S
C575 C577 1.433 . S
C576 C572 1.350 1_455 S
C576 C573 1.463 . S
C576 N580 1.427 1_455 S
C577 H567 0.929 . S
C577 C575 1.433 . S
C577 N580 1.384 . S
C578 H569 0.929 . S
C578 C570 1.378 . S
C578 C573 1.350 . S
C579 H566 0.929 . S
C579 C571 1.433 . S
C579 N581 1.384 . S
N580 C576 1.427 1_655 S
N580 C577 1.384 . S
N581 C573 1.427 . S
N581 C579 1.384 . S
H582 C588 0.930 . S
H583 C592 0.930 . S
H584 C597 0.929 . S
H585 C595 0.929 . S
H586 C590 0.929 . S
H587 C596 0.929 . S
C588 H582 0.930 . S
C588 C589 1.367 . S
C588 C596 1.378 1_565 S
C589 C588 1.367 . S
C589 C597 1.433 . S
C590 H586 0.929 . S
C590 C592 1.378 . S
C590 C594 1.350 . S
C591 C594 1.463 . S
C591 C596 1.350 . S
C591 N599 1.427 1_545 S
C592 H583 0.930 . S
C592 C590 1.378 . S
C592 C593 1.367 . S
C593 C592 1.367 . S
C593 C595 1.433 . S
C594 C590 1.350 . S
C594 C591 1.463 . S
C594 N598 1.427 . S
C595 H585 0.929 . S
C595 C593 1.433 . S
C595 N598 1.384 . S
C596 H587 0.929 . S
C596 C588 1.378 1_545 S
C596 C591 1.350 . S
C597 H584 0.929 . S
C597 C589 1.433 . S
C597 N599 1.384 . S
N598 C594 1.427 . S
N598 C595 1.384 . S
N599 C591 1.427 1_565 S
N599 C597 1.384 . S
C175 C123 1.239 . S
C179 C11 1.244 . S
C193 C25 1.244 . S
C197 C137 1.239 . S
C211 C39 1.246 . S
C215 C151 1.244 . S
C229 C53 1.243 . S
C233 C165 1.246 . S
C247 C95 1.244 . S
C251 C67 1.239 . S
C265 C81 1.246 . S
C269 C109 1.243 . S
C283 C134 0.829 . S
C287 C8 0.820 . S
C301 C22 0.818 . S
C305 C148 0.830 . S
C319 C162 0.820 . S
C323 C36 0.836 . S
C337 C50 0.830 . S
C341 C92 0.825 . S
C355 C106 0.837 . S
C359 C64 0.818 . S
C373 C120 0.825 . S
C377 C78 0.824 . S
C391 C7 1.279 . S
C395 C83 1.210 . S
C409 C21 1.284 . S
C413 C13 1.193 . S
C427 C27 1.209 . S
C431 C35 1.279 . S
C445 C49 1.285 . S
C449 C41 1.194 . S
C463 C63 1.279 . S
C467 C55 1.200 . S
C481 C77 1.287 . S
C485 C69 1.200 . S
C499 C91 1.287 . S
C503 C111 1.201 . S
C517 C105 1.281 . S
C521 C125 1.194 . S
C535 C119 1.279 . S
C539 C139 1.205 . S
C553 C133 1.280 . S
C557 C153 1.197 . S
C571 C147 1.282 . S
C575 C167 1.194 . S
C589 C97 1.199 . S
C593 C161 1.279 . S
