# Generated by pormake.
# Topology wio, (6)-cn, num edge types: 1
# Building blocks:
#     Node 0, Type 0, BuildingBlock: MIDCAF_clean_sbu_0, # of connection points: 6
#     Node 1, Type 0, BuildingBlock: MIDCAF_clean_sbu_0, # of connection points: 6
#     Node 2, Type 0, BuildingBlock: MIDCAF_clean_sbu_0, # of connection points: 6
#     Node 3, Type 0, BuildingBlock: MIDCAF_clean_sbu_0, # of connection points: 6
#     Node 4, Type 0, BuildingBlock: MIDCAF_clean_sbu_0, # of connection points: 6
#     Node 5, Type 0, BuildingBlock: MIDCAF_clean_sbu_0, # of connection points: 6
#     Node 6, Type 0, BuildingBlock: MIDCAF_clean_sbu_0, # of connection points: 6
#     Node 7, Type 0, BuildingBlock: MIDCAF_clean_sbu_0, # of connection points: 6
#     Node 8, Type 0, BuildingBlock: MIDCAF_clean_sbu_0, # of connection points: 6
#     Node 9, Type 0, BuildingBlock: MIDCAF_clean_sbu_0, # of connection points: 6
#     Node 10, Type 0, BuildingBlock: MIDCAF_clean_sbu_0, # of connection points: 6
#     Node 11, Type 0, BuildingBlock: MIDCAF_clean_sbu_0, # of connection points: 6
#     Node 12, Type 0, BuildingBlock: MIDCAF_clean_sbu_0, # of connection points: 6
#     Node 13, Type 0, BuildingBlock: MIDCAF_clean_sbu_0, # of connection points: 6
#     Node 14, Type 0, BuildingBlock: MIDCAF_clean_sbu_0, # of connection points: 6
#     Node 15, Type 0, BuildingBlock: MIDCAF_clean_sbu_0, # of connection points: 6
#     Node 16, Type 0, BuildingBlock: MIDCAF_clean_sbu_0, # of connection points: 6
#     Node 17, Type 0, BuildingBlock: MIDCAF_clean_sbu_0, # of connection points: 6
#     Node 18, Type 0, BuildingBlock: MIDCAF_clean_sbu_0, # of connection points: 6
#     Node 19, Type 0, BuildingBlock: MIDCAF_clean_sbu_0, # of connection points: 6
#     Node 20, Type 0, BuildingBlock: MIDCAF_clean_sbu_0, # of connection points: 6
#     Node 21, Type 0, BuildingBlock: MIDCAF_clean_sbu_0, # of connection points: 6
#     Node 22, Type 0, BuildingBlock: MIDCAF_clean_sbu_0, # of connection points: 6
#     Node 23, Type 0, BuildingBlock: MIDCAF_clean_sbu_0, # of connection points: 6
#     Node 24, Type 0, BuildingBlock: MIDCAF_clean_sbu_0, # of connection points: 6
#     Node 25, Type 0, BuildingBlock: MIDCAF_clean_sbu_0, # of connection points: 6
#     Node 26, Type 0, BuildingBlock: MIDCAF_clean_sbu_0, # of connection points: 6
#     Node 27, Type 0, BuildingBlock: MIDCAF_clean_sbu_0, # of connection points: 6
#     Node 28, Type 0, BuildingBlock: MIDCAF_clean_sbu_0, # of connection points: 6
#     Node 29, Type 0, BuildingBlock: MIDCAF_clean_sbu_0, # of connection points: 6
#     Node 30, Type 0, BuildingBlock: MIDCAF_clean_sbu_0, # of connection points: 6
#     Node 31, Type 0, BuildingBlock: MIDCAF_clean_sbu_0, # of connection points: 6
#     Edge 32, Type (0, 0), None
#     Edge 33, Type (0, 0), None
#     Edge 34, Type (0, 0), None
#     Edge 35, Type (0, 0), None
#     Edge 36, Type (0, 0), None
#     Edge 37, Type (0, 0), None
#     Edge 38, Type (0, 0), None
#     Edge 39, Type (0, 0), None
#     Edge 40, Type (0, 0), None
#     Edge 41, Type (0, 0), None
#     Edge 42, Type (0, 0), None
#     Edge 43, Type (0, 0), None
#     Edge 44, Type (0, 0), None
#     Edge 45, Type (0, 0), None
#     Edge 46, Type (0, 0), None
#     Edge 47, Type (0, 0), None
#     Edge 48, Type (0, 0), None
#     Edge 49, Type (0, 0), None
#     Edge 50, Type (0, 0), None
#     Edge 51, Type (0, 0), None
#     Edge 52, Type (0, 0), None
#     Edge 53, Type (0, 0), None
#     Edge 54, Type (0, 0), None
#     Edge 55, Type (0, 0), None
#     Edge 56, Type (0, 0), None
#     Edge 57, Type (0, 0), None
#     Edge 58, Type (0, 0), None
#     Edge 59, Type (0, 0), None
#     Edge 60, Type (0, 0), None
#     Edge 61, Type (0, 0), None
#     Edge 62, Type (0, 0), None
#     Edge 63, Type (0, 0), None
#     Edge 64, Type (0, 0), None
#     Edge 65, Type (0, 0), None
#     Edge 66, Type (0, 0), None
#     Edge 67, Type (0, 0), None
#     Edge 68, Type (0, 0), None
#     Edge 69, Type (0, 0), None
#     Edge 70, Type (0, 0), None
#     Edge 71, Type (0, 0), None
#     Edge 72, Type (0, 0), None
#     Edge 73, Type (0, 0), None
#     Edge 74, Type (0, 0), None
#     Edge 75, Type (0, 0), None
#     Edge 76, Type (0, 0), None
#     Edge 77, Type (0, 0), None
#     Edge 78, Type (0, 0), None
#     Edge 79, Type (0, 0), None
#     Edge 80, Type (0, 0), None
#     Edge 81, Type (0, 0), None
#     Edge 82, Type (0, 0), None
#     Edge 83, Type (0, 0), None
#     Edge 84, Type (0, 0), None
#     Edge 85, Type (0, 0), None
#     Edge 86, Type (0, 0), None
#     Edge 87, Type (0, 0), None
#     Edge 88, Type (0, 0), None
#     Edge 89, Type (0, 0), None
#     Edge 90, Type (0, 0), None
#     Edge 91, Type (0, 0), None
#     Edge 92, Type (0, 0), None
#     Edge 93, Type (0, 0), None
#     Edge 94, Type (0, 0), None
#     Edge 95, Type (0, 0), None
#     Edge 96, Type (0, 0), None
#     Edge 97, Type (0, 0), None
#     Edge 98, Type (0, 0), None
#     Edge 99, Type (0, 0), None
#     Edge 100, Type (0, 0), None
#     Edge 101, Type (0, 0), None
#     Edge 102, Type (0, 0), None
#     Edge 103, Type (0, 0), None
#     Edge 104, Type (0, 0), None
#     Edge 105, Type (0, 0), None
#     Edge 106, Type (0, 0), None
#     Edge 107, Type (0, 0), None
#     Edge 108, Type (0, 0), None
#     Edge 109, Type (0, 0), None
#     Edge 110, Type (0, 0), None
#     Edge 111, Type (0, 0), None
#     Edge 112, Type (0, 0), None
#     Edge 113, Type (0, 0), None
#     Edge 114, Type (0, 0), None
#     Edge 115, Type (0, 0), None
#     Edge 116, Type (0, 0), None
#     Edge 117, Type (0, 0), None
#     Edge 118, Type (0, 0), None
#     Edge 119, Type (0, 0), None
#     Edge 120, Type (0, 0), None
#     Edge 121, Type (0, 0), None
#     Edge 122, Type (0, 0), None
#     Edge 123, Type (0, 0), None
#     Edge 124, Type (0, 0), None
#     Edge 125, Type (0, 0), None
#     Edge 126, Type (0, 0), None
#     Edge 127, Type (0, 0), None
# Relax obj value: 0.421
# Max RMSD: 0.265
# Mean RMSD: 0.244
data_MOF--net-wio--node1-MIDCAF_clean_sbu_0--edge1-none
_symmetry_space_group_name_H-M    P1
_symmetry_Int_Tables_number       1
_symmetry_cell_setting            triclinic
loop_
_symmetry_equiv_pos_as_xyz
'x, y, z'
_cell_length_a     25.78965
_cell_length_b     25.789514
_cell_length_c     16.421439
_cell_angle_alpha  89.999818
_cell_angle_beta   90.001424
_cell_angle_gamma 90.000853
loop_
_atom_site_label
_atom_site_type_symbol
_atom_site_fract_x
_atom_site_fract_y
_atom_site_fract_z
_atom_type_partial_charge
Zn0 Zn 0.03603 0.02137 0.17253 0.0
Zn1 Zn 0.19595 0.12969 0.44011 0.0
Zn2 Zn 0.12694 0.09839 0.33489 0.0
C3 C 0.24804 0.09456 0.30483 0.0
C4 C 0.13855 0.04173 0.50089 0.0
O5 O 0.05774 0.07594 0.40679 0.0
O6 O 0.02536 0.04602 0.29205 0.0
C7 C 0.07052 0.11552 0.14783 0.0
O8 O 0.20435 0.07111 0.29846 0.0
O9 O 0.2536 0.1302 0.35672 0.0
O10 O 0.18253 0.06299 0.50629 0.0
O11 O 0.10585 0.05792 0.44776 0.0
O12 O 0.03882 0.08777 0.10786 0.0
O13 O 0.08409 0.10082 0.21934 0.0
O14 O 0.13249 0.0516 0.22874 0.0
O15 O 0.10806 -0.01331 0.15592 0.0
C16 C 0.13367 0.00254 0.21626 0.0
O17 O 0.12072 0.1794 0.334 0.0
O18 O 0.15655 0.1974 0.45251 0.0
C19 C 0.01829 0.06097 0.36452 0.0
C20 C 0.13055 0.2114 0.39083 0.0
Zn21 Zn 0.09033 0.94594 0.69009 0.0
Zn22 Zn 0.19862 0.78598 0.42255 0.0
Zn23 Zn 0.12163 0.87693 0.58489 0.0
C24 C 0.21747 0.88363 0.46625 0.0
C25 C 0.10448 0.82051 0.39782 0.0
O26 O 0.04061 0.8707 0.58399 0.0
O27 O 0.02262 0.90653 0.7025 0.0
C28 C 0.17827 0.88856 0.7509 0.0
O29 O 0.16841 0.88244 0.47873 0.0
O30 O 0.23332 0.85801 0.40593 0.0
O31 O 0.13222 0.7888 0.35787 0.0
O32 O 0.11917 0.83409 0.46933 0.0
O33 O 0.15701 0.93254 0.75628 0.0
O34 O 0.16209 0.85585 0.69776 0.0
O35 O 0.1489 0.95434 0.54847 0.0
O36 O 0.08981 0.0036 0.60671 0.0
C37 C 0.12545 -0.00197 0.55482 0.0
O38 O 0.14406 0.80774 0.65686 0.0
O39 O 0.17398 0.77543 0.5421 0.0
C40 C 0.00862 0.88052 0.64083 0.0
C41 C 0.15903 0.7683 0.61455 0.0
Zn42 Zn 0.27405 0.84032 0.94013 0.0
Zn43 Zn 0.43399 0.94863 0.67255 0.0
Zn44 Zn 0.34307 0.87163 0.8349 0.0
C45 C 0.33636 0.96747 0.71625 0.0
C46 C 0.39949 0.85448 0.64784 0.0
O47 O 0.34929 0.79061 0.83402 0.0
O48 O 0.31345 0.77261 0.95252 0.0
C49 C 0.33145 0.92828 1.00092 0.0
O50 O 0.33755 0.91841 0.72874 0.0
O51 O 0.36197 0.98333 0.65593 0.0
O52 O 0.43119 0.88223 0.60788 0.0
O53 O 0.38591 0.86917 0.71935 0.0
O54 O 0.28747 0.90701 0.00632 0.0
O55 O 0.36415 0.91209 0.94777 0.0
O56 O 0.26566 0.89891 0.79848 0.0
O57 O 0.2164 0.83982 0.85673 0.0
C58 C 0.22197 0.87546 0.80484 0.0
O59 O 0.41226 0.89408 0.90683 0.0
O60 O 0.4446 0.92399 0.79207 0.0
C61 C 0.33946 0.75861 0.89085 0.0
C62 C 0.4517 0.90904 0.86453 0.0
Zn63 Zn 0.37968 0.02407 0.19012 0.0
Zn64 Zn 0.27137 0.18399 0.92255 0.0
Zn65 Zn 0.34838 0.09308 0.0849 0.0
C66 C 0.25254 0.08635 0.96626 0.0
C67 C 0.36551 0.14949 0.89782 0.0
O68 O 0.4294 0.09931 0.084 0.0
O69 O 0.44739 0.06347 0.20251 0.0
C70 C 0.29173 0.08146 0.2509 0.0
O71 O 0.3016 0.08752 0.97874 0.0
O72 O 0.23669 0.11196 0.90592 0.0
O73 O 0.33776 0.18119 0.85787 0.0
O74 O 0.35083 0.13591 0.96934 0.0
O75 O 0.313 0.03748 0.2563 0.0
O76 O 0.30792 0.11416 0.19776 0.0
O77 O 0.32111 0.01567 0.04848 0.0
O78 O 0.38019 0.96641 0.10674 0.0
C79 C 0.34455 0.97197 0.05485 0.0
O80 O 0.32595 0.16227 0.15684 0.0
O81 O 0.29602 0.1946 0.04208 0.0
C82 C 0.46139 0.08948 0.14084 0.0
C83 C 0.31097 0.20171 0.11454 0.0
Zn84 Zn 0.19597 0.84029 0.06181 0.0
Zn85 Zn 0.03619 0.94855 0.3295 0.0
Zn86 Zn 0.12695 0.87151 0.16702 0.0
C87 C 0.13382 0.96731 0.28576 0.0
C88 C 0.07055 0.85438 0.35402 0.0
O89 O 0.1207 0.79051 0.16788 0.0
O90 O 0.15659 0.77255 0.04941 0.0
C91 C 0.13851 0.92823 0.00106 0.0
O92 O 0.13277 0.91826 0.27321 0.0
O93 O 0.10828 0.98312 0.34619 0.0
O94 O 0.03888 0.88212 0.39405 0.0
O95 O 0.08411 0.86907 0.28251 0.0
O96 O 0.18249 0.90697 0.99563 0.0
O97 O 0.10583 0.91202 0.05421 0.0
O98 O 0.20434 0.89878 0.20362 0.0
O99 O 0.25366 0.83982 0.14517 0.0
C100 C 0.24806 0.87539 0.19717 0.0
O101 O 0.05774 0.89403 0.09525 0.0
O102 O 0.02529 0.92394 0.21 0.0
C103 C 0.13054 0.75854 0.11104 0.0
C104 C 0.01827 0.90901 0.13749 0.0
Zn105 Zn 0.37972 0.94596 0.31182 0.0
Zn106 Zn 0.27146 0.78618 0.57948 0.0
Zn107 Zn 0.3485 0.87694 0.41702 0.0
C108 C 0.2527 0.88382 0.53575 0.0
C109 C 0.36562 0.82055 0.60404 0.0
O110 O 0.4295 0.87068 0.4179 0.0
O111 O 0.44745 0.90658 0.29942 0.0
C112 C 0.29177 0.88851 0.25108 0.0
O113 O 0.30175 0.88278 0.52321 0.0
O114 O 0.2369 0.85829 0.5962 0.0
O115 O 0.33788 0.78887 0.64405 0.0
O116 O 0.35094 0.83411 0.53252 0.0
O117 O 0.31303 0.9325 0.24565 0.0
O118 O 0.30799 0.85583 0.30421 0.0
O119 O 0.32123 0.95434 0.45362 0.0
O120 O 0.38019 0.00366 0.39517 0.0
C121 C 0.34462 -0.00194 0.44716 0.0
O122 O 0.32599 0.80773 0.34523 0.0
O123 O 0.29607 0.7753 0.45997 0.0
C124 C 0.46147 0.88052 0.36104 0.0
C125 C 0.31101 0.76827 0.38748 0.0
Zn126 Zn 0.27403 0.12972 0.56179 0.0
Zn127 Zn 0.43379 0.02145 0.8295 0.0
Zn128 Zn 0.34305 0.0985 0.66701 0.0
C129 C 0.33616 0.0027 0.78575 0.0
C130 C 0.39944 0.11562 0.85403 0.0
O131 O 0.3493 0.17951 0.66787 0.0
O132 O 0.3134 0.19746 0.5494 0.0
C133 C 0.3315 0.04177 0.50106 0.0
O134 O 0.33719 0.05175 0.77319 0.0
O135 O 0.36168 -0.01309 0.84621 0.0
O136 O 0.4311 0.08788 0.89406 0.0
O137 O 0.38588 0.10094 0.78251 0.0
O138 O 0.28751 0.06303 0.49562 0.0
O139 O 0.36418 0.05799 0.55421 0.0
O140 O 0.26566 0.07123 0.70361 0.0
O141 O 0.21634 0.13018 0.64514 0.0
C142 C 0.22194 0.09461 0.69715 0.0
O143 O 0.41227 0.07599 0.59524 0.0
O144 O 0.44469 0.04606 0.70999 0.0
C145 C 0.33945 0.21148 0.61102 0.0
C146 C 0.45172 0.061 0.6375 0.0
Zn147 Zn 0.09029 0.02404 0.81181 0.0
Zn148 Zn 0.19855 0.18382 0.0795 0.0
Zn149 Zn 0.12151 0.09306 0.91703 0.0
C150 C 0.21731 0.0862 0.03576 0.0
C151 C 0.10439 0.14945 0.10404 0.0
O152 O 0.04051 0.09932 0.91788 0.0
O153 O 0.02256 0.06343 0.79941 0.0
C154 C 0.17823 0.08149 0.75106 0.0
O155 O 0.16826 0.08725 0.02321 0.0
O156 O 0.23312 0.11173 0.09619 0.0
O157 O 0.13212 0.18112 0.14407 0.0
O158 O 0.11908 0.1359 0.03252 0.0
O159 O 0.15697 0.03751 0.74563 0.0
O160 O 0.16202 0.11418 0.80421 0.0
O161 O 0.14878 0.01566 0.95361 0.0
O162 O 0.08982 0.96634 0.89515 0.0
C163 C 0.12539 0.97194 0.94715 0.0
O164 O 0.14403 0.16227 0.84526 0.0
O165 O 0.17393 0.19474 0.96 0.0
C166 C 0.00854 0.08948 0.86103 0.0
C167 C 0.159 0.20174 0.88749 0.0
Zn168 Zn 0.86516 0.83687 0.54426 0.0
Zn169 Zn 0.84187 0.87099 0.81231 0.0
Zn170 Zn 0.84786 0.85133 0.68922 0.0
C171 C 0.86048 0.9583 0.75873 0.0
C172 C 0.91443 0.815 0.83194 0.0
O173 O 0.85988 0.76929 0.68268 0.0
O174 O 0.80703 0.78906 0.58407 0.0
C175 C 0.86822 0.93923 0.54103 0.0
O176 O 0.88156 0.92725 0.70673 0.0
O177 O 0.82577 0.9425 0.8063 0.0
O178 O 0.92351 0.86164 0.81892 0.0
O179 O 0.88344 0.79417 0.77948 0.0
O180 O 0.85081 0.90735 0.48926 0.0
O181 O 0.87623 0.92307 0.61459 0.0
O182 O 0.91835 0.89284 0.66406 0.0
O183 O 0.94186 0.82844 0.58429 0.0
C184 C 0.95456 0.86471 0.63263 0.0
O185 O 0.7654 0.86488 0.70729 0.0
O186 O 0.77573 0.82502 0.82299 0.0
C187 C 0.82303 0.75583 0.63511 0.0
C188 C 0.74516 0.84448 0.77064 0.0
Zn189 Zn 0.88311 0.11515 0.29424 0.0
Zn190 Zn 0.84902 0.09183 0.56227 0.0
Zn191 Zn 0.86867 0.09783 0.43919 0.0
C192 C 0.7617 0.11043 0.50873 0.0
C193 C 0.90501 0.16442 0.58189 0.0
O194 O 0.95071 0.10987 0.43268 0.0
O195 O 0.93097 0.05705 0.33397 0.0
C196 C 0.78075 0.11819 0.29104 0.0
O197 O 0.79275 0.13151 0.45672 0.0
O198 O 0.77751 0.07571 0.55629 0.0
O199 O 0.85836 0.17347 0.56889 0.0
O200 O 0.92583 0.13342 0.52943 0.0
O201 O 0.81262 0.10077 0.23926 0.0
O202 O 0.79692 0.1262 0.36458 0.0
O203 O 0.82715 0.16832 0.41405 0.0
O204 O 0.89153 0.19184 0.33427 0.0
C205 C 0.85527 0.20454 0.38264 0.0
O206 O 0.85514 0.01536 0.45728 0.0
O207 O 0.89502 0.02571 0.57297 0.0
C208 C 0.96418 0.07304 0.38505 0.0
C209 C 0.87555 -0.00486 0.52064 0.0
Zn210 Zn 0.62814 0.09901 0.31231 0.0
Zn211 Zn 0.60485 0.13313 0.04427 0.0
Zn212 Zn 0.62215 0.11867 0.18922 0.0
C213 C 0.51545 0.10529 0.13264 0.0
C214 C 0.60179 0.03077 0.04103 0.0
O215 O 0.70461 0.10512 0.2073 0.0
O216 O 0.69427 0.14498 0.323 0.0
C217 C 0.55557 0.15501 0.33194 0.0
O218 O 0.55166 0.07716 0.16407 0.0
O219 O 0.52815 0.14156 0.0843 0.0
O220 O 0.61919 0.06265 0.98926 0.0
O221 O 0.59378 0.04693 0.11459 0.0
O222 O 0.5465 0.10837 0.31892 0.0
O223 O 0.58657 0.17583 0.27948 0.0
O224 O 0.58845 0.04276 0.20673 0.0
O225 O 0.64424 0.0275 0.30631 0.0
C226 C 0.60952 0.0117 0.25873 0.0
O227 O 0.61015 0.20069 0.18261 0.0
O228 O 0.66299 0.18098 0.08395 0.0
C229 C 0.72484 0.12551 0.27066 0.0
C230 C 0.64697 0.21419 0.135 0.0
Zn231 Zn 0.62098 0.87818 0.06226 0.0
Zn232 Zn 0.5869 0.85486 0.79421 0.0
Zn233 Zn 0.60133 0.87218 0.93916 0.0
C234 C 0.61473 0.76547 0.88261 0.0
C235 C 0.68926 0.85183 0.79102 0.0
O236 O 0.61486 0.95465 0.95727 0.0
O237 O 0.57499 0.94429 0.07296 0.0
C238 C 0.56499 0.80559 0.08187 0.0
O239 O 0.64285 0.80169 0.91403 0.0
O240 O 0.57848 0.77816 0.83423 0.0
O241 O 0.65738 0.86923 0.73923 0.0
O242 O 0.67308 0.84381 0.86456 0.0
O243 O 0.61164 0.79654 0.06887 0.0
O244 O 0.54417 0.83659 0.02941 0.0
O245 O 0.67725 0.8385 0.9567 0.0
O246 O 0.69249 0.8943 0.05628 0.0
C247 C 0.7083 0.85958 0.00871 0.0
O248 O 0.51929 0.86015 0.93266 0.0
O249 O 0.539 0.91293 0.8339 0.0
C250 C 0.59446 0.97487 0.02063 0.0
C251 C 0.50582 0.89695 0.88502 0.0
Zn252 Zn 0.86506 0.13314 0.95749 0.0
Zn253 Zn 0.84188 0.09901 0.68943 0.0
Zn254 Zn 0.84781 0.11868 0.81254 0.0
C255 C 0.86049 0.01173 0.74297 0.0
C256 C 0.91442 0.15502 0.66995 0.0
O257 O 0.85983 0.20071 0.81922 0.0
O258 O 0.80689 0.18093 0.91769 0.0
C259 C 0.86816 0.03078 0.96071 0.0
O260 O 0.88153 0.04276 0.79504 0.0
O261 O 0.82578 0.0275 0.69538 0.0
O262 O 0.92354 0.10838 0.68286 0.0
O263 O 0.88338 0.17586 0.72232 0.0
O264 O 0.85074 0.06266 0.01248 0.0
O265 O 0.87617 0.04694 0.88715 0.0
O266 O 0.91828 0.07718 0.83772 0.0
O267 O 0.94177 0.14158 0.91749 0.0
C268 C 0.95449 0.10531 0.86916 0.0
O269 O 0.76537 0.1051 0.79446 0.0
O270 O 0.77572 0.14495 0.67876 0.0
C271 C 0.82297 0.21418 0.86675 0.0
C272 C 0.74515 0.12549 0.73111 0.0
Zn273 Zn 0.58689 0.11503 0.70753 0.0
Zn274 Zn 0.62098 0.09185 0.43947 0.0
Zn275 Zn 0.60133 0.09778 0.56257 0.0
C276 C 0.70827 0.11044 0.49299 0.0
C277 C 0.56499 0.16441 0.42 0.0
O278 O 0.5193 0.10981 0.56924 0.0
O279 O 0.53907 0.05688 0.66777 0.0
C280 C 0.68925 0.11813 0.71072 0.0
O281 O 0.67725 0.13149 0.54506 0.0
O282 O 0.69249 0.07572 0.44541 0.0
O283 O 0.61164 0.17351 0.4329 0.0
O284 O 0.54414 0.13336 0.47236 0.0
O285 O 0.65738 0.10071 0.7625 0.0
O286 O 0.67308 0.12614 0.63717 0.0
O287 O 0.64284 0.16826 0.58774 0.0
O288 O 0.57845 0.19174 0.66753 0.0
C289 C 0.61472 0.20447 0.61919 0.0
O290 O 0.61489 0.01534 0.54447 0.0
O291 O 0.57502 0.0257 0.42879 0.0
C292 C 0.50584 0.07296 0.61682 0.0
C293 C 0.59449 -0.00488 0.48112 0.0
Zn294 Zn 0.62812 0.87099 0.18942 0.0
Zn295 Zn 0.60496 0.83686 0.45749 0.0
Zn296 Zn 0.62219 0.85133 0.31253 0.0
C297 C 0.51552 0.8647 0.36917 0.0
C298 C 0.60185 0.93922 0.46071 0.0
O299 O 0.70463 0.86491 0.29445 0.0
O300 O 0.69428 0.82506 0.17875 0.0
C301 C 0.55558 0.81499 0.16993 0.0
O302 O 0.55172 0.89283 0.33772 0.0
O303 O 0.52824 0.82842 0.41749 0.0
O304 O 0.61926 0.90735 0.51249 0.0
O305 O 0.59384 0.92307 0.38715 0.0
O306 O 0.54646 0.86163 0.18285 0.0
O307 O 0.58662 0.79414 0.2223 0.0
O308 O 0.58847 0.92724 0.29504 0.0
O309 O 0.64423 0.9425 0.19538 0.0
C310 C 0.60951 0.95828 0.24297 0.0
O311 O 0.61018 0.7693 0.31922 0.0
O312 O 0.66314 0.7891 0.41765 0.0
C313 C 0.72486 0.84452 0.2311 0.0
C314 C 0.64706 0.75584 0.36673 0.0
Zn315 Zn 0.88311 0.85498 0.20752 0.0
Zn316 Zn 0.84902 0.87816 0.93946 0.0
Zn317 Zn 0.86867 0.87223 0.06257 0.0
C318 C 0.76173 0.85957 0.99297 0.0
C319 C 0.90502 0.8056 0.92 0.0
O320 O 0.9507 0.86019 0.06922 0.0
O321 O 0.93092 0.91312 0.16774 0.0
C322 C 0.78075 0.85188 0.21071 0.0
O323 O 0.79275 0.83852 0.04504 0.0
O324 O 0.77752 0.89429 0.94539 0.0
O325 O 0.85837 0.7965 0.93289 0.0
O326 O 0.92586 0.83665 0.97237 0.0
O327 O 0.81262 0.8693 0.26249 0.0
O328 O 0.79692 0.84387 0.13716 0.0
O329 O 0.82716 0.80176 0.08773 0.0
O330 O 0.89154 0.77826 0.16752 0.0
C331 C 0.85528 0.76554 0.11917 0.0
O332 O 0.85511 0.95467 0.04447 0.0
O333 O 0.89498 0.94431 0.92879 0.0
C334 C 0.96416 0.89704 0.11679 0.0
C335 C 0.87551 0.97488 0.98111 0.0
Zn336 Zn 0.53602 0.52138 0.67254 0.0
Zn337 Zn 0.69595 0.6297 0.94011 0.0
Zn338 Zn 0.62693 0.5984 0.83489 0.0
C339 C 0.74803 0.59457 0.80482 0.0
C340 C 0.63855 0.54174 1.00089 0.0
O341 O 0.55774 0.57595 0.90681 0.0
O342 O 0.52538 0.54603 0.79206 0.0
C343 C 0.57051 0.61552 0.64782 0.0
O344 O 0.70434 0.57113 0.79845 0.0
O345 O 0.7536 0.63021 0.85672 0.0
O346 O 0.68253 0.56301 0.0063 0.0
O347 O 0.60585 0.55793 0.94775 0.0
O348 O 0.53882 0.58777 0.60785 0.0
O349 O 0.58409 0.60083 0.71933 0.0
O350 O 0.63248 0.5516 0.72874 0.0
O351 O 0.60805 0.4867 0.65592 0.0
C352 C 0.63366 0.50255 0.71625 0.0
O353 O 0.62071 0.67942 0.834 0.0
O354 O 0.65656 0.69742 0.9525 0.0
C355 C 0.51829 0.56098 0.86453 0.0
C356 C 0.63054 0.71141 0.89083 0.0
Zn357 Zn 0.69865 0.28599 0.92255 0.0
Zn358 Zn 0.59033 0.44594 0.1901 0.0
Zn359 Zn 0.62162 0.37692 0.0849 0.0
C360 C 0.62545 0.49804 0.05482 0.0
C361 C 0.67827 0.38854 0.25089 0.0
O362 O 0.64405 0.30772 0.15695 0.0
O363 O 0.67399 0.27554 0.04213 0.0
C364 C 0.60449 0.32052 0.8978 0.0
O365 O 0.64889 0.45434 0.04845 0.0
O366 O 0.58982 0.50361 0.10672 0.0
O367 O 0.65701 0.43252 0.25628 0.0
O368 O 0.66208 0.35584 0.19776 0.0
O369 O 0.63225 0.28882 0.85785 0.0
O370 O 0.61917 0.33411 0.96931 0.0
O371 O 0.66841 0.3825 0.97873 0.0
O372 O 0.7333 0.35805 0.9059 0.0
C373 C 0.71747 0.38366 0.96624 0.0
O374 O 0.5406 0.37071 0.08399 0.0
O375 O 0.52261 0.40655 0.2025 0.0
C376 C 0.65904 0.26833 0.11456 0.0
C377 C 0.50861 0.38054 0.14082 0.0
Zn378 Zn 0.77405 0.3403 0.44012 0.0
Zn379 Zn 0.93403 0.44864 0.17258 0.0
Zn380 Zn 0.84307 0.37162 0.33492 0.0
C381 C 0.83637 0.46746 0.21625 0.0
C382 C 0.8995 0.35447 0.14784 0.0
O383 O 0.8493 0.2906 0.33402 0.0
O384 O 0.81344 0.27259 0.45251 0.0
C385 C 0.83144 0.42826 0.50092 0.0
O386 O 0.83756 0.4184 0.22875 0.0
O387 O 0.86199 0.48332 0.15593 0.0
O388 O 0.9312 0.38223 0.10791 0.0
O389 O 0.8859 0.36914 0.21935 0.0
O390 O 0.78746 0.40699 0.50633 0.0
O391 O 0.86414 0.41209 0.44778 0.0
O392 O 0.76566 0.39889 0.29847 0.0
O393 O 0.7164 0.3398 0.35672 0.0
C394 C 0.72197 0.37544 0.30482 0.0
O395 O 0.91226 0.39405 0.4069 0.0
O396 O 0.94451 0.42398 0.29212 0.0
C397 C 0.83946 0.2586 0.39085 0.0
C398 C 0.95167 0.40902 0.36456 0.0
Zn399 Zn 0.87968 0.52406 0.69013 0.0
Zn400 Zn 0.77136 0.68396 0.42252 0.0
Zn401 Zn 0.84838 0.59307 0.58488 0.0
C402 C 0.75254 0.58633 0.46626 0.0
C403 C 0.8655 0.64949 0.39783 0.0
O404 O 0.9294 0.59929 0.58399 0.0
O405 O 0.94739 0.56346 0.70251 0.0
C406 C 0.79173 0.58147 0.7509 0.0
O407 O 0.80159 0.58751 0.47873 0.0
O408 O 0.73668 0.61193 0.40592 0.0
O409 O 0.83775 0.68118 0.35785 0.0
O410 O 0.8508 0.63592 0.46934 0.0
O411 O 0.81299 0.53749 0.75631 0.0
O412 O 0.80792 0.61416 0.69775 0.0
O413 O 0.8211 0.51566 0.54847 0.0
O414 O 0.88017 0.4664 0.60676 0.0
C415 C 0.84454 0.47196 0.55485 0.0
O416 O 0.82593 0.66226 0.65677 0.0
O417 O 0.79601 0.69469 0.54203 0.0
C418 C 0.96139 0.58946 0.64083 0.0
C419 C 0.81097 0.70172 0.61451 0.0
Zn420 Zn 0.53619 0.44855 0.8295 0.0
Zn421 Zn 0.69597 0.34027 0.56181 0.0
Zn422 Zn 0.62694 0.37151 0.66703 0.0
C423 C 0.74806 0.3754 0.69715 0.0
C424 C 0.63851 0.42822 0.50106 0.0
O425 O 0.55773 0.39402 0.59526 0.0
O426 O 0.52527 0.42394 0.71 0.0
C427 C 0.57056 0.35439 0.85402 0.0
O428 O 0.70434 0.39878 0.70361 0.0
O429 O 0.75366 0.33982 0.64516 0.0
O430 O 0.68248 0.40695 0.49561 0.0
O431 O 0.60583 0.41202 0.55421 0.0
O432 O 0.53889 0.38212 0.89407 0.0
O433 O 0.58411 0.36908 0.78251 0.0
O434 O 0.63276 0.41826 0.77321 0.0
O435 O 0.60828 0.48313 0.84619 0.0
C436 C 0.63381 0.46732 0.78576 0.0
O437 O 0.62069 0.2905 0.66788 0.0
O438 O 0.6566 0.27253 0.54942 0.0
C439 C 0.51827 0.409 0.63749 0.0
C440 C 0.63054 0.25852 0.61104 0.0
Zn441 Zn 0.87971 0.44598 0.8118 0.0
Zn442 Zn 0.77146 0.28616 0.07947 0.0
Zn443 Zn 0.84849 0.37695 0.91702 0.0
C444 C 0.7527 0.38379 0.03575 0.0
C445 C 0.86563 0.32054 0.10403 0.0
O446 O 0.92949 0.3707 0.91789 0.0
O447 O 0.94745 0.40659 0.79941 0.0
C448 C 0.79177 0.38852 0.75106 0.0
O449 O 0.80175 0.38274 0.02321 0.0
O450 O 0.73689 0.35825 0.09618 0.0
O451 O 0.83789 0.28886 0.14403 0.0
O452 O 0.85095 0.33412 0.03251 0.0
O453 O 0.81302 0.4325 0.74563 0.0
O454 O 0.80798 0.35584 0.8042 0.0
O455 O 0.82122 0.45435 0.9536 0.0
O456 O 0.88018 0.50368 0.89515 0.0
C457 C 0.84461 0.49808 0.94714 0.0
O458 O 0.82599 0.30774 0.84519 0.0
O459 O 0.79608 0.27532 0.95996 0.0
C460 C 0.96146 0.38055 0.86104 0.0
C461 C 0.81101 0.2683 0.88746 0.0
Zn462 Zn 0.77403 0.62974 0.06179 0.0
Zn463 Zn 0.9338 0.52145 0.32948 0.0
Zn464 Zn 0.84306 0.59851 0.167 0.0
C465 C 0.83616 0.5027 0.28575 0.0
C466 C 0.89942 0.61561 0.35405 0.0
O467 O 0.84931 0.67951 0.16787 0.0
O468 O 0.81339 0.69748 0.04941 0.0
C469 C 0.83149 0.54179 0.00105 0.0
O470 O 0.83719 0.55175 0.27319 0.0
O471 O 0.86168 0.48691 0.34621 0.0
O472 O 0.9311 0.58787 0.39407 0.0
O473 O 0.88587 0.60094 0.28252 0.0
O474 O 0.78751 0.56305 0.9956 0.0
O475 O 0.86417 0.55799 0.0542 0.0
O476 O 0.76566 0.57124 0.20362 0.0
O477 O 0.71633 0.63018 0.14514 0.0
C478 C 0.72194 0.59462 0.19716 0.0
O479 O 0.91227 0.576 0.09519 0.0
O480 O 0.94463 0.54607 0.20996 0.0
C481 C 0.83945 0.71149 0.11103 0.0
C482 C 0.95171 0.56101 0.13748 0.0
Zn483 Zn 0.59029 0.52403 0.3118 0.0
Zn484 Zn 0.69855 0.68382 0.5795 0.0
Zn485 Zn 0.62151 0.59306 0.41703 0.0
C486 C 0.71731 0.58618 0.53576 0.0
C487 C 0.60439 0.64945 0.60404 0.0
O488 O 0.54051 0.59931 0.41789 0.0
O489 O 0.52255 0.56342 0.29941 0.0
C490 C 0.67823 0.5815 0.25106 0.0
O491 O 0.66826 0.58723 0.52322 0.0
O492 O 0.73313 0.61172 0.59619 0.0
O493 O 0.63213 0.68112 0.64408 0.0
O494 O 0.61908 0.63589 0.53253 0.0
O495 O 0.65697 0.53752 0.24562 0.0
O496 O 0.66202 0.61418 0.30421 0.0
O497 O 0.64877 0.51566 0.45362 0.0
O498 O 0.58983 0.46633 0.39513 0.0
C499 C 0.62539 0.47193 0.44715 0.0
O500 O 0.64401 0.66227 0.34525 0.0
O501 O 0.67394 0.69473 0.46 0.0
C502 C 0.50854 0.58946 0.36103 0.0
C503 C 0.659 0.70173 0.38749 0.0
Zn504 Zn 0.34186 0.37099 0.31229 0.0
Zn505 Zn 0.36517 0.33689 0.04422 0.0
Zn506 Zn 0.34785 0.35133 0.1892 0.0
C507 C 0.45456 0.36473 0.13262 0.0
C508 C 0.36821 0.43925 0.04102 0.0
O509 O 0.26539 0.36487 0.20728 0.0
O510 O 0.27573 0.32501 0.32298 0.0
C511 C 0.41443 0.315 0.33192 0.0
O512 O 0.41834 0.39285 0.16405 0.0
O513 O 0.44186 0.32846 0.08426 0.0
O514 O 0.3508 0.40737 0.98924 0.0
O515 O 0.37622 0.42308 0.11457 0.0
O516 O 0.42349 0.36164 0.31891 0.0
O517 O 0.38344 0.29417 0.27946 0.0
O518 O 0.38155 0.42725 0.20672 0.0
O519 O 0.32575 0.4425 0.30629 0.0
C520 C 0.36046 0.4583 0.25872 0.0
O521 O 0.35987 0.2693 0.18267 0.0
O522 O 0.30706 0.28902 0.08394 0.0
C523 C 0.24515 0.34447 0.27063 0.0
C524 C 0.32306 0.25583 0.13503 0.0
Zn525 Zn 0.38311 0.61517 0.79423 0.0
Zn526 Zn 0.34902 0.59185 0.06228 0.0
Zn527 Zn 0.36867 0.59785 0.93919 0.0
C528 C 0.2617 0.61045 0.00872 0.0
C529 C 0.40501 0.66443 0.0819 0.0
O530 O 0.45071 0.60988 0.93268 0.0
O531 O 0.43098 0.55707 0.83395 0.0
C532 C 0.28075 0.61821 0.79103 0.0
O533 O 0.29275 0.63153 0.95672 0.0
O534 O 0.27751 0.57573 0.05629 0.0
O535 O 0.35836 0.67349 0.06889 0.0
O536 O 0.42583 0.63343 0.02944 0.0
O537 O 0.31263 0.6008 0.73924 0.0
O538 O 0.29692 0.62622 0.86458 0.0
O539 O 0.32715 0.66833 0.91406 0.0
O540 O 0.39153 0.69187 0.83427 0.0
C541 C 0.35527 0.70456 0.88263 0.0
O542 O 0.35513 0.51538 0.95728 0.0
O543 O 0.39501 0.52572 0.07297 0.0
C544 C 0.46418 0.57306 0.88504 0.0
C545 C 0.37554 0.49516 0.02064 0.0
Zn546 Zn 0.12815 0.59902 0.81229 0.0
Zn547 Zn 0.10483 0.63312 0.54423 0.0
Zn548 Zn 0.12215 0.61867 0.68919 0.0
C549 C 0.01544 0.60528 0.63262 0.0
C550 C 0.10179 0.53076 0.54102 0.0
O551 O 0.20462 0.60513 0.70728 0.0
O552 O 0.19427 0.645 0.82298 0.0
C553 C 0.05558 0.65501 0.83191 0.0
O554 O 0.05167 0.57716 0.66405 0.0
O555 O 0.02814 0.64154 0.58426 0.0
O556 O 0.11919 0.56264 0.48924 0.0
O557 O 0.09378 0.54692 0.61457 0.0
O558 O 0.04651 0.60837 0.8189 0.0
O559 O 0.08657 0.67583 0.77945 0.0
O560 O 0.08846 0.54275 0.70672 0.0
O561 O 0.14425 0.5275 0.8063 0.0
C562 C 0.10954 0.5117 0.75873 0.0
O563 O 0.11013 0.70071 0.68267 0.0
O564 O 0.16293 0.68099 0.58393 0.0
C565 C 0.22484 0.62553 0.77064 0.0
C566 C 0.14694 0.71418 0.63503 0.0
Zn567 Zn 0.12098 0.37816 0.56227 0.0
Zn568 Zn 0.08689 0.35483 0.2942 0.0
Zn569 Zn 0.10133 0.37216 0.43917 0.0
C570 C 0.11473 0.26545 0.38261 0.0
C571 C 0.18925 0.35181 0.29101 0.0
O572 O 0.11486 0.45463 0.45727 0.0
O573 O 0.075 0.44428 0.57297 0.0
C574 C 0.06499 0.30558 0.58189 0.0
O575 O 0.14285 0.30168 0.41404 0.0
O576 O 0.07847 0.27814 0.33424 0.0
O577 O 0.15737 0.3692 0.23922 0.0
O578 O 0.17308 0.34379 0.36456 0.0
O579 O 0.11164 0.29652 0.56889 0.0
O580 O 0.04417 0.33658 0.52943 0.0
O581 O 0.17725 0.33848 0.45671 0.0
O582 O 0.19249 0.39427 0.55628 0.0
C583 C 0.2083 0.35956 0.50871 0.0
O584 O 0.01929 0.36014 0.43265 0.0
O585 O 0.03898 0.4129 0.33384 0.0
C586 C 0.09446 0.47485 0.52063 0.0
C587 C 0.0058 0.39693 0.38498 0.0
Zn588 Zn 0.36506 0.63313 0.45751 0.0
Zn589 Zn 0.34187 0.59902 0.18944 0.0
Zn590 Zn 0.34781 0.61868 0.31254 0.0
C591 C 0.36047 0.51173 0.24297 0.0
C592 C 0.41442 0.65502 0.16996 0.0
O593 O 0.35983 0.70071 0.31922 0.0
O594 O 0.3069 0.68092 0.41773 0.0
C595 C 0.36815 0.53077 0.46071 0.0
O596 O 0.38152 0.54276 0.29504 0.0
O597 O 0.32576 0.52751 0.19538 0.0
O598 O 0.42353 0.60837 0.18287 0.0
O599 O 0.38338 0.67586 0.22233 0.0
O600 O 0.35074 0.56264 0.51249 0.0
O601 O 0.37616 0.54693 0.38716 0.0
O602 O 0.41828 0.57717 0.33772 0.0
O603 O 0.44177 0.64157 0.4175 0.0
C604 C 0.45448 0.60529 0.36917 0.0
O605 O 0.26537 0.60511 0.29446 0.0
O606 O 0.27571 0.64497 0.17876 0.0
C607 C 0.32298 0.71416 0.36678 0.0
C608 C 0.24514 0.62551 0.23111 0.0
Zn609 Zn 0.08688 0.61506 0.20753 0.0
Zn610 Zn 0.12098 0.59187 0.93945 0.0
Zn611 Zn 0.10132 0.5978 0.06256 0.0
C612 C 0.20827 0.61046 0.99298 0.0
C613 C 0.06498 0.66442 0.91997 0.0
O614 O 0.0193 0.60982 0.06925 0.0
O615 O 0.03906 0.55691 0.16781 0.0
C616 C 0.18924 0.61815 0.21072 0.0
O617 O 0.17724 0.63151 0.04505 0.0
O618 O 0.19249 0.57574 0.9454 0.0
O619 O 0.11163 0.67353 0.93287 0.0
O620 O 0.04414 0.63338 0.97234 0.0
O621 O 0.15737 0.60074 0.2625 0.0
O622 O 0.17308 0.62615 0.13716 0.0
O623 O 0.14284 0.66827 0.08773 0.0
O624 O 0.07845 0.69177 0.16752 0.0
C625 C 0.11472 0.70448 0.11918 0.0
O626 O 0.11489 0.51536 0.04447 0.0
O627 O 0.07502 0.52571 0.92877 0.0
C628 C 0.00583 0.57298 0.11684 0.0
C629 C 0.09449 0.49514 0.98111 0.0
Zn630 Zn 0.12812 0.37099 0.68944 0.0
Zn631 Zn 0.10494 0.33688 0.95753 0.0
Zn632 Zn 0.12219 0.35133 0.81255 0.0
C633 C 0.01551 0.36471 0.86918 0.0
C634 C 0.10185 0.43924 0.96072 0.0
O635 O 0.20464 0.3649 0.79446 0.0
O636 O 0.19428 0.32504 0.67876 0.0
C637 C 0.05558 0.31498 0.66995 0.0
O638 O 0.05172 0.39284 0.83773 0.0
O639 O 0.02823 0.32844 0.91752 0.0
O640 O 0.11926 0.40737 0.0125 0.0
O641 O 0.09384 0.42308 0.88716 0.0
O642 O 0.04646 0.36163 0.68286 0.0
O643 O 0.08662 0.29414 0.72232 0.0
O644 O 0.08848 0.42724 0.79504 0.0
O645 O 0.14424 0.4425 0.69539 0.0
C646 C 0.10953 0.45828 0.74297 0.0
O647 O 0.11017 0.26929 0.8192 0.0
O648 O 0.16309 0.28909 0.91773 0.0
C649 C 0.22486 0.3445 0.73111 0.0
C650 C 0.14702 0.25584 0.86677 0.0
Zn651 Zn 0.38312 0.35495 0.70752 0.0
Zn652 Zn 0.34902 0.37814 0.43945 0.0
Zn653 Zn 0.36867 0.37221 0.56256 0.0
C654 C 0.26172 0.35955 0.49297 0.0
C655 C 0.40502 0.30559 0.41998 0.0
O656 O 0.4507 0.36018 0.56921 0.0
O657 O 0.43092 0.4131 0.66773 0.0
C658 C 0.28076 0.35187 0.71071 0.0
O659 O 0.29275 0.3385 0.54504 0.0
O660 O 0.27751 0.39426 0.44538 0.0
O661 O 0.35837 0.29648 0.43287 0.0
O662 O 0.42586 0.33664 0.47235 0.0
O663 O 0.31263 0.36927 0.7625 0.0
O664 O 0.29692 0.34386 0.63716 0.0
O665 O 0.32716 0.30174 0.58772 0.0
O666 O 0.39155 0.27824 0.66751 0.0
C667 C 0.35528 0.26553 0.61917 0.0
O668 O 0.35511 0.45465 0.54447 0.0
O669 O 0.39497 0.4443 0.42877 0.0
C670 C 0.46416 0.39703 0.61678 0.0
C671 C 0.3755 0.47487 0.4811 0.0
loop_
_geom_bond_atom_site_label_1
_geom_bond_atom_site_label_2
_geom_bond_distance
_geom_bond_site_symmetry_2
_ccdc_geom_bond_type
Zn0 O6 1.920 1_455 S
Zn0 O12 1.898 . S
Zn0 O15 1.905 1_545 S
Zn1 O9 1.905 . S
Zn1 O10 1.898 . S
Zn1 O18 1.920 . S
Zn2 O5 2.080 . S
Zn2 O8 2.114 . S
Zn2 O11 2.120 . S
Zn2 O13 2.120 . S
Zn2 O14 2.114 . S
Zn2 O17 2.080 . S
C3 O8 1.166 . S
C3 O9 1.182 . S
C4 O10 1.167 . S
C4 O11 1.299 . S
O5 Zn2 2.080 . S
O5 C19 1.302 1_455 S
O6 Zn0 1.920 1_655 S
O6 C19 1.236 . S
C7 O12 1.167 . S
C7 O13 1.299 . S
O8 Zn2 2.114 . S
O8 C3 1.166 . S
O9 Zn1 1.905 . S
O9 C3 1.182 . S
O10 Zn1 1.898 . S
O10 C4 1.167 . S
O11 Zn2 2.120 . S
O11 C4 1.299 . S
O12 Zn0 1.898 . S
O12 C7 1.167 . S
O13 Zn2 2.120 . S
O13 C7 1.299 . S
O14 Zn2 2.114 . S
O14 C16 1.166 1_545 S
O15 Zn0 1.905 1_565 S
O15 C16 1.182 . S
C16 O14 1.166 1_565 S
C16 O15 1.182 . S
O17 Zn2 2.080 . S
O17 C20 1.305 . S
O18 Zn1 1.920 . S
O18 C20 1.234 . S
C19 O5 1.302 1_655 S
C19 O6 1.236 . S
C20 O17 1.305 . S
C20 O18 1.234 . S
Zn21 O27 1.920 . S
Zn21 O33 1.898 . S
Zn21 O36 1.905 1_565 S
Zn22 O30 1.905 . S
Zn22 O31 1.898 . S
Zn22 O39 1.920 . S
Zn23 O26 2.080 . S
Zn23 O29 2.114 . S
Zn23 O32 2.120 . S
Zn23 O34 2.120 . S
Zn23 O35 2.114 . S
Zn23 O38 2.080 . S
C24 O29 1.166 . S
C24 O30 1.182 . S
C25 O31 1.167 . S
C25 O32 1.299 . S
O26 Zn23 2.080 . S
O26 C40 1.305 . S
O27 Zn21 1.920 . S
O27 C40 1.234 . S
C28 O33 1.167 . S
C28 O34 1.299 . S
O29 Zn23 2.114 . S
O29 C24 1.166 . S
O30 Zn22 1.905 . S
O30 C24 1.182 . S
O31 Zn22 1.898 . S
O31 C25 1.167 . S
O32 Zn23 2.120 . S
O32 C25 1.299 . S
O33 Zn21 1.898 . S
O33 C28 1.167 . S
O34 Zn23 2.120 . S
O34 C28 1.299 . S
O35 Zn23 2.114 . S
O35 C37 1.166 . S
O36 Zn21 1.905 1_545 S
O36 C37 1.182 1_545 S
C37 O35 1.166 . S
C37 O36 1.182 1_565 S
O38 Zn23 2.080 . S
O38 C41 1.305 . S
O39 Zn22 1.920 . S
O39 C41 1.234 . S
C40 O26 1.305 . S
C40 O27 1.234 . S
C41 O38 1.305 . S
C41 O39 1.234 . S
Zn42 O48 1.920 . S
Zn42 O54 1.898 . S
Zn42 O57 1.905 . S
Zn43 O51 1.905 1_565 S
Zn43 O52 1.898 . S
Zn43 O60 1.920 . S
Zn44 O47 2.080 . S
Zn44 O50 2.114 . S
Zn44 O53 2.120 . S
Zn44 O55 2.120 . S
Zn44 O56 2.114 . S
Zn44 O59 2.080 . S
C45 O50 1.166 1_545 S
C45 O51 1.182 . S
C46 O52 1.167 . S
C46 O53 1.299 . S
O47 Zn44 2.080 . S
O47 C61 1.305 . S
O48 Zn42 1.920 . S
O48 C61 1.234 . S
C49 O54 1.167 . S
C49 O55 1.299 . S
O50 Zn44 2.114 . S
O50 C45 1.166 1_565 S
O51 Zn43 1.905 1_545 S
O51 C45 1.182 . S
O52 Zn43 1.898 . S
O52 C46 1.167 . S
O53 Zn44 2.120 . S
O53 C46 1.299 . S
O54 Zn42 1.898 . S
O54 C49 1.167 . S
O55 Zn44 2.120 . S
O55 C49 1.299 . S
O56 Zn44 2.114 . S
O56 C58 1.166 . S
O57 Zn42 1.905 . S
O57 C58 1.182 . S
C58 O56 1.166 . S
C58 O57 1.182 . S
O59 Zn44 2.080 . S
O59 C62 1.305 . S
O60 Zn43 1.920 . S
O60 C62 1.234 . S
C61 O47 1.305 . S
C61 O48 1.234 . S
C62 O59 1.305 . S
C62 O60 1.234 . S
Zn63 O69 1.920 . S
Zn63 O75 1.898 . S
Zn63 O78 1.905 1_545 S
Zn64 O72 1.905 . S
Zn64 O73 1.898 . S
Zn64 O81 1.920 1_556 S
Zn65 O68 2.080 . S
Zn65 O71 2.114 . S
Zn65 O74 2.120 1_554 S
Zn65 O76 2.120 . S
Zn65 O77 2.114 . S
Zn65 O80 2.080 . S
C66 O71 1.166 . S
C66 O72 1.182 1_554 S
C67 O73 1.167 . S
C67 O74 1.299 . S
O68 Zn65 2.080 . S
O68 C82 1.305 . S
O69 Zn63 1.920 . S
O69 C82 1.234 . S
C70 O75 1.167 . S
C70 O76 1.299 . S
O71 Zn65 2.114 . S
O71 C66 1.166 . S
O72 Zn64 1.905 . S
O72 C66 1.182 1_556 S
O73 Zn64 1.898 . S
O73 C67 1.167 . S
O74 Zn65 2.120 1_556 S
O74 C67 1.299 . S
O75 Zn63 1.898 . S
O75 C70 1.167 . S
O76 Zn65 2.120 . S
O76 C70 1.299 . S
O77 Zn65 2.114 . S
O77 C79 1.166 . S
O78 Zn63 1.905 1_565 S
O78 C79 1.182 1_565 S
C79 O77 1.166 . S
C79 O78 1.182 1_545 S
O80 Zn65 2.080 . S
O80 C83 1.305 . S
O81 Zn64 1.920 1_554 S
O81 C83 1.234 . S
C82 O68 1.305 . S
C82 O69 1.234 . S
C83 O80 1.305 . S
C83 O81 1.234 . S
Zn84 O90 1.920 . S
Zn84 O96 1.898 . S
Zn84 O99 1.905 . S
Zn85 O93 1.905 1_565 S
Zn85 O94 1.898 . S
Zn85 O102 1.920 1_455 S
Zn86 O89 2.080 . S
Zn86 O92 2.114 . S
Zn86 O95 2.120 . S
Zn86 O97 2.120 . S
Zn86 O98 2.114 . S
Zn86 O101 2.080 . S
C87 O92 1.166 1_545 S
C87 O93 1.182 . S
C88 O94 1.167 . S
C88 O95 1.299 . S
O89 Zn86 2.080 . S
O89 C103 1.305 . S
O90 Zn84 1.920 . S
O90 C103 1.234 . S
C91 O96 1.167 . S
C91 O97 1.299 . S
O92 Zn86 2.114 . S
O92 C87 1.166 1_565 S
O93 Zn85 1.905 1_545 S
O93 C87 1.182 . S
O94 Zn85 1.898 . S
O94 C88 1.167 . S
O95 Zn86 2.120 . S
O95 C88 1.299 . S
O96 Zn84 1.898 . S
O96 C91 1.167 . S
O97 Zn86 2.120 . S
O97 C91 1.299 . S
O98 Zn86 2.114 . S
O98 C100 1.166 . S
O99 Zn84 1.905 . S
O99 C100 1.182 . S
C100 O98 1.166 . S
C100 O99 1.182 . S
O101 Zn86 2.080 . S
O101 C104 1.302 1_455 S
O102 Zn85 1.920 1_655 S
O102 C104 1.236 . S
C103 O89 1.305 . S
C103 O90 1.234 . S
C104 O101 1.302 1_655 S
C104 O102 1.236 . S
Zn105 O111 1.920 . S
Zn105 O117 1.898 . S
Zn105 O120 1.905 1_565 S
Zn106 O114 1.905 . S
Zn106 O115 1.898 . S
Zn106 O123 1.920 . S
Zn107 O110 2.080 . S
Zn107 O113 2.114 . S
Zn107 O116 2.120 . S
Zn107 O118 2.120 . S
Zn107 O119 2.114 . S
Zn107 O122 2.080 . S
C108 O113 1.166 . S
C108 O114 1.182 . S
C109 O115 1.167 . S
C109 O116 1.299 . S
O110 Zn107 2.080 . S
O110 C124 1.305 . S
O111 Zn105 1.920 . S
O111 C124 1.234 . S
C112 O117 1.167 . S
C112 O118 1.299 . S
O113 Zn107 2.114 . S
O113 C108 1.166 . S
O114 Zn106 1.905 . S
O114 C108 1.182 . S
O115 Zn106 1.898 . S
O115 C109 1.167 . S
O116 Zn107 2.120 . S
O116 C109 1.299 . S
O117 Zn105 1.898 . S
O117 C112 1.167 . S
O118 Zn107 2.120 . S
O118 C112 1.299 . S
O119 Zn107 2.114 . S
O119 C121 1.166 . S
O120 Zn105 1.905 1_545 S
O120 C121 1.182 1_545 S
C121 O119 1.166 . S
C121 O120 1.182 1_565 S
O122 Zn107 2.080 . S
O122 C125 1.305 . S
O123 Zn106 1.920 . S
O123 C125 1.234 . S
C124 O110 1.305 . S
C124 O111 1.234 . S
C125 O122 1.305 . S
C125 O123 1.234 . S
Zn126 O132 1.920 . S
Zn126 O138 1.898 . S
Zn126 O141 1.905 . S
Zn127 O135 1.905 1_545 S
Zn127 O136 1.898 . S
Zn127 O144 1.920 . S
Zn128 O131 2.080 . S
Zn128 O134 2.114 . S
Zn128 O137 2.120 . S
Zn128 O139 2.120 . S
Zn128 O140 2.114 . S
Zn128 O143 2.080 . S
C129 O134 1.166 1_565 S
C129 O135 1.182 . S
C130 O136 1.167 . S
C130 O137 1.299 . S
O131 Zn128 2.080 . S
O131 C145 1.305 . S
O132 Zn126 1.920 . S
O132 C145 1.234 . S
C133 O138 1.167 . S
C133 O139 1.299 . S
O134 Zn128 2.114 . S
O134 C129 1.166 1_545 S
O135 Zn127 1.905 1_565 S
O135 C129 1.182 . S
O136 Zn127 1.898 . S
O136 C130 1.167 . S
O137 Zn128 2.120 . S
O137 C130 1.299 . S
O138 Zn126 1.898 . S
O138 C133 1.167 . S
O139 Zn128 2.120 . S
O139 C133 1.299 . S
O140 Zn128 2.114 . S
O140 C142 1.166 . S
O141 Zn126 1.905 . S
O141 C142 1.182 . S
C142 O140 1.166 . S
C142 O141 1.182 . S
O143 Zn128 2.080 . S
O143 C146 1.305 . S
O144 Zn127 1.920 . S
O144 C146 1.234 . S
C145 O131 1.305 . S
C145 O132 1.234 . S
C146 O143 1.305 . S
C146 O144 1.234 . S
Zn147 O153 1.920 . S
Zn147 O159 1.898 . S
Zn147 O162 1.905 1_545 S
Zn148 O156 1.905 . S
Zn148 O157 1.898 . S
Zn148 O165 1.920 1_554 S
Zn149 O152 2.080 . S
Zn149 O155 2.114 . S
Zn149 O158 2.120 1_556 S
Zn149 O160 2.120 . S
Zn149 O161 2.114 . S
Zn149 O164 2.080 . S
C150 O155 1.166 . S
C150 O156 1.182 1_556 S
C151 O157 1.167 . S
C151 O158 1.299 . S
O152 Zn149 2.080 . S
O152 C166 1.305 . S
O153 Zn147 1.920 . S
O153 C166 1.234 . S
C154 O159 1.167 . S
C154 O160 1.299 . S
O155 Zn149 2.114 . S
O155 C150 1.166 . S
O156 Zn148 1.905 . S
O156 C150 1.182 1_554 S
O157 Zn148 1.898 . S
O157 C151 1.167 . S
O158 Zn149 2.120 1_554 S
O158 C151 1.299 . S
O159 Zn147 1.898 . S
O159 C154 1.167 . S
O160 Zn149 2.120 . S
O160 C154 1.299 . S
O161 Zn149 2.114 . S
O161 C163 1.166 . S
O162 Zn147 1.905 1_565 S
O162 C163 1.182 1_565 S
C163 O161 1.166 . S
C163 O162 1.182 1_545 S
O164 Zn149 2.080 . S
O164 C167 1.305 . S
O165 Zn148 1.920 1_556 S
O165 C167 1.234 . S
C166 O152 1.305 . S
C166 O153 1.234 . S
C167 O164 1.305 . S
C167 O165 1.234 . S
Zn168 O174 1.920 . S
Zn168 O180 1.898 . S
Zn168 O183 1.905 . S
Zn169 O177 1.905 . S
Zn169 O178 1.898 . S
Zn169 O186 1.920 . S
Zn170 O173 2.080 . S
Zn170 O176 2.114 . S
Zn170 O179 2.120 . S
Zn170 O181 2.120 . S
Zn170 O182 2.114 . S
Zn170 O185 2.080 . S
C171 O176 1.166 . S
C171 O177 1.182 . S
C172 O178 1.167 . S
C172 O179 1.299 . S
O173 Zn170 2.080 . S
O173 C187 1.305 . S
O174 Zn168 1.920 . S
O174 C187 1.234 . S
C175 O180 1.167 . S
C175 O181 1.299 . S
O176 Zn170 2.114 . S
O176 C171 1.166 . S
O177 Zn169 1.905 . S
O177 C171 1.182 . S
O178 Zn169 1.898 . S
O178 C172 1.167 . S
O179 Zn170 2.120 . S
O179 C172 1.299 . S
O180 Zn168 1.898 . S
O180 C175 1.167 . S
O181 Zn170 2.120 . S
O181 C175 1.299 . S
O182 Zn170 2.114 . S
O182 C184 1.166 . S
O183 Zn168 1.905 . S
O183 C184 1.182 . S
C184 O182 1.166 . S
C184 O183 1.182 . S
O185 Zn170 2.080 . S
O185 C188 1.305 . S
O186 Zn169 1.920 . S
O186 C188 1.234 . S
C187 O173 1.305 . S
C187 O174 1.234 . S
C188 O185 1.305 . S
C188 O186 1.234 . S
Zn189 O195 1.920 . S
Zn189 O201 1.898 . S
Zn189 O204 1.905 . S
Zn190 O198 1.905 . S
Zn190 O199 1.898 . S
Zn190 O207 1.920 . S
Zn191 O194 2.080 . S
Zn191 O197 2.114 . S
Zn191 O200 2.120 . S
Zn191 O202 2.120 . S
Zn191 O203 2.114 . S
Zn191 O206 2.080 . S
C192 O197 1.166 . S
C192 O198 1.182 . S
C193 O199 1.167 . S
C193 O200 1.299 . S
O194 Zn191 2.080 . S
O194 C208 1.305 . S
O195 Zn189 1.920 . S
O195 C208 1.234 . S
C196 O201 1.167 . S
C196 O202 1.299 . S
O197 Zn191 2.114 . S
O197 C192 1.166 . S
O198 Zn190 1.905 . S
O198 C192 1.182 . S
O199 Zn190 1.898 . S
O199 C193 1.167 . S
O200 Zn191 2.120 . S
O200 C193 1.299 . S
O201 Zn189 1.898 . S
O201 C196 1.167 . S
O202 Zn191 2.120 . S
O202 C196 1.299 . S
O203 Zn191 2.114 . S
O203 C205 1.166 . S
O204 Zn189 1.905 . S
O204 C205 1.182 . S
C205 O203 1.166 . S
C205 O204 1.182 . S
O206 Zn191 2.080 . S
O206 C209 1.305 . S
O207 Zn190 1.920 . S
O207 C209 1.234 . S
C208 O194 1.305 . S
C208 O195 1.234 . S
C209 O206 1.305 . S
C209 O207 1.234 . S
Zn210 O216 1.920 . S
Zn210 O222 1.898 . S
Zn210 O225 1.905 . S
Zn211 O219 1.905 1_556 S
Zn211 O220 1.898 . S
Zn211 O228 1.920 1_556 S
Zn212 O215 2.080 . S
Zn212 O218 2.114 . S
Zn212 O221 2.120 . S
Zn212 O223 2.120 . S
Zn212 O224 2.114 . S
Zn212 O227 2.080 . S
C213 O218 1.166 . S
C213 O219 1.182 . S
C214 O220 1.167 1_554 S
C214 O221 1.299 . S
O215 Zn212 2.080 . S
O215 C229 1.305 . S
O216 Zn210 1.920 . S
O216 C229 1.234 . S
C217 O222 1.167 . S
C217 O223 1.299 . S
O218 Zn212 2.114 . S
O218 C213 1.166 . S
O219 Zn211 1.905 1_554 S
O219 C213 1.182 . S
O220 Zn211 1.898 . S
O220 C214 1.167 1_556 S
O221 Zn212 2.120 . S
O221 C214 1.299 . S
O222 Zn210 1.898 . S
O222 C217 1.167 . S
O223 Zn212 2.120 . S
O223 C217 1.299 . S
O224 Zn212 2.114 . S
O224 C226 1.166 . S
O225 Zn210 1.905 . S
O225 C226 1.182 . S
C226 O224 1.166 . S
C226 O225 1.182 . S
O227 Zn212 2.080 . S
O227 C230 1.305 . S
O228 Zn211 1.920 1_554 S
O228 C230 1.234 . S
C229 O215 1.305 . S
C229 O216 1.234 . S
C230 O227 1.305 . S
C230 O228 1.234 . S
Zn231 O237 1.920 . S
Zn231 O243 1.898 . S
Zn231 O246 1.905 . S
Zn232 O240 1.905 . S
Zn232 O241 1.898 . S
Zn232 O249 1.920 . S
Zn233 O236 2.080 . S
Zn233 O239 2.114 . S
Zn233 O242 2.120 . S
Zn233 O244 2.120 1_556 S
Zn233 O245 2.114 . S
Zn233 O248 2.080 . S
C234 O239 1.166 . S
C234 O240 1.182 . S
C235 O241 1.167 . S
C235 O242 1.299 . S
O236 Zn233 2.080 . S
O236 C250 1.305 1_556 S
O237 Zn231 1.920 . S
O237 C250 1.234 . S
C238 O243 1.167 . S
C238 O244 1.299 . S
O239 Zn233 2.114 . S
O239 C234 1.166 . S
O240 Zn232 1.905 . S
O240 C234 1.182 . S
O241 Zn232 1.898 . S
O241 C235 1.167 . S
O242 Zn233 2.120 . S
O242 C235 1.299 . S
O243 Zn231 1.898 . S
O243 C238 1.167 . S
O244 Zn233 2.120 1_554 S
O244 C238 1.299 . S
O245 Zn233 2.114 . S
O245 C247 1.166 1_556 S
O246 Zn231 1.905 . S
O246 C247 1.182 . S
C247 O245 1.166 1_554 S
C247 O246 1.182 . S
O248 Zn233 2.080 . S
O248 C251 1.305 . S
O249 Zn232 1.920 . S
O249 C251 1.234 . S
C250 O236 1.305 1_554 S
C250 O237 1.234 . S
C251 O248 1.305 . S
C251 O249 1.234 . S
Zn252 O258 1.920 1_554 S
Zn252 O264 1.898 . S
Zn252 O267 1.905 1_554 S
Zn253 O261 1.905 . S
Zn253 O262 1.898 . S
Zn253 O270 1.920 . S
Zn254 O257 2.080 . S
Zn254 O260 2.114 . S
Zn254 O263 2.120 . S
Zn254 O265 2.120 . S
Zn254 O266 2.114 . S
Zn254 O269 2.080 . S
C255 O260 1.166 . S
C255 O261 1.182 . S
C256 O262 1.167 . S
C256 O263 1.299 . S
O257 Zn254 2.080 . S
O257 C271 1.305 . S
O258 Zn252 1.920 1_556 S
O258 C271 1.234 . S
C259 O264 1.167 1_556 S
C259 O265 1.299 . S
O260 Zn254 2.114 . S
O260 C255 1.166 . S
O261 Zn253 1.905 . S
O261 C255 1.182 . S
O262 Zn253 1.898 . S
O262 C256 1.167 . S
O263 Zn254 2.120 . S
O263 C256 1.299 . S
O264 Zn252 1.898 . S
O264 C259 1.167 1_554 S
O265 Zn254 2.120 . S
O265 C259 1.299 . S
O266 Zn254 2.114 . S
O266 C268 1.166 . S
O267 Zn252 1.905 1_556 S
O267 C268 1.182 . S
C268 O266 1.166 . S
C268 O267 1.182 . S
O269 Zn254 2.080 . S
O269 C272 1.305 . S
O270 Zn253 1.920 . S
O270 C272 1.234 . S
C271 O257 1.305 . S
C271 O258 1.234 . S
C272 O269 1.305 . S
C272 O270 1.234 . S
Zn273 O279 1.920 . S
Zn273 O285 1.898 . S
Zn273 O288 1.905 . S
Zn274 O282 1.905 . S
Zn274 O283 1.898 . S
Zn274 O291 1.920 . S
Zn275 O278 2.080 . S
Zn275 O281 2.114 . S
Zn275 O284 2.120 . S
Zn275 O286 2.120 . S
Zn275 O287 2.114 . S
Zn275 O290 2.080 . S
C276 O281 1.166 . S
C276 O282 1.182 . S
C277 O283 1.167 . S
C277 O284 1.299 . S
O278 Zn275 2.080 . S
O278 C292 1.305 . S
O279 Zn273 1.920 . S
O279 C292 1.234 . S
C280 O285 1.167 . S
C280 O286 1.299 . S
O281 Zn275 2.114 . S
O281 C276 1.166 . S
O282 Zn274 1.905 . S
O282 C276 1.182 . S
O283 Zn274 1.898 . S
O283 C277 1.167 . S
O284 Zn275 2.120 . S
O284 C277 1.299 . S
O285 Zn273 1.898 . S
O285 C280 1.167 . S
O286 Zn275 2.120 . S
O286 C280 1.299 . S
O287 Zn275 2.114 . S
O287 C289 1.166 . S
O288 Zn273 1.905 . S
O288 C289 1.182 . S
C289 O287 1.166 . S
C289 O288 1.182 . S
O290 Zn275 2.080 . S
O290 C293 1.305 . S
O291 Zn274 1.920 . S
O291 C293 1.234 . S
C292 O278 1.305 . S
C292 O279 1.234 . S
C293 O290 1.305 . S
C293 O291 1.234 . S
Zn294 O300 1.920 . S
Zn294 O306 1.898 . S
Zn294 O309 1.905 . S
Zn295 O303 1.905 . S
Zn295 O304 1.898 . S
Zn295 O312 1.920 . S
Zn296 O299 2.080 . S
Zn296 O302 2.114 . S
Zn296 O305 2.120 . S
Zn296 O307 2.120 . S
Zn296 O308 2.114 . S
Zn296 O311 2.080 . S
C297 O302 1.166 . S
C297 O303 1.182 . S
C298 O304 1.167 . S
C298 O305 1.299 . S
O299 Zn296 2.080 . S
O299 C313 1.305 . S
O300 Zn294 1.920 . S
O300 C313 1.234 . S
C301 O306 1.167 . S
C301 O307 1.299 . S
O302 Zn296 2.114 . S
O302 C297 1.166 . S
O303 Zn295 1.905 . S
O303 C297 1.182 . S
O304 Zn295 1.898 . S
O304 C298 1.167 . S
O305 Zn296 2.120 . S
O305 C298 1.299 . S
O306 Zn294 1.898 . S
O306 C301 1.167 . S
O307 Zn296 2.120 . S
O307 C301 1.299 . S
O308 Zn296 2.114 . S
O308 C310 1.166 . S
O309 Zn294 1.905 . S
O309 C310 1.182 . S
C310 O308 1.166 . S
C310 O309 1.182 . S
O311 Zn296 2.080 . S
O311 C314 1.305 . S
O312 Zn295 1.920 . S
O312 C314 1.234 . S
C313 O299 1.305 . S
C313 O300 1.234 . S
C314 O311 1.305 . S
C314 O312 1.234 . S
Zn315 O321 1.920 . S
Zn315 O327 1.898 . S
Zn315 O330 1.905 . S
Zn316 O324 1.905 . S
Zn316 O325 1.898 . S
Zn316 O333 1.920 . S
Zn317 O320 2.080 . S
Zn317 O323 2.114 . S
Zn317 O326 2.120 1_554 S
Zn317 O328 2.120 . S
Zn317 O329 2.114 . S
Zn317 O332 2.080 . S
C318 O323 1.166 1_556 S
C318 O324 1.182 . S
C319 O325 1.167 . S
C319 O326 1.299 . S
O320 Zn317 2.080 . S
O320 C334 1.305 . S
O321 Zn315 1.920 . S
O321 C334 1.234 . S
C322 O327 1.167 . S
C322 O328 1.299 . S
O323 Zn317 2.114 . S
O323 C318 1.166 1_554 S
O324 Zn316 1.905 . S
O324 C318 1.182 . S
O325 Zn316 1.898 . S
O325 C319 1.167 . S
O326 Zn317 2.120 1_556 S
O326 C319 1.299 . S
O327 Zn315 1.898 . S
O327 C322 1.167 . S
O328 Zn317 2.120 . S
O328 C322 1.299 . S
O329 Zn317 2.114 . S
O329 C331 1.166 . S
O330 Zn315 1.905 . S
O330 C331 1.182 . S
C331 O329 1.166 . S
C331 O330 1.182 . S
O332 Zn317 2.080 . S
O332 C335 1.305 1_554 S
O333 Zn316 1.920 . S
O333 C335 1.234 . S
C334 O320 1.305 . S
C334 O321 1.234 . S
C335 O332 1.305 1_556 S
C335 O333 1.234 . S
Zn336 O342 1.920 . S
Zn336 O348 1.898 . S
Zn336 O351 1.905 . S
Zn337 O345 1.905 . S
Zn337 O346 1.898 . S
Zn337 O354 1.920 . S
Zn338 O341 2.080 . S
Zn338 O344 2.114 . S
Zn338 O347 2.120 . S
Zn338 O349 2.120 . S
Zn338 O350 2.114 . S
Zn338 O353 2.080 . S
C339 O344 1.166 . S
C339 O345 1.182 . S
C340 O346 1.167 . S
C340 O347 1.299 . S
O341 Zn338 2.080 . S
O341 C355 1.305 . S
O342 Zn336 1.920 . S
O342 C355 1.234 . S
C343 O348 1.167 . S
C343 O349 1.299 . S
O344 Zn338 2.114 . S
O344 C339 1.166 . S
O345 Zn337 1.905 . S
O345 C339 1.182 . S
O346 Zn337 1.898 . S
O346 C340 1.167 . S
O347 Zn338 2.120 . S
O347 C340 1.299 . S
O348 Zn336 1.898 . S
O348 C343 1.167 . S
O349 Zn338 2.120 . S
O349 C343 1.299 . S
O350 Zn338 2.114 . S
O350 C352 1.166 . S
O351 Zn336 1.905 . S
O351 C352 1.182 . S
C352 O350 1.166 . S
C352 O351 1.182 . S
O353 Zn338 2.080 . S
O353 C356 1.305 . S
O354 Zn337 1.920 . S
O354 C356 1.234 . S
C355 O341 1.305 . S
C355 O342 1.234 . S
C356 O353 1.305 . S
C356 O354 1.234 . S
Zn357 O363 1.920 1_556 S
Zn357 O369 1.898 . S
Zn357 O372 1.905 . S
Zn358 O366 1.905 . S
Zn358 O367 1.898 . S
Zn358 O375 1.920 . S
Zn359 O362 2.080 . S
Zn359 O365 2.114 . S
Zn359 O368 2.120 . S
Zn359 O370 2.120 1_554 S
Zn359 O371 2.114 . S
Zn359 O374 2.080 . S
C360 O365 1.166 . S
C360 O366 1.182 . S
C361 O367 1.167 . S
C361 O368 1.299 . S
O362 Zn359 2.080 . S
O362 C376 1.305 . S
O363 Zn357 1.920 1_554 S
O363 C376 1.234 . S
C364 O369 1.167 . S
C364 O370 1.299 . S
O365 Zn359 2.114 . S
O365 C360 1.166 . S
O366 Zn358 1.905 . S
O366 C360 1.182 . S
O367 Zn358 1.898 . S
O367 C361 1.167 . S
O368 Zn359 2.120 . S
O368 C361 1.299 . S
O369 Zn357 1.898 . S
O369 C364 1.167 . S
O370 Zn359 2.120 1_556 S
O370 C364 1.299 . S
O371 Zn359 2.114 . S
O371 C373 1.166 . S
O372 Zn357 1.905 . S
O372 C373 1.182 1_556 S
C373 O371 1.166 . S
C373 O372 1.182 1_554 S
O374 Zn359 2.080 . S
O374 C377 1.305 . S
O375 Zn358 1.920 . S
O375 C377 1.234 . S
C376 O362 1.305 . S
C376 O363 1.234 . S
C377 O374 1.305 . S
C377 O375 1.234 . S
Zn378 O384 1.920 . S
Zn378 O390 1.898 . S
Zn378 O393 1.905 . S
Zn379 O387 1.905 . S
Zn379 O388 1.898 . S
Zn379 O396 1.920 1_655 S
Zn380 O383 2.080 . S
Zn380 O386 2.114 . S
Zn380 O389 2.120 . S
Zn380 O391 2.120 . S
Zn380 O392 2.114 . S
Zn380 O395 2.080 . S
C381 O386 1.166 . S
C381 O387 1.182 . S
C382 O388 1.167 . S
C382 O389 1.299 . S
O383 Zn380 2.080 . S
O383 C397 1.305 . S
O384 Zn378 1.920 . S
O384 C397 1.234 . S
C385 O390 1.167 . S
C385 O391 1.299 . S
O386 Zn380 2.114 . S
O386 C381 1.166 . S
O387 Zn379 1.905 . S
O387 C381 1.182 . S
O388 Zn379 1.898 . S
O388 C382 1.167 . S
O389 Zn380 2.120 . S
O389 C382 1.299 . S
O390 Zn378 1.898 . S
O390 C385 1.167 . S
O391 Zn380 2.120 . S
O391 C385 1.299 . S
O392 Zn380 2.114 . S
O392 C394 1.166 . S
O393 Zn378 1.905 . S
O393 C394 1.182 . S
C394 O392 1.166 . S
C394 O393 1.182 . S
O395 Zn380 2.080 . S
O395 C398 1.302 1_655 S
O396 Zn379 1.920 1_455 S
O396 C398 1.236 . S
C397 O383 1.305 . S
C397 O384 1.234 . S
C398 O395 1.302 1_455 S
C398 O396 1.236 . S
Zn399 O405 1.920 . S
Zn399 O411 1.898 . S
Zn399 O414 1.905 . S
Zn400 O408 1.905 . S
Zn400 O409 1.898 . S
Zn400 O417 1.920 . S
Zn401 O404 2.080 . S
Zn401 O407 2.114 . S
Zn401 O410 2.120 . S
Zn401 O412 2.120 . S
Zn401 O413 2.114 . S
Zn401 O416 2.080 . S
C402 O407 1.166 . S
C402 O408 1.182 . S
C403 O409 1.167 . S
C403 O410 1.299 . S
O404 Zn401 2.080 . S
O404 C418 1.305 . S
O405 Zn399 1.920 . S
O405 C418 1.234 . S
C406 O411 1.167 . S
C406 O412 1.299 . S
O407 Zn401 2.114 . S
O407 C402 1.166 . S
O408 Zn400 1.905 . S
O408 C402 1.182 . S
O409 Zn400 1.898 . S
O409 C403 1.167 . S
O410 Zn401 2.120 . S
O410 C403 1.299 . S
O411 Zn399 1.898 . S
O411 C406 1.167 . S
O412 Zn401 2.120 . S
O412 C406 1.299 . S
O413 Zn401 2.114 . S
O413 C415 1.166 . S
O414 Zn399 1.905 . S
O414 C415 1.182 . S
C415 O413 1.166 . S
C415 O414 1.182 . S
O416 Zn401 2.080 . S
O416 C419 1.305 . S
O417 Zn400 1.920 . S
O417 C419 1.234 . S
C418 O404 1.305 . S
C418 O405 1.234 . S
C419 O416 1.305 . S
C419 O417 1.234 . S
Zn420 O426 1.920 . S
Zn420 O432 1.898 . S
Zn420 O435 1.905 . S
Zn421 O429 1.905 . S
Zn421 O430 1.898 . S
Zn421 O438 1.920 . S
Zn422 O425 2.080 . S
Zn422 O428 2.114 . S
Zn422 O431 2.120 . S
Zn422 O433 2.120 . S
Zn422 O434 2.114 . S
Zn422 O437 2.080 . S
C423 O428 1.166 . S
C423 O429 1.182 . S
C424 O430 1.167 . S
C424 O431 1.299 . S
O425 Zn422 2.080 . S
O425 C439 1.305 . S
O426 Zn420 1.920 . S
O426 C439 1.234 . S
C427 O432 1.167 . S
C427 O433 1.299 . S
O428 Zn422 2.114 . S
O428 C423 1.166 . S
O429 Zn421 1.905 . S
O429 C423 1.182 . S
O430 Zn421 1.898 . S
O430 C424 1.167 . S
O431 Zn422 2.120 . S
O431 C424 1.299 . S
O432 Zn420 1.898 . S
O432 C427 1.167 . S
O433 Zn422 2.120 . S
O433 C427 1.299 . S
O434 Zn422 2.114 . S
O434 C436 1.166 . S
O435 Zn420 1.905 . S
O435 C436 1.182 . S
C436 O434 1.166 . S
C436 O435 1.182 . S
O437 Zn422 2.080 . S
O437 C440 1.305 . S
O438 Zn421 1.920 . S
O438 C440 1.234 . S
C439 O425 1.305 . S
C439 O426 1.234 . S
C440 O437 1.305 . S
C440 O438 1.234 . S
Zn441 O447 1.920 . S
Zn441 O453 1.898 . S
Zn441 O456 1.905 . S
Zn442 O450 1.905 . S
Zn442 O451 1.898 . S
Zn442 O459 1.920 1_554 S
Zn443 O446 2.080 . S
Zn443 O449 2.114 . S
Zn443 O452 2.120 1_556 S
Zn443 O454 2.120 . S
Zn443 O455 2.114 . S
Zn443 O458 2.080 . S
C444 O449 1.166 . S
C444 O450 1.182 1_556 S
C445 O451 1.167 . S
C445 O452 1.299 . S
O446 Zn443 2.080 . S
O446 C460 1.305 . S
O447 Zn441 1.920 . S
O447 C460 1.234 . S
C448 O453 1.167 . S
C448 O454 1.299 . S
O449 Zn443 2.114 . S
O449 C444 1.166 . S
O450 Zn442 1.905 . S
O450 C444 1.182 1_554 S
O451 Zn442 1.898 . S
O451 C445 1.167 . S
O452 Zn443 2.120 1_554 S
O452 C445 1.299 . S
O453 Zn441 1.898 . S
O453 C448 1.167 . S
O454 Zn443 2.120 . S
O454 C448 1.299 . S
O455 Zn443 2.114 . S
O455 C457 1.166 . S
O456 Zn441 1.905 . S
O456 C457 1.182 . S
C457 O455 1.166 . S
C457 O456 1.182 . S
O458 Zn443 2.080 . S
O458 C461 1.305 . S
O459 Zn442 1.920 1_556 S
O459 C461 1.234 . S
C460 O446 1.305 . S
C460 O447 1.234 . S
C461 O458 1.305 . S
C461 O459 1.234 . S
Zn462 O468 1.920 . S
Zn462 O474 1.898 . S
Zn462 O477 1.905 . S
Zn463 O471 1.905 . S
Zn463 O472 1.898 . S
Zn463 O480 1.920 1_655 S
Zn464 O467 2.080 . S
Zn464 O470 2.114 . S
Zn464 O473 2.120 . S
Zn464 O475 2.120 . S
Zn464 O476 2.114 . S
Zn464 O479 2.080 . S
C465 O470 1.166 . S
C465 O471 1.182 . S
C466 O472 1.167 . S
C466 O473 1.299 . S
O467 Zn464 2.080 . S
O467 C481 1.305 . S
O468 Zn462 1.920 . S
O468 C481 1.234 . S
C469 O474 1.167 . S
C469 O475 1.299 . S
O470 Zn464 2.114 . S
O470 C465 1.166 . S
O471 Zn463 1.905 . S
O471 C465 1.182 . S
O472 Zn463 1.898 . S
O472 C466 1.167 . S
O473 Zn464 2.120 . S
O473 C466 1.299 . S
O474 Zn462 1.898 . S
O474 C469 1.167 . S
O475 Zn464 2.120 . S
O475 C469 1.299 . S
O476 Zn464 2.114 . S
O476 C478 1.166 . S
O477 Zn462 1.905 . S
O477 C478 1.182 . S
C478 O476 1.166 . S
C478 O477 1.182 . S
O479 Zn464 2.080 . S
O479 C482 1.302 1_655 S
O480 Zn463 1.920 1_455 S
O480 C482 1.236 . S
C481 O467 1.305 . S
C481 O468 1.234 . S
C482 O479 1.302 1_455 S
C482 O480 1.236 . S
Zn483 O489 1.920 . S
Zn483 O495 1.898 . S
Zn483 O498 1.905 . S
Zn484 O492 1.905 . S
Zn484 O493 1.898 . S
Zn484 O501 1.920 . S
Zn485 O488 2.080 . S
Zn485 O491 2.114 . S
Zn485 O494 2.120 . S
Zn485 O496 2.120 . S
Zn485 O497 2.114 . S
Zn485 O500 2.080 . S
C486 O491 1.166 . S
C486 O492 1.182 . S
C487 O493 1.167 . S
C487 O494 1.299 . S
O488 Zn485 2.080 . S
O488 C502 1.305 . S
O489 Zn483 1.920 . S
O489 C502 1.234 . S
C490 O495 1.167 . S
C490 O496 1.299 . S
O491 Zn485 2.114 . S
O491 C486 1.166 . S
O492 Zn484 1.905 . S
O492 C486 1.182 . S
O493 Zn484 1.898 . S
O493 C487 1.167 . S
O494 Zn485 2.120 . S
O494 C487 1.299 . S
O495 Zn483 1.898 . S
O495 C490 1.167 . S
O496 Zn485 2.120 . S
O496 C490 1.299 . S
O497 Zn485 2.114 . S
O497 C499 1.166 . S
O498 Zn483 1.905 . S
O498 C499 1.182 . S
C499 O497 1.166 . S
C499 O498 1.182 . S
O500 Zn485 2.080 . S
O500 C503 1.305 . S
O501 Zn484 1.920 . S
O501 C503 1.234 . S
C502 O488 1.305 . S
C502 O489 1.234 . S
C503 O500 1.305 . S
C503 O501 1.234 . S
Zn504 O510 1.920 . S
Zn504 O516 1.898 . S
Zn504 O519 1.905 . S
Zn505 O513 1.905 1_556 S
Zn505 O514 1.898 . S
Zn505 O522 1.920 1_556 S
Zn506 O509 2.080 . S
Zn506 O512 2.114 . S
Zn506 O515 2.120 . S
Zn506 O517 2.120 . S
Zn506 O518 2.114 . S
Zn506 O521 2.080 . S
C507 O512 1.166 . S
C507 O513 1.182 . S
C508 O514 1.167 1_554 S
C508 O515 1.299 . S
O509 Zn506 2.080 . S
O509 C523 1.305 . S
O510 Zn504 1.920 . S
O510 C523 1.234 . S
C511 O516 1.167 . S
C511 O517 1.299 . S
O512 Zn506 2.114 . S
O512 C507 1.166 . S
O513 Zn505 1.905 1_554 S
O513 C507 1.182 . S
O514 Zn505 1.898 . S
O514 C508 1.167 1_556 S
O515 Zn506 2.120 . S
O515 C508 1.299 . S
O516 Zn504 1.898 . S
O516 C511 1.167 . S
O517 Zn506 2.120 . S
O517 C511 1.299 . S
O518 Zn506 2.114 . S
O518 C520 1.166 . S
O519 Zn504 1.905 . S
O519 C520 1.182 . S
C520 O518 1.166 . S
C520 O519 1.182 . S
O521 Zn506 2.080 . S
O521 C524 1.305 . S
O522 Zn505 1.920 1_554 S
O522 C524 1.234 . S
C523 O509 1.305 . S
C523 O510 1.234 . S
C524 O521 1.305 . S
C524 O522 1.234 . S
Zn525 O531 1.920 . S
Zn525 O537 1.898 . S
Zn525 O540 1.905 . S
Zn526 O534 1.905 . S
Zn526 O535 1.898 . S
Zn526 O543 1.920 . S
Zn527 O530 2.080 . S
Zn527 O533 2.114 . S
Zn527 O536 2.120 1_556 S
Zn527 O538 2.120 . S
Zn527 O539 2.114 . S
Zn527 O542 2.080 . S
C528 O533 1.166 1_554 S
C528 O534 1.182 . S
C529 O535 1.167 . S
C529 O536 1.299 . S
O530 Zn527 2.080 . S
O530 C544 1.305 . S
O531 Zn525 1.920 . S
O531 C544 1.234 . S
C532 O537 1.167 . S
C532 O538 1.299 . S
O533 Zn527 2.114 . S
O533 C528 1.166 1_556 S
O534 Zn526 1.905 . S
O534 C528 1.182 . S
O535 Zn526 1.898 . S
O535 C529 1.167 . S
O536 Zn527 2.120 1_554 S
O536 C529 1.299 . S
O537 Zn525 1.898 . S
O537 C532 1.167 . S
O538 Zn527 2.120 . S
O538 C532 1.299 . S
O539 Zn527 2.114 . S
O539 C541 1.166 . S
O540 Zn525 1.905 . S
O540 C541 1.182 . S
C541 O539 1.166 . S
C541 O540 1.182 . S
O542 Zn527 2.080 . S
O542 C545 1.305 1_556 S
O543 Zn526 1.920 . S
O543 C545 1.234 . S
C544 O530 1.305 . S
C544 O531 1.234 . S
C545 O542 1.305 1_554 S
C545 O543 1.234 . S
Zn546 O552 1.920 . S
Zn546 O558 1.898 . S
Zn546 O561 1.905 . S
Zn547 O555 1.905 . S
Zn547 O556 1.898 . S
Zn547 O564 1.920 . S
Zn548 O551 2.080 . S
Zn548 O554 2.114 . S
Zn548 O557 2.120 . S
Zn548 O559 2.120 . S
Zn548 O560 2.114 . S
Zn548 O563 2.080 . S
C549 O554 1.166 . S
C549 O555 1.182 . S
C550 O556 1.167 . S
C550 O557 1.299 . S
O551 Zn548 2.080 . S
O551 C565 1.305 . S
O552 Zn546 1.920 . S
O552 C565 1.234 . S
C553 O558 1.167 . S
C553 O559 1.299 . S
O554 Zn548 2.114 . S
O554 C549 1.166 . S
O555 Zn547 1.905 . S
O555 C549 1.182 . S
O556 Zn547 1.898 . S
O556 C550 1.167 . S
O557 Zn548 2.120 . S
O557 C550 1.299 . S
O558 Zn546 1.898 . S
O558 C553 1.167 . S
O559 Zn548 2.120 . S
O559 C553 1.299 . S
O560 Zn548 2.114 . S
O560 C562 1.166 . S
O561 Zn546 1.905 . S
O561 C562 1.182 . S
C562 O560 1.166 . S
C562 O561 1.182 . S
O563 Zn548 2.080 . S
O563 C566 1.305 . S
O564 Zn547 1.920 . S
O564 C566 1.234 . S
C565 O551 1.305 . S
C565 O552 1.234 . S
C566 O563 1.305 . S
C566 O564 1.234 . S
Zn567 O573 1.920 . S
Zn567 O579 1.898 . S
Zn567 O582 1.905 . S
Zn568 O576 1.905 . S
Zn568 O577 1.898 . S
Zn568 O585 1.920 . S
Zn569 O572 2.080 . S
Zn569 O575 2.114 . S
Zn569 O578 2.120 . S
Zn569 O580 2.120 . S
Zn569 O581 2.114 . S
Zn569 O584 2.080 . S
C570 O575 1.166 . S
C570 O576 1.182 . S
C571 O577 1.167 . S
C571 O578 1.299 . S
O572 Zn569 2.080 . S
O572 C586 1.305 . S
O573 Zn567 1.920 . S
O573 C586 1.234 . S
C574 O579 1.167 . S
C574 O580 1.299 . S
O575 Zn569 2.114 . S
O575 C570 1.166 . S
O576 Zn568 1.905 . S
O576 C570 1.182 . S
O577 Zn568 1.898 . S
O577 C571 1.167 . S
O578 Zn569 2.120 . S
O578 C571 1.299 . S
O579 Zn567 1.898 . S
O579 C574 1.167 . S
O580 Zn569 2.120 . S
O580 C574 1.299 . S
O581 Zn569 2.114 . S
O581 C583 1.166 . S
O582 Zn567 1.905 . S
O582 C583 1.182 . S
C583 O581 1.166 . S
C583 O582 1.182 . S
O584 Zn569 2.080 . S
O584 C587 1.305 . S
O585 Zn568 1.920 . S
O585 C587 1.234 . S
C586 O572 1.305 . S
C586 O573 1.234 . S
C587 O584 1.305 . S
C587 O585 1.234 . S
Zn588 O594 1.920 . S
Zn588 O600 1.898 . S
Zn588 O603 1.905 . S
Zn589 O597 1.905 . S
Zn589 O598 1.898 . S
Zn589 O606 1.920 . S
Zn590 O593 2.080 . S
Zn590 O596 2.114 . S
Zn590 O599 2.120 . S
Zn590 O601 2.120 . S
Zn590 O602 2.114 . S
Zn590 O605 2.080 . S
C591 O596 1.166 . S
C591 O597 1.182 . S
C592 O598 1.167 . S
C592 O599 1.299 . S
O593 Zn590 2.080 . S
O593 C607 1.305 . S
O594 Zn588 1.920 . S
O594 C607 1.234 . S
C595 O600 1.167 . S
C595 O601 1.299 . S
O596 Zn590 2.114 . S
O596 C591 1.166 . S
O597 Zn589 1.905 . S
O597 C591 1.182 . S
O598 Zn589 1.898 . S
O598 C592 1.167 . S
O599 Zn590 2.120 . S
O599 C592 1.299 . S
O600 Zn588 1.898 . S
O600 C595 1.167 . S
O601 Zn590 2.120 . S
O601 C595 1.299 . S
O602 Zn590 2.114 . S
O602 C604 1.166 . S
O603 Zn588 1.905 . S
O603 C604 1.182 . S
C604 O602 1.166 . S
C604 O603 1.182 . S
O605 Zn590 2.080 . S
O605 C608 1.305 . S
O606 Zn589 1.920 . S
O606 C608 1.234 . S
C607 O593 1.305 . S
C607 O594 1.234 . S
C608 O605 1.305 . S
C608 O606 1.234 . S
Zn609 O615 1.920 . S
Zn609 O621 1.898 . S
Zn609 O624 1.905 . S
Zn610 O618 1.905 . S
Zn610 O619 1.898 . S
Zn610 O627 1.920 . S
Zn611 O614 2.080 . S
Zn611 O617 2.114 . S
Zn611 O620 2.120 1_554 S
Zn611 O622 2.120 . S
Zn611 O623 2.114 . S
Zn611 O626 2.080 . S
C612 O617 1.166 1_556 S
C612 O618 1.182 . S
C613 O619 1.167 . S
C613 O620 1.299 . S
O614 Zn611 2.080 . S
O614 C628 1.305 . S
O615 Zn609 1.920 . S
O615 C628 1.234 . S
C616 O621 1.167 . S
C616 O622 1.299 . S
O617 Zn611 2.114 . S
O617 C612 1.166 1_554 S
O618 Zn610 1.905 . S
O618 C612 1.182 . S
O619 Zn610 1.898 . S
O619 C613 1.167 . S
O620 Zn611 2.120 1_556 S
O620 C613 1.299 . S
O621 Zn609 1.898 . S
O621 C616 1.167 . S
O622 Zn611 2.120 . S
O622 C616 1.299 . S
O623 Zn611 2.114 . S
O623 C625 1.166 . S
O624 Zn609 1.905 . S
O624 C625 1.182 . S
C625 O623 1.166 . S
C625 O624 1.182 . S
O626 Zn611 2.080 . S
O626 C629 1.305 1_554 S
O627 Zn610 1.920 . S
O627 C629 1.234 . S
C628 O614 1.305 . S
C628 O615 1.234 . S
C629 O626 1.305 1_556 S
C629 O627 1.234 . S
Zn630 O636 1.920 . S
Zn630 O642 1.898 . S
Zn630 O645 1.905 . S
Zn631 O639 1.905 1_554 S
Zn631 O640 1.898 . S
Zn631 O648 1.920 1_554 S
Zn632 O635 2.080 . S
Zn632 O638 2.114 . S
Zn632 O641 2.120 . S
Zn632 O643 2.120 . S
Zn632 O644 2.114 . S
Zn632 O647 2.080 . S
C633 O638 1.166 . S
C633 O639 1.182 . S
C634 O640 1.167 1_556 S
C634 O641 1.299 . S
O635 Zn632 2.080 . S
O635 C649 1.305 . S
O636 Zn630 1.920 . S
O636 C649 1.234 . S
C637 O642 1.167 . S
C637 O643 1.299 . S
O638 Zn632 2.114 . S
O638 C633 1.166 . S
O639 Zn631 1.905 1_556 S
O639 C633 1.182 . S
O640 Zn631 1.898 . S
O640 C634 1.167 1_554 S
O641 Zn632 2.120 . S
O641 C634 1.299 . S
O642 Zn630 1.898 . S
O642 C637 1.167 . S
O643 Zn632 2.120 . S
O643 C637 1.299 . S
O644 Zn632 2.114 . S
O644 C646 1.166 . S
O645 Zn630 1.905 . S
O645 C646 1.182 . S
C646 O644 1.166 . S
C646 O645 1.182 . S
O647 Zn632 2.080 . S
O647 C650 1.305 . S
O648 Zn631 1.920 1_556 S
O648 C650 1.234 . S
C649 O635 1.305 . S
C649 O636 1.234 . S
C650 O647 1.305 . S
C650 O648 1.234 . S
Zn651 O657 1.920 . S
Zn651 O663 1.898 . S
Zn651 O666 1.905 . S
Zn652 O660 1.905 . S
Zn652 O661 1.898 . S
Zn652 O669 1.920 . S
Zn653 O656 2.080 . S
Zn653 O659 2.114 . S
Zn653 O662 2.120 . S
Zn653 O664 2.120 . S
Zn653 O665 2.114 . S
Zn653 O668 2.080 . S
C654 O659 1.166 . S
C654 O660 1.182 . S
C655 O661 1.167 . S
C655 O662 1.299 . S
O656 Zn653 2.080 . S
O656 C670 1.305 . S
O657 Zn651 1.920 . S
O657 C670 1.234 . S
C658 O663 1.167 . S
C658 O664 1.299 . S
O659 Zn653 2.114 . S
O659 C654 1.166 . S
O660 Zn652 1.905 . S
O660 C654 1.182 . S
O661 Zn652 1.898 . S
O661 C655 1.167 . S
O662 Zn653 2.120 . S
O662 C655 1.299 . S
O663 Zn651 1.898 . S
O663 C658 1.167 . S
O664 Zn653 2.120 . S
O664 C658 1.299 . S
O665 Zn653 2.114 . S
O665 C667 1.166 . S
O666 Zn651 1.905 . S
O666 C667 1.182 . S
C667 O665 1.166 . S
C667 O666 1.182 . S
O668 Zn653 2.080 . S
O668 C671 1.305 . S
O669 Zn652 1.920 . S
O669 C671 1.234 . S
C670 O656 1.305 . S
C670 O657 1.234 . S
C671 O668 1.305 . S
C671 O669 1.234 . S
C3 C70 2.177 . S
C4 C37 2.177 1_545 S
C58 C28 2.177 . S
C49 C79 2.177 1_566 S
C112 C100 2.177 . S
C121 C133 2.177 1_565 S
C154 C142 2.177 . S
C91 C163 2.177 1_564 S
C188 C235 1.902 . S
C209 C175 1.902 1_545 S
C229 C196 1.902 . S
C250 C214 1.902 1_565 S
C272 C280 1.902 . S
C293 C298 1.902 1_545 S
C322 C313 1.902 . S
C259 C335 1.902 1_545 S
C339 C406 2.177 . S
C340 C360 2.177 1_556 S
C361 C394 2.177 . S
C415 C385 2.177 . S
C423 C448 2.177 . S
C469 C457 2.177 1_554 S
C478 C490 2.177 . S
C424 C499 2.177 . S
C571 C523 1.902 . S
C508 C545 1.902 . S
C565 C532 1.902 . S
C550 C586 1.902 . S
C616 C608 1.902 . S
C634 C629 1.902 . S
C658 C649 1.902 . S
C671 C595 1.902 . S
C570 C20 1.843 . S
C40 C184 1.843 1_455 S
C61 C541 1.843 . S
C82 C213 1.843 . S
C103 C625 1.843 . S
C297 C124 1.843 . S
C667 C145 1.843 . S
C166 C268 1.843 1_455 S
C187 C419 0.890 . S
C19 C208 0.893 . S
C376 C230 0.890 . S
C62 C251 0.890 . S
C461 C271 0.890 . S
C146 C292 0.890 . S
C314 C503 0.890 . S
C334 C104 0.893 . S
C356 C234 1.843 . S
C377 C507 1.843 . S
C397 C205 1.843 . S
C418 C549 1.843 1_655 S
C440 C289 1.843 . S
C460 C633 1.843 1_655 S
C331 C481 1.843 . S
C502 C604 1.843 . S
C83 C524 0.890 . S
C355 C544 0.890 . S
C41 C566 0.890 . S
C398 C587 0.893 . S
C125 C607 0.890 . S
C628 C482 0.893 . S
C650 C167 0.890 . S
C439 C670 0.890 . S
C16 C87 0.535 1_565 S
C24 C108 0.535 . S
C45 C129 0.535 1_545 S
C150 C66 0.535 1_556 S
C255 C171 0.465 1_545 S
C276 C192 0.465 . S
C226 C310 0.465 1_545 S
C247 C318 0.465 1_554 S
C352 C436 0.535 . S
C444 C373 0.535 1_556 S
C465 C381 0.535 . S
C486 C402 0.535 . S
C591 C520 0.465 . S
C528 C612 0.465 1_554 S
C646 C562 0.465 . S
C583 C654 0.465 . S
C151 C7 1.108 . S
C25 C88 1.108 . S
C46 C109 1.108 . S
C130 C67 1.108 . S
C172 C319 0.846 . S
C256 C193 0.846 . S
C277 C217 0.846 . S
C238 C301 0.846 . S
C343 C487 1.108 . S
C427 C364 1.108 . S
C445 C382 1.108 . S
C466 C403 1.108 . S
C511 C655 0.846 . S
C592 C529 0.846 . S
C553 C613 0.846 . S
C637 C574 0.846 . S
