# Generated by pormake.
# Topology uki, (4)-cn, num edge types: 1
# Building blocks:
#     Node 0, Type 0, BuildingBlock: KUFVIS_clean_sbu_0, # of connection points: 4
#     Node 1, Type 0, BuildingBlock: KUFVIS_clean_sbu_0, # of connection points: 4
#     Node 2, Type 0, BuildingBlock: KUFVIS_clean_sbu_0, # of connection points: 4
#     Node 3, Type 0, BuildingBlock: KUFVIS_clean_sbu_0, # of connection points: 4
#     Node 4, Type 0, BuildingBlock: KUFVIS_clean_sbu_0, # of connection points: 4
#     Node 5, Type 0, BuildingBlock: KUFVIS_clean_sbu_0, # of connection points: 4
#     Node 6, Type 0, BuildingBlock: KUFVIS_clean_sbu_0, # of connection points: 4
#     Node 7, Type 0, BuildingBlock: KUFVIS_clean_sbu_0, # of connection points: 4
#     Node 8, Type 0, BuildingBlock: KUFVIS_clean_sbu_0, # of connection points: 4
#     Node 9, Type 0, BuildingBlock: KUFVIS_clean_sbu_0, # of connection points: 4
#     Node 10, Type 0, BuildingBlock: KUFVIS_clean_sbu_0, # of connection points: 4
#     Node 11, Type 0, BuildingBlock: KUFVIS_clean_sbu_0, # of connection points: 4
#     Node 12, Type 0, BuildingBlock: KUFVIS_clean_sbu_0, # of connection points: 4
#     Node 13, Type 0, BuildingBlock: KUFVIS_clean_sbu_0, # of connection points: 4
#     Node 14, Type 0, BuildingBlock: KUFVIS_clean_sbu_0, # of connection points: 4
#     Node 15, Type 0, BuildingBlock: KUFVIS_clean_sbu_0, # of connection points: 4
#     Edge 16, Type (0, 0), BuildingBlock: XUDNAN_clean_linker_2, # of connection points: 2
#     Edge 17, Type (0, 0), BuildingBlock: XUDNAN_clean_linker_2, # of connection points: 2
#     Edge 18, Type (0, 0), BuildingBlock: XUDNAN_clean_linker_2, # of connection points: 2
#     Edge 19, Type (0, 0), BuildingBlock: XUDNAN_clean_linker_2, # of connection points: 2
#     Edge 20, Type (0, 0), BuildingBlock: XUDNAN_clean_linker_2, # of connection points: 2
#     Edge 21, Type (0, 0), BuildingBlock: XUDNAN_clean_linker_2, # of connection points: 2
#     Edge 22, Type (0, 0), BuildingBlock: XUDNAN_clean_linker_2, # of connection points: 2
#     Edge 23, Type (0, 0), BuildingBlock: XUDNAN_clean_linker_2, # of connection points: 2
#     Edge 24, Type (0, 0), BuildingBlock: XUDNAN_clean_linker_2, # of connection points: 2
#     Edge 25, Type (0, 0), BuildingBlock: XUDNAN_clean_linker_2, # of connection points: 2
#     Edge 26, Type (0, 0), BuildingBlock: XUDNAN_clean_linker_2, # of connection points: 2
#     Edge 27, Type (0, 0), BuildingBlock: XUDNAN_clean_linker_2, # of connection points: 2
#     Edge 28, Type (0, 0), BuildingBlock: XUDNAN_clean_linker_2, # of connection points: 2
#     Edge 29, Type (0, 0), BuildingBlock: XUDNAN_clean_linker_2, # of connection points: 2
#     Edge 30, Type (0, 0), BuildingBlock: XUDNAN_clean_linker_2, # of connection points: 2
#     Edge 31, Type (0, 0), BuildingBlock: XUDNAN_clean_linker_2, # of connection points: 2
#     Edge 32, Type (0, 0), BuildingBlock: XUDNAN_clean_linker_2, # of connection points: 2
#     Edge 33, Type (0, 0), BuildingBlock: XUDNAN_clean_linker_2, # of connection points: 2
#     Edge 34, Type (0, 0), BuildingBlock: XUDNAN_clean_linker_2, # of connection points: 2
#     Edge 35, Type (0, 0), BuildingBlock: XUDNAN_clean_linker_2, # of connection points: 2
#     Edge 36, Type (0, 0), BuildingBlock: XUDNAN_clean_linker_2, # of connection points: 2
#     Edge 37, Type (0, 0), BuildingBlock: XUDNAN_clean_linker_2, # of connection points: 2
#     Edge 38, Type (0, 0), BuildingBlock: XUDNAN_clean_linker_2, # of connection points: 2
#     Edge 39, Type (0, 0), BuildingBlock: XUDNAN_clean_linker_2, # of connection points: 2
#     Edge 40, Type (0, 0), BuildingBlock: XUDNAN_clean_linker_2, # of connection points: 2
#     Edge 41, Type (0, 0), BuildingBlock: XUDNAN_clean_linker_2, # of connection points: 2
#     Edge 42, Type (0, 0), BuildingBlock: XUDNAN_clean_linker_2, # of connection points: 2
#     Edge 43, Type (0, 0), BuildingBlock: XUDNAN_clean_linker_2, # of connection points: 2
#     Edge 44, Type (0, 0), BuildingBlock: XUDNAN_clean_linker_2, # of connection points: 2
#     Edge 45, Type (0, 0), BuildingBlock: XUDNAN_clean_linker_2, # of connection points: 2
#     Edge 46, Type (0, 0), BuildingBlock: XUDNAN_clean_linker_2, # of connection points: 2
#     Edge 47, Type (0, 0), BuildingBlock: XUDNAN_clean_linker_2, # of connection points: 2
# Relax obj value: 0.140
# Max RMSD: 0.244
# Mean RMSD: 0.244
data_MOF--net-uki--node1-KUFVIS_clean_sbu_0--edge1-XUDNAN_clean_linker_2
_symmetry_space_group_name_H-M    P1
_symmetry_Int_Tables_number       1
_symmetry_cell_setting            triclinic
loop_
_symmetry_equiv_pos_as_xyz
'x, y, z'
_cell_length_a     31.335523
_cell_length_b     31.390449
_cell_length_c     66.255941
_cell_angle_alpha  89.893666
_cell_angle_beta   90.022874
_cell_angle_gamma 90.197869
loop_
_atom_site_label
_atom_site_type_symbol
_atom_site_fract_x
_atom_site_fract_y
_atom_site_fract_z
_atom_type_partial_charge
Mn0 Mn 0.07725 0.22242 0.3144 0.0
Mn1 Mn 0.01022 0.23517 0.35352 0.0
C2 C 0.0077 0.24402 0.30867 0.0
C3 C 0.1275 0.25425 0.29319 0.0
C4 C 0.03348 0.1485 0.33631 0.0
O5 O 0.11766 0.22379 0.33868 0.0
O6 O 0.07041 0.23707 0.36345 0.0
C7 C 0.03158 0.32427 0.36413 0.0
N8 N 0.00218 0.29456 0.35846 0.0
C9 C 0.94633 0.34699 0.35784 0.0
C10 C 0.97595 0.37808 0.36383 0.0
C11 C 0.01876 0.36666 0.36697 0.0
C12 C 0.96086 0.30516 0.35547 0.0
H13 H 0.06458 0.3157 0.3664 0.0
C14 C 0.10872 0.2314 0.35713 0.0
O15 O 0.1262 0.21301 0.29518 0.0
O16 O 0.10132 0.27623 0.30395 0.0
N17 N 0.95129 0.2345 0.34586 0.0
C18 C 0.92745 0.2014 0.33871 0.0
C19 C 0.88424 0.2079 0.33404 0.0
C20 C 0.86598 0.24826 0.33683 0.0
C21 C 0.8911 0.28179 0.34426 0.0
C22 C 0.93389 0.27333 0.34883 0.0
H23 H 0.94138 0.17038 0.33641 0.0
O24 O 0.02985 0.2271 0.29427 0.0
O25 O 0.02722 0.2479 0.32589 0.0
O26 O 0.05747 0.16145 0.32188 0.0
O27 O 0.01583 0.17344 0.34904 0.0
C28 C 0.87563 0.3235 0.34686 0.0
C29 C 0.90321 0.35607 0.35366 0.0
H30 H 0.96629 0.41089 0.36585 0.0
H31 H 0.04186 0.39053 0.37147 0.0
H32 H 0.86511 0.18194 0.3282 0.0
H33 H 0.83274 0.25325 0.33305 0.0
H34 H 0.84272 0.33102 0.34339 0.0
H35 H 0.89109 0.38814 0.35532 0.0
Mn36 Mn 0.22173 0.92487 0.71364 0.0
Mn37 Mn 0.22479 0.99034 0.67339 0.0
C38 C 0.23963 -0.00393 0.71768 0.0
C39 C 0.2591 0.87983 0.73542 0.0
C40 C 0.1423 0.96087 0.69318 0.0
O41 O 0.22311 0.88307 0.68991 0.0
O42 O 0.22932 0.93003 0.66424 0.0
C43 C 0.3135 0.97541 0.65994 0.0
N44 N 0.28264 0.00267 0.66634 0.0
C45 C 0.33075 0.06244 0.66428 0.0
C46 C 0.36298 0.03505 0.65754 0.0
C47 C 0.3543 0.99135 0.65537 0.0
C48 C 0.29054 0.04483 0.66834 0.0
H49 H 0.30703 0.94176 0.6584 0.0
C50 C 0.2271 0.89178 0.67111 0.0
O51 O 0.21768 0.87798 0.73439 0.0
O52 O 0.27822 0.90549 0.72313 0.0
N53 N 0.22099 0.04933 0.68043 0.0
C54 C 0.18755 0.07072 0.68872 0.0
C55 C 0.19169 0.1144 0.69284 0.0
C56 C 0.23006 0.13564 0.68834 0.0
C57 C 0.26397 0.11299 0.67974 0.0
C58 C 0.25789 0.06955 0.67583 0.0
H59 H 0.15813 0.05445 0.69239 0.0
O60 O 0.22547 0.97398 0.7328 0.0
O61 O 0.24262 0.97573 0.70067 0.0
O62 O 0.1586 0.93905 0.70756 0.0
O63 O 0.16434 0.98018 0.67975 0.0
C64 C 0.30394 0.13153 0.67542 0.0
C65 C 0.33729 0.1063 0.66766 0.0
H66 H 0.39463 0.04714 0.65421 0.0
H67 H 0.37909 0.96998 0.65029 0.0
H68 H 0.16549 0.13161 0.69961 0.0
H69 H 0.23329 0.16923 0.69176 0.0
H70 H 0.30961 0.16502 0.67832 0.0
H71 H 0.36808 0.12079 0.6647 0.0
Mn72 Mn 0.90797 0.77517 0.30414 0.0
Mn73 Mn 0.97334 0.76155 0.34392 0.0
C74 C 0.97972 0.76233 0.29876 0.0
C75 C 0.86078 0.7423 0.28173 0.0
C76 C 0.94405 0.84854 0.32932 0.0
O77 O 0.86638 0.76719 0.32764 0.0
O78 O 0.91291 0.75318 0.35254 0.0
C79 C 0.95824 0.66927 0.34989 0.0
N80 N 0.98564 0.70218 0.34627 0.0
C81 C 0.04567 0.6547 0.34513 0.0
C82 C 0.01815 0.62031 0.34895 0.0
C83 C 0.97421 0.62762 0.35126 0.0
C84 C 0.02785 0.69542 0.3437 0.0
H85 H 0.92445 0.67479 0.35168 0.0
C86 C 0.87471 0.75747 0.34591 0.0
O87 O 0.8587 0.78314 0.28493 0.0
O88 O 0.88904 0.72119 0.29174 0.0
N89 N 0.03277 0.76847 0.3381 0.0
C90 C 0.05515 0.80523 0.33506 0.0
C91 C 0.09958 0.80346 0.33241 0.0
C92 C 0.12059 0.76403 0.33323 0.0
C93 C 0.09704 0.72679 0.33699 0.0
C94 C 0.05286 0.73055 0.33955 0.0
H95 H 0.03922 0.83566 0.33455 0.0
O96 O 0.95625 0.778 0.28447 0.0
O97 O 0.95999 0.75314 0.31548 0.0
O98 O 0.9223 0.83611 0.314 0.0
O99 O 0.96275 0.82325 0.34164 0.0
C100 C 0.11573 0.68617 0.33854 0.0
C101 C 0.09008 0.65018 0.34267 0.0
H102 H 0.03038 0.58816 0.35009 0.0
H103 H 0.95274 0.60123 0.35414 0.0
H104 H 0.11758 0.8324 0.32971 0.0
H105 H 0.15484 0.76277 0.33112 0.0
H106 H 0.14981 0.68225 0.33659 0.0
H107 H 0.1048 0.61909 0.34378 0.0
Mn108 Mn 0.76084 0.05933 0.7191 0.0
Mn109 Mn 0.74889 0.00661 0.6752 0.0
C110 C 0.74168 0.98844 0.71999 0.0
C111 C 0.72974 0.10427 0.74286 0.0
C112 C 0.8354 0.02627 0.69394 0.0
O113 O 0.75773 0.10613 0.69814 0.0
O114 O 0.74496 0.06947 0.66964 0.0
C115 C 0.65892 0.02777 0.66621 0.0
N116 N 0.68978 -0.00193 0.66938 0.0
C117 C 0.63999 0.94074 0.66385 0.0
C118 C 0.60774 0.97072 0.66034 0.0
C119 C 0.61724 0.01442 0.66156 0.0
C120 C 0.68106 0.95595 0.66815 0.0
H121 H 0.66605 0.06138 0.66725 0.0
C122 C 0.74979 0.10453 0.67932 0.0
O123 O 0.77096 0.10318 0.74062 0.0
O124 O 0.70716 0.07941 0.73152 0.0
N125 N 0.75159 0.946 0.67805 0.0
C126 C 0.78523 0.92136 0.68378 0.0
C127 C 0.78037 0.8769 0.68454 0.0
C128 C 0.74113 0.85823 0.67927 0.0
C129 C 0.70705 0.88422 0.67331 0.0
C130 C 0.71383 0.92833 0.67274 0.0
H131 H 0.81541 0.93554 0.68794 0.0
O132 O 0.75809 0.0068 0.73575 0.0
O133 O 0.73607 0.01271 0.70416 0.0
O134 O 0.82214 0.04414 0.7101 0.0
O135 O 0.81048 0.01279 0.68006 0.0
C136 C 0.66623 0.86818 0.66854 0.0
C137 C 0.63274 0.89641 0.6638 0.0
H138 H 0.57545 0.96056 0.65696 0.0
H139 H 0.59245 0.03774 0.65902 0.0
H140 H 0.80675 0.85708 0.68926 0.0
H141 H 0.73738 0.82396 0.68008 0.0
H142 H 0.66003 0.83421 0.66887 0.0
H143 H 0.60131 0.88372 0.66052 0.0
Mn144 Mn 0.08653 0.26009 0.97562 0.0
Mn145 Mn 0.03946 0.26978 0.93004 0.0
C146 C 0.01592 0.24183 0.97214 0.0
C147 C 0.12767 0.22034 0.99797 0.0
C148 C 0.05386 0.34444 0.95826 0.0
O149 O 0.1363 0.26642 0.95636 0.0
O150 O 0.10309 0.26881 0.92629 0.0
C151 C 0.06421 0.18653 0.91276 0.0
N152 N 0.03326 0.21456 0.91826 0.0
C153 C 0.97789 0.1664 0.90746 0.0
C154 C 0.0092 0.13717 0.90154 0.0
C155 C 0.05253 0.14728 0.90422 0.0
C156 C 0.99145 0.20521 0.9157 0.0
H157 H 0.09756 0.19399 0.91492 0.0
C158 C 0.13704 0.26792 0.93714 0.0
O159 O 0.12633 0.26162 0.99922 0.0
O160 O 0.10588 0.20243 0.98368 0.0
N161 N 0.97838 0.27033 0.93122 0.0
C162 C 0.95209 0.30091 0.9388 0.0
C163 C 0.9077 0.29491 0.938 0.0
C164 C 0.89077 0.25778 0.92929 0.0
C165 C 0.91841 0.22703 0.92136 0.0
C166 C 0.96239 0.23483 0.92248 0.0
H167 H 0.96484 0.32942 0.94563 0.0
O168 O 0.03178 0.25011 0.98981 0.0
O169 O 0.04242 0.24321 0.95696 0.0
O170 O 0.07121 0.3232 0.97251 0.0
O171 O 0.0429 0.32801 0.94138 0.0
C172 C 0.90406 0.18846 0.91284 0.0
C173 C 0.93378 0.15818 0.90589 0.0
H174 H 0.00032 0.10671 0.89509 0.0
H175 H 0.07687 0.12478 0.89979 0.0
H176 H 0.88658 0.31873 0.94421 0.0
H177 H 0.85652 0.25306 0.92891 0.0
H178 H 0.87025 0.1815 0.91182 0.0
H179 H 0.92236 0.12842 0.89961 0.0
Mn180 Mn 0.26946 0.89916 0.04886 0.0
Mn181 Mn 0.2745 0.94691 0.09437 0.0
C182 C 0.25779 0.971 0.05094 0.0
C183 C 0.22985 0.8596 0.02578 0.0
C184 C 0.35279 0.92849 0.0691 0.0
O185 O 0.26911 0.84979 0.06847 0.0
O186 O 0.27074 0.88349 0.09826 0.0
C187 C 0.18659 0.9245 0.10704 0.0
N188 N 0.21681 0.95464 0.10301 0.0
C189 C 0.16688 0.01121 0.10924 0.0
C190 C 0.13533 0.98077 0.11358 0.0
C191 C 0.14524 0.93723 0.11246 0.0
C192 C 0.20749 -0.00338 0.10388 0.0
H193 H 0.19388 0.89098 0.10602 0.0
C194 C 0.26911 0.84939 0.08765 0.0
O195 O 0.2713 0.85804 0.02582 0.0
O196 O 0.21173 0.88369 0.03908 0.0
N197 N 0.27766 0.0078 0.09363 0.0
C198 C 0.31247 0.03306 0.09037 0.0
C199 C 0.30826 0.07753 0.09142 0.0
C200 C 0.26851 0.09553 0.09611 0.0
C201 C 0.23361 0.06885 0.10024 0.0
C202 C 0.23985 0.02475 0.09918 0.0
H203 H 0.34313 0.01943 0.08679 0.0
O204 O 0.26641 0.95349 0.03372 0.0
O205 O 0.25376 0.94535 0.06637 0.0
O206 O 0.33291 0.91051 0.0545 0.0
O207 O 0.3345 0.94156 0.08524 0.0
C208 C 0.19299 0.08425 0.10557 0.0
C209 C 0.15959 0.05546 0.10999 0.0
H210 H 0.10338 0.99047 0.11774 0.0
H211 H 0.12101 0.91354 0.1157 0.0
H212 H 0.33552 0.09788 0.08851 0.0
H213 H 0.26529 0.12985 0.09675 0.0
H214 H 0.1871 0.11819 0.10636 0.0
H215 H 0.12847 0.06769 0.11402 0.0
Mn216 Mn 0.9044 0.71633 0.98 0.0
Mn217 Mn 0.95134 0.71015 0.93426 0.0
C218 C 0.97652 0.72767 0.97742 0.0
C219 C 0.86575 0.75626 1.00327 0.0
C220 C 0.93204 0.63255 0.95999 0.0
O221 O 0.85455 0.71679 0.96057 0.0
O222 O 0.88787 0.7146 0.93063 0.0
C223 C 0.9304 0.79791 0.92118 0.0
N224 N 0.96006 0.76742 0.92521 0.0
C225 C 0.0176 0.81611 0.91801 0.0
C226 C 0.98767 0.84793 0.91367 0.0
C227 C 0.94388 0.83879 0.91528 0.0
C228 C 0.00227 0.77602 0.92389 0.0
H229 H 0.89672 0.79119 0.92256 0.0
C230 C 0.8539 0.71665 0.94136 0.0
O231 O 0.86374 0.7149 1.00329 0.0
O232 O 0.88972 0.77419 0.98976 0.0
N233 N 0.01228 0.70621 0.93473 0.0
C234 C 0.03693 0.67122 0.93814 0.0
C235 C 0.08153 0.6747 0.93668 0.0
C236 C 0.10026 0.71388 0.93142 0.0
C237 C 0.07415 0.74895 0.92715 0.0
C238 C 0.0299 0.74346 0.92867 0.0
H239 H 0.02276 0.64097 0.94214 0.0
O240 O 0.95931 0.71932 0.99479 0.0
O241 O 0.95049 0.73151 0.96214 0.0
O242 O 0.91477 0.65278 0.97462 0.0
O243 O 0.94501 0.65051 0.94371 0.0
C244 C 0.09029 0.789 0.92124 0.0
C245 C 0.06204 0.82262 0.91675 0.0
H246 H -0.00206 0.8795 0.90911 0.0
H247 H 0.92058 0.86324 0.91204 0.0
H248 H 0.10141 0.6473 0.93971 0.0
H249 H 0.13467 0.71653 0.93045 0.0
H250 H 0.12438 0.7943 0.92008 0.0
H251 H 0.07484 0.85332 0.91229 0.0
Mn252 Mn 0.7256 0.07931 0.05019 0.0
Mn253 Mn 0.71871 0.03476 0.09645 0.0
C254 C 0.73654 0.00744 0.05372 0.0
C255 C 0.76603 0.11505 0.02607 0.0
C256 C 0.64141 0.05198 0.07026 0.0
O257 O 0.72628 0.13033 0.06885 0.0
O258 O 0.72263 0.0984 0.09914 0.0
C259 C 0.80624 0.05785 0.10946 0.0
N260 N 0.77609 0.02751 0.10569 0.0
C261 C 0.82583 0.97128 0.11302 0.0
C262 C 0.85731 0.00194 0.11708 0.0
C263 C 0.84745 0.04541 0.1153 0.0
C264 C 0.78534 0.98559 0.10725 0.0
H265 H 0.79903 0.0913 0.1079 0.0
C266 C 0.72535 0.13183 0.08805 0.0
O267 O 0.72465 0.11745 0.02592 0.0
O268 O 0.78367 0.09315 0.04037 0.0
N269 N 0.7154 0.97386 0.09679 0.0
C270 C 0.6806 0.94846 0.09377 0.0
C271 C 0.68473 0.90407 0.09554 0.0
C272 C 0.72437 0.88632 0.10067 0.0
C273 C 0.75923 0.9132 0.10455 0.0
C274 C 0.75306 0.95721 0.10279 0.0
H275 H 0.65004 0.9619 0.08982 0.0
O276 O 0.72824 0.02372 0.03618 0.0
O277 O 0.74053 0.03423 0.06867 0.0
O278 O 0.66194 0.0692 0.05564 0.0
O279 O 0.65904 0.03954 0.0867 0.0
C280 C 0.79975 0.89808 0.11026 0.0
C281 C 0.83309 0.92709 0.11441 0.0
H282 H 0.88916 0.99247 0.12156 0.0
H283 H 0.87162 0.06926 0.11833 0.0
H284 H 0.65749 0.88358 0.09282 0.0
H285 H 0.72753 0.85205 0.10184 0.0
H286 H 0.80561 0.86419 0.11156 0.0
H287 H 0.86413 0.91508 0.11876 0.0
Mn288 Mn 0.56334 0.72872 0.81274 0.0
Mn289 Mn 0.49732 0.74356 0.85225 0.0
C290 C 0.49443 0.75316 0.80743 0.0
C291 C 0.61325 0.75725 0.79026 0.0
C292 C 0.51438 0.65666 0.83394 0.0
O293 O 0.60494 0.72805 0.8366 0.0
O294 O 0.5577 0.73955 0.86155 0.0
C295 C 0.52678 0.82969 0.86404 0.0
N296 N 0.49461 0.8029 0.85846 0.0
C297 C 0.44289 0.85918 0.86074 0.0
C298 C 0.47542 0.8873 0.86666 0.0
C299 C 0.51755 0.87249 0.86828 0.0
C300 C 0.45394 0.81679 0.85688 0.0
H301 H 0.55923 0.81849 0.86521 0.0
C302 C 0.59589 0.73345 0.85523 0.0
O303 O 0.60961 0.71625 0.79255 0.0
O304 O 0.59007 0.78099 0.80174 0.0
N305 N 0.43807 0.7484 0.84558 0.0
C306 C 0.41105 0.71808 0.8382 0.0
C307 C 0.36801 0.72824 0.83486 0.0
C308 C 0.35312 0.76931 0.83931 0.0
C309 C 0.38142 0.79986 0.84708 0.0
C310 C 0.42393 0.78783 0.85019 0.0
H311 H 0.42237 0.68659 0.83457 0.0
O312 O 0.51564 0.73527 0.79302 0.0
O313 O 0.51439 0.75692 0.82459 0.0
O314 O 0.54101 0.66868 0.82038 0.0
O315 O 0.49719 0.68219 0.84651 0.0
C316 C 0.36942 0.84214 0.85127 0.0
C317 C 0.40013 0.87178 0.85808 0.0
H318 H 0.46849 0.92042 0.8698 0.0
H319 H 0.54286 0.89406 0.87273 0.0
H320 H 0.34644 0.70457 0.82874 0.0
H321 H 0.32002 0.77718 0.83648 0.0
H322 H 0.33681 0.8524 0.84895 0.0
H323 H 0.39064 0.90437 0.86095 0.0
Mn324 Mn 0.73367 0.42455 0.21491 0.0
Mn325 Mn 0.71807 0.48925 0.17488 0.0
C326 C 0.7381 0.49766 0.2189 0.0
C327 C 0.78039 0.38467 0.2347 0.0
C328 C 0.64557 0.451 0.19917 0.0
O329 O 0.73641 0.38296 0.19119 0.0
O330 O 0.72776 0.4296 0.16578 0.0
C331 C 0.80571 0.48308 0.15848 0.0
N332 N 0.77308 0.50724 0.16568 0.0
C333 C 0.81442 0.57149 0.16189 0.0
C334 C 0.84838 0.54733 0.15433 0.0
C335 C 0.84403 0.50292 0.15267 0.0
C336 C 0.77714 0.54992 0.16759 0.0
H337 H 0.80258 0.44892 0.15724 0.0
C338 C 0.73362 0.3917 0.17242 0.0
O339 O 0.73964 0.37684 0.23497 0.0
O340 O 0.79383 0.41352 0.22225 0.0
N341 N 0.70853 0.54801 0.18098 0.0
C342 C 0.67203 0.56691 0.1876 0.0
C343 C 0.67092 0.61136 0.18994 0.0
C344 C 0.70701 0.63595 0.18506 0.0
C345 C 0.7436 0.61595 0.17752 0.0
C346 C 0.7428 0.57156 0.17547 0.0
H347 H 0.64409 0.54821 0.19126 0.0
O348 O 0.73291 0.4729 0.23435 0.0
O349 O 0.74265 0.47879 0.20154 0.0
O350 O 0.66866 0.43002 0.21164 0.0
O351 O 0.66061 0.47297 0.18449 0.0
C352 C 0.78066 0.63835 0.17173 0.0
C353 C 0.8161 0.61613 0.16399 0.0
H354 H 0.87795 0.56253 0.14978 0.0
H355 H 0.87015 0.48403 0.14691 0.0
H356 H 0.64235 0.6266 0.19551 0.0
H357 H 0.70609 0.67021 0.18695 0.0
H358 H 0.78228 0.67268 0.17321 0.0
H359 H 0.84451 0.63369 0.15969 0.0
Mn360 Mn 0.42635 0.26616 0.80865 0.0
Mn361 Mn 0.49352 0.2718 0.84833 0.0
C362 C 0.49927 0.2589 0.80392 0.0
C363 C 0.38382 0.2248 0.78743 0.0
C364 C 0.45615 0.34958 0.82807 0.0
O365 O 0.3856 0.25992 0.83257 0.0
O366 O 0.43368 0.26319 0.85774 0.0
C367 C 0.48382 0.18223 0.86166 0.0
N368 N 0.50924 0.21487 0.85529 0.0
C369 C 0.57182 0.17086 0.85723 0.0
C370 C 0.54636 0.13683 0.8639 0.0
C371 C 0.50214 0.14252 0.86606 0.0
C372 C 0.55172 0.20956 0.85289 0.0
H373 H 0.44982 0.18646 0.86334 0.0
C374 C 0.39521 0.2597 0.8513 0.0
O375 O 0.37769 0.26562 0.78887 0.0
O376 O 0.41279 0.20821 0.79888 0.0
N377 N 0.55243 0.27986 0.84169 0.0
C378 C 0.57264 0.31622 0.83565 0.0
C379 C 0.61704 0.31593 0.83276 0.0
C380 C 0.64024 0.27847 0.8364 0.0
C381 C 0.6189 0.24183 0.84319 0.0
C382 C 0.57464 0.24407 0.84586 0.0
H383 H 0.555 0.34515 0.83291 0.0
O384 O 0.47465 0.26904 0.78897 0.0
O385 O 0.48034 0.25234 0.8211 0.0
O386 O 0.43352 0.32995 0.81497 0.0
O387 O 0.47949 0.33124 0.84129 0.0
C388 C 0.63985 0.20329 0.84761 0.0
C389 C 0.61633 0.16787 0.85467 0.0
H390 H 0.56039 0.10618 0.86736 0.0
H391 H 0.48225 0.11637 0.87114 0.0
H392 H 0.63332 0.34446 0.8277 0.0
H393 H 0.67446 0.27831 0.83408 0.0
H394 H 0.67404 0.20054 0.84564 0.0
H395 H 0.63278 0.13836 0.85796 0.0
Mn396 Mn 0.25923 0.56572 0.21836 0.0
Mn397 Mn 0.26726 0.49556 0.17999 0.0
C398 C 0.24953 0.49397 0.22466 0.0
C399 C 0.2174 0.61398 0.23626 0.0
C400 C 0.34398 0.53096 0.20221 0.0
O401 O 0.25886 0.6041 0.19349 0.0
O402 O 0.26087 0.55452 0.16918 0.0
C403 C 0.179 0.50569 0.16482 0.0
N404 N 0.21055 0.48026 0.17217 0.0
C405 C 0.16529 0.41832 0.17028 0.0
C406 C 0.13238 0.44381 0.1626 0.0
C407 C 0.13923 0.48771 0.15992 0.0
C408 C 0.20406 0.43812 0.17511 0.0
H409 H 0.18413 0.53945 0.16274 0.0
C410 C 0.25898 0.59339 0.17496 0.0
O411 O 0.25878 0.61713 0.2362 0.0
O412 O 0.20061 0.58356 0.2257 0.0
N413 N 0.27347 0.43707 0.18759 0.0
C414 C 0.30926 0.41656 0.19405 0.0
C415 C 0.30791 0.37235 0.19731 0.0
C416 C 0.27015 0.34956 0.19343 0.0
C417 C 0.23432 0.37108 0.18597 0.0
C418 C 0.23752 0.41517 0.18305 0.0
H419 H 0.33852 0.43381 0.19686 0.0
O420 O 0.25683 0.52027 0.23932 0.0
O421 O 0.24553 0.51083 0.20675 0.0
O422 O 0.32335 0.55428 0.21467 0.0
O423 O 0.32639 0.50909 0.18818 0.0
C424 C 0.19577 0.35041 0.181 0.0
C425 C 0.1612 0.37405 0.17326 0.0
H426 H 0.10173 0.43001 0.15871 0.0
H427 H 0.11396 0.50762 0.15405 0.0
H428 H 0.33592 0.35589 0.20279 0.0
H429 H 0.26921 0.31548 0.19599 0.0
H430 H 0.19234 0.31635 0.18311 0.0
H431 H 0.13162 0.35782 0.16962 0.0
Mn432 Mn 0.56399 0.74716 0.46849 0.0
Mn433 Mn 0.5148 0.76217 0.42383 0.0
C434 C 0.49256 0.73123 0.46601 0.0
C435 C 0.60723 0.70507 0.4888 0.0
C436 C 0.53348 0.83385 0.45323 0.0
O437 O 0.6124 0.75451 0.44869 0.0
O438 O 0.57823 0.75868 0.41898 0.0
C439 C 0.5345 0.67933 0.40475 0.0
N440 N 0.50527 0.70837 0.41111 0.0
C441 C 0.44709 0.66431 0.39974 0.0
C442 C 0.47658 0.6341 0.39291 0.0
C443 C 0.52047 0.64163 0.39546 0.0
C444 C 0.46296 0.70149 0.40871 0.0
H445 H 0.56826 0.68483 0.4068 0.0
C446 C 0.61258 0.7566 0.42951 0.0
O447 O 0.60598 0.74613 0.49109 0.0
O448 O 0.58327 0.68852 0.47489 0.0
N449 N 0.45393 0.76545 0.42587 0.0
C450 C 0.42959 0.79637 0.43451 0.0
C451 C 0.38493 0.7927 0.43406 0.0
C452 C 0.36574 0.75756 0.42456 0.0
C453 C 0.39141 0.7264 0.41558 0.0
C454 C 0.43577 0.73182 0.41644 0.0
H455 H 0.44407 0.82339 0.44192 0.0
O456 O 0.51041 0.73694 0.48349 0.0
O457 O 0.51783 0.73319 0.4503 0.0
O458 O 0.54991 0.81073 0.46704 0.0
O459 O 0.5217 0.81929 0.43609 0.0
C460 C 0.37474 0.68958 0.4063 0.0
C461 C 0.40256 0.65857 0.39838 0.0
H462 H 0.46588 0.60482 0.38588 0.0
H463 H 0.54342 0.61834 0.39034 0.0
H464 H 0.36534 0.8168 0.44109 0.0
H465 H 0.33129 0.75463 0.42442 0.0
H466 H 0.34059 0.68448 0.40544 0.0
H467 H 0.38936 0.63013 0.39152 0.0
Mn468 Mn 0.77584 0.39638 0.55251 0.0
Mn469 Mn 0.76321 0.46144 0.59241 0.0
C470 C 0.76281 0.46807 0.54737 0.0
C471 C 0.74264 0.34976 0.5299 0.0
C472 C 0.85001 0.43212 0.57741 0.0
O473 O 0.76774 0.35464 0.57603 0.0
O474 O 0.75414 0.40126 0.60087 0.0
C475 C 0.67068 0.44727 0.59856 0.0
N476 N 0.7039 0.47432 0.59495 0.0
C477 C 0.65704 0.53484 0.59428 0.0
C478 C 0.62234 0.50768 0.5981 0.0
C479 C 0.62918 0.46367 0.60016 0.0
C480 C 0.69757 0.51659 0.59258 0.0
H481 H 0.67582 0.41344 0.6002 0.0
C482 C 0.75773 0.36312 0.59425 0.0
O483 O 0.78356 0.34757 0.53311 0.0
O484 O 0.72159 0.37768 0.5401 0.0
N485 N 0.77068 0.52079 0.58671 0.0
C486 C 0.80773 0.54283 0.58378 0.0
C487 C 0.80645 0.58729 0.58145 0.0
C488 C 0.76722 0.60869 0.5825 0.0
C489 C 0.72969 0.58548 0.58616 0.0
C490 C 0.73296 0.54125 0.5884 0.0
H491 H 0.83804 0.52662 0.58314 0.0
O492 O 0.77832 0.44497 0.53296 0.0
O493 O 0.75405 0.44812 0.56405 0.0
O494 O 0.83713 0.41055 0.56214 0.0
O495 O 0.82494 0.4504 0.58993 0.0
C496 C 0.68926 0.60458 0.58796 0.0
C497 C 0.653 0.57929 0.5921 0.0
H498 H 0.59031 0.52024 0.59943 0.0
H499 H 0.60255 0.44248 0.60303 0.0
H500 H 0.83562 0.60501 0.57886 0.0
H501 H 0.76634 0.64297 0.58066 0.0
H502 H 0.68571 0.63871 0.58625 0.0
H503 H 0.62207 0.59433 0.59345 0.0
Mn504 Mn 0.42263 0.21851 0.4789 0.0
Mn505 Mn 0.46687 0.2073 0.4329 0.0
C506 C 0.49553 0.22233 0.47566 0.0
C507 C 0.39124 0.26323 0.50261 0.0
C508 C 0.44085 0.13217 0.45893 0.0
O509 O 0.37211 0.2242 0.46002 0.0
O510 O 0.40375 0.21668 0.42986 0.0
C511 C 0.45264 0.2961 0.41938 0.0
N512 N 0.47988 0.26346 0.42344 0.0
C513 C 0.5409 0.30729 0.4157 0.0
C514 C 0.51349 0.34129 0.41132 0.0
C515 C 0.46917 0.33565 0.41318 0.0
C516 C 0.52259 0.26862 0.42181 0.0
H517 H 0.41858 0.29209 0.42097 0.0
C518 C 0.37057 0.22261 0.44084 0.0
O519 O 0.38382 0.22245 0.50296 0.0
O520 O 0.41553 0.27773 0.48838 0.0
N521 N 0.52729 0.19851 0.43302 0.0
C522 C 0.54926 0.16208 0.43709 0.0
C523 C 0.59399 0.16221 0.43573 0.0
C524 C 0.61559 0.19959 0.42998 0.0
C525 C 0.5922 0.23626 0.42523 0.0
C526 C 0.54766 0.23411 0.42667 0.0
H527 H 0.53285 0.13327 0.44155 0.0
O528 O 0.47818 0.21545 0.49312 0.0
O529 O 0.46936 0.22895 0.46063 0.0
O530 O 0.42566 0.154 0.47357 0.0
O531 O 0.45585 0.14876 0.44272 0.0
C532 C 0.61131 0.27482 0.41906 0.0
C533 C 0.58569 0.31034 0.41434 0.0
H534 H 0.52611 0.37187 0.40657 0.0
H535 H 0.4478 0.36179 0.40991 0.0
H536 H 0.61178 0.13365 0.43923 0.0
H537 H 0.65011 0.19967 0.42911 0.0
H538 H 0.6457 0.27754 0.41793 0.0
H539 H 0.60077 0.33988 0.40971 0.0
Mn540 Mn 0.21878 0.57236 0.55271 0.0
Mn541 Mn 0.23368 0.53189 0.59927 0.0
C542 C 0.24651 0.5048 0.55632 0.0
C543 C 0.24733 0.61292 0.52632 0.0
C544 C 0.14672 0.536 0.57873 0.0
O545 O 0.21439 0.6242 0.57098 0.0
O546 O 0.23065 0.5955 0.6012 0.0
C547 C 0.32031 0.56535 0.6076 0.0
N548 N 0.29316 0.53164 0.60564 0.0
C549 C 0.34947 0.48189 0.61277 0.0
C550 C 0.37796 0.5161 0.61503 0.0
C551 C 0.36331 0.558 0.61242 0.0
C552 C 0.30687 0.49119 0.6082 0.0
H553 H 0.30927 0.59759 0.60544 0.0
C554 C 0.22207 0.62755 0.58985 0.0
O555 O 0.20632 0.6072 0.52782 0.0
O556 O 0.27102 0.59615 0.54014 0.0
N557 N 0.23773 0.47102 0.59952 0.0
C558 C 0.20691 0.44151 0.59544 0.0
C559 C 0.21686 0.39798 0.59652 0.0
C560 C 0.25826 0.38523 0.60188 0.0
C561 C 0.28933 0.41615 0.60618 0.0
C562 C 0.27749 0.45908 0.60501 0.0
H563 H 0.17511 0.45107 0.59116 0.0
O564 O 0.22955 0.51663 0.53937 0.0
O565 O 0.24756 0.53342 0.57052 0.0
O566 O 0.15908 0.55125 0.56175 0.0
O567 O 0.17193 0.52968 0.59362 0.0
C568 C 0.33187 0.40608 0.61109 0.0
C569 C 0.36191 0.43892 0.6144 0.0
H570 H 0.41125 0.51055 0.61855 0.0
H571 H 0.38517 0.58455 0.61401 0.0
H572 H 0.19276 0.37431 0.59308 0.0
H573 H 0.26593 0.35163 0.60245 0.0
H574 H 0.34198 0.37318 0.61206 0.0
H575 H 0.39466 0.43076 0.61788 0.0
H576 H 0.10156 0.31225 0.26602 0.0
H577 H 0.21443 0.24858 0.28841 0.0
H578 H 0.25987 0.29854 0.26864 0.0
H579 H 0.14302 0.33606 0.21496 0.0
H580 H 0.11812 0.3878 0.21363 0.0
H581 H 0.0931 0.34513 0.22756 0.0
H582 H 0.09081 0.3892 0.26004 0.0
H583 H 0.11354 0.43361 0.24665 0.0
H584 H 0.13891 0.41414 0.26927 0.0
H585 H 0.29117 0.3657 0.25347 0.0
H586 H 0.30656 0.4375 0.23964 0.0
H587 H 0.1738 0.45208 0.22335 0.0
C588 C 0.13586 0.30795 0.26615 0.0
C589 C 0.15476 0.27654 0.27847 0.0
C590 C 0.19957 0.27205 0.27871 0.0
C591 C 0.22546 0.3004 0.26762 0.0
C592 C 0.20577 0.33211 0.25607 0.0
C593 C 0.16187 0.33528 0.2549 0.0
C594 C 0.14834 0.37369 0.24264 0.0
C595 C 0.12425 0.35989 0.22354 0.0
C596 C 0.12134 0.40445 0.25542 0.0
C597 C 0.19146 0.39279 0.23763 0.0
C598 C 0.22424 0.36861 0.2457 0.0
C599 C 0.2661 0.38379 0.24624 0.0
C600 C 0.27458 0.42453 0.2384 0.0
C601 C 0.24176 0.44887 0.22943 0.0
C602 C 0.1998 0.43272 0.22896 0.0
H603 H 0.42773 0.72369 0.7849 0.0
H604 H 0.47474 0.83504 0.81638 0.0
H605 H 0.41061 0.87511 0.80601 0.0
H606 H 0.39382 0.77932 0.74252 0.0
H607 H 0.34757 0.7467 0.7375 0.0
H608 H 0.39257 0.72444 0.75059 0.0
H609 H 0.3433 0.70242 0.7803 0.0
H610 H 0.29806 0.72479 0.76725 0.0
H611 H 0.31089 0.74213 0.79246 0.0
H612 H 0.34569 0.90458 0.79025 0.0
H613 H 0.28997 0.92567 0.76596 0.0
H614 H 0.28644 0.79735 0.74208 0.0
C615 C 0.42363 0.75613 0.79008 0.0
C616 C 0.45456 0.77565 0.80255 0.0
C617 C 0.44991 0.81888 0.80795 0.0
C618 C 0.41375 0.84186 0.80201 0.0
C619 C 0.38308 0.82139 0.79021 0.0
C620 C 0.38794 0.77971 0.78398 0.0
C621 C 0.35345 0.76725 0.76899 0.0
C622 C 0.37303 0.75365 0.7487 0.0
C623 C 0.32471 0.73205 0.77777 0.0
C624 C 0.32945 0.80899 0.76712 0.0
C625 C 0.34642 0.83928 0.78003 0.0
C626 C 0.33172 0.88103 0.78031 0.0
C627 C 0.29998 0.89266 0.76654 0.0
C628 C 0.28345 0.86284 0.75258 0.0
C629 C 0.29765 0.82024 0.7531 0.0
H630 H 0.8126 0.54083 0.21508 0.0
H631 H 0.68111 0.5545 0.23356 0.0
H632 H 0.69632 0.6276 0.24564 0.0
H633 H 0.8507 0.58151 0.25907 0.0
H634 H 0.89751 0.60694 0.24872 0.0
H635 H 0.8744 0.56181 0.23612 0.0
H636 H 0.86611 0.60594 0.20297 0.0
H637 H 0.89124 0.6501 0.21572 0.0
H638 H 0.83994 0.65705 0.204 0.0
H639 H 0.72767 0.69587 0.25927 0.0
H640 H 0.77374 0.74698 0.27789 0.0
H641 H 0.88591 0.68391 0.25448 0.0
C642 C 0.78674 0.56025 0.22074 0.0
C643 C 0.74517 0.54338 0.22237 0.0
C644 C 0.71268 0.56793 0.23141 0.0
C645 C 0.72106 0.60942 0.23825 0.0
C646 C 0.76258 0.62525 0.23665 0.0
C647 C 0.79508 0.60106 0.22838 0.0
C648 C 0.83828 0.62113 0.23236 0.0
C649 C 0.86687 0.59107 0.24481 0.0
C650 C 0.86016 0.6343 0.21256 0.0
C651 C 0.82514 0.65978 0.24447 0.0
C652 C 0.7813 0.6625 0.24623 0.0
C653 C 0.76201 0.69439 0.25774 0.0
C654 C 0.78828 0.72341 0.26818 0.0
C655 C 0.83313 0.71941 0.26738 0.0
C656 C 0.85159 0.68786 0.25504 0.0
H657 H 0.52901 0.17834 0.80556 0.0
H658 H 0.56533 0.30729 0.79003 0.0
H659 H 0.63589 0.28165 0.77837 0.0
H660 H 0.6379 0.1312 0.81724 0.0
H661 H 0.62234 0.08318 0.80444 0.0
H662 H 0.58259 0.11477 0.81711 0.0
H663 H 0.54094 0.11617 0.78276 0.0
H664 H 0.58302 0.08737 0.77049 0.0
H665 H 0.56674 0.13849 0.76081 0.0
H666 H 0.70046 0.24094 0.7661 0.0
H667 H 0.74671 0.18888 0.74846 0.0
H668 H 0.66253 0.08651 0.76719 0.0
C669 C 0.55271 0.20119 0.80051 0.0
C670 C 0.5431 0.24497 0.79968 0.0
C671 C 0.57317 0.27385 0.79153 0.0
C672 C 0.61324 0.25955 0.78495 0.0
C673 C 0.62191 0.216 0.78587 0.0
C674 C 0.59203 0.18714 0.79307 0.0
C675 C 0.60508 0.14174 0.78851 0.0
C676 C 0.61235 0.11625 0.80801 0.0
C677 C 0.57199 0.11968 0.77483 0.0
C678 C 0.64671 0.14953 0.77752 0.0
C679 C 0.65668 0.19242 0.77673 0.0
C680 C 0.69313 0.20725 0.76678 0.0
C681 C 0.71935 0.17755 0.75692 0.0
C682 C 0.70817 0.1339 0.75667 0.0
C683 C 0.67188 0.11976 0.76738 0.0
H684 H 0.17909 0.00503 0.05408 0.0
H685 H 0.31182 0.037 0.04462 0.0
H686 H 0.29196 0.11143 0.03686 0.0
H687 H 0.147 0.05386 1.01169 0.0
H688 H 0.09586 0.07208 0.02057 0.0
H689 H 0.12017 0.02625 0.03195 0.0
H690 H 0.11623 0.06169 0.06729 0.0
H691 H 0.09065 0.10716 0.05589 0.0
H692 H 0.13823 0.11432 0.07079 0.0
H693 H 0.25746 0.17921 0.02574 0.0
H694 H 0.21168 0.23057 1.00735 0.0
H695 H 0.10148 0.15055 0.01882 0.0
C696 C 0.20389 0.02853 0.05148 0.0
C697 C 0.2471 0.01642 0.05116 0.0
C698 C 0.27875 0.0466 0.04593 0.0
C699 C 0.26771 0.08884 0.04151 0.0
C700 C 0.22465 0.09988 0.04158 0.0
C701 C 0.19312 0.07035 0.04617 0.0
C702 C 0.14931 0.08718 0.04078 0.0
C703 C 0.12681 0.05813 0.02533 0.0
C704 C 0.12199 0.09292 0.05983 0.0
C705 C 0.16124 0.12982 0.03161 0.0
C706 C 0.20462 0.13738 0.03302 0.0
C707 C 0.22338 0.17388 0.02477 0.0
C708 C 0.19727 0.20287 0.01439 0.0
C709 C 0.15334 0.19427 1.01182 0.0
C710 C 0.13505 0.15775 0.02079 0.0
H711 H 0.15964 0.88513 1.00515 0.0
H712 H 0.23968 0.7756 0.0167 0.0
H713 H 0.18683 0.72918 0.99958 0.0
H714 H 0.06435 0.84041 0.01474 0.0
H715 H 0.03453 0.86589 0.99485 0.0
H716 H 0.0817 0.89099 1.00467 0.0
H717 H 0.11335 0.89443 0.96877 0.0
H718 H 0.06677 0.86836 0.95853 0.0
H719 H 0.11908 0.84636 0.95426 0.0
H720 H 0.11784 0.69426 0.99019 0.0
H721 H 0.04262 0.67414 0.98386 0.0
H722 H 0.01101 0.80619 0.97319 0.0
C723 C 0.16662 0.85157 1.00336 0.0
C724 C 0.20355 0.8337 1.01207 0.0
C725 C 0.21174 0.78975 1.00982 0.0
C726 C 0.18188 0.76325 1.00016 0.0
C727 C 0.14491 0.78161 0.99228 0.0
C728 C 0.13783 0.82502 0.9932 0.0
C729 C 0.09431 0.83644 0.98485 0.0
C730 C 0.06715 0.85977 1.00073 0.0
C731 C 0.09863 0.86296 0.96544 0.0
C732 C 0.07674 0.79246 0.9804 0.0
C733 C 0.10645 0.76121 0.9848 0.0
C734 C 0.09506 0.71826 0.98564 0.0
C735 C 0.05237 0.70707 0.98204 0.0
C736 C 0.02207 0.73842 0.97682 0.0
C737 C 0.03448 0.78152 0.9758 0.0
H738 H 0.89245 0.82636 0.0238 0.0
H739 H 0.78195 0.74632 0.01312 0.0
H740 H 0.7365 0.79824 0.03116 0.0
H741 H 0.85555 0.86501 0.0757 0.0
H742 H 0.87813 0.91716 0.07146 0.0
H743 H 0.90327 0.87078 0.06075 0.0
H744 H 0.89878 0.90412 0.02509 0.0
H745 H 0.87424 0.95073 0.03553 0.0
H746 H 0.84782 0.92173 0.01563 0.0
H747 H 0.70216 0.86639 0.04156 0.0
H748 H 0.68243 0.94121 0.04834 0.0
H749 H 0.81521 0.97337 0.05755 0.0
C750 C 0.85891 0.81922 0.02593 0.0
C751 C 0.84047 0.78253 0.01721 0.0
C752 C 0.79655 0.77409 0.01997 0.0
C753 C 0.7706 0.8034 0.03017 0.0
C754 C 0.78948 0.84007 0.03812 0.0
C755 C 0.83292 0.84741 0.03668 0.0
C756 C 0.84484 0.89057 0.04529 0.0
C757 C 0.87206 0.88557 0.06444 0.0
C758 C 0.86773 0.9184 0.02944 0.0
C759 C 0.80103 0.90778 0.05033 0.0
C760 C 0.76949 0.87805 0.04616 0.0
C761 C 0.72644 0.88915 0.04594 0.0
C762 C 0.71547 0.93162 0.04983 0.0
C763 C 0.74715 0.96201 0.05473 0.0
C764 C 0.79035 0.94982 0.05523 0.0
H765 H 0.79426 0.19683 0.02221 0.0
H766 H 0.80066 0.07168 0.99522 0.0
H767 H 0.85849 0.09626 0.97262 0.0
H768 H 0.8274 0.26003 0.97447 0.0
H769 H 0.85797 0.29678 0.98958 0.0
H770 H 0.8099 0.27313 0.99963 0.0
H771 H 0.85268 0.24541 0.03047 0.0
H772 H 0.90065 0.26858 0.02046 0.0
H773 H 0.89891 0.2125 0.02633 0.0
H774 H 0.9248 0.12837 0.95906 0.0
H775 H 0.99334 0.16659 0.95492 0.0
H776 H 0.94425 0.27212 0.98967 0.0
C777 C 0.80653 0.17551 1.01078 0.0
C778 C 0.79257 0.13286 1.0099 0.0
C779 C 0.81048 0.1048 0.99561 0.0
C780 C 0.84324 0.11853 0.98274 0.0
C781 C 0.85758 0.16047 0.98436 0.0
C782 C 0.83941 0.18883 0.99783 0.0
C783 C 0.86465 0.23007 0.99865 0.0
C784 C 0.8384 0.2672 0.99007 0.0
C785 C 0.88014 0.23965 0.02025 0.0
C786 C 0.90141 0.21924 0.98476 0.0
C787 C 0.89618 0.17939 0.97623 0.0
C788 C 0.92847 0.1603 0.96495 0.0
C789 C 0.96719 0.18227 0.96254 0.0
C790 C 0.97297 0.22307 0.97108 0.0
C791 C 0.93963 0.24175 0.98222 0.0
H792 H 0.69635 0.78411 0.78529 0.0
H793 H 0.57263 0.77846 0.75636 0.0
H794 H 0.59674 0.83023 0.73074 0.0
H795 H 0.71223 0.88845 0.78195 0.0
H796 H 0.76832 0.88898 0.77593 0.0
H797 H 0.7457 0.84432 0.78915 0.0
H798 H 0.77331 0.79291 0.76157 0.0
H799 H 0.79677 0.83753 0.74839 0.0
H800 H 0.76004 0.80265 0.73549 0.0
H801 H 0.62533 0.89644 0.71585 0.0
H802 H 0.6625 0.96376 0.70791 0.0
H803 H 0.77264 0.92168 0.74166 0.0
C804 C 0.67542 0.79206 0.77284 0.0
C805 C 0.63306 0.77671 0.77237 0.0
C806 C 0.60555 0.78917 0.75655 0.0
C807 C 0.61892 0.81868 0.74199 0.0
C808 C 0.66026 0.83483 0.74326 0.0
C809 C 0.68873 0.82099 0.75784 0.0
C810 C 0.72993 0.84651 0.75687 0.0
C811 C 0.73956 0.86835 0.77718 0.0
C812 C 0.76722 0.8182 0.75018 0.0
C813 C 0.7188 0.87875 0.74062 0.0
C814 C 0.67846 0.87132 0.73292 0.0
C815 C 0.65802 0.9011 0.72065 0.0
C816 C 0.67954 0.93905 0.71593 0.0
C817 C 0.72178 0.9461 0.72257 0.0
C818 C 0.74144 0.91562 0.73521 0.0
H819 H 0.93746 0.2183 0.28717 0.0
H820 H -0.0043 0.32746 0.31622 0.0
H821 H 0.93755 0.37329 0.3038 0.0
H822 H 0.90922 0.27025 0.24316 0.0
H823 H 0.85894 0.24342 0.23927 0.0
H824 H 0.90079 0.21742 0.25315 0.0
H825 H 0.85024 0.20708 0.28387 0.0
H826 H 0.80805 0.2321 0.26966 0.0
H827 H 0.82277 0.25254 0.29409 0.0
H828 H 0.8806 0.40868 0.28468 0.0
H829 H 0.82611 0.43224 0.26028 0.0
H830 H 0.80172 0.30106 0.2434 0.0
C831 C 0.93695 0.25161 0.29139 0.0
C832 C 0.96977 0.2692 0.30342 0.0
C833 C 0.96963 0.31319 0.30785 0.0
C834 C 0.9369 0.33945 0.30075 0.0
C835 C 0.90478 0.32125 0.28902 0.0
C836 C 0.90427 0.27833 0.28441 0.0
C837 C 0.86811 0.26787 0.26993 0.0
C838 C 0.88531 0.24862 0.25021 0.0
C839 C 0.83535 0.23812 0.27999 0.0
C840 C 0.84959 0.31192 0.26647 0.0
C841 C 0.87113 0.34204 0.27785 0.0
C842 C 0.86284 0.38538 0.27604 0.0
C843 C 0.83203 0.39845 0.2621 0.0
C844 C 0.80955 0.36837 0.25029 0.0
C845 C 0.81786 0.32447 0.25268 0.0
H846 H 0.21456 0.06418 0.74053 0.0
H847 H 0.32047 0.01353 0.7063 0.0
H848 H 0.36485 0.07501 0.71616 0.0
H849 H 0.24002 0.18096 0.73283 0.0
H850 H 0.22494 0.19378 0.75835 0.0
H851 H 0.19884 0.15055 0.7453 0.0
H852 H 0.21915 0.0994 0.77451 0.0
H853 H 0.24558 0.14228 0.78749 0.0
H854 H 0.27441 0.09424 0.78168 0.0
H855 H 0.40053 0.13454 0.73314 0.0
H856 H 0.42695 0.18771 0.75751 0.0
H857 H 0.29955 0.20127 0.78199 0.0
C858 C 0.24665 0.06709 0.73461 0.0
C859 C 0.26353 0.03558 0.72172 0.0
C860 C 0.30633 0.03871 0.7152 0.0
C861 C 0.33181 0.07337 0.72084 0.0
C862 C 0.31424 0.10424 0.73338 0.0
C863 C 0.27269 0.1015 0.74028 0.0
C864 C 0.26356 0.13614 0.75565 0.0
C865 C 0.22983 0.16721 0.74755 0.0
C866 C 0.24989 0.11685 0.77603 0.0
C867 C 0.30707 0.15739 0.75704 0.0
C868 C 0.33545 0.13888 0.74369 0.0
C869 C 0.37847 0.14998 0.74331 0.0
C870 C 0.39319 0.18009 0.7572 0.0
C871 C 0.36504 0.19893 0.77122 0.0
C872 C 0.32127 0.18815 0.77094 0.0
H873 H 0.00531 0.68075 0.29409 0.0
H874 H 0.04874 0.81136 0.28967 0.0
H875 H 0.11863 0.78671 0.2767 0.0
H876 H 0.11014 0.62489 0.30351 0.0
H877 H 0.09331 0.58273 0.28701 0.0
H878 H 0.05409 0.61214 0.30112 0.0
H879 H 0.01676 0.6266 0.26621 0.0
H880 H 0.05918 0.60038 0.25287 0.0
H881 H 0.04599 0.6548 0.2469 0.0
H882 H 0.18309 0.74723 0.26311 0.0
H883 H 0.23202 0.69799 0.24527 0.0
H884 H 0.14105 0.59511 0.25362 0.0
C885 C 0.03033 0.70385 0.29114 0.0
C886 C 0.02299 0.74771 0.29391 0.0
C887 C 0.05484 0.77751 0.28844 0.0
C888 C 0.09447 0.76378 0.28107 0.0
C889 C 0.10087 0.72019 0.27843 0.0
C890 C 0.06931 0.69071 0.28295 0.0
C891 C 0.08101 0.64679 0.27534 0.0
C892 C 0.08479 0.61478 0.29281 0.0
C893 C 0.04883 0.63126 0.25938 0.0
C894 C 0.12417 0.65605 0.26605 0.0
C895 C 0.13561 0.6983 0.2684 0.0
C896 C 0.17441 0.71409 0.26116 0.0
C897 C 0.20202 0.68598 0.25111 0.0
C898 C 0.19006 0.64301 0.24798 0.0
C899 C 0.15077 0.62797 0.25566 0.0
H900 H 0.68044 0.49057 0.54247 0.0
H901 H 0.80959 0.53909 0.53903 0.0
H902 H 0.78217 0.60927 0.52779 0.0
H903 H 0.65346 0.53562 0.49598 0.0
H904 H 0.59834 0.54561 0.50204 0.0
H905 H 0.62631 0.50286 0.51434 0.0
H906 H 0.60988 0.53509 0.55021 0.0
H907 H 0.57873 0.57437 0.53692 0.0
H908 H 0.61987 0.59121 0.55402 0.0
H909 H 0.74009 0.67378 0.51657 0.0
H910 H 0.68928 0.72257 0.49962 0.0
H911 H 0.5899 0.62676 0.50449 0.0
C912 C 0.70261 0.51664 0.54005 0.0
C913 C 0.7468 0.51078 0.54272 0.0
C914 C 0.77547 0.54406 0.53791 0.0
C915 C 0.76017 0.58384 0.53155 0.0
C916 C 0.71624 0.58891 0.52918 0.0
C917 C 0.68795 0.5558 0.53277 0.0
C918 C 0.64358 0.56653 0.5253 0.0
C919 C 0.62963 0.53584 0.50841 0.0
C920 C 0.61114 0.56673 0.54267 0.0
C921 C 0.65116 0.61104 0.51724 0.0
C922 C 0.69296 0.62386 0.52014 0.0
C923 C 0.70732 0.66405 0.51416 0.0
C924 C 0.67832 0.69156 0.50466 0.0
C925 C 0.636 0.67814 0.50078 0.0
C926 C 0.62225 0.63755 0.50726 0.0
H927 H 0.68022 0.37449 0.50445 0.0
H928 H 0.75147 0.26378 0.52375 0.0
H929 H 0.70111 0.21723 0.50499 0.0
H930 H 0.58235 0.3356 0.51101 0.0
H931 H 0.55756 0.35949 0.48922 0.0
H932 H 0.60393 0.38382 0.50019 0.0
H933 H 0.64268 0.38041 0.46574 0.0
H934 H 0.59625 0.35587 0.45457 0.0
H935 H 0.64749 0.33014 0.45287 0.0
H936 H 0.63345 0.1837 0.49234 0.0
H937 H 0.5585 0.16614 0.484 0.0
H938 H 0.53453 0.29811 0.46937 0.0
C939 C 0.68611 0.34052 0.50402 0.0
C940 C 0.71968 0.32252 0.51536 0.0
C941 C 0.72627 0.27806 0.51485 0.0
C942 C 0.69778 0.2515 0.50425 0.0
C943 C 0.66382 0.27017 0.4938 0.0
C944 C 0.65861 0.31387 0.49317 0.0
C945 C 0.61739 0.326 0.48268 0.0
C946 C 0.58864 0.35276 0.49661 0.0
C947 C 0.62651 0.34948 0.46278 0.0
C948 C 0.59852 0.28233 0.47881 0.0
C949 C 0.62598 0.25045 0.48513 0.0
C950 C 0.61256 0.20812 0.48644 0.0
C951 C 0.57 0.19836 0.48166 0.0
C952 C 0.54173 0.23046 0.47502 0.0
C953 C 0.55645 0.27272 0.47318 0.0
H954 H 0.22232 0.4255 0.54434 0.0
H955 H 0.33005 0.49859 0.56624 0.0
H956 H 0.3772 0.43678 0.5609 0.0
H957 H 0.26031 0.31684 0.56304 0.0
H958 H 0.24018 0.29116 0.54063 0.0
H959 H 0.21345 0.33734 0.55065 0.0
H960 H 0.22082 0.37486 0.51594 0.0
H961 H 0.24785 0.3292 0.50591 0.0
H962 H 0.27303 0.38088 0.50482 0.0
H963 H 0.41423 0.37431 0.54704 0.0
H964 H 0.43905 0.31494 0.52574 0.0
H965 H 0.30813 0.27994 0.51279 0.0
C966 C 0.25553 0.4276 0.54878 0.0
C967 C 0.27238 0.46585 0.55665 0.0
C968 C 0.31632 0.46872 0.56121 0.0
C969 C 0.34329 0.43385 0.55811 0.0
C970 C 0.32583 0.3965 0.55022 0.0
C971 C 0.28287 0.39298 0.54572 0.0
C972 C 0.27326 0.35148 0.53491 0.0
C973 C 0.24513 0.32247 0.54809 0.0
C974 C 0.25255 0.35962 0.51417 0.0
C975 C 0.3179 0.33351 0.5328 0.0
C976 C 0.34758 0.35966 0.54215 0.0
C977 C 0.39129 0.35288 0.54022 0.0
C978 C 0.4051 0.3192 0.52808 0.0
C979 C 0.37539 0.29253 0.51815 0.0
C980 C 0.33127 0.29904 0.52091 0.0
H981 H 0.42726 0.7636 0.48747 0.0
H982 H 0.4598 0.66157 0.44665 0.0
H983 H 0.38852 0.62928 0.45187 0.0
H984 H 0.38645 0.69899 0.52294 0.0
H985 H 0.34499 0.73409 0.53168 0.0
H986 H 0.39187 0.75588 0.52 0.0
H987 H 0.34488 0.79501 0.49371 0.0
H988 H 0.29754 0.7732 0.50534 0.0
H989 H 0.30715 0.76516 0.47879 0.0
H990 H 0.31954 0.60179 0.46598 0.0
H991 H 0.26491 0.57696 0.4903 0.0
H992 H 0.28073 0.69282 0.52472 0.0
C993 C 0.41838 0.73557 0.47891 0.0
C994 C 0.44779 0.71651 0.46561 0.0
C995 C 0.43657 0.67819 0.45577 0.0
C996 C 0.39624 0.65949 0.45883 0.0
C997 C 0.36796 0.67891 0.47225 0.0
C998 C 0.37879 0.71603 0.48227 0.0
C999 C 0.34692 0.72612 0.49878 0.0
C1000 C 0.36888 0.72889 0.51956 0.0
C1001 C 0.32267 0.76732 0.49386 0.0
C1002 C 0.31779 0.68763 0.49734 0.0
C1003 C 0.32941 0.66164 0.48141 0.0
C1004 C 0.30954 0.62238 0.47816 0.0
C1005 C 0.27835 0.60862 0.49195 0.0
C1006 C 0.26787 0.63368 0.50892 0.0
C1007 C 0.28708 0.67402 0.51137 0.0
H1008 H 0.34833 0.21118 0.40052 0.0
H1009 H 0.29581 0.24605 0.45889 0.0
H1010 H 0.2248 0.25334 0.44357 0.0
H1011 H 0.2822 0.28276 0.37051 0.0
H1012 H 0.27552 0.24551 0.35007 0.0
H1013 H 0.3231 0.24405 0.36534 0.0
H1014 H 0.30903 0.16449 0.37343 0.0
H1015 H 0.2614 0.16573 0.35821 0.0
H1016 H 0.25851 0.1488 0.38419 0.0
H1017 H 0.15911 0.2556 0.42259 0.0
H1018 H 0.10228 0.25251 0.39707 0.0
H1019 H 0.19537 0.21591 0.35172 0.0
C1020 C 0.32197 0.2206 0.41006 0.0
C1021 C 0.32803 0.22797 0.431 0.0
C1022 C 0.29237 0.24003 0.44288 0.0
C1023 C 0.25173 0.24437 0.43431 0.0
C1024 C 0.24684 0.23658 0.41376 0.0
C1025 C 0.28086 0.22499 0.40173 0.0
C1026 C 0.26626 0.21773 0.3801 0.0
C1027 C 0.28807 0.24941 0.36565 0.0
C1028 C 0.27428 0.17143 0.37361 0.0
C1029 C 0.21877 0.22682 0.38195 0.0
C1030 C 0.20847 0.23775 0.40153 0.0
C1031 C 0.16678 0.24714 0.40718 0.0
C1032 C 0.13462 0.24521 0.3925 0.0
C1033 C 0.144 0.23388 0.37226 0.0
C1034 C 0.18692 0.22475 0.36699 0.0
H1035 H 0.22447 0.65011 0.6303 0.0
H1036 H 0.22095 0.70388 0.56983 0.0
H1037 H 0.22321 0.77605 0.5842 0.0
H1038 H 0.15696 0.72961 0.65333 0.0
H1039 H 0.18621 0.73073 0.67675 0.0
H1040 H 0.18494 0.68281 0.66184 0.0
H1041 H 0.26756 0.68194 0.66105 0.0
H1042 H 0.26907 0.72994 0.67591 0.0
H1043 H 0.2961 0.72807 0.65192 0.0
H1044 H 0.22684 0.84223 0.60465 0.0
H1045 H 0.22819 0.89911 0.62999 0.0
H1046 H 0.22763 0.80416 0.67786 0.0
C1047 C 0.22416 0.67704 0.62007 0.0
C1048 C 0.22248 0.67103 0.59886 0.0
C1049 C 0.22199 0.70733 0.58609 0.0
C1050 C 0.22343 0.7486 0.59411 0.0
C1051 C 0.22513 0.75334 0.61499 0.0
C1052 C 0.22524 0.71868 0.62785 0.0
C1053 C 0.22646 0.73303 0.64976 0.0
C1054 C 0.18624 0.71816 0.66109 0.0
C1055 C 0.26723 0.71731 0.66028 0.0
C1056 C 0.22704 0.78115 0.64714 0.0
C1057 C 0.22651 0.79196 0.62692 0.0
C1058 C 0.22715 0.83419 0.62054 0.0
C1059 C 0.22798 0.86635 0.63515 0.0
C1060 C 0.22793 0.85644 0.65607 0.0
C1061 C 0.22762 0.81302 0.66206 0.0
H1062 H 0.6339 0.7711 0.38904 0.0
H1063 H 0.68831 0.73594 0.44711 0.0
H1064 H 0.7589 0.7302 0.4316 0.0
H1065 H 0.70086 0.70175 0.35853 0.0
H1066 H 0.70724 0.73958 0.33825 0.0
H1067 H 0.65966 0.74029 0.35352 0.0
H1068 H 0.67309 0.81969 0.36202 0.0
H1069 H 0.7206 0.81925 0.34672 0.0
H1070 H 0.72358 0.8355 0.37276 0.0
H1071 H 0.8237 0.72794 0.41067 0.0
H1072 H 0.88064 0.7327 0.38535 0.0
H1073 H 0.78761 0.77067 0.34011 0.0
C1074 C 0.66066 0.76215 0.39846 0.0
C1075 C 0.65509 0.75412 0.41939 0.0
C1076 C 0.69125 0.7426 0.43112 0.0
C1077 C 0.73173 0.73902 0.42243 0.0
C1078 C 0.73613 0.74713 0.40192 0.0
C1079 C 0.70184 0.75868 0.39001 0.0
C1080 C 0.71633 0.76663 0.36838 0.0
C1081 C 0.69473 0.73519 0.35381 0.0
C1082 C 0.7079 0.81303 0.36211 0.0
C1083 C 0.76397 0.75787 0.37016 0.0
C1084 C 0.77436 0.74639 0.38967 0.0
C1085 C 0.81605 0.73694 0.39532 0.0
C1086 C 0.84826 0.73977 0.38074 0.0
C1087 C 0.83898 0.75219 0.36062 0.0
C1088 C 0.79596 0.76098 0.35529 0.0
H1089 H 0.76415 0.12378 0.63886 0.0
H1090 H 0.72424 0.17926 0.69579 0.0
H1091 H 0.71846 0.24942 0.67954 0.0
H1092 H 0.82949 0.21148 0.62364 0.0
H1093 H 0.81614 0.20839 0.59722 0.0
H1094 H 0.81412 0.16118 0.61268 0.0
H1095 H 0.73542 0.14879 0.60225 0.0
H1096 H 0.73723 0.19598 0.58672 0.0
H1097 H 0.69697 0.19063 0.60599 0.0
H1098 H 0.71929 0.31368 0.6582 0.0
H1099 H 0.72864 0.37005 0.63291 0.0
H1100 H 0.77001 0.27585 0.5891 0.0
C1101 C 0.75362 0.15063 0.64778 0.0
C1102 C 0.74457 0.14588 0.66864 0.0
C1103 C 0.73155 0.18198 0.67986 0.0
C1104 C 0.72797 0.22204 0.67074 0.0
C1105 C 0.73768 0.22584 0.65033 0.0
C1106 C 0.75034 0.19133 0.63892 0.0
C1107 C 0.761 0.20524 0.61747 0.0
C1108 C 0.80798 0.19602 0.61247 0.0
C1109 C 0.73085 0.18389 0.6022 0.0
C1110 C 0.75276 0.25291 0.61879 0.0
C1111 C 0.73896 0.26376 0.63789 0.0
C1112 C 0.72996 0.30564 0.64315 0.0
C1113 C 0.73552 0.33753 0.6286 0.0
C1114 C 0.75024 0.32772 0.6089 0.0
C1115 C 0.75859 0.28456 0.60394 0.0
H1116 H 0.15635 0.27109 0.89612 0.0
H1117 H 0.21486 0.26093 0.95546 0.0
H1118 H 0.28541 0.25542 0.9397 0.0
H1119 H 0.22662 0.19721 0.87085 0.0
H1120 H 0.22941 0.22744 0.84773 0.0
H1121 H 0.18255 0.23051 0.86342 0.0
H1122 H 0.19058 0.31255 0.86522 0.0
H1123 H 0.2373 0.30975 0.84945 0.0
H1124 H 0.24029 0.33537 0.87373 0.0
H1125 H 0.34954 0.25022 0.9182 0.0
H1126 H 0.4048 0.24956 0.89198 0.0
H1127 H 0.3072 0.26412 0.84584 0.0
C1128 C 0.18399 0.26786 0.90581 0.0
C1129 C 0.17965 0.26651 0.92712 0.0
C1130 C 0.2169 0.26219 0.93915 0.0
C1131 C 0.25732 0.25887 0.93034 0.0
C1132 C 0.26042 0.26001 0.90941 0.0
C1133 C 0.22496 0.26467 0.89723 0.0
C1134 C 0.23782 0.2656 0.87508 0.0
C1135 C 0.21791 0.22794 0.8636 0.0
C1136 C 0.22579 0.30837 0.8653 0.0
C1137 C 0.28598 0.26085 0.87683 0.0
C1138 C 0.29806 0.25743 0.89682 0.0
C1139 C 0.34055 0.25297 0.90249 0.0
C1140 C 0.37177 0.25264 0.88739 0.0
C1141 C 0.36066 0.25692 0.86672 0.0
C1142 C 0.31692 0.26062 0.86143 0.0
H1143 H 0.26319 0.68124 0.17971 0.0
H1144 H 0.25206 0.58236 0.13414 0.0
H1145 H 0.25268 0.63702 0.10754 0.0
H1146 H 0.1959 0.75904 0.1541 0.0
H1147 H 0.22817 0.804 0.16153 0.0
H1148 H 0.2258 0.75728 0.17734 0.0
H1149 H 0.30815 0.75133 0.17604 0.0
H1150 H 0.31077 0.79794 0.16018 0.0
H1151 H 0.33459 0.74879 0.15191 0.0
H1152 H 0.25632 0.70112 0.0857 0.0
H1153 H 0.26147 0.77145 0.06966 0.0
H1154 H 0.27006 0.83082 0.12878 0.0
C1155 C 0.26059 0.67106 0.16415 0.0
C1156 C 0.25764 0.62721 0.15913 0.0
C1157 C 0.25448 0.61551 0.13851 0.0
C1158 C 0.25477 0.64639 0.12322 0.0
C1159 C 0.25814 0.68908 0.12866 0.0
C1160 C 0.26085 0.70161 0.14859 0.0
C1161 C 0.26472 0.74982 0.15012 0.0
C1162 C 0.22636 0.76864 0.16144 0.0
C1163 C 0.30709 0.76272 0.16016 0.0
C1164 C 0.26406 0.76224 0.12793 0.0
C1165 C 0.26018 0.72654 0.1159 0.0
C1166 C 0.25926 0.72935 0.09495 0.0
C1167 C 0.2623 0.76966 0.08598 0.0
C1168 C 0.26626 0.80707 0.09787 0.0
C1169 C 0.26707 0.80306 0.1192 0.0
H1170 H 0.83439 0.71182 0.90037 0.0
H1171 H 0.77673 0.72968 0.95943 0.0
H1172 H 0.70632 0.7363 0.94358 0.0
H1173 H 0.76655 0.78603 0.87349 0.0
H1174 H 0.76258 0.75385 0.85106 0.0
H1175 H 0.80937 0.75055 0.8668 0.0
H1176 H 0.79839 0.66909 0.87033 0.0
H1177 H 0.75159 0.67213 0.85458 0.0
H1178 H 0.74802 0.64882 0.87941 0.0
H1179 H 0.64233 0.7415 0.92208 0.0
H1180 H 0.5871 0.74353 0.89592 0.0
H1181 H 0.68347 0.72158 0.84991 0.0
C1182 C 0.80697 0.71711 0.90997 0.0
C1183 C 0.81148 0.72012 0.93125 0.0
C1184 C 0.77453 0.72705 0.94316 0.0
C1185 C 0.73419 0.73097 0.93429 0.0
C1186 C 0.73088 0.72783 0.91341 0.0
C1187 C 0.76607 0.72096 0.90133 0.0
C1188 C 0.75296 0.71851 0.87922 0.0
C1189 C 0.77413 0.75437 0.86692 0.0
C1190 C 0.76336 0.67452 0.87037 0.0
C1191 C 0.70499 0.72511 0.88089 0.0
C1192 C 0.69325 0.73052 0.9008 0.0
C1193 C 0.65106 0.73723 0.90642 0.0
C1194 C 0.61983 0.73832 0.89133 0.0
C1195 C 0.63056 0.73261 0.8707 0.0
C1196 C 0.67399 0.72601 0.86548 0.0
H1197 H 0.72208 0.15224 0.12889 0.0
H1198 H 0.73622 0.20883 0.06931 0.0
H1199 H 0.74219 0.27971 0.08469 0.0
H1200 H 0.65812 0.23634 0.14994 0.0
H1201 H 0.68254 0.23407 0.17456 0.0
H1202 H 0.68028 0.187 0.15907 0.0
H1203 H 0.7623 0.17913 0.16189 0.0
H1204 H 0.76482 0.22627 0.17734 0.0
H1205 H 0.79627 0.22302 0.15463 0.0
H1206 H 0.74565 0.34455 0.10588 0.0
H1207 H 0.74489 0.40037 0.13179 0.0
H1208 H 0.72851 0.30395 0.17833 0.0
C1209 C 0.72647 0.1795 0.11907 0.0
C1210 C 0.72857 0.17457 0.0978 0.0
C1211 C 0.73434 0.21135 0.08559 0.0
C1212 C 0.7379 0.25194 0.09419 0.0
C1213 C 0.73569 0.25564 0.11509 0.0
C1214 C 0.73004 0.22057 0.12743 0.0
C1215 C 0.72805 0.23398 0.14948 0.0
C1216 C 0.68466 0.22215 0.15881 0.0
C1217 C 0.76507 0.21443 0.16155 0.0
C1218 C 0.73318 0.28202 0.1475 0.0
C1219 C 0.73768 0.29358 0.12748 0.0
C1220 C 0.7422 0.33593 0.12161 0.0
C1221 C 0.74164 0.36748 0.13652 0.0
C1222 C 0.73657 0.35684 0.15721 0.0
C1223 C 0.73271 0.31328 0.16272 0.0
H1224 H 0.96272 0.91272 0.30207 0.0
H1225 H 0.94183 0.88705 0.36567 0.0
H1226 H 0.96386 0.96036 0.37395 0.0
H1227 H 0.05658 0.97441 0.30864 0.0
H1228 H 0.04536 0.01251 0.28897 0.0
H1229 H 0.02416 0.9592 0.28733 0.0
H1230 H 0.94746 0.98891 0.2841 0.0
H1231 H 0.9685 0.04235 0.28532 0.0
H1232 H 0.92786 0.02545 0.30287 0.0
H1233 H 0.99131 0.03368 0.3759 0.0
H1234 H 0.0182 0.10672 0.37132 0.0
H1235 H 0.0241 0.08708 0.30652 0.0
C1236 C 0.96164 0.92311 0.31764 0.0
C1237 C 0.95002 0.89448 0.33325 0.0
C1238 C 0.95028 0.90864 0.35352 0.0
C1239 C 0.96291 0.95013 0.35837 0.0
C1240 C 0.97554 0.97715 0.3428 0.0
C1241 C 0.9747 0.96461 0.32282 0.0
C1242 C 0.99155 -2e-05 0.30922 0.0
C1243 C 0.0318 0.98565 0.29787 0.0
C1244 C 0.95677 0.01507 0.29451 0.0
C1245 C 0.00207 0.03408 0.32474 0.0
C1246 C 0.99247 0.01993 0.34398 0.0
C1247 C -0.00118 0.04525 0.36092 0.0
C1248 C 0.01424 0.08668 0.35815 0.0
C1249 C 0.02344 0.10258 0.33859 0.0
C1250 C 0.01798 0.07558 0.32167 0.0
H1251 H 0.90077 0.02148 0.72244 0.0
H1252 H 0.87467 0.01238 0.65814 0.0
H1253 H 0.94859 0.99098 0.65203 0.0
H1254 H 0.00946 0.06376 0.71689 0.0
H1255 H 0.03028 0.03422 0.73804 0.0
H1256 H 0.97502 0.04988 0.7377 0.0
H1257 H 0.95259 0.97114 0.74287 0.0
H1258 H 0.00778 0.95517 0.74292 0.0
H1259 H 0.97089 0.93131 0.72535 0.0
H1260 H 0.02315 0.9694 0.65218 0.0
H1261 H 0.09895 0.95424 0.65837 0.0
H1262 H 0.0807 0.97611 0.72245 0.0
C1263 C 0.91088 0.01558 0.70708 0.0
C1264 C 0.88164 0.01851 0.69079 0.0
C1265 C 0.89613 0.01012 0.67092 0.0
C1266 C 0.93815 -0.00218 0.66725 0.0
C1267 C 0.96571 -0.00596 0.68356 0.0
C1268 C 0.95316 0.00308 0.70307 0.0
C1269 C 0.99013 -0.00343 0.71767 0.0
C1270 C 0.00192 0.03861 0.72819 0.0
C1271 C 0.97971 0.96145 0.73312 0.0
C1272 C 0.0251 0.98252 0.70322 0.0
C1273 C 0.00985 0.98121 0.68366 0.0
C1274 C 0.03559 0.97027 0.66741 0.0
C1275 C 0.07855 0.96162 0.67109 0.0
C1276 C 0.09553 0.96374 0.69086 0.0
C1277 C 0.06828 0.97352 0.70724 0.0
H1278 H 0.03368 0.40742 0.93085 0.0
H1279 H 0.0409 0.38106 0.99513 0.0
H1280 H 0.00682 0.45006 1.00225 0.0
H1281 H 0.05684 0.52176 0.93523 0.0
H1282 H 0.02128 0.53567 0.91489 0.0
H1283 H 0.04732 0.4846 0.91498 0.0
H1284 H 0.97353 0.44751 0.91212 0.0
H1285 H 0.94722 0.49843 0.91246 0.0
H1286 H 0.93313 0.45825 0.93078 0.0
H1287 H 0.96697 0.51919 1.00238 0.0
H1288 H 0.93539 0.58964 0.99594 0.0
H1289 H 0.95708 0.57333 0.93166 0.0
C1290 C 0.02872 0.41646 0.94644 0.0
C1291 C 0.04009 0.38874 0.96243 0.0
C1292 C 0.03296 0.40181 0.98261 0.0
C1293 C 0.01319 0.44081 0.98682 0.0
C1294 C 0.00125 0.46673 0.97071 0.0
C1295 C 0.00965 0.45563 0.95095 0.0
C1296 C -0.00553 0.48988 0.93647 0.0
C1297 C 0.03223 0.50912 0.9247 0.0
C1298 C 0.96004 0.47246 0.92211 0.0
C1299 C 0.97586 0.52173 0.95119 0.0
C1300 C 0.97958 0.50742 0.97084 0.0
C1301 C 0.96418 0.53091 0.98707 0.0
C1302 C 0.94588 0.5708 0.98321 0.0
C1303 C 0.94361 0.58721 0.96327 0.0
C1304 C 0.95818 0.56178 0.94706 0.0
H1305 H 0.41324 0.95118 0.09755 0.0
H1306 H 0.39382 0.93666 0.033 0.0
H1307 H 0.46363 0.97013 0.02662 0.0
H1308 H 0.46446 0.0514 0.09624 0.0
H1309 H 0.50296 0.03978 0.11569 0.0
H1310 H 0.452 0.01303 0.11566 0.0
H1311 H 0.48947 0.93956 0.11542 0.0
H1312 H 0.54054 0.96607 0.11592 0.0
H1313 H 0.52864 0.92829 0.09624 0.0
H1314 H 0.53183 0.01109 0.02692 0.0
H1315 H 0.60138 0.04447 0.03385 0.0
H1316 H 0.58006 0.02878 0.09824 0.0
C1317 C 0.42405 0.95428 0.08209 0.0
C1318 C 0.39792 0.94114 0.06579 0.0
C1319 C 0.41326 0.94596 0.04578 0.0
C1320 C 0.45276 0.96538 0.04197 0.0
C1321 C 0.47698 0.97924 0.05831 0.0
C1322 C 0.46388 0.97292 0.07799 0.0
C1323 C 0.49678 0.98998 0.09277 0.0
C1324 C 0.47791 0.02567 0.10586 0.0
C1325 C 0.51494 0.95382 0.10586 0.0
C1326 C 0.53008 0.00731 0.07827 0.0
C1327 C 0.51756 0.00134 0.05848 0.0
C1328 C 0.54225 0.01554 0.04235 0.0
C1329 C 0.5816 0.03492 0.04649 0.0
C1330 C 0.59637 0.03938 0.06662 0.0
C1331 C 0.56974 0.02595 0.0827 0.0
H1332 H 0.50987 0.40569 0.80935 0.0
H1333 H 0.4007 0.39732 0.84927 0.0
H1334 H 0.40332 0.47541 0.85439 0.0
H1335 H 0.56664 0.48373 0.83662 0.0
H1336 H 0.58658 0.51222 0.81492 0.0
H1337 H 0.57444 0.45624 0.81305 0.0
H1338 H 0.52325 0.47111 0.78317 0.0
H1339 H 0.53559 0.52712 0.78479 0.0
H1340 H 0.48092 0.50932 0.78618 0.0
H1341 H 0.42119 0.55175 0.85744 0.0
H1342 H 0.44889 0.62464 0.85647 0.0
H1343 H 0.54621 0.58612 0.81346 0.0
C1344 C 0.48602 0.42072 0.81876 0.0
C1345 C 0.45459 0.39617 0.82872 0.0
C1346 C 0.42443 0.41612 0.84133 0.0
C1347 C 0.42585 0.46025 0.84436 0.0
C1348 C 0.45758 0.48371 0.83457 0.0
C1349 C 0.48682 0.46491 0.82182 0.0
C1350 C 0.51824 0.49761 0.81363 0.0
C1351 C 0.56419 0.4868 0.81994 0.0
C1352 C 0.51425 0.50152 0.79057 0.0
C1353 C 0.50254 0.53757 0.8241 0.0
C1354 C 0.46758 0.52853 0.83611 0.0
C1355 C 0.44819 0.5594 0.84791 0.0
C1356 C 0.46446 0.60085 0.84727 0.0
C1357 C 0.49978 0.61155 0.83478 0.0
C1358 C 0.51908 0.57921 0.82306 0.0
H1359 H 0.58082 0.46413 0.17208 0.0
H1360 H 0.60712 0.45094 0.23608 0.0
H1361 H 0.53332 0.47295 0.24385 0.0
H1362 H 0.51647 0.55498 0.17471 0.0
H1363 H 0.47881 0.53831 0.15571 0.0
H1364 H 0.53294 0.51932 0.15491 0.0
H1365 H 0.50627 0.44106 0.15525 0.0
H1366 H 0.45201 0.4598 0.15552 0.0
H1367 H 0.47025 0.42368 0.17484 0.0
H1368 H 0.45917 0.50383 0.24464 0.0
H1369 H 0.38526 0.52785 0.23838 0.0
H1370 H 0.40579 0.51619 0.17388 0.0
C1371 C 0.57072 0.46498 0.1877 0.0
C1372 C 0.59958 0.45566 0.20348 0.0
C1373 C 0.58533 0.45733 0.22375 0.0
C1374 C 0.54363 0.47027 0.22832 0.0
C1375 C 0.51642 0.48066 0.21243 0.0
C1376 C 0.52898 0.47698 0.19251 0.0
C1377 C 0.4933 0.48935 0.17825 0.0
C1378 C 0.50617 0.52777 0.16513 0.0
C1379 C 0.47965 0.45119 0.1652 0.0
C1380 C 0.45893 0.5012 0.19326 0.0
C1381 C 0.47312 0.49662 0.21289 0.0
C1382 C 0.44753 0.50708 0.22934 0.0
C1383 C 0.40581 0.52118 0.22563 0.0
C1384 C 0.38996 0.52401 0.20566 0.0
C1385 C 0.41714 0.51436 0.1893 0.0
H1386 H 0.45767 0.07176 0.43001 0.0
H1387 H 0.44046 0.0878 0.49459 0.0
H1388 H 0.46385 0.01374 0.50012 0.0
H1389 H 0.42115 0.96015 0.42821 0.0
H1390 H 0.45943 0.94626 0.40904 0.0
H1391 H 0.43875 -0.00033 0.41025 0.0
H1392 H 0.51605 0.02897 0.41237 0.0
H1393 H 0.53696 0.97563 0.41162 0.0
H1394 H 0.55084 0.01052 0.4322 0.0
H1395 H 0.49593 0.94037 0.4989 0.0
H1396 H 0.52358 0.86899 0.49068 0.0
H1397 H 0.51716 0.89961 0.42681 0.0
C1398 C 0.45795 0.05949 0.4453 0.0
C1399 C 0.4471 0.08572 0.46186 0.0
C1400 C 0.44815 0.06834 0.48162 0.0
C1401 C 0.46178 0.02636 0.48494 0.0
C1402 C 0.4737 0.00195 0.46835 0.0
C1403 C 0.47099 0.01752 0.44888 0.0
C1404 C 0.48575 0.98471 0.43367 0.0
C1405 C 0.44908 0.97194 0.41946 0.0
C1406 C 0.52471 0.00094 0.42177 0.0
C1407 C 0.49774 0.94843 0.44765 0.0
C1408 C 0.49098 0.95921 0.4676 0.0
C1409 C 0.50092 0.93141 0.48331 0.0
C1410 C 0.51703 0.89104 0.47849 0.0
C1411 C 0.52261 0.87861 0.45809 0.0
C1412 C 0.51322 0.90806 0.44254 0.0
H1413 H 0.91278 0.44803 0.54899 0.0
H1414 H 0.89056 0.43569 0.61338 0.0
H1415 H 0.96359 0.46105 0.62017 0.0
H1416 H 0.02744 0.41698 0.55005 0.0
H1417 H 0.04211 0.45532 0.53097 0.0
H1418 H 0.98941 0.43213 0.53094 0.0
H1419 H 0.95671 0.50774 0.53166 0.0
H1420 H 0.00926 0.53116 0.53209 0.0
H1421 H 0.97138 0.5439 0.55162 0.0
H1422 H 0.03538 0.49261 0.6205 0.0
H1423 H 0.10635 0.52316 0.6145 0.0
H1424 H 0.08505 0.51667 0.54975 0.0
C1425 C 0.92391 0.4494 0.56445 0.0
C1426 C 0.8962 0.43937 0.58069 0.0
C1427 C 0.91135 0.44289 0.60075 0.0
C1428 C 0.95273 0.45742 0.60476 0.0
C1429 C 0.97872 0.46851 0.58854 0.0
C1430 C 0.96536 0.46428 0.56877 0.0
C1431 C -0.00037 0.48032 0.55432 0.0
C1432 C 0.0156 0.44402 0.54077 0.0
C1433 C 0.98325 0.51802 0.54168 0.0
C1434 C 0.03395 0.49454 0.56912 0.0
C1435 C 0.02088 0.48733 0.58875 0.0
C1436 C 0.04622 0.49803 0.6052 0.0
C1437 C 0.08656 0.51554 0.60159 0.0
C1438 C 0.10161 0.52232 0.58164 0.0
C1439 C 0.07449 0.51221 0.56517 0.0
loop_
_geom_bond_atom_site_label_1
_geom_bond_atom_site_label_2
_geom_bond_distance
_geom_bond_site_symmetry_2
_ccdc_geom_bond_type
Mn0 O5 2.095 . S
Mn0 O15 2.162 . S
Mn0 O16 2.297 . S
Mn0 O24 2.385 . S
Mn0 O25 2.209 . S
Mn0 O26 2.094 . S
Mn1 O6 2.121 . S
Mn1 N8 2.257 1_455 S
Mn1 N17 2.282 1_455 S
Mn1 O25 2.215 . S
Mn1 O27 2.117 . S
C2 O24 1.234 . S
C2 O25 1.283 . S
C3 O15 1.281 . S
C3 O16 1.236 . S
C4 O26 1.240 . S
C4 O27 1.264 . S
O5 Mn0 2.095 . S
O5 C14 1.250 . S
O6 Mn1 2.121 . S
O6 C14 1.258 . S
C7 N8 1.326 1_455 S
C7 C11 1.460 1_455 S
C7 H13 0.929 . S
N8 Mn1 2.257 1_655 S
N8 C7 1.326 1_655 S
N8 C12 1.362 . S
C9 C10 1.258 . S
C9 C12 1.431 . S
C9 C29 1.449 . S
C10 C9 1.258 . S
C10 C11 1.477 . S
C10 H30 0.931 . S
C11 C7 1.460 1_655 S
C11 C10 1.477 . S
C11 H31 0.930 . S
C12 N8 1.362 . S
C12 C9 1.431 . S
C12 C22 1.476 . S
H13 C7 0.929 . S
C14 O5 1.250 . S
C14 O6 1.258 . S
O15 Mn0 2.162 . S
O15 C3 1.281 . S
O16 Mn0 2.297 . S
O16 C3 1.236 . S
N17 Mn1 2.282 1_655 S
N17 C18 1.328 . S
N17 C22 1.318 . S
C18 N17 1.328 . S
C18 C19 1.457 . S
C18 H23 0.929 . S
C19 C18 1.457 . S
C19 C20 1.291 . S
C19 H32 0.931 . S
C20 C19 1.291 . S
C20 C21 1.373 . S
C20 H33 0.929 . S
C21 C20 1.373 . S
C21 C22 1.396 . S
C21 C28 1.403 . S
C22 C12 1.476 . S
C22 N17 1.318 . S
C22 C21 1.396 . S
H23 C18 0.929 . S
O24 Mn0 2.385 . S
O24 C2 1.234 . S
O25 Mn0 2.209 . S
O25 Mn1 2.215 . S
O25 C2 1.283 . S
O26 Mn0 2.094 . S
O26 C4 1.240 . S
O27 Mn1 2.117 . S
O27 C4 1.264 . S
C28 C21 1.403 . S
C28 C29 1.399 . S
C28 H34 0.929 . S
C29 C9 1.449 . S
C29 C28 1.399 . S
C29 H35 0.930 . S
H30 C10 0.931 . S
H31 C11 0.930 . S
H32 C19 0.931 . S
H33 C20 0.929 . S
H34 C28 0.929 . S
H35 C29 0.930 . S
Mn36 O41 2.095 . S
Mn36 O51 2.162 . S
Mn36 O52 2.297 . S
Mn36 O60 2.385 . S
Mn36 O61 2.209 . S
Mn36 O62 2.094 . S
Mn37 O42 2.121 . S
Mn37 N44 2.257 1_565 S
Mn37 N53 2.282 1_565 S
Mn37 O61 2.215 . S
Mn37 O63 2.117 . S
C38 O60 1.234 . S
C38 O61 1.283 . S
C39 O51 1.281 . S
C39 O52 1.236 . S
C40 O62 1.240 . S
C40 O63 1.264 . S
O41 Mn36 2.095 . S
O41 C50 1.250 . S
O42 Mn37 2.121 . S
O42 C50 1.258 . S
C43 N44 1.326 1_565 S
C43 C47 1.460 1_565 S
C43 H49 0.929 . S
N44 Mn37 2.257 1_545 S
N44 C43 1.326 1_545 S
N44 C48 1.362 . S
C45 C46 1.258 . S
C45 C48 1.431 . S
C45 C65 1.449 . S
C46 C45 1.258 . S
C46 C47 1.477 . S
C46 H66 0.931 . S
C47 C43 1.460 1_545 S
C47 C46 1.477 . S
C47 H67 0.930 . S
C48 N44 1.362 . S
C48 C45 1.431 . S
C48 C58 1.476 . S
H49 C43 0.929 . S
C50 O41 1.250 . S
C50 O42 1.258 . S
O51 Mn36 2.162 . S
O51 C39 1.281 . S
O52 Mn36 2.297 . S
O52 C39 1.236 . S
N53 Mn37 2.282 1_545 S
N53 C54 1.328 . S
N53 C58 1.318 . S
C54 N53 1.328 . S
C54 C55 1.457 . S
C54 H59 0.929 . S
C55 C54 1.457 . S
C55 C56 1.291 . S
C55 H68 0.931 . S
C56 C55 1.291 . S
C56 C57 1.373 . S
C56 H69 0.929 . S
C57 C56 1.373 . S
C57 C58 1.396 . S
C57 C64 1.403 . S
C58 C48 1.476 . S
C58 N53 1.318 . S
C58 C57 1.396 . S
H59 C54 0.929 . S
O60 Mn36 2.385 . S
O60 C38 1.234 . S
O61 Mn36 2.209 . S
O61 Mn37 2.215 . S
O61 C38 1.283 . S
O62 Mn36 2.094 . S
O62 C40 1.240 . S
O63 Mn37 2.117 . S
O63 C40 1.264 . S
C64 C57 1.403 . S
C64 C65 1.399 . S
C64 H70 0.929 . S
C65 C45 1.449 . S
C65 C64 1.399 . S
C65 H71 0.930 . S
H66 C46 0.931 . S
H67 C47 0.930 . S
H68 C55 0.931 . S
H69 C56 0.929 . S
H70 C64 0.929 . S
H71 C65 0.930 . S
Mn72 O77 2.095 . S
Mn72 O87 2.162 . S
Mn72 O88 2.297 . S
Mn72 O96 2.385 . S
Mn72 O97 2.209 . S
Mn72 O98 2.094 . S
Mn73 O78 2.121 . S
Mn73 N80 2.257 1_655 S
Mn73 N89 2.282 1_655 S
Mn73 O97 2.215 . S
Mn73 O99 2.117 . S
C74 O96 1.234 . S
C74 O97 1.283 . S
C75 O87 1.281 . S
C75 O88 1.236 . S
C76 O98 1.240 . S
C76 O99 1.264 . S
O77 Mn72 2.095 . S
O77 C86 1.250 . S
O78 Mn73 2.121 . S
O78 C86 1.258 . S
C79 N80 1.326 1_655 S
C79 C83 1.460 1_655 S
C79 H85 0.929 . S
N80 Mn73 2.257 1_455 S
N80 C79 1.326 1_455 S
N80 C84 1.362 . S
C81 C82 1.258 . S
C81 C84 1.431 . S
C81 C101 1.449 . S
C82 C81 1.258 . S
C82 C83 1.477 . S
C82 H102 0.931 . S
C83 C79 1.460 1_455 S
C83 C82 1.477 . S
C83 H103 0.930 . S
C84 N80 1.362 . S
C84 C81 1.431 . S
C84 C94 1.476 . S
H85 C79 0.929 . S
C86 O77 1.250 . S
C86 O78 1.258 . S
O87 Mn72 2.162 . S
O87 C75 1.281 . S
O88 Mn72 2.297 . S
O88 C75 1.236 . S
N89 Mn73 2.282 1_455 S
N89 C90 1.328 . S
N89 C94 1.318 . S
C90 N89 1.328 . S
C90 C91 1.457 . S
C90 H95 0.929 . S
C91 C90 1.457 . S
C91 C92 1.291 . S
C91 H104 0.931 . S
C92 C91 1.291 . S
C92 C93 1.373 . S
C92 H105 0.929 . S
C93 C92 1.373 . S
C93 C94 1.396 . S
C93 C100 1.403 . S
C94 C84 1.476 . S
C94 N89 1.318 . S
C94 C93 1.396 . S
H95 C90 0.929 . S
O96 Mn72 2.385 . S
O96 C74 1.234 . S
O97 Mn72 2.209 . S
O97 Mn73 2.215 . S
O97 C74 1.283 . S
O98 Mn72 2.094 . S
O98 C76 1.240 . S
O99 Mn73 2.117 . S
O99 C76 1.264 . S
C100 C93 1.403 . S
C100 C101 1.399 . S
C100 H106 0.929 . S
C101 C81 1.449 . S
C101 C100 1.399 . S
C101 H107 0.930 . S
H102 C82 0.931 . S
H103 C83 0.930 . S
H104 C91 0.931 . S
H105 C92 0.929 . S
H106 C100 0.929 . S
H107 C101 0.930 . S
Mn108 O113 2.095 . S
Mn108 O123 2.162 . S
Mn108 O124 2.297 . S
Mn108 O132 2.385 . S
Mn108 O133 2.209 . S
Mn108 O134 2.094 . S
Mn109 O114 2.121 . S
Mn109 N116 2.257 1_545 S
Mn109 N125 2.282 1_545 S
Mn109 O133 2.215 . S
Mn109 O135 2.117 . S
C110 O132 1.234 . S
C110 O133 1.283 . S
C111 O123 1.281 . S
C111 O124 1.236 . S
C112 O134 1.240 . S
C112 O135 1.264 . S
O113 Mn108 2.095 . S
O113 C122 1.250 . S
O114 Mn109 2.121 . S
O114 C122 1.258 . S
C115 N116 1.326 1_545 S
C115 C119 1.460 1_545 S
C115 H121 0.929 . S
N116 Mn109 2.257 1_565 S
N116 C115 1.326 1_565 S
N116 C120 1.362 . S
C117 C118 1.258 . S
C117 C120 1.431 . S
C117 C137 1.449 . S
C118 C117 1.258 . S
C118 C119 1.477 . S
C118 H138 0.931 . S
C119 C115 1.460 1_565 S
C119 C118 1.477 . S
C119 H139 0.930 . S
C120 N116 1.362 . S
C120 C117 1.431 . S
C120 C130 1.476 . S
H121 C115 0.929 . S
C122 O113 1.250 . S
C122 O114 1.258 . S
O123 Mn108 2.162 . S
O123 C111 1.281 . S
O124 Mn108 2.297 . S
O124 C111 1.236 . S
N125 Mn109 2.282 1_565 S
N125 C126 1.328 . S
N125 C130 1.318 . S
C126 N125 1.328 . S
C126 C127 1.457 . S
C126 H131 0.929 . S
C127 C126 1.457 . S
C127 C128 1.291 . S
C127 H140 0.931 . S
C128 C127 1.291 . S
C128 C129 1.373 . S
C128 H141 0.929 . S
C129 C128 1.373 . S
C129 C130 1.396 . S
C129 C136 1.403 . S
C130 C120 1.476 . S
C130 N125 1.318 . S
C130 C129 1.396 . S
H131 C126 0.929 . S
O132 Mn108 2.385 . S
O132 C110 1.234 . S
O133 Mn108 2.209 . S
O133 Mn109 2.215 . S
O133 C110 1.283 . S
O134 Mn108 2.094 . S
O134 C112 1.240 . S
O135 Mn109 2.117 . S
O135 C112 1.264 . S
C136 C129 1.403 . S
C136 C137 1.399 . S
C136 H142 0.929 . S
C137 C117 1.449 . S
C137 C136 1.399 . S
C137 H143 0.930 . S
H138 C118 0.931 . S
H139 C119 0.930 . S
H140 C127 0.931 . S
H141 C128 0.929 . S
H142 C136 0.929 . S
H143 C137 0.930 . S
Mn144 O149 2.095 . S
Mn144 O159 2.162 . S
Mn144 O160 2.297 . S
Mn144 O168 2.385 . S
Mn144 O169 2.209 . S
Mn144 O170 2.094 . S
Mn145 O150 2.121 . S
Mn145 N152 2.257 1_455 S
Mn145 N161 2.282 1_455 S
Mn145 O169 2.215 . S
Mn145 O171 2.117 . S
C146 O168 1.234 . S
C146 O169 1.283 . S
C147 O159 1.281 . S
C147 O160 1.236 . S
C148 O170 1.240 . S
C148 O171 1.264 . S
O149 Mn144 2.095 . S
O149 C158 1.250 . S
O150 Mn145 2.121 . S
O150 C158 1.258 . S
C151 N152 1.326 1_455 S
C151 C155 1.460 1_455 S
C151 H157 0.929 . S
N152 Mn145 2.257 1_655 S
N152 C151 1.326 1_655 S
N152 C156 1.362 . S
C153 C154 1.258 . S
C153 C156 1.431 . S
C153 C173 1.449 . S
C154 C153 1.258 . S
C154 C155 1.477 . S
C154 H174 0.931 . S
C155 C151 1.460 1_655 S
C155 C154 1.477 . S
C155 H175 0.930 . S
C156 N152 1.362 . S
C156 C153 1.431 . S
C156 C166 1.476 . S
H157 C151 0.929 . S
C158 O149 1.250 . S
C158 O150 1.258 . S
O159 Mn144 2.162 . S
O159 C147 1.281 . S
O160 Mn144 2.297 . S
O160 C147 1.236 . S
N161 Mn145 2.282 1_655 S
N161 C162 1.328 . S
N161 C166 1.318 . S
C162 N161 1.328 . S
C162 C163 1.457 . S
C162 H167 0.929 . S
C163 C162 1.457 . S
C163 C164 1.291 . S
C163 H176 0.931 . S
C164 C163 1.291 . S
C164 C165 1.373 . S
C164 H177 0.929 . S
C165 C164 1.373 . S
C165 C166 1.396 . S
C165 C172 1.403 . S
C166 C156 1.476 . S
C166 N161 1.318 . S
C166 C165 1.396 . S
H167 C162 0.929 . S
O168 Mn144 2.385 . S
O168 C146 1.234 . S
O169 Mn144 2.209 . S
O169 Mn145 2.215 . S
O169 C146 1.283 . S
O170 Mn144 2.094 . S
O170 C148 1.240 . S
O171 Mn145 2.117 . S
O171 C148 1.264 . S
C172 C165 1.403 . S
C172 C173 1.399 . S
C172 H178 0.929 . S
C173 C153 1.449 . S
C173 C172 1.399 . S
C173 H179 0.930 . S
H174 C154 0.931 . S
H175 C155 0.930 . S
H176 C163 0.931 . S
H177 C164 0.929 . S
H178 C172 0.929 . S
H179 C173 0.930 . S
Mn180 O185 2.095 . S
Mn180 O195 2.162 . S
Mn180 O196 2.297 . S
Mn180 O204 2.385 . S
Mn180 O205 2.209 . S
Mn180 O206 2.094 . S
Mn181 O186 2.121 . S
Mn181 N188 2.257 1_565 S
Mn181 N197 2.282 1_565 S
Mn181 O205 2.215 . S
Mn181 O207 2.117 . S
C182 O204 1.234 . S
C182 O205 1.283 . S
C183 O195 1.281 . S
C183 O196 1.236 . S
C184 O206 1.240 . S
C184 O207 1.264 . S
O185 Mn180 2.095 . S
O185 C194 1.250 . S
O186 Mn181 2.121 . S
O186 C194 1.258 . S
C187 N188 1.326 1_565 S
C187 C191 1.460 1_565 S
C187 H193 0.929 . S
N188 Mn181 2.257 1_545 S
N188 C187 1.326 1_545 S
N188 C192 1.362 . S
C189 C190 1.258 . S
C189 C192 1.431 . S
C189 C209 1.449 . S
C190 C189 1.258 . S
C190 C191 1.477 . S
C190 H210 0.931 . S
C191 C187 1.460 1_545 S
C191 C190 1.477 . S
C191 H211 0.930 . S
C192 N188 1.362 . S
C192 C189 1.431 . S
C192 C202 1.476 . S
H193 C187 0.929 . S
C194 O185 1.250 . S
C194 O186 1.258 . S
O195 Mn180 2.162 . S
O195 C183 1.281 . S
O196 Mn180 2.297 . S
O196 C183 1.236 . S
N197 Mn181 2.282 1_545 S
N197 C198 1.328 . S
N197 C202 1.318 . S
C198 N197 1.328 . S
C198 C199 1.457 . S
C198 H203 0.929 . S
C199 C198 1.457 . S
C199 C200 1.291 . S
C199 H212 0.931 . S
C200 C199 1.291 . S
C200 C201 1.373 . S
C200 H213 0.929 . S
C201 C200 1.373 . S
C201 C202 1.396 . S
C201 C208 1.403 . S
C202 C192 1.476 . S
C202 N197 1.318 . S
C202 C201 1.396 . S
H203 C198 0.929 . S
O204 Mn180 2.385 . S
O204 C182 1.234 . S
O205 Mn180 2.209 . S
O205 Mn181 2.215 . S
O205 C182 1.283 . S
O206 Mn180 2.094 . S
O206 C184 1.240 . S
O207 Mn181 2.117 . S
O207 C184 1.264 . S
C208 C201 1.403 . S
C208 C209 1.399 . S
C208 H214 0.929 . S
C209 C189 1.449 . S
C209 C208 1.399 . S
C209 H215 0.930 . S
H210 C190 0.931 . S
H211 C191 0.930 . S
H212 C199 0.931 . S
H213 C200 0.929 . S
H214 C208 0.929 . S
H215 C209 0.930 . S
Mn216 O221 2.095 . S
Mn216 O231 2.162 . S
Mn216 O232 2.297 . S
Mn216 O240 2.385 . S
Mn216 O241 2.209 . S
Mn216 O242 2.094 . S
Mn217 O222 2.121 . S
Mn217 N224 2.257 1_655 S
Mn217 N233 2.282 1_655 S
Mn217 O241 2.215 . S
Mn217 O243 2.117 . S
C218 O240 1.234 . S
C218 O241 1.283 . S
C219 O231 1.281 . S
C219 O232 1.236 . S
C220 O242 1.240 . S
C220 O243 1.264 . S
O221 Mn216 2.095 . S
O221 C230 1.250 . S
O222 Mn217 2.121 . S
O222 C230 1.258 . S
C223 N224 1.326 1_655 S
C223 C227 1.460 1_655 S
C223 H229 0.929 . S
N224 Mn217 2.257 1_455 S
N224 C223 1.326 1_455 S
N224 C228 1.362 . S
C225 C226 1.258 . S
C225 C228 1.431 . S
C225 C245 1.449 . S
C226 C225 1.258 . S
C226 C227 1.477 . S
C226 H246 0.931 . S
C227 C223 1.460 1_455 S
C227 C226 1.477 . S
C227 H247 0.930 . S
C228 N224 1.362 . S
C228 C225 1.431 . S
C228 C238 1.476 . S
H229 C223 0.929 . S
C230 O221 1.250 . S
C230 O222 1.258 . S
O231 Mn216 2.162 . S
O231 C219 1.281 . S
O232 Mn216 2.297 . S
O232 C219 1.236 . S
N233 Mn217 2.282 1_455 S
N233 C234 1.328 . S
N233 C238 1.318 . S
C234 N233 1.328 . S
C234 C235 1.457 . S
C234 H239 0.929 . S
C235 C234 1.457 . S
C235 C236 1.291 . S
C235 H248 0.931 . S
C236 C235 1.291 . S
C236 C237 1.373 . S
C236 H249 0.929 . S
C237 C236 1.373 . S
C237 C238 1.396 . S
C237 C244 1.403 . S
C238 C228 1.476 . S
C238 N233 1.318 . S
C238 C237 1.396 . S
H239 C234 0.929 . S
O240 Mn216 2.385 . S
O240 C218 1.234 . S
O241 Mn216 2.209 . S
O241 Mn217 2.215 . S
O241 C218 1.283 . S
O242 Mn216 2.094 . S
O242 C220 1.240 . S
O243 Mn217 2.117 . S
O243 C220 1.264 . S
C244 C237 1.403 . S
C244 C245 1.399 . S
C244 H250 0.929 . S
C245 C225 1.449 . S
C245 C244 1.399 . S
C245 H251 0.930 . S
H246 C226 0.931 . S
H247 C227 0.930 . S
H248 C235 0.931 . S
H249 C236 0.929 . S
H250 C244 0.929 . S
H251 C245 0.930 . S
Mn252 O257 2.095 . S
Mn252 O267 2.162 . S
Mn252 O268 2.297 . S
Mn252 O276 2.385 . S
Mn252 O277 2.209 . S
Mn252 O278 2.094 . S
Mn253 O258 2.121 . S
Mn253 N260 2.257 1_545 S
Mn253 N269 2.282 1_545 S
Mn253 O277 2.215 . S
Mn253 O279 2.117 . S
C254 O276 1.234 . S
C254 O277 1.283 . S
C255 O267 1.281 . S
C255 O268 1.236 . S
C256 O278 1.240 . S
C256 O279 1.264 . S
O257 Mn252 2.095 . S
O257 C266 1.250 . S
O258 Mn253 2.121 . S
O258 C266 1.258 . S
C259 N260 1.326 1_545 S
C259 C263 1.460 1_545 S
C259 H265 0.929 . S
N260 Mn253 2.257 1_565 S
N260 C259 1.326 1_565 S
N260 C264 1.362 . S
C261 C262 1.258 . S
C261 C264 1.431 . S
C261 C281 1.449 . S
C262 C261 1.258 . S
C262 C263 1.477 . S
C262 H282 0.931 . S
C263 C259 1.460 1_565 S
C263 C262 1.477 . S
C263 H283 0.930 . S
C264 N260 1.362 . S
C264 C261 1.431 . S
C264 C274 1.476 . S
H265 C259 0.929 . S
C266 O257 1.250 . S
C266 O258 1.258 . S
O267 Mn252 2.162 . S
O267 C255 1.281 . S
O268 Mn252 2.297 . S
O268 C255 1.236 . S
N269 Mn253 2.282 1_565 S
N269 C270 1.328 . S
N269 C274 1.318 . S
C270 N269 1.328 . S
C270 C271 1.457 . S
C270 H275 0.929 . S
C271 C270 1.457 . S
C271 C272 1.291 . S
C271 H284 0.931 . S
C272 C271 1.291 . S
C272 C273 1.373 . S
C272 H285 0.929 . S
C273 C272 1.373 . S
C273 C274 1.396 . S
C273 C280 1.403 . S
C274 C264 1.476 . S
C274 N269 1.318 . S
C274 C273 1.396 . S
H275 C270 0.929 . S
O276 Mn252 2.385 . S
O276 C254 1.234 . S
O277 Mn252 2.209 . S
O277 Mn253 2.215 . S
O277 C254 1.283 . S
O278 Mn252 2.094 . S
O278 C256 1.240 . S
O279 Mn253 2.117 . S
O279 C256 1.264 . S
C280 C273 1.403 . S
C280 C281 1.399 . S
C280 H286 0.929 . S
C281 C261 1.449 . S
C281 C280 1.399 . S
C281 H287 0.930 . S
H282 C262 0.931 . S
H283 C263 0.930 . S
H284 C271 0.931 . S
H285 C272 0.929 . S
H286 C280 0.929 . S
H287 C281 0.930 . S
Mn288 O293 2.095 . S
Mn288 O303 2.162 . S
Mn288 O304 2.297 . S
Mn288 O312 2.385 . S
Mn288 O313 2.209 . S
Mn288 O314 2.094 . S
Mn289 O294 2.121 . S
Mn289 N296 2.257 . S
Mn289 N305 2.282 . S
Mn289 O313 2.215 . S
Mn289 O315 2.117 . S
C290 O312 1.234 . S
C290 O313 1.283 . S
C291 O303 1.281 . S
C291 O304 1.236 . S
C292 O314 1.240 . S
C292 O315 1.264 . S
O293 Mn288 2.095 . S
O293 C302 1.250 . S
O294 Mn289 2.121 . S
O294 C302 1.258 . S
C295 N296 1.326 . S
C295 C299 1.460 . S
C295 H301 0.929 . S
N296 Mn289 2.257 . S
N296 C295 1.326 . S
N296 C300 1.362 . S
C297 C298 1.258 . S
C297 C300 1.431 . S
C297 C317 1.449 . S
C298 C297 1.258 . S
C298 C299 1.477 . S
C298 H318 0.931 . S
C299 C295 1.460 . S
C299 C298 1.477 . S
C299 H319 0.930 . S
C300 N296 1.362 . S
C300 C297 1.431 . S
C300 C310 1.476 . S
H301 C295 0.929 . S
C302 O293 1.250 . S
C302 O294 1.258 . S
O303 Mn288 2.162 . S
O303 C291 1.281 . S
O304 Mn288 2.297 . S
O304 C291 1.236 . S
N305 Mn289 2.282 . S
N305 C306 1.328 . S
N305 C310 1.318 . S
C306 N305 1.328 . S
C306 C307 1.457 . S
C306 H311 0.929 . S
C307 C306 1.457 . S
C307 C308 1.291 . S
C307 H320 0.931 . S
C308 C307 1.291 . S
C308 C309 1.373 . S
C308 H321 0.929 . S
C309 C308 1.373 . S
C309 C310 1.396 . S
C309 C316 1.403 . S
C310 C300 1.476 . S
C310 N305 1.318 . S
C310 C309 1.396 . S
H311 C306 0.929 . S
O312 Mn288 2.385 . S
O312 C290 1.234 . S
O313 Mn288 2.209 . S
O313 Mn289 2.215 . S
O313 C290 1.283 . S
O314 Mn288 2.094 . S
O314 C292 1.240 . S
O315 Mn289 2.117 . S
O315 C292 1.264 . S
C316 C309 1.403 . S
C316 C317 1.399 . S
C316 H322 0.929 . S
C317 C297 1.449 . S
C317 C316 1.399 . S
C317 H323 0.930 . S
H318 C298 0.931 . S
H319 C299 0.930 . S
H320 C307 0.931 . S
H321 C308 0.929 . S
H322 C316 0.929 . S
H323 C317 0.930 . S
Mn324 O329 2.095 . S
Mn324 O339 2.162 . S
Mn324 O340 2.297 . S
Mn324 O348 2.385 . S
Mn324 O349 2.209 . S
Mn324 O350 2.094 . S
Mn325 O330 2.121 . S
Mn325 N332 2.257 . S
Mn325 N341 2.282 . S
Mn325 O349 2.215 . S
Mn325 O351 2.117 . S
C326 O348 1.234 . S
C326 O349 1.283 . S
C327 O339 1.281 . S
C327 O340 1.236 . S
C328 O350 1.240 . S
C328 O351 1.264 . S
O329 Mn324 2.095 . S
O329 C338 1.250 . S
O330 Mn325 2.121 . S
O330 C338 1.258 . S
C331 N332 1.326 . S
C331 C335 1.460 . S
C331 H337 0.929 . S
N332 Mn325 2.257 . S
N332 C331 1.326 . S
N332 C336 1.362 . S
C333 C334 1.258 . S
C333 C336 1.431 . S
C333 C353 1.449 . S
C334 C333 1.258 . S
C334 C335 1.477 . S
C334 H354 0.931 . S
C335 C331 1.460 . S
C335 C334 1.477 . S
C335 H355 0.930 . S
C336 N332 1.362 . S
C336 C333 1.431 . S
C336 C346 1.476 . S
H337 C331 0.929 . S
C338 O329 1.250 . S
C338 O330 1.258 . S
O339 Mn324 2.162 . S
O339 C327 1.281 . S
O340 Mn324 2.297 . S
O340 C327 1.236 . S
N341 Mn325 2.282 . S
N341 C342 1.328 . S
N341 C346 1.318 . S
C342 N341 1.328 . S
C342 C343 1.457 . S
C342 H347 0.929 . S
C343 C342 1.457 . S
C343 C344 1.291 . S
C343 H356 0.931 . S
C344 C343 1.291 . S
C344 C345 1.373 . S
C344 H357 0.929 . S
C345 C344 1.373 . S
C345 C346 1.396 . S
C345 C352 1.403 . S
C346 C336 1.476 . S
C346 N341 1.318 . S
C346 C345 1.396 . S
H347 C342 0.929 . S
O348 Mn324 2.385 . S
O348 C326 1.234 . S
O349 Mn324 2.209 . S
O349 Mn325 2.215 . S
O349 C326 1.283 . S
O350 Mn324 2.094 . S
O350 C328 1.240 . S
O351 Mn325 2.117 . S
O351 C328 1.264 . S
C352 C345 1.403 . S
C352 C353 1.399 . S
C352 H358 0.929 . S
C353 C333 1.449 . S
C353 C352 1.399 . S
C353 H359 0.930 . S
H354 C334 0.931 . S
H355 C335 0.930 . S
H356 C343 0.931 . S
H357 C344 0.929 . S
H358 C352 0.929 . S
H359 C353 0.930 . S
Mn360 O365 2.095 . S
Mn360 O375 2.162 . S
Mn360 O376 2.297 . S
Mn360 O384 2.385 . S
Mn360 O385 2.209 . S
Mn360 O386 2.094 . S
Mn361 O366 2.121 . S
Mn361 N368 2.257 . S
Mn361 N377 2.282 . S
Mn361 O385 2.215 . S
Mn361 O387 2.117 . S
C362 O384 1.234 . S
C362 O385 1.283 . S
C363 O375 1.281 . S
C363 O376 1.236 . S
C364 O386 1.240 . S
C364 O387 1.264 . S
O365 Mn360 2.095 . S
O365 C374 1.250 . S
O366 Mn361 2.121 . S
O366 C374 1.258 . S
C367 N368 1.326 . S
C367 C371 1.460 . S
C367 H373 0.929 . S
N368 Mn361 2.257 . S
N368 C367 1.326 . S
N368 C372 1.362 . S
C369 C370 1.258 . S
C369 C372 1.431 . S
C369 C389 1.449 . S
C370 C369 1.258 . S
C370 C371 1.477 . S
C370 H390 0.931 . S
C371 C367 1.460 . S
C371 C370 1.477 . S
C371 H391 0.930 . S
C372 N368 1.362 . S
C372 C369 1.431 . S
C372 C382 1.476 . S
H373 C367 0.929 . S
C374 O365 1.250 . S
C374 O366 1.258 . S
O375 Mn360 2.162 . S
O375 C363 1.281 . S
O376 Mn360 2.297 . S
O376 C363 1.236 . S
N377 Mn361 2.282 . S
N377 C378 1.328 . S
N377 C382 1.318 . S
C378 N377 1.328 . S
C378 C379 1.457 . S
C378 H383 0.929 . S
C379 C378 1.457 . S
C379 C380 1.291 . S
C379 H392 0.931 . S
C380 C379 1.291 . S
C380 C381 1.373 . S
C380 H393 0.929 . S
C381 C380 1.373 . S
C381 C382 1.396 . S
C381 C388 1.403 . S
C382 C372 1.476 . S
C382 N377 1.318 . S
C382 C381 1.396 . S
H383 C378 0.929 . S
O384 Mn360 2.385 . S
O384 C362 1.234 . S
O385 Mn360 2.209 . S
O385 Mn361 2.215 . S
O385 C362 1.283 . S
O386 Mn360 2.094 . S
O386 C364 1.240 . S
O387 Mn361 2.117 . S
O387 C364 1.264 . S
C388 C381 1.403 . S
C388 C389 1.399 . S
C388 H394 0.929 . S
C389 C369 1.449 . S
C389 C388 1.399 . S
C389 H395 0.930 . S
H390 C370 0.931 . S
H391 C371 0.930 . S
H392 C379 0.931 . S
H393 C380 0.929 . S
H394 C388 0.929 . S
H395 C389 0.930 . S
Mn396 O401 2.095 . S
Mn396 O411 2.162 . S
Mn396 O412 2.297 . S
Mn396 O420 2.385 . S
Mn396 O421 2.209 . S
Mn396 O422 2.094 . S
Mn397 O402 2.121 . S
Mn397 N404 2.257 . S
Mn397 N413 2.282 . S
Mn397 O421 2.215 . S
Mn397 O423 2.117 . S
C398 O420 1.234 . S
C398 O421 1.283 . S
C399 O411 1.281 . S
C399 O412 1.236 . S
C400 O422 1.240 . S
C400 O423 1.264 . S
O401 Mn396 2.095 . S
O401 C410 1.250 . S
O402 Mn397 2.121 . S
O402 C410 1.258 . S
C403 N404 1.326 . S
C403 C407 1.460 . S
C403 H409 0.929 . S
N404 Mn397 2.257 . S
N404 C403 1.326 . S
N404 C408 1.362 . S
C405 C406 1.258 . S
C405 C408 1.431 . S
C405 C425 1.449 . S
C406 C405 1.258 . S
C406 C407 1.477 . S
C406 H426 0.931 . S
C407 C403 1.460 . S
C407 C406 1.477 . S
C407 H427 0.930 . S
C408 N404 1.362 . S
C408 C405 1.431 . S
C408 C418 1.476 . S
H409 C403 0.929 . S
C410 O401 1.250 . S
C410 O402 1.258 . S
O411 Mn396 2.162 . S
O411 C399 1.281 . S
O412 Mn396 2.297 . S
O412 C399 1.236 . S
N413 Mn397 2.282 . S
N413 C414 1.328 . S
N413 C418 1.318 . S
C414 N413 1.328 . S
C414 C415 1.457 . S
C414 H419 0.929 . S
C415 C414 1.457 . S
C415 C416 1.291 . S
C415 H428 0.931 . S
C416 C415 1.291 . S
C416 C417 1.373 . S
C416 H429 0.929 . S
C417 C416 1.373 . S
C417 C418 1.396 . S
C417 C424 1.403 . S
C418 C408 1.476 . S
C418 N413 1.318 . S
C418 C417 1.396 . S
H419 C414 0.929 . S
O420 Mn396 2.385 . S
O420 C398 1.234 . S
O421 Mn396 2.209 . S
O421 Mn397 2.215 . S
O421 C398 1.283 . S
O422 Mn396 2.094 . S
O422 C400 1.240 . S
O423 Mn397 2.117 . S
O423 C400 1.264 . S
C424 C417 1.403 . S
C424 C425 1.399 . S
C424 H430 0.929 . S
C425 C405 1.449 . S
C425 C424 1.399 . S
C425 H431 0.930 . S
H426 C406 0.931 . S
H427 C407 0.930 . S
H428 C415 0.931 . S
H429 C416 0.929 . S
H430 C424 0.929 . S
H431 C425 0.930 . S
Mn432 O437 2.095 . S
Mn432 O447 2.162 . S
Mn432 O448 2.297 . S
Mn432 O456 2.385 . S
Mn432 O457 2.209 . S
Mn432 O458 2.094 . S
Mn433 O438 2.121 . S
Mn433 N440 2.257 . S
Mn433 N449 2.282 . S
Mn433 O457 2.215 . S
Mn433 O459 2.117 . S
C434 O456 1.234 . S
C434 O457 1.283 . S
C435 O447 1.281 . S
C435 O448 1.236 . S
C436 O458 1.240 . S
C436 O459 1.264 . S
O437 Mn432 2.095 . S
O437 C446 1.250 . S
O438 Mn433 2.121 . S
O438 C446 1.258 . S
C439 N440 1.326 . S
C439 C443 1.460 . S
C439 H445 0.929 . S
N440 Mn433 2.257 . S
N440 C439 1.326 . S
N440 C444 1.362 . S
C441 C442 1.258 . S
C441 C444 1.431 . S
C441 C461 1.449 . S
C442 C441 1.258 . S
C442 C443 1.477 . S
C442 H462 0.931 . S
C443 C439 1.460 . S
C443 C442 1.477 . S
C443 H463 0.930 . S
C444 N440 1.362 . S
C444 C441 1.431 . S
C444 C454 1.476 . S
H445 C439 0.929 . S
C446 O437 1.250 . S
C446 O438 1.258 . S
O447 Mn432 2.162 . S
O447 C435 1.281 . S
O448 Mn432 2.297 . S
O448 C435 1.236 . S
N449 Mn433 2.282 . S
N449 C450 1.328 . S
N449 C454 1.318 . S
C450 N449 1.328 . S
C450 C451 1.457 . S
C450 H455 0.929 . S
C451 C450 1.457 . S
C451 C452 1.291 . S
C451 H464 0.931 . S
C452 C451 1.291 . S
C452 C453 1.373 . S
C452 H465 0.929 . S
C453 C452 1.373 . S
C453 C454 1.396 . S
C453 C460 1.403 . S
C454 C444 1.476 . S
C454 N449 1.318 . S
C454 C453 1.396 . S
H455 C450 0.929 . S
O456 Mn432 2.385 . S
O456 C434 1.234 . S
O457 Mn432 2.209 . S
O457 Mn433 2.215 . S
O457 C434 1.283 . S
O458 Mn432 2.094 . S
O458 C436 1.240 . S
O459 Mn433 2.117 . S
O459 C436 1.264 . S
C460 C453 1.403 . S
C460 C461 1.399 . S
C460 H466 0.929 . S
C461 C441 1.449 . S
C461 C460 1.399 . S
C461 H467 0.930 . S
H462 C442 0.931 . S
H463 C443 0.930 . S
H464 C451 0.931 . S
H465 C452 0.929 . S
H466 C460 0.929 . S
H467 C461 0.930 . S
Mn468 O473 2.095 . S
Mn468 O483 2.162 . S
Mn468 O484 2.297 . S
Mn468 O492 2.385 . S
Mn468 O493 2.209 . S
Mn468 O494 2.094 . S
Mn469 O474 2.121 . S
Mn469 N476 2.257 . S
Mn469 N485 2.282 . S
Mn469 O493 2.215 . S
Mn469 O495 2.117 . S
C470 O492 1.234 . S
C470 O493 1.283 . S
C471 O483 1.281 . S
C471 O484 1.236 . S
C472 O494 1.240 . S
C472 O495 1.264 . S
O473 Mn468 2.095 . S
O473 C482 1.250 . S
O474 Mn469 2.121 . S
O474 C482 1.258 . S
C475 N476 1.326 . S
C475 C479 1.460 . S
C475 H481 0.929 . S
N476 Mn469 2.257 . S
N476 C475 1.326 . S
N476 C480 1.362 . S
C477 C478 1.258 . S
C477 C480 1.431 . S
C477 C497 1.449 . S
C478 C477 1.258 . S
C478 C479 1.477 . S
C478 H498 0.931 . S
C479 C475 1.460 . S
C479 C478 1.477 . S
C479 H499 0.930 . S
C480 N476 1.362 . S
C480 C477 1.431 . S
C480 C490 1.476 . S
H481 C475 0.929 . S
C482 O473 1.250 . S
C482 O474 1.258 . S
O483 Mn468 2.162 . S
O483 C471 1.281 . S
O484 Mn468 2.297 . S
O484 C471 1.236 . S
N485 Mn469 2.282 . S
N485 C486 1.328 . S
N485 C490 1.318 . S
C486 N485 1.328 . S
C486 C487 1.457 . S
C486 H491 0.929 . S
C487 C486 1.457 . S
C487 C488 1.291 . S
C487 H500 0.931 . S
C488 C487 1.291 . S
C488 C489 1.373 . S
C488 H501 0.929 . S
C489 C488 1.373 . S
C489 C490 1.396 . S
C489 C496 1.403 . S
C490 C480 1.476 . S
C490 N485 1.318 . S
C490 C489 1.396 . S
H491 C486 0.929 . S
O492 Mn468 2.385 . S
O492 C470 1.234 . S
O493 Mn468 2.209 . S
O493 Mn469 2.215 . S
O493 C470 1.283 . S
O494 Mn468 2.094 . S
O494 C472 1.240 . S
O495 Mn469 2.117 . S
O495 C472 1.264 . S
C496 C489 1.403 . S
C496 C497 1.399 . S
C496 H502 0.929 . S
C497 C477 1.449 . S
C497 C496 1.399 . S
C497 H503 0.930 . S
H498 C478 0.931 . S
H499 C479 0.930 . S
H500 C487 0.931 . S
H501 C488 0.929 . S
H502 C496 0.929 . S
H503 C497 0.930 . S
Mn504 O509 2.095 . S
Mn504 O519 2.162 . S
Mn504 O520 2.297 . S
Mn504 O528 2.385 . S
Mn504 O529 2.209 . S
Mn504 O530 2.094 . S
Mn505 O510 2.121 . S
Mn505 N512 2.257 . S
Mn505 N521 2.282 . S
Mn505 O529 2.215 . S
Mn505 O531 2.117 . S
C506 O528 1.234 . S
C506 O529 1.283 . S
C507 O519 1.281 . S
C507 O520 1.236 . S
C508 O530 1.240 . S
C508 O531 1.264 . S
O509 Mn504 2.095 . S
O509 C518 1.250 . S
O510 Mn505 2.121 . S
O510 C518 1.258 . S
C511 N512 1.326 . S
C511 C515 1.460 . S
C511 H517 0.929 . S
N512 Mn505 2.257 . S
N512 C511 1.326 . S
N512 C516 1.362 . S
C513 C514 1.258 . S
C513 C516 1.431 . S
C513 C533 1.449 . S
C514 C513 1.258 . S
C514 C515 1.477 . S
C514 H534 0.931 . S
C515 C511 1.460 . S
C515 C514 1.477 . S
C515 H535 0.930 . S
C516 N512 1.362 . S
C516 C513 1.431 . S
C516 C526 1.476 . S
H517 C511 0.929 . S
C518 O509 1.250 . S
C518 O510 1.258 . S
O519 Mn504 2.162 . S
O519 C507 1.281 . S
O520 Mn504 2.297 . S
O520 C507 1.236 . S
N521 Mn505 2.282 . S
N521 C522 1.328 . S
N521 C526 1.318 . S
C522 N521 1.328 . S
C522 C523 1.457 . S
C522 H527 0.929 . S
C523 C522 1.457 . S
C523 C524 1.291 . S
C523 H536 0.931 . S
C524 C523 1.291 . S
C524 C525 1.373 . S
C524 H537 0.929 . S
C525 C524 1.373 . S
C525 C526 1.396 . S
C525 C532 1.403 . S
C526 C516 1.476 . S
C526 N521 1.318 . S
C526 C525 1.396 . S
H527 C522 0.929 . S
O528 Mn504 2.385 . S
O528 C506 1.234 . S
O529 Mn504 2.209 . S
O529 Mn505 2.215 . S
O529 C506 1.283 . S
O530 Mn504 2.094 . S
O530 C508 1.240 . S
O531 Mn505 2.117 . S
O531 C508 1.264 . S
C532 C525 1.403 . S
C532 C533 1.399 . S
C532 H538 0.929 . S
C533 C513 1.449 . S
C533 C532 1.399 . S
C533 H539 0.930 . S
H534 C514 0.931 . S
H535 C515 0.930 . S
H536 C523 0.931 . S
H537 C524 0.929 . S
H538 C532 0.929 . S
H539 C533 0.930 . S
Mn540 O545 2.095 . S
Mn540 O555 2.162 . S
Mn540 O556 2.297 . S
Mn540 O564 2.385 . S
Mn540 O565 2.209 . S
Mn540 O566 2.094 . S
Mn541 O546 2.121 . S
Mn541 N548 2.257 . S
Mn541 N557 2.282 . S
Mn541 O565 2.215 . S
Mn541 O567 2.117 . S
C542 O564 1.234 . S
C542 O565 1.283 . S
C543 O555 1.281 . S
C543 O556 1.236 . S
C544 O566 1.240 . S
C544 O567 1.264 . S
O545 Mn540 2.095 . S
O545 C554 1.250 . S
O546 Mn541 2.121 . S
O546 C554 1.258 . S
C547 N548 1.326 . S
C547 C551 1.460 . S
C547 H553 0.929 . S
N548 Mn541 2.257 . S
N548 C547 1.326 . S
N548 C552 1.362 . S
C549 C550 1.258 . S
C549 C552 1.431 . S
C549 C569 1.449 . S
C550 C549 1.258 . S
C550 C551 1.477 . S
C550 H570 0.931 . S
C551 C547 1.460 . S
C551 C550 1.477 . S
C551 H571 0.930 . S
C552 N548 1.362 . S
C552 C549 1.431 . S
C552 C562 1.476 . S
H553 C547 0.929 . S
C554 O545 1.250 . S
C554 O546 1.258 . S
O555 Mn540 2.162 . S
O555 C543 1.281 . S
O556 Mn540 2.297 . S
O556 C543 1.236 . S
N557 Mn541 2.282 . S
N557 C558 1.328 . S
N557 C562 1.318 . S
C558 N557 1.328 . S
C558 C559 1.457 . S
C558 H563 0.929 . S
C559 C558 1.457 . S
C559 C560 1.291 . S
C559 H572 0.931 . S
C560 C559 1.291 . S
C560 C561 1.373 . S
C560 H573 0.929 . S
C561 C560 1.373 . S
C561 C562 1.396 . S
C561 C568 1.403 . S
C562 C552 1.476 . S
C562 N557 1.318 . S
C562 C561 1.396 . S
H563 C558 0.929 . S
O564 Mn540 2.385 . S
O564 C542 1.234 . S
O565 Mn540 2.209 . S
O565 Mn541 2.215 . S
O565 C542 1.283 . S
O566 Mn540 2.094 . S
O566 C544 1.240 . S
O567 Mn541 2.117 . S
O567 C544 1.264 . S
C568 C561 1.403 . S
C568 C569 1.399 . S
C568 H574 0.929 . S
C569 C549 1.449 . S
C569 C568 1.399 . S
C569 H575 0.930 . S
H570 C550 0.931 . S
H571 C551 0.930 . S
H572 C559 0.931 . S
H573 C560 0.929 . S
H574 C568 0.929 . S
H575 C569 0.930 . S
H576 C588 0.930 . S
H577 C590 0.930 . S
H578 C591 0.930 . S
H579 C595 0.959 . S
H580 C595 0.959 . S
H581 C595 0.961 . S
H582 C596 0.960 . S
H583 C596 0.961 . S
H584 C596 0.959 . S
H585 C599 0.929 . S
H586 C600 0.931 . S
H587 C602 0.930 . S
C588 H576 0.930 . S
C588 C589 1.399 . S
C588 C593 1.399 . S
C589 C588 1.399 . S
C589 C590 1.376 . S
C590 H577 0.930 . S
C590 C589 1.376 . S
C590 C591 1.388 . S
C591 H578 0.930 . S
C591 C590 1.388 . S
C591 C592 1.390 . S
C592 C591 1.390 . S
C592 C593 1.394 . S
C592 C598 1.465 . S
C593 C588 1.399 . S
C593 C592 1.394 . S
C593 C594 1.516 . S
C594 C593 1.516 . S
C594 C595 1.502 . S
C594 C596 1.561 . S
C594 C597 1.526 . S
C595 H579 0.959 . S
C595 H580 0.959 . S
C595 H581 0.961 . S
C595 C594 1.502 . S
C596 H582 0.960 . S
C596 H583 0.961 . S
C596 H584 0.959 . S
C596 C594 1.561 . S
C597 C594 1.526 . S
C597 C598 1.396 . S
C597 C602 1.390 . S
C598 C592 1.465 . S
C598 C597 1.396 . S
C598 C599 1.399 . S
C599 H585 0.929 . S
C599 C598 1.399 . S
C599 C600 1.385 . S
C600 H586 0.931 . S
C600 C599 1.385 . S
C600 C601 1.389 . S
C601 C600 1.389 . S
C601 C602 1.387 . S
C602 H587 0.930 . S
C602 C597 1.390 . S
C602 C601 1.387 . S
H603 C615 0.930 . S
H604 C617 0.930 . S
H605 C618 0.930 . S
H606 C622 0.959 . S
H607 C622 0.959 . S
H608 C622 0.961 . S
H609 C623 0.960 . S
H610 C623 0.961 . S
H611 C623 0.959 . S
H612 C626 0.929 . S
H613 C627 0.931 . S
H614 C629 0.930 . S
C615 H603 0.930 . S
C615 C616 1.399 . S
C615 C620 1.399 . S
C616 C615 1.399 . S
C616 C617 1.376 . S
C617 H604 0.930 . S
C617 C616 1.376 . S
C617 C618 1.388 . S
C618 H605 0.930 . S
C618 C617 1.388 . S
C618 C619 1.390 . S
C619 C618 1.390 . S
C619 C620 1.394 . S
C619 C625 1.465 . S
C620 C615 1.399 . S
C620 C619 1.394 . S
C620 C621 1.516 . S
C621 C620 1.516 . S
C621 C622 1.502 . S
C621 C623 1.561 . S
C621 C624 1.526 . S
C622 H606 0.959 . S
C622 H607 0.959 . S
C622 H608 0.961 . S
C622 C621 1.502 . S
C623 H609 0.960 . S
C623 H610 0.961 . S
C623 H611 0.959 . S
C623 C621 1.561 . S
C624 C621 1.526 . S
C624 C625 1.396 . S
C624 C629 1.390 . S
C625 C619 1.465 . S
C625 C624 1.396 . S
C625 C626 1.399 . S
C626 H612 0.929 . S
C626 C625 1.399 . S
C626 C627 1.385 . S
C627 H613 0.931 . S
C627 C626 1.385 . S
C627 C628 1.389 . S
C628 C627 1.389 . S
C628 C629 1.387 . S
C629 H614 0.930 . S
C629 C624 1.390 . S
C629 C628 1.387 . S
H630 C642 0.930 . S
H631 C644 0.930 . S
H632 C645 0.930 . S
H633 C649 0.959 . S
H634 C649 0.959 . S
H635 C649 0.961 . S
H636 C650 0.960 . S
H637 C650 0.961 . S
H638 C650 0.959 . S
H639 C653 0.929 . S
H640 C654 0.931 . S
H641 C656 0.930 . S
C642 H630 0.930 . S
C642 C643 1.399 . S
C642 C647 1.399 . S
C643 C642 1.399 . S
C643 C644 1.376 . S
C644 H631 0.930 . S
C644 C643 1.376 . S
C644 C645 1.388 . S
C645 H632 0.930 . S
C645 C644 1.388 . S
C645 C646 1.390 . S
C646 C645 1.390 . S
C646 C647 1.394 . S
C646 C652 1.465 . S
C647 C642 1.399 . S
C647 C646 1.394 . S
C647 C648 1.516 . S
C648 C647 1.516 . S
C648 C649 1.502 . S
C648 C650 1.561 . S
C648 C651 1.526 . S
C649 H633 0.959 . S
C649 H634 0.959 . S
C649 H635 0.961 . S
C649 C648 1.502 . S
C650 H636 0.960 . S
C650 H637 0.961 . S
C650 H638 0.959 . S
C650 C648 1.561 . S
C651 C648 1.526 . S
C651 C652 1.396 . S
C651 C656 1.390 . S
C652 C646 1.465 . S
C652 C651 1.396 . S
C652 C653 1.399 . S
C653 H639 0.929 . S
C653 C652 1.399 . S
C653 C654 1.385 . S
C654 H640 0.931 . S
C654 C653 1.385 . S
C654 C655 1.389 . S
C655 C654 1.389 . S
C655 C656 1.387 . S
C656 H641 0.930 . S
C656 C651 1.390 . S
C656 C655 1.387 . S
H657 C669 0.930 . S
H658 C671 0.930 . S
H659 C672 0.930 . S
H660 C676 0.959 . S
H661 C676 0.959 . S
H662 C676 0.961 . S
H663 C677 0.960 . S
H664 C677 0.961 . S
H665 C677 0.959 . S
H666 C680 0.929 . S
H667 C681 0.931 . S
H668 C683 0.930 . S
C669 H657 0.930 . S
C669 C670 1.399 . S
C669 C674 1.399 . S
C670 C669 1.399 . S
C670 C671 1.376 . S
C671 H658 0.930 . S
C671 C670 1.376 . S
C671 C672 1.388 . S
C672 H659 0.930 . S
C672 C671 1.388 . S
C672 C673 1.390 . S
C673 C672 1.390 . S
C673 C674 1.394 . S
C673 C679 1.465 . S
C674 C669 1.399 . S
C674 C673 1.394 . S
C674 C675 1.516 . S
C675 C674 1.516 . S
C675 C676 1.502 . S
C675 C677 1.561 . S
C675 C678 1.526 . S
C676 H660 0.959 . S
C676 H661 0.959 . S
C676 H662 0.961 . S
C676 C675 1.502 . S
C677 H663 0.960 . S
C677 H664 0.961 . S
C677 H665 0.959 . S
C677 C675 1.561 . S
C678 C675 1.526 . S
C678 C679 1.396 . S
C678 C683 1.390 . S
C679 C673 1.465 . S
C679 C678 1.396 . S
C679 C680 1.399 . S
C680 H666 0.929 . S
C680 C679 1.399 . S
C680 C681 1.385 . S
C681 H667 0.931 . S
C681 C680 1.385 . S
C681 C682 1.389 . S
C682 C681 1.389 . S
C682 C683 1.387 . S
C683 H668 0.930 . S
C683 C678 1.390 . S
C683 C682 1.387 . S
H684 C696 0.930 . S
H685 C698 0.934 1_565 S
H686 C699 0.930 . S
H687 C703 0.959 . S
H688 C703 0.959 . S
H689 C703 0.961 . S
H690 C704 0.960 . S
H691 C704 0.961 . S
H692 C704 0.959 . S
H693 C707 0.929 . S
H694 C708 0.931 . S
H695 C710 0.930 . S
C696 H684 0.930 . S
C696 C697 1.400 1_545 S
C696 C701 1.399 . S
C697 C696 1.400 1_565 S
C697 C698 1.376 1_565 S
C698 H685 0.934 1_545 S
C698 C697 1.376 1_545 S
C698 C699 1.395 1_554 S
C699 H686 0.930 . S
C699 C698 1.395 1_556 S
C699 C700 1.390 1_556 S
C700 C699 1.390 1_554 S
C700 C701 1.394 . S
C700 C706 1.465 1_554 S
C701 C696 1.399 . S
C701 C700 1.394 . S
C701 C702 1.516 . S
C702 C701 1.516 . S
C702 C703 1.502 . S
C702 C704 1.561 . S
C702 C705 1.526 . S
C703 H687 0.959 . S
C703 H688 0.959 . S
C703 H689 0.961 . S
C703 C702 1.502 . S
C704 H690 0.960 . S
C704 H691 0.961 . S
C704 H692 0.959 . S
C704 C702 1.561 . S
C705 C702 1.526 . S
C705 C706 1.396 1_554 S
C705 C710 1.390 . S
C706 C700 1.465 1_556 S
C706 C705 1.396 1_556 S
C706 C707 1.399 . S
C707 H693 0.929 . S
C707 C706 1.399 . S
C707 C708 1.385 . S
C708 H694 0.931 . S
C708 C707 1.385 . S
C708 C709 1.389 . S
C709 C708 1.389 . S
C709 C710 1.387 1_556 S
C710 H695 0.930 . S
C710 C705 1.390 . S
C710 C709 1.387 1_554 S
H711 C723 0.930 . S
H712 C725 0.930 . S
H713 C726 0.930 . S
H714 C730 0.959 . S
H715 C730 0.959 . S
H716 C730 0.961 . S
H717 C731 0.960 . S
H718 C731 0.961 . S
H719 C731 0.959 . S
H720 C734 0.929 . S
H721 C735 0.931 . S
H722 C737 0.930 1_655 S
C723 H711 0.930 . S
C723 C724 1.399 . S
C723 C728 1.399 1_554 S
C724 C723 1.399 . S
C724 C725 1.376 1_554 S
C725 H712 0.930 . S
C725 C724 1.376 1_556 S
C725 C726 1.388 . S
C726 H713 0.930 . S
C726 C725 1.388 . S
C726 C727 1.390 . S
C727 C726 1.390 . S
C727 C728 1.394 . S
C727 C733 1.465 . S
C728 C723 1.399 1_556 S
C728 C727 1.394 . S
C728 C729 1.516 . S
C729 C728 1.516 . S
C729 C730 1.502 1_556 S
C729 C731 1.561 . S
C729 C732 1.526 . S
C730 H714 0.959 . S
C730 H715 0.959 . S
C730 H716 0.961 . S
C730 C729 1.502 1_554 S
C731 H717 0.960 . S
C731 H718 0.961 . S
C731 H719 0.959 . S
C731 C729 1.561 . S
C732 C729 1.526 . S
C732 C733 1.396 . S
C732 C737 1.390 . S
C733 C727 1.465 . S
C733 C732 1.396 . S
C733 C734 1.399 . S
C734 H720 0.929 . S
C734 C733 1.399 . S
C734 C735 1.385 . S
C735 H721 0.931 . S
C735 C734 1.385 . S
C735 C736 1.389 . S
C736 C735 1.389 . S
C736 C737 1.387 . S
C737 H722 0.930 1_455 S
C737 C732 1.390 . S
C737 C736 1.387 . S
H738 C750 0.930 . S
H739 C752 0.930 . S
H740 C753 0.930 . S
H741 C757 0.959 . S
H742 C757 0.959 . S
H743 C757 0.961 . S
H744 C758 0.960 . S
H745 C758 0.961 . S
H746 C758 0.959 . S
H747 C761 0.929 . S
H748 C762 0.931 . S
H749 C764 0.930 1_545 S
C750 H738 0.930 . S
C750 C751 1.399 . S
C750 C755 1.399 1_556 S
C751 C750 1.399 . S
C751 C752 1.376 . S
C752 H739 0.930 . S
C752 C751 1.376 . S
C752 C753 1.388 1_556 S
C753 H740 0.930 . S
C753 C752 1.388 1_554 S
C753 C754 1.390 . S
C754 C753 1.390 . S
C754 C755 1.394 . S
C754 C760 1.465 . S
C755 C750 1.399 1_554 S
C755 C754 1.394 . S
C755 C756 1.516 . S
C756 C755 1.516 . S
C756 C757 1.502 . S
C756 C758 1.561 1_554 S
C756 C759 1.526 . S
C757 H741 0.959 . S
C757 H742 0.959 . S
C757 H743 0.961 . S
C757 C756 1.502 . S
C758 H744 0.960 . S
C758 H745 0.961 . S
C758 H746 0.959 . S
C758 C756 1.561 1_556 S
C759 C756 1.526 . S
C759 C760 1.396 . S
C759 C764 1.390 . S
C760 C754 1.465 . S
C760 C759 1.396 . S
C760 C761 1.399 . S
C761 H747 0.929 . S
C761 C760 1.399 . S
C761 C762 1.385 . S
C762 H748 0.931 . S
C762 C761 1.385 . S
C762 C763 1.389 . S
C763 C762 1.389 . S
C763 C764 1.387 . S
C764 H749 0.930 1_565 S
C764 C759 1.390 . S
C764 C763 1.387 . S
H765 C777 0.930 . S
H766 C779 0.930 . S
H767 C780 0.930 . S
H768 C784 0.959 1_556 S
H769 C784 0.959 . S
H770 C784 0.961 . S
H771 C785 0.960 . S
H772 C785 0.961 . S
H773 C785 0.959 . S
H774 C788 0.929 . S
H775 C789 0.930 . S
H776 C791 0.930 . S
C777 H765 0.930 . S
C777 C778 1.399 . S
C777 C782 1.399 . S
C778 C777 1.399 . S
C778 C779 1.376 1_554 S
C779 H766 0.930 . S
C779 C778 1.376 1_556 S
C779 C780 1.388 . S
C780 H767 0.930 . S
C780 C779 1.388 . S
C780 C781 1.390 . S
C781 C780 1.390 . S
C781 C782 1.394 1_556 S
C781 C787 1.465 . S
C782 C777 1.399 . S
C782 C781 1.394 1_554 S
C782 C783 1.516 . S
C783 C782 1.516 . S
C783 C784 1.502 . S
C783 C785 1.561 . S
C783 C786 1.526 1_554 S
C784 H768 0.959 1_554 S
C784 H769 0.959 . S
C784 H770 0.961 . S
C784 C783 1.502 . S
C785 H771 0.960 . S
C785 H772 0.961 . S
C785 H773 0.959 . S
C785 C783 1.561 . S
C786 C783 1.526 1_556 S
C786 C787 1.396 . S
C786 C791 1.390 . S
C787 C781 1.465 . S
C787 C786 1.396 . S
C787 C788 1.399 . S
C788 H774 0.929 . S
C788 C787 1.399 . S
C788 C789 1.385 . S
C789 H775 0.930 . S
C789 C788 1.385 . S
C789 C790 1.395 . S
C790 C789 1.395 . S
C790 C791 1.396 . S
C791 H776 0.930 . S
C791 C786 1.390 . S
C791 C790 1.396 . S
H792 C804 0.930 . S
H793 C806 0.930 . S
H794 C807 0.930 . S
H795 C811 0.959 . S
H796 C811 0.959 . S
H797 C811 0.961 . S
H798 C812 0.960 . S
H799 C812 0.961 . S
H800 C812 0.959 . S
H801 C815 0.929 . S
H802 C816 0.931 . S
H803 C818 0.930 1_545 S
C804 H792 0.930 . S
C804 C805 1.399 . S
C804 C809 1.399 . S
C805 C804 1.399 . S
C805 C806 1.376 . S
C806 H793 0.930 . S
C806 C805 1.376 . S
C806 C807 1.388 . S
C807 H794 0.930 . S
C807 C806 1.388 . S
C807 C808 1.390 . S
C808 C807 1.390 . S
C808 C809 1.394 . S
C808 C814 1.465 . S
C809 C804 1.399 . S
C809 C808 1.394 . S
C809 C810 1.516 . S
C810 C809 1.516 . S
C810 C811 1.502 . S
C810 C812 1.561 . S
C810 C813 1.526 . S
C811 H795 0.959 . S
C811 H796 0.959 . S
C811 H797 0.961 . S
C811 C810 1.502 . S
C812 H798 0.960 . S
C812 H799 0.961 . S
C812 H800 0.959 . S
C812 C810 1.561 . S
C813 C810 1.526 . S
C813 C814 1.396 . S
C813 C818 1.390 . S
C814 C808 1.465 . S
C814 C813 1.396 . S
C814 C815 1.399 . S
C815 H801 0.929 . S
C815 C814 1.399 . S
C815 C816 1.385 . S
C816 H802 0.931 . S
C816 C815 1.385 . S
C816 C817 1.389 . S
C817 C816 1.389 . S
C817 C818 1.387 . S
C818 H803 0.930 1_565 S
C818 C813 1.390 . S
C818 C817 1.387 . S
H819 C831 0.930 . S
H820 C833 0.930 . S
H821 C834 0.930 . S
H822 C838 0.959 . S
H823 C838 0.959 . S
H824 C838 0.961 . S
H825 C839 0.960 . S
H826 C839 0.961 . S
H827 C839 0.959 . S
H828 C842 0.929 . S
H829 C843 0.931 . S
H830 C845 0.930 . S
C831 H819 0.930 . S
C831 C832 1.399 . S
C831 C836 1.399 . S
C832 C831 1.399 . S
C832 C833 1.376 . S
C833 H820 0.930 . S
C833 C832 1.376 . S
C833 C834 1.388 . S
C834 H821 0.930 . S
C834 C833 1.388 . S
C834 C835 1.390 . S
C835 C834 1.390 . S
C835 C836 1.394 . S
C835 C841 1.465 . S
C836 C831 1.399 . S
C836 C835 1.394 . S
C836 C837 1.516 . S
C837 C836 1.516 . S
C837 C838 1.502 . S
C837 C839 1.561 . S
C837 C840 1.526 . S
C838 H822 0.959 . S
C838 H823 0.959 . S
C838 H824 0.961 . S
C838 C837 1.502 . S
C839 H825 0.960 . S
C839 H826 0.961 . S
C839 H827 0.959 . S
C839 C837 1.561 . S
C840 C837 1.526 . S
C840 C841 1.396 . S
C840 C845 1.390 . S
C841 C835 1.465 . S
C841 C840 1.396 . S
C841 C842 1.399 . S
C842 H828 0.929 . S
C842 C841 1.399 . S
C842 C843 1.385 . S
C843 H829 0.931 . S
C843 C842 1.385 . S
C843 C844 1.389 . S
C844 C843 1.389 . S
C844 C845 1.387 . S
C845 H830 0.930 . S
C845 C840 1.390 . S
C845 C844 1.387 . S
H846 C858 0.930 1_565 S
H847 C860 0.930 . S
H848 C861 0.930 . S
H849 C865 0.959 . S
H850 C865 0.959 . S
H851 C865 0.961 . S
H852 C866 0.960 . S
H853 C866 0.961 . S
H854 C866 0.959 . S
H855 C869 0.929 . S
H856 C870 0.931 . S
H857 C872 0.930 . S
C858 H846 0.930 1_545 S
C858 C859 1.399 . S
C858 C863 1.399 . S
C859 C858 1.399 . S
C859 C860 1.376 . S
C860 H847 0.930 . S
C860 C859 1.376 . S
C860 C861 1.388 . S
C861 H848 0.930 . S
C861 C860 1.388 . S
C861 C862 1.390 . S
C862 C861 1.390 . S
C862 C863 1.394 . S
C862 C868 1.465 . S
C863 C858 1.399 . S
C863 C862 1.394 . S
C863 C864 1.516 . S
C864 C863 1.516 . S
C864 C865 1.502 . S
C864 C866 1.561 . S
C864 C867 1.526 . S
C865 H849 0.959 . S
C865 H850 0.959 . S
C865 H851 0.961 . S
C865 C864 1.502 . S
C866 H852 0.960 . S
C866 H853 0.961 . S
C866 H854 0.959 . S
C866 C864 1.561 . S
C867 C864 1.526 . S
C867 C868 1.396 . S
C867 C872 1.390 . S
C868 C862 1.465 . S
C868 C867 1.396 . S
C868 C869 1.399 . S
C869 H855 0.929 . S
C869 C868 1.399 . S
C869 C870 1.385 . S
C870 H856 0.931 . S
C870 C869 1.385 . S
C870 C871 1.389 . S
C871 C870 1.389 . S
C871 C872 1.387 . S
C872 H857 0.930 . S
C872 C867 1.390 . S
C872 C871 1.387 . S
H873 C885 0.930 1_655 S
H874 C887 0.930 . S
H875 C888 0.930 . S
H876 C892 0.959 . S
H877 C892 0.959 . S
H878 C892 0.961 . S
H879 C893 0.960 . S
H880 C893 0.961 . S
H881 C893 0.959 . S
H882 C896 0.929 . S
H883 C897 0.931 . S
H884 C899 0.930 . S
C885 H873 0.930 1_455 S
C885 C886 1.399 . S
C885 C890 1.399 . S
C886 C885 1.399 . S
C886 C887 1.376 . S
C887 H874 0.930 . S
C887 C886 1.376 . S
C887 C888 1.388 . S
C888 H875 0.930 . S
C888 C887 1.388 . S
C888 C889 1.390 . S
C889 C888 1.390 . S
C889 C890 1.394 . S
C889 C895 1.465 . S
C890 C885 1.399 . S
C890 C889 1.394 . S
C890 C891 1.516 . S
C891 C890 1.516 . S
C891 C892 1.502 . S
C891 C893 1.561 . S
C891 C894 1.526 . S
C892 H876 0.959 . S
C892 H877 0.959 . S
C892 H878 0.961 . S
C892 C891 1.502 . S
C893 H879 0.960 . S
C893 H880 0.961 . S
C893 H881 0.959 . S
C893 C891 1.561 . S
C894 C891 1.526 . S
C894 C895 1.396 . S
C894 C899 1.390 . S
C895 C889 1.465 . S
C895 C894 1.396 . S
C895 C896 1.399 . S
C896 H882 0.929 . S
C896 C895 1.399 . S
C896 C897 1.385 . S
C897 H883 0.931 . S
C897 C896 1.385 . S
C897 C898 1.389 . S
C898 C897 1.389 . S
C898 C899 1.387 . S
C899 H884 0.930 . S
C899 C894 1.390 . S
C899 C898 1.387 . S
H900 C912 0.930 . S
H901 C914 0.930 . S
H902 C915 0.930 . S
H903 C919 0.959 . S
H904 C919 0.959 . S
H905 C919 0.961 . S
H906 C920 0.960 . S
H907 C920 0.961 . S
H908 C920 0.959 . S
H909 C923 0.929 . S
H910 C924 0.931 . S
H911 C926 0.930 . S
C912 H900 0.930 . S
C912 C913 1.399 . S
C912 C917 1.399 . S
C913 C912 1.399 . S
C913 C914 1.376 . S
C914 H901 0.930 . S
C914 C913 1.376 . S
C914 C915 1.388 . S
C915 H902 0.930 . S
C915 C914 1.388 . S
C915 C916 1.390 . S
C916 C915 1.390 . S
C916 C917 1.394 . S
C916 C922 1.465 . S
C917 C912 1.399 . S
C917 C916 1.394 . S
C917 C918 1.516 . S
C918 C917 1.516 . S
C918 C919 1.502 . S
C918 C920 1.561 . S
C918 C921 1.526 . S
C919 H903 0.959 . S
C919 H904 0.959 . S
C919 H905 0.961 . S
C919 C918 1.502 . S
C920 H906 0.960 . S
C920 H907 0.961 . S
C920 H908 0.959 . S
C920 C918 1.561 . S
C921 C918 1.526 . S
C921 C922 1.396 . S
C921 C926 1.390 . S
C922 C916 1.465 . S
C922 C921 1.396 . S
C922 C923 1.399 . S
C923 H909 0.929 . S
C923 C922 1.399 . S
C923 C924 1.385 . S
C924 H910 0.931 . S
C924 C923 1.385 . S
C924 C925 1.389 . S
C925 C924 1.389 . S
C925 C926 1.387 . S
C926 H911 0.930 . S
C926 C921 1.390 . S
C926 C925 1.387 . S
H927 C939 0.930 . S
H928 C941 0.930 . S
H929 C942 0.930 . S
H930 C946 0.959 . S
H931 C946 0.959 . S
H932 C946 0.961 . S
H933 C947 0.960 . S
H934 C947 0.961 . S
H935 C947 0.959 . S
H936 C950 0.929 . S
H937 C951 0.931 . S
H938 C953 0.930 . S
C939 H927 0.930 . S
C939 C940 1.399 . S
C939 C944 1.399 . S
C940 C939 1.399 . S
C940 C941 1.376 . S
C941 H928 0.930 . S
C941 C940 1.376 . S
C941 C942 1.388 . S
C942 H929 0.930 . S
C942 C941 1.388 . S
C942 C943 1.390 . S
C943 C942 1.390 . S
C943 C944 1.394 . S
C943 C949 1.465 . S
C944 C939 1.399 . S
C944 C943 1.394 . S
C944 C945 1.516 . S
C945 C944 1.516 . S
C945 C946 1.502 . S
C945 C947 1.561 . S
C945 C948 1.526 . S
C946 H930 0.959 . S
C946 H931 0.959 . S
C946 H932 0.961 . S
C946 C945 1.502 . S
C947 H933 0.960 . S
C947 H934 0.961 . S
C947 H935 0.959 . S
C947 C945 1.561 . S
C948 C945 1.526 . S
C948 C949 1.396 . S
C948 C953 1.390 . S
C949 C943 1.465 . S
C949 C948 1.396 . S
C949 C950 1.399 . S
C950 H936 0.929 . S
C950 C949 1.399 . S
C950 C951 1.385 . S
C951 H937 0.931 . S
C951 C950 1.385 . S
C951 C952 1.389 . S
C952 C951 1.389 . S
C952 C953 1.387 . S
C953 H938 0.930 . S
C953 C948 1.390 . S
C953 C952 1.387 . S
H954 C966 0.930 . S
H955 C968 0.930 . S
H956 C969 0.930 . S
H957 C973 0.959 . S
H958 C973 0.959 . S
H959 C973 0.961 . S
H960 C974 0.960 . S
H961 C974 0.961 . S
H962 C974 0.959 . S
H963 C977 0.929 . S
H964 C978 0.931 . S
H965 C980 0.930 . S
C966 H954 0.930 . S
C966 C967 1.399 . S
C966 C971 1.399 . S
C967 C966 1.399 . S
C967 C968 1.376 . S
C968 H955 0.930 . S
C968 C967 1.376 . S
C968 C969 1.388 . S
C969 H956 0.930 . S
C969 C968 1.388 . S
C969 C970 1.390 . S
C970 C969 1.390 . S
C970 C971 1.394 . S
C970 C976 1.465 . S
C971 C966 1.399 . S
C971 C970 1.394 . S
C971 C972 1.516 . S
C972 C971 1.516 . S
C972 C973 1.502 . S
C972 C974 1.561 . S
C972 C975 1.526 . S
C973 H957 0.959 . S
C973 H958 0.959 . S
C973 H959 0.961 . S
C973 C972 1.502 . S
C974 H960 0.960 . S
C974 H961 0.961 . S
C974 H962 0.959 . S
C974 C972 1.561 . S
C975 C972 1.526 . S
C975 C976 1.396 . S
C975 C980 1.390 . S
C976 C970 1.465 . S
C976 C975 1.396 . S
C976 C977 1.399 . S
C977 H963 0.929 . S
C977 C976 1.399 . S
C977 C978 1.385 . S
C978 H964 0.931 . S
C978 C977 1.385 . S
C978 C979 1.389 . S
C979 C978 1.389 . S
C979 C980 1.387 . S
C980 H965 0.930 . S
C980 C975 1.390 . S
C980 C979 1.387 . S
H981 C993 0.930 . S
H982 C995 0.930 . S
H983 C996 0.930 . S
H984 C1000 0.959 . S
H985 C1000 0.959 . S
H986 C1000 0.961 . S
H987 C1001 0.960 . S
H988 C1001 0.961 . S
H989 C1001 0.959 . S
H990 C1004 0.929 . S
H991 C1005 0.931 . S
H992 C1007 0.930 . S
C993 H981 0.930 . S
C993 C994 1.399 . S
C993 C998 1.399 . S
C994 C993 1.399 . S
C994 C995 1.376 . S
C995 H982 0.930 . S
C995 C994 1.376 . S
C995 C996 1.388 . S
C996 H983 0.930 . S
C996 C995 1.388 . S
C996 C997 1.390 . S
C997 C996 1.390 . S
C997 C998 1.394 . S
C997 C1003 1.465 . S
C998 C993 1.399 . S
C998 C997 1.394 . S
C998 C999 1.516 . S
C999 C998 1.516 . S
C999 C1000 1.502 . S
C999 C1001 1.561 . S
C999 C1002 1.526 . S
C1000 H984 0.959 . S
C1000 H985 0.959 . S
C1000 H986 0.961 . S
C1000 C999 1.502 . S
C1001 H987 0.960 . S
C1001 H988 0.961 . S
C1001 H989 0.959 . S
C1001 C999 1.561 . S
C1002 C999 1.526 . S
C1002 C1003 1.396 . S
C1002 C1007 1.390 . S
C1003 C997 1.465 . S
C1003 C1002 1.396 . S
C1003 C1004 1.399 . S
C1004 H990 0.929 . S
C1004 C1003 1.399 . S
C1004 C1005 1.385 . S
C1005 H991 0.931 . S
C1005 C1004 1.385 . S
C1005 C1006 1.389 . S
C1006 C1005 1.389 . S
C1006 C1007 1.387 . S
C1007 H992 0.930 . S
C1007 C1002 1.390 . S
C1007 C1006 1.387 . S
H1008 C1020 0.930 . S
H1009 C1022 0.930 . S
H1010 C1023 0.930 . S
H1011 C1027 0.959 . S
H1012 C1027 0.959 . S
H1013 C1027 0.961 . S
H1014 C1028 0.960 . S
H1015 C1028 0.961 . S
H1016 C1028 0.959 . S
H1017 C1031 0.929 . S
H1018 C1032 0.931 . S
H1019 C1034 0.930 . S
C1020 H1008 0.930 . S
C1020 C1021 1.399 . S
C1020 C1025 1.399 . S
C1021 C1020 1.399 . S
C1021 C1022 1.376 . S
C1022 H1009 0.930 . S
C1022 C1021 1.376 . S
C1022 C1023 1.388 . S
C1023 H1010 0.930 . S
C1023 C1022 1.388 . S
C1023 C1024 1.390 . S
C1024 C1023 1.390 . S
C1024 C1025 1.394 . S
C1024 C1030 1.465 . S
C1025 C1020 1.399 . S
C1025 C1024 1.394 . S
C1025 C1026 1.516 . S
C1026 C1025 1.516 . S
C1026 C1027 1.502 . S
C1026 C1028 1.561 . S
C1026 C1029 1.526 . S
C1027 H1011 0.959 . S
C1027 H1012 0.959 . S
C1027 H1013 0.961 . S
C1027 C1026 1.502 . S
C1028 H1014 0.960 . S
C1028 H1015 0.961 . S
C1028 H1016 0.959 . S
C1028 C1026 1.561 . S
C1029 C1026 1.526 . S
C1029 C1030 1.396 . S
C1029 C1034 1.390 . S
C1030 C1024 1.465 . S
C1030 C1029 1.396 . S
C1030 C1031 1.399 . S
C1031 H1017 0.929 . S
C1031 C1030 1.399 . S
C1031 C1032 1.385 . S
C1032 H1018 0.931 . S
C1032 C1031 1.385 . S
C1032 C1033 1.389 . S
C1033 C1032 1.389 . S
C1033 C1034 1.387 . S
C1034 H1019 0.930 . S
C1034 C1029 1.390 . S
C1034 C1033 1.387 . S
H1035 C1047 0.930 . S
H1036 C1049 0.930 . S
H1037 C1050 0.930 . S
H1038 C1054 0.959 . S
H1039 C1054 0.959 . S
H1040 C1054 0.961 . S
H1041 C1055 0.960 . S
H1042 C1055 0.961 . S
H1043 C1055 0.959 . S
H1044 C1058 0.929 . S
H1045 C1059 0.931 . S
H1046 C1061 0.930 . S
C1047 H1035 0.930 . S
C1047 C1048 1.399 . S
C1047 C1052 1.399 . S
C1048 C1047 1.399 . S
C1048 C1049 1.376 . S
C1049 H1036 0.930 . S
C1049 C1048 1.376 . S
C1049 C1050 1.388 . S
C1050 H1037 0.930 . S
C1050 C1049 1.388 . S
C1050 C1051 1.390 . S
C1051 C1050 1.390 . S
C1051 C1052 1.394 . S
C1051 C1057 1.465 . S
C1052 C1047 1.399 . S
C1052 C1051 1.394 . S
C1052 C1053 1.516 . S
C1053 C1052 1.516 . S
C1053 C1054 1.502 . S
C1053 C1055 1.561 . S
C1053 C1056 1.526 . S
C1054 H1038 0.959 . S
C1054 H1039 0.959 . S
C1054 H1040 0.961 . S
C1054 C1053 1.502 . S
C1055 H1041 0.960 . S
C1055 H1042 0.961 . S
C1055 H1043 0.959 . S
C1055 C1053 1.561 . S
C1056 C1053 1.526 . S
C1056 C1057 1.396 . S
C1056 C1061 1.390 . S
C1057 C1051 1.465 . S
C1057 C1056 1.396 . S
C1057 C1058 1.399 . S
C1058 H1044 0.929 . S
C1058 C1057 1.399 . S
C1058 C1059 1.385 . S
C1059 H1045 0.931 . S
C1059 C1058 1.385 . S
C1059 C1060 1.389 . S
C1060 C1059 1.389 . S
C1060 C1061 1.387 . S
C1061 H1046 0.930 . S
C1061 C1056 1.390 . S
C1061 C1060 1.387 . S
H1062 C1074 0.930 . S
H1063 C1076 0.930 . S
H1064 C1077 0.930 . S
H1065 C1081 0.959 . S
H1066 C1081 0.959 . S
H1067 C1081 0.961 . S
H1068 C1082 0.960 . S
H1069 C1082 0.961 . S
H1070 C1082 0.959 . S
H1071 C1085 0.929 . S
H1072 C1086 0.931 . S
H1073 C1088 0.930 . S
C1074 H1062 0.930 . S
C1074 C1075 1.399 . S
C1074 C1079 1.399 . S
C1075 C1074 1.399 . S
C1075 C1076 1.376 . S
C1076 H1063 0.930 . S
C1076 C1075 1.376 . S
C1076 C1077 1.388 . S
C1077 H1064 0.930 . S
C1077 C1076 1.388 . S
C1077 C1078 1.390 . S
C1078 C1077 1.390 . S
C1078 C1079 1.394 . S
C1078 C1084 1.465 . S
C1079 C1074 1.399 . S
C1079 C1078 1.394 . S
C1079 C1080 1.516 . S
C1080 C1079 1.516 . S
C1080 C1081 1.502 . S
C1080 C1082 1.561 . S
C1080 C1083 1.526 . S
C1081 H1065 0.959 . S
C1081 H1066 0.959 . S
C1081 H1067 0.961 . S
C1081 C1080 1.502 . S
C1082 H1068 0.960 . S
C1082 H1069 0.961 . S
C1082 H1070 0.959 . S
C1082 C1080 1.561 . S
C1083 C1080 1.526 . S
C1083 C1084 1.396 . S
C1083 C1088 1.390 . S
C1084 C1078 1.465 . S
C1084 C1083 1.396 . S
C1084 C1085 1.399 . S
C1085 H1071 0.929 . S
C1085 C1084 1.399 . S
C1085 C1086 1.385 . S
C1086 H1072 0.931 . S
C1086 C1085 1.385 . S
C1086 C1087 1.389 . S
C1087 C1086 1.389 . S
C1087 C1088 1.387 . S
C1088 H1073 0.930 . S
C1088 C1083 1.390 . S
C1088 C1087 1.387 . S
H1089 C1101 0.930 . S
H1090 C1103 0.930 . S
H1091 C1104 0.930 . S
H1092 C1108 0.959 . S
H1093 C1108 0.959 . S
H1094 C1108 0.961 . S
H1095 C1109 0.960 . S
H1096 C1109 0.961 . S
H1097 C1109 0.959 . S
H1098 C1112 0.929 . S
H1099 C1113 0.931 . S
H1100 C1115 0.930 . S
C1101 H1089 0.930 . S
C1101 C1102 1.399 . S
C1101 C1106 1.399 . S
C1102 C1101 1.399 . S
C1102 C1103 1.376 . S
C1103 H1090 0.930 . S
C1103 C1102 1.376 . S
C1103 C1104 1.388 . S
C1104 H1091 0.930 . S
C1104 C1103 1.388 . S
C1104 C1105 1.390 . S
C1105 C1104 1.390 . S
C1105 C1106 1.394 . S
C1105 C1111 1.465 . S
C1106 C1101 1.399 . S
C1106 C1105 1.394 . S
C1106 C1107 1.516 . S
C1107 C1106 1.516 . S
C1107 C1108 1.502 . S
C1107 C1109 1.561 . S
C1107 C1110 1.526 . S
C1108 H1092 0.959 . S
C1108 H1093 0.959 . S
C1108 H1094 0.961 . S
C1108 C1107 1.502 . S
C1109 H1095 0.960 . S
C1109 H1096 0.961 . S
C1109 H1097 0.959 . S
C1109 C1107 1.561 . S
C1110 C1107 1.526 . S
C1110 C1111 1.396 . S
C1110 C1115 1.390 . S
C1111 C1105 1.465 . S
C1111 C1110 1.396 . S
C1111 C1112 1.399 . S
C1112 H1098 0.929 . S
C1112 C1111 1.399 . S
C1112 C1113 1.385 . S
C1113 H1099 0.931 . S
C1113 C1112 1.385 . S
C1113 C1114 1.389 . S
C1114 C1113 1.389 . S
C1114 C1115 1.387 . S
C1115 H1100 0.930 . S
C1115 C1110 1.390 . S
C1115 C1114 1.387 . S
H1116 C1128 0.930 . S
H1117 C1130 0.930 . S
H1118 C1131 0.930 . S
H1119 C1135 0.959 . S
H1120 C1135 0.959 . S
H1121 C1135 0.961 . S
H1122 C1136 0.960 . S
H1123 C1136 0.961 . S
H1124 C1136 0.959 . S
H1125 C1139 0.929 . S
H1126 C1140 0.931 . S
H1127 C1142 0.930 . S
C1128 H1116 0.930 . S
C1128 C1129 1.399 . S
C1128 C1133 1.399 . S
C1129 C1128 1.399 . S
C1129 C1130 1.376 . S
C1130 H1117 0.930 . S
C1130 C1129 1.376 . S
C1130 C1131 1.388 . S
C1131 H1118 0.930 . S
C1131 C1130 1.388 . S
C1131 C1132 1.390 . S
C1132 C1131 1.390 . S
C1132 C1133 1.394 . S
C1132 C1138 1.465 . S
C1133 C1128 1.399 . S
C1133 C1132 1.394 . S
C1133 C1134 1.516 . S
C1134 C1133 1.516 . S
C1134 C1135 1.502 . S
C1134 C1136 1.561 . S
C1134 C1137 1.526 . S
C1135 H1119 0.959 . S
C1135 H1120 0.959 . S
C1135 H1121 0.961 . S
C1135 C1134 1.502 . S
C1136 H1122 0.960 . S
C1136 H1123 0.961 . S
C1136 H1124 0.959 . S
C1136 C1134 1.561 . S
C1137 C1134 1.526 . S
C1137 C1138 1.396 . S
C1137 C1142 1.390 . S
C1138 C1132 1.465 . S
C1138 C1137 1.396 . S
C1138 C1139 1.399 . S
C1139 H1125 0.929 . S
C1139 C1138 1.399 . S
C1139 C1140 1.385 . S
C1140 H1126 0.931 . S
C1140 C1139 1.385 . S
C1140 C1141 1.389 . S
C1141 C1140 1.389 . S
C1141 C1142 1.387 . S
C1142 H1127 0.930 . S
C1142 C1137 1.390 . S
C1142 C1141 1.387 . S
H1143 C1155 0.930 . S
H1144 C1157 0.930 . S
H1145 C1158 0.930 . S
H1146 C1162 0.959 . S
H1147 C1162 0.959 . S
H1148 C1162 0.961 . S
H1149 C1163 0.960 . S
H1150 C1163 0.961 . S
H1151 C1163 0.959 . S
H1152 C1166 0.929 . S
H1153 C1167 0.931 . S
H1154 C1169 0.930 . S
C1155 H1143 0.930 . S
C1155 C1156 1.399 . S
C1155 C1160 1.399 . S
C1156 C1155 1.399 . S
C1156 C1157 1.376 . S
C1157 H1144 0.930 . S
C1157 C1156 1.376 . S
C1157 C1158 1.388 . S
C1158 H1145 0.930 . S
C1158 C1157 1.388 . S
C1158 C1159 1.390 . S
C1159 C1158 1.390 . S
C1159 C1160 1.394 . S
C1159 C1165 1.465 . S
C1160 C1155 1.399 . S
C1160 C1159 1.394 . S
C1160 C1161 1.516 . S
C1161 C1160 1.516 . S
C1161 C1162 1.502 . S
C1161 C1163 1.561 . S
C1161 C1164 1.526 . S
C1162 H1146 0.959 . S
C1162 H1147 0.959 . S
C1162 H1148 0.961 . S
C1162 C1161 1.502 . S
C1163 H1149 0.960 . S
C1163 H1150 0.961 . S
C1163 H1151 0.959 . S
C1163 C1161 1.561 . S
C1164 C1161 1.526 . S
C1164 C1165 1.396 . S
C1164 C1169 1.390 . S
C1165 C1159 1.465 . S
C1165 C1164 1.396 . S
C1165 C1166 1.399 . S
C1166 H1152 0.929 . S
C1166 C1165 1.399 . S
C1166 C1167 1.385 . S
C1167 H1153 0.931 . S
C1167 C1166 1.385 . S
C1167 C1168 1.389 . S
C1168 C1167 1.389 . S
C1168 C1169 1.387 . S
C1169 H1154 0.930 . S
C1169 C1164 1.390 . S
C1169 C1168 1.387 . S
H1170 C1182 0.930 . S
H1171 C1184 0.930 . S
H1172 C1185 0.930 . S
H1173 C1189 0.959 . S
H1174 C1189 0.959 . S
H1175 C1189 0.961 . S
H1176 C1190 0.960 . S
H1177 C1190 0.961 . S
H1178 C1190 0.959 . S
H1179 C1193 0.929 . S
H1180 C1194 0.931 . S
H1181 C1196 0.930 . S
C1182 H1170 0.930 . S
C1182 C1183 1.399 . S
C1182 C1187 1.399 . S
C1183 C1182 1.399 . S
C1183 C1184 1.376 . S
C1184 H1171 0.930 . S
C1184 C1183 1.376 . S
C1184 C1185 1.388 . S
C1185 H1172 0.930 . S
C1185 C1184 1.388 . S
C1185 C1186 1.390 . S
C1186 C1185 1.390 . S
C1186 C1187 1.394 . S
C1186 C1192 1.465 . S
C1187 C1182 1.399 . S
C1187 C1186 1.394 . S
C1187 C1188 1.516 . S
C1188 C1187 1.516 . S
C1188 C1189 1.502 . S
C1188 C1190 1.561 . S
C1188 C1191 1.526 . S
C1189 H1173 0.959 . S
C1189 H1174 0.959 . S
C1189 H1175 0.961 . S
C1189 C1188 1.502 . S
C1190 H1176 0.960 . S
C1190 H1177 0.961 . S
C1190 H1178 0.959 . S
C1190 C1188 1.561 . S
C1191 C1188 1.526 . S
C1191 C1192 1.396 . S
C1191 C1196 1.390 . S
C1192 C1186 1.465 . S
C1192 C1191 1.396 . S
C1192 C1193 1.399 . S
C1193 H1179 0.929 . S
C1193 C1192 1.399 . S
C1193 C1194 1.385 . S
C1194 H1180 0.931 . S
C1194 C1193 1.385 . S
C1194 C1195 1.389 . S
C1195 C1194 1.389 . S
C1195 C1196 1.387 . S
C1196 H1181 0.930 . S
C1196 C1191 1.390 . S
C1196 C1195 1.387 . S
H1197 C1209 0.930 . S
H1198 C1211 0.930 . S
H1199 C1212 0.930 . S
H1200 C1216 0.959 . S
H1201 C1216 0.959 . S
H1202 C1216 0.961 . S
H1203 C1217 0.960 . S
H1204 C1217 0.961 . S
H1205 C1217 0.959 . S
H1206 C1220 0.929 . S
H1207 C1221 0.931 . S
H1208 C1223 0.930 . S
C1209 H1197 0.930 . S
C1209 C1210 1.399 . S
C1209 C1214 1.399 . S
C1210 C1209 1.399 . S
C1210 C1211 1.376 . S
C1211 H1198 0.930 . S
C1211 C1210 1.376 . S
C1211 C1212 1.388 . S
C1212 H1199 0.930 . S
C1212 C1211 1.388 . S
C1212 C1213 1.390 . S
C1213 C1212 1.390 . S
C1213 C1214 1.394 . S
C1213 C1219 1.465 . S
C1214 C1209 1.399 . S
C1214 C1213 1.394 . S
C1214 C1215 1.516 . S
C1215 C1214 1.516 . S
C1215 C1216 1.502 . S
C1215 C1217 1.561 . S
C1215 C1218 1.526 . S
C1216 H1200 0.959 . S
C1216 H1201 0.959 . S
C1216 H1202 0.961 . S
C1216 C1215 1.502 . S
C1217 H1203 0.960 . S
C1217 H1204 0.961 . S
C1217 H1205 0.959 . S
C1217 C1215 1.561 . S
C1218 C1215 1.526 . S
C1218 C1219 1.396 . S
C1218 C1223 1.390 . S
C1219 C1213 1.465 . S
C1219 C1218 1.396 . S
C1219 C1220 1.399 . S
C1220 H1206 0.929 . S
C1220 C1219 1.399 . S
C1220 C1221 1.385 . S
C1221 H1207 0.931 . S
C1221 C1220 1.385 . S
C1221 C1222 1.389 . S
C1222 C1221 1.389 . S
C1222 C1223 1.387 . S
C1223 H1208 0.930 . S
C1223 C1218 1.390 . S
C1223 C1222 1.387 . S
H1224 C1236 0.930 . S
H1225 C1238 0.930 . S
H1226 C1239 0.930 . S
H1227 C1243 0.959 . S
H1228 C1243 0.959 . S
H1229 C1243 0.961 . S
H1230 C1244 0.960 . S
H1231 C1244 0.961 . S
H1232 C1244 0.959 . S
H1233 C1247 0.929 . S
H1234 C1248 0.931 . S
H1235 C1250 0.930 . S
C1236 H1224 0.930 . S
C1236 C1237 1.399 . S
C1236 C1241 1.399 . S
C1237 C1236 1.399 . S
C1237 C1238 1.376 . S
C1238 H1225 0.930 . S
C1238 C1237 1.376 . S
C1238 C1239 1.388 . S
C1239 H1226 0.930 . S
C1239 C1238 1.388 . S
C1239 C1240 1.390 . S
C1240 C1239 1.390 . S
C1240 C1241 1.394 . S
C1240 C1246 1.465 1_665 S
C1241 C1236 1.399 . S
C1241 C1240 1.394 . S
C1241 C1242 1.516 1_655 S
C1242 C1241 1.516 1_455 S
C1242 C1243 1.502 . S
C1242 C1244 1.561 1_465 S
C1242 C1245 1.526 1_565 S
C1243 H1227 0.959 . S
C1243 H1228 0.959 . S
C1243 H1229 0.961 . S
C1243 C1242 1.502 . S
C1244 H1230 0.960 . S
C1244 H1231 0.961 . S
C1244 H1232 0.959 . S
C1244 C1242 1.561 1_645 S
C1245 C1242 1.526 1_545 S
C1245 C1246 1.396 . S
C1245 C1250 1.390 . S
C1246 C1240 1.465 1_445 S
C1246 C1245 1.396 . S
C1246 C1247 1.399 . S
C1247 H1233 0.929 . S
C1247 C1246 1.399 . S
C1247 C1248 1.385 . S
C1248 H1234 0.931 . S
C1248 C1247 1.385 . S
C1248 C1249 1.389 . S
C1249 C1248 1.389 . S
C1249 C1250 1.387 . S
C1250 H1235 0.930 . S
C1250 C1245 1.390 . S
C1250 C1249 1.387 . S
H1251 C1263 0.930 . S
H1252 C1265 0.930 . S
H1253 C1266 0.930 . S
H1254 C1270 0.959 . S
H1255 C1270 0.959 . S
H1256 C1270 0.961 . S
H1257 C1271 0.960 . S
H1258 C1271 0.961 1_455 S
H1259 C1271 0.959 . S
H1260 C1274 0.929 . S
H1261 C1275 0.931 . S
H1262 C1277 0.930 . S
C1263 H1251 0.930 . S
C1263 C1264 1.399 . S
C1263 C1268 1.399 . S
C1264 C1263 1.399 . S
C1264 C1265 1.376 . S
C1265 H1252 0.930 . S
C1265 C1264 1.376 . S
C1265 C1266 1.388 . S
C1266 H1253 0.930 . S
C1266 C1265 1.388 . S
C1266 C1267 1.390 . S
C1267 C1266 1.390 . S
C1267 C1268 1.394 . S
C1267 C1273 1.465 1_645 S
C1268 C1263 1.399 . S
C1268 C1267 1.394 . S
C1268 C1269 1.516 1_655 S
C1269 C1268 1.516 1_455 S
C1269 C1270 1.502 . S
C1269 C1271 1.561 1_445 S
C1269 C1272 1.526 1_545 S
C1270 H1254 0.959 . S
C1270 H1255 0.959 . S
C1270 H1256 0.961 . S
C1270 C1269 1.502 . S
C1271 H1257 0.960 . S
C1271 H1258 0.961 1_655 S
C1271 H1259 0.959 . S
C1271 C1269 1.561 1_665 S
C1272 C1269 1.526 1_565 S
C1272 C1273 1.396 . S
C1272 C1277 1.390 . S
C1273 C1267 1.465 1_465 S
C1273 C1272 1.396 . S
C1273 C1274 1.399 . S
C1274 H1260 0.929 . S
C1274 C1273 1.399 . S
C1274 C1275 1.385 . S
C1275 H1261 0.931 . S
C1275 C1274 1.385 . S
C1275 C1276 1.389 . S
C1276 C1275 1.389 . S
C1276 C1277 1.387 . S
C1277 H1262 0.930 . S
C1277 C1272 1.390 . S
C1277 C1276 1.387 . S
H1278 C1290 0.930 . S
H1279 C1292 0.930 1_554 S
H1280 C1293 0.930 1_554 S
H1281 C1297 0.959 . S
H1282 C1297 0.959 . S
H1283 C1297 0.961 . S
H1284 C1298 0.960 . S
H1285 C1298 0.961 . S
H1286 C1298 0.959 . S
H1287 C1301 0.929 1_554 S
H1288 C1302 0.931 1_554 S
H1289 C1304 0.930 . S
C1290 H1278 0.930 . S
C1290 C1291 1.399 . S
C1290 C1295 1.399 . S
C1291 C1290 1.399 . S
C1291 C1292 1.376 . S
C1292 H1279 0.930 1_556 S
C1292 C1291 1.376 . S
C1292 C1293 1.388 . S
C1293 H1280 0.930 1_556 S
C1293 C1292 1.388 . S
C1293 C1294 1.390 . S
C1294 C1293 1.390 . S
C1294 C1295 1.394 . S
C1294 C1300 1.465 1_455 S
C1295 C1290 1.399 . S
C1295 C1294 1.394 . S
C1295 C1296 1.516 1_455 S
C1296 C1295 1.516 1_655 S
C1296 C1297 1.502 1_655 S
C1296 C1298 1.561 . S
C1296 C1299 1.526 . S
C1297 H1281 0.959 . S
C1297 H1282 0.959 . S
C1297 H1283 0.961 . S
C1297 C1296 1.502 1_455 S
C1298 H1284 0.960 . S
C1298 H1285 0.961 . S
C1298 H1286 0.959 . S
C1298 C1296 1.561 . S
C1299 C1296 1.526 . S
C1299 C1300 1.396 . S
C1299 C1304 1.390 . S
C1300 C1294 1.465 1_655 S
C1300 C1299 1.396 . S
C1300 C1301 1.399 . S
C1301 H1287 0.929 1_556 S
C1301 C1300 1.399 . S
C1301 C1302 1.385 . S
C1302 H1288 0.931 1_556 S
C1302 C1301 1.385 . S
C1302 C1303 1.389 . S
C1303 C1302 1.389 . S
C1303 C1304 1.387 . S
C1304 H1289 0.930 . S
C1304 C1299 1.390 . S
C1304 C1303 1.387 . S
H1305 C1317 0.930 . S
H1306 C1319 0.930 . S
H1307 C1320 0.930 1_556 S
H1308 C1324 0.959 . S
H1309 C1324 0.959 . S
H1310 C1324 0.961 . S
H1311 C1325 0.960 . S
H1312 C1325 0.961 1_545 S
H1313 C1325 0.959 . S
H1314 C1328 0.928 1_566 S
H1315 C1329 0.943 . S
H1316 C1331 0.930 . S
C1317 H1305 0.930 . S
C1317 C1318 1.399 . S
C1317 C1322 1.399 . S
C1318 C1317 1.399 . S
C1318 C1319 1.376 . S
C1319 H1306 0.930 . S
C1319 C1318 1.376 . S
C1319 C1320 1.388 . S
C1320 H1307 0.930 1_554 S
C1320 C1319 1.388 . S
C1320 C1321 1.390 . S
C1321 C1320 1.390 . S
C1321 C1322 1.394 . S
C1321 C1327 1.465 1_565 S
C1322 C1317 1.399 . S
C1322 C1321 1.394 . S
C1322 C1323 1.516 1_565 S
C1323 C1322 1.516 1_545 S
C1323 C1324 1.502 . S
C1323 C1325 1.561 1_545 S
C1323 C1326 1.526 . S
C1324 H1308 0.959 . S
C1324 H1309 0.959 . S
C1324 H1310 0.961 . S
C1324 C1323 1.502 . S
C1325 H1311 0.960 . S
C1325 H1312 0.961 1_565 S
C1325 H1313 0.959 . S
C1325 C1323 1.561 1_565 S
C1326 C1323 1.526 . S
C1326 C1327 1.396 . S
C1326 C1331 1.390 . S
C1327 C1321 1.465 1_545 S
C1327 C1326 1.396 . S
C1327 C1328 1.399 . S
C1328 H1314 0.928 1_544 S
C1328 C1327 1.399 . S
C1328 C1329 1.385 . S
C1329 H1315 0.943 . S
C1329 C1328 1.385 . S
C1329 C1330 1.389 . S
C1330 C1329 1.389 . S
C1330 C1331 1.387 . S
C1331 H1316 0.930 . S
C1331 C1326 1.390 . S
C1331 C1330 1.387 . S
H1332 C1344 0.930 . S
H1333 C1346 0.930 . S
H1334 C1347 0.930 . S
H1335 C1351 0.959 . S
H1336 C1351 0.959 . S
H1337 C1351 0.961 . S
H1338 C1352 0.960 . S
H1339 C1352 0.961 . S
H1340 C1352 0.959 . S
H1341 C1355 0.929 . S
H1342 C1356 0.931 . S
H1343 C1358 0.930 . S
C1344 H1332 0.930 . S
C1344 C1345 1.399 . S
C1344 C1349 1.399 . S
C1345 C1344 1.399 . S
C1345 C1346 1.376 . S
C1346 H1333 0.930 . S
C1346 C1345 1.376 . S
C1346 C1347 1.388 . S
C1347 H1334 0.930 . S
C1347 C1346 1.388 . S
C1347 C1348 1.390 . S
C1348 C1347 1.390 . S
C1348 C1349 1.394 . S
C1348 C1354 1.465 . S
C1349 C1344 1.399 . S
C1349 C1348 1.394 . S
C1349 C1350 1.516 . S
C1350 C1349 1.516 . S
C1350 C1351 1.502 . S
C1350 C1352 1.561 . S
C1350 C1353 1.526 . S
C1351 H1335 0.959 . S
C1351 H1336 0.959 . S
C1351 H1337 0.961 . S
C1351 C1350 1.502 . S
C1352 H1338 0.960 . S
C1352 H1339 0.961 . S
C1352 H1340 0.959 . S
C1352 C1350 1.561 . S
C1353 C1350 1.526 . S
C1353 C1354 1.396 . S
C1353 C1358 1.390 . S
C1354 C1348 1.465 . S
C1354 C1353 1.396 . S
C1354 C1355 1.399 . S
C1355 H1341 0.929 . S
C1355 C1354 1.399 . S
C1355 C1356 1.385 . S
C1356 H1342 0.931 . S
C1356 C1355 1.385 . S
C1356 C1357 1.389 . S
C1357 C1356 1.389 . S
C1357 C1358 1.387 . S
C1358 H1343 0.930 . S
C1358 C1353 1.390 . S
C1358 C1357 1.387 . S
H1359 C1371 0.930 . S
H1360 C1373 0.930 . S
H1361 C1374 0.930 . S
H1362 C1378 0.959 . S
H1363 C1378 0.959 . S
H1364 C1378 0.961 . S
H1365 C1379 0.960 . S
H1366 C1379 0.961 . S
H1367 C1379 0.959 . S
H1368 C1382 0.929 . S
H1369 C1383 0.931 . S
H1370 C1385 0.930 . S
C1371 H1359 0.930 . S
C1371 C1372 1.399 . S
C1371 C1376 1.399 . S
C1372 C1371 1.399 . S
C1372 C1373 1.376 . S
C1373 H1360 0.930 . S
C1373 C1372 1.376 . S
C1373 C1374 1.388 . S
C1374 H1361 0.930 . S
C1374 C1373 1.388 . S
C1374 C1375 1.390 . S
C1375 C1374 1.390 . S
C1375 C1376 1.394 . S
C1375 C1381 1.465 . S
C1376 C1371 1.399 . S
C1376 C1375 1.394 . S
C1376 C1377 1.516 . S
C1377 C1376 1.516 . S
C1377 C1378 1.502 . S
C1377 C1379 1.561 . S
C1377 C1380 1.526 . S
C1378 H1362 0.959 . S
C1378 H1363 0.959 . S
C1378 H1364 0.961 . S
C1378 C1377 1.502 . S
C1379 H1365 0.960 . S
C1379 H1366 0.961 . S
C1379 H1367 0.959 . S
C1379 C1377 1.561 . S
C1380 C1377 1.526 . S
C1380 C1381 1.396 . S
C1380 C1385 1.390 . S
C1381 C1375 1.465 . S
C1381 C1380 1.396 . S
C1381 C1382 1.399 . S
C1382 H1368 0.929 . S
C1382 C1381 1.399 . S
C1382 C1383 1.385 . S
C1383 H1369 0.931 . S
C1383 C1382 1.385 . S
C1383 C1384 1.389 . S
C1384 C1383 1.389 . S
C1384 C1385 1.387 . S
C1385 H1370 0.930 . S
C1385 C1380 1.390 . S
C1385 C1384 1.387 . S
H1386 C1398 0.930 . S
H1387 C1400 0.930 . S
H1388 C1401 0.930 . S
H1389 C1405 0.959 . S
H1390 C1405 0.959 . S
H1391 C1405 0.961 . S
H1392 C1406 0.960 . S
H1393 C1406 0.961 . S
H1394 C1406 0.959 . S
H1395 C1409 0.929 . S
H1396 C1410 0.931 . S
H1397 C1412 0.930 . S
C1398 H1386 0.930 . S
C1398 C1399 1.399 . S
C1398 C1403 1.399 . S
C1399 C1398 1.399 . S
C1399 C1400 1.376 . S
C1400 H1387 0.930 . S
C1400 C1399 1.376 . S
C1400 C1401 1.388 . S
C1401 H1388 0.930 . S
C1401 C1400 1.388 . S
C1401 C1402 1.390 . S
C1402 C1401 1.390 . S
C1402 C1403 1.394 . S
C1402 C1408 1.465 1_545 S
C1403 C1398 1.399 . S
C1403 C1402 1.394 . S
C1403 C1404 1.516 1_545 S
C1404 C1403 1.516 1_565 S
C1404 C1405 1.502 . S
C1404 C1406 1.561 1_565 S
C1404 C1407 1.526 . S
C1405 H1389 0.959 . S
C1405 H1390 0.959 . S
C1405 H1391 0.961 . S
C1405 C1404 1.502 . S
C1406 H1392 0.960 . S
C1406 H1393 0.961 . S
C1406 H1394 0.959 . S
C1406 C1404 1.561 1_545 S
C1407 C1404 1.526 . S
C1407 C1408 1.396 . S
C1407 C1412 1.390 . S
C1408 C1402 1.465 1_565 S
C1408 C1407 1.396 . S
C1408 C1409 1.399 . S
C1409 H1395 0.929 . S
C1409 C1408 1.399 . S
C1409 C1410 1.385 . S
C1410 H1396 0.931 . S
C1410 C1409 1.385 . S
C1410 C1411 1.389 . S
C1411 C1410 1.389 . S
C1411 C1412 1.387 . S
C1412 H1397 0.930 . S
C1412 C1407 1.390 . S
C1412 C1411 1.387 . S
H1413 C1425 0.930 . S
H1414 C1427 0.930 . S
H1415 C1428 0.930 . S
H1416 C1432 0.959 . S
H1417 C1432 0.959 . S
H1418 C1432 0.961 . S
H1419 C1433 0.960 1_655 S
H1420 C1433 0.961 . S
H1421 C1433 0.959 1_655 S
H1422 C1436 0.939 . S
H1423 C1437 0.931 . S
H1424 C1439 0.930 . S
C1425 H1413 0.930 . S
C1425 C1426 1.399 . S
C1425 C1430 1.399 . S
C1426 C1425 1.399 . S
C1426 C1427 1.376 . S
C1427 H1414 0.930 . S
C1427 C1426 1.376 . S
C1427 C1428 1.388 . S
C1428 H1415 0.930 . S
C1428 C1427 1.388 . S
C1428 C1429 1.390 . S
C1429 C1428 1.390 . S
C1429 C1430 1.394 . S
C1429 C1435 1.465 1_655 S
C1430 C1425 1.399 . S
C1430 C1429 1.394 . S
C1430 C1431 1.516 1_655 S
C1431 C1430 1.516 1_455 S
C1431 C1432 1.502 . S
C1431 C1433 1.561 . S
C1431 C1434 1.526 . S
C1432 H1416 0.959 . S
C1432 H1417 0.959 . S
C1432 H1418 0.961 . S
C1432 C1431 1.502 . S
C1433 H1419 0.960 1_455 S
C1433 H1420 0.961 . S
C1433 H1421 0.959 1_455 S
C1433 C1431 1.561 . S
C1434 C1431 1.526 . S
C1434 C1435 1.396 . S
C1434 C1439 1.390 . S
C1435 C1429 1.465 1_455 S
C1435 C1434 1.396 . S
C1435 C1436 1.399 . S
C1436 H1422 0.939 . S
C1436 C1435 1.399 . S
C1436 C1437 1.385 . S
C1437 H1423 0.931 . S
C1437 C1436 1.385 . S
C1437 C1438 1.389 . S
C1438 C1437 1.389 . S
C1438 C1439 1.387 . S
C1439 H1424 0.930 . S
C1439 C1434 1.390 . S
C1439 C1438 1.387 . S
C589 C3 1.076 . S
C601 C398 1.053 . S
C616 C290 1.133 . S
C628 C39 1.088 . S
C643 C326 1.053 . S
C655 C75 1.094 . S
C670 C362 1.071 . S
C682 C111 1.075 . S
C697 C182 1.049 . S
C709 C147 1.086 . S
C724 C183 1.140 . S
C736 C218 1.098 1_455 S
C751 C219 1.125 . S
C763 C254 1.082 1_565 S
C778 C255 1.091 . S
C790 C146 1.120 1_655 S
C805 C291 1.139 . S
C817 C110 1.128 1_565 S
C832 C2 1.137 1_655 S
C844 C327 1.115 . S
C859 C38 1.139 1_545 S
C871 C363 1.127 . S
C886 C74 1.074 1_455 S
C898 C399 1.134 . S
C913 C470 1.052 . S
C925 C435 1.093 . S
C940 C471 1.094 . S
C952 C506 1.053 . S
C967 C542 1.137 . S
C979 C507 1.117 . S
C994 C434 1.136 . S
C1006 C543 1.093 . S
C1021 C518 1.595 . S
C1033 C14 1.590 . S
C1048 C554 1.594 . S
C1060 C50 1.578 . S
C1075 C446 1.591 . S
C1087 C86 1.585 . S
C1102 C122 1.596 . S
C1114 C482 1.587 . S
C1129 C158 1.565 . S
C1141 C374 1.560 . S
C1156 C410 1.561 . S
C1168 C194 1.557 . S
C1183 C230 1.594 . S
C1195 C302 1.590 . S
C1210 C266 1.595 . S
C1222 C338 1.582 . S
C1237 C76 1.260 . S
C1249 C4 1.214 . S
C1264 C112 1.199 . S
C1276 C40 1.250 . S
C1291 C148 1.248 . S
C1303 C220 1.279 . S
C1318 C184 1.300 . S
C1330 C256 1.247 . S
C1345 C364 1.278 . S
C1357 C292 1.202 . S
C1372 C328 1.295 . S
C1384 C400 1.258 . S
C1399 C508 1.240 . S
C1411 C436 1.284 . S
C1426 C472 1.194 . S
C1438 C544 1.269 . S
