# Generated by pormake.
# Topology crs, (6)-cn, num edge types: 1
# Building blocks:
#     Node 0, Type 0, BuildingBlock: JUFBIX_clean_sbu_0, # of connection points: 6
#     Node 1, Type 0, BuildingBlock: JUFBIX_clean_sbu_0, # of connection points: 6
#     Node 2, Type 0, BuildingBlock: JUFBIX_clean_sbu_0, # of connection points: 6
#     Node 3, Type 0, BuildingBlock: JUFBIX_clean_sbu_0, # of connection points: 6
#     Node 4, Type 0, BuildingBlock: JUFBIX_clean_sbu_0, # of connection points: 6
#     Node 5, Type 0, BuildingBlock: JUFBIX_clean_sbu_0, # of connection points: 6
#     Node 6, Type 0, BuildingBlock: JUFBIX_clean_sbu_0, # of connection points: 6
#     Node 7, Type 0, BuildingBlock: JUFBIX_clean_sbu_0, # of connection points: 6
#     Node 8, Type 0, BuildingBlock: JUFBIX_clean_sbu_0, # of connection points: 6
#     Node 9, Type 0, BuildingBlock: JUFBIX_clean_sbu_0, # of connection points: 6
#     Node 10, Type 0, BuildingBlock: JUFBIX_clean_sbu_0, # of connection points: 6
#     Node 11, Type 0, BuildingBlock: JUFBIX_clean_sbu_0, # of connection points: 6
#     Node 12, Type 0, BuildingBlock: JUFBIX_clean_sbu_0, # of connection points: 6
#     Node 13, Type 0, BuildingBlock: JUFBIX_clean_sbu_0, # of connection points: 6
#     Node 14, Type 0, BuildingBlock: JUFBIX_clean_sbu_0, # of connection points: 6
#     Node 15, Type 0, BuildingBlock: JUFBIX_clean_sbu_0, # of connection points: 6
#     Edge 16, Type (0, 0), None
#     Edge 17, Type (0, 0), None
#     Edge 18, Type (0, 0), None
#     Edge 19, Type (0, 0), None
#     Edge 20, Type (0, 0), None
#     Edge 21, Type (0, 0), None
#     Edge 22, Type (0, 0), None
#     Edge 23, Type (0, 0), None
#     Edge 24, Type (0, 0), None
#     Edge 25, Type (0, 0), None
#     Edge 26, Type (0, 0), None
#     Edge 27, Type (0, 0), None
#     Edge 28, Type (0, 0), None
#     Edge 29, Type (0, 0), None
#     Edge 30, Type (0, 0), None
#     Edge 31, Type (0, 0), None
#     Edge 32, Type (0, 0), None
#     Edge 33, Type (0, 0), None
#     Edge 34, Type (0, 0), None
#     Edge 35, Type (0, 0), None
#     Edge 36, Type (0, 0), None
#     Edge 37, Type (0, 0), None
#     Edge 38, Type (0, 0), None
#     Edge 39, Type (0, 0), None
#     Edge 40, Type (0, 0), None
#     Edge 41, Type (0, 0), None
#     Edge 42, Type (0, 0), None
#     Edge 43, Type (0, 0), None
#     Edge 44, Type (0, 0), None
#     Edge 45, Type (0, 0), None
#     Edge 46, Type (0, 0), None
#     Edge 47, Type (0, 0), None
#     Edge 48, Type (0, 0), None
#     Edge 49, Type (0, 0), None
#     Edge 50, Type (0, 0), None
#     Edge 51, Type (0, 0), None
#     Edge 52, Type (0, 0), None
#     Edge 53, Type (0, 0), None
#     Edge 54, Type (0, 0), None
#     Edge 55, Type (0, 0), None
#     Edge 56, Type (0, 0), None
#     Edge 57, Type (0, 0), None
#     Edge 58, Type (0, 0), None
#     Edge 59, Type (0, 0), None
#     Edge 60, Type (0, 0), None
#     Edge 61, Type (0, 0), None
#     Edge 62, Type (0, 0), None
#     Edge 63, Type (0, 0), None
# Relax obj value: 1.005
# Max RMSD: 0.408
# Mean RMSD: 0.320
data_MOF--net-crs--node1-JUFBIX_clean_sbu_0--edge1-none
_symmetry_space_group_name_H-M    P1
_symmetry_Int_Tables_number       1
_symmetry_cell_setting            triclinic
loop_
_symmetry_equiv_pos_as_xyz
'x, y, z'
_cell_length_a     18.150196
_cell_length_b     18.89189
_cell_length_c     26.953079
_cell_angle_alpha  113.98471
_cell_angle_beta   90.250426
_cell_angle_gamma 89.930559
loop_
_atom_site_label
_atom_site_type_symbol
_atom_site_fract_x
_atom_site_fract_y
_atom_site_fract_z
_atom_type_partial_charge
Co0 Co 0.96643 0.06931 0.99583 0.0
C1 C 0.98686 0.13133 0.10576 0.0
Co2 Co 0.04802 1.00265 0.02102 0.0
C3 C 0.89372 0.12312 0.92239 0.0
C4 C 0.82531 0.13123 0.98916 0.0
N5 N 0.89511 0.11771 0.97094 0.0
N6 N 0.82471 0.13398 0.9079 0.0
C7 C 0.7818 0.13963 0.9501 0.0
H8 H 0.93971 0.10617 0.89447 0.0
H9 H 0.80573 0.12548 0.02519 0.0
C10 C 0.02758 0.94063 0.91109 0.0
N11 N 0.11933 0.95425 0.04591 0.0
C12 C 0.12071 0.94882 0.09446 0.0
C13 C 0.18913 0.94072 0.0277 0.0
N14 N 0.18972 0.93795 0.10894 0.0
C15 C 0.23263 0.93231 0.06675 0.0
C16 C 0.90789 0.94719 0.01868 0.0
O17 O 0.98274 0.99668 0.92342 0.0
O18 O 0.06338 0.93038 0.94821 0.0
O19 O 0.97438 0.93665 0.02893 0.0
O20 O 0.8926 1.00155 1.00391 0.0
O21 O 0.0317 0.07528 0.09343 0.0
H22 H 0.20872 0.94648 0.99167 0.0
H23 H 0.07472 0.96578 0.12237 0.0
O24 O 0.95106 0.14158 0.06864 0.0
O25 O 0.04006 0.13531 0.98792 0.0
O26 O 0.12184 0.07042 0.01295 0.0
C27 C 0.10656 0.12477 0.99818 0.0
H28 H 0.72212 0.14132 0.95021 0.0
H29 H 0.29231 0.93061 0.06664 0.0
Co30 Co 0.04937 0.31875 0.24644 0.0
C31 C 0.90041 0.36877 0.25025 0.0
Co32 Co 0.96507 0.2532 0.27041 0.0
C33 C 0.16279 0.34337 0.18143 0.0
C34 C 0.0937 0.44294 0.2173 0.0
N35 N 0.11039 0.37453 0.21954 0.0
N36 N 0.17526 0.38683 0.15302 0.0
C37 C 0.13177 0.44945 0.1753 0.0
H38 H 0.1821 0.28432 0.16882 0.0
H39 H 0.05054 0.48153 0.24038 0.0
C40 C 0.11404 0.20319 0.2666 0.0
N41 N 0.90406 0.19742 0.2973 0.0
C42 C 0.85165 0.22858 0.33542 0.0
C43 C 0.92074 0.12901 0.29954 0.0
N44 N 0.83918 0.18512 0.36382 0.0
C45 C 0.88268 0.12251 0.34155 0.0
C46 C 0.98672 0.1899 0.16131 0.0
O47 O 0.131 0.25769 0.25253 0.0
O48 O 0.04715 0.19403 0.27616 0.0
O49 O 0.94941 0.18035 0.19792 0.0
O50 O 0.03237 0.24545 0.17415 0.0
O51 O 0.88344 0.31427 0.26432 0.0
H52 H 0.96392 0.09043 0.27647 0.0
H53 H 0.83233 0.28763 0.34802 0.0
O54 O 0.96729 0.37793 0.24068 0.0
O55 O 0.06503 0.39161 0.31892 0.0
O56 O 0.98207 0.32651 0.3427 0.0
C57 C 0.02771 0.38207 0.35553 0.0
H58 H 0.12433 0.49391 0.16003 0.0
H59 H 0.89012 0.07805 0.35682 0.0
Co60 Co 0.79748 0.25335 0.52171 0.0
C61 C 0.80675 0.21158 0.41327 0.0
Co62 Co 0.71694 0.31858 0.4951 0.0
C63 C 0.85106 0.18719 0.59167 0.0
C64 C 0.94055 0.20475 0.5466 0.0
N65 N 0.86637 0.20954 0.55147 0.0
N66 N 0.91227 0.16998 0.61281 0.0
C67 C 0.96923 0.18031 0.58469 0.0
H68 H 0.79602 0.18768 0.60695 0.0
H69 H 0.97191 0.22153 0.51907 0.0
C70 C 0.70764 0.36036 0.60354 0.0
N71 N 0.64804 0.36239 0.46535 0.0
C72 C 0.66337 0.38476 0.42516 0.0
C73 C 0.57386 0.36718 0.47021 0.0
N74 N 0.60217 0.40198 0.40402 0.0
C75 C 0.54519 0.39163 0.43212 0.0
C76 C 0.66428 0.1793 0.4979 0.0
O77 O 0.75882 0.31047 0.59246 0.0
O78 O 0.68074 0.37686 0.56593 0.0
O79 O 0.64808 0.23689 0.48687 0.0
O80 O 0.72928 0.17309 0.51324 0.0
O81 O 0.75556 0.26144 0.42436 0.0
H82 H 0.5425 0.35038 0.49773 0.0
H83 H 0.71842 0.38428 0.4099 0.0
O84 O 0.8337 0.1951 0.45088 0.0
O85 O 0.86632 0.33506 0.52997 0.0
O86 O 0.78515 0.39883 0.50356 0.0
C87 C 0.85014 0.39264 0.51893 0.0
H88 H 0.02681 0.17302 0.59206 0.0
H89 H 0.48761 0.39892 0.42475 0.0
Co90 Co 0.71055 1.00796 0.76931 0.0
C91 C 0.66804 0.14535 0.76734 0.0
Co92 Co 0.80393 0.06404 0.74757 0.0
C93 C 0.65936 0.93908 0.83641 0.0
C94 C 0.56667 0.95966 0.7949 0.0
N95 N 0.64103 0.96338 0.79755 0.0
N96 N 0.60018 0.92193 0.85903 0.0
C97 C 0.54105 0.93419 0.83324 0.0
H98 H 0.71532 0.93893 0.85022 0.0
H99 H 0.53332 0.9778 0.76886 0.0
C100 C 0.84643 0.92665 0.74954 0.0
N101 N 0.87344 0.10861 0.71931 0.0
C102 C 0.8551 0.13282 0.68042 0.0
C103 C 0.9478 0.11239 0.72198 0.0
N104 N 0.91427 0.14994 0.65777 0.0
C105 C 0.97341 0.1378 0.68362 0.0
C106 C 0.80093 0.10944 0.85577 0.0
O107 O 0.77907 0.92441 0.7618 0.0
O108 O 0.86935 0.98365 0.7405 0.0
O109 O 0.83936 0.11936 0.81974 0.0
O110 O 0.74435 0.06638 0.84133 0.0
O111 O 0.73538 0.14756 0.75504 0.0
H112 H 0.98115 0.09433 0.74806 0.0
H113 H 0.79914 0.13293 0.6666 0.0
O114 O 0.64514 0.08838 0.77644 0.0
O115 O 0.67507 0.95272 0.69713 0.0
O116 O 0.77018 1.00557 0.67556 0.0
C117 C 0.71355 0.96258 0.66111 0.0
H118 H 0.48413 0.92783 0.84248 0.0
H119 H 0.03033 0.14422 0.67439 0.0
Co120 Co 0.54936 0.81876 0.24644 0.0
C121 C 0.40037 0.86871 0.25024 0.0
Co122 Co 0.46509 0.7532 0.27042 0.0
C123 C 0.66277 0.84339 0.18143 0.0
C124 C 0.59365 0.94295 0.21729 0.0
N125 N 0.61035 0.87454 0.21954 0.0
N126 N 0.67525 0.88685 0.15302 0.0
C127 C 0.63173 0.94946 0.17529 0.0
H128 H 0.6821 0.78435 0.16883 0.0
H129 H 0.55047 0.98152 0.24035 0.0
C130 C 0.61407 0.70325 0.26663 0.0
N131 N 0.40409 0.69741 0.29732 0.0
C132 C 0.35167 0.72857 0.33543 0.0
C133 C 0.4208 0.62902 0.29958 0.0
N134 N 0.3392 0.68512 0.36384 0.0
C135 C 0.38272 0.62251 0.34159 0.0
C136 C 0.48673 0.68988 0.16132 0.0
O137 O 0.63101 0.75773 0.25254 0.0
O138 O 0.54719 0.69406 0.27618 0.0
O139 O 0.44943 0.68032 0.19794 0.0
O140 O 0.53237 0.74544 0.17415 0.0
O141 O 0.38343 0.81423 0.26432 0.0
H142 H 0.46399 0.59045 0.27653 0.0
H143 H 0.33233 0.7876 0.34802 0.0
O144 O 0.46725 0.8779 0.24067 0.0
O145 O 0.565 0.89164 0.31892 0.0
O146 O 0.48208 0.82652 0.34271 0.0
C147 C 0.52771 0.88208 0.35554 0.0
H148 H 0.62429 0.99391 0.16001 0.0
H149 H 0.39017 0.57806 0.35687 0.0
Co150 Co 0.29748 0.75336 0.52173 0.0
C151 C 0.30677 0.71157 0.41328 0.0
Co152 Co 0.21694 0.81858 0.49511 0.0
C153 C 0.35105 0.68721 0.5917 0.0
C154 C 0.44055 0.70478 0.54663 0.0
N155 N 0.36637 0.70956 0.5515 0.0
N156 N 0.41226 0.67001 0.61285 0.0
C157 C 0.46923 0.68035 0.58473 0.0
H158 H 0.29601 0.6877 0.60697 0.0
H159 H 0.47191 0.72155 0.5191 0.0
C160 C 0.20763 0.86037 0.60355 0.0
N161 N 0.14804 0.86239 0.46536 0.0
C162 C 0.16335 0.88474 0.42515 0.0
C163 C 0.07386 0.86718 0.47023 0.0
N164 N 0.10214 0.90196 0.40402 0.0
C165 C 0.04517 0.89162 0.43214 0.0
C166 C 0.16428 0.6793 0.49791 0.0
O167 O 0.25881 0.81048 0.59247 0.0
O168 O 0.18074 0.87686 0.56594 0.0
O169 O 0.14809 0.73689 0.48688 0.0
O170 O 0.22928 0.6731 0.51325 0.0
O171 O 0.25557 0.76144 0.42437 0.0
H172 H 0.04251 0.85041 0.49777 0.0
H173 H 0.21839 0.88424 0.40988 0.0
O174 O 0.3337 0.6951 0.4509 0.0
O175 O 0.36632 0.83508 0.52999 0.0
O176 O 0.28515 0.89883 0.50357 0.0
C177 C 0.35013 0.89265 0.51894 0.0
H178 H 0.52681 0.67307 0.5921 0.0
H179 H 0.98759 0.89892 0.42478 0.0
Co180 Co 0.21051 0.50792 0.76928 0.0
C181 C 0.16801 0.64531 0.76734 0.0
Co182 Co 0.30391 0.56402 0.74757 0.0
C183 C 0.15935 0.43901 0.83636 0.0
C184 C 0.06664 0.45959 0.79487 0.0
N185 N 0.14101 0.46331 0.79751 0.0
N186 N 0.10018 0.42186 0.85899 0.0
C187 C 0.04103 0.43413 0.83321 0.0
H188 H 0.21531 0.43886 0.85017 0.0
H189 H 0.03329 0.47774 0.76884 0.0
C190 C 0.34642 0.42663 0.74952 0.0
N191 N 0.37342 0.60862 0.71934 0.0
C192 C 0.35508 0.63286 0.68045 0.0
C193 C 0.44778 0.6124 0.72201 0.0
N194 N 0.41426 0.64998 0.65781 0.0
C195 C 0.4734 0.63783 0.68365 0.0
C196 C 0.30087 0.60937 0.85576 0.0
O197 O 0.27907 0.42439 0.76178 0.0
O198 O 0.36934 0.48363 0.74047 0.0
O199 O 0.33935 0.61928 0.81976 0.0
O200 O 0.24428 0.56634 0.8413 0.0
O201 O 0.23536 0.64755 0.75507 0.0
H202 H 0.48114 0.59432 0.74808 0.0
H203 H 0.29913 0.63298 0.66663 0.0
O204 O 0.14509 0.58832 0.77639 0.0
O205 O 0.17508 0.45267 0.6971 0.0
O206 O 0.27016 0.50559 0.67556 0.0
C207 C 0.21355 0.46257 0.66109 0.0
H208 H 0.98412 0.42778 0.84247 0.0
H209 H 0.53031 0.64423 0.67442 0.0
Co210 Co 0.96641 0.56931 0.49583 0.0
C211 C 0.98685 0.63132 0.60576 0.0
Co212 Co 0.048 0.50263 0.52101 0.0
C213 C 0.89372 0.62314 0.4224 0.0
C214 C 0.8253 0.63124 0.48916 0.0
N215 N 0.8951 0.61771 0.47095 0.0
N216 N 0.82471 0.634 0.40791 0.0
C217 C 0.7818 0.63964 0.4501 0.0
H218 H 0.93971 0.60619 0.39449 0.0
H219 H 0.80571 0.62547 0.52519 0.0
C220 C 0.02757 0.44063 0.41109 0.0
N221 N 0.11931 0.45423 0.5459 0.0
C222 C 0.12071 0.44888 0.59447 0.0
C223 C 0.18912 0.44073 0.52768 0.0
N224 N 0.18976 0.43821 0.60897 0.0
C225 C 0.23268 0.43245 0.56676 0.0
C226 C 0.90787 0.44718 0.51867 0.0
O227 O 0.98273 0.49668 0.42342 0.0
O228 O 0.06336 0.43037 0.4482 0.0
O229 O 0.97437 0.43663 0.52892 0.0
O230 O 0.89259 0.50154 0.5039 0.0
O231 O 0.03168 0.57527 0.59343 0.0
H232 H 0.20868 0.44644 0.49163 0.0
H233 H 0.07473 0.4658 0.62238 0.0
O234 O 0.95105 0.64157 0.56865 0.0
O235 O 0.04005 0.63532 0.48793 0.0
O236 O 0.12182 0.5704 0.51294 0.0
C237 C 0.10654 0.62476 0.49818 0.0
H238 H 0.72212 0.64134 0.45021 0.0
H239 H 0.29236 0.43077 0.56665 0.0
Co240 Co 0.2975 0.25336 0.02174 0.0
C241 C 0.30681 0.21158 0.9133 0.0
Co242 Co 0.21696 0.31859 0.99513 0.0
C243 C 0.35107 0.18718 0.09169 0.0
C244 C 0.44057 0.20475 0.04663 0.0
N245 N 0.36639 0.20954 0.0515 0.0
N246 N 0.41227 0.16996 0.11282 0.0
C247 C 0.46924 0.1803 0.08472 0.0
H248 H 0.29602 0.18767 0.10695 0.0
H249 H 0.47193 0.22153 0.0191 0.0
C250 C 0.20768 0.36037 0.10357 0.0
N251 N 0.14808 0.36241 0.96536 0.0
C252 C 0.16339 0.38466 0.92512 0.0
C253 C 0.07391 0.36727 0.97027 0.0
N254 N 0.10218 0.40186 0.90397 0.0
C255 C 0.04522 0.39165 0.93215 0.0
C256 C 0.16429 0.17932 0.99792 0.0
O257 O 0.25888 0.3105 0.09248 0.0
O258 O 0.18075 0.37686 0.06596 0.0
O259 O 0.14811 0.23689 0.98687 0.0
O260 O 0.22928 0.17312 0.01328 0.0
O261 O 0.25563 0.26147 0.92439 0.0
H262 H 0.04256 0.35058 0.99784 0.0
H263 H 0.21843 0.38412 0.90982 0.0
O264 O 0.3337 0.19508 0.95091 0.0
O265 O 0.36636 0.33505 0.02998 0.0
O266 O 0.28517 0.39885 1.00361 0.0
C267 C 0.35017 0.39264 0.01895 0.0
H268 H 0.52682 0.173 0.09208 0.0
H269 H 0.98765 0.39898 0.9248 0.0
Co270 Co 0.21049 1.0079 0.26927 0.0
C271 C 0.168 0.14529 0.2673 0.0
Co272 Co 0.30388 0.06397 0.24754 0.0
C273 C 0.15931 0.93913 0.33643 0.0
C274 C 0.06661 0.95954 0.29485 0.0
N275 N 0.14097 0.96334 0.29753 0.0
N276 N 0.10013 0.922 0.35907 0.0
C277 C 0.041 0.93412 0.33321 0.0
H278 H 0.21526 0.93903 0.35026 0.0
H279 H 0.03326 0.97759 0.26876 0.0
C280 C 0.34638 0.92659 0.24951 0.0
N281 N 0.3734 0.10854 0.2193 0.0
C282 C 0.35507 0.13275 0.18039 0.0
C283 C 0.44775 0.11235 0.222 0.0
N284 N 0.41426 0.1499 0.15778 0.0
C285 C 0.47338 0.13778 0.18364 0.0
C286 C 0.30087 0.10936 0.35574 0.0
O287 O 0.27903 0.92437 0.26181 0.0
O288 O 0.36928 0.98356 0.24043 0.0
O289 O 0.33935 0.11923 0.31972 0.0
O290 O 0.24424 0.06637 0.34128 0.0
O291 O 0.23536 0.14752 0.25504 0.0
H292 H 0.4811 0.09432 0.24809 0.0
H293 H 0.29912 0.13285 0.16656 0.0
O294 O 0.14507 0.08829 0.27634 0.0
O295 O 0.17505 0.95258 0.1971 0.0
O296 O 0.27008 1.00554 0.17552 0.0
C297 C 0.21349 0.96248 0.16108 0.0
H298 H 0.98408 0.92769 0.34243 0.0
H299 H 0.5303 0.14423 0.17444 0.0
Co300 Co 0.54937 0.31877 0.74645 0.0
C301 C 0.4004 0.36875 0.75024 0.0
Co302 Co 0.46508 0.25321 0.77041 0.0
C303 C 0.66274 0.34332 0.6814 0.0
C304 C 0.59372 0.44296 0.71732 0.0
N305 N 0.61039 0.37453 0.71955 0.0
N306 N 0.67512 0.38674 0.65295 0.0
C307 C 0.63173 0.44943 0.67528 0.0
H308 H 0.68205 0.28428 0.66879 0.0
H309 H 0.5506 0.48158 0.74044 0.0
C310 C 0.61405 0.20322 0.76662 0.0
N311 N 0.40406 0.19744 0.7973 0.0
C312 C 0.35171 0.22864 0.83546 0.0
C313 C 0.42073 0.12901 0.79952 0.0
N314 N 0.33933 0.18521 0.8639 0.0
C315 C 0.38272 0.12252 0.84156 0.0
C316 C 0.48672 0.18989 0.66132 0.0
O317 O 0.631 0.25771 0.75254 0.0
O318 O 0.54717 0.19404 0.77617 0.0
O319 O 0.44942 0.18034 0.69793 0.0
O320 O 0.53237 0.24545 0.67415 0.0
O321 O 0.38345 0.31425 0.76431 0.0
H322 H 0.46384 0.09039 0.7764 0.0
H323 H 0.3324 0.28769 0.84807 0.0
O324 O 0.46729 0.37793 0.74069 0.0
O325 O 0.56504 0.39163 0.81893 0.0
O326 O 0.48208 0.32653 0.8427 0.0
C327 C 0.52772 0.38208 0.85554 0.0
H328 H 0.62432 0.49392 0.66003 0.0
H329 H 0.39013 0.07802 0.8568 0.0
Co330 Co 0.04937 0.81875 0.74645 0.0
C331 C 0.9004 0.86875 0.75025 0.0
Co332 Co 0.96507 0.7532 0.77042 0.0
C333 C 0.16273 0.84332 0.6814 0.0
C334 C 0.09371 0.94295 0.71733 0.0
N335 N 0.11038 0.87452 0.71956 0.0
N336 N 0.1751 0.88674 0.65296 0.0
C337 C 0.13172 0.94943 0.67529 0.0
H338 H 0.18205 0.78427 0.66879 0.0
H339 H 0.05059 0.98157 0.74045 0.0
C340 C 0.11403 0.7032 0.76662 0.0
N341 N 0.90405 0.69743 0.79732 0.0
C342 C 0.85165 0.72859 0.83544 0.0
C343 C 0.92073 0.62901 0.79956 0.0
N344 N 0.83917 0.68513 0.86384 0.0
C345 C 0.88266 0.62251 0.84156 0.0
C346 C 0.98671 0.68988 0.66132 0.0
O347 O 0.13099 0.75769 0.75254 0.0
O348 O 0.04715 0.69403 0.77618 0.0
O349 O 0.9494 0.68033 0.69793 0.0
O350 O 0.03236 0.74543 0.67416 0.0
O351 O 0.88344 0.81426 0.76432 0.0
H352 H 0.96389 0.59043 0.77648 0.0
H353 H 0.83234 0.78764 0.84805 0.0
O354 O 0.96728 0.87792 0.74069 0.0
O355 O 0.06503 0.89161 0.81893 0.0
O356 O 0.98207 0.82651 0.84271 0.0
C357 C 0.02772 0.88206 0.85554 0.0
H358 H 0.12431 0.99392 0.66004 0.0
H359 H 0.8901 0.57804 0.85683 0.0
Co360 Co 0.71057 0.50799 0.26932 0.0
C361 C 0.66806 0.64537 0.26735 0.0
Co362 Co 0.80396 0.56407 0.24758 0.0
C363 C 0.65937 0.4392 0.33645 0.0
C364 C 0.56669 0.45959 0.29485 0.0
N365 N 0.64105 0.46341 0.29755 0.0
N366 N 0.60018 0.42205 0.35907 0.0
C367 C 0.54106 0.43416 0.3332 0.0
H368 H 0.71532 0.4391 0.35029 0.0
H369 H 0.53335 0.47762 0.26875 0.0
C370 C 0.84644 0.42668 0.24955 0.0
N371 N 0.87347 0.60864 0.21934 0.0
C372 C 0.85513 0.63293 0.18047 0.0
C373 C 0.94783 0.61237 0.22198 0.0
N374 N 0.9143 0.65008 0.15784 0.0
C375 C 0.97345 0.63783 0.18363 0.0
C376 C 0.80094 0.60948 0.35577 0.0
O377 O 0.77909 0.42444 0.26181 0.0
O378 O 0.86937 0.48367 0.2405 0.0
O379 O 0.83939 0.61938 0.31975 0.0
O380 O 0.74436 0.56642 0.34133 0.0
O381 O 0.73541 0.6476 0.25505 0.0
H382 H 0.98119 0.59425 0.24802 0.0
H383 H 0.79917 0.63307 0.16666 0.0
O384 O 0.64516 0.5884 0.27642 0.0
O385 O 0.67511 0.45274 0.19713 0.0
O386 O 0.7702 0.50562 0.17557 0.0
C387 C 0.71359 0.46261 0.16112 0.0
H388 H 0.48414 0.42771 0.34239 0.0
H389 H 0.03036 0.64419 0.17438 0.0
Co390 Co 0.7975 0.75337 0.02173 0.0
C391 C 0.80675 0.71158 0.91329 0.0
Co392 Co 0.71694 0.81861 0.99514 0.0
C393 C 0.85108 0.68729 0.09173 0.0
C394 C 0.94056 0.70469 0.04658 0.0
N395 N 0.86639 0.70955 0.05149 0.0
N396 N 0.91229 0.67008 0.11287 0.0
C397 C 0.96925 0.68029 0.08469 0.0
H398 H 0.79605 0.68784 0.10703 0.0
H399 H 0.97191 0.72138 0.019 0.0
C400 C 0.70768 0.8604 0.10358 0.0
N401 N 0.64806 0.86243 0.96538 0.0
C402 C 0.66337 0.8847 0.92514 0.0
C403 C 0.57388 0.86729 0.97028 0.0
N404 N 0.60217 0.90191 0.904 0.0
C405 C 0.54521 0.89169 0.93216 0.0
C406 C 0.66428 0.67933 0.99793 0.0
O407 O 0.75886 0.81052 0.09248 0.0
O408 O 0.68074 0.87688 0.06597 0.0
O409 O 0.64808 0.73692 0.9869 0.0
O410 O 0.72928 0.67313 0.01328 0.0
O411 O 0.75557 0.76146 0.92439 0.0
H412 H 0.54252 0.85058 0.99784 0.0
H413 H 0.71841 0.88416 0.90985 0.0
O414 O 0.83369 0.69509 0.9509 0.0
O415 O 0.86635 0.83506 0.02997 0.0
O416 O 0.78516 0.89885 1.00359 0.0
C417 C 0.85016 0.89264 0.01894 0.0
H418 H 0.02683 0.67295 0.09203 0.0
H419 H 0.48763 0.89902 0.92482 0.0
Co420 Co 0.46642 0.06933 0.49583 0.0
C421 C 0.48686 0.13133 0.60576 0.0
Co422 Co 0.548 1.00264 0.52102 0.0
C423 C 0.39371 0.12306 0.42237 0.0
C424 C 0.3253 0.13124 0.48916 0.0
N425 N 0.39511 0.11772 0.47094 0.0
N426 N 0.32466 0.13374 0.40786 0.0
C427 C 0.28175 0.13951 0.45007 0.0
H428 H 0.43969 0.10613 0.39445 0.0
H429 H 0.30574 0.12554 0.52522 0.0
C430 C 0.52757 0.94064 0.41109 0.0
N431 N 0.61931 0.95424 0.54591 0.0
C432 C 0.62071 0.9489 0.59449 0.0
C433 C 0.68911 0.94072 0.52769 0.0
N434 N 0.68975 0.93821 0.60899 0.0
C435 C 0.73266 0.93243 0.56677 0.0
C436 C 0.40787 0.9472 0.51868 0.0
O437 O 0.48274 0.99669 0.42343 0.0
O438 O 0.56336 0.93037 0.44821 0.0
O439 O 0.47436 0.93664 0.52893 0.0
O440 O 0.39259 1.00155 0.50391 0.0
O441 O 0.53168 0.07528 0.59343 0.0
H442 H 0.70867 0.94642 0.49163 0.0
H443 H 0.57472 0.96584 0.6224 0.0
O444 O 0.45105 0.1416 0.56865 0.0
O445 O 0.54005 0.13532 0.48792 0.0
O446 O 0.62183 0.0704 0.51294 0.0
C447 C 0.60654 0.12476 0.49817 0.0
H448 H 0.22207 0.1412 0.45019 0.0
H449 H 0.79234 0.93073 0.56665 0.0
Co450 Co 0.46643 0.56932 0.99585 0.0
C451 C 0.48687 0.63131 0.10577 0.0
Co452 Co 0.54802 0.50263 0.02102 0.0
C453 C 0.39371 0.62307 0.92239 0.0
C454 C 0.3253 0.6312 0.98918 0.0
N455 N 0.39511 0.61772 0.97097 0.0
N456 N 0.32466 0.63373 0.90789 0.0
C457 C 0.28175 0.63948 0.9501 0.0
H458 H 0.4397 0.60616 0.89448 0.0
H459 H 0.30575 0.62549 0.02523 0.0
C460 C 0.52759 0.44064 0.9111 0.0
N461 N 0.61934 0.45424 0.04591 0.0
C462 C 0.62074 0.4489 0.09449 0.0
C463 C 0.68915 0.44074 0.02769 0.0
N464 N 0.68979 0.43824 0.10899 0.0
C465 C 0.7327 0.43247 0.06678 0.0
C466 C 0.40791 0.44718 0.01868 0.0
O467 O 0.48275 0.49669 0.92343 0.0
O468 O 0.56339 0.43037 0.94821 0.0
O469 O 0.4744 0.43662 0.02893 0.0
O470 O 0.39262 0.50154 1.00392 0.0
O471 O 0.5317 0.57526 0.09343 0.0
H472 H 0.7087 0.44645 0.99164 0.0
H473 H 0.57476 0.46582 0.1224 0.0
O474 O 0.45107 0.64158 0.06866 0.0
O475 O 0.54005 0.63533 0.98794 0.0
O476 O 0.62184 0.57042 0.01295 0.0
C477 C 0.60655 0.62478 0.99819 0.0
H478 H 0.22207 0.64116 0.95021 0.0
H479 H 0.79238 0.43079 0.06666 0.0
loop_
_geom_bond_atom_site_label_1
_geom_bond_atom_site_label_2
_geom_bond_distance
_geom_bond_site_symmetry_2
_ccdc_geom_bond_type
Co0 N5 2.057 . S
Co0 O17 2.021 1_545 S
Co0 O20 2.062 1_545 S
Co0 O24 2.117 1_556 S
Co0 O25 2.020 1_655 S
C1 O21 1.259 1_655 S
C1 O24 1.258 . S
Co2 N11 2.057 . S
Co2 O18 2.117 1_554 S
Co2 O19 2.020 1_455 S
Co2 O21 2.021 1_565 S
Co2 O26 2.062 1_565 S
C3 N5 1.316 . S
C3 N6 1.347 . S
C3 H8 0.931 1_545 S
C4 N5 1.375 . S
C4 C7 1.350 . S
C4 H9 0.930 1_556 S
N5 Co0 2.057 . S
N5 C3 1.316 . S
N5 C4 1.375 . S
N6 C3 1.347 . S
N6 C7 1.373 . S
C7 C4 1.350 . S
C7 N6 1.373 . S
C7 H28 0.931 . S
H8 C3 0.931 1_565 S
H9 C4 0.930 1_554 S
C10 O17 1.259 1_455 S
C10 O18 1.258 . S
N11 Co2 2.057 . S
N11 C12 1.316 . S
N11 C13 1.375 . S
C12 N11 1.316 . S
C12 N14 1.347 . S
C12 H23 0.931 1_565 S
C13 N11 1.375 . S
C13 C15 1.350 . S
C13 H22 0.930 1_554 S
N14 C12 1.347 . S
N14 C15 1.373 . S
C15 C13 1.350 . S
C15 N14 1.373 . S
C15 H29 0.931 . S
C16 O19 1.256 . S
C16 O20 1.255 1_554 S
O17 Co0 2.021 1_565 S
O17 C10 1.259 1_655 S
O18 Co2 2.117 1_556 S
O18 C10 1.258 . S
O19 Co2 2.020 1_655 S
O19 C16 1.256 . S
O20 Co0 2.062 1_565 S
O20 C16 1.255 1_556 S
O21 C1 1.259 1_455 S
O21 Co2 2.021 1_545 S
H22 C13 0.930 1_556 S
H23 C12 0.931 1_545 S
O24 Co0 2.117 1_554 S
O24 C1 1.258 . S
O25 Co0 2.020 1_455 S
O25 C27 1.256 . S
O26 Co2 2.062 1_545 S
O26 C27 1.255 1_554 S
C27 O25 1.256 . S
C27 O26 1.255 1_556 S
H28 C7 0.931 . S
H29 C15 0.931 . S
Co30 N35 2.057 . S
Co30 O47 2.021 . S
Co30 O50 2.062 . S
Co30 O54 2.117 1_455 S
Co30 O55 2.020 . S
C31 O51 1.259 . S
C31 O54 1.258 . S
Co32 N41 2.057 . S
Co32 O48 2.117 1_655 S
Co32 O49 2.020 . S
Co32 O51 2.021 . S
Co32 O56 2.062 . S
C33 N35 1.316 . S
C33 N36 1.347 . S
C33 H38 0.931 . S
C34 N35 1.375 . S
C34 C37 1.350 . S
C34 H39 0.930 . S
N35 Co30 2.057 . S
N35 C33 1.316 . S
N35 C34 1.375 . S
N36 C33 1.347 . S
N36 C37 1.373 . S
C37 C34 1.350 . S
C37 N36 1.373 . S
C37 H58 0.931 . S
H38 C33 0.931 . S
H39 C34 0.930 . S
C40 O47 1.259 . S
C40 O48 1.258 . S
N41 Co32 2.057 . S
N41 C42 1.316 . S
N41 C43 1.375 . S
C42 N41 1.316 . S
C42 N44 1.347 . S
C42 H53 0.931 . S
C43 N41 1.375 . S
C43 C45 1.350 . S
C43 H52 0.930 . S
N44 C42 1.347 . S
N44 C45 1.373 . S
C45 C43 1.350 . S
C45 N44 1.373 . S
C45 H59 0.931 . S
C46 O49 1.256 . S
C46 O50 1.255 1_655 S
O47 Co30 2.021 . S
O47 C40 1.259 . S
O48 Co32 2.117 1_455 S
O48 C40 1.258 . S
O49 Co32 2.020 . S
O49 C46 1.256 . S
O50 Co30 2.062 . S
O50 C46 1.255 1_455 S
O51 C31 1.259 . S
O51 Co32 2.021 . S
H52 C43 0.930 . S
H53 C42 0.931 . S
O54 Co30 2.117 1_655 S
O54 C31 1.258 . S
O55 Co30 2.020 . S
O55 C57 1.256 . S
O56 Co32 2.062 . S
O56 C57 1.255 1_655 S
C57 O55 1.256 . S
C57 O56 1.255 1_455 S
H58 C37 0.931 . S
H59 C45 0.931 . S
Co60 N65 2.057 . S
Co60 O77 2.021 . S
Co60 O80 2.062 . S
Co60 O84 2.117 . S
Co60 O85 2.020 . S
C61 O81 1.259 . S
C61 O84 1.258 . S
Co62 N71 2.057 . S
Co62 O78 2.117 . S
Co62 O79 2.020 . S
Co62 O81 2.021 . S
Co62 O86 2.062 . S
C63 N65 1.316 . S
C63 N66 1.347 . S
C63 H68 0.931 . S
C64 N65 1.375 . S
C64 C67 1.350 . S
C64 H69 0.930 . S
N65 Co60 2.057 . S
N65 C63 1.316 . S
N65 C64 1.375 . S
N66 C63 1.347 . S
N66 C67 1.373 . S
C67 C64 1.350 . S
C67 N66 1.373 . S
C67 H88 0.931 . S
H68 C63 0.931 . S
H69 C64 0.930 . S
C70 O77 1.259 . S
C70 O78 1.258 . S
N71 Co62 2.057 . S
N71 C72 1.316 . S
N71 C73 1.375 . S
C72 N71 1.316 . S
C72 N74 1.347 . S
C72 H83 0.931 . S
C73 N71 1.375 . S
C73 C75 1.350 . S
C73 H82 0.930 . S
N74 C72 1.347 . S
N74 C75 1.373 . S
C75 C73 1.350 . S
C75 N74 1.373 . S
C75 H89 0.931 . S
C76 O79 1.256 . S
C76 O80 1.255 . S
O77 Co60 2.021 . S
O77 C70 1.259 . S
O78 Co62 2.117 . S
O78 C70 1.258 . S
O79 Co62 2.020 . S
O79 C76 1.256 . S
O80 Co60 2.062 . S
O80 C76 1.255 . S
O81 C61 1.259 . S
O81 Co62 2.021 . S
H82 C73 0.930 . S
H83 C72 0.931 . S
O84 Co60 2.117 . S
O84 C61 1.258 . S
O85 Co60 2.020 . S
O85 C87 1.256 . S
O86 Co62 2.062 . S
O86 C87 1.255 . S
C87 O85 1.256 . S
C87 O86 1.255 . S
H88 C67 0.931 . S
H89 C75 0.931 . S
Co90 N95 2.057 . S
Co90 O107 2.021 . S
Co90 O110 2.062 1_565 S
Co90 O114 2.117 1_565 S
Co90 O115 2.020 . S
C91 O111 1.259 . S
C91 O114 1.258 . S
Co92 N101 2.057 . S
Co92 O108 2.117 1_545 S
Co92 O109 2.020 . S
Co92 O111 2.021 . S
Co92 O116 2.062 1_545 S
C93 N95 1.316 . S
C93 N96 1.347 . S
C93 H98 0.931 . S
C94 N95 1.375 . S
C94 C97 1.350 . S
C94 H99 0.930 . S
N95 Co90 2.057 . S
N95 C93 1.316 . S
N95 C94 1.375 . S
N96 C93 1.347 . S
N96 C97 1.373 . S
C97 C94 1.350 . S
C97 N96 1.373 . S
C97 H118 0.931 . S
H98 C93 0.931 . S
H99 C94 0.930 . S
C100 O107 1.259 . S
C100 O108 1.258 . S
N101 Co92 2.057 . S
N101 C102 1.316 . S
N101 C103 1.375 . S
C102 N101 1.316 . S
C102 N104 1.347 . S
C102 H113 0.931 . S
C103 N101 1.375 . S
C103 C105 1.350 . S
C103 H112 0.930 . S
N104 C102 1.347 . S
N104 C105 1.373 . S
C105 C103 1.350 . S
C105 N104 1.373 . S
C105 H119 0.931 . S
C106 O109 1.256 . S
C106 O110 1.255 . S
O107 Co90 2.021 . S
O107 C100 1.259 . S
O108 Co92 2.117 1_565 S
O108 C100 1.258 . S
O109 Co92 2.020 . S
O109 C106 1.256 . S
O110 Co90 2.062 1_545 S
O110 C106 1.255 . S
O111 C91 1.259 . S
O111 Co92 2.021 . S
H112 C103 0.930 . S
H113 C102 0.931 . S
O114 Co90 2.117 1_545 S
O114 C91 1.258 . S
O115 Co90 2.020 . S
O115 C117 1.256 . S
O116 Co92 2.062 1_565 S
O116 C117 1.255 . S
C117 O115 1.256 . S
C117 O116 1.255 . S
H118 C97 0.931 . S
H119 C105 0.931 . S
Co120 N125 2.057 . S
Co120 O137 2.021 . S
Co120 O140 2.062 . S
Co120 O144 2.117 . S
Co120 O145 2.020 . S
C121 O141 1.259 . S
C121 O144 1.258 . S
Co122 N131 2.057 . S
Co122 O138 2.117 . S
Co122 O139 2.020 . S
Co122 O141 2.021 . S
Co122 O146 2.062 . S
C123 N125 1.316 . S
C123 N126 1.347 . S
C123 H128 0.931 . S
C124 N125 1.375 . S
C124 C127 1.350 . S
C124 H129 0.930 . S
N125 Co120 2.057 . S
N125 C123 1.316 . S
N125 C124 1.375 . S
N126 C123 1.347 . S
N126 C127 1.373 . S
C127 C124 1.350 . S
C127 N126 1.373 . S
C127 H148 0.931 . S
H128 C123 0.931 . S
H129 C124 0.930 . S
C130 O137 1.259 . S
C130 O138 1.258 . S
N131 Co122 2.057 . S
N131 C132 1.316 . S
N131 C133 1.375 . S
C132 N131 1.316 . S
C132 N134 1.347 . S
C132 H143 0.931 . S
C133 N131 1.375 . S
C133 C135 1.350 . S
C133 H142 0.930 . S
N134 C132 1.347 . S
N134 C135 1.373 . S
C135 C133 1.350 . S
C135 N134 1.373 . S
C135 H149 0.931 . S
C136 O139 1.256 . S
C136 O140 1.255 . S
O137 Co120 2.021 . S
O137 C130 1.259 . S
O138 Co122 2.117 . S
O138 C130 1.258 . S
O139 Co122 2.020 . S
O139 C136 1.256 . S
O140 Co120 2.062 . S
O140 C136 1.255 . S
O141 C121 1.259 . S
O141 Co122 2.021 . S
H142 C133 0.930 . S
H143 C132 0.931 . S
O144 Co120 2.117 . S
O144 C121 1.258 . S
O145 Co120 2.020 . S
O145 C147 1.256 . S
O146 Co122 2.062 . S
O146 C147 1.255 . S
C147 O145 1.256 . S
C147 O146 1.255 . S
H148 C127 0.931 . S
H149 C135 0.931 . S
Co150 N155 2.057 . S
Co150 O167 2.021 . S
Co150 O170 2.062 . S
Co150 O174 2.117 . S
Co150 O175 2.020 . S
C151 O171 1.259 . S
C151 O174 1.258 . S
Co152 N161 2.057 . S
Co152 O168 2.117 . S
Co152 O169 2.020 . S
Co152 O171 2.021 . S
Co152 O176 2.062 . S
C153 N155 1.316 . S
C153 N156 1.347 . S
C153 H158 0.931 . S
C154 N155 1.375 . S
C154 C157 1.350 . S
C154 H159 0.930 . S
N155 Co150 2.057 . S
N155 C153 1.316 . S
N155 C154 1.375 . S
N156 C153 1.347 . S
N156 C157 1.373 . S
C157 C154 1.350 . S
C157 N156 1.373 . S
C157 H178 0.931 . S
H158 C153 0.931 . S
H159 C154 0.930 . S
C160 O167 1.259 . S
C160 O168 1.258 . S
N161 Co152 2.057 . S
N161 C162 1.316 . S
N161 C163 1.375 . S
C162 N161 1.316 . S
C162 N164 1.347 . S
C162 H173 0.931 . S
C163 N161 1.375 . S
C163 C165 1.350 . S
C163 H172 0.930 . S
N164 C162 1.347 . S
N164 C165 1.373 . S
C165 C163 1.350 . S
C165 N164 1.373 . S
C165 H179 0.931 . S
C166 O169 1.256 . S
C166 O170 1.255 . S
O167 Co150 2.021 . S
O167 C160 1.259 . S
O168 Co152 2.117 . S
O168 C160 1.258 . S
O169 Co152 2.020 . S
O169 C166 1.256 . S
O170 Co150 2.062 . S
O170 C166 1.255 . S
O171 C151 1.259 . S
O171 Co152 2.021 . S
H172 C163 0.930 . S
H173 C162 0.931 . S
O174 Co150 2.117 . S
O174 C151 1.258 . S
O175 Co150 2.020 . S
O175 C177 1.256 . S
O176 Co152 2.062 . S
O176 C177 1.255 . S
C177 O175 1.256 . S
C177 O176 1.255 . S
H178 C157 0.931 . S
H179 C165 0.931 . S
Co180 N185 2.057 . S
Co180 O197 2.021 . S
Co180 O200 2.062 . S
Co180 O204 2.117 . S
Co180 O205 2.020 . S
C181 O201 1.259 . S
C181 O204 1.258 . S
Co182 N191 2.057 . S
Co182 O198 2.117 . S
Co182 O199 2.020 . S
Co182 O201 2.021 . S
Co182 O206 2.062 . S
C183 N185 1.316 . S
C183 N186 1.347 . S
C183 H188 0.931 . S
C184 N185 1.375 . S
C184 C187 1.350 . S
C184 H189 0.930 . S
N185 Co180 2.057 . S
N185 C183 1.316 . S
N185 C184 1.375 . S
N186 C183 1.347 . S
N186 C187 1.373 . S
C187 C184 1.350 . S
C187 N186 1.373 . S
C187 H208 0.931 . S
H188 C183 0.931 . S
H189 C184 0.930 . S
C190 O197 1.259 . S
C190 O198 1.258 . S
N191 Co182 2.057 . S
N191 C192 1.316 . S
N191 C193 1.375 . S
C192 N191 1.316 . S
C192 N194 1.347 . S
C192 H203 0.931 . S
C193 N191 1.375 . S
C193 C195 1.350 . S
C193 H202 0.930 . S
N194 C192 1.347 . S
N194 C195 1.373 . S
C195 C193 1.350 . S
C195 N194 1.373 . S
C195 H209 0.931 . S
C196 O199 1.256 . S
C196 O200 1.255 . S
O197 Co180 2.021 . S
O197 C190 1.259 . S
O198 Co182 2.117 . S
O198 C190 1.258 . S
O199 Co182 2.020 . S
O199 C196 1.256 . S
O200 Co180 2.062 . S
O200 C196 1.255 . S
O201 C181 1.259 . S
O201 Co182 2.021 . S
H202 C193 0.930 . S
H203 C192 0.931 . S
O204 Co180 2.117 . S
O204 C181 1.258 . S
O205 Co180 2.020 . S
O205 C207 1.256 . S
O206 Co182 2.062 . S
O206 C207 1.255 . S
C207 O205 1.256 . S
C207 O206 1.255 . S
H208 C187 0.931 . S
H209 C195 0.931 . S
Co210 N215 2.057 . S
Co210 O227 2.021 . S
Co210 O230 2.062 . S
Co210 O234 2.117 . S
Co210 O235 2.020 1_655 S
C211 O231 1.259 1_655 S
C211 O234 1.258 . S
Co212 N221 2.057 . S
Co212 O228 2.117 . S
Co212 O229 2.020 1_455 S
Co212 O231 2.021 . S
Co212 O236 2.062 . S
C213 N215 1.316 . S
C213 N216 1.347 . S
C213 H218 0.931 . S
C214 N215 1.375 . S
C214 C217 1.350 . S
C214 H219 0.930 . S
N215 Co210 2.057 . S
N215 C213 1.316 . S
N215 C214 1.375 . S
N216 C213 1.347 . S
N216 C217 1.373 . S
C217 C214 1.350 . S
C217 N216 1.373 . S
C217 H238 0.931 . S
H218 C213 0.931 . S
H219 C214 0.930 . S
C220 O227 1.259 1_455 S
C220 O228 1.258 . S
N221 Co212 2.057 . S
N221 C222 1.316 . S
N221 C223 1.375 . S
C222 N221 1.316 . S
C222 N224 1.347 . S
C222 H233 0.931 . S
C223 N221 1.375 . S
C223 C225 1.350 . S
C223 H232 0.930 . S
N224 C222 1.347 . S
N224 C225 1.373 . S
C225 C223 1.350 . S
C225 N224 1.373 . S
C225 H239 0.931 . S
C226 O229 1.256 . S
C226 O230 1.255 . S
O227 Co210 2.021 . S
O227 C220 1.259 1_655 S
O228 Co212 2.117 . S
O228 C220 1.258 . S
O229 Co212 2.020 1_655 S
O229 C226 1.256 . S
O230 Co210 2.062 . S
O230 C226 1.255 . S
O231 C211 1.259 1_455 S
O231 Co212 2.021 . S
H232 C223 0.930 . S
H233 C222 0.931 . S
O234 Co210 2.117 . S
O234 C211 1.258 . S
O235 Co210 2.020 1_455 S
O235 C237 1.256 . S
O236 Co212 2.062 . S
O236 C237 1.255 . S
C237 O235 1.256 . S
C237 O236 1.255 . S
H238 C217 0.931 . S
H239 C225 0.931 . S
Co240 N245 2.057 . S
Co240 O257 2.021 . S
Co240 O260 2.063 . S
Co240 O264 2.117 1_554 S
Co240 O265 2.020 . S
C241 O261 1.259 . S
C241 O264 1.258 . S
Co242 N251 2.057 . S
Co242 O258 2.117 1_556 S
Co242 O259 2.020 . S
Co242 O261 2.021 . S
Co242 O266 2.062 . S
C243 N245 1.316 . S
C243 N246 1.347 . S
C243 H248 0.931 . S
C244 N245 1.375 . S
C244 C247 1.350 . S
C244 H249 0.930 1_554 S
N245 Co240 2.057 . S
N245 C243 1.316 . S
N245 C244 1.375 . S
N246 C243 1.347 . S
N246 C247 1.373 . S
C247 C244 1.350 . S
C247 N246 1.373 . S
C247 H268 0.931 . S
H248 C243 0.931 . S
H249 C244 0.930 1_556 S
C250 O257 1.259 . S
C250 O258 1.258 . S
N251 Co242 2.057 . S
N251 C252 1.316 . S
N251 C253 1.375 . S
C252 N251 1.316 . S
C252 N254 1.347 . S
C252 H263 0.931 . S
C253 N251 1.375 . S
C253 C255 1.350 . S
C253 H262 0.930 1_556 S
N254 C252 1.347 . S
N254 C255 1.373 . S
C255 C253 1.350 . S
C255 N254 1.373 . S
C255 H269 0.931 . S
C256 O259 1.256 . S
C256 O260 1.246 1_556 S
O257 Co240 2.021 . S
O257 C250 1.259 . S
O258 Co242 2.117 1_554 S
O258 C250 1.258 . S
O259 Co242 2.020 . S
O259 C256 1.256 . S
O260 Co240 2.063 . S
O260 C256 1.246 1_554 S
O261 C241 1.259 . S
O261 Co242 2.021 . S
H262 C253 0.930 1_554 S
H263 C252 0.931 . S
O264 Co240 2.117 1_556 S
O264 C241 1.258 . S
O265 Co240 2.020 . S
O265 C267 1.256 . S
O266 Co242 2.062 . S
O266 C267 1.250 1_556 S
C267 O265 1.256 . S
C267 O266 1.250 1_554 S
H268 C247 0.931 . S
H269 C255 0.931 . S
Co270 N275 2.057 . S
Co270 O287 2.021 . S
Co270 O290 2.062 1_565 S
Co270 O294 2.117 1_565 S
Co270 O295 2.020 . S
C271 O291 1.259 . S
C271 O294 1.258 . S
Co272 N281 2.057 . S
Co272 O288 2.117 1_545 S
Co272 O289 2.020 . S
Co272 O291 2.021 . S
Co272 O296 2.062 1_545 S
C273 N275 1.316 . S
C273 N276 1.347 . S
C273 H278 0.931 . S
C274 N275 1.375 . S
C274 C277 1.350 . S
C274 H279 0.930 . S
N275 Co270 2.057 . S
N275 C273 1.316 . S
N275 C274 1.375 . S
N276 C273 1.347 . S
N276 C277 1.373 . S
C277 C274 1.350 . S
C277 N276 1.373 . S
C277 H298 0.931 . S
H278 C273 0.931 . S
H279 C274 0.930 . S
C280 O287 1.259 . S
C280 O288 1.258 . S
N281 Co272 2.057 . S
N281 C282 1.316 . S
N281 C283 1.375 . S
C282 N281 1.316 . S
C282 N284 1.347 . S
C282 H293 0.931 . S
C283 N281 1.375 . S
C283 C285 1.350 . S
C283 H292 0.930 . S
N284 C282 1.347 . S
N284 C285 1.373 . S
C285 C283 1.350 . S
C285 N284 1.373 . S
C285 H299 0.931 . S
C286 O289 1.256 . S
C286 O290 1.255 . S
O287 Co270 2.021 . S
O287 C280 1.259 . S
O288 Co272 2.117 1_565 S
O288 C280 1.258 . S
O289 Co272 2.020 . S
O289 C286 1.256 . S
O290 Co270 2.062 1_545 S
O290 C286 1.255 . S
O291 C271 1.259 . S
O291 Co272 2.021 . S
H292 C283 0.930 . S
H293 C282 0.931 . S
O294 Co270 2.117 1_545 S
O294 C271 1.258 . S
O295 Co270 2.020 . S
O295 C297 1.256 . S
O296 Co272 2.062 1_565 S
O296 C297 1.255 . S
C297 O295 1.256 . S
C297 O296 1.255 . S
H298 C277 0.931 . S
H299 C285 0.931 . S
Co300 N305 2.057 . S
Co300 O317 2.021 . S
Co300 O320 2.062 . S
Co300 O324 2.117 . S
Co300 O325 2.020 . S
C301 O321 1.259 . S
C301 O324 1.258 . S
Co302 N311 2.057 . S
Co302 O318 2.117 . S
Co302 O319 2.020 . S
Co302 O321 2.021 . S
Co302 O326 2.062 . S
C303 N305 1.316 . S
C303 N306 1.347 . S
C303 H308 0.931 . S
C304 N305 1.375 . S
C304 C307 1.350 . S
C304 H309 0.930 . S
N305 Co300 2.057 . S
N305 C303 1.316 . S
N305 C304 1.375 . S
N306 C303 1.347 . S
N306 C307 1.373 . S
C307 C304 1.350 . S
C307 N306 1.373 . S
C307 H328 0.931 . S
H308 C303 0.931 . S
H309 C304 0.930 . S
C310 O317 1.259 . S
C310 O318 1.258 . S
N311 Co302 2.057 . S
N311 C312 1.316 . S
N311 C313 1.375 . S
C312 N311 1.316 . S
C312 N314 1.347 . S
C312 H323 0.931 . S
C313 N311 1.375 . S
C313 C315 1.350 . S
C313 H322 0.930 . S
N314 C312 1.347 . S
N314 C315 1.373 . S
C315 C313 1.350 . S
C315 N314 1.373 . S
C315 H329 0.931 . S
C316 O319 1.256 . S
C316 O320 1.255 . S
O317 Co300 2.021 . S
O317 C310 1.259 . S
O318 Co302 2.117 . S
O318 C310 1.258 . S
O319 Co302 2.020 . S
O319 C316 1.256 . S
O320 Co300 2.062 . S
O320 C316 1.255 . S
O321 C301 1.259 . S
O321 Co302 2.021 . S
H322 C313 0.930 . S
H323 C312 0.931 . S
O324 Co300 2.117 . S
O324 C301 1.258 . S
O325 Co300 2.020 . S
O325 C327 1.256 . S
O326 Co302 2.062 . S
O326 C327 1.255 . S
C327 O325 1.256 . S
C327 O326 1.255 . S
H328 C307 0.931 . S
H329 C315 0.931 . S
Co330 N335 2.057 . S
Co330 O347 2.021 . S
Co330 O350 2.062 . S
Co330 O354 2.117 1_455 S
Co330 O355 2.020 . S
C331 O351 1.259 . S
C331 O354 1.258 . S
Co332 N341 2.057 . S
Co332 O348 2.117 1_655 S
Co332 O349 2.020 . S
Co332 O351 2.021 . S
Co332 O356 2.062 . S
C333 N335 1.316 . S
C333 N336 1.347 . S
C333 H338 0.931 . S
C334 N335 1.375 . S
C334 C337 1.350 . S
C334 H339 0.930 . S
N335 Co330 2.057 . S
N335 C333 1.316 . S
N335 C334 1.375 . S
N336 C333 1.347 . S
N336 C337 1.373 . S
C337 C334 1.350 . S
C337 N336 1.373 . S
C337 H358 0.931 . S
H338 C333 0.931 . S
H339 C334 0.930 . S
C340 O347 1.259 . S
C340 O348 1.258 . S
N341 Co332 2.057 . S
N341 C342 1.316 . S
N341 C343 1.375 . S
C342 N341 1.316 . S
C342 N344 1.347 . S
C342 H353 0.931 . S
C343 N341 1.375 . S
C343 C345 1.350 . S
C343 H352 0.930 . S
N344 C342 1.347 . S
N344 C345 1.373 . S
C345 C343 1.350 . S
C345 N344 1.373 . S
C345 H359 0.931 . S
C346 O349 1.256 . S
C346 O350 1.255 1_655 S
O347 Co330 2.021 . S
O347 C340 1.259 . S
O348 Co332 2.117 1_455 S
O348 C340 1.258 . S
O349 Co332 2.020 . S
O349 C346 1.256 . S
O350 Co330 2.062 . S
O350 C346 1.255 1_455 S
O351 C331 1.259 . S
O351 Co332 2.021 . S
H352 C343 0.930 . S
H353 C342 0.931 . S
O354 Co330 2.117 1_655 S
O354 C331 1.258 . S
O355 Co330 2.020 . S
O355 C357 1.256 . S
O356 Co332 2.062 . S
O356 C357 1.255 1_655 S
C357 O355 1.256 . S
C357 O356 1.255 1_455 S
H358 C337 0.931 . S
H359 C345 0.931 . S
Co360 N365 2.057 . S
Co360 O377 2.021 . S
Co360 O380 2.062 . S
Co360 O384 2.117 . S
Co360 O385 2.020 . S
C361 O381 1.259 . S
C361 O384 1.258 . S
Co362 N371 2.057 . S
Co362 O378 2.117 . S
Co362 O379 2.020 . S
Co362 O381 2.021 . S
Co362 O386 2.062 . S
C363 N365 1.316 . S
C363 N366 1.347 . S
C363 H368 0.931 . S
C364 N365 1.375 . S
C364 C367 1.350 . S
C364 H369 0.930 . S
N365 Co360 2.057 . S
N365 C363 1.316 . S
N365 C364 1.375 . S
N366 C363 1.347 . S
N366 C367 1.373 . S
C367 C364 1.350 . S
C367 N366 1.373 . S
C367 H388 0.931 . S
H368 C363 0.931 . S
H369 C364 0.930 . S
C370 O377 1.259 . S
C370 O378 1.258 . S
N371 Co362 2.057 . S
N371 C372 1.316 . S
N371 C373 1.375 . S
C372 N371 1.316 . S
C372 N374 1.347 . S
C372 H383 0.931 . S
C373 N371 1.375 . S
C373 C375 1.350 . S
C373 H382 0.930 . S
N374 C372 1.347 . S
N374 C375 1.373 . S
C375 C373 1.350 . S
C375 N374 1.373 . S
C375 H389 0.931 . S
C376 O379 1.256 . S
C376 O380 1.255 . S
O377 Co360 2.021 . S
O377 C370 1.259 . S
O378 Co362 2.117 . S
O378 C370 1.258 . S
O379 Co362 2.020 . S
O379 C376 1.256 . S
O380 Co360 2.062 . S
O380 C376 1.255 . S
O381 C361 1.259 . S
O381 Co362 2.021 . S
H382 C373 0.930 . S
H383 C372 0.931 . S
O384 Co360 2.117 . S
O384 C361 1.258 . S
O385 Co360 2.020 . S
O385 C387 1.256 . S
O386 Co362 2.062 . S
O386 C387 1.255 . S
C387 O385 1.256 . S
C387 O386 1.255 . S
H388 C367 0.931 . S
H389 C375 0.931 . S
Co390 N395 2.057 . S
Co390 O407 2.021 . S
Co390 O410 2.063 . S
Co390 O414 2.117 1_554 S
Co390 O415 2.020 . S
C391 O411 1.259 . S
C391 O414 1.258 . S
Co392 N401 2.057 . S
Co392 O408 2.117 1_556 S
Co392 O409 2.020 . S
Co392 O411 2.021 . S
Co392 O416 2.062 . S
C393 N395 1.316 . S
C393 N396 1.347 . S
C393 H398 0.931 . S
C394 N395 1.375 . S
C394 C397 1.350 . S
C394 H399 0.930 1_554 S
N395 Co390 2.057 . S
N395 C393 1.316 . S
N395 C394 1.375 . S
N396 C393 1.347 . S
N396 C397 1.373 . S
C397 C394 1.350 . S
C397 N396 1.373 . S
C397 H418 0.931 . S
H398 C393 0.931 . S
H399 C394 0.930 1_556 S
C400 O407 1.259 . S
C400 O408 1.258 . S
N401 Co392 2.057 . S
N401 C402 1.316 . S
N401 C403 1.375 . S
C402 N401 1.316 . S
C402 N404 1.347 . S
C402 H413 0.931 . S
C403 N401 1.375 . S
C403 C405 1.350 . S
C403 H412 0.930 1_556 S
N404 C402 1.347 . S
N404 C405 1.373 . S
C405 C403 1.350 . S
C405 N404 1.373 . S
C405 H419 0.931 . S
C406 O409 1.256 . S
C406 O410 1.246 1_556 S
O407 Co390 2.021 . S
O407 C400 1.259 . S
O408 Co392 2.117 1_554 S
O408 C400 1.258 . S
O409 Co392 2.020 . S
O409 C406 1.256 . S
O410 Co390 2.063 . S
O410 C406 1.246 1_554 S
O411 C391 1.259 . S
O411 Co392 2.021 . S
H412 C403 0.930 1_554 S
H413 C402 0.931 . S
O414 Co390 2.117 1_556 S
O414 C391 1.258 . S
O415 Co390 2.020 . S
O415 C417 1.256 . S
O416 Co392 2.062 . S
O416 C417 1.250 1_556 S
C417 O415 1.256 . S
C417 O416 1.250 1_554 S
H418 C397 0.931 . S
H419 C405 0.931 . S
Co420 N425 2.057 . S
Co420 O437 2.021 1_545 S
Co420 O440 2.062 1_545 S
Co420 O444 2.117 . S
Co420 O445 2.020 . S
C421 O441 1.259 . S
C421 O444 1.258 . S
Co422 N431 2.057 . S
Co422 O438 2.117 . S
Co422 O439 2.020 . S
Co422 O441 2.021 1_565 S
Co422 O446 2.062 1_565 S
C423 N425 1.316 . S
C423 N426 1.347 . S
C423 H428 0.931 1_545 S
C424 N425 1.375 . S
C424 C427 1.350 . S
C424 H429 0.930 . S
N425 Co420 2.057 . S
N425 C423 1.316 . S
N425 C424 1.375 . S
N426 C423 1.347 . S
N426 C427 1.373 . S
C427 C424 1.350 . S
C427 N426 1.373 . S
C427 H448 0.931 . S
H428 C423 0.931 1_565 S
H429 C424 0.930 . S
C430 O437 1.259 . S
C430 O438 1.258 . S
N431 Co422 2.057 . S
N431 C432 1.316 . S
N431 C433 1.375 . S
C432 N431 1.316 . S
C432 N434 1.347 . S
C432 H443 0.931 1_565 S
C433 N431 1.375 . S
C433 C435 1.350 . S
C433 H442 0.930 . S
N434 C432 1.347 . S
N434 C435 1.373 . S
C435 C433 1.350 . S
C435 N434 1.373 . S
C435 H449 0.931 . S
C436 O439 1.256 . S
C436 O440 1.255 . S
O437 Co420 2.021 1_565 S
O437 C430 1.259 . S
O438 Co422 2.117 . S
O438 C430 1.258 . S
O439 Co422 2.020 . S
O439 C436 1.256 . S
O440 Co420 2.062 1_565 S
O440 C436 1.255 . S
O441 C421 1.259 . S
O441 Co422 2.021 1_545 S
H442 C433 0.930 . S
H443 C432 0.931 1_545 S
O444 Co420 2.117 . S
O444 C421 1.258 . S
O445 Co420 2.020 . S
O445 C447 1.256 . S
O446 Co422 2.062 1_545 S
O446 C447 1.255 . S
C447 O445 1.256 . S
C447 O446 1.255 . S
H448 C427 0.931 . S
H449 C435 0.931 . S
Co450 N455 2.057 . S
Co450 O467 2.021 . S
Co450 O470 2.062 . S
Co450 O474 2.117 1_556 S
Co450 O475 2.020 . S
C451 O471 1.259 . S
C451 O474 1.258 . S
Co452 N461 2.057 . S
Co452 O468 2.117 1_554 S
Co452 O469 2.020 . S
Co452 O471 2.021 . S
Co452 O476 2.062 . S
C453 N455 1.316 . S
C453 N456 1.347 . S
C453 H458 0.931 . S
C454 N455 1.375 . S
C454 C457 1.350 . S
C454 H459 0.930 1_556 S
N455 Co450 2.057 . S
N455 C453 1.316 . S
N455 C454 1.375 . S
N456 C453 1.347 . S
N456 C457 1.373 . S
C457 C454 1.350 . S
C457 N456 1.373 . S
C457 H478 0.931 . S
H458 C453 0.931 . S
H459 C454 0.930 1_554 S
C460 O467 1.259 . S
C460 O468 1.258 . S
N461 Co452 2.057 . S
N461 C462 1.316 . S
N461 C463 1.375 . S
C462 N461 1.316 . S
C462 N464 1.347 . S
C462 H473 0.931 . S
C463 N461 1.375 . S
C463 C465 1.350 . S
C463 H472 0.930 1_554 S
N464 C462 1.347 . S
N464 C465 1.373 . S
C465 C463 1.350 . S
C465 N464 1.373 . S
C465 H479 0.931 . S
C466 O469 1.256 . S
C466 O470 1.255 1_554 S
O467 Co450 2.021 . S
O467 C460 1.259 . S
O468 Co452 2.117 1_556 S
O468 C460 1.258 . S
O469 Co452 2.020 . S
O469 C466 1.256 . S
O470 Co450 2.062 . S
O470 C466 1.255 1_556 S
O471 C451 1.259 . S
O471 Co452 2.021 . S
H472 C463 0.930 1_556 S
H473 C462 0.931 . S
O474 Co450 2.117 1_554 S
O474 C451 1.258 . S
O475 Co450 2.020 . S
O475 C477 1.256 . S
O476 Co452 2.062 . S
O476 C477 1.255 1_554 S
C477 O475 1.256 . S
C477 O476 1.255 1_556 S
H478 C457 0.931 . S
H479 C465 0.931 . S
C1 C46 1.690 . S
C61 N44 1.085 . S
N104 N66 1.113 . S
N6 C106 1.654 . S
N14 C297 1.651 . S
C220 C57 1.692 . S
C70 N306 1.086 . S
N96 N404 1.112 . S
C250 N36 1.084 . S
N366 N74 1.111 . S
N434 C117 1.652 . S
C10 C357 1.695 . S
C27 C256 1.906 . S
C361 C130 1.976 . S
C177 C436 1.910 . S
C340 C181 1.975 . S
C87 C226 1.909 . S
C280 C121 1.978 . S
C190 C301 1.976 . S
C160 N336 1.086 . S
N276 N164 1.110 . S
C346 C211 1.692 . S
C151 N134 1.086 . S
N284 N246 1.111 . S
C391 N344 1.088 . S
N194 N156 1.111 . S
C286 N426 1.652 . S
C417 C16 1.911 . S
C76 C447 1.907 . S
C370 C31 1.977 . S
C237 C166 1.908 . S
C91 C310 1.975 . S
N374 N396 1.110 . S
N216 C376 1.651 . S
C207 N224 1.653 . S
N126 C400 1.083 . S
C387 N464 1.650 . S
C466 C267 1.909 . S
C40 C271 1.974 . S
N254 N186 1.113 . S
C241 N314 1.088 . S
N456 C196 1.655 . S
C406 C477 1.909 . S
C331 C100 1.979 . S
C316 C421 1.692 . S
C327 C460 1.695 . S
C147 C430 1.692 . S
C451 C136 1.690 . S
