# Generated by pormake.
# Topology acs-h, (5)-cn, num edge types: 1
# Building blocks:
#     Node 0, Type 0, BuildingBlock: BEQFEK_clean_sbu_0, # of connection points: 5
#     Node 1, Type 0, BuildingBlock: BEQFEK_clean_sbu_0, # of connection points: 5
#     Node 2, Type 0, BuildingBlock: BEQFEK_clean_sbu_0, # of connection points: 5
#     Node 3, Type 0, BuildingBlock: BEQFEK_clean_sbu_0, # of connection points: 5
#     Node 4, Type 0, BuildingBlock: BEQFEK_clean_sbu_0, # of connection points: 5
#     Node 5, Type 0, BuildingBlock: BEQFEK_clean_sbu_0, # of connection points: 5
#     Node 6, Type 0, BuildingBlock: BEQFEK_clean_sbu_0, # of connection points: 5
#     Node 7, Type 0, BuildingBlock: BEQFEK_clean_sbu_0, # of connection points: 5
#     Node 8, Type 0, BuildingBlock: BEQFEK_clean_sbu_0, # of connection points: 5
#     Node 9, Type 0, BuildingBlock: BEQFEK_clean_sbu_0, # of connection points: 5
#     Node 10, Type 0, BuildingBlock: BEQFEK_clean_sbu_0, # of connection points: 5
#     Node 11, Type 0, BuildingBlock: BEQFEK_clean_sbu_0, # of connection points: 5
#     Edge 12, Type (0, 0), BuildingBlock: EZIPEK_clean_linker_0, # of connection points: 2
#     Edge 13, Type (0, 0), BuildingBlock: EZIPEK_clean_linker_0, # of connection points: 2
#     Edge 14, Type (0, 0), BuildingBlock: EZIPEK_clean_linker_0, # of connection points: 2
#     Edge 15, Type (0, 0), BuildingBlock: EZIPEK_clean_linker_0, # of connection points: 2
#     Edge 16, Type (0, 0), BuildingBlock: EZIPEK_clean_linker_0, # of connection points: 2
#     Edge 17, Type (0, 0), BuildingBlock: EZIPEK_clean_linker_0, # of connection points: 2
#     Edge 18, Type (0, 0), BuildingBlock: EZIPEK_clean_linker_0, # of connection points: 2
#     Edge 19, Type (0, 0), BuildingBlock: EZIPEK_clean_linker_0, # of connection points: 2
#     Edge 20, Type (0, 0), BuildingBlock: EZIPEK_clean_linker_0, # of connection points: 2
#     Edge 21, Type (0, 0), BuildingBlock: EZIPEK_clean_linker_0, # of connection points: 2
#     Edge 22, Type (0, 0), BuildingBlock: EZIPEK_clean_linker_0, # of connection points: 2
#     Edge 23, Type (0, 0), BuildingBlock: EZIPEK_clean_linker_0, # of connection points: 2
#     Edge 24, Type (0, 0), BuildingBlock: EZIPEK_clean_linker_0, # of connection points: 2
#     Edge 25, Type (0, 0), BuildingBlock: EZIPEK_clean_linker_0, # of connection points: 2
#     Edge 26, Type (0, 0), BuildingBlock: EZIPEK_clean_linker_0, # of connection points: 2
#     Edge 27, Type (0, 0), BuildingBlock: EZIPEK_clean_linker_0, # of connection points: 2
#     Edge 28, Type (0, 0), BuildingBlock: EZIPEK_clean_linker_0, # of connection points: 2
#     Edge 29, Type (0, 0), BuildingBlock: EZIPEK_clean_linker_0, # of connection points: 2
#     Edge 30, Type (0, 0), BuildingBlock: EZIPEK_clean_linker_0, # of connection points: 2
#     Edge 31, Type (0, 0), BuildingBlock: EZIPEK_clean_linker_0, # of connection points: 2
#     Edge 32, Type (0, 0), BuildingBlock: EZIPEK_clean_linker_0, # of connection points: 2
#     Edge 33, Type (0, 0), BuildingBlock: EZIPEK_clean_linker_0, # of connection points: 2
#     Edge 34, Type (0, 0), BuildingBlock: EZIPEK_clean_linker_0, # of connection points: 2
#     Edge 35, Type (0, 0), BuildingBlock: EZIPEK_clean_linker_0, # of connection points: 2
#     Edge 36, Type (0, 0), BuildingBlock: EZIPEK_clean_linker_0, # of connection points: 2
#     Edge 37, Type (0, 0), BuildingBlock: EZIPEK_clean_linker_0, # of connection points: 2
#     Edge 38, Type (0, 0), BuildingBlock: EZIPEK_clean_linker_0, # of connection points: 2
#     Edge 39, Type (0, 0), BuildingBlock: EZIPEK_clean_linker_0, # of connection points: 2
#     Edge 40, Type (0, 0), BuildingBlock: EZIPEK_clean_linker_0, # of connection points: 2
#     Edge 41, Type (0, 0), BuildingBlock: EZIPEK_clean_linker_0, # of connection points: 2
# Relax obj value: 1.264
# Max RMSD: 0.207
# Mean RMSD: 0.207
data_MOF--net-acs-h--node1-BEQFEK_clean_sbu_0--edge1-EZIPEK_clean_linker_0
_symmetry_space_group_name_H-M    P1
_symmetry_Int_Tables_number       1
_symmetry_cell_setting            triclinic
loop_
_symmetry_equiv_pos_as_xyz
'x, y, z'
_cell_length_a     32.023966
_cell_length_b     32.108519
_cell_length_c     28.439058
_cell_angle_alpha  90.047978
_cell_angle_beta   89.803258
_cell_angle_gamma 120.23164
loop_
_atom_site_label
_atom_site_type_symbol
_atom_site_fract_x
_atom_site_fract_y
_atom_site_fract_z
_atom_type_partial_charge
Co0 Co 0.43902 0.04432 0.09887 0.0
Co1 Co 0.43515 0.11291 0.0276 0.0
C2 C 0.52636 0.11678 0.04223 0.0
O3 O 0.50382 0.07743 0.06507 0.0
O4 O 0.50528 0.13991 0.03196 0.0
C5 C 0.47828 0.99754 0.14602 0.0
O6 O 0.49623 0.99882 0.10424 0.0
C7 C 0.46006 0.20633 -0.00312 0.0
C8 C 0.39994 0.19711 0.95196 0.0
C9 C 0.44198 0.23147 0.97382 0.0
N10 N 0.42999 0.15906 0.99017 0.0
N11 N 0.39453 0.15353 0.96232 0.0
C12 C 0.50192 0.22711 0.03049 0.0
H13 H 0.53371 0.22887 0.0128 0.0
H14 H 0.49293 0.20414 0.06217 0.0
H15 H 0.51225 0.26401 0.04207 0.0
C16 C 0.41509 0.10376 0.16514 0.0
N17 N 0.42002 0.08834 0.1222 0.0
N18 N 0.41119 0.11215 0.08987 0.0
C19 C 0.39938 0.14244 0.11146 0.0
C20 C 0.4031 0.13942 0.15961 0.0
C21 C 0.42424 0.08747 0.21117 0.0
H22 H 0.42351 0.05281 0.20762 0.0
H23 H 0.45981 0.11554 0.22486 0.0
H24 H 0.39652 0.08347 0.23719 0.0
O25 O 0.39079 0.00048 0.05467 0.0
O26 O 0.41679 0.0497 -0.00482 0.0
H27 H 0.37196 0.16319 0.05258 0.0
H28 H 0.36231 0.18247 0.10905 0.0
C29 C 0.38811 0.17697 0.0875 0.0
H30 H 0.42157 0.21247 0.08429 0.0
H31 H 0.36509 0.1202 0.95305 0.0
O32 O 0.44462 0.00719 0.1503 0.0
C33 C 0.40443 0.00824 0.01211 0.0
Co34 Co 0.93912 0.38611 0.09387 0.0
Co35 Co 0.85207 0.31707 0.0376 0.0
C36 C 0.85361 0.39949 0.06769 0.0
O37 O 0.89833 0.41652 0.07623 0.0
O38 O 0.82568 0.35446 0.06479 0.0
C39 C 0.95801 0.43086 0.17647 0.0
O40 O 0.91084 0.41027 0.17298 0.0
C41 C 0.75275 0.24839 0.01327 0.0
C42 C 0.75832 0.20293 0.95824 0.0
C43 C 0.72562 0.20808 0.98611 0.0
N44 N 0.79978 0.26665 0.00267 0.0
N45 N 0.80288 0.23958 0.96927 0.0
C46 C 0.7337 0.26766 0.0505 0.0
H47 H 0.73754 0.30219 0.03812 0.0
H48 H 0.75463 0.27454 0.08337 0.0
H49 H 0.69494 0.24253 0.05825 0.0
C50 C 0.9116 0.29663 0.15017 0.0
N51 N 0.90681 0.32054 0.11339 0.0
N52 N 0.8689 0.29041 0.08883 0.0
C53 C 0.84663 0.24735 0.1111 0.0
C54 C 0.87246 0.25011 0.15126 0.0
C55 C 0.95461 0.31536 0.18177 0.0
H56 H 0.97803 0.35481 0.17918 0.0
H57 H 0.94307 0.30413 0.21867 0.0
H58 H 0.97627 0.29869 0.17111 0.0
O59 O 0.97355 0.39047 0.03746 0.0
O60 O 0.90803 0.36995 -0.00241 0.0
H61 H 0.79178 0.17228 0.11645 0.0
H62 H 0.7698 0.21311 0.10575 0.0
C63 C 0.799 0.20538 0.09729 0.0
H64 H 0.79889 0.19912 0.05901 0.0
H65 H 0.83542 0.2449 0.95539 0.0
O66 O 0.98194 0.42598 0.14354 0.0
C67 C 0.95379 0.39776 0.0024 0.0
Co68 Co 0.55828 0.49572 0.11643 0.0
Co69 Co 0.63737 0.49927 0.05345 0.0
C70 C 0.55015 0.41041 0.06395 0.0
O71 O 0.5312 0.43293 0.08282 0.0
O72 O 0.59574 0.42917 0.06236 0.0
C73 C 0.46667 0.47226 0.15072 0.0
O74 O 0.45315 0.44784 0.11136 0.0
C75 C 0.71486 0.48224 0.03439 0.0
C76 C 0.7618 0.53799 0.98307 0.0
C77 C 0.75844 0.50119 0.01123 0.0
N78 N 0.69336 0.50715 0.02186 0.0
N79 N 0.72127 0.54026 0.99074 0.0
C80 C 0.69528 0.44269 0.07035 0.0
H81 H 0.67755 0.4511 0.09942 0.0
H82 H 0.72413 0.43703 0.08496 0.0
H83 H 0.66784 0.40868 0.05345 0.0
C84 C 0.63834 0.5309 0.1874 0.0
N85 N 0.62004 0.51902 0.14356 0.0
N86 N 0.65527 0.52867 0.11384 0.0
C87 C 0.69735 0.54838 0.13765 0.0
C88 C 0.68804 0.54942 0.18501 0.0
C89 C 0.60851 0.52248 0.23067 0.0
H90 H 0.58604 0.53955 0.22641 0.0
H91 H 0.5836 0.48317 0.23526 0.0
H92 H 0.63166 0.5373 0.26225 0.0
O93 O 0.56476 0.54033 0.06714 0.0
O94 O 0.59281 0.51217 0.0138 0.0
H95 H 0.74756 0.57563 0.07983 0.0
H96 H 0.77485 0.59383 0.13687 0.0
C97 C 0.74583 0.56367 0.1166 0.0
H98 H 0.75277 0.53321 0.11818 0.0
H99 H 0.71359 0.56544 0.97611 0.0
O100 O 0.51121 0.49417 0.16148 0.0
C101 C 0.56268 0.52532 0.02545 0.0
Co102 Co 0.93495 0.55405 0.3823 0.0
Co103 Co 0.87144 0.56963 0.45286 0.0
C104 C 0.86322 0.4748 0.44502 0.0
O105 O 0.90042 0.49274 0.41867 0.0
O106 O 0.84381 0.49921 0.45697 0.0
C107 C 0.9913 0.52039 0.34427 0.0
O108 O 0.97995 0.4987 0.38518 0.0
C109 C 0.77728 0.54941 0.47548 0.0
C110 C 0.78494 0.61247 0.51415 0.0
C111 C 0.75146 0.56977 0.49264 0.0
N112 N 0.82428 0.57884 0.48487 0.0
N113 N 0.8288 0.61628 0.50878 0.0
C114 C 0.75774 0.50535 0.44485 0.0
H115 H 0.7524 0.47431 0.46652 0.0
H116 H 0.78333 0.51092 0.41606 0.0
H117 H 0.72256 0.49603 0.4289 0.0
C118 C 0.87224 0.56667 0.31394 0.0
N119 N 0.891 0.56972 0.35699 0.0
N120 N 0.87174 0.58638 0.3871 0.0
C121 C 0.84193 0.59708 0.36309 0.0
C122 C 0.83976 0.5833 0.3166 0.0
C123 C 0.8815 0.54356 0.27264 0.0
H124 H 0.92083 0.56274 0.26491 0.0
H125 H 0.87047 0.50574 0.28162 0.0
H126 H 0.86151 0.54419 0.24109 0.0
O127 O 0.97762 0.60762 0.42219 0.0
O128 O 0.93522 0.58949 0.48601 0.0
H129 H 0.82875 0.63598 0.41723 0.0
H130 H 0.81145 0.64307 0.35905 0.0
C131 C 0.81281 0.6171 0.38382 0.0
H132 H 0.77513 0.58749 0.38892 0.0
H133 H 0.86185 0.64576 0.51875 0.0
O134 O 0.97428 0.54733 0.33386 0.0
C135 C 0.97441 0.59829 0.46561 0.0
Co136 Co 0.47419 0.4135 0.36863 0.0
Co137 Co 0.50094 0.34757 0.42074 0.0
C138 C 0.5733 0.44674 0.40652 0.0
O139 O 0.54128 0.45639 0.39298 0.0
O140 O 0.56486 0.4037 0.40581 0.0
C141 C 0.41204 0.43762 0.32021 0.0
O142 O 0.3783 0.40111 0.34407 0.0
C143 C 0.54708 0.29236 0.41877 0.0
C144 C 0.52277 0.24718 0.48266 0.0
C145 C 0.55074 0.25687 0.44226 0.0
N146 N 0.51795 0.30303 0.44346 0.0
N147 N 0.50389 0.27648 0.48206 0.0
C148 C 0.56893 0.31404 0.37193 0.0
H149 H 0.54841 0.32881 0.35439 0.0
H150 H 0.5704 0.28696 0.34876 0.0
H151 H 0.60638 0.3442 0.3772 0.0
C152 C 0.44397 0.3335 0.29622 0.0
N153 N 0.46011 0.35392 0.33895 0.0
N154 N 0.46299 0.32251 0.36619 0.0
C155 C 0.44653 0.28056 0.34278 0.0
C156 C 0.43481 0.28622 0.29742 0.0
C157 C 0.43903 0.35891 0.25447 0.0
H158 H 0.46381 0.39838 0.25731 0.0
H159 H 0.44653 0.34528 0.22148 0.0
H160 H 0.40128 0.35145 0.25292 0.0
O161 O 0.43628 0.40096 0.42634 0.0
O162 O 0.47477 0.37376 0.46889 0.0
H163 H 0.4412 0.23532 0.40115 0.0
H164 H 0.41105 0.20346 0.34813 0.0
C165 C 0.44343 0.23579 0.36226 0.0
H166 H 0.47545 0.23368 0.35087 0.0
H167 H 0.48068 0.27755 0.50725 0.0
O168 O 0.45601 0.44968 0.32644 0.0
C169 C 0.45193 0.39671 0.46609 0.0
Co170 Co 0.65714 0.06624 0.37689 0.0
Co171 Co 0.72145 0.15083 0.44075 0.0
C172 C 0.65112 0.15823 0.39021 0.0
O173 O 0.63477 0.11444 0.37929 0.0
O174 O 0.69298 0.18254 0.40762 0.0
C175 C 0.61746 0.04727 0.29171 0.0
O176 O 0.64923 0.09362 0.29039 0.0
C177 C 0.75831 0.23688 0.49432 0.0
C178 C 0.83634 0.26344 0.49126 0.0
C179 C 0.80291 0.27852 0.49621 0.0
N180 N 0.7648 0.19959 0.48395 0.0
N181 N 0.81159 0.21512 0.48593 0.0
C182 C 0.71043 0.23455 0.4953 0.0
H183 H 0.68022 0.19664 0.49525 0.0
H184 H 0.70748 0.25439 0.46485 0.0
H185 H 0.70807 0.25296 0.5274 0.0
C186 C 0.74759 0.09674 0.32553 0.0
N187 N 0.72445 0.0956 0.36569 0.0
N188 N 0.75261 0.13369 0.39138 0.0
C189 C 0.79372 0.16139 0.36642 0.0
C190 C 0.79097 0.13981 0.32315 0.0
C191 C 0.72598 0.06126 0.2862 0.0
H192 H 0.6953 0.02675 0.29898 0.0
H193 H 0.7141 0.07649 0.25773 0.0
H194 H 0.75393 0.0545 0.27081 0.0
O195 O 0.63737 0.03223 0.43594 0.0
O196 O 0.66061 0.09947 0.4735 0.0
H197 H 0.8583 0.21232 0.40126 0.0
H198 H 0.84934 0.23376 0.34644 0.0
C199 C 0.83051 0.21232 0.37815 0.0
H200 H 0.81316 0.22964 0.39658 0.0
H201 H 0.82688 0.19404 0.4775 0.0
O202 O 0.61682 0.02285 0.32693 0.0
C203 C 0.63048 0.05454 0.469 0.0
Co204 Co 0.57002 0.9375 0.90531 0.0
Co205 Co 0.53238 0.8453 0.96265 0.0
C206 C 0.46787 0.84949 0.89781 0.0
O207 O 0.49803 0.89447 0.89365 0.0
O208 O 0.48029 0.82217 0.91808 0.0
C209 C 0.57489 0.98232 0.82276 0.0
O210 O 0.54647 0.93675 0.81198 0.0
C211 C 0.48568 0.74768 -0.00064 0.0
C212 C 0.54134 0.74859 0.0454 0.0
C213 C 0.49737 0.71811 0.02421 0.0
N214 N 0.52171 0.79348 0.00369 0.0
N215 N 0.55414 0.79405 0.0328 0.0
C216 C 0.44315 0.73143 0.96751 0.0
H217 H 0.45498 0.73316 0.93055 0.0
H218 H 0.41444 0.69387 0.97503 0.0
H219 H 0.4277 0.75525 0.97216 0.0
C220 C 0.62964 0.90109 0.86155 0.0
N221 N 0.60379 0.90353 0.89799 0.0
N222 N 0.588 0.86454 0.92389 0.0
C223 C 0.60152 0.83523 0.90333 0.0
C224 C 0.62732 0.85677 0.86251 0.0
C225 C 0.6485 0.9359 0.82156 0.0
H226 H 0.66017 0.97265 0.83459 0.0
H227 H 0.61987 0.92532 0.79475 0.0
H228 H 0.67954 0.93542 0.80459 0.0
O229 O 0.57572 0.96214 0.96865 0.0
O230 O 0.51962 0.89329 -0.0045 0.0
H231 H 0.58977 0.78075 0.95258 0.0
H232 H 0.59447 0.7651 0.89277 0.0
C233 C 0.58038 0.78326 0.91573 0.0
H234 H 0.54051 0.76461 0.91259 0.0
H235 H 0.58694 0.82489 0.04077 0.0
O236 O 0.59351 0.99325 0.86324 0.0
C237 C 0.53857 0.93887 -0.00586 0.0
Co238 Co 0.03986 0.6003 0.86291 0.0
Co239 Co 0.1288 0.66522 0.92139 0.0
C240 C 0.10971 0.57076 0.89356 0.0
O241 O 0.06685 0.55827 0.88112 0.0
O242 O 0.14141 0.61492 0.89728 0.0
C243 C 0.95929 0.52292 0.81678 0.0
O244 O 0.96542 0.49629 0.84784 0.0
C245 C 0.23103 0.72313 0.92165 0.0
C246 C 0.25099 0.76535 0.98724 0.0
C247 C 0.26995 0.75822 0.946 0.0
N248 N 0.19053 0.71007 0.94649 0.0
N249 N 0.20256 0.73512 0.98603 0.0
C250 C 0.23253 0.70418 0.87379 0.0
H251 H 0.19789 0.69097 0.85533 0.0
H252 H 0.26213 0.73242 0.85211 0.0
H253 H 0.23912 0.67358 0.87755 0.0
C254 C 0.09554 0.68335 0.79568 0.0
N255 N 0.08544 0.66255 0.83871 0.0
N256 N 0.11569 0.69365 0.86926 0.0
C257 C 0.14444 0.73595 0.8472 0.0
C258 C 0.13419 0.73055 0.79955 0.0
C259 C 0.07193 0.65695 0.75137 0.0
H260 H 0.0338 0.6485 0.75116 0.0
H261 H 0.07149 0.62216 0.75047 0.0
H262 H 0.09077 0.67869 0.71976 0.0
O263 O 0.01233 0.60706 0.92173 0.0
O264 O 0.07402 0.62605 0.96739 0.0
H265 H 0.18018 0.77821 0.90877 0.0
H266 H 0.18307 0.8124 0.85737 0.0
C267 C 0.18411 0.78024 0.87 0.0
H268 H 0.21973 0.78528 0.85943 0.0
H269 H 0.17784 0.73237 0.0116 0.0
O270 O 0.98758 0.5682 0.81782 0.0
C271 C 0.02861 0.60003 0.95976 0.0
Co272 Co 0.38357 0.45746 0.87708 0.0
Co273 Co 0.29614 0.44263 0.9349 0.0
C274 C 0.38524 0.53432 0.93869 0.0
O275 O 0.40627 0.51519 0.91739 0.0
O276 O 0.33953 0.51305 0.9406 0.0
C277 C 0.48018 0.48818 0.85781 0.0
O278 O 0.4845 0.51296 0.89583 0.0
C279 C 0.22059 0.46284 0.94376 0.0
C280 C 0.16381 0.40514 0.98724 0.0
C281 C 0.17456 0.44547 0.96049 0.0
N282 N 0.23676 0.43386 0.95837 0.0
N283 N 0.20283 0.39934 0.98469 0.0
C284 C 0.24779 0.50555 0.91195 0.0
H285 H 0.27217 0.50027 0.88826 0.0
H286 H 0.22276 0.51202 0.89041 0.0
H287 H 0.26982 0.53808 0.93372 0.0
C288 C 0.31487 0.44425 0.79777 0.0
N289 N 0.32706 0.44266 0.84292 0.0
N290 N 0.28794 0.42508 0.86929 0.0
C291 C 0.2494 0.41227 0.84128 0.0
C292 C 0.26507 0.42559 0.79552 0.0
C293 C 0.35045 0.46727 0.75856 0.0
H294 H 0.38212 0.46258 0.76414 0.0
H295 H 0.36333 0.50647 0.75811 0.0
H296 H 0.33326 0.45178 0.72419 0.0
O297 O 0.36469 0.40289 0.91893 0.0
O298 O 0.33243 0.42076 0.97673 0.0
H299 H 0.19293 0.37213 0.89203 0.0
H300 H 0.17389 0.36216 0.83162 0.0
C301 C 0.19799 0.38974 0.85739 0.0
H302 H 0.18709 0.41746 0.8587 0.0
H303 H 0.20575 0.37132 -0.00017 0.0
O304 O 0.43837 0.46355 0.83961 0.0
C305 C 0.36444 0.41122 0.96242 0.0
Co306 Co 0.05853 0.48901 0.58727 0.0
Co307 Co 0.14895 0.50661 0.53485 0.0
C308 C 0.13349 0.58648 0.55404 0.0
O309 O 0.0895 0.55814 0.56523 0.0
O310 O 0.16318 0.57146 0.55318 0.0
C311 C 0.00322 0.50131 0.65269 0.0
O312 O 0.04522 0.54088 0.65784 0.0
C313 C 0.24787 0.54313 0.55032 0.0
C314 C 0.27507 0.51892 0.49124 0.0
C315 C 0.28798 0.54207 0.53459 0.0
N316 N 0.21212 0.52041 0.51898 0.0
N317 N 0.22868 0.50674 0.48306 0.0
C318 C 0.2427 0.56203 0.59705 0.0
H319 H 0.20466 0.54575 0.60799 0.0
H320 H 0.26299 0.55537 0.62473 0.0
H321 H 0.25752 0.60147 0.59438 0.0
C322 C 0.10566 0.45873 0.66246 0.0
N323 N 0.09984 0.47172 0.61882 0.0
N324 N 0.12859 0.4662 0.5896 0.0
C325 C 0.15184 0.4475 0.61317 0.0
C326 C 0.14001 0.44416 0.66036 0.0
C327 C 0.08078 0.46242 0.70545 0.0
H328 H 0.04117 0.44258 0.69969 0.0
H329 H 0.09215 0.5008 0.71175 0.0
H330 H 0.08954 0.44761 0.73671 0.0
O331 O 0.04219 0.45013 0.53078 0.0
O332 O 0.10011 0.49106 0.48238 0.0
H333 H 0.18614 0.43581 0.55313 0.0
H334 H 0.17913 0.39933 0.6038 0.0
C335 C 0.18747 0.43566 0.59203 0.0
H336 H 0.22426 0.46149 0.60493 0.0
H337 H 0.20789 0.4873 0.45425 0.0
O338 O 0.99939 0.47068 0.62256 0.0
C339 C 0.05572 0.47411 0.49299 0.0
Co340 Co 0.53894 0.59779 0.66859 0.0
Co341 Co 0.55826 0.66813 0.58463 0.0
C342 C 0.46048 0.60319 0.63763 0.0
O343 O 0.47429 0.58912 0.67292 0.0
O344 O 0.49012 0.6302 0.60625 0.0
C345 C 0.57937 0.54697 0.71437 0.0
O346 O 0.61117 0.56117 0.68008 0.0
C347 C 0.52111 0.72149 0.53495 0.0
C348 C 0.58568 0.79314 0.52842 0.0
C349 C 0.53565 0.76942 0.52923 0.0
N350 N 0.56004 0.71701 0.54296 0.0
N351 N 0.59874 0.75954 0.53488 0.0
C352 C 0.4699 0.68173 0.53614 0.0
H353 H 0.45509 0.68235 0.57091 0.0
H354 H 0.44848 0.68832 0.50964 0.0
H355 H 0.4669 0.64638 0.52911 0.0
C356 C 0.60151 0.68557 0.71709 0.0
N357 N 0.58623 0.66298 0.67551 0.0
N358 N 0.59701 0.6947 0.64152 0.0
C359 C 0.62111 0.73924 0.66146 0.0
C360 C 0.6235 0.73472 0.70991 0.0
C361 C 0.5854 0.66014 0.76345 0.0
H362 H 0.60353 0.63895 0.76917 0.0
H363 H 0.54583 0.6346 0.76281 0.0
H364 H 0.59441 0.68569 0.79315 0.0
O365 O 0.53648 0.5674 0.60906 0.0
O366 O 0.56478 0.61768 0.54883 0.0
H367 H 0.66265 0.79171 0.60939 0.0
H368 H 0.65327 0.81681 0.66183 0.0
C369 C 0.63598 0.78589 0.63716 0.0
H370 H 0.60414 0.78516 0.62175 0.0
H371 H 0.63411 0.76651 0.53796 0.0
O372 O 0.54748 0.55939 0.71569 0.0
C373 C 0.54587 0.5751 0.56566 0.0
Co374 Co 0.42375 0.93819 0.62833 0.0
Co375 Co 0.35041 0.88968 0.547 0.0
C376 C 0.42351 0.85991 0.5767 0.0
O377 O 0.44056 0.88914 0.61112 0.0
O378 O 0.38853 0.85616 0.55228 0.0
C379 C 0.50702 0.0121 0.67176 0.0
O380 O 0.5247 0.01656 0.62919 0.0
C381 C 0.27081 0.80046 0.51909 0.0
C382 C 0.22961 0.81757 0.4683 0.0
C383 C 0.22835 0.7804 0.49423 0.0
N384 N 0.29599 0.84777 0.50998 0.0
N385 N 0.27161 0.85801 0.4791 0.0
C386 C 0.28535 0.77539 0.55428 0.0
H387 H 0.30508 0.79992 0.58375 0.0
H388 H 0.25355 0.7424 0.56838 0.0
H389 H 0.3097 0.76481 0.53694 0.0
C390 C 0.33348 0.89533 0.68388 0.0
N391 N 0.35754 0.91044 0.64265 0.0
N392 N 0.32647 0.89529 0.60785 0.0
C393 C 0.2813 0.8722 0.62647 0.0
C394 C 0.28409 0.86994 0.67498 0.0
C395 C 0.35755 0.89873 0.72984 0.0
H396 H 0.38303 0.93719 0.73806 0.0
H397 H 0.37903 0.88044 0.72683 0.0
H398 H 0.33078 0.88217 0.7588 0.0
O399 O 0.44653 0.98118 0.57432 0.0
O400 O 0.39785 0.95064 0.51355 0.0
H401 H 0.24013 0.86518 0.56434 0.0
H402 H 0.20643 0.85025 0.61863 0.0
C403 C 0.23533 0.84799 0.59915 0.0
H404 H 0.22333 0.80923 0.59541 0.0
H405 H 0.28247 0.89271 0.46706 0.0
O406 O 0.46397 0.97841 0.68005 0.0
C407 C 0.43765 0.98304 0.53129 0.0
C408 C 0.55348 0.0557 0.25318 0.0
C409 C 0.57618 0.02814 0.25949 0.0
C410 C 0.52494 0.97278 0.19817 0.0
C411 C 0.5095 0.0059 0.18669 0.0
N412 N 0.52271 0.08705 0.19551 0.0
N413 N 0.58644 0.96158 0.2359 0.0
C414 C 0.52726 0.04958 0.21205 0.0
C415 C 0.56247 0.98652 0.23175 0.0
N416 N 0.55619 0.08733 0.28676 0.0
N417 N 0.50352 0.92844 0.17743 0.0
H418 H 0.61397 0.97066 0.26024 0.0
H419 H 0.58128 0.93402 0.21306 0.0
H420 H 0.47548 0.91746 0.15327 0.0
H421 H 0.51048 0.90129 0.18729 0.0
H422 H 0.53682 0.10543 0.28473 0.0
H423 H 0.57253 0.09045 0.31906 0.0
H424 H 0.54029 0.12109 0.21108 0.0
H425 H 0.50651 0.0865 0.16369 0.0
C426 C 0.97059 0.42831 0.26253 0.0
C427 C 0.98181 0.45532 0.22016 0.0
C428 C 0.02655 0.53023 0.26438 0.0
C429 C 0.00954 0.50264 0.30603 0.0
N430 N 0.99472 0.4292 0.34312 0.0
N431 N 0.03047 0.53075 0.17898 0.0
C432 C 0.99195 0.45283 0.30451 0.0
C433 C 0.0141 0.50601 0.22035 0.0
N434 N 0.93748 0.38016 0.26354 0.0
N435 N 0.052 0.5793 0.26771 0.0
H436 H 0.01999 0.51427 0.14616 0.0
H437 H 0.05618 0.56722 0.17687 0.0
H438 H 0.06292 0.59641 0.30034 0.0
H439 H 0.06194 0.60266 0.23917 0.0
H440 H 0.92536 0.36055 0.29474 0.0
H441 H 0.91869 0.36082 0.23396 0.0
H442 H 0.98432 0.39277 0.34269 0.0
H443 H 0.01344 0.44776 0.3732 0.0
C444 C 0.44824 0.51203 0.21548 0.0
C445 C 0.43143 0.47191 0.18503 0.0
C446 C 0.37069 0.42237 0.24342 0.0
C447 C 0.40055 0.45611 0.27753 0.0
N448 N 0.45573 0.53854 0.29676 0.0
N449 N 0.36478 0.39356 0.16349 0.0
C450 C 0.43433 0.50353 0.26341 0.0
C451 C 0.38796 0.42873 0.19637 0.0
N452 N 0.47879 0.55716 0.19848 0.0
N453 N 0.32683 0.3847 0.2564 0.0
H454 H 0.37209 0.39969 0.12769 0.0
H455 H 0.33738 0.35875 0.17159 0.0
H456 H 0.31328 0.38206 0.29037 0.0
H457 H 0.30211 0.35965 0.23287 0.0
H458 H 0.49129 0.58846 0.21827 0.0
H459 H 0.48817 0.56293 0.16287 0.0
H460 H 0.48433 0.57311 0.29003 0.0
H461 H 0.44442 0.53177 0.33184 0.0
C462 C 0.60397 0.03478 0.75242 0.0
C463 C 0.574 0.01882 0.79269 0.0
C464 C 0.51656 0.03645 0.75516 0.0
C465 C 0.53889 0.03765 0.71203 0.0
N466 N 0.61566 0.06785 0.67346 0.0
N467 N 0.50873 0.01535 0.83785 0.0
C468 C 0.58698 0.04708 0.71183 0.0
C469 C 0.53338 0.02503 0.79635 0.0
N470 N 0.64672 0.03516 0.75255 0.0
N471 N 0.47838 0.04415 0.75548 0.0
H472 H 0.52157 0.00795 0.86852 0.0
H473 H 0.47556 0.01358 0.84165 0.0
H474 H 0.46682 0.05278 0.72458 0.0
H475 H 0.46103 0.04573 0.78586 0.0
H476 H 0.66799 0.04113 0.72276 0.0
H477 H 0.66044 0.02905 0.78333 0.0
H478 H 0.65182 0.07723 0.67159 0.0
H479 H 0.6043 0.08085 0.64568 0.0
C480 C 0.95553 0.53211 0.69337 0.0
C481 C 0.96274 0.49273 0.68396 0.0
C482 C 0.9247 0.45592 0.75885 0.0
C483 C 0.9328 0.50154 0.77247 0.0
N484 N 0.92417 0.568 0.74826 0.0
N485 N 0.93826 0.40933 0.69969 0.0
C486 C 0.93603 0.53389 0.73743 0.0
C487 C 0.94076 0.45124 0.71351 0.0
N488 N 0.97144 0.56941 0.66221 0.0
N489 N 0.9026 0.41842 0.78965 0.0
H490 H 0.94563 0.4035 0.66544 0.0
H491 H 0.92748 0.37966 0.72154 0.0
H492 H 0.88913 0.42255 0.82173 0.0
H493 H 0.89432 0.38332 0.78243 0.0
H494 H 0.97184 0.60142 0.6693 0.0
H495 H 0.98618 0.56879 0.62966 0.0
H496 H 0.92369 0.59185 0.72377 0.0
H497 H 0.91084 0.56898 0.7816 0.0
C498 C 0.54312 0.47163 0.75746 0.0
C499 C 0.58125 0.51956 0.75438 0.0
C500 C 0.56958 0.53477 0.83549 0.0
C501 C 0.52325 0.49207 0.83339 0.0
N502 N 0.48071 0.40974 0.80682 0.0
N503 N 0.64581 0.58559 0.79424 0.0
C504 C 0.5153 0.45663 0.79929 0.0
C505 C 0.60016 0.54675 0.79549 0.0
N506 N 0.53074 0.44309 0.71854 0.0
N507 N 0.58328 0.56457 0.87362 0.0
H508 H 0.66671 0.59419 0.76362 0.0
H509 H 0.66367 0.60659 0.82339 0.0
H510 H 0.56581 0.55424 0.90597 0.0
H511 H 0.61334 0.59913 0.87383 0.0
H512 H 0.49984 0.40917 0.71634 0.0
H513 H 0.55173 0.45498 0.68794 0.0
H514 H 0.47462 0.3818 0.7841 0.0
H515 H 0.46155 0.39868 0.83851 0.0
C516 C 0.42138 0.93984 0.01761 0.0
C517 C 0.43082 0.98306 -0.00497 0.0
C518 C 0.51361 0.00152 0.97828 0.0
C519 C 0.50556 0.9593 0.00277 0.0
N520 N 0.4543 0.89581 0.05683 0.0
N521 N 0.47968 0.04052 0.93479 0.0
C522 C 0.45973 0.93002 0.02498 0.0
C523 C 0.47454 0.00911 0.9694 0.0
N524 N 0.37506 0.90758 0.03073 0.0
N525 N 0.55884 0.03585 0.96418 0.0
H526 H 0.45123 0.04407 0.92178 0.0
H527 H 0.45123 0.04407 0.92178 0.0
H528 H 0.59009 0.03866 0.97841 0.0
H529 H 0.56496 0.0652 0.94341 0.0
H530 H 0.36419 0.8731 0.04321 0.0
H531 H 0.34659 0.91367 0.02364 0.0
H532 H 0.42317 0.87577 0.07688 0.0
H533 H 0.48333 0.89227 0.06808 0.0
C534 C 0.94845 0.46404 0.95799 0.0
C535 C 0.97621 0.44961 0.98531 0.0
C536 C 0.02817 0.53435 0.00974 0.0
C537 C 0.00298 0.54915 0.97961 0.0
N538 N 0.92595 0.52484 0.94433 0.0
N539 N 0.05289 0.47575 0.02345 0.0
C540 C 0.95904 0.51294 0.95937 0.0
C541 C 0.0191 0.48621 0.00732 0.0
N542 N 0.91414 0.43183 0.92804 0.0
N543 N 0.05873 0.56561 0.04275 0.0
H544 H 0.05228 0.44396 0.01434 0.0
H545 H 0.08476 0.50085 0.03986 0.0
H546 H 0.06231 0.59944 0.048 0.0
H547 H 0.07506 0.55568 0.06859 0.0
H548 H 0.8936 0.44034 0.90604 0.0
H549 H 0.91064 0.39836 0.92082 0.0
H550 H 0.89138 0.49958 0.93303 0.0
H551 H 0.93084 0.5592 0.94957 0.0
C552 C 0.44886 0.42489 0.96833 0.0
C553 C 0.41305 0.43418 0.98657 0.0
C554 C 0.47725 0.50984 0.0206 0.0
C555 C 0.51336 0.50083 0.00238 0.0
N556 N 0.53157 0.45868 0.9426 0.0
N557 N 0.3949 0.4742 0.04831 0.0
C558 C 0.49877 0.46047 0.97205 0.0
C559 C 0.42756 0.47361 0.01779 0.0
N560 N 0.4349 0.38103 0.9486 0.0
N561 N 0.49046 0.554 0.03915 0.0
H562 H 0.36013 0.44479 0.05247 0.0
H563 H 0.40457 0.4999 0.07476 0.0
H564 H 0.52591 0.58281 0.0371 0.0
H565 H 0.46572 0.56358 0.05119 0.0
H566 H 0.45908 0.37037 0.93741 0.0
H567 H 0.39886 0.35327 0.94857 0.0
H568 H 0.5221 0.43254 0.91668 0.0
H569 H 0.56684 0.48718 0.93874 0.0
C570 C 0.98977 0.49483 0.50595 0.0
C571 C 0.03227 0.5038 0.48125 0.0
C572 C 0.04351 0.58237 0.45648 0.0
C573 C 0.00139 0.57341 0.48185 0.0
N574 N 0.94867 0.52994 0.54676 0.0
N575 N 0.08564 0.54738 0.41696 0.0
C576 C 0.9787 0.53228 0.51147 0.0
C577 C 0.05598 0.54562 0.45246 0.0
N578 N 0.95791 0.44932 0.52131 0.0
N579 N 0.0723 0.62681 0.43708 0.0
H580 H 0.09017 0.51825 0.40877 0.0
H581 H 0.10012 0.5746 0.39171 0.0
H582 H 0.06565 0.65516 0.44233 0.0
H583 H 0.1052 0.63699 0.42069 0.0
H584 H 0.92584 0.44026 0.5387 0.0
H585 H 0.96058 0.41948 0.51124 0.0
H586 H 0.9344 0.50245 0.57175 0.0
H587 H 0.94455 0.55911 0.55582 0.0
C588 C 0.49864 0.44483 0.53674 0.0
C589 C 0.46385 0.43583 0.5017 0.0
C590 C 0.48343 0.52028 0.50689 0.0
C591 C 0.52394 0.53092 0.53591 0.0
N592 N 0.57251 0.50373 0.57501 0.0
N593 N 0.40783 0.45822 0.47262 0.0
C594 C 0.53208 0.4931 0.54981 0.0
C595 C 0.45174 0.47177 0.49223 0.0
N596 N 0.4973 0.40687 0.55971 0.0
N597 N 0.47508 0.55623 0.49316 0.0
H598 H 0.38257 0.42204 0.46624 0.0
H599 H 0.39393 0.48109 0.4682 0.0
H600 H 0.49602 0.59189 0.50375 0.0
H601 H 0.44943 0.55168 0.46822 0.0
H602 H 0.519 0.41078 0.58849 0.0
H603 H 0.46998 0.37141 0.55351 0.0
H604 H 0.5821 0.47828 0.58413 0.0
H605 H 0.5989 0.5391 0.58299 0.0
C606 C 0.54014 0.99424 0.4654 0.0
C607 C 0.57947 0.03479 0.48787 0.0
C608 C 0.52037 0.05374 0.52344 0.0
C609 C 0.48197 0.01249 0.50192 0.0
N610 N 0.45854 0.95985 0.4353 0.0
N611 N 0.60428 0.09581 0.548 0.0
C612 C 0.49301 0.98825 0.46707 0.0
C613 C 0.56888 0.06311 0.51916 0.0
N614 N 0.54667 0.95915 0.44568 0.0
N615 N 0.50942 0.08319 0.54866 0.0
H616 H 0.63745 0.09744 0.5518 0.0
H617 H 0.59923 0.1171 0.5723 0.0
H618 H 0.47385 0.07603 0.55139 0.0
H619 H 0.53504 0.11614 0.56283 0.0
H620 H 0.5196 0.9294 0.42817 0.0
H621 H 0.57675 0.95586 0.45307 0.0
H622 H 0.46549 0.94391 0.4067 0.0
H623 H 0.42505 0.95791 0.43413 0.0
C624 C 0.37832 0.21485 0.24785 0.0
C625 C 0.42605 0.25233 0.25769 0.0
C626 C 0.45818 0.21796 0.20053 0.0
C627 C 0.41087 0.17783 0.19417 0.0
N628 N 0.32616 0.13582 0.21339 0.0
N629 N 0.51205 0.28844 0.24649 0.0
C630 C 0.37093 0.17578 0.21815 0.0
C631 C 0.46612 0.25373 0.2346 0.0
N632 N 0.34015 0.21713 0.26655 0.0
N633 N 0.49549 0.22254 0.17317 0.0
H634 H 0.51948 0.317 0.26898 0.0
H635 H 0.54287 0.28766 0.2362 0.0
H636 H 0.4921 0.19628 0.14944 0.0
H637 H 0.52921 0.25378 0.17154 0.0
H638 H 0.30426 0.1936 0.25772 0.0
H639 H 0.34467 0.24521 0.28842 0.0
H640 H 0.29618 0.12945 0.23328 0.0
H641 H 0.31957 0.10712 0.19139 0.0
C642 C 0.8478 0.1626 0.25333 0.0
C643 C 0.81161 0.1668 0.27823 0.0
C644 C 0.81859 0.22804 0.22212 0.0
C645 C 0.8518 0.22103 0.19491 0.0
N646 N 0.89463 0.17847 0.18117 0.0
N647 N 0.75489 0.19582 0.2802 0.0
C648 C 0.86547 0.18733 0.20955 0.0
C649 C 0.79471 0.19718 0.26076 0.0
N650 N 0.86589 0.13578 0.27209 0.0
N651 N 0.81105 0.26546 0.21229 0.0
H652 H 0.7361 0.17448 0.30895 0.0
H653 H 0.73759 0.21261 0.26507 0.0
H654 H 0.82728 0.28915 0.18424 0.0
H655 H 0.79216 0.27595 0.23464 0.0
H656 H 0.89566 0.13499 0.2584 0.0
H657 H 0.85285 0.1165 0.30341 0.0
H658 H 0.90225 0.15102 0.18723 0.0
H659 H 0.90877 0.19673 0.14953 0.0
C660 C 0.80113 0.61373 0.25969 0.0
C661 C 0.80029 0.57438 0.28324 0.0
C662 C 0.72351 0.51842 0.24488 0.0
C663 C 0.72298 0.55807 0.22345 0.0
N664 N 0.75603 0.6437 0.21695 0.0
N665 N 0.75541 0.49065 0.30664 0.0
C666 C 0.7602 0.60587 0.23305 0.0
C667 C 0.75989 0.52711 0.27835 0.0
N668 N 0.84168 0.65833 0.26171 0.0
N669 N 0.69061 0.47235 0.23174 0.0
H670 H 0.78139 0.49498 0.33115 0.0
H671 H 0.72401 0.45706 0.30861 0.0
H672 H 0.66282 0.46409 0.20795 0.0
H673 H 0.69304 0.44244 0.24173 0.0
H674 H 0.84665 0.6875 0.24147 0.0
H675 H 0.87216 0.66528 0.28104 0.0
H676 H 0.77952 0.6794 0.22632 0.0
H677 H 0.72641 0.63889 0.19737 0.0
C678 C 0.58647 0.80499 0.79187 0.0
C679 C 0.62853 0.82973 0.82025 0.0
C680 C 0.66995 0.79856 0.77091 0.0
C681 C 0.62638 0.76999 0.74588 0.0
N682 N 0.54162 0.74244 0.73449 0.0
N683 N 0.70932 0.84856 0.83928 0.0
C684 C 0.58433 0.77254 0.75663 0.0
C685 C 0.67015 0.82633 0.81026 0.0
N686 N 0.54861 0.81287 0.7982 0.0
N687 N 0.7112 0.79952 0.75653 0.0
H688 H 0.71113 0.87041 0.86731 0.0
H689 H 0.73886 0.84342 0.8374 0.0
H690 H 0.71187 0.77911 0.72827 0.0
H691 H 0.74529 0.82293 0.77012 0.0
H692 H 0.51991 0.80113 0.77483 0.0
H693 H 0.54713 0.83428 0.82492 0.0
H694 H 0.50834 0.73752 0.74528 0.0
H695 H 0.53843 0.71965 0.70692 0.0
C696 C 0.20296 0.75297 0.74244 0.0
C697 C 0.16811 0.76301 0.76223 0.0
C698 C 0.21083 0.84418 0.72697 0.0
C699 C 0.2447 0.83356 0.70605 0.0
N700 N 0.26846 0.77512 0.68699 0.0
N701 N 0.13371 0.81431 0.76727 0.0
C702 C 0.23935 0.78711 0.71175 0.0
C703 C 0.17054 0.80754 0.75254 0.0
N704 N 0.20279 0.7117 0.75462 0.0
N705 N 0.218 0.88979 0.72338 0.0
H706 H 0.10387 0.78804 0.78585 0.0
H707 H 0.13053 0.84392 0.75796 0.0
H708 H 0.24666 0.91707 0.7044 0.0
H709 H 0.19778 0.90169 0.74166 0.0
H710 H 0.23113 0.70562 0.7472 0.0
H711 H 0.17563 0.68437 0.77475 0.0
H712 H 0.26209 0.74005 0.68428 0.0
H713 H 0.29739 0.7996 0.66636 0.0
C714 C 0.16546 0.39368 0.70593 0.0
C715 C 0.16875 0.43899 0.69888 0.0
C716 C 0.23647 0.47619 0.75463 0.0
C717 C 0.23592 0.43177 0.75825 0.0
N718 N 0.20426 0.34977 0.73329 0.0
N719 N 0.21119 0.52501 0.71224 0.0
C720 C 0.20161 0.39094 0.73264 0.0
C721 C 0.20514 0.48066 0.72225 0.0
N722 N 0.12694 0.35309 0.68787 0.0
N723 N 0.26586 0.51384 0.78331 0.0
H724 H 0.18798 0.53014 0.69069 0.0
H725 H 0.24116 0.55724 0.72284 0.0
H726 H 0.29139 0.5134 0.80555 0.0
H727 H 0.26289 0.54449 0.78733 0.0
H728 H 0.11962 0.3183 0.69525 0.0
H729 H 0.09976 0.35406 0.6686 0.0
H730 H 0.18346 0.3201 0.71193 0.0
H731 H 0.23035 0.34682 0.75253 0.0
C732 C 0.50623 0.31652 0.96567 0.0
C733 C 0.45965 0.28304 0.9825 0.0
C734 C 0.472 0.33231 0.05205 0.0
C735 C 0.51905 0.36651 0.03565 0.0
N736 N 0.5738 0.39767 0.96833 0.0
N737 N 0.39199 0.26797 0.03102 0.0
C738 C 0.53419 0.36075 0.98985 0.0
C739 C 0.4403 0.29449 0.02177 0.0
N740 N 0.52441 0.30485 0.9276 0.0
N741 N 0.45871 0.33342 0.09756 0.0
H742 H 0.36827 0.24021 0.00891 0.0
H743 H 0.37522 0.27691 0.05742 0.0
H744 H 0.48211 0.35785 0.1224 0.0
H745 H 0.42641 0.30651 0.11214 0.0
H746 H 0.5606 0.32429 0.91746 0.0
H747 H 0.50324 0.27396 0.90762 0.0
H748 H 0.58339 0.39606 0.93363 0.0
H749 H 0.59369 0.43223 0.98211 0.0
C750 C 0.6401 0.18293 0.9661 0.0
C751 C 0.67299 0.17467 0.99159 0.0
C752 C 0.61085 0.12854 0.05039 0.0
C753 C 0.57652 0.13459 0.02396 0.0
N754 N 0.55659 0.15414 0.9476 0.0
N755 N 0.68577 0.12714 0.04863 0.0
C756 C 0.59049 0.15785 0.97907 0.0
C757 C 0.65675 0.14279 0.03033 0.0
N758 N 0.65637 0.21568 0.9302 0.0
N759 N 0.60172 0.11313 0.09596 0.0
H760 H 0.71922 0.13657 0.03377 0.0
H761 H 0.67429 0.10075 0.07465 0.0
H762 H 0.57103 0.10721 0.11403 0.0
H763 H 0.6274 0.11228 0.1177 0.0
H764 H 0.63508 0.22776 0.91436 0.0
H765 H 0.69207 0.23284 0.91824 0.0
H766 H 0.5651 0.16679 0.91317 0.0
H767 H 0.51954 0.13334 0.95334 0.0
C768 C 0.81076 0.41928 0.0054 0.0
C769 C 0.83615 0.43135 0.04905 0.0
C770 C 0.82632 0.50217 0.05487 0.0
C771 C 0.79336 0.48431 0.0169 0.0
N772 N 0.75221 0.42514 0.95654 0.0
N773 N 0.86614 0.48356 0.11684 0.0
C774 C 0.78545 0.44296 0.99199 0.0
C775 C 0.84423 0.47318 0.07387 0.0
N776 N 0.81208 0.38642 0.97575 0.0
N777 N 0.83988 0.5466 0.07293 0.0
H778 H 0.87874 0.46268 0.13243 0.0
H779 H 0.8683 0.51052 0.13883 0.0
H780 H 0.82738 0.5684 0.05912 0.0
H781 H 0.8668 0.56362 0.09813 0.0
H782 H 0.7985 0.38026 0.94164 0.0
H783 H 0.83134 0.36906 0.98273 0.0
H784 H 0.73959 0.39123 0.94166 0.0
H785 H 0.73515 0.44323 0.94377 0.0
C786 C 0.68604 0.56483 0.44228 0.0
C787 C 0.69931 0.54981 0.48347 0.0
C788 C 0.62436 0.47201 0.48016 0.0
C789 C 0.6158 0.48344 0.43376 0.0
N790 N 0.64029 0.54051 0.36977 0.0
N791 N 0.68047 0.49273 0.54537 0.0
C792 C 0.64653 0.53025 0.41495 0.0
C793 C 0.66747 0.50479 0.50403 0.0
N794 N 0.71215 0.61202 0.42899 0.0
N795 N 0.5912 0.43022 0.50178 0.0
H796 H 0.71027 0.51784 0.56471 0.0
H797 H 0.66344 0.45825 0.55975 0.0
H798 H 0.55865 0.40526 0.48685 0.0
H799 H 0.59375 0.42131 0.53635 0.0
H800 H 0.70249 0.62657 0.40126 0.0
H801 H 0.74109 0.63751 0.44891 0.0
H802 H 0.66467 0.57209 0.35237 0.0
H803 H 0.61287 0.51568 0.34805 0.0
C804 C 0.57004 0.15397 0.40553 0.0
C805 C 0.61957 0.18004 0.39074 0.0
C806 C 0.6235 0.25568 0.41121 0.0
C807 C 0.57408 0.23029 0.42417 0.0
N808 N 0.49678 0.15727 0.41647 0.0
N809 N 0.68399 0.25541 0.36066 0.0
C810 C 0.54613 0.18004 0.4159 0.0
C811 C 0.64298 0.23087 0.38704 0.0
N812 N 0.54582 0.10521 0.41236 0.0
N813 N 0.65263 0.30271 0.42396 0.0
H814 H 0.69796 0.23768 0.341 0.0
H815 H 0.70035 0.29235 0.35431 0.0
H816 H 0.64034 0.32147 0.44429 0.0
H817 H 0.68993 0.32116 0.41846 0.0
H818 H 0.51209 0.08704 0.42869 0.0
H819 H 0.55898 0.08242 0.40458 0.0
H820 H 0.47488 0.12168 0.40562 0.0
H821 H 0.47778 0.17526 0.42249 0.0
C822 C 0.83417 0.40963 0.50711 0.0
C823 C 0.84058 0.42339 0.45885 0.0
C824 C 0.81118 0.33964 0.43585 0.0
C825 C 0.81237 0.32757 0.48385 0.0
N826 N 0.82672 0.3508 0.56522 0.0
N827 N 0.83323 0.40166 0.3768 0.0
C828 C 0.82386 0.36239 0.51955 0.0
C829 C 0.82859 0.38837 0.42313 0.0
N830 N 0.8383 0.44154 0.54117 0.0
N831 N 0.79156 0.30429 0.4025 0.0
H832 H 0.8386 0.43495 0.36566 0.0
H833 H 0.83345 0.38043 0.34922 0.0
H834 H 0.77514 0.26791 0.41039 0.0
H835 H 0.78669 0.31011 0.3675 0.0
H836 H 0.82864 0.43184 0.57615 0.0
H837 H 0.84839 0.47723 0.53443 0.0
H838 H 0.84102 0.37604 0.59223 0.0
H839 H 0.81766 0.3161 0.57573 0.0
C840 C 0.4607 0.61493 0.94572 0.0
C841 C 0.41507 0.58026 0.96453 0.0
C842 C 0.42933 0.63353 0.0321 0.0
C843 C 0.47574 0.6661 0.01408 0.0
N844 N 0.54169 0.67779 0.96421 0.0
N845 N 0.36285 0.5516 0.03368 0.0
C846 C 0.49356 0.65318 0.97458 0.0
C847 C 0.40111 0.58795 0.0101 0.0
N848 N 0.47172 0.61354 0.89947 0.0
N849 N 0.41175 0.64681 0.06946 0.0
H850 H 0.34273 0.51649 0.02123 0.0
H851 H 0.35459 0.55475 0.06849 0.0
H852 H 0.43291 0.67884 0.08787 0.0
H853 H 0.37579 0.62736 0.08038 0.0
H854 H 0.50324 0.64055 0.88375 0.0
H855 H 0.44692 0.5892 0.87543 0.0
H856 H 0.55675 0.66745 0.93727 0.0
H857 H 0.56694 0.70436 0.98631 0.0
C858 C 0.34244 0.75639 0.91638 0.0
C859 C 0.32069 0.78396 0.92875 0.0
C860 C 0.39255 0.85716 0.89949 0.0
C861 C 0.41484 0.8292 0.89053 0.0
N862 N 0.40147 0.75182 0.86668 0.0
N863 N 0.31924 0.85808 0.92037 0.0
C864 C 0.38611 0.77851 0.89061 0.0
C865 C 0.34405 0.83381 0.91694 0.0
N866 N 0.3228 0.70975 0.93122 0.0
N867 N 0.41723 0.90548 0.89063 0.0
H868 H 0.2836 0.842 0.93214 0.0
H869 H 0.33248 0.89322 0.90865 0.0
H870 H 0.44754 0.92137 0.86886 0.0
H871 H 0.40667 0.92933 0.90287 0.0
H872 H 0.33964 0.68952 0.92605 0.0
H873 H 0.29215 0.69288 0.95263 0.0
H874 H 0.38038 0.71455 0.86279 0.0
H875 H 0.43338 0.76818 0.8469 0.0
C876 C 0.10622 0.49017 0.89079 0.0
C877 C 0.12058 0.53458 0.91402 0.0
C878 C 0.16104 0.51359 0.97507 0.0
C879 C 0.14601 0.46924 0.95227 0.0
N880 N 0.09589 0.40987 0.89534 0.0
N881 N 0.14989 0.58154 0.98606 0.0
C882 C 0.1153 0.45558 0.91262 0.0
C883 C 0.14469 0.54438 0.95836 0.0
N884 N 0.08712 0.4824 0.84656 0.0
N885 N 0.19229 0.52696 0.01217 0.0
H886 H 0.13628 0.60381 0.97762 0.0
H887 H 0.16261 0.58695 0.02045 0.0
H888 H 0.20172 0.50357 0.02805 0.0
H889 H 0.21085 0.5619 0.0255 0.0
H890 H 0.08036 0.45281 0.82604 0.0
H891 H 0.0821 0.50769 0.82836 0.0
H892 H 0.0699 0.39603 0.86898 0.0
H893 H 0.10262 0.3843 0.91065 0.0
C894 C 0.38979 0.61116 0.62065 0.0
C895 C 0.40902 0.58053 0.62553 0.0
C896 C 0.34402 0.52031 0.57626 0.0
C897 C 0.33154 0.55547 0.56342 0.0
N898 N 0.34998 0.63826 0.56723 0.0
N899 N 0.40647 0.50609 0.60582 0.0
C900 C 0.35628 0.602 0.58419 0.0
C901 C 0.38635 0.53479 0.60324 0.0
N902 N 0.40561 0.65034 0.64931 0.0
N903 N 0.31497 0.47297 0.56438 0.0
H904 H 0.43599 0.51408 0.6271 0.0
H905 H 0.39531 0.47565 0.58488 0.0
H906 H 0.28303 0.46017 0.54553 0.0
H907 H 0.32019 0.44556 0.57726 0.0
H908 H 0.39052 0.67251 0.64933 0.0
H909 H 0.43099 0.65771 0.67573 0.0
H910 H 0.3701 0.67381 0.57879 0.0
H911 H 0.32813 0.6337 0.53829 0.0
C912 C 0.4649 0.83532 0.51567 0.0
C913 C 0.44777 0.83263 0.56263 0.0
C914 C 0.48726 0.78785 0.58708 0.0
C915 C 0.50522 0.79115 0.54041 0.0
N916 N 0.51343 0.81911 0.4607 0.0
N917 N 0.43001 0.79396 0.63834 0.0
C918 C 0.494 0.81454 0.50464 0.0
C919 C 0.45548 0.80545 0.59701 0.0
N920 N 0.45281 0.85702 0.48129 0.0
N921 N 0.5023 0.76997 0.62271 0.0
H922 H 0.40495 0.80469 0.64612 0.0
H923 H 0.42956 0.7695 0.66265 0.0
H924 H 0.5244 0.75531 0.61768 0.0
H925 H 0.49584 0.77293 0.65812 0.0
H926 H 0.45493 0.8514 0.44555 0.0
H927 H 0.43882 0.87945 0.48791 0.0
H928 H 0.51207 0.84068 0.43419 0.0
H929 H 0.53339 0.8029 0.45106 0.0
C930 C 0.15541 0.71379 0.53241 0.0
C931 C 0.19081 0.72898 0.49654 0.0
C932 C 0.17711 0.64737 0.48998 0.0
C933 C 0.1493 0.63451 0.53252 0.0
N934 N 0.11441 0.65737 0.59594 0.0
N935 N 0.23535 0.7114 0.43981 0.0
C936 C 0.13807 0.66783 0.55372 0.0
C937 C 0.20093 0.6958 0.47439 0.0
N938 N 0.13958 0.74406 0.54673 0.0
N939 N 0.17985 0.61327 0.4635 0.0
H940 H 0.25078 0.74589 0.42525 0.0
H941 H 0.25029 0.69125 0.42726 0.0
H942 H 0.1622 0.57692 0.472 0.0
H943 H 0.19514 0.61988 0.43002 0.0
H944 H 0.11101 0.734 0.57017 0.0
H945 H 0.15222 0.77785 0.53134 0.0
H946 H 0.10976 0.68227 0.61533 0.0
H947 H 0.10317 0.62521 0.61394 0.0
loop_
_geom_bond_atom_site_label_1
_geom_bond_atom_site_label_2
_geom_bond_distance
_geom_bond_site_symmetry_2
_ccdc_geom_bond_type
Co0 O3 1.970 . S
Co0 N17 1.989 . S
Co0 O25 1.967 . S
Co0 O32 1.920 . S
Co1 O4 1.966 . S
Co1 N10 2.022 1_554 S
Co1 N18 1.993 . S
Co1 O26 1.941 1_554 S
C2 O3 1.258 . S
C2 O4 1.263 . S
O3 Co0 1.970 . S
O3 C2 1.258 . S
O4 Co1 1.966 . S
O4 C2 1.263 . S
C5 O6 1.235 . S
C5 O32 1.289 . S
O6 C5 1.235 . S
C7 C9 1.400 . S
C7 N10 1.351 . S
C7 C12 1.501 . S
C8 C9 1.387 . S
C8 N11 1.341 . S
C9 C7 1.400 . S
C9 C8 1.387 . S
N10 Co1 2.022 1_556 S
N10 C7 1.351 . S
N10 N11 1.365 . S
N11 C8 1.341 . S
N11 N10 1.365 . S
N11 H31 0.862 . S
C12 C7 1.501 . S
C12 H13 0.961 . S
C12 H14 0.961 . S
C12 H15 0.960 . S
H13 C12 0.961 . S
H14 C12 0.961 . S
H15 C12 0.960 . S
C16 N17 1.342 . S
C16 C20 1.401 . S
C16 C21 1.499 . S
N17 Co0 1.989 . S
N17 C16 1.342 . S
N17 N18 1.388 . S
N18 Co1 1.993 . S
N18 N17 1.388 . S
N18 C19 1.346 . S
C19 N18 1.346 . S
C19 C20 1.396 . S
C19 C29 1.510 . S
C20 C16 1.401 . S
C20 C19 1.396 . S
C21 C16 1.499 . S
C21 H22 0.959 . S
C21 H23 0.960 . S
C21 H24 0.961 . S
H22 C21 0.959 . S
H23 C21 0.960 . S
H24 C21 0.961 . S
O25 Co0 1.967 . S
O25 C33 1.258 . S
O26 Co1 1.941 1_556 S
O26 C33 1.266 1_556 S
H27 C29 0.959 . S
H28 C29 0.961 . S
C29 C19 1.510 . S
C29 H27 0.959 . S
C29 H28 0.961 . S
C29 H30 0.960 . S
H30 C29 0.960 . S
H31 N11 0.862 . S
O32 Co0 1.920 . S
O32 C5 1.289 . S
C33 O25 1.258 . S
C33 O26 1.266 1_554 S
Co34 O37 1.970 . S
Co34 N51 1.989 . S
Co34 O59 1.967 . S
Co34 O66 1.920 . S
Co35 O38 1.966 . S
Co35 N44 2.022 1_554 S
Co35 N52 1.993 . S
Co35 O60 1.941 1_554 S
C36 O37 1.258 . S
C36 O38 1.263 . S
O37 Co34 1.970 . S
O37 C36 1.258 . S
O38 Co35 1.966 . S
O38 C36 1.263 . S
C39 O40 1.235 . S
C39 O66 1.289 . S
O40 C39 1.235 . S
C41 C43 1.400 . S
C41 N44 1.351 . S
C41 C46 1.501 . S
C42 C43 1.387 . S
C42 N45 1.341 . S
C43 C41 1.400 . S
C43 C42 1.387 . S
N44 Co35 2.022 1_556 S
N44 C41 1.351 . S
N44 N45 1.365 . S
N45 C42 1.341 . S
N45 N44 1.365 . S
N45 H65 0.862 . S
C46 C41 1.501 . S
C46 H47 0.961 . S
C46 H48 0.961 . S
C46 H49 0.960 . S
H47 C46 0.961 . S
H48 C46 0.961 . S
H49 C46 0.960 . S
C50 N51 1.342 . S
C50 C54 1.401 . S
C50 C55 1.499 . S
N51 Co34 1.989 . S
N51 C50 1.342 . S
N51 N52 1.388 . S
N52 Co35 1.993 . S
N52 N51 1.388 . S
N52 C53 1.346 . S
C53 N52 1.346 . S
C53 C54 1.396 . S
C53 C63 1.510 . S
C54 C50 1.401 . S
C54 C53 1.396 . S
C55 C50 1.499 . S
C55 H56 0.959 . S
C55 H57 0.960 . S
C55 H58 0.961 . S
H56 C55 0.959 . S
H57 C55 0.960 . S
H58 C55 0.961 . S
O59 Co34 1.967 . S
O59 C67 1.258 . S
O60 Co35 1.941 1_556 S
O60 C67 1.266 1_556 S
H61 C63 0.959 . S
H62 C63 0.961 . S
C63 C53 1.510 . S
C63 H61 0.959 . S
C63 H62 0.961 . S
C63 H64 0.960 . S
H64 C63 0.960 . S
H65 N45 0.862 . S
O66 Co34 1.920 . S
O66 C39 1.289 . S
C67 O59 1.258 . S
C67 O60 1.266 1_554 S
Co68 O71 1.970 . S
Co68 N85 1.989 . S
Co68 O93 1.967 . S
Co68 O100 1.920 . S
Co69 O72 1.966 . S
Co69 N78 2.022 1_554 S
Co69 N86 1.993 . S
Co69 O94 1.941 1_554 S
C70 O71 1.258 . S
C70 O72 1.263 . S
O71 Co68 1.970 . S
O71 C70 1.258 . S
O72 Co69 1.966 . S
O72 C70 1.263 . S
C73 O74 1.235 . S
C73 O100 1.289 . S
O74 C73 1.235 . S
C75 C77 1.400 . S
C75 N78 1.351 . S
C75 C80 1.501 . S
C76 C77 1.387 . S
C76 N79 1.341 . S
C77 C75 1.400 . S
C77 C76 1.387 . S
N78 Co69 2.022 1_556 S
N78 C75 1.351 . S
N78 N79 1.365 . S
N79 C76 1.341 . S
N79 N78 1.365 . S
N79 H99 0.862 . S
C80 C75 1.501 . S
C80 H81 0.961 . S
C80 H82 0.961 . S
C80 H83 0.960 . S
H81 C80 0.961 . S
H82 C80 0.961 . S
H83 C80 0.960 . S
C84 N85 1.342 . S
C84 C88 1.401 . S
C84 C89 1.499 . S
N85 Co68 1.989 . S
N85 C84 1.342 . S
N85 N86 1.388 . S
N86 Co69 1.993 . S
N86 N85 1.388 . S
N86 C87 1.346 . S
C87 N86 1.346 . S
C87 C88 1.396 . S
C87 C97 1.510 . S
C88 C84 1.401 . S
C88 C87 1.396 . S
C89 C84 1.499 . S
C89 H90 0.959 . S
C89 H91 0.960 . S
C89 H92 0.961 . S
H90 C89 0.959 . S
H91 C89 0.960 . S
H92 C89 0.961 . S
O93 Co68 1.967 . S
O93 C101 1.258 . S
O94 Co69 1.941 1_556 S
O94 C101 1.266 1_556 S
H95 C97 0.959 . S
H96 C97 0.961 . S
C97 C87 1.510 . S
C97 H95 0.959 . S
C97 H96 0.961 . S
C97 H98 0.960 . S
H98 C97 0.960 . S
H99 N79 0.862 . S
O100 Co68 1.920 . S
O100 C73 1.289 . S
C101 O93 1.258 . S
C101 O94 1.266 1_554 S
Co102 O105 1.970 . S
Co102 N119 1.989 . S
Co102 O127 1.967 . S
Co102 O134 1.920 . S
Co103 O106 1.966 . S
Co103 N112 2.022 . S
Co103 N120 1.993 . S
Co103 O128 1.941 . S
C104 O105 1.258 . S
C104 O106 1.263 . S
O105 Co102 1.970 . S
O105 C104 1.258 . S
O106 Co103 1.966 . S
O106 C104 1.263 . S
C107 O108 1.235 . S
C107 O134 1.289 . S
O108 C107 1.235 . S
C109 C111 1.400 . S
C109 N112 1.351 . S
C109 C114 1.501 . S
C110 C111 1.387 . S
C110 N113 1.341 . S
C111 C109 1.400 . S
C111 C110 1.387 . S
N112 Co103 2.022 . S
N112 C109 1.351 . S
N112 N113 1.365 . S
N113 C110 1.341 . S
N113 N112 1.365 . S
N113 H133 0.862 . S
C114 C109 1.501 . S
C114 H115 0.961 . S
C114 H116 0.961 . S
C114 H117 0.960 . S
H115 C114 0.961 . S
H116 C114 0.961 . S
H117 C114 0.960 . S
C118 N119 1.342 . S
C118 C122 1.401 . S
C118 C123 1.499 . S
N119 Co102 1.989 . S
N119 C118 1.342 . S
N119 N120 1.388 . S
N120 Co103 1.993 . S
N120 N119 1.388 . S
N120 C121 1.346 . S
C121 N120 1.346 . S
C121 C122 1.396 . S
C121 C131 1.510 . S
C122 C118 1.401 . S
C122 C121 1.396 . S
C123 C118 1.499 . S
C123 H124 0.959 . S
C123 H125 0.960 . S
C123 H126 0.961 . S
H124 C123 0.959 . S
H125 C123 0.960 . S
H126 C123 0.961 . S
O127 Co102 1.967 . S
O127 C135 1.258 . S
O128 Co103 1.941 . S
O128 C135 1.266 . S
H129 C131 0.959 . S
H130 C131 0.961 . S
C131 C121 1.510 . S
C131 H129 0.959 . S
C131 H130 0.961 . S
C131 H132 0.960 . S
H132 C131 0.960 . S
H133 N113 0.862 . S
O134 Co102 1.920 . S
O134 C107 1.289 . S
C135 O127 1.258 . S
C135 O128 1.266 . S
Co136 O139 1.970 . S
Co136 N153 1.989 . S
Co136 O161 1.967 . S
Co136 O168 1.920 . S
Co137 O140 1.966 . S
Co137 N146 2.022 . S
Co137 N154 1.993 . S
Co137 O162 1.941 . S
C138 O139 1.258 . S
C138 O140 1.263 . S
O139 Co136 1.970 . S
O139 C138 1.258 . S
O140 Co137 1.966 . S
O140 C138 1.263 . S
C141 O142 1.235 . S
C141 O168 1.289 . S
O142 C141 1.235 . S
C143 C145 1.400 . S
C143 N146 1.351 . S
C143 C148 1.501 . S
C144 C145 1.387 . S
C144 N147 1.341 . S
C145 C143 1.400 . S
C145 C144 1.387 . S
N146 Co137 2.022 . S
N146 C143 1.351 . S
N146 N147 1.365 . S
N147 C144 1.341 . S
N147 N146 1.365 . S
N147 H167 0.862 . S
C148 C143 1.501 . S
C148 H149 0.961 . S
C148 H150 0.961 . S
C148 H151 0.960 . S
H149 C148 0.961 . S
H150 C148 0.961 . S
H151 C148 0.960 . S
C152 N153 1.342 . S
C152 C156 1.401 . S
C152 C157 1.499 . S
N153 Co136 1.989 . S
N153 C152 1.342 . S
N153 N154 1.388 . S
N154 Co137 1.993 . S
N154 N153 1.388 . S
N154 C155 1.346 . S
C155 N154 1.346 . S
C155 C156 1.396 . S
C155 C165 1.510 . S
C156 C152 1.401 . S
C156 C155 1.396 . S
C157 C152 1.499 . S
C157 H158 0.959 . S
C157 H159 0.960 . S
C157 H160 0.961 . S
H158 C157 0.959 . S
H159 C157 0.960 . S
H160 C157 0.961 . S
O161 Co136 1.967 . S
O161 C169 1.258 . S
O162 Co137 1.941 . S
O162 C169 1.266 . S
H163 C165 0.959 . S
H164 C165 0.961 . S
C165 C155 1.510 . S
C165 H163 0.959 . S
C165 H164 0.961 . S
C165 H166 0.960 . S
H166 C165 0.960 . S
H167 N147 0.862 . S
O168 Co136 1.920 . S
O168 C141 1.289 . S
C169 O161 1.258 . S
C169 O162 1.266 . S
Co170 O173 1.970 . S
Co170 N187 1.989 . S
Co170 O195 1.967 . S
Co170 O202 1.920 . S
Co171 O174 1.966 . S
Co171 N180 2.022 . S
Co171 N188 1.993 . S
Co171 O196 1.941 . S
C172 O173 1.258 . S
C172 O174 1.263 . S
O173 Co170 1.970 . S
O173 C172 1.258 . S
O174 Co171 1.966 . S
O174 C172 1.263 . S
C175 O176 1.235 . S
C175 O202 1.289 . S
O176 C175 1.235 . S
C177 C179 1.400 . S
C177 N180 1.351 . S
C177 C182 1.501 . S
C178 C179 1.387 . S
C178 N181 1.341 . S
C179 C177 1.400 . S
C179 C178 1.387 . S
N180 Co171 2.022 . S
N180 C177 1.351 . S
N180 N181 1.365 . S
N181 C178 1.341 . S
N181 N180 1.365 . S
N181 H201 0.862 . S
C182 C177 1.501 . S
C182 H183 0.961 . S
C182 H184 0.961 . S
C182 H185 0.960 . S
H183 C182 0.961 . S
H184 C182 0.961 . S
H185 C182 0.960 . S
C186 N187 1.342 . S
C186 C190 1.401 . S
C186 C191 1.499 . S
N187 Co170 1.989 . S
N187 C186 1.342 . S
N187 N188 1.388 . S
N188 Co171 1.993 . S
N188 N187 1.388 . S
N188 C189 1.346 . S
C189 N188 1.346 . S
C189 C190 1.396 . S
C189 C199 1.510 . S
C190 C186 1.401 . S
C190 C189 1.396 . S
C191 C186 1.499 . S
C191 H192 0.959 . S
C191 H193 0.960 . S
C191 H194 0.961 . S
H192 C191 0.959 . S
H193 C191 0.960 . S
H194 C191 0.961 . S
O195 Co170 1.967 . S
O195 C203 1.258 . S
O196 Co171 1.941 . S
O196 C203 1.266 . S
H197 C199 0.959 . S
H198 C199 0.961 . S
C199 C189 1.510 . S
C199 H197 0.959 . S
C199 H198 0.961 . S
C199 H200 0.960 . S
H200 C199 0.960 . S
H201 N181 0.862 . S
O202 Co170 1.920 . S
O202 C175 1.289 . S
C203 O195 1.258 . S
C203 O196 1.266 . S
Co204 O207 1.970 . S
Co204 N221 1.989 . S
Co204 O229 1.967 . S
Co204 O236 1.920 . S
Co205 O208 1.966 . S
Co205 N214 2.022 1_556 S
Co205 N222 1.993 . S
Co205 O230 1.941 1_556 S
C206 O207 1.258 . S
C206 O208 1.263 . S
O207 Co204 1.970 . S
O207 C206 1.258 . S
O208 Co205 1.966 . S
O208 C206 1.263 . S
C209 O210 1.235 . S
C209 O236 1.289 . S
O210 C209 1.235 . S
C211 C213 1.400 . S
C211 N214 1.351 . S
C211 C216 1.501 . S
C212 C213 1.387 . S
C212 N215 1.341 . S
C213 C211 1.400 . S
C213 C212 1.387 . S
N214 Co205 2.022 1_554 S
N214 C211 1.351 . S
N214 N215 1.365 . S
N215 C212 1.341 . S
N215 N214 1.365 . S
N215 H235 0.862 . S
C216 C211 1.501 . S
C216 H217 0.961 . S
C216 H218 0.961 . S
C216 H219 0.960 . S
H217 C216 0.961 . S
H218 C216 0.961 . S
H219 C216 0.960 . S
C220 N221 1.342 . S
C220 C224 1.401 . S
C220 C225 1.499 . S
N221 Co204 1.989 . S
N221 C220 1.342 . S
N221 N222 1.388 . S
N222 Co205 1.993 . S
N222 N221 1.388 . S
N222 C223 1.346 . S
C223 N222 1.346 . S
C223 C224 1.396 . S
C223 C233 1.510 . S
C224 C220 1.401 . S
C224 C223 1.396 . S
C225 C220 1.499 . S
C225 H226 0.959 . S
C225 H227 0.960 . S
C225 H228 0.961 . S
H226 C225 0.959 . S
H227 C225 0.960 . S
H228 C225 0.961 . S
O229 Co204 1.967 . S
O229 C237 1.258 . S
O230 Co205 1.941 1_554 S
O230 C237 1.266 1_554 S
H231 C233 0.959 . S
H232 C233 0.961 . S
C233 C223 1.510 . S
C233 H231 0.959 . S
C233 H232 0.961 . S
C233 H234 0.960 . S
H234 C233 0.960 . S
H235 N215 0.862 . S
O236 Co204 1.920 . S
O236 C209 1.289 . S
C237 O229 1.258 . S
C237 O230 1.266 1_556 S
Co238 O241 1.970 . S
Co238 N255 1.989 . S
Co238 O263 1.967 . S
Co238 O270 1.920 . S
Co239 O242 1.966 . S
Co239 N248 2.022 1_556 S
Co239 N256 1.993 . S
Co239 O264 1.941 1_556 S
C240 O241 1.258 . S
C240 O242 1.263 . S
O241 Co238 1.970 . S
O241 C240 1.258 . S
O242 Co239 1.966 . S
O242 C240 1.263 . S
C243 O244 1.235 . S
C243 O270 1.289 . S
O244 C243 1.235 . S
C245 C247 1.400 . S
C245 N248 1.351 . S
C245 C250 1.501 . S
C246 C247 1.387 . S
C246 N249 1.341 . S
C247 C245 1.400 . S
C247 C246 1.387 . S
N248 Co239 2.022 1_554 S
N248 C245 1.351 . S
N248 N249 1.365 . S
N249 C246 1.341 . S
N249 N248 1.365 . S
N249 H269 0.862 . S
C250 C245 1.501 . S
C250 H251 0.961 . S
C250 H252 0.961 . S
C250 H253 0.960 . S
H251 C250 0.961 . S
H252 C250 0.961 . S
H253 C250 0.960 . S
C254 N255 1.342 . S
C254 C258 1.401 . S
C254 C259 1.499 . S
N255 Co238 1.989 . S
N255 C254 1.342 . S
N255 N256 1.388 . S
N256 Co239 1.993 . S
N256 N255 1.388 . S
N256 C257 1.346 . S
C257 N256 1.346 . S
C257 C258 1.396 . S
C257 C267 1.510 . S
C258 C254 1.401 . S
C258 C257 1.396 . S
C259 C254 1.499 . S
C259 H260 0.959 . S
C259 H261 0.960 . S
C259 H262 0.961 . S
H260 C259 0.959 . S
H261 C259 0.960 . S
H262 C259 0.961 . S
O263 Co238 1.967 . S
O263 C271 1.258 . S
O264 Co239 1.941 1_554 S
O264 C271 1.266 1_554 S
H265 C267 0.959 . S
H266 C267 0.961 . S
C267 C257 1.510 . S
C267 H265 0.959 . S
C267 H266 0.961 . S
C267 H268 0.960 . S
H268 C267 0.960 . S
H269 N249 0.862 . S
O270 Co238 1.920 . S
O270 C243 1.289 . S
C271 O263 1.258 . S
C271 O264 1.266 1_556 S
Co272 O275 1.970 . S
Co272 N289 1.989 . S
Co272 O297 1.967 . S
Co272 O304 1.920 . S
Co273 O276 1.966 . S
Co273 N282 2.022 1_556 S
Co273 N290 1.993 . S
Co273 O298 1.941 1_556 S
C274 O275 1.258 . S
C274 O276 1.263 . S
O275 Co272 1.970 . S
O275 C274 1.258 . S
O276 Co273 1.966 . S
O276 C274 1.263 . S
C277 O278 1.235 . S
C277 O304 1.289 . S
O278 C277 1.235 . S
C279 C281 1.400 . S
C279 N282 1.351 . S
C279 C284 1.501 . S
C280 C281 1.387 . S
C280 N283 1.341 . S
C281 C279 1.400 . S
C281 C280 1.387 . S
N282 Co273 2.022 1_554 S
N282 C279 1.351 . S
N282 N283 1.365 . S
N283 C280 1.341 . S
N283 N282 1.365 . S
N283 H303 0.862 . S
C284 C279 1.501 . S
C284 H285 0.961 . S
C284 H286 0.961 . S
C284 H287 0.960 . S
H285 C284 0.961 . S
H286 C284 0.961 . S
H287 C284 0.960 . S
C288 N289 1.342 . S
C288 C292 1.401 . S
C288 C293 1.499 . S
N289 Co272 1.989 . S
N289 C288 1.342 . S
N289 N290 1.388 . S
N290 Co273 1.993 . S
N290 N289 1.388 . S
N290 C291 1.346 . S
C291 N290 1.346 . S
C291 C292 1.396 . S
C291 C301 1.510 . S
C292 C288 1.401 . S
C292 C291 1.396 . S
C293 C288 1.499 . S
C293 H294 0.959 . S
C293 H295 0.960 . S
C293 H296 0.961 . S
H294 C293 0.959 . S
H295 C293 0.960 . S
H296 C293 0.961 . S
O297 Co272 1.967 . S
O297 C305 1.258 . S
O298 Co273 1.941 1_554 S
O298 C305 1.266 1_554 S
H299 C301 0.959 . S
H300 C301 0.961 . S
C301 C291 1.510 . S
C301 H299 0.959 . S
C301 H300 0.961 . S
C301 H302 0.960 . S
H302 C301 0.960 . S
H303 N283 0.862 . S
O304 Co272 1.920 . S
O304 C277 1.289 . S
C305 O297 1.258 . S
C305 O298 1.266 1_556 S
Co306 O309 1.970 . S
Co306 N323 1.989 . S
Co306 O331 1.967 . S
Co306 O338 1.920 . S
Co307 O310 1.966 . S
Co307 N316 2.022 . S
Co307 N324 1.993 . S
Co307 O332 1.941 . S
C308 O309 1.258 . S
C308 O310 1.263 . S
O309 Co306 1.970 . S
O309 C308 1.258 . S
O310 Co307 1.966 . S
O310 C308 1.263 . S
C311 O312 1.235 . S
C311 O338 1.289 . S
O312 C311 1.235 . S
C313 C315 1.400 . S
C313 N316 1.351 . S
C313 C318 1.501 . S
C314 C315 1.387 . S
C314 N317 1.341 . S
C315 C313 1.400 . S
C315 C314 1.387 . S
N316 Co307 2.022 . S
N316 C313 1.351 . S
N316 N317 1.365 . S
N317 C314 1.341 . S
N317 N316 1.365 . S
N317 H337 0.862 . S
C318 C313 1.501 . S
C318 H319 0.961 . S
C318 H320 0.961 . S
C318 H321 0.960 . S
H319 C318 0.961 . S
H320 C318 0.961 . S
H321 C318 0.960 . S
C322 N323 1.342 . S
C322 C326 1.401 . S
C322 C327 1.499 . S
N323 Co306 1.989 . S
N323 C322 1.342 . S
N323 N324 1.388 . S
N324 Co307 1.993 . S
N324 N323 1.388 . S
N324 C325 1.346 . S
C325 N324 1.346 . S
C325 C326 1.396 . S
C325 C335 1.510 . S
C326 C322 1.401 . S
C326 C325 1.396 . S
C327 C322 1.499 . S
C327 H328 0.959 . S
C327 H329 0.960 . S
C327 H330 0.961 . S
H328 C327 0.959 . S
H329 C327 0.960 . S
H330 C327 0.961 . S
O331 Co306 1.967 . S
O331 C339 1.258 . S
O332 Co307 1.941 . S
O332 C339 1.266 . S
H333 C335 0.959 . S
H334 C335 0.961 . S
C335 C325 1.510 . S
C335 H333 0.959 . S
C335 H334 0.961 . S
C335 H336 0.960 . S
H336 C335 0.960 . S
H337 N317 0.862 . S
O338 Co306 1.920 . S
O338 C311 1.289 . S
C339 O331 1.258 . S
C339 O332 1.266 . S
Co340 O343 1.970 . S
Co340 N357 1.989 . S
Co340 O365 1.967 . S
Co340 O372 1.920 . S
Co341 O344 1.966 . S
Co341 N350 2.022 . S
Co341 N358 1.993 . S
Co341 O366 1.941 . S
C342 O343 1.258 . S
C342 O344 1.263 . S
O343 Co340 1.970 . S
O343 C342 1.258 . S
O344 Co341 1.966 . S
O344 C342 1.263 . S
C345 O346 1.235 . S
C345 O372 1.289 . S
O346 C345 1.235 . S
C347 C349 1.400 . S
C347 N350 1.351 . S
C347 C352 1.501 . S
C348 C349 1.387 . S
C348 N351 1.341 . S
C349 C347 1.400 . S
C349 C348 1.387 . S
N350 Co341 2.022 . S
N350 C347 1.351 . S
N350 N351 1.365 . S
N351 C348 1.341 . S
N351 N350 1.365 . S
N351 H371 0.862 . S
C352 C347 1.501 . S
C352 H353 0.961 . S
C352 H354 0.961 . S
C352 H355 0.960 . S
H353 C352 0.961 . S
H354 C352 0.961 . S
H355 C352 0.960 . S
C356 N357 1.342 . S
C356 C360 1.401 . S
C356 C361 1.499 . S
N357 Co340 1.989 . S
N357 C356 1.342 . S
N357 N358 1.388 . S
N358 Co341 1.993 . S
N358 N357 1.388 . S
N358 C359 1.346 . S
C359 N358 1.346 . S
C359 C360 1.396 . S
C359 C369 1.510 . S
C360 C356 1.401 . S
C360 C359 1.396 . S
C361 C356 1.499 . S
C361 H362 0.959 . S
C361 H363 0.960 . S
C361 H364 0.961 . S
H362 C361 0.959 . S
H363 C361 0.960 . S
H364 C361 0.961 . S
O365 Co340 1.967 . S
O365 C373 1.258 . S
O366 Co341 1.941 . S
O366 C373 1.266 . S
H367 C369 0.959 . S
H368 C369 0.961 . S
C369 C359 1.510 . S
C369 H367 0.959 . S
C369 H368 0.961 . S
C369 H370 0.960 . S
H370 C369 0.960 . S
H371 N351 0.862 . S
O372 Co340 1.920 . S
O372 C345 1.289 . S
C373 O365 1.258 . S
C373 O366 1.266 . S
Co374 O377 1.970 . S
Co374 N391 1.989 . S
Co374 O399 1.967 . S
Co374 O406 1.920 . S
Co375 O378 1.966 . S
Co375 N384 2.022 . S
Co375 N392 1.993 . S
Co375 O400 1.941 . S
C376 O377 1.258 . S
C376 O378 1.263 . S
O377 Co374 1.970 . S
O377 C376 1.258 . S
O378 Co375 1.966 . S
O378 C376 1.263 . S
C379 O380 1.235 . S
C379 O406 1.289 . S
O380 C379 1.235 . S
C381 C383 1.400 . S
C381 N384 1.351 . S
C381 C386 1.501 . S
C382 C383 1.387 . S
C382 N385 1.341 . S
C383 C381 1.400 . S
C383 C382 1.387 . S
N384 Co375 2.022 . S
N384 C381 1.351 . S
N384 N385 1.365 . S
N385 C382 1.341 . S
N385 N384 1.365 . S
N385 H405 0.862 . S
C386 C381 1.501 . S
C386 H387 0.961 . S
C386 H388 0.961 . S
C386 H389 0.960 . S
H387 C386 0.961 . S
H388 C386 0.961 . S
H389 C386 0.960 . S
C390 N391 1.342 . S
C390 C394 1.401 . S
C390 C395 1.499 . S
N391 Co374 1.989 . S
N391 C390 1.342 . S
N391 N392 1.388 . S
N392 Co375 1.993 . S
N392 N391 1.388 . S
N392 C393 1.346 . S
C393 N392 1.346 . S
C393 C394 1.396 . S
C393 C403 1.510 . S
C394 C390 1.401 . S
C394 C393 1.396 . S
C395 C390 1.499 . S
C395 H396 0.959 . S
C395 H397 0.960 . S
C395 H398 0.961 . S
H396 C395 0.959 . S
H397 C395 0.960 . S
H398 C395 0.961 . S
O399 Co374 1.967 . S
O399 C407 1.258 . S
O400 Co375 1.941 . S
O400 C407 1.266 . S
H401 C403 0.959 . S
H402 C403 0.961 . S
C403 C393 1.510 . S
C403 H401 0.959 . S
C403 H402 0.961 . S
C403 H404 0.960 . S
H404 C403 0.960 . S
H405 N385 0.862 . S
O406 Co374 1.920 . S
O406 C379 1.289 . S
C407 O399 1.258 . S
C407 O400 1.266 . S
C408 C409 1.363 . S
C408 C414 1.379 . S
C408 N416 1.356 . S
C409 C408 1.363 . S
C409 C415 1.363 1_545 S
C410 C411 1.363 1_565 S
C410 C415 1.379 . S
C410 N417 1.356 . S
C411 C410 1.363 1_545 S
C411 C414 1.363 . S
N412 C414 1.356 . S
N412 H424 0.984 . S
N412 H425 0.985 . S
N413 C415 1.356 . S
N413 H418 0.984 . S
N413 H419 0.985 . S
C414 C408 1.379 . S
C414 C411 1.363 . S
C414 N412 1.356 . S
C415 C409 1.363 1_565 S
C415 C410 1.379 . S
C415 N413 1.356 . S
N416 C408 1.356 . S
N416 H422 0.984 . S
N416 H423 0.984 . S
N417 C410 1.356 . S
N417 H420 0.984 . S
N417 H421 0.985 . S
H418 N413 0.984 . S
H419 N413 0.985 . S
H420 N417 0.984 . S
H421 N417 0.985 . S
H422 N416 0.984 . S
H423 N416 0.984 . S
H424 N412 0.984 . S
H425 N412 0.985 . S
C426 C427 1.363 . S
C426 C432 1.379 . S
C426 N434 1.356 . S
C427 C426 1.363 . S
C427 C433 1.363 1_655 S
C428 C429 1.363 1_455 S
C428 C433 1.379 . S
C428 N435 1.356 . S
C429 C428 1.363 1_655 S
C429 C432 1.363 . S
N430 C432 1.356 . S
N430 H442 0.984 . S
N430 H443 0.985 . S
N431 C433 1.356 . S
N431 H436 0.984 . S
N431 H437 0.985 . S
C432 C426 1.379 . S
C432 C429 1.363 . S
C432 N430 1.356 . S
C433 C427 1.363 1_455 S
C433 C428 1.379 . S
C433 N431 1.356 . S
N434 C426 1.356 . S
N434 H440 0.984 . S
N434 H441 0.984 . S
N435 C428 1.356 . S
N435 H438 0.984 . S
N435 H439 0.985 . S
H436 N431 0.984 . S
H437 N431 0.985 . S
H438 N435 0.984 . S
H439 N435 0.985 . S
H440 N434 0.984 . S
H441 N434 0.984 . S
H442 N430 0.984 . S
H443 N430 0.985 . S
C444 C445 1.363 . S
C444 C450 1.379 . S
C444 N452 1.356 . S
C445 C444 1.363 . S
C445 C451 1.363 . S
C446 C447 1.363 . S
C446 C451 1.379 . S
C446 N453 1.356 . S
C447 C446 1.363 . S
C447 C450 1.363 . S
N448 C450 1.356 . S
N448 H460 0.984 . S
N448 H461 0.985 . S
N449 C451 1.356 . S
N449 H454 0.984 . S
N449 H455 0.985 . S
C450 C444 1.379 . S
C450 C447 1.363 . S
C450 N448 1.356 . S
C451 C445 1.363 . S
C451 C446 1.379 . S
C451 N449 1.356 . S
N452 C444 1.356 . S
N452 H458 0.984 . S
N452 H459 0.984 . S
N453 C446 1.356 . S
N453 H456 0.984 . S
N453 H457 0.985 . S
H454 N449 0.984 . S
H455 N449 0.985 . S
H456 N453 0.984 . S
H457 N453 0.985 . S
H458 N452 0.984 . S
H459 N452 0.984 . S
H460 N448 0.984 . S
H461 N448 0.985 . S
C462 C463 1.363 . S
C462 C468 1.379 . S
C462 N470 1.356 . S
C463 C462 1.363 . S
C463 C469 1.363 1_565 S
C464 C465 1.363 1_545 S
C464 C469 1.379 . S
C464 N471 1.356 . S
C465 C464 1.363 1_565 S
C465 C468 1.363 . S
N466 C468 1.356 . S
N466 H478 0.984 . S
N466 H479 0.985 . S
N467 C469 1.356 . S
N467 H472 0.984 . S
N467 H473 0.985 . S
C468 C462 1.379 . S
C468 C465 1.363 . S
C468 N466 1.356 . S
C469 C463 1.363 1_545 S
C469 C464 1.379 . S
C469 N467 1.356 . S
N470 C462 1.356 . S
N470 H476 0.984 . S
N470 H477 0.984 . S
N471 C464 1.356 . S
N471 H474 0.984 . S
N471 H475 0.985 . S
H472 N467 0.984 . S
H473 N467 0.985 . S
H474 N471 0.984 . S
H475 N471 0.985 . S
H476 N470 0.984 . S
H477 N470 0.984 . S
H478 N466 0.984 . S
H479 N466 0.985 . S
C480 C481 1.363 . S
C480 C486 1.379 . S
C480 N488 1.356 . S
C481 C480 1.363 . S
C481 C487 1.363 1_455 S
C482 C483 1.363 1_655 S
C482 C487 1.379 . S
C482 N489 1.356 . S
C483 C482 1.363 1_455 S
C483 C486 1.363 . S
N484 C486 1.356 . S
N484 H496 0.984 . S
N484 H497 0.985 . S
N485 C487 1.356 . S
N485 H490 0.984 . S
N485 H491 0.985 . S
C486 C480 1.379 . S
C486 C483 1.363 . S
C486 N484 1.356 . S
C487 C481 1.363 1_655 S
C487 C482 1.379 . S
C487 N485 1.356 . S
N488 C480 1.356 . S
N488 H494 0.984 . S
N488 H495 0.984 . S
N489 C482 1.356 . S
N489 H492 0.984 . S
N489 H493 0.985 . S
H490 N485 0.984 . S
H491 N485 0.985 . S
H492 N489 0.984 . S
H493 N489 0.985 . S
H494 N488 0.984 . S
H495 N488 0.984 . S
H496 N484 0.984 . S
H497 N484 0.985 . S
C498 C499 1.363 . S
C498 C504 1.379 . S
C498 N506 1.356 . S
C499 C498 1.363 . S
C499 C505 1.363 . S
C500 C501 1.363 . S
C500 C505 1.379 . S
C500 N507 1.356 . S
C501 C500 1.363 . S
C501 C504 1.363 . S
N502 C504 1.356 . S
N502 H514 0.984 . S
N502 H515 0.985 . S
N503 C505 1.356 . S
N503 H508 0.984 . S
N503 H509 0.985 . S
C504 C498 1.379 . S
C504 C501 1.363 . S
C504 N502 1.356 . S
C505 C499 1.363 . S
C505 C500 1.379 . S
C505 N503 1.356 . S
N506 C498 1.356 . S
N506 H512 0.984 . S
N506 H513 0.984 . S
N507 C500 1.356 . S
N507 H510 0.984 . S
N507 H511 0.985 . S
H508 N503 0.984 . S
H509 N503 0.985 . S
H510 N507 0.984 . S
H511 N507 0.985 . S
H512 N506 0.984 . S
H513 N506 0.984 . S
H514 N502 0.984 . S
H515 N502 0.985 . S
C516 C517 1.363 1_564 S
C516 C522 1.379 . S
C516 N524 1.356 . S
C517 C516 1.363 1_546 S
C517 C523 1.363 . S
C518 C519 1.363 1_546 S
C518 C523 1.379 . S
C518 N525 1.356 . S
C519 C518 1.363 1_564 S
C519 C522 1.363 . S
N520 C522 1.356 . S
N520 H532 0.984 . S
N520 H533 0.985 . S
N521 C523 1.356 . S
N521 H526 0.984 . S
N521 H527 0.985 . S
C522 C516 1.379 . S
C522 C519 1.363 . S
C522 N520 1.356 . S
C523 C517 1.363 . S
C523 C518 1.379 . S
C523 N521 1.356 . S
N524 C516 1.356 . S
N524 H530 0.984 . S
N524 H531 0.984 . S
N525 C518 1.356 . S
N525 H528 0.984 . S
N525 H529 0.985 . S
H526 N521 0.984 . S
H527 N521 0.985 . S
H528 N525 0.984 . S
H529 N525 0.985 . S
H530 N524 0.984 . S
H531 N524 0.984 . S
H532 N520 0.984 . S
H533 N520 0.985 . S
C534 C535 1.363 1_455 S
C534 C540 1.379 . S
C534 N542 1.356 . S
C535 C534 1.363 1_655 S
C535 C541 1.363 1_556 S
C536 C537 1.363 1_655 S
C536 C541 1.379 . S
C536 N543 1.356 . S
C537 C536 1.363 1_455 S
C537 C540 1.363 1_554 S
N538 C540 1.356 . S
N538 H550 0.984 . S
N538 H551 0.985 . S
N539 C541 1.356 . S
N539 H544 0.984 . S
N539 H545 0.985 . S
C540 C534 1.379 . S
C540 C537 1.363 1_556 S
C540 N538 1.356 . S
C541 C535 1.363 1_554 S
C541 C536 1.379 . S
C541 N539 1.356 . S
N542 C534 1.356 . S
N542 H548 0.984 . S
N542 H549 0.984 . S
N543 C536 1.356 . S
N543 H546 0.984 . S
N543 H547 0.985 . S
H544 N539 0.984 . S
H545 N539 0.985 . S
H546 N543 0.984 . S
H547 N543 0.985 . S
H548 N542 0.984 . S
H549 N542 0.984 . S
H550 N538 0.984 . S
H551 N538 0.985 . S
C552 C553 1.363 1_556 S
C552 C558 1.379 . S
C552 N560 1.356 . S
C553 C552 1.363 1_554 S
C553 C559 1.363 . S
C554 C555 1.363 1_554 S
C554 C559 1.379 . S
C554 N561 1.356 . S
C555 C554 1.363 1_556 S
C555 C558 1.363 . S
N556 C558 1.356 . S
N556 H568 0.984 . S
N556 H569 0.985 . S
N557 C559 1.356 . S
N557 H562 0.984 . S
N557 H563 0.985 . S
C558 C552 1.379 . S
C558 C555 1.363 . S
C558 N556 1.356 . S
C559 C553 1.363 . S
C559 C554 1.379 . S
C559 N557 1.356 . S
N560 C552 1.356 . S
N560 H566 0.984 . S
N560 H567 0.984 . S
N561 C554 1.356 . S
N561 H564 0.984 . S
N561 H565 0.985 . S
H562 N557 0.984 . S
H563 N557 0.985 . S
H564 N561 0.984 . S
H565 N561 0.985 . S
H566 N560 0.984 . S
H567 N560 0.984 . S
H568 N556 0.984 . S
H569 N556 0.985 . S
C570 C571 1.363 1_655 S
C570 C576 1.379 . S
C570 N578 1.356 . S
C571 C570 1.363 1_455 S
C571 C577 1.363 . S
C572 C573 1.363 1_455 S
C572 C577 1.379 . S
C572 N579 1.356 . S
C573 C572 1.363 1_655 S
C573 C576 1.363 . S
N574 C576 1.356 . S
N574 H586 0.984 . S
N574 H587 0.985 . S
N575 C577 1.356 . S
N575 H580 0.984 . S
N575 H581 0.985 . S
C576 C570 1.379 . S
C576 C573 1.363 . S
C576 N574 1.356 . S
C577 C571 1.363 . S
C577 C572 1.379 . S
C577 N575 1.356 . S
N578 C570 1.356 . S
N578 H584 0.984 . S
N578 H585 0.984 . S
N579 C572 1.356 . S
N579 H582 0.984 . S
N579 H583 0.985 . S
H580 N575 0.984 . S
H581 N575 0.985 . S
H582 N579 0.984 . S
H583 N579 0.985 . S
H584 N578 0.984 . S
H585 N578 0.984 . S
H586 N574 0.984 . S
H587 N574 0.985 . S
C588 C589 1.363 . S
C588 C594 1.379 . S
C588 N596 1.356 . S
C589 C588 1.363 . S
C589 C595 1.363 . S
C590 C591 1.363 . S
C590 C595 1.379 . S
C590 N597 1.356 . S
C591 C590 1.363 . S
C591 C594 1.363 . S
N592 C594 1.356 . S
N592 H604 0.984 . S
N592 H605 0.985 . S
N593 C595 1.356 . S
N593 H598 0.984 . S
N593 H599 0.985 . S
C594 C588 1.379 . S
C594 C591 1.363 . S
C594 N592 1.356 . S
C595 C589 1.363 . S
C595 C590 1.379 . S
C595 N593 1.356 . S
N596 C588 1.356 . S
N596 H602 0.984 . S
N596 H603 0.984 . S
N597 C590 1.356 . S
N597 H600 0.984 . S
N597 H601 0.985 . S
H598 N593 0.984 . S
H599 N593 0.985 . S
H600 N597 0.984 . S
H601 N597 0.985 . S
H602 N596 0.984 . S
H603 N596 0.984 . S
H604 N592 0.984 . S
H605 N592 0.985 . S
C606 C607 1.363 1_565 S
C606 C612 1.379 . S
C606 N614 1.356 . S
C607 C606 1.363 1_545 S
C607 C613 1.363 . S
C608 C609 1.363 1_545 S
C608 C613 1.379 . S
C608 N615 1.356 . S
C609 C608 1.363 1_565 S
C609 C612 1.363 . S
N610 C612 1.356 . S
N610 H622 0.984 . S
N610 H623 0.985 . S
N611 C613 1.356 . S
N611 H616 0.984 . S
N611 H617 0.985 . S
C612 C606 1.379 . S
C612 C609 1.363 . S
C612 N610 1.356 . S
C613 C607 1.363 . S
C613 C608 1.379 . S
C613 N611 1.356 . S
N614 C606 1.356 . S
N614 H620 0.984 . S
N614 H621 0.984 . S
N615 C608 1.356 . S
N615 H618 0.984 . S
N615 H619 0.985 . S
H616 N611 0.984 . S
H617 N611 0.985 . S
H618 N615 0.984 . S
H619 N615 0.985 . S
H620 N614 0.984 . S
H621 N614 0.984 . S
H622 N610 0.984 . S
H623 N610 0.985 . S
C624 C625 1.363 . S
C624 C630 1.379 . S
C624 N632 1.356 . S
C625 C624 1.363 . S
C625 C631 1.363 . S
C626 C627 1.363 . S
C626 C631 1.379 . S
C626 N633 1.356 . S
C627 C626 1.363 . S
C627 C630 1.363 . S
N628 C630 1.356 . S
N628 H640 0.984 . S
N628 H641 0.985 . S
N629 C631 1.356 . S
N629 H634 0.984 . S
N629 H635 0.985 . S
C630 C624 1.379 . S
C630 C627 1.363 . S
C630 N628 1.356 . S
C631 C625 1.363 . S
C631 C626 1.379 . S
C631 N629 1.356 . S
N632 C624 1.356 . S
N632 H638 0.984 . S
N632 H639 0.984 . S
N633 C626 1.356 . S
N633 H636 0.984 . S
N633 H637 0.985 . S
H634 N629 0.984 . S
H635 N629 0.985 . S
H636 N633 0.984 . S
H637 N633 0.985 . S
H638 N632 0.984 . S
H639 N632 0.984 . S
H640 N628 0.984 . S
H641 N628 0.985 . S
C642 C643 1.363 . S
C642 C648 1.379 . S
C642 N650 1.356 . S
C643 C642 1.363 . S
C643 C649 1.363 . S
C644 C645 1.363 . S
C644 C649 1.379 . S
C644 N651 1.356 . S
C645 C644 1.363 . S
C645 C648 1.363 . S
N646 C648 1.356 . S
N646 H658 0.984 . S
N646 H659 0.985 . S
N647 C649 1.356 . S
N647 H652 0.984 . S
N647 H653 0.985 . S
C648 C642 1.379 . S
C648 C645 1.363 . S
C648 N646 1.356 . S
C649 C643 1.363 . S
C649 C644 1.379 . S
C649 N647 1.356 . S
N650 C642 1.356 . S
N650 H656 0.984 . S
N650 H657 0.984 . S
N651 C644 1.356 . S
N651 H654 0.984 . S
N651 H655 0.985 . S
H652 N647 0.984 . S
H653 N647 0.985 . S
H654 N651 0.984 . S
H655 N651 0.985 . S
H656 N650 0.984 . S
H657 N650 0.984 . S
H658 N646 0.984 . S
H659 N646 0.985 . S
C660 C661 1.363 . S
C660 C666 1.379 . S
C660 N668 1.356 . S
C661 C660 1.363 . S
C661 C667 1.363 . S
C662 C663 1.363 . S
C662 C667 1.379 . S
C662 N669 1.356 . S
C663 C662 1.363 . S
C663 C666 1.363 . S
N664 C666 1.356 . S
N664 H676 0.984 . S
N664 H677 0.985 . S
N665 C667 1.356 . S
N665 H670 0.984 . S
N665 H671 0.985 . S
C666 C660 1.379 . S
C666 C663 1.363 . S
C666 N664 1.356 . S
C667 C661 1.363 . S
C667 C662 1.379 . S
C667 N665 1.356 . S
N668 C660 1.356 . S
N668 H674 0.984 . S
N668 H675 0.984 . S
N669 C662 1.356 . S
N669 H672 0.984 . S
N669 H673 0.985 . S
H670 N665 0.984 . S
H671 N665 0.985 . S
H672 N669 0.984 . S
H673 N669 0.985 . S
H674 N668 0.984 . S
H675 N668 0.984 . S
H676 N664 0.984 . S
H677 N664 0.985 . S
C678 C679 1.363 . S
C678 C684 1.379 . S
C678 N686 1.356 . S
C679 C678 1.363 . S
C679 C685 1.363 . S
C680 C681 1.363 . S
C680 C685 1.379 . S
C680 N687 1.356 . S
C681 C680 1.363 . S
C681 C684 1.363 . S
N682 C684 1.356 . S
N682 H694 0.984 . S
N682 H695 0.985 . S
N683 C685 1.356 . S
N683 H688 0.984 . S
N683 H689 0.985 . S
C684 C678 1.379 . S
C684 C681 1.363 . S
C684 N682 1.356 . S
C685 C679 1.363 . S
C685 C680 1.379 . S
C685 N683 1.356 . S
N686 C678 1.356 . S
N686 H692 0.984 . S
N686 H693 0.984 . S
N687 C680 1.356 . S
N687 H690 0.984 . S
N687 H691 0.985 . S
H688 N683 0.984 . S
H689 N683 0.985 . S
H690 N687 0.984 . S
H691 N687 0.985 . S
H692 N686 0.984 . S
H693 N686 0.984 . S
H694 N682 0.984 . S
H695 N682 0.985 . S
C696 C697 1.363 . S
C696 C702 1.379 . S
C696 N704 1.356 . S
C697 C696 1.363 . S
C697 C703 1.363 . S
C698 C699 1.363 . S
C698 C703 1.379 . S
C698 N705 1.356 . S
C699 C698 1.363 . S
C699 C702 1.363 . S
N700 C702 1.356 . S
N700 H712 0.984 . S
N700 H713 0.985 . S
N701 C703 1.356 . S
N701 H706 0.984 . S
N701 H707 0.985 . S
C702 C696 1.379 . S
C702 C699 1.363 . S
C702 N700 1.356 . S
C703 C697 1.363 . S
C703 C698 1.379 . S
C703 N701 1.356 . S
N704 C696 1.356 . S
N704 H710 0.984 . S
N704 H711 0.984 . S
N705 C698 1.356 . S
N705 H708 0.984 . S
N705 H709 0.985 . S
H706 N701 0.984 . S
H707 N701 0.985 . S
H708 N705 0.984 . S
H709 N705 0.985 . S
H710 N704 0.984 . S
H711 N704 0.984 . S
H712 N700 0.984 . S
H713 N700 0.985 . S
C714 C715 1.363 . S
C714 C720 1.379 . S
C714 N722 1.356 . S
C715 C714 1.363 . S
C715 C721 1.363 . S
C716 C717 1.363 . S
C716 C721 1.379 . S
C716 N723 1.356 . S
C717 C716 1.363 . S
C717 C720 1.363 . S
N718 C720 1.356 . S
N718 H730 0.984 . S
N718 H731 0.985 . S
N719 C721 1.356 . S
N719 H724 0.984 . S
N719 H725 0.985 . S
C720 C714 1.379 . S
C720 C717 1.363 . S
C720 N718 1.356 . S
C721 C715 1.363 . S
C721 C716 1.379 . S
C721 N719 1.356 . S
N722 C714 1.356 . S
N722 H728 0.984 . S
N722 H729 0.984 . S
N723 C716 1.356 . S
N723 H726 0.984 . S
N723 H727 0.985 . S
H724 N719 0.984 . S
H725 N719 0.985 . S
H726 N723 0.984 . S
H727 N723 0.985 . S
H728 N722 0.984 . S
H729 N722 0.984 . S
H730 N718 0.984 . S
H731 N718 0.985 . S
C732 C733 1.363 . S
C732 C738 1.379 . S
C732 N740 1.356 . S
C733 C732 1.363 . S
C733 C739 1.363 1_556 S
C734 C735 1.363 . S
C734 C739 1.379 . S
C734 N741 1.356 . S
C735 C734 1.363 . S
C735 C738 1.363 1_554 S
N736 C738 1.356 . S
N736 H748 0.984 . S
N736 H749 0.985 . S
N737 C739 1.356 . S
N737 H742 0.984 1_554 S
N737 H743 0.985 . S
C738 C732 1.379 . S
C738 C735 1.363 1_556 S
C738 N736 1.356 . S
C739 C733 1.363 1_554 S
C739 C734 1.379 . S
C739 N737 1.356 . S
N740 C732 1.356 . S
N740 H746 0.984 . S
N740 H747 0.984 . S
N741 C734 1.356 . S
N741 H744 0.984 . S
N741 H745 0.985 . S
H742 N737 0.984 1_556 S
H743 N737 0.985 . S
H744 N741 0.984 . S
H745 N741 0.985 . S
H746 N740 0.984 . S
H747 N740 0.984 . S
H748 N736 0.984 . S
H749 N736 0.985 . S
C750 C751 1.363 . S
C750 C756 1.379 . S
C750 N758 1.356 . S
C751 C750 1.363 . S
C751 C757 1.363 1_556 S
C752 C753 1.363 . S
C752 C757 1.379 . S
C752 N759 1.356 . S
C753 C752 1.363 . S
C753 C756 1.363 1_554 S
N754 C756 1.356 . S
N754 H766 0.984 . S
N754 H767 0.985 . S
N755 C757 1.356 . S
N755 H760 0.984 1_554 S
N755 H761 0.985 . S
C756 C750 1.379 . S
C756 C753 1.363 1_556 S
C756 N754 1.356 . S
C757 C751 1.363 1_554 S
C757 C752 1.379 . S
C757 N755 1.356 . S
N758 C750 1.356 . S
N758 H764 0.984 . S
N758 H765 0.984 . S
N759 C752 1.356 . S
N759 H762 0.984 . S
N759 H763 0.985 . S
H760 N755 0.984 1_556 S
H761 N755 0.985 . S
H762 N759 0.984 . S
H763 N759 0.985 . S
H764 N758 0.984 . S
H765 N758 0.984 . S
H766 N754 0.984 . S
H767 N754 0.985 . S
C768 C769 1.363 1_556 S
C768 C774 1.379 . S
C768 N776 1.356 . S
C769 C768 1.363 1_554 S
C769 C775 1.363 . S
C770 C771 1.363 1_554 S
C770 C775 1.379 . S
C770 N777 1.356 . S
C771 C770 1.363 1_556 S
C771 C774 1.363 . S
N772 C774 1.356 . S
N772 H784 0.984 . S
N772 H785 0.985 . S
N773 C775 1.356 . S
N773 H778 0.984 . S
N773 H779 0.985 . S
C774 C768 1.379 . S
C774 C771 1.363 . S
C774 N772 1.356 . S
C775 C769 1.363 . S
C775 C770 1.379 . S
C775 N773 1.356 . S
N776 C768 1.356 . S
N776 H782 0.984 . S
N776 H783 0.984 . S
N777 C770 1.356 . S
N777 H780 0.984 . S
N777 H781 0.985 . S
H778 N773 0.984 . S
H779 N773 0.985 . S
H780 N777 0.984 . S
H781 N777 0.985 . S
H782 N776 0.984 . S
H783 N776 0.984 . S
H784 N772 0.984 . S
H785 N772 0.985 . S
C786 C787 1.363 . S
C786 C792 1.379 . S
C786 N794 1.356 . S
C787 C786 1.363 . S
C787 C793 1.363 . S
C788 C789 1.363 . S
C788 C793 1.379 . S
C788 N795 1.356 . S
C789 C788 1.363 . S
C789 C792 1.363 . S
N790 C792 1.356 . S
N790 H802 0.984 . S
N790 H803 0.985 . S
N791 C793 1.356 . S
N791 H796 0.984 . S
N791 H797 0.985 . S
C792 C786 1.379 . S
C792 C789 1.363 . S
C792 N790 1.356 . S
C793 C787 1.363 . S
C793 C788 1.379 . S
C793 N791 1.356 . S
N794 C786 1.356 . S
N794 H800 0.984 . S
N794 H801 0.984 . S
N795 C788 1.356 . S
N795 H798 0.984 . S
N795 H799 0.985 . S
H796 N791 0.984 . S
H797 N791 0.985 . S
H798 N795 0.984 . S
H799 N795 0.985 . S
H800 N794 0.984 . S
H801 N794 0.984 . S
H802 N790 0.984 . S
H803 N790 0.985 . S
C804 C805 1.363 . S
C804 C810 1.379 . S
C804 N812 1.356 . S
C805 C804 1.363 . S
C805 C811 1.363 . S
C806 C807 1.363 . S
C806 C811 1.379 . S
C806 N813 1.356 . S
C807 C806 1.363 . S
C807 C810 1.363 . S
N808 C810 1.356 . S
N808 H820 0.984 . S
N808 H821 0.985 . S
N809 C811 1.356 . S
N809 H814 0.984 . S
N809 H815 0.985 . S
C810 C804 1.379 . S
C810 C807 1.363 . S
C810 N808 1.356 . S
C811 C805 1.363 . S
C811 C806 1.379 . S
C811 N809 1.356 . S
N812 C804 1.356 . S
N812 H818 0.984 . S
N812 H819 0.984 . S
N813 C806 1.356 . S
N813 H816 0.984 . S
N813 H817 0.985 . S
H814 N809 0.984 . S
H815 N809 0.985 . S
H816 N813 0.984 . S
H817 N813 0.985 . S
H818 N812 0.984 . S
H819 N812 0.984 . S
H820 N808 0.984 . S
H821 N808 0.985 . S
C822 C823 1.363 . S
C822 C828 1.379 . S
C822 N830 1.356 . S
C823 C822 1.363 . S
C823 C829 1.363 . S
C824 C825 1.363 . S
C824 C829 1.379 . S
C824 N831 1.356 . S
C825 C824 1.363 . S
C825 C828 1.363 . S
N826 C828 1.356 . S
N826 H838 0.984 . S
N826 H839 0.985 . S
N827 C829 1.356 . S
N827 H832 0.984 . S
N827 H833 0.985 . S
C828 C822 1.379 . S
C828 C825 1.363 . S
C828 N826 1.356 . S
C829 C823 1.363 . S
C829 C824 1.379 . S
C829 N827 1.356 . S
N830 C822 1.356 . S
N830 H836 0.984 . S
N830 H837 0.984 . S
N831 C824 1.356 . S
N831 H834 0.984 . S
N831 H835 0.985 . S
H832 N827 0.984 . S
H833 N827 0.985 . S
H834 N831 0.984 . S
H835 N831 0.985 . S
H836 N830 0.984 . S
H837 N830 0.984 . S
H838 N826 0.984 . S
H839 N826 0.985 . S
C840 C841 1.363 . S
C840 C846 1.379 . S
C840 N848 1.356 . S
C841 C840 1.363 . S
C841 C847 1.363 1_556 S
C842 C843 1.363 . S
C842 C847 1.379 . S
C842 N849 1.356 . S
C843 C842 1.363 . S
C843 C846 1.363 1_554 S
N844 C846 1.356 . S
N844 H856 0.984 . S
N844 H857 0.985 1_556 S
N845 C847 1.356 . S
N845 H850 0.984 . S
N845 H851 0.985 . S
C846 C840 1.379 . S
C846 C843 1.363 1_556 S
C846 N844 1.356 . S
C847 C841 1.363 1_554 S
C847 C842 1.379 . S
C847 N845 1.356 . S
N848 C840 1.356 . S
N848 H854 0.984 . S
N848 H855 0.984 . S
N849 C842 1.356 . S
N849 H852 0.984 . S
N849 H853 0.985 . S
H850 N845 0.984 . S
H851 N845 0.985 . S
H852 N849 0.984 . S
H853 N849 0.985 . S
H854 N848 0.984 . S
H855 N848 0.984 . S
H856 N844 0.984 . S
H857 N844 0.985 1_554 S
C858 C859 1.363 . S
C858 C864 1.379 . S
C858 N866 1.356 . S
C859 C858 1.363 . S
C859 C865 1.363 . S
C860 C861 1.363 . S
C860 C865 1.379 1_556 S
C860 N867 1.356 . S
C861 C860 1.363 . S
C861 C864 1.363 1_556 S
N862 C864 1.356 . S
N862 H874 0.984 . S
N862 H875 0.985 1_554 S
N863 C865 1.356 . S
N863 H868 0.984 . S
N863 H869 0.985 1_554 S
C864 C858 1.379 . S
C864 C861 1.363 1_554 S
C864 N862 1.356 . S
C865 C859 1.363 . S
C865 C860 1.379 1_554 S
C865 N863 1.356 . S
N866 C858 1.356 . S
N866 H872 0.984 . S
N866 H873 0.984 . S
N867 C860 1.356 . S
N867 H870 0.984 . S
N867 H871 0.985 . S
H868 N863 0.984 . S
H869 N863 0.985 1_556 S
H870 N867 0.984 . S
H871 N867 0.985 . S
H872 N866 0.984 . S
H873 N866 0.984 . S
H874 N862 0.984 . S
H875 N862 0.985 1_556 S
C876 C877 1.363 . S
C876 C882 1.379 . S
C876 N884 1.356 . S
C877 C876 1.363 . S
C877 C883 1.363 1_556 S
C878 C879 1.363 . S
C878 C883 1.379 . S
C878 N885 1.356 . S
C879 C878 1.363 . S
C879 C882 1.363 1_554 S
N880 C882 1.356 . S
N880 H892 0.984 . S
N880 H893 0.985 1_556 S
N881 C883 1.356 . S
N881 H886 0.984 . S
N881 H887 0.985 . S
C882 C876 1.379 . S
C882 C879 1.363 1_556 S
C882 N880 1.356 . S
C883 C877 1.363 1_554 S
C883 C878 1.379 . S
C883 N881 1.356 . S
N884 C876 1.356 . S
N884 H890 0.984 . S
N884 H891 0.984 . S
N885 C878 1.356 . S
N885 H888 0.984 . S
N885 H889 0.985 . S
H886 N881 0.984 . S
H887 N881 0.985 . S
H888 N885 0.984 . S
H889 N885 0.985 . S
H890 N884 0.984 . S
H891 N884 0.984 . S
H892 N880 0.984 . S
H893 N880 0.985 1_554 S
C894 C895 1.363 . S
C894 C900 1.379 . S
C894 N902 1.356 . S
C895 C894 1.363 . S
C895 C901 1.363 . S
C896 C897 1.363 . S
C896 C901 1.379 . S
C896 N903 1.356 . S
C897 C896 1.363 . S
C897 C900 1.363 . S
N898 C900 1.356 . S
N898 H910 0.984 . S
N898 H911 0.985 . S
N899 C901 1.356 . S
N899 H904 0.984 . S
N899 H905 0.985 . S
C900 C894 1.379 . S
C900 C897 1.363 . S
C900 N898 1.356 . S
C901 C895 1.363 . S
C901 C896 1.379 . S
C901 N899 1.356 . S
N902 C894 1.356 . S
N902 H908 0.984 . S
N902 H909 0.984 . S
N903 C896 1.356 . S
N903 H906 0.984 . S
N903 H907 0.985 . S
H904 N899 0.984 . S
H905 N899 0.985 . S
H906 N903 0.984 . S
H907 N903 0.985 . S
H908 N902 0.984 . S
H909 N902 0.984 . S
H910 N898 0.984 . S
H911 N898 0.985 . S
C912 C913 1.363 . S
C912 C918 1.379 . S
C912 N920 1.356 . S
C913 C912 1.363 . S
C913 C919 1.363 . S
C914 C915 1.363 . S
C914 C919 1.379 . S
C914 N921 1.356 . S
C915 C914 1.363 . S
C915 C918 1.363 . S
N916 C918 1.356 . S
N916 H928 0.984 . S
N916 H929 0.985 . S
N917 C919 1.356 . S
N917 H922 0.984 . S
N917 H923 0.985 . S
C918 C912 1.379 . S
C918 C915 1.363 . S
C918 N916 1.356 . S
C919 C913 1.363 . S
C919 C914 1.379 . S
C919 N917 1.356 . S
N920 C912 1.356 . S
N920 H926 0.984 . S
N920 H927 0.984 . S
N921 C914 1.356 . S
N921 H924 0.984 . S
N921 H925 0.985 . S
H922 N917 0.984 . S
H923 N917 0.985 . S
H924 N921 0.984 . S
H925 N921 0.985 . S
H926 N920 0.984 . S
H927 N920 0.984 . S
H928 N916 0.984 . S
H929 N916 0.985 . S
C930 C931 1.363 . S
C930 C936 1.379 . S
C930 N938 1.356 . S
C931 C930 1.363 . S
C931 C937 1.363 . S
C932 C933 1.363 . S
C932 C937 1.379 . S
C932 N939 1.356 . S
C933 C932 1.363 . S
C933 C936 1.363 . S
N934 C936 1.356 . S
N934 H946 0.984 . S
N934 H947 0.985 . S
N935 C937 1.356 . S
N935 H940 0.984 . S
N935 H941 0.985 . S
C936 C930 1.379 . S
C936 C933 1.363 . S
C936 N934 1.356 . S
C937 C931 1.363 . S
C937 C932 1.379 . S
C937 N935 1.356 . S
N938 C930 1.356 . S
N938 H944 0.984 . S
N938 H945 0.984 . S
N939 C932 1.356 . S
N939 H942 0.984 . S
N939 H943 0.985 . S
H940 N935 0.984 . S
H941 N935 0.985 . S
H942 N939 0.984 . S
H943 N939 0.985 . S
H944 N938 0.984 . S
H945 N938 0.984 . S
H946 N934 0.984 . S
H947 N934 0.985 . S
C409 C175 0.996 . S
C411 C5 0.996 . S
C427 C39 0.996 . S
C429 C107 0.996 . S
C445 C73 0.996 . S
C447 C141 0.996 . S
C463 C209 0.996 . S
C465 C379 0.996 . S
C481 C311 0.996 . S
C483 C243 0.996 . S
C499 C345 0.996 . S
C501 C277 0.996 . S
C517 C33 2.245 1_556 S
C519 C237 2.245 1_554 S
C535 C67 2.246 1_556 S
C537 C271 2.246 1_554 S
C553 C305 2.245 1_554 S
C555 C101 2.245 1_556 S
C571 C339 2.245 . S
C573 C135 2.245 . S
C589 C169 2.245 . S
C591 C373 2.245 . S
C607 C203 2.246 . S
C609 C407 2.246 . S
C625 C156 1.940 . S
C627 C20 1.940 . S
C643 C190 1.941 . S
C645 C54 1.941 . S
C661 C122 1.940 . S
C663 C88 1.940 . S
C679 C224 1.940 . S
C681 C360 1.940 . S
C697 C258 1.941 . S
C699 C394 1.941 . S
C715 C326 1.940 . S
C717 C292 1.940 . S
C733 C9 1.991 . S
C735 C70 2.140 . S
C751 C43 1.991 . S
C753 C2 2.140 . S
C769 C36 2.140 . S
C771 C77 1.990 . S
C787 C111 1.991 . S
C789 C138 2.140 . S
C805 C172 2.140 . S
C807 C145 1.990 . S
C823 C104 2.140 . S
C825 C179 1.991 . S
C841 C274 2.140 . S
C843 C213 1.991 . S
C859 C247 1.991 . S
C861 C206 2.140 . S
C877 C240 2.140 . S
C879 C281 1.990 . S
C895 C342 2.140 . S
C897 C315 1.991 . S
C913 C376 2.140 . S
C915 C349 1.990 . S
C931 C383 1.991 . S
C933 C308 2.140 . S
