# Generated by pormake.
# Topology uoc, (4)-cn, num edge types: 1
# Building blocks:
#     Node 0, Type 0, BuildingBlock: QUQFOY_clean_sbu_1, # of connection points: 4
#     Node 1, Type 0, BuildingBlock: QUQFOY_clean_sbu_1, # of connection points: 4
#     Node 2, Type 0, BuildingBlock: QUQFOY_clean_sbu_1, # of connection points: 4
#     Node 3, Type 0, BuildingBlock: QUQFOY_clean_sbu_1, # of connection points: 4
#     Node 4, Type 0, BuildingBlock: QUQFOY_clean_sbu_1, # of connection points: 4
#     Node 5, Type 0, BuildingBlock: QUQFOY_clean_sbu_1, # of connection points: 4
#     Node 6, Type 0, BuildingBlock: QUQFOY_clean_sbu_1, # of connection points: 4
#     Node 7, Type 0, BuildingBlock: QUQFOY_clean_sbu_1, # of connection points: 4
#     Edge 8, Type (0, 0), BuildingBlock: TEMPAE_clean_linker_10, # of connection points: 2
#     Edge 9, Type (0, 0), BuildingBlock: TEMPAE_clean_linker_10, # of connection points: 2
#     Edge 10, Type (0, 0), BuildingBlock: TEMPAE_clean_linker_10, # of connection points: 2
#     Edge 11, Type (0, 0), BuildingBlock: TEMPAE_clean_linker_10, # of connection points: 2
#     Edge 12, Type (0, 0), BuildingBlock: TEMPAE_clean_linker_10, # of connection points: 2
#     Edge 13, Type (0, 0), BuildingBlock: TEMPAE_clean_linker_10, # of connection points: 2
#     Edge 14, Type (0, 0), BuildingBlock: TEMPAE_clean_linker_10, # of connection points: 2
#     Edge 15, Type (0, 0), BuildingBlock: TEMPAE_clean_linker_10, # of connection points: 2
#     Edge 16, Type (0, 0), BuildingBlock: TEMPAE_clean_linker_10, # of connection points: 2
#     Edge 17, Type (0, 0), BuildingBlock: TEMPAE_clean_linker_10, # of connection points: 2
#     Edge 18, Type (0, 0), BuildingBlock: TEMPAE_clean_linker_10, # of connection points: 2
#     Edge 19, Type (0, 0), BuildingBlock: TEMPAE_clean_linker_10, # of connection points: 2
#     Edge 20, Type (0, 0), BuildingBlock: TEMPAE_clean_linker_10, # of connection points: 2
#     Edge 21, Type (0, 0), BuildingBlock: TEMPAE_clean_linker_10, # of connection points: 2
#     Edge 22, Type (0, 0), BuildingBlock: TEMPAE_clean_linker_10, # of connection points: 2
#     Edge 23, Type (0, 0), BuildingBlock: TEMPAE_clean_linker_10, # of connection points: 2
# Relax obj value: 0.072
# Max RMSD: 0.101
# Mean RMSD: 0.101
data_MOF--net-uoc--node1-QUQFOY_clean_sbu_1--edge1-TEMPAE_clean_linker_10
_symmetry_space_group_name_H-M    P1
_symmetry_Int_Tables_number       1
_symmetry_cell_setting            triclinic
loop_
_symmetry_equiv_pos_as_xyz
'x, y, z'
_cell_length_a     28.04736
_cell_length_b     28.040296
_cell_length_c     57.069395
_cell_angle_alpha  89.965184
_cell_angle_beta   90.01635
_cell_angle_gamma 112.58691
loop_
_atom_site_label
_atom_site_type_symbol
_atom_site_fract_x
_atom_site_fract_y
_atom_site_fract_z
_atom_type_partial_charge
O0 O 0.14045 0.2089 0.12697 0.0
Cd1 Cd 0.18777 0.28571 0.1276 0.0
Cd2 Cd 0.09789 0.29622 0.12962 0.0
O3 O 0.07119 0.22215 0.11594 0.0
O4 O 0.25164 0.29329 0.10975 0.0
O5 O 0.19231 0.32111 0.09674 0.0
C6 C 0.23377 0.31246 0.0929 0.0
C7 C 0.06256 0.35567 0.11743 0.0
C8 C 0.09432 0.19163 0.11941 0.0
C9 C 0.16405 0.31545 0.17367 0.0
O10 O 0.11964 0.30395 0.16454 0.0
O11 O 0.20208 0.31805 0.16082 0.0
O12 O 0.03692 0.31634 0.13025 0.0
O13 O 0.10792 0.36019 0.11047 0.0
O14 O 0.71376 0.63404 0.39773 0.0
Cd15 Cd 0.79039 0.6819 0.39726 0.0
Cd16 Cd 0.8017 0.59227 0.39506 0.0
O17 O 0.72744 0.56485 0.40855 0.0
O18 O 0.79717 0.74552 0.41514 0.0
O19 O 0.82553 0.68663 0.42821 0.0
C20 C 0.81641 0.72784 0.43203 0.0
C21 C 0.8613 0.55709 0.40723 0.0
C22 C 0.69671 0.58776 0.40512 0.0
C23 C 0.82089 0.65902 0.35117 0.0
O24 O 0.80976 0.61457 0.36021 0.0
O25 O 0.82293 0.69679 0.36408 0.0
O26 O 0.82222 0.53154 0.39427 0.0
O27 O 0.86549 0.60225 0.41434 0.0
O28 O 0.35589 0.2866 0.62742 0.0
Cd29 Cd 0.3107 0.20918 0.62821 0.0
Cd30 Cd 0.40166 0.20178 0.6294 0.0
O31 O 0.42562 0.27548 0.61543 0.0
O32 O 0.24633 0.19881 0.61016 0.0
O33 O 0.30805 0.17407 0.59747 0.0
C34 C 0.26563 0.18078 0.59342 0.0
C35 C 0.4378 0.14331 0.61682 0.0
C36 C 0.40155 0.30499 0.6193 0.0
C37 C 0.33741 0.18105 0.67399 0.0
O38 O 0.38166 0.1942 0.66452 0.0
O39 O 0.2984 0.17667 0.66144 0.0
O40 O 0.46365 0.18324 0.62924 0.0
O41 O 0.39176 0.13768 0.61044 0.0
O42 O 0.79109 0.85332 0.89753 0.0
Cd43 Cd 0.71382 0.80762 0.89679 0.0
Cd44 Cd 0.70579 0.89834 0.89552 0.0
O45 O 0.77947 0.92281 0.90951 0.0
O46 O 0.70411 0.74329 0.91477 0.0
O47 O 0.67872 0.80447 0.92759 0.0
C48 C 0.6859 0.76225 0.93157 0.0
C49 C 0.64696 0.9341 0.90801 0.0
C50 C 0.80922 0.899 0.90564 0.0
C51 C 0.68556 0.834 0.85096 0.0
O52 O 0.69847 0.87825 0.86041 0.0
O53 O 0.68132 0.79505 0.86355 0.0
O54 O 0.68682 0.96007 0.89557 0.0
O55 O 0.64159 0.88815 0.91445 0.0
O56 O 0.64102 0.70647 0.62733 0.0
Cd57 Cd 0.6878 0.78345 0.62782 0.0
Cd58 Cd 0.59766 0.79316 0.62941 0.0
O59 O 0.57183 0.71915 0.6157 0.0
O60 O 0.7518 0.79161 0.60993 0.0
O61 O 0.69169 0.81826 0.59684 0.0
C62 C 0.73344 0.81012 0.59302 0.0
C63 C 0.56202 0.85224 0.61705 0.0
C64 C 0.59511 0.68888 0.61949 0.0
C65 C 0.66307 0.81311 0.67368 0.0
O66 O 0.61873 0.80095 0.66441 0.0
O67 O 0.70148 0.81627 0.66097 0.0
O68 O 0.53632 0.81271 0.62974 0.0
O69 O 0.60762 0.85715 0.61029 0.0
O70 O 0.21092 0.13821 0.89775 0.0
Cd71 Cd 0.28804 0.18442 0.89712 0.0
Cd72 Cd 0.29689 0.09392 0.89564 0.0
O73 O 0.223 0.06874 0.90945 0.0
O74 O 0.29699 0.24865 0.91497 0.0
O75 O 0.32301 0.18803 0.92801 0.0
C76 C 0.31538 0.23005 0.93185 0.0
C77 C 0.35574 0.05806 0.90806 0.0
C78 C 0.19303 0.09235 0.90568 0.0
C79 C 0.31711 0.15902 0.85127 0.0
O80 O 0.30462 0.11468 0.86061 0.0
O81 O 0.32068 0.19763 0.86393 0.0
O82 O 0.31606 0.03232 0.89547 0.0
O83 O 0.3609 0.10381 0.9147 0.0
O84 O 0.8555 0.78913 0.12747 0.0
Cd85 Cd 0.81091 0.71154 0.12827 0.0
Cd86 Cd 0.90216 0.7052 0.12905 0.0
O87 O 0.92506 0.77858 0.11483 0.0
O88 O 0.74627 0.70049 0.11028 0.0
O89 O 0.80862 0.67683 0.09745 0.0
C90 C 0.76591 0.68301 0.09347 0.0
C91 C 0.9384 0.64683 0.11645 0.0
C92 C 0.90083 0.80782 0.11899 0.0
C93 C 0.83895 0.68426 0.17392 0.0
O94 O 0.88309 0.69818 0.16427 0.0
O95 O 0.79948 0.67887 0.16149 0.0
O96 O 0.96445 0.68714 0.12862 0.0
O97 O 0.89211 0.64079 0.11032 0.0
O98 O 0.29394 0.34904 0.39725 0.0
Cd99 Cd 0.21628 0.30486 0.3965 0.0
Cd100 Cd 0.21042 0.39638 0.39575 0.0
O101 O 0.28388 0.4189 0.40983 0.0
O102 O 0.20476 0.24016 0.41453 0.0
O103 O 0.18161 0.30291 0.42728 0.0
C104 C 0.18743 0.26003 0.43131 0.0
C105 C 0.15239 0.43292 0.40847 0.0
C106 C 0.31288 0.39441 0.40568 0.0
C107 C 0.18888 0.33309 0.3509 0.0
O108 O 0.20296 0.37726 0.36054 0.0
O109 O 0.18354 0.29359 0.36331 0.0
O110 O 0.19269 0.45888 0.39628 0.0
O111 O 0.1462 0.38655 0.41458 0.0
C112 C 0.30682 0.3222 0.06541 0.0
C113 C 0.25531 0.31614 0.06893 0.0
C114 C 0.32486 0.31641 0.04299 0.0
C115 C 0.29 0.30204 0.02385 0.0
C116 C 0.23846 0.29788 0.02719 0.0
C117 C 0.22206 0.30591 0.04958 0.0
C118 C 0.38063 0.32347 0.04001 0.0
C119 C 0.19949 0.28131 1.00751 0.0
C120 C 0.32646 0.30327 0.95945 0.0
C121 C 0.31919 0.25144 0.95585 0.0
C122 C 0.32086 0.32138 0.98189 0.0
C123 C 0.30543 0.28631 1.00094 0.0
C124 C 0.29999 0.23439 0.99751 0.0
C125 C 0.30788 0.2179 0.97513 0.0
C126 C 0.32929 0.37749 0.98496 0.0
C127 C 0.28226 0.19523 0.0171 0.0
H128 H 0.33271 0.33021 0.08031 0.0
H129 H 0.18204 0.30054 0.05223 0.0
H130 H 0.38325 0.28524 0.0379 0.0
H131 H 0.39717 0.34635 0.02401 0.0
H132 H 0.40449 0.3431 0.05535 0.0
H133 H 0.16148 0.28167 1.01275 0.0
H134 H 0.21389 0.30703 0.99214 0.0
H135 H 0.19375 0.24161 1.00185 0.0
H136 H 0.3353 0.32939 0.9446 0.0
H137 H 0.30155 0.17765 0.97241 0.0
H138 H 0.35215 0.39339 1.00103 0.0
H139 H 0.29152 0.38113 0.98701 0.0
H140 H 0.34956 0.40125 0.9697 0.0
H141 H 0.30789 0.20886 0.03254 0.0
H142 H 0.28161 0.15687 1.0118 0.0
H143 H 0.24278 0.19048 0.02269 0.0
C144 C 0.82335 0.62197 0.31147 0.0
C145 C 0.82683 0.66472 0.32526 0.0
C146 C 0.82438 0.62462 0.28691 0.0
C147 C 0.82926 0.67124 0.27566 0.0
C148 C 0.83363 0.71486 0.28939 0.0
C149 C 0.83231 0.71108 0.31403 0.0
C150 C 0.81981 0.57726 0.27298 0.0
C151 C 0.83931 0.76539 0.27805 0.0
C152 C 0.88053 0.69029 0.21323 0.0
C153 C 0.8353 0.67859 0.19988 0.0
C154 C 0.87908 0.68863 0.23781 0.0
C155 C 0.83117 0.67449 0.24952 0.0
C156 C 0.78523 0.66207 0.23623 0.0
C157 C 0.78783 0.66442 0.21158 0.0
C158 C 0.92898 0.70225 0.25125 0.0
C159 C 0.73333 0.64634 0.24809 0.0
H160 H 0.81905 0.58588 0.31988 0.0
H161 H 0.83479 0.74424 0.32445 0.0
H162 H 0.78582 0.56613 0.26118 0.0
H163 H 0.85442 0.58585 0.26176 0.0
H164 H 0.81575 0.54379 0.28437 0.0
H165 H 0.84244 0.79575 0.29115 0.0
H166 H 0.87421 0.77938 0.26678 0.0
H167 H 0.8056 0.75966 0.26658 0.0
H168 H 0.91753 0.70153 0.20448 0.0
H169 H 0.75272 0.65548 0.20149 0.0
H170 H 0.92764 0.66888 0.26207 0.0
H171 H 0.93417 0.73475 0.26339 0.0
H172 H 0.96317 0.71339 0.23953 0.0
H173 H 0.72593 0.61135 0.25892 0.0
H174 H 0.70125 0.6381 0.23531 0.0
H175 H 0.73319 0.67745 0.26005 0.0
C176 C 0.19291 0.16982 0.56551 0.0
C177 C 0.24446 0.17633 0.56933 0.0
C178 C 0.17521 0.17505 0.54292 0.0
C179 C 0.21043 0.18922 0.52392 0.0
C180 C 0.26198 0.1937 0.52757 0.0
C181 C 0.27806 0.1863 0.55012 0.0
C182 C 0.11944 0.16771 0.53964 0.0
C183 C 0.30128 0.20999 0.50802 0.0
C184 C 0.17537 0.18709 0.45929 0.0
C185 C 0.18287 0.2389 0.45542 0.0
C186 C 0.18041 0.16927 0.48187 0.0
C187 C 0.19539 0.20459 0.50083 0.0
C188 C 0.20091 0.25645 0.49713 0.0
C189 C 0.19368 0.27268 0.47459 0.0
C190 C 0.17195 0.11321 0.48522 0.0
C191 C 0.21809 0.29585 0.51662 0.0
H192 H 0.16671 0.16197 0.58029 0.0
H193 H 0.31809 0.19198 0.55298 0.0
H194 H 0.11669 0.20584 0.53731 0.0
H195 H 0.10329 0.14462 0.52365 0.0
H196 H 0.09532 0.14817 0.55493 0.0
H197 H 0.33921 0.20974 0.51348 0.0
H198 H 0.28717 0.18403 0.49271 0.0
H199 H 0.3071 0.2496 0.50216 0.0
H200 H 0.16688 0.16076 0.44454 0.0
H201 H 0.20012 0.31291 0.47169 0.0
H202 H 0.14882 0.09752 0.50125 0.0
H203 H 0.2097 0.10963 0.4875 0.0
H204 H 0.15195 0.08923 0.46997 0.0
H205 H 0.19214 0.28232 0.53197 0.0
H206 H 0.21871 0.33409 0.51112 0.0
H207 H 0.2575 0.30082 0.52244 0.0
C208 C 0.66858 0.7824 0.81347 0.0
C209 C 0.67985 0.82969 0.82501 0.0
C210 C 0.66662 0.77938 0.78882 0.0
C211 C 0.67641 0.82471 0.77537 0.0
C212 C 0.68747 0.8724 0.78692 0.0
C213 C 0.68886 0.87426 0.81149 0.0
C214 C 0.65423 0.7277 0.77716 0.0
C215 C 0.69814 0.92165 0.7733 0.0
C216 C 0.71488 0.82757 0.71104 0.0
C217 C 0.66801 0.8191 0.69961 0.0
C218 C 0.71823 0.82933 0.73568 0.0
C219 C 0.67365 0.8223 0.74923 0.0
C220 C 0.62644 0.81426 0.73779 0.0
C221 C 0.62424 0.81292 0.71321 0.0
C222 C 0.7694 0.83845 0.74724 0.0
C223 C 0.57801 0.80669 0.75151 0.0
H224 H 0.66174 0.7478 0.82369 0.0
H225 H 0.69779 0.91112 0.82012 0.0
H226 H 0.61915 0.71804 0.76614 0.0
H227 H 0.68634 0.7295 0.76538 0.0
H228 H 0.64765 0.6961 0.79005 0.0
H229 H 0.70693 0.95577 0.7849 0.0
H230 H 0.7313 0.92883 0.7613 0.0
H231 H 0.66423 0.91786 0.76231 0.0
H232 H 0.74885 0.83218 0.70075 0.0
H233 H 0.58772 0.80625 0.70467 0.0
H234 H 0.76563 0.8055 0.75889 0.0
H235 H 0.7812 0.87353 0.75836 0.0
H236 H 0.80047 0.84329 0.73428 0.0
H237 H 0.5688 0.77306 0.76344 0.0
H238 H 0.54419 0.80023 0.73998 0.0
H239 H 0.5842 0.84106 0.76259 0.0
C240 C 0.16989 0.2821 0.31323 0.0
C241 C 0.18294 0.32941 0.32495 0.0
C242 C 0.16755 0.27955 0.28857 0.0
C243 C 0.17878 0.32539 0.27532 0.0
C244 C 0.19167 0.37312 0.28707 0.0
C245 C 0.19341 0.37452 0.31164 0.0
C246 C 0.1532 0.22783 0.27669 0.0
C247 C 0.20394 0.42291 0.27366 0.0
C248 C 0.21607 0.3279 0.21085 0.0
C249 C 0.16944 0.3212 0.19958 0.0
C250 C 0.21971 0.32919 0.23549 0.0
C251 C 0.17568 0.32353 0.24918 0.0
C252 C 0.12876 0.31736 0.2379 0.0
C253 C 0.12626 0.31641 0.21333 0.0
C254 C 0.27056 0.33626 0.24687 0.0
C255 C 0.08095 0.31135 0.2518 0.0
H256 H 0.16192 0.24708 0.32329 0.0
H257 H 0.20373 0.4114 0.32041 0.0
H258 H 0.11815 0.21958 0.2658 0.0
H259 H 0.18473 0.22862 0.26476 0.0
H260 H 0.14567 0.19581 0.28944 0.0
H261 H 0.21405 0.45696 0.2854 0.0
H262 H 0.23673 0.42912 0.26154 0.0
H263 H 0.17029 0.42057 0.26281 0.0
H264 H 0.24958 0.3314 0.20045 0.0
H265 H 0.08995 0.31114 0.20491 0.0
H266 H 0.26571 0.30275 0.25834 0.0
H267 H 0.28362 0.37115 0.25815 0.0
H268 H 0.30121 0.34027 0.2338 0.0
H269 H 0.07065 0.27736 0.26357 0.0
H270 H 0.04729 0.30638 0.24038 0.0
H271 H 0.08853 0.34575 0.26304 0.0
C272 C 0.80654 0.82063 0.56542 0.0
C273 C 0.75478 0.81359 0.56901 0.0
C274 C 0.82459 0.81483 0.543 0.0
C275 C 0.78954 0.79941 0.52395 0.0
C276 C 0.73768 0.79414 0.52737 0.0
C277 C 0.72124 0.80223 0.54974 0.0
C278 C 0.88065 0.82308 0.53993 0.0
C279 C 0.69852 0.7764 0.5078 0.0
C280 C 0.82572 0.80082 0.4595 0.0
C281 C 0.81973 0.74931 0.456 0.0
C282 C 0.81976 0.81883 0.48191 0.0
C283 C 0.80525 0.78394 0.50104 0.0
C284 C 0.80106 0.73237 0.49771 0.0
C285 C 0.80929 0.71601 0.47534 0.0
C286 C 0.82684 0.87462 0.48487 0.0
C287 C 0.78432 0.69336 0.51739 0.0
H288 H 0.83265 0.82949 0.58026 0.0
H289 H 0.68104 0.79606 0.55245 0.0
H290 H 0.88416 0.78525 0.53786 0.0
H291 H 0.89663 0.84599 0.52387 0.0
H292 H 0.90442 0.84324 0.5552 0.0
H293 H 0.66019 0.77583 0.5131 0.0
H294 H 0.71218 0.802 0.49234 0.0
H295 H 0.6937 0.73688 0.50224 0.0
H296 H 0.83388 0.82675 0.4446 0.0
H297 H 0.80394 0.67598 0.4727 0.0
H298 H 0.84976 0.89116 0.50085 0.0
H299 H 0.78864 0.87726 0.48701 0.0
H300 H 0.84644 0.89848 0.46951 0.0
H301 H 0.80999 0.70768 0.53277 0.0
H302 H 0.7846 0.65532 0.51215 0.0
H303 H 0.74464 0.68772 0.52302 0.0
C304 C 0.3777 0.18381 0.7134 0.0
C305 C 0.33317 0.17522 0.69994 0.0
C306 C 0.37593 0.18241 0.73797 0.0
C307 C 0.32838 0.17181 0.74957 0.0
C308 C 0.28307 0.16241 0.73617 0.0
C309 C 0.286 0.16434 0.71152 0.0
C310 C 0.42514 0.19261 0.75154 0.0
C311 C 0.23154 0.15053 0.7479 0.0
C312 C 0.31633 0.11982 0.81178 0.0
C313 C 0.32301 0.16378 0.82534 0.0
C314 C 0.3176 0.1219 0.78721 0.0
C315 C 0.32607 0.16918 0.77571 0.0
C316 C 0.33361 0.21394 0.78921 0.0
C317 C 0.33191 0.21072 0.81386 0.0
C318 C 0.30948 0.07328 0.77353 0.0
C319 C 0.34319 0.26518 0.7776 0.0
H320 H 0.41446 0.19241 0.70473 0.0
H321 H 0.25143 0.15785 0.70135 0.0
H322 H 0.43274 0.22591 0.7635 0.0
H323 H 0.42101 0.15865 0.76257 0.0
H324 H 0.45913 0.20097 0.7399 0.0
H325 H 0.19994 0.14416 0.73504 0.0
H326 H 0.22164 0.11549 0.75896 0.0
H327 H 0.2337 0.18283 0.75963 0.0
H328 H 0.30932 0.08326 0.82037 0.0
H329 H 0.33691 0.24483 0.82411 0.0
H330 H 0.3437 0.07908 0.76241 0.0
H331 H 0.27583 0.06431 0.76165 0.0
H332 H 0.30276 0.03943 0.7851 0.0
H333 H 0.3782 0.2766 0.76644 0.0
H334 H 0.3484 0.29639 0.79053 0.0
H335 H 0.31029 0.26169 0.76598 0.0
C336 C 0.77855 0.68978 0.05019 0.0
C337 C 0.74478 0.6787 0.06937 0.0
C338 C 0.76229 0.69722 0.02768 0.0
C339 C 0.71041 0.69164 0.02403 0.0
C340 C 0.67512 0.67642 0.04299 0.0
C341 C 0.69297 0.6712 0.06555 0.0
C342 C 0.80168 0.71467 1.00819 0.0
C343 C 0.61905 0.66788 0.0397 0.0
C344 C 0.69169 0.77446 0.97488 0.0
C345 C 0.68171 0.74097 0.95564 0.0
C346 C 0.69927 0.7583 0.9974 0.0
C347 C 0.69498 0.70677 1.00098 0.0
C348 C 0.68085 0.67166 0.98193 0.0
C349 C 0.67544 0.68944 0.95938 0.0
C350 C 0.71552 0.79751 0.01698 0.0
C351 C 0.67371 0.61591 0.98514 0.0
H352 H 0.81878 0.69625 0.05306 0.0
H353 H 0.66665 0.66253 0.08031 0.0
H354 H 0.78821 0.68883 0.99281 0.0
H355 H 0.80653 0.7541 1.00244 0.0
H356 H 0.83995 0.71536 0.01366 0.0
H357 H 0.59511 0.64777 0.05494 0.0
H358 H 0.61539 0.70562 0.03746 0.0
H359 H 0.60338 0.64482 0.02365 0.0
H360 H 0.6972 0.81449 0.97208 0.0
H361 H 0.66761 0.66334 0.94458 0.0
H362 H 0.75516 0.80338 0.0228 0.0
H363 H 0.68962 0.78326 0.0323 0.0
H364 H 0.71517 0.83544 1.01157 0.0
H365 H 0.71188 0.61329 0.98744 0.0
H366 H 0.65426 0.59185 0.96982 0.0
H367 H 0.65063 0.59958 1.00111 0.0
C368 C 0.02454 0.11606 0.10078 0.0
C369 C 0.06678 0.1355 0.11606 0.0
C370 C 0.99708 0.06259 0.09838 0.0
C371 C 0.01142 0.02814 0.1121 0.0
C372 C 0.05443 0.04766 0.12733 0.0
C373 C 0.08198 0.10109 0.12888 0.0
C374 C 0.95226 0.043 0.08151 0.0
C375 C 0.07021 0.01226 0.14266 0.0
C376 C 0.91103 0.89762 0.12887 0.0
C377 C 0.92646 0.86413 0.1155 0.0
C378 C 0.93758 0.95123 0.12745 0.0
C379 C 0.97975 0.97186 0.11183 0.0
C380 C 0.99395 0.93834 0.09743 0.0
C381 C 0.96755 0.8847 0.09969 0.0
C382 C 0.92201 0.98562 0.14349 0.0
C383 C 0.03783 0.95909 0.08013 0.0
H384 H 0.01302 0.14263 0.09069 0.0
H385 H 0.11443 0.116 0.14083 0.0
H386 H 0.95638 0.0132 0.06982 0.0
H387 H 0.91568 0.02443 0.09137 0.0
H388 H 0.94916 0.07446 0.07056 0.0
H389 H 0.10515 0.03364 0.15326 0.0
H390 H 0.03816 0.9907 0.15475 0.0
H391 H 0.07808 0.98337 0.13177 0.0
H392 H 0.87943 0.88185 0.1412 0.0
H393 H 0.9792 0.85886 0.08916 0.0
H394 H 0.91424 0.01539 0.13318 0.0
H395 H 0.95417 0.00617 0.1557 0.0
H396 H 0.8871 0.96357 0.15398 0.0
H397 H 0.03326 0.9898 0.06919 0.0
H398 H 0.04019 0.92841 0.06844 0.0
H399 H 0.07495 0.97677 0.08968 0.0
C400 C 0.11369 0.4982 0.40112 0.0
C401 C 0.11254 0.45432 0.41333 0.0
C402 C 0.07309 0.51552 0.40295 0.0
C403 C 0.03059 0.48897 0.41773 0.0
C404 C 0.03055 0.44641 0.43116 0.0
C405 C 0.07128 0.42921 0.42861 0.0
C406 C 0.0744 0.56052 0.38802 0.0
C407 C 0.98654 0.41784 0.44752 0.0
C408 C 0.94062 0.55965 0.42871 0.0
C409 C 0.90185 0.53657 0.41202 0.0
C410 C 0.98153 0.54282 0.43168 0.0
C411 C 0.9843 0.50287 0.41723 0.0
C412 C 0.9445 0.47861 0.40081 0.0
C413 C 0.90359 0.49537 0.39859 0.0
C414 C 0.02256 0.5688 0.44977 0.0
C415 C 0.94631 0.43653 0.38474 0.0
H416 H 0.14532 0.51782 0.38924 0.0
H417 H 0.07025 0.39547 0.43821 0.0
H418 H 0.04256 0.54706 0.37501 0.0
H419 H 0.06832 0.59029 0.39901 0.0
H420 H 0.11151 0.57879 0.37845 0.0
H421 H 0.9954 0.39016 0.45891 0.0
H422 H 0.97741 0.44548 0.45876 0.0
H423 H 0.95142 0.39604 0.43717 0.0
H424 H 0.93938 0.59131 0.43924 0.0
H425 H 0.87394 0.4774 0.38558 0.0
H426 H 0.05942 0.5919 0.44089 0.0
H427 H 0.02964 0.53945 0.46071 0.0
H428 H 0.01179 0.59484 0.46139 0.0
H429 H 0.98072 0.45219 0.37321 0.0
H430 H 0.91136 0.42029 0.37353 0.0
H431 H 0.95005 0.40469 0.39511 0.0
C432 C 0.4693 0.38162 0.60032 0.0
C433 C 0.42766 0.36128 0.61586 0.0
C434 C 0.49595 0.43523 0.59805 0.0
C435 C 0.48143 0.46894 0.61217 0.0
C436 C 0.43878 0.44854 0.62755 0.0
C437 C 0.41201 0.39496 0.62898 0.0
C438 C 0.54036 0.45575 0.58101 0.0
C439 C 0.42284 0.48313 0.6433 0.0
C440 C 0.58295 0.59853 0.62929 0.0
C441 C 0.56795 0.63269 0.61617 0.0
C442 C 0.55561 0.54506 0.6278 0.0
C443 C 0.51304 0.52523 0.61234 0.0
C444 C 0.49897 0.55943 0.59832 0.0
C445 C 0.52619 0.61294 0.60066 0.0
C446 C 0.57108 0.50994 0.64346 0.0
C447 C 0.45463 0.53952 0.58121 0.0
H448 H 0.48114 0.35563 0.58999 0.0
H449 H 0.37999 0.37936 0.64111 0.0
H450 H 0.53605 0.48622 0.56981 0.0
H451 H 0.57717 0.47368 0.59077 0.0
H452 H 0.54316 0.42489 0.56956 0.0
H453 H 0.38774 0.46121 0.6537 0.0
H454 H 0.45474 0.50395 0.65558 0.0
H455 H 0.41521 0.51268 0.63276 0.0
H456 H 0.61504 0.61368 0.64142 0.0
H457 H 0.51483 0.63932 0.59034 0.0
H458 H 0.57917 0.48085 0.6328 0.0
H459 H 0.53877 0.48859 0.65546 0.0
H460 H 0.60579 0.53151 0.65416 0.0
H461 H 0.45909 0.50953 0.56975 0.0
H462 H 0.45182 0.57078 0.57002 0.0
H463 H 0.41778 0.5211 0.59089 0.0
C464 C 0.60662 -0.00218 0.90014 0.0
C465 C 0.60676 0.95504 0.91286 0.0
C466 C 0.56585 0.01483 0.90218 0.0
C467 C 0.52453 0.98915 0.9177 0.0
C468 C 0.52575 0.94766 0.93155 0.0
C469 C 0.56659 0.93068 0.92877 0.0
C470 C 0.56575 0.05863 0.88677 0.0
C471 C 0.48306 0.92009 0.94868 0.0
C472 C 0.43584 0.06105 0.92895 0.0
C473 C 0.39596 0.0371 0.91287 0.0
C474 C 0.47668 0.04405 0.93172 0.0
C475 C 0.47819 0.00298 0.91768 0.0
C476 C 0.43716 0.97772 0.90196 0.0
C477 C 0.39638 0.99472 0.89994 0.0
C478 C 0.51905 0.07116 0.94907 0.0
C479 C 0.43758 0.93438 0.88634 0.0
H480 H 0.63738 0.01682 0.88775 0.0
H481 H 0.56658 0.89779 0.93876 0.0
H482 H 0.53271 0.04421 0.87441 0.0
H483 H 0.56073 0.08927 0.89754 0.0
H484 H 0.60192 0.07611 0.87645 0.0
H485 H 0.49282 0.89313 0.96017 0.0
H486 H 0.47479 0.94842 0.95983 0.0
H487 H 0.44714 0.89768 0.93898 0.0
H488 H 0.43562 0.09363 0.9391 0.0
H489 H 0.36584 0.97604 0.88741 0.0
H490 H 0.55515 0.09382 0.93954 0.0
H491 H 0.5271 0.04251 0.96011 0.0
H492 H 0.50908 0.09781 0.96064 0.0
H493 H 0.47089 0.94917 0.87414 0.0
H494 H 0.40163 0.91723 0.87585 0.0
H495 H 0.44237 0.90342 0.89698 0.0
C496 C 0.93478 0.56587 0.09619 0.0
C497 C 0.95965 0.60684 0.11164 0.0
C498 C 0.95193 0.52511 0.0936 0.0
C499 C 0.99414 0.52479 0.10716 0.0
C500 C 0.02039 0.56696 0.12216 0.0
C501 C 0.00317 0.60762 0.12402 0.0
C502 C 0.92369 0.48147 0.07701 0.0
C503 C 0.065 0.56786 0.13725 0.0
C504 C 1.00032 0.39742 0.12591 0.0
C505 C 0.04191 0.39612 0.11264 0.0
C506 C 0.98348 0.43829 0.12374 0.0
C507 C 0.00804 0.4785 0.10753 0.0
C508 C 0.04837 0.47614 0.09321 0.0
C509 C 0.06526 0.43526 0.09613 0.0
C510 C 0.94098 0.43963 0.13967 0.0
C511 C 0.07469 0.51762 0.07534 0.0
H512 H 0.90132 0.56515 0.08646 0.0
H513 H 0.02258 0.63901 0.13605 0.0
H514 H 0.95156 0.47262 0.0658 0.0
H515 H 0.90173 0.44608 0.08717 0.0
H516 H 0.89624 0.49058 0.06558 0.0
H517 H 0.08298 0.60469 0.14706 0.0
H518 H 0.05124 0.53562 0.15006 0.0
H519 H 0.09506 0.56214 0.12634 0.0
H520 H 0.98214 0.36748 0.13878 0.0
H521 H 0.09722 0.43436 0.08571 0.0
H522 H 0.90942 0.44368 0.12921 0.0
H523 H 0.95635 0.47372 0.15141 0.0
H524 H 0.92447 0.40436 0.15067 0.0
H525 H 0.04557 0.52497 0.06436 0.0
H526 H 0.10095 0.50712 0.06374 0.0
H527 H 0.09761 0.55426 0.08442 0.0
C528 C 0.39003 0.46085 0.42491 0.0
C529 C 0.36922 0.41978 0.40911 0.0
C530 C 0.44369 0.48704 0.4271 0.0
C531 C 0.477 0.47266 0.41265 0.0
C532 C 0.45614 0.43048 0.39706 0.0
C533 C 0.4025 0.40414 0.39571 0.0
C534 C 0.46469 0.53094 0.44438 0.0
C535 C 0.4903 0.41472 0.38096 0.0
C536 C 0.60614 0.57496 0.39552 0.0
C537 C 0.6406 0.55986 0.40836 0.0
C538 C 0.55275 0.54728 0.39705 0.0
C539 C 0.53329 0.50423 0.41228 0.0
C540 C 0.56778 0.4899 0.42597 0.0
C541 C 0.62123 0.5175 0.42359 0.0
C542 C 0.51731 0.56304 0.38174 0.0
C543 C 0.54826 0.44503 0.44283 0.0
H544 H 0.36435 0.47267 0.43547 0.0
H545 H 0.38654 0.37254 0.38339 0.0
H546 H 0.49543 0.52627 0.45525 0.0
H547 H 0.48238 0.56804 0.4348 0.0
H548 H 0.43416 0.53341 0.45613 0.0
H549 H 0.46809 0.37974 0.37055 0.0
H550 H 0.51075 0.44679 0.36868 0.0
H551 H 0.52014 0.40698 0.39121 0.0
H552 H 0.62101 0.6075 0.38361 0.0
H553 H 0.64784 0.50606 0.43368 0.0
H554 H 0.48858 0.57109 0.39267 0.0
H555 H 0.49557 0.5309 0.36973 0.0
H556 H 0.53866 0.59787 0.37106 0.0
H557 H 0.5187 0.44926 0.45463 0.0
H558 H 0.57978 0.44175 0.45366 0.0
H559 H 0.52943 0.40848 0.43298 0.0
C560 C 0.50203 0.10351 0.62452 0.0
C561 C 0.45896 0.10328 0.61193 0.0
C562 C 0.51919 0.06283 0.62252 0.0
C563 C 0.49335 0.02122 0.60718 0.0
C564 C 0.4516 0.0221 0.59344 0.0
C565 C 0.43449 0.06286 0.59617 0.0
C566 C 0.56328 0.06312 0.63782 0.0
C567 C 0.42384 0.97908 0.57648 0.0
C568 C 0.56496 0.93221 0.59601 0.0
C569 C 0.5412 0.89257 0.61225 0.0
C570 C 0.54802 0.97308 0.59319 0.0
C571 C 0.50721 0.97489 0.60733 0.0
C572 C 0.48218 0.93414 0.62323 0.0
C573 C 0.4991 0.89331 0.6253 0.0
C574 C 0.57486 0.01515 0.57565 0.0
C575 C 0.43914 0.93489 0.63896 0.0
H576 H 0.52113 0.13448 0.6368 0.0
H577 H 0.40138 0.06257 0.58628 0.0
H578 H 0.5491 0.03037 0.65035 0.0
H579 H 0.59371 0.05783 0.62699 0.0
H580 H 0.58094 0.09955 0.64794 0.0
H581 H 0.39674 0.98863 0.56501 0.0
H582 H 0.45203 0.97061 0.56533 0.0
H583 H 0.40156 0.94333 0.58635 0.0
H584 H 0.59732 0.93175 0.58577 0.0
H585 H 0.48059 0.86297 0.63795 0.0
H586 H 0.59761 0.05145 0.58502 0.0
H587 H 0.54606 0.02296 0.56463 0.0
H588 H 0.60138 0.00499 0.56407 0.0
H589 H 0.45411 0.96849 0.65098 0.0
H590 H 0.42221 0.89918 0.64964 0.0
H591 H 0.40796 0.93939 0.62838 0.0
C592 C 0.8993 0.91008 0.89591 0.0
C593 C 0.86545 0.92541 0.90907 0.0
C594 C 0.95283 0.93702 0.89739 0.0
C595 C 0.97302 0.97949 0.91288 0.0
C596 C 0.93914 0.99374 0.92701 0.0
C597 C 0.88558 0.96694 0.92468 0.0
C598 C 0.98761 0.92137 0.88163 0.0
C599 C 0.95943 0.03796 0.94416 0.0
C600 C 0.11685 0.02373 0.92452 0.0
C601 C 0.13682 0.06558 0.90905 0.0
C602 C 0.06331 -0.00327 0.92684 0.0
C603 C 0.0293 0.01111 0.91285 0.0
C604 C 0.04934 0.05385 0.89748 0.0
C605 C 0.10284 0.08097 0.896 0.0
C606 C 0.04318 0.9522 0.94387 0.0
C607 C 0.01441 0.06966 0.88186 0.0
H608 H 0.88387 0.87816 0.88372 0.0
H609 H 0.85945 0.97853 0.93504 0.0
H610 H 0.00863 0.95354 0.86949 0.0
H611 H 0.01698 0.91347 0.89218 0.0
H612 H 0.96582 0.8865 0.87107 0.0
H613 H 0.92844 0.04063 0.95555 0.0
H614 H 0.98974 0.0335 0.9554 0.0
H615 H 0.9775 0.0749 0.93449 0.0
H616 H 0.14308 0.01208 0.93479 0.0
H617 H 0.11815 0.11314 0.88392 0.0
H618 H 0.02495 0.91544 0.9341 0.0
H619 H 0.01303 0.95651 0.95526 0.0
H620 H 0.07429 0.9493 0.95512 0.0
H621 H 0.99324 0.03761 0.86971 0.0
H622 H 0.03611 0.10462 0.87132 0.0
H623 H 0.98519 0.0775 0.89252 0.0
loop_
_geom_bond_atom_site_label_1
_geom_bond_atom_site_label_2
_geom_bond_distance
_geom_bond_site_symmetry_2
_ccdc_geom_bond_type
O0 Cd1 2.223 . S
O0 C8 1.315 . S
Cd1 O0 2.223 . S
Cd1 O4 2.297 . S
Cd1 O5 2.439 . S
Cd1 O11 2.240 . S
Cd2 O3 2.240 . S
Cd2 O10 2.223 . S
Cd2 O12 2.297 . S
Cd2 O13 2.439 . S
O3 Cd2 2.240 . S
O3 C8 1.279 . S
O4 Cd1 2.297 . S
O4 C6 1.247 . S
O5 Cd1 2.439 . S
O5 C6 1.208 . S
C6 O4 1.247 . S
C6 O5 1.208 . S
C7 O12 1.247 . S
C7 O13 1.208 . S
C8 O0 1.315 . S
C8 O3 1.279 . S
C9 O10 1.315 . S
C9 O11 1.279 . S
O10 Cd2 2.223 . S
O10 C9 1.315 . S
O11 Cd1 2.240 . S
O11 C9 1.279 . S
O12 Cd2 2.297 . S
O12 C7 1.247 . S
O13 Cd2 2.439 . S
O13 C7 1.208 . S
O14 Cd15 2.223 . S
O14 C22 1.315 . S
Cd15 O14 2.223 . S
Cd15 O18 2.297 . S
Cd15 O19 2.439 . S
Cd15 O25 2.240 . S
Cd16 O17 2.240 . S
Cd16 O24 2.223 . S
Cd16 O26 2.297 . S
Cd16 O27 2.439 . S
O17 Cd16 2.240 . S
O17 C22 1.279 . S
O18 Cd15 2.297 . S
O18 C20 1.247 . S
O19 Cd15 2.439 . S
O19 C20 1.208 . S
C20 O18 1.247 . S
C20 O19 1.208 . S
C21 O26 1.247 . S
C21 O27 1.208 . S
C22 O14 1.315 . S
C22 O17 1.279 . S
C23 O24 1.315 . S
C23 O25 1.279 . S
O24 Cd16 2.223 . S
O24 C23 1.315 . S
O25 Cd15 2.240 . S
O25 C23 1.279 . S
O26 Cd16 2.297 . S
O26 C21 1.247 . S
O27 Cd16 2.439 . S
O27 C21 1.208 . S
O28 Cd29 2.223 . S
O28 C36 1.315 . S
Cd29 O28 2.223 . S
Cd29 O32 2.297 . S
Cd29 O33 2.439 . S
Cd29 O39 2.240 . S
Cd30 O31 2.240 . S
Cd30 O38 2.223 . S
Cd30 O40 2.297 . S
Cd30 O41 2.439 . S
O31 Cd30 2.240 . S
O31 C36 1.279 . S
O32 Cd29 2.297 . S
O32 C34 1.247 . S
O33 Cd29 2.439 . S
O33 C34 1.208 . S
C34 O32 1.247 . S
C34 O33 1.208 . S
C35 O40 1.247 . S
C35 O41 1.208 . S
C36 O28 1.315 . S
C36 O31 1.279 . S
C37 O38 1.315 . S
C37 O39 1.279 . S
O38 Cd30 2.223 . S
O38 C37 1.315 . S
O39 Cd29 2.240 . S
O39 C37 1.279 . S
O40 Cd30 2.297 . S
O40 C35 1.247 . S
O41 Cd30 2.439 . S
O41 C35 1.208 . S
O42 Cd43 2.223 . S
O42 C50 1.315 . S
Cd43 O42 2.223 . S
Cd43 O46 2.297 . S
Cd43 O47 2.439 . S
Cd43 O53 2.240 . S
Cd44 O45 2.240 . S
Cd44 O52 2.223 . S
Cd44 O54 2.297 . S
Cd44 O55 2.439 . S
O45 Cd44 2.240 . S
O45 C50 1.279 . S
O46 Cd43 2.297 . S
O46 C48 1.247 . S
O47 Cd43 2.439 . S
O47 C48 1.208 . S
C48 O46 1.247 . S
C48 O47 1.208 . S
C49 O54 1.247 . S
C49 O55 1.208 . S
C50 O42 1.315 . S
C50 O45 1.279 . S
C51 O52 1.315 . S
C51 O53 1.279 . S
O52 Cd44 2.223 . S
O52 C51 1.315 . S
O53 Cd43 2.240 . S
O53 C51 1.279 . S
O54 Cd44 2.297 . S
O54 C49 1.247 . S
O55 Cd44 2.439 . S
O55 C49 1.208 . S
O56 Cd57 2.223 . S
O56 C64 1.315 . S
Cd57 O56 2.223 . S
Cd57 O60 2.297 . S
Cd57 O61 2.439 . S
Cd57 O67 2.240 . S
Cd58 O59 2.240 . S
Cd58 O66 2.223 . S
Cd58 O68 2.297 . S
Cd58 O69 2.439 . S
O59 Cd58 2.240 . S
O59 C64 1.279 . S
O60 Cd57 2.297 . S
O60 C62 1.247 . S
O61 Cd57 2.439 . S
O61 C62 1.208 . S
C62 O60 1.247 . S
C62 O61 1.208 . S
C63 O68 1.247 . S
C63 O69 1.208 . S
C64 O56 1.315 . S
C64 O59 1.279 . S
C65 O66 1.315 . S
C65 O67 1.279 . S
O66 Cd58 2.223 . S
O66 C65 1.315 . S
O67 Cd57 2.240 . S
O67 C65 1.279 . S
O68 Cd58 2.297 . S
O68 C63 1.247 . S
O69 Cd58 2.439 . S
O69 C63 1.208 . S
O70 Cd71 2.223 . S
O70 C78 1.315 . S
Cd71 O70 2.223 . S
Cd71 O74 2.297 . S
Cd71 O75 2.439 . S
Cd71 O81 2.240 . S
Cd72 O73 2.240 . S
Cd72 O80 2.223 . S
Cd72 O82 2.297 . S
Cd72 O83 2.439 . S
O73 Cd72 2.240 . S
O73 C78 1.279 . S
O74 Cd71 2.297 . S
O74 C76 1.247 . S
O75 Cd71 2.439 . S
O75 C76 1.208 . S
C76 O74 1.247 . S
C76 O75 1.208 . S
C77 O82 1.247 . S
C77 O83 1.208 . S
C78 O70 1.315 . S
C78 O73 1.279 . S
C79 O80 1.315 . S
C79 O81 1.279 . S
O80 Cd72 2.223 . S
O80 C79 1.315 . S
O81 Cd71 2.240 . S
O81 C79 1.279 . S
O82 Cd72 2.297 . S
O82 C77 1.247 . S
O83 Cd72 2.439 . S
O83 C77 1.208 . S
O84 Cd85 2.223 . S
O84 C92 1.315 . S
Cd85 O84 2.223 . S
Cd85 O88 2.297 . S
Cd85 O89 2.439 . S
Cd85 O95 2.240 . S
Cd86 O87 2.240 . S
Cd86 O94 2.223 . S
Cd86 O96 2.297 . S
Cd86 O97 2.439 . S
O87 Cd86 2.240 . S
O87 C92 1.279 . S
O88 Cd85 2.297 . S
O88 C90 1.247 . S
O89 Cd85 2.439 . S
O89 C90 1.208 . S
C90 O88 1.247 . S
C90 O89 1.208 . S
C91 O96 1.247 . S
C91 O97 1.208 . S
C92 O84 1.315 . S
C92 O87 1.279 . S
C93 O94 1.315 . S
C93 O95 1.279 . S
O94 Cd86 2.223 . S
O94 C93 1.315 . S
O95 Cd85 2.240 . S
O95 C93 1.279 . S
O96 Cd86 2.297 . S
O96 C91 1.247 . S
O97 Cd86 2.439 . S
O97 C91 1.208 . S
O98 Cd99 2.223 . S
O98 C106 1.315 . S
Cd99 O98 2.223 . S
Cd99 O102 2.297 . S
Cd99 O103 2.439 . S
Cd99 O109 2.240 . S
Cd100 O101 2.240 . S
Cd100 O108 2.223 . S
Cd100 O110 2.297 . S
Cd100 O111 2.439 . S
O101 Cd100 2.240 . S
O101 C106 1.279 . S
O102 Cd99 2.297 . S
O102 C104 1.247 . S
O103 Cd99 2.439 . S
O103 C104 1.208 . S
C104 O102 1.247 . S
C104 O103 1.208 . S
C105 O110 1.247 . S
C105 O111 1.208 . S
C106 O98 1.315 . S
C106 O101 1.279 . S
C107 O108 1.315 . S
C107 O109 1.279 . S
O108 Cd100 2.223 . S
O108 C107 1.315 . S
O109 Cd99 2.240 . S
O109 C107 1.279 . S
O110 Cd100 2.297 . S
O110 C105 1.247 . S
O111 Cd100 2.439 . S
O111 C105 1.208 . S
C112 C113 1.391 . S
C112 C114 1.394 . S
C112 H128 0.931 . S
C113 C112 1.391 . S
C113 C117 1.376 . S
C114 C112 1.394 . S
C114 C115 1.369 . S
C114 C118 1.531 . S
C115 C114 1.369 . S
C115 C116 1.410 . S
C115 C123 1.503 1_554 S
C116 C115 1.410 . S
C116 C117 1.392 . S
C116 C119 1.511 1_554 S
C117 C113 1.376 . S
C117 C116 1.392 . S
C117 H129 0.929 . S
C118 C114 1.531 . S
C118 H130 0.960 . S
C118 H131 0.962 . S
C118 H132 0.960 . S
C119 C116 1.511 1_556 S
C119 H133 0.960 . S
C119 H134 0.961 . S
C119 H135 0.961 . S
C120 C121 1.370 . S
C120 C122 1.363 . S
C120 H136 0.931 . S
C121 C120 1.370 . S
C121 C125 1.408 . S
C122 C120 1.363 . S
C122 C123 1.370 . S
C122 C126 1.524 . S
C123 C115 1.503 1_556 S
C123 C122 1.370 . S
C123 C124 1.403 . S
C124 C123 1.403 . S
C124 C125 1.404 . S
C124 C127 1.539 . S
C125 C121 1.408 . S
C125 C124 1.404 . S
C125 H137 0.930 . S
C126 C122 1.524 . S
C126 H138 0.956 1_556 S
C126 H139 0.961 . S
C126 H140 0.961 . S
C127 C124 1.539 . S
C127 H141 0.958 . S
C127 H142 0.961 . S
C127 H143 0.986 . S
H128 C112 0.931 . S
H129 C117 0.929 . S
H130 C118 0.960 . S
H131 C118 0.962 . S
H132 C118 0.960 . S
H133 C119 0.960 . S
H134 C119 0.961 . S
H135 C119 0.961 . S
H136 C120 0.931 . S
H137 C125 0.930 . S
H138 C126 0.956 1_554 S
H139 C126 0.961 . S
H140 C126 0.961 . S
H141 C127 0.958 . S
H142 C127 0.961 . S
H143 C127 0.986 . S
C144 C145 1.391 . S
C144 C146 1.394 . S
C144 H160 0.931 . S
C145 C144 1.391 . S
C145 C149 1.376 . S
C146 C144 1.394 . S
C146 C147 1.369 . S
C146 C150 1.531 . S
C147 C146 1.369 . S
C147 C148 1.410 . S
C147 C155 1.503 . S
C148 C147 1.410 . S
C148 C149 1.392 . S
C148 C151 1.511 . S
C149 C145 1.376 . S
C149 C148 1.392 . S
C149 H161 0.929 . S
C150 C146 1.531 . S
C150 H162 0.960 . S
C150 H163 0.962 . S
C150 H164 0.960 . S
C151 C148 1.511 . S
C151 H165 0.961 . S
C151 H166 0.961 . S
C151 H167 0.961 . S
C152 C153 1.370 . S
C152 C154 1.363 . S
C152 H168 0.931 . S
C153 C152 1.370 . S
C153 C157 1.408 . S
C154 C152 1.363 . S
C154 C155 1.370 . S
C154 C158 1.524 . S
C155 C147 1.503 . S
C155 C154 1.370 . S
C155 C156 1.403 . S
C156 C155 1.403 . S
C156 C157 1.404 . S
C156 C159 1.539 . S
C157 C153 1.408 . S
C157 C156 1.404 . S
C157 H169 0.930 . S
C158 C154 1.524 . S
C158 H170 0.956 . S
C158 H171 0.961 . S
C158 H172 0.961 . S
C159 C156 1.539 . S
C159 H173 0.958 . S
C159 H174 0.961 . S
C159 H175 0.960 . S
H160 C144 0.931 . S
H161 C149 0.929 . S
H162 C150 0.960 . S
H163 C150 0.962 . S
H164 C150 0.960 . S
H165 C151 0.961 . S
H166 C151 0.961 . S
H167 C151 0.961 . S
H168 C152 0.931 . S
H169 C157 0.930 . S
H170 C158 0.956 . S
H171 C158 0.961 . S
H172 C158 0.961 . S
H173 C159 0.958 . S
H174 C159 0.961 . S
H175 C159 0.960 . S
C176 C177 1.391 . S
C176 C178 1.394 . S
C176 H192 0.931 . S
C177 C176 1.391 . S
C177 C181 1.376 . S
C178 C176 1.394 . S
C178 C179 1.369 . S
C178 C182 1.531 . S
C179 C178 1.369 . S
C179 C180 1.410 . S
C179 C187 1.503 . S
C180 C179 1.410 . S
C180 C181 1.392 . S
C180 C183 1.511 . S
C181 C177 1.376 . S
C181 C180 1.392 . S
C181 H193 0.929 . S
C182 C178 1.531 . S
C182 H194 0.960 . S
C182 H195 0.962 . S
C182 H196 0.960 . S
C183 C180 1.511 . S
C183 H197 0.961 . S
C183 H198 0.961 . S
C183 H199 0.961 . S
C184 C185 1.370 . S
C184 C186 1.363 . S
C184 H200 0.931 . S
C185 C184 1.370 . S
C185 C189 1.408 . S
C186 C184 1.363 . S
C186 C187 1.370 . S
C186 C190 1.524 . S
C187 C179 1.503 . S
C187 C186 1.370 . S
C187 C188 1.403 . S
C188 C187 1.403 . S
C188 C189 1.404 . S
C188 C191 1.539 . S
C189 C185 1.408 . S
C189 C188 1.404 . S
C189 H201 0.930 . S
C190 C186 1.524 . S
C190 H202 0.956 . S
C190 H203 0.961 . S
C190 H204 0.961 . S
C191 C188 1.539 . S
C191 H205 0.958 . S
C191 H206 0.961 . S
C191 H207 0.960 . S
H192 C176 0.931 . S
H193 C181 0.929 . S
H194 C182 0.960 . S
H195 C182 0.962 . S
H196 C182 0.960 . S
H197 C183 0.961 . S
H198 C183 0.961 . S
H199 C183 0.961 . S
H200 C184 0.931 . S
H201 C189 0.930 . S
H202 C190 0.956 . S
H203 C190 0.961 . S
H204 C190 0.961 . S
H205 C191 0.958 . S
H206 C191 0.961 . S
H207 C191 0.960 . S
C208 C209 1.391 . S
C208 C210 1.394 . S
C208 H224 0.931 . S
C209 C208 1.391 . S
C209 C213 1.376 . S
C210 C208 1.394 . S
C210 C211 1.369 . S
C210 C214 1.531 . S
C211 C210 1.369 . S
C211 C212 1.410 . S
C211 C219 1.503 . S
C212 C211 1.410 . S
C212 C213 1.392 . S
C212 C215 1.511 . S
C213 C209 1.376 . S
C213 C212 1.392 . S
C213 H225 0.929 . S
C214 C210 1.531 . S
C214 H226 0.960 . S
C214 H227 0.962 . S
C214 H228 0.960 . S
C215 C212 1.511 . S
C215 H229 0.961 . S
C215 H230 0.961 . S
C215 H231 0.961 . S
C216 C217 1.370 . S
C216 C218 1.363 . S
C216 H232 0.931 . S
C217 C216 1.370 . S
C217 C221 1.408 . S
C218 C216 1.363 . S
C218 C219 1.370 . S
C218 C222 1.524 . S
C219 C211 1.503 . S
C219 C218 1.370 . S
C219 C220 1.403 . S
C220 C219 1.403 . S
C220 C221 1.404 . S
C220 C223 1.539 . S
C221 C217 1.408 . S
C221 C220 1.404 . S
C221 H233 0.930 . S
C222 C218 1.524 . S
C222 H234 0.956 . S
C222 H235 0.961 . S
C222 H236 0.961 . S
C223 C220 1.539 . S
C223 H237 0.958 . S
C223 H238 0.961 . S
C223 H239 0.960 . S
H224 C208 0.931 . S
H225 C213 0.929 . S
H226 C214 0.960 . S
H227 C214 0.962 . S
H228 C214 0.960 . S
H229 C215 0.961 . S
H230 C215 0.961 . S
H231 C215 0.961 . S
H232 C216 0.931 . S
H233 C221 0.930 . S
H234 C222 0.956 . S
H235 C222 0.961 . S
H236 C222 0.961 . S
H237 C223 0.958 . S
H238 C223 0.961 . S
H239 C223 0.960 . S
C240 C241 1.391 . S
C240 C242 1.394 . S
C240 H256 0.931 . S
C241 C240 1.391 . S
C241 C245 1.376 . S
C242 C240 1.394 . S
C242 C243 1.369 . S
C242 C246 1.531 . S
C243 C242 1.369 . S
C243 C244 1.410 . S
C243 C251 1.503 . S
C244 C243 1.410 . S
C244 C245 1.392 . S
C244 C247 1.511 . S
C245 C241 1.376 . S
C245 C244 1.392 . S
C245 H257 0.929 . S
C246 C242 1.531 . S
C246 H258 0.960 . S
C246 H259 0.962 . S
C246 H260 0.960 . S
C247 C244 1.511 . S
C247 H261 0.961 . S
C247 H262 0.961 . S
C247 H263 0.961 . S
C248 C249 1.370 . S
C248 C250 1.363 . S
C248 H264 0.931 . S
C249 C248 1.370 . S
C249 C253 1.408 . S
C250 C248 1.363 . S
C250 C251 1.370 . S
C250 C254 1.524 . S
C251 C243 1.503 . S
C251 C250 1.370 . S
C251 C252 1.403 . S
C252 C251 1.403 . S
C252 C253 1.404 . S
C252 C255 1.539 . S
C253 C249 1.408 . S
C253 C252 1.404 . S
C253 H265 0.930 . S
C254 C250 1.524 . S
C254 H266 0.956 . S
C254 H267 0.961 . S
C254 H268 0.961 . S
C255 C252 1.539 . S
C255 H269 0.958 . S
C255 H270 0.961 . S
C255 H271 0.960 . S
H256 C240 0.931 . S
H257 C245 0.929 . S
H258 C246 0.960 . S
H259 C246 0.962 . S
H260 C246 0.960 . S
H261 C247 0.961 . S
H262 C247 0.961 . S
H263 C247 0.961 . S
H264 C248 0.931 . S
H265 C253 0.930 . S
H266 C254 0.956 . S
H267 C254 0.961 . S
H268 C254 0.961 . S
H269 C255 0.958 . S
H270 C255 0.961 . S
H271 C255 0.960 . S
C272 C273 1.391 . S
C272 C274 1.394 . S
C272 H288 0.931 . S
C273 C272 1.391 . S
C273 C277 1.376 . S
C274 C272 1.394 . S
C274 C275 1.369 . S
C274 C278 1.531 . S
C275 C274 1.369 . S
C275 C276 1.410 . S
C275 C283 1.503 . S
C276 C275 1.410 . S
C276 C277 1.392 . S
C276 C279 1.511 . S
C277 C273 1.376 . S
C277 C276 1.392 . S
C277 H289 0.929 . S
C278 C274 1.531 . S
C278 H290 0.960 . S
C278 H291 0.962 . S
C278 H292 0.960 . S
C279 C276 1.511 . S
C279 H293 0.961 . S
C279 H294 0.961 . S
C279 H295 0.961 . S
C280 C281 1.370 . S
C280 C282 1.363 . S
C280 H296 0.931 . S
C281 C280 1.370 . S
C281 C285 1.408 . S
C282 C280 1.363 . S
C282 C283 1.370 . S
C282 C286 1.524 . S
C283 C275 1.503 . S
C283 C282 1.370 . S
C283 C284 1.403 . S
C284 C283 1.403 . S
C284 C285 1.404 . S
C284 C287 1.539 . S
C285 C281 1.408 . S
C285 C284 1.404 . S
C285 H297 0.930 . S
C286 C282 1.524 . S
C286 H298 0.956 . S
C286 H299 0.961 . S
C286 H300 0.961 . S
C287 C284 1.539 . S
C287 H301 0.958 . S
C287 H302 0.961 . S
C287 H303 0.960 . S
H288 C272 0.931 . S
H289 C277 0.929 . S
H290 C278 0.960 . S
H291 C278 0.962 . S
H292 C278 0.960 . S
H293 C279 0.961 . S
H294 C279 0.961 . S
H295 C279 0.961 . S
H296 C280 0.931 . S
H297 C285 0.930 . S
H298 C286 0.956 . S
H299 C286 0.961 . S
H300 C286 0.961 . S
H301 C287 0.958 . S
H302 C287 0.961 . S
H303 C287 0.960 . S
C304 C305 1.391 . S
C304 C306 1.394 . S
C304 H320 0.931 . S
C305 C304 1.391 . S
C305 C309 1.376 . S
C306 C304 1.394 . S
C306 C307 1.369 . S
C306 C310 1.531 . S
C307 C306 1.369 . S
C307 C308 1.410 . S
C307 C315 1.503 . S
C308 C307 1.410 . S
C308 C309 1.392 . S
C308 C311 1.511 . S
C309 C305 1.376 . S
C309 C308 1.392 . S
C309 H321 0.929 . S
C310 C306 1.531 . S
C310 H322 0.960 . S
C310 H323 0.962 . S
C310 H324 0.960 . S
C311 C308 1.511 . S
C311 H325 0.961 . S
C311 H326 0.961 . S
C311 H327 0.961 . S
C312 C313 1.370 . S
C312 C314 1.363 . S
C312 H328 0.931 . S
C313 C312 1.370 . S
C313 C317 1.408 . S
C314 C312 1.363 . S
C314 C315 1.370 . S
C314 C318 1.524 . S
C315 C307 1.503 . S
C315 C314 1.370 . S
C315 C316 1.403 . S
C316 C315 1.403 . S
C316 C317 1.404 . S
C316 C319 1.539 . S
C317 C313 1.408 . S
C317 C316 1.404 . S
C317 H329 0.930 . S
C318 C314 1.524 . S
C318 H330 0.956 . S
C318 H331 0.961 . S
C318 H332 0.961 . S
C319 C316 1.539 . S
C319 H333 0.958 . S
C319 H334 0.961 . S
C319 H335 0.960 . S
H320 C304 0.931 . S
H321 C309 0.929 . S
H322 C310 0.960 . S
H323 C310 0.962 . S
H324 C310 0.960 . S
H325 C311 0.961 . S
H326 C311 0.961 . S
H327 C311 0.961 . S
H328 C312 0.931 . S
H329 C317 0.930 . S
H330 C318 0.956 . S
H331 C318 0.961 . S
H332 C318 0.961 . S
H333 C319 0.958 . S
H334 C319 0.961 . S
H335 C319 0.960 . S
C336 C337 1.391 . S
C336 C338 1.394 . S
C336 H352 0.931 . S
C337 C336 1.391 . S
C337 C341 1.376 . S
C338 C336 1.394 . S
C338 C339 1.369 . S
C338 C342 1.531 . S
C339 C338 1.369 . S
C339 C340 1.410 . S
C339 C347 1.503 1_554 S
C340 C339 1.410 . S
C340 C341 1.392 . S
C340 C343 1.511 . S
C341 C337 1.376 . S
C341 C340 1.392 . S
C341 H353 0.929 . S
C342 C338 1.531 . S
C342 H354 0.960 1_554 S
C342 H355 0.962 . S
C342 H356 0.960 . S
C343 C340 1.511 . S
C343 H357 0.961 . S
C343 H358 0.961 1_554 S
C343 H359 0.961 1_554 S
C344 C345 1.370 . S
C344 C346 1.363 . S
C344 H360 0.931 . S
C345 C344 1.370 . S
C345 C349 1.408 . S
C346 C344 1.363 . S
C346 C347 1.370 . S
C346 C350 1.524 1_556 S
C347 C339 1.503 1_556 S
C347 C346 1.370 . S
C347 C348 1.403 . S
C348 C347 1.403 . S
C348 C349 1.404 . S
C348 C351 1.539 . S
C349 C345 1.408 . S
C349 C348 1.404 . S
C349 H361 0.930 . S
C350 C346 1.524 1_554 S
C350 H362 0.956 . S
C350 H363 0.961 . S
C350 H364 0.964 . S
C351 C348 1.539 . S
C351 H365 0.958 . S
C351 H366 0.961 . S
C351 H367 0.960 . S
H352 C336 0.931 . S
H353 C341 0.929 . S
H354 C342 0.960 1_556 S
H355 C342 0.962 . S
H356 C342 0.960 . S
H357 C343 0.961 . S
H358 C343 0.961 1_556 S
H359 C343 0.961 1_556 S
H360 C344 0.931 . S
H361 C349 0.930 . S
H362 C350 0.956 . S
H363 C350 0.961 . S
H364 C350 0.964 . S
H365 C351 0.958 . S
H366 C351 0.961 . S
H367 C351 0.960 . S
C368 C369 1.391 . S
C368 C370 1.394 . S
C368 H384 0.931 . S
C369 C368 1.391 . S
C369 C373 1.376 . S
C370 C368 1.394 . S
C370 C371 1.369 . S
C370 C374 1.531 1_455 S
C371 C370 1.369 . S
C371 C372 1.410 . S
C371 C379 1.503 1_445 S
C372 C371 1.410 . S
C372 C373 1.392 . S
C372 C375 1.511 . S
C373 C369 1.376 . S
C373 C372 1.392 . S
C373 H385 0.929 . S
C374 C370 1.531 1_655 S
C374 H386 0.960 . S
C374 H387 0.962 . S
C374 H388 0.960 . S
C375 C372 1.511 . S
C375 H389 0.961 . S
C375 H390 0.961 1_545 S
C375 H391 0.961 1_545 S
C376 C377 1.370 . S
C376 C378 1.363 . S
C376 H392 0.931 . S
C377 C376 1.370 . S
C377 C381 1.408 . S
C378 C376 1.363 . S
C378 C379 1.370 . S
C378 C382 1.524 . S
C379 C371 1.503 1_665 S
C379 C378 1.370 . S
C379 C380 1.403 . S
C380 C379 1.403 . S
C380 C381 1.404 . S
C380 C383 1.539 1_655 S
C381 C377 1.408 . S
C381 C380 1.404 . S
C381 H393 0.930 . S
C382 C378 1.524 . S
C382 H394 0.956 1_565 S
C382 H395 0.961 1_565 S
C382 H396 0.961 . S
C383 C380 1.539 1_455 S
C383 H397 0.958 . S
C383 H398 0.961 . S
C383 H399 0.960 . S
H384 C368 0.931 . S
H385 C373 0.929 . S
H386 C374 0.960 . S
H387 C374 0.962 . S
H388 C374 0.960 . S
H389 C375 0.961 . S
H390 C375 0.961 1_565 S
H391 C375 0.961 1_565 S
H392 C376 0.931 . S
H393 C381 0.930 . S
H394 C382 0.956 1_545 S
H395 C382 0.961 1_545 S
H396 C382 0.961 . S
H397 C383 0.958 . S
H398 C383 0.961 . S
H399 C383 0.960 . S
C400 C401 1.391 . S
C400 C402 1.394 . S
C400 H416 0.931 . S
C401 C400 1.391 . S
C401 C405 1.376 . S
C402 C400 1.394 . S
C402 C403 1.369 . S
C402 C406 1.531 . S
C403 C402 1.369 . S
C403 C404 1.410 . S
C403 C411 1.503 1_455 S
C404 C403 1.410 . S
C404 C405 1.392 . S
C404 C407 1.511 1_455 S
C405 C401 1.376 . S
C405 C404 1.392 . S
C405 H417 0.929 . S
C406 C402 1.531 . S
C406 H418 0.960 . S
C406 H419 0.962 . S
C406 H420 0.960 . S
C407 C404 1.511 1_655 S
C407 H421 0.961 . S
C407 H422 0.961 . S
C407 H423 0.961 . S
C408 C409 1.370 . S
C408 C410 1.363 . S
C408 H424 0.931 . S
C409 C408 1.370 . S
C409 C413 1.408 . S
C410 C408 1.363 . S
C410 C411 1.370 . S
C410 C414 1.524 . S
C411 C403 1.503 1_655 S
C411 C410 1.370 . S
C411 C412 1.403 . S
C412 C411 1.403 . S
C412 C413 1.404 . S
C412 C415 1.539 1_655 S
C413 C409 1.408 . S
C413 C412 1.404 . S
C413 H425 0.930 . S
C414 C410 1.524 . S
C414 H426 0.956 . S
C414 H427 0.961 . S
C414 H428 0.961 . S
C415 C412 1.539 1_455 S
C415 H429 0.958 . S
C415 H430 0.961 . S
C415 H431 0.960 . S
H416 C400 0.931 . S
H417 C405 0.929 . S
H418 C406 0.960 . S
H419 C406 0.962 . S
H420 C406 0.960 . S
H421 C407 0.961 . S
H422 C407 0.961 . S
H423 C407 0.961 . S
H424 C408 0.931 . S
H425 C413 0.930 . S
H426 C414 0.956 . S
H427 C414 0.961 . S
H428 C414 0.961 . S
H429 C415 0.958 . S
H430 C415 0.961 . S
H431 C415 0.960 . S
C432 C433 1.391 . S
C432 C434 1.394 . S
C432 H448 0.931 . S
C433 C432 1.391 . S
C433 C437 1.376 . S
C434 C432 1.394 . S
C434 C435 1.369 . S
C434 C438 1.531 . S
C435 C434 1.369 . S
C435 C436 1.410 . S
C435 C443 1.503 . S
C436 C435 1.410 . S
C436 C437 1.392 . S
C436 C439 1.511 . S
C437 C433 1.376 . S
C437 C436 1.392 . S
C437 H449 0.929 . S
C438 C434 1.531 . S
C438 H450 0.960 . S
C438 H451 0.962 . S
C438 H452 0.960 . S
C439 C436 1.511 . S
C439 H453 0.961 . S
C439 H454 0.961 . S
C439 H455 0.961 . S
C440 C441 1.370 . S
C440 C442 1.363 . S
C440 H456 0.931 . S
C441 C440 1.370 . S
C441 C445 1.408 . S
C442 C440 1.363 . S
C442 C443 1.370 . S
C442 C446 1.524 . S
C443 C435 1.503 . S
C443 C442 1.370 . S
C443 C444 1.403 . S
C444 C443 1.403 . S
C444 C445 1.404 . S
C444 C447 1.539 . S
C445 C441 1.408 . S
C445 C444 1.404 . S
C445 H457 0.930 . S
C446 C442 1.524 . S
C446 H458 0.956 . S
C446 H459 0.961 . S
C446 H460 0.961 . S
C447 C444 1.539 . S
C447 H461 0.958 . S
C447 H462 0.961 . S
C447 H463 0.960 . S
H448 C432 0.931 . S
H449 C437 0.929 . S
H450 C438 0.960 . S
H451 C438 0.962 . S
H452 C438 0.960 . S
H453 C439 0.961 . S
H454 C439 0.961 . S
H455 C439 0.961 . S
H456 C440 0.931 . S
H457 C445 0.930 . S
H458 C446 0.956 . S
H459 C446 0.961 . S
H460 C446 0.961 . S
H461 C447 0.958 . S
H462 C447 0.961 . S
H463 C447 0.960 . S
C464 C465 1.391 . S
C464 C466 1.394 . S
C464 H480 0.931 . S
C465 C464 1.391 . S
C465 C469 1.376 . S
C466 C464 1.394 . S
C466 C467 1.369 . S
C466 C470 1.531 1_565 S
C467 C466 1.369 . S
C467 C468 1.410 . S
C467 C475 1.503 1_565 S
C468 C467 1.410 . S
C468 C469 1.392 . S
C468 C471 1.511 . S
C469 C465 1.376 . S
C469 C468 1.392 . S
C469 H481 0.929 . S
C470 C466 1.531 1_545 S
C470 H482 0.960 . S
C470 H483 0.962 . S
C470 H484 0.960 . S
C471 C468 1.511 . S
C471 H485 0.961 . S
C471 H486 0.961 . S
C471 H487 0.961 . S
C472 C473 1.370 . S
C472 C474 1.363 . S
C472 H488 0.931 . S
C473 C472 1.370 . S
C473 C477 1.408 . S
C474 C472 1.363 . S
C474 C475 1.370 . S
C474 C478 1.524 . S
C475 C467 1.503 1_545 S
C475 C474 1.370 . S
C475 C476 1.403 . S
C476 C475 1.403 . S
C476 C477 1.404 . S
C476 C479 1.539 1_545 S
C477 C473 1.408 . S
C477 C476 1.404 . S
C477 H489 0.930 . S
C478 C474 1.524 . S
C478 H490 0.956 . S
C478 H491 0.961 . S
C478 H492 0.961 . S
C479 C476 1.539 1_565 S
C479 H493 0.958 . S
C479 H494 0.961 . S
C479 H495 0.960 . S
H480 C464 0.931 . S
H481 C469 0.929 . S
H482 C470 0.960 . S
H483 C470 0.962 . S
H484 C470 0.960 . S
H485 C471 0.961 . S
H486 C471 0.961 . S
H487 C471 0.961 . S
H488 C472 0.931 . S
H489 C477 0.930 . S
H490 C478 0.956 . S
H491 C478 0.961 . S
H492 C478 0.961 . S
H493 C479 0.958 . S
H494 C479 0.961 . S
H495 C479 0.960 . S
C496 C497 1.391 . S
C496 C498 1.394 . S
C496 H512 0.931 . S
C497 C496 1.391 . S
C497 C501 1.376 . S
C498 C496 1.394 . S
C498 C499 1.369 . S
C498 C502 1.531 . S
C499 C498 1.369 . S
C499 C500 1.410 1_655 S
C499 C507 1.503 1_655 S
C500 C499 1.410 1_455 S
C500 C501 1.392 1_455 S
C500 C503 1.511 . S
C501 C497 1.376 . S
C501 C500 1.392 1_655 S
C501 H513 0.929 . S
C502 C498 1.531 . S
C502 H514 0.960 . S
C502 H515 0.962 . S
C502 H516 0.960 . S
C503 C500 1.511 . S
C503 H517 0.961 . S
C503 H518 0.961 . S
C503 H519 0.961 . S
C504 C505 1.370 . S
C504 C506 1.363 . S
C504 H520 0.931 . S
C505 C504 1.370 . S
C505 C509 1.408 . S
C506 C504 1.363 . S
C506 C507 1.370 . S
C506 C510 1.524 1_455 S
C507 C499 1.503 1_455 S
C507 C506 1.370 . S
C507 C508 1.403 . S
C508 C507 1.403 . S
C508 C509 1.404 . S
C508 C511 1.539 . S
C509 C505 1.408 . S
C509 C508 1.404 . S
C509 H521 0.930 . S
C510 C506 1.524 1_655 S
C510 H522 0.956 . S
C510 H523 0.961 . S
C510 H524 0.961 . S
C511 C508 1.539 . S
C511 H525 0.958 . S
C511 H526 0.961 . S
C511 H527 0.960 . S
H512 C496 0.931 . S
H513 C501 0.929 . S
H514 C502 0.960 . S
H515 C502 0.962 . S
H516 C502 0.960 . S
H517 C503 0.961 . S
H518 C503 0.961 . S
H519 C503 0.961 . S
H520 C504 0.931 . S
H521 C509 0.930 . S
H522 C510 0.956 . S
H523 C510 0.961 . S
H524 C510 0.961 . S
H525 C511 0.958 . S
H526 C511 0.961 . S
H527 C511 0.960 . S
C528 C529 1.391 . S
C528 C530 1.394 . S
C528 H544 0.931 . S
C529 C528 1.391 . S
C529 C533 1.376 . S
C530 C528 1.394 . S
C530 C531 1.369 . S
C530 C534 1.531 . S
C531 C530 1.369 . S
C531 C532 1.410 . S
C531 C539 1.503 . S
C532 C531 1.410 . S
C532 C533 1.392 . S
C532 C535 1.511 . S
C533 C529 1.376 . S
C533 C532 1.392 . S
C533 H545 0.929 . S
C534 C530 1.531 . S
C534 H546 0.960 . S
C534 H547 0.962 . S
C534 H548 0.960 . S
C535 C532 1.511 . S
C535 H549 0.961 . S
C535 H550 0.961 . S
C535 H551 0.961 . S
C536 C537 1.370 . S
C536 C538 1.363 . S
C536 H552 0.931 . S
C537 C536 1.370 . S
C537 C541 1.408 . S
C538 C536 1.363 . S
C538 C539 1.370 . S
C538 C542 1.524 . S
C539 C531 1.503 . S
C539 C538 1.370 . S
C539 C540 1.403 . S
C540 C539 1.403 . S
C540 C541 1.404 . S
C540 C543 1.539 . S
C541 C537 1.408 . S
C541 C540 1.404 . S
C541 H553 0.930 . S
C542 C538 1.524 . S
C542 H554 0.956 . S
C542 H555 0.961 . S
C542 H556 0.961 . S
C543 C540 1.539 . S
C543 H557 0.958 . S
C543 H558 0.961 . S
C543 H559 0.960 . S
H544 C528 0.931 . S
H545 C533 0.929 . S
H546 C534 0.960 . S
H547 C534 0.962 . S
H548 C534 0.960 . S
H549 C535 0.961 . S
H550 C535 0.961 . S
H551 C535 0.961 . S
H552 C536 0.931 . S
H553 C541 0.930 . S
H554 C542 0.956 . S
H555 C542 0.961 . S
H556 C542 0.961 . S
H557 C543 0.958 . S
H558 C543 0.961 . S
H559 C543 0.960 . S
C560 C561 1.391 . S
C560 C562 1.394 . S
C560 H576 0.931 . S
C561 C560 1.391 . S
C561 C565 1.376 . S
C562 C560 1.394 . S
C562 C563 1.369 . S
C562 C566 1.531 . S
C563 C562 1.369 . S
C563 C564 1.410 1_545 S
C563 C571 1.503 1_545 S
C564 C563 1.410 1_565 S
C564 C565 1.392 1_565 S
C564 C567 1.511 . S
C565 C561 1.376 . S
C565 C564 1.392 1_545 S
C565 H577 0.929 . S
C566 C562 1.531 . S
C566 H578 0.960 . S
C566 H579 0.962 . S
C566 H580 0.960 . S
C567 C564 1.511 . S
C567 H581 0.961 . S
C567 H582 0.961 . S
C567 H583 0.961 . S
C568 C569 1.370 . S
C568 C570 1.363 . S
C568 H584 0.931 . S
C569 C568 1.370 . S
C569 C573 1.408 . S
C570 C568 1.363 . S
C570 C571 1.370 . S
C570 C574 1.524 1_565 S
C571 C563 1.503 1_565 S
C571 C570 1.370 . S
C571 C572 1.403 . S
C572 C571 1.403 . S
C572 C573 1.404 . S
C572 C575 1.539 . S
C573 C569 1.408 . S
C573 C572 1.404 . S
C573 H585 0.930 . S
C574 C570 1.524 1_545 S
C574 H586 0.956 . S
C574 H587 0.961 . S
C574 H588 0.961 . S
C575 C572 1.539 . S
C575 H589 0.958 . S
C575 H590 0.961 . S
C575 H591 0.960 . S
H576 C560 0.931 . S
H577 C565 0.929 . S
H578 C566 0.960 . S
H579 C566 0.962 . S
H580 C566 0.960 . S
H581 C567 0.961 . S
H582 C567 0.961 . S
H583 C567 0.961 . S
H584 C568 0.931 . S
H585 C573 0.930 . S
H586 C574 0.956 . S
H587 C574 0.961 . S
H588 C574 0.961 . S
H589 C575 0.958 . S
H590 C575 0.961 . S
H591 C575 0.960 . S
C592 C593 1.391 . S
C592 C594 1.394 . S
C592 H608 0.931 . S
C593 C592 1.391 . S
C593 C597 1.376 . S
C594 C592 1.394 . S
C594 C595 1.369 . S
C594 C598 1.531 . S
C595 C594 1.369 . S
C595 C596 1.410 1_565 S
C595 C603 1.503 1_665 S
C596 C595 1.410 1_545 S
C596 C597 1.392 1_545 S
C596 C599 1.511 . S
C597 C593 1.376 . S
C597 C596 1.392 1_565 S
C597 H609 0.929 . S
C598 C594 1.531 . S
C598 H610 0.960 1_655 S
C598 H611 0.962 1_655 S
C598 H612 0.960 . S
C599 C596 1.511 . S
C599 H613 0.961 . S
C599 H614 0.961 . S
C599 H615 0.961 . S
C600 C601 1.370 . S
C600 C602 1.363 . S
C600 H616 0.931 . S
C601 C600 1.370 . S
C601 C605 1.408 . S
C602 C600 1.363 . S
C602 C603 1.370 . S
C602 C606 1.524 1_545 S
C603 C595 1.503 1_445 S
C603 C602 1.370 . S
C603 C604 1.403 . S
C604 C603 1.403 . S
C604 C605 1.404 . S
C604 C607 1.539 . S
C605 C601 1.408 . S
C605 C604 1.404 . S
C605 H617 0.930 . S
C606 C602 1.524 1_565 S
C606 H618 0.956 . S
C606 H619 0.961 . S
C606 H620 0.961 . S
C607 C604 1.539 . S
C607 H621 0.958 . S
C607 H622 0.961 . S
C607 H623 0.960 1_455 S
H608 C592 0.931 . S
H609 C597 0.929 . S
H610 C598 0.960 1_455 S
H611 C598 0.962 1_455 S
H612 C598 0.960 . S
H613 C599 0.961 . S
H614 C599 0.961 . S
H615 C599 0.961 . S
H616 C600 0.931 . S
H617 C605 0.930 . S
H618 C606 0.956 . S
H619 C606 0.961 . S
H620 C606 0.961 . S
H621 C607 0.958 . S
H622 C607 0.961 . S
H623 C607 0.960 1_655 S
C113 C6 1.362 . S
C121 C76 1.371 . S
C145 C23 1.191 . S
C153 C93 1.233 . S
C177 C34 1.363 . S
C185 C104 1.371 . S
C209 C51 1.194 . S
C217 C65 1.224 . S
C241 C107 1.191 . S
C249 C9 1.232 . S
C273 C62 1.359 . S
C281 C20 1.373 . S
C305 C37 1.257 . S
C313 C79 1.247 . S
C337 C90 1.386 . S
C345 C48 1.367 . S
C369 C8 1.554 . S
C377 C92 1.574 . S
C401 C105 1.579 . S
C409 C21 1.611 . S
C433 C36 1.554 . S
C441 C64 1.572 . S
C465 C49 1.615 . S
C473 C77 1.597 . S
C497 C91 1.602 . S
C505 C7 1.621 . S
C529 C106 1.555 . S
C537 C22 1.574 . S
C561 C35 1.607 . S
C569 C63 1.599 . S
C593 C50 1.587 . S
C601 C78 1.576 . S
