# Generated by pormake.
# Topology unw, (4)-cn, num edge types: 1
# Building blocks:
#     Node 0, Type 0, BuildingBlock: KOZSID_clean_sbu_0, # of connection points: 4
#     Node 1, Type 0, BuildingBlock: KOZSID_clean_sbu_0, # of connection points: 4
#     Node 2, Type 0, BuildingBlock: KOZSID_clean_sbu_0, # of connection points: 4
#     Node 3, Type 0, BuildingBlock: KOZSID_clean_sbu_0, # of connection points: 4
#     Node 4, Type 0, BuildingBlock: KOZSID_clean_sbu_0, # of connection points: 4
#     Node 5, Type 0, BuildingBlock: KOZSID_clean_sbu_0, # of connection points: 4
#     Node 6, Type 0, BuildingBlock: KOZSID_clean_sbu_0, # of connection points: 4
#     Node 7, Type 0, BuildingBlock: KOZSID_clean_sbu_0, # of connection points: 4
#     Node 8, Type 0, BuildingBlock: KOZSID_clean_sbu_0, # of connection points: 4
#     Node 9, Type 0, BuildingBlock: KOZSID_clean_sbu_0, # of connection points: 4
#     Node 10, Type 0, BuildingBlock: KOZSID_clean_sbu_0, # of connection points: 4
#     Node 11, Type 0, BuildingBlock: KOZSID_clean_sbu_0, # of connection points: 4
#     Node 12, Type 0, BuildingBlock: KOZSID_clean_sbu_0, # of connection points: 4
#     Node 13, Type 0, BuildingBlock: KOZSID_clean_sbu_0, # of connection points: 4
#     Node 14, Type 0, BuildingBlock: KOZSID_clean_sbu_0, # of connection points: 4
#     Node 15, Type 0, BuildingBlock: KOZSID_clean_sbu_0, # of connection points: 4
#     Node 16, Type 0, BuildingBlock: KOZSID_clean_sbu_0, # of connection points: 4
#     Node 17, Type 0, BuildingBlock: KOZSID_clean_sbu_0, # of connection points: 4
#     Node 18, Type 0, BuildingBlock: KOZSID_clean_sbu_0, # of connection points: 4
#     Node 19, Type 0, BuildingBlock: KOZSID_clean_sbu_0, # of connection points: 4
#     Node 20, Type 0, BuildingBlock: KOZSID_clean_sbu_0, # of connection points: 4
#     Node 21, Type 0, BuildingBlock: KOZSID_clean_sbu_0, # of connection points: 4
#     Node 22, Type 0, BuildingBlock: KOZSID_clean_sbu_0, # of connection points: 4
#     Node 23, Type 0, BuildingBlock: KOZSID_clean_sbu_0, # of connection points: 4
#     Edge 24, Type (0, 0), BuildingBlock: CIFDUS_clean_linker_0, # of connection points: 2
#     Edge 25, Type (0, 0), BuildingBlock: CIFDUS_clean_linker_0, # of connection points: 2
#     Edge 26, Type (0, 0), BuildingBlock: CIFDUS_clean_linker_0, # of connection points: 2
#     Edge 27, Type (0, 0), BuildingBlock: CIFDUS_clean_linker_0, # of connection points: 2
#     Edge 28, Type (0, 0), BuildingBlock: CIFDUS_clean_linker_0, # of connection points: 2
#     Edge 29, Type (0, 0), BuildingBlock: CIFDUS_clean_linker_0, # of connection points: 2
#     Edge 30, Type (0, 0), BuildingBlock: CIFDUS_clean_linker_0, # of connection points: 2
#     Edge 31, Type (0, 0), BuildingBlock: CIFDUS_clean_linker_0, # of connection points: 2
#     Edge 32, Type (0, 0), BuildingBlock: CIFDUS_clean_linker_0, # of connection points: 2
#     Edge 33, Type (0, 0), BuildingBlock: CIFDUS_clean_linker_0, # of connection points: 2
#     Edge 34, Type (0, 0), BuildingBlock: CIFDUS_clean_linker_0, # of connection points: 2
#     Edge 35, Type (0, 0), BuildingBlock: CIFDUS_clean_linker_0, # of connection points: 2
#     Edge 36, Type (0, 0), BuildingBlock: CIFDUS_clean_linker_0, # of connection points: 2
#     Edge 37, Type (0, 0), BuildingBlock: CIFDUS_clean_linker_0, # of connection points: 2
#     Edge 38, Type (0, 0), BuildingBlock: CIFDUS_clean_linker_0, # of connection points: 2
#     Edge 39, Type (0, 0), BuildingBlock: CIFDUS_clean_linker_0, # of connection points: 2
#     Edge 40, Type (0, 0), BuildingBlock: CIFDUS_clean_linker_0, # of connection points: 2
#     Edge 41, Type (0, 0), BuildingBlock: CIFDUS_clean_linker_0, # of connection points: 2
#     Edge 42, Type (0, 0), BuildingBlock: CIFDUS_clean_linker_0, # of connection points: 2
#     Edge 43, Type (0, 0), BuildingBlock: CIFDUS_clean_linker_0, # of connection points: 2
#     Edge 44, Type (0, 0), BuildingBlock: CIFDUS_clean_linker_0, # of connection points: 2
#     Edge 45, Type (0, 0), BuildingBlock: CIFDUS_clean_linker_0, # of connection points: 2
#     Edge 46, Type (0, 0), BuildingBlock: CIFDUS_clean_linker_0, # of connection points: 2
#     Edge 47, Type (0, 0), BuildingBlock: CIFDUS_clean_linker_0, # of connection points: 2
#     Edge 48, Type (0, 0), BuildingBlock: CIFDUS_clean_linker_0, # of connection points: 2
#     Edge 49, Type (0, 0), BuildingBlock: CIFDUS_clean_linker_0, # of connection points: 2
#     Edge 50, Type (0, 0), BuildingBlock: CIFDUS_clean_linker_0, # of connection points: 2
#     Edge 51, Type (0, 0), BuildingBlock: CIFDUS_clean_linker_0, # of connection points: 2
#     Edge 52, Type (0, 0), BuildingBlock: CIFDUS_clean_linker_0, # of connection points: 2
#     Edge 53, Type (0, 0), BuildingBlock: CIFDUS_clean_linker_0, # of connection points: 2
#     Edge 54, Type (0, 0), BuildingBlock: CIFDUS_clean_linker_0, # of connection points: 2
#     Edge 55, Type (0, 0), BuildingBlock: CIFDUS_clean_linker_0, # of connection points: 2
#     Edge 56, Type (0, 0), BuildingBlock: CIFDUS_clean_linker_0, # of connection points: 2
#     Edge 57, Type (0, 0), BuildingBlock: CIFDUS_clean_linker_0, # of connection points: 2
#     Edge 58, Type (0, 0), BuildingBlock: CIFDUS_clean_linker_0, # of connection points: 2
#     Edge 59, Type (0, 0), BuildingBlock: CIFDUS_clean_linker_0, # of connection points: 2
#     Edge 60, Type (0, 0), BuildingBlock: CIFDUS_clean_linker_0, # of connection points: 2
#     Edge 61, Type (0, 0), BuildingBlock: CIFDUS_clean_linker_0, # of connection points: 2
#     Edge 62, Type (0, 0), BuildingBlock: CIFDUS_clean_linker_0, # of connection points: 2
#     Edge 63, Type (0, 0), BuildingBlock: CIFDUS_clean_linker_0, # of connection points: 2
#     Edge 64, Type (0, 0), BuildingBlock: CIFDUS_clean_linker_0, # of connection points: 2
#     Edge 65, Type (0, 0), BuildingBlock: CIFDUS_clean_linker_0, # of connection points: 2
#     Edge 66, Type (0, 0), BuildingBlock: CIFDUS_clean_linker_0, # of connection points: 2
#     Edge 67, Type (0, 0), BuildingBlock: CIFDUS_clean_linker_0, # of connection points: 2
#     Edge 68, Type (0, 0), BuildingBlock: CIFDUS_clean_linker_0, # of connection points: 2
#     Edge 69, Type (0, 0), BuildingBlock: CIFDUS_clean_linker_0, # of connection points: 2
#     Edge 70, Type (0, 0), BuildingBlock: CIFDUS_clean_linker_0, # of connection points: 2
#     Edge 71, Type (0, 0), BuildingBlock: CIFDUS_clean_linker_0, # of connection points: 2
# Relax obj value: 0.344
# Max RMSD: 0.296
# Mean RMSD: 0.270
data_MOF--net-unw--node1-KOZSID_clean_sbu_0--edge1-CIFDUS_clean_linker_0
_symmetry_space_group_name_H-M    P1
_symmetry_Int_Tables_number       1
_symmetry_cell_setting            triclinic
loop_
_symmetry_equiv_pos_as_xyz
'x, y, z'
_cell_length_a     56.170767
_cell_length_b     46.414297
_cell_length_c     49.496976
_cell_angle_alpha  89.981155
_cell_angle_beta   90.577582
_cell_angle_gamma 89.977985
loop_
_atom_site_label
_atom_site_type_symbol
_atom_site_fract_x
_atom_site_fract_y
_atom_site_fract_z
_atom_type_partial_charge
C0 C 0.13606 0.44817 0.20318 0.0
C1 C 0.12352 0.45032 0.17897 0.0
C2 C 0.10945 0.42632 0.1771 0.0
C3 C 0.11435 0.41063 0.19998 0.0
N4 N 0.13004 0.42372 0.21682 0.0
Co5 Co 0.1467 0.40577 0.24874 0.0
N6 N 0.13357 0.36673 0.24046 0.0
C7 C 0.11619 0.36066 0.22227 0.0
C8 C 0.11049 0.33194 0.2213 0.0
C9 C 0.12506 0.31904 0.24006 0.0
C10 C 0.13885 0.34071 0.25152 0.0
N11 N 0.16495 0.38815 0.27948 0.0
C12 C 0.16815 0.36011 0.28624 0.0
C13 C 0.18283 0.35737 0.30887 0.0
C14 C 0.18927 0.38459 0.31642 0.0
C15 C 0.17825 0.40238 0.29808 0.0
N16 N 0.15929 0.44493 0.25721 0.0
C17 C 0.17072 0.45321 0.28001 0.0
C18 C 0.17823 0.48135 0.27924 0.0
C19 C 0.17188 0.49117 0.25412 0.0
C20 C 0.16097 0.46831 0.24093 0.0
N21 N 0.11846 0.41193 0.27297 0.0
C22 C 0.07938 0.39924 0.30748 0.0
C23 C 0.1019 0.40652 0.31797 0.0
C24 C 0.12087 0.41286 0.30062 0.0
C25 C 0.0764 0.40219 0.27941 0.0
C26 C 0.09568 0.40947 0.26298 0.0
N27 N 0.174 0.39832 0.2251 0.0
C28 C 0.21622 0.39792 0.21654 0.0
C29 C 0.21242 0.38265 0.19244 0.0
C30 C 0.18905 0.37675 0.18446 0.0
C31 C 0.17031 0.38459 0.20097 0.0
C32 C 0.19676 0.40559 0.23254 0.0
H33 H 0.1529 0.37883 0.19407 0.0
H34 H 0.2003 0.41681 0.25113 0.0
H35 H 0.1374 0.41773 0.31023 0.0
H36 H 0.09166 0.41197 0.24211 0.0
C37 C 0.10806 0.38166 0.20395 0.0
C38 C 0.15455 0.46865 0.21219 0.0
C39 C 0.15697 0.33561 0.27252 0.0
C40 C 0.17959 0.4325 0.29797 0.0
H41 H 0.12509 0.46663 0.16353 0.0
H42 H 0.09846 0.41996 0.16003 0.0
H43 H 0.0979 0.32145 0.20785 0.0
H44 H 0.1257 0.29621 0.24447 0.0
H45 H 0.18815 0.33775 0.31911 0.0
H46 H 0.20059 0.39068 0.33331 0.0
H47 H 0.18906 0.49253 0.2941 0.0
H48 H 0.17613 0.5121 0.24579 0.0
H49 H 0.10524 0.40688 0.33953 0.0
H50 H 0.05954 0.39788 0.26953 0.0
H51 H 0.23407 0.40301 0.22348 0.0
H52 H 0.18519 0.36564 0.16567 0.0
C53 C 0.62411 0.09 0.32111 0.0
C54 C 0.61183 0.0907 0.34524 0.0
C55 C 0.60104 0.11708 0.34649 0.0
C56 C 0.60741 0.13099 0.32317 0.0
N57 N 0.62096 0.11467 0.30672 0.0
Co58 Co 0.63738 0.12739 0.27294 0.0
N59 N 0.6279 0.16847 0.27876 0.0
C60 C 0.6131 0.17863 0.29793 0.0
C61 C 0.61021 0.20797 0.29701 0.0
C62 C 0.62411 0.21702 0.27613 0.0
C63 C 0.63471 0.19259 0.26547 0.0
N64 N 0.65469 0.13983 0.23978 0.0
C65 C 0.65939 0.16665 0.23054 0.0
C66 C 0.67279 0.16587 0.20711 0.0
C67 C 0.67685 0.13751 0.20152 0.0
C68 C 0.66579 0.12266 0.22176 0.0
N69 N 0.64677 0.08628 0.26724 0.0
C70 C 0.65742 0.07488 0.24534 0.0
C71 C 0.66312 0.04629 0.24832 0.0
C72 C 0.65635 0.0393 0.27393 0.0
C73 C 0.64692 0.06416 0.28512 0.0
N74 N 0.60759 0.12202 0.25063 0.0
C75 C 0.56893 0.13225 0.21431 0.0
C76 C 0.58963 0.11818 0.20587 0.0
C77 C 0.6084 0.11306 0.22421 0.0
C78 C 0.5671 0.13805 0.24199 0.0
C79 C 0.58612 0.1321 0.2596 0.0
N80 N 0.66666 0.13395 0.2944 0.0
C81 C 0.70952 0.1339 0.29742 0.0
C82 C 0.70895 0.15318 0.31919 0.0
C83 C 0.68678 0.16053 0.32974 0.0
C84 C 0.66601 0.15052 0.31726 0.0
C85 C 0.68826 0.12455 0.28541 0.0
H86 H 0.64957 0.15753 0.32567 0.0
H87 H 0.68958 0.11064 0.26823 0.0
H88 H 0.62357 0.10252 0.21624 0.0
H89 H 0.58319 0.13691 0.28022 0.0
C90 C 0.60424 0.16049 0.31814 0.0
C91 C 0.63995 0.06649 0.31335 0.0
C92 C 0.65156 0.19333 0.24323 0.0
C93 C 0.66629 0.09273 0.22505 0.0
H94 H 0.6116 0.07436 0.36084 0.0
H95 H 0.59112 0.1258 0.36325 0.0
H96 H 0.59989 0.22129 0.31048 0.0
H97 H 0.62653 0.23914 0.26978 0.0
H98 H 0.67912 0.18394 0.19537 0.0
H99 H 0.68701 0.12878 0.18495 0.0
H100 H 0.67277 0.03277 0.23437 0.0
H101 H 0.65913 0.01872 0.28375 0.0
H102 H 0.59164 0.11151 0.18506 0.0
H103 H 0.55148 0.14833 0.25021 0.0
H104 H 0.72627 0.12678 0.28907 0.0
H105 H 0.6853 0.17526 0.3466 0.0
C106 C 0.88946 0.55493 0.21178 0.0
C107 C 0.89839 0.55995 0.18618 0.0
C108 C 0.90937 0.58627 0.18709 0.0
C109 C 0.9063 0.59601 0.21299 0.0
N110 N 0.89478 0.57701 0.2289 0.0
Co111 Co 0.88148 0.5846 0.26569 0.0
N112 N 0.88928 0.62649 0.26363 0.0
C113 C 0.90292 0.63939 0.2448 0.0
C114 C 0.905 0.66855 0.24852 0.0
C115 C 0.89197 0.6745 0.27105 0.0
C116 C 0.88275 0.64847 0.27999 0.0
N117 N 0.8666 0.59178 0.30155 0.0
C118 C 0.86193 0.61691 0.31423 0.0
C119 C 0.85121 0.61226 0.33905 0.0
C120 C 0.84859 0.58316 0.34178 0.0
C121 C 0.85788 0.57174 0.31866 0.0
N122 N 0.87439 0.54262 0.26794 0.0
C123 C 0.86738 0.52773 0.28986 0.0
C124 C 0.86311 0.49913 0.28455 0.0
C125 C 0.86696 0.49596 0.25747 0.0
C126 C 0.87323 0.52293 0.24785 0.0
N127 N 0.91338 0.57875 0.28386 0.0
C128 C 0.95478 0.59281 0.31469 0.0
C129 C 0.93536 0.57879 0.32643 0.0
C130 C 0.9152 0.57173 0.31077 0.0
C131 C 0.95418 0.59576 0.28649 0.0
C132 C 0.93388 0.5877 0.27162 0.0
N133 N 0.85032 0.59189 0.24817 0.0
C134 C 0.80747 0.58741 0.24635 0.0
C135 C 0.806 0.60842 0.22594 0.0
C136 C 0.82727 0.61995 0.21634 0.0
C137 C 0.84893 0.61133 0.22745 0.0
C138 C 0.82976 0.57944 0.25714 0.0
H139 H 0.86442 0.6214 0.2195 0.0
H140 H 0.83019 0.56367 0.27306 0.0
H141 H 0.90115 0.56137 0.32122 0.0
H142 H 0.93507 0.59004 0.25033 0.0
C143 C 0.91022 0.62439 0.22171 0.0
C144 C 0.87494 0.52988 0.21919 0.0
C145 C 0.86746 0.6455 0.30364 0.0
C146 C 0.85935 0.54233 0.31268 0.0
H147 H 0.89637 0.54679 0.16832 0.0
H148 H 0.91702 0.59784 0.1703 0.0
H149 H 0.91397 0.68389 0.23567 0.0
H150 H 0.88921 0.69571 0.27948 0.0
H151 H 0.84592 0.6282 0.35376 0.0
H152 H 0.84091 0.57173 0.35864 0.0
H153 H 0.85593 0.48314 0.29815 0.0
H154 H 0.86392 0.47659 0.24576 0.0
H155 H 0.93532 0.57374 0.34777 0.0
H156 H 0.96876 0.60541 0.27565 0.0
H157 H 0.79155 0.57745 0.25423 0.0
H158 H 0.82735 0.63659 0.20102 0.0
C159 C 0.37687 0.94678 0.29114 0.0
C160 C 0.39204 0.95265 0.31273 0.0
C161 C 0.40627 0.92855 0.3162 0.0
C162 C 0.39957 0.9096 0.29612 0.0
N163 N 0.38237 0.9207 0.28031 0.0
Co164 Co 0.36649 0.90101 0.24974 0.0
N165 N 0.37441 0.86255 0.26387 0.0
C166 C 0.39213 0.85691 0.28164 0.0
C167 C 0.39429 0.82792 0.28681 0.0
C168 C 0.37709 0.81479 0.27102 0.0
C169 C 0.3653 0.83653 0.25699 0.0
N170 N 0.3497 0.88259 0.21917 0.0
C171 C 0.34143 0.85537 0.21672 0.0
C172 C 0.33072 0.85153 0.19149 0.0
C173 C 0.33299 0.87707 0.17773 0.0
C174 C 0.3448 0.89518 0.1952 0.0
N175 N 0.3593 0.93948 0.23552 0.0
C176 C 0.35605 0.94634 0.20944 0.0
C177 C 0.35432 0.97564 0.20559 0.0
C178 C 0.35645 0.98757 0.23101 0.0
C179 C 0.35865 0.9647 0.24894 0.0
N180 N 0.39661 0.89975 0.22912 0.0
C181 C 0.44223 0.88998 0.2073 0.0
C182 C 0.42354 0.87082 0.2025 0.0
C183 C 0.40123 0.87581 0.21375 0.0
C184 C 0.43728 0.91513 0.22214 0.0
C185 C 0.41422 0.9199 0.23238 0.0
N186 N 0.33714 0.90038 0.27074 0.0
C187 C 0.29446 0.89604 0.27321 0.0
C188 C 0.2966 0.8845 0.29938 0.0
C189 C 0.31901 0.88387 0.31167 0.0
C190 C 0.3389 0.89168 0.2971 0.0
C191 C 0.31511 0.90408 0.2592 0.0
H192 H 0.35589 0.8886 0.30682 0.0
H193 H 0.31343 0.91158 0.23861 0.0
H194 H 0.38822 0.85908 0.21113 0.0
H195 H 0.41097 0.93919 0.24398 0.0
C196 C 0.40394 0.87961 0.29544 0.0
C197 C 0.35915 0.96669 0.27865 0.0
C198 C 0.34717 0.83171 0.2356 0.0
C199 C 0.34936 0.9247 0.19102 0.0
H200 H 0.39317 0.97222 0.32448 0.0
H201 H 0.41907 0.92484 0.33232 0.0
H202 H 0.4065 0.81755 0.30079 0.0
H203 H 0.37386 0.79185 0.26965 0.0
H204 H 0.32294 0.83199 0.18339 0.0
H205 H 0.32661 0.88187 0.15752 0.0
H206 H 0.35045 0.98689 0.1869 0.0
H207 H 0.35527 0.01023 0.23597 0.0
H208 H 0.42651 0.85093 0.19158 0.0
H209 H 0.45123 0.93065 0.22629 0.0
H210 H 0.27727 0.89718 0.26316 0.0
H211 H 0.32136 0.87573 0.33205 0.0
C212 C 0.12083 0.55396 0.78539 0.0
C213 C 0.10694 0.55479 0.80831 0.0
C214 C 0.09366 0.5798 0.80661 0.0
C215 C 0.10013 0.5928 0.78274 0.0
N216 N 0.11643 0.57718 0.76952 0.0
Co217 Co 0.13346 0.58866 0.73664 0.0
N218 N 0.12677 0.62976 0.74271 0.0
C219 C 0.10928 0.64039 0.75819 0.0
C220 C 0.10925 0.67003 0.75845 0.0
C221 C 0.12774 0.67821 0.74202 0.0
C222 C 0.13806 0.65302 0.73258 0.0
N223 N 0.15108 0.59933 0.70395 0.0
C224 C 0.16071 0.62494 0.69735 0.0
C225 C 0.17143 0.62345 0.6722 0.0
C226 C 0.16817 0.59578 0.66296 0.0
C227 C 0.15565 0.58199 0.68285 0.0
N228 N 0.13982 0.54748 0.73057 0.0
C229 C 0.14515 0.535 0.70689 0.0
C230 C 0.15002 0.50612 0.70977 0.0
C231 C 0.14777 0.5004 0.73691 0.0
C232 C 0.1415 0.5262 0.74911 0.0
N233 N 0.10378 0.58665 0.7149 0.0
C234 C 0.05901 0.5928 0.68911 0.0
C235 C 0.07807 0.61068 0.68254 0.0
C236 C 0.09996 0.60748 0.69568 0.0
C237 C 0.0632 0.57064 0.70806 0.0
C238 C 0.08583 0.56767 0.72044 0.0
N239 N 0.16269 0.59251 0.75815 0.0
C240 C 0.20546 0.59369 0.76025 0.0
C241 C 0.20475 0.61257 0.7825 0.0
C242 C 0.18253 0.61861 0.79374 0.0
C243 C 0.16189 0.60819 0.78149 0.0
C244 C 0.18419 0.58386 0.74839 0.0
H245 H 0.14517 0.61487 0.78984 0.0
H246 H 0.18508 0.5708 0.73038 0.0
H247 H 0.11335 0.62324 0.69116 0.0
H248 H 0.08852 0.55088 0.73529 0.0
C249 C 0.09681 0.6221 0.77597 0.0
C250 C 0.13734 0.5306 0.77809 0.0
C251 C 0.15776 0.65141 0.71321 0.0
C252 C 0.1517 0.55215 0.68477 0.0
H253 H 0.10678 0.53927 0.82464 0.0
H254 H 0.08207 0.58844 0.82196 0.0
H255 H 0.09794 0.68405 0.77018 0.0
H256 H 0.13306 0.7001 0.73765 0.0
H257 H 0.18037 0.6406 0.66151 0.0
H258 H 0.17488 0.58662 0.64443 0.0
H259 H 0.15634 0.49145 0.69443 0.0
H260 H 0.15104 0.47983 0.74646 0.0
H261 H 0.07574 0.6284 0.66851 0.0
H262 H 0.04899 0.55615 0.71371 0.0
H263 H 0.22222 0.58757 0.7513 0.0
H264 H 0.18074 0.63308 0.81074 0.0
C265 C 0.3797 0.09938 0.69908 0.0
C266 C 0.39504 0.10381 0.67776 0.0
C267 C 0.40615 0.12994 0.68254 0.0
C268 C 0.39701 0.13995 0.70652 0.0
N269 N 0.38102 0.12155 0.71677 0.0
Co270 Co 0.36158 0.12785 0.74905 0.0
N271 N 0.36534 0.16988 0.7468 0.0
C272 C 0.38349 0.18349 0.73474 0.0
C273 C 0.38272 0.21275 0.73894 0.0
C274 C 0.36288 0.21744 0.75455 0.0
C275 C 0.35213 0.19079 0.75842 0.0
N276 N 0.34208 0.13332 0.78149 0.0
C277 C 0.33276 0.15795 0.79137 0.0
C278 C 0.32899 0.15488 0.81901 0.0
C279 C 0.3336 0.12663 0.82552 0.0
C280 C 0.34142 0.11439 0.80206 0.0
N281 N 0.35805 0.08588 0.75142 0.0
C282 C 0.35364 0.0708 0.77396 0.0
C283 C 0.3517 0.04176 0.76895 0.0
C284 C 0.3552 0.03871 0.74158 0.0
C285 C 0.35923 0.06618 0.73147 0.0
N286 N 0.39039 0.12644 0.77224 0.0
C287 C 0.43296 0.13133 0.80282 0.0
C288 C 0.4307 0.11088 0.78184 0.0
C289 C 0.40916 0.10852 0.76707 0.0
C290 C 0.41287 0.14791 0.80878 0.0
C291 C 0.39237 0.14577 0.79301 0.0
N292 N 0.33329 0.13076 0.72594 0.0
C293 C 0.29115 0.12533 0.71804 0.0
C294 C 0.29241 0.14392 0.69567 0.0
C295 C 0.3147 0.15406 0.68788 0.0
C296 C 0.33473 0.14745 0.70326 0.0
C297 C 0.31193 0.11896 0.73297 0.0
H298 H 0.3513 0.15704 0.6973 0.0
H299 H 0.31068 0.10551 0.75072 0.0
H300 H 0.40795 0.09294 0.7509 0.0
H301 H 0.37836 0.1607 0.7974 0.0
C302 C 0.39824 0.16848 0.71647 0.0
C303 C 0.3651 0.07346 0.70341 0.0
C304 C 0.33116 0.18502 0.77557 0.0
C305 C 0.34728 0.08523 0.79784 0.0
H306 H 0.39775 0.08978 0.6606 0.0
H307 H 0.41828 0.14102 0.66925 0.0
H308 H 0.39479 0.22885 0.73118 0.0
H309 H 0.35734 0.23803 0.76254 0.0
H310 H 0.32488 0.17149 0.83355 0.0
H311 H 0.3322 0.11658 0.84517 0.0
H312 H 0.34719 0.02495 0.78317 0.0
H313 H 0.35478 0.0186 0.7306 0.0
H314 H 0.44555 0.09738 0.77624 0.0
H315 H 0.41286 0.16314 0.82531 0.0
H316 H 0.27421 0.1169 0.72464 0.0
H317 H 0.31662 0.16788 0.67039 0.0
C318 C 0.8735 0.4439 0.79323 0.0
C319 C 0.88843 0.44453 0.81572 0.0
C320 C 0.90186 0.41971 0.81495 0.0
C321 C 0.89436 0.40508 0.79225 0.0
N322 N 0.87727 0.41949 0.77872 0.0
Co323 Co 0.85849 0.40481 0.74765 0.0
N324 N 0.86597 0.36424 0.75649 0.0
C325 C 0.88425 0.35541 0.77225 0.0
C326 C 0.88542 0.32593 0.77434 0.0
C327 C 0.86697 0.31574 0.7586 0.0
C328 C 0.8555 0.33964 0.74765 0.0
N329 N 0.83924 0.39101 0.71661 0.0
C330 C 0.83064 0.36437 0.71122 0.0
C331 C 0.8184 0.36423 0.68665 0.0
C332 C 0.81981 0.39161 0.67633 0.0
C333 C 0.83274 0.407 0.69503 0.0
N334 N 0.85126 0.44538 0.73914 0.0
C335 C 0.84429 0.45595 0.71507 0.0
C336 C 0.83946 0.485 0.7162 0.0
C337 C 0.84343 0.49286 0.74269 0.0
C338 C 0.85038 0.46807 0.75621 0.0
N339 N 0.88679 0.40555 0.72425 0.0
C340 C 0.92886 0.40064 0.69339 0.0
C341 C 0.9243 0.42531 0.70934 0.0
C342 C 0.90327 0.42724 0.72473 0.0
C343 C 0.91137 0.37914 0.69309 0.0
C344 C 0.89068 0.38222 0.70797 0.0
N345 N 0.83054 0.40258 0.77067 0.0
C346 C 0.78804 0.40416 0.77534 0.0
C347 C 0.7895 0.38687 0.79865 0.0
C348 C 0.81216 0.38017 0.80892 0.0
C349 C 0.83235 0.38852 0.79486 0.0
C350 C 0.80877 0.41164 0.76157 0.0
H351 H 0.8494 0.38183 0.80275 0.0
H352 H 0.80714 0.42342 0.74284 0.0
H353 H 0.90047 0.44595 0.73731 0.0
H354 H 0.87817 0.3648 0.70683 0.0
C355 C 0.89739 0.37538 0.78774 0.0
C356 C 0.85605 0.46636 0.78521 0.0
C357 C 0.83672 0.33817 0.72664 0.0
C358 C 0.83637 0.43698 0.69482 0.0
H359 H 0.88922 0.46045 0.83158 0.0
H360 H 0.91407 0.41211 0.83044 0.0
H361 H 0.89779 0.31334 0.78639 0.0
H362 H 0.86273 0.29329 0.75514 0.0
H363 H 0.80995 0.34605 0.67678 0.0
H364 H 0.81196 0.39943 0.65766 0.0
H365 H 0.83211 0.4984 0.70027 0.0
H366 H 0.84085 0.51407 0.75126 0.0
H367 H 0.93686 0.44295 0.71023 0.0
H368 H 0.9137 0.35916 0.68223 0.0
H369 H 0.771 0.41083 0.76706 0.0
H370 H 0.81449 0.36687 0.82671 0.0
C371 C 0.63023 0.93359 0.70371 0.0
C372 C 0.61631 0.93554 0.68055 0.0
C373 C 0.60156 0.91173 0.68053 0.0
C374 C 0.60726 0.89662 0.70368 0.0
N375 N 0.62446 0.90977 0.71811 0.0
Co376 Co 0.6407 0.89443 0.75058 0.0
N377 N 0.63125 0.85449 0.74216 0.0
C378 C 0.61305 0.84683 0.72577 0.0
C379 C 0.61025 0.81745 0.72442 0.0
C380 C 0.6276 0.80618 0.74119 0.0
C381 C 0.64012 0.82938 0.7519 0.0
N382 N 0.65786 0.87983 0.7828 0.0
C383 C 0.66541 0.85282 0.7885 0.0
C384 C 0.67678 0.85205 0.81358 0.0
C385 C 0.67592 0.87949 0.82386 0.0
C386 C 0.66416 0.8955 0.8046 0.0
N387 N 0.6497 0.93457 0.75901 0.0
C388 C 0.65611 0.94483 0.7834 0.0
C389 C 0.66282 0.97327 0.78237 0.0
C390 C 0.6607 0.98111 0.75567 0.0
C391 C 0.65263 0.95696 0.74182 0.0
N392 N 0.61116 0.89781 0.77197 0.0
C393 C 0.56536 0.89233 0.79458 0.0
C394 C 0.58382 0.87368 0.80195 0.0
C395 C 0.60623 0.87656 0.79036 0.0
C396 C 0.57077 0.91511 0.77684 0.0
C397 C 0.5939 0.91778 0.76616 0.0
N398 N 0.66947 0.88927 0.7292 0.0
C399 C 0.71213 0.88701 0.72601 0.0
C400 C 0.71028 0.87016 0.70241 0.0
C401 C 0.68753 0.86524 0.69159 0.0
C402 C 0.66755 0.87515 0.70505 0.0
C403 C 0.69148 0.89632 0.73912 0.0
H404 H 0.65042 0.86973 0.69659 0.0
H405 H 0.69326 0.908 0.75789 0.0
H406 H 0.61898 0.86004 0.79514 0.0
H407 H 0.59743 0.93507 0.75214 0.0
C408 C 0.60198 0.86742 0.70878 0.0
C409 C 0.64802 0.95511 0.71253 0.0
C410 C 0.65913 0.8271 0.77257 0.0
C411 C 0.66202 0.92563 0.8043 0.0
H412 H 0.61705 0.95211 0.66519 0.0
H413 H 0.58943 0.90524 0.66454 0.0
H414 H 0.59769 0.80555 0.71202 0.0
H415 H 0.63062 0.78354 0.74518 0.0
H416 H 0.68437 0.83348 0.82372 0.0
H417 H 0.68351 0.88696 0.84278 0.0
H418 H 0.6703 0.98612 0.7986 0.0
H419 H 0.66533 1.00194 0.74758 0.0
H420 H 0.58059 0.85554 0.8152 0.0
H421 H 0.5571 0.93028 0.77071 0.0
H422 H 0.72931 0.89214 0.73484 0.0
H423 H 0.68484 0.8522 0.67369 0.0
C424 C 0.2795 0.09665 0.38339 0.0
C425 C 0.30096 0.10134 0.39684 0.0
C426 C 0.29992 0.12855 0.40746 0.0
C427 C 0.27816 0.13921 0.39962 0.0
N428 N 0.26494 0.12006 0.38545 0.0
Co429 Co 0.23518 0.12866 0.36431 0.0
N430 N 0.23851 0.17092 0.37006 0.0
C431 C 0.25306 0.18386 0.38821 0.0
C432 C 0.25105 0.21333 0.38807 0.0
C433 C 0.2343 0.21937 0.36858 0.0
C434 C 0.22712 0.19315 0.35778 0.0
N435 N 0.20661 0.13687 0.3411 0.0
C436 C 0.19898 0.16212 0.33026 0.0
C437 C 0.17969 0.15785 0.31295 0.0
C438 C 0.175 0.12892 0.313 0.0
C439 C 0.1918 0.11713 0.32998 0.0
N440 N 0.23159 0.08632 0.35943 0.0
C441 C 0.21229 0.07235 0.34968 0.0
C442 C 0.21576 0.04313 0.34762 0.0
C443 C 0.23885 0.03852 0.35572 0.0
C444 C 0.24823 0.06531 0.36209 0.0
N445 N 0.21471 0.12771 0.39765 0.0
C446 C 0.18368 0.14773 0.43863 0.0
C447 C 0.17487 0.13438 0.41524 0.0
C448 C 0.19048 0.12425 0.39549 0.0
C449 C 0.20837 0.14681 0.44283 0.0
C450 C 0.22337 0.13613 0.42251 0.0
N451 N 0.25485 0.13097 0.33174 0.0
C452 C 0.26194 0.11943 0.28497 0.0
C453 C 0.2801 0.13998 0.28404 0.0
C454 C 0.28615 0.15485 0.30759 0.0
C455 C 0.27359 0.14979 0.33117 0.0
C456 C 0.2494 0.1154 0.30899 0.0
H457 H 0.27888 0.16178 0.34869 0.0
H458 H 0.23502 0.10017 0.30878 0.0
H459 H 0.18225 0.11469 0.37829 0.0
H460 H 0.24191 0.13589 0.42719 0.0
C461 C 0.27128 0.16824 0.40111 0.0
C462 C 0.27355 0.07044 0.36784 0.0
C463 C 0.20976 0.19029 0.33568 0.0
C464 C 0.19462 0.08768 0.3356 0.0
H465 H 0.3163 0.0874 0.39801 0.0
H466 H 0.31411 0.13996 0.41784 0.0
H467 H 0.26139 0.22868 0.39972 0.0
H468 H 0.2284 0.24066 0.36258 0.0
H469 H 0.17012 0.17385 0.30123 0.0
H470 H 0.16133 0.11776 0.30154 0.0
H471 H 0.2038 0.02743 0.33869 0.0
H472 H 0.24821 0.01815 0.35524 0.0
H473 H 0.15587 0.13255 0.41166 0.0
H474 H 0.21629 0.1556 0.46107 0.0
H475 H 0.25692 0.10736 0.26707 0.0
H476 H 0.30043 0.17056 0.3077 0.0
C477 C 0.90515 0.23749 0.42817 0.0
C478 C 0.91881 0.21313 0.424 0.0
C479 C 0.92923 0.21652 0.39907 0.0
C480 C 0.92133 0.24274 0.38944 0.0
N481 N 0.90697 0.25599 0.40707 0.0
Co482 Co 0.88788 0.29117 0.40054 0.0
N483 N 0.89052 0.28751 0.36099 0.0
C484 C 0.90699 0.27166 0.34805 0.0
C485 C 0.9045 0.27322 0.32047 0.0
C486 C 0.88557 0.29138 0.31593 0.0
C487 C 0.87761 0.30027 0.3411 0.0
N488 N 0.86731 0.32536 0.39499 0.0
C489 C 0.85564 0.33435 0.37245 0.0
C490 C 0.84373 0.36008 0.37735 0.0
C491 C 0.84836 0.36734 0.40376 0.0
C492 C 0.86281 0.34583 0.41356 0.0
N493 N 0.88597 0.29494 0.44018 0.0
C494 C 0.88076 0.31898 0.45403 0.0
C495 C 0.87922 0.31396 0.48135 0.0
C496 C 0.88332 0.28495 0.48463 0.0
C497 C 0.88724 0.27389 0.45904 0.0
N498 N 0.91711 0.31574 0.39934 0.0
C499 C 0.95902 0.34241 0.37973 0.0
C500 C 0.93658 0.35496 0.3761 0.0
C501 C 0.9162 0.34113 0.38512 0.0
C502 C 0.9603 0.31819 0.39685 0.0
C503 C 0.93918 0.30572 0.40707 0.0
N504 N 0.85936 0.26697 0.39982 0.0
C505 C 0.8177 0.25926 0.40853 0.0
C506 C 0.81749 0.23569 0.39076 0.0
C507 C 0.83894 0.22704 0.37927 0.0
C508 C 0.85946 0.24294 0.38389 0.0
C509 C 0.83893 0.27464 0.41285 0.0
H510 H 0.87528 0.23613 0.37371 0.0
H511 H 0.83866 0.29332 0.42582 0.0
H512 H 0.89988 0.35062 0.37833 0.0
H513 H 0.94088 0.28693 0.41976 0.0
C514 C 0.92135 0.25171 0.36228 0.0
C515 C 0.89111 0.24341 0.45251 0.0
C516 C 0.85854 0.32165 0.34545 0.0
C517 C 0.87045 0.34248 0.44047 0.0
H518 H 0.92057 0.19471 0.43729 0.0
H519 H 0.93971 0.20069 0.3884 0.0
H520 H 0.91451 0.26153 0.30545 0.0
H521 H 0.87844 0.2972 0.2963 0.0
H522 H 0.83349 0.37287 0.36312 0.0
H523 H 0.84179 0.38596 0.41454 0.0
H524 H 0.87355 0.32894 0.49676 0.0
H525 H 0.88255 0.27334 0.50352 0.0
H526 H 0.93436 0.37471 0.36471 0.0
H527 H 0.97723 0.308 0.40127 0.0
H528 H 0.80147 0.26653 0.41799 0.0
H529 H 0.83979 0.20846 0.36607 0.0
C530 C 0.79511 0.87276 0.42941 0.0
C531 C 0.81455 0.89098 0.42798 0.0
C532 C 0.81219 0.90593 0.40399 0.0
C533 C 0.79144 0.89602 0.39217 0.0
N534 N 0.78075 0.87606 0.40749 0.0
Co535 Co 0.75229 0.85336 0.3976 0.0
N536 N 0.75682 0.86044 0.3587 0.0
C537 C 0.76964 0.88215 0.34815 0.0
C538 C 0.7689 0.88225 0.3204 0.0
C539 C 0.75459 0.85938 0.31325 0.0
C540 C 0.74741 0.84642 0.33713 0.0
N541 N 0.72395 0.82999 0.38831 0.0
C542 C 0.71779 0.81754 0.36454 0.0
C543 C 0.69685 0.80188 0.36726 0.0
C544 C 0.68946 0.80558 0.39339 0.0
C545 C 0.70632 0.82294 0.40531 0.0
N546 N 0.74798 0.84668 0.43664 0.0
C547 C 0.72766 0.83888 0.44873 0.0
C548 C 0.73088 0.83389 0.47589 0.0
C549 C 0.75468 0.83857 0.48095 0.0
C550 C 0.76473 0.84634 0.45651 0.0
N551 N 0.73216 0.8882 0.39872 0.0
C552 C 0.70809 0.94095 0.39138 0.0
C553 C 0.70249 0.91692 0.3756 0.0
C554 C 0.71471 0.89116 0.37938 0.0
C555 C 0.72531 0.93763 0.41201 0.0
C556 C 0.73687 0.91087 0.41566 0.0
N557 N 0.77215 0.81902 0.39501 0.0
C558 C 0.77566 0.76745 0.39644 0.0
C559 C 0.79572 0.76875 0.37983 0.0
C560 C 0.80482 0.79576 0.37295 0.0
C561 C 0.79277 0.82054 0.38066 0.0
C562 C 0.76429 0.79294 0.40412 0.0
H563 H 0.79941 0.84087 0.37348 0.0
H564 H 0.74838 0.7915 0.41608 0.0
H565 H 0.7108 0.8742 0.36527 0.0
H566 H 0.75031 0.90889 0.43132 0.0
C567 C 0.78496 0.89873 0.36471 0.0
C568 C 0.79 0.85316 0.45203 0.0
C569 C 0.73 0.82272 0.33875 0.0
C570 C 0.70849 0.82867 0.43308 0.0
H571 H 0.82903 0.89281 0.44247 0.0
H572 H 0.82499 0.92064 0.39537 0.0
H573 H 0.7782 0.89664 0.30691 0.0
H574 H 0.74977 0.8532 0.29284 0.0
H575 H 0.68768 0.78931 0.35199 0.0
H576 H 0.67414 0.79582 0.4028 0.0
H577 H 0.71796 0.82548 0.48992 0.0
H578 H 0.76342 0.83568 0.50027 0.0
H579 H 0.68973 0.91841 0.3591 0.0
H580 H 0.73015 0.95565 0.42482 0.0
H581 H 0.76831 0.74691 0.40255 0.0
H582 H 0.82021 0.79778 0.36007 0.0
C583 C 0.12137 0.77058 0.42784 0.0
C584 C 0.10493 0.79266 0.42557 0.0
C585 C 0.09295 0.78836 0.40143 0.0
C586 C 0.10276 0.76389 0.39035 0.0
N587 N 0.11984 0.75258 0.4063 0.0
Co588 Co 0.14168 0.72069 0.39718 0.0
N589 N 0.13505 0.72449 0.35811 0.0
C590 C 0.11599 0.73794 0.34713 0.0
C591 C 0.11598 0.73701 0.31941 0.0
C592 C 0.13604 0.72177 0.31271 0.0
C593 C 0.14717 0.71389 0.33681 0.0
N594 N 0.16497 0.68995 0.38894 0.0
C595 C 0.17531 0.68304 0.36523 0.0
C596 C 0.19004 0.65913 0.36844 0.0
C597 C 0.18858 0.65083 0.39495 0.0
C598 C 0.17309 0.66993 0.40649 0.0
N599 N 0.1475 0.7164 0.43638 0.0
C600 C 0.15609 0.69289 0.44898 0.0
C601 C 0.15899 0.69704 0.47628 0.0
C602 C 0.1521 0.72497 0.48094 0.0
C603 C 0.14527 0.73633 0.4561 0.0
N604 N 0.11526 0.69198 0.39809 0.0
C605 C 0.07453 0.66092 0.38084 0.0
C606 C 0.09747 0.65158 0.37463 0.0
C607 C 0.11722 0.66752 0.3827 0.0
C608 C 0.07258 0.68376 0.39938 0.0
C609 C 0.09326 0.69849 0.40835 0.0
N610 N 0.16727 0.7491 0.3943 0.0
C611 C 0.20856 0.76237 0.39843 0.0
C612 C 0.20518 0.78518 0.37999 0.0
C613 C 0.18201 0.79058 0.37067 0.0
C614 C 0.16347 0.77265 0.37825 0.0
C615 C 0.18937 0.74451 0.40527 0.0
H616 H 0.14621 0.77713 0.36974 0.0
H617 H 0.19255 0.72633 0.41842 0.0
H618 H 0.13364 0.66067 0.37408 0.0
H619 H 0.09107 0.71637 0.42202 0.0
C620 C 0.10114 0.75541 0.36309 0.0
C621 C 0.13763 0.76613 0.45101 0.0
C622 C 0.16847 0.69532 0.33886 0.0
C623 C 0.16746 0.67144 0.43398 0.0
H624 H 0.10224 0.81019 0.43963 0.0
H625 H 0.07993 0.80258 0.39221 0.0
H626 H 0.10349 0.74725 0.30565 0.0
H627 H 0.14178 0.71713 0.29238 0.0
H628 H 0.20003 0.64798 0.35307 0.0
H629 H 0.19778 0.63305 0.40462 0.0
H630 H 0.16712 0.68244 0.49073 0.0
H631 H 0.15292 0.73563 0.50029 0.0
H632 H 0.10028 0.63303 0.36177 0.0
H633 H 0.05528 0.69133 0.40571 0.0
H634 H 0.226 0.75768 0.40685 0.0
H635 H 0.17817 0.80749 0.35622 0.0
C636 C 0.21037 0.88357 0.57235 0.0
C637 C 0.18937 0.89922 0.57201 0.0
C638 C 0.18898 0.91464 0.59558 0.0
C639 C 0.20971 0.90747 0.60893 0.0
N640 N 0.22364 0.88923 0.59483 0.0
Co641 Co 0.25317 0.86924 0.6081 0.0
N642 N 0.24875 0.88359 0.64579 0.0
C643 C 0.23261 0.90333 0.65389 0.0
C644 C 0.23392 0.90912 0.68104 0.0
C645 C 0.25194 0.89206 0.69077 0.0
C646 C 0.26071 0.87681 0.66891 0.0
N647 N 0.28208 0.84789 0.6212 0.0
C648 C 0.29052 0.84374 0.64663 0.0
C649 C 0.31101 0.82693 0.64672 0.0
C650 C 0.31546 0.81998 0.62047 0.0
C651 C 0.29756 0.83289 0.60588 0.0
N652 N 0.25755 0.85515 0.57027 0.0
C653 C 0.27674 0.8413 0.56045 0.0
C654 C 0.27374 0.83223 0.53428 0.0
C655 C 0.25104 0.83997 0.52729 0.0
C656 C 0.24144 0.85356 0.54966 0.0
N657 N 0.2733 0.90427 0.60106 0.0
C658 C 0.30493 0.94991 0.61395 0.0
C659 C 0.31326 0.924 0.60298 0.0
C660 C 0.29724 0.90188 0.59629 0.0
C661 C 0.28025 0.95401 0.61399 0.0
C662 C 0.26496 0.93138 0.60675 0.0
N663 N 0.23364 0.83515 0.61636 0.0
C664 C 0.22893 0.78359 0.61955 0.0
C665 C 0.20808 0.78715 0.63439 0.0
C666 C 0.19975 0.81495 0.63905 0.0
C667 C 0.21281 0.83848 0.63014 0.0
C668 C 0.24121 0.80787 0.6103 0.0
H669 H 0.2061 0.85923 0.6353 0.0
H670 H 0.25705 0.80435 0.59886 0.0
H671 H 0.30484 0.8827 0.58838 0.0
H672 H 0.2465 0.93618 0.60721 0.0
C673 C 0.21492 0.91363 0.63612 0.0
C674 C 0.21644 0.86228 0.5517 0.0
C675 C 0.28017 0.85587 0.67107 0.0
C676 C 0.29453 0.83111 0.57788 0.0
H677 H 0.17538 0.89853 0.55681 0.0
H678 H 0.17457 0.92789 0.60292 0.0
H679 H 0.22263 0.92337 0.69256 0.0
H680 H 0.25775 0.89072 0.71164 0.0
H681 H 0.32174 0.82042 0.66396 0.0
H682 H 0.32993 0.80695 0.61293 0.0
H683 H 0.28581 0.81921 0.52251 0.0
H684 H 0.24237 0.83466 0.50838 0.0
H685 H 0.33214 0.92027 0.6005 0.0
H686 H 0.27251 0.97394 0.6211 0.0
H687 H 0.23575 0.76225 0.61529 0.0
H688 H 0.1837 0.81857 0.65055 0.0
C689 C 0.09932 0.23114 0.57421 0.0
C690 C 0.08497 0.20695 0.57501 0.0
C691 C 0.07338 0.20782 0.59949 0.0
C692 C 0.08128 0.23249 0.61224 0.0
N693 N 0.09684 0.24701 0.59695 0.0
Co694 Co 0.11562 0.2809 0.60788 0.0
N695 N 0.11183 0.27215 0.64653 0.0
C696 C 0.09473 0.25548 0.65719 0.0
C697 C 0.09675 0.25364 0.68486 0.0
C698 C 0.11619 0.27033 0.69174 0.0
C699 C 0.125 0.28143 0.6678 0.0
N700 N 0.13468 0.31485 0.61805 0.0
C701 C 0.14608 0.3205 0.64155 0.0
C702 C 0.15735 0.34711 0.64044 0.0
C703 C 0.15252 0.35835 0.61527 0.0
C704 C 0.13863 0.33808 0.60244 0.0
N705 N 0.11928 0.28934 0.56916 0.0
C706 C 0.12447 0.31501 0.55816 0.0
C707 C 0.1274 0.31317 0.53065 0.0
C708 C 0.12405 0.28456 0.52427 0.0
C709 C 0.11916 0.27054 0.54832 0.0
N710 N 0.08661 0.3048 0.60963 0.0
C711 C 0.04332 0.33446 0.61888 0.0
C712 C 0.06273 0.33665 0.6368 0.0
C713 C 0.08397 0.32235 0.63162 0.0
C714 C 0.04671 0.31769 0.59534 0.0
C715 C 0.06836 0.30287 0.59123 0.0
N716 N 0.1444 0.2572 0.60777 0.0
C717 C 0.18692 0.25346 0.60389 0.0
C718 C 0.187 0.22844 0.61996 0.0
C719 C 0.16505 0.21693 0.62759 0.0
C720 C 0.14409 0.23143 0.62114 0.0
C721 C 0.16539 0.26751 0.598 0.0
H722 H 0.12773 0.22263 0.62866 0.0
H723 H 0.16581 0.28752 0.58687 0.0
H724 H 0.09797 0.3246 0.64643 0.0
H725 H 0.0702 0.28936 0.57359 0.0
C726 C 0.08034 0.23802 0.64026 0.0
C727 C 0.11464 0.23955 0.55156 0.0
C728 C 0.1447 0.30221 0.6657 0.0
C729 C 0.13273 0.33756 0.57475 0.0
H730 H 0.08348 0.19027 0.55982 0.0
H731 H 0.06209 0.19121 0.60781 0.0
H732 H 0.08606 0.24078 0.69835 0.0
H733 H 0.12303 0.27398 0.71196 0.0
H734 H 0.16777 0.35742 0.65619 0.0
H735 H 0.15913 0.37837 0.60701 0.0
H736 H 0.13318 0.33006 0.51714 0.0
H737 H 0.12569 0.27522 0.50439 0.0
H738 H 0.06157 0.34831 0.65563 0.0
H739 H 0.03275 0.31552 0.58029 0.0
H740 H 0.20338 0.2628 0.59684 0.0
H741 H 0.16395 0.19787 0.64012 0.0
C742 C 0.72512 0.09098 0.61518 0.0
C743 C 0.7041 0.09146 0.60035 0.0
C744 C 0.70301 0.11787 0.58803 0.0
C745 C 0.72339 0.13199 0.59606 0.0
N746 N 0.73776 0.11568 0.61192 0.0
Co747 Co 0.76673 0.12867 0.63236 0.0
N748 N 0.7603 0.16996 0.62389 0.0
C749 C 0.74392 0.18027 0.60618 0.0
C750 C 0.74326 0.20981 0.60533 0.0
C751 C 0.75997 0.21873 0.62384 0.0
C752 C 0.76985 0.19403 0.63506 0.0
N753 N 0.7952 0.14132 0.65387 0.0
C754 C 0.80127 0.16797 0.66271 0.0
C755 C 0.82128 0.16696 0.67945 0.0
C756 C 0.82801 0.13872 0.68111 0.0
C757 C 0.81169 0.12405 0.66565 0.0
N758 N 0.77272 0.08717 0.64099 0.0
C759 C 0.79241 0.07591 0.6528 0.0
C760 C 0.79011 0.04722 0.65892 0.0
C761 C 0.76735 0.04007 0.65147 0.0
C762 C 0.75701 0.06488 0.64102 0.0
N763 N 0.78712 0.12669 0.59894 0.0
C764 C 0.81971 0.146 0.55915 0.0
C765 C 0.82739 0.13008 0.58166 0.0
C766 C 0.81094 0.12022 0.60075 0.0
C767 C 0.79508 0.14807 0.555 0.0
C768 C 0.7793 0.13772 0.57464 0.0
N769 N 0.74722 0.13226 0.66504 0.0
C770 C 0.74449 0.13166 0.71362 0.0
C771 C 0.72379 0.14842 0.7124 0.0
C772 C 0.71411 0.15502 0.68706 0.0
C773 C 0.72603 0.14679 0.66379 0.0
C774 C 0.7557 0.12345 0.68972 0.0
H775 H 0.71844 0.15355 0.64494 0.0
H776 H 0.77173 0.111 0.69147 0.0
H777 H 0.81814 0.1083 0.61722 0.0
H778 H 0.76092 0.13994 0.56996 0.0
C779 C 0.72714 0.16185 0.59396 0.0
C780 C 0.73173 0.06754 0.63366 0.0
C781 C 0.78789 0.19432 0.65663 0.0
C782 C 0.8097 0.094 0.66422 0.0
H783 H 0.69047 0.07498 0.59972 0.0
H784 H 0.6882 0.12658 0.5765 0.0
H785 H 0.73125 0.22328 0.59364 0.0
H786 H 0.76403 0.24087 0.62898 0.0
H787 H 0.82978 0.18452 0.69014 0.0
H788 H 0.84236 0.12981 0.69325 0.0
H789 H 0.80262 0.0338 0.66996 0.0
H790 H 0.75909 0.01942 0.65493 0.0
H791 H 0.84615 0.12589 0.58506 0.0
H792 H 0.78785 0.15898 0.53741 0.0
H793 H 0.75226 0.1255 0.73289 0.0
H794 H 0.69808 0.16788 0.68513 0.0
C795 C 0.88897 0.76399 0.57346 0.0
C796 C 0.90497 0.78663 0.57435 0.0
C797 C 0.91785 0.78351 0.59809 0.0
C798 C 0.90901 0.75913 0.61034 0.0
N799 N 0.89164 0.74686 0.59548 0.0
Co800 Co 0.87124 0.71433 0.60634 0.0
N801 N 0.87837 0.72018 0.64502 0.0
C802 C 0.89716 0.7349 0.65503 0.0
C803 C 0.89735 0.73557 0.68277 0.0
C804 C 0.87769 0.72004 0.69048 0.0
C805 C 0.8666 0.71043 0.66693 0.0
N806 N 0.84998 0.68223 0.61629 0.0
C807 C 0.84018 0.67587 0.6404 0.0
C808 C 0.82712 0.65045 0.63863 0.0
C809 C 0.82903 0.64077 0.61255 0.0
C810 C 0.84316 0.66058 0.59985 0.0
N811 N 0.86462 0.70837 0.56754 0.0
C812 C 0.85697 0.68386 0.55594 0.0
C813 C 0.85283 0.68705 0.5287 0.0
C814 C 0.85798 0.71535 0.52305 0.0
C815 C 0.86511 0.72791 0.54727 0.0
N816 N 0.89866 0.68745 0.60538 0.0
C817 C 0.94166 0.65721 0.61573 0.0
C818 C 0.92062 0.65034 0.62922 0.0
C819 C 0.89981 0.6659 0.62429 0.0
C820 C 0.93996 0.67799 0.59494 0.0
C821 C 0.91823 0.69241 0.58976 0.0
N822 N 0.84453 0.74123 0.60908 0.0
C823 C 0.80271 0.75247 0.60585 0.0
C824 C 0.80626 0.77714 0.62184 0.0
C825 C 0.82944 0.78433 0.62961 0.0
C826 C 0.84816 0.76624 0.62312 0.0
C827 C 0.82219 0.7347 0.59968 0.0
H828 H 0.86553 0.77214 0.63047 0.0
H829 H 0.81914 0.71519 0.58828 0.0
H830 H 0.88516 0.66132 0.63733 0.0
H831 H 0.91769 0.70871 0.57419 0.0
C832 C 0.91136 0.75198 0.63792 0.0
C833 C 0.87198 0.75821 0.55121 0.0
C834 C 0.84586 0.69083 0.66587 0.0
C835 C 0.84773 0.66175 0.57204 0.0
H836 H 0.90676 0.80377 0.55968 0.0
H837 H 0.93075 0.79851 0.60634 0.0
H838 H 0.90966 0.74702 0.69586 0.0
H839 H 0.87221 0.71634 0.71107 0.0
H840 H 0.81782 0.63946 0.65465 0.0
H841 H 0.82077 0.62181 0.60385 0.0
H842 H 0.84511 0.6714 0.51497 0.0
H843 H 0.85599 0.72536 0.50349 0.0
H844 H 0.92017 0.63365 0.64446 0.0
H845 H 0.95544 0.68416 0.58348 0.0
H846 H 0.78498 0.7463 0.59929 0.0
H847 H 0.83307 0.80354 0.64139 0.0
C848 C 0.40077 0.29103 0.0837 0.0
C849 C 0.41481 0.31477 0.08944 0.0
C850 C 0.42485 0.30987 0.11463 0.0
C851 C 0.41639 0.28342 0.12282 0.0
N852 N 0.40198 0.27156 0.10408 0.0
Co853 Co 0.38221 0.23674 0.10826 0.0
N854 N 0.38415 0.23878 0.14787 0.0
C855 C 0.4012 0.25254 0.1622 0.0
C856 C 0.39842 0.24903 0.18956 0.0
C857 C 0.37854 0.23199 0.19234 0.0
C858 C 0.37017 0.22613 0.16643 0.0
N859 N 0.36108 0.20292 0.11161 0.0
C860 C 0.34785 0.19457 0.13289 0.0
C861 C 0.33439 0.17041 0.12628 0.0
C862 C 0.34011 0.16311 0.10022 0.0
C863 C 0.35646 0.1833 0.09222 0.0
N864 N 0.38114 0.23445 0.06854 0.0
C865 C 0.37592 0.21107 0.05363 0.0
C866 C 0.37542 0.21712 0.02641 0.0
C867 C 0.38027 0.24609 0.02437 0.0
C868 C 0.38352 0.25609 0.05054 0.0
N869 N 0.41081 0.2115 0.10996 0.0
C870 C 0.45205 0.18535 0.13184 0.0
C871 C 0.4296 0.17302 0.13513 0.0
C872 C 0.40945 0.18655 0.12474 0.0
C873 C 0.45383 0.20867 0.11381 0.0
C874 C 0.43295 0.22098 0.1025 0.0
N875 N 0.35416 0.26159 0.10852 0.0
C876 C 0.31291 0.27069 0.09803 0.0
C877 C 0.31249 0.29322 0.11699 0.0
C878 C 0.33366 0.30029 0.13051 0.0
C879 C 0.35414 0.28446 0.12589 0.0
C880 C 0.33401 0.25515 0.09403 0.0
H881 H 0.36978 0.29013 0.13738 0.0
H882 H 0.33385 0.23735 0.08001 0.0
H883 H 0.39289 0.17773 0.13132 0.0
H884 H 0.43479 0.23951 0.08951 0.0
C885 C 0.4162 0.2728 0.14953 0.0
C886 C 0.38739 0.28622 0.05838 0.0
C887 C 0.3496 0.20767 0.15993 0.0
C888 C 0.36478 0.18736 0.0658 0.0
H889 H 0.41719 0.33367 0.07694 0.0
H890 H 0.43559 0.32479 0.12631 0.0
H891 H 0.4089 0.25874 0.20562 0.0
H892 H 0.37104 0.2248 0.21124 0.0
H893 H 0.32186 0.15904 0.13882 0.0
H894 H 0.33254 0.14582 0.08826 0.0
H895 H 0.37 0.20289 0.01016 0.0
H896 H 0.3804 0.25847 0.00587 0.0
H897 H 0.42725 0.1541 0.14766 0.0
H898 H 0.47091 0.21852 0.10984 0.0
H899 H 0.29699 0.26466 0.0869 0.0
H900 H 0.3343 0.31706 0.14571 0.0
C901 C 0.38882 0.72358 0.89722 0.0
C902 C 0.40433 0.70042 0.89674 0.0
C903 C 0.41685 0.70268 0.87293 0.0
C904 C 0.40831 0.72709 0.86022 0.0
N905 N 0.39143 0.74012 0.87485 0.0
Co906 Co 0.37177 0.77333 0.86343 0.0
N907 N 0.37804 0.76641 0.82492 0.0
C908 C 0.39651 0.75131 0.81514 0.0
C909 C 0.39631 0.75061 0.78736 0.0
C910 C 0.37662 0.76636 0.77948 0.0
C911 C 0.36577 0.77576 0.80295 0.0
N912 N 0.35145 0.80623 0.85277 0.0
C913 C 0.34079 0.81179 0.82871 0.0
C914 C 0.32712 0.8367 0.83028 0.0
C915 C 0.33001 0.84728 0.85602 0.0
C916 C 0.345 0.82821 0.86887 0.0
N917 N 0.36583 0.78028 0.90203 0.0
C918 C 0.35876 0.80513 0.9133 0.0
C919 C 0.35487 0.8023 0.94059 0.0
C920 C 0.35959 0.77387 0.94653 0.0
C921 C 0.36608 0.76101 0.92246 0.0
N922 N 0.39997 0.79895 0.86429 0.0
C923 C 0.44363 0.82842 0.85636 0.0
C924 C 0.42327 0.83476 0.84081 0.0
C925 C 0.40208 0.81963 0.84469 0.0
C926 C 0.44087 0.8082 0.87746 0.0
C927 C 0.41888 0.79417 0.88135 0.0
N928 N 0.34423 0.7476 0.86108 0.0
C929 C 0.30239 0.73753 0.86589 0.0
C930 C 0.30494 0.712 0.85095 0.0
C931 C 0.32765 0.70409 0.84252 0.0
C932 C 0.34689 0.72205 0.84772 0.0
C933 C 0.32235 0.75513 0.87072 0.0
H934 H 0.36389 0.71547 0.84009 0.0
H935 H 0.32005 0.77511 0.88156 0.0
H936 H 0.38776 0.82392 0.83067 0.0
H937 H 0.41756 0.77841 0.89733 0.0
C938 C 0.41056 0.73392 0.83254 0.0
C939 C 0.37224 0.73057 0.91917 0.0
C940 C 0.34493 0.79505 0.8039 0.0
C941 C 0.34972 0.82726 0.8968 0.0
H942 H 0.40607 0.68353 0.91171 0.0
H943 H 0.42936 0.68718 0.865 0.0
H944 H 0.4084 0.73906 0.77436 0.0
H945 H 0.37094 0.77052 0.75888 0.0
H946 H 0.31617 0.84636 0.81465 0.0
H947 H 0.32133 0.86591 0.86464 0.0
H948 H 0.3476 0.81829 0.95413 0.0
H949 H 0.35779 0.76359 0.96604 0.0
H950 H 0.42357 0.85089 0.82505 0.0
H951 H 0.45573 0.80223 0.89035 0.0
H952 H 0.28507 0.74431 0.8729 0.0
H953 H 0.33054 0.68427 0.83146 0.0
C954 C 0.21949 0.42248 0.89292 0.0
C955 C 0.20076 0.42704 0.91035 0.0
C956 C 0.19792 0.40173 0.92456 0.0
C957 C 0.21508 0.3832 0.91504 0.0
N958 N 0.22857 0.39569 0.89611 0.0
Co959 Co 0.25319 0.37686 0.87422 0.0
N960 N 0.23966 0.33821 0.88045 0.0
C961 C 0.2238 0.33141 0.89966 0.0
C962 C 0.21496 0.30405 0.89642 0.0
C963 C 0.22623 0.29308 0.87414 0.0
C964 C 0.24201 0.31406 0.8653 0.0
N965 N 0.27832 0.35876 0.85259 0.0
C966 C 0.27962 0.33181 0.84239 0.0
C967 C 0.30229 0.32685 0.83215 0.0
C968 C 0.31508 0.35179 0.83558 0.0
C969 C 0.29988 0.37046 0.84813 0.0
N970 N 0.26595 0.4157 0.8675 0.0
C971 C 0.2883 0.42214 0.86036 0.0
C972 C 0.29093 0.45094 0.8546 0.0
C973 C 0.26879 0.46303 0.85821 0.0
C974 C 0.25382 0.44088 0.86619 0.0
N975 N 0.27395 0.37203 0.90639 0.0
C976 C 0.30787 0.3633 0.9479 0.0
C977 C 0.30131 0.34101 0.93052 0.0
C978 C 0.28445 0.34568 0.91024 0.0
C979 C 0.29632 0.39004 0.94494 0.0
C980 C 0.27934 0.39399 0.92393 0.0
N981 N 0.23284 0.38028 0.84215 0.0
C982 C 0.22913 0.38208 0.79374 0.0
C983 C 0.20533 0.37326 0.79537 0.0
C984 C 0.19518 0.37003 0.82083 0.0
C985 C 0.20924 0.37341 0.8439 0.0
C986 C 0.24249 0.38597 0.81746 0.0
H987 H 0.20121 0.36894 0.86308 0.0
H988 H 0.26095 0.39213 0.81582 0.0
H989 H 0.28065 0.32786 0.89703 0.0
H990 H 0.27104 0.41485 0.92139 0.0
C991 C 0.2139 0.35296 0.91617 0.0
C992 C 0.22842 0.44351 0.87324 0.0
C993 C 0.26055 0.3099 0.84442 0.0
C994 C 0.30389 0.4 0.85266 0.0
H995 H 0.18983 0.44617 0.91183 0.0
H996 H 0.18358 0.39665 0.93821 0.0
H997 H 0.20089 0.2939 0.90778 0.0
H998 H 0.2229 0.27208 0.86544 0.0
H999 H 0.3093 0.30718 0.82368 0.0
H1000 H 0.33317 0.35588 0.8293 0.0
H1001 H 0.30656 0.46154 0.84673 0.0
H1002 H 0.26442 0.48537 0.85474 0.0
H1003 H 0.30963 0.31999 0.9322 0.0
H1004 H 0.30091 0.40788 0.95809 0.0
H1005 H 0.23748 0.38513 0.77432 0.0
H1006 H 0.17685 0.36315 0.82291 0.0
C1007 C 0.60454 0.28984 0.92382 0.0
C1008 C 0.58875 0.31274 0.92293 0.0
C1009 C 0.57632 0.31024 0.89884 0.0
C1010 C 0.58522 0.286 0.88643 0.0
N1011 N 0.60225 0.27326 0.90146 0.0
Co1012 Co 0.62193 0.23985 0.89096 0.0
N1013 N 0.61539 0.24621 0.85218 0.0
C1014 C 0.59722 0.26184 0.84188 0.0
C1015 C 0.59745 0.26269 0.81415 0.0
C1016 C 0.61672 0.24633 0.80674 0.0
C1017 C 0.62714 0.23604 0.83043 0.0
N1018 N 0.64201 0.20659 0.88125 0.0
C1019 C 0.65162 0.19963 0.8572 0.0
C1020 C 0.66362 0.17345 0.85903 0.0
C1021 C 0.66126 0.16393 0.88512 0.0
C1022 C 0.64793 0.18459 0.89777 0.0
N1023 N 0.62813 0.23357 0.92972 0.0
C1024 C 0.63508 0.20889 0.94157 0.0
C1025 C 0.63911 0.21219 0.96887 0.0
C1026 C 0.63454 0.24076 0.97422 0.0
C1027 C 0.62801 0.2532 0.94979 0.0
N1028 N 0.59383 0.21449 0.89186 0.0
C1029 C 0.54934 0.18888 0.88172 0.0
C1030 C 0.56923 0.18123 0.86663 0.0
C1031 C 0.59111 0.19429 0.87188 0.0
C1032 C 0.55273 0.20756 0.90381 0.0
C1033 C 0.57526 0.21975 0.90884 0.0
N1034 N 0.64952 0.26532 0.88871 0.0
C1035 C 0.69163 0.27431 0.89296 0.0
C1036 C 0.68911 0.29962 0.87766 0.0
C1037 C 0.66628 0.30827 0.86974 0.0
C1038 C 0.64688 0.29089 0.87533 0.0
C1039 C 0.67149 0.2574 0.89832 0.0
H1040 H 0.6298 0.29777 0.86777 0.0
H1041 H 0.67374 0.23746 0.9093 0.0
H1042 H 0.60521 0.18963 0.85805 0.0
H1043 H 0.57724 0.23493 0.92525 0.0
C1044 C 0.58313 0.27922 0.85879 0.0
C1045 C 0.62142 0.28344 0.9459 0.0
C1046 C 0.647 0.21521 0.83177 0.0
C1047 C 0.64352 0.18615 0.92563 0.0
H1048 H 0.58682 0.3297 0.93773 0.0
H1049 H 0.56365 0.32552 0.89054 0.0
H1050 H 0.58564 0.27471 0.80091 0.0
H1051 H 0.62233 0.24244 0.78622 0.0
H1052 H 0.67258 0.16196 0.84307 0.0
H1053 H 0.66878 0.14455 0.89388 0.0
H1054 H 0.64621 0.19636 0.98284 0.0
H1055 H 0.63631 0.25134 0.99362 0.0
H1056 H 0.56756 0.16712 0.84929 0.0
H1057 H 0.53787 0.21374 0.91632 0.0
H1058 H 0.70904 0.26699 0.89958 0.0
H1059 H 0.66348 0.32799 0.8584 0.0
C1060 C 0.77583 0.58929 0.89101 0.0
C1061 C 0.79574 0.58947 0.90784 0.0
C1062 C 0.79654 0.61637 0.91986 0.0
C1063 C 0.77673 0.63086 0.91046 0.0
N1064 N 0.76368 0.61439 0.89373 0.0
Co1065 Co 0.73396 0.62601 0.87535 0.0
N1066 N 0.74234 0.66699 0.87714 0.0
C1067 C 0.75778 0.67875 0.89492 0.0
C1068 C 0.75952 0.70811 0.89166 0.0
C1069 C 0.74408 0.71487 0.87074 0.0
C1070 C 0.73379 0.68918 0.86224 0.0
N1071 N 0.70423 0.63666 0.85646 0.0
C1072 C 0.69908 0.66085 0.84238 0.0
C1073 C 0.67651 0.65868 0.83071 0.0
C1074 C 0.66718 0.63271 0.83882 0.0
C1075 C 0.68456 0.62016 0.85457 0.0
N1076 N 0.72577 0.58502 0.87408 0.0
C1077 C 0.70375 0.57397 0.87294 0.0
C1078 C 0.70396 0.54435 0.87455 0.0
C1079 C 0.72766 0.53673 0.87656 0.0
C1080 C 0.74056 0.56217 0.87536 0.0
N1081 N 0.71755 0.63032 0.91035 0.0
C1082 C 0.69673 0.64226 0.96091 0.0
C1083 C 0.69172 0.65924 0.93823 0.0
C1084 C 0.70234 0.65315 0.91351 0.0
C1085 C 0.7121 0.61856 0.95755 0.0
C1086 C 0.72207 0.61273 0.93203 0.0
N1087 N 0.75026 0.62335 0.84073 0.0
C1088 C 0.74894 0.6175 0.79243 0.0
C1089 C 0.77085 0.6318 0.79016 0.0
C1090 C 0.78284 0.63996 0.81381 0.0
C1091 C 0.77227 0.63569 0.83871 0.0
C1092 C 0.73909 0.61305 0.81805 0.0
H1093 H 0.7814 0.64407 0.85623 0.0
H1094 H 0.72195 0.60267 0.81945 0.0
H1095 H 0.69872 0.6678 0.89712 0.0
H1096 H 0.73388 0.59449 0.92996 0.0
C1097 C 0.77285 0.66097 0.9109 0.0
C1098 C 0.76674 0.56476 0.87462 0.0
C1099 C 0.71454 0.68662 0.84181 0.0
C1100 C 0.68478 0.59141 0.86389 0.0
H1101 H 0.80817 0.57211 0.91155 0.0
H1102 H 0.81055 0.62471 0.93283 0.0
H1103 H 0.77113 0.72276 0.90253 0.0
H1104 H 0.74062 0.73624 0.86288 0.0
H1105 H 0.66756 0.67405 0.81772 0.0
H1106 H 0.65018 0.6236 0.83291 0.0
H1107 H 0.68891 0.52991 0.87264 0.0
H1108 H 0.73471 0.51504 0.87748 0.0
H1109 H 0.6804 0.67806 0.93976 0.0
H1110 H 0.71649 0.60474 0.97451 0.0
H1111 H 0.73924 0.61052 0.77457 0.0
H1112 H 0.79967 0.65132 0.81308 0.0
C1113 C 0.61592 0.7126 0.10585 0.0
C1114 C 0.59968 0.69023 0.10388 0.0
C1115 C 0.58661 0.69073 0.12734 0.0
C1116 C 0.59557 0.71334 0.14232 0.0
N1117 N 0.61326 0.72696 0.12949 0.0
Co1118 Co 0.63299 0.75863 0.14417 0.0
N1119 N 0.62492 0.74896 0.18175 0.0
C1120 C 0.60593 0.73342 0.18944 0.0
C1121 C 0.6048 0.73056 0.21704 0.0
C1122 C 0.62415 0.74542 0.2271 0.0
C1123 C 0.63606 0.75664 0.20501 0.0
N1124 N 0.65343 0.78999 0.15811 0.0
C1125 C 0.66279 0.7937 0.18313 0.0
C1126 C 0.67597 0.81901 0.18437 0.0
C1127 C 0.67453 0.83146 0.15922 0.0
C1128 C 0.6606 0.8132 0.14403 0.0
N1129 N 0.6407 0.7684 0.10651 0.0
C1130 C 0.64856 0.79395 0.09745 0.0
C1131 C 0.65339 0.79337 0.07026 0.0
C1132 C 0.64842 0.7657 0.06198 0.0
C1133 C 0.64087 0.75093 0.08469 0.0
N1134 N 0.60529 0.78515 0.14356 0.0
C1135 C 0.56247 0.81702 0.15029 0.0
C1136 C 0.58234 0.82113 0.16729 0.0
C1137 C 0.60298 0.80475 0.16406 0.0
C1138 C 0.5654 0.79756 0.12857 0.0
C1139 C 0.58699 0.78239 0.12528 0.0
N1140 N 0.6601 0.73219 0.14615 0.0
C1141 C 0.70212 0.7227 0.14278 0.0
C1142 C 0.69933 0.69639 0.1564 0.0
C1143 C 0.67635 0.6878 0.16341 0.0
C1144 C 0.65708 0.70586 0.15804 0.0
C1145 C 0.68225 0.74032 0.13786 0.0
H1146 H 0.63977 0.69881 0.16439 0.0
H1147 H 0.68487 0.76091 0.1282 0.0
H1148 H 0.6167 0.80738 0.17914 0.0
H1149 H 0.58846 0.76751 0.1086 0.0
C1150 C 0.59237 0.71788 0.17021 0.0
C1151 C 0.63342 0.72064 0.08514 0.0
C1152 C 0.657 0.77575 0.20666 0.0
C1153 C 0.65704 0.81459 0.11591 0.0
H1154 H 0.5978 0.67489 0.08754 0.0
H1155 H 0.57334 0.67521 0.13347 0.0
H1156 H 0.59205 0.71819 0.22847 0.0
H1157 H 0.62892 0.74771 0.24822 0.0
H1158 H 0.68524 0.82788 0.20174 0.0
H1159 H 0.68318 0.85105 0.15264 0.0
H1160 H 0.66127 0.81033 0.05828 0.0
H1161 H 0.65058 0.7572 0.04179 0.0
H1162 H 0.58217 0.83654 0.18363 0.0
H1163 H 0.55102 0.7931 0.11453 0.0
H1164 H 0.7196 0.73015 0.13694 0.0
H1165 H 0.67329 0.66739 0.17341 0.0
C1166 C 0.23797 0.59252 0.11155 0.0
C1167 C 0.21831 0.593 0.09438 0.0
C1168 C 0.21722 0.62041 0.08345 0.0
C1169 C 0.23663 0.63494 0.09385 0.0
N1170 N 0.24971 0.61803 0.11017 0.0
Co1171 Co 0.27869 0.62957 0.13 0.0
N1172 N 0.26945 0.67033 0.12984 0.0
C1173 C 0.25412 0.68252 0.11217 0.0
C1174 C 0.2517 0.71161 0.11663 0.0
C1175 C 0.26656 0.71776 0.13822 0.0
C1176 C 0.27722 0.69198 0.14594 0.0
N1177 N 0.30776 0.6401 0.15021 0.0
C1178 C 0.31208 0.6636 0.16561 0.0
C1179 C 0.33434 0.66126 0.178 0.0
C1180 C 0.34441 0.63609 0.1689 0.0
C1181 C 0.32771 0.62405 0.1519 0.0
N1182 N 0.28766 0.58882 0.12977 0.0
C1183 C 0.30991 0.57844 0.13068 0.0
C1184 C 0.3104 0.54901 0.12729 0.0
C1185 C 0.2869 0.54079 0.12437 0.0
C1186 C 0.27336 0.56563 0.12711 0.0
N1187 N 0.29592 0.6362 0.09579 0.0
C1188 C 0.32071 0.64953 0.04794 0.0
C1189 C 0.32309 0.66651 0.07109 0.0
C1190 C 0.31056 0.65975 0.09439 0.0
C1191 C 0.30532 0.62561 0.0491 0.0
C1192 C 0.29327 0.61912 0.07336 0.0
N1193 N 0.26173 0.62463 0.16396 0.0
C1194 C 0.26322 0.61838 0.21219 0.0
C1195 C 0.24122 0.63241 0.21458 0.0
C1196 C 0.22886 0.6401 0.19103 0.0
C1197 C 0.23943 0.63619 0.16604 0.0
C1198 C 0.27298 0.61415 0.18654 0.0
H1199 H 0.23018 0.64456 0.14858 0.0
H1200 H 0.29028 0.60416 0.18506 0.0
H1201 H 0.31272 0.67406 0.11132 0.0
H1202 H 0.28176 0.60048 0.07399 0.0
C1203 C 0.23981 0.66515 0.09496 0.0
C1204 C 0.24709 0.5675 0.12724 0.0
C1205 C 0.29619 0.68903 0.16672 0.0
C1206 C 0.32834 0.5959 0.14109 0.0
H1207 H 0.2061 0.57555 0.09008 0.0
H1208 H 0.20319 0.62907 0.07069 0.0
H1209 H 0.24003 0.72645 0.10605 0.0
H1210 H 0.26944 0.73884 0.147 0.0
H1211 H 0.34263 0.67601 0.19213 0.0
H1212 H 0.36142 0.62708 0.17495 0.0
H1213 H 0.32577 0.53497 0.12846 0.0
H1214 H 0.28041 0.51901 0.12171 0.0
H1215 H 0.33442 0.6854 0.07112 0.0
H1216 H 0.30293 0.61185 0.03162 0.0
H1217 H 0.27316 0.61172 0.23 0.0
H1218 H 0.21187 0.65111 0.19193 0.0
C1219 C 0.78025 0.41663 0.11969 0.0
C1220 C 0.79863 0.41316 0.10144 0.0
C1221 C 0.79674 0.38545 0.09143 0.0
C1222 C 0.77696 0.37381 0.10343 0.0
N1223 N 0.76642 0.39272 0.11992 0.0
Co1224 Co 0.7373 0.38586 0.14078 0.0
N1225 N 0.74263 0.34403 0.141 0.0
C1226 C 0.75592 0.32947 0.12309 0.0
C1227 C 0.75558 0.30028 0.12776 0.0
C1228 C 0.74103 0.29652 0.14972 0.0
C1229 C 0.7333 0.32375 0.15735 0.0
N1230 N 0.7082 0.37976 0.16197 0.0
C1231 C 0.70202 0.35688 0.17726 0.0
C1232 C 0.68038 0.36198 0.18979 0.0
C1233 C 0.67265 0.3886 0.18121 0.0
C1234 C 0.69002 0.3985 0.16423 0.0
N1235 N 0.73213 0.42766 0.13992 0.0
C1236 C 0.71127 0.44138 0.14263 0.0
C1237 C 0.7137 0.47079 0.14011 0.0
C1238 C 0.73761 0.47546 0.13575 0.0
C1239 C 0.74837 0.44859 0.13618 0.0
N1240 N 0.71846 0.38132 0.10723 0.0
C1241 C 0.69403 0.36887 0.05866 0.0
C1242 C 0.68917 0.35374 0.08238 0.0
C1243 C 0.70157 0.36007 0.10614 0.0
C1244 C 0.71102 0.3911 0.05993 0.0
C1245 C 0.7228 0.39727 0.08453 0.0
N1246 N 0.75596 0.38907 0.1742 0.0
C1247 C 0.75816 0.39899 0.22189 0.0
C1248 C 0.7792 0.38282 0.22405 0.0
C1249 C 0.7891 0.37156 0.20053 0.0
C1250 C 0.77718 0.37472 0.17596 0.0
C1251 C 0.74701 0.4023 0.19659 0.0
H1252 H 0.78455 0.36407 0.15862 0.0
H1253 H 0.73058 0.41431 0.19535 0.0
H1254 H 0.69796 0.34681 0.12345 0.0
H1255 H 0.73589 0.41432 0.08504 0.0
C1256 C 0.77097 0.34434 0.1051 0.0
C1257 C 0.77411 0.44306 0.13483 0.0
C1258 C 0.71533 0.32948 0.1782 0.0
C1259 C 0.69182 0.42666 0.15378 0.0
H1260 H 0.81167 0.42885 0.09527 0.0
H1261 H 0.80895 0.37479 0.07793 0.0
H1262 H 0.76521 0.28375 0.11699 0.0
H1263 H 0.73633 0.27609 0.15873 0.0
H1264 H 0.67101 0.34799 0.20354 0.0
H1265 H 0.65673 0.3998 0.18747 0.0
H1266 H 0.70013 0.48702 0.14304 0.0
H1267 H 0.74632 0.49614 0.13382 0.0
H1268 H 0.67658 0.33606 0.08237 0.0
H1269 H 0.71532 0.40342 0.04204 0.0
H1270 H 0.75009 0.4083 0.23966 0.0
H1271 H 0.80522 0.35873 0.20131 0.0
H1272 H 0.19712 0.56374 0.13319 0.0
H1273 H 0.26243 0.52757 0.16547 0.0
H1274 H 0.24017 0.49307 0.19085 0.0
H1275 H 0.20222 0.47221 0.20507 0.0
H1276 H 0.13662 0.51175 0.17887 0.0
H1277 H 0.15878 0.54487 0.14984 0.0
C1278 C 0.20679 0.54793 0.14491 0.0
C1279 C 0.23208 0.54736 0.14466 0.0
C1280 C 0.19359 0.52829 0.16095 0.0
C1281 C 0.2434 0.52774 0.16253 0.0
C1282 C 0.23053 0.50797 0.17788 0.0
C1283 C 0.19274 0.48792 0.1928 0.0
C1284 C 0.16766 0.48853 0.19335 0.0
C1285 C 0.20566 0.50777 0.17707 0.0
C1286 C 0.15578 0.50966 0.17789 0.0
C1287 C 0.16854 0.529 0.16158 0.0
H1288 H 0.52084 0.1368 0.22286 0.0
H1289 H 0.5735 0.14895 0.16093 0.0
H1290 H 0.54259 0.16596 0.12978 0.0
H1291 H 0.50015 0.17867 0.12022 0.0
H1292 H 0.44943 0.17074 0.18485 0.0
H1293 H 0.48006 0.15178 0.21461 0.0
C1294 C 0.52586 0.14354 0.20275 0.0
C1295 C 0.54977 0.14146 0.19462 0.0
C1296 C 0.50816 0.15431 0.18516 0.0
C1297 C 0.55533 0.14966 0.16795 0.0
C1298 C 0.53762 0.15978 0.15007 0.0
C1299 C 0.49586 0.17294 0.14084 0.0
C1300 C 0.47216 0.17546 0.14979 0.0
C1301 C 0.51391 0.16241 0.15847 0.0
C1302 C 0.46716 0.16813 0.17681 0.0
C1303 C 0.48477 0.15743 0.19409 0.0
H1304 H 0.82365 0.4516 0.13117 0.0
H1305 H 0.76357 0.47103 0.18202 0.0
H1306 H 0.78858 0.50109 0.21016 0.0
H1307 H 0.82737 0.52248 0.22095 0.0
H1308 H 0.88865 0.49843 0.17448 0.0
H1309 H 0.86326 0.47013 0.14392 0.0
C1310 C 0.81572 0.46224 0.14814 0.0
C1311 C 0.79103 0.45965 0.15308 0.0
C1312 C 0.83052 0.47918 0.16513 0.0
C1313 C 0.782 0.47344 0.17629 0.0
C1314 C 0.79642 0.49057 0.19284 0.0
C1315 C 0.83514 0.5112 0.20397 0.0
C1316 C 0.85974 0.51358 0.19937 0.0
C1317 C 0.82062 0.49388 0.18731 0.0
C1318 C 0.86962 0.49823 0.17772 0.0
C1319 C 0.85512 0.48158 0.16052 0.0
H1320 H 0.54623 0.84021 0.19859 0.0
H1321 H 0.52457 0.82871 0.1151 0.0
H1322 H 0.48628 0.85043 0.12504 0.0
H1323 H 0.45804 0.87184 0.15777 0.0
H1324 H 0.48179 0.88788 0.23946 0.0
H1325 H 0.52053 0.86665 0.22929 0.0
C1326 C 0.53375 0.84299 0.18203 0.0
C1327 C 0.53903 0.83219 0.15592 0.0
C1328 C 0.51191 0.85679 0.18753 0.0
C1329 C 0.52146 0.83575 0.13557 0.0
C1330 C 0.4994 0.84862 0.14115 0.0
C1331 C 0.47187 0.8711 0.1732 0.0
C1332 C 0.46695 0.88156 0.19939 0.0
C1333 C 0.49433 0.85903 0.16711 0.0
C1334 C 0.4851 0.88041 0.21911 0.0
C1335 C 0.50722 0.86796 0.21334 0.0
H1336 H 0.18787 0.43148 0.84507 0.0
H1337 H 0.23064 0.5029 0.87243 0.0
H1338 H 0.20581 0.53628 0.84625 0.0
H1339 H 0.17299 0.54488 0.81317 0.0
H1340 H 0.12843 0.47388 0.78873 0.0
H1341 H 0.15239 0.44077 0.8164 0.0
C1342 C 0.19168 0.45436 0.84538 0.0
C1343 C 0.2119 0.46445 0.85957 0.0
C1344 C 0.17682 0.47356 0.83086 0.0
C1345 C 0.21616 0.49428 0.86037 0.0
C1346 C 0.20166 0.51348 0.84574 0.0
C1347 C 0.16832 0.52224 0.81439 0.0
C1348 C 0.14919 0.5117 0.79866 0.0
C1349 C 0.18218 0.50333 0.83049 0.0
C1350 C 0.14325 0.48237 0.80041 0.0
C1351 C 0.15698 0.46345 0.81619 0.0
H1352 H 0.53373 0.13622 0.86325 0.0
H1353 H 0.51084 0.22387 0.87616 0.0
H1354 H 0.47348 0.21388 0.85253 0.0
H1355 H 0.44898 0.18194 0.82519 0.0
H1356 H 0.46951 0.09291 0.81464 0.0
H1357 H 0.5067 0.10231 0.83915 0.0
C1358 C 0.52039 0.153 0.8612 0.0
C1359 C 0.52513 0.18079 0.87161 0.0
C1360 C 0.49883 0.14713 0.84739 0.0
C1361 C 0.5076 0.20223 0.86883 0.0
C1362 C 0.48632 0.19662 0.85498 0.0
C1363 C 0.46103 0.1641 0.82878 0.0
C1364 C 0.45592 0.13654 0.818 0.0
C1365 C 0.48193 0.16932 0.8438 0.0
C1366 C 0.47277 0.11444 0.82218 0.0
C1367 C 0.49403 0.11973 0.83652 0.0
H1368 H 0.81669 0.55715 0.87044 0.0
H1369 H 0.75059 0.53196 0.83165 0.0
H1370 H 0.77165 0.49849 0.80361 0.0
H1371 H 0.80865 0.4751 0.78952 0.0
H1372 H 0.87544 0.50466 0.82266 0.0
H1373 H 0.85434 0.53665 0.85358 0.0
C1374 C 0.80654 0.54407 0.85654 0.0
C1375 C 0.78132 0.546 0.85558 0.0
C1376 C 0.81907 0.52509 0.83919 0.0
C1377 C 0.7695 0.52987 0.83522 0.0
C1378 C 0.78168 0.51078 0.81846 0.0
C1379 C 0.81862 0.4884 0.80366 0.0
C1380 C 0.84363 0.48615 0.80466 0.0
C1381 C 0.80639 0.50785 0.8205 0.0
C1382 C 0.8562 0.5043 0.82256 0.0
C1383 C 0.84408 0.52318 0.83991 0.0
H1384 H 0.5495 0.87728 0.84507 0.0
H1385 H 0.52515 0.89099 0.76316 0.0
H1386 H 0.4858 0.87266 0.77491 0.0
H1387 H 0.45945 0.84919 0.80719 0.0
H1388 H 0.48242 0.83876 0.8903 0.0
H1389 H 0.52128 0.85827 0.87892 0.0
C1390 C 0.53548 0.87659 0.82986 0.0
C1391 C 0.54042 0.88558 0.80318 0.0
C1392 C 0.51274 0.86597 0.83679 0.0
C1393 C 0.52192 0.88464 0.78386 0.0
C1394 C 0.49942 0.87383 0.79053 0.0
C1395 C 0.47249 0.85175 0.82326 0.0
C1396 C 0.46741 0.84205 0.84977 0.0
C1397 C 0.49474 0.86399 0.81681 0.0
C1398 C 0.48545 0.84514 0.86961 0.0
C1399 C 0.50781 0.85668 0.86317 0.0
H1400 H 0.10866 0.22812 0.49772 0.0
H1401 H 0.14951 0.20253 0.56772 0.0
H1402 H 0.17415 0.17106 0.53967 0.0
H1403 H 0.18552 0.15276 0.49447 0.0
H1404 H 0.14497 0.1802 0.42446 0.0
H1405 H 0.11905 0.20869 0.45304 0.0
C1406 C 0.12295 0.21559 0.50677 0.0
C1407 C 0.12744 0.21788 0.5347 0.0
C1408 C 0.13724 0.19784 0.4904 0.0
C1409 C 0.1457 0.20111 0.54627 0.0
C1410 C 0.15989 0.18324 0.53018 0.0
C1411 C 0.17104 0.16495 0.48542 0.0
C1412 C 0.16732 0.16395 0.45714 0.0
C1413 C 0.15611 0.18177 0.50208 0.0
C1414 C 0.14818 0.17986 0.44607 0.0
C1415 C 0.13335 0.19647 0.46242 0.0
H1416 H 0.81772 0.15577 0.50387 0.0
H1417 H 0.86103 0.17276 0.57466 0.0
H1418 H 0.88803 0.20171 0.54776 0.0
H1419 H 0.89829 0.22523 0.50467 0.0
H1420 H 0.85469 0.20989 0.43418 0.0
H1421 H 0.82923 0.17739 0.46009 0.0
C1422 C 0.83305 0.16575 0.51348 0.0
C1423 C 0.83712 0.1618 0.5415 0.0
C1424 C 0.84859 0.18287 0.49783 0.0
C1425 C 0.85743 0.17477 0.55322 0.0
C1426 C 0.87289 0.19165 0.53783 0.0
C1427 C 0.88327 0.21463 0.495 0.0
C1428 C 0.8782 0.22028 0.46758 0.0
C1429 C 0.86851 0.19622 0.51022 0.0
C1430 C 0.85895 0.20596 0.45521 0.0
C1431 C 0.8443 0.18747 0.47012 0.0
H1432 H 0.80064 0.85325 0.50665 0.0
H1433 H 0.82409 0.81891 0.43058 0.0
H1434 H 0.85371 0.7891 0.4541 0.0
H1435 H 0.87094 0.76995 0.49663 0.0
H1436 H 0.84446 0.80036 0.57281 0.0
H1437 H 0.81834 0.83458 0.54924 0.0
C1438 C 0.81191 0.83884 0.49526 0.0
C1439 C 0.80957 0.83763 0.46688 0.0
C1440 C 0.82845 0.82104 0.50906 0.0
C1441 C 0.82533 0.82006 0.4524 0.0
C1442 C 0.84222 0.80291 0.46588 0.0
C1443 C 0.85919 0.78375 0.50806 0.0
C1444 C 0.85913 0.78191 0.53649 0.0
C1445 C 0.84357 0.80268 0.49425 0.0
C1446 C 0.84474 0.80113 0.55097 0.0
C1447 C 0.82967 0.8206 0.53745 0.0
H1448 H 0.13604 0.7798 0.50498 0.0
H1449 H 0.16591 0.80766 0.42958 0.0
H1450 H 0.19137 0.84222 0.45366 0.0
H1451 H 0.20806 0.86117 0.49674 0.0
H1452 H 0.18137 0.82888 0.5722 0.0
H1453 H 0.15198 0.79946 0.54786 0.0
C1454 C 0.14829 0.79326 0.49386 0.0
C1455 C 0.14953 0.79059 0.46554 0.0
C1456 C 0.16364 0.81217 0.508 0.0
C1457 C 0.16467 0.80918 0.45135 0.0
C1458 C 0.17939 0.82878 0.46517 0.0
C1459 C 0.19591 0.8475 0.50779 0.0
C1460 C 0.19727 0.84668 0.53625 0.0
C1461 C 0.17956 0.82987 0.49356 0.0
C1462 C 0.18081 0.8297 0.55032 0.0
C1463 C 0.16406 0.81281 0.53639 0.0
H1464 H 0.64979 0.01402 0.70587 0.0
H1465 H 0.67836 0.93484 0.67451 0.0
H1466 H 0.70574 0.96214 0.64591 0.0
H1467 H 0.72345 0.00881 0.63188 0.0
H1468 H 0.69708 0.08763 0.66647 0.0
H1469 H 0.66723 0.06051 0.69171 0.0
C1470 C 0.66221 0.00275 0.69301 0.0
C1471 C 0.66238 0.97235 0.69282 0.0
C1472 C 0.67846 0.01865 0.67727 0.0
C1473 C 0.67789 0.95817 0.67513 0.0
C1474 C 0.69368 0.97381 0.65891 0.0
C1475 C 0.71137 0.01998 0.64522 0.0
C1476 C 0.71288 0.05023 0.64772 0.0
C1477 C 0.69451 0.00407 0.66021 0.0
C1478 C 0.69643 0.06441 0.66431 0.0
C1479 C 0.67938 0.04887 0.67881 0.0
H1480 H 0.95468 0.63736 0.66632 0.0
H1481 H 0.98207 0.64651 0.58544 0.0
H1482 H 0.02007 0.62637 0.60055 0.0
H1483 H 0.04606 0.60704 0.63708 0.0
H1484 H 0.01729 0.59532 0.71681 0.0
H1485 H 0.97889 0.61405 0.70121 0.0
C1486 C 0.96852 0.63434 0.65152 0.0
C1487 C 0.96497 0.64366 0.6245 0.0
C1488 C 0.99018 0.62185 0.66012 0.0
C1489 C 0.98398 0.64021 0.60639 0.0
C1490 C 0.00579 0.62834 0.61498 0.0
C1491 C 0.0313 0.60828 0.65098 0.0
C1492 C 0.03468 0.59972 0.67819 0.0
C1493 C 0.00916 0.61925 0.64185 0.0
C1494 C 0.01524 0.60132 0.69577 0.0
C1495 C 0.9933 0.61237 0.6869 0.0
H1496 H 0.37723 0.01879 0.68888 0.0
H1497 H 0.33062 0.08898 0.66752 0.0
H1498 H 0.30912 0.05784 0.6355 0.0
H1499 H 0.30116 0.0093 0.61711 0.0
H1500 H 0.34616 0.93833 0.64193 0.0
H1501 H 0.37071 0.97099 0.66852 0.0
C1502 C 0.3625 0.02725 0.67696 0.0
C1503 C 0.35531 0.05597 0.68066 0.0
C1504 C 0.34981 0.00895 0.65927 0.0
C1505 C 0.33646 0.06691 0.6649 0.0
C1506 C 0.32407 0.04903 0.64678 0.0
C1507 C 0.31632 1.00086 0.62827 0.0
C1508 C 0.32152 0.97107 0.62733 0.0
C1509 C 0.33014 0.01975 0.64437 0.0
C1510 C 0.3417 0.96101 0.64166 0.0
C1511 C 0.35573 0.97971 0.65722 0.0
H1512 H 0.03433 0.38155 0.65207 0.0
H1513 H 0.99791 0.31856 0.60217 0.0
H1514 H 0.95989 0.33687 0.6175 0.0
H1515 H 0.93687 0.36744 0.64779 0.0
H1516 H 0.97366 0.42313 0.70448 0.0
H1517 H 0.01135 0.41098 0.68352 0.0
C1518 C 0.01829 0.37113 0.64475 0.0
C1519 C 0.01967 0.34799 0.62606 0.0
C1520 C 0.99625 0.38052 0.65498 0.0
C1521 C 0.99806 0.33641 0.61618 0.0
C1522 C 0.97607 0.34671 0.62525 0.0
C1523 C 0.953 0.37666 0.65621 0.0
C1524 C 0.95189 0.39591 0.67843 0.0
C1525 C 0.97497 0.36819 0.64518 0.0
C1526 C 0.97338 0.40848 0.68749 0.0
C1527 C 0.99517 0.40125 0.67563 0.0
H1528 H 0.66163 0.95306 0.37929 0.0
H1529 H 0.73089 0.99265 0.38547 0.0
H1530 H 0.71534 0.03631 0.36382 0.0
H1531 H 0.6831 0.06096 0.33806 0.0
H1532 H 0.61422 0.02082 0.33128 0.0
H1533 H 0.62847 0.97963 0.35798 0.0
C1534 C 0.67324 0.97143 0.37629 0.0
C1535 C 0.69747 0.96944 0.38387 0.0
C1536 C 0.66426 0.99624 0.36335 0.0
C1537 C 0.71217 0.99359 0.38009 0.0
C1538 C 0.70333 0.01848 0.36741 0.0
C1539 C 0.67117 0.04339 0.34299 0.0
C1540 C 0.64764 0.04383 0.33295 0.0
C1541 C 0.67959 0.01972 0.35822 0.0
C1542 C 0.63231 0.02094 0.33908 0.0
C1543 C 0.64051 0.99739 0.35421 0.0
H1544 H 1.00162 0.60116 0.30037 0.0
H1545 H 0.95399 0.61241 0.36756 0.0
H1546 H 0.98625 0.63355 0.39418 0.0
H1547 H 0.02832 0.65019 0.39829 0.0
H1548 H 0.07324 0.64401 0.32813 0.0
H1549 H 0.04163 0.62056 0.30304 0.0
C1550 C 0.99788 0.60858 0.32062 0.0
C1551 C 0.975 0.60484 0.33156 0.0
C1552 C 0.01626 0.62192 0.33558 0.0
C1553 C 0.97133 0.61414 0.35839 0.0
C1554 C 0.9898 0.62669 0.37368 0.0
C1555 C 0.03116 0.64389 0.37749 0.0
C1556 C 0.05369 0.64819 0.3657 0.0
C1557 C 0.0124 0.63089 0.36247 0.0
C1558 C 0.05666 0.64004 0.33846 0.0
C1559 C 0.03841 0.62677 0.3238 0.0
H1560 H 0.35569 0.98269 0.33398 0.0
H1561 H 0.31767 0.99029 0.25791 0.0
H1562 H 0.29084 0.0244 0.27749 0.0
H1563 H 0.27755 0.05345 0.31573 0.0
H1564 H 0.30958 0.03969 0.39404 0.0
H1565 H 0.33927 0.00766 0.37403 0.0
C1566 C 0.34209 0.99209 0.32126 0.0
C1567 C 0.34092 0.98537 0.29329 0.0
C1568 C 0.32533 0.01113 0.3332 0.0
C1569 C 0.32121 0.99652 0.27857 0.0
C1570 C 0.30517 0.01588 0.28997 0.0
C1571 C 0.2911 0.04356 0.32846 0.0
C1572 C 0.292 0.0504 0.35618 0.0
C1573 C 0.30725 0.02378 0.3171 0.0
C1574 C 0.30927 0.0365 0.37239 0.0
C1575 C 0.32602 0.0176 0.36098 0.0
H1576 H 0.03066 0.40094 0.29841 0.0
H1577 H 0.08262 0.37177 0.35738 0.0
H1578 H 0.05078 0.35285 0.38523 0.0
H1579 H 0.00764 0.34324 0.3927 0.0
H1580 H 0.95774 0.36604 0.32909 0.0
H1581 H 0.9893 0.38771 0.30346 0.0
C1582 C 0.03546 0.39001 0.31698 0.0
C1583 C 0.05955 0.38822 0.32529 0.0
C1584 C 0.01713 0.37776 0.33246 0.0
C1585 C 0.0645 0.37447 0.35023 0.0
C1586 C 0.04618 0.36315 0.36623 0.0
C1587 C 0.00363 0.35276 0.37319 0.0
C1588 C 0.97978 0.35378 0.36374 0.0
C1589 C 0.02234 0.36449 0.35751 0.0
C1590 C 0.97542 0.36599 0.338 0.0
C1591 C 0.99363 0.37822 0.32291 0.0
H1592 H 0.65131 0.65902 0.97318 0.0
H1593 H 0.72062 0.64595 0.00934 0.0
H1594 H 0.70669 0.66708 0.05168 0.0
H1595 H 0.6757 0.69354 0.07721 0.0
H1596 H 0.60644 0.70613 0.0411 0.0
H1597 H 0.61931 0.68109 1.00011 0.0
C1598 C 0.66331 0.6605 0.99042 0.0
C1599 C 0.68709 0.65098 0.9879 0.0
C1600 C 0.65516 0.67281 0.01473 0.0
C1601 C 0.70224 0.65282 0.01064 0.0
C1602 C 0.69431 0.66516 0.03484 0.0
C1603 C 0.66334 0.69017 0.06053 0.0
C1604 C 0.64005 0.70131 0.06224 0.0
C1605 C 0.67095 0.67578 0.03697 0.0
C1606 C 0.62428 0.6973 0.04039 0.0
C1607 C 0.63173 0.68317 0.0169 0.0
H1608 H 0.3044 0.6604 0.99626 0.0
H1609 H 0.36842 0.65808 0.0449 0.0
H1610 H 0.39093 0.67988 0.0082 0.0
H1611 H 0.39161 0.70492 0.96406 0.0
H1612 H 0.32748 0.70916 0.91598 0.0
H1613 H 0.30603 0.68134 0.95007 0.0
C1614 C 0.32339 0.664 0.99851 0.0
C1615 C 0.33466 0.65757 0.02339 0.0
C1616 C 0.33624 0.67724 0.97735 0.0
C1617 C 0.35926 0.66284 0.02605 0.0
C1618 C 0.37217 0.67544 0.00506 0.0
C1619 C 0.37314 0.69897 0.96078 0.0
C1620 C 0.36122 0.70868 0.93735 0.0
C1621 C 0.36076 0.68348 0.98087 0.0
C1622 C 0.3371 0.70155 0.93367 0.0
C1623 C 0.32479 0.6858 0.95329 0.0
H1624 H 0.30644 0.36023 0.00333 0.0
H1625 H 0.35364 0.35221 0.9357 0.0
H1626 H 0.38433 0.33113 0.96493 0.0
H1627 H 0.39555 0.30848 0.00828 0.0
H1628 H 0.34851 0.31544 0.07594 0.0
H1629 H 0.32033 0.34368 0.04873 0.0
C1630 C 0.32374 0.35474 0.99528 0.0
C1631 C 0.3278 0.35789 0.96738 0.0
C1632 C 0.34126 0.34198 0.01223 0.0
C1633 C 0.35017 0.35017 0.95711 0.0
C1634 C 0.36767 0.3379 0.9738 0.0
C1635 C 0.37937 0.31679 0.01717 0.0
C1636 C 0.37393 0.3095 0.04399 0.0
C1637 C 0.36312 0.33273 1.00117 0.0
C1638 C 0.35302 0.32057 0.05534 0.0
C1639 C 0.33682 0.33663 0.03967 0.0
H1640 H 0.64716 0.35665 0.04918 0.0
H1641 H 0.7154 0.35895 0.01014 0.0
H1642 H 0.69826 0.33505 0.97038 0.0
H1643 H 0.66485 0.30839 0.94891 0.0
H1644 H 0.59681 0.30587 0.9881 0.0
H1645 H 0.61273 0.33489 0.02555 0.0
C1646 C 0.65819 0.35229 0.03179 0.0
C1647 C 0.6826 0.35942 0.03275 0.0
C1648 C 0.64824 0.33826 0.00911 0.0
C1649 C 0.69657 0.35391 0.00992 0.0
C1650 C 0.68681 0.33998 0.98725 0.0
C1651 C 0.65344 0.31487 0.96541 0.0
C1652 C 0.62967 0.30536 0.96578 0.0
C1653 C 0.66283 0.33136 0.98692 0.0
C1654 C 0.61505 0.31339 0.98731 0.0
C1655 C 0.62422 0.32977 0.00877 0.0
H1656 H 0.19766 0.30476 0.26738 0.0
H1657 H 0.12761 0.30122 0.30171 0.0
H1658 H 0.13731 0.25521 0.32361 0.0
H1659 H 0.16678 0.2175 0.33531 0.0
H1660 H 0.23702 0.2214 0.30146 0.0
H1661 H 0.22647 0.26578 0.27722 0.0
C1662 C 0.18448 0.29354 0.27931 0.0
C1663 C 0.1619 0.30599 0.28277 0.0
C1664 C 0.19036 0.2674 0.29214 0.0
C1665 C 0.14498 0.29169 0.29855 0.0
C1666 C 0.15059 0.26556 0.31119 0.0
C1667 C 0.17958 0.22795 0.32229 0.0
C1668 C 0.20255 0.21624 0.31988 0.0
C1669 C 0.17334 0.25342 0.30847 0.0
C1670 C 0.21921 0.23008 0.3034 0.0
C1671 C 0.21318 0.25539 0.28959 0.0
H1672 H 0.80443 0.2211 0.34009 0.0
H1673 H 0.78037 0.21757 0.42247 0.0
H1674 H 0.74476 0.19089 0.4078 0.0
H1675 H 0.72118 0.16756 0.37138 0.0
H1676 H 0.74608 0.17227 0.28917 0.0
H1677 H 0.78122 0.19847 0.30422 0.0
C1678 C 0.79151 0.21427 0.35493 0.0
C1679 C 0.79514 0.22099 0.38237 0.0
C1680 C 0.77146 0.19875 0.34643 0.0
C1681 C 0.77792 0.21272 0.40122 0.0
C1682 C 0.75769 0.1973 0.39285 0.0
C1683 C 0.73426 0.17438 0.35675 0.0
C1684 C 0.73101 0.16759 0.32917 0.0
C1685 C 0.75436 0.19003 0.36549 0.0
C1686 C 0.7483 0.17647 0.31057 0.0
C1687 C 0.76831 0.1918 0.3191 0.0
H1688 H 0.82141 0.65988 0.3099 0.0
H1689 H 0.8926 0.68698 0.33066 0.0
H1690 H 0.87669 0.72711 0.35717 0.0
H1691 H 0.84236 0.75409 0.37463 0.0
H1692 H 0.77114 0.72536 0.35542 0.0
H1693 H 0.78715 0.68556 0.32893 0.0
C1694 C 0.83334 0.67481 0.3201 0.0
C1695 C 0.85805 0.67112 0.31792 0.0
C1696 C 0.82406 0.69703 0.33602 0.0
C1697 C 0.8735 0.69003 0.33157 0.0
C1698 C 0.86441 0.71269 0.34693 0.0
C1699 C 0.83039 0.73897 0.36476 0.0
C1700 C 0.80563 0.74258 0.36703 0.0
C1701 C 0.83972 0.71631 0.34937 0.0
C1702 C 0.79027 0.72275 0.35434 0.0
C1703 C 0.7994 0.70022 0.33892 0.0
H1704 H 0.29644 0.83105 0.32024 0.0
H1705 H 0.25209 0.90613 0.30992 0.0
H1706 H 0.2206 0.88298 0.33639 0.0
H1707 H 0.20629 0.84163 0.36281 0.0
H1708 H 0.25015 0.76529 0.36963 0.0
H1709 H 0.28184 0.78952 0.34552 0.0
C1710 C 0.27986 0.84237 0.32384 0.0
C1711 C 0.27655 0.87029 0.31334 0.0
C1712 C 0.26205 0.82898 0.33894 0.0
C1713 C 0.25492 0.88457 0.31771 0.0
C1714 C 0.23707 0.87143 0.33301 0.0
C1715 C 0.22264 0.83005 0.35887 0.0
C1716 C 0.22557 0.80144 0.36818 0.0
C1717 C 0.24051 0.84365 0.34379 0.0
C1718 C 0.24732 0.78738 0.36337 0.0
C1719 C 0.26542 0.80109 0.34914 0.0
H1720 H 0.13904 0.69321 0.68178 0.0
H1721 H 0.20381 0.66641 0.72165 0.0
H1722 H 0.22572 0.70556 0.69966 0.0
H1723 H 0.22639 0.7466 0.66793 0.0
H1724 H 0.16136 0.77341 0.62838 0.0
H1725 H 0.13947 0.73493 0.6511 0.0
C1726 C 0.15783 0.69652 0.68604 0.0
C1727 C 0.16984 0.67769 0.70364 0.0
C1728 C 0.17024 0.71862 0.67298 0.0
C1729 C 0.19429 0.68126 0.70854 0.0
C1730 C 0.20678 0.70337 0.69578 0.0
C1731 C 0.20749 0.74369 0.66412 0.0
C1732 C 0.19547 0.76241 0.64635 0.0
C1733 C 0.195 0.72193 0.67767 0.0
C1734 C 0.17091 0.75901 0.6419 0.0
C1735 C 0.15841 0.73717 0.65496 0.0
H1736 H 0.28286 0.19887 0.68131 0.0
H1737 H 0.25361 0.11305 0.67768 0.0
H1738 H 0.2192 0.13125 0.6519 0.0
H1739 H 0.19775 0.17168 0.63035 0.0
H1740 H 0.22681 0.25769 0.63641 0.0
H1741 H 0.26166 0.2389 0.66001 0.0
C1742 C 0.26906 0.18405 0.67467 0.0
C1743 C 0.27085 0.1546 0.6812 0.0
C1744 C 0.24955 0.19462 0.65985 0.0
C1745 C 0.25256 0.13582 0.67303 0.0
C1746 C 0.23302 0.1462 0.65812 0.0
C1747 C 0.21164 0.18639 0.63687 0.0
C1748 C 0.2095 0.21616 0.6314 0.0
C1749 C 0.23136 0.17558 0.65139 0.0
C1750 C 0.22802 0.23467 0.63968 0.0
C1751 C 0.24787 0.224 0.65358 0.0
H1752 H 0.82858 0.22574 0.65553 0.0
H1753 H 0.75878 0.22354 0.69061 0.0
H1754 H 0.76765 0.26765 0.71621 0.0
H1755 H 0.79569 0.30695 0.72863 0.0
H1756 H 0.86589 0.3076 0.69444 0.0
H1757 H 0.85683 0.26371 0.66893 0.0
C1758 C 0.81543 0.23492 0.66895 0.0
C1759 C 0.79319 0.22147 0.6715 0.0
C1760 C 0.82088 0.25977 0.68395 0.0
C1761 C 0.77606 0.23364 0.68851 0.0
C1762 C 0.78117 0.25871 0.70318 0.0
C1763 C 0.80899 0.29711 0.71585 0.0
C1764 C 0.8315 0.31 0.71361 0.0
C1765 C 0.80359 0.2719 0.70118 0.0
C1766 C 0.84859 0.29759 0.69669 0.0
C1767 C 0.84336 0.27269 0.682 0.0
H1768 H 0.79964 0.79411 0.67329 0.0
H1769 H 0.76816 0.79953 0.59366 0.0
H1770 H 0.73671 0.831 0.61114 0.0
H1771 H 0.71865 0.85713 0.64908 0.0
H1772 H 0.74928 0.84848 0.72919 0.0
H1773 H 0.78138 0.81941 0.71109 0.0
C1774 C 0.78594 0.8023 0.65971 0.0
C1775 C 0.78624 0.79468 0.6322 0.0
C1776 C 0.76809 0.82026 0.66988 0.0
C1777 C 0.76818 0.80497 0.61494 0.0
C1778 C 0.75036 0.82312 0.6249 0.0
C1779 C 0.7322 0.84877 0.66272 0.0
C1780 C 0.73133 0.85521 0.6906 0.0
C1781 C 0.75018 0.83094 0.65236 0.0
C1782 C 0.74954 0.84459 0.70763 0.0
C1783 C 0.76779 0.82753 0.69736 0.0
H1784 H 0.28225 0.19183 0.25989 0.0
H1785 H 0.30539 0.10377 0.25183 0.0
H1786 H 0.32893 0.1168 0.21212 0.0
H1787 H 0.34472 0.15412 0.18159 0.0
H1788 H 0.3198 0.2416 0.18833 0.0
H1789 H 0.29537 0.22821 0.22712 0.0
C1790 C 0.29233 0.17553 0.24922 0.0
C1791 C 0.29234 0.14698 0.25864 0.0
C1792 C 0.30555 0.18317 0.22645 0.0
C1793 C 0.30518 0.12585 0.24473 0.0
C1794 C 0.31868 0.13334 0.2222 0.0
C1795 C 0.33345 0.17001 0.19119 0.0
C1796 C 0.33358 0.19866 0.18198 0.0
C1797 C 0.31921 0.162 0.21309 0.0
C1798 C 0.31964 0.21937 0.19505 0.0
C1799 C 0.30575 0.21173 0.21715 0.0
H1800 H 0.81131 0.32432 0.33347 0.0
H1801 H 0.87987 0.35308 0.30609 0.0
H1802 H 0.8612 0.37664 0.26706 0.0
H1803 H 0.82553 0.38692 0.23953 0.0
H1804 H 0.75664 0.3599 0.26751 0.0
H1805 H 0.77506 0.33857 0.30789 0.0
C1806 C 0.82204 0.33573 0.31884 0.0
C1807 C 0.84693 0.33613 0.32194 0.0
C1808 C 0.8111 0.34983 0.29682 0.0
C1809 C 0.86073 0.35168 0.30347 0.0
C1810 C 0.85005 0.36536 0.28134 0.0
C1811 C 0.81456 0.37669 0.2547 0.0
C1812 C 0.78981 0.3749 0.25059 0.0
C1813 C 0.82529 0.36426 0.27763 0.0
C1814 C 0.77572 0.36181 0.27041 0.0
C1815 C 0.78627 0.34933 0.29332 0.0
H1816 H 0.70037 0.7629 0.22829 0.0
H1817 H 0.63566 0.80966 0.24364 0.0
H1818 H 0.65273 0.82887 0.28563 0.0
H1819 H 0.6865 0.83353 0.31719 0.0
H1820 H 0.75099 0.7859 0.30327 0.0
H1821 H 0.73395 0.76616 0.26123 0.0
C1822 C 0.69001 0.77694 0.24117 0.0
C1823 C 0.66672 0.78454 0.23339 0.0
C1824 C 0.70002 0.78794 0.26524 0.0
C1825 C 0.65347 0.80318 0.24971 0.0
C1826 C 0.66328 0.8143 0.27352 0.0
C1827 C 0.69664 0.81854 0.30504 0.0
C1828 C 0.71974 0.8107 0.31333 0.0
C1829 C 0.68656 0.80698 0.28138 0.0
C1830 C 0.73306 0.7919 0.29725 0.0
C1831 C 0.72331 0.78063 0.27334 0.0
H1832 H 0.19636 0.62671 0.23368 0.0
H1833 H 0.26548 0.66121 0.25408 0.0
H1834 H 0.24895 0.68469 0.294 0.0
H1835 H 0.21416 0.69758 0.32178 0.0
H1836 H 0.14557 0.66123 0.30224 0.0
H1837 H 0.16231 0.63693 0.26291 0.0
C1838 C 0.20782 0.63912 0.24708 0.0
C1839 C 0.23208 0.6422 0.24103 0.0
C1840 C 0.19814 0.6528 0.26973 0.0
C1841 C 0.24681 0.65817 0.25857 0.0
C1842 C 0.23731 0.6719 0.28118 0.0
C1843 C 0.20296 0.68451 0.30868 0.0
C1844 C 0.17856 0.68195 0.31419 0.0
C1845 C 0.2129 0.66982 0.28667 0.0
C1846 C 0.16423 0.66428 0.29772 0.0
C1847 C 0.17385 0.65013 0.27548 0.0
H1848 H 0.34524 0.84503 0.77533 0.0
H1849 H 0.31475 0.75995 0.77609 0.0
H1850 H 0.29101 0.77147 0.73555 0.0
H1851 H 0.27891 0.80619 0.69992 0.0
H1852 H 0.3088 0.8916 0.70015 0.0
H1853 H 0.33229 0.88006 0.74076 0.0
C1854 C 0.33321 0.82917 0.76666 0.0
C1855 C 0.33136 0.80186 0.77874 0.0
C1856 C 0.31932 0.83623 0.74384 0.0
C1857 C 0.31624 0.78116 0.76712 0.0
C1858 C 0.30263 0.78781 0.74409 0.0
C1859 C 0.29032 0.82229 0.70924 0.0
C1860 C 0.29197 0.8498 0.69751 0.0
C1861 C 0.3039 0.81535 0.73238 0.0
C1862 C 0.30705 0.87048 0.70925 0.0
C1863 C 0.32059 0.86379 0.73225 0.0
H1864 H 0.2188 0.33567 0.75672 0.0
H1865 H 0.1608 0.3907 0.78046 0.0
H1866 H 0.13632 0.37226 0.74309 0.0
H1867 H 0.13131 0.33993 0.70395 0.0
H1868 H 0.18914 0.28497 0.68008 0.0
H1869 H 0.21386 0.30352 0.71742 0.0
C1870 C 0.20093 0.34391 0.75337 0.0
C1871 C 0.19161 0.36465 0.77104 0.0
C1872 C 0.18687 0.33281 0.7322 0.0
C1873 C 0.16829 0.37478 0.76697 0.0
C1874 C 0.15429 0.36416 0.74573 0.0
C1875 C 0.14923 0.33184 0.70733 0.0
C1876 C 0.15846 0.31088 0.68992 0.0
C1877 C 0.16331 0.34296 0.72843 0.0
C1878 C 0.18175 0.30079 0.69375 0.0
C1879 C 0.19586 0.31156 0.71486 0.0
H1880 H 0.67701 0.14995 0.72568 0.0
H1881 H 0.74674 0.17532 0.75408 0.0
H1882 H 0.72902 0.19984 0.79272 0.0
H1883 H 0.69346 0.2147 0.81813 0.0
H1884 H 0.62408 0.18701 0.79089 0.0
H1885 H 0.64173 0.1635 0.75166 0.0
C1886 C 0.68829 0.16084 0.74037 0.0
C1887 C 0.71312 0.16081 0.73708 0.0
C1888 C 0.67799 0.17496 0.76241 0.0
C1889 C 0.72759 0.17471 0.7564 0.0
C1890 C 0.71746 0.18898 0.77832 0.0
C1891 C 0.6823 0.20384 0.8033 0.0
C1892 C 0.65751 0.20341 0.8067 0.0
C1893 C 0.69267 0.18945 0.7814 0.0
C1894 C 0.64314 0.18852 0.78801 0.0
C1895 C 0.65324 0.17475 0.76584 0.0
H1896 H 0.79966 0.69251 0.68107 0.0
H1897 H 0.86863 0.6607 0.70558 0.0
H1898 H 0.85123 0.63791 0.74532 0.0
H1899 H 0.81647 0.62728 0.77316 0.0
H1900 H 0.74708 0.65767 0.74832 0.0
H1901 H 0.76432 0.67978 0.70807 0.0
C1902 C 0.8108 0.68087 0.6954 0.0
C1903 C 0.83546 0.67915 0.69111 0.0
C1904 C 0.80053 0.66702 0.7177 0.0
C1905 C 0.84974 0.66322 0.70915 0.0
C1906 C 0.83976 0.64986 0.7316 0.0
C1907 C 0.80511 0.63858 0.75882 0.0
C1908 C 0.78056 0.64087 0.76371 0.0
C1909 C 0.81519 0.65163 0.73607 0.0
C1910 C 0.76599 0.65527 0.74481 0.0
C1911 C 0.77588 0.66824 0.722 0.0
H1912 H 0.216 0.32972 0.16985 0.0
H1913 H 0.25381 0.41013 0.17878 0.0
H1914 H 0.28701 0.39057 0.15284 0.0
H1915 H 0.30586 0.34988 0.12964 0.0
H1916 H 0.26866 0.2687 0.12337 0.0
H1917 H 0.23396 0.28998 0.14483 0.0
C1918 C 0.23133 0.34317 0.16577 0.0
C1919 C 0.23245 0.37136 0.17623 0.0
C1920 C 0.25027 0.33179 0.15097 0.0
C1921 C 0.25265 0.38827 0.17122 0.0
C1922 C 0.27153 0.37717 0.15623 0.0
C1923 C 0.29013 0.33683 0.13289 0.0
C1924 C 0.29002 0.30761 0.12511 0.0
C1925 C 0.27063 0.34883 0.14632 0.0
C1926 C 0.26924 0.29128 0.12885 0.0
C1927 C 0.24948 0.30332 0.14149 0.0
H1928 H 0.29528 0.691 0.80118 0.0
H1929 H 0.26848 0.69228 0.88248 0.0
H1930 H 0.23613 0.65958 0.86902 0.0
H1931 H 0.21599 0.6303 0.83415 0.0
H1932 H 0.24196 0.63203 0.75222 0.0
H1933 H 0.27488 0.66264 0.76636 0.0
C1934 C 0.2824 0.68402 0.816 0.0
C1935 C 0.2843 0.69388 0.84282 0.0
C1936 C 0.26403 0.66529 0.80813 0.0
C1937 C 0.26726 0.68512 0.86168 0.0
C1938 C 0.24893 0.66626 0.85403 0.0
C1939 C 0.22872 0.63745 0.81927 0.0
C1940 C 0.22633 0.62855 0.79208 0.0
C1941 C 0.24719 0.65613 0.8273 0.0
C1942 C 0.24345 0.63775 0.77337 0.0
C1943 C 0.26216 0.6557 0.78135 0.0
H1944 H 0.27143 0.29906 0.79181 0.0
H1945 H 0.26207 0.25655 0.86858 0.0
H1946 H 0.2747 0.21131 0.84918 0.0
H1947 H 0.29339 0.18568 0.81265 0.0
H1948 H 0.31826 0.23207 0.74321 0.0
H1949 H 0.29346 0.27293 0.75592 0.0
C1950 C 0.27185 0.27974 0.80413 0.0
C1951 C 0.26471 0.28122 0.83138 0.0
C1952 C 0.28267 0.25459 0.79414 0.0
C1953 C 0.26584 0.25606 0.84721 0.0
C1954 C 0.27377 0.23016 0.83628 0.0
C1955 C 0.29565 0.20523 0.80138 0.0
C1956 C 0.3115 0.20704 0.77952 0.0
C1957 C 0.28334 0.2296 0.81027 0.0
C1958 C 0.30881 0.23096 0.76209 0.0
C1959 C 0.29427 0.25434 0.76914 0.0
H1960 H 0.69653 0.31735 0.8267 0.0
H1961 H 0.72821 0.31858 0.90638 0.0
H1962 H 0.76135 0.34778 0.88943 0.0
H1963 H 0.78087 0.37307 0.85182 0.0
H1964 H 0.74954 0.36851 0.77173 0.0
H1965 H 0.71603 0.34179 0.78942 0.0
C1966 C 0.71062 0.32419 0.84043 0.0
C1967 C 0.70989 0.31607 0.86778 0.0
C1968 C 0.7294 0.34083 0.83058 0.0
C1969 C 0.72848 0.3245 0.88522 0.0
C1970 C 0.74728 0.34133 0.87556 0.0
C1971 C 0.76682 0.36614 0.83813 0.0
C1972 C 0.7679 0.37313 0.81038 0.0
C1973 C 0.74789 0.34966 0.84824 0.0
C1974 C 0.74914 0.36428 0.79323 0.0
C1975 C 0.73004 0.34853 0.80325 0.0
H1976 H 0.67379 0.71769 0.8457 0.0
H1977 H 0.74 0.71372 0.80278 0.0
H1978 H 0.72851 0.75641 0.77629 0.0
H1979 H 0.69941 0.79539 0.76597 0.0
H1980 H 0.63229 0.79664 0.80724 0.0
H1981 H 0.64378 0.75378 0.8331 0.0
C1982 C 0.68545 0.72584 0.83012 0.0
C1983 C 0.70745 0.71235 0.82568 0.0
C1984 C 0.67837 0.74964 0.81452 0.0
C1985 C 0.72285 0.7237 0.80624 0.0
C1986 C 0.71625 0.74797 0.79108 0.0
C1987 C 0.68722 0.78576 0.78023 0.0
C1988 C 0.66495 0.79865 0.78457 0.0
C1989 C 0.69399 0.76109 0.79499 0.0
C1990 C 0.64934 0.78658 0.80339 0.0
C1991 C 0.656 0.76233 0.81831 0.0
H1992 H 0.70753 0.67083 0.205 0.0
H1993 H 0.73797 0.6818 0.12599 0.0
H1994 H 0.77252 0.65295 0.13976 0.0
H1995 H 0.79447 0.62595 0.17459 0.0
H1996 H 0.76514 0.61791 0.25458 0.0
H1997 H 0.7292 0.643 0.2396 0.0
C1998 C 0.7216 0.66662 0.19068 0.0
C1999 C 0.72017 0.67844 0.16448 0.0
C2000 C 0.74145 0.65024 0.19881 0.0
C2001 C 0.73874 0.6732 0.14633 0.0
C2002 C 0.75841 0.65656 0.15415 0.0
C2003 C 0.78031 0.62975 0.18887 0.0
C2004 C 0.78277 0.62014 0.21583 0.0
C2005 C 0.76005 0.64522 0.18042 0.0
C2006 C 0.7638 0.62464 0.23368 0.0
C2007 C 0.7433 0.63935 0.22521 0.0
H2008 H 0.30736 0.7989 0.24204 0.0
H2009 H 0.37648 0.79965 0.20517 0.0
H2010 H 0.36668 0.75582 0.17999 0.0
H2011 H 0.33725 0.71993 0.16556 0.0
H2012 H 0.26919 0.71586 0.20465 0.0
H2013 H 0.27928 0.7589 0.23131 0.0
C2014 C 0.3204 0.78885 0.22906 0.0
C2015 C 0.34269 0.80204 0.2256 0.0
C2016 C 0.3146 0.76359 0.21465 0.0
C2017 C 0.35941 0.7894 0.20838 0.0
C2018 C 0.3537 0.76461 0.19379 0.0
C2019 C 0.32491 0.72795 0.18051 0.0
C2020 C 0.30273 0.71444 0.18364 0.0
C2021 C 0.33121 0.75187 0.19635 0.0
C2022 C 0.28647 0.72583 0.20217 0.0
C2023 C 0.29228 0.75031 0.21743 0.0
H2024 H 0.67286 0.30266 0.17242 0.0
H2025 H 0.73796 0.3011 0.21908 0.0
H2026 H 0.72355 0.25929 0.2446 0.0
H2027 H 0.69256 0.22234 0.25251 0.0
H2028 H 0.62719 0.22511 0.20643 0.0
H2029 H 0.64112 0.26786 0.18213 0.0
C2030 C 0.68364 0.29341 0.18854 0.0
C2031 C 0.70619 0.30502 0.19435 0.0
C2032 C 0.67508 0.26982 0.20322 0.0
C2033 C 0.72041 0.29252 0.21463 0.0
C2034 C 0.71218 0.26873 0.22915 0.0
C2035 C 0.68134 0.23275 0.23744 0.0
C2036 C 0.65889 0.22111 0.23124 0.0
C2037 C 0.68956 0.25715 0.22356 0.0
C2038 C 0.64443 0.23418 0.21154 0.0
C2039 C 0.65245 0.25839 0.1976 0.0
loop_
_geom_bond_atom_site_label_1
_geom_bond_atom_site_label_2
_geom_bond_distance
_geom_bond_site_symmetry_2
_ccdc_geom_bond_type
C0 C1 1.443 . S
C0 N4 1.376 . S
C0 C38 1.389 . S
C1 C0 1.443 . S
C1 C2 1.340 . S
C1 H41 0.951 . S
C2 C1 1.340 . S
C2 C3 1.439 . S
C2 H42 0.950 . S
C3 C2 1.439 . S
C3 N4 1.374 . S
C3 C37 1.395 . S
N4 C0 1.376 . S
N4 C3 1.374 . S
N4 Co5 2.008 . S
Co5 N4 2.008 . S
Co5 N6 1.995 . S
Co5 N11 2.008 . S
Co5 N16 1.995 . S
Co5 N21 2.282 . S
Co5 N27 2.282 . S
N6 Co5 1.995 . S
N6 C7 1.376 . S
N6 C10 1.383 . S
C7 N6 1.376 . S
C7 C8 1.446 . S
C7 C37 1.391 . S
C8 C7 1.446 . S
C8 C9 1.339 . S
C8 H43 0.949 . S
C9 C8 1.339 . S
C9 C10 1.439 . S
C9 H44 0.950 . S
C10 N6 1.383 . S
C10 C9 1.439 . S
C10 C39 1.392 . S
N11 Co5 2.008 . S
N11 C12 1.376 . S
N11 C15 1.374 . S
C12 N11 1.376 . S
C12 C13 1.443 . S
C12 C39 1.389 . S
C13 C12 1.443 . S
C13 C14 1.340 . S
C13 H45 0.951 . S
C14 C13 1.340 . S
C14 C15 1.439 . S
C14 H46 0.950 . S
C15 N11 1.374 . S
C15 C14 1.439 . S
C15 C40 1.395 . S
N16 Co5 1.995 . S
N16 C17 1.376 . S
N16 C20 1.383 . S
C17 N16 1.376 . S
C17 C18 1.446 . S
C17 C40 1.391 . S
C18 C17 1.446 . S
C18 C19 1.339 . S
C18 H47 0.949 . S
C19 C18 1.339 . S
C19 C20 1.439 . S
C19 H48 0.950 . S
C20 N16 1.383 . S
C20 C19 1.439 . S
C20 C38 1.392 . S
N21 Co5 2.282 . S
N21 C24 1.332 . S
N21 C26 1.332 . S
C22 C23 1.386 . S
C22 C25 1.388 . S
C23 C22 1.386 . S
C23 C24 1.382 . S
C23 H49 0.950 . S
C24 N21 1.332 . S
C24 C23 1.382 . S
C24 H35 0.952 . S
C25 C22 1.388 . S
C25 C26 1.382 . S
C25 H50 0.950 . S
C26 N21 1.332 . S
C26 C25 1.382 . S
C26 H36 0.948 . S
N27 Co5 2.282 . S
N27 C31 1.332 . S
N27 C32 1.332 . S
C28 C29 1.388 . S
C28 C32 1.382 . S
C28 H51 0.950 . S
C29 C28 1.388 . S
C29 C30 1.386 . S
C30 C29 1.386 . S
C30 C31 1.382 . S
C30 H52 0.950 . S
C31 N27 1.332 . S
C31 C30 1.382 . S
C31 H33 0.952 . S
C32 N27 1.332 . S
C32 C28 1.382 . S
C32 H34 0.948 . S
H33 C31 0.952 . S
H34 C32 0.948 . S
H35 C24 0.952 . S
H36 C26 0.948 . S
C37 C3 1.395 . S
C37 C7 1.391 . S
C38 C0 1.389 . S
C38 C20 1.392 . S
C39 C10 1.392 . S
C39 C12 1.389 . S
C40 C15 1.395 . S
C40 C17 1.391 . S
H41 C1 0.951 . S
H42 C2 0.950 . S
H43 C8 0.949 . S
H44 C9 0.950 . S
H45 C13 0.951 . S
H46 C14 0.950 . S
H47 C18 0.949 . S
H48 C19 0.950 . S
H49 C23 0.950 . S
H50 C25 0.950 . S
H51 C28 0.950 . S
H52 C30 0.950 . S
C53 C54 1.443 . S
C53 N57 1.376 . S
C53 C91 1.389 . S
C54 C53 1.443 . S
C54 C55 1.340 . S
C54 H94 0.951 . S
C55 C54 1.340 . S
C55 C56 1.439 . S
C55 H95 0.950 . S
C56 C55 1.439 . S
C56 N57 1.374 . S
C56 C90 1.395 . S
N57 C53 1.376 . S
N57 C56 1.374 . S
N57 Co58 2.008 . S
Co58 N57 2.008 . S
Co58 N59 1.995 . S
Co58 N64 2.008 . S
Co58 N69 1.995 . S
Co58 N74 2.282 . S
Co58 N80 2.282 . S
N59 Co58 1.995 . S
N59 C60 1.376 . S
N59 C63 1.383 . S
C60 N59 1.376 . S
C60 C61 1.446 . S
C60 C90 1.391 . S
C61 C60 1.446 . S
C61 C62 1.339 . S
C61 H96 0.949 . S
C62 C61 1.339 . S
C62 C63 1.439 . S
C62 H97 0.950 . S
C63 N59 1.383 . S
C63 C62 1.439 . S
C63 C92 1.392 . S
N64 Co58 2.008 . S
N64 C65 1.376 . S
N64 C68 1.374 . S
C65 N64 1.376 . S
C65 C66 1.443 . S
C65 C92 1.389 . S
C66 C65 1.443 . S
C66 C67 1.340 . S
C66 H98 0.951 . S
C67 C66 1.340 . S
C67 C68 1.439 . S
C67 H99 0.950 . S
C68 N64 1.374 . S
C68 C67 1.439 . S
C68 C93 1.395 . S
N69 Co58 1.995 . S
N69 C70 1.376 . S
N69 C73 1.383 . S
C70 N69 1.376 . S
C70 C71 1.446 . S
C70 C93 1.391 . S
C71 C70 1.446 . S
C71 C72 1.339 . S
C71 H100 0.949 . S
C72 C71 1.339 . S
C72 C73 1.439 . S
C72 H101 0.950 . S
C73 N69 1.383 . S
C73 C72 1.439 . S
C73 C91 1.392 . S
N74 Co58 2.282 . S
N74 C77 1.332 . S
N74 C79 1.332 . S
C75 C76 1.386 . S
C75 C78 1.388 . S
C76 C75 1.386 . S
C76 C77 1.382 . S
C76 H102 0.950 . S
C77 N74 1.332 . S
C77 C76 1.382 . S
C77 H88 0.952 . S
C78 C75 1.388 . S
C78 C79 1.382 . S
C78 H103 0.950 . S
C79 N74 1.332 . S
C79 C78 1.382 . S
C79 H89 0.948 . S
N80 Co58 2.282 . S
N80 C84 1.332 . S
N80 C85 1.332 . S
C81 C82 1.388 . S
C81 C85 1.382 . S
C81 H104 0.950 . S
C82 C81 1.388 . S
C82 C83 1.386 . S
C83 C82 1.386 . S
C83 C84 1.382 . S
C83 H105 0.950 . S
C84 N80 1.332 . S
C84 C83 1.382 . S
C84 H86 0.952 . S
C85 N80 1.332 . S
C85 C81 1.382 . S
C85 H87 0.948 . S
H86 C84 0.952 . S
H87 C85 0.948 . S
H88 C77 0.952 . S
H89 C79 0.948 . S
C90 C56 1.395 . S
C90 C60 1.391 . S
C91 C53 1.389 . S
C91 C73 1.392 . S
C92 C63 1.392 . S
C92 C65 1.389 . S
C93 C68 1.395 . S
C93 C70 1.391 . S
H94 C54 0.951 . S
H95 C55 0.950 . S
H96 C61 0.949 . S
H97 C62 0.950 . S
H98 C66 0.951 . S
H99 C67 0.950 . S
H100 C71 0.949 . S
H101 C72 0.950 . S
H102 C76 0.950 . S
H103 C78 0.950 . S
H104 C81 0.950 . S
H105 C83 0.950 . S
C106 C107 1.443 . S
C106 N110 1.376 . S
C106 C144 1.389 . S
C107 C106 1.443 . S
C107 C108 1.340 . S
C107 H147 0.951 . S
C108 C107 1.340 . S
C108 C109 1.439 . S
C108 H148 0.950 . S
C109 C108 1.439 . S
C109 N110 1.374 . S
C109 C143 1.395 . S
N110 C106 1.376 . S
N110 C109 1.374 . S
N110 Co111 2.008 . S
Co111 N110 2.008 . S
Co111 N112 1.995 . S
Co111 N117 2.008 . S
Co111 N122 1.995 . S
Co111 N127 2.282 . S
Co111 N133 2.282 . S
N112 Co111 1.995 . S
N112 C113 1.376 . S
N112 C116 1.383 . S
C113 N112 1.376 . S
C113 C114 1.446 . S
C113 C143 1.391 . S
C114 C113 1.446 . S
C114 C115 1.339 . S
C114 H149 0.949 . S
C115 C114 1.339 . S
C115 C116 1.439 . S
C115 H150 0.950 . S
C116 N112 1.383 . S
C116 C115 1.439 . S
C116 C145 1.392 . S
N117 Co111 2.008 . S
N117 C118 1.376 . S
N117 C121 1.374 . S
C118 N117 1.376 . S
C118 C119 1.443 . S
C118 C145 1.389 . S
C119 C118 1.443 . S
C119 C120 1.340 . S
C119 H151 0.951 . S
C120 C119 1.340 . S
C120 C121 1.439 . S
C120 H152 0.950 . S
C121 N117 1.374 . S
C121 C120 1.439 . S
C121 C146 1.395 . S
N122 Co111 1.995 . S
N122 C123 1.376 . S
N122 C126 1.383 . S
C123 N122 1.376 . S
C123 C124 1.446 . S
C123 C146 1.391 . S
C124 C123 1.446 . S
C124 C125 1.339 . S
C124 H153 0.949 . S
C125 C124 1.339 . S
C125 C126 1.439 . S
C125 H154 0.950 . S
C126 N122 1.383 . S
C126 C125 1.439 . S
C126 C144 1.392 . S
N127 Co111 2.282 . S
N127 C130 1.332 . S
N127 C132 1.332 . S
C128 C129 1.386 . S
C128 C131 1.388 . S
C129 C128 1.386 . S
C129 C130 1.382 . S
C129 H155 0.950 . S
C130 N127 1.332 . S
C130 C129 1.382 . S
C130 H141 0.952 . S
C131 C128 1.388 . S
C131 C132 1.382 . S
C131 H156 0.950 . S
C132 N127 1.332 . S
C132 C131 1.382 . S
C132 H142 0.948 . S
N133 Co111 2.282 . S
N133 C137 1.332 . S
N133 C138 1.332 . S
C134 C135 1.388 . S
C134 C138 1.382 . S
C134 H157 0.950 . S
C135 C134 1.388 . S
C135 C136 1.386 . S
C136 C135 1.386 . S
C136 C137 1.382 . S
C136 H158 0.950 . S
C137 N133 1.332 . S
C137 C136 1.382 . S
C137 H139 0.952 . S
C138 N133 1.332 . S
C138 C134 1.382 . S
C138 H140 0.948 . S
H139 C137 0.952 . S
H140 C138 0.948 . S
H141 C130 0.952 . S
H142 C132 0.948 . S
C143 C109 1.395 . S
C143 C113 1.391 . S
C144 C106 1.389 . S
C144 C126 1.392 . S
C145 C116 1.392 . S
C145 C118 1.389 . S
C146 C121 1.395 . S
C146 C123 1.391 . S
H147 C107 0.951 . S
H148 C108 0.950 . S
H149 C114 0.949 . S
H150 C115 0.950 . S
H151 C119 0.951 . S
H152 C120 0.950 . S
H153 C124 0.949 . S
H154 C125 0.950 . S
H155 C129 0.950 . S
H156 C131 0.950 . S
H157 C134 0.950 . S
H158 C136 0.950 . S
C159 C160 1.443 . S
C159 N163 1.376 . S
C159 C197 1.389 . S
C160 C159 1.443 . S
C160 C161 1.340 . S
C160 H200 0.951 . S
C161 C160 1.340 . S
C161 C162 1.439 . S
C161 H201 0.950 . S
C162 C161 1.439 . S
C162 N163 1.374 . S
C162 C196 1.395 . S
N163 C159 1.376 . S
N163 C162 1.374 . S
N163 Co164 2.008 . S
Co164 N163 2.008 . S
Co164 N165 1.995 . S
Co164 N170 2.008 . S
Co164 N175 1.995 . S
Co164 N180 2.282 . S
Co164 N186 2.282 . S
N165 Co164 1.995 . S
N165 C166 1.376 . S
N165 C169 1.383 . S
C166 N165 1.376 . S
C166 C167 1.446 . S
C166 C196 1.391 . S
C167 C166 1.446 . S
C167 C168 1.339 . S
C167 H202 0.949 . S
C168 C167 1.339 . S
C168 C169 1.439 . S
C168 H203 0.950 . S
C169 N165 1.383 . S
C169 C168 1.439 . S
C169 C198 1.392 . S
N170 Co164 2.008 . S
N170 C171 1.376 . S
N170 C174 1.374 . S
C171 N170 1.376 . S
C171 C172 1.443 . S
C171 C198 1.389 . S
C172 C171 1.443 . S
C172 C173 1.340 . S
C172 H204 0.951 . S
C173 C172 1.340 . S
C173 C174 1.439 . S
C173 H205 0.950 . S
C174 N170 1.374 . S
C174 C173 1.439 . S
C174 C199 1.395 . S
N175 Co164 1.995 . S
N175 C176 1.376 . S
N175 C179 1.383 . S
C176 N175 1.376 . S
C176 C177 1.446 . S
C176 C199 1.391 . S
C177 C176 1.446 . S
C177 C178 1.339 . S
C177 H206 0.949 . S
C178 C177 1.339 . S
C178 C179 1.439 . S
C178 H207 0.950 . S
C179 N175 1.383 . S
C179 C178 1.439 . S
C179 C197 1.392 . S
N180 Co164 2.282 . S
N180 C183 1.332 . S
N180 C185 1.332 . S
C181 C182 1.386 . S
C181 C184 1.388 . S
C182 C181 1.386 . S
C182 C183 1.382 . S
C182 H208 0.950 . S
C183 N180 1.332 . S
C183 C182 1.382 . S
C183 H194 0.952 . S
C184 C181 1.388 . S
C184 C185 1.382 . S
C184 H209 0.950 . S
C185 N180 1.332 . S
C185 C184 1.382 . S
C185 H195 0.948 . S
N186 Co164 2.282 . S
N186 C190 1.332 . S
N186 C191 1.332 . S
C187 C188 1.388 . S
C187 C191 1.382 . S
C187 H210 0.950 . S
C188 C187 1.388 . S
C188 C189 1.386 . S
C189 C188 1.386 . S
C189 C190 1.382 . S
C189 H211 0.950 . S
C190 N186 1.332 . S
C190 C189 1.382 . S
C190 H192 0.952 . S
C191 N186 1.332 . S
C191 C187 1.382 . S
C191 H193 0.948 . S
H192 C190 0.952 . S
H193 C191 0.948 . S
H194 C183 0.952 . S
H195 C185 0.948 . S
C196 C162 1.395 . S
C196 C166 1.391 . S
C197 C159 1.389 . S
C197 C179 1.392 . S
C198 C169 1.392 . S
C198 C171 1.389 . S
C199 C174 1.395 . S
C199 C176 1.391 . S
H200 C160 0.951 . S
H201 C161 0.950 . S
H202 C167 0.949 . S
H203 C168 0.950 . S
H204 C172 0.951 . S
H205 C173 0.950 . S
H206 C177 0.949 . S
H207 C178 0.950 . S
H208 C182 0.950 . S
H209 C184 0.950 . S
H210 C187 0.950 . S
H211 C189 0.950 . S
C212 C213 1.443 . S
C212 N216 1.376 . S
C212 C250 1.389 . S
C213 C212 1.443 . S
C213 C214 1.340 . S
C213 H253 0.951 . S
C214 C213 1.340 . S
C214 C215 1.439 . S
C214 H254 0.950 . S
C215 C214 1.439 . S
C215 N216 1.374 . S
C215 C249 1.395 . S
N216 C212 1.376 . S
N216 C215 1.374 . S
N216 Co217 2.008 . S
Co217 N216 2.008 . S
Co217 N218 1.995 . S
Co217 N223 2.008 . S
Co217 N228 1.995 . S
Co217 N233 2.282 . S
Co217 N239 2.282 . S
N218 Co217 1.995 . S
N218 C219 1.376 . S
N218 C222 1.383 . S
C219 N218 1.376 . S
C219 C220 1.446 . S
C219 C249 1.391 . S
C220 C219 1.446 . S
C220 C221 1.339 . S
C220 H255 0.949 . S
C221 C220 1.339 . S
C221 C222 1.439 . S
C221 H256 0.950 . S
C222 N218 1.383 . S
C222 C221 1.439 . S
C222 C251 1.392 . S
N223 Co217 2.008 . S
N223 C224 1.376 . S
N223 C227 1.374 . S
C224 N223 1.376 . S
C224 C225 1.443 . S
C224 C251 1.389 . S
C225 C224 1.443 . S
C225 C226 1.340 . S
C225 H257 0.951 . S
C226 C225 1.340 . S
C226 C227 1.439 . S
C226 H258 0.950 . S
C227 N223 1.374 . S
C227 C226 1.439 . S
C227 C252 1.395 . S
N228 Co217 1.995 . S
N228 C229 1.376 . S
N228 C232 1.383 . S
C229 N228 1.376 . S
C229 C230 1.446 . S
C229 C252 1.391 . S
C230 C229 1.446 . S
C230 C231 1.339 . S
C230 H259 0.949 . S
C231 C230 1.339 . S
C231 C232 1.439 . S
C231 H260 0.950 . S
C232 N228 1.383 . S
C232 C231 1.439 . S
C232 C250 1.392 . S
N233 Co217 2.282 . S
N233 C236 1.332 . S
N233 C238 1.332 . S
C234 C235 1.386 . S
C234 C237 1.388 . S
C235 C234 1.386 . S
C235 C236 1.382 . S
C235 H261 0.950 . S
C236 N233 1.332 . S
C236 C235 1.382 . S
C236 H247 0.952 . S
C237 C234 1.388 . S
C237 C238 1.382 . S
C237 H262 0.950 . S
C238 N233 1.332 . S
C238 C237 1.382 . S
C238 H248 0.948 . S
N239 Co217 2.282 . S
N239 C243 1.332 . S
N239 C244 1.332 . S
C240 C241 1.388 . S
C240 C244 1.382 . S
C240 H263 0.950 . S
C241 C240 1.388 . S
C241 C242 1.386 . S
C242 C241 1.386 . S
C242 C243 1.382 . S
C242 H264 0.950 . S
C243 N239 1.332 . S
C243 C242 1.382 . S
C243 H245 0.952 . S
C244 N239 1.332 . S
C244 C240 1.382 . S
C244 H246 0.948 . S
H245 C243 0.952 . S
H246 C244 0.948 . S
H247 C236 0.952 . S
H248 C238 0.948 . S
C249 C215 1.395 . S
C249 C219 1.391 . S
C250 C212 1.389 . S
C250 C232 1.392 . S
C251 C222 1.392 . S
C251 C224 1.389 . S
C252 C227 1.395 . S
C252 C229 1.391 . S
H253 C213 0.951 . S
H254 C214 0.950 . S
H255 C220 0.949 . S
H256 C221 0.950 . S
H257 C225 0.951 . S
H258 C226 0.950 . S
H259 C230 0.949 . S
H260 C231 0.950 . S
H261 C235 0.950 . S
H262 C237 0.950 . S
H263 C240 0.950 . S
H264 C242 0.950 . S
C265 C266 1.443 . S
C265 N269 1.376 . S
C265 C303 1.389 . S
C266 C265 1.443 . S
C266 C267 1.340 . S
C266 H306 0.951 . S
C267 C266 1.340 . S
C267 C268 1.439 . S
C267 H307 0.950 . S
C268 C267 1.439 . S
C268 N269 1.374 . S
C268 C302 1.395 . S
N269 C265 1.376 . S
N269 C268 1.374 . S
N269 Co270 2.008 . S
Co270 N269 2.008 . S
Co270 N271 1.995 . S
Co270 N276 2.008 . S
Co270 N281 1.995 . S
Co270 N286 2.282 . S
Co270 N292 2.282 . S
N271 Co270 1.995 . S
N271 C272 1.376 . S
N271 C275 1.383 . S
C272 N271 1.376 . S
C272 C273 1.446 . S
C272 C302 1.391 . S
C273 C272 1.446 . S
C273 C274 1.339 . S
C273 H308 0.949 . S
C274 C273 1.339 . S
C274 C275 1.439 . S
C274 H309 0.950 . S
C275 N271 1.383 . S
C275 C274 1.439 . S
C275 C304 1.392 . S
N276 Co270 2.008 . S
N276 C277 1.376 . S
N276 C280 1.374 . S
C277 N276 1.376 . S
C277 C278 1.443 . S
C277 C304 1.389 . S
C278 C277 1.443 . S
C278 C279 1.340 . S
C278 H310 0.951 . S
C279 C278 1.340 . S
C279 C280 1.439 . S
C279 H311 0.950 . S
C280 N276 1.374 . S
C280 C279 1.439 . S
C280 C305 1.395 . S
N281 Co270 1.995 . S
N281 C282 1.376 . S
N281 C285 1.383 . S
C282 N281 1.376 . S
C282 C283 1.446 . S
C282 C305 1.391 . S
C283 C282 1.446 . S
C283 C284 1.339 . S
C283 H312 0.949 . S
C284 C283 1.339 . S
C284 C285 1.439 . S
C284 H313 0.950 . S
C285 N281 1.383 . S
C285 C284 1.439 . S
C285 C303 1.392 . S
N286 Co270 2.282 . S
N286 C289 1.332 . S
N286 C291 1.332 . S
C287 C288 1.386 . S
C287 C290 1.388 . S
C288 C287 1.386 . S
C288 C289 1.382 . S
C288 H314 0.950 . S
C289 N286 1.332 . S
C289 C288 1.382 . S
C289 H300 0.952 . S
C290 C287 1.388 . S
C290 C291 1.382 . S
C290 H315 0.950 . S
C291 N286 1.332 . S
C291 C290 1.382 . S
C291 H301 0.948 . S
N292 Co270 2.282 . S
N292 C296 1.332 . S
N292 C297 1.332 . S
C293 C294 1.388 . S
C293 C297 1.382 . S
C293 H316 0.950 . S
C294 C293 1.388 . S
C294 C295 1.386 . S
C295 C294 1.386 . S
C295 C296 1.382 . S
C295 H317 0.950 . S
C296 N292 1.332 . S
C296 C295 1.382 . S
C296 H298 0.952 . S
C297 N292 1.332 . S
C297 C293 1.382 . S
C297 H299 0.948 . S
H298 C296 0.952 . S
H299 C297 0.948 . S
H300 C289 0.952 . S
H301 C291 0.948 . S
C302 C268 1.395 . S
C302 C272 1.391 . S
C303 C265 1.389 . S
C303 C285 1.392 . S
C304 C275 1.392 . S
C304 C277 1.389 . S
C305 C280 1.395 . S
C305 C282 1.391 . S
H306 C266 0.951 . S
H307 C267 0.950 . S
H308 C273 0.949 . S
H309 C274 0.950 . S
H310 C278 0.951 . S
H311 C279 0.950 . S
H312 C283 0.949 . S
H313 C284 0.950 . S
H314 C288 0.950 . S
H315 C290 0.950 . S
H316 C293 0.950 . S
H317 C295 0.950 . S
C318 C319 1.443 . S
C318 N322 1.376 . S
C318 C356 1.389 . S
C319 C318 1.443 . S
C319 C320 1.340 . S
C319 H359 0.951 . S
C320 C319 1.340 . S
C320 C321 1.439 . S
C320 H360 0.950 . S
C321 C320 1.439 . S
C321 N322 1.374 . S
C321 C355 1.395 . S
N322 C318 1.376 . S
N322 C321 1.374 . S
N322 Co323 2.008 . S
Co323 N322 2.008 . S
Co323 N324 1.995 . S
Co323 N329 2.008 . S
Co323 N334 1.995 . S
Co323 N339 2.282 . S
Co323 N345 2.282 . S
N324 Co323 1.995 . S
N324 C325 1.376 . S
N324 C328 1.383 . S
C325 N324 1.376 . S
C325 C326 1.446 . S
C325 C355 1.391 . S
C326 C325 1.446 . S
C326 C327 1.339 . S
C326 H361 0.949 . S
C327 C326 1.339 . S
C327 C328 1.439 . S
C327 H362 0.950 . S
C328 N324 1.383 . S
C328 C327 1.439 . S
C328 C357 1.392 . S
N329 Co323 2.008 . S
N329 C330 1.376 . S
N329 C333 1.374 . S
C330 N329 1.376 . S
C330 C331 1.443 . S
C330 C357 1.389 . S
C331 C330 1.443 . S
C331 C332 1.340 . S
C331 H363 0.951 . S
C332 C331 1.340 . S
C332 C333 1.439 . S
C332 H364 0.950 . S
C333 N329 1.374 . S
C333 C332 1.439 . S
C333 C358 1.395 . S
N334 Co323 1.995 . S
N334 C335 1.376 . S
N334 C338 1.383 . S
C335 N334 1.376 . S
C335 C336 1.446 . S
C335 C358 1.391 . S
C336 C335 1.446 . S
C336 C337 1.339 . S
C336 H365 0.949 . S
C337 C336 1.339 . S
C337 C338 1.439 . S
C337 H366 0.950 . S
C338 N334 1.383 . S
C338 C337 1.439 . S
C338 C356 1.392 . S
N339 Co323 2.282 . S
N339 C342 1.332 . S
N339 C344 1.332 . S
C340 C341 1.386 . S
C340 C343 1.388 . S
C341 C340 1.386 . S
C341 C342 1.382 . S
C341 H367 0.950 . S
C342 N339 1.332 . S
C342 C341 1.382 . S
C342 H353 0.952 . S
C343 C340 1.388 . S
C343 C344 1.382 . S
C343 H368 0.950 . S
C344 N339 1.332 . S
C344 C343 1.382 . S
C344 H354 0.948 . S
N345 Co323 2.282 . S
N345 C349 1.332 . S
N345 C350 1.332 . S
C346 C347 1.388 . S
C346 C350 1.382 . S
C346 H369 0.950 . S
C347 C346 1.388 . S
C347 C348 1.386 . S
C348 C347 1.386 . S
C348 C349 1.382 . S
C348 H370 0.950 . S
C349 N345 1.332 . S
C349 C348 1.382 . S
C349 H351 0.952 . S
C350 N345 1.332 . S
C350 C346 1.382 . S
C350 H352 0.948 . S
H351 C349 0.952 . S
H352 C350 0.948 . S
H353 C342 0.952 . S
H354 C344 0.948 . S
C355 C321 1.395 . S
C355 C325 1.391 . S
C356 C318 1.389 . S
C356 C338 1.392 . S
C357 C328 1.392 . S
C357 C330 1.389 . S
C358 C333 1.395 . S
C358 C335 1.391 . S
H359 C319 0.951 . S
H360 C320 0.950 . S
H361 C326 0.949 . S
H362 C327 0.950 . S
H363 C331 0.951 . S
H364 C332 0.950 . S
H365 C336 0.949 . S
H366 C337 0.950 . S
H367 C341 0.950 . S
H368 C343 0.950 . S
H369 C346 0.950 . S
H370 C348 0.950 . S
C371 C372 1.443 . S
C371 N375 1.376 . S
C371 C409 1.389 . S
C372 C371 1.443 . S
C372 C373 1.340 . S
C372 H412 0.951 . S
C373 C372 1.340 . S
C373 C374 1.439 . S
C373 H413 0.950 . S
C374 C373 1.439 . S
C374 N375 1.374 . S
C374 C408 1.395 . S
N375 C371 1.376 . S
N375 C374 1.374 . S
N375 Co376 2.008 . S
Co376 N375 2.008 . S
Co376 N377 1.995 . S
Co376 N382 2.008 . S
Co376 N387 1.995 . S
Co376 N392 2.282 . S
Co376 N398 2.282 . S
N377 Co376 1.995 . S
N377 C378 1.376 . S
N377 C381 1.383 . S
C378 N377 1.376 . S
C378 C379 1.446 . S
C378 C408 1.391 . S
C379 C378 1.446 . S
C379 C380 1.339 . S
C379 H414 0.949 . S
C380 C379 1.339 . S
C380 C381 1.439 . S
C380 H415 0.950 . S
C381 N377 1.383 . S
C381 C380 1.439 . S
C381 C410 1.392 . S
N382 Co376 2.008 . S
N382 C383 1.376 . S
N382 C386 1.374 . S
C383 N382 1.376 . S
C383 C384 1.443 . S
C383 C410 1.389 . S
C384 C383 1.443 . S
C384 C385 1.340 . S
C384 H416 0.951 . S
C385 C384 1.340 . S
C385 C386 1.439 . S
C385 H417 0.950 . S
C386 N382 1.374 . S
C386 C385 1.439 . S
C386 C411 1.395 . S
N387 Co376 1.995 . S
N387 C388 1.376 . S
N387 C391 1.383 . S
C388 N387 1.376 . S
C388 C389 1.446 . S
C388 C411 1.391 . S
C389 C388 1.446 . S
C389 C390 1.339 . S
C389 H418 0.949 . S
C390 C389 1.339 . S
C390 C391 1.439 . S
C390 H419 0.950 . S
C391 N387 1.383 . S
C391 C390 1.439 . S
C391 C409 1.392 . S
N392 Co376 2.282 . S
N392 C395 1.332 . S
N392 C397 1.332 . S
C393 C394 1.386 . S
C393 C396 1.388 . S
C394 C393 1.386 . S
C394 C395 1.382 . S
C394 H420 0.950 . S
C395 N392 1.332 . S
C395 C394 1.382 . S
C395 H406 0.952 . S
C396 C393 1.388 . S
C396 C397 1.382 . S
C396 H421 0.950 . S
C397 N392 1.332 . S
C397 C396 1.382 . S
C397 H407 0.948 . S
N398 Co376 2.282 . S
N398 C402 1.332 . S
N398 C403 1.332 . S
C399 C400 1.388 . S
C399 C403 1.382 . S
C399 H422 0.950 . S
C400 C399 1.388 . S
C400 C401 1.386 . S
C401 C400 1.386 . S
C401 C402 1.382 . S
C401 H423 0.950 . S
C402 N398 1.332 . S
C402 C401 1.382 . S
C402 H404 0.952 . S
C403 N398 1.332 . S
C403 C399 1.382 . S
C403 H405 0.948 . S
H404 C402 0.952 . S
H405 C403 0.948 . S
H406 C395 0.952 . S
H407 C397 0.948 . S
C408 C374 1.395 . S
C408 C378 1.391 . S
C409 C371 1.389 . S
C409 C391 1.392 . S
C410 C381 1.392 . S
C410 C383 1.389 . S
C411 C386 1.395 . S
C411 C388 1.391 . S
H412 C372 0.951 . S
H413 C373 0.950 . S
H414 C379 0.949 . S
H415 C380 0.950 . S
H416 C384 0.951 . S
H417 C385 0.950 . S
H418 C389 0.949 . S
H419 C390 0.950 . S
H420 C394 0.950 . S
H421 C396 0.950 . S
H422 C399 0.950 . S
H423 C401 0.950 . S
C424 C425 1.443 . S
C424 N428 1.376 . S
C424 C462 1.389 . S
C425 C424 1.443 . S
C425 C426 1.340 . S
C425 H465 0.951 . S
C426 C425 1.340 . S
C426 C427 1.439 . S
C426 H466 0.950 . S
C427 C426 1.439 . S
C427 N428 1.374 . S
C427 C461 1.395 . S
N428 C424 1.376 . S
N428 C427 1.374 . S
N428 Co429 2.008 . S
Co429 N428 2.008 . S
Co429 N430 1.995 . S
Co429 N435 2.008 . S
Co429 N440 1.995 . S
Co429 N445 2.282 . S
Co429 N451 2.282 . S
N430 Co429 1.995 . S
N430 C431 1.376 . S
N430 C434 1.383 . S
C431 N430 1.376 . S
C431 C432 1.446 . S
C431 C461 1.391 . S
C432 C431 1.446 . S
C432 C433 1.339 . S
C432 H467 0.949 . S
C433 C432 1.339 . S
C433 C434 1.439 . S
C433 H468 0.950 . S
C434 N430 1.383 . S
C434 C433 1.439 . S
C434 C463 1.392 . S
N435 Co429 2.008 . S
N435 C436 1.376 . S
N435 C439 1.374 . S
C436 N435 1.376 . S
C436 C437 1.443 . S
C436 C463 1.389 . S
C437 C436 1.443 . S
C437 C438 1.340 . S
C437 H469 0.951 . S
C438 C437 1.340 . S
C438 C439 1.439 . S
C438 H470 0.950 . S
C439 N435 1.374 . S
C439 C438 1.439 . S
C439 C464 1.395 . S
N440 Co429 1.995 . S
N440 C441 1.376 . S
N440 C444 1.383 . S
C441 N440 1.376 . S
C441 C442 1.446 . S
C441 C464 1.391 . S
C442 C441 1.446 . S
C442 C443 1.339 . S
C442 H471 0.949 . S
C443 C442 1.339 . S
C443 C444 1.439 . S
C443 H472 0.950 1_545 S
C444 N440 1.383 . S
C444 C443 1.439 . S
C444 C462 1.392 . S
N445 Co429 2.282 . S
N445 C448 1.332 . S
N445 C450 1.332 . S
C446 C447 1.386 . S
C446 C449 1.388 . S
C447 C446 1.386 . S
C447 C448 1.382 . S
C447 H473 0.950 . S
C448 N445 1.332 . S
C448 C447 1.382 . S
C448 H459 0.952 . S
C449 C446 1.388 . S
C449 C450 1.382 . S
C449 H474 0.950 . S
C450 N445 1.332 . S
C450 C449 1.382 . S
C450 H460 0.948 . S
N451 Co429 2.282 . S
N451 C455 1.332 . S
N451 C456 1.332 . S
C452 C453 1.388 . S
C452 C456 1.382 . S
C452 H475 0.950 . S
C453 C452 1.388 . S
C453 C454 1.386 . S
C454 C453 1.386 . S
C454 C455 1.382 . S
C454 H476 0.950 . S
C455 N451 1.332 . S
C455 C454 1.382 . S
C455 H457 0.952 . S
C456 N451 1.332 . S
C456 C452 1.382 . S
C456 H458 0.948 . S
H457 C455 0.952 . S
H458 C456 0.948 . S
H459 C448 0.952 . S
H460 C450 0.948 . S
C461 C427 1.395 . S
C461 C431 1.391 . S
C462 C424 1.389 . S
C462 C444 1.392 . S
C463 C434 1.392 . S
C463 C436 1.389 . S
C464 C439 1.395 . S
C464 C441 1.391 . S
H465 C425 0.951 . S
H466 C426 0.950 . S
H467 C432 0.949 . S
H468 C433 0.950 . S
H469 C437 0.951 . S
H470 C438 0.950 . S
H471 C442 0.949 . S
H472 C443 0.950 1_565 S
H473 C447 0.950 . S
H474 C449 0.950 . S
H475 C452 0.950 . S
H476 C454 0.950 . S
C477 C478 1.443 . S
C477 N481 1.376 . S
C477 C515 1.389 . S
C478 C477 1.443 . S
C478 C479 1.340 . S
C478 H518 0.951 . S
C479 C478 1.340 . S
C479 C480 1.439 . S
C479 H519 0.950 . S
C480 C479 1.439 . S
C480 N481 1.374 . S
C480 C514 1.395 . S
N481 C477 1.376 . S
N481 C480 1.374 . S
N481 Co482 2.008 . S
Co482 N481 2.008 . S
Co482 N483 1.995 . S
Co482 N488 2.008 . S
Co482 N493 1.995 . S
Co482 N498 2.282 . S
Co482 N504 2.282 . S
N483 Co482 1.995 . S
N483 C484 1.376 . S
N483 C487 1.383 . S
C484 N483 1.376 . S
C484 C485 1.446 . S
C484 C514 1.391 . S
C485 C484 1.446 . S
C485 C486 1.339 . S
C485 H520 0.949 . S
C486 C485 1.339 . S
C486 C487 1.439 . S
C486 H521 0.950 . S
C487 N483 1.383 . S
C487 C486 1.439 . S
C487 C516 1.392 . S
N488 Co482 2.008 . S
N488 C489 1.376 . S
N488 C492 1.374 . S
C489 N488 1.376 . S
C489 C490 1.443 . S
C489 C516 1.389 . S
C490 C489 1.443 . S
C490 C491 1.340 . S
C490 H522 0.951 . S
C491 C490 1.340 . S
C491 C492 1.439 . S
C491 H523 0.950 . S
C492 N488 1.374 . S
C492 C491 1.439 . S
C492 C517 1.395 . S
N493 Co482 1.995 . S
N493 C494 1.376 . S
N493 C497 1.383 . S
C494 N493 1.376 . S
C494 C495 1.446 . S
C494 C517 1.391 . S
C495 C494 1.446 . S
C495 C496 1.339 . S
C495 H524 0.949 . S
C496 C495 1.339 . S
C496 C497 1.439 . S
C496 H525 0.950 . S
C497 N493 1.383 . S
C497 C496 1.439 . S
C497 C515 1.392 . S
N498 Co482 2.282 . S
N498 C501 1.332 . S
N498 C503 1.332 . S
C499 C500 1.386 . S
C499 C502 1.388 . S
C500 C499 1.386 . S
C500 C501 1.382 . S
C500 H526 0.950 . S
C501 N498 1.332 . S
C501 C500 1.382 . S
C501 H512 0.952 . S
C502 C499 1.388 . S
C502 C503 1.382 . S
C502 H527 0.950 . S
C503 N498 1.332 . S
C503 C502 1.382 . S
C503 H513 0.948 . S
N504 Co482 2.282 . S
N504 C508 1.332 . S
N504 C509 1.332 . S
C505 C506 1.388 . S
C505 C509 1.382 . S
C505 H528 0.950 . S
C506 C505 1.388 . S
C506 C507 1.386 . S
C507 C506 1.386 . S
C507 C508 1.382 . S
C507 H529 0.950 . S
C508 N504 1.332 . S
C508 C507 1.382 . S
C508 H510 0.952 . S
C509 N504 1.332 . S
C509 C505 1.382 . S
C509 H511 0.948 . S
H510 C508 0.952 . S
H511 C509 0.948 . S
H512 C501 0.952 . S
H513 C503 0.948 . S
C514 C480 1.395 . S
C514 C484 1.391 . S
C515 C477 1.389 . S
C515 C497 1.392 . S
C516 C487 1.392 . S
C516 C489 1.389 . S
C517 C492 1.395 . S
C517 C494 1.391 . S
H518 C478 0.951 . S
H519 C479 0.950 . S
H520 C485 0.949 . S
H521 C486 0.950 . S
H522 C490 0.951 . S
H523 C491 0.950 . S
H524 C495 0.949 . S
H525 C496 0.950 . S
H526 C500 0.950 . S
H527 C502 0.950 . S
H528 C505 0.950 . S
H529 C507 0.950 . S
C530 C531 1.443 . S
C530 N534 1.376 . S
C530 C568 1.389 . S
C531 C530 1.443 . S
C531 C532 1.340 . S
C531 H571 0.951 . S
C532 C531 1.340 . S
C532 C533 1.439 . S
C532 H572 0.950 . S
C533 C532 1.439 . S
C533 N534 1.374 . S
C533 C567 1.395 . S
N534 C530 1.376 . S
N534 C533 1.374 . S
N534 Co535 2.008 . S
Co535 N534 2.008 . S
Co535 N536 1.995 . S
Co535 N541 2.008 . S
Co535 N546 1.995 . S
Co535 N551 2.282 . S
Co535 N557 2.282 . S
N536 Co535 1.995 . S
N536 C537 1.376 . S
N536 C540 1.383 . S
C537 N536 1.376 . S
C537 C538 1.446 . S
C537 C567 1.391 . S
C538 C537 1.446 . S
C538 C539 1.339 . S
C538 H573 0.949 . S
C539 C538 1.339 . S
C539 C540 1.439 . S
C539 H574 0.950 . S
C540 N536 1.383 . S
C540 C539 1.439 . S
C540 C569 1.392 . S
N541 Co535 2.008 . S
N541 C542 1.376 . S
N541 C545 1.374 . S
C542 N541 1.376 . S
C542 C543 1.443 . S
C542 C569 1.389 . S
C543 C542 1.443 . S
C543 C544 1.340 . S
C543 H575 0.951 . S
C544 C543 1.340 . S
C544 C545 1.439 . S
C544 H576 0.950 . S
C545 N541 1.374 . S
C545 C544 1.439 . S
C545 C570 1.395 . S
N546 Co535 1.995 . S
N546 C547 1.376 . S
N546 C550 1.383 . S
C547 N546 1.376 . S
C547 C548 1.446 . S
C547 C570 1.391 . S
C548 C547 1.446 . S
C548 C549 1.339 . S
C548 H577 0.949 . S
C549 C548 1.339 . S
C549 C550 1.439 . S
C549 H578 0.950 . S
C550 N546 1.383 . S
C550 C549 1.439 . S
C550 C568 1.392 . S
N551 Co535 2.282 . S
N551 C554 1.332 . S
N551 C556 1.332 . S
C552 C553 1.386 . S
C552 C555 1.388 . S
C553 C552 1.386 . S
C553 C554 1.382 . S
C553 H579 0.950 . S
C554 N551 1.332 . S
C554 C553 1.382 . S
C554 H565 0.952 . S
C555 C552 1.388 . S
C555 C556 1.382 . S
C555 H580 0.950 . S
C556 N551 1.332 . S
C556 C555 1.382 . S
C556 H566 0.948 . S
N557 Co535 2.282 . S
N557 C561 1.332 . S
N557 C562 1.332 . S
C558 C559 1.388 . S
C558 C562 1.382 . S
C558 H581 0.950 . S
C559 C558 1.388 . S
C559 C560 1.386 . S
C560 C559 1.386 . S
C560 C561 1.382 . S
C560 H582 0.950 . S
C561 N557 1.332 . S
C561 C560 1.382 . S
C561 H563 0.952 . S
C562 N557 1.332 . S
C562 C558 1.382 . S
C562 H564 0.948 . S
H563 C561 0.952 . S
H564 C562 0.948 . S
H565 C554 0.952 . S
H566 C556 0.948 . S
C567 C533 1.395 . S
C567 C537 1.391 . S
C568 C530 1.389 . S
C568 C550 1.392 . S
C569 C540 1.392 . S
C569 C542 1.389 . S
C570 C545 1.395 . S
C570 C547 1.391 . S
H571 C531 0.951 . S
H572 C532 0.950 . S
H573 C538 0.949 . S
H574 C539 0.950 . S
H575 C543 0.951 . S
H576 C544 0.950 . S
H577 C548 0.949 . S
H578 C549 0.950 . S
H579 C553 0.950 . S
H580 C555 0.950 . S
H581 C558 0.950 . S
H582 C560 0.950 . S
C583 C584 1.443 . S
C583 N587 1.376 . S
C583 C621 1.389 . S
C584 C583 1.443 . S
C584 C585 1.340 . S
C584 H624 0.951 . S
C585 C584 1.340 . S
C585 C586 1.439 . S
C585 H625 0.950 . S
C586 C585 1.439 . S
C586 N587 1.374 . S
C586 C620 1.395 . S
N587 C583 1.376 . S
N587 C586 1.374 . S
N587 Co588 2.008 . S
Co588 N587 2.008 . S
Co588 N589 1.995 . S
Co588 N594 2.008 . S
Co588 N599 1.995 . S
Co588 N604 2.282 . S
Co588 N610 2.282 . S
N589 Co588 1.995 . S
N589 C590 1.376 . S
N589 C593 1.383 . S
C590 N589 1.376 . S
C590 C591 1.446 . S
C590 C620 1.391 . S
C591 C590 1.446 . S
C591 C592 1.339 . S
C591 H626 0.949 . S
C592 C591 1.339 . S
C592 C593 1.439 . S
C592 H627 0.950 . S
C593 N589 1.383 . S
C593 C592 1.439 . S
C593 C622 1.392 . S
N594 Co588 2.008 . S
N594 C595 1.376 . S
N594 C598 1.374 . S
C595 N594 1.376 . S
C595 C596 1.443 . S
C595 C622 1.389 . S
C596 C595 1.443 . S
C596 C597 1.340 . S
C596 H628 0.951 . S
C597 C596 1.340 . S
C597 C598 1.439 . S
C597 H629 0.950 . S
C598 N594 1.374 . S
C598 C597 1.439 . S
C598 C623 1.395 . S
N599 Co588 1.995 . S
N599 C600 1.376 . S
N599 C603 1.383 . S
C600 N599 1.376 . S
C600 C601 1.446 . S
C600 C623 1.391 . S
C601 C600 1.446 . S
C601 C602 1.339 . S
C601 H630 0.949 . S
C602 C601 1.339 . S
C602 C603 1.439 . S
C602 H631 0.950 . S
C603 N599 1.383 . S
C603 C602 1.439 . S
C603 C621 1.392 . S
N604 Co588 2.282 . S
N604 C607 1.332 . S
N604 C609 1.332 . S
C605 C606 1.386 . S
C605 C608 1.388 . S
C606 C605 1.386 . S
C606 C607 1.382 . S
C606 H632 0.950 . S
C607 N604 1.332 . S
C607 C606 1.382 . S
C607 H618 0.952 . S
C608 C605 1.388 . S
C608 C609 1.382 . S
C608 H633 0.950 . S
C609 N604 1.332 . S
C609 C608 1.382 . S
C609 H619 0.948 . S
N610 Co588 2.282 . S
N610 C614 1.332 . S
N610 C615 1.332 . S
C611 C612 1.388 . S
C611 C615 1.382 . S
C611 H634 0.950 . S
C612 C611 1.388 . S
C612 C613 1.386 . S
C613 C612 1.386 . S
C613 C614 1.382 . S
C613 H635 0.950 . S
C614 N610 1.332 . S
C614 C613 1.382 . S
C614 H616 0.952 . S
C615 N610 1.332 . S
C615 C611 1.382 . S
C615 H617 0.948 . S
H616 C614 0.952 . S
H617 C615 0.948 . S
H618 C607 0.952 . S
H619 C609 0.948 . S
C620 C586 1.395 . S
C620 C590 1.391 . S
C621 C583 1.389 . S
C621 C603 1.392 . S
C622 C593 1.392 . S
C622 C595 1.389 . S
C623 C598 1.395 . S
C623 C600 1.391 . S
H624 C584 0.951 . S
H625 C585 0.950 . S
H626 C591 0.949 . S
H627 C592 0.950 . S
H628 C596 0.951 . S
H629 C597 0.950 . S
H630 C601 0.949 . S
H631 C602 0.950 . S
H632 C606 0.950 . S
H633 C608 0.950 . S
H634 C611 0.950 . S
H635 C613 0.950 . S
C636 C637 1.443 . S
C636 N640 1.376 . S
C636 C674 1.389 . S
C637 C636 1.443 . S
C637 C638 1.340 . S
C637 H677 0.951 . S
C638 C637 1.340 . S
C638 C639 1.439 . S
C638 H678 0.950 . S
C639 C638 1.439 . S
C639 N640 1.374 . S
C639 C673 1.395 . S
N640 C636 1.376 . S
N640 C639 1.374 . S
N640 Co641 2.008 . S
Co641 N640 2.008 . S
Co641 N642 1.995 . S
Co641 N647 2.008 . S
Co641 N652 1.995 . S
Co641 N657 2.282 . S
Co641 N663 2.282 . S
N642 Co641 1.995 . S
N642 C643 1.376 . S
N642 C646 1.383 . S
C643 N642 1.376 . S
C643 C644 1.446 . S
C643 C673 1.391 . S
C644 C643 1.446 . S
C644 C645 1.339 . S
C644 H679 0.949 . S
C645 C644 1.339 . S
C645 C646 1.439 . S
C645 H680 0.950 . S
C646 N642 1.383 . S
C646 C645 1.439 . S
C646 C675 1.392 . S
N647 Co641 2.008 . S
N647 C648 1.376 . S
N647 C651 1.374 . S
C648 N647 1.376 . S
C648 C649 1.443 . S
C648 C675 1.389 . S
C649 C648 1.443 . S
C649 C650 1.340 . S
C649 H681 0.951 . S
C650 C649 1.340 . S
C650 C651 1.439 . S
C650 H682 0.950 . S
C651 N647 1.374 . S
C651 C650 1.439 . S
C651 C676 1.395 . S
N652 Co641 1.995 . S
N652 C653 1.376 . S
N652 C656 1.383 . S
C653 N652 1.376 . S
C653 C654 1.446 . S
C653 C676 1.391 . S
C654 C653 1.446 . S
C654 C655 1.339 . S
C654 H683 0.949 . S
C655 C654 1.339 . S
C655 C656 1.439 . S
C655 H684 0.950 . S
C656 N652 1.383 . S
C656 C655 1.439 . S
C656 C674 1.392 . S
N657 Co641 2.282 . S
N657 C660 1.332 . S
N657 C662 1.332 . S
C658 C659 1.386 . S
C658 C661 1.388 . S
C659 C658 1.386 . S
C659 C660 1.382 . S
C659 H685 0.950 . S
C660 N657 1.332 . S
C660 C659 1.382 . S
C660 H671 0.952 . S
C661 C658 1.388 . S
C661 C662 1.382 . S
C661 H686 0.950 . S
C662 N657 1.332 . S
C662 C661 1.382 . S
C662 H672 0.948 . S
N663 Co641 2.282 . S
N663 C667 1.332 . S
N663 C668 1.332 . S
C664 C665 1.388 . S
C664 C668 1.382 . S
C664 H687 0.950 . S
C665 C664 1.388 . S
C665 C666 1.386 . S
C666 C665 1.386 . S
C666 C667 1.382 . S
C666 H688 0.950 . S
C667 N663 1.332 . S
C667 C666 1.382 . S
C667 H669 0.952 . S
C668 N663 1.332 . S
C668 C664 1.382 . S
C668 H670 0.948 . S
H669 C667 0.952 . S
H670 C668 0.948 . S
H671 C660 0.952 . S
H672 C662 0.948 . S
C673 C639 1.395 . S
C673 C643 1.391 . S
C674 C636 1.389 . S
C674 C656 1.392 . S
C675 C646 1.392 . S
C675 C648 1.389 . S
C676 C651 1.395 . S
C676 C653 1.391 . S
H677 C637 0.951 . S
H678 C638 0.950 . S
H679 C644 0.949 . S
H680 C645 0.950 . S
H681 C649 0.951 . S
H682 C650 0.950 . S
H683 C654 0.949 . S
H684 C655 0.950 . S
H685 C659 0.950 . S
H686 C661 0.950 . S
H687 C664 0.950 . S
H688 C666 0.950 . S
C689 C690 1.443 . S
C689 N693 1.376 . S
C689 C727 1.389 . S
C690 C689 1.443 . S
C690 C691 1.340 . S
C690 H730 0.951 . S
C691 C690 1.340 . S
C691 C692 1.439 . S
C691 H731 0.950 . S
C692 C691 1.439 . S
C692 N693 1.374 . S
C692 C726 1.395 . S
N693 C689 1.376 . S
N693 C692 1.374 . S
N693 Co694 2.008 . S
Co694 N693 2.008 . S
Co694 N695 1.995 . S
Co694 N700 2.008 . S
Co694 N705 1.995 . S
Co694 N710 2.282 . S
Co694 N716 2.282 . S
N695 Co694 1.995 . S
N695 C696 1.376 . S
N695 C699 1.383 . S
C696 N695 1.376 . S
C696 C697 1.446 . S
C696 C726 1.391 . S
C697 C696 1.446 . S
C697 C698 1.339 . S
C697 H732 0.949 . S
C698 C697 1.339 . S
C698 C699 1.439 . S
C698 H733 0.950 . S
C699 N695 1.383 . S
C699 C698 1.439 . S
C699 C728 1.392 . S
N700 Co694 2.008 . S
N700 C701 1.376 . S
N700 C704 1.374 . S
C701 N700 1.376 . S
C701 C702 1.443 . S
C701 C728 1.389 . S
C702 C701 1.443 . S
C702 C703 1.340 . S
C702 H734 0.951 . S
C703 C702 1.340 . S
C703 C704 1.439 . S
C703 H735 0.950 . S
C704 N700 1.374 . S
C704 C703 1.439 . S
C704 C729 1.395 . S
N705 Co694 1.995 . S
N705 C706 1.376 . S
N705 C709 1.383 . S
C706 N705 1.376 . S
C706 C707 1.446 . S
C706 C729 1.391 . S
C707 C706 1.446 . S
C707 C708 1.339 . S
C707 H736 0.949 . S
C708 C707 1.339 . S
C708 C709 1.439 . S
C708 H737 0.950 . S
C709 N705 1.383 . S
C709 C708 1.439 . S
C709 C727 1.392 . S
N710 Co694 2.282 . S
N710 C713 1.332 . S
N710 C715 1.332 . S
C711 C712 1.386 . S
C711 C714 1.388 . S
C712 C711 1.386 . S
C712 C713 1.382 . S
C712 H738 0.950 . S
C713 N710 1.332 . S
C713 C712 1.382 . S
C713 H724 0.952 . S
C714 C711 1.388 . S
C714 C715 1.382 . S
C714 H739 0.950 . S
C715 N710 1.332 . S
C715 C714 1.382 . S
C715 H725 0.948 . S
N716 Co694 2.282 . S
N716 C720 1.332 . S
N716 C721 1.332 . S
C717 C718 1.388 . S
C717 C721 1.382 . S
C717 H740 0.950 . S
C718 C717 1.388 . S
C718 C719 1.386 . S
C719 C718 1.386 . S
C719 C720 1.382 . S
C719 H741 0.950 . S
C720 N716 1.332 . S
C720 C719 1.382 . S
C720 H722 0.952 . S
C721 N716 1.332 . S
C721 C717 1.382 . S
C721 H723 0.948 . S
H722 C720 0.952 . S
H723 C721 0.948 . S
H724 C713 0.952 . S
H725 C715 0.948 . S
C726 C692 1.395 . S
C726 C696 1.391 . S
C727 C689 1.389 . S
C727 C709 1.392 . S
C728 C699 1.392 . S
C728 C701 1.389 . S
C729 C704 1.395 . S
C729 C706 1.391 . S
H730 C690 0.951 . S
H731 C691 0.950 . S
H732 C697 0.949 . S
H733 C698 0.950 . S
H734 C702 0.951 . S
H735 C703 0.950 . S
H736 C707 0.949 . S
H737 C708 0.950 . S
H738 C712 0.950 . S
H739 C714 0.950 . S
H740 C717 0.950 . S
H741 C719 0.950 . S
C742 C743 1.443 . S
C742 N746 1.376 . S
C742 C780 1.389 . S
C743 C742 1.443 . S
C743 C744 1.340 . S
C743 H783 0.951 . S
C744 C743 1.340 . S
C744 C745 1.439 . S
C744 H784 0.950 . S
C745 C744 1.439 . S
C745 N746 1.374 . S
C745 C779 1.395 . S
N746 C742 1.376 . S
N746 C745 1.374 . S
N746 Co747 2.008 . S
Co747 N746 2.008 . S
Co747 N748 1.995 . S
Co747 N753 2.008 . S
Co747 N758 1.995 . S
Co747 N763 2.282 . S
Co747 N769 2.282 . S
N748 Co747 1.995 . S
N748 C749 1.376 . S
N748 C752 1.383 . S
C749 N748 1.376 . S
C749 C750 1.446 . S
C749 C779 1.391 . S
C750 C749 1.446 . S
C750 C751 1.339 . S
C750 H785 0.949 . S
C751 C750 1.339 . S
C751 C752 1.439 . S
C751 H786 0.950 . S
C752 N748 1.383 . S
C752 C751 1.439 . S
C752 C781 1.392 . S
N753 Co747 2.008 . S
N753 C754 1.376 . S
N753 C757 1.374 . S
C754 N753 1.376 . S
C754 C755 1.443 . S
C754 C781 1.389 . S
C755 C754 1.443 . S
C755 C756 1.340 . S
C755 H787 0.951 . S
C756 C755 1.340 . S
C756 C757 1.439 . S
C756 H788 0.950 . S
C757 N753 1.374 . S
C757 C756 1.439 . S
C757 C782 1.395 . S
N758 Co747 1.995 . S
N758 C759 1.376 . S
N758 C762 1.383 . S
C759 N758 1.376 . S
C759 C760 1.446 . S
C759 C782 1.391 . S
C760 C759 1.446 . S
C760 C761 1.339 . S
C760 H789 0.949 . S
C761 C760 1.339 . S
C761 C762 1.439 . S
C761 H790 0.950 1_545 S
C762 N758 1.383 . S
C762 C761 1.439 . S
C762 C780 1.392 . S
N763 Co747 2.282 . S
N763 C766 1.332 . S
N763 C768 1.332 . S
C764 C765 1.386 . S
C764 C767 1.388 . S
C765 C764 1.386 . S
C765 C766 1.382 . S
C765 H791 0.950 . S
C766 N763 1.332 . S
C766 C765 1.382 . S
C766 H777 0.952 . S
C767 C764 1.388 . S
C767 C768 1.382 . S
C767 H792 0.950 . S
C768 N763 1.332 . S
C768 C767 1.382 . S
C768 H778 0.948 . S
N769 Co747 2.282 . S
N769 C773 1.332 . S
N769 C774 1.332 . S
C770 C771 1.388 . S
C770 C774 1.382 . S
C770 H793 0.950 . S
C771 C770 1.388 . S
C771 C772 1.386 . S
C772 C771 1.386 . S
C772 C773 1.382 . S
C772 H794 0.950 . S
C773 N769 1.332 . S
C773 C772 1.382 . S
C773 H775 0.952 . S
C774 N769 1.332 . S
C774 C770 1.382 . S
C774 H776 0.948 . S
H775 C773 0.952 . S
H776 C774 0.948 . S
H777 C766 0.952 . S
H778 C768 0.948 . S
C779 C745 1.395 . S
C779 C749 1.391 . S
C780 C742 1.389 . S
C780 C762 1.392 . S
C781 C752 1.392 . S
C781 C754 1.389 . S
C782 C757 1.395 . S
C782 C759 1.391 . S
H783 C743 0.951 . S
H784 C744 0.950 . S
H785 C750 0.949 . S
H786 C751 0.950 . S
H787 C755 0.951 . S
H788 C756 0.950 . S
H789 C760 0.949 . S
H790 C761 0.950 1_565 S
H791 C765 0.950 . S
H792 C767 0.950 . S
H793 C770 0.950 . S
H794 C772 0.950 . S
C795 C796 1.443 . S
C795 N799 1.376 . S
C795 C833 1.389 . S
C796 C795 1.443 . S
C796 C797 1.340 . S
C796 H836 0.951 . S
C797 C796 1.340 . S
C797 C798 1.439 . S
C797 H837 0.950 . S
C798 C797 1.439 . S
C798 N799 1.374 . S
C798 C832 1.395 . S
N799 C795 1.376 . S
N799 C798 1.374 . S
N799 Co800 2.008 . S
Co800 N799 2.008 . S
Co800 N801 1.995 . S
Co800 N806 2.008 . S
Co800 N811 1.995 . S
Co800 N816 2.282 . S
Co800 N822 2.282 . S
N801 Co800 1.995 . S
N801 C802 1.376 . S
N801 C805 1.383 . S
C802 N801 1.376 . S
C802 C803 1.446 . S
C802 C832 1.391 . S
C803 C802 1.446 . S
C803 C804 1.339 . S
C803 H838 0.949 . S
C804 C803 1.339 . S
C804 C805 1.439 . S
C804 H839 0.950 . S
C805 N801 1.383 . S
C805 C804 1.439 . S
C805 C834 1.392 . S
N806 Co800 2.008 . S
N806 C807 1.376 . S
N806 C810 1.374 . S
C807 N806 1.376 . S
C807 C808 1.443 . S
C807 C834 1.389 . S
C808 C807 1.443 . S
C808 C809 1.340 . S
C808 H840 0.951 . S
C809 C808 1.340 . S
C809 C810 1.439 . S
C809 H841 0.950 . S
C810 N806 1.374 . S
C810 C809 1.439 . S
C810 C835 1.395 . S
N811 Co800 1.995 . S
N811 C812 1.376 . S
N811 C815 1.383 . S
C812 N811 1.376 . S
C812 C813 1.446 . S
C812 C835 1.391 . S
C813 C812 1.446 . S
C813 C814 1.339 . S
C813 H842 0.949 . S
C814 C813 1.339 . S
C814 C815 1.439 . S
C814 H843 0.950 . S
C815 N811 1.383 . S
C815 C814 1.439 . S
C815 C833 1.392 . S
N816 Co800 2.282 . S
N816 C819 1.332 . S
N816 C821 1.332 . S
C817 C818 1.386 . S
C817 C820 1.388 . S
C818 C817 1.386 . S
C818 C819 1.382 . S
C818 H844 0.950 . S
C819 N816 1.332 . S
C819 C818 1.382 . S
C819 H830 0.952 . S
C820 C817 1.388 . S
C820 C821 1.382 . S
C820 H845 0.950 . S
C821 N816 1.332 . S
C821 C820 1.382 . S
C821 H831 0.948 . S
N822 Co800 2.282 . S
N822 C826 1.332 . S
N822 C827 1.332 . S
C823 C824 1.388 . S
C823 C827 1.382 . S
C823 H846 0.950 . S
C824 C823 1.388 . S
C824 C825 1.386 . S
C825 C824 1.386 . S
C825 C826 1.382 . S
C825 H847 0.950 . S
C826 N822 1.332 . S
C826 C825 1.382 . S
C826 H828 0.952 . S
C827 N822 1.332 . S
C827 C823 1.382 . S
C827 H829 0.948 . S
H828 C826 0.952 . S
H829 C827 0.948 . S
H830 C819 0.952 . S
H831 C821 0.948 . S
C832 C798 1.395 . S
C832 C802 1.391 . S
C833 C795 1.389 . S
C833 C815 1.392 . S
C834 C805 1.392 . S
C834 C807 1.389 . S
C835 C810 1.395 . S
C835 C812 1.391 . S
H836 C796 0.951 . S
H837 C797 0.950 . S
H838 C803 0.949 . S
H839 C804 0.950 . S
H840 C808 0.951 . S
H841 C809 0.950 . S
H842 C813 0.949 . S
H843 C814 0.950 . S
H844 C818 0.950 . S
H845 C820 0.950 . S
H846 C823 0.950 . S
H847 C825 0.950 . S
C848 C849 1.443 . S
C848 N852 1.376 . S
C848 C886 1.389 . S
C849 C848 1.443 . S
C849 C850 1.340 . S
C849 H889 0.951 . S
C850 C849 1.340 . S
C850 C851 1.439 . S
C850 H890 0.950 . S
C851 C850 1.439 . S
C851 N852 1.374 . S
C851 C885 1.395 . S
N852 C848 1.376 . S
N852 C851 1.374 . S
N852 Co853 2.008 . S
Co853 N852 2.008 . S
Co853 N854 1.995 . S
Co853 N859 2.008 . S
Co853 N864 1.995 . S
Co853 N869 2.282 . S
Co853 N875 2.282 . S
N854 Co853 1.995 . S
N854 C855 1.376 . S
N854 C858 1.383 . S
C855 N854 1.376 . S
C855 C856 1.446 . S
C855 C885 1.391 . S
C856 C855 1.446 . S
C856 C857 1.339 . S
C856 H891 0.949 . S
C857 C856 1.339 . S
C857 C858 1.439 . S
C857 H892 0.950 . S
C858 N854 1.383 . S
C858 C857 1.439 . S
C858 C887 1.392 . S
N859 Co853 2.008 . S
N859 C860 1.376 . S
N859 C863 1.374 . S
C860 N859 1.376 . S
C860 C861 1.443 . S
C860 C887 1.389 . S
C861 C860 1.443 . S
C861 C862 1.340 . S
C861 H893 0.951 . S
C862 C861 1.340 . S
C862 C863 1.439 . S
C862 H894 0.950 . S
C863 N859 1.374 . S
C863 C862 1.439 . S
C863 C888 1.395 . S
N864 Co853 1.995 . S
N864 C865 1.376 . S
N864 C868 1.383 . S
C865 N864 1.376 . S
C865 C866 1.446 . S
C865 C888 1.391 . S
C866 C865 1.446 . S
C866 C867 1.339 . S
C866 H895 0.949 . S
C867 C866 1.339 . S
C867 C868 1.439 . S
C867 H896 0.950 1_554 S
C868 N864 1.383 . S
C868 C867 1.439 . S
C868 C886 1.392 . S
N869 Co853 2.282 . S
N869 C872 1.332 . S
N869 C874 1.332 . S
C870 C871 1.386 . S
C870 C873 1.388 . S
C871 C870 1.386 . S
C871 C872 1.382 . S
C871 H897 0.950 . S
C872 N869 1.332 . S
C872 C871 1.382 . S
C872 H883 0.952 . S
C873 C870 1.388 . S
C873 C874 1.382 . S
C873 H898 0.950 . S
C874 N869 1.332 . S
C874 C873 1.382 . S
C874 H884 0.948 . S
N875 Co853 2.282 . S
N875 C879 1.332 . S
N875 C880 1.332 . S
C876 C877 1.388 . S
C876 C880 1.382 . S
C876 H899 0.950 . S
C877 C876 1.388 . S
C877 C878 1.386 . S
C878 C877 1.386 . S
C878 C879 1.382 . S
C878 H900 0.950 . S
C879 N875 1.332 . S
C879 C878 1.382 . S
C879 H881 0.952 . S
C880 N875 1.332 . S
C880 C876 1.382 . S
C880 H882 0.948 . S
H881 C879 0.952 . S
H882 C880 0.948 . S
H883 C872 0.952 . S
H884 C874 0.948 . S
C885 C851 1.395 . S
C885 C855 1.391 . S
C886 C848 1.389 . S
C886 C868 1.392 . S
C887 C858 1.392 . S
C887 C860 1.389 . S
C888 C863 1.395 . S
C888 C865 1.391 . S
H889 C849 0.951 . S
H890 C850 0.950 . S
H891 C856 0.949 . S
H892 C857 0.950 . S
H893 C861 0.951 . S
H894 C862 0.950 . S
H895 C866 0.949 . S
H896 C867 0.950 1_556 S
H897 C871 0.950 . S
H898 C873 0.950 . S
H899 C876 0.950 . S
H900 C878 0.950 . S
C901 C902 1.443 . S
C901 N905 1.376 . S
C901 C939 1.389 . S
C902 C901 1.443 . S
C902 C903 1.340 . S
C902 H942 0.951 . S
C903 C902 1.340 . S
C903 C904 1.439 . S
C903 H943 0.950 . S
C904 C903 1.439 . S
C904 N905 1.374 . S
C904 C938 1.395 . S
N905 C901 1.376 . S
N905 C904 1.374 . S
N905 Co906 2.008 . S
Co906 N905 2.008 . S
Co906 N907 1.995 . S
Co906 N912 2.008 . S
Co906 N917 1.995 . S
Co906 N922 2.282 . S
Co906 N928 2.282 . S
N907 Co906 1.995 . S
N907 C908 1.376 . S
N907 C911 1.383 . S
C908 N907 1.376 . S
C908 C909 1.446 . S
C908 C938 1.391 . S
C909 C908 1.446 . S
C909 C910 1.339 . S
C909 H944 0.949 . S
C910 C909 1.339 . S
C910 C911 1.439 . S
C910 H945 0.950 . S
C911 N907 1.383 . S
C911 C910 1.439 . S
C911 C940 1.392 . S
N912 Co906 2.008 . S
N912 C913 1.376 . S
N912 C916 1.374 . S
C913 N912 1.376 . S
C913 C914 1.443 . S
C913 C940 1.389 . S
C914 C913 1.443 . S
C914 C915 1.340 . S
C914 H946 0.951 . S
C915 C914 1.340 . S
C915 C916 1.439 . S
C915 H947 0.950 . S
C916 N912 1.374 . S
C916 C915 1.439 . S
C916 C941 1.395 . S
N917 Co906 1.995 . S
N917 C918 1.376 . S
N917 C921 1.383 . S
C918 N917 1.376 . S
C918 C919 1.446 . S
C918 C941 1.391 . S
C919 C918 1.446 . S
C919 C920 1.339 . S
C919 H948 0.949 . S
C920 C919 1.339 . S
C920 C921 1.439 . S
C920 H949 0.950 . S
C921 N917 1.383 . S
C921 C920 1.439 . S
C921 C939 1.392 . S
N922 Co906 2.282 . S
N922 C925 1.332 . S
N922 C927 1.332 . S
C923 C924 1.386 . S
C923 C926 1.388 . S
C924 C923 1.386 . S
C924 C925 1.382 . S
C924 H950 0.950 . S
C925 N922 1.332 . S
C925 C924 1.382 . S
C925 H936 0.952 . S
C926 C923 1.388 . S
C926 C927 1.382 . S
C926 H951 0.950 . S
C927 N922 1.332 . S
C927 C926 1.382 . S
C927 H937 0.948 . S
N928 Co906 2.282 . S
N928 C932 1.332 . S
N928 C933 1.332 . S
C929 C930 1.388 . S
C929 C933 1.382 . S
C929 H952 0.950 . S
C930 C929 1.388 . S
C930 C931 1.386 . S
C931 C930 1.386 . S
C931 C932 1.382 . S
C931 H953 0.950 . S
C932 N928 1.332 . S
C932 C931 1.382 . S
C932 H934 0.952 . S
C933 N928 1.332 . S
C933 C929 1.382 . S
C933 H935 0.948 . S
H934 C932 0.952 . S
H935 C933 0.948 . S
H936 C925 0.952 . S
H937 C927 0.948 . S
C938 C904 1.395 . S
C938 C908 1.391 . S
C939 C901 1.389 . S
C939 C921 1.392 . S
C940 C911 1.392 . S
C940 C913 1.389 . S
C941 C916 1.395 . S
C941 C918 1.391 . S
H942 C902 0.951 . S
H943 C903 0.950 . S
H944 C909 0.949 . S
H945 C910 0.950 . S
H946 C914 0.951 . S
H947 C915 0.950 . S
H948 C919 0.949 . S
H949 C920 0.950 . S
H950 C924 0.950 . S
H951 C926 0.950 . S
H952 C929 0.950 . S
H953 C931 0.950 . S
C954 C955 1.443 . S
C954 N958 1.376 . S
C954 C992 1.389 . S
C955 C954 1.443 . S
C955 C956 1.340 . S
C955 H995 0.951 . S
C956 C955 1.340 . S
C956 C957 1.439 . S
C956 H996 0.950 . S
C957 C956 1.439 . S
C957 N958 1.374 . S
C957 C991 1.395 . S
N958 C954 1.376 . S
N958 C957 1.374 . S
N958 Co959 2.008 . S
Co959 N958 2.008 . S
Co959 N960 1.995 . S
Co959 N965 2.008 . S
Co959 N970 1.995 . S
Co959 N975 2.282 . S
Co959 N981 2.282 . S
N960 Co959 1.995 . S
N960 C961 1.376 . S
N960 C964 1.383 . S
C961 N960 1.376 . S
C961 C962 1.446 . S
C961 C991 1.391 . S
C962 C961 1.446 . S
C962 C963 1.339 . S
C962 H997 0.949 . S
C963 C962 1.339 . S
C963 C964 1.439 . S
C963 H998 0.950 . S
C964 N960 1.383 . S
C964 C963 1.439 . S
C964 C993 1.392 . S
N965 Co959 2.008 . S
N965 C966 1.376 . S
N965 C969 1.374 . S
C966 N965 1.376 . S
C966 C967 1.443 . S
C966 C993 1.389 . S
C967 C966 1.443 . S
C967 C968 1.340 . S
C967 H999 0.951 . S
C968 C967 1.340 . S
C968 C969 1.439 . S
C968 H1000 0.950 . S
C969 N965 1.374 . S
C969 C968 1.439 . S
C969 C994 1.395 . S
N970 Co959 1.995 . S
N970 C971 1.376 . S
N970 C974 1.383 . S
C971 N970 1.376 . S
C971 C972 1.446 . S
C971 C994 1.391 . S
C972 C971 1.446 . S
C972 C973 1.339 . S
C972 H1001 0.949 . S
C973 C972 1.339 . S
C973 C974 1.439 . S
C973 H1002 0.950 . S
C974 N970 1.383 . S
C974 C973 1.439 . S
C974 C992 1.392 . S
N975 Co959 2.282 . S
N975 C978 1.332 . S
N975 C980 1.332 . S
C976 C977 1.386 . S
C976 C979 1.388 . S
C977 C976 1.386 . S
C977 C978 1.382 . S
C977 H1003 0.950 . S
C978 N975 1.332 . S
C978 C977 1.382 . S
C978 H989 0.952 . S
C979 C976 1.388 . S
C979 C980 1.382 . S
C979 H1004 0.950 . S
C980 N975 1.332 . S
C980 C979 1.382 . S
C980 H990 0.948 . S
N981 Co959 2.282 . S
N981 C985 1.332 . S
N981 C986 1.332 . S
C982 C983 1.388 . S
C982 C986 1.382 . S
C982 H1005 0.950 . S
C983 C982 1.388 . S
C983 C984 1.386 . S
C984 C983 1.386 . S
C984 C985 1.382 . S
C984 H1006 0.950 . S
C985 N981 1.332 . S
C985 C984 1.382 . S
C985 H987 0.952 . S
C986 N981 1.332 . S
C986 C982 1.382 . S
C986 H988 0.948 . S
H987 C985 0.952 . S
H988 C986 0.948 . S
H989 C978 0.952 . S
H990 C980 0.948 . S
C991 C957 1.395 . S
C991 C961 1.391 . S
C992 C954 1.389 . S
C992 C974 1.392 . S
C993 C964 1.392 . S
C993 C966 1.389 . S
C994 C969 1.395 . S
C994 C971 1.391 . S
H995 C955 0.951 . S
H996 C956 0.950 . S
H997 C962 0.949 . S
H998 C963 0.950 . S
H999 C967 0.951 . S
H1000 C968 0.950 . S
H1001 C972 0.949 . S
H1002 C973 0.950 . S
H1003 C977 0.950 . S
H1004 C979 0.950 . S
H1005 C982 0.950 . S
H1006 C984 0.950 . S
C1007 C1008 1.443 . S
C1007 N1011 1.376 . S
C1007 C1045 1.389 . S
C1008 C1007 1.443 . S
C1008 C1009 1.340 . S
C1008 H1048 0.951 . S
C1009 C1008 1.340 . S
C1009 C1010 1.439 . S
C1009 H1049 0.950 . S
C1010 C1009 1.439 . S
C1010 N1011 1.374 . S
C1010 C1044 1.395 . S
N1011 C1007 1.376 . S
N1011 C1010 1.374 . S
N1011 Co1012 2.008 . S
Co1012 N1011 2.008 . S
Co1012 N1013 1.995 . S
Co1012 N1018 2.008 . S
Co1012 N1023 1.995 . S
Co1012 N1028 2.282 . S
Co1012 N1034 2.282 . S
N1013 Co1012 1.995 . S
N1013 C1014 1.376 . S
N1013 C1017 1.383 . S
C1014 N1013 1.376 . S
C1014 C1015 1.446 . S
C1014 C1044 1.391 . S
C1015 C1014 1.446 . S
C1015 C1016 1.339 . S
C1015 H1050 0.949 . S
C1016 C1015 1.339 . S
C1016 C1017 1.439 . S
C1016 H1051 0.950 . S
C1017 N1013 1.383 . S
C1017 C1016 1.439 . S
C1017 C1046 1.392 . S
N1018 Co1012 2.008 . S
N1018 C1019 1.376 . S
N1018 C1022 1.374 . S
C1019 N1018 1.376 . S
C1019 C1020 1.443 . S
C1019 C1046 1.389 . S
C1020 C1019 1.443 . S
C1020 C1021 1.340 . S
C1020 H1052 0.951 . S
C1021 C1020 1.340 . S
C1021 C1022 1.439 . S
C1021 H1053 0.950 . S
C1022 N1018 1.374 . S
C1022 C1021 1.439 . S
C1022 C1047 1.395 . S
N1023 Co1012 1.995 . S
N1023 C1024 1.376 . S
N1023 C1027 1.383 . S
C1024 N1023 1.376 . S
C1024 C1025 1.446 . S
C1024 C1047 1.391 . S
C1025 C1024 1.446 . S
C1025 C1026 1.339 . S
C1025 H1054 0.949 . S
C1026 C1025 1.339 . S
C1026 C1027 1.439 . S
C1026 H1055 0.950 1_556 S
C1027 N1023 1.383 . S
C1027 C1026 1.439 . S
C1027 C1045 1.392 . S
N1028 Co1012 2.282 . S
N1028 C1031 1.332 . S
N1028 C1033 1.332 . S
C1029 C1030 1.386 . S
C1029 C1032 1.388 . S
C1030 C1029 1.386 . S
C1030 C1031 1.382 . S
C1030 H1056 0.950 . S
C1031 N1028 1.332 . S
C1031 C1030 1.382 . S
C1031 H1042 0.952 . S
C1032 C1029 1.388 . S
C1032 C1033 1.382 . S
C1032 H1057 0.950 . S
C1033 N1028 1.332 . S
C1033 C1032 1.382 . S
C1033 H1043 0.948 . S
N1034 Co1012 2.282 . S
N1034 C1038 1.332 . S
N1034 C1039 1.332 . S
C1035 C1036 1.388 . S
C1035 C1039 1.382 . S
C1035 H1058 0.950 . S
C1036 C1035 1.388 . S
C1036 C1037 1.386 . S
C1037 C1036 1.386 . S
C1037 C1038 1.382 . S
C1037 H1059 0.950 . S
C1038 N1034 1.332 . S
C1038 C1037 1.382 . S
C1038 H1040 0.952 . S
C1039 N1034 1.332 . S
C1039 C1035 1.382 . S
C1039 H1041 0.948 . S
H1040 C1038 0.952 . S
H1041 C1039 0.948 . S
H1042 C1031 0.952 . S
H1043 C1033 0.948 . S
C1044 C1010 1.395 . S
C1044 C1014 1.391 . S
C1045 C1007 1.389 . S
C1045 C1027 1.392 . S
C1046 C1017 1.392 . S
C1046 C1019 1.389 . S
C1047 C1022 1.395 . S
C1047 C1024 1.391 . S
H1048 C1008 0.951 . S
H1049 C1009 0.950 . S
H1050 C1015 0.949 . S
H1051 C1016 0.950 . S
H1052 C1020 0.951 . S
H1053 C1021 0.950 . S
H1054 C1025 0.949 . S
H1055 C1026 0.950 1_554 S
H1056 C1030 0.950 . S
H1057 C1032 0.950 . S
H1058 C1035 0.950 . S
H1059 C1037 0.950 . S
C1060 C1061 1.443 . S
C1060 N1064 1.376 . S
C1060 C1098 1.389 . S
C1061 C1060 1.443 . S
C1061 C1062 1.340 . S
C1061 H1101 0.951 . S
C1062 C1061 1.340 . S
C1062 C1063 1.439 . S
C1062 H1102 0.950 . S
C1063 C1062 1.439 . S
C1063 N1064 1.374 . S
C1063 C1097 1.395 . S
N1064 C1060 1.376 . S
N1064 C1063 1.374 . S
N1064 Co1065 2.008 . S
Co1065 N1064 2.008 . S
Co1065 N1066 1.995 . S
Co1065 N1071 2.008 . S
Co1065 N1076 1.995 . S
Co1065 N1081 2.282 . S
Co1065 N1087 2.282 . S
N1066 Co1065 1.995 . S
N1066 C1067 1.376 . S
N1066 C1070 1.383 . S
C1067 N1066 1.376 . S
C1067 C1068 1.446 . S
C1067 C1097 1.391 . S
C1068 C1067 1.446 . S
C1068 C1069 1.339 . S
C1068 H1103 0.949 . S
C1069 C1068 1.339 . S
C1069 C1070 1.439 . S
C1069 H1104 0.950 . S
C1070 N1066 1.383 . S
C1070 C1069 1.439 . S
C1070 C1099 1.392 . S
N1071 Co1065 2.008 . S
N1071 C1072 1.376 . S
N1071 C1075 1.374 . S
C1072 N1071 1.376 . S
C1072 C1073 1.443 . S
C1072 C1099 1.389 . S
C1073 C1072 1.443 . S
C1073 C1074 1.340 . S
C1073 H1105 0.951 . S
C1074 C1073 1.340 . S
C1074 C1075 1.439 . S
C1074 H1106 0.950 . S
C1075 N1071 1.374 . S
C1075 C1074 1.439 . S
C1075 C1100 1.395 . S
N1076 Co1065 1.995 . S
N1076 C1077 1.376 . S
N1076 C1080 1.383 . S
C1077 N1076 1.376 . S
C1077 C1078 1.446 . S
C1077 C1100 1.391 . S
C1078 C1077 1.446 . S
C1078 C1079 1.339 . S
C1078 H1107 0.949 . S
C1079 C1078 1.339 . S
C1079 C1080 1.439 . S
C1079 H1108 0.950 . S
C1080 N1076 1.383 . S
C1080 C1079 1.439 . S
C1080 C1098 1.392 . S
N1081 Co1065 2.282 . S
N1081 C1084 1.332 . S
N1081 C1086 1.332 . S
C1082 C1083 1.386 . S
C1082 C1085 1.388 . S
C1083 C1082 1.386 . S
C1083 C1084 1.382 . S
C1083 H1109 0.950 . S
C1084 N1081 1.332 . S
C1084 C1083 1.382 . S
C1084 H1095 0.952 . S
C1085 C1082 1.388 . S
C1085 C1086 1.382 . S
C1085 H1110 0.950 . S
C1086 N1081 1.332 . S
C1086 C1085 1.382 . S
C1086 H1096 0.948 . S
N1087 Co1065 2.282 . S
N1087 C1091 1.332 . S
N1087 C1092 1.332 . S
C1088 C1089 1.388 . S
C1088 C1092 1.382 . S
C1088 H1111 0.950 . S
C1089 C1088 1.388 . S
C1089 C1090 1.386 . S
C1090 C1089 1.386 . S
C1090 C1091 1.382 . S
C1090 H1112 0.950 . S
C1091 N1087 1.332 . S
C1091 C1090 1.382 . S
C1091 H1093 0.952 . S
C1092 N1087 1.332 . S
C1092 C1088 1.382 . S
C1092 H1094 0.948 . S
H1093 C1091 0.952 . S
H1094 C1092 0.948 . S
H1095 C1084 0.952 . S
H1096 C1086 0.948 . S
C1097 C1063 1.395 . S
C1097 C1067 1.391 . S
C1098 C1060 1.389 . S
C1098 C1080 1.392 . S
C1099 C1070 1.392 . S
C1099 C1072 1.389 . S
C1100 C1075 1.395 . S
C1100 C1077 1.391 . S
H1101 C1061 0.951 . S
H1102 C1062 0.950 . S
H1103 C1068 0.949 . S
H1104 C1069 0.950 . S
H1105 C1073 0.951 . S
H1106 C1074 0.950 . S
H1107 C1078 0.949 . S
H1108 C1079 0.950 . S
H1109 C1083 0.950 . S
H1110 C1085 0.950 . S
H1111 C1088 0.950 . S
H1112 C1090 0.950 . S
C1113 C1114 1.443 . S
C1113 N1117 1.376 . S
C1113 C1151 1.389 . S
C1114 C1113 1.443 . S
C1114 C1115 1.340 . S
C1114 H1154 0.951 . S
C1115 C1114 1.340 . S
C1115 C1116 1.439 . S
C1115 H1155 0.950 . S
C1116 C1115 1.439 . S
C1116 N1117 1.374 . S
C1116 C1150 1.395 . S
N1117 C1113 1.376 . S
N1117 C1116 1.374 . S
N1117 Co1118 2.008 . S
Co1118 N1117 2.008 . S
Co1118 N1119 1.995 . S
Co1118 N1124 2.008 . S
Co1118 N1129 1.995 . S
Co1118 N1134 2.282 . S
Co1118 N1140 2.282 . S
N1119 Co1118 1.995 . S
N1119 C1120 1.376 . S
N1119 C1123 1.383 . S
C1120 N1119 1.376 . S
C1120 C1121 1.446 . S
C1120 C1150 1.391 . S
C1121 C1120 1.446 . S
C1121 C1122 1.339 . S
C1121 H1156 0.949 . S
C1122 C1121 1.339 . S
C1122 C1123 1.439 . S
C1122 H1157 0.950 . S
C1123 N1119 1.383 . S
C1123 C1122 1.439 . S
C1123 C1152 1.392 . S
N1124 Co1118 2.008 . S
N1124 C1125 1.376 . S
N1124 C1128 1.374 . S
C1125 N1124 1.376 . S
C1125 C1126 1.443 . S
C1125 C1152 1.389 . S
C1126 C1125 1.443 . S
C1126 C1127 1.340 . S
C1126 H1158 0.951 . S
C1127 C1126 1.340 . S
C1127 C1128 1.439 . S
C1127 H1159 0.950 . S
C1128 N1124 1.374 . S
C1128 C1127 1.439 . S
C1128 C1153 1.395 . S
N1129 Co1118 1.995 . S
N1129 C1130 1.376 . S
N1129 C1133 1.383 . S
C1130 N1129 1.376 . S
C1130 C1131 1.446 . S
C1130 C1153 1.391 . S
C1131 C1130 1.446 . S
C1131 C1132 1.339 . S
C1131 H1160 0.949 . S
C1132 C1131 1.339 . S
C1132 C1133 1.439 . S
C1132 H1161 0.950 . S
C1133 N1129 1.383 . S
C1133 C1132 1.439 . S
C1133 C1151 1.392 . S
N1134 Co1118 2.282 . S
N1134 C1137 1.332 . S
N1134 C1139 1.332 . S
C1135 C1136 1.386 . S
C1135 C1138 1.388 . S
C1136 C1135 1.386 . S
C1136 C1137 1.382 . S
C1136 H1162 0.950 . S
C1137 N1134 1.332 . S
C1137 C1136 1.382 . S
C1137 H1148 0.952 . S
C1138 C1135 1.388 . S
C1138 C1139 1.382 . S
C1138 H1163 0.950 . S
C1139 N1134 1.332 . S
C1139 C1138 1.382 . S
C1139 H1149 0.948 . S
N1140 Co1118 2.282 . S
N1140 C1144 1.332 . S
N1140 C1145 1.332 . S
C1141 C1142 1.388 . S
C1141 C1145 1.382 . S
C1141 H1164 0.950 . S
C1142 C1141 1.388 . S
C1142 C1143 1.386 . S
C1143 C1142 1.386 . S
C1143 C1144 1.382 . S
C1143 H1165 0.950 . S
C1144 N1140 1.332 . S
C1144 C1143 1.382 . S
C1144 H1146 0.952 . S
C1145 N1140 1.332 . S
C1145 C1141 1.382 . S
C1145 H1147 0.948 . S
H1146 C1144 0.952 . S
H1147 C1145 0.948 . S
H1148 C1137 0.952 . S
H1149 C1139 0.948 . S
C1150 C1116 1.395 . S
C1150 C1120 1.391 . S
C1151 C1113 1.389 . S
C1151 C1133 1.392 . S
C1152 C1123 1.392 . S
C1152 C1125 1.389 . S
C1153 C1128 1.395 . S
C1153 C1130 1.391 . S
H1154 C1114 0.951 . S
H1155 C1115 0.950 . S
H1156 C1121 0.949 . S
H1157 C1122 0.950 . S
H1158 C1126 0.951 . S
H1159 C1127 0.950 . S
H1160 C1131 0.949 . S
H1161 C1132 0.950 . S
H1162 C1136 0.950 . S
H1163 C1138 0.950 . S
H1164 C1141 0.950 . S
H1165 C1143 0.950 . S
C1166 C1167 1.443 . S
C1166 N1170 1.376 . S
C1166 C1204 1.389 . S
C1167 C1166 1.443 . S
C1167 C1168 1.340 . S
C1167 H1207 0.951 . S
C1168 C1167 1.340 . S
C1168 C1169 1.439 . S
C1168 H1208 0.950 . S
C1169 C1168 1.439 . S
C1169 N1170 1.374 . S
C1169 C1203 1.395 . S
N1170 C1166 1.376 . S
N1170 C1169 1.374 . S
N1170 Co1171 2.008 . S
Co1171 N1170 2.008 . S
Co1171 N1172 1.995 . S
Co1171 N1177 2.008 . S
Co1171 N1182 1.995 . S
Co1171 N1187 2.282 . S
Co1171 N1193 2.282 . S
N1172 Co1171 1.995 . S
N1172 C1173 1.376 . S
N1172 C1176 1.383 . S
C1173 N1172 1.376 . S
C1173 C1174 1.446 . S
C1173 C1203 1.391 . S
C1174 C1173 1.446 . S
C1174 C1175 1.339 . S
C1174 H1209 0.949 . S
C1175 C1174 1.339 . S
C1175 C1176 1.439 . S
C1175 H1210 0.950 . S
C1176 N1172 1.383 . S
C1176 C1175 1.439 . S
C1176 C1205 1.392 . S
N1177 Co1171 2.008 . S
N1177 C1178 1.376 . S
N1177 C1181 1.374 . S
C1178 N1177 1.376 . S
C1178 C1179 1.443 . S
C1178 C1205 1.389 . S
C1179 C1178 1.443 . S
C1179 C1180 1.340 . S
C1179 H1211 0.951 . S
C1180 C1179 1.340 . S
C1180 C1181 1.439 . S
C1180 H1212 0.950 . S
C1181 N1177 1.374 . S
C1181 C1180 1.439 . S
C1181 C1206 1.395 . S
N1182 Co1171 1.995 . S
N1182 C1183 1.376 . S
N1182 C1186 1.383 . S
C1183 N1182 1.376 . S
C1183 C1184 1.446 . S
C1183 C1206 1.391 . S
C1184 C1183 1.446 . S
C1184 C1185 1.339 . S
C1184 H1213 0.949 . S
C1185 C1184 1.339 . S
C1185 C1186 1.439 . S
C1185 H1214 0.950 . S
C1186 N1182 1.383 . S
C1186 C1185 1.439 . S
C1186 C1204 1.392 . S
N1187 Co1171 2.282 . S
N1187 C1190 1.332 . S
N1187 C1192 1.332 . S
C1188 C1189 1.386 . S
C1188 C1191 1.388 . S
C1189 C1188 1.386 . S
C1189 C1190 1.382 . S
C1189 H1215 0.950 . S
C1190 N1187 1.332 . S
C1190 C1189 1.382 . S
C1190 H1201 0.952 . S
C1191 C1188 1.388 . S
C1191 C1192 1.382 . S
C1191 H1216 0.950 . S
C1192 N1187 1.332 . S
C1192 C1191 1.382 . S
C1192 H1202 0.948 . S
N1193 Co1171 2.282 . S
N1193 C1197 1.332 . S
N1193 C1198 1.332 . S
C1194 C1195 1.388 . S
C1194 C1198 1.382 . S
C1194 H1217 0.950 . S
C1195 C1194 1.388 . S
C1195 C1196 1.386 . S
C1196 C1195 1.386 . S
C1196 C1197 1.382 . S
C1196 H1218 0.950 . S
C1197 N1193 1.332 . S
C1197 C1196 1.382 . S
C1197 H1199 0.952 . S
C1198 N1193 1.332 . S
C1198 C1194 1.382 . S
C1198 H1200 0.948 . S
H1199 C1197 0.952 . S
H1200 C1198 0.948 . S
H1201 C1190 0.952 . S
H1202 C1192 0.948 . S
C1203 C1169 1.395 . S
C1203 C1173 1.391 . S
C1204 C1166 1.389 . S
C1204 C1186 1.392 . S
C1205 C1176 1.392 . S
C1205 C1178 1.389 . S
C1206 C1181 1.395 . S
C1206 C1183 1.391 . S
H1207 C1167 0.951 . S
H1208 C1168 0.950 . S
H1209 C1174 0.949 . S
H1210 C1175 0.950 . S
H1211 C1179 0.951 . S
H1212 C1180 0.950 . S
H1213 C1184 0.949 . S
H1214 C1185 0.950 . S
H1215 C1189 0.950 . S
H1216 C1191 0.950 . S
H1217 C1194 0.950 . S
H1218 C1196 0.950 . S
C1219 C1220 1.443 . S
C1219 N1223 1.376 . S
C1219 C1257 1.389 . S
C1220 C1219 1.443 . S
C1220 C1221 1.340 . S
C1220 H1260 0.951 . S
C1221 C1220 1.340 . S
C1221 C1222 1.439 . S
C1221 H1261 0.950 . S
C1222 C1221 1.439 . S
C1222 N1223 1.374 . S
C1222 C1256 1.395 . S
N1223 C1219 1.376 . S
N1223 C1222 1.374 . S
N1223 Co1224 2.008 . S
Co1224 N1223 2.008 . S
Co1224 N1225 1.995 . S
Co1224 N1230 2.008 . S
Co1224 N1235 1.995 . S
Co1224 N1240 2.282 . S
Co1224 N1246 2.282 . S
N1225 Co1224 1.995 . S
N1225 C1226 1.376 . S
N1225 C1229 1.383 . S
C1226 N1225 1.376 . S
C1226 C1227 1.446 . S
C1226 C1256 1.391 . S
C1227 C1226 1.446 . S
C1227 C1228 1.339 . S
C1227 H1262 0.949 . S
C1228 C1227 1.339 . S
C1228 C1229 1.439 . S
C1228 H1263 0.950 . S
C1229 N1225 1.383 . S
C1229 C1228 1.439 . S
C1229 C1258 1.392 . S
N1230 Co1224 2.008 . S
N1230 C1231 1.376 . S
N1230 C1234 1.374 . S
C1231 N1230 1.376 . S
C1231 C1232 1.443 . S
C1231 C1258 1.389 . S
C1232 C1231 1.443 . S
C1232 C1233 1.340 . S
C1232 H1264 0.951 . S
C1233 C1232 1.340 . S
C1233 C1234 1.439 . S
C1233 H1265 0.950 . S
C1234 N1230 1.374 . S
C1234 C1233 1.439 . S
C1234 C1259 1.395 . S
N1235 Co1224 1.995 . S
N1235 C1236 1.376 . S
N1235 C1239 1.383 . S
C1236 N1235 1.376 . S
C1236 C1237 1.446 . S
C1236 C1259 1.391 . S
C1237 C1236 1.446 . S
C1237 C1238 1.339 . S
C1237 H1266 0.949 . S
C1238 C1237 1.339 . S
C1238 C1239 1.439 . S
C1238 H1267 0.950 . S
C1239 N1235 1.383 . S
C1239 C1238 1.439 . S
C1239 C1257 1.392 . S
N1240 Co1224 2.282 . S
N1240 C1243 1.332 . S
N1240 C1245 1.332 . S
C1241 C1242 1.386 . S
C1241 C1244 1.388 . S
C1242 C1241 1.386 . S
C1242 C1243 1.382 . S
C1242 H1268 0.950 . S
C1243 N1240 1.332 . S
C1243 C1242 1.382 . S
C1243 H1254 0.952 . S
C1244 C1241 1.388 . S
C1244 C1245 1.382 . S
C1244 H1269 0.950 . S
C1245 N1240 1.332 . S
C1245 C1244 1.382 . S
C1245 H1255 0.948 . S
N1246 Co1224 2.282 . S
N1246 C1250 1.332 . S
N1246 C1251 1.332 . S
C1247 C1248 1.388 . S
C1247 C1251 1.382 . S
C1247 H1270 0.950 . S
C1248 C1247 1.388 . S
C1248 C1249 1.386 . S
C1249 C1248 1.386 . S
C1249 C1250 1.382 . S
C1249 H1271 0.950 . S
C1250 N1246 1.332 . S
C1250 C1249 1.382 . S
C1250 H1252 0.952 . S
C1251 N1246 1.332 . S
C1251 C1247 1.382 . S
C1251 H1253 0.948 . S
H1252 C1250 0.952 . S
H1253 C1251 0.948 . S
H1254 C1243 0.952 . S
H1255 C1245 0.948 . S
C1256 C1222 1.395 . S
C1256 C1226 1.391 . S
C1257 C1219 1.389 . S
C1257 C1239 1.392 . S
C1258 C1229 1.392 . S
C1258 C1231 1.389 . S
C1259 C1234 1.395 . S
C1259 C1236 1.391 . S
H1260 C1220 0.951 . S
H1261 C1221 0.950 . S
H1262 C1227 0.949 . S
H1263 C1228 0.950 . S
H1264 C1232 0.951 . S
H1265 C1233 0.950 . S
H1266 C1237 0.949 . S
H1267 C1238 0.950 . S
H1268 C1242 0.950 . S
H1269 C1244 0.950 . S
H1270 C1247 0.950 . S
H1271 C1249 0.950 . S
H1272 C1278 0.930 . S
H1273 C1281 0.930 . S
H1274 C1282 0.930 . S
H1275 C1283 0.930 . S
H1276 C1286 0.930 . S
H1277 C1287 0.930 . S
C1278 H1272 0.930 . S
C1278 C1279 1.355 . S
C1278 C1280 1.415 . S
C1279 C1278 1.355 . S
C1279 C1281 1.419 . S
C1280 C1278 1.415 . S
C1280 C1285 1.425 . S
C1280 C1287 1.409 . S
C1281 H1273 0.930 . S
C1281 C1279 1.419 . S
C1281 C1282 1.362 . S
C1282 H1274 0.930 . S
C1282 C1281 1.362 . S
C1282 C1285 1.409 . S
C1283 H1275 0.930 . S
C1283 C1284 1.355 . S
C1283 C1285 1.415 . S
C1284 C1283 1.355 . S
C1284 C1286 1.419 . S
C1285 C1280 1.425 . S
C1285 C1282 1.409 . S
C1285 C1283 1.415 . S
C1286 H1276 0.930 . S
C1286 C1284 1.419 . S
C1286 C1287 1.362 . S
C1287 H1277 0.930 . S
C1287 C1280 1.409 . S
C1287 C1286 1.362 . S
H1288 C1294 0.930 . S
H1289 C1297 0.930 . S
H1290 C1298 0.930 . S
H1291 C1299 0.930 . S
H1292 C1302 0.930 . S
H1293 C1303 0.930 . S
C1294 H1288 0.930 . S
C1294 C1295 1.355 . S
C1294 C1296 1.415 . S
C1295 C1294 1.355 . S
C1295 C1297 1.419 . S
C1296 C1294 1.415 . S
C1296 C1301 1.425 . S
C1296 C1303 1.409 . S
C1297 H1289 0.930 . S
C1297 C1295 1.419 . S
C1297 C1298 1.362 . S
C1298 H1290 0.930 . S
C1298 C1297 1.362 . S
C1298 C1301 1.409 . S
C1299 H1291 0.930 . S
C1299 C1300 1.355 . S
C1299 C1301 1.415 . S
C1300 C1299 1.355 . S
C1300 C1302 1.419 . S
C1301 C1296 1.425 . S
C1301 C1298 1.409 . S
C1301 C1299 1.415 . S
C1302 H1292 0.930 . S
C1302 C1300 1.419 . S
C1302 C1303 1.362 . S
C1303 H1293 0.930 . S
C1303 C1296 1.409 . S
C1303 C1302 1.362 . S
H1304 C1310 0.930 . S
H1305 C1313 0.930 . S
H1306 C1314 0.930 . S
H1307 C1315 0.930 . S
H1308 C1318 0.930 . S
H1309 C1319 0.930 . S
C1310 H1304 0.930 . S
C1310 C1311 1.355 . S
C1310 C1312 1.415 . S
C1311 C1310 1.355 . S
C1311 C1313 1.419 . S
C1312 C1310 1.415 . S
C1312 C1317 1.425 . S
C1312 C1319 1.409 . S
C1313 H1305 0.930 . S
C1313 C1311 1.419 . S
C1313 C1314 1.362 . S
C1314 H1306 0.930 . S
C1314 C1313 1.362 . S
C1314 C1317 1.409 . S
C1315 H1307 0.930 . S
C1315 C1316 1.355 . S
C1315 C1317 1.415 . S
C1316 C1315 1.355 . S
C1316 C1318 1.419 . S
C1317 C1312 1.425 . S
C1317 C1314 1.409 . S
C1317 C1315 1.415 . S
C1318 H1308 0.930 . S
C1318 C1316 1.419 . S
C1318 C1319 1.362 . S
C1319 H1309 0.930 . S
C1319 C1312 1.409 . S
C1319 C1318 1.362 . S
H1320 C1326 0.930 . S
H1321 C1329 0.930 . S
H1322 C1330 0.930 . S
H1323 C1331 0.930 . S
H1324 C1334 0.930 . S
H1325 C1335 0.930 . S
C1326 H1320 0.930 . S
C1326 C1327 1.355 . S
C1326 C1328 1.415 . S
C1327 C1326 1.355 . S
C1327 C1329 1.419 . S
C1328 C1326 1.415 . S
C1328 C1333 1.425 . S
C1328 C1335 1.409 . S
C1329 H1321 0.930 . S
C1329 C1327 1.419 . S
C1329 C1330 1.362 . S
C1330 H1322 0.930 . S
C1330 C1329 1.362 . S
C1330 C1333 1.409 . S
C1331 H1323 0.930 . S
C1331 C1332 1.355 . S
C1331 C1333 1.415 . S
C1332 C1331 1.355 . S
C1332 C1334 1.419 . S
C1333 C1328 1.425 . S
C1333 C1330 1.409 . S
C1333 C1331 1.415 . S
C1334 H1324 0.930 . S
C1334 C1332 1.419 . S
C1334 C1335 1.362 . S
C1335 H1325 0.930 . S
C1335 C1328 1.409 . S
C1335 C1334 1.362 . S
H1336 C1342 0.930 . S
H1337 C1345 0.930 . S
H1338 C1346 0.930 . S
H1339 C1347 0.930 . S
H1340 C1350 0.930 . S
H1341 C1351 0.930 . S
C1342 H1336 0.930 . S
C1342 C1343 1.355 . S
C1342 C1344 1.415 . S
C1343 C1342 1.355 . S
C1343 C1345 1.419 . S
C1344 C1342 1.415 . S
C1344 C1349 1.425 . S
C1344 C1351 1.409 . S
C1345 H1337 0.930 . S
C1345 C1343 1.419 . S
C1345 C1346 1.362 . S
C1346 H1338 0.930 . S
C1346 C1345 1.362 . S
C1346 C1349 1.409 . S
C1347 H1339 0.930 . S
C1347 C1348 1.355 . S
C1347 C1349 1.415 . S
C1348 C1347 1.355 . S
C1348 C1350 1.419 . S
C1349 C1344 1.425 . S
C1349 C1346 1.409 . S
C1349 C1347 1.415 . S
C1350 H1340 0.930 . S
C1350 C1348 1.419 . S
C1350 C1351 1.362 . S
C1351 H1341 0.930 . S
C1351 C1344 1.409 . S
C1351 C1350 1.362 . S
H1352 C1358 0.930 . S
H1353 C1361 0.930 . S
H1354 C1362 0.930 . S
H1355 C1363 0.930 . S
H1356 C1366 0.930 . S
H1357 C1367 0.930 . S
C1358 H1352 0.930 . S
C1358 C1359 1.355 . S
C1358 C1360 1.415 . S
C1359 C1358 1.355 . S
C1359 C1361 1.419 . S
C1360 C1358 1.415 . S
C1360 C1365 1.425 . S
C1360 C1367 1.409 . S
C1361 H1353 0.930 . S
C1361 C1359 1.419 . S
C1361 C1362 1.362 . S
C1362 H1354 0.930 . S
C1362 C1361 1.362 . S
C1362 C1365 1.409 . S
C1363 H1355 0.930 . S
C1363 C1364 1.355 . S
C1363 C1365 1.415 . S
C1364 C1363 1.355 . S
C1364 C1366 1.419 . S
C1365 C1360 1.425 . S
C1365 C1362 1.409 . S
C1365 C1363 1.415 . S
C1366 H1356 0.930 . S
C1366 C1364 1.419 . S
C1366 C1367 1.362 . S
C1367 H1357 0.930 . S
C1367 C1360 1.409 . S
C1367 C1366 1.362 . S
H1368 C1374 0.930 . S
H1369 C1377 0.930 . S
H1370 C1378 0.930 . S
H1371 C1379 0.930 . S
H1372 C1382 0.930 . S
H1373 C1383 0.930 . S
C1374 H1368 0.930 . S
C1374 C1375 1.355 . S
C1374 C1376 1.415 . S
C1375 C1374 1.355 . S
C1375 C1377 1.419 . S
C1376 C1374 1.415 . S
C1376 C1381 1.425 . S
C1376 C1383 1.409 . S
C1377 H1369 0.930 . S
C1377 C1375 1.419 . S
C1377 C1378 1.362 . S
C1378 H1370 0.930 . S
C1378 C1377 1.362 . S
C1378 C1381 1.409 . S
C1379 H1371 0.930 . S
C1379 C1380 1.355 . S
C1379 C1381 1.415 . S
C1380 C1379 1.355 . S
C1380 C1382 1.419 . S
C1381 C1376 1.425 . S
C1381 C1378 1.409 . S
C1381 C1379 1.415 . S
C1382 H1372 0.930 . S
C1382 C1380 1.419 . S
C1382 C1383 1.362 . S
C1383 H1373 0.930 . S
C1383 C1376 1.409 . S
C1383 C1382 1.362 . S
H1384 C1390 0.930 . S
H1385 C1393 0.930 . S
H1386 C1394 0.930 . S
H1387 C1395 0.930 . S
H1388 C1398 0.930 . S
H1389 C1399 0.930 . S
C1390 H1384 0.930 . S
C1390 C1391 1.355 . S
C1390 C1392 1.415 . S
C1391 C1390 1.355 . S
C1391 C1393 1.419 . S
C1392 C1390 1.415 . S
C1392 C1397 1.425 . S
C1392 C1399 1.409 . S
C1393 H1385 0.930 . S
C1393 C1391 1.419 . S
C1393 C1394 1.362 . S
C1394 H1386 0.930 . S
C1394 C1393 1.362 . S
C1394 C1397 1.409 . S
C1395 H1387 0.930 . S
C1395 C1396 1.355 . S
C1395 C1397 1.415 . S
C1396 C1395 1.355 . S
C1396 C1398 1.419 . S
C1397 C1392 1.425 . S
C1397 C1394 1.409 . S
C1397 C1395 1.415 . S
C1398 H1388 0.930 . S
C1398 C1396 1.419 . S
C1398 C1399 1.362 . S
C1399 H1389 0.930 . S
C1399 C1392 1.409 . S
C1399 C1398 1.362 . S
H1400 C1406 0.930 . S
H1401 C1409 0.930 . S
H1402 C1410 0.930 . S
H1403 C1411 0.930 . S
H1404 C1414 0.930 . S
H1405 C1415 0.930 . S
C1406 H1400 0.930 . S
C1406 C1407 1.355 . S
C1406 C1408 1.415 . S
C1407 C1406 1.355 . S
C1407 C1409 1.419 . S
C1408 C1406 1.415 . S
C1408 C1413 1.425 . S
C1408 C1415 1.409 . S
C1409 H1401 0.930 . S
C1409 C1407 1.419 . S
C1409 C1410 1.362 . S
C1410 H1402 0.930 . S
C1410 C1409 1.362 . S
C1410 C1413 1.409 . S
C1411 H1403 0.930 . S
C1411 C1412 1.355 . S
C1411 C1413 1.415 . S
C1412 C1411 1.355 . S
C1412 C1414 1.419 . S
C1413 C1408 1.425 . S
C1413 C1410 1.409 . S
C1413 C1411 1.415 . S
C1414 H1404 0.930 . S
C1414 C1412 1.419 . S
C1414 C1415 1.362 . S
C1415 H1405 0.930 . S
C1415 C1408 1.409 . S
C1415 C1414 1.362 . S
H1416 C1422 0.930 . S
H1417 C1425 0.930 . S
H1418 C1426 0.930 . S
H1419 C1427 0.930 . S
H1420 C1430 0.930 . S
H1421 C1431 0.930 . S
C1422 H1416 0.930 . S
C1422 C1423 1.355 . S
C1422 C1424 1.415 . S
C1423 C1422 1.355 . S
C1423 C1425 1.419 . S
C1424 C1422 1.415 . S
C1424 C1429 1.425 . S
C1424 C1431 1.409 . S
C1425 H1417 0.930 . S
C1425 C1423 1.419 . S
C1425 C1426 1.362 . S
C1426 H1418 0.930 . S
C1426 C1425 1.362 . S
C1426 C1429 1.409 . S
C1427 H1419 0.930 . S
C1427 C1428 1.355 . S
C1427 C1429 1.415 . S
C1428 C1427 1.355 . S
C1428 C1430 1.419 . S
C1429 C1424 1.425 . S
C1429 C1426 1.409 . S
C1429 C1427 1.415 . S
C1430 H1420 0.930 . S
C1430 C1428 1.419 . S
C1430 C1431 1.362 . S
C1431 H1421 0.930 . S
C1431 C1424 1.409 . S
C1431 C1430 1.362 . S
H1432 C1438 0.930 . S
H1433 C1441 0.930 . S
H1434 C1442 0.930 . S
H1435 C1443 0.930 . S
H1436 C1446 0.930 . S
H1437 C1447 0.930 . S
C1438 H1432 0.930 . S
C1438 C1439 1.355 . S
C1438 C1440 1.415 . S
C1439 C1438 1.355 . S
C1439 C1441 1.419 . S
C1440 C1438 1.415 . S
C1440 C1445 1.425 . S
C1440 C1447 1.409 . S
C1441 H1433 0.930 . S
C1441 C1439 1.419 . S
C1441 C1442 1.362 . S
C1442 H1434 0.930 . S
C1442 C1441 1.362 . S
C1442 C1445 1.409 . S
C1443 H1435 0.930 . S
C1443 C1444 1.355 . S
C1443 C1445 1.415 . S
C1444 C1443 1.355 . S
C1444 C1446 1.419 . S
C1445 C1440 1.425 . S
C1445 C1442 1.409 . S
C1445 C1443 1.415 . S
C1446 H1436 0.930 . S
C1446 C1444 1.419 . S
C1446 C1447 1.362 . S
C1447 H1437 0.930 . S
C1447 C1440 1.409 . S
C1447 C1446 1.362 . S
H1448 C1454 0.930 . S
H1449 C1457 0.930 . S
H1450 C1458 0.930 . S
H1451 C1459 0.930 . S
H1452 C1462 0.930 . S
H1453 C1463 0.930 . S
C1454 H1448 0.930 . S
C1454 C1455 1.355 . S
C1454 C1456 1.415 . S
C1455 C1454 1.355 . S
C1455 C1457 1.419 . S
C1456 C1454 1.415 . S
C1456 C1461 1.425 . S
C1456 C1463 1.409 . S
C1457 H1449 0.930 . S
C1457 C1455 1.419 . S
C1457 C1458 1.362 . S
C1458 H1450 0.930 . S
C1458 C1457 1.362 . S
C1458 C1461 1.409 . S
C1459 H1451 0.930 . S
C1459 C1460 1.355 . S
C1459 C1461 1.415 . S
C1460 C1459 1.355 . S
C1460 C1462 1.419 . S
C1461 C1456 1.425 . S
C1461 C1458 1.409 . S
C1461 C1459 1.415 . S
C1462 H1452 0.930 . S
C1462 C1460 1.419 . S
C1462 C1463 1.362 . S
C1463 H1453 0.930 . S
C1463 C1456 1.409 . S
C1463 C1462 1.362 . S
H1464 C1470 0.930 . S
H1465 C1473 0.930 . S
H1466 C1474 0.930 . S
H1467 C1475 0.930 . S
H1468 C1478 0.930 . S
H1469 C1479 0.930 . S
C1470 H1464 0.930 . S
C1470 C1471 1.355 . S
C1470 C1472 1.415 . S
C1471 C1470 1.355 . S
C1471 C1473 1.419 . S
C1472 C1470 1.415 . S
C1472 C1477 1.425 . S
C1472 C1479 1.409 1_565 S
C1473 H1465 0.930 . S
C1473 C1471 1.419 . S
C1473 C1474 1.362 . S
C1474 H1466 0.930 . S
C1474 C1473 1.362 . S
C1474 C1477 1.409 . S
C1475 H1467 0.930 . S
C1475 C1476 1.355 1_565 S
C1475 C1477 1.415 . S
C1476 C1475 1.355 1_545 S
C1476 C1478 1.419 . S
C1477 C1472 1.425 . S
C1477 C1474 1.409 . S
C1477 C1475 1.415 . S
C1478 H1468 0.930 . S
C1478 C1476 1.419 . S
C1478 C1479 1.362 . S
C1479 H1469 0.930 . S
C1479 C1472 1.409 1_545 S
C1479 C1478 1.362 . S
H1480 C1486 0.930 . S
H1481 C1489 0.930 . S
H1482 C1490 0.930 1_455 S
H1483 C1491 0.930 . S
H1484 C1494 0.930 . S
H1485 C1495 0.930 . S
C1486 H1480 0.930 . S
C1486 C1487 1.355 . S
C1486 C1488 1.415 . S
C1487 C1486 1.355 . S
C1487 C1489 1.419 . S
C1488 C1486 1.415 . S
C1488 C1493 1.425 . S
C1488 C1495 1.409 . S
C1489 H1481 0.930 . S
C1489 C1487 1.419 . S
C1489 C1490 1.362 . S
C1490 H1482 0.930 1_655 S
C1490 C1489 1.362 . S
C1490 C1493 1.409 . S
C1491 H1483 0.930 . S
C1491 C1492 1.355 . S
C1491 C1493 1.415 1_455 S
C1492 C1491 1.355 . S
C1492 C1494 1.419 1_455 S
C1493 C1488 1.425 . S
C1493 C1490 1.409 . S
C1493 C1491 1.415 1_655 S
C1494 H1484 0.930 . S
C1494 C1492 1.419 1_655 S
C1494 C1495 1.362 . S
C1495 H1485 0.930 . S
C1495 C1488 1.409 . S
C1495 C1494 1.362 . S
H1496 C1502 0.930 . S
H1497 C1505 0.930 . S
H1498 C1506 0.930 . S
H1499 C1507 0.930 . S
H1500 C1510 0.930 . S
H1501 C1511 0.930 1_565 S
C1502 H1496 0.930 . S
C1502 C1503 1.355 . S
C1502 C1504 1.415 . S
C1503 C1502 1.355 . S
C1503 C1505 1.419 . S
C1504 C1502 1.415 . S
C1504 C1509 1.425 . S
C1504 C1511 1.409 . S
C1505 H1497 0.930 . S
C1505 C1503 1.419 . S
C1505 C1506 1.362 . S
C1506 H1498 0.930 . S
C1506 C1505 1.362 . S
C1506 C1509 1.409 . S
C1507 H1499 0.930 . S
C1507 C1508 1.355 . S
C1507 C1509 1.415 . S
C1508 C1507 1.355 . S
C1508 C1510 1.419 1_545 S
C1509 C1504 1.425 . S
C1509 C1506 1.409 . S
C1509 C1507 1.415 . S
C1510 H1500 0.930 . S
C1510 C1508 1.419 1_565 S
C1510 C1511 1.362 1_565 S
C1511 H1501 0.930 1_545 S
C1511 C1504 1.409 . S
C1511 C1510 1.362 1_545 S
H1512 C1518 0.930 . S
H1513 C1521 0.930 . S
H1514 C1522 0.930 . S
H1515 C1523 0.930 . S
H1516 C1526 0.930 . S
H1517 C1527 0.931 . S
C1518 H1512 0.930 . S
C1518 C1519 1.355 . S
C1518 C1520 1.415 . S
C1519 C1518 1.355 . S
C1519 C1521 1.419 . S
C1520 C1518 1.415 . S
C1520 C1525 1.425 . S
C1520 C1527 1.409 1_455 S
C1521 H1513 0.930 . S
C1521 C1519 1.419 . S
C1521 C1522 1.362 . S
C1522 H1514 0.930 . S
C1522 C1521 1.362 . S
C1522 C1525 1.409 . S
C1523 H1515 0.930 . S
C1523 C1524 1.355 . S
C1523 C1525 1.415 1_655 S
C1524 C1523 1.355 . S
C1524 C1526 1.419 . S
C1525 C1520 1.425 . S
C1525 C1522 1.409 . S
C1525 C1523 1.415 1_455 S
C1526 H1516 0.930 . S
C1526 C1524 1.419 . S
C1526 C1527 1.362 . S
C1527 H1517 0.931 . S
C1527 C1520 1.409 1_655 S
C1527 C1526 1.362 . S
H1528 C1534 0.930 . S
H1529 C1537 0.930 . S
H1530 C1538 0.930 . S
H1531 C1539 0.930 . S
H1532 C1542 0.930 . S
H1533 C1543 0.930 1_565 S
C1534 H1528 0.930 . S
C1534 C1535 1.355 1_565 S
C1534 C1536 1.415 1_565 S
C1535 C1534 1.355 1_545 S
C1535 C1537 1.419 . S
C1536 C1534 1.415 1_545 S
C1536 C1541 1.425 . S
C1536 C1543 1.409 . S
C1537 H1529 0.930 . S
C1537 C1535 1.419 . S
C1537 C1538 1.362 . S
C1538 H1530 0.930 . S
C1538 C1537 1.362 . S
C1538 C1541 1.409 . S
C1539 H1531 0.930 . S
C1539 C1540 1.355 . S
C1539 C1541 1.415 . S
C1540 C1539 1.355 . S
C1540 C1542 1.419 . S
C1541 C1536 1.425 . S
C1541 C1538 1.409 . S
C1541 C1539 1.415 . S
C1542 H1532 0.930 . S
C1542 C1540 1.419 . S
C1542 C1543 1.362 . S
C1543 H1533 0.930 1_545 S
C1543 C1536 1.409 . S
C1543 C1542 1.362 . S
H1544 C1550 0.930 . S
H1545 C1553 0.930 . S
H1546 C1554 0.930 . S
H1547 C1555 0.930 . S
H1548 C1558 0.930 . S
H1549 C1559 0.930 . S
C1550 H1544 0.930 . S
C1550 C1551 1.355 1_455 S
C1550 C1552 1.415 . S
C1551 C1550 1.355 1_655 S
C1551 C1553 1.419 . S
C1552 C1550 1.415 . S
C1552 C1557 1.425 . S
C1552 C1559 1.409 . S
C1553 H1545 0.930 . S
C1553 C1551 1.419 . S
C1553 C1554 1.362 . S
C1554 H1546 0.930 . S
C1554 C1553 1.362 . S
C1554 C1557 1.409 1_655 S
C1555 H1547 0.930 . S
C1555 C1556 1.355 . S
C1555 C1557 1.415 . S
C1556 C1555 1.355 . S
C1556 C1558 1.419 . S
C1557 C1552 1.425 . S
C1557 C1554 1.409 1_455 S
C1557 C1555 1.415 . S
C1558 H1548 0.930 . S
C1558 C1556 1.419 . S
C1558 C1559 1.362 . S
C1559 H1549 0.930 . S
C1559 C1552 1.409 . S
C1559 C1558 1.362 . S
H1560 C1566 0.930 . S
H1561 C1569 0.930 . S
H1562 C1570 0.930 . S
H1563 C1571 0.930 . S
H1564 C1574 0.930 . S
H1565 C1575 0.930 . S
C1566 H1560 0.930 . S
C1566 C1567 1.355 . S
C1566 C1568 1.415 . S
C1567 C1566 1.355 . S
C1567 C1569 1.419 . S
C1568 C1566 1.415 . S
C1568 C1573 1.425 . S
C1568 C1575 1.409 1_565 S
C1569 H1561 0.930 . S
C1569 C1567 1.419 . S
C1569 C1570 1.362 . S
C1570 H1562 0.930 . S
C1570 C1569 1.362 . S
C1570 C1573 1.409 . S
C1571 H1563 0.930 . S
C1571 C1572 1.355 1_565 S
C1571 C1573 1.415 . S
C1572 C1571 1.355 1_545 S
C1572 C1574 1.419 . S
C1573 C1568 1.425 . S
C1573 C1570 1.409 . S
C1573 C1571 1.415 . S
C1574 H1564 0.930 . S
C1574 C1572 1.419 . S
C1574 C1575 1.362 . S
C1575 H1565 0.930 . S
C1575 C1568 1.409 1_545 S
C1575 C1574 1.362 . S
H1576 C1582 0.930 . S
H1577 C1585 0.930 . S
H1578 C1586 0.930 . S
H1579 C1587 0.930 . S
H1580 C1590 0.930 . S
H1581 C1591 0.930 . S
C1582 H1576 0.930 . S
C1582 C1583 1.355 1_655 S
C1582 C1584 1.415 . S
C1583 C1582 1.355 1_455 S
C1583 C1585 1.419 . S
C1584 C1582 1.415 . S
C1584 C1589 1.439 . S
C1584 C1591 1.409 . S
C1585 H1577 0.930 . S
C1585 C1583 1.419 . S
C1585 C1586 1.362 . S
C1586 H1578 0.930 . S
C1586 C1585 1.362 . S
C1586 C1589 1.385 1_455 S
C1587 H1579 0.930 . S
C1587 C1588 1.355 . S
C1587 C1589 1.425 . S
C1588 C1587 1.355 . S
C1588 C1590 1.419 . S
C1589 C1584 1.439 . S
C1589 C1586 1.385 1_655 S
C1589 C1587 1.425 . S
C1590 H1580 0.930 . S
C1590 C1588 1.419 . S
C1590 C1591 1.362 . S
C1591 H1581 0.930 . S
C1591 C1584 1.409 . S
C1591 C1590 1.362 . S
H1592 C1598 0.930 . S
H1593 C1601 0.930 . S
H1594 C1602 0.930 . S
H1595 C1603 0.917 1_556 S
H1596 C1606 0.930 . S
H1597 C1607 0.930 . S
C1598 H1592 0.930 . S
C1598 C1599 1.355 . S
C1598 C1600 1.415 . S
C1599 C1598 1.355 . S
C1599 C1601 1.419 . S
C1600 C1598 1.415 . S
C1600 C1605 1.425 . S
C1600 C1607 1.409 1_556 S
C1601 H1593 0.930 . S
C1601 C1599 1.419 . S
C1601 C1602 1.362 . S
C1602 H1594 0.930 . S
C1602 C1601 1.362 . S
C1602 C1605 1.409 . S
C1603 H1595 0.917 1_554 S
C1603 C1604 1.392 . S
C1603 C1605 1.392 1_554 S
C1604 C1603 1.392 . S
C1604 C1606 1.419 . S
C1605 C1600 1.425 . S
C1605 C1602 1.409 . S
C1605 C1603 1.392 1_556 S
C1606 H1596 0.930 . S
C1606 C1604 1.419 . S
C1606 C1607 1.362 . S
C1607 H1597 0.930 . S
C1607 C1600 1.409 1_554 S
C1607 C1606 1.362 . S
H1608 C1614 0.930 . S
H1609 C1617 0.930 . S
H1610 C1618 0.930 . S
H1611 C1619 0.930 . S
H1612 C1622 0.930 . S
H1613 C1623 0.930 . S
C1614 H1608 0.930 . S
C1614 C1615 1.355 . S
C1614 C1616 1.415 . S
C1615 C1614 1.355 . S
C1615 C1617 1.419 . S
C1616 C1614 1.415 . S
C1616 C1621 1.425 . S
C1616 C1623 1.409 1_554 S
C1617 H1609 0.930 . S
C1617 C1615 1.419 . S
C1617 C1618 1.362 . S
C1618 H1610 0.930 . S
C1618 C1617 1.362 . S
C1618 C1621 1.409 . S
C1619 H1611 0.930 . S
C1619 C1620 1.355 1_554 S
C1619 C1621 1.415 . S
C1620 C1619 1.355 1_556 S
C1620 C1622 1.419 . S
C1621 C1616 1.425 . S
C1621 C1618 1.409 . S
C1621 C1619 1.415 . S
C1622 H1612 0.930 . S
C1622 C1620 1.419 . S
C1622 C1623 1.362 . S
C1623 H1613 0.930 . S
C1623 C1616 1.409 1_556 S
C1623 C1622 1.362 . S
H1624 C1630 0.930 . S
H1625 C1633 0.930 . S
H1626 C1634 0.930 . S
H1627 C1635 0.930 . S
H1628 C1638 0.930 . S
H1629 C1639 0.930 . S
C1630 H1624 0.930 . S
C1630 C1631 1.355 . S
C1630 C1632 1.415 . S
C1631 C1630 1.355 . S
C1631 C1633 1.419 . S
C1632 C1630 1.415 . S
C1632 C1637 1.425 . S
C1632 C1639 1.409 1_556 S
C1633 H1625 0.930 . S
C1633 C1631 1.419 . S
C1633 C1634 1.362 . S
C1634 H1626 0.930 . S
C1634 C1633 1.362 . S
C1634 C1637 1.409 . S
C1635 H1627 0.930 . S
C1635 C1636 1.355 1_556 S
C1635 C1637 1.415 . S
C1636 C1635 1.355 1_554 S
C1636 C1638 1.419 . S
C1637 C1632 1.425 . S
C1637 C1634 1.409 . S
C1637 C1635 1.415 . S
C1638 H1628 0.930 . S
C1638 C1636 1.419 . S
C1638 C1639 1.362 . S
C1639 H1629 0.930 . S
C1639 C1632 1.409 1_554 S
C1639 C1638 1.362 . S
H1640 C1646 0.930 . S
H1641 C1649 0.930 . S
H1642 C1650 0.930 . S
H1643 C1651 0.930 . S
H1644 C1654 0.930 . S
H1645 C1655 0.930 . S
C1646 H1640 0.930 . S
C1646 C1647 1.355 . S
C1646 C1648 1.415 . S
C1647 C1646 1.355 . S
C1647 C1649 1.419 . S
C1648 C1646 1.415 . S
C1648 C1653 1.425 . S
C1648 C1655 1.409 1_554 S
C1649 H1641 0.930 . S
C1649 C1647 1.419 . S
C1649 C1650 1.362 . S
C1650 H1642 0.930 . S
C1650 C1649 1.362 . S
C1650 C1653 1.409 . S
C1651 H1643 0.930 . S
C1651 C1652 1.355 1_554 S
C1651 C1653 1.415 . S
C1652 C1651 1.355 1_556 S
C1652 C1654 1.419 . S
C1653 C1648 1.425 . S
C1653 C1650 1.409 . S
C1653 C1651 1.415 . S
C1654 H1644 0.930 . S
C1654 C1652 1.419 . S
C1654 C1655 1.362 . S
C1655 H1645 0.930 . S
C1655 C1648 1.409 1_556 S
C1655 C1654 1.362 . S
H1656 C1662 0.930 . S
H1657 C1665 0.930 . S
H1658 C1666 0.930 . S
H1659 C1667 0.930 . S
H1660 C1670 0.930 . S
H1661 C1671 0.930 . S
C1662 H1656 0.930 . S
C1662 C1663 1.355 . S
C1662 C1664 1.415 . S
C1663 C1662 1.355 . S
C1663 C1665 1.419 . S
C1664 C1662 1.415 . S
C1664 C1669 1.425 . S
C1664 C1671 1.409 . S
C1665 H1657 0.930 . S
C1665 C1663 1.419 . S
C1665 C1666 1.362 . S
C1666 H1658 0.930 . S
C1666 C1665 1.362 . S
C1666 C1669 1.409 . S
C1667 H1659 0.930 . S
C1667 C1668 1.355 . S
C1667 C1669 1.415 . S
C1668 C1667 1.355 . S
C1668 C1670 1.419 . S
C1669 C1664 1.425 . S
C1669 C1666 1.409 . S
C1669 C1667 1.415 . S
C1670 H1660 0.930 . S
C1670 C1668 1.419 . S
C1670 C1671 1.362 . S
C1671 H1661 0.930 . S
C1671 C1664 1.409 . S
C1671 C1670 1.362 . S
H1672 C1678 0.930 . S
H1673 C1681 0.930 . S
H1674 C1682 0.930 . S
H1675 C1683 0.930 . S
H1676 C1686 0.930 . S
H1677 C1687 0.930 . S
C1678 H1672 0.930 . S
C1678 C1679 1.355 . S
C1678 C1680 1.415 . S
C1679 C1678 1.355 . S
C1679 C1681 1.419 . S
C1680 C1678 1.415 . S
C1680 C1685 1.425 . S
C1680 C1687 1.409 . S
C1681 H1673 0.930 . S
C1681 C1679 1.419 . S
C1681 C1682 1.362 . S
C1682 H1674 0.930 . S
C1682 C1681 1.362 . S
C1682 C1685 1.409 . S
C1683 H1675 0.930 . S
C1683 C1684 1.355 . S
C1683 C1685 1.415 . S
C1684 C1683 1.355 . S
C1684 C1686 1.419 . S
C1685 C1680 1.425 . S
C1685 C1682 1.409 . S
C1685 C1683 1.415 . S
C1686 H1676 0.930 . S
C1686 C1684 1.419 . S
C1686 C1687 1.362 . S
C1687 H1677 0.930 . S
C1687 C1680 1.409 . S
C1687 C1686 1.362 . S
H1688 C1694 0.930 . S
H1689 C1697 0.930 . S
H1690 C1698 0.930 . S
H1691 C1699 0.930 . S
H1692 C1702 0.930 . S
H1693 C1703 0.930 . S
C1694 H1688 0.930 . S
C1694 C1695 1.355 . S
C1694 C1696 1.415 . S
C1695 C1694 1.355 . S
C1695 C1697 1.419 . S
C1696 C1694 1.415 . S
C1696 C1701 1.425 . S
C1696 C1703 1.409 . S
C1697 H1689 0.930 . S
C1697 C1695 1.419 . S
C1697 C1698 1.362 . S
C1698 H1690 0.930 . S
C1698 C1697 1.362 . S
C1698 C1701 1.409 . S
C1699 H1691 0.930 . S
C1699 C1700 1.355 . S
C1699 C1701 1.415 . S
C1700 C1699 1.355 . S
C1700 C1702 1.419 . S
C1701 C1696 1.425 . S
C1701 C1698 1.409 . S
C1701 C1699 1.415 . S
C1702 H1692 0.930 . S
C1702 C1700 1.419 . S
C1702 C1703 1.362 . S
C1703 H1693 0.930 . S
C1703 C1696 1.409 . S
C1703 C1702 1.362 . S
H1704 C1710 0.930 . S
H1705 C1713 0.930 . S
H1706 C1714 0.930 . S
H1707 C1715 0.930 . S
H1708 C1718 0.930 . S
H1709 C1719 0.930 . S
C1710 H1704 0.930 . S
C1710 C1711 1.355 . S
C1710 C1712 1.415 . S
C1711 C1710 1.355 . S
C1711 C1713 1.419 . S
C1712 C1710 1.415 . S
C1712 C1717 1.425 . S
C1712 C1719 1.409 . S
C1713 H1705 0.930 . S
C1713 C1711 1.419 . S
C1713 C1714 1.362 . S
C1714 H1706 0.930 . S
C1714 C1713 1.362 . S
C1714 C1717 1.409 . S
C1715 H1707 0.930 . S
C1715 C1716 1.355 . S
C1715 C1717 1.415 . S
C1716 C1715 1.355 . S
C1716 C1718 1.419 . S
C1717 C1712 1.425 . S
C1717 C1714 1.409 . S
C1717 C1715 1.415 . S
C1718 H1708 0.930 . S
C1718 C1716 1.419 . S
C1718 C1719 1.362 . S
C1719 H1709 0.930 . S
C1719 C1712 1.409 . S
C1719 C1718 1.362 . S
H1720 C1726 0.930 . S
H1721 C1729 0.930 . S
H1722 C1730 0.930 . S
H1723 C1731 0.930 . S
H1724 C1734 0.930 . S
H1725 C1735 0.930 . S
C1726 H1720 0.930 . S
C1726 C1727 1.355 . S
C1726 C1728 1.415 . S
C1727 C1726 1.355 . S
C1727 C1729 1.419 . S
C1728 C1726 1.415 . S
C1728 C1733 1.425 . S
C1728 C1735 1.409 . S
C1729 H1721 0.930 . S
C1729 C1727 1.419 . S
C1729 C1730 1.362 . S
C1730 H1722 0.930 . S
C1730 C1729 1.362 . S
C1730 C1733 1.409 . S
C1731 H1723 0.930 . S
C1731 C1732 1.355 . S
C1731 C1733 1.415 . S
C1732 C1731 1.355 . S
C1732 C1734 1.419 . S
C1733 C1728 1.425 . S
C1733 C1730 1.409 . S
C1733 C1731 1.415 . S
C1734 H1724 0.930 . S
C1734 C1732 1.419 . S
C1734 C1735 1.362 . S
C1735 H1725 0.930 . S
C1735 C1728 1.409 . S
C1735 C1734 1.362 . S
H1736 C1742 0.930 . S
H1737 C1745 0.930 . S
H1738 C1746 0.930 . S
H1739 C1747 0.930 . S
H1740 C1750 0.930 . S
H1741 C1751 0.930 . S
C1742 H1736 0.930 . S
C1742 C1743 1.355 . S
C1742 C1744 1.415 . S
C1743 C1742 1.355 . S
C1743 C1745 1.419 . S
C1744 C1742 1.415 . S
C1744 C1749 1.425 . S
C1744 C1751 1.409 . S
C1745 H1737 0.930 . S
C1745 C1743 1.419 . S
C1745 C1746 1.362 . S
C1746 H1738 0.930 . S
C1746 C1745 1.362 . S
C1746 C1749 1.409 . S
C1747 H1739 0.930 . S
C1747 C1748 1.355 . S
C1747 C1749 1.415 . S
C1748 C1747 1.355 . S
C1748 C1750 1.419 . S
C1749 C1744 1.425 . S
C1749 C1746 1.409 . S
C1749 C1747 1.415 . S
C1750 H1740 0.930 . S
C1750 C1748 1.419 . S
C1750 C1751 1.362 . S
C1751 H1741 0.930 . S
C1751 C1744 1.409 . S
C1751 C1750 1.362 . S
H1752 C1758 0.930 . S
H1753 C1761 0.930 . S
H1754 C1762 0.930 . S
H1755 C1763 0.930 . S
H1756 C1766 0.930 . S
H1757 C1767 0.930 . S
C1758 H1752 0.930 . S
C1758 C1759 1.355 . S
C1758 C1760 1.415 . S
C1759 C1758 1.355 . S
C1759 C1761 1.419 . S
C1760 C1758 1.415 . S
C1760 C1765 1.425 . S
C1760 C1767 1.409 . S
C1761 H1753 0.930 . S
C1761 C1759 1.419 . S
C1761 C1762 1.362 . S
C1762 H1754 0.930 . S
C1762 C1761 1.362 . S
C1762 C1765 1.409 . S
C1763 H1755 0.930 . S
C1763 C1764 1.355 . S
C1763 C1765 1.415 . S
C1764 C1763 1.355 . S
C1764 C1766 1.419 . S
C1765 C1760 1.425 . S
C1765 C1762 1.409 . S
C1765 C1763 1.415 . S
C1766 H1756 0.930 . S
C1766 C1764 1.419 . S
C1766 C1767 1.362 . S
C1767 H1757 0.930 . S
C1767 C1760 1.409 . S
C1767 C1766 1.362 . S
H1768 C1774 0.930 . S
H1769 C1777 0.930 . S
H1770 C1778 0.930 . S
H1771 C1779 0.930 . S
H1772 C1782 0.930 . S
H1773 C1783 0.930 . S
C1774 H1768 0.930 . S
C1774 C1775 1.355 . S
C1774 C1776 1.415 . S
C1775 C1774 1.355 . S
C1775 C1777 1.419 . S
C1776 C1774 1.415 . S
C1776 C1781 1.425 . S
C1776 C1783 1.409 . S
C1777 H1769 0.930 . S
C1777 C1775 1.419 . S
C1777 C1778 1.362 . S
C1778 H1770 0.930 . S
C1778 C1777 1.362 . S
C1778 C1781 1.409 . S
C1779 H1771 0.930 . S
C1779 C1780 1.355 . S
C1779 C1781 1.415 . S
C1780 C1779 1.355 . S
C1780 C1782 1.419 . S
C1781 C1776 1.425 . S
C1781 C1778 1.409 . S
C1781 C1779 1.415 . S
C1782 H1772 0.930 . S
C1782 C1780 1.419 . S
C1782 C1783 1.362 . S
C1783 H1773 0.930 . S
C1783 C1776 1.409 . S
C1783 C1782 1.362 . S
H1784 C1790 0.930 . S
H1785 C1793 0.930 . S
H1786 C1794 0.930 . S
H1787 C1795 0.930 . S
H1788 C1798 0.930 . S
H1789 C1799 0.930 . S
C1790 H1784 0.930 . S
C1790 C1791 1.355 . S
C1790 C1792 1.415 . S
C1791 C1790 1.355 . S
C1791 C1793 1.419 . S
C1792 C1790 1.415 . S
C1792 C1797 1.425 . S
C1792 C1799 1.409 . S
C1793 H1785 0.930 . S
C1793 C1791 1.419 . S
C1793 C1794 1.362 . S
C1794 H1786 0.930 . S
C1794 C1793 1.362 . S
C1794 C1797 1.409 . S
C1795 H1787 0.930 . S
C1795 C1796 1.355 . S
C1795 C1797 1.415 . S
C1796 C1795 1.355 . S
C1796 C1798 1.419 . S
C1797 C1792 1.425 . S
C1797 C1794 1.409 . S
C1797 C1795 1.415 . S
C1798 H1788 0.930 . S
C1798 C1796 1.419 . S
C1798 C1799 1.362 . S
C1799 H1789 0.930 . S
C1799 C1792 1.409 . S
C1799 C1798 1.362 . S
H1800 C1806 0.930 . S
H1801 C1809 0.930 . S
H1802 C1810 0.930 . S
H1803 C1811 0.930 . S
H1804 C1814 0.930 . S
H1805 C1815 0.930 . S
C1806 H1800 0.930 . S
C1806 C1807 1.355 . S
C1806 C1808 1.415 . S
C1807 C1806 1.355 . S
C1807 C1809 1.419 . S
C1808 C1806 1.415 . S
C1808 C1813 1.425 . S
C1808 C1815 1.409 . S
C1809 H1801 0.930 . S
C1809 C1807 1.419 . S
C1809 C1810 1.362 . S
C1810 H1802 0.930 . S
C1810 C1809 1.362 . S
C1810 C1813 1.409 . S
C1811 H1803 0.930 . S
C1811 C1812 1.355 . S
C1811 C1813 1.415 . S
C1812 C1811 1.355 . S
C1812 C1814 1.419 . S
C1813 C1808 1.425 . S
C1813 C1810 1.409 . S
C1813 C1811 1.415 . S
C1814 H1804 0.930 . S
C1814 C1812 1.419 . S
C1814 C1815 1.362 . S
C1815 H1805 0.930 . S
C1815 C1808 1.409 . S
C1815 C1814 1.362 . S
H1816 C1822 0.930 . S
H1817 C1825 0.930 . S
H1818 C1826 0.930 . S
H1819 C1827 0.930 . S
H1820 C1830 0.930 . S
H1821 C1831 0.930 . S
C1822 H1816 0.930 . S
C1822 C1823 1.355 . S
C1822 C1824 1.415 . S
C1823 C1822 1.355 . S
C1823 C1825 1.419 . S
C1824 C1822 1.415 . S
C1824 C1829 1.425 . S
C1824 C1831 1.409 . S
C1825 H1817 0.930 . S
C1825 C1823 1.419 . S
C1825 C1826 1.362 . S
C1826 H1818 0.930 . S
C1826 C1825 1.362 . S
C1826 C1829 1.409 . S
C1827 H1819 0.930 . S
C1827 C1828 1.355 . S
C1827 C1829 1.415 . S
C1828 C1827 1.355 . S
C1828 C1830 1.419 . S
C1829 C1824 1.425 . S
C1829 C1826 1.409 . S
C1829 C1827 1.415 . S
C1830 H1820 0.930 . S
C1830 C1828 1.419 . S
C1830 C1831 1.362 . S
C1831 H1821 0.930 . S
C1831 C1824 1.409 . S
C1831 C1830 1.362 . S
H1832 C1838 0.930 . S
H1833 C1841 0.930 . S
H1834 C1842 0.930 . S
H1835 C1843 0.930 . S
H1836 C1846 0.930 . S
H1837 C1847 0.930 . S
C1838 H1832 0.930 . S
C1838 C1839 1.355 . S
C1838 C1840 1.415 . S
C1839 C1838 1.355 . S
C1839 C1841 1.419 . S
C1840 C1838 1.415 . S
C1840 C1845 1.425 . S
C1840 C1847 1.409 . S
C1841 H1833 0.930 . S
C1841 C1839 1.419 . S
C1841 C1842 1.362 . S
C1842 H1834 0.930 . S
C1842 C1841 1.362 . S
C1842 C1845 1.409 . S
C1843 H1835 0.930 . S
C1843 C1844 1.355 . S
C1843 C1845 1.415 . S
C1844 C1843 1.355 . S
C1844 C1846 1.419 . S
C1845 C1840 1.425 . S
C1845 C1842 1.409 . S
C1845 C1843 1.415 . S
C1846 H1836 0.930 . S
C1846 C1844 1.419 . S
C1846 C1847 1.362 . S
C1847 H1837 0.930 . S
C1847 C1840 1.409 . S
C1847 C1846 1.362 . S
H1848 C1854 0.930 . S
H1849 C1857 0.930 . S
H1850 C1858 0.930 . S
H1851 C1859 0.930 . S
H1852 C1862 0.930 . S
H1853 C1863 0.930 . S
C1854 H1848 0.930 . S
C1854 C1855 1.355 . S
C1854 C1856 1.415 . S
C1855 C1854 1.355 . S
C1855 C1857 1.419 . S
C1856 C1854 1.415 . S
C1856 C1861 1.425 . S
C1856 C1863 1.409 . S
C1857 H1849 0.930 . S
C1857 C1855 1.419 . S
C1857 C1858 1.362 . S
C1858 H1850 0.930 . S
C1858 C1857 1.362 . S
C1858 C1861 1.409 . S
C1859 H1851 0.930 . S
C1859 C1860 1.355 . S
C1859 C1861 1.415 . S
C1860 C1859 1.355 . S
C1860 C1862 1.419 . S
C1861 C1856 1.425 . S
C1861 C1858 1.409 . S
C1861 C1859 1.415 . S
C1862 H1852 0.930 . S
C1862 C1860 1.419 . S
C1862 C1863 1.362 . S
C1863 H1853 0.930 . S
C1863 C1856 1.409 . S
C1863 C1862 1.362 . S
H1864 C1870 0.930 . S
H1865 C1873 0.930 . S
H1866 C1874 0.930 . S
H1867 C1875 0.930 . S
H1868 C1878 0.930 . S
H1869 C1879 0.930 . S
C1870 H1864 0.930 . S
C1870 C1871 1.355 . S
C1870 C1872 1.415 . S
C1871 C1870 1.355 . S
C1871 C1873 1.419 . S
C1872 C1870 1.415 . S
C1872 C1877 1.425 . S
C1872 C1879 1.409 . S
C1873 H1865 0.930 . S
C1873 C1871 1.419 . S
C1873 C1874 1.362 . S
C1874 H1866 0.930 . S
C1874 C1873 1.362 . S
C1874 C1877 1.409 . S
C1875 H1867 0.930 . S
C1875 C1876 1.355 . S
C1875 C1877 1.415 . S
C1876 C1875 1.355 . S
C1876 C1878 1.419 . S
C1877 C1872 1.425 . S
C1877 C1874 1.409 . S
C1877 C1875 1.415 . S
C1878 H1868 0.930 . S
C1878 C1876 1.419 . S
C1878 C1879 1.362 . S
C1879 H1869 0.930 . S
C1879 C1872 1.409 . S
C1879 C1878 1.362 . S
H1880 C1886 0.930 . S
H1881 C1889 0.930 . S
H1882 C1890 0.930 . S
H1883 C1891 0.930 . S
H1884 C1894 0.930 . S
H1885 C1895 0.930 . S
C1886 H1880 0.930 . S
C1886 C1887 1.355 . S
C1886 C1888 1.415 . S
C1887 C1886 1.355 . S
C1887 C1889 1.419 . S
C1888 C1886 1.415 . S
C1888 C1893 1.425 . S
C1888 C1895 1.409 . S
C1889 H1881 0.930 . S
C1889 C1887 1.419 . S
C1889 C1890 1.362 . S
C1890 H1882 0.930 . S
C1890 C1889 1.362 . S
C1890 C1893 1.409 . S
C1891 H1883 0.930 . S
C1891 C1892 1.355 . S
C1891 C1893 1.415 . S
C1892 C1891 1.355 . S
C1892 C1894 1.419 . S
C1893 C1888 1.425 . S
C1893 C1890 1.409 . S
C1893 C1891 1.415 . S
C1894 H1884 0.930 . S
C1894 C1892 1.419 . S
C1894 C1895 1.362 . S
C1895 H1885 0.930 . S
C1895 C1888 1.409 . S
C1895 C1894 1.362 . S
H1896 C1902 0.930 . S
H1897 C1905 0.930 . S
H1898 C1906 0.930 . S
H1899 C1907 0.930 . S
H1900 C1910 0.930 . S
H1901 C1911 0.930 . S
C1902 H1896 0.930 . S
C1902 C1903 1.355 . S
C1902 C1904 1.415 . S
C1903 C1902 1.355 . S
C1903 C1905 1.419 . S
C1904 C1902 1.415 . S
C1904 C1909 1.425 . S
C1904 C1911 1.409 . S
C1905 H1897 0.930 . S
C1905 C1903 1.419 . S
C1905 C1906 1.362 . S
C1906 H1898 0.930 . S
C1906 C1905 1.362 . S
C1906 C1909 1.409 . S
C1907 H1899 0.930 . S
C1907 C1908 1.355 . S
C1907 C1909 1.415 . S
C1908 C1907 1.355 . S
C1908 C1910 1.419 . S
C1909 C1904 1.425 . S
C1909 C1906 1.409 . S
C1909 C1907 1.415 . S
C1910 H1900 0.930 . S
C1910 C1908 1.419 . S
C1910 C1911 1.362 . S
C1911 H1901 0.930 . S
C1911 C1904 1.409 . S
C1911 C1910 1.362 . S
H1912 C1918 0.930 . S
H1913 C1921 0.930 . S
H1914 C1922 0.930 . S
H1915 C1923 0.930 . S
H1916 C1926 0.930 . S
H1917 C1927 0.930 . S
C1918 H1912 0.930 . S
C1918 C1919 1.355 . S
C1918 C1920 1.415 . S
C1919 C1918 1.355 . S
C1919 C1921 1.419 . S
C1920 C1918 1.415 . S
C1920 C1925 1.425 . S
C1920 C1927 1.409 . S
C1921 H1913 0.930 . S
C1921 C1919 1.419 . S
C1921 C1922 1.362 . S
C1922 H1914 0.930 . S
C1922 C1921 1.362 . S
C1922 C1925 1.409 . S
C1923 H1915 0.930 . S
C1923 C1924 1.355 . S
C1923 C1925 1.415 . S
C1924 C1923 1.355 . S
C1924 C1926 1.419 . S
C1925 C1920 1.425 . S
C1925 C1922 1.409 . S
C1925 C1923 1.415 . S
C1926 H1916 0.930 . S
C1926 C1924 1.419 . S
C1926 C1927 1.362 . S
C1927 H1917 0.930 . S
C1927 C1920 1.409 . S
C1927 C1926 1.362 . S
H1928 C1934 0.930 . S
H1929 C1937 0.930 . S
H1930 C1938 0.930 . S
H1931 C1939 0.930 . S
H1932 C1942 0.930 . S
H1933 C1943 0.930 . S
C1934 H1928 0.930 . S
C1934 C1935 1.355 . S
C1934 C1936 1.415 . S
C1935 C1934 1.355 . S
C1935 C1937 1.419 . S
C1936 C1934 1.415 . S
C1936 C1941 1.425 . S
C1936 C1943 1.409 . S
C1937 H1929 0.930 . S
C1937 C1935 1.419 . S
C1937 C1938 1.362 . S
C1938 H1930 0.930 . S
C1938 C1937 1.362 . S
C1938 C1941 1.409 . S
C1939 H1931 0.930 . S
C1939 C1940 1.355 . S
C1939 C1941 1.415 . S
C1940 C1939 1.355 . S
C1940 C1942 1.419 . S
C1941 C1936 1.425 . S
C1941 C1938 1.409 . S
C1941 C1939 1.415 . S
C1942 H1932 0.930 . S
C1942 C1940 1.419 . S
C1942 C1943 1.362 . S
C1943 H1933 0.930 . S
C1943 C1936 1.409 . S
C1943 C1942 1.362 . S
H1944 C1950 0.930 . S
H1945 C1953 0.930 . S
H1946 C1954 0.930 . S
H1947 C1955 0.930 . S
H1948 C1958 0.930 . S
H1949 C1959 0.930 . S
C1950 H1944 0.930 . S
C1950 C1951 1.355 . S
C1950 C1952 1.415 . S
C1951 C1950 1.355 . S
C1951 C1953 1.419 . S
C1952 C1950 1.415 . S
C1952 C1957 1.425 . S
C1952 C1959 1.409 . S
C1953 H1945 0.930 . S
C1953 C1951 1.419 . S
C1953 C1954 1.362 . S
C1954 H1946 0.930 . S
C1954 C1953 1.362 . S
C1954 C1957 1.409 . S
C1955 H1947 0.930 . S
C1955 C1956 1.355 . S
C1955 C1957 1.415 . S
C1956 C1955 1.355 . S
C1956 C1958 1.419 . S
C1957 C1952 1.425 . S
C1957 C1954 1.409 . S
C1957 C1955 1.415 . S
C1958 H1948 0.930 . S
C1958 C1956 1.419 . S
C1958 C1959 1.362 . S
C1959 H1949 0.930 . S
C1959 C1952 1.409 . S
C1959 C1958 1.362 . S
H1960 C1966 0.930 . S
H1961 C1969 0.930 . S
H1962 C1970 0.930 . S
H1963 C1971 0.930 . S
H1964 C1974 0.930 . S
H1965 C1975 0.930 . S
C1966 H1960 0.930 . S
C1966 C1967 1.355 . S
C1966 C1968 1.415 . S
C1967 C1966 1.355 . S
C1967 C1969 1.419 . S
C1968 C1966 1.415 . S
C1968 C1973 1.425 . S
C1968 C1975 1.409 . S
C1969 H1961 0.930 . S
C1969 C1967 1.419 . S
C1969 C1970 1.362 . S
C1970 H1962 0.930 . S
C1970 C1969 1.362 . S
C1970 C1973 1.409 . S
C1971 H1963 0.930 . S
C1971 C1972 1.355 . S
C1971 C1973 1.415 . S
C1972 C1971 1.355 . S
C1972 C1974 1.419 . S
C1973 C1968 1.425 . S
C1973 C1970 1.409 . S
C1973 C1971 1.415 . S
C1974 H1964 0.930 . S
C1974 C1972 1.419 . S
C1974 C1975 1.362 . S
C1975 H1965 0.930 . S
C1975 C1968 1.409 . S
C1975 C1974 1.362 . S
H1976 C1982 0.930 . S
H1977 C1985 0.930 . S
H1978 C1986 0.930 . S
H1979 C1987 0.930 . S
H1980 C1990 0.930 . S
H1981 C1991 0.930 . S
C1982 H1976 0.930 . S
C1982 C1983 1.355 . S
C1982 C1984 1.415 . S
C1983 C1982 1.355 . S
C1983 C1985 1.419 . S
C1984 C1982 1.415 . S
C1984 C1989 1.425 . S
C1984 C1991 1.409 . S
C1985 H1977 0.930 . S
C1985 C1983 1.419 . S
C1985 C1986 1.362 . S
C1986 H1978 0.930 . S
C1986 C1985 1.362 . S
C1986 C1989 1.409 . S
C1987 H1979 0.930 . S
C1987 C1988 1.355 . S
C1987 C1989 1.415 . S
C1988 C1987 1.355 . S
C1988 C1990 1.419 . S
C1989 C1984 1.425 . S
C1989 C1986 1.409 . S
C1989 C1987 1.415 . S
C1990 H1980 0.930 . S
C1990 C1988 1.419 . S
C1990 C1991 1.362 . S
C1991 H1981 0.930 . S
C1991 C1984 1.409 . S
C1991 C1990 1.362 . S
H1992 C1998 0.930 . S
H1993 C2001 0.930 . S
H1994 C2002 0.930 . S
H1995 C2003 0.930 . S
H1996 C2006 0.930 . S
H1997 C2007 0.930 . S
C1998 H1992 0.930 . S
C1998 C1999 1.355 . S
C1998 C2000 1.415 . S
C1999 C1998 1.355 . S
C1999 C2001 1.419 . S
C2000 C1998 1.415 . S
C2000 C2005 1.425 . S
C2000 C2007 1.409 . S
C2001 H1993 0.930 . S
C2001 C1999 1.419 . S
C2001 C2002 1.362 . S
C2002 H1994 0.930 . S
C2002 C2001 1.362 . S
C2002 C2005 1.409 . S
C2003 H1995 0.930 . S
C2003 C2004 1.355 . S
C2003 C2005 1.415 . S
C2004 C2003 1.355 . S
C2004 C2006 1.419 . S
C2005 C2000 1.425 . S
C2005 C2002 1.409 . S
C2005 C2003 1.415 . S
C2006 H1996 0.930 . S
C2006 C2004 1.419 . S
C2006 C2007 1.362 . S
C2007 H1997 0.930 . S
C2007 C2000 1.409 . S
C2007 C2006 1.362 . S
H2008 C2014 0.930 . S
H2009 C2017 0.930 . S
H2010 C2018 0.930 . S
H2011 C2019 0.930 . S
H2012 C2022 0.930 . S
H2013 C2023 0.930 . S
C2014 H2008 0.930 . S
C2014 C2015 1.355 . S
C2014 C2016 1.415 . S
C2015 C2014 1.355 . S
C2015 C2017 1.419 . S
C2016 C2014 1.415 . S
C2016 C2021 1.425 . S
C2016 C2023 1.409 . S
C2017 H2009 0.930 . S
C2017 C2015 1.419 . S
C2017 C2018 1.362 . S
C2018 H2010 0.930 . S
C2018 C2017 1.362 . S
C2018 C2021 1.409 . S
C2019 H2011 0.930 . S
C2019 C2020 1.355 . S
C2019 C2021 1.415 . S
C2020 C2019 1.355 . S
C2020 C2022 1.419 . S
C2021 C2016 1.425 . S
C2021 C2018 1.409 . S
C2021 C2019 1.415 . S
C2022 H2012 0.930 . S
C2022 C2020 1.419 . S
C2022 C2023 1.362 . S
C2023 H2013 0.930 . S
C2023 C2016 1.409 . S
C2023 C2022 1.362 . S
H2024 C2030 0.930 . S
H2025 C2033 0.930 . S
H2026 C2034 0.930 . S
H2027 C2035 0.930 . S
H2028 C2038 0.930 . S
H2029 C2039 0.930 . S
C2030 H2024 0.930 . S
C2030 C2031 1.355 . S
C2030 C2032 1.415 . S
C2031 C2030 1.355 . S
C2031 C2033 1.419 . S
C2032 C2030 1.415 . S
C2032 C2037 1.425 . S
C2032 C2039 1.409 . S
C2033 H2025 0.930 . S
C2033 C2031 1.419 . S
C2033 C2034 1.362 . S
C2034 H2026 0.930 . S
C2034 C2033 1.362 . S
C2034 C2037 1.409 . S
C2035 H2027 0.930 . S
C2035 C2036 1.355 . S
C2035 C2037 1.415 . S
C2036 C2035 1.355 . S
C2036 C2038 1.419 . S
C2037 C2032 1.425 . S
C2037 C2034 1.409 . S
C2037 C2035 1.415 . S
C2038 H2028 0.930 . S
C2038 C2036 1.419 . S
C2038 C2039 1.362 . S
C2039 H2029 0.930 . S
C2039 C2032 1.409 . S
C2039 C2038 1.362 . S
C1279 C1204 2.446 . S
C1284 C38 2.365 . S
C1295 C75 2.310 . S
C1300 C870 2.193 . S
C1311 C1257 2.237 . S
C1316 C144 2.152 . S
C1327 C1135 2.180 . S
C1332 C181 2.265 . S
C1343 C992 2.246 . S
C1348 C250 2.147 . S
C1359 C1029 2.215 . S
C1364 C287 2.317 . S
C1375 C1098 2.446 . S
C1380 C356 2.365 . S
C1391 C393 2.256 . S
C1396 C923 2.197 . S
C1407 C727 2.200 . S
C1412 C446 2.135 . S
C1423 C764 2.166 . S
C1428 C515 2.206 . S
C1439 C568 2.202 . S
C1444 C833 2.223 . S
C1455 C621 2.251 . S
C1460 C674 2.186 . S
C1471 C409 2.262 . S
C1476 C780 2.358 . S
C1487 C817 2.317 . S
C1492 C234 2.384 . S
C1503 C303 2.092 . S
C1508 C658 2.145 1_545 S
C1519 C711 2.223 . S
C1524 C340 2.342 . S
C1535 C552 2.167 1_545 S
C1540 C91 2.117 . S
C1551 C128 2.366 . S
C1556 C605 2.261 . S
C1567 C197 2.244 . S
C1572 C462 2.365 . S
C1583 C22 2.329 . S
C1588 C499 2.221 . S
C1599 C1082 2.163 . S
C1604 C1151 2.244 . S
C1615 C1188 2.174 . S
C1620 C939 2.239 . S
C1631 C976 2.113 . S
C1636 C886 2.179 . S
C1647 C1241 2.103 . S
C1652 C1045 2.180 . S
C1663 C39 1.981 . S
C1668 C463 2.012 . S
C1679 C506 1.344 . S
C1684 C82 1.385 . S
C1695 C145 1.580 . S
C1700 C559 1.581 . S
C1711 C188 1.569 . S
C1716 C612 1.467 . S
C1727 C251 1.571 . S
C1732 C665 1.660 . S
C1743 C294 1.448 . S
C1748 C718 1.439 . S
C1759 C781 2.004 . S
C1764 C357 1.917 . S
C1775 C824 1.490 . S
C1780 C400 1.521 . S
C1791 C453 1.728 . S
C1796 C887 1.680 . S
C1807 C516 1.740 . S
C1812 C1248 1.766 . S
C1823 C1152 2.028 . S
C1828 C569 2.074 . S
C1839 C1195 1.703 . S
C1844 C622 1.754 . S
C1855 C940 1.982 . S
C1860 C675 2.049 . S
C1871 C983 1.760 . S
C1876 C728 1.699 . S
C1887 C771 1.707 . S
C1892 C1046 1.752 . S
C1903 C834 1.753 . S
C1908 C1089 1.702 . S
C1919 C29 1.559 . S
C1924 C877 1.549 . S
C1935 C930 1.507 . S
C1940 C241 1.473 . S
C1951 C993 2.057 . S
C1956 C304 2.003 . S
C1967 C1036 1.533 . S
C1972 C347 1.517 . S
C1983 C1099 2.050 . S
C1988 C410 2.028 . S
C1999 C1142 1.558 . S
C2004 C135 1.487 . S
C2015 C198 2.038 . S
C2020 C1205 2.069 . S
C2031 C1258 2.019 . S
C2036 C92 1.969 . S
