# Generated by pormake.
# Topology vby, (6)-cn, num edge types: 1
# Building blocks:
#     Node 0, Type 0, BuildingBlock: BETDIP_clean_sbu_0, # of connection points: 6
#     Node 1, Type 0, BuildingBlock: BETDIP_clean_sbu_0, # of connection points: 6
#     Node 2, Type 0, BuildingBlock: BETDIP_clean_sbu_0, # of connection points: 6
#     Node 3, Type 0, BuildingBlock: BETDIP_clean_sbu_0, # of connection points: 6
#     Node 4, Type 0, BuildingBlock: BETDIP_clean_sbu_0, # of connection points: 6
#     Node 5, Type 0, BuildingBlock: BETDIP_clean_sbu_0, # of connection points: 6
#     Node 6, Type 0, BuildingBlock: BETDIP_clean_sbu_0, # of connection points: 6
#     Node 7, Type 0, BuildingBlock: BETDIP_clean_sbu_0, # of connection points: 6
#     Edge 8, Type (0, 0), BuildingBlock: MIFKUJ_clean_linker_0, # of connection points: 2
#     Edge 9, Type (0, 0), BuildingBlock: MIFKUJ_clean_linker_0, # of connection points: 2
#     Edge 10, Type (0, 0), BuildingBlock: MIFKUJ_clean_linker_0, # of connection points: 2
#     Edge 11, Type (0, 0), BuildingBlock: MIFKUJ_clean_linker_0, # of connection points: 2
#     Edge 12, Type (0, 0), BuildingBlock: MIFKUJ_clean_linker_0, # of connection points: 2
#     Edge 13, Type (0, 0), BuildingBlock: MIFKUJ_clean_linker_0, # of connection points: 2
#     Edge 14, Type (0, 0), BuildingBlock: MIFKUJ_clean_linker_0, # of connection points: 2
#     Edge 15, Type (0, 0), BuildingBlock: MIFKUJ_clean_linker_0, # of connection points: 2
#     Edge 16, Type (0, 0), BuildingBlock: MIFKUJ_clean_linker_0, # of connection points: 2
#     Edge 17, Type (0, 0), BuildingBlock: MIFKUJ_clean_linker_0, # of connection points: 2
#     Edge 18, Type (0, 0), BuildingBlock: MIFKUJ_clean_linker_0, # of connection points: 2
#     Edge 19, Type (0, 0), BuildingBlock: MIFKUJ_clean_linker_0, # of connection points: 2
#     Edge 20, Type (0, 0), BuildingBlock: MIFKUJ_clean_linker_0, # of connection points: 2
#     Edge 21, Type (0, 0), BuildingBlock: MIFKUJ_clean_linker_0, # of connection points: 2
#     Edge 22, Type (0, 0), BuildingBlock: MIFKUJ_clean_linker_0, # of connection points: 2
#     Edge 23, Type (0, 0), BuildingBlock: MIFKUJ_clean_linker_0, # of connection points: 2
#     Edge 24, Type (0, 0), BuildingBlock: MIFKUJ_clean_linker_0, # of connection points: 2
#     Edge 25, Type (0, 0), BuildingBlock: MIFKUJ_clean_linker_0, # of connection points: 2
#     Edge 26, Type (0, 0), BuildingBlock: MIFKUJ_clean_linker_0, # of connection points: 2
#     Edge 27, Type (0, 0), BuildingBlock: MIFKUJ_clean_linker_0, # of connection points: 2
#     Edge 28, Type (0, 0), BuildingBlock: MIFKUJ_clean_linker_0, # of connection points: 2
#     Edge 29, Type (0, 0), BuildingBlock: MIFKUJ_clean_linker_0, # of connection points: 2
#     Edge 30, Type (0, 0), BuildingBlock: MIFKUJ_clean_linker_0, # of connection points: 2
#     Edge 31, Type (0, 0), BuildingBlock: MIFKUJ_clean_linker_0, # of connection points: 2
# Relax obj value: 0.477
# Max RMSD: 0.243
# Mean RMSD: 0.207
data_MOF--net-vby--node1-BETDIP_clean_sbu_0--edge1-MIFKUJ_clean_linker_0
_symmetry_space_group_name_H-M    P1
_symmetry_Int_Tables_number       1
_symmetry_cell_setting            triclinic
loop_
_symmetry_equiv_pos_as_xyz
'x, y, z'
_cell_length_a     23.085157
_cell_length_b     92.204751
_cell_length_c     39.149245
_cell_angle_alpha  86.652733
_cell_angle_beta   91.963348
_cell_angle_gamma 80.025125
loop_
_atom_site_label
_atom_site_type_symbol
_atom_site_fract_x
_atom_site_fract_y
_atom_site_fract_z
_atom_type_partial_charge
Tb0 Tb 0.10966 0.42713 0.02058 0.0
Tb1 Tb 0.22021 0.43076 0.018 0.0
C2 C 1.00526 0.42482 0.03171 0.0
C3 C 0.97355 0.41286 0.02299 0.0
C4 C 0.94282 0.40617 0.04796 0.0
C5 C 0.9155 0.39427 0.04016 0.0
C6 C 0.91847 0.38892 0.00723 0.0
C7 C 0.94991 0.39551 0.98247 0.0
C8 C 0.97727 0.40732 -0.00974 0.0
C9 C 0.1453 0.42376 0.95695 0.0
C10 C 0.13295 0.46328 0.01952 0.0
C11 C 0.32475 0.42788 0.0004 0.0
C12 C 0.36316 0.41452 -0.01044 0.0
C13 C 0.36886 0.41214 0.95457 0.0
C14 C 0.40165 0.39904 0.9443 0.0
C15 C 0.42963 0.38808 0.96878 0.0
C16 C 0.42349 0.39044 0.00373 0.0
C17 C 0.39077 0.4035 0.014 0.0
C18 C 0.18654 0.4312 0.0828 0.0
C19 C 0.19955 0.39477 0.02037 0.0
O20 O 1.02008 0.43279 0.00586 0.0
O21 O 0.04822 0.42117 0.05488 0.0
O22 O 0.15503 0.43385 0.97617 0.0
O23 O 0.11536 0.41542 0.97372 0.0
O24 O 0.09568 0.45338 0.02487 0.0
O25 O 0.18814 0.45633 0.01411 0.0
O26 O 0.2797 0.43327 0.97965 0.0
O27 O 0.31018 0.42764 0.03233 0.0
O28 O 0.17588 0.42234 0.06081 0.0
O29 O 0.21665 0.4403 0.06835 0.0
O30 O 0.23676 0.40463 0.01637 0.0
O31 O 0.14362 0.4016 0.02422 0.0
H32 H 0.94002 0.41015 0.07346 0.0
H33 H 0.89081 0.38951 0.05959 0.0
H34 H 0.95316 0.39156 0.95696 0.0
H35 H 1.00139 0.41207 0.97055 0.0
H36 H 0.3477 0.42037 0.9351 0.0
H37 H 0.40569 0.39754 0.9172 0.0
H38 H 0.44569 0.38241 0.0233 0.0
H39 H 0.3872 0.40491 0.04116 0.0
Tb40 Tb 0.87131 0.67866 0.01812 0.0
Tb41 Tb 0.97741 0.68196 0.01803 0.0
C42 C 0.76228 0.68128 0.02419 0.0
C43 C 0.71805 0.68913 -0.00103 0.0
C44 C 0.65963 0.68708 5e-05 0.0
C45 C 0.62102 0.69181 0.97183 0.0
C46 C 0.64067 0.69853 0.94213 0.0
C47 C 0.69832 0.70137 0.94208 0.0
C48 C 0.73673 0.69672 0.97035 0.0
C49 C 0.90374 0.67887 0.95243 0.0
C50 C 0.89121 0.71464 0.01683 0.0
C51 C 0.08405 0.68103 0.00462 0.0
C52 C 0.12434 0.67361 0.9799 0.0
C53 C 0.12639 0.68031 0.94691 0.0
C54 C 0.16786 0.67431 0.92439 0.0
C55 C 0.2084 0.66142 0.93405 0.0
C56 C 0.20528 0.65437 0.96661 0.0
C57 C 0.16356 0.66043 -0.01062 0.0
C58 C 0.94081 0.68459 0.08194 0.0
C59 C 0.9564 0.64605 0.0199 0.0
O60 O 0.79448 0.68941 0.03965 0.0
O61 O 0.79429 0.6697 0.01283 0.0
O62 O 0.91561 0.68734 0.97493 0.0
O63 O 0.87354 0.66998 0.96688 0.0
O64 O 0.85338 0.70487 0.01865 0.0
O65 O 0.94725 0.70758 0.01533 0.0
O66 O 1.04083 0.69094 -0.00863 0.0
O67 O 0.06694 0.67292 0.02941 0.0
O68 O 0.93139 0.67468 0.06223 0.0
O69 O 0.97164 0.69297 0.06609 0.0
O70 O 0.99153 0.65599 0.01091 0.0
O71 O 0.90351 0.65323 0.02866 0.0
H72 H 0.64491 0.68104 0.0217 0.0
H73 H 0.57709 0.68919 0.97234 0.0
H74 H 0.71454 0.70647 0.91955 0.0
H75 H 0.78214 0.69818 0.9689 0.0
H76 H 0.09747 0.69057 0.93878 0.0
H77 H 0.17059 0.68037 0.90022 0.0
H78 H 0.2364 0.64449 0.97487 0.0
H79 H 0.16324 0.65505 0.01471 0.0
Tb80 Tb 0.89922 0.7176 0.51303 0.0
Tb81 Tb 0.92214 0.68854 0.51143 0.0
C82 C 0.90319 0.74351 0.52896 0.0
C83 C 0.94955 0.75262 0.52586 0.0
C84 C 0.95495 0.76308 0.54981 0.0
C85 C 1.00161 0.77097 0.54869 0.0
C86 C 1.0439 0.76849 0.52361 0.0
C87 C 1.03789 0.75808 0.49943 0.0
C88 C 0.99122 0.75023 0.50055 0.0
C89 C 0.90176 0.70958 0.44856 0.0
C90 C 0.04745 0.70259 0.51228 0.0
C91 C 0.92411 0.66315 0.4911 0.0
C92 C 0.88993 0.65111 0.48942 0.0
C93 C 0.86243 0.64876 0.45812 0.0
C94 C 0.84721 0.63506 0.4526 0.0
C95 C 0.86057 0.62343 0.47801 0.0
C96 C 0.88008 0.62653 0.51084 0.0
C97 C 0.89483 0.64024 0.51645 0.0
C98 C 0.9216 0.69537 0.57644 0.0
C99 C 0.77388 0.70366 0.51305 0.0
O100 O 0.91612 0.73193 0.55048 0.0
O101 O 0.8787 0.74041 0.50035 0.0
O102 O 0.9379 0.7044 0.47314 0.0
O103 O 0.86296 0.71985 0.45981 0.0
O104 O 1.00466 0.71462 0.51563 0.0
O105 O 1.023 0.69034 0.50856 0.0
O106 O 0.90466 0.67526 0.47215 0.0
O107 O 0.94619 0.66567 0.52091 0.0
O108 O 0.8847 0.70142 0.55257 0.0
O109 O 0.95961 0.6854 0.56356 0.0
O110 O 0.81656 0.69152 0.51001 0.0
O111 O 0.79837 0.71595 0.51632 0.0
H112 H 0.92348 0.76502 0.56967 0.0
H113 H 1.00449 0.77902 0.56744 0.0
H114 H 0.07004 0.75572 0.4801 0.0
H115 H 0.98832 0.7421 0.48197 0.0
H116 H 0.8576 0.65702 0.43686 0.0
H117 H 0.83083 0.6331 0.42736 0.0
H118 H 0.89095 0.61792 0.5312 0.0
H119 H 0.9154 0.64175 0.54096 0.0
Tb120 Tb 0.14457 0.4209 0.5227 0.0
Tb121 Tb 0.16779 0.3925 0.52384 0.0
C122 C 0.1442 0.44711 0.53696 0.0
C123 C 0.17472 0.45929 0.52674 0.0
C124 C 0.20073 0.46651 0.55208 0.0
C125 C 0.21557 0.48033 0.54427 0.0
C126 C 0.20285 0.48727 0.51122 0.0
C127 C 0.18448 0.47907 0.48497 0.0
C128 C 0.17069 0.46516 0.49266 0.0
C129 C 0.1441 0.41346 0.45781 0.0
C130 C 0.2932 0.40598 0.52201 0.0
C131 C 0.16448 0.36606 0.51188 0.0
C132 C 0.11672 0.35733 0.51416 0.0
C133 C 0.112 0.34672 0.49046 0.0
C134 C 0.06395 0.3393 0.49044 0.0
C135 C 1.01948 0.34243 0.51403 0.0
C136 C 1.0249 0.35292 0.53808 0.0
C137 C 0.07303 0.36028 0.53818 0.0
C138 C 0.169 0.40152 0.58761 0.0
C139 C 1.01956 0.40708 0.52425 0.0
O140 O 0.17485 0.4358 0.55485 0.0
O141 O 0.10894 0.44321 0.51383 0.0
O142 O 0.18155 0.40771 0.48164 0.0
O143 O 0.10623 0.42338 0.47066 0.0
O144 O 0.25025 0.41817 0.52377 0.0
O145 O 0.26872 0.39367 0.52006 0.0
O146 O 0.15579 0.37692 0.48832 0.0
O147 O 0.18492 0.37005 0.54069 0.0
O148 O 0.13035 0.40605 0.56382 0.0
O149 O 0.20892 0.39173 0.57568 0.0
O150 O 0.06245 0.39514 0.52065 0.0
O151 O 1.04418 0.41925 0.52808 0.0
H152 H 0.20532 0.46202 0.57843 0.0
H153 H 0.23148 0.48618 0.56485 0.0
H154 H 0.17436 0.48394 0.45916 0.0
H155 H 0.15205 0.45964 0.47238 0.0
H156 H 0.14487 0.34439 0.4715 0.0
H157 H 0.06082 0.3314 0.47134 0.0
H158 H 0.99188 0.35547 0.55686 0.0
H159 H 0.07555 0.36845 0.5567 0.0
Tb160 Tb 0.61099 0.92788 0.01679 0.0
Tb161 Tb 0.72151 0.93143 0.01656 0.0
C162 C 0.50363 0.92683 0.0219 0.0
C163 C 0.46762 0.9174 0.00487 0.0
C164 C 0.42513 0.91133 0.02282 0.0
C165 C 0.39098 0.90241 0.00646 0.0
C166 C 0.39908 0.89939 0.97191 0.0
C167 C 0.44258 0.90523 0.95429 0.0
C168 C 0.47635 0.91417 0.97054 0.0
C169 C 0.65047 0.92466 0.95386 0.0
C170 C 0.63446 0.96384 0.01813 0.0
C171 C 0.82653 0.92926 0.00021 0.0
C172 C 0.86264 0.91753 0.98224 0.0
C173 C 0.88326 0.92091 0.94997 0.0
C174 C 0.91344 0.90977 0.9313 0.0
C175 C 0.92356 0.89499 0.94454 0.0
C176 C 0.90189 0.89159 0.97658 0.0
C177 C 0.87204 0.90274 -0.00468 0.0
C178 C 0.68346 0.9329 0.08026 0.0
C179 C 0.7 0.89549 0.01754 0.0
O180 O 0.52333 0.93643 0.00167 0.0
O181 O 0.54422 0.92012 0.04423 0.0
O182 O 0.65913 0.93459 0.97359 0.0
O183 O 0.61959 0.91633 0.9697 0.0
O184 O 0.59709 0.95395 0.0228 0.0
O185 O 0.68981 0.95694 0.01323 0.0
O186 O 0.78244 0.93695 0.98174 0.0
O187 O 0.81142 0.92574 0.03105 0.0
O188 O 0.67405 0.92368 0.05891 0.0
O189 O 0.71516 0.94163 0.06598 0.0
O190 O 0.73723 0.90535 0.01354 0.0
O191 O 0.64413 0.90235 0.02132 0.0
H192 H 0.41806 0.91357 0.04936 0.0
H193 H 0.35795 0.89797 0.02075 0.0
H194 H 0.44917 0.90333 0.92754 0.0
H195 H 0.50861 0.91874 0.95592 0.0
H196 H 0.87601 0.93221 0.93918 0.0
H197 H 0.93073 0.91284 0.90707 0.0
H198 H 0.90897 0.88032 0.98745 0.0
H199 H 0.85626 0.89971 0.02001 0.0
Tb200 Tb 0.37056 0.17806 0.02363 0.0
Tb201 Tb 0.48234 0.18175 0.01881 0.0
C202 C 0.26769 0.18095 0.04394 0.0
C203 C 0.2277 0.19459 0.05159 0.0
C204 C 0.21611 0.19761 0.08572 0.0
C205 C 0.1822 0.21103 0.09333 0.0
C206 C 0.15908 0.22167 0.06696 0.0
C207 C 0.17115 0.21864 0.03288 0.0
C208 C 0.20508 0.20529 0.02528 0.0
C209 C 0.40135 0.17782 0.95857 0.0
C210 C 0.39208 0.21406 0.02022 0.0
C211 C 0.58455 0.18435 0.00289 0.0
C212 C 0.6145 0.19704 0.00677 0.0
C213 C 0.65259 0.2009 0.98201 0.0
C214 C 0.67988 0.2132 0.98567 0.0
C215 C 0.66936 0.22173 0.0142 0.0
C216 C 0.6299 0.21807 0.03833 0.0
C217 C 0.60259 0.20589 0.03459 0.0
C218 C 0.4506 0.18365 0.08344 0.0
C219 C 0.45849 0.14571 0.02096 0.0
O220 O 0.31439 0.17734 0.06446 0.0
O221 O 0.28029 0.1794 0.01192 0.0
O222 O 0.41303 0.18663 0.98045 0.0
O223 O 0.37109 0.16877 0.97313 0.0
O224 O 0.35466 0.20424 0.02418 0.0
O225 O 0.44802 0.20724 0.01634 0.0
O226 O 0.57295 0.17754 0.03139 0.0
O227 O 0.53965 0.18664 0.98086 0.0
O228 O 0.43939 0.1741 0.0631 0.0
O229 O 0.48012 0.19231 0.06725 0.0
O230 O 0.49575 0.15555 0.01499 0.0
O231 O 0.40353 0.15258 0.0272 0.0
H232 H 0.23368 0.18963 0.10655 0.0
H233 H 0.17362 0.21303 0.1198 0.0
H234 H 0.15285 0.22639 0.0118 0.0
H235 H 0.21357 0.20343 -0.00129 0.0
H236 H 0.66158 0.19435 0.96009 0.0
H237 H 0.7107 0.21573 0.96691 0.0
H238 H 0.62086 0.22451 0.06042 0.0
H239 H 0.5726 0.20335 0.05376 0.0
Tb240 Tb 0.42546 0.20692 0.51755 0.0
Tb241 Tb 0.44451 0.17779 0.52173 0.0
C242 C 0.40751 0.23425 0.52464 0.0
C243 C 0.44522 0.24535 0.51756 0.0
C244 C 0.44433 0.25714 0.53872 0.0
C245 C 0.48631 0.26639 0.53569 0.0
C246 C 0.53017 0.26395 0.51151 0.0
C247 C 0.52946 0.25244 0.48953 0.0
C248 C 0.48762 0.2432 0.49262 0.0
C249 C 0.44705 0.19631 0.45567 0.0
C250 C 0.57079 0.19239 0.52009 0.0
C251 C 0.45459 0.15087 0.51094 0.0
C252 C 0.43049 0.14169 0.48659 0.0
C253 C 0.41407 0.14715 0.45275 0.0
C254 C 0.407 0.13745 0.4274 0.0
C255 C 0.41604 0.12217 0.43567 0.0
C256 C 0.42662 0.11697 0.4703 0.0
C257 C 0.43396 0.12667 0.49549 0.0
C258 C 0.45773 0.18727 0.58466 0.0
C259 C 0.29828 0.19264 0.51893 0.0
O260 O 0.42833 0.22434 0.54927 0.0
O261 O 0.38718 0.22832 0.49818 0.0
O262 O 0.41376 0.19212 0.47765 0.0
O263 O 0.47117 0.20644 0.46876 0.0
O264 O 0.52927 0.20433 0.5253 0.0
O265 O 0.54471 0.18046 0.51491 0.0
O266 O 0.48721 0.15974 0.49746 0.0
O267 O 0.41967 0.15713 0.53344 0.0
O268 O 0.41803 0.19246 0.56194 0.0
O269 O 0.49154 0.17656 0.57178 0.0
O270 O 0.34014 0.18016 0.52056 0.0
O271 O 0.32357 0.20502 0.51732 0.0
H272 H 0.41256 0.25884 0.55848 0.0
H273 H 0.4859 0.27504 0.55328 0.0
H274 H 0.56194 0.25038 0.47027 0.0
H275 H 0.48967 0.2341 0.4762 0.0
H276 H 0.41121 0.15875 0.44549 0.0
H277 H 0.39851 0.1418 0.40106 0.0
H278 H 0.43488 0.10527 0.47765 0.0
H279 H 0.44693 0.12225 0.52143 0.0
Tb280 Tb 0.6455 0.92969 0.51851 0.0
Tb281 Tb 0.6687 0.90101 0.51991 0.0
C282 C 0.64411 0.9565 0.52825 0.0
C283 C 0.66548 0.96838 0.50835 0.0
C284 C 0.68918 0.97915 0.52517 0.0
C285 C 0.70139 0.99161 0.50659 0.0
C286 C 0.68885 0.99363 0.47095 0.0
C287 C 0.66932 0.9822 0.45399 0.0
C288 C 0.65832 0.96966 0.47246 0.0
C289 C 0.64538 0.92182 0.45379 0.0
C290 C 0.79397 0.91471 0.51826 0.0
C291 C 0.66648 0.87445 0.50837 0.0
C292 C 0.6205 0.8652 0.5113 0.0
C293 C 0.61753 0.85428 0.48815 0.0
C294 C 0.57249 0.84589 0.48961 0.0
C295 C 0.52957 0.84825 0.51434 0.0
C296 C 0.53285 0.85918 0.5376 0.0
C297 C 0.57776 0.86759 0.53604 0.0
C298 C 0.67337 0.91006 0.58334 0.0
C299 C 0.5207 0.91567 0.52091 0.0
O300 O 0.68374 0.94589 0.54259 0.0
O301 O 0.60083 0.95147 0.51362 0.0
O302 O 0.6819 0.91611 0.47789 0.0
O303 O 0.6093 0.93227 0.46597 0.0
O304 O 0.75113 0.92681 0.52117 0.0
O305 O 0.76942 0.90244 0.51513 0.0
O306 O 0.65597 0.8853 0.4848 0.0
O307 O 0.68713 0.8786 0.53695 0.0
O308 O 0.63362 0.9148 0.56025 0.0
O309 O 0.71183 0.90007 0.57093 0.0
O310 O 0.56342 0.90372 0.51707 0.0
O311 O 0.54544 0.92782 0.52492 0.0
H312 H 0.69599 0.97823 0.55279 0.0
H313 H 0.71797 0.99998 0.52042 0.0
H314 H 0.65854 0.98331 0.42673 0.0
H315 H 0.64105 0.96135 0.45877 0.0
H316 H 0.64985 0.85232 0.46875 0.0
H317 H 0.5715 0.83747 0.47153 0.0
H318 H 0.50002 0.86143 0.5566 0.0
H319 H 0.5787 0.87608 0.55396 0.0
H320 H 0.51 0.3878 0.91948 0.0
H321 H 0.59929 0.36996 0.91702 0.0
H322 H 0.53651 0.34127 -0.0072 0.0
H323 H 0.44588 0.35931 -0.00453 0.0
H324 H 0.62371 0.35144 0.01836 0.0
H325 H 0.60783 0.32586 0.92134 0.0
H326 H 0.57844 0.32064 0.86285 0.0
H327 H 0.68348 0.35088 0.82095 0.0
H328 H 0.7128 0.3565 0.87906 0.0
H329 H 0.91306 0.36258 0.04252 0.0
H330 H 0.84565 0.3455 0.02997 0.0
H331 H 0.77941 0.37274 0.93875 0.0
H332 H 0.84737 0.38936 0.95054 0.0
H333 H 0.77083 0.34502 0.9288 0.0
H334 H 0.72264 0.37919 0.02289 0.0
H335 H 0.74337 0.38753 0.08014 0.0
H336 H 0.75052 0.3435 0.1245 0.0
H337 H 0.73036 0.33491 0.06737 0.0
C338 C 0.5135 0.37738 0.93436 0.0
C339 C 0.47182 0.3752 0.95856 0.0
C340 C 0.56482 0.36702 0.93272 0.0
C341 C 0.57532 0.3543 0.95523 0.0
C342 C 0.52962 0.35106 0.97552 0.0
C343 C 0.47817 0.36147 0.97726 0.0
C344 C 0.63742 0.34775 0.96507 0.0
C345 C 0.65604 0.34934 -0.00105 0.0
C346 C 0.68002 0.34482 0.9401 0.0
C347 C 0.66292 0.34152 0.90478 0.0
C348 C 0.62458 0.33145 0.89969 0.0
C349 C 0.60789 0.32842 0.86655 0.0
C350 C 0.62919 0.3354 0.83821 0.0
C351 C 0.66721 0.34543 0.84294 0.0
C352 C 0.68407 0.3485 0.87601 0.0
C353 C 0.88486 0.36468 0.01944 0.0
C354 C 0.8847 0.37739 -0.00225 0.0
C355 C 0.8467 0.35488 0.01218 0.0
C356 C 0.80674 0.35794 0.98369 0.0
C357 C 0.80995 0.37004 0.96077 0.0
C358 C 0.84859 0.37964 0.96767 0.0
C359 C 0.75445 0.35067 0.98058 0.0
C360 C 0.73853 0.34619 0.94837 0.0
C361 C 0.71357 0.35129 0.0068 0.0
C362 C 0.7259 0.35639 0.04098 0.0
C363 C 0.72893 0.3713 0.04489 0.0
C364 C 0.74056 0.37606 0.07726 0.0
C365 C 0.74847 0.36603 0.10593 0.0
C366 C 0.74461 0.35123 0.10227 0.0
C367 C 0.73317 0.34641 0.06991 0.0
H368 H 0.75741 0.36974 0.13098 0.0
H369 H 0.61618 0.33304 0.81258 0.0
H370 H 0.32409 0.65427 0.95453 0.0
H371 H 0.40629 0.65659 0.91885 0.0
H372 H 0.2902 0.66235 0.82846 0.0
H373 H 0.20778 0.65943 0.86432 0.0
H374 H 0.46652 0.64784 0.86442 0.0
H375 H 0.31886 0.69683 0.78705 0.0
H376 H 0.22733 0.71496 0.79033 0.0
H377 H 0.23243 0.70665 0.89957 0.0
H378 H 0.32487 0.68891 0.89701 0.0
H379 H 0.6743 0.69036 0.87869 0.0
H380 H 0.60848 0.68402 0.83394 0.0
H381 H 0.45887 0.70289 0.89005 0.0
H382 H 0.52406 0.70996 0.93328 0.0
H383 H 0.42398 0.70109 0.82742 0.0
H384 H 0.55054 0.66452 0.91728 0.0
H385 H 0.65127 0.65264 0.93711 0.0
H386 H 0.69001 0.64106 0.8346 0.0
H387 H 0.5895 0.653 0.81425 0.0
C388 C 0.3164 0.65522 0.92697 0.0
C389 C 0.25908 0.65718 0.91227 0.0
C390 C 0.36359 0.65658 0.90647 0.0
C391 C 0.35403 0.66003 0.87104 0.0
C392 C 0.29832 0.65992 0.85579 0.0
C393 C 0.2512 0.65838 0.87634 0.0
C394 C 0.39862 0.6668 0.85263 0.0
C395 C 0.45712 0.65937 0.8552 0.0
C396 C 0.3865 0.68185 0.84034 0.0
C397 C 0.32767 0.69119 0.84165 0.0
C398 C 0.29989 0.69873 0.81167 0.0
C399 C 0.2483 0.70907 0.81347 0.0
C400 C 0.22411 0.71196 0.84516 0.0
C401 C 0.25115 0.7044 0.87506 0.0
C402 C 0.30309 0.69418 0.87342 0.0
C403 C 0.6273 0.69391 0.88038 0.0
C404 C 0.60392 0.70013 0.91005 0.0
C405 C 0.58972 0.69017 0.85485 0.0
C406 C 0.52888 0.69229 0.85941 0.0
C407 C 0.50572 0.70084 0.88604 0.0
C408 C 0.54303 0.70477 0.91113 0.0
C409 C 0.49107 0.68268 0.8441 0.0
C410 C 0.43339 0.68927 0.83378 0.0
C411 C 0.50362 0.66723 0.85216 0.0
C412 C 0.56294 0.65959 0.86433 0.0
C413 C 0.58055 0.65933 0.89911 0.0
C414 C 0.63757 0.65265 0.91038 0.0
C415 C 0.677 0.64609 0.88712 0.0
C416 C 0.65941 0.64615 0.85256 0.0
C417 C 0.60248 0.65287 0.84114 0.0
H418 H 0.72118 0.64095 0.89587 0.0
H419 H 0.18435 0.72003 0.84654 0.0
H420 H 0.69859 0.68013 0.50893 0.0
H421 H 0.59272 0.67976 0.50964 0.0
H422 H 0.55804 0.72648 0.51738 0.0
H423 H 0.66482 0.72673 0.51762 0.0
H424 H 0.45363 0.72365 0.53548 0.0
H425 H 0.5108 0.69303 0.44169 0.0
H426 H 0.56711 0.67204 0.41382 0.0
H427 H 0.5192 0.64185 0.49113 0.0
H428 H 0.4629 0.66268 0.51954 0.0
H429 H 0.12203 0.72625 0.51664 0.0
H430 H 0.22781 0.72679 0.51594 0.0
H431 H 0.2635 0.68009 0.50787 0.0
H432 H 0.15685 0.67968 0.5076 0.0
H433 H 0.36729 0.68302 0.4899 0.0
H434 H 0.30956 0.71361 0.58346 0.0
H435 H 0.25337 0.73457 0.61148 0.0
H436 H 0.30228 0.76485 0.53482 0.0
H437 H 0.35835 0.74406 0.50615 0.0
C438 C 0.67007 0.69067 0.51065 0.0
C439 C 0.6991 0.70348 0.51304 0.0
C440 C 0.60498 0.69051 0.51063 0.0
C441 C 0.55711 0.70315 0.51261 0.0
C442 C 0.5864 0.71594 0.51541 0.0
C443 C 0.65161 0.7161 0.51551 0.0
C444 C 0.48176 0.7031 0.51225 0.0
C445 C 0.43699 0.71451 0.52484 0.0
C446 C 0.44952 0.69186 0.49962 0.0
C447 C 0.4833 0.67938 0.48289 0.0
C448 C 0.51251 0.6819 0.45277 0.0
C449 C 0.54438 0.67005 0.43689 0.0
C450 C 0.54689 0.65562 0.45076 0.0
C451 C 0.51735 0.65303 0.48048 0.0
C452 C 0.48545 0.66485 0.49647 0.0
C453 C 0.15077 0.71575 0.51486 0.0
C454 C 0.12211 0.70288 0.51238 0.0
C455 C 0.2158 0.71601 0.51488 0.0
C456 C 0.26389 0.70343 0.51281 0.0
C457 C 0.23492 0.69059 0.50992 0.0
C458 C 0.16981 0.69033 0.50981 0.0
C459 C 0.33916 0.70355 0.51315 0.0
C460 C 0.38392 0.69216 0.50054 0.0
C461 C 0.37134 0.71481 0.52575 0.0
C462 C 0.3375 0.7273 0.5425 0.0
C463 C 0.30805 0.72475 0.57251 0.0
C464 C 0.27625 0.73658 0.58848 0.0
C465 C 0.27408 0.75102 0.57484 0.0
C466 C 0.3038 0.75366 0.54523 0.0
C467 C 0.3356 0.74186 0.52912 0.0
H468 H 0.24961 0.76016 0.58733 0.0
H469 H 0.5716 0.64646 0.43844 0.0
H470 H 0.91133 0.4302 0.52721 0.0
H471 H 0.80519 0.43028 0.52597 0.0
H472 H 0.83667 0.38343 0.52032 0.0
H473 H 0.94362 0.38349 0.52038 0.0
H474 H 0.72705 0.38553 0.50334 0.0
H475 H 0.74689 0.41814 0.59377 0.0
H476 H 0.77485 0.43979 0.62004 0.0
H477 H 0.67926 0.46842 0.53892 0.0
H478 H 0.65103 0.44692 0.51213 0.0
H479 H 0.40112 0.38258 0.52103 0.0
H480 H 0.50752 0.3823 0.52225 0.0
H481 H 0.47707 0.42929 0.52419 0.0
H482 H 0.36994 0.42946 0.52396 0.0
H483 H 0.58638 0.42694 0.54321 0.0
H484 H 0.56345 0.39362 0.45433 0.0
H485 H 0.53726 0.37158 0.42903 0.0
H486 H 0.64042 0.34368 0.50864 0.0
H487 H 0.66657 0.36557 0.53468 0.0
C488 C 0.8978 0.41957 0.52588 0.0
C489 C 0.94487 0.40686 0.52415 0.0
C490 C 0.83265 0.41956 0.52559 0.0
C491 C 0.8028 0.40678 0.52403 0.0
C492 C 0.85008 0.39405 0.52193 0.0
C493 C 0.9154 0.39408 0.52203 0.0
C494 C 0.72756 0.40666 0.52404 0.0
C495 C 0.69817 0.39486 0.51268 0.0
C496 C 0.68033 0.41808 0.53514 0.0
C497 C 0.69751 0.43095 0.5508 0.0
C498 C 0.73209 0.42906 0.58152 0.0
C499 C 0.74793 0.44129 0.59649 0.0
C500 C 0.72901 0.45547 0.58109 0.0
C501 C 0.69403 0.45744 0.55076 0.0
C502 C 0.67808 0.44524 0.53567 0.0
C503 C 0.41492 0.3932 0.5215 0.0
C504 C 0.36806 0.40605 0.52212 0.0
C505 C 0.4802 0.39308 0.52179 0.0
C506 C 0.51041 0.40582 0.52238 0.0
C507 C 0.46335 0.41868 0.52341 0.0
C508 C 0.39793 0.41879 0.52322 0.0
C509 C 0.58574 0.40583 0.52242 0.0
C510 C 0.61518 0.41762 0.53381 0.0
C511 C 0.63302 0.39433 0.51156 0.0
C512 C 0.61619 0.38123 0.49669 0.0
C513 C 0.58011 0.38279 0.46657 0.0
C514 C 0.56532 0.37033 0.45212 0.0
C515 C 0.58691 0.35625 0.46735 0.0
C516 C 0.62344 0.3546 0.49703 0.0
C517 C 0.63819 0.36702 0.51167 0.0
H518 H 0.57552 0.34661 0.45607 0.0
H519 H 0.74132 0.46492 0.59272 0.0
H520 H 0.93035 0.89059 0.87562 0.0
H521 H 1.01623 0.87757 0.84833 0.0
H522 H 0.09484 0.86171 0.94835 0.0
H523 H 1.00998 0.87408 0.97494 0.0
H524 H 0.10621 0.88767 0.853 0.0
H525 H 0.20629 0.83865 0.95668 0.0
H526 H 0.17824 0.81525 0.97722 0.0
H527 H 0.06607 0.81606 0.88717 0.0
H528 H 0.09437 0.83932 0.86548 0.0
H529 H 0.28033 0.90286 0.9749 0.0
H530 H 0.21273 0.89131 0.94108 0.0
H531 H 0.35851 0.86638 0.89192 0.0
H532 H 0.4274 0.87789 0.92631 0.0
H533 H 0.25827 0.85037 0.91656 0.0
H534 H 0.2936 0.8872 0.83778 0.0
H535 H 0.31765 0.91115 0.81722 0.0
H536 H 0.1557 0.93363 0.85436 0.0
H537 H 0.13107 0.90989 0.87569 0.0
C538 C 0.96515 0.88378 0.89154 0.0
C539 C 0.96417 0.88369 0.92747 0.0
C540 C 1.01408 0.87625 0.87591 0.0
C541 C 0.06297 0.86875 0.89603 0.0
C542 C 0.05804 0.8671 0.93173 0.0
C543 C 1.0091 0.87442 0.94722 0.0
C544 C 0.12314 0.86672 0.88251 0.0
C545 C 0.13954 0.87922 0.86593 0.0
C546 C 0.16784 0.85522 0.89664 0.0
C547 C 0.15312 0.84077 0.90915 0.0
C548 C 0.17662 0.83375 0.94078 0.0
C549 C 0.16034 0.82052 0.95278 0.0
C550 C 0.12054 0.81415 0.93348 0.0
C551 C 0.097 0.82099 0.90208 0.0
C552 C 0.11317 0.8342 0.88991 0.0
C553 C 0.29831 0.89472 0.95744 0.0
C554 C 0.35915 0.89126 0.95336 0.0
C555 C 0.25963 0.88823 0.9379 0.0
C556 C 0.28081 0.87814 0.91383 0.0
C557 C 0.34156 0.87421 0.91028 0.0
C558 C 0.38059 0.88082 0.92981 0.0
C559 C 0.23731 0.8723 0.89253 0.0
C560 C 0.22503 0.85828 0.90197 0.0
C561 C 0.19641 0.88225 0.87114 0.0
C562 C 0.21029 0.89669 0.8581 0.0
C563 C 0.26315 0.89725 0.84164 0.0
C564 C 0.27691 0.9108 0.82987 0.0
C565 C 0.23815 0.9239 0.8344 0.0
C566 C 0.18557 0.92347 0.85074 0.0
C567 C 0.1716 0.90995 0.86258 0.0
H568 H 0.24891 0.93438 0.82528 0.0
H569 H 0.10779 0.80394 0.94291 0.0
H570 H 0.14876 0.24981 0.03719 0.0
H571 H 0.05799 0.26806 0.03289 0.0
H572 H 0.98186 0.24188 0.108 0.0
H573 H 0.071 0.2236 0.11203 0.0
H574 H 0.97499 0.25562 0.00515 0.0
H575 H 0.86239 0.25864 0.13815 0.0
H576 H 0.8829 0.267 0.19518 0.0
H577 H 0.99776 0.29444 0.15196 0.0
H578 H 0.9773 0.28646 0.09448 0.0
H579 H 0.72978 0.22468 0.0729 0.0
H580 H 0.7997 0.24104 0.08222 0.0
H581 H 0.75623 0.26193 0.98073 0.0
H582 H 0.68757 0.24484 0.97074 0.0
H583 H 0.81303 0.2683 0.08385 0.0
H584 H 0.88016 0.26941 0.94737 0.0
H585 H 0.86961 0.25735 0.89332 0.0
H586 H 0.86107 0.21655 0.95015 0.0
H587 H 0.87214 0.22837 0.00443 0.0
C588 C 0.1134 0.24824 0.05374 0.0
C589 C 0.11609 0.23498 0.07393 0.0
C590 C 0.0619 0.2588 0.05155 0.0
C591 C 1.01277 0.25626 0.06956 0.0
C592 C 1.01914 0.24421 0.0939 0.0
C593 C 0.07038 0.23362 0.09603 0.0
C594 C 0.95263 0.26249 0.05548 0.0
C595 C 0.93942 0.25904 0.02197 0.0
C596 C 0.90616 0.26702 0.07718 0.0
C597 C 0.91799 0.27198 0.11181 0.0
C598 C 0.89148 0.26659 0.14063 0.0
C599 C 0.90329 0.27123 0.17312 0.0
C600 C 0.94155 0.28126 0.17719 0.0
C601 C 0.96814 0.28667 0.14878 0.0
C602 C 0.95652 0.28207 0.11623 0.0
C603 C 0.73414 0.23297 0.05281 0.0
C604 C 0.70413 0.23337 0.02092 0.0
C605 C 0.77384 0.24244 0.05825 0.0
C606 C 0.78406 0.25262 0.03201 0.0
C607 C 0.74995 0.25398 0.00114 0.0
C608 C 0.71099 0.24421 -0.00461 0.0
C609 C 0.83735 0.25951 0.03558 0.0
C610 C 0.84857 0.26572 0.06659 0.0
C611 C 0.88283 0.25699 0.01214 0.0
C612 C 0.87595 0.24982 0.97977 0.0
C613 C 0.87592 0.25788 0.94823 0.0
C614 C 0.86994 0.25108 0.9176 0.0
C615 C 0.86439 0.23621 0.91831 0.0
C616 C 0.86514 0.22808 0.94964 0.0
C617 C 0.8713 0.23481 0.98031 0.0
H618 H 0.8597 0.23097 0.89458 0.0
H619 H 0.95064 0.28482 0.20237 0.0
H620 H 0.22303 0.1691 0.52327 0.0
H621 H 0.11709 0.16887 0.52424 0.0
H622 H 0.08189 0.21601 0.51531 0.0
H623 H 0.18875 0.21618 0.51522 0.0
H624 H 0.97693 0.21445 0.53431 0.0
H625 H 1.03776 0.17783 0.45326 0.0
H626 H 0.0949 0.15503 0.43297 0.0
H627 H 1.04347 0.12987 0.51897 0.0
H628 H 0.98632 0.15255 0.53984 0.0
H629 H 0.64547 0.21604 0.5202 0.0
H630 H 0.75092 0.21653 0.51859 0.0
H631 H 0.78721 0.16947 0.51886 0.0
H632 H 0.68052 0.16911 0.51872 0.0
H633 H 0.8921 0.1711 0.50422 0.0
H634 H 0.83188 0.20859 0.58558 0.0
H635 H 0.77606 0.23182 0.60468 0.0
H636 H 0.82816 0.25577 0.5169 0.0
H637 H 0.88316 0.23265 0.49699 0.0
C638 C 0.1944 0.17975 0.52124 0.0
C639 C 0.22334 0.19266 0.51894 0.0
C640 C 0.12927 0.17965 0.52139 0.0
C641 C 0.08125 0.19243 0.51894 0.0
C642 C 0.1104 0.20535 0.51706 0.0
C643 C 0.17566 0.20546 0.51695 0.0
C644 C 1.00587 0.19242 0.51881 0.0
C645 C 0.96062 0.20466 0.52724 0.0
C646 C 0.97403 0.18044 0.51044 0.0
C647 C 1.00843 0.16687 0.49827 0.0
C648 C 1.03889 0.16743 0.46788 0.0
C649 C 0.07122 0.15454 0.45628 0.0
C650 C 0.07296 0.14102 0.47473 0.0
C651 C 1.04221 0.14036 0.50476 0.0
C652 C 1.00984 0.15322 0.51648 0.0
C653 C 0.67427 0.20544 0.52015 0.0
C654 C 0.64561 0.19251 0.51989 0.0
C655 C 0.73927 0.20569 0.51973 0.0
C656 C 0.78757 0.19301 0.51979 0.0
C657 C 0.7586 0.18007 0.51919 0.0
C658 C 0.69342 0.17983 0.51916 0.0
C659 C 0.86296 0.19311 0.51993 0.0
C660 C 0.90831 0.18088 0.51142 0.0
C661 C 0.89487 0.20513 0.52816 0.0
C662 C 0.86076 0.2189 0.53956 0.0
C663 C 0.83096 0.21881 0.57026 0.0
C664 C 0.7994 0.23195 0.58119 0.0
C665 C 0.79812 0.24525 0.56187 0.0
C666 C 0.8286 0.24545 0.53166 0.0
C667 C 0.85985 0.23233 0.5205 0.0
H668 H 0.77375 0.25541 0.57038 0.0
H669 H 0.09803 0.13105 0.46572 0.0
H670 H 0.86948 0.93808 0.52498 0.0
H671 H 0.97556 0.93834 0.52622 0.0
H672 H 1.00985 0.89201 0.51309 0.0
H673 H 0.90306 0.89174 0.51268 0.0
H674 H 0.11819 0.89232 0.5331 0.0
H675 H 1.04323 0.93437 0.45454 0.0
H676 H 0.98224 0.95843 0.43583 0.0
H677 H 0.04702 0.97777 0.52336 0.0
H678 H 0.10811 0.95379 0.54266 0.0
H679 H 0.44555 0.89226 0.51387 0.0
H680 H 0.3395 0.89193 0.51265 0.0
H681 H 0.30487 0.93821 0.52657 0.0
H682 H 0.41162 0.93854 0.52703 0.0
H683 H 0.19692 0.93787 0.50606 0.0
H684 H 0.27019 0.89597 0.5852 0.0
H685 H 0.33364 0.8722 0.60349 0.0
H686 H 0.27373 0.85283 0.51466 0.0
H687 H 0.2098 0.8765 0.49593 0.0
C688 C 0.8979 0.92763 0.52204 0.0
C689 C 0.86878 0.9149 0.51847 0.0
C690 C 0.96303 0.92779 0.52236 0.0
C691 C 1.0108 0.91526 0.51888 0.0
C692 C 0.98151 0.90249 0.51573 0.0
C693 C 0.91628 0.90232 0.51543 0.0
C694 C 0.08611 0.91536 0.51891 0.0
C695 C 0.13299 0.90262 0.52663 0.0
C696 C 0.11625 0.92797 0.51146 0.0
C697 C 0.0796 0.94229 0.5002 0.0
C698 C 1.04422 0.94376 0.46983 0.0
C699 C 1.00969 0.95737 0.45912 0.0
C700 C 1.01061 0.96961 0.47846 0.0
C701 C 0.04623 0.96827 0.50847 0.0
C702 C 0.08082 0.95468 0.5193 0.0
C703 C 0.41704 0.90268 0.51698 0.0
C704 C 0.44599 0.91543 0.52079 0.0
C705 C 0.35195 0.90248 0.51667 0.0
C706 C 0.30413 0.91498 0.52035 0.0
C707 C 0.33328 0.92776 0.52374 0.0
C708 C 0.39846 0.92796 0.52409 0.0
C709 C 0.22887 0.91486 0.52026 0.0
C710 C 0.18204 0.92758 0.51253 0.0
C711 C 0.19878 0.90225 0.52772 0.0
C712 C 0.23575 0.88799 0.53906 0.0
C713 C 0.27056 0.88662 0.56963 0.0
C714 C 0.30655 0.87318 0.58007 0.0
C715 C 0.30777 0.86103 0.56023 0.0
C716 C 0.2727 0.86225 0.53001 0.0
C717 C 0.23649 0.87566 0.5195 0.0
H718 H 0.33586 0.85068 0.56837 0.0
H719 H 0.98384 0.98013 0.47014 0.0
H720 H 0.0657 0.62515 0.0046 0.0
H721 H 0.093 0.59822 0.00527 0.0
H722 H 0.92027 0.59371 0.03527 0.0
H723 H 0.89359 0.6208 0.03549 0.0
H724 H 0.96359 0.56679 0.05334 0.0
H725 H 1.03414 0.58185 0.94426 0.0
H726 H 0.09189 0.59512 0.90524 0.0
H727 H 0.25036 0.57677 0.96451 0.0
H728 H 0.1934 0.56347 0.00399 0.0
H729 H 1.02195 0.48423 0.03225 0.0
H730 H 0.9949 0.51121 0.03193 0.0
H731 H 0.17026 0.51556 0.00707 0.0
H732 H 0.19698 0.48847 0.00693 0.0
H733 H 0.12566 0.54248 0.98644 0.0
H734 H 0.05562 0.52687 0.09451 0.0
H735 H 0.99812 0.51352 0.1335 0.0
H736 H 0.83874 0.53286 0.0762 0.0
H737 H 0.89543 0.54623 0.03672 0.0
C738 C 1.03187 0.61885 0.01136 0.0
C739 C 0.97532 0.62724 0.01982 0.0
C740 C 0.04817 0.60238 0.01134 0.0
C741 C 1.01045 0.59152 0.01941 0.0
C742 C 0.95407 0.59998 0.02828 0.0
C743 C 0.93779 0.61645 0.02837 0.0
C744 C 1.02844 0.57257 0.01915 0.0
C745 C 0.99913 0.56201 0.0379 0.0
C746 C 0.07528 0.56385 0.00061 0.0
C747 C 0.10951 0.57182 0.97722 0.0
C748 C 0.08127 0.5807 0.949 0.0
C749 C 0.11385 0.58822 0.92681 0.0
C750 C 0.17473 0.58683 0.93246 0.0
C751 C 0.20319 0.57787 0.96023 0.0
C752 C 0.1708 0.57034 0.9825 0.0
C753 C 0.05641 0.49051 0.02675 0.0
C754 C 0.11377 0.48208 0.01979 0.0
C755 C 1.0402 0.50697 0.02692 0.0
C756 C 0.07869 0.51778 0.02026 0.0
C757 C 0.13584 0.50931 0.01285 0.0
C758 C 0.15212 0.49284 0.01282 0.0
C759 C 0.06072 0.53672 0.02055 0.0
C760 C 0.09007 0.54727 0.00184 0.0
C761 C 1.01389 0.54542 0.0391 0.0
C762 C 0.97977 0.5374 0.0625 0.0
C763 C 1.00833 0.52821 0.09017 0.0
C764 C 0.97591 0.52065 0.11235 0.0
C765 C 0.91484 0.52231 0.10727 0.0
C766 C 0.88605 0.53156 0.08005 0.0
C767 C 0.9183 0.53914 0.05777 0.0
H768 H 0.8898 0.51645 0.12446 0.0
H769 H 0.19987 0.59266 0.91527 0.0
H770 H 0.22245 0.50454 0.45415 0.0
H771 H 0.17122 0.52983 0.43974 0.0
H772 H 0.10712 0.5319 0.5419 0.0
H773 H 0.15671 0.50703 0.55624 0.0
H774 H 0.05521 0.53564 0.43741 0.0
H775 H 0.06685 0.56521 0.5656 0.0
H776 H 0.14191 0.5686 0.6093 0.0
H777 H 0.27681 0.55982 0.5367 0.0
H778 H 0.20252 0.55659 0.49238 0.0
H779 H 0.84119 0.59869 0.51556 0.0
H780 H 0.90174 0.57435 0.51221 0.0
H781 H 0.96489 0.58842 0.41564 0.0
H782 H 0.90697 0.61283 0.41925 0.0
H783 H 1.0268 0.57868 0.50907 0.0
H784 H 1.01848 0.55297 0.37932 0.0
H785 H 0.94608 0.55022 0.33337 0.0
H786 H 0.81015 0.55253 0.40604 0.0
H787 H 0.88185 0.55507 0.45247 0.0
C788 C 0.19904 0.5106 0.47385 0.0
C789 C 0.19285 0.5036 0.50613 0.0
C790 C 0.1698 0.52502 0.46555 0.0
C791 C 0.13494 0.53269 0.48963 0.0
C792 C 0.13438 0.52632 0.52298 0.0
C793 C 0.16329 0.51198 0.53123 0.0
C794 C 0.09144 0.54609 0.47914 0.0
C795 C 0.04988 0.54524 0.45252 0.0
C796 C 0.08401 0.5585 0.49915 0.0
C797 C 0.12899 0.56059 0.52565 0.0
C798 C 0.11245 0.5641 0.55885 0.0
C799 C 0.1549 0.56597 0.58377 0.0
C800 C 0.2141 0.5644 0.5758 0.0
C801 C 0.23096 0.56099 0.54287 0.0
C802 C 0.18869 0.55911 0.51785 0.0
C803 C 0.86612 0.59644 0.49294 0.0
C804 C 0.87103 0.60788 0.46844 0.0
C805 C 0.90054 0.58253 0.49104 0.0
C806 C 0.93856 0.57982 0.46407 0.0
C807 C 0.93587 0.59039 0.4367 0.0
C808 C 0.90217 0.60437 0.4388 0.0
C809 C 0.98979 0.56782 0.46853 0.0
C810 C 1.03286 0.56912 0.49378 0.0
C811 C 0.99901 0.55602 0.44691 0.0
C812 C 0.95545 0.55441 0.41928 0.0
C813 C 0.97316 0.55286 0.3855 0.0
C814 C 0.93224 0.55134 0.35937 0.0
C815 C 0.8735 0.55127 0.36676 0.0
C816 C 0.8556 0.55267 0.40032 0.0
C817 C 0.89634 0.55419 0.42654 0.0
H818 H 0.84189 0.55008 0.3465 0.0
H819 H 0.2469 0.56585 0.59513 0.0
H820 H 0.52272 0.98459 0.0292 0.0
H821 H 0.4961 1.01149 0.03052 0.0
H822 H 0.67298 1.01591 0.00921 0.0
H823 H 0.69983 0.98884 0.00883 0.0
H824 H 0.6483 1.04159 0.03106 0.0
H825 H 0.49277 1.03058 0.95665 0.0
H826 H 0.40921 1.01862 0.94004 0.0
H827 H 0.31875 1.03392 0.0287 0.0
H828 H 0.40201 1.04588 0.04591 0.0
H829 H 0.56972 0.12496 0.00892 0.0
H830 H 0.59629 0.09804 0.00775 0.0
H831 H 0.42025 0.09362 0.03112 0.0
H832 H 0.39348 0.1207 0.03152 0.0
H833 H 0.44448 0.06795 0.00823 0.0
H834 H 0.59989 0.07918 0.08228 0.0
H835 H 0.68346 0.09117 0.09869 0.0
H836 H 0.77423 0.0755 0.01044 0.0
H837 H 0.69096 0.06351 -0.00658 0.0
C838 C 0.55738 0.99089 0.02448 0.0
C839 C 0.61531 0.98254 0.0187 0.0
C840 C 0.54112 1.00731 0.02482 0.0
C841 C 0.57998 1.01808 0.01907 0.0
C842 C 0.6381 1.00966 0.01373 0.0
C843 C 0.6544 0.99323 0.01344 0.0
C844 C 0.56184 1.03695 0.01904 0.0
C845 C 0.60301 1.04687 0.02552 0.0
C846 C 0.50345 1.04618 0.01273 0.0
C847 C 0.45377 1.03896 0.00273 0.0
C848 C 0.45513 1.03132 0.97264 0.0
C849 C 0.40784 1.02455 0.96313 0.0
C850 C 0.35879 1.02547 0.98336 0.0
C851 C 0.35684 1.03319 0.0131 0.0
C852 C 0.40404 1.03997 0.02275 0.0
C853 C 0.53525 0.11865 0.01415 0.0
C854 C 0.47758 0.12699 0.02054 0.0
C855 C 0.55149 0.10223 0.01388 0.0
C856 C 0.51282 0.09146 0.0202 0.0
C857 C 0.45494 0.09988 0.02612 0.0
C858 C 0.4387 0.11631 0.02643 0.0
C859 C 0.53094 0.07259 0.02024 0.0
C860 C 0.48976 0.06267 0.01376 0.0
C861 C 0.58934 0.06337 0.02652 0.0
C862 C 0.63904 0.07061 0.03641 0.0
C863 C 0.63759 0.07836 0.06632 0.0
C864 C 0.68489 0.08515 0.07573 0.0
C865 C 0.73404 0.08414 0.05556 0.0
C866 C 0.73607 0.0763 0.02599 0.0
C867 C 0.68886 0.06951 0.01645 0.0
H868 H 0.77061 0.0894 0.06288 0.0
H869 H 0.32223 1.02022 0.97596 0.0
H870 H 0.38172 0.09524 0.43277 0.0
H871 H 0.43874 0.07441 0.40667 0.0
H872 H 0.53265 0.10388 0.35049 0.0
H873 H 0.47805 0.1247 0.37791 0.0
H874 H 0.49019 0.06123 0.35175 0.0
H875 H 0.66836 0.09386 0.37058 0.0
H876 H 0.68472 0.11731 0.39354 0.0
H877 H 0.56686 0.11172 0.4739 0.0
H878 H 0.55013 0.08823 0.45143 0.0
H879 H 0.71426 0.99995 0.40369 0.0
H880 H 0.68431 1.02366 0.37076 0.0
H881 H 0.6293 1.04417 0.46329 0.0
H882 H 0.65633 1.02076 0.49587 0.0
H883 H 0.67495 0.06302 0.4189 0.0
H884 H 0.53391 1.02806 0.41769 0.0
H885 H 0.50789 1.00426 0.40293 0.0
H886 H 0.54144 1.01375 0.29746 0.0
H887 H 0.56841 1.03754 0.31178 0.0
C888 C 0.41281 0.09737 0.41379 0.0
C889 C 0.42735 0.11149 0.40869 0.0
C890 C 0.44506 0.08544 0.39853 0.0
C891 C 0.49166 0.08756 0.37776 0.0
C892 C 0.49778 0.102 0.36713 0.0
C893 C 0.46615 0.11394 0.38281 0.0
C894 C 0.54186 0.07519 0.37677 0.0
C895 C 0.53163 0.0617 0.36521 0.0
C896 C 0.59583 0.07573 0.39469 0.0
C897 C 0.60797 0.08939 0.40931 0.0
C898 C 0.64638 0.09761 0.39329 0.0
C899 C 0.65556 0.11091 0.40615 0.0
C900 C 0.62679 0.11601 0.43513 0.0
C901 C 0.58911 0.10776 0.45147 0.0
C902 C 0.57986 0.09446 0.43874 0.0
C903 C 0.69667 1.00957 0.41712 0.0
C904 C 0.6867 1.00831 0.45244 0.0
C905 C 0.6801 1.02312 0.39826 0.0
C906 C 0.65402 1.0356 0.41455 0.0
C907 C 0.64965 1.03468 0.45021 0.0
C908 C 0.66548 1.02119 0.46894 0.0
C909 C 0.62228 1.049 0.39497 0.0
C910 C 0.63578 0.06268 0.40302 0.0
C911 C 0.57092 1.04856 0.37449 0.0
C912 C 0.55369 1.03445 0.36582 0.0
C913 C 0.5359 1.02502 0.39139 0.0
C914 C 0.52104 1.01155 0.38312 0.0
C915 C 0.52315 1.00748 0.34929 0.0
C916 C 0.53996 1.0169 0.32365 0.0
C917 C 0.55507 1.03037 0.33183 0.0
H918 H 0.51164 0.99703 0.34292 0.0
H919 H 0.63371 0.12634 0.44493 0.0
H920 H 0.31418 0.37469 0.01471 0.0
H921 H 0.34379 0.34779 0.01403 0.0
H922 H 0.16461 0.3425 0.02482 0.0
H923 H 0.13499 0.36954 0.02505 0.0
H924 H 0.19832 0.31751 -0.00191 0.0
H925 H 0.44845 0.31226 0.01336 0.0
H926 H 0.5245 0.32419 0.04037 0.0
H927 H 0.40135 0.34254 0.11277 0.0
H928 H 0.32516 0.3303 0.08699 0.0
H929 H 0.27739 0.23427 0.025 0.0
H930 H 0.24803 0.26121 0.02533 0.0
H931 H 0.42769 0.26628 0.01593 0.0
H932 H 0.45703 0.23923 0.01595 0.0
H933 H 0.39424 0.29146 0.04148 0.0
H934 H 0.14081 0.2978 0.02106 0.0
H935 H 0.0659 0.28691 -0.00996 0.0
H936 H 0.19705 0.2665 0.92446 0.0
H937 H 0.27209 0.278 0.95368 0.0
C938 C 0.27964 0.36817 0.01724 0.0
C939 C 0.22018 0.37618 0.02023 0.0
C940 C 0.29759 0.35182 0.01718 0.0
C941 C 0.25891 0.3409 0.02019 0.0
C942 C 0.19931 0.34898 0.0226 0.0
C943 C 0.18138 0.36534 0.02282 0.0
C944 C 0.27889 0.32216 0.02048 0.0
C945 C 0.24143 0.31222 0.00839 0.0
C946 C 0.33552 0.31315 0.0323 0.0
C947 C 0.38086 0.32055 0.04788 0.0
C948 C 0.43762 0.31882 0.03507 0.0
C949 C 0.48075 0.32564 0.05017 0.0
C950 C 0.46756 0.33427 0.07798 0.0
C951 C 0.4114 0.33594 0.09107 0.0
C952 C 0.36829 0.32902 0.07631 0.0
C953 C 0.3121 0.24075 0.02273 0.0
C954 C 0.37159 0.23267 0.0202 0.0
C955 C 0.29431 0.25711 0.02261 0.0
C956 C 0.33322 0.26799 0.01988 0.0
C957 C 0.39283 0.25984 0.01791 0.0
C958 C 0.4106 0.24348 0.01785 0.0
C959 C 0.31335 0.28674 0.01944 0.0
C960 C 0.3509 0.29669 0.03141 0.0
C961 C 0.25691 0.29577 0.00723 0.0
C962 C 0.21245 0.28851 -0.00987 0.0
C963 C 0.15375 0.29099 4e-05 0.0
C964 C 0.11118 0.28475 0.98267 0.0
C965 C 0.12689 0.2758 0.95571 0.0
C966 C 0.18503 0.27331 0.94559 0.0
C967 C 0.22754 0.27977 0.96241 0.0
H968 H 0.09391 0.27091 0.94247 0.0
H969 H 0.50096 0.33958 0.08952 0.0
H970 H 0.81465 0.87539 0.01294 0.0
H971 H 0.84476 0.84854 0.01325 0.0
H972 H 0.66517 0.84319 0.02161 0.0
H973 H 0.63545 0.87021 0.02213 0.0
H974 H 0.70637 0.81684 0.04295 0.0
H975 H 0.80391 0.83377 0.9452 0.0
H976 H 0.87092 0.84728 0.91353 0.0
H977 H 1.01532 0.82705 0.98197 0.0
H978 H 0.94905 0.81358 0.01437 0.0
H979 H 0.7767 0.73503 0.01987 0.0
H980 H 0.74769 0.76195 0.01913 0.0
H981 H 0.92819 0.76678 0.01302 0.0
H982 H 0.95697 0.73971 0.01305 0.0
H983 H 0.88729 0.79339 -0.00971 0.0
H984 H 0.79056 0.77702 0.0886 0.0
H985 H 0.72464 0.76327 0.12047 0.0
H986 H 0.58 0.78239 0.05093 0.0
H987 H 0.64525 0.79616 0.01851 0.0
C988 C 0.78004 0.86889 0.01462 0.0
C989 C 0.72055 0.87689 0.01727 0.0
C990 C 0.79811 0.85255 0.01441 0.0
C991 C 0.75939 0.84162 0.01648 0.0
C992 C 0.69989 0.84967 0.01958 0.0
C993 C 0.68184 0.86603 0.01984 0.0
C994 C 0.77935 0.82288 0.016 0.0
C995 C 0.74614 0.81222 0.0307 0.0
C996 C 0.83172 0.81455 0.00138 0.0
C997 C 0.87137 0.8228 0.98244 0.0
C998 C 0.84987 0.83228 0.95363 0.0
C999 C 0.88771 0.83993 0.93555 0.0
C1000 C 0.94727 0.83804 0.94578 0.0
C1001 C 0.96914 0.82852 0.97415 0.0
C1002 C 0.93145 0.8209 -0.0076 0.0
C1003 C 0.81176 0.74144 0.01853 0.0
C1004 C 0.87122 0.73327 0.01671 0.0
C1005 C 0.79433 0.75781 0.0185 0.0
C1006 C 0.83363 0.76862 0.0169 0.0
C1007 C 0.89307 0.7604 0.01461 0.0
C1008 C 0.91054 0.74402 0.01468 0.0
C1009 C 0.81419 0.78738 0.01719 0.0
C1010 C 0.8475 0.79803 0.00249 0.0
C1011 C 0.76201 0.79573 0.03181 0.0
C1012 C 0.72285 0.78747 0.05096 0.0
C1013 C 0.74475 0.77822 0.08005 0.0
C1014 C 0.70752 0.77044 0.0982 0.0
C1015 C 0.64821 0.77192 0.08767 0.0
C1016 C 0.62598 0.78123 0.05901 0.0
C1017 C 0.66304 0.78902 0.04074 0.0
H1018 H 0.61946 0.76589 0.10175 0.0
H1019 H 0.97652 0.8439 0.93164 0.0
H1020 H 0.11084 0.77496 0.578 0.0
H1021 H 0.19364 0.78825 0.5767 0.0
H1022 H 0.17523 0.79337 0.46645 0.0
H1023 H 0.09203 0.78019 0.46754 0.0
H1024 H 0.28793 0.78542 0.48649 0.0
H1025 H 0.12821 0.82221 0.51633 0.0
H1026 H 1.04434 0.83315 0.54932 0.0
H1027 H 0.15734 0.82932 0.64002 0.0
H1028 H 0.24177 0.81817 0.60766 0.0
H1029 H 0.46364 0.84084 0.46072 0.0
H1030 H 0.38349 0.82665 0.46302 0.0
H1031 H 0.40589 0.82157 0.57315 0.0
H1032 H 0.4858 0.83588 0.57103 0.0
H1033 H 0.29242 0.82904 0.55414 0.0
H1034 H 0.45244 0.79269 0.52376 0.0
H1035 H 0.53637 0.782 0.49052 0.0
H1036 H 0.42269 0.78544 0.40019 0.0
H1037 H 0.33818 0.79634 0.4328 0.0
C1038 C 0.12389 0.77907 0.55348 0.0
C1039 C 0.09444 0.77658 0.52288 0.0
C1040 C 0.17137 0.78665 0.55278 0.0
C1041 C 0.19031 0.79198 0.5215 0.0
C1042 C 0.1615 0.78936 0.4909 0.0
C1043 C 0.11399 0.78178 0.49157 0.0
C1044 C 0.24043 0.80017 0.52067 0.0
C1045 C 0.28851 0.7951 0.50088 0.0
C1046 C 0.24195 0.81261 0.54006 0.0
C1047 C 0.19116 0.81919 0.55966 0.0
C1048 C 0.13506 0.82357 0.54339 0.0
C1049 C 0.08745 0.82983 0.56196 0.0
C1050 C 0.09547 0.83188 0.59677 0.0
C1051 C 0.15117 0.8277 0.61307 0.0
C1052 C 0.19892 0.82141 0.59462 0.0
C1053 C 0.45191 0.83657 0.48541 0.0
C1054 C 0.48127 0.83945 0.51569 0.0
C1055 C 0.40608 0.82845 0.48669 0.0
C1056 C 0.38906 0.82288 0.51824 0.0
C1057 C 0.41826 0.82574 0.54851 0.0
C1058 C 0.4638 0.83396 0.54727 0.0
C1059 C 0.33973 0.81442 0.5197 0.0
C1060 C 0.29183 0.81941 0.53965 0.0
C1061 C 0.33833 0.80196 0.50039 0.0
C1062 C 0.3891 0.79547 0.48065 0.0
C1063 C 0.44543 0.79129 0.49673 0.0
C1064 C 0.49309 0.78516 0.47802 0.0
C1065 C 0.4849 0.78308 0.44324 0.0
C1066 C 0.42899 0.78708 0.42712 0.0
C1067 C 0.38118 0.79322 0.44571 0.0
H1068 H 0.52185 0.77833 0.4288 0.0
H1069 H 0.05856 0.83675 0.61109 0.0
H1070 H 1.01687 0.31328 0.50546 0.0
H1071 H 0.93099 0.30108 0.50361 0.0
H1072 H 0.81793 0.3424 0.51894 0.0
H1073 H 0.90377 0.35468 0.52087 0.0
H1074 H 0.78766 0.32042 0.55837 0.0
H1075 H 0.82595 0.32819 0.43984 0.0
H1076 H 0.88618 0.32702 0.38893 0.0
H1077 H 0.92044 0.27969 0.40153 0.0
H1078 H 0.86106 0.28058 0.45283 0.0
H1079 H 0.52232 0.29379 0.51781 0.0
H1080 H 0.60246 0.30807 0.5173 0.0
H1081 H 0.7266 0.26859 0.50184 0.0
H1082 H 0.64734 0.25423 0.5029 0.0
H1083 H 0.74764 0.29097 0.46095 0.0
H1084 H 0.71311 0.28305 0.58025 0.0
H1085 H 0.65407 0.28392 0.63162 0.0
H1086 H 0.61407 0.3312 0.61819 0.0
H1087 H 0.67234 0.33061 0.56648 0.0
C1088 C 0.9737 0.3198 0.50815 0.0
C1089 C 0.96723 0.33496 0.51321 0.0
C1090 C 0.92459 0.31281 0.5071 0.0
C1091 C 0.86783 0.32085 0.51069 0.0
C1092 C 0.86125 0.33596 0.51612 0.0
C1093 C 0.9104 0.34295 0.51732 0.0
C1094 C 0.81553 0.31344 0.50909 0.0
C1095 C 0.77833 0.31419 0.53681 0.0
C1096 C 0.80396 0.30504 0.48128 0.0
C1097 C 0.83946 0.30446 0.45034 0.0
C1098 C 0.84668 0.31754 0.4319 0.0
C1099 C 0.88061 0.31692 0.40295 0.0
C1100 C 0.90723 0.30329 0.39204 0.0
C1101 C 0.89984 0.29024 0.41002 0.0
C1102 C 0.866 0.2908 0.43902 0.0
C1103 C 0.56677 0.28813 0.51456 0.0
C1104 C 0.57826 0.27285 0.51035 0.0
C1105 C 0.61254 0.29631 0.51423 0.0
C1106 C 0.67076 0.28937 0.50992 0.0
C1107 C 0.68215 0.27419 0.50524 0.0
C1108 C 0.63658 0.266 0.50563 0.0
C1109 C 0.7201 0.29783 0.51038 0.0
C1110 C 0.75672 0.29729 0.48242 0.0
C1111 C 0.7312 0.30638 0.53801 0.0
C1112 C 0.69637 0.30677 0.56918 0.0
C1113 C 0.69127 0.29363 0.58806 0.0
C1114 C 0.65805 0.29407 0.61729 0.0
C1115 C 0.63013 0.3076 0.62808 0.0
C1116 C 0.63557 0.32072 0.60974 0.0
C1117 C 0.6687 0.32034 0.58047 0.0
H1118 H 0.60444 0.30792 0.65073 0.0
H1119 H 0.93348 0.30284 0.36962 0.0
H1120 H 0.13829 0.40993 0.11968 0.0
H1121 H 0.1329 0.40614 0.18216 0.0
H1122 H 0.22201 0.44291 0.19594 0.0
H1123 H 0.22617 0.44688 0.13376 0.0
H1124 H 0.20577 0.39887 0.23537 0.0
H1125 H 0.18427 0.45997 0.26801 0.0
H1126 H 0.14404 0.48481 0.24173 0.0
H1127 H 1.02185 0.46665 0.17899 0.0
H1128 H 0.0608 0.44174 0.2052 0.0
H1129 H 0.24017 0.40111 0.42043 0.0
H1130 H 0.24993 0.40324 0.35784 0.0
H1131 H 0.07318 0.42792 0.34556 0.0
H1132 H 0.06409 0.42609 0.40742 0.0
H1133 H 0.13226 0.44084 0.30498 0.0
H1134 H 0.11893 0.38974 0.32377 0.0
H1135 H 0.14708 0.36428 0.34925 0.0
H1136 H 0.31848 0.36141 0.30814 0.0
H1137 H 0.29157 0.38694 0.28277 0.0
C1138 C 0.1565 0.41727 0.136 0.0
C1139 C 0.18235 0.4288 0.12124 0.0
C1140 C 0.15369 0.41504 0.172 0.0
C1141 C 0.17634 0.4243 0.19463 0.0
C1142 C 0.20288 0.43569 0.17974 0.0
C1143 C 0.20551 0.43795 0.14384 0.0
C1144 C 0.17182 0.42219 0.23342 0.0
C1145 C 0.18985 0.40811 0.25045 0.0
C1146 C 0.15015 0.43401 0.25394 0.0
C1147 C 0.12593 0.44897 0.23832 0.0
C1148 C 0.14868 0.46129 0.2487 0.0
C1149 C 0.12612 0.47538 0.2338 0.0
C1150 C 0.08057 0.4773 0.20862 0.0
C1151 C 0.05729 0.46514 0.1984 0.0
C1152 C 0.07963 0.45103 0.21324 0.0
C1153 C 0.20326 0.40688 0.40434 0.0
C1154 C 0.15127 0.41341 0.41943 0.0
C1155 C 0.20874 0.40809 0.36826 0.0
C1156 C 0.16221 0.41574 0.34602 0.0
C1157 C 0.11028 0.42205 0.36136 0.0
C1158 C 0.10497 0.42092 0.39713 0.0
C1159 C 0.16693 0.41755 0.30715 0.0
C1160 C 0.14874 0.43159 0.29003 0.0
C1161 C 0.1872 0.40563 0.28655 0.0
C1162 C 0.20345 0.3903 0.3017 0.0
C1163 C 0.16277 0.38371 0.32038 0.0
C1164 C 0.17847 0.36927 0.33476 0.0
C1165 C 0.23459 0.36125 0.3304 0.0
C1166 C 0.27507 0.36765 0.31155 0.0
C1167 C 0.2596 0.3821 0.29715 0.0
H1168 H 0.24667 0.35006 0.34155 0.0
H1169 H 0.06322 0.48821 0.19709 0.0
H1170 H 0.90121 0.70917 0.11476 0.0
H1171 H 0.89222 0.71219 0.17592 0.0
H1172 H 0.95297 0.66548 0.19691 0.0
H1173 H 0.95724 0.66235 0.13484 0.0
H1174 H 0.88551 0.67253 0.24386 0.0
H1175 H 1.04288 0.69569 0.20679 0.0
H1176 H 0.09397 0.71214 0.17154 0.0
H1177 H 0.974 0.74988 0.20083 0.0
H1178 H 0.92173 0.73364 0.23594 0.0
H1179 H 0.97002 0.68581 0.42036 0.0
H1180 H 0.97545 0.68019 0.35963 0.0
H1181 H 0.85298 0.72022 0.33129 0.0
H1182 H 0.8457 0.72557 0.39183 0.0
H1183 H 0.95801 0.71536 0.2901 0.0
H1184 H 0.80365 0.68985 0.32924 0.0
H1185 H 0.76296 0.67205 0.36676 0.0
H1186 H 0.89406 0.6368 0.33635 0.0
H1187 H 0.93616 0.65444 0.29902 0.0
C1188 C 0.91183 0.69947 0.13235 0.0
C1189 C 0.92979 0.68552 0.11959 0.0
C1190 C 0.90764 0.70124 0.16773 0.0
C1191 C 0.92417 0.68922 0.19217 0.0
C1192 C 0.94032 0.6751 0.17931 0.0
C1193 C 0.94268 0.67326 0.14357 0.0
C1194 C 0.92502 0.69154 0.2306 0.0
C1195 C 0.90233 0.68181 0.25372 0.0
C1196 C 0.94666 0.70361 0.24469 0.0
C1197 C 0.97808 0.71343 0.22374 0.0
C1198 C 1.0272 0.70749 0.20556 0.0
C1199 C 0.05638 0.71678 0.18562 0.0
C1200 C 1.03715 0.73204 0.18388 0.0
C1201 C 0.9888 0.73805 0.20217 0.0
C1202 C 0.95941 0.72881 0.22212 0.0
C1203 C 0.94403 0.6934 0.40124 0.0
C1204 C 0.90726 0.70616 0.41135 0.0
C1205 C 0.94712 0.69016 0.36635 0.0
C1206 C 0.91456 0.69973 0.34035 0.0
C1207 C 0.87868 0.71259 0.35045 0.0
C1208 C 0.8745 0.71564 0.3853 0.0
C1209 C 0.91791 0.69652 0.30277 0.0
C1210 C 0.9415 0.70608 0.27997 0.0
C1211 C 0.89878 0.6841 0.28926 0.0
C1212 C 0.8734 0.67349 0.31159 0.0
C1213 C 0.82416 0.67833 0.33079 0.0
C1214 C 0.80077 0.66827 0.35197 0.0
C1215 C 0.82595 0.65331 0.35394 0.0
C1216 C 0.87463 0.64839 0.33479 0.0
C1217 C 0.89824 0.65841 0.3136 0.0
H1218 H 0.80753 0.64553 0.37017 0.0
H1219 H 0.05979 0.73921 0.16841 0.0
H1220 H 0.85776 0.66391 0.9025 0.0
H1221 H 0.8552 0.66834 0.8402 0.0
H1222 H 0.94365 0.7054 0.8516 0.0
H1223 H 0.94718 0.70076 0.91424 0.0
H1224 H 0.80791 0.68795 0.79366 0.0
H1225 H 1.02501 0.71097 0.77878 0.0
H1226 H 0.1253 0.70818 0.80393 0.0
H1227 H 0.10781 0.6664 0.85352 0.0
H1228 H 1.00835 0.66866 0.82719 0.0
H1229 H 0.83361 0.71164 0.61365 0.0
H1230 H 0.82381 0.71049 0.67636 0.0
H1231 H 0.98071 0.67728 0.68832 0.0
H1232 H 0.99132 0.67874 0.62675 0.0
H1233 H 0.98903 0.69414 0.73446 0.0
H1234 H 0.82913 0.67106 0.69743 0.0
H1235 H 0.7364 0.66932 0.66601 0.0
H1236 H 0.64567 0.70567 0.71812 0.0
H1237 H 0.7381 0.70776 0.74951 0.0
C1238 C 0.87693 0.673 0.89187 0.0
C1239 C 0.90308 0.68188 0.91388 0.0
C1240 C 0.87506 0.67562 0.85588 0.0
C1241 C 0.89957 0.68718 0.84022 0.0
C1242 C 0.92508 0.69622 0.86229 0.0
C1243 C 0.927 0.69359 0.89841 0.0
C1244 C 0.89959 0.68941 0.80117 0.0
C1245 C 0.84767 0.6894 0.78091 0.0
C1246 C 0.95092 0.69114 0.78343 0.0
C1247 C 1.00897 0.69009 0.8014 0.0
C1248 C 1.0426 0.70121 0.79516 0.0
C1249 C 0.09962 0.69966 0.80947 0.0
C1250 C 0.12346 0.68709 0.83031 0.0
C1251 C 0.08982 0.67612 0.83723 0.0
C1252 C 1.03301 0.67751 0.82257 0.0
C1253 C 0.86603 0.70413 0.62972 0.0
C1254 C 0.91337 0.69531 0.61469 0.0
C1255 C 0.86018 0.70337 0.6658 0.0
C1256 C 0.90123 0.69367 0.68795 0.0
C1257 C 0.94824 0.68494 0.67261 0.0
C1258 C 0.95423 0.68577 0.63694 0.0
C1259 C 0.89767 0.69271 0.7269 0.0
C1260 C 0.94898 0.69293 0.74719 0.0
C1261 C 0.84614 0.69087 0.74443 0.0
C1262 C 0.79068 0.68968 0.72548 0.0
C1263 C 0.78952 0.67877 0.70196 0.0
C1264 C 0.737 0.67771 0.6842 0.0
C1265 C 0.68522 0.68741 0.68998 0.0
C1266 C 0.68584 0.69818 0.7136 0.0
C1267 C 0.73828 0.69931 0.73139 0.0
H1268 H 0.6446 0.68657 0.67622 0.0
H1269 H 0.16809 0.68582 0.84079 0.0
H1270 H 0.25221 0.39245 0.63976 0.0
H1271 H 0.24882 0.39768 0.70038 0.0
H1272 H 0.07655 0.4242 0.68136 0.0
H1273 H 0.0799 0.41891 0.62047 0.0
H1274 H 0.24378 0.42111 0.73673 0.0
H1275 H 0.99516 0.42245 0.75317 0.0
H1276 H 0.91362 0.41173 0.72839 0.0
H1277 H 1.03698 0.37481 0.69817 0.0
H1278 H 0.1191 0.38522 0.72315 0.0
H1279 H 0.17749 0.44419 0.90804 0.0
H1280 H 0.18129 0.44218 0.84551 0.0
H1281 H 0.13315 0.39908 0.85696 0.0
H1282 H 0.1278 0.40125 0.91846 0.0
H1283 H 0.0756 0.4114 0.80453 0.0
H1284 H 0.28067 0.40676 0.83898 0.0
H1285 H 0.36744 0.41471 0.86553 0.0
H1286 H 0.34048 0.45356 0.79689 0.0
H1287 H 0.25311 0.44593 0.77016 0.0
C1288 C 0.21346 0.39941 0.64837 0.0
C1289 C 0.16617 0.40514 0.62486 0.0
C1290 C 0.21169 0.40248 0.6833 0.0
C1291 C 0.16226 0.41129 0.69631 0.0
C1292 C 0.11515 0.41721 0.67268 0.0
C1293 C 0.1171 0.4142 0.6376 0.0
C1294 C 0.15987 0.41394 0.73443 0.0
C1295 C 0.20666 0.41906 0.75138 0.0
C1296 C 0.11236 0.41112 0.75448 0.0
C1297 C 0.06326 0.40472 0.73965 0.0
C1298 C 1.00483 0.41204 0.7413 0.0
C1299 C 0.95853 0.40601 0.72722 0.0
C1300 C 0.97013 0.39263 0.7116 0.0
C1301 C 1.02806 0.38521 0.71015 0.0
C1302 C 0.07449 0.39117 0.72422 0.0
C1303 C 0.16804 0.43427 0.8972 0.0
C1304 C 0.15221 0.42291 0.91872 0.0
C1305 C 0.17038 0.43306 0.8612 0.0
C1306 C 0.15776 0.42038 0.84561 0.0
C1307 C 0.14268 0.40907 0.86745 0.0
C1308 C 0.13994 0.41031 0.90305 0.0
C1309 C 0.15935 0.41869 0.807 0.0
C1310 C 0.11243 0.41367 0.7899 0.0
C1311 C 0.20729 0.42133 0.78701 0.0
C1312 C 0.26005 0.42585 0.80281 0.0
C1313 C 0.29307 0.41704 0.82968 0.0
C1314 C 0.34236 0.42148 0.84476 0.0
C1315 C 0.35935 0.43465 0.83299 0.0
C1316 C 0.32721 0.44338 0.80602 0.0
C1317 C 0.27783 0.43899 0.79088 0.0
H1318 H 0.3975 0.43807 0.84471 0.0
H1319 H 0.93424 0.38799 0.7007 0.0
H1320 H 0.68159 0.9538 0.12721 0.0
H1321 H 0.67641 0.95098 0.18944 0.0
H1322 H 0.6728 0.90459 0.18297 0.0
H1323 H 0.67355 0.90774 0.12026 0.0
H1324 H 0.61068 0.9116 0.23128 0.0
H1325 H 0.80261 0.92144 0.21169 0.0
H1326 H 0.8788 0.93449 0.18847 0.0
H1327 H 0.80717 0.97303 0.23985 0.0
H1328 H 0.73007 0.96027 0.26305 0.0
H1329 H 0.69408 0.89863 0.41533 0.0
H1330 H 0.703 0.899 0.3525 0.0
H1331 H 0.62985 0.94538 0.34404 0.0
H1332 H 0.61893 0.94496 0.40595 0.0
H1333 H 0.73731 0.93641 0.30485 0.0
H1334 H 0.54329 0.92442 0.32319 0.0
H1335 H 0.4756 0.90918 0.34819 0.0
H1336 H 0.56542 0.87139 0.30053 0.0
H1337 H 0.63424 0.88639 0.27565 0.0
C1338 C 0.67939 0.943 0.13902 0.0
C1339 C 0.67828 0.93101 0.11848 0.0
C1340 C 0.67718 0.94131 0.17496 0.0
C1341 C 0.67619 0.92742 0.19199 0.0
C1342 C 0.67389 0.91546 0.17124 0.0
C1343 C 0.67445 0.91725 0.13512 0.0
C1344 C 0.67712 0.92544 0.23101 0.0
C1345 C 0.63933 0.91688 0.24706 0.0
C1346 C 0.71399 0.93221 0.25271 0.0
C1347 C 0.76023 0.93994 0.23884 0.0
C1348 C 0.80288 0.93273 0.21786 0.0
C1349 C 0.84625 0.94007 0.20472 0.0
C1350 C 0.84773 0.95459 0.21261 0.0
C1351 C 0.80592 0.96179 0.23373 0.0
C1352 C 0.7624 0.9545 0.2469 0.0
C1353 C 0.68022 0.90891 0.40006 0.0
C1354 C 0.65579 0.92175 0.41597 0.0
C1355 C 0.68512 0.90911 0.36404 0.0
C1356 C 0.66706 0.92224 0.34312 0.0
C1357 C 0.64423 0.9351 0.35923 0.0
C1358 C 0.63793 0.93482 0.39486 0.0
C1359 C 0.67081 0.92276 0.30454 0.0
C1360 C 0.70931 0.93106 0.28874 0.0
C1361 C 0.63593 0.91544 0.28319 0.0
C1362 C 0.59432 0.90648 0.29791 0.0
C1363 C 0.54895 0.91283 0.31831 0.0
C1364 C 0.51031 0.90424 0.3324 0.0
C1365 C 0.51632 0.88931 0.32605 0.0
C1366 C 0.56088 0.88295 0.30548 0.0
C1367 C 0.59969 0.89149 0.29137 0.0
H1368 H 0.48636 0.88268 0.33698 0.0
H1369 H 0.88134 0.96025 0.20241 0.0
H1370 H 0.38667 0.16769 0.12688 0.0
H1371 H 0.3825 0.16799 0.18986 0.0
H1372 H 0.50423 0.19849 0.19043 0.0
H1373 H 0.50761 0.19845 0.12824 0.0
H1374 H 0.53437 0.17634 0.24194 0.0
H1375 H 0.35695 0.20975 0.19924 0.0
H1376 H 0.26143 0.21593 0.16684 0.0
H1377 H 0.19447 0.18298 0.22832 0.0
H1378 H 0.28996 0.17643 0.2607 0.0
H1379 H 0.51847 0.2047 0.40632 0.0
H1380 H 0.51601 0.2009 0.34497 0.0
H1381 H 0.3701 0.17783 0.35729 0.0
H1382 H 0.37112 0.1822 0.41866 0.0
H1383 H 0.34954 0.19344 0.29983 0.0
H1384 H 0.51676 0.15955 0.34293 0.0
H1385 H 0.61078 0.15041 0.37527 0.0
H1386 H 0.69531 0.18009 0.31407 0.0
H1387 H 0.60157 0.18953 0.28156 0.0
C1388 C 0.41255 0.17444 0.14044 0.0
C1389 C 0.44749 0.18304 0.12206 0.0
C1390 C 0.41006 0.17465 0.17661 0.0
C1391 C 0.44301 0.18331 0.19551 0.0
C1392 C 0.4784 0.19167 0.17704 0.0
C1393 C 0.48014 0.19165 0.14113 0.0
C1394 C 0.4411 0.18392 0.23422 0.0
C1395 C 0.4939 0.18023 0.25444 0.0
C1396 C 0.38834 0.18842 0.25137 0.0
C1397 C 0.33079 0.1925 0.23216 0.0
C1398 C 0.32201 0.20375 0.20568 0.0
C1399 C 0.26785 0.20732 0.18733 0.0
C1400 C 0.22196 0.19983 0.19547 0.0
C1401 C 0.23009 0.18876 0.22201 0.0
C1402 C 0.2842 0.18512 0.24037 0.0
C1403 C 0.48591 0.19876 0.39608 0.0
C1404 C 0.44573 0.19353 0.41795 0.0
C1405 C 0.48472 0.19648 0.36073 0.0
C1406 C 0.44359 0.18876 0.34576 0.0
C1407 C 0.40274 0.18372 0.36759 0.0
C1408 C 0.40378 0.18607 0.40302 0.0
C1409 C 0.44319 0.18617 0.3076 0.0
C1410 C 0.39005 0.18948 0.28747 0.0
C1411 C 0.49546 0.18094 0.29056 0.0
C1412 C 0.55199 0.17535 0.31001 0.0
C1413 C 0.55529 0.16421 0.33653 0.0
C1414 C 0.60855 0.15896 0.35486 0.0
C1415 C 0.65895 0.1647 0.34679 0.0
C1416 C 0.65621 0.17567 0.32031 0.0
C1417 C 0.60304 0.18096 0.30188 0.0
H1418 H 0.70015 0.16062 0.36102 0.0
H1419 H 0.18003 0.20262 0.18131 0.0
H1420 H 0.37137 0.16028 0.90888 0.0
H1421 H 0.38111 0.16296 0.84683 0.0
H1422 H 0.45433 0.20242 0.85865 0.0
H1423 H 0.44597 0.1995 0.92098 0.0
H1424 H 0.33659 0.18115 0.79714 0.0
H1425 H 0.54343 0.2085 0.79363 0.0
H1426 H 0.63264 0.20928 0.82958 0.0
H1427 H 0.62448 0.16642 0.87631 0.0
H1428 H 0.53574 0.1653 0.84033 0.0
H1429 H 0.37056 0.20375 0.62092 0.0
H1430 H 0.36092 0.20354 0.68335 0.0
H1431 H 0.52237 0.17199 0.69789 0.0
H1432 H 0.53263 0.17248 0.63592 0.0
H1433 H 0.52264 0.18949 0.74622 0.0
H1434 H 0.37671 0.16288 0.70438 0.0
H1435 H 0.29075 0.15916 0.66892 0.0
H1436 H 0.1834 0.19542 0.7133 0.0
H1437 H 0.26896 0.19946 0.74873 0.0
C1438 C 0.38981 0.16952 0.89836 0.0
C1439 C 0.40806 0.17962 0.92033 0.0
C1440 C 0.39515 0.1711 0.86256 0.0
C1441 C 0.41909 0.18283 0.84722 0.0
C1442 C 0.43678 0.19305 0.86922 0.0
C1443 C 0.43172 0.19142 0.90513 0.0
C1444 C 0.4254 0.18424 0.80853 0.0
C1445 C 0.37736 0.18306 0.78622 0.0
C1446 C 0.47853 0.18649 0.79334 0.0
C1447 C 0.5326 0.1869 0.81454 0.0
C1448 C 0.56086 0.19922 0.81147 0.0
C1449 C 0.6113 0.19972 0.83187 0.0
C1450 C 0.63408 0.18793 0.85531 0.0
C1451 C 0.60667 0.17557 0.85825 0.0
C1452 C 0.55629 0.175 0.83787 0.0
C1453 C 0.40423 0.19685 0.63742 0.0
C1454 C 0.4523 0.18809 0.62297 0.0
C1455 C 0.39849 0.19663 0.67337 0.0
C1456 C 0.44038 0.18755 0.69615 0.0
C1457 C 0.48909 0.17912 0.68157 0.0
C1458 C 0.49487 0.17937 0.64578 0.0
C1459 C 0.4336 0.18657 0.73482 0.0
C1460 C 0.48165 0.18776 0.75714 0.0
C1461 C 0.38088 0.18401 0.75004 0.0
C1462 C 0.32935 0.18157 0.72892 0.0
C1463 C 0.33485 0.17012 0.7064 0.0
C1464 C 0.2862 0.16795 0.68634 0.0
C1465 C 0.23169 0.17708 0.68878 0.0
C1466 C 0.22568 0.18837 0.71139 0.0
C1467 C 0.27422 0.1906 0.73148 0.0
H1468 H 0.19407 0.17538 0.67322 0.0
H1469 H 0.67304 0.18836 0.87115 0.0
H1470 H 0.58326 0.92546 0.61934 0.0
H1471 H 0.58218 0.92907 0.68109 0.0
H1472 H 0.76049 0.9053 0.69389 0.0
H1473 H 0.76058 0.90124 0.63281 0.0
H1474 H 0.71002 0.8969 0.74433 0.0
H1475 H 0.7155 0.94536 0.69693 0.0
H1476 H 0.68378 0.96808 0.65976 0.0
H1477 H 0.51726 0.97535 0.70733 0.0
H1478 H 0.54769 0.95255 0.74448 0.0
H1479 H 0.70205 0.94322 0.90957 0.0
H1480 H 0.71003 0.94212 0.84691 0.0
H1481 H 0.61904 0.90504 0.8492 0.0
H1482 H 0.61224 0.90589 0.91092 0.0
H1483 H 0.63514 0.94493 0.79179 0.0
H1484 H 0.66635 0.88095 0.79128 0.0
H1485 H 0.70993 0.85917 0.82906 0.0
H1486 H 0.82548 0.88441 0.87738 0.0
H1487 H 0.78353 0.90627 0.83943 0.0
C1488 C 0.62226 0.92104 0.63533 0.0
C1489 C 0.67197 0.91303 0.62082 0.0
C1490 C 0.62186 0.9232 0.67085 0.0
C1491 C 0.67157 0.91764 0.69294 0.0
C1492 C 0.72121 0.90971 0.67814 0.0
C1493 C 0.72134 0.90743 0.64287 0.0
C1494 C 0.67196 0.91967 0.7313 0.0
C1495 C 0.69347 0.90745 0.75442 0.0
C1496 C 0.65207 0.93344 0.74543 0.0
C1497 C 0.63367 0.94718 0.72325 0.0
C1498 C 0.67196 0.95175 0.6993 0.0
C1499 C 0.65424 0.96465 0.67826 0.0
C1500 C 0.59848 0.97313 0.68112 0.0
C1501 C 0.5604 0.96876 0.7051 0.0
C1502 C 0.57788 0.95585 0.72618 0.0
C1503 C 0.68397 0.93482 0.89665 0.0
C1504 C 0.65677 0.92461 0.91564 0.0
C1505 C 0.68829 0.93422 0.86068 0.0
C1506 C 0.66588 0.92334 0.84278 0.0
C1507 C 0.63793 0.91337 0.86189 0.0
C1508 C 0.63386 0.91392 0.89751 0.0
C1509 C 0.67175 0.92209 0.80448 0.0
C1510 C 0.65157 0.93441 0.7815 0.0
C1511 C 0.69452 0.90851 0.79038 0.0
C1512 C 0.72133 0.89529 0.81266 0.0
C1513 C 0.70136 0.88183 0.80977 0.0
C1514 C 0.72577 0.86947 0.83124 0.0
C1515 C 0.77036 0.87042 0.85563 0.0
C1516 C 0.79092 0.8837 0.85849 0.0
C1517 C 0.76681 0.89608 0.837 0.0
H1518 H 0.78898 0.86085 0.8723 0.0
H1519 H 0.58484 0.98312 0.6648 0.0
loop_
_geom_bond_atom_site_label_1
_geom_bond_atom_site_label_2
_geom_bond_distance
_geom_bond_site_symmetry_2
_ccdc_geom_bond_type
Tb0 C2 2.809 1_455 S
Tb0 O20 2.484 1_455 S
Tb0 O21 2.440 1_454 S
Tb0 O22 2.658 1_554 S
Tb0 O23 2.409 1_554 S
Tb0 O24 2.378 1_454 S
Tb0 O28 2.325 . S
Tb0 O31 2.341 . S
Tb1 C11 2.809 . S
Tb1 O22 2.325 1_554 S
Tb1 O25 2.341 . S
Tb1 O26 2.484 1_554 S
Tb1 O27 2.440 . S
Tb1 O28 2.658 . S
Tb1 O29 2.409 . S
Tb1 O30 2.378 . S
C2 Tb0 2.809 1_655 S
C2 C3 1.514 . S
C2 O20 1.248 . S
C2 O21 1.266 1_554 S
C3 C2 1.514 . S
C3 C4 1.359 . S
C3 C8 1.348 1_554 S
C4 C3 1.359 . S
C4 C5 1.380 . S
C4 H32 0.929 . S
C5 C4 1.380 . S
C5 C6 1.347 . S
C5 H33 0.931 . S
C6 C5 1.347 . S
C6 C7 1.369 1_554 S
C7 C6 1.369 1_556 S
C7 C8 1.408 . S
C7 H34 0.930 . S
C8 C3 1.348 1_556 S
C8 C7 1.408 . S
C8 H35 0.930 . S
C9 O22 1.281 . S
C9 O23 1.254 . S
C10 O24 1.236 1_454 S
C10 O25 1.266 . S
C11 Tb1 2.809 . S
C11 C12 1.514 . S
C11 O26 1.248 1_554 S
C11 O27 1.266 . S
C12 C11 1.514 . S
C12 C13 1.359 1_554 S
C12 C17 1.348 . S
C13 C12 1.359 1_556 S
C13 C14 1.380 . S
C13 H36 0.929 . S
C14 C13 1.380 . S
C14 C15 1.347 1_556 S
C14 H37 0.931 . S
C15 C14 1.347 1_554 S
C15 C16 1.369 . S
C16 C15 1.369 . S
C16 C17 1.408 . S
C16 H38 0.930 . S
C17 C12 1.348 . S
C17 C16 1.408 . S
C17 H39 0.930 . S
C18 O28 1.281 . S
C18 O29 1.254 . S
C19 O30 1.236 . S
C19 O31 1.266 . S
O20 Tb0 2.484 1_655 S
O20 C2 1.248 . S
O21 Tb0 2.440 1_656 S
O21 C2 1.266 1_556 S
O22 Tb0 2.658 1_556 S
O22 Tb1 2.325 1_556 S
O22 C9 1.281 . S
O23 Tb0 2.409 1_556 S
O23 C9 1.254 . S
O24 Tb0 2.378 1_656 S
O24 C10 1.236 1_656 S
O25 Tb1 2.341 . S
O25 C10 1.266 . S
O26 Tb1 2.484 1_556 S
O26 C11 1.248 1_556 S
O27 Tb1 2.440 . S
O27 C11 1.266 . S
O28 Tb0 2.325 . S
O28 Tb1 2.658 . S
O28 C18 1.281 . S
O29 Tb1 2.409 . S
O29 C18 1.254 . S
O30 Tb1 2.378 . S
O30 C19 1.236 . S
O31 Tb0 2.341 . S
O31 C19 1.266 . S
H32 C4 0.929 . S
H33 C5 0.931 . S
H34 C7 0.930 . S
H35 C8 0.930 . S
H36 C13 0.929 . S
H37 C14 0.931 . S
H38 C16 0.930 . S
H39 C17 0.930 . S
Tb40 C42 2.809 . S
Tb40 O60 2.484 . S
Tb40 O61 2.440 1_554 S
Tb40 O62 2.658 1_554 S
Tb40 O63 2.409 1_554 S
Tb40 O64 2.378 1_554 S
Tb40 O68 2.325 . S
Tb40 O71 2.341 . S
Tb41 C51 2.809 1_655 S
Tb41 O62 2.325 1_554 S
Tb41 O65 2.341 . S
Tb41 O66 2.484 1_654 S
Tb41 O67 2.440 1_655 S
Tb41 O68 2.658 . S
Tb41 O69 2.409 . S
Tb41 O70 2.378 1_655 S
C42 Tb40 2.809 . S
C42 C43 1.514 . S
C42 O60 1.248 . S
C42 O61 1.266 1_554 S
C43 C42 1.514 . S
C43 C44 1.359 . S
C43 C48 1.348 1_554 S
C44 C43 1.359 . S
C44 C45 1.380 . S
C44 H72 0.929 . S
C45 C44 1.380 . S
C45 C46 1.347 . S
C45 H73 0.931 . S
C46 C45 1.347 . S
C46 C47 1.369 1_554 S
C47 C46 1.369 1_556 S
C47 C48 1.408 . S
C47 H74 0.930 . S
C48 C43 1.348 1_556 S
C48 C47 1.408 . S
C48 H75 0.930 . S
C49 O62 1.281 . S
C49 O63 1.254 . S
C50 O64 1.236 1_554 S
C50 O65 1.266 . S
C51 Tb41 2.809 1_455 S
C51 C52 1.514 . S
C51 O66 1.248 1_554 S
C51 O67 1.266 . S
C52 C51 1.514 . S
C52 C53 1.359 1_554 S
C52 C57 1.348 . S
C53 C52 1.359 1_556 S
C53 C54 1.380 . S
C53 H76 0.929 . S
C54 C53 1.380 . S
C54 C55 1.347 1_556 S
C54 H77 0.931 . S
C55 C54 1.347 1_554 S
C55 C56 1.369 . S
C56 C55 1.369 . S
C56 C57 1.408 . S
C56 H78 0.930 . S
C57 C52 1.348 . S
C57 C56 1.408 . S
C57 H79 0.930 . S
C58 O68 1.281 . S
C58 O69 1.254 . S
C59 O70 1.236 1_655 S
C59 O71 1.266 . S
O60 Tb40 2.484 . S
O60 C42 1.248 . S
O61 Tb40 2.440 1_556 S
O61 C42 1.266 1_556 S
O62 Tb40 2.658 1_556 S
O62 Tb41 2.325 1_556 S
O62 C49 1.281 . S
O63 Tb40 2.409 1_556 S
O63 C49 1.254 . S
O64 Tb40 2.378 1_556 S
O64 C50 1.236 1_556 S
O65 Tb41 2.341 . S
O65 C50 1.266 . S
O66 Tb41 2.484 1_456 S
O66 C51 1.248 1_556 S
O67 Tb41 2.440 1_455 S
O67 C51 1.266 . S
O68 Tb40 2.325 . S
O68 Tb41 2.658 . S
O68 C58 1.281 . S
O69 Tb41 2.409 . S
O69 C58 1.254 . S
O70 Tb41 2.378 1_455 S
O70 C59 1.236 1_455 S
O71 Tb40 2.341 . S
O71 C59 1.266 . S
H72 C44 0.929 . S
H73 C45 0.931 . S
H74 C47 0.930 . S
H75 C48 0.930 . S
H76 C53 0.929 . S
H77 C54 0.931 . S
H78 C56 0.930 . S
H79 C57 0.930 . S
Tb80 C82 2.809 . S
Tb80 O100 2.484 . S
Tb80 O101 2.440 . S
Tb80 O102 2.658 . S
Tb80 O103 2.409 . S
Tb80 O104 2.378 . S
Tb80 O108 2.325 . S
Tb80 O111 2.341 1_455 S
Tb81 C91 2.809 . S
Tb81 O102 2.325 . S
Tb81 O105 2.341 . S
Tb81 O106 2.484 . S
Tb81 O107 2.440 . S
Tb81 O108 2.658 . S
Tb81 O109 2.409 . S
Tb81 O110 2.378 1_455 S
C82 Tb80 2.809 . S
C82 C83 1.514 . S
C82 O100 1.248 . S
C82 O101 1.266 . S
C83 C82 1.514 . S
C83 C84 1.359 . S
C83 C88 1.348 . S
C84 C83 1.359 . S
C84 C85 1.380 . S
C84 H112 0.929 . S
C85 C84 1.380 . S
C85 C86 1.347 . S
C85 H113 0.931 . S
C86 C85 1.347 . S
C86 C87 1.369 . S
C87 C86 1.369 . S
C87 C88 1.408 . S
C87 H114 0.930 . S
C88 C83 1.348 . S
C88 C87 1.408 . S
C88 H115 0.930 . S
C89 O102 1.281 . S
C89 O103 1.254 . S
C90 O104 1.236 . S
C90 O105 1.266 . S
C91 Tb81 2.809 . S
C91 C92 1.514 1_455 S
C91 O106 1.248 . S
C91 O107 1.266 . S
C92 C91 1.514 1_655 S
C92 C93 1.359 . S
C92 C97 1.348 . S
C93 C92 1.359 . S
C93 C94 1.380 . S
C93 H116 0.929 . S
C94 C93 1.380 . S
C94 C95 1.347 . S
C94 H117 0.931 . S
C95 C94 1.347 . S
C95 C96 1.369 . S
C96 C95 1.369 . S
C96 C97 1.408 . S
C96 H118 0.930 . S
C97 C92 1.348 . S
C97 C96 1.408 . S
C97 H119 0.930 . S
C98 O108 1.281 . S
C98 O109 1.254 . S
C99 O110 1.236 . S
C99 O111 1.266 . S
O100 Tb80 2.484 . S
O100 C82 1.248 . S
O101 Tb80 2.440 . S
O101 C82 1.266 . S
O102 Tb80 2.658 . S
O102 Tb81 2.325 . S
O102 C89 1.281 . S
O103 Tb80 2.409 . S
O103 C89 1.254 . S
O104 Tb80 2.378 . S
O104 C90 1.236 . S
O105 Tb81 2.341 . S
O105 C90 1.266 . S
O106 Tb81 2.484 . S
O106 C91 1.248 . S
O107 Tb81 2.440 . S
O107 C91 1.266 . S
O108 Tb80 2.325 . S
O108 Tb81 2.658 . S
O108 C98 1.281 . S
O109 Tb81 2.409 . S
O109 C98 1.254 . S
O110 Tb81 2.378 1_655 S
O110 C99 1.236 . S
O111 Tb80 2.341 1_655 S
O111 C99 1.266 . S
H112 C84 0.929 . S
H113 C85 0.931 . S
H114 C87 0.930 . S
H115 C88 0.930 . S
H116 C93 0.929 . S
H117 C94 0.931 . S
H118 C96 0.930 . S
H119 C97 0.930 . S
Tb120 C122 2.809 . S
Tb120 O140 2.484 . S
Tb120 O141 2.440 . S
Tb120 O142 2.658 . S
Tb120 O143 2.409 . S
Tb120 O144 2.378 1_655 S
Tb120 O148 2.325 . S
Tb120 O151 2.341 . S
Tb121 C131 2.809 . S
Tb121 O142 2.325 . S
Tb121 O145 2.341 1_655 S
Tb121 O146 2.484 . S
Tb121 O147 2.440 . S
Tb121 O148 2.658 . S
Tb121 O149 2.409 . S
Tb121 O150 2.378 . S
C122 Tb120 2.809 . S
C122 C123 1.514 1_655 S
C122 O140 1.248 . S
C122 O141 1.266 . S
C123 C122 1.514 1_455 S
C123 C124 1.359 . S
C123 C128 1.348 . S
C124 C123 1.359 . S
C124 C125 1.380 . S
C124 H152 0.929 . S
C125 C124 1.380 . S
C125 C126 1.347 . S
C125 H153 0.931 . S
C126 C125 1.347 . S
C126 C127 1.369 . S
C127 C126 1.369 . S
C127 C128 1.408 . S
C127 H154 0.930 . S
C128 C123 1.348 . S
C128 C127 1.408 . S
C128 H155 0.930 . S
C129 O142 1.281 . S
C129 O143 1.254 . S
C130 O144 1.236 . S
C130 O145 1.266 . S
C131 Tb121 2.809 . S
C131 C132 1.514 . S
C131 O146 1.248 . S
C131 O147 1.266 . S
C132 C131 1.514 . S
C132 C133 1.359 . S
C132 C137 1.348 . S
C133 C132 1.359 . S
C133 C134 1.380 . S
C133 H156 0.929 . S
C134 C133 1.380 . S
C134 C135 1.347 . S
C134 H157 0.931 . S
C135 C134 1.347 . S
C135 C136 1.369 . S
C136 C135 1.369 . S
C136 C137 1.408 . S
C136 H158 0.930 . S
C137 C132 1.348 . S
C137 C136 1.408 . S
C137 H159 0.930 . S
C138 O148 1.281 . S
C138 O149 1.254 . S
C139 O150 1.236 . S
C139 O151 1.266 . S
O140 Tb120 2.484 . S
O140 C122 1.248 . S
O141 Tb120 2.440 . S
O141 C122 1.266 . S
O142 Tb120 2.658 . S
O142 Tb121 2.325 . S
O142 C129 1.281 . S
O143 Tb120 2.409 . S
O143 C129 1.254 . S
O144 Tb120 2.378 1_455 S
O144 C130 1.236 . S
O145 Tb121 2.341 1_455 S
O145 C130 1.266 . S
O146 Tb121 2.484 . S
O146 C131 1.248 . S
O147 Tb121 2.440 . S
O147 C131 1.266 . S
O148 Tb120 2.325 . S
O148 Tb121 2.658 . S
O148 C138 1.281 . S
O149 Tb121 2.409 . S
O149 C138 1.254 . S
O150 Tb121 2.378 . S
O150 C139 1.236 . S
O151 Tb120 2.341 . S
O151 C139 1.266 . S
H152 C124 0.929 . S
H153 C125 0.931 . S
H154 C127 0.930 . S
H155 C128 0.930 . S
H156 C133 0.929 . S
H157 C134 0.931 . S
H158 C136 0.930 . S
H159 C137 0.930 . S
Tb160 C162 2.809 . S
Tb160 O180 2.484 . S
Tb160 O181 2.440 1_554 S
Tb160 O182 2.658 1_554 S
Tb160 O183 2.409 1_554 S
Tb160 O184 2.378 1_554 S
Tb160 O188 2.325 . S
Tb160 O191 2.341 . S
Tb161 C171 2.809 . S
Tb161 O182 2.325 1_554 S
Tb161 O185 2.341 . S
Tb161 O186 2.484 1_554 S
Tb161 O187 2.440 . S
Tb161 O188 2.658 . S
Tb161 O189 2.409 . S
Tb161 O190 2.378 . S
C162 Tb160 2.809 . S
C162 C163 1.514 . S
C162 O180 1.248 . S
C162 O181 1.266 1_554 S
C163 C162 1.514 . S
C163 C164 1.359 . S
C163 C168 1.348 1_554 S
C164 C163 1.359 . S
C164 C165 1.380 . S
C164 H192 0.929 . S
C165 C164 1.380 . S
C165 C166 1.347 . S
C165 H193 0.931 . S
C166 C165 1.347 . S
C166 C167 1.369 1_554 S
C167 C166 1.369 1_556 S
C167 C168 1.408 . S
C167 H194 0.930 . S
C168 C163 1.348 1_556 S
C168 C167 1.408 . S
C168 H195 0.930 . S
C169 O182 1.281 . S
C169 O183 1.254 . S
C170 O184 1.236 1_554 S
C170 O185 1.266 . S
C171 Tb161 2.809 . S
C171 C172 1.514 . S
C171 O186 1.248 1_554 S
C171 O187 1.266 . S
C172 C171 1.514 . S
C172 C173 1.359 1_554 S
C172 C177 1.348 . S
C173 C172 1.359 1_556 S
C173 C174 1.380 . S
C173 H196 0.929 . S
C174 C173 1.380 . S
C174 C175 1.347 1_556 S
C174 H197 0.931 . S
C175 C174 1.347 1_554 S
C175 C176 1.369 . S
C176 C175 1.369 . S
C176 C177 1.408 . S
C176 H198 0.930 . S
C177 C172 1.348 . S
C177 C176 1.408 . S
C177 H199 0.930 . S
C178 O188 1.281 . S
C178 O189 1.254 . S
C179 O190 1.236 . S
C179 O191 1.266 . S
O180 Tb160 2.484 . S
O180 C162 1.248 . S
O181 Tb160 2.440 1_556 S
O181 C162 1.266 1_556 S
O182 Tb160 2.658 1_556 S
O182 Tb161 2.325 1_556 S
O182 C169 1.281 . S
O183 Tb160 2.409 1_556 S
O183 C169 1.254 . S
O184 Tb160 2.378 1_556 S
O184 C170 1.236 1_556 S
O185 Tb161 2.341 . S
O185 C170 1.266 . S
O186 Tb161 2.484 1_556 S
O186 C171 1.248 1_556 S
O187 Tb161 2.440 . S
O187 C171 1.266 . S
O188 Tb160 2.325 . S
O188 Tb161 2.658 . S
O188 C178 1.281 . S
O189 Tb161 2.409 . S
O189 C178 1.254 . S
O190 Tb161 2.378 . S
O190 C179 1.236 . S
O191 Tb160 2.341 . S
O191 C179 1.266 . S
H192 C164 0.929 . S
H193 C165 0.931 . S
H194 C167 0.930 . S
H195 C168 0.930 . S
H196 C173 0.929 . S
H197 C174 0.931 . S
H198 C176 0.930 . S
H199 C177 0.930 . S
Tb200 C202 2.809 . S
Tb200 O220 2.484 . S
Tb200 O221 2.440 1_554 S
Tb200 O222 2.658 1_554 S
Tb200 O223 2.409 1_554 S
Tb200 O224 2.378 1_554 S
Tb200 O228 2.325 . S
Tb200 O231 2.341 . S
Tb201 C211 2.809 . S
Tb201 O222 2.325 1_554 S
Tb201 O225 2.341 . S
Tb201 O226 2.484 1_554 S
Tb201 O227 2.440 . S
Tb201 O228 2.658 . S
Tb201 O229 2.409 . S
Tb201 O230 2.378 . S
C202 Tb200 2.809 . S
C202 C203 1.514 . S
C202 O220 1.248 . S
C202 O221 1.266 1_554 S
C203 C202 1.514 . S
C203 C204 1.359 . S
C203 C208 1.348 1_554 S
C204 C203 1.359 . S
C204 C205 1.380 . S
C204 H232 0.929 . S
C205 C204 1.380 . S
C205 C206 1.347 . S
C205 H233 0.931 . S
C206 C205 1.347 . S
C206 C207 1.369 1_554 S
C207 C206 1.369 1_556 S
C207 C208 1.408 . S
C207 H234 0.930 . S
C208 C203 1.348 1_556 S
C208 C207 1.408 . S
C208 H235 0.930 . S
C209 O222 1.281 . S
C209 O223 1.254 . S
C210 O224 1.236 1_554 S
C210 O225 1.266 . S
C211 Tb201 2.809 . S
C211 C212 1.514 . S
C211 O226 1.248 1_554 S
C211 O227 1.266 . S
C212 C211 1.514 . S
C212 C213 1.359 1_554 S
C212 C217 1.348 . S
C213 C212 1.359 1_556 S
C213 C214 1.380 . S
C213 H236 0.929 . S
C214 C213 1.380 . S
C214 C215 1.347 1_556 S
C214 H237 0.931 . S
C215 C214 1.347 1_554 S
C215 C216 1.369 . S
C216 C215 1.369 . S
C216 C217 1.408 . S
C216 H238 0.930 . S
C217 C212 1.348 . S
C217 C216 1.408 . S
C217 H239 0.930 . S
C218 O228 1.281 . S
C218 O229 1.254 . S
C219 O230 1.236 . S
C219 O231 1.266 . S
O220 Tb200 2.484 . S
O220 C202 1.248 . S
O221 Tb200 2.440 1_556 S
O221 C202 1.266 1_556 S
O222 Tb200 2.658 1_556 S
O222 Tb201 2.325 1_556 S
O222 C209 1.281 . S
O223 Tb200 2.409 1_556 S
O223 C209 1.254 . S
O224 Tb200 2.378 1_556 S
O224 C210 1.236 1_556 S
O225 Tb201 2.341 . S
O225 C210 1.266 . S
O226 Tb201 2.484 1_556 S
O226 C211 1.248 1_556 S
O227 Tb201 2.440 . S
O227 C211 1.266 . S
O228 Tb200 2.325 . S
O228 Tb201 2.658 . S
O228 C218 1.281 . S
O229 Tb201 2.409 . S
O229 C218 1.254 . S
O230 Tb201 2.378 . S
O230 C219 1.236 . S
O231 Tb200 2.341 . S
O231 C219 1.266 . S
H232 C204 0.929 . S
H233 C205 0.931 . S
H234 C207 0.930 . S
H235 C208 0.930 . S
H236 C213 0.929 . S
H237 C214 0.931 . S
H238 C216 0.930 . S
H239 C217 0.930 . S
Tb240 C242 2.809 . S
Tb240 O260 2.484 . S
Tb240 O261 2.440 . S
Tb240 O262 2.658 . S
Tb240 O263 2.409 . S
Tb240 O264 2.378 . S
Tb240 O268 2.325 . S
Tb240 O271 2.341 . S
Tb241 C251 2.809 . S
Tb241 O262 2.325 . S
Tb241 O265 2.341 . S
Tb241 O266 2.484 . S
Tb241 O267 2.440 . S
Tb241 O268 2.658 . S
Tb241 O269 2.409 . S
Tb241 O270 2.378 . S
C242 Tb240 2.809 . S
C242 C243 1.514 . S
C242 O260 1.248 . S
C242 O261 1.266 . S
C243 C242 1.514 . S
C243 C244 1.359 . S
C243 C248 1.348 . S
C244 C243 1.359 . S
C244 C245 1.380 . S
C244 H272 0.929 . S
C245 C244 1.380 . S
C245 C246 1.347 . S
C245 H273 0.931 . S
C246 C245 1.347 . S
C246 C247 1.369 . S
C247 C246 1.369 . S
C247 C248 1.408 . S
C247 H274 0.930 . S
C248 C243 1.348 . S
C248 C247 1.408 . S
C248 H275 0.930 . S
C249 O262 1.281 . S
C249 O263 1.254 . S
C250 O264 1.236 . S
C250 O265 1.266 . S
C251 Tb241 2.809 . S
C251 C252 1.514 . S
C251 O266 1.248 . S
C251 O267 1.266 . S
C252 C251 1.514 . S
C252 C253 1.359 . S
C252 C257 1.348 . S
C253 C252 1.359 . S
C253 C254 1.380 . S
C253 H276 0.929 . S
C254 C253 1.380 . S
C254 C255 1.347 . S
C254 H277 0.931 . S
C255 C254 1.347 . S
C255 C256 1.369 . S
C256 C255 1.369 . S
C256 C257 1.408 . S
C256 H278 0.930 . S
C257 C252 1.348 . S
C257 C256 1.408 . S
C257 H279 0.930 . S
C258 O268 1.281 . S
C258 O269 1.254 . S
C259 O270 1.236 . S
C259 O271 1.266 . S
O260 Tb240 2.484 . S
O260 C242 1.248 . S
O261 Tb240 2.440 . S
O261 C242 1.266 . S
O262 Tb240 2.658 . S
O262 Tb241 2.325 . S
O262 C249 1.281 . S
O263 Tb240 2.409 . S
O263 C249 1.254 . S
O264 Tb240 2.378 . S
O264 C250 1.236 . S
O265 Tb241 2.341 . S
O265 C250 1.266 . S
O266 Tb241 2.484 . S
O266 C251 1.248 . S
O267 Tb241 2.440 . S
O267 C251 1.266 . S
O268 Tb240 2.325 . S
O268 Tb241 2.658 . S
O268 C258 1.281 . S
O269 Tb241 2.409 . S
O269 C258 1.254 . S
O270 Tb241 2.378 . S
O270 C259 1.236 . S
O271 Tb240 2.341 . S
O271 C259 1.266 . S
H272 C244 0.929 . S
H273 C245 0.931 . S
H274 C247 0.930 . S
H275 C248 0.930 . S
H276 C253 0.929 . S
H277 C254 0.931 . S
H278 C256 0.930 . S
H279 C257 0.930 . S
Tb280 C282 2.809 . S
Tb280 O300 2.484 . S
Tb280 O301 2.440 . S
Tb280 O302 2.658 . S
Tb280 O303 2.409 . S
Tb280 O304 2.378 . S
Tb280 O308 2.325 . S
Tb280 O311 2.341 . S
Tb281 C291 2.809 . S
Tb281 O302 2.325 . S
Tb281 O305 2.341 . S
Tb281 O306 2.484 . S
Tb281 O307 2.440 . S
Tb281 O308 2.658 . S
Tb281 O309 2.409 . S
Tb281 O310 2.378 . S
C282 Tb280 2.809 . S
C282 C283 1.514 . S
C282 O300 1.248 . S
C282 O301 1.266 . S
C283 C282 1.514 . S
C283 C284 1.359 . S
C283 C288 1.348 . S
C284 C283 1.359 . S
C284 C285 1.380 . S
C284 H312 0.929 . S
C285 C284 1.380 . S
C285 C286 1.347 . S
C285 H313 0.931 . S
C286 C285 1.347 . S
C286 C287 1.369 . S
C287 C286 1.369 . S
C287 C288 1.408 . S
C287 H314 0.930 . S
C288 C283 1.348 . S
C288 C287 1.408 . S
C288 H315 0.930 . S
C289 O302 1.281 . S
C289 O303 1.254 . S
C290 O304 1.236 . S
C290 O305 1.266 . S
C291 Tb281 2.809 . S
C291 C292 1.514 . S
C291 O306 1.248 . S
C291 O307 1.266 . S
C292 C291 1.514 . S
C292 C293 1.359 . S
C292 C297 1.348 . S
C293 C292 1.359 . S
C293 C294 1.380 . S
C293 H316 0.929 . S
C294 C293 1.380 . S
C294 C295 1.347 . S
C294 H317 0.931 . S
C295 C294 1.347 . S
C295 C296 1.369 . S
C296 C295 1.369 . S
C296 C297 1.408 . S
C296 H318 0.930 . S
C297 C292 1.348 . S
C297 C296 1.408 . S
C297 H319 0.930 . S
C298 O308 1.281 . S
C298 O309 1.254 . S
C299 O310 1.236 . S
C299 O311 1.266 . S
O300 Tb280 2.484 . S
O300 C282 1.248 . S
O301 Tb280 2.440 . S
O301 C282 1.266 . S
O302 Tb280 2.658 . S
O302 Tb281 2.325 . S
O302 C289 1.281 . S
O303 Tb280 2.409 . S
O303 C289 1.254 . S
O304 Tb280 2.378 . S
O304 C290 1.236 . S
O305 Tb281 2.341 . S
O305 C290 1.266 . S
O306 Tb281 2.484 . S
O306 C291 1.248 . S
O307 Tb281 2.440 . S
O307 C291 1.266 . S
O308 Tb280 2.325 . S
O308 Tb281 2.658 . S
O308 C298 1.281 . S
O309 Tb281 2.409 . S
O309 C298 1.254 . S
O310 Tb281 2.378 . S
O310 C299 1.236 . S
O311 Tb280 2.341 . S
O311 C299 1.266 . S
H312 C284 0.929 . S
H313 C285 0.931 . S
H314 C287 0.930 . S
H315 C288 0.930 . S
H316 C293 0.929 . S
H317 C294 0.931 . S
H318 C296 0.930 . S
H319 C297 0.930 . S
H320 C338 0.951 . S
H321 C340 0.951 . S
H322 C342 0.950 . S
H323 C343 0.950 . S
H324 C345 0.950 . S
H325 C348 0.950 1_554 S
H326 C349 0.950 . S
H327 C351 0.950 . S
H328 C352 0.950 . S
H329 C353 0.951 . S
H330 C355 0.951 . S
H331 C357 0.950 . S
H332 C358 0.950 . S
H333 C360 0.950 . S
H334 C363 0.950 . S
H335 C364 0.950 . S
H336 C366 0.950 . S
H337 C367 0.950 . S
C338 H320 0.951 . S
C338 C339 1.366 1_556 S
C338 C340 1.388 . S
C339 C338 1.366 1_554 S
C339 C343 1.385 . S
C340 H321 0.951 . S
C340 C338 1.388 . S
C340 C341 1.366 1_556 S
C341 C340 1.366 1_554 S
C341 C342 1.414 . S
C341 C344 1.499 . S
C342 H322 0.950 . S
C342 C341 1.414 . S
C342 C343 1.374 . S
C343 H323 0.950 . S
C343 C339 1.385 . S
C343 C342 1.374 . S
C344 C341 1.499 . S
C344 C345 1.373 . S
C344 C346 1.389 1_554 S
C345 H324 0.950 . S
C345 C344 1.373 . S
C345 C361 1.377 . S
C346 C344 1.389 1_556 S
C346 C347 1.524 . S
C346 C360 1.377 . S
C347 C346 1.524 . S
C347 C348 1.397 . S
C347 C352 1.363 . S
C348 H325 0.950 1_556 S
C348 C347 1.397 . S
C348 C349 1.334 . S
C349 H326 0.950 . S
C349 C348 1.334 . S
C349 C350 1.287 . S
C350 C349 1.287 . S
C350 C351 1.524 . S
C350 H369 0.913 . S
C351 H327 0.950 . S
C351 C350 1.524 . S
C351 C352 1.415 . S
C352 H328 0.950 . S
C352 C347 1.363 . S
C352 C351 1.415 . S
C353 H329 0.951 . S
C353 C354 1.366 . S
C353 C355 1.388 . S
C354 C353 1.366 . S
C354 C358 1.385 1_554 S
C355 H330 0.951 . S
C355 C353 1.388 . S
C355 C356 1.366 . S
C356 C355 1.366 . S
C356 C357 1.414 1_554 S
C356 C359 1.499 . S
C357 H331 0.950 . S
C357 C356 1.414 1_556 S
C357 C358 1.374 . S
C358 H332 0.950 . S
C358 C354 1.385 1_556 S
C358 C357 1.374 . S
C359 C356 1.499 . S
C359 C360 1.373 1_554 S
C359 C361 1.389 . S
C360 H333 0.950 . S
C360 C346 1.377 . S
C360 C359 1.373 1_556 S
C361 C345 1.377 . S
C361 C359 1.389 . S
C361 C362 1.524 . S
C362 C361 1.524 . S
C362 C363 1.397 . S
C362 C367 1.363 . S
C363 H334 0.950 . S
C363 C362 1.397 . S
C363 C364 1.334 . S
C364 H335 0.950 . S
C364 C363 1.334 . S
C364 C365 1.287 . S
C365 C364 1.287 . S
C365 C366 1.524 . S
C365 H368 0.999 . S
C366 H336 0.950 . S
C366 C365 1.524 . S
C366 C367 1.415 . S
C367 H337 0.950 . S
C367 C362 1.363 . S
C367 C366 1.415 . S
H368 C365 0.999 . S
H369 C350 0.913 . S
H370 C388 0.951 . S
H371 C390 0.951 . S
H372 C392 0.950 . S
H373 C393 0.950 . S
H374 C395 0.950 . S
H375 C398 0.950 . S
H376 C399 0.950 . S
H377 C401 0.950 . S
H378 C402 0.950 1_554 S
H379 C403 0.960 . S
H380 C405 0.951 1_556 S
H381 C407 0.950 . S
H382 C408 0.950 . S
H383 C410 0.950 1_556 S
H384 C413 0.950 . S
H385 C414 0.950 . S
H386 C416 0.950 . S
H387 C417 0.950 . S
C388 H370 0.951 . S
C388 C389 1.366 . S
C388 C390 1.388 . S
C389 C388 1.366 . S
C389 C393 1.385 1_554 S
C390 H371 0.951 . S
C390 C388 1.388 . S
C390 C391 1.366 . S
C391 C390 1.366 . S
C391 C392 1.414 1_554 S
C391 C394 1.499 . S
C392 H372 0.950 . S
C392 C391 1.414 1_556 S
C392 C393 1.374 . S
C393 H373 0.950 . S
C393 C389 1.385 1_556 S
C393 C392 1.374 . S
C394 C391 1.499 . S
C394 C395 1.373 . S
C394 C396 1.389 1_554 S
C395 H374 0.950 . S
C395 C394 1.373 . S
C395 C411 1.377 . S
C396 C394 1.389 1_556 S
C396 C397 1.524 . S
C396 C410 1.377 1_556 S
C397 C396 1.524 . S
C397 C398 1.397 . S
C397 C402 1.363 . S
C398 H375 0.950 . S
C398 C397 1.397 . S
C398 C399 1.334 . S
C399 H376 0.950 . S
C399 C398 1.334 . S
C399 C400 1.287 . S
C400 C399 1.287 . S
C400 C401 1.524 . S
C400 H419 0.913 . S
C401 H377 0.950 . S
C401 C400 1.524 . S
C401 C402 1.415 . S
C402 H378 0.950 1_556 S
C402 C397 1.363 . S
C402 C401 1.415 . S
C403 H379 0.960 . S
C403 C404 1.366 . S
C403 C405 1.388 . S
C404 C403 1.366 . S
C404 C408 1.385 . S
C405 H380 0.951 1_554 S
C405 C403 1.388 . S
C405 C406 1.366 . S
C406 C405 1.366 . S
C406 C407 1.414 . S
C406 C409 1.499 . S
C407 H381 0.950 . S
C407 C406 1.414 . S
C407 C408 1.374 . S
C408 H382 0.950 . S
C408 C404 1.385 . S
C408 C407 1.374 . S
C409 C406 1.499 . S
C409 C410 1.373 . S
C409 C411 1.389 . S
C410 H383 0.950 1_554 S
C410 C396 1.377 1_554 S
C410 C409 1.373 . S
C411 C395 1.377 . S
C411 C409 1.389 . S
C411 C412 1.524 . S
C412 C411 1.524 . S
C412 C413 1.397 . S
C412 C417 1.363 . S
C413 H384 0.950 . S
C413 C412 1.397 . S
C413 C414 1.334 . S
C414 H385 0.950 . S
C414 C413 1.334 . S
C414 C415 1.287 . S
C415 C414 1.287 . S
C415 C416 1.524 . S
C415 H418 0.999 . S
C416 H386 0.950 . S
C416 C415 1.524 . S
C416 C417 1.415 . S
C417 H387 0.950 . S
C417 C412 1.363 . S
C417 C416 1.415 . S
H418 C415 0.999 . S
H419 C400 0.913 . S
H420 C438 0.951 . S
H421 C440 0.951 . S
H422 C442 0.950 . S
H423 C443 0.950 . S
H424 C445 0.950 . S
H425 C448 0.950 . S
H426 C449 0.950 . S
H427 C451 0.950 . S
H428 C452 0.950 . S
H429 C453 0.951 . S
H430 C455 0.951 . S
H431 C457 0.950 . S
H432 C458 0.950 . S
H433 C460 0.950 . S
H434 C463 0.950 . S
H435 C464 0.950 . S
H436 C466 0.950 . S
H437 C467 0.950 . S
C438 H420 0.951 . S
C438 C439 1.366 . S
C438 C440 1.388 . S
C439 C438 1.366 . S
C439 C443 1.385 . S
C440 H421 0.951 . S
C440 C438 1.388 . S
C440 C441 1.366 . S
C441 C440 1.366 . S
C441 C442 1.414 . S
C441 C444 1.499 . S
C442 H422 0.950 . S
C442 C441 1.414 . S
C442 C443 1.374 . S
C443 H423 0.950 . S
C443 C439 1.385 . S
C443 C442 1.374 . S
C444 C441 1.499 . S
C444 C445 1.373 . S
C444 C446 1.389 . S
C445 H424 0.950 . S
C445 C444 1.373 . S
C445 C461 1.377 . S
C446 C444 1.389 . S
C446 C447 1.524 . S
C446 C460 1.377 . S
C447 C446 1.524 . S
C447 C448 1.397 . S
C447 C452 1.363 . S
C448 H425 0.950 . S
C448 C447 1.397 . S
C448 C449 1.334 . S
C449 H426 0.950 . S
C449 C448 1.334 . S
C449 C450 1.287 . S
C450 C449 1.287 . S
C450 C451 1.524 . S
C450 H469 0.913 . S
C451 H427 0.950 . S
C451 C450 1.524 . S
C451 C452 1.415 . S
C452 H428 0.950 . S
C452 C447 1.363 . S
C452 C451 1.415 . S
C453 H429 0.951 . S
C453 C454 1.366 . S
C453 C455 1.388 . S
C454 C453 1.366 . S
C454 C458 1.385 . S
C455 H430 0.951 . S
C455 C453 1.388 . S
C455 C456 1.366 . S
C456 C455 1.366 . S
C456 C457 1.414 . S
C456 C459 1.499 . S
C457 H431 0.950 . S
C457 C456 1.414 . S
C457 C458 1.374 . S
C458 H432 0.950 . S
C458 C454 1.385 . S
C458 C457 1.374 . S
C459 C456 1.499 . S
C459 C460 1.373 . S
C459 C461 1.389 . S
C460 H433 0.950 . S
C460 C446 1.377 . S
C460 C459 1.373 . S
C461 C445 1.377 . S
C461 C459 1.389 . S
C461 C462 1.524 . S
C462 C461 1.524 . S
C462 C463 1.397 . S
C462 C467 1.363 . S
C463 H434 0.950 . S
C463 C462 1.397 . S
C463 C464 1.334 . S
C464 H435 0.950 . S
C464 C463 1.334 . S
C464 C465 1.287 . S
C465 C464 1.287 . S
C465 C466 1.524 . S
C465 H468 0.999 . S
C466 H436 0.950 . S
C466 C465 1.524 . S
C466 C467 1.415 . S
C467 H437 0.950 . S
C467 C462 1.363 . S
C467 C466 1.415 . S
H468 C465 0.999 . S
H469 C450 0.913 . S
H470 C488 0.951 . S
H471 C490 0.951 . S
H472 C492 0.950 . S
H473 C493 0.950 . S
H474 C495 0.950 . S
H475 C498 0.950 . S
H476 C499 0.950 . S
H477 C501 0.950 . S
H478 C502 0.950 . S
H479 C503 0.951 . S
H480 C505 0.951 . S
H481 C507 0.950 . S
H482 C508 0.950 . S
H483 C510 0.950 . S
H484 C513 0.950 . S
H485 C514 0.950 . S
H486 C516 0.950 . S
H487 C517 0.950 . S
C488 H470 0.951 . S
C488 C489 1.366 . S
C488 C490 1.388 . S
C489 C488 1.366 . S
C489 C493 1.385 . S
C490 H471 0.951 . S
C490 C488 1.388 . S
C490 C491 1.366 . S
C491 C490 1.366 . S
C491 C492 1.414 . S
C491 C494 1.499 . S
C492 H472 0.950 . S
C492 C491 1.414 . S
C492 C493 1.374 . S
C493 H473 0.950 . S
C493 C489 1.385 . S
C493 C492 1.374 . S
C494 C491 1.499 . S
C494 C495 1.373 . S
C494 C496 1.389 . S
C495 H474 0.950 . S
C495 C494 1.373 . S
C495 C511 1.377 . S
C496 C494 1.389 . S
C496 C497 1.524 . S
C496 C510 1.377 . S
C497 C496 1.524 . S
C497 C498 1.397 . S
C497 C502 1.363 . S
C498 H475 0.950 . S
C498 C497 1.397 . S
C498 C499 1.334 . S
C499 H476 0.950 . S
C499 C498 1.334 . S
C499 C500 1.287 . S
C500 C499 1.287 . S
C500 C501 1.524 . S
C500 H519 0.913 . S
C501 H477 0.950 . S
C501 C500 1.524 . S
C501 C502 1.415 . S
C502 H478 0.950 . S
C502 C497 1.363 . S
C502 C501 1.415 . S
C503 H479 0.951 . S
C503 C504 1.366 . S
C503 C505 1.388 . S
C504 C503 1.366 . S
C504 C508 1.385 . S
C505 H480 0.951 . S
C505 C503 1.388 . S
C505 C506 1.366 . S
C506 C505 1.366 . S
C506 C507 1.414 . S
C506 C509 1.499 . S
C507 H481 0.950 . S
C507 C506 1.414 . S
C507 C508 1.374 . S
C508 H482 0.950 . S
C508 C504 1.385 . S
C508 C507 1.374 . S
C509 C506 1.499 . S
C509 C510 1.373 . S
C509 C511 1.389 . S
C510 H483 0.950 . S
C510 C496 1.377 . S
C510 C509 1.373 . S
C511 C495 1.377 . S
C511 C509 1.389 . S
C511 C512 1.524 . S
C512 C511 1.524 . S
C512 C513 1.397 . S
C512 C517 1.363 . S
C513 H484 0.950 . S
C513 C512 1.397 . S
C513 C514 1.334 . S
C514 H485 0.950 . S
C514 C513 1.334 . S
C514 C515 1.287 . S
C515 C514 1.287 . S
C515 C516 1.524 . S
C515 H518 0.999 . S
C516 H486 0.950 . S
C516 C515 1.524 . S
C516 C517 1.415 . S
C517 H487 0.950 . S
C517 C512 1.363 . S
C517 C516 1.415 . S
H518 C515 0.999 . S
H519 C500 0.913 . S
H520 C538 0.957 . S
H521 C540 0.951 1_456 S
H522 C542 0.950 . S
H523 C543 0.950 . S
H524 C545 0.950 1_655 S
H525 C548 0.950 . S
H526 C549 0.950 . S
H527 C551 0.950 . S
H528 C552 0.950 . S
H529 C553 0.951 . S
H530 C555 0.951 . S
H531 C557 0.950 . S
H532 C558 0.950 . S
H533 C560 0.950 . S
H534 C563 0.950 . S
H535 C564 0.950 . S
H536 C566 0.950 1_655 S
H537 C567 0.950 . S
C538 H520 0.957 . S
C538 C539 1.362 1_556 S
C538 C540 1.386 1_556 S
C539 C538 1.362 1_554 S
C539 C543 1.385 . S
C540 H521 0.951 1_654 S
C540 C538 1.386 1_554 S
C540 C541 1.366 . S
C541 C540 1.366 . S
C541 C542 1.414 . S
C541 C544 1.499 1_655 S
C542 H522 0.950 . S
C542 C541 1.414 . S
C542 C543 1.374 . S
C543 H523 0.950 . S
C543 C539 1.385 . S
C543 C542 1.374 . S
C544 C541 1.499 1_455 S
C544 C545 1.373 1_554 S
C544 C546 1.389 . S
C545 H524 0.950 1_455 S
C545 C544 1.373 1_556 S
C545 C561 1.377 . S
C546 C544 1.389 . S
C546 C547 1.524 . S
C546 C560 1.377 . S
C547 C546 1.524 . S
C547 C548 1.397 . S
C547 C552 1.363 . S
C548 H525 0.950 . S
C548 C547 1.397 . S
C548 C549 1.334 . S
C549 H526 0.950 . S
C549 C548 1.334 . S
C549 C550 1.287 . S
C550 C549 1.287 . S
C550 C551 1.524 . S
C550 H569 0.913 . S
C551 H527 0.950 . S
C551 C550 1.524 . S
C551 C552 1.415 . S
C552 H528 0.950 . S
C552 C547 1.363 . S
C552 C551 1.415 . S
C553 H529 0.951 . S
C553 C554 1.366 . S
C553 C555 1.388 . S
C554 C553 1.366 . S
C554 C558 1.385 . S
C555 H530 0.951 . S
C555 C553 1.388 . S
C555 C556 1.366 . S
C556 C555 1.366 . S
C556 C557 1.414 . S
C556 C559 1.499 . S
C557 H531 0.950 . S
C557 C556 1.414 . S
C557 C558 1.374 . S
C558 H532 0.950 . S
C558 C554 1.385 . S
C558 C557 1.374 . S
C559 C556 1.499 . S
C559 C560 1.373 . S
C559 C561 1.389 1_554 S
C560 H533 0.950 . S
C560 C546 1.377 . S
C560 C559 1.373 . S
C561 C545 1.377 . S
C561 C559 1.389 1_556 S
C561 C562 1.524 . S
C562 C561 1.524 . S
C562 C563 1.397 . S
C562 C567 1.363 . S
C563 H534 0.950 . S
C563 C562 1.397 . S
C563 C564 1.334 . S
C564 H535 0.950 . S
C564 C563 1.334 . S
C564 C565 1.287 . S
C565 C564 1.287 . S
C565 C566 1.524 . S
C565 H568 0.999 . S
C566 H536 0.950 1_455 S
C566 C565 1.524 . S
C566 C567 1.415 . S
C567 H537 0.950 . S
C567 C562 1.363 . S
C567 C566 1.415 . S
H568 C565 0.999 . S
H569 C550 0.913 . S
H570 C588 0.951 . S
H571 C590 0.951 1_655 S
H572 C592 0.950 . S
H573 C593 0.950 . S
H574 C595 0.950 . S
H575 C598 0.950 1_455 S
H576 C599 0.950 1_455 S
H577 C601 0.950 . S
H578 C602 0.950 . S
H579 C603 0.951 . S
H580 C605 0.949 1_556 S
H581 C607 0.950 . S
H582 C608 0.950 . S
H583 C610 0.950 . S
H584 C613 0.950 . S
H585 C614 0.950 . S
H586 C616 0.950 . S
H587 C617 0.950 . S
C588 H570 0.951 . S
C588 C589 1.366 . S
C588 C590 1.388 . S
C589 C588 1.366 . S
C589 C593 1.385 . S
C590 H571 0.951 1_455 S
C590 C588 1.388 . S
C590 C591 1.366 . S
C591 C590 1.366 . S
C591 C592 1.414 . S
C591 C594 1.499 1_455 S
C592 H572 0.950 . S
C592 C591 1.414 . S
C592 C593 1.374 . S
C593 H573 0.950 . S
C593 C589 1.385 . S
C593 C592 1.374 . S
C594 C591 1.499 1_655 S
C594 C595 1.373 1_554 S
C594 C596 1.389 . S
C595 H574 0.950 . S
C595 C594 1.373 1_556 S
C595 C611 1.377 . S
C596 C594 1.389 . S
C596 C597 1.524 . S
C596 C610 1.377 . S
C597 C596 1.524 . S
C597 C598 1.397 . S
C597 C602 1.363 . S
C598 H575 0.950 1_655 S
C598 C597 1.397 . S
C598 C599 1.334 . S
C599 H576 0.950 1_655 S
C599 C598 1.334 . S
C599 C600 1.287 . S
C600 C599 1.287 . S
C600 C601 1.524 . S
C600 H619 0.913 . S
C601 H577 0.950 . S
C601 C600 1.524 . S
C601 C602 1.415 . S
C602 H578 0.950 . S
C602 C597 1.363 . S
C602 C601 1.415 . S
C603 H579 0.951 . S
C603 C604 1.366 1_556 S
C603 C605 1.387 1_556 S
C604 C603 1.366 1_554 S
C604 C608 1.385 . S
C605 H580 0.949 1_554 S
C605 C603 1.387 1_554 S
C605 C606 1.367 . S
C606 C605 1.367 . S
C606 C607 1.414 . S
C606 C609 1.499 . S
C607 H581 0.950 . S
C607 C606 1.414 . S
C607 C608 1.374 . S
C608 H582 0.950 . S
C608 C604 1.385 . S
C608 C607 1.374 . S
C609 C606 1.499 . S
C609 C610 1.373 . S
C609 C611 1.389 1_554 S
C610 H583 0.950 . S
C610 C596 1.377 . S
C610 C609 1.373 . S
C611 C595 1.377 . S
C611 C609 1.389 1_556 S
C611 C612 1.524 . S
C612 C611 1.524 . S
C612 C613 1.397 . S
C612 C617 1.363 . S
C613 H584 0.950 . S
C613 C612 1.397 . S
C613 C614 1.334 . S
C614 H585 0.950 . S
C614 C613 1.334 . S
C614 C615 1.287 . S
C615 C614 1.287 . S
C615 C616 1.524 . S
C615 H618 0.999 . S
C616 H586 0.950 . S
C616 C615 1.524 . S
C616 C617 1.415 . S
C617 H587 0.950 . S
C617 C612 1.363 . S
C617 C616 1.415 . S
H618 C615 0.999 . S
H619 C600 0.913 . S
H620 C638 0.951 . S
H621 C640 0.951 . S
H622 C642 0.950 . S
H623 C643 0.950 . S
H624 C645 0.950 . S
H625 C648 0.950 . S
H626 C649 0.950 . S
H627 C651 0.950 . S
H628 C652 0.950 . S
H629 C653 0.951 . S
H630 C655 0.951 . S
H631 C657 0.950 . S
H632 C658 0.950 . S
H633 C660 0.950 . S
H634 C663 0.950 . S
H635 C664 0.950 . S
H636 C666 0.950 . S
H637 C667 0.950 . S
C638 H620 0.951 . S
C638 C639 1.366 . S
C638 C640 1.388 . S
C639 C638 1.366 . S
C639 C643 1.385 . S
C640 H621 0.951 . S
C640 C638 1.388 . S
C640 C641 1.366 . S
C641 C640 1.366 . S
C641 C642 1.414 . S
C641 C644 1.499 . S
C642 H622 0.950 . S
C642 C641 1.414 . S
C642 C643 1.374 . S
C643 H623 0.950 . S
C643 C639 1.385 . S
C643 C642 1.374 . S
C644 C641 1.499 . S
C644 C645 1.373 . S
C644 C646 1.389 . S
C645 H624 0.950 . S
C645 C644 1.373 . S
C645 C661 1.377 . S
C646 C644 1.389 . S
C646 C647 1.524 . S
C646 C660 1.377 . S
C647 C646 1.524 . S
C647 C648 1.397 . S
C647 C652 1.363 . S
C648 H625 0.950 . S
C648 C647 1.397 . S
C648 C649 1.334 . S
C649 H626 0.950 . S
C649 C648 1.334 . S
C649 C650 1.287 . S
C650 C649 1.287 . S
C650 C651 1.524 . S
C650 H669 0.913 . S
C651 H627 0.950 . S
C651 C650 1.524 . S
C651 C652 1.415 . S
C652 H628 0.950 . S
C652 C647 1.363 . S
C652 C651 1.415 . S
C653 H629 0.951 . S
C653 C654 1.366 . S
C653 C655 1.388 . S
C654 C653 1.366 . S
C654 C658 1.385 . S
C655 H630 0.951 . S
C655 C653 1.388 . S
C655 C656 1.366 . S
C656 C655 1.366 . S
C656 C657 1.414 . S
C656 C659 1.499 . S
C657 H631 0.950 . S
C657 C656 1.414 . S
C657 C658 1.374 . S
C658 H632 0.950 . S
C658 C654 1.385 . S
C658 C657 1.374 . S
C659 C656 1.499 . S
C659 C660 1.373 1_655 S
C659 C661 1.389 1_655 S
C660 H633 0.950 . S
C660 C646 1.377 . S
C660 C659 1.373 1_455 S
C661 C645 1.377 . S
C661 C659 1.389 1_455 S
C661 C662 1.524 1_455 S
C662 C661 1.524 1_655 S
C662 C663 1.397 . S
C662 C667 1.363 1_655 S
C663 H634 0.950 . S
C663 C662 1.397 . S
C663 C664 1.334 . S
C664 H635 0.950 . S
C664 C663 1.334 . S
C664 C665 1.287 . S
C665 C664 1.287 . S
C665 C666 1.524 . S
C665 H668 0.999 . S
C666 H636 0.950 . S
C666 C665 1.524 . S
C666 C667 1.415 1_655 S
C667 H637 0.950 . S
C667 C662 1.363 1_455 S
C667 C666 1.415 1_455 S
H668 C665 0.999 . S
H669 C650 0.913 . S
H670 C688 0.951 . S
H671 C690 0.951 . S
H672 C692 0.950 . S
H673 C693 0.950 . S
H674 C695 0.950 . S
H675 C698 0.950 . S
H676 C699 0.950 . S
H677 C701 0.950 . S
H678 C702 0.950 . S
H679 C703 0.951 . S
H680 C705 0.951 . S
H681 C707 0.950 . S
H682 C708 0.950 . S
H683 C710 0.950 . S
H684 C713 0.950 . S
H685 C714 0.950 . S
H686 C716 0.950 . S
H687 C717 0.942 1_655 S
C688 H670 0.951 . S
C688 C689 1.366 . S
C688 C690 1.388 . S
C689 C688 1.366 . S
C689 C693 1.385 . S
C690 H671 0.951 . S
C690 C688 1.388 . S
C690 C691 1.366 . S
C691 C690 1.366 . S
C691 C692 1.414 . S
C691 C694 1.499 . S
C692 H672 0.950 . S
C692 C691 1.414 . S
C692 C693 1.374 . S
C693 H673 0.950 . S
C693 C689 1.385 . S
C693 C692 1.374 . S
C694 C691 1.499 . S
C694 C695 1.373 . S
C694 C696 1.389 . S
C695 H674 0.950 . S
C695 C694 1.373 . S
C695 C711 1.377 . S
C696 C694 1.389 . S
C696 C697 1.524 . S
C696 C710 1.377 . S
C697 C696 1.524 . S
C697 C698 1.397 . S
C697 C702 1.363 . S
C698 H675 0.950 . S
C698 C697 1.397 . S
C698 C699 1.334 . S
C699 H676 0.950 . S
C699 C698 1.334 . S
C699 C700 1.287 . S
C700 C699 1.287 . S
C700 C701 1.524 . S
C700 H719 0.913 . S
C701 H677 0.950 . S
C701 C700 1.524 . S
C701 C702 1.415 . S
C702 H678 0.950 . S
C702 C697 1.363 . S
C702 C701 1.415 . S
C703 H679 0.951 . S
C703 C704 1.366 . S
C703 C705 1.388 . S
C704 C703 1.366 . S
C704 C708 1.385 . S
C705 H680 0.951 . S
C705 C703 1.388 . S
C705 C706 1.366 . S
C706 C705 1.366 . S
C706 C707 1.414 . S
C706 C709 1.499 . S
C707 H681 0.950 . S
C707 C706 1.414 . S
C707 C708 1.374 . S
C708 H682 0.950 . S
C708 C704 1.385 . S
C708 C707 1.374 . S
C709 C706 1.499 . S
C709 C710 1.373 1_455 S
C709 C711 1.389 1_455 S
C710 H683 0.950 . S
C710 C696 1.377 . S
C710 C709 1.373 1_655 S
C711 C695 1.377 . S
C711 C709 1.389 1_655 S
C711 C712 1.524 1_655 S
C712 C711 1.524 1_455 S
C712 C713 1.397 . S
C712 C717 1.367 . S
C713 H684 0.950 . S
C713 C712 1.397 . S
C713 C714 1.334 . S
C714 H685 0.950 . S
C714 C713 1.334 . S
C714 C715 1.287 . S
C715 C714 1.287 . S
C715 C716 1.524 . S
C715 H718 0.999 . S
C716 H686 0.950 . S
C716 C715 1.524 . S
C716 C717 1.420 . S
C717 H687 0.942 1_455 S
C717 C712 1.367 . S
C717 C716 1.420 . S
H718 C715 0.999 . S
H719 C700 0.913 . S
H720 C738 0.951 . S
H721 C740 0.951 . S
H722 C742 0.950 . S
H723 C743 0.950 . S
H724 C745 0.950 . S
H725 C748 0.950 . S
H726 C749 0.950 . S
H727 C751 0.950 . S
H728 C752 0.950 . S
H729 C753 0.951 . S
H730 C755 0.951 . S
H731 C757 0.950 . S
H732 C758 0.950 . S
H733 C760 0.950 . S
H734 C763 0.950 . S
H735 C764 0.950 . S
H736 C766 0.950 . S
H737 C767 0.950 . S
C738 H720 0.951 . S
C738 C739 1.366 1_456 S
C738 C740 1.388 . S
C739 C738 1.366 1_654 S
C739 C743 1.385 . S
C740 H721 0.951 . S
C740 C738 1.388 . S
C740 C741 1.366 1_456 S
C741 C740 1.366 1_654 S
C741 C742 1.414 . S
C741 C744 1.499 . S
C742 H722 0.950 . S
C742 C741 1.414 . S
C742 C743 1.374 . S
C743 H723 0.950 . S
C743 C739 1.385 . S
C743 C742 1.374 . S
C744 C741 1.499 . S
C744 C745 1.373 . S
C744 C746 1.389 1_554 S
C745 H724 0.950 . S
C745 C744 1.373 . S
C745 C761 1.377 1_655 S
C746 C744 1.389 1_556 S
C746 C747 1.524 . S
C746 C760 1.377 1_655 S
C747 C746 1.524 . S
C747 C748 1.397 . S
C747 C752 1.363 1_655 S
C748 H725 0.950 . S
C748 C747 1.397 . S
C748 C749 1.334 . S
C749 H726 0.950 . S
C749 C748 1.334 . S
C749 C750 1.287 . S
C750 C749 1.287 . S
C750 C751 1.524 1_655 S
C750 H769 0.913 . S
C751 H727 0.950 . S
C751 C750 1.524 1_455 S
C751 C752 1.415 . S
C752 H728 0.950 . S
C752 C747 1.363 1_455 S
C752 C751 1.415 . S
C753 H729 0.951 . S
C753 C754 1.366 1_655 S
C753 C755 1.388 . S
C754 C753 1.366 1_455 S
C754 C758 1.385 1_554 S
C755 H730 0.951 . S
C755 C753 1.388 . S
C755 C756 1.366 1_655 S
C756 C755 1.366 1_455 S
C756 C757 1.414 1_554 S
C756 C759 1.499 . S
C757 H731 0.950 . S
C757 C756 1.414 1_556 S
C757 C758 1.374 . S
C758 H732 0.950 . S
C758 C754 1.385 1_556 S
C758 C757 1.374 . S
C759 C756 1.499 . S
C759 C760 1.373 1_554 S
C759 C761 1.389 . S
C760 H733 0.950 . S
C760 C746 1.377 1_455 S
C760 C759 1.373 1_556 S
C761 C745 1.377 1_455 S
C761 C759 1.389 . S
C761 C762 1.524 . S
C762 C761 1.524 . S
C762 C763 1.397 . S
C762 C767 1.363 1_455 S
C763 H734 0.950 . S
C763 C762 1.397 . S
C763 C764 1.334 . S
C764 H735 0.950 . S
C764 C763 1.334 . S
C764 C765 1.287 . S
C765 C764 1.287 . S
C765 C766 1.524 1_455 S
C765 H768 0.999 . S
C766 H736 0.950 . S
C766 C765 1.524 1_655 S
C766 C767 1.415 . S
C767 H737 0.950 . S
C767 C762 1.363 1_655 S
C767 C766 1.415 . S
H768 C765 0.999 . S
H769 C750 0.913 . S
H770 C788 0.951 . S
H771 C790 0.951 . S
H772 C792 0.950 1_655 S
H773 C793 0.950 . S
H774 C795 0.950 . S
H775 C798 0.950 . S
H776 C799 0.950 . S
H777 C801 0.950 . S
H778 C802 0.950 . S
H779 C803 0.951 . S
H780 C805 0.951 . S
H781 C807 0.950 1_455 S
H782 C808 0.950 . S
H783 C810 0.950 . S
H784 C813 0.950 . S
H785 C814 0.950 . S
H786 C816 0.950 . S
H787 C817 0.950 . S
C788 H770 0.951 . S
C788 C789 1.366 . S
C788 C790 1.388 . S
C789 C788 1.366 . S
C789 C793 1.385 . S
C790 H771 0.951 . S
C790 C788 1.388 . S
C790 C791 1.366 . S
C791 C790 1.366 . S
C791 C792 1.414 . S
C791 C794 1.499 . S
C792 H772 0.950 1_455 S
C792 C791 1.414 . S
C792 C793 1.374 . S
C793 H773 0.950 . S
C793 C789 1.385 . S
C793 C792 1.374 . S
C794 C791 1.499 . S
C794 C795 1.373 1_455 S
C794 C796 1.389 . S
C795 H774 0.950 . S
C795 C794 1.373 1_655 S
C795 C811 1.377 . S
C796 C794 1.389 . S
C796 C797 1.524 . S
C796 C810 1.377 . S
C797 C796 1.524 . S
C797 C798 1.397 . S
C797 C802 1.363 . S
C798 H775 0.950 . S
C798 C797 1.397 . S
C798 C799 1.334 . S
C799 H776 0.950 . S
C799 C798 1.334 . S
C799 C800 1.287 . S
C800 C799 1.287 . S
C800 C801 1.524 . S
C800 H819 0.913 . S
C801 H777 0.950 . S
C801 C800 1.524 . S
C801 C802 1.415 . S
C802 H778 0.950 . S
C802 C797 1.363 . S
C802 C801 1.415 . S
C803 H779 0.951 . S
C803 C804 1.366 . S
C803 C805 1.388 . S
C804 C803 1.366 . S
C804 C808 1.385 . S
C805 H780 0.951 . S
C805 C803 1.388 . S
C805 C806 1.366 . S
C806 C805 1.366 . S
C806 C807 1.414 . S
C806 C809 1.499 . S
C807 H781 0.950 1_655 S
C807 C806 1.414 . S
C807 C808 1.374 . S
C808 H782 0.950 . S
C808 C804 1.385 . S
C808 C807 1.374 . S
C809 C806 1.499 . S
C809 C810 1.373 1_655 S
C809 C811 1.389 . S
C810 H783 0.950 . S
C810 C796 1.377 . S
C810 C809 1.373 1_455 S
C811 C795 1.377 . S
C811 C809 1.389 . S
C811 C812 1.524 . S
C812 C811 1.524 . S
C812 C813 1.397 . S
C812 C817 1.363 . S
C813 H784 0.950 . S
C813 C812 1.397 . S
C813 C814 1.334 . S
C814 H785 0.950 . S
C814 C813 1.334 . S
C814 C815 1.287 . S
C815 C814 1.287 . S
C815 C816 1.524 . S
C815 H818 0.999 . S
C816 H786 0.950 . S
C816 C815 1.524 . S
C816 C817 1.415 . S
C817 H787 0.950 . S
C817 C812 1.363 . S
C817 C816 1.415 . S
H818 C815 0.999 . S
H819 C800 0.913 . S
H820 C838 0.951 1_556 S
H821 C840 0.951 1_556 S
H822 C842 0.950 . S
H823 C843 0.950 . S
H824 C845 0.950 . S
H825 C848 0.950 . S
H826 C849 0.950 . S
H827 C851 0.950 . S
H828 C852 0.950 1_545 S
H829 C853 0.951 . S
H830 C855 0.951 . S
H831 C857 0.952 . S
H832 C858 0.950 . S
H833 C860 0.950 . S
H834 C863 0.950 . S
H835 C864 0.950 . S
H836 C866 0.950 . S
H837 C867 0.950 1_565 S
C838 H820 0.951 1_554 S
C838 C839 1.366 . S
C838 C840 1.388 . S
C839 C838 1.366 . S
C839 C843 1.385 . S
C840 H821 0.951 1_554 S
C840 C838 1.388 . S
C840 C841 1.366 . S
C841 C840 1.366 . S
C841 C842 1.414 . S
C841 C844 1.499 . S
C842 H822 0.950 . S
C842 C841 1.414 . S
C842 C843 1.374 . S
C843 H823 0.950 . S
C843 C839 1.385 . S
C843 C842 1.374 . S
C844 C841 1.499 . S
C844 C845 1.373 . S
C844 C846 1.389 1_554 S
C845 H824 0.950 . S
C845 C844 1.373 . S
C845 C861 1.377 1_565 S
C846 C844 1.389 1_556 S
C846 C847 1.524 . S
C846 C860 1.377 1_565 S
C847 C846 1.524 . S
C847 C848 1.397 . S
C847 C852 1.363 . S
C848 H825 0.950 . S
C848 C847 1.397 . S
C848 C849 1.334 . S
C849 H826 0.950 . S
C849 C848 1.334 . S
C849 C850 1.287 . S
C850 C849 1.287 . S
C850 C851 1.524 . S
C850 H869 0.913 . S
C851 H827 0.950 . S
C851 C850 1.524 . S
C851 C852 1.415 . S
C852 H828 0.950 1_565 S
C852 C847 1.363 . S
C852 C851 1.415 . S
C853 H829 0.951 . S
C853 C854 1.366 . S
C853 C855 1.388 . S
C854 C853 1.366 . S
C854 C858 1.385 . S
C855 H830 0.951 . S
C855 C853 1.388 . S
C855 C856 1.366 . S
C856 C855 1.366 . S
C856 C857 1.414 . S
C856 C859 1.499 . S
C857 H831 0.952 . S
C857 C856 1.414 . S
C857 C858 1.374 . S
C858 H832 0.950 . S
C858 C854 1.385 . S
C858 C857 1.374 . S
C859 C856 1.499 . S
C859 C860 1.373 1_554 S
C859 C861 1.389 . S
C860 H833 0.950 . S
C860 C846 1.377 1_545 S
C860 C859 1.373 1_556 S
C861 C845 1.377 1_545 S
C861 C859 1.389 . S
C861 C862 1.524 . S
C862 C861 1.524 . S
C862 C863 1.397 . S
C862 C867 1.363 . S
C863 H834 0.950 . S
C863 C862 1.397 . S
C863 C864 1.334 . S
C864 H835 0.950 . S
C864 C863 1.334 . S
C864 C865 1.287 . S
C865 C864 1.287 . S
C865 C866 1.524 . S
C865 H868 0.999 . S
C866 H836 0.950 . S
C866 C865 1.524 . S
C866 C867 1.415 . S
C867 H837 0.950 1_545 S
C867 C862 1.363 . S
C867 C866 1.415 . S
H868 C865 0.999 . S
H869 C850 0.913 . S
H870 C888 0.951 . S
H871 C890 0.951 . S
H872 C892 0.950 . S
H873 C893 0.950 . S
H874 C895 0.950 . S
H875 C898 0.950 . S
H876 C899 0.950 . S
H877 C901 0.950 . S
H878 C902 0.950 . S
H879 C903 0.951 . S
H880 C905 0.951 . S
H881 C907 0.950 . S
H882 C908 0.950 . S
H883 C910 0.950 . S
H884 C913 0.950 . S
H885 C914 0.950 . S
H886 C916 0.950 . S
H887 C917 0.950 . S
C888 H870 0.951 . S
C888 C889 1.366 . S
C888 C890 1.388 . S
C889 C888 1.366 . S
C889 C893 1.385 . S
C890 H871 0.951 . S
C890 C888 1.388 . S
C890 C891 1.366 . S
C891 C890 1.366 . S
C891 C892 1.414 . S
C891 C894 1.499 . S
C892 H872 0.950 . S
C892 C891 1.414 . S
C892 C893 1.374 . S
C893 H873 0.950 . S
C893 C889 1.385 . S
C893 C892 1.374 . S
C894 C891 1.499 . S
C894 C895 1.373 . S
C894 C896 1.389 . S
C895 H874 0.950 . S
C895 C894 1.373 . S
C895 C911 1.377 1_545 S
C896 C894 1.389 . S
C896 C897 1.524 . S
C896 C910 1.377 1_545 S
C897 C896 1.524 . S
C897 C898 1.397 . S
C897 C902 1.363 . S
C898 H875 0.950 . S
C898 C897 1.397 . S
C898 C899 1.334 . S
C899 H876 0.950 . S
C899 C898 1.334 . S
C899 C900 1.287 . S
C900 C899 1.287 . S
C900 C901 1.524 . S
C900 H919 0.913 . S
C901 H877 0.950 . S
C901 C900 1.524 . S
C901 C902 1.415 . S
C902 H878 0.950 . S
C902 C897 1.363 . S
C902 C901 1.415 . S
C903 H879 0.951 . S
C903 C904 1.366 . S
C903 C905 1.388 . S
C904 C903 1.366 . S
C904 C908 1.385 . S
C905 H880 0.951 . S
C905 C903 1.388 . S
C905 C906 1.366 . S
C906 C905 1.366 . S
C906 C907 1.414 . S
C906 C909 1.499 . S
C907 H881 0.950 . S
C907 C906 1.414 . S
C907 C908 1.374 . S
C908 H882 0.950 . S
C908 C904 1.385 . S
C908 C907 1.374 . S
C909 C906 1.499 . S
C909 C910 1.373 . S
C909 C911 1.389 . S
C910 H883 0.950 . S
C910 C896 1.377 1_565 S
C910 C909 1.373 . S
C911 C895 1.377 1_565 S
C911 C909 1.389 . S
C911 C912 1.524 . S
C912 C911 1.524 . S
C912 C913 1.397 . S
C912 C917 1.363 . S
C913 H884 0.950 . S
C913 C912 1.397 . S
C913 C914 1.334 . S
C914 H885 0.950 . S
C914 C913 1.334 . S
C914 C915 1.287 . S
C915 C914 1.287 . S
C915 C916 1.524 . S
C915 H918 0.999 . S
C916 H886 0.950 . S
C916 C915 1.524 . S
C916 C917 1.415 . S
C917 H887 0.950 . S
C917 C912 1.363 . S
C917 C916 1.415 . S
H918 C915 0.999 . S
H919 C900 0.913 . S
H920 C938 0.951 . S
H921 C940 0.951 . S
H922 C942 0.950 . S
H923 C943 0.950 . S
H924 C945 0.950 1_556 S
H925 C948 0.950 1_556 S
H926 C949 0.950 1_556 S
H927 C951 0.950 . S
H928 C952 0.950 . S
H929 C953 0.951 . S
H930 C955 0.951 . S
H931 C957 0.950 . S
H932 C958 0.950 . S
H933 C960 0.950 . S
H934 C963 0.950 . S
H935 C964 0.950 . S
H936 C966 0.950 . S
H937 C967 0.950 . S
C938 H920 0.951 . S
C938 C939 1.366 . S
C938 C940 1.388 . S
C939 C938 1.366 . S
C939 C943 1.385 1_554 S
C940 H921 0.951 . S
C940 C938 1.388 . S
C940 C941 1.366 . S
C941 C940 1.366 . S
C941 C942 1.414 1_554 S
C941 C944 1.499 . S
C942 H922 0.950 . S
C942 C941 1.414 1_556 S
C942 C943 1.374 . S
C943 H923 0.950 . S
C943 C939 1.385 1_556 S
C943 C942 1.374 . S
C944 C941 1.499 . S
C944 C945 1.373 . S
C944 C946 1.389 . S
C945 H924 0.950 1_554 S
C945 C944 1.373 . S
C945 C961 1.377 . S
C946 C944 1.389 . S
C946 C947 1.524 . S
C946 C960 1.377 . S
C947 C946 1.524 . S
C947 C948 1.397 . S
C947 C952 1.363 . S
C948 H925 0.950 1_554 S
C948 C947 1.397 . S
C948 C949 1.334 . S
C949 H926 0.950 1_554 S
C949 C948 1.334 . S
C949 C950 1.287 . S
C950 C949 1.287 . S
C950 C951 1.524 . S
C950 H969 0.913 . S
C951 H927 0.950 . S
C951 C950 1.524 . S
C951 C952 1.415 . S
C952 H928 0.950 . S
C952 C947 1.363 . S
C952 C951 1.415 . S
C953 H929 0.951 . S
C953 C954 1.366 1_556 S
C953 C955 1.388 . S
C954 C953 1.366 1_554 S
C954 C958 1.385 . S
C955 H930 0.951 . S
C955 C953 1.388 . S
C955 C956 1.366 1_556 S
C956 C955 1.366 1_554 S
C956 C957 1.414 . S
C956 C959 1.499 . S
C957 H931 0.950 . S
C957 C956 1.414 . S
C957 C958 1.374 . S
C958 H932 0.950 . S
C958 C954 1.385 . S
C958 C957 1.374 . S
C959 C956 1.499 . S
C959 C960 1.373 . S
C959 C961 1.389 . S
C960 H933 0.950 . S
C960 C946 1.377 . S
C960 C959 1.373 . S
C961 C945 1.377 . S
C961 C959 1.389 . S
C961 C962 1.524 1_554 S
C962 C961 1.524 1_556 S
C962 C963 1.397 1_556 S
C962 C967 1.363 . S
C963 H934 0.950 . S
C963 C962 1.397 1_554 S
C963 C964 1.334 . S
C964 H935 0.950 . S
C964 C963 1.334 . S
C964 C965 1.287 1_554 S
C965 C964 1.287 1_556 S
C965 C966 1.524 . S
C965 H968 0.999 . S
C966 H936 0.950 . S
C966 C965 1.524 . S
C966 C967 1.415 . S
C967 H937 0.950 . S
C967 C962 1.363 . S
C967 C966 1.415 . S
H968 C965 0.999 . S
H969 C950 0.913 . S
H970 C988 0.951 . S
H971 C990 0.951 . S
H972 C992 0.950 1_556 S
H973 C993 0.944 1_556 S
H974 C995 0.950 . S
H975 C998 0.950 . S
H976 C999 0.950 . S
H977 C1001 0.950 . S
H978 C1002 0.950 1_554 S
H979 C1003 0.944 1_556 S
H980 C1005 0.951 1_556 S
H981 C1007 0.950 . S
H982 C1008 0.950 . S
H983 C1010 0.959 . S
H984 C1013 0.950 . S
H985 C1014 0.950 . S
H986 C1016 0.950 . S
H987 C1017 0.950 . S
C988 H970 0.951 . S
C988 C989 1.366 . S
C988 C990 1.388 . S
C989 C988 1.366 . S
C989 C993 1.385 . S
C990 H971 0.951 . S
C990 C988 1.388 . S
C990 C991 1.366 . S
C991 C990 1.366 . S
C991 C992 1.414 . S
C991 C994 1.499 . S
C992 H972 0.950 1_554 S
C992 C991 1.414 . S
C992 C993 1.374 . S
C993 H973 0.944 1_554 S
C993 C989 1.385 . S
C993 C992 1.374 . S
C994 C991 1.499 . S
C994 C995 1.373 . S
C994 C996 1.389 1_554 S
C995 H974 0.950 . S
C995 C994 1.373 . S
C995 C1011 1.377 . S
C996 C994 1.389 1_556 S
C996 C997 1.524 . S
C996 C1010 1.376 . S
C997 C996 1.524 . S
C997 C998 1.397 . S
C997 C1002 1.363 . S
C998 H975 0.950 . S
C998 C997 1.397 . S
C998 C999 1.334 . S
C999 H976 0.950 . S
C999 C998 1.334 . S
C999 C1000 1.287 . S
C1000 C999 1.287 . S
C1000 C1001 1.524 . S
C1000 H1019 0.913 . S
C1001 H977 0.950 . S
C1001 C1000 1.524 . S
C1001 C1002 1.415 . S
C1002 H978 0.950 1_556 S
C1002 C997 1.363 . S
C1002 C1001 1.415 . S
C1003 H979 0.944 1_554 S
C1003 C1004 1.370 . S
C1003 C1005 1.391 . S
C1004 C1003 1.370 . S
C1004 C1008 1.385 . S
C1005 H980 0.951 1_554 S
C1005 C1003 1.391 . S
C1005 C1006 1.366 . S
C1006 C1005 1.366 . S
C1006 C1007 1.414 . S
C1006 C1009 1.499 . S
C1007 H981 0.950 . S
C1007 C1006 1.414 . S
C1007 C1008 1.374 . S
C1008 H982 0.950 . S
C1008 C1004 1.385 . S
C1008 C1007 1.374 . S
C1009 C1006 1.499 . S
C1009 C1010 1.365 1_554 S
C1009 C1011 1.389 . S
C1010 H983 0.959 . S
C1010 C996 1.376 . S
C1010 C1009 1.365 1_556 S
C1011 C995 1.377 . S
C1011 C1009 1.389 . S
C1011 C1012 1.524 . S
C1012 C1011 1.524 . S
C1012 C1013 1.397 . S
C1012 C1017 1.363 . S
C1013 H984 0.950 . S
C1013 C1012 1.397 . S
C1013 C1014 1.334 . S
C1014 H985 0.950 . S
C1014 C1013 1.334 . S
C1014 C1015 1.287 . S
C1015 C1014 1.287 . S
C1015 C1016 1.524 . S
C1015 H1018 0.999 . S
C1016 H986 0.950 . S
C1016 C1015 1.524 . S
C1016 C1017 1.415 . S
C1017 H987 0.950 . S
C1017 C1012 1.363 . S
C1017 C1016 1.415 . S
H1018 C1015 0.999 . S
H1019 C1000 0.913 . S
H1020 C1038 0.951 . S
H1021 C1040 0.951 . S
H1022 C1042 0.950 . S
H1023 C1043 0.950 . S
H1024 C1045 0.950 . S
H1025 C1048 0.950 . S
H1026 C1049 0.950 . S
H1027 C1051 0.950 . S
H1028 C1052 0.950 . S
H1029 C1053 0.951 . S
H1030 C1055 0.951 . S
H1031 C1057 0.950 . S
H1032 C1058 0.950 . S
H1033 C1060 0.950 . S
H1034 C1063 0.950 . S
H1035 C1064 0.950 . S
H1036 C1066 0.950 . S
H1037 C1067 0.950 . S
C1038 H1020 0.951 . S
C1038 C1039 1.366 . S
C1038 C1040 1.388 . S
C1039 C1038 1.366 . S
C1039 C1043 1.385 . S
C1040 H1021 0.951 . S
C1040 C1038 1.388 . S
C1040 C1041 1.366 . S
C1041 C1040 1.366 . S
C1041 C1042 1.414 . S
C1041 C1044 1.499 . S
C1042 H1022 0.950 . S
C1042 C1041 1.414 . S
C1042 C1043 1.374 . S
C1043 H1023 0.950 . S
C1043 C1039 1.385 . S
C1043 C1042 1.374 . S
C1044 C1041 1.499 . S
C1044 C1045 1.373 . S
C1044 C1046 1.389 . S
C1045 H1024 0.950 . S
C1045 C1044 1.373 . S
C1045 C1061 1.377 . S
C1046 C1044 1.389 . S
C1046 C1047 1.524 . S
C1046 C1060 1.377 . S
C1047 C1046 1.524 . S
C1047 C1048 1.397 . S
C1047 C1052 1.363 . S
C1048 H1025 0.950 . S
C1048 C1047 1.397 . S
C1048 C1049 1.334 . S
C1049 H1026 0.950 . S
C1049 C1048 1.334 . S
C1049 C1050 1.287 . S
C1050 C1049 1.287 . S
C1050 C1051 1.524 . S
C1050 H1069 0.913 . S
C1051 H1027 0.950 . S
C1051 C1050 1.524 . S
C1051 C1052 1.415 . S
C1052 H1028 0.950 . S
C1052 C1047 1.363 . S
C1052 C1051 1.415 . S
C1053 H1029 0.951 . S
C1053 C1054 1.366 . S
C1053 C1055 1.388 . S
C1054 C1053 1.366 . S
C1054 C1058 1.385 . S
C1055 H1030 0.951 . S
C1055 C1053 1.388 . S
C1055 C1056 1.366 . S
C1056 C1055 1.366 . S
C1056 C1057 1.414 . S
C1056 C1059 1.499 . S
C1057 H1031 0.950 . S
C1057 C1056 1.414 . S
C1057 C1058 1.374 . S
C1058 H1032 0.950 . S
C1058 C1054 1.385 . S
C1058 C1057 1.374 . S
C1059 C1056 1.499 . S
C1059 C1060 1.373 . S
C1059 C1061 1.389 . S
C1060 H1033 0.950 . S
C1060 C1046 1.377 . S
C1060 C1059 1.373 . S
C1061 C1045 1.377 . S
C1061 C1059 1.389 . S
C1061 C1062 1.524 . S
C1062 C1061 1.524 . S
C1062 C1063 1.397 . S
C1062 C1067 1.363 . S
C1063 H1034 0.950 . S
C1063 C1062 1.397 . S
C1063 C1064 1.334 . S
C1064 H1035 0.950 . S
C1064 C1063 1.334 . S
C1064 C1065 1.287 . S
C1065 C1064 1.287 . S
C1065 C1066 1.524 . S
C1065 H1068 0.999 . S
C1066 H1036 0.950 . S
C1066 C1065 1.524 . S
C1066 C1067 1.415 . S
C1067 H1037 0.950 . S
C1067 C1062 1.363 . S
C1067 C1066 1.415 . S
H1068 C1065 0.999 . S
H1069 C1050 0.913 . S
H1070 C1088 0.951 . S
H1071 C1090 0.951 . S
H1072 C1092 0.950 . S
H1073 C1093 0.950 . S
H1074 C1095 0.950 . S
H1075 C1098 0.950 . S
H1076 C1099 0.950 . S
H1077 C1101 0.950 . S
H1078 C1102 0.950 . S
H1079 C1103 0.951 . S
H1080 C1105 0.951 . S
H1081 C1107 0.950 . S
H1082 C1108 0.950 . S
H1083 C1110 0.950 . S
H1084 C1113 0.950 . S
H1085 C1114 0.950 . S
H1086 C1116 0.950 . S
H1087 C1117 0.950 . S
C1088 H1070 0.951 . S
C1088 C1089 1.366 . S
C1088 C1090 1.388 . S
C1089 C1088 1.366 . S
C1089 C1093 1.385 . S
C1090 H1071 0.951 . S
C1090 C1088 1.388 . S
C1090 C1091 1.366 . S
C1091 C1090 1.366 . S
C1091 C1092 1.414 . S
C1091 C1094 1.499 . S
C1092 H1072 0.950 . S
C1092 C1091 1.414 . S
C1092 C1093 1.374 . S
C1093 H1073 0.950 . S
C1093 C1089 1.385 . S
C1093 C1092 1.374 . S
C1094 C1091 1.499 . S
C1094 C1095 1.373 . S
C1094 C1096 1.389 . S
C1095 H1074 0.950 . S
C1095 C1094 1.373 . S
C1095 C1111 1.377 . S
C1096 C1094 1.389 . S
C1096 C1097 1.524 . S
C1096 C1110 1.377 . S
C1097 C1096 1.524 . S
C1097 C1098 1.397 . S
C1097 C1102 1.363 . S
C1098 H1075 0.950 . S
C1098 C1097 1.397 . S
C1098 C1099 1.334 . S
C1099 H1076 0.950 . S
C1099 C1098 1.334 . S
C1099 C1100 1.287 . S
C1100 C1099 1.287 . S
C1100 C1101 1.524 . S
C1100 H1119 0.913 . S
C1101 H1077 0.950 . S
C1101 C1100 1.524 . S
C1101 C1102 1.415 . S
C1102 H1078 0.950 . S
C1102 C1097 1.363 . S
C1102 C1101 1.415 . S
C1103 H1079 0.951 . S
C1103 C1104 1.366 . S
C1103 C1105 1.388 . S
C1104 C1103 1.366 . S
C1104 C1108 1.385 . S
C1105 H1080 0.951 . S
C1105 C1103 1.388 . S
C1105 C1106 1.366 . S
C1106 C1105 1.366 . S
C1106 C1107 1.414 . S
C1106 C1109 1.499 . S
C1107 H1081 0.950 . S
C1107 C1106 1.414 . S
C1107 C1108 1.374 . S
C1108 H1082 0.950 . S
C1108 C1104 1.385 . S
C1108 C1107 1.374 . S
C1109 C1106 1.499 . S
C1109 C1110 1.373 . S
C1109 C1111 1.389 . S
C1110 H1083 0.950 . S
C1110 C1096 1.377 . S
C1110 C1109 1.373 . S
C1111 C1095 1.377 . S
C1111 C1109 1.389 . S
C1111 C1112 1.524 . S
C1112 C1111 1.524 . S
C1112 C1113 1.397 . S
C1112 C1117 1.363 . S
C1113 H1084 0.950 . S
C1113 C1112 1.397 . S
C1113 C1114 1.334 . S
C1114 H1085 0.950 . S
C1114 C1113 1.334 . S
C1114 C1115 1.287 . S
C1115 C1114 1.287 . S
C1115 C1116 1.524 . S
C1115 H1118 0.999 . S
C1116 H1086 0.950 . S
C1116 C1115 1.524 . S
C1116 C1117 1.415 . S
C1117 H1087 0.950 . S
C1117 C1112 1.363 . S
C1117 C1116 1.415 . S
H1118 C1115 0.999 . S
H1119 C1100 0.913 . S
H1120 C1138 0.951 1_655 S
H1121 C1140 0.951 . S
H1122 C1142 0.950 . S
H1123 C1143 0.950 . S
H1124 C1145 0.950 . S
H1125 C1148 0.950 . S
H1126 C1149 0.950 . S
H1127 C1151 0.950 . S
H1128 C1152 0.950 . S
H1129 C1153 0.951 . S
H1130 C1155 0.951 . S
H1131 C1157 0.950 . S
H1132 C1158 0.950 . S
H1133 C1160 0.950 . S
H1134 C1163 0.950 1_655 S
H1135 C1164 0.950 1_655 S
H1136 C1166 0.950 . S
H1137 C1167 0.950 . S
C1138 H1120 0.951 1_455 S
C1138 C1139 1.366 . S
C1138 C1140 1.388 1_455 S
C1139 C1138 1.366 . S
C1139 C1143 1.385 . S
C1140 H1121 0.951 . S
C1140 C1138 1.388 1_655 S
C1140 C1141 1.366 1_655 S
C1141 C1140 1.366 1_455 S
C1141 C1142 1.414 . S
C1141 C1144 1.499 . S
C1142 H1122 0.950 . S
C1142 C1141 1.414 . S
C1142 C1143 1.374 . S
C1143 H1123 0.950 . S
C1143 C1139 1.385 . S
C1143 C1142 1.374 . S
C1144 C1141 1.499 . S
C1144 C1145 1.373 . S
C1144 C1146 1.389 1_455 S
C1145 H1124 0.950 . S
C1145 C1144 1.373 . S
C1145 C1161 1.377 . S
C1146 C1144 1.389 1_655 S
C1146 C1147 1.524 . S
C1146 C1160 1.377 . S
C1147 C1146 1.524 . S
C1147 C1148 1.397 1_655 S
C1147 C1152 1.363 . S
C1148 H1125 0.950 . S
C1148 C1147 1.397 1_455 S
C1148 C1149 1.334 . S
C1149 H1126 0.950 . S
C1149 C1148 1.334 . S
C1149 C1150 1.287 1_455 S
C1150 C1149 1.287 1_655 S
C1150 C1151 1.524 . S
C1150 H1169 0.913 . S
C1151 H1127 0.950 . S
C1151 C1150 1.524 . S
C1151 C1152 1.415 . S
C1152 H1128 0.950 . S
C1152 C1147 1.363 . S
C1152 C1151 1.415 . S
C1153 H1129 0.951 . S
C1153 C1154 1.366 1_455 S
C1153 C1155 1.388 . S
C1154 C1153 1.366 1_655 S
C1154 C1158 1.385 . S
C1155 H1130 0.951 . S
C1155 C1153 1.388 . S
C1155 C1156 1.366 1_455 S
C1156 C1155 1.366 1_655 S
C1156 C1157 1.414 . S
C1156 C1159 1.499 . S
C1157 H1131 0.950 . S
C1157 C1156 1.414 . S
C1157 C1158 1.374 . S
C1158 H1132 0.950 . S
C1158 C1154 1.385 . S
C1158 C1157 1.374 . S
C1159 C1156 1.499 . S
C1159 C1160 1.373 . S
C1159 C1161 1.389 1_655 S
C1160 H1133 0.950 . S
C1160 C1146 1.377 . S
C1160 C1159 1.373 . S
C1161 C1145 1.377 . S
C1161 C1159 1.389 1_455 S
C1161 C1162 1.524 . S
C1162 C1161 1.524 . S
C1162 C1163 1.397 . S
C1162 C1167 1.363 . S
C1163 H1134 0.950 1_455 S
C1163 C1162 1.397 . S
C1163 C1164 1.334 . S
C1164 H1135 0.950 1_455 S
C1164 C1163 1.334 . S
C1164 C1165 1.287 . S
C1165 C1164 1.287 . S
C1165 C1166 1.524 . S
C1165 H1168 0.999 . S
C1166 H1136 0.950 . S
C1166 C1165 1.524 . S
C1166 C1167 1.415 . S
C1167 H1137 0.950 . S
C1167 C1162 1.363 . S
C1167 C1166 1.415 . S
H1168 C1165 0.999 . S
H1169 C1150 0.913 . S
H1170 C1188 0.951 . S
H1171 C1190 0.951 . S
H1172 C1192 0.950 . S
H1173 C1193 0.950 . S
H1174 C1195 0.950 . S
H1175 C1198 0.950 . S
H1176 C1199 0.950 . S
H1177 C1201 0.950 . S
H1178 C1202 0.950 1_655 S
H1179 C1203 0.951 . S
H1180 C1205 0.951 . S
H1181 C1207 0.952 . S
H1182 C1208 0.950 . S
H1183 C1210 0.950 . S
H1184 C1213 0.950 . S
H1185 C1214 0.950 . S
H1186 C1216 0.950 . S
H1187 C1217 0.950 . S
C1188 H1170 0.951 . S
C1188 C1189 1.366 . S
C1188 C1190 1.388 . S
C1189 C1188 1.366 . S
C1189 C1193 1.385 . S
C1190 H1171 0.951 . S
C1190 C1188 1.388 . S
C1190 C1191 1.366 . S
C1191 C1190 1.366 . S
C1191 C1192 1.414 . S
C1191 C1194 1.499 . S
C1192 H1172 0.950 . S
C1192 C1191 1.414 . S
C1192 C1193 1.374 . S
C1193 H1173 0.950 . S
C1193 C1189 1.385 . S
C1193 C1192 1.374 . S
C1194 C1191 1.499 . S
C1194 C1195 1.373 . S
C1194 C1196 1.385 1_655 S
C1195 H1174 0.950 . S
C1195 C1194 1.373 . S
C1195 C1211 1.377 . S
C1196 C1194 1.385 1_455 S
C1196 C1197 1.528 . S
C1196 C1210 1.378 . S
C1197 C1196 1.528 . S
C1197 C1198 1.397 . S
C1197 C1202 1.363 . S
C1198 H1175 0.950 . S
C1198 C1197 1.397 . S
C1198 C1199 1.334 . S
C1199 H1176 0.950 . S
C1199 C1198 1.334 . S
C1199 C1200 1.287 . S
C1200 C1199 1.287 . S
C1200 C1201 1.524 . S
C1200 H1219 0.913 . S
C1201 H1177 0.950 . S
C1201 C1200 1.524 . S
C1201 C1202 1.415 . S
C1202 H1178 0.950 1_455 S
C1202 C1197 1.363 . S
C1202 C1201 1.415 . S
C1203 H1179 0.951 . S
C1203 C1204 1.366 . S
C1203 C1205 1.388 . S
C1204 C1203 1.366 . S
C1204 C1208 1.385 . S
C1205 H1180 0.951 . S
C1205 C1203 1.388 . S
C1205 C1206 1.366 . S
C1206 C1205 1.366 . S
C1206 C1207 1.413 1_455 S
C1206 C1209 1.499 1_455 S
C1207 H1181 0.952 . S
C1207 C1206 1.413 1_655 S
C1207 C1208 1.373 1_655 S
C1208 H1182 0.950 . S
C1208 C1204 1.385 . S
C1208 C1207 1.373 1_455 S
C1209 C1206 1.499 1_655 S
C1209 C1210 1.373 1_655 S
C1209 C1211 1.389 . S
C1210 H1183 0.950 . S
C1210 C1196 1.378 . S
C1210 C1209 1.373 1_455 S
C1211 C1195 1.377 . S
C1211 C1209 1.389 . S
C1211 C1212 1.524 . S
C1212 C1211 1.524 . S
C1212 C1213 1.397 . S
C1212 C1217 1.363 . S
C1213 H1184 0.950 . S
C1213 C1212 1.397 . S
C1213 C1214 1.334 . S
C1214 H1185 0.950 . S
C1214 C1213 1.334 . S
C1214 C1215 1.287 . S
C1215 C1214 1.287 . S
C1215 C1216 1.524 . S
C1215 H1218 0.999 . S
C1216 H1186 0.950 . S
C1216 C1215 1.524 . S
C1216 C1217 1.415 . S
C1217 H1187 0.950 . S
C1217 C1212 1.363 . S
C1217 C1216 1.415 . S
H1218 C1215 0.999 . S
H1219 C1200 0.913 . S
H1220 C1238 0.951 . S
H1221 C1240 0.951 . S
H1222 C1242 0.950 . S
H1223 C1243 0.950 . S
H1224 C1245 0.950 . S
H1225 C1248 0.950 . S
H1226 C1249 0.950 . S
H1227 C1251 0.950 . S
H1228 C1252 0.950 . S
H1229 C1253 0.951 . S
H1230 C1255 0.954 . S
H1231 C1257 0.950 . S
H1232 C1258 0.950 . S
H1233 C1260 0.950 . S
H1234 C1263 0.950 . S
H1235 C1264 0.950 . S
H1236 C1266 0.950 . S
H1237 C1267 0.950 . S
C1238 H1220 0.951 . S
C1238 C1239 1.366 . S
C1238 C1240 1.388 . S
C1239 C1238 1.366 . S
C1239 C1243 1.385 . S
C1240 H1221 0.951 . S
C1240 C1238 1.388 . S
C1240 C1241 1.366 . S
C1241 C1240 1.366 . S
C1241 C1242 1.414 . S
C1241 C1244 1.499 . S
C1242 H1222 0.950 . S
C1242 C1241 1.414 . S
C1242 C1243 1.374 . S
C1243 H1223 0.950 . S
C1243 C1239 1.385 . S
C1243 C1242 1.374 . S
C1244 C1241 1.499 . S
C1244 C1245 1.373 . S
C1244 C1246 1.389 1_655 S
C1245 H1224 0.950 . S
C1245 C1244 1.373 . S
C1245 C1261 1.377 . S
C1246 C1244 1.389 1_455 S
C1246 C1247 1.524 . S
C1246 C1260 1.377 . S
C1247 C1246 1.524 . S
C1247 C1248 1.397 . S
C1247 C1252 1.363 . S
C1248 H1225 0.950 . S
C1248 C1247 1.397 . S
C1248 C1249 1.334 . S
C1249 H1226 0.950 . S
C1249 C1248 1.334 . S
C1249 C1250 1.287 . S
C1250 C1249 1.287 . S
C1250 C1251 1.524 . S
C1250 H1269 0.913 . S
C1251 H1227 0.950 . S
C1251 C1250 1.524 . S
C1251 C1252 1.415 . S
C1252 H1228 0.950 . S
C1252 C1247 1.363 . S
C1252 C1251 1.415 . S
C1253 H1229 0.951 . S
C1253 C1254 1.366 . S
C1253 C1255 1.388 . S
C1254 C1253 1.366 . S
C1254 C1258 1.385 . S
C1255 H1230 0.954 . S
C1255 C1253 1.388 . S
C1255 C1256 1.366 . S
C1256 C1255 1.366 . S
C1256 C1257 1.414 . S
C1256 C1259 1.499 . S
C1257 H1231 0.950 . S
C1257 C1256 1.414 . S
C1257 C1258 1.374 . S
C1258 H1232 0.950 . S
C1258 C1254 1.385 . S
C1258 C1257 1.374 . S
C1259 C1256 1.499 . S
C1259 C1260 1.373 . S
C1259 C1261 1.389 1_455 S
C1260 H1233 0.950 . S
C1260 C1246 1.377 . S
C1260 C1259 1.373 . S
C1261 C1245 1.377 . S
C1261 C1259 1.389 1_655 S
C1261 C1262 1.524 . S
C1262 C1261 1.524 . S
C1262 C1263 1.397 . S
C1262 C1267 1.363 . S
C1263 H1234 0.950 . S
C1263 C1262 1.397 . S
C1263 C1264 1.334 . S
C1264 H1235 0.950 . S
C1264 C1263 1.334 . S
C1264 C1265 1.287 . S
C1265 C1264 1.287 . S
C1265 C1266 1.524 . S
C1265 H1268 0.999 . S
C1266 H1236 0.950 . S
C1266 C1265 1.524 . S
C1266 C1267 1.415 . S
C1267 H1237 0.950 . S
C1267 C1262 1.363 . S
C1267 C1266 1.415 . S
H1268 C1265 0.999 . S
H1269 C1250 0.913 . S
H1270 C1288 0.951 . S
H1271 C1290 0.951 . S
H1272 C1292 0.950 . S
H1273 C1293 0.950 . S
H1274 C1295 0.950 . S
H1275 C1298 0.950 . S
H1276 C1299 0.950 . S
H1277 C1301 0.950 . S
H1278 C1302 0.950 . S
H1279 C1303 0.951 . S
H1280 C1305 0.951 1_655 S
H1281 C1307 0.950 . S
H1282 C1308 0.950 . S
H1283 C1310 0.950 . S
H1284 C1313 0.950 . S
H1285 C1314 0.950 . S
H1286 C1316 0.950 . S
H1287 C1317 0.950 . S
C1288 H1270 0.951 . S
C1288 C1289 1.366 1_455 S
C1288 C1290 1.388 . S
C1289 C1288 1.366 1_655 S
C1289 C1293 1.385 . S
C1290 H1271 0.951 . S
C1290 C1288 1.388 . S
C1290 C1291 1.366 1_455 S
C1291 C1290 1.366 1_655 S
C1291 C1292 1.414 . S
C1291 C1294 1.499 . S
C1292 H1272 0.950 . S
C1292 C1291 1.414 . S
C1292 C1293 1.374 . S
C1293 H1273 0.950 . S
C1293 C1289 1.385 . S
C1293 C1292 1.374 . S
C1294 C1291 1.499 . S
C1294 C1295 1.373 . S
C1294 C1296 1.389 1_655 S
C1295 H1274 0.950 . S
C1295 C1294 1.373 . S
C1295 C1311 1.377 1_655 S
C1296 C1294 1.389 1_455 S
C1296 C1297 1.524 . S
C1296 C1310 1.377 . S
C1297 C1296 1.524 . S
C1297 C1298 1.397 1_455 S
C1297 C1302 1.363 . S
C1298 H1275 0.950 . S
C1298 C1297 1.397 1_655 S
C1298 C1299 1.334 . S
C1299 H1276 0.950 . S
C1299 C1298 1.334 . S
C1299 C1300 1.287 . S
C1300 C1299 1.287 . S
C1300 C1301 1.524 1_655 S
C1300 H1319 0.913 . S
C1301 H1277 0.950 . S
C1301 C1300 1.524 1_455 S
C1301 C1302 1.415 . S
C1302 H1278 0.950 . S
C1302 C1297 1.363 . S
C1302 C1301 1.415 . S
C1303 H1279 0.951 . S
C1303 C1304 1.366 . S
C1303 C1305 1.388 . S
C1304 C1303 1.366 . S
C1304 C1308 1.385 . S
C1305 H1280 0.951 1_455 S
C1305 C1303 1.388 . S
C1305 C1306 1.366 . S
C1306 C1305 1.366 . S
C1306 C1307 1.414 . S
C1306 C1309 1.499 . S
C1307 H1281 0.950 . S
C1307 C1306 1.414 . S
C1307 C1308 1.374 . S
C1308 H1282 0.950 . S
C1308 C1304 1.385 . S
C1308 C1307 1.374 . S
C1309 C1306 1.499 . S
C1309 C1310 1.373 . S
C1309 C1311 1.389 . S
C1310 H1283 0.950 . S
C1310 C1296 1.377 . S
C1310 C1309 1.373 . S
C1311 C1295 1.377 1_455 S
C1311 C1309 1.389 . S
C1311 C1312 1.524 . S
C1312 C1311 1.524 . S
C1312 C1313 1.397 . S
C1312 C1317 1.363 1_455 S
C1313 H1284 0.950 . S
C1313 C1312 1.397 . S
C1313 C1314 1.334 . S
C1314 H1285 0.950 . S
C1314 C1313 1.334 . S
C1314 C1315 1.287 . S
C1315 C1314 1.287 . S
C1315 C1316 1.524 1_455 S
C1315 H1318 0.999 . S
C1316 H1286 0.950 . S
C1316 C1315 1.524 1_655 S
C1316 C1317 1.415 . S
C1317 H1287 0.950 . S
C1317 C1312 1.363 1_655 S
C1317 C1316 1.415 . S
H1318 C1315 0.999 . S
H1319 C1300 0.913 . S
H1320 C1338 0.951 . S
H1321 C1340 0.951 . S
H1322 C1342 0.950 . S
H1323 C1343 0.950 . S
H1324 C1345 0.950 . S
H1325 C1348 0.950 . S
H1326 C1349 0.950 . S
H1327 C1351 0.950 . S
H1328 C1352 0.950 . S
H1329 C1353 0.951 . S
H1330 C1355 0.951 . S
H1331 C1357 0.950 . S
H1332 C1358 0.950 . S
H1333 C1360 0.950 . S
H1334 C1363 0.950 . S
H1335 C1364 0.950 . S
H1336 C1366 0.950 . S
H1337 C1367 0.950 . S
C1338 H1320 0.951 . S
C1338 C1339 1.366 . S
C1338 C1340 1.388 . S
C1339 C1338 1.366 . S
C1339 C1343 1.385 . S
C1340 H1321 0.951 . S
C1340 C1338 1.388 . S
C1340 C1341 1.366 . S
C1341 C1340 1.366 . S
C1341 C1342 1.414 . S
C1341 C1344 1.499 . S
C1342 H1322 0.950 . S
C1342 C1341 1.414 . S
C1342 C1343 1.374 . S
C1343 H1323 0.950 . S
C1343 C1339 1.385 . S
C1343 C1342 1.374 . S
C1344 C1341 1.499 . S
C1344 C1345 1.373 . S
C1344 C1346 1.389 . S
C1345 H1324 0.950 . S
C1345 C1344 1.373 . S
C1345 C1361 1.377 . S
C1346 C1344 1.389 . S
C1346 C1347 1.524 . S
C1346 C1360 1.377 . S
C1347 C1346 1.524 . S
C1347 C1348 1.397 . S
C1347 C1352 1.363 . S
C1348 H1325 0.950 . S
C1348 C1347 1.397 . S
C1348 C1349 1.334 . S
C1349 H1326 0.950 . S
C1349 C1348 1.334 . S
C1349 C1350 1.287 . S
C1350 C1349 1.287 . S
C1350 C1351 1.524 . S
C1350 H1369 0.913 . S
C1351 H1327 0.950 . S
C1351 C1350 1.524 . S
C1351 C1352 1.415 . S
C1352 H1328 0.950 . S
C1352 C1347 1.363 . S
C1352 C1351 1.415 . S
C1353 H1329 0.951 . S
C1353 C1354 1.366 . S
C1353 C1355 1.388 . S
C1354 C1353 1.366 . S
C1354 C1358 1.385 . S
C1355 H1330 0.951 . S
C1355 C1353 1.388 . S
C1355 C1356 1.366 . S
C1356 C1355 1.366 . S
C1356 C1357 1.414 . S
C1356 C1359 1.499 . S
C1357 H1331 0.950 . S
C1357 C1356 1.414 . S
C1357 C1358 1.374 . S
C1358 H1332 0.950 . S
C1358 C1354 1.385 . S
C1358 C1357 1.374 . S
C1359 C1356 1.499 . S
C1359 C1360 1.373 . S
C1359 C1361 1.389 . S
C1360 H1333 0.950 . S
C1360 C1346 1.377 . S
C1360 C1359 1.373 . S
C1361 C1345 1.377 . S
C1361 C1359 1.389 . S
C1361 C1362 1.524 . S
C1362 C1361 1.524 . S
C1362 C1363 1.397 . S
C1362 C1367 1.363 . S
C1363 H1334 0.950 . S
C1363 C1362 1.397 . S
C1363 C1364 1.334 . S
C1364 H1335 0.950 . S
C1364 C1363 1.334 . S
C1364 C1365 1.287 . S
C1365 C1364 1.287 . S
C1365 C1366 1.524 . S
C1365 H1368 0.999 . S
C1366 H1336 0.950 . S
C1366 C1365 1.524 . S
C1366 C1367 1.415 . S
C1367 H1337 0.950 . S
C1367 C1362 1.363 . S
C1367 C1366 1.415 . S
H1368 C1365 0.999 . S
H1369 C1350 0.913 . S
H1370 C1388 0.951 . S
H1371 C1390 0.951 . S
H1372 C1392 0.950 . S
H1373 C1393 0.950 . S
H1374 C1395 0.950 . S
H1375 C1398 0.950 . S
H1376 C1399 0.950 . S
H1377 C1401 0.950 . S
H1378 C1402 0.950 . S
H1379 C1403 0.951 . S
H1380 C1405 0.951 . S
H1381 C1407 0.950 . S
H1382 C1408 0.950 . S
H1383 C1410 0.950 . S
H1384 C1413 0.950 . S
H1385 C1414 0.950 . S
H1386 C1416 0.950 . S
H1387 C1417 0.950 . S
C1388 H1370 0.951 . S
C1388 C1389 1.366 . S
C1388 C1390 1.388 . S
C1389 C1388 1.366 . S
C1389 C1393 1.385 . S
C1390 H1371 0.951 . S
C1390 C1388 1.388 . S
C1390 C1391 1.366 . S
C1391 C1390 1.366 . S
C1391 C1392 1.414 . S
C1391 C1394 1.499 . S
C1392 H1372 0.950 . S
C1392 C1391 1.414 . S
C1392 C1393 1.374 . S
C1393 H1373 0.950 . S
C1393 C1389 1.385 . S
C1393 C1392 1.374 . S
C1394 C1391 1.499 . S
C1394 C1395 1.373 . S
C1394 C1396 1.389 . S
C1395 H1374 0.950 . S
C1395 C1394 1.373 . S
C1395 C1411 1.377 . S
C1396 C1394 1.389 . S
C1396 C1397 1.524 . S
C1396 C1410 1.377 . S
C1397 C1396 1.524 . S
C1397 C1398 1.397 . S
C1397 C1402 1.363 . S
C1398 H1375 0.950 . S
C1398 C1397 1.397 . S
C1398 C1399 1.334 . S
C1399 H1376 0.950 . S
C1399 C1398 1.334 . S
C1399 C1400 1.287 . S
C1400 C1399 1.287 . S
C1400 C1401 1.524 . S
C1400 H1419 0.913 . S
C1401 H1377 0.950 . S
C1401 C1400 1.524 . S
C1401 C1402 1.415 . S
C1402 H1378 0.950 . S
C1402 C1397 1.363 . S
C1402 C1401 1.415 . S
C1403 H1379 0.951 . S
C1403 C1404 1.366 . S
C1403 C1405 1.388 . S
C1404 C1403 1.366 . S
C1404 C1408 1.385 . S
C1405 H1380 0.951 . S
C1405 C1403 1.388 . S
C1405 C1406 1.366 . S
C1406 C1405 1.366 . S
C1406 C1407 1.414 . S
C1406 C1409 1.499 . S
C1407 H1381 0.950 . S
C1407 C1406 1.414 . S
C1407 C1408 1.374 . S
C1408 H1382 0.950 . S
C1408 C1404 1.385 . S
C1408 C1407 1.374 . S
C1409 C1406 1.499 . S
C1409 C1410 1.373 . S
C1409 C1411 1.389 . S
C1410 H1383 0.950 . S
C1410 C1396 1.377 . S
C1410 C1409 1.373 . S
C1411 C1395 1.377 . S
C1411 C1409 1.389 . S
C1411 C1412 1.524 . S
C1412 C1411 1.524 . S
C1412 C1413 1.397 . S
C1412 C1417 1.363 . S
C1413 H1384 0.950 . S
C1413 C1412 1.397 . S
C1413 C1414 1.334 . S
C1414 H1385 0.950 . S
C1414 C1413 1.334 . S
C1414 C1415 1.287 . S
C1415 C1414 1.287 . S
C1415 C1416 1.524 . S
C1415 H1418 0.999 . S
C1416 H1386 0.950 . S
C1416 C1415 1.524 . S
C1416 C1417 1.415 . S
C1417 H1387 0.950 . S
C1417 C1412 1.363 . S
C1417 C1416 1.415 . S
H1418 C1415 0.999 . S
H1419 C1400 0.913 . S
H1420 C1438 0.951 . S
H1421 C1440 0.951 . S
H1422 C1442 0.950 . S
H1423 C1443 0.950 . S
H1424 C1445 0.950 . S
H1425 C1448 0.950 . S
H1426 C1449 0.950 . S
H1427 C1451 0.950 . S
H1428 C1452 0.950 . S
H1429 C1453 0.951 . S
H1430 C1455 0.951 . S
H1431 C1457 0.950 . S
H1432 C1458 0.950 . S
H1433 C1460 0.950 . S
H1434 C1463 0.950 . S
H1435 C1464 0.950 . S
H1436 C1466 0.950 . S
H1437 C1467 0.950 . S
C1438 H1420 0.951 . S
C1438 C1439 1.366 . S
C1438 C1440 1.388 . S
C1439 C1438 1.366 . S
C1439 C1443 1.385 . S
C1440 H1421 0.951 . S
C1440 C1438 1.388 . S
C1440 C1441 1.366 . S
C1441 C1440 1.366 . S
C1441 C1442 1.414 . S
C1441 C1444 1.499 . S
C1442 H1422 0.950 . S
C1442 C1441 1.414 . S
C1442 C1443 1.374 . S
C1443 H1423 0.950 . S
C1443 C1439 1.385 . S
C1443 C1442 1.374 . S
C1444 C1441 1.499 . S
C1444 C1445 1.373 . S
C1444 C1446 1.389 . S
C1445 H1424 0.950 . S
C1445 C1444 1.373 . S
C1445 C1461 1.377 . S
C1446 C1444 1.389 . S
C1446 C1447 1.524 . S
C1446 C1460 1.377 . S
C1447 C1446 1.524 . S
C1447 C1448 1.397 . S
C1447 C1452 1.363 . S
C1448 H1425 0.950 . S
C1448 C1447 1.397 . S
C1448 C1449 1.334 . S
C1449 H1426 0.950 . S
C1449 C1448 1.334 . S
C1449 C1450 1.287 . S
C1450 C1449 1.287 . S
C1450 C1451 1.524 . S
C1450 H1469 0.913 . S
C1451 H1427 0.950 . S
C1451 C1450 1.524 . S
C1451 C1452 1.415 . S
C1452 H1428 0.950 . S
C1452 C1447 1.363 . S
C1452 C1451 1.415 . S
C1453 H1429 0.951 . S
C1453 C1454 1.366 . S
C1453 C1455 1.388 . S
C1454 C1453 1.366 . S
C1454 C1458 1.385 . S
C1455 H1430 0.951 . S
C1455 C1453 1.388 . S
C1455 C1456 1.366 . S
C1456 C1455 1.366 . S
C1456 C1457 1.414 . S
C1456 C1459 1.499 . S
C1457 H1431 0.950 . S
C1457 C1456 1.414 . S
C1457 C1458 1.374 . S
C1458 H1432 0.950 . S
C1458 C1454 1.385 . S
C1458 C1457 1.374 . S
C1459 C1456 1.499 . S
C1459 C1460 1.373 . S
C1459 C1461 1.389 . S
C1460 H1433 0.950 . S
C1460 C1446 1.377 . S
C1460 C1459 1.373 . S
C1461 C1445 1.377 . S
C1461 C1459 1.389 . S
C1461 C1462 1.524 . S
C1462 C1461 1.524 . S
C1462 C1463 1.397 . S
C1462 C1467 1.363 . S
C1463 H1434 0.950 . S
C1463 C1462 1.397 . S
C1463 C1464 1.334 . S
C1464 H1435 0.950 . S
C1464 C1463 1.334 . S
C1464 C1465 1.287 . S
C1465 C1464 1.287 . S
C1465 C1466 1.524 . S
C1465 H1468 0.999 . S
C1466 H1436 0.950 . S
C1466 C1465 1.524 . S
C1466 C1467 1.415 . S
C1467 H1437 0.950 . S
C1467 C1462 1.363 . S
C1467 C1466 1.415 . S
H1468 C1465 0.999 . S
H1469 C1450 0.913 . S
H1470 C1488 0.951 . S
H1471 C1490 0.951 . S
H1472 C1492 0.950 . S
H1473 C1493 0.950 . S
H1474 C1495 0.950 . S
H1475 C1498 0.950 . S
H1476 C1499 0.950 . S
H1477 C1501 0.950 . S
H1478 C1502 0.950 . S
H1479 C1503 0.951 . S
H1480 C1505 0.951 . S
H1481 C1507 0.950 . S
H1482 C1508 0.950 . S
H1483 C1510 0.950 . S
H1484 C1513 0.950 . S
H1485 C1514 0.950 . S
H1486 C1516 0.950 . S
H1487 C1517 0.950 . S
C1488 H1470 0.951 . S
C1488 C1489 1.366 . S
C1488 C1490 1.388 . S
C1489 C1488 1.366 . S
C1489 C1493 1.385 . S
C1490 H1471 0.951 . S
C1490 C1488 1.388 . S
C1490 C1491 1.366 . S
C1491 C1490 1.366 . S
C1491 C1492 1.414 . S
C1491 C1494 1.499 . S
C1492 H1472 0.950 . S
C1492 C1491 1.414 . S
C1492 C1493 1.374 . S
C1493 H1473 0.950 . S
C1493 C1489 1.385 . S
C1493 C1492 1.374 . S
C1494 C1491 1.499 . S
C1494 C1495 1.373 . S
C1494 C1496 1.389 . S
C1495 H1474 0.950 . S
C1495 C1494 1.373 . S
C1495 C1511 1.377 . S
C1496 C1494 1.389 . S
C1496 C1497 1.524 . S
C1496 C1510 1.377 . S
C1497 C1496 1.524 . S
C1497 C1498 1.397 . S
C1497 C1502 1.363 . S
C1498 H1475 0.950 . S
C1498 C1497 1.397 . S
C1498 C1499 1.334 . S
C1499 H1476 0.950 . S
C1499 C1498 1.334 . S
C1499 C1500 1.287 . S
C1500 C1499 1.287 . S
C1500 C1501 1.524 . S
C1500 H1519 0.913 . S
C1501 H1477 0.950 . S
C1501 C1500 1.524 . S
C1501 C1502 1.415 . S
C1502 H1478 0.950 . S
C1502 C1497 1.363 . S
C1502 C1501 1.415 . S
C1503 H1479 0.951 . S
C1503 C1504 1.366 . S
C1503 C1505 1.388 . S
C1504 C1503 1.366 . S
C1504 C1508 1.385 . S
C1505 H1480 0.951 . S
C1505 C1503 1.388 . S
C1505 C1506 1.366 . S
C1506 C1505 1.366 . S
C1506 C1507 1.414 . S
C1506 C1509 1.499 . S
C1507 H1481 0.950 . S
C1507 C1506 1.414 . S
C1507 C1508 1.374 . S
C1508 H1482 0.950 . S
C1508 C1504 1.385 . S
C1508 C1507 1.374 . S
C1509 C1506 1.499 . S
C1509 C1510 1.373 . S
C1509 C1511 1.389 . S
C1510 H1483 0.950 . S
C1510 C1496 1.377 . S
C1510 C1509 1.373 . S
C1511 C1495 1.377 . S
C1511 C1509 1.389 . S
C1511 C1512 1.524 . S
C1512 C1511 1.524 . S
C1512 C1513 1.397 . S
C1512 C1517 1.363 . S
C1513 H1484 0.950 . S
C1513 C1512 1.397 . S
C1513 C1514 1.334 . S
C1514 H1485 0.950 . S
C1514 C1513 1.334 . S
C1514 C1515 1.287 . S
C1515 C1514 1.287 . S
C1515 C1516 1.524 . S
C1515 H1518 0.999 . S
C1516 H1486 0.950 . S
C1516 C1515 1.524 . S
C1516 C1517 1.415 . S
C1517 H1487 0.950 . S
C1517 C1512 1.363 . S
C1517 C1516 1.415 . S
H1518 C1515 0.999 . S
H1519 C1500 0.913 . S
C339 C15 0.562 . S
C354 C6 0.562 . S
C389 C55 0.566 . S
C404 C46 0.566 . S
C439 C99 5.076 . S
C454 C90 5.076 . S
C489 C139 5.077 . S
C504 C130 5.077 . S
C539 C175 0.563 . S
C554 C166 0.563 . S
C589 C206 0.564 . S
C604 C215 0.564 . S
C639 C259 5.076 . S
C654 C250 5.076 . S
C689 C290 5.077 . S
C704 C299 5.077 . S
C739 C59 4.746 . S
C754 C10 4.746 . S
C789 C126 0.573 . S
C804 C95 0.573 . S
C839 C170 4.746 . S
C854 C219 4.746 . S
C889 C255 0.576 . S
C904 C286 0.576 . S
C939 C19 4.261 . S
C954 C210 4.261 . S
C989 C179 4.261 . S
C1004 C50 4.261 . S
C1039 C86 0.434 . S
C1054 C295 0.434 . S
C1089 C135 0.434 . S
C1104 C246 0.434 . S
C1139 C18 1.682 . S
C1154 C129 1.642 . S
C1189 C58 1.486 . S
C1204 C89 1.539 . S
C1239 C49 1.682 . S
C1254 C98 1.643 . S
C1289 C138 1.539 . S
C1304 C9 1.485 . S
C1339 C178 1.682 . S
C1354 C289 1.643 . S
C1389 C218 1.485 . S
C1404 C249 1.538 . S
C1439 C209 1.681 . S
C1454 C258 1.643 . S
C1489 C298 1.538 . S
C1504 C169 1.486 . S
