# Generated by pormake.
# Topology wir, (6)-cn, num edge types: 1
# Building blocks:
#     Node 0, Type 0, BuildingBlock: BETFEN_clean_sbu_0, # of connection points: 6
#     Node 1, Type 0, BuildingBlock: BETFEN_clean_sbu_0, # of connection points: 6
#     Node 2, Type 0, BuildingBlock: BETFEN_clean_sbu_0, # of connection points: 6
#     Node 3, Type 0, BuildingBlock: BETFEN_clean_sbu_0, # of connection points: 6
#     Node 4, Type 0, BuildingBlock: BETFEN_clean_sbu_0, # of connection points: 6
#     Node 5, Type 0, BuildingBlock: BETFEN_clean_sbu_0, # of connection points: 6
#     Node 6, Type 0, BuildingBlock: BETFEN_clean_sbu_0, # of connection points: 6
#     Node 7, Type 0, BuildingBlock: BETFEN_clean_sbu_0, # of connection points: 6
#     Node 8, Type 0, BuildingBlock: BETFEN_clean_sbu_0, # of connection points: 6
#     Node 9, Type 0, BuildingBlock: BETFEN_clean_sbu_0, # of connection points: 6
#     Node 10, Type 0, BuildingBlock: BETFEN_clean_sbu_0, # of connection points: 6
#     Node 11, Type 0, BuildingBlock: BETFEN_clean_sbu_0, # of connection points: 6
#     Node 12, Type 0, BuildingBlock: BETFEN_clean_sbu_0, # of connection points: 6
#     Node 13, Type 0, BuildingBlock: BETFEN_clean_sbu_0, # of connection points: 6
#     Node 14, Type 0, BuildingBlock: BETFEN_clean_sbu_0, # of connection points: 6
#     Node 15, Type 0, BuildingBlock: BETFEN_clean_sbu_0, # of connection points: 6
#     Node 16, Type 0, BuildingBlock: BETFEN_clean_sbu_0, # of connection points: 6
#     Node 17, Type 0, BuildingBlock: BETFEN_clean_sbu_0, # of connection points: 6
#     Node 18, Type 0, BuildingBlock: BETFEN_clean_sbu_0, # of connection points: 6
#     Node 19, Type 0, BuildingBlock: BETFEN_clean_sbu_0, # of connection points: 6
#     Node 20, Type 0, BuildingBlock: BETFEN_clean_sbu_0, # of connection points: 6
#     Node 21, Type 0, BuildingBlock: BETFEN_clean_sbu_0, # of connection points: 6
#     Node 22, Type 0, BuildingBlock: BETFEN_clean_sbu_0, # of connection points: 6
#     Node 23, Type 0, BuildingBlock: BETFEN_clean_sbu_0, # of connection points: 6
#     Node 24, Type 0, BuildingBlock: BETFEN_clean_sbu_0, # of connection points: 6
#     Node 25, Type 0, BuildingBlock: BETFEN_clean_sbu_0, # of connection points: 6
#     Node 26, Type 0, BuildingBlock: BETFEN_clean_sbu_0, # of connection points: 6
#     Node 27, Type 0, BuildingBlock: BETFEN_clean_sbu_0, # of connection points: 6
#     Node 28, Type 0, BuildingBlock: BETFEN_clean_sbu_0, # of connection points: 6
#     Node 29, Type 0, BuildingBlock: BETFEN_clean_sbu_0, # of connection points: 6
#     Node 30, Type 0, BuildingBlock: BETFEN_clean_sbu_0, # of connection points: 6
#     Node 31, Type 0, BuildingBlock: BETFEN_clean_sbu_0, # of connection points: 6
#     Edge 32, Type (0, 0), BuildingBlock: AJUNOK_clean_linker_0, # of connection points: 2
#     Edge 33, Type (0, 0), BuildingBlock: AJUNOK_clean_linker_0, # of connection points: 2
#     Edge 34, Type (0, 0), BuildingBlock: AJUNOK_clean_linker_0, # of connection points: 2
#     Edge 35, Type (0, 0), BuildingBlock: AJUNOK_clean_linker_0, # of connection points: 2
#     Edge 36, Type (0, 0), BuildingBlock: AJUNOK_clean_linker_0, # of connection points: 2
#     Edge 37, Type (0, 0), BuildingBlock: AJUNOK_clean_linker_0, # of connection points: 2
#     Edge 38, Type (0, 0), BuildingBlock: AJUNOK_clean_linker_0, # of connection points: 2
#     Edge 39, Type (0, 0), BuildingBlock: AJUNOK_clean_linker_0, # of connection points: 2
#     Edge 40, Type (0, 0), BuildingBlock: AJUNOK_clean_linker_0, # of connection points: 2
#     Edge 41, Type (0, 0), BuildingBlock: AJUNOK_clean_linker_0, # of connection points: 2
#     Edge 42, Type (0, 0), BuildingBlock: AJUNOK_clean_linker_0, # of connection points: 2
#     Edge 43, Type (0, 0), BuildingBlock: AJUNOK_clean_linker_0, # of connection points: 2
#     Edge 44, Type (0, 0), BuildingBlock: AJUNOK_clean_linker_0, # of connection points: 2
#     Edge 45, Type (0, 0), BuildingBlock: AJUNOK_clean_linker_0, # of connection points: 2
#     Edge 46, Type (0, 0), BuildingBlock: AJUNOK_clean_linker_0, # of connection points: 2
#     Edge 47, Type (0, 0), BuildingBlock: AJUNOK_clean_linker_0, # of connection points: 2
#     Edge 48, Type (0, 0), BuildingBlock: AJUNOK_clean_linker_0, # of connection points: 2
#     Edge 49, Type (0, 0), BuildingBlock: AJUNOK_clean_linker_0, # of connection points: 2
#     Edge 50, Type (0, 0), BuildingBlock: AJUNOK_clean_linker_0, # of connection points: 2
#     Edge 51, Type (0, 0), BuildingBlock: AJUNOK_clean_linker_0, # of connection points: 2
#     Edge 52, Type (0, 0), BuildingBlock: AJUNOK_clean_linker_0, # of connection points: 2
#     Edge 53, Type (0, 0), BuildingBlock: AJUNOK_clean_linker_0, # of connection points: 2
#     Edge 54, Type (0, 0), BuildingBlock: AJUNOK_clean_linker_0, # of connection points: 2
#     Edge 55, Type (0, 0), BuildingBlock: AJUNOK_clean_linker_0, # of connection points: 2
#     Edge 56, Type (0, 0), BuildingBlock: AJUNOK_clean_linker_0, # of connection points: 2
#     Edge 57, Type (0, 0), BuildingBlock: AJUNOK_clean_linker_0, # of connection points: 2
#     Edge 58, Type (0, 0), BuildingBlock: AJUNOK_clean_linker_0, # of connection points: 2
#     Edge 59, Type (0, 0), BuildingBlock: AJUNOK_clean_linker_0, # of connection points: 2
#     Edge 60, Type (0, 0), BuildingBlock: AJUNOK_clean_linker_0, # of connection points: 2
#     Edge 61, Type (0, 0), BuildingBlock: AJUNOK_clean_linker_0, # of connection points: 2
#     Edge 62, Type (0, 0), BuildingBlock: AJUNOK_clean_linker_0, # of connection points: 2
#     Edge 63, Type (0, 0), BuildingBlock: AJUNOK_clean_linker_0, # of connection points: 2
#     Edge 64, Type (0, 0), BuildingBlock: AJUNOK_clean_linker_0, # of connection points: 2
#     Edge 65, Type (0, 0), BuildingBlock: AJUNOK_clean_linker_0, # of connection points: 2
#     Edge 66, Type (0, 0), BuildingBlock: AJUNOK_clean_linker_0, # of connection points: 2
#     Edge 67, Type (0, 0), BuildingBlock: AJUNOK_clean_linker_0, # of connection points: 2
#     Edge 68, Type (0, 0), BuildingBlock: AJUNOK_clean_linker_0, # of connection points: 2
#     Edge 69, Type (0, 0), BuildingBlock: AJUNOK_clean_linker_0, # of connection points: 2
#     Edge 70, Type (0, 0), BuildingBlock: AJUNOK_clean_linker_0, # of connection points: 2
#     Edge 71, Type (0, 0), BuildingBlock: AJUNOK_clean_linker_0, # of connection points: 2
#     Edge 72, Type (0, 0), BuildingBlock: AJUNOK_clean_linker_0, # of connection points: 2
#     Edge 73, Type (0, 0), BuildingBlock: AJUNOK_clean_linker_0, # of connection points: 2
#     Edge 74, Type (0, 0), BuildingBlock: AJUNOK_clean_linker_0, # of connection points: 2
#     Edge 75, Type (0, 0), BuildingBlock: AJUNOK_clean_linker_0, # of connection points: 2
#     Edge 76, Type (0, 0), BuildingBlock: AJUNOK_clean_linker_0, # of connection points: 2
#     Edge 77, Type (0, 0), BuildingBlock: AJUNOK_clean_linker_0, # of connection points: 2
#     Edge 78, Type (0, 0), BuildingBlock: AJUNOK_clean_linker_0, # of connection points: 2
#     Edge 79, Type (0, 0), BuildingBlock: AJUNOK_clean_linker_0, # of connection points: 2
#     Edge 80, Type (0, 0), BuildingBlock: AJUNOK_clean_linker_0, # of connection points: 2
#     Edge 81, Type (0, 0), BuildingBlock: AJUNOK_clean_linker_0, # of connection points: 2
#     Edge 82, Type (0, 0), BuildingBlock: AJUNOK_clean_linker_0, # of connection points: 2
#     Edge 83, Type (0, 0), BuildingBlock: AJUNOK_clean_linker_0, # of connection points: 2
#     Edge 84, Type (0, 0), BuildingBlock: AJUNOK_clean_linker_0, # of connection points: 2
#     Edge 85, Type (0, 0), BuildingBlock: AJUNOK_clean_linker_0, # of connection points: 2
#     Edge 86, Type (0, 0), BuildingBlock: AJUNOK_clean_linker_0, # of connection points: 2
#     Edge 87, Type (0, 0), BuildingBlock: AJUNOK_clean_linker_0, # of connection points: 2
#     Edge 88, Type (0, 0), BuildingBlock: AJUNOK_clean_linker_0, # of connection points: 2
#     Edge 89, Type (0, 0), BuildingBlock: AJUNOK_clean_linker_0, # of connection points: 2
#     Edge 90, Type (0, 0), BuildingBlock: AJUNOK_clean_linker_0, # of connection points: 2
#     Edge 91, Type (0, 0), BuildingBlock: AJUNOK_clean_linker_0, # of connection points: 2
#     Edge 92, Type (0, 0), BuildingBlock: AJUNOK_clean_linker_0, # of connection points: 2
#     Edge 93, Type (0, 0), BuildingBlock: AJUNOK_clean_linker_0, # of connection points: 2
#     Edge 94, Type (0, 0), BuildingBlock: AJUNOK_clean_linker_0, # of connection points: 2
#     Edge 95, Type (0, 0), BuildingBlock: AJUNOK_clean_linker_0, # of connection points: 2
#     Edge 96, Type (0, 0), BuildingBlock: AJUNOK_clean_linker_0, # of connection points: 2
#     Edge 97, Type (0, 0), BuildingBlock: AJUNOK_clean_linker_0, # of connection points: 2
#     Edge 98, Type (0, 0), BuildingBlock: AJUNOK_clean_linker_0, # of connection points: 2
#     Edge 99, Type (0, 0), BuildingBlock: AJUNOK_clean_linker_0, # of connection points: 2
#     Edge 100, Type (0, 0), BuildingBlock: AJUNOK_clean_linker_0, # of connection points: 2
#     Edge 101, Type (0, 0), BuildingBlock: AJUNOK_clean_linker_0, # of connection points: 2
#     Edge 102, Type (0, 0), BuildingBlock: AJUNOK_clean_linker_0, # of connection points: 2
#     Edge 103, Type (0, 0), BuildingBlock: AJUNOK_clean_linker_0, # of connection points: 2
#     Edge 104, Type (0, 0), BuildingBlock: AJUNOK_clean_linker_0, # of connection points: 2
#     Edge 105, Type (0, 0), BuildingBlock: AJUNOK_clean_linker_0, # of connection points: 2
#     Edge 106, Type (0, 0), BuildingBlock: AJUNOK_clean_linker_0, # of connection points: 2
#     Edge 107, Type (0, 0), BuildingBlock: AJUNOK_clean_linker_0, # of connection points: 2
#     Edge 108, Type (0, 0), BuildingBlock: AJUNOK_clean_linker_0, # of connection points: 2
#     Edge 109, Type (0, 0), BuildingBlock: AJUNOK_clean_linker_0, # of connection points: 2
#     Edge 110, Type (0, 0), BuildingBlock: AJUNOK_clean_linker_0, # of connection points: 2
#     Edge 111, Type (0, 0), BuildingBlock: AJUNOK_clean_linker_0, # of connection points: 2
#     Edge 112, Type (0, 0), BuildingBlock: AJUNOK_clean_linker_0, # of connection points: 2
#     Edge 113, Type (0, 0), BuildingBlock: AJUNOK_clean_linker_0, # of connection points: 2
#     Edge 114, Type (0, 0), BuildingBlock: AJUNOK_clean_linker_0, # of connection points: 2
#     Edge 115, Type (0, 0), BuildingBlock: AJUNOK_clean_linker_0, # of connection points: 2
#     Edge 116, Type (0, 0), BuildingBlock: AJUNOK_clean_linker_0, # of connection points: 2
#     Edge 117, Type (0, 0), BuildingBlock: AJUNOK_clean_linker_0, # of connection points: 2
#     Edge 118, Type (0, 0), BuildingBlock: AJUNOK_clean_linker_0, # of connection points: 2
#     Edge 119, Type (0, 0), BuildingBlock: AJUNOK_clean_linker_0, # of connection points: 2
#     Edge 120, Type (0, 0), BuildingBlock: AJUNOK_clean_linker_0, # of connection points: 2
#     Edge 121, Type (0, 0), BuildingBlock: AJUNOK_clean_linker_0, # of connection points: 2
#     Edge 122, Type (0, 0), BuildingBlock: AJUNOK_clean_linker_0, # of connection points: 2
#     Edge 123, Type (0, 0), BuildingBlock: AJUNOK_clean_linker_0, # of connection points: 2
#     Edge 124, Type (0, 0), BuildingBlock: AJUNOK_clean_linker_0, # of connection points: 2
#     Edge 125, Type (0, 0), BuildingBlock: AJUNOK_clean_linker_0, # of connection points: 2
#     Edge 126, Type (0, 0), BuildingBlock: AJUNOK_clean_linker_0, # of connection points: 2
#     Edge 127, Type (0, 0), BuildingBlock: AJUNOK_clean_linker_0, # of connection points: 2
# Relax obj value: 0.592
# Max RMSD: 0.209
# Mean RMSD: 0.209
data_MOF--net-wir--node1-BETFEN_clean_sbu_0--edge1-AJUNOK_clean_linker_0
_symmetry_space_group_name_H-M    P1
_symmetry_Int_Tables_number       1
_symmetry_cell_setting            triclinic
loop_
_symmetry_equiv_pos_as_xyz
'x, y, z'
_cell_length_a     30.202378
_cell_length_b     30.207615
_cell_length_c     83.877275
_cell_angle_alpha  90.108899
_cell_angle_beta   90.070648
_cell_angle_gamma 89.925225
loop_
_atom_site_label
_atom_site_type_symbol
_atom_site_fract_x
_atom_site_fract_y
_atom_site_fract_z
_atom_type_partial_charge
Pr0 Pr 0.26302 0.25297 0.43701 0.0
Pr1 Pr 0.23843 0.21856 0.42825 0.0
C2 C 0.29829 0.32882 0.44839 0.0
C3 C 0.27969 0.37345 0.44761 0.0
C4 C 0.28207 0.40004 0.46125 0.0
C5 C 0.2474 0.42899 0.46471 0.0
C6 C 0.21027 0.43071 0.45461 0.0
C7 C 0.21262 0.41127 0.4395 0.0
C8 C 0.24727 0.38233 0.436 0.0
C9 C 0.30764 0.18773 0.46409 0.0
C10 C 0.20507 0.19046 0.4592 0.0
C11 C 0.26131 0.16398 0.4043 0.0
C12 C 0.27023 0.17124 0.38716 0.0
C13 C 0.23569 0.17172 0.37598 0.0
C14 C 0.24447 0.1802 0.35995 0.0
C15 C 0.28793 0.18894 0.35472 0.0
C16 C 0.32229 0.18952 0.36599 0.0
C17 C 0.31364 0.18032 0.38198 0.0
C18 C 0.14824 0.25985 0.4313 0.0
C19 C 0.27493 0.27503 0.39803 0.0
O20 O 0.31039 0.31114 0.43494 0.0
O21 O 0.27479 0.30187 0.45696 0.0
O22 O 0.30159 0.19295 0.44809 0.0
O23 O 0.30325 0.19108 0.44829 0.0
O24 O 0.2101 0.16938 0.4459 0.0
O25 O 0.21687 0.23238 0.45894 0.0
O26 O 0.29002 0.18192 0.41399 0.0
O27 O 0.2204 0.16758 0.40936 0.0
O28 O 0.18712 0.27945 0.43127 0.0
O29 O 0.15729 0.21737 0.43045 0.0
O30 O 0.30127 0.2677 0.4104 0.0
O31 O 0.2355 0.26324 0.40307 0.0
H32 H 0.30688 0.39369 0.47032 0.0
H33 H 0.24625 0.44417 0.47642 0.0
H34 H 0.18515 0.41372 0.43131 0.0
H35 H 0.24511 0.36241 0.42527 0.0
H36 H 0.20195 0.16485 0.37956 0.0
H37 H 0.21734 0.17758 0.35156 0.0
H38 H 0.3561 0.19585 0.36236 0.0
H39 H 0.34107 0.1805 0.39031 0.0
Pr40 Pr 0.0933 1.00791 0.68561 0.0
Pr41 Pr 0.13644 0.97624 0.67849 0.0
C42 C 1.01954 0.05118 0.69447 0.0
C43 C 0.97539 1.03144 0.69522 0.0
C44 C 0.95054 1.03768 0.70912 0.0
C45 C 0.92341 1.00363 0.71459 0.0
C46 C 0.92125 0.96347 0.70615 0.0
C47 C 0.9396 0.96059 0.69092 0.0
C48 C 0.96659 0.99464 0.6854 0.0
C49 C 0.16836 1.04507 0.71211 0.0
C50 C 0.1189 0.94684 0.71307 0.0
C51 C 0.21632 0.96948 0.66478 0.0
C52 C 0.26139 0.98342 0.66872 0.0
C53 C 0.29669 0.95762 0.66337 0.0
C54 C 0.33977 0.97334 0.66468 0.0
C55 C 0.34826 1.0155 0.6713 0.0
C56 C 0.3131 1.03881 0.67842 0.0
C57 C 0.26978 1.02293 0.67706 0.0
C58 C 0.08754 0.89088 0.6799 0.0
C59 C 0.08176 1.01854 0.64627 0.0
O60 O 1.03674 0.05538 0.68029 0.0
O61 O 1.04712 1.03375 0.70463 0.0
O62 O 0.15777 1.04253 0.69639 0.0
O63 O 0.15947 1.04401 0.69644 0.0
O64 O 0.15322 0.95286 0.70402 0.0
O65 O 0.08149 0.96192 0.70766 0.0
O66 O 0.19973 0.93857 0.67376 0.0
O67 O 0.18804 1.0008 0.66121 0.0
O68 O 0.07076 0.93087 0.67782 0.0
O69 O 0.12989 0.89687 0.68182 0.0
O70 O 0.0763 1.04268 0.65922 0.0
O71 O 0.10397 0.98253 0.65062 0.0
H72 H 0.95704 0.06566 0.71688 0.0
H73 H 0.9093 1.00626 0.72643 0.0
H74 H 0.93752 0.93012 0.68422 0.0
H75 H 0.98539 0.98908 0.67458 0.0
H76 H 0.29075 0.92664 0.65719 0.0
H77 H 0.36553 0.9544 0.65884 0.0
H78 H 0.31858 0.07117 0.68365 0.0
H79 H 0.24278 1.04282 0.68164 0.0
Pr80 Pr 0.33602 0.8442 0.93648 0.0
Pr81 Pr 0.36149 0.87634 0.92836 0.0
C82 C 0.29642 0.76795 0.94499 0.0
C83 C 0.31495 0.72373 0.94278 0.0
C84 C 0.30689 0.69196 0.95451 0.0
C85 C 0.34121 0.66391 0.95917 0.0
C86 C 0.38359 0.66959 0.95254 0.0
C87 C 0.38811 0.69354 0.9384 0.0
C88 C 0.35325 0.72028 0.93333 0.0
C89 C 0.29417 0.9099 0.9644 0.0
C90 C 0.39772 0.89923 0.9596 0.0
C91 C 0.34135 0.93349 0.9049 0.0
C92 C 0.33148 0.92645 0.88782 0.0
C93 C 0.36569 0.92486 0.87658 0.0
C94 C 0.3564 0.9157 0.86064 0.0
C95 C 0.31269 0.90733 0.85554 0.0
C96 C 0.27856 0.90814 0.86688 0.0
C97 C 0.28776 0.91808 0.8828 0.0
C98 C 0.45122 0.83461 0.93104 0.0
C99 C 0.3235 0.82245 0.89788 0.0
O100 O 0.28636 0.78911 0.93201 0.0
O101 O 0.31917 0.79227 0.95486 0.0
O102 O 0.29941 0.90443 0.94835 0.0
O103 O 0.29769 0.90645 0.94856 0.0
O104 O 0.39585 0.92038 0.94624 0.0
O105 O 0.38099 0.85911 0.95929 0.0
O106 O 0.31194 0.91782 0.91475 0.0
O107 O 0.382 0.9268 0.90974 0.0
O108 O 0.4121 0.81538 0.93133 0.0
O109 O 0.44244 0.87709 0.93005 0.0
O110 O 0.29717 0.8341 0.90974 0.0
O111 O 0.36338 0.82961 0.90355 0.0
H112 H 0.27731 0.69378 0.96178 0.0
H113 H 0.33712 0.64484 0.97 0.0
H114 H 0.42035 0.69761 0.93298 0.0
H115 H 0.35951 0.74398 0.92392 0.0
H116 H 0.39966 0.93125 0.88003 0.0
H117 H 0.38346 0.91753 0.85222 0.0
H118 H 0.24455 0.90217 0.86339 0.0
H119 H 0.26054 0.91878 0.89119 0.0
Pr120 Pr 0.50585 0.08852 0.18558 0.0
Pr121 Pr 0.46552 0.12072 0.17999 0.0
C122 C 0.58141 1.04412 0.19122 0.0
C123 C 0.62534 0.06446 0.19203 0.0
C124 C 0.65318 0.05335 0.20475 0.0
C125 C 0.68059 0.08571 0.21135 0.0
C126 C 0.67945 0.12913 0.20534 0.0
C127 C 0.65926 0.13703 0.19064 0.0
C128 C 0.63194 0.10475 0.18397 0.0
C129 C 0.43423 0.04961 0.21294 0.0
C130 C 0.48679 0.14464 0.21498 0.0
C131 C 0.38656 0.12449 0.16548 0.0
C132 C 0.34365 0.10236 0.16778 0.0
C133 C 0.33244 0.06733 0.15765 0.0
C134 C 0.29125 1.0475 0.15871 0.0
C135 C 0.25963 0.06236 0.16987 0.0
C136 C 0.2717 0.09589 0.18067 0.0
C137 C 0.31349 0.11577 0.17964 0.0
C138 C 0.51281 0.20619 0.18118 0.0
C139 C 0.51508 0.07964 0.1469 0.0
O140 O 0.56222 1.04426 0.17729 0.0
O141 O 0.55502 0.05739 0.20253 0.0
O142 O 0.44281 0.0537 0.19714 0.0
O143 O 0.44107 0.05223 0.19719 0.0
O144 O 0.45159 0.14248 0.20609 0.0
O145 O 0.52269 0.1284 0.20879 0.0
O146 O 0.39885 0.15333 0.1762 0.0
O147 O 0.41893 0.09914 0.16054 0.0
O148 O 0.52971 0.16643 0.17885 0.0
O149 O 0.47068 0.20001 0.18366 0.0
O150 O 0.51243 0.05198 0.15892 0.0
O151 O 0.50231 0.11856 0.15266 0.0
H152 H 0.64882 1.02236 0.21104 0.0
H153 H 0.69659 0.07892 0.22266 0.0
H154 H 0.65902 0.16997 0.1857 0.0
H155 H 0.61128 0.11382 0.17392 0.0
H156 H 0.35492 0.05628 0.14839 0.0
H157 H 0.28326 1.02289 0.14976 0.0
H158 H 0.24802 0.10835 0.18927 0.0
H159 H 0.32147 0.14255 0.18775 0.0
Pr160 Pr 0.26844 0.84983 0.28588 0.0
Pr161 Pr 0.23563 0.8909 0.29153 0.0
C162 C 0.31346 0.77536 0.27992 0.0
C163 C 0.29108 0.73256 0.28033 0.0
C164 C 0.29991 0.70182 0.26826 0.0
C165 C 0.26538 0.67611 0.26222 0.0
C166 C 0.22213 0.68189 0.26809 0.0
C167 C 0.21536 0.70643 0.28198 0.0
C168 C 0.25005 0.73123 0.28827 0.0
C169 C 0.30937 0.91842 0.25825 0.0
C170 C 0.21065 0.8663 0.25697 0.0
C171 C 0.22574 0.97109 0.30482 0.0
C172 C 0.23824 1.0168 0.30136 0.0
C173 C 0.21018 0.05062 0.30647 0.0
C174 C 0.22454 0.09427 0.30618 0.0
C175 C 0.26755 0.1048 0.30086 0.0
C176 C 0.29323 0.07128 0.29373 0.0
C177 C 0.27874 1.02733 0.29408 0.0
C178 C 0.15095 0.84195 0.28991 0.0
C179 C 0.27652 0.84044 0.32484 0.0
O180 O 0.31647 0.79591 0.29357 0.0
O181 O 0.29859 0.80088 0.26859 0.0
O182 O 0.30204 0.91367 0.27414 0.0
O183 O 0.30317 0.9152 0.27402 0.0
O184 O 0.21532 0.90255 0.26516 0.0
O185 O 0.22567 0.83057 0.26361 0.0
O186 O 0.19629 0.95361 0.29538 0.0
O187 O 0.25764 0.94388 0.30878 0.0
O188 O 0.19077 0.82582 0.29284 0.0
O189 O 0.15697 0.88388 0.28707 0.0
O190 O 0.30326 0.83875 0.31252 0.0
O191 O 0.23894 0.85794 0.31953 0.0
H192 H 0.3312 0.70248 0.26197 0.0
H193 H 0.271 0.65715 0.25143 0.0
H194 H 0.18231 0.71103 0.28667 0.0
H195 H 0.24274 0.75428 0.29782 0.0
H196 H 0.17844 1.043 0.31182 0.0
H197 H 0.20369 0.11866 0.31195 0.0
H198 H 0.32624 0.07837 0.28939 0.0
H199 H 0.30037 1.00146 0.28966 0.0
Pr200 Pr 0.49973 1.02053 0.53929 0.0
Pr201 Pr 0.46609 0.99408 0.54682 0.0
C202 C 0.57605 0.06219 0.53205 0.0
C203 C 0.62042 1.043 0.53222 0.0
C204 C 0.65218 0.05978 0.52176 0.0
C205 C 0.68123 1.03048 0.51427 0.0
C206 C 0.6758 0.98465 0.51657 0.0
C207 C 0.65208 0.96981 0.52983 0.0
C208 C 0.62464 0.99943 0.53787 0.0
C209 C 0.43264 0.06053 0.51119 0.0
C210 C 0.45632 0.95718 0.5144 0.0
C211 C 0.40721 1.01291 0.56983 0.0
C212 C 0.41399 1.02233 0.58698 0.0
C213 C 0.41598 0.98793 0.59815 0.0
C214 C 0.42514 0.99708 0.61413 0.0
C215 C 0.43312 1.04079 0.61931 0.0
C216 C 0.43211 0.07504 0.60805 0.0
C217 C 0.42214 0.06602 0.59213 0.0
C218 C 0.50771 0.90484 0.54459 0.0
C219 C 0.51971 1.03123 0.57774 0.0
O220 O 0.55691 0.06589 0.54585 0.0
O221 O 0.55008 1.04468 0.52138 0.0
O222 O 0.43884 0.0562 0.52719 0.0
O223 O 0.43691 0.05783 0.52703 0.0
O224 O 0.42868 0.96308 0.52606 0.0
O225 O 0.49608 0.97334 0.51669 0.0
O226 O 0.42333 1.0427 0.56024 0.0
O227 O 0.4139 0.97244 0.56474 0.0
O228 O 0.52709 0.94385 0.54435 0.0
O229 O 0.46507 0.9133 0.54537 0.0
O230 O 0.50785 0.05829 0.56617 0.0
O231 O 0.51307 0.9917 0.57164 0.0
H232 H 0.65 0.09357 0.51752 0.0
H233 H 0.70093 1.04258 0.50441 0.0
H234 H 0.64865 0.93473 0.53218 0.0
H235 H 0.60134 0.98648 0.54647 0.0
H236 H 0.40996 0.95397 0.5946 0.0
H237 H 0.42372 0.96994 0.62252 0.0
H238 H 0.4378 0.10903 0.61163 0.0
H239 H 0.42121 0.0934 0.58382 0.0
Pr240 Pr 0.3308 0.24389 0.78656 0.0
Pr241 Pr 0.3651 0.20801 0.79188 0.0
C242 C 0.27519 0.31214 0.78163 0.0
C243 C 0.28451 0.35911 0.77981 0.0
C244 C 0.26494 0.38047 0.76688 0.0
C245 C 0.28823 0.41321 0.75892 0.0
C246 C 0.33066 0.4261 0.76424 0.0
C247 C 0.34587 0.41055 0.77904 0.0
C248 C 0.3231 0.37665 0.78673 0.0
C249 C 0.29057 0.17687 0.75858 0.0
C250 C 0.38536 0.23286 0.75681 0.0
C251 C 0.376 0.12995 0.80656 0.0
C252 C 0.36333 0.08386 0.80381 0.0
C253 C 0.39141 0.05034 0.80918 0.0
C254 C 0.37729 1.00653 0.80896 0.0
C255 C 0.33461 0.99555 0.80337 0.0
C256 C 0.30864 1.02887 0.79635 0.0
C257 C 0.32279 0.07287 0.79664 0.0
C258 C 0.44893 0.25715 0.79012 0.0
C259 C 0.32305 0.25772 0.82504 0.0
O260 O 0.28191 0.29517 0.79569 0.0
O261 O 0.29168 0.28803 0.77019 0.0
O262 O 0.30081 0.17906 0.77436 0.0
O263 O 0.29986 0.17744 0.77419 0.0
O264 O 0.38539 0.19694 0.76534 0.0
O265 O 0.36755 0.26726 0.76354 0.0
O266 O 0.40494 0.14616 0.79666 0.0
O267 O 0.34413 0.15762 0.81019 0.0
O268 O 0.40847 0.27348 0.79162 0.0
O269 O 0.44414 0.21448 0.78879 0.0
O270 O 0.29513 0.25058 0.81333 0.0
O271 O 0.36238 0.2475 0.81899 0.0
H272 H 0.23528 0.36711 0.7614 0.0
H273 H 0.27534 0.42338 0.74747 0.0
H274 H 0.37788 0.42057 0.78362 0.0
H275 H 0.3387 0.3605 0.79681 0.0
H276 H 0.42311 0.05831 0.81453 0.0
H277 H 0.39815 0.98227 0.81478 0.0
H278 H 0.2757 1.02144 0.79206 0.0
H279 H 0.30095 0.09847 0.79221 0.0
Pr280 Pr 0.10372 0.07861 1.03995 0.0
Pr281 Pr 0.13515 0.10463 1.04829 0.0
C282 C 1.03265 1.03232 1.02994 0.0
C283 C 0.98567 1.04119 1.02851 0.0
C284 C 0.96364 1.02062 1.01595 0.0
C285 C 0.92965 1.04286 1.00829 0.0
C286 C 0.91656 0.0854 1.01348 0.0
C287 C 0.93257 0.10107 1.0282 0.0
C288 C 0.96784 0.07938 1.03556 0.0
C289 C 0.1687 1.03505 1.01257 0.0
C290 C 0.15554 0.14074 1.01674 0.0
C291 C 0.19104 0.08393 1.07212 0.0
C292 C 0.18384 0.07484 1.08926 0.0
C293 C 0.19186 0.10765 1.10068 0.0
C294 C 0.18251 0.09985 0.11671 0.0
C295 C 0.16404 0.05922 0.12177 0.0
C296 C 0.15533 1.02676 0.11019 0.0
C297 C 0.16623 1.03398 1.09425 0.0
C298 C 0.09356 0.19389 1.04504 0.0
C299 C 0.07782 0.06868 1.07842 0.0
O300 O 1.04861 1.0291 1.04427 0.0
O301 O 0.05704 0.05648 1.02064 0.0
O302 O 0.16557 1.0434 1.02854 0.0
O303 O 0.1675 1.04194 1.02832 0.0
O304 O 0.1785 0.13722 1.02972 0.0
O305 O 0.115 0.12527 1.01753 0.0
O306 O 0.17455 0.05463 1.06233 0.0
O307 O 0.18556 0.12466 1.06714 0.0
O308 O 0.07436 0.15477 1.04412 0.0
O309 O 0.13586 0.18551 1.0471 0.0
O310 O 0.08906 1.04162 1.0667 0.0
O311 O 0.08755 0.10811 1.07286 0.0
H312 H 0.9772 0.99104 1.01046 0.0
H313 H 0.91918 1.02927 0.99697 0.0
H314 H 0.92223 0.13299 1.03279 0.0
H315 H 0.98464 0.09544 1.04542 0.0
H316 H 0.20572 0.13929 1.09725 0.0
H317 H 0.19137 0.12548 0.12515 0.0
H318 H 0.13984 0.99573 0.11328 0.0
H319 H 0.15941 1.00779 1.08577 0.0
Pr320 Pr 0.86211 0.89115 0.79379 0.0
Pr321 Pr 0.82884 0.85272 0.78858 0.0
C322 C 0.8667 0.97005 0.80813 0.0
C323 C 0.84342 1.01234 0.80583 0.0
C324 C 0.80755 1.02236 0.81571 0.0
C325 C 0.78714 0.0633 0.81483 0.0
C326 C 0.80241 0.09584 0.80414 0.0
C327 C 0.83602 0.08455 0.79329 0.0
C328 C 0.85653 1.04305 0.79415 0.0
C329 C 0.94713 0.84358 0.79198 0.0
C330 C 0.82296 0.84214 0.82734 0.0
C331 C 0.77985 0.7798 0.78378 0.0
C332 C 0.79877 0.73557 0.7826 0.0
C333 C 0.77945 0.70471 0.77232 0.0
C334 C 0.80659 0.6753 0.76399 0.0
C335 C 0.85301 0.67892 0.76529 0.0
C336 C 0.87092 0.7037 0.77785 0.0
C337 C 0.84361 0.73127 0.78674 0.0
C338 C 0.78958 0.92219 0.76076 0.0
C339 C 0.88429 0.86687 0.75899 0.0
O340 O 0.89476 0.95787 0.79713 0.0
O341 O 0.84243 0.93749 0.8135 0.0
O342 O 0.90727 0.82665 0.79399 0.0
O343 O 0.94129 0.88606 0.79028 0.0
O344 O 0.79451 0.84546 0.81555 0.0
O345 O 0.86151 0.85474 0.82126 0.0
O346 O 0.78319 0.79867 0.79771 0.0
O347 O 0.79258 0.80559 0.77223 0.0
O348 O 0.79583 0.91642 0.77666 0.0
O349 O 0.79456 0.91814 0.77657 0.0
O350 O 0.88317 0.90282 0.76752 0.0
O351 O 0.86727 0.83194 0.76554 0.0
H352 H 0.79646 0.99932 0.82475 0.0
H353 H 0.76221 0.07049 0.82373 0.0
H354 H 0.84851 0.10884 0.78495 0.0
H355 H 0.88374 1.03584 0.78616 0.0
H356 H 0.74476 0.7072 0.76915 0.0
H357 H 0.79186 0.65499 0.75474 0.0
H358 H 0.90627 0.70704 0.77932 0.0
H359 H 0.85885 0.75428 0.795 0.0
Pr360 Pr 0.95842 0.10927 0.54314 0.0
Pr361 Pr 0.99762 0.07667 0.53732 0.0
C362 C 0.8791 0.1099 0.5575 0.0
C363 C 0.84475 0.07573 0.55838 0.0
C364 C 0.80188 0.08725 0.563 0.0
C365 C 0.77287 0.05452 0.56827 0.0
C366 C 0.78687 1.01001 0.56926 0.0
C367 C 0.82756 0.99801 0.56245 0.0
C368 C 0.85641 1.03076 0.55705 0.0
C369 C 1.00512 0.1954 0.54147 0.0
C370 C 1.00929 0.06794 0.57625 0.0
C371 C 0.0677 1.0238 0.53176 0.0
C372 C 0.1145 1.03365 0.52983 0.0
C373 C 0.13569 1.0146 0.51675 0.0
C374 C 0.16774 1.03856 0.50869 0.0
C375 C 0.18009 0.0811 0.51406 0.0
C376 C 0.16528 0.09548 0.52908 0.0
C377 C 0.13194 0.07211 0.53685 0.0
C378 C 0.92812 1.03841 0.50953 0.0
C379 C 0.98336 0.13642 0.50872 0.0
O380 O 0.88555 0.12847 0.54367 0.0
O381 O 0.91584 0.09971 0.56482 0.0
O382 O 1.02287 0.15546 0.54248 0.0
O383 O 0.96242 0.18903 0.54096 0.0
O384 O 1.00872 1.04122 0.5639 0.0
O385 O 0.99328 0.10618 0.57095 0.0
O386 O 0.05107 1.02953 0.54594 0.0
O387 O 1.04302 1.04052 0.52052 0.0
O388 O 0.934 1.04377 0.52548 0.0
O389 O 0.93233 1.04252 0.52536 0.0
O390 O 0.94783 0.13613 0.51748 0.0
O391 O 1.01775 0.11639 0.51461 0.0
H392 H 0.79224 0.12172 0.56395 0.0
H393 H 0.74187 0.06508 0.57354 0.0
H394 H 0.83915 0.9641 0.56308 0.0
H395 H 0.88941 1.02119 0.55337 0.0
H396 H 0.12249 0.98493 0.51123 0.0
H397 H 0.17742 1.02612 0.49712 0.0
H398 H 0.17508 0.12747 0.53374 0.0
H399 H 0.11602 0.08718 0.54709 0.0
Pr400 Pr 0.73093 0.20797 0.29555 0.0
Pr401 Pr 0.76319 0.24824 0.28953 0.0
C402 C 0.7236 0.12867 0.30951 0.0
C403 C 0.73606 0.08323 0.30551 0.0
C404 C 0.70883 1.04892 0.31066 0.0
C405 C 0.72286 1.0053 0.30922 0.0
C406 C 0.76476 0.99526 0.3027 0.0
C407 C 0.78941 1.02957 0.29569 0.0
C408 C 0.77524 0.07347 0.29718 0.0
C409 C 0.64619 0.25679 0.2935 0.0
C410 C 0.77177 0.25749 0.32862 0.0
C411 C 0.80929 0.32282 0.28442 0.0
C412 C 0.78946 0.36683 0.28419 0.0
C413 C 0.80773 0.39933 0.27439 0.0
C414 C 0.7796 0.42885 0.2666 0.0
C415 C 0.73336 0.42333 0.26778 0.0
C416 C 0.71634 0.39747 0.28017 0.0
C417 C 0.74474 0.36988 0.28865 0.0
C418 C 0.79977 0.17638 0.26191 0.0
C419 C 0.70563 0.22637 0.26059 0.0
O420 O 0.69234 0.14582 0.30079 0.0
O421 O 0.75583 0.1562 0.31275 0.0
O422 O 0.68594 0.27335 0.29595 0.0
O423 O 0.65211 0.21445 0.29145 0.0
O424 O 0.79883 0.25674 0.31634 0.0
O425 O 0.73336 0.24253 0.3232 0.0
O426 O 0.80895 0.30291 0.29816 0.0
O427 O 0.79506 0.29752 0.2729 0.0
O428 O 0.7969 0.18491 0.27776 0.0
O429 O 0.7984 0.18313 0.2777 0.0
O430 O 0.70783 0.19217 0.26992 0.0
O431 O 0.7228 0.2628 0.26614 0.0
H432 H 0.67803 0.05597 0.31678 0.0
H433 H 0.70288 0.98024 0.31495 0.0
H434 H 0.82157 1.0229 0.29049 0.0
H435 H 0.79615 0.09974 0.29271 0.0
H436 H 0.84236 0.398 0.27106 0.0
H437 H 0.79348 0.45013 0.2575 0.0
H438 H 0.681 0.39314 0.28165 0.0
H439 H 0.73049 0.34587 0.29669 0.0
Pr440 Pr 0.63107 0.99004 1.0446 0.0
Pr441 Pr 0.60035 1.01946 1.03865 0.0
C442 C 0.69499 1.00034 1.06661 0.0
C443 C 0.69029 1.01148 1.08372 0.0
C444 C 0.68613 0.97811 1.0952 0.0
C445 C 0.67672 0.98895 0.11102 0.0
C446 C 0.67035 1.03339 0.1157 0.0
C447 C 0.67455 0.0667 1.10418 0.0
C448 C 0.68506 0.05597 1.08846 0.0
C449 C 0.58812 0.90238 1.04213 0.0
C450 C 0.58268 1.03046 1.07657 0.0
C451 C 0.52981 0.07238 1.03332 0.0
C452 C 0.48332 0.06245 1.03061 0.0
C453 C 0.46492 1.02417 1.03737 0.0
C454 C 0.43319 1.00021 1.02891 0.0
C455 C 0.42126 1.01364 1.01346 0.0
C456 C 0.43462 0.05592 1.00816 0.0
C457 C 0.46437 0.08077 1.01699 0.0
C458 C 0.66296 0.06015 1.00967 0.0
C459 C 0.62281 0.95701 1.0111 0.0
O460 O 0.68288 1.03165 1.0569 0.0
O461 O 0.68181 0.96125 1.06186 0.0
O462 O 0.56954 0.94205 1.04279 0.0
O463 O 0.63098 0.90979 1.04205 0.0
O464 O 0.60035 0.05643 1.06574 0.0
O465 O 0.58207 0.9918 1.06926 0.0
O466 O 0.54538 0.06484 1.04749 0.0
O467 O 0.55559 0.05738 1.02214 0.0
O468 O 0.66229 0.05047 1.02549 0.0
O469 O 0.66412 0.05165 1.0253 0.0
O470 O 0.65587 0.95936 1.02102 0.0
O471 O 0.58652 0.97661 1.01573 0.0
H472 H 0.69016 0.9436 1.09197 0.0
H473 H 0.6761 0.96239 0.11966 0.0
H474 H 0.67026 0.10122 1.10734 0.0
H475 H 0.68797 0.0827 1.07994 0.0
H476 H 0.47899 1.00971 1.04805 0.0
H477 H 0.4224 0.96861 1.03357 0.0
H478 H 0.42775 0.06771 0.99627 0.0
H479 H 0.47833 0.11032 1.01167 0.0
Pr480 Pr 0.85563 0.21725 0.92671 0.0
Pr481 Pr 0.83102 0.25256 0.93569 0.0
C482 C 0.83102 0.16265 0.90301 0.0
C483 C 0.82139 0.16969 0.88591 0.0
C484 C 0.85335 0.16039 0.87433 0.0
C485 C 0.8449 0.16961 0.85833 0.0
C486 C 0.80452 0.18924 0.85348 0.0
C487 C 0.77292 0.1991 0.86521 0.0
C488 C 0.78074 0.18838 0.88112 0.0
C489 C 0.94561 0.25864 0.92943 0.0
C490 C 0.81974 0.27586 0.89674 0.0
C491 C 0.79538 0.32733 0.94791 0.0
C492 C 0.8143 0.37172 0.94855 0.0
C493 C 0.81154 0.39467 0.96302 0.0
C494 C 0.84731 0.42024 0.96803 0.0
C495 C 0.88549 0.42265 0.95852 0.0
C496 C 0.88378 0.40803 0.94274 0.0
C497 C 0.84818 0.38221 0.93772 0.0
C498 C 0.7887 0.18463 0.96238 0.0
C499 C 0.89027 0.19051 0.95769 0.0
O500 O 0.8031 0.18139 0.91281 0.0
O501 O 0.87228 0.16571 0.90779 0.0
O502 O 0.90672 0.27833 0.92957 0.0
O503 O 0.93676 0.21611 0.92861 0.0
O504 O 0.79333 0.26999 0.90917 0.0
O505 O 0.8586 0.26144 0.90153 0.0
O506 O 0.78501 0.31208 0.93389 0.0
O507 O 0.81763 0.29877 0.95627 0.0
O508 O 0.79265 0.19208 0.94645 0.0
O509 O 0.7909 0.19019 0.9466 0.0
O510 O 0.88446 0.16883 0.94456 0.0
O511 O 0.87878 0.23255 0.95726 0.0
H512 H 0.8848 0.14568 0.87761 0.0
H513 H 0.86982 0.1599 0.84975 0.0
H514 H 0.74218 0.21549 0.86226 0.0
H515 H 0.75521 0.19623 0.88974 0.0
H516 H 0.78553 0.38715 0.97147 0.0
H517 H 0.84793 0.4321 0.98023 0.0
H518 H 0.91208 0.41158 0.93506 0.0
H519 H 0.85061 0.36524 0.92635 0.0
Pr520 Pr 0.63557 0.1221 0.68066 0.0
Pr521 Pr 0.59362 0.09096 0.68745 0.0
C522 C 0.71082 0.11882 0.66368 0.0
C523 C 0.72048 0.08691 0.65076 0.0
C524 C 0.70675 0.09621 0.63514 0.0
C525 C 0.7094 0.06394 0.62334 0.0
C526 C 0.72603 1.0215 0.62679 0.0
C527 C 0.74076 1.0123 0.64231 0.0
C528 C 0.73787 1.04467 0.65421 0.0
C529 C 0.58882 0.20846 0.68304 0.0
C530 C 0.58539 0.07893 0.64825 0.0
C531 C 0.5175 1.04922 0.6945 0.0
C532 C 0.47339 0.06935 0.69412 0.0
C533 C 0.44515 0.06298 0.70713 0.0
C534 C 0.41586 0.09659 0.71153 0.0
C535 C 0.41521 0.13657 0.70299 0.0
C536 C 0.43687 0.13899 0.68831 0.0
C537 C 0.46622 0.10554 0.6839 0.0
C538 C 0.66386 0.05159 0.71477 0.0
C539 C 0.6205 0.15455 0.71478 0.0
O540 O 0.70778 0.10232 0.67792 0.0
O541 O 0.67967 0.14752 0.66084 0.0
O542 O 0.57129 0.16891 0.68075 0.0
O543 O 0.63129 0.2016 0.68506 0.0
O544 O 0.58286 0.05352 0.66094 0.0
O545 O 0.60269 0.11664 0.65309 0.0
O546 O 0.53726 1.04474 0.68079 0.0
O547 O 0.54336 0.06631 0.7053 0.0
O548 O 0.65615 0.05553 0.69885 0.0
O549 O 0.65788 0.05405 0.699 0.0
O550 O 0.65309 0.1541 0.70465 0.0
O551 O 0.58462 0.13365 0.7106 0.0
H552 H 0.69327 0.12831 0.63203 0.0
H553 H 0.69968 0.07283 0.61132 0.0
H554 H 0.75483 0.98027 0.64517 0.0
H555 H 0.74864 1.03637 0.66617 0.0
H556 H 0.45014 1.03528 0.71512 0.0
H557 H 0.3991 0.09411 0.72291 0.0
H558 H 0.43567 0.16902 0.68138 0.0
H559 H 0.48729 0.11093 0.67364 0.0
Pr560 Pr 0.73734 0.87844 0.4266 0.0
Pr561 Pr 0.76336 0.84405 0.43425 0.0
C562 C 0.75641 0.93817 0.40398 0.0
C563 C 0.76669 0.9317 0.3869 0.0
C564 C 0.73282 0.92988 0.3755 0.0
C565 C 0.74264 0.92017 0.35963 0.0
C566 C 0.7865 0.91135 0.3548 0.0
C567 C 0.82028 0.91268 0.36628 0.0
C568 C 0.8106 0.92325 0.38208 0.0
C569 C 0.6476 0.83776 0.42847 0.0
C570 C 0.77723 0.82501 0.39584 0.0
C571 C 0.80124 0.76626 0.44207 0.0
C572 C 0.77827 0.72364 0.44192 0.0
C573 C 0.78666 0.69382 0.45428 0.0
C574 C 0.75177 0.66908 0.46049 0.0
C575 C 0.70847 0.67588 0.45473 0.0
C576 C 0.70251 0.69763 0.44021 0.0
C577 C 0.73772 0.72125 0.43366 0.0
C578 C 0.80284 0.91135 0.46248 0.0
C579 C 0.70004 0.88741 0.45909 0.0
O580 O 0.78594 0.92205 0.41372 0.0
O581 O 0.71579 0.93095 0.40876 0.0
O582 O 0.68649 0.81799 0.42847 0.0
O583 O 0.65649 0.88031 0.42812 0.0
O584 O 0.80343 0.83629 0.40778 0.0
O585 O 0.73726 0.8319 0.40156 0.0
O586 O 0.80698 0.78487 0.42827 0.0
O587 O 0.78556 0.79382 0.45259 0.0
O588 O 0.79915 0.90475 0.44648 0.0
O589 O 0.80077 0.90664 0.44664 0.0
O590 O 0.70641 0.91538 0.44759 0.0
O591 O 0.71607 0.84766 0.45673 0.0
H592 H 0.69874 0.93629 0.37879 0.0
H593 H 0.71586 0.92165 0.35106 0.0
H594 H 0.85439 0.90647 0.36298 0.0
H595 H 0.83761 0.92415 0.39059 0.0
H596 H 0.81783 0.69478 0.46068 0.0
H597 H 0.75706 0.65143 0.47157 0.0
H598 H 0.66967 0.702 0.43535 0.0
H599 H 0.73102 0.74318 0.42375 0.0
Pr600 Pr 0.95576 0.98038 0.18137 0.0
Pr601 Pr 0.99715 1.01302 0.18774 0.0
C602 C 0.8761 0.97268 0.16757 0.0
C603 C 0.83038 0.98543 0.17102 0.0
C604 C 0.7965 0.95761 0.16582 0.0
C605 C 0.75291 0.97231 0.16602 0.0
C606 C 0.74255 1.01552 0.17127 0.0
C607 C 0.77598 1.0407 0.17867 0.0
C608 C 0.81987 1.02587 0.17842 0.0
C609 C 1.00423 0.89528 0.18291 0.0
C610 C 1.00761 1.02132 0.1486 0.0
C611 C 0.07067 0.05818 0.1954 0.0
C612 C 0.11475 1.03809 0.19607 0.0
C613 C 0.12324 1.00193 0.18592 0.0
C614 C 0.14945 0.96694 0.19118 0.0
C615 C 0.16715 0.96796 0.20655 0.0
C616 C 0.1652 1.0073 0.21547 0.0
C617 C 0.13917 1.04253 0.21018 0.0
C618 C 0.92848 0.05322 0.21515 0.0
C619 C 0.97577 0.95486 0.21608 0.0
O620 O 0.89294 0.94214 0.17669 0.0
O621 O 0.9038 1.00453 0.16409 0.0
O622 O 1.02126 0.93525 0.18113 0.0
O623 O 0.96177 0.90114 0.18452 0.0
O624 O 1.00984 1.04768 0.16107 0.0
O625 O 0.98929 0.984 0.15363 0.0
O626 O 0.05242 0.06088 0.18133 0.0
O627 O 1.04379 1.04204 0.20602 0.0
O628 O 0.93288 1.0462 0.19922 0.0
O629 O 0.93133 1.04734 0.19936 0.0
O630 O 0.94078 0.95928 0.20723 0.0
O631 O 1.01256 0.96971 0.21017 0.0
H632 H 0.80406 0.92585 0.16043 0.0
H633 H 0.72859 0.95165 0.16015 0.0
H634 H 0.76898 0.07376 0.18304 0.0
H635 H 0.84575 1.04725 0.18296 0.0
H636 H 0.10513 0.99782 0.17485 0.0
H637 H 0.15201 0.93752 0.18394 0.0
H638 H 0.17891 1.00854 0.22741 0.0
H639 H 0.1329 0.06996 0.21822 0.0
Pr640 Pr 0.76713 0.74788 0.93658 0.0
Pr641 Pr 0.74213 0.71335 0.92787 0.0
C642 C 0.80542 0.82286 0.94741 0.0
C643 C 0.78861 0.86808 0.94692 0.0
C644 C 0.7981 0.89599 0.95979 0.0
C645 C 0.76576 0.92544 0.9651 0.0
C646 C 0.72395 0.92567 0.95772 0.0
C647 C 0.71884 0.90564 0.94281 0.0
C648 C 0.7513 0.87654 0.93737 0.0
C649 C 0.81023 0.67997 0.96346 0.0
C650 C 0.70873 0.68837 0.95933 0.0
C651 C 0.76533 0.65871 0.90394 0.0
C652 C 0.77379 0.66562 0.88674 0.0
C653 C 0.74131 0.65547 0.87543 0.0
C654 C 0.74852 0.66443 0.85933 0.0
C655 C 0.78813 0.68467 0.85409 0.0
C656 C 0.82044 0.69506 0.86554 0.0
C657 C 0.81384 0.68467 0.88156 0.0
C658 C 0.65186 0.7544 0.93087 0.0
C659 C 0.77703 0.77226 0.89779 0.0
O660 O 0.8153 0.80503 0.93376 0.0
O661 O 0.78177 0.79673 0.95628 0.0
O662 O 0.80556 0.68736 0.94751 0.0
O663 O 0.80733 0.68543 0.94767 0.0
O664 O 0.71425 0.66597 0.94632 0.0
O665 O 0.72055 0.73023 0.95863 0.0
O666 O 0.79385 0.67733 0.91354 0.0
O667 O 0.72441 0.66186 0.90905 0.0
O668 O 0.69077 0.77412 0.931 0.0
O669 O 0.661 0.71192 0.92991 0.0
O670 O 0.80399 0.76452 0.90993 0.0
O671 O 0.73807 0.75914 0.90289 0.0
H672 H 0.82695 0.89012 0.96719 0.0
H673 H 0.7704 0.94147 0.97655 0.0
H674 H 0.68738 0.90688 0.93674 0.0
H675 H 0.7438 0.85564 0.9272 0.0
H676 H 0.71039 0.64031 0.87899 0.0
H677 H 0.7232 0.65414 0.85098 0.0
H678 H 0.85073 0.71174 0.86231 0.0
H679 H 0.83981 0.69302 0.88995 0.0
Pr680 Pr 0.60065 0.51896 0.1837 0.0
Pr681 Pr 0.63462 0.49275 0.17625 0.0
C682 C 0.52303 0.55771 0.19121 0.0
C683 C 0.48018 0.5352 0.19128 0.0
C684 C 0.44999 0.54549 0.20333 0.0
C685 C 0.42396 0.51189 0.20974 0.0
C686 C 0.42969 0.46796 0.20446 0.0
C687 C 0.45206 0.46014 0.19016 0.0
C688 C 0.47713 0.49406 0.18344 0.0
C689 C 0.6698 0.55658 0.21176 0.0
C690 C 0.64328 0.45612 0.20882 0.0
C691 C 0.69371 0.51079 0.1533 0.0
C692 C 0.68685 0.51945 0.13614 0.0
C693 C 0.68313 0.48449 0.12522 0.0
C694 C 0.67339 0.493 0.10926 0.0
C695 C 0.6665 0.53666 1.10384 0.0
C696 C 0.66943 0.57152 0.11487 0.0
C697 C 0.67993 0.56309 0.13077 0.0
C698 C 0.59463 0.40335 0.17878 0.0
C699 C 0.58006 0.53016 0.14534 0.0
O700 O 0.54163 0.56228 0.17735 0.0
O701 O 0.55049 0.54258 0.20186 0.0
O702 O 0.66124 0.55479 0.19588 0.0
O703 O 0.66318 0.55658 0.19599 0.0
O704 O 0.67149 0.46235 0.19737 0.0
O705 O 0.60348 0.47178 0.20621 0.0
O706 O 0.6774 0.54094 0.16276 0.0
O707 O 0.68714 0.47051 0.15853 0.0
O708 O 0.57454 0.44196 0.17892 0.0
O709 O 0.6371 0.4122 0.1778 0.0
O710 O 0.5928 0.55724 0.15682 0.0
O711 O 0.58619 0.49076 0.15165 0.0
H712 H 0.45135 0.57723 0.20935 0.0
H713 H 0.40572 0.51866 0.2206 0.0
H714 H 0.45557 0.42682 0.18561 0.0
H715 H 0.49928 0.48601 0.17371 0.0
H716 H 0.68816 0.45054 0.12894 0.0
H717 H 0.67348 0.46529 1.10106 0.0
H718 H 0.66462 0.60549 0.11112 0.0
H719 H 0.6822 0.59087 0.13892 0.0
Pr720 Pr 0.83305 0.34843 0.43758 0.0
Pr721 Pr 0.85937 0.38292 0.42935 0.0
C722 C 0.79478 0.27271 0.44718 0.0
C723 C 0.81678 0.2296 0.44667 0.0
C724 C 0.81185 0.20105 0.45965 0.0
C725 C 0.84709 0.1739 0.46413 0.0
C726 C 0.88738 0.176 0.45579 0.0
C727 C 0.88949 0.1988 0.44134 0.0
C728 C 0.85389 0.22514 0.43665 0.0
C729 C 0.79359 0.41774 0.46508 0.0
C730 C 0.89647 0.39369 0.46186 0.0
C731 C 0.83896 0.44129 0.40633 0.0
C732 C 0.82985 0.43542 0.3891 0.0
C733 C 0.86192 0.44612 0.37774 0.0
C734 C 0.85424 0.43766 0.36161 0.0
C735 C 0.8146 0.41732 0.35639 0.0
C736 C 0.78271 0.40641 0.36787 0.0
C737 C 0.7897 0.41643 0.38391 0.0
C738 C 0.94849 0.34081 0.43154 0.0
C739 C 0.82109 0.32602 0.399 0.0
O740 O 0.78608 0.29072 0.43345 0.0
O741 O 0.81366 0.30031 0.45696 0.0
O742 O 0.79814 0.41094 0.4491 0.0
O743 O 0.79666 0.41278 0.44926 0.0
O744 O 0.89048 0.42094 0.45009 0.0
O745 O 0.88101 0.35367 0.45973 0.0
O746 O 0.80966 0.4237 0.41582 0.0
O747 O 0.8797 0.4356 0.41136 0.0
O748 O 0.90939 0.32148 0.43159 0.0
O749 O 0.94007 0.38348 0.43092 0.0
O750 O 0.79447 0.33505 0.41108 0.0
O751 O 0.86065 0.33692 0.40427 0.0
H752 H 0.78366 0.20423 0.46755 0.0
H753 H 0.84515 0.15647 0.47539 0.0
H754 H 0.92031 0.20067 0.4348 0.0
H755 H 0.85823 0.24685 0.4265 0.0
H756 H 0.89292 0.46121 0.38132 0.0
H757 H 0.87924 0.4483 0.35322 0.0
H758 H 0.75244 0.38959 0.36465 0.0
H759 H 0.76396 0.40772 0.39231 0.0
Pr760 Pr 1.00168 0.57795 0.68497 0.0
Pr761 Pr 0.96604 0.60264 0.67633 0.0
C762 C 0.07809 0.54385 0.69606 0.0
C763 C 0.11988 0.56815 0.69682 0.0
C764 C 0.12515 0.60476 0.68662 0.0
C765 C 0.14826 0.64198 0.69186 0.0
C766 C 0.16662 0.64222 0.70714 0.0
C767 C 0.16828 0.60282 0.716 0.0
C768 C 0.14477 0.56577 0.71086 0.0
C769 C 0.93107 0.53992 0.71216 0.0
C770 C 0.95027 0.64221 0.70791 0.0
C771 C 0.90957 0.57767 0.6533 0.0
C772 C 0.91633 0.56761 0.63621 0.0
C773 C 0.90701 0.59938 0.62459 0.0
C774 C 0.91624 0.59072 0.6086 0.0
C775 C 0.93584 0.55028 0.60381 0.0
C776 C 0.94566 0.51877 0.61555 0.0
C777 C 0.93508 0.52687 0.63147 0.0
C778 C 1.00605 0.69274 0.6785 0.0
C779 C 1.0243 0.56578 0.64612 0.0
O780 O 0.06301 0.53494 0.68187 0.0
O781 O 1.04779 0.56057 0.70526 0.0
O782 O 0.94047 0.54129 0.69633 0.0
O783 O 0.9386 0.53953 0.69645 0.0
O784 O 0.92413 0.6336 0.696 0.0
O785 O 0.99128 0.62864 0.70627 0.0
O786 O 0.92855 0.54994 0.66309 0.0
O787 O 0.91288 0.61902 0.65797 0.0
O788 O 1.02635 0.65423 0.67906 0.0
O789 O 0.96368 0.68349 0.67722 0.0
O790 O 1.01779 0.5394 0.65849 0.0
O791 O 1.01068 0.60484 0.65108 0.0
H792 H 0.10634 0.60719 0.67565 0.0
H793 H 0.14748 0.6719 0.68481 0.0
H794 H 0.18256 0.60264 0.72787 0.0
H795 H 0.14096 0.53799 0.7189 0.0
H796 H 0.89232 0.63088 0.62782 0.0
H797 H 0.90657 0.61553 0.59998 0.0
H798 H 0.96172 0.48785 0.61256 0.0
H799 H 0.94294 0.50148 0.64012 0.0
Pr800 Pr 0.76294 0.34883 0.78701 0.0
Pr801 Pr 0.7309 0.38968 0.79229 0.0
C802 C 0.80732 0.27328 0.78213 0.0
C803 C 0.78458 0.23077 0.7829 0.0
C804 C 0.79384 0.19865 0.77134 0.0
C805 C 0.75927 0.17301 0.76528 0.0
C806 C 0.71563 0.18107 0.7704 0.0
C807 C 0.70845 0.20606 0.78415 0.0
C808 C 0.74311 0.23064 0.79053 0.0
C809 C 0.80444 0.41501 0.75889 0.0
C810 C 0.70633 0.36571 0.7577 0.0
C811 C 0.72815 0.47011 0.80572 0.0
C812 C 0.75141 0.51236 0.80309 0.0
C813 C 0.78995 0.52142 0.81177 0.0
C814 C 0.80895 0.56315 0.81128 0.0
C815 C 0.78965 0.59738 0.80219 0.0
C816 C 0.75392 0.58684 0.79209 0.0
C817 C 0.73467 0.54472 0.79264 0.0
C818 C 0.64485 0.34298 0.79069 0.0
C819 C 0.77098 0.34139 0.82598 0.0
O820 O 0.80985 0.29492 0.79557 0.0
O821 O 0.79311 0.29795 0.77046 0.0
O822 O 0.79771 0.41091 0.77481 0.0
O823 O 0.79896 0.41251 0.77469 0.0
O824 O 0.70964 0.40181 0.76605 0.0
O825 O 0.72212 0.33021 0.76429 0.0
O826 O 0.69963 0.45747 0.79493 0.0
O827 O 0.75217 0.43759 0.81133 0.0
O828 O 0.68442 0.3257 0.79317 0.0
O829 O 0.65159 0.38517 0.78857 0.0
O830 O 0.79804 0.34041 0.81375 0.0
O831 O 0.73291 0.35707 0.82038 0.0
H832 H 0.82559 0.19818 0.76535 0.0
H833 H 0.76527 0.15334 0.75467 0.0
H834 H 0.67519 0.21187 0.78842 0.0
H835 H 0.73556 0.25452 0.79979 0.0
H836 H 0.80406 0.49713 0.8198 0.0
H837 H 0.83594 0.5693 0.81947 0.0
H838 H 0.73853 0.61215 0.78482 0.0
H839 H 0.70538 0.53835 0.78554 0.0
Pr840 Pr 1.00621 0.51081 1.03786 0.0
Pr841 Pr 0.96336 0.47862 1.04361 0.0
C842 C 0.08103 0.555 1.03148 0.0
C843 C 0.12463 0.53392 1.03119 0.0
C844 C 0.15333 0.54446 1.0187 0.0
C845 C 0.17883 0.51106 1.01178 0.0
C846 C 0.17481 0.46724 1.01721 0.0
C847 C 0.1532 0.45889 1.03161 0.0
C848 C 0.12857 0.49253 1.03876 0.0
C849 C 0.93797 0.55305 1.01014 0.0
C850 C 0.98929 0.45317 1.00907 0.0
C851 C 0.88187 0.46782 1.05577 0.0
C852 C 0.83617 0.47945 1.05176 0.0
C853 C 0.8023 0.45226 1.05734 0.0
C854 C 0.75858 0.46653 1.05661 0.0
C855 C 0.74809 0.50863 1.0504 0.0
C856 C 0.78163 0.53293 1.04275 0.0
C857 C 0.82564 0.51856 1.04355 0.0
C858 C 1.01199 0.39295 1.04248 0.0
C859 C 1.01399 0.52147 1.077 0.0
O860 O 0.06175 0.5571 1.04537 0.0
O861 O 0.05474 0.54011 1.02036 0.0
O862 O 0.9426 0.54559 1.02607 0.0
O863 O 0.94111 0.54674 1.02593 0.0
O864 O 0.95291 0.45909 1.01706 0.0
O865 O 1.02524 0.46711 1.01587 0.0
O866 O 0.90076 0.43866 1.04659 0.0
O867 O 0.90811 0.50021 1.06 0.0
O868 O 1.02828 0.43278 1.04541 0.0
O869 O 0.97027 0.39963 1.03938 0.0
O870 O 1.01952 0.54615 1.06428 0.0
O871 O 0.9932 0.48502 1.07212 0.0
H872 H 0.15078 0.57613 1.01272 0.0
H873 H 0.19565 0.51794 1.00065 0.0
H874 H 0.14978 0.42531 1.03595 0.0
H875 H 0.10684 0.48381 1.04854 0.0
H876 H 0.80992 0.42152 1.06341 0.0
H877 H 0.73411 0.44677 1.06276 0.0
H878 H 0.77453 0.56516 1.0377 0.0
H879 H 0.85154 0.53941 1.03876 0.0
Pr880 Pr 0.83638 0.74941 0.28659 0.0
Pr881 Pr 0.86882 0.71038 0.29211 0.0
C882 C 0.79003 0.82388 0.28118 0.0
C883 C 0.8092 0.8683 0.2808 0.0
C884 C 0.79962 0.89554 0.26776 0.0
C885 C 0.83235 0.92366 0.26191 0.0
C886 C 0.87451 0.92391 0.26903 0.0
C887 C 0.88022 0.90446 0.28398 0.0
C888 C 0.8477 0.8762 0.28983 0.0
C889 C 0.79538 0.68271 0.25858 0.0
C890 C 0.89323 0.73092 0.2574 0.0
C891 C 0.87078 0.63155 0.30664 0.0
C892 C 0.84803 0.58882 0.30442 0.0
C893 C 0.81049 0.57963 0.31359 0.0
C894 C 0.7919 0.5377 0.31342 0.0
C895 C 0.81062 0.50338 0.3042 0.0
C896 C 0.84542 0.51386 0.29373 0.0
C897 C 0.86422 0.55622 0.29392 0.0
C898 C 0.95465 0.75708 0.29063 0.0
C899 C 0.82809 0.75904 0.32536 0.0
O900 O 0.79022 0.80412 0.29498 0.0
O901 O 0.80446 0.79838 0.26978 0.0
O902 O 0.80269 0.68664 0.27448 0.0
O903 O 0.80147 0.68499 0.27436 0.0
O904 O 0.89118 0.69567 0.2662 0.0
O905 O 0.87631 0.76657 0.26356 0.0
O906 O 0.90001 0.64307 0.29597 0.0
O907 O 0.8461 0.66452 0.31152 0.0
O908 O 0.91477 0.77467 0.29192 0.0
O909 O 0.94854 0.71444 0.28972 0.0
O910 O 0.80035 0.75563 0.31336 0.0
O911 O 0.86714 0.74713 0.31951 0.0
H912 H 0.77003 0.8901 0.26071 0.0
H913 H 0.8273 0.93906 0.25038 0.0
H914 H 0.91194 0.9057 0.28993 0.0
H915 H 0.85547 0.85613 0.30015 0.0
H916 H 0.79693 0.60408 0.3217 0.0
H917 H 0.76571 0.53154 0.32192 0.0
H918 H 0.8604 0.48842 0.28638 0.0
H919 H 0.89275 0.56264 0.28647 0.0
Pr920 Pr 0.60113 0.58937 0.53947 0.0
Pr921 Pr 0.6397 0.62114 0.54529 0.0
C922 C 0.52713 0.54219 0.5344 0.0
C923 C 0.48293 0.56135 0.53393 0.0
C924 C 0.45141 0.5431 0.52366 0.0
C925 C 0.42236 0.57123 0.51564 0.0
C926 C 0.42733 0.61742 0.51721 0.0
C927 C 0.45194 0.63421 0.52997 0.0
C928 C 0.47921 0.60589 0.53858 0.0
C929 C 0.67062 0.55006 0.51151 0.0
C930 C 0.62026 0.64959 0.51109 0.0
C931 C 0.7177 0.62151 0.56039 0.0
C932 C 0.75942 0.59721 0.5581 0.0
C933 C 0.76981 0.56313 0.56872 0.0
C934 C 0.80981 0.54093 0.56753 0.0
C935 C 0.84101 0.55269 0.5558 0.0
C936 C 0.82951 0.58499 0.54449 0.0
C937 C 0.78885 0.60706 0.5456 0.0
C938 C 0.59243 0.70729 0.54401 0.0
C939 C 0.59061 0.58169 0.57834 0.0
O940 O 0.54678 0.54357 0.54821 0.0
O941 O 0.55235 0.55629 0.52288 0.0
O942 O 0.66381 0.55508 0.52745 0.0
O943 O 0.66562 0.55364 0.52734 0.0
O944 O 0.65527 0.64623 0.52002 0.0
O945 O 0.5844 0.63175 0.51676 0.0
O946 O 0.70711 0.65128 0.54977 0.0
O947 O 0.68415 0.59748 0.56503 0.0
O948 O 0.57535 0.66731 0.54557 0.0
O949 O 0.635 0.70105 0.54257 0.0
O950 O 0.59372 0.55395 0.56631 0.0
O951 O 0.60331 0.62049 0.57262 0.0
H952 H 0.45338 0.50862 0.52014 0.0
H953 H 0.40215 0.55756 0.50616 0.0
H954 H 0.45571 0.66947 0.53163 0.0
H955 H 0.50259 0.6202 0.54691 0.0
H956 H 0.74767 0.5547 0.57841 0.0
H957 H 0.81761 0.51723 0.57679 0.0
H958 H 0.85304 0.59508 0.53547 0.0
H959 H 0.7813 0.63283 0.53706 0.0
Pr960 Pr 0.36464 0.38992 0.29469 0.0
Pr961 Pr 0.33368 0.34895 0.28783 0.0
C962 C 0.36454 0.4679 0.30976 0.0
C963 C 0.34318 0.51088 0.30683 0.0
C964 C 0.30759 0.52328 0.31647 0.0
C965 C 0.28913 0.56508 0.31508 0.0
C966 C 0.30621 0.59609 0.30413 0.0
C967 C 0.33951 0.58234 0.29352 0.0
C968 C 0.35797 0.53999 0.29487 0.0
C969 C 0.45069 0.34261 0.29332 0.0
C970 C 0.32447 0.33906 0.32722 0.0
C971 C 0.29152 0.27419 0.2793 0.0
C972 C 0.31257 0.23079 0.27731 0.0
C973 C 0.30935 0.21018 0.26238 0.0
C974 C 0.34488 0.18533 0.25667 0.0
C975 C 0.38321 0.18042 0.266 0.0
C976 C 0.38246 0.19328 0.282 0.0
C977 C 0.34746 0.21902 0.28762 0.0
C978 C 0.29568 0.42098 0.26078 0.0
C979 C 0.39569 0.3767 0.26051 0.0
O980 O 0.39619 0.45598 0.30006 0.0
O981 O 0.33798 0.43546 0.31365 0.0
O982 O 0.41091 0.325 0.29443 0.0
O983 O 0.44448 0.38524 0.29246 0.0
O984 O 0.29806 0.33815 0.31468 0.0
O985 O 0.36255 0.35537 0.32214 0.0
O986 O 0.28991 0.29007 0.29375 0.0
O987 O 0.30538 0.30334 0.26907 0.0
O988 O 0.29864 0.41205 0.2766 0.0
O989 O 0.2971 0.41383 0.27653 0.0
O990 O 0.38995 0.41031 0.26993 0.0
O991 O 0.37996 0.3391 0.26552 0.0
H992 H 0.2953 0.50139 0.32567 0.0
H993 H 0.26424 0.57404 0.32378 0.0
H994 H 0.35335 0.60534 0.28498 0.0
H995 H 0.38496 0.53087 0.28703 0.0
H996 H 0.28276 0.21874 0.25426 0.0
H997 H 0.34476 0.17496 0.24429 0.0
H998 H 0.41075 0.18776 0.28959 0.0
H999 H 0.35047 0.23393 0.29933 0.0
Pr1000 Pr 0.46016 0.6174 1.0431 0.0
Pr1001 Pr 0.48963 0.58757 1.03736 0.0
C1002 C 0.39682 0.60668 1.06524 0.0
C1003 C 0.40216 0.59411 1.0822 0.0
C1004 C 0.40734 0.62633 1.0941 0.0
C1005 C 0.41724 0.61389 0.10975 0.0
C1006 C 0.42323 0.56894 0.11381 0.0
C1007 C 0.41827 0.53687 1.10182 0.0
C1008 C 0.40706 0.54916 1.08634 0.0
C1009 C 0.50331 0.70463 1.04132 0.0
C1010 C 0.50973 0.57768 1.0751 0.0
C1011 C 0.55896 0.53331 1.03201 0.0
C1012 C 0.60577 0.54298 1.03031 0.0
C1013 C 0.62822 0.52185 1.01796 0.0
C1014 C 0.66251 0.54363 1.01034 0.0
C1015 C 0.6756 0.58632 1.01536 0.0
C1016 C 0.65874 0.60297 1.02978 0.0
C1017 C 0.62311 0.58184 1.03706 0.0
C1018 C 0.42697 0.54669 1.00813 0.0
C1019 C 0.47228 0.64928 1.00953 0.0
O1020 O 0.40804 0.57591 1.05515 0.0
O1021 O 0.41034 0.64589 1.06082 0.0
O1022 O 0.52159 0.6648 1.04171 0.0
O1023 O 0.46034 0.69774 1.0411 0.0
O1024 O 0.49048 0.55162 1.0646 0.0
O1025 O 0.51098 0.61572 1.06742 0.0
O1026 O 0.54191 0.53904 1.04607 0.0
O1027 O 0.53481 0.55032 1.02075 0.0
O1028 O 0.42697 0.55812 1.02384 0.0
O1029 O 0.42517 0.55705 1.02363 0.0
O1030 O 0.43814 0.64789 1.019 0.0
O1031 O 0.5076 0.62935 1.0148 0.0
H1032 H 0.40367 0.66116 1.09134 0.0
H1033 H 0.41847 0.63962 0.11872 0.0
H1034 H 0.42247 0.50202 1.10442 0.0
H1035 H 0.40343 0.52324 1.0775 0.0
H1036 H 0.61504 0.49185 1.01267 0.0
H1037 H 0.67352 0.52938 0.99921 0.0
H1038 H 0.66909 0.63497 1.03427 0.0
H1039 H 0.60621 0.5984 1.04678 0.0
Pr1040 Pr 0.2302 0.71437 0.79363 0.0
Pr1041 Pr 0.26203 0.7543 0.78856 0.0
C1042 C 0.23034 0.63638 0.8089 0.0
C1043 C 0.26735 0.61622 0.81768 0.0
C1044 C 0.26292 0.61104 0.83416 0.0
C1045 C 0.29965 0.60136 0.84346 0.0
C1046 C 0.34167 0.59582 0.83651 0.0
C1047 C 0.34604 0.59877 0.81992 0.0
C1048 C 0.30915 0.60961 0.81054 0.0
C1049 C 0.14347 0.75916 0.79175 0.0
C1050 C 0.27336 0.75984 0.82715 0.0
C1051 C 0.30404 0.83146 0.78443 0.0
C1052 C 0.28031 0.87368 0.7836 0.0
C1053 C 0.28877 0.90131 0.77062 0.0
C1054 C 0.25363 0.92341 0.76337 0.0
C1055 C 0.21025 0.91758 0.76911 0.0
C1056 C 0.20387 0.89842 0.78406 0.0
C1057 C 0.23909 0.8766 0.79141 0.0
C1058 C 0.30431 0.68893 0.76032 0.0
C1059 C 0.20067 0.73971 0.75965 0.0
O1060 O 0.23385 0.63911 0.79347 0.0
O1061 O 0.21546 0.67271 0.81527 0.0
O1062 O 0.18276 0.77734 0.79376 0.0
O1063 O 0.15075 0.71682 0.78986 0.0
O1064 O 0.30047 0.75792 0.81496 0.0
O1065 O 0.23428 0.74834 0.82137 0.0
O1066 O 0.30314 0.8114 0.79817 0.0
O1067 O 0.2946 0.80496 0.77263 0.0
O1068 O 0.29764 0.69308 0.77626 0.0
O1069 O 0.29896 0.69145 0.7761 0.0
O1070 O 0.19837 0.70472 0.76866 0.0
O1071 O 0.22385 0.77249 0.7652 0.0
H1072 H 0.23127 0.61634 0.83994 0.0
H1073 H 0.29505 0.59788 0.85621 0.0
H1074 H 0.37787 0.59334 0.8143 0.0
H1075 H 0.31361 0.61391 0.79783 0.0
H1076 H 0.32042 0.89998 0.76456 0.0
H1077 H 0.25919 0.93904 0.75193 0.0
H1078 H 0.17092 0.8949 0.78889 0.0
H1079 H 0.23208 0.85634 0.80174 0.0
Pr1080 Pr 0.14002 0.47661 0.54135 0.0
Pr1081 Pr 0.10139 0.51068 0.53651 0.0
C1082 C 0.22095 0.47026 0.5542 0.0
C1083 C 0.26303 0.4942 0.55197 0.0
C1084 C 0.27008 0.53415 0.56008 0.0
C1085 C 0.31151 0.5538 0.56008 0.0
C1086 C 0.34738 0.53405 0.55199 0.0
C1087 C 0.33894 0.49683 0.54232 0.0
C1088 C 0.29718 0.47673 0.54247 0.0
C1089 C 0.09136 0.3919 0.54025 0.0
C1090 C 0.09268 0.51725 0.57541 0.0
C1091 C 1.02996 0.56267 0.53296 0.0
C1092 C 0.98446 0.54701 0.53351 0.0
C1093 C 0.95303 0.56666 0.52353 0.0
C1094 C 0.92066 0.54019 0.51648 0.0
C1095 C 0.92179 0.49407 0.51883 0.0
C1096 C 0.94649 0.47691 0.53151 0.0
C1097 C 0.97783 0.50356 0.53894 0.0
C1098 C 0.16824 0.55132 0.50829 0.0
C1099 C 0.11057 0.45639 0.50647 0.0
O1100 O 0.2078 0.44445 0.54263 0.0
O1101 O 0.18868 0.49275 0.56075 0.0
O1102 O 0.07491 0.43221 0.54209 0.0
O1103 O 0.13384 0.39724 0.53838 0.0
O1104 O 0.09394 0.54502 0.56342 0.0
O1105 O 0.10664 0.47883 0.56949 0.0
O1106 O 0.05177 0.56018 0.54634 0.0
O1107 O 0.05207 0.54648 0.52093 0.0
O1108 O 0.16493 0.54285 0.52417 0.0
O1109 O 0.16656 0.54398 0.52403 0.0
O1110 O 0.14717 0.45579 0.51468 0.0
O1111 O 0.07695 0.47483 0.51344 0.0
H1112 H 0.24439 0.54901 0.56734 0.0
H1113 H 0.3159 0.58189 0.56793 0.0
H1114 H 0.36548 0.48113 0.53572 0.0
H1115 H 0.29236 0.44635 0.53581 0.0
H1116 H 0.95743 0.60029 0.51936 0.0
H1117 H 0.9008 0.55417 0.50696 0.0
H1118 H 0.94716 0.4417 0.5338 0.0
H1119 H 1.0014 0.48811 0.54695 0.0
Pr1120 Pr 0.36019 0.71342 0.42587 0.0
Pr1121 Pr 0.33271 0.74729 0.43357 0.0
C1122 C 0.34162 0.65426 0.40288 0.0
C1123 C 0.33132 0.66123 0.3858 0.0
C1124 C 0.36338 0.65391 0.37407 0.0
C1125 C 0.35454 0.66455 0.35818 0.0
C1126 C 0.31376 0.68401 0.35361 0.0
C1127 C 0.28208 0.69168 0.36553 0.0
C1128 C 0.29013 0.67914 0.38123 0.0
C1129 C 0.44869 0.75598 0.42811 0.0
C1130 C 0.32298 0.76995 0.39519 0.0
C1131 C 0.28796 0.82138 0.4415 0.0
C1132 C 0.30471 0.86654 0.44145 0.0
C1133 C 0.2857 0.89762 0.45172 0.0
C1134 C 0.31286 0.92879 0.4591 0.0
C1135 C 0.35908 0.92628 0.45696 0.0
C1136 C 0.37572 0.9023 0.44398 0.0
C1137 C 0.34816 0.87282 0.43599 0.0
C1138 C 0.29604 0.67681 0.46137 0.0
C1139 C 0.39735 0.70766 0.45855 0.0
O1140 O 0.31206 0.66993 0.41271 0.0
O1141 O 0.38224 0.66154 0.40771 0.0
O1142 O 0.40934 0.77505 0.42816 0.0
O1143 O 0.44091 0.71319 0.42753 0.0
O1144 O 0.29554 0.759 0.40675 0.0
O1145 O 0.36228 0.76054 0.40107 0.0
O1146 O 0.28452 0.80261 0.42761 0.0
O1147 O 0.30755 0.79606 0.45189 0.0
O1148 O 0.29869 0.68509 0.44544 0.0
O1149 O 0.29702 0.6831 0.44557 0.0
O1150 O 0.3918 0.67875 0.44721 0.0
O1151 O 0.38052 0.74692 0.45586 0.0
H1152 H 0.39528 0.63989 0.37717 0.0
H1153 H 0.37968 0.65632 0.34949 0.0
H1154 H 0.25114 0.70814 0.363 0.0
H1155 H 0.26439 0.68543 0.38993 0.0
H1156 H 0.25191 0.89372 0.4558 0.0
H1157 H 0.29907 0.94862 0.46867 0.0
H1158 H 0.41088 0.90037 0.44177 0.0
H1159 H 0.36288 0.84968 0.42766 0.0
Pr1160 Pr 0.1369 0.61322 0.18 0.0
Pr1161 Pr 0.09448 0.58211 0.18701 0.0
C1162 C 0.21593 0.61984 0.16566 0.0
C1163 C 0.26186 0.60718 0.16899 0.0
C1164 C 0.29564 0.63625 0.16468 0.0
C1165 C 0.3395 0.62212 0.16488 0.0
C1166 C 0.35027 0.57828 0.16924 0.0
C1167 C 0.31673 0.55148 0.17568 0.0
C1168 C 0.27265 0.56566 0.17541 0.0
C1169 C 0.08842 0.6987 0.18209 0.0
C1170 C 0.08338 0.57124 0.14757 0.0
C1171 C 1.01937 0.54072 0.19509 0.0
C1172 C 0.97626 0.56279 0.19434 0.0
C1173 C 0.94741 0.55838 0.20727 0.0
C1174 C 0.92117 0.59427 0.21183 0.0
C1175 C 0.9244 0.63463 0.2036 0.0
C1176 C 0.94714 0.63627 0.18913 0.0
C1177 C 0.9726 0.6001 0.18437 0.0
C1178 C 0.16401 0.54168 0.21414 0.0
C1179 C 0.12258 0.64216 0.21463 0.0
O1180 O 0.19954 0.65109 0.17459 0.0
O1181 O 0.18794 0.58787 0.1626 0.0
O1182 O 0.07143 0.65906 0.17973 0.0
O1183 O 0.13075 0.69229 0.1839 0.0
O1184 O 0.07855 0.54689 0.16047 0.0
O1185 O 0.10461 0.60761 0.15209 0.0
O1186 O 1.03889 0.53378 0.18145 0.0
O1187 O 1.04582 0.55844 0.20559 0.0
O1188 O 0.15864 0.54783 0.1982 0.0
O1189 O 0.16013 0.54668 0.19835 0.0
O1190 O 0.15622 0.63597 0.20529 0.0
O1191 O 0.08461 0.62769 0.20947 0.0
H1192 H 0.28789 0.66879 0.16001 0.0
H1193 H 0.36385 0.64407 0.15972 0.0
H1194 H 0.32394 0.5178 0.1792 0.0
H1195 H 0.24686 0.5431 0.17914 0.0
H1196 H 0.94993 0.53009 0.21515 0.0
H1197 H 0.90377 0.59265 0.22311 0.0
H1198 H 0.94987 0.66712 0.18266 0.0
H1199 H 0.99458 0.60422 0.17427 0.0
Pr1200 Pr 0.23064 0.38709 0.92657 0.0
Pr1201 Pr 0.26243 0.35169 0.93293 0.0
C1202 C 0.23065 0.46032 0.90836 0.0
C1203 C 0.26744 0.48478 0.90122 0.0
C1204 C 0.26406 0.49602 0.88513 0.0
C1205 C 0.30102 0.51086 0.87694 0.0
C1206 C 0.34217 0.51511 0.88468 0.0
C1207 C 0.34544 0.50564 0.90097 0.0
C1208 C 0.30824 0.48997 0.90919 0.0
C1209 C 0.14416 0.34134 0.92916 0.0
C1210 C 0.27354 0.33508 0.89449 0.0
C1211 C 0.3144 0.2813 0.93924 0.0
C1212 C 0.30444 0.23542 0.94294 0.0
C1213 C 0.32471 0.21787 0.95646 0.0
C1214 C 0.30204 0.18744 0.96568 0.0
C1215 C 0.25976 0.17238 0.961 0.0
C1216 C 0.24368 0.18393 0.94584 0.0
C1217 C 0.26561 0.21602 0.93693 0.0
C1218 C 0.29769 0.42449 0.96033 0.0
C1219 C 0.19975 0.37246 0.96084 0.0
O1220 O 0.22624 0.46188 0.92379 0.0
O1221 O 0.22585 0.42064 0.90266 0.0
O1222 O 0.18411 0.32352 0.92865 0.0
O1223 O 0.15078 0.3841 0.92911 0.0
O1224 O 0.30063 0.34389 0.90636 0.0
O1225 O 0.23395 0.34457 0.9003 0.0
O1226 O 0.306 0.29461 0.92481 0.0
O1227 O 0.30047 0.30893 0.95005 0.0
O1228 O 0.29514 0.41534 0.94445 0.0
O1229 O 0.29668 0.41726 0.94457 0.0
O1230 O 0.19719 0.40447 0.95053 0.0
O1231 O 0.22288 0.3381 0.95646 0.0
H1232 H 0.23318 0.4916 0.87873 0.0
H1233 H 0.29747 0.51885 0.86442 0.0
H1234 H 0.37664 0.5096 0.9072 0.0
H1235 H 0.31169 0.48085 0.9216 0.0
H1236 H 0.35454 0.2328 0.96125 0.0
H1237 H 0.3155 0.18089 0.97738 0.0
H1238 H 0.21179 0.17212 0.94173 0.0
H1239 H 0.2495 0.22925 0.92641 0.0
Pr1240 Pr 0.46478 0.4967 0.67844 0.0
Pr1241 Pr 0.49984 0.52089 0.68745 0.0
C1242 C 0.4101 0.52001 0.65458 0.0
C1243 C 0.41654 0.52743 0.63731 0.0
C1244 C 0.40638 0.49409 0.62631 0.0
C1245 C 0.41498 0.5002 0.61014 0.0
C1246 C 0.43475 0.53957 0.6045 0.0
C1247 C 0.4451 0.57281 0.6156 0.0
C1248 C 0.43517 0.56724 0.63172 0.0
C1249 C 0.50586 0.40658 0.68156 0.0
C1250 C 0.52343 0.53248 0.64862 0.0
C1251 C 0.57633 0.55429 0.69869 0.0
C1252 C 0.61935 0.5325 0.69738 0.0
C1253 C 0.64882 0.53551 0.71019 0.0
C1254 C 0.67627 0.49969 0.71369 0.0
C1255 C 0.67329 0.46066 0.70459 0.0
C1256 C 0.64984 0.46092 0.69022 0.0
C1257 C 0.62323 0.49717 0.6865 0.0
C1258 C 0.43163 0.56343 0.71409 0.0
C1259 C 0.43749 0.46241 0.70947 0.0
O1260 O 0.4296 0.54862 0.66393 0.0
O1261 O 0.4126 0.47927 0.6599 0.0
O1262 O 0.52564 0.44522 0.68177 0.0
O1263 O 0.46346 0.41569 0.68028 0.0
O1264 O 0.51678 0.55878 0.66104 0.0
O1265 O 0.50971 0.49341 0.65336 0.0
O1266 O 0.55864 0.5674 0.68537 0.0
O1267 O 0.5485 0.53252 0.70751 0.0
O1268 O 0.43975 0.55988 0.69821 0.0
O1269 O 0.43787 0.56167 0.69835 0.0
O1270 O 0.41595 0.46876 0.69635 0.0
O1271 O 0.47952 0.47385 0.70915 0.0
H1272 H 0.39153 0.46331 0.63019 0.0
H1273 H 0.40479 0.47421 0.60204 0.0
H1274 H 0.46132 0.60303 0.612 0.0
H1275 H 0.44352 0.5938 0.63987 0.0
H1276 H 0.64618 0.56241 0.7187 0.0
H1277 H 0.69432 0.49987 0.72487 0.0
H1278 H 0.64756 0.43121 0.68303 0.0
H1279 H 0.60088 0.49451 0.67643 0.0
C1280 C 0.15106 0.47789 0.46629 0.0
C1281 C 0.16706 0.4357 0.46244 0.0
C1282 C 0.12307 0.48371 0.47946 0.0
C1283 C 0.11243 0.44773 0.48936 0.0
H1284 H 0.16389 0.50666 0.46017 0.0
H1285 H 0.11502 0.51709 0.48319 0.0
S1286 S 0.13731 0.32976 0.48183 0.0
N1287 N 0.16226 0.3565 0.46722 0.0
N1288 N 0.1122 0.36809 0.49263 0.0
C1289 C 0.12284 0.40497 0.48421 0.0
C1290 C 0.14987 0.39882 0.47054 0.0
C1291 C 0.87096 0.90753 0.71817 0.0
C1292 C 0.91394 0.92297 0.7154 0.0
C1293 C 0.86225 0.88048 0.73137 0.0
C1294 C 0.89614 0.86971 0.7422 0.0
H1295 H 0.84366 0.9197 0.71103 0.0
H1296 H 0.82817 0.87273 0.73421 0.0
S1297 S 1.01525 0.8943 0.73807 0.0
N1298 N 0.99182 0.91872 0.72259 0.0
N1299 N 0.97476 0.86971 0.74784 0.0
C1300 C 0.93983 0.88014 0.73832 0.0
C1301 C 0.9489 0.90664 0.72476 0.0
C1302 C 0.44579 0.63264 0.96687 0.0
C1303 C 0.42038 0.6705 0.96394 0.0
C1304 C 0.46944 0.62864 0.9812 0.0
C1305 C 0.4667 0.6619 0.99292 0.0
H1306 H 0.44439 0.6049 0.95871 0.0
H1307 H 0.48553 0.59745 0.98387 0.0
S1308 S 0.41161 0.7707 0.98934 0.0
N1309 N 0.40046 0.74499 0.97241 0.0
N1310 N 0.44268 0.73612 0.99972 0.0
C1311 C 0.4456 0.70175 0.98929 0.0
C1312 C 0.42286 0.70639 0.97461 0.0
C1313 C 0.65295 0.19346 0.24218 0.0
C1314 C 0.69068 0.21982 0.2442 0.0
C1315 C 0.64829 0.16676 0.22875 0.0
C1316 C 0.6813 0.16556 0.21696 0.0
H1317 H 0.62936 0.18974 0.25182 0.0
H1318 H 0.62039 0.14424 0.22818 0.0
S1319 S 0.77943 0.23824 0.21451 0.0
N1320 N 0.75674 0.25047 0.23191 0.0
N1321 N 0.74744 0.20007 0.20628 0.0
C1322 C 0.71581 0.1964 0.21768 0.0
C1323 C 0.72058 0.22384 0.23146 0.0
C1324 C 0.18442 0.70709 0.24387 0.0
C1325 C 0.1854 0.67759 0.25678 0.0
C1326 C 0.15721 0.69905 0.2308 0.0
C1327 C 0.13026 0.66136 0.23032 0.0
H1328 H 0.20742 0.73459 0.24333 0.0
H1329 H 0.16088 0.7197 0.22032 0.0
S1330 S 0.1111 0.58228 0.26324 0.0
N1331 N 0.15035 0.6155 0.27002 0.0
N1332 N 0.09872 0.5999 0.24511 0.0
C1333 C 0.12618 0.63532 0.24408 0.0
C1334 C 0.15417 0.6435 0.25746 0.0
C1335 C 0.70438 0.88954 0.48872 0.0
C1336 C 0.68417 0.90362 0.47448 0.0
C1337 C 0.7008 0.91513 0.50267 0.0
C1338 C 0.67776 0.95553 0.50249 0.0
H1339 H 0.72565 0.86064 0.48879 0.0
H1340 H 0.71772 0.90444 0.51338 0.0
S1341 S 0.61072 1.00061 0.46912 0.0
N1342 N 0.63411 0.95564 0.46178 0.0
N1343 N 0.62733 1.00359 0.48782 0.0
C1344 C 0.65366 0.9671 0.48874 0.0
C1345 C 0.65692 0.94109 0.47475 0.0
C1346 C 0.42999 0.43253 0.7371 0.0
C1347 C 0.41269 0.45697 0.72437 0.0
C1348 C 0.40466 0.42577 0.75087 0.0
C1349 C 0.36218 0.44501 0.75257 0.0
H1350 H 0.46198 0.41652 0.73604 0.0
H1351 H 0.41735 0.40291 0.75969 0.0
S1352 S 0.30697 0.52044 0.72399 0.0
N1353 N 0.35245 0.504 0.71484 0.0
N1354 N 0.30858 0.49685 0.74169 0.0
C1355 C 0.34726 0.47387 0.74066 0.0
C1356 C 0.3714 0.47821 0.72626 0.0
C1357 C 0.9185 0.15924 1.00009 0.0
C1358 C 0.89882 0.11693 1.00153 0.0
C1359 C 0.91488 0.18377 0.986 0.0
C1360 C 0.89342 0.16582 0.9727 0.0
H1361 H 0.93957 0.17236 1.00941 0.0
H1362 H 0.93102 0.2157 0.98522 0.0
S1363 S 0.82914 0.06075 0.97127 0.0
N1364 N 0.84852 0.06347 0.98963 0.0
N1365 N 0.84824 0.10528 0.96226 0.0
C1366 C 0.87157 0.12477 0.97425 0.0
C1367 C 0.87226 0.10169 0.98895 0.0
C1368 C 0.86465 0.68351 0.73618 0.0
C1369 C 0.88074 0.66985 0.75113 0.0
C1370 C 0.88943 0.6777 0.72241 0.0
C1371 C 0.93143 0.65802 0.72295 0.0
H1372 H 0.83248 0.69909 0.73502 0.0
H1373 H 0.87475 0.68732 0.71113 0.0
S1374 S 0.99191 0.62232 0.75921 0.0
N1375 N 0.94375 0.64051 0.7659 0.0
N1376 N 0.99029 0.62846 0.73965 0.0
C1377 C 0.94951 0.6468 0.73784 0.0
C1378 C 0.92415 0.65299 0.75203 0.0
C1379 C 0.17588 0.15552 0.50112 0.0
C1380 C 0.19664 0.11361 0.50227 0.0
C1381 C 0.17963 0.1813 0.48732 0.0
C1382 C 0.20244 0.16501 0.47404 0.0
H1383 H 0.15408 0.16737 0.51044 0.0
H1384 H 0.16256 0.21283 0.4867 0.0
S1385 S 0.26905 0.06135 0.47198 0.0
N1386 N 0.24842 0.06195 0.49016 0.0
N1387 N 0.24975 0.10646 0.46334 0.0
C1388 C 0.22528 0.12438 0.47535 0.0
C1389 C 0.22409 0.09989 0.48974 0.0
C1390 C 0.7003 0.41894 0.22462 0.0
C1391 C 0.65904 0.44015 0.2243 0.0
C1392 C 0.7234 0.41386 0.2388 0.0
C1393 C 0.70623 0.42972 0.25331 0.0
H1394 H 0.71603 0.40795 0.2137 0.0
H1395 H 0.7554 0.39765 0.23829 0.0
S1396 S 0.59516 0.47941 0.25931 0.0
N1397 N 0.59869 0.47166 0.23984 0.0
N1398 N 0.64218 0.46088 0.26691 0.0
C1399 C 0.66297 0.447 0.25344 0.0
C1400 C 0.63933 0.45257 0.23881 0.0
C1401 C 0.42006 0.90977 0.98813 0.0
C1402 C 0.40005 0.92557 0.97422 0.0
C1403 C 0.42366 0.93731 1.00156 0.0
C1404 C 0.40563 0.98065 1.00159 0.0
H1405 H 0.43508 0.87719 0.98834 0.0
H1406 H 0.44319 0.92543 1.0115 0.0
S1407 S 0.34133 1.03271 0.96891 0.0
N1408 N 0.35825 0.98509 0.96162 0.0
N1409 N 0.35973 1.03365 0.9874 0.0
C1410 C 0.38119 0.99421 0.98826 0.0
C1411 C 0.37998 0.96764 0.97439 0.0
C1412 C 0.95051 0.46539 0.96836 0.0
C1413 C 0.92827 0.42504 0.96679 0.0
C1414 C 0.98016 0.47198 0.98104 0.0
C1415 C 0.98662 0.43879 0.99253 0.0
H1416 H 0.94156 0.49292 0.9608 0.0
H1417 H 0.99309 0.50486 0.98315 0.0
S1418 S 0.94532 0.32383 0.99089 0.0
N1419 N 0.92273 0.34833 0.97527 0.0
N1420 N 0.9765 0.36176 0.99959 0.0
C1421 C 0.97009 0.39642 0.98953 0.0
C1422 C 0.94096 0.38934 0.9765 0.0
C1423 C 0.36536 0.1909 0.71637 0.0
C1424 C 0.40821 0.17733 0.71225 0.0
C1425 C 0.35856 0.21788 0.72978 0.0
C1426 C 0.39416 0.22971 0.73973 0.0
H1427 H 0.33698 0.17744 0.71012 0.0
H1428 H 0.32495 0.22484 0.73346 0.0
S1429 S 0.51297 0.20951 0.73217 0.0
N1430 N 0.4872 0.18466 0.71726 0.0
N1431 N 0.47373 0.23228 0.74319 0.0
C1432 C 0.43726 0.22079 0.73463 0.0
C1433 C 0.44442 0.19503 0.72067 0.0
C1434 C 0.67884 0.70771 0.47941 0.0
C1435 C 0.67291 0.67805 0.46667 0.0
C1436 C 0.65502 0.7028 0.49345 0.0
C1437 C 0.6247 0.66807 0.49512 0.0
H1438 H 0.70509 0.73216 0.47909 0.0
H1439 H 0.66427 0.72286 0.50366 0.0
S1440 S 0.58444 0.59411 0.463 0.0
N1441 N 0.62507 0.62255 0.45467 0.0
N1442 N 0.58072 0.61199 0.4816 0.0
C1443 C 0.61269 0.64353 0.48156 0.0
C1444 C 0.63695 0.64882 0.46709 0.0
C1445 C 0.22769 0.87972 0.22907 0.0
C1446 C 0.19563 0.86893 0.24051 0.0
C1447 C 0.21772 0.9091 0.21663 0.0
C1448 C 0.1749 0.9264 0.21514 0.0
H1449 H 0.2617 0.87004 0.23104 0.0
H1450 H 0.24413 0.92137 0.20914 0.0
S1451 S 0.07667 0.89692 0.23926 0.0
N1452 N 0.11806 0.86998 0.24773 0.0
N1453 N 0.0982 0.92299 0.2238 0.0
C1454 C 0.14108 0.90964 0.22489 0.0
C1455 C 0.15165 0.88091 0.23772 0.0
C1456 C 0.63159 0.97269 0.98258 0.0
C1457 C 0.6303 0.94129 0.99492 0.0
C1458 C 0.65952 0.96638 0.9694 0.0
C1459 C 0.68535 0.92802 0.96827 0.0
H1460 H 0.61507 1.00424 0.98406 0.0
H1461 H 0.66361 0.99272 0.96081 0.0
S1462 S 0.68343 0.83102 0.99526 0.0
N1463 N 0.65019 0.86755 1.00376 0.0
N1464 N 0.70064 0.85432 0.97859 0.0
C1465 C 0.67879 0.89367 0.9793 0.0
C1466 C 0.65149 0.9006 0.99279 0.0
C1467 C 0.44936 0.41483 0.2439 0.0
C1468 C 0.41479 0.3841 0.24478 0.0
C1469 C 0.45637 0.43893 0.23005 0.0
C1470 C 0.42892 0.43304 0.21667 0.0
H1471 H 0.46811 0.4236 0.25448 0.0
H1472 H 0.48102 0.465 0.23025 0.0
S1473 S 0.34436 0.34582 0.21133 0.0
N1474 N 0.35967 0.34153 0.2302 0.0
N1475 N 0.37461 0.38602 0.2036 0.0
C1476 C 0.39935 0.39734 0.21649 0.0
C1477 C 0.39172 0.37296 0.23079 0.0
C1478 C 0.97002 0.11625 0.48091 0.0
C1479 C 0.97991 0.14956 0.49208 0.0
C1480 C 0.94354 0.12555 0.4676 0.0
C1481 C 0.92801 0.16863 0.46498 0.0
H1482 H 0.9778 0.08202 0.48355 0.0
H1483 H 0.93174 0.09849 0.46025 0.0
S1484 S 0.95339 0.26871 0.48889 0.0
N1485 N 0.97809 0.22781 0.49849 0.0
N1486 N 0.93059 0.24603 0.47294 0.0
C1487 C 0.94333 0.20315 0.47479 0.0
C1488 C 0.96898 0.19342 0.48854 0.0
C1489 C 0.21306 0.70237 0.71843 0.0
C1490 C 0.1711 0.68399 0.71592 0.0
C1491 C 0.2208 0.72947 0.73172 0.0
C1492 C 0.18727 0.73668 0.74301 0.0
H1493 H 0.24061 0.69218 0.71105 0.0
H1494 H 0.25431 0.73975 0.73434 0.0
S1495 S 0.06951 0.70574 0.73933 0.0
N1496 N 0.09345 0.68347 0.72352 0.0
N1497 N 0.10911 0.73185 0.74915 0.0
C1498 C 0.14404 0.72385 0.73936 0.0
C1499 C 0.13572 0.69778 0.72559 0.0
C1500 C 0.62088 0.14499 0.74405 0.0
C1501 C 0.62831 0.17212 0.7307 0.0
C1502 C 0.6469 0.14997 0.75783 0.0
C1503 C 0.68089 0.1815 0.7582 0.0
H1504 H 0.59863 0.11698 0.74321 0.0
H1505 H 0.64281 0.12716 0.76764 0.0
S1506 S 0.70547 0.2663 0.72766 0.0
N1507 N 0.66488 0.23678 0.71995 0.0
N1508 N 0.71484 0.2452 0.74548 0.0
C1509 C 0.68411 0.21236 0.74577 0.0
C1510 C 0.65724 0.20795 0.73207 0.0
C1511 C 0.14821 0.40687 0.97958 0.0
C1512 C 0.18599 0.38068 0.97727 0.0
C1513 C 0.1434 0.43201 0.9934 0.0
C1514 C 0.17644 0.43196 1.0052 0.0
H1515 H 0.12437 0.41121 0.97003 0.0
H1516 H 0.11536 0.45434 0.99429 0.0
S1517 S 0.27632 0.36129 1.0064 0.0
N1518 N 0.25303 0.34995 0.98901 0.0
N1519 N 0.24382 0.39806 1.01517 0.0
C1520 C 0.21158 0.40197 1.00397 0.0
C1521 C 0.21632 0.37586 0.98989 0.0
C1522 C 0.96819 0.97076 0.24461 0.0
C1523 C 0.97041 0.93916 0.23232 0.0
C1524 C 0.93922 0.96473 0.25753 0.0
C1525 C 0.91289 0.92666 0.25836 0.0
H1526 H 0.98477 1.00227 0.24326 0.0
H1527 H 0.93491 0.99102 0.26616 0.0
S1528 S 0.91452 0.83092 0.23074 0.0
N1529 N 0.95009 0.86622 0.22303 0.0
N1530 N 0.89646 0.85399 0.24737 0.0
C1531 C 0.91976 0.89245 0.24726 0.0
C1532 C 0.94878 0.8988 0.23422 0.0
C1533 C 0.44088 0.62917 0.4886 0.0
C1534 C 0.42237 0.64507 0.50288 0.0
C1535 C 0.43667 0.65266 0.4745 0.0
C1536 C 0.41359 0.69289 0.47408 0.0
H1537 H 0.45826 0.59778 0.48821 0.0
H1538 H 0.44943 0.6378 0.46366 0.0
S1539 S 0.36808 0.75396 0.50877 0.0
N1540 N 0.3876 0.70742 0.51638 0.0
N1541 N 0.3781 0.75147 0.48942 0.0
C1542 C 0.39891 0.71166 0.48848 0.0
C1543 C 0.40374 0.68772 0.50303 0.0
C1544 C 0.44359 0.13222 0.25556 0.0
C1545 C 0.42555 0.17452 0.25765 0.0
C1546 C 0.47203 0.12361 0.24269 0.0
C1547 C 0.48237 0.15718 0.2317 0.0
H1548 H 0.43227 0.10511 0.26292 0.0
H1549 H 0.48126 0.08964 0.2402 0.0
S1550 S 0.45391 0.27567 0.23501 0.0
N1551 N 0.42823 0.25216 0.25017 0.0
N1552 N 0.48078 0.23552 0.22577 0.0
C1553 C 0.47018 0.20068 0.23524 0.0
C1554 C 0.44176 0.20953 0.24834 0.0
C1555 C 0.67647 0.65969 1.00157 0.0
C1556 C 0.695 0.61693 1.00344 0.0
C1557 C 0.68198 0.68361 0.98742 0.0
C1558 C 0.70427 0.66463 0.97449 0.0
H1559 H 0.65488 0.67371 1.01055 0.0
H1560 H 0.66657 0.71586 0.98627 0.0
S1561 S 0.76631 0.55806 0.97438 0.0
N1562 N 0.74529 0.5619 0.99246 0.0
N1563 N 0.74905 0.60271 0.96492 0.0
C1564 C 0.7251 0.62319 0.97652 0.0
C1565 C 0.72246 0.60064 0.99131 0.0
C1566 C 0.17844 0.887 0.74451 0.0
C1567 C 0.17417 0.91673 0.75733 0.0
C1568 C 0.1544 0.89317 0.73054 0.0
C1569 C 0.12529 0.92905 0.72905 0.0
H1570 H 0.20359 0.86134 0.74474 0.0
H1571 H 0.16218 0.87269 0.72028 0.0
S1572 S 0.09206 1.00702 0.76099 0.0
N1573 N 0.13067 0.97572 0.76929 0.0
N1574 N 0.08612 0.98867 0.74253 0.0
C1575 C 0.1156 0.95469 0.74259 0.0
C1576 C 0.13998 0.94807 0.75697 0.0
C1577 C 0.93828 0.47628 0.49085 0.0
C1578 C 0.91535 0.46527 0.50488 0.0
C1579 C 0.93556 0.44984 0.47735 0.0
C1580 C 0.90998 0.41124 0.47734 0.0
H1581 H 0.95844 0.50589 0.49023 0.0
H1582 H 0.95191 0.46089 0.46657 0.0
S1583 S 0.84969 0.36371 0.51176 0.0
N1584 N 0.8709 0.41039 0.51867 0.0
N1585 N 0.86528 0.36015 0.49292 0.0
C1586 C 0.88965 0.39772 0.4916 0.0
C1587 C 0.89239 0.42497 0.50547 0.0
C1588 C 0.39897 0.91868 0.49929 0.0
C1589 C 0.43948 0.94119 0.49908 0.0
C1590 C 0.37369 0.91454 0.48557 0.0
C1591 C 0.38789 0.93262 0.471 0.0
H1592 H 0.38541 0.90609 0.51035 0.0
H1593 H 0.34242 0.89718 0.48649 0.0
S1594 S 0.49692 0.98441 0.46337 0.0
N1595 N 0.49669 0.97505 0.48278 0.0
N1596 N 0.44888 0.96636 0.45656 0.0
C1597 C 0.43053 0.95108 0.47024 0.0
C1598 C 0.45648 0.95553 0.4844 0.0
C1599 C 0.86893 0.71721 0.22999 0.0
C1600 C 0.90384 0.72639 0.24057 0.0
C1601 C 0.87603 0.69089 0.21646 0.0
C1602 C 0.9186 0.67531 0.21294 0.0
H1603 H 0.83538 0.72604 0.23318 0.0
H1604 H 0.84783 0.67944 0.20962 0.0
S1605 S 1.02226 0.70109 0.2347 0.0
N1606 N 0.98288 0.72499 0.24531 0.0
N1607 N 0.9972 0.67834 0.2192 0.0
C1608 C 0.9546 0.69051 0.22207 0.0
C1609 C 0.94701 0.71562 0.23612 0.0
C1610 C 0.18575 0.17159 0.97447 0.0
C1611 C 0.22937 0.15468 0.97329 0.0
C1612 C 0.1607 0.16602 0.98839 0.0
C1613 C 0.17933 0.14502 1.00165 0.0
H1614 H 0.17178 0.19177 0.96507 0.0
H1615 H 0.12782 0.18026 0.98909 0.0
S1616 S 0.28869 0.08928 1.00397 0.0
N1617 N 0.28612 0.10923 0.98571 0.0
N1618 N 0.24179 0.10369 1.01241 0.0
C1619 C 0.22165 0.12595 1.00031 0.0
C1620 C 0.24586 0.12931 0.98595 0.0
C1621 C 0.72249 0.40431 0.71671 0.0
C1622 C 0.67959 0.41887 0.71315 0.0
C1623 C 0.7302 0.37859 0.7303 0.0
C1624 C 0.6955 0.36873 0.74084 0.0
H1625 H 0.75045 0.4166 0.70997 0.0
H1626 H 0.76398 0.37093 0.73358 0.0
S1627 S 0.57644 0.3913 0.73484 0.0
N1628 N 0.60105 0.41416 0.71932 0.0
N1629 N 0.61637 0.36832 0.74549 0.0
C1630 C 0.65203 0.37809 0.73628 0.0
C1631 C 0.64389 0.40275 0.72219 0.0
C1632 C 0.05696 0.25526 0.4315 0.0
C1633 C 0.09734 0.28126 0.43142 0.0
C1634 C 1.01113 0.27299 0.43157 0.0
C1635 C 0.99929 0.31934 0.43153 0.0
H1636 H 0.06056 0.21962 0.43152 0.0
H1637 H 0.98437 0.24927 0.43163 0.0
S1638 S 0.089 0.405 0.43151 0.0
N1639 N 0.1181 0.35863 0.43142 0.0
N1640 N 1.03638 0.39043 0.43158 0.0
C1641 C 1.03925 0.34562 0.43153 0.0
C1642 C 0.08583 0.32756 0.43146 0.0
C1643 C 0.07271 0.75506 0.68059 0.0
C1644 C 1.02674 0.74356 0.67873 0.0
C1645 C 0.09051 0.80056 0.68089 0.0
C1646 C 0.06496 0.84093 0.6793 0.0
H1647 H 0.09604 0.72824 0.68194 0.0
H1648 H 0.12592 0.80393 0.68245 0.0
S1649 S 0.94198 0.83376 0.67441 0.0
N1650 N 0.95607 0.781 0.67554 0.0
N1651 N 0.98831 0.86254 0.67589 0.0
C1652 C 1.01889 0.83 0.67748 0.0
C1653 C 1.00065 0.78358 0.67726 0.0
C1654 C 0.51446 0.76709 0.93139 0.0
C1655 C 0.50229 0.81338 0.93107 0.0
C1656 C 0.56042 0.74956 0.93131 0.0
C1657 C 0.60076 0.77566 0.93098 0.0
H1658 H 0.48783 0.74322 0.93168 0.0
H1659 H 0.56415 0.71393 0.93156 0.0
S1660 S 0.59187 0.89937 0.93017 0.0
N1661 N 0.53927 0.8846 0.93047 0.0
N1662 N 0.62114 0.85311 0.93035 0.0
C1663 C 0.58898 0.82191 0.93072 0.0
C1664 C 0.54226 0.8398 0.93076 0.0
C1665 C 0.51027 0.29629 0.18282 0.0
C1666 C 0.53527 0.25597 0.18034 0.0
C1667 C 0.52819 0.34165 0.18224 0.0
C1668 C 0.5737 0.35285 0.1792 0.0
H1669 H 0.47529 0.29299 0.18534 0.0
H1670 H 0.50543 0.36856 0.18441 0.0
S1671 S 0.65662 0.26256 0.17174 0.0
N1672 N 0.61059 0.234 0.17441 0.0
N1673 N 0.64323 0.31533 0.17374 0.0
C1674 C 0.59921 0.31286 0.17679 0.0
C1675 C 0.5808 0.26663 0.17722 0.0
C1676 C 1.04501 0.75512 0.29324 0.0
C1677 C 1.00442 0.77989 0.2908 0.0
C1678 C 0.09031 0.77361 0.29318 0.0
C1679 C 0.10107 0.81939 0.29041 0.0
H1680 H 1.04196 0.71993 0.29535 0.0
H1681 H 0.11743 0.75101 0.29534 0.0
S1682 S 1.01021 0.90117 0.28227 0.0
N1683 N 0.98197 0.85496 0.2849 0.0
N1684 N 0.06295 0.88833 0.2846 0.0
C1685 C 0.06083 0.84434 0.28773 0.0
C1686 C 1.01477 0.82554 0.28796 0.0
C1687 C 0.57568 0.84331 0.54283 0.0
C1688 C 0.52945 0.85427 0.54457 0.0
C1689 C 0.59421 0.79796 0.54269 0.0
C1690 C 0.56932 0.75722 0.54437 0.0
H1691 H 0.59866 0.87048 0.54144 0.0
H1692 H 0.62968 0.795 0.54119 0.0
S1693 S 0.44634 0.7629 0.54959 0.0
N1694 N 0.4595 0.81582 0.54807 0.0
N1695 N 0.49312 0.73476 0.54813 0.0
C1696 C 0.5231 0.76766 0.54622 0.0
C1697 C 0.50408 0.81385 0.54623 0.0
C1698 C 0.58416 0.27463 0.79277 0.0
C1699 C 0.59474 0.32075 0.79085 0.0
C1700 C 0.53902 0.25594 0.79252 0.0
C1701 C 0.49827 0.28074 0.79062 0.0
H1702 H 0.61135 0.25188 0.79447 0.0
H1703 H 0.53623 0.22046 0.79397 0.0
S1704 S 0.50309 0.40328 0.78461 0.0
N1705 N 0.55604 0.39036 0.78647 0.0
N1706 N 0.47513 0.35659 0.78642 0.0
C1707 C 0.50824 0.32689 0.78872 0.0
C1708 C 0.55427 0.34594 0.78874 0.0
C1709 C 0.09706 0.28489 1.04712 0.0
C1710 C 0.07201 0.24455 1.04445 0.0
C1711 C 0.07929 0.33066 1.04663 0.0
C1712 C 1.03387 0.34239 1.04331 0.0
H1713 H 0.13198 0.28128 1.04972 0.0
H1714 H 0.10222 0.35745 1.0489 0.0
S1715 S 0.95126 0.25235 1.03473 0.0
N1716 N 0.99685 0.22341 1.03793 0.0
N1717 N 0.96483 0.30499 1.03691 0.0
C1718 C 1.00859 0.30232 1.04048 0.0
C1719 C 1.0267 0.25582 1.04105 0.0
C1720 C 0.08251 0.82733 0.7909 0.0
C1721 C 0.0933 0.78106 0.79214 0.0
C1722 C 1.03727 0.84575 0.79084 0.0
C1723 C 0.99672 0.82057 0.79221 0.0
H1724 H 0.1096 0.85031 0.78972 0.0
H1725 H 1.03425 0.8813 0.78966 0.0
S1726 S 1.00216 0.69738 0.79609 0.0
N1727 N 0.05507 0.7107 0.79475 0.0
N1728 N 0.97398 0.74421 0.79511 0.0
C1729 C 1.00694 0.7743 0.79357 0.0
C1730 C 0.05302 0.7554 0.7934 0.0
C1731 C 0.07422 0.25595 0.54076 0.0
C1732 C 1.0277 0.24554 0.54141 0.0
C1733 C 0.09293 0.30119 0.54043 0.0
C1734 C 0.06797 0.34224 0.54085 0.0
H1735 H 0.09725 0.2285 0.54037 0.0
H1736 H 0.12863 0.30379 0.53983 0.0
S1737 S 0.94425 0.33799 0.54236 0.0
N1738 N 0.95741 0.28487 0.54218 0.0
N1739 N 0.99137 0.36566 0.54186 0.0
C1740 C 1.02148 0.33235 0.54151 0.0
C1741 C 1.00229 0.28632 0.5417 0.0
C1742 C 0.58631 0.32616 0.29474 0.0
C1743 C 0.59659 0.27968 0.29379 0.0
C1744 C 0.5411 0.34487 0.29461 0.0
C1745 C 0.50034 0.31972 0.29369 0.0
H1746 H 0.61374 0.34909 0.29549 0.0
H1747 H 0.53826 0.38054 0.29526 0.0
S1748 S 0.50517 0.19632 0.29059 0.0
N1749 N 0.55808 0.20952 0.29154 0.0
N1750 N 0.4772 0.24331 0.29154 0.0
C1751 C 0.5103 0.27335 0.29272 0.0
C1752 C 0.55622 0.25428 0.29271 0.0
C1753 C 0.51948 0.84104 1.04249 0.0
C1754 C 0.56597 0.8519 1.04187 0.0
C1755 C 0.50094 0.79565 1.0423 0.0
C1756 C 0.5261 0.75475 1.04151 0.0
H1757 H 0.49627 0.86831 1.04315 0.0
H1758 H 0.46525 0.7928 1.04282 0.0
S1759 S 0.64975 0.76002 1.03902 0.0
N1760 N 0.63633 0.81302 1.03998 0.0
N1761 N 0.60285 0.732 1.0397 0.0
C1762 C 0.57256 0.76507 1.04076 0.0
C1763 C 0.59152 0.81127 1.04092 0.0
C1764 C 0.08263 0.27253 0.93007 0.0
C1765 C 0.0939 0.31892 0.92919 0.0
C1766 C 1.03695 0.25447 0.93014 0.0
C1767 C 0.99634 0.28015 0.92936 0.0
H1768 H 0.10968 0.24909 0.93077 0.0
H1769 H 1.03366 0.21887 0.93088 0.0
S1770 S 1.00331 0.40359 0.9264 0.0
N1771 N 0.05605 0.38953 0.92729 0.0
N1772 N 0.97472 0.35705 0.92727 0.0
C1773 C 1.00732 0.3264 0.9284 0.0
C1774 C 0.05366 0.3448 0.92836 0.0
C1775 C 0.5731 0.34457 0.6843 0.0
C1776 C 0.52717 0.35588 0.68188 0.0
C1777 C 0.59129 0.29911 0.68465 0.0
C1778 C 0.56625 0.2586 0.68257 0.0
H1779 H 0.59606 0.37152 0.6861 0.0
H1780 H 0.62656 0.29589 0.68665 0.0
S1781 S 0.44376 0.2653 0.67609 0.0
N1782 N 0.45726 0.3181 0.67763 0.0
N1783 N 0.49014 0.23675 0.67809 0.0
C1784 C 0.52028 0.26941 0.68023 0.0
C1785 C 0.50165 0.31573 0.67995 0.0
C1786 C 0.5852 0.7703 0.42837 0.0
C1787 C 0.59673 0.81664 0.42834 0.0
C1788 C 0.53963 0.75232 0.42833 0.0
C1789 C 0.49911 0.77806 0.42817 0.0
H1790 H 0.61206 0.74675 0.42837 0.0
H1791 H 0.53636 0.71665 0.4284 0.0
S1792 S 0.5061 0.90182 0.42769 0.0
N1793 N 0.55893 0.88763 0.42802 0.0
N1794 N 0.47744 0.85526 0.42774 0.0
C1795 C 0.51008 0.82445 0.42805 0.0
C1796 C 0.55652 0.8428 0.42817 0.0
C1797 C 1.00148 0.80495 0.18128 0.0
C1798 C 1.02696 0.84549 0.18234 0.0
C1799 C 1.01976 0.75956 0.18101 0.0
C1800 C 0.0661 0.74869 0.18197 0.0
H1801 H 0.96583 0.80811 0.1806 0.0
H1802 H 0.99655 0.73245 0.18015 0.0
S1803 S 0.15023 0.83938 0.18589 0.0
N1804 N 0.1035 0.86774 0.18487 0.0
N1805 N 0.13658 0.7866 0.18463 0.0
C1806 C 0.09187 0.78886 0.18327 0.0
C1807 C 0.07322 0.835 0.18339 0.0
C1808 C 0.25686 0.2998 0.36738 0.0
C1809 C 0.28822 0.29202 0.38004 0.0
C1810 C 0.26817 0.31454 0.35116 0.0
C1811 C 0.31234 0.32306 0.34545 0.0
H1812 H 0.2222 0.29439 0.36998 0.0
H1813 H 0.2411 0.31954 0.3429 0.0
S1814 S 0.40947 0.30731 0.37266 0.0
N1815 N 0.36755 0.29444 0.38441 0.0
N1816 N 0.38793 0.32066 0.3552 0.0
C1817 C 0.34404 0.31526 0.35797 0.0
C1818 C 0.3325 0.30041 0.37452 0.0
C1819 C 1.02713 0.08438 0.60789 0.0
C1820 C 1.02764 0.05539 0.59421 0.0
C1821 C 1.04378 0.07282 0.62391 0.0
C1822 C 0.06349 1.03097 0.62829 0.0
H1823 H 1.01337 0.11717 0.60631 0.0
H1824 H 1.04112 0.09786 0.6331 0.0
S1825 S 0.07411 0.94072 0.59787 0.0
N1826 N 0.05073 0.98075 0.58741 0.0
N1827 N 0.08103 0.96028 0.61611 0.0
C1828 C 0.06424 1.00177 0.61472 0.0
C1829 C 1.04701 1.01338 0.59846 0.0
C1830 C 0.34145 0.7949 0.86761 0.0
C1831 C 0.31003 0.80566 0.87993 0.0
C1832 C 0.32993 0.7805 0.85138 0.0
C1833 C 0.28554 0.77518 0.84539 0.0
H1834 H 0.37627 0.79776 0.8705 0.0
H1835 H 0.35695 0.77334 0.84331 0.0
S1836 S 0.18838 0.79928 0.87168 0.0
N1837 N 0.23053 0.8094 0.88372 0.0
N1838 N 0.20978 0.78365 0.85444 0.0
C1839 C 0.25379 0.78582 0.85757 0.0
C1840 C 0.26552 0.8004 0.87412 0.0
C1841 C 0.53395 1.02363 0.12225 0.0
C1842 C 0.53198 0.06776 0.12879 0.0
C1843 C 0.54942 1.01221 1.10612 0.0
C1844 C 0.56515 1.04348 1.0945 0.0
H1845 H 0.52313 0.99671 0.12979 0.0
H1846 H 0.54917 0.9776 1.10278 0.0
S1847 S 0.56971 0.1643 1.10444 0.0
N1848 N 0.54933 0.14302 0.12101 0.0
N1849 N 0.57749 0.12248 1.09202 0.0
C1850 C 0.56362 0.0877 1.1009 0.0
C1851 C 0.54761 0.09934 0.1173 0.0
C1852 C 0.26815 0.80387 0.37213 0.0
C1853 C 0.31117 0.78873 0.37728 0.0
C1854 C 0.25743 0.82015 0.35601 0.0
C1855 C 0.28829 0.82294 0.34294 0.0
H1856 H 0.24161 0.80321 0.38078 0.0
H1857 H 0.22368 0.83054 0.35379 0.0
S1858 S 0.40599 0.78683 0.3486 0.0
N1859 N 0.3848 0.77818 0.36647 0.0
N1860 N 0.36547 0.80669 0.33745 0.0
C1861 C 0.33127 0.80749 0.34792 0.0
C1862 C 0.34225 0.7914 0.36435 0.0
C1863 C 0.56169 1.02278 0.62418 0.0
C1864 C 0.56916 0.0669 0.63011 0.0
C1865 C 0.5465 1.01186 0.60798 0.0
C1866 C 0.53703 1.04372 0.59569 0.0
H1867 H 0.56792 0.99551 0.63223 0.0
H1868 H 0.54207 0.97721 0.6051 0.0
S1869 S 0.54995 0.16488 0.60374 0.0
N1870 N 0.56471 0.14287 0.62097 0.0
N1871 N 0.53727 0.1232 0.5918 0.0
C1872 C 0.54452 0.08791 0.60144 0.0
C1873 C 0.56005 0.09901 0.61791 0.0
C1874 C 0.34184 0.28686 0.85546 0.0
C1875 C 0.3106 0.27724 0.84289 0.0
C1876 C 0.33034 0.30477 0.87132 0.0
C1877 C 0.28614 0.31542 0.87669 0.0
H1878 H 0.37647 0.28051 0.85307 0.0
H1879 H 0.35726 0.31034 0.87961 0.0
S1880 S 0.18954 0.29789 0.84938 0.0
N1881 N 0.23144 0.28144 0.83818 0.0
N1882 N 0.2109 0.31346 0.86664 0.0
C1883 C 0.25469 0.30597 0.86425 0.0
C1884 C 0.26636 0.28779 0.84811 0.0
C1885 C 0.05491 0.0871 0.10924 0.0
C1886 C 0.05902 0.05614 1.09623 0.0
C1887 C 1.03925 0.07609 0.12537 0.0
C1888 C 1.02507 1.03285 0.13051 0.0
H1889 H 0.06459 0.12102 1.10705 0.0
H1890 H 1.03822 0.10265 0.13404 0.0
S1891 S 1.02922 0.93703 1.10215 0.0
N1892 N 1.04731 0.97809 1.09093 0.0
N1893 N 1.01833 0.95845 0.11987 0.0
C1894 C 1.0291 1.00156 0.11763 0.0
C1895 C 1.04551 1.01268 1.10124 0.0
C1896 C 0.75809 0.79574 0.86705 0.0
C1897 C 0.78941 0.79099 0.87992 0.0
C1898 C 0.76872 0.81154 0.85091 0.0
C1899 C 0.81206 0.82472 0.8455 0.0
H1900 H 0.72406 0.7867 0.8694 0.0
H1901 H 0.7418 0.81328 0.8424 0.0
S1902 S 0.90893 0.81824 0.87331 0.0
N1903 N 0.86792 0.80117 0.88478 0.0
N1904 N 0.88706 0.82957 0.85572 0.0
C1905 C 0.8438 0.81981 0.8582 0.0
C1906 C 0.83295 0.80375 0.87467 0.0
C1907 C 0.83872 0.30309 0.36811 0.0
C1908 C 0.80793 0.3078 0.38112 0.0
C1909 C 0.82732 0.28766 0.35196 0.0
C1910 C 0.78372 0.27462 0.34675 0.0
H1911 H 0.87289 0.31193 0.37034 0.0
H1912 H 0.85385 0.28598 0.34332 0.0
S1913 S 0.68804 0.28112 0.37501 0.0
N1914 N 0.72959 0.298 0.38632 0.0
N1915 N 0.70915 0.26984 0.35729 0.0
C1916 C 0.75255 0.27945 0.3596 0.0
C1917 C 0.76412 0.29538 0.37604 0.0
C1918 C 0.75292 0.32439 0.85751 0.0
C1919 C 0.78312 0.32524 0.8442 0.0
C1920 C 0.7642 0.30951 0.87377 0.0
C1921 C 0.80712 0.29369 0.87877 0.0
H1922 H 0.7193 0.33536 0.8554 0.0
H1923 H 0.73815 0.31028 0.88261 0.0
S1924 S 0.90032 0.28713 0.84948 0.0
N1925 N 0.85965 0.30695 0.83839 0.0
N1926 N 0.87986 0.28043 0.86756 0.0
C1927 C 0.8375 0.2944 0.86559 0.0
C1928 C 0.82602 0.30936 0.84907 0.0
C1929 C 0.75976 0.79619 0.3656 0.0
C1930 C 0.79097 0.80778 0.37792 0.0
C1931 C 0.77153 0.78097 0.34947 0.0
C1932 C 0.81598 0.77555 0.34353 0.0
H1933 H 0.7249 0.79893 0.36841 0.0
H1934 H 0.74457 0.77322 0.34143 0.0
S1935 S 0.91274 0.80208 0.3698 0.0
N1936 N 0.87044 0.81247 0.38172 0.0
N1937 N 0.89158 0.7853 0.35264 0.0
C1938 C 0.84754 0.78723 0.35569 0.0
C1939 C 0.83556 0.80264 0.37215 0.0
C1940 C 0.5611 0.58597 0.12053 0.0
C1941 C 0.56203 0.5422 0.12735 0.0
C1942 C 0.5452 0.59685 1.10439 0.0
C1943 C 0.528 0.56537 1.09303 0.0
H1944 H 0.57315 0.61298 0.12783 0.0
H1945 H 0.54634 0.63123 1.10081 0.0
S1946 S 0.52201 0.44516 1.10358 0.0
N1947 N 0.5432 0.46693 0.11998 0.0
N1948 N 0.51421 0.48652 1.09102 0.0
C1949 C 0.52883 0.52153 1.0997 0.0
C1950 C 0.54524 0.51043 0.11609 0.0
C1951 C 0.05843 0.51015 0.62313 0.0
C1952 C 1.04247 0.55308 0.62813 0.0
C1953 C 0.07401 0.49892 0.60692 0.0
C1954 C 0.07561 0.52917 0.59362 0.0
H1955 H 0.05887 0.48406 0.63195 0.0
H1956 H 0.08503 0.4653 0.60484 0.0
S1957 S 1.03691 0.64625 0.59882 0.0
N1958 N 1.02951 0.62574 0.61685 0.0
N1959 N 0.05734 0.60568 0.58782 0.0
C1960 C 0.05943 0.57202 0.59848 0.0
C1961 C 1.04369 0.58343 0.61494 0.0
C1962 C 1.0438 0.5179 0.12514 0.0
C1963 C 0.06569 0.55871 0.12948 0.0
C1964 C 1.0277 0.50636 0.10903 0.0
C1965 C 1.0313 0.53419 1.09513 0.0
H1966 H 1.03883 0.49372 0.13447 0.0
H1967 H 1.01203 0.47443 1.10753 0.0
S1968 S 0.08465 0.64583 1.09852 0.0
N1969 N 0.08861 0.62723 0.11698 0.0
N1970 N 0.05978 0.60663 1.08808 0.0
C1971 C 0.05297 0.57512 1.09932 0.0
C1972 C 0.06937 0.58683 0.11571 0.0
C1973 C 0.54566 0.51493 0.61774 0.0
C1974 C 0.54152 0.54568 0.63081 0.0
C1975 C 0.56082 0.52631 0.6016 0.0
C1976 C 0.57384 0.56988 0.59646 0.0
H1977 H 0.53662 0.48083 0.61992 0.0
H1978 H 0.56217 0.49983 0.59291 0.0
S1979 S 0.56869 0.66542 0.6249 0.0
N1980 N 0.55196 0.62389 0.63617 0.0
N1981 N 0.5793 0.64438 0.6071 0.0
C1982 C 0.56952 0.60103 0.60936 0.0
C1983 C 0.55409 0.58944 0.62581 0.0
C1984 C 0.33964 0.15447 0.4928 0.0
C1985 C 0.34032 0.15362 0.47529 0.0
C1986 C 0.36657 0.12703 0.50418 0.0
C1987 C 0.39899 0.0936 0.49985 0.0
H1988 H 0.31691 0.17782 0.49819 0.0
H1989 H 0.36142 0.13271 0.51678 0.0
S1990 S 0.41768 0.07297 0.45592 0.0
N1991 N 0.37967 0.11219 0.45512 0.0
N1992 N 0.42752 0.06343 0.475 0.0
C1993 C 0.39977 0.09222 0.48234 0.0
C1994 C 0.37232 0.12032 0.47079 0.0
C1995 C 0.2489 0.14961 0.73056 0.0
C1996 C 0.25956 0.14107 0.74739 0.0
C1997 C 0.22249 0.12134 0.71927 0.0
C1998 C 0.20225 0.07904 0.72298 0.0
H1999 H 0.26117 0.18034 0.72569 0.0
H2000 H 0.21759 0.13387 0.70732 0.0
S2001 S 0.21791 1.03496 0.76467 0.0
N2002 N 0.24489 0.08222 0.76606 0.0
N2003 N 0.19852 1.03162 0.74628 0.0
C2004 C 0.21302 0.06988 0.73972 0.0
C2005 C 0.23981 0.09889 0.7512 0.0
C2006 C 0.19886 1.00064 0.98367 0.0
C2007 C 0.20341 1.00315 1.00112 0.0
C2008 C 0.22568 0.97378 0.97203 0.0
C2009 C 0.26219 0.94436 0.97594 0.0
H2010 H 0.17269 1.02058 0.97854 0.0
H2011 H 0.21673 0.97623 0.95957 0.0
S2012 S 0.2949 0.93577 1.01933 0.0
N2013 N 0.25298 0.97079 1.02061 0.0
N2014 N 0.30028 0.92283 1.00028 0.0
C2015 C 0.26759 0.9469 0.99334 0.0
C2016 C 0.24027 0.97449 1.00516 0.0
C2017 C 0.3664 0.99275 0.25181 0.0
C2018 C 0.34193 0.95337 0.24736 0.0
C2019 C 0.39332 1.02102 0.24078 0.0
C2020 C 0.40025 1.01559 0.22356 0.0
H2021 H 0.36508 1.0026 0.26421 0.0
H2022 H 0.40975 1.04878 0.24623 0.0
S2023 S 0.34703 0.91728 0.20419 0.0
N2024 N 0.33072 0.91152 0.22286 0.0
N2025 N 0.37744 0.96261 0.20356 0.0
C2026 C 0.37615 0.97636 0.21895 0.0
C2027 C 0.34901 0.94712 0.23015 0.0
C2028 C 0.75638 0.95636 0.73236 0.0
C2029 C 0.75701 0.9572 0.74988 0.0
C2030 C 0.7292 0.98419 0.72121 0.0
C2031 C 0.69744 1.01787 0.72583 0.0
H2032 H 0.77789 0.93246 0.72675 0.0
H2033 H 0.73353 0.97853 0.70857 0.0
S2034 S 0.68018 1.0372 0.76993 0.0
N2035 N 0.71842 0.99813 0.7704 0.0
N2036 N 0.6697 1.04731 0.75093 0.0
C2037 C 0.69738 1.01889 0.74335 0.0
C2038 C 0.72533 0.99053 0.75466 0.0
C2039 C 0.89487 1.00586 0.4809 0.0
C2040 C 0.89406 1.00545 0.49841 0.0
C2041 C 0.86799 0.97837 0.46953 0.0
C2042 C 0.83542 0.94528 0.47387 0.0
H2043 H 0.91791 1.02862 0.47548 0.0
H2044 H 0.87347 0.98357 0.45693 0.0
S2045 S 0.81628 0.92542 0.51781 0.0
N2046 N 0.85416 0.96473 0.5186 0.0
N2047 N 0.80674 0.91548 0.49873 0.0
C2048 C 0.83433 0.94432 0.49139 0.0
C2049 C 0.86172 0.97255 0.50293 0.0
C2050 C 0.8533 0.10856 0.22241 0.0
C2051 C 0.89391 0.08536 0.22634 0.0
C2052 C 0.82542 0.13484 0.23382 0.0
C2053 C 0.83299 0.14258 0.2509 0.0
H2054 H 0.84198 0.10646 0.21019 0.0
H2055 H 0.79598 0.1497 0.22887 0.0
S2056 S 0.93442 0.09158 0.26893 0.0
N2057 N 0.9385 0.07496 0.25021 0.0
N2058 N 0.88863 0.12131 0.27016 0.0
C2059 C 0.87329 0.1195 0.25498 0.0
C2060 C 0.90184 0.09271 0.24342 0.0
C2061 C 0.73608 0.11774 1.00214 0.0
C2062 C 0.6973 0.09166 0.99816 0.0
C2063 C 0.76275 0.14511 0.99074 0.0
C2064 C 0.756 0.15069 0.97351 0.0
H2065 H 0.74647 0.1177 1.01449 0.0
H2066 H 0.79043 0.16289 0.99585 0.0
S2067 S 0.6586 0.09284 0.95529 0.0
N2068 N 0.6544 0.0775 0.97413 0.0
N2069 N 0.70286 0.12467 0.95407 0.0
C2070 C 0.71747 0.12486 0.96936 0.0
C2071 C 0.68978 0.09749 0.98098 0.0
C2072 C 0.83719 0.63941 0.99178 0.0
C2073 C 0.84353 0.64585 0.97454 0.0
C2074 C 0.86448 0.6119 1.00308 0.0
C2075 C 0.9038 0.58648 0.99902 0.0
H2076 H 0.80919 0.65648 0.997 0.0
H2077 H 0.85388 0.61091 1.01539 0.0
S2078 S 0.9425 0.59104 0.95618 0.0
N2079 N 0.89748 0.62193 0.9551 0.0
N2080 N 0.94686 0.57465 0.9749 0.0
C2081 C 0.91097 0.59341 0.98185 0.0
C2082 C 0.88269 0.62091 0.97034 0.0
C2083 C 0.73015 0.62732 0.2189 0.0
C2084 C 0.70351 0.58924 0.22308 0.0
C2085 C 0.75732 0.65449 0.23022 0.0
C2086 C 0.76273 0.64859 0.24748 0.0
H2087 H 0.7301 0.63718 0.20651 0.0
H2088 H 0.77467 0.68208 0.22498 0.0
S2089 S 0.70205 0.55416 0.2663 0.0
N2090 N 0.68682 0.54901 0.24744 0.0
N2091 N 0.73548 0.59728 0.26725 0.0
C2092 C 0.73643 0.61063 0.25183 0.0
C2093 C 0.70855 0.58286 0.24034 0.0
C2094 C 0.7588 0.45035 0.49364 0.0
C2095 C 0.76158 0.45311 0.47616 0.0
C2096 C 0.73241 0.47895 0.50486 0.0
C2097 C 0.70422 0.51598 0.50043 0.0
H2098 H 0.77797 0.42426 0.49913 0.0
H2099 H 0.73439 0.47114 0.51743 0.0
S2100 S 0.69744 0.54429 0.45662 0.0
N2101 N 0.73093 0.50115 0.45597 0.0
N2102 N 0.68448 0.55226 0.47555 0.0
C2103 C 0.70719 0.51952 0.48297 0.0
C2104 C 0.73395 0.4901 0.47158 0.0
C2105 C 0.84184 0.44333 0.73044 0.0
C2106 C 0.83754 0.44854 0.74778 0.0
C2107 C 0.86931 0.47016 0.71915 0.0
C2108 C 0.8974 0.50717 0.72343 0.0
H2109 H 0.82324 0.41663 0.7251 0.0
H2110 H 0.86825 0.46099 0.70668 0.0
S2111 S 0.90266 0.53958 0.76694 0.0
N2112 N 0.86778 0.49766 0.76776 0.0
N2113 N 0.91685 0.54536 0.74802 0.0
C2114 C 0.89351 0.51276 0.74078 0.0
C2115 C 0.86539 0.48531 0.75224 0.0
C2116 C 0.21992 0.47544 0.25355 0.0
C2117 C 0.26155 0.45397 0.24972 0.0
C2118 C 0.19149 0.50123 0.24218 0.0
C2119 C 0.1991 0.50976 0.22518 0.0
H2120 H 0.20814 0.47216 0.26567 0.0
H2121 H 0.16137 0.51478 0.24709 0.0
S2122 S 0.30356 0.4645 0.20756 0.0
N2123 N 0.30756 0.44679 0.22613 0.0
N2124 N 0.25657 0.49213 0.20621 0.0
C2125 C 0.24061 0.48872 0.22123 0.0
C2126 C 0.26987 0.46261 0.23279 0.0
C2127 C 0.34957 0.49468 0.99992 0.0
C2128 C 0.39146 0.51623 0.99645 0.0
C2129 C 0.32197 0.46824 0.98838 0.0
C2130 C 0.33079 0.45872 0.97147 0.0
H2131 H 0.33719 0.49783 1.01197 0.0
H2132 H 0.29175 0.45449 0.99314 0.0
S2133 S 0.4362 0.50434 0.95458 0.0
N2134 N 0.43887 0.5225 0.97315 0.0
N2135 N 0.38947 0.47636 0.95295 0.0
C2136 C 0.37244 0.48012 0.96783 0.0
C2137 C 0.40081 0.50688 0.97957 0.0
C2138 C 0.3915 0.58994 0.74224 0.0
C2139 C 0.39766 0.59641 0.72504 0.0
C2140 C 0.36382 0.61697 0.75345 0.0
C2141 C 0.33788 0.65561 0.74921 0.0
H2142 H 0.40892 0.56217 0.74745 0.0
H2143 H 0.363 0.60672 0.7658 0.0
S2144 S 0.34067 0.69338 0.7063 0.0
N2145 N 0.37264 0.64909 0.70535 0.0
N2146 N 0.32448 0.69796 0.72504 0.0
C2147 C 0.34425 0.66274 0.73207 0.0
C2148 C 0.37213 0.63486 0.72066 0.0
C2149 C 0.19637 0.59052 0.47998 0.0
C2150 C 0.20304 0.58364 0.49717 0.0
C2151 C 0.22386 0.61741 0.46863 0.0
C2152 C 0.26324 0.64263 0.47265 0.0
H2153 H 0.16766 0.57472 0.47483 0.0
H2154 H 0.21299 0.61861 0.45635 0.0
S2155 S 0.30068 0.64039 0.5157 0.0
N2156 N 0.25662 0.60827 0.51668 0.0
N2157 N 0.30519 0.65651 0.49694 0.0
C2158 C 0.27029 0.63627 0.48987 0.0
C2159 C 0.24226 0.60854 0.50137 0.0
C2160 C 0.33087 0.15815 0.33208 0.0
C2161 C 0.29795 0.18765 0.33741 0.0
C2162 C 0.32677 0.13718 0.31729 0.0
C2163 C 0.28909 0.14462 0.30775 0.0
H2164 H 0.35594 0.1458 0.34018 0.0
H2165 H 0.3487 0.10958 0.3149 0.0
S2166 S 0.20854 0.23593 0.31264 0.0
N2167 N 0.23771 0.23619 0.32931 0.0
N2168 N 0.23018 0.19649 0.30141 0.0
C2169 C 0.26354 0.18241 0.31104 0.0
C2170 C 0.26755 0.20374 0.32611 0.0
C2171 C 0.38083 0.07772 0.65671 0.0
C2172 C 0.38837 1.03935 0.66583 0.0
C2173 C 0.40229 0.08315 0.64209 0.0
C2174 C 0.43245 0.05096 0.63664 0.0
H2175 H 0.3526 0.09884 0.65911 0.0
H2176 H 0.38963 0.10835 0.63413 0.0
S2177 S 0.48214 0.96175 0.66106 0.0
N2178 N 0.44155 0.98167 0.67216 0.0
N2179 N 0.48242 0.99179 0.64463 0.0
C2180 C 0.44908 1.02062 0.64784 0.0
C2181 C 0.42717 1.01525 0.66271 0.0
C2182 C 0.27466 0.96041 0.81865 0.0
C2183 C 0.31346 0.95479 0.80957 0.0
C2184 C 0.26934 0.93745 0.83294 0.0
C2185 C 0.30236 0.90801 0.83823 0.0
H2186 H 0.25251 0.98795 0.81645 0.0
H2187 H 0.24341 0.94863 0.8409 0.0
S2188 S 0.39404 0.86322 0.81375 0.0
N2189 N 0.37363 0.90445 0.8031 0.0
N2190 N 0.36307 0.86028 0.82993 0.0
C2191 C 0.33358 0.89325 0.82699 0.0
C2192 C 0.33921 0.91695 0.81251 0.0
C2193 C 0.15753 0.08523 0.14994 0.0
C2194 C 0.16117 0.04942 0.13921 0.0
C2195 C 0.18363 0.08621 0.16375 0.0
C2196 C 0.21251 0.0508 0.16705 0.0
H2197 H 0.14118 0.11553 0.14631 0.0
H2198 H 0.18732 0.11763 0.16983 0.0
S2199 S 0.20672 0.93875 0.14955 0.0
N2200 N 0.17675 0.97003 0.13754 0.0
N2201 N 0.22324 0.97169 0.1641 0.0
C2202 C 0.20307 1.01009 0.15976 0.0
C2203 C 0.17812 1.00939 0.14537 0.0
C2204 C 0.82887 0.17017 0.81129 0.0
C2205 C 0.79241 0.14275 0.80791 0.0
C2206 C 0.82932 0.19554 0.82525 0.0
C2207 C 0.79396 0.19251 0.83614 0.0
H2208 H 0.85985 0.16607 0.80497 0.0
H2209 H 0.86029 0.21066 0.82879 0.0
S2210 S 0.68155 0.15065 0.8262 0.0
N2211 N 0.71321 0.13401 0.81132 0.0
N2212 N 0.71432 0.17895 0.83823 0.0
C2213 C 0.75319 0.17687 0.83015 0.0
C2214 C 0.75241 0.15267 0.8156 0.0
C2215 C 0.77949 0.97853 0.61076 0.0
C2216 C 0.73527 0.99098 0.61338 0.0
C2217 C 0.79544 0.9738 0.5952 0.0
C2218 C 0.76761 0.98251 0.58207 0.0
H2219 H 0.80335 0.97955 0.6204 0.0
H2220 H 0.831 0.97164 0.59365 0.0
S2221 S 0.64574 0.99324 0.58322 0.0
N2222 N 0.6611 0.99409 0.60214 0.0
N2223 N 0.69162 0.98642 0.57277 0.0
C2224 C 0.72179 0.9834 0.58474 0.0
C2225 C 0.70542 0.98773 0.60056 0.0
C2226 C 0.83061 0.93933 0.33204 0.0
C2227 C 0.79738 0.91052 0.33754 0.0
C2228 C 0.82589 0.96061 0.31736 0.0
C2229 C 0.78716 0.9544 0.30827 0.0
H2230 H 0.8562 0.95131 0.33999 0.0
H2231 H 0.84802 0.98794 0.31491 0.0
S2232 S 0.70667 0.86333 0.31317 0.0
N2233 N 0.73705 0.86203 0.32955 0.0
N2234 N 0.72751 0.90334 0.30208 0.0
C2235 C 0.76172 0.91659 0.31147 0.0
C2236 C 0.76671 0.89452 0.32632 0.0
C2237 C 0.71368 0.07496 0.15426 0.0
C2238 C 0.70398 1.03787 0.16378 0.0
C2239 C 0.69655 0.07793 0.13882 0.0
C2240 C 0.66805 1.04489 0.13292 0.0
H2241 H 0.74079 0.09685 0.15729 0.0
H2242 H 0.71118 0.10215 0.13093 0.0
S2243 S 0.61226 0.95898 0.15707 0.0
N2244 N 0.64977 0.98051 0.16915 0.0
N2245 N 0.61621 0.98677 0.14019 0.0
C2246 C 0.64864 1.01602 0.14401 0.0
C2247 C 0.66649 1.01285 0.15967 0.0
C2248 C 0.76039 0.69196 0.82617 0.0
C2249 C 0.79682 0.6887 0.83661 0.0
C2250 C 0.76063 0.66912 0.81165 0.0
C2251 C 0.7979 0.64391 0.80722 0.0
H2252 H 0.72928 0.7057 0.83029 0.0
H2253 H 0.72928 0.66509 0.80556 0.0
S2254 S 0.91004 0.65387 0.82445 0.0
N2255 N 0.87711 0.67785 0.83759 0.0
N2256 N 0.87783 0.63886 0.80948 0.0
C2257 C 0.83813 0.65437 0.81471 0.0
C2258 C 0.83762 0.67554 0.82989 0.0
C2259 C 0.71683 0.57054 1.0658 0.0
C2260 C 0.7087 0.53161 1.05701 0.0
C2261 C 0.69622 0.5772 1.08051 0.0
C2262 C 0.66617 0.54572 1.08644 0.0
H2263 H 0.74476 0.59155 1.06298 0.0
H2264 H 0.70941 0.60295 1.08814 0.0
S2265 S 0.61498 0.45478 1.06329 0.0
N2266 N 0.65572 0.47278 1.05188 0.0
N2267 N 0.61513 0.48678 1.07928 0.0
C2268 C 0.64886 0.51464 1.07563 0.0
C2269 C 0.67051 0.50731 1.06081 0.0
C2270 C 0.84155 0.41017 0.32835 0.0
C2271 C 0.80545 0.41345 0.33892 0.0
C2272 C 0.84046 0.43215 0.31369 0.0
C2273 C 0.80285 0.45692 0.30933 0.0
H2274 H 0.87293 0.39688 0.3324 0.0
H2275 H 0.87151 0.43616 0.30743 0.0
S2276 S 0.69155 0.44733 0.32714 0.0
N2277 N 0.72515 0.42405 0.34022 0.0
N2278 N 0.72306 0.46175 0.31195 0.0
C2279 C 0.76302 0.44654 0.31704 0.0
C2280 C 0.7643 0.4261 0.33232 0.0
C2281 C 0.91668 0.5759 0.56193 0.0
C2282 C 0.88783 0.54054 0.55865 0.0
C2283 C 0.94295 0.57503 0.57566 0.0
C2284 C 0.93905 0.53963 0.58647 0.0
H2285 H 0.91303 0.60721 0.55579 0.0
H2286 H 0.95921 0.6054 0.57923 0.0
S2287 S 0.89236 0.42918 0.57659 0.0
N2288 N 0.87637 0.46166 0.56185 0.0
N2289 N 0.92252 0.46059 0.58852 0.0
C2290 C 0.92171 0.49957 0.58048 0.0
C2291 C 0.89686 0.49997 0.56607 0.0
C2292 C 0.33827 0.69243 0.32529 0.0
C2293 C 0.30307 0.68975 0.33628 0.0
C2294 C 0.33601 0.66927 0.31085 0.0
C2295 C 0.29827 0.64381 0.30731 0.0
H2296 H 0.37003 0.70568 0.3289 0.0
H2297 H 0.36655 0.66437 0.30433 0.0
S2298 S 0.18804 0.65677 0.32564 0.0
N2299 N 0.2225 0.6813 0.33812 0.0
N2300 N 0.21869 0.64001 0.31051 0.0
C2301 C 0.25894 0.65569 0.31506 0.0
C2302 C 0.26127 0.67768 0.33004 0.0
C2303 C 0.39839 0.52088 0.13617 0.0
C2304 C 0.42581 0.55552 0.13085 0.0
C2305 C 0.38146 0.52126 0.15165 0.0
C2306 C 0.38986 0.55752 0.16179 0.0
H2307 H 0.38435 0.4972 0.1279 0.0
H2308 H 0.3551 0.49812 0.15424 0.0
S2309 S 0.48016 0.63883 0.15675 0.0
N2310 N 0.47658 0.61355 0.13931 0.0
N2311 N 0.44307 0.61495 0.16835 0.0
C2312 C 0.42684 0.58381 0.15822 0.0
C2313 C 0.44463 0.58328 0.14251 0.0
C2314 C 0.38762 0.53559 0.84659 0.0
C2315 C 0.37826 0.58113 0.8469 0.0
C2316 C 0.38868 0.5117 0.86089 0.0
C2317 C 0.37928 0.53337 0.87539 0.0
H2318 H 0.38485 0.51723 0.83552 0.0
H2319 H 0.3866 0.47593 0.86021 0.0
S2320 S 0.37979 0.65409 0.88228 0.0
N2321 N 0.38099 0.64848 0.86268 0.0
N2322 N 0.38128 0.60333 0.88959 0.0
C2323 C 0.38434 0.57942 0.8759 0.0
C2324 C 0.38415 0.60374 0.8614 0.0
C2325 C 0.41955 0.50807 0.56244 0.0
C2326 C 0.39304 0.54409 0.55765 0.0
C2327 C 0.4426 0.50982 0.5769 0.0
C2328 C 0.43828 0.54695 0.58696 0.0
H2329 H 0.4167 0.47613 0.55667 0.0
H2330 H 0.45739 0.47954 0.58133 0.0
S2331 S 0.39914 0.65781 0.57385 0.0
N2332 N 0.38487 0.62394 0.55926 0.0
N2333 N 0.42457 0.62676 0.58722 0.0
C2334 C 0.42342 0.58664 0.5799 0.0
C2335 C 0.40179 0.5852 0.56482 0.0
loop_
_geom_bond_atom_site_label_1
_geom_bond_atom_site_label_2
_geom_bond_distance
_geom_bond_site_symmetry_2
_ccdc_geom_bond_type
Pr0 C2 2.880 . S
Pr0 O20 2.562 . S
Pr0 O21 2.490 . S
Pr0 O22 2.695 . S
Pr0 O23 2.512 . S
Pr0 O25 2.437 . S
Pr0 O28 2.436 . S
Pr0 O30 2.438 . S
Pr1 C11 2.880 . S
Pr1 O22 2.436 . S
Pr1 O24 2.438 . S
Pr1 O26 2.562 . S
Pr1 O27 2.490 . S
Pr1 O28 2.695 . S
Pr1 O29 2.512 . S
Pr1 O31 2.437 . S
C2 Pr0 2.880 . S
C2 C3 1.491 . S
C2 O20 1.254 . S
C2 O21 1.225 . S
C3 C2 1.491 . S
C3 C4 1.392 . S
C3 C8 1.356 . S
C4 C3 1.392 . S
C4 C5 1.368 . S
C4 H32 0.929 . S
C5 C4 1.368 . S
C5 C6 1.386 . S
C5 H33 0.929 . S
C6 C5 1.386 . S
C6 C7 1.373 . S
C7 C6 1.373 . S
C7 C8 1.409 . S
C7 H34 0.931 . S
C8 C3 1.356 . S
C8 C7 1.409 . S
C8 H35 0.930 . S
C9 O22 1.270 . S
C9 O23 1.248 . S
C10 O24 1.267 . S
C10 O25 1.278 . S
C11 Pr1 2.880 . S
C11 C12 1.491 . S
C11 O26 1.254 . S
C11 O27 1.225 . S
C12 C11 1.491 . S
C12 C13 1.392 . S
C12 C17 1.356 . S
C13 C12 1.392 . S
C13 C14 1.368 . S
C13 H36 0.929 . S
C14 C13 1.368 . S
C14 C15 1.386 . S
C14 H37 0.929 . S
C15 C14 1.386 . S
C15 C16 1.373 . S
C16 C15 1.373 . S
C16 C17 1.409 . S
C16 H38 0.931 . S
C17 C12 1.356 . S
C17 C16 1.409 . S
C17 H39 0.930 . S
C18 O28 1.270 . S
C18 O29 1.248 . S
C19 O30 1.267 . S
C19 O31 1.278 . S
O20 Pr0 2.562 . S
O20 C2 1.254 . S
O21 Pr0 2.490 . S
O21 C2 1.225 . S
O22 Pr0 2.695 . S
O22 Pr1 2.436 . S
O22 C9 1.270 . S
O23 Pr0 2.512 . S
O23 C9 1.248 . S
O24 Pr1 2.438 . S
O24 C10 1.267 . S
O25 Pr0 2.437 . S
O25 C10 1.278 . S
O26 Pr1 2.562 . S
O26 C11 1.254 . S
O27 Pr1 2.490 . S
O27 C11 1.225 . S
O28 Pr0 2.436 . S
O28 Pr1 2.695 . S
O28 C18 1.270 . S
O29 Pr1 2.512 . S
O29 C18 1.248 . S
O30 Pr0 2.438 . S
O30 C19 1.267 . S
O31 Pr1 2.437 . S
O31 C19 1.278 . S
H32 C4 0.929 . S
H33 C5 0.929 . S
H34 C7 0.931 . S
H35 C8 0.930 . S
H36 C13 0.929 . S
H37 C14 0.929 . S
H38 C16 0.931 . S
H39 C17 0.930 . S
Pr40 C42 2.880 . S
Pr40 O60 2.562 . S
Pr40 O61 2.490 . S
Pr40 O62 2.695 1_655 S
Pr40 O63 2.512 1_665 S
Pr40 O65 2.437 1_655 S
Pr40 O68 2.436 1_655 S
Pr40 O70 2.438 . S
Pr41 C51 2.880 . S
Pr41 O62 2.436 . S
Pr41 O64 2.438 . S
Pr41 O66 2.562 . S
Pr41 O67 2.490 . S
Pr41 O68 2.695 . S
Pr41 O69 2.512 . S
Pr41 O71 2.437 . S
C42 Pr40 2.880 . S
C42 C43 1.491 . S
C42 O60 1.254 . S
C42 O61 1.225 . S
C43 C42 1.491 . S
C43 C44 1.392 . S
C43 C48 1.356 . S
C44 C43 1.392 . S
C44 C45 1.368 . S
C44 H72 0.929 . S
C45 C44 1.368 . S
C45 C46 1.386 . S
C45 H73 0.929 . S
C46 C45 1.386 . S
C46 C47 1.373 . S
C47 C46 1.373 . S
C47 C48 1.409 . S
C47 H74 0.931 . S
C48 C43 1.356 . S
C48 C47 1.409 . S
C48 H75 0.930 . S
C49 O62 1.270 1_545 S
C49 O63 1.248 . S
C50 O64 1.267 . S
C50 O65 1.278 . S
C51 Pr41 2.880 . S
C51 C52 1.491 . S
C51 O66 1.254 . S
C51 O67 1.225 . S
C52 C51 1.491 . S
C52 C53 1.392 . S
C52 C57 1.356 1_565 S
C53 C52 1.392 . S
C53 C54 1.368 . S
C53 H76 0.929 . S
C54 C53 1.368 . S
C54 C55 1.386 . S
C54 H77 0.929 . S
C55 C54 1.386 . S
C55 C56 1.373 1_565 S
C56 C55 1.373 1_545 S
C56 C57 1.409 . S
C56 H78 0.931 . S
C57 C52 1.356 1_545 S
C57 C56 1.409 . S
C57 H79 0.930 . S
C58 O68 1.270 . S
C58 O69 1.248 . S
C59 O70 1.267 1_455 S
C59 O71 1.278 . S
O60 Pr40 2.562 . S
O60 C42 1.254 . S
O61 Pr40 2.490 . S
O61 C42 1.225 . S
O62 Pr40 2.695 1_455 S
O62 Pr41 2.436 . S
O62 C49 1.270 1_565 S
O63 Pr40 2.512 1_445 S
O63 C49 1.248 . S
O64 Pr41 2.438 . S
O64 C50 1.267 . S
O65 Pr40 2.437 1_455 S
O65 C50 1.278 . S
O66 Pr41 2.562 . S
O66 C51 1.254 . S
O67 Pr41 2.490 . S
O67 C51 1.225 . S
O68 Pr40 2.436 1_455 S
O68 Pr41 2.695 . S
O68 C58 1.270 . S
O69 Pr41 2.512 . S
O69 C58 1.248 . S
O70 Pr40 2.438 . S
O70 C59 1.267 1_655 S
O71 Pr41 2.437 . S
O71 C59 1.278 . S
H72 C44 0.929 . S
H73 C45 0.929 . S
H74 C47 0.931 . S
H75 C48 0.930 . S
H76 C53 0.929 . S
H77 C54 0.929 . S
H78 C56 0.931 . S
H79 C57 0.930 . S
Pr80 C82 2.880 . S
Pr80 O100 2.562 . S
Pr80 O101 2.490 . S
Pr80 O102 2.695 . S
Pr80 O103 2.512 . S
Pr80 O105 2.437 . S
Pr80 O108 2.436 . S
Pr80 O110 2.438 . S
Pr81 C91 2.880 . S
Pr81 O102 2.436 . S
Pr81 O104 2.438 . S
Pr81 O106 2.562 . S
Pr81 O107 2.490 . S
Pr81 O108 2.695 . S
Pr81 O109 2.512 . S
Pr81 O111 2.437 . S
C82 Pr80 2.880 . S
C82 C83 1.491 . S
C82 O100 1.254 . S
C82 O101 1.225 . S
C83 C82 1.491 . S
C83 C84 1.392 . S
C83 C88 1.356 . S
C84 C83 1.392 . S
C84 C85 1.368 . S
C84 H112 0.929 . S
C85 C84 1.368 . S
C85 C86 1.386 . S
C85 H113 0.929 . S
C86 C85 1.386 . S
C86 C87 1.373 . S
C87 C86 1.373 . S
C87 C88 1.409 . S
C87 H114 0.931 . S
C88 C83 1.356 . S
C88 C87 1.409 . S
C88 H115 0.930 . S
C89 O102 1.270 . S
C89 O103 1.248 . S
C90 O104 1.267 . S
C90 O105 1.278 . S
C91 Pr81 2.880 . S
C91 C92 1.491 . S
C91 O106 1.254 . S
C91 O107 1.225 . S
C92 C91 1.491 . S
C92 C93 1.392 . S
C92 C97 1.356 . S
C93 C92 1.392 . S
C93 C94 1.368 . S
C93 H116 0.929 . S
C94 C93 1.368 . S
C94 C95 1.386 . S
C94 H117 0.929 . S
C95 C94 1.386 . S
C95 C96 1.373 . S
C96 C95 1.373 . S
C96 C97 1.409 . S
C96 H118 0.931 . S
C97 C92 1.356 . S
C97 C96 1.409 . S
C97 H119 0.930 . S
C98 O108 1.270 . S
C98 O109 1.248 . S
C99 O110 1.267 . S
C99 O111 1.278 . S
O100 Pr80 2.562 . S
O100 C82 1.254 . S
O101 Pr80 2.490 . S
O101 C82 1.225 . S
O102 Pr80 2.695 . S
O102 Pr81 2.436 . S
O102 C89 1.270 . S
O103 Pr80 2.512 . S
O103 C89 1.248 . S
O104 Pr81 2.438 . S
O104 C90 1.267 . S
O105 Pr80 2.437 . S
O105 C90 1.278 . S
O106 Pr81 2.562 . S
O106 C91 1.254 . S
O107 Pr81 2.490 . S
O107 C91 1.225 . S
O108 Pr80 2.436 . S
O108 Pr81 2.695 . S
O108 C98 1.270 . S
O109 Pr81 2.512 . S
O109 C98 1.248 . S
O110 Pr80 2.438 . S
O110 C99 1.267 . S
O111 Pr81 2.437 . S
O111 C99 1.278 . S
H112 C84 0.929 . S
H113 C85 0.929 . S
H114 C87 0.931 . S
H115 C88 0.930 . S
H116 C93 0.929 . S
H117 C94 0.929 . S
H118 C96 0.931 . S
H119 C97 0.930 . S
Pr120 C122 2.880 . S
Pr120 O140 2.562 . S
Pr120 O141 2.490 . S
Pr120 O142 2.695 . S
Pr120 O143 2.512 1_545 S
Pr120 O145 2.437 . S
Pr120 O148 2.436 . S
Pr120 O150 2.438 . S
Pr121 C131 2.880 . S
Pr121 O142 2.436 . S
Pr121 O144 2.438 . S
Pr121 O146 2.562 . S
Pr121 O147 2.490 . S
Pr121 O148 2.695 . S
Pr121 O149 2.512 . S
Pr121 O151 2.437 . S
C122 Pr120 2.880 . S
C122 C123 1.491 . S
C122 O140 1.254 . S
C122 O141 1.225 . S
C123 C122 1.491 . S
C123 C124 1.392 . S
C123 C128 1.356 . S
C124 C123 1.392 . S
C124 C125 1.368 . S
C124 H152 0.929 . S
C125 C124 1.368 . S
C125 C126 1.386 . S
C125 H153 0.929 . S
C126 C125 1.386 . S
C126 C127 1.373 . S
C127 C126 1.373 . S
C127 C128 1.409 . S
C127 H154 0.931 . S
C128 C123 1.356 . S
C128 C127 1.409 . S
C128 H155 0.930 . S
C129 O142 1.270 1_565 S
C129 O143 1.248 . S
C130 O144 1.267 . S
C130 O145 1.278 . S
C131 Pr121 2.880 . S
C131 C132 1.491 . S
C131 O146 1.254 . S
C131 O147 1.225 . S
C132 C131 1.491 . S
C132 C133 1.392 . S
C132 C137 1.356 1_545 S
C133 C132 1.392 . S
C133 C134 1.368 . S
C133 H156 0.929 . S
C134 C133 1.368 . S
C134 C135 1.386 . S
C134 H157 0.929 . S
C135 C134 1.386 . S
C135 C136 1.373 1_545 S
C136 C135 1.373 1_565 S
C136 C137 1.409 . S
C136 H158 0.931 . S
C137 C132 1.356 1_565 S
C137 C136 1.409 . S
C137 H159 0.930 . S
C138 O148 1.270 . S
C138 O149 1.248 . S
C139 O150 1.267 . S
C139 O151 1.278 . S
O140 Pr120 2.562 . S
O140 C122 1.254 . S
O141 Pr120 2.490 . S
O141 C122 1.225 . S
O142 Pr120 2.695 . S
O142 Pr121 2.436 . S
O142 C129 1.270 1_545 S
O143 Pr120 2.512 1_565 S
O143 C129 1.248 . S
O144 Pr121 2.438 . S
O144 C130 1.267 . S
O145 Pr120 2.437 . S
O145 C130 1.278 . S
O146 Pr121 2.562 . S
O146 C131 1.254 . S
O147 Pr121 2.490 . S
O147 C131 1.225 . S
O148 Pr120 2.436 . S
O148 Pr121 2.695 . S
O148 C138 1.270 . S
O149 Pr121 2.512 . S
O149 C138 1.248 . S
O150 Pr120 2.438 . S
O150 C139 1.267 . S
O151 Pr121 2.437 . S
O151 C139 1.278 . S
H152 C124 0.929 . S
H153 C125 0.929 . S
H154 C127 0.931 . S
H155 C128 0.930 . S
H156 C133 0.929 . S
H157 C134 0.929 . S
H158 C136 0.931 . S
H159 C137 0.930 . S
Pr160 C162 2.880 . S
Pr160 O180 2.562 . S
Pr160 O181 2.490 . S
Pr160 O182 2.695 . S
Pr160 O183 2.512 . S
Pr160 O185 2.437 . S
Pr160 O188 2.436 . S
Pr160 O190 2.438 . S
Pr161 C171 2.880 . S
Pr161 O182 2.436 . S
Pr161 O184 2.438 . S
Pr161 O186 2.562 . S
Pr161 O187 2.490 . S
Pr161 O188 2.695 . S
Pr161 O189 2.512 . S
Pr161 O191 2.437 . S
C162 Pr160 2.880 . S
C162 C163 1.491 . S
C162 O180 1.254 . S
C162 O181 1.225 . S
C163 C162 1.491 . S
C163 C164 1.392 . S
C163 C168 1.356 . S
C164 C163 1.392 . S
C164 C165 1.368 . S
C164 H192 0.929 . S
C165 C164 1.368 . S
C165 C166 1.386 . S
C165 H193 0.929 . S
C166 C165 1.386 . S
C166 C167 1.373 . S
C167 C166 1.373 . S
C167 C168 1.409 . S
C167 H194 0.931 . S
C168 C163 1.356 . S
C168 C167 1.409 . S
C168 H195 0.930 . S
C169 O182 1.270 . S
C169 O183 1.248 . S
C170 O184 1.267 . S
C170 O185 1.278 . S
C171 Pr161 2.880 . S
C171 C172 1.491 . S
C171 O186 1.254 . S
C171 O187 1.225 . S
C172 C171 1.491 . S
C172 C173 1.392 . S
C172 C177 1.356 . S
C173 C172 1.392 . S
C173 C174 1.368 . S
C173 H196 0.929 . S
C174 C173 1.368 . S
C174 C175 1.386 . S
C174 H197 0.929 . S
C175 C174 1.386 . S
C175 C176 1.373 . S
C176 C175 1.373 . S
C176 C177 1.409 . S
C176 H198 0.931 . S
C177 C172 1.356 . S
C177 C176 1.409 . S
C177 H199 0.930 . S
C178 O188 1.270 . S
C178 O189 1.248 . S
C179 O190 1.267 . S
C179 O191 1.278 . S
O180 Pr160 2.562 . S
O180 C162 1.254 . S
O181 Pr160 2.490 . S
O181 C162 1.225 . S
O182 Pr160 2.695 . S
O182 Pr161 2.436 . S
O182 C169 1.270 . S
O183 Pr160 2.512 . S
O183 C169 1.248 . S
O184 Pr161 2.438 . S
O184 C170 1.267 . S
O185 Pr160 2.437 . S
O185 C170 1.278 . S
O186 Pr161 2.562 . S
O186 C171 1.254 . S
O187 Pr161 2.490 . S
O187 C171 1.225 . S
O188 Pr160 2.436 . S
O188 Pr161 2.695 . S
O188 C178 1.270 . S
O189 Pr161 2.512 . S
O189 C178 1.248 . S
O190 Pr160 2.438 . S
O190 C179 1.267 . S
O191 Pr161 2.437 . S
O191 C179 1.278 . S
H192 C164 0.929 . S
H193 C165 0.929 . S
H194 C167 0.931 . S
H195 C168 0.930 . S
H196 C173 0.929 . S
H197 C174 0.929 . S
H198 C176 0.931 . S
H199 C177 0.930 . S
Pr200 C202 2.880 . S
Pr200 O220 2.562 . S
Pr200 O221 2.490 . S
Pr200 O222 2.695 . S
Pr200 O223 2.512 1_565 S
Pr200 O225 2.437 . S
Pr200 O228 2.436 . S
Pr200 O230 2.438 . S
Pr201 C211 2.880 . S
Pr201 O222 2.436 . S
Pr201 O224 2.438 . S
Pr201 O226 2.562 . S
Pr201 O227 2.490 . S
Pr201 O228 2.695 . S
Pr201 O229 2.512 . S
Pr201 O231 2.437 . S
C202 Pr200 2.880 . S
C202 C203 1.491 . S
C202 O220 1.254 . S
C202 O221 1.225 . S
C203 C202 1.491 . S
C203 C204 1.392 . S
C203 C208 1.356 . S
C204 C203 1.392 . S
C204 C205 1.368 . S
C204 H232 0.929 . S
C205 C204 1.368 . S
C205 C206 1.386 . S
C205 H233 0.929 . S
C206 C205 1.386 . S
C206 C207 1.373 . S
C207 C206 1.373 . S
C207 C208 1.409 . S
C207 H234 0.931 . S
C208 C203 1.356 . S
C208 C207 1.409 . S
C208 H235 0.930 . S
C209 O222 1.270 1_545 S
C209 O223 1.248 . S
C210 O224 1.267 . S
C210 O225 1.278 . S
C211 Pr201 2.880 . S
C211 C212 1.491 . S
C211 O226 1.254 . S
C211 O227 1.225 . S
C212 C211 1.491 . S
C212 C213 1.392 . S
C212 C217 1.356 1_565 S
C213 C212 1.392 . S
C213 C214 1.368 . S
C213 H236 0.929 . S
C214 C213 1.368 . S
C214 C215 1.386 . S
C214 H237 0.929 . S
C215 C214 1.386 . S
C215 C216 1.373 1_565 S
C216 C215 1.373 1_545 S
C216 C217 1.409 . S
C216 H238 0.931 . S
C217 C212 1.356 1_545 S
C217 C216 1.409 . S
C217 H239 0.930 . S
C218 O228 1.270 . S
C218 O229 1.248 . S
C219 O230 1.267 . S
C219 O231 1.278 . S
O220 Pr200 2.562 . S
O220 C202 1.254 . S
O221 Pr200 2.490 . S
O221 C202 1.225 . S
O222 Pr200 2.695 . S
O222 Pr201 2.436 . S
O222 C209 1.270 1_565 S
O223 Pr200 2.512 1_545 S
O223 C209 1.248 . S
O224 Pr201 2.438 . S
O224 C210 1.267 . S
O225 Pr200 2.437 . S
O225 C210 1.278 . S
O226 Pr201 2.562 . S
O226 C211 1.254 . S
O227 Pr201 2.490 . S
O227 C211 1.225 . S
O228 Pr200 2.436 . S
O228 Pr201 2.695 . S
O228 C218 1.270 . S
O229 Pr201 2.512 . S
O229 C218 1.248 . S
O230 Pr200 2.438 . S
O230 C219 1.267 . S
O231 Pr201 2.437 . S
O231 C219 1.278 . S
H232 C204 0.929 . S
H233 C205 0.929 . S
H234 C207 0.931 . S
H235 C208 0.930 . S
H236 C213 0.929 . S
H237 C214 0.929 . S
H238 C216 0.931 . S
H239 C217 0.930 . S
Pr240 C242 2.880 . S
Pr240 O260 2.562 . S
Pr240 O261 2.490 . S
Pr240 O262 2.695 . S
Pr240 O263 2.512 . S
Pr240 O265 2.437 . S
Pr240 O268 2.436 . S
Pr240 O270 2.438 . S
Pr241 C251 2.880 . S
Pr241 O262 2.436 . S
Pr241 O264 2.438 . S
Pr241 O266 2.562 . S
Pr241 O267 2.490 . S
Pr241 O268 2.695 . S
Pr241 O269 2.512 . S
Pr241 O271 2.437 . S
C242 Pr240 2.880 . S
C242 C243 1.491 . S
C242 O260 1.254 . S
C242 O261 1.225 . S
C243 C242 1.491 . S
C243 C244 1.392 . S
C243 C248 1.356 . S
C244 C243 1.392 . S
C244 C245 1.368 . S
C244 H272 0.929 . S
C245 C244 1.368 . S
C245 C246 1.386 . S
C245 H273 0.929 . S
C246 C245 1.386 . S
C246 C247 1.373 . S
C247 C246 1.373 . S
C247 C248 1.409 . S
C247 H274 0.931 . S
C248 C243 1.356 . S
C248 C247 1.409 . S
C248 H275 0.930 . S
C249 O262 1.270 . S
C249 O263 1.248 . S
C250 O264 1.267 . S
C250 O265 1.278 . S
C251 Pr241 2.880 . S
C251 C252 1.491 . S
C251 O266 1.254 . S
C251 O267 1.225 . S
C252 C251 1.491 . S
C252 C253 1.392 . S
C252 C257 1.356 . S
C253 C252 1.392 . S
C253 C254 1.368 . S
C253 H276 0.929 . S
C254 C253 1.368 . S
C254 C255 1.386 . S
C254 H277 0.929 . S
C255 C254 1.386 . S
C255 C256 1.373 . S
C256 C255 1.373 . S
C256 C257 1.409 . S
C256 H278 0.931 . S
C257 C252 1.356 . S
C257 C256 1.409 . S
C257 H279 0.930 . S
C258 O268 1.270 . S
C258 O269 1.248 . S
C259 O270 1.267 . S
C259 O271 1.278 . S
O260 Pr240 2.562 . S
O260 C242 1.254 . S
O261 Pr240 2.490 . S
O261 C242 1.225 . S
O262 Pr240 2.695 . S
O262 Pr241 2.436 . S
O262 C249 1.270 . S
O263 Pr240 2.512 . S
O263 C249 1.248 . S
O264 Pr241 2.438 . S
O264 C250 1.267 . S
O265 Pr240 2.437 . S
O265 C250 1.278 . S
O266 Pr241 2.562 . S
O266 C251 1.254 . S
O267 Pr241 2.490 . S
O267 C251 1.225 . S
O268 Pr240 2.436 . S
O268 Pr241 2.695 . S
O268 C258 1.270 . S
O269 Pr241 2.512 . S
O269 C258 1.248 . S
O270 Pr240 2.438 . S
O270 C259 1.267 . S
O271 Pr241 2.437 . S
O271 C259 1.278 . S
H272 C244 0.929 . S
H273 C245 0.929 . S
H274 C247 0.931 . S
H275 C248 0.930 . S
H276 C253 0.929 . S
H277 C254 0.929 . S
H278 C256 0.931 . S
H279 C257 0.930 . S
Pr280 C282 2.880 . S
Pr280 O300 2.562 . S
Pr280 O301 2.490 . S
Pr280 O302 2.695 1_655 S
Pr280 O303 2.512 1_645 S
Pr280 O305 2.437 1_655 S
Pr280 O308 2.436 1_655 S
Pr280 O310 2.438 . S
Pr281 C291 2.880 . S
Pr281 O302 2.436 . S
Pr281 O304 2.438 . S
Pr281 O306 2.562 . S
Pr281 O307 2.490 . S
Pr281 O308 2.695 . S
Pr281 O309 2.512 . S
Pr281 O311 2.437 . S
C282 Pr280 2.880 . S
C282 C283 1.491 . S
C282 O300 1.254 . S
C282 O301 1.225 . S
C283 C282 1.491 . S
C283 C284 1.392 . S
C283 C288 1.356 . S
C284 C283 1.392 . S
C284 C285 1.368 . S
C284 H312 0.929 . S
C285 C284 1.368 . S
C285 C286 1.386 . S
C285 H313 0.929 . S
C286 C285 1.386 . S
C286 C287 1.373 . S
C287 C286 1.373 . S
C287 C288 1.409 . S
C287 H314 0.931 . S
C288 C283 1.356 . S
C288 C287 1.409 . S
C288 H315 0.930 . S
C289 O302 1.270 1_565 S
C289 O303 1.248 . S
C290 O304 1.267 . S
C290 O305 1.278 . S
C291 Pr281 2.880 . S
C291 C292 1.491 . S
C291 O306 1.254 . S
C291 O307 1.225 . S
C292 C291 1.491 . S
C292 C293 1.392 . S
C292 C297 1.356 1_545 S
C293 C292 1.392 . S
C293 C294 1.368 . S
C293 H316 0.929 . S
C294 C293 1.368 . S
C294 C295 1.386 . S
C294 H317 0.929 . S
C295 C294 1.386 . S
C295 C296 1.373 1_545 S
C296 C295 1.373 1_565 S
C296 C297 1.409 . S
C296 H318 0.931 . S
C297 C292 1.356 1_565 S
C297 C296 1.409 . S
C297 H319 0.930 . S
C298 O308 1.270 . S
C298 O309 1.248 . S
C299 O310 1.267 1_455 S
C299 O311 1.278 . S
O300 Pr280 2.562 . S
O300 C282 1.254 . S
O301 Pr280 2.490 . S
O301 C282 1.225 . S
O302 Pr280 2.695 1_455 S
O302 Pr281 2.436 . S
O302 C289 1.270 1_545 S
O303 Pr280 2.512 1_465 S
O303 C289 1.248 . S
O304 Pr281 2.438 . S
O304 C290 1.267 . S
O305 Pr280 2.437 1_455 S
O305 C290 1.278 . S
O306 Pr281 2.562 . S
O306 C291 1.254 . S
O307 Pr281 2.490 . S
O307 C291 1.225 . S
O308 Pr280 2.436 1_455 S
O308 Pr281 2.695 . S
O308 C298 1.270 . S
O309 Pr281 2.512 . S
O309 C298 1.248 . S
O310 Pr280 2.438 . S
O310 C299 1.267 1_655 S
O311 Pr281 2.437 . S
O311 C299 1.278 . S
H312 C284 0.929 . S
H313 C285 0.929 . S
H314 C287 0.931 . S
H315 C288 0.930 . S
H316 C293 0.929 . S
H317 C294 0.929 . S
H318 C296 0.931 . S
H319 C297 0.930 . S
Pr320 C322 2.880 . S
Pr320 O340 2.562 . S
Pr320 O341 2.490 . S
Pr320 O342 2.695 . S
Pr320 O343 2.512 . S
Pr320 O345 2.437 . S
Pr320 O348 2.436 . S
Pr320 O350 2.438 . S
Pr321 C331 2.880 . S
Pr321 O342 2.436 . S
Pr321 O344 2.438 . S
Pr321 O346 2.562 . S
Pr321 O347 2.490 . S
Pr321 O348 2.695 . S
Pr321 O349 2.512 . S
Pr321 O351 2.437 . S
C322 Pr320 2.880 . S
C322 C323 1.491 . S
C322 O340 1.254 . S
C322 O341 1.225 . S
C323 C322 1.491 . S
C323 C324 1.392 . S
C323 C328 1.356 . S
C324 C323 1.392 . S
C324 C325 1.368 . S
C324 H352 0.929 . S
C325 C324 1.368 . S
C325 C326 1.386 . S
C325 H353 0.929 . S
C326 C325 1.386 . S
C326 C327 1.373 . S
C327 C326 1.373 . S
C327 C328 1.409 . S
C327 H354 0.931 . S
C328 C323 1.356 . S
C328 C327 1.409 . S
C328 H355 0.930 . S
C329 O342 1.270 . S
C329 O343 1.248 . S
C330 O344 1.267 . S
C330 O345 1.278 . S
C331 Pr321 2.880 . S
C331 C332 1.491 . S
C331 O346 1.254 . S
C331 O347 1.225 . S
C332 C331 1.491 . S
C332 C333 1.392 . S
C332 C337 1.356 . S
C333 C332 1.392 . S
C333 C334 1.368 . S
C333 H356 0.929 . S
C334 C333 1.368 . S
C334 C335 1.386 . S
C334 H357 0.929 . S
C335 C334 1.386 . S
C335 C336 1.373 . S
C336 C335 1.373 . S
C336 C337 1.409 . S
C336 H358 0.931 . S
C337 C332 1.356 . S
C337 C336 1.409 . S
C337 H359 0.930 . S
C338 O348 1.270 . S
C338 O349 1.248 . S
C339 O350 1.267 . S
C339 O351 1.278 . S
O340 Pr320 2.562 . S
O340 C322 1.254 . S
O341 Pr320 2.490 . S
O341 C322 1.225 . S
O342 Pr320 2.695 . S
O342 Pr321 2.436 . S
O342 C329 1.270 . S
O343 Pr320 2.512 . S
O343 C329 1.248 . S
O344 Pr321 2.438 . S
O344 C330 1.267 . S
O345 Pr320 2.437 . S
O345 C330 1.278 . S
O346 Pr321 2.562 . S
O346 C331 1.254 . S
O347 Pr321 2.490 . S
O347 C331 1.225 . S
O348 Pr320 2.436 . S
O348 Pr321 2.695 . S
O348 C338 1.270 . S
O349 Pr321 2.512 . S
O349 C338 1.248 . S
O350 Pr320 2.438 . S
O350 C339 1.267 . S
O351 Pr321 2.437 . S
O351 C339 1.278 . S
H352 C324 0.929 . S
H353 C325 0.929 . S
H354 C327 0.931 . S
H355 C328 0.930 . S
H356 C333 0.929 . S
H357 C334 0.929 . S
H358 C336 0.931 . S
H359 C337 0.930 . S
Pr360 C362 2.880 . S
Pr360 O380 2.562 . S
Pr360 O381 2.490 . S
Pr360 O382 2.695 . S
Pr360 O383 2.512 . S
Pr360 O385 2.437 . S
Pr360 O388 2.436 . S
Pr360 O390 2.438 . S
Pr361 C371 2.880 . S
Pr361 O382 2.436 1_455 S
Pr361 O384 2.438 . S
Pr361 O386 2.562 . S
Pr361 O387 2.490 . S
Pr361 O388 2.695 1_455 S
Pr361 O389 2.512 1_445 S
Pr361 O391 2.437 1_455 S
C362 Pr360 2.880 . S
C362 C363 1.491 . S
C362 O380 1.254 . S
C362 O381 1.225 . S
C363 C362 1.491 . S
C363 C364 1.392 . S
C363 C368 1.356 1_545 S
C364 C363 1.392 . S
C364 C365 1.368 . S
C364 H392 0.929 . S
C365 C364 1.368 . S
C365 C366 1.386 . S
C365 H393 0.929 . S
C366 C365 1.386 . S
C366 C367 1.373 1_545 S
C367 C366 1.373 1_565 S
C367 C368 1.409 . S
C367 H394 0.931 . S
C368 C363 1.356 1_565 S
C368 C367 1.409 . S
C368 H395 0.930 . S
C369 O382 1.270 . S
C369 O383 1.248 . S
C370 O384 1.267 1_655 S
C370 O385 1.278 . S
C371 Pr361 2.880 . S
C371 C372 1.491 . S
C371 O386 1.254 . S
C371 O387 1.225 . S
C372 C371 1.491 . S
C372 C373 1.392 . S
C372 C377 1.356 . S
C373 C372 1.392 . S
C373 C374 1.368 . S
C373 H396 0.929 . S
C374 C373 1.368 . S
C374 C375 1.386 . S
C374 H397 0.929 . S
C375 C374 1.386 . S
C375 C376 1.373 . S
C376 C375 1.373 . S
C376 C377 1.409 . S
C376 H398 0.931 . S
C377 C372 1.356 . S
C377 C376 1.409 . S
C377 H399 0.930 . S
C378 O388 1.270 1_565 S
C378 O389 1.248 . S
C379 O390 1.267 . S
C379 O391 1.278 . S
O380 Pr360 2.562 . S
O380 C362 1.254 . S
O381 Pr360 2.490 . S
O381 C362 1.225 . S
O382 Pr360 2.695 . S
O382 Pr361 2.436 1_655 S
O382 C369 1.270 . S
O383 Pr360 2.512 . S
O383 C369 1.248 . S
O384 Pr361 2.438 . S
O384 C370 1.267 1_455 S
O385 Pr360 2.437 . S
O385 C370 1.278 . S
O386 Pr361 2.562 . S
O386 C371 1.254 . S
O387 Pr361 2.490 . S
O387 C371 1.225 . S
O388 Pr360 2.436 . S
O388 Pr361 2.695 1_655 S
O388 C378 1.270 1_545 S
O389 Pr361 2.512 1_665 S
O389 C378 1.248 . S
O390 Pr360 2.438 . S
O390 C379 1.267 . S
O391 Pr361 2.437 1_655 S
O391 C379 1.278 . S
H392 C364 0.929 . S
H393 C365 0.929 . S
H394 C367 0.931 . S
H395 C368 0.930 . S
H396 C373 0.929 . S
H397 C374 0.929 . S
H398 C376 0.931 . S
H399 C377 0.930 . S
Pr400 C402 2.880 . S
Pr400 O420 2.562 . S
Pr400 O421 2.490 . S
Pr400 O422 2.695 . S
Pr400 O423 2.512 . S
Pr400 O425 2.437 . S
Pr400 O428 2.436 . S
Pr400 O430 2.438 . S
Pr401 C411 2.880 . S
Pr401 O422 2.436 . S
Pr401 O424 2.438 . S
Pr401 O426 2.562 . S
Pr401 O427 2.490 . S
Pr401 O428 2.695 . S
Pr401 O429 2.512 . S
Pr401 O431 2.437 . S
C402 Pr400 2.880 . S
C402 C403 1.491 . S
C402 O420 1.254 . S
C402 O421 1.225 . S
C403 C402 1.491 . S
C403 C404 1.392 . S
C403 C408 1.356 . S
C404 C403 1.392 . S
C404 C405 1.368 . S
C404 H432 0.929 . S
C405 C404 1.368 . S
C405 C406 1.386 . S
C405 H433 0.929 . S
C406 C405 1.386 . S
C406 C407 1.373 . S
C407 C406 1.373 . S
C407 C408 1.409 . S
C407 H434 0.931 . S
C408 C403 1.356 . S
C408 C407 1.409 . S
C408 H435 0.930 . S
C409 O422 1.270 . S
C409 O423 1.248 . S
C410 O424 1.267 . S
C410 O425 1.278 . S
C411 Pr401 2.880 . S
C411 C412 1.491 . S
C411 O426 1.254 . S
C411 O427 1.225 . S
C412 C411 1.491 . S
C412 C413 1.392 . S
C412 C417 1.356 . S
C413 C412 1.392 . S
C413 C414 1.368 . S
C413 H436 0.929 . S
C414 C413 1.368 . S
C414 C415 1.386 . S
C414 H437 0.929 . S
C415 C414 1.386 . S
C415 C416 1.373 . S
C416 C415 1.373 . S
C416 C417 1.409 . S
C416 H438 0.931 . S
C417 C412 1.356 . S
C417 C416 1.409 . S
C417 H439 0.930 . S
C418 O428 1.270 . S
C418 O429 1.248 . S
C419 O430 1.267 . S
C419 O431 1.278 . S
O420 Pr400 2.562 . S
O420 C402 1.254 . S
O421 Pr400 2.490 . S
O421 C402 1.225 . S
O422 Pr400 2.695 . S
O422 Pr401 2.436 . S
O422 C409 1.270 . S
O423 Pr400 2.512 . S
O423 C409 1.248 . S
O424 Pr401 2.438 . S
O424 C410 1.267 . S
O425 Pr400 2.437 . S
O425 C410 1.278 . S
O426 Pr401 2.562 . S
O426 C411 1.254 . S
O427 Pr401 2.490 . S
O427 C411 1.225 . S
O428 Pr400 2.436 . S
O428 Pr401 2.695 . S
O428 C418 1.270 . S
O429 Pr401 2.512 . S
O429 C418 1.248 . S
O430 Pr400 2.438 . S
O430 C419 1.267 . S
O431 Pr401 2.437 . S
O431 C419 1.278 . S
H432 C404 0.929 . S
H433 C405 0.929 . S
H434 C407 0.931 . S
H435 C408 0.930 . S
H436 C413 0.929 . S
H437 C414 0.929 . S
H438 C416 0.931 . S
H439 C417 0.930 . S
Pr440 C442 2.880 . S
Pr440 O460 2.562 . S
Pr440 O461 2.490 . S
Pr440 O462 2.695 . S
Pr440 O463 2.512 . S
Pr440 O465 2.437 . S
Pr440 O468 2.436 . S
Pr440 O470 2.438 . S
Pr441 C451 2.880 . S
Pr441 O462 2.436 . S
Pr441 O464 2.438 . S
Pr441 O466 2.562 . S
Pr441 O467 2.490 . S
Pr441 O468 2.695 . S
Pr441 O469 2.512 1_565 S
Pr441 O471 2.437 . S
C442 Pr440 2.880 . S
C442 C443 1.491 . S
C442 O460 1.254 . S
C442 O461 1.225 . S
C443 C442 1.491 . S
C443 C444 1.392 . S
C443 C448 1.356 1_565 S
C444 C443 1.392 . S
C444 C445 1.368 . S
C444 H472 0.929 . S
C445 C444 1.368 . S
C445 C446 1.386 . S
C445 H473 0.929 . S
C446 C445 1.386 . S
C446 C447 1.373 1_565 S
C447 C446 1.373 1_545 S
C447 C448 1.409 . S
C447 H474 0.931 . S
C448 C443 1.356 1_545 S
C448 C447 1.409 . S
C448 H475 0.930 . S
C449 O462 1.270 . S
C449 O463 1.248 . S
C450 O464 1.267 . S
C450 O465 1.278 . S
C451 Pr441 2.880 . S
C451 C452 1.491 . S
C451 O466 1.254 . S
C451 O467 1.225 . S
C452 C451 1.491 . S
C452 C453 1.392 . S
C452 C457 1.356 . S
C453 C452 1.392 . S
C453 C454 1.368 . S
C453 H476 0.929 . S
C454 C453 1.368 . S
C454 C455 1.386 . S
C454 H477 0.929 . S
C455 C454 1.386 . S
C455 C456 1.373 . S
C456 C455 1.373 . S
C456 C457 1.409 . S
C456 H478 0.931 . S
C457 C452 1.356 . S
C457 C456 1.409 . S
C457 H479 0.930 . S
C458 O468 1.270 1_545 S
C458 O469 1.248 . S
C459 O470 1.267 . S
C459 O471 1.278 . S
O460 Pr440 2.562 . S
O460 C442 1.254 . S
O461 Pr440 2.490 . S
O461 C442 1.225 . S
O462 Pr440 2.695 . S
O462 Pr441 2.436 . S
O462 C449 1.270 . S
O463 Pr440 2.512 . S
O463 C449 1.248 . S
O464 Pr441 2.438 . S
O464 C450 1.267 . S
O465 Pr440 2.437 . S
O465 C450 1.278 . S
O466 Pr441 2.562 . S
O466 C451 1.254 . S
O467 Pr441 2.490 . S
O467 C451 1.225 . S
O468 Pr440 2.436 . S
O468 Pr441 2.695 . S
O468 C458 1.270 1_565 S
O469 Pr441 2.512 1_545 S
O469 C458 1.248 . S
O470 Pr440 2.438 . S
O470 C459 1.267 . S
O471 Pr441 2.437 . S
O471 C459 1.278 . S
H472 C444 0.929 . S
H473 C445 0.929 . S
H474 C447 0.931 . S
H475 C448 0.930 . S
H476 C453 0.929 . S
H477 C454 0.929 . S
H478 C456 0.931 . S
H479 C457 0.930 . S
Pr480 C482 2.880 . S
Pr480 O500 2.562 . S
Pr480 O501 2.490 . S
Pr480 O502 2.695 . S
Pr480 O503 2.512 . S
Pr480 O505 2.437 . S
Pr480 O508 2.436 . S
Pr480 O510 2.438 . S
Pr481 C491 2.880 . S
Pr481 O502 2.436 . S
Pr481 O504 2.438 . S
Pr481 O506 2.562 . S
Pr481 O507 2.490 . S
Pr481 O508 2.695 . S
Pr481 O509 2.512 . S
Pr481 O511 2.437 . S
C482 Pr480 2.880 . S
C482 C483 1.491 . S
C482 O500 1.254 . S
C482 O501 1.225 . S
C483 C482 1.491 . S
C483 C484 1.392 . S
C483 C488 1.356 . S
C484 C483 1.392 . S
C484 C485 1.368 . S
C484 H512 0.929 . S
C485 C484 1.368 . S
C485 C486 1.386 . S
C485 H513 0.929 . S
C486 C485 1.386 . S
C486 C487 1.373 . S
C487 C486 1.373 . S
C487 C488 1.409 . S
C487 H514 0.931 . S
C488 C483 1.356 . S
C488 C487 1.409 . S
C488 H515 0.930 . S
C489 O502 1.270 . S
C489 O503 1.248 . S
C490 O504 1.267 . S
C490 O505 1.278 . S
C491 Pr481 2.880 . S
C491 C492 1.491 . S
C491 O506 1.254 . S
C491 O507 1.225 . S
C492 C491 1.491 . S
C492 C493 1.392 . S
C492 C497 1.356 . S
C493 C492 1.392 . S
C493 C494 1.368 . S
C493 H516 0.929 . S
C494 C493 1.368 . S
C494 C495 1.386 . S
C494 H517 0.929 . S
C495 C494 1.386 . S
C495 C496 1.373 . S
C496 C495 1.373 . S
C496 C497 1.409 . S
C496 H518 0.931 . S
C497 C492 1.356 . S
C497 C496 1.409 . S
C497 H519 0.930 . S
C498 O508 1.270 . S
C498 O509 1.248 . S
C499 O510 1.267 . S
C499 O511 1.278 . S
O500 Pr480 2.562 . S
O500 C482 1.254 . S
O501 Pr480 2.490 . S
O501 C482 1.225 . S
O502 Pr480 2.695 . S
O502 Pr481 2.436 . S
O502 C489 1.270 . S
O503 Pr480 2.512 . S
O503 C489 1.248 . S
O504 Pr481 2.438 . S
O504 C490 1.267 . S
O505 Pr480 2.437 . S
O505 C490 1.278 . S
O506 Pr481 2.562 . S
O506 C491 1.254 . S
O507 Pr481 2.490 . S
O507 C491 1.225 . S
O508 Pr480 2.436 . S
O508 Pr481 2.695 . S
O508 C498 1.270 . S
O509 Pr481 2.512 . S
O509 C498 1.248 . S
O510 Pr480 2.438 . S
O510 C499 1.267 . S
O511 Pr481 2.437 . S
O511 C499 1.278 . S
H512 C484 0.929 . S
H513 C485 0.929 . S
H514 C487 0.931 . S
H515 C488 0.930 . S
H516 C493 0.929 . S
H517 C494 0.929 . S
H518 C496 0.931 . S
H519 C497 0.930 . S
Pr520 C522 2.880 . S
Pr520 O540 2.562 . S
Pr520 O541 2.490 . S
Pr520 O542 2.695 . S
Pr520 O543 2.512 . S
Pr520 O545 2.437 . S
Pr520 O548 2.436 . S
Pr520 O550 2.438 . S
Pr521 C531 2.880 . S
Pr521 O542 2.436 . S
Pr521 O544 2.438 . S
Pr521 O546 2.562 . S
Pr521 O547 2.490 . S
Pr521 O548 2.695 . S
Pr521 O549 2.512 1_545 S
Pr521 O551 2.437 . S
C522 Pr520 2.880 . S
C522 C523 1.491 . S
C522 O540 1.254 . S
C522 O541 1.225 . S
C523 C522 1.491 . S
C523 C524 1.392 . S
C523 C528 1.356 1_545 S
C524 C523 1.392 . S
C524 C525 1.368 . S
C524 H552 0.929 . S
C525 C524 1.368 . S
C525 C526 1.386 . S
C525 H553 0.929 . S
C526 C525 1.386 . S
C526 C527 1.373 1_545 S
C527 C526 1.373 1_565 S
C527 C528 1.409 . S
C527 H554 0.931 . S
C528 C523 1.356 1_565 S
C528 C527 1.409 . S
C528 H555 0.930 . S
C529 O542 1.270 . S
C529 O543 1.248 . S
C530 O544 1.267 . S
C530 O545 1.278 . S
C531 Pr521 2.880 . S
C531 C532 1.491 . S
C531 O546 1.254 . S
C531 O547 1.225 . S
C532 C531 1.491 . S
C532 C533 1.392 . S
C532 C537 1.356 . S
C533 C532 1.392 . S
C533 C534 1.368 . S
C533 H556 0.929 . S
C534 C533 1.368 . S
C534 C535 1.386 . S
C534 H557 0.929 . S
C535 C534 1.386 . S
C535 C536 1.373 . S
C536 C535 1.373 . S
C536 C537 1.409 . S
C536 H558 0.931 . S
C537 C532 1.356 . S
C537 C536 1.409 . S
C537 H559 0.930 . S
C538 O548 1.270 1_565 S
C538 O549 1.248 . S
C539 O550 1.267 . S
C539 O551 1.278 . S
O540 Pr520 2.562 . S
O540 C522 1.254 . S
O541 Pr520 2.490 . S
O541 C522 1.225 . S
O542 Pr520 2.695 . S
O542 Pr521 2.436 . S
O542 C529 1.270 . S
O543 Pr520 2.512 . S
O543 C529 1.248 . S
O544 Pr521 2.438 . S
O544 C530 1.267 . S
O545 Pr520 2.437 . S
O545 C530 1.278 . S
O546 Pr521 2.562 . S
O546 C531 1.254 . S
O547 Pr521 2.490 . S
O547 C531 1.225 . S
O548 Pr520 2.436 . S
O548 Pr521 2.695 . S
O548 C538 1.270 1_545 S
O549 Pr521 2.512 1_565 S
O549 C538 1.248 . S
O550 Pr520 2.438 . S
O550 C539 1.267 . S
O551 Pr521 2.437 . S
O551 C539 1.278 . S
H552 C524 0.929 . S
H553 C525 0.929 . S
H554 C527 0.931 . S
H555 C528 0.930 . S
H556 C533 0.929 . S
H557 C534 0.929 . S
H558 C536 0.931 . S
H559 C537 0.930 . S
Pr560 C562 2.880 . S
Pr560 O580 2.562 . S
Pr560 O581 2.490 . S
Pr560 O582 2.695 . S
Pr560 O583 2.512 . S
Pr560 O585 2.437 . S
Pr560 O588 2.436 . S
Pr560 O590 2.438 . S
Pr561 C571 2.880 . S
Pr561 O582 2.436 . S
Pr561 O584 2.438 . S
Pr561 O586 2.562 . S
Pr561 O587 2.490 . S
Pr561 O588 2.695 . S
Pr561 O589 2.512 . S
Pr561 O591 2.437 . S
C562 Pr560 2.880 . S
C562 C563 1.491 . S
C562 O580 1.254 . S
C562 O581 1.225 . S
C563 C562 1.491 . S
C563 C564 1.392 . S
C563 C568 1.356 . S
C564 C563 1.392 . S
C564 C565 1.368 . S
C564 H592 0.929 . S
C565 C564 1.368 . S
C565 C566 1.386 . S
C565 H593 0.929 . S
C566 C565 1.386 . S
C566 C567 1.373 . S
C567 C566 1.373 . S
C567 C568 1.409 . S
C567 H594 0.931 . S
C568 C563 1.356 . S
C568 C567 1.409 . S
C568 H595 0.930 . S
C569 O582 1.270 . S
C569 O583 1.248 . S
C570 O584 1.267 . S
C570 O585 1.278 . S
C571 Pr561 2.880 . S
C571 C572 1.491 . S
C571 O586 1.254 . S
C571 O587 1.225 . S
C572 C571 1.491 . S
C572 C573 1.392 . S
C572 C577 1.356 . S
C573 C572 1.392 . S
C573 C574 1.368 . S
C573 H596 0.929 . S
C574 C573 1.368 . S
C574 C575 1.386 . S
C574 H597 0.929 . S
C575 C574 1.386 . S
C575 C576 1.373 . S
C576 C575 1.373 . S
C576 C577 1.409 . S
C576 H598 0.931 . S
C577 C572 1.356 . S
C577 C576 1.409 . S
C577 H599 0.930 . S
C578 O588 1.270 . S
C578 O589 1.248 . S
C579 O590 1.267 . S
C579 O591 1.278 . S
O580 Pr560 2.562 . S
O580 C562 1.254 . S
O581 Pr560 2.490 . S
O581 C562 1.225 . S
O582 Pr560 2.695 . S
O582 Pr561 2.436 . S
O582 C569 1.270 . S
O583 Pr560 2.512 . S
O583 C569 1.248 . S
O584 Pr561 2.438 . S
O584 C570 1.267 . S
O585 Pr560 2.437 . S
O585 C570 1.278 . S
O586 Pr561 2.562 . S
O586 C571 1.254 . S
O587 Pr561 2.490 . S
O587 C571 1.225 . S
O588 Pr560 2.436 . S
O588 Pr561 2.695 . S
O588 C578 1.270 . S
O589 Pr561 2.512 . S
O589 C578 1.248 . S
O590 Pr560 2.438 . S
O590 C579 1.267 . S
O591 Pr561 2.437 . S
O591 C579 1.278 . S
H592 C564 0.929 . S
H593 C565 0.929 . S
H594 C567 0.931 . S
H595 C568 0.930 . S
H596 C573 0.929 . S
H597 C574 0.929 . S
H598 C576 0.931 . S
H599 C577 0.930 . S
Pr600 C602 2.880 . S
Pr600 O620 2.562 . S
Pr600 O621 2.490 . S
Pr600 O622 2.695 . S
Pr600 O623 2.512 . S
Pr600 O625 2.437 . S
Pr600 O628 2.436 . S
Pr600 O630 2.438 . S
Pr601 C611 2.880 . S
Pr601 O622 2.436 1_455 S
Pr601 O624 2.438 . S
Pr601 O626 2.562 . S
Pr601 O627 2.490 . S
Pr601 O628 2.695 1_455 S
Pr601 O629 2.512 1_465 S
Pr601 O631 2.437 1_455 S
C602 Pr600 2.880 . S
C602 C603 1.491 . S
C602 O620 1.254 . S
C602 O621 1.225 . S
C603 C602 1.491 . S
C603 C604 1.392 . S
C603 C608 1.356 1_565 S
C604 C603 1.392 . S
C604 C605 1.368 . S
C604 H632 0.929 . S
C605 C604 1.368 . S
C605 C606 1.386 . S
C605 H633 0.929 . S
C606 C605 1.386 . S
C606 C607 1.373 1_565 S
C607 C606 1.373 1_545 S
C607 C608 1.409 . S
C607 H634 0.931 . S
C608 C603 1.356 1_545 S
C608 C607 1.409 . S
C608 H635 0.930 . S
C609 O622 1.270 . S
C609 O623 1.248 . S
C610 O624 1.267 1_655 S
C610 O625 1.278 . S
C611 Pr601 2.880 . S
C611 C612 1.491 . S
C611 O626 1.254 . S
C611 O627 1.225 . S
C612 C611 1.491 . S
C612 C613 1.392 . S
C612 C617 1.356 . S
C613 C612 1.392 . S
C613 C614 1.368 . S
C613 H636 0.929 . S
C614 C613 1.368 . S
C614 C615 1.386 . S
C614 H637 0.929 . S
C615 C614 1.386 . S
C615 C616 1.373 . S
C616 C615 1.373 . S
C616 C617 1.409 . S
C616 H638 0.931 . S
C617 C612 1.356 . S
C617 C616 1.409 . S
C617 H639 0.930 . S
C618 O628 1.270 1_545 S
C618 O629 1.248 . S
C619 O630 1.267 . S
C619 O631 1.278 . S
O620 Pr600 2.562 . S
O620 C602 1.254 . S
O621 Pr600 2.490 . S
O621 C602 1.225 . S
O622 Pr600 2.695 . S
O622 Pr601 2.436 1_655 S
O622 C609 1.270 . S
O623 Pr600 2.512 . S
O623 C609 1.248 . S
O624 Pr601 2.438 . S
O624 C610 1.267 1_455 S
O625 Pr600 2.437 . S
O625 C610 1.278 . S
O626 Pr601 2.562 . S
O626 C611 1.254 . S
O627 Pr601 2.490 . S
O627 C611 1.225 . S
O628 Pr600 2.436 . S
O628 Pr601 2.695 1_655 S
O628 C618 1.270 1_565 S
O629 Pr601 2.512 1_645 S
O629 C618 1.248 . S
O630 Pr600 2.438 . S
O630 C619 1.267 . S
O631 Pr601 2.437 1_655 S
O631 C619 1.278 . S
H632 C604 0.929 . S
H633 C605 0.929 . S
H634 C607 0.931 . S
H635 C608 0.930 . S
H636 C613 0.929 . S
H637 C614 0.929 . S
H638 C616 0.931 . S
H639 C617 0.930 . S
Pr640 C642 2.880 . S
Pr640 O660 2.562 . S
Pr640 O661 2.490 . S
Pr640 O662 2.695 . S
Pr640 O663 2.512 . S
Pr640 O665 2.437 . S
Pr640 O668 2.436 . S
Pr640 O670 2.438 . S
Pr641 C651 2.880 . S
Pr641 O662 2.436 . S
Pr641 O664 2.438 . S
Pr641 O666 2.562 . S
Pr641 O667 2.490 . S
Pr641 O668 2.695 . S
Pr641 O669 2.512 . S
Pr641 O671 2.437 . S
C642 Pr640 2.880 . S
C642 C643 1.491 . S
C642 O660 1.254 . S
C642 O661 1.225 . S
C643 C642 1.491 . S
C643 C644 1.392 . S
C643 C648 1.356 . S
C644 C643 1.392 . S
C644 C645 1.368 . S
C644 H672 0.929 . S
C645 C644 1.368 . S
C645 C646 1.386 . S
C645 H673 0.929 . S
C646 C645 1.386 . S
C646 C647 1.373 . S
C647 C646 1.373 . S
C647 C648 1.409 . S
C647 H674 0.931 . S
C648 C643 1.356 . S
C648 C647 1.409 . S
C648 H675 0.930 . S
C649 O662 1.270 . S
C649 O663 1.248 . S
C650 O664 1.267 . S
C650 O665 1.278 . S
C651 Pr641 2.880 . S
C651 C652 1.491 . S
C651 O666 1.254 . S
C651 O667 1.225 . S
C652 C651 1.491 . S
C652 C653 1.392 . S
C652 C657 1.356 . S
C653 C652 1.392 . S
C653 C654 1.368 . S
C653 H676 0.929 . S
C654 C653 1.368 . S
C654 C655 1.386 . S
C654 H677 0.929 . S
C655 C654 1.386 . S
C655 C656 1.373 . S
C656 C655 1.373 . S
C656 C657 1.409 . S
C656 H678 0.931 . S
C657 C652 1.356 . S
C657 C656 1.409 . S
C657 H679 0.930 . S
C658 O668 1.270 . S
C658 O669 1.248 . S
C659 O670 1.267 . S
C659 O671 1.278 . S
O660 Pr640 2.562 . S
O660 C642 1.254 . S
O661 Pr640 2.490 . S
O661 C642 1.225 . S
O662 Pr640 2.695 . S
O662 Pr641 2.436 . S
O662 C649 1.270 . S
O663 Pr640 2.512 . S
O663 C649 1.248 . S
O664 Pr641 2.438 . S
O664 C650 1.267 . S
O665 Pr640 2.437 . S
O665 C650 1.278 . S
O666 Pr641 2.562 . S
O666 C651 1.254 . S
O667 Pr641 2.490 . S
O667 C651 1.225 . S
O668 Pr640 2.436 . S
O668 Pr641 2.695 . S
O668 C658 1.270 . S
O669 Pr641 2.512 . S
O669 C658 1.248 . S
O670 Pr640 2.438 . S
O670 C659 1.267 . S
O671 Pr641 2.437 . S
O671 C659 1.278 . S
H672 C644 0.929 . S
H673 C645 0.929 . S
H674 C647 0.931 . S
H675 C648 0.930 . S
H676 C653 0.929 . S
H677 C654 0.929 . S
H678 C656 0.931 . S
H679 C657 0.930 . S
Pr680 C682 2.880 . S
Pr680 O700 2.562 . S
Pr680 O701 2.490 . S
Pr680 O702 2.695 . S
Pr680 O703 2.512 . S
Pr680 O705 2.437 . S
Pr680 O708 2.436 . S
Pr680 O710 2.438 . S
Pr681 C691 2.880 . S
Pr681 O702 2.436 . S
Pr681 O704 2.438 . S
Pr681 O706 2.562 . S
Pr681 O707 2.490 . S
Pr681 O708 2.695 . S
Pr681 O709 2.512 . S
Pr681 O711 2.437 . S
C682 Pr680 2.880 . S
C682 C683 1.491 . S
C682 O700 1.254 . S
C682 O701 1.225 . S
C683 C682 1.491 . S
C683 C684 1.392 . S
C683 C688 1.356 . S
C684 C683 1.392 . S
C684 C685 1.368 . S
C684 H712 0.929 . S
C685 C684 1.368 . S
C685 C686 1.386 . S
C685 H713 0.929 . S
C686 C685 1.386 . S
C686 C687 1.373 . S
C687 C686 1.373 . S
C687 C688 1.409 . S
C687 H714 0.931 . S
C688 C683 1.356 . S
C688 C687 1.409 . S
C688 H715 0.930 . S
C689 O702 1.270 . S
C689 O703 1.248 . S
C690 O704 1.267 . S
C690 O705 1.278 . S
C691 Pr681 2.880 . S
C691 C692 1.491 . S
C691 O706 1.254 . S
C691 O707 1.225 . S
C692 C691 1.491 . S
C692 C693 1.392 . S
C692 C697 1.356 . S
C693 C692 1.392 . S
C693 C694 1.368 . S
C693 H716 0.929 . S
C694 C693 1.368 . S
C694 C695 1.386 . S
C694 H717 0.929 . S
C695 C694 1.386 . S
C695 C696 1.373 . S
C696 C695 1.373 . S
C696 C697 1.409 . S
C696 H718 0.931 . S
C697 C692 1.356 . S
C697 C696 1.409 . S
C697 H719 0.930 . S
C698 O708 1.270 . S
C698 O709 1.248 . S
C699 O710 1.267 . S
C699 O711 1.278 . S
O700 Pr680 2.562 . S
O700 C682 1.254 . S
O701 Pr680 2.490 . S
O701 C682 1.225 . S
O702 Pr680 2.695 . S
O702 Pr681 2.436 . S
O702 C689 1.270 . S
O703 Pr680 2.512 . S
O703 C689 1.248 . S
O704 Pr681 2.438 . S
O704 C690 1.267 . S
O705 Pr680 2.437 . S
O705 C690 1.278 . S
O706 Pr681 2.562 . S
O706 C691 1.254 . S
O707 Pr681 2.490 . S
O707 C691 1.225 . S
O708 Pr680 2.436 . S
O708 Pr681 2.695 . S
O708 C698 1.270 . S
O709 Pr681 2.512 . S
O709 C698 1.248 . S
O710 Pr680 2.438 . S
O710 C699 1.267 . S
O711 Pr681 2.437 . S
O711 C699 1.278 . S
H712 C684 0.929 . S
H713 C685 0.929 . S
H714 C687 0.931 . S
H715 C688 0.930 . S
H716 C693 0.929 . S
H717 C694 0.929 . S
H718 C696 0.931 . S
H719 C697 0.930 . S
Pr720 C722 2.880 . S
Pr720 O740 2.562 . S
Pr720 O741 2.490 . S
Pr720 O742 2.695 . S
Pr720 O743 2.512 . S
Pr720 O745 2.437 . S
Pr720 O748 2.436 . S
Pr720 O750 2.438 . S
Pr721 C731 2.880 . S
Pr721 O742 2.436 . S
Pr721 O744 2.438 . S
Pr721 O746 2.562 . S
Pr721 O747 2.490 . S
Pr721 O748 2.695 . S
Pr721 O749 2.512 . S
Pr721 O751 2.437 . S
C722 Pr720 2.880 . S
C722 C723 1.491 . S
C722 O740 1.254 . S
C722 O741 1.225 . S
C723 C722 1.491 . S
C723 C724 1.392 . S
C723 C728 1.356 . S
C724 C723 1.392 . S
C724 C725 1.368 . S
C724 H752 0.929 . S
C725 C724 1.368 . S
C725 C726 1.386 . S
C725 H753 0.929 . S
C726 C725 1.386 . S
C726 C727 1.373 . S
C727 C726 1.373 . S
C727 C728 1.409 . S
C727 H754 0.931 . S
C728 C723 1.356 . S
C728 C727 1.409 . S
C728 H755 0.930 . S
C729 O742 1.270 . S
C729 O743 1.248 . S
C730 O744 1.267 . S
C730 O745 1.278 . S
C731 Pr721 2.880 . S
C731 C732 1.491 . S
C731 O746 1.254 . S
C731 O747 1.225 . S
C732 C731 1.491 . S
C732 C733 1.392 . S
C732 C737 1.356 . S
C733 C732 1.392 . S
C733 C734 1.368 . S
C733 H756 0.929 . S
C734 C733 1.368 . S
C734 C735 1.386 . S
C734 H757 0.929 . S
C735 C734 1.386 . S
C735 C736 1.373 . S
C736 C735 1.373 . S
C736 C737 1.409 . S
C736 H758 0.931 . S
C737 C732 1.356 . S
C737 C736 1.409 . S
C737 H759 0.930 . S
C738 O748 1.270 . S
C738 O749 1.248 . S
C739 O750 1.267 . S
C739 O751 1.278 . S
O740 Pr720 2.562 . S
O740 C722 1.254 . S
O741 Pr720 2.490 . S
O741 C722 1.225 . S
O742 Pr720 2.695 . S
O742 Pr721 2.436 . S
O742 C729 1.270 . S
O743 Pr720 2.512 . S
O743 C729 1.248 . S
O744 Pr721 2.438 . S
O744 C730 1.267 . S
O745 Pr720 2.437 . S
O745 C730 1.278 . S
O746 Pr721 2.562 . S
O746 C731 1.254 . S
O747 Pr721 2.490 . S
O747 C731 1.225 . S
O748 Pr720 2.436 . S
O748 Pr721 2.695 . S
O748 C738 1.270 . S
O749 Pr721 2.512 . S
O749 C738 1.248 . S
O750 Pr720 2.438 . S
O750 C739 1.267 . S
O751 Pr721 2.437 . S
O751 C739 1.278 . S
H752 C724 0.929 . S
H753 C725 0.929 . S
H754 C727 0.931 . S
H755 C728 0.930 . S
H756 C733 0.929 . S
H757 C734 0.929 . S
H758 C736 0.931 . S
H759 C737 0.930 . S
Pr760 C762 2.880 . S
Pr760 O780 2.562 . S
Pr760 O781 2.490 . S
Pr760 O782 2.695 1_455 S
Pr760 O783 2.512 1_455 S
Pr760 O785 2.437 1_455 S
Pr760 O788 2.436 1_455 S
Pr760 O790 2.438 . S
Pr761 C771 2.880 . S
Pr761 O782 2.436 . S
Pr761 O784 2.438 . S
Pr761 O786 2.562 . S
Pr761 O787 2.490 . S
Pr761 O788 2.695 . S
Pr761 O789 2.512 . S
Pr761 O791 2.437 . S
C762 Pr760 2.880 . S
C762 C763 1.491 . S
C762 O780 1.254 . S
C762 O781 1.225 . S
C763 C762 1.491 . S
C763 C764 1.392 . S
C763 C768 1.356 . S
C764 C763 1.392 . S
C764 C765 1.368 . S
C764 H792 0.929 . S
C765 C764 1.368 . S
C765 C766 1.386 . S
C765 H793 0.929 . S
C766 C765 1.386 . S
C766 C767 1.373 . S
C767 C766 1.373 . S
C767 C768 1.409 . S
C767 H794 0.931 . S
C768 C763 1.356 . S
C768 C767 1.409 . S
C768 H795 0.930 . S
C769 O782 1.270 . S
C769 O783 1.248 . S
C770 O784 1.267 . S
C770 O785 1.278 . S
C771 Pr761 2.880 . S
C771 C772 1.491 . S
C771 O786 1.254 . S
C771 O787 1.225 . S
C772 C771 1.491 . S
C772 C773 1.392 . S
C772 C777 1.356 . S
C773 C772 1.392 . S
C773 C774 1.368 . S
C773 H796 0.929 . S
C774 C773 1.368 . S
C774 C775 1.386 . S
C774 H797 0.929 . S
C775 C774 1.386 . S
C775 C776 1.373 . S
C776 C775 1.373 . S
C776 C777 1.409 . S
C776 H798 0.931 . S
C777 C772 1.356 . S
C777 C776 1.409 . S
C777 H799 0.930 . S
C778 O788 1.270 . S
C778 O789 1.248 . S
C779 O790 1.267 1_655 S
C779 O791 1.278 . S
O780 Pr760 2.562 . S
O780 C762 1.254 . S
O781 Pr760 2.490 . S
O781 C762 1.225 . S
O782 Pr760 2.695 1_655 S
O782 Pr761 2.436 . S
O782 C769 1.270 . S
O783 Pr760 2.512 1_655 S
O783 C769 1.248 . S
O784 Pr761 2.438 . S
O784 C770 1.267 . S
O785 Pr760 2.437 1_655 S
O785 C770 1.278 . S
O786 Pr761 2.562 . S
O786 C771 1.254 . S
O787 Pr761 2.490 . S
O787 C771 1.225 . S
O788 Pr760 2.436 1_655 S
O788 Pr761 2.695 . S
O788 C778 1.270 . S
O789 Pr761 2.512 . S
O789 C778 1.248 . S
O790 Pr760 2.438 . S
O790 C779 1.267 1_455 S
O791 Pr761 2.437 . S
O791 C779 1.278 . S
H792 C764 0.929 . S
H793 C765 0.929 . S
H794 C767 0.931 . S
H795 C768 0.930 . S
H796 C773 0.929 . S
H797 C774 0.929 . S
H798 C776 0.931 . S
H799 C777 0.930 . S
Pr800 C802 2.880 . S
Pr800 O820 2.562 . S
Pr800 O821 2.490 . S
Pr800 O822 2.695 . S
Pr800 O823 2.512 . S
Pr800 O825 2.437 . S
Pr800 O828 2.436 . S
Pr800 O830 2.438 . S
Pr801 C811 2.880 . S
Pr801 O822 2.436 . S
Pr801 O824 2.438 . S
Pr801 O826 2.562 . S
Pr801 O827 2.490 . S
Pr801 O828 2.695 . S
Pr801 O829 2.512 . S
Pr801 O831 2.437 . S
C802 Pr800 2.880 . S
C802 C803 1.491 . S
C802 O820 1.254 . S
C802 O821 1.225 . S
C803 C802 1.491 . S
C803 C804 1.392 . S
C803 C808 1.356 . S
C804 C803 1.392 . S
C804 C805 1.368 . S
C804 H832 0.929 . S
C805 C804 1.368 . S
C805 C806 1.386 . S
C805 H833 0.929 . S
C806 C805 1.386 . S
C806 C807 1.373 . S
C807 C806 1.373 . S
C807 C808 1.409 . S
C807 H834 0.931 . S
C808 C803 1.356 . S
C808 C807 1.409 . S
C808 H835 0.930 . S
C809 O822 1.270 . S
C809 O823 1.248 . S
C810 O824 1.267 . S
C810 O825 1.278 . S
C811 Pr801 2.880 . S
C811 C812 1.491 . S
C811 O826 1.254 . S
C811 O827 1.225 . S
C812 C811 1.491 . S
C812 C813 1.392 . S
C812 C817 1.356 . S
C813 C812 1.392 . S
C813 C814 1.368 . S
C813 H836 0.929 . S
C814 C813 1.368 . S
C814 C815 1.386 . S
C814 H837 0.929 . S
C815 C814 1.386 . S
C815 C816 1.373 . S
C816 C815 1.373 . S
C816 C817 1.409 . S
C816 H838 0.931 . S
C817 C812 1.356 . S
C817 C816 1.409 . S
C817 H839 0.930 . S
C818 O828 1.270 . S
C818 O829 1.248 . S
C819 O830 1.267 . S
C819 O831 1.278 . S
O820 Pr800 2.562 . S
O820 C802 1.254 . S
O821 Pr800 2.490 . S
O821 C802 1.225 . S
O822 Pr800 2.695 . S
O822 Pr801 2.436 . S
O822 C809 1.270 . S
O823 Pr800 2.512 . S
O823 C809 1.248 . S
O824 Pr801 2.438 . S
O824 C810 1.267 . S
O825 Pr800 2.437 . S
O825 C810 1.278 . S
O826 Pr801 2.562 . S
O826 C811 1.254 . S
O827 Pr801 2.490 . S
O827 C811 1.225 . S
O828 Pr800 2.436 . S
O828 Pr801 2.695 . S
O828 C818 1.270 . S
O829 Pr801 2.512 . S
O829 C818 1.248 . S
O830 Pr800 2.438 . S
O830 C819 1.267 . S
O831 Pr801 2.437 . S
O831 C819 1.278 . S
H832 C804 0.929 . S
H833 C805 0.929 . S
H834 C807 0.931 . S
H835 C808 0.930 . S
H836 C813 0.929 . S
H837 C814 0.929 . S
H838 C816 0.931 . S
H839 C817 0.930 . S
Pr840 C842 2.880 . S
Pr840 O860 2.562 . S
Pr840 O861 2.490 . S
Pr840 O862 2.695 1_455 S
Pr840 O863 2.512 1_455 S
Pr840 O865 2.437 1_455 S
Pr840 O868 2.436 1_455 S
Pr840 O870 2.438 . S
Pr841 C851 2.880 . S
Pr841 O862 2.436 . S
Pr841 O864 2.438 . S
Pr841 O866 2.562 . S
Pr841 O867 2.490 . S
Pr841 O868 2.695 . S
Pr841 O869 2.512 . S
Pr841 O871 2.437 . S
C842 Pr840 2.880 . S
C842 C843 1.491 . S
C842 O860 1.254 . S
C842 O861 1.225 . S
C843 C842 1.491 . S
C843 C844 1.392 . S
C843 C848 1.356 . S
C844 C843 1.392 . S
C844 C845 1.368 . S
C844 H872 0.929 . S
C845 C844 1.368 . S
C845 C846 1.386 . S
C845 H873 0.929 . S
C846 C845 1.386 . S
C846 C847 1.373 . S
C847 C846 1.373 . S
C847 C848 1.409 . S
C847 H874 0.931 . S
C848 C843 1.356 . S
C848 C847 1.409 . S
C848 H875 0.930 . S
C849 O862 1.270 . S
C849 O863 1.248 . S
C850 O864 1.267 . S
C850 O865 1.278 . S
C851 Pr841 2.880 . S
C851 C852 1.491 . S
C851 O866 1.254 . S
C851 O867 1.225 . S
C852 C851 1.491 . S
C852 C853 1.392 . S
C852 C857 1.356 . S
C853 C852 1.392 . S
C853 C854 1.368 . S
C853 H876 0.929 . S
C854 C853 1.368 . S
C854 C855 1.386 . S
C854 H877 0.929 . S
C855 C854 1.386 . S
C855 C856 1.373 . S
C856 C855 1.373 . S
C856 C857 1.409 . S
C856 H878 0.931 . S
C857 C852 1.356 . S
C857 C856 1.409 . S
C857 H879 0.930 . S
C858 O868 1.270 . S
C858 O869 1.248 . S
C859 O870 1.267 1_655 S
C859 O871 1.278 . S
O860 Pr840 2.562 . S
O860 C842 1.254 . S
O861 Pr840 2.490 . S
O861 C842 1.225 . S
O862 Pr840 2.695 1_655 S
O862 Pr841 2.436 . S
O862 C849 1.270 . S
O863 Pr840 2.512 1_655 S
O863 C849 1.248 . S
O864 Pr841 2.438 . S
O864 C850 1.267 . S
O865 Pr840 2.437 1_655 S
O865 C850 1.278 . S
O866 Pr841 2.562 . S
O866 C851 1.254 . S
O867 Pr841 2.490 . S
O867 C851 1.225 . S
O868 Pr840 2.436 1_655 S
O868 Pr841 2.695 . S
O868 C858 1.270 . S
O869 Pr841 2.512 . S
O869 C858 1.248 . S
O870 Pr840 2.438 . S
O870 C859 1.267 1_455 S
O871 Pr841 2.437 . S
O871 C859 1.278 . S
H872 C844 0.929 . S
H873 C845 0.929 . S
H874 C847 0.931 . S
H875 C848 0.930 . S
H876 C853 0.929 . S
H877 C854 0.929 . S
H878 C856 0.931 . S
H879 C857 0.930 . S
Pr880 C882 2.880 . S
Pr880 O900 2.562 . S
Pr880 O901 2.490 . S
Pr880 O902 2.695 . S
Pr880 O903 2.512 . S
Pr880 O905 2.437 . S
Pr880 O908 2.436 . S
Pr880 O910 2.438 . S
Pr881 C891 2.880 . S
Pr881 O902 2.436 . S
Pr881 O904 2.438 . S
Pr881 O906 2.562 . S
Pr881 O907 2.490 . S
Pr881 O908 2.695 . S
Pr881 O909 2.512 . S
Pr881 O911 2.437 . S
C882 Pr880 2.880 . S
C882 C883 1.491 . S
C882 O900 1.254 . S
C882 O901 1.225 . S
C883 C882 1.491 . S
C883 C884 1.392 . S
C883 C888 1.356 . S
C884 C883 1.392 . S
C884 C885 1.368 . S
C884 H912 0.929 . S
C885 C884 1.368 . S
C885 C886 1.386 . S
C885 H913 0.929 . S
C886 C885 1.386 . S
C886 C887 1.373 . S
C887 C886 1.373 . S
C887 C888 1.409 . S
C887 H914 0.931 . S
C888 C883 1.356 . S
C888 C887 1.409 . S
C888 H915 0.930 . S
C889 O902 1.270 . S
C889 O903 1.248 . S
C890 O904 1.267 . S
C890 O905 1.278 . S
C891 Pr881 2.880 . S
C891 C892 1.491 . S
C891 O906 1.254 . S
C891 O907 1.225 . S
C892 C891 1.491 . S
C892 C893 1.392 . S
C892 C897 1.356 . S
C893 C892 1.392 . S
C893 C894 1.368 . S
C893 H916 0.929 . S
C894 C893 1.368 . S
C894 C895 1.386 . S
C894 H917 0.929 . S
C895 C894 1.386 . S
C895 C896 1.373 . S
C896 C895 1.373 . S
C896 C897 1.409 . S
C896 H918 0.931 . S
C897 C892 1.356 . S
C897 C896 1.409 . S
C897 H919 0.930 . S
C898 O908 1.270 . S
C898 O909 1.248 . S
C899 O910 1.267 . S
C899 O911 1.278 . S
O900 Pr880 2.562 . S
O900 C882 1.254 . S
O901 Pr880 2.490 . S
O901 C882 1.225 . S
O902 Pr880 2.695 . S
O902 Pr881 2.436 . S
O902 C889 1.270 . S
O903 Pr880 2.512 . S
O903 C889 1.248 . S
O904 Pr881 2.438 . S
O904 C890 1.267 . S
O905 Pr880 2.437 . S
O905 C890 1.278 . S
O906 Pr881 2.562 . S
O906 C891 1.254 . S
O907 Pr881 2.490 . S
O907 C891 1.225 . S
O908 Pr880 2.436 . S
O908 Pr881 2.695 . S
O908 C898 1.270 . S
O909 Pr881 2.512 . S
O909 C898 1.248 . S
O910 Pr880 2.438 . S
O910 C899 1.267 . S
O911 Pr881 2.437 . S
O911 C899 1.278 . S
H912 C884 0.929 . S
H913 C885 0.929 . S
H914 C887 0.931 . S
H915 C888 0.930 . S
H916 C893 0.929 . S
H917 C894 0.929 . S
H918 C896 0.931 . S
H919 C897 0.930 . S
Pr920 C922 2.880 . S
Pr920 O940 2.562 . S
Pr920 O941 2.490 . S
Pr920 O942 2.695 . S
Pr920 O943 2.512 . S
Pr920 O945 2.437 . S
Pr920 O948 2.436 . S
Pr920 O950 2.438 . S
Pr921 C931 2.880 . S
Pr921 O942 2.436 . S
Pr921 O944 2.438 . S
Pr921 O946 2.562 . S
Pr921 O947 2.490 . S
Pr921 O948 2.695 . S
Pr921 O949 2.512 . S
Pr921 O951 2.437 . S
C922 Pr920 2.880 . S
C922 C923 1.491 . S
C922 O940 1.254 . S
C922 O941 1.225 . S
C923 C922 1.491 . S
C923 C924 1.392 . S
C923 C928 1.356 . S
C924 C923 1.392 . S
C924 C925 1.368 . S
C924 H952 0.929 . S
C925 C924 1.368 . S
C925 C926 1.386 . S
C925 H953 0.929 . S
C926 C925 1.386 . S
C926 C927 1.373 . S
C927 C926 1.373 . S
C927 C928 1.409 . S
C927 H954 0.931 . S
C928 C923 1.356 . S
C928 C927 1.409 . S
C928 H955 0.930 . S
C929 O942 1.270 . S
C929 O943 1.248 . S
C930 O944 1.267 . S
C930 O945 1.278 . S
C931 Pr921 2.880 . S
C931 C932 1.491 . S
C931 O946 1.254 . S
C931 O947 1.225 . S
C932 C931 1.491 . S
C932 C933 1.392 . S
C932 C937 1.356 . S
C933 C932 1.392 . S
C933 C934 1.368 . S
C933 H956 0.929 . S
C934 C933 1.368 . S
C934 C935 1.386 . S
C934 H957 0.929 . S
C935 C934 1.386 . S
C935 C936 1.373 . S
C936 C935 1.373 . S
C936 C937 1.409 . S
C936 H958 0.931 . S
C937 C932 1.356 . S
C937 C936 1.409 . S
C937 H959 0.930 . S
C938 O948 1.270 . S
C938 O949 1.248 . S
C939 O950 1.267 . S
C939 O951 1.278 . S
O940 Pr920 2.562 . S
O940 C922 1.254 . S
O941 Pr920 2.490 . S
O941 C922 1.225 . S
O942 Pr920 2.695 . S
O942 Pr921 2.436 . S
O942 C929 1.270 . S
O943 Pr920 2.512 . S
O943 C929 1.248 . S
O944 Pr921 2.438 . S
O944 C930 1.267 . S
O945 Pr920 2.437 . S
O945 C930 1.278 . S
O946 Pr921 2.562 . S
O946 C931 1.254 . S
O947 Pr921 2.490 . S
O947 C931 1.225 . S
O948 Pr920 2.436 . S
O948 Pr921 2.695 . S
O948 C938 1.270 . S
O949 Pr921 2.512 . S
O949 C938 1.248 . S
O950 Pr920 2.438 . S
O950 C939 1.267 . S
O951 Pr921 2.437 . S
O951 C939 1.278 . S
H952 C924 0.929 . S
H953 C925 0.929 . S
H954 C927 0.931 . S
H955 C928 0.930 . S
H956 C933 0.929 . S
H957 C934 0.929 . S
H958 C936 0.931 . S
H959 C937 0.930 . S
Pr960 C962 2.880 . S
Pr960 O980 2.562 . S
Pr960 O981 2.490 . S
Pr960 O982 2.695 . S
Pr960 O983 2.512 . S
Pr960 O985 2.437 . S
Pr960 O988 2.436 . S
Pr960 O990 2.438 . S
Pr961 C971 2.880 . S
Pr961 O982 2.436 . S
Pr961 O984 2.438 . S
Pr961 O986 2.562 . S
Pr961 O987 2.490 . S
Pr961 O988 2.695 . S
Pr961 O989 2.512 . S
Pr961 O991 2.437 . S
C962 Pr960 2.880 . S
C962 C963 1.491 . S
C962 O980 1.254 . S
C962 O981 1.225 . S
C963 C962 1.491 . S
C963 C964 1.392 . S
C963 C968 1.356 . S
C964 C963 1.392 . S
C964 C965 1.368 . S
C964 H992 0.929 . S
C965 C964 1.368 . S
C965 C966 1.386 . S
C965 H993 0.929 . S
C966 C965 1.386 . S
C966 C967 1.373 . S
C967 C966 1.373 . S
C967 C968 1.409 . S
C967 H994 0.931 . S
C968 C963 1.356 . S
C968 C967 1.409 . S
C968 H995 0.930 . S
C969 O982 1.270 . S
C969 O983 1.248 . S
C970 O984 1.267 . S
C970 O985 1.278 . S
C971 Pr961 2.880 . S
C971 C972 1.491 . S
C971 O986 1.254 . S
C971 O987 1.225 . S
C972 C971 1.491 . S
C972 C973 1.392 . S
C972 C977 1.356 . S
C973 C972 1.392 . S
C973 C974 1.368 . S
C973 H996 0.929 . S
C974 C973 1.368 . S
C974 C975 1.386 . S
C974 H997 0.929 . S
C975 C974 1.386 . S
C975 C976 1.373 . S
C976 C975 1.373 . S
C976 C977 1.409 . S
C976 H998 0.931 . S
C977 C972 1.356 . S
C977 C976 1.409 . S
C977 H999 0.930 . S
C978 O988 1.270 . S
C978 O989 1.248 . S
C979 O990 1.267 . S
C979 O991 1.278 . S
O980 Pr960 2.562 . S
O980 C962 1.254 . S
O981 Pr960 2.490 . S
O981 C962 1.225 . S
O982 Pr960 2.695 . S
O982 Pr961 2.436 . S
O982 C969 1.270 . S
O983 Pr960 2.512 . S
O983 C969 1.248 . S
O984 Pr961 2.438 . S
O984 C970 1.267 . S
O985 Pr960 2.437 . S
O985 C970 1.278 . S
O986 Pr961 2.562 . S
O986 C971 1.254 . S
O987 Pr961 2.490 . S
O987 C971 1.225 . S
O988 Pr960 2.436 . S
O988 Pr961 2.695 . S
O988 C978 1.270 . S
O989 Pr961 2.512 . S
O989 C978 1.248 . S
O990 Pr960 2.438 . S
O990 C979 1.267 . S
O991 Pr961 2.437 . S
O991 C979 1.278 . S
H992 C964 0.929 . S
H993 C965 0.929 . S
H994 C967 0.931 . S
H995 C968 0.930 . S
H996 C973 0.929 . S
H997 C974 0.929 . S
H998 C976 0.931 . S
H999 C977 0.930 . S
Pr1000 C1002 2.880 . S
Pr1000 O1020 2.562 . S
Pr1000 O1021 2.490 . S
Pr1000 O1022 2.695 . S
Pr1000 O1023 2.512 . S
Pr1000 O1025 2.437 . S
Pr1000 O1028 2.436 . S
Pr1000 O1030 2.438 . S
Pr1001 C1011 2.880 . S
Pr1001 O1022 2.436 . S
Pr1001 O1024 2.438 . S
Pr1001 O1026 2.562 . S
Pr1001 O1027 2.490 . S
Pr1001 O1028 2.695 . S
Pr1001 O1029 2.512 . S
Pr1001 O1031 2.437 . S
C1002 Pr1000 2.880 . S
C1002 C1003 1.491 . S
C1002 O1020 1.254 . S
C1002 O1021 1.225 . S
C1003 C1002 1.491 . S
C1003 C1004 1.392 . S
C1003 C1008 1.356 . S
C1004 C1003 1.392 . S
C1004 C1005 1.368 . S
C1004 H1032 0.929 . S
C1005 C1004 1.368 . S
C1005 C1006 1.386 . S
C1005 H1033 0.929 . S
C1006 C1005 1.386 . S
C1006 C1007 1.373 . S
C1007 C1006 1.373 . S
C1007 C1008 1.409 . S
C1007 H1034 0.931 . S
C1008 C1003 1.356 . S
C1008 C1007 1.409 . S
C1008 H1035 0.930 . S
C1009 O1022 1.270 . S
C1009 O1023 1.248 . S
C1010 O1024 1.267 . S
C1010 O1025 1.278 . S
C1011 Pr1001 2.880 . S
C1011 C1012 1.491 . S
C1011 O1026 1.254 . S
C1011 O1027 1.225 . S
C1012 C1011 1.491 . S
C1012 C1013 1.392 . S
C1012 C1017 1.356 . S
C1013 C1012 1.392 . S
C1013 C1014 1.368 . S
C1013 H1036 0.929 . S
C1014 C1013 1.368 . S
C1014 C1015 1.386 . S
C1014 H1037 0.929 . S
C1015 C1014 1.386 . S
C1015 C1016 1.373 . S
C1016 C1015 1.373 . S
C1016 C1017 1.409 . S
C1016 H1038 0.931 . S
C1017 C1012 1.356 . S
C1017 C1016 1.409 . S
C1017 H1039 0.930 . S
C1018 O1028 1.270 . S
C1018 O1029 1.248 . S
C1019 O1030 1.267 . S
C1019 O1031 1.278 . S
O1020 Pr1000 2.562 . S
O1020 C1002 1.254 . S
O1021 Pr1000 2.490 . S
O1021 C1002 1.225 . S
O1022 Pr1000 2.695 . S
O1022 Pr1001 2.436 . S
O1022 C1009 1.270 . S
O1023 Pr1000 2.512 . S
O1023 C1009 1.248 . S
O1024 Pr1001 2.438 . S
O1024 C1010 1.267 . S
O1025 Pr1000 2.437 . S
O1025 C1010 1.278 . S
O1026 Pr1001 2.562 . S
O1026 C1011 1.254 . S
O1027 Pr1001 2.490 . S
O1027 C1011 1.225 . S
O1028 Pr1000 2.436 . S
O1028 Pr1001 2.695 . S
O1028 C1018 1.270 . S
O1029 Pr1001 2.512 . S
O1029 C1018 1.248 . S
O1030 Pr1000 2.438 . S
O1030 C1019 1.267 . S
O1031 Pr1001 2.437 . S
O1031 C1019 1.278 . S
H1032 C1004 0.929 . S
H1033 C1005 0.929 . S
H1034 C1007 0.931 . S
H1035 C1008 0.930 . S
H1036 C1013 0.929 . S
H1037 C1014 0.929 . S
H1038 C1016 0.931 . S
H1039 C1017 0.930 . S
Pr1040 C1042 2.880 . S
Pr1040 O1060 2.562 . S
Pr1040 O1061 2.490 . S
Pr1040 O1062 2.695 . S
Pr1040 O1063 2.512 . S
Pr1040 O1065 2.437 . S
Pr1040 O1068 2.436 . S
Pr1040 O1070 2.438 . S
Pr1041 C1051 2.880 . S
Pr1041 O1062 2.436 . S
Pr1041 O1064 2.438 . S
Pr1041 O1066 2.562 . S
Pr1041 O1067 2.490 . S
Pr1041 O1068 2.695 . S
Pr1041 O1069 2.512 . S
Pr1041 O1071 2.437 . S
C1042 Pr1040 2.880 . S
C1042 C1043 1.491 . S
C1042 O1060 1.254 . S
C1042 O1061 1.225 . S
C1043 C1042 1.491 . S
C1043 C1044 1.392 . S
C1043 C1048 1.356 . S
C1044 C1043 1.392 . S
C1044 C1045 1.368 . S
C1044 H1072 0.929 . S
C1045 C1044 1.368 . S
C1045 C1046 1.386 . S
C1045 H1073 0.929 . S
C1046 C1045 1.386 . S
C1046 C1047 1.373 . S
C1047 C1046 1.373 . S
C1047 C1048 1.409 . S
C1047 H1074 0.931 . S
C1048 C1043 1.356 . S
C1048 C1047 1.409 . S
C1048 H1075 0.930 . S
C1049 O1062 1.270 . S
C1049 O1063 1.248 . S
C1050 O1064 1.267 . S
C1050 O1065 1.278 . S
C1051 Pr1041 2.880 . S
C1051 C1052 1.491 . S
C1051 O1066 1.254 . S
C1051 O1067 1.225 . S
C1052 C1051 1.491 . S
C1052 C1053 1.392 . S
C1052 C1057 1.356 . S
C1053 C1052 1.392 . S
C1053 C1054 1.368 . S
C1053 H1076 0.929 . S
C1054 C1053 1.368 . S
C1054 C1055 1.386 . S
C1054 H1077 0.929 . S
C1055 C1054 1.386 . S
C1055 C1056 1.373 . S
C1056 C1055 1.373 . S
C1056 C1057 1.409 . S
C1056 H1078 0.931 . S
C1057 C1052 1.356 . S
C1057 C1056 1.409 . S
C1057 H1079 0.930 . S
C1058 O1068 1.270 . S
C1058 O1069 1.248 . S
C1059 O1070 1.267 . S
C1059 O1071 1.278 . S
O1060 Pr1040 2.562 . S
O1060 C1042 1.254 . S
O1061 Pr1040 2.490 . S
O1061 C1042 1.225 . S
O1062 Pr1040 2.695 . S
O1062 Pr1041 2.436 . S
O1062 C1049 1.270 . S
O1063 Pr1040 2.512 . S
O1063 C1049 1.248 . S
O1064 Pr1041 2.438 . S
O1064 C1050 1.267 . S
O1065 Pr1040 2.437 . S
O1065 C1050 1.278 . S
O1066 Pr1041 2.562 . S
O1066 C1051 1.254 . S
O1067 Pr1041 2.490 . S
O1067 C1051 1.225 . S
O1068 Pr1040 2.436 . S
O1068 Pr1041 2.695 . S
O1068 C1058 1.270 . S
O1069 Pr1041 2.512 . S
O1069 C1058 1.248 . S
O1070 Pr1040 2.438 . S
O1070 C1059 1.267 . S
O1071 Pr1041 2.437 . S
O1071 C1059 1.278 . S
H1072 C1044 0.929 . S
H1073 C1045 0.929 . S
H1074 C1047 0.931 . S
H1075 C1048 0.930 . S
H1076 C1053 0.929 . S
H1077 C1054 0.929 . S
H1078 C1056 0.931 . S
H1079 C1057 0.930 . S
Pr1080 C1082 2.880 . S
Pr1080 O1100 2.562 . S
Pr1080 O1101 2.490 . S
Pr1080 O1102 2.695 . S
Pr1080 O1103 2.512 . S
Pr1080 O1105 2.437 . S
Pr1080 O1108 2.436 . S
Pr1080 O1110 2.438 . S
Pr1081 C1091 2.880 . S
Pr1081 O1102 2.436 1_655 S
Pr1081 O1104 2.438 . S
Pr1081 O1106 2.562 . S
Pr1081 O1107 2.490 . S
Pr1081 O1108 2.695 1_655 S
Pr1081 O1109 2.512 1_655 S
Pr1081 O1111 2.437 1_655 S
C1082 Pr1080 2.880 . S
C1082 C1083 1.491 . S
C1082 O1100 1.254 . S
C1082 O1101 1.225 . S
C1083 C1082 1.491 . S
C1083 C1084 1.392 . S
C1083 C1088 1.356 . S
C1084 C1083 1.392 . S
C1084 C1085 1.368 . S
C1084 H1112 0.929 . S
C1085 C1084 1.368 . S
C1085 C1086 1.386 . S
C1085 H1113 0.929 . S
C1086 C1085 1.386 . S
C1086 C1087 1.373 . S
C1087 C1086 1.373 . S
C1087 C1088 1.409 . S
C1087 H1114 0.931 . S
C1088 C1083 1.356 . S
C1088 C1087 1.409 . S
C1088 H1115 0.930 . S
C1089 O1102 1.270 . S
C1089 O1103 1.248 . S
C1090 O1104 1.267 1_455 S
C1090 O1105 1.278 . S
C1091 Pr1081 2.880 . S
C1091 C1092 1.491 . S
C1091 O1106 1.254 . S
C1091 O1107 1.225 . S
C1092 C1091 1.491 . S
C1092 C1093 1.392 . S
C1092 C1097 1.356 . S
C1093 C1092 1.392 . S
C1093 C1094 1.368 . S
C1093 H1116 0.929 . S
C1094 C1093 1.368 . S
C1094 C1095 1.386 . S
C1094 H1117 0.929 . S
C1095 C1094 1.386 . S
C1095 C1096 1.373 . S
C1096 C1095 1.373 . S
C1096 C1097 1.409 . S
C1096 H1118 0.931 . S
C1097 C1092 1.356 . S
C1097 C1096 1.409 . S
C1097 H1119 0.930 . S
C1098 O1108 1.270 . S
C1098 O1109 1.248 . S
C1099 O1110 1.267 . S
C1099 O1111 1.278 . S
O1100 Pr1080 2.562 . S
O1100 C1082 1.254 . S
O1101 Pr1080 2.490 . S
O1101 C1082 1.225 . S
O1102 Pr1080 2.695 . S
O1102 Pr1081 2.436 1_455 S
O1102 C1089 1.270 . S
O1103 Pr1080 2.512 . S
O1103 C1089 1.248 . S
O1104 Pr1081 2.438 . S
O1104 C1090 1.267 1_655 S
O1105 Pr1080 2.437 . S
O1105 C1090 1.278 . S
O1106 Pr1081 2.562 . S
O1106 C1091 1.254 . S
O1107 Pr1081 2.490 . S
O1107 C1091 1.225 . S
O1108 Pr1080 2.436 . S
O1108 Pr1081 2.695 1_455 S
O1108 C1098 1.270 . S
O1109 Pr1081 2.512 1_455 S
O1109 C1098 1.248 . S
O1110 Pr1080 2.438 . S
O1110 C1099 1.267 . S
O1111 Pr1081 2.437 1_455 S
O1111 C1099 1.278 . S
H1112 C1084 0.929 . S
H1113 C1085 0.929 . S
H1114 C1087 0.931 . S
H1115 C1088 0.930 . S
H1116 C1093 0.929 . S
H1117 C1094 0.929 . S
H1118 C1096 0.931 . S
H1119 C1097 0.930 . S
Pr1120 C1122 2.880 . S
Pr1120 O1140 2.562 . S
Pr1120 O1141 2.490 . S
Pr1120 O1142 2.695 . S
Pr1120 O1143 2.512 . S
Pr1120 O1145 2.437 . S
Pr1120 O1148 2.436 . S
Pr1120 O1150 2.438 . S
Pr1121 C1131 2.880 . S
Pr1121 O1142 2.436 . S
Pr1121 O1144 2.438 . S
Pr1121 O1146 2.562 . S
Pr1121 O1147 2.490 . S
Pr1121 O1148 2.695 . S
Pr1121 O1149 2.512 . S
Pr1121 O1151 2.437 . S
C1122 Pr1120 2.880 . S
C1122 C1123 1.491 . S
C1122 O1140 1.254 . S
C1122 O1141 1.225 . S
C1123 C1122 1.491 . S
C1123 C1124 1.392 . S
C1123 C1128 1.356 . S
C1124 C1123 1.392 . S
C1124 C1125 1.368 . S
C1124 H1152 0.929 . S
C1125 C1124 1.368 . S
C1125 C1126 1.386 . S
C1125 H1153 0.929 . S
C1126 C1125 1.386 . S
C1126 C1127 1.373 . S
C1127 C1126 1.373 . S
C1127 C1128 1.409 . S
C1127 H1154 0.931 . S
C1128 C1123 1.356 . S
C1128 C1127 1.409 . S
C1128 H1155 0.930 . S
C1129 O1142 1.270 . S
C1129 O1143 1.248 . S
C1130 O1144 1.267 . S
C1130 O1145 1.278 . S
C1131 Pr1121 2.880 . S
C1131 C1132 1.491 . S
C1131 O1146 1.254 . S
C1131 O1147 1.225 . S
C1132 C1131 1.491 . S
C1132 C1133 1.392 . S
C1132 C1137 1.356 . S
C1133 C1132 1.392 . S
C1133 C1134 1.368 . S
C1133 H1156 0.929 . S
C1134 C1133 1.368 . S
C1134 C1135 1.386 . S
C1134 H1157 0.929 . S
C1135 C1134 1.386 . S
C1135 C1136 1.373 . S
C1136 C1135 1.373 . S
C1136 C1137 1.409 . S
C1136 H1158 0.931 . S
C1137 C1132 1.356 . S
C1137 C1136 1.409 . S
C1137 H1159 0.930 . S
C1138 O1148 1.270 . S
C1138 O1149 1.248 . S
C1139 O1150 1.267 . S
C1139 O1151 1.278 . S
O1140 Pr1120 2.562 . S
O1140 C1122 1.254 . S
O1141 Pr1120 2.490 . S
O1141 C1122 1.225 . S
O1142 Pr1120 2.695 . S
O1142 Pr1121 2.436 . S
O1142 C1129 1.270 . S
O1143 Pr1120 2.512 . S
O1143 C1129 1.248 . S
O1144 Pr1121 2.438 . S
O1144 C1130 1.267 . S
O1145 Pr1120 2.437 . S
O1145 C1130 1.278 . S
O1146 Pr1121 2.562 . S
O1146 C1131 1.254 . S
O1147 Pr1121 2.490 . S
O1147 C1131 1.225 . S
O1148 Pr1120 2.436 . S
O1148 Pr1121 2.695 . S
O1148 C1138 1.270 . S
O1149 Pr1121 2.512 . S
O1149 C1138 1.248 . S
O1150 Pr1120 2.438 . S
O1150 C1139 1.267 . S
O1151 Pr1121 2.437 . S
O1151 C1139 1.278 . S
H1152 C1124 0.929 . S
H1153 C1125 0.929 . S
H1154 C1127 0.931 . S
H1155 C1128 0.930 . S
H1156 C1133 0.929 . S
H1157 C1134 0.929 . S
H1158 C1136 0.931 . S
H1159 C1137 0.930 . S
Pr1160 C1162 2.880 . S
Pr1160 O1180 2.562 . S
Pr1160 O1181 2.490 . S
Pr1160 O1182 2.695 . S
Pr1160 O1183 2.512 . S
Pr1160 O1185 2.437 . S
Pr1160 O1188 2.436 . S
Pr1160 O1190 2.438 . S
Pr1161 C1171 2.880 . S
Pr1161 O1182 2.436 1_655 S
Pr1161 O1184 2.438 . S
Pr1161 O1186 2.562 . S
Pr1161 O1187 2.490 . S
Pr1161 O1188 2.695 1_655 S
Pr1161 O1189 2.512 1_655 S
Pr1161 O1191 2.437 1_655 S
C1162 Pr1160 2.880 . S
C1162 C1163 1.491 . S
C1162 O1180 1.254 . S
C1162 O1181 1.225 . S
C1163 C1162 1.491 . S
C1163 C1164 1.392 . S
C1163 C1168 1.356 . S
C1164 C1163 1.392 . S
C1164 C1165 1.368 . S
C1164 H1192 0.929 . S
C1165 C1164 1.368 . S
C1165 C1166 1.386 . S
C1165 H1193 0.929 . S
C1166 C1165 1.386 . S
C1166 C1167 1.373 . S
C1167 C1166 1.373 . S
C1167 C1168 1.409 . S
C1167 H1194 0.931 . S
C1168 C1163 1.356 . S
C1168 C1167 1.409 . S
C1168 H1195 0.930 . S
C1169 O1182 1.270 . S
C1169 O1183 1.248 . S
C1170 O1184 1.267 1_455 S
C1170 O1185 1.278 . S
C1171 Pr1161 2.880 . S
C1171 C1172 1.491 . S
C1171 O1186 1.254 . S
C1171 O1187 1.225 . S
C1172 C1171 1.491 . S
C1172 C1173 1.392 . S
C1172 C1177 1.356 . S
C1173 C1172 1.392 . S
C1173 C1174 1.368 . S
C1173 H1196 0.929 . S
C1174 C1173 1.368 . S
C1174 C1175 1.386 . S
C1174 H1197 0.929 . S
C1175 C1174 1.386 . S
C1175 C1176 1.373 . S
C1176 C1175 1.373 . S
C1176 C1177 1.409 . S
C1176 H1198 0.931 . S
C1177 C1172 1.356 . S
C1177 C1176 1.409 . S
C1177 H1199 0.930 . S
C1178 O1188 1.270 . S
C1178 O1189 1.248 . S
C1179 O1190 1.267 . S
C1179 O1191 1.278 . S
O1180 Pr1160 2.562 . S
O1180 C1162 1.254 . S
O1181 Pr1160 2.490 . S
O1181 C1162 1.225 . S
O1182 Pr1160 2.695 . S
O1182 Pr1161 2.436 1_455 S
O1182 C1169 1.270 . S
O1183 Pr1160 2.512 . S
O1183 C1169 1.248 . S
O1184 Pr1161 2.438 . S
O1184 C1170 1.267 1_655 S
O1185 Pr1160 2.437 . S
O1185 C1170 1.278 . S
O1186 Pr1161 2.562 . S
O1186 C1171 1.254 . S
O1187 Pr1161 2.490 . S
O1187 C1171 1.225 . S
O1188 Pr1160 2.436 . S
O1188 Pr1161 2.695 1_455 S
O1188 C1178 1.270 . S
O1189 Pr1161 2.512 1_455 S
O1189 C1178 1.248 . S
O1190 Pr1160 2.438 . S
O1190 C1179 1.267 . S
O1191 Pr1161 2.437 1_455 S
O1191 C1179 1.278 . S
H1192 C1164 0.929 . S
H1193 C1165 0.929 . S
H1194 C1167 0.931 . S
H1195 C1168 0.930 . S
H1196 C1173 0.929 . S
H1197 C1174 0.929 . S
H1198 C1176 0.931 . S
H1199 C1177 0.930 . S
Pr1200 C1202 2.880 . S
Pr1200 O1220 2.562 . S
Pr1200 O1221 2.490 . S
Pr1200 O1222 2.695 . S
Pr1200 O1223 2.512 . S
Pr1200 O1225 2.437 . S
Pr1200 O1228 2.436 . S
Pr1200 O1230 2.438 . S
Pr1201 C1211 2.880 . S
Pr1201 O1222 2.436 . S
Pr1201 O1224 2.438 . S
Pr1201 O1226 2.562 . S
Pr1201 O1227 2.490 . S
Pr1201 O1228 2.695 . S
Pr1201 O1229 2.512 . S
Pr1201 O1231 2.437 . S
C1202 Pr1200 2.880 . S
C1202 C1203 1.491 . S
C1202 O1220 1.254 . S
C1202 O1221 1.225 . S
C1203 C1202 1.491 . S
C1203 C1204 1.392 . S
C1203 C1208 1.356 . S
C1204 C1203 1.392 . S
C1204 C1205 1.368 . S
C1204 H1232 0.929 . S
C1205 C1204 1.368 . S
C1205 C1206 1.386 . S
C1205 H1233 0.929 . S
C1206 C1205 1.386 . S
C1206 C1207 1.373 . S
C1207 C1206 1.373 . S
C1207 C1208 1.409 . S
C1207 H1234 0.931 . S
C1208 C1203 1.356 . S
C1208 C1207 1.409 . S
C1208 H1235 0.930 . S
C1209 O1222 1.270 . S
C1209 O1223 1.248 . S
C1210 O1224 1.267 . S
C1210 O1225 1.278 . S
C1211 Pr1201 2.880 . S
C1211 C1212 1.491 . S
C1211 O1226 1.254 . S
C1211 O1227 1.225 . S
C1212 C1211 1.491 . S
C1212 C1213 1.392 . S
C1212 C1217 1.356 . S
C1213 C1212 1.392 . S
C1213 C1214 1.368 . S
C1213 H1236 0.929 . S
C1214 C1213 1.368 . S
C1214 C1215 1.386 . S
C1214 H1237 0.929 . S
C1215 C1214 1.386 . S
C1215 C1216 1.373 . S
C1216 C1215 1.373 . S
C1216 C1217 1.409 . S
C1216 H1238 0.931 . S
C1217 C1212 1.356 . S
C1217 C1216 1.409 . S
C1217 H1239 0.930 . S
C1218 O1228 1.270 . S
C1218 O1229 1.248 . S
C1219 O1230 1.267 . S
C1219 O1231 1.278 . S
O1220 Pr1200 2.562 . S
O1220 C1202 1.254 . S
O1221 Pr1200 2.490 . S
O1221 C1202 1.225 . S
O1222 Pr1200 2.695 . S
O1222 Pr1201 2.436 . S
O1222 C1209 1.270 . S
O1223 Pr1200 2.512 . S
O1223 C1209 1.248 . S
O1224 Pr1201 2.438 . S
O1224 C1210 1.267 . S
O1225 Pr1200 2.437 . S
O1225 C1210 1.278 . S
O1226 Pr1201 2.562 . S
O1226 C1211 1.254 . S
O1227 Pr1201 2.490 . S
O1227 C1211 1.225 . S
O1228 Pr1200 2.436 . S
O1228 Pr1201 2.695 . S
O1228 C1218 1.270 . S
O1229 Pr1201 2.512 . S
O1229 C1218 1.248 . S
O1230 Pr1200 2.438 . S
O1230 C1219 1.267 . S
O1231 Pr1201 2.437 . S
O1231 C1219 1.278 . S
H1232 C1204 0.929 . S
H1233 C1205 0.929 . S
H1234 C1207 0.931 . S
H1235 C1208 0.930 . S
H1236 C1213 0.929 . S
H1237 C1214 0.929 . S
H1238 C1216 0.931 . S
H1239 C1217 0.930 . S
Pr1240 C1242 2.880 . S
Pr1240 O1260 2.562 . S
Pr1240 O1261 2.490 . S
Pr1240 O1262 2.695 . S
Pr1240 O1263 2.512 . S
Pr1240 O1265 2.437 . S
Pr1240 O1268 2.436 . S
Pr1240 O1270 2.438 . S
Pr1241 C1251 2.880 . S
Pr1241 O1262 2.436 . S
Pr1241 O1264 2.438 . S
Pr1241 O1266 2.562 . S
Pr1241 O1267 2.490 . S
Pr1241 O1268 2.695 . S
Pr1241 O1269 2.512 . S
Pr1241 O1271 2.437 . S
C1242 Pr1240 2.880 . S
C1242 C1243 1.491 . S
C1242 O1260 1.254 . S
C1242 O1261 1.225 . S
C1243 C1242 1.491 . S
C1243 C1244 1.392 . S
C1243 C1248 1.356 . S
C1244 C1243 1.392 . S
C1244 C1245 1.368 . S
C1244 H1272 0.929 . S
C1245 C1244 1.368 . S
C1245 C1246 1.386 . S
C1245 H1273 0.929 . S
C1246 C1245 1.386 . S
C1246 C1247 1.373 . S
C1247 C1246 1.373 . S
C1247 C1248 1.409 . S
C1247 H1274 0.931 . S
C1248 C1243 1.356 . S
C1248 C1247 1.409 . S
C1248 H1275 0.930 . S
C1249 O1262 1.270 . S
C1249 O1263 1.248 . S
C1250 O1264 1.267 . S
C1250 O1265 1.278 . S
C1251 Pr1241 2.880 . S
C1251 C1252 1.491 . S
C1251 O1266 1.254 . S
C1251 O1267 1.225 . S
C1252 C1251 1.491 . S
C1252 C1253 1.392 . S
C1252 C1257 1.356 . S
C1253 C1252 1.392 . S
C1253 C1254 1.368 . S
C1253 H1276 0.929 . S
C1254 C1253 1.368 . S
C1254 C1255 1.386 . S
C1254 H1277 0.929 . S
C1255 C1254 1.386 . S
C1255 C1256 1.373 . S
C1256 C1255 1.373 . S
C1256 C1257 1.409 . S
C1256 H1278 0.931 . S
C1257 C1252 1.356 . S
C1257 C1256 1.409 . S
C1257 H1279 0.930 . S
C1258 O1268 1.270 . S
C1258 O1269 1.248 . S
C1259 O1270 1.267 . S
C1259 O1271 1.278 . S
O1260 Pr1240 2.562 . S
O1260 C1242 1.254 . S
O1261 Pr1240 2.490 . S
O1261 C1242 1.225 . S
O1262 Pr1240 2.695 . S
O1262 Pr1241 2.436 . S
O1262 C1249 1.270 . S
O1263 Pr1240 2.512 . S
O1263 C1249 1.248 . S
O1264 Pr1241 2.438 . S
O1264 C1250 1.267 . S
O1265 Pr1240 2.437 . S
O1265 C1250 1.278 . S
O1266 Pr1241 2.562 . S
O1266 C1251 1.254 . S
O1267 Pr1241 2.490 . S
O1267 C1251 1.225 . S
O1268 Pr1240 2.436 . S
O1268 Pr1241 2.695 . S
O1268 C1258 1.270 . S
O1269 Pr1241 2.512 . S
O1269 C1258 1.248 . S
O1270 Pr1240 2.438 . S
O1270 C1259 1.267 . S
O1271 Pr1241 2.437 . S
O1271 C1259 1.278 . S
H1272 C1244 0.929 . S
H1273 C1245 0.929 . S
H1274 C1247 0.931 . S
H1275 C1248 0.930 . S
H1276 C1253 0.929 . S
H1277 C1254 0.929 . S
H1278 C1256 0.931 . S
H1279 C1257 0.930 . S
C1280 C1281 1.369 . S
C1280 C1282 1.419 . S
C1280 H1284 0.930 . S
C1281 C1280 1.369 . S
C1281 C1290 1.429 . S
C1282 C1280 1.419 . S
C1282 C1283 1.363 . S
C1282 H1285 0.929 . S
C1283 C1282 1.363 . S
C1283 C1289 1.428 . S
H1284 C1280 0.930 . S
H1285 C1282 0.929 . S
S1286 N1287 1.613 . S
S1286 N1288 1.610 . S
N1287 S1286 1.613 . S
N1287 C1290 1.350 . S
N1288 S1286 1.610 . S
N1288 C1289 1.351 . S
C1289 C1283 1.428 . S
C1289 N1288 1.351 . S
C1289 C1290 1.434 . S
C1290 C1281 1.429 . S
C1290 N1287 1.350 . S
C1290 C1289 1.434 . S
C1291 C1292 1.369 . S
C1291 C1293 1.419 . S
C1291 H1295 0.930 . S
C1292 C1291 1.369 . S
C1292 C1301 1.429 . S
C1293 C1291 1.419 . S
C1293 C1294 1.363 . S
C1293 H1296 0.929 . S
C1294 C1293 1.363 . S
C1294 C1300 1.428 . S
H1295 C1291 0.930 . S
H1296 C1293 0.929 . S
S1297 N1298 1.613 . S
S1297 N1299 1.610 . S
N1298 S1297 1.613 . S
N1298 C1301 1.350 . S
N1299 S1297 1.610 . S
N1299 C1300 1.351 . S
C1300 C1294 1.428 . S
C1300 N1299 1.351 . S
C1300 C1301 1.434 . S
C1301 C1292 1.429 . S
C1301 N1298 1.350 . S
C1301 C1300 1.434 . S
C1302 C1303 1.369 . S
C1302 C1304 1.419 . S
C1302 H1306 0.930 . S
C1303 C1302 1.369 . S
C1303 C1312 1.429 . S
C1304 C1302 1.419 . S
C1304 C1305 1.363 . S
C1304 H1307 0.929 . S
C1305 C1304 1.363 . S
C1305 C1311 1.428 . S
H1306 C1302 0.930 . S
H1307 C1304 0.929 . S
S1308 N1309 1.613 . S
S1308 N1310 1.610 . S
N1309 S1308 1.613 . S
N1309 C1312 1.350 . S
N1310 S1308 1.610 . S
N1310 C1311 1.351 . S
C1311 C1305 1.428 . S
C1311 N1310 1.351 . S
C1311 C1312 1.434 . S
C1312 C1303 1.429 . S
C1312 N1309 1.350 . S
C1312 C1311 1.434 . S
C1313 C1314 1.369 . S
C1313 C1315 1.419 . S
C1313 H1317 0.930 . S
C1314 C1313 1.369 . S
C1314 C1323 1.429 . S
C1315 C1313 1.419 . S
C1315 C1316 1.363 . S
C1315 H1318 0.929 . S
C1316 C1315 1.363 . S
C1316 C1322 1.428 . S
H1317 C1313 0.930 . S
H1318 C1315 0.929 . S
S1319 N1320 1.613 . S
S1319 N1321 1.610 . S
N1320 S1319 1.613 . S
N1320 C1323 1.350 . S
N1321 S1319 1.610 . S
N1321 C1322 1.351 . S
C1322 C1316 1.428 . S
C1322 N1321 1.351 . S
C1322 C1323 1.434 . S
C1323 C1314 1.429 . S
C1323 N1320 1.350 . S
C1323 C1322 1.434 . S
C1324 C1325 1.369 . S
C1324 C1326 1.419 . S
C1324 H1328 0.930 . S
C1325 C1324 1.369 . S
C1325 C1334 1.429 . S
C1326 C1324 1.419 . S
C1326 C1327 1.363 . S
C1326 H1329 0.929 . S
C1327 C1326 1.363 . S
C1327 C1333 1.428 . S
H1328 C1324 0.930 . S
H1329 C1326 0.929 . S
S1330 N1331 1.613 . S
S1330 N1332 1.610 . S
N1331 S1330 1.613 . S
N1331 C1334 1.350 . S
N1332 S1330 1.610 . S
N1332 C1333 1.351 . S
C1333 C1327 1.428 . S
C1333 N1332 1.351 . S
C1333 C1334 1.434 . S
C1334 C1325 1.429 . S
C1334 N1331 1.350 . S
C1334 C1333 1.434 . S
C1335 C1336 1.369 . S
C1335 C1337 1.419 . S
C1335 H1339 0.930 . S
C1336 C1335 1.369 . S
C1336 C1345 1.429 . S
C1337 C1335 1.419 . S
C1337 C1338 1.363 . S
C1337 H1340 0.929 . S
C1338 C1337 1.363 . S
C1338 C1344 1.428 . S
H1339 C1335 0.930 . S
H1340 C1337 0.929 . S
S1341 N1342 1.613 . S
S1341 N1343 1.610 . S
N1342 S1341 1.613 . S
N1342 C1345 1.350 . S
N1343 S1341 1.610 . S
N1343 C1344 1.351 . S
C1344 C1338 1.428 . S
C1344 N1343 1.351 . S
C1344 C1345 1.434 . S
C1345 C1336 1.429 . S
C1345 N1342 1.350 . S
C1345 C1344 1.434 . S
C1346 C1347 1.369 . S
C1346 C1348 1.419 . S
C1346 H1350 0.930 . S
C1347 C1346 1.369 . S
C1347 C1356 1.429 . S
C1348 C1346 1.419 . S
C1348 C1349 1.363 . S
C1348 H1351 0.929 . S
C1349 C1348 1.363 . S
C1349 C1355 1.428 . S
H1350 C1346 0.930 . S
H1351 C1348 0.929 . S
S1352 N1353 1.613 . S
S1352 N1354 1.610 . S
N1353 S1352 1.613 . S
N1353 C1356 1.350 . S
N1354 S1352 1.610 . S
N1354 C1355 1.351 . S
C1355 C1349 1.428 . S
C1355 N1354 1.351 . S
C1355 C1356 1.434 . S
C1356 C1347 1.429 . S
C1356 N1353 1.350 . S
C1356 C1355 1.434 . S
C1357 C1358 1.369 . S
C1357 C1359 1.419 . S
C1357 H1361 0.930 . S
C1358 C1357 1.369 . S
C1358 C1367 1.429 . S
C1359 C1357 1.419 . S
C1359 C1360 1.363 . S
C1359 H1362 0.929 . S
C1360 C1359 1.363 . S
C1360 C1366 1.428 . S
H1361 C1357 0.930 . S
H1362 C1359 0.929 . S
S1363 N1364 1.613 . S
S1363 N1365 1.610 . S
N1364 S1363 1.613 . S
N1364 C1367 1.350 . S
N1365 S1363 1.610 . S
N1365 C1366 1.351 . S
C1366 C1360 1.428 . S
C1366 N1365 1.351 . S
C1366 C1367 1.434 . S
C1367 C1358 1.429 . S
C1367 N1364 1.350 . S
C1367 C1366 1.434 . S
C1368 C1369 1.369 . S
C1368 C1370 1.419 . S
C1368 H1372 0.930 . S
C1369 C1368 1.369 . S
C1369 C1378 1.429 . S
C1370 C1368 1.419 . S
C1370 C1371 1.363 . S
C1370 H1373 0.929 . S
C1371 C1370 1.363 . S
C1371 C1377 1.428 . S
H1372 C1368 0.930 . S
H1373 C1370 0.929 . S
S1374 N1375 1.613 . S
S1374 N1376 1.610 . S
N1375 S1374 1.613 . S
N1375 C1378 1.350 . S
N1376 S1374 1.610 . S
N1376 C1377 1.351 . S
C1377 C1371 1.428 . S
C1377 N1376 1.351 . S
C1377 C1378 1.434 . S
C1378 C1369 1.429 . S
C1378 N1375 1.350 . S
C1378 C1377 1.434 . S
C1379 C1380 1.369 . S
C1379 C1381 1.419 . S
C1379 H1383 0.930 . S
C1380 C1379 1.369 . S
C1380 C1389 1.429 . S
C1381 C1379 1.419 . S
C1381 C1382 1.363 . S
C1381 H1384 0.929 . S
C1382 C1381 1.363 . S
C1382 C1388 1.428 . S
H1383 C1379 0.930 . S
H1384 C1381 0.929 . S
S1385 N1386 1.613 . S
S1385 N1387 1.610 . S
N1386 S1385 1.613 . S
N1386 C1389 1.350 . S
N1387 S1385 1.610 . S
N1387 C1388 1.351 . S
C1388 C1382 1.428 . S
C1388 N1387 1.351 . S
C1388 C1389 1.434 . S
C1389 C1380 1.429 . S
C1389 N1386 1.350 . S
C1389 C1388 1.434 . S
C1390 C1391 1.369 . S
C1390 C1392 1.419 . S
C1390 H1394 0.930 . S
C1391 C1390 1.369 . S
C1391 C1400 1.429 . S
C1392 C1390 1.419 . S
C1392 C1393 1.363 . S
C1392 H1395 0.929 . S
C1393 C1392 1.363 . S
C1393 C1399 1.428 . S
H1394 C1390 0.930 . S
H1395 C1392 0.929 . S
S1396 N1397 1.613 . S
S1396 N1398 1.610 . S
N1397 S1396 1.613 . S
N1397 C1400 1.350 . S
N1398 S1396 1.610 . S
N1398 C1399 1.351 . S
C1399 C1393 1.428 . S
C1399 N1398 1.351 . S
C1399 C1400 1.434 . S
C1400 C1391 1.429 . S
C1400 N1397 1.350 . S
C1400 C1399 1.434 . S
C1401 C1402 1.369 . S
C1401 C1403 1.419 . S
C1401 H1405 0.930 . S
C1402 C1401 1.369 . S
C1402 C1411 1.429 . S
C1403 C1401 1.419 . S
C1403 C1404 1.363 . S
C1403 H1406 0.929 . S
C1404 C1403 1.363 . S
C1404 C1410 1.428 . S
H1405 C1401 0.930 . S
H1406 C1403 0.929 . S
S1407 N1408 1.613 . S
S1407 N1409 1.610 . S
N1408 S1407 1.613 . S
N1408 C1411 1.350 . S
N1409 S1407 1.610 . S
N1409 C1410 1.351 . S
C1410 C1404 1.428 . S
C1410 N1409 1.351 . S
C1410 C1411 1.434 . S
C1411 C1402 1.429 . S
C1411 N1408 1.350 . S
C1411 C1410 1.434 . S
C1412 C1413 1.369 . S
C1412 C1414 1.419 . S
C1412 H1416 0.930 . S
C1413 C1412 1.369 . S
C1413 C1422 1.429 . S
C1414 C1412 1.419 . S
C1414 C1415 1.363 . S
C1414 H1417 0.929 . S
C1415 C1414 1.363 . S
C1415 C1421 1.428 . S
H1416 C1412 0.930 . S
H1417 C1414 0.929 . S
S1418 N1419 1.613 . S
S1418 N1420 1.610 . S
N1419 S1418 1.613 . S
N1419 C1422 1.350 . S
N1420 S1418 1.610 . S
N1420 C1421 1.351 . S
C1421 C1415 1.428 . S
C1421 N1420 1.351 . S
C1421 C1422 1.434 . S
C1422 C1413 1.429 . S
C1422 N1419 1.350 . S
C1422 C1421 1.434 . S
C1423 C1424 1.369 . S
C1423 C1425 1.419 . S
C1423 H1427 0.930 . S
C1424 C1423 1.369 . S
C1424 C1433 1.429 . S
C1425 C1423 1.419 . S
C1425 C1426 1.363 . S
C1425 H1428 0.929 . S
C1426 C1425 1.363 . S
C1426 C1432 1.428 . S
H1427 C1423 0.930 . S
H1428 C1425 0.929 . S
S1429 N1430 1.613 . S
S1429 N1431 1.610 . S
N1430 S1429 1.613 . S
N1430 C1433 1.350 . S
N1431 S1429 1.610 . S
N1431 C1432 1.351 . S
C1432 C1426 1.428 . S
C1432 N1431 1.351 . S
C1432 C1433 1.434 . S
C1433 C1424 1.429 . S
C1433 N1430 1.350 . S
C1433 C1432 1.434 . S
C1434 C1435 1.369 . S
C1434 C1436 1.419 . S
C1434 H1438 0.930 . S
C1435 C1434 1.369 . S
C1435 C1444 1.429 . S
C1436 C1434 1.419 . S
C1436 C1437 1.363 . S
C1436 H1439 0.929 . S
C1437 C1436 1.363 . S
C1437 C1443 1.428 . S
H1438 C1434 0.930 . S
H1439 C1436 0.929 . S
S1440 N1441 1.613 . S
S1440 N1442 1.610 . S
N1441 S1440 1.613 . S
N1441 C1444 1.350 . S
N1442 S1440 1.610 . S
N1442 C1443 1.351 . S
C1443 C1437 1.428 . S
C1443 N1442 1.351 . S
C1443 C1444 1.434 . S
C1444 C1435 1.429 . S
C1444 N1441 1.350 . S
C1444 C1443 1.434 . S
C1445 C1446 1.369 . S
C1445 C1447 1.419 . S
C1445 H1449 0.930 . S
C1446 C1445 1.369 . S
C1446 C1455 1.429 . S
C1447 C1445 1.419 . S
C1447 C1448 1.363 . S
C1447 H1450 0.929 . S
C1448 C1447 1.363 . S
C1448 C1454 1.428 . S
H1449 C1445 0.930 . S
H1450 C1447 0.929 . S
S1451 N1452 1.613 . S
S1451 N1453 1.610 . S
N1452 S1451 1.613 . S
N1452 C1455 1.350 . S
N1453 S1451 1.610 . S
N1453 C1454 1.351 . S
C1454 C1448 1.428 . S
C1454 N1453 1.351 . S
C1454 C1455 1.434 . S
C1455 C1446 1.429 . S
C1455 N1452 1.350 . S
C1455 C1454 1.434 . S
C1456 C1457 1.369 . S
C1456 C1458 1.419 . S
C1456 H1460 0.930 . S
C1457 C1456 1.369 . S
C1457 C1466 1.429 . S
C1458 C1456 1.419 . S
C1458 C1459 1.363 . S
C1458 H1461 0.929 . S
C1459 C1458 1.363 . S
C1459 C1465 1.428 . S
H1460 C1456 0.930 . S
H1461 C1458 0.929 . S
S1462 N1463 1.613 . S
S1462 N1464 1.610 . S
N1463 S1462 1.613 . S
N1463 C1466 1.350 . S
N1464 S1462 1.610 . S
N1464 C1465 1.351 . S
C1465 C1459 1.428 . S
C1465 N1464 1.351 . S
C1465 C1466 1.434 . S
C1466 C1457 1.429 . S
C1466 N1463 1.350 . S
C1466 C1465 1.434 . S
C1467 C1468 1.369 . S
C1467 C1469 1.419 . S
C1467 H1471 0.930 . S
C1468 C1467 1.369 . S
C1468 C1477 1.429 . S
C1469 C1467 1.419 . S
C1469 C1470 1.363 . S
C1469 H1472 0.929 . S
C1470 C1469 1.363 . S
C1470 C1476 1.428 . S
H1471 C1467 0.930 . S
H1472 C1469 0.929 . S
S1473 N1474 1.613 . S
S1473 N1475 1.610 . S
N1474 S1473 1.613 . S
N1474 C1477 1.350 . S
N1475 S1473 1.610 . S
N1475 C1476 1.351 . S
C1476 C1470 1.428 . S
C1476 N1475 1.351 . S
C1476 C1477 1.434 . S
C1477 C1468 1.429 . S
C1477 N1474 1.350 . S
C1477 C1476 1.434 . S
C1478 C1479 1.369 . S
C1478 C1480 1.419 . S
C1478 H1482 0.930 . S
C1479 C1478 1.369 . S
C1479 C1488 1.429 . S
C1480 C1478 1.419 . S
C1480 C1481 1.363 . S
C1480 H1483 0.929 . S
C1481 C1480 1.363 . S
C1481 C1487 1.428 . S
H1482 C1478 0.930 . S
H1483 C1480 0.929 . S
S1484 N1485 1.613 . S
S1484 N1486 1.610 . S
N1485 S1484 1.613 . S
N1485 C1488 1.350 . S
N1486 S1484 1.610 . S
N1486 C1487 1.351 . S
C1487 C1481 1.428 . S
C1487 N1486 1.351 . S
C1487 C1488 1.434 . S
C1488 C1479 1.429 . S
C1488 N1485 1.350 . S
C1488 C1487 1.434 . S
C1489 C1490 1.369 . S
C1489 C1491 1.419 . S
C1489 H1493 0.930 . S
C1490 C1489 1.369 . S
C1490 C1499 1.429 . S
C1491 C1489 1.419 . S
C1491 C1492 1.363 . S
C1491 H1494 0.929 . S
C1492 C1491 1.363 . S
C1492 C1498 1.428 . S
H1493 C1489 0.930 . S
H1494 C1491 0.929 . S
S1495 N1496 1.613 . S
S1495 N1497 1.610 . S
N1496 S1495 1.613 . S
N1496 C1499 1.350 . S
N1497 S1495 1.610 . S
N1497 C1498 1.351 . S
C1498 C1492 1.428 . S
C1498 N1497 1.351 . S
C1498 C1499 1.434 . S
C1499 C1490 1.429 . S
C1499 N1496 1.350 . S
C1499 C1498 1.434 . S
C1500 C1501 1.369 . S
C1500 C1502 1.419 . S
C1500 H1504 0.930 . S
C1501 C1500 1.369 . S
C1501 C1510 1.429 . S
C1502 C1500 1.419 . S
C1502 C1503 1.363 . S
C1502 H1505 0.929 . S
C1503 C1502 1.363 . S
C1503 C1509 1.428 . S
H1504 C1500 0.930 . S
H1505 C1502 0.929 . S
S1506 N1507 1.613 . S
S1506 N1508 1.610 . S
N1507 S1506 1.613 . S
N1507 C1510 1.350 . S
N1508 S1506 1.610 . S
N1508 C1509 1.351 . S
C1509 C1503 1.428 . S
C1509 N1508 1.351 . S
C1509 C1510 1.434 . S
C1510 C1501 1.429 . S
C1510 N1507 1.350 . S
C1510 C1509 1.434 . S
C1511 C1512 1.369 . S
C1511 C1513 1.419 . S
C1511 H1515 0.930 . S
C1512 C1511 1.369 . S
C1512 C1521 1.429 . S
C1513 C1511 1.419 . S
C1513 C1514 1.363 . S
C1513 H1516 0.929 . S
C1514 C1513 1.363 . S
C1514 C1520 1.428 . S
H1515 C1511 0.930 . S
H1516 C1513 0.929 . S
S1517 N1518 1.613 . S
S1517 N1519 1.610 . S
N1518 S1517 1.613 . S
N1518 C1521 1.350 . S
N1519 S1517 1.610 . S
N1519 C1520 1.351 . S
C1520 C1514 1.428 . S
C1520 N1519 1.351 . S
C1520 C1521 1.434 . S
C1521 C1512 1.429 . S
C1521 N1518 1.350 . S
C1521 C1520 1.434 . S
C1522 C1523 1.369 . S
C1522 C1524 1.419 . S
C1522 H1526 0.930 . S
C1523 C1522 1.369 . S
C1523 C1532 1.429 . S
C1524 C1522 1.419 . S
C1524 C1525 1.363 . S
C1524 H1527 0.929 . S
C1525 C1524 1.363 . S
C1525 C1531 1.428 . S
H1526 C1522 0.930 . S
H1527 C1524 0.929 . S
S1528 N1529 1.613 . S
S1528 N1530 1.610 . S
N1529 S1528 1.613 . S
N1529 C1532 1.350 . S
N1530 S1528 1.610 . S
N1530 C1531 1.351 . S
C1531 C1525 1.428 . S
C1531 N1530 1.351 . S
C1531 C1532 1.434 . S
C1532 C1523 1.429 . S
C1532 N1529 1.350 . S
C1532 C1531 1.434 . S
C1533 C1534 1.369 . S
C1533 C1535 1.419 . S
C1533 H1537 0.930 . S
C1534 C1533 1.369 . S
C1534 C1543 1.429 . S
C1535 C1533 1.419 . S
C1535 C1536 1.363 . S
C1535 H1538 0.929 . S
C1536 C1535 1.363 . S
C1536 C1542 1.428 . S
H1537 C1533 0.930 . S
H1538 C1535 0.929 . S
S1539 N1540 1.613 . S
S1539 N1541 1.610 . S
N1540 S1539 1.613 . S
N1540 C1543 1.350 . S
N1541 S1539 1.610 . S
N1541 C1542 1.351 . S
C1542 C1536 1.428 . S
C1542 N1541 1.351 . S
C1542 C1543 1.434 . S
C1543 C1534 1.429 . S
C1543 N1540 1.350 . S
C1543 C1542 1.434 . S
C1544 C1545 1.369 . S
C1544 C1546 1.419 . S
C1544 H1548 0.930 . S
C1545 C1544 1.369 . S
C1545 C1554 1.429 . S
C1546 C1544 1.419 . S
C1546 C1547 1.363 . S
C1546 H1549 0.929 . S
C1547 C1546 1.363 . S
C1547 C1553 1.428 . S
H1548 C1544 0.930 . S
H1549 C1546 0.929 . S
S1550 N1551 1.613 . S
S1550 N1552 1.610 . S
N1551 S1550 1.613 . S
N1551 C1554 1.350 . S
N1552 S1550 1.610 . S
N1552 C1553 1.351 . S
C1553 C1547 1.428 . S
C1553 N1552 1.351 . S
C1553 C1554 1.434 . S
C1554 C1545 1.429 . S
C1554 N1551 1.350 . S
C1554 C1553 1.434 . S
C1555 C1556 1.369 . S
C1555 C1557 1.419 . S
C1555 H1559 0.930 . S
C1556 C1555 1.369 . S
C1556 C1565 1.429 . S
C1557 C1555 1.419 . S
C1557 C1558 1.363 . S
C1557 H1560 0.929 . S
C1558 C1557 1.363 . S
C1558 C1564 1.428 . S
H1559 C1555 0.930 . S
H1560 C1557 0.929 . S
S1561 N1562 1.613 . S
S1561 N1563 1.610 . S
N1562 S1561 1.613 . S
N1562 C1565 1.350 . S
N1563 S1561 1.610 . S
N1563 C1564 1.351 . S
C1564 C1558 1.428 . S
C1564 N1563 1.351 . S
C1564 C1565 1.434 . S
C1565 C1556 1.429 . S
C1565 N1562 1.350 . S
C1565 C1564 1.434 . S
C1566 C1567 1.369 . S
C1566 C1568 1.419 . S
C1566 H1570 0.930 . S
C1567 C1566 1.369 . S
C1567 C1576 1.429 . S
C1568 C1566 1.419 . S
C1568 C1569 1.363 . S
C1568 H1571 0.929 . S
C1569 C1568 1.363 . S
C1569 C1575 1.428 . S
H1570 C1566 0.930 . S
H1571 C1568 0.929 . S
S1572 N1573 1.613 . S
S1572 N1574 1.610 . S
N1573 S1572 1.613 . S
N1573 C1576 1.350 . S
N1574 S1572 1.610 . S
N1574 C1575 1.351 . S
C1575 C1569 1.428 . S
C1575 N1574 1.351 . S
C1575 C1576 1.434 . S
C1576 C1567 1.429 . S
C1576 N1573 1.350 . S
C1576 C1575 1.434 . S
C1577 C1578 1.369 . S
C1577 C1579 1.419 . S
C1577 H1581 0.930 . S
C1578 C1577 1.369 . S
C1578 C1587 1.429 . S
C1579 C1577 1.419 . S
C1579 C1580 1.363 . S
C1579 H1582 0.929 . S
C1580 C1579 1.363 . S
C1580 C1586 1.428 . S
H1581 C1577 0.930 . S
H1582 C1579 0.929 . S
S1583 N1584 1.613 . S
S1583 N1585 1.610 . S
N1584 S1583 1.613 . S
N1584 C1587 1.350 . S
N1585 S1583 1.610 . S
N1585 C1586 1.351 . S
C1586 C1580 1.428 . S
C1586 N1585 1.351 . S
C1586 C1587 1.434 . S
C1587 C1578 1.429 . S
C1587 N1584 1.350 . S
C1587 C1586 1.434 . S
C1588 C1589 1.369 . S
C1588 C1590 1.419 . S
C1588 H1592 0.930 . S
C1589 C1588 1.369 . S
C1589 C1598 1.429 . S
C1590 C1588 1.419 . S
C1590 C1591 1.363 . S
C1590 H1593 0.929 . S
C1591 C1590 1.363 . S
C1591 C1597 1.428 . S
H1592 C1588 0.930 . S
H1593 C1590 0.929 . S
S1594 N1595 1.613 . S
S1594 N1596 1.610 . S
N1595 S1594 1.613 . S
N1595 C1598 1.350 . S
N1596 S1594 1.610 . S
N1596 C1597 1.351 . S
C1597 C1591 1.428 . S
C1597 N1596 1.351 . S
C1597 C1598 1.434 . S
C1598 C1589 1.429 . S
C1598 N1595 1.350 . S
C1598 C1597 1.434 . S
C1599 C1600 1.369 . S
C1599 C1601 1.419 . S
C1599 H1603 0.930 . S
C1600 C1599 1.369 . S
C1600 C1609 1.429 . S
C1601 C1599 1.419 . S
C1601 C1602 1.363 . S
C1601 H1604 0.929 . S
C1602 C1601 1.363 . S
C1602 C1608 1.428 . S
H1603 C1599 0.930 . S
H1604 C1601 0.929 . S
S1605 N1606 1.613 . S
S1605 N1607 1.610 . S
N1606 S1605 1.613 . S
N1606 C1609 1.350 . S
N1607 S1605 1.610 . S
N1607 C1608 1.351 . S
C1608 C1602 1.428 . S
C1608 N1607 1.351 . S
C1608 C1609 1.434 . S
C1609 C1600 1.429 . S
C1609 N1606 1.350 . S
C1609 C1608 1.434 . S
C1610 C1611 1.369 . S
C1610 C1612 1.419 . S
C1610 H1614 0.930 . S
C1611 C1610 1.369 . S
C1611 C1620 1.429 . S
C1612 C1610 1.419 . S
C1612 C1613 1.363 . S
C1612 H1615 0.929 . S
C1613 C1612 1.363 . S
C1613 C1619 1.428 . S
H1614 C1610 0.930 . S
H1615 C1612 0.929 . S
S1616 N1617 1.613 1_565 S
S1616 N1618 1.610 1_565 S
N1617 S1616 1.613 1_545 S
N1617 C1620 1.350 . S
N1618 S1616 1.610 1_545 S
N1618 C1619 1.351 . S
C1619 C1613 1.428 . S
C1619 N1618 1.351 . S
C1619 C1620 1.434 . S
C1620 C1611 1.429 . S
C1620 N1617 1.350 . S
C1620 C1619 1.434 . S
C1621 C1622 1.369 . S
C1621 C1623 1.419 . S
C1621 H1625 0.930 . S
C1622 C1621 1.369 . S
C1622 C1631 1.429 . S
C1623 C1621 1.419 . S
C1623 C1624 1.363 . S
C1623 H1626 0.929 . S
C1624 C1623 1.363 . S
C1624 C1630 1.428 . S
H1625 C1621 0.930 . S
H1626 C1623 0.929 . S
S1627 N1628 1.613 . S
S1627 N1629 1.610 . S
N1628 S1627 1.613 . S
N1628 C1631 1.350 . S
N1629 S1627 1.610 . S
N1629 C1630 1.351 . S
C1630 C1624 1.428 . S
C1630 N1629 1.351 . S
C1630 C1631 1.434 . S
C1631 C1622 1.429 . S
C1631 N1628 1.350 . S
C1631 C1630 1.434 . S
C1632 C1633 1.369 . S
C1632 C1634 1.419 1_455 S
C1632 H1636 0.930 . S
C1633 C1632 1.369 . S
C1633 C1642 1.429 . S
C1634 C1632 1.419 1_655 S
C1634 C1635 1.363 . S
C1634 H1637 0.929 . S
C1635 C1634 1.363 . S
C1635 C1641 1.428 . S
H1636 C1632 0.930 . S
H1637 C1634 0.929 . S
S1638 N1639 1.613 1_655 S
S1638 N1640 1.610 . S
N1639 S1638 1.613 1_455 S
N1639 C1642 1.350 . S
N1640 S1638 1.610 . S
N1640 C1641 1.351 . S
C1641 C1635 1.428 . S
C1641 N1640 1.351 . S
C1641 C1642 1.434 1_655 S
C1642 C1633 1.429 . S
C1642 N1639 1.350 . S
C1642 C1641 1.434 1_455 S
C1643 C1644 1.369 . S
C1643 C1645 1.419 . S
C1643 H1647 0.930 . S
C1644 C1643 1.369 . S
C1644 C1653 1.429 1_455 S
C1645 C1643 1.419 . S
C1645 C1646 1.363 1_455 S
C1645 H1648 0.929 . S
C1646 C1645 1.363 1_655 S
C1646 C1652 1.428 . S
H1647 C1643 0.930 . S
H1648 C1645 0.929 . S
S1649 N1650 1.613 . S
S1649 N1651 1.610 . S
N1650 S1649 1.613 . S
N1650 C1653 1.350 . S
N1651 S1649 1.610 . S
N1651 C1652 1.351 . S
C1652 C1646 1.428 . S
C1652 N1651 1.351 . S
C1652 C1653 1.434 . S
C1653 C1644 1.429 1_655 S
C1653 N1650 1.350 . S
C1653 C1652 1.434 . S
C1654 C1655 1.369 . S
C1654 C1656 1.419 . S
C1654 H1658 0.930 . S
C1655 C1654 1.369 . S
C1655 C1664 1.429 . S
C1656 C1654 1.419 . S
C1656 C1657 1.363 . S
C1656 H1659 0.929 . S
C1657 C1656 1.363 . S
C1657 C1663 1.428 . S
H1658 C1654 0.930 . S
H1659 C1656 0.929 . S
S1660 N1661 1.613 . S
S1660 N1662 1.610 . S
N1661 S1660 1.613 . S
N1661 C1664 1.350 . S
N1662 S1660 1.610 . S
N1662 C1663 1.351 . S
C1663 C1657 1.428 . S
C1663 N1662 1.351 . S
C1663 C1664 1.434 . S
C1664 C1655 1.429 . S
C1664 N1661 1.350 . S
C1664 C1663 1.434 . S
C1665 C1666 1.369 . S
C1665 C1667 1.419 . S
C1665 H1669 0.930 . S
C1666 C1665 1.369 . S
C1666 C1675 1.429 . S
C1667 C1665 1.419 . S
C1667 C1668 1.363 . S
C1667 H1670 0.929 . S
C1668 C1667 1.363 . S
C1668 C1674 1.428 . S
H1669 C1665 0.930 . S
H1670 C1667 0.929 . S
S1671 N1672 1.613 . S
S1671 N1673 1.610 . S
N1672 S1671 1.613 . S
N1672 C1675 1.350 . S
N1673 S1671 1.610 . S
N1673 C1674 1.351 . S
C1674 C1668 1.428 . S
C1674 N1673 1.351 . S
C1674 C1675 1.434 . S
C1675 C1666 1.429 . S
C1675 N1672 1.350 . S
C1675 C1674 1.434 . S
C1676 C1677 1.369 . S
C1676 C1678 1.419 1_655 S
C1676 H1680 0.930 . S
C1677 C1676 1.369 . S
C1677 C1686 1.429 . S
C1678 C1676 1.419 1_455 S
C1678 C1679 1.363 . S
C1678 H1681 0.929 . S
C1679 C1678 1.363 . S
C1679 C1685 1.428 . S
H1680 C1676 0.930 . S
H1681 C1678 0.929 . S
S1682 N1683 1.613 1_455 S
S1682 N1684 1.610 . S
N1683 S1682 1.613 1_655 S
N1683 C1686 1.350 . S
N1684 S1682 1.610 . S
N1684 C1685 1.351 . S
C1685 C1679 1.428 . S
C1685 N1684 1.351 . S
C1685 C1686 1.434 1_455 S
C1686 C1677 1.429 . S
C1686 N1683 1.350 . S
C1686 C1685 1.434 1_655 S
C1687 C1688 1.369 . S
C1687 C1689 1.419 . S
C1687 H1691 0.930 . S
C1688 C1687 1.369 . S
C1688 C1697 1.429 . S
C1689 C1687 1.419 . S
C1689 C1690 1.363 . S
C1689 H1692 0.929 . S
C1690 C1689 1.363 . S
C1690 C1696 1.428 . S
H1691 C1687 0.930 . S
H1692 C1689 0.929 . S
S1693 N1694 1.613 . S
S1693 N1695 1.610 . S
N1694 S1693 1.613 . S
N1694 C1697 1.350 . S
N1695 S1693 1.610 . S
N1695 C1696 1.351 . S
C1696 C1690 1.428 . S
C1696 N1695 1.351 . S
C1696 C1697 1.434 . S
C1697 C1688 1.429 . S
C1697 N1694 1.350 . S
C1697 C1696 1.434 . S
C1698 C1699 1.369 . S
C1698 C1700 1.419 . S
C1698 H1702 0.930 . S
C1699 C1698 1.369 . S
C1699 C1708 1.429 . S
C1700 C1698 1.419 . S
C1700 C1701 1.363 . S
C1700 H1703 0.929 . S
C1701 C1700 1.363 . S
C1701 C1707 1.428 . S
H1702 C1698 0.930 . S
H1703 C1700 0.929 . S
S1704 N1705 1.613 . S
S1704 N1706 1.610 . S
N1705 S1704 1.613 . S
N1705 C1708 1.350 . S
N1706 S1704 1.610 . S
N1706 C1707 1.351 . S
C1707 C1701 1.428 . S
C1707 N1706 1.351 . S
C1707 C1708 1.434 . S
C1708 C1699 1.429 . S
C1708 N1705 1.350 . S
C1708 C1707 1.434 . S
C1709 C1710 1.369 1_455 S
C1709 C1711 1.419 . S
C1709 H1713 0.930 . S
C1710 C1709 1.369 1_655 S
C1710 C1719 1.429 . S
C1711 C1709 1.419 . S
C1711 C1712 1.377 . S
C1711 H1714 0.929 . S
C1712 C1711 1.377 . S
C1712 C1718 1.414 1_455 S
H1713 C1709 0.930 . S
H1714 C1711 0.929 . S
S1715 N1716 1.613 . S
S1715 N1717 1.610 . S
N1716 S1715 1.613 . S
N1716 C1719 1.350 . S
N1717 S1715 1.610 . S
N1717 C1718 1.351 . S
C1718 C1712 1.414 1_655 S
C1718 N1717 1.351 . S
C1718 C1719 1.434 . S
C1719 C1710 1.429 . S
C1719 N1716 1.350 . S
C1719 C1718 1.434 . S
C1720 C1721 1.369 . S
C1720 C1722 1.419 1_455 S
C1720 H1724 0.930 . S
C1721 C1720 1.369 . S
C1721 C1730 1.429 . S
C1722 C1720 1.419 1_655 S
C1722 C1723 1.363 . S
C1722 H1725 0.929 . S
C1723 C1722 1.363 . S
C1723 C1729 1.428 . S
H1724 C1720 0.930 . S
H1725 C1722 0.929 . S
S1726 N1727 1.613 . S
S1726 N1728 1.610 1_455 S
N1727 S1726 1.613 . S
N1727 C1730 1.350 . S
N1728 S1726 1.610 1_655 S
N1728 C1729 1.351 . S
C1729 C1723 1.428 . S
C1729 N1728 1.351 . S
C1729 C1730 1.434 1_655 S
C1730 C1721 1.429 . S
C1730 N1727 1.350 . S
C1730 C1729 1.434 1_455 S
C1731 C1732 1.375 . S
C1731 C1733 1.419 . S
C1731 H1735 0.930 . S
C1732 C1731 1.375 . S
C1732 C1741 1.422 1_455 S
C1733 C1731 1.419 . S
C1733 C1734 1.363 1_455 S
C1733 H1736 0.929 . S
C1734 C1733 1.363 1_655 S
C1734 C1740 1.428 . S
H1735 C1731 0.930 . S
H1736 C1733 0.929 . S
S1737 N1738 1.613 . S
S1737 N1739 1.610 . S
N1738 S1737 1.613 . S
N1738 C1741 1.350 . S
N1739 S1737 1.610 . S
N1739 C1740 1.351 . S
C1740 C1734 1.428 . S
C1740 N1739 1.351 . S
C1740 C1741 1.434 . S
C1741 C1732 1.422 1_655 S
C1741 N1738 1.350 . S
C1741 C1740 1.434 . S
C1742 C1743 1.369 . S
C1742 C1744 1.419 . S
C1742 H1746 0.930 . S
C1743 C1742 1.369 . S
C1743 C1752 1.429 . S
C1744 C1742 1.419 . S
C1744 C1745 1.363 . S
C1744 H1747 0.929 . S
C1745 C1744 1.363 . S
C1745 C1751 1.428 . S
H1746 C1742 0.930 . S
H1747 C1744 0.929 . S
S1748 N1749 1.613 . S
S1748 N1750 1.610 . S
N1749 S1748 1.613 . S
N1749 C1752 1.350 . S
N1750 S1748 1.610 . S
N1750 C1751 1.351 . S
C1751 C1745 1.428 . S
C1751 N1750 1.351 . S
C1751 C1752 1.434 . S
C1752 C1743 1.429 . S
C1752 N1749 1.350 . S
C1752 C1751 1.434 . S
C1753 C1754 1.369 . S
C1753 C1755 1.419 . S
C1753 H1757 0.930 . S
C1754 C1753 1.369 . S
C1754 C1763 1.429 . S
C1755 C1753 1.419 . S
C1755 C1756 1.363 . S
C1755 H1758 0.929 . S
C1756 C1755 1.363 . S
C1756 C1762 1.428 . S
H1757 C1753 0.930 . S
H1758 C1755 0.929 . S
S1759 N1760 1.613 . S
S1759 N1761 1.610 . S
N1760 S1759 1.613 . S
N1760 C1763 1.350 . S
N1761 S1759 1.610 . S
N1761 C1762 1.351 . S
C1762 C1756 1.428 . S
C1762 N1761 1.351 . S
C1762 C1763 1.434 . S
C1763 C1754 1.429 . S
C1763 N1760 1.350 . S
C1763 C1762 1.434 . S
C1764 C1765 1.369 . S
C1764 C1766 1.419 1_455 S
C1764 H1768 0.930 . S
C1765 C1764 1.369 . S
C1765 C1774 1.429 . S
C1766 C1764 1.419 1_655 S
C1766 C1767 1.363 . S
C1766 H1769 0.929 . S
C1767 C1766 1.363 . S
C1767 C1773 1.428 . S
H1768 C1764 0.930 . S
H1769 C1766 0.929 . S
S1770 N1771 1.613 . S
S1770 N1772 1.610 1_455 S
N1771 S1770 1.613 . S
N1771 C1774 1.350 . S
N1772 S1770 1.610 1_655 S
N1772 C1773 1.351 . S
C1773 C1767 1.428 . S
C1773 N1772 1.351 . S
C1773 C1774 1.434 1_655 S
C1774 C1765 1.429 . S
C1774 N1771 1.350 . S
C1774 C1773 1.434 1_455 S
C1775 C1776 1.369 . S
C1775 C1777 1.419 . S
C1775 H1779 0.930 . S
C1776 C1775 1.369 . S
C1776 C1785 1.429 . S
C1777 C1775 1.419 . S
C1777 C1778 1.363 . S
C1777 H1780 0.929 . S
C1778 C1777 1.363 . S
C1778 C1784 1.428 . S
H1779 C1775 0.930 . S
H1780 C1777 0.929 . S
S1781 N1782 1.613 . S
S1781 N1783 1.610 . S
N1782 S1781 1.613 . S
N1782 C1785 1.350 . S
N1783 S1781 1.610 . S
N1783 C1784 1.351 . S
C1784 C1778 1.428 . S
C1784 N1783 1.351 . S
C1784 C1785 1.434 . S
C1785 C1776 1.429 . S
C1785 N1782 1.350 . S
C1785 C1784 1.434 . S
C1786 C1787 1.369 . S
C1786 C1788 1.419 . S
C1786 H1790 0.930 . S
C1787 C1786 1.369 . S
C1787 C1796 1.429 . S
C1788 C1786 1.419 . S
C1788 C1789 1.363 . S
C1788 H1791 0.929 . S
C1789 C1788 1.363 . S
C1789 C1795 1.428 . S
H1790 C1786 0.930 . S
H1791 C1788 0.929 . S
S1792 N1793 1.613 . S
S1792 N1794 1.610 . S
N1793 S1792 1.613 . S
N1793 C1796 1.350 . S
N1794 S1792 1.610 . S
N1794 C1795 1.351 . S
C1795 C1789 1.428 . S
C1795 N1794 1.351 . S
C1795 C1796 1.434 . S
C1796 C1787 1.429 . S
C1796 N1793 1.350 . S
C1796 C1795 1.434 . S
C1797 C1798 1.369 1_655 S
C1797 C1799 1.419 . S
C1797 H1801 0.930 . S
C1798 C1797 1.369 1_455 S
C1798 C1807 1.429 . S
C1799 C1797 1.419 . S
C1799 C1800 1.382 . S
C1799 H1802 0.929 . S
C1800 C1799 1.382 . S
C1800 C1806 1.408 1_655 S
H1801 C1797 0.930 . S
H1802 C1799 0.929 . S
S1803 N1804 1.613 . S
S1803 N1805 1.610 . S
N1804 S1803 1.613 . S
N1804 C1807 1.350 . S
N1805 S1803 1.610 . S
N1805 C1806 1.351 . S
C1806 C1800 1.408 1_455 S
C1806 N1805 1.351 . S
C1806 C1807 1.434 . S
C1807 C1798 1.429 . S
C1807 N1804 1.350 . S
C1807 C1806 1.434 . S
C1808 C1809 1.369 . S
C1808 C1810 1.419 . S
C1808 H1812 0.930 . S
C1809 C1808 1.369 . S
C1809 C1818 1.429 . S
C1810 C1808 1.419 . S
C1810 C1811 1.363 . S
C1810 H1813 0.929 . S
C1811 C1810 1.363 . S
C1811 C1817 1.428 . S
H1812 C1808 0.930 . S
H1813 C1810 0.929 . S
S1814 N1815 1.613 . S
S1814 N1816 1.610 . S
N1815 S1814 1.613 . S
N1815 C1818 1.350 . S
N1816 S1814 1.610 . S
N1816 C1817 1.351 . S
C1817 C1811 1.428 . S
C1817 N1816 1.351 . S
C1817 C1818 1.434 . S
C1818 C1809 1.429 . S
C1818 N1815 1.350 . S
C1818 C1817 1.434 . S
C1819 C1820 1.369 1_545 S
C1819 C1821 1.419 . S
C1819 H1823 0.930 . S
C1820 C1819 1.369 1_565 S
C1820 C1829 1.429 1_655 S
C1821 C1819 1.419 . S
C1821 C1822 1.385 1_655 S
C1821 H1824 0.929 . S
C1822 C1821 1.385 1_455 S
C1822 C1828 1.406 1_545 S
H1823 C1819 0.930 . S
H1824 C1821 0.929 . S
S1825 N1826 1.613 . S
S1825 N1827 1.610 . S
N1826 S1825 1.613 . S
N1826 C1829 1.350 . S
N1827 S1825 1.610 . S
N1827 C1828 1.351 . S
C1828 C1822 1.406 1_565 S
C1828 N1827 1.351 . S
C1828 C1829 1.434 . S
C1829 C1820 1.429 1_455 S
C1829 N1826 1.350 . S
C1829 C1828 1.434 . S
C1830 C1831 1.369 . S
C1830 C1832 1.419 . S
C1830 H1834 0.930 . S
C1831 C1830 1.369 . S
C1831 C1840 1.429 . S
C1832 C1830 1.419 . S
C1832 C1833 1.363 . S
C1832 H1835 0.929 . S
C1833 C1832 1.363 . S
C1833 C1839 1.428 . S
H1834 C1830 0.930 . S
H1835 C1832 0.929 . S
S1836 N1837 1.613 . S
S1836 N1838 1.610 . S
N1837 S1836 1.613 . S
N1837 C1840 1.350 . S
N1838 S1836 1.610 . S
N1838 C1839 1.351 . S
C1839 C1833 1.428 . S
C1839 N1838 1.351 . S
C1839 C1840 1.434 . S
C1840 C1831 1.429 . S
C1840 N1837 1.350 . S
C1840 C1839 1.434 . S
C1841 C1842 1.369 . S
C1841 C1843 1.419 1_554 S
C1841 H1845 0.930 . S
C1842 C1841 1.369 . S
C1842 C1851 1.429 1_565 S
C1843 C1841 1.419 1_556 S
C1843 C1844 1.363 1_565 S
C1843 H1846 0.929 . S
C1844 C1843 1.363 1_545 S
C1844 C1850 1.428 . S
H1845 C1841 0.930 . S
H1846 C1843 0.929 . S
S1847 N1848 1.613 1_556 S
S1847 N1849 1.610 . S
N1848 S1847 1.613 1_554 S
N1848 C1851 1.350 . S
N1849 S1847 1.610 . S
N1849 C1850 1.351 . S
C1850 C1844 1.428 . S
C1850 N1849 1.351 . S
C1850 C1851 1.434 1_556 S
C1851 C1842 1.429 1_545 S
C1851 N1848 1.350 . S
C1851 C1850 1.434 1_554 S
C1852 C1853 1.369 . S
C1852 C1854 1.419 . S
C1852 H1856 0.930 . S
C1853 C1852 1.369 . S
C1853 C1862 1.429 . S
C1854 C1852 1.419 . S
C1854 C1855 1.363 . S
C1854 H1857 0.929 . S
C1855 C1854 1.363 . S
C1855 C1861 1.428 . S
H1856 C1852 0.930 . S
H1857 C1854 0.929 . S
S1858 N1859 1.613 . S
S1858 N1860 1.610 . S
N1859 S1858 1.613 . S
N1859 C1862 1.350 . S
N1860 S1858 1.610 . S
N1860 C1861 1.351 . S
C1861 C1855 1.428 . S
C1861 N1860 1.351 . S
C1861 C1862 1.434 . S
C1862 C1853 1.429 . S
C1862 N1859 1.350 . S
C1862 C1861 1.434 . S
C1863 C1864 1.386 . S
C1863 C1865 1.419 . S
C1863 H1867 0.930 . S
C1864 C1863 1.386 . S
C1864 C1873 1.410 1_565 S
C1865 C1863 1.419 . S
C1865 C1866 1.363 1_565 S
C1865 H1868 0.929 . S
C1866 C1865 1.363 1_545 S
C1866 C1872 1.428 . S
H1867 C1863 0.930 . S
H1868 C1865 0.929 . S
S1869 N1870 1.613 . S
S1869 N1871 1.610 . S
N1870 S1869 1.613 . S
N1870 C1873 1.350 . S
N1871 S1869 1.610 . S
N1871 C1872 1.351 . S
C1872 C1866 1.428 . S
C1872 N1871 1.351 . S
C1872 C1873 1.434 . S
C1873 C1864 1.410 1_545 S
C1873 N1870 1.350 . S
C1873 C1872 1.434 . S
C1874 C1875 1.369 . S
C1874 C1876 1.419 . S
C1874 H1878 0.930 . S
C1875 C1874 1.369 . S
C1875 C1884 1.429 . S
C1876 C1874 1.419 . S
C1876 C1877 1.363 . S
C1876 H1879 0.929 . S
C1877 C1876 1.363 . S
C1877 C1883 1.428 . S
H1878 C1874 0.930 . S
H1879 C1876 0.929 . S
S1880 N1881 1.613 . S
S1880 N1882 1.610 . S
N1881 S1880 1.613 . S
N1881 C1884 1.350 . S
N1882 S1880 1.610 . S
N1882 C1883 1.351 . S
C1883 C1877 1.428 . S
C1883 N1882 1.351 . S
C1883 C1884 1.434 . S
C1884 C1875 1.429 . S
C1884 N1881 1.350 . S
C1884 C1883 1.434 . S
C1885 C1886 1.369 1_645 S
C1885 C1887 1.419 1_556 S
C1885 H1889 0.930 . S
C1886 C1885 1.369 1_465 S
C1886 C1895 1.429 . S
C1887 C1885 1.419 1_554 S
C1887 C1888 1.363 . S
C1887 H1890 0.929 . S
C1888 C1887 1.363 . S
C1888 C1894 1.428 1_645 S
H1889 C1885 0.930 . S
H1890 C1887 0.929 . S
S1891 N1892 1.613 1_554 S
S1891 N1893 1.610 . S
N1892 S1891 1.613 1_556 S
N1892 C1895 1.350 . S
N1893 S1891 1.610 . S
N1893 C1894 1.351 . S
C1894 C1888 1.428 1_465 S
C1894 N1893 1.351 . S
C1894 C1895 1.434 1_554 S
C1895 C1886 1.429 . S
C1895 N1892 1.350 . S
C1895 C1894 1.434 1_556 S
C1896 C1897 1.369 . S
C1896 C1898 1.419 . S
C1896 H1900 0.930 . S
C1897 C1896 1.369 . S
C1897 C1906 1.429 . S
C1898 C1896 1.419 . S
C1898 C1899 1.363 . S
C1898 H1901 0.929 . S
C1899 C1898 1.363 . S
C1899 C1905 1.428 . S
H1900 C1896 0.930 . S
H1901 C1898 0.929 . S
S1902 N1903 1.613 . S
S1902 N1904 1.610 . S
N1903 S1902 1.613 . S
N1903 C1906 1.350 . S
N1904 S1902 1.610 . S
N1904 C1905 1.351 . S
C1905 C1899 1.428 . S
C1905 N1904 1.351 . S
C1905 C1906 1.434 . S
C1906 C1897 1.429 . S
C1906 N1903 1.350 . S
C1906 C1905 1.434 . S
C1907 C1908 1.369 . S
C1907 C1909 1.419 . S
C1907 H1911 0.930 . S
C1908 C1907 1.369 . S
C1908 C1917 1.429 . S
C1909 C1907 1.419 . S
C1909 C1910 1.363 . S
C1909 H1912 0.929 . S
C1910 C1909 1.363 . S
C1910 C1916 1.428 . S
H1911 C1907 0.930 . S
H1912 C1909 0.929 . S
S1913 N1914 1.613 . S
S1913 N1915 1.610 . S
N1914 S1913 1.613 . S
N1914 C1917 1.350 . S
N1915 S1913 1.610 . S
N1915 C1916 1.351 . S
C1916 C1910 1.428 . S
C1916 N1915 1.351 . S
C1916 C1917 1.434 . S
C1917 C1908 1.429 . S
C1917 N1914 1.350 . S
C1917 C1916 1.434 . S
C1918 C1919 1.369 . S
C1918 C1920 1.419 . S
C1918 H1922 0.930 . S
C1919 C1918 1.369 . S
C1919 C1928 1.429 . S
C1920 C1918 1.419 . S
C1920 C1921 1.363 . S
C1920 H1923 0.929 . S
C1921 C1920 1.363 . S
C1921 C1927 1.428 . S
H1922 C1918 0.930 . S
H1923 C1920 0.929 . S
S1924 N1925 1.613 . S
S1924 N1926 1.610 . S
N1925 S1924 1.613 . S
N1925 C1928 1.350 . S
N1926 S1924 1.610 . S
N1926 C1927 1.351 . S
C1927 C1921 1.428 . S
C1927 N1926 1.351 . S
C1927 C1928 1.434 . S
C1928 C1919 1.429 . S
C1928 N1925 1.350 . S
C1928 C1927 1.434 . S
C1929 C1930 1.369 . S
C1929 C1931 1.419 . S
C1929 H1933 0.930 . S
C1930 C1929 1.369 . S
C1930 C1939 1.429 . S
C1931 C1929 1.419 . S
C1931 C1932 1.363 . S
C1931 H1934 0.929 . S
C1932 C1931 1.363 . S
C1932 C1938 1.428 . S
H1933 C1929 0.930 . S
H1934 C1931 0.929 . S
S1935 N1936 1.613 . S
S1935 N1937 1.610 . S
N1936 S1935 1.613 . S
N1936 C1939 1.350 . S
N1937 S1935 1.610 . S
N1937 C1938 1.351 . S
C1938 C1932 1.428 . S
C1938 N1937 1.351 . S
C1938 C1939 1.434 . S
C1939 C1930 1.429 . S
C1939 N1936 1.350 . S
C1939 C1938 1.434 . S
C1940 C1941 1.369 . S
C1940 C1942 1.419 1_554 S
C1940 H1944 0.930 . S
C1941 C1940 1.369 . S
C1941 C1950 1.429 . S
C1942 C1940 1.419 1_556 S
C1942 C1943 1.363 . S
C1942 H1945 0.929 . S
C1943 C1942 1.363 . S
C1943 C1949 1.428 . S
H1944 C1940 0.930 . S
H1945 C1942 0.929 . S
S1946 N1947 1.613 1_556 S
S1946 N1948 1.610 . S
N1947 S1946 1.613 1_554 S
N1947 C1950 1.350 . S
N1948 S1946 1.610 . S
N1948 C1949 1.351 . S
C1949 C1943 1.428 . S
C1949 N1948 1.351 . S
C1949 C1950 1.434 1_556 S
C1950 C1941 1.429 . S
C1950 N1947 1.350 . S
C1950 C1949 1.434 1_554 S
C1951 C1952 1.369 . S
C1951 C1953 1.419 . S
C1951 H1955 0.930 . S
C1952 C1951 1.369 . S
C1952 C1961 1.429 1_655 S
C1953 C1951 1.419 . S
C1953 C1954 1.363 1_655 S
C1953 H1956 0.929 . S
C1954 C1953 1.363 1_455 S
C1954 C1960 1.428 . S
H1955 C1951 0.930 . S
H1956 C1953 0.929 . S
S1957 N1958 1.613 . S
S1957 N1959 1.610 . S
N1958 S1957 1.613 . S
N1958 C1961 1.350 . S
N1959 S1957 1.610 . S
N1959 C1960 1.351 . S
C1960 C1954 1.428 . S
C1960 N1959 1.351 . S
C1960 C1961 1.434 . S
C1961 C1952 1.429 1_455 S
C1961 N1958 1.350 . S
C1961 C1960 1.434 . S
C1962 C1963 1.369 1_655 S
C1962 C1964 1.419 1_554 S
C1962 H1966 0.930 . S
C1963 C1962 1.369 1_455 S
C1963 C1972 1.429 . S
C1964 C1962 1.419 1_556 S
C1964 C1965 1.363 . S
C1964 H1967 0.929 . S
C1965 C1964 1.363 . S
C1965 C1971 1.428 1_655 S
H1966 C1962 0.930 . S
H1967 C1964 0.929 . S
S1968 N1969 1.615 . S
S1968 N1970 1.609 1_554 S
N1969 S1968 1.615 . S
N1969 C1972 1.350 . S
N1970 S1968 1.609 1_556 S
N1970 C1971 1.351 . S
C1971 C1965 1.428 1_455 S
C1971 N1970 1.351 . S
C1971 C1972 1.434 1_556 S
C1972 C1963 1.429 . S
C1972 N1969 1.350 . S
C1972 C1971 1.434 1_554 S
C1973 C1974 1.369 . S
C1973 C1975 1.419 . S
C1973 H1977 0.930 . S
C1974 C1973 1.369 . S
C1974 C1983 1.429 . S
C1975 C1973 1.419 . S
C1975 C1976 1.363 . S
C1975 H1978 0.929 . S
C1976 C1975 1.363 . S
C1976 C1982 1.428 . S
H1977 C1973 0.930 . S
H1978 C1975 0.929 . S
S1979 N1980 1.613 . S
S1979 N1981 1.610 . S
N1980 S1979 1.613 . S
N1980 C1983 1.350 . S
N1981 S1979 1.610 . S
N1981 C1982 1.351 . S
C1982 C1976 1.428 . S
C1982 N1981 1.351 . S
C1982 C1983 1.434 . S
C1983 C1974 1.429 . S
C1983 N1980 1.350 . S
C1983 C1982 1.434 . S
C1984 C1985 1.369 . S
C1984 C1986 1.419 . S
C1984 H1988 0.930 . S
C1985 C1984 1.369 . S
C1985 C1994 1.429 . S
C1986 C1984 1.419 . S
C1986 C1987 1.363 . S
C1986 H1989 0.929 . S
C1987 C1986 1.363 . S
C1987 C1993 1.428 . S
H1988 C1984 0.930 . S
H1989 C1986 0.929 . S
S1990 N1991 1.613 . S
S1990 N1992 1.610 . S
N1991 S1990 1.613 . S
N1991 C1994 1.350 . S
N1992 S1990 1.610 . S
N1992 C1993 1.351 . S
C1993 C1987 1.428 . S
C1993 N1992 1.351 . S
C1993 C1994 1.434 . S
C1994 C1985 1.429 . S
C1994 N1991 1.350 . S
C1994 C1993 1.434 . S
C1995 C1996 1.369 . S
C1995 C1997 1.419 . S
C1995 H1999 0.930 . S
C1996 C1995 1.369 . S
C1996 C2005 1.429 . S
C1997 C1995 1.419 . S
C1997 C1998 1.363 . S
C1997 H2000 0.929 . S
C1998 C1997 1.363 . S
C1998 C2004 1.428 . S
H1999 C1995 0.930 . S
H2000 C1997 0.929 . S
S2001 N2002 1.613 . S
S2001 N2003 1.610 . S
N2002 S2001 1.613 . S
N2002 C2005 1.350 . S
N2003 S2001 1.610 . S
N2003 C2004 1.351 . S
C2004 C1998 1.428 . S
C2004 N2003 1.351 . S
C2004 C2005 1.434 . S
C2005 C1996 1.429 . S
C2005 N2002 1.350 . S
C2005 C2004 1.434 . S
C2006 C2007 1.369 . S
C2006 C2008 1.419 . S
C2006 H2010 0.930 . S
C2007 C2006 1.369 . S
C2007 C2016 1.429 . S
C2008 C2006 1.419 . S
C2008 C2009 1.363 . S
C2008 H2011 0.929 . S
C2009 C2008 1.363 . S
C2009 C2015 1.428 . S
H2010 C2006 0.930 . S
H2011 C2008 0.929 . S
S2012 N2013 1.613 . S
S2012 N2014 1.610 . S
N2013 S2012 1.613 . S
N2013 C2016 1.350 . S
N2014 S2012 1.610 . S
N2014 C2015 1.351 . S
C2015 C2009 1.428 . S
C2015 N2014 1.351 . S
C2015 C2016 1.434 . S
C2016 C2007 1.429 . S
C2016 N2013 1.350 . S
C2016 C2015 1.434 . S
C2017 C2018 1.369 . S
C2017 C2019 1.419 . S
C2017 H2021 0.930 . S
C2018 C2017 1.369 . S
C2018 C2027 1.429 . S
C2019 C2017 1.419 . S
C2019 C2020 1.363 . S
C2019 H2022 0.929 . S
C2020 C2019 1.363 . S
C2020 C2026 1.428 . S
H2021 C2017 0.930 . S
H2022 C2019 0.929 . S
S2023 N2024 1.613 . S
S2023 N2025 1.610 . S
N2024 S2023 1.613 . S
N2024 C2027 1.350 . S
N2025 S2023 1.610 . S
N2025 C2026 1.351 . S
C2026 C2020 1.428 . S
C2026 N2025 1.351 . S
C2026 C2027 1.434 . S
C2027 C2018 1.429 . S
C2027 N2024 1.350 . S
C2027 C2026 1.434 . S
C2028 C2029 1.369 . S
C2028 C2030 1.419 . S
C2028 H2032 0.930 . S
C2029 C2028 1.369 . S
C2029 C2038 1.429 . S
C2030 C2028 1.419 . S
C2030 C2031 1.363 . S
C2030 H2033 0.929 . S
C2031 C2030 1.363 . S
C2031 C2037 1.428 . S
H2032 C2028 0.930 . S
H2033 C2030 0.929 . S
S2034 N2035 1.613 . S
S2034 N2036 1.610 . S
N2035 S2034 1.613 . S
N2035 C2038 1.350 . S
N2036 S2034 1.610 . S
N2036 C2037 1.351 . S
C2037 C2031 1.428 . S
C2037 N2036 1.351 . S
C2037 C2038 1.434 . S
C2038 C2029 1.429 . S
C2038 N2035 1.350 . S
C2038 C2037 1.434 . S
C2039 C2040 1.369 . S
C2039 C2041 1.419 . S
C2039 H2043 0.930 . S
C2040 C2039 1.369 . S
C2040 C2049 1.429 . S
C2041 C2039 1.419 . S
C2041 C2042 1.363 . S
C2041 H2044 0.929 . S
C2042 C2041 1.363 . S
C2042 C2048 1.428 . S
H2043 C2039 0.930 . S
H2044 C2041 0.929 . S
S2045 N2046 1.613 . S
S2045 N2047 1.610 . S
N2046 S2045 1.613 . S
N2046 C2049 1.350 . S
N2047 S2045 1.610 . S
N2047 C2048 1.351 . S
C2048 C2042 1.428 . S
C2048 N2047 1.351 . S
C2048 C2049 1.434 . S
C2049 C2040 1.429 . S
C2049 N2046 1.350 . S
C2049 C2048 1.434 . S
C2050 C2051 1.369 . S
C2050 C2052 1.419 . S
C2050 H2054 0.930 . S
C2051 C2050 1.369 . S
C2051 C2060 1.429 . S
C2052 C2050 1.419 . S
C2052 C2053 1.363 . S
C2052 H2055 0.929 . S
C2053 C2052 1.363 . S
C2053 C2059 1.428 . S
H2054 C2050 0.930 . S
H2055 C2052 0.929 . S
S2056 N2057 1.613 . S
S2056 N2058 1.610 . S
N2057 S2056 1.613 . S
N2057 C2060 1.350 . S
N2058 S2056 1.610 . S
N2058 C2059 1.351 . S
C2059 C2053 1.428 . S
C2059 N2058 1.351 . S
C2059 C2060 1.434 . S
C2060 C2051 1.429 . S
C2060 N2057 1.350 . S
C2060 C2059 1.434 . S
C2061 C2062 1.369 . S
C2061 C2063 1.419 . S
C2061 H2065 0.930 . S
C2062 C2061 1.369 . S
C2062 C2071 1.429 . S
C2063 C2061 1.419 . S
C2063 C2064 1.363 . S
C2063 H2066 0.929 . S
C2064 C2063 1.363 . S
C2064 C2070 1.428 . S
H2065 C2061 0.930 . S
H2066 C2063 0.929 . S
S2067 N2068 1.613 . S
S2067 N2069 1.610 . S
N2068 S2067 1.613 . S
N2068 C2071 1.350 . S
N2069 S2067 1.610 . S
N2069 C2070 1.351 . S
C2070 C2064 1.428 . S
C2070 N2069 1.351 . S
C2070 C2071 1.434 . S
C2071 C2062 1.429 . S
C2071 N2068 1.350 . S
C2071 C2070 1.434 . S
C2072 C2073 1.369 . S
C2072 C2074 1.419 . S
C2072 H2076 0.930 . S
C2073 C2072 1.369 . S
C2073 C2082 1.429 . S
C2074 C2072 1.419 . S
C2074 C2075 1.363 . S
C2074 H2077 0.929 . S
C2075 C2074 1.363 . S
C2075 C2081 1.428 . S
H2076 C2072 0.930 . S
H2077 C2074 0.929 . S
S2078 N2079 1.613 . S
S2078 N2080 1.610 . S
N2079 S2078 1.613 . S
N2079 C2082 1.350 . S
N2080 S2078 1.610 . S
N2080 C2081 1.351 . S
C2081 C2075 1.428 . S
C2081 N2080 1.351 . S
C2081 C2082 1.434 . S
C2082 C2073 1.429 . S
C2082 N2079 1.350 . S
C2082 C2081 1.434 . S
C2083 C2084 1.369 . S
C2083 C2085 1.419 . S
C2083 H2087 0.930 . S
C2084 C2083 1.369 . S
C2084 C2093 1.429 . S
C2085 C2083 1.419 . S
C2085 C2086 1.363 . S
C2085 H2088 0.929 . S
C2086 C2085 1.363 . S
C2086 C2092 1.428 . S
H2087 C2083 0.930 . S
H2088 C2085 0.929 . S
S2089 N2090 1.613 . S
S2089 N2091 1.610 . S
N2090 S2089 1.613 . S
N2090 C2093 1.350 . S
N2091 S2089 1.610 . S
N2091 C2092 1.351 . S
C2092 C2086 1.428 . S
C2092 N2091 1.351 . S
C2092 C2093 1.434 . S
C2093 C2084 1.429 . S
C2093 N2090 1.350 . S
C2093 C2092 1.434 . S
C2094 C2095 1.369 . S
C2094 C2096 1.419 . S
C2094 H2098 0.930 . S
C2095 C2094 1.369 . S
C2095 C2104 1.429 . S
C2096 C2094 1.419 . S
C2096 C2097 1.363 . S
C2096 H2099 0.929 . S
C2097 C2096 1.363 . S
C2097 C2103 1.428 . S
H2098 C2094 0.930 . S
H2099 C2096 0.929 . S
S2100 N2101 1.613 . S
S2100 N2102 1.610 . S
N2101 S2100 1.613 . S
N2101 C2104 1.350 . S
N2102 S2100 1.610 . S
N2102 C2103 1.351 . S
C2103 C2097 1.428 . S
C2103 N2102 1.351 . S
C2103 C2104 1.434 . S
C2104 C2095 1.429 . S
C2104 N2101 1.350 . S
C2104 C2103 1.434 . S
C2105 C2106 1.369 . S
C2105 C2107 1.419 . S
C2105 H2109 0.930 . S
C2106 C2105 1.369 . S
C2106 C2115 1.429 . S
C2107 C2105 1.419 . S
C2107 C2108 1.363 . S
C2107 H2110 0.929 . S
C2108 C2107 1.363 . S
C2108 C2114 1.428 . S
H2109 C2105 0.930 . S
H2110 C2107 0.929 . S
S2111 N2112 1.613 . S
S2111 N2113 1.610 . S
N2112 S2111 1.613 . S
N2112 C2115 1.350 . S
N2113 S2111 1.610 . S
N2113 C2114 1.351 . S
C2114 C2108 1.428 . S
C2114 N2113 1.351 . S
C2114 C2115 1.434 . S
C2115 C2106 1.429 . S
C2115 N2112 1.350 . S
C2115 C2114 1.434 . S
C2116 C2117 1.369 . S
C2116 C2118 1.419 . S
C2116 H2120 0.930 . S
C2117 C2116 1.369 . S
C2117 C2126 1.429 . S
C2118 C2116 1.419 . S
C2118 C2119 1.363 . S
C2118 H2121 0.929 . S
C2119 C2118 1.363 . S
C2119 C2125 1.428 . S
H2120 C2116 0.930 . S
H2121 C2118 0.929 . S
S2122 N2123 1.613 . S
S2122 N2124 1.610 . S
N2123 S2122 1.613 . S
N2123 C2126 1.350 . S
N2124 S2122 1.610 . S
N2124 C2125 1.351 . S
C2125 C2119 1.428 . S
C2125 N2124 1.351 . S
C2125 C2126 1.434 . S
C2126 C2117 1.429 . S
C2126 N2123 1.350 . S
C2126 C2125 1.434 . S
C2127 C2128 1.369 . S
C2127 C2129 1.419 . S
C2127 H2131 0.930 . S
C2128 C2127 1.369 . S
C2128 C2137 1.429 . S
C2129 C2127 1.419 . S
C2129 C2130 1.363 . S
C2129 H2132 0.929 . S
C2130 C2129 1.363 . S
C2130 C2136 1.428 . S
H2131 C2127 0.930 . S
H2132 C2129 0.929 . S
S2133 N2134 1.613 . S
S2133 N2135 1.610 . S
N2134 S2133 1.613 . S
N2134 C2137 1.350 . S
N2135 S2133 1.610 . S
N2135 C2136 1.351 . S
C2136 C2130 1.428 . S
C2136 N2135 1.351 . S
C2136 C2137 1.434 . S
C2137 C2128 1.429 . S
C2137 N2134 1.350 . S
C2137 C2136 1.434 . S
C2138 C2139 1.369 . S
C2138 C2140 1.419 . S
C2138 H2142 0.930 . S
C2139 C2138 1.369 . S
C2139 C2148 1.429 . S
C2140 C2138 1.419 . S
C2140 C2141 1.363 . S
C2140 H2143 0.929 . S
C2141 C2140 1.363 . S
C2141 C2147 1.428 . S
H2142 C2138 0.930 . S
H2143 C2140 0.929 . S
S2144 N2145 1.613 . S
S2144 N2146 1.610 . S
N2145 S2144 1.613 . S
N2145 C2148 1.350 . S
N2146 S2144 1.610 . S
N2146 C2147 1.351 . S
C2147 C2141 1.428 . S
C2147 N2146 1.351 . S
C2147 C2148 1.434 . S
C2148 C2139 1.429 . S
C2148 N2145 1.350 . S
C2148 C2147 1.434 . S
C2149 C2150 1.369 . S
C2149 C2151 1.419 . S
C2149 H2153 0.930 . S
C2150 C2149 1.369 . S
C2150 C2159 1.429 . S
C2151 C2149 1.419 . S
C2151 C2152 1.363 . S
C2151 H2154 0.929 . S
C2152 C2151 1.363 . S
C2152 C2158 1.428 . S
H2153 C2149 0.930 . S
H2154 C2151 0.929 . S
S2155 N2156 1.613 . S
S2155 N2157 1.610 . S
N2156 S2155 1.613 . S
N2156 C2159 1.350 . S
N2157 S2155 1.610 . S
N2157 C2158 1.351 . S
C2158 C2152 1.428 . S
C2158 N2157 1.351 . S
C2158 C2159 1.434 . S
C2159 C2150 1.429 . S
C2159 N2156 1.350 . S
C2159 C2158 1.434 . S
C2160 C2161 1.369 . S
C2160 C2162 1.419 1_545 S
C2160 H2164 0.930 . S
C2161 C2160 1.369 . S
C2161 C2170 1.429 . S
C2162 C2160 1.419 1_565 S
C2162 C2163 1.363 . S
C2162 H2165 0.929 . S
C2163 C2162 1.363 . S
C2163 C2169 1.428 . S
H2164 C2160 0.930 . S
H2165 C2162 0.929 . S
S2166 N2167 1.613 . S
S2166 N2168 1.610 1_545 S
N2167 S2166 1.613 . S
N2167 C2170 1.350 . S
N2168 S2166 1.610 1_565 S
N2168 C2169 1.351 . S
C2169 C2163 1.428 . S
C2169 N2168 1.351 . S
C2169 C2170 1.434 1_565 S
C2170 C2161 1.429 . S
C2170 N2167 1.350 . S
C2170 C2169 1.434 1_545 S
C2171 C2172 1.369 1_545 S
C2171 C2173 1.419 . S
C2171 H2175 0.930 . S
C2172 C2171 1.369 1_565 S
C2172 C2181 1.429 . S
C2173 C2171 1.419 . S
C2173 C2174 1.363 1_545 S
C2173 H2176 0.929 . S
C2174 C2173 1.363 1_565 S
C2174 C2180 1.428 . S
H2175 C2171 0.930 . S
H2176 C2173 0.929 . S
S2177 N2178 1.613 . S
S2177 N2179 1.610 . S
N2178 S2177 1.613 . S
N2178 C2181 1.350 . S
N2179 S2177 1.610 . S
N2179 C2180 1.351 . S
C2180 C2174 1.428 . S
C2180 N2179 1.351 . S
C2180 C2181 1.434 . S
C2181 C2172 1.429 . S
C2181 N2178 1.350 . S
C2181 C2180 1.434 . S
C2182 C2183 1.369 . S
C2182 C2184 1.419 1_545 S
C2182 H2186 0.930 . S
C2183 C2182 1.369 . S
C2183 C2192 1.429 . S
C2184 C2182 1.419 1_565 S
C2184 C2185 1.363 . S
C2184 H2187 0.929 . S
C2185 C2184 1.363 . S
C2185 C2191 1.428 . S
H2186 C2182 0.930 . S
H2187 C2184 0.929 . S
S2188 N2189 1.613 1_565 S
S2188 N2190 1.610 . S
N2189 S2188 1.613 1_545 S
N2189 C2192 1.350 . S
N2190 S2188 1.610 . S
N2190 C2191 1.351 . S
C2191 C2185 1.428 . S
C2191 N2190 1.351 . S
C2191 C2192 1.434 1_565 S
C2192 C2183 1.429 . S
C2192 N2189 1.350 . S
C2192 C2191 1.434 1_545 S
C2193 C2194 1.369 1_554 S
C2193 C2195 1.419 . S
C2193 H2197 0.930 . S
C2194 C2193 1.369 1_556 S
C2194 C2203 1.429 1_545 S
C2195 C2193 1.419 . S
C2195 C2196 1.363 . S
C2195 H2198 0.929 . S
C2196 C2195 1.363 . S
C2196 C2202 1.428 1_544 S
H2197 C2193 0.930 . S
H2198 C2195 0.929 . S
S2199 N2200 1.613 . S
S2199 N2201 1.610 . S
N2200 S2199 1.613 . S
N2200 C2203 1.350 . S
N2201 S2199 1.610 . S
N2201 C2202 1.351 . S
C2202 C2196 1.428 1_566 S
C2202 N2201 1.351 . S
C2202 C2203 1.434 . S
C2203 C2194 1.429 1_565 S
C2203 N2200 1.350 . S
C2203 C2202 1.434 . S
C2204 C2205 1.369 . S
C2204 C2206 1.419 1_565 S
C2204 H2208 0.930 . S
C2205 C2204 1.369 . S
C2205 C2214 1.429 . S
C2206 C2204 1.419 1_545 S
C2206 C2207 1.363 . S
C2206 H2209 0.929 . S
C2207 C2206 1.363 . S
C2207 C2213 1.428 . S
H2208 C2204 0.930 . S
H2209 C2206 0.929 . S
S2210 N2211 1.613 . S
S2210 N2212 1.610 1_565 S
N2211 S2210 1.613 . S
N2211 C2214 1.350 . S
N2212 S2210 1.610 1_545 S
N2212 C2213 1.351 . S
C2213 C2207 1.428 . S
C2213 N2212 1.351 . S
C2213 C2214 1.434 1_545 S
C2214 C2205 1.429 . S
C2214 N2211 1.350 . S
C2214 C2213 1.434 1_565 S
C2215 C2216 1.369 . S
C2215 C2217 1.419 . S
C2215 H2219 0.930 . S
C2216 C2215 1.369 . S
C2216 C2225 1.429 1_545 S
C2217 C2215 1.419 . S
C2217 C2218 1.363 . S
C2217 H2220 0.929 . S
C2218 C2217 1.363 . S
C2218 C2224 1.428 1_545 S
H2219 C2215 0.930 . S
H2220 C2217 0.929 . S
S2221 N2222 1.613 . S
S2221 N2223 1.610 . S
N2222 S2221 1.613 . S
N2222 C2225 1.350 . S
N2223 S2221 1.610 . S
N2223 C2224 1.351 . S
C2224 C2218 1.428 1_565 S
C2224 N2223 1.351 . S
C2224 C2225 1.434 . S
C2225 C2216 1.429 1_565 S
C2225 N2222 1.350 . S
C2225 C2224 1.434 . S
C2226 C2227 1.369 . S
C2226 C2228 1.419 1_565 S
C2226 H2230 0.930 . S
C2227 C2226 1.369 . S
C2227 C2236 1.429 . S
C2228 C2226 1.419 1_545 S
C2228 C2229 1.363 . S
C2228 H2231 0.929 . S
C2229 C2228 1.363 . S
C2229 C2235 1.428 . S
H2230 C2226 0.930 . S
H2231 C2228 0.929 . S
S2232 N2233 1.613 . S
S2232 N2234 1.610 1_565 S
N2233 S2232 1.613 . S
N2233 C2236 1.350 . S
N2234 S2232 1.610 1_545 S
N2234 C2235 1.351 . S
C2235 C2229 1.428 . S
C2235 N2234 1.351 . S
C2235 C2236 1.434 1_545 S
C2236 C2227 1.429 . S
C2236 N2233 1.350 . S
C2236 C2235 1.434 1_565 S
C2237 C2238 1.369 1_546 S
C2237 C2239 1.419 . S
C2237 H2241 0.930 . S
C2238 C2237 1.369 1_564 S
C2238 C2247 1.429 . S
C2239 C2237 1.419 . S
C2239 C2240 1.363 1_545 S
C2239 H2242 0.929 . S
C2240 C2239 1.363 1_565 S
C2240 C2246 1.428 1_556 S
H2241 C2237 0.930 . S
H2242 C2239 0.929 . S
S2243 N2244 1.613 . S
S2243 N2245 1.610 . S
N2244 S2243 1.613 . S
N2244 C2247 1.350 . S
N2245 S2243 1.610 . S
N2245 C2246 1.351 . S
C2246 C2240 1.428 1_554 S
C2246 N2245 1.351 . S
C2246 C2247 1.434 . S
C2247 C2238 1.429 . S
C2247 N2244 1.350 . S
C2247 C2246 1.434 . S
C2248 C2249 1.369 . S
C2248 C2250 1.419 . S
C2248 H2252 0.930 . S
C2249 C2248 1.369 . S
C2249 C2258 1.429 . S
C2250 C2248 1.419 . S
C2250 C2251 1.363 . S
C2250 H2253 0.929 . S
C2251 C2250 1.363 . S
C2251 C2257 1.428 . S
H2252 C2248 0.930 . S
H2253 C2250 0.929 . S
S2254 N2255 1.613 . S
S2254 N2256 1.610 . S
N2255 S2254 1.613 . S
N2255 C2258 1.350 . S
N2256 S2254 1.610 . S
N2256 C2257 1.351 . S
C2257 C2251 1.428 . S
C2257 N2256 1.351 . S
C2257 C2258 1.434 . S
C2258 C2249 1.429 . S
C2258 N2255 1.350 . S
C2258 C2257 1.434 . S
C2259 C2260 1.369 1_554 S
C2259 C2261 1.419 . S
C2259 H2263 0.930 . S
C2260 C2259 1.369 1_556 S
C2260 C2269 1.429 . S
C2261 C2259 1.419 . S
C2261 C2262 1.363 . S
C2261 H2264 0.929 . S
C2262 C2261 1.363 . S
C2262 C2268 1.428 1_554 S
H2263 C2259 0.930 . S
H2264 C2261 0.929 . S
S2265 N2266 1.613 . S
S2265 N2267 1.610 . S
N2266 S2265 1.613 . S
N2266 C2269 1.350 . S
N2267 S2265 1.610 . S
N2267 C2268 1.351 . S
C2268 C2262 1.428 1_556 S
C2268 N2267 1.351 . S
C2268 C2269 1.434 . S
C2269 C2260 1.429 . S
C2269 N2266 1.350 . S
C2269 C2268 1.434 . S
C2270 C2271 1.369 . S
C2270 C2272 1.419 . S
C2270 H2274 0.930 . S
C2271 C2270 1.369 . S
C2271 C2280 1.429 . S
C2272 C2270 1.419 . S
C2272 C2273 1.363 . S
C2272 H2275 0.929 . S
C2273 C2272 1.363 . S
C2273 C2279 1.428 . S
H2274 C2270 0.930 . S
H2275 C2272 0.929 . S
S2276 N2277 1.613 . S
S2276 N2278 1.610 . S
N2277 S2276 1.613 . S
N2277 C2280 1.350 . S
N2278 S2276 1.610 . S
N2278 C2279 1.351 . S
C2279 C2273 1.428 . S
C2279 N2278 1.351 . S
C2279 C2280 1.434 . S
C2280 C2271 1.429 . S
C2280 N2277 1.350 . S
C2280 C2279 1.434 . S
C2281 C2282 1.369 . S
C2281 C2283 1.419 . S
C2281 H2285 0.930 . S
C2282 C2281 1.369 . S
C2282 C2291 1.429 . S
C2283 C2281 1.419 . S
C2283 C2284 1.363 . S
C2283 H2286 0.929 . S
C2284 C2283 1.363 . S
C2284 C2290 1.428 . S
H2285 C2281 0.930 . S
H2286 C2283 0.929 . S
S2287 N2288 1.613 . S
S2287 N2289 1.610 . S
N2288 S2287 1.613 . S
N2288 C2291 1.350 . S
N2289 S2287 1.610 . S
N2289 C2290 1.351 . S
C2290 C2284 1.428 . S
C2290 N2289 1.351 . S
C2290 C2291 1.434 . S
C2291 C2282 1.429 . S
C2291 N2288 1.350 . S
C2291 C2290 1.434 . S
C2292 C2293 1.369 . S
C2292 C2294 1.419 . S
C2292 H2296 0.930 . S
C2293 C2292 1.369 . S
C2293 C2302 1.429 . S
C2294 C2292 1.419 . S
C2294 C2295 1.363 . S
C2294 H2297 0.929 . S
C2295 C2294 1.363 . S
C2295 C2301 1.428 . S
H2296 C2292 0.930 . S
H2297 C2294 0.929 . S
S2298 N2299 1.613 . S
S2298 N2300 1.610 . S
N2299 S2298 1.613 . S
N2299 C2302 1.350 . S
N2300 S2298 1.610 . S
N2300 C2301 1.351 . S
C2301 C2295 1.428 . S
C2301 N2300 1.351 . S
C2301 C2302 1.434 . S
C2302 C2293 1.429 . S
C2302 N2299 1.350 . S
C2302 C2301 1.434 . S
C2303 C2304 1.369 . S
C2303 C2305 1.426 . S
C2303 H2307 0.930 . S
C2304 C2303 1.369 . S
C2304 C2313 1.429 1_556 S
C2305 C2303 1.426 . S
C2305 C2306 1.355 1_556 S
C2305 H2308 0.936 . S
C2306 C2305 1.355 1_554 S
C2306 C2312 1.428 . S
H2307 C2303 0.930 . S
H2308 C2305 0.936 . S
S2309 N2310 1.613 . S
S2309 N2311 1.610 . S
N2310 S2309 1.613 . S
N2310 C2313 1.350 . S
N2311 S2309 1.610 . S
N2311 C2312 1.351 . S
C2312 C2306 1.428 . S
C2312 N2311 1.351 . S
C2312 C2313 1.434 . S
C2313 C2304 1.429 1_554 S
C2313 N2310 1.350 . S
C2313 C2312 1.434 . S
C2314 C2315 1.369 . S
C2314 C2316 1.419 . S
C2314 H2318 0.930 . S
C2315 C2314 1.369 . S
C2315 C2324 1.429 . S
C2316 C2314 1.419 . S
C2316 C2317 1.363 . S
C2316 H2319 0.929 . S
C2317 C2316 1.363 . S
C2317 C2323 1.428 . S
H2318 C2314 0.930 . S
H2319 C2316 0.929 . S
S2320 N2321 1.613 . S
S2320 N2322 1.610 . S
N2321 S2320 1.613 . S
N2321 C2324 1.350 . S
N2322 S2320 1.610 . S
N2322 C2323 1.351 . S
C2323 C2317 1.428 . S
C2323 N2322 1.351 . S
C2323 C2324 1.434 . S
C2324 C2315 1.429 . S
C2324 N2321 1.350 . S
C2324 C2323 1.434 . S
C2325 C2326 1.369 . S
C2325 C2327 1.419 . S
C2325 H2329 0.930 . S
C2326 C2325 1.369 . S
C2326 C2335 1.429 . S
C2327 C2325 1.419 . S
C2327 C2328 1.363 . S
C2327 H2330 0.929 . S
C2328 C2327 1.363 . S
C2328 C2334 1.428 . S
H2329 C2325 0.930 . S
H2330 C2327 0.929 . S
S2331 N2332 1.613 . S
S2331 N2333 1.610 . S
N2332 S2331 1.613 . S
N2332 C2335 1.350 . S
N2333 S2331 1.610 . S
N2333 C2334 1.351 . S
C2334 C2328 1.428 . S
C2334 N2333 1.351 . S
C2334 C2335 1.434 . S
C2335 C2326 1.429 . S
C2335 N2332 1.350 . S
C2335 C2334 1.434 . S
C1281 C6 0.978 . S
C1283 C1099 0.948 . S
C1292 C46 0.989 . S
C1294 C339 0.939 . S
C1303 C86 0.986 . S
C1305 C1019 0.940 . S
C1314 C419 0.952 . S
C1316 C126 0.979 . S
C1325 C166 0.979 . S
C1327 C1179 0.948 . S
C1336 C579 0.933 . S
C1338 C206 0.991 . S
C1347 C1259 0.932 . S
C1349 C246 0.994 . S
C1358 C286 0.997 . S
C1360 C499 0.932 . S
C1369 C335 0.986 . S
C1371 C770 0.941 . S
C1380 C375 0.996 . S
C1382 C10 0.933 . S
C1391 C690 0.942 . S
C1393 C415 0.985 . S
C1402 C90 0.933 . S
C1404 C455 0.992 . S
C1413 C495 0.996 . S
C1415 C850 0.934 . S
C1424 C535 0.981 . S
C1426 C250 0.946 . S
C1435 C575 0.973 . S
C1437 C930 0.953 . S
C1446 C170 0.954 . S
C1448 C615 0.977 . S
C1457 C459 0.932 . S
C1459 C646 0.992 . S
C1468 C979 0.945 . S
C1470 C686 0.984 . S
C1479 C379 0.946 . S
C1481 C726 0.982 . S
C1490 C766 0.976 . S
C1492 C1059 0.951 . S
C1501 C539 0.942 . S
C1503 C806 0.984 . S
C1512 C1219 0.950 . S
C1514 C846 0.981 . S
C1523 C619 0.938 . S
C1525 C886 0.987 . S
C1534 C926 0.994 . S
C1536 C1139 0.936 . S
C1545 C975 0.982 . S
C1547 C130 0.946 . S
C1556 C1015 0.986 . S
C1558 C650 0.941 . S
C1567 C1055 0.984 . S
C1569 C50 0.943 . S
C1578 C1095 0.987 . S
C1580 C730 0.940 . S
C1589 C210 0.947 . S
C1591 C1135 0.981 . S
C1600 C890 0.931 . S
C1602 C1175 0.993 . S
C1611 C1215 0.992 . S
C1613 C290 0.936 . S
C1622 C1255 0.991 . S
C1624 C810 0.938 . S
C1633 C18 3.000 . S
C1635 C738 2.995 . S
C1644 C778 2.995 1_455 S
C1646 C58 2.998 1_655 S
C1655 C98 2.995 . S
C1657 C658 2.999 . S
C1666 C138 2.996 . S
C1668 C698 2.997 . S
C1677 C898 2.998 . S
C1679 C178 2.995 . S
C1688 C218 2.994 . S
C1690 C938 3.000 . S
C1699 C818 2.993 . S
C1701 C258 2.999 . S
C1710 C298 3.000 1_655 S
C1712 C858 2.991 1_455 S
C1721 C1049 2.996 . S
C1723 C329 2.998 . S
C1732 C369 2.991 1_455 S
C1734 C1089 2.999 1_655 S
C1743 C409 2.995 . S
C1745 C969 2.998 . S
C1754 C449 2.996 . S
C1756 C1009 2.998 . S
C1765 C1209 2.994 . S
C1767 C489 2.999 . S
C1776 C1249 2.995 . S
C1778 C529 2.999 . S
C1787 C569 2.997 . S
C1789 C1129 2.996 . S
C1798 C609 3.001 1_455 S
C1800 C1169 2.991 1_655 S
C1809 C19 3.519 . S
C1811 C970 3.517 . S
C1820 C370 3.520 1_565 S
C1822 C59 3.514 1_545 S
C1831 C99 3.517 . S
C1833 C1050 3.518 . S
C1842 C139 3.517 1_565 S
C1844 C450 3.518 1_545 S
C1853 C1130 3.517 . S
C1855 C179 3.519 . S
C1864 C530 3.513 1_565 S
C1866 C219 3.520 1_545 S
C1875 C259 3.519 . S
C1877 C1210 3.517 . S
C1886 C299 3.520 1_565 S
C1888 C610 3.517 1_545 S
C1897 C659 3.520 . S
C1899 C330 3.517 . S
C1908 C739 3.519 . S
C1910 C410 3.517 . S
C1919 C819 3.520 . S
C1921 C490 3.516 . S
C1930 C570 3.520 . S
C1932 C899 3.516 . S
C1941 C699 3.518 . S
C1943 C1010 3.518 . S
C1952 C779 3.516 . S
C1954 C1090 3.520 . S
C1963 C1170 3.516 . S
C1965 C859 3.520 . S
C1974 C1250 3.520 . S
C1976 C939 3.516 . S
C1985 C9 4.597 . S
C1987 C209 4.595 . S
C1996 C249 4.598 . S
C1998 C49 4.594 . S
C2007 C289 4.595 . S
C2009 C89 4.596 . S
C2018 C169 4.596 . S
C2020 C129 4.596 . S
C2029 C338 4.597 . S
C2031 C538 4.594 . S
C2040 C378 4.598 . S
C2042 C578 4.594 . S
C2051 C618 4.594 . S
C2053 C418 4.597 . S
C2062 C458 4.594 . S
C2064 C498 4.597 . S
C2073 C649 4.598 . S
C2075 C849 4.594 . S
C2084 C689 4.595 . S
C2086 C889 4.596 . S
C2095 C729 4.598 . S
C2097 C929 4.594 . S
C2106 C809 4.598 . S
C2108 C769 4.594 . S
C2117 C978 4.594 . S
C2119 C1178 4.597 . S
C2128 C1018 4.594 . S
C2130 C1218 4.597 . S
C2139 C1258 4.598 . S
C2141 C1058 4.594 . S
C2150 C1098 4.597 . S
C2152 C1138 4.594 . S
C2161 C15 0.696 . S
C2163 C175 0.674 . S
C2172 C55 0.671 . S
C2174 C215 0.696 . S
C2183 C255 0.670 . S
C2185 C95 0.694 . S
C2194 C295 0.689 . S
C2196 C135 0.688 . S
C2205 C326 0.692 . S
C2207 C486 0.683 . S
C2216 C526 0.696 . S
C2218 C366 0.679 . S
C2227 C566 0.695 . S
C2229 C406 0.675 . S
C2238 C606 0.674 . S
C2240 C446 0.689 . S
C2249 C655 0.687 . S
C2251 C815 0.689 . S
C2260 C855 0.673 . S
C2262 C695 0.696 . S
C2271 C735 0.683 . S
C2273 C895 0.692 . S
C2282 C935 0.699 . S
C2284 C775 0.675 . S
C2293 C1126 0.677 . S
C2295 C966 0.694 . S
C2304 C1006 0.689 . S
C2306 C1166 0.678 . S
C2315 C1046 0.698 . S
C2317 C1206 0.674 . S
C2326 C1086 0.693 . S
C2328 C1246 0.682 . S
